# Generated by pormake.
# Topology uoz, (4)-cn, num edge types: 1
# Building blocks:
#     Node 0, Type 0, BuildingBlock: NAHDIM_clean_sbu_0, # of connection points: 4
#     Node 1, Type 0, BuildingBlock: NAHDIM_clean_sbu_0, # of connection points: 4
#     Node 2, Type 0, BuildingBlock: NAHDIM_clean_sbu_0, # of connection points: 4
#     Node 3, Type 0, BuildingBlock: NAHDIM_clean_sbu_0, # of connection points: 4
#     Node 4, Type 0, BuildingBlock: NAHDIM_clean_sbu_0, # of connection points: 4
#     Node 5, Type 0, BuildingBlock: NAHDIM_clean_sbu_0, # of connection points: 4
#     Node 6, Type 0, BuildingBlock: NAHDIM_clean_sbu_0, # of connection points: 4
#     Node 7, Type 0, BuildingBlock: NAHDIM_clean_sbu_0, # of connection points: 4
#     Node 8, Type 0, BuildingBlock: NAHDIM_clean_sbu_0, # of connection points: 4
#     Node 9, Type 0, BuildingBlock: NAHDIM_clean_sbu_0, # of connection points: 4
#     Node 10, Type 0, BuildingBlock: NAHDIM_clean_sbu_0, # of connection points: 4
#     Node 11, Type 0, BuildingBlock: NAHDIM_clean_sbu_0, # of connection points: 4
#     Node 12, Type 0, BuildingBlock: NAHDIM_clean_sbu_0, # of connection points: 4
#     Node 13, Type 0, BuildingBlock: NAHDIM_clean_sbu_0, # of connection points: 4
#     Node 14, Type 0, BuildingBlock: NAHDIM_clean_sbu_0, # of connection points: 4
#     Node 15, Type 0, BuildingBlock: NAHDIM_clean_sbu_0, # of connection points: 4
#     Edge 16, Type (0, 0), BuildingBlock: EZIPEK_clean_linker_0, # of connection points: 2
#     Edge 17, Type (0, 0), BuildingBlock: EZIPEK_clean_linker_0, # of connection points: 2
#     Edge 18, Type (0, 0), BuildingBlock: EZIPEK_clean_linker_0, # of connection points: 2
#     Edge 19, Type (0, 0), BuildingBlock: EZIPEK_clean_linker_0, # of connection points: 2
#     Edge 20, Type (0, 0), BuildingBlock: EZIPEK_clean_linker_0, # of connection points: 2
#     Edge 21, Type (0, 0), BuildingBlock: EZIPEK_clean_linker_0, # of connection points: 2
#     Edge 22, Type (0, 0), BuildingBlock: EZIPEK_clean_linker_0, # of connection points: 2
#     Edge 23, Type (0, 0), BuildingBlock: EZIPEK_clean_linker_0, # of connection points: 2
#     Edge 24, Type (0, 0), BuildingBlock: EZIPEK_clean_linker_0, # of connection points: 2
#     Edge 25, Type (0, 0), BuildingBlock: EZIPEK_clean_linker_0, # of connection points: 2
#     Edge 26, Type (0, 0), BuildingBlock: EZIPEK_clean_linker_0, # of connection points: 2
#     Edge 27, Type (0, 0), BuildingBlock: EZIPEK_clean_linker_0, # of connection points: 2
#     Edge 28, Type (0, 0), BuildingBlock: EZIPEK_clean_linker_0, # of connection points: 2
#     Edge 29, Type (0, 0), BuildingBlock: EZIPEK_clean_linker_0, # of connection points: 2
#     Edge 30, Type (0, 0), BuildingBlock: EZIPEK_clean_linker_0, # of connection points: 2
#     Edge 31, Type (0, 0), BuildingBlock: EZIPEK_clean_linker_0, # of connection points: 2
#     Edge 32, Type (0, 0), BuildingBlock: EZIPEK_clean_linker_0, # of connection points: 2
#     Edge 33, Type (0, 0), BuildingBlock: EZIPEK_clean_linker_0, # of connection points: 2
#     Edge 34, Type (0, 0), BuildingBlock: EZIPEK_clean_linker_0, # of connection points: 2
#     Edge 35, Type (0, 0), BuildingBlock: EZIPEK_clean_linker_0, # of connection points: 2
#     Edge 36, Type (0, 0), BuildingBlock: EZIPEK_clean_linker_0, # of connection points: 2
#     Edge 37, Type (0, 0), BuildingBlock: EZIPEK_clean_linker_0, # of connection points: 2
#     Edge 38, Type (0, 0), BuildingBlock: EZIPEK_clean_linker_0, # of connection points: 2
#     Edge 39, Type (0, 0), BuildingBlock: EZIPEK_clean_linker_0, # of connection points: 2
#     Edge 40, Type (0, 0), BuildingBlock: EZIPEK_clean_linker_0, # of connection points: 2
#     Edge 41, Type (0, 0), BuildingBlock: EZIPEK_clean_linker_0, # of connection points: 2
#     Edge 42, Type (0, 0), BuildingBlock: EZIPEK_clean_linker_0, # of connection points: 2
#     Edge 43, Type (0, 0), BuildingBlock: EZIPEK_clean_linker_0, # of connection points: 2
#     Edge 44, Type (0, 0), BuildingBlock: EZIPEK_clean_linker_0, # of connection points: 2
#     Edge 45, Type (0, 0), BuildingBlock: EZIPEK_clean_linker_0, # of connection points: 2
#     Edge 46, Type (0, 0), BuildingBlock: EZIPEK_clean_linker_0, # of connection points: 2
#     Edge 47, Type (0, 0), BuildingBlock: EZIPEK_clean_linker_0, # of connection points: 2
# Relax obj value: 0.098
# Max RMSD: 0.094
# Mean RMSD: 0.094
data_MOF--net-uoz--node1-NAHDIM_clean_sbu_0--edge1-EZIPEK_clean_linker_0
_symmetry_space_group_name_H-M    P1
_symmetry_Int_Tables_number       1
_symmetry_cell_setting            triclinic
loop_
_symmetry_equiv_pos_as_xyz
'x, y, z'
_cell_length_a     43.742598
_cell_length_b     43.69981
_cell_length_c     16.75039
_cell_angle_alpha  90.054949
_cell_angle_beta   90.004945
_cell_angle_gamma 90.020313
loop_
_atom_site_label
_atom_site_type_symbol
_atom_site_fract_x
_atom_site_fract_y
_atom_site_fract_z
_atom_type_partial_charge
C0 C 0.06127 0.55228 0.43983 0.0
O1 O 0.08143 0.54552 0.38445 0.0
O2 O 0.08214 0.61367 0.28455 0.0
Zn3 Zn 0.04274 0.59147 0.31574 0.0
O4 O 0.03607 0.55518 0.24555 0.0
C5 C 0.0095 0.64523 0.26356 0.0
O6 O 0.03698 0.65722 0.25949 0.0
O7 O 0.04253 0.57404 0.42749 0.0
C8 C 0.03369 0.55919 0.17093 0.0
O9 O 0.03689 0.5868 0.14152 0.0
C10 C 0.10376 0.60106 0.2457 0.0
O11 O 0.10252 0.57169 0.22988 0.0
O12 O 0.00619 0.61836 0.29134 0.0
C13 C 0.76577 0.7759 0.61809 0.0
O14 O 0.77483 0.78983 0.55279 0.0
O15 O 0.68946 0.79738 0.49886 0.0
Zn16 Zn 0.71587 0.76021 0.51611 0.0
O17 O 0.74498 0.7561 0.42516 0.0
C18 C 0.66413 0.72508 0.46711 0.0
O19 O 0.65651 0.75144 0.43542 0.0
O20 O 0.74026 0.76187 0.61846 0.0
C21 C 0.7353 0.76034 0.35473 0.0
O22 O 0.70688 0.76857 0.34234 0.0
C23 C 0.69737 0.82344 0.47247 0.0
O24 O 0.72643 0.83027 0.4644 0.0
O25 O 0.68843 0.723 0.5087 0.0
C26 C 0.52945 0.45193 0.94701 0.0
O27 O 0.50898 0.45731 0.89137 0.0
O28 O 0.50542 0.38422 0.82145 0.0
Zn29 Zn 0.5451 0.40778 0.83204 0.0
O30 O 0.5467 0.43981 0.74772 0.0
C31 C 0.57832 0.36568 0.74099 0.0
O32 O 0.55609 0.37341 0.69267 0.0
O33 O 0.54823 0.42998 0.93754 0.0
C34 C 0.57195 0.45051 0.72315 0.0
O35 O 0.59777 0.44047 0.75336 0.0
C36 C 0.49132 0.38404 0.75496 0.0
O37 O 0.50001 0.40265 0.69783 0.0
O38 O 0.57972 0.37793 0.80994 0.0
C39 C 0.82486 0.22595 0.15102 0.0
O40 O 0.8193 0.20727 0.0913 0.0
O41 O 0.89609 0.20756 0.02428 0.0
Zn42 Zn 0.86994 0.24547 0.04065 0.0
O43 O 0.83729 0.24702 0.95673 0.0
C44 C 0.91799 0.28251 0.97749 0.0
O45 O 0.92354 0.25698 0.93883 0.0
O46 O 0.84714 0.24462 0.14592 0.0
C47 C 0.84223 0.24905 0.88233 0.0
O48 O 0.87021 0.25029 0.85476 0.0
C49 C 0.88629 0.18428 0.98655 0.0
O50 O 0.85791 0.1835 0.96145 0.0
O51 O 0.89625 0.28351 0.02791 0.0
C52 C 0.05563 0.47068 0.71218 0.0
O53 O 0.07501 0.47594 0.7705 0.0
O54 O 0.07681 0.40021 0.83523 0.0
Zn55 Zn 0.03813 0.42473 0.82168 0.0
O56 O 0.03688 0.45538 0.9092 0.0
C57 C 0.006 0.37231 0.87959 0.0
O58 O 0.03375 0.36507 0.90249 0.0
O59 O 0.03701 0.44839 0.7181 0.0
C60 C 0.0121 0.46449 0.94046 0.0
O61 O 0.98582 0.45335 0.91614 0.0
C62 C 0.09866 0.4091 0.87959 0.0
O63 O 0.0982 0.43673 0.91033 0.0
O64 O 0.00178 0.39666 0.83935 0.0
C65 C 0.84394 0.77891 0.89788 0.0
O66 O 0.84318 0.80299 0.94486 0.0
O67 O 0.90292 0.79473 0.05258 0.0
Zn68 Zn 0.87824 0.75642 0.02913 0.0
O69 O 0.84376 0.75527 0.10535 0.0
C70 C 0.91267 0.71871 0.12842 0.0
O71 O 0.90102 0.73844 0.17914 0.0
O72 O 0.85976 0.75579 0.91848 0.0
C73 C 0.81782 0.74337 0.09269 0.0
O74 O 0.81196 0.72971 0.0245 0.0
C75 C 0.89947 0.80842 0.1192 0.0
O76 O 0.8779 0.79961 0.1685 0.0
O77 O 0.90516 0.72035 0.05508 0.0
C78 C 0.52844 0.53321 0.22083 0.0
O79 O 0.50913 0.52675 0.27846 0.0
O80 O 0.50787 0.59634 0.36801 0.0
Zn81 Zn 0.54789 0.57522 0.33891 0.0
O82 O 0.5571 0.54109 0.41433 0.0
C83 C 0.57847 0.6284 0.3983 0.0
O84 O 0.55235 0.63152 0.43583 0.0
O85 O 0.54704 0.55534 0.22995 0.0
C86 C 0.5576 0.54541 0.48909 0.0
O87 O 0.5523 0.57281 0.51761 0.0
C88 C 0.4856 0.58554 0.40798 0.0
O89 O 0.48601 0.55697 0.43186 0.0
O90 O 0.58222 0.60609 0.35035 0.0
C91 C 0.74175 0.21838 0.41981 0.0
O92 O 0.74758 0.19692 0.47256 0.0
O93 O 0.67876 0.19266 0.55857 0.0
Zn94 Zn 0.7006 0.2334 0.54206 0.0
O95 O 0.73615 0.23528 0.61605 0.0
C96 C 0.64736 0.26755 0.59985 0.0
O97 O 0.63402 0.2407 0.60263 0.0
O98 O 0.71996 0.23701 0.43298 0.0
C99 C 0.73535 0.24883 0.68305 0.0
O100 O 0.70996 0.26174 0.70779 0.0
C101 C 0.67225 0.18457 0.62958 0.0
O102 O 0.68073 0.20216 0.68915 0.0
O103 O 0.67418 0.2699 0.57126 0.0
C104 C 0.32341 0.26907 0.47061 0.0
O105 O 0.31871 0.28847 0.52919 0.0
O106 O 0.39363 0.28596 0.59847 0.0
Zn107 Zn 0.3689 0.2472 0.57929 0.0
O108 O 0.33915 0.24047 0.66955 0.0
C109 C 0.40468 0.19846 0.64329 0.0
O110 O 0.38992 0.20673 0.70786 0.0
O111 O 0.34466 0.24935 0.47668 0.0
C112 C 0.32855 0.26189 0.71263 0.0
O113 O 0.33601 0.29042 0.69817 0.0
C114 C 0.40557 0.28928 0.6672 0.0
O115 O 0.40122 0.26824 0.72167 0.0
O116 O 0.39846 0.21141 0.57729 0.0
C117 C 0.25044 0.72911 0.95736 0.0
O118 O 0.25656 0.71012 0.0159 0.0
O119 O 0.18403 0.70621 0.08546 0.0
Zn120 Zn 0.20647 0.74652 0.07118 0.0
O121 O 0.23843 0.75144 0.1545 0.0
C122 C 0.15241 0.77834 0.12411 0.0
O123 O 0.14295 0.75041 0.13916 0.0
O124 O 0.22835 0.74785 0.96489 0.0
C125 C 0.23242 0.74669 0.22747 0.0
O126 O 0.20495 0.73753 0.24826 0.0
C127 C 0.19487 0.68237 0.11871 0.0
O128 O 0.22234 0.68406 0.14964 0.0
O129 O 0.17807 0.78229 0.0899 0.0
C130 C 0.24179 0.27704 0.19933 0.0
O131 O 0.24598 0.29993 0.14972 0.0
O132 O 0.17738 0.30159 0.06558 0.0
Zn133 Zn 0.20053 0.26206 0.07728 0.0
O134 O 0.23316 0.26376 0.9958 0.0
C135 C 0.1455 0.22553 0.05641 0.0
O136 O 0.13246 0.24645 0.10117 0.0
O137 O 0.22142 0.25714 0.18367 0.0
C138 C 0.24589 0.23945 0.97155 0.0
O139 O 0.23835 0.21288 0.00236 0.0
C140 C 0.16931 0.30727 0.99414 0.0
O141 O 0.17595 0.28754 0.93757 0.0
O142 O 0.17405 0.22667 0.04372 0.0
C143 C 0.33027 0.71929 0.68282 0.0
O144 O 0.32504 0.69668 0.6329 0.0
O145 O 0.39495 0.69192 0.55467 0.0
Zn146 Zn 0.37333 0.73263 0.56248 0.0
O147 O 0.34076 0.73425 0.48 0.0
C148 C 0.4162 0.76791 0.47112 0.0
O149 O 0.40924 0.74728 0.41718 0.0
O150 O 0.35176 0.73805 0.6679 0.0
C151 C 0.32555 0.75856 0.4685 0.0
O152 O 0.33179 0.78321 0.51031 0.0
C153 C 0.39709 0.67852 0.48737 0.0
O154 O 0.38241 0.68969 0.42554 0.0
O155 O 0.40374 0.76664 0.53979 0.0
C156 C 0.55749 0.03857 0.94973 0.0
O157 O 0.57904 0.03395 0.89643 0.0
O158 O 0.57475 0.09973 0.79532 0.0
Zn159 Zn 0.53608 0.07727 0.82591 0.0
O160 O 0.52992 0.04357 0.74841 0.0
C161 C 0.49989 0.11526 0.73524 0.0
O162 O 0.52098 0.10625 0.68474 0.0
O163 O 0.53672 0.05818 0.93545 0.0
C164 C 0.50634 0.02669 0.74779 0.0
O165 O 0.48466 0.03063 0.80101 0.0
C166 C 0.59331 0.08907 0.74385 0.0
O167 O 0.58954 0.06128 0.71571 0.0
O168 O 0.50094 0.106 0.80719 0.0
C169 C 0.02266 0.96231 0.43848 0.0
O170 O 0.00187 0.96764 0.3836 0.0
O171 O 0.00045 0.89532 0.30444 0.0
Zn172 Zn 0.03973 0.91925 0.32076 0.0
O173 O 0.0415 0.95211 0.23896 0.0
C174 C 0.07503 0.87728 0.23246 0.0
O175 O 0.05365 0.88435 0.18082 0.0
O176 O 0.04175 0.94073 0.42764 0.0
C177 C 0.06604 0.96518 0.21773 0.0
O178 O 0.09226 0.95704 0.24947 0.0
C179 C 0.98738 0.89621 0.2365 0.0
O180 O 0.9972 0.91535 0.18191 0.0
O181 O 0.07501 0.89013 0.30073 0.0
C182 C 0.55213 0.96212 0.23256 0.0
O183 O 0.56928 0.96913 0.29434 0.0
O184 O 0.57557 0.90301 0.37432 0.0
Zn185 Zn 0.53312 0.91549 0.34021 0.0
O186 O 0.51595 0.94317 0.42452 0.0
C187 C 0.50216 0.86443 0.40155 0.0
O188 O 0.51742 0.87356 0.46446 0.0
O189 O 0.53448 0.93902 0.23652 0.0
C190 C 0.52793 0.94408 0.49355 0.0
O191 O 0.55164 0.92682 0.51001 0.0
C192 C 0.58874 0.87916 0.34834 0.0
O193 O 0.57548 0.86254 0.29289 0.0
O194 O 0.50519 0.87867 0.33588 0.0
C195 C 0.02294 0.04289 0.71391 0.0
O196 O 0.00387 0.03575 0.77147 0.0
O197 O 0.99779 0.10614 0.8537 0.0
Zn198 Zn 0.03902 0.08717 0.8303 0.0
O199 O 0.04877 0.05527 0.91168 0.0
C200 C 0.06581 0.13984 0.89909 0.0
O201 O 0.03909 0.14015 0.93456 0.0
O202 O 0.04052 0.06588 0.72273 0.0
C203 C 0.04426 0.05943 0.98571 0.0
O204 O 0.03234 0.08523 0.0109 0.0
C205 C 0.97531 0.09411 0.89024 0.0
O206 O 0.97584 0.06495 0.90884 0.0
O207 O 0.07123 0.12004 0.84505 0.0
C208 C 0.18237 0.63292 0.19288 0.0
C209 C 0.17428 0.65561 0.13587 0.0
C210 C 0.12087 0.63904 0.14236 0.0
C211 C 0.12809 0.61991 0.20829 0.0
N212 N 0.16543 0.59932 0.29934 0.0
N213 N 0.1399 0.6669 0.02783 0.0
C214 C 0.15885 0.61677 0.23386 0.0
C215 C 0.14461 0.65488 0.10213 0.0
N216 N 0.21227 0.62466 0.20209 0.0
N217 N 0.09123 0.64258 0.11885 0.0
H218 H 0.15787 0.67491 0.99259 0.0
H219 H 0.11942 0.66493 0.99662 0.0
H220 H 0.07339 0.63034 0.1442 0.0
H221 H 0.0841 0.65919 0.07836 0.0
H222 H 0.21944 0.60684 0.23881 0.0
H223 H 0.22936 0.63213 0.16344 0.0
H224 H 0.1868 0.59903 0.32671 0.0
H225 H 0.14882 0.58702 0.3305 0.0
C226 C 0.62083 0.86218 0.46494 0.0
C227 C 0.61844 0.86946 0.38249 0.0
C228 C 0.67055 0.85089 0.36015 0.0
C229 C 0.67308 0.84414 0.44296 0.0
N230 N 0.6543 0.85112 0.57664 0.0
N231 N 0.64344 0.87855 0.25659 0.0
C232 C 0.64938 0.85246 0.49614 0.0
C233 C 0.64412 0.86631 0.33165 0.0
N234 N 0.59548 0.86257 0.51254 0.0
N235 N 0.69236 0.84102 0.30777 0.0
H236 H 0.62451 0.89025 0.23415 0.0
H237 H 0.66256 0.87975 0.21968 0.0
H238 H 0.71234 0.83013 0.32555 0.0
H239 H 0.68967 0.84174 0.24602 0.0
H240 H 0.59522 0.85417 0.5707 0.0
H241 H 0.57395 0.86872 0.49182 0.0
H242 H 0.63894 0.85966 0.61865 0.0
H243 H 0.6752 0.84435 0.601 0.0
C244 C 0.43882 0.36827 0.71057 0.0
C245 C 0.46865 0.35987 0.73625 0.0
C246 C 0.45805 0.30621 0.70326 0.0
C247 C 0.42754 0.31419 0.68401 0.0
N248 N 0.38755 0.35191 0.67465 0.0
N249 N 0.50585 0.32025 0.76515 0.0
C250 C 0.41759 0.34503 0.68842 0.0
C251 C 0.47797 0.32866 0.73542 0.0
N252 N 0.43083 0.3985 0.70746 0.0
N253 N 0.46844 0.27735 0.68686 0.0
H254 H 0.52241 0.33565 0.78412 0.0
H255 H 0.51201 0.29764 0.77627 0.0
H256 H 0.45461 0.26038 0.66228 0.0
H257 H 0.49132 0.27091 0.6901 0.0
H258 H 0.4111 0.40653 0.6798 0.0
H259 H 0.44466 0.41598 0.72974 0.0
H260 H 0.37783 0.37317 0.68631 0.0
H261 H 0.37169 0.33574 0.65534 0.0
C262 C 0.91784 0.15831 0.88188 0.0
C263 C 0.90775 0.15983 0.96223 0.0
C264 C 0.94105 0.11676 0.99667 0.0
C265 C 0.94949 0.11399 0.91482 0.0
N266 N 0.93967 0.12696 0.77734 0.0
N267 N 0.90504 0.1373 0.09314 0.0
C268 C 0.93588 0.13317 0.85674 0.0
C269 C 0.91786 0.13799 0.01874 0.0
N270 N 0.91157 0.18168 0.83041 0.0
N271 N 0.95626 0.10057 0.05403 0.0
H272 H 0.88845 0.15291 0.11166 0.0
H273 H 0.90899 0.11979 0.13403 0.0
H274 H 0.97333 0.08473 0.04145 0.0
H275 H 0.95359 0.10455 0.11494 0.0
H276 H 0.92098 0.18328 0.77344 0.0
H277 H 0.89956 0.20111 0.84774 0.0
H278 H 0.92787 0.13847 0.73245 0.0
H279 H 0.95206 0.10814 0.75676 0.0
C280 C 0.10871 0.36967 0.98356 0.0
C281 C 0.11884 0.3857 0.91487 0.0
C282 C 0.16546 0.35485 0.91188 0.0
C283 C 0.15318 0.33592 0.97298 0.0
N284 N 0.11139 0.32324 0.06138 0.0
N285 N 0.15568 0.3931 0.80999 0.0
C286 C 0.12452 0.34296 0.00816 0.0
C287 C 0.14698 0.37826 0.8781 0.0
N288 N 0.08401 0.38006 0.02557 0.0
N289 N 0.19512 0.35103 0.88814 0.0
H290 H 0.14314 0.41112 0.78555 0.0
H291 H 0.17419 0.38637 0.77507 0.0
H292 H 0.20959 0.33472 0.91343 0.0
H293 H 0.20631 0.36584 0.84923 0.0
H294 H 0.07759 0.37141 0.08101 0.0
H295 H 0.07132 0.39909 0.00819 0.0
H296 H 0.08884 0.32514 0.08075 0.0
H297 H 0.1221 0.3035 0.08171 0.0
C298 C 0.93436 0.88342 0.19089 0.0
C299 C 0.96395 0.87333 0.2138 0.0
C300 C 0.95211 0.82139 0.16716 0.0
C301 C 0.9221 0.83119 0.14723 0.0
N302 N 0.88308 0.87012 0.14718 0.0
N303 N -0.00015 0.83203 0.23489 0.0
C304 C 0.91275 0.86182 0.16136 0.0
C305 C 0.97245 0.8421 0.20544 0.0
N306 N 0.92711 0.9138 0.19658 0.0
N307 N 0.96136 0.79233 0.1486 0.0
H308 H 0.01618 0.84633 0.26026 0.0
H309 H 0.00574 0.80905 0.23995 0.0
H310 H 0.94686 0.77574 0.12517 0.0
H311 H 0.98396 0.78497 0.15129 0.0
H312 H 0.90756 0.92348 0.17187 0.0
H313 H 0.94143 0.92986 0.22359 0.0
H314 H 0.87366 0.89088 0.16498 0.0
H315 H 0.86716 0.85552 0.12064 0.0
C316 C 0.44927 0.65491 0.5029 0.0
C317 C 0.41859 0.65263 0.47564 0.0
C318 C 0.43132 0.60485 0.40559 0.0
C319 C 0.4614 0.60657 0.4366 0.0
N320 N 0.49522 0.62732 0.53635 0.0
N321 N 0.37865 0.62149 0.41799 0.0
C322 C 0.46918 0.62976 0.49202 0.0
C323 C 0.40904 0.62636 0.43198 0.0
N324 N 0.46026 0.68158 0.53465 0.0
N325 N 0.42428 0.58334 0.34926 0.0
H326 H 0.36165 0.63615 0.43911 0.0
H327 H 0.37012 0.60143 0.39283 0.0
H328 H 0.43989 0.56687 0.32997 0.0
H329 H 0.40373 0.58316 0.31785 0.0
H330 H 0.48337 0.68507 0.54677 0.0
H331 H 0.44729 0.70137 0.54113 0.0
H332 H 0.5006 0.64219 0.58298 0.0
H333 H 0.5094 0.60829 0.53276 0.0
C334 C 0.62611 0.15017 0.60887 0.0
C335 C 0.65454 0.15626 0.64714 0.0
C336 C 0.64384 0.11607 0.74568 0.0
C337 C 0.61589 0.10976 0.70663 0.0
N338 N 0.58459 0.11431 0.58866 0.0
N339 N 0.69437 0.13817 0.73468 0.0
C340 C 0.60847 0.12462 0.63396 0.0
C341 C 0.66458 0.13709 0.71045 0.0
N342 N 0.61481 0.16966 0.55233 0.0
N343 N 0.65041 0.10231 0.81687 0.0
H344 H 0.71055 0.1518 0.70612 0.0
H345 H 0.70375 0.12307 0.77604 0.0
H346 H 0.6363 0.08576 0.84255 0.0
H347 H 0.66881 0.1087 0.85268 0.0
H348 H 0.59246 0.16844 0.53102 0.0
H349 H 0.62662 0.18851 0.53058 0.0
H350 H 0.58007 0.12227 0.53125 0.0
H351 H 0.57117 0.09562 0.60488 0.0
C352 C 0.95823 0.34163 0.85208 0.0
C353 C 0.97995 0.35333 0.90716 0.0
C354 C 0.95829 0.32118 0.01315 0.0
C355 C 0.93631 0.31002 0.95834 0.0
N356 N 0.90912 0.31691 0.83479 0.0
N357 N 0.99446 0.36136 0.04479 0.0
C358 C 0.9343 0.32262 0.88062 0.0
C359 C 0.97805 0.3453 0.9893 0.0
N360 N 0.96135 0.34703 0.77215 0.0
N361 N 0.96117 0.30796 0.08665 0.0
H362 H 0.0081 0.38009 0.02997 0.0
H363 H 0.99195 0.35828 0.10609 0.0
H364 H 0.94663 0.29071 0.10688 0.0
H365 H 0.97923 0.31268 0.12533 0.0
H366 H 0.948 0.33622 0.729 0.0
H367 H 0.97898 0.36013 0.74805 0.0
H368 H 0.90509 0.32757 0.7802 0.0
H369 H 0.89058 0.30438 0.85616 0.0
C370 C 0.44435 0.12565 0.70944 0.0
C371 C 0.4752 0.13562 0.70693 0.0
C372 C 0.45962 0.18216 0.63623 0.0
C373 C 0.42855 0.17457 0.65043 0.0
N374 N 0.39071 0.13895 0.69856 0.0
N375 N 0.51223 0.17493 0.67693 0.0
C376 C 0.42076 0.14617 0.6863 0.0
C377 C 0.48291 0.16416 0.67198 0.0
N378 N 0.43769 0.09618 0.73071 0.0
N379 N 0.46705 0.20644 0.58869 0.0
H380 H 0.52989 0.16285 0.7044 0.0
H381 H 0.5185 0.19707 0.66084 0.0
H382 H 0.4509 0.22039 0.56139 0.0
H383 H 0.48928 0.21101 0.56983 0.0
H384 H 0.41604 0.08649 0.72539 0.0
H385 H 0.45433 0.08043 0.74759 0.0
H386 H 0.3835 0.1208 0.73414 0.0
H387 H 0.37279 0.15189 0.67512 0.0
C388 C 0.61286 0.65553 0.49458 0.0
C389 C 0.60333 0.65053 0.41451 0.0
C390 C 0.63908 0.68988 0.36907 0.0
C391 C 0.64514 0.69786 0.4498 0.0
N392 N 0.63463 0.69093 0.59011 0.0
N393 N 0.6042 0.66588 0.27605 0.0
C394 C 0.63141 0.68124 0.51292 0.0
C395 C 0.61578 0.66828 0.35163 0.0
N396 N 0.60475 0.63527 0.55295 0.0
N397 N 0.65608 0.70244 0.30898 0.0
H398 H 0.5868 0.65069 0.26061 0.0
H399 H 0.60995 0.68085 0.23006 0.0
H400 H 0.67351 0.7182 0.31926 0.0
H401 H 0.65495 0.69502 0.24994 0.0
H402 H 0.61367 0.6359 0.61059 0.0
H403 H 0.59147 0.61599 0.54167 0.0
H404 H 0.62219 0.6818 0.63746 0.0
H405 H 0.64772 0.70988 0.60631 0.0
C406 C 0.12816 0.83014 0.10342 0.0
C407 C 0.13468 0.80498 0.15415 0.0
C408 C 0.10242 0.8275 0.25856 0.0
C409 C 0.09795 0.85377 0.21028 0.0
N410 N 0.1135 0.88347 0.09591 0.0
N411 N 0.13539 0.78474 0.28859 0.0
C412 C 0.11302 0.85614 0.13549 0.0
C413 C 0.12405 0.80515 0.23438 0.0
N414 N 0.13489 0.82873 0.02384 0.0
N415 N 0.08498 0.82283 0.32513 0.0
H416 H 0.15238 0.7689 0.27469 0.0
H417 H 0.1305 0.78595 0.34941 0.0
H418 H 0.06814 0.83801 0.34427 0.0
H419 H 0.0852 0.80235 0.35699 0.0
H420 H 0.12774 0.84524 0.98307 0.0
H421 H 0.14486 0.80966 0.99698 0.0
H422 H 0.12647 0.88719 0.04465 0.0
H423 H 0.10374 0.90332 0.11929 0.0
C424 C 0.95543 0.66557 0.26791 0.0
C425 C 0.98329 0.66136 0.22601 0.0
C426 C 0.96478 0.69443 0.11844 0.0
C427 C 0.93602 0.69674 0.15714 0.0
N428 N 0.90154 0.67769 0.25809 0.0
N429 N 0.00966 0.66334 0.09935 0.0
C430 C 0.93057 0.68016 0.22867 0.0
C431 C 0.98652 0.67322 0.14758 0.0
N432 N 0.95302 0.65705 0.34613 0.0
N433 N 0.9723 0.71351 0.05686 0.0
H434 H 0.02472 0.64616 0.11646 0.0
H435 H 0.01135 0.66933 0.03929 0.0
H436 H 0.95785 0.73045 0.03496 0.0
H437 H 0.9943 0.7146 0.03302 0.0
H438 H 0.93423 0.66256 0.38157 0.0
H439 H 0.97091 0.64705 0.37785 0.0
H440 H 0.89588 0.66357 0.30595 0.0
H441 H 0.8826 0.68709 0.22924 0.0
C442 C 0.11427 0.15053 0.97374 0.0
C443 C 0.08949 0.1615 0.92705 0.0
C444 C 0.10463 0.2144 0.95565 0.0
C445 C 0.12662 0.20341 0.01106 0.0
N446 N 0.15083 0.16128 0.07902 0.0
N447 N 0.05988 0.20352 0.87514 0.0
C448 C 0.13133 0.17152 0.02107 0.0
C449 C 0.08439 0.19337 0.91834 0.0
N450 N 0.12131 0.12005 0.97357 0.0
N451 N 0.10396 0.24478 0.93607 0.0
H452 H 0.04597 0.18893 0.84173 0.0
H453 H 0.05244 0.22615 0.87542 0.0
H454 H 0.1187 0.26091 0.96093 0.0
H455 H 0.09072 0.25367 0.88994 0.0
H456 H 0.14103 0.11112 -0.00061 0.0
H457 H 0.10873 0.10373 0.94234 0.0
H458 H 0.15266 0.13842 0.09577 0.0
H459 H 0.16348 0.17593 0.11547 0.0
C460 C 0.62315 0.29144 0.72047 0.0
C461 C 0.63284 0.29413 0.63977 0.0
C462 C 0.61512 0.34724 0.63822 0.0
C463 C 0.60072 0.34264 0.7132 0.0
N464 N 0.58798 0.30876 0.82223 0.0
N465 N 0.63519 0.32374 0.51828 0.0
C466 C 0.60413 0.31443 0.75397 0.0
C467 C 0.62837 0.32193 0.59779 0.0
N468 N 0.6329 0.26744 0.76611 0.0
N469 N 0.61648 0.37598 0.60628 0.0
H470 H 0.64433 0.30554 0.48588 0.0
H471 H 0.62924 0.34237 0.48279 0.0
H472 H 0.60761 0.39513 0.63542 0.0
H473 H 0.62911 0.38131 0.55544 0.0
H474 H 0.62903 0.26604 0.82737 0.0
H475 H 0.64767 0.2506 0.7448 0.0
H476 H 0.58673 0.28718 0.84844 0.0
H477 H 0.57386 0.32485 0.84948 0.0
C478 C 0.42844 0.82381 0.45653 0.0
C479 C 0.43787 0.79279 0.45051 0.0
C480 C 0.48734 0.80931 0.39609 0.0
C481 C 0.47911 0.84009 0.41113 0.0
N482 N 0.4435 0.8771 0.46367 0.0
N483 N 0.4777 0.75583 0.42412 0.0
C484 C 0.45013 0.84748 0.44366 0.0
C485 C 0.46765 0.78544 0.42221 0.0
N486 N 0.39844 0.83068 0.47056 0.0
N487 N 0.51396 0.80296 0.35664 0.0
H488 H 0.46422 0.7377 0.44373 0.0
H489 H 0.50022 0.74946 0.41282 0.0
H490 H 0.52914 0.81996 0.33822 0.0
H491 H 0.51979 0.78121 0.33629 0.0
H492 H 0.3896 0.85276 0.46713 0.0
H493 H 0.38165 0.81402 0.47795 0.0
H494 H 0.42435 0.88335 0.49682 0.0
H495 H 0.45819 0.89535 0.45165 0.0
C496 C 0.00221 0.53765 0.05978 0.0
C497 C 0.02552 0.53346 0.11783 0.0
C498 C 0.0321 0.48072 0.07265 0.0
C499 C 0.01351 0.48709 0.00553 0.0
N500 N 0.9836 0.52322 0.92928 0.0
N501 N 0.06578 0.50163 0.17267 0.0
C502 C -0.00094 0.51591 0.99755 0.0
C503 C 0.04119 0.50506 0.12312 0.0
N504 N 0.98237 0.56171 0.06561 0.0
N505 N 0.0405 0.45128 0.08899 0.0
H506 H 0.07418 0.51902 0.20899 0.0
H507 H 0.07975 0.48233 0.17192 0.0
H508 H 0.03292 0.43281 0.05478 0.0
H509 H 0.05185 0.44494 0.14109 0.0
H510 H 0.96336 0.56415 0.02863 0.0
H511 H 0.98275 0.5772 0.11299 0.0
H512 H 0.97564 0.54523 0.91734 0.0
H513 H 0.98103 0.50814 0.88152 0.0
C514 C 0.77981 0.72152 0.18923 0.0
C515 C 0.79399 0.74736 0.15375 0.0
C516 C 0.77207 0.78086 0.25544 0.0
C517 C 0.75583 0.75562 0.28669 0.0
N518 N 0.74087 0.70257 0.27957 0.0
N519 N 0.79803 0.80233 0.14141 0.0
C520 C 0.75852 0.72613 0.25209 0.0
C521 C 0.78838 0.77728 0.1833 0.0
N522 N 0.78804 0.69261 0.16652 0.0
N523 N 0.77303 0.80789 0.29644 0.0
H524 H 0.80962 0.80075 0.08721 0.0
H525 H 0.79186 0.82465 0.15622 0.0
H526 H 0.7622 0.81094 0.35124 0.0
H527 H 0.7871 0.82612 0.28045 0.0
H528 H 0.78105 0.67295 0.19648 0.0
H529 H 0.80388 0.68817 0.12149 0.0
H530 H 0.73908 0.68155 0.25061 0.0
H531 H 0.72651 0.70465 0.32898 0.0
C532 C 0.54801 0.49165 0.53593 0.0
C533 C 0.56389 0.51981 0.54409 0.0
C534 C 0.58597 0.50237 0.67023 0.0
C535 C 0.57182 0.47352 0.65891 0.0
N536 N 0.54737 0.43795 0.56896 0.0
N537 N 0.60517 0.54795 0.60591 0.0
C538 C 0.55534 0.46728 0.58791 0.0
C539 C 0.5851 0.52399 0.60732 0.0
N540 N 0.52477 0.48845 0.48196 0.0
N541 N 0.5989 0.50982 0.74194 0.0
H542 H 0.60653 0.56314 0.55809 0.0
H543 H 0.62278 0.55049 0.64729 0.0
H544 H 0.59942 0.49495 0.79053 0.0
H545 H 0.60655 0.53182 0.75542 0.0
H546 H 0.51053 0.46933 0.48035 0.0
H547 H 0.51753 0.50588 0.44422 0.0
H548 H 0.53786 0.43185 0.51416 0.0
H549 H 0.55358 0.41935 0.6041 0.0
C550 C 0.79926 0.27712 0.81769 0.0
C551 C 0.81623 0.24975 0.82711 0.0
C552 C 0.77869 0.22151 0.74881 0.0
C553 C 0.76295 0.24929 0.73348 0.0
N554 N 0.76205 0.30458 0.73844 0.0
N555 N 0.82619 0.19763 0.78723 0.0
C556 C 0.77418 0.27746 0.76399 0.0
C557 C 0.80729 0.22251 0.7879 0.0
N558 N 0.80708 0.30271 0.86004 0.0
N559 N 0.76562 0.19403 0.72995 0.0
H560 H 0.84743 0.19754 0.81511 0.0
H561 H 0.82216 0.17827 0.75243 0.0
H562 H 0.7441 0.19215 0.70394 0.0
H563 H 0.77464 0.17304 0.74768 0.0
H564 H 0.7934 0.3222 0.86275 0.0
H565 H 0.82633 0.3038 0.89674 0.0
H566 H 0.77139 0.32582 0.75259 0.0
H567 H 0.74448 0.30592 0.69655 0.0
C568 C 0.25511 0.25096 0.82871 0.0
C569 C 0.26684 0.24124 0.9033 0.0
C570 C 0.31882 0.24175 0.85014 0.0
C571 C 0.30738 0.25466 0.77826 0.0
N572 N 0.26534 0.27474 0.70103 0.0
N573 N 0.30931 0.22878 0.98877 0.0
C574 C 0.27569 0.26018 0.76802 0.0
C575 C 0.29854 0.23662 0.91489 0.0
N576 N 0.22427 0.25032 0.81528 0.0
N577 N 0.34911 0.23459 0.85664 0.0
H578 H 0.295 0.2237 0.03674 0.0
H579 H 0.33236 0.22888 0.0042 0.0
H580 H 0.36508 0.24041 0.81333 0.0
H581 H 0.35825 0.22162 0.90293 0.0
H582 H 0.21435 0.25431 0.75977 0.0
H583 H 0.20864 0.24278 0.85803 0.0
H584 H 0.243 0.2825 0.69422 0.0
H585 H 0.27963 0.28117 0.65421 0.0
C586 C 0.27188 0.76895 0.42097 0.0
C587 C 0.30217 0.75904 0.405 0.0
C588 C 0.28614 0.73912 0.27551 0.0
C589 C 0.25644 0.75124 0.28827 0.0
N590 N 0.22381 0.78526 0.36393 0.0
N591 N 0.3397 0.74394 0.30698 0.0
C592 C 0.25004 0.7684 0.35835 0.0
C593 C 0.3098 0.74698 0.32907 0.0
N594 N 0.26346 0.77766 0.49618 0.0
N595 N 0.29165 0.71893 0.21481 0.0
H596 H 0.35769 0.75121 0.34308 0.0
H597 H 0.3464 0.73779 0.24943 0.0
H598 H 0.27475 0.71109 0.17617 0.0
H599 H 0.31233 0.70735 0.20846 0.0
H600 H 0.2408 0.78166 0.51233 0.0
H601 H 0.27853 0.77834 0.54424 0.0
H602 H 0.21954 0.8004 0.41072 0.0
H603 H 0.2079 0.78681 0.31776 0.0
C604 C 0.50785 0.95259 0.63122 0.0
C605 C 0.51578 0.96474 0.55539 0.0
C606 C 0.50408 0.01612 0.60316 0.0
C607 C 0.50285 0.00468 0.682 0.0
N608 N 0.50346 0.96206 0.77328 0.0
N609 N 0.52436 0.00878 0.47069 0.0
C610 C 0.50416 0.97284 0.69677 0.0
C611 C 0.51417 0.99668 0.54106 0.0
N612 N 0.50334 0.92184 0.64004 0.0
N613 N 0.49553 0.0456 0.58808 0.0
H614 H 0.53325 0.99558 0.42446 0.0
H615 H 0.52668 0.03222 0.46107 0.0
H616 H 0.48696 0.05984 0.63279 0.0
H617 H 0.49359 0.05457 0.5307 0.0
H618 H 0.49488 0.91198 0.69213 0.0
H619 H 0.50509 0.90653 0.59252 0.0
H620 H 0.50829 0.93944 0.78823 0.0
H621 H 0.49967 0.97616 0.82252 0.0
C622 C 0.06985 0.04183 0.11149 0.0
C623 C 0.05184 0.035 0.04314 0.0
C624 C 0.05085 0.9811 0.08111 0.0
C625 C 0.06453 0.98874 0.15509 0.0
N626 N 0.08361 0.02719 0.24605 0.0
N627 N 0.02029 -0.00116 0.97075 0.0
C628 C 0.07332 0.0193 0.17177 0.0
C629 C 0.04112 0.00478 0.02965 0.0
N630 N 0.08449 0.06936 0.11774 0.0
N631 N 0.04771 0.95113 0.05925 0.0
H632 H 0.01128 0.01566 0.9336 0.0
H633 H 0.00947 0.97774 0.96422 0.0
H634 H 0.05546 0.93318 0.09475 0.0
H635 H 0.04059 0.94431 0.0026 0.0
H636 H 0.10038 0.07423 0.16231 0.0
H637 H 0.08315 0.08628 0.0741 0.0
H638 H 0.0868 0.0498 0.26403 0.0
H639 H 0.08659 0.0114 0.292 0.0
C640 C 0.05283 0.52363 0.65413 0.0
C641 C 0.05493 0.49149 0.6421 0.0
C642 C 0.0549 0.4997 0.49751 0.0
C643 C 0.05772 0.53176 0.50993 0.0
N644 N 0.06377 0.57405 0.6014 0.0
N645 N 0.0634 0.44917 0.55181 0.0
C646 C 0.05777 0.54375 0.58865 0.0
C647 C 0.05735 0.47953 0.56361 0.0
N648 N 0.04494 0.53497 0.72739 0.0
N649 N 0.04861 0.48848 0.42307 0.0
H650 H 0.06626 0.43365 0.59841 0.0
H651 H 0.06861 0.44003 0.49595 0.0
H652 H 0.0451 0.50248 0.37353 0.0
H653 H 0.04343 0.46556 0.41235 0.0
H654 H 0.0402 0.55801 0.73751 0.0
H655 H 0.03988 0.521 0.77609 0.0
H656 H 0.06733 0.58328 0.65802 0.0
H657 H 0.068 0.58946 0.55521 0.0
C658 C 0.83634 0.7698 0.75056 0.0
C659 C 0.82394 0.77758 0.82618 0.0
C660 C 0.77401 0.78686 0.76382 0.0
C661 C 0.78561 0.77607 0.68998 0.0
N662 N 0.82617 0.75099 0.61717 0.0
N663 N 0.779 0.78625 0.90734 0.0
C664 C 0.81634 0.76577 0.68441 0.0
C665 C 0.79221 0.7841 0.83361 0.0
N666 N 0.86728 0.76746 0.74093 0.0
N667 N 0.74611 0.80091 0.76707 0.0
H668 H 0.79109 0.78315 0.96022 0.0
H669 H 0.75545 0.78778 0.91586 0.0
H670 H 0.73229 0.8041 0.71704 0.0
H671 H 0.73807 0.81211 0.81783 0.0
H672 H 0.87769 0.76503 0.68535 0.0
H673 H 0.88277 0.77091 0.78739 0.0
H674 H 0.84737 0.74025 0.61314 0.0
H675 H 0.81203 0.7467 0.5683 0.0
C676 C 0.53359 0.48056 0.16206 0.0
C677 C 0.53066 0.51265 0.15032 0.0
C678 C 0.5334 0.50469 0.00563 0.0
C679 C 0.53144 0.47255 0.0174 0.0
N680 N 0.52458 0.43005 0.10776 0.0
N681 N 0.52305 0.55498 0.05993 0.0
C682 C 0.53025 0.46046 0.0959 0.0
C683 C 0.5294 0.52471 0.07179 0.0
N684 N 0.54084 0.46926 0.23576 0.0
N685 N 0.54024 0.51613 0.93181 0.0
H686 H 0.51926 0.57033 0.10659 0.0
H687 H 0.51866 0.56423 0.00377 0.0
H688 H 0.54454 0.50222 0.88243 0.0
H689 H 0.5449 0.53918 0.92158 0.0
H690 H 0.54614 0.44634 0.24575 0.0
H691 H 0.54496 0.48321 0.28517 0.0
H692 H 0.5202 0.42076 0.16388 0.0
H693 H 0.5213 0.41456 0.06115 0.0
C694 C 0.81527 0.22307 0.29931 0.0
C695 C 0.8038 0.22646 0.22063 0.0
C696 C 0.75125 0.22381 0.2719 0.0
C697 C 0.76275 0.22271 0.351 0.0
N698 N 0.80555 0.2299 0.44036 0.0
N699 N 0.761 0.2382 0.13475 0.0
C700 C 0.79474 0.22489 0.36487 0.0
C701 C 0.77179 0.22924 0.20767 0.0
N702 N 0.8455 0.2167 0.31163 0.0
N703 N 0.72098 0.21836 0.25744 0.0
H704 H 0.77531 0.24364 0.08702 0.0
H705 H 0.73812 0.24345 0.12425 0.0
H706 H 0.70523 0.21376 0.30257 0.0
H707 H 0.71207 0.21559 0.2002 0.0
H708 H 0.85431 0.21074 0.36727 0.0
H709 H 0.86126 0.21445 0.26532 0.0
H710 H 0.82843 0.23463 0.45258 0.0
H711 H 0.79126 0.23276 0.48965 0.0
C712 C 0.27084 0.2653 0.41178 0.0
C713 C 0.30278 0.26915 0.40039 0.0
C714 C 0.29472 0.2727 0.25599 0.0
C715 C 0.26259 0.2732 0.2686 0.0
N716 N 0.21999 0.27462 0.3602 0.0
N717 N 0.34495 0.281 0.31278 0.0
C718 C 0.25057 0.27064 0.34697 0.0
C719 C 0.31474 0.27395 0.32274 0.0
N720 N 0.25995 0.25537 0.48373 0.0
N721 N 0.30618 0.26982 0.18041 0.0
H722 H 0.36036 0.28245 0.36013 0.0
H723 H 0.35413 0.28809 0.25848 0.0
H724 H 0.29234 0.26802 0.12997 0.0
H725 H 0.32925 0.26608 0.16845 0.0
H726 H 0.23719 0.24933 0.49321 0.0
H727 H 0.27421 0.25003 0.53162 0.0
H728 H 0.21052 0.2763 0.41709 0.0
H729 H 0.20439 0.27907 0.3146 0.0
C730 C 0.3223 0.72645 0.83061 0.0
C731 C 0.30986 0.7239 0.75266 0.0
C732 C 0.25797 0.72466 0.80864 0.0
C733 C 0.27043 0.72944 0.88583 0.0
N734 N 0.31406 0.74253 0.96727 0.0
N735 N 0.26588 0.7281 0.66597 0.0
C736 C 0.30251 0.73264 0.89591 0.0
C737 C 0.27767 0.72523 0.74118 0.0
N738 N 0.35278 0.72145 0.84317 0.0
N739 N 0.2276 0.71808 0.79978 0.0
H740 H 0.27947 0.72925 0.61495 0.0
H741 H 0.24286 0.73247 0.65482 0.0
H742 H 0.21238 0.71698 0.8476 0.0
H743 H 0.21804 0.711 0.74588 0.0
H744 H 0.3624 0.71974 0.89987 0.0
H745 H 0.36801 0.71605 0.79743 0.0
H746 H 0.33699 0.74819 0.97555 0.0
H747 H 0.30026 0.74822 0.01586 0.0
C748 C 0.54824 0.01365 0.16646 0.0
C749 C 0.55294 0.98157 0.15987 0.0
C750 C 0.55659 0.98665 0.0145 0.0
C751 C 0.55587 0.01905 0.0222 0.0
N752 N 0.55682 0.06352 0.1078 0.0
N753 N 0.56778 0.93836 0.07865 0.0
C754 C 0.55329 0.03263 0.09886 0.0
C755 C 0.55882 0.96825 0.08414 0.0
N756 N 0.53763 0.02592 0.23623 0.0
N757 N 0.55375 0.97328 0.94106 0.0
H758 H 0.57056 0.92425 0.12828 0.0
H759 H 0.57543 0.9285 0.02563 0.0
H760 H 0.55091 0.98574 0.88857 0.0
H761 H 0.55091 0.94979 0.93319 0.0
H762 H 0.53094 0.0487 0.2418 0.0
H763 H 0.53237 0.01269 0.28608 0.0
H764 H 0.55833 0.07417 0.16335 0.0
H765 H 0.56131 0.07818 0.06012 0.0
C766 C 0.02269 0.03486 0.56458 0.0
C767 C 0.02532 0.02266 0.64274 0.0
C768 C 0.02515 0.97058 0.58747 0.0
C769 C 0.02496 0.98285 0.50908 0.0
N770 N 0.03175 0.02685 0.42358 0.0
N771 N 0.03733 0.97931 0.72655 0.0
C772 C 0.02616 0.01507 0.49774 0.0
C773 C 0.02901 0.99061 0.65363 0.0
N774 N 0.01546 0.06499 0.55379 0.0
N775 N 0.02023 0.94004 0.59936 0.0
H776 H 0.04168 0.99327 0.7758 0.0
H777 H 0.04318 0.95648 0.73583 0.0
H778 H 0.01652 0.92461 0.55284 0.0
H779 H 0.01687 0.93053 0.6557 0.0
H780 H 0.01003 0.07421 0.49822 0.0
H781 H 0.012 0.08018 0.60096 0.0
H782 H 0.03589 0.05001 0.41346 0.0
H783 H 0.03558 0.01318 0.3735 0.0
loop_
_geom_bond_atom_site_label_1
_geom_bond_atom_site_label_2
_geom_bond_distance
_geom_bond_site_symmetry_2
_ccdc_geom_bond_type
C0 O1 1.160 . S
C0 O7 1.185 . S
O1 C0 1.160 . S
O2 Zn3 1.899 . S
O2 C10 1.284 . S
Zn3 O2 1.899 . S
Zn3 O4 2.032 . S
Zn3 O7 2.086 . S
Zn3 O12 1.977 . S
O4 Zn3 2.032 . S
O4 C8 1.278 . S
C5 O6 1.203 1_655 S
C5 O12 1.267 1_655 S
O6 C5 1.203 1_455 S
O7 C0 1.185 . S
O7 Zn3 2.086 . S
C8 O4 1.278 . S
C8 O9 1.211 . S
O9 C8 1.211 . S
C10 O2 1.284 . S
C10 O11 1.273 . S
O11 C10 1.273 . S
O12 Zn3 1.977 . S
O12 C5 1.267 1_455 S
C13 O14 1.160 . S
C13 O20 1.185 . S
O14 C13 1.160 . S
O15 Zn16 1.899 . S
O15 C23 1.284 . S
Zn16 O15 1.899 . S
Zn16 O17 2.032 . S
Zn16 O20 2.086 . S
Zn16 O25 1.977 . S
O17 Zn16 2.032 . S
O17 C21 1.278 . S
C18 O19 1.203 . S
C18 O25 1.267 . S
O19 C18 1.203 . S
O20 C13 1.185 . S
O20 Zn16 2.086 . S
C21 O17 1.278 . S
C21 O22 1.211 . S
O22 C21 1.211 . S
C23 O15 1.284 . S
C23 O24 1.273 . S
O24 C23 1.273 . S
O25 Zn16 1.977 . S
O25 C18 1.267 . S
C26 O27 1.160 . S
C26 O33 1.185 . S
O27 C26 1.160 . S
O28 Zn29 1.899 . S
O28 C36 1.284 . S
Zn29 O28 1.899 . S
Zn29 O30 2.032 . S
Zn29 O33 2.086 . S
Zn29 O38 1.977 . S
O30 Zn29 2.032 . S
O30 C34 1.278 . S
C31 O32 1.203 . S
C31 O38 1.267 . S
O32 C31 1.203 . S
O33 C26 1.185 . S
O33 Zn29 2.086 . S
C34 O30 1.278 . S
C34 O35 1.211 . S
O35 C34 1.211 . S
C36 O28 1.284 . S
C36 O37 1.273 . S
O37 C36 1.273 . S
O38 Zn29 1.977 . S
O38 C31 1.267 . S
C39 O40 1.160 . S
C39 O46 1.185 . S
O40 C39 1.160 . S
O41 Zn42 1.899 . S
O41 C49 1.284 1_554 S
Zn42 O41 1.899 . S
Zn42 O43 2.032 1_554 S
Zn42 O46 2.086 . S
Zn42 O51 1.977 . S
O43 Zn42 2.032 1_556 S
O43 C47 1.278 . S
C44 O45 1.203 . S
C44 O51 1.267 1_556 S
O45 C44 1.203 . S
O46 C39 1.185 . S
O46 Zn42 2.086 . S
C47 O43 1.278 . S
C47 O48 1.211 . S
O48 C47 1.211 . S
C49 O41 1.284 1_556 S
C49 O50 1.273 . S
O50 C49 1.273 . S
O51 Zn42 1.977 . S
O51 C44 1.267 1_554 S
C52 O53 1.160 . S
C52 O59 1.185 . S
O53 C52 1.160 . S
O54 Zn55 1.899 . S
O54 C62 1.284 . S
Zn55 O54 1.899 . S
Zn55 O56 2.032 . S
Zn55 O59 2.086 . S
Zn55 O64 1.977 . S
O56 Zn55 2.032 . S
O56 C60 1.278 . S
C57 O58 1.203 1_655 S
C57 O64 1.267 1_655 S
O58 C57 1.203 1_455 S
O59 C52 1.185 . S
O59 Zn55 2.086 . S
C60 O56 1.278 . S
C60 O61 1.211 1_556 S
O61 C60 1.211 1_554 S
C62 O54 1.284 . S
C62 O63 1.273 . S
O63 C62 1.273 . S
O64 Zn55 1.977 . S
O64 C57 1.267 1_455 S
C65 O66 1.160 . S
C65 O72 1.185 . S
O66 C65 1.160 . S
O67 Zn68 1.899 . S
O67 C75 1.284 . S
Zn68 O67 1.899 . S
Zn68 O69 2.032 . S
Zn68 O72 2.086 1_554 S
Zn68 O77 1.977 . S
O69 Zn68 2.032 . S
O69 C73 1.278 . S
C70 O71 1.203 . S
C70 O77 1.267 . S
O71 C70 1.203 . S
O72 C65 1.185 . S
O72 Zn68 2.086 1_556 S
C73 O69 1.278 . S
C73 O74 1.211 . S
O74 C73 1.211 . S
C75 O67 1.284 . S
C75 O76 1.273 . S
O76 C75 1.273 . S
O77 Zn68 1.977 . S
O77 C70 1.267 . S
C78 O79 1.160 . S
C78 O85 1.185 . S
O79 C78 1.160 . S
O80 Zn81 1.899 . S
O80 C88 1.284 . S
Zn81 O80 1.899 . S
Zn81 O82 2.032 . S
Zn81 O85 2.086 . S
Zn81 O90 1.977 . S
O82 Zn81 2.032 . S
O82 C86 1.278 . S
C83 O84 1.203 . S
C83 O90 1.267 . S
O84 C83 1.203 . S
O85 C78 1.185 . S
O85 Zn81 2.086 . S
C86 O82 1.278 . S
C86 O87 1.211 . S
O87 C86 1.211 . S
C88 O80 1.284 . S
C88 O89 1.273 . S
O89 C88 1.273 . S
O90 Zn81 1.977 . S
O90 C83 1.267 . S
C91 O92 1.160 . S
C91 O98 1.185 . S
O92 C91 1.160 . S
O93 Zn94 1.899 . S
O93 C101 1.284 . S
Zn94 O93 1.899 . S
Zn94 O95 2.032 . S
Zn94 O98 2.086 . S
Zn94 O103 1.977 . S
O95 Zn94 2.032 . S
O95 C99 1.278 . S
C96 O97 1.203 . S
C96 O103 1.267 . S
O97 C96 1.203 . S
O98 C91 1.185 . S
O98 Zn94 2.086 . S
C99 O95 1.278 . S
C99 O100 1.211 . S
O100 C99 1.211 . S
C101 O93 1.284 . S
C101 O102 1.273 . S
O102 C101 1.273 . S
O103 Zn94 1.977 . S
O103 C96 1.267 . S
C104 O105 1.160 . S
C104 O111 1.185 . S
O105 C104 1.160 . S
O106 Zn107 1.899 . S
O106 C114 1.284 . S
Zn107 O106 1.899 . S
Zn107 O108 2.032 . S
Zn107 O111 2.086 . S
Zn107 O116 1.977 . S
O108 Zn107 2.032 . S
O108 C112 1.278 . S
C109 O110 1.203 . S
C109 O116 1.267 . S
O110 C109 1.203 . S
O111 C104 1.185 . S
O111 Zn107 2.086 . S
C112 O108 1.278 . S
C112 O113 1.211 . S
O113 C112 1.211 . S
C114 O106 1.284 . S
C114 O115 1.273 . S
O115 C114 1.273 . S
O116 Zn107 1.977 . S
O116 C109 1.267 . S
C117 O118 1.160 . S
C117 O124 1.185 . S
O118 C117 1.160 . S
O119 Zn120 1.899 . S
O119 C127 1.284 . S
Zn120 O119 1.899 . S
Zn120 O121 2.032 . S
Zn120 O124 2.086 1_554 S
Zn120 O129 1.977 . S
O121 Zn120 2.032 . S
O121 C125 1.278 . S
C122 O123 1.203 . S
C122 O129 1.267 . S
O123 C122 1.203 . S
O124 C117 1.185 . S
O124 Zn120 2.086 1_556 S
C125 O121 1.278 . S
C125 O126 1.211 . S
O126 C125 1.211 . S
C127 O119 1.284 . S
C127 O128 1.273 . S
O128 C127 1.273 . S
O129 Zn120 1.977 . S
O129 C122 1.267 . S
C130 O131 1.160 . S
C130 O137 1.185 . S
O131 C130 1.160 . S
O132 Zn133 1.899 . S
O132 C140 1.284 1_554 S
Zn133 O132 1.899 . S
Zn133 O134 2.032 1_554 S
Zn133 O137 2.086 . S
Zn133 O142 1.977 . S
O134 Zn133 2.032 1_556 S
O134 C138 1.278 . S
C135 O136 1.203 . S
C135 O142 1.267 1_556 S
O136 C135 1.203 . S
O137 C130 1.185 . S
O137 Zn133 2.086 . S
C138 O134 1.278 . S
C138 O139 1.211 . S
O139 C138 1.211 . S
C140 O132 1.284 1_556 S
C140 O141 1.273 . S
O141 C140 1.273 . S
O142 Zn133 1.977 . S
O142 C135 1.267 1_554 S
C143 O144 1.160 . S
C143 O150 1.185 . S
O144 C143 1.160 . S
O145 Zn146 1.899 . S
O145 C153 1.284 . S
Zn146 O145 1.899 . S
Zn146 O147 2.032 . S
Zn146 O150 2.086 . S
Zn146 O155 1.977 . S
O147 Zn146 2.032 . S
O147 C151 1.278 . S
C148 O149 1.203 . S
C148 O155 1.267 . S
O149 C148 1.203 . S
O150 C143 1.185 . S
O150 Zn146 2.086 . S
C151 O147 1.278 . S
C151 O152 1.211 . S
O152 C151 1.211 . S
C153 O145 1.284 . S
C153 O154 1.273 . S
O154 C153 1.273 . S
O155 Zn146 1.977 . S
O155 C148 1.267 . S
C156 O157 1.160 . S
C156 O163 1.185 . S
O157 C156 1.160 . S
O158 Zn159 1.899 . S
O158 C166 1.284 . S
Zn159 O158 1.899 . S
Zn159 O160 2.032 . S
Zn159 O163 2.086 . S
Zn159 O168 1.977 . S
O160 Zn159 2.032 . S
O160 C164 1.278 . S
C161 O162 1.203 . S
C161 O168 1.267 . S
O162 C161 1.203 . S
O163 C156 1.185 . S
O163 Zn159 2.086 . S
C164 O160 1.278 . S
C164 O165 1.211 . S
O165 C164 1.211 . S
C166 O158 1.284 . S
C166 O167 1.273 . S
O167 C166 1.273 . S
O168 Zn159 1.977 . S
O168 C161 1.267 . S
C169 O170 1.160 . S
C169 O176 1.185 . S
O170 C169 1.160 . S
O171 Zn172 1.899 . S
O171 C179 1.284 1_455 S
Zn172 O171 1.899 . S
Zn172 O173 2.032 . S
Zn172 O176 2.086 . S
Zn172 O181 1.977 . S
O173 Zn172 2.032 . S
O173 C177 1.278 . S
C174 O175 1.203 . S
C174 O181 1.267 . S
O175 C174 1.203 . S
O176 C169 1.185 . S
O176 Zn172 2.086 . S
C177 O173 1.278 . S
C177 O178 1.211 . S
O178 C177 1.211 . S
C179 O171 1.284 1_655 S
C179 O180 1.273 . S
O180 C179 1.273 . S
O181 Zn172 1.977 . S
O181 C174 1.267 . S
C182 O183 1.160 . S
C182 O189 1.185 . S
O183 C182 1.160 . S
O184 Zn185 1.899 . S
O184 C192 1.284 . S
Zn185 O184 1.899 . S
Zn185 O186 2.032 . S
Zn185 O189 2.086 . S
Zn185 O194 1.977 . S
O186 Zn185 2.032 . S
O186 C190 1.278 . S
C187 O188 1.203 . S
C187 O194 1.267 . S
O188 C187 1.203 . S
O189 C182 1.185 . S
O189 Zn185 2.086 . S
C190 O186 1.278 . S
C190 O191 1.211 . S
O191 C190 1.211 . S
C192 O184 1.284 . S
C192 O193 1.273 . S
O193 C192 1.273 . S
O194 Zn185 1.977 . S
O194 C187 1.267 . S
C195 O196 1.160 . S
C195 O202 1.185 . S
O196 C195 1.160 . S
O197 Zn198 1.899 . S
O197 C205 1.284 1_455 S
Zn198 O197 1.899 . S
Zn198 O199 2.032 . S
Zn198 O202 2.086 . S
Zn198 O207 1.977 . S
O199 Zn198 2.032 . S
O199 C203 1.278 . S
C200 O201 1.203 . S
C200 O207 1.267 . S
O201 C200 1.203 . S
O202 C195 1.185 . S
O202 Zn198 2.086 . S
C203 O199 1.278 . S
C203 O204 1.211 1_556 S
O204 C203 1.211 1_554 S
C205 O197 1.284 1_655 S
C205 O206 1.273 . S
O206 C205 1.273 . S
O207 Zn198 1.977 . S
O207 C200 1.267 . S
C208 C209 1.363 . S
C208 C214 1.379 . S
C208 N216 1.356 . S
C209 C208 1.363 . S
C209 C215 1.363 . S
C210 C211 1.363 . S
C210 C215 1.379 . S
C210 N217 1.356 . S
C211 C210 1.363 . S
C211 C214 1.363 . S
N212 C214 1.356 . S
N212 H224 0.984 . S
N212 H225 0.985 . S
N213 C215 1.356 . S
N213 H218 0.984 . S
N213 H219 0.985 . S
C214 C208 1.379 . S
C214 C211 1.363 . S
C214 N212 1.356 . S
C215 C209 1.363 . S
C215 C210 1.379 . S
C215 N213 1.356 . S
N216 C208 1.356 . S
N216 H222 0.984 . S
N216 H223 0.984 . S
N217 C210 1.356 . S
N217 H220 0.984 . S
N217 H221 0.985 . S
H218 N213 0.984 . S
H219 N213 0.985 . S
H220 N217 0.984 . S
H221 N217 0.985 . S
H222 N216 0.984 . S
H223 N216 0.984 . S
H224 N212 0.984 . S
H225 N212 0.985 . S
C226 C227 1.363 . S
C226 C232 1.379 . S
C226 N234 1.356 . S
C227 C226 1.363 . S
C227 C233 1.363 . S
C228 C229 1.363 . S
C228 C233 1.379 . S
C228 N235 1.356 . S
C229 C228 1.363 . S
C229 C232 1.363 . S
N230 C232 1.356 . S
N230 H242 0.984 . S
N230 H243 0.985 . S
N231 C233 1.356 . S
N231 H236 0.984 . S
N231 H237 0.985 . S
C232 C226 1.379 . S
C232 C229 1.363 . S
C232 N230 1.356 . S
C233 C227 1.363 . S
C233 C228 1.379 . S
C233 N231 1.356 . S
N234 C226 1.356 . S
N234 H240 0.984 . S
N234 H241 0.984 . S
N235 C228 1.356 . S
N235 H238 0.984 . S
N235 H239 0.985 . S
H236 N231 0.984 . S
H237 N231 0.985 . S
H238 N235 0.984 . S
H239 N235 0.985 . S
H240 N234 0.984 . S
H241 N234 0.984 . S
H242 N230 0.984 . S
H243 N230 0.985 . S
C244 C245 1.363 . S
C244 C250 1.379 . S
C244 N252 1.356 . S
C245 C244 1.363 . S
C245 C251 1.363 . S
C246 C247 1.363 . S
C246 C251 1.379 . S
C246 N253 1.356 . S
C247 C246 1.363 . S
C247 C250 1.363 . S
N248 C250 1.356 . S
N248 H260 0.984 . S
N248 H261 0.985 . S
N249 C251 1.356 . S
N249 H254 0.984 . S
N249 H255 0.985 . S
C250 C244 1.379 . S
C250 C247 1.363 . S
C250 N248 1.356 . S
C251 C245 1.363 . S
C251 C246 1.379 . S
C251 N249 1.356 . S
N252 C244 1.356 . S
N252 H258 0.984 . S
N252 H259 0.984 . S
N253 C246 1.356 . S
N253 H256 0.984 . S
N253 H257 0.985 . S
H254 N249 0.984 . S
H255 N249 0.985 . S
H256 N253 0.984 . S
H257 N253 0.985 . S
H258 N252 0.984 . S
H259 N252 0.984 . S
H260 N248 0.984 . S
H261 N248 0.985 . S
C262 C263 1.363 . S
C262 C268 1.379 . S
C262 N270 1.356 . S
C263 C262 1.363 . S
C263 C269 1.363 1_556 S
C264 C265 1.363 . S
C264 C269 1.379 1_556 S
C264 N271 1.356 1_556 S
C265 C264 1.363 . S
C265 C268 1.363 . S
N266 C268 1.356 . S
N266 H278 0.984 . S
N266 H279 0.985 . S
N267 C269 1.356 . S
N267 H272 0.984 . S
N267 H273 0.985 . S
C268 C262 1.379 . S
C268 C265 1.363 . S
C268 N266 1.356 . S
C269 C263 1.363 1_554 S
C269 C264 1.379 1_554 S
C269 N267 1.356 . S
N270 C262 1.356 . S
N270 H276 0.984 . S
N270 H277 0.984 . S
N271 C264 1.356 1_554 S
N271 H274 0.984 1_554 S
N271 H275 0.985 . S
H272 N267 0.984 . S
H273 N267 0.985 . S
H274 N271 0.984 1_556 S
H275 N271 0.985 . S
H276 N270 0.984 . S
H277 N270 0.984 . S
H278 N266 0.984 . S
H279 N266 0.985 . S
C280 C281 1.363 . S
C280 C286 1.379 1_556 S
C280 N288 1.356 . S
C281 C280 1.363 . S
C281 C287 1.363 . S
C282 C283 1.363 . S
C282 C287 1.379 . S
C282 N289 1.356 . S
C283 C282 1.363 . S
C283 C286 1.363 1_556 S
N284 C286 1.356 . S
N284 H296 0.984 . S
N284 H297 0.985 . S
N285 C287 1.356 . S
N285 H290 0.984 . S
N285 H291 0.985 . S
C286 C280 1.379 1_554 S
C286 C283 1.363 1_554 S
C286 N284 1.356 . S
C287 C281 1.363 . S
C287 C282 1.379 . S
C287 N285 1.356 . S
N288 C280 1.356 . S
N288 H294 0.984 1_556 S
N288 H295 0.984 . S
N289 C282 1.356 . S
N289 H292 0.984 . S
N289 H293 0.985 . S
H290 N285 0.984 . S
H291 N285 0.985 . S
H292 N289 0.984 . S
H293 N289 0.985 . S
H294 N288 0.984 1_554 S
H295 N288 0.984 . S
H296 N284 0.984 . S
H297 N284 0.985 . S
C298 C299 1.363 . S
C298 C304 1.379 . S
C298 N306 1.356 . S
C299 C298 1.363 . S
C299 C305 1.363 . S
C300 C301 1.363 . S
C300 C305 1.379 . S
C300 N307 1.356 . S
C301 C300 1.363 . S
C301 C304 1.363 . S
N302 C304 1.356 . S
N302 H314 0.984 . S
N302 H315 0.985 . S
N303 C305 1.356 . S
N303 H308 0.998 . S
N303 H309 0.985 . S
C304 C298 1.379 . S
C304 C301 1.363 . S
C304 N302 1.356 . S
C305 C299 1.363 . S
C305 C300 1.379 . S
C305 N303 1.356 . S
N306 C298 1.356 . S
N306 H312 0.984 . S
N306 H313 0.984 . S
N307 C300 1.356 . S
N307 H310 0.984 . S
N307 H311 0.985 . S
H308 N303 0.998 . S
H309 N303 0.985 . S
H310 N307 0.984 . S
H311 N307 0.985 . S
H312 N306 0.984 . S
H313 N306 0.984 . S
H314 N302 0.984 . S
H315 N302 0.985 . S
C316 C317 1.363 . S
C316 C322 1.379 . S
C316 N324 1.356 . S
C317 C316 1.363 . S
C317 C323 1.363 . S
C318 C319 1.363 . S
C318 C323 1.379 . S
C318 N325 1.356 . S
C319 C318 1.363 . S
C319 C322 1.363 . S
N320 C322 1.356 . S
N320 H332 0.984 . S
N320 H333 0.985 . S
N321 C323 1.356 . S
N321 H326 0.984 . S
N321 H327 0.985 . S
C322 C316 1.379 . S
C322 C319 1.363 . S
C322 N320 1.356 . S
C323 C317 1.363 . S
C323 C318 1.379 . S
C323 N321 1.356 . S
N324 C316 1.356 . S
N324 H330 0.984 . S
N324 H331 0.984 . S
N325 C318 1.356 . S
N325 H328 0.984 . S
N325 H329 0.985 . S
H326 N321 0.984 . S
H327 N321 0.985 . S
H328 N325 0.984 . S
H329 N325 0.985 . S
H330 N324 0.984 . S
H331 N324 0.984 . S
H332 N320 0.984 . S
H333 N320 0.985 . S
C334 C335 1.363 . S
C334 C340 1.379 . S
C334 N342 1.356 . S
C335 C334 1.363 . S
C335 C341 1.363 . S
C336 C337 1.363 . S
C336 C341 1.379 . S
C336 N343 1.356 . S
C337 C336 1.363 . S
C337 C340 1.363 . S
N338 C340 1.356 . S
N338 H350 0.984 . S
N338 H351 0.985 . S
N339 C341 1.356 . S
N339 H344 0.984 . S
N339 H345 0.985 . S
C340 C334 1.379 . S
C340 C337 1.363 . S
C340 N338 1.356 . S
C341 C335 1.363 . S
C341 C336 1.379 . S
C341 N339 1.356 . S
N342 C334 1.356 . S
N342 H348 0.984 . S
N342 H349 0.984 . S
N343 C336 1.356 . S
N343 H346 0.984 . S
N343 H347 0.985 . S
H344 N339 0.984 . S
H345 N339 0.985 . S
H346 N343 0.984 . S
H347 N343 0.985 . S
H348 N342 0.984 . S
H349 N342 0.984 . S
H350 N338 0.984 . S
H351 N338 0.985 . S
C352 C353 1.363 . S
C352 C358 1.379 . S
C352 N360 1.356 . S
C353 C352 1.363 . S
C353 C359 1.363 . S
C354 C355 1.363 1_554 S
C354 C359 1.379 1_554 S
C354 N361 1.356 . S
C355 C354 1.363 1_556 S
C355 C358 1.363 . S
N356 C358 1.356 . S
N356 H368 0.984 . S
N356 H369 0.985 . S
N357 C359 1.356 1_554 S
N357 H362 0.984 1_554 S
N357 H363 0.985 . S
C358 C352 1.379 . S
C358 C355 1.363 . S
C358 N356 1.356 . S
C359 C353 1.363 . S
C359 C354 1.379 1_556 S
C359 N357 1.356 1_556 S
N360 C352 1.356 . S
N360 H366 0.984 . S
N360 H367 0.984 . S
N361 C354 1.356 . S
N361 H364 0.984 . S
N361 H365 0.985 . S
H362 N357 0.984 1_556 S
H363 N357 0.985 . S
H364 N361 0.984 . S
H365 N361 0.985 . S
H366 N360 0.984 . S
H367 N360 0.984 . S
H368 N356 0.984 . S
H369 N356 0.985 . S
C370 C371 1.363 . S
C370 C376 1.379 . S
C370 N378 1.356 . S
C371 C370 1.363 . S
C371 C377 1.363 . S
C372 C373 1.363 . S
C372 C377 1.379 . S
C372 N379 1.356 . S
C373 C372 1.363 . S
C373 C376 1.363 . S
N374 C376 1.356 . S
N374 H386 0.984 . S
N374 H387 0.985 . S
N375 C377 1.356 . S
N375 H380 0.984 . S
N375 H381 0.985 . S
C376 C370 1.379 . S
C376 C373 1.363 . S
C376 N374 1.356 . S
C377 C371 1.363 . S
C377 C372 1.379 . S
C377 N375 1.356 . S
N378 C370 1.356 . S
N378 H384 0.984 . S
N378 H385 0.984 . S
N379 C372 1.356 . S
N379 H382 0.984 . S
N379 H383 0.985 . S
H380 N375 0.984 . S
H381 N375 0.985 . S
H382 N379 0.984 . S
H383 N379 0.985 . S
H384 N378 0.984 . S
H385 N378 0.984 . S
H386 N374 0.984 . S
H387 N374 0.985 . S
C388 C389 1.363 . S
C388 C394 1.379 . S
C388 N396 1.356 . S
C389 C388 1.363 . S
C389 C395 1.363 . S
C390 C391 1.363 . S
C390 C395 1.379 . S
C390 N397 1.356 . S
C391 C390 1.363 . S
C391 C394 1.363 . S
N392 C394 1.356 . S
N392 H404 0.984 . S
N392 H405 0.985 . S
N393 C395 1.356 . S
N393 H398 0.984 . S
N393 H399 0.985 . S
C394 C388 1.379 . S
C394 C391 1.363 . S
C394 N392 1.356 . S
C395 C389 1.363 . S
C395 C390 1.379 . S
C395 N393 1.356 . S
N396 C388 1.356 . S
N396 H402 0.984 . S
N396 H403 0.984 . S
N397 C390 1.356 . S
N397 H400 0.984 . S
N397 H401 0.985 . S
H398 N393 0.984 . S
H399 N393 0.985 . S
H400 N397 0.984 . S
H401 N397 0.985 . S
H402 N396 0.984 . S
H403 N396 0.984 . S
H404 N392 0.984 . S
H405 N392 0.985 . S
C406 C407 1.363 . S
C406 C412 1.379 . S
C406 N414 1.356 . S
C407 C406 1.363 . S
C407 C413 1.363 . S
C408 C409 1.363 . S
C408 C413 1.379 . S
C408 N415 1.356 . S
C409 C408 1.363 . S
C409 C412 1.363 . S
N410 C412 1.356 . S
N410 H422 0.984 . S
N410 H423 0.985 . S
N411 C413 1.356 . S
N411 H416 0.984 . S
N411 H417 0.985 . S
C412 C406 1.379 . S
C412 C409 1.363 . S
C412 N410 1.356 . S
C413 C407 1.363 . S
C413 C408 1.379 . S
C413 N411 1.356 . S
N414 C406 1.356 . S
N414 H420 0.984 1_554 S
N414 H421 0.984 . S
N415 C408 1.356 . S
N415 H418 0.984 . S
N415 H419 0.985 . S
H416 N411 0.984 . S
H417 N411 0.985 . S
H418 N415 0.984 . S
H419 N415 0.985 . S
H420 N414 0.984 1_556 S
H421 N414 0.984 . S
H422 N410 0.984 . S
H423 N410 0.985 . S
C424 C425 1.363 . S
C424 C430 1.379 . S
C424 N432 1.356 . S
C425 C424 1.363 . S
C425 C431 1.363 . S
C426 C427 1.363 . S
C426 C431 1.379 . S
C426 N433 1.356 . S
C427 C426 1.363 . S
C427 C430 1.363 . S
N428 C430 1.356 . S
N428 H440 0.984 . S
N428 H441 0.985 . S
N429 C431 1.329 1_455 S
N429 H434 1.001 . S
N429 H435 0.997 . S
C430 C424 1.379 . S
C430 C427 1.363 . S
C430 N428 1.356 . S
C431 C425 1.363 . S
C431 C426 1.379 . S
C431 N429 1.329 1_655 S
N432 C424 1.356 . S
N432 H438 0.984 . S
N432 H439 0.984 . S
N433 C426 1.356 . S
N433 H436 0.984 . S
N433 H437 0.985 . S
H434 N429 1.001 . S
H435 N429 0.997 . S
H436 N433 0.984 . S
H437 N433 0.985 . S
H438 N432 0.984 . S
H439 N432 0.984 . S
H440 N428 0.984 . S
H441 N428 0.985 . S
C442 C443 1.363 . S
C442 C448 1.379 . S
C442 N450 1.356 . S
C443 C442 1.363 . S
C443 C449 1.363 . S
C444 C445 1.363 . S
C444 C449 1.379 . S
C444 N451 1.356 . S
C445 C444 1.363 . S
C445 C448 1.363 . S
N446 C448 1.356 1_554 S
N446 H458 0.984 . S
N446 H459 0.985 . S
N447 C449 1.356 . S
N447 H452 0.984 . S
N447 H453 0.985 . S
C448 C442 1.379 . S
C448 C445 1.363 . S
C448 N446 1.356 1_556 S
C449 C443 1.363 . S
C449 C444 1.379 . S
C449 N447 1.356 . S
N450 C442 1.356 . S
N450 H456 0.984 1_556 S
N450 H457 0.984 . S
N451 C444 1.356 . S
N451 H454 0.984 . S
N451 H455 0.985 . S
H452 N447 0.984 . S
H453 N447 0.985 . S
H454 N451 0.984 . S
H455 N451 0.985 . S
H456 N450 0.984 1_554 S
H457 N450 0.984 . S
H458 N446 0.984 . S
H459 N446 0.985 . S
C460 C461 1.363 . S
C460 C466 1.379 . S
C460 N468 1.356 . S
C461 C460 1.363 . S
C461 C467 1.363 . S
C462 C463 1.363 . S
C462 C467 1.379 . S
C462 N469 1.356 . S
C463 C462 1.363 . S
C463 C466 1.363 . S
N464 C466 1.356 . S
N464 H476 0.984 . S
N464 H477 0.985 . S
N465 C467 1.356 . S
N465 H470 0.984 . S
N465 H471 0.985 . S
C466 C460 1.379 . S
C466 C463 1.363 . S
C466 N464 1.356 . S
C467 C461 1.363 . S
C467 C462 1.379 . S
C467 N465 1.356 . S
N468 C460 1.356 . S
N468 H474 0.984 . S
N468 H475 0.984 . S
N469 C462 1.356 . S
N469 H472 0.984 . S
N469 H473 0.985 . S
H470 N465 0.984 . S
H471 N465 0.985 . S
H472 N469 0.984 . S
H473 N469 0.985 . S
H474 N468 0.984 . S
H475 N468 0.984 . S
H476 N464 0.984 . S
H477 N464 0.985 . S
C478 C479 1.363 . S
C478 C484 1.379 . S
C478 N486 1.356 . S
C479 C478 1.363 . S
C479 C485 1.363 . S
C480 C481 1.363 . S
C480 C485 1.379 . S
C480 N487 1.356 . S
C481 C480 1.363 . S
C481 C484 1.363 . S
N482 C484 1.356 . S
N482 H494 0.984 . S
N482 H495 0.985 . S
N483 C485 1.356 . S
N483 H488 0.984 . S
N483 H489 0.985 . S
C484 C478 1.379 . S
C484 C481 1.363 . S
C484 N482 1.356 . S
C485 C479 1.363 . S
C485 C480 1.379 . S
C485 N483 1.356 . S
N486 C478 1.356 . S
N486 H492 0.984 . S
N486 H493 0.984 . S
N487 C480 1.356 . S
N487 H490 0.984 . S
N487 H491 0.985 . S
H488 N483 0.984 . S
H489 N483 0.985 . S
H490 N487 0.984 . S
H491 N487 0.985 . S
H492 N486 0.984 . S
H493 N486 0.984 . S
H494 N482 0.984 . S
H495 N482 0.985 . S
C496 C497 1.363 . S
C496 C502 1.379 . S
C496 N504 1.357 1_455 S
C497 C496 1.363 . S
C497 C503 1.363 . S
C498 C499 1.363 . S
C498 C503 1.379 . S
C498 N505 1.356 . S
C499 C498 1.363 . S
C499 C502 1.363 . S
N500 C502 1.357 1_656 S
N500 H512 0.983 . S
N500 H513 0.985 1_655 S
N501 C503 1.356 . S
N501 H506 0.984 . S
N501 H507 0.985 . S
C502 C496 1.379 . S
C502 C499 1.363 . S
C502 N500 1.357 1_454 S
C503 C497 1.363 . S
C503 C498 1.379 . S
C503 N501 1.356 . S
N504 C496 1.357 1_655 S
N504 H510 0.983 . S
N504 H511 0.985 1_655 S
N505 C498 1.356 . S
N505 H508 0.984 1_554 S
N505 H509 0.985 . S
H506 N501 0.984 . S
H507 N501 0.985 . S
H508 N505 0.984 1_556 S
H509 N505 0.985 . S
H510 N504 0.983 . S
H511 N504 0.985 1_455 S
H512 N500 0.983 . S
H513 N500 0.985 1_455 S
C514 C515 1.363 . S
C514 C520 1.379 . S
C514 N522 1.356 . S
C515 C514 1.363 . S
C515 C521 1.363 . S
C516 C517 1.363 . S
C516 C521 1.379 . S
C516 N523 1.356 . S
C517 C516 1.363 . S
C517 C520 1.363 . S
N518 C520 1.356 . S
N518 H530 0.984 . S
N518 H531 0.985 . S
N519 C521 1.356 . S
N519 H524 0.984 . S
N519 H525 0.985 . S
C520 C514 1.379 . S
C520 C517 1.363 . S
C520 N518 1.356 . S
C521 C515 1.363 . S
C521 C516 1.379 . S
C521 N519 1.356 . S
N522 C514 1.356 . S
N522 H528 0.984 . S
N522 H529 0.984 . S
N523 C516 1.356 . S
N523 H526 0.984 . S
N523 H527 0.985 . S
H524 N519 0.984 . S
H525 N519 0.985 . S
H526 N523 0.984 . S
H527 N523 0.985 . S
H528 N522 0.984 . S
H529 N522 0.984 . S
H530 N518 0.984 . S
H531 N518 0.985 . S
C532 C533 1.363 . S
C532 C538 1.379 . S
C532 N540 1.356 . S
C533 C532 1.363 . S
C533 C539 1.363 . S
C534 C535 1.363 . S
C534 C539 1.379 . S
C534 N541 1.356 . S
C535 C534 1.363 . S
C535 C538 1.363 . S
N536 C538 1.356 . S
N536 H548 0.984 . S
N536 H549 0.985 . S
N537 C539 1.356 . S
N537 H542 0.984 . S
N537 H543 0.985 . S
C538 C532 1.379 . S
C538 C535 1.363 . S
C538 N536 1.356 . S
C539 C533 1.363 . S
C539 C534 1.379 . S
C539 N537 1.356 . S
N540 C532 1.356 . S
N540 H546 0.984 . S
N540 H547 0.984 . S
N541 C534 1.356 . S
N541 H544 0.984 . S
N541 H545 0.985 . S
H542 N537 0.984 . S
H543 N537 0.985 . S
H544 N541 0.984 . S
H545 N541 0.985 . S
H546 N540 0.984 . S
H547 N540 0.984 . S
H548 N536 0.984 . S
H549 N536 0.985 . S
C550 C551 1.363 . S
C550 C556 1.379 . S
C550 N558 1.356 . S
C551 C550 1.363 . S
C551 C557 1.363 . S
C552 C553 1.363 . S
C552 C557 1.379 . S
C552 N559 1.356 . S
C553 C552 1.363 . S
C553 C556 1.363 . S
N554 C556 1.356 . S
N554 H566 0.984 . S
N554 H567 0.985 . S
N555 C557 1.356 . S
N555 H560 0.984 . S
N555 H561 0.985 . S
C556 C550 1.379 . S
C556 C553 1.363 . S
C556 N554 1.356 . S
C557 C551 1.363 . S
C557 C552 1.379 . S
C557 N555 1.356 . S
N558 C550 1.356 . S
N558 H564 0.984 . S
N558 H565 0.984 . S
N559 C552 1.356 . S
N559 H562 0.984 . S
N559 H563 0.985 . S
H560 N555 0.984 . S
H561 N555 0.985 . S
H562 N559 0.984 . S
H563 N559 0.985 . S
H564 N558 0.984 . S
H565 N558 0.984 . S
H566 N554 0.984 . S
H567 N554 0.985 . S
C568 C569 1.363 . S
C568 C574 1.379 . S
C568 N576 1.356 . S
C569 C568 1.363 . S
C569 C575 1.363 . S
C570 C571 1.363 . S
C570 C575 1.379 . S
C570 N577 1.356 . S
C571 C570 1.363 . S
C571 C574 1.363 . S
N572 C574 1.356 . S
N572 H584 0.984 . S
N572 H585 0.985 . S
N573 C575 1.356 . S
N573 H578 0.984 . S
N573 H579 0.985 . S
C574 C568 1.379 . S
C574 C571 1.363 . S
C574 N572 1.356 . S
C575 C569 1.363 . S
C575 C570 1.379 . S
C575 N573 1.356 . S
N576 C568 1.356 . S
N576 H582 0.984 . S
N576 H583 0.984 . S
N577 C570 1.356 . S
N577 H580 0.984 . S
N577 H581 0.985 . S
H578 N573 0.984 . S
H579 N573 0.985 . S
H580 N577 0.984 . S
H581 N577 0.985 . S
H582 N576 0.984 . S
H583 N576 0.984 . S
H584 N572 0.984 . S
H585 N572 0.985 . S
C586 C587 1.363 . S
C586 C592 1.379 . S
C586 N594 1.356 . S
C587 C586 1.363 . S
C587 C593 1.363 . S
C588 C589 1.363 . S
C588 C593 1.379 . S
C588 N595 1.356 . S
C589 C588 1.363 . S
C589 C592 1.363 . S
N590 C592 1.356 . S
N590 H602 0.984 . S
N590 H603 0.985 . S
N591 C593 1.356 . S
N591 H596 0.984 . S
N591 H597 0.985 . S
C592 C586 1.379 . S
C592 C589 1.363 . S
C592 N590 1.356 . S
C593 C587 1.363 . S
C593 C588 1.379 . S
C593 N591 1.356 . S
N594 C586 1.356 . S
N594 H600 0.984 . S
N594 H601 0.984 . S
N595 C588 1.356 . S
N595 H598 0.984 . S
N595 H599 0.985 . S
H596 N591 0.984 . S
H597 N591 0.985 . S
H598 N595 0.984 . S
H599 N595 0.985 . S
H600 N594 0.984 . S
H601 N594 0.984 . S
H602 N590 0.984 . S
H603 N590 0.985 . S
C604 C605 1.363 . S
C604 C610 1.379 . S
C604 N612 1.356 . S
C605 C604 1.363 . S
C605 C611 1.363 1_565 S
C606 C607 1.363 . S
C606 C611 1.379 . S
C606 N613 1.356 . S
C607 C606 1.363 . S
C607 C610 1.363 1_545 S
N608 C610 1.356 . S
N608 H620 0.984 . S
N608 H621 0.985 1_565 S
N609 C611 1.356 . S
N609 H614 0.984 1_545 S
N609 H615 0.985 . S
C610 C604 1.379 . S
C610 C607 1.363 1_565 S
C610 N608 1.356 . S
C611 C605 1.363 1_545 S
C611 C606 1.379 . S
C611 N609 1.356 . S
N612 C604 1.356 . S
N612 H618 0.984 . S
N612 H619 0.984 . S
N613 C606 1.356 . S
N613 H616 0.984 . S
N613 H617 0.985 . S
H614 N609 0.984 1_565 S
H615 N609 0.985 . S
H616 N613 0.984 . S
H617 N613 0.985 . S
H618 N612 0.984 . S
H619 N612 0.984 . S
H620 N608 0.984 . S
H621 N608 0.985 1_545 S
C622 C623 1.363 . S
C622 C628 1.395 . S
C622 N630 1.356 . S
C623 C622 1.363 . S
C623 C629 1.338 1_545 S
C624 C625 1.363 . S
C624 C629 1.403 . S
C624 N631 1.356 1_455 S
C625 C624 1.363 . S
C625 C628 1.346 1_565 S
N626 C628 1.351 1_565 S
N626 H638 0.984 1_565 S
N626 H639 0.985 . S
N627 C629 1.349 1_646 S
N627 H632 0.984 1_655 S
N627 H633 0.985 1_545 S
C628 C622 1.395 . S
C628 C625 1.346 1_545 S
C628 N626 1.351 1_545 S
C629 C623 1.338 1_565 S
C629 C624 1.403 . S
C629 N627 1.349 1_464 S
N630 C622 1.356 . S
N630 H636 0.984 . S
N630 H637 0.984 1_554 S
N631 C624 1.356 1_655 S
N631 H634 0.984 1_655 S
N631 H635 0.985 . S
H632 N627 0.984 1_455 S
H633 N627 0.985 1_565 S
H634 N631 0.984 1_455 S
H635 N631 0.985 . S
H636 N630 0.984 . S
H637 N630 0.984 1_556 S
H638 N626 0.984 1_545 S
H639 N626 0.985 . S
C640 C641 1.363 . S
C640 C646 1.379 . S
C640 N648 1.356 . S
C641 C640 1.363 . S
C641 C647 1.363 . S
C642 C643 1.363 . S
C642 C647 1.379 . S
C642 N649 1.356 . S
C643 C642 1.363 . S
C643 C646 1.363 . S
N644 C646 1.356 . S
N644 H656 0.984 . S
N644 H657 0.985 . S
N645 C647 1.356 . S
N645 H650 0.984 . S
N645 H651 0.985 . S
C646 C640 1.379 . S
C646 C643 1.363 . S
C646 N644 1.356 . S
C647 C641 1.363 . S
C647 C642 1.379 . S
C647 N645 1.356 . S
N648 C640 1.356 . S
N648 H654 0.984 . S
N648 H655 0.984 . S
N649 C642 1.356 . S
N649 H652 0.984 . S
N649 H653 0.985 . S
H650 N645 0.984 . S
H651 N645 0.985 . S
H652 N649 0.984 . S
H653 N649 0.985 . S
H654 N648 0.984 . S
H655 N648 0.984 . S
H656 N644 0.984 . S
H657 N644 0.985 . S
C658 C659 1.363 . S
C658 C664 1.379 . S
C658 N666 1.356 . S
C659 C658 1.363 . S
C659 C665 1.363 . S
C660 C661 1.363 . S
C660 C665 1.379 . S
C660 N667 1.356 . S
C661 C660 1.363 . S
C661 C664 1.363 . S
N662 C664 1.356 . S
N662 H674 0.984 . S
N662 H675 0.985 . S
N663 C665 1.356 . S
N663 H668 0.984 . S
N663 H669 0.985 . S
C664 C658 1.379 . S
C664 C661 1.363 . S
C664 N662 1.356 . S
C665 C659 1.363 . S
C665 C660 1.379 . S
C665 N663 1.356 . S
N666 C658 1.356 . S
N666 H672 0.984 . S
N666 H673 0.984 . S
N667 C660 1.356 . S
N667 H670 0.984 . S
N667 H671 0.985 . S
H668 N663 0.984 . S
H669 N663 0.985 . S
H670 N667 0.984 . S
H671 N667 0.985 . S
H672 N666 0.984 . S
H673 N666 0.984 . S
H674 N662 0.984 . S
H675 N662 0.985 . S
C676 C677 1.363 . S
C676 C682 1.379 . S
C676 N684 1.356 . S
C677 C676 1.363 . S
C677 C683 1.363 . S
C678 C679 1.362 1_556 S
C678 C683 1.379 1_556 S
C678 N685 1.356 . S
C679 C678 1.362 1_554 S
C679 C682 1.372 . S
N680 C682 1.356 . S
N680 H692 0.984 . S
N680 H693 0.985 . S
N681 C683 1.356 . S
N681 H686 0.984 . S
N681 H687 0.985 . S
C682 C676 1.379 . S
C682 C679 1.372 . S
C682 N680 1.356 . S
C683 C677 1.363 . S
C683 C678 1.379 1_554 S
C683 N681 1.356 . S
N684 C676 1.356 . S
N684 H690 0.984 . S
N684 H691 0.984 . S
N685 C678 1.356 . S
N685 H688 0.984 . S
N685 H689 0.985 . S
H686 N681 0.984 . S
H687 N681 0.985 . S
H688 N685 0.984 . S
H689 N685 0.985 . S
H690 N684 0.984 . S
H691 N684 0.984 . S
H692 N680 0.984 . S
H693 N680 0.985 . S
C694 C695 1.363 . S
C694 C700 1.379 . S
C694 N702 1.356 . S
C695 C694 1.363 . S
C695 C701 1.363 . S
C696 C697 1.363 . S
C696 C701 1.379 . S
C696 N703 1.356 . S
C697 C696 1.363 . S
C697 C700 1.363 . S
N698 C700 1.356 . S
N698 H710 0.984 . S
N698 H711 0.985 . S
N699 C701 1.356 . S
N699 H704 0.984 . S
N699 H705 0.985 . S
C700 C694 1.379 . S
C700 C697 1.363 . S
C700 N698 1.356 . S
C701 C695 1.363 . S
C701 C696 1.379 . S
C701 N699 1.356 . S
N702 C694 1.356 . S
N702 H708 0.984 . S
N702 H709 0.984 . S
N703 C696 1.356 . S
N703 H706 0.984 . S
N703 H707 0.985 . S
H704 N699 0.984 . S
H705 N699 0.985 . S
H706 N703 0.984 . S
H707 N703 0.985 . S
H708 N702 0.984 . S
H709 N702 0.984 . S
H710 N698 0.984 . S
H711 N698 0.985 . S
C712 C713 1.363 . S
C712 C718 1.379 . S
C712 N720 1.356 . S
C713 C712 1.363 . S
C713 C719 1.363 . S
C714 C715 1.363 . S
C714 C719 1.379 . S
C714 N721 1.356 . S
C715 C714 1.363 . S
C715 C718 1.363 . S
N716 C718 1.356 . S
N716 H728 0.984 . S
N716 H729 0.985 . S
N717 C719 1.356 . S
N717 H722 0.984 . S
N717 H723 0.985 . S
C718 C712 1.379 . S
C718 C715 1.363 . S
C718 N716 1.356 . S
C719 C713 1.363 . S
C719 C714 1.379 . S
C719 N717 1.356 . S
N720 C712 1.356 . S
N720 H726 0.984 . S
N720 H727 0.984 . S
N721 C714 1.356 . S
N721 H724 0.984 . S
N721 H725 0.985 . S
H722 N717 0.984 . S
H723 N717 0.985 . S
H724 N721 0.984 . S
H725 N721 0.985 . S
H726 N720 0.984 . S
H727 N720 0.984 . S
H728 N716 0.984 . S
H729 N716 0.985 . S
C730 C731 1.363 . S
C730 C736 1.379 . S
C730 N738 1.356 . S
C731 C730 1.363 . S
C731 C737 1.363 . S
C732 C733 1.363 . S
C732 C737 1.379 . S
C732 N739 1.356 . S
C733 C732 1.363 . S
C733 C736 1.363 . S
N734 C736 1.356 . S
N734 H746 0.984 . S
N734 H747 0.985 . S
N735 C737 1.356 . S
N735 H740 0.984 . S
N735 H741 0.985 . S
C736 C730 1.379 . S
C736 C733 1.363 . S
C736 N734 1.356 . S
C737 C731 1.363 . S
C737 C732 1.379 . S
C737 N735 1.356 . S
N738 C730 1.356 . S
N738 H744 0.984 . S
N738 H745 0.984 . S
N739 C732 1.356 . S
N739 H742 0.984 . S
N739 H743 0.985 . S
H740 N735 0.984 . S
H741 N735 0.985 . S
H742 N739 0.984 . S
H743 N739 0.985 . S
H744 N738 0.984 . S
H745 N738 0.984 . S
H746 N734 0.984 . S
H747 N734 0.985 . S
C748 C749 1.363 1_545 S
C748 C754 1.379 . S
C748 N756 1.356 1_545 S
C749 C748 1.363 1_565 S
C749 C755 1.363 . S
C750 C751 1.364 1_565 S
C750 C755 1.379 . S
C750 N757 1.356 1_564 S
C751 C750 1.364 1_545 S
C751 C754 1.370 . S
N752 C754 1.356 . S
N752 H764 0.984 . S
N752 H765 0.985 1_554 S
N753 C755 1.356 . S
N753 H758 0.984 . S
N753 H759 0.985 . S
C754 C748 1.379 . S
C754 C751 1.370 . S
C754 N752 1.356 . S
C755 C749 1.363 . S
C755 C750 1.379 . S
C755 N753 1.356 . S
N756 C748 1.356 1_565 S
N756 H762 0.984 1_565 S
N756 H763 0.984 . S
N757 C750 1.356 1_546 S
N757 H760 0.984 . S
N757 H761 0.985 1_545 S
H758 N753 0.984 . S
H759 N753 0.985 . S
H760 N757 0.984 . S
H761 N757 0.985 1_565 S
H762 N756 0.984 1_545 S
H763 N756 0.984 . S
H764 N752 0.984 . S
H765 N752 0.985 1_556 S
C766 C767 1.363 . S
C766 C772 1.379 . S
C766 N774 1.356 . S
C767 C766 1.363 . S
C767 C773 1.363 1_545 S
C768 C769 1.363 . S
C768 C773 1.379 . S
C768 N775 1.356 . S
C769 C768 1.363 . S
C769 C772 1.363 1_565 S
N770 C772 1.356 . S
N770 H782 0.984 . S
N770 H783 0.985 1_545 S
N771 C773 1.356 . S
N771 H776 0.984 1_565 S
N771 H777 0.985 . S
C772 C766 1.379 . S
C772 C769 1.363 1_545 S
C772 N770 1.356 . S
C773 C767 1.363 1_565 S
C773 C768 1.379 . S
C773 N771 1.356 . S
N774 C766 1.356 . S
N774 H780 0.984 . S
N774 H781 0.984 . S
N775 C768 1.356 . S
N775 H778 0.984 . S
N775 H779 0.985 . S
H776 N771 0.984 1_545 S
H777 N771 0.985 . S
H778 N775 0.984 . S
H779 N775 0.985 . S
H780 N774 0.984 . S
H781 N774 0.984 . S
H782 N770 0.984 . S
H783 N770 0.985 1_565 S
C209 C127 1.447 . S
C211 C10 1.447 . S
C227 C192 1.447 . S
C229 C23 1.447 . S
C245 C36 1.447 . S
C247 C114 1.447 . S
C263 C49 1.447 . S
C265 C205 1.447 . S
C281 C62 1.447 . S
C283 C140 1.447 . S
C299 C179 1.447 . S
C301 C75 1.447 . S
C317 C153 1.447 . S
C319 C88 1.447 . S
C335 C101 1.447 . S
C337 C166 1.447 . S
C353 C57 1.440 . S
C355 C44 1.440 . S
C371 C161 1.440 . S
C373 C109 1.440 . S
C389 C83 1.440 . S
C391 C18 1.440 . S
C407 C122 1.440 . S
C409 C174 1.440 . S
C425 C5 1.440 . S
C427 C70 1.440 . S
C443 C200 1.440 . S
C445 C135 1.440 . S
C461 C96 1.440 . S
C463 C31 1.440 . S
C479 C148 1.440 . S
C481 C187 1.440 . S
C497 C8 0.763 . S
C499 C60 0.763 1_554 S
C515 C73 0.763 . S
C517 C21 0.763 . S
C533 C86 0.763 . S
C535 C34 0.763 . S
C551 C47 0.763 . S
C553 C99 0.763 . S
C569 C138 0.763 . S
C571 C112 0.763 . S
C587 C151 0.763 . S
C589 C125 0.763 . S
C605 C190 0.763 . S
C607 C164 0.763 . S
C623 C203 0.763 1_554 S
C625 C177 0.763 . S
C641 C52 1.635 . S
C643 C0 1.635 . S
C659 C65 1.635 . S
C661 C13 1.635 . S
C677 C78 1.635 . S
C679 C26 1.627 1_554 S
C695 C39 1.635 . S
C697 C91 1.635 . S
C713 C104 1.635 . S
C715 C130 1.635 . S
C731 C143 1.635 . S
C733 C117 1.635 . S
C749 C182 1.635 . S
C751 C156 1.627 1_554 S
C767 C195 1.635 . S
C769 C169 1.635 . S
