# Generated by pormake.
# Topology qtz-e, (6)-cn, num edge types: 1
# Building blocks:
#     Node 0, Type 0, BuildingBlock: UKALOJ_clean_sbu_0, # of connection points: 6
#     Node 1, Type 0, BuildingBlock: UKALOJ_clean_sbu_0, # of connection points: 6
#     Node 2, Type 0, BuildingBlock: UKALOJ_clean_sbu_0, # of connection points: 6
#     Node 3, Type 0, BuildingBlock: UKALOJ_clean_sbu_0, # of connection points: 6
#     Node 4, Type 0, BuildingBlock: UKALOJ_clean_sbu_0, # of connection points: 6
#     Node 5, Type 0, BuildingBlock: UKALOJ_clean_sbu_0, # of connection points: 6
#     Edge 6, Type (0, 0), BuildingBlock: KIFKEQ_clean_linker_1, # of connection points: 2
#     Edge 7, Type (0, 0), BuildingBlock: KIFKEQ_clean_linker_1, # of connection points: 2
#     Edge 8, Type (0, 0), BuildingBlock: KIFKEQ_clean_linker_1, # of connection points: 2
#     Edge 9, Type (0, 0), BuildingBlock: KIFKEQ_clean_linker_1, # of connection points: 2
#     Edge 10, Type (0, 0), BuildingBlock: KIFKEQ_clean_linker_1, # of connection points: 2
#     Edge 11, Type (0, 0), BuildingBlock: KIFKEQ_clean_linker_1, # of connection points: 2
#     Edge 12, Type (0, 0), BuildingBlock: KIFKEQ_clean_linker_1, # of connection points: 2
#     Edge 13, Type (0, 0), BuildingBlock: KIFKEQ_clean_linker_1, # of connection points: 2
#     Edge 14, Type (0, 0), BuildingBlock: KIFKEQ_clean_linker_1, # of connection points: 2
#     Edge 15, Type (0, 0), BuildingBlock: KIFKEQ_clean_linker_1, # of connection points: 2
#     Edge 16, Type (0, 0), BuildingBlock: KIFKEQ_clean_linker_1, # of connection points: 2
#     Edge 17, Type (0, 0), BuildingBlock: KIFKEQ_clean_linker_1, # of connection points: 2
#     Edge 18, Type (0, 0), BuildingBlock: KIFKEQ_clean_linker_1, # of connection points: 2
#     Edge 19, Type (0, 0), BuildingBlock: KIFKEQ_clean_linker_1, # of connection points: 2
#     Edge 20, Type (0, 0), BuildingBlock: KIFKEQ_clean_linker_1, # of connection points: 2
#     Edge 21, Type (0, 0), BuildingBlock: KIFKEQ_clean_linker_1, # of connection points: 2
#     Edge 22, Type (0, 0), BuildingBlock: KIFKEQ_clean_linker_1, # of connection points: 2
#     Edge 23, Type (0, 0), BuildingBlock: KIFKEQ_clean_linker_1, # of connection points: 2
# Relax obj value: 0.463
# Max RMSD: 0.263
# Mean RMSD: 0.263
data_MOF--net-qtz-e--node1-UKALOJ_clean_sbu_0--edge1-KIFKEQ_clean_linker_1
_symmetry_space_group_name_H-M    P1
_symmetry_Int_Tables_number       1
_symmetry_cell_setting            triclinic
loop_
_symmetry_equiv_pos_as_xyz
'x, y, z'
_cell_length_a     27.959625
_cell_length_b     28.013552
_cell_length_c     38.185641
_cell_angle_alpha  89.981481
_cell_angle_beta   90.009809
_cell_angle_gamma 120.21746
loop_
_atom_site_label
_atom_site_type_symbol
_atom_site_fract_x
_atom_site_fract_y
_atom_site_fract_z
_atom_type_partial_charge
Zn0 Zn 0.2232 0.4205 0.01236 0.0
O1 O 0.15546 0.43298 0.01456 0.0
C2 C 0.15436 0.30815 0.03857 0.0
Zn3 Zn 0.18485 0.36337 0.96757 0.0
C4 C 0.11533 0.40887 -0.00665 0.0
O5 O 0.11524 0.37535 0.9708 0.0
C6 C 0.29759 0.3835 0.98504 0.0
O7 O 0.21941 0.42736 0.93114 0.0
O8 O 0.26054 0.48448 0.97482 0.0
N9 N 0.14666 0.30555 0.92899 0.0
C10 C 0.16647 0.29515 0.89956 0.0
C11 C 0.08321 0.2295 0.90576 0.0
N12 N 0.09477 0.26493 0.93262 0.0
N13 N 0.12742 0.24794 0.88452 0.0
C14 C 0.24694 0.49125 0.0793 0.0
C15 C 0.33444 0.54459 0.0755 0.0
N16 N 0.26398 0.47682 0.05035 0.0
N17 N 0.31832 0.50966 0.04816 0.0
N18 N 0.29051 0.53352 0.09559 0.0
H19 H 0.16245 0.42408 0.08122 0.0
H20 H 0.17094 0.4916 0.07515 0.0
H21 H 0.18185 0.47121 0.11749 0.0
C22 C 0.18727 0.46801 0.08908 0.0
C23 C 0.22558 0.32737 0.88763 0.0
H24 H 0.22785 0.32982 0.85866 0.0
H25 H 0.24756 0.30575 0.89641 0.0
H26 H 0.24701 0.36971 0.89838 0.0
O27 O 0.25846 0.35691 0.96335 0.0
O28 O 0.2908 0.40957 0.00969 0.0
C29 C 0.25141 0.47603 0.94218 0.0
O30 O 0.18593 0.35715 0.04924 0.0
O31 O 0.14805 0.2987 0.0058 0.0
Zn32 Zn 0.81941 0.18933 0.30325 0.0
O33 O 0.78854 0.22277 0.26734 0.0
C34 C 0.9159 0.30213 0.31894 0.0
Zn35 Zn 0.80581 0.23131 0.34795 0.0
C36 C 0.77638 0.25814 0.27816 0.0
O37 O 0.78126 0.27041 0.31047 0.0
C38 C 0.84635 0.15992 0.37371 0.0
O39 O 0.72407 0.1666 0.35027 0.0
O40 O 0.73704 0.12009 0.30871 0.0
N41 N 0.79259 0.27366 0.38596 0.0
C42 C 0.76719 0.25927 0.41729 0.0
C43 C 0.79263 0.34403 0.40874 0.0
N44 N 0.80884 0.32643 0.38086 0.0
N45 N 0.76683 0.30284 0.43216 0.0
C46 C 0.86584 0.16905 0.23431 0.0
C47 C 0.8482 0.08615 0.24089 0.0
N48 N 0.83671 0.14992 0.26426 0.0
N49 N 0.8254 0.09824 0.26813 0.0
N50 N 0.87329 0.12979 0.21917 0.0
H51 H 0.87212 0.24941 0.23286 0.0
H52 H 0.89135 0.22944 0.19293 0.0
H53 H 0.93669 0.24993 0.23001 0.0
C54 C 0.89258 0.22778 0.22189 0.0
C55 C 0.74016 0.20201 0.43232 0.0
H56 H 0.73774 0.17142 0.41314 0.0
H57 H 0.69796 0.18956 0.44183 0.0
H58 H 0.76487 0.20154 0.4549 0.0
O59 O 0.82979 0.19191 0.38469 0.0
O60 O 0.84887 0.15363 0.34088 0.0
C61 C 0.70514 0.12423 0.3308 0.0
O62 O 0.89999 0.26268 0.29713 0.0
O63 O 0.88577 0.29637 0.34509 0.0
Zn64 Zn 0.57332 0.80171 0.67768 0.0
O65 O 0.55787 0.72091 0.68075 0.0
C66 C 0.68589 0.84458 0.70331 0.0
Zn67 Zn 0.62917 0.81572 0.63286 0.0
C68 C 0.58175 0.70243 0.66138 0.0
O69 O 0.61706 0.73415 0.63878 0.0
C70 C 0.61199 0.91118 0.6482 0.0
O71 O 0.56434 0.78371 0.5969 0.0
O72 O 0.50918 0.77532 0.64025 0.0
N73 N 0.68634 0.83367 0.59395 0.0
C74 C 0.69632 0.86299 0.56411 0.0
C75 C 0.76299 0.84755 0.57108 0.0
N76 N 0.72759 0.82369 0.59803 0.0
N77 N 0.74392 0.87195 0.54928 0.0
C78 C 0.50589 0.76237 0.74689 0.0
C79 C 0.44547 0.78613 0.73776 0.0
N80 N 0.5172 0.78788 0.7156 0.0
N81 N 0.48 0.80311 0.71015 0.0
N82 N 0.46104 0.76084 0.76135 0.0
H83 H 0.50705 0.69348 0.7709 0.0
H84 H 0.56025 0.76031 0.78551 0.0
H85 H 0.56653 0.73575 0.74361 0.0
C86 C 0.53666 0.73627 0.76227 0.0
C87 C 0.66341 0.88856 0.55156 0.0
H88 H 0.62106 0.86736 0.56242 0.0
H89 H 0.66068 0.88721 0.52258 0.0
H90 H 0.68478 0.93259 0.55961 0.0
O91 O 0.63587 0.89561 0.62649 0.0
O92 O 0.58698 0.88082 0.67416 0.0
C93 C 0.51645 0.77054 0.60791 0.0
O94 O 0.63711 0.8276 0.71434 0.0
O95 O 0.69459 0.84635 0.67049 0.0
Zn96 Zn 0.77379 0.57832 0.01184 0.0
O97 O 0.84089 0.56476 0.01456 0.0
C98 C 0.84416 0.6917 0.03597 0.0
Zn99 Zn 0.81185 0.63328 0.96605 0.0
C100 C 0.88058 0.58746 -0.00709 0.0
O101 O 0.88069 0.62024 0.96977 0.0
C102 C 0.70005 0.6155 0.98344 0.0
O103 O 0.77593 0.56768 0.93085 0.0
O104 O 0.73515 0.51264 0.9755 0.0
N105 N 0.85004 0.6892 0.92649 0.0
C106 C 0.82998 0.69904 0.89696 0.0
C107 C 0.91374 0.76402 0.90218 0.0
N108 N 0.90224 0.72939 0.92951 0.0
N109 N 0.86918 0.74547 0.88125 0.0
C110 C 0.75007 0.51056 0.08021 0.0
C111 C 0.66221 0.45903 0.07752 0.0
N112 N 0.733 0.52416 0.05092 0.0
N113 N 0.67845 0.49247 0.04941 0.0
N114 N 0.70628 0.46997 0.09743 0.0
H115 H 0.83515 0.57645 0.08105 0.0
H116 H 0.82495 0.50813 0.07577 0.0
H117 H 0.81577 0.5304 0.11793 0.0
C118 C 0.80976 0.53285 0.08951 0.0
C119 C 0.77061 0.66713 0.88553 0.0
H120 H 0.7677 0.66445 0.85657 0.0
H121 H 0.74912 0.68911 0.89453 0.0
H122 H 0.74917 0.62488 0.89646 0.0
O123 O 0.73892 0.64076 0.96139 0.0
O124 O 0.70685 0.59027 0.00863 0.0
C125 C 0.74378 0.51959 0.94274 0.0
O126 O 0.81235 0.64329 0.04752 0.0
O127 O 0.85006 0.69964 0.00305 0.0
Zn128 Zn 0.19096 0.77199 0.34575 0.0
O129 O 0.27219 0.83732 0.34823 0.0
C130 C 0.14982 0.84183 0.37279 0.0
Zn131 Zn 0.17638 0.81416 0.30147 0.0
C132 C 0.29078 0.87984 0.32892 0.0
O133 O 0.25877 0.88375 0.30677 0.0
C134 C 0.08049 0.70092 0.31721 0.0
O135 O 0.20697 0.78157 0.26467 0.0
O136 O 0.21597 0.7345 0.3075 0.0
N137 N 0.15774 0.85378 0.26324 0.0
C138 C 0.13271 0.83667 0.23182 0.0
C139 C 0.14048 0.91507 0.24204 0.0
N140 N 0.16292 0.90274 0.26935 0.0
N141 N 0.12175 0.87449 0.21798 0.0
C142 C 0.23095 0.74267 0.41411 0.0
C143 C 0.206 0.65833 0.40426 0.0
N144 N 0.20515 0.72909 0.38289 0.0
N145 N 0.18922 0.67657 0.37699 0.0
N146 N 0.23192 0.69884 0.42808 0.0
H147 H 0.30009 0.81196 0.43901 0.0
H148 H 0.23309 0.79887 0.45282 0.0
H149 H 0.25946 0.83041 0.41127 0.0
C150 C 0.25767 0.7994 0.42988 0.0
C151 C 0.1146 0.78118 0.21581 0.0
H152 H 0.13961 0.78683 0.19199 0.0
H153 H 0.07058 0.76148 0.20767 0.0
H154 H 0.11972 0.75326 0.23374 0.0
O155 O 0.09563 0.74061 0.29565 0.0
O156 O 0.11144 0.70643 0.34283 0.0
C157 C 0.22009 0.74676 0.2752 0.0
O158 O 0.16656 0.80973 0.38328 0.0
O159 O 0.14729 0.84893 0.34007 0.0
Zn160 Zn 0.36688 0.17638 0.63652 0.0
O161 O 0.43213 0.20817 0.60083 0.0
C162 C 0.38287 0.08023 0.65146 0.0
Zn163 Zn 0.42243 0.18974 0.68139 0.0
C164 C 0.4799 0.22102 0.61196 0.0
O165 O 0.48688 0.21587 0.6443 0.0
C166 C 0.30964 0.14757 0.70671 0.0
O167 O 0.43899 0.27108 0.68451 0.0
O168 O 0.37993 0.25811 0.64253 0.0
N169 N 0.47781 0.20252 0.71965 0.0
C170 C 0.48905 0.22807 0.75093 0.0
C171 C 0.54851 0.20288 0.74242 0.0
N172 N 0.51439 0.18637 0.7146 0.0
N173 N 0.53326 0.22874 0.76576 0.0
C174 C 0.30019 0.13098 0.56743 0.0
C175 C 0.23469 0.14821 0.57429 0.0
N176 N 0.3103 0.15978 0.59748 0.0
N177 N 0.2698 0.17087 0.60151 0.0
N178 N 0.25325 0.12347 0.5524 0.0
H179 H 0.37465 0.12527 0.56564 0.0
H180 H 0.33491 0.10586 0.52583 0.0
H181 H 0.31039 0.06058 0.56293 0.0
C182 C 0.33229 0.1046 0.55481 0.0
C183 C 0.45891 0.25509 0.76591 0.0
H184 H 0.42913 0.2556 0.74717 0.0
H185 H 0.48896 0.29796 0.77416 0.0
H186 H 0.4353 0.23175 0.78934 0.0
O187 O 0.35832 0.16416 0.7178 0.0
O188 O 0.30109 0.14601 0.67389 0.0
C189 C 0.41556 0.28984 0.66494 0.0
O190 O 0.35923 0.09626 0.62987 0.0
O191 O 0.40785 0.11018 0.67759 0.0
H192 H 0.22047 0.75353 0.20412 0.0
H193 H 0.26137 0.67893 0.2895 0.0
H194 H 0.24592 0.7048 0.16233 0.0
H195 H 0.28837 0.6312 0.2475 0.0
H196 H 0.25164 0.50016 0.16086 0.0
H197 H 0.24128 0.55592 0.20626 0.0
H198 H 0.32356 0.69957 0.13922 0.0
H199 H 0.33098 0.6426 0.09345 0.0
C200 C 0.23563 0.7273 0.21395 0.0
C201 C 0.23866 0.71977 0.25004 0.0
C202 C 0.25062 0.69969 0.19 0.0
C203 C 0.26926 0.66428 0.20167 0.0
C204 C 0.27354 0.65776 0.23779 0.0
C205 C 0.25825 0.68519 0.26179 0.0
C206 C 0.2671 0.54361 0.15607 0.0
C207 C 0.29035 0.56713 0.12363 0.0
C208 C 0.26202 0.5757 0.18207 0.0
C209 C 0.28094 0.63196 0.17605 0.0
C210 C 0.30752 0.65607 0.14428 0.0
C211 C 0.31218 0.62382 0.11827 0.0
H212 H 0.4768 0.22791 0.54101 0.0
H213 H 0.5886 0.25924 0.62758 0.0
H214 H 0.55308 0.2572 0.50017 0.0
H215 H 0.66547 0.28991 0.58653 0.0
H216 H 0.70186 0.34768 0.43411 0.0
H217 H 0.63768 0.33761 0.48063 0.0
H218 H 0.69528 0.24732 0.54267 0.0
H219 H 0.76167 0.26051 0.49679 0.0
C220 C 0.51781 0.24169 0.55134 0.0
C221 C 0.52671 0.24109 0.58746 0.0
C222 C 0.56163 0.25892 0.52795 0.0
C223 C 0.61531 0.27615 0.54019 0.0
C224 C 0.62443 0.27643 0.57637 0.0
C225 C 0.58048 0.259 0.59982 0.0
C226 C 0.70148 0.32677 0.45805 0.0
C227 C 0.73515 0.30318 0.46154 0.0
C228 C 0.6645 0.32053 0.48449 0.0
C229 C 0.66056 0.29053 0.51489 0.0
C230 C 0.69719 0.27044 0.51945 0.0
C231 C 0.73449 0.27708 0.49302 0.0
H232 H 0.24481 0.47057 0.87107 0.0
H233 H 0.31984 0.58548 0.95689 0.0
H234 H 0.29311 0.5456 0.82957 0.0
H235 H 0.36746 0.66103 0.9151 0.0
H236 H 0.35115 0.69307 0.76177 0.0
H237 H 0.29606 0.62881 0.80809 0.0
H238 H 0.44264 0.69036 0.87243 0.0
H239 H 0.49686 0.75662 0.8266 0.0
C240 C 0.27113 0.51197 0.88108 0.0
C241 C 0.27867 0.52213 0.91722 0.0
C242 C 0.29849 0.55505 0.85729 0.0
C243 C 0.33384 0.60921 0.86913 0.0
C244 C 0.34078 0.61959 0.90528 0.0
C245 C 0.31339 0.57639 0.92915 0.0
C246 C 0.37118 0.69346 0.78613 0.0
C247 C 0.42838 0.72838 0.79037 0.0
C248 C 0.33988 0.65645 0.81246 0.0
C249 C 0.36531 0.6538 0.84353 0.0
C250 C 0.42195 0.69135 0.84869 0.0
C251 C 0.45319 0.72859 0.82232 0.0
H252 H 0.73888 0.32912 0.2928 0.0
H253 H 0.77271 0.24934 0.2072 0.0
H254 H 0.71177 0.37707 0.25092 0.0
H255 H 0.74714 0.29812 0.16559 0.0
H256 H 0.66217 0.36034 0.09743 0.0
H257 H 0.6693 0.30428 0.14393 0.0
H258 H 0.75805 0.45052 0.20809 0.0
H259 H 0.74791 0.50553 0.16199 0.0
C260 C 0.7404 0.32176 0.26508 0.0
C261 C 0.75799 0.28561 0.25322 0.0
C262 C 0.72505 0.34929 0.24116 0.0
C263 C 0.7272 0.34122 0.20503 0.0
C264 C 0.74401 0.3044 0.19329 0.0
C265 C 0.75909 0.27676 0.21714 0.0
C266 C 0.6823 0.37994 0.12179 0.0
C267 C 0.70609 0.43709 0.12607 0.0
C268 C 0.68678 0.34818 0.14822 0.0
C269 C 0.71522 0.37324 0.17933 0.0
C270 C 0.73593 0.43004 0.1844 0.0
C271 C 0.73098 0.46166 0.15798 0.0
H272 H 0.4076 0.73219 0.62313 0.0
H273 H 0.52047 0.76573 0.53689 0.0
H274 H 0.33158 0.70424 0.58174 0.0
H275 H 0.44506 0.73921 0.49572 0.0
H276 H 0.29665 0.6537 0.42846 0.0
H277 H 0.36019 0.66103 0.47468 0.0
H278 H 0.30359 0.74984 0.53901 0.0
H279 H 0.23776 0.73934 0.49341 0.0
C280 C 0.41613 0.73343 0.59537 0.0
C281 C 0.46997 0.75126 0.5832 0.0
C282 C 0.37266 0.7176 0.57172 0.0
C283 C 0.38235 0.71945 0.53553 0.0
C284 C 0.43606 0.73636 0.52348 0.0
C285 C 0.47938 0.75196 0.54707 0.0
C286 C 0.29716 0.67377 0.4528 0.0
C287 C 0.26385 0.69763 0.45707 0.0
C288 C 0.33378 0.67843 0.47908 0.0
C289 C 0.33773 0.70709 0.51011 0.0
C290 C 0.30164 0.72768 0.51532 0.0
C291 C 0.26469 0.72262 0.48904 0.0
H292 H 0.74982 0.52182 0.87161 0.0
H293 H 0.67495 0.41089 0.95933 0.0
H294 H 0.70139 0.44497 0.83142 0.0
H295 H 0.62715 0.33346 0.91885 0.0
H296 H 0.64332 0.29545 0.76623 0.0
H297 H 0.69855 0.36094 0.81194 0.0
H298 H 0.55196 0.30207 0.87595 0.0
H299 H 0.49758 0.23452 0.83078 0.0
C300 C 0.72348 0.4809 0.88233 0.0
C301 C 0.71607 0.4724 0.91861 0.0
C302 C 0.69606 0.43677 0.85929 0.0
C303 C 0.66076 0.38315 0.87203 0.0
C304 C 0.65383 0.37444 0.90834 0.0
C305 C 0.6813 0.4187 0.93146 0.0
C306 C 0.62332 0.29585 0.79042 0.0
C307 C 0.56605 0.26139 0.79469 0.0
C308 C 0.6547 0.33357 0.8164 0.0
C309 C 0.62929 0.33744 0.84714 0.0
C310 C 0.57263 0.30019 0.85245 0.0
C311 C 0.5413 0.26221 0.82644 0.0
H312 H 0.35073 0.42203 0.92309 0.0
H313 H 0.37481 0.38801 0.02974 0.0
H314 H 0.44999 0.48728 0.91759 0.0
H315 H 0.47397 0.45125 0.02404 0.0
H316 H 0.62378 0.61383 0.02775 0.0
H317 H 0.52448 0.55061 0.02299 0.0
H318 H 0.54655 0.50907 0.91757 0.0
H319 H 0.64594 0.57431 0.92208 0.0
C320 C 0.3777 0.4261 0.94468 0.0
C321 C 0.35523 0.39978 0.97682 0.0
C322 C 0.4345 0.46422 0.94172 0.0
C323 C 0.46961 0.47615 0.97082 0.0
C324 C 0.44777 0.44471 0.00154 0.0
C325 C 0.39116 0.40732 0.00459 0.0
C326 C 0.60697 0.59332 0.00297 0.0
C327 C 0.64242 0.5993 0.97524 0.0
C328 C 0.55029 0.55594 0.00049 0.0
C329 C 0.52788 0.52297 0.97041 0.0
C330 C 0.56248 0.53334 0.94123 0.0
C331 C 0.61936 0.57145 0.9436 0.0
H332 H 0.00364 0.62321 0.35992 0.0
H333 H 0.06968 0.64926 0.25514 0.0
H334 H 0.96947 0.52461 0.35439 0.0
H335 H 0.03676 0.55041 0.24979 0.0
H336 H 0.92667 0.35276 0.25639 0.0
H337 H 0.95916 0.4514 0.25008 0.0
H338 H 0.0256 0.47951 0.355 0.0
H339 H 0.99188 0.38113 0.36147 0.0
C340 C 0.00851 0.60738 0.3351 0.0
C341 C 0.03898 0.64379 0.30795 0.0
C342 C 0.99023 0.55113 0.33219 0.0
C343 C 0.00253 0.53014 0.30219 0.0
C344 C 0.02724 0.56544 0.27338 0.0
C345 C 0.04522 0.62195 0.27622 0.0
C346 C 0.95079 0.38052 0.27738 0.0
C347 C 0.95692 0.35938 0.30944 0.0
C348 C 0.96853 0.43691 0.27398 0.0
C349 C 0.99291 0.47281 0.30255 0.0
C350 C 0.00506 0.45251 0.33295 0.0
C351 C 0.98703 0.39638 0.33642 0.0
H352 H 0.42116 0.06849 0.58862 0.0
H353 H 0.3848 0.00389 0.69385 0.0
H354 H 0.48595 0.03451 0.58176 0.0
H355 H 0.44803 0.96864 0.68682 0.0
H356 H 0.61326 0.98877 0.69082 0.0
H357 H 0.54986 0.02411 0.68558 0.0
H358 H 0.50549 0.95591 0.58133 0.0
H359 H 0.5705 0.92187 0.58638 0.0
C360 C 0.42457 0.04422 0.60953 0.0
C361 C 0.39798 0.03871 0.64181 0.0
C362 C 0.46241 0.0256 0.6058 0.0
C363 C 0.47373 0.00097 0.63426 0.0
C364 C 0.44173 0.98937 0.66486 0.0
C365 C 0.40447 0.00831 0.66866 0.0
C366 C 0.59216 0.98391 0.66613 0.0
C367 C 0.59693 0.95287 0.63901 0.0
C368 C 0.55479 0.00289 0.66339 0.0
C369 C 0.52095 0.99065 0.6336 0.0
C370 C 0.53048 0.96535 0.60477 0.0
C371 C 0.56844 0.9467 0.60743 0.0
H372 H 0.59015 0.63708 0.61114 0.0
H373 H 0.53061 0.63342 0.71608 0.0
H374 H 0.54749 0.53623 0.61244 0.0
H375 H 0.48816 0.53337 0.71727 0.0
H376 H 0.47175 0.36133 0.71777 0.0
H377 H 0.51543 0.46156 0.71711 0.0
H378 H 0.44874 0.45442 0.61397 0.0
H379 H 0.40492 0.35353 0.61451 0.0
C380 C 0.56883 0.61489 0.63463 0.0
C381 C 0.56375 0.64309 0.6635 0.0
C382 C 0.54383 0.55722 0.63521 0.0
C383 C 0.51405 0.52698 0.66483 0.0
C384 C 0.51095 0.55553 0.69413 0.0
C385 C 0.53529 0.61286 0.69342 0.0
C386 C 0.46577 0.38101 0.6951 0.0
C387 C 0.43479 0.34953 0.6662 0.0
C388 C 0.49085 0.43844 0.69473 0.0
C389 C 0.48595 0.46581 0.66535 0.0
C390 C 0.45384 0.43436 0.63675 0.0
C391 C 0.42816 0.37666 0.63726 0.0
H392 H 0.05454 0.41467 0.04689 0.0
H393 H 0.08797 0.44761 0.93674 0.0
H394 H 0.99752 0.45764 0.04591 0.0
H395 H 0.03637 0.49598 0.93591 0.0
H396 H 0.90732 0.54776 0.93651 0.0
H397 H 0.95833 0.4988 0.93587 0.0
H398 H 0.99701 0.5371 0.04589 0.0
H399 H 0.94057 0.5807 0.04668 0.0
C400 C 0.04914 0.43095 0.0224 0.0
C401 C 0.07443 0.42702 -0.00824 0.0
C402 C 0.01745 0.45679 0.02184 0.0
C403 C 0.01249 0.48165 -0.00907 0.0
C404 C 0.03764 0.47671 0.96016 0.0
C405 C 0.06745 0.44893 0.96049 0.0
C406 C 0.92763 0.54626 0.96033 0.0
C407 C 0.92079 0.5684 -0.00847 0.0
C408 C 0.95711 0.51815 0.96009 0.0
C409 C 0.98211 0.5131 -0.0091 0.0
C410 C 0.9772 0.53804 0.02178 0.0
C411 C 0.94583 0.56423 0.02224 0.0
H412 H 0.35629 0.95323 0.27823 0.0
H413 H 0.36056 0.8973 0.38302 0.0
H414 H 0.45756 0.01069 0.27883 0.0
H415 H 0.46091 0.95401 0.3835 0.0
H416 H 0.63407 0.10857 0.38383 0.0
H417 H 0.53362 0.05259 0.38333 0.0
H418 H 0.53912 0.99385 0.2797 0.0
H419 H 0.64042 0.05053 0.28007 0.0
C420 C 0.37871 0.95395 0.30154 0.0
C421 C 0.35052 0.9209 0.33058 0.0
C422 C 0.43662 0.98616 0.30171 0.0
C423 C 0.46712 0.98638 0.3311 0.0
C424 C 0.4386 0.95487 0.36054 0.0
C425 C 0.38106 0.92239 0.36024 0.0
C426 C 0.614 0.0832 0.36107 0.0
C427 C 0.64517 0.08383 0.332 0.0
C428 C 0.55641 0.05117 0.3608 0.0
C429 C 0.52849 0.01925 0.33136 0.0
C430 C 0.5596 0.01872 0.30255 0.0
C431 C 0.61751 0.05049 0.30296 0.0
H432 H 0.31072 0.13723 0.77766 0.0
H433 H 0.21056 0.14101 0.69267 0.0
H434 H 0.25067 0.14685 0.81963 0.0
H435 H 0.15028 0.15057 0.7349 0.0
H436 H 0.14534 0.27625 0.81668 0.0
H437 H 0.17456 0.23392 0.77172 0.0
H438 H 0.1568 0.10971 0.84612 0.0
H439 H 0.12783 0.15285 0.89095 0.0
C440 C 0.27493 0.13847 0.76798 0.0
C441 C 0.26585 0.13914 0.73184 0.0
C442 C 0.24032 0.14372 0.79207 0.0
C443 C 0.19617 0.15014 0.78049 0.0
C444 C 0.18443 0.14633 0.74449 0.0
C445 C 0.21877 0.14053 0.72035 0.0
C446 C 0.14653 0.23913 0.8229 0.0
C447 C 0.13495 0.21774 0.85695 0.0
C448 C 0.16281 0.21465 0.79728 0.0
C449 C 0.16814 0.16857 0.80547 0.0
C450 C 0.15333 0.14533 0.83915 0.0
C451 C 0.13658 0.16965 0.86466 0.0
H452 H 0.86146 0.14705 0.1514 0.0
H453 H 0.96902 0.13001 0.22458 0.0
H454 H 0.93223 0.17562 0.10574 0.0
H455 H 0.04028 0.15827 0.17906 0.0
H456 H 0.16696 0.31011 0.10941 0.0
H457 H 0.09735 0.25139 0.15201 0.0
H458 H 0.99023 0.15079 0.06825 0.0
H459 H 0.06007 0.20977 0.02539 0.0
C460 C 0.89994 0.1482 0.15724 0.0
C461 C 0.91044 0.13692 0.19119 0.0
C462 C 0.94026 0.16413 0.13122 0.0
C463 C 0.99193 0.16938 0.13889 0.0
C464 C 0.00101 0.15488 0.17248 0.0
C465 C 0.96039 0.13851 0.19839 0.0
C466 C 0.12925 0.27454 0.10008 0.0
C467 C 0.11875 0.26499 0.06402 0.0
C468 C 0.08941 0.24071 0.12453 0.0
C469 C 0.03806 0.19686 0.11343 0.0
C470 C 0.02923 0.1847 0.07749 0.0
C471 C 0.06939 0.21826 0.05299 0.0
H472 H 0.83772 0.96911 0.5569 0.0
H473 H 0.71742 0.86227 0.48108 0.0
H474 H 0.88057 0.04275 0.51287 0.0
H475 H 0.75948 0.93541 0.43689 0.0
H476 H 0.85308 0.16882 0.4449 0.0
H477 H 0.84248 0.09817 0.48636 0.0
H478 H 0.84336 0.99744 0.40105 0.0
H479 H 0.8539 0.06825 0.35934 0.0
C480 C 0.82159 0.96119 0.53044 0.0
C481 C 0.77443 0.91067 0.52208 0.0
C482 C 0.84571 0.00317 0.50538 0.0
C483 C 0.82323 0.99494 0.47149 0.0
C484 C 0.77816 0.94285 0.46263 0.0
C485 C 0.75386 0.90114 0.48781 0.0
C486 C 0.8526 0.13233 0.435 0.0
C487 C 0.85365 0.12386 0.39881 0.0
C488 C 0.84676 0.0919 0.45881 0.0
C489 C 0.84146 0.04198 0.4469 0.0
C490 C 0.84671 0.03527 0.4109 0.0
C491 C 0.85309 0.076 0.38707 0.0
H492 H 0.68463 0.85467 0.77427 0.0
H493 H 0.78517 0.8516 0.6893 0.0
H494 H 0.74484 0.84526 0.81625 0.0
H495 H 0.84554 0.84217 0.73153 0.0
H496 H 0.85066 0.71653 0.81354 0.0
H497 H 0.82106 0.7585 0.7685 0.0
H498 H 0.83925 0.88321 0.84256 0.0
H499 H 0.86869 0.84051 0.88743 0.0
C500 C 0.72053 0.85364 0.7646 0.0
C501 C 0.7297 0.85312 0.72846 0.0
C502 C 0.75521 0.84849 0.78869 0.0
C503 C 0.7995 0.84232 0.77711 0.0
C504 C 0.81129 0.84624 0.74111 0.0
C505 C 0.77689 0.85197 0.71698 0.0
C506 C 0.84954 0.75371 0.81964 0.0
C507 C 0.86144 0.77543 0.8536 0.0
C508 C 0.83302 0.77796 0.79399 0.0
C509 C 0.82771 0.82408 0.80208 0.0
C510 C 0.84274 0.84758 0.83567 0.0
C511 C 0.85976 0.82351 0.8612 0.0
H512 H 0.02824 0.87928 0.21968 0.0
H513 H 0.13486 0.8525 0.15116 0.0
H514 H 0.95875 0.85017 0.17304 0.0
H515 H 0.06563 0.82288 0.10451 0.0
H516 H 0.9404 0.78756 0.02157 0.0
H517 H 0.01029 0.84797 0.064 0.0
H518 H 0.90021 0.75464 0.14862 0.0
H519 H 0.83064 0.69438 0.10644 0.0
C520 C 0.03719 0.86846 0.19426 0.0
C521 C 0.08622 0.86727 0.18889 0.0
C522 C 0.9975 0.85157 0.16772 0.0
C523 C 0.00661 0.8339 0.13523 0.0
C524 C 0.05757 0.83666 0.12915 0.0
C525 C 0.09695 0.85304 0.15583 0.0
C526 C 0.9305 0.78101 0.04921 0.0
C527 C 0.88026 0.73586 0.0607 0.0
C528 C 0.97066 0.81538 0.07347 0.0
C529 C 0.96091 0.80567 0.10958 0.0
C530 C 0.90884 0.76343 0.12097 0.0
C531 C 0.86903 0.72872 0.09679 0.0
H532 H 0.15814 0.02718 0.55864 0.0
H533 H 0.28102 0.13509 0.4844 0.0
H534 H 0.11482 0.95534 0.51354 0.0
H535 H 0.23846 0.06377 0.43914 0.0
H536 H 0.14366 0.93461 0.35974 0.0
H537 H 0.15442 0.00423 0.40247 0.0
H538 H 0.15219 0.89959 0.48628 0.0
H539 H 0.14143 0.83015 0.4438 0.0
C540 C 0.17476 0.03575 0.5323 0.0
C541 C 0.22275 0.086 0.52467 0.0
C542 C 0.15036 0.99481 0.50663 0.0
C543 C 0.17339 0.00386 0.47287 0.0
C544 C 0.21936 0.05577 0.46477 0.0
C545 C 0.24394 0.09642 0.49055 0.0
C546 C 0.14379 0.92575 0.38734 0.0
C547 C 0.14239 0.87716 0.39839 0.0
C548 C 0.1503 0.96579 0.41176 0.0
C549 C 0.15478 0.95761 0.44764 0.0
C550 C 0.14853 0.90698 0.45883 0.0
C551 C 0.14259 0.86724 0.43445 0.0
loop_
_geom_bond_atom_site_label_1
_geom_bond_atom_site_label_2
_geom_bond_distance
_geom_bond_site_symmetry_2
_ccdc_geom_bond_type
Zn0 O1 2.055 . S
Zn0 O8 2.046 1_554 S
Zn0 N16 2.036 . S
Zn0 O28 2.053 . S
Zn0 O30 2.066 . S
O1 Zn0 2.055 . S
O1 C4 1.259 1_554 S
C2 O30 1.256 . S
C2 O31 1.244 . S
Zn3 O5 2.046 . S
Zn3 O7 2.055 . S
Zn3 N9 2.036 . S
Zn3 O27 2.066 . S
Zn3 O31 2.053 1_556 S
C4 O1 1.259 1_556 S
C4 O5 1.254 . S
O5 Zn3 2.046 . S
O5 C4 1.254 . S
C6 O27 1.256 1_554 S
C6 O28 1.244 . S
O7 Zn3 2.055 . S
O7 C29 1.259 . S
O8 Zn0 2.046 1_556 S
O8 C29 1.254 . S
N9 Zn3 2.036 . S
N9 C10 1.298 . S
N9 N12 1.398 . S
C10 N9 1.298 . S
C10 N13 1.367 . S
C10 C23 1.481 . S
C11 N12 1.299 . S
C11 N13 1.379 . S
N12 N9 1.398 . S
N12 C11 1.299 . S
N13 C10 1.367 . S
N13 C11 1.379 . S
C14 N16 1.298 . S
C14 N18 1.367 . S
C14 C22 1.481 . S
C15 N17 1.299 . S
C15 N18 1.379 . S
N16 Zn0 2.036 . S
N16 C14 1.298 . S
N16 N17 1.398 . S
N17 C15 1.299 . S
N17 N16 1.398 . S
N18 C14 1.367 . S
N18 C15 1.379 . S
H19 C22 0.980 . S
H20 C22 0.981 . S
H21 C22 0.981 . S
C22 C14 1.481 . S
C22 H19 0.980 . S
C22 H20 0.981 . S
C22 H21 0.981 . S
C23 C10 1.481 . S
C23 H24 0.980 . S
C23 H25 0.981 . S
C23 H26 0.981 . S
H24 C23 0.980 . S
H25 C23 0.981 . S
H26 C23 0.981 . S
O27 Zn3 2.066 . S
O27 C6 1.256 1_556 S
O28 Zn0 2.053 . S
O28 C6 1.244 . S
C29 O7 1.259 . S
C29 O8 1.254 . S
O30 Zn0 2.066 . S
O30 C2 1.256 . S
O31 C2 1.244 . S
O31 Zn3 2.053 1_554 S
Zn32 O33 2.055 . S
Zn32 O40 2.046 . S
Zn32 N48 2.036 . S
Zn32 O60 2.053 . S
Zn32 O62 2.066 . S
O33 Zn32 2.055 . S
O33 C36 1.259 . S
C34 O62 1.256 . S
C34 O63 1.244 . S
Zn35 O37 2.046 . S
Zn35 O39 2.055 . S
Zn35 N41 2.036 . S
Zn35 O59 2.066 . S
Zn35 O63 2.053 . S
C36 O33 1.259 . S
C36 O37 1.254 . S
O37 Zn35 2.046 . S
O37 C36 1.254 . S
C38 O59 1.256 . S
C38 O60 1.244 . S
O39 Zn35 2.055 . S
O39 C61 1.259 . S
O40 Zn32 2.046 . S
O40 C61 1.254 . S
N41 Zn35 2.036 . S
N41 C42 1.298 . S
N41 N44 1.398 . S
C42 N41 1.298 . S
C42 N45 1.367 . S
C42 C55 1.481 . S
C43 N44 1.299 . S
C43 N45 1.379 . S
N44 N41 1.398 . S
N44 C43 1.299 . S
N45 C42 1.367 . S
N45 C43 1.379 . S
C46 N48 1.298 . S
C46 N50 1.367 . S
C46 C54 1.481 . S
C47 N49 1.299 . S
C47 N50 1.379 . S
N48 Zn32 2.036 . S
N48 C46 1.298 . S
N48 N49 1.398 . S
N49 C47 1.299 . S
N49 N48 1.398 . S
N50 C46 1.367 . S
N50 C47 1.379 . S
H51 C54 0.980 . S
H52 C54 0.981 . S
H53 C54 0.981 . S
C54 C46 1.481 . S
C54 H51 0.980 . S
C54 H52 0.981 . S
C54 H53 0.981 . S
C55 C42 1.481 . S
C55 H56 0.980 . S
C55 H57 0.981 . S
C55 H58 0.981 . S
H56 C55 0.980 . S
H57 C55 0.981 . S
H58 C55 0.981 . S
O59 Zn35 2.066 . S
O59 C38 1.256 . S
O60 Zn32 2.053 . S
O60 C38 1.244 . S
C61 O39 1.259 . S
C61 O40 1.254 . S
O62 Zn32 2.066 . S
O62 C34 1.256 . S
O63 C34 1.244 . S
O63 Zn35 2.053 . S
Zn64 O65 2.055 . S
Zn64 O72 2.046 . S
Zn64 N80 2.036 . S
Zn64 O92 2.053 . S
Zn64 O94 2.066 . S
O65 Zn64 2.055 . S
O65 C68 1.259 . S
C66 O94 1.256 . S
C66 O95 1.244 . S
Zn67 O69 2.046 . S
Zn67 O71 2.055 . S
Zn67 N73 2.036 . S
Zn67 O91 2.066 . S
Zn67 O95 2.053 . S
C68 O65 1.259 . S
C68 O69 1.254 . S
O69 Zn67 2.046 . S
O69 C68 1.254 . S
C70 O91 1.256 . S
C70 O92 1.244 . S
O71 Zn67 2.055 . S
O71 C93 1.259 . S
O72 Zn64 2.046 . S
O72 C93 1.254 . S
N73 Zn67 2.036 . S
N73 C74 1.298 . S
N73 N76 1.398 . S
C74 N73 1.298 . S
C74 N77 1.367 . S
C74 C87 1.481 . S
C75 N76 1.299 . S
C75 N77 1.379 . S
N76 N73 1.398 . S
N76 C75 1.299 . S
N77 C74 1.367 . S
N77 C75 1.379 . S
C78 N80 1.298 . S
C78 N82 1.367 . S
C78 C86 1.481 . S
C79 N81 1.299 . S
C79 N82 1.379 . S
N80 Zn64 2.036 . S
N80 C78 1.298 . S
N80 N81 1.398 . S
N81 C79 1.299 . S
N81 N80 1.398 . S
N82 C78 1.367 . S
N82 C79 1.379 . S
H83 C86 0.980 . S
H84 C86 0.981 . S
H85 C86 0.981 . S
C86 C78 1.481 . S
C86 H83 0.980 . S
C86 H84 0.981 . S
C86 H85 0.981 . S
C87 C74 1.481 . S
C87 H88 0.980 . S
C87 H89 0.981 . S
C87 H90 0.981 . S
H88 C87 0.980 . S
H89 C87 0.981 . S
H90 C87 0.981 . S
O91 Zn67 2.066 . S
O91 C70 1.256 . S
O92 Zn64 2.053 . S
O92 C70 1.244 . S
C93 O71 1.259 . S
C93 O72 1.254 . S
O94 Zn64 2.066 . S
O94 C66 1.256 . S
O95 C66 1.244 . S
O95 Zn67 2.053 . S
Zn96 O97 2.055 . S
Zn96 O104 2.046 1_554 S
Zn96 N112 2.036 . S
Zn96 O124 2.053 . S
Zn96 O126 2.066 . S
O97 Zn96 2.055 . S
O97 C100 1.259 1_554 S
C98 O126 1.256 . S
C98 O127 1.244 . S
Zn99 O101 2.046 . S
Zn99 O103 2.055 . S
Zn99 N105 2.036 . S
Zn99 O123 2.066 . S
Zn99 O127 2.053 1_556 S
C100 O97 1.259 1_556 S
C100 O101 1.254 . S
O101 Zn99 2.046 . S
O101 C100 1.254 . S
C102 O123 1.256 1_554 S
C102 O124 1.244 . S
O103 Zn99 2.055 . S
O103 C125 1.259 . S
O104 Zn96 2.046 1_556 S
O104 C125 1.254 . S
N105 Zn99 2.036 . S
N105 C106 1.298 . S
N105 N108 1.398 . S
C106 N105 1.298 . S
C106 N109 1.367 . S
C106 C119 1.481 . S
C107 N108 1.299 . S
C107 N109 1.379 . S
N108 N105 1.398 . S
N108 C107 1.299 . S
N109 C106 1.367 . S
N109 C107 1.379 . S
C110 N112 1.298 . S
C110 N114 1.367 . S
C110 C118 1.481 . S
C111 N113 1.299 . S
C111 N114 1.379 . S
N112 Zn96 2.036 . S
N112 C110 1.298 . S
N112 N113 1.398 . S
N113 C111 1.299 . S
N113 N112 1.398 . S
N114 C110 1.367 . S
N114 C111 1.379 . S
H115 C118 0.980 . S
H116 C118 0.981 . S
H117 C118 0.981 . S
C118 C110 1.481 . S
C118 H115 0.980 . S
C118 H116 0.981 . S
C118 H117 0.981 . S
C119 C106 1.481 . S
C119 H120 0.980 . S
C119 H121 0.981 . S
C119 H122 0.981 . S
H120 C119 0.980 . S
H121 C119 0.981 . S
H122 C119 0.981 . S
O123 Zn99 2.066 . S
O123 C102 1.256 1_556 S
O124 Zn96 2.053 . S
O124 C102 1.244 . S
C125 O103 1.259 . S
C125 O104 1.254 . S
O126 Zn96 2.066 . S
O126 C98 1.256 . S
O127 C98 1.244 . S
O127 Zn99 2.053 1_554 S
Zn128 O129 2.055 . S
Zn128 O136 2.046 . S
Zn128 N144 2.036 . S
Zn128 O156 2.053 . S
Zn128 O158 2.066 . S
O129 Zn128 2.055 . S
O129 C132 1.259 . S
C130 O158 1.256 . S
C130 O159 1.244 . S
Zn131 O133 2.046 . S
Zn131 O135 2.055 . S
Zn131 N137 2.036 . S
Zn131 O155 2.066 . S
Zn131 O159 2.053 . S
C132 O129 1.259 . S
C132 O133 1.254 . S
O133 Zn131 2.046 . S
O133 C132 1.254 . S
C134 O155 1.256 . S
C134 O156 1.244 . S
O135 Zn131 2.055 . S
O135 C157 1.259 . S
O136 Zn128 2.046 . S
O136 C157 1.254 . S
N137 Zn131 2.036 . S
N137 C138 1.298 . S
N137 N140 1.398 . S
C138 N137 1.298 . S
C138 N141 1.367 . S
C138 C151 1.481 . S
C139 N140 1.299 . S
C139 N141 1.379 . S
N140 N137 1.398 . S
N140 C139 1.299 . S
N141 C138 1.367 . S
N141 C139 1.379 . S
C142 N144 1.298 . S
C142 N146 1.367 . S
C142 C150 1.481 . S
C143 N145 1.299 . S
C143 N146 1.379 . S
N144 Zn128 2.036 . S
N144 C142 1.298 . S
N144 N145 1.398 . S
N145 C143 1.299 . S
N145 N144 1.398 . S
N146 C142 1.367 . S
N146 C143 1.379 . S
H147 C150 0.980 . S
H148 C150 0.981 . S
H149 C150 0.981 . S
C150 C142 1.481 . S
C150 H147 0.980 . S
C150 H148 0.981 . S
C150 H149 0.981 . S
C151 C138 1.481 . S
C151 H152 0.980 . S
C151 H153 0.981 . S
C151 H154 0.981 . S
H152 C151 0.980 . S
H153 C151 0.981 . S
H154 C151 0.981 . S
O155 Zn131 2.066 . S
O155 C134 1.256 . S
O156 Zn128 2.053 . S
O156 C134 1.244 . S
C157 O135 1.259 . S
C157 O136 1.254 . S
O158 Zn128 2.066 . S
O158 C130 1.256 . S
O159 C130 1.244 . S
O159 Zn131 2.053 . S
Zn160 O161 2.055 . S
Zn160 O168 2.046 . S
Zn160 N176 2.036 . S
Zn160 O188 2.053 . S
Zn160 O190 2.066 . S
O161 Zn160 2.055 . S
O161 C164 1.259 . S
C162 O190 1.256 . S
C162 O191 1.244 . S
Zn163 O165 2.046 . S
Zn163 O167 2.055 . S
Zn163 N169 2.036 . S
Zn163 O187 2.066 . S
Zn163 O191 2.053 . S
C164 O161 1.259 . S
C164 O165 1.254 . S
O165 Zn163 2.046 . S
O165 C164 1.254 . S
C166 O187 1.256 . S
C166 O188 1.244 . S
O167 Zn163 2.055 . S
O167 C189 1.259 . S
O168 Zn160 2.046 . S
O168 C189 1.254 . S
N169 Zn163 2.036 . S
N169 C170 1.298 . S
N169 N172 1.398 . S
C170 N169 1.298 . S
C170 N173 1.367 . S
C170 C183 1.481 . S
C171 N172 1.299 . S
C171 N173 1.379 . S
N172 N169 1.398 . S
N172 C171 1.299 . S
N173 C170 1.367 . S
N173 C171 1.379 . S
C174 N176 1.298 . S
C174 N178 1.367 . S
C174 C182 1.481 . S
C175 N177 1.299 . S
C175 N178 1.379 . S
N176 Zn160 2.036 . S
N176 C174 1.298 . S
N176 N177 1.398 . S
N177 C175 1.299 . S
N177 N176 1.398 . S
N178 C174 1.367 . S
N178 C175 1.379 . S
H179 C182 0.980 . S
H180 C182 0.981 . S
H181 C182 0.981 . S
C182 C174 1.481 . S
C182 H179 0.980 . S
C182 H180 0.981 . S
C182 H181 0.981 . S
C183 C170 1.481 . S
C183 H184 0.980 . S
C183 H185 0.981 . S
C183 H186 0.981 . S
H184 C183 0.980 . S
H185 C183 0.981 . S
H186 C183 0.981 . S
O187 Zn163 2.066 . S
O187 C166 1.256 . S
O188 Zn160 2.053 . S
O188 C166 1.244 . S
C189 O167 1.259 . S
C189 O168 1.254 . S
O190 Zn160 2.066 . S
O190 C162 1.256 . S
O191 C162 1.244 . S
O191 Zn163 2.053 . S
H192 C200 0.950 . S
H193 C205 0.950 . S
H194 C202 0.950 . S
H195 C204 0.950 . S
H196 C206 0.950 . S
H197 C208 0.950 . S
H198 C210 0.950 . S
H199 C211 0.950 . S
C200 H192 0.950 . S
C200 C201 1.386 . S
C200 C202 1.391 . S
C201 C200 1.386 . S
C201 C205 1.393 . S
C202 H194 0.950 . S
C202 C200 1.391 . S
C202 C203 1.400 . S
C203 C202 1.400 . S
C203 C204 1.398 . S
C203 C209 1.491 . S
C204 H195 0.950 . S
C204 C203 1.398 . S
C204 C205 1.391 . S
C205 H193 0.950 . S
C205 C201 1.393 . S
C205 C204 1.391 . S
C206 H196 0.950 . S
C206 C207 1.386 . S
C206 C208 1.391 . S
C207 C206 1.386 . S
C207 C211 1.393 . S
C208 H197 0.950 . S
C208 C206 1.391 . S
C208 C209 1.400 . S
C209 C203 1.491 . S
C209 C208 1.400 . S
C209 C210 1.398 . S
C210 H198 0.950 . S
C210 C209 1.398 . S
C210 C211 1.391 . S
C211 H199 0.950 . S
C211 C207 1.393 . S
C211 C210 1.391 . S
H212 C220 0.950 . S
H213 C225 0.950 . S
H214 C222 0.950 . S
H215 C224 0.950 . S
H216 C226 0.950 . S
H217 C228 0.950 . S
H218 C230 0.950 . S
H219 C231 0.950 . S
C220 H212 0.950 . S
C220 C221 1.386 . S
C220 C222 1.391 . S
C221 C220 1.386 . S
C221 C225 1.393 . S
C222 H214 0.950 . S
C222 C220 1.391 . S
C222 C223 1.400 . S
C223 C222 1.400 . S
C223 C224 1.398 . S
C223 C229 1.491 . S
C224 H215 0.950 . S
C224 C223 1.398 . S
C224 C225 1.391 . S
C225 H213 0.950 . S
C225 C221 1.393 . S
C225 C224 1.391 . S
C226 H216 0.950 . S
C226 C227 1.386 . S
C226 C228 1.391 . S
C227 C226 1.386 . S
C227 C231 1.393 . S
C228 H217 0.950 . S
C228 C226 1.391 . S
C228 C229 1.400 . S
C229 C223 1.491 . S
C229 C228 1.400 . S
C229 C230 1.398 . S
C230 H218 0.950 . S
C230 C229 1.398 . S
C230 C231 1.391 . S
C231 H219 0.950 . S
C231 C227 1.393 . S
C231 C230 1.391 . S
H232 C240 0.950 . S
H233 C245 0.950 . S
H234 C242 0.950 . S
H235 C244 0.950 . S
H236 C246 0.950 . S
H237 C248 0.950 . S
H238 C250 0.950 . S
H239 C251 0.950 . S
C240 H232 0.950 . S
C240 C241 1.386 . S
C240 C242 1.391 . S
C241 C240 1.386 . S
C241 C245 1.393 . S
C242 H234 0.950 . S
C242 C240 1.391 . S
C242 C243 1.400 . S
C243 C242 1.400 . S
C243 C244 1.398 . S
C243 C249 1.491 . S
C244 H235 0.950 . S
C244 C243 1.398 . S
C244 C245 1.391 . S
C245 H233 0.950 . S
C245 C241 1.393 . S
C245 C244 1.391 . S
C246 H236 0.950 . S
C246 C247 1.386 . S
C246 C248 1.391 . S
C247 C246 1.386 . S
C247 C251 1.393 . S
C248 H237 0.950 . S
C248 C246 1.391 . S
C248 C249 1.400 . S
C249 C243 1.491 . S
C249 C248 1.400 . S
C249 C250 1.398 . S
C250 H238 0.950 . S
C250 C249 1.398 . S
C250 C251 1.391 . S
C251 H239 0.950 . S
C251 C247 1.393 . S
C251 C250 1.391 . S
H252 C260 0.950 . S
H253 C265 0.950 . S
H254 C262 0.950 . S
H255 C264 0.950 . S
H256 C266 0.950 . S
H257 C268 0.950 . S
H258 C270 0.950 . S
H259 C271 0.950 . S
C260 H252 0.950 . S
C260 C261 1.386 . S
C260 C262 1.391 . S
C261 C260 1.386 . S
C261 C265 1.393 . S
C262 H254 0.950 . S
C262 C260 1.391 . S
C262 C263 1.400 . S
C263 C262 1.400 . S
C263 C264 1.398 . S
C263 C269 1.491 . S
C264 H255 0.950 . S
C264 C263 1.398 . S
C264 C265 1.391 . S
C265 H253 0.950 . S
C265 C261 1.393 . S
C265 C264 1.391 . S
C266 H256 0.950 . S
C266 C267 1.386 . S
C266 C268 1.391 . S
C267 C266 1.386 . S
C267 C271 1.393 . S
C268 H257 0.950 . S
C268 C266 1.391 . S
C268 C269 1.400 . S
C269 C263 1.491 . S
C269 C268 1.400 . S
C269 C270 1.398 . S
C270 H258 0.950 . S
C270 C269 1.398 . S
C270 C271 1.391 . S
C271 H259 0.950 . S
C271 C267 1.393 . S
C271 C270 1.391 . S
H272 C280 0.950 . S
H273 C285 0.950 . S
H274 C282 0.950 . S
H275 C284 0.950 . S
H276 C286 0.950 . S
H277 C288 0.950 . S
H278 C290 0.950 . S
H279 C291 0.950 . S
C280 H272 0.950 . S
C280 C281 1.386 . S
C280 C282 1.391 . S
C281 C280 1.386 . S
C281 C285 1.393 . S
C282 H274 0.950 . S
C282 C280 1.391 . S
C282 C283 1.400 . S
C283 C282 1.400 . S
C283 C284 1.398 . S
C283 C289 1.491 . S
C284 H275 0.950 . S
C284 C283 1.398 . S
C284 C285 1.391 . S
C285 H273 0.950 . S
C285 C281 1.393 . S
C285 C284 1.391 . S
C286 H276 0.950 . S
C286 C287 1.386 . S
C286 C288 1.391 . S
C287 C286 1.386 . S
C287 C291 1.393 . S
C288 H277 0.950 . S
C288 C286 1.391 . S
C288 C289 1.400 . S
C289 C283 1.491 . S
C289 C288 1.400 . S
C289 C290 1.398 . S
C290 H278 0.950 . S
C290 C289 1.398 . S
C290 C291 1.391 . S
C291 H279 0.950 . S
C291 C287 1.393 . S
C291 C290 1.391 . S
H292 C300 0.950 . S
H293 C305 0.950 . S
H294 C302 0.950 . S
H295 C304 0.950 . S
H296 C306 0.950 . S
H297 C308 0.950 . S
H298 C310 0.950 . S
H299 C311 0.950 . S
C300 H292 0.950 . S
C300 C301 1.386 . S
C300 C302 1.391 . S
C301 C300 1.386 . S
C301 C305 1.393 . S
C302 H294 0.950 . S
C302 C300 1.391 . S
C302 C303 1.400 . S
C303 C302 1.400 . S
C303 C304 1.398 . S
C303 C309 1.491 . S
C304 H295 0.950 . S
C304 C303 1.398 . S
C304 C305 1.391 . S
C305 H293 0.950 . S
C305 C301 1.393 . S
C305 C304 1.391 . S
C306 H296 0.950 . S
C306 C307 1.386 . S
C306 C308 1.391 . S
C307 C306 1.386 . S
C307 C311 1.393 . S
C308 H297 0.950 . S
C308 C306 1.391 . S
C308 C309 1.400 . S
C309 C303 1.491 . S
C309 C308 1.400 . S
C309 C310 1.398 . S
C310 H298 0.950 . S
C310 C309 1.398 . S
C310 C311 1.391 . S
C311 H299 0.950 . S
C311 C307 1.393 . S
C311 C310 1.391 . S
H312 C320 0.950 . S
H313 C325 0.950 . S
H314 C322 0.950 . S
H315 C324 0.950 . S
H316 C326 0.950 . S
H317 C328 0.950 . S
H318 C330 0.950 . S
H319 C331 0.950 . S
C320 H312 0.950 . S
C320 C321 1.386 1_556 S
C320 C322 1.391 . S
C321 C320 1.386 1_554 S
C321 C325 1.393 . S
C322 H314 0.950 . S
C322 C320 1.391 . S
C322 C323 1.400 1_556 S
C323 C322 1.400 1_554 S
C323 C324 1.398 . S
C323 C329 1.491 . S
C324 H315 0.950 . S
C324 C323 1.398 . S
C324 C325 1.391 . S
C325 H313 0.950 . S
C325 C321 1.393 . S
C325 C324 1.391 . S
C326 H316 0.950 . S
C326 C327 1.386 . S
C326 C328 1.391 . S
C327 C326 1.386 . S
C327 C331 1.393 1_554 S
C328 H317 0.950 . S
C328 C326 1.391 . S
C328 C329 1.400 . S
C329 C323 1.491 . S
C329 C328 1.400 . S
C329 C330 1.398 1_554 S
C330 H318 0.950 . S
C330 C329 1.398 1_556 S
C330 C331 1.391 . S
C331 H319 0.950 . S
C331 C327 1.393 1_556 S
C331 C330 1.391 . S
H332 C340 0.948 1_655 S
H333 C345 0.950 . S
H334 C342 0.950 . S
H335 C344 0.950 . S
H336 C346 0.948 1_455 S
H337 C348 0.950 . S
H338 C350 0.950 . S
H339 C351 0.950 . S
C340 H332 0.948 1_455 S
C340 C341 1.386 . S
C340 C342 1.391 1_455 S
C341 C340 1.386 . S
C341 C345 1.393 . S
C342 H334 0.950 . S
C342 C340 1.391 1_655 S
C342 C343 1.400 1_655 S
C343 C342 1.400 1_455 S
C343 C344 1.398 . S
C343 C349 1.491 1_455 S
C344 H335 0.950 . S
C344 C343 1.398 . S
C344 C345 1.391 . S
C345 H333 0.950 . S
C345 C341 1.393 . S
C345 C344 1.391 . S
C346 H336 0.948 1_655 S
C346 C347 1.386 . S
C346 C348 1.391 1_655 S
C347 C346 1.386 . S
C347 C351 1.393 . S
C348 H337 0.950 . S
C348 C346 1.391 1_455 S
C348 C349 1.400 1_455 S
C349 C343 1.491 1_655 S
C349 C348 1.400 1_655 S
C349 C350 1.398 . S
C350 H338 0.950 . S
C350 C349 1.398 . S
C350 C351 1.391 . S
C351 H339 0.950 . S
C351 C347 1.393 . S
C351 C350 1.391 . S
H352 C360 0.950 . S
H353 C365 0.950 . S
H354 C362 0.950 1_565 S
H355 C364 0.950 . S
H356 C366 0.950 . S
H357 C368 0.950 1_545 S
H358 C370 0.950 . S
H359 C371 0.950 . S
C360 H352 0.950 . S
C360 C361 1.386 . S
C360 C362 1.391 . S
C361 C360 1.386 . S
C361 C365 1.393 . S
C362 H354 0.950 1_545 S
C362 C360 1.391 . S
C362 C363 1.400 . S
C363 C362 1.400 . S
C363 C364 1.398 . S
C363 C369 1.491 1_545 S
C364 H355 0.950 . S
C364 C363 1.398 . S
C364 C365 1.391 . S
C365 H353 0.950 . S
C365 C361 1.393 . S
C365 C364 1.391 . S
C366 H356 0.950 . S
C366 C367 1.386 . S
C366 C368 1.391 . S
C367 C366 1.386 . S
C367 C371 1.393 . S
C368 H357 0.950 1_565 S
C368 C366 1.391 . S
C368 C369 1.400 . S
C369 C363 1.491 1_565 S
C369 C368 1.400 . S
C369 C370 1.398 . S
C370 H358 0.950 . S
C370 C369 1.398 . S
C370 C371 1.391 . S
C371 H359 0.950 . S
C371 C367 1.393 . S
C371 C370 1.391 . S
H372 C380 0.950 . S
H373 C385 0.950 . S
H374 C382 0.950 . S
H375 C384 0.950 . S
H376 C386 0.950 . S
H377 C388 0.950 . S
H378 C390 0.950 . S
H379 C391 0.950 . S
C380 H372 0.950 . S
C380 C381 1.386 . S
C380 C382 1.391 . S
C381 C380 1.386 . S
C381 C385 1.393 . S
C382 H374 0.950 . S
C382 C380 1.391 . S
C382 C383 1.400 . S
C383 C382 1.400 . S
C383 C384 1.398 . S
C383 C389 1.491 . S
C384 H375 0.950 . S
C384 C383 1.398 . S
C384 C385 1.391 . S
C385 H373 0.950 . S
C385 C381 1.393 . S
C385 C384 1.391 . S
C386 H376 0.950 . S
C386 C387 1.386 . S
C386 C388 1.391 . S
C387 C386 1.386 . S
C387 C391 1.393 . S
C388 H377 0.950 . S
C388 C386 1.391 . S
C388 C389 1.400 . S
C389 C383 1.491 . S
C389 C388 1.400 . S
C389 C390 1.398 . S
C390 H378 0.950 . S
C390 C389 1.398 . S
C390 C391 1.391 . S
C391 H379 0.950 . S
C391 C387 1.393 . S
C391 C390 1.391 . S
H392 C400 0.950 . S
H393 C405 0.950 . S
H394 C402 0.950 . S
H395 C404 0.951 1_655 S
H396 C406 0.950 . S
H397 C408 0.950 . S
H398 C410 0.951 1_455 S
H399 C411 0.950 . S
C400 H392 0.950 . S
C400 C401 1.386 1_554 S
C400 C402 1.391 . S
C401 C400 1.386 1_556 S
C401 C405 1.393 . S
C402 H394 0.950 . S
C402 C400 1.391 . S
C402 C403 1.400 1_554 S
C403 C402 1.400 1_556 S
C403 C404 1.398 . S
C403 C409 1.491 1_455 S
C404 H395 0.951 1_455 S
C404 C403 1.398 . S
C404 C405 1.391 . S
C405 H393 0.950 . S
C405 C401 1.393 . S
C405 C404 1.391 . S
C406 H396 0.950 . S
C406 C407 1.386 . S
C406 C408 1.391 . S
C407 C406 1.386 . S
C407 C411 1.393 1_556 S
C408 H397 0.950 . S
C408 C406 1.391 . S
C408 C409 1.400 . S
C409 C403 1.491 1_655 S
C409 C408 1.400 . S
C409 C410 1.398 1_556 S
C410 H398 0.951 1_655 S
C410 C409 1.398 1_554 S
C410 C411 1.391 . S
C411 H399 0.950 . S
C411 C407 1.393 1_554 S
C411 C410 1.391 . S
H412 C420 0.950 . S
H413 C425 0.950 1_545 S
H414 C422 0.950 . S
H415 C424 0.950 . S
H416 C426 0.950 . S
H417 C428 0.950 . S
H418 C430 0.950 . S
H419 C431 0.950 1_565 S
C420 H412 0.950 . S
C420 C421 1.386 . S
C420 C422 1.391 . S
C421 C420 1.386 . S
C421 C425 1.393 . S
C422 H414 0.950 . S
C422 C420 1.391 . S
C422 C423 1.400 . S
C423 C422 1.400 . S
C423 C424 1.398 1_565 S
C423 C429 1.491 1_565 S
C424 H415 0.950 . S
C424 C423 1.398 1_545 S
C424 C425 1.391 1_545 S
C425 H413 0.950 1_565 S
C425 C421 1.393 . S
C425 C424 1.391 1_565 S
C426 H416 0.950 . S
C426 C427 1.386 . S
C426 C428 1.391 . S
C427 C426 1.386 . S
C427 C431 1.393 . S
C428 H417 0.950 . S
C428 C426 1.391 . S
C428 C429 1.400 . S
C429 C423 1.491 1_545 S
C429 C428 1.400 . S
C429 C430 1.398 1_545 S
C430 H418 0.950 . S
C430 C429 1.398 1_565 S
C430 C431 1.391 1_565 S
C431 H419 0.950 1_545 S
C431 C427 1.393 . S
C431 C430 1.391 1_545 S
H432 C440 0.950 . S
H433 C445 0.950 . S
H434 C442 0.950 . S
H435 C444 0.950 . S
H436 C446 0.950 . S
H437 C448 0.950 . S
H438 C450 0.950 . S
H439 C451 0.950 . S
C440 H432 0.950 . S
C440 C441 1.386 . S
C440 C442 1.391 . S
C441 C440 1.386 . S
C441 C445 1.393 . S
C442 H434 0.950 . S
C442 C440 1.391 . S
C442 C443 1.400 . S
C443 C442 1.400 . S
C443 C444 1.398 . S
C443 C449 1.491 . S
C444 H435 0.950 . S
C444 C443 1.398 . S
C444 C445 1.391 . S
C445 H433 0.950 . S
C445 C441 1.393 . S
C445 C444 1.391 . S
C446 H436 0.950 . S
C446 C447 1.386 . S
C446 C448 1.391 . S
C447 C446 1.386 . S
C447 C451 1.393 . S
C448 H437 0.950 . S
C448 C446 1.391 . S
C448 C449 1.400 . S
C449 C443 1.491 . S
C449 C448 1.400 . S
C449 C450 1.398 . S
C450 H438 0.950 . S
C450 C449 1.398 . S
C450 C451 1.391 . S
C451 H439 0.950 . S
C451 C447 1.393 . S
C451 C450 1.391 . S
H452 C460 0.950 . S
H453 C465 0.950 . S
H454 C462 0.950 . S
H455 C464 0.950 . S
H456 C466 0.950 . S
H457 C468 0.950 . S
H458 C470 0.950 . S
H459 C471 0.950 . S
C460 H452 0.950 . S
C460 C461 1.386 . S
C460 C462 1.391 . S
C461 C460 1.386 . S
C461 C465 1.393 . S
C462 H454 0.950 . S
C462 C460 1.391 . S
C462 C463 1.400 1_655 S
C463 C462 1.400 1_455 S
C463 C464 1.398 . S
C463 C469 1.491 . S
C464 H455 0.950 . S
C464 C463 1.398 . S
C464 C465 1.391 1_455 S
C465 H453 0.950 . S
C465 C461 1.393 . S
C465 C464 1.391 1_655 S
C466 H456 0.950 . S
C466 C467 1.386 . S
C466 C468 1.391 . S
C467 C466 1.386 . S
C467 C471 1.393 . S
C468 H457 0.950 . S
C468 C466 1.391 . S
C468 C469 1.400 . S
C469 C463 1.491 . S
C469 C468 1.400 . S
C469 C470 1.398 . S
C470 H458 0.950 . S
C470 C469 1.398 . S
C470 C471 1.391 . S
C471 H459 0.950 . S
C471 C467 1.393 . S
C471 C470 1.391 . S
H472 C480 0.950 . S
H473 C485 0.950 . S
H474 C482 0.950 . S
H475 C484 0.950 . S
H476 C486 0.950 . S
H477 C488 0.950 . S
H478 C490 0.950 . S
H479 C491 0.950 . S
C480 H472 0.950 . S
C480 C481 1.386 1_545 S
C480 C482 1.391 . S
C481 C480 1.386 1_565 S
C481 C485 1.393 . S
C482 H474 0.950 . S
C482 C480 1.391 . S
C482 C483 1.400 . S
C483 C482 1.400 . S
C483 C484 1.398 1_545 S
C483 C489 1.491 . S
C484 H475 0.950 . S
C484 C483 1.398 1_565 S
C484 C485 1.391 . S
C485 H473 0.950 . S
C485 C481 1.393 . S
C485 C484 1.391 . S
C486 H476 0.950 . S
C486 C487 1.386 . S
C486 C488 1.391 . S
C487 C486 1.386 . S
C487 C491 1.393 . S
C488 H477 0.950 . S
C488 C486 1.391 . S
C488 C489 1.400 . S
C489 C483 1.491 . S
C489 C488 1.400 . S
C489 C490 1.398 . S
C490 H478 0.950 . S
C490 C489 1.398 . S
C490 C491 1.391 . S
C491 H479 0.950 . S
C491 C487 1.393 . S
C491 C490 1.391 . S
H492 C500 0.950 . S
H493 C505 0.950 . S
H494 C502 0.950 . S
H495 C504 0.950 . S
H496 C506 0.950 . S
H497 C508 0.950 . S
H498 C510 0.950 . S
H499 C511 0.950 . S
C500 H492 0.950 . S
C500 C501 1.386 . S
C500 C502 1.391 . S
C501 C500 1.386 . S
C501 C505 1.393 . S
C502 H494 0.950 . S
C502 C500 1.391 . S
C502 C503 1.400 . S
C503 C502 1.400 . S
C503 C504 1.398 . S
C503 C509 1.491 . S
C504 H495 0.950 . S
C504 C503 1.398 . S
C504 C505 1.391 . S
C505 H493 0.950 . S
C505 C501 1.393 . S
C505 C504 1.391 . S
C506 H496 0.950 . S
C506 C507 1.386 . S
C506 C508 1.391 . S
C507 C506 1.386 . S
C507 C511 1.393 . S
C508 H497 0.950 . S
C508 C506 1.391 . S
C508 C509 1.400 . S
C509 C503 1.491 . S
C509 C508 1.400 . S
C509 C510 1.398 . S
C510 H498 0.950 . S
C510 C509 1.398 . S
C510 C511 1.391 . S
C511 H499 0.950 . S
C511 C507 1.393 . S
C511 C510 1.391 . S
H512 C520 0.950 . S
H513 C525 0.950 . S
H514 C522 0.944 . S
H515 C524 0.950 . S
H516 C526 0.950 . S
H517 C528 0.950 . S
H518 C530 0.950 . S
H519 C531 0.950 . S
C520 H512 0.950 . S
C520 C521 1.386 . S
C520 C522 1.391 . S
C521 C520 1.386 . S
C521 C525 1.393 . S
C522 H514 0.944 . S
C522 C520 1.391 . S
C522 C523 1.400 1_455 S
C523 C522 1.400 1_655 S
C523 C524 1.398 . S
C523 C529 1.491 . S
C524 H515 0.950 . S
C524 C523 1.398 . S
C524 C525 1.391 1_655 S
C525 H513 0.950 . S
C525 C521 1.393 . S
C525 C524 1.391 1_455 S
C526 H516 0.950 . S
C526 C527 1.386 . S
C526 C528 1.391 . S
C527 C526 1.386 . S
C527 C531 1.393 . S
C528 H517 0.950 . S
C528 C526 1.391 . S
C528 C529 1.400 . S
C529 C523 1.491 . S
C529 C528 1.400 . S
C529 C530 1.398 . S
C530 H518 0.950 . S
C530 C529 1.398 . S
C530 C531 1.391 . S
C531 H519 0.950 . S
C531 C527 1.393 . S
C531 C530 1.391 . S
H532 C540 0.950 . S
H533 C545 0.950 . S
H534 C542 0.950 . S
H535 C544 0.950 . S
H536 C546 0.950 . S
H537 C548 0.950 . S
H538 C550 0.950 . S
H539 C551 0.950 . S
C540 H532 0.950 . S
C540 C541 1.386 1_565 S
C540 C542 1.391 . S
C541 C540 1.386 1_545 S
C541 C545 1.393 . S
C542 H534 0.950 . S
C542 C540 1.391 . S
C542 C543 1.400 . S
C543 C542 1.400 . S
C543 C544 1.398 1_565 S
C543 C549 1.491 . S
C544 H535 0.950 . S
C544 C543 1.398 1_545 S
C544 C545 1.391 . S
C545 H533 0.950 . S
C545 C541 1.393 . S
C545 C544 1.391 . S
C546 H536 0.950 . S
C546 C547 1.386 . S
C546 C548 1.391 . S
C547 C546 1.386 . S
C547 C551 1.393 . S
C548 H537 0.950 . S
C548 C546 1.391 . S
C548 C549 1.400 . S
C549 C543 1.491 . S
C549 C548 1.400 . S
C549 C550 1.398 . S
C550 H538 0.950 . S
C550 C549 1.398 . S
C550 C551 1.391 . S
C551 H539 0.950 . S
C551 C547 1.393 . S
C551 C550 1.391 . S
C201 C157 0.668 . S
C207 N18 0.694 . S
C221 C164 0.668 . S
C227 N45 0.688 . S
C241 C29 0.668 . S
C247 N82 0.688 . S
C261 C36 0.691 . S
C267 N114 0.668 . S
C281 C93 0.676 . S
C287 N146 0.674 . S
C301 C125 0.671 . S
C307 N173 0.681 . S
C321 C6 1.548 . S
C327 C102 1.553 . S
C341 C134 1.560 . S
C347 C34 1.567 . S
C361 C162 1.548 . S
C367 C70 1.552 . S
C381 C68 1.505 . S
C387 C189 1.503 . S
C401 C4 1.478 . S
C407 C100 1.476 . S
C421 C132 1.501 . S
C427 C61 1.498 . S
C441 C166 0.922 . S
C447 N13 0.925 . S
C461 N50 0.900 . S
C467 C2 0.918 . S
C481 N77 0.912 . S
C487 C38 0.905 . S
C501 C66 0.926 . S
C507 N109 0.920 . S
C521 N141 0.924 . S
C527 C98 0.924 . S
C541 N178 0.927 . S
C547 C130 0.913 . S
