# Generated by pormake.
# Topology acs-a, (4)-cn, num edge types: 1
# Building blocks:
#     Node 0, Type 0, BuildingBlock: NAHDIM_clean_sbu_0, # of connection points: 4
#     Node 1, Type 0, BuildingBlock: NAHDIM_clean_sbu_0, # of connection points: 4
#     Node 2, Type 0, BuildingBlock: NAHDIM_clean_sbu_0, # of connection points: 4
#     Node 3, Type 0, BuildingBlock: NAHDIM_clean_sbu_0, # of connection points: 4
#     Node 4, Type 0, BuildingBlock: NAHDIM_clean_sbu_0, # of connection points: 4
#     Node 5, Type 0, BuildingBlock: NAHDIM_clean_sbu_0, # of connection points: 4
#     Node 6, Type 0, BuildingBlock: NAHDIM_clean_sbu_0, # of connection points: 4
#     Node 7, Type 0, BuildingBlock: NAHDIM_clean_sbu_0, # of connection points: 4
#     Node 8, Type 0, BuildingBlock: NAHDIM_clean_sbu_0, # of connection points: 4
#     Node 9, Type 0, BuildingBlock: NAHDIM_clean_sbu_0, # of connection points: 4
#     Node 10, Type 0, BuildingBlock: NAHDIM_clean_sbu_0, # of connection points: 4
#     Node 11, Type 0, BuildingBlock: NAHDIM_clean_sbu_0, # of connection points: 4
#     Edge 12, Type (0, 0), BuildingBlock: AJUNOK_clean_linker_0, # of connection points: 2
#     Edge 13, Type (0, 0), BuildingBlock: AJUNOK_clean_linker_0, # of connection points: 2
#     Edge 14, Type (0, 0), BuildingBlock: AJUNOK_clean_linker_0, # of connection points: 2
#     Edge 15, Type (0, 0), BuildingBlock: AJUNOK_clean_linker_0, # of connection points: 2
#     Edge 16, Type (0, 0), BuildingBlock: AJUNOK_clean_linker_0, # of connection points: 2
#     Edge 17, Type (0, 0), BuildingBlock: AJUNOK_clean_linker_0, # of connection points: 2
#     Edge 18, Type (0, 0), BuildingBlock: AJUNOK_clean_linker_0, # of connection points: 2
#     Edge 19, Type (0, 0), BuildingBlock: AJUNOK_clean_linker_0, # of connection points: 2
#     Edge 20, Type (0, 0), BuildingBlock: AJUNOK_clean_linker_0, # of connection points: 2
#     Edge 21, Type (0, 0), BuildingBlock: AJUNOK_clean_linker_0, # of connection points: 2
#     Edge 22, Type (0, 0), BuildingBlock: AJUNOK_clean_linker_0, # of connection points: 2
#     Edge 23, Type (0, 0), BuildingBlock: AJUNOK_clean_linker_0, # of connection points: 2
#     Edge 24, Type (0, 0), BuildingBlock: AJUNOK_clean_linker_0, # of connection points: 2
#     Edge 25, Type (0, 0), BuildingBlock: AJUNOK_clean_linker_0, # of connection points: 2
#     Edge 26, Type (0, 0), BuildingBlock: AJUNOK_clean_linker_0, # of connection points: 2
#     Edge 27, Type (0, 0), BuildingBlock: AJUNOK_clean_linker_0, # of connection points: 2
#     Edge 28, Type (0, 0), BuildingBlock: AJUNOK_clean_linker_0, # of connection points: 2
#     Edge 29, Type (0, 0), BuildingBlock: AJUNOK_clean_linker_0, # of connection points: 2
#     Edge 30, Type (0, 0), BuildingBlock: AJUNOK_clean_linker_0, # of connection points: 2
#     Edge 31, Type (0, 0), BuildingBlock: AJUNOK_clean_linker_0, # of connection points: 2
#     Edge 32, Type (0, 0), BuildingBlock: AJUNOK_clean_linker_0, # of connection points: 2
#     Edge 33, Type (0, 0), BuildingBlock: AJUNOK_clean_linker_0, # of connection points: 2
#     Edge 34, Type (0, 0), BuildingBlock: AJUNOK_clean_linker_0, # of connection points: 2
#     Edge 35, Type (0, 0), BuildingBlock: AJUNOK_clean_linker_0, # of connection points: 2
# Relax obj value: 0.409
# Max RMSD: 0.210
# Mean RMSD: 0.204
data_MOF--net-acs-a--node1-NAHDIM_clean_sbu_0--edge1-AJUNOK_clean_linker_0
_symmetry_space_group_name_H-M    P1
_symmetry_Int_Tables_number       1
_symmetry_cell_setting            triclinic
loop_
_symmetry_equiv_pos_as_xyz
'x, y, z'
_cell_length_a     35.724529
_cell_length_b     35.58516
_cell_length_c     32.177804
_cell_angle_alpha  90.06491
_cell_angle_beta   89.814233
_cell_angle_gamma 113.39332
loop_
_atom_site_label
_atom_site_type_symbol
_atom_site_fract_x
_atom_site_fract_y
_atom_site_fract_z
_atom_type_partial_charge
C0 C 0.50599 0.05032 0.06409 0.0
O1 O 0.49957 0.05279 0.10403 0.0
O2 O 0.5781 0.16207 0.0897 0.0
Zn3 Zn 0.58487 0.10882 0.08512 0.0
O4 O 0.5821 0.08694 0.14298 0.0
C5 C 0.65284 0.14295 0.0292 0.0
O6 O 0.62609 0.15079 0.00681 0.0
O7 O 0.54115 0.07057 0.04902 0.0
C8 C 0.61413 0.102 0.16498 0.0
O9 O 0.64731 0.12942 0.14825 0.0
C10 C 0.55708 0.17365 0.065 0.0
O11 O 0.53752 0.14946 0.0344 0.0
O12 O 0.64073 0.12179 0.06202 0.0
C13 C 0.42882 0.50457 0.5471 0.0
O14 O 0.40772 0.48276 0.57853 0.0
O15 O 0.34138 0.54188 0.57026 0.0
Zn16 Zn 0.40118 0.56165 0.58297 0.0
O17 O 0.41021 0.54482 0.64027 0.0
C18 C 0.41954 0.64216 0.61414 0.0
O19 O 0.40484 0.6211 0.64818 0.0
O20 O 0.43002 0.5404 0.5417 0.0
C21 C 0.44531 0.56202 0.65647 0.0
O22 O 0.47533 0.58777 0.63405 0.0
C23 C 0.3167 0.53969 0.59958 0.0
O24 O 0.33039 0.54552 0.63791 0.0
O25 O 0.4221 0.62341 0.58125 0.0
C26 C 0.93045 0.38159 0.04419 0.0
O27 O 0.93178 0.35142 0.06677 0.0
O28 O 0.8111 0.30345 0.03873 0.0
Zn29 Zn 0.84495 0.35431 0.06973 0.0
O30 O 0.85208 0.34099 0.12882 0.0
C31 C 0.80287 0.40343 0.04001 0.0
O32 O 0.81313 0.39444 0.00323 0.0
O33 O 0.89736 0.38665 0.04149 0.0
C34 C 0.86737 0.37092 0.15364 0.0
O35 O 0.88154 0.40827 0.13845 0.0
C36 C 0.81174 0.26872 0.04645 0.0
O37 O 0.8386 0.26652 0.07307 0.0
O38 O 0.81321 0.38947 0.07227 0.0
C39 C 0.45758 0.90161 0.52991 0.0
O40 O 0.45512 0.86388 0.52754 0.0
O41 O 0.40407 0.81463 0.58766 0.0
Zn42 Zn 0.39316 0.86594 0.58966 0.0
O43 O 0.40033 0.8855 0.64876 0.0
C44 C 0.31963 0.82609 0.54299 0.0
O45 O 0.34448 0.81719 0.51854 0.0
O46 O 0.4328 0.90937 0.55332 0.0
C47 C 0.37434 0.89484 0.66841 0.0
O48 O 0.34146 0.89337 0.64909 0.0
C49 C 0.42724 0.8076 0.61362 0.0
O50 O 0.44576 0.83512 0.64212 0.0
O51 O 0.33458 0.84982 0.5736 0.0
C52 C 0.56979 0.48732 0.02714 0.0
O53 O 0.60292 0.50541 0.04936 0.0
O54 O 0.64059 0.43638 0.03943 0.0
Zn55 Zn 0.58269 0.4207 0.05818 0.0
O56 O 0.58176 0.43654 0.11765 0.0
C57 C 0.57387 0.34256 0.07874 0.0
O58 O 0.60223 0.36609 0.10418 0.0
O59 O 0.55444 0.44851 0.02472 0.0
C60 C 0.54935 0.42269 0.13924 0.0
O61 O 0.5153 0.3977 0.12189 0.0
C62 C 0.67061 0.45496 0.06321 0.0
O63 O 0.66399 0.46954 0.0987 0.0
O64 O 0.55723 0.35932 0.05422 0.0
C65 C 0.06207 0.58542 0.51104 0.0
O66 O 0.07451 0.62405 0.50009 0.0
O67 O 0.15398 0.66786 0.55169 0.0
Zn68 Zn 0.12156 0.61369 0.57862 0.0
O69 O 0.09776 0.61854 0.63387 0.0
C70 C 0.17165 0.56822 0.56259 0.0
O71 O 0.15533 0.56367 0.52543 0.0
O72 O 0.07786 0.5759 0.54237 0.0
C73 C 0.0773 0.58452 0.65141 0.0
O74 O 0.07141 0.55055 0.63115 0.0
C75 C 0.15933 0.70224 0.56769 0.0
O76 O 0.13924 0.70304 0.60173 0.0
O77 O 0.16116 0.58791 0.58999 0.0
C78 C 0.92304 0.46091 0.42968 0.0
O79 O 0.90529 0.47108 0.39851 0.0
O80 O 0.81072 0.40336 0.42825 0.0
Zn81 Zn 0.85657 0.38554 0.41713 0.0
O82 O 0.86627 0.38444 0.35573 0.0
C83 C 0.85002 0.30127 0.42985 0.0
O84 O 0.87931 0.30986 0.40209 0.0
O85 O 0.90724 0.42464 0.44381 0.0
C86 C 0.84389 0.35533 0.33255 0.0
O87 O 0.81293 0.32488 0.34905 0.0
C88 C 0.79872 0.42398 0.40342 0.0
O89 O 0.81802 0.43627 0.36797 0.0
O90 O 0.83834 0.3291 0.44113 0.0
C91 C 0.38173 0.9386 0.95708 0.0
O92 O 0.37276 0.94854 0.92028 0.0
O93 O 0.28635 0.81923 0.93882 0.0
Zn94 Zn 0.34366 0.85711 0.92471 0.0
O95 O 0.34569 0.8796 0.86715 0.0
C96 C 0.38789 0.80732 0.9511 0.0
O97 O 0.3798 0.81537 0.98913 0.0
O98 O 0.36988 0.90107 0.96677 0.0
C99 C 0.37967 0.89307 0.84806 0.0
O100 O 0.41239 0.89509 0.8681 0.0
C101 C 0.25646 0.8193 0.91759 0.0
O102 O 0.26269 0.84907 0.89087 0.0
O103 O 0.37583 0.82222 0.92066 0.0
C104 C 0.523 0.44654 0.43536 0.0
O105 O 0.54271 0.47036 0.40448 0.0
O106 O 0.55057 0.33726 0.40177 0.0
Zn107 Zn 0.55739 0.39603 0.39699 0.0
O108 O 0.54175 0.40479 0.33897 0.0
C109 C 0.63631 0.41777 0.43179 0.0
O110 O 0.61474 0.3915 0.46018 0.0
O111 O 0.52494 0.41186 0.43929 0.0
C112 C 0.56457 0.43585 0.31821 0.0
O113 O 0.59626 0.46372 0.33652 0.0
C114 C 0.57019 0.32774 0.37347 0.0
O115 O 0.5889 0.3551 0.34481 0.0
O116 O 0.61761 0.42798 0.40342 0.0
C117 C 0.06778 0.49733 0.95193 0.0
O118 O 0.0969 0.48753 0.93685 0.0
O119 O 0.15876 0.55817 0.90343 0.0
Zn120 Zn 0.10785 0.56942 0.90287 0.0
O121 O 0.08465 0.56111 0.84506 0.0
C122 C 0.14238 0.65494 0.8917 0.0
O123 O 0.14691 0.64248 0.85432 0.0
O124 O 0.06674 0.53148 0.94201 0.0
C125 C 0.06438 0.5802 0.82996 0.0
O126 O 0.05488 0.60518 0.8537 0.0
C127 C 0.17526 0.55211 0.8705 0.0
O128 O 0.15813 0.55222 0.83447 0.0
O129 O 0.12524 0.62848 0.91973 0.0
C130 C 0.58801 0.0382 0.45024 0.0
O131 O 0.61192 0.03318 0.42163 0.0
O132 O 0.68308 0.151 0.44986 0.0
Zn133 Zn 0.62745 0.12204 0.42517 0.0
O134 O 0.63316 0.10496 0.36697 0.0
C135 C 0.61587 0.18929 0.39116 0.0
O136 O 0.64527 0.1878 0.36747 0.0
O137 O 0.59076 0.07414 0.45832 0.0
C138 C 0.60191 0.08894 0.34415 0.0
O139 O 0.56571 0.08027 0.36061 0.0
C140 C 0.71455 0.14761 0.43485 0.0
O141 O 0.70994 0.12024 0.40572 0.0
O142 O 0.60232 0.1635 0.42052 0.0
C143 C 0.48485 0.57849 0.95039 0.0
O144 O 0.50479 0.61379 0.93192 0.0
O145 O 0.43245 0.64746 0.93266 0.0
Zn146 Zn 0.42153 0.59113 0.91103 0.0
O147 O 0.44418 0.59291 0.85372 0.0
C148 C 0.34339 0.57019 0.87672 0.0
O149 O 0.36647 0.59286 0.84681 0.0
O150 O 0.44629 0.56197 0.94729 0.0
C151 C 0.43686 0.55912 0.83537 0.0
O152 O 0.4164 0.52481 0.85531 0.0
C153 C 0.43888 0.67692 0.90759 0.0
O154 O 0.44319 0.67102 0.86786 0.0
O155 O 0.3604 0.56268 0.90845 0.0
C156 C 0.57157 0.07072 0.27336 0.0
C157 C 0.60651 0.08666 0.29854 0.0
C158 C 0.57449 0.07388 0.23001 0.0
C159 C 0.61247 0.09332 0.2101 0.0
H160 H 0.54147 0.05701 0.28721 0.0
H161 H 0.54652 0.06258 0.21217 0.0
S162 S 0.71379 0.13531 0.26139 0.0
N163 N 0.68078 0.11889 0.30002 0.0
N164 N 0.68618 0.12493 0.2186 0.0
C165 C 0.64789 0.1071 0.2347 0.0
C166 C 0.64494 0.10371 0.27889 0.0
C167 C 0.42385 0.52438 0.72331 0.0
C168 C 0.44933 0.55971 0.70188 0.0
C169 C 0.42193 0.52365 0.76677 0.0
C170 C 0.44482 0.55855 0.79032 0.0
H171 H 0.4042 0.49751 0.70632 0.0
H172 H 0.40072 0.4962 0.78179 0.0
S173 S 0.5184 0.6579 0.74908 0.0
N174 N 0.49995 0.62962 0.70736 0.0
N175 N 0.49593 0.6285 0.78909 0.0
C176 C 0.47189 0.59347 0.76931 0.0
C177 C 0.47428 0.59398 0.72505 0.0
C178 C 0.88338 0.39804 0.22585 0.0
C179 C 0.86417 0.36451 0.19926 0.0
C180 C 0.8774 0.3944 0.26889 0.0
C181 C 0.85167 0.35714 0.28719 0.0
H182 H 0.90261 0.42773 0.21333 0.0
H183 H 0.89227 0.42145 0.28781 0.0
S184 S 0.79656 0.25901 0.23185 0.0
N185 N 0.82018 0.29193 0.19469 0.0
N186 N 0.80879 0.28522 0.27565 0.0
C187 C 0.83332 0.3229 0.2612 0.0
C188 C 0.83967 0.32653 0.21726 0.0
C189 C 0.34485 0.8954 0.78143 0.0
C190 C 0.38095 0.90036 0.80262 0.0
C191 C 0.34355 0.89591 0.73796 0.0
C192 C 0.37822 0.90114 0.71394 0.0
H193 H 0.31685 0.88949 0.79843 0.0
H194 H 0.3146 0.89021 0.72318 0.0
S195 S 0.48177 0.92133 0.75404 0.0
N196 N 0.45341 0.91521 0.79611 0.0
N197 N 0.45081 0.91588 0.71444 0.0
C198 C 0.41515 0.90875 0.73466 0.0
C199 C 0.41656 0.90847 0.77898 0.0
C200 C 0.52397 0.40772 0.25394 0.0
C201 C 0.55879 0.43721 0.27276 0.0
C202 C 0.52022 0.40454 0.21065 0.0
C203 C 0.5513 0.43052 0.1845 0.0
H204 H 0.4999 0.38596 0.27273 0.0
H205 H 0.49353 0.38036 0.19772 0.0
S206 S 0.64659 0.51602 0.2179 0.0
N207 N 0.62339 0.49534 0.26167 0.0
N208 N 0.61633 0.48922 0.18038 0.0
C209 C 0.58526 0.46162 0.20282 0.0
C210 C 0.58899 0.46503 0.24692 0.0
C211 C 0.05886 0.54632 0.71833 0.0
C212 C 0.06682 0.58277 0.69613 0.0
C213 C 0.05574 0.54521 0.76168 0.0
C214 C 0.05956 0.58023 0.78445 0.0
H215 H 0.05723 0.51886 0.70244 0.0
H216 H 0.05183 0.51707 0.77762 0.0
S217 S 0.07567 0.68206 0.74104 0.0
N218 N 0.07501 0.65393 0.69998 0.0
N219 N 0.06835 0.65155 0.78161 0.0
C220 C 0.06461 0.61612 0.76258 0.0
C221 C 0.06847 0.61747 0.71836 0.0
C222 C 0.44165 0.98878 0.05308 0.0
C223 C 0.47275 0.02409 0.03691 0.0
C224 C 0.41141 0.96188 0.02719 0.0
C225 C 0.41072 0.96989 0.98446 0.0
H226 H 0.44145 0.98109 0.08567 0.0
H227 H 0.38881 0.93425 0.04063 0.0
S228 S 0.48349 0.06026 0.92768 0.0
N229 N 0.4999 0.06698 0.97612 0.0
N230 N 0.44262 0.01688 0.92756 0.0
C231 C 0.44061 0.00611 0.96829 0.0
C232 C 0.47181 0.03308 -0.0055 0.0
C233 C 0.47253 0.51158 0.48441 0.0
C234 C 0.45191 0.48837 0.51903 0.0
C235 C 0.49532 0.49771 0.45773 0.0
C236 C 0.49852 0.46004 0.46447 0.0
H237 H 0.47121 0.54085 0.47774 0.0
H238 H 0.51053 0.51687 0.43156 0.0
S239 S 0.45051 0.38746 0.55082 0.0
N240 N 0.43621 0.42566 0.55871 0.0
N241 N 0.47907 0.39962 0.50851 0.0
C242 C 0.47799 0.43637 0.49892 0.0
C243 C 0.45469 0.45051 0.52617 0.0
C244 C -0.00057 0.47545 0.98515 0.0
C245 C 0.03456 0.46789 0.97746 0.0
C246 C 0.96635 0.44745 0.00701 0.0
C247 C 0.96699 0.41073 0.02248 0.0
H248 H -0.00304 0.50294 0.97356 0.0
H249 H 0.93995 0.45477 0.01162 0.0
S250 S 0.05251 0.37706 0.01266 0.0
N251 N 0.06871 0.42154 0.98831 0.0
N252 N 0.00627 0.36879 0.02978 0.0
C253 C 0.00227 0.40308 0.01599 0.0
C254 C 0.03607 0.43164 -0.00665 0.0
C255 C 0.52754 0.00895 0.49715 0.0
C256 C 0.55577 0.00257 0.47048 0.0
C257 C 0.49571 0.97612 0.51561 0.0
C258 C 0.49075 0.93542 0.50837 0.0
H259 H 0.52975 0.03961 0.50377 0.0
H260 H 0.47499 0.9829 0.53597 0.0
S261 S 0.55643 0.90187 0.44107 0.0
N262 N 0.57673 0.95229 0.43773 0.0
N263 N 0.51686 0.89048 0.47252 0.0
C264 C 0.51875 0.92847 0.48178 0.0
C265 C 0.55125 0.96203 0.46286 0.0
C266 C 0.48744 0.51404 0.97774 0.0
C267 C 0.50706 0.5565 0.97109 0.0
C268 C 0.50817 0.49192 -0.00464 0.0
C269 C 0.54918 0.51146 0.00752 0.0
H270 H 0.45593 0.49751 0.96869 0.0
H271 H 0.4917 0.45926 -0.00021 0.0
S272 S 0.61431 0.62231 -0.00249 0.0
N273 N 0.56979 0.61741 0.97837 0.0
N274 N 0.60871 0.57586 0.0119 0.0
C275 C 0.56912 0.55399 0.00142 0.0
C276 C 0.54808 0.57649 0.98308 0.0
C277 C 0.97161 0.5336 0.43988 0.0
C278 C 0.95995 0.49179 0.44904 0.0
C279 C 0.0052 0.56367 0.45938 0.0
C280 C 0.02843 0.55306 0.48871 0.0
H281 H 0.9542 0.54337 0.41811 0.0
H282 H 0.01242 0.59548 0.45196 0.0
S283 S 0.01297 0.4475 0.52064 0.0
N284 N 0.97592 0.44113 0.48735 0.0
N285 N 0.03904 0.49743 0.52383 0.0
C286 C 0.01791 0.51121 0.49709 0.0
C287 C 0.98367 0.48065 0.47732 0.0
C288 C 0.58055 0.24106 0.10132 0.0
C289 C 0.55738 0.2153 0.06942 0.0
C290 C 0.58436 0.28156 0.10473 0.0
C291 C 0.56517 0.29824 0.07642 0.0
H292 H 0.59676 0.23024 0.12352 0.0
H293 H 0.60336 0.30015 0.12939 0.0
S294 S 0.49822 0.24291 0.98909 0.0
N295 N 0.51281 0.20872 0.0103 0.0
N296 N 0.52005 0.28509 0.01675 0.0
C297 C 0.54054 0.27247 0.04529 0.0
C298 C 0.53666 0.231 0.04177 0.0
C299 C 0.25464 0.55035 0.62166 0.0
C300 C 0.276 0.53952 0.59025 0.0
C301 C 0.21994 0.55779 0.61259 0.0
C302 C 0.2049 0.55447 0.57178 0.0
H303 H 0.26581 0.55508 0.65331 0.0
H304 H 0.20565 0.56759 0.63771 0.0
S305 S 0.24599 0.52088 0.47931 0.0
N306 N 0.27699 0.52137 0.51743 0.0
N307 N 0.21153 0.53517 0.50038 0.0
C308 C 0.22421 0.54082 0.54054 0.0
C309 C 0.2598 0.53341 0.54978 0.0
C310 C 0.74848 0.23517 0.00461 0.0
C311 C 0.77645 0.23146 0.03336 0.0
C312 C 0.70952 0.20415 2e-05 0.0
C313 C 0.697 0.16833 0.0242 0.0
H314 H 0.75557 0.26345 0.9876 0.0
H315 H 0.68814 0.20994 0.97991 0.0
S316 S 0.76217 0.13911 0.09591 0.0
N317 N 0.7916 0.18577 0.08034 0.0
N318 N 0.7183 0.12744 0.07171 0.0
C319 C 0.72635 0.16207 0.04913 0.0
C320 C 0.76615 0.19366 0.05372 0.0
C321 C 0.42067 0.74337 0.57699 0.0
C322 C 0.43058 0.76746 0.61328 0.0
C323 C 0.4195 0.70354 0.57681 0.0
C324 C 0.42749 0.68613 0.61312 0.0
H325 H 0.41287 0.75502 0.54868 0.0
H326 H 0.41036 0.68564 0.54856 0.0
S327 S 0.45823 0.73724 0.71534 0.0
N328 N 0.45141 0.77185 0.68572 0.0
N329 N 0.44844 0.69671 0.68546 0.0
C330 C 0.43906 0.71037 0.64913 0.0
C331 C 0.44086 0.75114 0.64918 0.0
C332 C 0.71629 0.43568 0.01677 0.0
C333 C 0.70973 0.45089 0.05534 0.0
C334 C 0.74829 0.42285 0.01115 0.0
C335 C 0.77467 0.42439 0.044 0.0
H336 H 0.69533 0.43169 -0.00874 0.0
H337 H 0.75075 0.40937 0.9816 0.0
S338 S 0.77522 0.46816 0.14885 0.0
N339 N 0.73587 0.47182 0.1252 0.0
N340 N 0.79572 0.44732 0.11462 0.0
C341 C 0.77056 0.44256 0.08163 0.0
C342 C 0.73821 0.45601 0.08727 0.0
C343 C 0.21122 0.77274 0.58165 0.0
C344 C 0.19508 0.73915 0.55449 0.0
C345 C 0.25044 0.80301 0.57557 0.0
C346 C 0.27506 0.80085 0.5421 0.0
H347 H 0.1948 0.77426 0.60952 0.0
H348 H 0.26248 0.82661 0.59902 0.0
S349 S 0.24275 0.72496 0.45626 0.0
N350 N 0.20352 0.70982 0.48853 0.0
N351 N 0.27727 0.76668 0.47714 0.0
C352 C 0.25741 0.77009 0.51211 0.0
C353 C 0.21742 0.73923 0.51831 0.0
C354 C 0.73881 0.41278 0.44954 0.0
C355 C 0.76033 0.42928 0.41263 0.0
C356 C 0.69976 0.41172 0.45669 0.0
C357 C 0.6805 0.42718 0.42728 0.0
H358 H 0.75143 0.39894 0.47255 0.0
H359 H 0.6839 0.39695 0.48475 0.0
S360 S 0.72598 0.47916 0.32821 0.0
N361 N 0.76119 0.46554 0.34829 0.0
N362 N 0.68781 0.46371 0.36175 0.0
C363 C 0.70282 0.44653 0.39159 0.0
C364 C 0.74268 0.4475 0.38425 0.0
C365 C 0.21145 0.75106 0.94632 0.0
C366 C 0.21933 0.78091 0.91501 0.0
C367 C 0.1835 0.71068 0.94004 0.0
C368 C 0.163 0.69873 0.902 0.0
H369 H 0.2288 0.75829 0.97492 0.0
H370 H 0.18037 0.68811 0.96385 0.0
S371 S 0.16679 0.76628 0.81312 0.0
N372 N 0.19948 0.79675 0.84699 0.0
N373 N 0.14772 0.7206 0.83506 0.0
C374 C 0.16775 0.72889 0.87199 0.0
C375 C 0.19566 0.77014 0.87858 0.0
C376 C 0.58091 0.23345 0.41729 0.0
C377 C 0.60039 0.22176 0.3847 0.0
C378 C 0.56951 0.26671 0.4129 0.0
C379 C 0.57704 0.28935 0.3757 0.0
H380 H 0.57575 0.21778 0.44694 0.0
H381 H 0.55613 0.27563 0.43939 0.0
S382 S 0.62165 0.2672 0.27899 0.0
N383 N 0.62281 0.23271 0.31261 0.0
N384 N 0.60127 0.29487 0.30423 0.0
C385 C 0.5944 0.27645 0.34213 0.0
C386 C 0.60613 0.24277 0.34667 0.0
C387 C 0.24 0.55795 0.83605 0.0
C388 C 0.21598 0.55042 0.87226 0.0
C389 C 0.28063 0.56227 0.83762 0.0
C390 C 0.2988 0.55882 0.87536 0.0
H391 H 0.22799 0.56237 0.80643 0.0
H392 H 0.2983 0.56967 0.80911 0.0
S393 S 0.24743 0.53389 0.97823 0.0
N394 N 0.21206 0.53574 0.94639 0.0
N395 N 0.28848 0.54365 0.94929 0.0
C396 C 0.27438 0.54864 0.9114 0.0
C397 C 0.23299 0.54456 0.90986 0.0
C398 C 0.7856 0.18962 0.41102 0.0
C399 C 0.75494 0.18136 0.44147 0.0
C400 C 0.81908 0.22747 0.4098 0.0
C401 C 0.82297 0.25824 0.43899 0.0
H402 H 0.78215 0.16822 0.38591 0.0
H403 H 0.83998 0.23375 0.38375 0.0
S404 S 0.7569 0.24775 0.53115 0.0
N405 N 0.73499 0.20393 0.5061 0.0
N406 N 0.79785 0.27502 0.50374 0.0
C407 C 0.79524 0.24846 0.47238 0.0
C408 C 0.76121 0.20999 0.47365 0.0
C409 C 0.43152 0.74218 0.89141 0.0
C410 C 0.43306 0.71407 0.92135 0.0
C411 C 0.41871 0.77336 0.90188 0.0
C412 C 0.40708 0.77796 0.9428 0.0
H413 H 0.43842 0.73908 0.8591 0.0
H414 H 0.4166 0.79314 0.87724 0.0
S415 S 0.41141 0.71619 0.03416 0.0
N416 N 0.4262 0.69565 -0.00529 0.0
N417 N 0.40214 0.75441 0.01437 0.0
C418 C 0.41129 0.75197 0.9737 0.0
C419 C 0.42427 0.72001 0.96299 0.0
loop_
_geom_bond_atom_site_label_1
_geom_bond_atom_site_label_2
_geom_bond_distance
_geom_bond_site_symmetry_2
_ccdc_geom_bond_type
C0 O1 1.160 . S
C0 O7 1.185 . S
O1 C0 1.160 . S
O2 Zn3 1.899 . S
O2 C10 1.284 . S
Zn3 O2 1.899 . S
Zn3 O4 2.032 . S
Zn3 O7 2.086 . S
Zn3 O12 1.977 . S
O4 Zn3 2.032 . S
O4 C8 1.278 . S
C5 O6 1.203 . S
C5 O12 1.267 . S
O6 C5 1.203 . S
O7 C0 1.185 . S
O7 Zn3 2.086 . S
C8 O4 1.278 . S
C8 O9 1.211 . S
O9 C8 1.211 . S
C10 O2 1.284 . S
C10 O11 1.273 . S
O11 C10 1.273 . S
O12 Zn3 1.977 . S
O12 C5 1.267 . S
C13 O14 1.160 . S
C13 O20 1.185 . S
O14 C13 1.160 . S
O15 Zn16 1.899 . S
O15 C23 1.284 . S
Zn16 O15 1.899 . S
Zn16 O17 2.032 . S
Zn16 O20 2.086 . S
Zn16 O25 1.977 . S
O17 Zn16 2.032 . S
O17 C21 1.278 . S
C18 O19 1.203 . S
C18 O25 1.267 . S
O19 C18 1.203 . S
O20 C13 1.185 . S
O20 Zn16 2.086 . S
C21 O17 1.278 . S
C21 O22 1.211 . S
O22 C21 1.211 . S
C23 O15 1.284 . S
C23 O24 1.273 . S
O24 C23 1.273 . S
O25 Zn16 1.977 . S
O25 C18 1.267 . S
C26 O27 1.160 . S
C26 O33 1.185 . S
O27 C26 1.160 . S
O28 Zn29 1.899 . S
O28 C36 1.284 . S
Zn29 O28 1.899 . S
Zn29 O30 2.032 . S
Zn29 O33 2.086 . S
Zn29 O38 1.977 . S
O30 Zn29 2.032 . S
O30 C34 1.278 . S
C31 O32 1.203 . S
C31 O38 1.267 . S
O32 C31 1.203 . S
O33 C26 1.185 . S
O33 Zn29 2.086 . S
C34 O30 1.278 . S
C34 O35 1.211 . S
O35 C34 1.211 . S
C36 O28 1.284 . S
C36 O37 1.273 . S
O37 C36 1.273 . S
O38 Zn29 1.977 . S
O38 C31 1.267 . S
C39 O40 1.160 . S
C39 O46 1.185 . S
O40 C39 1.160 . S
O41 Zn42 1.899 . S
O41 C49 1.284 . S
Zn42 O41 1.899 . S
Zn42 O43 2.032 . S
Zn42 O46 2.086 . S
Zn42 O51 1.977 . S
O43 Zn42 2.032 . S
O43 C47 1.278 . S
C44 O45 1.203 . S
C44 O51 1.267 . S
O45 C44 1.203 . S
O46 C39 1.185 . S
O46 Zn42 2.086 . S
C47 O43 1.278 . S
C47 O48 1.211 . S
O48 C47 1.211 . S
C49 O41 1.284 . S
C49 O50 1.273 . S
O50 C49 1.273 . S
O51 Zn42 1.977 . S
O51 C44 1.267 . S
C52 O53 1.160 . S
C52 O59 1.185 . S
O53 C52 1.160 . S
O54 Zn55 1.899 . S
O54 C62 1.284 . S
Zn55 O54 1.899 . S
Zn55 O56 2.032 . S
Zn55 O59 2.086 . S
Zn55 O64 1.977 . S
O56 Zn55 2.032 . S
O56 C60 1.278 . S
C57 O58 1.203 . S
C57 O64 1.267 . S
O58 C57 1.203 . S
O59 C52 1.185 . S
O59 Zn55 2.086 . S
C60 O56 1.278 . S
C60 O61 1.211 . S
O61 C60 1.211 . S
C62 O54 1.284 . S
C62 O63 1.273 . S
O63 C62 1.273 . S
O64 Zn55 1.977 . S
O64 C57 1.267 . S
C65 O66 1.160 . S
C65 O72 1.185 . S
O66 C65 1.160 . S
O67 Zn68 1.899 . S
O67 C75 1.284 . S
Zn68 O67 1.899 . S
Zn68 O69 2.032 . S
Zn68 O72 2.086 . S
Zn68 O77 1.977 . S
O69 Zn68 2.032 . S
O69 C73 1.278 . S
C70 O71 1.203 . S
C70 O77 1.267 . S
O71 C70 1.203 . S
O72 C65 1.185 . S
O72 Zn68 2.086 . S
C73 O69 1.278 . S
C73 O74 1.211 . S
O74 C73 1.211 . S
C75 O67 1.284 . S
C75 O76 1.273 . S
O76 C75 1.273 . S
O77 Zn68 1.977 . S
O77 C70 1.267 . S
C78 O79 1.160 . S
C78 O85 1.185 . S
O79 C78 1.160 . S
O80 Zn81 1.899 . S
O80 C88 1.284 . S
Zn81 O80 1.899 . S
Zn81 O82 2.032 . S
Zn81 O85 2.086 . S
Zn81 O90 1.977 . S
O82 Zn81 2.032 . S
O82 C86 1.278 . S
C83 O84 1.203 . S
C83 O90 1.267 . S
O84 C83 1.203 . S
O85 C78 1.185 . S
O85 Zn81 2.086 . S
C86 O82 1.278 . S
C86 O87 1.211 . S
O87 C86 1.211 . S
C88 O80 1.284 . S
C88 O89 1.273 . S
O89 C88 1.273 . S
O90 Zn81 1.977 . S
O90 C83 1.267 . S
C91 O92 1.160 . S
C91 O98 1.185 . S
O92 C91 1.160 . S
O93 Zn94 1.899 . S
O93 C101 1.284 . S
Zn94 O93 1.899 . S
Zn94 O95 2.032 . S
Zn94 O98 2.086 . S
Zn94 O103 1.977 . S
O95 Zn94 2.032 . S
O95 C99 1.278 . S
C96 O97 1.203 . S
C96 O103 1.267 . S
O97 C96 1.203 . S
O98 C91 1.185 . S
O98 Zn94 2.086 . S
C99 O95 1.278 . S
C99 O100 1.211 . S
O100 C99 1.211 . S
C101 O93 1.284 . S
C101 O102 1.273 . S
O102 C101 1.273 . S
O103 Zn94 1.977 . S
O103 C96 1.267 . S
C104 O105 1.160 . S
C104 O111 1.185 . S
O105 C104 1.160 . S
O106 Zn107 1.899 . S
O106 C114 1.284 . S
Zn107 O106 1.899 . S
Zn107 O108 2.032 . S
Zn107 O111 2.086 . S
Zn107 O116 1.977 . S
O108 Zn107 2.032 . S
O108 C112 1.278 . S
C109 O110 1.203 . S
C109 O116 1.267 . S
O110 C109 1.203 . S
O111 C104 1.185 . S
O111 Zn107 2.086 . S
C112 O108 1.278 . S
C112 O113 1.211 . S
O113 C112 1.211 . S
C114 O106 1.284 . S
C114 O115 1.273 . S
O115 C114 1.273 . S
O116 Zn107 1.977 . S
O116 C109 1.267 . S
C117 O118 1.160 . S
C117 O124 1.185 . S
O118 C117 1.160 . S
O119 Zn120 1.899 . S
O119 C127 1.284 . S
Zn120 O119 1.899 . S
Zn120 O121 2.032 . S
Zn120 O124 2.086 . S
Zn120 O129 1.977 . S
O121 Zn120 2.032 . S
O121 C125 1.278 . S
C122 O123 1.203 . S
C122 O129 1.267 . S
O123 C122 1.203 . S
O124 C117 1.185 . S
O124 Zn120 2.086 . S
C125 O121 1.278 . S
C125 O126 1.211 . S
O126 C125 1.211 . S
C127 O119 1.284 . S
C127 O128 1.273 . S
O128 C127 1.273 . S
O129 Zn120 1.977 . S
O129 C122 1.267 . S
C130 O131 1.160 . S
C130 O137 1.185 . S
O131 C130 1.160 . S
O132 Zn133 1.899 . S
O132 C140 1.284 . S
Zn133 O132 1.899 . S
Zn133 O134 2.032 . S
Zn133 O137 2.086 . S
Zn133 O142 1.977 . S
O134 Zn133 2.032 . S
O134 C138 1.278 . S
C135 O136 1.203 . S
C135 O142 1.267 . S
O136 C135 1.203 . S
O137 C130 1.185 . S
O137 Zn133 2.086 . S
C138 O134 1.278 . S
C138 O139 1.211 . S
O139 C138 1.211 . S
C140 O132 1.284 . S
C140 O141 1.273 . S
O141 C140 1.273 . S
O142 Zn133 1.977 . S
O142 C135 1.267 . S
C143 O144 1.160 . S
C143 O150 1.185 . S
O144 C143 1.160 . S
O145 Zn146 1.899 . S
O145 C153 1.284 . S
Zn146 O145 1.899 . S
Zn146 O147 2.032 . S
Zn146 O150 2.086 . S
Zn146 O155 1.977 . S
O147 Zn146 2.032 . S
O147 C151 1.278 . S
C148 O149 1.203 . S
C148 O155 1.267 . S
O149 C148 1.203 . S
O150 C143 1.185 . S
O150 Zn146 2.086 . S
C151 O147 1.278 . S
C151 O152 1.211 . S
O152 C151 1.211 . S
C153 O145 1.284 . S
C153 O154 1.273 . S
O154 C153 1.273 . S
O155 Zn146 1.977 . S
O155 C148 1.267 . S
C156 C157 1.369 . S
C156 C158 1.419 . S
C156 H160 0.930 . S
C157 C156 1.369 . S
C157 C166 1.429 . S
C158 C156 1.419 . S
C158 C159 1.363 . S
C158 H161 0.929 . S
C159 C158 1.363 . S
C159 C165 1.428 . S
H160 C156 0.930 . S
H161 C158 0.929 . S
S162 N163 1.613 . S
S162 N164 1.610 . S
N163 S162 1.613 . S
N163 C166 1.350 . S
N164 S162 1.610 . S
N164 C165 1.351 . S
C165 C159 1.428 . S
C165 N164 1.351 . S
C165 C166 1.434 . S
C166 C157 1.429 . S
C166 N163 1.350 . S
C166 C165 1.434 . S
C167 C168 1.369 . S
C167 C169 1.419 . S
C167 H171 0.930 . S
C168 C167 1.369 . S
C168 C177 1.429 . S
C169 C167 1.419 . S
C169 C170 1.363 . S
C169 H172 0.929 . S
C170 C169 1.363 . S
C170 C176 1.428 . S
H171 C167 0.930 . S
H172 C169 0.929 . S
S173 N174 1.613 . S
S173 N175 1.610 . S
N174 S173 1.613 . S
N174 C177 1.350 . S
N175 S173 1.610 . S
N175 C176 1.351 . S
C176 C170 1.428 . S
C176 N175 1.351 . S
C176 C177 1.434 . S
C177 C168 1.429 . S
C177 N174 1.350 . S
C177 C176 1.434 . S
C178 C179 1.369 . S
C178 C180 1.419 . S
C178 H182 0.930 . S
C179 C178 1.369 . S
C179 C188 1.429 . S
C180 C178 1.419 . S
C180 C181 1.363 . S
C180 H183 0.929 . S
C181 C180 1.363 . S
C181 C187 1.428 . S
H182 C178 0.930 . S
H183 C180 0.929 . S
S184 N185 1.613 . S
S184 N186 1.610 . S
N185 S184 1.613 . S
N185 C188 1.350 . S
N186 S184 1.610 . S
N186 C187 1.351 . S
C187 C181 1.428 . S
C187 N186 1.351 . S
C187 C188 1.434 . S
C188 C179 1.429 . S
C188 N185 1.350 . S
C188 C187 1.434 . S
C189 C190 1.369 . S
C189 C191 1.419 . S
C189 H193 0.930 . S
C190 C189 1.369 . S
C190 C199 1.429 . S
C191 C189 1.419 . S
C191 C192 1.363 . S
C191 H194 0.929 . S
C192 C191 1.363 . S
C192 C198 1.428 . S
H193 C189 0.930 . S
H194 C191 0.929 . S
S195 N196 1.613 . S
S195 N197 1.610 . S
N196 S195 1.613 . S
N196 C199 1.350 . S
N197 S195 1.610 . S
N197 C198 1.351 . S
C198 C192 1.428 . S
C198 N197 1.351 . S
C198 C199 1.434 . S
C199 C190 1.429 . S
C199 N196 1.350 . S
C199 C198 1.434 . S
C200 C201 1.369 . S
C200 C202 1.419 . S
C200 H204 0.930 . S
C201 C200 1.369 . S
C201 C210 1.429 . S
C202 C200 1.419 . S
C202 C203 1.363 . S
C202 H205 0.929 . S
C203 C202 1.363 . S
C203 C209 1.428 . S
H204 C200 0.930 . S
H205 C202 0.929 . S
S206 N207 1.613 . S
S206 N208 1.610 . S
N207 S206 1.613 . S
N207 C210 1.350 . S
N208 S206 1.610 . S
N208 C209 1.351 . S
C209 C203 1.428 . S
C209 N208 1.351 . S
C209 C210 1.434 . S
C210 C201 1.429 . S
C210 N207 1.350 . S
C210 C209 1.434 . S
C211 C212 1.369 . S
C211 C213 1.419 . S
C211 H215 0.930 . S
C212 C211 1.369 . S
C212 C221 1.429 . S
C213 C211 1.419 . S
C213 C214 1.363 . S
C213 H216 0.929 . S
C214 C213 1.363 . S
C214 C220 1.428 . S
H215 C211 0.930 . S
H216 C213 0.929 . S
S217 N218 1.613 . S
S217 N219 1.610 . S
N218 S217 1.613 . S
N218 C221 1.350 . S
N219 S217 1.610 . S
N219 C220 1.351 . S
C220 C214 1.428 . S
C220 N219 1.351 . S
C220 C221 1.434 . S
C221 C212 1.429 . S
C221 N218 1.350 . S
C221 C220 1.434 . S
C222 C223 1.369 . S
C222 C224 1.419 1_545 S
C222 H226 0.930 . S
C223 C222 1.369 . S
C223 C232 1.429 1_554 S
C224 C222 1.419 1_565 S
C224 C225 1.363 1_554 S
C224 H227 0.929 . S
C225 C224 1.363 1_556 S
C225 C231 1.428 . S
H226 C222 0.930 . S
H227 C224 0.929 . S
S228 N229 1.613 1_565 S
S228 N230 1.610 . S
N229 S228 1.613 1_545 S
N229 C232 1.350 . S
N230 S228 1.610 . S
N230 C231 1.351 . S
C231 C225 1.428 . S
C231 N230 1.351 . S
C231 C232 1.434 1_565 S
C232 C223 1.429 1_556 S
C232 N229 1.350 . S
C232 C231 1.434 1_545 S
C233 C234 1.369 . S
C233 C235 1.419 . S
C233 H237 0.930 . S
C234 C233 1.369 . S
C234 C243 1.429 . S
C235 C233 1.419 . S
C235 C236 1.363 . S
C235 H238 0.929 . S
C236 C235 1.363 . S
C236 C242 1.428 . S
H237 C233 0.930 . S
H238 C235 0.929 . S
S239 N240 1.613 . S
S239 N241 1.610 . S
N240 S239 1.613 . S
N240 C243 1.350 . S
N241 S239 1.610 . S
N241 C242 1.351 . S
C242 C236 1.428 . S
C242 N241 1.351 . S
C242 C243 1.434 . S
C243 C234 1.429 . S
C243 N240 1.350 . S
C243 C242 1.434 . S
C244 C245 1.369 1_554 S
C244 C246 1.419 1_455 S
C244 H248 0.930 . S
C245 C244 1.369 1_556 S
C245 C254 1.429 . S
C246 C244 1.419 1_655 S
C246 C247 1.363 . S
C246 H249 0.929 . S
C247 C246 1.363 . S
C247 C253 1.428 1_554 S
H248 C244 0.930 . S
H249 C246 0.929 . S
S250 N251 1.613 . S
S250 N252 1.610 1_455 S
N251 S250 1.613 . S
N251 C254 1.350 . S
N252 S250 1.610 1_655 S
N252 C253 1.351 . S
C253 C247 1.428 1_556 S
C253 N252 1.351 . S
C253 C254 1.434 1_655 S
C254 C245 1.429 . S
C254 N251 1.350 . S
C254 C253 1.434 1_455 S
C255 C256 1.369 . S
C255 C257 1.419 1_545 S
C255 H259 0.930 . S
C256 C255 1.369 . S
C256 C265 1.456 . S
C257 C255 1.419 1_565 S
C257 C258 1.363 . S
C257 H260 0.929 . S
C258 C257 1.363 . S
C258 C264 1.428 . S
H259 C255 0.930 . S
H260 C257 0.929 . S
S261 N262 1.613 . S
S261 N263 1.610 . S
N262 S261 1.613 . S
N262 C265 1.335 1_565 S
N263 S261 1.610 . S
N263 C264 1.351 . S
C264 C258 1.428 . S
C264 N263 1.351 . S
C264 C265 1.418 1_565 S
C265 C256 1.456 . S
C265 N262 1.335 1_545 S
C265 C264 1.418 1_545 S
C266 C267 1.369 1_554 S
C266 C268 1.419 . S
C266 H270 0.930 . S
C267 C266 1.369 1_556 S
C267 C276 1.429 . S
C268 C266 1.419 . S
C268 C269 1.363 . S
C268 H271 0.929 . S
C269 C268 1.363 . S
C269 C275 1.428 1_554 S
H270 C266 0.930 . S
H271 C268 0.929 . S
S272 N273 1.613 . S
S272 N274 1.610 . S
N273 S272 1.613 . S
N273 C276 1.350 . S
N274 S272 1.610 . S
N274 C275 1.351 . S
C275 C269 1.428 1_556 S
C275 N274 1.351 . S
C275 C276 1.434 . S
C276 C267 1.429 . S
C276 N273 1.350 . S
C276 C275 1.434 . S
C277 C278 1.369 . S
C277 C279 1.419 . S
C277 H281 0.930 . S
C278 C277 1.369 . S
C278 C287 1.429 1_655 S
C279 C277 1.419 . S
C279 C280 1.363 1_655 S
C279 H282 0.929 . S
C280 C279 1.363 1_455 S
C280 C286 1.428 . S
H281 C277 0.930 . S
H282 C279 0.929 . S
S283 N284 1.613 . S
S283 N285 1.610 . S
N284 S283 1.613 . S
N284 C287 1.350 . S
N285 S283 1.610 . S
N285 C286 1.351 . S
C286 C280 1.428 . S
C286 N285 1.351 . S
C286 C287 1.434 . S
C287 C278 1.429 1_455 S
C287 N284 1.350 . S
C287 C286 1.434 . S
C288 C289 1.369 . S
C288 C290 1.419 . S
C288 H292 0.930 . S
C289 C288 1.369 . S
C289 C298 1.429 . S
C290 C288 1.419 . S
C290 C291 1.363 . S
C290 H293 0.929 . S
C291 C290 1.363 . S
C291 C297 1.428 . S
H292 C288 0.930 . S
H293 C290 0.929 . S
S294 N295 1.613 . S
S294 N296 1.610 . S
N295 S294 1.613 . S
N295 C298 1.350 . S
N296 S294 1.610 . S
N296 C297 1.351 . S
C297 C291 1.428 . S
C297 N296 1.351 . S
C297 C298 1.434 . S
C298 C289 1.429 . S
C298 N295 1.350 . S
C298 C297 1.434 . S
C299 C300 1.369 . S
C299 C301 1.419 . S
C299 H303 0.930 . S
C300 C299 1.369 . S
C300 C309 1.429 . S
C301 C299 1.419 . S
C301 C302 1.363 . S
C301 H304 0.929 . S
C302 C301 1.363 . S
C302 C308 1.428 . S
H303 C299 0.930 . S
H304 C301 0.929 . S
S305 N306 1.613 . S
S305 N307 1.610 . S
N306 S305 1.613 . S
N306 C309 1.350 . S
N307 S305 1.610 . S
N307 C308 1.351 . S
C308 C302 1.428 . S
C308 N307 1.351 . S
C308 C309 1.434 . S
C309 C300 1.429 . S
C309 N306 1.350 . S
C309 C308 1.434 . S
C310 C311 1.369 . S
C310 C312 1.419 . S
C310 H314 0.930 . S
C311 C310 1.369 . S
C311 C320 1.429 . S
C312 C310 1.419 . S
C312 C313 1.363 . S
C312 H315 0.929 . S
C313 C312 1.363 . S
C313 C319 1.428 . S
H314 C310 0.930 . S
H315 C312 0.929 . S
S316 N317 1.613 . S
S316 N318 1.610 . S
N317 S316 1.613 . S
N317 C320 1.350 . S
N318 S316 1.610 . S
N318 C319 1.351 . S
C319 C313 1.428 . S
C319 N318 1.351 . S
C319 C320 1.434 . S
C320 C311 1.429 . S
C320 N317 1.350 . S
C320 C319 1.434 . S
C321 C322 1.369 . S
C321 C323 1.419 . S
C321 H325 0.930 . S
C322 C321 1.369 . S
C322 C331 1.429 . S
C323 C321 1.419 . S
C323 C324 1.363 . S
C323 H326 0.929 . S
C324 C323 1.363 . S
C324 C330 1.428 . S
H325 C321 0.930 . S
H326 C323 0.929 . S
S327 N328 1.613 . S
S327 N329 1.610 . S
N328 S327 1.613 . S
N328 C331 1.350 . S
N329 S327 1.610 . S
N329 C330 1.351 . S
C330 C324 1.428 . S
C330 N329 1.351 . S
C330 C331 1.434 . S
C331 C322 1.429 . S
C331 N328 1.350 . S
C331 C330 1.434 . S
C332 C333 1.369 . S
C332 C334 1.419 . S
C332 H336 0.930 . S
C333 C332 1.369 . S
C333 C342 1.429 . S
C334 C332 1.419 . S
C334 C335 1.363 . S
C334 H337 0.929 . S
C335 C334 1.363 . S
C335 C341 1.428 . S
H336 C332 0.930 . S
H337 C334 0.929 . S
S338 N339 1.613 . S
S338 N340 1.610 . S
N339 S338 1.613 . S
N339 C342 1.350 . S
N340 S338 1.610 . S
N340 C341 1.351 . S
C341 C335 1.428 . S
C341 N340 1.351 . S
C341 C342 1.434 . S
C342 C333 1.429 . S
C342 N339 1.350 . S
C342 C341 1.434 . S
C343 C344 1.369 . S
C343 C345 1.419 . S
C343 H347 0.930 . S
C344 C343 1.369 . S
C344 C353 1.429 . S
C345 C343 1.419 . S
C345 C346 1.363 . S
C345 H348 0.929 . S
C346 C345 1.363 . S
C346 C352 1.428 . S
H347 C343 0.930 . S
H348 C345 0.929 . S
S349 N350 1.613 . S
S349 N351 1.610 . S
N350 S349 1.613 . S
N350 C353 1.350 . S
N351 S349 1.610 . S
N351 C352 1.351 . S
C352 C346 1.428 . S
C352 N351 1.351 . S
C352 C353 1.434 . S
C353 C344 1.429 . S
C353 N350 1.350 . S
C353 C352 1.434 . S
C354 C355 1.369 . S
C354 C356 1.419 . S
C354 H358 0.930 . S
C355 C354 1.369 . S
C355 C364 1.429 . S
C356 C354 1.419 . S
C356 C357 1.363 . S
C356 H359 0.929 . S
C357 C356 1.363 . S
C357 C363 1.428 . S
H358 C354 0.930 . S
H359 C356 0.929 . S
S360 N361 1.613 . S
S360 N362 1.610 . S
N361 S360 1.613 . S
N361 C364 1.350 . S
N362 S360 1.610 . S
N362 C363 1.351 . S
C363 C357 1.428 . S
C363 N362 1.351 . S
C363 C364 1.434 . S
C364 C355 1.429 . S
C364 N361 1.350 . S
C364 C363 1.434 . S
C365 C366 1.369 . S
C365 C367 1.419 . S
C365 H369 0.930 . S
C366 C365 1.369 . S
C366 C375 1.429 . S
C367 C365 1.419 . S
C367 C368 1.363 . S
C367 H370 0.929 . S
C368 C367 1.363 . S
C368 C374 1.428 . S
H369 C365 0.930 . S
H370 C367 0.929 . S
S371 N372 1.613 . S
S371 N373 1.610 . S
N372 S371 1.613 . S
N372 C375 1.350 . S
N373 S371 1.610 . S
N373 C374 1.351 . S
C374 C368 1.428 . S
C374 N373 1.351 . S
C374 C375 1.434 . S
C375 C366 1.429 . S
C375 N372 1.350 . S
C375 C374 1.434 . S
C376 C377 1.369 . S
C376 C378 1.419 . S
C376 H380 0.930 . S
C377 C376 1.369 . S
C377 C386 1.429 . S
C378 C376 1.419 . S
C378 C379 1.363 . S
C378 H381 0.929 . S
C379 C378 1.363 . S
C379 C385 1.428 . S
H380 C376 0.930 . S
H381 C378 0.929 . S
S382 N383 1.613 . S
S382 N384 1.610 . S
N383 S382 1.613 . S
N383 C386 1.350 . S
N384 S382 1.610 . S
N384 C385 1.351 . S
C385 C379 1.428 . S
C385 N384 1.351 . S
C385 C386 1.434 . S
C386 C377 1.429 . S
C386 N383 1.350 . S
C386 C385 1.434 . S
C387 C388 1.369 . S
C387 C389 1.419 . S
C387 H391 0.930 . S
C388 C387 1.369 . S
C388 C397 1.429 . S
C389 C387 1.419 . S
C389 C390 1.363 . S
C389 H392 0.929 . S
C390 C389 1.363 . S
C390 C396 1.428 . S
H391 C387 0.930 . S
H392 C389 0.929 . S
S393 N394 1.613 . S
S393 N395 1.610 . S
N394 S393 1.613 . S
N394 C397 1.350 1_554 S
N395 S393 1.610 . S
N395 C396 1.351 1_554 S
C396 C390 1.428 . S
C396 N395 1.351 1_556 S
C396 C397 1.434 . S
C397 C388 1.429 . S
C397 N394 1.350 1_556 S
C397 C396 1.434 . S
C398 C399 1.369 . S
C398 C400 1.419 . S
C398 H402 0.930 . S
C399 C398 1.369 . S
C399 C408 1.429 . S
C400 C398 1.419 . S
C400 C401 1.363 . S
C400 H403 0.929 . S
C401 C400 1.363 . S
C401 C407 1.428 . S
H402 C398 0.930 . S
H403 C400 0.929 . S
S404 N405 1.613 . S
S404 N406 1.610 . S
N405 S404 1.613 . S
N405 C408 1.350 . S
N406 S404 1.610 . S
N406 C407 1.351 . S
C407 C401 1.428 . S
C407 N406 1.351 . S
C407 C408 1.434 . S
C408 C399 1.429 . S
C408 N405 1.350 . S
C408 C407 1.434 . S
C409 C410 1.369 . S
C409 C411 1.419 . S
C409 H413 0.930 . S
C410 C409 1.369 . S
C410 C419 1.429 . S
C411 C409 1.419 . S
C411 C412 1.363 . S
C411 H414 0.929 . S
C412 C411 1.363 . S
C412 C418 1.428 . S
H413 C409 0.930 . S
H414 C411 0.929 . S
S415 N416 1.613 . S
S415 N417 1.610 . S
N416 S415 1.613 . S
N416 C419 1.350 . S
N417 S415 1.610 . S
N417 C418 1.351 . S
C418 C412 1.428 . S
C418 N417 1.351 . S
C418 C419 1.434 . S
C419 C410 1.429 . S
C419 N416 1.350 . S
C419 C418 1.434 . S
C157 C138 1.461 . S
C159 C8 1.470 . S
C168 C21 1.386 . S
C170 C151 1.388 . S
C179 C34 1.466 . S
C181 C86 1.471 . S
C190 C99 1.465 . S
C192 C47 1.475 . S
C201 C112 1.381 . S
C203 C60 1.385 . S
C212 C73 1.466 . S
C214 C125 1.471 . S
C223 C0 1.070 . S
C225 C91 1.116 . S
C234 C13 0.993 . S
C236 C104 0.991 . S
C245 C117 1.063 . S
C247 C26 1.116 . S
C256 C130 1.117 . S
C258 C39 1.062 . S
C267 C143 0.989 . S
C269 C52 0.987 . S
C278 C78 1.074 . S
C280 C65 1.115 . S
C289 C10 1.082 . S
C291 C57 1.026 . S
C300 C23 1.055 . S
C302 C70 1.060 . S
C311 C36 1.084 . S
C313 C5 1.053 . S
C322 C49 1.071 . S
C324 C18 1.016 . S
C333 C62 1.053 . S
C335 C31 1.064 . S
C344 C75 1.082 . S
C346 C44 1.043 . S
C355 C88 1.071 . S
C357 C109 1.013 . S
C366 C101 1.076 . S
C368 C122 1.041 . S
C377 C135 1.058 . S
C379 C114 1.054 . S
C388 C127 1.079 . S
C390 C148 1.016 . S
C399 C140 1.077 . S
C401 C83 1.041 . S
C410 C153 1.051 . S
C412 C96 1.059 . S
