# Generated by pormake.
# Topology uov, (4)-cn, num edge types: 1
# Building blocks:
#     Node 0, Type 0, BuildingBlock: NAHDIM_clean_sbu_0, # of connection points: 4
#     Node 1, Type 0, BuildingBlock: NAHDIM_clean_sbu_0, # of connection points: 4
#     Node 2, Type 0, BuildingBlock: NAHDIM_clean_sbu_0, # of connection points: 4
#     Node 3, Type 0, BuildingBlock: NAHDIM_clean_sbu_0, # of connection points: 4
#     Node 4, Type 0, BuildingBlock: NAHDIM_clean_sbu_0, # of connection points: 4
#     Node 5, Type 0, BuildingBlock: NAHDIM_clean_sbu_0, # of connection points: 4
#     Node 6, Type 0, BuildingBlock: NAHDIM_clean_sbu_0, # of connection points: 4
#     Node 7, Type 0, BuildingBlock: NAHDIM_clean_sbu_0, # of connection points: 4
#     Edge 8, Type (0, 0), BuildingBlock: XUDNAN_clean_linker_2, # of connection points: 2
#     Edge 9, Type (0, 0), BuildingBlock: XUDNAN_clean_linker_2, # of connection points: 2
#     Edge 10, Type (0, 0), BuildingBlock: XUDNAN_clean_linker_2, # of connection points: 2
#     Edge 11, Type (0, 0), BuildingBlock: XUDNAN_clean_linker_2, # of connection points: 2
#     Edge 12, Type (0, 0), BuildingBlock: XUDNAN_clean_linker_2, # of connection points: 2
#     Edge 13, Type (0, 0), BuildingBlock: XUDNAN_clean_linker_2, # of connection points: 2
#     Edge 14, Type (0, 0), BuildingBlock: XUDNAN_clean_linker_2, # of connection points: 2
#     Edge 15, Type (0, 0), BuildingBlock: XUDNAN_clean_linker_2, # of connection points: 2
#     Edge 16, Type (0, 0), BuildingBlock: XUDNAN_clean_linker_2, # of connection points: 2
#     Edge 17, Type (0, 0), BuildingBlock: XUDNAN_clean_linker_2, # of connection points: 2
#     Edge 18, Type (0, 0), BuildingBlock: XUDNAN_clean_linker_2, # of connection points: 2
#     Edge 19, Type (0, 0), BuildingBlock: XUDNAN_clean_linker_2, # of connection points: 2
#     Edge 20, Type (0, 0), BuildingBlock: XUDNAN_clean_linker_2, # of connection points: 2
#     Edge 21, Type (0, 0), BuildingBlock: XUDNAN_clean_linker_2, # of connection points: 2
#     Edge 22, Type (0, 0), BuildingBlock: XUDNAN_clean_linker_2, # of connection points: 2
#     Edge 23, Type (0, 0), BuildingBlock: XUDNAN_clean_linker_2, # of connection points: 2
# Relax obj value: 0.256
# Max RMSD: 0.233
# Mean RMSD: 0.233
data_MOF--net-uov--node1-NAHDIM_clean_sbu_0--edge1-XUDNAN_clean_linker_2
_symmetry_space_group_name_H-M    P1
_symmetry_Int_Tables_number       1
_symmetry_cell_setting            triclinic
loop_
_symmetry_equiv_pos_as_xyz
'x, y, z'
_cell_length_a     30.131142
_cell_length_b     30.094949
_cell_length_c     41.20127
_cell_angle_alpha  89.940232
_cell_angle_beta   89.937065
_cell_angle_gamma 90.031016
loop_
_atom_site_label
_atom_site_type_symbol
_atom_site_fract_x
_atom_site_fract_y
_atom_site_fract_z
_atom_type_partial_charge
C0 C 0.02063 0.32288 0.62715 0.0
O1 O 0.05967 0.30833 0.61773 0.0
O2 O 0.93663 0.21138 0.59784 0.0
Zn3 Zn 0.9938 0.23111 0.61804 0.0
O4 O 0.00781 0.19557 0.65822 0.0
C5 C 0.03491 0.24112 0.55624 0.0
O6 O 0.00218 0.26961 0.55296 0.0
O7 O 0.98841 0.2958 0.62928 0.0
C8 C 0.04757 0.18496 0.66497 0.0
O9 O 0.07958 0.19696 0.64514 0.0
C10 C 0.90875 0.18374 0.60914 0.0
O11 O 0.91533 0.1662 0.63795 0.0
O12 O 0.03981 0.22128 0.58327 0.0
C13 C 0.3191 0.02282 0.3733 0.0
O14 O 0.30539 0.04829 0.39717 0.0
O15 O 0.2076 0.04336 0.3997 0.0
Zn16 Zn 0.22994 0.9883 0.37744 0.0
O17 O 0.18856 0.96999 0.34164 0.0
C18 C 0.23176 0.94763 0.44073 0.0
O19 O 0.23841 0.98874 0.45025 0.0
O20 O 0.29219 0.99537 0.36064 0.0
C21 C 0.14704 0.96843 0.34708 0.0
O22 O 0.13194 0.98122 0.37551 0.0
C23 C 0.19178 0.07811 0.38662 0.0
O24 O 0.1902 0.08111 0.35483 0.0
O25 O 0.22877 0.93929 0.41058 0.0
C26 C 0.00697 0.64672 0.61597 0.0
O27 O 0.04191 0.66098 0.59996 0.0
O28 O 0.03577 0.75104 0.58522 0.0
Zn29 Zn 0.97535 0.73548 0.60298 0.0
O30 O 0.95601 0.78013 0.63655 0.0
C31 C 0.94313 0.74358 0.53674 0.0
O32 O 0.98558 0.74316 0.52949 0.0
O33 O 0.97473 0.67312 0.62088 0.0
C34 C 0.94947 0.81982 0.62703 0.0
O35 O 0.95695 0.82986 0.59646 0.0
C36 C 0.0619 0.78096 0.59558 0.0
O37 O 0.05113 0.80402 0.62145 0.0
O38 O 0.93122 0.73941 0.56621 0.0
C39 C 0.64238 0.03171 0.36848 0.0
O40 O 0.65682 0.06363 0.38743 0.0
O41 O 0.7461 0.93485 0.38985 0.0
Zn42 Zn 0.73119 0.99808 0.37788 0.0
O43 O 0.77596 0.02408 0.34653 0.0
C44 C 0.74758 0.07103 0.42349 0.0
O45 O 0.75657 0.09459 0.39743 0.0
O46 O 0.66875 0.00069 0.36031 0.0
C47 C 0.81578 0.0296 0.35599 0.0
O48 O 0.82675 0.01711 0.38549 0.0
C49 C 0.77881 0.91211 0.37969 0.0
O50 O 0.80449 0.9283 0.35678 0.0
O51 O 0.73502 0.03096 0.42042 0.0
C52 C 0.00202 0.33499 0.15416 0.0
O53 O 0.03958 0.31722 0.16381 0.0
O54 O 0.0442 0.23119 0.12033 0.0
Zn55 Zn 0.98098 0.24535 0.13212 0.0
O56 O 0.95989 0.20834 0.16988 0.0
C57 C 0.91069 0.20791 0.09108 0.0
O58 O 0.89249 0.19452 0.11838 0.0
O59 O 0.97279 0.3105 0.14101 0.0
C60 C 0.98548 0.1974 0.19304 0.0
O61 O 0.02699 0.21077 0.19254 0.0
C62 C 0.06283 0.25554 0.09907 0.0
O63 O 0.04193 0.29108 0.08862 0.0
O64 O 0.94652 0.23009 0.09192 0.0
C65 C 0.34635 0.00359 0.87413 0.0
O66 O 0.32739 0.96446 0.877 0.0
O67 O 0.24737 0.97601 0.91548 0.0
Zn68 Zn 0.26033 0.03549 0.89464 0.0
O69 O 0.22047 0.04787 0.85647 0.0
C70 C 0.24248 0.0754 0.95753 0.0
O71 O 0.24352 0.03402 0.96765 0.0
O72 O 0.32397 0.03835 0.88025 0.0
C73 C 0.1796 0.05632 0.86102 0.0
O74 O 0.16351 0.05479 0.89067 0.0
C75 C 0.21729 0.94887 0.90688 0.0
O76 O 0.1928 0.95787 0.88136 0.0
O77 O 0.24958 0.08379 0.92771 0.0
C78 C 0.02777 0.65812 0.13653 0.0
O79 O 0.06837 0.67101 0.14332 0.0
O80 O 0.96873 0.77886 0.0899 0.0
Zn81 Zn 0.01739 0.74906 0.11485 0.0
O82 O 0.03066 0.78317 0.15558 0.0
C83 C 0.06501 0.75122 0.05513 0.0
O84 O 0.02544 0.74112 0.04397 0.0
O85 O 0.00069 0.68585 0.12438 0.0
C86 C 0.00085 0.79957 0.17381 0.0
O87 O 0.95887 0.79298 0.16671 0.0
C88 C 0.92807 0.76798 0.08817 0.0
O89 O 0.91274 0.73556 0.10637 0.0
O90 O 0.07094 0.75307 0.08566 0.0
C91 C 0.66781 0.97225 0.85147 0.0
O92 O 0.67919 0.9307 0.8566 0.0
O93 O 0.78963 0.04106 0.88188 0.0
Zn94 Zn 0.76131 0.98788 0.86089 0.0
O95 O 0.79398 0.96878 0.82075 0.0
C96 C 0.80511 0.92983 0.90265 0.0
O97 O 0.83822 0.95037 0.88824 0.0
O98 O 0.69763 0.00208 0.85143 0.0
C99 C 0.80683 0.99522 0.79861 0.0
O100 O 0.79821 0.03785 0.80132 0.0
C101 C 0.77397 0.05017 0.90976 0.0
O102 O 0.74035 0.02672 0.92077 0.0
O103 O 0.76572 0.93899 0.89398 0.0
H104 H 0.0685 0.58106 0.60636 0.0
H105 H 0.93757 0.60535 0.64676 0.0
H106 H 0.92951 0.52525 0.65833 0.0
H107 H 0.04212 0.48303 0.56608 0.0
H108 H 0.09421 0.45567 0.57397 0.0
H109 H 0.09183 0.51534 0.57217 0.0
H110 H 0.12605 0.52031 0.62974 0.0
H111 H 0.12874 0.46053 0.63167 0.0
H112 H 0.10008 0.49106 0.66292 0.0
H113 H 0.93267 0.44209 0.6605 0.0
H114 H 0.94741 0.36191 0.65417 0.0
H115 H 0.07664 0.39205 0.61292 0.0
C116 C 0.03843 0.56972 0.61818 0.0
C117 C 0.00368 0.59951 0.62569 0.0
C118 C 0.9647 0.58319 0.64086 0.0
C119 C 0.95984 0.53776 0.64757 0.0
C120 C 0.99438 0.50919 0.63923 0.0
C121 C 0.03306 0.52455 0.62509 0.0
C122 C 0.0641 0.48667 0.61678 0.0
C123 C 0.07359 0.4851 0.58008 0.0
C124 C 0.1073 0.48984 0.63646 0.0
C125 C 0.03626 0.44747 0.62757 0.0
C126 C 0.99633 0.46119 0.64071 0.0
C127 C 0.96407 0.43095 0.65068 0.0
C128 C 0.9727 0.38549 0.64688 0.0
C129 C 0.01326 0.37072 0.63318 0.0
C130 C 0.04558 0.40225 0.62385 0.0
H131 H 0.57446 0.08161 0.39311 0.0
H132 H 0.60279 0.97566 0.32475 0.0
H133 H 0.52252 0.96719 0.31421 0.0
H134 H 0.48312 0.0314 0.4287 0.0
H135 H 0.45179 0.0818 0.43443 0.0
H136 H 0.51141 0.08385 0.43315 0.0
H137 H 0.50808 0.14142 0.38638 0.0
H138 H 0.44831 0.1397 0.3876 0.0
H139 H 0.47717 0.12859 0.35014 0.0
H140 H 0.43918 0.96564 0.31499 0.0
H141 H 0.35929 0.96985 0.32787 0.0
H142 H 0.38578 0.07588 0.39659 0.0
C143 C 0.56392 0.05731 0.37534 0.0
C144 C 0.59491 0.02947 0.35959 0.0
C145 C 0.57964 0.99746 0.33701 0.0
C146 C 0.53413 0.99251 0.33079 0.0
C147 C 0.50441 0.01987 0.34729 0.0
C148 C 0.5187 0.05173 0.36904 0.0
C149 C 0.47997 0.07431 0.38565 0.0
C150 C 0.48169 0.06739 0.42266 0.0
C151 C 0.47829 0.12395 0.37691 0.0
C152 C 0.44166 0.04927 0.37057 0.0
C153 C 0.45638 0.01849 0.34814 0.0
C154 C 0.42722 0.98997 0.33222 0.0
C155 C 0.38189 0.99259 0.33975 0.0
C156 C 0.36624 0.02322 0.36323 0.0
C157 C 0.3966 0.05231 0.37838 0.0
H158 H 0.06368 0.39931 0.16839 0.0
H159 H 0.92554 0.38068 0.14168 0.0
H160 H 0.9159 0.4619 0.13836 0.0
H161 H 0.04746 0.50197 0.21641 0.0
H162 H 0.09874 0.52605 0.20223 0.0
H163 H 0.09358 0.46659 0.206 0.0
H164 H 0.11622 0.45761 0.14567 0.0
H165 H 0.12117 0.51694 0.14164 0.0
H166 H 0.08517 0.48644 0.11476 0.0
H167 H 0.92266 0.54421 0.13329 0.0
H168 H 0.94519 0.62255 0.12734 0.0
H169 H 0.0791 0.58806 0.15705 0.0
C170 C 0.03116 0.41231 0.16251 0.0
C171 C 0.99532 0.38363 0.15541 0.0
C172 C 0.95348 0.40199 0.14727 0.0
C173 C 0.94762 0.44809 0.14539 0.0
C174 C 0.98387 0.4754 0.15183 0.0
C175 C 0.02477 0.45829 0.1604 0.0
C176 C 0.05896 0.49487 0.16409 0.0
C177 C 0.07566 0.49752 0.19928 0.0
C178 C 0.09765 0.48858 0.1401 0.0
C179 C 0.03116 0.53505 0.15539 0.0
C180 C 0.98784 0.5231 0.14874 0.0
C181 C 0.95636 0.55409 0.13879 0.0
C182 C 0.96954 0.5985 0.13539 0.0
C183 C 0.0139 0.6115 0.14179 0.0
C184 C 0.04488 0.57928 0.15221 0.0
H185 H 0.40734 0.9363 0.86971 0.0
H186 H 0.39278 0.07916 0.85939 0.0
H187 H 0.47289 0.08575 0.84784 0.0
H188 H 0.50863 0.93924 0.9113 0.0
H189 H 0.53137 0.89043 0.8922 0.0
H190 H 0.47223 0.89633 0.89638 0.0
H191 H 0.46282 0.88601 0.83431 0.0
H192 H 0.52203 0.88003 0.82994 0.0
H193 H 0.4929 0.92167 0.80682 0.0
H194 H 0.555 0.07755 0.84116 0.0
H195 H 0.63378 0.05537 0.84108 0.0
H196 H 0.59495 0.9179 0.85626 0.0
C197 C 0.42083 0.9689 0.8645 0.0
C198 C 0.39377 0.0072 0.86533 0.0
C199 C 0.41286 0.04934 0.85886 0.0
C200 C 0.45829 0.05341 0.85215 0.0
C201 C 0.48413 0.01505 0.85194 0.0
C202 C 0.46612 0.9736 0.85792 0.0
C203 C 0.50162 0.93801 0.8583 0.0
C204 C 0.50357 0.91465 0.89152 0.0
C205 C 0.4944 0.90445 0.83069 0.0
C206 C 0.54252 0.96609 0.85235 0.0
C207 C 0.53164 0.01036 0.84838 0.0
C208 C 0.56393 0.04292 0.84393 0.0
C209 C 0.60859 0.02998 0.84397 0.0
C210 C 0.62056 0.98487 0.84862 0.0
C211 C 0.58691 0.95256 0.8524 0.0
H212 H 0.18546 0.07787 0.45279 0.0
H213 H 0.15235 0.15636 0.36772 0.0
H214 H 0.11424 0.21097 0.40286 0.0
H215 H 0.08423 0.09082 0.4924 0.0
H216 H 0.10743 0.09366 0.53265 0.0
H217 H 0.13616 0.06368 0.50129 0.0
H218 H 0.20649 0.11139 0.51097 0.0
H219 H 0.17801 0.14155 0.54249 0.0
H220 H 0.20272 0.17112 0.50895 0.0
H221 H 0.07426 0.25331 0.44691 0.0
H222 H 0.03516 0.27961 0.49597 0.0
H223 H 0.09494 0.17296 0.55186 0.0
C224 C 0.17091 0.10691 0.44149 0.0
C225 C 0.17205 0.11293 0.40747 0.0
C226 C 0.15207 0.15114 0.39373 0.0
C227 C 0.13043 0.18237 0.4135 0.0
C228 C 0.12931 0.17496 0.44693 0.0
C229 C 0.1492 0.13822 0.46079 0.0
C230 C 0.14092 0.13624 0.497 0.0
C231 C 0.11568 0.09359 0.50636 0.0
C232 C 0.18464 0.14033 0.51597 0.0
C233 C 0.11233 0.1771 0.50131 0.0
C234 C 0.10634 0.19925 0.47223 0.0
C235 C 0.07917 0.23656 0.46989 0.0
C236 C 0.05706 0.25121 0.49789 0.0
C237 C 0.06214 0.22849 0.5278 0.0
C238 C 0.09078 0.19142 0.52949 0.0
H239 H 0.20626 0.959 0.5038 0.0
H240 H 0.23049 0.85778 0.43103 0.0
H241 H 0.2009 0.80069 0.46825 0.0
H242 H 0.22636 0.88697 0.57772 0.0
H243 H 0.18167 0.91346 0.59944 0.0
H244 H 0.21364 0.9446 0.5702 0.0
H245 H 0.14132 0.9654 0.5398 0.0
H246 H 0.10925 0.93428 0.56872 0.0
H247 H 0.10484 0.9218 0.52607 0.0
H248 H 0.15747 0.75756 0.50854 0.0
H249 H 0.10258 0.73156 0.54873 0.0
H250 H 0.10587 0.86054 0.5956 0.0
C251 C 0.2069 0.92459 0.49617 0.0
C252 C 0.22103 0.9127 0.46467 0.0
C253 C 0.22005 0.86753 0.45515 0.0
C254 C 0.20351 0.83486 0.47619 0.0
C255 C 0.18829 0.84789 0.50669 0.0
C256 C 0.1901 0.89166 0.51678 0.0
C257 C 0.16624 0.89793 0.54883 0.0
C258 C 0.19894 0.91154 0.57564 0.0
C259 C 0.12817 0.93183 0.54563 0.0
C260 C 0.14883 0.85133 0.55437 0.0
C261 C 0.16271 0.82278 0.53011 0.0
C262 C 0.14721 0.77926 0.52808 0.0
C263 C 0.11591 0.76485 0.55094 0.0
C264 C 0.1003 0.79394 0.57541 0.0
C265 C 0.11801 0.83727 0.57764 0.0
H266 H 0.86148 0.87485 0.38234 0.0
H267 H 0.72809 0.86229 0.42098 0.0
H268 H 0.75467 0.80691 0.46059 0.0
H269 H 0.8977 0.75577 0.39773 0.0
H270 H 0.95261 0.77383 0.40898 0.0
H271 H 0.92151 0.80444 0.37901 0.0
H272 H 0.93151 0.87626 0.41283 0.0
H273 H 0.96209 0.84597 0.44299 0.0
H274 H 0.91347 0.87704 0.45458 0.0
H275 H 0.79732 0.76465 0.50203 0.0
H276 H 0.85267 0.73703 0.54128 0.0
H277 H 0.95859 0.77677 0.47594 0.0
C278 C 0.83753 0.85904 0.39821 0.0
C279 C 0.79266 0.87257 0.39841 0.0
C280 C 0.76258 0.8522 0.42029 0.0
C281 C 0.77735 0.8206 0.44282 0.0
C282 C 0.82224 0.8095 0.44303 0.0
C283 C 0.85185 0.82771 0.42103 0.0
C284 C 0.89916 0.81467 0.42902 0.0
C285 C 0.9189 0.78543 0.40208 0.0
C286 C 0.92822 0.85593 0.43523 0.0
C287 C 0.89171 0.78823 0.45983 0.0
C288 C 0.84706 0.78496 0.46719 0.0
C289 C 0.8323 0.76601 0.49615 0.0
C290 C 0.864 0.75061 0.51837 0.0
C291 C 0.90992 0.75443 0.51156 0.0
C292 C 0.92372 0.77255 0.48156 0.0
H293 H 0.79577 0.1452 0.43854 0.0
H294 H 0.72382 0.03535 0.48215 0.0
H295 H 0.74964 0.05872 0.53635 0.0
H296 H 0.88932 0.13438 0.48483 0.0
H297 H 0.90105 0.1929 0.48846 0.0
H298 H 0.87067 0.17261 0.45402 0.0
H299 H 0.8061 0.22668 0.46701 0.0
H300 H 0.83649 0.2474 0.5015 0.0
H301 H 0.78109 0.22593 0.50678 0.0
H302 H 0.79142 0.08778 0.58464 0.0
H303 H 0.84587 0.12011 0.62278 0.0
H304 H 0.8904 0.21051 0.54725 0.0
C305 C 0.78429 0.12687 0.45957 0.0
C306 C 0.75757 0.08864 0.45615 0.0
C307 C 0.74417 0.06488 0.48422 0.0
C308 C 0.75854 0.07798 0.51513 0.0
C309 C 0.78607 0.11503 0.51757 0.0
C310 C 0.79855 0.13933 0.49053 0.0
C311 C 0.83199 0.17489 0.49918 0.0
C312 C 0.87583 0.16826 0.48053 0.0
C313 C 0.81275 0.22149 0.49327 0.0
C314 C 0.83761 0.16574 0.53505 0.0
C315 C 0.81038 0.13158 0.54536 0.0
C316 C 0.81233 0.11511 0.577 0.0
C317 C 0.84341 0.13361 0.59847 0.0
C318 C 0.87231 0.16792 0.58807 0.0
C319 C 0.86851 0.18465 0.55612 0.0
H320 H 0.7572 0.06537 0.97392 0.0
H321 H 0.84097 0.10828 0.89402 0.0
H322 H 0.8812 0.1586 0.93121 0.0
H323 H 0.75198 0.17246 0.01672 0.0
H324 H 0.75429 0.14637 0.05608 0.0
H325 H 0.72914 0.11763 0.02244 0.0
H326 H 0.7821 0.05095 0.03162 0.0
H327 H 0.8075 0.07947 0.06515 0.0
H328 H 0.84123 0.06018 0.03187 0.0
H329 H 0.91563 0.19981 0.97794 0.0
H330 H 0.94282 0.22766 0.03055 0.0
H331 H 0.83705 0.15639 0.07992 0.0
C332 C 0.78342 0.08596 0.96402 0.0
C333 C 0.79577 0.08315 0.931 0.0
C334 C 0.83082 0.11008 0.9192 0.0
C335 C 0.85377 0.1388 0.94013 0.0
C336 C 0.84118 0.14016 0.97269 0.0
C337 C 0.80677 0.11449 0.98456 0.0
C338 C 0.80178 0.11962 0.02093 0.0
C339 C 0.75661 0.14026 0.02954 0.0
C340 C 0.80858 0.07491 0.0384 0.0
C341 C 0.83939 0.15152 0.02784 0.0
C342 C 0.86139 0.16338 -0.00033 0.0
C343 C 0.89839 0.19109 0.00011 0.0
C344 C 0.91359 0.2067 0.03016 0.0
C345 C 0.89202 0.19427 0.05941 0.0
C346 C 0.85409 0.16676 0.05803 0.0
H347 H 0.20489 0.06658 0.01762 0.0
H348 H 0.24712 0.16521 0.94715 0.0
H349 H 0.21593 0.22454 0.98164 0.0
H350 H 0.1031 0.11185 0.03232 0.0
H351 H 0.10108 0.099 0.07504 0.0
H352 H 0.13409 0.06548 0.04825 0.0
H353 H 0.20355 0.08044 0.08367 0.0
H354 H 0.17061 0.11414 0.11066 0.0
H355 H 0.21989 0.13687 0.09216 0.0
H356 H 0.17113 0.27144 0.01925 0.0
H357 H 0.11393 0.30188 0.05587 0.0
H358 H 0.10042 0.17277 0.10184 0.0
C359 C 0.20879 0.10076 0.0099 0.0
C360 C 0.22871 0.11132 0.97982 0.0
C361 C 0.23215 0.15637 0.97018 0.0
C362 C 0.21476 0.19032 0.98971 0.0
C363 C 0.19425 0.17868 0.01885 0.0
C364 C 0.19134 0.13497 0.02898 0.0
C365 C 0.16306 0.13071 0.05924 0.0
C366 C 0.12297 0.09997 0.05333 0.0
C367 C 0.19096 0.11459 0.08815 0.0
C368 C 0.14884 0.17855 0.06368 0.0
C369 C 0.16794 0.20585 0.04054 0.0
C370 C 0.15663 0.25059 0.03787 0.0
C371 C 0.12402 0.26757 0.05875 0.0
C372 C 0.10286 0.23976 0.0818 0.0
C373 C 0.11656 0.19507 0.08489 0.0
H374 H 0.05286 0.78141 0.9933 0.0
H375 H 0.1535 0.76376 0.06744 0.0
H376 H 0.20735 0.80454 0.03328 0.0
H377 H 0.12756 0.77676 0.92102 0.0
H378 H 0.09683 0.81983 0.90053 0.0
H379 H 0.06878 0.78262 0.92807 0.0
H380 H 0.03965 0.85006 0.96084 0.0
H381 H 0.06756 0.88734 0.93356 0.0
H382 H 0.07856 0.89009 0.97651 0.0
H383 H 0.24649 0.85603 0.99504 0.0
H384 H 0.26812 0.91393 0.9556 0.0
H385 H 0.14169 0.89834 0.90654 0.0
C386 C 0.08666 0.7847 0.00189 0.0
C387 C 0.0992 0.76894 0.03286 0.0
C388 C 0.14334 0.77526 0.04367 0.0
C389 C 0.17415 0.79828 0.0244 0.0
C390 C 0.16028 0.8147 0.99442 0.0
C391 C 0.11761 0.80799 0.98314 0.0
C392 C 0.10946 0.83326 0.95189 0.0
C393 C 0.10012 0.80119 0.92371 0.0
C394 C 0.0716 0.86719 0.95597 0.0
C395 C 0.15383 0.85617 0.94778 0.0
C396 C 0.18284 0.84468 0.97237 0.0
C397 C 0.22439 0.86461 0.97532 0.0
C398 C 0.23632 0.89757 0.95287 0.0
C399 C 0.20673 0.91038 0.92784 0.0
C400 C 0.16538 0.88865 0.92498 0.0
H401 H 0.88573 0.90578 0.92697 0.0
H402 H 0.74421 0.88713 0.94151 0.0
H403 H 0.75969 0.84195 0.99045 0.0
H404 H 0.91864 0.79575 0.95337 0.0
H405 H 0.96841 0.81455 0.9732 0.0
H406 H 0.94748 0.84411 0.93836 0.0
H407 H 0.94422 0.91749 0.9706 0.0
H408 H 0.96665 0.88936 0.00545 0.0
H409 H 0.91499 0.91924 0.00878 0.0
H410 H 0.79154 0.80043 0.0392 0.0
H411 H 0.83695 0.76651 0.08288 0.0
H412 H 0.95639 0.8155 0.03593 0.0
C413 C 0.8579 0.89189 0.94019 0.0
C414 C 0.81376 0.89994 0.93041 0.0
C415 C 0.77834 0.88123 0.94851 0.0
C416 C 0.7868 0.85559 0.97635 0.0
C417 C 0.8308 0.84897 0.98561 0.0
C418 C 0.86571 0.86645 0.96792 0.0
C419 C 0.90993 0.85552 0.9832 0.0
C420 C 0.93775 0.82573 0.96068 0.0
C421 C 0.93541 0.89794 0.99257 0.0
C422 C 0.89448 0.83027 0.0128 0.0
C423 C 0.84883 0.82616 0.01368 0.0
C424 C 0.82732 0.80349 0.03874 0.0
C425 C 0.8533 0.78441 0.06343 0.0
C426 C 0.90009 0.78875 0.06297 0.0
C427 C 0.92064 0.81207 0.03728 0.0
H428 H 0.12895 0.15618 0.68592 0.0
H429 H 0.98973 0.16008 0.71313 0.0
H430 H 0.0078 0.12362 0.76519 0.0
H431 H 0.15375 0.04852 0.72278 0.0
H432 H 0.20832 0.06555 0.73566 0.0
H433 H 0.18397 0.08962 0.6998 0.0
H434 H 0.19511 0.16841 0.72381 0.0
H435 H 0.21941 0.14462 0.75972 0.0
H436 H 0.17231 0.18121 0.76318 0.0
H437 H 0.04184 0.0914 0.8158 0.0
H438 H 0.08909 0.06436 0.86063 0.0
H439 H 0.20567 0.08018 0.79967 0.0
C440 C 0.10214 0.14901 0.70265 0.0
C441 C 0.05791 0.16103 0.69544 0.0
C442 C 0.02387 0.15115 0.7181 0.0
C443 C 0.03379 0.1304 0.74772 0.0
C444 C 0.07783 0.11947 0.75421 0.0
C445 C 0.11141 0.12819 0.73224 0.0
C446 C 0.15618 0.11438 0.74548 0.0
C447 C 0.17676 0.07731 0.72469 0.0
C448 C 0.18758 0.15455 0.74821 0.0
C449 C 0.14266 0.09725 0.77859 0.0
C450 C 0.09732 0.10034 0.78314 0.0
C451 C 0.07733 0.08839 0.8124 0.0
C452 C 0.10445 0.07317 0.83773 0.0
C453 C 0.15102 0.06993 0.8336 0.0
C454 C 0.17013 0.08175 0.80347 0.0
H455 H 0.08459 0.82505 0.19153 0.0
H456 H 0.94618 0.83691 0.21965 0.0
H457 H 0.96809 0.88392 0.26616 0.0
H458 H 0.12922 0.81785 0.2715 0.0
H459 H 0.17811 0.84984 0.26191 0.0
H460 H 0.15114 0.81781 0.23077 0.0
H461 H 0.14369 0.88865 0.19533 0.0
H462 H 0.17045 0.92096 0.22645 0.0
H463 H 0.11645 0.93699 0.21176 0.0
H464 H 0.00578 0.92838 0.3104 0.0
H465 H 0.0561 0.96587 0.34901 0.0
H466 H 0.16927 0.92554 0.29076 0.0
C467 C 0.05878 0.83747 0.20743 0.0
C468 C 0.01363 0.82723 0.20197 0.0
C469 C 0.98098 0.8443 0.22336 0.0
C470 C 0.9931 0.87108 0.2498 0.0
C471 C 0.03794 0.88062 0.25437 0.0
C472 C 0.07023 0.86432 0.23375 0.0
C473 C 0.11612 0.87899 0.24407 0.0
C474 C 0.14535 0.83873 0.25258 0.0
C475 C 0.13794 0.90813 0.21784 0.0
C476 C 0.10471 0.90583 0.27394 0.0
C477 C 0.05947 0.90649 0.27949 0.0
C478 C 0.04124 0.92825 0.3062 0.0
C479 C 0.07009 0.94945 0.32798 0.0
C480 C 0.11661 0.94877 0.32286 0.0
C481 C 0.13388 0.92703 0.29524 0.0
H482 H 0.91817 0.80772 0.68899 0.0
H483 H 0.94163 0.90913 0.61592 0.0
H484 H 0.91011 0.9658 0.65258 0.0
H485 H 0.8141 0.84883 0.71547 0.0
H486 H 0.8229 0.83523 0.75759 0.0
H487 H 0.8498 0.80316 0.72642 0.0
H488 H 0.9264 0.81945 0.75243 0.0
H489 H 0.8997 0.85148 0.78377 0.0
H490 H 0.94293 0.87621 0.75946 0.0
H491 H 0.87371 0.01109 0.69668 0.0
H492 H 0.83449 0.04113 0.74462 0.0
H493 H 0.83404 0.90963 0.78811 0.0
C494 C 0.91714 0.84191 0.68081 0.0
C495 C 0.93248 0.854 0.64962 0.0
C496 C 0.93008 0.89906 0.63972 0.0
C497 C 0.91231 0.93153 0.66038 0.0
C498 C 0.89703 0.91839 0.69084 0.0
C499 C 0.8993 0.87467 0.70103 0.0
C500 C 0.87911 0.86894 0.73442 0.0
C501 C 0.83911 0.83717 0.73339 0.0
C502 C 0.91413 0.85309 0.75897 0.0
C503 C 0.86477 0.91618 0.74129 0.0
C504 C 0.87563 0.9443 0.71598 0.0
C505 C 0.86515 0.98941 0.71671 0.0
C506 C 0.84286 0.00615 0.74402 0.0
C507 C 0.83111 0.97777 0.7701 0.0
C508 C 0.84247 0.93225 0.7686 0.0
H509 H 0.80257 0.06627 0.29567 0.0
H510 H 0.90412 0.04213 0.36829 0.0
H511 H 0.95913 0.08059 0.33385 0.0
H512 H 0.87355 0.05177 0.22503 0.0
H513 H 0.84679 0.0954 0.20234 0.0
H514 H 0.81585 0.0643 0.23213 0.0
H515 H 0.79458 0.13759 0.26123 0.0
H516 H 0.82553 0.16889 0.2316 0.0
H517 H 0.83778 0.17505 0.27417 0.0
H518 H 0.00257 0.1239 0.29231 0.0
H519 H 0.03125 0.16857 0.24654 0.0
H520 H 0.90121 0.16457 0.20127 0.0
C521 C 0.83645 0.06873 0.30424 0.0
C522 C 0.84902 0.05111 0.33467 0.0
C523 C 0.89366 0.05533 0.34506 0.0
C524 C 0.92519 0.07709 0.32567 0.0
C525 C 0.91159 0.09444 0.29594 0.0
C526 C 0.86832 0.09041 0.28523 0.0
C527 C 0.86204 0.11296 0.25268 0.0
C528 C 0.84879 0.07908 0.2265 0.0
C529 C 0.82797 0.15087 0.25508 0.0
C530 C 0.90843 0.13067 0.24693 0.0
C531 C 0.93657 0.11948 0.27209 0.0
C532 C 0.98089 0.13272 0.2724 0.0
C533 C 0.99686 0.15813 0.2463 0.0
C534 C 0.96853 0.1701 0.22029 0.0
C535 C 0.92377 0.15596 0.22072 0.0
loop_
_geom_bond_atom_site_label_1
_geom_bond_atom_site_label_2
_geom_bond_distance
_geom_bond_site_symmetry_2
_ccdc_geom_bond_type
C0 O1 1.179 . S
C0 O7 1.185 . S
O1 C0 1.179 . S
O2 Zn3 1.899 1_655 S
O2 C10 1.284 . S
Zn3 O2 1.899 1_455 S
Zn3 O4 2.032 . S
Zn3 O7 2.086 . S
Zn3 O12 1.977 . S
O4 Zn3 2.032 . S
O4 C8 1.278 . S
C5 O6 1.203 . S
C5 O12 1.267 . S
O6 C5 1.203 . S
O7 C0 1.185 . S
O7 Zn3 2.086 . S
C8 O4 1.278 . S
C8 O9 1.211 . S
O9 C8 1.211 . S
C10 O2 1.284 . S
C10 O11 1.273 . S
O11 C10 1.273 . S
O12 Zn3 1.977 . S
O12 C5 1.267 . S
C13 O14 1.179 . S
C13 O20 1.185 . S
O14 C13 1.179 . S
O15 Zn16 1.899 1_545 S
O15 C23 1.284 . S
Zn16 O15 1.899 1_565 S
Zn16 O17 2.032 . S
Zn16 O20 2.086 . S
Zn16 O25 1.977 . S
O17 Zn16 2.032 . S
O17 C21 1.278 . S
C18 O19 1.203 . S
C18 O25 1.267 . S
O19 C18 1.203 . S
O20 C13 1.185 . S
O20 Zn16 2.086 . S
C21 O17 1.278 . S
C21 O22 1.211 . S
O22 C21 1.211 . S
C23 O15 1.284 . S
C23 O24 1.273 . S
O24 C23 1.273 . S
O25 Zn16 1.977 . S
O25 C18 1.267 . S
C26 O27 1.179 . S
C26 O33 1.185 . S
O27 C26 1.179 . S
O28 Zn29 1.899 1_455 S
O28 C36 1.284 . S
Zn29 O28 1.899 1_655 S
Zn29 O30 2.032 . S
Zn29 O33 2.086 . S
Zn29 O38 1.977 . S
O30 Zn29 2.032 . S
O30 C34 1.278 . S
C31 O32 1.203 . S
C31 O38 1.267 . S
O32 C31 1.203 . S
O33 C26 1.185 . S
O33 Zn29 2.086 . S
C34 O30 1.278 . S
C34 O35 1.211 . S
O35 C34 1.211 . S
C36 O28 1.284 . S
C36 O37 1.273 . S
O37 C36 1.273 . S
O38 Zn29 1.977 . S
O38 C31 1.267 . S
C39 O40 1.179 . S
C39 O46 1.185 . S
O40 C39 1.179 . S
O41 Zn42 1.899 1_565 S
O41 C49 1.284 . S
Zn42 O41 1.899 1_545 S
Zn42 O43 2.032 . S
Zn42 O46 2.086 . S
Zn42 O51 1.977 . S
O43 Zn42 2.032 . S
O43 C47 1.278 . S
C44 O45 1.203 . S
C44 O51 1.267 . S
O45 C44 1.203 . S
O46 C39 1.185 . S
O46 Zn42 2.086 . S
C47 O43 1.278 . S
C47 O48 1.211 . S
O48 C47 1.211 . S
C49 O41 1.284 . S
C49 O50 1.273 . S
O50 C49 1.273 . S
O51 Zn42 1.977 . S
O51 C44 1.267 . S
C52 O53 1.179 . S
C52 O59 1.185 . S
O53 C52 1.179 . S
O54 Zn55 1.899 1_455 S
O54 C62 1.284 . S
Zn55 O54 1.899 1_655 S
Zn55 O56 2.032 . S
Zn55 O59 2.086 . S
Zn55 O64 1.977 . S
O56 Zn55 2.032 . S
O56 C60 1.278 . S
C57 O58 1.203 . S
C57 O64 1.267 . S
O58 C57 1.203 . S
O59 C52 1.185 . S
O59 Zn55 2.086 . S
C60 O56 1.278 . S
C60 O61 1.211 . S
O61 C60 1.211 . S
C62 O54 1.284 . S
C62 O63 1.273 . S
O63 C62 1.273 . S
O64 Zn55 1.977 . S
O64 C57 1.267 . S
C65 O66 1.179 . S
C65 O72 1.185 . S
O66 C65 1.179 . S
O67 Zn68 1.899 1_565 S
O67 C75 1.284 . S
Zn68 O67 1.899 1_545 S
Zn68 O69 2.032 . S
Zn68 O72 2.086 . S
Zn68 O77 1.977 . S
O69 Zn68 2.032 . S
O69 C73 1.278 . S
C70 O71 1.203 . S
C70 O77 1.267 . S
O71 C70 1.203 . S
O72 C65 1.185 . S
O72 Zn68 2.086 . S
C73 O69 1.278 . S
C73 O74 1.211 . S
O74 C73 1.211 . S
C75 O67 1.284 . S
C75 O76 1.273 . S
O76 C75 1.273 . S
O77 Zn68 1.977 . S
O77 C70 1.267 . S
C78 O79 1.179 . S
C78 O85 1.185 . S
O79 C78 1.179 . S
O80 Zn81 1.899 1_655 S
O80 C88 1.284 . S
Zn81 O80 1.899 1_455 S
Zn81 O82 2.032 . S
Zn81 O85 2.086 . S
Zn81 O90 1.977 . S
O82 Zn81 2.032 . S
O82 C86 1.278 . S
C83 O84 1.203 . S
C83 O90 1.267 . S
O84 C83 1.203 . S
O85 C78 1.185 . S
O85 Zn81 2.086 . S
C86 O82 1.278 . S
C86 O87 1.211 . S
O87 C86 1.211 . S
C88 O80 1.284 . S
C88 O89 1.273 . S
O89 C88 1.273 . S
O90 Zn81 1.977 . S
O90 C83 1.267 . S
C91 O92 1.179 . S
C91 O98 1.185 . S
O92 C91 1.179 . S
O93 Zn94 1.899 1_545 S
O93 C101 1.284 . S
Zn94 O93 1.899 1_565 S
Zn94 O95 2.032 . S
Zn94 O98 2.086 . S
Zn94 O103 1.977 . S
O95 Zn94 2.032 . S
O95 C99 1.278 . S
C96 O97 1.203 . S
C96 O103 1.267 . S
O97 C96 1.203 . S
O98 C91 1.185 . S
O98 Zn94 2.086 . S
C99 O95 1.278 . S
C99 O100 1.211 . S
O100 C99 1.211 . S
C101 O93 1.284 . S
C101 O102 1.273 . S
O102 C101 1.273 . S
O103 Zn94 1.977 . S
O103 C96 1.267 . S
H104 C116 0.930 . S
H105 C118 0.930 . S
H106 C119 0.930 . S
H107 C123 0.959 . S
H108 C123 0.959 . S
H109 C123 0.961 . S
H110 C124 0.960 . S
H111 C124 0.961 1_455 S
H112 C124 0.959 . S
H113 C127 0.929 . S
H114 C128 0.931 . S
H115 C130 0.930 . S
C116 H104 0.930 . S
C116 C117 1.399 . S
C116 C121 1.399 . S
C117 C116 1.399 . S
C117 C118 1.376 . S
C118 H105 0.930 . S
C118 C117 1.376 . S
C118 C119 1.388 . S
C119 H106 0.930 . S
C119 C118 1.388 . S
C119 C120 1.390 . S
C120 C119 1.390 . S
C120 C121 1.394 . S
C120 C126 1.465 . S
C121 C116 1.399 . S
C121 C120 1.394 . S
C121 C122 1.516 1_655 S
C122 C121 1.516 1_455 S
C122 C123 1.502 . S
C122 C124 1.561 1_455 S
C122 C125 1.526 . S
C123 H107 0.959 . S
C123 H108 0.959 . S
C123 H109 0.961 . S
C123 C122 1.502 . S
C124 H110 0.960 . S
C124 H111 0.961 1_655 S
C124 H112 0.959 . S
C124 C122 1.561 1_655 S
C125 C122 1.526 . S
C125 C126 1.396 1_455 S
C125 C130 1.390 . S
C126 C120 1.465 . S
C126 C125 1.396 1_655 S
C126 C127 1.399 . S
C127 H113 0.929 . S
C127 C126 1.399 . S
C127 C128 1.385 1_655 S
C128 H114 0.931 . S
C128 C127 1.385 1_455 S
C128 C129 1.389 . S
C129 C128 1.389 . S
C129 C130 1.387 . S
C130 H115 0.930 . S
C130 C125 1.390 . S
C130 C129 1.387 . S
H131 C143 0.930 . S
H132 C145 0.930 . S
H133 C146 0.930 . S
H134 C150 0.959 . S
H135 C150 0.959 . S
H136 C150 0.961 . S
H137 C151 0.960 . S
H138 C151 0.961 . S
H139 C151 0.959 . S
H140 C154 0.929 . S
H141 C155 0.931 . S
H142 C157 0.930 . S
C143 H131 0.930 . S
C143 C144 1.399 . S
C143 C148 1.399 . S
C144 C143 1.399 . S
C144 C145 1.376 . S
C145 H132 0.930 . S
C145 C144 1.376 . S
C145 C146 1.388 1_545 S
C146 H133 0.930 . S
C146 C145 1.388 1_565 S
C146 C147 1.390 . S
C147 C146 1.390 . S
C147 C148 1.394 1_565 S
C147 C153 1.465 . S
C148 C143 1.399 . S
C148 C147 1.394 1_545 S
C148 C149 1.516 . S
C149 C148 1.516 . S
C149 C150 1.502 . S
C149 C151 1.561 1_545 S
C149 C152 1.526 1_545 S
C150 H134 0.959 . S
C150 H135 0.959 . S
C150 H136 0.961 . S
C150 C149 1.502 . S
C151 H137 0.960 . S
C151 H138 0.961 . S
C151 H139 0.959 . S
C151 C149 1.561 1_565 S
C152 C149 1.526 1_565 S
C152 C153 1.396 . S
C152 C157 1.390 . S
C153 C147 1.465 . S
C153 C152 1.396 . S
C153 C154 1.399 . S
C154 H140 0.929 . S
C154 C153 1.399 . S
C154 C155 1.385 . S
C155 H141 0.931 . S
C155 C154 1.385 . S
C155 C156 1.389 . S
C156 C155 1.389 . S
C156 C157 1.387 . S
C157 H142 0.930 . S
C157 C152 1.390 . S
C157 C156 1.387 . S
H158 C170 0.930 . S
H159 C172 0.930 . S
H160 C173 0.930 . S
H161 C177 0.959 . S
H162 C177 0.959 . S
H163 C177 0.961 . S
H164 C178 0.960 . S
H165 C178 0.961 . S
H166 C178 0.959 . S
H167 C181 0.929 . S
H168 C182 0.931 . S
H169 C184 0.930 . S
C170 H158 0.930 . S
C170 C171 1.399 . S
C170 C175 1.399 . S
C171 C170 1.399 . S
C171 C172 1.376 . S
C172 H159 0.930 . S
C172 C171 1.376 . S
C172 C173 1.388 1_655 S
C173 H160 0.930 . S
C173 C172 1.388 1_455 S
C173 C174 1.390 . S
C174 C173 1.390 . S
C174 C175 1.394 1_455 S
C174 C180 1.465 . S
C175 C170 1.399 . S
C175 C174 1.394 1_655 S
C175 C176 1.516 . S
C176 C175 1.516 . S
C176 C177 1.502 . S
C176 C178 1.561 1_655 S
C176 C179 1.526 1_655 S
C177 H161 0.959 . S
C177 H162 0.959 . S
C177 H163 0.961 . S
C177 C176 1.502 . S
C178 H164 0.960 . S
C178 H165 0.961 . S
C178 H166 0.959 . S
C178 C176 1.561 1_455 S
C179 C176 1.526 1_455 S
C179 C180 1.396 . S
C179 C184 1.390 . S
C180 C174 1.465 . S
C180 C179 1.396 . S
C180 C181 1.399 . S
C181 H167 0.929 . S
C181 C180 1.399 . S
C181 C182 1.385 . S
C182 H168 0.931 . S
C182 C181 1.385 . S
C182 C183 1.389 . S
C183 C182 1.389 . S
C183 C184 1.387 . S
C184 H169 0.930 . S
C184 C179 1.390 . S
C184 C183 1.387 . S
H185 C197 0.930 . S
H186 C199 0.930 . S
H187 C200 0.930 . S
H188 C204 0.959 . S
H189 C204 0.959 . S
H190 C204 0.961 . S
H191 C205 0.960 . S
H192 C205 0.961 1_565 S
H193 C205 0.959 . S
H194 C208 0.929 . S
H195 C209 0.931 . S
H196 C211 0.930 . S
C197 H185 0.930 . S
C197 C198 1.399 . S
C197 C202 1.399 . S
C198 C197 1.399 . S
C198 C199 1.376 . S
C199 H186 0.930 . S
C199 C198 1.376 . S
C199 C200 1.388 . S
C200 H187 0.930 . S
C200 C199 1.388 . S
C200 C201 1.390 . S
C201 C200 1.390 . S
C201 C202 1.394 . S
C201 C207 1.465 . S
C202 C197 1.399 . S
C202 C201 1.394 . S
C202 C203 1.516 1_545 S
C203 C202 1.516 1_565 S
C203 C204 1.502 . S
C203 C205 1.561 1_565 S
C203 C206 1.526 . S
C204 H188 0.959 . S
C204 H189 0.959 . S
C204 H190 0.961 . S
C204 C203 1.502 . S
C205 H191 0.960 . S
C205 H192 0.961 1_545 S
C205 H193 0.959 . S
C205 C203 1.561 1_545 S
C206 C203 1.526 . S
C206 C207 1.396 1_565 S
C206 C211 1.390 . S
C207 C201 1.465 . S
C207 C206 1.396 1_545 S
C207 C208 1.399 . S
C208 H194 0.929 . S
C208 C207 1.399 . S
C208 C209 1.385 1_545 S
C209 H195 0.931 . S
C209 C208 1.385 1_565 S
C209 C210 1.389 . S
C210 C209 1.389 . S
C210 C211 1.387 . S
C211 H196 0.930 . S
C211 C206 1.390 . S
C211 C210 1.387 . S
H212 C224 0.930 . S
H213 C226 0.930 . S
H214 C227 0.930 . S
H215 C231 0.959 . S
H216 C231 0.959 . S
H217 C231 0.961 . S
H218 C232 0.960 . S
H219 C232 0.961 . S
H220 C232 0.959 . S
H221 C235 0.929 . S
H222 C236 0.931 . S
H223 C238 0.930 . S
C224 H212 0.930 . S
C224 C225 1.399 . S
C224 C229 1.399 . S
C225 C224 1.399 . S
C225 C226 1.376 . S
C226 H213 0.930 . S
C226 C225 1.376 . S
C226 C227 1.388 . S
C227 H214 0.930 . S
C227 C226 1.388 . S
C227 C228 1.390 . S
C228 C227 1.390 . S
C228 C229 1.394 . S
C228 C234 1.465 . S
C229 C224 1.399 . S
C229 C228 1.394 . S
C229 C230 1.516 . S
C230 C229 1.516 . S
C230 C231 1.502 . S
C230 C232 1.561 . S
C230 C233 1.526 . S
C231 H215 0.959 . S
C231 H216 0.959 . S
C231 H217 0.961 . S
C231 C230 1.502 . S
C232 H218 0.960 . S
C232 H219 0.961 . S
C232 H220 0.959 . S
C232 C230 1.561 . S
C233 C230 1.526 . S
C233 C234 1.396 . S
C233 C238 1.390 . S
C234 C228 1.465 . S
C234 C233 1.396 . S
C234 C235 1.399 . S
C235 H221 0.929 . S
C235 C234 1.399 . S
C235 C236 1.385 . S
C236 H222 0.931 . S
C236 C235 1.385 . S
C236 C237 1.389 . S
C237 C236 1.389 . S
C237 C238 1.387 . S
C238 H223 0.930 . S
C238 C233 1.390 . S
C238 C237 1.387 . S
H239 C251 0.930 . S
H240 C253 0.930 . S
H241 C254 0.930 . S
H242 C258 0.959 . S
H243 C258 0.959 . S
H244 C258 0.961 . S
H245 C259 0.960 . S
H246 C259 0.961 . S
H247 C259 0.959 . S
H248 C262 0.929 . S
H249 C263 0.931 . S
H250 C265 0.930 . S
C251 H239 0.930 . S
C251 C252 1.399 . S
C251 C256 1.399 . S
C252 C251 1.399 . S
C252 C253 1.376 . S
C253 H240 0.930 . S
C253 C252 1.376 . S
C253 C254 1.388 . S
C254 H241 0.930 . S
C254 C253 1.388 . S
C254 C255 1.390 . S
C255 C254 1.390 . S
C255 C256 1.394 . S
C255 C261 1.465 . S
C256 C251 1.399 . S
C256 C255 1.394 . S
C256 C257 1.516 . S
C257 C256 1.516 . S
C257 C258 1.502 . S
C257 C259 1.561 . S
C257 C260 1.526 . S
C258 H242 0.959 . S
C258 H243 0.959 . S
C258 H244 0.961 . S
C258 C257 1.502 . S
C259 H245 0.960 . S
C259 H246 0.961 . S
C259 H247 0.959 . S
C259 C257 1.561 . S
C260 C257 1.526 . S
C260 C261 1.396 . S
C260 C265 1.390 . S
C261 C255 1.465 . S
C261 C260 1.396 . S
C261 C262 1.399 . S
C262 H248 0.929 . S
C262 C261 1.399 . S
C262 C263 1.385 . S
C263 H249 0.931 . S
C263 C262 1.385 . S
C263 C264 1.389 . S
C264 C263 1.389 . S
C264 C265 1.387 . S
C265 H250 0.930 . S
C265 C260 1.390 . S
C265 C264 1.387 . S
H266 C278 0.930 . S
H267 C280 0.930 1_545 S
H268 C281 0.930 . S
H269 C285 0.959 . S
H270 C285 0.959 . S
H271 C285 0.961 . S
H272 C286 0.960 . S
H273 C286 0.961 . S
H274 C286 0.959 . S
H275 C289 0.929 . S
H276 C290 0.931 . S
H277 C292 0.930 . S
C278 H266 0.930 . S
C278 C279 1.399 . S
C278 C283 1.399 . S
C279 C278 1.399 . S
C279 C280 1.376 . S
C280 H267 0.930 1_565 S
C280 C279 1.376 . S
C280 C281 1.388 . S
C281 H268 0.930 . S
C281 C280 1.388 . S
C281 C282 1.390 . S
C282 C281 1.390 . S
C282 C283 1.394 . S
C282 C288 1.465 . S
C283 C278 1.399 . S
C283 C282 1.394 . S
C283 C284 1.516 . S
C284 C283 1.516 . S
C284 C285 1.502 . S
C284 C286 1.561 . S
C284 C287 1.526 . S
C285 H269 0.959 . S
C285 H270 0.959 . S
C285 H271 0.961 . S
C285 C284 1.502 . S
C286 H272 0.960 . S
C286 H273 0.961 . S
C286 H274 0.959 . S
C286 C284 1.561 . S
C287 C284 1.526 . S
C287 C288 1.396 . S
C287 C292 1.390 . S
C288 C282 1.465 . S
C288 C287 1.396 . S
C288 C289 1.399 . S
C289 H275 0.929 . S
C289 C288 1.399 . S
C289 C290 1.385 . S
C290 H276 0.931 . S
C290 C289 1.385 . S
C290 C291 1.389 . S
C291 C290 1.389 . S
C291 C292 1.387 . S
C292 H277 0.930 . S
C292 C287 1.390 . S
C292 C291 1.387 . S
H293 C305 0.930 . S
H294 C307 0.930 . S
H295 C308 0.930 . S
H296 C312 0.959 . S
H297 C312 0.959 . S
H298 C312 0.961 . S
H299 C313 0.960 . S
H300 C313 0.961 . S
H301 C313 0.959 . S
H302 C316 0.929 . S
H303 C317 0.931 . S
H304 C319 0.930 . S
C305 H293 0.930 . S
C305 C306 1.399 . S
C305 C310 1.399 . S
C306 C305 1.399 . S
C306 C307 1.376 . S
C307 H294 0.930 . S
C307 C306 1.376 . S
C307 C308 1.388 . S
C308 H295 0.930 . S
C308 C307 1.388 . S
C308 C309 1.390 . S
C309 C308 1.390 . S
C309 C310 1.394 . S
C309 C315 1.465 . S
C310 C305 1.399 . S
C310 C309 1.394 . S
C310 C311 1.516 . S
C311 C310 1.516 . S
C311 C312 1.502 . S
C311 C313 1.561 . S
C311 C314 1.526 . S
C312 H296 0.959 . S
C312 H297 0.959 . S
C312 H298 0.961 . S
C312 C311 1.502 . S
C313 H299 0.960 . S
C313 H300 0.961 . S
C313 H301 0.959 . S
C313 C311 1.561 . S
C314 C311 1.526 . S
C314 C315 1.396 . S
C314 C319 1.390 . S
C315 C309 1.465 . S
C315 C314 1.396 . S
C315 C316 1.399 . S
C316 H302 0.929 . S
C316 C315 1.399 . S
C316 C317 1.385 . S
C317 H303 0.931 . S
C317 C316 1.385 . S
C317 C318 1.389 . S
C318 C317 1.389 . S
C318 C319 1.387 . S
C319 H304 0.930 . S
C319 C314 1.390 . S
C319 C318 1.387 . S
H320 C332 0.930 . S
H321 C334 0.930 1_565 S
H322 C335 0.943 . S
H323 C339 0.959 . S
H324 C339 0.959 . S
H325 C339 0.961 . S
H326 C340 0.960 . S
H327 C340 0.961 . S
H328 C340 0.959 . S
H329 C343 0.929 . S
H330 C344 0.931 . S
H331 C346 0.930 . S
C332 H320 0.930 . S
C332 C333 1.399 . S
C332 C337 1.399 . S
C333 C332 1.399 . S
C333 C334 1.376 . S
C334 H321 0.930 1_545 S
C334 C333 1.376 . S
C334 C335 1.388 . S
C335 H322 0.943 . S
C335 C334 1.388 . S
C335 C336 1.390 . S
C336 C335 1.390 . S
C336 C337 1.394 . S
C336 C342 1.465 1_556 S
C337 C332 1.399 . S
C337 C336 1.394 . S
C337 C338 1.516 . S
C338 C337 1.516 . S
C338 C339 1.502 . S
C338 C340 1.561 . S
C338 C341 1.544 . S
C339 H323 0.959 . S
C339 H324 0.959 . S
C339 H325 0.961 . S
C339 C338 1.502 . S
C340 H326 0.960 . S
C340 H327 0.961 . S
C340 H328 0.959 . S
C340 C338 1.561 . S
C341 C338 1.544 . S
C341 C342 1.390 1_556 S
C341 C346 1.378 1_556 S
C342 C336 1.465 1_554 S
C342 C341 1.390 1_554 S
C342 C343 1.399 . S
C343 H329 0.929 . S
C343 C342 1.399 . S
C343 C344 1.385 . S
C344 H330 0.931 . S
C344 C343 1.385 . S
C344 C345 1.389 . S
C345 C344 1.389 . S
C345 C346 1.387 . S
C346 H331 0.930 . S
C346 C341 1.378 1_554 S
C346 C345 1.387 . S
H347 C359 0.930 . S
H348 C361 0.930 . S
H349 C362 0.930 . S
H350 C366 0.959 . S
H351 C366 0.959 . S
H352 C366 0.961 . S
H353 C367 0.960 . S
H354 C367 0.961 . S
H355 C367 0.959 . S
H356 C370 0.929 . S
H357 C371 0.931 . S
H358 C373 0.930 . S
C359 H347 0.930 . S
C359 C360 1.399 . S
C359 C364 1.399 1_556 S
C360 C359 1.399 . S
C360 C361 1.376 . S
C361 H348 0.930 . S
C361 C360 1.376 . S
C361 C362 1.388 . S
C362 H349 0.930 . S
C362 C361 1.388 . S
C362 C363 1.390 . S
C363 C362 1.390 . S
C363 C364 1.394 1_556 S
C363 C369 1.465 1_556 S
C364 C359 1.399 1_554 S
C364 C363 1.394 1_554 S
C364 C365 1.516 . S
C365 C364 1.516 . S
C365 C366 1.502 . S
C365 C367 1.561 . S
C365 C368 1.526 . S
C366 H350 0.959 . S
C366 H351 0.959 . S
C366 H352 0.961 . S
C366 C365 1.502 . S
C367 H353 0.960 . S
C367 H354 0.961 . S
C367 H355 0.959 . S
C367 C365 1.561 . S
C368 C365 1.526 . S
C368 C369 1.396 . S
C368 C373 1.390 . S
C369 C363 1.465 1_554 S
C369 C368 1.396 . S
C369 C370 1.399 . S
C370 H356 0.929 . S
C370 C369 1.399 . S
C370 C371 1.385 . S
C371 H357 0.931 . S
C371 C370 1.385 . S
C371 C372 1.389 . S
C372 C371 1.389 . S
C372 C373 1.387 . S
C373 H358 0.930 . S
C373 C368 1.390 . S
C373 C372 1.387 . S
H374 C386 0.930 . S
H375 C388 0.930 . S
H376 C389 0.930 . S
H377 C393 0.959 . S
H378 C393 0.959 . S
H379 C393 0.961 . S
H380 C394 0.960 . S
H381 C394 0.961 . S
H382 C394 0.959 . S
H383 C397 0.929 . S
H384 C398 0.931 1_545 S
H385 C400 0.930 . S
C386 H374 0.930 . S
C386 C387 1.399 . S
C386 C391 1.399 1_554 S
C387 C386 1.399 . S
C387 C388 1.376 . S
C388 H375 0.930 . S
C388 C387 1.376 . S
C388 C389 1.388 . S
C389 H376 0.930 . S
C389 C388 1.388 . S
C389 C390 1.390 . S
C390 C389 1.390 . S
C390 C391 1.394 1_554 S
C390 C396 1.465 1_554 S
C391 C386 1.399 1_556 S
C391 C390 1.394 1_556 S
C391 C392 1.516 . S
C392 C391 1.516 . S
C392 C393 1.502 . S
C392 C394 1.561 . S
C392 C395 1.526 . S
C393 H377 0.959 . S
C393 H378 0.959 . S
C393 H379 0.961 . S
C393 C392 1.502 . S
C394 H380 0.960 . S
C394 H381 0.961 . S
C394 H382 0.959 . S
C394 C392 1.561 . S
C395 C392 1.526 . S
C395 C396 1.396 . S
C395 C400 1.390 . S
C396 C390 1.465 1_556 S
C396 C395 1.396 . S
C396 C397 1.399 . S
C397 H383 0.929 . S
C397 C396 1.399 . S
C397 C398 1.385 . S
C398 H384 0.931 1_565 S
C398 C397 1.385 . S
C398 C399 1.389 . S
C399 C398 1.389 . S
C399 C400 1.387 . S
C400 H385 0.930 . S
C400 C395 1.390 . S
C400 C399 1.387 . S
H401 C413 0.930 . S
H402 C415 0.930 . S
H403 C416 0.930 1_554 S
H404 C420 0.959 . S
H405 C420 0.959 . S
H406 C420 0.961 1_556 S
H407 C421 0.960 . S
H408 C421 0.961 . S
H409 C421 0.959 . S
H410 C424 0.929 . S
H411 C425 0.931 . S
H412 C427 0.930 . S
C413 H401 0.930 . S
C413 C414 1.399 . S
C413 C418 1.399 . S
C414 C413 1.399 . S
C414 C415 1.376 . S
C415 H402 0.930 . S
C415 C414 1.376 . S
C415 C416 1.388 . S
C416 H403 0.930 1_556 S
C416 C415 1.388 . S
C416 C417 1.390 1_556 S
C417 C416 1.390 1_554 S
C417 C418 1.394 1_554 S
C417 C423 1.465 . S
C418 C413 1.399 . S
C418 C417 1.394 1_556 S
C418 C419 1.516 . S
C419 C418 1.516 . S
C419 C420 1.502 1_556 S
C419 C421 1.561 . S
C419 C422 1.526 1_556 S
C420 H404 0.959 . S
C420 H405 0.959 . S
C420 H406 0.961 1_554 S
C420 C419 1.502 1_554 S
C421 H407 0.960 . S
C421 H408 0.961 . S
C421 H409 0.959 . S
C421 C419 1.561 . S
C422 C419 1.526 1_554 S
C422 C423 1.396 . S
C422 C427 1.390 . S
C423 C417 1.465 . S
C423 C422 1.396 . S
C423 C424 1.399 . S
C424 H410 0.929 . S
C424 C423 1.399 . S
C424 C425 1.385 . S
C425 H411 0.931 . S
C425 C424 1.385 . S
C425 C426 1.389 . S
C426 C425 1.389 . S
C426 C427 1.387 . S
C427 H412 0.930 . S
C427 C422 1.390 . S
C427 C426 1.387 . S
H428 C440 0.930 . S
H429 C442 0.930 . S
H430 C443 0.930 . S
H431 C447 0.959 . S
H432 C447 0.959 . S
H433 C447 0.961 . S
H434 C448 0.960 . S
H435 C448 0.961 . S
H436 C448 0.959 . S
H437 C451 0.929 . S
H438 C452 0.931 . S
H439 C454 0.930 . S
C440 H428 0.930 . S
C440 C441 1.399 . S
C440 C445 1.399 . S
C441 C440 1.399 . S
C441 C442 1.376 . S
C442 H429 0.930 . S
C442 C441 1.376 . S
C442 C443 1.388 . S
C443 H430 0.930 . S
C443 C442 1.388 . S
C443 C444 1.390 . S
C444 C443 1.390 . S
C444 C445 1.394 . S
C444 C450 1.465 . S
C445 C440 1.399 . S
C445 C444 1.394 . S
C445 C446 1.516 . S
C446 C445 1.516 . S
C446 C447 1.502 . S
C446 C448 1.561 . S
C446 C449 1.526 . S
C447 H431 0.959 . S
C447 H432 0.959 . S
C447 H433 0.961 . S
C447 C446 1.502 . S
C448 H434 0.960 . S
C448 H435 0.961 . S
C448 H436 0.959 . S
C448 C446 1.561 . S
C449 C446 1.526 . S
C449 C450 1.396 . S
C449 C454 1.390 . S
C450 C444 1.465 . S
C450 C449 1.396 . S
C450 C451 1.399 . S
C451 H437 0.929 . S
C451 C450 1.399 . S
C451 C452 1.385 . S
C452 H438 0.931 . S
C452 C451 1.385 . S
C452 C453 1.389 . S
C453 C452 1.389 . S
C453 C454 1.387 . S
C454 H439 0.930 . S
C454 C449 1.390 . S
C454 C453 1.387 . S
H455 C467 0.930 . S
H456 C469 0.930 . S
H457 C470 0.930 . S
H458 C474 0.959 . S
H459 C474 0.959 . S
H460 C474 0.961 . S
H461 C475 0.960 . S
H462 C475 0.961 . S
H463 C475 0.959 . S
H464 C478 0.929 . S
H465 C479 0.931 . S
H466 C481 0.930 . S
C467 H455 0.930 . S
C467 C468 1.399 . S
C467 C472 1.399 . S
C468 C467 1.399 . S
C468 C469 1.376 . S
C469 H456 0.930 . S
C469 C468 1.376 . S
C469 C470 1.388 . S
C470 H457 0.930 . S
C470 C469 1.388 . S
C470 C471 1.390 . S
C471 C470 1.390 . S
C471 C472 1.394 . S
C471 C477 1.465 . S
C472 C467 1.399 . S
C472 C471 1.394 . S
C472 C473 1.516 . S
C473 C472 1.516 . S
C473 C474 1.502 . S
C473 C475 1.561 . S
C473 C476 1.526 . S
C474 H458 0.959 . S
C474 H459 0.959 . S
C474 H460 0.961 . S
C474 C473 1.502 . S
C475 H461 0.960 . S
C475 H462 0.961 . S
C475 H463 0.959 . S
C475 C473 1.561 . S
C476 C473 1.526 . S
C476 C477 1.396 . S
C476 C481 1.390 . S
C477 C471 1.465 . S
C477 C476 1.396 . S
C477 C478 1.399 . S
C478 H464 0.929 . S
C478 C477 1.399 . S
C478 C479 1.385 . S
C479 H465 0.931 . S
C479 C478 1.385 . S
C479 C480 1.389 . S
C480 C479 1.389 . S
C480 C481 1.387 . S
C481 H466 0.930 . S
C481 C476 1.390 . S
C481 C480 1.387 . S
H482 C494 0.930 . S
H483 C496 0.930 . S
H484 C497 0.930 . S
H485 C501 0.959 . S
H486 C501 0.959 . S
H487 C501 0.961 . S
H488 C502 0.960 . S
H489 C502 0.961 . S
H490 C502 0.959 . S
H491 C505 0.929 . S
H492 C506 0.931 . S
H493 C508 0.930 . S
C494 H482 0.930 . S
C494 C495 1.399 . S
C494 C499 1.399 . S
C495 C494 1.399 . S
C495 C496 1.376 . S
C496 H483 0.930 . S
C496 C495 1.376 . S
C496 C497 1.388 . S
C497 H484 0.930 . S
C497 C496 1.388 . S
C497 C498 1.390 . S
C498 C497 1.390 . S
C498 C499 1.394 . S
C498 C504 1.465 . S
C499 C494 1.399 . S
C499 C498 1.394 . S
C499 C500 1.516 . S
C500 C499 1.516 . S
C500 C501 1.502 . S
C500 C502 1.561 . S
C500 C503 1.526 . S
C501 H485 0.959 . S
C501 H486 0.959 . S
C501 H487 0.961 . S
C501 C500 1.502 . S
C502 H488 0.960 . S
C502 H489 0.961 . S
C502 H490 0.959 . S
C502 C500 1.561 . S
C503 C500 1.526 . S
C503 C504 1.396 . S
C503 C508 1.390 . S
C504 C498 1.465 . S
C504 C503 1.396 . S
C504 C505 1.399 . S
C505 H491 0.929 . S
C505 C504 1.399 . S
C505 C506 1.385 . S
C506 H492 0.931 . S
C506 C505 1.385 . S
C506 C507 1.389 . S
C507 C506 1.389 . S
C507 C508 1.387 . S
C508 H493 0.930 . S
C508 C503 1.390 . S
C508 C507 1.387 . S
H509 C521 0.930 . S
H510 C523 0.930 . S
H511 C524 0.930 . S
H512 C528 0.959 . S
H513 C528 0.959 . S
H514 C528 0.961 . S
H515 C529 0.960 . S
H516 C529 0.961 . S
H517 C529 0.959 . S
H518 C532 0.929 . S
H519 C533 0.931 . S
H520 C535 0.930 . S
C521 H509 0.930 . S
C521 C522 1.399 . S
C521 C526 1.399 . S
C522 C521 1.399 . S
C522 C523 1.376 . S
C523 H510 0.930 . S
C523 C522 1.376 . S
C523 C524 1.388 . S
C524 H511 0.930 . S
C524 C523 1.388 . S
C524 C525 1.390 . S
C525 C524 1.390 . S
C525 C526 1.394 . S
C525 C531 1.465 . S
C526 C521 1.399 . S
C526 C525 1.394 . S
C526 C527 1.516 . S
C527 C526 1.516 . S
C527 C528 1.502 . S
C527 C529 1.561 . S
C527 C530 1.526 . S
C528 H512 0.959 . S
C528 H513 0.959 . S
C528 H514 0.961 . S
C528 C527 1.502 . S
C529 H515 0.960 . S
C529 H516 0.961 . S
C529 H517 0.959 . S
C529 C527 1.561 . S
C530 C527 1.526 . S
C530 C531 1.396 . S
C530 C535 1.390 . S
C531 C525 1.465 . S
C531 C530 1.396 . S
C531 C532 1.399 . S
C532 H518 0.929 . S
C532 C531 1.399 . S
C532 C533 1.385 . S
C533 H519 0.931 . S
C533 C532 1.385 . S
C533 C534 1.389 . S
C534 C533 1.389 . S
C534 C535 1.387 . S
C535 H520 0.930 . S
C535 C530 1.390 . S
C535 C534 1.387 . S
C117 C26 1.291 . S
C129 C0 1.214 . S
C144 C39 1.209 . S
C156 C13 1.267 . S
C171 C52 1.207 . S
C183 C78 1.272 . S
C198 C65 1.290 . S
C210 C91 1.215 . S
C225 C23 0.855 . S
C237 C5 0.746 . S
C252 C18 0.852 . S
C264 C36 0.845 . S
C279 C49 0.823 . S
C291 C31 0.764 . S
C306 C44 0.793 . S
C318 C10 0.856 . S
C333 C101 0.823 . S
C345 C57 0.764 . S
C360 C70 0.919 . S
C372 C62 0.861 . S
C387 C83 0.733 . S
C399 C75 0.823 . S
C414 C96 0.732 . S
C426 C88 0.845 . S
C441 C8 1.635 . S
C453 C73 1.632 . S
C468 C86 1.590 . S
C480 C21 1.648 . S
C495 C34 1.588 . S
C507 C99 1.667 . S
C522 C47 1.592 . S
C534 C60 1.646 . S
