# Generated by pormake.
# Topology umw, (4)-cn, num edge types: 1
# Building blocks:
#     Node 0, Type 0, BuildingBlock: AZAVOO_clean_sbu_0, # of connection points: 4
#     Node 1, Type 0, BuildingBlock: AZAVOO_clean_sbu_0, # of connection points: 4
#     Node 2, Type 0, BuildingBlock: AZAVOO_clean_sbu_0, # of connection points: 4
#     Node 3, Type 0, BuildingBlock: AZAVOO_clean_sbu_0, # of connection points: 4
#     Node 4, Type 0, BuildingBlock: AZAVOO_clean_sbu_0, # of connection points: 4
#     Node 5, Type 0, BuildingBlock: AZAVOO_clean_sbu_0, # of connection points: 4
#     Node 6, Type 0, BuildingBlock: AZAVOO_clean_sbu_0, # of connection points: 4
#     Node 7, Type 0, BuildingBlock: AZAVOO_clean_sbu_0, # of connection points: 4
#     Edge 8, Type (0, 0), BuildingBlock: ZUJKAS_clean_linker_0, # of connection points: 2
#     Edge 9, Type (0, 0), BuildingBlock: ZUJKAS_clean_linker_0, # of connection points: 2
#     Edge 10, Type (0, 0), BuildingBlock: ZUJKAS_clean_linker_0, # of connection points: 2
#     Edge 11, Type (0, 0), BuildingBlock: ZUJKAS_clean_linker_0, # of connection points: 2
#     Edge 12, Type (0, 0), BuildingBlock: ZUJKAS_clean_linker_0, # of connection points: 2
#     Edge 13, Type (0, 0), BuildingBlock: ZUJKAS_clean_linker_0, # of connection points: 2
#     Edge 14, Type (0, 0), BuildingBlock: ZUJKAS_clean_linker_0, # of connection points: 2
#     Edge 15, Type (0, 0), BuildingBlock: ZUJKAS_clean_linker_0, # of connection points: 2
#     Edge 16, Type (0, 0), BuildingBlock: ZUJKAS_clean_linker_0, # of connection points: 2
#     Edge 17, Type (0, 0), BuildingBlock: ZUJKAS_clean_linker_0, # of connection points: 2
#     Edge 18, Type (0, 0), BuildingBlock: ZUJKAS_clean_linker_0, # of connection points: 2
#     Edge 19, Type (0, 0), BuildingBlock: ZUJKAS_clean_linker_0, # of connection points: 2
#     Edge 20, Type (0, 0), BuildingBlock: ZUJKAS_clean_linker_0, # of connection points: 2
#     Edge 21, Type (0, 0), BuildingBlock: ZUJKAS_clean_linker_0, # of connection points: 2
#     Edge 22, Type (0, 0), BuildingBlock: ZUJKAS_clean_linker_0, # of connection points: 2
#     Edge 23, Type (0, 0), BuildingBlock: ZUJKAS_clean_linker_0, # of connection points: 2
# Relax obj value: 0.148
# Max RMSD: 0.118
# Mean RMSD: 0.118
data_MOF--net-umw--node1-AZAVOO_clean_sbu_0--edge1-ZUJKAS_clean_linker_0
_symmetry_space_group_name_H-M    P1
_symmetry_Int_Tables_number       1
_symmetry_cell_setting            triclinic
loop_
_symmetry_equiv_pos_as_xyz
'x, y, z'
_cell_length_a     56.934912
_cell_length_b     56.926987
_cell_length_c     30.27781
_cell_angle_alpha  89.91517
_cell_angle_beta   89.852899
_cell_angle_gamma 89.978926
loop_
_atom_site_label
_atom_site_type_symbol
_atom_site_fract_x
_atom_site_fract_y
_atom_site_fract_z
_atom_type_partial_charge
Mg0 Mg 0.38567 0.16017 0.25704 0.0
O1 O 0.41207 0.15509 0.31362 0.0
O2 O 0.43687 0.12639 0.29456 0.0
Mg3 Mg 0.427 0.11376 0.2256 0.0
C4 C 0.42968 0.14188 0.32187 0.0
C5 C 0.35655 0.20544 0.26975 0.0
O6 O 0.34928 0.19834 0.23084 0.0
O7 O 0.41364 0.1799 0.21736 0.0
O8 O 0.43706 0.15004 0.19844 0.0
O9 O 0.36241 0.13206 0.28487 0.0
O10 O 0.39074 0.12553 0.2366 0.0
C11 C 0.43174 0.17186 0.19748 0.0
C12 C 0.37457 0.1172 0.26194 0.0
O13 O 0.3725 0.19378 0.28923 0.0
Mg14 Mg 0.8247 0.38439 0.49703 0.0
O15 O 0.83052 0.41225 0.55085 0.0
O16 O 0.85962 0.43588 0.52882 0.0
Mg17 Mg 0.8713 0.42423 0.46006 0.0
C18 C 0.84421 0.42969 0.55725 0.0
C19 C 0.78201 0.35355 0.51685 0.0
O20 O 0.79176 0.34307 0.48277 0.0
O21 O 0.80484 0.41128 0.45517 0.0
O22 O 0.83484 0.43387 0.43352 0.0
O23 O 0.85308 0.3621 0.52673 0.0
O24 O 0.85905 0.3886 0.47463 0.0
C25 C 0.81297 0.42878 0.43354 0.0
C26 C 0.86765 0.37354 0.50182 0.0
O27 O 0.79119 0.37237 0.53125 0.0
Mg28 Mg 0.60146 0.82494 0.74903 0.0
O29 O 0.57493 0.82965 0.80603 0.0
O30 O 0.54927 0.85729 0.78549 0.0
Mg31 Mg 0.55842 0.86935 0.71582 0.0
C32 C 0.55695 0.84249 0.81369 0.0
C33 C 0.63826 0.79073 0.78357 0.0
O34 O 0.65075 0.80799 0.76676 0.0
O35 O 0.57441 0.80378 0.71025 0.0
O36 O 0.54976 0.83243 0.69034 0.0
O37 O 0.62363 0.85406 0.77572 0.0
O38 O 0.5951 0.85926 0.72754 0.0
C39 C 0.55599 0.81086 0.69026 0.0
C40 C 0.6109 0.86833 0.75263 0.0
O41 O 0.616 0.79194 0.78157 0.0
Mg42 Mg 0.16335 0.60211 0.01105 0.0
O43 O 0.15827 0.57345 0.06354 0.0
O44 O 0.13121 0.54841 0.03857 0.0
Mg45 Mg 0.11832 0.56148 0.97122 0.0
C46 C 0.14577 0.55497 0.06808 0.0
C47 C 0.20687 0.63238 0.02961 0.0
O48 O 0.19872 0.64178 0.99306 0.0
O49 O 0.18409 0.57655 0.96755 0.0
O50 O 0.15451 0.55526 0.93987 0.0
O51 O 0.13445 0.62371 0.04094 0.0
O52 O 0.12896 0.59731 0.98882 0.0
C53 C 0.17623 0.5608 0.94151 0.0
C54 C 0.12006 0.61234 0.01579 0.0
O55 O 0.19645 0.61459 0.04572 0.0
Mg56 Mg 0.38878 0.82409 0.29216 0.0
O57 O 0.41427 0.83029 0.23417 0.0
O58 O 0.43926 0.85868 0.25361 0.0
Mg59 Mg 0.43039 0.87006 0.32388 0.0
C60 C 0.43171 0.84371 0.22572 0.0
C61 C 0.36012 0.77863 0.27925 0.0
O62 O 0.3536 0.78498 0.31915 0.0
O63 O 0.41733 0.80386 0.3289 0.0
O64 O 0.44097 0.83337 0.34842 0.0
O65 O 0.36486 0.85242 0.26769 0.0
O66 O 0.39395 0.85845 0.31429 0.0
C67 C 0.43567 0.81155 0.34828 0.0
C68 C 0.37724 0.86702 0.29064 0.0
O69 O 0.37539 0.79089 0.25904 0.0
Mg70 Mg 0.16207 0.38403 0.54298 0.0
O71 O 0.15648 0.41109 0.48746 0.0
O72 O 0.12811 0.43584 0.50831 0.0
Mg73 Mg 0.1168 0.42575 0.57826 0.0
C74 C 0.14315 0.42872 0.48001 0.0
C75 C 0.20456 0.35233 0.52315 0.0
O76 O 0.19588 0.34262 0.55906 0.0
O77 O 0.18284 0.41094 0.58304 0.0
O78 O 0.15368 0.43497 0.60342 0.0
O79 O 0.13291 0.36198 0.5157 0.0
O80 O 0.12804 0.38946 0.56625 0.0
C81 C 0.17536 0.4291 0.60346 0.0
C82 C 0.11886 0.37408 0.54049 0.0
O83 O 0.19489 0.37077 0.50804 0.0
Mg84 Mg 0.6007 0.16318 0.79508 0.0
O85 O 0.57438 0.15862 0.73795 0.0
O86 O 0.54876 0.13082 0.75802 0.0
Mg87 Mg 0.55767 0.11851 0.82753 0.0
C88 C 0.55648 0.14576 0.73006 0.0
C89 C 0.63743 0.19724 0.7591 0.0
O90 O 0.65001 0.17968 0.77441 0.0
O91 O 0.57343 0.18414 0.83417 0.0
O92 O 0.54879 0.15531 0.85333 0.0
O93 O 0.62303 0.13417 0.76804 0.0
O94 O 0.59437 0.12874 0.81611 0.0
C95 C 0.55493 0.17689 0.85384 0.0
C96 C 0.61026 0.11978 0.79091 0.0
O97 O 0.61521 0.19631 0.76277 0.0
Mg98 Mg 0.82656 0.59937 0.03351 0.0
O99 O 0.83274 0.57403 0.97539 0.0
O100 O 0.86104 0.54895 0.99509 0.0
Mg101 Mg 0.87252 0.55767 0.06526 0.0
C102 C 0.84616 0.55658 0.96707 0.0
C103 C 0.78513 0.63222 0.01543 0.0
O104 O 0.79579 0.64246 0.04867 0.0
O105 O 0.80629 0.57081 0.07055 0.0
O106 O 0.83591 0.54735 0.09039 0.0
O107 O 0.85504 0.62328 0.00899 0.0
O108 O 0.86086 0.59407 0.05561 0.0
C109 C 0.81408 0.5526 0.09036 0.0
C110 C 0.86955 0.61079 0.03204 0.0
O111 O 0.79328 0.61295 0.00088 0.0
H112 H 0.42534 0.17752 0.38228 0.0
H113 H 0.44783 0.18298 0.45027 0.0
H114 H 0.48525 0.11847 0.42509 0.0
H115 H 0.46337 0.11315 0.35675 0.0
H116 H 0.45033 0.15634 0.52303 0.0
H117 H 0.53885 0.16284 0.44863 0.0
H118 H 0.51238 0.16454 0.4161 0.0
H119 H 0.52418 0.13643 0.43209 0.0
C120 C 0.43841 0.16452 0.39113 0.0
C121 C 0.44264 0.14497 0.36386 0.0
C122 C 0.45128 0.16771 0.42996 0.0
C123 C 0.46861 0.15142 0.44225 0.0
C124 C 0.4725 0.13165 0.4156 0.0
H125 H 0.52187 0.11756 0.69743 0.0
H126 H 0.50074 0.12164 0.62806 0.0
C127 C 0.4598 0.12854 0.37667 0.0
C128 C 0.48193 0.15443 0.48391 0.0
H129 H 0.53743 0.1542 0.52643 0.0
C130 C 0.46938 0.15617 0.52372 0.0
C131 C 0.5068 0.15474 0.4848 0.0
C132 C 0.52133 0.1548 0.44305 0.0
C133 C 0.48099 0.15703 0.5645 0.0
C134 C 0.5058 0.1555 0.56553 0.0
C135 C 0.5184 0.15497 0.52565 0.0
C136 C 0.51888 0.15325 0.60761 0.0
C137 C 0.46652 0.1595 0.60607 0.0
C138 C 0.53679 0.16917 0.61848 0.0
C139 C 0.54921 0.16672 0.65808 0.0
C140 C 0.54394 0.14825 0.68744 0.0
C141 C 0.52624 0.13215 0.67595 0.0
C142 C 0.51399 0.13454 0.63637 0.0
H143 H 0.44941 0.16816 0.59925 0.0
H144 H 0.46277 0.14178 0.6197 0.0
H145 H 0.47597 0.16982 0.63153 0.0
H146 H 0.541 0.18361 0.59651 0.0
H147 H 0.56275 0.1794 0.66584 0.0
H148 H 0.80987 0.42666 0.62075 0.0
H149 H 0.80668 0.4494 0.68902 0.0
H150 H 0.87109 0.48552 0.65695 0.0
H151 H 0.87415 0.46337 0.58831 0.0
H152 H 0.83569 0.45114 0.75869 0.0
H153 H 0.82844 0.53996 0.68561 0.0
H154 H 0.82535 0.51357 0.65319 0.0
H155 H 0.85407 0.52471 0.66647 0.0
C156 C 0.8233 0.43953 0.62808 0.0
C157 C 0.84219 0.44327 0.59885 0.0
C158 C 0.82143 0.45253 0.66711 0.0
C159 C 0.83839 0.4695 0.67767 0.0
C160 C 0.85743 0.47302 0.6489 0.0
H161 H 0.87536 0.52295 0.93328 0.0
H162 H 0.87171 0.50207 0.86342 0.0
C163 C 0.85923 0.46018 0.60976 0.0
C164 C 0.83682 0.4828 0.7197 0.0
H165 H 0.83809 0.53823 0.76263 0.0
C166 C 0.83597 0.47019 0.75953 0.0
C167 C 0.83675 0.50767 0.72081 0.0
C168 C 0.83595 0.52227 0.6792 0.0
C169 C 0.83596 0.48173 0.80045 0.0
C170 C 0.83742 0.50654 0.80157 0.0
C171 C 0.83733 0.5192 0.76175 0.0
C172 C 0.83969 0.51963 0.84367 0.0
C173 C 0.83427 0.46719 0.84207 0.0
C174 C 0.82339 0.53714 0.85507 0.0
C175 C 0.82559 0.54939 0.89489 0.0
C176 C 0.84416 0.54436 0.924 0.0
C177 C 0.86068 0.52712 0.91196 0.0
C178 C 0.85855 0.51502 0.87211 0.0
H179 H 0.82592 0.44989 0.83566 0.0
H180 H 0.85221 0.46385 0.85489 0.0
H181 H 0.82403 0.47642 0.86802 0.0
H182 H 0.80881 0.54112 0.83339 0.0
H183 H 0.81257 0.56257 0.90306 0.0
H184 H 0.42681 0.80911 0.16337 0.0
H185 H 0.44865 0.80486 0.09408 0.0
H186 H 0.48585 0.86922 0.12107 0.0
H187 H 0.46463 0.87333 0.19066 0.0
H188 H 0.45073 0.83262 0.02227 0.0
H189 H 0.5395 0.82515 0.09464 0.0
H190 H 0.51312 0.82298 0.12758 0.0
H191 H 0.52475 0.85131 0.11252 0.0
C192 C 0.43967 0.82234 0.15461 0.0
C193 C 0.44409 0.84147 0.18279 0.0
C194 C 0.45216 0.81986 0.11502 0.0
C195 C 0.46928 0.83643 0.10289 0.0
C196 C 0.47326 0.85583 0.13039 0.0
H197 H 0.5225 0.87102 0.84639 0.0
H198 H 0.5013 0.86721 0.91598 0.0
C199 C 0.46095 0.85824 0.17005 0.0
C200 C 0.48245 0.83396 0.0608 0.0
H201 H 0.53782 0.83415 0.01721 0.0
C202 C 0.46977 0.83269 0.02119 0.0
C203 C 0.50731 0.83355 0.05941 0.0
C204 C 0.52196 0.83306 0.10086 0.0
C205 C 0.48126 0.83206 0.98015 0.0
C206 C 0.50609 0.83334 0.97867 0.0
C207 C 0.51879 0.83354 0.01833 0.0
C208 C 0.51915 0.83544 0.93639 0.0
C209 C 0.46666 0.83 0.93881 0.0
C210 C 0.5369 0.81933 0.92539 0.0
C211 C 0.54938 0.82164 0.88571 0.0
C212 C 0.5443 0.84014 0.85635 0.0
C213 C 0.52672 0.8564 0.8679 0.0
C214 C 0.51442 0.85417 0.90759 0.0
H215 H 0.44945 0.82155 0.94577 0.0
H216 H 0.46312 0.84784 0.92555 0.0
H217 H 0.47591 0.81967 0.91299 0.0
H218 H 0.54099 0.80487 0.94736 0.0
H219 H 0.56282 0.80883 0.87789 0.0
H220 H 0.17733 0.42402 0.41655 0.0
H221 H 0.18075 0.44548 0.34674 0.0
H222 H 0.11666 0.48278 0.37617 0.0
H223 H 0.11341 0.46194 0.44636 0.0
H224 H 0.15223 0.44696 0.27621 0.0
H225 H 0.1601 0.53631 0.34631 0.0
H226 H 0.16259 0.51018 0.37976 0.0
H227 H 0.13412 0.52156 0.3652 0.0
C228 C 0.16401 0.43687 0.40828 0.0
C229 C 0.14519 0.44138 0.43729 0.0
C230 C 0.166 0.44912 0.36834 0.0
C231 C 0.14922 0.46609 0.3566 0.0
C232 C 0.13019 0.47027 0.38506 0.0
H233 H 0.1171 0.51945 0.0967 0.0
H234 H 0.11959 0.49749 0.16579 0.0
C235 C 0.12828 0.4582 0.42512 0.0
C236 C 0.1512 0.47896 0.31404 0.0
H237 H 0.15144 0.53402 0.26915 0.0
C238 C 0.15227 0.466 0.27467 0.0
C239 C 0.1517 0.50381 0.31203 0.0
C240 C 0.15233 0.51877 0.35312 0.0
C241 C 0.15305 0.4772 0.23332 0.0
C242 C 0.15213 0.50203 0.23125 0.0
C243 C 0.15184 0.51498 0.27067 0.0
C244 C 0.15105 0.51496 0.18864 0.0
C245 C 0.15508 0.46227 0.19234 0.0
C246 C 0.16752 0.53259 0.17893 0.0
C247 C 0.16594 0.54547 0.13968 0.0
C248 C 0.14785 0.54096 0.10927 0.0
C249 C 0.13141 0.52324 0.11909 0.0
C250 C 0.13289 0.51053 0.15851 0.0
H251 H 0.1631 0.44492 0.19979 0.0
H252 H 0.13728 0.45906 0.17881 0.0
H253 H 0.16581 0.47111 0.16654 0.0
H254 H 0.1816 0.53642 0.20182 0.0
H255 H 0.1789 0.55898 0.13322 0.0
H256 H 0.31989 0.23186 0.23945 0.0
H257 H 0.29721 0.26115 0.28026 0.0
H258 H 0.34273 0.25233 0.39268 0.0
H259 H 0.36567 0.22313 0.35204 0.0
H260 H 0.27366 0.25081 0.35878 0.0
H261 H 0.33653 0.32425 0.38207 0.0
H262 H 0.34071 0.3017 0.34084 0.0
H263 H 0.34765 0.29589 0.39768 0.0
C264 C 0.32535 0.23641 0.27258 0.0
C265 C 0.34453 0.22506 0.29256 0.0
C266 C 0.31236 0.25316 0.29584 0.0
C267 C 0.31841 0.25904 0.33932 0.0
C268 C 0.33802 0.24835 0.35887 0.0
H269 H 0.22684 0.31132 0.54402 0.0
H270 H 0.25558 0.28991 0.49947 0.0
C271 C 0.35102 0.23156 0.33566 0.0
C272 C 0.30286 0.27455 0.36558 0.0
H273 H 0.30126 0.32559 0.42477 0.0
C274 C 0.27965 0.26723 0.37296 0.0
C275 C 0.31071 0.29601 0.38382 0.0
C276 C 0.3352 0.3051 0.37546 0.0
C277 C 0.26419 0.28055 0.39886 0.0
C278 C 0.27224 0.30162 0.41829 0.0
C279 C 0.29527 0.30928 0.41014 0.0
C280 C 0.25678 0.31578 0.44714 0.0
C281 C 0.23929 0.27205 0.40514 0.0
C282 C 0.24857 0.33777 0.43303 0.0
C283 C 0.23211 0.35008 0.4584 0.0
C284 C 0.22371 0.34061 0.49839 0.0
C285 C 0.23282 0.31905 0.51328 0.0
C286 C 0.2492 0.30676 0.48786 0.0
H287 H 0.23447 0.25843 0.38053 0.0
H288 H 0.23745 0.26426 0.43859 0.0
H289 H 0.22668 0.28686 0.40251 0.0
H290 H 0.25431 0.34501 0.40171 0.0
H291 H 0.22553 0.36669 0.4461 0.0
H292 H 0.76158 0.31134 0.49882 0.0
H293 H 0.7315 0.29104 0.54157 0.0
H294 H 0.72691 0.35001 0.6305 0.0
H295 H 0.75757 0.37032 0.58834 0.0
H296 H 0.73188 0.30993 0.67466 0.0
H297 H 0.66152 0.29811 0.55171 0.0
H298 H 0.68899 0.28749 0.53067 0.0
H299 H 0.6856 0.31826 0.54317 0.0
C300 C 0.75396 0.3202 0.52707 0.0
C301 C 0.76204 0.34243 0.54024 0.0
C302 C 0.73657 0.30862 0.55129 0.0
C303 C 0.72662 0.31915 0.58882 0.0
C304 C 0.73422 0.34163 0.60145 0.0
H305 H 0.61729 0.23768 0.72725 0.0
H306 H 0.63708 0.27041 0.68974 0.0
C307 C 0.75174 0.3532 0.57733 0.0
C308 C 0.71013 0.30563 0.61707 0.0
H309 H 0.66164 0.27046 0.61279 0.0
C310 C 0.71627 0.30166 0.66133 0.0
C311 C 0.6895 0.29517 0.60005 0.0
C312 C 0.68089 0.3002 0.55392 0.0
C313 C 0.7032 0.28637 0.68815 0.0
C314 C 0.68382 0.27428 0.6699 0.0
C315 C 0.67675 0.27941 0.62656 0.0
C316 C 0.67178 0.25506 0.69407 0.0
C317 C 0.71054 0.28306 0.73562 0.0
C318 C 0.68467 0.23549 0.70841 0.0
C319 C 0.6735 0.21691 0.72994 0.0
C320 C 0.6491 0.21733 0.73708 0.0
C321 C 0.63612 0.23686 0.72236 0.0
C322 C 0.64738 0.25556 0.70094 0.0
H323 H 0.71975 0.29887 0.74832 0.0
H324 H 0.6952 0.27936 0.75724 0.0
H325 H 0.72291 0.26805 0.73779 0.0
H326 H 0.7034 0.23441 0.70235 0.0
H327 H 0.684 0.20206 0.74046 0.0
H328 H 0.7665 0.67522 0.0341 0.0
H329 H 0.73604 0.69617 0.99368 0.0
H330 H 0.72779 0.63692 0.90644 0.0
H331 H 0.75879 0.61594 0.94623 0.0
H332 H 0.73264 0.67678 0.86114 0.0
H333 H 0.66569 0.69061 0.99064 0.0
H334 H 0.6939 0.70061 0.00875 0.0
H335 H 0.68948 0.66991 -0.00297 0.0
C336 C 0.75801 0.66646 0.00671 0.0
C337 C 0.76512 0.64392 0.99333 0.0
C338 C 0.74041 0.67842 0.98384 0.0
C339 C 0.72931 0.66797 0.9475 0.0
C340 C 0.736 0.64524 0.93461 0.0
H341 H 0.61823 0.75082 0.81809 0.0
H342 H 0.63834 0.71796 0.85438 0.0
C343 C 0.75372 0.63329 0.95737 0.0
C344 C 0.71243 0.68176 0.92069 0.0
H345 H 0.66477 0.71789 0.92907 0.0
C346 C 0.71754 0.68542 0.87582 0.0
C347 C 0.69246 0.6927 0.93952 0.0
C348 C 0.68492 0.68803 0.98652 0.0
C349 C 0.70411 0.70085 0.85005 0.0
C350 C 0.68543 0.71338 0.86996 0.0
C351 C 0.67936 0.70859 0.91402 0.0
C352 C 0.67314 0.73271 0.84665 0.0
C353 C 0.71032 0.70382 0.80188 0.0
C354 C 0.68599 0.75199 0.83082 0.0
C355 C 0.67463 0.77066 0.81 0.0
C356 C 0.65009 0.7706 0.80505 0.0
C357 C 0.63716 0.75136 0.82129 0.0
C358 C 0.64861 0.73258 0.84201 0.0
H359 H 0.71897 0.68781 0.78857 0.0
H360 H 0.69452 0.70767 0.7817 0.0
H361 H 0.72284 0.71863 0.79824 0.0
H362 H 0.70486 0.75279 0.83514 0.0
H363 H 0.68511 0.78528 0.79826 0.0
H364 H 0.22728 0.61829 0.10718 0.0
H365 H 0.25649 0.6397 0.15074 0.0
H366 H 0.25941 0.69367 0.05087 0.0
H367 H 0.2303 0.67251 0.00709 0.0
H368 H 0.30447 0.65856 0.12514 0.0
H369 H 0.23788 0.72595 0.17053 0.0
H370 H 0.22993 0.69725 0.15006 0.0
H371 H 0.24045 0.71937 0.11262 0.0
C372 C 0.23433 0.63458 0.09422 0.0
C373 C 0.22628 0.64382 0.05386 0.0
C374 C 0.25104 0.64673 0.11911 0.0
C375 C 0.25984 0.66832 0.10412 0.0
C376 C 0.25261 0.6771 0.06307 0.0
H377 H 0.3685 0.76168 0.19606 0.0
H378 H 0.34551 0.73243 0.15585 0.0
C379 C 0.236 0.66496 0.03811 0.0
C380 C 0.27544 0.68247 0.13253 0.0
H381 H 0.27705 0.73326 0.19206 0.0
C382 C 0.29853 0.67485 0.13996 0.0
C383 C 0.26745 0.70353 0.15214 0.0
C384 C 0.24252 0.71202 0.14636 0.0
C385 C 0.31409 0.68815 0.16582 0.0
C386 C 0.30626 0.70957 0.18436 0.0
C387 C 0.283 0.71685 0.17766 0.0
C388 C 0.32189 0.72507 0.21022 0.0
C389 C 0.33867 0.67917 0.17338 0.0
C390 C 0.31625 0.73057 0.25413 0.0
C391 C 0.32928 0.74732 0.27716 0.0
C392 C 0.34807 0.75906 0.25651 0.0
C393 C 0.35415 0.75296 0.21293 0.0
C394 C 0.34112 0.73614 0.18997 0.0
H395 H 0.34014 0.66009 0.16615 0.0
H396 H 0.35098 0.68869 0.15124 0.0
H397 H 0.34424 0.68231 0.20799 0.0
H398 H 0.30138 0.72228 0.27023 0.0
H399 H 0.32414 0.75157 0.31067 0.0
H400 H 0.40295 0.90207 0.32891 0.0
H401 H 0.39626 0.94415 0.32496 0.0
H402 H 0.33403 0.93249 0.24701 0.0
H403 H 0.34144 0.89012 0.2487 0.0
H404 H 0.35787 0.96674 0.21306 0.0
H405 H 0.35145 0.98392 0.39166 0.0
H406 H 0.37876 0.96965 0.37971 0.0
H407 H 0.35146 0.95451 0.36957 0.0
C408 C 0.38792 0.90834 0.31064 0.0
C409 C 0.37287 0.89266 0.28877 0.0
C410 C 0.38387 0.9325 0.30906 0.0
C411 C 0.36429 0.94154 0.28669 0.0
C412 C 0.34916 0.92594 0.26481 0.0
H413 H 0.34171 0.09405 0.31211 0.0
H414 H 0.33519 0.05155 0.31679 0.0
C415 C 0.35343 0.90172 0.26576 0.0
C416 C 0.36058 0.96735 0.28405 0.0
H417 H 0.3619 0.01742 0.34594 0.0
C418 C 0.35835 0.97777 0.24222 0.0
C419 C 0.36051 0.98184 0.32205 0.0
C420 C 0.36039 0.97183 0.36824 0.0
C421 C 0.35753 0.00226 0.23719 0.0
C422 C 0.35991 0.01676 0.27488 0.0
C423 C 0.36062 0.00635 0.31691 0.0
C424 C 0.36315 0.04258 0.27122 0.0
C425 C 0.35422 0.01226 0.19144 0.0
C426 C 0.38121 0.05167 0.24462 0.0
C427 C 0.38474 0.07586 0.24144 0.0
C428 C 0.37072 0.09154 0.26574 0.0
C429 C 0.35285 0.08244 0.29301 0.0
C430 C 0.34911 0.05816 0.29571 0.0
H431 H 0.34406 1e-05 0.17028 0.0
H432 H 0.34494 0.02941 0.19234 0.0
H433 H 0.37165 0.0148 0.17569 0.0
H434 H 0.39277 0.04004 0.22647 0.0
H435 H 0.39852 0.08216 0.21985 0.0
H436 H 0.89214 0.35149 0.56795 0.0
H437 H 0.93497 0.34949 0.57648 0.0
H438 H 0.94381 0.38715 0.45387 0.0
H439 H 0.9013 0.38952 0.44546 0.0
H440 H 0.9703 0.3308 0.5224 0.0
H441 H 0.98063 0.42708 0.5413 0.0
H442 H 0.95244 0.4127 0.54472 0.0
H443 H 0.96542 0.41899 0.49176 0.0
C444 C 0.90324 0.35929 0.54282 0.0
C445 C 0.89336 0.37099 0.50641 0.0
C446 C 0.92767 0.35812 0.5477 0.0
C447 C 0.94252 0.3686 0.51624 0.0
C448 C 0.93266 0.37948 0.47908 0.0
H449 H 0.0931 0.35091 0.4777 0.0
H450 H 0.0502 0.34824 0.47293 0.0
C451 C 0.90834 0.38078 0.47433 0.0
C452 C 0.96833 0.36857 0.5223 0.0
H453 H 0.01563 0.40508 0.52985 0.0
C454 C 0.98025 0.347 0.52432 0.0
C455 C 0.9812 0.38975 0.5254 0.0
C456 C 0.96927 0.41344 0.52614 0.0
C457 C 0.00482 0.34608 0.52837 0.0
C458 C 0.01775 0.3673 0.52957 0.0
C459 C 0.00573 0.38882 0.52843 0.0
C460 C 0.04373 0.3678 0.53305 0.0
C461 C 0.01663 0.32243 0.53203 0.0
C462 C 0.05433 0.38004 0.56788 0.0
C463 C 0.07871 0.38189 0.57027 0.0
C464 C 0.09306 0.37151 0.53789 0.0
C465 C 0.08249 0.359 0.50324 0.0
C466 C 0.05799 0.35731 0.50067 0.0
H467 H 0.00412 0.3086 0.54292 0.0
H468 H 0.02361 0.31731 0.49918 0.0
H469 H 0.03151 0.32302 0.55564 0.0
H470 H 0.04368 0.3883 0.59318 0.0
H471 H 0.08631 0.39147 0.59761 0.0
H472 H 0.64402 0.89267 0.79937 0.0
H473 H 0.64836 0.93533 0.80513 0.0
H474 H 0.58785 0.94482 0.7215 0.0
H475 H 0.58434 0.90251 0.71341 0.0
H476 H 0.62067 0.97427 0.69857 0.0
H477 H 0.61036 0.97829 0.88065 0.0
H478 H 0.63469 0.96052 0.86328 0.0
H479 H 0.60519 0.95176 0.84977 0.0
C480 C 0.63162 0.90387 0.78228 0.0
C481 C 0.61354 0.89412 0.7566 0.0
C482 C 0.63403 0.92826 0.78587 0.0
C483 C 0.61808 0.94333 0.76464 0.0
C484 C 0.60027 0.93359 0.73848 0.0
H485 H 0.58327 0.0854 0.82865 0.0
H486 H 0.58697 0.04315 0.82013 0.0
C487 C 0.59813 0.90929 0.73423 0.0
C488 C 0.61982 0.96926 0.76908 0.0
H489 H 0.61941 0.01388 0.84424 0.0
C490 C 0.6204 0.98295 0.73044 0.0
C491 C 0.61926 0.98058 0.81066 0.0
C492 C 0.61711 0.96706 0.85343 0.0
C493 C 0.61987 0.00759 0.73212 0.0
C494 C 0.61969 0.01891 0.77372 0.0
C495 C 0.6197 0.00521 0.81237 0.0
C496 C 0.61777 0.04483 0.77814 0.0
C497 C 0.61839 0.0211 0.68926 0.0
C498 C 0.63393 0.06001 0.75763 0.0
C499 C 0.6314 0.08439 0.76141 0.0
C500 C 0.61298 0.09401 0.78661 0.0
C501 C 0.59734 0.07873 0.80822 0.0
C502 C 0.59958 0.05446 0.80372 0.0
H503 H 0.61212 0.00986 0.66173 0.0
H504 H 0.60639 0.03638 0.69233 0.0
H505 H 0.63612 0.02766 0.68027 0.0
H506 H 0.64855 0.05304 0.73885 0.0
H507 H 0.644 0.09567 0.74492 0.0
H508 H 0.90408 0.58547 0.07271 0.0
H509 H 0.94617 0.59194 0.06998 0.0
H510 H 0.93565 0.65312 0.98811 0.0
H511 H 0.89321 0.64589 0.98862 0.0
H512 H 0.97057 0.62863 0.95734 0.0
H513 H 0.98466 0.63789 0.13634 0.0
H514 H 0.97048 0.61045 0.12538 0.0
H515 H 0.95565 0.63762 0.11252 0.0
C516 C 0.91059 0.6002 0.05377 0.0
C517 C 0.8952 0.61502 0.03054 0.0
C518 C 0.93476 0.60413 0.05289 0.0
C519 C 0.94411 0.62339 0.02987 0.0
C520 C 0.92883 0.63825 0.00647 0.0
H521 H 0.0961 0.64537 0.06392 0.0
H522 H 0.05358 0.65211 0.06563 0.0
C523 C 0.90458 0.63409 0.00676 0.0
C524 C 0.96994 0.62706 0.02846 0.0
H525 H 0.01885 0.62643 0.09342 0.0
C526 C 0.98109 0.62856 0.98716 0.0
C527 C 0.98376 0.62767 0.0673 0.0
C528 C 0.97295 0.62861 0.11282 0.0
C529 C 0.00566 0.62916 0.98356 0.0
C530 C 0.01948 0.62729 0.02225 0.0
C531 C 0.00833 0.62732 0.06365 0.0
C532 C 0.04534 0.62386 0.02043 0.0
C533 C 0.01645 0.63172 0.93823 0.0
C534 C 0.05485 0.60554 0.99513 0.0
C535 C 0.07905 0.6019 0.99357 0.0
C536 C 0.09434 0.61605 0.01835 0.0
C537 C 0.0848 0.6341 0.04454 0.0
C538 C 0.06051 0.63799 0.0455 0.0
H539 H 0.00467 0.64172 0.91582 0.0
H540 H 0.03368 0.64082 0.93957 0.0
H541 H 0.01904 0.61405 0.92361 0.0
H542 H 0.04352 0.59386 0.97668 0.0
H543 H 0.08567 0.58795 0.97286 0.0
H544 H 0.51012 0.17062 0.88186 0.0
H545 H 0.48959 0.19234 0.93859 0.0
H546 H 0.54662 0.24216 0.94498 0.0
H547 H 0.56786 0.21974 0.88829 0.0
H548 H 0.53848 0.22631 0.0229 0.0
H549 H 0.45207 0.24944 0.9593 0.0
H550 H 0.4567 0.21961 0.9431 0.0
H551 H 0.47605 0.24232 0.92244 0.0
C552 C 0.51813 0.18651 0.89444 0.0
C553 C 0.54078 0.19324 0.88103 0.0
C554 C 0.50614 0.19923 0.92655 0.0
C555 C 0.51629 0.21921 0.9458 0.0
C556 C 0.5383 0.22694 0.93036 0.0
H557 H 0.42287 0.2175 0.17151 0.0
H558 H 0.44554 0.24082 0.118 0.0
C559 C 0.55041 0.21412 0.89797 0.0
C560 C 0.50578 0.22857 0.98715 0.0
H561 H 0.45175 0.23049 0.03546 0.0
C562 C 0.51958 0.22823 0.02553 0.0
C563 C 0.48129 0.23226 0.99123 0.0
C564 C 0.46583 0.23622 0.95156 0.0
C565 C 0.50911 0.2274 0.06748 0.0
C566 C 0.48436 0.22606 0.07079 0.0
C567 C 0.47076 0.23054 0.03306 0.0
C568 C 0.47277 0.21467 0.10927 0.0
C569 C 0.52474 0.22608 0.10754 0.0
C570 C 0.4806 0.19236 0.1225 0.0
C571 C 0.46782 0.17914 0.15281 0.0
C572 C 0.4466 0.18767 0.17032 0.0
C573 C 0.43916 0.21043 0.15863 0.0
C574 C 0.4521 0.22378 0.1281 0.0
H575 H 0.54005 0.23798 0.1035 0.0
H576 H 0.51518 0.23088 0.13825 0.0
H577 H 0.53172 0.20796 0.11096 0.0
H578 H 0.49597 0.18447 0.10748 0.0
H579 H 0.47418 0.16174 0.16106 0.0
H580 H 0.76777 0.56099 0.11298 0.0
H581 H 0.74427 0.5392 0.16751 0.0
H582 H 0.80121 0.4899 0.18381 0.0
H583 H 0.82408 0.51068 0.1289 0.0
H584 H 0.75897 0.46823 0.18999 0.0
H585 H 0.75947 0.54833 0.29607 0.0
H586 H 0.74487 0.5492 0.24353 0.0
H587 H 0.77636 0.54746 0.24572 0.0
C588 C 0.77501 0.54519 0.12756 0.0
C589 C 0.79802 0.53787 0.11727 0.0
C590 C 0.76161 0.53286 0.15892 0.0
C591 C 0.77116 0.51321 0.18055 0.0
C592 C 0.7934 0.50501 0.16773 0.0
H593 H 0.82355 0.46988 0.39261 0.0
H594 H 0.80109 0.4902 0.33672 0.0
C595 C 0.80661 0.5171 0.13644 0.0
C596 C 0.76013 0.50237 0.22013 0.0
H597 H 0.75862 0.51205 0.33118 0.0
C598 C 0.758 0.4778 0.2209 0.0
C599 C 0.75828 0.51498 0.26027 0.0
C600 C 0.75987 0.54144 0.26176 0.0
C601 C 0.7583 0.46531 0.26091 0.0
C602 C 0.75996 0.47792 0.30104 0.0
C603 C 0.7578 0.50249 0.30026 0.0
C604 C 0.7709 0.46712 0.34063 0.0
C605 C 0.75989 0.43885 0.25952 0.0
C606 C 0.76116 0.4477 0.36275 0.0
C607 C 0.77431 0.43565 0.39477 0.0
C608 C 0.79727 0.443 0.40512 0.0
C609 C 0.80611 0.46345 0.38509 0.0
C610 C 0.79314 0.47527 0.35323 0.0
H611 H 0.75948 0.43192 0.22524 0.0
H612 H 0.7764 0.43286 0.27541 0.0
H613 H 0.74493 0.43112 0.278 0.0
H614 H 0.74384 0.44137 0.35422 0.0
H615 H 0.7669 0.42008 0.40996 0.0
H616 H 0.51191 0.81746 0.65878 0.0
H617 H 0.49188 0.7947 0.60313 0.0
H618 H 0.54792 0.74361 0.60419 0.0
H619 H 0.56869 0.76704 0.65979 0.0
H620 H 0.54097 0.75722 0.52423 0.0
H621 H 0.4535 0.73768 0.58772 0.0
H622 H 0.45858 0.76784 0.60102 0.0
H623 H 0.47727 0.74536 0.62444 0.0
C624 C 0.51983 0.80112 0.64807 0.0
C625 C 0.54207 0.79426 0.6633 0.0
C626 C 0.5081 0.78782 0.61658 0.0
C627 C 0.51811 0.76711 0.59982 0.0
C628 C 0.53971 0.75938 0.61692 0.0
H629 H 0.42591 0.7663 0.37515 0.0
H630 H 0.44821 0.74287 0.42874 0.0
C631 C 0.55156 0.77279 0.64867 0.0
C632 C 0.50788 0.75668 0.55924 0.0
H633 H 0.45431 0.75449 0.50985 0.0
C634 C 0.52206 0.75562 0.52127 0.0
C635 C 0.48337 0.75332 0.55489 0.0
C636 C 0.46745 0.75082 0.59449 0.0
C637 C 0.51202 0.75549 0.47902 0.0
C638 C 0.48733 0.75731 0.47495 0.0
C639 C 0.47329 0.7541 0.51269 0.0
C640 C 0.47635 0.76818 0.43542 0.0
C641 C 0.52803 0.75531 0.43929 0.0
C642 C 0.48491 0.78996 0.42065 0.0
C643 C 0.47232 0.80325 0.39025 0.0
C644 C 0.4506 0.79532 0.37422 0.0
C645 C 0.44258 0.77291 0.38693 0.0
C646 C 0.45532 0.75949 0.41753 0.0
H647 H 0.54286 0.74296 0.44473 0.0
H648 H 0.51859 0.75013 0.40877 0.0
H649 H 0.5357 0.77306 0.43458 0.0
H650 H 0.50061 0.79754 0.4348 0.0
H651 H 0.47913 0.82035 0.38105 0.0
H652 H 0.2173 0.5364 0.95481 0.0
H653 H 0.23917 0.51379 0.89847 0.0
H654 H 0.19156 0.53901 0.79837 0.0
H655 H 0.16967 0.56079 0.85407 0.0
H656 H 0.21526 0.47847 0.84768 0.0
H657 H 0.25636 0.54348 0.73716 0.0
H658 H 0.24973 0.54964 0.79449 0.0
H659 H 0.22737 0.55264 0.75284 0.0
C660 C 0.21202 0.53745 0.92052 0.0
C661 C 0.19188 0.55017 0.90846 0.0
C662 C 0.22447 0.52464 0.8885 0.0
C663 C 0.21725 0.52511 0.84413 0.0
C664 C 0.19782 0.53884 0.83215 0.0
H665 H 0.16977 0.47438 0.62892 0.0
H666 H 0.19142 0.49523 0.68568 0.0
C667 C 0.18518 0.5511 0.86401 0.0
C668 C 0.22686 0.50866 0.81087 0.0
H669 H 0.23893 0.50885 0.70063 0.0
C670 C 0.22151 0.48476 0.81592 0.0
C671 C 0.23526 0.5169 0.76975 0.0
C672 C 0.24275 0.54206 0.76339 0.0
C673 C 0.22085 0.46971 0.77924 0.0
C674 C 0.22606 0.47888 0.73682 0.0
C675 C 0.23468 0.5019 0.73305 0.0
C676 C 0.21673 0.46744 0.69658 0.0
C677 C 0.21183 0.44498 0.78538 0.0
C678 C 0.22436 0.44521 0.68245 0.0
C679 C 0.21185 0.43311 0.64972 0.0
C680 C 0.19153 0.4431 0.63107 0.0
C681 C 0.18513 0.46605 0.64306 0.0
C682 C 0.19761 0.47808 0.67536 0.0
H683 H 0.20761 0.44098 0.82044 0.0
H684 H 0.19575 0.44229 0.76533 0.0
H685 H 0.22528 0.43227 0.7739 0.0
H686 H 0.23926 0.43682 0.69806 0.0
H687 H 0.21724 0.41546 0.64099 0.0
loop_
_geom_bond_atom_site_label_1
_geom_bond_atom_site_label_2
_geom_bond_distance
_geom_bond_site_symmetry_2
_ccdc_geom_bond_type
Mg0 O1 2.028 . S
Mg0 O7 1.986 . S
Mg0 O9 2.114 . S
Mg0 O10 2.251 . S
Mg0 O13 2.010 . S
O1 Mg0 2.028 . S
O1 C4 1.250 . S
O2 Mg3 2.028 . S
O2 C4 1.248 . S
Mg3 O2 2.028 . S
Mg3 O8 2.032 . S
Mg3 O10 2.079 . S
C4 O1 1.250 . S
C4 O2 1.248 . S
C5 O6 1.264 . S
C5 O13 1.249 . S
O6 C5 1.264 . S
O7 Mg0 1.986 . S
O7 C11 1.246 . S
O8 Mg3 2.032 . S
O8 C11 1.259 . S
O9 Mg0 2.114 . S
O9 C12 1.252 . S
O10 Mg0 2.251 . S
O10 Mg3 2.079 . S
O10 C12 1.273 . S
C11 O7 1.246 . S
C11 O8 1.259 . S
C12 O9 1.252 . S
C12 O10 1.273 . S
O13 Mg0 2.010 . S
O13 C5 1.249 . S
Mg14 O15 2.028 . S
Mg14 O21 1.986 . S
Mg14 O23 2.114 . S
Mg14 O24 2.251 . S
Mg14 O27 2.010 . S
O15 Mg14 2.028 . S
O15 C18 1.250 . S
O16 Mg17 2.028 . S
O16 C18 1.248 . S
Mg17 O16 2.028 . S
Mg17 O22 2.032 . S
Mg17 O24 2.079 . S
C18 O15 1.250 . S
C18 O16 1.248 . S
C19 O20 1.264 . S
C19 O27 1.249 . S
O20 C19 1.264 . S
O21 Mg14 1.986 . S
O21 C25 1.246 . S
O22 Mg17 2.032 . S
O22 C25 1.259 . S
O23 Mg14 2.114 . S
O23 C26 1.252 . S
O24 Mg14 2.251 . S
O24 Mg17 2.079 . S
O24 C26 1.273 . S
C25 O21 1.246 . S
C25 O22 1.259 . S
C26 O23 1.252 . S
C26 O24 1.273 . S
O27 Mg14 2.010 . S
O27 C19 1.249 . S
Mg28 O29 2.028 . S
Mg28 O35 1.986 . S
Mg28 O37 2.114 . S
Mg28 O38 2.251 . S
Mg28 O41 2.010 . S
O29 Mg28 2.028 . S
O29 C32 1.250 . S
O30 Mg31 2.028 . S
O30 C32 1.248 . S
Mg31 O30 2.028 . S
Mg31 O36 2.032 . S
Mg31 O38 2.079 . S
C32 O29 1.250 . S
C32 O30 1.248 . S
C33 O34 1.264 . S
C33 O41 1.249 . S
O34 C33 1.264 . S
O35 Mg28 1.986 . S
O35 C39 1.246 . S
O36 Mg31 2.032 . S
O36 C39 1.259 . S
O37 Mg28 2.114 . S
O37 C40 1.252 . S
O38 Mg28 2.251 . S
O38 Mg31 2.079 . S
O38 C40 1.273 . S
C39 O35 1.246 . S
C39 O36 1.259 . S
C40 O37 1.252 . S
C40 O38 1.273 . S
O41 Mg28 2.010 . S
O41 C33 1.249 . S
Mg42 O43 2.028 . S
Mg42 O49 1.986 1_554 S
Mg42 O51 2.114 . S
Mg42 O52 2.251 . S
Mg42 O55 2.010 . S
O43 Mg42 2.028 . S
O43 C46 1.250 . S
O44 Mg45 2.028 . S
O44 C46 1.248 . S
Mg45 O44 2.028 . S
Mg45 O50 2.032 1_554 S
Mg45 O52 2.079 . S
C46 O43 1.250 . S
C46 O44 1.248 . S
C47 O48 1.264 . S
C47 O55 1.249 . S
O48 C47 1.264 . S
O49 Mg42 1.986 1_556 S
O49 C53 1.246 . S
O50 Mg45 2.032 1_556 S
O50 C53 1.259 . S
O51 Mg42 2.114 . S
O51 C54 1.252 . S
O52 Mg42 2.251 . S
O52 Mg45 2.079 . S
O52 C54 1.273 . S
C53 O49 1.246 . S
C53 O50 1.259 . S
C54 O51 1.252 . S
C54 O52 1.273 . S
O55 Mg42 2.010 . S
O55 C47 1.249 . S
Mg56 O57 2.028 . S
Mg56 O63 1.986 . S
Mg56 O65 2.114 . S
Mg56 O66 2.251 . S
Mg56 O69 2.010 . S
O57 Mg56 2.028 . S
O57 C60 1.250 . S
O58 Mg59 2.028 . S
O58 C60 1.248 . S
Mg59 O58 2.028 . S
Mg59 O64 2.032 . S
Mg59 O66 2.079 . S
C60 O57 1.250 . S
C60 O58 1.248 . S
C61 O62 1.264 . S
C61 O69 1.249 . S
O62 C61 1.264 . S
O63 Mg56 1.986 . S
O63 C67 1.246 . S
O64 Mg59 2.032 . S
O64 C67 1.259 . S
O65 Mg56 2.114 . S
O65 C68 1.252 . S
O66 Mg56 2.251 . S
O66 Mg59 2.079 . S
O66 C68 1.273 . S
C67 O63 1.246 . S
C67 O64 1.259 . S
C68 O65 1.252 . S
C68 O66 1.273 . S
O69 Mg56 2.010 . S
O69 C61 1.249 . S
Mg70 O71 2.028 . S
Mg70 O77 1.986 . S
Mg70 O79 2.114 . S
Mg70 O80 2.251 . S
Mg70 O83 2.010 . S
O71 Mg70 2.028 . S
O71 C74 1.250 . S
O72 Mg73 2.028 . S
O72 C74 1.248 . S
Mg73 O72 2.028 . S
Mg73 O78 2.032 . S
Mg73 O80 2.079 . S
C74 O71 1.250 . S
C74 O72 1.248 . S
C75 O76 1.264 . S
C75 O83 1.249 . S
O76 C75 1.264 . S
O77 Mg70 1.986 . S
O77 C81 1.246 . S
O78 Mg73 2.032 . S
O78 C81 1.259 . S
O79 Mg70 2.114 . S
O79 C82 1.252 . S
O80 Mg70 2.251 . S
O80 Mg73 2.079 . S
O80 C82 1.273 . S
C81 O77 1.246 . S
C81 O78 1.259 . S
C82 O79 1.252 . S
C82 O80 1.273 . S
O83 Mg70 2.010 . S
O83 C75 1.249 . S
Mg84 O85 2.028 . S
Mg84 O91 1.986 . S
Mg84 O93 2.114 . S
Mg84 O94 2.251 . S
Mg84 O97 2.010 . S
O85 Mg84 2.028 . S
O85 C88 1.250 . S
O86 Mg87 2.028 . S
O86 C88 1.248 . S
Mg87 O86 2.028 . S
Mg87 O92 2.032 . S
Mg87 O94 2.079 . S
C88 O85 1.250 . S
C88 O86 1.248 . S
C89 O90 1.264 . S
C89 O97 1.249 . S
O90 C89 1.264 . S
O91 Mg84 1.986 . S
O91 C95 1.246 . S
O92 Mg87 2.032 . S
O92 C95 1.259 . S
O93 Mg84 2.114 . S
O93 C96 1.252 . S
O94 Mg84 2.251 . S
O94 Mg87 2.079 . S
O94 C96 1.273 . S
C95 O91 1.246 . S
C95 O92 1.259 . S
C96 O93 1.252 . S
C96 O94 1.273 . S
O97 Mg84 2.010 . S
O97 C89 1.249 . S
Mg98 O99 2.028 1_554 S
Mg98 O105 1.986 . S
Mg98 O107 2.114 1_554 S
Mg98 O108 2.251 . S
Mg98 O111 2.010 . S
O99 Mg98 2.028 1_556 S
O99 C102 1.250 . S
O100 Mg101 2.028 1_556 S
O100 C102 1.248 . S
Mg101 O100 2.028 1_554 S
Mg101 O106 2.032 . S
Mg101 O108 2.079 . S
C102 O99 1.250 . S
C102 O100 1.248 . S
C103 O104 1.264 . S
C103 O111 1.249 . S
O104 C103 1.264 . S
O105 Mg98 1.986 . S
O105 C109 1.246 . S
O106 Mg101 2.032 . S
O106 C109 1.259 . S
O107 Mg98 2.114 1_556 S
O107 C110 1.252 1_556 S
O108 Mg98 2.251 . S
O108 Mg101 2.079 . S
O108 C110 1.273 . S
C109 O105 1.246 . S
C109 O106 1.259 . S
C110 O107 1.252 1_554 S
C110 O108 1.273 . S
O111 Mg98 2.010 . S
O111 C103 1.249 . S
H112 C120 0.929 . S
H113 C122 0.930 . S
H114 C124 0.930 . S
H115 C127 0.929 . S
H116 C130 0.930 . S
H117 C132 0.960 . S
H118 C132 0.960 . S
H119 C132 0.960 . S
C120 H112 0.929 . S
C120 C121 1.377 . S
C120 C122 1.384 . S
C121 C120 1.377 . S
C121 C127 1.390 . S
C122 H113 0.930 . S
C122 C120 1.384 . S
C122 C123 1.372 . S
C123 C122 1.372 . S
C123 C124 1.400 . S
C123 C128 1.490 . S
C124 H114 0.930 . S
C124 C123 1.400 . S
C124 C127 1.386 . S
H125 C141 0.930 . S
H126 C142 0.931 . S
C127 H115 0.929 . S
C127 C121 1.390 . S
C127 C124 1.386 . S
C128 C123 1.490 . S
C128 C130 1.395 . S
C128 C131 1.403 . S
H129 C135 0.930 . S
C130 H116 0.930 . S
C130 C128 1.395 . S
C130 C133 1.403 . S
C131 C128 1.403 . S
C131 C132 1.524 . S
C131 C135 1.400 . S
C132 H117 0.960 . S
C132 H118 0.960 . S
C132 H119 0.960 . S
C132 C131 1.524 . S
C133 C130 1.403 . S
C133 C134 1.392 . S
C133 C137 1.495 . S
C134 C133 1.392 . S
C134 C135 1.385 . S
C134 C136 1.478 . S
C135 H129 0.930 . S
C135 C131 1.400 . S
C135 C134 1.385 . S
C136 C134 1.478 . S
C136 C138 1.381 . S
C136 C142 1.383 . S
C137 C133 1.495 . S
C137 H143 0.959 . S
C137 H144 0.961 . S
C137 H145 0.960 . S
C138 C136 1.381 . S
C138 C139 1.394 . S
C138 H146 0.930 . S
C139 C138 1.394 . S
C139 C140 1.383 . S
C139 H147 0.929 . S
C140 C139 1.383 . S
C140 C141 1.377 . S
C141 H125 0.930 . S
C141 C140 1.377 . S
C141 C142 1.379 . S
C142 H126 0.931 . S
C142 C136 1.383 . S
C142 C141 1.379 . S
H143 C137 0.959 . S
H144 C137 0.961 . S
H145 C137 0.960 . S
H146 C138 0.930 . S
H147 C139 0.929 . S
H148 C156 0.929 . S
H149 C158 0.930 . S
H150 C160 0.930 . S
H151 C163 0.929 . S
H152 C166 0.930 . S
H153 C168 0.960 . S
H154 C168 0.960 . S
H155 C168 0.960 . S
C156 H148 0.929 . S
C156 C157 1.377 . S
C156 C158 1.384 . S
C157 C156 1.377 . S
C157 C163 1.390 . S
C158 H149 0.930 . S
C158 C156 1.384 . S
C158 C159 1.372 . S
C159 C158 1.372 . S
C159 C160 1.400 . S
C159 C164 1.490 . S
C160 H150 0.930 . S
C160 C159 1.400 . S
C160 C163 1.386 . S
H161 C177 0.930 . S
H162 C178 0.931 . S
C163 H151 0.929 . S
C163 C157 1.390 . S
C163 C160 1.386 . S
C164 C159 1.490 . S
C164 C166 1.395 . S
C164 C167 1.403 . S
H165 C171 0.930 . S
C166 H152 0.930 . S
C166 C164 1.395 . S
C166 C169 1.403 . S
C167 C164 1.403 . S
C167 C168 1.524 . S
C167 C171 1.400 . S
C168 H153 0.960 . S
C168 H154 0.960 . S
C168 H155 0.960 . S
C168 C167 1.524 . S
C169 C166 1.403 . S
C169 C170 1.392 . S
C169 C173 1.495 . S
C170 C169 1.392 . S
C170 C171 1.385 . S
C170 C172 1.478 . S
C171 H165 0.930 . S
C171 C167 1.400 . S
C171 C170 1.385 . S
C172 C170 1.478 . S
C172 C174 1.381 . S
C172 C178 1.383 . S
C173 C169 1.495 . S
C173 H179 0.959 . S
C173 H180 0.961 . S
C173 H181 0.960 . S
C174 C172 1.381 . S
C174 C175 1.394 . S
C174 H182 0.930 . S
C175 C174 1.394 . S
C175 C176 1.383 . S
C175 H183 0.929 . S
C176 C175 1.383 . S
C176 C177 1.377 . S
C177 H161 0.930 . S
C177 C176 1.377 . S
C177 C178 1.379 . S
C178 H162 0.931 . S
C178 C172 1.383 . S
C178 C177 1.379 . S
H179 C173 0.959 . S
H180 C173 0.961 . S
H181 C173 0.960 . S
H182 C174 0.930 . S
H183 C175 0.929 . S
H184 C192 0.929 . S
H185 C194 0.930 . S
H186 C196 0.930 . S
H187 C199 0.929 . S
H188 C202 0.930 . S
H189 C204 0.960 . S
H190 C204 0.960 . S
H191 C204 0.960 . S
C192 H184 0.929 . S
C192 C193 1.377 . S
C192 C194 1.384 . S
C193 C192 1.377 . S
C193 C199 1.390 . S
C194 H185 0.930 . S
C194 C192 1.384 . S
C194 C195 1.372 . S
C195 C194 1.372 . S
C195 C196 1.400 . S
C195 C200 1.490 . S
C196 H186 0.930 . S
C196 C195 1.400 . S
C196 C199 1.386 . S
H197 C213 0.930 . S
H198 C214 0.931 . S
C199 H187 0.929 . S
C199 C193 1.390 . S
C199 C196 1.386 . S
C200 C195 1.490 . S
C200 C202 1.395 . S
C200 C203 1.403 . S
H201 C207 0.930 . S
C202 H188 0.930 . S
C202 C200 1.395 . S
C202 C205 1.403 1_554 S
C203 C200 1.403 . S
C203 C204 1.524 . S
C203 C207 1.400 . S
C204 H189 0.960 . S
C204 H190 0.960 . S
C204 H191 0.960 . S
C204 C203 1.524 . S
C205 C202 1.403 1_556 S
C205 C206 1.392 . S
C205 C209 1.495 . S
C206 C205 1.392 . S
C206 C207 1.385 1_556 S
C206 C208 1.478 . S
C207 H201 0.930 . S
C207 C203 1.400 . S
C207 C206 1.385 1_554 S
C208 C206 1.478 . S
C208 C210 1.381 . S
C208 C214 1.383 . S
C209 C205 1.495 . S
C209 H215 0.959 . S
C209 H216 0.961 . S
C209 H217 0.960 . S
C210 C208 1.381 . S
C210 C211 1.394 . S
C210 H218 0.930 . S
C211 C210 1.394 . S
C211 C212 1.383 . S
C211 H219 0.929 . S
C212 C211 1.383 . S
C212 C213 1.377 . S
C213 H197 0.930 . S
C213 C212 1.377 . S
C213 C214 1.379 . S
C214 H198 0.931 . S
C214 C208 1.383 . S
C214 C213 1.379 . S
H215 C209 0.959 . S
H216 C209 0.961 . S
H217 C209 0.960 . S
H218 C210 0.930 . S
H219 C211 0.929 . S
H220 C228 0.929 . S
H221 C230 0.930 . S
H222 C232 0.930 . S
H223 C235 0.929 . S
H224 C238 0.930 . S
H225 C240 0.960 . S
H226 C240 0.960 . S
H227 C240 0.960 . S
C228 H220 0.929 . S
C228 C229 1.377 . S
C228 C230 1.384 . S
C229 C228 1.377 . S
C229 C235 1.390 . S
C230 H221 0.930 . S
C230 C228 1.384 . S
C230 C231 1.372 . S
C231 C230 1.372 . S
C231 C232 1.400 . S
C231 C236 1.490 . S
C232 H222 0.930 . S
C232 C231 1.400 . S
C232 C235 1.386 . S
H233 C249 0.930 . S
H234 C250 0.931 . S
C235 H223 0.929 . S
C235 C229 1.390 . S
C235 C232 1.386 . S
C236 C231 1.490 . S
C236 C238 1.395 . S
C236 C239 1.403 . S
H237 C243 0.930 . S
C238 H224 0.930 . S
C238 C236 1.395 . S
C238 C241 1.403 . S
C239 C236 1.403 . S
C239 C240 1.524 . S
C239 C243 1.400 . S
C240 H225 0.960 . S
C240 H226 0.960 . S
C240 H227 0.960 . S
C240 C239 1.524 . S
C241 C238 1.403 . S
C241 C242 1.392 . S
C241 C245 1.495 . S
C242 C241 1.392 . S
C242 C243 1.385 . S
C242 C244 1.478 . S
C243 H237 0.930 . S
C243 C239 1.400 . S
C243 C242 1.385 . S
C244 C242 1.478 . S
C244 C246 1.381 . S
C244 C250 1.383 . S
C245 C241 1.495 . S
C245 H251 0.959 . S
C245 H252 0.961 . S
C245 H253 0.960 . S
C246 C244 1.381 . S
C246 C247 1.394 . S
C246 H254 0.930 . S
C247 C246 1.394 . S
C247 C248 1.383 . S
C247 H255 0.929 . S
C248 C247 1.383 . S
C248 C249 1.377 . S
C249 H233 0.930 . S
C249 C248 1.377 . S
C249 C250 1.379 . S
C250 H234 0.931 . S
C250 C244 1.383 . S
C250 C249 1.379 . S
H251 C245 0.959 . S
H252 C245 0.961 . S
H253 C245 0.960 . S
H254 C246 0.930 . S
H255 C247 0.929 . S
H256 C264 0.929 . S
H257 C266 0.930 . S
H258 C268 0.930 . S
H259 C271 0.929 . S
H260 C274 0.930 . S
H261 C276 0.960 . S
H262 C276 0.960 . S
H263 C276 0.960 . S
C264 H256 0.929 . S
C264 C265 1.377 . S
C264 C266 1.384 . S
C265 C264 1.377 . S
C265 C271 1.390 . S
C266 H257 0.930 . S
C266 C264 1.384 . S
C266 C267 1.372 . S
C267 C266 1.372 . S
C267 C268 1.400 . S
C267 C272 1.490 . S
C268 H258 0.930 . S
C268 C267 1.400 . S
C268 C271 1.386 . S
H269 C285 0.930 . S
H270 C286 0.931 . S
C271 H259 0.929 . S
C271 C265 1.390 . S
C271 C268 1.386 . S
C272 C267 1.490 . S
C272 C274 1.395 . S
C272 C275 1.403 . S
H273 C279 0.930 . S
C274 H260 0.930 . S
C274 C272 1.395 . S
C274 C277 1.403 . S
C275 C272 1.403 . S
C275 C276 1.524 . S
C275 C279 1.400 . S
C276 H261 0.960 . S
C276 H262 0.960 . S
C276 H263 0.960 . S
C276 C275 1.524 . S
C277 C274 1.403 . S
C277 C278 1.392 . S
C277 C281 1.495 . S
C278 C277 1.392 . S
C278 C279 1.385 . S
C278 C280 1.478 . S
C279 H273 0.930 . S
C279 C275 1.400 . S
C279 C278 1.385 . S
C280 C278 1.478 . S
C280 C282 1.381 . S
C280 C286 1.383 . S
C281 C277 1.495 . S
C281 H287 0.959 . S
C281 H288 0.961 . S
C281 H289 0.960 . S
C282 C280 1.381 . S
C282 C283 1.394 . S
C282 H290 0.930 . S
C283 C282 1.394 . S
C283 C284 1.383 . S
C283 H291 0.929 . S
C284 C283 1.383 . S
C284 C285 1.377 . S
C285 H269 0.930 . S
C285 C284 1.377 . S
C285 C286 1.379 . S
C286 H270 0.931 . S
C286 C280 1.383 . S
C286 C285 1.379 . S
H287 C281 0.959 . S
H288 C281 0.961 . S
H289 C281 0.960 . S
H290 C282 0.930 . S
H291 C283 0.929 . S
H292 C300 0.929 . S
H293 C302 0.930 . S
H294 C304 0.930 . S
H295 C307 0.929 . S
H296 C310 0.930 . S
H297 C312 0.960 . S
H298 C312 0.960 . S
H299 C312 0.960 . S
C300 H292 0.929 . S
C300 C301 1.377 . S
C300 C302 1.384 . S
C301 C300 1.377 . S
C301 C307 1.390 . S
C302 H293 0.930 . S
C302 C300 1.384 . S
C302 C303 1.372 . S
C303 C302 1.372 . S
C303 C304 1.400 . S
C303 C308 1.490 . S
C304 H294 0.930 . S
C304 C303 1.400 . S
C304 C307 1.386 . S
H305 C321 0.930 . S
H306 C322 0.931 . S
C307 H295 0.929 . S
C307 C301 1.390 . S
C307 C304 1.386 . S
C308 C303 1.490 . S
C308 C310 1.395 . S
C308 C311 1.403 . S
H309 C315 0.930 . S
C310 H296 0.930 . S
C310 C308 1.395 . S
C310 C313 1.403 . S
C311 C308 1.403 . S
C311 C312 1.524 . S
C311 C315 1.400 . S
C312 H297 0.960 . S
C312 H298 0.960 . S
C312 H299 0.960 . S
C312 C311 1.524 . S
C313 C310 1.403 . S
C313 C314 1.392 . S
C313 C317 1.495 . S
C314 C313 1.392 . S
C314 C315 1.385 . S
C314 C316 1.478 . S
C315 H309 0.930 . S
C315 C311 1.400 . S
C315 C314 1.385 . S
C316 C314 1.478 . S
C316 C318 1.381 . S
C316 C322 1.383 . S
C317 C313 1.495 . S
C317 H323 0.959 . S
C317 H324 0.961 . S
C317 H325 0.960 . S
C318 C316 1.381 . S
C318 C319 1.394 . S
C318 H326 0.930 . S
C319 C318 1.394 . S
C319 C320 1.383 . S
C319 H327 0.929 . S
C320 C319 1.383 . S
C320 C321 1.377 . S
C321 H305 0.930 . S
C321 C320 1.377 . S
C321 C322 1.379 . S
C322 H306 0.931 . S
C322 C316 1.383 . S
C322 C321 1.379 . S
H323 C317 0.959 . S
H324 C317 0.961 . S
H325 C317 0.960 . S
H326 C318 0.930 . S
H327 C319 0.929 . S
H328 C336 0.929 1_554 S
H329 C338 0.930 . S
H330 C340 0.930 . S
H331 C343 0.929 . S
H332 C346 0.930 . S
H333 C348 0.960 . S
H334 C348 0.960 . S
H335 C348 0.960 . S
C336 H328 0.929 1_556 S
C336 C337 1.377 . S
C336 C338 1.384 . S
C337 C336 1.377 . S
C337 C343 1.390 . S
C338 H329 0.930 . S
C338 C336 1.384 . S
C338 C339 1.372 . S
C339 C338 1.372 . S
C339 C340 1.400 . S
C339 C344 1.490 . S
C340 H330 0.930 . S
C340 C339 1.400 . S
C340 C343 1.386 . S
H341 C357 0.930 . S
H342 C358 0.931 . S
C343 H331 0.929 . S
C343 C337 1.390 . S
C343 C340 1.386 . S
C344 C339 1.490 . S
C344 C346 1.395 . S
C344 C347 1.403 . S
H345 C351 0.930 . S
C346 H332 0.930 . S
C346 C344 1.395 . S
C346 C349 1.403 . S
C347 C344 1.403 . S
C347 C348 1.524 . S
C347 C351 1.400 . S
C348 H333 0.960 . S
C348 H334 0.960 . S
C348 H335 0.960 . S
C348 C347 1.524 . S
C349 C346 1.403 . S
C349 C350 1.392 . S
C349 C353 1.495 . S
C350 C349 1.392 . S
C350 C351 1.385 . S
C350 C352 1.478 . S
C351 H345 0.930 . S
C351 C347 1.400 . S
C351 C350 1.385 . S
C352 C350 1.478 . S
C352 C354 1.381 . S
C352 C358 1.383 . S
C353 C349 1.495 . S
C353 H359 0.959 . S
C353 H360 0.961 . S
C353 H361 0.960 . S
C354 C352 1.381 . S
C354 C355 1.394 . S
C354 H362 0.930 . S
C355 C354 1.394 . S
C355 C356 1.383 . S
C355 H363 0.929 . S
C356 C355 1.383 . S
C356 C357 1.377 . S
C357 H341 0.930 . S
C357 C356 1.377 . S
C357 C358 1.379 . S
C358 H342 0.931 . S
C358 C352 1.383 . S
C358 C357 1.379 . S
H359 C353 0.959 . S
H360 C353 0.961 . S
H361 C353 0.960 . S
H362 C354 0.930 . S
H363 C355 0.929 . S
H364 C372 0.929 . S
H365 C374 0.930 . S
H366 C376 0.930 . S
H367 C379 0.929 . S
H368 C382 0.930 . S
H369 C384 0.960 . S
H370 C384 0.960 . S
H371 C384 0.960 . S
C372 H364 0.929 . S
C372 C373 1.377 . S
C372 C374 1.384 . S
C373 C372 1.377 . S
C373 C379 1.390 . S
C374 H365 0.930 . S
C374 C372 1.384 . S
C374 C375 1.372 . S
C375 C374 1.372 . S
C375 C376 1.400 . S
C375 C380 1.490 . S
C376 H366 0.930 . S
C376 C375 1.400 . S
C376 C379 1.386 . S
H377 C393 0.930 . S
H378 C394 0.931 . S
C379 H367 0.929 . S
C379 C373 1.390 . S
C379 C376 1.386 . S
C380 C375 1.490 . S
C380 C382 1.395 . S
C380 C383 1.403 . S
H381 C387 0.930 . S
C382 H368 0.930 . S
C382 C380 1.395 . S
C382 C385 1.403 . S
C383 C380 1.403 . S
C383 C384 1.524 . S
C383 C387 1.400 . S
C384 H369 0.960 . S
C384 H370 0.960 . S
C384 H371 0.960 . S
C384 C383 1.524 . S
C385 C382 1.403 . S
C385 C386 1.392 . S
C385 C389 1.495 . S
C386 C385 1.392 . S
C386 C387 1.385 . S
C386 C388 1.478 . S
C387 H381 0.930 . S
C387 C383 1.400 . S
C387 C386 1.385 . S
C388 C386 1.478 . S
C388 C390 1.381 . S
C388 C394 1.383 . S
C389 C385 1.495 . S
C389 H395 0.959 . S
C389 H396 0.961 . S
C389 H397 0.960 . S
C390 C388 1.381 . S
C390 C391 1.394 . S
C390 H398 0.930 . S
C391 C390 1.394 . S
C391 C392 1.383 . S
C391 H399 0.929 . S
C392 C391 1.383 . S
C392 C393 1.377 . S
C393 H377 0.930 . S
C393 C392 1.377 . S
C393 C394 1.379 . S
C394 H378 0.931 . S
C394 C388 1.383 . S
C394 C393 1.379 . S
H395 C389 0.959 . S
H396 C389 0.961 . S
H397 C389 0.960 . S
H398 C390 0.930 . S
H399 C391 0.929 . S
H400 C408 0.929 . S
H401 C410 0.930 . S
H402 C412 0.930 . S
H403 C415 0.929 . S
H404 C418 0.930 . S
H405 C420 0.960 . S
H406 C420 0.960 . S
H407 C420 0.960 . S
C408 H400 0.929 . S
C408 C409 1.377 . S
C408 C410 1.384 . S
C409 C408 1.377 . S
C409 C415 1.390 . S
C410 H401 0.930 . S
C410 C408 1.384 . S
C410 C411 1.372 . S
C411 C410 1.372 . S
C411 C412 1.400 . S
C411 C416 1.490 . S
C412 H402 0.930 . S
C412 C411 1.400 . S
C412 C415 1.386 . S
H413 C429 0.930 . S
H414 C430 0.931 . S
C415 H403 0.929 . S
C415 C409 1.390 . S
C415 C412 1.386 . S
C416 C411 1.490 . S
C416 C418 1.395 . S
C416 C419 1.403 . S
H417 C423 0.930 . S
C418 H404 0.930 . S
C418 C416 1.395 . S
C418 C421 1.403 1_565 S
C419 C416 1.403 . S
C419 C420 1.524 . S
C419 C423 1.400 1_565 S
C420 H405 0.960 . S
C420 H406 0.960 . S
C420 H407 0.960 . S
C420 C419 1.524 . S
C421 C418 1.403 1_545 S
C421 C422 1.392 . S
C421 C425 1.495 . S
C422 C421 1.392 . S
C422 C423 1.385 . S
C422 C424 1.478 . S
C423 H417 0.930 . S
C423 C419 1.400 1_545 S
C423 C422 1.385 . S
C424 C422 1.478 . S
C424 C426 1.381 . S
C424 C430 1.383 . S
C425 C421 1.495 . S
C425 H431 0.959 . S
C425 H432 0.961 . S
C425 H433 0.960 . S
C426 C424 1.381 . S
C426 C427 1.394 . S
C426 H434 0.930 . S
C427 C426 1.394 . S
C427 C428 1.383 . S
C427 H435 0.929 . S
C428 C427 1.383 . S
C428 C429 1.377 . S
C429 H413 0.930 . S
C429 C428 1.377 . S
C429 C430 1.379 . S
C430 H414 0.931 . S
C430 C424 1.383 . S
C430 C429 1.379 . S
H431 C425 0.959 . S
H432 C425 0.961 . S
H433 C425 0.960 . S
H434 C426 0.930 . S
H435 C427 0.929 . S
H436 C444 0.929 . S
H437 C446 0.930 . S
H438 C448 0.930 . S
H439 C451 0.929 . S
H440 C454 0.930 . S
H441 C456 0.960 . S
H442 C456 0.960 . S
H443 C456 0.960 . S
C444 H436 0.929 . S
C444 C445 1.377 . S
C444 C446 1.384 . S
C445 C444 1.377 . S
C445 C451 1.390 . S
C446 H437 0.930 . S
C446 C444 1.384 . S
C446 C447 1.372 . S
C447 C446 1.372 . S
C447 C448 1.400 . S
C447 C452 1.490 . S
C448 H438 0.930 . S
C448 C447 1.400 . S
C448 C451 1.386 . S
H449 C465 0.930 . S
H450 C466 0.931 . S
C451 H439 0.929 . S
C451 C445 1.390 . S
C451 C448 1.386 . S
C452 C447 1.490 . S
C452 C454 1.395 . S
C452 C455 1.403 . S
H453 C459 0.930 . S
C454 H440 0.930 . S
C454 C452 1.395 . S
C454 C457 1.403 1_655 S
C455 C452 1.403 . S
C455 C456 1.524 . S
C455 C459 1.400 1_655 S
C456 H441 0.960 . S
C456 H442 0.960 . S
C456 H443 0.960 . S
C456 C455 1.524 . S
C457 C454 1.403 1_455 S
C457 C458 1.392 . S
C457 C461 1.495 . S
C458 C457 1.392 . S
C458 C459 1.385 . S
C458 C460 1.478 . S
C459 H453 0.930 . S
C459 C455 1.400 1_455 S
C459 C458 1.385 . S
C460 C458 1.478 . S
C460 C462 1.381 . S
C460 C466 1.383 . S
C461 C457 1.495 . S
C461 H467 0.959 . S
C461 H468 0.961 . S
C461 H469 0.960 . S
C462 C460 1.381 . S
C462 C463 1.394 . S
C462 H470 0.930 . S
C463 C462 1.394 . S
C463 C464 1.383 . S
C463 H471 0.929 . S
C464 C463 1.383 . S
C464 C465 1.377 . S
C465 H449 0.930 . S
C465 C464 1.377 . S
C465 C466 1.379 . S
C466 H450 0.931 . S
C466 C460 1.383 . S
C466 C465 1.379 . S
H467 C461 0.959 . S
H468 C461 0.961 . S
H469 C461 0.960 . S
H470 C462 0.930 . S
H471 C463 0.929 . S
H472 C480 0.929 . S
H473 C482 0.930 . S
H474 C484 0.930 . S
H475 C487 0.929 . S
H476 C490 0.930 . S
H477 C492 0.960 . S
H478 C492 0.960 . S
H479 C492 0.960 . S
C480 H472 0.929 . S
C480 C481 1.377 . S
C480 C482 1.384 . S
C481 C480 1.377 . S
C481 C487 1.390 . S
C482 H473 0.930 . S
C482 C480 1.384 . S
C482 C483 1.372 . S
C483 C482 1.372 . S
C483 C484 1.400 . S
C483 C488 1.490 . S
C484 H474 0.930 . S
C484 C483 1.400 . S
C484 C487 1.386 . S
H485 C501 0.930 . S
H486 C502 0.931 . S
C487 H475 0.929 . S
C487 C481 1.390 . S
C487 C484 1.386 . S
C488 C483 1.490 . S
C488 C490 1.395 . S
C488 C491 1.403 . S
H489 C495 0.930 . S
C490 H476 0.930 . S
C490 C488 1.395 . S
C490 C493 1.403 1_565 S
C491 C488 1.403 . S
C491 C492 1.524 . S
C491 C495 1.400 1_565 S
C492 H477 0.960 . S
C492 H478 0.960 . S
C492 H479 0.960 . S
C492 C491 1.524 . S
C493 C490 1.403 1_545 S
C493 C494 1.392 . S
C493 C497 1.495 . S
C494 C493 1.392 . S
C494 C495 1.385 . S
C494 C496 1.478 . S
C495 H489 0.930 . S
C495 C491 1.400 1_545 S
C495 C494 1.385 . S
C496 C494 1.478 . S
C496 C498 1.381 . S
C496 C502 1.383 . S
C497 C493 1.495 . S
C497 H503 0.959 . S
C497 H504 0.961 . S
C497 H505 0.960 . S
C498 C496 1.381 . S
C498 C499 1.394 . S
C498 H506 0.930 . S
C499 C498 1.394 . S
C499 C500 1.383 . S
C499 H507 0.929 . S
C500 C499 1.383 . S
C500 C501 1.377 . S
C501 H485 0.930 . S
C501 C500 1.377 . S
C501 C502 1.379 . S
C502 H486 0.931 . S
C502 C496 1.383 . S
C502 C501 1.379 . S
H503 C497 0.959 . S
H504 C497 0.961 . S
H505 C497 0.960 . S
H506 C498 0.930 . S
H507 C499 0.929 . S
H508 C516 0.929 . S
H509 C518 0.930 . S
H510 C520 0.930 . S
H511 C523 0.929 . S
H512 C526 0.930 . S
H513 C528 0.960 . S
H514 C528 0.960 . S
H515 C528 0.960 . S
C516 H508 0.929 . S
C516 C517 1.377 1_556 S
C516 C518 1.384 . S
C517 C516 1.377 1_554 S
C517 C523 1.390 . S
C518 H509 0.930 . S
C518 C516 1.384 . S
C518 C519 1.372 1_556 S
C519 C518 1.372 1_554 S
C519 C520 1.400 . S
C519 C524 1.490 . S
C520 H510 0.930 . S
C520 C519 1.400 . S
C520 C523 1.386 . S
H521 C537 0.930 . S
H522 C538 0.931 . S
C523 H511 0.929 . S
C523 C517 1.390 . S
C523 C520 1.386 . S
C524 C519 1.490 . S
C524 C526 1.395 1_554 S
C524 C527 1.403 . S
H525 C531 0.930 . S
C526 H512 0.930 . S
C526 C524 1.395 1_556 S
C526 C529 1.403 1_655 S
C527 C524 1.403 . S
C527 C528 1.524 . S
C527 C531 1.400 1_655 S
C528 H513 0.960 . S
C528 H514 0.960 . S
C528 H515 0.960 . S
C528 C527 1.524 . S
C529 C526 1.403 1_455 S
C529 C530 1.392 1_556 S
C529 C533 1.495 . S
C530 C529 1.392 1_554 S
C530 C531 1.385 . S
C530 C532 1.478 . S
C531 H525 0.930 . S
C531 C527 1.400 1_455 S
C531 C530 1.385 . S
C532 C530 1.478 . S
C532 C534 1.381 . S
C532 C538 1.383 . S
C533 C529 1.495 . S
C533 H539 0.959 . S
C533 H540 0.961 . S
C533 H541 0.960 . S
C534 C532 1.381 . S
C534 C535 1.394 . S
C534 H542 0.930 1_554 S
C535 C534 1.394 . S
C535 C536 1.383 . S
C535 H543 0.929 . S
C536 C535 1.383 . S
C536 C537 1.377 . S
C537 H521 0.930 . S
C537 C536 1.377 . S
C537 C538 1.379 . S
C538 H522 0.931 . S
C538 C532 1.383 . S
C538 C537 1.379 . S
H539 C533 0.959 . S
H540 C533 0.961 . S
H541 C533 0.960 . S
H542 C534 0.930 1_556 S
H543 C535 0.929 . S
H544 C552 0.929 . S
H545 C554 0.930 . S
H546 C556 0.930 . S
H547 C559 0.929 . S
H548 C562 0.930 . S
H549 C564 0.960 . S
H550 C564 0.960 . S
H551 C564 0.960 . S
C552 H544 0.929 . S
C552 C553 1.377 . S
C552 C554 1.384 . S
C553 C552 1.377 . S
C553 C559 1.390 . S
C554 H545 0.930 . S
C554 C552 1.384 . S
C554 C555 1.372 . S
C555 C554 1.372 . S
C555 C556 1.400 . S
C555 C560 1.490 . S
C556 H546 0.930 . S
C556 C555 1.400 . S
C556 C559 1.386 . S
H557 C573 0.930 . S
H558 C574 0.931 . S
C559 H547 0.929 . S
C559 C553 1.390 . S
C559 C556 1.386 . S
C560 C555 1.490 . S
C560 C562 1.395 1_556 S
C560 C563 1.408 . S
H561 C567 0.930 . S
C562 H548 0.930 . S
C562 C560 1.395 1_554 S
C562 C565 1.403 . S
C563 C560 1.408 . S
C563 C564 1.536 . S
C563 C567 1.382 1_556 S
C564 H549 0.960 . S
C564 H550 0.960 . S
C564 H551 0.960 . S
C564 C563 1.536 . S
C565 C562 1.403 . S
C565 C566 1.392 . S
C565 C569 1.495 . S
C566 C565 1.392 . S
C566 C567 1.385 . S
C566 C568 1.478 . S
C567 H561 0.930 . S
C567 C563 1.382 1_554 S
C567 C566 1.385 . S
C568 C566 1.478 . S
C568 C570 1.381 . S
C568 C574 1.383 . S
C569 C565 1.495 . S
C569 H575 0.959 . S
C569 H576 0.961 . S
C569 H577 0.960 . S
C570 C568 1.381 . S
C570 C571 1.394 . S
C570 H578 0.930 . S
C571 C570 1.394 . S
C571 C572 1.383 . S
C571 H579 0.929 . S
C572 C571 1.383 . S
C572 C573 1.377 . S
C573 H557 0.930 . S
C573 C572 1.377 . S
C573 C574 1.379 . S
C574 H558 0.931 . S
C574 C568 1.383 . S
C574 C573 1.379 . S
H575 C569 0.959 . S
H576 C569 0.961 . S
H577 C569 0.960 . S
H578 C570 0.930 . S
H579 C571 0.929 . S
H580 C588 0.929 . S
H581 C590 0.930 . S
H582 C592 0.930 . S
H583 C595 0.929 . S
H584 C598 0.930 . S
H585 C600 0.960 . S
H586 C600 0.960 . S
H587 C600 0.960 . S
C588 H580 0.929 . S
C588 C589 1.377 . S
C588 C590 1.384 . S
C589 C588 1.377 . S
C589 C595 1.390 . S
C590 H581 0.930 . S
C590 C588 1.384 . S
C590 C591 1.372 . S
C591 C590 1.372 . S
C591 C592 1.400 . S
C591 C596 1.490 . S
C592 H582 0.930 . S
C592 C591 1.400 . S
C592 C595 1.386 . S
H593 C609 0.930 . S
H594 C610 0.931 . S
C595 H583 0.929 . S
C595 C589 1.390 . S
C595 C592 1.386 . S
C596 C591 1.490 . S
C596 C598 1.395 . S
C596 C599 1.403 . S
H597 C603 0.930 . S
C598 H584 0.930 . S
C598 C596 1.395 . S
C598 C601 1.403 . S
C599 C596 1.403 . S
C599 C600 1.524 . S
C599 C603 1.400 . S
C600 H585 0.960 . S
C600 H586 0.960 . S
C600 H587 0.960 . S
C600 C599 1.524 . S
C601 C598 1.403 . S
C601 C602 1.392 . S
C601 C605 1.495 . S
C602 C601 1.392 . S
C602 C603 1.385 . S
C602 C604 1.478 . S
C603 H597 0.930 . S
C603 C599 1.400 . S
C603 C602 1.385 . S
C604 C602 1.478 . S
C604 C606 1.381 . S
C604 C610 1.383 . S
C605 C601 1.495 . S
C605 H611 0.959 . S
C605 H612 0.961 . S
C605 H613 0.960 . S
C606 C604 1.381 . S
C606 C607 1.394 . S
C606 H614 0.930 . S
C607 C606 1.394 . S
C607 C608 1.383 . S
C607 H615 0.929 . S
C608 C607 1.383 . S
C608 C609 1.377 . S
C609 H593 0.930 . S
C609 C608 1.377 . S
C609 C610 1.379 . S
C610 H594 0.931 . S
C610 C604 1.383 . S
C610 C609 1.379 . S
H611 C605 0.959 . S
H612 C605 0.961 . S
H613 C605 0.960 . S
H614 C606 0.930 . S
H615 C607 0.929 . S
H616 C624 0.929 . S
H617 C626 0.930 . S
H618 C628 0.930 . S
H619 C631 0.929 . S
H620 C634 0.930 . S
H621 C636 0.960 . S
H622 C636 0.960 . S
H623 C636 0.960 . S
C624 H616 0.929 . S
C624 C625 1.377 . S
C624 C626 1.384 . S
C625 C624 1.377 . S
C625 C631 1.390 . S
C626 H617 0.930 . S
C626 C624 1.384 . S
C626 C627 1.372 . S
C627 C626 1.372 . S
C627 C628 1.400 . S
C627 C632 1.490 . S
C628 H618 0.930 . S
C628 C627 1.400 . S
C628 C631 1.386 . S
H629 C645 0.930 . S
H630 C646 0.931 . S
C631 H619 0.929 . S
C631 C625 1.390 . S
C631 C628 1.386 . S
C632 C627 1.490 . S
C632 C634 1.395 . S
C632 C635 1.403 . S
H633 C639 0.930 . S
C634 H620 0.930 . S
C634 C632 1.395 . S
C634 C637 1.403 . S
C635 C632 1.403 . S
C635 C636 1.524 . S
C635 C639 1.400 . S
C636 H621 0.960 . S
C636 H622 0.960 . S
C636 H623 0.960 . S
C636 C635 1.524 . S
C637 C634 1.403 . S
C637 C638 1.392 . S
C637 C641 1.495 . S
C638 C637 1.392 . S
C638 C639 1.385 . S
C638 C640 1.478 . S
C639 H633 0.930 . S
C639 C635 1.400 . S
C639 C638 1.385 . S
C640 C638 1.478 . S
C640 C642 1.381 . S
C640 C646 1.383 . S
C641 C637 1.495 . S
C641 H647 0.959 . S
C641 H648 0.961 . S
C641 H649 0.960 . S
C642 C640 1.381 . S
C642 C643 1.394 . S
C642 H650 0.930 . S
C643 C642 1.394 . S
C643 C644 1.383 . S
C643 H651 0.929 . S
C644 C643 1.383 . S
C644 C645 1.377 . S
C645 H629 0.930 . S
C645 C644 1.377 . S
C645 C646 1.379 . S
C646 H630 0.931 . S
C646 C640 1.383 . S
C646 C645 1.379 . S
H647 C641 0.959 . S
H648 C641 0.961 . S
H649 C641 0.960 . S
H650 C642 0.930 . S
H651 C643 0.929 . S
H652 C660 0.929 . S
H653 C662 0.930 . S
H654 C664 0.930 . S
H655 C667 0.929 . S
H656 C670 0.930 . S
H657 C672 0.960 . S
H658 C672 0.960 . S
H659 C672 0.960 . S
C660 H652 0.929 . S
C660 C661 1.377 . S
C660 C662 1.384 . S
C661 C660 1.377 . S
C661 C667 1.390 . S
C662 H653 0.930 . S
C662 C660 1.384 . S
C662 C663 1.372 . S
C663 C662 1.372 . S
C663 C664 1.400 . S
C663 C668 1.490 . S
C664 H654 0.930 . S
C664 C663 1.400 . S
C664 C667 1.386 . S
H665 C681 0.930 . S
H666 C682 0.931 . S
C667 H655 0.929 . S
C667 C661 1.390 . S
C667 C664 1.386 . S
C668 C663 1.490 . S
C668 C670 1.395 . S
C668 C671 1.403 . S
H669 C675 0.930 . S
C670 H656 0.930 . S
C670 C668 1.395 . S
C670 C673 1.403 . S
C671 C668 1.403 . S
C671 C672 1.524 . S
C671 C675 1.400 . S
C672 H657 0.960 . S
C672 H658 0.960 . S
C672 H659 0.960 . S
C672 C671 1.524 . S
C673 C670 1.403 . S
C673 C674 1.392 . S
C673 C677 1.495 . S
C674 C673 1.392 . S
C674 C675 1.385 . S
C674 C676 1.478 . S
C675 H669 0.930 . S
C675 C671 1.400 . S
C675 C674 1.385 . S
C676 C674 1.478 . S
C676 C678 1.381 . S
C676 C682 1.383 . S
C677 C673 1.495 . S
C677 H683 0.959 . S
C677 H684 0.961 . S
C677 H685 0.960 . S
C678 C676 1.381 . S
C678 C679 1.394 . S
C678 H686 0.930 . S
C679 C678 1.394 . S
C679 C680 1.383 . S
C679 H687 0.929 . S
C680 C679 1.383 . S
C680 C681 1.377 . S
C681 H665 0.930 . S
C681 C680 1.377 . S
C681 C682 1.379 . S
C682 H666 0.931 . S
C682 C676 1.383 . S
C682 C681 1.379 . S
H683 C677 0.959 . S
H684 C677 0.961 . S
H685 C677 0.960 . S
H686 C678 0.930 . S
H687 C679 0.929 . S
C121 C4 1.271 . S
C140 C88 1.286 . S
C157 C18 1.273 . S
C176 C102 1.276 . S
C193 C60 1.273 . S
C212 C32 1.277 . S
C229 C74 1.274 . S
C248 C46 1.273 . S
C265 C5 1.028 . S
C284 C75 0.997 . S
C301 C19 1.022 . S
C320 C89 0.975 . S
C337 C103 1.024 1_556 S
C356 C33 0.982 . S
C373 C47 1.037 . S
C392 C61 1.065 . S
C409 C68 1.244 . S
C428 C12 1.232 . S
C445 C26 1.243 . S
C464 C82 1.251 . S
C481 C40 1.248 . S
C500 C96 1.252 . S
C517 C110 1.243 . S
C536 C54 1.242 . S
C553 C95 1.245 . S
C572 C11 1.212 . S
C589 C109 1.257 . S
C608 C25 1.275 . S
C625 C39 1.242 . S
C644 C67 1.217 . S
C661 C53 1.255 . S
C680 C81 1.250 . S
