# Generated by pormake.
# Topology mer, (4)-cn, num edge types: 1
# Building blocks:
#     Node 0, Type 0, BuildingBlock: QUQFOY_clean_sbu_1, # of connection points: 4
#     Node 1, Type 0, BuildingBlock: QUQFOY_clean_sbu_1, # of connection points: 4
#     Node 2, Type 0, BuildingBlock: QUQFOY_clean_sbu_1, # of connection points: 4
#     Node 3, Type 0, BuildingBlock: QUQFOY_clean_sbu_1, # of connection points: 4
#     Node 4, Type 0, BuildingBlock: QUQFOY_clean_sbu_1, # of connection points: 4
#     Node 5, Type 0, BuildingBlock: QUQFOY_clean_sbu_1, # of connection points: 4
#     Node 6, Type 0, BuildingBlock: QUQFOY_clean_sbu_1, # of connection points: 4
#     Node 7, Type 0, BuildingBlock: QUQFOY_clean_sbu_1, # of connection points: 4
#     Node 8, Type 0, BuildingBlock: QUQFOY_clean_sbu_1, # of connection points: 4
#     Node 9, Type 0, BuildingBlock: QUQFOY_clean_sbu_1, # of connection points: 4
#     Node 10, Type 0, BuildingBlock: QUQFOY_clean_sbu_1, # of connection points: 4
#     Node 11, Type 0, BuildingBlock: QUQFOY_clean_sbu_1, # of connection points: 4
#     Node 12, Type 0, BuildingBlock: QUQFOY_clean_sbu_1, # of connection points: 4
#     Node 13, Type 0, BuildingBlock: QUQFOY_clean_sbu_1, # of connection points: 4
#     Node 14, Type 0, BuildingBlock: QUQFOY_clean_sbu_1, # of connection points: 4
#     Node 15, Type 0, BuildingBlock: QUQFOY_clean_sbu_1, # of connection points: 4
#     Node 16, Type 0, BuildingBlock: QUQFOY_clean_sbu_1, # of connection points: 4
#     Node 17, Type 0, BuildingBlock: QUQFOY_clean_sbu_1, # of connection points: 4
#     Node 18, Type 0, BuildingBlock: QUQFOY_clean_sbu_1, # of connection points: 4
#     Node 19, Type 0, BuildingBlock: QUQFOY_clean_sbu_1, # of connection points: 4
#     Node 20, Type 0, BuildingBlock: QUQFOY_clean_sbu_1, # of connection points: 4
#     Node 21, Type 0, BuildingBlock: QUQFOY_clean_sbu_1, # of connection points: 4
#     Node 22, Type 0, BuildingBlock: QUQFOY_clean_sbu_1, # of connection points: 4
#     Node 23, Type 0, BuildingBlock: QUQFOY_clean_sbu_1, # of connection points: 4
#     Node 24, Type 0, BuildingBlock: QUQFOY_clean_sbu_1, # of connection points: 4
#     Node 25, Type 0, BuildingBlock: QUQFOY_clean_sbu_1, # of connection points: 4
#     Node 26, Type 0, BuildingBlock: QUQFOY_clean_sbu_1, # of connection points: 4
#     Node 27, Type 0, BuildingBlock: QUQFOY_clean_sbu_1, # of connection points: 4
#     Node 28, Type 0, BuildingBlock: QUQFOY_clean_sbu_1, # of connection points: 4
#     Node 29, Type 0, BuildingBlock: QUQFOY_clean_sbu_1, # of connection points: 4
#     Node 30, Type 0, BuildingBlock: QUQFOY_clean_sbu_1, # of connection points: 4
#     Node 31, Type 0, BuildingBlock: QUQFOY_clean_sbu_1, # of connection points: 4
#     Edge 32, Type (0, 0), BuildingBlock: ZUJKAS_clean_linker_0, # of connection points: 2
#     Edge 33, Type (0, 0), BuildingBlock: ZUJKAS_clean_linker_0, # of connection points: 2
#     Edge 34, Type (0, 0), BuildingBlock: ZUJKAS_clean_linker_0, # of connection points: 2
#     Edge 35, Type (0, 0), BuildingBlock: ZUJKAS_clean_linker_0, # of connection points: 2
#     Edge 36, Type (0, 0), BuildingBlock: ZUJKAS_clean_linker_0, # of connection points: 2
#     Edge 37, Type (0, 0), BuildingBlock: ZUJKAS_clean_linker_0, # of connection points: 2
#     Edge 38, Type (0, 0), BuildingBlock: ZUJKAS_clean_linker_0, # of connection points: 2
#     Edge 39, Type (0, 0), BuildingBlock: ZUJKAS_clean_linker_0, # of connection points: 2
#     Edge 40, Type (0, 0), BuildingBlock: ZUJKAS_clean_linker_0, # of connection points: 2
#     Edge 41, Type (0, 0), BuildingBlock: ZUJKAS_clean_linker_0, # of connection points: 2
#     Edge 42, Type (0, 0), BuildingBlock: ZUJKAS_clean_linker_0, # of connection points: 2
#     Edge 43, Type (0, 0), BuildingBlock: ZUJKAS_clean_linker_0, # of connection points: 2
#     Edge 44, Type (0, 0), BuildingBlock: ZUJKAS_clean_linker_0, # of connection points: 2
#     Edge 45, Type (0, 0), BuildingBlock: ZUJKAS_clean_linker_0, # of connection points: 2
#     Edge 46, Type (0, 0), BuildingBlock: ZUJKAS_clean_linker_0, # of connection points: 2
#     Edge 47, Type (0, 0), BuildingBlock: ZUJKAS_clean_linker_0, # of connection points: 2
#     Edge 48, Type (0, 0), BuildingBlock: ZUJKAS_clean_linker_0, # of connection points: 2
#     Edge 49, Type (0, 0), BuildingBlock: ZUJKAS_clean_linker_0, # of connection points: 2
#     Edge 50, Type (0, 0), BuildingBlock: ZUJKAS_clean_linker_0, # of connection points: 2
#     Edge 51, Type (0, 0), BuildingBlock: ZUJKAS_clean_linker_0, # of connection points: 2
#     Edge 52, Type (0, 0), BuildingBlock: ZUJKAS_clean_linker_0, # of connection points: 2
#     Edge 53, Type (0, 0), BuildingBlock: ZUJKAS_clean_linker_0, # of connection points: 2
#     Edge 54, Type (0, 0), BuildingBlock: ZUJKAS_clean_linker_0, # of connection points: 2
#     Edge 55, Type (0, 0), BuildingBlock: ZUJKAS_clean_linker_0, # of connection points: 2
#     Edge 56, Type (0, 0), BuildingBlock: ZUJKAS_clean_linker_0, # of connection points: 2
#     Edge 57, Type (0, 0), BuildingBlock: ZUJKAS_clean_linker_0, # of connection points: 2
#     Edge 58, Type (0, 0), BuildingBlock: ZUJKAS_clean_linker_0, # of connection points: 2
#     Edge 59, Type (0, 0), BuildingBlock: ZUJKAS_clean_linker_0, # of connection points: 2
#     Edge 60, Type (0, 0), BuildingBlock: ZUJKAS_clean_linker_0, # of connection points: 2
#     Edge 61, Type (0, 0), BuildingBlock: ZUJKAS_clean_linker_0, # of connection points: 2
#     Edge 62, Type (0, 0), BuildingBlock: ZUJKAS_clean_linker_0, # of connection points: 2
#     Edge 63, Type (0, 0), BuildingBlock: ZUJKAS_clean_linker_0, # of connection points: 2
#     Edge 64, Type (0, 0), BuildingBlock: ZUJKAS_clean_linker_0, # of connection points: 2
#     Edge 65, Type (0, 0), BuildingBlock: ZUJKAS_clean_linker_0, # of connection points: 2
#     Edge 66, Type (0, 0), BuildingBlock: ZUJKAS_clean_linker_0, # of connection points: 2
#     Edge 67, Type (0, 0), BuildingBlock: ZUJKAS_clean_linker_0, # of connection points: 2
#     Edge 68, Type (0, 0), BuildingBlock: ZUJKAS_clean_linker_0, # of connection points: 2
#     Edge 69, Type (0, 0), BuildingBlock: ZUJKAS_clean_linker_0, # of connection points: 2
#     Edge 70, Type (0, 0), BuildingBlock: ZUJKAS_clean_linker_0, # of connection points: 2
#     Edge 71, Type (0, 0), BuildingBlock: ZUJKAS_clean_linker_0, # of connection points: 2
#     Edge 72, Type (0, 0), BuildingBlock: ZUJKAS_clean_linker_0, # of connection points: 2
#     Edge 73, Type (0, 0), BuildingBlock: ZUJKAS_clean_linker_0, # of connection points: 2
#     Edge 74, Type (0, 0), BuildingBlock: ZUJKAS_clean_linker_0, # of connection points: 2
#     Edge 75, Type (0, 0), BuildingBlock: ZUJKAS_clean_linker_0, # of connection points: 2
#     Edge 76, Type (0, 0), BuildingBlock: ZUJKAS_clean_linker_0, # of connection points: 2
#     Edge 77, Type (0, 0), BuildingBlock: ZUJKAS_clean_linker_0, # of connection points: 2
#     Edge 78, Type (0, 0), BuildingBlock: ZUJKAS_clean_linker_0, # of connection points: 2
#     Edge 79, Type (0, 0), BuildingBlock: ZUJKAS_clean_linker_0, # of connection points: 2
#     Edge 80, Type (0, 0), BuildingBlock: ZUJKAS_clean_linker_0, # of connection points: 2
#     Edge 81, Type (0, 0), BuildingBlock: ZUJKAS_clean_linker_0, # of connection points: 2
#     Edge 82, Type (0, 0), BuildingBlock: ZUJKAS_clean_linker_0, # of connection points: 2
#     Edge 83, Type (0, 0), BuildingBlock: ZUJKAS_clean_linker_0, # of connection points: 2
#     Edge 84, Type (0, 0), BuildingBlock: ZUJKAS_clean_linker_0, # of connection points: 2
#     Edge 85, Type (0, 0), BuildingBlock: ZUJKAS_clean_linker_0, # of connection points: 2
#     Edge 86, Type (0, 0), BuildingBlock: ZUJKAS_clean_linker_0, # of connection points: 2
#     Edge 87, Type (0, 0), BuildingBlock: ZUJKAS_clean_linker_0, # of connection points: 2
#     Edge 88, Type (0, 0), BuildingBlock: ZUJKAS_clean_linker_0, # of connection points: 2
#     Edge 89, Type (0, 0), BuildingBlock: ZUJKAS_clean_linker_0, # of connection points: 2
#     Edge 90, Type (0, 0), BuildingBlock: ZUJKAS_clean_linker_0, # of connection points: 2
#     Edge 91, Type (0, 0), BuildingBlock: ZUJKAS_clean_linker_0, # of connection points: 2
#     Edge 92, Type (0, 0), BuildingBlock: ZUJKAS_clean_linker_0, # of connection points: 2
#     Edge 93, Type (0, 0), BuildingBlock: ZUJKAS_clean_linker_0, # of connection points: 2
#     Edge 94, Type (0, 0), BuildingBlock: ZUJKAS_clean_linker_0, # of connection points: 2
#     Edge 95, Type (0, 0), BuildingBlock: ZUJKAS_clean_linker_0, # of connection points: 2
# Relax obj value: 0.010
# Max RMSD: 0.061
# Mean RMSD: 0.061
data_MOF--net-mer--node1-QUQFOY_clean_sbu_1--edge1-ZUJKAS_clean_linker_0
_symmetry_space_group_name_H-M    P1
_symmetry_Int_Tables_number       1
_symmetry_cell_setting            triclinic
loop_
_symmetry_equiv_pos_as_xyz
'x, y, z'
_cell_length_a     87.009391
_cell_length_b     87.058008
_cell_length_c     70.613104
_cell_angle_alpha  90.002635
_cell_angle_beta   90.030891
_cell_angle_gamma 89.994552
loop_
_atom_site_label
_atom_site_type_symbol
_atom_site_fract_x
_atom_site_fract_y
_atom_site_fract_z
_atom_type_partial_charge
O0 O 0.14682 0.27118 0.36273 0.0
Cd1 Cd 0.13548 0.29175 0.36676 0.0
Cd2 Cd 0.11109 0.27231 0.37207 0.0
O3 O 0.12673 0.25575 0.36344 0.0
O4 O 0.14934 0.30749 0.35541 0.0
O5 O 0.12635 0.30214 0.34383 0.0
C6 C 0.1391 0.30968 0.34248 0.0
C7 C 0.08581 0.2717 0.36053 0.0
C8 C 0.14109 0.2578 0.36125 0.0
C9 C 0.12186 0.29148 0.40552 0.0
O10 O 0.11334 0.28074 0.39929 0.0
O11 O 0.13123 0.29827 0.39451 0.0
O12 O 0.0908 0.26164 0.37242 0.0
O13 O 0.09538 0.28199 0.35463 0.0
O14 O 0.73766 0.147 0.36309 0.0
Cd15 Cd 0.717 0.13564 0.36644 0.0
Cd16 Cd 0.73654 0.11133 0.37259 0.0
O17 O 0.75314 0.12696 0.36411 0.0
O18 O 0.70146 0.14965 0.3549 0.0
O19 O 0.70686 0.12674 0.34317 0.0
C20 C 0.69936 0.13951 0.34184 0.0
C21 C 0.73749 0.08584 0.36191 0.0
C22 C 0.75109 0.14131 0.36191 0.0
C23 C 0.71657 0.12212 0.40528 0.0
O24 O 0.72765 0.1138 0.39956 0.0
O25 O 0.70986 0.13126 0.39391 0.0
O26 O 0.74739 0.09118 0.37379 0.0
O27 O 0.72724 0.09519 0.35542 0.0
O28 O 0.86074 0.73637 0.36239 0.0
Cd29 Cd 0.87252 0.71601 0.36608 0.0
Cd30 Cd 0.8964 0.73596 0.37126 0.0
O31 O 0.88046 0.75226 0.36272 0.0
O32 O 0.85876 0.70009 0.35488 0.0
O33 O 0.88152 0.70584 0.34292 0.0
C34 C 0.86886 0.69812 0.34174 0.0
C35 C 0.92162 0.73669 0.35961 0.0
C36 C 0.86612 0.74988 0.36082 0.0
C37 C 0.88622 0.71659 0.40477 0.0
O38 O 0.89436 0.72761 0.39853 0.0
O39 O 0.8771 0.70947 0.39375 0.0
O40 O 0.9166 0.7468 0.37141 0.0
O41 O 0.91209 0.72632 0.35381 0.0
O42 O 0.26966 0.86052 0.36311 0.0
Cd43 Cd 0.29049 0.87154 0.36651 0.0
Cd44 Cd 0.27137 0.8963 0.37238 0.0
O45 O 0.25454 0.88083 0.36419 0.0
O46 O 0.30586 0.85734 0.355 0.0
O47 O 0.30073 0.88031 0.34326 0.0
C48 C 0.30808 0.86745 0.34194 0.0
C49 C 0.27038 0.92172 0.36148 0.0
C50 C 0.25633 0.86645 0.36197 0.0
C51 C 0.29126 0.88545 0.40517 0.0
O52 O 0.28041 0.89401 0.3993 0.0
O53 O 0.29767 0.87596 0.39397 0.0
O54 O 0.2606 0.91648 0.37354 0.0
O55 O 0.28057 0.91231 0.35496 0.0
O56 O 0.14807 0.73575 0.6475 0.0
Cd57 Cd 0.13642 0.71527 0.64421 0.0
Cd58 Cd 0.11242 0.73508 0.63812 0.0
O59 O 0.12831 0.75158 0.64617 0.0
O60 O 0.15021 0.69959 0.65585 0.0
O61 O 0.12734 0.70534 0.66748 0.0
C62 C 0.14002 0.69768 0.66889 0.0
C63 C 0.08706 0.73628 0.64922 0.0
C64 C 0.14263 0.74928 0.64845 0.0
C65 C 0.12276 0.71487 0.60544 0.0
O66 O 0.11451 0.72598 0.61122 0.0
O67 O 0.13197 0.70817 0.61673 0.0
O68 O 0.09232 0.74604 0.63714 0.0
O69 O 0.09643 0.72603 0.65568 0.0
O70 O 0.27301 0.14796 0.64412 0.0
Cd71 Cd 0.29305 0.13533 0.64317 0.0
Cd72 Cd 0.27301 0.11194 0.63976 0.0
O73 O 0.25746 0.12837 0.6492 0.0
O74 O 0.30934 0.1483 0.65499 0.0
O75 O 0.30108 0.12656 0.66765 0.0
C76 C 0.30978 0.13856 0.66875 0.0
C77 C 0.27162 0.08659 0.6509 0.0
C78 C 0.25974 0.14277 0.64804 0.0
C79 C 0.29254 0.12049 0.60567 0.0
O80 O 0.28072 0.11359 0.61202 0.0
O81 O 0.30047 0.129 0.61656 0.0
O82 O 0.26134 0.09222 0.63976 0.0
O83 O 0.28251 0.09561 0.65648 0.0
O84 O 0.86168 0.27085 0.64805 0.0
Cd85 Cd 0.87369 0.29115 0.64498 0.0
Cd86 Cd 0.89727 0.27102 0.63901 0.0
O87 O 0.88119 0.2547 0.64704 0.0
O88 O 0.85998 0.30698 0.65644 0.0
O89 O 0.88263 0.30089 0.66846 0.0
C90 C 0.87003 0.3087 0.66969 0.0
C91 C 0.92238 0.27019 0.65096 0.0
C92 C 0.86689 0.25723 0.64913 0.0
C93 C 0.88741 0.29129 0.60625 0.0
O94 O 0.89537 0.27997 0.61201 0.0
O95 O 0.87842 0.29825 0.61758 0.0
O96 O 0.9175 0.26026 0.63883 0.0
O97 O 0.91276 0.2804 0.65694 0.0
O98 O 0.73886 0.86103 0.65097 0.0
Cd99 Cd 0.7179 0.87157 0.64653 0.0
Cd100 Cd 0.73691 0.89652 0.64092 0.0
O101 O 0.75386 0.88142 0.6498 0.0
O102 O 0.7029 0.85706 0.65817 0.0
O103 O 0.70661 0.88065 0.66886 0.0
C104 C 0.69988 0.86749 0.67059 0.0
C105 C 0.73754 0.92214 0.65122 0.0
C106 C 0.75212 0.86706 0.6523 0.0
C107 C 0.71789 0.88482 0.60762 0.0
O108 O 0.72837 0.89367 0.61384 0.0
O109 O 0.71135 0.8753 0.61866 0.0
O110 O 0.74748 0.9168 0.63943 0.0
O111 O 0.72737 0.91273 0.6578 0.0
O112 O 0.86201 0.73836 0.65074 0.0
Cd113 Cd 0.87246 0.71742 0.64603 0.0
Cd114 Cd 0.89744 0.73652 0.64046 0.0
O115 O 0.88237 0.75339 0.6496 0.0
O116 O 0.85773 0.70253 0.65744 0.0
O117 O 0.88133 0.70588 0.66831 0.0
C118 C 0.86806 0.69935 0.66994 0.0
C119 C 0.92312 0.73703 0.65057 0.0
C120 C 0.86802 0.75161 0.65219 0.0
C121 C 0.88559 0.71769 0.60706 0.0
O122 O 0.89445 0.72814 0.61333 0.0
O123 O 0.8761 0.71107 0.61808 0.0
O124 O 0.91773 0.74707 0.63895 0.0
O125 O 0.91374 0.72682 0.65711 0.0
O126 O 0.27149 0.86175 0.64816 0.0
Cd127 Cd 0.29185 0.87361 0.64497 0.0
Cd128 Cd 0.27173 0.89725 0.63861 0.0
O129 O 0.25539 0.88129 0.64696 0.0
O130 O 0.30757 0.8599 0.65671 0.0
O131 O 0.30164 0.88272 0.66834 0.0
C132 C 0.30932 0.87006 0.66982 0.0
C133 C 0.27058 0.92265 0.64957 0.0
C134 C 0.25788 0.86701 0.6492 0.0
C135 C 0.29202 0.88689 0.60604 0.0
O136 O 0.28071 0.89493 0.61167 0.0
O137 O 0.29899 0.87803 0.61751 0.0
O138 O 0.26072 0.91733 0.63763 0.0
O139 O 0.2809 0.91332 0.65596 0.0
O140 O 0.14544 0.26997 0.6518 0.0
Cd141 Cd 0.13435 0.29059 0.64689 0.0
Cd142 Cd 0.1102 0.27083 0.63973 0.0
O143 O 0.12607 0.25407 0.64677 0.0
O144 O 0.14834 0.30621 0.65831 0.0
O145 O 0.12508 0.30148 0.66941 0.0
C146 C 0.13797 0.30875 0.67096 0.0
C147 C 0.08508 0.26985 0.65165 0.0
C148 C 0.14006 0.25641 0.65107 0.0
C149 C 0.12119 0.29094 0.60749 0.0
O150 O 0.11227 0.28036 0.61321 0.0
O151 O 0.13075 0.2971 0.61884 0.0
O152 O 0.08988 0.26024 0.6391 0.0
O153 O 0.09477 0.27985 0.65802 0.0
O154 O 0.73589 0.1469 0.64813 0.0
Cd155 Cd 0.71551 0.13505 0.6449 0.0
Cd156 Cd 0.7355 0.11129 0.6388 0.0
O157 O 0.75188 0.12728 0.64693 0.0
O158 O 0.69971 0.14864 0.65662 0.0
O159 O 0.70573 0.12583 0.66819 0.0
C160 C 0.69794 0.13842 0.66965 0.0
C161 C 0.73675 0.08595 0.64991 0.0
C162 C 0.74947 0.14158 0.64914 0.0
C163 C 0.71523 0.12147 0.60611 0.0
O164 O 0.72646 0.11337 0.61187 0.0
O165 O 0.70839 0.13054 0.61744 0.0
O166 O 0.74657 0.09127 0.63793 0.0
O167 O 0.72642 0.09528 0.65629 0.0
O168 O 0.86209 0.27042 0.36329 0.0
Cd169 Cd 0.8736 0.29098 0.36667 0.0
Cd170 Cd 0.89777 0.27139 0.37254 0.0
O171 O 0.88202 0.25479 0.36435 0.0
O172 O 0.85973 0.30659 0.35503 0.0
O173 O 0.88262 0.30092 0.34338 0.0
C174 C 0.86989 0.3085 0.34195 0.0
C175 C 0.92296 0.27089 0.3608 0.0
C176 C 0.86767 0.25696 0.36213 0.0
C177 C 0.88743 0.29139 0.40537 0.0
O178 O 0.89571 0.28032 0.39953 0.0
O179 O 0.87815 0.29807 0.39413 0.0
O180 O 0.91815 0.2609 0.37289 0.0
O181 O 0.91323 0.28098 0.35475 0.0
O182 O 0.73603 0.86082 0.36292 0.0
Cd183 Cd 0.71566 0.87258 0.36661 0.0
Cd184 Cd 0.73568 0.89644 0.37197 0.0
O185 O 0.75195 0.88052 0.36328 0.0
O186 O 0.69978 0.85897 0.35504 0.0
O187 O 0.70566 0.88183 0.34349 0.0
C188 C 0.69794 0.86919 0.34202 0.0
C189 C 0.73686 0.92191 0.3612 0.0
C190 C 0.74955 0.86619 0.36134 0.0
C191 C 0.71622 0.886 0.40538 0.0
O192 O 0.72726 0.89415 0.39918 0.0
O193 O 0.70907 0.87695 0.3943 0.0
O194 O 0.74684 0.91644 0.37288 0.0
O195 O 0.72639 0.91268 0.35494 0.0
O196 O 0.14511 0.73826 0.36155 0.0
Cd197 Cd 0.13441 0.71734 0.36547 0.0
Cd198 Cd 0.10989 0.73656 0.37243 0.0
O199 O 0.12507 0.75362 0.36414 0.0
O200 O 0.14912 0.70265 0.35362 0.0
O201 O 0.12556 0.70628 0.34279 0.0
C202 C 0.13881 0.69973 0.34102 0.0
C203 C 0.08451 0.73682 0.36128 0.0
C204 C 0.13934 0.75167 0.36105 0.0
C205 C 0.12156 0.71654 0.40468 0.0
O206 O 0.11276 0.72732 0.39915 0.0
O207 O 0.13084 0.71023 0.39314 0.0
O208 O 0.08933 0.74665 0.37356 0.0
O209 O 0.0943 0.72697 0.35478 0.0
O210 O 0.26984 0.14651 0.36276 0.0
Cd211 Cd 0.29033 0.1348 0.36593 0.0
Cd212 Cd 0.27058 0.11072 0.37118 0.0
O213 O 0.25418 0.1266 0.36282 0.0
O214 O 0.30609 0.14849 0.35431 0.0
O215 O 0.30006 0.12573 0.34255 0.0
C216 C 0.30781 0.13835 0.34116 0.0
C217 C 0.26955 0.0854 0.35995 0.0
C218 C 0.25639 0.14098 0.36113 0.0
C219 C 0.29046 0.12065 0.40437 0.0
O220 O 0.27927 0.11264 0.3983 0.0
O221 O 0.29739 0.12987 0.39331 0.0
O222 O 0.25958 0.09065 0.37179 0.0
O223 O 0.2799 0.09478 0.35377 0.0
O224 O 0.645 0.76896 0.86214 0.0
Cd225 Cd 0.63421 0.78988 0.86572 0.0
Cd226 Cd 0.6097 0.77068 0.87264 0.0
O227 O 0.62503 0.75354 0.86498 0.0
O228 O 0.6488 0.80464 0.85374 0.0
O229 O 0.62527 0.80072 0.84293 0.0
C230 C 0.63845 0.80743 0.84113 0.0
C231 C 0.58442 0.7702 0.86119 0.0
C232 C 0.6393 0.75552 0.86194 0.0
C233 C 0.62106 0.79099 0.90478 0.0
O234 O 0.61224 0.78023 0.89924 0.0
O235 O 0.63051 0.79714 0.89332 0.0
O236 O 0.58918 0.76053 0.8737 0.0
O237 O 0.59423 0.77999 0.85462 0.0
O238 O 0.23668 0.64583 0.86391 0.0
Cd239 Cd 0.21634 0.63387 0.86687 0.0
Cd240 Cd 0.23641 0.6103 0.87314 0.0
O241 O 0.25282 0.62635 0.86529 0.0
O242 O 0.2006 0.6475 0.85505 0.0
O243 O 0.20675 0.62475 0.8434 0.0
C244 C 0.19898 0.63735 0.8419 0.0
C245 C 0.23725 0.58521 0.86116 0.0
C246 C 0.25031 0.64063 0.86307 0.0
C247 C 0.21596 0.6203 0.90567 0.0
O248 O 0.22727 0.61226 0.90003 0.0
O249 O 0.2091 0.6293 0.89426 0.0
O250 O 0.24712 0.59004 0.8734 0.0
O251 O 0.22708 0.59486 0.85511 0.0
O252 O 0.36081 0.23588 0.86272 0.0
Cd253 Cd 0.37302 0.21572 0.86601 0.0
Cd254 Cd 0.39668 0.23564 0.87055 0.0
O255 O 0.38052 0.2518 0.86218 0.0
O256 O 0.36025 0.19934 0.85402 0.0
O257 O 0.38277 0.20672 0.84268 0.0
C258 C 0.37059 0.19832 0.841 0.0
C259 C 0.42174 0.23618 0.8584 0.0
C260 C 0.36614 0.24939 0.8608 0.0
C261 C 0.38718 0.21632 0.90435 0.0
O262 O 0.39508 0.22744 0.89793 0.0
O263 O 0.37801 0.20907 0.89352 0.0
O264 O 0.4169 0.24643 0.87013 0.0
O265 O 0.4121 0.22581 0.85289 0.0
O266 O 0.77018 0.3585 0.86279 0.0
Cd267 Cd 0.79067 0.37003 0.86671 0.0
Cd268 Cd 0.7711 0.39433 0.87131 0.0
O269 O 0.75476 0.3786 0.86237 0.0
O270 O 0.80659 0.3565 0.85515 0.0
O271 O 0.80076 0.37945 0.84379 0.0
C272 C 0.80851 0.36684 0.84228 0.0
C273 C 0.77008 0.4198 0.86053 0.0
C274 C 0.75683 0.36419 0.86074 0.0
C275 C 0.79007 0.38391 0.90518 0.0
O276 O 0.77923 0.39216 0.89867 0.0
O277 O 0.79714 0.37458 0.89439 0.0
O278 O 0.75998 0.41435 0.87204 0.0
O279 O 0.78059 0.41056 0.85443 0.0
O280 O 0.64582 0.23831 0.14934 0.0
Cd281 Cd 0.63434 0.21777 0.14567 0.0
Cd282 Cd 0.60998 0.23719 0.14104 0.0
O283 O 0.62571 0.25372 0.14949 0.0
O284 O 0.6482 0.202 0.15699 0.0
O285 O 0.62536 0.20762 0.16882 0.0
C286 C 0.63807 0.20001 0.1701 0.0
C287 C 0.58487 0.23753 0.15307 0.0
C288 C 0.64012 0.25168 0.15116 0.0
C289 C 0.62014 0.2181 0.10727 0.0
O290 O 0.61185 0.22893 0.1137 0.0
O291 O 0.62959 0.21118 0.11807 0.0
O292 O 0.58964 0.24775 0.14125 0.0
O293 O 0.59459 0.22726 0.15866 0.0
O294 O 0.77 0.64627 0.14773 0.0
Cd295 Cd 0.79064 0.6349 0.1444 0.0
Cd296 Cd 0.77126 0.61063 0.13832 0.0
O297 O 0.75453 0.62624 0.14647 0.0
O298 O 0.80615 0.64876 0.15628 0.0
O299 O 0.80058 0.62576 0.16764 0.0
C300 C 0.80809 0.63851 0.16925 0.0
C301 C 0.77072 0.58545 0.15006 0.0
C302 C 0.75657 0.64059 0.14876 0.0
C303 C 0.7912 0.6213 0.10559 0.0
O304 O 0.78022 0.61287 0.11136 0.0
O305 O 0.79779 0.63057 0.11691 0.0
O306 O 0.76078 0.59025 0.13789 0.0
O307 O 0.78083 0.59515 0.15612 0.0
O308 O 0.36193 0.76892 0.14819 0.0
Cd309 Cd 0.3731 0.78969 0.14506 0.0
Cd310 Cd 0.3976 0.77054 0.13888 0.0
O311 O 0.38213 0.75365 0.14692 0.0
O312 O 0.35898 0.80499 0.15686 0.0
O313 O 0.38198 0.79965 0.16843 0.0
C314 C 0.36913 0.80701 0.16993 0.0
C315 C 0.42285 0.77005 0.15048 0.0
C316 C 0.36775 0.75554 0.14916 0.0
C317 C 0.38681 0.79058 0.10631 0.0
O318 O 0.39529 0.77961 0.112 0.0
O319 O 0.37749 0.79705 0.11766 0.0
O320 O 0.41803 0.76016 0.13826 0.0
O321 O 0.41312 0.78007 0.15669 0.0
O322 O 0.23746 0.36106 0.14927 0.0
Cd323 Cd 0.21707 0.3728 0.14553 0.0
Cd324 Cd 0.23678 0.39686 0.141 0.0
O325 O 0.25311 0.38097 0.14956 0.0
O326 O 0.20107 0.35928 0.15698 0.0
O327 O 0.20712 0.38207 0.16864 0.0
C328 C 0.19929 0.3695 0.17003 0.0
C329 C 0.23736 0.42198 0.15295 0.0
C330 C 0.25089 0.36659 0.1512 0.0
C331 C 0.21765 0.38695 0.10714 0.0
O332 O 0.2286 0.39507 0.11363 0.0
O333 O 0.21055 0.37764 0.11791 0.0
O334 O 0.24757 0.41707 0.14121 0.0
O335 O 0.22696 0.41239 0.15853 0.0
O336 O 0.36123 0.23696 0.14868 0.0
Cd337 Cd 0.3728 0.21646 0.14505 0.0
Cd338 Cd 0.39706 0.23603 0.14045 0.0
O339 O 0.38126 0.25248 0.14892 0.0
O340 O 0.3589 0.20062 0.15613 0.0
O341 O 0.38165 0.20624 0.16826 0.0
C342 C 0.36895 0.19858 0.16932 0.0
C343 C 0.42221 0.23651 0.1524 0.0
C344 C 0.36686 0.25036 0.15054 0.0
C345 C 0.38701 0.21688 0.10667 0.0
O346 O 0.39521 0.22779 0.11311 0.0
O347 O 0.37764 0.20989 0.11747 0.0
O348 O 0.41736 0.24668 0.14057 0.0
O349 O 0.41255 0.22622 0.15807 0.0
O350 O 0.76976 0.36166 0.15041 0.0
Cd351 Cd 0.79039 0.3729 0.14629 0.0
Cd352 Cd 0.7709 0.39727 0.14087 0.0
O353 O 0.75433 0.38174 0.14971 0.0
O354 O 0.80609 0.35887 0.15744 0.0
O355 O 0.80101 0.38186 0.16918 0.0
C356 C 0.80846 0.36905 0.17039 0.0
C357 C 0.77056 0.42263 0.15206 0.0
C358 C 0.75638 0.36739 0.15193 0.0
C359 C 0.79 0.38636 0.10745 0.0
O360 O 0.7792 0.39482 0.11363 0.0
O361 O 0.79688 0.37711 0.11853 0.0
O362 O 0.76039 0.41762 0.14032 0.0
O363 O 0.78077 0.41302 0.15808 0.0
O364 O 0.64653 0.77033 0.14822 0.0
Cd365 Cd 0.63529 0.791 0.14453 0.0
Cd366 Cd 0.61095 0.77164 0.13823 0.0
O367 O 0.62648 0.75489 0.14655 0.0
O368 O 0.64923 0.80653 0.15623 0.0
O369 O 0.62616 0.80123 0.1676 0.0
C370 C 0.63896 0.80868 0.16912 0.0
C371 C 0.58566 0.77112 0.14963 0.0
C372 C 0.64081 0.75691 0.14913 0.0
C373 C 0.6219 0.79148 0.10555 0.0
O374 O 0.61336 0.78058 0.11129 0.0
O375 O 0.63117 0.79802 0.11693 0.0
O376 O 0.59056 0.76121 0.13749 0.0
O377 O 0.59534 0.78117 0.15588 0.0
O378 O 0.23864 0.64509 0.14903 0.0
Cd379 Cd 0.21773 0.63431 0.1453 0.0
Cd380 Cd 0.23687 0.60969 0.13896 0.0
O381 O 0.25395 0.625 0.14689 0.0
O382 O 0.20292 0.64892 0.15711 0.0
O383 O 0.20685 0.62545 0.16808 0.0
C384 C 0.20015 0.63863 0.16979 0.0
C385 C 0.23717 0.5845 0.15066 0.0
C386 C 0.25204 0.6393 0.14967 0.0
C387 C 0.21683 0.62082 0.10642 0.0
O388 O 0.22757 0.61207 0.11218 0.0
O389 O 0.21059 0.63036 0.11771 0.0
O390 O 0.247 0.58916 0.13827 0.0
O391 O 0.22732 0.59436 0.15695 0.0
O392 O 0.36093 0.77131 0.86377 0.0
Cd393 Cd 0.37273 0.79172 0.8669 0.0
Cd394 Cd 0.39665 0.77184 0.87276 0.0
O395 O 0.38062 0.75539 0.86497 0.0
O396 O 0.35894 0.8075 0.85544 0.0
O397 O 0.38167 0.8016 0.84351 0.0
C398 C 0.36903 0.80934 0.84227 0.0
C399 C 0.42172 0.77082 0.86073 0.0
C400 C 0.36629 0.75775 0.86282 0.0
C401 C 0.38673 0.79209 0.90553 0.0
O402 O 0.3949 0.78095 0.89969 0.0
O403 O 0.37746 0.79881 0.89432 0.0
O404 O 0.41684 0.761 0.87297 0.0
O405 O 0.41214 0.78106 0.85471 0.0
O406 O 0.23689 0.36178 0.86271 0.0
Cd407 Cd 0.21676 0.37398 0.86628 0.0
Cd408 Cd 0.23714 0.39747 0.87111 0.0
O409 O 0.25317 0.38119 0.86276 0.0
O410 O 0.20053 0.36047 0.8553 0.0
O411 O 0.20671 0.383 0.84303 0.0
C412 C 0.19873 0.3705 0.84205 0.0
C413 C 0.238 0.42253 0.85903 0.0
C414 C 0.25051 0.36688 0.86105 0.0
C415 C 0.21767 0.38796 0.9048 0.0
O416 O 0.22885 0.39583 0.89844 0.0
O417 O 0.21036 0.3789 0.89391 0.0
O418 O 0.24817 0.41755 0.87079 0.0
O419 O 0.22752 0.41303 0.85347 0.0
O420 O 0.64538 0.23564 0.8625 0.0
Cd421 Cd 0.63359 0.21532 0.86645 0.0
Cd422 Cd 0.60957 0.23515 0.87085 0.0
O423 O 0.62552 0.25136 0.86211 0.0
O424 O 0.6472 0.19926 0.8553 0.0
O425 O 0.62444 0.20517 0.84338 0.0
C426 C 0.63705 0.19737 0.84218 0.0
C427 C 0.58446 0.23569 0.85879 0.0
C428 C 0.6399 0.24907 0.86047 0.0
C429 C 0.61951 0.21623 0.90487 0.0
O430 O 0.61139 0.22716 0.89831 0.0
O431 O 0.62878 0.20904 0.89413 0.0
O432 O 0.58936 0.24596 0.87045 0.0
O433 O 0.59405 0.22524 0.85337 0.0
O434 O 0.76864 0.64437 0.86224 0.0
Cd435 Cd 0.78954 0.63351 0.86574 0.0
Cd436 Cd 0.77016 0.60909 0.87267 0.0
O437 O 0.75314 0.62445 0.86471 0.0
O438 O 0.80425 0.64811 0.85373 0.0
O439 O 0.80029 0.62463 0.84286 0.0
C440 C 0.80695 0.63781 0.84104 0.0
C441 C 0.7693 0.58361 0.86198 0.0
C442 C 0.75518 0.63872 0.86182 0.0
C443 C 0.79056 0.62045 0.9048 0.0
O444 O 0.77968 0.61177 0.89928 0.0
O445 O 0.79686 0.62978 0.89331 0.0
O446 O 0.75967 0.58878 0.87428 0.0
O447 O 0.77925 0.59311 0.85512 0.0
H448 H 0.2572 0.17208 0.35592 0.0
H449 H 0.23551 0.18969 0.35292 0.0
H450 H 0.20399 0.15158 0.35613 0.0
H451 H 0.22566 0.13379 0.35936 0.0
H452 H 0.21141 0.1908 0.32588 0.0
H453 H 0.1896 0.18046 0.39887 0.0
H454 H 0.20853 0.17453 0.39142 0.0
H455 H 0.19195 0.16374 0.38422 0.0
C456 C 0.24567 0.16739 0.35593 0.0
C457 C 0.24319 0.1515 0.35804 0.0
C458 C 0.23328 0.17749 0.35418 0.0
C459 C 0.21814 0.17197 0.35457 0.0
C460 C 0.21558 0.1561 0.35612 0.0
H461 H 0.13369 0.22712 0.3606 0.0
H462 H 0.15125 0.20531 0.35688 0.0
C463 C 0.22799 0.14595 0.35786 0.0
C464 C 0.20514 0.18299 0.35375 0.0
H465 H 0.17606 0.19828 0.3802 0.0
C466 C 0.2036 0.19236 0.33769 0.0
C467 C 0.19493 0.18496 0.36915 0.0
C468 C 0.19633 0.1755 0.38698 0.0
C469 C 0.19228 0.20384 0.33674 0.0
C470 C 0.18243 0.20618 0.35241 0.0
C471 C 0.18363 0.19646 0.36821 0.0
C472 C 0.17158 0.21932 0.35331 0.0
C473 C 0.19101 0.21339 0.31898 0.0
C474 C 0.17718 0.23442 0.35259 0.0
C475 C 0.16722 0.24688 0.35472 0.0
C476 C 0.15141 0.24452 0.35775 0.0
C477 C 0.14578 0.22936 0.35823 0.0
C478 C 0.1558 0.21688 0.35613 0.0
H479 H 0.19581 0.20725 0.30652 0.0
H480 H 0.17887 0.21648 0.31596 0.0
H481 H 0.19766 0.22416 0.32087 0.0
H482 H 0.18936 0.23658 0.35085 0.0
H483 H 0.17199 0.25836 0.35434 0.0
H484 H 0.78176 0.13381 0.36089 0.0
H485 H 0.80364 0.15135 0.35781 0.0
H486 H 0.77253 0.18972 0.35317 0.0
H487 H 0.75064 0.17235 0.356 0.0
H488 H 0.79694 0.19042 0.32679 0.0
H489 H 0.81778 0.18048 0.40032 0.0
H490 H 0.81554 0.16364 0.38585 0.0
H491 H 0.79892 0.17459 0.39254 0.0
C492 C 0.77956 0.14597 0.3591 0.0
C493 C 0.76442 0.15166 0.35883 0.0
C494 C 0.79209 0.15598 0.35745 0.0
C495 C 0.78971 0.17186 0.35556 0.0
C496 C 0.77463 0.17751 0.3547 0.0
H497 H 0.83679 0.25778 0.35509 0.0
H498 H 0.81919 0.23617 0.35175 0.0
C499 C 0.76212 0.16754 0.35636 0.0
C500 C 0.80282 0.18275 0.35486 0.0
H501 H 0.83176 0.19795 0.38167 0.0
C502 C 0.80463 0.192 0.33873 0.0
C503 C 0.81288 0.18474 0.37043 0.0
C504 C 0.81118 0.17545 0.38835 0.0
C505 C 0.81607 0.20335 0.33786 0.0
C506 C 0.82578 0.20571 0.35368 0.0
C507 C 0.82431 0.19612 0.36956 0.0
C508 C 0.83677 0.21873 0.35461 0.0
C509 C 0.81763 0.21277 0.32003 0.0
C510 C 0.85251 0.21614 0.35763 0.0
C511 C 0.86266 0.22853 0.35964 0.0
C512 C 0.8572 0.24374 0.35887 0.0
C513 C 0.84143 0.24625 0.3557 0.0
C514 C 0.83134 0.23389 0.35365 0.0
H515 H 0.81287 0.20661 0.30756 0.0
H516 H 0.81111 0.22364 0.32171 0.0
H517 H 0.82983 0.21568 0.31717 0.0
H518 H 0.85692 0.20453 0.35857 0.0
H519 H 0.87471 0.22617 0.36214 0.0
H520 H 0.83512 0.74857 0.35502 0.0
H521 H 0.81706 0.76992 0.35281 0.0
H522 H 0.85447 0.80213 0.35802 0.0
H523 H 0.87274 0.78076 0.36009 0.0
H524 H 0.81309 0.79203 0.38145 0.0
H525 H 0.82933 0.81917 0.31299 0.0
H526 H 0.83491 0.79982 0.31914 0.0
H527 H 0.84473 0.81589 0.3295 0.0
C528 C 0.83958 0.76018 0.35547 0.0
C529 C 0.85541 0.76293 0.35779 0.0
C530 C 0.82922 0.77238 0.3542 0.0
C531 C 0.83442 0.78761 0.35511 0.0
C532 C 0.85023 0.79046 0.35697 0.0
H533 H 0.78049 0.87269 0.36117 0.0
H534 H 0.80181 0.8543 0.35929 0.0
C535 C 0.86065 0.77823 0.35824 0.0
C536 C 0.82308 0.80033 0.35551 0.0
H537 H 0.81001 0.83156 0.33096 0.0
C538 C 0.81243 0.80068 0.37041 0.0
C539 C 0.82236 0.81169 0.3412 0.0
C540 C 0.83335 0.81165 0.3247 0.0
C541 C 0.80096 0.81197 0.37132 0.0
C542 C 0.79992 0.82305 0.35673 0.0
C543 C 0.81081 0.82299 0.34207 0.0
C544 C 0.78719 0.83437 0.35624 0.0
C545 C 0.79008 0.81196 0.38796 0.0
C546 C 0.77196 0.82928 0.35458 0.0
C547 C 0.75979 0.8397 0.35567 0.0
C548 C 0.76259 0.85547 0.35835 0.0
C549 C 0.77792 0.86063 0.35917 0.0
C550 C 0.79012 0.85015 0.35809 0.0
H551 H 0.79487 0.80552 0.4002 0.0
H552 H 0.78741 0.82386 0.39257 0.0
H553 H 0.77916 0.80633 0.38374 0.0
H554 H 0.76947 0.81718 0.35279 0.0
H555 H 0.74816 0.83531 0.35479 0.0
H556 H 0.1321 0.7824 0.36258 0.0
H557 H 0.14967 0.80424 0.35907 0.0
H558 H 0.18726 0.77302 0.34899 0.0
H559 H 0.16988 0.75124 0.35223 0.0
H560 H 0.17531 0.81029 0.38125 0.0
H561 H 0.19243 0.80392 0.30621 0.0
H562 H 0.17579 0.79441 0.31601 0.0
H563 H 0.19469 0.78644 0.31937 0.0
C564 C 0.14406 0.78019 0.35935 0.0
C565 C 0.14956 0.76504 0.35766 0.0
C566 C 0.15408 0.79269 0.35737 0.0
C567 C 0.16973 0.79027 0.35348 0.0
C568 C 0.17518 0.77519 0.35155 0.0
H569 H 0.25622 0.83551 0.35527 0.0
H570 H 0.23401 0.81857 0.35216 0.0
C571 C 0.16521 0.76272 0.35356 0.0
C572 C 0.18067 0.80334 0.35275 0.0
H573 H 0.20912 0.81919 0.32577 0.0
C574 C 0.18252 0.81244 0.36901 0.0
C575 C 0.19006 0.80612 0.33676 0.0
C576 C 0.18805 0.7973 0.31853 0.0
C577 C 0.19407 0.82368 0.37007 0.0
C578 C 0.20387 0.82602 0.35435 0.0
C579 C 0.20164 0.81732 0.33784 0.0
C580 C 0.21716 0.83667 0.35524 0.0
C581 C 0.1962 0.83244 0.38833 0.0
C582 C 0.21506 0.85253 0.35763 0.0
C583 C 0.22776 0.8623 0.35943 0.0
C584 C 0.24281 0.85636 0.35882 0.0
C585 C 0.24482 0.8405 0.35589 0.0
C586 C 0.23213 0.83078 0.35407 0.0
H587 H 0.1896 0.82727 0.40019 0.0
H588 H 0.20853 0.83286 0.39235 0.0
H589 H 0.19216 0.84443 0.38637 0.0
H590 H 0.20359 0.85734 0.35827 0.0
H591 H 0.22579 0.87446 0.36158 0.0
H592 H 0.13591 0.78015 0.64776 0.0
H593 H 0.15411 0.80163 0.64946 0.0
H594 H 0.19146 0.7697 0.65717 0.0
H595 H 0.17351 0.74823 0.65533 0.0
H596 H 0.17631 0.81042 0.67795 0.0
H597 H 0.20364 0.79461 0.60972 0.0
H598 H 0.18529 0.78701 0.61707 0.0
H599 H 0.2028 0.77913 0.62648 0.0
C600 C 0.14799 0.7777 0.64996 0.0
C601 C 0.15326 0.76244 0.6512 0.0
C602 C 0.15836 0.78999 0.65094 0.0
C603 C 0.17415 0.78722 0.6531 0.0
C604 C 0.17935 0.77206 0.65513 0.0
H605 H 0.25942 0.83612 0.65562 0.0
H606 H 0.23823 0.81786 0.65758 0.0
C607 C 0.16904 0.7598 0.65414 0.0
C608 C 0.18536 0.80005 0.65263 0.0
H609 H 0.21665 0.81322 0.62843 0.0
C610 C 0.18505 0.81115 0.66706 0.0
C611 C 0.19668 0.80101 0.63831 0.0
C612 C 0.19708 0.7899 0.6219 0.0
C613 C 0.19621 0.82284 0.66796 0.0
C614 C 0.2078 0.82349 0.65393 0.0
C615 C 0.20782 0.81262 0.63926 0.0
C616 C 0.22039 0.83497 0.65442 0.0
C617 C 0.19585 0.83406 0.68422 0.0
C618 C 0.21739 0.85071 0.65215 0.0
C619 C 0.22953 0.86125 0.65103 0.0
C620 C 0.24489 0.8562 0.65203 0.0
C621 C 0.24777 0.84044 0.65475 0.0
C622 C 0.23567 0.82996 0.65587 0.0
H623 H 0.18817 0.83013 0.69581 0.0
H624 H 0.20757 0.83583 0.69005 0.0
H625 H 0.19156 0.84531 0.67906 0.0
H626 H 0.20569 0.8548 0.65069 0.0
H627 H 0.22689 0.87328 0.64887 0.0
H628 H 0.23516 0.14079 0.67214 0.0
H629 H 0.21405 0.15925 0.67559 0.0
H630 H 0.23356 0.1869 0.63088 0.0
H631 H 0.25516 0.16916 0.62853 0.0
H632 H 0.22483 0.20478 0.65616 0.0
H633 H 0.17665 0.16424 0.64532 0.0
H634 H 0.18806 0.15907 0.66545 0.0
H635 H 0.19638 0.15859 0.64207 0.0
C636 C 0.23488 0.15084 0.6631 0.0
C637 C 0.24677 0.15359 0.65009 0.0
C638 C 0.22272 0.16131 0.66491 0.0
C639 C 0.22192 0.17437 0.6532 0.0
C640 C 0.23383 0.17698 0.64013 0.0
H641 H 0.14125 0.22986 0.63083 0.0
H642 H 0.16095 0.20984 0.6326 0.0
C643 C 0.24619 0.16682 0.63876 0.0
C644 C 0.2091 0.18569 0.6548 0.0
H645 H 0.16999 0.18941 0.65545 0.0
C646 C 0.21284 0.20137 0.65587 0.0
C647 C 0.19339 0.18137 0.65423 0.0
C648 C 0.18837 0.16492 0.6515 0.0
C649 C 0.20147 0.2128 0.65598 0.0
C650 C 0.18576 0.20848 0.65626 0.0
C651 C 0.18199 0.19278 0.65548 0.0
C652 C 0.1731 0.22004 0.65628 0.0
C653 C 0.20656 0.22937 0.65485 0.0
C654 C 0.17297 0.23223 0.66935 0.0
C655 C 0.16203 0.24395 0.6679 0.0
C656 C 0.15056 0.24331 0.65394 0.0
C657 C 0.14997 0.23058 0.64176 0.0
C658 C 0.16123 0.21914 0.64279 0.0
H659 H 0.21822 0.23041 0.64856 0.0
H660 H 0.1985 0.23635 0.64622 0.0
H661 H 0.2071 0.23427 0.66934 0.0
H662 H 0.18153 0.2329 0.68044 0.0
H663 H 0.16258 0.25357 0.67761 0.0
H664 H 0.74817 0.17248 0.65569 0.0
H665 H 0.76952 0.19059 0.6574 0.0
H666 H 0.80175 0.15345 0.6502 0.0
H667 H 0.7804 0.13509 0.64863 0.0
H668 H 0.81031 0.17588 0.67849 0.0
H669 H 0.79445 0.20263 0.6099 0.0
H670 H 0.77894 0.20178 0.62663 0.0
H671 H 0.78696 0.18428 0.61741 0.0
C672 C 0.75979 0.16809 0.65459 0.0
C673 C 0.76255 0.15232 0.65183 0.0
C674 C 0.77198 0.17849 0.6555 0.0
C675 C 0.78719 0.17339 0.65357 0.0
C676 C 0.79007 0.15761 0.6516 0.0
H677 H 0.87314 0.22626 0.64915 0.0
H678 H 0.85463 0.20509 0.65108 0.0
C679 C 0.77786 0.14715 0.65069 0.0
C680 C 0.79994 0.18468 0.65303 0.0
H681 H 0.81302 0.21581 0.62847 0.0
C682 C 0.81103 0.18454 0.66749 0.0
C683 C 0.80087 0.19589 0.63857 0.0
C684 C 0.78977 0.19612 0.62214 0.0
C685 C 0.82267 0.19574 0.66828 0.0
C686 C 0.8233 0.20721 0.6541 0.0
C687 C 0.81244 0.20708 0.6394 0.0
C688 C 0.83478 0.21981 0.65442 0.0
C689 C 0.83386 0.19556 0.68459 0.0
C690 C 0.82976 0.23509 0.65559 0.0
C691 C 0.84025 0.24718 0.6544 0.0
C692 C 0.85603 0.24427 0.65191 0.0
C693 C 0.86109 0.22892 0.65115 0.0
C694 C 0.85054 0.2168 0.65233 0.0
H695 H 0.82989 0.18803 0.69631 0.0
H696 H 0.84512 0.19118 0.67955 0.0
H697 H 0.83566 0.20734 0.69021 0.0
H698 H 0.81764 0.23767 0.65716 0.0
H699 H 0.83592 0.25883 0.65508 0.0
H700 H 0.87579 0.78222 0.65192 0.0
H701 H 0.85855 0.80427 0.65599 0.0
H702 H 0.8204 0.77347 0.66467 0.0
H703 H 0.83743 0.75148 0.66083 0.0
H704 H 0.83307 0.81099 0.63355 0.0
H705 H 0.81549 0.80378 0.70832 0.0
H706 H 0.8321 0.79427 0.69845 0.0
H707 H 0.81316 0.78652 0.69472 0.0
C708 C 0.86377 0.78014 0.65497 0.0
C709 C 0.85801 0.76506 0.65606 0.0
C710 C 0.85394 0.79276 0.65727 0.0
C711 C 0.83824 0.79052 0.66091 0.0
C712 C 0.83253 0.77549 0.66229 0.0
H713 H 0.75224 0.83621 0.65942 0.0
H714 H 0.77443 0.8193 0.66276 0.0
C715 C 0.84229 0.76291 0.65995 0.0
C716 C 0.8275 0.80374 0.66187 0.0
H717 H 0.79911 0.81957 0.68898 0.0
C718 C 0.82583 0.81307 0.64578 0.0
C719 C 0.81808 0.80643 0.67785 0.0
C720 C 0.81988 0.79731 0.69588 0.0
C721 C 0.8144 0.82446 0.64486 0.0
C722 C 0.80456 0.82671 0.66057 0.0
C723 C 0.80664 0.81778 0.67693 0.0
C724 C 0.79128 0.83739 0.65973 0.0
C725 C 0.81243 0.83343 0.62673 0.0
C726 C 0.79339 0.85326 0.65732 0.0
C727 C 0.78068 0.86302 0.65537 0.0
C728 C 0.76564 0.85706 0.65585 0.0
C729 C 0.76363 0.84121 0.65889 0.0
C730 C 0.77631 0.8315 0.66085 0.0
H731 H 0.81901 0.82831 0.61482 0.0
H732 H 0.80011 0.83402 0.62265 0.0
H733 H 0.8166 0.84534 0.62889 0.0
H734 H 0.80486 0.85807 0.65674 0.0
H735 H 0.78265 0.87516 0.65314 0.0
H736 H 0.63229 0.72476 0.86455 0.0
H737 H 0.65024 0.70304 0.86312 0.0
H738 H 0.68756 0.73427 0.85178 0.0
H739 H 0.66988 0.75596 0.8533 0.0
H740 H 0.67185 0.69313 0.83387 0.0
H741 H 0.7006 0.71099 0.90046 0.0
H742 H 0.68203 0.71827 0.8934 0.0
H743 H 0.69927 0.72597 0.88306 0.0
C744 C 0.64429 0.727 0.86158 0.0
C745 C 0.64966 0.74214 0.85925 0.0
C746 C 0.65452 0.71457 0.86076 0.0
C747 C 0.67025 0.71709 0.85767 0.0
C748 C 0.6755 0.7321 0.85452 0.0
H749 H 0.75578 0.66938 0.8538 0.0
H750 H 0.73413 0.68709 0.85196 0.0
C751 C 0.66534 0.74449 0.85535 0.0
C752 C 0.6814 0.70423 0.85843 0.0
H753 H 0.71333 0.69195 0.8821 0.0
C754 C 0.68084 0.69273 0.84451 0.0
C755 C 0.69303 0.70372 0.87242 0.0
C756 C 0.69373 0.71531 0.88831 0.0
C757 C 0.69207 0.68111 0.84371 0.0
C758 C 0.704 0.68095 0.85733 0.0
C759 C 0.70424 0.69218 0.87158 0.0
C760 C 0.7168 0.66971 0.85673 0.0
C761 C 0.69145 0.66944 0.82794 0.0
C762 C 0.71424 0.65398 0.85983 0.0
C763 C 0.72665 0.64375 0.8609 0.0
C764 C 0.74184 0.64911 0.85899 0.0
C765 C 0.74427 0.66483 0.8554 0.0
C766 C 0.7319 0.67499 0.85434 0.0
H767 H 0.68328 0.67286 0.8166 0.0
H768 H 0.70301 0.66781 0.8216 0.0
H769 H 0.68766 0.65823 0.83377 0.0
H770 H 0.70269 0.6497 0.86201 0.0
H771 H 0.72437 0.63175 0.86375 0.0
H772 H 0.28132 0.63447 0.86393 0.0
H773 H 0.30248 0.65306 0.86242 0.0
H774 H 0.26987 0.68982 0.85476 0.0
H775 H 0.24873 0.67149 0.85639 0.0
H776 H 0.31084 0.6755 0.83396 0.0
H777 H 0.29456 0.70233 0.90233 0.0
H778 H 0.28732 0.68385 0.89492 0.0
H779 H 0.27908 0.70121 0.88556 0.0
C780 C 0.27865 0.6465 0.86178 0.0
C781 C 0.26329 0.65149 0.86049 0.0
C782 C 0.29076 0.65709 0.86091 0.0
C783 C 0.28771 0.67283 0.85882 0.0
C784 C 0.27246 0.67775 0.85675 0.0
H785 H 0.33529 0.75893 0.85688 0.0
H786 H 0.31729 0.73751 0.85494 0.0
C787 C 0.26038 0.66722 0.85762 0.0
C788 C 0.30034 0.68427 0.85935 0.0
H789 H 0.31296 0.7157 0.88371 0.0
C790 C 0.31143 0.68422 0.84491 0.0
C791 C 0.3011 0.69555 0.87372 0.0
C792 C 0.28998 0.69571 0.89012 0.0
C793 C 0.3229 0.69559 0.84406 0.0
C794 C 0.32336 0.70713 0.85815 0.0
C795 C 0.3125 0.70691 0.87283 0.0
C796 C 0.33467 0.71989 0.85777 0.0
C797 C 0.3341 0.69549 0.82776 0.0
C798 C 0.35047 0.7171 0.85987 0.0
C799 C 0.36085 0.72936 0.86098 0.0
C800 C 0.35559 0.74464 0.86012 0.0
C801 C 0.33977 0.74734 0.85762 0.0
C802 C 0.32944 0.7351 0.85651 0.0
H803 H 0.33022 0.68787 0.81608 0.0
H804 H 0.33574 0.70727 0.82208 0.0
H805 H 0.34541 0.69127 0.83284 0.0
H806 H 0.35472 0.70545 0.86119 0.0
H807 H 0.37294 0.72687 0.86298 0.0
H808 H 0.33499 0.24806 0.85621 0.0
H809 H 0.31694 0.26943 0.85401 0.0
H810 H 0.35451 0.3016 0.85719 0.0
H811 H 0.37277 0.28024 0.85921 0.0
H812 H 0.31332 0.29204 0.88184 0.0
H813 H 0.32885 0.31793 0.81244 0.0
H814 H 0.33459 0.29873 0.81909 0.0
H815 H 0.34448 0.31506 0.82873 0.0
C816 C 0.33948 0.25966 0.85622 0.0
C817 C 0.35536 0.26241 0.85792 0.0
C818 C 0.32912 0.27187 0.85496 0.0
C819 C 0.33437 0.2871 0.85528 0.0
C820 C 0.35022 0.28994 0.85659 0.0
H821 H 0.28155 0.37286 0.86034 0.0
H822 H 0.30256 0.35411 0.85859 0.0
C823 C 0.36064 0.2777 0.85783 0.0
C824 C 0.32309 0.29988 0.85556 0.0
H825 H 0.31004 0.33091 0.83062 0.0
C826 C 0.31261 0.30053 0.87064 0.0
C827 C 0.32229 0.31104 0.84103 0.0
C828 C 0.33306 0.31067 0.8243 0.0
C829 C 0.30126 0.31195 0.87152 0.0
C830 C 0.30017 0.32286 0.85674 0.0
C831 C 0.31087 0.32248 0.84187 0.0
C832 C 0.2876 0.33436 0.85627 0.0
C833 C 0.29057 0.31228 0.88834 0.0
C834 C 0.27227 0.32949 0.85499 0.0
C835 C 0.26028 0.34012 0.856 0.0
C836 C 0.26335 0.35589 0.85822 0.0
C837 C 0.27877 0.36081 0.8587 0.0
C838 C 0.29079 0.35012 0.8577 0.0
H839 H 0.29542 0.30592 0.90061 0.0
H840 H 0.28811 0.32427 0.89279 0.0
H841 H 0.27953 0.30675 0.88441 0.0
H842 H 0.26957 0.3174 0.85353 0.0
H843 H 0.24858 0.3359 0.85541 0.0
H844 H 0.63299 0.27984 0.85882 0.0
H845 H 0.65095 0.30131 0.855 0.0
H846 H 0.68867 0.26936 0.85089 0.0
H847 H 0.6709 0.24791 0.85448 0.0
H848 H 0.67549 0.30833 0.87886 0.0
H849 H 0.69631 0.29782 0.80593 0.0
H850 H 0.67906 0.28904 0.81516 0.0
H851 H 0.69762 0.28113 0.82076 0.0
C852 C 0.64508 0.27737 0.85685 0.0
C853 C 0.65048 0.26213 0.85694 0.0
C854 C 0.65533 0.28966 0.85469 0.0
C855 C 0.67112 0.28693 0.85238 0.0
C856 C 0.6765 0.27174 0.85223 0.0
H857 H 0.75734 0.33304 0.85588 0.0
H858 H 0.73548 0.31568 0.85264 0.0
C859 C 0.66631 0.25948 0.85442 0.0
C860 C 0.68218 0.29988 0.85143 0.0
H861 H 0.71179 0.31441 0.82522 0.0
C862 C 0.68327 0.30984 0.86701 0.0
C863 C 0.69232 0.30182 0.83595 0.0
C864 C 0.6912 0.29198 0.81842 0.0
C865 C 0.69472 0.32119 0.86794 0.0
C866 C 0.70519 0.32278 0.85274 0.0
C867 C 0.70378 0.31315 0.83688 0.0
C868 C 0.71832 0.33363 0.85359 0.0
C869 C 0.69598 0.33091 0.88558 0.0
C870 C 0.71594 0.34955 0.8548 0.0
C871 C 0.72845 0.35956 0.85669 0.0
C872 C 0.74357 0.35382 0.85734 0.0
C873 C 0.74588 0.33788 0.85552 0.0
C874 C 0.73339 0.32792 0.85363 0.0
H875 H 0.68905 0.32619 0.89744 0.0
H876 H 0.70814 0.33182 0.89025 0.0
H877 H 0.69175 0.34266 0.88247 0.0
H878 H 0.70441 0.35422 0.85447 0.0
H879 H 0.72625 0.37176 0.85796 0.0
H880 H 0.63264 0.28231 0.15308 0.0
H881 H 0.65023 0.30412 0.15655 0.0
H882 H 0.68863 0.27294 0.15987 0.0
H883 H 0.67122 0.25112 0.15662 0.0
H884 H 0.68941 0.29695 0.18704 0.0
H885 H 0.6792 0.31885 0.11404 0.0
H886 H 0.66244 0.31631 0.12857 0.0
H887 H 0.67341 0.29985 0.12137 0.0
C888 C 0.64481 0.28009 0.15466 0.0
C889 C 0.65051 0.26495 0.15444 0.0
C890 C 0.65486 0.29257 0.15654 0.0
C891 C 0.67075 0.29015 0.15819 0.0
C892 C 0.67641 0.27506 0.15854 0.0
H893 H 0.75696 0.33653 0.15897 0.0
H894 H 0.73519 0.31914 0.1624 0.0
C895 C 0.66641 0.2626 0.15664 0.0
C896 C 0.68166 0.30322 0.15913 0.0
H897 H 0.69693 0.33239 0.13282 0.0
C898 C 0.69098 0.30478 0.17525 0.0
C899 C 0.68364 0.31346 0.14376 0.0
C900 C 0.67425 0.31205 0.12587 0.0
C901 C 0.70241 0.31615 0.17629 0.0
C902 C 0.70477 0.32602 0.16065 0.0
C903 C 0.6951 0.32481 0.14479 0.0
C904 C 0.7179 0.33689 0.15983 0.0
C905 C 0.71189 0.31743 0.19411 0.0
C906 C 0.71544 0.35266 0.15697 0.0
C907 C 0.72792 0.36269 0.1549 0.0
C908 C 0.74309 0.35708 0.15546 0.0
C909 C 0.74546 0.34128 0.15853 0.0
C910 C 0.73301 0.33131 0.16063 0.0
H911 H 0.7057 0.31263 0.20654 0.0
H912 H 0.72269 0.3108 0.1923 0.0
H913 H 0.71495 0.32957 0.19715 0.0
H914 H 0.70386 0.35718 0.15615 0.0
H915 H 0.72567 0.37476 0.15248 0.0
H916 H 0.72586 0.63315 0.14929 0.0
H917 H 0.704 0.65071 0.15249 0.0
H918 H 0.73517 0.68893 0.15811 0.0
H919 H 0.75703 0.67155 0.15516 0.0
H920 H 0.71057 0.68928 0.18437 0.0
H921 H 0.69024 0.68049 0.1104 0.0
H922 H 0.69238 0.66346 0.12454 0.0
H923 H 0.70905 0.67448 0.11822 0.0
C924 C 0.72808 0.64528 0.15132 0.0
C925 C 0.74323 0.65094 0.15183 0.0
C926 C 0.71556 0.6553 0.15304 0.0
C927 C 0.71797 0.67115 0.15525 0.0
C928 C 0.73305 0.67675 0.15634 0.0
H929 H 0.67158 0.75736 0.15689 0.0
H930 H 0.68893 0.73553 0.16017 0.0
C931 C 0.74555 0.66678 0.15461 0.0
C932 C 0.70489 0.68207 0.15606 0.0
H933 H 0.67629 0.69786 0.12922 0.0
C934 C 0.70299 0.69108 0.17237 0.0
C935 C 0.69497 0.68435 0.14041 0.0
C936 C 0.69676 0.67529 0.12232 0.0
C937 C 0.69162 0.7025 0.17335 0.0
C938 C 0.68208 0.70517 0.15745 0.0
C939 C 0.68362 0.6958 0.14138 0.0
C940 C 0.67123 0.71831 0.15665 0.0
C941 C 0.68997 0.71166 0.19137 0.0
C942 C 0.6555 0.71591 0.1533 0.0
C943 C 0.6455 0.72842 0.15132 0.0
C944 C 0.6511 0.74357 0.15246 0.0
C945 C 0.66685 0.74588 0.156 0.0
C946 C 0.67679 0.73339 0.15801 0.0
H947 H 0.69454 0.70527 0.20377 0.0
H948 H 0.69661 0.72249 0.19005 0.0
H949 H 0.67776 0.71465 0.19411 0.0
H950 H 0.65099 0.70436 0.15204 0.0
H951 H 0.63346 0.72622 0.14854 0.0
H952 H 0.28276 0.63194 0.14842 0.0
H953 H 0.30468 0.64943 0.15185 0.0
H954 H 0.27357 0.68724 0.16111 0.0
H955 H 0.2517 0.66995 0.15793 0.0
H956 H 0.31097 0.67495 0.12941 0.0
H957 H 0.30424 0.69244 0.20429 0.0
H958 H 0.29475 0.67578 0.19451 0.0
H959 H 0.28685 0.69466 0.19089 0.0
C960 C 0.28059 0.64394 0.15144 0.0
C961 C 0.26545 0.64951 0.15292 0.0
C962 C 0.29313 0.65391 0.15337 0.0
C963 C 0.29076 0.66959 0.15703 0.0
C964 C 0.27569 0.67513 0.15872 0.0
H965 H 0.33679 0.75567 0.15571 0.0
H966 H 0.31963 0.73363 0.15862 0.0
C967 C 0.26318 0.66522 0.15676 0.0
C968 C 0.3039 0.68046 0.15781 0.0
H969 H 0.31984 0.70884 0.18483 0.0
C970 C 0.31311 0.68219 0.14163 0.0
C971 C 0.30666 0.68987 0.17378 0.0
C972 C 0.2977 0.68801 0.19192 0.0
C973 C 0.32447 0.69363 0.14063 0.0
C974 C 0.32681 0.70344 0.15635 0.0
C975 C 0.31798 0.70134 0.17278 0.0
C976 C 0.33759 0.71663 0.15553 0.0
C977 C 0.33334 0.69563 0.12244 0.0
C978 C 0.35345 0.71439 0.15318 0.0
C979 C 0.36335 0.72701 0.1515 0.0
C980 C 0.35754 0.7421 0.15216 0.0
C981 C 0.34168 0.74424 0.15504 0.0
C982 C 0.33183 0.73165 0.15675 0.0
H983 H 0.32813 0.6891 0.11054 0.0
H984 H 0.33394 0.70795 0.11842 0.0
H985 H 0.34527 0.69143 0.12449 0.0
H986 H 0.35816 0.70289 0.15252 0.0
H987 H 0.3755 0.72493 0.14938 0.0
H988 H 0.24994 0.33558 0.15711 0.0
H989 H 0.27153 0.31793 0.16049 0.0
H990 H 0.30325 0.35581 0.15618 0.0
H991 H 0.28165 0.37365 0.15258 0.0
H992 H 0.31029 0.33131 0.13224 0.0
H993 H 0.30029 0.31049 0.20529 0.0
H994 H 0.28353 0.30909 0.19057 0.0
H995 H 0.29137 0.32768 0.19611 0.0
C996 C 0.26149 0.34023 0.15708 0.0
C997 C 0.26404 0.35607 0.15458 0.0
C998 C 0.27383 0.33011 0.15915 0.0
C999 C 0.289 0.33557 0.15888 0.0
C1000 C 0.29162 0.35137 0.15657 0.0
H1001 H 0.37424 0.281 0.15293 0.0
H1002 H 0.35656 0.30273 0.15633 0.0
C1003 C 0.27926 0.36155 0.15454 0.0
C1004 C 0.30203 0.32459 0.15974 0.0
H1005 H 0.31692 0.29514 0.18591 0.0
C1006 C 0.31192 0.32356 0.1441 0.0
C1007 C 0.30412 0.31449 0.17523 0.0
C1008 C 0.29436 0.31557 0.19283 0.0
C1009 C 0.32336 0.31219 0.1431 0.0
C1010 C 0.3251 0.30175 0.15832 0.0
C1011 C 0.31554 0.30312 0.17424 0.0
C1012 C 0.33605 0.2887 0.15742 0.0
C1013 C 0.333 0.31099 0.1254 0.0
C1014 C 0.33043 0.27361 0.15751 0.0
C1015 C 0.34048 0.26118 0.15567 0.0
C1016 C 0.3564 0.26358 0.15377 0.0
C1017 C 0.36205 0.27873 0.15426 0.0
C1018 C 0.35196 0.29117 0.1561 0.0
H1019 H 0.32817 0.31787 0.11356 0.0
H1020 H 0.34475 0.3153 0.12842 0.0
H1021 H 0.33398 0.29884 0.12075 0.0
H1022 H 0.3182 0.27144 0.15859 0.0
H1023 H 0.3357 0.24969 0.15544 0.0
H1024 H 0.94525 0.25025 0.37016 0.0
H1025 H 0.97273 0.25188 0.3637 0.0
H1026 H 0.96555 0.29367 0.33216 0.0
H1027 H 0.93788 0.29224 0.33877 0.0
H1028 H 0.98945 0.25323 0.32941 0.0
H1029 H 0.99713 0.30607 0.37289 0.0
H1030 H 0.9799 0.29456 0.37402 0.0
H1031 H 0.98315 0.30703 0.35418 0.0
C1032 C 0.94945 0.25975 0.36172 0.0
C1033 C 0.93936 0.27119 0.35511 0.0
C1034 C 0.96518 0.26064 0.35801 0.0
C1035 C 0.97123 0.27301 0.34769 0.0
C1036 C 0.96115 0.28416 0.34043 0.0
H1037 H 0.0703 0.29347 0.33977 0.0
H1038 H 0.04262 0.29433 0.33303 0.0
C1039 C 0.94534 0.28328 0.34412 0.0
C1040 C 0.98814 0.27431 0.34529 0.0
H1041 H 0.01934 0.29493 0.36002 0.0
C1042 C 0.99599 0.26245 0.33591 0.0
C1043 C 0.99665 0.28637 0.3537 0.0
C1044 C 0.98886 0.29921 0.36439 0.0
C1045 C 0.01212 0.2621 0.33517 0.0
C1046 C 0.02064 0.27376 0.34436 0.0
C1047 C 0.01279 0.286 0.35299 0.0
C1048 C 0.03757 0.27273 0.34683 0.0
C1049 C 0.01989 0.24911 0.32478 0.0
C1050 C 0.04391 0.26032 0.35681 0.0
C1051 C 0.05964 0.25981 0.3607 0.0
C1052 C 0.06941 0.27175 0.35478 0.0
C1053 C 0.06311 0.28405 0.34444 0.0
C1054 C 0.0473 0.28458 0.34061 0.0
H1055 H 0.0123 0.24427 0.3136 0.0
H1056 H 0.0308 0.25294 0.31815 0.0
H1057 H 0.02255 0.23976 0.33495 0.0
H1058 H 0.03661 0.25122 0.36214 0.0
H1059 H 0.06408 0.25019 0.36876 0.0
H1060 H 0.71585 0.06961 0.34172 0.0
H1061 H 0.71453 0.0416 0.3376 0.0
H1062 H 0.7576 0.03669 0.36718 0.0
H1063 H 0.75898 0.06445 0.37148 0.0
H1064 H 0.73633 0.01897 0.32155 0.0
H1065 H 0.72596 0.01135 0.39849 0.0
H1066 H 0.72367 0.02962 0.38671 0.0
H1067 H 0.74251 0.02286 0.39307 0.0
C1068 C 0.72514 0.06257 0.34712 0.0
C1069 C 0.73744 0.06925 0.35711 0.0
C1070 C 0.72436 0.04658 0.34475 0.0
C1071 C 0.73584 0.03708 0.35237 0.0
C1072 C 0.74849 0.0438 0.36146 0.0
H1073 H 0.7583 0.94319 0.37124 0.0
H1074 H 0.75718 0.97094 0.36681 0.0
C1075 C 0.74927 0.0597 0.36386 0.0
C1076 C 0.73436 0.0201 0.3519 0.0
H1077 H 0.73227 0.98888 0.38101 0.0
C1078 C 0.73526 0.01235 0.33449 0.0
C1079 C 0.73285 0.01153 0.36881 0.0
C1080 C 0.73104 0.01924 0.38783 0.0
C1081 C 0.73542 0.99618 0.33368 0.0
C1082 C 0.73452 0.98765 0.35069 0.0
C1083 C 0.73309 0.99545 0.36799 0.0
C1084 C 0.73579 0.97065 0.35119 0.0
C1085 C 0.73717 0.98833 0.31477 0.0
C1086 C 0.72423 0.96122 0.34361 0.0
C1087 C 0.72483 0.94524 0.34613 0.0
C1088 C 0.73696 0.93849 0.35636 0.0
C1089 C 0.74876 0.94798 0.36333 0.0
C1090 C 0.74815 0.96387 0.36082 0.0
H1091 H 0.74028 0.99653 0.30335 0.0
H1092 H 0.7461 0.97924 0.31556 0.0
H1093 H 0.72614 0.98274 0.3109 0.0
H1094 H 0.71447 0.96624 0.33637 0.0
H1095 H 0.71553 0.93826 0.34066 0.0
H1096 H 0.06216 0.75718 0.37127 0.0
H1097 H 0.03469 0.75569 0.36462 0.0
H1098 H 0.04192 0.71442 0.33208 0.0
H1099 H 0.06958 0.71573 0.33884 0.0
H1100 H 0.01829 0.75487 0.32979 0.0
H1101 H 0.00994 0.70165 0.37235 0.0
H1102 H 0.02716 0.71312 0.37405 0.0
H1103 H 0.02416 0.7009 0.35391 0.0
C1104 C 0.05797 0.74782 0.36259 0.0
C1105 C 0.06807 0.73651 0.3557 0.0
C1106 C 0.04225 0.74701 0.35877 0.0
C1107 C 0.03623 0.73484 0.34808 0.0
C1108 C 0.0463 0.72378 0.34062 0.0
H1109 H 0.93714 0.71492 0.33889 0.0
H1110 H 0.96485 0.71397 0.33241 0.0
C1111 C 0.06211 0.7246 0.3444 0.0
C1112 C 0.01934 0.73367 0.34543 0.0
H1113 H 0.98789 0.71312 0.35946 0.0
C1114 C 0.01164 0.74564 0.33608 0.0
C1115 C 0.01069 0.72158 0.35356 0.0
C1116 C 0.01832 0.7086 0.36416 0.0
C1117 C 0.99552 0.7461 0.33511 0.0
C1118 C 0.98685 0.73442 0.34405 0.0
C1119 C 0.99455 0.72207 0.35263 0.0
C1120 C 0.96991 0.73554 0.34629 0.0
C1121 C 0.98793 0.75921 0.32473 0.0
C1122 C 0.96355 0.74797 0.35622 0.0
C1123 C 0.9478 0.74854 0.35995 0.0
C1124 C 0.93803 0.73663 0.35393 0.0
C1125 C 0.94434 0.72432 0.34363 0.0
C1126 C 0.96017 0.72374 0.33995 0.0
H1127 H 0.99562 0.76402 0.31366 0.0
H1128 H 0.97701 0.75551 0.31797 0.0
H1129 H 0.98532 0.76854 0.33493 0.0
H1130 H 0.97085 0.75703 0.36165 0.0
H1131 H 0.94336 0.75816 0.36798 0.0
H1132 H 0.29187 0.93783 0.34092 0.0
H1133 H 0.29309 0.96582 0.33644 0.0
H1134 H 0.25018 0.97085 0.36628 0.0
H1135 H 0.2489 0.94312 0.37092 0.0
H1136 H 0.2709 0.98831 0.32033 0.0
H1137 H 0.28219 0.9964 0.39702 0.0
H1138 H 0.28448 0.97809 0.38533 0.0
H1139 H 0.26567 0.98473 0.39197 0.0
C1140 C 0.2826 0.9449 0.34629 0.0
C1141 C 0.27038 0.93826 0.35646 0.0
C1142 C 0.28331 0.96086 0.34371 0.0
C1143 C 0.27184 0.97039 0.3513 0.0
C1144 C 0.25926 0.96371 0.36057 0.0
H1145 H 0.24831 0.06385 0.36969 0.0
H1146 H 0.24981 0.03613 0.36516 0.0
C1147 C 0.25855 0.94784 0.36317 0.0
C1148 C 0.27327 0.98735 0.35065 0.0
H1149 H 0.27542 0.01874 0.37949 0.0
C1150 C 0.27208 0.995 0.33319 0.0
C1151 C 0.27493 0.99602 0.36747 0.0
C1152 C 0.27704 0.98842 0.38651 0.0
C1153 C 0.27175 0.01117 0.33227 0.0
C1154 C 0.27276 0.01978 0.34921 0.0
C1155 C 0.27452 0.01209 0.36654 0.0
C1156 C 0.27121 0.03674 0.34963 0.0
C1157 C 0.26971 0.01893 0.31336 0.0
C1158 C 0.28265 0.04634 0.3421 0.0
C1159 C 0.28183 0.0623 0.34468 0.0
C1160 C 0.2696 0.06886 0.35491 0.0
C1161 C 0.25791 0.05921 0.36178 0.0
C1162 C 0.25874 0.04334 0.35921 0.0
H1163 H 0.26679 0.01062 0.30197 0.0
H1164 H 0.2605 0.02774 0.31419 0.0
H1165 H 0.28053 0.02486 0.30943 0.0
H1166 H 0.29248 0.04146 0.33488 0.0
H1167 H 0.29105 0.06942 0.33928 0.0
H1168 H 0.06551 0.75738 0.63896 0.0
H1169 H 0.0378 0.75613 0.64379 0.0
H1170 H 0.04311 0.71399 0.67518 0.0
H1171 H 0.07106 0.71519 0.6705 0.0
H1172 H 0.01994 0.73085 0.63042 0.0
H1173 H 0.01289 0.74013 0.70796 0.0
H1174 H 0.03003 0.74589 0.69538 0.0
H1175 H 0.02675 0.72599 0.70055 0.0
C1176 C 0.06087 0.74795 0.64716 0.0
C1177 C 0.07051 0.73635 0.65429 0.0
C1178 C 0.045 0.74726 0.6499 0.0
C1179 C 0.0384 0.73502 0.65991 0.0
C1180 C 0.04799 0.72366 0.66764 0.0
H1181 H 0.93936 0.71527 0.67058 0.0
H1182 H 0.96741 0.71374 0.67441 0.0
C1183 C 0.06395 0.72434 0.6649 0.0
C1184 C 0.02141 0.73363 0.66065 0.0
H1185 H 0.99031 0.73589 0.69011 0.0
C1186 C 0.01348 0.73187 0.64349 0.0
C1187 C 0.01301 0.7348 0.67774 0.0
C1188 C 0.02103 0.7369 0.6965 0.0
C1189 C 0.99738 0.73159 0.64287 0.0
C1190 C 0.98894 0.73339 0.65984 0.0
C1191 C 0.99683 0.73459 0.67713 0.0
C1192 C 0.97197 0.73496 0.6595 0.0
C1193 C 0.9895 0.72949 0.62399 0.0
C1194 C 0.96528 0.74761 0.6504 0.0
C1195 C 0.94937 0.74851 0.64818 0.0
C1196 C 0.93977 0.73679 0.6551 0.0
C1197 C 0.94644 0.72446 0.66506 0.0
C1198 C 0.96244 0.72357 0.66727 0.0
H1199 H 0.99732 0.72429 0.61333 0.0
H1200 H 0.97916 0.7221 0.62541 0.0
H1201 H 0.98578 0.74086 0.61858 0.0
H1202 H 0.97243 0.75663 0.64455 0.0
H1203 H 0.94464 0.75822 0.64057 0.0
H1204 H 0.29198 0.93879 0.67024 0.0
H1205 H 0.29312 0.96672 0.67486 0.0
H1206 H 0.25033 0.97178 0.64467 0.0
H1207 H 0.24917 0.94407 0.63985 0.0
H1208 H 0.27451 0.98989 0.63058 0.0
H1209 H 0.26822 0.99671 0.70855 0.0
H1210 H 0.28252 0.98326 0.70059 0.0
H1211 H 0.26257 0.97938 0.6963 0.0
C1212 C 0.28268 0.94584 0.66489 0.0
C1213 C 0.27051 0.9392 0.65461 0.0
C1214 C 0.28332 0.96179 0.66761 0.0
C1215 C 0.27176 0.97132 0.6602 0.0
C1216 C 0.25937 0.96464 0.65053 0.0
H1217 H 0.24915 0.06581 0.64286 0.0
H1218 H 0.25005 0.03799 0.64686 0.0
C1219 C 0.25872 0.94877 0.64779 0.0
C1220 C 0.27307 0.98832 0.66095 0.0
H1221 H 0.27242 0.01933 0.6907 0.0
C1222 C 0.27409 0.99631 0.64374 0.0
C1223 C 0.27269 0.99667 0.67815 0.0
C1224 C 0.27134 0.98864 0.69699 0.0
C1225 C 0.27449 0.0124 0.6432 0.0
C1226 C 0.27358 0.02079 0.66032 0.0
C1227 C 0.27304 0.01285 0.67761 0.0
C1228 C 0.27242 0.03779 0.6602 0.0
C1229 C 0.27581 0.02033 0.62426 0.0
C1230 C 0.28445 0.04697 0.66709 0.0
C1231 C 0.28396 0.06298 0.66487 0.0
C1232 C 0.27141 0.07001 0.65576 0.0
C1233 C 0.25905 0.06079 0.6498 0.0
C1234 C 0.25954 0.04486 0.65204 0.0
H1235 H 0.28028 0.01247 0.61315 0.0
H1236 H 0.26427 0.02436 0.61975 0.0
H1237 H 0.2835 0.03048 0.62519 0.0
H1238 H 0.29447 0.04171 0.67351 0.0
H1239 H 0.29366 0.06976 0.66964 0.0
H1240 H 0.06983 0.29117 0.67335 0.0
H1241 H 0.04217 0.29208 0.6802 0.0
H1242 H 0.03577 0.24969 0.64962 0.0
H1243 H 0.06321 0.24862 0.64287 0.0
H1244 H 0.01894 0.29344 0.65301 0.0
H1245 H 0.01136 0.24199 0.69798 0.0
H1246 H 0.02993 0.25063 0.69381 0.0
H1247 H 0.02165 0.23784 0.67657 0.0
C1248 C 0.06256 0.28191 0.66839 0.0
C1249 C 0.06873 0.26981 0.65758 0.0
C1250 C 0.04676 0.28246 0.67228 0.0
C1251 C 0.03693 0.27084 0.66566 0.0
C1252 C 0.04316 0.25861 0.65525 0.0
H1253 H 0.94452 0.24943 0.64146 0.0
H1254 H 0.97199 0.25073 0.64817 0.0
C1255 C 0.05887 0.25808 0.65129 0.0
C1256 C 0.02001 0.27199 0.66811 0.0
H1257 H 0.98862 0.25148 0.68237 0.0
C1258 C 0.01229 0.28444 0.65978 0.0
C1259 C 0.01137 0.26024 0.67694 0.0
C1260 C 0.01901 0.247 0.687 0.0
C1261 C 0.99616 0.28496 0.65898 0.0
C1262 C 0.98752 0.27283 0.66704 0.0
C1263 C 0.99525 0.26075 0.67616 0.0
C1264 C 0.97061 0.27171 0.66451 0.0
C1265 C 0.98851 0.29804 0.64857 0.0
C1266 C 0.9606 0.28288 0.67187 0.0
C1267 C 0.9448 0.28218 0.66803 0.0
C1268 C 0.93876 0.27027 0.6568 0.0
C1269 C 0.94877 0.2588 0.65009 0.0
C1270 C 0.9645 0.25951 0.65394 0.0
H1271 H 0.99687 0.30493 0.64024 0.0
H1272 H 0.97951 0.29364 0.63882 0.0
H1273 H 0.98289 0.30578 0.65895 0.0
H1274 H 0.96504 0.29225 0.68034 0.0
H1275 H 0.9374 0.29116 0.67346 0.0
H1276 H 0.75833 0.06463 0.64049 0.0
H1277 H 0.75708 0.03689 0.64498 0.0
H1278 H 0.71412 0.04176 0.67475 0.0
H1279 H 0.7153 0.06975 0.6704 0.0
H1280 H 0.73642 0.01918 0.69073 0.0
H1281 H 0.72495 0.01152 0.61399 0.0
H1282 H 0.74146 0.02319 0.61916 0.0
H1283 H 0.72264 0.02975 0.62586 0.0
C1284 C 0.74868 0.05988 0.6482 0.0
C1285 C 0.73683 0.06941 0.65492 0.0
C1286 C 0.74798 0.044 0.65072 0.0
C1287 C 0.73539 0.03727 0.65991 0.0
C1288 C 0.7239 0.04675 0.66753 0.0
H1289 H 0.71617 0.93821 0.67203 0.0
H1290 H 0.71475 0.96618 0.67629 0.0
C1291 C 0.7246 0.06273 0.66503 0.0
C1292 C 0.73396 0.0203 0.66043 0.0
H1293 H 0.73157 0.98907 0.63135 0.0
C1294 C 0.73517 0.01256 0.67782 0.0
C1295 C 0.73221 0.01173 0.64355 0.0
C1296 C 0.73009 0.01944 0.62458 0.0
C1297 C 0.73544 0.99639 0.67861 0.0
C1298 C 0.73432 0.98786 0.66161 0.0
C1299 C 0.73255 0.99564 0.64435 0.0
C1300 C 0.7358 0.97089 0.66106 0.0
C1301 C 0.73755 0.98853 0.69746 0.0
C1302 C 0.74812 0.96428 0.6512 0.0
C1303 C 0.74893 0.9484 0.64869 0.0
C1304 C 0.73738 0.93874 0.65592 0.0
C1305 C 0.72528 0.94532 0.66636 0.0
C1306 C 0.72447 0.96129 0.66886 0.0
H1307 H 0.74071 0.99676 0.70884 0.0
H1308 H 0.72666 0.98278 0.70153 0.0
H1309 H 0.7466 0.97957 0.69647 0.0
H1310 H 0.75696 0.97147 0.64504 0.0
H1311 H 0.75844 0.94374 0.64062 0.0
H1312 H 0.56958 0.79105 0.83834 0.0
H1313 H 0.54193 0.79237 0.83153 0.0
H1314 H 0.53458 0.75144 0.86469 0.0
H1315 H 0.56204 0.74994 0.87137 0.0
H1316 H 0.51808 0.75197 0.83001 0.0
H1317 H 0.51013 0.80572 0.87167 0.0
H1318 H 0.52426 0.8062 0.85312 0.0
H1319 H 0.52732 0.79421 0.87345 0.0
C1320 C 0.56208 0.78226 0.84401 0.0
C1321 C 0.56801 0.77045 0.8555 0.0
C1322 C 0.54628 0.78308 0.8402 0.0
C1323 C 0.53617 0.77212 0.84784 0.0
C1324 C 0.54216 0.76004 0.8587 0.0
H1325 H 0.44349 0.74941 0.86924 0.0
H1326 H 0.47092 0.75037 0.86247 0.0
C1327 C 0.55788 0.75922 0.86254 0.0
C1328 C 0.51928 0.77336 0.84525 0.0
H1329 H 0.48798 0.79418 0.85918 0.0
C1330 C 0.5115 0.7613 0.83617 0.0
C1331 C 0.51072 0.78557 0.85323 0.0
C1332 C 0.51845 0.79864 0.86354 0.0
C1333 C 0.49537 0.76088 0.83536 0.0
C1334 C 0.48679 0.7727 0.84416 0.0
C1335 C 0.49458 0.78513 0.85244 0.0
C1336 C 0.46987 0.77163 0.84664 0.0
C1337 C 0.48767 0.74767 0.82531 0.0
C1338 C 0.46009 0.78336 0.84016 0.0
C1339 C 0.4443 0.78287 0.84408 0.0
C1340 C 0.43807 0.77074 0.85477 0.0
C1341 C 0.44787 0.7589 0.86091 0.0
C1342 C 0.46358 0.75937 0.85694 0.0
H1343 H 0.49528 0.74269 0.81426 0.0
H1344 H 0.48509 0.73848 0.83572 0.0
H1345 H 0.47673 0.75132 0.81858 0.0
H1346 H 0.46473 0.793 0.83233 0.0
H1347 H 0.43708 0.79221 0.83924 0.0
H1348 H 0.21608 0.43801 0.83848 0.0
H1349 H 0.21507 0.46569 0.83192 0.0
H1350 H 0.25848 0.4717 0.86046 0.0
H1351 H 0.25966 0.44423 0.86686 0.0
H1352 H 0.21445 0.48861 0.859 0.0
H1353 H 0.2649 0.49665 0.81251 0.0
H1354 H 0.25652 0.478 0.8169 0.0
H1355 H 0.26967 0.48633 0.8337 0.0
C1356 C 0.22554 0.4452 0.84303 0.0
C1357 C 0.23796 0.4389 0.85317 0.0
C1358 C 0.22493 0.46101 0.83931 0.0
C1359 C 0.23681 0.47075 0.84545 0.0
C1360 C 0.24936 0.4644 0.85518 0.0
H1361 H 0.25816 0.56311 0.87035 0.0
H1362 H 0.25691 0.53568 0.86348 0.0
C1363 C 0.24995 0.44866 0.85895 0.0
C1364 C 0.23561 0.48769 0.84328 0.0
H1365 H 0.25579 0.51924 0.82881 0.0
C1366 C 0.2233 0.49532 0.85205 0.0
C1367 C 0.24718 0.49643 0.83421 0.0
C1368 C 0.26023 0.48892 0.82363 0.0
C1369 C 0.22275 0.51144 0.85303 0.0
C1370 C 0.23472 0.52016 0.84473 0.0
C1371 C 0.24665 0.51254 0.83521 0.0
C1372 C 0.23581 0.53705 0.84737 0.0
C1373 C 0.20984 0.51898 0.86385 0.0
C1374 C 0.22454 0.54704 0.84019 0.0
C1375 C 0.22521 0.56282 0.8441 0.0
C1376 C 0.23718 0.56885 0.85525 0.0
C1377 C 0.24873 0.55886 0.86179 0.0
C1378 C 0.24807 0.54316 0.85785 0.0
H1379 H 0.20306 0.51055 0.8722 0.0
H1380 H 0.2144 0.52787 0.87363 0.0
H1381 H 0.20195 0.52472 0.85373 0.0
H1382 H 0.2151 0.5426 0.8318 0.0
H1383 H 0.21616 0.57021 0.83881 0.0
H1384 H 0.43674 0.2144 0.83709 0.0
H1385 H 0.4644 0.21294 0.83048 0.0
H1386 H 0.47139 0.25558 0.86034 0.0
H1387 H 0.44391 0.25723 0.86678 0.0
H1388 H 0.48822 0.25339 0.82626 0.0
H1389 H 0.4959 0.20168 0.87173 0.0
H1390 H 0.482 0.20018 0.85299 0.0
H1391 H 0.47863 0.21314 0.87232 0.0
C1392 C 0.44415 0.22355 0.84205 0.0
C1393 C 0.43812 0.23588 0.85258 0.0
C1394 C 0.45997 0.22265 0.83837 0.0
C1395 C 0.46999 0.23403 0.84519 0.0
C1396 C 0.46389 0.24664 0.855 0.0
H1397 H 0.56273 0.25745 0.86591 0.0
H1398 H 0.5353 0.25629 0.85908 0.0
C1399 C 0.44815 0.24754 0.8587 0.0
C1400 C 0.48691 0.23271 0.8429 0.0
H1401 H 0.51812 0.21251 0.8585 0.0
C1402 C 0.49476 0.24435 0.83311 0.0
C1403 C 0.49542 0.22087 0.85179 0.0
C1404 C 0.48764 0.20829 0.86293 0.0
C1405 C 0.51089 0.24471 0.83243 0.0
C1406 C 0.51941 0.23329 0.84208 0.0
C1407 C 0.51157 0.22125 0.85112 0.0
C1408 C 0.53633 0.23441 0.84458 0.0
C1409 C 0.51867 0.25746 0.8216 0.0
C1410 C 0.54609 0.22241 0.83888 0.0
C1411 C 0.56188 0.22302 0.84284 0.0
C1412 C 0.56812 0.23556 0.85279 0.0
C1413 C 0.55833 0.24765 0.85816 0.0
C1414 C 0.54263 0.24706 0.85414 0.0
H1415 H 0.51111 0.26201 0.81022 0.0
H1416 H 0.52127 0.26706 0.83143 0.0
H1417 H 0.52961 0.25349 0.81516 0.0
H1418 H 0.54145 0.21247 0.83163 0.0
H1419 H 0.56909 0.21348 0.8386 0.0
H1420 H 0.79184 0.43622 0.84079 0.0
H1421 H 0.79304 0.46426 0.83686 0.0
H1422 H 0.74964 0.4688 0.86572 0.0
H1423 H 0.74835 0.44101 0.86977 0.0
H1424 H 0.77034 0.48702 0.82077 0.0
H1425 H 0.78188 0.49379 0.89765 0.0
H1426 H 0.78447 0.47577 0.88537 0.0
H1427 H 0.76555 0.48197 0.89213 0.0
C1428 C 0.78245 0.44319 0.84604 0.0
C1429 C 0.77008 0.43639 0.85577 0.0
C1430 C 0.78316 0.45918 0.84378 0.0
C1431 C 0.77153 0.46858 0.85125 0.0
C1432 C 0.75882 0.46175 0.86007 0.0
H1433 H 0.74863 0.56184 0.87281 0.0
H1434 H 0.75008 0.53416 0.86791 0.0
C1435 C 0.75811 0.44585 0.86234 0.0
C1436 C 0.77294 0.48555 0.85102 0.0
H1437 H 0.77534 0.51641 0.88067 0.0
C1438 C 0.77162 0.49349 0.83379 0.0
C1439 C 0.77471 0.49391 0.86804 0.0
C1440 C 0.77688 0.48596 0.88685 0.0
C1441 C 0.77127 0.50967 0.8333 0.0
C1442 C 0.77245 0.518 0.85045 0.0
C1443 C 0.77432 0.51 0.86755 0.0
C1444 C 0.77095 0.53496 0.85133 0.0
C1445 C 0.76903 0.51773 0.8146 0.0
C1446 C 0.78211 0.54467 0.84337 0.0
C1447 C 0.78131 0.56061 0.84614 0.0
C1448 C 0.76938 0.56705 0.85701 0.0
C1449 C 0.75799 0.55729 0.86441 0.0
C1450 C 0.75879 0.54144 0.86163 0.0
H1451 H 0.76565 0.50964 0.80317 0.0
H1452 H 0.76008 0.52678 0.81587 0.0
H1453 H 0.77993 0.5234 0.81042 0.0
H1454 H 0.79172 0.53989 0.83561 0.0
H1455 H 0.7903 0.56781 0.84033 0.0
H1456 H 0.44432 0.25754 0.14383 0.0
H1457 H 0.47178 0.25609 0.1505 0.0
H1458 H 0.4649 0.21365 0.18081 0.0
H1459 H 0.43725 0.21491 0.17397 0.0
H1460 H 0.48835 0.2543 0.18486 0.0
H1461 H 0.49681 0.20233 0.14005 0.0
H1462 H 0.47945 0.21366 0.13908 0.0
H1463 H 0.48276 0.20089 0.15863 0.0
C1464 C 0.44858 0.24793 0.15204 0.0
C1465 C 0.43859 0.23627 0.15824 0.0
C1466 C 0.46431 0.24714 0.15588 0.0
C1467 C 0.47043 0.23466 0.16591 0.0
C1468 C 0.46044 0.22326 0.17276 0.0
H1469 H 0.56974 0.21528 0.17345 0.0
H1470 H 0.5421 0.21398 0.1803 0.0
C1471 C 0.44464 0.22405 0.16894 0.0
C1472 C 0.48734 0.2335 0.16841 0.0
H1473 H 0.51884 0.21353 0.15329 0.0
C1474 C 0.49502 0.24528 0.17816 0.0
C1475 C 0.49602 0.22169 0.15973 0.0
C1476 C 0.48842 0.20895 0.14866 0.0
C1477 C 0.51114 0.24583 0.17898 0.0
C1478 C 0.51983 0.23444 0.16951 0.0
C1479 C 0.51216 0.22225 0.16053 0.0
C1480 C 0.53674 0.23576 0.16709 0.0
C1481 C 0.51872 0.25873 0.18974 0.0
C1482 C 0.5429 0.24842 0.15743 0.0
C1483 C 0.5586 0.24918 0.15347 0.0
C1484 C 0.56853 0.23725 0.15902 0.0
C1485 C 0.56242 0.2247 0.16907 0.0
C1486 C 0.54664 0.22392 0.17297 0.0
H1487 H 0.51107 0.26326 0.20103 0.0
H1488 H 0.52969 0.25493 0.19629 0.0
H1489 H 0.52125 0.2683 0.17984 0.0
H1490 H 0.53546 0.25752 0.15236 0.0
H1491 H 0.56289 0.25898 0.14564 0.0
H1492 H 0.74942 0.56351 0.14179 0.0
H1493 H 0.75058 0.53612 0.14873 0.0
H1494 H 0.79346 0.54265 0.17829 0.0
H1495 H 0.79245 0.57026 0.17124 0.0
H1496 H 0.79432 0.51914 0.15138 0.0
H1497 H 0.74353 0.51225 0.19768 0.0
H1498 H 0.7391 0.52234 0.1762 0.0
H1499 H 0.75219 0.53073 0.19302 0.0
C1500 C 0.75901 0.55921 0.15001 0.0
C1501 C 0.77084 0.5691 0.15598 0.0
C1502 C 0.7596 0.54352 0.15408 0.0
C1503 C 0.77199 0.53735 0.16428 0.0
C1504 C 0.78373 0.5472 0.17054 0.0
H1505 H 0.79203 0.43788 0.17361 0.0
H1506 H 0.7934 0.4656 0.17978 0.0
C1507 C 0.78312 0.56297 0.16653 0.0
C1508 C 0.77311 0.52046 0.16697 0.0
H1509 H 0.75272 0.48933 0.18229 0.0
C1510 C 0.78541 0.5126 0.15848 0.0
C1511 C 0.76147 0.51197 0.17624 0.0
C1512 C 0.74841 0.51977 0.18647 0.0
C1513 C 0.78587 0.49646 0.15798 0.0
C1514 C 0.77383 0.48797 0.16648 0.0
C1515 C 0.76192 0.49584 0.17573 0.0
C1516 C 0.77261 0.47104 0.16431 0.0
C1517 C 0.79875 0.48865 0.1474 0.0
C1518 C 0.76021 0.46484 0.15418 0.0
C1519 C 0.75936 0.44907 0.15074 0.0
C1520 C 0.77087 0.4391 0.15743 0.0
C1521 C 0.78301 0.44525 0.16821 0.0
C1522 C 0.78386 0.46109 0.17164 0.0
H1523 H 0.80554 0.49688 0.13876 0.0
H1524 H 0.80664 0.48313 0.15771 0.0
H1525 H 0.79417 0.47956 0.13793 0.0
H1526 H 0.75138 0.47228 0.14845 0.0
H1527 H 0.74981 0.44475 0.14246 0.0
H1528 H 0.44487 0.74896 0.14181 0.0
H1529 H 0.47233 0.75031 0.14838 0.0
H1530 H 0.46573 0.79294 0.17838 0.0
H1531 H 0.43805 0.79174 0.17169 0.0
H1532 H 0.48893 0.79422 0.15124 0.0
H1533 H 0.49685 0.74314 0.19675 0.0
H1534 H 0.48658 0.73873 0.17539 0.0
H1535 H 0.47822 0.75161 0.19246 0.0
C1536 C 0.44918 0.75853 0.15005 0.0
C1537 C 0.43924 0.77024 0.15624 0.0
C1538 C 0.4649 0.75923 0.15391 0.0
C1539 C 0.47107 0.7716 0.16412 0.0
C1540 C 0.46118 0.78321 0.17061 0.0
H1541 H 0.57059 0.79217 0.17195 0.0
H1542 H 0.54292 0.79331 0.17869 0.0
C1543 C 0.44537 0.7825 0.16681 0.0
C1544 C 0.48799 0.77286 0.16654 0.0
H1545 H 0.51951 0.75258 0.18094 0.0
C1546 C 0.49563 0.7853 0.15808 0.0
C1547 C 0.49671 0.76121 0.17548 0.0
C1548 C 0.48916 0.748 0.1857 0.0
C1549 C 0.51176 0.78589 0.15727 0.0
C1550 C 0.52047 0.77384 0.1654 0.0
C1551 C 0.51283 0.76179 0.17465 0.0
C1552 C 0.53738 0.77276 0.16283 0.0
C1553 C 0.51934 0.79894 0.14675 0.0
C1554 C 0.5435 0.76058 0.15226 0.0
C1555 C 0.55923 0.75986 0.14847 0.0
C1556 C 0.56924 0.7713 0.15526 0.0
C1557 C 0.56318 0.78322 0.16646 0.0
C1558 C 0.54737 0.78394 0.17023 0.0
H1559 H 0.51093 0.80582 0.13847 0.0
H1560 H 0.52503 0.8067 0.15706 0.0
H1561 H 0.52828 0.79452 0.13694 0.0
H1562 H 0.53601 0.75181 0.14646 0.0
H1563 H 0.56349 0.75048 0.13987 0.0
H1564 H 0.2589 0.44378 0.1452 0.0
H1565 H 0.25761 0.47123 0.15167 0.0
H1566 H 0.21418 0.465 0.18004 0.0
H1567 H 0.2153 0.43733 0.1734 0.0
H1568 H 0.21357 0.48805 0.15305 0.0
H1569 H 0.26389 0.49597 0.19984 0.0
H1570 H 0.26875 0.48569 0.17866 0.0
H1571 H 0.25552 0.47733 0.19534 0.0
C1572 C 0.24916 0.44816 0.15308 0.0
C1573 C 0.2372 0.43834 0.15879 0.0
C1574 C 0.2485 0.46388 0.15689 0.0
C1575 C 0.23592 0.47016 0.16661 0.0
C1576 C 0.22407 0.46038 0.17267 0.0
H1577 H 0.21593 0.56982 0.1731 0.0
H1578 H 0.21457 0.54224 0.18022 0.0
C1579 C 0.22474 0.44457 0.16889 0.0
C1580 C 0.2347 0.48709 0.16887 0.0
H1581 H 0.25494 0.51858 0.1834 0.0
C1582 C 0.22242 0.49474 0.16004 0.0
C1583 C 0.24626 0.4958 0.17801 0.0
C1584 C 0.25926 0.48826 0.18867 0.0
C1585 C 0.22192 0.51086 0.15905 0.0
C1586 C 0.23391 0.51955 0.16736 0.0
C1587 C 0.24579 0.51191 0.17698 0.0
C1588 C 0.23514 0.53641 0.16457 0.0
C1589 C 0.20906 0.51845 0.14818 0.0
C1590 C 0.2474 0.54232 0.15397 0.0
C1591 C 0.24824 0.558 0.14994 0.0
C1592 C 0.23686 0.56815 0.15653 0.0
C1593 C 0.22486 0.5623 0.16777 0.0
C1594 C 0.22401 0.54654 0.17176 0.0
H1595 H 0.20216 0.51002 0.13996 0.0
H1596 H 0.20127 0.52438 0.15824 0.0
H1597 H 0.2137 0.52719 0.13826 0.0
H1598 H 0.25613 0.53472 0.14833 0.0
H1599 H 0.25768 0.5621 0.14132 0.0
H1600 H 0.14138 0.31028 0.42566 0.0
H1601 H 0.14236 0.31364 0.46017 0.0
H1602 H 0.10261 0.28451 0.46622 0.0
H1603 H 0.10158 0.28098 0.43199 0.0
H1604 H 0.11944 0.32387 0.48809 0.0
H1605 H 0.13701 0.26309 0.49738 0.0
H1606 H 0.13804 0.27283 0.47484 0.0
H1607 H 0.11999 0.26547 0.4833 0.0
C1608 C 0.13273 0.30474 0.43432 0.0
C1609 C 0.12151 0.2952 0.42605 0.0
C1610 C 0.13332 0.30668 0.45403 0.0
C1611 C 0.12272 0.2991 0.46574 0.0
C1612 C 0.11106 0.29025 0.45744 0.0
H1613 H 0.10072 0.28158 0.58063 0.0
H1614 H 0.10199 0.28563 0.54654 0.0
C1615 C 0.11048 0.28827 0.43784 0.0
C1616 C 0.12418 0.29963 0.48666 0.0
H1617 H 0.12888 0.27635 0.52512 0.0
C1618 C 0.12169 0.31355 0.49623 0.0
C1619 C 0.12728 0.28617 0.4972 0.0
C1620 C 0.13089 0.27106 0.48768 0.0
C1621 C 0.12143 0.31415 0.51617 0.0
C1622 C 0.12384 0.30052 0.52664 0.0
C1623 C 0.12691 0.28676 0.51703 0.0
C1624 C 0.12232 0.29989 0.54755 0.0
C1625 C 0.11798 0.32917 0.52592 0.0
C1626 C 0.13321 0.3068 0.5595 0.0
C1627 C 0.13254 0.30449 0.57915 0.0
C1628 C 0.12101 0.29515 0.5871 0.0
C1629 C 0.10982 0.28877 0.57506 0.0
C1630 C 0.1105 0.29108 0.55553 0.0
H1631 H 0.11437 0.33823 0.51577 0.0
H1632 H 0.10876 0.32757 0.53661 0.0
H1633 H 0.12841 0.3332 0.53348 0.0
H1634 H 0.14254 0.31349 0.55359 0.0
H1635 H 0.14137 0.30954 0.588 0.0
H1636 H 0.69514 0.14023 0.58688 0.0
H1637 H 0.68987 0.14037 0.55274 0.0
H1638 H 0.72038 0.10181 0.54533 0.0
H1639 H 0.72559 0.10147 0.57923 0.0
H1640 H 0.71176 0.14479 0.5245 0.0
H1641 H 0.68286 0.08878 0.51468 0.0
H1642 H 0.68482 0.09778 0.53761 0.0
H1643 H 0.70053 0.08706 0.5276 0.0
C1644 C 0.70052 0.13161 0.57802 0.0
C1645 C 0.71079 0.12084 0.58582 0.0
C1646 C 0.69752 0.13174 0.55852 0.0
C1647 C 0.70456 0.12097 0.54652 0.0
C1648 C 0.71455 0.11002 0.55434 0.0
H1649 H 0.72762 0.10291 0.43266 0.0
H1650 H 0.72214 0.1034 0.46651 0.0
C1651 C 0.7176 0.10992 0.57376 0.0
C1652 C 0.70262 0.12184 0.52565 0.0
H1653 H 0.69426 0.09998 0.48683 0.0
C1654 C 0.70764 0.13513 0.51624 0.0
C1655 C 0.69723 0.10922 0.51492 0.0
C1656 C 0.69091 0.09497 0.52423 0.0
C1657 C 0.70831 0.13578 0.49637 0.0
C1658 C 0.70361 0.12287 0.48565 0.0
C1659 C 0.69792 0.10985 0.49506 0.0
C1660 C 0.70585 0.12212 0.46484 0.0
C1661 C 0.71487 0.14993 0.48705 0.0
C1662 C 0.69823 0.13227 0.45255 0.0
C1663 C 0.70135 0.13204 0.43308 0.0
C1664 C 0.71214 0.12163 0.42558 0.0
C1665 C 0.71931 0.11114 0.43791 0.0
C1666 C 0.71617 0.11137 0.45729 0.0
H1667 H 0.7205 0.15771 0.49742 0.0
H1668 H 0.72341 0.14671 0.47606 0.0
H1669 H 0.70548 0.15638 0.48001 0.0
H1670 H 0.69002 0.14049 0.45805 0.0
H1671 H 0.69557 0.14023 0.42399 0.0
H1672 H 0.90577 0.72823 0.43137 0.0
H1673 H 0.90481 0.7247 0.46559 0.0
H1674 H 0.86663 0.69355 0.45931 0.0
H1675 H 0.86756 0.69692 0.42484 0.0
H1676 H 0.87852 0.73232 0.48723 0.0
H1677 H 0.89551 0.6712 0.49725 0.0
H1678 H 0.89978 0.6817 0.47581 0.0
H1679 H 0.88061 0.67501 0.4802 0.0
C1680 C 0.89729 0.72044 0.43716 0.0
C1681 C 0.88669 0.71291 0.42531 0.0
C1682 C 0.89677 0.71843 0.45676 0.0
C1683 C 0.88571 0.70881 0.465 0.0
C1684 C 0.87542 0.70085 0.45323 0.0
H1685 H 0.86594 0.69903 0.58685 0.0
H1686 H 0.8651 0.69556 0.55233 0.0
C1687 C 0.87593 0.70284 0.43353 0.0
C1688 C 0.88427 0.70829 0.48593 0.0
H1689 H 0.88897 0.68526 0.52474 0.0
C1690 C 0.88075 0.72201 0.49542 0.0
C1691 C 0.88701 0.69478 0.49656 0.0
C1692 C 0.89104 0.67982 0.48703 0.0
C1693 C 0.88019 0.72269 0.51523 0.0
C1694 C 0.88351 0.70935 0.52591 0.0
C1695 C 0.88651 0.69547 0.51648 0.0
C1696 C 0.8848 0.71003 0.54683 0.0
C1697 C 0.87617 0.73773 0.52462 0.0
C1698 C 0.89642 0.71891 0.55514 0.0
C1699 C 0.89693 0.72093 0.57474 0.0
C1700 C 0.88585 0.71405 0.58651 0.0
C1701 C 0.87462 0.70453 0.57821 0.0
C1702 C 0.87411 0.70253 0.55851 0.0
H1703 H 0.87011 0.74561 0.51475 0.0
H1704 H 0.8688 0.73584 0.53725 0.0
H1705 H 0.88689 0.74349 0.52935 0.0
H1706 H 0.9049 0.72461 0.54639 0.0
H1707 H 0.90584 0.72821 0.58059 0.0
H1708 H 0.28082 0.90592 0.57856 0.0
H1709 H 0.28595 0.90506 0.54463 0.0
H1710 H 0.31811 0.86803 0.5532 0.0
H1711 H 0.31294 0.86868 0.58734 0.0
H1712 H 0.31379 0.90803 0.52368 0.0
H1713 H 0.28678 0.85045 0.51486 0.0
H1714 H 0.28418 0.86183 0.53598 0.0
H1715 H 0.30199 0.85194 0.53202 0.0
C1716 C 0.28908 0.89763 0.57332 0.0
C1717 C 0.29636 0.88727 0.5857 0.0
C1718 C 0.29202 0.89719 0.55389 0.0
C1719 C 0.30224 0.88634 0.54636 0.0
C1720 C 0.30999 0.87633 0.5587 0.0
H1721 H 0.31102 0.86641 0.42451 0.0
H1722 H 0.31662 0.86657 0.45857 0.0
C1723 C 0.30708 0.87679 0.57821 0.0
C1724 C 0.30418 0.88529 0.52552 0.0
H1725 H 0.29519 0.86294 0.48732 0.0
C1726 C 0.3099 0.8981 0.51573 0.0
C1727 C 0.29916 0.8723 0.51518 0.0
C1728 C 0.29258 0.85835 0.52495 0.0
C1729 C 0.31032 0.89844 0.49584 0.0
C1730 C 0.30461 0.88575 0.48549 0.0
C1731 C 0.29956 0.87266 0.49528 0.0
C1732 C 0.30241 0.88636 0.46464 0.0
C1733 C 0.31673 0.91248 0.48611 0.0
C1734 C 0.29257 0.89741 0.45676 0.0
C1735 C 0.28933 0.89734 0.43739 0.0
C1736 C 0.2958 0.88614 0.42543 0.0
C1737 C 0.3059 0.87523 0.43329 0.0
C1738 C 0.30909 0.87528 0.45275 0.0
H1739 H 0.32503 0.91864 0.49535 0.0
H1740 H 0.32255 0.9094 0.47265 0.0
H1741 H 0.30718 0.9205 0.48284 0.0
H1742 H 0.287 0.90585 0.4657 0.0
H1743 H 0.28148 0.9059 0.43188 0.0
H1744 H 0.10222 0.72676 0.43239 0.0
H1745 H 0.10326 0.7212 0.4662 0.0
H1746 H 0.14143 0.69052 0.45705 0.0
H1747 H 0.14064 0.69617 0.42303 0.0
H1748 H 0.10102 0.69325 0.48643 0.0
H1749 H 0.15796 0.72138 0.49634 0.0
H1750 H 0.14668 0.72395 0.47513 0.0
H1751 H 0.15699 0.70635 0.47892 0.0
C1752 C 0.11081 0.71876 0.43748 0.0
C1753 C 0.12144 0.71202 0.42496 0.0
C1754 C 0.11135 0.71556 0.45684 0.0
C1755 C 0.12255 0.70563 0.46418 0.0
C1756 C 0.13286 0.69843 0.45171 0.0
H1757 H 0.14193 0.6953 0.58604 0.0
H1758 H 0.142 0.69006 0.5519 0.0
C1759 C 0.13232 0.70161 0.43226 0.0
C1760 C 0.12358 0.70335 0.48498 0.0
H1761 H 0.14557 0.71218 0.52357 0.0
C1762 C 0.11084 0.69722 0.49454 0.0
C1763 C 0.13643 0.70847 0.49555 0.0
C1764 C 0.15028 0.71551 0.48606 0.0
C1765 C 0.1104 0.69649 0.51441 0.0
C1766 C 0.12293 0.70229 0.52499 0.0
C1767 C 0.13598 0.70775 0.51542 0.0
C1768 C 0.12216 0.70421 0.54586 0.0
C1769 C 0.09643 0.68971 0.52389 0.0
C1770 C 0.11098 0.71388 0.55378 0.0
C1771 C 0.11093 0.71693 0.57319 0.0
C1772 C 0.12211 0.71042 0.58516 0.0
C1773 C 0.13312 0.70045 0.57726 0.0
C1774 C 0.1332 0.69746 0.55775 0.0
H1775 H 0.09041 0.6815 0.5144 0.0
H1776 H 0.09957 0.68369 0.53721 0.0
H1777 H 0.08827 0.69908 0.5274 0.0
H1778 H 0.10256 0.71949 0.54485 0.0
H1779 H 0.1023 0.72469 0.57874 0.0
H1780 H 0.31148 0.13816 0.42391 0.0
H1781 H 0.31689 0.13754 0.458 0.0
H1782 H 0.28431 0.10064 0.46484 0.0
H1783 H 0.27899 0.10103 0.43099 0.0
H1784 H 0.29595 0.14285 0.48656 0.0
H1785 H 0.32086 0.0848 0.49477 0.0
H1786 H 0.31913 0.09413 0.47202 0.0
H1787 H 0.30289 0.08442 0.48233 0.0
C1788 C 0.30565 0.12975 0.43263 0.0
C1789 C 0.2948 0.11964 0.42467 0.0
C1790 C 0.30874 0.12943 0.45211 0.0
C1791 C 0.30119 0.11888 0.46393 0.0
C1792 C 0.29056 0.10863 0.45596 0.0
H1793 H 0.2789 0.10229 0.57896 0.0
H1794 H 0.28339 0.10224 0.54483 0.0
C1795 C 0.28744 0.10896 0.43657 0.0
C1796 C 0.30335 0.1193 0.48479 0.0
H1797 H 0.31068 0.09644 0.52308 0.0
C1798 C 0.29946 0.1328 0.49455 0.0
C1799 C 0.30794 0.10618 0.4952 0.0
C1800 C 0.31309 0.09161 0.48552 0.0
C1801 C 0.29919 0.13328 0.51443 0.0
C1802 C 0.30312 0.11994 0.52482 0.0
C1803 C 0.30761 0.10662 0.51508 0.0
C1804 C 0.30148 0.11926 0.54572 0.0
C1805 C 0.29394 0.14779 0.52417 0.0
C1806 C 0.31045 0.12857 0.55761 0.0
C1807 C 0.30792 0.12863 0.5772 0.0
C1808 C 0.29637 0.11937 0.58523 0.0
C1809 C 0.28783 0.10964 0.57329 0.0
C1810 C 0.29039 0.10956 0.55376 0.0
H1811 H 0.28871 0.15609 0.5141 0.0
H1812 H 0.28541 0.14511 0.5354 0.0
H1813 H 0.30394 0.15343 0.53099 0.0
H1814 H 0.31923 0.13597 0.55171 0.0
H1815 H 0.31475 0.13622 0.58597 0.0
H1816 H 0.86876 0.31153 0.42463 0.0
H1817 H 0.86883 0.31697 0.45872 0.0
H1818 H 0.90738 0.28642 0.46606 0.0
H1819 H 0.90752 0.28105 0.43221 0.0
H1820 H 0.8645 0.29543 0.48722 0.0
H1821 H 0.92081 0.32398 0.4962 0.0
H1822 H 0.91168 0.32186 0.47337 0.0
H1823 H 0.92235 0.30618 0.48354 0.0
C1824 C 0.87741 0.30617 0.43346 0.0
C1825 C 0.88814 0.29585 0.42565 0.0
C1826 C 0.87742 0.30927 0.45294 0.0
C1827 C 0.88825 0.30228 0.4649 0.0
C1828 C 0.89913 0.29223 0.45707 0.0
H1829 H 0.90652 0.27989 0.57899 0.0
H1830 H 0.90604 0.28514 0.54508 0.0
C1831 C 0.89911 0.28908 0.43768 0.0
C1832 C 0.88753 0.30437 0.48576 0.0
H1833 H 0.90969 0.31287 0.5243 0.0
C1834 C 0.87425 0.29954 0.49534 0.0
C1835 C 0.90027 0.30975 0.49632 0.0
C1836 C 0.91452 0.31588 0.48681 0.0
C1837 C 0.87371 0.29905 0.51523 0.0
C1838 C 0.88673 0.30375 0.52577 0.0
C1839 C 0.89975 0.30923 0.51619 0.0
C1840 C 0.88756 0.3017 0.54662 0.0
C1841 C 0.85955 0.29271 0.52476 0.0
C1842 C 0.87755 0.30957 0.55885 0.0
C1843 C 0.87778 0.30658 0.57835 0.0
C1844 C 0.88803 0.29568 0.58594 0.0
C1845 C 0.8984 0.28828 0.57367 0.0
C1846 C 0.89818 0.29129 0.55425 0.0
H1847 H 0.85164 0.28708 0.51453 0.0
H1848 H 0.86276 0.28423 0.53583 0.0
H1849 H 0.85322 0.30222 0.53174 0.0
H1850 H 0.86943 0.31784 0.55327 0.0
H1851 H 0.86968 0.31253 0.58739 0.0
H1852 H 0.72876 0.90473 0.58097 0.0
H1853 H 0.72473 0.90396 0.54684 0.0
H1854 H 0.69473 0.8649 0.55323 0.0
H1855 H 0.69862 0.8656 0.58766 0.0
H1856 H 0.7325 0.87761 0.5245 0.0
H1857 H 0.67104 0.89431 0.51655 0.0
H1858 H 0.68201 0.89875 0.53759 0.0
H1859 H 0.67551 0.87949 0.53347 0.0
C1860 C 0.72113 0.89606 0.57524 0.0
C1861 C 0.71407 0.88517 0.58711 0.0
C1862 C 0.71884 0.89566 0.55568 0.0
C1863 C 0.70938 0.88443 0.54751 0.0
C1864 C 0.70191 0.8738 0.55929 0.0
H1865 H 0.69713 0.86681 0.42557 0.0
H1866 H 0.69413 0.86567 0.46012 0.0
C1867 C 0.7042 0.87418 0.57895 0.0
C1868 C 0.70848 0.88328 0.52658 0.0
H1869 H 0.68477 0.88871 0.48853 0.0
C1870 C 0.72204 0.87995 0.51665 0.0
C1871 C 0.69478 0.88619 0.51639 0.0
C1872 C 0.67998 0.88998 0.52644 0.0
C1873 C 0.72238 0.87978 0.49681 0.0
C1874 C 0.70885 0.88332 0.48657 0.0
C1875 C 0.69513 0.8861 0.49645 0.0
C1876 C 0.70915 0.88494 0.46566 0.0
C1877 C 0.73726 0.87589 0.48694 0.0
C1878 C 0.71815 0.89647 0.45736 0.0
C1879 C 0.71992 0.89715 0.43773 0.0
C1880 C 0.71264 0.88634 0.42593 0.0
C1881 C 0.70293 0.87528 0.43423 0.0
C1882 C 0.7012 0.8746 0.45396 0.0
H1883 H 0.74523 0.86952 0.49641 0.0
H1884 H 0.73515 0.86888 0.47407 0.0
H1885 H 0.74305 0.88668 0.48255 0.0
H1886 H 0.72417 0.90472 0.46613 0.0
H1887 H 0.72734 0.90592 0.43186 0.0
H1888 H 0.60219 0.78114 0.07828 0.0
H1889 H 0.60294 0.78636 0.04436 0.0
H1890 H 0.64138 0.81688 0.05254 0.0
H1891 H 0.64086 0.81161 0.08666 0.0
H1892 H 0.60087 0.81438 0.02368 0.0
H1893 H 0.65723 0.78513 0.01365 0.0
H1894 H 0.646 0.78287 0.03495 0.0
H1895 H 0.65655 0.80028 0.03093 0.0
C1896 C 0.61077 0.78905 0.07296 0.0
C1897 C 0.62156 0.79585 0.08523 0.0
C1898 C 0.61115 0.79204 0.05353 0.0
C1899 C 0.62234 0.80183 0.04589 0.0
C1900 C 0.6328 0.80909 0.05812 0.0
H1901 H 0.64103 0.81013 0.92366 0.0
H1902 H 0.64153 0.81576 0.95771 0.0
C1903 C 0.63242 0.80613 0.07763 0.0
C1904 C 0.62323 0.80385 0.02505 0.0
H1905 H 0.64472 0.79413 0.98639 0.0
C1906 C 0.61053 0.81012 0.01552 0.0
C1907 C 0.63589 0.79836 0.01444 0.0
C1908 C 0.64968 0.79118 0.02392 0.0
C1909 C 0.60996 0.81065 0.99565 0.0
C1910 C 0.62228 0.80447 0.98503 0.0
C1911 C 0.63529 0.79885 0.99456 0.0
C1912 C 0.62129 0.80232 0.9642 0.0
C1913 C 0.59606 0.81764 0.98622 0.0
C1914 C 0.60976 0.79291 0.95655 0.0
C1915 C 0.60946 0.78965 0.9372 0.0
C1916 C 0.62074 0.79566 0.925 0.0
C1917 C 0.63212 0.80536 0.93262 0.0
C1918 C 0.63245 0.80857 0.95207 0.0
H1919 H 0.59036 0.82615 0.9956 0.0
H1920 H 0.5992 0.82337 0.97271 0.0
H1921 H 0.58761 0.80844 0.98306 0.0
H1922 H 0.60124 0.78767 0.96567 0.0
H1923 H 0.60054 0.78211 0.93188 0.0
H1924 H 0.1951 0.63853 0.92442 0.0
H1925 H 0.18986 0.63906 0.95854 0.0
H1926 H 0.2217 0.60174 0.96695 0.0
H1927 H 0.2269 0.601 0.93302 0.0
H1928 H 0.19378 0.59896 0.98787 0.0
H1929 H 0.22137 0.65623 0.99696 0.0
H1930 H 0.20617 0.65493 0.97978 0.0
H1931 H 0.22389 0.64488 0.9758 0.0
C1932 C 0.20086 0.63033 0.9335 0.0
C1933 C 0.21153 0.61981 0.92597 0.0
C1934 C 0.19792 0.63071 0.95301 0.0
C1935 C 0.20557 0.62059 0.9653 0.0
C1936 C 0.21572 0.60969 0.95772 0.0
H1937 H 0.22626 0.60035 0.07954 0.0
H1938 H 0.22064 0.6006 0.04576 0.0
C1939 C 0.2187 0.60931 0.9383 0.0
C1940 C 0.20363 0.6216 0.98614 0.0
H1941 H 0.21289 0.64371 0.02445 0.0
C1942 C 0.19778 0.60881 0.99587 0.0
C1943 C 0.20879 0.6345 0.99654 0.0
C1944 C 0.21551 0.64841 0.98684 0.0
C1945 C 0.19736 0.60841 0.01575 0.0
C1946 C 0.20323 0.621 0.02617 0.0
C1947 C 0.20841 0.63407 0.01643 0.0
C1948 C 0.20547 0.62028 0.047 0.0
C1949 C 0.19081 0.59441 0.02541 0.0
C1950 C 0.19898 0.6314 0.05899 0.0
C1951 C 0.20224 0.63134 0.07843 0.0
C1952 C 0.21222 0.62027 0.08618 0.0
C1953 C 0.2185 0.60903 0.07412 0.0
C1954 C 0.2152 0.60908 0.05477 0.0
H1955 H 0.18241 0.5884 0.01617 0.0
H1956 H 0.20027 0.58625 0.02859 0.0
H1957 H 0.18506 0.5975 0.03892 0.0
H1958 H 0.19155 0.64024 0.05325 0.0
H1959 H 0.19725 0.6402 0.08728 0.0
H1960 H 0.3688 0.19696 0.08632 0.0
H1961 H 0.36848 0.19331 0.05187 0.0
H1962 H 0.40643 0.22482 0.04623 0.0
H1963 H 0.4068 0.22862 0.08042 0.0
H1964 H 0.38029 0.23191 0.02378 0.0
H1965 H 0.39841 0.17099 0.01506 0.0
H1966 H 0.38323 0.17473 0.03174 0.0
H1967 H 0.40223 0.18178 0.03641 0.0
C1968 C 0.37724 0.20292 0.07778 0.0
C1969 C 0.38777 0.21315 0.08617 0.0
C1970 C 0.37708 0.20076 0.05809 0.0
C1971 C 0.38749 0.20873 0.04651 0.0
C1972 C 0.39831 0.21854 0.05491 0.0
H1973 H 0.40735 0.22777 0.93036 0.0
H1974 H 0.40684 0.22445 0.96464 0.0
C1975 C 0.39848 0.2207 0.0745 0.0
C1976 C 0.38642 0.208 0.02556 0.0
H1977 H 0.39193 0.18465 0.98722 0.0
C1978 C 0.38279 0.22156 0.0158 0.0
C1979 C 0.38952 0.19444 0.0152 0.0
C1980 C 0.39367 0.17964 0.02505 0.0
C1981 C 0.38243 0.22202 0.99597 0.0
C1982 C 0.38609 0.20863 0.98556 0.0
C1983 C 0.38923 0.19491 0.99527 0.0
C1984 C 0.38734 0.20904 0.96462 0.0
C1985 C 0.37816 0.23689 0.98629 0.0
C1986 C 0.37695 0.20094 0.95315 0.0
C1987 C 0.37724 0.20276 0.93342 0.0
C1988 C 0.38796 0.2127 0.92488 0.0
C1989 C 0.39883 0.22015 0.93643 0.0
C1990 C 0.39855 0.2183 0.95606 0.0
H1991 H 0.3718 0.24471 0.99595 0.0
H1992 H 0.3888 0.24286 0.9817 0.0
H1993 H 0.37099 0.23472 0.97356 0.0
H1994 H 0.36826 0.19367 0.95951 0.0
H1995 H 0.36873 0.19682 0.92496 0.0
H1996 H 0.80965 0.36748 0.08765 0.0
H1997 H 0.81321 0.3664 0.05321 0.0
H1998 H 0.78221 0.40464 0.04644 0.0
H1999 H 0.77849 0.40577 0.08061 0.0
H2000 H 0.77472 0.37803 0.02488 0.0
H2001 H 0.83583 0.39536 0.01539 0.0
H2002 H 0.83191 0.38064 0.03262 0.0
H2003 H 0.82511 0.39982 0.03661 0.0
C2004 C 0.80379 0.37582 0.07885 0.0
C2005 C 0.79371 0.38666 0.08693 0.0
C2006 C 0.80589 0.37522 0.05918 0.0
C2007 C 0.79804 0.3855 0.04729 0.0
C2008 C 0.7884 0.39662 0.05536 0.0
H2009 H 0.77887 0.40424 0.93112 0.0
H2010 H 0.78226 0.40381 0.96539 0.0
C2011 C 0.78629 0.39723 0.07494 0.0
C2012 C 0.7987 0.38399 0.02638 0.0
H2013 H 0.82195 0.3887 0.9878 0.0
C2014 C 0.78507 0.3803 0.01679 0.0
C2015 C 0.81225 0.38679 0.01588 0.0
C2016 C 0.82713 0.39097 0.02555 0.0
C2017 C 0.78452 0.37964 0.99697 0.0
C2018 C 0.7979 0.38303 0.9864 0.0
C2019 C 0.8117 0.38619 0.99596 0.0
C2020 C 0.79738 0.3841 0.96546 0.0
C2021 C 0.76957 0.37537 0.98747 0.0
C2022 C 0.80528 0.37352 0.95406 0.0
C2023 C 0.80341 0.37375 0.93433 0.0
C2024 C 0.79363 0.38459 0.92573 0.0
C2025 C 0.78636 0.39561 0.93723 0.0
C2026 C 0.78825 0.39539 0.95685 0.0
H2027 H 0.76174 0.36921 0.9973 0.0
H2028 H 0.76367 0.38599 0.9827 0.0
H2029 H 0.77162 0.36802 0.97487 0.0
H2030 H 0.81245 0.36477 0.96046 0.0
H2031 H 0.80922 0.36512 0.9259 0.0
H2032 H 0.63885 0.19874 0.08679 0.0
H2033 H 0.63921 0.19525 0.05229 0.0
H2034 H 0.60026 0.22553 0.04693 0.0
H2035 H 0.59983 0.22917 0.08116 0.0
H2036 H 0.6154 0.1856 0.02503 0.0
H2037 H 0.6349 0.24572 0.01484 0.0
H2038 H 0.63599 0.23604 0.03741 0.0
H2039 H 0.61804 0.24389 0.02933 0.0
C2040 C 0.63024 0.20451 0.07829 0.0
C2041 C 0.61942 0.21439 0.08675 0.0
C2042 C 0.63047 0.20249 0.05859 0.0
C2043 C 0.61993 0.21034 0.04707 0.0
C2044 C 0.60866 0.21957 0.05555 0.0
H2045 H 0.59979 0.22827 0.93099 0.0
H2046 H 0.60031 0.22495 0.96526 0.0
C2047 C 0.60843 0.22161 0.07516 0.0
C2048 C 0.62105 0.20966 0.02613 0.0
H2049 H 0.62639 0.23245 0.98737 0.0
C2050 C 0.61796 0.19577 0.01674 0.0
C2051 C 0.62451 0.22293 0.01541 0.0
C2052 C 0.6287 0.23797 0.02473 0.0
C2053 C 0.61754 0.19502 0.99682 0.0
C2054 C 0.62046 0.20846 0.98615 0.0
C2055 C 0.62403 0.22219 0.99559 0.0
C2056 C 0.61927 0.20888 0.96519 0.0
C2057 C 0.61345 0.18005 0.98734 0.0
C2058 C 0.62964 0.20076 0.9537 0.0
C2059 C 0.62938 0.20264 0.93398 0.0
C2060 C 0.6188 0.21275 0.92545 0.0
C2061 C 0.60813 0.22044 0.93703 0.0
C2062 C 0.6084 0.21856 0.95665 0.0
H2063 H 0.60876 0.17155 0.99755 0.0
H2064 H 0.60486 0.18197 0.97594 0.0
H2065 H 0.6239 0.17508 0.98076 0.0
H2066 H 0.63828 0.19342 0.96002 0.0
H2067 H 0.6378 0.19658 0.9255 0.0
H2068 H 0.81153 0.64 0.08666 0.0
H2069 H 0.81678 0.64046 0.05254 0.0
H2070 H 0.78586 0.60232 0.04444 0.0
H2071 H 0.78067 0.60165 0.07836 0.0
H2072 H 0.8138 0.59997 0.02368 0.0
H2073 H 0.78514 0.65662 0.01371 0.0
H2074 H 0.80034 0.6558 0.03095 0.0
H2075 H 0.78282 0.64543 0.03503 0.0
C2076 C 0.80596 0.63162 0.07764 0.0
C2077 C 0.79558 0.62087 0.08527 0.0
C2078 C 0.80891 0.63195 0.05813 0.0
C2079 C 0.80153 0.62157 0.04593 0.0
C2080 C 0.79164 0.61048 0.05359 0.0
H2081 H 0.78142 0.60009 0.93193 0.0
H2082 H 0.787 0.60071 0.96572 0.0
C2083 C 0.78866 0.61015 0.07302 0.0
C2084 C 0.80352 0.62244 0.02508 0.0
H2085 H 0.79401 0.64406 0.98644 0.0
C2086 C 0.80964 0.60969 0.01554 0.0
C2087 C 0.79816 0.63516 0.01448 0.0
C2088 C 0.79114 0.64902 0.02397 0.0
C2089 C 0.81014 0.60912 0.99567 0.0
C2090 C 0.80409 0.62152 0.98506 0.0
C2091 C 0.79863 0.63457 0.9946 0.0
C2092 C 0.80191 0.62057 0.96423 0.0
C2093 C 0.81696 0.59516 0.98621 0.0
C2094 C 0.8083 0.63164 0.95209 0.0
C2095 C 0.80507 0.63136 0.93264 0.0
C2096 C 0.79522 0.62011 0.92504 0.0
C2097 C 0.78907 0.60891 0.93724 0.0
C2098 C 0.79235 0.60917 0.95659 0.0
H2099 H 0.82542 0.58935 0.99559 0.0
H2100 H 0.80766 0.58683 0.98306 0.0
H2101 H 0.82273 0.59824 0.97271 0.0
H2102 H 0.81561 0.64063 0.95772 0.0
H2103 H 0.80995 0.64019 0.92367 0.0
H2104 H 0.36792 0.81202 0.92491 0.0
H2105 H 0.36793 0.81727 0.95904 0.0
H2106 H 0.40687 0.78718 0.96613 0.0
H2107 H 0.40705 0.78197 0.93223 0.0
H2108 H 0.36388 0.7953 0.98724 0.0
H2109 H 0.41965 0.82478 0.99678 0.0
H2110 H 0.41056 0.82276 0.97391 0.0
H2111 H 0.42148 0.80715 0.98382 0.0
C2112 C 0.37665 0.80673 0.93369 0.0
C2113 C 0.38748 0.79656 0.9258 0.0
C2114 C 0.37662 0.80973 0.95319 0.0
C2115 C 0.38753 0.80279 0.9651 0.0
C2116 C 0.39855 0.79293 0.95718 0.0
H2117 H 0.40625 0.77995 0.07893 0.0
H2118 H 0.40566 0.78549 0.04509 0.0
C2119 C 0.39855 0.78988 0.93777 0.0
C2120 C 0.38673 0.8047 0.98597 0.0
H2121 H 0.40864 0.81329 0.02469 0.0
C2122 C 0.37353 0.79953 0.99545 0.0
C2123 C 0.39934 0.81022 0.99664 0.0
C2124 C 0.4135 0.81669 0.98726 0.0
C2125 C 0.37296 0.79885 0.01532 0.0
C2126 C 0.38586 0.8037 0.02598 0.0
C2127 C 0.39879 0.80953 0.0165 0.0
C2128 C 0.3867 0.80149 0.0468 0.0
C2129 C 0.35891 0.79212 0.02471 0.0
C2130 C 0.37645 0.80894 0.05911 0.0
C2131 C 0.37672 0.80577 0.07857 0.0
C2132 C 0.38729 0.79513 0.08604 0.0
C2133 C 0.39789 0.78815 0.0737 0.0
C2134 C 0.39761 0.79132 0.05432 0.0
H2135 H 0.35118 0.78637 0.01439 0.0
H2136 H 0.36226 0.78366 0.03574 0.0
H2137 H 0.35233 0.80145 0.03172 0.0
H2138 H 0.3681 0.81702 0.05363 0.0
H2139 H 0.36844 0.81141 0.08767 0.0
H2140 H 0.22936 0.4078 0.93104 0.0
H2141 H 0.22596 0.40712 0.9653 0.0
H2142 H 0.1947 0.36899 0.95972 0.0
H2143 H 0.19792 0.36962 0.92519 0.0
H2144 H 0.18585 0.3925 0.98753 0.0
H2145 H 0.24572 0.37179 0.9965 0.0
H2146 H 0.2441 0.38888 0.9824 0.0
H2147 H 0.23582 0.37122 0.97403 0.0
C2148 C 0.22163 0.39934 0.937 0.0
C2149 C 0.21406 0.38864 0.92533 0.0
C2150 C 0.21973 0.39896 0.95662 0.0
C2151 C 0.21031 0.38783 0.96505 0.0
C2152 C 0.2021 0.37761 0.95347 0.0
H2153 H 0.19769 0.36888 0.08663 0.0
H2154 H 0.19415 0.36867 0.05215 0.0
C2155 C 0.20396 0.378 0.93375 0.0
C2156 C 0.20981 0.38647 0.98598 0.0
H2157 H 0.23289 0.38028 0.02432 0.0
C2158 C 0.19606 0.38968 0.99562 0.0
C2159 C 0.22313 0.38264 0.99645 0.0
C2160 C 0.238 0.37829 0.98685 0.0
C2161 C 0.19551 0.38986 0.01555 0.0
C2162 C 0.20902 0.3866 0.02598 0.0
C2163 C 0.22259 0.3829 0.01628 0.0
C2164 C 0.20968 0.38761 0.04694 0.0
C2165 C 0.18071 0.39408 0.02533 0.0
C2166 C 0.21951 0.39835 0.05543 0.0
C2167 C 0.22161 0.39847 0.07502 0.0
C2168 C 0.21397 0.38777 0.08662 0.0
C2169 C 0.20372 0.37731 0.07814 0.0
C2170 C 0.20162 0.37721 0.05844 0.0
H2171 H 0.1721 0.39888 0.01531 0.0
H2172 H 0.17572 0.38368 0.032 0.0
H2173 H 0.18287 0.40262 0.03671 0.0
H2174 H 0.22586 0.40646 0.0468 0.0
H2175 H 0.22955 0.40673 0.08101 0.0
H2176 H 0.19528 0.38714 0.20191 0.0
H2177 H 0.18239 0.37958 0.23139 0.0
H2178 H 0.16883 0.33673 0.20579 0.0
H2179 H 0.18164 0.34411 0.17639 0.0
H2180 H 0.15015 0.36802 0.23968 0.0
H2181 H 0.19708 0.32594 0.25267 0.0
H2182 H 0.199 0.34163 0.23612 0.0
H2183 H 0.18807 0.32491 0.22978 0.0
C2184 C 0.18932 0.37623 0.20244 0.0
C2185 C 0.18963 0.36617 0.18685 0.0
C2186 C 0.18195 0.37194 0.21929 0.0
C2187 C 0.17483 0.35753 0.2208 0.0
C2188 C 0.17439 0.34785 0.20495 0.0
H2189 H 0.12182 0.31386 0.31031 0.0
H2190 H 0.12959 0.32716 0.28125 0.0
C2191 C 0.18171 0.35211 0.18814 0.0
C2192 C 0.16899 0.35201 0.23931 0.0
H2193 H 0.17608 0.32544 0.27378 0.0
C2194 C 0.1558 0.35875 0.2472 0.0
C2195 C 0.1765 0.34002 0.24915 0.0
C2196 C 0.19102 0.33274 0.24164 0.0
C2197 C 0.14978 0.35357 0.26458 0.0
C2198 C 0.15711 0.34133 0.27418 0.0
C2199 C 0.17043 0.33479 0.26638 0.0
C2200 C 0.15137 0.33504 0.29242 0.0
C2201 C 0.13576 0.36136 0.27266 0.0
C2202 C 0.16097 0.33514 0.30839 0.0
C2203 C 0.15661 0.32751 0.32495 0.0
C2204 C 0.14257 0.31953 0.32587 0.0
C2205 C 0.13267 0.31996 0.31011 0.0
C2206 C 0.13707 0.32761 0.2935 0.0
H2207 H 0.1337 0.37274 0.26601 0.0
H2208 H 0.12552 0.35405 0.27002 0.0
H2209 H 0.13692 0.36291 0.28821 0.0
H2210 H 0.17207 0.34076 0.30787 0.0
H2211 H 0.1645 0.32744 0.33681 0.0
H2212 H 0.62068 0.19564 0.20211 0.0
H2213 H 0.6286 0.18272 0.23144 0.0
H2214 H 0.67149 0.16986 0.20539 0.0
H2215 H 0.66376 0.1827 0.17614 0.0
H2216 H 0.64055 0.15068 0.23944 0.0
H2217 H 0.6823 0.1979 0.25235 0.0
H2218 H 0.6665 0.19973 0.23591 0.0
H2219 H 0.68331 0.189 0.2294 0.0
C2220 C 0.63168 0.18982 0.20251 0.0
C2221 C 0.64165 0.19033 0.18683 0.0
C2222 C 0.63617 0.18244 0.21927 0.0
C2223 C 0.6507 0.17551 0.22062 0.0
C2224 C 0.6603 0.17528 0.20468 0.0
H2225 H 0.69526 0.12242 0.30952 0.0
H2226 H 0.68184 0.13025 0.28054 0.0
C2227 C 0.65583 0.18262 0.18796 0.0
C2228 C 0.65641 0.16964 0.23904 0.0
H2229 H 0.68317 0.17679 0.27328 0.0
C2230 C 0.64983 0.15637 0.24691 0.0
C2231 C 0.66841 0.17721 0.2488 0.0
C2232 C 0.67551 0.19182 0.24133 0.0
C2233 C 0.65518 0.15031 0.2642 0.0
C2234 C 0.66745 0.1577 0.27371 0.0
C2235 C 0.67382 0.1711 0.26593 0.0
C2236 C 0.67389 0.15195 0.29187 0.0
C2237 C 0.64756 0.13621 0.27227 0.0
C2238 C 0.67383 0.16148 0.30789 0.0
C2239 C 0.68153 0.15708 0.32439 0.0
C2240 C 0.68956 0.14307 0.32521 0.0
C2241 C 0.68913 0.13325 0.30939 0.0
C2242 C 0.6814 0.13768 0.29283 0.0
H2243 H 0.63614 0.13409 0.26573 0.0
H2244 H 0.65492 0.12604 0.26948 0.0
H2245 H 0.64611 0.13729 0.28784 0.0
H2246 H 0.66814 0.17255 0.30745 0.0
H2247 H 0.68158 0.16492 0.3363 0.0
H2248 H 0.81253 0.62068 0.2009 0.0
H2249 H 0.82539 0.62821 0.23043 0.0
H2250 H 0.8378 0.67165 0.2055 0.0
H2251 H 0.82503 0.6643 0.17605 0.0
H2252 H 0.85745 0.64033 0.23852 0.0
H2253 H 0.80984 0.68132 0.25296 0.0
H2254 H 0.80806 0.66579 0.23616 0.0
H2255 H 0.81857 0.68281 0.22996 0.0
C2256 C 0.81822 0.63173 0.2016 0.0
C2257 C 0.81763 0.64194 0.18616 0.0
C2258 C 0.82557 0.636 0.21847 0.0
C2259 C 0.83237 0.65055 0.22019 0.0
C2260 C 0.83248 0.66043 0.20451 0.0
H2261 H 0.88575 0.69439 0.30921 0.0
H2262 H 0.87779 0.68115 0.28017 0.0
C2263 C 0.82519 0.65618 0.18767 0.0
C2264 C 0.83829 0.65597 0.23872 0.0
H2265 H 0.83113 0.68208 0.27368 0.0
C2266 C 0.8517 0.64942 0.24628 0.0
C2267 C 0.83066 0.66771 0.24887 0.0
C2268 C 0.81592 0.67478 0.24172 0.0
C2269 C 0.85785 0.65455 0.26362 0.0
C2270 C 0.85041 0.66658 0.27351 0.0
C2271 C 0.83686 0.67291 0.26605 0.0
C2272 C 0.8563 0.67285 0.2917 0.0
C2273 C 0.87212 0.64697 0.27133 0.0
C2274 C 0.84693 0.6725 0.30786 0.0
C2275 C 0.8514 0.6801 0.3244 0.0
C2276 C 0.86532 0.6883 0.32512 0.0
C2277 C 0.875 0.68812 0.30916 0.0
C2278 C 0.87049 0.6805 0.29257 0.0
H2279 H 0.87427 0.63566 0.26455 0.0
H2280 H 0.88219 0.65446 0.26851 0.0
H2281 H 0.87123 0.64532 0.28688 0.0
H2282 H 0.83591 0.66671 0.3075 0.0
H2283 H 0.84367 0.67997 0.33642 0.0
H2284 H 0.3866 0.81135 0.20193 0.0
H2285 H 0.3787 0.82409 0.23138 0.0
H2286 H 0.33554 0.8366 0.20567 0.0
H2287 H 0.34325 0.82393 0.17631 0.0
H2288 H 0.36678 0.85585 0.23962 0.0
H2289 H 0.32493 0.80876 0.25258 0.0
H2290 H 0.34058 0.80696 0.23595 0.0
H2291 H 0.32372 0.81773 0.22969 0.0
C2292 C 0.37553 0.81704 0.20244 0.0
C2293 C 0.36549 0.81649 0.18682 0.0
C2294 C 0.37105 0.82432 0.21927 0.0
C2295 C 0.35646 0.83111 0.22074 0.0
C2296 C 0.34678 0.83128 0.20487 0.0
H2297 H 0.31237 0.88449 0.30963 0.0
H2298 H 0.32572 0.87653 0.28068 0.0
C2299 C 0.35123 0.82404 0.18809 0.0
C2300 C 0.35082 0.83697 0.2392 0.0
H2301 H 0.32406 0.82994 0.27344 0.0
C2302 C 0.35747 0.8502 0.24708 0.0
C2303 C 0.3388 0.82945 0.24897 0.0
C2304 C 0.33163 0.81486 0.24151 0.0
C2305 C 0.35217 0.85627 0.26437 0.0
C2306 C 0.33987 0.84895 0.27389 0.0
C2307 C 0.33344 0.83558 0.2661 0.0
C2308 C 0.33345 0.85476 0.29202 0.0
C2309 C 0.35988 0.87034 0.27245 0.0
C2310 C 0.3334 0.84522 0.30804 0.0
C2311 C 0.32573 0.84969 0.32452 0.0
C2312 C 0.31785 0.86379 0.32532 0.0
C2313 C 0.31838 0.8736 0.30951 0.0
C2314 C 0.32608 0.86909 0.29297 0.0
H2315 H 0.37134 0.87234 0.26597 0.0
H2316 H 0.35261 0.88055 0.26959 0.0
H2317 H 0.36128 0.86928 0.28803 0.0
H2318 H 0.33898 0.8341 0.30762 0.0
H2319 H 0.32559 0.84186 0.33643 0.0
H2320 H 0.19536 0.61987 0.8098 0.0
H2321 H 0.18273 0.62755 0.78018 0.0
H2322 H 0.16889 0.67027 0.80586 0.0
H2323 H 0.18141 0.66277 0.8354 0.0
H2324 H 0.15045 0.63919 0.77163 0.0
H2325 H 0.19756 0.68121 0.75936 0.0
H2326 H 0.19936 0.66542 0.77579 0.0
H2327 H 0.18843 0.68213 0.78218 0.0
C2328 C 0.18939 0.63078 0.80925 0.0
C2329 C 0.18953 0.64077 0.82492 0.0
C2330 C 0.18218 0.63514 0.79232 0.0
C2331 C 0.17504 0.64955 0.7908 0.0
C2332 C 0.17445 0.65916 0.80671 0.0
H2333 H 0.12268 0.69373 0.70103 0.0
H2334 H 0.13028 0.68041 0.73016 0.0
C2335 C 0.18162 0.65483 0.8236 0.0
C2336 C 0.16933 0.65515 0.77226 0.0
H2337 H 0.17668 0.68183 0.73804 0.0
C2338 C 0.15617 0.64848 0.76421 0.0
C2339 C 0.17694 0.66716 0.76257 0.0
C2340 C 0.19143 0.67436 0.77028 0.0
C2341 C 0.15024 0.65375 0.74682 0.0
C2342 C 0.15767 0.66602 0.73737 0.0
C2343 C 0.17096 0.67247 0.74533 0.0
C2344 C 0.15205 0.67238 0.71912 0.0
C2345 C 0.13624 0.64606 0.73856 0.0
C2346 C 0.16169 0.67223 0.7032 0.0
C2347 C 0.15742 0.67986 0.68662 0.0
C2348 C 0.14343 0.68792 0.6856 0.0
C2349 C 0.13349 0.68758 0.70131 0.0
C2350 C 0.1378 0.67991 0.71796 0.0
H2351 H 0.13407 0.63468 0.74516 0.0
H2352 H 0.12603 0.65342 0.74108 0.0
H2353 H 0.13751 0.64451 0.72303 0.0
H2354 H 0.17275 0.66653 0.7038 0.0
H2355 H 0.16535 0.67985 0.67479 0.0
H2356 H 0.30722 0.12568 0.70401 0.0
H2357 H 0.32033 0.13379 0.73307 0.0
H2358 H 0.34692 0.16653 0.70101 0.0
H2359 H 0.33349 0.15888 0.67211 0.0
H2360 H 0.34982 0.13496 0.74557 0.0
H2361 H 0.32674 0.19411 0.73923 0.0
H2362 H 0.3202 0.17859 0.72437 0.0
H2363 H 0.33787 0.18845 0.71905 0.0
C2364 C 0.31598 0.13449 0.70313 0.0
C2365 C 0.31917 0.14179 0.68581 0.0
C2366 C 0.32346 0.13913 0.71976 0.0
C2367 C 0.33433 0.15107 0.71933 0.0
C2368 C 0.33823 0.15764 0.70182 0.0
H2369 H 0.38584 0.19931 0.8071 0.0
H2370 H 0.37855 0.18642 0.77754 0.0
C2371 C 0.33062 0.15318 0.68527 0.0
C2372 C 0.34106 0.1571 0.73722 0.0
H2373 H 0.34512 0.18988 0.76344 0.0
C2374 C 0.34878 0.14696 0.74948 0.0
C2375 C 0.33959 0.17276 0.74245 0.0
C2376 C 0.33052 0.18408 0.73069 0.0
C2377 C 0.35519 0.15212 0.76664 0.0
C2378 C 0.35389 0.16777 0.77162 0.0
C2379 C 0.34625 0.17791 0.7594 0.0
C2380 C 0.35963 0.17384 0.78991 0.0
C2381 C 0.36336 0.14087 0.77938 0.0
C2382 C 0.3515 0.17087 0.80665 0.0
C2383 C 0.35553 0.17831 0.82349 0.0
C2384 C 0.36782 0.18882 0.82391 0.0
C2385 C 0.37638 0.19122 0.80728 0.0
C2386 C 0.37222 0.1839 0.79038 0.0
H2387 H 0.36535 0.12965 0.7723 0.0
H2388 H 0.37458 0.14566 0.78401 0.0
H2389 H 0.35632 0.13888 0.79225 0.0
H2390 H 0.34164 0.16327 0.80651 0.0
H2391 H 0.34869 0.17621 0.83604 0.0
H2392 H 0.84494 0.32693 0.67516 0.0
H2393 H 0.83719 0.33996 0.70423 0.0
H2394 H 0.8789 0.32499 0.73157 0.0
H2395 H 0.88686 0.31197 0.70238 0.0
H2396 H 0.83231 0.32414 0.73786 0.0
H2397 H 0.87549 0.37044 0.74778 0.0
H2398 H 0.8724 0.36106 0.72527 0.0
H2399 H 0.88334 0.35166 0.74346 0.0
C2400 C 0.85264 0.32663 0.68722 0.0
C2401 C 0.86651 0.31835 0.68645 0.0
C2402 C 0.84817 0.33409 0.70384 0.0
C2403 C 0.85749 0.33353 0.72005 0.0
C2404 C 0.87164 0.3258 0.71914 0.0
H2405 H 0.82595 0.34135 0.83562 0.0
H2406 H 0.839 0.33426 0.80628 0.0
C2407 C 0.87615 0.31831 0.70246 0.0
C2408 C 0.85159 0.33965 0.73829 0.0
H2409 H 0.85852 0.36565 0.77359 0.0
C2410 C 0.83802 0.33326 0.74561 0.0
C2411 C 0.859 0.3516 0.74835 0.0
C2412 C 0.8733 0.35922 0.74079 0.0
C2413 C 0.83178 0.33833 0.76282 0.0
C2414 C 0.83938 0.35001 0.77312 0.0
C2415 C 0.85281 0.35661 0.76571 0.0
C2416 C 0.83337 0.35533 0.79163 0.0
C2417 C 0.81703 0.33121 0.76983 0.0
C2418 C 0.82635 0.36978 0.79333 0.0
C2419 C 0.81884 0.3739 0.81014 0.0
C2420 C 0.81828 0.36363 0.82552 0.0
C2421 C 0.82607 0.34951 0.82405 0.0
C2422 C 0.83353 0.34541 0.80728 0.0
H2423 H 0.81104 0.32464 0.75853 0.0
H2424 H 0.81965 0.3232 0.78162 0.0
H2425 H 0.80911 0.34017 0.77532 0.0
H2426 H 0.82612 0.37759 0.78139 0.0
H2427 H 0.81298 0.38486 0.81082 0.0
H2428 H 0.69102 0.83927 0.68291 0.0
H2429 H 0.67682 0.8329 0.71149 0.0
H2430 H 0.67155 0.88112 0.72408 0.0
H2431 H 0.68658 0.88756 0.69578 0.0
H2432 H 0.67937 0.86732 0.75442 0.0
H2433 H 0.63277 0.83258 0.72392 0.0
H2434 H 0.65078 0.82465 0.71659 0.0
H2435 H 0.6455 0.84381 0.70927 0.0
C2436 C 0.68665 0.84856 0.69158 0.0
C2437 C 0.68987 0.86394 0.687 0.0
C2438 C 0.67838 0.84489 0.7079 0.0
C2439 C 0.6727 0.8565 0.7198 0.0
C2440 C 0.67567 0.87192 0.71509 0.0
H2441 H 0.6185 0.82037 0.81547 0.0
H2442 H 0.62511 0.83509 0.78697 0.0
C2443 C 0.68424 0.87561 0.69889 0.0
C2444 C 0.66485 0.85237 0.73789 0.0
H2445 H 0.63912 0.82706 0.75684 0.0
C2446 C 0.67035 0.85873 0.75488 0.0
C2447 C 0.65275 0.84149 0.73868 0.0
C2448 C 0.64501 0.83541 0.72108 0.0
C2449 C 0.66482 0.8538 0.77256 0.0
C2450 C 0.65395 0.8417 0.77337 0.0
C2451 C 0.64771 0.83608 0.75637 0.0
C2452 C 0.64972 0.83398 0.7915 0.0
C2453 C 0.67078 0.86167 0.79014 0.0
C2454 C 0.66127 0.82841 0.80359 0.0
C2455 C 0.6575 0.82032 0.82001 0.0
C2456 C 0.64209 0.81717 0.82451 0.0
C2457 C 0.63048 0.82266 0.81242 0.0
C2458 C 0.63426 0.83105 0.79611 0.0
H2459 H 0.67362 0.87388 0.7872 0.0
H2460 H 0.66229 0.86126 0.80187 0.0
H2461 H 0.68152 0.85594 0.79482 0.0
H2462 H 0.67328 0.82993 0.80008 0.0
H2463 H 0.66675 0.81605 0.82884 0.0
H2464 H 0.83957 0.69158 0.68244 0.0
H2465 H 0.83278 0.678 0.71136 0.0
H2466 H 0.88085 0.67064 0.72345 0.0
H2467 H 0.88775 0.68512 0.69487 0.0
H2468 H 0.83622 0.65056 0.72419 0.0
H2469 H 0.86835 0.68977 0.77192 0.0
H2470 H 0.86608 0.69364 0.74703 0.0
H2471 H 0.88029 0.68008 0.75504 0.0
C2472 C 0.84873 0.68703 0.69118 0.0
C2473 C 0.86422 0.68955 0.68644 0.0
C2474 C 0.84482 0.67922 0.70776 0.0
C2475 C 0.85627 0.67354 0.71991 0.0
C2476 C 0.87178 0.67534 0.7147 0.0
H2477 H 0.82047 0.61803 0.81564 0.0
H2478 H 0.83467 0.62484 0.78682 0.0
C2479 C 0.87572 0.68348 0.69826 0.0
C2480 C 0.85172 0.66617 0.73815 0.0
H2481 H 0.85537 0.66915 0.7862 0.0
C2482 C 0.84046 0.65459 0.73776 0.0
C2483 C 0.85716 0.67147 0.75591 0.0
C2484 C 0.86852 0.68451 0.75758 0.0
C2485 C 0.83402 0.64866 0.75448 0.0
C2486 C 0.83947 0.65395 0.77224 0.0
C2487 C 0.85122 0.66503 0.77263 0.0
C2488 C 0.83213 0.64942 0.79051 0.0
C2489 C 0.82081 0.63749 0.75283 0.0
C2490 C 0.82671 0.6609 0.80279 0.0
C2491 C 0.81906 0.65703 0.81949 0.0
C2492 C 0.81643 0.64158 0.82424 0.0
C2493 C 0.8222 0.63004 0.81226 0.0
C2494 C 0.83018 0.63393 0.79568 0.0
H2495 H 0.81548 0.63779 0.73853 0.0
H2496 H 0.82511 0.62566 0.75527 0.0
H2497 H 0.81176 0.64 0.76347 0.0
H2498 H 0.82805 0.67293 0.79922 0.0
H2499 H 0.81474 0.66622 0.82836 0.0
H2500 H 0.38609 0.81313 0.80987 0.0
H2501 H 0.37833 0.82653 0.78086 0.0
H2502 H 0.33625 0.84081 0.80784 0.0
H2503 H 0.3438 0.82739 0.83673 0.0
H2504 H 0.33178 0.82565 0.7737 0.0
H2505 H 0.37493 0.87224 0.76588 0.0
H2506 H 0.3828 0.85341 0.76976 0.0
H2507 H 0.37164 0.8624 0.78805 0.0
C2508 C 0.37532 0.81938 0.80975 0.0
C2509 C 0.36554 0.81913 0.82561 0.0
C2510 C 0.37094 0.8271 0.79318 0.0
C2511 C 0.35675 0.83477 0.79222 0.0
C2512 C 0.34726 0.835 0.80828 0.0
H2513 H 0.31328 0.88759 0.70183 0.0
H2514 H 0.326 0.87986 0.73138 0.0
C2515 C 0.35161 0.82732 0.8248 0.0
C2516 C 0.35102 0.8412 0.77405 0.0
H2517 H 0.3583 0.86785 0.7396 0.0
C2518 C 0.33756 0.83492 0.76631 0.0
C2519 C 0.35852 0.85335 0.76446 0.0
C2520 C 0.37271 0.86087 0.77249 0.0
C2521 C 0.3315 0.84029 0.74913 0.0
C2522 C 0.33919 0.85216 0.73929 0.0
C2523 C 0.35252 0.85866 0.74713 0.0
C2524 C 0.33341 0.85777 0.72078 0.0
C2525 C 0.31685 0.83326 0.74164 0.0
C2526 C 0.33382 0.8481 0.70491 0.0
C2527 C 0.3266 0.85246 0.68806 0.0
C2528 C 0.31883 0.8666 0.68674 0.0
C2529 C 0.31915 0.87663 0.70238 0.0
C2530 C 0.32641 0.87224 0.71926 0.0
H2531 H 0.31073 0.82651 0.75266 0.0
H2532 H 0.30899 0.8423 0.73622 0.0
H2533 H 0.31963 0.82544 0.72972 0.0
H2534 H 0.33928 0.83694 0.70577 0.0
H2535 H 0.32667 0.84449 0.67629 0.0
H2536 H 0.16393 0.32556 0.67731 0.0
H2537 H 0.17142 0.33869 0.70645 0.0
H2538 H 0.12773 0.32735 0.73154 0.0
H2539 H 0.12006 0.31412 0.70231 0.0
H2540 H 0.1406 0.35938 0.73898 0.0
H2541 H 0.18035 0.31095 0.75448 0.0
H2542 H 0.18204 0.31932 0.7313 0.0
H2543 H 0.16476 0.30934 0.73772 0.0
C2544 C 0.15578 0.32604 0.68888 0.0
C2545 C 0.14144 0.31865 0.68753 0.0
C2546 C 0.1601 0.33355 0.70554 0.0
C2547 C 0.1502 0.33383 0.72119 0.0
C2548 C 0.13554 0.32723 0.71959 0.0
H2549 H 0.1799 0.34576 0.83721 0.0
H2550 H 0.16638 0.33803 0.80846 0.0
C2551 C 0.13118 0.31967 0.70289 0.0
C2552 C 0.15574 0.33984 0.73962 0.0
H2553 H 0.18161 0.33243 0.7748 0.0
C2554 C 0.14952 0.35351 0.74689 0.0
C2555 C 0.16726 0.33204 0.74996 0.0
C2556 C 0.17395 0.31703 0.74312 0.0
C2557 C 0.1548 0.35973 0.76412 0.0
C2558 C 0.16661 0.3521 0.7742 0.0
C2559 C 0.1726 0.33831 0.76703 0.0
C2560 C 0.17303 0.35805 0.79228 0.0
C2561 C 0.14759 0.37429 0.77152 0.0
C2562 C 0.18105 0.37204 0.79289 0.0
C2563 C 0.18882 0.37654 0.80939 0.0
C2564 C 0.18878 0.36704 0.82551 0.0
C2565 C 0.18021 0.35335 0.82506 0.0
C2566 C 0.17246 0.34889 0.80862 0.0
H2567 H 0.13633 0.37663 0.76468 0.0
H2568 H 0.14591 0.37365 0.78709 0.0
H2569 H 0.15533 0.38411 0.7685 0.0
H2570 H 0.18188 0.37917 0.78036 0.0
H2571 H 0.19537 0.38711 0.80923 0.0
H2572 H 0.69407 0.12089 0.70166 0.0
H2573 H 0.68075 0.12829 0.73087 0.0
H2574 H 0.66677 0.17087 0.70489 0.0
H2575 H 0.68007 0.16367 0.6758 0.0
H2576 H 0.6823 0.17446 0.73929 0.0
H2577 H 0.63483 0.13209 0.74576 0.0
H2578 H 0.65356 0.12408 0.74144 0.0
H2579 H 0.6446 0.13579 0.72364 0.0
C2580 C 0.6879 0.13169 0.70204 0.0
C2581 C 0.6882 0.14171 0.68641 0.0
C2582 C 0.68023 0.13587 0.71873 0.0
C2583 C 0.67268 0.15009 0.72002 0.0
C2584 C 0.67249 0.15983 0.70419 0.0
H2585 H 0.61975 0.19341 0.80999 0.0
H2586 H 0.62765 0.18056 0.78063 0.0
C2587 C 0.68011 0.15567 0.68756 0.0
C2588 C 0.66632 0.15559 0.73832 0.0
H2589 H 0.6392 0.14842 0.77224 0.0
C2590 C 0.67286 0.16877 0.74646 0.0
C2591 C 0.65394 0.14822 0.74759 0.0
C2592 C 0.6462 0.13432 0.73914 0.0
C2593 C 0.66747 0.1747 0.76369 0.0
C2594 C 0.65532 0.16716 0.77319 0.0
C2595 C 0.64861 0.15409 0.76498 0.0
C2596 C 0.64955 0.1729 0.79163 0.0
C2597 C 0.67475 0.18909 0.77155 0.0
C2598 C 0.65902 0.17237 0.80769 0.0
C2599 C 0.65456 0.17968 0.82443 0.0
C2600 C 0.64052 0.18765 0.82546 0.0
C2601 C 0.63065 0.1874 0.80967 0.0
C2602 C 0.63513 0.18006 0.79288 0.0
H2603 H 0.68172 0.19521 0.76075 0.0
H2604 H 0.66583 0.19707 0.77701 0.0
H2605 H 0.68241 0.18599 0.78352 0.0
H2606 H 0.67013 0.16678 0.80704 0.0
H2607 H 0.66242 0.17955 0.83634 0.0
H2608 H 0.81305 0.38618 0.20257 0.0
H2609 H 0.82663 0.37825 0.23139 0.0
H2610 H 0.83975 0.33582 0.20437 0.0
H2611 H 0.82615 0.34354 0.17568 0.0
H2612 H 0.82485 0.33174 0.23865 0.0
H2613 H 0.87236 0.37393 0.24589 0.0
H2614 H 0.85365 0.38219 0.24225 0.0
H2615 H 0.86225 0.37085 0.22385 0.0
C2616 C 0.8191 0.3753 0.20264 0.0
C2617 C 0.81845 0.36547 0.18684 0.0
C2618 C 0.82692 0.37082 0.2191 0.0
C2619 C 0.8343 0.35648 0.22 0.0
C2620 C 0.83417 0.34695 0.20399 0.0
H2621 H 0.88731 0.31259 0.3099 0.0
H2622 H 0.87949 0.32543 0.28048 0.0
C2623 C 0.82638 0.3514 0.18758 0.0
C2624 C 0.84077 0.35066 0.23811 0.0
H2625 H 0.86782 0.35747 0.27227 0.0
C2626 C 0.83429 0.33734 0.24595 0.0
C2627 C 0.85314 0.35794 0.24756 0.0
C2628 C 0.86088 0.37195 0.23942 0.0
C2629 C 0.83967 0.3312 0.26307 0.0
C2630 C 0.85176 0.33867 0.27278 0.0
C2631 C 0.85846 0.35185 0.26485 0.0
C2632 C 0.85742 0.33281 0.29123 0.0
C2633 C 0.83243 0.31668 0.27061 0.0
C2634 C 0.84781 0.33315 0.30715 0.0
C2635 C 0.85222 0.32586 0.32392 0.0
C2636 C 0.86636 0.31807 0.32511 0.0
C2637 C 0.87634 0.31846 0.30944 0.0
C2638 C 0.8719 0.32579 0.29263 0.0
H2639 H 0.8256 0.31062 0.2596 0.0
H2640 H 0.84136 0.30871 0.27609 0.0
H2641 H 0.82463 0.31961 0.28249 0.0
H2642 H 0.83665 0.33864 0.3064 0.0
H2643 H 0.84428 0.32588 0.33573 0.0
H2644 H 0.62147 0.81297 0.20108 0.0
H2645 H 0.62905 0.8263 0.2302 0.0
H2646 H 0.67185 0.83957 0.20417 0.0
H2647 H 0.66446 0.82621 0.17517 0.0
H2648 H 0.67546 0.82447 0.23846 0.0
H2649 H 0.63318 0.87197 0.24505 0.0
H2650 H 0.62498 0.85329 0.2411 0.0
H2651 H 0.63659 0.86198 0.22302 0.0
C2652 C 0.63235 0.81899 0.20143 0.0
C2653 C 0.64238 0.81846 0.18581 0.0
C2654 C 0.63664 0.82667 0.21807 0.0
C2655 C 0.65098 0.83403 0.21932 0.0
C2656 C 0.66072 0.834 0.2035 0.0
H2657 H 0.69411 0.88669 0.30998 0.0
H2658 H 0.68144 0.87896 0.2804 0.0
C2659 C 0.65646 0.82635 0.18692 0.0
C2660 C 0.65656 0.84041 0.2376 0.0
H2661 H 0.64937 0.86739 0.27169 0.0
C2662 C 0.66977 0.83389 0.24568 0.0
C2663 C 0.64918 0.85276 0.24694 0.0
C2664 C 0.63527 0.86053 0.23856 0.0
C2665 C 0.67571 0.83922 0.26293 0.0
C2666 C 0.66815 0.85131 0.27252 0.0
C2667 C 0.65506 0.85804 0.26436 0.0
C2668 C 0.67383 0.85695 0.29107 0.0
C2669 C 0.69014 0.83195 0.27073 0.0
C2670 C 0.67328 0.84736 0.307 0.0
C2671 C 0.68048 0.85172 0.32386 0.0
C2672 C 0.68837 0.86579 0.32514 0.0
C2673 C 0.68816 0.87577 0.30946 0.0
C2674 C 0.68092 0.87138 0.29256 0.0
H2675 H 0.6963 0.82509 0.25985 0.0
H2676 H 0.69808 0.84086 0.27632 0.0
H2677 H 0.68706 0.82418 0.28259 0.0
H2678 H 0.66774 0.83623 0.30617 0.0
H2679 H 0.68033 0.84378 0.33567 0.0
H2680 H 0.16727 0.69214 0.32834 0.0
H2681 H 0.17405 0.67873 0.29928 0.0
H2682 H 0.12597 0.67151 0.28713 0.0
H2683 H 0.11908 0.6858 0.31586 0.0
H2684 H 0.17054 0.65132 0.28641 0.0
H2685 H 0.13854 0.69067 0.23871 0.0
H2686 H 0.1408 0.6945 0.26361 0.0
H2687 H 0.12657 0.68097 0.25555 0.0
C2688 C 0.1581 0.68765 0.31954 0.0
C2689 C 0.14263 0.69015 0.32432 0.0
C2690 C 0.162 0.67995 0.30289 0.0
C2691 C 0.15055 0.67434 0.2907 0.0
C2692 C 0.13504 0.67614 0.29592 0.0
H2693 H 0.18645 0.61886 0.19504 0.0
H2694 H 0.17214 0.62568 0.22377 0.0
C2695 C 0.13111 0.68419 0.31244 0.0
C2696 C 0.1551 0.66699 0.27246 0.0
H2697 H 0.15152 0.67004 0.22441 0.0
C2698 C 0.16633 0.65538 0.27285 0.0
C2699 C 0.14969 0.67232 0.2547 0.0
C2700 C 0.13835 0.68539 0.25303 0.0
C2701 C 0.17279 0.64947 0.25612 0.0
C2702 C 0.16737 0.65478 0.23836 0.0
C2703 C 0.15564 0.6659 0.23798 0.0
C2704 C 0.17473 0.65026 0.22012 0.0
C2705 C 0.18598 0.63827 0.25779 0.0
C2706 C 0.18021 0.66174 0.20788 0.0
C2707 C 0.18793 0.65787 0.19122 0.0
C2708 C 0.19057 0.64241 0.18649 0.0
C2709 C 0.18473 0.63088 0.19842 0.0
C2710 C 0.17667 0.63477 0.21494 0.0
H2711 H 0.19129 0.63855 0.2721 0.0
H2712 H 0.18167 0.62645 0.25532 0.0
H2713 H 0.19505 0.64078 0.24718 0.0
H2714 H 0.17888 0.67377 0.21145 0.0
H2715 H 0.19231 0.66705 0.18239 0.0
H2716 H 0.32516 0.16393 0.33473 0.0
H2717 H 0.33798 0.17137 0.30536 0.0
H2718 H 0.32486 0.12836 0.27982 0.0
H2719 H 0.31194 0.12075 0.30926 0.0
H2720 H 0.35718 0.1402 0.27194 0.0
H2721 H 0.30993 0.18174 0.25804 0.0
H2722 H 0.31868 0.18288 0.28108 0.0
H2723 H 0.308 0.16604 0.27458 0.0
C2724 C 0.32517 0.15592 0.323 0.0
C2725 C 0.31739 0.14179 0.3243 0.0
C2726 C 0.3325 0.16021 0.30621 0.0
C2727 C 0.33221 0.15049 0.29039 0.0
C2728 C 0.32518 0.13603 0.2919 0.0
H2729 H 0.34363 0.1806 0.17448 0.0
H2730 H 0.33579 0.16722 0.20327 0.0
C2731 C 0.3178 0.13171 0.30872 0.0
C2732 C 0.33816 0.156 0.27193 0.0
H2733 H 0.33116 0.18242 0.23728 0.0
C2734 C 0.35151 0.1494 0.26429 0.0
C2735 C 0.33061 0.16788 0.26192 0.0
C2736 C 0.31594 0.17501 0.26918 0.0
C2737 C 0.35767 0.15461 0.247 0.0
C2738 C 0.35031 0.16676 0.23725 0.0
C2739 C 0.33683 0.17315 0.24479 0.0
C2740 C 0.35622 0.17312 0.21914 0.0
C2741 C 0.37187 0.14698 0.2392 0.0
C2742 C 0.37047 0.18069 0.21835 0.0
C2743 C 0.37502 0.18838 0.20184 0.0
C2744 C 0.36534 0.18872 0.18587 0.0
C2745 C 0.35136 0.18061 0.18651 0.0
C2746 C 0.34685 0.17294 0.20297 0.0
H2747 H 0.37395 0.1356 0.24586 0.0
H2748 H 0.37094 0.14543 0.22363 0.0
H2749 H 0.382 0.15437 0.24207 0.0
H2750 H 0.37778 0.18121 0.23076 0.0
H2751 H 0.38581 0.19457 0.20185 0.0
loop_
_geom_bond_atom_site_label_1
_geom_bond_atom_site_label_2
_geom_bond_distance
_geom_bond_site_symmetry_2
_ccdc_geom_bond_type
O0 Cd1 2.223 . S
O0 C8 1.315 . S
Cd1 O0 2.223 . S
Cd1 O4 2.297 . S
Cd1 O5 2.439 . S
Cd1 O11 2.240 . S
Cd2 O3 2.240 . S
Cd2 O10 2.223 . S
Cd2 O12 2.297 . S
Cd2 O13 2.439 . S
O3 Cd2 2.240 . S
O3 C8 1.279 . S
O4 Cd1 2.297 . S
O4 C6 1.247 . S
O5 Cd1 2.439 . S
O5 C6 1.208 . S
C6 O4 1.247 . S
C6 O5 1.208 . S
C7 O12 1.247 . S
C7 O13 1.208 . S
C8 O0 1.315 . S
C8 O3 1.279 . S
C9 O10 1.315 . S
C9 O11 1.279 . S
O10 Cd2 2.223 . S
O10 C9 1.315 . S
O11 Cd1 2.240 . S
O11 C9 1.279 . S
O12 Cd2 2.297 . S
O12 C7 1.247 . S
O13 Cd2 2.439 . S
O13 C7 1.208 . S
O14 Cd15 2.223 . S
O14 C22 1.315 . S
Cd15 O14 2.223 . S
Cd15 O18 2.297 . S
Cd15 O19 2.439 . S
Cd15 O25 2.240 . S
Cd16 O17 2.240 . S
Cd16 O24 2.223 . S
Cd16 O26 2.297 . S
Cd16 O27 2.439 . S
O17 Cd16 2.240 . S
O17 C22 1.279 . S
O18 Cd15 2.297 . S
O18 C20 1.247 . S
O19 Cd15 2.439 . S
O19 C20 1.208 . S
C20 O18 1.247 . S
C20 O19 1.208 . S
C21 O26 1.247 . S
C21 O27 1.208 . S
C22 O14 1.315 . S
C22 O17 1.279 . S
C23 O24 1.315 . S
C23 O25 1.279 . S
O24 Cd16 2.223 . S
O24 C23 1.315 . S
O25 Cd15 2.240 . S
O25 C23 1.279 . S
O26 Cd16 2.297 . S
O26 C21 1.247 . S
O27 Cd16 2.439 . S
O27 C21 1.208 . S
O28 Cd29 2.223 . S
O28 C36 1.315 . S
Cd29 O28 2.223 . S
Cd29 O32 2.297 . S
Cd29 O33 2.439 . S
Cd29 O39 2.240 . S
Cd30 O31 2.240 . S
Cd30 O38 2.223 . S
Cd30 O40 2.297 . S
Cd30 O41 2.439 . S
O31 Cd30 2.240 . S
O31 C36 1.279 . S
O32 Cd29 2.297 . S
O32 C34 1.247 . S
O33 Cd29 2.439 . S
O33 C34 1.208 . S
C34 O32 1.247 . S
C34 O33 1.208 . S
C35 O40 1.247 . S
C35 O41 1.208 . S
C36 O28 1.315 . S
C36 O31 1.279 . S
C37 O38 1.315 . S
C37 O39 1.279 . S
O38 Cd30 2.223 . S
O38 C37 1.315 . S
O39 Cd29 2.240 . S
O39 C37 1.279 . S
O40 Cd30 2.297 . S
O40 C35 1.247 . S
O41 Cd30 2.439 . S
O41 C35 1.208 . S
O42 Cd43 2.223 . S
O42 C50 1.315 . S
Cd43 O42 2.223 . S
Cd43 O46 2.297 . S
Cd43 O47 2.439 . S
Cd43 O53 2.240 . S
Cd44 O45 2.240 . S
Cd44 O52 2.223 . S
Cd44 O54 2.297 . S
Cd44 O55 2.439 . S
O45 Cd44 2.240 . S
O45 C50 1.279 . S
O46 Cd43 2.297 . S
O46 C48 1.247 . S
O47 Cd43 2.439 . S
O47 C48 1.208 . S
C48 O46 1.247 . S
C48 O47 1.208 . S
C49 O54 1.247 . S
C49 O55 1.208 . S
C50 O42 1.315 . S
C50 O45 1.279 . S
C51 O52 1.315 . S
C51 O53 1.279 . S
O52 Cd44 2.223 . S
O52 C51 1.315 . S
O53 Cd43 2.240 . S
O53 C51 1.279 . S
O54 Cd44 2.297 . S
O54 C49 1.247 . S
O55 Cd44 2.439 . S
O55 C49 1.208 . S
O56 Cd57 2.223 . S
O56 C64 1.315 . S
Cd57 O56 2.223 . S
Cd57 O60 2.297 . S
Cd57 O61 2.439 . S
Cd57 O67 2.240 . S
Cd58 O59 2.240 . S
Cd58 O66 2.223 . S
Cd58 O68 2.297 . S
Cd58 O69 2.439 . S
O59 Cd58 2.240 . S
O59 C64 1.279 . S
O60 Cd57 2.297 . S
O60 C62 1.247 . S
O61 Cd57 2.439 . S
O61 C62 1.208 . S
C62 O60 1.247 . S
C62 O61 1.208 . S
C63 O68 1.247 . S
C63 O69 1.208 . S
C64 O56 1.315 . S
C64 O59 1.279 . S
C65 O66 1.315 . S
C65 O67 1.279 . S
O66 Cd58 2.223 . S
O66 C65 1.315 . S
O67 Cd57 2.240 . S
O67 C65 1.279 . S
O68 Cd58 2.297 . S
O68 C63 1.247 . S
O69 Cd58 2.439 . S
O69 C63 1.208 . S
O70 Cd71 2.223 . S
O70 C78 1.315 . S
Cd71 O70 2.223 . S
Cd71 O74 2.297 . S
Cd71 O75 2.439 . S
Cd71 O81 2.240 . S
Cd72 O73 2.240 . S
Cd72 O80 2.223 . S
Cd72 O82 2.297 . S
Cd72 O83 2.439 . S
O73 Cd72 2.240 . S
O73 C78 1.279 . S
O74 Cd71 2.297 . S
O74 C76 1.247 . S
O75 Cd71 2.439 . S
O75 C76 1.208 . S
C76 O74 1.247 . S
C76 O75 1.208 . S
C77 O82 1.247 . S
C77 O83 1.208 . S
C78 O70 1.315 . S
C78 O73 1.279 . S
C79 O80 1.315 . S
C79 O81 1.279 . S
O80 Cd72 2.223 . S
O80 C79 1.315 . S
O81 Cd71 2.240 . S
O81 C79 1.279 . S
O82 Cd72 2.297 . S
O82 C77 1.247 . S
O83 Cd72 2.439 . S
O83 C77 1.208 . S
O84 Cd85 2.223 . S
O84 C92 1.315 . S
Cd85 O84 2.223 . S
Cd85 O88 2.297 . S
Cd85 O89 2.439 . S
Cd85 O95 2.240 . S
Cd86 O87 2.240 . S
Cd86 O94 2.223 . S
Cd86 O96 2.297 . S
Cd86 O97 2.439 . S
O87 Cd86 2.240 . S
O87 C92 1.279 . S
O88 Cd85 2.297 . S
O88 C90 1.247 . S
O89 Cd85 2.439 . S
O89 C90 1.208 . S
C90 O88 1.247 . S
C90 O89 1.208 . S
C91 O96 1.247 . S
C91 O97 1.208 . S
C92 O84 1.315 . S
C92 O87 1.279 . S
C93 O94 1.315 . S
C93 O95 1.279 . S
O94 Cd86 2.223 . S
O94 C93 1.315 . S
O95 Cd85 2.240 . S
O95 C93 1.279 . S
O96 Cd86 2.297 . S
O96 C91 1.247 . S
O97 Cd86 2.439 . S
O97 C91 1.208 . S
O98 Cd99 2.223 . S
O98 C106 1.315 . S
Cd99 O98 2.223 . S
Cd99 O102 2.297 . S
Cd99 O103 2.439 . S
Cd99 O109 2.240 . S
Cd100 O101 2.240 . S
Cd100 O108 2.223 . S
Cd100 O110 2.297 . S
Cd100 O111 2.439 . S
O101 Cd100 2.240 . S
O101 C106 1.279 . S
O102 Cd99 2.297 . S
O102 C104 1.247 . S
O103 Cd99 2.439 . S
O103 C104 1.208 . S
C104 O102 1.247 . S
C104 O103 1.208 . S
C105 O110 1.247 . S
C105 O111 1.208 . S
C106 O98 1.315 . S
C106 O101 1.279 . S
C107 O108 1.315 . S
C107 O109 1.279 . S
O108 Cd100 2.223 . S
O108 C107 1.315 . S
O109 Cd99 2.240 . S
O109 C107 1.279 . S
O110 Cd100 2.297 . S
O110 C105 1.247 . S
O111 Cd100 2.439 . S
O111 C105 1.208 . S
O112 Cd113 2.223 . S
O112 C120 1.315 . S
Cd113 O112 2.223 . S
Cd113 O116 2.297 . S
Cd113 O117 2.439 . S
Cd113 O123 2.240 . S
Cd114 O115 2.240 . S
Cd114 O122 2.223 . S
Cd114 O124 2.297 . S
Cd114 O125 2.439 . S
O115 Cd114 2.240 . S
O115 C120 1.279 . S
O116 Cd113 2.297 . S
O116 C118 1.247 . S
O117 Cd113 2.439 . S
O117 C118 1.208 . S
C118 O116 1.247 . S
C118 O117 1.208 . S
C119 O124 1.247 . S
C119 O125 1.208 . S
C120 O112 1.315 . S
C120 O115 1.279 . S
C121 O122 1.315 . S
C121 O123 1.279 . S
O122 Cd114 2.223 . S
O122 C121 1.315 . S
O123 Cd113 2.240 . S
O123 C121 1.279 . S
O124 Cd114 2.297 . S
O124 C119 1.247 . S
O125 Cd114 2.439 . S
O125 C119 1.208 . S
O126 Cd127 2.223 . S
O126 C134 1.315 . S
Cd127 O126 2.223 . S
Cd127 O130 2.297 . S
Cd127 O131 2.439 . S
Cd127 O137 2.240 . S
Cd128 O129 2.240 . S
Cd128 O136 2.223 . S
Cd128 O138 2.297 . S
Cd128 O139 2.439 . S
O129 Cd128 2.240 . S
O129 C134 1.279 . S
O130 Cd127 2.297 . S
O130 C132 1.247 . S
O131 Cd127 2.439 . S
O131 C132 1.208 . S
C132 O130 1.247 . S
C132 O131 1.208 . S
C133 O138 1.247 . S
C133 O139 1.208 . S
C134 O126 1.315 . S
C134 O129 1.279 . S
C135 O136 1.315 . S
C135 O137 1.279 . S
O136 Cd128 2.223 . S
O136 C135 1.315 . S
O137 Cd127 2.240 . S
O137 C135 1.279 . S
O138 Cd128 2.297 . S
O138 C133 1.247 . S
O139 Cd128 2.439 . S
O139 C133 1.208 . S
O140 Cd141 2.223 . S
O140 C148 1.315 . S
Cd141 O140 2.223 . S
Cd141 O144 2.297 . S
Cd141 O145 2.439 . S
Cd141 O151 2.240 . S
Cd142 O143 2.240 . S
Cd142 O150 2.223 . S
Cd142 O152 2.297 . S
Cd142 O153 2.439 . S
O143 Cd142 2.240 . S
O143 C148 1.279 . S
O144 Cd141 2.297 . S
O144 C146 1.247 . S
O145 Cd141 2.439 . S
O145 C146 1.208 . S
C146 O144 1.247 . S
C146 O145 1.208 . S
C147 O152 1.247 . S
C147 O153 1.208 . S
C148 O140 1.315 . S
C148 O143 1.279 . S
C149 O150 1.315 . S
C149 O151 1.279 . S
O150 Cd142 2.223 . S
O150 C149 1.315 . S
O151 Cd141 2.240 . S
O151 C149 1.279 . S
O152 Cd142 2.297 . S
O152 C147 1.247 . S
O153 Cd142 2.439 . S
O153 C147 1.208 . S
O154 Cd155 2.223 . S
O154 C162 1.315 . S
Cd155 O154 2.223 . S
Cd155 O158 2.297 . S
Cd155 O159 2.439 . S
Cd155 O165 2.240 . S
Cd156 O157 2.240 . S
Cd156 O164 2.223 . S
Cd156 O166 2.297 . S
Cd156 O167 2.439 . S
O157 Cd156 2.240 . S
O157 C162 1.279 . S
O158 Cd155 2.297 . S
O158 C160 1.247 . S
O159 Cd155 2.439 . S
O159 C160 1.208 . S
C160 O158 1.247 . S
C160 O159 1.208 . S
C161 O166 1.247 . S
C161 O167 1.208 . S
C162 O154 1.315 . S
C162 O157 1.279 . S
C163 O164 1.315 . S
C163 O165 1.279 . S
O164 Cd156 2.223 . S
O164 C163 1.315 . S
O165 Cd155 2.240 . S
O165 C163 1.279 . S
O166 Cd156 2.297 . S
O166 C161 1.247 . S
O167 Cd156 2.439 . S
O167 C161 1.208 . S
O168 Cd169 2.223 . S
O168 C176 1.315 . S
Cd169 O168 2.223 . S
Cd169 O172 2.297 . S
Cd169 O173 2.439 . S
Cd169 O179 2.240 . S
Cd170 O171 2.240 . S
Cd170 O178 2.223 . S
Cd170 O180 2.297 . S
Cd170 O181 2.439 . S
O171 Cd170 2.240 . S
O171 C176 1.279 . S
O172 Cd169 2.297 . S
O172 C174 1.247 . S
O173 Cd169 2.439 . S
O173 C174 1.208 . S
C174 O172 1.247 . S
C174 O173 1.208 . S
C175 O180 1.247 . S
C175 O181 1.208 . S
C176 O168 1.315 . S
C176 O171 1.279 . S
C177 O178 1.315 . S
C177 O179 1.279 . S
O178 Cd170 2.223 . S
O178 C177 1.315 . S
O179 Cd169 2.240 . S
O179 C177 1.279 . S
O180 Cd170 2.297 . S
O180 C175 1.247 . S
O181 Cd170 2.439 . S
O181 C175 1.208 . S
O182 Cd183 2.223 . S
O182 C190 1.315 . S
Cd183 O182 2.223 . S
Cd183 O186 2.297 . S
Cd183 O187 2.439 . S
Cd183 O193 2.240 . S
Cd184 O185 2.240 . S
Cd184 O192 2.223 . S
Cd184 O194 2.297 . S
Cd184 O195 2.439 . S
O185 Cd184 2.240 . S
O185 C190 1.279 . S
O186 Cd183 2.297 . S
O186 C188 1.247 . S
O187 Cd183 2.439 . S
O187 C188 1.208 . S
C188 O186 1.247 . S
C188 O187 1.208 . S
C189 O194 1.247 . S
C189 O195 1.208 . S
C190 O182 1.315 . S
C190 O185 1.279 . S
C191 O192 1.315 . S
C191 O193 1.279 . S
O192 Cd184 2.223 . S
O192 C191 1.315 . S
O193 Cd183 2.240 . S
O193 C191 1.279 . S
O194 Cd184 2.297 . S
O194 C189 1.247 . S
O195 Cd184 2.439 . S
O195 C189 1.208 . S
O196 Cd197 2.223 . S
O196 C204 1.315 . S
Cd197 O196 2.223 . S
Cd197 O200 2.297 . S
Cd197 O201 2.439 . S
Cd197 O207 2.240 . S
Cd198 O199 2.240 . S
Cd198 O206 2.223 . S
Cd198 O208 2.297 . S
Cd198 O209 2.439 . S
O199 Cd198 2.240 . S
O199 C204 1.279 . S
O200 Cd197 2.297 . S
O200 C202 1.247 . S
O201 Cd197 2.439 . S
O201 C202 1.208 . S
C202 O200 1.247 . S
C202 O201 1.208 . S
C203 O208 1.247 . S
C203 O209 1.208 . S
C204 O196 1.315 . S
C204 O199 1.279 . S
C205 O206 1.315 . S
C205 O207 1.279 . S
O206 Cd198 2.223 . S
O206 C205 1.315 . S
O207 Cd197 2.240 . S
O207 C205 1.279 . S
O208 Cd198 2.297 . S
O208 C203 1.247 . S
O209 Cd198 2.439 . S
O209 C203 1.208 . S
O210 Cd211 2.223 . S
O210 C218 1.315 . S
Cd211 O210 2.223 . S
Cd211 O214 2.297 . S
Cd211 O215 2.439 . S
Cd211 O221 2.240 . S
Cd212 O213 2.240 . S
Cd212 O220 2.223 . S
Cd212 O222 2.297 . S
Cd212 O223 2.439 . S
O213 Cd212 2.240 . S
O213 C218 1.279 . S
O214 Cd211 2.297 . S
O214 C216 1.247 . S
O215 Cd211 2.439 . S
O215 C216 1.208 . S
C216 O214 1.247 . S
C216 O215 1.208 . S
C217 O222 1.247 . S
C217 O223 1.208 . S
C218 O210 1.315 . S
C218 O213 1.279 . S
C219 O220 1.315 . S
C219 O221 1.279 . S
O220 Cd212 2.223 . S
O220 C219 1.315 . S
O221 Cd211 2.240 . S
O221 C219 1.279 . S
O222 Cd212 2.297 . S
O222 C217 1.247 . S
O223 Cd212 2.439 . S
O223 C217 1.208 . S
O224 Cd225 2.223 . S
O224 C232 1.315 . S
Cd225 O224 2.223 . S
Cd225 O228 2.297 . S
Cd225 O229 2.439 . S
Cd225 O235 2.240 . S
Cd226 O227 2.240 . S
Cd226 O234 2.223 . S
Cd226 O236 2.297 . S
Cd226 O237 2.439 . S
O227 Cd226 2.240 . S
O227 C232 1.279 . S
O228 Cd225 2.297 . S
O228 C230 1.247 . S
O229 Cd225 2.439 . S
O229 C230 1.208 . S
C230 O228 1.247 . S
C230 O229 1.208 . S
C231 O236 1.247 . S
C231 O237 1.208 . S
C232 O224 1.315 . S
C232 O227 1.279 . S
C233 O234 1.315 . S
C233 O235 1.279 . S
O234 Cd226 2.223 . S
O234 C233 1.315 . S
O235 Cd225 2.240 . S
O235 C233 1.279 . S
O236 Cd226 2.297 . S
O236 C231 1.247 . S
O237 Cd226 2.439 . S
O237 C231 1.208 . S
O238 Cd239 2.223 . S
O238 C246 1.315 . S
Cd239 O238 2.223 . S
Cd239 O242 2.297 . S
Cd239 O243 2.439 . S
Cd239 O249 2.240 . S
Cd240 O241 2.240 . S
Cd240 O248 2.223 . S
Cd240 O250 2.297 . S
Cd240 O251 2.439 . S
O241 Cd240 2.240 . S
O241 C246 1.279 . S
O242 Cd239 2.297 . S
O242 C244 1.247 . S
O243 Cd239 2.439 . S
O243 C244 1.208 . S
C244 O242 1.247 . S
C244 O243 1.208 . S
C245 O250 1.247 . S
C245 O251 1.208 . S
C246 O238 1.315 . S
C246 O241 1.279 . S
C247 O248 1.315 . S
C247 O249 1.279 . S
O248 Cd240 2.223 . S
O248 C247 1.315 . S
O249 Cd239 2.240 . S
O249 C247 1.279 . S
O250 Cd240 2.297 . S
O250 C245 1.247 . S
O251 Cd240 2.439 . S
O251 C245 1.208 . S
O252 Cd253 2.223 . S
O252 C260 1.315 . S
Cd253 O252 2.223 . S
Cd253 O256 2.297 . S
Cd253 O257 2.439 . S
Cd253 O263 2.240 . S
Cd254 O255 2.240 . S
Cd254 O262 2.223 . S
Cd254 O264 2.297 . S
Cd254 O265 2.439 . S
O255 Cd254 2.240 . S
O255 C260 1.279 . S
O256 Cd253 2.297 . S
O256 C258 1.247 . S
O257 Cd253 2.439 . S
O257 C258 1.208 . S
C258 O256 1.247 . S
C258 O257 1.208 . S
C259 O264 1.247 . S
C259 O265 1.208 . S
C260 O252 1.315 . S
C260 O255 1.279 . S
C261 O262 1.315 . S
C261 O263 1.279 . S
O262 Cd254 2.223 . S
O262 C261 1.315 . S
O263 Cd253 2.240 . S
O263 C261 1.279 . S
O264 Cd254 2.297 . S
O264 C259 1.247 . S
O265 Cd254 2.439 . S
O265 C259 1.208 . S
O266 Cd267 2.223 . S
O266 C274 1.315 . S
Cd267 O266 2.223 . S
Cd267 O270 2.297 . S
Cd267 O271 2.439 . S
Cd267 O277 2.240 . S
Cd268 O269 2.240 . S
Cd268 O276 2.223 . S
Cd268 O278 2.297 . S
Cd268 O279 2.439 . S
O269 Cd268 2.240 . S
O269 C274 1.279 . S
O270 Cd267 2.297 . S
O270 C272 1.247 . S
O271 Cd267 2.439 . S
O271 C272 1.208 . S
C272 O270 1.247 . S
C272 O271 1.208 . S
C273 O278 1.247 . S
C273 O279 1.208 . S
C274 O266 1.315 . S
C274 O269 1.279 . S
C275 O276 1.315 . S
C275 O277 1.279 . S
O276 Cd268 2.223 . S
O276 C275 1.315 . S
O277 Cd267 2.240 . S
O277 C275 1.279 . S
O278 Cd268 2.297 . S
O278 C273 1.247 . S
O279 Cd268 2.439 . S
O279 C273 1.208 . S
O280 Cd281 2.223 . S
O280 C288 1.315 . S
Cd281 O280 2.223 . S
Cd281 O284 2.297 . S
Cd281 O285 2.439 . S
Cd281 O291 2.240 . S
Cd282 O283 2.240 . S
Cd282 O290 2.223 . S
Cd282 O292 2.297 . S
Cd282 O293 2.439 . S
O283 Cd282 2.240 . S
O283 C288 1.279 . S
O284 Cd281 2.297 . S
O284 C286 1.247 . S
O285 Cd281 2.439 . S
O285 C286 1.208 . S
C286 O284 1.247 . S
C286 O285 1.208 . S
C287 O292 1.247 . S
C287 O293 1.208 . S
C288 O280 1.315 . S
C288 O283 1.279 . S
C289 O290 1.315 . S
C289 O291 1.279 . S
O290 Cd282 2.223 . S
O290 C289 1.315 . S
O291 Cd281 2.240 . S
O291 C289 1.279 . S
O292 Cd282 2.297 . S
O292 C287 1.247 . S
O293 Cd282 2.439 . S
O293 C287 1.208 . S
O294 Cd295 2.223 . S
O294 C302 1.315 . S
Cd295 O294 2.223 . S
Cd295 O298 2.297 . S
Cd295 O299 2.439 . S
Cd295 O305 2.240 . S
Cd296 O297 2.240 . S
Cd296 O304 2.223 . S
Cd296 O306 2.297 . S
Cd296 O307 2.439 . S
O297 Cd296 2.240 . S
O297 C302 1.279 . S
O298 Cd295 2.297 . S
O298 C300 1.247 . S
O299 Cd295 2.439 . S
O299 C300 1.208 . S
C300 O298 1.247 . S
C300 O299 1.208 . S
C301 O306 1.247 . S
C301 O307 1.208 . S
C302 O294 1.315 . S
C302 O297 1.279 . S
C303 O304 1.315 . S
C303 O305 1.279 . S
O304 Cd296 2.223 . S
O304 C303 1.315 . S
O305 Cd295 2.240 . S
O305 C303 1.279 . S
O306 Cd296 2.297 . S
O306 C301 1.247 . S
O307 Cd296 2.439 . S
O307 C301 1.208 . S
O308 Cd309 2.223 . S
O308 C316 1.315 . S
Cd309 O308 2.223 . S
Cd309 O312 2.297 . S
Cd309 O313 2.439 . S
Cd309 O319 2.240 . S
Cd310 O311 2.240 . S
Cd310 O318 2.223 . S
Cd310 O320 2.297 . S
Cd310 O321 2.439 . S
O311 Cd310 2.240 . S
O311 C316 1.279 . S
O312 Cd309 2.297 . S
O312 C314 1.247 . S
O313 Cd309 2.439 . S
O313 C314 1.208 . S
C314 O312 1.247 . S
C314 O313 1.208 . S
C315 O320 1.247 . S
C315 O321 1.208 . S
C316 O308 1.315 . S
C316 O311 1.279 . S
C317 O318 1.315 . S
C317 O319 1.279 . S
O318 Cd310 2.223 . S
O318 C317 1.315 . S
O319 Cd309 2.240 . S
O319 C317 1.279 . S
O320 Cd310 2.297 . S
O320 C315 1.247 . S
O321 Cd310 2.439 . S
O321 C315 1.208 . S
O322 Cd323 2.223 . S
O322 C330 1.315 . S
Cd323 O322 2.223 . S
Cd323 O326 2.297 . S
Cd323 O327 2.439 . S
Cd323 O333 2.240 . S
Cd324 O325 2.240 . S
Cd324 O332 2.223 . S
Cd324 O334 2.297 . S
Cd324 O335 2.439 . S
O325 Cd324 2.240 . S
O325 C330 1.279 . S
O326 Cd323 2.297 . S
O326 C328 1.247 . S
O327 Cd323 2.439 . S
O327 C328 1.208 . S
C328 O326 1.247 . S
C328 O327 1.208 . S
C329 O334 1.247 . S
C329 O335 1.208 . S
C330 O322 1.315 . S
C330 O325 1.279 . S
C331 O332 1.315 . S
C331 O333 1.279 . S
O332 Cd324 2.223 . S
O332 C331 1.315 . S
O333 Cd323 2.240 . S
O333 C331 1.279 . S
O334 Cd324 2.297 . S
O334 C329 1.247 . S
O335 Cd324 2.439 . S
O335 C329 1.208 . S
O336 Cd337 2.223 . S
O336 C344 1.315 . S
Cd337 O336 2.223 . S
Cd337 O340 2.297 . S
Cd337 O341 2.439 . S
Cd337 O347 2.240 . S
Cd338 O339 2.240 . S
Cd338 O346 2.223 . S
Cd338 O348 2.297 . S
Cd338 O349 2.439 . S
O339 Cd338 2.240 . S
O339 C344 1.279 . S
O340 Cd337 2.297 . S
O340 C342 1.247 . S
O341 Cd337 2.439 . S
O341 C342 1.208 . S
C342 O340 1.247 . S
C342 O341 1.208 . S
C343 O348 1.247 . S
C343 O349 1.208 . S
C344 O336 1.315 . S
C344 O339 1.279 . S
C345 O346 1.315 . S
C345 O347 1.279 . S
O346 Cd338 2.223 . S
O346 C345 1.315 . S
O347 Cd337 2.240 . S
O347 C345 1.279 . S
O348 Cd338 2.297 . S
O348 C343 1.247 . S
O349 Cd338 2.439 . S
O349 C343 1.208 . S
O350 Cd351 2.223 . S
O350 C358 1.315 . S
Cd351 O350 2.223 . S
Cd351 O354 2.297 . S
Cd351 O355 2.439 . S
Cd351 O361 2.240 . S
Cd352 O353 2.240 . S
Cd352 O360 2.223 . S
Cd352 O362 2.297 . S
Cd352 O363 2.439 . S
O353 Cd352 2.240 . S
O353 C358 1.279 . S
O354 Cd351 2.297 . S
O354 C356 1.247 . S
O355 Cd351 2.439 . S
O355 C356 1.208 . S
C356 O354 1.247 . S
C356 O355 1.208 . S
C357 O362 1.247 . S
C357 O363 1.208 . S
C358 O350 1.315 . S
C358 O353 1.279 . S
C359 O360 1.315 . S
C359 O361 1.279 . S
O360 Cd352 2.223 . S
O360 C359 1.315 . S
O361 Cd351 2.240 . S
O361 C359 1.279 . S
O362 Cd352 2.297 . S
O362 C357 1.247 . S
O363 Cd352 2.439 . S
O363 C357 1.208 . S
O364 Cd365 2.223 . S
O364 C372 1.315 . S
Cd365 O364 2.223 . S
Cd365 O368 2.297 . S
Cd365 O369 2.439 . S
Cd365 O375 2.240 . S
Cd366 O367 2.240 . S
Cd366 O374 2.223 . S
Cd366 O376 2.297 . S
Cd366 O377 2.439 . S
O367 Cd366 2.240 . S
O367 C372 1.279 . S
O368 Cd365 2.297 . S
O368 C370 1.247 . S
O369 Cd365 2.439 . S
O369 C370 1.208 . S
C370 O368 1.247 . S
C370 O369 1.208 . S
C371 O376 1.247 . S
C371 O377 1.208 . S
C372 O364 1.315 . S
C372 O367 1.279 . S
C373 O374 1.315 . S
C373 O375 1.279 . S
O374 Cd366 2.223 . S
O374 C373 1.315 . S
O375 Cd365 2.240 . S
O375 C373 1.279 . S
O376 Cd366 2.297 . S
O376 C371 1.247 . S
O377 Cd366 2.439 . S
O377 C371 1.208 . S
O378 Cd379 2.223 . S
O378 C386 1.315 . S
Cd379 O378 2.223 . S
Cd379 O382 2.297 . S
Cd379 O383 2.439 . S
Cd379 O389 2.240 . S
Cd380 O381 2.240 . S
Cd380 O388 2.223 . S
Cd380 O390 2.297 . S
Cd380 O391 2.439 . S
O381 Cd380 2.240 . S
O381 C386 1.279 . S
O382 Cd379 2.297 . S
O382 C384 1.247 . S
O383 Cd379 2.439 . S
O383 C384 1.208 . S
C384 O382 1.247 . S
C384 O383 1.208 . S
C385 O390 1.247 . S
C385 O391 1.208 . S
C386 O378 1.315 . S
C386 O381 1.279 . S
C387 O388 1.315 . S
C387 O389 1.279 . S
O388 Cd380 2.223 . S
O388 C387 1.315 . S
O389 Cd379 2.240 . S
O389 C387 1.279 . S
O390 Cd380 2.297 . S
O390 C385 1.247 . S
O391 Cd380 2.439 . S
O391 C385 1.208 . S
O392 Cd393 2.223 . S
O392 C400 1.315 . S
Cd393 O392 2.223 . S
Cd393 O396 2.297 . S
Cd393 O397 2.439 . S
Cd393 O403 2.240 . S
Cd394 O395 2.240 . S
Cd394 O402 2.223 . S
Cd394 O404 2.297 . S
Cd394 O405 2.439 . S
O395 Cd394 2.240 . S
O395 C400 1.279 . S
O396 Cd393 2.297 . S
O396 C398 1.247 . S
O397 Cd393 2.439 . S
O397 C398 1.208 . S
C398 O396 1.247 . S
C398 O397 1.208 . S
C399 O404 1.247 . S
C399 O405 1.208 . S
C400 O392 1.315 . S
C400 O395 1.279 . S
C401 O402 1.315 . S
C401 O403 1.279 . S
O402 Cd394 2.223 . S
O402 C401 1.315 . S
O403 Cd393 2.240 . S
O403 C401 1.279 . S
O404 Cd394 2.297 . S
O404 C399 1.247 . S
O405 Cd394 2.439 . S
O405 C399 1.208 . S
O406 Cd407 2.223 . S
O406 C414 1.315 . S
Cd407 O406 2.223 . S
Cd407 O410 2.297 . S
Cd407 O411 2.439 . S
Cd407 O417 2.240 . S
Cd408 O409 2.240 . S
Cd408 O416 2.223 . S
Cd408 O418 2.297 . S
Cd408 O419 2.439 . S
O409 Cd408 2.240 . S
O409 C414 1.279 . S
O410 Cd407 2.297 . S
O410 C412 1.247 . S
O411 Cd407 2.439 . S
O411 C412 1.208 . S
C412 O410 1.247 . S
C412 O411 1.208 . S
C413 O418 1.247 . S
C413 O419 1.208 . S
C414 O406 1.315 . S
C414 O409 1.279 . S
C415 O416 1.315 . S
C415 O417 1.279 . S
O416 Cd408 2.223 . S
O416 C415 1.315 . S
O417 Cd407 2.240 . S
O417 C415 1.279 . S
O418 Cd408 2.297 . S
O418 C413 1.247 . S
O419 Cd408 2.439 . S
O419 C413 1.208 . S
O420 Cd421 2.223 . S
O420 C428 1.315 . S
Cd421 O420 2.223 . S
Cd421 O424 2.297 . S
Cd421 O425 2.439 . S
Cd421 O431 2.240 . S
Cd422 O423 2.240 . S
Cd422 O430 2.223 . S
Cd422 O432 2.297 . S
Cd422 O433 2.439 . S
O423 Cd422 2.240 . S
O423 C428 1.279 . S
O424 Cd421 2.297 . S
O424 C426 1.247 . S
O425 Cd421 2.439 . S
O425 C426 1.208 . S
C426 O424 1.247 . S
C426 O425 1.208 . S
C427 O432 1.247 . S
C427 O433 1.208 . S
C428 O420 1.315 . S
C428 O423 1.279 . S
C429 O430 1.315 . S
C429 O431 1.279 . S
O430 Cd422 2.223 . S
O430 C429 1.315 . S
O431 Cd421 2.240 . S
O431 C429 1.279 . S
O432 Cd422 2.297 . S
O432 C427 1.247 . S
O433 Cd422 2.439 . S
O433 C427 1.208 . S
O434 Cd435 2.223 . S
O434 C442 1.315 . S
Cd435 O434 2.223 . S
Cd435 O438 2.297 . S
Cd435 O439 2.439 . S
Cd435 O445 2.240 . S
Cd436 O437 2.240 . S
Cd436 O444 2.223 . S
Cd436 O446 2.297 . S
Cd436 O447 2.439 . S
O437 Cd436 2.240 . S
O437 C442 1.279 . S
O438 Cd435 2.297 . S
O438 C440 1.247 . S
O439 Cd435 2.439 . S
O439 C440 1.208 . S
C440 O438 1.247 . S
C440 O439 1.208 . S
C441 O446 1.247 . S
C441 O447 1.208 . S
C442 O434 1.315 . S
C442 O437 1.279 . S
C443 O444 1.315 . S
C443 O445 1.279 . S
O444 Cd436 2.223 . S
O444 C443 1.315 . S
O445 Cd435 2.240 . S
O445 C443 1.279 . S
O446 Cd436 2.297 . S
O446 C441 1.247 . S
O447 Cd436 2.439 . S
O447 C441 1.208 . S
H448 C456 0.929 . S
H449 C458 0.930 . S
H450 C460 0.930 . S
H451 C463 0.929 . S
H452 C466 0.930 . S
H453 C468 0.960 . S
H454 C468 0.960 . S
H455 C468 0.960 . S
C456 H448 0.929 . S
C456 C457 1.377 . S
C456 C458 1.384 . S
C457 C456 1.377 . S
C457 C463 1.390 . S
C458 H449 0.930 . S
C458 C456 1.384 . S
C458 C459 1.372 . S
C459 C458 1.372 . S
C459 C460 1.400 . S
C459 C464 1.490 . S
C460 H450 0.930 . S
C460 C459 1.400 . S
C460 C463 1.386 . S
H461 C477 0.930 . S
H462 C478 0.931 . S
C463 H451 0.929 . S
C463 C457 1.390 . S
C463 C460 1.386 . S
C464 C459 1.490 . S
C464 C466 1.395 . S
C464 C467 1.403 . S
H465 C471 0.930 . S
C466 H452 0.930 . S
C466 C464 1.395 . S
C466 C469 1.403 . S
C467 C464 1.403 . S
C467 C468 1.524 . S
C467 C471 1.400 . S
C468 H453 0.960 . S
C468 H454 0.960 . S
C468 H455 0.960 . S
C468 C467 1.524 . S
C469 C466 1.403 . S
C469 C470 1.392 . S
C469 C473 1.495 . S
C470 C469 1.392 . S
C470 C471 1.385 . S
C470 C472 1.478 . S
C471 H465 0.930 . S
C471 C467 1.400 . S
C471 C470 1.385 . S
C472 C470 1.478 . S
C472 C474 1.381 . S
C472 C478 1.383 . S
C473 C469 1.495 . S
C473 H479 0.959 . S
C473 H480 0.961 . S
C473 H481 0.960 . S
C474 C472 1.381 . S
C474 C475 1.394 . S
C474 H482 0.930 . S
C475 C474 1.394 . S
C475 C476 1.383 . S
C475 H483 0.929 . S
C476 C475 1.383 . S
C476 C477 1.377 . S
C477 H461 0.930 . S
C477 C476 1.377 . S
C477 C478 1.379 . S
C478 H462 0.931 . S
C478 C472 1.383 . S
C478 C477 1.379 . S
H479 C473 0.959 . S
H480 C473 0.961 . S
H481 C473 0.960 . S
H482 C474 0.930 . S
H483 C475 0.929 . S
H484 C492 0.929 . S
H485 C494 0.930 . S
H486 C496 0.930 . S
H487 C499 0.929 . S
H488 C502 0.930 . S
H489 C504 0.960 . S
H490 C504 0.960 . S
H491 C504 0.960 . S
C492 H484 0.929 . S
C492 C493 1.377 . S
C492 C494 1.384 . S
C493 C492 1.377 . S
C493 C499 1.390 . S
C494 H485 0.930 . S
C494 C492 1.384 . S
C494 C495 1.372 . S
C495 C494 1.372 . S
C495 C496 1.400 . S
C495 C500 1.490 . S
C496 H486 0.930 . S
C496 C495 1.400 . S
C496 C499 1.386 . S
H497 C513 0.930 . S
H498 C514 0.931 . S
C499 H487 0.929 . S
C499 C493 1.390 . S
C499 C496 1.386 . S
C500 C495 1.490 . S
C500 C502 1.395 . S
C500 C503 1.403 . S
H501 C507 0.930 . S
C502 H488 0.930 . S
C502 C500 1.395 . S
C502 C505 1.403 . S
C503 C500 1.403 . S
C503 C504 1.524 . S
C503 C507 1.400 . S
C504 H489 0.960 . S
C504 H490 0.960 . S
C504 H491 0.960 . S
C504 C503 1.524 . S
C505 C502 1.403 . S
C505 C506 1.392 . S
C505 C509 1.495 . S
C506 C505 1.392 . S
C506 C507 1.385 . S
C506 C508 1.478 . S
C507 H501 0.930 . S
C507 C503 1.400 . S
C507 C506 1.385 . S
C508 C506 1.478 . S
C508 C510 1.381 . S
C508 C514 1.383 . S
C509 C505 1.495 . S
C509 H515 0.959 . S
C509 H516 0.961 . S
C509 H517 0.960 . S
C510 C508 1.381 . S
C510 C511 1.394 . S
C510 H518 0.930 . S
C511 C510 1.394 . S
C511 C512 1.383 . S
C511 H519 0.929 . S
C512 C511 1.383 . S
C512 C513 1.377 . S
C513 H497 0.930 . S
C513 C512 1.377 . S
C513 C514 1.379 . S
C514 H498 0.931 . S
C514 C508 1.383 . S
C514 C513 1.379 . S
H515 C509 0.959 . S
H516 C509 0.961 . S
H517 C509 0.960 . S
H518 C510 0.930 . S
H519 C511 0.929 . S
H520 C528 0.929 . S
H521 C530 0.930 . S
H522 C532 0.930 . S
H523 C535 0.929 . S
H524 C538 0.930 . S
H525 C540 0.960 . S
H526 C540 0.960 . S
H527 C540 0.960 . S
C528 H520 0.929 . S
C528 C529 1.377 . S
C528 C530 1.384 . S
C529 C528 1.377 . S
C529 C535 1.390 . S
C530 H521 0.930 . S
C530 C528 1.384 . S
C530 C531 1.372 . S
C531 C530 1.372 . S
C531 C532 1.400 . S
C531 C536 1.490 . S
C532 H522 0.930 . S
C532 C531 1.400 . S
C532 C535 1.386 . S
H533 C549 0.930 . S
H534 C550 0.931 . S
C535 H523 0.929 . S
C535 C529 1.390 . S
C535 C532 1.386 . S
C536 C531 1.490 . S
C536 C538 1.395 . S
C536 C539 1.403 . S
H537 C543 0.930 . S
C538 H524 0.930 . S
C538 C536 1.395 . S
C538 C541 1.403 . S
C539 C536 1.403 . S
C539 C540 1.524 . S
C539 C543 1.400 . S
C540 H525 0.960 . S
C540 H526 0.960 . S
C540 H527 0.960 . S
C540 C539 1.524 . S
C541 C538 1.403 . S
C541 C542 1.392 . S
C541 C545 1.495 . S
C542 C541 1.392 . S
C542 C543 1.385 . S
C542 C544 1.478 . S
C543 H537 0.930 . S
C543 C539 1.400 . S
C543 C542 1.385 . S
C544 C542 1.478 . S
C544 C546 1.381 . S
C544 C550 1.383 . S
C545 C541 1.495 . S
C545 H551 0.959 . S
C545 H552 0.961 . S
C545 H553 0.960 . S
C546 C544 1.381 . S
C546 C547 1.394 . S
C546 H554 0.930 . S
C547 C546 1.394 . S
C547 C548 1.383 . S
C547 H555 0.929 . S
C548 C547 1.383 . S
C548 C549 1.377 . S
C549 H533 0.930 . S
C549 C548 1.377 . S
C549 C550 1.379 . S
C550 H534 0.931 . S
C550 C544 1.383 . S
C550 C549 1.379 . S
H551 C545 0.959 . S
H552 C545 0.961 . S
H553 C545 0.960 . S
H554 C546 0.930 . S
H555 C547 0.929 . S
H556 C564 0.929 . S
H557 C566 0.930 . S
H558 C568 0.930 . S
H559 C571 0.929 . S
H560 C574 0.930 . S
H561 C576 0.960 . S
H562 C576 0.960 . S
H563 C576 0.960 . S
C564 H556 0.929 . S
C564 C565 1.377 . S
C564 C566 1.384 . S
C565 C564 1.377 . S
C565 C571 1.390 . S
C566 H557 0.930 . S
C566 C564 1.384 . S
C566 C567 1.372 . S
C567 C566 1.372 . S
C567 C568 1.400 . S
C567 C572 1.490 . S
C568 H558 0.930 . S
C568 C567 1.400 . S
C568 C571 1.386 . S
H569 C585 0.930 . S
H570 C586 0.931 . S
C571 H559 0.929 . S
C571 C565 1.390 . S
C571 C568 1.386 . S
C572 C567 1.490 . S
C572 C574 1.395 . S
C572 C575 1.403 . S
H573 C579 0.930 . S
C574 H560 0.930 . S
C574 C572 1.395 . S
C574 C577 1.403 . S
C575 C572 1.403 . S
C575 C576 1.524 . S
C575 C579 1.400 . S
C576 H561 0.960 . S
C576 H562 0.960 . S
C576 H563 0.960 . S
C576 C575 1.524 . S
C577 C574 1.403 . S
C577 C578 1.392 . S
C577 C581 1.495 . S
C578 C577 1.392 . S
C578 C579 1.385 . S
C578 C580 1.478 . S
C579 H573 0.930 . S
C579 C575 1.400 . S
C579 C578 1.385 . S
C580 C578 1.478 . S
C580 C582 1.381 . S
C580 C586 1.383 . S
C581 C577 1.495 . S
C581 H587 0.959 . S
C581 H588 0.961 . S
C581 H589 0.960 . S
C582 C580 1.381 . S
C582 C583 1.394 . S
C582 H590 0.930 . S
C583 C582 1.394 . S
C583 C584 1.383 . S
C583 H591 0.929 . S
C584 C583 1.383 . S
C584 C585 1.377 . S
C585 H569 0.930 . S
C585 C584 1.377 . S
C585 C586 1.379 . S
C586 H570 0.931 . S
C586 C580 1.383 . S
C586 C585 1.379 . S
H587 C581 0.959 . S
H588 C581 0.961 . S
H589 C581 0.960 . S
H590 C582 0.930 . S
H591 C583 0.929 . S
H592 C600 0.929 . S
H593 C602 0.930 . S
H594 C604 0.930 . S
H595 C607 0.929 . S
H596 C610 0.930 . S
H597 C612 0.960 . S
H598 C612 0.960 . S
H599 C612 0.960 . S
C600 H592 0.929 . S
C600 C601 1.377 . S
C600 C602 1.384 . S
C601 C600 1.377 . S
C601 C607 1.390 . S
C602 H593 0.930 . S
C602 C600 1.384 . S
C602 C603 1.372 . S
C603 C602 1.372 . S
C603 C604 1.400 . S
C603 C608 1.490 . S
C604 H594 0.930 . S
C604 C603 1.400 . S
C604 C607 1.386 . S
H605 C621 0.930 . S
H606 C622 0.931 . S
C607 H595 0.929 . S
C607 C601 1.390 . S
C607 C604 1.386 . S
C608 C603 1.490 . S
C608 C610 1.395 . S
C608 C611 1.403 . S
H609 C615 0.930 . S
C610 H596 0.930 . S
C610 C608 1.395 . S
C610 C613 1.403 . S
C611 C608 1.403 . S
C611 C612 1.524 . S
C611 C615 1.400 . S
C612 H597 0.960 . S
C612 H598 0.960 . S
C612 H599 0.960 . S
C612 C611 1.524 . S
C613 C610 1.403 . S
C613 C614 1.392 . S
C613 C617 1.495 . S
C614 C613 1.392 . S
C614 C615 1.385 . S
C614 C616 1.478 . S
C615 H609 0.930 . S
C615 C611 1.400 . S
C615 C614 1.385 . S
C616 C614 1.478 . S
C616 C618 1.381 . S
C616 C622 1.383 . S
C617 C613 1.495 . S
C617 H623 0.959 . S
C617 H624 0.961 . S
C617 H625 0.960 . S
C618 C616 1.381 . S
C618 C619 1.394 . S
C618 H626 0.930 . S
C619 C618 1.394 . S
C619 C620 1.383 . S
C619 H627 0.929 . S
C620 C619 1.383 . S
C620 C621 1.377 . S
C621 H605 0.930 . S
C621 C620 1.377 . S
C621 C622 1.379 . S
C622 H606 0.931 . S
C622 C616 1.383 . S
C622 C621 1.379 . S
H623 C617 0.959 . S
H624 C617 0.961 . S
H625 C617 0.960 . S
H626 C618 0.930 . S
H627 C619 0.929 . S
H628 C636 0.929 . S
H629 C638 0.930 . S
H630 C640 0.930 . S
H631 C643 0.929 . S
H632 C646 0.930 . S
H633 C648 0.960 . S
H634 C648 0.960 . S
H635 C648 0.960 . S
C636 H628 0.929 . S
C636 C637 1.377 . S
C636 C638 1.384 . S
C637 C636 1.377 . S
C637 C643 1.390 . S
C638 H629 0.930 . S
C638 C636 1.384 . S
C638 C639 1.372 . S
C639 C638 1.372 . S
C639 C640 1.400 . S
C639 C644 1.490 . S
C640 H630 0.930 . S
C640 C639 1.400 . S
C640 C643 1.386 . S
H641 C657 0.930 . S
H642 C658 0.931 . S
C643 H631 0.929 . S
C643 C637 1.390 . S
C643 C640 1.386 . S
C644 C639 1.490 . S
C644 C646 1.395 . S
C644 C647 1.403 . S
H645 C651 0.930 . S
C646 H632 0.930 . S
C646 C644 1.395 . S
C646 C649 1.403 . S
C647 C644 1.403 . S
C647 C648 1.524 . S
C647 C651 1.400 . S
C648 H633 0.960 . S
C648 H634 0.960 . S
C648 H635 0.960 . S
C648 C647 1.524 . S
C649 C646 1.403 . S
C649 C650 1.392 . S
C649 C653 1.495 . S
C650 C649 1.392 . S
C650 C651 1.385 . S
C650 C652 1.478 . S
C651 H645 0.930 . S
C651 C647 1.400 . S
C651 C650 1.385 . S
C652 C650 1.478 . S
C652 C654 1.381 . S
C652 C658 1.383 . S
C653 C649 1.495 . S
C653 H659 0.959 . S
C653 H660 0.961 . S
C653 H661 0.960 . S
C654 C652 1.381 . S
C654 C655 1.394 . S
C654 H662 0.930 . S
C655 C654 1.394 . S
C655 C656 1.383 . S
C655 H663 0.929 . S
C656 C655 1.383 . S
C656 C657 1.377 . S
C657 H641 0.930 . S
C657 C656 1.377 . S
C657 C658 1.379 . S
C658 H642 0.931 . S
C658 C652 1.383 . S
C658 C657 1.379 . S
H659 C653 0.959 . S
H660 C653 0.961 . S
H661 C653 0.960 . S
H662 C654 0.930 . S
H663 C655 0.929 . S
H664 C672 0.929 . S
H665 C674 0.930 . S
H666 C676 0.930 . S
H667 C679 0.929 . S
H668 C682 0.930 . S
H669 C684 0.960 . S
H670 C684 0.960 . S
H671 C684 0.960 . S
C672 H664 0.929 . S
C672 C673 1.377 . S
C672 C674 1.384 . S
C673 C672 1.377 . S
C673 C679 1.390 . S
C674 H665 0.930 . S
C674 C672 1.384 . S
C674 C675 1.372 . S
C675 C674 1.372 . S
C675 C676 1.400 . S
C675 C680 1.490 . S
C676 H666 0.930 . S
C676 C675 1.400 . S
C676 C679 1.386 . S
H677 C693 0.930 . S
H678 C694 0.931 . S
C679 H667 0.929 . S
C679 C673 1.390 . S
C679 C676 1.386 . S
C680 C675 1.490 . S
C680 C682 1.395 . S
C680 C683 1.403 . S
H681 C687 0.930 . S
C682 H668 0.930 . S
C682 C680 1.395 . S
C682 C685 1.403 . S
C683 C680 1.403 . S
C683 C684 1.524 . S
C683 C687 1.400 . S
C684 H669 0.960 . S
C684 H670 0.960 . S
C684 H671 0.960 . S
C684 C683 1.524 . S
C685 C682 1.403 . S
C685 C686 1.392 . S
C685 C689 1.495 . S
C686 C685 1.392 . S
C686 C687 1.385 . S
C686 C688 1.478 . S
C687 H681 0.930 . S
C687 C683 1.400 . S
C687 C686 1.385 . S
C688 C686 1.478 . S
C688 C690 1.381 . S
C688 C694 1.383 . S
C689 C685 1.495 . S
C689 H695 0.959 . S
C689 H696 0.961 . S
C689 H697 0.960 . S
C690 C688 1.381 . S
C690 C691 1.394 . S
C690 H698 0.930 . S
C691 C690 1.394 . S
C691 C692 1.383 . S
C691 H699 0.929 . S
C692 C691 1.383 . S
C692 C693 1.377 . S
C693 H677 0.930 . S
C693 C692 1.377 . S
C693 C694 1.379 . S
C694 H678 0.931 . S
C694 C688 1.383 . S
C694 C693 1.379 . S
H695 C689 0.959 . S
H696 C689 0.961 . S
H697 C689 0.960 . S
H698 C690 0.930 . S
H699 C691 0.929 . S
H700 C708 0.929 . S
H701 C710 0.930 . S
H702 C712 0.930 . S
H703 C715 0.929 . S
H704 C718 0.930 . S
H705 C720 0.960 . S
H706 C720 0.960 . S
H707 C720 0.960 . S
C708 H700 0.929 . S
C708 C709 1.377 . S
C708 C710 1.384 . S
C709 C708 1.377 . S
C709 C715 1.390 . S
C710 H701 0.930 . S
C710 C708 1.384 . S
C710 C711 1.372 . S
C711 C710 1.372 . S
C711 C712 1.400 . S
C711 C716 1.490 . S
C712 H702 0.930 . S
C712 C711 1.400 . S
C712 C715 1.386 . S
H713 C729 0.930 . S
H714 C730 0.931 . S
C715 H703 0.929 . S
C715 C709 1.390 . S
C715 C712 1.386 . S
C716 C711 1.490 . S
C716 C718 1.395 . S
C716 C719 1.403 . S
H717 C723 0.930 . S
C718 H704 0.930 . S
C718 C716 1.395 . S
C718 C721 1.403 . S
C719 C716 1.403 . S
C719 C720 1.524 . S
C719 C723 1.400 . S
C720 H705 0.960 . S
C720 H706 0.960 . S
C720 H707 0.960 . S
C720 C719 1.524 . S
C721 C718 1.403 . S
C721 C722 1.392 . S
C721 C725 1.495 . S
C722 C721 1.392 . S
C722 C723 1.385 . S
C722 C724 1.478 . S
C723 H717 0.930 . S
C723 C719 1.400 . S
C723 C722 1.385 . S
C724 C722 1.478 . S
C724 C726 1.381 . S
C724 C730 1.383 . S
C725 C721 1.495 . S
C725 H731 0.959 . S
C725 H732 0.961 . S
C725 H733 0.960 . S
C726 C724 1.381 . S
C726 C727 1.394 . S
C726 H734 0.930 . S
C727 C726 1.394 . S
C727 C728 1.383 . S
C727 H735 0.929 . S
C728 C727 1.383 . S
C728 C729 1.377 . S
C729 H713 0.930 . S
C729 C728 1.377 . S
C729 C730 1.379 . S
C730 H714 0.931 . S
C730 C724 1.383 . S
C730 C729 1.379 . S
H731 C725 0.959 . S
H732 C725 0.961 . S
H733 C725 0.960 . S
H734 C726 0.930 . S
H735 C727 0.929 . S
H736 C744 0.929 . S
H737 C746 0.930 . S
H738 C748 0.930 . S
H739 C751 0.929 . S
H740 C754 0.930 . S
H741 C756 0.960 . S
H742 C756 0.960 . S
H743 C756 0.960 . S
C744 H736 0.929 . S
C744 C745 1.377 . S
C744 C746 1.384 . S
C745 C744 1.377 . S
C745 C751 1.390 . S
C746 H737 0.930 . S
C746 C744 1.384 . S
C746 C747 1.372 . S
C747 C746 1.372 . S
C747 C748 1.400 . S
C747 C752 1.490 . S
C748 H738 0.930 . S
C748 C747 1.400 . S
C748 C751 1.386 . S
H749 C765 0.930 . S
H750 C766 0.931 . S
C751 H739 0.929 . S
C751 C745 1.390 . S
C751 C748 1.386 . S
C752 C747 1.490 . S
C752 C754 1.395 . S
C752 C755 1.403 . S
H753 C759 0.930 . S
C754 H740 0.930 . S
C754 C752 1.395 . S
C754 C757 1.403 . S
C755 C752 1.403 . S
C755 C756 1.524 . S
C755 C759 1.400 . S
C756 H741 0.960 . S
C756 H742 0.960 . S
C756 H743 0.960 . S
C756 C755 1.524 . S
C757 C754 1.403 . S
C757 C758 1.392 . S
C757 C761 1.495 . S
C758 C757 1.392 . S
C758 C759 1.385 . S
C758 C760 1.478 . S
C759 H753 0.930 . S
C759 C755 1.400 . S
C759 C758 1.385 . S
C760 C758 1.478 . S
C760 C762 1.381 . S
C760 C766 1.383 . S
C761 C757 1.495 . S
C761 H767 0.959 . S
C761 H768 0.961 . S
C761 H769 0.960 . S
C762 C760 1.381 . S
C762 C763 1.394 . S
C762 H770 0.930 . S
C763 C762 1.394 . S
C763 C764 1.383 . S
C763 H771 0.929 . S
C764 C763 1.383 . S
C764 C765 1.377 . S
C765 H749 0.930 . S
C765 C764 1.377 . S
C765 C766 1.379 . S
C766 H750 0.931 . S
C766 C760 1.383 . S
C766 C765 1.379 . S
H767 C761 0.959 . S
H768 C761 0.961 . S
H769 C761 0.960 . S
H770 C762 0.930 . S
H771 C763 0.929 . S
H772 C780 0.929 . S
H773 C782 0.930 . S
H774 C784 0.930 . S
H775 C787 0.929 . S
H776 C790 0.930 . S
H777 C792 0.960 . S
H778 C792 0.960 . S
H779 C792 0.960 . S
C780 H772 0.929 . S
C780 C781 1.377 . S
C780 C782 1.384 . S
C781 C780 1.377 . S
C781 C787 1.390 . S
C782 H773 0.930 . S
C782 C780 1.384 . S
C782 C783 1.372 . S
C783 C782 1.372 . S
C783 C784 1.400 . S
C783 C788 1.490 . S
C784 H774 0.930 . S
C784 C783 1.400 . S
C784 C787 1.386 . S
H785 C801 0.930 . S
H786 C802 0.931 . S
C787 H775 0.929 . S
C787 C781 1.390 . S
C787 C784 1.386 . S
C788 C783 1.490 . S
C788 C790 1.395 . S
C788 C791 1.403 . S
H789 C795 0.930 . S
C790 H776 0.930 . S
C790 C788 1.395 . S
C790 C793 1.403 . S
C791 C788 1.403 . S
C791 C792 1.524 . S
C791 C795 1.400 . S
C792 H777 0.960 . S
C792 H778 0.960 . S
C792 H779 0.960 . S
C792 C791 1.524 . S
C793 C790 1.403 . S
C793 C794 1.392 . S
C793 C797 1.495 . S
C794 C793 1.392 . S
C794 C795 1.385 . S
C794 C796 1.478 . S
C795 H789 0.930 . S
C795 C791 1.400 . S
C795 C794 1.385 . S
C796 C794 1.478 . S
C796 C798 1.381 . S
C796 C802 1.383 . S
C797 C793 1.495 . S
C797 H803 0.959 . S
C797 H804 0.961 . S
C797 H805 0.960 . S
C798 C796 1.381 . S
C798 C799 1.394 . S
C798 H806 0.930 . S
C799 C798 1.394 . S
C799 C800 1.383 . S
C799 H807 0.929 . S
C800 C799 1.383 . S
C800 C801 1.377 . S
C801 H785 0.930 . S
C801 C800 1.377 . S
C801 C802 1.379 . S
C802 H786 0.931 . S
C802 C796 1.383 . S
C802 C801 1.379 . S
H803 C797 0.959 . S
H804 C797 0.961 . S
H805 C797 0.960 . S
H806 C798 0.930 . S
H807 C799 0.929 . S
H808 C816 0.929 . S
H809 C818 0.930 . S
H810 C820 0.930 . S
H811 C823 0.929 . S
H812 C826 0.930 . S
H813 C828 0.960 . S
H814 C828 0.960 . S
H815 C828 0.960 . S
C816 H808 0.929 . S
C816 C817 1.377 . S
C816 C818 1.384 . S
C817 C816 1.377 . S
C817 C823 1.390 . S
C818 H809 0.930 . S
C818 C816 1.384 . S
C818 C819 1.372 . S
C819 C818 1.372 . S
C819 C820 1.400 . S
C819 C824 1.490 . S
C820 H810 0.930 . S
C820 C819 1.400 . S
C820 C823 1.386 . S
H821 C837 0.930 . S
H822 C838 0.931 . S
C823 H811 0.929 . S
C823 C817 1.390 . S
C823 C820 1.386 . S
C824 C819 1.490 . S
C824 C826 1.395 . S
C824 C827 1.403 . S
H825 C831 0.930 . S
C826 H812 0.930 . S
C826 C824 1.395 . S
C826 C829 1.403 . S
C827 C824 1.403 . S
C827 C828 1.524 . S
C827 C831 1.400 . S
C828 H813 0.960 . S
C828 H814 0.960 . S
C828 H815 0.960 . S
C828 C827 1.524 . S
C829 C826 1.403 . S
C829 C830 1.392 . S
C829 C833 1.495 . S
C830 C829 1.392 . S
C830 C831 1.385 . S
C830 C832 1.478 . S
C831 H825 0.930 . S
C831 C827 1.400 . S
C831 C830 1.385 . S
C832 C830 1.478 . S
C832 C834 1.381 . S
C832 C838 1.383 . S
C833 C829 1.495 . S
C833 H839 0.959 . S
C833 H840 0.961 . S
C833 H841 0.960 . S
C834 C832 1.381 . S
C834 C835 1.394 . S
C834 H842 0.930 . S
C835 C834 1.394 . S
C835 C836 1.383 . S
C835 H843 0.929 . S
C836 C835 1.383 . S
C836 C837 1.377 . S
C837 H821 0.930 . S
C837 C836 1.377 . S
C837 C838 1.379 . S
C838 H822 0.931 . S
C838 C832 1.383 . S
C838 C837 1.379 . S
H839 C833 0.959 . S
H840 C833 0.961 . S
H841 C833 0.960 . S
H842 C834 0.930 . S
H843 C835 0.929 . S
H844 C852 0.929 . S
H845 C854 0.930 . S
H846 C856 0.930 . S
H847 C859 0.929 . S
H848 C862 0.930 . S
H849 C864 0.960 . S
H850 C864 0.960 . S
H851 C864 0.960 . S
C852 H844 0.929 . S
C852 C853 1.377 . S
C852 C854 1.384 . S
C853 C852 1.377 . S
C853 C859 1.390 . S
C854 H845 0.930 . S
C854 C852 1.384 . S
C854 C855 1.372 . S
C855 C854 1.372 . S
C855 C856 1.400 . S
C855 C860 1.490 . S
C856 H846 0.930 . S
C856 C855 1.400 . S
C856 C859 1.386 . S
H857 C873 0.930 . S
H858 C874 0.931 . S
C859 H847 0.929 . S
C859 C853 1.390 . S
C859 C856 1.386 . S
C860 C855 1.490 . S
C860 C862 1.395 . S
C860 C863 1.403 . S
H861 C867 0.930 . S
C862 H848 0.930 . S
C862 C860 1.395 . S
C862 C865 1.403 . S
C863 C860 1.403 . S
C863 C864 1.524 . S
C863 C867 1.400 . S
C864 H849 0.960 . S
C864 H850 0.960 . S
C864 H851 0.960 . S
C864 C863 1.524 . S
C865 C862 1.403 . S
C865 C866 1.392 . S
C865 C869 1.495 . S
C866 C865 1.392 . S
C866 C867 1.385 . S
C866 C868 1.478 . S
C867 H861 0.930 . S
C867 C863 1.400 . S
C867 C866 1.385 . S
C868 C866 1.478 . S
C868 C870 1.381 . S
C868 C874 1.383 . S
C869 C865 1.495 . S
C869 H875 0.959 . S
C869 H876 0.961 . S
C869 H877 0.960 . S
C870 C868 1.381 . S
C870 C871 1.394 . S
C870 H878 0.930 . S
C871 C870 1.394 . S
C871 C872 1.383 . S
C871 H879 0.929 . S
C872 C871 1.383 . S
C872 C873 1.377 . S
C873 H857 0.930 . S
C873 C872 1.377 . S
C873 C874 1.379 . S
C874 H858 0.931 . S
C874 C868 1.383 . S
C874 C873 1.379 . S
H875 C869 0.959 . S
H876 C869 0.961 . S
H877 C869 0.960 . S
H878 C870 0.930 . S
H879 C871 0.929 . S
H880 C888 0.929 . S
H881 C890 0.930 . S
H882 C892 0.930 . S
H883 C895 0.929 . S
H884 C898 0.930 . S
H885 C900 0.960 . S
H886 C900 0.960 . S
H887 C900 0.960 . S
C888 H880 0.929 . S
C888 C889 1.377 . S
C888 C890 1.384 . S
C889 C888 1.377 . S
C889 C895 1.390 . S
C890 H881 0.930 . S
C890 C888 1.384 . S
C890 C891 1.372 . S
C891 C890 1.372 . S
C891 C892 1.400 . S
C891 C896 1.490 . S
C892 H882 0.930 . S
C892 C891 1.400 . S
C892 C895 1.386 . S
H893 C909 0.930 . S
H894 C910 0.931 . S
C895 H883 0.929 . S
C895 C889 1.390 . S
C895 C892 1.386 . S
C896 C891 1.490 . S
C896 C898 1.395 . S
C896 C899 1.403 . S
H897 C903 0.930 . S
C898 H884 0.930 . S
C898 C896 1.395 . S
C898 C901 1.403 . S
C899 C896 1.403 . S
C899 C900 1.524 . S
C899 C903 1.400 . S
C900 H885 0.960 . S
C900 H886 0.960 . S
C900 H887 0.960 . S
C900 C899 1.524 . S
C901 C898 1.403 . S
C901 C902 1.392 . S
C901 C905 1.495 . S
C902 C901 1.392 . S
C902 C903 1.385 . S
C902 C904 1.478 . S
C903 H897 0.930 . S
C903 C899 1.400 . S
C903 C902 1.385 . S
C904 C902 1.478 . S
C904 C906 1.381 . S
C904 C910 1.383 . S
C905 C901 1.495 . S
C905 H911 0.959 . S
C905 H912 0.961 . S
C905 H913 0.960 . S
C906 C904 1.381 . S
C906 C907 1.394 . S
C906 H914 0.930 . S
C907 C906 1.394 . S
C907 C908 1.383 . S
C907 H915 0.929 . S
C908 C907 1.383 . S
C908 C909 1.377 . S
C909 H893 0.930 . S
C909 C908 1.377 . S
C909 C910 1.379 . S
C910 H894 0.931 . S
C910 C904 1.383 . S
C910 C909 1.379 . S
H911 C905 0.959 . S
H912 C905 0.961 . S
H913 C905 0.960 . S
H914 C906 0.930 . S
H915 C907 0.929 . S
H916 C924 0.929 . S
H917 C926 0.930 . S
H918 C928 0.930 . S
H919 C931 0.929 . S
H920 C934 0.930 . S
H921 C936 0.960 . S
H922 C936 0.960 . S
H923 C936 0.960 . S
C924 H916 0.929 . S
C924 C925 1.377 . S
C924 C926 1.384 . S
C925 C924 1.377 . S
C925 C931 1.390 . S
C926 H917 0.930 . S
C926 C924 1.384 . S
C926 C927 1.372 . S
C927 C926 1.372 . S
C927 C928 1.400 . S
C927 C932 1.490 . S
C928 H918 0.930 . S
C928 C927 1.400 . S
C928 C931 1.386 . S
H929 C945 0.930 . S
H930 C946 0.931 . S
C931 H919 0.929 . S
C931 C925 1.390 . S
C931 C928 1.386 . S
C932 C927 1.490 . S
C932 C934 1.395 . S
C932 C935 1.403 . S
H933 C939 0.930 . S
C934 H920 0.930 . S
C934 C932 1.395 . S
C934 C937 1.403 . S
C935 C932 1.403 . S
C935 C936 1.524 . S
C935 C939 1.400 . S
C936 H921 0.960 . S
C936 H922 0.960 . S
C936 H923 0.960 . S
C936 C935 1.524 . S
C937 C934 1.403 . S
C937 C938 1.392 . S
C937 C941 1.495 . S
C938 C937 1.392 . S
C938 C939 1.385 . S
C938 C940 1.478 . S
C939 H933 0.930 . S
C939 C935 1.400 . S
C939 C938 1.385 . S
C940 C938 1.478 . S
C940 C942 1.381 . S
C940 C946 1.383 . S
C941 C937 1.495 . S
C941 H947 0.959 . S
C941 H948 0.961 . S
C941 H949 0.960 . S
C942 C940 1.381 . S
C942 C943 1.394 . S
C942 H950 0.930 . S
C943 C942 1.394 . S
C943 C944 1.383 . S
C943 H951 0.929 . S
C944 C943 1.383 . S
C944 C945 1.377 . S
C945 H929 0.930 . S
C945 C944 1.377 . S
C945 C946 1.379 . S
C946 H930 0.931 . S
C946 C940 1.383 . S
C946 C945 1.379 . S
H947 C941 0.959 . S
H948 C941 0.961 . S
H949 C941 0.960 . S
H950 C942 0.930 . S
H951 C943 0.929 . S
H952 C960 0.929 . S
H953 C962 0.930 . S
H954 C964 0.930 . S
H955 C967 0.929 . S
H956 C970 0.930 . S
H957 C972 0.960 . S
H958 C972 0.960 . S
H959 C972 0.960 . S
C960 H952 0.929 . S
C960 C961 1.377 . S
C960 C962 1.384 . S
C961 C960 1.377 . S
C961 C967 1.390 . S
C962 H953 0.930 . S
C962 C960 1.384 . S
C962 C963 1.372 . S
C963 C962 1.372 . S
C963 C964 1.400 . S
C963 C968 1.490 . S
C964 H954 0.930 . S
C964 C963 1.400 . S
C964 C967 1.386 . S
H965 C981 0.930 . S
H966 C982 0.931 . S
C967 H955 0.929 . S
C967 C961 1.390 . S
C967 C964 1.386 . S
C968 C963 1.490 . S
C968 C970 1.395 . S
C968 C971 1.403 . S
H969 C975 0.930 . S
C970 H956 0.930 . S
C970 C968 1.395 . S
C970 C973 1.403 . S
C971 C968 1.403 . S
C971 C972 1.524 . S
C971 C975 1.400 . S
C972 H957 0.960 . S
C972 H958 0.960 . S
C972 H959 0.960 . S
C972 C971 1.524 . S
C973 C970 1.403 . S
C973 C974 1.392 . S
C973 C977 1.495 . S
C974 C973 1.392 . S
C974 C975 1.385 . S
C974 C976 1.478 . S
C975 H969 0.930 . S
C975 C971 1.400 . S
C975 C974 1.385 . S
C976 C974 1.478 . S
C976 C978 1.381 . S
C976 C982 1.383 . S
C977 C973 1.495 . S
C977 H983 0.959 . S
C977 H984 0.961 . S
C977 H985 0.960 . S
C978 C976 1.381 . S
C978 C979 1.394 . S
C978 H986 0.930 . S
C979 C978 1.394 . S
C979 C980 1.383 . S
C979 H987 0.929 . S
C980 C979 1.383 . S
C980 C981 1.377 . S
C981 H965 0.930 . S
C981 C980 1.377 . S
C981 C982 1.379 . S
C982 H966 0.931 . S
C982 C976 1.383 . S
C982 C981 1.379 . S
H983 C977 0.959 . S
H984 C977 0.961 . S
H985 C977 0.960 . S
H986 C978 0.930 . S
H987 C979 0.929 . S
H988 C996 0.929 . S
H989 C998 0.930 . S
H990 C1000 0.930 . S
H991 C1003 0.929 . S
H992 C1006 0.930 . S
H993 C1008 0.960 . S
H994 C1008 0.960 . S
H995 C1008 0.960 . S
C996 H988 0.929 . S
C996 C997 1.377 . S
C996 C998 1.384 . S
C997 C996 1.377 . S
C997 C1003 1.390 . S
C998 H989 0.930 . S
C998 C996 1.384 . S
C998 C999 1.372 . S
C999 C998 1.372 . S
C999 C1000 1.400 . S
C999 C1004 1.490 . S
C1000 H990 0.930 . S
C1000 C999 1.400 . S
C1000 C1003 1.386 . S
H1001 C1017 0.930 . S
H1002 C1018 0.931 . S
C1003 H991 0.929 . S
C1003 C997 1.390 . S
C1003 C1000 1.386 . S
C1004 C999 1.490 . S
C1004 C1006 1.395 . S
C1004 C1007 1.403 . S
H1005 C1011 0.930 . S
C1006 H992 0.930 . S
C1006 C1004 1.395 . S
C1006 C1009 1.403 . S
C1007 C1004 1.403 . S
C1007 C1008 1.524 . S
C1007 C1011 1.400 . S
C1008 H993 0.960 . S
C1008 H994 0.960 . S
C1008 H995 0.960 . S
C1008 C1007 1.524 . S
C1009 C1006 1.403 . S
C1009 C1010 1.392 . S
C1009 C1013 1.495 . S
C1010 C1009 1.392 . S
C1010 C1011 1.385 . S
C1010 C1012 1.478 . S
C1011 H1005 0.930 . S
C1011 C1007 1.400 . S
C1011 C1010 1.385 . S
C1012 C1010 1.478 . S
C1012 C1014 1.381 . S
C1012 C1018 1.383 . S
C1013 C1009 1.495 . S
C1013 H1019 0.959 . S
C1013 H1020 0.961 . S
C1013 H1021 0.960 . S
C1014 C1012 1.381 . S
C1014 C1015 1.394 . S
C1014 H1022 0.930 . S
C1015 C1014 1.394 . S
C1015 C1016 1.383 . S
C1015 H1023 0.929 . S
C1016 C1015 1.383 . S
C1016 C1017 1.377 . S
C1017 H1001 0.930 . S
C1017 C1016 1.377 . S
C1017 C1018 1.379 . S
C1018 H1002 0.931 . S
C1018 C1012 1.383 . S
C1018 C1017 1.379 . S
H1019 C1013 0.959 . S
H1020 C1013 0.961 . S
H1021 C1013 0.960 . S
H1022 C1014 0.930 . S
H1023 C1015 0.929 . S
H1024 C1032 0.929 . S
H1025 C1034 0.930 . S
H1026 C1036 0.930 . S
H1027 C1039 0.929 . S
H1028 C1042 0.930 . S
H1029 C1044 0.960 . S
H1030 C1044 0.960 . S
H1031 C1044 0.960 . S
C1032 H1024 0.929 . S
C1032 C1033 1.377 . S
C1032 C1034 1.384 . S
C1033 C1032 1.377 . S
C1033 C1039 1.390 . S
C1034 H1025 0.930 . S
C1034 C1032 1.384 . S
C1034 C1035 1.372 . S
C1035 C1034 1.372 . S
C1035 C1036 1.400 . S
C1035 C1040 1.490 . S
C1036 H1026 0.930 . S
C1036 C1035 1.400 . S
C1036 C1039 1.386 . S
H1037 C1053 0.930 . S
H1038 C1054 0.931 . S
C1039 H1027 0.929 . S
C1039 C1033 1.390 . S
C1039 C1036 1.386 . S
C1040 C1035 1.490 . S
C1040 C1042 1.395 . S
C1040 C1043 1.403 . S
H1041 C1047 0.930 . S
C1042 H1028 0.930 . S
C1042 C1040 1.395 . S
C1042 C1045 1.403 1_655 S
C1043 C1040 1.403 . S
C1043 C1044 1.524 . S
C1043 C1047 1.400 1_655 S
C1044 H1029 0.960 . S
C1044 H1030 0.960 . S
C1044 H1031 0.960 . S
C1044 C1043 1.524 . S
C1045 C1042 1.403 1_455 S
C1045 C1046 1.392 . S
C1045 C1049 1.495 . S
C1046 C1045 1.392 . S
C1046 C1047 1.385 . S
C1046 C1048 1.478 . S
C1047 H1041 0.930 . S
C1047 C1043 1.400 1_455 S
C1047 C1046 1.385 . S
C1048 C1046 1.478 . S
C1048 C1050 1.381 . S
C1048 C1054 1.383 . S
C1049 C1045 1.495 . S
C1049 H1055 0.959 . S
C1049 H1056 0.961 . S
C1049 H1057 0.960 . S
C1050 C1048 1.381 . S
C1050 C1051 1.394 . S
C1050 H1058 0.930 . S
C1051 C1050 1.394 . S
C1051 C1052 1.383 . S
C1051 H1059 0.929 . S
C1052 C1051 1.383 . S
C1052 C1053 1.377 . S
C1053 H1037 0.930 . S
C1053 C1052 1.377 . S
C1053 C1054 1.379 . S
C1054 H1038 0.931 . S
C1054 C1048 1.383 . S
C1054 C1053 1.379 . S
H1055 C1049 0.959 . S
H1056 C1049 0.961 . S
H1057 C1049 0.960 . S
H1058 C1050 0.930 . S
H1059 C1051 0.929 . S
H1060 C1068 0.929 . S
H1061 C1070 0.930 . S
H1062 C1072 0.930 . S
H1063 C1075 0.929 . S
H1064 C1078 0.930 . S
H1065 C1080 0.960 . S
H1066 C1080 0.960 . S
H1067 C1080 0.960 . S
C1068 H1060 0.929 . S
C1068 C1069 1.377 . S
C1068 C1070 1.384 . S
C1069 C1068 1.377 . S
C1069 C1075 1.390 . S
C1070 H1061 0.930 . S
C1070 C1068 1.384 . S
C1070 C1071 1.372 . S
C1071 C1070 1.372 . S
C1071 C1072 1.400 . S
C1071 C1076 1.490 . S
C1072 H1062 0.930 . S
C1072 C1071 1.400 . S
C1072 C1075 1.386 . S
H1073 C1089 0.930 . S
H1074 C1090 0.931 . S
C1075 H1063 0.929 . S
C1075 C1069 1.390 . S
C1075 C1072 1.386 . S
C1076 C1071 1.490 . S
C1076 C1078 1.395 . S
C1076 C1079 1.403 . S
H1077 C1083 0.930 . S
C1078 H1064 0.930 . S
C1078 C1076 1.395 . S
C1078 C1081 1.403 1_545 S
C1079 C1076 1.403 . S
C1079 C1080 1.524 . S
C1079 C1083 1.400 1_545 S
C1080 H1065 0.960 . S
C1080 H1066 0.960 . S
C1080 H1067 0.960 . S
C1080 C1079 1.524 . S
C1081 C1078 1.403 1_565 S
C1081 C1082 1.392 . S
C1081 C1085 1.495 . S
C1082 C1081 1.392 . S
C1082 C1083 1.385 . S
C1082 C1084 1.478 . S
C1083 H1077 0.930 . S
C1083 C1079 1.400 1_565 S
C1083 C1082 1.385 . S
C1084 C1082 1.478 . S
C1084 C1086 1.381 . S
C1084 C1090 1.383 . S
C1085 C1081 1.495 . S
C1085 H1091 0.959 . S
C1085 H1092 0.961 . S
C1085 H1093 0.960 . S
C1086 C1084 1.381 . S
C1086 C1087 1.394 . S
C1086 H1094 0.930 . S
C1087 C1086 1.394 . S
C1087 C1088 1.383 . S
C1087 H1095 0.929 . S
C1088 C1087 1.383 . S
C1088 C1089 1.377 . S
C1089 H1073 0.930 . S
C1089 C1088 1.377 . S
C1089 C1090 1.379 . S
C1090 H1074 0.931 . S
C1090 C1084 1.383 . S
C1090 C1089 1.379 . S
H1091 C1085 0.959 . S
H1092 C1085 0.961 . S
H1093 C1085 0.960 . S
H1094 C1086 0.930 . S
H1095 C1087 0.929 . S
H1096 C1104 0.929 . S
H1097 C1106 0.930 . S
H1098 C1108 0.930 . S
H1099 C1111 0.929 . S
H1100 C1114 0.930 . S
H1101 C1116 0.960 . S
H1102 C1116 0.960 . S
H1103 C1116 0.960 . S
C1104 H1096 0.929 . S
C1104 C1105 1.377 . S
C1104 C1106 1.384 . S
C1105 C1104 1.377 . S
C1105 C1111 1.390 . S
C1106 H1097 0.930 . S
C1106 C1104 1.384 . S
C1106 C1107 1.372 . S
C1107 C1106 1.372 . S
C1107 C1108 1.400 . S
C1107 C1112 1.490 . S
C1108 H1098 0.930 . S
C1108 C1107 1.400 . S
C1108 C1111 1.386 . S
H1109 C1125 0.930 . S
H1110 C1126 0.931 . S
C1111 H1099 0.929 . S
C1111 C1105 1.390 . S
C1111 C1108 1.386 . S
C1112 C1107 1.490 . S
C1112 C1114 1.395 . S
C1112 C1115 1.403 . S
H1113 C1119 0.930 . S
C1114 H1100 0.930 . S
C1114 C1112 1.395 . S
C1114 C1117 1.403 1_455 S
C1115 C1112 1.403 . S
C1115 C1116 1.524 . S
C1115 C1119 1.400 1_455 S
C1116 H1101 0.960 . S
C1116 H1102 0.960 . S
C1116 H1103 0.960 . S
C1116 C1115 1.524 . S
C1117 C1114 1.403 1_655 S
C1117 C1118 1.392 . S
C1117 C1121 1.495 . S
C1118 C1117 1.392 . S
C1118 C1119 1.385 . S
C1118 C1120 1.478 . S
C1119 H1113 0.930 . S
C1119 C1115 1.400 1_655 S
C1119 C1118 1.385 . S
C1120 C1118 1.478 . S
C1120 C1122 1.381 . S
C1120 C1126 1.383 . S
C1121 C1117 1.495 . S
C1121 H1127 0.959 . S
C1121 H1128 0.961 . S
C1121 H1129 0.960 . S
C1122 C1120 1.381 . S
C1122 C1123 1.394 . S
C1122 H1130 0.930 . S
C1123 C1122 1.394 . S
C1123 C1124 1.383 . S
C1123 H1131 0.929 . S
C1124 C1123 1.383 . S
C1124 C1125 1.377 . S
C1125 H1109 0.930 . S
C1125 C1124 1.377 . S
C1125 C1126 1.379 . S
C1126 H1110 0.931 . S
C1126 C1120 1.383 . S
C1126 C1125 1.379 . S
H1127 C1121 0.959 . S
H1128 C1121 0.961 . S
H1129 C1121 0.960 . S
H1130 C1122 0.930 . S
H1131 C1123 0.929 . S
H1132 C1140 0.929 . S
H1133 C1142 0.930 . S
H1134 C1144 0.930 . S
H1135 C1147 0.929 . S
H1136 C1150 0.930 . S
H1137 C1152 0.960 . S
H1138 C1152 0.960 . S
H1139 C1152 0.960 . S
C1140 H1132 0.929 . S
C1140 C1141 1.377 . S
C1140 C1142 1.384 . S
C1141 C1140 1.377 . S
C1141 C1147 1.390 . S
C1142 H1133 0.930 . S
C1142 C1140 1.384 . S
C1142 C1143 1.372 . S
C1143 C1142 1.372 . S
C1143 C1144 1.400 . S
C1143 C1148 1.490 . S
C1144 H1134 0.930 . S
C1144 C1143 1.400 . S
C1144 C1147 1.386 . S
H1145 C1161 0.930 . S
H1146 C1162 0.931 . S
C1147 H1135 0.929 . S
C1147 C1141 1.390 . S
C1147 C1144 1.386 . S
C1148 C1143 1.490 . S
C1148 C1150 1.395 . S
C1148 C1151 1.403 . S
H1149 C1155 0.930 . S
C1150 H1136 0.930 . S
C1150 C1148 1.395 . S
C1150 C1153 1.403 1_565 S
C1151 C1148 1.403 . S
C1151 C1152 1.524 . S
C1151 C1155 1.400 1_565 S
C1152 H1137 0.960 . S
C1152 H1138 0.960 . S
C1152 H1139 0.960 . S
C1152 C1151 1.524 . S
C1153 C1150 1.403 1_545 S
C1153 C1154 1.392 . S
C1153 C1157 1.495 . S
C1154 C1153 1.392 . S
C1154 C1155 1.385 . S
C1154 C1156 1.478 . S
C1155 H1149 0.930 . S
C1155 C1151 1.400 1_545 S
C1155 C1154 1.385 . S
C1156 C1154 1.478 . S
C1156 C1158 1.381 . S
C1156 C1162 1.383 . S
C1157 C1153 1.495 . S
C1157 H1163 0.959 . S
C1157 H1164 0.961 . S
C1157 H1165 0.960 . S
C1158 C1156 1.381 . S
C1158 C1159 1.394 . S
C1158 H1166 0.930 . S
C1159 C1158 1.394 . S
C1159 C1160 1.383 . S
C1159 H1167 0.929 . S
C1160 C1159 1.383 . S
C1160 C1161 1.377 . S
C1161 H1145 0.930 . S
C1161 C1160 1.377 . S
C1161 C1162 1.379 . S
C1162 H1146 0.931 . S
C1162 C1156 1.383 . S
C1162 C1161 1.379 . S
H1163 C1157 0.959 . S
H1164 C1157 0.961 . S
H1165 C1157 0.960 . S
H1166 C1158 0.930 . S
H1167 C1159 0.929 . S
H1168 C1176 0.929 . S
H1169 C1178 0.930 . S
H1170 C1180 0.930 . S
H1171 C1183 0.929 . S
H1172 C1186 0.930 . S
H1173 C1188 0.960 . S
H1174 C1188 0.960 . S
H1175 C1188 0.960 . S
C1176 H1168 0.929 . S
C1176 C1177 1.377 . S
C1176 C1178 1.384 . S
C1177 C1176 1.377 . S
C1177 C1183 1.390 . S
C1178 H1169 0.930 . S
C1178 C1176 1.384 . S
C1178 C1179 1.372 . S
C1179 C1178 1.372 . S
C1179 C1180 1.400 . S
C1179 C1184 1.490 . S
C1180 H1170 0.930 . S
C1180 C1179 1.400 . S
C1180 C1183 1.386 . S
H1181 C1197 0.930 . S
H1182 C1198 0.931 . S
C1183 H1171 0.929 . S
C1183 C1177 1.390 . S
C1183 C1180 1.386 . S
C1184 C1179 1.490 . S
C1184 C1186 1.395 . S
C1184 C1187 1.403 . S
H1185 C1191 0.930 . S
C1186 H1172 0.930 . S
C1186 C1184 1.395 . S
C1186 C1189 1.403 1_455 S
C1187 C1184 1.403 . S
C1187 C1188 1.524 . S
C1187 C1191 1.400 1_455 S
C1188 H1173 0.960 . S
C1188 H1174 0.960 . S
C1188 H1175 0.960 . S
C1188 C1187 1.524 . S
C1189 C1186 1.403 1_655 S
C1189 C1190 1.392 . S
C1189 C1193 1.495 . S
C1190 C1189 1.392 . S
C1190 C1191 1.385 . S
C1190 C1192 1.478 . S
C1191 H1185 0.930 . S
C1191 C1187 1.400 1_655 S
C1191 C1190 1.385 . S
C1192 C1190 1.478 . S
C1192 C1194 1.381 . S
C1192 C1198 1.383 . S
C1193 C1189 1.495 . S
C1193 H1199 0.959 . S
C1193 H1200 0.961 . S
C1193 H1201 0.960 . S
C1194 C1192 1.381 . S
C1194 C1195 1.394 . S
C1194 H1202 0.930 . S
C1195 C1194 1.394 . S
C1195 C1196 1.383 . S
C1195 H1203 0.929 . S
C1196 C1195 1.383 . S
C1196 C1197 1.377 . S
C1197 H1181 0.930 . S
C1197 C1196 1.377 . S
C1197 C1198 1.379 . S
C1198 H1182 0.931 . S
C1198 C1192 1.383 . S
C1198 C1197 1.379 . S
H1199 C1193 0.959 . S
H1200 C1193 0.961 . S
H1201 C1193 0.960 . S
H1202 C1194 0.930 . S
H1203 C1195 0.929 . S
H1204 C1212 0.929 . S
H1205 C1214 0.930 . S
H1206 C1216 0.930 . S
H1207 C1219 0.929 . S
H1208 C1222 0.930 . S
H1209 C1224 0.960 . S
H1210 C1224 0.960 . S
H1211 C1224 0.960 . S
C1212 H1204 0.929 . S
C1212 C1213 1.377 . S
C1212 C1214 1.384 . S
C1213 C1212 1.377 . S
C1213 C1219 1.390 . S
C1214 H1205 0.930 . S
C1214 C1212 1.384 . S
C1214 C1215 1.372 . S
C1215 C1214 1.372 . S
C1215 C1216 1.400 . S
C1215 C1220 1.490 . S
C1216 H1206 0.930 . S
C1216 C1215 1.400 . S
C1216 C1219 1.386 . S
H1217 C1233 0.930 . S
H1218 C1234 0.931 . S
C1219 H1207 0.929 . S
C1219 C1213 1.390 . S
C1219 C1216 1.386 . S
C1220 C1215 1.490 . S
C1220 C1222 1.395 . S
C1220 C1223 1.403 . S
H1221 C1227 0.930 . S
C1222 H1208 0.930 . S
C1222 C1220 1.395 . S
C1222 C1225 1.403 1_565 S
C1223 C1220 1.403 . S
C1223 C1224 1.524 . S
C1223 C1227 1.400 1_565 S
C1224 H1209 0.960 . S
C1224 H1210 0.960 . S
C1224 H1211 0.960 . S
C1224 C1223 1.524 . S
C1225 C1222 1.403 1_545 S
C1225 C1226 1.392 . S
C1225 C1229 1.495 . S
C1226 C1225 1.392 . S
C1226 C1227 1.385 . S
C1226 C1228 1.478 . S
C1227 H1221 0.930 . S
C1227 C1223 1.400 1_545 S
C1227 C1226 1.385 . S
C1228 C1226 1.478 . S
C1228 C1230 1.381 . S
C1228 C1234 1.383 . S
C1229 C1225 1.495 . S
C1229 H1235 0.959 . S
C1229 H1236 0.961 . S
C1229 H1237 0.960 . S
C1230 C1228 1.381 . S
C1230 C1231 1.394 . S
C1230 H1238 0.930 . S
C1231 C1230 1.394 . S
C1231 C1232 1.383 . S
C1231 H1239 0.929 . S
C1232 C1231 1.383 . S
C1232 C1233 1.377 . S
C1233 H1217 0.930 . S
C1233 C1232 1.377 . S
C1233 C1234 1.379 . S
C1234 H1218 0.931 . S
C1234 C1228 1.383 . S
C1234 C1233 1.379 . S
H1235 C1229 0.959 . S
H1236 C1229 0.961 . S
H1237 C1229 0.960 . S
H1238 C1230 0.930 . S
H1239 C1231 0.929 . S
H1240 C1248 0.929 . S
H1241 C1250 0.930 . S
H1242 C1252 0.930 . S
H1243 C1255 0.929 . S
H1244 C1258 0.930 . S
H1245 C1260 0.960 . S
H1246 C1260 0.960 . S
H1247 C1260 0.960 . S
C1248 H1240 0.929 . S
C1248 C1249 1.377 . S
C1248 C1250 1.384 . S
C1249 C1248 1.377 . S
C1249 C1255 1.390 . S
C1250 H1241 0.930 . S
C1250 C1248 1.384 . S
C1250 C1251 1.372 . S
C1251 C1250 1.372 . S
C1251 C1252 1.400 . S
C1251 C1256 1.490 . S
C1252 H1242 0.930 . S
C1252 C1251 1.400 . S
C1252 C1255 1.386 . S
H1253 C1269 0.930 . S
H1254 C1270 0.931 . S
C1255 H1243 0.929 . S
C1255 C1249 1.390 . S
C1255 C1252 1.386 . S
C1256 C1251 1.490 . S
C1256 C1258 1.395 . S
C1256 C1259 1.403 . S
H1257 C1263 0.930 . S
C1258 H1244 0.930 . S
C1258 C1256 1.395 . S
C1258 C1261 1.403 1_455 S
C1259 C1256 1.403 . S
C1259 C1260 1.524 . S
C1259 C1263 1.400 1_455 S
C1260 H1245 0.960 . S
C1260 H1246 0.960 . S
C1260 H1247 0.960 . S
C1260 C1259 1.524 . S
C1261 C1258 1.403 1_655 S
C1261 C1262 1.392 . S
C1261 C1265 1.495 . S
C1262 C1261 1.392 . S
C1262 C1263 1.385 . S
C1262 C1264 1.478 . S
C1263 H1257 0.930 . S
C1263 C1259 1.400 1_655 S
C1263 C1262 1.385 . S
C1264 C1262 1.478 . S
C1264 C1266 1.381 . S
C1264 C1270 1.383 . S
C1265 C1261 1.495 . S
C1265 H1271 0.959 . S
C1265 H1272 0.961 . S
C1265 H1273 0.960 . S
C1266 C1264 1.381 . S
C1266 C1267 1.394 . S
C1266 H1274 0.930 . S
C1267 C1266 1.394 . S
C1267 C1268 1.383 . S
C1267 H1275 0.929 . S
C1268 C1267 1.383 . S
C1268 C1269 1.377 . S
C1269 H1253 0.930 . S
C1269 C1268 1.377 . S
C1269 C1270 1.379 . S
C1270 H1254 0.931 . S
C1270 C1264 1.383 . S
C1270 C1269 1.379 . S
H1271 C1265 0.959 . S
H1272 C1265 0.961 . S
H1273 C1265 0.960 . S
H1274 C1266 0.930 . S
H1275 C1267 0.929 . S
H1276 C1284 0.929 . S
H1277 C1286 0.930 . S
H1278 C1288 0.930 . S
H1279 C1291 0.929 . S
H1280 C1294 0.930 . S
H1281 C1296 0.960 . S
H1282 C1296 0.960 . S
H1283 C1296 0.960 . S
C1284 H1276 0.929 . S
C1284 C1285 1.377 . S
C1284 C1286 1.384 . S
C1285 C1284 1.377 . S
C1285 C1291 1.390 . S
C1286 H1277 0.930 . S
C1286 C1284 1.384 . S
C1286 C1287 1.372 . S
C1287 C1286 1.372 . S
C1287 C1288 1.400 . S
C1287 C1292 1.490 . S
C1288 H1278 0.930 . S
C1288 C1287 1.400 . S
C1288 C1291 1.386 . S
H1289 C1305 0.930 . S
H1290 C1306 0.931 . S
C1291 H1279 0.929 . S
C1291 C1285 1.390 . S
C1291 C1288 1.386 . S
C1292 C1287 1.490 . S
C1292 C1294 1.395 . S
C1292 C1295 1.403 . S
H1293 C1299 0.930 . S
C1294 H1280 0.930 . S
C1294 C1292 1.395 . S
C1294 C1297 1.403 1_545 S
C1295 C1292 1.403 . S
C1295 C1296 1.524 . S
C1295 C1299 1.400 1_545 S
C1296 H1281 0.960 . S
C1296 H1282 0.960 . S
C1296 H1283 0.960 . S
C1296 C1295 1.524 . S
C1297 C1294 1.403 1_565 S
C1297 C1298 1.392 . S
C1297 C1301 1.495 . S
C1298 C1297 1.392 . S
C1298 C1299 1.385 . S
C1298 C1300 1.478 . S
C1299 H1293 0.930 . S
C1299 C1295 1.400 1_565 S
C1299 C1298 1.385 . S
C1300 C1298 1.478 . S
C1300 C1302 1.381 . S
C1300 C1306 1.383 . S
C1301 C1297 1.495 . S
C1301 H1307 0.959 . S
C1301 H1308 0.961 . S
C1301 H1309 0.960 . S
C1302 C1300 1.381 . S
C1302 C1303 1.394 . S
C1302 H1310 0.930 . S
C1303 C1302 1.394 . S
C1303 C1304 1.383 . S
C1303 H1311 0.929 . S
C1304 C1303 1.383 . S
C1304 C1305 1.377 . S
C1305 H1289 0.930 . S
C1305 C1304 1.377 . S
C1305 C1306 1.379 . S
C1306 H1290 0.931 . S
C1306 C1300 1.383 . S
C1306 C1305 1.379 . S
H1307 C1301 0.959 . S
H1308 C1301 0.961 . S
H1309 C1301 0.960 . S
H1310 C1302 0.930 . S
H1311 C1303 0.929 . S
H1312 C1320 0.929 . S
H1313 C1322 0.930 . S
H1314 C1324 0.930 . S
H1315 C1327 0.929 . S
H1316 C1330 0.930 . S
H1317 C1332 0.960 . S
H1318 C1332 0.960 . S
H1319 C1332 0.960 . S
C1320 H1312 0.929 . S
C1320 C1321 1.377 . S
C1320 C1322 1.384 . S
C1321 C1320 1.377 . S
C1321 C1327 1.390 . S
C1322 H1313 0.930 . S
C1322 C1320 1.384 . S
C1322 C1323 1.372 . S
C1323 C1322 1.372 . S
C1323 C1324 1.400 . S
C1323 C1328 1.490 . S
C1324 H1314 0.930 . S
C1324 C1323 1.400 . S
C1324 C1327 1.386 . S
H1325 C1341 0.930 . S
H1326 C1342 0.931 . S
C1327 H1315 0.929 . S
C1327 C1321 1.390 . S
C1327 C1324 1.386 . S
C1328 C1323 1.490 . S
C1328 C1330 1.395 . S
C1328 C1331 1.403 . S
H1329 C1335 0.930 . S
C1330 H1316 0.930 . S
C1330 C1328 1.395 . S
C1330 C1333 1.403 . S
C1331 C1328 1.403 . S
C1331 C1332 1.524 . S
C1331 C1335 1.400 . S
C1332 H1317 0.960 . S
C1332 H1318 0.960 . S
C1332 H1319 0.960 . S
C1332 C1331 1.524 . S
C1333 C1330 1.403 . S
C1333 C1334 1.392 . S
C1333 C1337 1.495 . S
C1334 C1333 1.392 . S
C1334 C1335 1.385 . S
C1334 C1336 1.478 . S
C1335 H1329 0.930 . S
C1335 C1331 1.400 . S
C1335 C1334 1.385 . S
C1336 C1334 1.478 . S
C1336 C1338 1.381 . S
C1336 C1342 1.383 . S
C1337 C1333 1.495 . S
C1337 H1343 0.959 . S
C1337 H1344 0.961 . S
C1337 H1345 0.960 . S
C1338 C1336 1.381 . S
C1338 C1339 1.394 . S
C1338 H1346 0.930 . S
C1339 C1338 1.394 . S
C1339 C1340 1.383 . S
C1339 H1347 0.929 . S
C1340 C1339 1.383 . S
C1340 C1341 1.377 . S
C1341 H1325 0.930 . S
C1341 C1340 1.377 . S
C1341 C1342 1.379 . S
C1342 H1326 0.931 . S
C1342 C1336 1.383 . S
C1342 C1341 1.379 . S
H1343 C1337 0.959 . S
H1344 C1337 0.961 . S
H1345 C1337 0.960 . S
H1346 C1338 0.930 . S
H1347 C1339 0.929 . S
H1348 C1356 0.929 . S
H1349 C1358 0.930 . S
H1350 C1360 0.930 . S
H1351 C1363 0.929 . S
H1352 C1366 0.930 . S
H1353 C1368 0.960 . S
H1354 C1368 0.960 . S
H1355 C1368 0.960 . S
C1356 H1348 0.929 . S
C1356 C1357 1.377 . S
C1356 C1358 1.384 . S
C1357 C1356 1.377 . S
C1357 C1363 1.390 . S
C1358 H1349 0.930 . S
C1358 C1356 1.384 . S
C1358 C1359 1.372 . S
C1359 C1358 1.372 . S
C1359 C1360 1.400 . S
C1359 C1364 1.490 . S
C1360 H1350 0.930 . S
C1360 C1359 1.400 . S
C1360 C1363 1.386 . S
H1361 C1377 0.930 . S
H1362 C1378 0.931 . S
C1363 H1351 0.929 . S
C1363 C1357 1.390 . S
C1363 C1360 1.386 . S
C1364 C1359 1.490 . S
C1364 C1366 1.395 . S
C1364 C1367 1.403 . S
H1365 C1371 0.930 . S
C1366 H1352 0.930 . S
C1366 C1364 1.395 . S
C1366 C1369 1.403 . S
C1367 C1364 1.403 . S
C1367 C1368 1.524 . S
C1367 C1371 1.400 . S
C1368 H1353 0.960 . S
C1368 H1354 0.960 . S
C1368 H1355 0.960 . S
C1368 C1367 1.524 . S
C1369 C1366 1.403 . S
C1369 C1370 1.392 . S
C1369 C1373 1.495 . S
C1370 C1369 1.392 . S
C1370 C1371 1.385 . S
C1370 C1372 1.478 . S
C1371 H1365 0.930 . S
C1371 C1367 1.400 . S
C1371 C1370 1.385 . S
C1372 C1370 1.478 . S
C1372 C1374 1.381 . S
C1372 C1378 1.383 . S
C1373 C1369 1.495 . S
C1373 H1379 0.959 . S
C1373 H1380 0.961 . S
C1373 H1381 0.960 . S
C1374 C1372 1.381 . S
C1374 C1375 1.394 . S
C1374 H1382 0.930 . S
C1375 C1374 1.394 . S
C1375 C1376 1.383 . S
C1375 H1383 0.929 . S
C1376 C1375 1.383 . S
C1376 C1377 1.377 . S
C1377 H1361 0.930 . S
C1377 C1376 1.377 . S
C1377 C1378 1.379 . S
C1378 H1362 0.931 . S
C1378 C1372 1.383 . S
C1378 C1377 1.379 . S
H1379 C1373 0.959 . S
H1380 C1373 0.961 . S
H1381 C1373 0.960 . S
H1382 C1374 0.930 . S
H1383 C1375 0.929 . S
H1384 C1392 0.929 . S
H1385 C1394 0.930 . S
H1386 C1396 0.930 . S
H1387 C1399 0.929 . S
H1388 C1402 0.930 . S
H1389 C1404 0.960 . S
H1390 C1404 0.960 . S
H1391 C1404 0.960 . S
C1392 H1384 0.929 . S
C1392 C1393 1.377 . S
C1392 C1394 1.384 . S
C1393 C1392 1.377 . S
C1393 C1399 1.390 . S
C1394 H1385 0.930 . S
C1394 C1392 1.384 . S
C1394 C1395 1.372 . S
C1395 C1394 1.372 . S
C1395 C1396 1.400 . S
C1395 C1400 1.490 . S
C1396 H1386 0.930 . S
C1396 C1395 1.400 . S
C1396 C1399 1.386 . S
H1397 C1413 0.930 . S
H1398 C1414 0.931 . S
C1399 H1387 0.929 . S
C1399 C1393 1.390 . S
C1399 C1396 1.386 . S
C1400 C1395 1.490 . S
C1400 C1402 1.395 . S
C1400 C1403 1.403 . S
H1401 C1407 0.930 . S
C1402 H1388 0.930 . S
C1402 C1400 1.395 . S
C1402 C1405 1.403 . S
C1403 C1400 1.403 . S
C1403 C1404 1.524 . S
C1403 C1407 1.400 . S
C1404 H1389 0.960 . S
C1404 H1390 0.960 . S
C1404 H1391 0.960 . S
C1404 C1403 1.524 . S
C1405 C1402 1.403 . S
C1405 C1406 1.392 . S
C1405 C1409 1.495 . S
C1406 C1405 1.392 . S
C1406 C1407 1.385 . S
C1406 C1408 1.478 . S
C1407 H1401 0.930 . S
C1407 C1403 1.400 . S
C1407 C1406 1.385 . S
C1408 C1406 1.478 . S
C1408 C1410 1.381 . S
C1408 C1414 1.383 . S
C1409 C1405 1.495 . S
C1409 H1415 0.959 . S
C1409 H1416 0.961 . S
C1409 H1417 0.960 . S
C1410 C1408 1.381 . S
C1410 C1411 1.394 . S
C1410 H1418 0.930 . S
C1411 C1410 1.394 . S
C1411 C1412 1.383 . S
C1411 H1419 0.929 . S
C1412 C1411 1.383 . S
C1412 C1413 1.377 . S
C1413 H1397 0.930 . S
C1413 C1412 1.377 . S
C1413 C1414 1.379 . S
C1414 H1398 0.931 . S
C1414 C1408 1.383 . S
C1414 C1413 1.379 . S
H1415 C1409 0.959 . S
H1416 C1409 0.961 . S
H1417 C1409 0.960 . S
H1418 C1410 0.930 . S
H1419 C1411 0.929 . S
H1420 C1428 0.929 . S
H1421 C1430 0.930 . S
H1422 C1432 0.930 . S
H1423 C1435 0.929 . S
H1424 C1438 0.930 . S
H1425 C1440 0.960 . S
H1426 C1440 0.960 . S
H1427 C1440 0.960 . S
C1428 H1420 0.929 . S
C1428 C1429 1.377 . S
C1428 C1430 1.384 . S
C1429 C1428 1.377 . S
C1429 C1435 1.390 . S
C1430 H1421 0.930 . S
C1430 C1428 1.384 . S
C1430 C1431 1.372 . S
C1431 C1430 1.372 . S
C1431 C1432 1.400 . S
C1431 C1436 1.490 . S
C1432 H1422 0.930 . S
C1432 C1431 1.400 . S
C1432 C1435 1.386 . S
H1433 C1449 0.930 . S
H1434 C1450 0.931 . S
C1435 H1423 0.929 . S
C1435 C1429 1.390 . S
C1435 C1432 1.386 . S
C1436 C1431 1.490 . S
C1436 C1438 1.395 . S
C1436 C1439 1.403 . S
H1437 C1443 0.930 . S
C1438 H1424 0.930 . S
C1438 C1436 1.395 . S
C1438 C1441 1.403 . S
C1439 C1436 1.403 . S
C1439 C1440 1.524 . S
C1439 C1443 1.400 . S
C1440 H1425 0.960 . S
C1440 H1426 0.960 . S
C1440 H1427 0.960 . S
C1440 C1439 1.524 . S
C1441 C1438 1.403 . S
C1441 C1442 1.392 . S
C1441 C1445 1.495 . S
C1442 C1441 1.392 . S
C1442 C1443 1.385 . S
C1442 C1444 1.478 . S
C1443 H1437 0.930 . S
C1443 C1439 1.400 . S
C1443 C1442 1.385 . S
C1444 C1442 1.478 . S
C1444 C1446 1.381 . S
C1444 C1450 1.383 . S
C1445 C1441 1.495 . S
C1445 H1451 0.959 . S
C1445 H1452 0.961 . S
C1445 H1453 0.960 . S
C1446 C1444 1.381 . S
C1446 C1447 1.394 . S
C1446 H1454 0.930 . S
C1447 C1446 1.394 . S
C1447 C1448 1.383 . S
C1447 H1455 0.929 . S
C1448 C1447 1.383 . S
C1448 C1449 1.377 . S
C1449 H1433 0.930 . S
C1449 C1448 1.377 . S
C1449 C1450 1.379 . S
C1450 H1434 0.931 . S
C1450 C1444 1.383 . S
C1450 C1449 1.379 . S
H1451 C1445 0.959 . S
H1452 C1445 0.961 . S
H1453 C1445 0.960 . S
H1454 C1446 0.930 . S
H1455 C1447 0.929 . S
H1456 C1464 0.929 . S
H1457 C1466 0.930 . S
H1458 C1468 0.930 . S
H1459 C1471 0.929 . S
H1460 C1474 0.930 . S
H1461 C1476 0.960 . S
H1462 C1476 0.960 . S
H1463 C1476 0.960 . S
C1464 H1456 0.929 . S
C1464 C1465 1.377 . S
C1464 C1466 1.384 . S
C1465 C1464 1.377 . S
C1465 C1471 1.390 . S
C1466 H1457 0.930 . S
C1466 C1464 1.384 . S
C1466 C1467 1.372 . S
C1467 C1466 1.372 . S
C1467 C1468 1.400 . S
C1467 C1472 1.490 . S
C1468 H1458 0.930 . S
C1468 C1467 1.400 . S
C1468 C1471 1.386 . S
H1469 C1485 0.930 . S
H1470 C1486 0.931 . S
C1471 H1459 0.929 . S
C1471 C1465 1.390 . S
C1471 C1468 1.386 . S
C1472 C1467 1.490 . S
C1472 C1474 1.395 . S
C1472 C1475 1.403 . S
H1473 C1479 0.930 . S
C1474 H1460 0.930 . S
C1474 C1472 1.395 . S
C1474 C1477 1.403 . S
C1475 C1472 1.403 . S
C1475 C1476 1.524 . S
C1475 C1479 1.400 . S
C1476 H1461 0.960 . S
C1476 H1462 0.960 . S
C1476 H1463 0.960 . S
C1476 C1475 1.524 . S
C1477 C1474 1.403 . S
C1477 C1478 1.392 . S
C1477 C1481 1.495 . S
C1478 C1477 1.392 . S
C1478 C1479 1.385 . S
C1478 C1480 1.478 . S
C1479 H1473 0.930 . S
C1479 C1475 1.400 . S
C1479 C1478 1.385 . S
C1480 C1478 1.478 . S
C1480 C1482 1.381 . S
C1480 C1486 1.383 . S
C1481 C1477 1.495 . S
C1481 H1487 0.959 . S
C1481 H1488 0.961 . S
C1481 H1489 0.960 . S
C1482 C1480 1.381 . S
C1482 C1483 1.394 . S
C1482 H1490 0.930 . S
C1483 C1482 1.394 . S
C1483 C1484 1.383 . S
C1483 H1491 0.929 . S
C1484 C1483 1.383 . S
C1484 C1485 1.377 . S
C1485 H1469 0.930 . S
C1485 C1484 1.377 . S
C1485 C1486 1.379 . S
C1486 H1470 0.931 . S
C1486 C1480 1.383 . S
C1486 C1485 1.379 . S
H1487 C1481 0.959 . S
H1488 C1481 0.961 . S
H1489 C1481 0.960 . S
H1490 C1482 0.930 . S
H1491 C1483 0.929 . S
H1492 C1500 0.929 . S
H1493 C1502 0.930 . S
H1494 C1504 0.930 . S
H1495 C1507 0.929 . S
H1496 C1510 0.930 . S
H1497 C1512 0.960 . S
H1498 C1512 0.960 . S
H1499 C1512 0.960 . S
C1500 H1492 0.929 . S
C1500 C1501 1.377 . S
C1500 C1502 1.384 . S
C1501 C1500 1.377 . S
C1501 C1507 1.390 . S
C1502 H1493 0.930 . S
C1502 C1500 1.384 . S
C1502 C1503 1.372 . S
C1503 C1502 1.372 . S
C1503 C1504 1.400 . S
C1503 C1508 1.490 . S
C1504 H1494 0.930 . S
C1504 C1503 1.400 . S
C1504 C1507 1.386 . S
H1505 C1521 0.930 . S
H1506 C1522 0.931 . S
C1507 H1495 0.929 . S
C1507 C1501 1.390 . S
C1507 C1504 1.386 . S
C1508 C1503 1.490 . S
C1508 C1510 1.395 . S
C1508 C1511 1.403 . S
H1509 C1515 0.930 . S
C1510 H1496 0.930 . S
C1510 C1508 1.395 . S
C1510 C1513 1.403 . S
C1511 C1508 1.403 . S
C1511 C1512 1.524 . S
C1511 C1515 1.400 . S
C1512 H1497 0.960 . S
C1512 H1498 0.960 . S
C1512 H1499 0.960 . S
C1512 C1511 1.524 . S
C1513 C1510 1.403 . S
C1513 C1514 1.392 . S
C1513 C1517 1.495 . S
C1514 C1513 1.392 . S
C1514 C1515 1.385 . S
C1514 C1516 1.478 . S
C1515 H1509 0.930 . S
C1515 C1511 1.400 . S
C1515 C1514 1.385 . S
C1516 C1514 1.478 . S
C1516 C1518 1.381 . S
C1516 C1522 1.383 . S
C1517 C1513 1.495 . S
C1517 H1523 0.959 . S
C1517 H1524 0.961 . S
C1517 H1525 0.960 . S
C1518 C1516 1.381 . S
C1518 C1519 1.394 . S
C1518 H1526 0.930 . S
C1519 C1518 1.394 . S
C1519 C1520 1.383 . S
C1519 H1527 0.929 . S
C1520 C1519 1.383 . S
C1520 C1521 1.377 . S
C1521 H1505 0.930 . S
C1521 C1520 1.377 . S
C1521 C1522 1.379 . S
C1522 H1506 0.931 . S
C1522 C1516 1.383 . S
C1522 C1521 1.379 . S
H1523 C1517 0.959 . S
H1524 C1517 0.961 . S
H1525 C1517 0.960 . S
H1526 C1518 0.930 . S
H1527 C1519 0.929 . S
H1528 C1536 0.929 . S
H1529 C1538 0.930 . S
H1530 C1540 0.930 . S
H1531 C1543 0.929 . S
H1532 C1546 0.930 . S
H1533 C1548 0.960 . S
H1534 C1548 0.960 . S
H1535 C1548 0.960 . S
C1536 H1528 0.929 . S
C1536 C1537 1.377 . S
C1536 C1538 1.384 . S
C1537 C1536 1.377 . S
C1537 C1543 1.390 . S
C1538 H1529 0.930 . S
C1538 C1536 1.384 . S
C1538 C1539 1.372 . S
C1539 C1538 1.372 . S
C1539 C1540 1.400 . S
C1539 C1544 1.490 . S
C1540 H1530 0.930 . S
C1540 C1539 1.400 . S
C1540 C1543 1.386 . S
H1541 C1557 0.930 . S
H1542 C1558 0.931 . S
C1543 H1531 0.929 . S
C1543 C1537 1.390 . S
C1543 C1540 1.386 . S
C1544 C1539 1.490 . S
C1544 C1546 1.395 . S
C1544 C1547 1.403 . S
H1545 C1551 0.930 . S
C1546 H1532 0.930 . S
C1546 C1544 1.395 . S
C1546 C1549 1.403 . S
C1547 C1544 1.403 . S
C1547 C1548 1.524 . S
C1547 C1551 1.400 . S
C1548 H1533 0.960 . S
C1548 H1534 0.960 . S
C1548 H1535 0.960 . S
C1548 C1547 1.524 . S
C1549 C1546 1.403 . S
C1549 C1550 1.392 . S
C1549 C1553 1.495 . S
C1550 C1549 1.392 . S
C1550 C1551 1.385 . S
C1550 C1552 1.478 . S
C1551 H1545 0.930 . S
C1551 C1547 1.400 . S
C1551 C1550 1.385 . S
C1552 C1550 1.478 . S
C1552 C1554 1.381 . S
C1552 C1558 1.383 . S
C1553 C1549 1.495 . S
C1553 H1559 0.959 . S
C1553 H1560 0.961 . S
C1553 H1561 0.960 . S
C1554 C1552 1.381 . S
C1554 C1555 1.394 . S
C1554 H1562 0.930 . S
C1555 C1554 1.394 . S
C1555 C1556 1.383 . S
C1555 H1563 0.929 . S
C1556 C1555 1.383 . S
C1556 C1557 1.377 . S
C1557 H1541 0.930 . S
C1557 C1556 1.377 . S
C1557 C1558 1.379 . S
C1558 H1542 0.931 . S
C1558 C1552 1.383 . S
C1558 C1557 1.379 . S
H1559 C1553 0.959 . S
H1560 C1553 0.961 . S
H1561 C1553 0.960 . S
H1562 C1554 0.930 . S
H1563 C1555 0.929 . S
H1564 C1572 0.929 . S
H1565 C1574 0.930 . S
H1566 C1576 0.930 . S
H1567 C1579 0.929 . S
H1568 C1582 0.930 . S
H1569 C1584 0.960 . S
H1570 C1584 0.960 . S
H1571 C1584 0.960 . S
C1572 H1564 0.929 . S
C1572 C1573 1.377 . S
C1572 C1574 1.384 . S
C1573 C1572 1.377 . S
C1573 C1579 1.390 . S
C1574 H1565 0.930 . S
C1574 C1572 1.384 . S
C1574 C1575 1.372 . S
C1575 C1574 1.372 . S
C1575 C1576 1.400 . S
C1575 C1580 1.490 . S
C1576 H1566 0.930 . S
C1576 C1575 1.400 . S
C1576 C1579 1.386 . S
H1577 C1593 0.930 . S
H1578 C1594 0.931 . S
C1579 H1567 0.929 . S
C1579 C1573 1.390 . S
C1579 C1576 1.386 . S
C1580 C1575 1.490 . S
C1580 C1582 1.395 . S
C1580 C1583 1.403 . S
H1581 C1587 0.930 . S
C1582 H1568 0.930 . S
C1582 C1580 1.395 . S
C1582 C1585 1.403 . S
C1583 C1580 1.403 . S
C1583 C1584 1.524 . S
C1583 C1587 1.400 . S
C1584 H1569 0.960 . S
C1584 H1570 0.960 . S
C1584 H1571 0.960 . S
C1584 C1583 1.524 . S
C1585 C1582 1.403 . S
C1585 C1586 1.392 . S
C1585 C1589 1.495 . S
C1586 C1585 1.392 . S
C1586 C1587 1.385 . S
C1586 C1588 1.478 . S
C1587 H1581 0.930 . S
C1587 C1583 1.400 . S
C1587 C1586 1.385 . S
C1588 C1586 1.478 . S
C1588 C1590 1.381 . S
C1588 C1594 1.383 . S
C1589 C1585 1.495 . S
C1589 H1595 0.959 . S
C1589 H1596 0.961 . S
C1589 H1597 0.960 . S
C1590 C1588 1.381 . S
C1590 C1591 1.394 . S
C1590 H1598 0.930 . S
C1591 C1590 1.394 . S
C1591 C1592 1.383 . S
C1591 H1599 0.929 . S
C1592 C1591 1.383 . S
C1592 C1593 1.377 . S
C1593 H1577 0.930 . S
C1593 C1592 1.377 . S
C1593 C1594 1.379 . S
C1594 H1578 0.931 . S
C1594 C1588 1.383 . S
C1594 C1593 1.379 . S
H1595 C1589 0.959 . S
H1596 C1589 0.961 . S
H1597 C1589 0.960 . S
H1598 C1590 0.930 . S
H1599 C1591 0.929 . S
H1600 C1608 0.929 . S
H1601 C1610 0.930 . S
H1602 C1612 0.930 . S
H1603 C1615 0.929 . S
H1604 C1618 0.930 . S
H1605 C1620 0.960 . S
H1606 C1620 0.960 . S
H1607 C1620 0.960 . S
C1608 H1600 0.929 . S
C1608 C1609 1.377 . S
C1608 C1610 1.384 . S
C1609 C1608 1.377 . S
C1609 C1615 1.390 . S
C1610 H1601 0.930 . S
C1610 C1608 1.384 . S
C1610 C1611 1.372 . S
C1611 C1610 1.372 . S
C1611 C1612 1.400 . S
C1611 C1616 1.490 . S
C1612 H1602 0.930 . S
C1612 C1611 1.400 . S
C1612 C1615 1.386 . S
H1613 C1629 0.930 . S
H1614 C1630 0.931 . S
C1615 H1603 0.929 . S
C1615 C1609 1.390 . S
C1615 C1612 1.386 . S
C1616 C1611 1.490 . S
C1616 C1618 1.395 . S
C1616 C1619 1.403 . S
H1617 C1623 0.930 . S
C1618 H1604 0.930 . S
C1618 C1616 1.395 . S
C1618 C1621 1.403 . S
C1619 C1616 1.403 . S
C1619 C1620 1.524 . S
C1619 C1623 1.400 . S
C1620 H1605 0.960 . S
C1620 H1606 0.960 . S
C1620 H1607 0.960 . S
C1620 C1619 1.524 . S
C1621 C1618 1.403 . S
C1621 C1622 1.392 . S
C1621 C1625 1.495 . S
C1622 C1621 1.392 . S
C1622 C1623 1.385 . S
C1622 C1624 1.478 . S
C1623 H1617 0.930 . S
C1623 C1619 1.400 . S
C1623 C1622 1.385 . S
C1624 C1622 1.478 . S
C1624 C1626 1.381 . S
C1624 C1630 1.383 . S
C1625 C1621 1.495 . S
C1625 H1631 0.959 . S
C1625 H1632 0.961 . S
C1625 H1633 0.960 . S
C1626 C1624 1.381 . S
C1626 C1627 1.394 . S
C1626 H1634 0.930 . S
C1627 C1626 1.394 . S
C1627 C1628 1.383 . S
C1627 H1635 0.929 . S
C1628 C1627 1.383 . S
C1628 C1629 1.377 . S
C1629 H1613 0.930 . S
C1629 C1628 1.377 . S
C1629 C1630 1.379 . S
C1630 H1614 0.931 . S
C1630 C1624 1.383 . S
C1630 C1629 1.379 . S
H1631 C1625 0.959 . S
H1632 C1625 0.961 . S
H1633 C1625 0.960 . S
H1634 C1626 0.930 . S
H1635 C1627 0.929 . S
H1636 C1644 0.929 . S
H1637 C1646 0.930 . S
H1638 C1648 0.930 . S
H1639 C1651 0.929 . S
H1640 C1654 0.930 . S
H1641 C1656 0.960 . S
H1642 C1656 0.960 . S
H1643 C1656 0.960 . S
C1644 H1636 0.929 . S
C1644 C1645 1.377 . S
C1644 C1646 1.384 . S
C1645 C1644 1.377 . S
C1645 C1651 1.390 . S
C1646 H1637 0.930 . S
C1646 C1644 1.384 . S
C1646 C1647 1.372 . S
C1647 C1646 1.372 . S
C1647 C1648 1.400 . S
C1647 C1652 1.490 . S
C1648 H1638 0.930 . S
C1648 C1647 1.400 . S
C1648 C1651 1.386 . S
H1649 C1665 0.930 . S
H1650 C1666 0.931 . S
C1651 H1639 0.929 . S
C1651 C1645 1.390 . S
C1651 C1648 1.386 . S
C1652 C1647 1.490 . S
C1652 C1654 1.395 . S
C1652 C1655 1.403 . S
H1653 C1659 0.930 . S
C1654 H1640 0.930 . S
C1654 C1652 1.395 . S
C1654 C1657 1.403 . S
C1655 C1652 1.403 . S
C1655 C1656 1.524 . S
C1655 C1659 1.400 . S
C1656 H1641 0.960 . S
C1656 H1642 0.960 . S
C1656 H1643 0.960 . S
C1656 C1655 1.524 . S
C1657 C1654 1.403 . S
C1657 C1658 1.392 . S
C1657 C1661 1.495 . S
C1658 C1657 1.392 . S
C1658 C1659 1.385 . S
C1658 C1660 1.478 . S
C1659 H1653 0.930 . S
C1659 C1655 1.400 . S
C1659 C1658 1.385 . S
C1660 C1658 1.478 . S
C1660 C1662 1.381 . S
C1660 C1666 1.383 . S
C1661 C1657 1.495 . S
C1661 H1667 0.959 . S
C1661 H1668 0.961 . S
C1661 H1669 0.960 . S
C1662 C1660 1.381 . S
C1662 C1663 1.394 . S
C1662 H1670 0.930 . S
C1663 C1662 1.394 . S
C1663 C1664 1.383 . S
C1663 H1671 0.929 . S
C1664 C1663 1.383 . S
C1664 C1665 1.377 . S
C1665 H1649 0.930 . S
C1665 C1664 1.377 . S
C1665 C1666 1.379 . S
C1666 H1650 0.931 . S
C1666 C1660 1.383 . S
C1666 C1665 1.379 . S
H1667 C1661 0.959 . S
H1668 C1661 0.961 . S
H1669 C1661 0.960 . S
H1670 C1662 0.930 . S
H1671 C1663 0.929 . S
H1672 C1680 0.929 . S
H1673 C1682 0.930 . S
H1674 C1684 0.930 . S
H1675 C1687 0.929 . S
H1676 C1690 0.930 . S
H1677 C1692 0.960 . S
H1678 C1692 0.960 . S
H1679 C1692 0.960 . S
C1680 H1672 0.929 . S
C1680 C1681 1.377 . S
C1680 C1682 1.384 . S
C1681 C1680 1.377 . S
C1681 C1687 1.390 . S
C1682 H1673 0.930 . S
C1682 C1680 1.384 . S
C1682 C1683 1.372 . S
C1683 C1682 1.372 . S
C1683 C1684 1.400 . S
C1683 C1688 1.490 . S
C1684 H1674 0.930 . S
C1684 C1683 1.400 . S
C1684 C1687 1.386 . S
H1685 C1701 0.930 . S
H1686 C1702 0.931 . S
C1687 H1675 0.929 . S
C1687 C1681 1.390 . S
C1687 C1684 1.386 . S
C1688 C1683 1.490 . S
C1688 C1690 1.395 . S
C1688 C1691 1.403 . S
H1689 C1695 0.930 . S
C1690 H1676 0.930 . S
C1690 C1688 1.395 . S
C1690 C1693 1.403 . S
C1691 C1688 1.403 . S
C1691 C1692 1.524 . S
C1691 C1695 1.400 . S
C1692 H1677 0.960 . S
C1692 H1678 0.960 . S
C1692 H1679 0.960 . S
C1692 C1691 1.524 . S
C1693 C1690 1.403 . S
C1693 C1694 1.392 . S
C1693 C1697 1.495 . S
C1694 C1693 1.392 . S
C1694 C1695 1.385 . S
C1694 C1696 1.478 . S
C1695 H1689 0.930 . S
C1695 C1691 1.400 . S
C1695 C1694 1.385 . S
C1696 C1694 1.478 . S
C1696 C1698 1.381 . S
C1696 C1702 1.383 . S
C1697 C1693 1.495 . S
C1697 H1703 0.959 . S
C1697 H1704 0.961 . S
C1697 H1705 0.960 . S
C1698 C1696 1.381 . S
C1698 C1699 1.394 . S
C1698 H1706 0.930 . S
C1699 C1698 1.394 . S
C1699 C1700 1.383 . S
C1699 H1707 0.929 . S
C1700 C1699 1.383 . S
C1700 C1701 1.377 . S
C1701 H1685 0.930 . S
C1701 C1700 1.377 . S
C1701 C1702 1.379 . S
C1702 H1686 0.931 . S
C1702 C1696 1.383 . S
C1702 C1701 1.379 . S
H1703 C1697 0.959 . S
H1704 C1697 0.961 . S
H1705 C1697 0.960 . S
H1706 C1698 0.930 . S
H1707 C1699 0.929 . S
H1708 C1716 0.929 . S
H1709 C1718 0.930 . S
H1710 C1720 0.930 . S
H1711 C1723 0.929 . S
H1712 C1726 0.930 . S
H1713 C1728 0.960 . S
H1714 C1728 0.960 . S
H1715 C1728 0.960 . S
C1716 H1708 0.929 . S
C1716 C1717 1.377 . S
C1716 C1718 1.384 . S
C1717 C1716 1.377 . S
C1717 C1723 1.390 . S
C1718 H1709 0.930 . S
C1718 C1716 1.384 . S
C1718 C1719 1.372 . S
C1719 C1718 1.372 . S
C1719 C1720 1.400 . S
C1719 C1724 1.490 . S
C1720 H1710 0.930 . S
C1720 C1719 1.400 . S
C1720 C1723 1.386 . S
H1721 C1737 0.930 . S
H1722 C1738 0.931 . S
C1723 H1711 0.929 . S
C1723 C1717 1.390 . S
C1723 C1720 1.386 . S
C1724 C1719 1.490 . S
C1724 C1726 1.395 . S
C1724 C1727 1.403 . S
H1725 C1731 0.930 . S
C1726 H1712 0.930 . S
C1726 C1724 1.395 . S
C1726 C1729 1.403 . S
C1727 C1724 1.403 . S
C1727 C1728 1.524 . S
C1727 C1731 1.400 . S
C1728 H1713 0.960 . S
C1728 H1714 0.960 . S
C1728 H1715 0.960 . S
C1728 C1727 1.524 . S
C1729 C1726 1.403 . S
C1729 C1730 1.392 . S
C1729 C1733 1.495 . S
C1730 C1729 1.392 . S
C1730 C1731 1.385 . S
C1730 C1732 1.478 . S
C1731 H1725 0.930 . S
C1731 C1727 1.400 . S
C1731 C1730 1.385 . S
C1732 C1730 1.478 . S
C1732 C1734 1.381 . S
C1732 C1738 1.383 . S
C1733 C1729 1.495 . S
C1733 H1739 0.959 . S
C1733 H1740 0.961 . S
C1733 H1741 0.960 . S
C1734 C1732 1.381 . S
C1734 C1735 1.394 . S
C1734 H1742 0.930 . S
C1735 C1734 1.394 . S
C1735 C1736 1.383 . S
C1735 H1743 0.929 . S
C1736 C1735 1.383 . S
C1736 C1737 1.377 . S
C1737 H1721 0.930 . S
C1737 C1736 1.377 . S
C1737 C1738 1.379 . S
C1738 H1722 0.931 . S
C1738 C1732 1.383 . S
C1738 C1737 1.379 . S
H1739 C1733 0.959 . S
H1740 C1733 0.961 . S
H1741 C1733 0.960 . S
H1742 C1734 0.930 . S
H1743 C1735 0.929 . S
H1744 C1752 0.929 . S
H1745 C1754 0.930 . S
H1746 C1756 0.930 . S
H1747 C1759 0.929 . S
H1748 C1762 0.930 . S
H1749 C1764 0.960 . S
H1750 C1764 0.960 . S
H1751 C1764 0.960 . S
C1752 H1744 0.929 . S
C1752 C1753 1.377 . S
C1752 C1754 1.384 . S
C1753 C1752 1.377 . S
C1753 C1759 1.390 . S
C1754 H1745 0.930 . S
C1754 C1752 1.384 . S
C1754 C1755 1.372 . S
C1755 C1754 1.372 . S
C1755 C1756 1.400 . S
C1755 C1760 1.490 . S
C1756 H1746 0.930 . S
C1756 C1755 1.400 . S
C1756 C1759 1.386 . S
H1757 C1773 0.930 . S
H1758 C1774 0.931 . S
C1759 H1747 0.929 . S
C1759 C1753 1.390 . S
C1759 C1756 1.386 . S
C1760 C1755 1.490 . S
C1760 C1762 1.395 . S
C1760 C1763 1.403 . S
H1761 C1767 0.930 . S
C1762 H1748 0.930 . S
C1762 C1760 1.395 . S
C1762 C1765 1.403 . S
C1763 C1760 1.403 . S
C1763 C1764 1.524 . S
C1763 C1767 1.400 . S
C1764 H1749 0.960 . S
C1764 H1750 0.960 . S
C1764 H1751 0.960 . S
C1764 C1763 1.524 . S
C1765 C1762 1.403 . S
C1765 C1766 1.392 . S
C1765 C1769 1.495 . S
C1766 C1765 1.392 . S
C1766 C1767 1.385 . S
C1766 C1768 1.478 . S
C1767 H1761 0.930 . S
C1767 C1763 1.400 . S
C1767 C1766 1.385 . S
C1768 C1766 1.478 . S
C1768 C1770 1.381 . S
C1768 C1774 1.383 . S
C1769 C1765 1.495 . S
C1769 H1775 0.959 . S
C1769 H1776 0.961 . S
C1769 H1777 0.960 . S
C1770 C1768 1.381 . S
C1770 C1771 1.394 . S
C1770 H1778 0.930 . S
C1771 C1770 1.394 . S
C1771 C1772 1.383 . S
C1771 H1779 0.929 . S
C1772 C1771 1.383 . S
C1772 C1773 1.377 . S
C1773 H1757 0.930 . S
C1773 C1772 1.377 . S
C1773 C1774 1.379 . S
C1774 H1758 0.931 . S
C1774 C1768 1.383 . S
C1774 C1773 1.379 . S
H1775 C1769 0.959 . S
H1776 C1769 0.961 . S
H1777 C1769 0.960 . S
H1778 C1770 0.930 . S
H1779 C1771 0.929 . S
H1780 C1788 0.929 . S
H1781 C1790 0.930 . S
H1782 C1792 0.930 . S
H1783 C1795 0.929 . S
H1784 C1798 0.930 . S
H1785 C1800 0.960 . S
H1786 C1800 0.960 . S
H1787 C1800 0.960 . S
C1788 H1780 0.929 . S
C1788 C1789 1.377 . S
C1788 C1790 1.384 . S
C1789 C1788 1.377 . S
C1789 C1795 1.390 . S
C1790 H1781 0.930 . S
C1790 C1788 1.384 . S
C1790 C1791 1.372 . S
C1791 C1790 1.372 . S
C1791 C1792 1.400 . S
C1791 C1796 1.490 . S
C1792 H1782 0.930 . S
C1792 C1791 1.400 . S
C1792 C1795 1.386 . S
H1793 C1809 0.930 . S
H1794 C1810 0.931 . S
C1795 H1783 0.929 . S
C1795 C1789 1.390 . S
C1795 C1792 1.386 . S
C1796 C1791 1.490 . S
C1796 C1798 1.395 . S
C1796 C1799 1.403 . S
H1797 C1803 0.930 . S
C1798 H1784 0.930 . S
C1798 C1796 1.395 . S
C1798 C1801 1.403 . S
C1799 C1796 1.403 . S
C1799 C1800 1.524 . S
C1799 C1803 1.400 . S
C1800 H1785 0.960 . S
C1800 H1786 0.960 . S
C1800 H1787 0.960 . S
C1800 C1799 1.524 . S
C1801 C1798 1.403 . S
C1801 C1802 1.392 . S
C1801 C1805 1.495 . S
C1802 C1801 1.392 . S
C1802 C1803 1.385 . S
C1802 C1804 1.478 . S
C1803 H1797 0.930 . S
C1803 C1799 1.400 . S
C1803 C1802 1.385 . S
C1804 C1802 1.478 . S
C1804 C1806 1.381 . S
C1804 C1810 1.383 . S
C1805 C1801 1.495 . S
C1805 H1811 0.959 . S
C1805 H1812 0.961 . S
C1805 H1813 0.960 . S
C1806 C1804 1.381 . S
C1806 C1807 1.394 . S
C1806 H1814 0.930 . S
C1807 C1806 1.394 . S
C1807 C1808 1.383 . S
C1807 H1815 0.929 . S
C1808 C1807 1.383 . S
C1808 C1809 1.377 . S
C1809 H1793 0.930 . S
C1809 C1808 1.377 . S
C1809 C1810 1.379 . S
C1810 H1794 0.931 . S
C1810 C1804 1.383 . S
C1810 C1809 1.379 . S
H1811 C1805 0.959 . S
H1812 C1805 0.961 . S
H1813 C1805 0.960 . S
H1814 C1806 0.930 . S
H1815 C1807 0.929 . S
H1816 C1824 0.929 . S
H1817 C1826 0.930 . S
H1818 C1828 0.930 . S
H1819 C1831 0.929 . S
H1820 C1834 0.930 . S
H1821 C1836 0.960 . S
H1822 C1836 0.960 . S
H1823 C1836 0.960 . S
C1824 H1816 0.929 . S
C1824 C1825 1.377 . S
C1824 C1826 1.384 . S
C1825 C1824 1.377 . S
C1825 C1831 1.390 . S
C1826 H1817 0.930 . S
C1826 C1824 1.384 . S
C1826 C1827 1.372 . S
C1827 C1826 1.372 . S
C1827 C1828 1.400 . S
C1827 C1832 1.490 . S
C1828 H1818 0.930 . S
C1828 C1827 1.400 . S
C1828 C1831 1.386 . S
H1829 C1845 0.930 . S
H1830 C1846 0.931 . S
C1831 H1819 0.929 . S
C1831 C1825 1.390 . S
C1831 C1828 1.386 . S
C1832 C1827 1.490 . S
C1832 C1834 1.395 . S
C1832 C1835 1.403 . S
H1833 C1839 0.930 . S
C1834 H1820 0.930 . S
C1834 C1832 1.395 . S
C1834 C1837 1.403 . S
C1835 C1832 1.403 . S
C1835 C1836 1.524 . S
C1835 C1839 1.400 . S
C1836 H1821 0.960 . S
C1836 H1822 0.960 . S
C1836 H1823 0.960 . S
C1836 C1835 1.524 . S
C1837 C1834 1.403 . S
C1837 C1838 1.392 . S
C1837 C1841 1.495 . S
C1838 C1837 1.392 . S
C1838 C1839 1.385 . S
C1838 C1840 1.478 . S
C1839 H1833 0.930 . S
C1839 C1835 1.400 . S
C1839 C1838 1.385 . S
C1840 C1838 1.478 . S
C1840 C1842 1.381 . S
C1840 C1846 1.383 . S
C1841 C1837 1.495 . S
C1841 H1847 0.959 . S
C1841 H1848 0.961 . S
C1841 H1849 0.960 . S
C1842 C1840 1.381 . S
C1842 C1843 1.394 . S
C1842 H1850 0.930 . S
C1843 C1842 1.394 . S
C1843 C1844 1.383 . S
C1843 H1851 0.929 . S
C1844 C1843 1.383 . S
C1844 C1845 1.377 . S
C1845 H1829 0.930 . S
C1845 C1844 1.377 . S
C1845 C1846 1.379 . S
C1846 H1830 0.931 . S
C1846 C1840 1.383 . S
C1846 C1845 1.379 . S
H1847 C1841 0.959 . S
H1848 C1841 0.961 . S
H1849 C1841 0.960 . S
H1850 C1842 0.930 . S
H1851 C1843 0.929 . S
H1852 C1860 0.929 . S
H1853 C1862 0.930 . S
H1854 C1864 0.930 . S
H1855 C1867 0.929 . S
H1856 C1870 0.930 . S
H1857 C1872 0.960 . S
H1858 C1872 0.960 . S
H1859 C1872 0.960 . S
C1860 H1852 0.929 . S
C1860 C1861 1.377 . S
C1860 C1862 1.384 . S
C1861 C1860 1.377 . S
C1861 C1867 1.390 . S
C1862 H1853 0.930 . S
C1862 C1860 1.384 . S
C1862 C1863 1.372 . S
C1863 C1862 1.372 . S
C1863 C1864 1.400 . S
C1863 C1868 1.490 . S
C1864 H1854 0.930 . S
C1864 C1863 1.400 . S
C1864 C1867 1.386 . S
H1865 C1881 0.930 . S
H1866 C1882 0.931 . S
C1867 H1855 0.929 . S
C1867 C1861 1.390 . S
C1867 C1864 1.386 . S
C1868 C1863 1.490 . S
C1868 C1870 1.395 . S
C1868 C1871 1.403 . S
H1869 C1875 0.930 . S
C1870 H1856 0.930 . S
C1870 C1868 1.395 . S
C1870 C1873 1.403 . S
C1871 C1868 1.403 . S
C1871 C1872 1.524 . S
C1871 C1875 1.400 . S
C1872 H1857 0.960 . S
C1872 H1858 0.960 . S
C1872 H1859 0.960 . S
C1872 C1871 1.524 . S
C1873 C1870 1.403 . S
C1873 C1874 1.392 . S
C1873 C1877 1.495 . S
C1874 C1873 1.392 . S
C1874 C1875 1.385 . S
C1874 C1876 1.478 . S
C1875 H1869 0.930 . S
C1875 C1871 1.400 . S
C1875 C1874 1.385 . S
C1876 C1874 1.478 . S
C1876 C1878 1.381 . S
C1876 C1882 1.383 . S
C1877 C1873 1.495 . S
C1877 H1883 0.959 . S
C1877 H1884 0.961 . S
C1877 H1885 0.960 . S
C1878 C1876 1.381 . S
C1878 C1879 1.394 . S
C1878 H1886 0.930 . S
C1879 C1878 1.394 . S
C1879 C1880 1.383 . S
C1879 H1887 0.929 . S
C1880 C1879 1.383 . S
C1880 C1881 1.377 . S
C1881 H1865 0.930 . S
C1881 C1880 1.377 . S
C1881 C1882 1.379 . S
C1882 H1866 0.931 . S
C1882 C1876 1.383 . S
C1882 C1881 1.379 . S
H1883 C1877 0.959 . S
H1884 C1877 0.961 . S
H1885 C1877 0.960 . S
H1886 C1878 0.930 . S
H1887 C1879 0.929 . S
H1888 C1896 0.929 . S
H1889 C1898 0.930 . S
H1890 C1900 0.930 . S
H1891 C1903 0.929 . S
H1892 C1906 0.930 . S
H1893 C1908 0.960 . S
H1894 C1908 0.960 . S
H1895 C1908 0.960 . S
C1896 H1888 0.929 . S
C1896 C1897 1.377 . S
C1896 C1898 1.384 . S
C1897 C1896 1.377 . S
C1897 C1903 1.390 . S
C1898 H1889 0.930 . S
C1898 C1896 1.384 . S
C1898 C1899 1.372 . S
C1899 C1898 1.372 . S
C1899 C1900 1.400 . S
C1899 C1904 1.490 . S
C1900 H1890 0.930 . S
C1900 C1899 1.400 . S
C1900 C1903 1.386 . S
H1901 C1917 0.930 . S
H1902 C1918 0.931 . S
C1903 H1891 0.929 . S
C1903 C1897 1.390 . S
C1903 C1900 1.386 . S
C1904 C1899 1.490 . S
C1904 C1906 1.395 . S
C1904 C1907 1.403 . S
H1905 C1911 0.930 . S
C1906 H1892 0.930 . S
C1906 C1904 1.395 . S
C1906 C1909 1.403 1_554 S
C1907 C1904 1.403 . S
C1907 C1908 1.524 . S
C1907 C1911 1.400 1_554 S
C1908 H1893 0.960 . S
C1908 H1894 0.960 . S
C1908 H1895 0.960 . S
C1908 C1907 1.524 . S
C1909 C1906 1.403 1_556 S
C1909 C1910 1.392 . S
C1909 C1913 1.495 . S
C1910 C1909 1.392 . S
C1910 C1911 1.385 . S
C1910 C1912 1.478 . S
C1911 H1905 0.930 . S
C1911 C1907 1.400 1_556 S
C1911 C1910 1.385 . S
C1912 C1910 1.478 . S
C1912 C1914 1.381 . S
C1912 C1918 1.383 . S
C1913 C1909 1.495 . S
C1913 H1919 0.959 . S
C1913 H1920 0.961 . S
C1913 H1921 0.960 . S
C1914 C1912 1.381 . S
C1914 C1915 1.394 . S
C1914 H1922 0.930 . S
C1915 C1914 1.394 . S
C1915 C1916 1.383 . S
C1915 H1923 0.929 . S
C1916 C1915 1.383 . S
C1916 C1917 1.377 . S
C1917 H1901 0.930 . S
C1917 C1916 1.377 . S
C1917 C1918 1.379 . S
C1918 H1902 0.931 . S
C1918 C1912 1.383 . S
C1918 C1917 1.379 . S
H1919 C1913 0.959 . S
H1920 C1913 0.961 . S
H1921 C1913 0.960 . S
H1922 C1914 0.930 . S
H1923 C1915 0.929 . S
H1924 C1932 0.929 . S
H1925 C1934 0.930 . S
H1926 C1936 0.930 . S
H1927 C1939 0.929 . S
H1928 C1942 0.930 . S
H1929 C1944 0.960 . S
H1930 C1944 0.960 . S
H1931 C1944 0.960 . S
C1932 H1924 0.929 . S
C1932 C1933 1.377 . S
C1932 C1934 1.384 . S
C1933 C1932 1.377 . S
C1933 C1939 1.390 . S
C1934 H1925 0.930 . S
C1934 C1932 1.384 . S
C1934 C1935 1.372 . S
C1935 C1934 1.372 . S
C1935 C1936 1.400 . S
C1935 C1940 1.490 . S
C1936 H1926 0.930 . S
C1936 C1935 1.400 . S
C1936 C1939 1.386 . S
H1937 C1953 0.930 . S
H1938 C1954 0.931 . S
C1939 H1927 0.929 . S
C1939 C1933 1.390 . S
C1939 C1936 1.386 . S
C1940 C1935 1.490 . S
C1940 C1942 1.395 . S
C1940 C1943 1.403 . S
H1941 C1947 0.930 . S
C1942 H1928 0.930 . S
C1942 C1940 1.395 . S
C1942 C1945 1.403 1_556 S
C1943 C1940 1.403 . S
C1943 C1944 1.524 . S
C1943 C1947 1.400 1_556 S
C1944 H1929 0.960 . S
C1944 H1930 0.960 . S
C1944 H1931 0.960 . S
C1944 C1943 1.524 . S
C1945 C1942 1.403 1_554 S
C1945 C1946 1.392 . S
C1945 C1949 1.495 . S
C1946 C1945 1.392 . S
C1946 C1947 1.385 . S
C1946 C1948 1.478 . S
C1947 H1941 0.930 . S
C1947 C1943 1.400 1_554 S
C1947 C1946 1.385 . S
C1948 C1946 1.478 . S
C1948 C1950 1.381 . S
C1948 C1954 1.383 . S
C1949 C1945 1.495 . S
C1949 H1955 0.959 . S
C1949 H1956 0.961 . S
C1949 H1957 0.960 . S
C1950 C1948 1.381 . S
C1950 C1951 1.394 . S
C1950 H1958 0.930 . S
C1951 C1950 1.394 . S
C1951 C1952 1.383 . S
C1951 H1959 0.929 . S
C1952 C1951 1.383 . S
C1952 C1953 1.377 . S
C1953 H1937 0.930 . S
C1953 C1952 1.377 . S
C1953 C1954 1.379 . S
C1954 H1938 0.931 . S
C1954 C1948 1.383 . S
C1954 C1953 1.379 . S
H1955 C1949 0.959 . S
H1956 C1949 0.961 . S
H1957 C1949 0.960 . S
H1958 C1950 0.930 . S
H1959 C1951 0.929 . S
H1960 C1968 0.929 . S
H1961 C1970 0.930 . S
H1962 C1972 0.930 . S
H1963 C1975 0.929 . S
H1964 C1978 0.930 . S
H1965 C1980 0.960 . S
H1966 C1980 0.960 . S
H1967 C1980 0.960 . S
C1968 H1960 0.929 . S
C1968 C1969 1.377 . S
C1968 C1970 1.384 . S
C1969 C1968 1.377 . S
C1969 C1975 1.390 . S
C1970 H1961 0.930 . S
C1970 C1968 1.384 . S
C1970 C1971 1.372 . S
C1971 C1970 1.372 . S
C1971 C1972 1.400 . S
C1971 C1976 1.490 . S
C1972 H1962 0.930 . S
C1972 C1971 1.400 . S
C1972 C1975 1.386 . S
H1973 C1989 0.930 . S
H1974 C1990 0.931 . S
C1975 H1963 0.929 . S
C1975 C1969 1.390 . S
C1975 C1972 1.386 . S
C1976 C1971 1.490 . S
C1976 C1978 1.395 . S
C1976 C1979 1.403 . S
H1977 C1983 0.930 . S
C1978 H1964 0.930 . S
C1978 C1976 1.395 . S
C1978 C1981 1.403 1_554 S
C1979 C1976 1.403 . S
C1979 C1980 1.524 . S
C1979 C1983 1.400 1_554 S
C1980 H1965 0.960 . S
C1980 H1966 0.960 . S
C1980 H1967 0.960 . S
C1980 C1979 1.524 . S
C1981 C1978 1.403 1_556 S
C1981 C1982 1.392 . S
C1981 C1985 1.495 . S
C1982 C1981 1.392 . S
C1982 C1983 1.385 . S
C1982 C1984 1.478 . S
C1983 H1977 0.930 . S
C1983 C1979 1.400 1_556 S
C1983 C1982 1.385 . S
C1984 C1982 1.478 . S
C1984 C1986 1.381 . S
C1984 C1990 1.383 . S
C1985 C1981 1.495 . S
C1985 H1991 0.959 . S
C1985 H1992 0.961 . S
C1985 H1993 0.960 . S
C1986 C1984 1.381 . S
C1986 C1987 1.394 . S
C1986 H1994 0.930 . S
C1987 C1986 1.394 . S
C1987 C1988 1.383 . S
C1987 H1995 0.929 . S
C1988 C1987 1.383 . S
C1988 C1989 1.377 . S
C1989 H1973 0.930 . S
C1989 C1988 1.377 . S
C1989 C1990 1.379 . S
C1990 H1974 0.931 . S
C1990 C1984 1.383 . S
C1990 C1989 1.379 . S
H1991 C1985 0.959 . S
H1992 C1985 0.961 . S
H1993 C1985 0.960 . S
H1994 C1986 0.930 . S
H1995 C1987 0.929 . S
H1996 C2004 0.929 . S
H1997 C2006 0.930 . S
H1998 C2008 0.930 . S
H1999 C2011 0.929 . S
H2000 C2014 0.930 . S
H2001 C2016 0.960 . S
H2002 C2016 0.960 . S
H2003 C2016 0.960 . S
C2004 H1996 0.929 . S
C2004 C2005 1.377 . S
C2004 C2006 1.384 . S
C2005 C2004 1.377 . S
C2005 C2011 1.390 . S
C2006 H1997 0.930 . S
C2006 C2004 1.384 . S
C2006 C2007 1.372 . S
C2007 C2006 1.372 . S
C2007 C2008 1.400 . S
C2007 C2012 1.490 . S
C2008 H1998 0.930 . S
C2008 C2007 1.400 . S
C2008 C2011 1.386 . S
H2009 C2025 0.930 . S
H2010 C2026 0.931 . S
C2011 H1999 0.929 . S
C2011 C2005 1.390 . S
C2011 C2008 1.386 . S
C2012 C2007 1.490 . S
C2012 C2014 1.395 . S
C2012 C2015 1.403 . S
H2013 C2019 0.930 . S
C2014 H2000 0.930 . S
C2014 C2012 1.395 . S
C2014 C2017 1.403 1_554 S
C2015 C2012 1.403 . S
C2015 C2016 1.524 . S
C2015 C2019 1.400 1_554 S
C2016 H2001 0.960 . S
C2016 H2002 0.960 . S
C2016 H2003 0.960 . S
C2016 C2015 1.524 . S
C2017 C2014 1.403 1_556 S
C2017 C2018 1.392 . S
C2017 C2021 1.495 . S
C2018 C2017 1.392 . S
C2018 C2019 1.385 . S
C2018 C2020 1.478 . S
C2019 H2013 0.930 . S
C2019 C2015 1.400 1_556 S
C2019 C2018 1.385 . S
C2020 C2018 1.478 . S
C2020 C2022 1.381 . S
C2020 C2026 1.383 . S
C2021 C2017 1.495 . S
C2021 H2027 0.959 . S
C2021 H2028 0.961 . S
C2021 H2029 0.960 . S
C2022 C2020 1.381 . S
C2022 C2023 1.394 . S
C2022 H2030 0.930 . S
C2023 C2022 1.394 . S
C2023 C2024 1.383 . S
C2023 H2031 0.929 . S
C2024 C2023 1.383 . S
C2024 C2025 1.377 . S
C2025 H2009 0.930 . S
C2025 C2024 1.377 . S
C2025 C2026 1.379 . S
C2026 H2010 0.931 . S
C2026 C2020 1.383 . S
C2026 C2025 1.379 . S
H2027 C2021 0.959 . S
H2028 C2021 0.961 . S
H2029 C2021 0.960 . S
H2030 C2022 0.930 . S
H2031 C2023 0.929 . S
H2032 C2040 0.929 . S
H2033 C2042 0.930 . S
H2034 C2044 0.930 . S
H2035 C2047 0.929 . S
H2036 C2050 0.930 . S
H2037 C2052 0.960 . S
H2038 C2052 0.960 . S
H2039 C2052 0.960 . S
C2040 H2032 0.929 . S
C2040 C2041 1.377 . S
C2040 C2042 1.384 . S
C2041 C2040 1.377 . S
C2041 C2047 1.390 . S
C2042 H2033 0.930 . S
C2042 C2040 1.384 . S
C2042 C2043 1.372 . S
C2043 C2042 1.372 . S
C2043 C2044 1.400 . S
C2043 C2048 1.490 . S
C2044 H2034 0.930 . S
C2044 C2043 1.400 . S
C2044 C2047 1.386 . S
H2045 C2061 0.930 . S
H2046 C2062 0.931 . S
C2047 H2035 0.929 . S
C2047 C2041 1.390 . S
C2047 C2044 1.386 . S
C2048 C2043 1.490 . S
C2048 C2050 1.395 . S
C2048 C2051 1.403 . S
H2049 C2055 0.930 . S
C2050 H2036 0.930 . S
C2050 C2048 1.395 . S
C2050 C2053 1.403 1_554 S
C2051 C2048 1.403 . S
C2051 C2052 1.524 . S
C2051 C2055 1.400 1_554 S
C2052 H2037 0.960 . S
C2052 H2038 0.960 . S
C2052 H2039 0.960 . S
C2052 C2051 1.524 . S
C2053 C2050 1.403 1_556 S
C2053 C2054 1.392 . S
C2053 C2057 1.495 . S
C2054 C2053 1.392 . S
C2054 C2055 1.385 . S
C2054 C2056 1.478 . S
C2055 H2049 0.930 . S
C2055 C2051 1.400 1_556 S
C2055 C2054 1.385 . S
C2056 C2054 1.478 . S
C2056 C2058 1.381 . S
C2056 C2062 1.383 . S
C2057 C2053 1.495 . S
C2057 H2063 0.959 . S
C2057 H2064 0.961 . S
C2057 H2065 0.960 . S
C2058 C2056 1.381 . S
C2058 C2059 1.394 . S
C2058 H2066 0.930 . S
C2059 C2058 1.394 . S
C2059 C2060 1.383 . S
C2059 H2067 0.929 . S
C2060 C2059 1.383 . S
C2060 C2061 1.377 . S
C2061 H2045 0.930 . S
C2061 C2060 1.377 . S
C2061 C2062 1.379 . S
C2062 H2046 0.931 . S
C2062 C2056 1.383 . S
C2062 C2061 1.379 . S
H2063 C2057 0.959 . S
H2064 C2057 0.961 . S
H2065 C2057 0.960 . S
H2066 C2058 0.930 . S
H2067 C2059 0.929 . S
H2068 C2076 0.929 . S
H2069 C2078 0.930 . S
H2070 C2080 0.930 . S
H2071 C2083 0.929 . S
H2072 C2086 0.930 . S
H2073 C2088 0.960 . S
H2074 C2088 0.960 . S
H2075 C2088 0.960 . S
C2076 H2068 0.929 . S
C2076 C2077 1.377 . S
C2076 C2078 1.384 . S
C2077 C2076 1.377 . S
C2077 C2083 1.390 . S
C2078 H2069 0.930 . S
C2078 C2076 1.384 . S
C2078 C2079 1.372 . S
C2079 C2078 1.372 . S
C2079 C2080 1.400 . S
C2079 C2084 1.490 . S
C2080 H2070 0.930 . S
C2080 C2079 1.400 . S
C2080 C2083 1.386 . S
H2081 C2097 0.930 . S
H2082 C2098 0.931 . S
C2083 H2071 0.929 . S
C2083 C2077 1.390 . S
C2083 C2080 1.386 . S
C2084 C2079 1.490 . S
C2084 C2086 1.395 . S
C2084 C2087 1.403 . S
H2085 C2091 0.930 . S
C2086 H2072 0.930 . S
C2086 C2084 1.395 . S
C2086 C2089 1.403 1_554 S
C2087 C2084 1.403 . S
C2087 C2088 1.524 . S
C2087 C2091 1.400 1_554 S
C2088 H2073 0.960 . S
C2088 H2074 0.960 . S
C2088 H2075 0.960 . S
C2088 C2087 1.524 . S
C2089 C2086 1.403 1_556 S
C2089 C2090 1.392 . S
C2089 C2093 1.495 . S
C2090 C2089 1.392 . S
C2090 C2091 1.385 . S
C2090 C2092 1.478 . S
C2091 H2085 0.930 . S
C2091 C2087 1.400 1_556 S
C2091 C2090 1.385 . S
C2092 C2090 1.478 . S
C2092 C2094 1.381 . S
C2092 C2098 1.383 . S
C2093 C2089 1.495 . S
C2093 H2099 0.959 . S
C2093 H2100 0.961 . S
C2093 H2101 0.960 . S
C2094 C2092 1.381 . S
C2094 C2095 1.394 . S
C2094 H2102 0.930 . S
C2095 C2094 1.394 . S
C2095 C2096 1.383 . S
C2095 H2103 0.929 . S
C2096 C2095 1.383 . S
C2096 C2097 1.377 . S
C2097 H2081 0.930 . S
C2097 C2096 1.377 . S
C2097 C2098 1.379 . S
C2098 H2082 0.931 . S
C2098 C2092 1.383 . S
C2098 C2097 1.379 . S
H2099 C2093 0.959 . S
H2100 C2093 0.961 . S
H2101 C2093 0.960 . S
H2102 C2094 0.930 . S
H2103 C2095 0.929 . S
H2104 C2112 0.929 . S
H2105 C2114 0.930 . S
H2106 C2116 0.930 . S
H2107 C2119 0.929 . S
H2108 C2122 0.930 . S
H2109 C2124 0.960 . S
H2110 C2124 0.960 . S
H2111 C2124 0.960 . S
C2112 H2104 0.929 . S
C2112 C2113 1.377 . S
C2112 C2114 1.384 . S
C2113 C2112 1.377 . S
C2113 C2119 1.390 . S
C2114 H2105 0.930 . S
C2114 C2112 1.384 . S
C2114 C2115 1.372 . S
C2115 C2114 1.372 . S
C2115 C2116 1.400 . S
C2115 C2120 1.490 . S
C2116 H2106 0.930 . S
C2116 C2115 1.400 . S
C2116 C2119 1.386 . S
H2117 C2133 0.930 . S
H2118 C2134 0.931 . S
C2119 H2107 0.929 . S
C2119 C2113 1.390 . S
C2119 C2116 1.386 . S
C2120 C2115 1.490 . S
C2120 C2122 1.395 . S
C2120 C2123 1.403 . S
H2121 C2127 0.930 . S
C2122 H2108 0.930 . S
C2122 C2120 1.395 . S
C2122 C2125 1.403 1_556 S
C2123 C2120 1.403 . S
C2123 C2124 1.524 . S
C2123 C2127 1.400 1_556 S
C2124 H2109 0.960 . S
C2124 H2110 0.960 . S
C2124 H2111 0.960 . S
C2124 C2123 1.524 . S
C2125 C2122 1.403 1_554 S
C2125 C2126 1.392 . S
C2125 C2129 1.495 . S
C2126 C2125 1.392 . S
C2126 C2127 1.385 . S
C2126 C2128 1.478 . S
C2127 H2121 0.930 . S
C2127 C2123 1.400 1_554 S
C2127 C2126 1.385 . S
C2128 C2126 1.478 . S
C2128 C2130 1.381 . S
C2128 C2134 1.383 . S
C2129 C2125 1.495 . S
C2129 H2135 0.959 . S
C2129 H2136 0.961 . S
C2129 H2137 0.960 . S
C2130 C2128 1.381 . S
C2130 C2131 1.394 . S
C2130 H2138 0.930 . S
C2131 C2130 1.394 . S
C2131 C2132 1.383 . S
C2131 H2139 0.929 . S
C2132 C2131 1.383 . S
C2132 C2133 1.377 . S
C2133 H2117 0.930 . S
C2133 C2132 1.377 . S
C2133 C2134 1.379 . S
C2134 H2118 0.931 . S
C2134 C2128 1.383 . S
C2134 C2133 1.379 . S
H2135 C2129 0.959 . S
H2136 C2129 0.961 . S
H2137 C2129 0.960 . S
H2138 C2130 0.930 . S
H2139 C2131 0.929 . S
H2140 C2148 0.929 . S
H2141 C2150 0.930 . S
H2142 C2152 0.930 . S
H2143 C2155 0.929 . S
H2144 C2158 0.930 . S
H2145 C2160 0.960 . S
H2146 C2160 0.960 . S
H2147 C2160 0.960 . S
C2148 H2140 0.929 . S
C2148 C2149 1.377 . S
C2148 C2150 1.384 . S
C2149 C2148 1.377 . S
C2149 C2155 1.390 . S
C2150 H2141 0.930 . S
C2150 C2148 1.384 . S
C2150 C2151 1.372 . S
C2151 C2150 1.372 . S
C2151 C2152 1.400 . S
C2151 C2156 1.490 . S
C2152 H2142 0.930 . S
C2152 C2151 1.400 . S
C2152 C2155 1.386 . S
H2153 C2169 0.930 . S
H2154 C2170 0.931 . S
C2155 H2143 0.929 . S
C2155 C2149 1.390 . S
C2155 C2152 1.386 . S
C2156 C2151 1.490 . S
C2156 C2158 1.395 . S
C2156 C2159 1.403 . S
H2157 C2163 0.930 . S
C2158 H2144 0.930 . S
C2158 C2156 1.395 . S
C2158 C2161 1.403 1_556 S
C2159 C2156 1.403 . S
C2159 C2160 1.524 . S
C2159 C2163 1.400 1_556 S
C2160 H2145 0.960 . S
C2160 H2146 0.960 . S
C2160 H2147 0.960 . S
C2160 C2159 1.524 . S
C2161 C2158 1.403 1_554 S
C2161 C2162 1.392 . S
C2161 C2165 1.495 . S
C2162 C2161 1.392 . S
C2162 C2163 1.385 . S
C2162 C2164 1.478 . S
C2163 H2157 0.930 . S
C2163 C2159 1.400 1_554 S
C2163 C2162 1.385 . S
C2164 C2162 1.478 . S
C2164 C2166 1.381 . S
C2164 C2170 1.383 . S
C2165 C2161 1.495 . S
C2165 H2171 0.959 . S
C2165 H2172 0.961 . S
C2165 H2173 0.960 . S
C2166 C2164 1.381 . S
C2166 C2167 1.394 . S
C2166 H2174 0.930 . S
C2167 C2166 1.394 . S
C2167 C2168 1.383 . S
C2167 H2175 0.929 . S
C2168 C2167 1.383 . S
C2168 C2169 1.377 . S
C2169 H2153 0.930 . S
C2169 C2168 1.377 . S
C2169 C2170 1.379 . S
C2170 H2154 0.931 . S
C2170 C2164 1.383 . S
C2170 C2169 1.379 . S
H2171 C2165 0.959 . S
H2172 C2165 0.961 . S
H2173 C2165 0.960 . S
H2174 C2166 0.930 . S
H2175 C2167 0.929 . S
H2176 C2184 0.929 . S
H2177 C2186 0.930 . S
H2178 C2188 0.930 . S
H2179 C2191 0.929 . S
H2180 C2194 0.930 . S
H2181 C2196 0.960 . S
H2182 C2196 0.960 . S
H2183 C2196 0.960 . S
C2184 H2176 0.929 . S
C2184 C2185 1.377 . S
C2184 C2186 1.384 . S
C2185 C2184 1.377 . S
C2185 C2191 1.390 . S
C2186 H2177 0.930 . S
C2186 C2184 1.384 . S
C2186 C2187 1.372 . S
C2187 C2186 1.372 . S
C2187 C2188 1.400 . S
C2187 C2192 1.490 . S
C2188 H2178 0.930 . S
C2188 C2187 1.400 . S
C2188 C2191 1.386 . S
H2189 C2205 0.930 . S
H2190 C2206 0.931 . S
C2191 H2179 0.929 . S
C2191 C2185 1.390 . S
C2191 C2188 1.386 . S
C2192 C2187 1.490 . S
C2192 C2194 1.395 . S
C2192 C2195 1.403 . S
H2193 C2199 0.930 . S
C2194 H2180 0.930 . S
C2194 C2192 1.395 . S
C2194 C2197 1.403 . S
C2195 C2192 1.403 . S
C2195 C2196 1.524 . S
C2195 C2199 1.400 . S
C2196 H2181 0.960 . S
C2196 H2182 0.960 . S
C2196 H2183 0.960 . S
C2196 C2195 1.524 . S
C2197 C2194 1.403 . S
C2197 C2198 1.392 . S
C2197 C2201 1.495 . S
C2198 C2197 1.392 . S
C2198 C2199 1.385 . S
C2198 C2200 1.478 . S
C2199 H2193 0.930 . S
C2199 C2195 1.400 . S
C2199 C2198 1.385 . S
C2200 C2198 1.478 . S
C2200 C2202 1.381 . S
C2200 C2206 1.383 . S
C2201 C2197 1.495 . S
C2201 H2207 0.959 . S
C2201 H2208 0.961 . S
C2201 H2209 0.960 . S
C2202 C2200 1.381 . S
C2202 C2203 1.394 . S
C2202 H2210 0.930 . S
C2203 C2202 1.394 . S
C2203 C2204 1.383 . S
C2203 H2211 0.929 . S
C2204 C2203 1.383 . S
C2204 C2205 1.377 . S
C2205 H2189 0.930 . S
C2205 C2204 1.377 . S
C2205 C2206 1.379 . S
C2206 H2190 0.931 . S
C2206 C2200 1.383 . S
C2206 C2205 1.379 . S
H2207 C2201 0.959 . S
H2208 C2201 0.961 . S
H2209 C2201 0.960 . S
H2210 C2202 0.930 . S
H2211 C2203 0.929 . S
H2212 C2220 0.929 . S
H2213 C2222 0.930 . S
H2214 C2224 0.930 . S
H2215 C2227 0.929 . S
H2216 C2230 0.930 . S
H2217 C2232 0.960 . S
H2218 C2232 0.960 . S
H2219 C2232 0.960 . S
C2220 H2212 0.929 . S
C2220 C2221 1.377 . S
C2220 C2222 1.384 . S
C2221 C2220 1.377 . S
C2221 C2227 1.390 . S
C2222 H2213 0.930 . S
C2222 C2220 1.384 . S
C2222 C2223 1.372 . S
C2223 C2222 1.372 . S
C2223 C2224 1.400 . S
C2223 C2228 1.490 . S
C2224 H2214 0.930 . S
C2224 C2223 1.400 . S
C2224 C2227 1.386 . S
H2225 C2241 0.930 . S
H2226 C2242 0.931 . S
C2227 H2215 0.929 . S
C2227 C2221 1.390 . S
C2227 C2224 1.386 . S
C2228 C2223 1.490 . S
C2228 C2230 1.395 . S
C2228 C2231 1.403 . S
H2229 C2235 0.930 . S
C2230 H2216 0.930 . S
C2230 C2228 1.395 . S
C2230 C2233 1.403 . S
C2231 C2228 1.403 . S
C2231 C2232 1.524 . S
C2231 C2235 1.400 . S
C2232 H2217 0.960 . S
C2232 H2218 0.960 . S
C2232 H2219 0.960 . S
C2232 C2231 1.524 . S
C2233 C2230 1.403 . S
C2233 C2234 1.392 . S
C2233 C2237 1.495 . S
C2234 C2233 1.392 . S
C2234 C2235 1.385 . S
C2234 C2236 1.478 . S
C2235 H2229 0.930 . S
C2235 C2231 1.400 . S
C2235 C2234 1.385 . S
C2236 C2234 1.478 . S
C2236 C2238 1.381 . S
C2236 C2242 1.383 . S
C2237 C2233 1.495 . S
C2237 H2243 0.959 . S
C2237 H2244 0.961 . S
C2237 H2245 0.960 . S
C2238 C2236 1.381 . S
C2238 C2239 1.394 . S
C2238 H2246 0.930 . S
C2239 C2238 1.394 . S
C2239 C2240 1.383 . S
C2239 H2247 0.929 . S
C2240 C2239 1.383 . S
C2240 C2241 1.377 . S
C2241 H2225 0.930 . S
C2241 C2240 1.377 . S
C2241 C2242 1.379 . S
C2242 H2226 0.931 . S
C2242 C2236 1.383 . S
C2242 C2241 1.379 . S
H2243 C2237 0.959 . S
H2244 C2237 0.961 . S
H2245 C2237 0.960 . S
H2246 C2238 0.930 . S
H2247 C2239 0.929 . S
H2248 C2256 0.929 . S
H2249 C2258 0.930 . S
H2250 C2260 0.930 . S
H2251 C2263 0.929 . S
H2252 C2266 0.930 . S
H2253 C2268 0.960 . S
H2254 C2268 0.960 . S
H2255 C2268 0.960 . S
C2256 H2248 0.929 . S
C2256 C2257 1.377 . S
C2256 C2258 1.384 . S
C2257 C2256 1.377 . S
C2257 C2263 1.390 . S
C2258 H2249 0.930 . S
C2258 C2256 1.384 . S
C2258 C2259 1.372 . S
C2259 C2258 1.372 . S
C2259 C2260 1.400 . S
C2259 C2264 1.490 . S
C2260 H2250 0.930 . S
C2260 C2259 1.400 . S
C2260 C2263 1.386 . S
H2261 C2277 0.930 . S
H2262 C2278 0.931 . S
C2263 H2251 0.929 . S
C2263 C2257 1.390 . S
C2263 C2260 1.386 . S
C2264 C2259 1.490 . S
C2264 C2266 1.395 . S
C2264 C2267 1.403 . S
H2265 C2271 0.930 . S
C2266 H2252 0.930 . S
C2266 C2264 1.395 . S
C2266 C2269 1.403 . S
C2267 C2264 1.403 . S
C2267 C2268 1.524 . S
C2267 C2271 1.400 . S
C2268 H2253 0.960 . S
C2268 H2254 0.960 . S
C2268 H2255 0.960 . S
C2268 C2267 1.524 . S
C2269 C2266 1.403 . S
C2269 C2270 1.392 . S
C2269 C2273 1.495 . S
C2270 C2269 1.392 . S
C2270 C2271 1.385 . S
C2270 C2272 1.478 . S
C2271 H2265 0.930 . S
C2271 C2267 1.400 . S
C2271 C2270 1.385 . S
C2272 C2270 1.478 . S
C2272 C2274 1.381 . S
C2272 C2278 1.383 . S
C2273 C2269 1.495 . S
C2273 H2279 0.959 . S
C2273 H2280 0.961 . S
C2273 H2281 0.960 . S
C2274 C2272 1.381 . S
C2274 C2275 1.394 . S
C2274 H2282 0.930 . S
C2275 C2274 1.394 . S
C2275 C2276 1.383 . S
C2275 H2283 0.929 . S
C2276 C2275 1.383 . S
C2276 C2277 1.377 . S
C2277 H2261 0.930 . S
C2277 C2276 1.377 . S
C2277 C2278 1.379 . S
C2278 H2262 0.931 . S
C2278 C2272 1.383 . S
C2278 C2277 1.379 . S
H2279 C2273 0.959 . S
H2280 C2273 0.961 . S
H2281 C2273 0.960 . S
H2282 C2274 0.930 . S
H2283 C2275 0.929 . S
H2284 C2292 0.929 . S
H2285 C2294 0.930 . S
H2286 C2296 0.930 . S
H2287 C2299 0.929 . S
H2288 C2302 0.930 . S
H2289 C2304 0.960 . S
H2290 C2304 0.960 . S
H2291 C2304 0.960 . S
C2292 H2284 0.929 . S
C2292 C2293 1.377 . S
C2292 C2294 1.384 . S
C2293 C2292 1.377 . S
C2293 C2299 1.390 . S
C2294 H2285 0.930 . S
C2294 C2292 1.384 . S
C2294 C2295 1.372 . S
C2295 C2294 1.372 . S
C2295 C2296 1.400 . S
C2295 C2300 1.490 . S
C2296 H2286 0.930 . S
C2296 C2295 1.400 . S
C2296 C2299 1.386 . S
H2297 C2313 0.930 . S
H2298 C2314 0.931 . S
C2299 H2287 0.929 . S
C2299 C2293 1.390 . S
C2299 C2296 1.386 . S
C2300 C2295 1.490 . S
C2300 C2302 1.395 . S
C2300 C2303 1.403 . S
H2301 C2307 0.930 . S
C2302 H2288 0.930 . S
C2302 C2300 1.395 . S
C2302 C2305 1.403 . S
C2303 C2300 1.403 . S
C2303 C2304 1.524 . S
C2303 C2307 1.400 . S
C2304 H2289 0.960 . S
C2304 H2290 0.960 . S
C2304 H2291 0.960 . S
C2304 C2303 1.524 . S
C2305 C2302 1.403 . S
C2305 C2306 1.392 . S
C2305 C2309 1.495 . S
C2306 C2305 1.392 . S
C2306 C2307 1.385 . S
C2306 C2308 1.478 . S
C2307 H2301 0.930 . S
C2307 C2303 1.400 . S
C2307 C2306 1.385 . S
C2308 C2306 1.478 . S
C2308 C2310 1.381 . S
C2308 C2314 1.383 . S
C2309 C2305 1.495 . S
C2309 H2315 0.959 . S
C2309 H2316 0.961 . S
C2309 H2317 0.960 . S
C2310 C2308 1.381 . S
C2310 C2311 1.394 . S
C2310 H2318 0.930 . S
C2311 C2310 1.394 . S
C2311 C2312 1.383 . S
C2311 H2319 0.929 . S
C2312 C2311 1.383 . S
C2312 C2313 1.377 . S
C2313 H2297 0.930 . S
C2313 C2312 1.377 . S
C2313 C2314 1.379 . S
C2314 H2298 0.931 . S
C2314 C2308 1.383 . S
C2314 C2313 1.379 . S
H2315 C2309 0.959 . S
H2316 C2309 0.961 . S
H2317 C2309 0.960 . S
H2318 C2310 0.930 . S
H2319 C2311 0.929 . S
H2320 C2328 0.929 . S
H2321 C2330 0.930 . S
H2322 C2332 0.930 . S
H2323 C2335 0.929 . S
H2324 C2338 0.930 . S
H2325 C2340 0.960 . S
H2326 C2340 0.960 . S
H2327 C2340 0.960 . S
C2328 H2320 0.929 . S
C2328 C2329 1.377 . S
C2328 C2330 1.384 . S
C2329 C2328 1.377 . S
C2329 C2335 1.390 . S
C2330 H2321 0.930 . S
C2330 C2328 1.384 . S
C2330 C2331 1.372 . S
C2331 C2330 1.372 . S
C2331 C2332 1.400 . S
C2331 C2336 1.490 . S
C2332 H2322 0.930 . S
C2332 C2331 1.400 . S
C2332 C2335 1.386 . S
H2333 C2349 0.930 . S
H2334 C2350 0.931 . S
C2335 H2323 0.929 . S
C2335 C2329 1.390 . S
C2335 C2332 1.386 . S
C2336 C2331 1.490 . S
C2336 C2338 1.395 . S
C2336 C2339 1.403 . S
H2337 C2343 0.930 . S
C2338 H2324 0.930 . S
C2338 C2336 1.395 . S
C2338 C2341 1.403 . S
C2339 C2336 1.403 . S
C2339 C2340 1.524 . S
C2339 C2343 1.400 . S
C2340 H2325 0.960 . S
C2340 H2326 0.960 . S
C2340 H2327 0.960 . S
C2340 C2339 1.524 . S
C2341 C2338 1.403 . S
C2341 C2342 1.392 . S
C2341 C2345 1.495 . S
C2342 C2341 1.392 . S
C2342 C2343 1.385 . S
C2342 C2344 1.478 . S
C2343 H2337 0.930 . S
C2343 C2339 1.400 . S
C2343 C2342 1.385 . S
C2344 C2342 1.478 . S
C2344 C2346 1.381 . S
C2344 C2350 1.383 . S
C2345 C2341 1.495 . S
C2345 H2351 0.959 . S
C2345 H2352 0.961 . S
C2345 H2353 0.960 . S
C2346 C2344 1.381 . S
C2346 C2347 1.394 . S
C2346 H2354 0.930 . S
C2347 C2346 1.394 . S
C2347 C2348 1.383 . S
C2347 H2355 0.929 . S
C2348 C2347 1.383 . S
C2348 C2349 1.377 . S
C2349 H2333 0.930 . S
C2349 C2348 1.377 . S
C2349 C2350 1.379 . S
C2350 H2334 0.931 . S
C2350 C2344 1.383 . S
C2350 C2349 1.379 . S
H2351 C2345 0.959 . S
H2352 C2345 0.961 . S
H2353 C2345 0.960 . S
H2354 C2346 0.930 . S
H2355 C2347 0.929 . S
H2356 C2364 0.929 . S
H2357 C2366 0.930 . S
H2358 C2368 0.930 . S
H2359 C2371 0.929 . S
H2360 C2374 0.930 . S
H2361 C2376 0.960 . S
H2362 C2376 0.960 . S
H2363 C2376 0.960 . S
C2364 H2356 0.929 . S
C2364 C2365 1.377 . S
C2364 C2366 1.384 . S
C2365 C2364 1.377 . S
C2365 C2371 1.390 . S
C2366 H2357 0.930 . S
C2366 C2364 1.384 . S
C2366 C2367 1.372 . S
C2367 C2366 1.372 . S
C2367 C2368 1.400 . S
C2367 C2372 1.490 . S
C2368 H2358 0.930 . S
C2368 C2367 1.400 . S
C2368 C2371 1.386 . S
H2369 C2385 0.930 . S
H2370 C2386 0.931 . S
C2371 H2359 0.929 . S
C2371 C2365 1.390 . S
C2371 C2368 1.386 . S
C2372 C2367 1.490 . S
C2372 C2374 1.395 . S
C2372 C2375 1.403 . S
H2373 C2379 0.930 . S
C2374 H2360 0.930 . S
C2374 C2372 1.395 . S
C2374 C2377 1.403 . S
C2375 C2372 1.403 . S
C2375 C2376 1.524 . S
C2375 C2379 1.400 . S
C2376 H2361 0.960 . S
C2376 H2362 0.960 . S
C2376 H2363 0.960 . S
C2376 C2375 1.524 . S
C2377 C2374 1.403 . S
C2377 C2378 1.392 . S
C2377 C2381 1.495 . S
C2378 C2377 1.392 . S
C2378 C2379 1.385 . S
C2378 C2380 1.478 . S
C2379 H2373 0.930 . S
C2379 C2375 1.400 . S
C2379 C2378 1.385 . S
C2380 C2378 1.478 . S
C2380 C2382 1.381 . S
C2380 C2386 1.383 . S
C2381 C2377 1.495 . S
C2381 H2387 0.959 . S
C2381 H2388 0.961 . S
C2381 H2389 0.960 . S
C2382 C2380 1.381 . S
C2382 C2383 1.394 . S
C2382 H2390 0.930 . S
C2383 C2382 1.394 . S
C2383 C2384 1.383 . S
C2383 H2391 0.929 . S
C2384 C2383 1.383 . S
C2384 C2385 1.377 . S
C2385 H2369 0.930 . S
C2385 C2384 1.377 . S
C2385 C2386 1.379 . S
C2386 H2370 0.931 . S
C2386 C2380 1.383 . S
C2386 C2385 1.379 . S
H2387 C2381 0.959 . S
H2388 C2381 0.961 . S
H2389 C2381 0.960 . S
H2390 C2382 0.930 . S
H2391 C2383 0.929 . S
H2392 C2400 0.929 . S
H2393 C2402 0.930 . S
H2394 C2404 0.930 . S
H2395 C2407 0.929 . S
H2396 C2410 0.930 . S
H2397 C2412 0.960 . S
H2398 C2412 0.960 . S
H2399 C2412 0.960 . S
C2400 H2392 0.929 . S
C2400 C2401 1.377 . S
C2400 C2402 1.384 . S
C2401 C2400 1.377 . S
C2401 C2407 1.390 . S
C2402 H2393 0.930 . S
C2402 C2400 1.384 . S
C2402 C2403 1.372 . S
C2403 C2402 1.372 . S
C2403 C2404 1.400 . S
C2403 C2408 1.490 . S
C2404 H2394 0.930 . S
C2404 C2403 1.400 . S
C2404 C2407 1.386 . S
H2405 C2421 0.930 . S
H2406 C2422 0.931 . S
C2407 H2395 0.929 . S
C2407 C2401 1.390 . S
C2407 C2404 1.386 . S
C2408 C2403 1.490 . S
C2408 C2410 1.395 . S
C2408 C2411 1.403 . S
H2409 C2415 0.930 . S
C2410 H2396 0.930 . S
C2410 C2408 1.395 . S
C2410 C2413 1.403 . S
C2411 C2408 1.403 . S
C2411 C2412 1.524 . S
C2411 C2415 1.400 . S
C2412 H2397 0.960 . S
C2412 H2398 0.960 . S
C2412 H2399 0.960 . S
C2412 C2411 1.524 . S
C2413 C2410 1.403 . S
C2413 C2414 1.392 . S
C2413 C2417 1.495 . S
C2414 C2413 1.392 . S
C2414 C2415 1.385 . S
C2414 C2416 1.478 . S
C2415 H2409 0.930 . S
C2415 C2411 1.400 . S
C2415 C2414 1.385 . S
C2416 C2414 1.478 . S
C2416 C2418 1.381 . S
C2416 C2422 1.383 . S
C2417 C2413 1.495 . S
C2417 H2423 0.959 . S
C2417 H2424 0.961 . S
C2417 H2425 0.960 . S
C2418 C2416 1.381 . S
C2418 C2419 1.394 . S
C2418 H2426 0.930 . S
C2419 C2418 1.394 . S
C2419 C2420 1.383 . S
C2419 H2427 0.929 . S
C2420 C2419 1.383 . S
C2420 C2421 1.377 . S
C2421 H2405 0.930 . S
C2421 C2420 1.377 . S
C2421 C2422 1.379 . S
C2422 H2406 0.931 . S
C2422 C2416 1.383 . S
C2422 C2421 1.379 . S
H2423 C2417 0.959 . S
H2424 C2417 0.961 . S
H2425 C2417 0.960 . S
H2426 C2418 0.930 . S
H2427 C2419 0.929 . S
H2428 C2436 0.929 . S
H2429 C2438 0.930 . S
H2430 C2440 0.930 . S
H2431 C2443 0.929 . S
H2432 C2446 0.930 . S
H2433 C2448 0.960 . S
H2434 C2448 0.960 . S
H2435 C2448 0.960 . S
C2436 H2428 0.929 . S
C2436 C2437 1.377 . S
C2436 C2438 1.384 . S
C2437 C2436 1.377 . S
C2437 C2443 1.390 . S
C2438 H2429 0.930 . S
C2438 C2436 1.384 . S
C2438 C2439 1.372 . S
C2439 C2438 1.372 . S
C2439 C2440 1.400 . S
C2439 C2444 1.490 . S
C2440 H2430 0.930 . S
C2440 C2439 1.400 . S
C2440 C2443 1.386 . S
H2441 C2457 0.930 . S
H2442 C2458 0.931 . S
C2443 H2431 0.929 . S
C2443 C2437 1.390 . S
C2443 C2440 1.386 . S
C2444 C2439 1.490 . S
C2444 C2446 1.395 . S
C2444 C2447 1.403 . S
H2445 C2451 0.930 . S
C2446 H2432 0.930 . S
C2446 C2444 1.395 . S
C2446 C2449 1.403 . S
C2447 C2444 1.403 . S
C2447 C2448 1.524 . S
C2447 C2451 1.400 . S
C2448 H2433 0.960 . S
C2448 H2434 0.960 . S
C2448 H2435 0.960 . S
C2448 C2447 1.524 . S
C2449 C2446 1.403 . S
C2449 C2450 1.392 . S
C2449 C2453 1.495 . S
C2450 C2449 1.392 . S
C2450 C2451 1.385 . S
C2450 C2452 1.478 . S
C2451 H2445 0.930 . S
C2451 C2447 1.400 . S
C2451 C2450 1.385 . S
C2452 C2450 1.478 . S
C2452 C2454 1.381 . S
C2452 C2458 1.383 . S
C2453 C2449 1.495 . S
C2453 H2459 0.959 . S
C2453 H2460 0.961 . S
C2453 H2461 0.960 . S
C2454 C2452 1.381 . S
C2454 C2455 1.394 . S
C2454 H2462 0.930 . S
C2455 C2454 1.394 . S
C2455 C2456 1.383 . S
C2455 H2463 0.929 . S
C2456 C2455 1.383 . S
C2456 C2457 1.377 . S
C2457 H2441 0.930 . S
C2457 C2456 1.377 . S
C2457 C2458 1.379 . S
C2458 H2442 0.931 . S
C2458 C2452 1.383 . S
C2458 C2457 1.379 . S
H2459 C2453 0.959 . S
H2460 C2453 0.961 . S
H2461 C2453 0.960 . S
H2462 C2454 0.930 . S
H2463 C2455 0.929 . S
H2464 C2472 0.929 . S
H2465 C2474 0.930 . S
H2466 C2476 0.930 . S
H2467 C2479 0.929 . S
H2468 C2482 0.930 . S
H2469 C2484 0.960 . S
H2470 C2484 0.960 . S
H2471 C2484 0.960 . S
C2472 H2464 0.929 . S
C2472 C2473 1.377 . S
C2472 C2474 1.384 . S
C2473 C2472 1.377 . S
C2473 C2479 1.390 . S
C2474 H2465 0.930 . S
C2474 C2472 1.384 . S
C2474 C2475 1.372 . S
C2475 C2474 1.372 . S
C2475 C2476 1.400 . S
C2475 C2480 1.490 . S
C2476 H2466 0.930 . S
C2476 C2475 1.400 . S
C2476 C2479 1.386 . S
H2477 C2493 0.930 . S
H2478 C2494 0.931 . S
C2479 H2467 0.929 . S
C2479 C2473 1.390 . S
C2479 C2476 1.386 . S
C2480 C2475 1.490 . S
C2480 C2482 1.395 . S
C2480 C2483 1.403 . S
H2481 C2487 0.930 . S
C2482 H2468 0.930 . S
C2482 C2480 1.395 . S
C2482 C2485 1.403 . S
C2483 C2480 1.403 . S
C2483 C2484 1.524 . S
C2483 C2487 1.400 . S
C2484 H2469 0.960 . S
C2484 H2470 0.960 . S
C2484 H2471 0.960 . S
C2484 C2483 1.524 . S
C2485 C2482 1.403 . S
C2485 C2486 1.392 . S
C2485 C2489 1.495 . S
C2486 C2485 1.392 . S
C2486 C2487 1.385 . S
C2486 C2488 1.478 . S
C2487 H2481 0.930 . S
C2487 C2483 1.400 . S
C2487 C2486 1.385 . S
C2488 C2486 1.478 . S
C2488 C2490 1.381 . S
C2488 C2494 1.383 . S
C2489 C2485 1.495 . S
C2489 H2495 0.959 . S
C2489 H2496 0.961 . S
C2489 H2497 0.960 . S
C2490 C2488 1.381 . S
C2490 C2491 1.394 . S
C2490 H2498 0.930 . S
C2491 C2490 1.394 . S
C2491 C2492 1.383 . S
C2491 H2499 0.929 . S
C2492 C2491 1.383 . S
C2492 C2493 1.377 . S
C2493 H2477 0.930 . S
C2493 C2492 1.377 . S
C2493 C2494 1.379 . S
C2494 H2478 0.931 . S
C2494 C2488 1.383 . S
C2494 C2493 1.379 . S
H2495 C2489 0.959 . S
H2496 C2489 0.961 . S
H2497 C2489 0.960 . S
H2498 C2490 0.930 . S
H2499 C2491 0.929 . S
H2500 C2508 0.929 . S
H2501 C2510 0.930 . S
H2502 C2512 0.930 . S
H2503 C2515 0.929 . S
H2504 C2518 0.930 . S
H2505 C2520 0.960 . S
H2506 C2520 0.960 . S
H2507 C2520 0.960 . S
C2508 H2500 0.929 . S
C2508 C2509 1.377 . S
C2508 C2510 1.384 . S
C2509 C2508 1.377 . S
C2509 C2515 1.390 . S
C2510 H2501 0.930 . S
C2510 C2508 1.384 . S
C2510 C2511 1.372 . S
C2511 C2510 1.372 . S
C2511 C2512 1.400 . S
C2511 C2516 1.490 . S
C2512 H2502 0.930 . S
C2512 C2511 1.400 . S
C2512 C2515 1.386 . S
H2513 C2529 0.930 . S
H2514 C2530 0.931 . S
C2515 H2503 0.929 . S
C2515 C2509 1.390 . S
C2515 C2512 1.386 . S
C2516 C2511 1.490 . S
C2516 C2518 1.395 . S
C2516 C2519 1.403 . S
H2517 C2523 0.930 . S
C2518 H2504 0.930 . S
C2518 C2516 1.395 . S
C2518 C2521 1.403 . S
C2519 C2516 1.403 . S
C2519 C2520 1.524 . S
C2519 C2523 1.400 . S
C2520 H2505 0.960 . S
C2520 H2506 0.960 . S
C2520 H2507 0.960 . S
C2520 C2519 1.524 . S
C2521 C2518 1.403 . S
C2521 C2522 1.392 . S
C2521 C2525 1.495 . S
C2522 C2521 1.392 . S
C2522 C2523 1.385 . S
C2522 C2524 1.478 . S
C2523 H2517 0.930 . S
C2523 C2519 1.400 . S
C2523 C2522 1.385 . S
C2524 C2522 1.478 . S
C2524 C2526 1.381 . S
C2524 C2530 1.383 . S
C2525 C2521 1.495 . S
C2525 H2531 0.959 . S
C2525 H2532 0.961 . S
C2525 H2533 0.960 . S
C2526 C2524 1.381 . S
C2526 C2527 1.394 . S
C2526 H2534 0.930 . S
C2527 C2526 1.394 . S
C2527 C2528 1.383 . S
C2527 H2535 0.929 . S
C2528 C2527 1.383 . S
C2528 C2529 1.377 . S
C2529 H2513 0.930 . S
C2529 C2528 1.377 . S
C2529 C2530 1.379 . S
C2530 H2514 0.931 . S
C2530 C2524 1.383 . S
C2530 C2529 1.379 . S
H2531 C2525 0.959 . S
H2532 C2525 0.961 . S
H2533 C2525 0.960 . S
H2534 C2526 0.930 . S
H2535 C2527 0.929 . S
H2536 C2544 0.929 . S
H2537 C2546 0.930 . S
H2538 C2548 0.930 . S
H2539 C2551 0.929 . S
H2540 C2554 0.930 . S
H2541 C2556 0.960 . S
H2542 C2556 0.960 . S
H2543 C2556 0.960 . S
C2544 H2536 0.929 . S
C2544 C2545 1.377 . S
C2544 C2546 1.384 . S
C2545 C2544 1.377 . S
C2545 C2551 1.390 . S
C2546 H2537 0.930 . S
C2546 C2544 1.384 . S
C2546 C2547 1.372 . S
C2547 C2546 1.372 . S
C2547 C2548 1.400 . S
C2547 C2552 1.490 . S
C2548 H2538 0.930 . S
C2548 C2547 1.400 . S
C2548 C2551 1.386 . S
H2549 C2565 0.930 . S
H2550 C2566 0.931 . S
C2551 H2539 0.929 . S
C2551 C2545 1.390 . S
C2551 C2548 1.386 . S
C2552 C2547 1.490 . S
C2552 C2554 1.395 . S
C2552 C2555 1.403 . S
H2553 C2559 0.930 . S
C2554 H2540 0.930 . S
C2554 C2552 1.395 . S
C2554 C2557 1.403 . S
C2555 C2552 1.403 . S
C2555 C2556 1.524 . S
C2555 C2559 1.400 . S
C2556 H2541 0.960 . S
C2556 H2542 0.960 . S
C2556 H2543 0.960 . S
C2556 C2555 1.524 . S
C2557 C2554 1.403 . S
C2557 C2558 1.392 . S
C2557 C2561 1.495 . S
C2558 C2557 1.392 . S
C2558 C2559 1.385 . S
C2558 C2560 1.478 . S
C2559 H2553 0.930 . S
C2559 C2555 1.400 . S
C2559 C2558 1.385 . S
C2560 C2558 1.478 . S
C2560 C2562 1.381 . S
C2560 C2566 1.383 . S
C2561 C2557 1.495 . S
C2561 H2567 0.959 . S
C2561 H2568 0.961 . S
C2561 H2569 0.960 . S
C2562 C2560 1.381 . S
C2562 C2563 1.394 . S
C2562 H2570 0.930 . S
C2563 C2562 1.394 . S
C2563 C2564 1.383 . S
C2563 H2571 0.929 . S
C2564 C2563 1.383 . S
C2564 C2565 1.377 . S
C2565 H2549 0.930 . S
C2565 C2564 1.377 . S
C2565 C2566 1.379 . S
C2566 H2550 0.931 . S
C2566 C2560 1.383 . S
C2566 C2565 1.379 . S
H2567 C2561 0.959 . S
H2568 C2561 0.961 . S
H2569 C2561 0.960 . S
H2570 C2562 0.930 . S
H2571 C2563 0.929 . S
H2572 C2580 0.929 . S
H2573 C2582 0.930 . S
H2574 C2584 0.930 . S
H2575 C2587 0.929 . S
H2576 C2590 0.930 . S
H2577 C2592 0.960 . S
H2578 C2592 0.960 . S
H2579 C2592 0.960 . S
C2580 H2572 0.929 . S
C2580 C2581 1.377 . S
C2580 C2582 1.384 . S
C2581 C2580 1.377 . S
C2581 C2587 1.390 . S
C2582 H2573 0.930 . S
C2582 C2580 1.384 . S
C2582 C2583 1.372 . S
C2583 C2582 1.372 . S
C2583 C2584 1.400 . S
C2583 C2588 1.490 . S
C2584 H2574 0.930 . S
C2584 C2583 1.400 . S
C2584 C2587 1.386 . S
H2585 C2601 0.930 . S
H2586 C2602 0.931 . S
C2587 H2575 0.929 . S
C2587 C2581 1.390 . S
C2587 C2584 1.386 . S
C2588 C2583 1.490 . S
C2588 C2590 1.395 . S
C2588 C2591 1.403 . S
H2589 C2595 0.930 . S
C2590 H2576 0.930 . S
C2590 C2588 1.395 . S
C2590 C2593 1.403 . S
C2591 C2588 1.403 . S
C2591 C2592 1.524 . S
C2591 C2595 1.400 . S
C2592 H2577 0.960 . S
C2592 H2578 0.960 . S
C2592 H2579 0.960 . S
C2592 C2591 1.524 . S
C2593 C2590 1.403 . S
C2593 C2594 1.392 . S
C2593 C2597 1.495 . S
C2594 C2593 1.392 . S
C2594 C2595 1.385 . S
C2594 C2596 1.478 . S
C2595 H2589 0.930 . S
C2595 C2591 1.400 . S
C2595 C2594 1.385 . S
C2596 C2594 1.478 . S
C2596 C2598 1.381 . S
C2596 C2602 1.383 . S
C2597 C2593 1.495 . S
C2597 H2603 0.959 . S
C2597 H2604 0.961 . S
C2597 H2605 0.960 . S
C2598 C2596 1.381 . S
C2598 C2599 1.394 . S
C2598 H2606 0.930 . S
C2599 C2598 1.394 . S
C2599 C2600 1.383 . S
C2599 H2607 0.929 . S
C2600 C2599 1.383 . S
C2600 C2601 1.377 . S
C2601 H2585 0.930 . S
C2601 C2600 1.377 . S
C2601 C2602 1.379 . S
C2602 H2586 0.931 . S
C2602 C2596 1.383 . S
C2602 C2601 1.379 . S
H2603 C2597 0.959 . S
H2604 C2597 0.961 . S
H2605 C2597 0.960 . S
H2606 C2598 0.930 . S
H2607 C2599 0.929 . S
H2608 C2616 0.929 . S
H2609 C2618 0.930 . S
H2610 C2620 0.930 . S
H2611 C2623 0.929 . S
H2612 C2626 0.930 . S
H2613 C2628 0.960 . S
H2614 C2628 0.960 . S
H2615 C2628 0.960 . S
C2616 H2608 0.929 . S
C2616 C2617 1.377 . S
C2616 C2618 1.384 . S
C2617 C2616 1.377 . S
C2617 C2623 1.390 . S
C2618 H2609 0.930 . S
C2618 C2616 1.384 . S
C2618 C2619 1.372 . S
C2619 C2618 1.372 . S
C2619 C2620 1.400 . S
C2619 C2624 1.490 . S
C2620 H2610 0.930 . S
C2620 C2619 1.400 . S
C2620 C2623 1.386 . S
H2621 C2637 0.930 . S
H2622 C2638 0.931 . S
C2623 H2611 0.929 . S
C2623 C2617 1.390 . S
C2623 C2620 1.386 . S
C2624 C2619 1.490 . S
C2624 C2626 1.395 . S
C2624 C2627 1.403 . S
H2625 C2631 0.930 . S
C2626 H2612 0.930 . S
C2626 C2624 1.395 . S
C2626 C2629 1.403 . S
C2627 C2624 1.403 . S
C2627 C2628 1.524 . S
C2627 C2631 1.400 . S
C2628 H2613 0.960 . S
C2628 H2614 0.960 . S
C2628 H2615 0.960 . S
C2628 C2627 1.524 . S
C2629 C2626 1.403 . S
C2629 C2630 1.392 . S
C2629 C2633 1.495 . S
C2630 C2629 1.392 . S
C2630 C2631 1.385 . S
C2630 C2632 1.478 . S
C2631 H2625 0.930 . S
C2631 C2627 1.400 . S
C2631 C2630 1.385 . S
C2632 C2630 1.478 . S
C2632 C2634 1.381 . S
C2632 C2638 1.383 . S
C2633 C2629 1.495 . S
C2633 H2639 0.959 . S
C2633 H2640 0.961 . S
C2633 H2641 0.960 . S
C2634 C2632 1.381 . S
C2634 C2635 1.394 . S
C2634 H2642 0.930 . S
C2635 C2634 1.394 . S
C2635 C2636 1.383 . S
C2635 H2643 0.929 . S
C2636 C2635 1.383 . S
C2636 C2637 1.377 . S
C2637 H2621 0.930 . S
C2637 C2636 1.377 . S
C2637 C2638 1.379 . S
C2638 H2622 0.931 . S
C2638 C2632 1.383 . S
C2638 C2637 1.379 . S
H2639 C2633 0.959 . S
H2640 C2633 0.961 . S
H2641 C2633 0.960 . S
H2642 C2634 0.930 . S
H2643 C2635 0.929 . S
H2644 C2652 0.929 . S
H2645 C2654 0.930 . S
H2646 C2656 0.930 . S
H2647 C2659 0.929 . S
H2648 C2662 0.930 . S
H2649 C2664 0.960 . S
H2650 C2664 0.960 . S
H2651 C2664 0.960 . S
C2652 H2644 0.929 . S
C2652 C2653 1.377 . S
C2652 C2654 1.384 . S
C2653 C2652 1.377 . S
C2653 C2659 1.390 . S
C2654 H2645 0.930 . S
C2654 C2652 1.384 . S
C2654 C2655 1.372 . S
C2655 C2654 1.372 . S
C2655 C2656 1.400 . S
C2655 C2660 1.490 . S
C2656 H2646 0.930 . S
C2656 C2655 1.400 . S
C2656 C2659 1.386 . S
H2657 C2673 0.930 . S
H2658 C2674 0.931 . S
C2659 H2647 0.929 . S
C2659 C2653 1.390 . S
C2659 C2656 1.386 . S
C2660 C2655 1.490 . S
C2660 C2662 1.395 . S
C2660 C2663 1.403 . S
H2661 C2667 0.930 . S
C2662 H2648 0.930 . S
C2662 C2660 1.395 . S
C2662 C2665 1.403 . S
C2663 C2660 1.403 . S
C2663 C2664 1.524 . S
C2663 C2667 1.400 . S
C2664 H2649 0.960 . S
C2664 H2650 0.960 . S
C2664 H2651 0.960 . S
C2664 C2663 1.524 . S
C2665 C2662 1.403 . S
C2665 C2666 1.392 . S
C2665 C2669 1.495 . S
C2666 C2665 1.392 . S
C2666 C2667 1.385 . S
C2666 C2668 1.478 . S
C2667 H2661 0.930 . S
C2667 C2663 1.400 . S
C2667 C2666 1.385 . S
C2668 C2666 1.478 . S
C2668 C2670 1.381 . S
C2668 C2674 1.383 . S
C2669 C2665 1.495 . S
C2669 H2675 0.959 . S
C2669 H2676 0.961 . S
C2669 H2677 0.960 . S
C2670 C2668 1.381 . S
C2670 C2671 1.394 . S
C2670 H2678 0.930 . S
C2671 C2670 1.394 . S
C2671 C2672 1.383 . S
C2671 H2679 0.929 . S
C2672 C2671 1.383 . S
C2672 C2673 1.377 . S
C2673 H2657 0.930 . S
C2673 C2672 1.377 . S
C2673 C2674 1.379 . S
C2674 H2658 0.931 . S
C2674 C2668 1.383 . S
C2674 C2673 1.379 . S
H2675 C2669 0.959 . S
H2676 C2669 0.961 . S
H2677 C2669 0.960 . S
H2678 C2670 0.930 . S
H2679 C2671 0.929 . S
H2680 C2688 0.929 . S
H2681 C2690 0.930 . S
H2682 C2692 0.930 . S
H2683 C2695 0.929 . S
H2684 C2698 0.930 . S
H2685 C2700 0.960 . S
H2686 C2700 0.960 . S
H2687 C2700 0.960 . S
C2688 H2680 0.929 . S
C2688 C2689 1.377 . S
C2688 C2690 1.384 . S
C2689 C2688 1.377 . S
C2689 C2695 1.390 . S
C2690 H2681 0.930 . S
C2690 C2688 1.384 . S
C2690 C2691 1.372 . S
C2691 C2690 1.372 . S
C2691 C2692 1.400 . S
C2691 C2696 1.490 . S
C2692 H2682 0.930 . S
C2692 C2691 1.400 . S
C2692 C2695 1.386 . S
H2693 C2709 0.930 . S
H2694 C2710 0.931 . S
C2695 H2683 0.929 . S
C2695 C2689 1.390 . S
C2695 C2692 1.386 . S
C2696 C2691 1.490 . S
C2696 C2698 1.395 . S
C2696 C2699 1.403 . S
H2697 C2703 0.930 . S
C2698 H2684 0.930 . S
C2698 C2696 1.395 . S
C2698 C2701 1.403 . S
C2699 C2696 1.403 . S
C2699 C2700 1.524 . S
C2699 C2703 1.400 . S
C2700 H2685 0.960 . S
C2700 H2686 0.960 . S
C2700 H2687 0.960 . S
C2700 C2699 1.524 . S
C2701 C2698 1.403 . S
C2701 C2702 1.392 . S
C2701 C2705 1.495 . S
C2702 C2701 1.392 . S
C2702 C2703 1.385 . S
C2702 C2704 1.478 . S
C2703 H2697 0.930 . S
C2703 C2699 1.400 . S
C2703 C2702 1.385 . S
C2704 C2702 1.478 . S
C2704 C2706 1.381 . S
C2704 C2710 1.383 . S
C2705 C2701 1.495 . S
C2705 H2711 0.959 . S
C2705 H2712 0.961 . S
C2705 H2713 0.960 . S
C2706 C2704 1.381 . S
C2706 C2707 1.394 . S
C2706 H2714 0.930 . S
C2707 C2706 1.394 . S
C2707 C2708 1.383 . S
C2707 H2715 0.929 . S
C2708 C2707 1.383 . S
C2708 C2709 1.377 . S
C2709 H2693 0.930 . S
C2709 C2708 1.377 . S
C2709 C2710 1.379 . S
C2710 H2694 0.931 . S
C2710 C2704 1.383 . S
C2710 C2709 1.379 . S
H2711 C2705 0.959 . S
H2712 C2705 0.961 . S
H2713 C2705 0.960 . S
H2714 C2706 0.930 . S
H2715 C2707 0.929 . S
H2716 C2724 0.929 . S
H2717 C2726 0.930 . S
H2718 C2728 0.930 . S
H2719 C2731 0.929 . S
H2720 C2734 0.930 . S
H2721 C2736 0.960 . S
H2722 C2736 0.960 . S
H2723 C2736 0.960 . S
C2724 H2716 0.929 . S
C2724 C2725 1.377 . S
C2724 C2726 1.384 . S
C2725 C2724 1.377 . S
C2725 C2731 1.390 . S
C2726 H2717 0.930 . S
C2726 C2724 1.384 . S
C2726 C2727 1.372 . S
C2727 C2726 1.372 . S
C2727 C2728 1.400 . S
C2727 C2732 1.490 . S
C2728 H2718 0.930 . S
C2728 C2727 1.400 . S
C2728 C2731 1.386 . S
H2729 C2745 0.930 . S
H2730 C2746 0.931 . S
C2731 H2719 0.929 . S
C2731 C2725 1.390 . S
C2731 C2728 1.386 . S
C2732 C2727 1.490 . S
C2732 C2734 1.395 . S
C2732 C2735 1.403 . S
H2733 C2739 0.930 . S
C2734 H2720 0.930 . S
C2734 C2732 1.395 . S
C2734 C2737 1.403 . S
C2735 C2732 1.403 . S
C2735 C2736 1.524 . S
C2735 C2739 1.400 . S
C2736 H2721 0.960 . S
C2736 H2722 0.960 . S
C2736 H2723 0.960 . S
C2736 C2735 1.524 . S
C2737 C2734 1.403 . S
C2737 C2738 1.392 . S
C2737 C2741 1.495 . S
C2738 C2737 1.392 . S
C2738 C2739 1.385 . S
C2738 C2740 1.478 . S
C2739 H2733 0.930 . S
C2739 C2735 1.400 . S
C2739 C2738 1.385 . S
C2740 C2738 1.478 . S
C2740 C2742 1.381 . S
C2740 C2746 1.383 . S
C2741 C2737 1.495 . S
C2741 H2747 0.959 . S
C2741 H2748 0.961 . S
C2741 H2749 0.960 . S
C2742 C2740 1.381 . S
C2742 C2743 1.394 . S
C2742 H2750 0.930 . S
C2743 C2742 1.394 . S
C2743 C2744 1.383 . S
C2743 H2751 0.929 . S
C2744 C2743 1.383 . S
C2744 C2745 1.377 . S
C2745 H2729 0.930 . S
C2745 C2744 1.377 . S
C2745 C2746 1.379 . S
C2746 H2730 0.931 . S
C2746 C2740 1.383 . S
C2746 C2745 1.379 . S
H2747 C2741 0.959 . S
H2748 C2741 0.961 . S
H2749 C2741 0.960 . S
H2750 C2742 0.930 . S
H2751 C2743 0.929 . S
C457 C218 1.520 . S
C476 C8 1.508 . S
C493 C22 1.524 . S
C512 C176 1.501 . S
C529 C36 1.521 . S
C548 C190 1.503 . S
C565 C204 1.522 . S
C584 C50 1.532 . S
C601 C64 1.520 . S
C620 C134 1.536 . S
C637 C78 1.524 . S
C656 C148 1.501 . S
C673 C162 1.518 . S
C692 C92 1.531 . S
C709 C120 1.521 . S
C728 C106 1.535 . S
C745 C232 1.521 . S
C764 C442 1.534 . S
C781 C246 1.523 . S
C800 C400 1.530 . S
C817 C260 1.518 . S
C836 C414 1.524 . S
C853 C428 1.519 . S
C872 C274 1.536 . S
C889 C288 1.525 . S
C908 C358 1.503 . S
C925 C302 1.525 . S
C944 C372 1.504 . S
C961 C386 1.520 . S
C980 C316 1.536 . S
C997 C330 1.518 . S
C1016 C344 1.529 . S
C1033 C175 1.459 . S
C1052 C7 1.435 . S
C1069 C21 1.459 . S
C1088 C189 1.471 . S
C1105 C203 1.460 . S
C1124 C35 1.434 . S
C1141 C49 1.456 . S
C1160 C217 1.476 . S
C1177 C63 1.460 . S
C1196 C119 1.434 . S
C1213 C133 1.462 . S
C1232 C77 1.442 . S
C1249 C147 1.460 . S
C1268 C91 1.469 . S
C1285 C161 1.454 . S
C1304 C105 1.460 . S
C1321 C231 1.461 . S
C1340 C399 1.435 . S
C1357 C413 1.455 . S
C1376 C245 1.475 . S
C1393 C259 1.461 . S
C1412 C427 1.436 . S
C1429 C273 1.462 . S
C1448 C441 1.451 . S
C1465 C343 1.459 . S
C1484 C287 1.434 . S
C1501 C301 1.455 . S
C1520 C357 1.474 . S
C1537 C315 1.454 . S
C1556 C371 1.472 . S
C1573 C329 1.454 . S
C1592 C385 1.468 . S
C1609 C9 1.366 . S
C1628 C149 1.381 . S
C1645 C163 1.369 . S
C1664 C23 1.370 . S
C1681 C37 1.367 . S
C1700 C121 1.340 . S
C1717 C135 1.361 . S
C1736 C51 1.368 . S
C1753 C205 1.361 . S
C1772 C65 1.366 . S
C1789 C219 1.367 . S
C1808 C79 1.379 . S
C1825 C177 1.369 . S
C1844 C93 1.367 . S
C1861 C107 1.368 . S
C1880 C191 1.339 . S
C1897 C373 1.361 . S
C1916 C233 1.375 . S
C1933 C247 1.370 . S
C1952 C387 1.358 . S
C1969 C345 1.370 . S
C1988 C261 1.347 . S
C2005 C359 1.370 . S
C2024 C275 1.343 . S
C2041 C289 1.368 . S
C2060 C429 1.374 . S
C2077 C303 1.370 . S
C2096 C443 1.355 . S
C2113 C401 1.369 . S
C2132 C317 1.371 . S
C2149 C415 1.361 . S
C2168 C331 1.382 . S
C2185 C328 1.361 . S
C2204 C6 1.354 . S
C2221 C286 1.364 . S
C2240 C20 1.371 . S
C2257 C300 1.365 . S
C2276 C34 1.375 . S
C2293 C314 1.360 . S
C2312 C48 1.349 . S
C2329 C244 1.359 . S
C2348 C62 1.346 . S
C2365 C76 1.358 . S
C2384 C258 1.343 . S
C2401 C90 1.358 . S
C2420 C272 1.344 . S
C2437 C104 1.358 . S
C2456 C230 1.340 . S
C2473 C118 1.361 . S
C2492 C440 1.376 . S
C2509 C398 1.365 . S
C2528 C132 1.343 . S
C2545 C146 1.360 . S
C2564 C412 1.377 . S
C2581 C160 1.363 . S
C2600 C426 1.340 . S
C2617 C356 1.362 . S
C2636 C174 1.340 . S
C2653 C370 1.362 . S
C2672 C188 1.340 . S
C2689 C202 1.364 . S
C2708 C384 1.364 . S
C2725 C216 1.359 . S
C2744 C342 1.377 . S
