# Generated by pormake.
# Topology wle, (5)-cn, num edge types: 1
# Building blocks:
#     Node 0, Type 0, BuildingBlock: BEQFEK_clean_sbu_0, # of connection points: 5
#     Node 1, Type 0, BuildingBlock: BEQFEK_clean_sbu_0, # of connection points: 5
#     Node 2, Type 0, BuildingBlock: BEQFEK_clean_sbu_0, # of connection points: 5
#     Node 3, Type 0, BuildingBlock: BEQFEK_clean_sbu_0, # of connection points: 5
#     Node 4, Type 0, BuildingBlock: BEQFEK_clean_sbu_0, # of connection points: 5
#     Node 5, Type 0, BuildingBlock: BEQFEK_clean_sbu_0, # of connection points: 5
#     Node 6, Type 0, BuildingBlock: BEQFEK_clean_sbu_0, # of connection points: 5
#     Node 7, Type 0, BuildingBlock: BEQFEK_clean_sbu_0, # of connection points: 5
#     Node 8, Type 0, BuildingBlock: BEQFEK_clean_sbu_0, # of connection points: 5
#     Node 9, Type 0, BuildingBlock: BEQFEK_clean_sbu_0, # of connection points: 5
#     Node 10, Type 0, BuildingBlock: BEQFEK_clean_sbu_0, # of connection points: 5
#     Node 11, Type 0, BuildingBlock: BEQFEK_clean_sbu_0, # of connection points: 5
#     Node 12, Type 0, BuildingBlock: BEQFEK_clean_sbu_0, # of connection points: 5
#     Node 13, Type 0, BuildingBlock: BEQFEK_clean_sbu_0, # of connection points: 5
#     Node 14, Type 0, BuildingBlock: BEQFEK_clean_sbu_0, # of connection points: 5
#     Node 15, Type 0, BuildingBlock: BEQFEK_clean_sbu_0, # of connection points: 5
#     Node 16, Type 0, BuildingBlock: BEQFEK_clean_sbu_0, # of connection points: 5
#     Node 17, Type 0, BuildingBlock: BEQFEK_clean_sbu_0, # of connection points: 5
#     Node 18, Type 0, BuildingBlock: BEQFEK_clean_sbu_0, # of connection points: 5
#     Node 19, Type 0, BuildingBlock: BEQFEK_clean_sbu_0, # of connection points: 5
#     Node 20, Type 0, BuildingBlock: BEQFEK_clean_sbu_0, # of connection points: 5
#     Node 21, Type 0, BuildingBlock: BEQFEK_clean_sbu_0, # of connection points: 5
#     Node 22, Type 0, BuildingBlock: BEQFEK_clean_sbu_0, # of connection points: 5
#     Node 23, Type 0, BuildingBlock: BEQFEK_clean_sbu_0, # of connection points: 5
#     Node 24, Type 0, BuildingBlock: BEQFEK_clean_sbu_0, # of connection points: 5
#     Node 25, Type 0, BuildingBlock: BEQFEK_clean_sbu_0, # of connection points: 5
#     Node 26, Type 0, BuildingBlock: BEQFEK_clean_sbu_0, # of connection points: 5
#     Node 27, Type 0, BuildingBlock: BEQFEK_clean_sbu_0, # of connection points: 5
#     Node 28, Type 0, BuildingBlock: BEQFEK_clean_sbu_0, # of connection points: 5
#     Node 29, Type 0, BuildingBlock: BEQFEK_clean_sbu_0, # of connection points: 5
#     Node 30, Type 0, BuildingBlock: BEQFEK_clean_sbu_0, # of connection points: 5
#     Node 31, Type 0, BuildingBlock: BEQFEK_clean_sbu_0, # of connection points: 5
#     Node 32, Type 0, BuildingBlock: BEQFEK_clean_sbu_0, # of connection points: 5
#     Node 33, Type 0, BuildingBlock: BEQFEK_clean_sbu_0, # of connection points: 5
#     Node 34, Type 0, BuildingBlock: BEQFEK_clean_sbu_0, # of connection points: 5
#     Node 35, Type 0, BuildingBlock: BEQFEK_clean_sbu_0, # of connection points: 5
#     Edge 36, Type (0, 0), BuildingBlock: OJICUG_clean_linker_0, # of connection points: 2
#     Edge 37, Type (0, 0), BuildingBlock: OJICUG_clean_linker_0, # of connection points: 2
#     Edge 38, Type (0, 0), BuildingBlock: OJICUG_clean_linker_0, # of connection points: 2
#     Edge 39, Type (0, 0), BuildingBlock: OJICUG_clean_linker_0, # of connection points: 2
#     Edge 40, Type (0, 0), BuildingBlock: OJICUG_clean_linker_0, # of connection points: 2
#     Edge 41, Type (0, 0), BuildingBlock: OJICUG_clean_linker_0, # of connection points: 2
#     Edge 42, Type (0, 0), BuildingBlock: OJICUG_clean_linker_0, # of connection points: 2
#     Edge 43, Type (0, 0), BuildingBlock: OJICUG_clean_linker_0, # of connection points: 2
#     Edge 44, Type (0, 0), BuildingBlock: OJICUG_clean_linker_0, # of connection points: 2
#     Edge 45, Type (0, 0), BuildingBlock: OJICUG_clean_linker_0, # of connection points: 2
#     Edge 46, Type (0, 0), BuildingBlock: OJICUG_clean_linker_0, # of connection points: 2
#     Edge 47, Type (0, 0), BuildingBlock: OJICUG_clean_linker_0, # of connection points: 2
#     Edge 48, Type (0, 0), BuildingBlock: OJICUG_clean_linker_0, # of connection points: 2
#     Edge 49, Type (0, 0), BuildingBlock: OJICUG_clean_linker_0, # of connection points: 2
#     Edge 50, Type (0, 0), BuildingBlock: OJICUG_clean_linker_0, # of connection points: 2
#     Edge 51, Type (0, 0), BuildingBlock: OJICUG_clean_linker_0, # of connection points: 2
#     Edge 52, Type (0, 0), BuildingBlock: OJICUG_clean_linker_0, # of connection points: 2
#     Edge 53, Type (0, 0), BuildingBlock: OJICUG_clean_linker_0, # of connection points: 2
#     Edge 54, Type (0, 0), BuildingBlock: OJICUG_clean_linker_0, # of connection points: 2
#     Edge 55, Type (0, 0), BuildingBlock: OJICUG_clean_linker_0, # of connection points: 2
#     Edge 56, Type (0, 0), BuildingBlock: OJICUG_clean_linker_0, # of connection points: 2
#     Edge 57, Type (0, 0), BuildingBlock: OJICUG_clean_linker_0, # of connection points: 2
#     Edge 58, Type (0, 0), BuildingBlock: OJICUG_clean_linker_0, # of connection points: 2
#     Edge 59, Type (0, 0), BuildingBlock: OJICUG_clean_linker_0, # of connection points: 2
#     Edge 60, Type (0, 0), BuildingBlock: OJICUG_clean_linker_0, # of connection points: 2
#     Edge 61, Type (0, 0), BuildingBlock: OJICUG_clean_linker_0, # of connection points: 2
#     Edge 62, Type (0, 0), BuildingBlock: OJICUG_clean_linker_0, # of connection points: 2
#     Edge 63, Type (0, 0), BuildingBlock: OJICUG_clean_linker_0, # of connection points: 2
#     Edge 64, Type (0, 0), BuildingBlock: OJICUG_clean_linker_0, # of connection points: 2
#     Edge 65, Type (0, 0), BuildingBlock: OJICUG_clean_linker_0, # of connection points: 2
#     Edge 66, Type (0, 0), BuildingBlock: OJICUG_clean_linker_0, # of connection points: 2
#     Edge 67, Type (0, 0), BuildingBlock: OJICUG_clean_linker_0, # of connection points: 2
#     Edge 68, Type (0, 0), BuildingBlock: OJICUG_clean_linker_0, # of connection points: 2
#     Edge 69, Type (0, 0), BuildingBlock: OJICUG_clean_linker_0, # of connection points: 2
#     Edge 70, Type (0, 0), BuildingBlock: OJICUG_clean_linker_0, # of connection points: 2
#     Edge 71, Type (0, 0), BuildingBlock: OJICUG_clean_linker_0, # of connection points: 2
#     Edge 72, Type (0, 0), BuildingBlock: OJICUG_clean_linker_0, # of connection points: 2
#     Edge 73, Type (0, 0), BuildingBlock: OJICUG_clean_linker_0, # of connection points: 2
#     Edge 74, Type (0, 0), BuildingBlock: OJICUG_clean_linker_0, # of connection points: 2
#     Edge 75, Type (0, 0), BuildingBlock: OJICUG_clean_linker_0, # of connection points: 2
#     Edge 76, Type (0, 0), BuildingBlock: OJICUG_clean_linker_0, # of connection points: 2
#     Edge 77, Type (0, 0), BuildingBlock: OJICUG_clean_linker_0, # of connection points: 2
#     Edge 78, Type (0, 0), BuildingBlock: OJICUG_clean_linker_0, # of connection points: 2
#     Edge 79, Type (0, 0), BuildingBlock: OJICUG_clean_linker_0, # of connection points: 2
#     Edge 80, Type (0, 0), BuildingBlock: OJICUG_clean_linker_0, # of connection points: 2
#     Edge 81, Type (0, 0), BuildingBlock: OJICUG_clean_linker_0, # of connection points: 2
#     Edge 82, Type (0, 0), BuildingBlock: OJICUG_clean_linker_0, # of connection points: 2
#     Edge 83, Type (0, 0), BuildingBlock: OJICUG_clean_linker_0, # of connection points: 2
#     Edge 84, Type (0, 0), BuildingBlock: OJICUG_clean_linker_0, # of connection points: 2
#     Edge 85, Type (0, 0), BuildingBlock: OJICUG_clean_linker_0, # of connection points: 2
#     Edge 86, Type (0, 0), BuildingBlock: OJICUG_clean_linker_0, # of connection points: 2
#     Edge 87, Type (0, 0), BuildingBlock: OJICUG_clean_linker_0, # of connection points: 2
#     Edge 88, Type (0, 0), BuildingBlock: OJICUG_clean_linker_0, # of connection points: 2
#     Edge 89, Type (0, 0), BuildingBlock: OJICUG_clean_linker_0, # of connection points: 2
#     Edge 90, Type (0, 0), BuildingBlock: OJICUG_clean_linker_0, # of connection points: 2
#     Edge 91, Type (0, 0), BuildingBlock: OJICUG_clean_linker_0, # of connection points: 2
#     Edge 92, Type (0, 0), BuildingBlock: OJICUG_clean_linker_0, # of connection points: 2
#     Edge 93, Type (0, 0), BuildingBlock: OJICUG_clean_linker_0, # of connection points: 2
#     Edge 94, Type (0, 0), BuildingBlock: OJICUG_clean_linker_0, # of connection points: 2
#     Edge 95, Type (0, 0), BuildingBlock: OJICUG_clean_linker_0, # of connection points: 2
#     Edge 96, Type (0, 0), BuildingBlock: OJICUG_clean_linker_0, # of connection points: 2
#     Edge 97, Type (0, 0), BuildingBlock: OJICUG_clean_linker_0, # of connection points: 2
#     Edge 98, Type (0, 0), BuildingBlock: OJICUG_clean_linker_0, # of connection points: 2
#     Edge 99, Type (0, 0), BuildingBlock: OJICUG_clean_linker_0, # of connection points: 2
#     Edge 100, Type (0, 0), BuildingBlock: OJICUG_clean_linker_0, # of connection points: 2
#     Edge 101, Type (0, 0), BuildingBlock: OJICUG_clean_linker_0, # of connection points: 2
#     Edge 102, Type (0, 0), BuildingBlock: OJICUG_clean_linker_0, # of connection points: 2
#     Edge 103, Type (0, 0), BuildingBlock: OJICUG_clean_linker_0, # of connection points: 2
#     Edge 104, Type (0, 0), BuildingBlock: OJICUG_clean_linker_0, # of connection points: 2
#     Edge 105, Type (0, 0), BuildingBlock: OJICUG_clean_linker_0, # of connection points: 2
#     Edge 106, Type (0, 0), BuildingBlock: OJICUG_clean_linker_0, # of connection points: 2
#     Edge 107, Type (0, 0), BuildingBlock: OJICUG_clean_linker_0, # of connection points: 2
#     Edge 108, Type (0, 0), BuildingBlock: OJICUG_clean_linker_0, # of connection points: 2
#     Edge 109, Type (0, 0), BuildingBlock: OJICUG_clean_linker_0, # of connection points: 2
#     Edge 110, Type (0, 0), BuildingBlock: OJICUG_clean_linker_0, # of connection points: 2
#     Edge 111, Type (0, 0), BuildingBlock: OJICUG_clean_linker_0, # of connection points: 2
#     Edge 112, Type (0, 0), BuildingBlock: OJICUG_clean_linker_0, # of connection points: 2
#     Edge 113, Type (0, 0), BuildingBlock: OJICUG_clean_linker_0, # of connection points: 2
#     Edge 114, Type (0, 0), BuildingBlock: OJICUG_clean_linker_0, # of connection points: 2
#     Edge 115, Type (0, 0), BuildingBlock: OJICUG_clean_linker_0, # of connection points: 2
#     Edge 116, Type (0, 0), BuildingBlock: OJICUG_clean_linker_0, # of connection points: 2
#     Edge 117, Type (0, 0), BuildingBlock: OJICUG_clean_linker_0, # of connection points: 2
#     Edge 118, Type (0, 0), BuildingBlock: OJICUG_clean_linker_0, # of connection points: 2
#     Edge 119, Type (0, 0), BuildingBlock: OJICUG_clean_linker_0, # of connection points: 2
#     Edge 120, Type (0, 0), BuildingBlock: OJICUG_clean_linker_0, # of connection points: 2
#     Edge 121, Type (0, 0), BuildingBlock: OJICUG_clean_linker_0, # of connection points: 2
#     Edge 122, Type (0, 0), BuildingBlock: OJICUG_clean_linker_0, # of connection points: 2
#     Edge 123, Type (0, 0), BuildingBlock: OJICUG_clean_linker_0, # of connection points: 2
#     Edge 124, Type (0, 0), BuildingBlock: OJICUG_clean_linker_0, # of connection points: 2
#     Edge 125, Type (0, 0), BuildingBlock: OJICUG_clean_linker_0, # of connection points: 2
# Relax obj value: 0.569
# Max RMSD: 0.269
# Mean RMSD: 0.262
data_MOF--net-wle--node1-BEQFEK_clean_sbu_0--edge1-OJICUG_clean_linker_0
_symmetry_space_group_name_H-M    P1
_symmetry_Int_Tables_number       1
_symmetry_cell_setting            triclinic
loop_
_symmetry_equiv_pos_as_xyz
'x, y, z'
_cell_length_a     71.900293
_cell_length_b     71.885622
_cell_length_c     22.359972
_cell_angle_alpha  89.996568
_cell_angle_beta   89.941702
_cell_angle_gamma 120.00353
loop_
_atom_site_label
_atom_site_type_symbol
_atom_site_fract_x
_atom_site_fract_y
_atom_site_fract_z
_atom_type_partial_charge
Co0 Co 0.26665 0.08341 0.06702 0.0
Co1 Co 0.23918 0.09664 0.14536 0.0
C2 C 0.28667 0.1261 0.1283 0.0
O3 O 0.28845 0.11225 0.09697 0.0
O4 O 0.26847 0.12234 0.14795 0.0
C5 C 0.2989 0.07297 0.02798 0.0
O6 O 0.30863 0.08106 0.07906 0.0
C7 C 0.22798 0.11176 0.25252 0.0
C8 C 0.19248 0.09429 0.2511 0.0
C9 C 0.21013 0.10839 0.28451 0.0
N10 N 0.22138 0.10023 0.20201 0.0
N11 N 0.20013 0.08999 0.20095 0.0
C12 C 0.25086 0.1238 0.27306 0.0
H13 H 0.25951 0.11545 0.25829 0.0
H14 H 0.25193 0.12547 0.32246 0.0
H15 H 0.25875 0.1401 0.2531 0.0
C16 C 0.24789 0.04614 0.14827 0.0
N17 N 0.25109 0.06538 0.13039 0.0
N18 N 0.2406 0.07155 0.1659 0.0
C19 C 0.23123 0.05685 0.20963 0.0
C20 C 0.23523 0.04009 0.19937 0.0
C21 C 0.25491 0.033 0.11308 0.0
H22 H 0.25439 0.03586 0.06458 0.0
H23 H 0.27168 0.03785 0.12535 0.0
H24 H 0.24449 0.01558 0.12201 0.0
O25 O 0.24685 0.08534 0.01161 0.0
O26 O 0.22618 0.09394 0.06449 0.0
H27 H 0.20376 0.05656 0.24761 0.0
H28 H 0.21748 0.04795 0.29858 0.0
C29 C 0.21969 0.05933 0.26209 0.0
H30 H 0.22911 0.0758 0.28017 0.0
H31 H 0.19083 0.07946 0.16705 0.0
O32 O 0.28097 0.07171 0.01766 0.0
C33 C 0.23145 0.08914 0.01491 0.0
Co34 Co 0.90871 0.18442 0.04099 0.0
Co35 Co 0.89786 0.14368 0.11653 0.0
C36 C 0.86767 0.16162 0.10751 0.0
O37 O 0.88051 0.17721 0.07438 0.0
O38 O 0.87227 0.14753 0.12514 0.0
C39 C 0.91465 0.22462 -0.00347 0.0
O40 O 0.90399 0.2244 0.04456 0.0
C41 C 0.88993 0.12312 0.23196 0.0
C42 C 0.88961 0.09279 0.2135 0.0
C43 C 0.88716 0.10458 0.25867 0.0
N44 N 0.89433 0.12268 0.17389 0.0
N45 N 0.89433 0.1046 0.16303 0.0
C46 C 0.88632 0.14001 0.25974 0.0
H47 H 0.86889 0.1332 0.26821 0.0
H48 H 0.8921 0.15415 0.22986 0.0
H49 H 0.89473 0.14514 0.30332 0.0
C50 C 0.94563 0.20429 0.12225 0.0
N51 N 0.92747 0.18728 0.10231 0.0
N52 N 0.92352 0.17006 0.13308 0.0
C53 C 0.93936 0.17561 0.17334 0.0
C54 C 0.95359 0.19744 0.16821 0.0
C55 C 0.95467 0.22662 0.09846 0.0
H56 H 0.94212 0.23126 0.09996 0.0
H57 H 0.9688 0.2384 0.12456 0.0
H58 H 0.95938 0.22699 0.051 0.0
O59 O 0.90609 0.16233 0.98496 0.0
O60 O 0.89893 0.13297 0.0354 0.0
H61 H 0.95904 0.16651 0.22442 0.0
H62 H 0.93285 0.15785 0.2548 0.0
C63 C 0.94192 0.16018 0.2127 0.0
H64 H 0.93573 0.14449 0.18998 0.0
H65 H 0.8969 0.10003 0.12091 0.0
O66 O 0.91975 0.21021 0.99035 0.0
C67 C 0.90267 0.14321 0.98633 0.0
Co68 Co 0.80495 0.72335 0.0535 0.0
Co69 Co 0.84576 0.75044 0.13209 0.0
C70 C 0.82563 0.70243 0.11948 0.0
O71 O 0.81028 0.70086 0.08739 0.0
O72 O 0.84057 0.72063 0.13738 0.0
C73 C 0.76345 0.6909 0.01005 0.0
O74 O 0.76204 0.68081 0.06033 0.0
C75 C 0.87061 0.76021 0.24151 0.0
C76 C 0.89208 0.7954 0.23784 0.0
C77 C 0.88625 0.77746 0.27291 0.0
N78 N 0.86709 0.76742 0.18987 0.0
N79 N 0.88006 0.78849 0.18765 0.0
C80 C 0.85787 0.73747 0.2629 0.0
H81 H 0.86499 0.72817 0.24412 0.0
H82 H 0.84099 0.73015 0.24757 0.0
H83 H 0.85816 0.73657 0.31242 0.0
C84 C 0.78758 0.74439 0.13061 0.0
N85 N 0.80314 0.74023 0.11433 0.0
N86 N 0.81991 0.75078 0.14943 0.0
C87 C 0.81518 0.76133 0.19098 0.0
C88 C 0.79469 0.75793 0.17987 0.0
C89 C 0.76723 0.73697 0.09616 0.0
H90 H 0.77039 0.73702 0.04762 0.0
H91 H 0.75547 0.72026 0.10961 0.0
H92 H 0.76019 0.74738 0.10449 0.0
O93 O 0.82775 0.74187 -0.0018 0.0
O94 O 0.85705 0.7625 0.05094 0.0
H95 H 0.84334 0.78846 0.2263 0.0
H96 H 0.82083 0.77697 0.27756 0.0
C97 C 0.82945 0.77329 0.24259 0.0
H98 H 0.83546 0.76338 0.26353 0.0
H99 H 0.88042 0.79819 0.15244 0.0
O100 O 0.77934 0.7096 0.00207 0.0
C101 C 0.84721 0.75678 0.00109 0.0
Co102 Co 0.0751 0.27085 0.43255 0.0
Co103 Co 0.08617 0.24054 0.3599 0.0
C104 C 0.11699 0.2885 0.37047 0.0
O105 O 0.10399 0.29153 0.40202 0.0
O106 O 0.11213 0.26975 0.35282 0.0
C107 C 0.0694 0.30568 0.47273 0.0
O108 O 0.0804 0.31562 0.42458 0.0
C109 C 0.09386 0.22718 0.24548 0.0
C110 C 0.09342 0.19684 0.265 0.0
C111 C 0.09587 0.21089 0.21925 0.0
N112 N 0.08981 0.2228 0.30384 0.0
N113 N 0.08941 0.20456 0.31541 0.0
C114 C 0.09752 0.24754 0.2166 0.0
H115 H 0.11471 0.25742 0.20401 0.0
H116 H 0.09314 0.25684 0.24737 0.0
H117 H 0.08789 0.24388 0.17508 0.0
C118 C 0.03871 0.25366 0.34874 0.0
N119 N 0.05689 0.25513 0.36977 0.0
N120 N 0.06093 0.24159 0.34074 0.0
C121 C 0.04514 0.23079 0.30075 0.0
C122 C 0.03087 0.23837 0.30394 0.0
C123 C 0.02919 0.26665 0.37146 0.0
H124 H 0.0415 0.28394 0.36976 0.0
H125 H 0.01503 0.26388 0.34477 0.0
H126 H 0.02439 0.2624 0.41889 0.0
O127 O 0.07645 0.25093 0.48998 0.0
O128 O 0.0839 0.22862 0.44108 0.0
H129 H 0.0251 0.20095 0.2543 0.0
H130 H 0.05106 0.21777 0.22179 0.0
C131 C 0.0423 0.21198 0.26472 0.0
H132 H 0.04856 0.20292 0.28948 0.0
H133 H 0.08683 0.19762 0.35781 0.0
O134 O 0.064 0.28615 0.48064 0.0
C135 C 0.07959 0.23503 0.48942 0.0
Co136 Co 0.7228 0.80977 0.43662 0.0
Co137 Co 0.75103 0.85156 0.36213 0.0
C138 C 0.70336 0.83314 0.37651 0.0
O139 O 0.70133 0.81713 0.40638 0.0
O140 O 0.72172 0.84792 0.35894 0.0
C141 C 0.68897 0.76817 0.47686 0.0
O142 O 0.67872 0.76816 0.42822 0.0
C143 C 0.76233 0.87868 0.2564 0.0
C144 C 0.79782 0.89695 0.25843 0.0
C145 C 0.7802 0.89345 0.22491 0.0
N146 N 0.76891 0.87356 0.3067 0.0
N147 N 0.79015 0.88475 0.30815 0.0
C148 C 0.73952 0.86762 0.23525 0.0
H149 H 0.73125 0.87553 0.25593 0.0
H150 H 0.73113 0.85049 0.24881 0.0
H151 H 0.73858 0.86862 0.18592 0.0
C152 C 0.74198 0.79219 0.35355 0.0
N153 N 0.73886 0.80809 0.37324 0.0
N154 N 0.74976 0.82524 0.33962 0.0
C155 C 0.7594 0.82043 0.29548 0.0
C156 C 0.75512 0.79947 0.3034 0.0
C157 C 0.7341 0.77131 0.3858 0.0
H158 H 0.73419 0.77383 0.43472 0.0
H159 H 0.71734 0.76 0.37185 0.0
H160 H 0.74422 0.76406 0.37589 0.0
O161 O 0.74229 0.83103 0.49353 0.0
O162 O 0.76363 0.86095 0.44395 0.0
H163 H 0.78712 0.84814 0.26042 0.0
H164 H 0.77389 0.82646 0.20721 0.0
C165 C 0.77135 0.83512 0.24448 0.0
H166 H 0.76202 0.8423 0.22677 0.0
H167 H 0.79944 0.88342 0.3419 0.0
O168 O 0.70806 0.78334 0.48496 0.0
C169 C 0.75784 0.8502 0.49244 0.0
Co170 Co 0.18178 0.91181 0.43933 0.0
Co171 Co 0.14115 0.90065 0.36246 0.0
C172 C 0.15692 0.86928 0.37785 0.0
O173 O 0.17294 0.88258 0.40894 0.0
O174 O 0.14314 0.87403 0.35863 0.0
C175 C 0.22296 0.91808 0.47749 0.0
O176 O 0.22288 0.90871 0.42697 0.0
C177 C 0.11532 0.88739 0.25437 0.0
C178 C 0.09696 0.90447 0.25958 0.0
C179 C 0.10085 0.89111 0.22373 0.0
N180 N 0.12002 0.8981 0.30631 0.0
N181 N 0.10884 0.90814 0.30956 0.0
C182 C 0.12608 0.8755 0.23188 0.0
H183 H 0.14293 0.88335 0.24777 0.0
H184 H 0.12585 0.87477 0.18229 0.0
H185 H 0.11734 0.85885 0.2494 0.0
C186 C 0.20116 0.94977 0.3607 0.0
N187 N 0.18491 0.93038 0.37678 0.0
N188 N 0.1682 0.92513 0.34222 0.0
C189 C 0.17367 0.94066 0.30097 0.0
C190 C 0.19455 0.95698 0.31204 0.0
C191 C 0.22143 0.96201 0.39604 0.0
H192 H 0.21791 0.9589 0.44446 0.0
H193 H 0.23274 0.95641 0.38329 0.0
H194 H 0.22919 0.97954 0.38795 0.0
O195 O 0.16078 0.91111 0.49548 0.0
O196 O 0.1316 0.90391 0.44399 0.0
H197 H 0.14648 0.94214 0.26822 0.0
H198 H 0.16854 0.9518 0.21573 0.0
C199 C 0.15946 0.9396 0.2506 0.0
H200 H 0.1522 0.92362 0.22922 0.0
H201 H 0.10981 0.91801 0.34506 0.0
O202 O 0.2079 0.92199 0.48792 0.0
C203 C 0.14192 0.90833 0.49311 0.0
Co204 Co 0.72227 0.91108 0.93492 0.0
Co205 Co 0.75051 0.89721 0.8621 0.0
C206 C 0.70303 0.8675 0.87896 0.0
O207 O 0.70092 0.88167 0.90754 0.0
O208 O 0.72138 0.87123 0.8607 0.0
C209 C 0.68824 0.91887 0.97122 0.0
O210 O 0.67859 0.90865 0.92195 0.0
C211 C 0.76231 0.88119 0.75781 0.0
C212 C 0.7978 0.89956 0.75924 0.0
C213 C 0.78035 0.88492 0.72609 0.0
N214 N 0.76863 0.89307 0.80779 0.0
N215 N 0.78989 0.90376 0.80901 0.0
C216 C 0.73949 0.86881 0.73687 0.0
H217 H 0.73165 0.85268 0.75785 0.0
H218 H 0.73067 0.87714 0.75033 0.0
H219 H 0.73852 0.86676 0.68758 0.0
C220 C 0.74081 0.94704 0.84876 0.0
N221 N 0.73793 0.92827 0.87011 0.0
N222 N 0.74881 0.92181 0.83722 0.0
C223 C 0.7582 0.93584 0.79197 0.0
C224 C 0.75381 0.95248 0.79838 0.0
C225 C 0.73286 0.96022 0.87954 0.0
H226 H 0.7332 0.9584 0.92868 0.0
H227 H 0.716 0.9544 0.8659 0.0
H228 H 0.74274 0.97748 0.86791 0.0
O229 O 0.74199 0.91011 0.99278 0.0
O230 O 0.76323 0.90124 0.94392 0.0
H231 H 0.78591 0.93579 0.75711 0.0
H232 H 0.77234 0.94357 0.70322 0.0
C233 C 0.77002 0.93273 0.7413 0.0
H234 H 0.76071 0.91606 0.72471 0.0
H235 H 0.79899 0.91472 0.84232 0.0
O236 O 0.70726 0.92291 0.98121 0.0
C237 C 0.75756 0.90651 0.99207 0.0
Co238 Co 0.07954 0.81308 0.9399 0.0
Co239 Co 0.09386 0.85431 0.86245 0.0
C240 C 0.12271 0.83571 0.88032 0.0
O241 O 0.10852 0.82014 0.91117 0.0
O242 O 0.1194 0.85043 0.86044 0.0
C243 C 0.06972 0.77064 0.97871 0.0
O244 O 0.07883 0.76978 0.92863 0.0
C245 C 0.11004 0.88204 0.75752 0.0
C246 C 0.09056 0.89801 0.75658 0.0
C247 C 0.10594 0.89593 0.7249 0.0
N248 N 0.0977 0.87609 0.8067 0.0
N249 N 0.08632 0.88596 0.80646 0.0
C250 C 0.12336 0.87242 0.73827 0.0
H251 H 0.11523 0.85516 0.75044 0.0
H252 H 0.12634 0.87401 0.68934 0.0
H253 H 0.13903 0.88089 0.76161 0.0
C254 C 0.04355 0.79493 0.85445 0.0
N255 N 0.0622 0.81108 0.87526 0.0
N256 N 0.06891 0.82792 0.84009 0.0
C257 C 0.05522 0.82258 0.79373 0.0
C258 C 0.03851 0.80163 0.80175 0.0
C259 C 0.03014 0.7743 0.88746 0.0
H260 H 0.03223 0.77709 0.93634 0.0
H261 H 0.03542 0.76271 0.875 0.0
H262 H 0.01286 0.76722 0.87654 0.0
O263 O 0.08133 0.83462 -0.00432 0.0
O264 O 0.09081 0.86426 0.94371 0.0
H265 H 0.05534 0.84942 0.75191 0.0
H266 H 0.04886 0.82728 0.7018 0.0
C267 C 0.05897 0.83658 0.74025 0.0
H268 H 0.07595 0.84403 0.7262 0.0
H269 H 0.07493 0.88367 0.83891 0.0
O270 O 0.06745 0.78677 0.98856 0.0
C271 C 0.08552 0.85396 0.99294 0.0
Co272 Co 0.17519 0.26554 0.93837 0.0
Co273 Co 0.135 0.2392 0.85761 0.0
C274 C 0.15426 0.28678 0.87371 0.0
O275 O 0.16932 0.28801 0.90663 0.0
O276 O 0.13964 0.2688 0.85357 0.0
C277 C 0.21781 0.29714 0.97889 0.0
O278 O 0.21982 0.30696 0.92771 0.0
C279 C 0.10892 0.22882 0.7506 0.0
C280 C 0.08952 0.19336 0.75259 0.0
C281 C 0.09365 0.21125 0.71936 0.0
N282 N 0.11366 0.22184 0.80068 0.0
N283 N 0.10191 0.20062 0.80201 0.0
C284 C 0.12048 0.2517 0.72987 0.0
H285 H 0.11285 0.26024 0.75058 0.0
H286 H 0.13757 0.25971 0.74363 0.0
H287 H 0.11964 0.25281 0.68054 0.0
C288 C 0.19359 0.24638 0.85828 0.0
N289 N 0.17757 0.24967 0.87572 0.0
N290 N 0.16113 0.23955 0.83936 0.0
C291 C 0.16657 0.23025 0.79566 0.0
C292 C 0.18722 0.23406 0.80658 0.0
C293 C 0.2136 0.25322 0.89394 0.0
H294 H 0.21004 0.25258 0.94236 0.0
H295 H 0.22563 0.27001 0.88202 0.0
H296 H 0.22054 0.24275 0.88508 0.0
O297 O 0.15274 0.24613 0.9932 0.0
O298 O 0.1237 0.22675 0.93808 0.0
H299 H 0.13941 0.20323 0.75616 0.0
H300 H 0.16207 0.21708 0.70608 0.0
C301 C 0.15279 0.21918 0.74248 0.0
H302 H 0.14597 0.22884 0.72469 0.0
H303 H 0.10274 0.19107 0.83587 0.0
O304 O 0.20093 0.27932 0.98887 0.0
C305 C 0.13326 0.23145 0.98834 0.0
Co306 Co 0.91155 0.721 0.55665 0.0
Co307 Co 0.89899 0.74958 0.63302 0.0
C308 C 0.87021 0.70154 0.6239 0.0
O309 O 0.88365 0.69929 0.59198 0.0
O310 O 0.874 0.72005 0.64061 0.0
C311 C 0.91808 0.68706 0.5119 0.0
O312 O 0.90824 0.67679 0.56099 0.0
C313 C 0.88577 0.7609 0.74328 0.0
C314 C 0.89769 0.79567 0.73382 0.0
C315 C 0.88722 0.77846 0.77252 0.0
N316 N 0.89522 0.76727 0.68965 0.0
N317 N 0.90228 0.78808 0.684 0.0
C318 C 0.87652 0.73859 0.7675 0.0
H319 H 0.88571 0.73105 0.75061 0.0
H320 H 0.87664 0.73862 0.81714 0.0
H321 H 0.85964 0.72888 0.75231 0.0
C322 C 0.95065 0.74273 0.631 0.0
N323 N 0.93074 0.73834 0.61604 0.0
N324 N 0.92506 0.74965 0.64989 0.0
C325 C 0.94092 0.76104 0.68915 0.0
C326 C 0.95781 0.75736 0.67781 0.0
C327 C 0.96307 0.73454 0.59715 0.0
H328 H 0.95993 0.73442 0.54857 0.0
H329 H 0.95757 0.71777 0.61122 0.0
H330 H 0.98058 0.74452 0.60524 0.0
O331 O 0.90746 0.73936 0.50027 0.0
O332 O 0.89976 0.76109 0.55119 0.0
H333 H 0.93982 0.78874 0.71932 0.0
H334 H 0.95266 0.77944 0.77141 0.0
C335 C 0.93948 0.77436 0.73853 0.0
H336 H 0.92421 0.76479 0.763 0.0
H337 H 0.91042 0.79716 0.64648 0.0
O338 O 0.92273 0.70645 0.50549 0.0
C339 C 0.90344 0.75465 0.50185 0.0
Co340 Co 0.26801 0.18586 0.5712 0.0
Co341 Co 0.23893 0.1447 0.64677 0.0
C342 C 0.28669 0.16254 0.63539 0.0
O343 O 0.28915 0.17842 0.604 0.0
O344 O 0.26813 0.14819 0.65309 0.0
C345 C 0.30227 0.22717 0.53057 0.0
O346 O 0.31219 0.22738 0.5801 0.0
C347 C 0.22667 0.11955 0.7559 0.0
C348 C 0.19166 0.09798 0.74636 0.0
C349 C 0.20873 0.10388 0.78494 0.0
N350 N 0.22068 0.12314 0.7024 0.0
N351 N 0.19973 0.11009 0.69661 0.0
C352 C 0.24897 0.13199 0.78052 0.0
H353 H 0.25816 0.12415 0.76622 0.0
H354 H 0.25715 0.14868 0.76316 0.0
H355 H 0.24878 0.13227 0.83015 0.0
C356 C 0.24702 0.20365 0.64665 0.0
N357 N 0.25128 0.18802 0.6319 0.0
N358 N 0.23978 0.17104 0.66562 0.0
C359 C 0.22845 0.17566 0.7048 0.0
C360 C 0.23232 0.1963 0.69337 0.0
C361 C 0.25499 0.22402 0.61171 0.0
H362 H 0.25488 0.22066 0.56328 0.0
H363 H 0.2718 0.23543 0.62495 0.0
H364 H 0.245 0.23156 0.61949 0.0
O365 O 0.24884 0.16428 0.51432 0.0
O366 O 0.22699 0.13475 0.56488 0.0
H367 H 0.20015 0.14717 0.73381 0.0
H368 H 0.20986 0.16914 0.78663 0.0
C369 C 0.2147 0.16086 0.75357 0.0
H370 H 0.22381 0.1546 0.77786 0.0
H371 H 0.19088 0.10976 0.65926 0.0
O372 O 0.28321 0.21201 0.522 0.0
C373 C 0.23317 0.14515 0.5159 0.0
Co374 Co 0.80443 0.07619 0.5378 0.0
Co375 Co 0.84492 0.09045 0.61842 0.0
C376 C 0.82455 0.11788 0.60472 0.0
O377 O 0.80958 0.10411 0.57149 0.0
O378 O 0.83941 0.11474 0.62395 0.0
C379 C 0.76274 0.06671 0.49489 0.0
O380 O 0.76128 0.0752 0.54548 0.0
C381 C 0.87083 0.10611 0.72614 0.0
C382 C 0.89084 0.09073 0.7232 0.0
C383 C 0.88622 0.10398 0.75724 0.0
N384 N 0.86638 0.09469 0.67551 0.0
N385 N 0.87851 0.08564 0.67366 0.0
C386 C 0.85903 0.11715 0.74722 0.0
H387 H 0.86631 0.13324 0.72616 0.0
H388 H 0.8419 0.10777 0.73404 0.0
H389 H 0.86008 0.11923 0.79651 0.0
C390 C 0.78686 0.03811 0.61682 0.0
N391 N 0.80253 0.05766 0.59945 0.0
N392 N 0.81915 0.06417 0.63528 0.0
C393 C 0.81422 0.04933 0.67831 0.0
C394 C 0.79376 0.03216 0.66751 0.0
C395 C 0.76646 0.02498 0.58276 0.0
H396 H 0.76952 0.02786 0.53411 0.0
H397 H 0.75469 0.02992 0.59601 0.0
H398 H 0.75949 0.00758 0.59189 0.0
O399 O 0.8274 0.08048 0.48264 0.0
O400 O 0.85649 0.09031 0.53772 0.0
H401 H 0.84186 0.05034 0.71746 0.0
H402 H 0.81914 0.04069 0.76758 0.0
C403 C 0.82814 0.05231 0.7314 0.0
H404 H 0.83441 0.06864 0.74976 0.0
H405 H 0.878 0.07556 0.6393 0.0
O406 O 0.77879 0.0642 0.48637 0.0
C407 C 0.84704 0.08577 0.48731 0.0
Co408 Co 0.94003 0.41326 0.39322 0.0
Co409 Co 0.91254 0.4247 0.47782 0.0
C410 C 0.9605 0.45271 0.4693 0.0
O411 O 0.96221 0.44018 0.43223 0.0
O412 O 0.94225 0.44868 0.48896 0.0
C413 C 0.97318 0.4061 0.34532 0.0
O414 O 0.983 0.41393 0.39645 0.0
C415 C 0.90093 0.43373 0.59399 0.0
C416 C 0.86905 0.43036 0.57857 0.0
C417 C 0.88456 0.43519 0.62187 0.0
N418 N 0.89524 0.42775 0.53706 0.0
N419 N 0.87608 0.4256 0.52806 0.0
C420 C 0.92233 0.4394 0.6198 0.0
H421 H 0.92957 0.43127 0.59471 0.0
H422 H 0.9208 0.43482 0.66767 0.0
H423 H 0.93317 0.45703 0.61657 0.0
C424 C 0.91734 0.37225 0.4587 0.0
N425 N 0.92246 0.39276 0.44975 0.0
N426 N 0.91126 0.3977 0.48647 0.0
C427 C 0.89906 0.3806 0.52138 0.0
C428 C 0.90229 0.36382 0.50441 0.0
C429 C 0.92512 0.36058 0.4198 0.0
H430 H 0.92496 0.36495 0.37233 0.0
H431 H 0.94194 0.36559 0.43198 0.0
H432 H 0.91504 0.34291 0.42464 0.0
O433 O 0.92174 0.41881 0.34034 0.0
O434 O 0.90168 0.42699 0.39789 0.0
H435 H 0.87237 0.38327 0.55322 0.0
H436 H 0.87806 0.36574 0.59823 0.0
C437 C 0.88525 0.3807 0.57149 0.0
H438 H 0.89521 0.39405 0.60227 0.0
H439 H 0.86807 0.42143 0.4871 0.0
O440 O 0.95432 0.40293 0.33822 0.0
C441 C 0.90719 0.42376 0.34654 0.0
Co442 Co 0.57566 0.52266 0.38868 0.0
Co443 Co 0.56371 0.48308 0.47085 0.0
C444 C 0.53362 0.50025 0.45359 0.0
O445 O 0.54686 0.51561 0.42035 0.0
O446 O 0.53809 0.48646 0.47428 0.0
C447 C 0.58424 0.56432 0.34831 0.0
O448 O 0.5765 0.56566 0.40039 0.0
C449 C 0.54961 0.45808 0.58038 0.0
C450 C 0.56547 0.43852 0.57718 0.0
C451 C 0.55232 0.44309 0.61183 0.0
N452 N 0.56062 0.46234 0.52902 0.0
N453 N 0.56999 0.45051 0.52705 0.0
C454 C 0.53836 0.46963 0.60162 0.0
H455 H 0.54663 0.48637 0.58462 0.0
H456 H 0.53776 0.46987 0.65121 0.0
H457 H 0.52165 0.46115 0.5846 0.0
C458 C 0.61409 0.5422 0.46608 0.0
N459 N 0.59451 0.52606 0.45094 0.0
N460 N 0.5889 0.50978 0.48756 0.0
C461 C 0.60433 0.51541 0.52906 0.0
C462 C 0.621 0.53596 0.51621 0.0
C463 C 0.62669 0.56203 0.42916 0.0
H464 H 0.62331 0.55813 0.38102 0.0
H465 H 0.62172 0.5739 0.44109 0.0
H466 H 0.6442 0.56934 0.43677 0.0
O467 O 0.57339 0.50026 0.33444 0.0
O468 O 0.56527 0.47181 0.3909 0.0
H469 H 0.60496 0.48829 0.56619 0.0
H470 H 0.61495 0.51108 0.6161 0.0
C471 C 0.60277 0.50174 0.58152 0.0
H472 H 0.58674 0.49506 0.6024 0.0
H473 H 0.57982 0.45094 0.49206 0.0
O474 O 0.58645 0.54821 0.33756 0.0
C475 C 0.5695 0.48107 0.34015 0.0
Co476 Co 0.46628 0.05307 0.38958 0.0
Co477 Co 0.50729 0.0832 0.46386 0.0
C478 C 0.48908 0.03497 0.45688 0.0
O479 O 0.47344 0.03217 0.42402 0.0
O480 O 0.50328 0.05371 0.47381 0.0
C481 C 0.42651 0.01834 0.34487 0.0
O482 O 0.42705 0.00802 0.39276 0.0
C483 C 0.52806 0.09676 0.57875 0.0
C484 C 0.55834 0.12663 0.55861 0.0
C485 C 0.54661 0.11281 0.60469 0.0
N486 N 0.52844 0.10105 0.5203 0.0
N487 N 0.54648 0.11906 0.50842 0.0
C488 C 0.51119 0.07651 0.60775 0.0
H489 H 0.49727 0.06759 0.57752 0.0
H490 H 0.50565 0.08025 0.64997 0.0
H491 H 0.51817 0.06623 0.61901 0.0
C492 C 0.44696 0.07126 0.46957 0.0
N493 N 0.46373 0.06957 0.45 0.0
N494 N 0.48111 0.08293 0.47998 0.0
C495 C 0.47593 0.09385 0.51917 0.0
C496 C 0.45416 0.08656 0.51436 0.0
C497 C 0.42456 0.0581 0.44636 0.0
H498 H 0.42401 0.06282 0.39942 0.0
H499 H 0.41996 0.0409 0.44635 0.0
H500 H 0.41289 0.06026 0.47369 0.0
O501 O 0.48844 0.07206 0.33268 0.0
O502 O 0.51792 0.09438 0.38236 0.0
H503 H 0.48561 0.1233 0.56758 0.0
H504 H 0.49413 0.1059 0.5996 0.0
C505 C 0.49168 0.1122 0.5569 0.0
H506 H 0.50727 0.12131 0.53332 0.0
H507 H 0.55098 0.12582 0.46586 0.0
O508 O 0.44043 0.03807 0.33913 0.0
C509 C 0.50764 0.08763 0.33349 0.0
Co510 Co 0.74808 0.60799 0.7589 0.0
Co511 Co 0.76008 0.57926 0.68139 0.0
C512 C 0.79061 0.62659 0.69719 0.0
O513 O 0.77707 0.62898 0.72825 0.0
O514 O 0.78633 0.60816 0.67822 0.0
C515 C 0.74058 0.64201 0.79918 0.0
O516 O 0.7498 0.65179 0.74897 0.0
C517 C 0.77456 0.56739 0.57411 0.0
C518 C 0.75649 0.53188 0.57608 0.0
C519 C 0.77075 0.54936 0.54226 0.0
N520 N 0.76309 0.56104 0.62484 0.0
N521 N 0.75248 0.53978 0.62621 0.0
C522 C 0.78705 0.59024 0.55345 0.0
H523 H 0.80314 0.598 0.57458 0.0
H524 H 0.77876 0.59907 0.56709 0.0
H525 H 0.78917 0.59129 0.50416 0.0
C526 C 0.71072 0.58983 0.67814 0.0
N527 N 0.7298 0.59259 0.69586 0.0
N528 N 0.73544 0.58151 0.66093 0.0
C529 C 0.72052 0.57212 0.61786 0.0
C530 C 0.70417 0.57674 0.62793 0.0
C531 C 0.69819 0.59774 0.71269 0.0
H532 H 0.70097 0.59728 0.76128 0.0
H533 H 0.70376 0.61464 0.69986 0.0
H534 H 0.68072 0.58789 0.70378 0.0
O535 O 0.74939 0.58788 0.81455 0.0
O536 O 0.75698 0.56628 0.76258 0.0
H537 H 0.71928 0.54392 0.58205 0.0
H538 H 0.71082 0.55751 0.53016 0.0
C539 C 0.72234 0.55983 0.56629 0.0
H540 H 0.7387 0.56876 0.54723 0.0
H541 H 0.74193 0.53066 0.66034 0.0
O542 O 0.73728 0.62319 0.80849 0.0
C543 C 0.75253 0.57203 0.81192 0.0
Co544 Co 0.38074 0.13568 0.77627 0.0
Co545 Co 0.40953 0.17671 0.70113 0.0
C546 C 0.36136 0.15759 0.70986 0.0
O547 O 0.35901 0.14217 0.74316 0.0
O548 O 0.3799 0.1719 0.692 0.0
C549 C 0.34728 0.09458 0.81781 0.0
O550 O 0.33712 0.09456 0.76897 0.0
C551 C 0.42201 0.19767 0.5869 0.0
C552 C 0.45112 0.22869 0.6064 0.0
C553 C 0.43731 0.21659 0.56086 0.0
N554 N 0.4267 0.19818 0.645 0.0
N555 N 0.44425 0.21667 0.65655 0.0
C556 C 0.40198 0.18029 0.55844 0.0
H557 H 0.3907 0.18634 0.55044 0.0
H558 H 0.39411 0.16591 0.58768 0.0
H559 H 0.40576 0.17577 0.51455 0.0
C560 C 0.39942 0.11711 0.69504 0.0
N561 N 0.39724 0.13357 0.71485 0.0
N562 N 0.4101 0.15104 0.68442 0.0
C563 C 0.42114 0.14627 0.64458 0.0
C564 C 0.41448 0.12462 0.64953 0.0
C565 C 0.38694 0.09468 0.71867 0.0
H566 H 0.36954 0.08911 0.71594 0.0
H567 H 0.39032 0.08344 0.69323 0.0
H568 H 0.391 0.09456 0.76648 0.0
O569 O 0.3997 0.15787 0.8336 0.0
O570 O 0.42054 0.1875 0.78202 0.0
H571 H 0.45044 0.1567 0.59456 0.0
H572 H 0.43227 0.16442 0.56367 0.0
C573 C 0.43902 0.1623 0.60597 0.0
H574 H 0.44788 0.17798 0.62917 0.0
H575 H 0.45112 0.22135 0.69891 0.0
O576 O 0.36646 0.10958 0.8256 0.0
C577 C 0.41467 0.17735 0.8313 0.0
Co578 Co 0.84663 0.23714 0.74407 0.0
Co579 Co 0.80533 0.22352 0.66827 0.0
C580 C 0.8243 0.19474 0.68163 0.0
O581 O 0.84 0.20871 0.71241 0.0
O582 O 0.80939 0.19809 0.66391 0.0
C583 C 0.88875 0.24633 0.78394 0.0
O584 O 0.88969 0.23711 0.73418 0.0
C585 C 0.77851 0.2079 0.56246 0.0
C586 C 0.76039 0.22528 0.56406 0.0
C587 C 0.76387 0.21108 0.5308 0.0
N588 N 0.78358 0.21961 0.61266 0.0
N589 N 0.77251 0.22979 0.61386 0.0
C590 C 0.78943 0.19594 0.54175 0.0
H591 H 0.80669 0.20495 0.55382 0.0
H592 H 0.78795 0.19333 0.49267 0.0
H593 H 0.78186 0.18008 0.56421 0.0
C594 C 0.86444 0.27421 0.66262 0.0
N595 N 0.84843 0.25515 0.68157 0.0
N596 N 0.83156 0.24887 0.64695 0.0
C597 C 0.83669 0.26337 0.60271 0.0
C598 C 0.85759 0.28006 0.6116 0.0
C599 C 0.88493 0.28729 0.69643 0.0
H600 H 0.88196 0.28451 0.74512 0.0
H601 H 0.89663 0.28228 0.68299 0.0
H602 H 0.89195 0.3047 0.68748 0.0
O603 O 0.82497 0.23453 0.80073 0.0
O604 O 0.79529 0.22587 0.75009 0.0
H605 H 0.80934 0.26348 0.56547 0.0
H606 H 0.83142 0.27175 0.51359 0.0
C607 C 0.82242 0.26061 0.55071 0.0
H608 H 0.81526 0.24404 0.53336 0.0
H609 H 0.77384 0.24044 0.64753 0.0
O610 O 0.8728 0.24897 0.79289 0.0
C611 C 0.8057 0.23054 0.79907 0.0
Co612 Co 0.38373 0.24427 0.27477 0.0
Co613 Co 0.4116 0.23051 0.20023 0.0
C614 C 0.36313 0.20369 0.2049 0.0
O615 O 0.36134 0.21696 0.23876 0.0
O616 O 0.38149 0.20699 0.18836 0.0
C617 C 0.35081 0.25244 0.31837 0.0
O618 O 0.34036 0.24232 0.26984 0.0
C619 C 0.42404 0.22187 0.08597 0.0
C620 C 0.45119 0.21681 0.10705 0.0
C621 C 0.43837 0.21668 0.06066 0.0
N622 N 0.42837 0.22539 0.14445 0.0
N623 N 0.44479 0.22261 0.15692 0.0
C624 C 0.40496 0.22106 0.05654 0.0
H625 H 0.39754 0.22797 0.08607 0.0
H626 H 0.40976 0.23006 0.01371 0.0
H627 H 0.39294 0.20411 0.04627 0.0
C628 C 0.40555 0.28251 0.19754 0.0
N629 N 0.40169 0.26306 0.21551 0.0
N630 N 0.41411 0.25773 0.18553 0.0
C631 C 0.42654 0.27386 0.14791 0.0
C632 C 0.42131 0.28987 0.15388 0.0
C633 C 0.394 0.29343 0.22119 0.0
H634 H 0.39888 0.29825 0.26829 0.0
H635 H 0.37645 0.282 0.22083 0.0
H636 H 0.39754 0.30782 0.1944 0.0
O637 O 0.40136 0.23919 0.33242 0.0
O638 O 0.42149 0.22929 0.28156 0.0
H639 H 0.45202 0.2669 0.13386 0.0
H640 H 0.45665 0.29174 0.10066 0.0
C641 C 0.4443 0.27485 0.11049 0.0
H642 H 0.43763 0.26658 0.06738 0.0
H643 H 0.45106 0.22384 0.19975 0.0
O644 O 0.37007 0.25668 0.32493 0.0
C645 C 0.41561 0.23367 0.33066 0.0
Co646 Co 0.74586 0.13343 0.24587 0.0
Co647 Co 0.75843 0.17464 0.16984 0.0
C648 C 0.78818 0.15672 0.18316 0.0
O649 O 0.77463 0.14086 0.21434 0.0
O650 O 0.78409 0.17109 0.16502 0.0
C651 C 0.73832 0.09192 0.28521 0.0
O652 O 0.74778 0.09173 0.23508 0.0
C653 C 0.7721 0.20024 0.06128 0.0
C654 C 0.75727 0.22066 0.06873 0.0
C655 C 0.76936 0.21549 0.03144 0.0
N656 N 0.76195 0.19625 0.11407 0.0
N657 N 0.75327 0.20866 0.11865 0.0
C658 C 0.78259 0.18826 0.03755 0.0
H659 H 0.77418 0.1715 0.0544 0.0
H660 H 0.78261 0.18814 0.9879 0.0
H661 H 0.79948 0.19634 0.05307 0.0
C662 C 0.70762 0.11571 0.16845 0.0
N663 N 0.72741 0.1313 0.184 0.0
N664 N 0.73318 0.14829 0.15008 0.0
C665 C 0.71754 0.1437 0.10995 0.0
C666 C 0.70066 0.12312 0.12103 0.0
C667 C 0.6949 0.09537 0.20326 0.0
H668 H 0.69774 0.09874 0.25179 0.0
H669 H 0.7004 0.08393 0.191 0.0
H670 H 0.67745 0.08782 0.19429 0.0
O671 O 0.74782 0.15496 0.30247 0.0
O672 O 0.75583 0.18445 0.25131 0.0
H673 H 0.71762 0.17203 0.0801 0.0
H674 H 0.70608 0.15014 0.02705 0.0
C675 C 0.7189 0.1585 0.06085 0.0
H676 H 0.7345 0.16495 0.03763 0.0
H677 H 0.74411 0.2085 0.1551 0.0
O678 O 0.73466 0.10719 0.29473 0.0
C679 C 0.75127 0.17408 0.30037 0.0
Co680 Co 0.84916 0.60579 0.25675 0.0
Co681 Co 0.80787 0.57803 0.18022 0.0
C682 C 0.82664 0.62573 0.19434 0.0
O683 O 0.84234 0.62752 0.22523 0.0
O684 O 0.81185 0.60747 0.1762 0.0
C685 C 0.89075 0.63922 0.29847 0.0
O686 O 0.89133 0.64956 0.2494 0.0
C687 C 0.78094 0.56663 0.07416 0.0
C688 C 0.76316 0.53112 0.07583 0.0
C689 C 0.76644 0.54871 0.04248 0.0
N690 N 0.78616 0.56011 0.12438 0.0
N691 N 0.77527 0.53885 0.12561 0.0
C692 C 0.79155 0.58951 0.05357 0.0
H693 H 0.78384 0.59761 0.07631 0.0
H694 H 0.80884 0.59797 0.06549 0.0
H695 H 0.78997 0.59063 0.00453 0.0
C696 C 0.86697 0.58633 0.17534 0.0
N697 N 0.85106 0.58961 0.19404 0.0
N698 N 0.83418 0.57903 0.15937 0.0
C699 C 0.83922 0.56949 0.11544 0.0
C700 C 0.86001 0.57347 0.12464 0.0
C701 C 0.88749 0.59379 0.20895 0.0
H702 H 0.88465 0.59393 0.25762 0.0
H703 H 0.89926 0.6104 0.19478 0.0
H704 H 0.89438 0.58325 0.20044 0.0
O705 O 0.82736 0.58653 0.31299 0.0
O706 O 0.79777 0.56555 0.26186 0.0
H707 H 0.8119 0.54209 0.07782 0.0
H708 H 0.83401 0.55598 0.02616 0.0
C709 C 0.82499 0.55807 0.06329 0.0
H710 H 0.81786 0.56752 0.04601 0.0
H711 H 0.77673 0.52961 0.15929 0.0
O712 O 0.87527 0.62027 0.30636 0.0
C713 C 0.80809 0.57121 0.31099 0.0
Co714 Co 0.57389 0.057 0.87748 0.0
Co715 Co 0.56067 0.08298 0.96244 0.0
C716 C 0.53242 0.03544 0.94522 0.0
O717 O 0.54592 0.03429 0.91065 0.0
O718 O 0.53592 0.05335 0.96633 0.0
C719 C 0.58475 0.02573 0.8338 0.0
O720 O 0.57775 0.01614 0.8857 0.0
C721 C 0.54539 0.0926 0.07206 0.0
C722 C 0.56149 0.12806 0.07217 0.0
C723 C 0.54777 0.10994 0.10472 0.0
N724 N 0.55706 0.09993 0.02188 0.0
N725 N 0.56658 0.12115 0.02192 0.0
C726 C 0.53384 0.06953 0.09116 0.0
H727 H 0.51778 0.06127 0.06989 0.0
H728 H 0.54291 0.06157 0.07677 0.0
H729 H 0.53167 0.068 0.14041 0.0
C730 C 0.61186 0.07547 0.95589 0.0
N731 N 0.5926 0.07256 0.93959 0.0
N732 N 0.58655 0.08251 0.97753 0.0
C733 C 0.6014 0.0913 0.021 0.0
C734 C 0.61804 0.08734 0.00837 0.0
C735 C 0.62472 0.06858 0.91889 0.0
H736 H 0.62168 0.06951 0.87071 0.0
H737 H 0.6198 0.05169 0.92995 0.0
H738 H 0.64217 0.07883 0.92744 0.0
O739 O 0.5702 0.07661 0.82503 0.0
O740 O 0.56107 0.09577 0.88308 0.0
H741 H 0.60153 0.11799 0.0637 0.0
H742 H 0.61043 0.10362 0.1113 0.0
C743 C 0.59895 0.1019 0.07572 0.0
H744 H 0.58252 0.09211 0.09387 0.0
H745 H 0.57689 0.13094 0.98823 0.0
O746 O 0.58543 0.04345 0.82429 0.0
C747 C 0.56542 0.09124 0.83181 0.0
Co748 Co 0.93867 0.52154 0.89297 0.0
Co749 Co 0.91227 0.48243 0.97762 0.0
C750 C 0.96026 0.50306 0.96654 0.0
O751 O 0.96146 0.51724 0.92999 0.0
O752 O 0.94223 0.48861 0.98697 0.0
C753 C 0.97062 0.56258 0.84556 0.0
O754 O 0.98056 0.56505 0.89674 0.0
C755 C 0.90143 0.46126 0.09308 0.0
C756 C 0.86883 0.4336 0.07939 0.0
C757 C 0.88488 0.44379 0.12159 0.0
N758 N 0.89537 0.46188 0.03679 0.0
N759 N 0.87581 0.44536 0.02879 0.0
C760 C 0.92315 0.47655 0.11798 0.0
H761 H 0.93018 0.49226 0.09468 0.0
H762 H 0.92221 0.47892 0.16668 0.0
H763 H 0.93386 0.46976 0.11113 0.0
C764 C 0.91672 0.5397 0.96301 0.0
N765 N 0.92144 0.52418 0.95132 0.0
N766 N 0.91068 0.50794 0.98807 0.0
C767 C 0.89915 0.51287 0.02566 0.0
C768 C 0.90242 0.53306 0.01062 0.0
C769 C 0.92432 0.55948 0.92563 0.0
H770 H 0.9238 0.55535 0.87766 0.0
H771 H 0.94124 0.57113 0.93735 0.0
H772 H 0.91436 0.56709 0.93264 0.0
O773 O 0.92037 0.49765 0.84007 0.0
O774 O 0.90114 0.46927 0.89788 0.0
H775 H 0.87305 0.48347 0.05957 0.0
H776 H 0.87938 0.5067 0.10535 0.0
C777 C 0.88618 0.49896 0.07688 0.0
H778 H 0.89667 0.49567 0.10576 0.0
H779 H 0.86738 0.44191 0.98855 0.0
O780 O 0.95217 0.54625 0.83827 0.0
C781 C 0.9062 0.47802 0.84648 0.0
Co782 Co 0.47147 0.41405 0.90065 0.0
Co783 Co 0.51333 0.42734 0.97334 0.0
C784 C 0.49218 0.45483 0.96849 0.0
O785 O 0.47681 0.44136 0.93594 0.0
O786 O 0.50732 0.45154 0.98443 0.0
C787 C 0.4308 0.40651 0.85551 0.0
O788 O 0.4307 0.41738 0.90263 0.0
C789 C 0.53437 0.43584 0.08778 0.0
C790 C 0.56612 0.43963 0.06716 0.0
C791 C 0.55364 0.44033 0.11341 0.0
N792 N 0.5351 0.43215 0.02932 0.0
N793 N 0.55403 0.43418 0.01716 0.0
C794 C 0.51643 0.43738 0.11691 0.0
H795 H 0.50226 0.43107 0.08703 0.0
H796 H 0.51174 0.42823 0.15947 0.0
H797 H 0.52197 0.45444 0.12761 0.0
C798 C 0.45447 0.37644 0.97942 0.0
N799 N 0.47046 0.39544 0.96018 0.0
N800 N 0.4882 0.40042 0.98965 0.0
C801 C 0.48405 0.3844 0.02826 0.0
C802 C 0.46255 0.36891 0.02338 0.0
C803 C 0.43189 0.36618 0.95695 0.0
H804 H 0.42664 0.37829 0.95578 0.0
H805 H 0.4207 0.35248 0.98546 0.0
H806 H 0.43132 0.36045 0.91054 0.0
O807 O 0.49397 0.41896 0.8431 0.0
O808 O 0.52416 0.42775 0.89123 0.0
H809 H 0.49554 0.36601 0.07597 0.0
H810 H 0.50239 0.39145 0.10867 0.0
C811 C 0.50054 0.38299 0.06575 0.0
H812 H 0.51621 0.39052 0.04226 0.0
H813 H 0.55897 0.43262 0.97446 0.0
O814 O 0.44545 0.40168 0.8506 0.0
C815 C 0.51354 0.42379 0.84282 0.0
Co816 Co 0.60763 0.74775 0.73703 0.0
Co817 Co 0.5792 0.75987 0.81523 0.0
C818 C 0.62742 0.78805 0.80863 0.0
O819 O 0.62951 0.77495 0.77479 0.0
O820 O 0.60895 0.78431 0.82564 0.0
C821 C 0.6411 0.74072 0.69037 0.0
O822 O 0.65145 0.74992 0.73989 0.0
C823 C 0.56725 0.76993 0.92911 0.0
C824 C 0.53486 0.76522 0.91307 0.0
C825 C 0.55049 0.77082 0.95644 0.0
N826 N 0.56169 0.7635 0.87243 0.0
N827 N 0.54226 0.76063 0.86296 0.0
C828 C 0.5887 0.77608 0.9555 0.0
H829 H 0.59582 0.76741 0.93264 0.0
H830 H 0.58734 0.77257 0.00411 0.0
H831 H 0.59959 0.7936 0.94932 0.0
C832 C 0.58507 0.7077 0.80699 0.0
N833 N 0.58977 0.72788 0.79447 0.0
N834 N 0.57811 0.73309 0.82846 0.0
C835 C 0.56592 0.71648 0.86494 0.0
C836 C 0.56974 0.69976 0.85207 0.0
C837 C 0.59366 0.69583 0.77221 0.0
H838 H 0.59332 0.69893 0.72375 0.0
H839 H 0.61063 0.7019 0.78513 0.0
H840 H 0.58423 0.67827 0.78029 0.0
O841 O 0.58984 0.75305 0.68159 0.0
O842 O 0.56834 0.7607 0.73389 0.0
H843 H 0.53904 0.71963 0.8923 0.0
H844 H 0.54393 0.70221 0.94024 0.0
C845 C 0.55158 0.71701 0.91282 0.0
H846 H 0.56128 0.73047 0.94356 0.0
H847 H 0.5342 0.75583 0.82215 0.0
O848 O 0.62192 0.73673 0.68424 0.0
C849 C 0.57484 0.7575 0.68404 0.0
Co850 Co 0.23944 0.85279 0.7327 0.0
Co851 Co 0.22629 0.81338 0.81678 0.0
C852 C 0.19946 0.83459 0.80669 0.0
O853 O 0.21255 0.84875 0.7703 0.0
O854 O 0.20273 0.81988 0.82654 0.0
C855 C 0.24918 0.89423 0.68649 0.0
O856 O 0.24186 0.89674 0.73796 0.0
C857 C 0.21526 0.79191 0.93167 0.0
C858 C 0.22041 0.76436 0.91867 0.0
C859 C 0.21417 0.77441 0.9603 0.0
N860 N 0.22236 0.79269 0.87578 0.0
N861 N 0.22552 0.77622 0.86818 0.0
C862 C 0.20889 0.80728 0.95646 0.0
H863 H 0.21816 0.82318 0.93445 0.0
H864 H 0.21151 0.8091 0.00551 0.0
H865 H 0.19156 0.80089 0.94778 0.0
C866 C 0.27951 0.87031 0.80206 0.0
N867 N 0.25916 0.85502 0.79068 0.0
N868 N 0.2535 0.83873 0.82736 0.0
C869 C 0.26994 0.84344 0.86474 0.0
C870 C 0.28704 0.8635 0.84951 0.0
C871 C 0.2919 0.88996 0.76433 0.0
H872 H 0.28795 0.88584 0.7165 0.0
H873 H 0.2872 0.902 0.77665 0.0
H874 H 0.30948 0.89712 0.77037 0.0
O875 O 0.2337 0.82895 0.67961 0.0
O876 O 0.2243 0.80036 0.7368 0.0
H877 H 0.26671 0.81405 0.89838 0.0
H878 H 0.2832 0.83719 0.94485 0.0
C879 C 0.26881 0.82943 0.91587 0.0
H880 H 0.25482 0.8259 0.94419 0.0
H881 H 0.23082 0.77288 0.82829 0.0
O882 O 0.25083 0.87766 0.67842 0.0
C883 C 0.22817 0.80929 0.68562 0.0
Co884 Co 0.13621 0.38608 0.72706 0.0
Co885 Co 0.17649 0.41243 0.80779 0.0
C886 C 0.1555 0.36441 0.79676 0.0
O887 O 0.14074 0.36322 0.76269 0.0
O888 O 0.17045 0.38245 0.8155 0.0
C889 C 0.0942 0.35442 0.68362 0.0
O890 O 0.09213 0.34438 0.73444 0.0
C891 C 0.20067 0.42234 0.91796 0.0
C892 C 0.22426 0.45699 0.91048 0.0
C893 C 0.21722 0.43934 0.94763 0.0
N894 N 0.19777 0.42939 0.86528 0.0
N895 N 0.21194 0.45014 0.86084 0.0
C896 C 0.18694 0.39997 0.94119 0.0
H897 H 0.19348 0.38983 0.9249 0.0
H898 H 0.17022 0.39314 0.92481 0.0
H899 H 0.18691 0.39969 0.99083 0.0
C900 C 0.11927 0.40835 0.80059 0.0
N901 N 0.13448 0.40343 0.78661 0.0
N902 N 0.15108 0.41386 0.82232 0.0
C903 C 0.14661 0.42521 0.86186 0.0
C904 C 0.12644 0.42234 0.84889 0.0
C905 C 0.09931 0.40134 0.76453 0.0
H906 H 0.10293 0.4014 0.71631 0.0
H907 H 0.08721 0.38469 0.77741 0.0
H908 H 0.09248 0.41199 0.77177 0.0
O909 O 0.15944 0.40424 0.67209 0.0
O910 O 0.18853 0.42367 0.72712 0.0
H911 H 0.17525 0.4522 0.89552 0.0
H912 H 0.15259 0.44236 0.94607 0.0
C913 C 0.16093 0.43763 0.91292 0.0
H914 H 0.16631 0.42759 0.93634 0.0
H915 H 0.2131 0.45964 0.82415 0.0
O916 O 0.11076 0.37263 0.67512 0.0
C917 C 0.17911 0.4185 0.67667 0.0
Co918 Co 0.41426 0.93771 0.08879 0.0
Co919 Co 0.42799 0.91015 0.01198 0.0
C920 C 0.45618 0.95809 0.02399 0.0
O921 O 0.44231 0.95971 0.05561 0.0
O922 O 0.45298 0.93987 0.00643 0.0
C923 C 0.40561 0.97074 0.13113 0.0
O924 O 0.41513 0.98113 0.08187 0.0
C925 C 0.44322 0.8994 0.90429 0.0
C926 C 0.42784 0.86402 0.90805 0.0
C927 C 0.44085 0.88176 0.87325 0.0
N928 N 0.43213 0.89261 0.95555 0.0
N929 N 0.4231 0.87143 0.95793 0.0
C930 C 0.45409 0.92215 0.88256 0.0
H931 H 0.44481 0.92996 0.89637 0.0
H932 H 0.45584 0.92301 0.83316 0.0
H933 H 0.47032 0.93105 0.90267 0.0
C934 C 0.37652 0.91732 0.00995 0.0
N935 N 0.39596 0.92103 0.02734 0.0
N936 N 0.40217 0.91034 0.99271 0.0
C937 C 0.38718 0.90019 0.95017 0.0
C938 C 0.3703 0.90402 0.96017 0.0
C939 C 0.36355 0.9248 0.04413 0.0
H940 H 0.3666 0.92482 0.0927 0.0
H941 H 0.36846 0.94146 0.03035 0.0
H942 H 0.3461 0.91434 0.03593 0.0
O943 O 0.4176 0.91894 0.14482 0.0
O944 O 0.42634 0.89802 0.09372 0.0
H945 H 0.38763 0.87274 0.91495 0.0
H946 H 0.37773 0.88505 0.86294 0.0
C947 C 0.3896 0.88821 0.89876 0.0
H948 H 0.4058 0.89782 0.87906 0.0
H949 H 0.4132 0.862 0.99276 0.0
O950 O 0.40244 0.95189 0.13888 0.0
C951 C 0.42181 0.90379 0.14292 0.0
Co952 Co 0.05657 0.4782 0.09704 0.0
Co953 Co 0.08461 0.51921 0.01955 0.0
C954 C 0.03725 0.50181 0.03673 0.0
O955 O 0.03539 0.48613 0.06794 0.0
O956 O 0.05545 0.5161 0.01662 0.0
C957 C 0.02277 0.43632 0.13547 0.0
O958 O 0.0131 0.43604 0.08536 0.0
C959 C 0.09669 0.54609 0.91302 0.0
C960 C 0.13218 0.56331 0.91527 0.0
C961 C 0.11481 0.56033 0.88146 0.0
N962 N 0.10289 0.54075 0.96362 0.0
N963 N 0.12414 0.55132 0.9652 0.0
C964 C 0.0739 0.53583 0.89203 0.0
H965 H 0.06493 0.51872 0.9058 0.0
H966 H 0.07298 0.53686 0.8427 0.0
H967 H 0.06622 0.54431 0.91279 0.0
C968 C 0.07484 0.45955 0.01476 0.0
N969 N 0.07196 0.47573 0.03318 0.0
N970 N 0.08282 0.49254 -0.00165 0.0
C971 C 0.0922 0.4872 0.95467 0.0
C972 C 0.08776 0.46625 0.96414 0.0
C973 C 0.06719 0.43908 0.04897 0.0
H974 H 0.06771 0.44222 0.09764 0.0
H975 H 0.05031 0.42763 0.03637 0.0
H976 H 0.07718 0.43165 0.03953 0.0
O977 O 0.07668 0.49944 0.15276 0.0
O978 O 0.09751 0.52897 0.10095 0.0
H979 H 0.12019 0.51427 0.91829 0.0
H980 H 0.1064 0.49231 0.86626 0.0
C981 C 0.10422 0.50142 0.90297 0.0
H982 H 0.09518 0.50887 0.88486 0.0
H983 H 0.13316 0.54969 -0.00079 0.0
O984 O 0.04147 0.45191 0.14564 0.0
C985 C 0.09222 0.51859 0.15007 0.0
Co986 Co 0.51305 0.57498 0.10341 0.0
Co987 Co 0.4731 0.56051 0.02095 0.0
C988 C 0.49221 0.53229 0.04091 0.0
O989 O 0.50714 0.54628 0.07382 0.0
O990 O 0.47777 0.53562 0.01914 0.0
C991 C 0.55578 0.58647 0.14246 0.0
O992 O 0.55762 0.579 0.09049 0.0
C993 C 0.44657 0.5444 0.91421 0.0
C994 C 0.42899 0.56233 0.91356 0.0
C995 C 0.4321 0.54762 0.88172 0.0
N996 N 0.45184 0.55655 0.96359 0.0
N997 N 0.4411 0.56707 0.9634 0.0
C998 C 0.45712 0.53192 0.89505 0.0
H999 H 0.44876 0.51592 0.91681 0.0
H1000 H 0.47421 0.54036 0.90886 0.0
H1001 H 0.45624 0.52957 0.84586 0.0
C1002 C 0.53156 0.61204 0.02087 0.0
N1003 N 0.51556 0.59283 0.03923 0.0
N1004 N 0.49928 0.58607 0.00208 0.0
C1005 C 0.50486 0.60026 0.95689 0.0
C1006 C 0.52537 0.61737 0.96771 0.0
C1007 C 0.55138 0.62571 0.05675 0.0
H1008 H 0.54779 0.62278 0.10516 0.0
H1009 H 0.56381 0.62147 0.04513 0.0
H1010 H 0.55782 0.64303 0.04757 0.0
O1011 O 0.49046 0.5722 0.15753 0.0
O1012 O 0.46169 0.56204 0.10084 0.0
H1013 H 0.47821 0.59977 0.91285 0.0
H1014 H 0.50115 0.60736 0.86486 0.0
C1015 C 0.4915 0.59671 0.90214 0.0
H1016 H 0.48462 0.57991 0.88695 0.0
H1017 H 0.44262 0.57805 -0.00374 0.0
O1018 O 0.53885 0.58716 0.1538 0.0
C1019 C 0.47095 0.56717 0.1515 0.0
Co1020 Co 0.05425 0.57523 0.59842 0.0
Co1021 Co 0.0828 0.5632 0.52028 0.0
C1022 C 0.03613 0.53185 0.54066 0.0
O1023 O 0.03382 0.54551 0.57133 0.0
O1024 O 0.0544 0.53632 0.5197 0.0
C1025 C 0.01992 0.58277 0.63587 0.0
O1026 O 0.01044 0.57355 0.58541 0.0
C1027 C 0.09602 0.54851 0.41543 0.0
C1028 C 0.13118 0.57039 0.41347 0.0
C1029 C 0.11432 0.55407 0.38229 0.0
N1030 N 0.10168 0.56093 0.46438 0.0
N1031 N 0.12277 0.57373 0.46358 0.0
C1032 C 0.07326 0.53369 0.39684 0.0
H1033 H 0.06303 0.54058 0.40929 0.0
H1034 H 0.07193 0.53065 0.34796 0.0
H1035 H 0.06727 0.51816 0.42043 0.0
C1036 C 0.06984 0.61094 0.51222 0.0
N1037 N 0.06843 0.59271 0.53282 0.0
N1038 N 0.07906 0.58676 0.49712 0.0
C1039 C 0.08654 0.60042 0.45041 0.0
C1040 C 0.08132 0.61643 0.45891 0.0
C1041 C 0.06226 0.6238 0.5465 0.0
H1042 H 0.06291 0.62133 0.59519 0.0
H1043 H 0.04539 0.61842 0.534 0.0
H1044 H 0.07228 0.6412 0.53671 0.0
O1045 O 0.07521 0.57563 0.65369 0.0
O1046 O 0.09643 0.56767 0.60122 0.0
H1047 H 0.11392 0.60209 0.40727 0.0
H1048 H 0.09696 0.60704 0.35801 0.0
C1049 C 0.09708 0.59736 0.39647 0.0
H1050 H 0.08838 0.58028 0.38298 0.0
H1051 H 0.13129 0.5855 0.49569 0.0
O1052 O 0.03855 0.58579 0.64663 0.0
C1053 C 0.09121 0.57276 0.65042 0.0
Co1054 Co 0.4124 0.46972 0.59481 0.0
Co1055 Co 0.42206 0.51039 0.52036 0.0
C1056 C 0.45326 0.49368 0.52775 0.0
O1057 O 0.44071 0.47791 0.56078 0.0
O1058 O 0.4482 0.50747 0.51051 0.0
C1059 C 0.40798 0.43001 0.63947 0.0
O1060 O 0.41928 0.43081 0.59231 0.0
C1061 C 0.42849 0.53082 0.40525 0.0
C1062 C 0.42893 0.56111 0.42526 0.0
C1063 C 0.43091 0.54933 0.3792 0.0
N1064 N 0.42473 0.53128 0.46379 0.0
N1065 N 0.42477 0.54932 0.47559 0.0
C1066 C 0.43195 0.51401 0.37627 0.0
H1067 H 0.4491 0.52121 0.36341 0.0
H1068 H 0.42753 0.50033 0.40708 0.0
H1069 H 0.42222 0.50807 0.33492 0.0
C1070 C 0.37488 0.44946 0.51602 0.0
N1071 N 0.3933 0.46653 0.53425 0.0
N1072 N 0.39669 0.4837 0.50412 0.0
C1073 C 0.38021 0.47805 0.46605 0.0
C1074 C 0.36611 0.4562 0.47197 0.0
C1075 C 0.36605 0.42727 0.54065 0.0
H1076 H 0.37879 0.42287 0.54039 0.0
H1077 H 0.35212 0.41527 0.51433 0.0
H1078 H 0.36106 0.42701 0.58776 0.0
O1079 O 0.41434 0.49134 0.65141 0.0
O1080 O 0.42081 0.52068 0.60189 0.0
H1081 H 0.35943 0.48698 0.4199 0.0
H1082 H 0.38519 0.49611 0.38583 0.0
C1083 C 0.37676 0.49346 0.42922 0.0
H1084 H 0.38312 0.50903 0.45276 0.0
H1085 H 0.42267 0.55389 0.51822 0.0
O1086 O 0.4021 0.44388 0.645 0.0
C1087 C 0.41724 0.51028 0.65061 0.0
Co1088 Co 0.51902 0.94191 0.58929 0.0
Co1089 Co 0.4782 0.91318 0.51279 0.0
C1090 C 0.49502 0.96058 0.52863 0.0
O1091 O 0.51098 0.96299 0.55941 0.0
O1092 O 0.48092 0.94212 0.5096 0.0
C1093 C 0.56086 0.97577 0.62626 0.0
O1094 O 0.56126 0.98496 0.57508 0.0
C1095 C 0.45176 0.9009 0.40579 0.0
C1096 C 0.43406 0.86541 0.40955 0.0
C1097 C 0.43746 0.88273 0.37471 0.0
N1098 N 0.4568 0.8948 0.45703 0.0
N1099 N 0.44598 0.87355 0.45948 0.0
C1100 C 0.46223 0.92362 0.38402 0.0
H1101 H 0.45362 0.93141 0.40325 0.0
H1102 H 0.47923 0.93262 0.39873 0.0
H1103 H 0.46158 0.92435 0.33453 0.0
C1104 C 0.53791 0.92338 0.50858 0.0
N1105 N 0.52172 0.92639 0.52619 0.0
N1106 N 0.50493 0.91527 0.49163 0.0
C1107 C 0.51028 0.9056 0.44887 0.0
C1108 C 0.53119 0.91007 0.45881 0.0
C1109 C 0.55829 0.93111 0.54315 0.0
H1110 H 0.55503 0.93068 0.59173 0.0
H1111 H 0.56975 0.94798 0.53031 0.0
H1112 H 0.56578 0.92114 0.5343 0.0
O1113 O 0.4978 0.92193 0.64578 0.0
O1114 O 0.46854 0.90035 0.59417 0.0
H1115 H 0.48305 0.87732 0.41449 0.0
H1116 H 0.50504 0.89032 0.36205 0.0
C1117 C 0.496 0.89304 0.39791 0.0
H1118 H 0.48871 0.902 0.3782 0.0
H1119 H 0.44732 0.86459 0.49422 0.0
O1120 O 0.54523 0.9572 0.63748 0.0
C1121 C 0.47879 0.90609 0.64339 0.0
Co1122 Co 0.23899 0.37988 0.23076 0.0
Co1123 Co 0.22825 0.40994 0.30547 0.0
C1124 C 0.19787 0.36182 0.29678 0.0
O1125 O 0.21065 0.35889 0.26391 0.0
O1126 O 0.20267 0.38057 0.31433 0.0
C1127 C 0.24529 0.34561 0.18901 0.0
O1128 O 0.23511 0.33566 0.23811 0.0
C1129 C 0.22119 0.42326 0.42083 0.0
C1130 C 0.22008 0.4528 0.40131 0.0
C1131 C 0.2184 0.43908 0.44716 0.0
N1132 N 0.22486 0.4276 0.36232 0.0
N1133 N 0.22441 0.44541 0.35081 0.0
C1134 C 0.21826 0.40315 0.44954 0.0
H1135 H 0.20122 0.39297 0.46324 0.0
H1136 H 0.22271 0.39404 0.41829 0.0
H1137 H 0.22828 0.40714 0.49037 0.0
C1138 C 0.27674 0.39828 0.30945 0.0
N1139 N 0.25793 0.39611 0.29157 0.0
N1140 N 0.25397 0.40947 0.32178 0.0
C1141 C 0.27039 0.42082 0.35958 0.0
C1142 C 0.2851 0.41386 0.35341 0.0
C1143 C 0.28644 0.38578 0.28428 0.0
H1144 H 0.27456 0.36838 0.2869 0.0
H1145 H 0.30118 0.38902 0.30874 0.0
H1146 H 0.29036 0.39 0.2364 0.0
O1147 O 0.23638 0.39924 0.17398 0.0
O1148 O 0.2293 0.42152 0.22435 0.0
H1149 H 0.26647 0.44831 0.37231 0.0
H1150 H 0.29047 0.4508 0.40548 0.0
C1151 C 0.27324 0.43953 0.39612 0.0
H1152 H 0.26483 0.43362 0.4395 0.0
H1153 H 0.22641 0.45215 0.30828 0.0
O1154 O 0.25 0.36494 0.18106 0.0
C1155 C 0.23298 0.41496 0.17532 0.0
Co1156 Co 0.60661 0.85477 0.22828 0.0
Co1157 Co 0.57958 0.8158 0.31335 0.0
C1158 C 0.62727 0.83475 0.29922 0.0
O1159 O 0.62892 0.84944 0.26397 0.0
O1160 O 0.6091 0.82052 0.31946 0.0
C1161 C 0.63888 0.89601 0.18133 0.0
O1162 O 0.64876 0.89859 0.23267 0.0
C1163 C 0.56966 0.79256 0.42571 0.0
C1164 C 0.5345 0.77096 0.42233 0.0
C1165 C 0.55242 0.77715 0.45771 0.0
N1166 N 0.56247 0.79563 0.37347 0.0
N1167 N 0.54141 0.78266 0.37154 0.0
C1168 C 0.59249 0.80511 0.44628 0.0
H1169 H 0.60149 0.79758 0.42797 0.0
H1170 H 0.60003 0.82189 0.4298 0.0
H1171 H 0.59353 0.80517 0.49582 0.0
C1172 C 0.58646 0.87415 0.30101 0.0
N1173 N 0.59038 0.85816 0.28815 0.0
N1174 N 0.57983 0.84217 0.32579 0.0
C1175 C 0.56952 0.84787 0.36557 0.0
C1176 C 0.57309 0.86816 0.35064 0.0
C1177 C 0.59372 0.89368 0.26273 0.0
H1178 H 0.59327 0.88937 0.21495 0.0
H1179 H 0.61053 0.90566 0.27441 0.0
H1180 H 0.58345 0.901 0.26913 0.0
O1181 O 0.58727 0.83122 0.17604 0.0
O1182 O 0.56724 0.80309 0.23392 0.0
H1183 H 0.54212 0.82057 0.40347 0.0
H1184 H 0.55389 0.84395 0.45153 0.0
C1185 C 0.5574 0.83458 0.41862 0.0
H1186 H 0.56708 0.82867 0.44148 0.0
H1187 H 0.53174 0.78189 0.33575 0.0
O1188 O 0.62058 0.87949 0.17365 0.0
C1189 C 0.57237 0.81189 0.18257 0.0
Co1190 Co 0.12951 0.74826 0.23473 0.0
Co1191 Co 0.16884 0.7593 0.31666 0.0
C1192 C 0.15047 0.78866 0.30702 0.0
O1193 O 0.13561 0.77601 0.27164 0.0
O1194 O 0.16443 0.78419 0.32628 0.0
C1195 C 0.0889 0.74121 0.18927 0.0
O1196 O 0.08736 0.74952 0.2401 0.0
C1197 C 0.19032 0.7685 0.43124 0.0
C1198 C 0.21711 0.76232 0.41587 0.0
C1199 C 0.20745 0.76849 0.45897 0.0
N1200 N 0.18936 0.76202 0.37457 0.0
N1201 N 0.20538 0.75827 0.36551 0.0
C1202 C 0.17561 0.7755 0.45726 0.0
H1203 H 0.15993 0.76755 0.43375 0.0
H1204 H 0.17304 0.77179 0.50573 0.0
H1205 H 0.18302 0.79314 0.45169 0.0
C1206 C 0.11064 0.7078 0.30327 0.0
N1207 N 0.1263 0.72811 0.29277 0.0
N1208 N 0.14263 0.73299 0.32857 0.0
C1209 C 0.1376 0.7161 0.36447 0.0
C1210 C 0.11734 0.69947 0.34899 0.0
C1211 C 0.09094 0.6961 0.26543 0.0
H1212 H 0.09536 0.69958 0.21754 0.0
H1213 H 0.07972 0.70199 0.27633 0.0
H1214 H 0.08273 0.67849 0.27262 0.0
O1215 O 0.15261 0.75242 0.18034 0.0
O1216 O 0.18101 0.76005 0.23623 0.0
H1217 H 0.16684 0.71805 0.39438 0.0
H1218 H 0.14384 0.70134 0.44122 0.0
C1219 C 0.15175 0.71612 0.41366 0.0
H1220 H 0.15577 0.72975 0.44395 0.0
H1221 H 0.20846 0.75323 0.3248 0.0
O1222 O 0.10449 0.73792 0.18159 0.0
C1223 C 0.17192 0.75666 0.18541 0.0
C1224 C 0.34528 0.08583 0.92655 0.0
C1225 C 0.33505 0.08201 0.87056 0.0
H1226 H 0.34165 0.08565 0.02154 0.0
C1227 C 0.31257 0.06973 0.86816 0.0
H1228 H 0.36264 0.09481 0.92992 0.0
C1229 C 0.30055 0.06434 0.92082 0.0
C1230 C 0.31086 0.07125 0.97653 0.0
H1231 H 0.30419 0.06607 0.82576 0.0
H1232 H 0.28322 0.0566 0.91739 0.0
C1233 C 0.33325 0.08053 0.97925 0.0
C1234 C 0.8985 0.25471 0.89158 0.0
C1235 C 0.90197 0.24765 0.83613 0.0
H1236 H 0.90013 0.25313 0.98677 0.0
C1237 C 0.91475 0.23797 0.83421 0.0
H1238 H 0.88914 0.26271 0.89449 0.0
C1239 C 0.92121 0.23264 0.88729 0.0
C1240 C 0.91485 0.2368 0.94298 0.0
H1241 H 0.91807 0.23271 0.79218 0.0
H1242 H 0.9294 0.22348 0.88445 0.0
C1243 C 0.90483 0.24925 0.94463 0.0
C1244 C 0.75554 0.68898 0.9007 0.0
C1245 C 0.75112 0.67876 0.95688 0.0
H1246 H 0.75536 0.68521 0.80578 0.0
C1247 C 0.73826 0.65632 0.95943 0.0
H1248 H 0.76502 0.70631 0.89718 0.0
C1249 C 0.73262 0.64422 0.90687 0.0
C1250 C 0.73981 0.65439 0.85101 0.0
H1251 H 0.73422 0.64796 0.00193 0.0
H1252 H 0.72429 0.62687 0.91053 0.0
C1253 C 0.74997 0.67688 0.84815 0.0
C1254 C 0.08596 0.3528 0.57468 0.0
C1255 C 0.08145 0.34253 0.63076 0.0
H1256 H 0.08534 0.34904 0.47973 0.0
C1257 C 0.06799 0.32016 0.63332 0.0
H1258 H 0.09589 0.3701 0.57119 0.0
C1259 C 0.06181 0.30808 0.5807 0.0
C1260 C 0.06911 0.31821 0.52482 0.0
H1261 H 0.06387 0.31178 0.6758 0.0
H1262 H 0.05303 0.29073 0.5843 0.0
C1263 C 0.07989 0.34073 0.5221 0.0
C1264 C 0.64264 0.7355 0.58027 0.0
C1265 C 0.65312 0.7412 0.63604 0.0
H1266 H 0.64589 0.73941 0.4853 0.0
C1267 C 0.67561 0.75116 0.63744 0.0
H1268 H 0.62529 0.72741 0.57754 0.0
C1269 C 0.68743 0.75793 0.58437 0.0
C1270 C 0.67694 0.75493 0.52907 0.0
H1271 H 0.68418 0.75542 0.67957 0.0
H1272 H 0.70478 0.76715 0.58729 0.0
C1273 C 0.65446 0.74237 0.52721 0.0
C1274 C 0.24056 0.9201 0.63657 0.0
C1275 C 0.2493 0.90651 0.63326 0.0
H1276 H 0.2257 0.93496 0.58885 0.0
C1277 C 0.25423 0.9015 0.57667 0.0
H1278 H 0.23692 0.92459 0.67939 0.0
C1279 C 0.2477 0.90736 0.52463 0.0
C1280 C 0.2362 0.91836 0.52843 0.0
H1281 H 0.26142 0.89143 0.57255 0.0
H1282 H 0.24996 0.90158 0.48204 0.0
C1283 C 0.23408 0.92601 0.58452 0.0
C1284 C 0.64082 0.90317 0.07153 0.0
C1285 C 0.65094 0.90818 0.12783 0.0
H1286 H 0.64485 0.90299 0.97681 0.0
C1287 C 0.6733 0.92166 0.1305 0.0
H1288 H 0.62354 0.89321 0.06791 0.0
C1289 C 0.68551 0.92739 0.07809 0.0
C1290 C 0.67555 0.91964 0.0223 0.0
H1291 H 0.68155 0.92616 0.1731 0.0
H1292 H 0.70286 0.93621 0.08194 0.0
C1293 C 0.65304 0.90883 0.01915 0.0
C1294 C 0.06056 0.75985 0.08562 0.0
C1295 C 0.06782 0.75679 0.02996 0.0
H1296 H 0.06128 0.7569 0.18063 0.0
C1297 C 0.07699 0.74358 0.027 0.0
H1298 H 0.05295 0.76955 0.08927 0.0
C1299 C 0.08164 0.73619 0.07952 0.0
C1300 C 0.07726 0.74201 0.13571 0.0
H1301 H 0.08238 0.74056 0.98475 0.0
H1302 H 0.09043 0.72763 0.07607 0.0
C1303 C 0.06528 0.75253 0.13814 0.0
C1304 C 0.24498 0.33126 0.0277 0.0
C1305 C 0.2314 0.30891 0.03056 0.0
H1306 H 0.26068 0.36065 0.07676 0.0
C1307 C 0.22761 0.29859 0.08641 0.0
H1308 H 0.24857 0.33965 0.98531 0.0
C1309 C 0.23442 0.31062 0.13898 0.0
C1310 C 0.24519 0.33313 0.13636 0.0
H1311 H 0.21765 0.2813 0.08997 0.0
H1312 H 0.22945 0.30228 0.18144 0.0
C1313 C 0.25189 0.34329 0.0803 0.0
C1314 C 0.9071 0.65236 0.45947 0.0
C1315 C 0.91755 0.67489 0.45788 0.0
H1316 H 0.89078 0.62322 0.40946 0.0
C1317 C 0.9237 0.68534 0.40207 0.0
H1318 H 0.90248 0.6438 0.50166 0.0
C1319 C 0.91684 0.67353 0.34904 0.0
C1320 C 0.90385 0.65108 0.35098 0.0
H1321 H 0.93216 0.70271 0.39919 0.0
H1322 H 0.92018 0.68212 0.30702 0.0
C1323 C 0.90035 0.64055 0.40645 0.0
C1324 C 0.3164 0.24326 0.36982 0.0
C1325 C 0.33884 0.25273 0.37191 0.0
H1326 H 0.28704 0.22814 0.41928 0.0
C1327 C 0.34916 0.25858 0.42787 0.0
H1328 H 0.30796 0.23892 0.32748 0.0
C1329 C 0.33715 0.25225 0.48069 0.0
C1330 C 0.31464 0.24009 0.47831 0.0
H1331 H 0.36648 0.26631 0.4311 0.0
H1332 H 0.34554 0.25524 0.5229 0.0
C1333 C 0.3044 0.23704 0.42261 0.0
C1334 C 0.737 0.0756 0.44538 0.0
C1335 C 0.75012 0.06631 0.44218 0.0
H1336 H 0.7224 0.09062 0.39724 0.0
C1337 C 0.7544 0.06057 0.38577 0.0
H1338 H 0.73305 0.07985 0.4881 0.0
C1339 C 0.7484 0.06685 0.33352 0.0
C1340 C 0.73796 0.0789 0.33693 0.0
H1341 H 0.76408 0.05294 0.38175 0.0
H1342 H 0.75368 0.06397 0.29091 0.0
C1343 C 0.73093 0.08181 0.39313 0.0
C1344 C 0.9879 0.40981 0.18278 0.0
C1345 C 0.01035 0.42246 0.18626 0.0
H1346 H 0.95832 0.3941 0.23116 0.0
C1347 C 0.02039 0.42483 0.242 0.0
H1348 H 0.97968 0.40734 0.14044 0.0
C1349 C 0.00814 0.41732 0.29417 0.0
C1350 C 0.98566 0.40728 0.29138 0.0
H1351 H 0.03771 0.4341 0.24606 0.0
H1352 H 0.01636 0.4211 0.33682 0.0
C1353 C 0.97565 0.40224 0.23495 0.0
C1354 C 0.59035 0.57389 0.24003 0.0
C1355 C 0.58401 0.57711 0.29688 0.0
H1356 H 0.58655 0.57471 0.14542 0.0
C1357 C 0.57333 0.5889 0.30137 0.0
H1358 H 0.59908 0.56529 0.23517 0.0
C1359 C 0.56622 0.59437 0.24979 0.0
C1360 C 0.56968 0.58809 0.19314 0.0
H1361 H 0.56858 0.59203 0.34449 0.0
H1362 H 0.55628 0.60167 0.25474 0.0
C1363 C 0.58321 0.57933 0.18846 0.0
C1364 C 0.40281 0.98367 0.29251 0.0
C1365 C 0.41476 0.0062 0.29101 0.0
H1366 H 0.38993 0.95458 0.24226 0.0
C1367 C 0.41881 0.0167 0.23534 0.0
H1368 H 0.39906 0.97509 0.33463 0.0
C1369 C 0.41372 0.00494 0.1822 0.0
C1370 C 0.4044 0.9825 0.18393 0.0
H1371 H 0.42763 0.03407 0.23256 0.0
H1372 H 0.4188 0.01357 0.14019 0.0
C1373 C 0.3976 0.97192 0.23939 0.0
C1374 C 0.58549 0.01126 0.67312 0.0
C1375 C 0.57409 0.98877 0.6771 0.0
H1376 H 0.59838 0.0409 0.72076 0.0
C1377 C 0.57168 0.97906 0.73344 0.0
H1378 H 0.58798 0.01925 0.63036 0.0
C1379 C 0.57753 0.99146 0.78541 0.0
C1380 C 0.58592 0.01373 0.78165 0.0
H1381 H 0.56341 0.96173 0.73785 0.0
H1382 H 0.57355 0.98336 0.8283 0.0
C1383 C 0.59138 0.02367 0.72509 0.0
C1384 C 0.9727 0.569 0.73534 0.0
C1385 C 0.98281 0.57424 0.79166 0.0
H1386 H 0.97668 0.56787 0.64084 0.0
C1387 C 0.00523 0.58723 0.79421 0.0
H1388 H 0.95539 0.5594 0.73178 0.0
C1389 C 0.01743 0.59217 0.74192 0.0
C1390 C 0.00739 0.58415 0.68637 0.0
H1391 H 0.0135 0.5919 0.83677 0.0
H1392 H 0.03477 0.60062 0.74579 0.0
C1393 C 0.98491 0.57388 0.68305 0.0
C1394 C 0.42352 0.39972 0.74606 0.0
C1395 C 0.41876 0.40588 0.80119 0.0
H1396 H 0.4236 0.40242 0.65077 0.0
C1397 C 0.40573 0.41529 0.8016 0.0
H1398 H 0.43319 0.39205 0.74412 0.0
C1399 C 0.40006 0.42106 0.7479 0.0
C1400 C 0.4075 0.41767 0.69297 0.0
H1401 H 0.40143 0.41986 0.84329 0.0
H1402 H 0.3915 0.42988 0.74992 0.0
C1403 C 0.41801 0.40566 0.69236 0.0
C1404 C 0.30461 0.16221 0.17837 0.0
C1405 C 0.30623 0.14648 0.14506 0.0
H1406 H 0.32113 0.19243 0.22367 0.0
C1407 C 0.32677 0.15004 0.13023 0.0
H1408 H 0.28909 0.16017 0.18995 0.0
C1409 C 0.34521 0.16866 0.14928 0.0
C1410 C 0.34356 0.18413 0.18382 0.0
H1411 H 0.32867 0.13831 0.10458 0.0
H1412 H 0.36076 0.17078 0.13739 0.0
C1413 C 0.32303 0.18076 0.1977 0.0
C1414 C 0.82396 0.17569 0.13173 0.0
C1415 C 0.80876 0.15814 0.16551 0.0
H1416 H 0.85422 0.19049 0.08663 0.0
C1417 C 0.81318 0.14174 0.18056 0.0
H1418 H 0.82123 0.18872 0.11979 0.0
C1419 C 0.83228 0.14281 0.16175 0.0
C1420 C 0.84732 0.16026 0.12724 0.0
H1421 H 0.80185 0.12797 0.20654 0.0
H1422 H 0.83518 0.12991 0.17409 0.0
C1423 C 0.84294 0.17671 0.11267 0.0
C1424 C 0.84401 0.6658 0.18632 0.0
C1425 C 0.8261 0.64534 0.17659 0.0
H1426 H 0.85811 0.69971 0.17482 0.0
C1427 C 0.80802 0.64381 0.14767 0.0
H1428 H 0.85828 0.66759 0.20805 0.0
C1429 C 0.80791 0.66229 0.12858 0.0
C1430 C 0.82587 0.68274 0.13815 0.0
H1431 H 0.79387 0.62835 0.13988 0.0
H1432 H 0.79368 0.66053 0.10672 0.0
C1433 C 0.84391 0.68425 0.16721 0.0
C1434 C 0.15194 0.30452 0.31445 0.0
C1435 C 0.13787 0.3072 0.3525 0.0
H1436 H 0.18178 0.31953 0.26692 0.0
C1437 C 0.14374 0.32802 0.37212 0.0
H1438 H 0.14791 0.28873 0.29828 0.0
C1439 C 0.16317 0.34572 0.35401 0.0
C1440 C 0.1772 0.34305 0.31576 0.0
H1441 H 0.13331 0.33071 0.40141 0.0
H1442 H 0.16717 0.36151 0.37008 0.0
C1443 C 0.17136 0.32221 0.29632 0.0
C1444 C 0.68567 0.85197 0.32864 0.0
C1445 C 0.6839 0.83394 0.35868 0.0
H1446 H 0.66929 0.86633 0.28586 0.0
C1447 C 0.66334 0.81626 0.36905 0.0
H1448 H 0.70123 0.86595 0.32043 0.0
C1449 C 0.64503 0.8165 0.34932 0.0
C1450 C 0.6468 0.83443 0.3188 0.0
H1451 H 0.66134 0.80206 0.39172 0.0
H1452 H 0.62948 0.80248 0.35747 0.0
C1453 C 0.66735 0.85218 0.30872 0.0
C1454 C 0.17056 0.84325 0.37884 0.0
C1455 C 0.15475 0.84825 0.36174 0.0
H1456 H 0.18164 0.82068 0.37504 0.0
C1457 C 0.13723 0.83323 0.3275 0.0
H1458 H 0.18427 0.8544 0.40522 0.0
C1459 C 0.13577 0.81387 0.3098 0.0
C1460 C 0.15173 0.80902 0.32626 0.0
H1461 H 0.12466 0.83642 0.314 0.0
H1462 H 0.12214 0.80275 0.28313 0.0
C1463 C 0.16905 0.82387 0.36141 0.0
C1464 C 0.66303 0.84286 0.87826 0.0
C1465 C 0.6837 0.84668 0.86394 0.0
H1466 H 0.62912 0.82147 0.8721 0.0
C1467 C 0.68567 0.83073 0.83289 0.0
H1468 H 0.66087 0.85475 0.90219 0.0
C1469 C 0.66745 0.8117 0.8152 0.0
C1470 C 0.64678 0.80805 0.82853 0.0
H1471 H 0.7013 0.83297 0.82175 0.0
H1472 H 0.6696 0.79988 0.79085 0.0
C1473 C 0.64479 0.82376 0.86087 0.0
C1474 C 0.15886 0.853 0.83025 0.0
C1475 C 0.14291 0.83604 0.86425 0.0
H1476 H 0.18909 0.86584 0.78511 0.0
C1477 C 0.14601 0.81887 0.88031 0.0
H1478 H 0.15715 0.86658 0.81757 0.0
C1479 C 0.1644 0.81849 0.8619 0.0
C1480 C 0.18013 0.83524 0.82685 0.0
H1481 H 0.13408 0.80551 0.90641 0.0
H1482 H 0.16611 0.80488 0.87457 0.0
C1483 C 0.17721 0.85257 0.81159 0.0
C1484 C 0.17221 0.32695 0.8672 0.0
C1485 C 0.15427 0.30666 0.85587 0.0
H1486 H 0.18685 0.36095 0.85647 0.0
C1487 C 0.13668 0.30554 0.82506 0.0
H1488 H 0.1861 0.32844 0.89045 0.0
C1489 C 0.13711 0.32422 0.80546 0.0
C1490 C 0.15511 0.3445 0.81644 0.0
H1491 H 0.1225 0.29021 0.81609 0.0
H1492 H 0.12326 0.32275 0.782 0.0
C1493 C 0.17264 0.34563 0.84763 0.0
C1494 C 0.81501 0.66652 0.69204 0.0
C1495 C 0.81131 0.64573 0.6803 0.0
H1496 H 0.83622 0.70032 0.68272 0.0
C1497 C 0.82725 0.64346 0.65023 0.0
H1498 H 0.80306 0.66891 0.71483 0.0
C1499 C 0.84633 0.66152 0.63172 0.0
C1500 C 0.84994 0.68231 0.64302 0.0
H1501 H 0.82504 0.62771 0.6409 0.0
H1502 H 0.85825 0.65917 0.60868 0.0
C1503 C 0.83407 0.68458 0.67354 0.0
C1504 C 0.32658 0.17726 0.63736 0.0
C1505 C 0.30578 0.16103 0.65323 0.0
H1506 H 0.36035 0.18893 0.64268 0.0
C1507 C 0.30344 0.14356 0.68748 0.0
H1508 H 0.32902 0.19094 0.611 0.0
C1509 C 0.32144 0.14248 0.70606 0.0
C1510 C 0.34224 0.15878 0.69056 0.0
H1511 H 0.28768 0.13068 0.7001 0.0
H1512 H 0.319 0.1288 0.73248 0.0
C1513 C 0.34458 0.17613 0.65571 0.0
C1514 C 0.80603 0.15812 0.6342 0.0
C1515 C 0.82402 0.17478 0.6632 0.0
H1516 H 0.79208 0.12716 0.59263 0.0
C1517 C 0.84217 0.17258 0.67224 0.0
H1518 H 0.79172 0.15919 0.62692 0.0
C1519 C 0.84238 0.15426 0.6525 0.0
C1520 C 0.82442 0.1376 0.62347 0.0
H1521 H 0.85638 0.18515 0.69392 0.0
H1522 H 0.85675 0.15329 0.65963 0.0
C1523 C 0.80624 0.13975 0.61443 0.0
C1524 C 0.00057 0.47682 0.47219 0.0
C1525 C 0.97999 0.47245 0.48976 0.0
H1526 H 0.03439 0.4987 0.47537 0.0
C1527 C 0.97816 0.48728 0.52678 0.0
H1528 H 0.00259 0.46568 0.44411 0.0
C1529 C -0.0036 0.50627 0.54452 0.0
C1530 C 0.01696 0.5109 0.52582 0.0
H1531 H 0.96258 0.48443 0.54139 0.0
H1532 H -0.00569 0.5175 0.57204 0.0
C1533 C 0.01883 0.49579 0.49017 0.0
C1534 C 0.49764 0.48069 0.50324 0.0
C1535 C 0.51286 0.49855 0.47048 0.0
H1536 H 0.46722 0.46523 0.54723 0.0
C1537 C 0.50819 0.51481 0.4558 0.0
H1538 H 0.50049 0.46769 0.51461 0.0
C1539 C 0.48885 0.51331 0.47426 0.0
C1540 C 0.47383 0.49556 0.50794 0.0
H1541 H 0.51954 0.5288 0.43057 0.0
H1542 H 0.48573 0.52612 0.4624 0.0
C1543 C 0.47846 0.47925 0.52192 0.0
C1544 C 0.47545 0.97722 0.47974 0.0
C1545 C 0.49322 0.97965 0.51245 0.0
H1546 H 0.46026 0.9926 0.43634 0.0
C1547 C 0.5095 0.0005 0.52778 0.0
H1548 H 0.4625 0.96145 0.4677 0.0
C1549 C 0.50816 0.01848 0.51003 0.0
C1550 C 0.49055 0.01601 0.47636 0.0
H1551 H 0.52342 0.003 0.55299 0.0
H1552 H 0.52102 0.0343 0.52235 0.0
C1553 C 0.47416 0.99515 0.46176 0.0
C1554 C 0.47804 -0.00185 0.01435 0.0
C1555 C 0.47589 0.97785 0.00464 0.0
H1556 H 0.49719 0.03208 0.00198 0.0
C1557 C 0.49241 0.97664 0.9743 0.0
H1558 H 0.46557 -0.00029 0.0371 0.0
C1559 C 0.51059 0.99527 0.95399 0.0
C1560 C 0.51273 0.01556 0.96388 0.0
H1561 H 0.49139 0.9613 0.96649 0.0
H1562 H 0.5231 0.99378 0.93128 0.0
C1563 C 0.4962 0.01675 0.99413 0.0
C1564 C -0.0027 0.48632 0.0392 0.0
C1565 C 0.01769 0.50279 0.02111 0.0
H1566 H 0.96333 0.47345 0.03615 0.0
C1567 C 0.01905 0.51969 0.98607 0.0
H1568 H -0.00441 0.47304 0.06621 0.0
C1569 C 0.00046 0.51987 0.96846 0.0
C1570 C 0.98008 0.50321 0.98581 0.0
H1571 H 0.03446 0.53274 0.97177 0.0
H1572 H 0.0021 0.53304 0.94109 0.0
C1573 C 0.97875 0.48654 0.02184 0.0
C1574 C 0.47471 0.49601 0.99267 0.0
C1575 C 0.49198 0.51211 0.02523 0.0
H1576 H 0.46126 0.46558 0.94911 0.0
C1577 C 0.50922 0.50898 0.04039 0.0
H1578 H 0.46103 0.49768 0.98088 0.0
C1579 C 0.5093 0.49036 0.02236 0.0
C1580 C 0.49218 0.4745 0.98865 0.0
H1581 H 0.52279 0.52105 0.06547 0.0
H1582 H 0.52287 0.48849 0.03438 0.0
C1583 C 0.47483 0.47751 0.97447 0.0
C1584 C 0.21056 0.10132 0.95207 0.0
C1585 C 0.22071 0.08905 0.95859 0.0
H1586 H 0.19844 0.11554 0.89001 0.0
C1587 C 0.22297 0.07858 0.90827 0.0
H1588 H 0.20866 0.10958 0.99004 0.0
C1589 C 0.21702 0.08186 0.85179 0.0
C1590 C 0.20853 0.09547 0.84469 0.0
H1591 H 0.23049 0.06881 0.91195 0.0
H1592 H 0.22041 0.07495 0.81313 0.0
C1593 C 0.20461 0.10463 0.89514 0.0
C1594 C 0.89283 0.11044 0.92382 0.0
C1595 C 0.90213 0.13286 0.92878 0.0
H1596 H 0.88069 0.08348 0.86386 0.0
C1597 C 0.90939 0.14553 0.87673 0.0
H1598 H 0.88718 0.10029 0.96313 0.0
C1599 C 0.90577 0.13597 0.8207 0.0
C1600 C 0.89504 0.11359 0.81559 0.0
H1601 H 0.91693 0.16287 0.87891 0.0
H1602 H 0.9102 0.146 0.78111 0.0
C1603 C 0.88927 0.10084 0.86729 0.0
C1604 C 0.89067 0.78264 0.88314 0.0
C1605 C 0.87809 0.77807 0.83139 0.0
H1606 H 0.89069 0.77962 0.9787 0.0
C1607 C 0.85585 0.76899 0.83641 0.0
H1608 H 0.90788 0.7893 0.87966 0.0
C1609 C 0.84605 0.76336 0.89231 0.0
C1610 C 0.85834 0.76653 0.94426 0.0
H1611 H 0.84593 0.7651 0.79676 0.0
H1612 H 0.8287 0.75555 0.89445 0.0
C1613 C 0.88084 0.77701 0.93951 0.0
C1614 C 0.08801 0.2113 0.55281 0.0
C1615 C 0.07924 0.22486 0.54708 0.0
H1616 H 0.0992 0.19589 0.61367 0.0
C1617 C 0.07171 0.23031 0.59846 0.0
H1618 H 0.09382 0.20673 0.51397 0.0
C1619 C 0.07466 0.22403 0.65478 0.0
C1620 C 0.08502 0.21205 0.66075 0.0
H1621 H 0.06454 0.24043 0.59559 0.0
H1622 H 0.07013 0.22972 0.69399 0.0
C1623 C 0.09092 0.20494 0.60957 0.0
C1624 C 0.78569 0.89079 0.61617 0.0
C1625 C 0.7803 0.877 0.66564 0.0
H1626 H 0.78277 0.89306 0.52119 0.0
C1627 C 0.77049 0.85483 0.6567 0.0
H1628 H 0.79298 0.90797 0.62261 0.0
C1629 C 0.76463 0.84635 0.59944 0.0
C1630 C 0.76825 0.85989 0.55002 0.0
H1631 H 0.76609 0.84399 0.69451 0.0
H1632 H 0.75614 0.82904 0.59443 0.0
C1633 C 0.77972 0.88226 0.55841 0.0
C1634 C 0.13644 0.91642 0.65673 0.0
C1635 C 0.11422 0.90401 0.66481 0.0
H1636 H 0.16258 0.92787 0.59546 0.0
C1637 C 0.10071 0.89581 0.6148 0.0
H1638 H 0.14707 0.92276 0.69495 0.0
C1639 C 0.10956 0.89847 0.55742 0.0
C1640 C 0.13198 0.90927 0.54998 0.0
H1641 H 0.08349 0.88595 0.62055 0.0
H1642 H 0.09898 0.89081 0.51979 0.0
C1643 C 0.14525 0.91911 0.59983 0.0
C1644 C 0.76928 0.91325 0.15706 0.0
C1645 C 0.77991 0.90162 0.16503 0.0
H1646 H 0.75432 0.92433 0.09573 0.0
C1647 C 0.78611 0.89425 0.11491 0.0
H1648 H 0.76427 0.91891 0.19535 0.0
C1649 C 0.78014 0.89704 0.0574 0.0
C1650 C 0.76789 0.90718 0.04981 0.0
H1651 H 0.79408 0.88495 0.12055 0.0
H1652 H 0.78387 0.89005 0.0196 0.0
C1653 C 0.76344 0.91613 0.1 0.0
C1654 C 0.0789 0.8608 0.15676 0.0
C1655 C 0.09235 0.88292 0.16399 0.0
H1656 H 0.06574 0.83436 0.09637 0.0
C1657 C 0.10107 0.89611 0.1135 0.0
H1658 H 0.07225 0.85041 0.19539 0.0
C1659 C 0.09761 0.88694 0.05637 0.0
C1660 C 0.08553 0.86451 0.04964 0.0
H1661 H 0.11182 0.91323 0.11866 0.0
H1662 H 0.10561 0.89721 0.01833 0.0
C1663 C 0.07539 0.85168 0.1001 0.0
C1664 C 0.10039 0.21664 0.05203 0.0
C1665 C 0.12157 0.2211 0.04361 0.0
H1666 H 0.07547 0.20981 0.11593 0.0
C1667 C 0.13272 0.21862 0.09173 0.0
H1668 H 0.09154 0.21853 0.01564 0.0
C1669 C 0.12345 0.21333 0.14845 0.0
C1670 C 0.1031 0.21086 0.15792 0.0
H1671 H 0.14906 0.22188 0.08612 0.0
H1672 H 0.1328 0.21278 0.18566 0.0
C1673 C 0.09128 0.21176 0.10918 0.0
C1674 C 0.89297 0.77724 0.43968 0.0
C1675 C 0.9023 0.76414 0.44423 0.0
H1676 H 0.88074 0.79214 0.38022 0.0
C1677 C 0.90922 0.75856 0.39179 0.0
H1678 H 0.88755 0.78184 0.47925 0.0
C1679 C 0.9054 0.76446 0.33595 0.0
C1680 C 0.89484 0.77627 0.33129 0.0
H1681 H 0.91675 0.74875 0.39355 0.0
H1682 H 0.90968 0.75882 0.29616 0.0
C1683 C 0.88922 0.78326 0.38329 0.0
C1684 C 0.22093 0.13927 0.35134 0.0
C1685 C 0.2105 0.11699 0.34416 0.0
H1686 H 0.23591 0.16561 0.41168 0.0
C1687 C 0.20472 0.10364 0.39467 0.0
H1688 H 0.22563 0.14977 0.31269 0.0
C1689 C 0.21086 0.11267 0.45183 0.0
C1690 C 0.22291 0.1351 0.45854 0.0
H1691 H 0.19692 0.08636 0.38958 0.0
H1692 H 0.20742 0.10216 0.49 0.0
C1693 C 0.22699 0.14826 0.40798 0.0
C1694 C 0.88043 0.1045 0.4256 0.0
C1695 C 0.85903 0.08796 0.43191 0.0
H1696 H 0.90625 0.12285 0.36432 0.0
C1697 C 0.84821 0.07509 0.38224 0.0
H1698 H 0.88906 0.11467 0.46319 0.0
C1699 C 0.85813 0.07953 0.32635 0.0
C1700 C 0.87884 0.09713 0.31917 0.0
H1701 H 0.83172 0.06216 0.38612 0.0
H1702 H 0.84912 0.07011 0.28805 0.0
C1703 C 0.8902 0.10921 0.36928 0.0
C1704 C 0.89561 0.4141 0.24112 0.0
C1705 C 0.89731 0.42635 0.29198 0.0
H1706 H 0.88967 0.40985 0.14685 0.0
C1707 C 0.8918 0.44248 0.2878 0.0
H1708 H 0.89965 0.40147 0.24338 0.0
C1709 C 0.88635 0.4474 0.23233 0.0
C1710 C 0.88588 0.43588 0.18113 0.0
H1711 H 0.89309 0.45218 0.32636 0.0
H1712 H 0.88355 0.46083 0.22879 0.0
C1713 C 0.88978 0.41874 0.18613 0.0
C1714 C 0.58093 0.48051 0.23553 0.0
C1715 C 0.56852 0.46922 0.28548 0.0
H1716 H 0.58619 0.47975 0.14146 0.0
C1717 C 0.55339 0.44728 0.28002 0.0
H1718 H 0.59281 0.49742 0.23877 0.0
C1719 C 0.54945 0.4373 0.22412 0.0
C1720 C 0.5609 0.44905 0.17361 0.0
H1721 H 0.54361 0.43826 0.31785 0.0
H1722 H 0.53677 0.42073 0.21976 0.0
C1723 C 0.57728 0.47042 0.18006 0.0
C1724 C 0.51538 0.09657 0.16736 0.0
C1725 C 0.53775 0.10878 0.16276 0.0
H1726 H 0.48832 0.0806 0.22503 0.0
C1727 C 0.55025 0.11648 0.2147 0.0
H1728 H 0.50553 0.0905 0.12759 0.0
C1729 C 0.54045 0.11061 0.27105 0.0
C1730 C 0.51808 0.09699 0.27564 0.0
H1731 H 0.5676 0.12578 0.21171 0.0
H1732 H 0.55045 0.11574 0.31065 0.0
C1733 C 0.50562 0.0908 0.22321 0.0
C1734 C 0.74265 0.56491 0.91939 0.0
C1735 C 0.75205 0.56131 0.86873 0.0
H1736 H 0.73971 0.56327 0.01471 0.0
C1737 C 0.76287 0.54967 0.87518 0.0
H1738 H 0.73392 0.57353 0.91586 0.0
C1739 C 0.76591 0.54355 0.93223 0.0
C1740 C 0.75806 0.54894 0.98291 0.0
H1741 H 0.77023 0.54663 0.83695 0.0
H1742 H 0.77574 0.53613 0.93712 0.0
C1743 C 0.74573 0.55888 0.97595 0.0
C1744 C 0.42412 0.17645 0.9379 0.0
C1745 C 0.42443 0.18842 0.8878 0.0
H1746 H 0.429 0.17645 0.03242 0.0
C1747 C 0.43233 0.21057 0.89384 0.0
H1748 H 0.41827 0.15937 0.93428 0.0
C1749 C 0.43822 0.22021 0.95011 0.0
C1750 C 0.43671 0.20792 0.00051 0.0
H1751 H 0.43274 0.22014 0.8559 0.0
H1752 H 0.44306 0.23704 0.95476 0.0
C1753 C 0.4304 0.18619 0.99382 0.0
C1754 C 0.77304 0.21875 0.86393 0.0
C1755 C 0.79546 0.2304 0.85652 0.0
H1756 H 0.74694 0.20502 0.92702 0.0
C1757 C 0.80857 0.24014 0.90674 0.0
H1758 H 0.76258 0.21107 0.82609 0.0
C1759 C 0.79967 0.23675 0.96371 0.0
C1760 C 0.77751 0.2238 0.97152 0.0
H1761 H 0.82589 0.24947 0.90252 0.0
H1762 H 0.81022 0.24313 0.00206 0.0
C1763 C 0.76411 0.2154 0.92139 0.0
C1764 C 0.43153 0.21658 0.39405 0.0
C1765 C 0.42475 0.2317 0.3875 0.0
H1766 H 0.44092 0.19988 0.45567 0.0
C1767 C 0.42509 0.24381 0.43727 0.0
H1768 H 0.43141 0.20706 0.35635 0.0
C1769 C 0.43094 0.24003 0.49338 0.0
C1770 C 0.43617 0.22385 0.50056 0.0
H1771 H 0.42012 0.25572 0.4332 0.0
H1772 H 0.43007 0.24878 0.53174 0.0
C1773 C 0.43698 0.21251 0.45054 0.0
C1774 C 0.76113 0.20664 0.36369 0.0
C1775 C 0.75066 0.18419 0.35724 0.0
H1776 H 0.77331 0.23302 0.42561 0.0
C1777 C 0.74112 0.17111 0.40767 0.0
H1778 H 0.76854 0.21709 0.32558 0.0
C1779 C 0.74371 0.18018 0.46413 0.0
C1780 C 0.7557 0.20247 0.47117 0.0
H1781 H 0.73262 0.15375 0.40411 0.0
H1782 H 0.73761 0.16973 0.50283 0.0
C1783 C 0.76369 0.21575 0.42062 0.0
C1784 C 0.80152 0.559 0.47564 0.0
C1785 C 0.77928 0.54941 0.48267 0.0
H1786 H 0.828 0.57294 0.4154 0.0
C1787 C 0.76606 0.54404 0.43201 0.0
H1788 H 0.81192 0.56336 0.51438 0.0
C1789 C 0.77525 0.54978 0.37485 0.0
C1790 C 0.79771 0.56101 0.36824 0.0
H1791 H 0.74884 0.53689 0.43696 0.0
H1792 H 0.76489 0.54674 0.33657 0.0
C1793 C 0.81065 0.56463 0.41898 0.0
C1794 C 0.57226 0.11004 0.67251 0.0
C1795 C 0.55423 0.11241 0.66527 0.0
H1796 H 0.58995 0.10138 0.73205 0.0
C1797 C 0.54187 0.11119 0.71535 0.0
H1798 H 0.58193 0.11087 0.63429 0.0
C1799 C 0.54663 0.1061 0.77154 0.0
C1800 C 0.56351 0.10176 0.77766 0.0
H1801 H 0.52794 0.11313 0.71041 0.0
H1802 H 0.53616 0.10398 0.80897 0.0
C1803 C 0.57676 0.10454 0.72824 0.0
C1804 C 0.88862 0.46492 0.68628 0.0
C1805 C 0.88556 0.44417 0.6814 0.0
H1806 H 0.89766 0.49199 0.74327 0.0
C1807 C 0.88656 0.43347 0.73272 0.0
H1808 H 0.88804 0.47343 0.64696 0.0
C1809 C 0.89176 0.44392 0.78807 0.0
C1810 C 0.89647 0.46533 0.79209 0.0
H1811 H 0.88431 0.41743 0.7294 0.0
H1812 H 0.89348 0.4358 0.82667 0.0
C1813 C 0.89422 0.47551 0.74116 0.0
C1814 C 0.55573 0.43931 0.72156 0.0
C1815 C 0.54285 0.43415 0.6703 0.0
H1816 H 0.55651 0.44011 0.81756 0.0
C1817 C 0.5205 0.42345 0.67603 0.0
H1818 H 0.57307 0.44783 0.71766 0.0
C1819 C 0.51107 0.41909 0.73237 0.0
C1820 C 0.52385 0.42558 0.78423 0.0
H1821 H 0.51036 0.41944 0.6368 0.0
H1822 H 0.49374 0.41146 0.73503 0.0
C1823 C 0.54627 0.43504 0.77844 0.0
C1824 C 0.56532 0.75741 0.51849 0.0
C1825 C 0.55372 0.76822 0.5154 0.0
H1826 H 0.58076 0.74524 0.57422 0.0
C1827 C 0.54689 0.77354 0.5682 0.0
H1828 H 0.57082 0.75334 0.47804 0.0
C1829 C 0.55281 0.76917 0.6239 0.0
C1830 C 0.56566 0.75952 0.62694 0.0
H1831 H 0.53815 0.78218 0.56632 0.0
H1832 H 0.54827 0.77429 0.66419 0.0
C1833 C 0.57114 0.75299 0.57364 0.0
C1834 C 0.23348 0.79709 0.5253 0.0
C1835 C 0.21547 0.77663 0.51901 0.0
H1836 H 0.25164 0.82354 0.58407 0.0
C1837 C 0.20334 0.76566 0.56955 0.0
H1838 H 0.24288 0.8058 0.48657 0.0
C1839 C 0.20846 0.77564 0.62555 0.0
C1840 C 0.22545 0.79684 0.63093 0.0
H1841 H 0.18927 0.74986 0.56504 0.0
H1842 H 0.19825 0.7674 0.6635 0.0
C1843 C 0.23835 0.80721 0.58084 0.0
C1844 C 0.19001 0.43593 0.51593 0.0
C1845 C 0.21047 0.43849 0.508 0.0
H1846 H 0.16394 0.42743 0.57651 0.0
C1847 C 0.22185 0.43745 0.55765 0.0
H1848 H 0.18098 0.43659 0.47803 0.0
C1849 C 0.21227 0.43253 0.61424 0.0
C1850 C 0.19106 0.42817 0.62119 0.0
H1851 H 0.23775 0.43952 0.55216 0.0
H1852 H 0.22086 0.43072 0.65148 0.0
C1853 C 0.18027 0.43058 0.57205 0.0
C1854 C 0.43729 0.87744 0.26459 0.0
C1855 C 0.42901 0.88249 0.31498 0.0
H1856 H 0.44143 0.88021 0.1692 0.0
C1857 C 0.416 0.89164 0.30756 0.0
H1858 H 0.44768 0.87066 0.26989 0.0
C1859 C 0.41249 0.89712 0.25075 0.0
C1860 C 0.42217 0.89379 0.20028 0.0
H1861 H 0.40966 0.8958 0.34609 0.0
H1862 H 0.40312 0.90508 0.24686 0.0
C1863 C 0.43383 0.88301 0.20727 0.0
C1864 C 0.1133 0.55115 0.21471 0.0
C1865 C 0.10305 0.52879 0.20671 0.0
H1866 H 0.12531 0.57696 0.27849 0.0
C1867 C 0.10067 0.51562 0.25605 0.0
H1868 H 0.11537 0.56165 0.17746 0.0
C1869 C 0.10638 0.52433 0.31313 0.0
C1870 C 0.11472 0.54635 0.32186 0.0
H1871 H 0.09315 0.49835 0.25118 0.0
H1872 H 0.10286 0.51367 0.35102 0.0
C1873 C 0.11909 0.55991 0.27225 0.0
C1874 C 0.4276 0.54452 0.26873 0.0
C1875 C 0.43891 0.55688 0.31852 0.0
H1876 H 0.42887 0.53853 0.17527 0.0
C1877 C 0.45949 0.57465 0.31091 0.0
H1878 H 0.41164 0.53076 0.27399 0.0
C1879 C 0.46943 0.57887 0.25507 0.0
C1880 C 0.45875 0.56561 0.20593 0.0
H1881 H 0.46847 0.58428 0.34896 0.0
H1882 H 0.48589 0.59185 0.25098 0.0
C1883 C 0.43739 0.54901 0.21245 0.0
C1884 C 0.10562 0.5814 0.81332 0.0
C1885 C 0.11492 0.56853 0.82137 0.0
H1886 H 0.09134 0.59329 0.75215 0.0
C1887 C 0.11977 0.55991 0.77136 0.0
H1888 H 0.10164 0.58802 0.85155 0.0
C1889 C 0.11362 0.56266 0.71405 0.0
C1890 C 0.10249 0.57395 0.70669 0.0
H1891 H 0.12668 0.54965 0.77713 0.0
H1892 H 0.11609 0.55461 0.67651 0.0
C1893 C 0.09958 0.5842 0.75647 0.0
C1894 C 0.42989 0.55171 0.77178 0.0
C1895 C 0.42363 0.53852 0.82267 0.0
H1896 H 0.43279 0.55303 0.67609 0.0
C1897 C 0.41263 0.51619 0.81613 0.0
H1898 H 0.43862 0.56904 0.77631 0.0
C1899 C 0.4094 0.50708 0.75956 0.0
C1900 C 0.41727 0.52019 0.70844 0.0
H1901 H 0.40772 0.50581 0.85507 0.0
H1902 H 0.40169 0.48976 0.75625 0.0
C1903 C 0.4267 0.54257 0.71472 0.0
C1904 C 0.47216 0.89304 0.8076 0.0
C1905 C 0.44983 0.88236 0.81396 0.0
H1906 H 0.4988 0.9085 0.74824 0.0
C1907 C 0.43676 0.87667 0.76294 0.0
H1908 H 0.48244 0.89772 0.84665 0.0
C1909 C 0.44609 0.88309 0.70613 0.0
C1910 C 0.46854 0.89536 0.70023 0.0
H1911 H 0.41945 0.86872 0.76738 0.0
H1912 H 0.43576 0.87972 0.66761 0.0
C1913 C 0.48144 0.89938 0.75128 0.0
C1914 C 0.23914 0.41907 0.06541 0.0
C1915 C 0.23248 0.42486 0.11791 0.0
H1916 H 0.23973 0.41965 0.96977 0.0
C1917 C 0.22394 0.43866 0.11377 0.0
H1918 H 0.24605 0.4087 0.06695 0.0
C1919 C 0.22061 0.44515 0.05765 0.0
C1920 C 0.22592 0.43798 0.00552 0.0
H1921 H 0.21874 0.44345 0.15345 0.0
H1922 H 0.21262 0.45451 0.05484 0.0
C1923 C 0.23578 0.42549 0.00975 0.0
C1924 C 0.55453 0.80014 0.02243 0.0
C1925 C 0.5509 0.77922 0.01639 0.0
H1926 H 0.56419 0.82695 0.08089 0.0
C1927 C 0.55126 0.76791 0.06712 0.0
H1928 H 0.55447 0.80912 0.98355 0.0
C1929 C 0.55654 0.77796 0.12304 0.0
C1930 C 0.56198 0.79956 0.12817 0.0
H1931 H 0.54863 0.75175 0.06282 0.0
H1932 H 0.55793 0.7694 0.16109 0.0
C1933 C 0.56019 0.81031 0.0779 0.0
C1934 C 0.18297 0.75127 0.02373 0.0
C1935 C 0.20482 0.76647 0.01942 0.0
H1936 H 0.15539 0.73618 0.08045 0.0
C1937 C 0.21651 0.7767 0.07113 0.0
H1938 H 0.17371 0.74349 0.98399 0.0
C1939 C 0.20613 0.77247 0.12655 0.0
C1940 C 0.18387 0.75835 0.13024 0.0
H1941 H 0.23337 0.78874 0.06808 0.0
H1942 H 0.21519 0.78123 0.16556 0.0
C1943 C 0.17254 0.74729 0.07872 0.0
C1944 C 0.19391 0.98914 0.27434 0.0
C1945 C 0.2055 0.97855 0.28486 0.0
H1946 H 0.19386 0.0162 0.23576 0.0
C1947 C 0.2273 0.98863 0.2691 0.0
H1948 H 0.17722 0.982 0.28752 0.0
C1949 C 0.23726 0.00898 0.24263 0.0
C1950 C 0.22536 0.01917 0.23023 0.0
H1951 H 0.23656 0.98073 0.27674 0.0
H1952 H 0.25416 0.01664 0.23144 0.0
C1953 C 0.20358 0.00897 0.24595 0.0
C1954 C 0.99313 0.22076 0.17354 0.0
C1955 C 0.97325 0.21012 0.20276 0.0
H1956 H 0.02733 0.23826 0.18384 0.0
C1957 C 0.97229 0.21033 0.26537 0.0
H1958 H -0.00593 0.22053 0.1252 0.0
C1959 C 0.99116 0.22062 0.29866 0.0
C1960 C 0.01107 0.23049 0.26945 0.0
H1961 H 0.95698 0.20211 0.28839 0.0
H1962 H 0.99027 0.22005 0.34706 0.0
C1963 C 0.012 0.2308 0.20682 0.0
C1964 C 0.75257 0.76684 0.25483 0.0
C1965 C 0.7648 0.78862 0.27058 0.0
H1966 H 0.75269 0.73974 0.21521 0.0
C1967 C 0.78665 0.80014 0.25553 0.0
H1968 H 0.73562 0.75767 0.26546 0.0
C1969 C 0.79604 0.79027 0.22421 0.0
C1970 C 0.78407 0.76837 0.21001 0.0
H1971 H 0.7966 0.81681 0.26827 0.0
H1972 H 0.81279 0.79978 0.21163 0.0
C1973 C 0.76223 0.75669 0.2254 0.0
C1974 C 0.79493 0.0018 0.71664 0.0
C1975 C 0.78299 0.0115 0.69973 0.0
H1976 H 0.79538 0.9764 0.76436 0.0
C1977 C 0.76111 0.00153 0.71469 0.0
H1978 H 0.81171 0.00889 0.70461 0.0
C1979 C 0.75138 0.98213 0.74627 0.0
C1980 C 0.76357 0.97278 0.76433 0.0
H1981 H 0.7516 0.0088 0.70251 0.0
H1982 H 0.73441 0.97447 0.75657 0.0
C1983 C 0.78546 0.98296 0.74987 0.0
C1984 C 0.98939 0.79085 0.71437 0.0
C1985 C 0.97931 0.76861 0.7052 0.0
H1986 H 0.01517 0.81836 0.75552 0.0
C1987 C 0.98946 0.75734 0.7245 0.0
H1988 H 0.98214 0.80001 0.69855 0.0
C1989 C 0.00917 0.76816 0.7542 0.0
C1990 C 0.01861 0.79023 0.76627 0.0
H1991 H 0.98196 0.74016 0.71783 0.0
H1992 H 0.01682 0.75922 0.76853 0.0
C1993 C 0.00853 0.80144 0.74596 0.0
C1994 C 0.19856 0.19451 0.72759 0.0
C1995 C 0.22087 0.20659 0.71937 0.0
H1996 H 0.17071 0.19336 0.76484 0.0
C1997 C 0.23201 0.22819 0.73709 0.0
H1998 H 0.1895 0.17796 0.71288 0.0
C1999 C 0.22098 0.23742 0.76372 0.0
C2000 C 0.1988 0.22499 0.77445 0.0
H2001 H 0.24924 0.23781 0.73117 0.0
H2002 H 0.22983 0.25418 0.77663 0.0
C2003 C 0.18772 0.20346 0.75617 0.0
C2004 C 0.891 0.3104 0.56715 0.0
C2005 C 0.8689 0.30063 0.57902 0.0
H2006 H 0.91917 0.33862 0.5358 0.0
C2007 C 0.85773 0.31116 0.56227 0.0
H2008 H 0.8999 0.30242 0.57863 0.0
C2009 C 0.86847 0.33118 0.53486 0.0
C2010 C 0.89077 0.34157 0.52665 0.0
H2011 H 0.84077 0.30423 0.57176 0.0
H2012 H 0.85941 0.33885 0.52181 0.0
C2013 C 0.90195 0.33091 0.54196 0.0
C2014 C 0.67244 0.54478 0.58519 0.0
C2015 C 0.68307 0.56679 0.59822 0.0
H2016 H 0.64518 0.51818 0.54569 0.0
C2017 C 0.67325 0.57888 0.58367 0.0
H2018 H 0.67938 0.53495 0.59714 0.0
C2019 C 0.65293 0.56892 0.55717 0.0
C2020 C 0.64248 0.5469 0.54374 0.0
H2021 H 0.68124 0.59593 0.59296 0.0
H2022 H 0.64535 0.57835 0.54756 0.0
C2023 C 0.65262 0.53506 0.55691 0.0
C2024 C 0.42169 0.11272 0.55249 0.0
C2025 C 0.42252 0.11277 0.61514 0.0
H2026 H 0.43101 0.10389 0.47097 0.0
C2027 C 0.43249 0.10289 0.64454 0.0
H2028 H 0.41407 0.12039 0.5293 0.0
C2029 C 0.44225 0.09369 0.61142 0.0
C2030 C 0.44188 0.09411 0.54876 0.0
H2031 H 0.43342 0.10301 0.69291 0.0
H2032 H 0.4505 0.08668 0.63461 0.0
C2033 C 0.43122 0.10329 0.51937 0.0
C2034 C 0.43051 0.30991 0.05813 0.0
C2035 C 0.43074 0.31017 0.12081 0.0
H2036 H 0.44048 0.3287 0.97781 0.0
C2037 C 0.44093 0.32978 0.15147 0.0
H2038 H 0.42271 0.29483 0.03394 0.0
C2039 C 0.45121 0.34901 0.11956 0.0
C2040 C 0.4511 0.34873 0.05686 0.0
H2041 H 0.44138 0.33017 0.19991 0.0
H2042 H 0.45931 0.36408 0.14371 0.0
C2043 C 0.44054 0.32913 0.02625 0.0
C2044 C 0.64805 0.08303 0.04959 0.0
C2045 C 0.63867 0.09586 0.04002 0.0
H2046 H 0.67557 0.08187 0.08166 0.0
C2047 C 0.64941 0.11727 0.05928 0.0
H2048 H 0.6399 0.06636 0.03581 0.0
C2049 C 0.66913 0.12572 0.08781 0.0
C2050 C 0.67898 0.11326 0.09509 0.0
H2051 H 0.64276 0.12764 0.05152 0.0
H2052 H 0.67687 0.1422 0.10324 0.0
C2053 C 0.66824 0.09176 0.07638 0.0
C2054 C 0.89299 0.57568 0.07943 0.0
C2055 C 0.87095 0.56371 0.09251 0.0
H2056 H 0.92049 0.57508 0.04454 0.0
C2057 C 0.85932 0.54198 0.07615 0.0
H2058 H 0.90225 0.59256 0.09081 0.0
C2059 C 0.86944 0.5324 0.04698 0.0
C2060 C 0.89162 0.54402 0.03649 0.0
H2061 H 0.84242 0.53221 0.08671 0.0
H2062 H 0.85997 0.51571 0.03382 0.0
C2063 C 0.90333 0.56581 0.05228 0.0
C2064 C 0.5254 0.64747 0.91259 0.0
C2065 C 0.5368 0.63773 0.93412 0.0
H2066 H 0.52683 0.6741 0.86622 0.0
C2067 C 0.55911 0.64796 0.92519 0.0
H2068 H 0.50827 0.64021 0.91974 0.0
C2069 C 0.56993 0.66809 0.89762 0.0
C2070 C 0.55847 0.6779 0.87723 0.0
H2071 H 0.56822 0.6406 0.94039 0.0
H2072 H 0.58725 0.67616 0.89341 0.0
C2073 C 0.53607 0.66708 0.88302 0.0
C2074 C 0.33905 0.87221 0.91444 0.0
C2075 C 0.34943 0.89409 0.92922 0.0
H2076 H 0.31175 0.84576 0.87407 0.0
C2077 C 0.33948 0.90613 0.91578 0.0
H2078 H 0.34613 0.86243 0.92534 0.0
C2079 C 0.31913 0.89622 0.88971 0.0
C2080 C 0.30879 0.87431 0.87521 0.0
H2081 H 0.34731 0.92312 0.92602 0.0
H2082 H 0.31138 0.9056 0.88162 0.0
C2083 C 0.31917 0.86256 0.88627 0.0
C2084 C 0.09421 0.42228 0.89154 0.0
C2085 C 0.1161 0.43348 0.87654 0.0
H2086 H 0.06779 0.42415 0.92936 0.0
C2087 C 0.12832 0.45553 0.88867 0.0
H2088 H 0.08449 0.40522 0.88283 0.0
C2089 C 0.11909 0.46604 0.91765 0.0
C2090 C 0.09721 0.45493 0.93263 0.0
H2091 H 0.14513 0.46465 0.87633 0.0
H2092 H 0.1292 0.48283 0.92893 0.0
C2093 C 0.08476 0.43301 0.91875 0.0
C2094 C 0.11925 0.66706 0.37623 0.0
C2095 C 0.107 0.67718 0.37074 0.0
H2096 H 0.12126 0.64075 0.4122 0.0
C2097 C 0.08545 0.66635 0.38909 0.0
H2098 H 0.13576 0.67488 0.36088 0.0
C2099 C 0.07663 0.646 0.41521 0.0
C2100 C 0.08946 0.63661 0.42476 0.0
H2101 H 0.07568 0.67385 0.38488 0.0
H2102 H 0.06 0.63791 0.42938 0.0
C2103 C 0.11078 0.64727 0.40449 0.0
C2104 C 0.30672 0.42289 0.44609 0.0
C2105 C 0.30587 0.42273 0.38349 0.0
H2106 H 0.32693 0.43365 0.52354 0.0
C2107 C 0.32489 0.43256 0.34997 0.0
H2108 H 0.29209 0.41545 0.47239 0.0
C2109 C 0.34465 0.44308 0.379 0.0
C2110 C 0.34549 0.44358 0.44163 0.0
H2111 H 0.3244 0.43275 0.30156 0.0
H2112 H 0.35926 0.45116 0.35273 0.0
C2113 C 0.32649 0.43317 0.47511 0.0
C2114 C 0.54062 0.86768 0.39045 0.0
C2115 C 0.56259 0.87934 0.37698 0.0
H2116 H 0.51386 0.86803 0.43011 0.0
C2117 C 0.57426 0.90145 0.38913 0.0
H2118 H 0.53114 0.85071 0.38028 0.0
C2119 C 0.56401 0.91168 0.41472 0.0
C2120 C 0.54214 0.8998 0.42966 0.0
H2121 H 0.59127 0.91074 0.37934 0.0
H2122 H 0.57318 0.9288 0.42313 0.0
C2123 C 0.53062 0.87769 0.41782 0.0
loop_
_geom_bond_atom_site_label_1
_geom_bond_atom_site_label_2
_geom_bond_distance
_geom_bond_site_symmetry_2
_ccdc_geom_bond_type
Co0 O3 1.970 . S
Co0 N17 1.989 . S
Co0 O25 1.967 . S
Co0 O32 1.920 . S
Co1 O4 1.966 . S
Co1 N10 2.022 . S
Co1 N18 1.993 . S
Co1 O26 1.941 . S
C2 O3 1.258 . S
C2 O4 1.263 . S
O3 Co0 1.970 . S
O3 C2 1.258 . S
O4 Co1 1.966 . S
O4 C2 1.263 . S
C5 O6 1.235 . S
C5 O32 1.289 . S
O6 C5 1.235 . S
C7 C9 1.400 . S
C7 N10 1.351 . S
C7 C12 1.501 . S
C8 C9 1.387 . S
C8 N11 1.341 . S
C9 C7 1.400 . S
C9 C8 1.387 . S
N10 Co1 2.022 . S
N10 C7 1.351 . S
N10 N11 1.365 . S
N11 C8 1.341 . S
N11 N10 1.365 . S
N11 H31 0.862 . S
C12 C7 1.501 . S
C12 H13 0.961 . S
C12 H14 0.961 . S
C12 H15 0.960 . S
H13 C12 0.961 . S
H14 C12 0.961 . S
H15 C12 0.960 . S
C16 N17 1.342 . S
C16 C20 1.401 . S
C16 C21 1.499 . S
N17 Co0 1.989 . S
N17 C16 1.342 . S
N17 N18 1.388 . S
N18 Co1 1.993 . S
N18 N17 1.388 . S
N18 C19 1.346 . S
C19 N18 1.346 . S
C19 C20 1.396 . S
C19 C29 1.510 . S
C20 C16 1.401 . S
C20 C19 1.396 . S
C21 C16 1.499 . S
C21 H22 0.959 . S
C21 H23 0.960 . S
C21 H24 0.961 . S
H22 C21 0.959 . S
H23 C21 0.960 . S
H24 C21 0.961 . S
O25 Co0 1.967 . S
O25 C33 1.258 . S
O26 Co1 1.941 . S
O26 C33 1.266 . S
H27 C29 0.959 . S
H28 C29 0.961 . S
C29 C19 1.510 . S
C29 H27 0.959 . S
C29 H28 0.961 . S
C29 H30 0.960 . S
H30 C29 0.960 . S
H31 N11 0.862 . S
O32 Co0 1.920 . S
O32 C5 1.289 . S
C33 O25 1.258 . S
C33 O26 1.266 . S
Co34 O37 1.970 . S
Co34 N51 1.989 . S
Co34 O59 1.967 . S
Co34 O66 1.920 . S
Co35 O38 1.966 . S
Co35 N44 2.022 . S
Co35 N52 1.993 . S
Co35 O60 1.941 . S
C36 O37 1.258 . S
C36 O38 1.263 . S
O37 Co34 1.970 . S
O37 C36 1.258 . S
O38 Co35 1.966 . S
O38 C36 1.263 . S
C39 O40 1.235 . S
C39 O66 1.289 . S
O40 C39 1.235 . S
C41 C43 1.400 . S
C41 N44 1.351 . S
C41 C46 1.501 . S
C42 C43 1.387 . S
C42 N45 1.341 . S
C43 C41 1.400 . S
C43 C42 1.387 . S
N44 Co35 2.022 . S
N44 C41 1.351 . S
N44 N45 1.365 . S
N45 C42 1.341 . S
N45 N44 1.365 . S
N45 H65 0.862 . S
C46 C41 1.501 . S
C46 H47 0.961 . S
C46 H48 0.961 . S
C46 H49 0.960 . S
H47 C46 0.961 . S
H48 C46 0.961 . S
H49 C46 0.960 . S
C50 N51 1.342 . S
C50 C54 1.401 . S
C50 C55 1.499 . S
N51 Co34 1.989 . S
N51 C50 1.342 . S
N51 N52 1.388 . S
N52 Co35 1.993 . S
N52 N51 1.388 . S
N52 C53 1.346 . S
C53 N52 1.346 . S
C53 C54 1.396 . S
C53 C63 1.510 . S
C54 C50 1.401 . S
C54 C53 1.396 . S
C55 C50 1.499 . S
C55 H56 0.959 . S
C55 H57 0.960 . S
C55 H58 0.961 . S
H56 C55 0.959 . S
H57 C55 0.960 . S
H58 C55 0.961 . S
O59 Co34 1.967 . S
O59 C67 1.258 . S
O60 Co35 1.941 . S
O60 C67 1.266 . S
H61 C63 0.959 . S
H62 C63 0.961 . S
C63 C53 1.510 . S
C63 H61 0.959 . S
C63 H62 0.961 . S
C63 H64 0.960 . S
H64 C63 0.960 . S
H65 N45 0.862 . S
O66 Co34 1.920 . S
O66 C39 1.289 . S
C67 O59 1.258 . S
C67 O60 1.266 . S
Co68 O71 1.970 . S
Co68 N85 1.989 . S
Co68 O93 1.967 . S
Co68 O100 1.920 . S
Co69 O72 1.966 . S
Co69 N78 2.022 . S
Co69 N86 1.993 . S
Co69 O94 1.941 . S
C70 O71 1.258 . S
C70 O72 1.263 . S
O71 Co68 1.970 . S
O71 C70 1.258 . S
O72 Co69 1.966 . S
O72 C70 1.263 . S
C73 O74 1.235 . S
C73 O100 1.289 . S
O74 C73 1.235 . S
C75 C77 1.400 . S
C75 N78 1.351 . S
C75 C80 1.501 . S
C76 C77 1.387 . S
C76 N79 1.341 . S
C77 C75 1.400 . S
C77 C76 1.387 . S
N78 Co69 2.022 . S
N78 C75 1.351 . S
N78 N79 1.365 . S
N79 C76 1.341 . S
N79 N78 1.365 . S
N79 H99 0.862 . S
C80 C75 1.501 . S
C80 H81 0.961 . S
C80 H82 0.961 . S
C80 H83 0.960 . S
H81 C80 0.961 . S
H82 C80 0.961 . S
H83 C80 0.960 . S
C84 N85 1.342 . S
C84 C88 1.401 . S
C84 C89 1.499 . S
N85 Co68 1.989 . S
N85 C84 1.342 . S
N85 N86 1.388 . S
N86 Co69 1.993 . S
N86 N85 1.388 . S
N86 C87 1.346 . S
C87 N86 1.346 . S
C87 C88 1.396 . S
C87 C97 1.510 . S
C88 C84 1.401 . S
C88 C87 1.396 . S
C89 C84 1.499 . S
C89 H90 0.959 . S
C89 H91 0.960 . S
C89 H92 0.961 . S
H90 C89 0.959 . S
H91 C89 0.960 . S
H92 C89 0.961 . S
O93 Co68 1.967 . S
O93 C101 1.258 . S
O94 Co69 1.941 . S
O94 C101 1.266 . S
H95 C97 0.959 . S
H96 C97 0.961 . S
C97 C87 1.510 . S
C97 H95 0.959 . S
C97 H96 0.961 . S
C97 H98 0.960 . S
H98 C97 0.960 . S
H99 N79 0.862 . S
O100 Co68 1.920 . S
O100 C73 1.289 . S
C101 O93 1.258 . S
C101 O94 1.266 . S
Co102 O105 1.970 . S
Co102 N119 1.989 . S
Co102 O127 1.967 . S
Co102 O134 1.920 . S
Co103 O106 1.966 . S
Co103 N112 2.022 . S
Co103 N120 1.993 . S
Co103 O128 1.941 . S
C104 O105 1.258 . S
C104 O106 1.263 . S
O105 Co102 1.970 . S
O105 C104 1.258 . S
O106 Co103 1.966 . S
O106 C104 1.263 . S
C107 O108 1.235 . S
C107 O134 1.289 . S
O108 C107 1.235 . S
C109 C111 1.400 . S
C109 N112 1.351 . S
C109 C114 1.501 . S
C110 C111 1.387 . S
C110 N113 1.341 . S
C111 C109 1.400 . S
C111 C110 1.387 . S
N112 Co103 2.022 . S
N112 C109 1.351 . S
N112 N113 1.365 . S
N113 C110 1.341 . S
N113 N112 1.365 . S
N113 H133 0.862 . S
C114 C109 1.501 . S
C114 H115 0.961 . S
C114 H116 0.961 . S
C114 H117 0.960 . S
H115 C114 0.961 . S
H116 C114 0.961 . S
H117 C114 0.960 . S
C118 N119 1.342 . S
C118 C122 1.401 . S
C118 C123 1.499 . S
N119 Co102 1.989 . S
N119 C118 1.342 . S
N119 N120 1.388 . S
N120 Co103 1.993 . S
N120 N119 1.388 . S
N120 C121 1.346 . S
C121 N120 1.346 . S
C121 C122 1.396 . S
C121 C131 1.510 . S
C122 C118 1.401 . S
C122 C121 1.396 . S
C123 C118 1.499 . S
C123 H124 0.959 . S
C123 H125 0.960 . S
C123 H126 0.961 . S
H124 C123 0.959 . S
H125 C123 0.960 . S
H126 C123 0.961 . S
O127 Co102 1.967 . S
O127 C135 1.258 . S
O128 Co103 1.941 . S
O128 C135 1.266 . S
H129 C131 0.959 . S
H130 C131 0.961 . S
C131 C121 1.510 . S
C131 H129 0.959 . S
C131 H130 0.961 . S
C131 H132 0.960 . S
H132 C131 0.960 . S
H133 N113 0.862 . S
O134 Co102 1.920 . S
O134 C107 1.289 . S
C135 O127 1.258 . S
C135 O128 1.266 . S
Co136 O139 1.970 . S
Co136 N153 1.989 . S
Co136 O161 1.967 . S
Co136 O168 1.920 . S
Co137 O140 1.966 . S
Co137 N146 2.022 . S
Co137 N154 1.993 . S
Co137 O162 1.941 . S
C138 O139 1.258 . S
C138 O140 1.263 . S
O139 Co136 1.970 . S
O139 C138 1.258 . S
O140 Co137 1.966 . S
O140 C138 1.263 . S
C141 O142 1.235 . S
C141 O168 1.289 . S
O142 C141 1.235 . S
C143 C145 1.400 . S
C143 N146 1.351 . S
C143 C148 1.501 . S
C144 C145 1.387 . S
C144 N147 1.341 . S
C145 C143 1.400 . S
C145 C144 1.387 . S
N146 Co137 2.022 . S
N146 C143 1.351 . S
N146 N147 1.365 . S
N147 C144 1.341 . S
N147 N146 1.365 . S
N147 H167 0.862 . S
C148 C143 1.501 . S
C148 H149 0.961 . S
C148 H150 0.961 . S
C148 H151 0.960 . S
H149 C148 0.961 . S
H150 C148 0.961 . S
H151 C148 0.960 . S
C152 N153 1.342 . S
C152 C156 1.401 . S
C152 C157 1.499 . S
N153 Co136 1.989 . S
N153 C152 1.342 . S
N153 N154 1.388 . S
N154 Co137 1.993 . S
N154 N153 1.388 . S
N154 C155 1.346 . S
C155 N154 1.346 . S
C155 C156 1.396 . S
C155 C165 1.510 . S
C156 C152 1.401 . S
C156 C155 1.396 . S
C157 C152 1.499 . S
C157 H158 0.959 . S
C157 H159 0.960 . S
C157 H160 0.961 . S
H158 C157 0.959 . S
H159 C157 0.960 . S
H160 C157 0.961 . S
O161 Co136 1.967 . S
O161 C169 1.258 . S
O162 Co137 1.941 . S
O162 C169 1.266 . S
H163 C165 0.959 . S
H164 C165 0.961 . S
C165 C155 1.510 . S
C165 H163 0.959 . S
C165 H164 0.961 . S
C165 H166 0.960 . S
H166 C165 0.960 . S
H167 N147 0.862 . S
O168 Co136 1.920 . S
O168 C141 1.289 . S
C169 O161 1.258 . S
C169 O162 1.266 . S
Co170 O173 1.970 . S
Co170 N187 1.989 . S
Co170 O195 1.967 . S
Co170 O202 1.920 . S
Co171 O174 1.966 . S
Co171 N180 2.022 . S
Co171 N188 1.993 . S
Co171 O196 1.941 . S
C172 O173 1.258 . S
C172 O174 1.263 . S
O173 Co170 1.970 . S
O173 C172 1.258 . S
O174 Co171 1.966 . S
O174 C172 1.263 . S
C175 O176 1.235 . S
C175 O202 1.289 . S
O176 C175 1.235 . S
C177 C179 1.400 . S
C177 N180 1.351 . S
C177 C182 1.501 . S
C178 C179 1.387 . S
C178 N181 1.341 . S
C179 C177 1.400 . S
C179 C178 1.387 . S
N180 Co171 2.022 . S
N180 C177 1.351 . S
N180 N181 1.365 . S
N181 C178 1.341 . S
N181 N180 1.365 . S
N181 H201 0.862 . S
C182 C177 1.501 . S
C182 H183 0.961 . S
C182 H184 0.961 . S
C182 H185 0.960 . S
H183 C182 0.961 . S
H184 C182 0.961 . S
H185 C182 0.960 . S
C186 N187 1.342 . S
C186 C190 1.401 . S
C186 C191 1.499 . S
N187 Co170 1.989 . S
N187 C186 1.342 . S
N187 N188 1.388 . S
N188 Co171 1.993 . S
N188 N187 1.388 . S
N188 C189 1.346 . S
C189 N188 1.346 . S
C189 C190 1.396 . S
C189 C199 1.510 . S
C190 C186 1.401 . S
C190 C189 1.396 . S
C191 C186 1.499 . S
C191 H192 0.959 . S
C191 H193 0.960 . S
C191 H194 0.961 . S
H192 C191 0.959 . S
H193 C191 0.960 . S
H194 C191 0.961 . S
O195 Co170 1.967 . S
O195 C203 1.258 . S
O196 Co171 1.941 . S
O196 C203 1.266 . S
H197 C199 0.959 . S
H198 C199 0.961 . S
C199 C189 1.510 . S
C199 H197 0.959 . S
C199 H198 0.961 . S
C199 H200 0.960 . S
H200 C199 0.960 . S
H201 N181 0.862 . S
O202 Co170 1.920 . S
O202 C175 1.289 . S
C203 O195 1.258 . S
C203 O196 1.266 . S
Co204 O207 1.970 . S
Co204 N221 1.989 . S
Co204 O229 1.967 . S
Co204 O236 1.920 . S
Co205 O208 1.966 . S
Co205 N214 2.022 . S
Co205 N222 1.993 . S
Co205 O230 1.941 . S
C206 O207 1.258 . S
C206 O208 1.263 . S
O207 Co204 1.970 . S
O207 C206 1.258 . S
O208 Co205 1.966 . S
O208 C206 1.263 . S
C209 O210 1.235 . S
C209 O236 1.289 . S
O210 C209 1.235 . S
C211 C213 1.400 . S
C211 N214 1.351 . S
C211 C216 1.501 . S
C212 C213 1.387 . S
C212 N215 1.341 . S
C213 C211 1.400 . S
C213 C212 1.387 . S
N214 Co205 2.022 . S
N214 C211 1.351 . S
N214 N215 1.365 . S
N215 C212 1.341 . S
N215 N214 1.365 . S
N215 H235 0.862 . S
C216 C211 1.501 . S
C216 H217 0.961 . S
C216 H218 0.961 . S
C216 H219 0.960 . S
H217 C216 0.961 . S
H218 C216 0.961 . S
H219 C216 0.960 . S
C220 N221 1.342 . S
C220 C224 1.401 . S
C220 C225 1.499 . S
N221 Co204 1.989 . S
N221 C220 1.342 . S
N221 N222 1.388 . S
N222 Co205 1.993 . S
N222 N221 1.388 . S
N222 C223 1.346 . S
C223 N222 1.346 . S
C223 C224 1.396 . S
C223 C233 1.510 . S
C224 C220 1.401 . S
C224 C223 1.396 . S
C225 C220 1.499 . S
C225 H226 0.959 . S
C225 H227 0.960 . S
C225 H228 0.961 . S
H226 C225 0.959 . S
H227 C225 0.960 . S
H228 C225 0.961 . S
O229 Co204 1.967 . S
O229 C237 1.258 . S
O230 Co205 1.941 . S
O230 C237 1.266 . S
H231 C233 0.959 . S
H232 C233 0.961 . S
C233 C223 1.510 . S
C233 H231 0.959 . S
C233 H232 0.961 . S
C233 H234 0.960 . S
H234 C233 0.960 . S
H235 N215 0.862 . S
O236 Co204 1.920 . S
O236 C209 1.289 . S
C237 O229 1.258 . S
C237 O230 1.266 . S
Co238 O241 1.970 . S
Co238 N255 1.989 . S
Co238 O263 1.967 . S
Co238 O270 1.920 . S
Co239 O242 1.966 . S
Co239 N248 2.022 . S
Co239 N256 1.993 . S
Co239 O264 1.941 . S
C240 O241 1.258 . S
C240 O242 1.263 . S
O241 Co238 1.970 . S
O241 C240 1.258 . S
O242 Co239 1.966 . S
O242 C240 1.263 . S
C243 O244 1.235 . S
C243 O270 1.289 . S
O244 C243 1.235 . S
C245 C247 1.400 . S
C245 N248 1.351 . S
C245 C250 1.501 . S
C246 C247 1.387 . S
C246 N249 1.341 . S
C247 C245 1.400 . S
C247 C246 1.387 . S
N248 Co239 2.022 . S
N248 C245 1.351 . S
N248 N249 1.365 . S
N249 C246 1.341 . S
N249 N248 1.365 . S
N249 H269 0.862 . S
C250 C245 1.501 . S
C250 H251 0.961 . S
C250 H252 0.961 . S
C250 H253 0.960 . S
H251 C250 0.961 . S
H252 C250 0.961 . S
H253 C250 0.960 . S
C254 N255 1.342 . S
C254 C258 1.401 . S
C254 C259 1.499 . S
N255 Co238 1.989 . S
N255 C254 1.342 . S
N255 N256 1.388 . S
N256 Co239 1.993 . S
N256 N255 1.388 . S
N256 C257 1.346 . S
C257 N256 1.346 . S
C257 C258 1.396 . S
C257 C267 1.510 . S
C258 C254 1.401 . S
C258 C257 1.396 . S
C259 C254 1.499 . S
C259 H260 0.959 . S
C259 H261 0.960 . S
C259 H262 0.961 . S
H260 C259 0.959 . S
H261 C259 0.960 . S
H262 C259 0.961 . S
O263 Co238 1.967 . S
O263 C271 1.258 . S
O264 Co239 1.941 . S
O264 C271 1.266 . S
H265 C267 0.959 . S
H266 C267 0.961 . S
C267 C257 1.510 . S
C267 H265 0.959 . S
C267 H266 0.961 . S
C267 H268 0.960 . S
H268 C267 0.960 . S
H269 N249 0.862 . S
O270 Co238 1.920 . S
O270 C243 1.289 . S
C271 O263 1.258 . S
C271 O264 1.266 . S
Co272 O275 1.970 . S
Co272 N289 1.989 . S
Co272 O297 1.967 . S
Co272 O304 1.920 . S
Co273 O276 1.966 . S
Co273 N282 2.022 . S
Co273 N290 1.993 . S
Co273 O298 1.941 . S
C274 O275 1.258 . S
C274 O276 1.263 . S
O275 Co272 1.970 . S
O275 C274 1.258 . S
O276 Co273 1.966 . S
O276 C274 1.263 . S
C277 O278 1.235 . S
C277 O304 1.289 . S
O278 C277 1.235 . S
C279 C281 1.400 . S
C279 N282 1.351 . S
C279 C284 1.501 . S
C280 C281 1.387 . S
C280 N283 1.341 . S
C281 C279 1.400 . S
C281 C280 1.387 . S
N282 Co273 2.022 . S
N282 C279 1.351 . S
N282 N283 1.365 . S
N283 C280 1.341 . S
N283 N282 1.365 . S
N283 H303 0.862 . S
C284 C279 1.501 . S
C284 H285 0.961 . S
C284 H286 0.961 . S
C284 H287 0.960 . S
H285 C284 0.961 . S
H286 C284 0.961 . S
H287 C284 0.960 . S
C288 N289 1.342 . S
C288 C292 1.401 . S
C288 C293 1.499 . S
N289 Co272 1.989 . S
N289 C288 1.342 . S
N289 N290 1.388 . S
N290 Co273 1.993 . S
N290 N289 1.388 . S
N290 C291 1.346 . S
C291 N290 1.346 . S
C291 C292 1.396 . S
C291 C301 1.510 . S
C292 C288 1.401 . S
C292 C291 1.396 . S
C293 C288 1.499 . S
C293 H294 0.959 . S
C293 H295 0.960 . S
C293 H296 0.961 . S
H294 C293 0.959 . S
H295 C293 0.960 . S
H296 C293 0.961 . S
O297 Co272 1.967 . S
O297 C305 1.258 . S
O298 Co273 1.941 . S
O298 C305 1.266 . S
H299 C301 0.959 . S
H300 C301 0.961 . S
C301 C291 1.510 . S
C301 H299 0.959 . S
C301 H300 0.961 . S
C301 H302 0.960 . S
H302 C301 0.960 . S
H303 N283 0.862 . S
O304 Co272 1.920 . S
O304 C277 1.289 . S
C305 O297 1.258 . S
C305 O298 1.266 . S
Co306 O309 1.970 . S
Co306 N323 1.989 . S
Co306 O331 1.967 . S
Co306 O338 1.920 . S
Co307 O310 1.966 . S
Co307 N316 2.022 . S
Co307 N324 1.993 . S
Co307 O332 1.941 . S
C308 O309 1.258 . S
C308 O310 1.263 . S
O309 Co306 1.970 . S
O309 C308 1.258 . S
O310 Co307 1.966 . S
O310 C308 1.263 . S
C311 O312 1.235 . S
C311 O338 1.289 . S
O312 C311 1.235 . S
C313 C315 1.400 . S
C313 N316 1.351 . S
C313 C318 1.501 . S
C314 C315 1.387 . S
C314 N317 1.341 . S
C315 C313 1.400 . S
C315 C314 1.387 . S
N316 Co307 2.022 . S
N316 C313 1.351 . S
N316 N317 1.365 . S
N317 C314 1.341 . S
N317 N316 1.365 . S
N317 H337 0.862 . S
C318 C313 1.501 . S
C318 H319 0.961 . S
C318 H320 0.961 . S
C318 H321 0.960 . S
H319 C318 0.961 . S
H320 C318 0.961 . S
H321 C318 0.960 . S
C322 N323 1.342 . S
C322 C326 1.401 . S
C322 C327 1.499 . S
N323 Co306 1.989 . S
N323 C322 1.342 . S
N323 N324 1.388 . S
N324 Co307 1.993 . S
N324 N323 1.388 . S
N324 C325 1.346 . S
C325 N324 1.346 . S
C325 C326 1.396 . S
C325 C335 1.510 . S
C326 C322 1.401 . S
C326 C325 1.396 . S
C327 C322 1.499 . S
C327 H328 0.959 . S
C327 H329 0.960 . S
C327 H330 0.961 . S
H328 C327 0.959 . S
H329 C327 0.960 . S
H330 C327 0.961 . S
O331 Co306 1.967 . S
O331 C339 1.258 . S
O332 Co307 1.941 . S
O332 C339 1.266 . S
H333 C335 0.959 . S
H334 C335 0.961 . S
C335 C325 1.510 . S
C335 H333 0.959 . S
C335 H334 0.961 . S
C335 H336 0.960 . S
H336 C335 0.960 . S
H337 N317 0.862 . S
O338 Co306 1.920 . S
O338 C311 1.289 . S
C339 O331 1.258 . S
C339 O332 1.266 . S
Co340 O343 1.970 . S
Co340 N357 1.989 . S
Co340 O365 1.967 . S
Co340 O372 1.920 . S
Co341 O344 1.966 . S
Co341 N350 2.022 . S
Co341 N358 1.993 . S
Co341 O366 1.941 . S
C342 O343 1.258 . S
C342 O344 1.263 . S
O343 Co340 1.970 . S
O343 C342 1.258 . S
O344 Co341 1.966 . S
O344 C342 1.263 . S
C345 O346 1.235 . S
C345 O372 1.289 . S
O346 C345 1.235 . S
C347 C349 1.400 . S
C347 N350 1.351 . S
C347 C352 1.501 . S
C348 C349 1.387 . S
C348 N351 1.341 . S
C349 C347 1.400 . S
C349 C348 1.387 . S
N350 Co341 2.022 . S
N350 C347 1.351 . S
N350 N351 1.365 . S
N351 C348 1.341 . S
N351 N350 1.365 . S
N351 H371 0.862 . S
C352 C347 1.501 . S
C352 H353 0.961 . S
C352 H354 0.961 . S
C352 H355 0.960 . S
H353 C352 0.961 . S
H354 C352 0.961 . S
H355 C352 0.960 . S
C356 N357 1.342 . S
C356 C360 1.401 . S
C356 C361 1.499 . S
N357 Co340 1.989 . S
N357 C356 1.342 . S
N357 N358 1.388 . S
N358 Co341 1.993 . S
N358 N357 1.388 . S
N358 C359 1.346 . S
C359 N358 1.346 . S
C359 C360 1.396 . S
C359 C369 1.510 . S
C360 C356 1.401 . S
C360 C359 1.396 . S
C361 C356 1.499 . S
C361 H362 0.959 . S
C361 H363 0.960 . S
C361 H364 0.961 . S
H362 C361 0.959 . S
H363 C361 0.960 . S
H364 C361 0.961 . S
O365 Co340 1.967 . S
O365 C373 1.258 . S
O366 Co341 1.941 . S
O366 C373 1.266 . S
H367 C369 0.959 . S
H368 C369 0.961 . S
C369 C359 1.510 . S
C369 H367 0.959 . S
C369 H368 0.961 . S
C369 H370 0.960 . S
H370 C369 0.960 . S
H371 N351 0.862 . S
O372 Co340 1.920 . S
O372 C345 1.289 . S
C373 O365 1.258 . S
C373 O366 1.266 . S
Co374 O377 1.970 . S
Co374 N391 1.989 . S
Co374 O399 1.967 . S
Co374 O406 1.920 . S
Co375 O378 1.966 . S
Co375 N384 2.022 . S
Co375 N392 1.993 . S
Co375 O400 1.941 . S
C376 O377 1.258 . S
C376 O378 1.263 . S
O377 Co374 1.970 . S
O377 C376 1.258 . S
O378 Co375 1.966 . S
O378 C376 1.263 . S
C379 O380 1.235 . S
C379 O406 1.289 . S
O380 C379 1.235 . S
C381 C383 1.400 . S
C381 N384 1.351 . S
C381 C386 1.501 . S
C382 C383 1.387 . S
C382 N385 1.341 . S
C383 C381 1.400 . S
C383 C382 1.387 . S
N384 Co375 2.022 . S
N384 C381 1.351 . S
N384 N385 1.365 . S
N385 C382 1.341 . S
N385 N384 1.365 . S
N385 H405 0.862 . S
C386 C381 1.501 . S
C386 H387 0.961 . S
C386 H388 0.961 . S
C386 H389 0.960 . S
H387 C386 0.961 . S
H388 C386 0.961 . S
H389 C386 0.960 . S
C390 N391 1.342 . S
C390 C394 1.401 . S
C390 C395 1.499 . S
N391 Co374 1.989 . S
N391 C390 1.342 . S
N391 N392 1.388 . S
N392 Co375 1.993 . S
N392 N391 1.388 . S
N392 C393 1.346 . S
C393 N392 1.346 . S
C393 C394 1.396 . S
C393 C403 1.510 . S
C394 C390 1.401 . S
C394 C393 1.396 . S
C395 C390 1.499 . S
C395 H396 0.959 . S
C395 H397 0.960 . S
C395 H398 0.961 . S
H396 C395 0.959 . S
H397 C395 0.960 . S
H398 C395 0.961 . S
O399 Co374 1.967 . S
O399 C407 1.258 . S
O400 Co375 1.941 . S
O400 C407 1.266 . S
H401 C403 0.959 . S
H402 C403 0.961 . S
C403 C393 1.510 . S
C403 H401 0.959 . S
C403 H402 0.961 . S
C403 H404 0.960 . S
H404 C403 0.960 . S
H405 N385 0.862 . S
O406 Co374 1.920 . S
O406 C379 1.289 . S
C407 O399 1.258 . S
C407 O400 1.266 . S
Co408 O411 1.970 . S
Co408 N425 1.989 . S
Co408 O433 1.967 . S
Co408 O440 1.920 . S
Co409 O412 1.966 . S
Co409 N418 2.022 . S
Co409 N426 1.993 . S
Co409 O434 1.941 . S
C410 O411 1.258 . S
C410 O412 1.263 . S
O411 Co408 1.970 . S
O411 C410 1.258 . S
O412 Co409 1.966 . S
O412 C410 1.263 . S
C413 O414 1.235 . S
C413 O440 1.289 . S
O414 C413 1.235 . S
C415 C417 1.400 . S
C415 N418 1.351 . S
C415 C420 1.501 . S
C416 C417 1.387 . S
C416 N419 1.341 . S
C417 C415 1.400 . S
C417 C416 1.387 . S
N418 Co409 2.022 . S
N418 C415 1.351 . S
N418 N419 1.365 . S
N419 C416 1.341 . S
N419 N418 1.365 . S
N419 H439 0.862 . S
C420 C415 1.501 . S
C420 H421 0.961 . S
C420 H422 0.961 . S
C420 H423 0.960 . S
H421 C420 0.961 . S
H422 C420 0.961 . S
H423 C420 0.960 . S
C424 N425 1.342 . S
C424 C428 1.401 . S
C424 C429 1.499 . S
N425 Co408 1.989 . S
N425 C424 1.342 . S
N425 N426 1.388 . S
N426 Co409 1.993 . S
N426 N425 1.388 . S
N426 C427 1.346 . S
C427 N426 1.346 . S
C427 C428 1.396 . S
C427 C437 1.510 . S
C428 C424 1.401 . S
C428 C427 1.396 . S
C429 C424 1.499 . S
C429 H430 0.959 . S
C429 H431 0.960 . S
C429 H432 0.961 . S
H430 C429 0.959 . S
H431 C429 0.960 . S
H432 C429 0.961 . S
O433 Co408 1.967 . S
O433 C441 1.258 . S
O434 Co409 1.941 . S
O434 C441 1.266 . S
H435 C437 0.959 . S
H436 C437 0.961 . S
C437 C427 1.510 . S
C437 H435 0.959 . S
C437 H436 0.961 . S
C437 H438 0.960 . S
H438 C437 0.960 . S
H439 N419 0.862 . S
O440 Co408 1.920 . S
O440 C413 1.289 . S
C441 O433 1.258 . S
C441 O434 1.266 . S
Co442 O445 1.970 . S
Co442 N459 1.989 . S
Co442 O467 1.967 . S
Co442 O474 1.920 . S
Co443 O446 1.966 . S
Co443 N452 2.022 . S
Co443 N460 1.993 . S
Co443 O468 1.941 . S
C444 O445 1.258 . S
C444 O446 1.263 . S
O445 Co442 1.970 . S
O445 C444 1.258 . S
O446 Co443 1.966 . S
O446 C444 1.263 . S
C447 O448 1.235 . S
C447 O474 1.289 . S
O448 C447 1.235 . S
C449 C451 1.400 . S
C449 N452 1.351 . S
C449 C454 1.501 . S
C450 C451 1.387 . S
C450 N453 1.341 . S
C451 C449 1.400 . S
C451 C450 1.387 . S
N452 Co443 2.022 . S
N452 C449 1.351 . S
N452 N453 1.365 . S
N453 C450 1.341 . S
N453 N452 1.365 . S
N453 H473 0.862 . S
C454 C449 1.501 . S
C454 H455 0.961 . S
C454 H456 0.961 . S
C454 H457 0.960 . S
H455 C454 0.961 . S
H456 C454 0.961 . S
H457 C454 0.960 . S
C458 N459 1.342 . S
C458 C462 1.401 . S
C458 C463 1.499 . S
N459 Co442 1.989 . S
N459 C458 1.342 . S
N459 N460 1.388 . S
N460 Co443 1.993 . S
N460 N459 1.388 . S
N460 C461 1.346 . S
C461 N460 1.346 . S
C461 C462 1.396 . S
C461 C471 1.510 . S
C462 C458 1.401 . S
C462 C461 1.396 . S
C463 C458 1.499 . S
C463 H464 0.959 . S
C463 H465 0.960 . S
C463 H466 0.961 . S
H464 C463 0.959 . S
H465 C463 0.960 . S
H466 C463 0.961 . S
O467 Co442 1.967 . S
O467 C475 1.258 . S
O468 Co443 1.941 . S
O468 C475 1.266 . S
H469 C471 0.959 . S
H470 C471 0.961 . S
C471 C461 1.510 . S
C471 H469 0.959 . S
C471 H470 0.961 . S
C471 H472 0.960 . S
H472 C471 0.960 . S
H473 N453 0.862 . S
O474 Co442 1.920 . S
O474 C447 1.289 . S
C475 O467 1.258 . S
C475 O468 1.266 . S
Co476 O479 1.970 . S
Co476 N493 1.989 . S
Co476 O501 1.967 . S
Co476 O508 1.920 . S
Co477 O480 1.966 . S
Co477 N486 2.022 . S
Co477 N494 1.993 . S
Co477 O502 1.941 . S
C478 O479 1.258 . S
C478 O480 1.263 . S
O479 Co476 1.970 . S
O479 C478 1.258 . S
O480 Co477 1.966 . S
O480 C478 1.263 . S
C481 O482 1.235 . S
C481 O508 1.289 . S
O482 C481 1.235 . S
C483 C485 1.400 . S
C483 N486 1.351 . S
C483 C488 1.501 . S
C484 C485 1.387 . S
C484 N487 1.341 . S
C485 C483 1.400 . S
C485 C484 1.387 . S
N486 Co477 2.022 . S
N486 C483 1.351 . S
N486 N487 1.365 . S
N487 C484 1.341 . S
N487 N486 1.365 . S
N487 H507 0.862 . S
C488 C483 1.501 . S
C488 H489 0.961 . S
C488 H490 0.961 . S
C488 H491 0.960 . S
H489 C488 0.961 . S
H490 C488 0.961 . S
H491 C488 0.960 . S
C492 N493 1.342 . S
C492 C496 1.401 . S
C492 C497 1.499 . S
N493 Co476 1.989 . S
N493 C492 1.342 . S
N493 N494 1.388 . S
N494 Co477 1.993 . S
N494 N493 1.388 . S
N494 C495 1.346 . S
C495 N494 1.346 . S
C495 C496 1.396 . S
C495 C505 1.510 . S
C496 C492 1.401 . S
C496 C495 1.396 . S
C497 C492 1.499 . S
C497 H498 0.959 . S
C497 H499 0.960 . S
C497 H500 0.961 . S
H498 C497 0.959 . S
H499 C497 0.960 . S
H500 C497 0.961 . S
O501 Co476 1.967 . S
O501 C509 1.258 . S
O502 Co477 1.941 . S
O502 C509 1.266 . S
H503 C505 0.959 . S
H504 C505 0.961 . S
C505 C495 1.510 . S
C505 H503 0.959 . S
C505 H504 0.961 . S
C505 H506 0.960 . S
H506 C505 0.960 . S
H507 N487 0.862 . S
O508 Co476 1.920 . S
O508 C481 1.289 . S
C509 O501 1.258 . S
C509 O502 1.266 . S
Co510 O513 1.970 . S
Co510 N527 1.989 . S
Co510 O535 1.967 . S
Co510 O542 1.920 . S
Co511 O514 1.966 . S
Co511 N520 2.022 . S
Co511 N528 1.993 . S
Co511 O536 1.941 . S
C512 O513 1.258 . S
C512 O514 1.263 . S
O513 Co510 1.970 . S
O513 C512 1.258 . S
O514 Co511 1.966 . S
O514 C512 1.263 . S
C515 O516 1.235 . S
C515 O542 1.289 . S
O516 C515 1.235 . S
C517 C519 1.400 . S
C517 N520 1.351 . S
C517 C522 1.501 . S
C518 C519 1.387 . S
C518 N521 1.341 . S
C519 C517 1.400 . S
C519 C518 1.387 . S
N520 Co511 2.022 . S
N520 C517 1.351 . S
N520 N521 1.365 . S
N521 C518 1.341 . S
N521 N520 1.365 . S
N521 H541 0.862 . S
C522 C517 1.501 . S
C522 H523 0.961 . S
C522 H524 0.961 . S
C522 H525 0.960 . S
H523 C522 0.961 . S
H524 C522 0.961 . S
H525 C522 0.960 . S
C526 N527 1.342 . S
C526 C530 1.401 . S
C526 C531 1.499 . S
N527 Co510 1.989 . S
N527 C526 1.342 . S
N527 N528 1.388 . S
N528 Co511 1.993 . S
N528 N527 1.388 . S
N528 C529 1.346 . S
C529 N528 1.346 . S
C529 C530 1.396 . S
C529 C539 1.510 . S
C530 C526 1.401 . S
C530 C529 1.396 . S
C531 C526 1.499 . S
C531 H532 0.959 . S
C531 H533 0.960 . S
C531 H534 0.961 . S
H532 C531 0.959 . S
H533 C531 0.960 . S
H534 C531 0.961 . S
O535 Co510 1.967 . S
O535 C543 1.258 . S
O536 Co511 1.941 . S
O536 C543 1.266 . S
H537 C539 0.959 . S
H538 C539 0.961 . S
C539 C529 1.510 . S
C539 H537 0.959 . S
C539 H538 0.961 . S
C539 H540 0.960 . S
H540 C539 0.960 . S
H541 N521 0.862 . S
O542 Co510 1.920 . S
O542 C515 1.289 . S
C543 O535 1.258 . S
C543 O536 1.266 . S
Co544 O547 1.970 . S
Co544 N561 1.989 . S
Co544 O569 1.967 . S
Co544 O576 1.920 . S
Co545 O548 1.966 . S
Co545 N554 2.022 . S
Co545 N562 1.993 . S
Co545 O570 1.941 . S
C546 O547 1.258 . S
C546 O548 1.263 . S
O547 Co544 1.970 . S
O547 C546 1.258 . S
O548 Co545 1.966 . S
O548 C546 1.263 . S
C549 O550 1.235 . S
C549 O576 1.289 . S
O550 C549 1.235 . S
C551 C553 1.400 . S
C551 N554 1.351 . S
C551 C556 1.501 . S
C552 C553 1.387 . S
C552 N555 1.341 . S
C553 C551 1.400 . S
C553 C552 1.387 . S
N554 Co545 2.022 . S
N554 C551 1.351 . S
N554 N555 1.365 . S
N555 C552 1.341 . S
N555 N554 1.365 . S
N555 H575 0.862 . S
C556 C551 1.501 . S
C556 H557 0.961 . S
C556 H558 0.961 . S
C556 H559 0.960 . S
H557 C556 0.961 . S
H558 C556 0.961 . S
H559 C556 0.960 . S
C560 N561 1.342 . S
C560 C564 1.401 . S
C560 C565 1.499 . S
N561 Co544 1.989 . S
N561 C560 1.342 . S
N561 N562 1.388 . S
N562 Co545 1.993 . S
N562 N561 1.388 . S
N562 C563 1.346 . S
C563 N562 1.346 . S
C563 C564 1.396 . S
C563 C573 1.510 . S
C564 C560 1.401 . S
C564 C563 1.396 . S
C565 C560 1.499 . S
C565 H566 0.959 . S
C565 H567 0.960 . S
C565 H568 0.961 . S
H566 C565 0.959 . S
H567 C565 0.960 . S
H568 C565 0.961 . S
O569 Co544 1.967 . S
O569 C577 1.258 . S
O570 Co545 1.941 . S
O570 C577 1.266 . S
H571 C573 0.959 . S
H572 C573 0.961 . S
C573 C563 1.510 . S
C573 H571 0.959 . S
C573 H572 0.961 . S
C573 H574 0.960 . S
H574 C573 0.960 . S
H575 N555 0.862 . S
O576 Co544 1.920 . S
O576 C549 1.289 . S
C577 O569 1.258 . S
C577 O570 1.266 . S
Co578 O581 1.970 . S
Co578 N595 1.989 . S
Co578 O603 1.967 . S
Co578 O610 1.920 . S
Co579 O582 1.966 . S
Co579 N588 2.022 . S
Co579 N596 1.993 . S
Co579 O604 1.941 . S
C580 O581 1.258 . S
C580 O582 1.263 . S
O581 Co578 1.970 . S
O581 C580 1.258 . S
O582 Co579 1.966 . S
O582 C580 1.263 . S
C583 O584 1.235 . S
C583 O610 1.289 . S
O584 C583 1.235 . S
C585 C587 1.400 . S
C585 N588 1.351 . S
C585 C590 1.501 . S
C586 C587 1.387 . S
C586 N589 1.341 . S
C587 C585 1.400 . S
C587 C586 1.387 . S
N588 Co579 2.022 . S
N588 C585 1.351 . S
N588 N589 1.365 . S
N589 C586 1.341 . S
N589 N588 1.365 . S
N589 H609 0.862 . S
C590 C585 1.501 . S
C590 H591 0.961 . S
C590 H592 0.961 . S
C590 H593 0.960 . S
H591 C590 0.961 . S
H592 C590 0.961 . S
H593 C590 0.960 . S
C594 N595 1.342 . S
C594 C598 1.401 . S
C594 C599 1.499 . S
N595 Co578 1.989 . S
N595 C594 1.342 . S
N595 N596 1.388 . S
N596 Co579 1.993 . S
N596 N595 1.388 . S
N596 C597 1.346 . S
C597 N596 1.346 . S
C597 C598 1.396 . S
C597 C607 1.510 . S
C598 C594 1.401 . S
C598 C597 1.396 . S
C599 C594 1.499 . S
C599 H600 0.959 . S
C599 H601 0.960 . S
C599 H602 0.961 . S
H600 C599 0.959 . S
H601 C599 0.960 . S
H602 C599 0.961 . S
O603 Co578 1.967 . S
O603 C611 1.258 . S
O604 Co579 1.941 . S
O604 C611 1.266 . S
H605 C607 0.959 . S
H606 C607 0.961 . S
C607 C597 1.510 . S
C607 H605 0.959 . S
C607 H606 0.961 . S
C607 H608 0.960 . S
H608 C607 0.960 . S
H609 N589 0.862 . S
O610 Co578 1.920 . S
O610 C583 1.289 . S
C611 O603 1.258 . S
C611 O604 1.266 . S
Co612 O615 1.970 . S
Co612 N629 1.989 . S
Co612 O637 1.967 . S
Co612 O644 1.920 . S
Co613 O616 1.966 . S
Co613 N622 2.022 . S
Co613 N630 1.993 . S
Co613 O638 1.941 . S
C614 O615 1.258 . S
C614 O616 1.263 . S
O615 Co612 1.970 . S
O615 C614 1.258 . S
O616 Co613 1.966 . S
O616 C614 1.263 . S
C617 O618 1.235 . S
C617 O644 1.289 . S
O618 C617 1.235 . S
C619 C621 1.400 . S
C619 N622 1.351 1_556 S
C619 C624 1.501 . S
C620 C621 1.387 . S
C620 N623 1.341 1_556 S
C621 C619 1.400 . S
C621 C620 1.387 . S
N622 Co613 2.022 . S
N622 C619 1.351 1_554 S
N622 N623 1.365 . S
N623 C620 1.341 1_554 S
N623 N622 1.365 . S
N623 H643 0.862 . S
C624 C619 1.501 . S
C624 H625 0.961 1_556 S
C624 H626 0.961 . S
C624 H627 0.960 . S
H625 C624 0.961 1_554 S
H626 C624 0.961 . S
H627 C624 0.960 . S
C628 N629 1.342 . S
C628 C632 1.401 . S
C628 C633 1.499 . S
N629 Co612 1.989 . S
N629 C628 1.342 . S
N629 N630 1.388 . S
N630 Co613 1.993 . S
N630 N629 1.388 . S
N630 C631 1.346 . S
C631 N630 1.346 . S
C631 C632 1.396 . S
C631 C641 1.510 . S
C632 C628 1.401 . S
C632 C631 1.396 . S
C633 C628 1.499 . S
C633 H634 0.959 . S
C633 H635 0.960 . S
C633 H636 0.961 . S
H634 C633 0.959 . S
H635 C633 0.960 . S
H636 C633 0.961 . S
O637 Co612 1.967 . S
O637 C645 1.258 . S
O638 Co613 1.941 . S
O638 C645 1.266 . S
H639 C641 0.959 . S
H640 C641 0.961 1_556 S
C641 C631 1.510 . S
C641 H639 0.959 . S
C641 H640 0.961 1_554 S
C641 H642 0.960 . S
H642 C641 0.960 . S
H643 N623 0.862 . S
O644 Co612 1.920 . S
O644 C617 1.289 . S
C645 O637 1.258 . S
C645 O638 1.266 . S
Co646 O649 1.970 . S
Co646 N663 1.989 . S
Co646 O671 1.967 . S
Co646 O678 1.920 . S
Co647 O650 1.966 . S
Co647 N656 2.022 . S
Co647 N664 1.993 . S
Co647 O672 1.941 . S
C648 O649 1.258 . S
C648 O650 1.263 . S
O649 Co646 1.970 . S
O649 C648 1.258 . S
O650 Co647 1.966 . S
O650 C648 1.263 . S
C651 O652 1.235 . S
C651 O678 1.289 . S
O652 C651 1.235 . S
C653 C655 1.400 . S
C653 N656 1.351 1_556 S
C653 C658 1.501 . S
C654 C655 1.387 . S
C654 N657 1.341 1_556 S
C655 C653 1.400 . S
C655 C654 1.387 . S
N656 Co647 2.022 . S
N656 C653 1.351 1_554 S
N656 N657 1.365 . S
N657 C654 1.341 1_554 S
N657 N656 1.365 . S
N657 H677 0.862 . S
C658 C653 1.501 . S
C658 H659 0.961 1_556 S
C658 H660 0.961 . S
C658 H661 0.960 . S
H659 C658 0.961 1_554 S
H660 C658 0.961 . S
H661 C658 0.960 . S
C662 N663 1.342 . S
C662 C666 1.401 . S
C662 C667 1.499 . S
N663 Co646 1.989 . S
N663 C662 1.342 . S
N663 N664 1.388 . S
N664 Co647 1.993 . S
N664 N663 1.388 . S
N664 C665 1.346 . S
C665 N664 1.346 . S
C665 C666 1.396 . S
C665 C675 1.510 . S
C666 C662 1.401 . S
C666 C665 1.396 . S
C667 C662 1.499 . S
C667 H668 0.959 . S
C667 H669 0.960 . S
C667 H670 0.961 . S
H668 C667 0.959 . S
H669 C667 0.960 . S
H670 C667 0.961 . S
O671 Co646 1.967 . S
O671 C679 1.258 . S
O672 Co647 1.941 . S
O672 C679 1.266 . S
H673 C675 0.959 . S
H674 C675 0.961 1_556 S
C675 C665 1.510 . S
C675 H673 0.959 . S
C675 H674 0.961 1_554 S
C675 H676 0.960 . S
H676 C675 0.960 . S
H677 N657 0.862 . S
O678 Co646 1.920 . S
O678 C651 1.289 . S
C679 O671 1.258 . S
C679 O672 1.266 . S
Co680 O683 1.970 . S
Co680 N697 1.989 . S
Co680 O705 1.967 . S
Co680 O712 1.920 . S
Co681 O684 1.966 . S
Co681 N690 2.022 . S
Co681 N698 1.993 . S
Co681 O706 1.941 . S
C682 O683 1.258 . S
C682 O684 1.263 . S
O683 Co680 1.970 . S
O683 C682 1.258 . S
O684 Co681 1.966 . S
O684 C682 1.263 . S
C685 O686 1.235 . S
C685 O712 1.289 . S
O686 C685 1.235 . S
C687 C689 1.400 . S
C687 N690 1.351 1_556 S
C687 C692 1.501 . S
C688 C689 1.387 . S
C688 N691 1.341 1_556 S
C689 C687 1.400 . S
C689 C688 1.387 . S
N690 Co681 2.022 . S
N690 C687 1.351 1_554 S
N690 N691 1.365 . S
N691 C688 1.341 1_554 S
N691 N690 1.365 . S
N691 H711 0.862 . S
C692 C687 1.501 . S
C692 H693 0.961 1_556 S
C692 H694 0.961 . S
C692 H695 0.960 . S
H693 C692 0.961 1_554 S
H694 C692 0.961 . S
H695 C692 0.960 . S
C696 N697 1.342 . S
C696 C700 1.401 . S
C696 C701 1.499 . S
N697 Co680 1.989 . S
N697 C696 1.342 . S
N697 N698 1.388 . S
N698 Co681 1.993 . S
N698 N697 1.388 . S
N698 C699 1.346 . S
C699 N698 1.346 . S
C699 C700 1.396 . S
C699 C709 1.510 . S
C700 C696 1.401 . S
C700 C699 1.396 . S
C701 C696 1.499 . S
C701 H702 0.959 . S
C701 H703 0.960 . S
C701 H704 0.961 . S
H702 C701 0.959 . S
H703 C701 0.960 . S
H704 C701 0.961 . S
O705 Co680 1.967 . S
O705 C713 1.258 . S
O706 Co681 1.941 . S
O706 C713 1.266 . S
H707 C709 0.959 . S
H708 C709 0.961 1_556 S
C709 C699 1.510 . S
C709 H707 0.959 . S
C709 H708 0.961 1_554 S
C709 H710 0.960 . S
H710 C709 0.960 . S
H711 N691 0.862 . S
O712 Co680 1.920 . S
O712 C685 1.289 . S
C713 O705 1.258 . S
C713 O706 1.266 . S
Co714 O717 1.970 . S
Co714 N731 1.989 . S
Co714 O739 1.967 . S
Co714 O746 1.920 . S
Co715 O718 1.966 . S
Co715 N724 2.022 . S
Co715 N732 1.993 . S
Co715 O740 1.941 1_554 S
C716 O717 1.258 1_554 S
C716 O718 1.263 . S
O717 Co714 1.970 . S
O717 C716 1.258 1_556 S
O718 Co715 1.966 . S
O718 C716 1.263 . S
C719 O720 1.235 . S
C719 O746 1.289 . S
O720 C719 1.235 . S
C721 C723 1.400 . S
C721 N724 1.351 . S
C721 C726 1.501 . S
C722 C723 1.387 . S
C722 N725 1.341 . S
C723 C721 1.400 . S
C723 C722 1.387 . S
N724 Co715 2.022 . S
N724 C721 1.351 . S
N724 N725 1.365 . S
N725 C722 1.341 . S
N725 N724 1.365 . S
N725 H745 0.862 . S
C726 C721 1.501 . S
C726 H727 0.961 . S
C726 H728 0.961 . S
C726 H729 0.960 . S
H727 C726 0.961 . S
H728 C726 0.961 . S
H729 C726 0.960 . S
C730 N731 1.342 . S
C730 C734 1.401 1_556 S
C730 C735 1.499 . S
N731 Co714 1.989 . S
N731 C730 1.342 . S
N731 N732 1.388 1_556 S
N732 Co715 1.993 . S
N732 N731 1.388 1_554 S
N732 C733 1.346 . S
C733 N732 1.346 . S
C733 C734 1.396 . S
C733 C743 1.510 . S
C734 C730 1.401 1_554 S
C734 C733 1.396 . S
C735 C730 1.499 . S
C735 H736 0.959 . S
C735 H737 0.960 . S
C735 H738 0.961 . S
H736 C735 0.959 . S
H737 C735 0.960 . S
H738 C735 0.961 . S
O739 Co714 1.967 . S
O739 C747 1.258 . S
O740 Co715 1.941 1_556 S
O740 C747 1.266 . S
H741 C743 0.959 . S
H742 C743 0.961 . S
C743 C733 1.510 . S
C743 H741 0.959 . S
C743 H742 0.961 . S
C743 H744 0.960 . S
H744 C743 0.960 . S
H745 N725 0.862 . S
O746 Co714 1.920 . S
O746 C719 1.289 . S
C747 O739 1.258 . S
C747 O740 1.266 . S
Co748 O751 1.970 . S
Co748 N765 1.989 . S
Co748 O773 1.967 . S
Co748 O780 1.920 . S
Co749 O752 1.966 . S
Co749 N758 2.022 . S
Co749 N766 1.993 . S
Co749 O774 1.941 1_554 S
C750 O751 1.258 1_554 S
C750 O752 1.263 . S
O751 Co748 1.970 . S
O751 C750 1.258 1_556 S
O752 Co749 1.966 . S
O752 C750 1.263 . S
C753 O754 1.235 . S
C753 O780 1.289 . S
O754 C753 1.235 . S
C755 C757 1.400 . S
C755 N758 1.351 . S
C755 C760 1.501 . S
C756 C757 1.387 . S
C756 N759 1.341 . S
C757 C755 1.400 . S
C757 C756 1.387 . S
N758 Co749 2.022 . S
N758 C755 1.351 . S
N758 N759 1.365 . S
N759 C756 1.341 . S
N759 N758 1.365 . S
N759 H779 0.862 . S
C760 C755 1.501 . S
C760 H761 0.961 . S
C760 H762 0.961 . S
C760 H763 0.960 . S
H761 C760 0.961 . S
H762 C760 0.961 . S
H763 C760 0.960 . S
C764 N765 1.342 . S
C764 C768 1.401 1_556 S
C764 C769 1.499 . S
N765 Co748 1.989 . S
N765 C764 1.342 . S
N765 N766 1.388 1_556 S
N766 Co749 1.993 . S
N766 N765 1.388 1_554 S
N766 C767 1.346 . S
C767 N766 1.346 . S
C767 C768 1.396 . S
C767 C777 1.510 . S
C768 C764 1.401 1_554 S
C768 C767 1.396 . S
C769 C764 1.499 . S
C769 H770 0.959 . S
C769 H771 0.960 . S
C769 H772 0.961 . S
H770 C769 0.959 . S
H771 C769 0.960 . S
H772 C769 0.961 . S
O773 Co748 1.967 . S
O773 C781 1.258 . S
O774 Co749 1.941 1_556 S
O774 C781 1.266 . S
H775 C777 0.959 . S
H776 C777 0.961 . S
C777 C767 1.510 . S
C777 H775 0.959 . S
C777 H776 0.961 . S
C777 H778 0.960 . S
H778 C777 0.960 . S
H779 N759 0.862 . S
O780 Co748 1.920 . S
O780 C753 1.289 . S
C781 O773 1.258 . S
C781 O774 1.266 . S
Co782 O785 1.970 . S
Co782 N799 1.989 . S
Co782 O807 1.967 . S
Co782 O814 1.920 . S
Co783 O786 1.966 . S
Co783 N792 2.022 . S
Co783 N800 1.993 . S
Co783 O808 1.941 1_554 S
C784 O785 1.258 1_554 S
C784 O786 1.263 . S
O785 Co782 1.970 . S
O785 C784 1.258 1_556 S
O786 Co783 1.966 . S
O786 C784 1.263 . S
C787 O788 1.235 . S
C787 O814 1.289 . S
O788 C787 1.235 . S
C789 C791 1.400 . S
C789 N792 1.351 . S
C789 C794 1.501 . S
C790 C791 1.387 . S
C790 N793 1.341 . S
C791 C789 1.400 . S
C791 C790 1.387 . S
N792 Co783 2.022 . S
N792 C789 1.351 . S
N792 N793 1.365 . S
N793 C790 1.341 . S
N793 N792 1.365 . S
N793 H813 0.862 . S
C794 C789 1.501 . S
C794 H795 0.961 . S
C794 H796 0.961 . S
C794 H797 0.960 . S
H795 C794 0.961 . S
H796 C794 0.961 . S
H797 C794 0.960 . S
C798 N799 1.342 . S
C798 C802 1.401 1_556 S
C798 C803 1.499 . S
N799 Co782 1.989 . S
N799 C798 1.342 . S
N799 N800 1.388 1_556 S
N800 Co783 1.993 . S
N800 N799 1.388 1_554 S
N800 C801 1.346 . S
C801 N800 1.346 . S
C801 C802 1.396 . S
C801 C811 1.510 . S
C802 C798 1.401 1_554 S
C802 C801 1.396 . S
C803 C798 1.499 . S
C803 H804 0.959 . S
C803 H805 0.960 . S
C803 H806 0.961 . S
H804 C803 0.959 . S
H805 C803 0.960 . S
H806 C803 0.961 . S
O807 Co782 1.967 . S
O807 C815 1.258 . S
O808 Co783 1.941 1_556 S
O808 C815 1.266 . S
H809 C811 0.959 . S
H810 C811 0.961 . S
C811 C801 1.510 . S
C811 H809 0.959 . S
C811 H810 0.961 . S
C811 H812 0.960 . S
H812 C811 0.960 . S
H813 N793 0.862 . S
O814 Co782 1.920 . S
O814 C787 1.289 . S
C815 O807 1.258 . S
C815 O808 1.266 . S
Co816 O819 1.970 . S
Co816 N833 1.989 . S
Co816 O841 1.967 . S
Co816 O848 1.920 . S
Co817 O820 1.966 . S
Co817 N826 2.022 . S
Co817 N834 1.993 . S
Co817 O842 1.941 . S
C818 O819 1.258 . S
C818 O820 1.263 . S
O819 Co816 1.970 . S
O819 C818 1.258 . S
O820 Co817 1.966 . S
O820 C818 1.263 . S
C821 O822 1.235 . S
C821 O848 1.289 . S
O822 C821 1.235 . S
C823 C825 1.400 . S
C823 N826 1.351 1_554 S
C823 C828 1.501 . S
C824 C825 1.387 . S
C824 N827 1.341 1_554 S
C825 C823 1.400 . S
C825 C824 1.387 . S
N826 Co817 2.022 . S
N826 C823 1.351 1_556 S
N826 N827 1.365 . S
N827 C824 1.341 1_556 S
N827 N826 1.365 . S
N827 H847 0.862 . S
C828 C823 1.501 . S
C828 H829 0.961 1_554 S
C828 H830 0.961 . S
C828 H831 0.960 . S
H829 C828 0.961 1_556 S
H830 C828 0.961 . S
H831 C828 0.960 . S
C832 N833 1.342 . S
C832 C836 1.401 . S
C832 C837 1.499 . S
N833 Co816 1.989 . S
N833 C832 1.342 . S
N833 N834 1.388 . S
N834 Co817 1.993 . S
N834 N833 1.388 . S
N834 C835 1.346 . S
C835 N834 1.346 . S
C835 C836 1.396 . S
C835 C845 1.510 . S
C836 C832 1.401 . S
C836 C835 1.396 . S
C837 C832 1.499 . S
C837 H838 0.959 . S
C837 H839 0.960 . S
C837 H840 0.961 . S
H838 C837 0.959 . S
H839 C837 0.960 . S
H840 C837 0.961 . S
O841 Co816 1.967 . S
O841 C849 1.258 . S
O842 Co817 1.941 . S
O842 C849 1.266 . S
H843 C845 0.959 . S
H844 C845 0.961 1_554 S
C845 C835 1.510 . S
C845 H843 0.959 . S
C845 H844 0.961 1_556 S
C845 H846 0.960 . S
H846 C845 0.960 . S
H847 N827 0.862 . S
O848 Co816 1.920 . S
O848 C821 1.289 . S
C849 O841 1.258 . S
C849 O842 1.266 . S
Co850 O853 1.970 . S
Co850 N867 1.989 . S
Co850 O875 1.967 . S
Co850 O882 1.920 . S
Co851 O854 1.966 . S
Co851 N860 2.022 . S
Co851 N868 1.993 . S
Co851 O876 1.941 . S
C852 O853 1.258 . S
C852 O854 1.263 . S
O853 Co850 1.970 . S
O853 C852 1.258 . S
O854 Co851 1.966 . S
O854 C852 1.263 . S
C855 O856 1.235 . S
C855 O882 1.289 . S
O856 C855 1.235 . S
C857 C859 1.400 . S
C857 N860 1.351 1_554 S
C857 C862 1.501 . S
C858 C859 1.387 . S
C858 N861 1.341 1_554 S
C859 C857 1.400 . S
C859 C858 1.387 . S
N860 Co851 2.022 . S
N860 C857 1.351 1_556 S
N860 N861 1.365 . S
N861 C858 1.341 1_556 S
N861 N860 1.365 . S
N861 H881 0.862 . S
C862 C857 1.501 . S
C862 H863 0.961 1_554 S
C862 H864 0.961 . S
C862 H865 0.960 . S
H863 C862 0.961 1_556 S
H864 C862 0.961 . S
H865 C862 0.960 . S
C866 N867 1.342 . S
C866 C870 1.401 . S
C866 C871 1.499 . S
N867 Co850 1.989 . S
N867 C866 1.342 . S
N867 N868 1.388 . S
N868 Co851 1.993 . S
N868 N867 1.388 . S
N868 C869 1.346 . S
C869 N868 1.346 . S
C869 C870 1.396 . S
C869 C879 1.510 . S
C870 C866 1.401 . S
C870 C869 1.396 . S
C871 C866 1.499 . S
C871 H872 0.959 . S
C871 H873 0.960 . S
C871 H874 0.961 . S
H872 C871 0.959 . S
H873 C871 0.960 . S
H874 C871 0.961 . S
O875 Co850 1.967 . S
O875 C883 1.258 . S
O876 Co851 1.941 . S
O876 C883 1.266 . S
H877 C879 0.959 . S
H878 C879 0.961 1_554 S
C879 C869 1.510 . S
C879 H877 0.959 . S
C879 H878 0.961 1_556 S
C879 H880 0.960 . S
H880 C879 0.960 . S
H881 N861 0.862 . S
O882 Co850 1.920 . S
O882 C855 1.289 . S
C883 O875 1.258 . S
C883 O876 1.266 . S
Co884 O887 1.970 . S
Co884 N901 1.989 . S
Co884 O909 1.967 . S
Co884 O916 1.920 . S
Co885 O888 1.966 . S
Co885 N894 2.022 . S
Co885 N902 1.993 . S
Co885 O910 1.941 . S
C886 O887 1.258 . S
C886 O888 1.263 . S
O887 Co884 1.970 . S
O887 C886 1.258 . S
O888 Co885 1.966 . S
O888 C886 1.263 . S
C889 O890 1.235 . S
C889 O916 1.289 . S
O890 C889 1.235 . S
C891 C893 1.400 . S
C891 N894 1.351 1_554 S
C891 C896 1.501 . S
C892 C893 1.387 . S
C892 N895 1.341 1_554 S
C893 C891 1.400 . S
C893 C892 1.387 . S
N894 Co885 2.022 . S
N894 C891 1.351 1_556 S
N894 N895 1.365 . S
N895 C892 1.341 1_556 S
N895 N894 1.365 . S
N895 H915 0.862 . S
C896 C891 1.501 . S
C896 H897 0.961 1_554 S
C896 H898 0.961 . S
C896 H899 0.960 . S
H897 C896 0.961 1_556 S
H898 C896 0.961 . S
H899 C896 0.960 . S
C900 N901 1.342 . S
C900 C904 1.401 . S
C900 C905 1.499 . S
N901 Co884 1.989 . S
N901 C900 1.342 . S
N901 N902 1.388 . S
N902 Co885 1.993 . S
N902 N901 1.388 . S
N902 C903 1.346 . S
C903 N902 1.346 . S
C903 C904 1.396 . S
C903 C913 1.510 . S
C904 C900 1.401 . S
C904 C903 1.396 . S
C905 C900 1.499 . S
C905 H906 0.959 . S
C905 H907 0.960 . S
C905 H908 0.961 . S
H906 C905 0.959 . S
H907 C905 0.960 . S
H908 C905 0.961 . S
O909 Co884 1.967 . S
O909 C917 1.258 . S
O910 Co885 1.941 . S
O910 C917 1.266 . S
H911 C913 0.959 . S
H912 C913 0.961 1_554 S
C913 C903 1.510 . S
C913 H911 0.959 . S
C913 H912 0.961 1_556 S
C913 H914 0.960 . S
H914 C913 0.960 . S
H915 N895 0.862 . S
O916 Co884 1.920 . S
O916 C889 1.289 . S
C917 O909 1.258 . S
C917 O910 1.266 . S
Co918 O921 1.970 . S
Co918 N935 1.989 . S
Co918 O943 1.967 . S
Co918 O950 1.920 . S
Co919 O922 1.966 . S
Co919 N928 2.022 . S
Co919 N936 1.993 . S
Co919 O944 1.941 1_556 S
C920 O921 1.258 1_556 S
C920 O922 1.263 . S
O921 Co918 1.970 . S
O921 C920 1.258 1_554 S
O922 Co919 1.966 . S
O922 C920 1.263 . S
C923 O924 1.235 . S
C923 O950 1.289 . S
O924 C923 1.235 . S
C925 C927 1.400 . S
C925 N928 1.351 . S
C925 C930 1.501 . S
C926 C927 1.387 . S
C926 N929 1.341 . S
C927 C925 1.400 . S
C927 C926 1.387 . S
N928 Co919 2.022 . S
N928 C925 1.351 . S
N928 N929 1.365 . S
N929 C926 1.341 . S
N929 N928 1.365 . S
N929 H949 0.862 . S
C930 C925 1.501 . S
C930 H931 0.961 . S
C930 H932 0.961 . S
C930 H933 0.960 . S
H931 C930 0.961 . S
H932 C930 0.961 . S
H933 C930 0.960 . S
C934 N935 1.342 . S
C934 C938 1.401 1_554 S
C934 C939 1.499 . S
N935 Co918 1.989 . S
N935 C934 1.342 . S
N935 N936 1.388 1_554 S
N936 Co919 1.993 . S
N936 N935 1.388 1_556 S
N936 C937 1.346 . S
C937 N936 1.346 . S
C937 C938 1.396 . S
C937 C947 1.510 . S
C938 C934 1.401 1_556 S
C938 C937 1.396 . S
C939 C934 1.499 . S
C939 H940 0.959 . S
C939 H941 0.960 . S
C939 H942 0.961 . S
H940 C939 0.959 . S
H941 C939 0.960 . S
H942 C939 0.961 . S
O943 Co918 1.967 . S
O943 C951 1.258 . S
O944 Co919 1.941 1_554 S
O944 C951 1.266 . S
H945 C947 0.959 . S
H946 C947 0.961 . S
C947 C937 1.510 . S
C947 H945 0.959 . S
C947 H946 0.961 . S
C947 H948 0.960 . S
H948 C947 0.960 . S
H949 N929 0.862 . S
O950 Co918 1.920 . S
O950 C923 1.289 . S
C951 O943 1.258 . S
C951 O944 1.266 . S
Co952 O955 1.970 . S
Co952 N969 1.989 . S
Co952 O977 1.967 . S
Co952 O984 1.920 . S
Co953 O956 1.966 . S
Co953 N962 2.022 . S
Co953 N970 1.993 . S
Co953 O978 1.941 1_556 S
C954 O955 1.258 1_556 S
C954 O956 1.263 . S
O955 Co952 1.970 . S
O955 C954 1.258 1_554 S
O956 Co953 1.966 . S
O956 C954 1.263 . S
C957 O958 1.235 . S
C957 O984 1.289 . S
O958 C957 1.235 . S
C959 C961 1.400 . S
C959 N962 1.351 . S
C959 C964 1.501 . S
C960 C961 1.387 . S
C960 N963 1.341 . S
C961 C959 1.400 . S
C961 C960 1.387 . S
N962 Co953 2.022 . S
N962 C959 1.351 . S
N962 N963 1.365 . S
N963 C960 1.341 . S
N963 N962 1.365 . S
N963 H983 0.862 . S
C964 C959 1.501 . S
C964 H965 0.961 . S
C964 H966 0.961 . S
C964 H967 0.960 . S
H965 C964 0.961 . S
H966 C964 0.961 . S
H967 C964 0.960 . S
C968 N969 1.342 . S
C968 C972 1.401 1_554 S
C968 C973 1.499 . S
N969 Co952 1.989 . S
N969 C968 1.342 . S
N969 N970 1.388 1_554 S
N970 Co953 1.993 . S
N970 N969 1.388 1_556 S
N970 C971 1.346 . S
C971 N970 1.346 . S
C971 C972 1.396 . S
C971 C981 1.510 . S
C972 C968 1.401 1_556 S
C972 C971 1.396 . S
C973 C968 1.499 . S
C973 H974 0.959 . S
C973 H975 0.960 . S
C973 H976 0.961 . S
H974 C973 0.959 . S
H975 C973 0.960 . S
H976 C973 0.961 . S
O977 Co952 1.967 . S
O977 C985 1.258 . S
O978 Co953 1.941 1_554 S
O978 C985 1.266 . S
H979 C981 0.959 . S
H980 C981 0.961 . S
C981 C971 1.510 . S
C981 H979 0.959 . S
C981 H980 0.961 . S
C981 H982 0.960 . S
H982 C981 0.960 . S
H983 N963 0.862 . S
O984 Co952 1.920 . S
O984 C957 1.289 . S
C985 O977 1.258 . S
C985 O978 1.266 . S
Co986 O989 1.970 . S
Co986 N1003 1.989 . S
Co986 O1011 1.967 . S
Co986 O1018 1.920 . S
Co987 O990 1.966 . S
Co987 N996 2.022 . S
Co987 N1004 1.993 . S
Co987 O1012 1.941 1_556 S
C988 O989 1.258 1_556 S
C988 O990 1.263 . S
O989 Co986 1.970 . S
O989 C988 1.258 1_554 S
O990 Co987 1.966 . S
O990 C988 1.263 . S
C991 O992 1.235 . S
C991 O1018 1.289 . S
O992 C991 1.235 . S
C993 C995 1.400 . S
C993 N996 1.351 . S
C993 C998 1.501 . S
C994 C995 1.387 . S
C994 N997 1.341 . S
C995 C993 1.400 . S
C995 C994 1.387 . S
N996 Co987 2.022 . S
N996 C993 1.351 . S
N996 N997 1.365 . S
N997 C994 1.341 . S
N997 N996 1.365 . S
N997 H1017 0.862 . S
C998 C993 1.501 . S
C998 H999 0.961 . S
C998 H1000 0.961 . S
C998 H1001 0.960 . S
H999 C998 0.961 . S
H1000 C998 0.961 . S
H1001 C998 0.960 . S
C1002 N1003 1.342 . S
C1002 C1006 1.401 1_554 S
C1002 C1007 1.499 . S
N1003 Co986 1.989 . S
N1003 C1002 1.342 . S
N1003 N1004 1.388 1_554 S
N1004 Co987 1.993 . S
N1004 N1003 1.388 1_556 S
N1004 C1005 1.346 . S
C1005 N1004 1.346 . S
C1005 C1006 1.396 . S
C1005 C1015 1.510 . S
C1006 C1002 1.401 1_556 S
C1006 C1005 1.396 . S
C1007 C1002 1.499 . S
C1007 H1008 0.959 . S
C1007 H1009 0.960 . S
C1007 H1010 0.961 . S
H1008 C1007 0.959 . S
H1009 C1007 0.960 . S
H1010 C1007 0.961 . S
O1011 Co986 1.967 . S
O1011 C1019 1.258 . S
O1012 Co987 1.941 1_554 S
O1012 C1019 1.266 . S
H1013 C1015 0.959 . S
H1014 C1015 0.961 . S
C1015 C1005 1.510 . S
C1015 H1013 0.959 . S
C1015 H1014 0.961 . S
C1015 H1016 0.960 . S
H1016 C1015 0.960 . S
H1017 N997 0.862 . S
O1018 Co986 1.920 . S
O1018 C991 1.289 . S
C1019 O1011 1.258 . S
C1019 O1012 1.266 . S
Co1020 O1023 1.970 . S
Co1020 N1037 1.989 . S
Co1020 O1045 1.967 . S
Co1020 O1052 1.920 . S
Co1021 O1024 1.966 . S
Co1021 N1030 2.022 . S
Co1021 N1038 1.993 . S
Co1021 O1046 1.941 . S
C1022 O1023 1.258 . S
C1022 O1024 1.263 . S
O1023 Co1020 1.970 . S
O1023 C1022 1.258 . S
O1024 Co1021 1.966 . S
O1024 C1022 1.263 . S
C1025 O1026 1.235 . S
C1025 O1052 1.289 . S
O1026 C1025 1.235 . S
C1027 C1029 1.400 . S
C1027 N1030 1.351 . S
C1027 C1032 1.501 . S
C1028 C1029 1.387 . S
C1028 N1031 1.341 . S
C1029 C1027 1.400 . S
C1029 C1028 1.387 . S
N1030 Co1021 2.022 . S
N1030 C1027 1.351 . S
N1030 N1031 1.365 . S
N1031 C1028 1.341 . S
N1031 N1030 1.365 . S
N1031 H1051 0.862 . S
C1032 C1027 1.501 . S
C1032 H1033 0.961 . S
C1032 H1034 0.961 . S
C1032 H1035 0.960 . S
H1033 C1032 0.961 . S
H1034 C1032 0.961 . S
H1035 C1032 0.960 . S
C1036 N1037 1.342 . S
C1036 C1040 1.401 . S
C1036 C1041 1.499 . S
N1037 Co1020 1.989 . S
N1037 C1036 1.342 . S
N1037 N1038 1.388 . S
N1038 Co1021 1.993 . S
N1038 N1037 1.388 . S
N1038 C1039 1.346 . S
C1039 N1038 1.346 . S
C1039 C1040 1.396 . S
C1039 C1049 1.510 . S
C1040 C1036 1.401 . S
C1040 C1039 1.396 . S
C1041 C1036 1.499 . S
C1041 H1042 0.959 . S
C1041 H1043 0.960 . S
C1041 H1044 0.961 . S
H1042 C1041 0.959 . S
H1043 C1041 0.960 . S
H1044 C1041 0.961 . S
O1045 Co1020 1.967 . S
O1045 C1053 1.258 . S
O1046 Co1021 1.941 . S
O1046 C1053 1.266 . S
H1047 C1049 0.959 . S
H1048 C1049 0.961 . S
C1049 C1039 1.510 . S
C1049 H1047 0.959 . S
C1049 H1048 0.961 . S
C1049 H1050 0.960 . S
H1050 C1049 0.960 . S
H1051 N1031 0.862 . S
O1052 Co1020 1.920 . S
O1052 C1025 1.289 . S
C1053 O1045 1.258 . S
C1053 O1046 1.266 . S
Co1054 O1057 1.970 . S
Co1054 N1071 1.989 . S
Co1054 O1079 1.967 . S
Co1054 O1086 1.920 . S
Co1055 O1058 1.966 . S
Co1055 N1064 2.022 . S
Co1055 N1072 1.993 . S
Co1055 O1080 1.941 . S
C1056 O1057 1.258 . S
C1056 O1058 1.263 . S
O1057 Co1054 1.970 . S
O1057 C1056 1.258 . S
O1058 Co1055 1.966 . S
O1058 C1056 1.263 . S
C1059 O1060 1.235 . S
C1059 O1086 1.289 . S
O1060 C1059 1.235 . S
C1061 C1063 1.400 . S
C1061 N1064 1.351 . S
C1061 C1066 1.501 . S
C1062 C1063 1.387 . S
C1062 N1065 1.341 . S
C1063 C1061 1.400 . S
C1063 C1062 1.387 . S
N1064 Co1055 2.022 . S
N1064 C1061 1.351 . S
N1064 N1065 1.365 . S
N1065 C1062 1.341 . S
N1065 N1064 1.365 . S
N1065 H1085 0.862 . S
C1066 C1061 1.501 . S
C1066 H1067 0.961 . S
C1066 H1068 0.961 . S
C1066 H1069 0.960 . S
H1067 C1066 0.961 . S
H1068 C1066 0.961 . S
H1069 C1066 0.960 . S
C1070 N1071 1.342 . S
C1070 C1074 1.401 . S
C1070 C1075 1.499 . S
N1071 Co1054 1.989 . S
N1071 C1070 1.342 . S
N1071 N1072 1.388 . S
N1072 Co1055 1.993 . S
N1072 N1071 1.388 . S
N1072 C1073 1.346 . S
C1073 N1072 1.346 . S
C1073 C1074 1.396 . S
C1073 C1083 1.510 . S
C1074 C1070 1.401 . S
C1074 C1073 1.396 . S
C1075 C1070 1.499 . S
C1075 H1076 0.959 . S
C1075 H1077 0.960 . S
C1075 H1078 0.961 . S
H1076 C1075 0.959 . S
H1077 C1075 0.960 . S
H1078 C1075 0.961 . S
O1079 Co1054 1.967 . S
O1079 C1087 1.258 . S
O1080 Co1055 1.941 . S
O1080 C1087 1.266 . S
H1081 C1083 0.959 . S
H1082 C1083 0.961 . S
C1083 C1073 1.510 . S
C1083 H1081 0.959 . S
C1083 H1082 0.961 . S
C1083 H1084 0.960 . S
H1084 C1083 0.960 . S
H1085 N1065 0.862 . S
O1086 Co1054 1.920 . S
O1086 C1059 1.289 . S
C1087 O1079 1.258 . S
C1087 O1080 1.266 . S
Co1088 O1091 1.970 . S
Co1088 N1105 1.989 . S
Co1088 O1113 1.967 . S
Co1088 O1120 1.920 . S
Co1089 O1092 1.966 . S
Co1089 N1098 2.022 . S
Co1089 N1106 1.993 . S
Co1089 O1114 1.941 . S
C1090 O1091 1.258 . S
C1090 O1092 1.263 . S
O1091 Co1088 1.970 . S
O1091 C1090 1.258 . S
O1092 Co1089 1.966 . S
O1092 C1090 1.263 . S
C1093 O1094 1.235 . S
C1093 O1120 1.289 . S
O1094 C1093 1.235 . S
C1095 C1097 1.400 . S
C1095 N1098 1.351 . S
C1095 C1100 1.501 . S
C1096 C1097 1.387 . S
C1096 N1099 1.341 . S
C1097 C1095 1.400 . S
C1097 C1096 1.387 . S
N1098 Co1089 2.022 . S
N1098 C1095 1.351 . S
N1098 N1099 1.365 . S
N1099 C1096 1.341 . S
N1099 N1098 1.365 . S
N1099 H1119 0.862 . S
C1100 C1095 1.501 . S
C1100 H1101 0.961 . S
C1100 H1102 0.961 . S
C1100 H1103 0.960 . S
H1101 C1100 0.961 . S
H1102 C1100 0.961 . S
H1103 C1100 0.960 . S
C1104 N1105 1.342 . S
C1104 C1108 1.401 . S
C1104 C1109 1.499 . S
N1105 Co1088 1.989 . S
N1105 C1104 1.342 . S
N1105 N1106 1.388 . S
N1106 Co1089 1.993 . S
N1106 N1105 1.388 . S
N1106 C1107 1.346 . S
C1107 N1106 1.346 . S
C1107 C1108 1.396 . S
C1107 C1117 1.510 . S
C1108 C1104 1.401 . S
C1108 C1107 1.396 . S
C1109 C1104 1.499 . S
C1109 H1110 0.959 . S
C1109 H1111 0.960 . S
C1109 H1112 0.961 . S
H1110 C1109 0.959 . S
H1111 C1109 0.960 . S
H1112 C1109 0.961 . S
O1113 Co1088 1.967 . S
O1113 C1121 1.258 . S
O1114 Co1089 1.941 . S
O1114 C1121 1.266 . S
H1115 C1117 0.959 . S
H1116 C1117 0.961 . S
C1117 C1107 1.510 . S
C1117 H1115 0.959 . S
C1117 H1116 0.961 . S
C1117 H1118 0.960 . S
H1118 C1117 0.960 . S
H1119 N1099 0.862 . S
O1120 Co1088 1.920 . S
O1120 C1093 1.289 . S
C1121 O1113 1.258 . S
C1121 O1114 1.266 . S
Co1122 O1125 1.970 . S
Co1122 N1139 1.989 . S
Co1122 O1147 1.967 . S
Co1122 O1154 1.920 . S
Co1123 O1126 1.966 . S
Co1123 N1132 2.022 . S
Co1123 N1140 1.993 . S
Co1123 O1148 1.941 . S
C1124 O1125 1.258 . S
C1124 O1126 1.263 . S
O1125 Co1122 1.970 . S
O1125 C1124 1.258 . S
O1126 Co1123 1.966 . S
O1126 C1124 1.263 . S
C1127 O1128 1.235 . S
C1127 O1154 1.289 . S
O1128 C1127 1.235 . S
C1129 C1131 1.400 . S
C1129 N1132 1.351 . S
C1129 C1134 1.501 . S
C1130 C1131 1.387 . S
C1130 N1133 1.341 . S
C1131 C1129 1.400 . S
C1131 C1130 1.387 . S
N1132 Co1123 2.022 . S
N1132 C1129 1.351 . S
N1132 N1133 1.365 . S
N1133 C1130 1.341 . S
N1133 N1132 1.365 . S
N1133 H1153 0.862 . S
C1134 C1129 1.501 . S
C1134 H1135 0.961 . S
C1134 H1136 0.961 . S
C1134 H1137 0.960 . S
H1135 C1134 0.961 . S
H1136 C1134 0.961 . S
H1137 C1134 0.960 . S
C1138 N1139 1.342 . S
C1138 C1142 1.401 . S
C1138 C1143 1.499 . S
N1139 Co1122 1.989 . S
N1139 C1138 1.342 . S
N1139 N1140 1.388 . S
N1140 Co1123 1.993 . S
N1140 N1139 1.388 . S
N1140 C1141 1.346 . S
C1141 N1140 1.346 . S
C1141 C1142 1.396 . S
C1141 C1151 1.510 . S
C1142 C1138 1.401 . S
C1142 C1141 1.396 . S
C1143 C1138 1.499 . S
C1143 H1144 0.959 . S
C1143 H1145 0.960 . S
C1143 H1146 0.961 . S
H1144 C1143 0.959 . S
H1145 C1143 0.960 . S
H1146 C1143 0.961 . S
O1147 Co1122 1.967 . S
O1147 C1155 1.258 . S
O1148 Co1123 1.941 . S
O1148 C1155 1.266 . S
H1149 C1151 0.959 . S
H1150 C1151 0.961 . S
C1151 C1141 1.510 . S
C1151 H1149 0.959 . S
C1151 H1150 0.961 . S
C1151 H1152 0.960 . S
H1152 C1151 0.960 . S
H1153 N1133 0.862 . S
O1154 Co1122 1.920 . S
O1154 C1127 1.289 . S
C1155 O1147 1.258 . S
C1155 O1148 1.266 . S
Co1156 O1159 1.970 . S
Co1156 N1173 1.989 . S
Co1156 O1181 1.967 . S
Co1156 O1188 1.920 . S
Co1157 O1160 1.966 . S
Co1157 N1166 2.022 . S
Co1157 N1174 1.993 . S
Co1157 O1182 1.941 . S
C1158 O1159 1.258 . S
C1158 O1160 1.263 . S
O1159 Co1156 1.970 . S
O1159 C1158 1.258 . S
O1160 Co1157 1.966 . S
O1160 C1158 1.263 . S
C1161 O1162 1.235 . S
C1161 O1188 1.289 . S
O1162 C1161 1.235 . S
C1163 C1165 1.400 . S
C1163 N1166 1.351 . S
C1163 C1168 1.501 . S
C1164 C1165 1.387 . S
C1164 N1167 1.341 . S
C1165 C1163 1.400 . S
C1165 C1164 1.387 . S
N1166 Co1157 2.022 . S
N1166 C1163 1.351 . S
N1166 N1167 1.365 . S
N1167 C1164 1.341 . S
N1167 N1166 1.365 . S
N1167 H1187 0.862 . S
C1168 C1163 1.501 . S
C1168 H1169 0.961 . S
C1168 H1170 0.961 . S
C1168 H1171 0.960 . S
H1169 C1168 0.961 . S
H1170 C1168 0.961 . S
H1171 C1168 0.960 . S
C1172 N1173 1.342 . S
C1172 C1176 1.401 . S
C1172 C1177 1.499 . S
N1173 Co1156 1.989 . S
N1173 C1172 1.342 . S
N1173 N1174 1.388 . S
N1174 Co1157 1.993 . S
N1174 N1173 1.388 . S
N1174 C1175 1.346 . S
C1175 N1174 1.346 . S
C1175 C1176 1.396 . S
C1175 C1185 1.510 . S
C1176 C1172 1.401 . S
C1176 C1175 1.396 . S
C1177 C1172 1.499 . S
C1177 H1178 0.959 . S
C1177 H1179 0.960 . S
C1177 H1180 0.961 . S
H1178 C1177 0.959 . S
H1179 C1177 0.960 . S
H1180 C1177 0.961 . S
O1181 Co1156 1.967 . S
O1181 C1189 1.258 . S
O1182 Co1157 1.941 . S
O1182 C1189 1.266 . S
H1183 C1185 0.959 . S
H1184 C1185 0.961 . S
C1185 C1175 1.510 . S
C1185 H1183 0.959 . S
C1185 H1184 0.961 . S
C1185 H1186 0.960 . S
H1186 C1185 0.960 . S
H1187 N1167 0.862 . S
O1188 Co1156 1.920 . S
O1188 C1161 1.289 . S
C1189 O1181 1.258 . S
C1189 O1182 1.266 . S
Co1190 O1193 1.970 . S
Co1190 N1207 1.989 . S
Co1190 O1215 1.967 . S
Co1190 O1222 1.920 . S
Co1191 O1194 1.966 . S
Co1191 N1200 2.022 . S
Co1191 N1208 1.993 . S
Co1191 O1216 1.941 . S
C1192 O1193 1.258 . S
C1192 O1194 1.263 . S
O1193 Co1190 1.970 . S
O1193 C1192 1.258 . S
O1194 Co1191 1.966 . S
O1194 C1192 1.263 . S
C1195 O1196 1.235 . S
C1195 O1222 1.289 . S
O1196 C1195 1.235 . S
C1197 C1199 1.400 . S
C1197 N1200 1.351 . S
C1197 C1202 1.501 . S
C1198 C1199 1.387 . S
C1198 N1201 1.341 . S
C1199 C1197 1.400 . S
C1199 C1198 1.387 . S
N1200 Co1191 2.022 . S
N1200 C1197 1.351 . S
N1200 N1201 1.365 . S
N1201 C1198 1.341 . S
N1201 N1200 1.365 . S
N1201 H1221 0.862 . S
C1202 C1197 1.501 . S
C1202 H1203 0.961 . S
C1202 H1204 0.961 . S
C1202 H1205 0.960 . S
H1203 C1202 0.961 . S
H1204 C1202 0.961 . S
H1205 C1202 0.960 . S
C1206 N1207 1.342 . S
C1206 C1210 1.401 . S
C1206 C1211 1.499 . S
N1207 Co1190 1.989 . S
N1207 C1206 1.342 . S
N1207 N1208 1.388 . S
N1208 Co1191 1.993 . S
N1208 N1207 1.388 . S
N1208 C1209 1.346 . S
C1209 N1208 1.346 . S
C1209 C1210 1.396 . S
C1209 C1219 1.510 . S
C1210 C1206 1.401 . S
C1210 C1209 1.396 . S
C1211 C1206 1.499 . S
C1211 H1212 0.959 . S
C1211 H1213 0.960 . S
C1211 H1214 0.961 . S
H1212 C1211 0.959 . S
H1213 C1211 0.960 . S
H1214 C1211 0.961 . S
O1215 Co1190 1.967 . S
O1215 C1223 1.258 . S
O1216 Co1191 1.941 . S
O1216 C1223 1.266 . S
H1217 C1219 0.959 . S
H1218 C1219 0.961 . S
C1219 C1209 1.510 . S
C1219 H1217 0.959 . S
C1219 H1218 0.961 . S
C1219 H1220 0.960 . S
H1220 C1219 0.960 . S
H1221 N1201 0.862 . S
O1222 Co1190 1.920 . S
O1222 C1195 1.289 . S
C1223 O1215 1.258 . S
C1223 O1216 1.266 . S
C1224 C1225 1.387 . S
C1224 H1228 0.950 . S
C1224 C1233 1.390 . S
C1225 C1224 1.387 . S
C1225 C1227 1.387 . S
H1226 C1233 0.950 . S
C1227 C1225 1.387 . S
C1227 C1229 1.390 . S
C1227 H1231 0.950 . S
H1228 C1224 0.950 . S
C1229 C1227 1.390 . S
C1229 C1230 1.387 . S
C1229 H1232 0.950 . S
C1230 C1229 1.387 . S
C1230 C1233 1.387 . S
H1231 C1227 0.950 . S
H1232 C1229 0.950 . S
C1233 C1224 1.390 . S
C1233 H1226 0.950 . S
C1233 C1230 1.387 . S
C1234 C1235 1.387 . S
C1234 H1238 0.950 . S
C1234 C1243 1.390 . S
C1235 C1234 1.387 . S
C1235 C1237 1.387 . S
H1236 C1243 0.950 . S
C1237 C1235 1.387 . S
C1237 C1239 1.390 . S
C1237 H1241 0.950 . S
H1238 C1234 0.950 . S
C1239 C1237 1.390 . S
C1239 C1240 1.387 . S
C1239 H1242 0.950 . S
C1240 C1239 1.387 . S
C1240 C1243 1.387 . S
H1241 C1237 0.950 . S
H1242 C1239 0.950 . S
C1243 C1234 1.390 . S
C1243 H1236 0.950 . S
C1243 C1240 1.387 . S
C1244 C1245 1.387 . S
C1244 H1248 0.950 . S
C1244 C1253 1.390 . S
C1245 C1244 1.387 . S
C1245 C1247 1.387 . S
H1246 C1253 0.950 . S
C1247 C1245 1.387 . S
C1247 C1249 1.390 . S
C1247 H1251 0.950 . S
H1248 C1244 0.950 . S
C1249 C1247 1.390 . S
C1249 C1250 1.387 . S
C1249 H1252 0.950 . S
C1250 C1249 1.387 . S
C1250 C1253 1.387 . S
H1251 C1247 0.950 . S
H1252 C1249 0.950 . S
C1253 C1244 1.390 . S
C1253 H1246 0.950 . S
C1253 C1250 1.387 . S
C1254 C1255 1.387 . S
C1254 H1258 0.950 . S
C1254 C1263 1.390 . S
C1255 C1254 1.387 . S
C1255 C1257 1.387 . S
H1256 C1263 0.950 . S
C1257 C1255 1.387 . S
C1257 C1259 1.390 . S
C1257 H1261 0.950 . S
H1258 C1254 0.950 . S
C1259 C1257 1.390 . S
C1259 C1260 1.387 . S
C1259 H1262 0.950 . S
C1260 C1259 1.387 . S
C1260 C1263 1.387 . S
H1261 C1257 0.950 . S
H1262 C1259 0.950 . S
C1263 C1254 1.390 . S
C1263 H1256 0.950 . S
C1263 C1260 1.387 . S
C1264 C1265 1.387 . S
C1264 H1268 0.950 . S
C1264 C1273 1.390 . S
C1265 C1264 1.387 . S
C1265 C1267 1.387 . S
H1266 C1273 0.950 . S
C1267 C1265 1.387 . S
C1267 C1269 1.390 . S
C1267 H1271 0.950 . S
H1268 C1264 0.950 . S
C1269 C1267 1.390 . S
C1269 C1270 1.387 . S
C1269 H1272 0.950 . S
C1270 C1269 1.387 . S
C1270 C1273 1.387 . S
H1271 C1267 0.950 . S
H1272 C1269 0.950 . S
C1273 C1264 1.390 . S
C1273 H1266 0.950 . S
C1273 C1270 1.387 . S
C1274 C1275 1.387 . S
C1274 H1278 0.950 . S
C1274 C1283 1.390 . S
C1275 C1274 1.387 . S
C1275 C1277 1.387 . S
H1276 C1283 0.950 . S
C1277 C1275 1.387 . S
C1277 C1279 1.390 . S
C1277 H1281 0.950 . S
H1278 C1274 0.950 . S
C1279 C1277 1.390 . S
C1279 C1280 1.387 . S
C1279 H1282 0.950 . S
C1280 C1279 1.387 . S
C1280 C1283 1.387 . S
H1281 C1277 0.950 . S
H1282 C1279 0.950 . S
C1283 C1274 1.390 . S
C1283 H1276 0.950 . S
C1283 C1280 1.387 . S
C1284 C1285 1.387 . S
C1284 H1288 0.950 . S
C1284 C1293 1.390 . S
C1285 C1284 1.387 . S
C1285 C1287 1.387 . S
H1286 C1293 0.950 . S
C1287 C1285 1.387 . S
C1287 C1289 1.390 . S
C1287 H1291 0.950 . S
H1288 C1284 0.950 . S
C1289 C1287 1.390 . S
C1289 C1290 1.387 . S
C1289 H1292 0.950 . S
C1290 C1289 1.387 . S
C1290 C1293 1.387 . S
H1291 C1287 0.950 . S
H1292 C1289 0.950 . S
C1293 C1284 1.390 . S
C1293 H1286 0.950 . S
C1293 C1290 1.387 . S
C1294 C1295 1.387 . S
C1294 H1298 0.950 . S
C1294 C1303 1.390 . S
C1295 C1294 1.387 . S
C1295 C1297 1.387 . S
H1296 C1303 0.950 . S
C1297 C1295 1.387 . S
C1297 C1299 1.390 . S
C1297 H1301 0.950 . S
H1298 C1294 0.950 . S
C1299 C1297 1.390 . S
C1299 C1300 1.387 . S
C1299 H1302 0.950 . S
C1300 C1299 1.387 . S
C1300 C1303 1.387 . S
H1301 C1297 0.950 . S
H1302 C1299 0.950 . S
C1303 C1294 1.390 . S
C1303 H1296 0.950 . S
C1303 C1300 1.387 . S
C1304 C1305 1.387 . S
C1304 H1308 0.950 . S
C1304 C1313 1.390 . S
C1305 C1304 1.387 . S
C1305 C1307 1.387 . S
H1306 C1313 0.950 . S
C1307 C1305 1.387 . S
C1307 C1309 1.390 . S
C1307 H1311 0.950 . S
H1308 C1304 0.950 . S
C1309 C1307 1.390 . S
C1309 C1310 1.387 . S
C1309 H1312 0.950 . S
C1310 C1309 1.387 . S
C1310 C1313 1.387 . S
H1311 C1307 0.950 . S
H1312 C1309 0.950 . S
C1313 C1304 1.390 . S
C1313 H1306 0.950 . S
C1313 C1310 1.387 . S
C1314 C1315 1.387 . S
C1314 H1318 0.950 . S
C1314 C1323 1.390 . S
C1315 C1314 1.387 . S
C1315 C1317 1.387 . S
H1316 C1323 0.950 . S
C1317 C1315 1.387 . S
C1317 C1319 1.390 . S
C1317 H1321 0.950 . S
H1318 C1314 0.950 . S
C1319 C1317 1.390 . S
C1319 C1320 1.387 . S
C1319 H1322 0.950 . S
C1320 C1319 1.387 . S
C1320 C1323 1.387 . S
H1321 C1317 0.950 . S
H1322 C1319 0.950 . S
C1323 C1314 1.390 . S
C1323 H1316 0.950 . S
C1323 C1320 1.387 . S
C1324 C1325 1.387 . S
C1324 H1328 0.950 . S
C1324 C1333 1.390 . S
C1325 C1324 1.387 . S
C1325 C1327 1.387 . S
H1326 C1333 0.950 . S
C1327 C1325 1.387 . S
C1327 C1329 1.390 . S
C1327 H1331 0.950 . S
H1328 C1324 0.950 . S
C1329 C1327 1.390 . S
C1329 C1330 1.387 . S
C1329 H1332 0.950 . S
C1330 C1329 1.387 . S
C1330 C1333 1.387 . S
H1331 C1327 0.950 . S
H1332 C1329 0.950 . S
C1333 C1324 1.390 . S
C1333 H1326 0.950 . S
C1333 C1330 1.387 . S
C1334 C1335 1.387 . S
C1334 H1338 0.950 . S
C1334 C1343 1.390 . S
C1335 C1334 1.387 . S
C1335 C1337 1.387 . S
H1336 C1343 0.950 . S
C1337 C1335 1.387 . S
C1337 C1339 1.390 . S
C1337 H1341 0.950 . S
H1338 C1334 0.950 . S
C1339 C1337 1.390 . S
C1339 C1340 1.387 . S
C1339 H1342 0.950 . S
C1340 C1339 1.387 . S
C1340 C1343 1.387 . S
H1341 C1337 0.950 . S
H1342 C1339 0.950 . S
C1343 C1334 1.390 . S
C1343 H1336 0.950 . S
C1343 C1340 1.387 . S
C1344 C1345 1.387 1_655 S
C1344 H1348 0.950 . S
C1344 C1353 1.390 . S
C1345 C1344 1.387 1_455 S
C1345 C1347 1.387 . S
H1346 C1353 0.950 . S
C1347 C1345 1.387 . S
C1347 C1349 1.390 . S
C1347 H1351 0.950 . S
H1348 C1344 0.950 . S
C1349 C1347 1.390 . S
C1349 C1350 1.387 1_455 S
C1349 H1352 0.950 . S
C1350 C1349 1.387 1_655 S
C1350 C1353 1.387 . S
H1351 C1347 0.950 . S
H1352 C1349 0.950 . S
C1353 C1344 1.390 . S
C1353 H1346 0.950 . S
C1353 C1350 1.387 . S
C1354 C1355 1.387 . S
C1354 H1358 0.950 . S
C1354 C1363 1.390 . S
C1355 C1354 1.387 . S
C1355 C1357 1.387 . S
H1356 C1363 0.950 . S
C1357 C1355 1.387 . S
C1357 C1359 1.390 . S
C1357 H1361 0.950 . S
H1358 C1354 0.950 . S
C1359 C1357 1.390 . S
C1359 C1360 1.387 . S
C1359 H1362 0.950 . S
C1360 C1359 1.387 . S
C1360 C1363 1.387 . S
H1361 C1357 0.950 . S
H1362 C1359 0.950 . S
C1363 C1354 1.390 . S
C1363 H1356 0.950 . S
C1363 C1360 1.387 . S
C1364 C1365 1.387 . S
C1364 H1368 0.950 . S
C1364 C1373 1.390 1_545 S
C1365 C1364 1.387 . S
C1365 C1367 1.387 . S
H1366 C1373 0.950 . S
C1367 C1365 1.387 . S
C1367 C1369 1.390 1_545 S
C1367 H1371 0.950 . S
H1368 C1364 0.950 . S
C1369 C1367 1.390 1_565 S
C1369 C1370 1.387 . S
C1369 H1372 0.950 . S
C1370 C1369 1.387 . S
C1370 C1373 1.387 . S
H1371 C1367 0.950 . S
H1372 C1369 0.950 . S
C1373 C1364 1.390 1_565 S
C1373 H1366 0.950 . S
C1373 C1370 1.387 . S
C1374 C1375 1.387 . S
C1374 H1378 0.950 . S
C1374 C1383 1.390 1_565 S
C1375 C1374 1.387 . S
C1375 C1377 1.387 . S
H1376 C1383 0.950 . S
C1377 C1375 1.387 . S
C1377 C1379 1.390 1_565 S
C1377 H1381 0.950 . S
H1378 C1374 0.950 . S
C1379 C1377 1.390 1_545 S
C1379 C1380 1.387 . S
C1379 H1382 0.950 . S
C1380 C1379 1.387 . S
C1380 C1383 1.387 . S
H1381 C1377 0.950 . S
H1382 C1379 0.950 . S
C1383 C1374 1.390 1_545 S
C1383 H1376 0.950 . S
C1383 C1380 1.387 . S
C1384 C1385 1.387 . S
C1384 H1388 0.950 . S
C1384 C1393 1.390 . S
C1385 C1384 1.387 . S
C1385 C1387 1.387 1_655 S
H1386 C1393 0.950 . S
C1387 C1385 1.387 1_455 S
C1387 C1389 1.390 . S
C1387 H1391 0.949 . S
H1388 C1384 0.950 . S
C1389 C1387 1.390 . S
C1389 C1390 1.387 . S
C1389 H1392 0.950 . S
C1390 C1389 1.387 . S
C1390 C1393 1.387 1_455 S
H1391 C1387 0.949 . S
H1392 C1389 0.950 . S
C1393 C1384 1.390 . S
C1393 H1386 0.950 . S
C1393 C1390 1.387 1_655 S
C1394 C1395 1.387 . S
C1394 H1398 0.950 . S
C1394 C1403 1.390 . S
C1395 C1394 1.387 . S
C1395 C1397 1.387 . S
H1396 C1403 0.950 . S
C1397 C1395 1.387 . S
C1397 C1399 1.390 . S
C1397 H1401 0.950 . S
H1398 C1394 0.950 . S
C1399 C1397 1.390 . S
C1399 C1400 1.387 . S
C1399 H1402 0.950 . S
C1400 C1399 1.387 . S
C1400 C1403 1.387 . S
H1401 C1397 0.950 . S
H1402 C1399 0.950 . S
C1403 C1394 1.390 . S
C1403 H1396 0.950 . S
C1403 C1400 1.387 . S
C1404 C1405 1.387 . S
C1404 H1408 0.950 . S
C1404 C1413 1.390 . S
C1405 C1404 1.387 . S
C1405 C1407 1.387 . S
H1406 C1413 0.950 . S
C1407 C1405 1.387 . S
C1407 C1409 1.390 . S
C1407 H1411 0.950 . S
H1408 C1404 0.950 . S
C1409 C1407 1.390 . S
C1409 C1410 1.387 . S
C1409 H1412 0.950 . S
C1410 C1409 1.387 . S
C1410 C1413 1.387 . S
H1411 C1407 0.950 . S
H1412 C1409 0.950 . S
C1413 C1404 1.390 . S
C1413 H1406 0.950 . S
C1413 C1410 1.387 . S
C1414 C1415 1.387 . S
C1414 H1418 0.950 . S
C1414 C1423 1.390 . S
C1415 C1414 1.387 . S
C1415 C1417 1.387 . S
H1416 C1423 0.950 . S
C1417 C1415 1.387 . S
C1417 C1419 1.390 . S
C1417 H1421 0.950 . S
H1418 C1414 0.950 . S
C1419 C1417 1.390 . S
C1419 C1420 1.387 . S
C1419 H1422 0.950 . S
C1420 C1419 1.387 . S
C1420 C1423 1.387 . S
H1421 C1417 0.950 . S
H1422 C1419 0.950 . S
C1423 C1414 1.390 . S
C1423 H1416 0.950 . S
C1423 C1420 1.387 . S
C1424 C1425 1.387 . S
C1424 H1428 0.950 . S
C1424 C1433 1.390 . S
C1425 C1424 1.387 . S
C1425 C1427 1.387 . S
H1426 C1433 0.950 . S
C1427 C1425 1.387 . S
C1427 C1429 1.390 . S
C1427 H1431 0.950 . S
H1428 C1424 0.950 . S
C1429 C1427 1.390 . S
C1429 C1430 1.387 . S
C1429 H1432 0.950 . S
C1430 C1429 1.387 . S
C1430 C1433 1.387 . S
H1431 C1427 0.950 . S
H1432 C1429 0.950 . S
C1433 C1424 1.390 . S
C1433 H1426 0.950 . S
C1433 C1430 1.387 . S
C1434 C1435 1.387 . S
C1434 H1438 0.950 . S
C1434 C1443 1.390 . S
C1435 C1434 1.387 . S
C1435 C1437 1.387 . S
H1436 C1443 0.950 . S
C1437 C1435 1.387 . S
C1437 C1439 1.390 . S
C1437 H1441 0.950 . S
H1438 C1434 0.950 . S
C1439 C1437 1.390 . S
C1439 C1440 1.387 . S
C1439 H1442 0.950 . S
C1440 C1439 1.387 . S
C1440 C1443 1.387 . S
H1441 C1437 0.950 . S
H1442 C1439 0.950 . S
C1443 C1434 1.390 . S
C1443 H1436 0.950 . S
C1443 C1440 1.387 . S
C1444 C1445 1.387 . S
C1444 H1448 0.950 . S
C1444 C1453 1.390 . S
C1445 C1444 1.387 . S
C1445 C1447 1.387 . S
H1446 C1453 0.950 . S
C1447 C1445 1.387 . S
C1447 C1449 1.390 . S
C1447 H1451 0.950 . S
H1448 C1444 0.950 . S
C1449 C1447 1.390 . S
C1449 C1450 1.387 . S
C1449 H1452 0.950 . S
C1450 C1449 1.387 . S
C1450 C1453 1.387 . S
H1451 C1447 0.950 . S
H1452 C1449 0.950 . S
C1453 C1444 1.390 . S
C1453 H1446 0.950 . S
C1453 C1450 1.387 . S
C1454 C1455 1.387 . S
C1454 H1458 0.950 . S
C1454 C1463 1.390 . S
C1455 C1454 1.387 . S
C1455 C1457 1.387 . S
H1456 C1463 0.950 . S
C1457 C1455 1.387 . S
C1457 C1459 1.390 . S
C1457 H1461 0.950 . S
H1458 C1454 0.950 . S
C1459 C1457 1.390 . S
C1459 C1460 1.387 . S
C1459 H1462 0.950 . S
C1460 C1459 1.387 . S
C1460 C1463 1.387 . S
H1461 C1457 0.950 . S
H1462 C1459 0.950 . S
C1463 C1454 1.390 . S
C1463 H1456 0.950 . S
C1463 C1460 1.387 . S
C1464 C1465 1.387 . S
C1464 H1468 0.950 . S
C1464 C1473 1.390 . S
C1465 C1464 1.387 . S
C1465 C1467 1.387 . S
H1466 C1473 0.950 . S
C1467 C1465 1.387 . S
C1467 C1469 1.390 . S
C1467 H1471 0.950 . S
H1468 C1464 0.950 . S
C1469 C1467 1.390 . S
C1469 C1470 1.387 . S
C1469 H1472 0.950 . S
C1470 C1469 1.387 . S
C1470 C1473 1.387 . S
H1471 C1467 0.950 . S
H1472 C1469 0.950 . S
C1473 C1464 1.390 . S
C1473 H1466 0.950 . S
C1473 C1470 1.387 . S
C1474 C1475 1.387 . S
C1474 H1478 0.950 . S
C1474 C1483 1.390 . S
C1475 C1474 1.387 . S
C1475 C1477 1.387 . S
H1476 C1483 0.950 . S
C1477 C1475 1.387 . S
C1477 C1479 1.390 . S
C1477 H1481 0.950 . S
H1478 C1474 0.950 . S
C1479 C1477 1.390 . S
C1479 C1480 1.387 . S
C1479 H1482 0.950 . S
C1480 C1479 1.387 . S
C1480 C1483 1.387 . S
H1481 C1477 0.950 . S
H1482 C1479 0.950 . S
C1483 C1474 1.390 . S
C1483 H1476 0.950 . S
C1483 C1480 1.387 . S
C1484 C1485 1.387 . S
C1484 H1488 0.950 . S
C1484 C1493 1.390 . S
C1485 C1484 1.387 . S
C1485 C1487 1.387 . S
H1486 C1493 0.950 . S
C1487 C1485 1.387 . S
C1487 C1489 1.390 . S
C1487 H1491 0.950 . S
H1488 C1484 0.950 . S
C1489 C1487 1.390 . S
C1489 C1490 1.387 . S
C1489 H1492 0.950 . S
C1490 C1489 1.387 . S
C1490 C1493 1.387 . S
H1491 C1487 0.950 . S
H1492 C1489 0.950 . S
C1493 C1484 1.390 . S
C1493 H1486 0.950 . S
C1493 C1490 1.387 . S
C1494 C1495 1.387 . S
C1494 H1498 0.950 . S
C1494 C1503 1.390 . S
C1495 C1494 1.387 . S
C1495 C1497 1.387 . S
H1496 C1503 0.950 . S
C1497 C1495 1.387 . S
C1497 C1499 1.390 . S
C1497 H1501 0.950 . S
H1498 C1494 0.950 . S
C1499 C1497 1.390 . S
C1499 C1500 1.387 . S
C1499 H1502 0.950 . S
C1500 C1499 1.387 . S
C1500 C1503 1.387 . S
H1501 C1497 0.950 . S
H1502 C1499 0.950 . S
C1503 C1494 1.390 . S
C1503 H1496 0.950 . S
C1503 C1500 1.387 . S
C1504 C1505 1.387 . S
C1504 H1508 0.950 . S
C1504 C1513 1.390 . S
C1505 C1504 1.387 . S
C1505 C1507 1.387 . S
H1506 C1513 0.950 . S
C1507 C1505 1.387 . S
C1507 C1509 1.390 . S
C1507 H1511 0.950 . S
H1508 C1504 0.950 . S
C1509 C1507 1.390 . S
C1509 C1510 1.387 . S
C1509 H1512 0.950 . S
C1510 C1509 1.387 . S
C1510 C1513 1.387 . S
H1511 C1507 0.950 . S
H1512 C1509 0.950 . S
C1513 C1504 1.390 . S
C1513 H1506 0.950 . S
C1513 C1510 1.387 . S
C1514 C1515 1.387 . S
C1514 H1518 0.950 . S
C1514 C1523 1.390 . S
C1515 C1514 1.387 . S
C1515 C1517 1.387 . S
H1516 C1523 0.950 . S
C1517 C1515 1.387 . S
C1517 C1519 1.390 . S
C1517 H1521 0.950 . S
H1518 C1514 0.950 . S
C1519 C1517 1.390 . S
C1519 C1520 1.387 . S
C1519 H1522 0.950 . S
C1520 C1519 1.387 . S
C1520 C1523 1.387 . S
H1521 C1517 0.950 . S
H1522 C1519 0.950 . S
C1523 C1514 1.390 . S
C1523 H1516 0.950 . S
C1523 C1520 1.387 . S
C1524 C1525 1.387 1_455 S
C1524 H1528 0.950 . S
C1524 C1533 1.390 . S
C1525 C1524 1.387 1_655 S
C1525 C1527 1.387 . S
H1526 C1533 0.950 . S
C1527 C1525 1.387 . S
C1527 C1529 1.390 . S
C1527 H1531 0.950 . S
H1528 C1524 0.950 . S
C1529 C1527 1.390 . S
C1529 C1530 1.387 1_655 S
C1529 H1532 0.950 . S
C1530 C1529 1.387 1_455 S
C1530 C1533 1.387 . S
H1531 C1527 0.950 . S
H1532 C1529 0.950 . S
C1533 C1524 1.390 . S
C1533 H1526 0.950 . S
C1533 C1530 1.387 . S
C1534 C1535 1.387 . S
C1534 H1538 0.950 . S
C1534 C1543 1.390 . S
C1535 C1534 1.387 . S
C1535 C1537 1.387 . S
H1536 C1543 0.950 . S
C1537 C1535 1.387 . S
C1537 C1539 1.390 . S
C1537 H1541 0.950 . S
H1538 C1534 0.950 . S
C1539 C1537 1.390 . S
C1539 C1540 1.387 . S
C1539 H1542 0.950 . S
C1540 C1539 1.387 . S
C1540 C1543 1.387 . S
H1541 C1537 0.950 . S
H1542 C1539 0.950 . S
C1543 C1534 1.390 . S
C1543 H1536 0.950 . S
C1543 C1540 1.387 . S
C1544 C1545 1.387 . S
C1544 H1548 0.950 . S
C1544 C1553 1.390 . S
C1545 C1544 1.387 . S
C1545 C1547 1.387 1_565 S
H1546 C1553 0.950 . S
C1547 C1545 1.387 1_545 S
C1547 C1549 1.390 . S
C1547 H1551 0.950 . S
H1548 C1544 0.950 . S
C1549 C1547 1.390 . S
C1549 C1550 1.387 . S
C1549 H1552 0.950 . S
C1550 C1549 1.387 . S
C1550 C1553 1.387 1_545 S
H1551 C1547 0.950 . S
H1552 C1549 0.950 . S
C1553 C1544 1.390 . S
C1553 H1546 0.950 . S
C1553 C1550 1.387 1_565 S
C1554 C1555 1.387 1_554 S
C1554 H1558 0.950 . S
C1554 C1563 1.390 1_565 S
C1555 C1554 1.387 1_556 S
C1555 C1557 1.387 . S
H1556 C1563 0.950 . S
C1557 C1555 1.387 . S
C1557 C1559 1.390 1_565 S
C1557 H1561 0.950 . S
H1558 C1554 0.950 . S
C1559 C1557 1.390 1_545 S
C1559 C1560 1.387 1_556 S
C1559 H1562 0.950 . S
C1560 C1559 1.387 1_554 S
C1560 C1563 1.387 . S
H1561 C1557 0.950 . S
H1562 C1559 0.950 . S
C1563 C1554 1.390 1_545 S
C1563 H1556 0.950 . S
C1563 C1560 1.387 . S
C1564 C1565 1.387 1_554 S
C1564 H1568 0.950 . S
C1564 C1573 1.390 1_455 S
C1565 C1564 1.387 1_556 S
C1565 C1567 1.387 . S
H1566 C1573 0.950 . S
C1567 C1565 1.387 . S
C1567 C1569 1.390 1_455 S
C1567 H1571 0.950 . S
H1568 C1564 0.950 . S
C1569 C1567 1.390 1_655 S
C1569 C1570 1.387 1_556 S
C1569 H1572 0.950 . S
C1570 C1569 1.387 1_554 S
C1570 C1573 1.387 . S
H1571 C1567 0.950 . S
H1572 C1569 0.950 . S
C1573 C1564 1.390 1_655 S
C1573 H1566 0.950 . S
C1573 C1570 1.387 . S
C1574 C1575 1.387 . S
C1574 H1578 0.950 . S
C1574 C1583 1.390 . S
C1575 C1574 1.387 . S
C1575 C1577 1.387 1_556 S
H1576 C1583 0.950 . S
C1577 C1575 1.387 1_554 S
C1577 C1579 1.390 . S
C1577 H1581 0.950 . S
H1578 C1574 0.950 . S
C1579 C1577 1.390 . S
C1579 C1580 1.387 . S
C1579 H1582 0.950 . S
C1580 C1579 1.387 . S
C1580 C1583 1.387 1_554 S
H1581 C1577 0.950 . S
H1582 C1579 0.950 . S
C1583 C1574 1.390 . S
C1583 H1576 0.950 . S
C1583 C1580 1.387 1_556 S
C1584 C1585 1.387 . S
C1584 H1588 0.950 . S
C1584 C1593 1.390 1_554 S
C1585 C1584 1.387 . S
C1585 C1587 1.387 1_554 S
H1586 C1593 0.950 1_554 S
C1587 C1585 1.387 1_556 S
C1587 C1589 1.390 . S
C1587 H1591 0.950 . S
H1588 C1584 0.950 . S
C1589 C1587 1.390 . S
C1589 C1590 1.387 . S
C1589 H1592 0.950 . S
C1590 C1589 1.387 . S
C1590 C1593 1.387 . S
H1591 C1587 0.950 . S
H1592 C1589 0.950 . S
C1593 C1584 1.390 1_556 S
C1593 H1586 0.950 1_556 S
C1593 C1590 1.387 . S
C1594 C1595 1.387 . S
C1594 H1598 0.950 . S
C1594 C1603 1.390 1_554 S
C1595 C1594 1.387 . S
C1595 C1597 1.387 . S
H1596 C1603 0.950 . S
C1597 C1595 1.387 . S
C1597 C1599 1.390 1_554 S
C1597 H1601 0.950 . S
H1598 C1594 0.950 . S
C1599 C1597 1.390 1_556 S
C1599 C1600 1.387 . S
C1599 H1602 0.950 . S
C1600 C1599 1.387 . S
C1600 C1603 1.387 . S
H1601 C1597 0.950 . S
H1602 C1599 0.950 . S
C1603 C1594 1.390 1_556 S
C1603 H1596 0.950 . S
C1603 C1600 1.387 . S
C1604 C1605 1.387 . S
C1604 H1608 0.950 . S
C1604 C1613 1.390 1_556 S
C1605 C1604 1.387 . S
C1605 C1607 1.387 . S
H1606 C1613 0.950 . S
C1607 C1605 1.387 . S
C1607 C1609 1.390 1_556 S
C1607 H1611 0.950 . S
H1608 C1604 0.950 . S
C1609 C1607 1.390 1_554 S
C1609 C1610 1.387 . S
C1609 H1612 0.950 . S
C1610 C1609 1.387 . S
C1610 C1613 1.387 . S
H1611 C1607 0.950 . S
H1612 C1609 0.950 . S
C1613 C1604 1.390 1_554 S
C1613 H1606 0.950 . S
C1613 C1610 1.387 . S
C1614 C1615 1.387 . S
C1614 H1618 0.950 . S
C1614 C1623 1.390 . S
C1615 C1614 1.387 . S
C1615 C1617 1.387 . S
H1616 C1623 0.950 . S
C1617 C1615 1.387 . S
C1617 C1619 1.390 . S
C1617 H1621 0.950 . S
H1618 C1614 0.950 . S
C1619 C1617 1.390 . S
C1619 C1620 1.387 . S
C1619 H1622 0.950 . S
C1620 C1619 1.387 . S
C1620 C1623 1.387 . S
H1621 C1617 0.950 . S
H1622 C1619 0.950 . S
C1623 C1614 1.390 . S
C1623 H1616 0.950 . S
C1623 C1620 1.387 . S
C1624 C1625 1.387 . S
C1624 H1628 0.950 . S
C1624 C1633 1.390 . S
C1625 C1624 1.387 . S
C1625 C1627 1.387 . S
H1626 C1633 0.950 . S
C1627 C1625 1.387 . S
C1627 C1629 1.390 . S
C1627 H1631 0.950 . S
H1628 C1624 0.950 . S
C1629 C1627 1.390 . S
C1629 C1630 1.387 . S
C1629 H1632 0.950 . S
C1630 C1629 1.387 . S
C1630 C1633 1.387 . S
H1631 C1627 0.950 . S
H1632 C1629 0.950 . S
C1633 C1624 1.390 . S
C1633 H1626 0.950 . S
C1633 C1630 1.387 . S
C1634 C1635 1.387 . S
C1634 H1638 0.950 . S
C1634 C1643 1.390 . S
C1635 C1634 1.387 . S
C1635 C1637 1.387 . S
H1636 C1643 0.950 . S
C1637 C1635 1.387 . S
C1637 C1639 1.390 . S
C1637 H1641 0.950 . S
H1638 C1634 0.950 . S
C1639 C1637 1.390 . S
C1639 C1640 1.387 . S
C1639 H1642 0.950 . S
C1640 C1639 1.387 . S
C1640 C1643 1.387 . S
H1641 C1637 0.950 . S
H1642 C1639 0.950 . S
C1643 C1634 1.390 . S
C1643 H1636 0.950 . S
C1643 C1640 1.387 . S
C1644 C1645 1.387 . S
C1644 H1648 0.950 . S
C1644 C1653 1.390 . S
C1645 C1644 1.387 . S
C1645 C1647 1.387 . S
H1646 C1653 0.950 . S
C1647 C1645 1.387 . S
C1647 C1649 1.390 1_554 S
C1647 H1651 0.950 . S
H1648 C1644 0.950 . S
C1649 C1647 1.390 1_556 S
C1649 C1650 1.387 . S
C1649 H1652 0.950 . S
C1650 C1649 1.387 . S
C1650 C1653 1.387 1_556 S
H1651 C1647 0.950 . S
H1652 C1649 0.950 . S
C1653 C1644 1.390 . S
C1653 H1646 0.950 . S
C1653 C1650 1.387 1_554 S
C1654 C1655 1.387 . S
C1654 H1658 0.950 . S
C1654 C1663 1.390 1_554 S
C1655 C1654 1.387 . S
C1655 C1657 1.387 . S
H1656 C1663 0.950 . S
C1657 C1655 1.387 . S
C1657 C1659 1.390 1_554 S
C1657 H1661 0.950 . S
H1658 C1654 0.950 . S
C1659 C1657 1.390 1_556 S
C1659 C1660 1.387 . S
C1659 H1662 0.950 . S
C1660 C1659 1.387 . S
C1660 C1663 1.387 . S
H1661 C1657 0.950 . S
H1662 C1659 0.950 . S
C1663 C1654 1.390 1_556 S
C1663 H1656 0.950 . S
C1663 C1660 1.387 . S
C1664 C1665 1.387 . S
C1664 H1668 0.950 . S
C1664 C1673 1.390 1_556 S
C1665 C1664 1.387 . S
C1665 C1667 1.387 . S
H1666 C1673 0.950 . S
C1667 C1665 1.387 . S
C1667 C1669 1.390 1_556 S
C1667 H1671 0.950 . S
H1668 C1664 0.950 . S
C1669 C1667 1.390 1_554 S
C1669 C1670 1.387 . S
C1669 H1672 0.950 . S
C1670 C1669 1.387 . S
C1670 C1673 1.387 . S
H1671 C1667 0.950 . S
H1672 C1669 0.950 . S
C1673 C1664 1.390 1_554 S
C1673 H1666 0.950 . S
C1673 C1670 1.387 . S
C1674 C1675 1.387 . S
C1674 H1678 0.950 . S
C1674 C1683 1.390 . S
C1675 C1674 1.387 . S
C1675 C1677 1.387 . S
H1676 C1683 0.950 . S
C1677 C1675 1.387 . S
C1677 C1679 1.390 . S
C1677 H1681 0.950 . S
H1678 C1674 0.950 . S
C1679 C1677 1.390 . S
C1679 C1680 1.387 . S
C1679 H1682 0.950 . S
C1680 C1679 1.387 . S
C1680 C1683 1.387 . S
H1681 C1677 0.950 . S
H1682 C1679 0.950 . S
C1683 C1674 1.390 . S
C1683 H1676 0.950 . S
C1683 C1680 1.387 . S
C1684 C1685 1.387 . S
C1684 H1688 0.950 . S
C1684 C1693 1.390 . S
C1685 C1684 1.387 . S
C1685 C1687 1.387 . S
H1686 C1693 0.950 . S
C1687 C1685 1.387 . S
C1687 C1689 1.390 . S
C1687 H1691 0.950 . S
H1688 C1684 0.950 . S
C1689 C1687 1.390 . S
C1689 C1690 1.387 . S
C1689 H1692 0.950 . S
C1690 C1689 1.387 . S
C1690 C1693 1.387 . S
H1691 C1687 0.950 . S
H1692 C1689 0.950 . S
C1693 C1684 1.390 . S
C1693 H1686 0.950 . S
C1693 C1690 1.387 . S
C1694 C1695 1.387 . S
C1694 H1698 0.950 . S
C1694 C1703 1.390 . S
C1695 C1694 1.387 . S
C1695 C1697 1.387 . S
H1696 C1703 0.950 . S
C1697 C1695 1.387 . S
C1697 C1699 1.390 . S
C1697 H1701 0.950 . S
H1698 C1694 0.950 . S
C1699 C1697 1.390 . S
C1699 C1700 1.387 . S
C1699 H1702 0.950 . S
C1700 C1699 1.387 . S
C1700 C1703 1.387 . S
H1701 C1697 0.950 . S
H1702 C1699 0.950 . S
C1703 C1694 1.390 . S
C1703 H1696 0.950 . S
C1703 C1700 1.387 . S
C1704 C1705 1.387 . S
C1704 H1708 0.950 . S
C1704 C1713 1.390 . S
C1705 C1704 1.387 . S
C1705 C1707 1.387 . S
H1706 C1713 0.950 . S
C1707 C1705 1.387 . S
C1707 C1709 1.390 . S
C1707 H1711 0.950 . S
H1708 C1704 0.950 . S
C1709 C1707 1.390 . S
C1709 C1710 1.387 . S
C1709 H1712 0.950 . S
C1710 C1709 1.387 . S
C1710 C1713 1.387 . S
H1711 C1707 0.950 . S
H1712 C1709 0.950 . S
C1713 C1704 1.390 . S
C1713 H1706 0.950 . S
C1713 C1710 1.387 . S
C1714 C1715 1.387 . S
C1714 H1718 0.950 . S
C1714 C1723 1.390 . S
C1715 C1714 1.387 . S
C1715 C1717 1.387 . S
H1716 C1723 0.950 . S
C1717 C1715 1.387 . S
C1717 C1719 1.390 . S
C1717 H1721 0.950 . S
H1718 C1714 0.950 . S
C1719 C1717 1.390 . S
C1719 C1720 1.387 . S
C1719 H1722 0.950 . S
C1720 C1719 1.387 . S
C1720 C1723 1.387 . S
H1721 C1717 0.950 . S
H1722 C1719 0.950 . S
C1723 C1714 1.390 . S
C1723 H1716 0.950 . S
C1723 C1720 1.387 . S
C1724 C1725 1.387 . S
C1724 H1728 0.950 . S
C1724 C1733 1.390 . S
C1725 C1724 1.387 . S
C1725 C1727 1.387 . S
H1726 C1733 0.950 . S
C1727 C1725 1.387 . S
C1727 C1729 1.390 . S
C1727 H1731 0.950 . S
H1728 C1724 0.950 . S
C1729 C1727 1.390 . S
C1729 C1730 1.387 . S
C1729 H1732 0.950 . S
C1730 C1729 1.387 . S
C1730 C1733 1.387 . S
H1731 C1727 0.950 . S
H1732 C1729 0.950 . S
C1733 C1724 1.390 . S
C1733 H1726 0.950 . S
C1733 C1730 1.387 . S
C1734 C1735 1.387 . S
C1734 H1738 0.950 . S
C1734 C1743 1.390 . S
C1735 C1734 1.387 . S
C1735 C1737 1.387 . S
H1736 C1743 0.950 . S
C1737 C1735 1.387 . S
C1737 C1739 1.390 . S
C1737 H1741 0.950 . S
H1738 C1734 0.950 . S
C1739 C1737 1.390 . S
C1739 C1740 1.387 . S
C1739 H1742 0.950 . S
C1740 C1739 1.387 . S
C1740 C1743 1.387 . S
H1741 C1737 0.950 . S
H1742 C1739 0.950 . S
C1743 C1734 1.390 . S
C1743 H1736 0.950 . S
C1743 C1740 1.387 . S
C1744 C1745 1.387 . S
C1744 H1748 0.950 . S
C1744 C1753 1.390 . S
C1745 C1744 1.387 . S
C1745 C1747 1.387 . S
H1746 C1753 0.950 . S
C1747 C1745 1.387 . S
C1747 C1749 1.390 . S
C1747 H1751 0.950 . S
H1748 C1744 0.950 . S
C1749 C1747 1.390 . S
C1749 C1750 1.387 . S
C1749 H1752 0.950 . S
C1750 C1749 1.387 . S
C1750 C1753 1.387 . S
H1751 C1747 0.950 . S
H1752 C1749 0.950 . S
C1753 C1744 1.390 . S
C1753 H1746 0.950 . S
C1753 C1750 1.387 . S
C1754 C1755 1.387 . S
C1754 H1758 0.950 . S
C1754 C1763 1.390 . S
C1755 C1754 1.387 . S
C1755 C1757 1.387 . S
H1756 C1763 0.950 . S
C1757 C1755 1.387 . S
C1757 C1759 1.390 . S
C1757 H1761 0.950 . S
H1758 C1754 0.950 . S
C1759 C1757 1.390 . S
C1759 C1760 1.387 . S
C1759 H1762 0.950 . S
C1760 C1759 1.387 . S
C1760 C1763 1.387 . S
H1761 C1757 0.950 . S
H1762 C1759 0.950 . S
C1763 C1754 1.390 . S
C1763 H1756 0.950 . S
C1763 C1760 1.387 . S
C1764 C1765 1.387 . S
C1764 H1768 0.950 . S
C1764 C1773 1.390 . S
C1765 C1764 1.387 . S
C1765 C1767 1.387 . S
H1766 C1773 0.950 . S
C1767 C1765 1.387 . S
C1767 C1769 1.390 . S
C1767 H1771 0.950 . S
H1768 C1764 0.950 . S
C1769 C1767 1.390 . S
C1769 C1770 1.387 . S
C1769 H1772 0.950 . S
C1770 C1769 1.387 . S
C1770 C1773 1.387 . S
H1771 C1767 0.950 . S
H1772 C1769 0.950 . S
C1773 C1764 1.390 . S
C1773 H1766 0.950 . S
C1773 C1770 1.387 . S
C1774 C1775 1.387 . S
C1774 H1778 0.950 . S
C1774 C1783 1.390 . S
C1775 C1774 1.387 . S
C1775 C1777 1.387 . S
H1776 C1783 0.950 . S
C1777 C1775 1.387 . S
C1777 C1779 1.390 . S
C1777 H1781 0.950 . S
H1778 C1774 0.950 . S
C1779 C1777 1.390 . S
C1779 C1780 1.387 . S
C1779 H1782 0.950 . S
C1780 C1779 1.387 . S
C1780 C1783 1.387 . S
H1781 C1777 0.950 . S
H1782 C1779 0.950 . S
C1783 C1774 1.390 . S
C1783 H1776 0.950 . S
C1783 C1780 1.387 . S
C1784 C1785 1.387 . S
C1784 H1788 0.950 . S
C1784 C1793 1.390 . S
C1785 C1784 1.387 . S
C1785 C1787 1.387 . S
H1786 C1793 0.950 . S
C1787 C1785 1.387 . S
C1787 C1789 1.390 . S
C1787 H1791 0.950 . S
H1788 C1784 0.950 . S
C1789 C1787 1.390 . S
C1789 C1790 1.387 . S
C1789 H1792 0.950 . S
C1790 C1789 1.387 . S
C1790 C1793 1.387 . S
H1791 C1787 0.950 . S
H1792 C1789 0.950 . S
C1793 C1784 1.390 . S
C1793 H1786 0.950 . S
C1793 C1790 1.387 . S
C1794 C1795 1.387 . S
C1794 H1798 0.950 . S
C1794 C1803 1.390 . S
C1795 C1794 1.387 . S
C1795 C1797 1.387 . S
H1796 C1803 0.950 . S
C1797 C1795 1.387 . S
C1797 C1799 1.390 . S
C1797 H1801 0.950 . S
H1798 C1794 0.950 . S
C1799 C1797 1.390 . S
C1799 C1800 1.387 . S
C1799 H1802 0.950 . S
C1800 C1799 1.387 . S
C1800 C1803 1.387 . S
H1801 C1797 0.950 . S
H1802 C1799 0.950 . S
C1803 C1794 1.390 . S
C1803 H1796 0.950 . S
C1803 C1800 1.387 . S
C1804 C1805 1.387 . S
C1804 H1808 0.950 . S
C1804 C1813 1.390 . S
C1805 C1804 1.387 . S
C1805 C1807 1.387 . S
H1806 C1813 0.950 . S
C1807 C1805 1.387 . S
C1807 C1809 1.390 . S
C1807 H1811 0.950 . S
H1808 C1804 0.950 . S
C1809 C1807 1.390 . S
C1809 C1810 1.387 . S
C1809 H1812 0.950 . S
C1810 C1809 1.387 . S
C1810 C1813 1.387 . S
H1811 C1807 0.950 . S
H1812 C1809 0.950 . S
C1813 C1804 1.390 . S
C1813 H1806 0.950 . S
C1813 C1810 1.387 . S
C1814 C1815 1.387 . S
C1814 H1818 0.950 . S
C1814 C1823 1.390 . S
C1815 C1814 1.387 . S
C1815 C1817 1.387 . S
H1816 C1823 0.950 . S
C1817 C1815 1.387 . S
C1817 C1819 1.390 . S
C1817 H1821 0.950 . S
H1818 C1814 0.950 . S
C1819 C1817 1.390 . S
C1819 C1820 1.387 . S
C1819 H1822 0.950 . S
C1820 C1819 1.387 . S
C1820 C1823 1.387 . S
H1821 C1817 0.950 . S
H1822 C1819 0.950 . S
C1823 C1814 1.390 . S
C1823 H1816 0.950 . S
C1823 C1820 1.387 . S
C1824 C1825 1.387 . S
C1824 H1828 0.950 . S
C1824 C1833 1.390 . S
C1825 C1824 1.387 . S
C1825 C1827 1.387 . S
H1826 C1833 0.950 . S
C1827 C1825 1.387 . S
C1827 C1829 1.390 . S
C1827 H1831 0.950 . S
H1828 C1824 0.950 . S
C1829 C1827 1.390 . S
C1829 C1830 1.387 . S
C1829 H1832 0.950 . S
C1830 C1829 1.387 . S
C1830 C1833 1.387 . S
H1831 C1827 0.950 . S
H1832 C1829 0.950 . S
C1833 C1824 1.390 . S
C1833 H1826 0.950 . S
C1833 C1830 1.387 . S
C1834 C1835 1.387 . S
C1834 H1838 0.950 . S
C1834 C1843 1.390 . S
C1835 C1834 1.387 . S
C1835 C1837 1.387 . S
H1836 C1843 0.950 . S
C1837 C1835 1.387 . S
C1837 C1839 1.390 . S
C1837 H1841 0.950 . S
H1838 C1834 0.950 . S
C1839 C1837 1.390 . S
C1839 C1840 1.387 . S
C1839 H1842 0.950 . S
C1840 C1839 1.387 . S
C1840 C1843 1.387 . S
H1841 C1837 0.950 . S
H1842 C1839 0.950 . S
C1843 C1834 1.390 . S
C1843 H1836 0.950 . S
C1843 C1840 1.387 . S
C1844 C1845 1.387 . S
C1844 H1848 0.950 . S
C1844 C1853 1.390 . S
C1845 C1844 1.387 . S
C1845 C1847 1.387 . S
H1846 C1853 0.950 . S
C1847 C1845 1.387 . S
C1847 C1849 1.390 . S
C1847 H1851 0.950 . S
H1848 C1844 0.950 . S
C1849 C1847 1.390 . S
C1849 C1850 1.387 . S
C1849 H1852 0.950 . S
C1850 C1849 1.387 . S
C1850 C1853 1.387 . S
H1851 C1847 0.950 . S
H1852 C1849 0.950 . S
C1853 C1844 1.390 . S
C1853 H1846 0.950 . S
C1853 C1850 1.387 . S
C1854 C1855 1.387 . S
C1854 H1858 0.950 . S
C1854 C1863 1.390 . S
C1855 C1854 1.387 . S
C1855 C1857 1.387 . S
H1856 C1863 0.950 . S
C1857 C1855 1.387 . S
C1857 C1859 1.390 . S
C1857 H1861 0.950 . S
H1858 C1854 0.950 . S
C1859 C1857 1.390 . S
C1859 C1860 1.387 . S
C1859 H1862 0.950 . S
C1860 C1859 1.387 . S
C1860 C1863 1.387 . S
H1861 C1857 0.950 . S
H1862 C1859 0.950 . S
C1863 C1854 1.390 . S
C1863 H1856 0.950 . S
C1863 C1860 1.387 . S
C1864 C1865 1.387 . S
C1864 H1868 0.950 . S
C1864 C1873 1.390 . S
C1865 C1864 1.387 . S
C1865 C1867 1.387 . S
H1866 C1873 0.950 . S
C1867 C1865 1.387 . S
C1867 C1869 1.390 . S
C1867 H1871 0.950 . S
H1868 C1864 0.950 . S
C1869 C1867 1.390 . S
C1869 C1870 1.387 . S
C1869 H1872 0.950 . S
C1870 C1869 1.387 . S
C1870 C1873 1.387 . S
H1871 C1867 0.950 . S
H1872 C1869 0.950 . S
C1873 C1864 1.390 . S
C1873 H1866 0.950 . S
C1873 C1870 1.387 . S
C1874 C1875 1.387 . S
C1874 H1878 0.950 . S
C1874 C1883 1.390 . S
C1875 C1874 1.387 . S
C1875 C1877 1.387 . S
H1876 C1883 0.950 . S
C1877 C1875 1.387 . S
C1877 C1879 1.390 . S
C1877 H1881 0.950 . S
H1878 C1874 0.950 . S
C1879 C1877 1.390 . S
C1879 C1880 1.387 . S
C1879 H1882 0.950 . S
C1880 C1879 1.387 . S
C1880 C1883 1.387 . S
H1881 C1877 0.950 . S
H1882 C1879 0.950 . S
C1883 C1874 1.390 . S
C1883 H1876 0.950 . S
C1883 C1880 1.387 . S
C1884 C1885 1.387 . S
C1884 H1888 0.950 . S
C1884 C1893 1.390 . S
C1885 C1884 1.387 . S
C1885 C1887 1.387 . S
H1886 C1893 0.950 . S
C1887 C1885 1.387 . S
C1887 C1889 1.390 . S
C1887 H1891 0.950 . S
H1888 C1884 0.950 . S
C1889 C1887 1.390 . S
C1889 C1890 1.387 . S
C1889 H1892 0.950 . S
C1890 C1889 1.387 . S
C1890 C1893 1.387 . S
H1891 C1887 0.950 . S
H1892 C1889 0.950 . S
C1893 C1884 1.390 . S
C1893 H1886 0.950 . S
C1893 C1890 1.387 . S
C1894 C1895 1.387 . S
C1894 H1898 0.950 . S
C1894 C1903 1.390 . S
C1895 C1894 1.387 . S
C1895 C1897 1.387 . S
H1896 C1903 0.950 . S
C1897 C1895 1.387 . S
C1897 C1899 1.390 . S
C1897 H1901 0.950 . S
H1898 C1894 0.950 . S
C1899 C1897 1.390 . S
C1899 C1900 1.387 . S
C1899 H1902 0.950 . S
C1900 C1899 1.387 . S
C1900 C1903 1.387 . S
H1901 C1897 0.950 . S
H1902 C1899 0.950 . S
C1903 C1894 1.390 . S
C1903 H1896 0.950 . S
C1903 C1900 1.387 . S
C1904 C1905 1.387 . S
C1904 H1908 0.950 . S
C1904 C1913 1.390 . S
C1905 C1904 1.387 . S
C1905 C1907 1.387 . S
H1906 C1913 0.950 . S
C1907 C1905 1.387 . S
C1907 C1909 1.390 . S
C1907 H1911 0.950 . S
H1908 C1904 0.950 . S
C1909 C1907 1.390 . S
C1909 C1910 1.387 . S
C1909 H1912 0.950 . S
C1910 C1909 1.387 . S
C1910 C1913 1.387 . S
H1911 C1907 0.950 . S
H1912 C1909 0.950 . S
C1913 C1904 1.390 . S
C1913 H1906 0.950 . S
C1913 C1910 1.387 . S
C1914 C1915 1.387 . S
C1914 H1918 0.950 . S
C1914 C1923 1.390 . S
C1915 C1914 1.387 . S
C1915 C1917 1.387 . S
H1916 C1923 0.950 . S
C1917 C1915 1.387 . S
C1917 C1919 1.390 . S
C1917 H1921 0.950 . S
H1918 C1914 0.950 . S
C1919 C1917 1.390 . S
C1919 C1920 1.387 . S
C1919 H1922 0.950 . S
C1920 C1919 1.387 . S
C1920 C1923 1.387 . S
H1921 C1917 0.950 . S
H1922 C1919 0.950 . S
C1923 C1914 1.390 . S
C1923 H1916 0.950 . S
C1923 C1920 1.387 . S
C1924 C1925 1.387 . S
C1924 H1928 0.950 . S
C1924 C1933 1.390 . S
C1925 C1924 1.387 . S
C1925 C1927 1.387 . S
H1926 C1933 0.950 . S
C1927 C1925 1.387 . S
C1927 C1929 1.390 . S
C1927 H1931 0.950 . S
H1928 C1924 0.950 . S
C1929 C1927 1.390 . S
C1929 C1930 1.387 . S
C1929 H1932 0.950 . S
C1930 C1929 1.387 . S
C1930 C1933 1.387 . S
H1931 C1927 0.950 . S
H1932 C1929 0.950 . S
C1933 C1924 1.390 . S
C1933 H1926 0.950 . S
C1933 C1930 1.387 . S
C1934 C1935 1.387 . S
C1934 H1938 0.950 . S
C1934 C1943 1.390 . S
C1935 C1934 1.387 . S
C1935 C1937 1.387 . S
H1936 C1943 0.950 . S
C1937 C1935 1.387 . S
C1937 C1939 1.390 . S
C1937 H1941 0.950 . S
H1938 C1934 0.950 . S
C1939 C1937 1.390 . S
C1939 C1940 1.387 . S
C1939 H1942 0.950 . S
C1940 C1939 1.387 . S
C1940 C1943 1.387 . S
H1941 C1937 0.950 . S
H1942 C1939 0.950 . S
C1943 C1934 1.390 . S
C1943 H1936 0.950 . S
C1943 C1940 1.387 . S
C1944 C1945 1.387 . S
C1944 H1948 0.950 . S
C1944 C1953 1.390 1_565 S
C1945 C1944 1.387 . S
C1945 C1947 1.387 . S
H1946 C1953 0.950 . S
C1947 C1945 1.387 . S
C1947 C1949 1.390 1_565 S
C1947 H1951 0.950 . S
H1948 C1944 0.950 . S
C1949 C1947 1.390 1_545 S
C1949 C1950 1.387 . S
C1949 H1952 0.950 . S
C1950 C1949 1.387 . S
C1950 C1953 1.387 . S
H1951 C1947 0.950 . S
H1952 C1949 0.950 . S
C1953 C1944 1.390 1_545 S
C1953 H1946 0.950 . S
C1953 C1950 1.387 . S
C1954 C1955 1.387 . S
C1954 H1958 0.950 . S
C1954 C1963 1.390 1_655 S
C1955 C1954 1.387 . S
C1955 C1957 1.387 . S
H1956 C1963 0.950 . S
C1957 C1955 1.387 . S
C1957 C1959 1.390 1_655 S
C1957 H1961 0.950 . S
H1958 C1954 0.950 . S
C1959 C1957 1.390 1_455 S
C1959 C1960 1.387 . S
C1959 H1962 0.950 . S
C1960 C1959 1.387 . S
C1960 C1963 1.387 . S
H1961 C1957 0.950 . S
H1962 C1959 0.950 . S
C1963 C1954 1.390 1_455 S
C1963 H1956 0.950 . S
C1963 C1960 1.387 . S
C1964 C1965 1.387 . S
C1964 H1968 0.950 . S
C1964 C1973 1.390 . S
C1965 C1964 1.387 . S
C1965 C1967 1.387 . S
H1966 C1973 0.950 . S
C1967 C1965 1.387 . S
C1967 C1969 1.390 . S
C1967 H1971 0.950 . S
H1968 C1964 0.950 . S
C1969 C1967 1.390 . S
C1969 C1970 1.387 . S
C1969 H1972 0.950 . S
C1970 C1969 1.387 . S
C1970 C1973 1.387 . S
H1971 C1967 0.950 . S
H1972 C1969 0.950 . S
C1973 C1964 1.390 . S
C1973 H1966 0.950 . S
C1973 C1970 1.387 . S
C1974 C1975 1.387 . S
C1974 H1978 0.950 . S
C1974 C1983 1.390 1_545 S
C1975 C1974 1.387 . S
C1975 C1977 1.387 . S
H1976 C1983 0.950 . S
C1977 C1975 1.387 . S
C1977 C1979 1.390 1_545 S
C1977 H1981 0.950 . S
H1978 C1974 0.950 . S
C1979 C1977 1.390 1_565 S
C1979 C1980 1.387 . S
C1979 H1982 0.950 . S
C1980 C1979 1.387 . S
C1980 C1983 1.387 . S
H1981 C1977 0.950 . S
H1982 C1979 0.950 . S
C1983 C1974 1.390 1_565 S
C1983 H1976 0.950 . S
C1983 C1980 1.387 . S
C1984 C1985 1.387 . S
C1984 H1988 0.950 . S
C1984 C1993 1.390 1_655 S
C1985 C1984 1.387 . S
C1985 C1987 1.387 . S
H1986 C1993 0.950 . S
C1987 C1985 1.387 . S
C1987 C1989 1.390 1_655 S
C1987 H1991 0.950 . S
H1988 C1984 0.950 . S
C1989 C1987 1.390 1_455 S
C1989 C1990 1.387 . S
C1989 H1992 0.950 . S
C1990 C1989 1.387 . S
C1990 C1993 1.387 . S
H1991 C1987 0.950 . S
H1992 C1989 0.950 . S
C1993 C1984 1.390 1_455 S
C1993 H1986 0.950 . S
C1993 C1990 1.387 . S
C1994 C1995 1.387 . S
C1994 H1998 0.950 . S
C1994 C2003 1.390 . S
C1995 C1994 1.387 . S
C1995 C1997 1.387 . S
H1996 C2003 0.950 . S
C1997 C1995 1.387 . S
C1997 C1999 1.390 . S
C1997 H2001 0.950 . S
H1998 C1994 0.950 . S
C1999 C1997 1.390 . S
C1999 C2000 1.387 . S
C1999 H2002 0.950 . S
C2000 C1999 1.387 . S
C2000 C2003 1.387 . S
H2001 C1997 0.950 . S
H2002 C1999 0.950 . S
C2003 C1994 1.390 . S
C2003 H1996 0.950 . S
C2003 C2000 1.387 . S
C2004 C2005 1.387 . S
C2004 H2008 0.950 . S
C2004 C2013 1.390 . S
C2005 C2004 1.387 . S
C2005 C2007 1.387 . S
H2006 C2013 0.950 . S
C2007 C2005 1.387 . S
C2007 C2009 1.390 . S
C2007 H2011 0.950 . S
H2008 C2004 0.950 . S
C2009 C2007 1.390 . S
C2009 C2010 1.387 . S
C2009 H2012 0.950 . S
C2010 C2009 1.387 . S
C2010 C2013 1.387 . S
H2011 C2007 0.950 . S
H2012 C2009 0.950 . S
C2013 C2004 1.390 . S
C2013 H2006 0.950 . S
C2013 C2010 1.387 . S
C2014 C2015 1.387 . S
C2014 H2018 0.950 . S
C2014 C2023 1.390 . S
C2015 C2014 1.387 . S
C2015 C2017 1.387 . S
H2016 C2023 0.950 . S
C2017 C2015 1.387 . S
C2017 C2019 1.390 . S
C2017 H2021 0.950 . S
H2018 C2014 0.950 . S
C2019 C2017 1.390 . S
C2019 C2020 1.387 . S
C2019 H2022 0.950 . S
C2020 C2019 1.387 . S
C2020 C2023 1.387 . S
H2021 C2017 0.950 . S
H2022 C2019 0.950 . S
C2023 C2014 1.390 . S
C2023 H2016 0.950 . S
C2023 C2020 1.387 . S
C2024 C2025 1.387 . S
C2024 H2028 0.950 . S
C2024 C2033 1.390 . S
C2025 C2024 1.387 . S
C2025 C2027 1.387 . S
H2026 C2033 0.950 . S
C2027 C2025 1.387 . S
C2027 C2029 1.390 . S
C2027 H2031 0.950 . S
H2028 C2024 0.950 . S
C2029 C2027 1.390 . S
C2029 C2030 1.387 . S
C2029 H2032 0.950 . S
C2030 C2029 1.387 . S
C2030 C2033 1.387 . S
H2031 C2027 0.950 . S
H2032 C2029 0.950 . S
C2033 C2024 1.390 . S
C2033 H2026 0.950 . S
C2033 C2030 1.387 . S
C2034 C2035 1.387 . S
C2034 H2038 0.950 . S
C2034 C2043 1.390 . S
C2035 C2034 1.387 . S
C2035 C2037 1.387 . S
H2036 C2043 0.950 1_556 S
C2037 C2035 1.387 . S
C2037 C2039 1.390 . S
C2037 H2041 0.950 . S
H2038 C2034 0.950 . S
C2039 C2037 1.390 . S
C2039 C2040 1.387 . S
C2039 H2042 0.950 . S
C2040 C2039 1.387 . S
C2040 C2043 1.387 . S
H2041 C2037 0.950 . S
H2042 C2039 0.950 . S
C2043 C2034 1.390 . S
C2043 H2036 0.950 1_554 S
C2043 C2040 1.387 . S
C2044 C2045 1.387 . S
C2044 H2048 0.950 . S
C2044 C2053 1.390 . S
C2045 C2044 1.387 . S
C2045 C2047 1.387 . S
H2046 C2053 0.950 . S
C2047 C2045 1.387 . S
C2047 C2049 1.390 . S
C2047 H2051 0.950 1_554 S
H2048 C2044 0.950 . S
C2049 C2047 1.390 . S
C2049 C2050 1.387 . S
C2049 H2052 0.950 . S
C2050 C2049 1.387 . S
C2050 C2053 1.387 . S
H2051 C2047 0.950 1_556 S
H2052 C2049 0.950 . S
C2053 C2044 1.390 . S
C2053 H2046 0.950 . S
C2053 C2050 1.387 . S
C2054 C2055 1.387 . S
C2054 H2058 0.950 . S
C2054 C2063 1.390 . S
C2055 C2054 1.387 . S
C2055 C2057 1.387 . S
H2056 C2063 0.950 . S
C2057 C2055 1.387 . S
C2057 C2059 1.390 . S
C2057 H2061 0.950 . S
H2058 C2054 0.950 . S
C2059 C2057 1.390 . S
C2059 C2060 1.387 . S
C2059 H2062 0.950 . S
C2060 C2059 1.387 . S
C2060 C2063 1.387 . S
H2061 C2057 0.950 . S
H2062 C2059 0.950 . S
C2063 C2054 1.390 . S
C2063 H2056 0.950 . S
C2063 C2060 1.387 . S
C2064 C2065 1.387 . S
C2064 H2068 0.950 . S
C2064 C2073 1.390 . S
C2065 C2064 1.387 . S
C2065 C2067 1.387 . S
H2066 C2073 0.950 . S
C2067 C2065 1.387 . S
C2067 C2069 1.390 . S
C2067 H2071 0.950 . S
H2068 C2064 0.950 . S
C2069 C2067 1.390 . S
C2069 C2070 1.387 . S
C2069 H2072 0.950 . S
C2070 C2069 1.387 . S
C2070 C2073 1.387 . S
H2071 C2067 0.950 . S
H2072 C2069 0.950 . S
C2073 C2064 1.390 . S
C2073 H2066 0.950 . S
C2073 C2070 1.387 . S
C2074 C2075 1.387 . S
C2074 H2078 0.950 . S
C2074 C2083 1.390 . S
C2075 C2074 1.387 . S
C2075 C2077 1.387 . S
H2076 C2083 0.950 . S
C2077 C2075 1.387 . S
C2077 C2079 1.390 . S
C2077 H2081 0.950 . S
H2078 C2074 0.950 . S
C2079 C2077 1.390 . S
C2079 C2080 1.387 . S
C2079 H2082 0.950 . S
C2080 C2079 1.387 . S
C2080 C2083 1.387 . S
H2081 C2077 0.950 . S
H2082 C2079 0.950 . S
C2083 C2074 1.390 . S
C2083 H2076 0.950 . S
C2083 C2080 1.387 . S
C2084 C2085 1.387 . S
C2084 H2088 0.950 . S
C2084 C2093 1.390 . S
C2085 C2084 1.387 . S
C2085 C2087 1.387 . S
H2086 C2093 0.950 . S
C2087 C2085 1.387 . S
C2087 C2089 1.390 . S
C2087 H2091 0.950 . S
H2088 C2084 0.950 . S
C2089 C2087 1.390 . S
C2089 C2090 1.387 . S
C2089 H2092 0.950 . S
C2090 C2089 1.387 . S
C2090 C2093 1.387 . S
H2091 C2087 0.950 . S
H2092 C2089 0.950 . S
C2093 C2084 1.390 . S
C2093 H2086 0.950 . S
C2093 C2090 1.387 . S
C2094 C2095 1.387 . S
C2094 H2098 0.950 . S
C2094 C2103 1.390 . S
C2095 C2094 1.387 . S
C2095 C2097 1.387 . S
H2096 C2103 0.950 . S
C2097 C2095 1.387 . S
C2097 C2099 1.390 . S
C2097 H2101 0.950 . S
H2098 C2094 0.950 . S
C2099 C2097 1.390 . S
C2099 C2100 1.387 . S
C2099 H2102 0.950 . S
C2100 C2099 1.387 . S
C2100 C2103 1.387 . S
H2101 C2097 0.950 . S
H2102 C2099 0.950 . S
C2103 C2094 1.390 . S
C2103 H2096 0.950 . S
C2103 C2100 1.387 . S
C2104 C2105 1.387 . S
C2104 H2108 0.950 . S
C2104 C2113 1.390 . S
C2105 C2104 1.387 . S
C2105 C2107 1.387 . S
H2106 C2113 0.950 . S
C2107 C2105 1.387 . S
C2107 C2109 1.390 . S
C2107 H2111 0.950 . S
H2108 C2104 0.950 . S
C2109 C2107 1.390 . S
C2109 C2110 1.387 . S
C2109 H2112 0.950 . S
C2110 C2109 1.387 . S
C2110 C2113 1.387 . S
H2111 C2107 0.950 . S
H2112 C2109 0.950 . S
C2113 C2104 1.390 . S
C2113 H2106 0.950 . S
C2113 C2110 1.387 . S
C2114 C2115 1.387 . S
C2114 H2118 0.950 . S
C2114 C2123 1.390 . S
C2115 C2114 1.387 . S
C2115 C2117 1.387 . S
H2116 C2123 0.950 . S
C2117 C2115 1.387 . S
C2117 C2119 1.390 . S
C2117 H2121 0.950 . S
H2118 C2114 0.950 . S
C2119 C2117 1.390 . S
C2119 C2120 1.387 . S
C2119 H2122 0.950 . S
C2120 C2119 1.387 . S
C2120 C2123 1.387 . S
H2121 C2117 0.950 . S
H2122 C2119 0.950 . S
C2123 C2114 1.390 . S
C2123 H2116 0.950 . S
C2123 C2120 1.387 . S
C1225 C549 1.483 . S
C1230 C5 1.489 1_556 S
C1235 C583 1.484 . S
C1240 C39 1.490 1_556 S
C1245 C73 1.490 1_556 S
C1250 C515 1.483 . S
C1255 C889 1.490 . S
C1260 C107 1.496 . S
C1265 C821 1.490 . S
C1270 C141 1.495 . S
C1275 C855 1.489 . S
C1280 C175 1.497 . S
C1285 C1161 1.481 . S
C1290 C209 1.491 1_554 S
C1295 C243 1.491 1_554 S
C1300 C1195 1.483 . S
C1305 C277 1.491 1_554 S
C1310 C1127 1.483 . S
C1315 C311 1.496 . S
C1320 C685 1.490 . S
C1325 C617 1.490 . S
C1330 C345 1.495 . S
C1335 C379 1.497 . S
C1340 C651 1.490 . S
C1345 C957 1.383 . S
C1350 C413 1.380 . S
C1355 C447 1.383 . S
C1360 C991 1.382 . S
C1365 C481 1.382 . S
C1370 C923 1.383 . S
C1375 C1093 1.382 . S
C1380 C719 1.384 . S
C1385 C753 1.384 . S
C1390 C1025 1.380 . S
C1395 C787 1.385 . S
C1400 C1059 1.381 . S
C1405 C2 0.904 . S
C1410 C614 0.901 . S
C1415 C648 0.908 . S
C1420 C36 0.910 . S
C1425 C682 0.905 . S
C1430 C70 0.907 . S
C1435 C104 0.914 . S
C1440 C1124 0.912 . S
C1445 C138 0.914 . S
C1450 C1158 0.912 . S
C1455 C172 0.920 . S
C1460 C1192 0.919 . S
C1465 C206 0.904 . S
C1470 C818 0.902 . S
C1475 C240 0.910 . S
C1480 C852 0.908 . S
C1485 C274 0.908 . S
C1490 C886 0.906 . S
C1495 C512 0.914 . S
C1500 C308 0.916 . S
C1505 C342 0.915 . S
C1510 C546 0.913 . S
C1515 C580 0.912 . S
C1520 C376 0.914 . S
C1525 C410 0.961 . S
C1530 C1022 0.961 . S
C1535 C444 0.958 . S
C1540 C1056 0.958 . S
C1545 C1090 0.961 . S
C1550 C478 0.961 . S
C1555 C920 0.998 . S
C1560 C716 0.998 . S
C1565 C954 1.000 . S
C1570 C750 1.001 . S
C1575 C988 0.997 . S
C1580 C784 0.998 . S
C1585 C33 1.311 . S
C1590 C349 1.296 . S
C1595 C67 1.310 . S
C1600 C383 1.295 . S
C1605 C315 1.298 . S
C1610 C101 1.311 . S
C1615 C135 1.321 . S
C1620 C281 1.301 . S
C1625 C213 1.303 . S
C1630 C169 1.322 . S
C1635 C247 1.304 . S
C1640 C203 1.320 . S
C1645 C145 1.296 . S
C1650 C237 1.311 . S
C1655 C179 1.295 . S
C1660 C271 1.310 . S
C1665 C305 1.311 . S
C1670 C111 1.298 . S
C1675 C339 1.320 . S
C1680 C77 1.304 . S
C1685 C9 1.302 . S
C1690 C373 1.322 . S
C1695 C407 1.321 . S
C1700 C43 1.305 . S
C1705 C441 1.386 . S
C1710 C757 1.369 . S
C1715 C475 1.387 . S
C1720 C791 1.366 . S
C1725 C723 1.367 . S
C1730 C509 1.389 . S
C1735 C543 1.318 . S
C1740 C689 1.301 . S
C1745 C577 1.317 . S
C1750 C621 1.300 . S
C1755 C611 1.319 . S
C1760 C655 1.301 . S
C1765 C645 1.333 . S
C1770 C553 1.314 . S
C1775 C679 1.333 . S
C1780 C587 1.313 . S
C1785 C519 1.312 . S
C1790 C713 1.334 . S
C1795 C485 1.225 . S
C1800 C747 1.242 . S
C1805 C417 1.224 . S
C1810 C781 1.241 . S
C1815 C451 1.225 . S
C1820 C815 1.240 . S
C1825 C1165 1.314 . S
C1830 C849 1.333 . S
C1835 C1199 1.314 . S
C1840 C883 1.333 . S
C1845 C1131 1.315 . S
C1850 C917 1.334 . S
C1855 C1097 1.224 . S
C1860 C951 1.241 . S
C1865 C985 1.243 . S
C1870 C1029 1.225 . S
C1875 C1063 1.224 . S
C1880 C1019 1.241 . S
C1885 C961 1.365 . S
C1890 C1053 1.390 . S
C1895 C995 1.367 . S
C1900 C1087 1.388 . S
C1905 C927 1.367 . S
C1910 C1121 1.389 . S
C1915 C1155 1.318 . S
C1920 C893 1.298 . S
C1925 C825 1.301 . S
C1930 C1189 1.319 . S
C1935 C859 1.299 . S
C1940 C1223 1.320 . S
C1945 C190 1.126 . S
C1950 C20 1.126 . S
C1955 C54 1.126 . S
C1960 C122 1.126 . S
C1965 C156 1.128 . S
C1970 C88 1.127 . S
C1975 C394 1.128 . S
C1980 C224 1.127 . S
C1985 C326 1.126 . S
C1990 C258 1.126 . S
C1995 C360 1.128 . S
C2000 C292 1.127 . S
C2005 C598 1.151 . S
C2010 C428 1.150 . S
C2015 C530 1.148 . S
C2020 C462 1.147 . S
C2025 C564 1.150 . S
C2030 C496 1.149 . S
C2035 C632 1.170 . S
C2040 C802 1.167 . S
C2045 C734 1.167 . S
C2050 C666 1.171 . S
C2055 C700 1.172 . S
C2060 C768 1.168 . S
C2065 C1006 1.166 . S
C2070 C836 1.171 . S
C2075 C938 1.166 . S
C2080 C870 1.171 . S
C2085 C904 1.173 . S
C2090 C972 1.170 . S
C2095 C1210 1.151 . S
C2100 C1040 1.150 . S
C2105 C1142 1.148 . S
C2110 C1074 1.147 . S
C2115 C1176 1.150 . S
C2120 C1108 1.148 . S
