# Generated by pormake.
# Topology ths, (3)-cn, num edge types: 1
# Building blocks:
#     Node 0, Type 0, BuildingBlock: WUSLED_clean_sbu_0, # of connection points: 3
#     Node 1, Type 0, BuildingBlock: WUSLED_clean_sbu_0, # of connection points: 3
#     Node 2, Type 0, BuildingBlock: WUSLED_clean_sbu_0, # of connection points: 3
#     Node 3, Type 0, BuildingBlock: WUSLED_clean_sbu_0, # of connection points: 3
#     Node 4, Type 0, BuildingBlock: WUSLED_clean_sbu_0, # of connection points: 3
#     Node 5, Type 0, BuildingBlock: WUSLED_clean_sbu_0, # of connection points: 3
#     Node 6, Type 0, BuildingBlock: WUSLED_clean_sbu_0, # of connection points: 3
#     Node 7, Type 0, BuildingBlock: WUSLED_clean_sbu_0, # of connection points: 3
#     Edge 8, Type (0, 0), BuildingBlock: UVAHIK_clean_linker_0, # of connection points: 2
#     Edge 9, Type (0, 0), BuildingBlock: UVAHIK_clean_linker_0, # of connection points: 2
#     Edge 10, Type (0, 0), BuildingBlock: UVAHIK_clean_linker_0, # of connection points: 2
#     Edge 11, Type (0, 0), BuildingBlock: UVAHIK_clean_linker_0, # of connection points: 2
#     Edge 12, Type (0, 0), BuildingBlock: UVAHIK_clean_linker_0, # of connection points: 2
#     Edge 13, Type (0, 0), BuildingBlock: UVAHIK_clean_linker_0, # of connection points: 2
#     Edge 14, Type (0, 0), BuildingBlock: UVAHIK_clean_linker_0, # of connection points: 2
#     Edge 15, Type (0, 0), BuildingBlock: UVAHIK_clean_linker_0, # of connection points: 2
#     Edge 16, Type (0, 0), BuildingBlock: UVAHIK_clean_linker_0, # of connection points: 2
#     Edge 17, Type (0, 0), BuildingBlock: UVAHIK_clean_linker_0, # of connection points: 2
#     Edge 18, Type (0, 0), BuildingBlock: UVAHIK_clean_linker_0, # of connection points: 2
#     Edge 19, Type (0, 0), BuildingBlock: UVAHIK_clean_linker_0, # of connection points: 2
# Relax obj value: 0.000
# Max RMSD: 0.004
# Mean RMSD: 0.004
data_MOF--net-ths--node1-WUSLED_clean_sbu_0--edge1-UVAHIK_clean_linker_0
_symmetry_space_group_name_H-M    P1
_symmetry_Int_Tables_number       1
_symmetry_cell_setting            triclinic
loop_
_symmetry_equiv_pos_as_xyz
'x, y, z'
_cell_length_a     47.738319
_cell_length_b     47.757584
_cell_length_c     160.69141
_cell_angle_alpha  88.614862
_cell_angle_beta   90.632181
_cell_angle_gamma 90.668176
loop_
_atom_site_label
_atom_site_type_symbol
_atom_site_fract_x
_atom_site_fract_y
_atom_site_fract_z
_atom_type_partial_charge
C0 C 0.07274 0.82119 0.04215 0.0
C1 C 0.05326 0.84058 0.04497 0.0
C2 C 0.07348 0.87715 0.03597 0.0
C3 C 0.05355 0.86824 0.04188 0.0
C4 C 0.09309 0.85776 0.03322 0.0
C5 C 0.09263 0.83006 0.03625 0.0
U6 U 0.07184 0.76621 0.05987 0.0
O7 O 0.04954 0.72577 0.06103 0.0
O8 O 0.09549 0.72711 0.06145 0.0
C9 C 0.0728 0.71129 0.06123 0.0
C10 C 0.07274 0.79175 0.04523 0.0
C11 C 0.07363 0.68754 0.05558 0.0
C12 C 0.07185 0.6685 0.04169 0.0
C13 C 0.07125 0.69152 0.04692 0.0
C14 C 0.07738 0.63742 0.05372 0.0
C15 C 0.07493 0.64114 0.04502 0.0
C16 C 0.07673 0.6604 0.05893 0.0
C17 C 0.07034 0.79153 0.08236 0.0
C18 C 0.06908 0.7603 0.09454 0.0
C19 C 0.07308 0.81047 0.09623 0.0
C20 C 0.07249 0.81449 0.08759 0.0
C21 C 0.07157 0.78332 0.09982 0.0
C22 C 0.06855 0.76437 0.08587 0.0
C23 C 0.07052 0.79647 0.0733 0.0
O24 O 0.09555 0.78376 0.04924 0.0
O25 O 0.04959 0.78235 0.04874 0.0
O26 O 0.04788 0.78846 0.06923 0.0
O27 O 0.09383 0.78995 0.06957 0.0
H28 H 0.0378 0.83444 0.04957 0.0
H29 H 0.03838 0.88276 0.04419 0.0
H30 H 0.10853 0.8639 0.02861 0.0
H31 H 0.10782 0.81549 0.03398 0.0
H32 H 0.07021 0.67215 0.03502 0.0
H33 H 0.06893 0.71239 0.04423 0.0
H34 H 0.07937 0.61666 0.05651 0.0
H35 H 0.07851 0.65695 0.06561 0.0
H36 H 0.06809 0.73913 0.0971 0.0
H37 H 0.07455 0.82868 0.10011 0.0
H38 H 0.07382 0.83561 0.08499 0.0
H39 H 0.06697 0.74638 0.0819 0.0
C40 C 0.52139 0.76803 0.29171 0.0
C41 C 0.49882 0.76867 0.29722 0.0
C42 C 0.46575 0.7669 0.28556 0.0
C43 C 0.47124 0.76814 0.29417 0.0
C44 C 0.48855 0.76631 0.28008 0.0
C45 C 0.51609 0.76687 0.28314 0.0
U46 U 0.57419 0.76968 0.30965 0.0
O47 O 0.61342 0.74659 0.31159 0.0
O48 O 0.61426 0.79253 0.31086 0.0
C49 C 0.629 0.76945 0.31128 0.0
C50 C 0.55047 0.76839 0.29483 0.0
C51 C 0.65323 0.76871 0.30572 0.0
C52 C 0.67313 0.76666 0.29189 0.0
C53 C 0.64972 0.76746 0.29706 0.0
C54 C 0.7037 0.76837 0.30401 0.0
C55 C 0.70044 0.76703 0.29531 0.0
C56 C 0.68032 0.76919 0.30916 0.0
C57 C 0.5469 0.77128 0.33197 0.0
C58 C 0.57748 0.7711 0.34417 0.0
C59 C 0.52708 0.77056 0.34582 0.0
C60 C 0.52357 0.77099 0.33717 0.0
C61 C 0.55406 0.7704 0.34944 0.0
C62 C 0.57392 0.77148 0.3355 0.0
C63 C 0.54256 0.77087 0.32291 0.0
O64 O 0.55868 0.7917 0.29835 0.0
O65 O 0.55823 0.74578 0.29903 0.0
O66 O 0.54966 0.74758 0.31933 0.0
O67 O 0.55066 0.79353 0.31875 0.0
H68 H 0.50256 0.76948 0.30387 0.0
H69 H 0.45422 0.76828 0.29857 0.0
H70 H 0.48512 0.76575 0.27341 0.0
H71 H 0.53329 0.76643 0.2788 0.0
H72 H 0.66985 0.76535 0.28524 0.0
H73 H 0.6289 0.76702 0.29431 0.0
H74 H 0.72437 0.76913 0.30685 0.0
H75 H 0.68339 0.77025 0.31583 0.0
H76 H 0.59853 0.77073 0.34675 0.0
H77 H 0.50861 0.77048 0.34968 0.0
H78 H 0.50256 0.77093 0.33454 0.0
H79 H 0.59218 0.77164 0.33156 0.0
C80 C 0.57636 0.32023 0.54188 0.0
C81 C 0.57541 0.34244 0.54743 0.0
C82 C 0.5755 0.37618 0.53578 0.0
C83 C 0.575 0.37018 0.5444 0.0
C84 C 0.57645 0.35373 0.53027 0.0
C85 C 0.57688 0.32604 0.5333 0.0
U86 U 0.57703 0.26598 0.5597 0.0
O87 O 0.55499 0.22548 0.561 0.0
O88 O 0.60096 0.22697 0.56118 0.0
C89 C 0.5783 0.21108 0.56104 0.0
C90 C 0.57691 0.29099 0.54496 0.0
C91 C 0.57889 0.18743 0.55535 0.0
C92 C 0.57069 0.16758 0.54173 0.0
C93 C 0.5706 0.19058 0.54697 0.0
C94 C 0.58783 0.13821 0.55314 0.0
C95 C 0.57924 0.14108 0.54476 0.0
C96 C 0.58762 0.16116 0.55838 0.0
C97 C 0.57567 0.29069 0.58217 0.0
C98 C 0.57788 0.25868 0.59415 0.0
C99 C 0.57272 0.30847 0.59615 0.0
C100 C 0.57297 0.31314 0.58754 0.0
C101 C 0.57515 0.28119 0.59958 0.0
C102 C 0.57808 0.26339 0.58551 0.0
C103 C 0.57589 0.29617 0.57313 0.0
O104 O 0.59995 0.28351 0.54893 0.0
O105 O 0.55401 0.28194 0.54867 0.0
O106 O 0.55321 0.28828 0.56907 0.0
O107 O 0.59916 0.28981 0.56935 0.0
H108 H 0.57495 0.3383 0.55408 0.0
H109 H 0.57394 0.38691 0.54882 0.0
H110 H 0.57727 0.35757 0.52361 0.0
H111 H 0.57772 0.30913 0.52894 0.0
H112 H 0.56427 0.17058 0.53529 0.0
H113 H 0.56395 0.21078 0.54451 0.0
H114 H 0.59422 0.11807 0.55571 0.0
H115 H 0.59407 0.15835 0.56483 0.0
H116 H 0.57952 0.2374 0.59657 0.0
H117 H 0.57103 0.32632 0.60014 0.0
H118 H 0.57116 0.33435 0.58506 0.0
H119 H 0.58009 0.24579 0.58144 0.0
C120 C 0.03021 0.27025 0.79147 0.0
C121 C 1.00767 0.26948 0.79701 0.0
C122 C 0.97453 0.26973 0.78534 0.0
C123 C 0.98007 0.2692 0.79397 0.0
C124 C 0.9973 0.27057 0.77984 0.0
C125 C 0.02486 0.27082 0.78288 0.0
U126 U 0.08313 0.27056 0.80938 0.0
O127 O 0.12219 0.24708 0.81118 0.0
O128 O 0.12339 0.29303 0.81068 0.0
C129 C 0.13795 0.26983 0.81098 0.0
C130 C 0.0593 0.27026 0.79458 0.0
C131 C 0.16215 0.26918 0.80541 0.0
C132 C 0.18204 0.26864 0.79156 0.0
C133 C 0.15864 0.26942 0.79673 0.0
C134 C 0.21257 0.26736 0.8037 0.0
C135 C 0.20931 0.26754 0.79499 0.0
C136 C 0.18921 0.26817 0.80886 0.0
C137 C 0.05618 0.27103 0.83176 0.0
C138 C 0.08623 0.27694 0.84392 0.0
C139 C 0.03751 0.26345 0.84563 0.0
C140 C 0.03377 0.26409 0.83699 0.0
C141 C 0.06379 0.26979 0.84921 0.0
C142 C 0.08248 0.27745 0.83526 0.0
C143 C 0.05169 0.27114 0.82269 0.0
O144 O 0.06767 0.29331 0.79821 0.0
O145 O 0.06696 0.24737 0.79865 0.0
O146 O 0.05857 0.24801 0.81898 0.0
O147 O 0.05979 0.29397 0.81861 0.0
H148 H 1.01145 0.2691 0.80367 0.0
H149 H 0.96307 0.26889 0.79838 0.0
H150 H 0.99383 0.27061 0.77316 0.0
H151 H 0.04203 0.27132 0.77852 0.0
H152 H 0.17875 0.26852 0.78488 0.0
H153 H 0.13784 0.27011 0.79397 0.0
H154 H 0.23323 0.26696 0.80655 0.0
H155 H 0.19228 0.26805 0.81555 0.0
H156 H 0.10679 0.28165 0.84648 0.0
H157 H 1.01971 0.25823 0.84952 0.0
H158 H 1.01332 0.25911 0.83439 0.0
H159 H 0.10009 0.28272 0.8313 0.0
C160 C 0.07653 0.21724 0.99663 0.0
C161 C 0.06305 0.19598 0.99214 0.0
C162 C 0.07665 0.16128 1.00276 0.0
C163 C 0.06298 0.16829 0.99521 0.0
C164 C 0.09042 0.18259 1.00717 0.0
C165 C 0.09028 0.21031 1.00414 0.0
U166 U 0.07698 0.27167 0.97885 0.0
O167 O 0.05351 0.31083 0.97718 0.0
O168 O 0.09947 0.31199 0.97759 0.0
C169 C 0.07627 0.32656 0.97736 0.0
C170 C 0.07652 0.24662 0.99357 0.0
C171 C 0.07551 0.35043 0.98297 0.0
C172 C 0.07716 0.36968 0.99684 0.0
C173 C 0.07782 0.34658 0.99163 0.0
C174 C 0.07172 0.40059 0.98476 0.0
C175 C 0.07408 0.39699 0.99346 0.0
C176 C 0.07244 0.37752 0.97958 0.0
C177 C 0.07859 0.24545 0.95645 0.0
C178 C 0.07505 0.27574 0.9441 0.0
C179 C 0.08241 0.22597 0.9427 0.0
C180 C 0.08241 0.22246 0.95136 0.0
C181 C 0.07854 0.25261 0.93895 0.0
C182 C 0.07506 0.27218 0.95279 0.0
C183 C 0.07819 0.24093 0.96553 0.0
O184 O 0.09965 0.2554 0.98994 0.0
O185 O 0.05368 0.25485 0.98962 0.0
O186 O 0.05489 0.24773 0.96922 0.0
O187 O 0.10085 0.24899 0.96956 0.0
H188 H 0.05255 0.20077 0.98628 0.0
H189 H 0.05249 0.1523 0.99162 0.0
H190 H 0.10093 0.17792 1.01304 0.0
H191 H 0.10084 0.22639 1.00769 0.0
H192 H 0.07872 0.36613 1.00351 0.0
H193 H 0.0801 0.32575 0.99436 0.0
H194 H 0.06973 0.4213 0.98194 0.0
H195 H 0.07069 0.38087 0.9729 0.0
H196 H 0.0718 0.29649 0.94142 0.0
H197 H 0.08566 0.20779 0.93894 0.0
H198 H 0.08533 0.20171 0.95408 0.0
H199 H 0.0721 0.29019 0.95664 0.0
C200 C 0.12599 0.76145 0.24715 0.0
C201 C 0.14849 0.7608 0.24161 0.0
C202 C 0.18171 0.76245 0.25324 0.0
C203 C 0.17611 0.76128 0.24463 0.0
C204 C 0.15898 0.76304 0.25874 0.0
C205 C 0.1314 0.76254 0.25572 0.0
U206 U 0.07288 0.76033 0.22928 0.0
O207 O 0.0327 0.73764 0.22809 0.0
O208 O 0.03369 0.78358 0.22745 0.0
C209 C 1.01803 0.76077 0.22773 0.0
C210 C 0.09687 0.76121 0.24406 0.0
C211 C 0.99387 0.76148 0.23331 0.0
C212 C 0.9741 0.76353 0.24716 0.0
C213 C 0.99747 0.76271 0.24198 0.0
C214 C 0.94342 0.76185 0.23507 0.0
C215 C 0.94677 0.76318 0.24376 0.0
C216 C 0.96675 0.76102 0.2299 0.0
C217 C 0.09952 0.75924 0.20689 0.0
C218 C 0.06847 0.75912 0.1948 0.0
C219 C 0.11878 0.7611 0.19297 0.0
C220 C 0.12264 0.76039 0.20161 0.0
C221 C 0.09165 0.76068 0.18945 0.0
C222 C 0.07238 0.75847 0.20346 0.0
C223 C 0.10418 0.75938 0.21595 0.0
O224 O 0.0891 0.78394 0.23992 0.0
O225 O 0.08855 0.73801 0.2405 0.0
O226 O 0.09613 0.73665 0.22008 0.0
O227 O 0.09728 0.7826 0.2196 0.0
H228 H 0.14466 0.76006 0.23496 0.0
H229 H 0.19307 0.76114 0.24021 0.0
H230 H 0.1625 0.76355 0.26541 0.0
H231 H 0.11426 0.76298 0.26008 0.0
H232 H 0.97745 0.76483 0.25382 0.0
H233 H 1.01831 0.76314 0.24471 0.0
H234 H 0.92273 0.7611 0.23224 0.0
H235 H 0.96361 0.75997 0.22323 0.0
H236 H 0.04732 0.75903 0.19229 0.0
H237 H 0.13708 0.76186 0.18905 0.0
H238 H 0.14374 0.76091 0.20417 0.0
H239 H 0.05427 0.75765 0.20747 0.0
C240 C 0.57471 0.71703 0.49698 0.0
C241 C 0.57553 0.69473 0.49146 0.0
C242 C 0.57548 0.66116 0.50315 0.0
C243 C 0.57591 0.66703 0.49452 0.0
C244 C 0.57466 0.68368 0.50863 0.0
C245 C 0.57428 0.71134 0.50557 0.0
U246 U 0.57301 0.77072 0.47905 0.0
O247 O 0.54894 0.80962 0.47757 0.0
O248 O 0.5949 0.81122 0.47749 0.0
C249 C 0.57156 0.82557 0.47754 0.0
C250 C 0.57409 0.74622 0.49386 0.0
C251 C 0.57126 0.84933 0.4832 0.0
C252 C 0.57964 0.86928 0.4968 0.0
C253 C 0.57962 0.84623 0.49157 0.0
C254 C 0.56251 0.89861 0.48538 0.0
C255 C 0.57113 0.89578 0.49375 0.0
C256 C 0.56261 0.8756 0.48016 0.0
C257 C 0.57248 0.74438 0.45667 0.0
C258 C 0.57434 0.77505 0.44438 0.0
C259 C 0.56829 0.72497 0.44289 0.0
C260 C 0.56912 0.72129 0.45154 0.0
C261 C 0.5708 0.75188 0.43919 0.0
C262 C 0.5751 0.77132 0.45306 0.0
C263 C 0.57309 0.73981 0.46575 0.0
O264 O 0.59674 0.75509 0.48999 0.0
O265 O 0.55081 0.75368 0.49001 0.0
O266 O 0.55012 0.74641 0.46965 0.0
O267 O 0.59608 0.74807 0.46959 0.0
H268 H 0.57591 0.69878 0.4848 0.0
H269 H 0.57687 0.65024 0.49013 0.0
H270 H 0.5739 0.67995 0.5153 0.0
H271 H 0.57352 0.72832 0.50991 0.0
H272 H 0.58607 0.8663 0.50324 0.0
H273 H 0.5862 0.82602 0.49405 0.0
H274 H 0.55616 0.91875 0.4828 0.0
H275 H 0.5561 0.87838 0.47371 0.0
H276 H 0.57609 0.79606 0.44174 0.0
H277 H 0.56599 0.70664 0.43909 0.0
H278 H 0.56716 0.70033 0.45423 0.0
H279 H 0.57763 0.78942 0.45695 0.0
C280 C 0.63515 0.26167 0.74672 0.0
C281 C 0.65765 0.26232 0.74117 0.0
C282 C 0.69086 0.26212 0.75282 0.0
C283 C 0.68527 0.26257 0.74419 0.0
C284 C 0.66813 0.2614 0.75833 0.0
C285 C 0.64055 0.26118 0.7553 0.0
U286 U 0.58176 0.26041 0.7289 0.0
O287 O 0.54144 0.23793 0.72784 0.0
O288 O 0.54268 0.28386 0.72708 0.0
C289 C 0.5269 0.26114 0.72744 0.0
C290 C 0.60602 0.26163 0.74364 0.0
C291 C 0.50281 0.26215 0.73304 0.0
C292 C 0.48312 0.26295 0.74692 0.0
C293 C 0.50644 0.262 0.74172 0.0
C294 C 0.45244 0.26426 0.73481 0.0
C295 C 0.45582 0.26414 0.74352 0.0
C296 C 0.47572 0.26327 0.72963 0.0
C297 C 0.60723 0.25794 0.70647 0.0
C298 C 0.57513 0.25824 0.69463 0.0
C299 C 0.62521 0.25667 0.69241 0.0
C300 C 0.62985 0.25696 0.70102 0.0
C301 C 0.5978 0.25736 0.6891 0.0
C302 C 0.57982 0.25851 0.70324 0.0
C303 C 0.61261 0.25863 0.71549 0.0
O304 O 0.59843 0.28428 0.73943 0.0
O305 O 0.59745 0.23836 0.74017 0.0
O306 O 0.6047 0.23615 0.71976 0.0
O307 O 0.60602 0.28207 0.71907 0.0
H308 H 0.65382 0.26262 0.73451 0.0
H309 H 0.70224 0.26279 0.73977 0.0
H310 H 0.67164 0.26142 0.765 0.0
H311 H 0.62341 0.26076 0.75967 0.0
H312 H 0.4865 0.26312 0.75359 0.0
H313 H 0.52727 0.26121 0.74445 0.0
H314 H 0.43174 0.26472 0.73198 0.0
H315 H 0.47255 0.26331 0.72294 0.0
H316 H 0.55376 0.25848 0.6923 0.0
H317 H 0.64315 0.25642 0.68835 0.0
H318 H 0.65115 0.25661 0.70341 0.0
H319 H 0.56209 0.25921 0.70738 0.0
C320 C 0.0919 0.42368 1.00581 0.0
C321 C 0.07352 0.42171 0.99894 0.0
C322 C 0.09191 0.44731 1.0108 0.0
C323 C 0.07108 0.52182 1.01058 0.0
H324 H 0.07948 0.51379 0.03454 0.0
C325 C 0.05694 0.61462 0.03266 0.0
C326 C 0.0754 0.6165 0.03951 0.0
C327 C 0.05681 0.59102 0.02766 0.0
C328 C 0.07744 0.51645 0.02785 0.0
H329 H 0.04014 0.44279 0.99211 0.0
H330 H 0.04012 0.4839 1.0008 0.0
H331 H 0.07878 0.47222 0.02603 0.0
H332 H 0.10882 0.59531 0.0463 0.0
H333 H 0.10864 0.55426 0.03758 0.0
H334 H 0.06973 0.56606 1.0124 0.0
C335 C 0.05492 0.46742 1.00224 0.0
C336 C 0.07703 0.49259 0.02296 0.0
C337 C 0.05492 0.44382 0.99725 0.0
C338 C 0.09397 0.59435 0.04117 0.0
C339 C 0.09386 0.57078 0.03617 0.0
C340 C 0.07148 0.54569 1.01546 0.0
C341 C 0.07352 0.46955 1.00905 0.0
C342 C 0.07385 0.49496 1.01426 0.0
C343 C 0.07516 0.56872 0.02938 0.0
C344 C 0.0747 0.54332 0.02416 0.0
H345 H 0.10676 0.40723 1.00722 0.0
H346 H 0.10678 0.44839 1.01592 0.0
H347 H 0.06905 0.52448 1.00389 0.0
H348 H 0.0421 0.63111 0.03127 0.0
H349 H 0.04189 0.58999 0.02255 0.0
C350 C 0.89842 0.78029 0.24686 0.0
C351 C 0.92179 0.76414 0.24923 0.0
C352 C 0.87467 0.78072 0.25187 0.0
C353 C 0.83814 0.74025 0.2685 0.0
H354 H 0.79863 0.8097 0.27149 0.0
C355 C 0.74883 0.74999 0.29225 0.0
C356 C 0.72547 0.76611 0.28987 0.0
C357 C 0.77262 0.74958 0.28725 0.0
C358 C 0.80921 0.79006 0.27064 0.0
H359 H 0.93839 0.73579 0.25875 0.0
H360 H 0.89714 0.73693 0.26757 0.0
H361 H 0.84062 0.80962 0.26299 0.0
H362 H 0.7089 0.79445 0.28033 0.0
H363 H 0.75021 0.79335 0.27154 0.0
H364 H 0.80673 0.72069 0.27614 0.0
C365 C 0.89709 0.74903 0.26178 0.0
C366 C 0.83332 0.79001 0.26577 0.0
C367 C 0.92088 0.74864 0.25677 0.0
C368 C 0.72641 0.78162 0.28232 0.0
C369 C 0.75024 0.78125 0.27733 0.0
C370 C 0.81403 0.74029 0.27337 0.0
C371 C 0.87364 0.765 0.25938 0.0
C372 C 0.8481 0.76511 0.26463 0.0
C373 C 0.77369 0.7653 0.27975 0.0
C374 C 0.79924 0.7652 0.2745 0.0
H375 H 0.89851 0.79275 0.24114 0.0
H376 H 0.85692 0.79305 0.24979 0.0
H377 H 0.84872 0.7206 0.26764 0.0
H378 H 0.74872 0.73752 0.29797 0.0
H379 H 0.79037 0.73727 0.28935 0.0
C380 C 0.59094 0.42669 0.53645 0.0
C381 C 0.57513 0.40566 0.53253 0.0
C382 C 0.59092 0.45427 0.53331 0.0
C383 C 0.55039 0.50321 0.51973 0.0
H384 H 0.62011 0.54564 0.51906 0.0
C385 C 0.55988 0.61068 0.50253 0.0
C386 C 0.57576 0.6317 0.50644 0.0
C387 C 0.55986 0.58311 0.50569 0.0
C388 C 0.60039 0.53421 0.51928 0.0
H389 H 0.54649 0.39741 0.52228 0.0
H390 H 0.54684 0.44535 0.51672 0.0
H391 H 0.61978 0.49776 0.52467 0.0
H392 H 0.60447 0.63998 0.51667 0.0
H393 H 0.60403 0.59208 0.52226 0.0
H394 H 0.531 0.53966 0.51434 0.0
C395 C 0.5591 0.44057 0.52228 0.0
C396 C 0.60021 0.50674 0.52251 0.0
C397 C 0.55916 0.41298 0.52541 0.0
C398 C 0.59174 0.62441 0.51355 0.0
C399 C 0.59175 0.59685 0.5167 0.0
C400 C 0.55058 0.53069 0.5165 0.0
C401 C 0.57504 0.46156 0.52617 0.0
C402 C 0.5752 0.49088 0.52278 0.0
C403 C 0.57576 0.57585 0.51283 0.0
C404 C 0.57558 0.54654 0.51624 0.0
H405 H 0.60369 0.42176 0.5419 0.0
H406 H 0.60319 0.46996 0.53653 0.0
H407 H 0.53068 0.49177 0.51996 0.0
H408 H 0.54712 0.61559 0.49709 0.0
H409 H 0.54754 0.56743 0.50249 0.0
C410 C 0.92471 0.25192 0.78585 0.0
C411 C 0.94519 0.26925 0.78208 0.0
C412 C 0.89727 0.25117 0.78271 0.0
C413 C 0.84709 0.29146 0.76952 0.0
H414 H 0.80777 0.22018 0.76821 0.0
C415 C 0.74071 0.27984 0.75228 0.0
C416 C 0.72022 0.26256 0.75607 0.0
C417 C 0.76816 0.28057 0.75542 0.0
C418 C 0.81833 0.2403 0.76861 0.0
H419 H 0.95261 0.29975 0.7721 0.0
H420 H 0.90492 0.29809 0.76654 0.0
H421 H 0.85543 0.22178 0.77381 0.0
H422 H 0.71278 0.23211 0.76606 0.0
H423 H 0.76048 0.23374 0.77161 0.0
H424 H 0.80999 0.30999 0.76433 0.0
C425 C 0.91002 0.28522 0.77198 0.0
C426 C 0.84567 0.24122 0.77183 0.0
C427 C 0.93747 0.28593 0.77511 0.0
C428 C 0.72793 0.24589 0.76304 0.0
C429 C 0.75539 0.24658 0.76617 0.0
C430 C 0.81975 0.29054 0.7663 0.0
C431 C 0.88958 0.26777 0.77572 0.0
C432 C 0.86041 0.26682 0.77232 0.0
C433 C 0.77584 0.26399 0.76241 0.0
C434 C 0.80501 0.26495 0.76581 0.0
H435 H 0.92997 0.23859 0.79117 0.0
H436 H 0.882 0.23772 0.7858 0.0
H437 H 0.85764 0.31159 0.76993 0.0
H438 H 0.73545 0.29314 0.74695 0.0
H439 H 0.78344 0.29399 0.75232 0.0
C440 C 0.42936 0.24839 0.75631 0.0
C441 C 0.43088 0.26511 0.749 0.0
C442 C 0.40555 0.24874 0.76131 0.0
C443 C 0.34319 0.29105 0.76589 0.0
H444 H 0.31409 0.22098 0.77514 0.0
C445 C 0.23587 0.28338 0.78222 0.0
C446 C 0.23431 0.26666 0.78953 0.0
C447 C 0.25971 0.28306 0.77724 0.0
C448 C 0.3221 0.24078 0.77268 0.0
H449 H 0.40872 0.29582 0.74134 0.0
H450 H 0.36709 0.29608 0.74997 0.0
H451 H 0.35618 0.22098 0.76668 0.0
H452 H 0.25646 0.23596 0.7972 0.0
H453 H 0.29815 0.23576 0.7886 0.0
H454 H 0.30911 0.31084 0.77189 0.0
C455 C 0.38437 0.28281 0.75188 0.0
C456 C 0.34626 0.24078 0.76783 0.0
C457 C 0.40814 0.28243 0.74687 0.0
C458 C 0.25707 0.24937 0.79167 0.0
C459 C 0.28087 0.24901 0.78668 0.0
C460 C 0.31902 0.29105 0.77074 0.0
C461 C 0.3827 0.26588 0.75914 0.0
C462 C 0.35712 0.26592 0.76437 0.0
C463 C 0.28256 0.26594 0.77942 0.0
C464 C 0.30816 0.26591 0.7742 0.0
H465 H 0.44638 0.23463 0.7581 0.0
H466 H 0.40512 0.23567 0.76691 0.0
H467 H 0.35119 0.31085 0.76343 0.0
H468 H 0.21884 0.29712 0.78042 0.0
H469 H 0.26017 0.29613 0.77164 0.0
C470 C 0.23171 0.74625 0.25303 0.0
C471 C 0.21108 0.7631 0.25648 0.0
C472 C 0.25921 0.74667 0.25614 0.0
C473 C 0.30905 0.78967 0.26839 0.0
H474 H 0.34939 0.71999 0.2711 0.0
C475 C 0.41575 0.78311 0.28572 0.0
C476 C 0.43641 0.76625 0.28229 0.0
C477 C 0.38828 0.78269 0.28258 0.0
C478 C 0.33855 0.73968 0.2703 0.0
H479 H 0.20344 0.79399 0.26585 0.0
H480 H 0.2512 0.79437 0.27136 0.0
H481 H 0.30165 0.71945 0.26555 0.0
H482 H 0.44416 0.73534 0.27293 0.0
H483 H 0.39644 0.73496 0.26738 0.0
H484 H 0.34594 0.8099 0.27314 0.0
C485 C 0.24619 0.78096 0.26619 0.0
C486 C 0.31115 0.73937 0.26711 0.0
C487 C 0.21869 0.7805 0.2631 0.0
C488 C 0.42887 0.74884 0.27567 0.0
C489 C 0.4014 0.74837 0.27254 0.0
C490 C 0.33644 0.78998 0.27158 0.0
C491 C 0.2668 0.76401 0.26277 0.0
C492 C 0.29604 0.76436 0.26612 0.0
C493 C 0.38076 0.76533 0.27595 0.0
C494 C 0.35155 0.76499 0.27257 0.0
H495 H 0.22654 0.73241 0.24798 0.0
H496 H 0.2746 0.73357 0.25329 0.0
H497 H 0.2982 0.80936 0.26759 0.0
H498 H 0.42086 0.79697 0.29076 0.0
H499 H 0.37286 0.79579 0.28541 0.0
C500 C 0.54963 0.93994 0.49887 0.0
C501 C 0.57154 0.92049 0.49923 0.0
C502 C 0.55039 0.9636 0.50383 0.0
C503 C 0.59945 1.00905 0.51547 0.0
H504 H 0.53199 0.03441 0.52603 0.0
C505 C 0.60078 0.09695 0.53963 0.0
C506 C 0.57886 0.11638 0.53927 0.0
C507 C 0.60002 0.07328 0.53467 0.0
C508 C 0.55095 0.02782 0.52304 0.0
H509 H 0.61144 0.91076 0.50513 0.0
H510 H 0.61257 0.95183 0.51388 0.0
H511 H 0.53025 0.99243 0.51769 0.0
H512 H 0.53895 0.1261 0.53338 0.0
H513 H 0.53782 0.08504 0.52463 0.0
H514 H 0.62015 0.04444 0.52082 0.0
C515 C 0.59491 0.9489 0.50969 0.0
C516 C 0.54996 1.00371 0.51827 0.0
C517 C 0.5941 0.92518 0.50474 0.0
C518 C 0.55629 0.1117 0.53376 0.0
C519 C 0.55549 0.08797 0.52882 0.0
C520 C 0.60044 0.03316 0.52024 0.0
C521 C 0.57311 0.96848 0.50927 0.0
C522 C 0.5742 0.99402 0.51442 0.0
C523 C 0.57729 0.0684 0.52924 0.0
C524 C 0.5762 0.04285 0.52409 0.0
H525 H 0.53178 0.93682 0.49476 0.0
H526 H 0.53336 0.97835 0.5033 0.0
H527 H 0.61842 1.00245 0.51248 0.0
H528 H 0.61862 0.10006 0.54374 0.0
H529 H 0.61705 0.05854 0.53521 0.0
C530 C 0.04867 0.91973 0.03026 0.0
C531 C 0.07375 0.90651 0.03265 0.0
C532 C 0.04897 0.94718 0.02701 0.0
C533 C 0.09648 1.00094 1.01741 0.0
H534 H 0.03681 0.05159 0.02281 0.0
C535 C 0.10093 0.11981 1.00939 0.0
C536 C 0.07639 0.1319 1.00607 0.0
C537 C 0.10063 0.09225 1.01255 0.0
C538 C 0.05349 0.03762 0.02118 0.0
H539 H 0.11877 0.91201 0.03367 0.0
H540 H 0.11931 0.96003 0.02817 0.0
H541 H 0.03636 1.00394 0.0286 0.0
H542 H 0.03226 0.12457 1.00352 0.0
H543 H 0.03174 0.07643 1.00904 0.0
H544 H 0.11379 0.03489 1.01009 0.0
C545 C 0.09941 0.949 0.02859 0.0
C546 C 0.05322 1.01024 0.02449 0.0
C547 C 0.09912 0.92147 0.03178 0.0
C548 C 0.05155 0.11579 1.00598 0.0
C549 C 0.0512 0.08831 1.00921 0.0
C550 C 0.09686 0.02839 1.01416 0.0
C551 C 0.07435 0.96222 0.02613 0.0
C552 C 0.07469 0.99148 0.02264 0.0
C553 C 0.07574 0.07622 1.01253 0.0
C554 C 0.07535 0.04703 1.01599 0.0
H555 H 0.02881 0.90863 0.03075 0.0
H556 H 0.02929 0.95642 0.02505 0.0
H557 H 0.1131 0.98702 1.01571 0.0
H558 H 0.12045 0.1316 1.00948 0.0
H559 H 0.11984 0.0836 1.01512 0.0
C560 C 0.10442 0.78089 0.17542 0.0
C561 C 0.08773 0.76247 0.18025 0.0
C562 C 0.1011 0.78256 0.16678 0.0
C563 C 0.07421 0.74346 0.14878 0.0
H564 H 0.07838 0.81627 0.13763 0.0
C565 C 0.0552 0.75987 0.11316 0.0
C566 C 0.0729 0.7793 0.10903 0.0
C567 C 0.05587 0.75706 0.12186 0.0
C568 C 0.07745 0.79573 0.14063 0.0
H569 H 0.05445 0.73124 0.17975 0.0
H570 H 0.04841 0.73439 0.16462 0.0
H571 H 0.08116 0.81302 0.15275 0.0
H572 H 0.10602 0.81011 0.11081 0.0
H573 H 0.10726 0.80518 0.12591 0.0
H574 H 0.07071 0.72619 0.13662 0.0
C575 C 0.06424 0.7474 0.16754 0.0
C576 C 0.07902 0.79388 0.14931 0.0
C577 C 0.0675 0.7458 0.17622 0.0
C578 C 0.09167 0.79539 0.11379 0.0
C579 C 0.09236 0.79258 0.12246 0.0
C580 C 0.07266 0.74531 0.14007 0.0
C581 C 0.08099 0.76584 0.16272 0.0
C582 C 0.07776 0.76772 0.1535 0.0
C583 C 0.07428 0.77361 0.12662 0.0
C584 C 0.07462 0.77147 0.13589 0.0
H585 H 0.11997 0.79427 0.17833 0.0
H586 H 0.11457 0.79675 0.16326 0.0
H587 H 0.07342 0.72296 0.15181 0.0
H588 H 0.04033 0.74732 0.10968 0.0
H589 H 0.04151 0.74241 0.12487 0.0
C590 C 0.58808 0.77409 0.42578 0.0
C591 C 0.56963 0.75554 0.42996 0.0
C592 C 0.58763 0.77646 0.41707 0.0
C593 C 0.5651 0.73754 0.39846 0.0
H594 H 0.57206 0.80953 0.38695 0.0
C595 C 0.54015 0.75127 0.3635 0.0
C596 C 0.55758 0.76894 0.35866 0.0
C597 C 0.54306 0.74996 0.37216 0.0
C598 C 0.57045 0.78923 0.39007 0.0
H599 H 0.53542 0.72587 0.42827 0.0
H600 H 0.53458 0.73003 0.41315 0.0
H601 H 0.57415 0.80707 0.40215 0.0
H602 H 0.59176 0.79919 0.35916 0.0
H603 H 0.59707 0.79664 0.37431 0.0
H604 H 0.56125 0.71967 0.38642 0.0
C605 C 0.54987 0.74228 0.41657 0.0
C606 C 0.57163 0.78782 0.39878 0.0
C607 C 0.55033 0.73991 0.42525 0.0
C608 C 0.57813 0.7852 0.3627 0.0
C609 C 0.58098 0.78396 0.37139 0.0
C610 C 0.56392 0.73894 0.38977 0.0
C611 C 0.5687 0.76034 0.41236 0.0
C612 C 0.56864 0.76197 0.40309 0.0
C613 C 0.56348 0.76628 0.37622 0.0
C614 C 0.56625 0.76482 0.38546 0.0
H615 H 0.60338 0.78625 0.42922 0.0
H616 H 0.60257 0.79041 0.41402 0.0
H617 H 0.56336 0.71721 0.40156 0.0
H618 H 0.52434 0.7382 0.36059 0.0
H619 H 0.52901 0.73637 0.37568 0.0
C620 C 0.55685 0.29144 0.61379 0.0
C621 C 0.5751 0.27644 0.60878 0.0
C622 C 0.5576 0.28798 0.62245 0.0
C623 C 0.58204 0.24054 0.63957 0.0
H624 H 0.57785 0.30734 0.65273 0.0
C625 C 0.60929 0.24105 0.67477 0.0
C626 C 0.59302 0.25767 0.67992 0.0
C627 C 0.60561 0.2422 0.66612 0.0
C628 C 0.57865 0.28841 0.64917 0.0
H629 H 0.60831 0.24583 0.60898 0.0
H630 H 0.60964 0.2398 0.6241 0.0
H631 H 0.57414 0.31127 0.63763 0.0
H632 H 0.55989 0.28837 0.67998 0.0
H633 H 0.55312 0.28998 0.66491 0.0
H634 H 0.58675 0.21772 0.65114 0.0
C635 C 0.59449 0.25401 0.62132 0.0
C636 C 0.57654 0.29067 0.6405 0.0
C637 C 0.59374 0.25747 0.61264 0.0
C638 C 0.57264 0.27511 0.67621 0.0
C639 C 0.56898 0.27629 0.66756 0.0
C640 C 0.58414 0.23828 0.64826 0.0
C641 C 0.57662 0.26944 0.62633 0.0
C642 C 0.57828 0.26679 0.63558 0.0
C643 C 0.58559 0.26002 0.6624 0.0
C644 C 0.58257 0.2622 0.65317 0.0
H645 H 0.54186 0.30582 0.61101 0.0
H646 H 0.54317 0.2998 0.62611 0.0
H647 H 0.58308 0.22168 0.63599 0.0
H648 H 0.62493 0.22712 0.67742 0.0
H649 H 0.61893 0.22957 0.66234 0.0
C650 C 0.06412 0.23584 0.92483 0.0
C651 C 0.07786 0.25594 0.92971 0.0
C652 C 0.06414 0.23823 0.91615 0.0
C653 C 0.0744 0.28854 0.89858 0.0
H654 H 0.08399 0.22092 0.88608 0.0
C655 C 0.08311 0.28946 0.86253 0.0
C656 C 0.06768 0.26859 0.85841 0.0
C657 C 0.08603 0.28854 0.87122 0.0
C658 C 0.08106 0.23997 0.88947 0.0
H659 H 0.10222 0.29455 0.92924 0.0
H660 H 0.10221 0.29877 0.91405 0.0
H661 H 0.08567 0.2185 0.90123 0.0
H662 H 0.04382 0.23003 0.86019 0.0
H663 H 0.04861 0.2286 0.87529 0.0
H664 H 0.06961 0.30995 0.88678 0.0
C665 C 0.09123 0.28124 0.91697 0.0
C666 C 0.082 0.23858 0.89817 0.0
C667 C 0.09122 0.27882 0.92568 0.0
C668 C 0.05557 0.24661 0.86317 0.0
C669 C 0.05859 0.24563 0.87183 0.0
C670 C 0.07347 0.28993 0.88987 0.0
C671 C 0.0779 0.26081 0.9121 0.0
C672 C 0.07831 0.26276 0.90284 0.0
C673 C 0.07378 0.2666 0.87597 0.0
C674 C 0.07643 0.26558 0.88521 0.0
H675 H 0.0531 0.21827 0.92773 0.0
H676 H 0.05312 0.22246 0.91261 0.0
H677 H 0.07124 0.30752 0.90199 0.0
H678 H 0.09253 0.30678 0.85906 0.0
H679 H 0.09805 0.30491 0.87421 0.0
loop_
_geom_bond_atom_site_label_1
_geom_bond_atom_site_label_2
_geom_bond_distance
_geom_bond_site_symmetry_2
_ccdc_geom_bond_type
C0 C1 1.264 . S
C0 C5 1.479 . S
C0 C10 1.465 . S
C1 C0 1.264 . S
C1 C3 1.339 . S
C1 H28 0.931 . S
C2 C3 1.395 . S
C2 C4 1.320 . S
C3 C1 1.339 . S
C3 C2 1.395 . S
C3 H29 0.929 . S
C4 C2 1.320 . S
C4 C5 1.405 . S
C4 H30 0.930 . S
C5 C0 1.479 . S
C5 C4 1.405 . S
C5 H31 0.931 . S
U6 O7 2.454 . S
U6 O8 2.458 . S
U6 C9 2.984 . S
U6 C10 2.847 . S
U6 C23 2.882 . S
U6 O24 2.441 . S
U6 O25 2.420 . S
U6 O26 2.455 . S
U6 O27 2.449 . S
O7 U6 2.454 . S
O7 C9 1.353 . S
O8 U6 2.458 . S
O8 C9 1.286 . S
C9 U6 2.984 . S
C9 O7 1.353 . S
C9 O8 1.286 . S
C9 C11 1.363 . S
C10 C0 1.465 . S
C10 U6 2.847 . S
C10 O24 1.249 . S
C10 O25 1.202 . S
C11 C9 1.363 . S
C11 C13 1.408 . S
C11 C16 1.342 . S
C12 C13 1.310 . S
C12 C15 1.461 . S
C12 H32 0.932 . S
C13 C11 1.408 . S
C13 C12 1.310 . S
C13 H33 0.930 . S
C14 C15 1.474 . S
C14 C16 1.285 . S
C14 H34 0.929 . S
C15 C12 1.461 . S
C15 C14 1.474 . S
C16 C11 1.342 . S
C16 C14 1.285 . S
C16 H35 0.930 . S
C17 C20 1.424 . S
C17 C22 1.245 . S
C17 C23 1.428 . S
C18 C21 1.260 . S
C18 C22 1.477 . S
C18 H36 0.932 . S
C19 C20 1.384 . S
C19 C21 1.479 . S
C19 H37 0.929 . S
C20 C17 1.424 . S
C20 C19 1.384 . S
C20 H38 0.928 . S
C21 C18 1.260 . S
C21 C19 1.479 . S
C22 C17 1.245 . S
C22 C18 1.477 . S
C22 H39 0.932 . S
C23 U6 2.882 . S
C23 C17 1.428 . S
C23 O26 1.301 . S
C23 O27 1.282 . S
O24 U6 2.441 . S
O24 C10 1.249 . S
O25 U6 2.420 . S
O25 C10 1.202 . S
O26 U6 2.455 . S
O26 C23 1.301 . S
O27 U6 2.449 . S
O27 C23 1.282 . S
H28 C1 0.931 . S
H29 C3 0.929 . S
H30 C4 0.930 . S
H31 C5 0.931 . S
H32 C12 0.932 . S
H33 C13 0.930 . S
H34 C14 0.929 . S
H35 C16 0.930 . S
H36 C18 0.932 . S
H37 C19 0.929 . S
H38 C20 0.928 . S
H39 C22 0.932 . S
C40 C41 1.264 . S
C40 C45 1.479 . S
C40 C50 1.465 . S
C41 C40 1.264 . S
C41 C43 1.339 . S
C41 H68 0.931 . S
C42 C43 1.395 . S
C42 C44 1.320 . S
C43 C41 1.339 . S
C43 C42 1.395 . S
C43 H69 0.929 . S
C44 C42 1.320 . S
C44 C45 1.405 . S
C44 H70 0.930 . S
C45 C40 1.479 . S
C45 C44 1.405 . S
C45 H71 0.931 . S
U46 O47 2.454 . S
U46 O48 2.458 . S
U46 C49 2.984 . S
U46 C50 2.847 . S
U46 C63 2.882 . S
U46 O64 2.441 . S
U46 O65 2.420 . S
U46 O66 2.455 . S
U46 O67 2.449 . S
O47 U46 2.454 . S
O47 C49 1.353 . S
O48 U46 2.458 . S
O48 C49 1.286 . S
C49 U46 2.984 . S
C49 O47 1.353 . S
C49 O48 1.286 . S
C49 C51 1.363 . S
C50 C40 1.465 . S
C50 U46 2.847 . S
C50 O64 1.249 . S
C50 O65 1.202 . S
C51 C49 1.363 . S
C51 C53 1.408 . S
C51 C56 1.342 . S
C52 C53 1.310 . S
C52 C55 1.461 . S
C52 H72 0.932 . S
C53 C51 1.408 . S
C53 C52 1.310 . S
C53 H73 0.930 . S
C54 C55 1.474 . S
C54 C56 1.285 . S
C54 H74 0.929 . S
C55 C52 1.461 . S
C55 C54 1.474 . S
C56 C51 1.342 . S
C56 C54 1.285 . S
C56 H75 0.930 . S
C57 C60 1.424 . S
C57 C62 1.245 . S
C57 C63 1.428 . S
C58 C61 1.260 . S
C58 C62 1.477 . S
C58 H76 0.932 . S
C59 C60 1.384 . S
C59 C61 1.479 . S
C59 H77 0.929 . S
C60 C57 1.424 . S
C60 C59 1.384 . S
C60 H78 0.928 . S
C61 C58 1.260 . S
C61 C59 1.479 . S
C62 C57 1.245 . S
C62 C58 1.477 . S
C62 H79 0.932 . S
C63 U46 2.882 . S
C63 C57 1.428 . S
C63 O66 1.301 . S
C63 O67 1.282 . S
O64 U46 2.441 . S
O64 C50 1.249 . S
O65 U46 2.420 . S
O65 C50 1.202 . S
O66 U46 2.455 . S
O66 C63 1.301 . S
O67 U46 2.449 . S
O67 C63 1.282 . S
H68 C41 0.931 . S
H69 C43 0.929 . S
H70 C44 0.930 . S
H71 C45 0.931 . S
H72 C52 0.932 . S
H73 C53 0.930 . S
H74 C54 0.929 . S
H75 C56 0.930 . S
H76 C58 0.932 . S
H77 C59 0.929 . S
H78 C60 0.928 . S
H79 C62 0.932 . S
C80 C81 1.264 . S
C80 C85 1.479 . S
C80 C90 1.465 . S
C81 C80 1.264 . S
C81 C83 1.339 . S
C81 H108 0.931 . S
C82 C83 1.395 . S
C82 C84 1.320 . S
C83 C81 1.339 . S
C83 C82 1.395 . S
C83 H109 0.929 . S
C84 C82 1.320 . S
C84 C85 1.405 . S
C84 H110 0.930 . S
C85 C80 1.479 . S
C85 C84 1.405 . S
C85 H111 0.931 . S
U86 O87 2.454 . S
U86 O88 2.458 . S
U86 C89 2.984 . S
U86 C90 2.847 . S
U86 C103 2.882 . S
U86 O104 2.441 . S
U86 O105 2.420 . S
U86 O106 2.455 . S
U86 O107 2.449 . S
O87 U86 2.454 . S
O87 C89 1.353 . S
O88 U86 2.458 . S
O88 C89 1.286 . S
C89 U86 2.984 . S
C89 O87 1.353 . S
C89 O88 1.286 . S
C89 C91 1.363 . S
C90 C80 1.465 . S
C90 U86 2.847 . S
C90 O104 1.249 . S
C90 O105 1.202 . S
C91 C89 1.363 . S
C91 C93 1.408 . S
C91 C96 1.342 . S
C92 C93 1.310 . S
C92 C95 1.461 . S
C92 H112 0.932 . S
C93 C91 1.408 . S
C93 C92 1.310 . S
C93 H113 0.930 . S
C94 C95 1.474 . S
C94 C96 1.285 . S
C94 H114 0.929 . S
C95 C92 1.461 . S
C95 C94 1.474 . S
C96 C91 1.342 . S
C96 C94 1.285 . S
C96 H115 0.930 . S
C97 C100 1.424 . S
C97 C102 1.245 . S
C97 C103 1.428 . S
C98 C101 1.260 . S
C98 C102 1.477 . S
C98 H116 0.932 . S
C99 C100 1.384 . S
C99 C101 1.479 . S
C99 H117 0.929 . S
C100 C97 1.424 . S
C100 C99 1.384 . S
C100 H118 0.928 . S
C101 C98 1.260 . S
C101 C99 1.479 . S
C102 C97 1.245 . S
C102 C98 1.477 . S
C102 H119 0.932 . S
C103 U86 2.882 . S
C103 C97 1.428 . S
C103 O106 1.301 . S
C103 O107 1.282 . S
O104 U86 2.441 . S
O104 C90 1.249 . S
O105 U86 2.420 . S
O105 C90 1.202 . S
O106 U86 2.455 . S
O106 C103 1.301 . S
O107 U86 2.449 . S
O107 C103 1.282 . S
H108 C81 0.931 . S
H109 C83 0.929 . S
H110 C84 0.930 . S
H111 C85 0.931 . S
H112 C92 0.932 . S
H113 C93 0.930 . S
H114 C94 0.929 . S
H115 C96 0.930 . S
H116 C98 0.932 . S
H117 C99 0.929 . S
H118 C100 0.928 . S
H119 C102 0.932 . S
C120 C121 1.264 . S
C120 C125 1.479 . S
C120 C130 1.465 1_655 S
C121 C120 1.264 . S
C121 C123 1.339 . S
C121 H148 0.931 . S
C122 C123 1.395 . S
C122 C124 1.320 . S
C123 C121 1.339 . S
C123 C122 1.395 . S
C123 H149 0.929 . S
C124 C122 1.320 . S
C124 C125 1.405 . S
C124 H150 0.930 . S
C125 C120 1.479 . S
C125 C124 1.405 . S
C125 H151 0.931 . S
U126 O127 2.454 . S
U126 O128 2.458 . S
U126 C129 2.984 . S
U126 C130 2.847 . S
U126 C143 2.882 . S
U126 O144 2.441 . S
U126 O145 2.420 . S
U126 O146 2.455 . S
U126 O147 2.449 . S
O127 U126 2.454 . S
O127 C129 1.353 . S
O128 U126 2.458 . S
O128 C129 1.286 . S
C129 U126 2.984 . S
C129 O127 1.353 . S
C129 O128 1.286 . S
C129 C131 1.363 . S
C130 C120 1.465 1_455 S
C130 U126 2.847 . S
C130 O144 1.249 . S
C130 O145 1.202 . S
C131 C129 1.363 . S
C131 C133 1.408 . S
C131 C136 1.342 . S
C132 C133 1.310 . S
C132 C135 1.461 . S
C132 H152 0.932 . S
C133 C131 1.408 . S
C133 C132 1.310 . S
C133 H153 0.930 . S
C134 C135 1.474 . S
C134 C136 1.285 . S
C134 H154 0.929 . S
C135 C132 1.461 . S
C135 C134 1.474 . S
C136 C131 1.342 . S
C136 C134 1.285 . S
C136 H155 0.930 . S
C137 C140 1.424 . S
C137 C142 1.245 . S
C137 C143 1.428 . S
C138 C141 1.260 . S
C138 C142 1.477 . S
C138 H156 0.932 . S
C139 C140 1.384 . S
C139 C141 1.479 . S
C139 H157 0.929 . S
C140 C137 1.424 . S
C140 C139 1.384 . S
C140 H158 0.928 . S
C141 C138 1.260 . S
C141 C139 1.479 . S
C142 C137 1.245 . S
C142 C138 1.477 . S
C142 H159 0.932 . S
C143 U126 2.882 . S
C143 C137 1.428 . S
C143 O146 1.301 . S
C143 O147 1.282 . S
O144 U126 2.441 . S
O144 C130 1.249 . S
O145 U126 2.420 . S
O145 C130 1.202 . S
O146 U126 2.455 . S
O146 C143 1.301 . S
O147 U126 2.449 . S
O147 C143 1.282 . S
H148 C121 0.931 . S
H149 C123 0.929 . S
H150 C124 0.930 . S
H151 C125 0.931 . S
H152 C132 0.932 . S
H153 C133 0.930 . S
H154 C134 0.929 . S
H155 C136 0.930 . S
H156 C138 0.932 . S
H157 C139 0.929 . S
H158 C140 0.928 . S
H159 C142 0.932 . S
C160 C161 1.264 . S
C160 C165 1.479 . S
C160 C170 1.465 . S
C161 C160 1.264 . S
C161 C163 1.339 . S
C161 H188 0.931 . S
C162 C163 1.395 . S
C162 C164 1.320 . S
C163 C161 1.339 . S
C163 C162 1.395 . S
C163 H189 0.929 . S
C164 C162 1.320 . S
C164 C165 1.405 . S
C164 H190 0.930 . S
C165 C160 1.479 . S
C165 C164 1.405 . S
C165 H191 0.931 . S
U166 O167 2.454 . S
U166 O168 2.458 . S
U166 C169 2.984 . S
U166 C170 2.847 . S
U166 C183 2.882 . S
U166 O184 2.441 . S
U166 O185 2.420 . S
U166 O186 2.455 . S
U166 O187 2.449 . S
O167 U166 2.454 . S
O167 C169 1.353 . S
O168 U166 2.458 . S
O168 C169 1.286 . S
C169 U166 2.984 . S
C169 O167 1.353 . S
C169 O168 1.286 . S
C169 C171 1.363 . S
C170 C160 1.465 . S
C170 U166 2.847 . S
C170 O184 1.249 . S
C170 O185 1.202 . S
C171 C169 1.363 . S
C171 C173 1.408 . S
C171 C176 1.342 . S
C172 C173 1.310 . S
C172 C175 1.461 . S
C172 H192 0.932 . S
C173 C171 1.408 . S
C173 C172 1.310 . S
C173 H193 0.930 . S
C174 C175 1.474 . S
C174 C176 1.285 . S
C174 H194 0.929 . S
C175 C172 1.461 . S
C175 C174 1.474 . S
C176 C171 1.342 . S
C176 C174 1.285 . S
C176 H195 0.930 . S
C177 C180 1.424 . S
C177 C182 1.245 . S
C177 C183 1.428 . S
C178 C181 1.260 . S
C178 C182 1.477 . S
C178 H196 0.932 . S
C179 C180 1.384 . S
C179 C181 1.479 . S
C179 H197 0.929 . S
C180 C177 1.424 . S
C180 C179 1.384 . S
C180 H198 0.928 . S
C181 C178 1.260 . S
C181 C179 1.479 . S
C182 C177 1.245 . S
C182 C178 1.477 . S
C182 H199 0.932 . S
C183 U166 2.882 . S
C183 C177 1.428 . S
C183 O186 1.301 . S
C183 O187 1.282 . S
O184 U166 2.441 . S
O184 C170 1.249 . S
O185 U166 2.420 . S
O185 C170 1.202 . S
O186 U166 2.455 . S
O186 C183 1.301 . S
O187 U166 2.449 . S
O187 C183 1.282 . S
H188 C161 0.931 . S
H189 C163 0.929 . S
H190 C164 0.930 . S
H191 C165 0.931 . S
H192 C172 0.932 . S
H193 C173 0.930 . S
H194 C174 0.929 . S
H195 C176 0.930 . S
H196 C178 0.932 . S
H197 C179 0.929 . S
H198 C180 0.928 . S
H199 C182 0.932 . S
C200 C201 1.264 . S
C200 C205 1.479 . S
C200 C210 1.465 . S
C201 C200 1.264 . S
C201 C203 1.339 . S
C201 H228 0.931 . S
C202 C203 1.395 . S
C202 C204 1.320 . S
C203 C201 1.339 . S
C203 C202 1.395 . S
C203 H229 0.929 . S
C204 C202 1.320 . S
C204 C205 1.405 . S
C204 H230 0.930 . S
C205 C200 1.479 . S
C205 C204 1.405 . S
C205 H231 0.931 . S
U206 O207 2.454 . S
U206 O208 2.458 . S
U206 C209 2.976 1_455 S
U206 C210 2.847 . S
U206 C223 2.882 . S
U206 O224 2.441 . S
U206 O225 2.420 . S
U206 O226 2.455 . S
U206 O227 2.449 . S
O207 U206 2.454 . S
O207 C209 1.345 1_455 S
O208 U206 2.458 . S
O208 C209 1.284 1_455 S
C209 U206 2.976 1_655 S
C209 O207 1.345 1_655 S
C209 O208 1.284 1_655 S
C209 C211 1.371 . S
C210 C200 1.465 . S
C210 U206 2.847 . S
C210 O224 1.249 . S
C210 O225 1.202 . S
C211 C209 1.371 . S
C211 C213 1.408 . S
C211 C216 1.342 . S
C212 C213 1.310 . S
C212 C215 1.461 . S
C212 H232 0.932 . S
C213 C211 1.408 . S
C213 C212 1.310 . S
C213 H233 0.930 . S
C214 C215 1.474 . S
C214 C216 1.285 . S
C214 H234 0.929 . S
C215 C212 1.461 . S
C215 C214 1.474 . S
C216 C211 1.342 . S
C216 C214 1.285 . S
C216 H235 0.930 . S
C217 C220 1.424 . S
C217 C222 1.245 . S
C217 C223 1.428 . S
C218 C221 1.260 . S
C218 C222 1.477 . S
C218 H236 0.932 . S
C219 C220 1.384 . S
C219 C221 1.479 . S
C219 H237 0.929 . S
C220 C217 1.424 . S
C220 C219 1.384 . S
C220 H238 0.928 . S
C221 C218 1.260 . S
C221 C219 1.479 . S
C222 C217 1.245 . S
C222 C218 1.477 . S
C222 H239 0.932 . S
C223 U206 2.882 . S
C223 C217 1.428 . S
C223 O226 1.301 . S
C223 O227 1.282 . S
O224 U206 2.441 . S
O224 C210 1.249 . S
O225 U206 2.420 . S
O225 C210 1.202 . S
O226 U206 2.455 . S
O226 C223 1.301 . S
O227 U206 2.449 . S
O227 C223 1.282 . S
H228 C201 0.931 . S
H229 C203 0.929 . S
H230 C204 0.930 . S
H231 C205 0.931 . S
H232 C212 0.932 . S
H233 C213 0.930 . S
H234 C214 0.929 . S
H235 C216 0.930 . S
H236 C218 0.932 . S
H237 C219 0.929 . S
H238 C220 0.928 . S
H239 C222 0.932 . S
C240 C241 1.264 . S
C240 C245 1.479 . S
C240 C250 1.465 . S
C241 C240 1.264 . S
C241 C243 1.339 . S
C241 H268 0.931 . S
C242 C243 1.395 . S
C242 C244 1.320 . S
C243 C241 1.339 . S
C243 C242 1.395 . S
C243 H269 0.929 . S
C244 C242 1.320 . S
C244 C245 1.405 . S
C244 H270 0.930 . S
C245 C240 1.479 . S
C245 C244 1.405 . S
C245 H271 0.931 . S
U246 O247 2.454 . S
U246 O248 2.458 . S
U246 C249 2.984 . S
U246 C250 2.847 . S
U246 C263 2.882 . S
U246 O264 2.441 . S
U246 O265 2.420 . S
U246 O266 2.455 . S
U246 O267 2.449 . S
O247 U246 2.454 . S
O247 C249 1.353 . S
O248 U246 2.458 . S
O248 C249 1.286 . S
C249 U246 2.984 . S
C249 O247 1.353 . S
C249 O248 1.286 . S
C249 C251 1.363 . S
C250 C240 1.465 . S
C250 U246 2.847 . S
C250 O264 1.249 . S
C250 O265 1.202 . S
C251 C249 1.363 . S
C251 C253 1.408 . S
C251 C256 1.342 . S
C252 C253 1.310 . S
C252 C255 1.461 . S
C252 H272 0.932 . S
C253 C251 1.408 . S
C253 C252 1.310 . S
C253 H273 0.930 . S
C254 C255 1.474 . S
C254 C256 1.285 . S
C254 H274 0.929 . S
C255 C252 1.461 . S
C255 C254 1.474 . S
C256 C251 1.342 . S
C256 C254 1.285 . S
C256 H275 0.930 . S
C257 C260 1.424 . S
C257 C262 1.245 . S
C257 C263 1.428 . S
C258 C261 1.260 . S
C258 C262 1.477 . S
C258 H276 0.932 . S
C259 C260 1.384 . S
C259 C261 1.479 . S
C259 H277 0.929 . S
C260 C257 1.424 . S
C260 C259 1.384 . S
C260 H278 0.928 . S
C261 C258 1.260 . S
C261 C259 1.479 . S
C262 C257 1.245 . S
C262 C258 1.477 . S
C262 H279 0.932 . S
C263 U246 2.882 . S
C263 C257 1.428 . S
C263 O266 1.301 . S
C263 O267 1.282 . S
O264 U246 2.441 . S
O264 C250 1.249 . S
O265 U246 2.420 . S
O265 C250 1.202 . S
O266 U246 2.455 . S
O266 C263 1.301 . S
O267 U246 2.449 . S
O267 C263 1.282 . S
H268 C241 0.931 . S
H269 C243 0.929 . S
H270 C244 0.930 . S
H271 C245 0.931 . S
H272 C252 0.932 . S
H273 C253 0.930 . S
H274 C254 0.929 . S
H275 C256 0.930 . S
H276 C258 0.932 . S
H277 C259 0.929 . S
H278 C260 0.928 . S
H279 C262 0.932 . S
C280 C281 1.264 . S
C280 C285 1.479 . S
C280 C290 1.465 . S
C281 C280 1.264 . S
C281 C283 1.339 . S
C281 H308 0.931 . S
C282 C283 1.395 . S
C282 C284 1.320 . S
C283 C281 1.339 . S
C283 C282 1.395 . S
C283 H309 0.929 . S
C284 C282 1.320 . S
C284 C285 1.405 . S
C284 H310 0.930 . S
C285 C280 1.479 . S
C285 C284 1.405 . S
C285 H311 0.931 . S
U286 O287 2.454 . S
U286 O288 2.458 . S
U286 C289 2.984 . S
U286 C290 2.847 . S
U286 C303 2.882 . S
U286 O304 2.441 . S
U286 O305 2.420 . S
U286 O306 2.455 . S
U286 O307 2.449 . S
O287 U286 2.454 . S
O287 C289 1.353 . S
O288 U286 2.458 . S
O288 C289 1.286 . S
C289 U286 2.984 . S
C289 O287 1.353 . S
C289 O288 1.286 . S
C289 C291 1.363 . S
C290 C280 1.465 . S
C290 U286 2.847 . S
C290 O304 1.249 . S
C290 O305 1.202 . S
C291 C289 1.363 . S
C291 C293 1.408 . S
C291 C296 1.342 . S
C292 C293 1.310 . S
C292 C295 1.461 . S
C292 H312 0.932 . S
C293 C291 1.408 . S
C293 C292 1.310 . S
C293 H313 0.930 . S
C294 C295 1.474 . S
C294 C296 1.285 . S
C294 H314 0.929 . S
C295 C292 1.461 . S
C295 C294 1.474 . S
C296 C291 1.342 . S
C296 C294 1.285 . S
C296 H315 0.930 . S
C297 C300 1.424 . S
C297 C302 1.245 . S
C297 C303 1.428 . S
C298 C301 1.260 . S
C298 C302 1.477 . S
C298 H316 0.932 . S
C299 C300 1.384 . S
C299 C301 1.479 . S
C299 H317 0.929 . S
C300 C297 1.424 . S
C300 C299 1.384 . S
C300 H318 0.928 . S
C301 C298 1.260 . S
C301 C299 1.479 . S
C302 C297 1.245 . S
C302 C298 1.477 . S
C302 H319 0.932 . S
C303 U286 2.882 . S
C303 C297 1.428 . S
C303 O306 1.301 . S
C303 O307 1.282 . S
O304 U286 2.441 . S
O304 C290 1.249 . S
O305 U286 2.420 . S
O305 C290 1.202 . S
O306 U286 2.455 . S
O306 C303 1.301 . S
O307 U286 2.449 . S
O307 C303 1.282 . S
H308 C281 0.931 . S
H309 C283 0.929 . S
H310 C284 0.930 . S
H311 C285 0.931 . S
H312 C292 0.932 . S
H313 C293 0.930 . S
H314 C294 0.929 . S
H315 C296 0.930 . S
H316 C298 0.932 . S
H317 C299 0.929 . S
H318 C300 0.928 . S
H319 C302 0.932 . S
C320 C321 1.349 . S
C320 C322 1.327 . S
C320 H345 0.950 . S
C321 C320 1.349 . S
C321 C337 1.349 . S
C322 C320 1.327 . S
C322 C341 1.429 . S
C322 H346 0.951 1_556 S
C323 C340 1.574 . S
C323 C342 1.368 . S
C323 H347 0.949 . S
H324 C328 0.949 . S
C325 C326 1.349 . S
C325 C327 1.327 . S
C325 H348 0.950 . S
C326 C325 1.349 . S
C326 C338 1.349 . S
C327 C325 1.327 . S
C327 C343 1.429 . S
C327 H349 0.949 1_554 S
C328 H324 0.949 . S
C328 C336 1.574 . S
C328 C344 1.368 . S
H329 C337 0.950 . S
H330 C335 0.950 . S
H331 C336 0.949 . S
H332 C338 0.950 . S
H333 C339 0.950 . S
H334 C340 0.949 . S
C335 H330 0.950 . S
C335 C337 1.327 . S
C335 C341 1.429 . S
C336 C328 1.574 . S
C336 H331 0.949 . S
C336 C342 1.368 1_554 S
C337 C321 1.349 . S
C337 H329 0.950 . S
C337 C335 1.327 . S
C338 C326 1.349 . S
C338 H332 0.950 . S
C338 C339 1.327 . S
C339 H333 0.950 . S
C339 C338 1.327 . S
C339 C343 1.429 . S
C340 C323 1.574 . S
C340 H334 0.949 . S
C340 C344 1.368 1_556 S
C341 C322 1.429 . S
C341 C335 1.429 . S
C341 C342 1.523 . S
C342 C323 1.368 . S
C342 C336 1.368 1_556 S
C342 C341 1.523 . S
C343 C327 1.429 . S
C343 C339 1.429 . S
C343 C344 1.523 . S
C344 C328 1.368 . S
C344 C340 1.368 1_554 S
C344 C343 1.523 . S
H345 C320 0.950 . S
H346 C322 0.951 1_554 S
H347 C323 0.949 . S
H348 C325 0.950 . S
H349 C327 0.949 1_556 S
C350 C351 1.349 . S
C350 C352 1.327 . S
C350 H375 0.950 . S
C351 C350 1.349 . S
C351 C367 1.349 . S
C352 C350 1.327 . S
C352 C371 1.429 . S
C352 H376 0.950 . S
C353 C370 1.574 . S
C353 C372 1.368 . S
C353 H377 0.949 . S
H354 C358 0.949 . S
C355 C356 1.349 . S
C355 C357 1.327 . S
C355 H378 0.950 . S
C356 C355 1.349 . S
C356 C368 1.349 . S
C357 C355 1.327 . S
C357 C373 1.429 . S
C357 H379 0.950 . S
C358 H354 0.949 . S
C358 C366 1.574 . S
C358 C374 1.368 . S
H359 C367 0.950 . S
H360 C365 0.950 . S
H361 C366 0.949 . S
H362 C368 0.950 . S
H363 C369 0.950 . S
H364 C370 0.949 . S
C365 H360 0.950 . S
C365 C367 1.327 . S
C365 C371 1.429 . S
C366 C358 1.574 . S
C366 H361 0.949 . S
C366 C372 1.368 . S
C367 C351 1.349 . S
C367 H359 0.950 . S
C367 C365 1.327 . S
C368 C356 1.349 . S
C368 H362 0.950 . S
C368 C369 1.327 . S
C369 H363 0.950 . S
C369 C368 1.327 . S
C369 C373 1.429 . S
C370 C353 1.574 . S
C370 H364 0.949 . S
C370 C374 1.368 . S
C371 C352 1.429 . S
C371 C365 1.429 . S
C371 C372 1.523 . S
C372 C353 1.368 . S
C372 C366 1.368 . S
C372 C371 1.523 . S
C373 C357 1.429 . S
C373 C369 1.429 . S
C373 C374 1.523 . S
C374 C358 1.368 . S
C374 C370 1.368 . S
C374 C373 1.523 . S
H375 C350 0.950 . S
H376 C352 0.950 . S
H377 C353 0.949 . S
H378 C355 0.950 . S
H379 C357 0.950 . S
C380 C381 1.349 . S
C380 C382 1.327 . S
C380 H405 0.950 . S
C381 C380 1.349 . S
C381 C397 1.349 . S
C382 C380 1.327 . S
C382 C401 1.429 . S
C382 H406 0.950 . S
C383 C400 1.574 . S
C383 C402 1.368 . S
C383 H407 0.949 . S
H384 C388 0.949 . S
C385 C386 1.349 . S
C385 C387 1.327 . S
C385 H408 0.950 . S
C386 C385 1.349 . S
C386 C398 1.349 . S
C387 C385 1.327 . S
C387 C403 1.429 . S
C387 H409 0.950 . S
C388 H384 0.949 . S
C388 C396 1.574 . S
C388 C404 1.368 . S
H389 C397 0.950 . S
H390 C395 0.950 . S
H391 C396 0.949 . S
H392 C398 0.950 . S
H393 C399 0.950 . S
H394 C400 0.949 . S
C395 H390 0.950 . S
C395 C397 1.327 . S
C395 C401 1.429 . S
C396 C388 1.574 . S
C396 H391 0.949 . S
C396 C402 1.368 . S
C397 C381 1.349 . S
C397 H389 0.950 . S
C397 C395 1.327 . S
C398 C386 1.349 . S
C398 H392 0.950 . S
C398 C399 1.327 . S
C399 H393 0.950 . S
C399 C398 1.327 . S
C399 C403 1.429 . S
C400 C383 1.574 . S
C400 H394 0.949 . S
C400 C404 1.368 . S
C401 C382 1.429 . S
C401 C395 1.429 . S
C401 C402 1.523 . S
C402 C383 1.368 . S
C402 C396 1.368 . S
C402 C401 1.523 . S
C403 C387 1.429 . S
C403 C399 1.429 . S
C403 C404 1.523 . S
C404 C388 1.368 . S
C404 C400 1.368 . S
C404 C403 1.523 . S
H405 C380 0.950 . S
H406 C382 0.950 . S
H407 C383 0.949 . S
H408 C385 0.950 . S
H409 C387 0.950 . S
C410 C411 1.349 . S
C410 C412 1.327 . S
C410 H435 0.950 . S
C411 C410 1.349 . S
C411 C427 1.349 . S
C412 C410 1.327 . S
C412 C431 1.429 . S
C412 H436 0.950 . S
C413 C430 1.574 . S
C413 C432 1.368 . S
C413 H437 0.949 . S
H414 C418 0.949 . S
C415 C416 1.349 . S
C415 C417 1.327 . S
C415 H438 0.950 . S
C416 C415 1.349 . S
C416 C428 1.349 . S
C417 C415 1.327 . S
C417 C433 1.429 . S
C417 H439 0.950 . S
C418 H414 0.949 . S
C418 C426 1.574 . S
C418 C434 1.368 . S
H419 C427 0.950 . S
H420 C425 0.950 . S
H421 C426 0.949 . S
H422 C428 0.950 . S
H423 C429 0.950 . S
H424 C430 0.949 . S
C425 H420 0.950 . S
C425 C427 1.327 . S
C425 C431 1.429 . S
C426 C418 1.574 . S
C426 H421 0.949 . S
C426 C432 1.368 . S
C427 C411 1.349 . S
C427 H419 0.950 . S
C427 C425 1.327 . S
C428 C416 1.349 . S
C428 H422 0.950 . S
C428 C429 1.327 . S
C429 H423 0.950 . S
C429 C428 1.327 . S
C429 C433 1.429 . S
C430 C413 1.574 . S
C430 H424 0.949 . S
C430 C434 1.368 . S
C431 C412 1.429 . S
C431 C425 1.429 . S
C431 C432 1.523 . S
C432 C413 1.368 . S
C432 C426 1.368 . S
C432 C431 1.523 . S
C433 C417 1.429 . S
C433 C429 1.429 . S
C433 C434 1.523 . S
C434 C418 1.368 . S
C434 C430 1.368 . S
C434 C433 1.523 . S
H435 C410 0.950 . S
H436 C412 0.950 . S
H437 C413 0.949 . S
H438 C415 0.950 . S
H439 C417 0.950 . S
C440 C441 1.349 . S
C440 C442 1.327 . S
C440 H465 0.950 . S
C441 C440 1.349 . S
C441 C457 1.349 . S
C442 C440 1.327 . S
C442 C461 1.429 . S
C442 H466 0.950 . S
C443 C460 1.574 . S
C443 C462 1.368 . S
C443 H467 0.949 . S
H444 C448 0.949 . S
C445 C446 1.349 . S
C445 C447 1.327 . S
C445 H468 0.950 . S
C446 C445 1.349 . S
C446 C458 1.349 . S
C447 C445 1.327 . S
C447 C463 1.429 . S
C447 H469 0.950 . S
C448 H444 0.949 . S
C448 C456 1.574 . S
C448 C464 1.368 . S
H449 C457 0.950 . S
H450 C455 0.950 . S
H451 C456 0.949 . S
H452 C458 0.950 . S
H453 C459 0.950 . S
H454 C460 0.949 . S
C455 H450 0.950 . S
C455 C457 1.327 . S
C455 C461 1.429 . S
C456 C448 1.574 . S
C456 H451 0.949 . S
C456 C462 1.368 . S
C457 C441 1.349 . S
C457 H449 0.950 . S
C457 C455 1.327 . S
C458 C446 1.349 . S
C458 H452 0.950 . S
C458 C459 1.327 . S
C459 H453 0.950 . S
C459 C458 1.327 . S
C459 C463 1.429 . S
C460 C443 1.574 . S
C460 H454 0.949 . S
C460 C464 1.368 . S
C461 C442 1.429 . S
C461 C455 1.429 . S
C461 C462 1.523 . S
C462 C443 1.368 . S
C462 C456 1.368 . S
C462 C461 1.523 . S
C463 C447 1.429 . S
C463 C459 1.429 . S
C463 C464 1.523 . S
C464 C448 1.368 . S
C464 C460 1.368 . S
C464 C463 1.523 . S
H465 C440 0.950 . S
H466 C442 0.950 . S
H467 C443 0.949 . S
H468 C445 0.950 . S
H469 C447 0.950 . S
C470 C471 1.349 . S
C470 C472 1.327 . S
C470 H495 0.950 . S
C471 C470 1.349 . S
C471 C487 1.349 . S
C472 C470 1.327 . S
C472 C491 1.429 . S
C472 H496 0.950 . S
C473 C490 1.574 . S
C473 C492 1.368 . S
C473 H497 0.949 . S
H474 C478 0.949 . S
C475 C476 1.349 . S
C475 C477 1.327 . S
C475 H498 0.950 . S
C476 C475 1.349 . S
C476 C488 1.349 . S
C477 C475 1.327 . S
C477 C493 1.429 . S
C477 H499 0.950 . S
C478 H474 0.949 . S
C478 C486 1.574 . S
C478 C494 1.368 . S
H479 C487 0.950 . S
H480 C485 0.950 . S
H481 C486 0.949 . S
H482 C488 0.950 . S
H483 C489 0.950 . S
H484 C490 0.949 . S
C485 H480 0.950 . S
C485 C487 1.327 . S
C485 C491 1.429 . S
C486 C478 1.574 . S
C486 H481 0.949 . S
C486 C492 1.368 . S
C487 C471 1.349 . S
C487 H479 0.950 . S
C487 C485 1.327 . S
C488 C476 1.349 . S
C488 H482 0.950 . S
C488 C489 1.327 . S
C489 H483 0.950 . S
C489 C488 1.327 . S
C489 C493 1.429 . S
C490 C473 1.574 . S
C490 H484 0.949 . S
C490 C494 1.368 . S
C491 C472 1.429 . S
C491 C485 1.429 . S
C491 C492 1.523 . S
C492 C473 1.368 . S
C492 C486 1.368 . S
C492 C491 1.523 . S
C493 C477 1.429 . S
C493 C489 1.429 . S
C493 C494 1.523 . S
C494 C478 1.368 . S
C494 C490 1.368 . S
C494 C493 1.523 . S
H495 C470 0.950 . S
H496 C472 0.950 . S
H497 C473 0.949 . S
H498 C475 0.950 . S
H499 C477 0.950 . S
C500 C501 1.349 . S
C500 C502 1.327 . S
C500 H525 0.950 . S
C501 C500 1.349 . S
C501 C517 1.349 . S
C502 C500 1.327 . S
C502 C521 1.429 . S
C502 H526 0.950 . S
C503 C520 1.574 1_565 S
C503 C522 1.368 . S
C503 H527 0.949 . S
H504 C508 0.949 . S
C505 C506 1.349 . S
C505 C507 1.327 . S
C505 H528 0.950 . S
C506 C505 1.349 . S
C506 C518 1.349 . S
C507 C505 1.327 . S
C507 C523 1.429 . S
C507 H529 0.950 . S
C508 H504 0.949 . S
C508 C516 1.574 1_545 S
C508 C524 1.368 . S
H509 C517 0.950 . S
H510 C515 0.950 . S
H511 C516 0.949 . S
H512 C518 0.950 . S
H513 C519 0.950 . S
H514 C520 0.949 . S
C515 H510 0.950 . S
C515 C517 1.327 . S
C515 C521 1.429 . S
C516 C508 1.574 1_565 S
C516 H511 0.949 . S
C516 C522 1.368 . S
C517 C501 1.349 . S
C517 H509 0.950 . S
C517 C515 1.327 . S
C518 C506 1.349 . S
C518 H512 0.950 . S
C518 C519 1.327 . S
C519 H513 0.950 . S
C519 C518 1.327 . S
C519 C523 1.429 . S
C520 C503 1.574 1_545 S
C520 H514 0.949 . S
C520 C524 1.368 . S
C521 C502 1.429 . S
C521 C515 1.429 . S
C521 C522 1.523 . S
C522 C503 1.368 . S
C522 C516 1.368 . S
C522 C521 1.523 . S
C523 C507 1.429 . S
C523 C519 1.429 . S
C523 C524 1.523 . S
C524 C508 1.368 . S
C524 C520 1.368 . S
C524 C523 1.523 . S
H525 C500 0.950 . S
H526 C502 0.950 . S
H527 C503 0.949 . S
H528 C505 0.950 . S
H529 C507 0.950 . S
C530 C531 1.349 . S
C530 C532 1.327 . S
C530 H555 0.950 . S
C531 C530 1.349 . S
C531 C547 1.349 . S
C532 C530 1.327 . S
C532 C551 1.429 . S
C532 H556 0.950 . S
C533 C550 1.574 1_564 S
C533 C552 1.368 . S
C533 H557 0.949 . S
H534 C538 0.949 . S
C535 C536 1.349 . S
C535 C537 1.327 . S
C535 H558 0.950 . S
C536 C535 1.349 . S
C536 C548 1.349 . S
C537 C535 1.327 . S
C537 C553 1.429 . S
C537 H559 0.950 . S
C538 H534 0.949 . S
C538 C546 1.574 1_546 S
C538 C554 1.368 . S
H539 C547 0.950 . S
H540 C545 0.950 . S
H541 C546 0.949 . S
H542 C548 0.950 . S
H543 C549 0.950 . S
H544 C550 0.949 . S
C545 H540 0.950 . S
C545 C547 1.327 . S
C545 C551 1.429 . S
C546 C538 1.574 1_564 S
C546 H541 0.949 . S
C546 C552 1.368 . S
C547 C531 1.349 . S
C547 H539 0.950 . S
C547 C545 1.327 . S
C548 C536 1.349 . S
C548 H542 0.950 . S
C548 C549 1.327 . S
C549 H543 0.950 . S
C549 C548 1.327 . S
C549 C553 1.429 . S
C550 C533 1.574 1_546 S
C550 H544 0.949 . S
C550 C554 1.368 . S
C551 C532 1.429 . S
C551 C545 1.429 . S
C551 C552 1.523 . S
C552 C533 1.368 . S
C552 C546 1.368 . S
C552 C551 1.523 . S
C553 C537 1.429 . S
C553 C549 1.429 . S
C553 C554 1.523 . S
C554 C538 1.368 . S
C554 C550 1.368 . S
C554 C553 1.523 . S
H555 C530 0.950 . S
H556 C532 0.950 . S
H557 C533 0.949 . S
H558 C535 0.950 . S
H559 C537 0.950 . S
C560 C561 1.349 . S
C560 C562 1.327 . S
C560 H585 0.950 . S
C561 C560 1.349 . S
C561 C577 1.349 . S
C562 C560 1.327 . S
C562 C581 1.429 . S
C562 H586 0.950 . S
C563 C580 1.574 . S
C563 C582 1.368 . S
C563 H587 0.949 . S
H564 C568 0.949 . S
C565 C566 1.349 . S
C565 C567 1.327 . S
C565 H588 0.950 . S
C566 C565 1.349 . S
C566 C578 1.349 . S
C567 C565 1.327 . S
C567 C583 1.429 . S
C567 H589 0.950 . S
C568 H564 0.949 . S
C568 C576 1.574 . S
C568 C584 1.368 . S
H569 C577 0.950 . S
H570 C575 0.950 . S
H571 C576 0.949 . S
H572 C578 0.950 . S
H573 C579 0.950 . S
H574 C580 0.949 . S
C575 H570 0.950 . S
C575 C577 1.327 . S
C575 C581 1.429 . S
C576 C568 1.574 . S
C576 H571 0.949 . S
C576 C582 1.368 . S
C577 C561 1.349 . S
C577 H569 0.950 . S
C577 C575 1.327 . S
C578 C566 1.349 . S
C578 H572 0.950 . S
C578 C579 1.327 . S
C579 H573 0.950 . S
C579 C578 1.327 . S
C579 C583 1.429 . S
C580 C563 1.574 . S
C580 H574 0.949 . S
C580 C584 1.368 . S
C581 C562 1.429 . S
C581 C575 1.429 . S
C581 C582 1.523 . S
C582 C563 1.368 . S
C582 C576 1.368 . S
C582 C581 1.523 . S
C583 C567 1.429 . S
C583 C579 1.429 . S
C583 C584 1.523 . S
C584 C568 1.368 . S
C584 C580 1.368 . S
C584 C583 1.523 . S
H585 C560 0.950 . S
H586 C562 0.950 . S
H587 C563 0.949 . S
H588 C565 0.950 . S
H589 C567 0.950 . S
C590 C591 1.349 . S
C590 C592 1.327 . S
C590 H615 0.950 . S
C591 C590 1.349 . S
C591 C607 1.349 . S
C592 C590 1.327 . S
C592 C611 1.429 . S
C592 H616 0.950 . S
C593 C610 1.574 . S
C593 C612 1.368 . S
C593 H617 0.949 . S
H594 C598 0.949 . S
C595 C596 1.349 . S
C595 C597 1.327 . S
C595 H618 0.950 . S
C596 C595 1.349 . S
C596 C608 1.349 . S
C597 C595 1.327 . S
C597 C613 1.429 . S
C597 H619 0.950 . S
C598 H594 0.949 . S
C598 C606 1.574 . S
C598 C614 1.368 . S
H599 C607 0.950 . S
H600 C605 0.950 . S
H601 C606 0.949 . S
H602 C608 0.950 . S
H603 C609 0.950 . S
H604 C610 0.949 . S
C605 H600 0.950 . S
C605 C607 1.327 . S
C605 C611 1.429 . S
C606 C598 1.574 . S
C606 H601 0.949 . S
C606 C612 1.368 . S
C607 C591 1.349 . S
C607 H599 0.950 . S
C607 C605 1.327 . S
C608 C596 1.349 . S
C608 H602 0.950 . S
C608 C609 1.327 . S
C609 H603 0.950 . S
C609 C608 1.327 . S
C609 C613 1.429 . S
C610 C593 1.574 . S
C610 H604 0.949 . S
C610 C614 1.368 . S
C611 C592 1.429 . S
C611 C605 1.429 . S
C611 C612 1.523 . S
C612 C593 1.368 . S
C612 C606 1.368 . S
C612 C611 1.523 . S
C613 C597 1.429 . S
C613 C609 1.429 . S
C613 C614 1.523 . S
C614 C598 1.368 . S
C614 C610 1.368 . S
C614 C613 1.523 . S
H615 C590 0.950 . S
H616 C592 0.950 . S
H617 C593 0.949 . S
H618 C595 0.950 . S
H619 C597 0.950 . S
C620 C621 1.349 . S
C620 C622 1.327 . S
C620 H645 0.950 . S
C621 C620 1.349 . S
C621 C637 1.349 . S
C622 C620 1.327 . S
C622 C641 1.429 . S
C622 H646 0.950 . S
C623 C640 1.574 . S
C623 C642 1.368 . S
C623 H647 0.949 . S
H624 C628 0.949 . S
C625 C626 1.349 . S
C625 C627 1.327 . S
C625 H648 0.950 . S
C626 C625 1.349 . S
C626 C638 1.349 . S
C627 C625 1.327 . S
C627 C643 1.429 . S
C627 H649 0.950 . S
C628 H624 0.949 . S
C628 C636 1.574 . S
C628 C644 1.368 . S
H629 C637 0.950 . S
H630 C635 0.950 . S
H631 C636 0.949 . S
H632 C638 0.950 . S
H633 C639 0.950 . S
H634 C640 0.949 . S
C635 H630 0.950 . S
C635 C637 1.327 . S
C635 C641 1.429 . S
C636 C628 1.574 . S
C636 H631 0.949 . S
C636 C642 1.368 . S
C637 C621 1.349 . S
C637 H629 0.950 . S
C637 C635 1.327 . S
C638 C626 1.349 . S
C638 H632 0.950 . S
C638 C639 1.327 . S
C639 H633 0.950 . S
C639 C638 1.327 . S
C639 C643 1.429 . S
C640 C623 1.574 . S
C640 H634 0.949 . S
C640 C644 1.368 . S
C641 C622 1.429 . S
C641 C635 1.429 . S
C641 C642 1.523 . S
C642 C623 1.368 . S
C642 C636 1.368 . S
C642 C641 1.523 . S
C643 C627 1.429 . S
C643 C639 1.429 . S
C643 C644 1.523 . S
C644 C628 1.368 . S
C644 C640 1.368 . S
C644 C643 1.523 . S
H645 C620 0.950 . S
H646 C622 0.950 . S
H647 C623 0.949 . S
H648 C625 0.950 . S
H649 C627 0.950 . S
C650 C651 1.349 . S
C650 C652 1.327 . S
C650 H675 0.950 . S
C651 C650 1.349 . S
C651 C667 1.349 . S
C652 C650 1.327 . S
C652 C671 1.429 . S
C652 H676 0.950 . S
C653 C670 1.574 . S
C653 C672 1.368 . S
C653 H677 0.949 . S
H654 C658 0.949 . S
C655 C656 1.349 . S
C655 C657 1.327 . S
C655 H678 0.950 . S
C656 C655 1.349 . S
C656 C668 1.349 . S
C657 C655 1.327 . S
C657 C673 1.429 . S
C657 H679 0.950 . S
C658 H654 0.949 . S
C658 C666 1.574 . S
C658 C674 1.368 . S
H659 C667 0.950 . S
H660 C665 0.950 . S
H661 C666 0.949 . S
H662 C668 0.950 . S
H663 C669 0.950 . S
H664 C670 0.949 . S
C665 H660 0.950 . S
C665 C667 1.327 . S
C665 C671 1.429 . S
C666 C658 1.574 . S
C666 H661 0.949 . S
C666 C672 1.368 . S
C667 C651 1.349 . S
C667 H659 0.950 . S
C667 C665 1.327 . S
C668 C656 1.349 . S
C668 H662 0.950 . S
C668 C669 1.327 . S
C669 H663 0.950 . S
C669 C668 1.327 . S
C669 C673 1.429 . S
C670 C653 1.574 . S
C670 H664 0.949 . S
C670 C674 1.368 . S
C671 C652 1.429 . S
C671 C665 1.429 . S
C671 C672 1.523 . S
C672 C653 1.368 . S
C672 C666 1.368 . S
C672 C671 1.523 . S
C673 C657 1.429 . S
C673 C669 1.429 . S
C673 C674 1.523 . S
C674 C658 1.368 . S
C674 C670 1.368 . S
C674 C673 1.523 . S
H675 C650 0.950 . S
H676 C652 0.950 . S
H677 C653 0.949 . S
H678 C655 0.950 . S
H679 C657 0.950 . S
C321 C175 1.500 . S
C326 C15 1.500 . S
C351 C215 1.503 . S
C356 C55 1.503 . S
C381 C82 1.488 . S
C386 C242 1.496 . S
C411 C122 1.488 . S
C416 C282 1.494 . S
C441 C295 1.504 . S
C446 C135 1.503 . S
C471 C202 1.492 . S
C476 C42 1.487 . S
C501 C255 1.505 . S
C506 C95 1.504 . S
C531 C2 1.487 . S
C536 C162 1.487 . S
C561 C221 1.493 . S
C566 C21 1.491 . S
C591 C261 1.495 . S
C596 C61 1.490 . S
C621 C101 1.490 . S
C626 C301 1.495 . S
C651 C181 1.491 . S
C656 C141 1.488 . S
