# Generated by pormake.
# Topology ull, (4)-cn, num edge types: 1
# Building blocks:
#     Node 0, Type 0, BuildingBlock: ICAMEG_clean_sbu_1, # of connection points: 4
#     Node 1, Type 0, BuildingBlock: ICAMEG_clean_sbu_1, # of connection points: 4
#     Node 2, Type 0, BuildingBlock: ICAMEG_clean_sbu_1, # of connection points: 4
#     Node 3, Type 0, BuildingBlock: ICAMEG_clean_sbu_1, # of connection points: 4
#     Node 4, Type 0, BuildingBlock: ICAMEG_clean_sbu_1, # of connection points: 4
#     Node 5, Type 0, BuildingBlock: ICAMEG_clean_sbu_1, # of connection points: 4
#     Node 6, Type 0, BuildingBlock: ICAMEG_clean_sbu_1, # of connection points: 4
#     Node 7, Type 0, BuildingBlock: ICAMEG_clean_sbu_1, # of connection points: 4
#     Node 8, Type 0, BuildingBlock: ICAMEG_clean_sbu_1, # of connection points: 4
#     Node 9, Type 0, BuildingBlock: ICAMEG_clean_sbu_1, # of connection points: 4
#     Node 10, Type 0, BuildingBlock: ICAMEG_clean_sbu_1, # of connection points: 4
#     Node 11, Type 0, BuildingBlock: ICAMEG_clean_sbu_1, # of connection points: 4
#     Node 12, Type 0, BuildingBlock: ICAMEG_clean_sbu_1, # of connection points: 4
#     Node 13, Type 0, BuildingBlock: ICAMEG_clean_sbu_1, # of connection points: 4
#     Node 14, Type 0, BuildingBlock: ICAMEG_clean_sbu_1, # of connection points: 4
#     Node 15, Type 0, BuildingBlock: ICAMEG_clean_sbu_1, # of connection points: 4
#     Node 16, Type 0, BuildingBlock: ICAMEG_clean_sbu_1, # of connection points: 4
#     Node 17, Type 0, BuildingBlock: ICAMEG_clean_sbu_1, # of connection points: 4
#     Node 18, Type 0, BuildingBlock: ICAMEG_clean_sbu_1, # of connection points: 4
#     Node 19, Type 0, BuildingBlock: ICAMEG_clean_sbu_1, # of connection points: 4
#     Node 20, Type 0, BuildingBlock: ICAMEG_clean_sbu_1, # of connection points: 4
#     Node 21, Type 0, BuildingBlock: ICAMEG_clean_sbu_1, # of connection points: 4
#     Node 22, Type 0, BuildingBlock: ICAMEG_clean_sbu_1, # of connection points: 4
#     Node 23, Type 0, BuildingBlock: ICAMEG_clean_sbu_1, # of connection points: 4
#     Node 24, Type 0, BuildingBlock: ICAMEG_clean_sbu_1, # of connection points: 4
#     Node 25, Type 0, BuildingBlock: ICAMEG_clean_sbu_1, # of connection points: 4
#     Node 26, Type 0, BuildingBlock: ICAMEG_clean_sbu_1, # of connection points: 4
#     Node 27, Type 0, BuildingBlock: ICAMEG_clean_sbu_1, # of connection points: 4
#     Node 28, Type 0, BuildingBlock: ICAMEG_clean_sbu_1, # of connection points: 4
#     Node 29, Type 0, BuildingBlock: ICAMEG_clean_sbu_1, # of connection points: 4
#     Node 30, Type 0, BuildingBlock: ICAMEG_clean_sbu_1, # of connection points: 4
#     Node 31, Type 0, BuildingBlock: ICAMEG_clean_sbu_1, # of connection points: 4
#     Node 32, Type 0, BuildingBlock: ICAMEG_clean_sbu_1, # of connection points: 4
#     Node 33, Type 0, BuildingBlock: ICAMEG_clean_sbu_1, # of connection points: 4
#     Node 34, Type 0, BuildingBlock: ICAMEG_clean_sbu_1, # of connection points: 4
#     Node 35, Type 0, BuildingBlock: ICAMEG_clean_sbu_1, # of connection points: 4
#     Node 36, Type 0, BuildingBlock: ICAMEG_clean_sbu_1, # of connection points: 4
#     Node 37, Type 0, BuildingBlock: ICAMEG_clean_sbu_1, # of connection points: 4
#     Node 38, Type 0, BuildingBlock: ICAMEG_clean_sbu_1, # of connection points: 4
#     Node 39, Type 0, BuildingBlock: ICAMEG_clean_sbu_1, # of connection points: 4
#     Node 40, Type 0, BuildingBlock: ICAMEG_clean_sbu_1, # of connection points: 4
#     Node 41, Type 0, BuildingBlock: ICAMEG_clean_sbu_1, # of connection points: 4
#     Node 42, Type 0, BuildingBlock: ICAMEG_clean_sbu_1, # of connection points: 4
#     Node 43, Type 0, BuildingBlock: ICAMEG_clean_sbu_1, # of connection points: 4
#     Node 44, Type 0, BuildingBlock: ICAMEG_clean_sbu_1, # of connection points: 4
#     Node 45, Type 0, BuildingBlock: ICAMEG_clean_sbu_1, # of connection points: 4
#     Node 46, Type 0, BuildingBlock: ICAMEG_clean_sbu_1, # of connection points: 4
#     Node 47, Type 0, BuildingBlock: ICAMEG_clean_sbu_1, # of connection points: 4
#     Edge 48, Type (0, 0), BuildingBlock: XIVTED_clean_linker_0, # of connection points: 2
#     Edge 49, Type (0, 0), BuildingBlock: XIVTED_clean_linker_0, # of connection points: 2
#     Edge 50, Type (0, 0), BuildingBlock: XIVTED_clean_linker_0, # of connection points: 2
#     Edge 51, Type (0, 0), BuildingBlock: XIVTED_clean_linker_0, # of connection points: 2
#     Edge 52, Type (0, 0), BuildingBlock: XIVTED_clean_linker_0, # of connection points: 2
#     Edge 53, Type (0, 0), BuildingBlock: XIVTED_clean_linker_0, # of connection points: 2
#     Edge 54, Type (0, 0), BuildingBlock: XIVTED_clean_linker_0, # of connection points: 2
#     Edge 55, Type (0, 0), BuildingBlock: XIVTED_clean_linker_0, # of connection points: 2
#     Edge 56, Type (0, 0), BuildingBlock: XIVTED_clean_linker_0, # of connection points: 2
#     Edge 57, Type (0, 0), BuildingBlock: XIVTED_clean_linker_0, # of connection points: 2
#     Edge 58, Type (0, 0), BuildingBlock: XIVTED_clean_linker_0, # of connection points: 2
#     Edge 59, Type (0, 0), BuildingBlock: XIVTED_clean_linker_0, # of connection points: 2
#     Edge 60, Type (0, 0), BuildingBlock: XIVTED_clean_linker_0, # of connection points: 2
#     Edge 61, Type (0, 0), BuildingBlock: XIVTED_clean_linker_0, # of connection points: 2
#     Edge 62, Type (0, 0), BuildingBlock: XIVTED_clean_linker_0, # of connection points: 2
#     Edge 63, Type (0, 0), BuildingBlock: XIVTED_clean_linker_0, # of connection points: 2
#     Edge 64, Type (0, 0), BuildingBlock: XIVTED_clean_linker_0, # of connection points: 2
#     Edge 65, Type (0, 0), BuildingBlock: XIVTED_clean_linker_0, # of connection points: 2
#     Edge 66, Type (0, 0), BuildingBlock: XIVTED_clean_linker_0, # of connection points: 2
#     Edge 67, Type (0, 0), BuildingBlock: XIVTED_clean_linker_0, # of connection points: 2
#     Edge 68, Type (0, 0), BuildingBlock: XIVTED_clean_linker_0, # of connection points: 2
#     Edge 69, Type (0, 0), BuildingBlock: XIVTED_clean_linker_0, # of connection points: 2
#     Edge 70, Type (0, 0), BuildingBlock: XIVTED_clean_linker_0, # of connection points: 2
#     Edge 71, Type (0, 0), BuildingBlock: XIVTED_clean_linker_0, # of connection points: 2
#     Edge 72, Type (0, 0), BuildingBlock: XIVTED_clean_linker_0, # of connection points: 2
#     Edge 73, Type (0, 0), BuildingBlock: XIVTED_clean_linker_0, # of connection points: 2
#     Edge 74, Type (0, 0), BuildingBlock: XIVTED_clean_linker_0, # of connection points: 2
#     Edge 75, Type (0, 0), BuildingBlock: XIVTED_clean_linker_0, # of connection points: 2
#     Edge 76, Type (0, 0), BuildingBlock: XIVTED_clean_linker_0, # of connection points: 2
#     Edge 77, Type (0, 0), BuildingBlock: XIVTED_clean_linker_0, # of connection points: 2
#     Edge 78, Type (0, 0), BuildingBlock: XIVTED_clean_linker_0, # of connection points: 2
#     Edge 79, Type (0, 0), BuildingBlock: XIVTED_clean_linker_0, # of connection points: 2
#     Edge 80, Type (0, 0), BuildingBlock: XIVTED_clean_linker_0, # of connection points: 2
#     Edge 81, Type (0, 0), BuildingBlock: XIVTED_clean_linker_0, # of connection points: 2
#     Edge 82, Type (0, 0), BuildingBlock: XIVTED_clean_linker_0, # of connection points: 2
#     Edge 83, Type (0, 0), BuildingBlock: XIVTED_clean_linker_0, # of connection points: 2
#     Edge 84, Type (0, 0), BuildingBlock: XIVTED_clean_linker_0, # of connection points: 2
#     Edge 85, Type (0, 0), BuildingBlock: XIVTED_clean_linker_0, # of connection points: 2
#     Edge 86, Type (0, 0), BuildingBlock: XIVTED_clean_linker_0, # of connection points: 2
#     Edge 87, Type (0, 0), BuildingBlock: XIVTED_clean_linker_0, # of connection points: 2
#     Edge 88, Type (0, 0), BuildingBlock: XIVTED_clean_linker_0, # of connection points: 2
#     Edge 89, Type (0, 0), BuildingBlock: XIVTED_clean_linker_0, # of connection points: 2
#     Edge 90, Type (0, 0), BuildingBlock: XIVTED_clean_linker_0, # of connection points: 2
#     Edge 91, Type (0, 0), BuildingBlock: XIVTED_clean_linker_0, # of connection points: 2
#     Edge 92, Type (0, 0), BuildingBlock: XIVTED_clean_linker_0, # of connection points: 2
#     Edge 93, Type (0, 0), BuildingBlock: XIVTED_clean_linker_0, # of connection points: 2
#     Edge 94, Type (0, 0), BuildingBlock: XIVTED_clean_linker_0, # of connection points: 2
#     Edge 95, Type (0, 0), BuildingBlock: XIVTED_clean_linker_0, # of connection points: 2
#     Edge 96, Type (0, 0), BuildingBlock: XIVTED_clean_linker_0, # of connection points: 2
#     Edge 97, Type (0, 0), BuildingBlock: XIVTED_clean_linker_0, # of connection points: 2
#     Edge 98, Type (0, 0), BuildingBlock: XIVTED_clean_linker_0, # of connection points: 2
#     Edge 99, Type (0, 0), BuildingBlock: XIVTED_clean_linker_0, # of connection points: 2
#     Edge 100, Type (0, 0), BuildingBlock: XIVTED_clean_linker_0, # of connection points: 2
#     Edge 101, Type (0, 0), BuildingBlock: XIVTED_clean_linker_0, # of connection points: 2
#     Edge 102, Type (0, 0), BuildingBlock: XIVTED_clean_linker_0, # of connection points: 2
#     Edge 103, Type (0, 0), BuildingBlock: XIVTED_clean_linker_0, # of connection points: 2
#     Edge 104, Type (0, 0), BuildingBlock: XIVTED_clean_linker_0, # of connection points: 2
#     Edge 105, Type (0, 0), BuildingBlock: XIVTED_clean_linker_0, # of connection points: 2
#     Edge 106, Type (0, 0), BuildingBlock: XIVTED_clean_linker_0, # of connection points: 2
#     Edge 107, Type (0, 0), BuildingBlock: XIVTED_clean_linker_0, # of connection points: 2
#     Edge 108, Type (0, 0), BuildingBlock: XIVTED_clean_linker_0, # of connection points: 2
#     Edge 109, Type (0, 0), BuildingBlock: XIVTED_clean_linker_0, # of connection points: 2
#     Edge 110, Type (0, 0), BuildingBlock: XIVTED_clean_linker_0, # of connection points: 2
#     Edge 111, Type (0, 0), BuildingBlock: XIVTED_clean_linker_0, # of connection points: 2
#     Edge 112, Type (0, 0), BuildingBlock: XIVTED_clean_linker_0, # of connection points: 2
#     Edge 113, Type (0, 0), BuildingBlock: XIVTED_clean_linker_0, # of connection points: 2
#     Edge 114, Type (0, 0), BuildingBlock: XIVTED_clean_linker_0, # of connection points: 2
#     Edge 115, Type (0, 0), BuildingBlock: XIVTED_clean_linker_0, # of connection points: 2
#     Edge 116, Type (0, 0), BuildingBlock: XIVTED_clean_linker_0, # of connection points: 2
#     Edge 117, Type (0, 0), BuildingBlock: XIVTED_clean_linker_0, # of connection points: 2
#     Edge 118, Type (0, 0), BuildingBlock: XIVTED_clean_linker_0, # of connection points: 2
#     Edge 119, Type (0, 0), BuildingBlock: XIVTED_clean_linker_0, # of connection points: 2
#     Edge 120, Type (0, 0), BuildingBlock: XIVTED_clean_linker_0, # of connection points: 2
#     Edge 121, Type (0, 0), BuildingBlock: XIVTED_clean_linker_0, # of connection points: 2
#     Edge 122, Type (0, 0), BuildingBlock: XIVTED_clean_linker_0, # of connection points: 2
#     Edge 123, Type (0, 0), BuildingBlock: XIVTED_clean_linker_0, # of connection points: 2
#     Edge 124, Type (0, 0), BuildingBlock: XIVTED_clean_linker_0, # of connection points: 2
#     Edge 125, Type (0, 0), BuildingBlock: XIVTED_clean_linker_0, # of connection points: 2
#     Edge 126, Type (0, 0), BuildingBlock: XIVTED_clean_linker_0, # of connection points: 2
#     Edge 127, Type (0, 0), BuildingBlock: XIVTED_clean_linker_0, # of connection points: 2
#     Edge 128, Type (0, 0), BuildingBlock: XIVTED_clean_linker_0, # of connection points: 2
#     Edge 129, Type (0, 0), BuildingBlock: XIVTED_clean_linker_0, # of connection points: 2
#     Edge 130, Type (0, 0), BuildingBlock: XIVTED_clean_linker_0, # of connection points: 2
#     Edge 131, Type (0, 0), BuildingBlock: XIVTED_clean_linker_0, # of connection points: 2
#     Edge 132, Type (0, 0), BuildingBlock: XIVTED_clean_linker_0, # of connection points: 2
#     Edge 133, Type (0, 0), BuildingBlock: XIVTED_clean_linker_0, # of connection points: 2
#     Edge 134, Type (0, 0), BuildingBlock: XIVTED_clean_linker_0, # of connection points: 2
#     Edge 135, Type (0, 0), BuildingBlock: XIVTED_clean_linker_0, # of connection points: 2
#     Edge 136, Type (0, 0), BuildingBlock: XIVTED_clean_linker_0, # of connection points: 2
#     Edge 137, Type (0, 0), BuildingBlock: XIVTED_clean_linker_0, # of connection points: 2
#     Edge 138, Type (0, 0), BuildingBlock: XIVTED_clean_linker_0, # of connection points: 2
#     Edge 139, Type (0, 0), BuildingBlock: XIVTED_clean_linker_0, # of connection points: 2
#     Edge 140, Type (0, 0), BuildingBlock: XIVTED_clean_linker_0, # of connection points: 2
#     Edge 141, Type (0, 0), BuildingBlock: XIVTED_clean_linker_0, # of connection points: 2
#     Edge 142, Type (0, 0), BuildingBlock: XIVTED_clean_linker_0, # of connection points: 2
#     Edge 143, Type (0, 0), BuildingBlock: XIVTED_clean_linker_0, # of connection points: 2
# Relax obj value: 0.036
# Max RMSD: 0.074
# Mean RMSD: 0.074
data_MOF--net-ull--node1-ICAMEG_clean_sbu_1--edge1-XIVTED_clean_linker_0
_symmetry_space_group_name_H-M    P1
_symmetry_Int_Tables_number       1
_symmetry_cell_setting            triclinic
loop_
_symmetry_equiv_pos_as_xyz
'x, y, z'
_cell_length_a     65.407043
_cell_length_b     65.414571
_cell_length_c     65.422746
_cell_angle_alpha  89.993724
_cell_angle_beta   89.987201
_cell_angle_gamma 90.004204
loop_
_atom_site_label
_atom_site_type_symbol
_atom_site_fract_x
_atom_site_fract_y
_atom_site_fract_z
_atom_type_partial_charge
Co0 Co 0.04038 0.31009 0.15853 0.0
Co1 Co 0.04041 0.36242 0.16229 0.0
O2 O 0.04322 0.33519 0.17464 0.0
C3 C 0.01718 0.30164 0.19742 0.0
O4 O 0.0124 0.32101 0.19931 0.0
C5 C 0.07767 0.36484 0.18902 0.0
O6 O 0.08346 0.34681 0.18242 0.0
O7 O 0.06177 0.35566 0.1414 0.0
O8 O 0.05338 0.32327 0.13416 0.0
H9 H 0.03326 0.41194 0.10403 0.0
H10 H 0.06073 0.3082 0.19897 0.0
O11 O 0.02762 0.29544 0.18222 0.0
H12 H 0.11197 0.28289 0.14983 0.0
H13 H 0.04226 0.23399 0.14672 0.0
H14 H 0.02694 0.30119 0.11621 0.0
H15 H 0.07773 0.29336 0.13812 0.0
H16 H 0.04671 0.26558 0.16678 0.0
O17 O 0.06184 0.37338 0.1815 0.0
H18 H 0.03618 0.37787 0.11993 0.0
H19 H 0.03977 0.40499 0.1788 0.0
H20 H 0.02243 0.26998 0.09556 0.0
H21 H 0.09467 0.29756 0.21141 0.0
H22 H 0.03011 0.23607 0.11081 0.0
H23 H 0.12061 0.28489 0.18675 0.0
O24 O 0.01292 0.31914 0.14917 0.0
H25 H 0.01152 0.3666 0.23342 0.0
H26 H 0.99864 0.38084 0.16056 0.0
H27 H 0.97207 0.38897 0.18599 0.0
H28 H 0.97846 0.38194 0.22275 0.0
H29 H 0.03749 0.3583 0.20743 0.0
H30 H 0.03705 0.43935 0.16354 0.0
H31 H 0.03369 0.44299 0.12589 0.0
O32 O 0.0182 0.35254 0.14327 0.0
C33 C 0.06291 0.33978 0.13009 0.0
C34 C 0.03467 0.41056 0.12046 0.0
C35 C 0.03683 0.42594 0.15385 0.0
N36 N 0.03803 0.38943 0.15027 0.0
C37 C 0.03628 0.39131 0.12955 0.0
C38 C 0.03842 0.40644 0.1624 0.0
C39 C 0.03493 0.42797 0.13273 0.0
C40 C 0.07184 0.30248 0.18816 0.0
N41 N 0.06722 0.30142 0.16782 0.0
C42 C 0.09108 0.29657 0.19529 0.0
C43 C 0.10564 0.28951 0.18144 0.0
C44 C 0.10081 0.28842 0.16073 0.0
C45 C 0.08142 0.29448 0.15416 0.0
C46 C 0.0389 0.24868 0.13989 0.0
C47 C 0.03042 0.2865 0.12292 0.0
C48 C 0.04134 0.26663 0.15119 0.0
N49 N 0.03722 0.28524 0.14263 0.0
C50 C 0.02779 0.26888 0.11117 0.0
C51 C 0.03209 0.24985 0.11974 0.0
C52 C 0.00745 0.33628 0.14159 0.0
C53 C 0.00855 0.36976 0.21745 0.0
C54 C 1.00145 0.37747 0.17647 0.0
C55 C 0.98639 0.38224 0.19083 0.0
C56 C 0.99 0.37833 0.21145 0.0
N57 N 0.01961 0.36901 0.18245 0.0
C58 C 0.02326 0.36519 0.20266 0.0
Co59 Co 0.63991 0.04173 0.16057 0.0
Co60 Co 0.69239 0.0406 0.15833 0.0
O61 O 0.66686 0.04388 0.17366 0.0
C62 C 0.63782 0.07936 0.18658 0.0
O63 O 0.65558 0.08515 0.17923 0.0
C64 C 0.69974 0.01961 0.19901 0.0
O65 O 0.68013 0.01904 0.20309 0.0
O66 O 0.68296 0.01344 0.14841 0.0
O67 O 0.64979 0.01934 0.14177 0.0
H68 H 0.73382 0.02243 0.09626 0.0
H69 H 0.64219 0.03881 0.20588 0.0
O70 O 0.62913 0.06338 0.17959 0.0
H71 H 0.61117 0.97395 0.18328 0.0
H72 H 0.56291 0.04039 0.1599 0.0
H73 H 0.62543 0.03778 0.11784 0.0
H74 H 0.62079 1.00033 0.15819 0.0
H75 H 0.59694 0.0423 0.17601 0.0
O76 O 0.7062 0.02708 0.18222 0.0
H77 H 0.70216 0.02746 0.1161 0.0
H78 H 0.7368 0.0457 0.1679 0.0
H79 H 0.59171 0.03567 0.10111 0.0
H80 H 0.6324 0.01302 0.23153 0.0
H81 H 0.56014 0.03698 0.12219 0.0
H82 H 0.61688 0.98025 0.22028 0.0
O83 O 0.6477 0.06292 0.13987 0.0
H84 H 0.70361 0.09473 0.21176 0.0
H85 H 0.71112 0.07743 0.13883 0.0
H86 H 0.72191 0.1114 0.15099 0.0
H87 H 0.71826 0.12023 0.18773 0.0
H88 H 0.69271 0.06109 0.19888 0.0
H89 H 0.76884 0.0407 0.14867 0.0
H90 H 0.76748 0.02907 0.11256 0.0
O91 O 0.68024 0.05419 0.13374 0.0
C92 C 0.66589 0.00831 0.14044 0.0
C93 C 0.73462 0.02757 0.11197 0.0
C94 C 0.75427 0.03779 0.14139 0.0
N95 N 0.7176 0.03701 0.14309 0.0
C96 C 0.71673 0.03049 0.12327 0.0
C97 C 0.73607 0.04055 0.15222 0.0
C98 C 0.75349 0.03127 0.12113 0.0
C99 C 0.63529 0.02468 0.20084 0.0
N100 N 0.63224 0.02106 0.18049 0.0
C101 C 0.62984 0.01009 0.21545 0.0
C102 C 0.62117 0.99169 0.20913 0.0
C103 C 0.618 0.98813 0.18837 0.0
C104 C 0.62364 0.00308 0.1742 0.0
C105 C 0.57655 0.03979 0.15055 0.0
C106 C 0.61177 0.03826 0.12712 0.0
C107 C 0.59587 0.04092 0.15958 0.0
N108 N 0.61316 0.04004 0.14788 0.0
C109 C 0.59271 0.03711 0.11756 0.0
C110 C 0.57501 0.03786 0.12939 0.0
C111 C 0.66398 0.06389 0.12911 0.0
C112 C 0.70537 0.09104 0.19573 0.0
C113 C 0.70935 0.08117 0.15479 0.0
C114 C 0.71557 0.10042 0.16162 0.0
C115 C 0.71354 0.10535 0.18224 0.0
N116 N 0.70139 0.06717 0.16812 0.0
C117 C 0.69935 0.07193 0.18836 0.0
Co118 Co 0.96429 0.69388 0.15628 0.0
Co119 Co 0.96396 0.64164 0.15968 0.0
O120 O 0.96115 0.66875 0.17221 0.0
C121 C 0.98828 0.70194 0.19454 0.0
O122 O 0.99494 0.68302 0.19462 0.0
C123 C 0.92661 0.63896 0.18632 0.0
O124 O 0.92047 0.65675 0.17939 0.0
O125 O 0.94262 0.64864 0.13879 0.0
O126 O 0.95171 0.68088 0.13162 0.0
H127 H 0.97113 0.59248 0.10113 0.0
H128 H 0.9433 0.69548 0.19637 0.0
O129 O 0.97655 0.70821 0.18036 0.0
H130 H 0.89287 0.72122 0.14664 0.0
H131 H 0.96264 0.77006 0.14497 0.0
H132 H 0.97849 0.70306 0.11426 0.0
H133 H 0.92731 0.71087 0.1354 0.0
H134 H 0.95784 0.73831 0.16472 0.0
O135 O 0.94259 0.6306 0.17893 0.0
H136 H 0.96822 0.62645 0.11723 0.0
H137 H 0.96453 0.59897 0.17594 0.0
H138 H 0.98336 0.73442 0.0939 0.0
H139 H 0.90914 0.70598 0.20836 0.0
H140 H 0.97542 0.76823 0.10925 0.0
H141 H 0.88361 0.71888 0.18339 0.0
O142 O 0.99191 0.68481 0.14729 0.0
H143 H 0.99312 0.63783 0.2307 0.0
H144 H 0.00559 0.6229 0.15791 0.0
H145 H 0.03223 0.61482 0.18328 0.0
H146 H 0.02604 0.62221 0.22001 0.0
H147 H 0.96706 0.64601 0.20477 0.0
H148 H 0.96723 0.5647 0.16047 0.0
H149 H 0.97065 0.56131 0.12281 0.0
O150 O 0.9862 0.65162 0.14073 0.0
C151 C 0.94188 0.66456 0.12746 0.0
C152 C 0.9697 0.59377 0.11756 0.0
C153 C 0.96748 0.57818 0.15086 0.0
N154 N 0.96631 0.61471 0.1475 0.0
C155 C 0.96809 0.61296 0.12677 0.0
C156 C 0.96589 0.59762 0.15953 0.0
C157 C 0.96941 0.57628 0.12973 0.0
C158 C 0.93236 0.70127 0.18544 0.0
N159 N 0.93731 0.70251 0.16519 0.0
C160 C 0.913 0.70711 0.19231 0.0
C161 C 0.89867 0.71431 0.17829 0.0
C162 C 0.90385 0.71559 0.15767 0.0
C163 C 0.92334 0.70959 0.15136 0.0
C164 C 0.96613 0.75542 0.1381 0.0
C165 C 0.97491 0.71771 0.12102 0.0
C166 C 0.9635 0.73739 0.14923 0.0
N167 N 0.96777 0.71883 0.14061 0.0
C168 C 0.97774 0.73542 0.10943 0.0
C169 C 0.97329 0.75438 0.11806 0.0
C170 C 0.99723 0.66773 0.13947 0.0
C171 C 0.99599 0.6345 0.21475 0.0
C172 C 0.00285 0.62637 0.17381 0.0
C173 C 0.01796 0.62165 0.18813 0.0
C174 C 0.01447 0.62577 0.20874 0.0
N175 N 0.98477 0.63496 0.1798 0.0
C176 C 0.98124 0.63901 0.19999 0.0
Co177 Co 0.36534 0.96467 0.16307 0.0
Co178 Co 0.31312 0.96397 0.15872 0.0
O179 O 0.33803 0.96139 0.17504 0.0
C180 C 0.36783 0.92678 0.18869 0.0
O181 O 0.35068 0.92039 0.18047 0.0
C182 C 0.304 0.98748 0.19713 0.0
O183 O 0.32304 0.99369 0.19821 0.0
O184 O 0.32184 0.99167 0.14969 0.0
O185 O 0.35539 0.98694 0.1441 0.0
H186 H 0.27326 0.98191 0.09558 0.0
H187 H 0.36031 0.96718 0.20814 0.0
O188 O 0.37614 0.94323 0.18235 0.0
H189 H 0.39063 0.03312 0.18777 0.0
H190 H 0.4422 0.96883 0.16555 0.0
H191 H 0.38139 0.96964 0.121 0.0
H192 H 0.38331 0.00665 0.162 0.0
H193 H 0.40763 0.96552 0.18024 0.0
O194 O 0.29811 0.97616 0.18246 0.0
H195 H 0.30436 0.97774 0.11647 0.0
H196 H 0.26867 0.95675 0.1665 0.0
H197 H 0.41567 0.97314 0.10568 0.0
H198 H 0.36775 0.99307 0.23446 0.0
H199 H 0.44638 0.97275 0.12801 0.0
H200 H 0.38292 0.02638 0.22433 0.0
O201 O 0.35917 0.94344 0.14183 0.0
H202 H 0.30152 0.90882 0.2109 0.0
H203 H 0.29715 0.92657 0.13781 0.0
H204 H 0.28741 0.89196 0.14907 0.0
H205 H 0.2895 0.8829 0.18589 0.0
H206 H 0.3114 0.94316 0.1989 0.0
H207 H 0.23717 0.96084 0.1462 0.0
H208 H 0.23935 0.97343 0.11045 0.0
O209 O 0.32674 0.95151 0.13437 0.0
C210 C 0.33897 0.99743 0.14229 0.0
C211 C 0.27211 0.97636 0.11113 0.0
C212 C 0.25186 0.96456 0.13955 0.0
N213 N 0.28836 0.96689 0.14263 0.0
C214 C 0.28968 0.97393 0.12301 0.0
C215 C 0.26975 0.96232 0.15098 0.0
C216 C 0.25309 0.97162 0.11948 0.0
C217 C 0.36712 0.98153 0.20361 0.0
N218 N 0.37133 0.98537 0.18351 0.0
C219 C 0.37121 0.99618 0.21859 0.0
C220 C 0.37968 0.01488 0.21289 0.0
C221 C 0.38398 0.01868 0.19238 0.0
C222 C 0.37968 0.00367 0.17782 0.0
C223 C 0.42894 0.96904 0.15566 0.0
C224 C 0.39467 0.96955 0.13083 0.0
C225 C 0.40932 0.96712 0.16389 0.0
N226 N 0.3925 0.9675 0.1515 0.0
C227 C 0.41405 0.97149 0.12206 0.0
C228 C 0.43127 0.97125 0.1346 0.0
C229 C 0.34342 0.94226 0.13032 0.0
C230 C 0.30049 0.91259 0.19482 0.0
C231 C 0.29828 0.92271 0.1538 0.0
C232 C 0.29264 0.90311 0.16012 0.0
C233 C 0.29379 0.89805 0.18078 0.0
N234 N 0.30486 0.93689 0.16766 0.0
C235 C 0.30597 0.93205 0.18795 0.0
Co236 Co 0.04129 0.69298 0.84404 0.0
Co237 Co 0.03987 0.6409 0.84103 0.0
O238 O 0.04376 0.66772 0.8285 0.0
C239 C 0.01545 0.70262 0.80751 0.0
O240 O 0.00352 0.68701 0.81162 0.0
C241 C 0.07778 0.63723 0.81566 0.0
O242 O 0.08451 0.65429 0.82378 0.0
O243 O 0.0611 0.64732 0.8622 0.0
O244 O 0.05284 0.67986 0.86915 0.0
H245 H 0.03036 0.592 0.89947 0.0
H246 H 0.06334 0.69306 0.80442 0.0
O247 O 0.03042 0.70697 0.81912 0.0
H248 H 0.11336 0.71797 0.85498 0.0
H249 H 0.04505 0.76928 0.85374 0.0
H250 H 0.02692 0.70345 0.88571 0.0
H251 H 0.07831 0.70903 0.86551 0.0
H252 H 0.04906 0.73699 0.8347 0.0
O253 O 0.06112 0.62934 0.82201 0.0
H254 H 0.03449 0.62587 0.88342 0.0
H255 H 0.03835 0.59829 0.82477 0.0
H256 H 0.02281 0.73537 0.90535 0.0
H257 H 0.09814 0.70214 0.79315 0.0
H258 H 0.03192 0.76859 0.88936 0.0
H259 H 0.12347 0.71461 0.81854 0.0
O260 O 0.0132 0.68497 0.85282 0.0
H261 H 0.01086 0.63967 0.76989 0.0
H262 H 0.99788 0.62295 0.84221 0.0
H263 H 0.97111 0.61624 0.81657 0.0
H264 H 0.97754 0.62457 0.78009 0.0
H265 H 0.03713 0.64631 0.79606 0.0
H266 H 0.03442 0.56411 0.8402 0.0
H267 H 0.0303 0.56081 0.8778 0.0
O268 O 0.01777 0.65163 0.85965 0.0
C269 C 0.06211 0.66325 0.87351 0.0
C270 C 0.03208 0.59324 0.88306 0.0
C271 C 0.0344 0.57758 0.8498 0.0
N272 N 0.03653 0.61406 0.85318 0.0
C273 C 0.03438 0.61238 0.87388 0.0
C274 C 0.03668 0.59697 0.84116 0.0
C275 C 0.03207 0.57574 0.8709 0.0
C276 C 0.0742 0.69867 0.81553 0.0
N277 N 0.06877 0.70048 0.83563 0.0
C278 C 0.09392 0.70371 0.80907 0.0
C279 C 0.10813 0.71066 0.82332 0.0
C280 C 0.10248 0.71252 0.84378 0.0
C281 C 0.08263 0.70733 0.84968 0.0
C282 C 0.04106 0.7549 0.86089 0.0
C283 C 0.03102 0.71784 0.87869 0.0
C284 C 0.04326 0.73656 0.85017 0.0
N285 N 0.03837 0.71833 0.85914 0.0
C286 C 0.02861 0.73586 0.88987 0.0
C287 C 0.0337 0.7545 0.88088 0.0
C288 C 0.00727 0.66811 0.86074 0.0
C289 C 0.00789 0.63593 0.78573 0.0
C290 C 1.00077 0.62671 0.8264 0.0
C291 C 0.98557 0.62282 0.81193 0.0
C292 C 0.98919 0.62748 0.79146 0.0
N293 N 0.01909 0.63497 0.82067 0.0
C294 C 0.02273 0.6396 0.80062 0.0
Co295 Co 0.36513 0.0417 0.8417 0.0
Co296 Co 0.31274 0.0412 0.84519 0.0
O297 O 0.33791 0.04421 0.8293 0.0
C298 C 0.36664 0.07974 0.81646 0.0
O299 O 0.34926 0.08535 0.82477 0.0
C300 C 0.30473 0.01781 0.80629 0.0
O301 O 0.32414 0.01316 0.80446 0.0
O302 O 0.32199 0.01387 0.85475 0.0
O303 O 0.35548 0.01908 0.86044 0.0
H304 H 0.27222 0.02309 0.90787 0.0
H305 H 0.36112 0.03927 0.7965 0.0
O306 O 0.37557 0.06355 0.82263 0.0
H307 H 0.3927 0.97406 0.81725 0.0
H308 H 0.4421 0.03981 0.84035 0.0
H309 H 0.38067 0.03694 0.88397 0.0
H310 H 0.38412 1.0002 0.84297 0.0
H311 H 0.40767 0.04221 0.82516 0.0
O312 O 0.2984 0.02825 0.82143 0.0
H313 H 0.30357 0.02776 0.88746 0.0
H314 H 0.26826 0.0472 0.83656 0.0
H315 H 0.4148 0.03434 0.89979 0.0
H316 H 0.36984 0.01373 0.77024 0.0
H317 H 0.44582 0.03577 0.87792 0.0
H318 H 0.38565 0.98078 0.78055 0.0
O319 O 0.35808 0.06268 0.86295 0.0
H320 H 0.3009 0.09535 0.79202 0.0
H321 H 0.29535 0.07845 0.86524 0.0
H322 H 0.285 0.11265 0.85329 0.0
H323 H 0.28769 0.12127 0.81641 0.0
H324 H 0.31136 0.06144 0.80469 0.0
H325 H 0.23652 0.04258 0.85637 0.0
H326 H 0.23838 0.03052 0.89232 0.0
O327 O 0.32555 0.05435 0.86959 0.0
C328 C 0.33918 0.00838 0.86223 0.0
C329 C 0.27121 0.02841 0.89224 0.0
C330 C 0.25118 0.03932 0.86332 0.0
N331 N 0.28778 0.03788 0.86089 0.0
C332 C 0.28892 0.03113 0.88062 0.0
C333 C 0.26921 0.04186 0.85217 0.0
C334 C 0.25223 0.03256 0.8835 0.0
C335 C 0.3682 0.02508 0.80113 0.0
N336 N 0.37205 0.02125 0.8213 0.0
C337 C 0.37301 0.01062 0.78617 0.0
C338 C 0.38185 0.99213 0.79197 0.0
C339 C 0.38578 0.98834 0.81256 0.0
C340 C 0.38076 0.00315 0.82708 0.0
C341 C 0.4287 0.03915 0.85004 0.0
C342 C 0.39409 0.03748 0.87435 0.0
C343 C 0.40917 0.04055 0.84153 0.0
N344 N 0.39218 0.0396 0.85366 0.0
C345 C 0.41338 0.03604 0.88339 0.0
C346 C 0.43078 0.03687 0.87111 0.0
C347 C 0.34202 0.06376 0.87402 0.0
C348 C 0.2996 0.09176 0.80812 0.0
C349 C 0.29673 0.08212 0.84922 0.0
C350 C 0.29075 0.10149 0.84251 0.0
C351 C 0.29223 0.10631 0.82182 0.0
N352 N 0.30397 0.06793 0.8357 0.0
C353 C 0.30541 0.07254 0.81537 0.0
Co354 Co 0.96454 0.31299 0.84666 0.0
Co355 Co 0.96492 0.36544 0.84391 0.0
O356 O 0.96209 0.33844 0.83105 0.0
C357 C 0.98657 0.30489 0.80679 0.0
O358 O 0.98917 0.32447 0.80346 0.0
C359 C 0.92745 0.36833 0.81772 0.0
O360 O 0.92123 0.35072 0.82506 0.0
O361 O 0.94343 0.35843 0.86458 0.0
O362 O 0.95124 0.32574 0.87108 0.0
H363 H 0.97199 0.41397 0.90299 0.0
H364 H 0.94451 0.31256 0.80597 0.0
O365 O 0.97769 0.29863 0.82294 0.0
H366 H 0.89276 0.28586 0.85381 0.0
H367 H 0.96211 0.23668 0.85695 0.0
H368 H 0.9773 0.3032 0.889 0.0
H369 H 0.92695 0.29577 0.86615 0.0
H370 H 0.95811 0.26869 0.83745 0.0
O371 O 0.94362 0.37665 0.82473 0.0
H372 H 0.96908 0.38017 0.88653 0.0
H373 H 0.9656 0.40826 0.8281 0.0
H374 H 0.98135 0.27156 0.9091 0.0
H375 H 0.91063 0.30254 0.79291 0.0
H376 H 0.97373 0.238 0.89307 0.0
H377 H 0.88443 0.28915 0.81692 0.0
O378 O 0.99191 0.32171 0.8566 0.0
H379 H 0.99405 0.37146 0.77299 0.0
H380 H 0.00681 0.38346 0.84626 0.0
H381 H 0.03351 0.39216 0.82115 0.0
H382 H 0.02718 0.38626 0.78419 0.0
H383 H 0.96795 0.36256 0.79865 0.0
H384 H 0.96833 0.44237 0.84394 0.0
H385 H 0.97163 0.44537 0.88164 0.0
O386 O 0.987 0.35511 0.86288 0.0
C387 C 0.94195 0.34229 0.87549 0.0
C388 C 0.97062 0.41286 0.88655 0.0
C389 C 0.96853 0.4288 0.8534 0.0
N390 N 0.9673 0.39223 0.85638 0.0
C391 C 0.96901 0.39376 0.87714 0.0
C392 C 0.96694 0.40944 0.84453 0.0
C393 C 0.97039 0.43047 0.87456 0.0
C394 C 0.93332 0.3065 0.81648 0.0
N395 N 0.93778 0.30469 0.8368 0.0
C396 C 0.9141 0.30096 0.80901 0.0
C397 C 0.89939 0.29349 0.82249 0.0
C398 C 0.90405 0.29167 0.8432 0.0
C399 C 0.92342 0.2974 0.85012 0.0
C400 C 0.96544 0.25121 0.86412 0.0
C401 C 0.97384 0.28866 0.88195 0.0
C402 C 0.96325 0.26939 0.85314 0.0
N403 N 0.96733 0.28782 0.86212 0.0
C404 C 0.97621 0.27079 0.89339 0.0
C405 C 0.97195 0.25196 0.88438 0.0
C406 C 0.99753 0.33869 0.86444 0.0
C407 C 0.997 0.37411 0.78905 0.0
C408 C 0.00404 0.38054 0.83026 0.0
C409 C 0.01917 0.38565 0.81608 0.0
C410 C 0.01559 0.38237 0.79535 0.0
N411 N 0.98586 0.37235 0.82399 0.0
C412 C 0.98223 0.36919 0.80367 0.0
Co413 Co 0.6415 0.96353 0.84282 0.0
Co414 Co 0.69358 0.96253 0.84602 0.0
O415 O 0.6684 0.95998 0.83036 0.0
C416 C 0.63807 0.92585 0.8171 0.0
O417 O 0.65516 0.9191 0.82515 0.0
C418 C 0.70327 0.98883 0.80976 0.0
O419 O 0.68768 1.00075 0.81399 0.0
O420 O 0.68529 0.9905 0.85498 0.0
O421 O 0.65199 0.98551 0.86168 0.0
H422 H 0.73561 0.98091 0.9076 0.0
H423 H 0.64708 0.9668 0.79792 0.0
O424 O 0.63013 0.94242 0.82358 0.0
H425 H 0.61631 0.03232 0.81896 0.0
H426 H 0.56466 0.96843 0.84187 0.0
H427 H 0.62633 0.96832 0.88523 0.0
H428 H 0.62315 0.00534 0.84435 0.0
H429 H 0.59891 0.96493 0.82648 0.0
O430 O 0.70757 0.97371 0.82121 0.0
H431 H 0.70379 0.97667 0.88783 0.0
H432 H 0.73769 0.95523 0.83676 0.0
H433 H 0.59238 0.97202 0.90124 0.0
H434 H 0.64031 0.99328 0.77198 0.0
H435 H 0.56125 0.97209 0.87951 0.0
H436 H 0.62486 0.02635 0.78245 0.0
O437 O 0.64805 0.94215 0.86378 0.0
H438 H 0.70326 0.90616 0.79473 0.0
H439 H 0.70994 0.92551 0.86724 0.0
H440 H 0.71917 0.89061 0.85646 0.0
H441 H 0.71592 0.88075 0.81994 0.0
H442 H 0.69389 0.9408 0.80624 0.0
H443 H 0.76989 0.95938 0.85593 0.0
H444 H 0.76897 0.97223 0.89164 0.0
O445 O 0.68047 0.95064 0.87102 0.0
C446 C 0.66833 0.9962 0.86285 0.0
C447 C 0.73621 0.97524 0.89207 0.0
C448 C 0.75544 0.96318 0.86306 0.0
N449 N 0.71886 0.96556 0.86122 0.0
C450 C 0.71824 0.97275 0.88082 0.0
C451 C 0.73716 0.96091 0.85227 0.0
C452 C 0.75492 0.97038 0.8831 0.0
C453 C 0.64022 0.98109 0.80259 0.0
N454 N 0.63547 0.98447 0.82265 0.0
C455 C 0.63648 0.99605 0.78783 0.0
C456 C 0.62783 0.01461 0.79372 0.0
C457 C 0.62304 0.01797 0.8142 0.0
C458 C 0.62702 0.00266 0.82854 0.0
C459 C 0.57811 0.96844 0.8515 0.0
C460 C 0.61285 0.96843 0.87566 0.0
C461 C 0.59754 0.9664 0.84288 0.0
N462 N 0.6146 0.96653 0.85494 0.0
C463 C 0.59367 0.97049 0.88482 0.0
C464 C 0.57621 0.97051 0.87262 0.0
C465 C 0.66392 0.94114 0.87516 0.0
C466 C 0.70478 0.91028 0.81068 0.0
C467 C 0.70829 0.92129 0.85138 0.0
C468 C 0.71365 0.90153 0.84533 0.0
C469 C 0.71185 0.89602 0.82484 0.0
N470 N 0.70134 0.93519 0.83742 0.0
C471 C 0.69959 0.9299 0.81728 0.0
Co472 Co 0.15772 0.03842 0.3121 0.0
Co473 Co 0.1617 0.03866 0.3644 0.0
O474 O 0.17394 0.0415 0.3371 0.0
C475 C 0.19692 0.01577 0.30343 0.0
O476 O 0.19915 0.01125 0.32283 0.0
C477 C 0.18819 0.0761 0.36672 0.0
O478 O 0.18171 0.08175 0.3486 0.0
O479 O 0.14065 0.05985 0.3577 0.0
O480 O 0.1333 0.05119 0.3254 0.0
H481 H 0.10367 0.03112 0.41415 0.0
H482 H 0.19794 0.05919 0.3099 0.0
O483 O 0.18145 0.02587 0.29732 0.0
H484 H 0.14811 0.10984 0.28477 0.0
H485 H 0.14543 0.04006 0.23608 0.0
H486 H 0.11545 0.02457 0.30349 0.0
H487 H 0.13682 0.07551 0.29542 0.0
H488 H 0.16564 0.04473 0.26753 0.0
O489 O 0.18075 0.06024 0.37527 0.0
H490 H 0.11942 0.03413 0.38002 0.0
H491 H 0.17839 0.03815 0.4069 0.0
H492 H 0.09464 0.01984 0.27242 0.0
H493 H 0.20998 0.09322 0.29906 0.0
H494 H 0.10962 0.0276 0.2384 0.0
H495 H 0.18496 0.11886 0.28647 0.0
O496 O 0.14866 0.01087 0.32127 0.0
H497 H 0.23308 0.01034 0.36839 0.0
H498 H 0.16035 0.99687 0.38282 0.0
H499 H 0.18601 0.97051 0.39088 0.0
H500 H 0.22271 0.9772 0.38375 0.0
H501 H 0.20686 0.0361 0.36017 0.0
H502 H 0.16327 0.03535 0.44132 0.0
H503 H 0.12565 0.03171 0.4451 0.0
O504 O 0.1428 0.01632 0.35463 0.0
C505 C 0.12923 0.06079 0.34188 0.0
C506 C 0.12008 0.03265 0.4127 0.0
C507 C 0.15353 0.03505 0.42795 0.0
N508 N 0.1498 0.03621 0.39146 0.0
C509 C 0.12909 0.03432 0.39341 0.0
C510 C 0.162 0.0367 0.40842 0.0
C511 C 0.13242 0.033 0.43006 0.0
C512 C 0.18699 0.07016 0.30422 0.0
N513 N 0.16668 0.06533 0.30331 0.0
C514 C 0.19389 0.08946 0.2982 0.0
C515 C 0.17984 0.10385 0.29118 0.0
C516 C 0.15916 0.09881 0.29025 0.0
C517 C 0.15283 0.07937 0.29642 0.0
C518 C 0.13872 0.03665 0.25081 0.0
C519 C 0.12205 0.02808 0.28875 0.0
C520 C 0.1501 0.03922 0.26868 0.0
N521 N 0.14169 0.03505 0.28736 0.0
C522 C 0.1102 0.02533 0.27121 0.0
C523 C 0.11863 0.02967 0.25213 0.0
C524 C 0.14115 0.00546 0.33845 0.0
C525 C 0.21714 0.00725 0.37159 0.0
C526 C 0.17623 0.99981 0.37941 0.0
C527 C 0.19072 0.98487 0.38414 0.0
C528 C 0.21131 0.98864 0.38017 0.0
N529 N 0.18204 0.01801 0.37094 0.0
C530 C 0.20222 0.02183 0.36707 0.0
Co531 Co 0.96437 0.15787 0.31423 0.0
Co532 Co 0.96493 0.16226 0.36643 0.0
O533 O 0.96177 0.17426 0.33912 0.0
C534 C 0.98798 0.19622 0.30508 0.0
O535 O 0.99403 0.19745 0.32415 0.0
C536 C 0.92732 0.18832 0.36899 0.0
O537 O 0.92099 0.1806 0.35159 0.0
O538 O 0.94354 0.14122 0.36022 0.0
O539 O 0.95177 0.13358 0.32788 0.0
H540 H 0.97292 0.10475 0.41669 0.0
H541 H 0.94372 0.19812 0.31228 0.0
O542 O 0.9767 0.18151 0.2992 0.0
H543 H 0.89242 0.14838 0.28831 0.0
H544 H 0.96143 0.14518 0.23832 0.0
H545 H 0.97802 0.11554 0.30561 0.0
H546 H 0.92693 0.13702 0.29826 0.0
H547 H 0.95732 0.16556 0.26976 0.0
O548 O 0.94363 0.18162 0.37728 0.0
H549 H 0.96952 0.12013 0.38244 0.0
H550 H 0.96597 0.17939 0.40873 0.0
H551 H 0.9822 0.09456 0.27457 0.0
H552 H 0.90948 0.21021 0.30218 0.0
H553 H 0.97388 0.10938 0.24062 0.0
H554 H 0.88351 0.18524 0.29018 0.0
O555 O 0.99203 0.14878 0.32303 0.0
H556 H 0.99383 0.23346 0.36891 0.0
H557 H 0.0069 0.16089 0.38441 0.0
H558 H 0.03356 0.18648 0.39174 0.0
H559 H 0.02707 0.22309 0.38406 0.0
H560 H 0.96776 0.20732 0.36147 0.0
H561 H 0.96918 0.16464 0.44327 0.0
H562 H 0.97277 0.12706 0.44741 0.0
O563 O 0.98705 0.14315 0.35652 0.0
C564 C 0.94236 0.12968 0.3445 0.0
C565 C 0.97142 0.12115 0.41508 0.0
C566 C 0.96928 0.15476 0.43 0.0
N567 N 0.96766 0.15064 0.39358 0.0
C568 C 0.96953 0.12995 0.39573 0.0
C569 C 0.96741 0.16302 0.41041 0.0
C570 C 0.97131 0.13367 0.43231 0.0
C571 C 0.93258 0.18718 0.30687 0.0
N572 N 0.93735 0.16687 0.30587 0.0
C573 C 0.91318 0.19411 0.30126 0.0
C574 C 0.89861 0.18009 0.29456 0.0
C575 C 0.90359 0.1594 0.29354 0.0
C576 C 0.92314 0.15304 0.2993 0.0
C577 C 0.96508 0.13854 0.25303 0.0
C578 C 0.97427 0.12206 0.29091 0.0
C579 C 0.96282 0.15002 0.27089 0.0
N580 N 0.9673 0.14171 0.28953 0.0
C581 C 0.97671 0.11012 0.27338 0.0
C582 C 0.97205 0.11845 0.25433 0.0
C583 C 0.99766 0.14134 0.34018 0.0
C584 C 0.99683 0.21756 0.37236 0.0
C585 C 0.00404 0.17673 0.3808 0.0
C586 C 0.01915 0.19119 0.3851 0.0
C587 C 0.01549 0.21173 0.38082 0.0
N588 N 0.98578 0.18255 0.37246 0.0
C589 C 0.98208 0.20268 0.36827 0.0
Co590 Co 0.84566 0.96513 0.31282 0.0
Co591 Co 0.84096 0.96495 0.36501 0.0
O592 O 0.82924 0.96199 0.33758 0.0
C593 C 0.80761 0.98916 0.30395 0.0
O594 O 0.8072 0.99589 0.32284 0.0
C595 C 0.81618 0.92661 0.36646 0.0
O596 O 0.82488 0.92089 0.34931 0.0
O597 O 0.86256 0.94412 0.35865 0.0
O598 O 0.87005 0.95264 0.32634 0.0
H599 H 0.8978 0.97337 0.41595 0.0
H600 H 0.80565 0.94405 0.31052 0.0
O601 O 0.82185 0.97733 0.29799 0.0
H602 H 0.85602 0.89364 0.28597 0.0
H603 H 0.85854 0.96341 0.2369 0.0
H604 H 0.88784 0.97941 0.30448 0.0
H605 H 0.86697 0.92816 0.29635 0.0
H606 H 0.83815 0.95858 0.26824 0.0
O607 O 0.82191 0.94303 0.37524 0.0
H608 H 0.88282 0.97024 0.38149 0.0
H609 H 0.82341 0.9648 0.40713 0.0
H610 H 0.90882 0.98431 0.27354 0.0
H611 H 0.79397 0.90978 0.30002 0.0
H612 H 0.89418 0.97629 0.23944 0.0
H613 H 0.81926 0.88426 0.28772 0.0
O614 O 0.85442 0.99273 0.32205 0.0
H615 H 0.76921 0.99249 0.36687 0.0
H616 H 0.8413 0.0066 0.38374 0.0
H617 H 0.8151 0.03265 0.39111 0.0
H618 H 0.77873 0.02565 0.38273 0.0
H619 H 0.79594 0.96699 0.35946 0.0
H620 H 0.83775 0.96772 0.44188 0.0
H621 H 0.8752 0.97212 0.44644 0.0
O622 O 0.85971 0.98763 0.35559 0.0
C623 C 0.87411 0.94322 0.34291 0.0
C624 C 0.88145 0.97151 0.41416 0.0
C625 C 0.84776 0.96831 0.42871 0.0
N626 N 0.85226 0.96747 0.3923 0.0
C627 C 0.87288 0.96978 0.39468 0.0
C628 C 0.83973 0.96661 0.409 0.0
C629 C 0.86877 0.97079 0.43126 0.0
C630 C 0.81672 0.93311 0.30498 0.0
N631 N 0.83698 0.93812 0.30406 0.0
C632 C 0.81002 0.91369 0.29914 0.0
C633 C 0.82422 0.89937 0.29228 0.0
C634 C 0.84486 0.90461 0.29133 0.0
C635 C 0.85099 0.92416 0.29732 0.0
C636 C 0.8651 0.96693 0.25167 0.0
C637 C 0.88139 0.97579 0.28971 0.0
C638 C 0.85361 0.96428 0.26947 0.0
N639 N 0.86183 0.9686 0.28819 0.0
C640 C 0.89333 0.97864 0.27224 0.0
C641 C 0.8851 0.97415 0.25311 0.0
C642 C 0.86159 0.99834 0.33932 0.0
C643 C 0.785 0.99571 0.37064 0.0
C644 C 0.82555 0.00349 0.37987 0.0
C645 C 0.81076 0.01827 0.38418 0.0
C646 C 0.79035 0.01432 0.3795 0.0
N647 N 0.82019 0.98527 0.37116 0.0
C648 C 0.8002 0.98128 0.36656 0.0
Co649 Co 0.03785 0.845 0.31348 0.0
Co650 Co 0.03893 0.84171 0.36588 0.0
O651 O 0.04106 0.82917 0.33868 0.0
C652 C 0.01709 0.80435 0.30521 0.0
O653 O 0.01684 0.79967 0.32468 0.0
C654 C 0.07672 0.81598 0.36733 0.0
O655 O 0.0825 0.82406 0.34989 0.0
O656 O 0.06013 0.86255 0.35855 0.0
O657 O 0.05144 0.8693 0.32613 0.0
H658 H 0.03291 0.90015 0.41533 0.0
H659 H 0.05839 0.80446 0.31247 0.0
O660 O 0.0243 0.82141 0.29917 0.0
H661 H 0.10868 0.8529 0.28418 0.0
H662 H 0.03806 0.85619 0.23725 0.0
H663 H 0.02479 0.88745 0.30455 0.0
H664 H 0.07468 0.86484 0.29514 0.0
H665 H 0.04298 0.83631 0.2689 0.0
O666 O 0.0606 0.82245 0.37618 0.0
H667 H 0.03498 0.88414 0.38126 0.0
H668 H 0.03956 0.82537 0.40849 0.0
H669 H 0.01985 0.90793 0.27328 0.0
H670 H 0.09205 0.7918 0.30139 0.0
H671 H 0.0265 0.89229 0.23933 0.0
H672 H 0.11754 0.8161 0.28718 0.0
O673 O 0.01071 0.85479 0.32308 0.0
H674 H 0.01016 0.77063 0.37194 0.0
H675 H 0.99752 0.84375 0.385 0.0
H676 H 0.9711 0.81849 0.39408 0.0
H677 H 0.97737 0.7816 0.38763 0.0
H678 H 0.03599 0.79645 0.36271 0.0
H679 H 0.03769 0.84075 0.44285 0.0
H680 H 0.03425 0.8784 0.44643 0.0
O681 O 0.01655 0.86074 0.3564 0.0
C682 C 0.06113 0.87361 0.34248 0.0
C683 C 0.03435 0.88372 0.41397 0.0
C684 C 0.03706 0.85039 0.42942 0.0
N685 N 0.03726 0.85384 0.39288 0.0
C686 C 0.03548 0.87457 0.39472 0.0
C687 C 0.03817 0.84177 0.40992 0.0
C688 C 0.03512 0.87151 0.43141 0.0
C689 C 0.06921 0.8151 0.30602 0.0
N690 N 0.06443 0.83537 0.30432 0.0
C691 C 0.08834 0.80785 0.29989 0.0
C692 C 0.10265 0.8215 0.29198 0.0
C693 C 0.0977 0.84215 0.29031 0.0
C694 C 0.07843 0.84885 0.29662 0.0
C695 C 0.03515 0.86318 0.25196 0.0
C696 C 0.02783 0.88057 0.28983 0.0
C697 C 0.03786 0.85199 0.26994 0.0
N698 N 0.03431 0.86075 0.28858 0.0
C699 C 0.02495 0.89223 0.27218 0.0
C700 C 0.02867 0.88344 0.25314 0.0
C701 C 0.00558 0.86248 0.34029 0.0
C702 C 0.00724 0.78666 0.37481 0.0
C703 C 1.00026 0.82779 0.38184 0.0
C704 C 0.98529 0.81352 0.38716 0.0
C705 C 0.98883 0.79283 0.38358 0.0
N706 N 0.01824 0.82165 0.37314 0.0
C707 C 0.02185 0.80137 0.36969 0.0
Co708 Co 0.15757 0.96443 0.69361 0.0
Co709 Co 0.16115 0.96371 0.64132 0.0
O710 O 0.17357 0.96113 0.66853 0.0
C711 C 0.19654 0.98758 0.70172 0.0
O712 O 0.19813 0.99261 0.68238 0.0
C713 C 0.18733 0.9261 0.63924 0.0
O714 O 0.18014 0.92024 0.65703 0.0
O715 O 0.1401 0.94258 0.64841 0.0
O716 O 0.13301 0.95159 0.68067 0.0
H717 H 0.10283 0.97076 0.59187 0.0
H718 H 0.19776 0.94362 0.69543 0.0
O719 O 0.18146 0.97702 0.70802 0.0
H720 H 0.14819 0.89324 0.72164 0.0
H721 H 0.14595 0.96344 0.76975 0.0
H722 H 0.11542 0.97848 0.7025 0.0
H723 H 0.13682 0.92753 0.71094 0.0
H724 H 0.16587 0.95845 0.73814 0.0
O725 O 0.18025 0.94208 0.63064 0.0
H726 H 0.11877 0.9681 0.62593 0.0
H727 H 0.17758 0.96369 0.59872 0.0
H728 H 0.09491 0.98353 0.73372 0.0
H729 H 0.20987 0.90962 0.70628 0.0
H730 H 0.11017 0.97599 0.76766 0.0
H731 H 0.18498 0.88411 0.71941 0.0
O732 O 0.14849 0.99191 0.68426 0.0
H733 H 0.23245 0.99216 0.63681 0.0
H734 H 0.15966 0.00524 0.62235 0.0
H735 H 0.18524 0.03157 0.6139 0.0
H736 H 0.22196 0.02507 0.62104 0.0
H737 H 0.20631 0.96643 0.64541 0.0
H738 H 0.16226 0.96614 0.56437 0.0
H739 H 0.12463 0.96979 0.56079 0.0
O740 O 0.1423 0.98615 0.651 0.0
C741 C 0.12881 0.94181 0.66434 0.0
C742 C 0.11925 0.96922 0.59323 0.0
C743 C 0.1526 0.9666 0.5778 0.0
N744 N 0.14909 0.96585 0.61432 0.0
C745 C 0.12837 0.96775 0.61248 0.0
C746 C 0.16118 0.96515 0.59729 0.0
C747 C 0.13149 0.96866 0.5758 0.0
C748 C 0.18686 0.93269 0.70133 0.0
N749 N 0.16659 0.93758 0.70252 0.0
C750 C 0.1938 0.91342 0.70736 0.0
C751 C 0.17983 0.89911 0.71469 0.0
C752 C 0.15918 0.90421 0.71591 0.0
C753 C 0.1528 0.92362 0.70972 0.0
C754 C 0.13912 0.96675 0.75505 0.0
C755 C 0.12214 0.97507 0.7172 0.0
C756 C 0.15034 0.964 0.7371 0.0
N757 N 0.14178 0.96805 0.71847 0.0
C758 C 0.11046 0.978 0.73483 0.0
C759 C 0.11904 0.97379 0.75387 0.0
C760 C 0.14086 0.99719 0.66708 0.0
C761 C 0.2165 0.99517 0.63359 0.0
C762 C 0.17555 0.00238 0.62576 0.0
C763 C 0.19 0.01731 0.62081 0.0
C764 C 0.2106 0.01364 0.62479 0.0
N765 N 0.18143 0.98431 0.63445 0.0
C766 C 0.20162 0.9806 0.63834 0.0
Co767 Co 0.04047 0.15878 0.69337 0.0
Co768 Co 0.04025 0.16251 0.64111 0.0
O769 O 0.04333 0.1748 0.6683 0.0
C770 C 0.01651 0.197 0.70182 0.0
O771 O 0.00999 0.19744 0.68287 0.0
C772 C 0.07803 0.18833 0.63863 0.0
O773 O 0.08417 0.18068 0.65612 0.0
O774 O 0.0614 0.1413 0.64771 0.0
O775 O 0.05301 0.13425 0.68015 0.0
H776 H 0.0321 0.10453 0.59143 0.0
H777 H 0.0613 0.19895 0.69494 0.0
O778 O 0.02821 0.18271 0.70793 0.0
H779 H 0.1122 0.1493 0.71992 0.0
H780 H 0.04285 0.14712 0.76947 0.0
H781 H 0.02652 0.11665 0.70249 0.0
H782 H 0.07771 0.13797 0.70989 0.0
H783 H 0.04729 0.16704 0.73778 0.0
O784 O 0.06179 0.18161 0.63022 0.0
H785 H 0.03537 0.12026 0.62554 0.0
H786 H 0.0397 0.17919 0.59863 0.0
H787 H 0.02201 0.09613 0.73379 0.0
H788 H 0.09553 0.21103 0.70511 0.0
H789 H 0.03019 0.11137 0.76759 0.0
H790 H 0.1213 0.1861 0.71762 0.0
O791 O 0.01284 0.14971 0.68451 0.0
H792 H 0.01187 0.23389 0.63795 0.0
H793 H 0.99845 0.16132 0.62275 0.0
H794 H 0.97204 0.18705 0.61504 0.0
H795 H 0.9787 0.22366 0.62257 0.0
H796 H 0.03771 0.20762 0.64576 0.0
H797 H 0.03664 0.16409 0.56422 0.0
H798 H 0.03272 0.12651 0.56047 0.0
O799 O 0.01789 0.1437 0.65109 0.0
C800 C 0.0624 0.12998 0.66361 0.0
C801 C 0.03375 0.12093 0.59287 0.0
C802 C 0.03633 0.15436 0.5776 0.0
N803 N 0.03761 0.15062 0.61408 0.0
C804 C 0.03556 0.12993 0.61214 0.0
C805 C 0.03811 0.16281 0.59712 0.0
C806 C 0.03412 0.13327 0.5755 0.0
C807 C 0.07235 0.18804 0.70057 0.0
N808 N 0.06749 0.16776 0.70179 0.0
C809 C 0.09175 0.19496 0.70622 0.0
C810 C 0.10621 0.18096 0.7132 0.0
C811 C 0.10112 0.16031 0.71446 0.0
C812 C 0.08159 0.15395 0.70865 0.0
C813 C 0.03925 0.14031 0.75483 0.0
C814 C 0.03021 0.12336 0.71713 0.0
C815 C 0.04169 0.15153 0.73683 0.0
N816 N 0.03728 0.14298 0.71828 0.0
C817 C 0.02758 0.11168 0.73481 0.0
C818 C 0.03216 0.12024 0.75377 0.0
C819 C 0.00722 0.14214 0.66742 0.0
C820 C 0.0088 0.21799 0.63456 0.0
C821 C 1.0014 0.17717 0.62628 0.0
C822 C 0.98642 0.1917 0.62177 0.0
C823 C 0.99018 0.21224 0.62597 0.0
N824 N 0.01962 0.18291 0.63474 0.0
C825 C 0.02342 0.20304 0.63886 0.0
Co826 Co 0.84585 0.042 0.69328 0.0
Co827 Co 0.84232 0.04038 0.64126 0.0
O828 O 0.83005 0.04438 0.66817 0.0
C829 C 0.80938 0.01621 0.70329 0.0
O830 O 0.8133 0.00434 0.68759 0.0
C831 C 0.817 0.07828 0.63752 0.0
O832 O 0.82526 0.08517 0.65445 0.0
O833 O 0.86351 0.06166 0.64737 0.0
O834 O 0.87085 0.05353 0.67986 0.0
H835 H 0.90034 0.03076 0.59185 0.0
H836 H 0.80622 0.06403 0.69365 0.0
O837 O 0.82105 0.03115 0.70756 0.0
H838 H 0.85703 0.11416 0.71788 0.0
H839 H 0.85628 0.04599 0.76946 0.0
H840 H 0.88763 0.02767 0.70339 0.0
H841 H 0.86748 0.07907 0.70898 0.0
H842 H 0.83693 0.04991 0.73735 0.0
O843 O 0.8232 0.06152 0.62976 0.0
H844 H 0.8846 0.03504 0.62585 0.0
H845 H 0.82567 0.03857 0.59881 0.0
H846 H 0.90757 0.02363 0.73512 0.0
H847 H 0.79504 0.09887 0.70268 0.0
H848 H 0.8919 0.03283 0.76847 0.0
H849 H 0.82055 0.12425 0.71481 0.0
O850 O 0.85455 0.01388 0.68529 0.0
H851 H 0.7712 0.01126 0.64086 0.0
H852 H 0.84339 0.9983 0.62351 0.0
H853 H 0.81771 0.97145 0.61721 0.0
H854 H 0.78129 0.97787 0.62586 0.0
H855 H 0.79741 0.0376 0.6471 0.0
H856 H 0.84079 0.03448 0.56451 0.0
H857 H 0.87838 0.03045 0.56089 0.0
O858 O 0.86108 0.01839 0.6519 0.0
C859 C 0.87499 0.06277 0.66317 0.0
C860 C 0.88394 0.03245 0.59324 0.0
C861 C 0.85052 0.03457 0.57789 0.0
N862 N 0.85424 0.03693 0.61432 0.0
C863 C 0.87493 0.03483 0.61245 0.0
C864 C 0.84205 0.03694 0.59735 0.0
C865 C 0.87161 0.0323 0.57587 0.0
C866 C 0.81739 0.07491 0.69911 0.0
N867 N 0.8375 0.0695 0.70076 0.0
C868 C 0.81097 0.09465 0.70412 0.0
C869 C 0.8253 0.10889 0.71089 0.0
C870 C 0.84577 0.10325 0.71258 0.0
C871 C 0.85163 0.08338 0.70742 0.0
C872 C 0.86329 0.04196 0.75502 0.0
C873 C 0.88074 0.03181 0.71783 0.0
C874 C 0.8524 0.04411 0.73679 0.0
N875 N 0.8612 0.03917 0.71849 0.0
C876 C 0.89209 0.02944 0.73575 0.0
C877 C 0.88328 0.03459 0.75445 0.0
C878 C 0.8623 0.00792 0.66837 0.0
C879 C 0.78701 0.00829 0.63699 0.0
C880 C 0.82761 1.00118 0.62742 0.0
C881 C 0.81312 0.98594 0.62375 0.0
C882 C 0.79269 0.98956 0.62859 0.0
N883 N 0.82193 0.01954 0.63562 0.0
C884 C 0.80192 0.02318 0.64043 0.0
Co885 Co 0.96253 0.8461 0.69272 0.0
Co886 Co 0.96339 0.8431 0.64066 0.0
O887 O 0.95984 0.83054 0.6675 0.0
C888 C 0.9885 0.80955 0.70199 0.0
O889 O 1.00025 0.81367 0.68624 0.0
C890 C 0.92562 0.81749 0.63718 0.0
O891 O 0.91888 0.82548 0.6543 0.0
O892 O 0.94208 0.8641 0.64734 0.0
O893 O 0.95074 0.87121 0.67974 0.0
H894 H 0.97201 0.9017 0.59177 0.0
H895 H 0.94058 0.80643 0.69293 0.0
O896 O 0.97362 0.82119 0.70657 0.0
H897 H 0.89073 0.8568 0.71858 0.0
H898 H 0.95964 0.85572 0.76906 0.0
H899 H 0.9769 0.88781 0.70306 0.0
H900 H 0.92566 0.86744 0.70927 0.0
H901 H 0.9553 0.8367 0.7368 0.0
O902 O 0.9422 0.82397 0.62925 0.0
H903 H 0.96829 0.88556 0.62564 0.0
H904 H 0.96468 0.82692 0.598 0.0
H905 H 0.98133 0.90743 0.73494 0.0
H906 H 0.90591 0.79505 0.70236 0.0
H907 H 0.97266 0.89138 0.76825 0.0
H908 H 0.88067 0.82034 0.71521 0.0
O909 O 0.99053 0.85495 0.6844 0.0
H910 H 0.9929 0.77216 0.63911 0.0
H911 H 0.00519 0.84457 0.62224 0.0
H912 H 0.03207 0.81912 0.61526 0.0
H913 H 0.02599 0.78259 0.62366 0.0
H914 H 0.96652 0.79816 0.64603 0.0
H915 H 0.96819 0.84243 0.56382 0.0
H916 H 0.97198 0.88008 0.56055 0.0
O917 O 0.98545 0.86186 0.65117 0.0
C918 C 0.94118 0.87543 0.66326 0.0
C919 C 0.97042 0.88527 0.59299 0.0
C920 C 0.96825 0.85201 0.57731 0.0
N921 N 0.96639 0.85532 0.61381 0.0
C922 C 0.96835 0.87605 0.61214 0.0
C923 C 0.9662 0.84332 0.5967 0.0
C924 C 0.97039 0.87314 0.57549 0.0
C925 C 0.92976 0.8175 0.6987 0.0
N926 N 0.93516 0.8376 0.70052 0.0
C927 C 0.91012 0.81097 0.70394 0.0
C928 C 0.89595 0.82518 0.71111 0.0
C929 C 0.90158 0.84564 0.71297 0.0
C930 C 0.92136 0.85161 0.70757 0.0
C931 C 0.96343 0.8629 0.75464 0.0
C932 C 0.97299 0.88076 0.71748 0.0
C933 C 0.96105 0.85219 0.73632 0.0
N934 N 0.9657 0.8612 0.71805 0.0
C935 C 0.97558 0.89193 0.73549 0.0
C936 C 0.97073 0.88291 0.75417 0.0
C937 C 0.99621 0.8629 0.66747 0.0
C938 C 0.99572 0.78802 0.63534 0.0
C939 C 0.00245 0.82875 0.62604 0.0
C940 C 0.01772 0.81438 0.62199 0.0
C941 C 0.01429 0.79389 0.6267 0.0
N942 N 0.98426 0.82289 0.6345 0.0
C943 C 0.98081 0.80282 0.63917 0.0
Co944 Co 0.36462 0.16205 0.03991 0.0
Co945 Co 0.31258 0.15808 0.04084 0.0
O946 O 0.33754 0.17413 0.04359 0.0
C947 C 0.36787 0.18814 0.07749 0.0
O948 O 0.35034 0.18082 0.08394 0.0
C949 C 0.30243 0.19443 0.01486 0.0
O950 O 0.31828 0.19062 0.00314 0.0
O951 O 0.32102 0.14952 0.0128 0.0
O952 O 0.35436 0.14318 0.01782 0.0
H953 H 0.27162 0.09594 0.02188 0.0
H954 H 0.3585 0.20689 0.03697 0.0
O955 O 0.37591 0.18123 0.06114 0.0
H956 H 0.38923 0.1867 0.97118 0.0
H957 H 0.44143 0.16401 0.03465 0.0
H958 H 0.38032 0.11985 0.03491 0.0
H959 H 0.38283 0.16103 0.99801 0.0
H960 H 0.40701 0.17894 0.03835 0.0
O961 O 0.29817 0.18276 0.02983 0.0
H962 H 0.3031 0.11622 0.02634 0.0
H963 H 0.2683 0.16652 0.04816 0.0
H964 H 0.41445 0.10428 0.03101 0.0
H965 H 0.36482 0.2331 0.01065 0.0
H966 H 0.4453 0.12642 0.03086 0.0
H967 H 0.38025 0.22306 0.97744 0.0
O968 O 0.35839 0.14089 0.06118 0.0
H969 H 0.30143 0.20873 0.09753 0.0
H970 H 0.2967 0.13619 0.07769 0.0
H971 H 0.28704 0.14649 0.11261 0.0
H972 H 0.2893 0.18302 0.12272 0.0
H973 H 0.31127 0.19769 0.06287 0.0
H974 H 0.23644 0.14683 0.0438 0.0
H975 H 0.23799 0.11124 0.03065 0.0
O976 O 0.32611 0.13318 0.05254 0.0
C977 C 0.33808 0.1419 0.00708 0.0
C978 C 0.27076 0.11141 0.02769 0.0
C979 C 0.25101 0.13998 0.03996 0.0
N980 N 0.28756 0.14247 0.03765 0.0
C981 C 0.28853 0.12295 0.03029 0.0
C982 C 0.2691 0.15107 0.04235 0.0
C983 C 0.25189 0.12001 0.03259 0.0
C984 C 0.36536 0.20241 0.02263 0.0
N985 N 0.37035 0.18243 0.01909 0.0
C986 C 0.36884 0.21732 0.00775 0.0
C987 C 0.37748 0.21167 0.98912 0.0
C988 C 0.38251 0.19127 0.98559 0.0
C989 C 0.37879 0.17678 1.00082 0.0
C990 C 0.4281 0.1542 0.03468 0.0
C991 C 0.39367 0.12959 0.03477 0.0
C992 C 0.40857 0.16257 0.03683 0.0
N993 N 0.39166 0.15028 0.03674 0.0
C994 C 0.41295 0.12069 0.0326 0.0
C995 C 0.43026 0.13312 0.03253 0.0
C996 C 0.3427 0.12924 0.06206 0.0
C997 C 0.30034 0.19277 0.09331 0.0
C998 C 0.29794 0.15206 0.08201 0.0
C999 C 0.29234 0.15783 0.10179 0.0
C1000 C 0.29358 0.17833 0.10744 0.0
N1001 N 0.30461 0.16629 0.06824 0.0
C1002 C 0.30581 0.18643 0.07366 0.0
Co1003 Co 0.36501 0.84345 0.96448 0.0
Co1004 Co 0.31282 0.84804 0.96391 0.0
O1005 O 0.33765 0.83162 0.96102 0.0
C1006 C 0.36758 0.8172 0.92689 0.0
O1007 O 0.34971 0.8241 0.92094 0.0
C1008 C 0.30367 0.81006 0.98787 0.0
O1009 O 0.32236 0.81005 0.99514 0.0
O1010 O 0.32163 0.85662 0.99171 0.0
O1011 O 0.35512 0.86228 0.98686 0.0
H1012 H 0.27331 0.91111 0.98287 0.0
H1013 H 0.35944 0.79845 0.96675 0.0
O1014 O 0.37598 0.82439 0.94294 0.0
H1015 H 0.38996 0.81805 0.0328 0.0
H1016 H 0.44184 0.84075 0.96903 0.0
H1017 H 0.38115 0.88546 0.96964 0.0
H1018 H 0.38305 0.84407 0.00644 0.0
H1019 H 0.40726 0.82615 0.96555 0.0
O1020 O 0.29782 0.82412 0.97577 0.0
H1021 H 0.30431 0.89015 0.97828 0.0
H1022 H 0.26832 0.84057 0.95675 0.0
H1023 H 0.41545 0.90069 0.97333 0.0
H1024 H 0.36641 0.7719 0.99254 0.0
H1025 H 0.4461 0.87827 0.97304 0.0
H1026 H 0.3817 0.78164 0.02589 0.0
O1027 O 0.35891 0.86483 0.94339 0.0
H1028 H 0.30003 0.79668 0.90826 0.0
H1029 H 0.29708 0.86965 0.92681 0.0
H1030 H 0.2869 0.85894 0.89217 0.0
H1031 H 0.28827 0.82218 0.88271 0.0
H1032 H 0.31041 0.80813 0.94264 0.0
H1033 H 0.23692 0.86094 0.96126 0.0
H1034 H 0.23931 0.89651 0.97433 0.0
O1035 O 0.32658 0.87254 0.95172 0.0
C1036 C 0.33879 0.86391 0.9975 0.0
C1037 C 0.27207 0.89565 0.97711 0.0
C1038 C 0.25165 0.86748 0.96501 0.0
N1039 N 0.28815 0.8642 0.96714 0.0
C1040 C 0.28958 0.88372 0.97444 0.0
C1041 C 0.26949 0.856 0.96253 0.0
C1042 C 0.253 0.88744 0.97234 0.0
C1043 C 0.3663 0.80281 0.98112 0.0
N1044 N 0.37083 0.82283 0.98505 0.0
C1045 C 0.37012 0.78771 0.99571 0.0
C1046 C 0.37866 0.79319 0.01444 0.0
C1047 C 0.38328 0.81362 0.01833 0.0
C1048 C 0.37923 0.82831 0.00338 0.0
C1049 C 0.42861 0.85067 0.9692 0.0
C1050 C 0.39441 0.8756 0.96959 0.0
C1051 C 0.40898 0.8425 0.96717 0.0
N1052 N 0.39219 0.85494 0.96749 0.0
C1053 C 0.41379 0.88431 0.97164 0.0
C1054 C 0.43098 0.87173 0.97146 0.0
C1055 C 0.34325 0.87648 0.94238 0.0
C1056 C 0.29933 0.81273 0.9122 0.0
C1057 C 0.29794 0.85368 0.92276 0.0
C1058 C 0.29204 0.84768 0.90315 0.0
C1059 C 0.29277 0.82705 0.89787 0.0
N1060 N 0.3044 0.83956 0.93674 0.0
C1061 C 0.3051 0.8193 0.93168 0.0
Co1062 Co 0.15938 0.31109 0.9638 0.0
Co1063 Co 0.1628 0.36317 0.96595 0.0
O1064 O 0.17512 0.33629 0.96179 0.0
C1065 C 0.19546 0.30086 0.99008 0.0
O1066 O 0.19121 0.31636 1.0021 0.0
C1067 C 0.18832 0.36722 0.92819 0.0
O1068 O 0.18027 0.3502 0.92125 0.0
O1069 O 0.14166 0.35722 0.94457 0.0
O1070 O 0.13446 0.32454 0.95211 0.0
H1071 H 0.10468 0.4124 0.97581 0.0
H1072 H 0.19927 0.31096 0.94224 0.0
O1073 O 0.18412 0.29679 0.97482 0.0
H1074 H 0.14908 0.28717 0.8913 0.0
H1075 H 0.14923 0.23492 0.959 0.0
H1076 H 0.11748 0.30071 0.97758 0.0
H1077 H 0.1382 0.29573 0.92634 0.0
H1078 H 0.16853 0.26713 0.9556 0.0
O1079 O 0.18195 0.37488 0.94493 0.0
H1080 H 0.12049 0.37846 0.97131 0.0
H1081 H 0.17939 0.40563 0.96815 0.0
H1082 H 0.09758 0.26888 0.98108 0.0
H1083 H 0.21088 0.30226 0.90746 0.0
H1084 H 0.11347 0.23567 0.97175 0.0
H1085 H 0.18568 0.29035 0.88167 0.0
O1086 O 0.15033 0.31882 0.99189 0.0
H1087 H 0.23385 0.36347 0.99523 0.0
H1088 H 0.16159 0.38054 0.00817 0.0
H1089 H 0.18718 0.38668 0.03512 0.0
H1090 H 0.22363 0.37818 0.02871 0.0
H1091 H 0.20772 0.35739 0.96878 0.0
H1092 H 0.16421 0.43987 0.97245 0.0
H1093 H 0.1266 0.44341 0.97641 0.0
O1094 O 0.144 0.35231 0.98779 0.0
C1095 C 0.13025 0.34139 0.94318 0.0
C1096 C 0.12109 0.41105 0.97416 0.0
C1097 C 0.1545 0.42648 0.97224 0.0
N1098 N 0.15084 0.39005 0.96959 0.0
C1099 C 0.13013 0.39187 0.97165 0.0
C1100 C 0.163 0.40705 0.96974 0.0
C1101 C 0.1334 0.42845 0.97447 0.0
C1102 C 0.18824 0.30559 0.93118 0.0
N1103 N 0.16806 0.30388 0.93634 0.0
C1104 C 0.19489 0.30077 0.91147 0.0
C1105 C 0.18074 0.29413 0.897 0.0
C1106 C 0.1602 0.29237 0.90239 0.0
C1107 C 0.15411 0.29734 0.92223 0.0
C1108 C 0.14213 0.24929 0.96308 0.0
C1109 C 0.12446 0.28634 0.97339 0.0
C1110 C 0.153 0.26758 0.96123 0.0
N1111 N 0.14408 0.28581 0.96624 0.0
C1112 C 0.11314 0.26835 0.97545 0.0
C1113 C 0.12206 0.24973 0.97023 0.0
C1114 C 0.14261 0.3357 0.99802 0.0
C1115 C 0.21802 0.36728 0.99819 0.0
C1116 C 0.17738 0.3767 0.00529 0.0
C1117 C 0.19183 0.38027 0.02059 0.0
C1118 C 0.21228 0.37551 0.01698 0.0
N1119 N 0.18312 0.36866 0.98688 0.0
C1120 C 0.20315 0.36393 0.98324 0.0
Co1121 Co 0.64204 0.1614 0.96297 0.0
Co1122 Co 0.69414 0.15883 0.96254 0.0
O1123 O 0.66881 0.17421 0.95959 0.0
C1124 C 0.6385 0.18734 0.92534 0.0
O1125 O 0.65591 0.17987 0.91874 0.0
C1126 C 0.7033 0.19541 0.98861 0.0
O1127 O 0.68772 0.19112 1.00052 0.0
O1128 O 0.68567 0.15006 0.99053 0.0
O1129 O 0.65259 0.14273 0.98509 0.0
H1130 H 0.7366 0.09783 0.98189 0.0
H1131 H 0.64702 0.20639 0.96617 0.0
O1132 O 0.63053 0.18045 0.94174 0.0
H1133 H 0.61595 0.18511 0.03147 0.0
H1134 H 0.56515 0.16134 0.96734 0.0
H1135 H 0.62739 0.1188 0.96775 0.0
H1136 H 0.62335 0.15974 0.00463 0.0
H1137 H 0.59921 0.17718 0.96404 0.0
O1138 O 0.70777 0.18389 0.97359 0.0
H1139 H 0.70463 0.11725 0.97717 0.0
H1140 H 0.73822 0.16847 0.95558 0.0
H1141 H 0.59364 0.10234 0.97127 0.0
H1142 H 0.63968 0.2323 0.99251 0.0
H1143 H 0.56222 0.12366 0.97108 0.0
H1144 H 0.62408 0.22172 0.02547 0.0
O1145 O 0.64905 0.14046 0.9417 0.0
H1146 H 0.704 0.20969 0.90579 0.0
H1147 H 0.71107 0.13741 0.92589 0.0
H1148 H 0.72061 0.14794 0.891 0.0
H1149 H 0.71716 0.18435 0.88077 0.0
H1150 H 0.69432 0.19841 0.94042 0.0
H1151 H 0.77057 0.14966 0.96022 0.0
H1152 H 0.76988 0.11405 0.97339 0.0
O1153 O 0.6814 0.13358 0.95078 0.0
C1154 C 0.66876 0.14193 0.99604 0.0
C1155 C 0.7371 0.11332 0.97609 0.0
C1156 C 0.75616 0.14242 0.96395 0.0
N1157 N 0.71954 0.14391 0.96596 0.0
C1158 C 0.71904 0.12437 0.97333 0.0
C1159 C 0.7378 0.15301 0.9614 0.0
C1160 C 0.75576 0.12243 0.97133 0.0
C1161 C 0.64009 0.20166 0.98041 0.0
N1162 N 0.63556 0.18155 0.98381 0.0
C1163 C 0.63603 0.21641 0.9953 0.0
C1164 C 0.6273 0.21046 0.01379 0.0
C1165 C 0.62275 0.18992 0.01717 0.0
C1166 C 0.62703 0.1756 1.00193 0.0
C1167 C 0.57873 0.15189 0.96746 0.0
C1168 C 0.61379 0.12819 0.96775 0.0
C1169 C 0.59806 0.16076 0.96553 0.0
N1170 N 0.61528 0.14893 0.96581 0.0
C1171 C 0.59472 0.11878 0.9697 0.0
C1172 C 0.5771 0.13075 0.96957 0.0
C1173 C 0.66505 0.12921 0.94104 0.0
C1174 C 0.7056 0.19379 0.91008 0.0
C1175 C 0.70932 0.15322 0.92151 0.0
C1176 C 0.71486 0.15912 0.90176 0.0
C1177 C 0.71295 0.17956 0.89603 0.0
N1178 N 0.70208 0.16724 0.9352 0.0
C1179 C 0.70023 0.18732 0.9297 0.0
Co1180 Co 0.84597 0.69401 0.96157 0.0
Co1181 Co 0.84231 0.64196 0.96229 0.0
O1182 O 0.83008 0.66897 0.95884 0.0
C1183 C 0.80958 0.70368 0.98768 0.0
O1184 O 0.8135 0.6878 0.99933 0.0
C1185 C 0.8166 0.63886 0.92452 0.0
O1186 O 0.82481 0.6559 0.91781 0.0
O1187 O 0.86337 0.64844 0.94096 0.0
O1188 O 0.87089 0.68075 0.94966 0.0
H1189 H 0.9003 0.59231 0.97066 0.0
H1190 H 0.80624 0.69477 0.93974 0.0
O1191 O 0.82124 0.70815 0.97278 0.0
H1192 H 0.85682 0.71994 0.88983 0.0
H1193 H 0.85656 0.77023 0.95889 0.0
H1194 H 0.88784 0.70378 0.97585 0.0
H1195 H 0.86742 0.71041 0.9247 0.0
H1196 H 0.83711 0.73823 0.9545 0.0
O1197 O 0.82298 0.63085 0.9411 0.0
H1198 H 0.88459 0.6264 0.96706 0.0
H1199 H 0.82559 0.59951 0.96348 0.0
H1200 H 0.90789 0.7354 0.98033 0.0
H1201 H 0.7949 0.70444 0.90514 0.0
H1202 H 0.89224 0.76893 0.97181 0.0
H1203 H 0.82029 0.71704 0.87986 0.0
O1204 O 0.85478 0.68549 0.98952 0.0
H1205 H 0.77139 0.64122 0.99192 0.0
H1206 H 0.84362 0.62343 0.00402 0.0
H1207 H 0.81812 0.6167 0.03093 0.0
H1208 H 0.78168 0.62556 0.02494 0.0
H1209 H 0.79744 0.64788 0.96551 0.0
H1210 H 0.84067 0.56512 0.96688 0.0
H1211 H 0.87828 0.56137 0.97059 0.0
O1212 O 0.86124 0.65218 0.98435 0.0
C1213 C 0.8749 0.66422 0.94007 0.0
C1214 C 0.88389 0.59375 0.96911 0.0
C1215 C 0.85043 0.57849 0.96695 0.0
N1216 N 0.85419 0.61495 0.96519 0.0
C1217 C 0.8749 0.61302 0.96711 0.0
C1218 C 0.84198 0.598 0.96497 0.0
C1219 C 0.87153 0.57639 0.96905 0.0
C1220 C 0.81736 0.70043 0.92891 0.0
N1221 N 0.8375 0.70199 0.93426 0.0
C1222 C 0.81085 0.7058 0.9093 0.0
C1223 C 0.82511 0.71284 0.89512 0.0
C1224 C 0.84561 0.71444 0.90069 0.0
C1225 C 0.85156 0.70891 0.92044 0.0
C1226 C 0.86355 0.75571 0.96262 0.0
C1227 C 0.88097 0.7183 0.97201 0.0
C1228 C 0.8526 0.73754 0.96021 0.0
N1229 N 0.86139 0.71914 0.96477 0.0
C1230 C 0.89237 0.73616 0.97462 0.0
C1231 C 0.88358 0.75497 0.96986 0.0
C1232 C 0.86252 0.66844 0.99513 0.0
C1233 C 0.78722 0.63725 0.9947 0.0
C1234 C 0.82784 0.62743 1.00133 0.0
C1235 C 0.81344 0.62352 0.01661 0.0
C1236 C 0.793 0.62849 0.01323 0.0
N1237 N 0.82205 0.636 0.98317 0.0
C1238 C 0.80203 0.64092 0.97977 0.0
Co1239 Co 0.6406 0.84281 0.04024 0.0
Co1240 Co 0.69272 0.84542 0.04179 0.0
O1241 O 0.66732 0.83008 0.04419 0.0
C1242 C 0.63654 0.81744 0.07811 0.0
O1243 O 0.65375 0.8252 0.08488 0.0
C1244 C 0.70251 0.8091 0.0156 0.0
O1245 O 0.6872 0.81353 0.00339 0.0
O1246 O 0.68484 0.85432 0.01369 0.0
O1247 O 0.65152 0.86131 0.01817 0.0
H1248 H 0.73564 0.90644 0.02349 0.0
H1249 H 0.64568 0.7978 0.03757 0.0
O1250 O 0.62879 0.82395 0.06146 0.0
H1251 H 0.61591 0.81842 0.97148 0.0
H1252 H 0.5638 0.84259 0.03455 0.0
H1253 H 0.62591 0.88532 0.03478 0.0
H1254 H 0.62275 0.84406 0.99822 0.0
H1255 H 0.59785 0.82689 0.03858 0.0
O1256 O 0.70657 0.82039 0.03089 0.0
H1257 H 0.70356 0.88704 0.02751 0.0
H1258 H 0.73664 0.83572 0.04962 0.0
H1259 H 0.59218 0.90164 0.03054 0.0
H1260 H 0.6389 0.77163 0.01133 0.0
H1261 H 0.56082 0.88022 0.03041 0.0
H1262 H 0.62395 0.78189 0.97798 0.0
O1263 O 0.64711 0.86398 0.06144 0.0
H1264 H 0.70141 0.79433 0.09851 0.0
H1265 H 0.70882 0.86671 0.07888 0.0
H1266 H 0.71761 0.85604 0.11392 0.0
H1267 H 0.71398 0.81959 0.12392 0.0
H1268 H 0.69248 0.80575 0.06373 0.0
H1269 H 0.76909 0.85452 0.0457 0.0
H1270 H 0.76872 0.89017 0.03263 0.0
O1271 O 0.67977 0.87063 0.05336 0.0
C1272 C 0.66803 0.86231 0.00772 0.0
C1273 C 0.736 0.89094 0.02926 0.0
C1274 C 0.75478 0.86179 0.0417 0.0
N1275 N 0.7182 0.86033 0.03894 0.0
C1276 C 0.71788 0.87989 0.03162 0.0
C1277 C 0.73635 0.8512 0.04385 0.0
C1278 C 0.75455 0.88179 0.03438 0.0
C1279 C 0.63904 0.80239 0.02316 0.0
N1280 N 0.63456 0.82246 0.01948 0.0
C1281 C 0.63529 0.7875 0.00833 0.0
C1282 C 0.62692 0.79326 0.98961 0.0
C1283 C 0.62242 0.81376 0.98595 0.0
C1284 C 0.62639 0.82823 1.00113 0.0
C1285 C 0.57735 0.85208 0.03457 0.0
C1286 C 0.61235 0.87589 0.03464 0.0
C1287 C 0.59667 0.84329 0.03691 0.0
N1288 N 0.61386 0.85518 0.03681 0.0
C1289 C 0.59328 0.88522 0.03228 0.0
C1290 C 0.57569 0.87319 0.03223 0.0
C1291 C 0.66312 0.87516 0.0625 0.0
C1292 C 0.70309 0.81026 0.09433 0.0
C1293 C 0.70701 0.85088 0.08315 0.0
C1294 C 0.71211 0.84489 0.103 0.0
C1295 C 0.71011 0.82444 0.10859 0.0
N1296 N 0.70009 0.8369 0.06925 0.0
C1297 C 0.69815 0.8168 0.07462 0.0
Co1298 Co 0.15927 0.69245 0.03808 0.0
Co1299 Co 0.16185 0.63996 0.03896 0.0
O1300 O 0.17476 0.667 0.04128 0.0
C1301 C 0.2003 0.70038 0.01779 0.0
O1302 O 0.20502 0.68091 0.01807 0.0
C1303 C 0.18777 0.63778 0.07664 0.0
O1304 O 0.18054 0.65558 0.08241 0.0
O1305 O 0.14105 0.64747 0.06012 0.0
O1306 O 0.13475 0.68003 0.05158 0.0
H1307 H 0.1027 0.59139 0.03251 0.0
H1308 H 0.19976 0.69289 0.05882 0.0
O1309 O 0.1831 0.70653 0.0246 0.0
H1310 H 0.15143 0.72172 0.1089 0.0
H1311 H 0.14906 0.76882 0.03843 0.0
H1312 H 0.11697 0.70194 0.02496 0.0
H1313 H 0.13951 0.71092 0.07486 0.0
H1314 H 0.16853 0.73691 0.04332 0.0
O1315 O 0.18083 0.62916 0.0606 0.0
H1316 H 0.11921 0.62522 0.03484 0.0
H1317 H 0.17757 0.59711 0.03925 0.0
H1318 H 0.0969 0.73347 0.02005 0.0
H1319 H 0.21241 0.70383 0.09252 0.0
H1320 H 0.11295 0.76722 0.0268 0.0
H1321 H 0.18816 0.7183 0.1179 0.0
O1322 O 0.14945 0.68307 0.01087 0.0
H1323 H 0.23295 0.63315 0.01041 0.0
H1324 H 0.15971 0.62111 0.99743 0.0
H1325 H 0.18495 0.61187 0.97105 0.0
H1326 H 0.2219 0.6178 0.97749 0.0
H1327 H 0.20716 0.64254 0.0362 0.0
H1328 H 0.16169 0.56298 0.03713 0.0
H1329 H 0.12399 0.55997 0.03365 0.0
O1330 O 0.14304 0.64983 0.01661 0.0
C1331 C 0.13018 0.66366 0.06114 0.0
C1332 C 0.11914 0.59251 0.03397 0.0
C1333 C 0.15225 0.57656 0.03659 0.0
N1334 N 0.14933 0.61315 0.03707 0.0
C1335 C 0.12858 0.61162 0.03525 0.0
C1336 C 0.16115 0.59593 0.03785 0.0
C1337 C 0.1311 0.57488 0.03463 0.0
C1338 C 0.18915 0.69947 0.06959 0.0
N1339 N 0.16893 0.70141 0.06472 0.0
C1340 C 0.19639 0.70551 0.08874 0.0
C1341 C 0.18277 0.71357 0.10299 0.0
C1342 C 0.16216 0.71547 0.09796 0.0
C1343 C 0.15548 0.70925 0.07867 0.0
C1344 C 0.14189 0.7542 0.03547 0.0
C1345 C 0.12403 0.71656 0.02804 0.0
C1346 C 0.15285 0.73608 0.03816 0.0
N1347 N 0.14385 0.71756 0.03456 0.0
C1348 C 0.1126 0.73437 0.02518 0.0
C1349 C 0.12163 0.7533 0.02895 0.0
C1350 C 0.14157 0.66598 0.00567 0.0
C1351 C 0.21689 0.63051 0.00741 0.0
C1352 C 0.1757 0.62405 1.00024 0.0
C1353 C 0.18996 0.61864 0.98529 0.0
C1354 C 0.21069 0.62193 0.98893 0.0
N1355 N 0.18189 0.63257 0.0183 0.0
C1356 C 0.2022 0.63573 0.02199 0.0
Co1357 Co 0.84577 0.31179 0.04157 0.0
Co1358 Co 0.84256 0.36384 0.04017 0.0
O1359 O 0.83012 0.33698 0.04404 0.0
C1360 C 0.80924 0.30201 0.01575 0.0
O1361 O 0.81327 0.31767 0.00385 0.0
C1362 C 0.81712 0.36755 0.07801 0.0
O1363 O 0.82533 0.35058 0.08488 0.0
O1364 O 0.86368 0.3575 0.06146 0.0
O1365 O 0.87086 0.32502 0.05313 0.0
H1366 H 0.90088 0.41293 0.03083 0.0
H1367 H 0.80615 0.31159 0.06363 0.0
O1368 O 0.82089 0.29769 0.03071 0.0
H1369 H 0.85683 0.28685 0.11363 0.0
H1370 H 0.85577 0.23553 0.04529 0.0
H1371 H 0.88748 0.30148 0.02717 0.0
H1372 H 0.86732 0.29581 0.07857 0.0
H1373 H 0.83661 0.26774 0.04934 0.0
O1374 O 0.82343 0.37536 0.06131 0.0
H1375 H 0.88493 0.37901 0.03496 0.0
H1376 H 0.82616 0.40639 0.0385 0.0
H1377 H 0.90724 0.26964 0.02302 0.0
H1378 H 0.79492 0.3025 0.09843 0.0
H1379 H 0.89138 0.23636 0.03212 0.0
H1380 H 0.82037 0.29011 0.12375 0.0
O1381 O 0.8545 0.31984 0.01347 0.0
H1382 H 0.7715 0.36479 0.01089 0.0
H1383 H 0.84384 0.38173 0.99816 0.0
H1384 H 0.81827 0.38831 0.97129 0.0
H1385 H 0.78178 0.37987 0.97759 0.0
H1386 H 0.79761 0.35828 0.03726 0.0
H1387 H 0.84148 0.44062 0.03457 0.0
H1388 H 0.8791 0.44404 0.03061 0.0
O1389 O 0.8613 0.35316 0.01817 0.0
C1390 C 0.87509 0.34164 0.06246 0.0
C1391 C 0.88447 0.41164 0.03249 0.0
C1392 C 0.85113 0.42718 0.03462 0.0
N1393 N 0.85463 0.39071 0.03684 0.0
C1394 C 0.87534 0.39247 0.03478 0.0
C1395 C 0.84255 0.40776 0.0369 0.0
C1396 C 0.87224 0.42908 0.03239 0.0
C1397 C 0.81729 0.30601 0.07448 0.0
N1398 N 0.83739 0.30426 0.06904 0.0
C1399 C 0.81085 0.30097 0.0942 0.0
C1400 C 0.82514 0.29406 0.1084 0.0
C1401 C 0.8456 0.29226 0.10274 0.0
C1402 C 0.85148 0.29746 0.08289 0.0
C1403 C 0.86286 0.24994 0.04131 0.0
C1404 C 0.88051 0.28707 0.03127 0.0
C1405 C 0.85207 0.26823 0.04353 0.0
N1406 N 0.86098 0.2865 0.03864 0.0
C1407 C 0.89176 0.26909 0.02884 0.0
C1408 C 0.88285 0.25042 0.03393 0.0
C1409 C 0.8624 0.33674 0.0076 0.0
C1410 C 0.78735 0.36858 0.00798 0.0
C1411 C 0.82803 0.37792 1.00099 0.0
C1412 C 0.81359 0.38174 0.98574 0.0
C1413 C 0.79312 0.37702 0.98929 0.0
N1414 N 0.82225 0.36968 0.01931 0.0
C1415 C 0.8022 0.36498 0.02288 0.0
Co1416 Co 0.54116 0.81203 0.6594 0.0
Co1417 Co 0.53964 0.86414 0.66229 0.0
O1418 O 0.54343 0.83733 0.6749 0.0
C1419 C 0.51468 0.80238 0.69549 0.0
O1420 O 0.50276 0.81792 0.69106 0.0
C1421 C 0.57741 0.86786 0.6878 0.0
O1422 O 0.58417 0.85078 0.67975 0.0
O1423 O 0.56101 0.85772 0.64126 0.0
O1424 O 0.55303 0.82509 0.63439 0.0
H1425 H 0.53049 0.91295 0.60372 0.0
H1426 H 0.56268 0.81204 0.6993 0.0
O1427 O 0.52995 0.79809 0.68424 0.0
H1428 H 0.61341 0.78715 0.6494 0.0
H1429 H 0.54508 0.73571 0.64998 0.0
H1430 H 0.5273 0.80142 0.6176 0.0
H1431 H 0.57847 0.796 0.63842 0.0
H1432 H 0.54884 0.76806 0.66897 0.0
O1433 O 0.56077 0.87573 0.6814 0.0
H1434 H 0.53453 0.8791 0.61985 0.0
H1435 H 0.538 0.90678 0.67847 0.0
H1436 H 0.52345 0.76945 0.59801 0.0
H1437 H 0.59736 0.80305 0.71102 0.0
H1438 H 0.53238 0.73628 0.6142 0.0
H1439 H 0.62304 0.79059 0.68597 0.0
O1440 O 0.51318 0.82 0.65026 0.0
H1441 H 0.51017 0.86548 0.73326 0.0
H1442 H 0.49765 0.88208 0.66083 0.0
H1443 H 0.47072 0.88882 0.6863 0.0
H1444 H 0.47691 0.88055 0.72284 0.0
H1445 H 0.53661 0.8588 0.70725 0.0
H1446 H 0.53416 0.94093 0.66297 0.0
H1447 H 0.53028 0.94416 0.62533 0.0
O1448 O 0.51766 0.85337 0.64356 0.0
C1449 C 0.56224 0.84174 0.63005 0.0
C1450 C 0.53211 0.91173 0.62014 0.0
C1451 C 0.53421 0.92744 0.65339 0.0
N1452 N 0.53637 0.89096 0.65008 0.0
C1453 C 0.53436 0.89261 0.62936 0.0
C1454 C 0.53644 0.90807 0.66207 0.0
C1455 C 0.53202 0.92924 0.63227 0.0
C1456 C 0.57369 0.80643 0.68833 0.0
N1457 N 0.56853 0.80457 0.66818 0.0
C1458 C 0.59334 0.80145 0.69505 0.0
C1459 C 0.60775 0.79449 0.68098 0.0
C1460 C 0.60237 0.79259 0.66046 0.0
C1461 C 0.58258 0.79773 0.6543 0.0
C1462 C 0.54118 0.75007 0.64274 0.0
C1463 C 0.53132 0.78706 0.62472 0.0
C1464 C 0.54323 0.76843 0.65343 0.0
N1465 N 0.53844 0.78663 0.64434 0.0
C1466 C 0.52906 0.769 0.61356 0.0
C1467 C 0.53406 0.7504 0.62267 0.0
C1468 C 0.50724 0.83686 0.64237 0.0
C1469 C 0.5073 0.86919 0.71739 0.0
C1470 C 0.50044 0.87834 0.67666 0.0
C1471 C 0.48515 0.88225 0.69104 0.0
C1472 C 0.48864 0.87762 0.71153 0.0
N1473 N 0.51873 0.8701 0.68252 0.0
C1474 C 0.52224 0.8655 0.70259 0.0
Co1475 Co 0.14234 0.54195 0.66069 0.0
Co1476 Co 0.19447 0.54253 0.65832 0.0
O1477 O 0.16905 0.54541 0.67356 0.0
C1478 C 0.13882 0.57976 0.68625 0.0
O1479 O 0.15611 0.58633 0.67848 0.0
C1480 C 0.20335 0.51652 0.69497 0.0
O1481 O 0.18769 0.50472 0.69066 0.0
O1482 O 0.1861 0.51455 0.6495 0.0
O1483 O 0.15297 0.51975 0.64217 0.0
H1484 H 0.23731 0.52334 0.59754 0.0
H1485 H 0.14717 0.53897 0.70571 0.0
O1486 O 0.1308 0.56328 0.67962 0.0
H1487 H 0.11624 0.47354 0.68466 0.0
H1488 H 0.06545 0.53762 0.66047 0.0
H1489 H 0.12781 0.53692 0.61809 0.0
H1490 H 0.1237 0.50027 0.65918 0.0
H1491 H 0.09947 0.541 0.67637 0.0
O1492 O 0.20797 0.53147 0.68343 0.0
H1493 H 0.20522 0.52797 0.6168 0.0
H1494 H 0.23848 0.54958 0.6682 0.0
H1495 H 0.0941 0.53333 0.60157 0.0
H1496 H 0.13977 0.51274 0.73172 0.0
H1497 H 0.06262 0.53366 0.62282 0.0
H1498 H 0.12424 0.47972 0.72126 0.0
O1499 O 0.14938 0.56313 0.63965 0.0
H1500 H 0.20381 0.59926 0.70928 0.0
H1501 H 0.21146 0.57925 0.63705 0.0
H1502 H 0.2208 0.61417 0.64767 0.0
H1503 H 0.21706 0.62436 0.68405 0.0
H1504 H 0.19434 0.56461 0.69792 0.0
H1505 H 0.27094 0.54504 0.64955 0.0
H1506 H 0.27048 0.53191 0.61393 0.0
O1507 O 0.18185 0.5543 0.63302 0.0
C1508 C 0.16923 0.5089 0.6414 0.0
C1509 C 0.23771 0.52913 0.61303 0.0
C1510 C 0.25658 0.54129 0.64223 0.0
N1511 N 0.21996 0.53919 0.64354 0.0
C1512 C 0.21958 0.53183 0.62399 0.0
C1513 C 0.23815 0.54378 0.65273 0.0
C1514 C 0.25631 0.53393 0.62224 0.0
C1515 C 0.14028 0.52471 0.70102 0.0
N1516 N 0.13582 0.52121 0.68092 0.0
C1517 C 0.13618 0.50988 0.71583 0.0
C1518 C 0.12749 0.49135 0.70995 0.0
C1519 C 0.12301 0.48787 0.68942 0.0
C1520 C 0.12733 0.50304 0.67504 0.0
C1521 C 0.07906 0.53743 0.65105 0.0
C1522 C 0.11418 0.53699 0.62744 0.0
C1523 C 0.09836 0.5394 0.65996 0.0
N1524 N 0.11562 0.53905 0.64817 0.0
C1525 C 0.09514 0.53499 0.618 0.0
C1526 C 0.07748 0.5352 0.62993 0.0
C1527 C 0.16545 0.56389 0.62851 0.0
C1528 C 0.20555 0.595 0.69339 0.0
C1529 C 0.20959 0.58362 0.65284 0.0
C1530 C 0.21501 0.60339 0.6588 0.0
C1531 C 0.21294 0.60908 0.67922 0.0
N1532 N 0.2023 0.56989 0.66681 0.0
C1533 C 0.20029 0.57536 0.68687 0.0
Co1534 Co 0.46484 0.19289 0.65824 0.0
Co1535 Co 0.4644 0.14058 0.66204 0.0
O1536 O 0.46178 0.16784 0.67427 0.0
C1537 C 0.48861 0.20096 0.69673 0.0
O1538 O 0.49421 0.18173 0.69775 0.0
C1539 C 0.42633 0.13908 0.68726 0.0
O1540 O 0.42066 0.15637 0.67881 0.0
O1541 O 0.44338 0.14748 0.64078 0.0
O1542 O 0.45189 0.1799 0.63381 0.0
H1543 H 0.47187 0.0906 0.60424 0.0
H1544 H 0.44432 0.19452 0.69858 0.0
O1545 O 0.47753 0.20729 0.68206 0.0
H1546 H 0.39339 0.22043 0.64944 0.0
H1547 H 0.46344 0.26904 0.64668 0.0
H1548 H 0.47855 0.20186 0.61601 0.0
H1549 H 0.42769 0.21006 0.63781 0.0
H1550 H 0.45872 0.23739 0.66661 0.0
O1551 O 0.44257 0.13019 0.68118 0.0
H1552 H 0.46916 0.12481 0.61986 0.0
H1553 H 0.46403 0.09814 0.67883 0.0
H1554 H 0.48334 0.23312 0.59549 0.0
H1555 H 0.41029 0.205 0.71095 0.0
H1556 H 0.47576 0.26702 0.61082 0.0
H1557 H 0.38451 0.21798 0.68628 0.0
O1558 O 0.49226 0.18364 0.64893 0.0
H1559 H 0.49249 0.13669 0.73349 0.0
H1560 H 0.50593 0.12164 0.66089 0.0
H1561 H 0.53213 0.1134 0.68666 0.0
H1562 H 0.52546 0.12085 0.72329 0.0
H1563 H 0.46687 0.14503 0.70718 0.0
H1564 H 0.46653 0.06364 0.66384 0.0
H1565 H 0.47056 0.05971 0.62629 0.0
O1566 O 0.48699 0.15017 0.64323 0.0
C1567 C 0.44237 0.16344 0.62955 0.0
C1568 C 0.47017 0.09211 0.62062 0.0
C1569 C 0.46714 0.07698 0.65407 0.0
N1570 N 0.46657 0.11347 0.65023 0.0
C1571 C 0.46868 0.11144 0.62956 0.0
C1572 C 0.46568 0.09656 0.66247 0.0
C1573 C 0.46942 0.07479 0.633 0.0
C1574 C 0.43327 0.20037 0.68778 0.0
N1575 N 0.43802 0.20167 0.66748 0.0
C1576 C 0.41399 0.20619 0.69486 0.0
C1577 C 0.39952 0.21343 0.68101 0.0
C1578 C 0.40448 0.21477 0.66034 0.0
C1579 C 0.42391 0.20878 0.65381 0.0
C1580 C 0.46677 0.25435 0.63982 0.0
C1581 C 0.47512 0.21654 0.62276 0.0
C1582 C 0.46417 0.23638 0.65104 0.0
N1583 N 0.46824 0.21777 0.64244 0.0
C1584 C 0.47791 0.23419 0.61108 0.0
C1585 C 0.47367 0.25321 0.6197 0.0
C1586 C 0.49775 0.16644 0.64148 0.0
C1587 C 0.49557 0.13333 0.71759 0.0
C1588 C 0.50298 0.12514 0.67675 0.0
C1589 C 0.51784 0.12033 0.6913 0.0
C1590 C 0.51408 0.12448 0.71185 0.0
N1591 N 0.48487 0.13386 0.68248 0.0
C1592 C 0.48107 0.13793 0.70261 0.0
Co1593 Co 0.86493 0.4658 0.66298 0.0
Co1594 Co 0.81269 0.46552 0.65885 0.0
O1595 O 0.83765 0.4628 0.67511 0.0
C1596 C 0.86733 0.42808 0.68888 0.0
O1597 O 0.85001 0.42179 0.68093 0.0
C1598 C 0.80382 0.48899 0.6974 0.0
O1599 O 0.82298 0.49477 0.69872 0.0
O1600 O 0.8216 0.49311 0.64968 0.0
O1601 O 0.85507 0.488 0.64392 0.0
H1602 H 0.77278 0.48356 0.59577 0.0
H1603 H 0.86022 0.46862 0.70806 0.0
O1604 O 0.8757 0.44442 0.68231 0.0
H1605 H 0.89088 0.53421 0.68711 0.0
H1606 H 0.94183 0.46943 0.665 0.0
H1607 H 0.88078 0.47034 0.62079 0.0
H1608 H 0.8832 0.50764 0.66154 0.0
H1609 H 0.90733 0.46649 0.67992 0.0
O1610 O 0.79782 0.47793 0.68257 0.0
H1611 H 0.80391 0.4792 0.61657 0.0
H1612 H 0.7682 0.45868 0.66679 0.0
H1613 H 0.915 0.47348 0.60525 0.0
H1614 H 0.86802 0.49461 0.73419 0.0
H1615 H 0.94583 0.47304 0.62742 0.0
H1616 H 0.88336 0.52774 0.72376 0.0
O1617 O 0.85848 0.44448 0.64193 0.0
H1618 H 0.80078 0.41067 0.71129 0.0
H1619 H 0.79632 0.42818 0.63814 0.0
H1620 H 0.78628 0.39371 0.64958 0.0
H1621 H 0.78842 0.38478 0.68642 0.0
H1622 H 0.81095 0.44487 0.69912 0.0
H1623 H 0.73668 0.46297 0.64658 0.0
H1624 H 0.73885 0.47541 0.61077 0.0
O1625 O 0.82613 0.45284 0.6345 0.0
C1626 C 0.83875 0.49866 0.64216 0.0
C1627 C 0.77163 0.47807 0.61134 0.0
C1628 C 0.75137 0.46654 0.63986 0.0
N1629 N 0.78791 0.46857 0.64283 0.0
C1630 C 0.78922 0.47553 0.62318 0.0
C1631 C 0.76928 0.46419 0.65125 0.0
C1632 C 0.7526 0.47351 0.61977 0.0
C1633 C 0.8671 0.48289 0.7034 0.0
N1634 N 0.8712 0.48659 0.68325 0.0
C1635 C 0.87139 0.4976 0.71827 0.0
C1636 C 0.87996 0.5162 0.7124 0.0
C1637 C 0.88415 0.51985 0.69184 0.0
C1638 C 0.87965 0.50479 0.6774 0.0
C1639 C 0.92852 0.46967 0.65519 0.0
C1640 C 0.89412 0.47023 0.63055 0.0
C1641 C 0.90894 0.46795 0.66354 0.0
N1642 N 0.89205 0.46835 0.65124 0.0
C1643 C 0.91346 0.47197 0.62165 0.0
C1644 C 0.93075 0.4717 0.6341 0.0
C1645 C 0.84269 0.44339 0.63048 0.0
C1646 C 0.79973 0.41439 0.6952 0.0
C1647 C 0.79747 0.42437 0.65415 0.0
C1648 C 0.79166 0.40485 0.66056 0.0
C1649 C 0.79284 0.39986 0.68124 0.0
N1650 N 0.80423 0.43854 0.66793 0.0
C1651 C 0.80538 0.43377 0.68823 0.0
Co1652 Co 0.53975 0.19287 0.34553 0.0
Co1653 Co 0.53921 0.14065 0.34146 0.0
O1654 O 0.54244 0.16789 0.32932 0.0
C1655 C 0.51613 0.20178 0.30718 0.0
O1656 O 0.50976 0.18279 0.30632 0.0
C1657 C 0.57694 0.13799 0.31555 0.0
O1658 O 0.58328 0.15537 0.32329 0.0
O1659 O 0.56049 0.14699 0.36259 0.0
O1660 O 0.5522 0.17938 0.36995 0.0
H1661 H 0.53096 0.09068 0.39919 0.0
H1662 H 0.56062 0.19456 0.30538 0.0
O1663 O 0.52758 0.20773 0.32172 0.0
H1664 H 0.61167 0.21887 0.35521 0.0
H1665 H 0.54269 0.26887 0.35776 0.0
H1666 H 0.52589 0.20176 0.38773 0.0
H1667 H 0.57709 0.20901 0.36646 0.0
H1668 H 0.54688 0.2373 0.3376 0.0
O1669 O 0.5606 0.12972 0.32223 0.0
H1670 H 0.53441 0.12487 0.38364 0.0
H1671 H 0.53829 0.09825 0.32455 0.0
H1672 H 0.52162 0.23294 0.40849 0.0
H1673 H 0.59493 0.20457 0.29339 0.0
H1674 H 0.53005 0.2668 0.39351 0.0
H1675 H 0.62077 0.21675 0.3184 0.0
O1676 O 0.51206 0.18412 0.35455 0.0
H1677 H 0.5106 0.13792 0.27017 0.0
H1678 H 0.49726 0.1226 0.34273 0.0
H1679 H 0.47072 0.11516 0.31706 0.0
H1680 H 0.47734 0.12275 0.28045 0.0
H1681 H 0.53657 0.14547 0.29638 0.0
H1682 H 0.53504 0.06378 0.33947 0.0
H1683 H 0.53126 0.05984 0.37705 0.0
O1684 O 0.517 0.15067 0.36042 0.0
C1685 C 0.56157 0.16279 0.37404 0.0
C1686 C 0.53255 0.09221 0.38279 0.0
C1687 C 0.53487 0.07711 0.34928 0.0
N1688 N 0.53643 0.11356 0.35321 0.0
C1689 C 0.53446 0.11152 0.3739 0.0
C1690 C 0.53676 0.09667 0.34092 0.0
C1691 C 0.53274 0.07491 0.37036 0.0
C1692 C 0.5717 0.20004 0.31633 0.0
N1693 N 0.56683 0.20117 0.33661 0.0
C1694 C 0.59114 0.20561 0.30946 0.0
C1695 C 0.60564 0.2124 0.32351 0.0
C1696 C 0.60055 0.21356 0.34416 0.0
C1697 C 0.58097 0.20785 0.35047 0.0
C1698 C 0.53899 0.2542 0.36447 0.0
C1699 C 0.52968 0.21643 0.38113 0.0
C1700 C 0.54128 0.23627 0.35311 0.0
N1701 N 0.53674 0.21768 0.36152 0.0
C1702 C 0.52719 0.23403 0.39295 0.0
C1703 C 0.5319 0.25303 0.38453 0.0
C1704 C 0.5064 0.16702 0.36209 0.0
C1705 C 0.50754 0.13451 0.28606 0.0
C1706 C 0.50019 0.12617 0.32688 0.0
C1707 C 0.48514 0.12181 0.31239 0.0
C1708 C 0.48888 0.12603 0.29185 0.0
N1709 N 0.51846 0.13452 0.32111 0.0
C1710 C 0.52224 0.13867 0.30099 0.0
Co1711 Co 0.86545 0.5395 0.34063 0.0
Co1712 Co 0.81317 0.53989 0.34451 0.0
O1713 O 0.83823 0.54258 0.32841 0.0
C1714 C 0.86787 0.57744 0.31508 0.0
O1715 O 0.85065 0.58369 0.32328 0.0
C1716 C 0.80453 0.51637 0.30598 0.0
O1717 O 0.82365 0.51044 0.30487 0.0
O1718 O 0.82198 0.51229 0.35373 0.0
O1719 O 0.85547 0.51719 0.35956 0.0
H1720 H 0.77283 0.52194 0.40736 0.0
H1721 H 0.86091 0.53691 0.29551 0.0
O1722 O 0.87625 0.56101 0.32141 0.0
H1723 H 0.89138 0.47118 0.31628 0.0
H1724 H 0.94235 0.53591 0.3388 0.0
H1725 H 0.88116 0.53467 0.38283 0.0
H1726 H 0.88363 0.49764 0.34194 0.0
H1727 H 0.90789 0.53896 0.32381 0.0
O1728 O 0.79845 0.52753 0.3207 0.0
H1729 H 0.80411 0.52623 0.38674 0.0
H1730 H 0.76876 0.54681 0.33632 0.0
H1731 H 0.91533 0.53143 0.39845 0.0
H1732 H 0.86879 0.51104 0.2693 0.0
H1733 H 0.94622 0.53203 0.37637 0.0
H1734 H 0.88404 0.47783 0.27963 0.0
O1735 O 0.85895 0.56072 0.36179 0.0
H1736 H 0.80178 0.5948 0.29203 0.0
H1737 H 0.79674 0.57726 0.36513 0.0
H1738 H 0.78688 0.61176 0.35365 0.0
H1739 H 0.78931 0.62071 0.31683 0.0
H1740 H 0.81175 0.56057 0.30425 0.0
H1741 H 0.73709 0.54259 0.35634 0.0
H1742 H 0.73902 0.53015 0.39216 0.0
O1743 O 0.82649 0.55253 0.36893 0.0
C1744 C 0.83908 0.50663 0.36129 0.0
C1745 C 0.7718 0.52743 0.39179 0.0
C1746 C 0.75174 0.53899 0.36315 0.0
N1747 N 0.78829 0.53689 0.36039 0.0
C1748 C 0.78946 0.52993 0.38005 0.0
C1749 C 0.76972 0.5413 0.35186 0.0
C1750 C 0.75283 0.53202 0.38324 0.0
C1751 C 0.86776 0.52261 0.30013 0.0
N1752 N 0.87177 0.51881 0.32028 0.0
C1753 C 0.87209 0.50797 0.28521 0.0
C1754 C 0.88061 0.48933 0.29102 0.0
C1755 C 0.8847 0.48557 0.31158 0.0
C1756 C 0.88016 0.50058 0.32608 0.0
C1757 C 0.929 0.53561 0.34858 0.0
C1758 C 0.89453 0.53485 0.37312 0.0
C1759 C 0.90945 0.53738 0.34018 0.0
N1760 N 0.89252 0.53688 0.35243 0.0
C1761 C 0.91383 0.53306 0.38205 0.0
C1762 C 0.93116 0.53342 0.36966 0.0
C1763 C 0.84307 0.56186 0.37313 0.0
C1764 C 0.8006 0.59107 0.30811 0.0
C1765 C 0.79801 0.58107 0.34914 0.0
C1766 C 0.79231 0.60061 0.3427 0.0
C1767 C 0.79365 0.60561 0.32203 0.0
N1768 N 0.80484 0.56689 0.3354 0.0
C1769 C 0.80614 0.57168 0.31511 0.0
Co1770 Co 0.46458 0.81204 0.34799 0.0
Co1771 Co 0.46383 0.86432 0.34467 0.0
O1772 O 0.46133 0.83718 0.33208 0.0
C1773 C 0.48805 0.80415 0.30921 0.0
O1774 O 0.49337 0.82344 0.30802 0.0
C1775 C 0.42648 0.86658 0.31805 0.0
O1776 O 0.42054 0.84873 0.32502 0.0
O1777 O 0.44252 0.85711 0.36552 0.0
O1778 O 0.45168 0.82488 0.37256 0.0
H1779 H 0.47043 0.91346 0.4033 0.0
H1780 H 0.44389 0.81035 0.30774 0.0
O1781 O 0.47723 0.79775 0.32405 0.0
H1782 H 0.39337 0.78396 0.35706 0.0
H1783 H 0.46357 0.73583 0.35926 0.0
H1784 H 0.47852 0.80297 0.39011 0.0
H1785 H 0.42762 0.79463 0.36856 0.0
H1786 H 0.45863 0.76753 0.33947 0.0
O1787 O 0.44236 0.87514 0.32543 0.0
H1788 H 0.46789 0.87948 0.38714 0.0
H1789 H 0.46394 0.90703 0.32848 0.0
H1790 H 0.48352 0.77165 0.4105 0.0
H1791 H 0.40993 0.79953 0.2955 0.0
H1792 H 0.47602 0.73778 0.39508 0.0
H1793 H 0.38435 0.78631 0.32026 0.0
O1794 O 0.49204 0.82136 0.35717 0.0
H1795 H 0.49289 0.86907 0.27364 0.0
H1796 H 0.50532 0.88336 0.34656 0.0
H1797 H 0.53186 0.89192 0.32123 0.0
H1798 H 0.52569 0.88486 0.28444 0.0
H1799 H 0.46694 0.86037 0.29952 0.0
H1800 H 0.46628 0.94129 0.34401 0.0
H1801 H 0.46964 0.94466 0.38168 0.0
O1802 O 0.48615 0.85454 0.36363 0.0
C1803 C 0.44178 0.84114 0.37676 0.0
C1804 C 0.46902 0.91219 0.38687 0.0
C1805 C 0.46666 0.92781 0.35359 0.0
N1806 N 0.46588 0.89126 0.35689 0.0
C1807 C 0.46762 0.89299 0.37763 0.0
C1808 C 0.46528 0.90836 0.34489 0.0
C1809 C 0.46855 0.92969 0.37473 0.0
C1810 C 0.43293 0.80441 0.31858 0.0
N1811 N 0.43776 0.80316 0.33887 0.0
C1812 C 0.41368 0.7984 0.31157 0.0
C1813 C 0.39933 0.79102 0.32547 0.0
C1814 C 0.40437 0.78973 0.34613 0.0
C1815 C 0.42376 0.79591 0.35258 0.0
C1816 C 0.46686 0.75051 0.36617 0.0
C1817 C 0.47513 0.78829 0.38332 0.0
C1818 C 0.46414 0.76851 0.35502 0.0
N1819 N 0.46817 0.78711 0.36367 0.0
C1820 C 0.47803 0.77061 0.39493 0.0
C1821 C 0.47384 0.75161 0.38626 0.0
C1822 C 0.49724 0.83848 0.36496 0.0
C1823 C 0.49575 0.87225 0.28962 0.0
C1824 C 0.5026 0.88 0.33064 0.0
C1825 C 0.51765 0.885 0.31633 0.0
C1826 C 0.51416 0.88107 0.29569 0.0
N1827 N 0.48459 0.8713 0.32458 0.0
C1828 C 0.48106 0.86745 0.30436 0.0
Co1829 Co 0.14133 0.46159 0.34414 0.0
Co1830 Co 0.19349 0.46094 0.34668 0.0
O1831 O 0.16811 0.45809 0.33134 0.0
C1832 C 0.13769 0.42406 0.318 0.0
O1833 O 0.15547 0.41775 0.3248 0.0
C1834 C 0.20272 0.48725 0.31029 0.0
O1835 O 0.18719 0.49919 0.31471 0.0
O1836 O 0.18513 0.48891 0.35555 0.0
O1837 O 0.15196 0.48377 0.36269 0.0
H1838 H 0.23609 0.48 0.40765 0.0
H1839 H 0.14631 0.46456 0.29915 0.0
O1840 O 0.12966 0.44027 0.32526 0.0
H1841 H 0.11549 0.53008 0.3201 0.0
H1842 H 0.06446 0.46627 0.34428 0.0
H1843 H 0.12674 0.46656 0.38674 0.0
H1844 H 0.12279 0.50332 0.34561 0.0
H1845 H 0.09849 0.4628 0.32841 0.0
O1846 O 0.20711 0.47209 0.32165 0.0
H1847 H 0.20408 0.47539 0.38828 0.0
H1848 H 0.23754 0.45391 0.33694 0.0
H1849 H 0.09302 0.47024 0.40322 0.0
H1850 H 0.13907 0.49081 0.27311 0.0
H1851 H 0.06158 0.47011 0.38194 0.0
H1852 H 0.12359 0.52388 0.28353 0.0
O1853 O 0.14827 0.44039 0.36517 0.0
H1854 H 0.20352 0.40448 0.29554 0.0
H1855 H 0.21021 0.42412 0.36797 0.0
H1856 H 0.21977 0.38928 0.35728 0.0
H1857 H 0.21652 0.37928 0.3208 0.0
H1858 H 0.1938 0.43904 0.30698 0.0
H1859 H 0.26993 0.45843 0.35571 0.0
H1860 H 0.26932 0.47148 0.39136 0.0
O1861 O 0.18075 0.4491 0.37192 0.0
C1862 C 0.16823 0.49458 0.36357 0.0
C1863 C 0.23655 0.47424 0.39215 0.0
C1864 C 0.25554 0.46216 0.36299 0.0
N1865 N 0.21892 0.46424 0.36157 0.0
C1866 C 0.21847 0.47155 0.38113 0.0
C1867 C 0.23715 0.45968 0.35242 0.0
C1868 C 0.25519 0.46947 0.38299 0.0
C1869 C 0.13944 0.47884 0.30381 0.0
N1870 N 0.13492 0.48235 0.3239 0.0
C1871 C 0.13543 0.49368 0.28899 0.0
C1872 C 0.12677 0.51223 0.29485 0.0
C1873 C 0.12223 0.51573 0.31537 0.0
C1874 C 0.12646 0.50054 0.32976 0.0
C1875 C 0.07805 0.46637 0.35371 0.0
C1876 C 0.11314 0.46658 0.37737 0.0
C1877 C 0.09736 0.46434 0.34482 0.0
N1878 N 0.11459 0.46458 0.35663 0.0
C1879 C 0.09408 0.46863 0.38679 0.0
C1880 C 0.07644 0.46853 0.37484 0.0
C1881 C 0.1643 0.43957 0.37636 0.0
C1882 C 0.20504 0.40866 0.31148 0.0
C1883 C 0.20853 0.41983 0.35213 0.0
C1884 C 0.21408 0.40011 0.34613 0.0
C1885 C 0.21229 0.39452 0.32566 0.0
N1886 N 0.20138 0.43361 0.33815 0.0
C1887 C 0.19964 0.42825 0.31804 0.0
Co1888 Co 0.65721 0.54038 0.81166 0.0
Co1889 Co 0.66108 0.54106 0.86394 0.0
O1890 O 0.67336 0.54363 0.83666 0.0
C1891 C 0.69639 0.51758 0.80327 0.0
O1892 O 0.69849 0.51306 0.82268 0.0
C1893 C 0.6873 0.57866 0.86589 0.0
O1894 O 0.67999 0.58453 0.84815 0.0
O1895 O 0.64002 0.56221 0.85699 0.0
O1896 O 0.63274 0.55325 0.82476 0.0
H1897 H 0.60301 0.53402 0.91372 0.0
H1898 H 0.69741 0.56117 0.80966 0.0
O1899 O 0.68099 0.52773 0.79706 0.0
H1900 H 0.64776 0.61158 0.78373 0.0
H1901 H 0.64516 0.54139 0.73559 0.0
H1902 H 0.615 0.52639 0.80303 0.0
H1903 H 0.63642 0.5773 0.79446 0.0
H1904 H 0.66526 0.54636 0.76708 0.0
O1905 O 0.68025 0.56267 0.87453 0.0
H1906 H 0.61878 0.5367 0.87957 0.0
H1907 H 0.67773 0.54105 0.90645 0.0
H1908 H 0.59429 0.52136 0.77193 0.0
H1909 H 0.7095 0.59516 0.79878 0.0
H1910 H 0.60937 0.52889 0.7379 0.0
H1911 H 0.68457 0.62069 0.78579 0.0
O1912 O 0.64815 0.51291 0.82106 0.0
H1913 H 0.73239 0.51261 0.86826 0.0
H1914 H 0.65962 0.49949 0.88285 0.0
H1915 H 0.68522 0.47316 0.89121 0.0
H1916 H 0.72193 0.47967 0.88401 0.0
H1917 H 0.70624 0.53834 0.85973 0.0
H1918 H 0.66258 0.53858 0.94089 0.0
H1919 H 0.62497 0.53495 0.94468 0.0
O1920 O 0.64215 0.51863 0.85436 0.0
C1921 C 0.62863 0.56301 0.84113 0.0
C1922 C 0.61942 0.53555 0.91227 0.0
C1923 C 0.65286 0.53814 0.92751 0.0
N1924 N 0.64915 0.53892 0.89101 0.0
C1925 C 0.62844 0.53703 0.89297 0.0
C1926 C 0.66134 0.53959 0.90797 0.0
C1927 C 0.63175 0.53609 0.92963 0.0
C1928 C 0.6865 0.57209 0.80381 0.0
N1929 N 0.66622 0.56722 0.80271 0.0
C1930 C 0.69342 0.59137 0.79776 0.0
C1931 C 0.67943 0.60569 0.79051 0.0
C1932 C 0.65877 0.6006 0.78939 0.0
C1933 C 0.65241 0.58119 0.79559 0.0
C1934 C 0.6384 0.53809 0.75033 0.0
C1935 C 0.62163 0.5298 0.78829 0.0
C1936 C 0.64973 0.54083 0.76822 0.0
N1937 N 0.64127 0.53679 0.7869 0.0
C1938 C 0.60985 0.52688 0.77073 0.0
C1939 C 0.61833 0.53108 0.75164 0.0
C1940 C 0.64061 0.50761 0.83827 0.0
C1941 C 0.71644 0.50959 0.8715 0.0
C1942 C 0.67551 0.50235 0.8794 0.0
C1943 C 0.68996 0.48743 0.8843 0.0
C1944 C 0.71056 0.4911 0.88029 0.0
N1945 N 0.68137 0.52044 0.87071 0.0
C1946 C 0.70156 0.52416 0.86679 0.0
Co1947 Co 0.46232 0.65868 0.81021 0.0
Co1948 Co 0.46341 0.66177 0.86233 0.0
O1949 O 0.45974 0.67432 0.83545 0.0
C1950 C 0.48852 0.69504 0.80094 0.0
O1951 O 0.50003 0.69092 0.81686 0.0
C1952 C 0.42609 0.68826 0.86605 0.0
O1953 O 0.41964 0.68149 0.84831 0.0
O1954 O 0.44201 0.64083 0.85578 0.0
O1955 O 0.45037 0.63368 0.82329 0.0
H1956 H 0.47202 0.60314 0.91116 0.0
H1957 H 0.4407 0.69855 0.80958 0.0
O1958 O 0.4736 0.68349 0.79627 0.0
H1959 H 0.39043 0.64831 0.78449 0.0
H1960 H 0.45929 0.64886 0.7339 0.0
H1961 H 0.47639 0.61686 0.79997 0.0
H1962 H 0.42524 0.63747 0.79398 0.0
H1963 H 0.45509 0.66801 0.76611 0.0
O1964 O 0.44229 0.68089 0.874 0.0
H1965 H 0.46818 0.6193 0.87731 0.0
H1966 H 0.46513 0.67795 0.90498 0.0
H1967 H 0.48068 0.59712 0.76814 0.0
H1968 H 0.40617 0.71013 0.79991 0.0
H1969 H 0.47209 0.61312 0.7348 0.0
H1970 H 0.38071 0.68491 0.78735 0.0
O1971 O 0.49027 0.6497 0.81845 0.0
H1972 H 0.49304 0.73267 0.8636 0.0
H1973 H 0.50531 0.66026 0.88048 0.0
H1974 H 0.53228 0.68568 0.88725 0.0
H1975 H 0.52621 0.72221 0.87884 0.0
H1976 H 0.46657 0.7067 0.85689 0.0
H1977 H 0.46878 0.66242 0.93913 0.0
H1978 H 0.47234 0.62475 0.94237 0.0
O1979 O 0.48539 0.64296 0.85172 0.0
C1980 C 0.44095 0.62949 0.83988 0.0
C1981 C 0.47053 0.61957 0.90994 0.0
C1982 C 0.46868 0.65284 0.92564 0.0
N1983 N 0.46655 0.64955 0.88916 0.0
C1984 C 0.4684 0.62881 0.89082 0.0
C1985 C 0.46655 0.66154 0.90627 0.0
C1986 C 0.47069 0.63171 0.92745 0.0
C1987 C 0.42979 0.6875 0.80393 0.0
N1988 N 0.435 0.66733 0.80241 0.0
C1989 C 0.41022 0.69415 0.79856 0.0
C1990 C 0.39594 0.67998 0.79156 0.0
C1991 C 0.40137 0.65944 0.78998 0.0
C1992 C 0.42108 0.65336 0.7955 0.0
C1993 C 0.46305 0.64171 0.74834 0.0
C1994 C 0.47252 0.62389 0.78553 0.0
C1995 C 0.46074 0.65248 0.76662 0.0
N1996 N 0.46535 0.6435 0.78492 0.0
C1997 C 0.47503 0.61266 0.76756 0.0
C1998 C 0.47022 0.62165 0.74885 0.0
C1999 C 0.49603 0.64181 0.83536 0.0
C2000 C 0.49586 0.71681 0.86737 0.0
C2001 C 0.50258 0.67609 0.87668 0.0
C2002 C 0.51789 0.69044 0.88061 0.0
C2003 C 0.51447 0.71093 0.8759 0.0
N2004 N 0.48434 0.68196 0.86834 0.0
C2005 C 0.48089 0.70203 0.86367 0.0
Co2006 Co 0.34514 0.4628 0.81157 0.0
Co2007 Co 0.34223 0.46456 0.86365 0.0
O2008 O 0.32966 0.46055 0.83688 0.0
C2009 C 0.30873 0.4888 0.80187 0.0
O2010 O 0.31294 0.50077 0.81743 0.0
C2011 C 0.31705 0.42661 0.86758 0.0
O2012 O 0.32528 0.4198 0.8506 0.0
O2013 O 0.3634 0.44329 0.85734 0.0
O2014 O 0.37025 0.45121 0.82469 0.0
H2015 H 0.40074 0.47432 0.91241 0.0
H2016 H 0.30541 0.44096 0.81175 0.0
O2017 O 0.32023 0.47372 0.79758 0.0
H2018 H 0.35568 0.39052 0.78705 0.0
H2019 H 0.35461 0.45854 0.73528 0.0
H2020 H 0.38686 0.47692 0.80088 0.0
H2021 H 0.3664 0.42558 0.79571 0.0
H2022 H 0.33564 0.45482 0.76765 0.0
O2023 O 0.32324 0.44338 0.87534 0.0
H2024 H 0.38465 0.47001 0.87858 0.0
H2025 H 0.32602 0.46632 0.90627 0.0
H2026 H 0.40643 0.48075 0.76888 0.0
H2027 H 0.29395 0.40615 0.80297 0.0
H2028 H 0.3903 0.47152 0.73577 0.0
H2029 H 0.31919 0.38062 0.7906 0.0
O2030 O 0.35408 0.4909 0.81938 0.0
H2031 H 0.27108 0.49359 0.86485 0.0
H2032 H 0.34345 0.50665 0.88134 0.0
H2033 H 0.31781 0.53347 0.88793 0.0
H2034 H 0.28131 0.527 0.87972 0.0
H2035 H 0.29724 0.46728 0.85832 0.0
H2036 H 0.34149 0.47043 0.9404 0.0
H2037 H 0.37911 0.47455 0.94362 0.0
O2038 O 0.36084 0.48658 0.85276 0.0
C2039 C 0.37464 0.44209 0.84138 0.0
C2040 C 0.38433 0.47259 0.9112 0.0
C2041 C 0.35108 0.47037 0.92692 0.0
N2042 N 0.35442 0.46804 0.89045 0.0
C2043 C 0.37513 0.47019 0.89209 0.0
C2044 C 0.34241 0.46799 0.90755 0.0
C2045 C 0.37219 0.4727 0.92871 0.0
C2046 C 0.31646 0.43001 0.80618 0.0
N2047 N 0.33658 0.43533 0.80427 0.0
C2048 C 0.30988 0.41029 0.80132 0.0
C2049 C 0.32406 0.39596 0.79442 0.0
C2050 C 0.34454 0.4015 0.79245 0.0
C2051 C 0.35055 0.42136 0.79748 0.0
C2052 C 0.36182 0.46258 0.74961 0.0
C2053 C 0.37977 0.47277 0.78654 0.0
C2054 C 0.35114 0.46055 0.76799 0.0
N2055 N 0.36019 0.4655 0.78615 0.0
C2056 C 0.39091 0.47502 0.76847 0.0
C2057 C 0.38184 0.46985 0.7499 0.0
C2058 C 0.36198 0.49694 0.83621 0.0
C2059 C 0.28693 0.49658 0.86854 0.0
C2060 C 0.32763 0.50375 0.87763 0.0
C2061 C 0.31316 0.51897 0.88145 0.0
C2062 C 0.29268 0.51533 0.87685 0.0
N2063 N 0.32187 0.48537 0.8695 0.0
C2064 C 0.30182 0.48171 0.86493 0.0
Co2065 Co 0.53983 0.34613 0.81263 0.0
Co2066 Co 0.54027 0.34227 0.86491 0.0
O2067 O 0.54297 0.33001 0.83764 0.0
C2068 C 0.51737 0.30676 0.80406 0.0
O2069 O 0.51311 0.30429 0.82348 0.0
C2070 C 0.57816 0.31661 0.8668 0.0
O2071 O 0.58411 0.32455 0.84936 0.0
O2072 O 0.56136 0.36346 0.85808 0.0
O2073 O 0.55258 0.37058 0.82578 0.0
H2074 H 0.53276 0.40018 0.91479 0.0
H2075 H 0.56072 0.30597 0.81086 0.0
O2076 O 0.52726 0.32237 0.79796 0.0
H2077 H 0.61118 0.35567 0.78507 0.0
H2078 H 0.54125 0.3582 0.73656 0.0
H2079 H 0.52584 0.38833 0.80392 0.0
H2080 H 0.5768 0.36695 0.79557 0.0
H2081 H 0.54606 0.33809 0.76808 0.0
O2082 O 0.56196 0.32315 0.87545 0.0
H2083 H 0.5356 0.3845 0.88061 0.0
H2084 H 0.54034 0.32554 0.90738 0.0
H2085 H 0.52096 0.40902 0.77279 0.0
H2086 H 0.59481 0.29394 0.80023 0.0
H2087 H 0.52869 0.39396 0.7388 0.0
H2088 H 0.62036 0.31889 0.7873 0.0
O2089 O 0.51232 0.35517 0.82189 0.0
H2090 H 0.51212 0.27084 0.86923 0.0
H2091 H 0.49861 0.34356 0.88359 0.0
H2092 H 0.47235 0.31787 0.89189 0.0
H2093 H 0.47906 0.28117 0.8848 0.0
H2094 H 0.53778 0.29708 0.86077 0.0
H2095 H 0.53771 0.34058 0.94185 0.0
H2096 H 0.53381 0.37816 0.9457 0.0
O2097 O 0.51781 0.36112 0.85525 0.0
C2098 C 0.56217 0.37481 0.8422 0.0
C2099 C 0.53441 0.38378 0.9133 0.0
C2100 C 0.53721 0.35034 0.92849 0.0
N2101 N 0.53801 0.35413 0.892 0.0
C2102 C 0.53597 0.37481 0.89399 0.0
C2103 C 0.53875 0.34191 0.90893 0.0
C2104 C 0.53501 0.37142 0.93064 0.0
C2105 C 0.57165 0.31689 0.80503 0.0
N2106 N 0.56673 0.33715 0.80383 0.0
C2107 C 0.59098 0.31 0.79913 0.0
C2108 C 0.60532 0.32401 0.79192 0.0
C2109 C 0.60019 0.34465 0.79069 0.0
C2110 C 0.58072 0.35098 0.79676 0.0
C2111 C 0.53786 0.36494 0.75128 0.0
C2112 C 0.52933 0.38169 0.78919 0.0
C2113 C 0.54051 0.35362 0.76919 0.0
N2114 N 0.53636 0.36207 0.78785 0.0
C2115 C 0.5265 0.39348 0.77162 0.0
C2116 C 0.53082 0.38501 0.75255 0.0
C2117 C 0.50692 0.36271 0.83907 0.0
C2118 C 0.50902 0.28677 0.87242 0.0
C2119 C 0.50156 0.32768 0.88019 0.0
C2120 C 0.48667 0.31317 0.88506 0.0
C2121 C 0.49046 0.29259 0.88111 0.0
N2122 N 0.51971 0.32189 0.8716 0.0
C2123 C 0.52355 0.30172 0.86775 0.0
Co2124 Co 0.6584 0.46611 0.19079 0.0
Co2125 Co 0.66187 0.4658 0.13847 0.0
O2126 O 0.67436 0.46306 0.16564 0.0
C2127 C 0.69791 0.48844 0.19918 0.0
O2128 O 0.70041 0.49252 0.17972 0.0
C2129 C 0.68783 0.42812 0.13622 0.0
O2130 O 0.68038 0.42217 0.15387 0.0
O2131 O 0.64083 0.44463 0.1454 0.0
O2132 O 0.63388 0.45332 0.17777 0.0
H2133 H 0.60352 0.47326 0.08912 0.0
H2134 H 0.69864 0.44531 0.19229 0.0
O2135 O 0.68223 0.4787 0.20536 0.0
H2136 H 0.64919 0.39468 0.21824 0.0
H2137 H 0.64682 0.46444 0.26693 0.0
H2138 H 0.61622 0.47995 0.19982 0.0
H2139 H 0.63776 0.42904 0.20787 0.0
H2140 H 0.66675 0.45978 0.23528 0.0
O2141 O 0.68095 0.44422 0.12766 0.0
H2142 H 0.61949 0.47036 0.12314 0.0
H2143 H 0.67826 0.46599 0.09585 0.0
H2144 H 0.5957 0.48467 0.2311 0.0
H2145 H 0.71081 0.41124 0.20281 0.0
H2146 H 0.611 0.47689 0.26496 0.0
H2147 H 0.68599 0.3856 0.21582 0.0
O2148 O 0.64923 0.49362 0.18167 0.0
H2149 H 0.7332 0.49417 0.13361 0.0
H2150 H 0.6603 0.50753 0.11996 0.0
H2151 H 0.68585 0.53388 0.11152 0.0
H2152 H 0.72263 0.52725 0.11826 0.0
H2153 H 0.70709 0.46841 0.14221 0.0
H2154 H 0.66291 0.46869 0.06153 0.0
H2155 H 0.62528 0.47243 0.05801 0.0
O2156 O 0.64303 0.48816 0.14835 0.0
C2157 C 0.62958 0.44374 0.16135 0.0
C2158 C 0.61993 0.47168 0.09045 0.0
C2159 C 0.65327 0.46908 0.07497 0.0
N2160 N 0.64978 0.46812 0.11149 0.0
C2161 C 0.62907 0.47008 0.10968 0.0
C2162 C 0.66186 0.4675 0.09445 0.0
C2163 C 0.63215 0.4712 0.07301 0.0
C2164 C 0.68777 0.43434 0.19816 0.0
N2165 N 0.6675 0.4392 0.19947 0.0
C2166 C 0.69474 0.41502 0.204 0.0
C2167 C 0.68081 0.40063 0.21125 0.0
C2168 C 0.66016 0.40571 0.21258 0.0
C2169 C 0.65375 0.42517 0.20658 0.0
C2170 C 0.63997 0.46785 0.25227 0.0
C2171 C 0.62295 0.47643 0.21449 0.0
C2172 C 0.6512 0.46529 0.23428 0.0
N2173 N 0.64261 0.46947 0.21569 0.0
C2174 C 0.61127 0.47918 0.23215 0.0
C2175 C 0.61987 0.47483 0.25115 0.0
C2176 C 0.64154 0.49901 0.16455 0.0
C2177 C 0.71722 0.49724 0.13058 0.0
C2178 C 0.67622 0.50461 0.1232 0.0
C2179 C 0.69065 0.51955 0.11826 0.0
C2180 C 0.71128 0.51581 0.12201 0.0
N2181 N 0.68214 0.48645 0.13168 0.0
C2182 C 0.70236 0.48266 0.13533 0.0
Co2183 Co 0.53927 0.65917 0.19281 0.0
Co2184 Co 0.5386 0.66309 0.14052 0.0
O2185 O 0.54179 0.67532 0.16774 0.0
C2186 C 0.51657 0.69827 0.20183 0.0
O2187 O 0.51173 0.70055 0.18252 0.0
C2188 C 0.57643 0.68869 0.13793 0.0
O2189 O 0.58271 0.68066 0.1552 0.0
O2190 O 0.55989 0.64199 0.14688 0.0
O2191 O 0.55193 0.63481 0.17938 0.0
H2192 H 0.53037 0.60522 0.09072 0.0
H2193 H 0.5599 0.69948 0.19417 0.0
O2194 O 0.52685 0.68285 0.20774 0.0
H2195 H 0.61126 0.65013 0.21879 0.0
H2196 H 0.54236 0.64709 0.26882 0.0
H2197 H 0.52575 0.61687 0.2018 0.0
H2198 H 0.57675 0.63859 0.20904 0.0
H2199 H 0.54638 0.66723 0.23722 0.0
O2200 O 0.56002 0.68227 0.1296 0.0
H2201 H 0.53377 0.62086 0.12486 0.0
H2202 H 0.53779 0.67988 0.09808 0.0
H2203 H 0.52166 0.59613 0.23301 0.0
H2204 H 0.59414 0.71174 0.20405 0.0
H2205 H 0.53 0.61124 0.26683 0.0
H2206 H 0.62014 0.68697 0.21638 0.0
O2207 O 0.51164 0.64993 0.18412 0.0
H2208 H 0.51015 0.73443 0.13689 0.0
H2209 H 0.49659 0.66169 0.12266 0.0
H2210 H 0.47011 0.68732 0.11491 0.0
H2211 H 0.47684 0.72402 0.12194 0.0
H2212 H 0.53605 0.70825 0.1448 0.0
H2213 H 0.53459 0.66487 0.06365 0.0
H2214 H 0.53077 0.62728 0.05982 0.0
O2215 O 0.51639 0.64415 0.1506 0.0
C2216 C 0.56117 0.63066 0.16274 0.0
C2217 C 0.53197 0.62162 0.0922 0.0
C2218 C 0.53437 0.65509 0.077 0.0
N2219 N 0.53585 0.65126 0.11347 0.0
C2220 C 0.53386 0.63057 0.11149 0.0
C2221 C 0.53624 0.6635 0.09654 0.0
C2222 C 0.53222 0.63401 0.07486 0.0
C2223 C 0.57104 0.68863 0.19974 0.0
N2224 N 0.56629 0.66833 0.20104 0.0
C2225 C 0.59044 0.69566 0.20522 0.0
C2226 C 0.60503 0.68175 0.2121 0.0
C2227 C 0.60007 0.66107 0.21342 0.0
C2228 C 0.58052 0.6546 0.20778 0.0
C2229 C 0.53871 0.64033 0.25417 0.0
C2230 C 0.52951 0.62352 0.21645 0.0
C2231 C 0.54091 0.65167 0.23622 0.0
N2232 N 0.53642 0.6432 0.21765 0.0
C2233 C 0.52712 0.61172 0.23407 0.0
C2234 C 0.53178 0.62021 0.25304 0.0
C2235 C 0.5059 0.64243 0.16703 0.0
C2236 C 0.50704 0.71849 0.13374 0.0
C2237 C 0.49956 0.67757 0.12602 0.0
C2238 C 0.48454 0.69205 0.12147 0.0
C2239 C 0.48834 0.71264 0.12539 0.0
N2240 N 0.51785 0.68341 0.13427 0.0
C2241 C 0.5217 0.70359 0.13809 0.0
Co2242 Co 0.34487 0.54183 0.19381 0.0
Co2243 Co 0.3412 0.54016 0.14177 0.0
O2244 O 0.32901 0.54411 0.16873 0.0
C2245 C 0.3086 0.51578 0.20386 0.0
O2246 O 0.31258 0.50399 0.18811 0.0
C2247 C 0.31591 0.5781 0.13808 0.0
O2248 O 0.32427 0.58501 0.15495 0.0
O2249 O 0.36236 0.56149 0.14781 0.0
O2250 O 0.36977 0.55353 0.18033 0.0
H2251 H 0.39907 0.53067 0.09218 0.0
H2252 H 0.3051 0.56359 0.19423 0.0
O2253 O 0.32018 0.5308 0.20814 0.0
H2254 H 0.35562 0.61407 0.21833 0.0
H2255 H 0.35543 0.54592 0.26996 0.0
H2256 H 0.38677 0.52779 0.20384 0.0
H2257 H 0.36628 0.57905 0.20944 0.0
H2258 H 0.33599 0.54969 0.23788 0.0
O2259 O 0.32201 0.56128 0.13035 0.0
H2260 H 0.38343 0.53491 0.12623 0.0
H2261 H 0.32441 0.53834 0.09938 0.0
H2262 H 0.40681 0.52392 0.23554 0.0
H2263 H 0.2937 0.59836 0.20324 0.0
H2264 H 0.39113 0.53303 0.2689 0.0
H2265 H 0.31906 0.62392 0.21531 0.0
O2266 O 0.35376 0.51376 0.1858 0.0
H2267 H 0.27012 0.51092 0.14158 0.0
H2268 H 0.34229 0.49808 0.12404 0.0
H2269 H 0.31664 0.47119 0.11781 0.0
H2270 H 0.28024 0.47755 0.12656 0.0
H2271 H 0.29631 0.53731 0.14774 0.0
H2272 H 0.33942 0.53429 0.06503 0.0
H2273 H 0.37701 0.53034 0.06128 0.0
O2274 O 0.36003 0.51821 0.15235 0.0
C2275 C 0.37385 0.56269 0.16359 0.0
C2276 C 0.38267 0.53233 0.09362 0.0
C2277 C 0.3492 0.53439 0.07838 0.0
N2278 N 0.35303 0.53674 0.1148 0.0
C2279 C 0.37372 0.53469 0.11286 0.0
C2280 C 0.34079 0.53674 0.09787 0.0
C2281 C 0.37028 0.53216 0.07629 0.0
C2282 C 0.3162 0.57455 0.19967 0.0
N2283 N 0.33635 0.56927 0.20129 0.0
C2284 C 0.30967 0.59425 0.20466 0.0
C2285 C 0.32391 0.60859 0.21139 0.0
C2286 C 0.34442 0.60309 0.21306 0.0
C2287 C 0.3504 0.58325 0.20791 0.0
C2288 C 0.36244 0.54194 0.25551 0.0
C2289 C 0.37988 0.53189 0.21829 0.0
C2290 C 0.35149 0.544 0.2373 0.0
N2291 N 0.36029 0.53911 0.21899 0.0
C2292 C 0.39128 0.52962 0.23619 0.0
C2293 C 0.38247 0.53471 0.25491 0.0
C2294 C 0.36144 0.50781 0.16885 0.0
C2295 C 0.28593 0.50798 0.13766 0.0
C2296 C 0.32652 0.50094 0.12798 0.0
C2297 C 0.31204 0.48567 0.12436 0.0
C2298 C 0.29162 0.48925 0.12926 0.0
N2299 N 0.32083 0.51929 0.1362 0.0
C2300 C 0.30083 0.52289 0.14106 0.0
Co2301 Co 0.4647 0.3476 0.19227 0.0
Co2302 Co 0.46377 0.34406 0.13992 0.0
O2303 O 0.46142 0.33157 0.16716 0.0
C2304 C 0.48727 0.30816 0.20038 0.0
O2305 O 0.49076 0.30547 0.18083 0.0
C2306 C 0.42662 0.3171 0.13791 0.0
O2307 O 0.42117 0.32328 0.15619 0.0
O2308 O 0.44248 0.36484 0.14715 0.0
O2309 O 0.45146 0.37201 0.17939 0.0
H2310 H 0.46999 0.40264 0.09064 0.0
H2311 H 0.44429 0.30716 0.19434 0.0
O2312 O 0.47774 0.3239 0.20669 0.0
H2313 H 0.39366 0.35626 0.22088 0.0
H2314 H 0.46416 0.35924 0.26842 0.0
H2315 H 0.47829 0.38991 0.20102 0.0
H2316 H 0.4277 0.36797 0.20978 0.0
H2317 H 0.45915 0.33925 0.23687 0.0
O2318 O 0.44221 0.32489 0.12918 0.0
H2319 H 0.46764 0.38653 0.12465 0.0
H2320 H 0.46381 0.32779 0.09726 0.0
H2321 H 0.48335 0.4105 0.23219 0.0
H2322 H 0.41056 0.29472 0.20562 0.0
H2323 H 0.47627 0.39517 0.2662 0.0
H2324 H 0.38492 0.31936 0.21892 0.0
O2325 O 0.49202 0.35697 0.18277 0.0
H2326 H 0.49266 0.273 0.13465 0.0
H2327 H 0.50527 0.346 0.1209 0.0
H2328 H 0.53173 0.32069 0.11213 0.0
H2329 H 0.52548 0.28385 0.11891 0.0
H2330 H 0.4668 0.29888 0.14359 0.0
H2331 H 0.46595 0.34327 0.06295 0.0
H2332 H 0.46915 0.38095 0.05949 0.0
O2333 O 0.48609 0.36308 0.14954 0.0
C2334 C 0.44161 0.3761 0.16308 0.0
C2335 C 0.46865 0.3862 0.09195 0.0
C2336 C 0.46635 0.35288 0.07641 0.0
N2337 N 0.46569 0.35624 0.11295 0.0
C2338 C 0.46736 0.37699 0.11117 0.0
C2339 C 0.46508 0.34421 0.09588 0.0
C2340 C 0.46816 0.37402 0.07448 0.0
C2341 C 0.43333 0.31796 0.20034 0.0
N2342 N 0.43801 0.33829 0.20139 0.0
C2343 C 0.4142 0.31083 0.2066 0.0
C2344 C 0.39981 0.32467 0.21402 0.0
C2345 C 0.40469 0.34537 0.21509 0.0
C2346 C 0.42396 0.35194 0.20867 0.0
C2347 C 0.46726 0.36611 0.25369 0.0
C2348 C 0.47507 0.38316 0.21576 0.0
C2349 C 0.4645 0.35485 0.23576 0.0
N2350 N 0.4683 0.36345 0.21709 0.0
C2351 C 0.47801 0.39488 0.23335 0.0
C2352 C 0.47405 0.38626 0.25243 0.0
C2353 C 0.49717 0.36464 0.16558 0.0
C2354 C 0.49557 0.289 0.1316 0.0
C2355 C 0.50252 0.33007 0.12418 0.0
C2356 C 0.51752 0.31577 0.11904 0.0
C2357 C 0.51399 0.2951 0.12281 0.0
N2358 N 0.48451 0.32399 0.13287 0.0
C2359 C 0.48092 0.30374 0.13654 0.0
Co2360 Co 0.86598 0.66219 0.5384 0.0
Co2361 Co 0.81375 0.65778 0.53829 0.0
O2362 O 0.83861 0.6742 0.54124 0.0
C2363 C 0.86803 0.68822 0.57604 0.0
O2364 O 0.85055 0.68048 0.58214 0.0
C2365 C 0.80467 0.69691 0.51568 0.0
O2366 O 0.824 0.69918 0.51088 0.0
O2367 O 0.82292 0.64884 0.51071 0.0
O2368 O 0.85633 0.6431 0.51614 0.0
H2369 H 0.77445 0.59445 0.51972 0.0
H2370 H 0.86134 0.70729 0.53561 0.0
O2371 O 0.87656 0.68152 0.55986 0.0
H2372 H 0.89227 0.68638 0.47014 0.0
H2373 H 0.94289 0.66447 0.53519 0.0
H2374 H 0.88199 0.62005 0.53399 0.0
H2375 H 0.88441 0.66079 0.49663 0.0
H2376 H 0.90832 0.67927 0.53794 0.0
O2377 O 0.79873 0.68143 0.52586 0.0
H2378 H 0.80539 0.61549 0.52437 0.0
H2379 H 0.76915 0.66533 0.54484 0.0
H2380 H 0.91627 0.60462 0.53105 0.0
H2381 H 0.86935 0.73345 0.50971 0.0
H2382 H 0.94702 0.62689 0.53163 0.0
H2383 H 0.88482 0.72305 0.47664 0.0
O2384 O 0.85947 0.64116 0.5597 0.0
H2385 H 0.80101 0.70983 0.59332 0.0
H2386 H 0.79723 0.63674 0.57539 0.0
H2387 H 0.78681 0.64791 0.60982 0.0
H2388 H 0.7886 0.68472 0.61897 0.0
H2389 H 0.81159 0.69792 0.55917 0.0
H2390 H 0.73781 0.64489 0.54026 0.0
H2391 H 0.74035 0.60915 0.52769 0.0
O2392 O 0.82728 0.63344 0.55098 0.0
C2393 C 0.84015 0.6414 0.50528 0.0
C2394 C 0.77315 0.60999 0.52526 0.0
C2395 C 0.75259 0.6383 0.53677 0.0
N2396 N 0.78911 0.64157 0.535 0.0
C2397 C 0.79062 0.62196 0.52797 0.0
C2398 C 0.77039 0.64982 0.53928 0.0
C2399 C 0.75402 0.61825 0.52972 0.0
C2400 C 0.86828 0.70264 0.52136 0.0
N2401 N 0.87233 0.68248 0.51765 0.0
C2402 C 0.87269 0.71752 0.50671 0.0
C2403 C 0.88133 0.71167 0.48814 0.0
C2404 C 0.88548 0.69111 0.48447 0.0
C2405 C 0.88087 0.67665 0.49949 0.0
C2406 C 0.92961 0.65461 0.53489 0.0
C2407 C 0.89529 0.62985 0.53417 0.0
C2408 C 0.90999 0.6629 0.5365 0.0
N2409 N 0.89315 0.65054 0.53602 0.0
C2410 C 0.91467 0.62102 0.53254 0.0
C2411 C 0.93192 0.63353 0.53289 0.0
C2412 C 0.84376 0.62958 0.56065 0.0
C2413 C 0.80011 0.69375 0.58951 0.0
C2414 C 0.79824 0.65274 0.57929 0.0
C2415 C 0.79222 0.659 0.59879 0.0
C2416 C 0.79319 0.67966 0.6039 0.0
N2417 N 0.80503 0.66665 0.56525 0.0
C2418 C 0.80599 0.68693 0.57015 0.0
Co2419 Co 0.86369 0.34295 0.46571 0.0
Co2420 Co 0.81153 0.34765 0.46488 0.0
O2421 O 0.83634 0.33115 0.46232 0.0
C2422 C 0.86633 0.31707 0.42799 0.0
O2423 O 0.84911 0.32507 0.42151 0.0
C2424 C 0.80226 0.30978 0.48901 0.0
O2425 O 0.82102 0.30957 0.49609 0.0
O2426 O 0.82025 0.35659 0.49262 0.0
O2427 O 0.8538 0.36206 0.48782 0.0
H2428 H 0.77201 0.41101 0.4828 0.0
H2429 H 0.85812 0.29797 0.46844 0.0
O2430 O 0.87452 0.32356 0.44443 0.0
H2431 H 0.88844 0.3183 0.53437 0.0
H2432 H 0.94051 0.34003 0.47034 0.0
H2433 H 0.87997 0.38495 0.47047 0.0
H2434 H 0.8816 0.34402 0.50771 0.0
H2435 H 0.90588 0.32552 0.46694 0.0
O2436 O 0.79642 0.3239 0.47698 0.0
H2437 H 0.803 0.38995 0.47865 0.0
H2438 H 0.76706 0.34013 0.45762 0.0
H2439 H 0.91432 0.40009 0.47407 0.0
H2440 H 0.86504 0.2717 0.49453 0.0
H2441 H 0.94489 0.37756 0.47402 0.0
H2442 H 0.88022 0.28181 0.52783 0.0
O2443 O 0.85772 0.3641 0.44435 0.0
H2444 H 0.79959 0.29563 0.40967 0.0
H2445 H 0.79581 0.36875 0.42748 0.0
H2446 H 0.78601 0.3576 0.39286 0.0
H2447 H 0.78781 0.32078 0.38377 0.0
H2448 H 0.80952 0.30751 0.44403 0.0
H2449 H 0.73567 0.3606 0.46169 0.0
H2450 H 0.73803 0.39634 0.47429 0.0
O2451 O 0.82537 0.37197 0.45243 0.0
C2452 C 0.83743 0.36389 0.49837 0.0
C2453 C 0.77078 0.39548 0.47725 0.0
C2454 C 0.75038 0.36717 0.46543 0.0
N2455 N 0.78687 0.36388 0.46778 0.0
C2456 C 0.78829 0.38349 0.47482 0.0
C2457 C 0.76822 0.35564 0.4632 0.0
C2458 C 0.75172 0.38723 0.47249 0.0
C2459 C 0.86493 0.30249 0.48279 0.0
N2460 N 0.86943 0.32255 0.48652 0.0
C2461 C 0.86873 0.28754 0.49755 0.0
C2462 C 0.87721 0.29323 0.51624 0.0
C2463 C 0.88179 0.3137 0.51993 0.0
C2464 C 0.87778 0.32823 0.50481 0.0
C2465 C 0.92731 0.35 0.47041 0.0
C2466 C 0.89319 0.37504 0.47053 0.0
C2467 C 0.90766 0.34188 0.46842 0.0
N2468 N 0.89091 0.35437 0.46862 0.0
C2469 C 0.91261 0.38371 0.47253 0.0
C2470 C 0.92975 0.37106 0.47248 0.0
C2471 C 0.84208 0.37576 0.4431 0.0
C2472 C 0.79869 0.31171 0.41345 0.0
C2473 C 0.79681 0.35275 0.42361 0.0
C2474 C 0.79114 0.3465 0.404 0.0
C2475 C 0.79213 0.32584 0.39892 0.0
N2476 N 0.80327 0.33882 0.43778 0.0
C2477 C 0.80422 0.31852 0.43292 0.0
Co2478 Co 0.65895 0.81225 0.46547 0.0
Co2479 Co 0.66307 0.86454 0.46477 0.0
O2480 O 0.67512 0.83719 0.4621 0.0
C2481 C 0.69791 0.80386 0.48849 0.0
O2482 O 0.69945 0.82315 0.49372 0.0
C2483 C 0.68794 0.86589 0.42647 0.0
O2484 O 0.67956 0.84852 0.42093 0.0
O2485 O 0.64155 0.85774 0.44402 0.0
O2486 O 0.63444 0.82542 0.4528 0.0
H2487 H 0.60561 0.91488 0.47274 0.0
H2488 H 0.699 0.81022 0.44441 0.0
O2489 O 0.68282 0.79764 0.4779 0.0
H2490 H 0.64896 0.78452 0.39427 0.0
H2491 H 0.64673 0.7362 0.46447 0.0
H2492 H 0.61681 0.80368 0.47974 0.0
H2493 H 0.63787 0.79514 0.42867 0.0
H2494 H 0.66687 0.76766 0.45939 0.0
O2495 O 0.68198 0.8748 0.44274 0.0
H2496 H 0.62101 0.88057 0.46994 0.0
H2497 H 0.6801 0.90689 0.46418 0.0
H2498 H 0.59608 0.77261 0.48488 0.0
H2499 H 0.71083 0.79948 0.41028 0.0
H2500 H 0.61104 0.73856 0.47722 0.0
H2501 H 0.68571 0.7866 0.3849 0.0
O2502 O 0.65005 0.82167 0.49298 0.0
H2503 H 0.73487 0.86821 0.49202 0.0
H2504 H 0.66247 0.88351 0.50629 0.0
H2505 H 0.68857 0.89169 0.53218 0.0
H2506 H 0.72511 0.88411 0.52509 0.0
H2507 H 0.70823 0.85992 0.46673 0.0
H2508 H 0.66533 0.94148 0.46676 0.0
H2509 H 0.62784 0.94563 0.47116 0.0
O2510 O 0.64445 0.85512 0.48753 0.0
C2511 C 0.63016 0.84187 0.44328 0.0
C2512 C 0.62198 0.91326 0.47088 0.0
C2513 C 0.65549 0.92819 0.46749 0.0
N2514 N 0.65143 0.89172 0.46702 0.0
C2515 C 0.63079 0.89388 0.46933 0.0
C2516 C 0.66376 0.90857 0.46598 0.0
C2517 C 0.63445 0.93051 0.46997 0.0
C2518 C 0.688 0.80443 0.43354 0.0
N2519 N 0.66775 0.80332 0.43856 0.0
C2520 C 0.69478 0.79845 0.4142 0.0
C2521 C 0.68068 0.79127 0.39995 0.0
C2522 C 0.66005 0.79013 0.40519 0.0
C2523 C 0.65384 0.79626 0.42467 0.0
C2524 C 0.64003 0.75095 0.46783 0.0
C2525 C 0.6234 0.78893 0.47628 0.0
C2526 C 0.65138 0.76882 0.46504 0.0
N2527 N 0.64298 0.78751 0.46915 0.0
C2528 C 0.6116 0.77139 0.47926 0.0
C2529 C 0.62001 0.75229 0.47498 0.0
C2530 C 0.64271 0.83894 0.4984 0.0
C2531 C 0.71901 0.87161 0.49529 0.0
C2532 C 0.67828 0.87994 0.50317 0.0
C2533 C 0.69302 0.88472 0.51785 0.0
C2534 C 0.71352 0.8805 0.51385 0.0
N2535 N 0.68377 0.87119 0.48501 0.0
C2536 C 0.70385 0.86705 0.48097 0.0
Co2537 Co 0.14194 0.66068 0.46213 0.0
Co2538 Co 0.19408 0.65838 0.46147 0.0
O2539 O 0.16865 0.67361 0.45864 0.0
C2540 C 0.13814 0.68666 0.42455 0.0
O2541 O 0.15563 0.67942 0.41792 0.0
C2542 C 0.20322 0.69485 0.48772 0.0
O2543 O 0.18773 0.69039 0.4997 0.0
O2544 O 0.18576 0.64948 0.48946 0.0
O2545 O 0.15265 0.64211 0.48423 0.0
H2546 H 0.23695 0.59757 0.4805 0.0
H2547 H 0.14676 0.70569 0.46523 0.0
O2548 O 0.13025 0.67963 0.44092 0.0
H2549 H 0.116 0.68443 0.53068 0.0
H2550 H 0.06507 0.66028 0.46681 0.0
H2551 H 0.12751 0.61802 0.46705 0.0
H2552 H 0.1234 0.65903 0.50386 0.0
H2553 H 0.09905 0.67627 0.46336 0.0
O2554 O 0.20762 0.68349 0.47257 0.0
H2555 H 0.20486 0.61682 0.47594 0.0
H2556 H 0.23809 0.66829 0.4544 0.0
H2557 H 0.09384 0.60142 0.47071 0.0
H2558 H 0.13941 0.73163 0.49154 0.0
H2559 H 0.06232 0.6226 0.47061 0.0
H2560 H 0.12396 0.72106 0.52458 0.0
O2561 O 0.14896 0.63971 0.44088 0.0
H2562 H 0.20355 0.70949 0.40488 0.0
H2563 H 0.21098 0.63717 0.42469 0.0
H2564 H 0.22036 0.64787 0.38981 0.0
H2565 H 0.21674 0.6843 0.37972 0.0
H2566 H 0.19402 0.69804 0.4395 0.0
H2567 H 0.27055 0.64965 0.45887 0.0
H2568 H 0.27011 0.614 0.47194 0.0
O2569 O 0.18144 0.63309 0.44968 0.0
C2570 C 0.1689 0.64133 0.49507 0.0
C2571 C 0.23734 0.61308 0.47474 0.0
C2572 C 0.2562 0.64232 0.46263 0.0
N2573 N 0.21958 0.6436 0.46476 0.0
C2574 C 0.21922 0.62404 0.47207 0.0
C2575 C 0.23777 0.65281 0.46017 0.0
C2576 C 0.25594 0.62231 0.46995 0.0
C2577 C 0.1399 0.70097 0.4795 0.0
N2578 N 0.13546 0.68084 0.48295 0.0
C2579 C 0.13583 0.71573 0.49437 0.0
C2580 C 0.12719 0.70978 0.51291 0.0
C2581 C 0.12273 0.68924 0.51635 0.0
C2582 C 0.12702 0.6749 0.50112 0.0
C2583 C 0.07869 0.65089 0.4669 0.0
C2584 C 0.11387 0.62735 0.46708 0.0
C2585 C 0.09797 0.65985 0.46488 0.0
N2586 N 0.11525 0.64809 0.4651 0.0
C2587 C 0.09484 0.61786 0.46911 0.0
C2588 C 0.07716 0.62975 0.46904 0.0
C2589 C 0.16503 0.62857 0.44012 0.0
C2590 C 0.20524 0.69358 0.4091 0.0
C2591 C 0.20915 0.65298 0.42037 0.0
C2592 C 0.2146 0.65899 0.40062 0.0
C2593 C 0.2126 0.67943 0.39498 0.0
N2594 N 0.20189 0.66693 0.43413 0.0
C2595 C 0.19995 0.68701 0.42872 0.0
Co2596 Co 0.34573 0.19202 0.46394 0.0
Co2597 Co 0.34239 0.13991 0.46484 0.0
O2598 O 0.32997 0.16686 0.46131 0.0
C2599 C 0.30954 0.20157 0.49033 0.0
O2600 O 0.31365 0.18571 0.50193 0.0
C2601 C 0.31627 0.13647 0.42732 0.0
O2602 O 0.32339 0.1541 0.42091 0.0
O2603 O 0.36337 0.14643 0.44349 0.0
O2604 O 0.37066 0.17885 0.45194 0.0
H2605 H 0.40076 0.09073 0.47332 0.0
H2606 H 0.30585 0.19284 0.44237 0.0
O2607 O 0.321 0.20606 0.47528 0.0
H2608 H 0.35616 0.21785 0.39211 0.0
H2609 H 0.35592 0.2683 0.46105 0.0
H2610 H 0.38763 0.20204 0.47799 0.0
H2611 H 0.36698 0.20826 0.42689 0.0
H2612 H 0.33661 0.23619 0.45683 0.0
O2613 O 0.32325 0.12847 0.44366 0.0
H2614 H 0.38479 0.12469 0.4696 0.0
H2615 H 0.32598 0.09734 0.46635 0.0
H2616 H 0.40753 0.23377 0.48229 0.0
H2617 H 0.29429 0.2026 0.40787 0.0
H2618 H 0.39168 0.2672 0.47379 0.0
H2619 H 0.31954 0.21512 0.38241 0.0
O2620 O 0.35473 0.18364 0.49187 0.0
H2621 H 0.27146 0.1388 0.49441 0.0
H2622 H 0.3438 0.12162 0.50669 0.0
H2623 H 0.31832 0.11486 0.53361 0.0
H2624 H 0.28183 0.12342 0.52754 0.0
H2625 H 0.29748 0.14549 0.46798 0.0
H2626 H 0.34133 0.06308 0.46987 0.0
H2627 H 0.37897 0.05963 0.47348 0.0
O2628 O 0.36124 0.15033 0.48685 0.0
C2629 C 0.37477 0.16228 0.44247 0.0
C2630 C 0.38433 0.09204 0.47182 0.0
C2631 C 0.35098 0.07652 0.46985 0.0
N2632 N 0.35447 0.11301 0.46787 0.0
C2633 C 0.3752 0.11123 0.46975 0.0
C2634 C 0.34238 0.09596 0.46779 0.0
C2635 C 0.3721 0.0746 0.47188 0.0
C2636 C 0.31691 0.19848 0.43147 0.0
N2637 N 0.3371 0.19994 0.43666 0.0
C2638 C 0.31028 0.20389 0.41191 0.0
C2639 C 0.32446 0.21088 0.39763 0.0
C2640 C 0.34501 0.21238 0.40305 0.0
C2641 C 0.35108 0.20682 0.42274 0.0
C2642 C 0.36301 0.25382 0.46477 0.0
C2643 C 0.38066 0.21652 0.47415 0.0
C2644 C 0.35214 0.23558 0.46246 0.0
N2645 N 0.36104 0.21724 0.46702 0.0
C2646 C 0.39199 0.23444 0.47667 0.0
C2647 C 0.38307 0.25319 0.47191 0.0
C2648 C 0.36253 0.16665 0.49754 0.0
C2649 C 0.2873 0.13496 0.49723 0.0
C2650 C 0.32799 0.12549 0.50395 0.0
C2651 C 0.31361 0.12156 0.51924 0.0
C2652 C 0.29314 0.12636 0.51582 0.0
N2653 N 0.32216 0.1339 0.48574 0.0
C2654 C 0.30211 0.13866 0.48229 0.0
Co2655 Co 0.14309 0.34281 0.5427 0.0
Co2656 Co 0.19526 0.3451 0.54347 0.0
O2657 O 0.1698 0.32992 0.54619 0.0
C2658 C 0.13948 0.31734 0.58057 0.0
O2659 O 0.15674 0.32516 0.58718 0.0
C2660 C 0.20407 0.30874 0.51705 0.0
O2661 O 0.18841 0.31329 0.50535 0.0
O2662 O 0.187 0.35422 0.51556 0.0
O2663 O 0.15377 0.36133 0.52051 0.0
H2664 H 0.23834 0.40591 0.52488 0.0
H2665 H 0.14791 0.29779 0.53977 0.0
O2666 O 0.13153 0.3239 0.56404 0.0
H2667 H 0.11714 0.31881 0.47427 0.0
H2668 H 0.06621 0.34304 0.53827 0.0
H2669 H 0.12857 0.38542 0.53761 0.0
H2670 H 0.12455 0.34431 0.50099 0.0
H2671 H 0.10023 0.32714 0.5417 0.0
O2672 O 0.20872 0.32003 0.53218 0.0
H2673 H 0.20618 0.38672 0.52928 0.0
H2674 H 0.23923 0.33501 0.55053 0.0
H2675 H 0.09487 0.40194 0.53397 0.0
H2676 H 0.14056 0.27175 0.51355 0.0
H2677 H 0.06339 0.3807 0.53428 0.0
H2678 H 0.12511 0.28221 0.48049 0.0
O2679 O 0.15008 0.36388 0.56387 0.0
H2680 H 0.20428 0.2936 0.59977 0.0
H2681 H 0.21219 0.366 0.58042 0.0
H2682 H 0.22138 0.35503 0.61527 0.0
H2683 H 0.21751 0.31857 0.62513 0.0
H2684 H 0.19498 0.3053 0.56518 0.0
H2685 H 0.27175 0.3536 0.54621 0.0
H2686 H 0.27143 0.38934 0.53338 0.0
O2687 O 0.18269 0.37033 0.55542 0.0
C2688 C 0.17013 0.36227 0.50982 0.0
C2689 C 0.23867 0.39036 0.53054 0.0
C2690 C 0.25743 0.361 0.54249 0.0
N2691 N 0.22081 0.35983 0.54031 0.0
C2692 C 0.22051 0.37944 0.53312 0.0
C2693 C 0.23896 0.35054 0.54486 0.0
C2694 C 0.25724 0.38105 0.5353 0.0
C2695 C 0.14105 0.30246 0.52549 0.0
N2696 N 0.13661 0.32257 0.52197 0.0
C2697 C 0.13698 0.28765 0.51067 0.0
C2698 C 0.12833 0.29353 0.49212 0.0
C2699 C 0.12387 0.31406 0.48861 0.0
C2700 C 0.12816 0.32845 0.50379 0.0
C2701 C 0.07982 0.35246 0.53809 0.0
C2702 C 0.11495 0.37607 0.53767 0.0
C2703 C 0.09912 0.34355 0.54009 0.0
N2704 N 0.11637 0.35534 0.53975 0.0
C2705 C 0.0959 0.38551 0.53564 0.0
C2706 C 0.07824 0.37359 0.53584 0.0
C2707 C 0.1662 0.37493 0.5648 0.0
C2708 C 0.20608 0.30952 0.59565 0.0
C2709 C 0.21027 0.35016 0.58463 0.0
C2710 C 0.2156 0.34401 0.60437 0.0
C2711 C 0.21346 0.32354 0.60988 0.0
N2712 N 0.203 0.33633 0.57076 0.0
C2713 C 0.20092 0.31623 0.57605 0.0
Co2714 Co 0.65821 0.1912 0.53895 0.0
Co2715 Co 0.66198 0.13882 0.53905 0.0
O2716 O 0.6743 0.16609 0.54181 0.0
C2717 C 0.69852 0.20013 0.51787 0.0
O2718 O 0.70266 0.18061 0.51611 0.0
C2719 C 0.68796 0.13661 0.57668 0.0
O2720 O 0.6804 0.15419 0.5827 0.0
O2721 O 0.64103 0.14555 0.56034 0.0
O2722 O 0.63388 0.17799 0.55207 0.0
H2723 H 0.60386 0.08913 0.53183 0.0
H2724 H 0.69862 0.19259 0.5596 0.0
O2725 O 0.68182 0.20605 0.52596 0.0
H2726 H 0.64946 0.21872 0.61038 0.0
H2727 H 0.64623 0.26729 0.54068 0.0
H2728 H 0.61581 0.19997 0.52564 0.0
H2729 H 0.63784 0.20828 0.57611 0.0
H2730 H 0.66638 0.23575 0.54514 0.0
O2731 O 0.68118 0.12808 0.56053 0.0
H2732 H 0.61966 0.12325 0.53469 0.0
H2733 H 0.6786 0.0963 0.53868 0.0
H2734 H 0.59507 0.23112 0.52113 0.0
H2735 H 0.71096 0.20318 0.59356 0.0
H2736 H 0.61027 0.26509 0.52867 0.0
H2737 H 0.68629 0.21628 0.61927 0.0
O2738 O 0.64879 0.18206 0.51153 0.0
H2739 H 0.73322 0.13396 0.51047 0.0
H2740 H 0.66027 0.12055 0.49724 0.0
H2741 H 0.68572 0.11221 0.47077 0.0
H2742 H 0.72253 0.11883 0.47733 0.0
H2743 H 0.70721 0.14248 0.53634 0.0
H2744 H 0.66343 0.06189 0.53601 0.0
H2745 H 0.62581 0.05814 0.53247 0.0
O2746 O 0.64297 0.14864 0.51683 0.0
C2747 C 0.62973 0.16143 0.5615 0.0
C2748 C 0.62028 0.09056 0.53331 0.0
C2749 C 0.65371 0.07527 0.53569 0.0
N2750 N 0.65003 0.11177 0.53674 0.0
C2751 C 0.62931 0.10984 0.53489 0.0
C2752 C 0.66221 0.0948 0.53725 0.0
C2753 C 0.6326 0.07318 0.53369 0.0
C2754 C 0.68781 0.19854 0.57056 0.0
N2755 N 0.66753 0.19991 0.56578 0.0
C2756 C 0.69489 0.2044 0.58984 0.0
C2757 C 0.68103 0.21171 0.60427 0.0
C2758 C 0.66036 0.21305 0.5993 0.0
C2759 C 0.65385 0.20703 0.57989 0.0
C2760 C 0.63942 0.25257 0.53738 0.0
C2761 C 0.62251 0.21468 0.52906 0.0
C2762 C 0.65077 0.23465 0.53983 0.0
N2763 N 0.64224 0.21601 0.53578 0.0
C2764 C 0.6107 0.23227 0.52643 0.0
C2765 C 0.61924 0.25133 0.53064 0.0
C2766 C 0.64126 0.16489 0.50608 0.0
C2767 C 0.71723 0.13101 0.50741 0.0
C2768 C 0.67619 0.12378 0.50011 0.0
C2769 C 0.69057 0.11888 0.48511 0.0
C2770 C 0.71122 0.12255 0.48882 0.0
N2771 N 0.68218 0.13217 0.51829 0.0
C2772 C 0.70242 0.13572 0.52206 0.0
Co2773 Co 0.34546 0.81093 0.54234 0.0
Co2774 Co 0.34178 0.86298 0.54178 0.0
O2775 O 0.32958 0.83595 0.54517 0.0
C2776 C 0.30912 0.80125 0.51617 0.0
O2777 O 0.31309 0.81708 0.50449 0.0
C2778 C 0.31624 0.86595 0.57967 0.0
O2779 O 0.3245 0.84892 0.58631 0.0
O2780 O 0.36291 0.85647 0.563 0.0
O2781 O 0.37039 0.82416 0.55427 0.0
H2782 H 0.3997 0.91271 0.53336 0.0
H2783 H 0.30574 0.81011 0.56421 0.0
O2784 O 0.32073 0.79682 0.53113 0.0
H2785 H 0.35634 0.78483 0.61402 0.0
H2786 H 0.35604 0.7347 0.54483 0.0
H2787 H 0.38733 0.8012 0.52801 0.0
H2788 H 0.36693 0.79444 0.57916 0.0
H2789 H 0.3366 0.76669 0.54931 0.0
O2790 O 0.32252 0.87401 0.56307 0.0
H2791 H 0.38403 0.8786 0.5369 0.0
H2792 H 0.32502 0.90543 0.54079 0.0
H2793 H 0.40737 0.76959 0.52344 0.0
H2794 H 0.29441 0.80037 0.5988 0.0
H2795 H 0.39172 0.73603 0.53188 0.0
H2796 H 0.31981 0.78771 0.62402 0.0
O2797 O 0.35427 0.81953 0.51441 0.0
H2798 H 0.27077 0.86378 0.5124 0.0
H2799 H 0.34296 0.88163 0.50009 0.0
H2800 H 0.31737 0.88844 0.47329 0.0
H2801 H 0.28095 0.87954 0.47939 0.0
H2802 H 0.2969 0.85705 0.5387 0.0
H2803 H 0.34007 0.93984 0.53745 0.0
H2804 H 0.37766 0.94364 0.53362 0.0
O2805 O 0.36065 0.85285 0.51963 0.0
C2806 C 0.37444 0.84068 0.56384 0.0
C2807 C 0.3833 0.91126 0.53497 0.0
C2808 C 0.34983 0.92648 0.5373 0.0
N2809 N 0.35363 0.89001 0.53893 0.0
C2810 C 0.37433 0.89198 0.53693 0.0
C2811 C 0.34141 0.90696 0.53924 0.0
C2812 C 0.37092 0.9286 0.53514 0.0
C2813 C 0.31686 0.80442 0.57502 0.0
N2814 N 0.337 0.80288 0.56964 0.0
C2815 C 0.31036 0.79901 0.59462 0.0
C2816 C 0.32463 0.79194 0.60877 0.0
C2817 C 0.34513 0.79036 0.60318 0.0
C2818 C 0.35106 0.79592 0.58344 0.0
C2819 C 0.36304 0.74923 0.54113 0.0
C2820 C 0.38045 0.78666 0.53182 0.0
C2821 C 0.35209 0.7674 0.54359 0.0
N2822 N 0.36088 0.78581 0.53907 0.0
C2823 C 0.39185 0.76881 0.52915 0.0
C2824 C 0.38306 0.74999 0.53387 0.0
C2825 C 0.36198 0.83661 0.50883 0.0
C2826 C 0.28658 0.86777 0.50958 0.0
C2827 C 0.32718 0.87762 0.50283 0.0
C2828 C 0.31274 0.88157 0.48762 0.0
C2829 C 0.29231 0.87659 0.49105 0.0
N2830 N 0.32145 0.869 0.52098 0.0
C2831 C 0.30145 0.86405 0.52444 0.0
H2832 H 0.10004 0.43198 0.30171 0.0
H2833 H 0.07073 0.4028 0.20503 0.0
H2834 H 0.15301 0.39362 0.293 0.0
H2835 H 0.10736 0.34874 0.21444 0.0
H2836 H 0.08467 0.41733 0.2362 0.0
H2837 H 0.08528 0.41818 0.27058 0.0
C2838 C 0.10863 0.42066 0.29322 0.0
C2839 C 0.12792 0.41412 0.3 0.0
C2840 C 0.08948 0.40215 0.23176 0.0
C2841 C 0.11131 0.39867 0.26349 0.0
C2842 C 0.08169 0.39392 0.21369 0.0
C2843 C 0.0877 0.3744 0.20709 0.0
C2844 C 0.10332 0.39077 0.24363 0.0
C2845 C 0.10221 0.36382 0.21893 0.0
C2846 C 0.10028 0.41295 0.27517 0.0
C2847 C 0.13812 0.39917 0.28837 0.0
N2848 N 0.10949 0.37211 0.23664 0.0
N2849 N 0.12972 0.39199 0.27067 0.0
H2850 H 0.65281 0.11229 0.2084 0.0
H2851 H 0.56633 0.10322 0.29491 0.0
H2852 H 0.60258 0.06951 0.20682 0.0
H2853 H 0.61046 0.1523 0.29411 0.0
H2854 H 0.58109 0.08986 0.26352 0.0
H2855 H 0.6388 0.12676 0.24012 0.0
C2856 C 0.63877 0.10606 0.21457 0.0
C2857 C 0.62887 0.08966 0.20481 0.0
C2858 C 0.58764 0.10352 0.27018 0.0
C2859 C 0.61293 0.10596 0.24129 0.0
C2860 C 0.57926 0.11115 0.28825 0.0
C2861 C 0.58714 0.12896 0.2973 0.0
C2862 C 0.60415 0.11366 0.2609 0.0
C2863 C 0.6039 0.1385 0.28776 0.0
C2864 C 0.63083 0.11428 0.23273 0.0
C2865 C 0.61078 0.08214 0.21367 0.0
N2866 N 0.61183 0.13075 0.27008 0.0
N2867 N 0.60351 0.09027 0.23135 0.0
H2868 H 0.93682 0.60312 0.20532 0.0
H2869 H 0.85346 0.61167 0.29496 0.0
H2870 H 0.89407 0.65325 0.20924 0.0
H2871 H 0.90181 0.5668 0.29303 0.0
H2872 H 0.86691 0.62677 0.2633 0.0
H2873 H 0.92259 0.58894 0.23661 0.0
C2874 C 0.9243 0.61111 0.21264 0.0
C2875 C 0.91665 0.62946 0.20449 0.0
C2876 C 0.8746 0.61368 0.2699 0.0
C2877 C 0.90026 0.61321 0.24079 0.0
C2878 C 0.86698 0.60509 0.28803 0.0
C2879 C 0.87652 0.58793 0.2968 0.0
C2880 C 0.89182 0.605 0.26037 0.0
C2881 C 0.89392 0.58002 0.28697 0.0
C2882 C 0.91622 0.60301 0.23066 0.0
C2883 C 0.90043 0.63905 0.21487 0.0
N2884 N 0.9009 0.58854 0.26934 0.0
N2885 N 0.8928 0.63083 0.23248 0.0
H2886 H 0.43634 0.90245 0.29895 0.0
H2887 H 0.35356 0.89256 0.20896 0.0
H2888 H 0.39423 0.85178 0.29506 0.0
H2889 H 0.40163 0.93775 0.21077 0.0
H2890 H 0.36697 0.87776 0.24077 0.0
H2891 H 0.42212 0.91629 0.2675 0.0
C2892 C 0.42396 0.89427 0.2916 0.0
C2893 C 0.41649 0.87587 0.2998 0.0
C2894 C 0.37461 0.89085 0.23412 0.0
C2895 C 0.40012 0.89173 0.26333 0.0
C2896 C 0.36701 0.89927 0.2159 0.0
C2897 C 0.37648 0.91643 0.20705 0.0
C2898 C 0.39172 0.89971 0.24365 0.0
C2899 C 0.39379 0.92452 0.21689 0.0
C2900 C 0.41589 0.90218 0.2735 0.0
C2901 C 0.40045 0.86603 0.28939 0.0
N2902 N 0.40074 0.91617 0.23461 0.0
N2903 N 0.39282 0.87405 0.27169 0.0
H2904 H 0.15303 0.61315 0.70784 0.0
H2905 H 0.06695 0.60271 0.79469 0.0
H2906 H 0.10406 0.56891 0.70686 0.0
H2907 H 0.11142 0.65148 0.79446 0.0
H2908 H 0.08167 0.58957 0.76316 0.0
H2909 H 0.13895 0.62725 0.73967 0.0
C2910 C 0.13923 0.60652 0.71416 0.0
C2911 C 0.12972 0.58982 0.70454 0.0
C2912 C 0.08831 0.60311 0.76998 0.0
C2913 C 0.11369 0.60572 0.74115 0.0
C2914 C 0.07995 0.6106 0.78812 0.0
C2915 C 0.08795 0.62826 0.79738 0.0
C2916 C 0.10489 0.61325 0.76083 0.0
C2917 C 0.10478 0.63778 0.78796 0.0
C2918 C 0.13126 0.61453 0.7324 0.0
C2919 C 0.11196 0.58179 0.7136 0.0
N2920 N 0.11267 0.63019 0.7702 0.0
N2921 N 0.10462 0.58975 0.73134 0.0
H2922 H 0.34958 0.11199 0.79545 0.0
H2923 H 0.39391 0.15611 0.70805 0.0
H2924 H 0.40195 0.0719 0.79521 0.0
H2925 H 0.4343 0.10396 0.70877 0.0
H2926 H 0.37833 0.14403 0.73965 0.0
H2927 H 0.36176 0.1275 0.76385 0.0
C2928 C 0.36384 0.10666 0.78893 0.0
C2929 C 0.37478 0.09067 0.79819 0.0
C2930 C 0.39031 0.13493 0.73285 0.0
C2931 C 0.38912 0.10854 0.7617 0.0
C2932 C 0.39929 0.14192 0.71468 0.0
C2933 C 0.41539 0.13101 0.70555 0.0
C2934 C 0.39743 0.11679 0.74204 0.0
C2935 C 0.42188 0.11288 0.7151 0.0
C2936 C 0.37088 0.1156 0.77076 0.0
C2937 C 0.393 0.08424 0.78877 0.0
N2938 N 0.41295 0.10644 0.73276 0.0
N2939 N 0.3995 0.09312 0.77111 0.0
H2940 H 0.85294 0.39427 0.70974 0.0
H2941 H 0.93766 0.40374 0.79796 0.0
H2942 H 0.90169 0.43877 0.7102 0.0
H2943 H 0.8945 0.35387 0.79555 0.0
H2944 H 0.92307 0.41748 0.76663 0.0
H2945 H 0.86673 0.37959 0.74145 0.0
C2946 C 0.86661 0.40086 0.71636 0.0
C2947 C 0.87616 0.41778 0.70717 0.0
C2948 C 0.9167 0.40356 0.77293 0.0
C2949 C 0.89185 0.40121 0.74363 0.0
C2950 C 0.92498 0.39572 0.79096 0.0
C2951 C 0.91732 0.37758 0.79954 0.0
C2952 C 0.90052 0.3933 0.76322 0.0
C2953 C 0.90088 0.36792 0.78958 0.0
C2954 C 0.87443 0.3925 0.73452 0.0
C2955 C 0.89377 0.42572 0.7166 0.0
N2956 N 0.89305 0.37587 0.77194 0.0
N2957 N 0.90094 0.41744 0.73426 0.0
H2958 H 0.65217 0.8922 0.79584 0.0
H2959 H 0.56669 0.9026 0.70845 0.0
H2960 H 0.60364 0.93691 0.79611 0.0
H2961 H 0.61089 0.8536 0.70922 0.0
H2962 H 0.58135 0.9159 0.73993 0.0
H2963 H 0.63821 0.87798 0.76401 0.0
C2964 C 0.6385 0.89892 0.78936 0.0
C2965 C 0.62907 0.91578 0.79878 0.0
C2966 C 0.58795 0.90227 0.73324 0.0
C2967 C 0.61318 0.89974 0.76218 0.0
C2968 C 0.57961 0.89468 0.71513 0.0
C2969 C 0.58755 0.87692 0.70605 0.0
C2970 C 0.60443 0.89211 0.74253 0.0
C2971 C 0.6043 0.86737 0.71559 0.0
C2972 C 0.63059 0.89084 0.77113 0.0
C2973 C 0.61147 0.92391 0.78952 0.0
N2974 N 0.61216 0.87506 0.73332 0.0
N2975 N 0.60419 0.91588 0.77179 0.0
H2976 H 0.20335 0.06997 0.40513 0.0
H2977 H 0.2997 0.09897 0.43523 0.0
H2978 H 0.21391 0.10551 0.35056 0.0
H2979 H 0.29176 0.15178 0.39648 0.0
H2980 H 0.26871 0.08426 0.42107 0.0
H2981 H 0.23425 0.08414 0.41999 0.0
C2982 C 0.21221 0.08074 0.3962 0.0
C2983 C 0.20603 0.08636 0.37643 0.0
C2984 C 0.27344 0.09922 0.41583 0.0
C2985 C 0.24226 0.10223 0.39321 0.0
C2986 C 0.2914 0.10755 0.42375 0.0
C2987 C 0.29834 0.12678 0.41721 0.0
C2988 C 0.26201 0.11022 0.40133 0.0
C2989 C 0.28697 0.13695 0.40204 0.0
C2990 C 0.23011 0.08866 0.40463 0.0
C2991 C 0.21809 0.10067 0.36582 0.0
N2992 N 0.26934 0.12857 0.39465 0.0
N2993 N 0.23566 0.10807 0.37431 0.0
H2994 H 0.85212 0.29604 0.39421 0.0
H2995 H 0.93747 0.20848 0.40415 0.0
H2996 H 0.90078 0.29599 0.43878 0.0
H2997 H 0.89416 0.21011 0.3544 0.0
H2998 H 0.92267 0.23979 0.41766 0.0
H2999 H 0.86613 0.26435 0.37965 0.0
C3000 C 0.86582 0.28951 0.40083 0.0
C3001 C 0.87528 0.29881 0.41775 0.0
C3002 C 0.91631 0.23333 0.40381 0.0
C3003 C 0.89122 0.26239 0.40133 0.0
C3004 C 0.92472 0.21531 0.3961 0.0
C3005 C 0.91707 0.20652 0.37806 0.0
C3006 C 0.90002 0.24282 0.39352 0.0
C3007 C 0.90053 0.21626 0.36837 0.0
C3008 C 0.87376 0.27137 0.39255 0.0
C3009 C 0.89293 0.2895 0.42574 0.0
N3010 N 0.89257 0.2339 0.3762 0.0
N3011 N 0.90022 0.27187 0.41753 0.0
H3012 H 0.70885 0.84882 0.39412 0.0
H3013 H 0.79584 0.89383 0.34955 0.0
H3014 H 0.70887 0.9014 0.43394 0.0
H3015 H 0.79462 0.93443 0.40151 0.0
H3016 H 0.76443 0.87789 0.36174 0.0
H3017 H 0.74027 0.86122 0.37835 0.0
C3018 C 0.71528 0.86316 0.39934 0.0
C3019 C 0.70604 0.8741 0.41534 0.0
C3020 C 0.77108 0.89001 0.37076 0.0
C3021 C 0.74227 0.88866 0.39719 0.0
C3022 C 0.78914 0.89919 0.36372 0.0
C3023 C 0.79805 0.91546 0.37454 0.0
C3024 C 0.76182 0.89711 0.38887 0.0
C3025 C 0.78844 0.92191 0.39264 0.0
C3026 C 0.73334 0.87032 0.39026 0.0
C3027 C 0.71532 0.89243 0.42162 0.0
N3028 N 0.7709 0.91279 0.39913 0.0
N3029 N 0.73286 0.89903 0.41261 0.0
H3030 H 0.11015 0.79534 0.35181 0.0
H3031 H 0.10273 0.706 0.43551 0.0
H3032 H 0.06696 0.79427 0.40171 0.0
H3033 H 0.15188 0.70926 0.39156 0.0
H3034 H 0.08859 0.73742 0.42157 0.0
H3035 H 0.1252 0.76348 0.36482 0.0
C3036 C 0.10394 0.78856 0.36558 0.0
C3037 C 0.08727 0.79762 0.37569 0.0
C3038 C 0.10243 0.73129 0.41488 0.0
C3039 C 0.10425 0.76097 0.39047 0.0
C3040 C 0.11051 0.71321 0.42279 0.0
C3041 C 0.12858 0.70484 0.41472 0.0
C3042 C 0.11238 0.74129 0.39868 0.0
C3043 C 0.13789 0.71506 0.39825 0.0
C3044 C 0.1125 0.77031 0.37294 0.0
C3045 C 0.0798 0.78797 0.39338 0.0
N3046 N 0.12972 0.73276 0.39079 0.0
N3047 N 0.08827 0.77023 0.4001 0.0
H3048 H 0.20653 0.93545 0.60331 0.0
H3049 H 0.29588 0.85209 0.61401 0.0
H3050 H 0.20999 0.89375 0.65435 0.0
H3051 H 0.29438 0.89977 0.56841 0.0
H3052 H 0.26413 0.86583 0.62868 0.0
H3053 H 0.23786 0.92084 0.58963 0.0
C3054 C 0.21376 0.92308 0.61161 0.0
C3055 C 0.20548 0.91585 0.63006 0.0
C3056 C 0.27085 0.87331 0.61553 0.0
C3057 C 0.24181 0.89902 0.6144 0.0
C3058 C 0.28902 0.86552 0.60718 0.0
C3059 C 0.29794 0.87479 0.58995 0.0
C3060 C 0.26143 0.89041 0.60651 0.0
C3061 C 0.28821 0.89208 0.5817 0.0
C3062 C 0.23179 0.91478 0.6038 0.0
C3063 C 0.21573 0.89979 0.64005 0.0
N3064 N 0.27054 0.89923 0.58998 0.0
N3065 N 0.23337 0.89194 0.63212 0.0
H3066 H 0.0681 0.2086 0.60343 0.0
H3067 H 0.15331 0.29619 0.61442 0.0
H3068 H 0.11105 0.21012 0.6535 0.0
H3069 H 0.10501 0.29641 0.56945 0.0
H3070 H 0.13915 0.26447 0.62871 0.0
H3071 H 0.08294 0.24001 0.59016 0.0
C3072 C 0.08079 0.21542 0.6116 0.0
C3073 C 0.08832 0.20656 0.62965 0.0
C3074 C 0.13163 0.27155 0.61579 0.0
C3075 C 0.1054 0.24299 0.61447 0.0
C3076 C 0.13965 0.28972 0.60766 0.0
C3077 C 0.13034 0.29911 0.5907 0.0
C3078 C 0.11424 0.26261 0.60683 0.0
C3079 C 0.11275 0.28986 0.58253 0.0
C3080 C 0.08921 0.2335 0.60402 0.0
C3081 C 0.10477 0.21631 0.6395 0.0
N3082 N 0.10538 0.27218 0.5906 0.0
N3083 N 0.11274 0.234 0.63181 0.0
H3084 H 0.79638 0.11254 0.65114 0.0
H3085 H 0.70767 0.10099 0.56726 0.0
H3086 H 0.79548 0.0668 0.60358 0.0
H3087 H 0.7102 0.15185 0.60923 0.0
H3088 H 0.73906 0.08764 0.582 0.0
H3089 H 0.7646 0.12693 0.63719 0.0
C3090 C 0.78965 0.10563 0.63768 0.0
C3091 C 0.79873 0.08843 0.62852 0.0
C3092 C 0.73278 0.10169 0.58809 0.0
C3093 C 0.76219 0.10466 0.61268 0.0
C3094 C 0.71472 0.10932 0.57971 0.0
C3095 C 0.70616 0.12762 0.58699 0.0
C3096 C 0.74256 0.11235 0.60396 0.0
C3097 C 0.71616 0.13766 0.60316 0.0
C3098 C 0.77145 0.11381 0.62979 0.0
C3099 C 0.78916 0.08007 0.6112 0.0
N3100 N 0.73385 0.12992 0.61108 0.0
N3101 N 0.77148 0.08819 0.60395 0.0
H3102 H 0.9033 0.70843 0.56633 0.0
H3103 H 0.89172 0.79639 0.65101 0.0
H3104 H 0.85286 0.71012 0.60886 0.0
H3105 H 0.9369 0.79639 0.6029 0.0
H3106 H 0.87751 0.76458 0.63696 0.0
H3107 H 0.91645 0.73989 0.58112 0.0
C3108 C 0.89502 0.71531 0.57891 0.0
C3109 C 0.8769 0.70649 0.58633 0.0
C3110 C 0.89046 0.77164 0.62946 0.0
C3111 C 0.89194 0.74296 0.60338 0.0
C3112 C 0.89854 0.78985 0.63741 0.0
C3113 C 0.91554 0.7992 0.62813 0.0
C3114 C 0.89951 0.76262 0.61216 0.0
C3115 C 0.9238 0.78987 0.61062 0.0
C3116 C 0.90253 0.73341 0.58732 0.0
C3117 C 0.86691 0.71629 0.60267 0.0
N3118 N 0.91578 0.77216 0.60331 0.0
N3119 N 0.87454 0.73401 0.61062 0.0
H3120 H 0.43258 0.30221 0.09935 0.0
H3121 H 0.40499 0.20543 0.06923 0.0
H3122 H 0.39783 0.2908 0.15427 0.0
H3123 H 0.35245 0.21231 0.10856 0.0
H3124 H 0.41928 0.23664 0.08332 0.0
H3125 H 0.41879 0.27111 0.08452 0.0
C3126 C 0.42206 0.29313 0.10836 0.0
C3127 C 0.41655 0.29913 0.12822 0.0
C3128 C 0.40447 0.23163 0.0887 0.0
C3129 C 0.40115 0.26268 0.11147 0.0
C3130 C 0.39638 0.21354 0.08082 0.0
C3131 C 0.37735 0.20622 0.08755 0.0
C3132 C 0.39342 0.24281 0.10336 0.0
C3133 C 0.36714 0.21737 0.10285 0.0
C3134 C 0.41437 0.27511 0.09994 0.0
C3135 C 0.40258 0.28677 0.13894 0.0
N3136 N 0.37527 0.23513 0.11021 0.0
N3137 N 0.3954 0.26911 0.13045 0.0
H3138 H 0.40541 0.80089 0.93383 0.0
H3139 H 0.4341 0.70428 0.90378 0.0
H3140 H 0.35146 0.79218 0.89688 0.0
H3141 H 0.39585 0.71357 0.85085 0.0
H3142 H 0.4205 0.73541 0.91872 0.0
H3143 H 0.4198 0.76975 0.91965 0.0
C3144 C 0.39652 0.79239 0.92275 0.0
C3145 C 0.37707 0.79917 0.91671 0.0
C3146 C 0.41525 0.73096 0.90369 0.0
C3147 C 0.39326 0.76266 0.90084 0.0
C3148 C 0.42285 0.71291 0.89523 0.0
C3149 C 0.41628 0.70629 0.8759 0.0
C3150 C 0.40106 0.7428 0.89272 0.0
C3151 C 0.40142 0.71808 0.86576 0.0
C3152 C 0.40467 0.77434 0.91482 0.0
C3153 C 0.36648 0.78754 0.90204 0.0
N3154 N 0.39435 0.73578 0.87426 0.0
N3155 N 0.37469 0.76983 0.89465 0.0
H3156 H 0.29626 0.39264 0.8536 0.0
H3157 H 0.20873 0.40204 0.93908 0.0
H3158 H 0.29585 0.43757 0.90193 0.0
H3159 H 0.20984 0.35329 0.89462 0.0
H3160 H 0.24008 0.41569 0.92445 0.0
H3161 H 0.26458 0.37807 0.86757 0.0
C3162 C 0.28966 0.39933 0.86723 0.0
C3163 C 0.29884 0.41636 0.8766 0.0
C3164 C 0.23349 0.40204 0.9178 0.0
C3165 C 0.26242 0.39991 0.8925 0.0
C3166 C 0.21546 0.39425 0.92612 0.0
C3167 C 0.20651 0.37645 0.91809 0.0
C3168 C 0.24285 0.39205 0.90124 0.0
C3169 C 0.21611 0.36708 0.90128 0.0
C3170 C 0.27151 0.39105 0.87514 0.0
C3171 C 0.28944 0.42444 0.89415 0.0
N3172 N 0.23377 0.37496 0.89344 0.0
N3173 N 0.2718 0.41621 0.90143 0.0
H3174 H 0.60334 0.20717 0.93621 0.0
H3175 H 0.61158 0.29567 0.85166 0.0
H3176 H 0.65243 0.20952 0.89216 0.0
H3177 H 0.56814 0.29528 0.90135 0.0
H3178 H 0.62639 0.26383 0.86504 0.0
H3179 H 0.58948 0.2386 0.92199 0.0
C3180 C 0.61116 0.21418 0.92341 0.0
C3181 C 0.62913 0.20556 0.9154 0.0
C3182 C 0.61368 0.27081 0.87303 0.0
C3183 C 0.61326 0.24201 0.89902 0.0
C3184 C 0.60526 0.28904 0.86546 0.0
C3185 C 0.58859 0.29829 0.87539 0.0
C3186 C 0.60529 0.26168 0.8906 0.0
C3187 C 0.58099 0.28884 0.89314 0.0
C3188 C 0.60325 0.23227 0.91534 0.0
C3189 C 0.63852 0.21553 0.89881 0.0
N3190 N 0.58932 0.27111 0.90007 0.0
N3191 N 0.63051 0.23323 0.8912 0.0
H3192 H 0.70681 0.5692 0.90162 0.0
H3193 H 0.796 0.65269 0.89033 0.0
H3194 H 0.70981 0.61106 0.85068 0.0
H3195 H 0.79486 0.60501 0.93594 0.0
H3196 H 0.76417 0.63891 0.87589 0.0
H3197 H 0.73824 0.58381 0.91507 0.0
C3198 C 0.71396 0.5816 0.8933 0.0
C3199 C 0.70552 0.58889 0.87494 0.0
C3200 C 0.77098 0.63144 0.889 0.0
C3201 C 0.74197 0.6057 0.89034 0.0
C3202 C 0.78921 0.63924 0.89721 0.0
C3203 C 0.79825 0.62999 0.91438 0.0
C3204 C 0.76164 0.61433 0.89809 0.0
C3205 C 0.78859 0.61269 0.92269 0.0
C3206 C 0.73205 0.5899 0.90098 0.0
C3207 C 0.71568 0.60498 0.86491 0.0
N3208 N 0.77087 0.60553 0.91454 0.0
N3209 N 0.73337 0.61282 0.87271 0.0
H3210 H 0.61003 0.70965 0.15262 0.0
H3211 H 0.60148 0.79739 0.06732 0.0
H3212 H 0.5661 0.70985 0.10338 0.0
H3213 H 0.65039 0.79571 0.11159 0.0
H3214 H 0.58766 0.76608 0.08185 0.0
H3215 H 0.62476 0.74138 0.13893 0.0
C3216 C 0.60359 0.71621 0.13885 0.0
C3217 C 0.5868 0.70695 0.12914 0.0
C3218 C 0.60138 0.77253 0.08849 0.0
C3219 C 0.60342 0.74343 0.11356 0.0
C3220 C 0.60927 0.79055 0.08023 0.0
C3221 C 0.62717 0.79932 0.08823 0.0
C3222 C 0.61136 0.76302 0.10495 0.0
C3223 C 0.63652 0.78958 0.10496 0.0
C3224 C 0.61196 0.73438 0.1311 0.0
C3225 C 0.57904 0.71631 0.11143 0.0
N3226 N 0.62854 0.77194 0.11274 0.0
N3227 N 0.58734 0.73398 0.10431 0.0
H3228 H 0.2068 0.60167 0.06772 0.0
H3229 H 0.29577 0.61276 0.1514 0.0
H3230 H 0.21028 0.65305 0.10898 0.0
H3231 H 0.2941 0.56651 0.10436 0.0
H3232 H 0.26418 0.62747 0.13734 0.0
H3233 H 0.23794 0.58794 0.08266 0.0
C3234 C 0.214 0.61003 0.08006 0.0
C3235 C 0.20579 0.62859 0.08708 0.0
C3236 C 0.27082 0.61416 0.13008 0.0
C3237 C 0.2419 0.61288 0.10427 0.0
C3238 C 0.28891 0.6058 0.13804 0.0
C3239 C 0.29772 0.58837 0.12905 0.0
C3240 C 0.26141 0.60497 0.11308 0.0
C3241 C 0.28799 0.57995 0.11184 0.0
C3242 C 0.23193 0.60219 0.08855 0.0
C3243 C 0.21598 0.63867 0.10311 0.0
N3244 N 0.27042 0.58826 0.10452 0.0
N3245 N 0.23352 0.63071 0.11114 0.0
H3246 H 0.7075 0.43756 0.10056 0.0
H3247 H 0.79648 0.35394 0.11226 0.0
H3248 H 0.71017 0.39564 0.15146 0.0
H3249 H 0.7955 0.40142 0.06644 0.0
H3250 H 0.76464 0.36782 0.12659 0.0
H3251 H 0.73895 0.42289 0.08722 0.0
C3252 C 0.71458 0.42513 0.1089 0.0
C3253 C 0.70604 0.41785 0.12721 0.0
C3254 C 0.77149 0.37522 0.11346 0.0
C3255 C 0.74251 0.40096 0.11195 0.0
C3256 C 0.78972 0.36736 0.10532 0.0
C3257 C 0.7988 0.37653 0.08812 0.0
C3258 C 0.76219 0.3923 0.10428 0.0
C3259 C 0.78919 0.39381 0.07971 0.0
C3260 C 0.73268 0.4168 0.10128 0.0
C3261 C 0.71611 0.40172 0.13726 0.0
N3262 N 0.77147 0.40103 0.0878 0.0
N3263 N 0.73382 0.39384 0.12953 0.0
H3264 H 1.00052 0.2359 0.31213 0.0
H3265 H 0.01477 0.26038 0.19342 0.0
H3266 H 0.98718 0.19317 0.26367 0.0
H3267 H 0.00763 0.30856 0.23792 0.0
H3268 H 0.00825 0.23522 0.22001 0.0
H3269 H 0.00702 0.26244 0.2862 0.0
C3270 C 0.99912 0.23206 0.29609 0.0
C3271 C 0.99329 0.2123 0.29005 0.0
C3272 C 0.00799 0.25128 0.22401 0.0
C3273 C 1.00067 0.24242 0.26049 0.0
C3274 C 0.01174 0.26569 0.20882 0.0
C3275 C 0.01171 0.28663 0.21344 0.0
C3276 C 0.00441 0.25773 0.24415 0.0
C3277 C 0.00764 0.29257 0.23368 0.0
C3278 C 0.00267 0.24722 0.28134 0.0
C3279 C 0.99154 0.2082 0.26906 0.0
N3280 N 0.00429 0.27815 0.24838 0.0
N3281 N 0.99527 0.22306 0.25511 0.0
H3282 H 0.76919 0.0049 0.31169 0.0
H3283 H 0.74006 0.01115 0.19313 0.0
H3284 H 0.80864 0.9852 0.26258 0.0
H3285 H 0.69434 0.01503 0.24056 0.0
H3286 H 0.76586 0.00415 0.21898 0.0
H3287 H 0.74207 0.01161 0.28646 0.0
C3288 C 0.7722 1.00212 0.29564 0.0
C3289 C 0.79121 0.99446 0.28925 0.0
C3290 C 0.75018 0.00641 0.22379 0.0
C3291 C 0.76039 1.00204 0.26046 0.0
C3292 C 0.73541 0.01041 0.20901 0.0
C3293 C 0.71497 0.01365 0.21467 0.0
C3294 C 0.74465 0.00584 0.24452 0.0
C3295 C 0.7099 0.01249 0.23551 0.0
C3296 C 0.75669 0.00581 0.2813 0.0
C3297 C 0.79422 0.99099 0.26828 0.0
N3298 N 0.72468 0.00881 0.24974 0.0
N3299 N 0.77904 0.99486 0.25471 0.0
H3300 H 0.00363 0.69334 0.23291 0.0
H3301 H 0.00844 0.81123 0.2651 0.0
H3302 H 0.98428 0.74332 0.19441 0.0
H3303 H 0.01304 0.76262 0.30948 0.0
H3304 H 1.00185 0.786 0.2386 0.0
H3305 H 0.0099 0.71792 0.26071 0.0
C3306 C 1.00084 0.70944 0.23026 0.0
C3307 C 0.9934 0.71627 0.21131 0.0
C3308 C 0.00418 0.78078 0.25413 0.0
C3309 C 1.00046 0.74433 0.24291 0.0
C3310 C 0.00794 0.79522 0.26931 0.0
C3311 C 0.01128 0.78905 0.28957 0.0
C3312 C 0.00394 0.75989 0.25909 0.0
C3313 C 0.01042 0.76805 0.29408 0.0
C3314 C 0.00428 0.72342 0.24614 0.0
C3315 C 0.98991 0.73729 0.20876 0.0
N3316 N 0.00697 0.75418 0.27891 0.0
N3317 N 0.99351 0.75051 0.22431 0.0
H3318 H 0.19256 0.01312 0.26222 0.0
H3319 H 0.31125 1.00016 0.23671 0.0
H3320 H 0.23762 0.0068 0.30998 0.0
H3321 H 0.26256 0.98625 0.19443 0.0
H3322 H 0.28547 0.00646 0.26345 0.0
H3323 H 0.21899 0.00682 0.23683 0.0
C3324 C 0.20804 0.01032 0.26739 0.0
C3325 C 0.21287 0.01045 0.28828 0.0
C3326 C 0.28053 1.00203 0.24829 0.0
C3327 C 0.24341 0.00341 0.25911 0.0
C3328 C 0.29519 0.99859 0.23302 0.0
C3329 C 0.28905 0.99267 0.21332 0.0
C3330 C 0.25966 0.99981 0.24367 0.0
C3331 C 0.26804 0.99069 0.2094 0.0
C3332 C 0.22315 0.0067 0.25285 0.0
C3333 C 0.23322 0.00668 0.29403 0.0
N3334 N 0.25416 0.99432 0.22437 0.0
N3335 N 0.24783 0.00345 0.2795 0.0
H3336 H 0.04311 0.72646 0.78752 0.0
H3337 H 0.96095 0.78951 0.72589 0.0
H3338 H 0.97954 0.70885 0.78651 0.0
H3339 H 0.02436 0.78828 0.70773 0.0
H3340 H 0.96737 0.76113 0.74926 0.0
H3341 H 0.03669 0.75023 0.75946 0.0
C3342 C 0.02779 0.72751 0.78131 0.0
C3343 C 0.01177 0.71575 0.78946 0.0
C3344 C 0.97984 0.76691 0.74003 0.0
C3345 C 0.00432 0.74315 0.75745 0.0
C3346 C 0.97623 0.78319 0.72674 0.0
C3347 C 0.99221 0.79137 0.71493 0.0
C3348 C 0.99966 0.75897 0.74188 0.0
C3349 C 0.01164 0.78245 0.71656 0.0
C3350 C 0.02419 0.74102 0.76522 0.0
C3351 C 0.9923 0.71764 0.78069 0.0
N3352 N 0.0149 0.7669 0.73003 0.0
N3353 N 0.98904 0.73132 0.76534 0.0
H3354 H 0.1932 0.98869 0.74308 0.0
H3355 H 0.31175 0.00729 0.76602 0.0
H3356 H 0.23671 0.99841 0.69443 0.0
H3357 H 0.26344 0.01573 0.81016 0.0
H3358 H 0.28572 1.0004 0.73968 0.0
H3359 H 0.21996 0.99525 0.76797 0.0
C3360 C 0.20841 0.99228 0.7376 0.0
C3361 C 0.2127 0.99302 0.7166 0.0
C3362 C 0.28092 0.00375 0.75516 0.0
C3363 C 0.24365 1.00043 0.74523 0.0
C3364 C 0.29573 0.00751 0.7702 0.0
C3365 C 0.28975 0.0121 0.79031 0.0
C3366 C 0.26008 0.00431 0.76041 0.0
C3367 C 0.26879 0.01236 0.79486 0.0
C3368 C 0.22372 0.99606 0.75187 0.0
C3369 C 0.23273 0.99782 0.71048 0.0
N3370 N 0.25478 0.00849 0.78009 0.0
N3371 N 0.24755 1.00123 0.72475 0.0
H3372 H 1.00204 0.23586 0.69389 0.0
H3373 H 0.9923 0.26411 0.81233 0.0
H3374 H 0.01908 0.19553 0.74325 0.0
H3375 H 0.99329 0.31064 0.76556 0.0
H3376 H 0.99904 0.23831 0.78642 0.0
H3377 H 0.99535 0.263 0.71912 0.0
C3378 C 0.00423 0.23267 0.70998 0.0
C3379 C 0.01115 0.21341 0.71647 0.0
C3380 C 0.9979 0.25416 0.78176 0.0
C3381 C 0.00358 0.24423 0.74524 0.0
C3382 C 0.99404 0.26893 0.79658 0.0
C3383 C 0.99227 0.28959 0.79112 0.0
C3384 C 0.9998 0.25994 0.76118 0.0
C3385 C 0.99469 0.29489 0.77044 0.0
C3386 C 1.00056 0.24818 0.72433 0.0
C3387 C 0.01387 0.21015 0.7375 0.0
N3388 N 0.9982 0.28012 0.75615 0.0
N3389 N 0.01003 0.22533 0.75107 0.0
H3390 H 0.78987 0.04369 0.72776 0.0
H3391 H 0.72695 0.96129 0.78943 0.0
H3392 H 0.78805 0.98041 0.70918 0.0
H3393 H 0.70965 0.02494 0.78913 0.0
H3394 H 0.75061 0.96787 0.76131 0.0
H3395 H 0.76179 0.03721 0.75152 0.0
C3396 C 0.78349 0.02842 0.72861 0.0
C3397 C 0.79141 0.0125 0.71655 0.0
C3398 C 0.7415 0.98036 0.76724 0.0
C3399 C 0.75937 0.005 0.74393 0.0
C3400 C 0.72805 0.97666 0.78337 0.0
C3401 C 0.71639 0.99265 0.79173 0.0
C3402 C 0.74367 1.00029 0.75964 0.0
C3403 C 0.71835 0.0122 0.78314 0.0
C3404 C 0.76739 0.02479 0.74211 0.0
C3405 C 0.78242 0.9931 0.71819 0.0
N3406 N 0.73197 0.01554 0.76774 0.0
N3407 N 0.76705 0.98981 0.73186 0.0
H3408 H 0.2159 0.29455 0.02628 0.0
H3409 H 0.29682 0.21566 0.97899 0.0
H3410 H 0.21579 0.27687 0.96274 0.0
H3411 H 0.27748 0.21379 0.04204 0.0
H3412 H 0.27246 0.24365 0.97292 0.0
H3413 H 0.24398 0.27034 0.03242 0.0
C3414 C 0.22191 0.28576 0.01361 0.0
C3415 C 0.21338 0.28758 0.99403 0.0
C3416 C 0.2737 0.23715 0.98809 0.0
C3417 C 0.24555 0.26015 1.00086 0.0
C3418 C 0.28762 0.22126 0.99157 0.0
C3419 C 0.28904 0.21227 0.01098 0.0
C3420 C 0.26144 0.24432 0.00423 0.0
C3421 C 0.27673 0.22013 0.02676 0.0
C3422 C 0.23785 0.27191 0.01712 0.0
C3423 C 0.22176 0.27579 0.97813 0.0
N3424 N 0.26349 0.2357 0.02305 0.0
N3425 N 0.23738 0.2626 0.98188 0.0
H3426 H 0.19363 0.74035 0.00814 0.0
H3427 H 0.31164 0.77219 0.00469 0.0
H3428 H 0.24206 0.69597 0.01439 0.0
H3429 H 0.26242 0.80998 0.98224 0.0
H3430 H 0.2868 0.74468 0.0112 0.0
H3431 H 0.21905 0.76663 1.0011 0.0
C3432 C 0.20964 0.73609 0.00791 0.0
C3433 C 0.2157 0.71589 0.01183 0.0
C3434 C 0.28152 0.75902 0.00484 0.0
C3435 C 0.24505 0.74611 0.004 0.0
C3436 C 0.29564 0.77475 1.00125 0.0
C3437 C 0.28911 0.79342 0.9929 0.0
C3438 C 0.26074 0.76213 1.00028 0.0
C3439 C 0.26821 0.79585 0.98861 0.0
C3440 C 0.22417 0.75113 0.00389 0.0
C3441 C 0.2367 0.71132 0.01132 0.0
N3442 N 0.25483 0.78046 0.9924 0.0
N3443 N 0.25065 0.72636 0.00763 0.0
H3444 H 0.78951 0.27781 0.0433 0.0
H3445 H 0.72691 0.21576 0.96102 0.0
H3446 H 0.78801 0.29603 0.97993 0.0
H3447 H 0.70945 0.21628 0.02462 0.0
H3448 H 0.75046 0.24399 0.96753 0.0
H3449 H 0.76139 0.2541 0.03686 0.0
C3450 C 0.78318 0.2769 0.02802 0.0
C3451 C 0.79121 0.28883 0.01207 0.0
C3452 C 0.74134 0.23809 0.98002 0.0
C3453 C 0.75912 0.26151 0.0046 0.0
C3454 C 0.72795 0.2219 0.97636 0.0
C3455 C 0.71629 0.21356 0.99236 0.0
C3456 C 0.74344 0.24578 0.99991 0.0
C3457 C 0.71816 0.22225 0.01187 0.0
C3458 C 0.76706 0.26342 0.02441 0.0
C3459 C 0.78229 0.28712 0.99264 0.0
N3460 N 0.73172 0.23771 0.01517 0.0
N3461 N 0.7669 0.27347 0.98938 0.0
H3462 H 0.79007 0.7284 0.96045 0.0
H3463 H 0.72599 0.78853 0.04317 0.0
H3464 H 0.7881 0.70906 0.02348 0.0
H3465 H 0.70937 0.7889 0.97934 0.0
H3466 H 0.74996 0.76068 0.03646 0.0
H3467 H 0.7618 0.75187 0.96707 0.0
C3468 C 0.78362 0.72903 0.9757 0.0
C3469 C 0.79155 0.71683 0.9915 0.0
C3470 C 0.74092 0.7667 0.02396 0.0
C3471 C 0.75926 0.74389 0.99918 0.0
C3472 C 0.7273 0.78266 0.02773 0.0
C3473 C 0.71574 0.79114 0.01174 0.0
C3474 C 0.74337 0.75938 0.00397 0.0
C3475 C 0.71797 0.78282 0.9921 0.0
C3476 C 0.76741 0.74237 0.97941 0.0
C3477 C 0.78246 0.71819 0.01088 0.0
N3478 N 0.73175 0.76758 0.9887 0.0
N3479 N 0.76697 0.7317 0.01426 0.0
H3480 H 0.52449 0.71634 0.79617 0.0
H3481 H 0.47824 0.79617 0.71555 0.0
H3482 H 0.46166 0.71491 0.77608 0.0
H3483 H 0.54181 0.77851 0.7162 0.0
H3484 H 0.47175 0.77186 0.74347 0.0
H3485 H 0.53088 0.74475 0.77239 0.0
C3486 C 0.51202 0.72213 0.78694 0.0
C3487 C 0.49258 0.71313 0.78795 0.0
C3488 C 0.48713 0.77348 0.73756 0.0
C3489 C 0.49969 0.74566 0.76103 0.0
C3490 C 0.49084 0.78738 0.72171 0.0
C3491 C 0.51053 0.78921 0.71342 0.0
C3492 C 0.5033 0.76166 0.74538 0.0
C3493 C 0.52633 0.77741 0.72198 0.0
C3494 C 0.51568 0.73826 0.77335 0.0
C3495 C 0.47695 0.72124 0.77563 0.0
N3496 N 0.52238 0.76416 0.73748 0.0
N3497 N 0.48083 0.73703 0.76271 0.0
H3498 H 0.28863 0.4613 0.77795 0.0
H3499 H 0.22715 0.54396 0.71528 0.0
H3500 H 0.28788 0.52482 0.7957 0.0
H3501 H 0.20904 0.48054 0.71604 0.0
H3502 H 0.2505 0.53734 0.74363 0.0
H3503 H 0.2606 0.46791 0.75418 0.0
C3504 C 0.28248 0.47664 0.77692 0.0
C3505 C 0.2907 0.49259 0.78873 0.0
C3506 C 0.24128 0.52492 0.73775 0.0
C3507 C 0.25872 0.50026 0.76134 0.0
C3508 C 0.22801 0.52864 0.72149 0.0
C3509 C 0.21622 0.51272 0.71319 0.0
C3510 C 0.24315 0.50504 0.74554 0.0
C3511 C 0.21785 0.49322 0.72197 0.0
C3512 C 0.26641 0.48036 0.76342 0.0
C3513 C 0.28201 0.51211 0.78688 0.0
N3514 N 0.23131 0.48985 0.7375 0.0
N3515 N 0.26667 0.51547 0.77321 0.0
H3516 H 0.51449 0.31153 0.76293 0.0
H3517 H 0.50071 0.19309 0.7364 0.0
H3518 H 0.50851 0.26596 0.81027 0.0
H3519 H 0.48853 0.2424 0.69428 0.0
H3520 H 0.50718 0.21852 0.76342 0.0
H3521 H 0.50823 0.28537 0.73732 0.0
C3522 C 0.51177 0.29599 0.76796 0.0
C3523 C 0.512 0.29094 0.7888 0.0
C3524 C 0.5031 0.22368 0.74823 0.0
C3525 C 0.50497 0.2607 0.75936 0.0
C3526 C 0.49957 0.20921 0.7328 0.0
C3527 C 0.49405 0.21564 0.71307 0.0
C3528 C 0.50136 0.24463 0.74374 0.0
C3529 C 0.49263 0.23671 0.70927 0.0
C3530 C 0.50817 0.28103 0.75329 0.0
C3531 C 0.50832 0.27052 0.79437 0.0
N3532 N 0.4963 0.25037 0.7244 0.0
N3533 N 0.50508 0.25606 0.77969 0.0
H3534 H 0.811 0.50108 0.73719 0.0
H3535 H 0.69225 0.51506 0.76203 0.0
H3536 H 0.76239 0.48853 0.69438 0.0
H3537 H 0.73701 0.50832 0.81002 0.0
H3538 H 0.71877 0.50872 0.73677 0.0
H3539 H 0.78514 0.50743 0.76383 0.0
C3540 C 0.79494 0.49983 0.73336 0.0
C3541 C 0.78885 0.49426 0.71354 0.0
C3542 C 0.72285 0.50851 0.75281 0.0
C3543 C 0.75936 0.50145 0.74379 0.0
C3544 C 0.70768 0.51216 0.76728 0.0
C3545 C 0.7124 0.51219 0.7882 0.0
C3546 C 0.74305 0.50508 0.75917 0.0
C3547 C 0.7327 0.50828 0.79405 0.0
C3548 C 0.78023 0.50329 0.74858 0.0
C3549 C 0.76784 0.49269 0.70945 0.0
N3550 N 0.74736 0.50502 0.77958 0.0
N3551 N 0.75392 0.49632 0.72438 0.0
H3552 H 0.5026 0.19432 0.2679 0.0
H3553 H 0.49183 0.31303 0.24136 0.0
H3554 H 0.5182 0.24321 0.30936 0.0
H3555 H 0.49496 0.26717 0.19405 0.0
H3556 H 0.49835 0.28678 0.26686 0.0
H3557 H 0.49626 0.21991 0.241 0.0
C3558 C 0.50454 0.21039 0.27138 0.0
C3559 C 0.51095 0.21663 0.2909 0.0
C3560 C 0.49773 0.2824 0.25091 0.0
C3561 C 0.50378 0.24582 0.26036 0.0
C3562 C 0.49399 0.29741 0.23631 0.0
C3563 C 0.49288 0.2923 0.21551 0.0
C3564 C 0.50016 0.26197 0.24482 0.0
C3565 C 0.49585 0.27178 0.20991 0.0
C3566 C 0.50108 0.22494 0.25601 0.0
C3567 C 0.51338 0.23764 0.29454 0.0
N3568 N 0.49921 0.25728 0.22452 0.0
N3569 N 0.50975 0.25141 0.27948 0.0
H3570 H 0.81201 0.504 0.26632 0.0
H3571 H 0.6933 0.49159 0.24033 0.0
H3572 H 0.76308 0.51724 0.30857 0.0
H3573 H 0.73876 0.49691 0.19279 0.0
H3574 H 0.71963 0.49774 0.26582 0.0
H3575 H 0.78636 0.4978 0.23944 0.0
C3576 C 0.79592 0.50544 0.26998 0.0
C3577 C 0.78967 0.51116 0.28971 0.0
C3578 C 0.72391 0.49768 0.24982 0.0
C3579 C 0.76044 0.50414 0.2592 0.0
C3580 C 0.70885 0.49414 0.23522 0.0
C3581 C 0.71382 0.49376 0.21437 0.0
C3582 C 0.74425 0.50065 0.24367 0.0
C3583 C 0.73426 0.49722 0.20871 0.0
C3584 C 0.78134 0.50206 0.25463 0.0
C3585 C 0.76864 0.51296 0.29358 0.0
N3586 N 0.74881 0.50039 0.22331 0.0
N3587 N 0.75485 0.50942 0.27853 0.0
H3588 H 0.51482 0.6937 0.24306 0.0
H3589 H 0.4995 0.81199 0.26934 0.0
H3590 H 0.50689 0.73889 0.19565 0.0
H3591 H 0.4886 0.76271 0.31185 0.0
H3592 H 0.50596 0.78653 0.24234 0.0
H3593 H 0.50865 0.71988 0.26868 0.0
C3594 C 0.5117 0.70916 0.23801 0.0
C3595 C 0.51134 0.71409 0.21715 0.0
C3596 C 0.50216 0.78139 0.25761 0.0
C3597 C 0.50441 0.74436 0.2466 0.0
C3598 C 0.49864 0.79587 0.27303 0.0
C3599 C 0.49348 0.78946 0.29287 0.0
C3600 C 0.50079 0.76044 0.26222 0.0
C3601 C 0.49242 0.76839 0.29678 0.0
C3602 C 0.50815 0.72413 0.25269 0.0
C3603 C 0.50715 0.73441 0.21157 0.0
N3604 N 0.49608 0.7547 0.28165 0.0
N3605 N 0.50398 0.74889 0.22625 0.0
H3606 H 0.289 0.543 0.22854 0.0
H3607 H 0.22641 0.45991 0.28969 0.0
H3608 H 0.28748 0.47984 0.20959 0.0
H3609 H 0.20895 0.52352 0.28988 0.0
H3610 H 0.25004 0.46677 0.26161 0.0
H3611 H 0.26098 0.53624 0.25229 0.0
C3612 C 0.2827 0.5277 0.22931 0.0
C3613 C 0.29068 0.5119 0.21714 0.0
C3614 C 0.2409 0.47919 0.26764 0.0
C3615 C 0.2587 0.50406 0.24451 0.0
C3616 C 0.22747 0.47533 0.28374 0.0
C3617 C 0.21577 0.49122 0.29223 0.0
C3618 C 0.24302 0.49918 0.26019 0.0
C3619 C 0.21768 0.51084 0.28379 0.0
C3620 C 0.26663 0.5239 0.24281 0.0
C3621 C 0.2818 0.49244 0.21868 0.0
N3622 N 0.23128 0.51434 0.26841 0.0
N3623 N 0.26645 0.48899 0.23234 0.0
H3624 H 0.76337 0.69264 0.5142 0.0
H3625 H 0.73799 0.81124 0.49946 0.0
H3626 H 0.81106 0.73751 0.50609 0.0
H3627 H 0.69485 0.76243 0.489 0.0
H3628 H 0.7648 0.7855 0.50557 0.0
H3629 H 0.73788 0.71904 0.50831 0.0
C3630 C 0.7685 0.70807 0.51109 0.0
C3631 C 0.78941 0.71285 0.5106 0.0
C3632 C 0.74944 0.78052 0.50195 0.0
C3633 C 0.76012 0.74338 0.50401 0.0
C3634 C 0.73412 0.79516 0.49863 0.0
C3635 C 0.71416 0.78897 0.4937 0.0
C3636 C 0.7446 0.75962 0.50061 0.0
C3637 C 0.71002 0.76794 0.49265 0.0
C3638 C 0.7539 0.72317 0.50771 0.0
C3639 C 0.7951 0.73315 0.50646 0.0
N3640 N 0.72505 0.75409 0.49612 0.0
N3641 N 0.78051 0.74774 0.50345 0.0
H3642 H 0.69214 0.24073 0.51114 0.0
H3643 H 0.81024 0.27141 0.50464 0.0
H3644 H 0.74005 0.19538 0.51249 0.0
H3645 H 0.76086 0.31035 0.48466 0.0
H3646 H 0.78529 0.24398 0.51104 0.0
H3647 H 0.71765 0.26704 0.50454 0.0
C3648 C 0.70805 0.23627 0.50995 0.0
C3649 C 0.71394 0.21578 0.51233 0.0
C3650 C 0.78 0.25855 0.50525 0.0
C3651 C 0.7434 0.24602 0.50499 0.0
C3652 C 0.79419 0.27424 0.50174 0.0
C3653 C 0.78764 0.29321 0.4941 0.0
C3654 C 0.75914 0.26201 0.50136 0.0
C3655 C 0.76666 0.29598 0.49047 0.0
C3656 C 0.72263 0.25133 0.50616 0.0
C3657 C 0.73482 0.21097 0.51061 0.0
N3658 N 0.75322 0.28062 0.49419 0.0
N3659 N 0.74884 0.22601 0.50719 0.0
H3660 H 0.28941 0.77665 0.54338 0.0
H3661 H 0.22688 0.71545 0.46034 0.0
H3662 H 0.28801 0.79557 0.48021 0.0
H3663 H 0.20939 0.71536 0.52394 0.0
H3664 H 0.25048 0.74358 0.46716 0.0
H3665 H 0.26135 0.75296 0.53662 0.0
C3666 C 0.28313 0.77589 0.52808 0.0
C3667 C 0.29116 0.78803 0.51228 0.0
C3668 C 0.24134 0.73756 0.47958 0.0
C3669 C 0.25913 0.76071 0.50443 0.0
C3670 C 0.22793 0.72143 0.47575 0.0
C3671 C 0.21623 0.71295 0.49165 0.0
C3672 C 0.24345 0.74504 0.49955 0.0
C3673 C 0.21811 0.72143 0.51125 0.0
C3674 C 0.26703 0.76242 0.52428 0.0
C3675 C 0.28229 0.7865 0.49281 0.0
N3676 N 0.2317 0.73683 0.51472 0.0
N3677 N 0.26693 0.77286 0.48936 0.0
H3678 H 0.20943 0.28828 0.48071 0.0
H3679 H 0.28877 0.2069 0.52651 0.0
H3680 H 0.22805 0.28792 0.54399 0.0
H3681 H 0.28954 0.22635 0.46349 0.0
H3682 H 0.26077 0.23112 0.53309 0.0
H3683 H 0.23321 0.25993 0.47411 0.0
C3684 C 0.21833 0.2821 0.49323 0.0
C3685 C 0.21692 0.29058 0.51286 0.0
C3686 C 0.26702 0.22992 0.5178 0.0
C3687 C 0.24386 0.25813 0.5055 0.0
C3688 C 0.28291 0.21608 0.51404 0.0
C3689 C 0.29162 0.21476 0.49449 0.0
C3690 C 0.25957 0.2422 0.50181 0.0
C3691 C 0.28344 0.22704 0.47886 0.0
C3692 C 0.23192 0.266 0.48945 0.0
C3693 C 0.22883 0.28198 0.52855 0.0
N3694 N 0.26789 0.24022 0.48284 0.0
N3695 N 0.24178 0.26625 0.52454 0.0
H3696 H 0.08252 0.37244 0.11149 0.0
H3697 H 0.13182 0.30347 0.02282 0.0
H3698 H 0.07168 0.30765 0.10479 0.0
H3699 H 0.12739 0.36919 0.01845 0.0
H3700 H 0.11319 0.30487 0.05521 0.0
H3701 H 0.10241 0.37175 0.07957 0.0
C3702 C 0.0844 0.35808 0.10347 0.0
C3703 C 0.07546 0.34007 0.11105 0.0
C3704 C 0.11634 0.319 0.04716 0.0
C3705 C 0.09826 0.33918 0.07459 0.0
C3706 C 0.12703 0.31821 0.02866 0.0
C3707 C 0.13131 0.33623 0.0178 0.0
C3708 C 0.10998 0.33795 0.05508 0.0
C3709 C 0.12458 0.35487 0.02623 0.0
C3710 C 0.09569 0.35771 0.08521 0.0
C3711 C 0.07835 0.32193 0.0998 0.0
N3712 N 0.11434 0.35526 0.04436 0.0
N3713 N 0.0895 0.32196 0.08229 0.0
H3714 H 0.69716 0.07307 0.10531 0.0
H3715 H 0.63484 0.12583 0.01502 0.0
H3716 H 0.63194 0.08278 0.10877 0.0
H3717 H 0.7001 0.13242 0.02254 0.0
H3718 H 0.63322 0.10796 0.04778 0.0
H3719 H 0.69815 0.09257 0.07374 0.0
C3720 C 0.68299 0.07942 0.09958 0.0
C3721 C 0.66442 0.07635 0.11001 0.0
C3722 C 0.64787 0.11341 0.0423 0.0
C3723 C 0.66552 0.09858 0.07323 0.0
C3724 C 0.64886 0.12363 0.02354 0.0
C3725 C 0.66766 0.13084 0.01593 0.0
C3726 C 0.66584 0.11001 0.0535 0.0
C3727 C 0.68526 0.12726 0.02772 0.0
C3728 C 0.68363 0.09058 0.08144 0.0
C3729 C 0.64663 0.08483 0.10143 0.0
N3730 N 0.68392 0.11703 0.04581 0.0
N3731 N 0.6476 0.09544 0.08348 0.0
H3732 H 0.93408 0.69701 0.10229 0.0
H3733 H 0.87767 0.63433 0.01462 0.0
H3734 H 0.9217 0.63243 0.10834 0.0
H3735 H 0.87337 0.6999 0.02091 0.0
H3736 H 0.89597 0.63277 0.04718 0.0
H3737 H 0.9143 0.69766 0.07098 0.0
C3738 C 0.92709 0.68291 0.09719 0.0
C3739 C 0.92947 0.66463 0.10831 0.0
C3740 C 0.89092 0.64747 0.04147 0.0
C3741 C 0.90687 0.66533 0.07175 0.0
C3742 C 0.88046 0.64842 0.02282 0.0
C3743 C 0.87378 0.6673 0.01493 0.0
C3744 C 0.8951 0.66554 0.05222 0.0
C3745 C 0.8781 0.68499 0.02631 0.0
C3746 C 0.91576 0.68335 0.07917 0.0
C3747 C 0.9202 0.6469 0.10045 0.0
N3748 N 0.88855 0.68367 0.04426 0.0
N3749 N 0.9094 0.64766 0.08259 0.0
H3750 H 0.30705 0.87489 0.02265 0.0
H3751 H 0.37635 0.923 0.11163 0.0
H3752 H 0.3728 0.87855 0.01776 0.0
H3753 H 0.31156 0.93377 0.1047 0.0
H3754 H 0.37586 0.90349 0.0794 0.0
H3755 H 0.30888 0.89315 0.05508 0.0
C3756 C 0.3219 0.87945 0.02838 0.0
C3757 C 0.33979 0.87506 0.01734 0.0
C3758 C 0.36179 0.91012 0.08508 0.0
C3759 C 0.34199 0.89605 0.05478 0.0
C3760 C 0.36204 0.92119 0.10349 0.0
C3761 C 0.34396 0.92998 0.11112 0.0
C3762 C 0.34329 0.90764 0.07436 0.0
C3763 C 0.32591 0.92721 0.09973 0.0
C3764 C 0.32293 0.88995 0.04694 0.0
C3765 C 0.35858 0.8815 0.02568 0.0
N3766 N 0.32605 0.91629 0.0821 0.0
N3767 N 0.3592 0.8916 0.04391 0.0
H3768 H 0.07028 0.69546 0.8988 0.0
H3769 H 0.12568 0.63186 0.98661 0.0
H3770 H 0.08127 0.63061 0.89281 0.0
H3771 H 0.13073 0.69736 0.97997 0.0
H3772 H 0.10704 0.63044 0.95418 0.0
H3773 H 0.08976 0.69564 0.93027 0.0
C3774 C 0.07688 0.68119 0.90397 0.0
C3775 C 0.07422 0.66299 0.89281 0.0
C3776 C 0.11233 0.64507 0.95981 0.0
C3777 C 0.09653 0.66315 0.92953 0.0
C3778 C 0.12298 0.64595 0.97836 0.0
C3779 C 0.13 0.66478 0.98609 0.0
C3780 C 0.10833 0.66318 0.94901 0.0
C3781 C 0.12577 0.68248 0.97469 0.0
C3782 C 0.08805 0.68135 0.92208 0.0
C3783 C 0.08301 0.64503 0.90073 0.0
N3784 N 0.11517 0.68124 0.95685 0.0
N3785 N 0.0937 0.64554 0.91867 0.0
H3786 H 0.30929 0.07254 0.89851 0.0
H3787 H 0.37217 0.12665 0.98761 0.0
H3788 H 0.37435 0.08288 0.89387 0.0
H3789 H 0.30666 0.1316 0.98103 0.0
H3790 H 0.37373 0.10869 0.95486 0.0
H3791 H 0.30864 0.09201 0.93 0.0
C3792 C 0.32351 0.07902 0.90396 0.0
C3793 C 0.34192 0.07614 0.89319 0.0
C3794 C 0.35905 0.1138 0.96056 0.0
C3795 C 0.34121 0.0984 0.92997 0.0
C3796 C 0.35809 0.12406 0.97931 0.0
C3797 C 0.33922 0.13083 0.98718 0.0
C3798 C 0.341 0.10993 0.94964 0.0
C3799 C 0.32156 0.12679 0.97566 0.0
C3800 C 0.32307 0.09018 0.92209 0.0
C3801 C 0.35978 0.08479 0.90147 0.0
N3802 N 0.32288 0.11655 0.95759 0.0
N3803 N 0.359 0.09543 0.91943 0.0
H3804 H 0.87248 0.30486 0.98206 0.0
H3805 H 0.9231 0.37489 0.89492 0.0
H3806 H 0.8781 0.37039 0.98779 0.0
H3807 H 0.93219 0.30967 0.89981 0.0
H3808 H 0.90319 0.37385 0.92681 0.0
H3809 H 0.89099 0.30661 0.94963 0.0
C3810 C 0.87751 0.31963 0.97652 0.0
C3811 C 0.87361 0.33749 0.98777 0.0
C3812 C 0.90952 0.35979 0.92078 0.0
C3813 C 0.8948 0.33962 0.95043 0.0
C3814 C 0.92082 0.36037 0.90254 0.0
C3815 C 0.9293 0.34235 0.89446 0.0
C3816 C 0.90648 0.34105 0.93091 0.0
C3817 C 0.92591 0.32399 0.90519 0.0
C3818 C 0.88813 0.32062 0.95798 0.0
C3819 C 0.88063 0.35619 0.9797 0.0
N3820 N 0.91477 0.32383 0.92272 0.0
N3821 N 0.8908 0.35677 0.96154 0.0
H3822 H 0.70017 0.87249 0.98255 0.0
H3823 H 0.63121 0.9218 0.89396 0.0
H3824 H 0.63455 0.87785 0.98751 0.0
H3825 H 0.69603 0.93257 0.90056 0.0
H3826 H 0.63187 0.90214 0.92602 0.0
H3827 H 0.69873 0.89096 0.95008 0.0
C3828 C 0.68545 0.87745 0.97683 0.0
C3829 C 0.66747 0.87349 0.98787 0.0
C3830 C 0.64592 0.90879 0.92032 0.0
C3831 C 0.6657 0.89461 0.95049 0.0
C3832 C 0.64557 0.91996 0.90199 0.0
C3833 C 0.66359 0.92881 0.89434 0.0
C3834 C 0.66447 0.90624 0.93094 0.0
C3835 C 0.68173 0.92598 0.9056 0.0
C3836 C 0.68464 0.88805 0.95827 0.0
C3837 C 0.64883 0.88042 0.97958 0.0
N3838 N 0.68169 0.91493 0.92317 0.0
N3839 N 0.64843 0.89055 0.96139 0.0
H3840 H 0.10361 0.06886 0.30988 0.0
H3841 H 0.01756 0.12636 0.3742 0.0
H3842 H 0.11066 0.08069 0.37445 0.0
H3843 H 0.02256 0.12964 0.30846 0.0
H3844 H 0.0499 0.1075 0.37529 0.0
H3845 H 0.07233 0.08872 0.30988 0.0
C3846 C 0.09872 0.07573 0.32411 0.0
C3847 C 0.1101 0.07319 0.34218 0.0
C3848 C 0.04393 0.11245 0.36066 0.0
C3849 C 0.07363 0.09592 0.34226 0.0
C3850 C 0.02543 0.12322 0.35999 0.0
C3851 C 0.01726 0.12978 0.34119 0.0
C3852 C 0.05424 0.10789 0.3424 0.0
C3853 C 0.02819 0.12503 0.32332 0.0
C3854 C 0.08073 0.08711 0.32406 0.0
C3855 C 0.10255 0.08233 0.36012 0.0
N3856 N 0.046 0.11433 0.32438 0.0
N3857 N 0.08473 0.09322 0.35973 0.0
H3858 H 0.92223 0.11159 0.37725 0.0
H3859 H 0.87351 0.02318 0.30773 0.0
H3860 H 0.93412 0.10384 0.31276 0.0
H3861 H 0.87588 0.01854 0.37354 0.0
H3862 H 0.89241 0.05522 0.30972 0.0
H3863 H 0.90209 0.07975 0.37667 0.0
C3864 C 0.92055 0.10335 0.36299 0.0
C3865 C 0.92982 0.11063 0.34501 0.0
C3866 C 0.88878 0.04722 0.32375 0.0
C3867 C 0.90675 0.07433 0.34425 0.0
C3868 C 0.87791 0.02889 0.32263 0.0
C3869 C 0.87299 0.01803 0.34048 0.0
C3870 C 0.89474 0.05502 0.34287 0.0
C3871 C 0.87925 0.02633 0.35934 0.0
C3872 C 0.90911 0.08515 0.36269 0.0
C3873 C 0.9272 0.09912 0.32702 0.0
N3874 N 0.88974 0.04434 0.36005 0.0
N3875 N 0.91591 0.08173 0.32711 0.0
H3876 H 0.89991 0.93546 0.31101 0.0
H3877 H 0.98635 0.87789 0.37458 0.0
H3878 H 0.89274 0.92329 0.37552 0.0
H3879 H 0.98021 0.8741 0.30896 0.0
H3880 H 0.95406 0.89687 0.37606 0.0
H3881 H 0.93118 0.91568 0.31095 0.0
C3882 C 0.90477 0.92854 0.32523 0.0
C3883 C 0.89333 0.93095 0.34329 0.0
C3884 C 0.95978 0.89178 0.36138 0.0
C3885 C 0.92985 0.90827 0.34327 0.0
C3886 C 0.97825 0.88094 0.36048 0.0
C3887 C 0.98608 0.87419 0.3416 0.0
C3888 C 0.94919 0.89623 0.34326 0.0
C3889 C 0.97486 0.87884 0.32388 0.0
C3890 C 0.92277 0.91719 0.32513 0.0
C3891 C 0.90089 0.92174 0.3612 0.0
N3892 N 0.95712 0.88961 0.32516 0.0
N3893 N 0.91873 0.91087 0.36076 0.0
H3894 H 0.12585 0.98622 0.3727 0.0
H3895 H 0.0699 0.89816 0.3098 0.0
H3896 H 0.13006 0.97975 0.30714 0.0
H3897 H 0.08065 0.89305 0.37474 0.0
H3898 H 0.0897 0.92948 0.30921 0.0
H3899 H 0.10728 0.95376 0.37431 0.0
C3900 C 0.12298 0.978 0.35863 0.0
C3901 C 0.12972 0.98579 0.33974 0.0
C3902 C 0.08788 0.92149 0.32359 0.0
C3903 C 0.10815 0.94865 0.34154 0.0
C3904 C 0.07653 0.90348 0.32399 0.0
C3905 C 0.07368 0.89265 0.34236 0.0
C3906 C 0.09633 0.92916 0.34173 0.0
C3907 C 0.08253 0.90073 0.36021 0.0
C3908 C 0.11237 0.95942 0.35961 0.0
C3909 C 0.1253 0.97441 0.32207 0.0
N3910 N 0.09337 0.91856 0.35947 0.0
N3911 N 0.11475 0.95654 0.32341 0.0
H3912 H 0.01575 0.87843 0.63358 0.0
H3913 H 0.10373 0.93373 0.69681 0.0
H3914 H 0.022 0.87324 0.69908 0.0
H3915 H 0.10959 0.92199 0.6321 0.0
H3916 H 0.07232 0.91403 0.69732 0.0
H3917 H 0.04839 0.8966 0.63226 0.0
C3918 C 0.02396 0.881 0.64771 0.0
C3919 C 0.01604 0.8741 0.6665 0.0
C3920 C 0.0805 0.91561 0.68302 0.0
C3921 C 0.05343 0.89527 0.66501 0.0
C3922 C 0.09857 0.9269 0.68265 0.0
C3923 C 0.10965 0.92943 0.66438 0.0
C3924 C 0.07301 0.90695 0.66492 0.0
C3925 C 0.10173 0.92036 0.64657 0.0
C3926 C 0.04265 0.89139 0.64689 0.0
C3927 C 0.02744 0.87814 0.68424 0.0
N3928 N 0.08384 0.90962 0.64726 0.0
N3929 N 0.04544 0.88853 0.68306 0.0
H3930 H 0.12548 0.01637 0.63279 0.0
H3931 H 0.07066 0.10487 0.69592 0.0
H3932 H 0.13023 0.02318 0.69828 0.0
H3933 H 0.08164 0.11056 0.63106 0.0
H3934 H 0.09003 0.07335 0.69624 0.0
H3935 H 0.10724 0.04906 0.63115 0.0
C3936 C 0.12279 0.02471 0.64683 0.0
C3937 C 0.12959 0.01694 0.66573 0.0
C3938 C 0.08836 0.0815 0.68192 0.0
C3939 C 0.10841 0.05431 0.66388 0.0
C3940 C 0.07726 0.09965 0.68168 0.0
C3941 C 0.07461 0.11073 0.66343 0.0
C3942 C 0.09678 0.07391 0.66375 0.0
C3943 C 0.08339 0.1027 0.64551 0.0
C3944 C 0.11238 0.0434 0.64583 0.0
C3945 C 0.12543 0.02847 0.68336 0.0
N3946 N 0.094 0.08471 0.6461 0.0
N3947 N 0.11506 0.04645 0.68199 0.0
H3948 H 0.98229 0.13093 0.69925 0.0
H3949 H 0.89358 0.08208 0.63026 0.0
H3950 H 0.98711 0.12709 0.63352 0.0
H3951 H 0.9008 0.07103 0.69495 0.0
H3952 H 0.9257 0.10172 0.6307 0.0
H3953 H 0.95009 0.11222 0.69755 0.0
C3954 C 0.97659 0.12624 0.68443 0.0
C3955 C 0.98752 0.13072 0.6665 0.0
C3956 C 0.92013 0.09499 0.64475 0.0
C3957 C 0.95037 0.10922 0.66446 0.0
C3958 C 0.90177 0.08383 0.64453 0.0
C3959 C 0.89425 0.07495 0.66261 0.0
C3960 C 0.9309 0.09746 0.66321 0.0
C3961 C 0.90571 0.07766 0.68062 0.0
C3962 C 0.95817 0.11548 0.68348 0.0
C3963 C 0.97924 0.12409 0.64776 0.0
N3964 N 0.92329 0.08868 0.68046 0.0
N3965 N 0.96115 0.11376 0.64721 0.0
H3966 H 0.92156 0.89428 0.63075 0.0
H3967 H 0.87292 0.98275 0.70036 0.0
H3968 H 0.93295 0.9008 0.69546 0.0
H3969 H 0.87747 0.98775 0.63469 0.0
H3970 H 0.89141 0.95031 0.69866 0.0
H3971 H 0.90189 0.92634 0.63166 0.0
C3972 C 0.91986 0.9023 0.64514 0.0
C3973 C 0.92888 0.89462 0.66306 0.0
C3974 C 0.88832 0.95851 0.68461 0.0
C3975 C 0.90631 0.93121 0.66421 0.0
C3976 C 0.8777 0.97704 0.68557 0.0
C3977 C 0.8735 0.98809 0.66765 0.0
C3978 C 0.89467 0.95074 0.66559 0.0
C3979 C 0.88022 0.97982 0.64893 0.0
C3980 C 0.90869 0.92063 0.64563 0.0
C3981 C 0.92622 0.90586 0.68123 0.0
N3982 N 0.89038 0.96165 0.64839 0.0
N3983 N 0.91517 0.92343 0.68133 0.0
H3984 H 0.30698 0.02181 0.13034 0.0
H3985 H 0.37551 0.1112 0.08202 0.0
H3986 H 0.37284 0.01796 0.12765 0.0
H3987 H 0.31113 0.10296 0.06986 0.0
H3988 H 0.37519 0.07919 0.10183 0.0
H3989 H 0.30851 0.05387 0.11138 0.0
C3990 C 0.32179 0.02769 0.12586 0.0
C3991 C 0.3398 0.01706 0.13074 0.0
C3992 C 0.36117 0.08451 0.09482 0.0
C3993 C 0.34166 0.05407 0.10894 0.0
C3994 C 0.36132 0.1028 0.08356 0.0
C3995 C 0.3433 0.11001 0.07432 0.0
C3996 C 0.34282 0.07348 0.09703 0.0
C3997 C 0.32541 0.0983 0.07677 0.0
C3998 C 0.32265 0.04603 0.11495 0.0
C3999 C 0.35853 0.02557 0.12434 0.0
N4000 N 0.32563 0.08078 0.08791 0.0
N4001 N 0.35898 0.04359 0.11386 0.0
H4002 H 0.30739 0.98374 0.87411 0.0
H4003 H 0.37615 0.8946 0.92253 0.0
H4004 H 0.37321 0.98811 0.87697 0.0
H4005 H 0.31171 0.90273 0.93447 0.0
H4006 H 0.37585 0.92667 0.90276 0.0
H4007 H 0.30911 0.95169 0.89301 0.0
C4008 C 0.32225 0.97797 0.87862 0.0
C4009 C 0.34018 0.98875 0.87381 0.0
C4010 C 0.36182 0.92131 0.90972 0.0
C4011 C 0.34225 0.95172 0.89556 0.0
C4012 C 0.36196 0.90298 0.92095 0.0
C4013 C 0.34391 0.89572 0.93011 0.0
C4014 C 0.34346 0.93231 0.90745 0.0
C4015 C 0.32601 0.90742 0.92761 0.0
C4016 C 0.32321 0.95963 0.8895 0.0
C4017 C 0.35896 0.98038 0.88023 0.0
N4018 N 0.32625 0.92494 0.91651 0.0
N4019 N 0.35952 0.96234 0.8907 0.0
H4020 H 0.02239 0.30663 0.8751 0.0
H4021 H 0.11128 0.37471 0.92499 0.0
H4022 H 0.01761 0.37227 0.88035 0.0
H4023 H 0.10469 0.30962 0.93399 0.0
H4024 H 0.07897 0.37464 0.90567 0.0
H4025 H 0.05467 0.30792 0.89368 0.0
C4026 C 0.0281 0.32135 0.88009 0.0
C4027 C 0.01717 0.33937 0.876 0.0
C4028 C 0.08472 0.36041 0.91188 0.0
C4029 C 0.05444 0.34095 0.89735 0.0
C4030 C 0.10319 0.36042 0.92284 0.0
C4031 C 0.11094 0.34213 0.93107 0.0
C4032 C 0.07404 0.34196 0.90894 0.0
C4033 C 0.0996 0.32412 0.92788 0.0
C4034 C 0.04658 0.32207 0.89076 0.0
C4035 C 0.02547 0.35796 0.88301 0.0
N4036 N 0.0819 0.3245 0.91706 0.0
N4037 N 0.04363 0.35829 0.89325 0.0
H4038 H 0.69756 0.1041 0.93323 0.0
H4039 H 0.63441 0.01577 0.87829 0.0
H4040 H 0.63283 0.10973 0.92146 0.0
H4041 H 0.69996 0.02195 0.87331 0.0
H4042 H 0.63307 0.04843 0.8964 0.0
H4043 H 0.69813 0.07252 0.91382 0.0
C4044 C 0.68341 0.09884 0.92646 0.0
C4045 C 0.66512 0.10991 0.9289 0.0
C4046 C 0.64771 0.04267 0.89125 0.0
C4047 C 0.66572 0.07309 0.90672 0.0
C4048 C 0.64854 0.02397 0.8809 0.0
C4049 C 0.66735 0.01602 0.87406 0.0
C4050 C 0.66583 0.05345 0.89516 0.0
C4051 C 0.6851 0.0274 0.87816 0.0
C4052 C 0.6838 0.08068 0.91534 0.0
C4053 C 0.64732 0.10188 0.9199 0.0
N4054 N 0.6839 0.04543 0.8885 0.0
N4055 N 0.64804 0.0839 0.90931 0.0
H4056 H 0.98232 0.70025 0.87134 0.0
H4057 H 0.89339 0.6315 0.92042 0.0
H4058 H 0.98692 0.63456 0.87605 0.0
H4059 H 0.90063 0.69614 0.93177 0.0
H4060 H 0.92542 0.63206 0.90067 0.0
H4061 H 0.94994 0.69882 0.88996 0.0
C4062 C 0.97653 0.68551 0.87618 0.0
C4063 C 0.98746 0.66751 0.87199 0.0
C4064 C 0.91987 0.64609 0.90747 0.0
C4065 C 0.95016 0.66576 0.89332 0.0
C4066 C 0.90156 0.6458 0.91869 0.0
C4067 C 0.89408 0.66381 0.92772 0.0
C4068 C 0.93065 0.66457 0.90505 0.0
C4069 C 0.90552 0.68186 0.92503 0.0
C4070 C 0.95803 0.68471 0.88688 0.0
C4071 C 0.97908 0.64886 0.87881 0.0
N4072 N 0.92306 0.68177 0.91393 0.0
N4073 N 0.96094 0.64847 0.88904 0.0
H4074 H 0.63182 0.98932 0.12431 0.0
H4075 H 0.6955 0.90014 0.07105 0.0
H4076 H 0.69722 0.98232 0.13013 0.0
H4077 H 0.6304 0.89504 0.0809 0.0
H4078 H 0.69568 0.93189 0.09009 0.0
H4079 H 0.63039 0.95665 0.10604 0.0
C4080 C 0.64588 0.98095 0.12184 0.0
C4081 C 0.66468 0.98865 0.12898 0.0
C4082 C 0.68134 0.92383 0.08823 0.0
C4083 C 0.66308 0.95129 0.10776 0.0
C4084 C 0.68118 0.90556 0.07731 0.0
C4085 C 0.6629 0.89458 0.07446 0.0
C4086 C 0.66306 0.93162 0.09625 0.0
C4087 C 0.64488 0.90282 0.08282 0.0
C4088 C 0.64501 0.96226 0.11141 0.0
C4089 C 0.68236 0.97708 0.12507 0.0
N4090 N 0.64539 0.9209 0.09326 0.0
N4091 N 0.68112 0.95911 0.11469 0.0
H4092 H 0.01629 0.63362 0.12365 0.0
H4093 H 0.10603 0.69656 0.0703 0.0
H4094 H 0.02339 0.69901 0.12926 0.0
H4095 H 0.11004 0.63135 0.07984 0.0
H4096 H 0.07439 0.6972 0.08965 0.0
H4097 H 0.04899 0.63204 0.10551 0.0
C4098 C 0.02469 0.64766 0.12116 0.0
C4099 C 0.017 0.6665 0.12818 0.0
C4100 C 0.08221 0.68274 0.08766 0.0
C4101 C 0.05445 0.66473 0.10711 0.0
C4102 C 0.1004 0.68232 0.07657 0.0
C4103 C 0.11101 0.66386 0.07351 0.0
C4104 C 0.07414 0.66455 0.09562 0.0
C4105 C 0.10255 0.64596 0.0819 0.0
C4106 C 0.04341 0.6467 0.1108 0.0
C4107 C 0.02863 0.68413 0.12427 0.0
N4108 N 0.08456 0.64673 0.09248 0.0
N4109 N 0.04665 0.68281 0.11395 0.0
H4110 H 0.98226 0.30465 0.13038 0.0
H4111 H 0.89397 0.37438 0.08177 0.0
H4112 H 0.98769 0.37033 0.12636 0.0
H4113 H 0.90068 0.30964 0.07062 0.0
H4114 H 0.92618 0.37367 0.10128 0.0
H4115 H 0.95004 0.30662 0.11171 0.0
C4116 C 0.97669 0.31952 0.12566 0.0
C4117 C 0.9878 0.33735 0.13009 0.0
C4118 C 0.92047 0.35966 0.09456 0.0
C4119 C 0.95062 0.33971 0.10866 0.0
C4120 C 0.90207 0.36004 0.08348 0.0
C4121 C 0.89438 0.34203 0.07461 0.0
C4122 C 0.93112 0.34112 0.09696 0.0
C4123 C 0.90572 0.32393 0.07725 0.0
C4124 C 0.95826 0.32062 0.11493 0.0
C4125 C 0.97969 0.35616 0.12342 0.0
N4126 N 0.92334 0.32395 0.0882 0.0
N4127 N 0.96158 0.35685 0.11312 0.0
H4128 H 0.62791 0.87325 0.51802 0.0
H4129 H 0.57072 0.80954 0.60483 0.0
H4130 H 0.63108 0.80755 0.52372 0.0
H4131 H 0.58165 0.87438 0.61097 0.0
H4132 H 0.59055 0.80938 0.57357 0.0
H4133 H 0.60902 0.8747 0.55035 0.0
C4134 C 0.62474 0.85912 0.52604 0.0
C4135 C 0.63126 0.84022 0.51806 0.0
C4136 C 0.58875 0.82366 0.58175 0.0
C4137 C 0.60935 0.84185 0.55503 0.0
C4138 C 0.57737 0.82381 0.59973 0.0
C4139 C 0.57458 0.842 0.61087 0.0
C4140 C 0.59733 0.84187 0.5744 0.0
C4141 C 0.58348 0.85996 0.60306 0.0
C4142 C 0.61395 0.86001 0.54454 0.0
C4143 C 0.6265 0.82248 0.52919 0.0
N4144 N 0.59439 0.85947 0.58525 0.0
N4145 N 0.6158 0.82374 0.54697 0.0
H4146 H 0.19813 0.57207 0.60372 0.0
H4147 H 0.13509 0.62535 0.51437 0.0
H4148 H 0.13319 0.58298 0.60865 0.0
H4149 H 0.20045 0.63169 0.52126 0.0
H4150 H 0.13371 0.6075 0.54716 0.0
H4151 H 0.19875 0.59136 0.57205 0.0
C4152 C 0.18394 0.57863 0.59829 0.0
C4153 C 0.16557 0.57599 0.60918 0.0
C4154 C 0.14832 0.61289 0.54153 0.0
C4155 C 0.16624 0.59799 0.57226 0.0
C4156 C 0.14917 0.6231 0.52275 0.0
C4157 C 0.16794 0.63024 0.51497 0.0
C4158 C 0.16638 0.60942 0.55254 0.0
C4159 C 0.18563 0.62659 0.52659 0.0
C4160 C 0.18437 0.58968 0.58008 0.0
C4161 C 0.14773 0.5847 0.60094 0.0
N4162 N 0.18442 0.61636 0.54468 0.0
N4163 N 0.14849 0.59521 0.58291 0.0
H4164 H 0.37797 0.13268 0.51702 0.0
H4165 H 0.43393 0.19592 0.60463 0.0
H4166 H 0.37326 0.19823 0.52321 0.0
H4167 H 0.42266 0.1311 0.61033 0.0
H4168 H 0.41406 0.19642 0.57337 0.0
H4169 H 0.39642 0.1313 0.54949 0.0
C4170 C 0.3807 0.14681 0.52518 0.0
C4171 C 0.37386 0.16563 0.51728 0.0
C4172 C 0.41578 0.18208 0.58147 0.0
C4173 C 0.39534 0.16407 0.55449 0.0
C4174 C 0.42717 0.18173 0.59946 0.0
C4175 C 0.4299 0.16343 0.61046 0.0
C4176 C 0.40717 0.16396 0.57398 0.0
C4177 C 0.42089 0.14559 0.60253 0.0
C4178 C 0.39125 0.14595 0.54378 0.0
C4179 C 0.37811 0.18337 0.52862 0.0
N4180 N 0.41002 0.14628 0.58471 0.0
N4181 N 0.38864 0.18215 0.54653 0.0
H4182 H 0.80571 0.37532 0.52337 0.0
H4183 H 0.8754 0.42367 0.6119 0.0
H4184 H 0.87148 0.37859 0.51848 0.0
H4185 H 0.81071 0.43502 0.60495 0.0
H4186 H 0.87468 0.40391 0.57985 0.0
H4187 H 0.80763 0.3939 0.55564 0.0
C4188 C 0.82058 0.37985 0.52907 0.0
C4189 C 0.83845 0.37525 0.51809 0.0
C4190 C 0.86068 0.41072 0.58548 0.0
C4191 C 0.84076 0.3966 0.55532 0.0
C4192 C 0.86106 0.42194 0.6038 0.0
C4193 C 0.84308 0.43096 0.61136 0.0
C4194 C 0.84215 0.40833 0.5748 0.0
C4195 C 0.82498 0.42828 0.60001 0.0
C4196 C 0.82166 0.39053 0.54753 0.0
C4197 C 0.85727 0.38168 0.52637 0.0
N4198 N 0.825 0.41721 0.58248 0.0
N4199 N 0.85794 0.39194 0.54449 0.0
H4200 H 0.56984 0.19481 0.39952 0.0
H4201 H 0.62589 0.13076 0.48659 0.0
H4202 H 0.58105 0.13006 0.39292 0.0
H4203 H 0.63011 0.19639 0.48068 0.0
H4204 H 0.60729 0.12947 0.45411 0.0
H4205 H 0.58945 0.1948 0.43088 0.0
C4206 C 0.57653 0.18052 0.40451 0.0
C4207 C 0.57388 0.16241 0.39322 0.0
C4208 C 0.61239 0.1441 0.45991 0.0
C4209 C 0.59634 0.16235 0.42985 0.0
C4210 C 0.62301 0.14491 0.47849 0.0
C4211 C 0.62976 0.16374 0.48645 0.0
C4212 C 0.60817 0.16228 0.44931 0.0
C4213 C 0.62534 0.18151 0.47523 0.0
C4214 C 0.58777 0.18058 0.42257 0.0
C4215 C 0.58278 0.14442 0.40095 0.0
N4216 N 0.61479 0.18033 0.45736 0.0
N4217 N 0.59355 0.14482 0.41885 0.0
H4218 H 0.81085 0.57032 0.3983 0.0
H4219 H 0.87441 0.62622 0.48587 0.0
H4220 H 0.87571 0.58122 0.39228 0.0
H4221 H 0.8088 0.63027 0.47969 0.0
H4222 H 0.87591 0.60768 0.45336 0.0
H4223 H 0.81066 0.58993 0.42967 0.0
C4224 C 0.82512 0.57694 0.40343 0.0
C4225 C 0.84333 0.5742 0.3923 0.0
C4226 C 0.86123 0.61273 0.45911 0.0
C4227 C 0.84316 0.59667 0.42893 0.0
C4228 C 0.86031 0.62332 0.47771 0.0
C4229 C 0.84143 0.63 0.4856 0.0
C4230 C 0.84311 0.60848 0.44842 0.0
C4231 C 0.82372 0.62556 0.47429 0.0
C4232 C 0.82495 0.58819 0.42149 0.0
C4233 C 0.86129 0.58303 0.40018 0.0
N4234 N 0.82501 0.61504 0.45641 0.0
N4235 N 0.86077 0.5938 0.41808 0.0
H4236 H 0.37702 0.8708 0.48941 0.0
H4237 H 0.43392 0.80854 0.40174 0.0
H4238 H 0.37299 0.80522 0.48301 0.0
H4239 H 0.42143 0.87312 0.39593 0.0
H4240 H 0.41401 0.80771 0.43298 0.0
H4241 H 0.39541 0.87248 0.45691 0.0
C4242 C 0.37988 0.85673 0.48119 0.0
C4243 C 0.37325 0.83781 0.48905 0.0
C4244 C 0.41547 0.82206 0.42485 0.0
C4245 C 0.39468 0.83972 0.45181 0.0
C4246 C 0.42688 0.8226 0.40687 0.0
C4247 C 0.42928 0.84093 0.39585 0.0
C4248 C 0.40651 0.84002 0.43232 0.0
C4249 C 0.41993 0.85861 0.40374 0.0
C4250 C 0.3904 0.85776 0.46258 0.0
C4251 C 0.37767 0.82016 0.47764 0.0
N4252 N 0.40905 0.85774 0.42156 0.0
N4253 N 0.38817 0.82155 0.45972 0.0
H4254 H 0.13183 0.42052 0.39588 0.0
H4255 H 0.20193 0.37216 0.4841 0.0
H4256 H 0.19675 0.43127 0.40141 0.0
H4257 H 0.13642 0.3779 0.49003 0.0
H4258 H 0.20007 0.39028 0.45146 0.0
H4259 H 0.13291 0.40132 0.42822 0.0
C4260 C 0.1463 0.41876 0.40374 0.0
C4261 C 0.16423 0.42747 0.39569 0.0
C4262 C 0.18609 0.38753 0.4599 0.0
C4263 C 0.16558 0.40544 0.43262 0.0
C4264 C 0.18714 0.37713 0.47856 0.0
C4265 C 0.16932 0.37336 0.48992 0.0
C4266 C 0.16707 0.39408 0.45232 0.0
C4267 C 0.1506 0.38032 0.48185 0.0
C4268 C 0.14689 0.40787 0.42223 0.0
C4269 C 0.18251 0.42476 0.40674 0.0
N4270 N 0.14995 0.39024 0.46355 0.0
N4271 N 0.18271 0.41397 0.42448 0.0
H4272 H 0.60976 0.58284 0.87353 0.0
H4273 H 0.52153 0.6314 0.80356 0.0
H4274 H 0.60333 0.5712 0.80886 0.0
H4275 H 0.51589 0.6264 0.86914 0.0
H4276 H 0.55401 0.613 0.80545 0.0
H4277 H 0.57766 0.60248 0.8725 0.0
C4278 C 0.60177 0.5845 0.85913 0.0
C4279 C 0.60949 0.57541 0.84125 0.0
C4280 C 0.54567 0.61597 0.81944 0.0
C4281 C 0.57285 0.59794 0.83996 0.0
C4282 C 0.5271 0.62653 0.81837 0.0
C4283 C 0.51586 0.63059 0.83621 0.0
C4284 C 0.55328 0.60954 0.83849 0.0
C4285 C 0.52398 0.62376 0.85496 0.0
C4286 C 0.58342 0.59565 0.85857 0.0
C4287 C 0.59827 0.578 0.82305 0.0
N4288 N 0.54219 0.61367 0.85562 0.0
N4289 N 0.58068 0.58904 0.82289 0.0
H4290 H 0.42168 0.61072 0.87264 0.0
H4291 H 0.37246 0.52184 0.80397 0.0
H4292 H 0.43234 0.60402 0.80783 0.0
H4293 H 0.37738 0.51735 0.86964 0.0
H4294 H 0.391 0.55427 0.80529 0.0
H4295 H 0.40204 0.57865 0.87208 0.0
C4296 C 0.41982 0.60266 0.85831 0.0
C4297 C 0.42863 0.6103 0.84025 0.0
C4298 C 0.38798 0.54619 0.81942 0.0
C4299 C 0.40609 0.57366 0.8395 0.0
C4300 C 0.37733 0.52766 0.81868 0.0
C4301 C 0.37322 0.51676 0.83671 0.0
C4302 C 0.39445 0.55411 0.83833 0.0
C4303 C 0.38007 0.52517 0.85532 0.0
C4304 C 0.40867 0.58432 0.85801 0.0
C4305 C 0.42577 0.59899 0.82215 0.0
N4306 N 0.39025 0.54333 0.85565 0.0
N4307 N 0.41474 0.58141 0.82224 0.0
H4308 H 0.39989 0.4336 0.80921 0.0
H4309 H 0.48742 0.378 0.87324 0.0
H4310 H 0.39394 0.42315 0.87414 0.0
H4311 H 0.48146 0.37382 0.80763 0.0
H4312 H 0.45495 0.39664 0.87457 0.0
H4313 H 0.43136 0.4141 0.80916 0.0
C4314 C 0.40507 0.42712 0.82352 0.0
C4315 C 0.39393 0.42994 0.84171 0.0
C4316 C 0.46074 0.39154 0.85992 0.0
C4317 C 0.43063 0.40759 0.84171 0.0
C4318 C 0.47932 0.3809 0.8591 0.0
C4319 C 0.48726 0.37415 0.84027 0.0
C4320 C 0.45012 0.39577 0.84176 0.0
C4321 C 0.47602 0.37858 0.82251 0.0
C4322 C 0.42317 0.41593 0.82344 0.0
C4323 C 0.40185 0.42128 0.85973 0.0
N4324 N 0.45815 0.38915 0.82371 0.0
N4325 N 0.41978 0.41056 0.85929 0.0
H4326 H 0.57013 0.39998 0.80985 0.0
H4327 H 0.62543 0.4884 0.87264 0.0
H4328 H 0.58173 0.39417 0.87459 0.0
H4329 H 0.62976 0.48167 0.80711 0.0
H4330 H 0.60721 0.45571 0.87437 0.0
H4331 H 0.58949 0.43151 0.8094 0.0
C4332 C 0.57686 0.40518 0.82403 0.0
C4333 C 0.57439 0.39406 0.84228 0.0
C4334 C 0.61226 0.46138 0.85966 0.0
C4335 C 0.59654 0.43089 0.84183 0.0
C4336 C 0.62265 0.48008 0.85861 0.0
C4337 C 0.62933 0.48787 0.83968 0.0
C4338 C 0.60817 0.45049 0.84163 0.0
C4339 C 0.62505 0.47636 0.82206 0.0
C4340 C 0.58796 0.42334 0.82372 0.0
C4341 C 0.58333 0.40205 0.86013 0.0
N4342 N 0.6147 0.45838 0.82348 0.0
N4343 N 0.59393 0.42005 0.85948 0.0
H4344 H 0.5161 0.38018 0.13121 0.0
H4345 H 0.6046 0.43559 0.19381 0.0
H4346 H 0.52319 0.3755 0.19667 0.0
H4347 H 0.61013 0.42425 0.129 0.0
H4348 H 0.57312 0.41612 0.19434 0.0
H4349 H 0.54867 0.3986 0.12942 0.0
C4350 C 0.52447 0.38292 0.14521 0.0
C4351 C 0.51682 0.37608 0.16414 0.0
C4352 C 0.58122 0.41773 0.17999 0.0
C4353 C 0.55406 0.39748 0.16212 0.0
C4354 C 0.59934 0.4289 0.17963 0.0
C4355 C 0.61036 0.43147 0.16134 0.0
C4356 C 0.57361 0.40919 0.16189 0.0
C4357 C 0.60232 0.42256 0.14349 0.0
C4358 C 0.5431 0.39343 0.14413 0.0
C4359 C 0.52839 0.38033 0.18173 0.0
N4360 N 0.58436 0.4119 0.14419 0.0
N4361 N 0.5463 0.3908 0.18028 0.0
H4362 H 0.62594 0.51845 0.13051 0.0
H4363 H 0.56995 0.60541 0.19482 0.0
H4364 H 0.63059 0.52446 0.19609 0.0
H4365 H 0.58042 0.61175 0.12993 0.0
H4366 H 0.58978 0.57416 0.19476 0.0
H4367 H 0.60717 0.55084 0.1293 0.0
C4368 C 0.62312 0.52655 0.14466 0.0
C4369 C 0.63004 0.51864 0.16345 0.0
C4370 C 0.58789 0.58239 0.18052 0.0
C4371 C 0.60826 0.55568 0.1621 0.0
C4372 C 0.57652 0.60038 0.18049 0.0
C4373 C 0.5736 0.61155 0.16235 0.0
C4374 C 0.59632 0.57508 0.16223 0.0
C4375 C 0.58237 0.6038 0.14431 0.0
C4376 C 0.61241 0.54508 0.14391 0.0
C4377 C 0.6257 0.52987 0.18123 0.0
N4378 N 0.59326 0.58598 0.14468 0.0
N4379 N 0.61505 0.54769 0.18011 0.0
H4380 H 0.48125 0.63108 0.19903 0.0
H4381 H 0.39234 0.58184 0.13054 0.0
H4382 H 0.48562 0.62729 0.13326 0.0
H4383 H 0.39967 0.57126 0.1953 0.0
H4384 H 0.42443 0.60154 0.13079 0.0
H4385 H 0.44909 0.61228 0.19755 0.0
C4386 C 0.47546 0.62638 0.18424 0.0
C4387 C 0.48625 0.63091 0.16625 0.0
C4388 C 0.41889 0.59489 0.14491 0.0
C4389 C 0.44915 0.6093 0.16445 0.0
C4390 C 0.40055 0.58371 0.14479 0.0
C4391 C 0.39308 0.57494 0.16294 0.0
C4392 C 0.42969 0.5975 0.16333 0.0
C4393 C 0.40455 0.57779 0.18092 0.0
C4394 C 0.45706 0.61557 0.18342 0.0
C4395 C 0.47787 0.62427 0.14756 0.0
N4396 N 0.42212 0.58884 0.18064 0.0
N4397 N 0.4598 0.61388 0.14713 0.0
H4398 H 0.42134 0.39468 0.13085 0.0
H4399 H 0.37254 0.4828 0.20082 0.0
H4400 H 0.43332 0.40131 0.19543 0.0
H4401 H 0.37642 0.48764 0.13509 0.0
H4402 H 0.39128 0.45049 0.19903 0.0
H4403 H 0.40131 0.42649 0.13197 0.0
C4404 C 0.41968 0.40267 0.14526 0.0
C4405 C 0.42898 0.39509 0.16308 0.0
C4406 C 0.38798 0.45862 0.185 0.0
C4407 C 0.40601 0.43142 0.16447 0.0
C4408 C 0.37722 0.47708 0.186 0.0
C4409 C 0.37277 0.48805 0.16809 0.0
C4410 C 0.39421 0.45086 0.16594 0.0
C4411 C 0.37937 0.47977 0.14933 0.0
C4412 C 0.4083 0.42086 0.14587 0.0
C4413 C 0.42637 0.40629 0.18129 0.0
N4414 N 0.38967 0.46168 0.14875 0.0
N4415 N 0.41512 0.42373 0.1815 0.0
H4416 H 0.807 0.5234 0.6303 0.0
H4417 H 0.87636 0.61162 0.58104 0.0
H4418 H 0.87279 0.51866 0.62721 0.0
H4419 H 0.81198 0.60366 0.56869 0.0
H4420 H 0.87572 0.57986 0.60126 0.0
H4421 H 0.80885 0.55533 0.61112 0.0
C4422 C 0.82186 0.52907 0.62569 0.0
C4423 C 0.83976 0.51823 0.63051 0.0
C4424 C 0.86177 0.5852 0.59412 0.0
C4425 C 0.84198 0.55506 0.60848 0.0
C4426 C 0.86211 0.60335 0.58263 0.0
C4427 C 0.84418 0.61055 0.57321 0.0
C4428 C 0.84333 0.57433 0.59639 0.0
C4429 C 0.82619 0.599 0.57574 0.0
C4430 C 0.8229 0.54732 0.61466 0.0
C4431 C 0.85856 0.52645 0.62396 0.0
N4432 N 0.82623 0.58164 0.58709 0.0
N4433 N 0.85919 0.54438 0.61336 0.0
H4434 H 0.80704 0.48226 0.37312 0.0
H4435 H 0.87515 0.39352 0.42324 0.0
H4436 H 0.87287 0.48627 0.37635 0.0
H4437 H 0.81062 0.4019 0.43453 0.0
H4438 H 0.87505 0.42527 0.40297 0.0
H4439 H 0.80845 0.4504 0.3924 0.0
C4440 C 0.82183 0.47645 0.37779 0.0
C4441 C 0.83986 0.48707 0.37298 0.0
C4442 C 0.86095 0.42003 0.4099 0.0
C4443 C 0.84158 0.45028 0.39516 0.0
C4444 C 0.86097 0.40189 0.42141 0.0
C4445 C 0.84284 0.3948 0.43055 0.0
C4446 C 0.84263 0.43103 0.40732 0.0
C4447 C 0.82498 0.40647 0.42772 0.0
C4448 C 0.82262 0.45822 0.38888 0.0
C4449 C 0.85855 0.47865 0.37961 0.0
N4450 N 0.82533 0.42383 0.41635 0.0
N4451 N 0.85893 0.46074 0.39028 0.0
H4452 H 0.51637 0.87272 0.38055 0.0
H4453 H 0.60489 0.80958 0.43534 0.0
H4454 H 0.52321 0.80724 0.37556 0.0
H4455 H 0.61076 0.87435 0.42393 0.0
H4456 H 0.57328 0.80925 0.41607 0.0
H4457 H 0.54905 0.87431 0.3988 0.0
C4458 C 0.52471 0.85867 0.38319 0.0
C4459 C 0.51696 0.8398 0.37631 0.0
C4460 C 0.58149 0.82355 0.41763 0.0
C4461 C 0.55432 0.84159 0.39752 0.0
C4462 C 0.59968 0.82379 0.42868 0.0
C4463 C 0.61084 0.84202 0.43116 0.0
C4464 C 0.57394 0.8417 0.40912 0.0
C4465 C 0.60284 0.85991 0.42231 0.0
C4466 C 0.54341 0.85964 0.3936 0.0
C4467 C 0.52849 0.82215 0.38043 0.0
N4468 N 0.58482 0.85933 0.41176 0.0
N4469 N 0.54646 0.82348 0.39081 0.0
H4470 H 0.19768 0.60378 0.43186 0.0
H4471 H 0.1344 0.51405 0.37934 0.0
H4472 H 0.13267 0.60856 0.42131 0.0
H4473 H 0.19979 0.52074 0.37318 0.0
H4474 H 0.13306 0.54697 0.39699 0.0
H4475 H 0.19821 0.57196 0.41284 0.0
C4476 C 0.18346 0.59829 0.42543 0.0
C4477 C 0.1651 0.60918 0.4281 0.0
C4478 C 0.14767 0.54126 0.39168 0.0
C4479 C 0.16566 0.57208 0.4064 0.0
C4480 C 0.1485 0.52241 0.3816 0.0
C4481 C 0.16726 0.51453 0.37456 0.0
C4482 C 0.16576 0.55226 0.39513 0.0
C4483 C 0.18497 0.52613 0.3782 0.0
C4484 C 0.18383 0.57998 0.41454 0.0
C4485 C 0.14721 0.60085 0.41956 0.0
N4486 N 0.18378 0.54429 0.38829 0.0
N4487 N 0.14792 0.58274 0.40919 0.0
H4488 H 0.48161 0.19887 0.37361 0.0
H4489 H 0.39324 0.12959 0.42276 0.0
H4490 H 0.48631 0.13311 0.37711 0.0
H4491 H 0.40044 0.19423 0.43419 0.0
H4492 H 0.42519 0.13022 0.40286 0.0
H4493 H 0.44953 0.19714 0.39257 0.0
C4494 C 0.4759 0.18404 0.37827 0.0
C4495 C 0.48677 0.16611 0.37362 0.0
C4496 C 0.41965 0.14423 0.40973 0.0
C4497 C 0.44977 0.16403 0.39539 0.0
C4498 C 0.40139 0.1439 0.42103 0.0
C4499 C 0.39393 0.16189 0.4301 0.0
C4500 C 0.43038 0.16272 0.40729 0.0
C4501 C 0.40533 0.17995 0.42741 0.0
C4502 C 0.45756 0.18307 0.38916 0.0
C4503 C 0.4785 0.14735 0.38022 0.0
N4504 N 0.42282 0.17989 0.41624 0.0
N4505 N 0.46048 0.14679 0.39069 0.0
H4506 H 0.13546 0.4895 0.62542 0.0
H4507 H 0.19891 0.39949 0.57353 0.0
H4508 H 0.20079 0.48266 0.63201 0.0
H4509 H 0.13373 0.39513 0.58323 0.0
H4510 H 0.19939 0.4313 0.59256 0.0
H4511 H 0.13416 0.45659 0.60777 0.0
C4512 C 0.14955 0.48111 0.62326 0.0
C4513 C 0.16829 0.48895 0.63041 0.0
C4514 C 0.18498 0.42337 0.59067 0.0
C4515 C 0.16683 0.45122 0.60984 0.0
C4516 C 0.18464 0.40507 0.57977 0.0
C4517 C 0.16624 0.3943 0.57685 0.0
C4518 C 0.16676 0.4314 0.59858 0.0
C4519 C 0.1483 0.40274 0.58518 0.0
C4520 C 0.14875 0.46226 0.61317 0.0
C4521 C 0.18599 0.47731 0.62689 0.0
N4522 N 0.14899 0.42084 0.59556 0.0
N4523 N 0.18483 0.45914 0.6168 0.0
H4524 H 0.61096 0.12865 0.58082 0.0
H4525 H 0.52269 0.19813 0.62994 0.0
H4526 H 0.60442 0.19351 0.57035 0.0
H4527 H 0.51782 0.13238 0.6266 0.0
H4528 H 0.55484 0.1963 0.61119 0.0
H4529 H 0.57893 0.12926 0.60059 0.0
C4530 C 0.60295 0.14301 0.58275 0.0
C4531 C 0.61062 0.16107 0.57396 0.0
C4532 C 0.54677 0.18224 0.61456 0.0
C4533 C 0.57403 0.16186 0.59661 0.0
C4534 C 0.52837 0.18327 0.62535 0.0
C4535 C 0.51742 0.16539 0.62999 0.0
C4536 C 0.55455 0.16318 0.60841 0.0
C4537 C 0.52568 0.14659 0.62347 0.0
C4538 C 0.58463 0.14332 0.59397 0.0
C4539 C 0.59938 0.17918 0.57689 0.0
N4540 N 0.54376 0.14598 0.61309 0.0
N4541 N 0.58182 0.1791 0.58797 0.0
H4542 H 0.48226 0.8047 0.63187 0.0
H4543 H 0.39311 0.87343 0.58326 0.0
H4544 H 0.48689 0.87038 0.627 0.0
H4545 H 0.40013 0.80873 0.5721 0.0
H4546 H 0.42528 0.87288 0.60276 0.0
H4547 H 0.44979 0.80611 0.61344 0.0
C4548 C 0.47647 0.81943 0.62702 0.0
C4549 C 0.48742 0.83744 0.63113 0.0
C4550 C 0.41965 0.85884 0.59606 0.0
C4551 C 0.45001 0.83917 0.61002 0.0
C4552 C 0.40126 0.85912 0.58498 0.0
C4553 C 0.39368 0.84109 0.57608 0.0
C4554 C 0.43041 0.84035 0.59845 0.0
C4555 C 0.4051 0.82303 0.57875 0.0
C4556 C 0.45791 0.82022 0.61644 0.0
C4557 C 0.47903 0.85608 0.62432 0.0
N4558 N 0.42273 0.82313 0.58971 0.0
N4559 N 0.46083 0.85646 0.6142 0.0
loop_
_geom_bond_atom_site_label_1
_geom_bond_atom_site_label_2
_geom_bond_distance
_geom_bond_site_symmetry_2
_ccdc_geom_bond_type
Co0 O2 2.143 . S
Co0 O8 2.074 . S
Co0 O11 2.093 . S
Co0 O24 2.097 . S
Co0 N41 2.151 . S
Co0 N49 2.214 . S
Co1 O2 2.160 . S
Co1 O7 2.058 . S
Co1 O17 2.057 . S
Co1 O32 2.037 . S
Co1 N36 2.145 . S
Co1 N57 2.257 . S
O2 Co0 2.143 . S
O2 Co1 2.160 . S
C3 O4 1.278 . S
C3 O11 1.224 . S
O4 C3 1.278 . S
C5 O6 1.245 . S
C5 O17 1.232 . S
O6 C5 1.245 . S
O7 Co1 2.058 . S
O7 C33 1.269 . S
O8 Co0 2.074 . S
O8 C33 1.257 . S
H9 C34 0.930 . S
H10 C40 0.930 . S
O11 Co0 2.093 . S
O11 C3 1.224 . S
H12 C44 0.929 . S
H13 C46 0.930 . S
H14 C47 0.930 . S
H15 C45 0.929 . S
H16 C48 0.928 . S
O17 Co1 2.057 . S
O17 C5 1.232 . S
H18 C37 0.929 . S
H19 C38 0.929 . S
H20 C50 0.931 . S
H21 C42 0.929 . S
H22 C51 0.930 . S
H23 C43 0.931 . S
O24 Co0 2.097 . S
O24 C52 1.206 1_455 S
H25 C53 0.929 . S
H26 C54 0.929 . S
H27 C55 0.930 . S
H28 C56 0.929 . S
H29 C58 0.930 . S
H30 C35 0.930 . S
H31 C39 0.930 . S
O32 Co1 2.037 . S
O32 C52 1.214 1_455 S
C33 O7 1.269 . S
C33 O8 1.257 . S
C34 H9 0.930 . S
C34 C37 1.388 . S
C34 C39 1.418 . S
C35 H30 0.930 . S
C35 C38 1.404 . S
C35 C39 1.353 . S
N36 Co1 2.145 . S
N36 C37 1.397 . S
N36 C38 1.334 . S
C37 H18 0.929 . S
C37 C34 1.388 . S
C37 N36 1.397 . S
C38 H19 0.929 . S
C38 C35 1.404 . S
C38 N36 1.334 . S
C39 H31 0.930 . S
C39 C34 1.418 . S
C39 C35 1.353 . S
C40 H10 0.930 . S
C40 N41 1.330 . S
C40 C42 1.446 . S
N41 Co0 2.151 . S
N41 C40 1.330 . S
N41 C45 1.418 . S
C42 H21 0.929 . S
C42 C40 1.446 . S
C42 C43 1.332 . S
C43 H23 0.931 . S
C43 C42 1.332 . S
C43 C44 1.267 . S
C44 H12 0.929 . S
C44 C43 1.267 . S
C44 C45 1.251 . S
C45 H15 0.929 . S
C45 N41 1.418 . S
C45 C44 1.251 . S
C46 H13 0.930 . S
C46 C48 1.406 . S
C46 C51 1.261 . S
C47 H14 0.930 . S
C47 N49 1.325 . S
C47 C50 1.357 . S
C48 H16 0.928 . S
C48 C46 1.406 . S
C48 N49 1.261 . S
N49 Co0 2.214 . S
N49 C47 1.325 . S
N49 C48 1.261 . S
C50 H20 0.931 . S
C50 C47 1.357 . S
C50 C51 1.312 . S
C51 H22 0.930 . S
C51 C46 1.261 . S
C51 C50 1.312 . S
C52 O24 1.206 1_655 S
C52 O32 1.214 1_655 S
C53 H25 0.929 . S
C53 C56 1.391 . S
C53 C58 1.391 1_655 S
C54 H26 0.929 . S
C54 C55 1.390 . S
C54 N57 1.391 1_655 S
C55 H27 0.930 . S
C55 C54 1.390 . S
C55 C56 1.392 . S
C56 H28 0.929 . S
C56 C53 1.391 . S
C56 C55 1.392 . S
N57 Co1 2.257 . S
N57 C54 1.391 1_455 S
N57 C58 1.388 . S
C58 H29 0.930 . S
C58 C53 1.391 1_455 S
C58 N57 1.388 . S
Co59 O61 2.143 . S
Co59 O67 2.074 . S
Co59 O70 2.093 . S
Co59 O83 2.097 . S
Co59 N100 2.151 . S
Co59 N108 2.214 . S
Co60 O61 2.160 . S
Co60 O66 2.058 . S
Co60 O76 2.057 . S
Co60 O91 2.037 . S
Co60 N95 2.145 . S
Co60 N116 2.257 . S
O61 Co59 2.143 . S
O61 Co60 2.160 . S
C62 O63 1.278 . S
C62 O70 1.224 . S
O63 C62 1.278 . S
C64 O65 1.245 . S
C64 O76 1.232 . S
O65 C64 1.245 . S
O66 Co60 2.058 . S
O66 C92 1.270 1_545 S
O67 Co59 2.074 . S
O67 C92 1.258 1_545 S
H68 C93 0.930 . S
H69 C99 0.930 . S
O70 Co59 2.093 . S
O70 C62 1.224 . S
H71 C103 0.929 . S
H72 C105 0.930 . S
H73 C106 0.930 . S
H74 C104 0.929 . S
H75 C107 0.928 . S
O76 Co60 2.057 . S
O76 C64 1.232 . S
H77 C96 0.929 . S
H78 C97 0.929 . S
H79 C109 0.931 . S
H80 C101 0.929 . S
H81 C110 0.930 . S
H82 C102 0.931 . S
O83 Co59 2.097 . S
O83 C111 1.214 . S
H84 C112 0.929 . S
H85 C113 0.929 . S
H86 C114 0.930 . S
H87 C115 0.929 . S
H88 C117 0.930 . S
H89 C94 0.930 . S
H90 C98 0.930 . S
O91 Co60 2.037 . S
O91 C111 1.234 . S
C92 O66 1.270 1_565 S
C92 O67 1.258 1_565 S
C93 H68 0.930 . S
C93 C96 1.388 . S
C93 C98 1.418 . S
C94 H89 0.930 . S
C94 C97 1.404 . S
C94 C98 1.353 . S
N95 Co60 2.145 . S
N95 C96 1.397 . S
N95 C97 1.334 . S
C96 H77 0.929 . S
C96 C93 1.388 . S
C96 N95 1.397 . S
C97 H78 0.929 . S
C97 C94 1.404 . S
C97 N95 1.334 . S
C98 H90 0.930 . S
C98 C93 1.418 . S
C98 C94 1.353 . S
C99 H69 0.930 . S
C99 N100 1.330 . S
C99 C101 1.446 1_545 S
N100 Co59 2.151 . S
N100 C99 1.330 . S
N100 C104 1.418 1_545 S
C101 H80 0.929 . S
C101 C99 1.446 1_565 S
C101 C102 1.332 . S
C102 H82 0.931 . S
C102 C101 1.332 . S
C102 C103 1.267 . S
C103 H71 0.929 . S
C103 C102 1.267 . S
C103 C104 1.251 . S
C104 H74 0.929 . S
C104 N100 1.418 1_565 S
C104 C103 1.251 . S
C105 H72 0.930 . S
C105 C107 1.406 . S
C105 C110 1.261 . S
C106 H73 0.930 . S
C106 N108 1.325 . S
C106 C109 1.357 . S
C107 H75 0.928 . S
C107 C105 1.406 . S
C107 N108 1.261 . S
N108 Co59 2.214 . S
N108 C106 1.325 . S
N108 C107 1.261 . S
C109 H79 0.931 . S
C109 C106 1.357 . S
C109 C110 1.312 . S
C110 H81 0.930 . S
C110 C105 1.261 . S
C110 C109 1.312 . S
C111 O83 1.214 . S
C111 O91 1.234 . S
C112 H84 0.929 . S
C112 C115 1.391 . S
C112 C117 1.391 . S
C113 H85 0.929 . S
C113 C114 1.390 . S
C113 N116 1.391 . S
C114 H86 0.930 . S
C114 C113 1.390 . S
C114 C115 1.392 . S
C115 H87 0.929 . S
C115 C112 1.391 . S
C115 C114 1.392 . S
N116 Co60 2.257 . S
N116 C113 1.391 . S
N116 C117 1.388 . S
C117 H88 0.930 . S
C117 C112 1.391 . S
C117 N116 1.388 . S
Co118 O120 2.143 . S
Co118 O126 2.074 . S
Co118 O129 2.093 . S
Co118 O142 2.097 . S
Co118 N159 2.151 . S
Co118 N167 2.214 . S
Co119 O120 2.160 . S
Co119 O125 2.058 . S
Co119 O135 2.057 . S
Co119 O150 2.037 . S
Co119 N154 2.145 . S
Co119 N175 2.257 . S
O120 Co118 2.143 . S
O120 Co119 2.160 . S
C121 O122 1.278 . S
C121 O129 1.224 . S
O122 C121 1.278 . S
C123 O124 1.245 . S
C123 O135 1.232 . S
O124 C123 1.245 . S
O125 Co119 2.058 . S
O125 C151 1.269 . S
O126 Co118 2.074 . S
O126 C151 1.257 . S
H127 C152 0.930 . S
H128 C158 0.930 . S
O129 Co118 2.093 . S
O129 C121 1.224 . S
H130 C162 0.929 . S
H131 C164 0.930 . S
H132 C165 0.930 . S
H133 C163 0.929 . S
H134 C166 0.928 . S
O135 Co119 2.057 . S
O135 C123 1.232 . S
H136 C155 0.929 . S
H137 C156 0.929 . S
H138 C168 0.931 . S
H139 C160 0.929 . S
H140 C169 0.930 . S
H141 C161 0.931 . S
O142 Co118 2.097 . S
O142 C170 1.206 1_655 S
H143 C171 0.929 . S
H144 C172 0.929 . S
H145 C173 0.930 . S
H146 C174 0.929 . S
H147 C176 0.930 . S
H148 C153 0.930 . S
H149 C157 0.930 . S
O150 Co119 2.037 . S
O150 C170 1.214 1_655 S
C151 O125 1.269 . S
C151 O126 1.257 . S
C152 H127 0.930 . S
C152 C155 1.388 . S
C152 C157 1.418 . S
C153 H148 0.930 . S
C153 C156 1.404 . S
C153 C157 1.353 . S
N154 Co119 2.145 . S
N154 C155 1.397 . S
N154 C156 1.334 . S
C155 H136 0.929 . S
C155 C152 1.388 . S
C155 N154 1.397 . S
C156 H137 0.929 . S
C156 C153 1.404 . S
C156 N154 1.334 . S
C157 H149 0.930 . S
C157 C152 1.418 . S
C157 C153 1.353 . S
C158 H128 0.930 . S
C158 N159 1.330 . S
C158 C160 1.446 . S
N159 Co118 2.151 . S
N159 C158 1.330 . S
N159 C163 1.418 . S
C160 H139 0.929 . S
C160 C158 1.446 . S
C160 C161 1.332 . S
C161 H141 0.931 . S
C161 C160 1.332 . S
C161 C162 1.267 . S
C162 H130 0.929 . S
C162 C161 1.267 . S
C162 C163 1.251 . S
C163 H133 0.929 . S
C163 N159 1.418 . S
C163 C162 1.251 . S
C164 H131 0.930 . S
C164 C166 1.406 . S
C164 C169 1.261 . S
C165 H132 0.930 . S
C165 N167 1.325 . S
C165 C168 1.357 . S
C166 H134 0.928 . S
C166 C164 1.406 . S
C166 N167 1.261 . S
N167 Co118 2.214 . S
N167 C165 1.325 . S
N167 C166 1.261 . S
C168 H138 0.931 . S
C168 C165 1.357 . S
C168 C169 1.312 . S
C169 H140 0.930 . S
C169 C164 1.261 . S
C169 C168 1.312 . S
C170 O142 1.206 1_455 S
C170 O150 1.214 1_455 S
C171 H143 0.929 . S
C171 C174 1.391 . S
C171 C176 1.391 1_455 S
C172 H144 0.929 . S
C172 C173 1.390 . S
C172 N175 1.391 1_455 S
C173 H145 0.930 . S
C173 C172 1.390 . S
C173 C174 1.392 . S
C174 H146 0.929 . S
C174 C171 1.391 . S
C174 C173 1.392 . S
N175 Co119 2.257 . S
N175 C172 1.391 1_655 S
N175 C176 1.388 . S
C176 H147 0.930 . S
C176 C171 1.391 1_655 S
C176 N175 1.388 . S
Co177 O179 2.143 . S
Co177 O185 2.074 . S
Co177 O188 2.093 . S
Co177 O201 2.097 . S
Co177 N218 2.151 . S
Co177 N226 2.214 . S
Co178 O179 2.160 . S
Co178 O184 2.058 . S
Co178 O194 2.057 . S
Co178 O209 2.037 . S
Co178 N213 2.145 . S
Co178 N234 2.257 . S
O179 Co177 2.143 . S
O179 Co178 2.160 . S
C180 O181 1.278 . S
C180 O188 1.224 . S
O181 C180 1.278 . S
C182 O183 1.245 . S
C182 O194 1.232 . S
O183 C182 1.245 . S
O184 Co178 2.058 . S
O184 C210 1.270 1_565 S
O185 Co177 2.074 . S
O185 C210 1.258 1_565 S
H186 C211 0.930 . S
H187 C217 0.930 . S
O188 Co177 2.093 . S
O188 C180 1.224 . S
H189 C221 0.929 . S
H190 C223 0.930 . S
H191 C224 0.930 . S
H192 C222 0.929 . S
H193 C225 0.928 . S
O194 Co178 2.057 . S
O194 C182 1.232 . S
H195 C214 0.929 . S
H196 C215 0.929 . S
H197 C227 0.931 . S
H198 C219 0.929 . S
H199 C228 0.930 . S
H200 C220 0.931 . S
O201 Co177 2.097 . S
O201 C229 1.214 . S
H202 C230 0.929 . S
H203 C231 0.929 . S
H204 C232 0.930 . S
H205 C233 0.929 . S
H206 C235 0.930 . S
H207 C212 0.930 . S
H208 C216 0.930 . S
O209 Co178 2.037 . S
O209 C229 1.234 . S
C210 O184 1.270 1_545 S
C210 O185 1.258 1_545 S
C211 H186 0.930 . S
C211 C214 1.388 . S
C211 C216 1.418 . S
C212 H207 0.930 . S
C212 C215 1.404 . S
C212 C216 1.353 . S
N213 Co178 2.145 . S
N213 C214 1.397 . S
N213 C215 1.334 . S
C214 H195 0.929 . S
C214 C211 1.388 . S
C214 N213 1.397 . S
C215 H196 0.929 . S
C215 C212 1.404 . S
C215 N213 1.334 . S
C216 H208 0.930 . S
C216 C211 1.418 . S
C216 C212 1.353 . S
C217 H187 0.930 . S
C217 N218 1.330 . S
C217 C219 1.446 1_565 S
N218 Co177 2.151 . S
N218 C217 1.330 . S
N218 C222 1.418 1_565 S
C219 H198 0.929 . S
C219 C217 1.446 1_545 S
C219 C220 1.332 . S
C220 H200 0.931 . S
C220 C219 1.332 . S
C220 C221 1.267 . S
C221 H189 0.929 . S
C221 C220 1.267 . S
C221 C222 1.251 . S
C222 H192 0.929 . S
C222 N218 1.418 1_545 S
C222 C221 1.251 . S
C223 H190 0.930 . S
C223 C225 1.406 . S
C223 C228 1.261 . S
C224 H191 0.930 . S
C224 N226 1.325 . S
C224 C227 1.357 . S
C225 H193 0.928 . S
C225 C223 1.406 . S
C225 N226 1.261 . S
N226 Co177 2.214 . S
N226 C224 1.325 . S
N226 C225 1.261 . S
C227 H197 0.931 . S
C227 C224 1.357 . S
C227 C228 1.312 . S
C228 H199 0.930 . S
C228 C223 1.261 . S
C228 C227 1.312 . S
C229 O201 1.214 . S
C229 O209 1.234 . S
C230 H202 0.929 . S
C230 C233 1.391 . S
C230 C235 1.391 . S
C231 H203 0.929 . S
C231 C232 1.390 . S
C231 N234 1.391 . S
C232 H204 0.930 . S
C232 C231 1.390 . S
C232 C233 1.392 . S
C233 H205 0.929 . S
C233 C230 1.391 . S
C233 C232 1.392 . S
N234 Co178 2.257 . S
N234 C231 1.391 . S
N234 C235 1.388 . S
C235 H206 0.930 . S
C235 C230 1.391 . S
C235 N234 1.388 . S
Co236 O238 2.143 . S
Co236 O244 2.074 . S
Co236 O247 2.093 . S
Co236 O260 2.097 . S
Co236 N277 2.151 . S
Co236 N285 2.214 . S
Co237 O238 2.160 . S
Co237 O243 2.058 . S
Co237 O253 2.057 . S
Co237 O268 2.037 . S
Co237 N272 2.145 . S
Co237 N293 2.257 . S
O238 Co236 2.143 . S
O238 Co237 2.160 . S
C239 O240 1.278 . S
C239 O247 1.224 . S
O240 C239 1.278 . S
C241 O242 1.245 . S
C241 O253 1.232 . S
O242 C241 1.245 . S
O243 Co237 2.058 . S
O243 C269 1.269 . S
O244 Co236 2.074 . S
O244 C269 1.257 . S
H245 C270 0.930 . S
H246 C276 0.930 . S
O247 Co236 2.093 . S
O247 C239 1.224 . S
H248 C280 0.929 . S
H249 C282 0.930 . S
H250 C283 0.930 . S
H251 C281 0.929 . S
H252 C284 0.928 . S
O253 Co237 2.057 . S
O253 C241 1.232 . S
H254 C273 0.929 . S
H255 C274 0.929 . S
H256 C286 0.931 . S
H257 C278 0.929 . S
H258 C287 0.930 . S
H259 C279 0.931 . S
O260 Co236 2.097 . S
O260 C288 1.206 1_455 S
H261 C289 0.929 . S
H262 C290 0.929 . S
H263 C291 0.930 . S
H264 C292 0.929 . S
H265 C294 0.930 . S
H266 C271 0.930 . S
H267 C275 0.930 . S
O268 Co237 2.037 . S
O268 C288 1.214 1_455 S
C269 O243 1.269 . S
C269 O244 1.257 . S
C270 H245 0.930 . S
C270 C273 1.388 . S
C270 C275 1.418 . S
C271 H266 0.930 . S
C271 C274 1.404 . S
C271 C275 1.353 . S
N272 Co237 2.145 . S
N272 C273 1.397 . S
N272 C274 1.334 . S
C273 H254 0.929 . S
C273 C270 1.388 . S
C273 N272 1.397 . S
C274 H255 0.929 . S
C274 C271 1.404 . S
C274 N272 1.334 . S
C275 H267 0.930 . S
C275 C270 1.418 . S
C275 C271 1.353 . S
C276 H246 0.930 . S
C276 N277 1.330 . S
C276 C278 1.446 . S
N277 Co236 2.151 . S
N277 C276 1.330 . S
N277 C281 1.418 . S
C278 H257 0.929 . S
C278 C276 1.446 . S
C278 C279 1.332 . S
C279 H259 0.931 . S
C279 C278 1.332 . S
C279 C280 1.267 . S
C280 H248 0.929 . S
C280 C279 1.267 . S
C280 C281 1.251 . S
C281 H251 0.929 . S
C281 N277 1.418 . S
C281 C280 1.251 . S
C282 H249 0.930 . S
C282 C284 1.406 . S
C282 C287 1.261 . S
C283 H250 0.930 . S
C283 N285 1.325 . S
C283 C286 1.357 . S
C284 H252 0.928 . S
C284 C282 1.406 . S
C284 N285 1.261 . S
N285 Co236 2.214 . S
N285 C283 1.325 . S
N285 C284 1.261 . S
C286 H256 0.931 . S
C286 C283 1.357 . S
C286 C287 1.312 . S
C287 H258 0.930 . S
C287 C282 1.261 . S
C287 C286 1.312 . S
C288 O260 1.206 1_655 S
C288 O268 1.214 1_655 S
C289 H261 0.929 . S
C289 C292 1.391 . S
C289 C294 1.391 1_655 S
C290 H262 0.929 . S
C290 C291 1.390 . S
C290 N293 1.391 1_655 S
C291 H263 0.930 . S
C291 C290 1.390 . S
C291 C292 1.392 . S
C292 H264 0.929 . S
C292 C289 1.391 . S
C292 C291 1.392 . S
N293 Co237 2.257 . S
N293 C290 1.391 1_455 S
N293 C294 1.388 . S
C294 H265 0.930 . S
C294 C289 1.391 1_455 S
C294 N293 1.388 . S
Co295 O297 2.143 . S
Co295 O303 2.074 . S
Co295 O306 2.093 . S
Co295 O319 2.097 . S
Co295 N336 2.151 . S
Co295 N344 2.214 . S
Co296 O297 2.160 . S
Co296 O302 2.058 . S
Co296 O312 2.057 . S
Co296 O327 2.037 . S
Co296 N331 2.145 . S
Co296 N352 2.257 . S
O297 Co295 2.143 . S
O297 Co296 2.160 . S
C298 O299 1.278 . S
C298 O306 1.224 . S
O299 C298 1.278 . S
C300 O301 1.245 . S
C300 O312 1.232 . S
O301 C300 1.245 . S
O302 Co296 2.058 . S
O302 C328 1.270 1_545 S
O303 Co295 2.074 . S
O303 C328 1.258 1_545 S
H304 C329 0.930 . S
H305 C335 0.930 . S
O306 Co295 2.093 . S
O306 C298 1.224 . S
H307 C339 0.929 . S
H308 C341 0.930 . S
H309 C342 0.930 . S
H310 C340 0.929 . S
H311 C343 0.928 . S
O312 Co296 2.057 . S
O312 C300 1.232 . S
H313 C332 0.929 . S
H314 C333 0.929 . S
H315 C345 0.931 . S
H316 C337 0.929 . S
H317 C346 0.930 . S
H318 C338 0.931 . S
O319 Co295 2.097 . S
O319 C347 1.214 . S
H320 C348 0.929 . S
H321 C349 0.929 . S
H322 C350 0.930 . S
H323 C351 0.929 . S
H324 C353 0.930 . S
H325 C330 0.930 . S
H326 C334 0.930 . S
O327 Co296 2.037 . S
O327 C347 1.234 . S
C328 O302 1.270 1_565 S
C328 O303 1.258 1_565 S
C329 H304 0.930 . S
C329 C332 1.388 . S
C329 C334 1.418 . S
C330 H325 0.930 . S
C330 C333 1.404 . S
C330 C334 1.353 . S
N331 Co296 2.145 . S
N331 C332 1.397 . S
N331 C333 1.334 . S
C332 H313 0.929 . S
C332 C329 1.388 . S
C332 N331 1.397 . S
C333 H314 0.929 . S
C333 C330 1.404 . S
C333 N331 1.334 . S
C334 H326 0.930 . S
C334 C329 1.418 . S
C334 C330 1.353 . S
C335 H305 0.930 . S
C335 N336 1.330 . S
C335 C337 1.446 1_545 S
N336 Co295 2.151 . S
N336 C335 1.330 . S
N336 C340 1.418 1_545 S
C337 H316 0.929 . S
C337 C335 1.446 1_565 S
C337 C338 1.332 . S
C338 H318 0.931 . S
C338 C337 1.332 . S
C338 C339 1.267 . S
C339 H307 0.929 . S
C339 C338 1.267 . S
C339 C340 1.251 . S
C340 H310 0.929 . S
C340 N336 1.418 1_565 S
C340 C339 1.251 . S
C341 H308 0.930 . S
C341 C343 1.406 . S
C341 C346 1.261 . S
C342 H309 0.930 . S
C342 N344 1.325 . S
C342 C345 1.357 . S
C343 H311 0.928 . S
C343 C341 1.406 . S
C343 N344 1.261 . S
N344 Co295 2.214 . S
N344 C342 1.325 . S
N344 C343 1.261 . S
C345 H315 0.931 . S
C345 C342 1.357 . S
C345 C346 1.312 . S
C346 H317 0.930 . S
C346 C341 1.261 . S
C346 C345 1.312 . S
C347 O319 1.214 . S
C347 O327 1.234 . S
C348 H320 0.929 . S
C348 C351 1.391 . S
C348 C353 1.391 . S
C349 H321 0.929 . S
C349 C350 1.390 . S
C349 N352 1.391 . S
C350 H322 0.930 . S
C350 C349 1.390 . S
C350 C351 1.392 . S
C351 H323 0.929 . S
C351 C348 1.391 . S
C351 C350 1.392 . S
N352 Co296 2.257 . S
N352 C349 1.391 . S
N352 C353 1.388 . S
C353 H324 0.930 . S
C353 C348 1.391 . S
C353 N352 1.388 . S
Co354 O356 2.143 . S
Co354 O362 2.074 . S
Co354 O365 2.093 . S
Co354 O378 2.097 . S
Co354 N395 2.151 . S
Co354 N403 2.214 . S
Co355 O356 2.160 . S
Co355 O361 2.058 . S
Co355 O371 2.057 . S
Co355 O386 2.037 . S
Co355 N390 2.145 . S
Co355 N411 2.257 . S
O356 Co354 2.143 . S
O356 Co355 2.160 . S
C357 O358 1.278 . S
C357 O365 1.224 . S
O358 C357 1.278 . S
C359 O360 1.245 . S
C359 O371 1.232 . S
O360 C359 1.245 . S
O361 Co355 2.058 . S
O361 C387 1.269 . S
O362 Co354 2.074 . S
O362 C387 1.257 . S
H363 C388 0.930 . S
H364 C394 0.930 . S
O365 Co354 2.093 . S
O365 C357 1.224 . S
H366 C398 0.929 . S
H367 C400 0.930 . S
H368 C401 0.930 . S
H369 C399 0.929 . S
H370 C402 0.928 . S
O371 Co355 2.057 . S
O371 C359 1.232 . S
H372 C391 0.929 . S
H373 C392 0.929 . S
H374 C404 0.931 . S
H375 C396 0.929 . S
H376 C405 0.930 . S
H377 C397 0.931 . S
O378 Co354 2.097 . S
O378 C406 1.206 1_655 S
H379 C407 0.929 . S
H380 C408 0.929 . S
H381 C409 0.930 . S
H382 C410 0.929 . S
H383 C412 0.930 . S
H384 C389 0.930 . S
H385 C393 0.930 . S
O386 Co355 2.037 . S
O386 C406 1.214 1_655 S
C387 O361 1.269 . S
C387 O362 1.257 . S
C388 H363 0.930 . S
C388 C391 1.388 . S
C388 C393 1.418 . S
C389 H384 0.930 . S
C389 C392 1.404 . S
C389 C393 1.353 . S
N390 Co355 2.145 . S
N390 C391 1.397 . S
N390 C392 1.334 . S
C391 H372 0.929 . S
C391 C388 1.388 . S
C391 N390 1.397 . S
C392 H373 0.929 . S
C392 C389 1.404 . S
C392 N390 1.334 . S
C393 H385 0.930 . S
C393 C388 1.418 . S
C393 C389 1.353 . S
C394 H364 0.930 . S
C394 N395 1.330 . S
C394 C396 1.446 . S
N395 Co354 2.151 . S
N395 C394 1.330 . S
N395 C399 1.418 . S
C396 H375 0.929 . S
C396 C394 1.446 . S
C396 C397 1.332 . S
C397 H377 0.931 . S
C397 C396 1.332 . S
C397 C398 1.267 . S
C398 H366 0.929 . S
C398 C397 1.267 . S
C398 C399 1.251 . S
C399 H369 0.929 . S
C399 N395 1.418 . S
C399 C398 1.251 . S
C400 H367 0.930 . S
C400 C402 1.406 . S
C400 C405 1.261 . S
C401 H368 0.930 . S
C401 N403 1.325 . S
C401 C404 1.357 . S
C402 H370 0.928 . S
C402 C400 1.406 . S
C402 N403 1.261 . S
N403 Co354 2.214 . S
N403 C401 1.325 . S
N403 C402 1.261 . S
C404 H374 0.931 . S
C404 C401 1.357 . S
C404 C405 1.312 . S
C405 H376 0.930 . S
C405 C400 1.261 . S
C405 C404 1.312 . S
C406 O378 1.206 1_455 S
C406 O386 1.214 1_455 S
C407 H379 0.929 . S
C407 C410 1.391 . S
C407 C412 1.391 1_455 S
C408 H380 0.929 . S
C408 C409 1.390 . S
C408 N411 1.391 1_455 S
C409 H381 0.930 . S
C409 C408 1.390 . S
C409 C410 1.392 . S
C410 H382 0.929 . S
C410 C407 1.391 . S
C410 C409 1.392 . S
N411 Co355 2.257 . S
N411 C408 1.391 1_655 S
N411 C412 1.388 . S
C412 H383 0.930 . S
C412 C407 1.391 1_655 S
C412 N411 1.388 . S
Co413 O415 2.143 . S
Co413 O421 2.074 . S
Co413 O424 2.093 . S
Co413 O437 2.097 . S
Co413 N454 2.151 . S
Co413 N462 2.214 . S
Co414 O415 2.160 . S
Co414 O420 2.058 . S
Co414 O430 2.057 . S
Co414 O445 2.037 . S
Co414 N449 2.145 . S
Co414 N470 2.257 . S
O415 Co413 2.143 . S
O415 Co414 2.160 . S
C416 O417 1.278 . S
C416 O424 1.224 . S
O417 C416 1.278 . S
C418 O419 1.245 . S
C418 O430 1.232 . S
O419 C418 1.245 . S
O420 Co414 2.058 . S
O420 C446 1.270 1_565 S
O421 Co413 2.074 . S
O421 C446 1.258 1_565 S
H422 C447 0.930 . S
H423 C453 0.930 . S
O424 Co413 2.093 . S
O424 C416 1.224 . S
H425 C457 0.929 . S
H426 C459 0.930 . S
H427 C460 0.930 . S
H428 C458 0.929 . S
H429 C461 0.928 . S
O430 Co414 2.057 . S
O430 C418 1.232 . S
H431 C450 0.929 . S
H432 C451 0.929 . S
H433 C463 0.931 . S
H434 C455 0.929 . S
H435 C464 0.930 . S
H436 C456 0.931 . S
O437 Co413 2.097 . S
O437 C465 1.214 . S
H438 C466 0.929 . S
H439 C467 0.929 . S
H440 C468 0.930 . S
H441 C469 0.929 . S
H442 C471 0.930 . S
H443 C448 0.930 . S
H444 C452 0.930 . S
O445 Co414 2.037 . S
O445 C465 1.234 . S
C446 O420 1.270 1_545 S
C446 O421 1.258 1_545 S
C447 H422 0.930 . S
C447 C450 1.388 . S
C447 C452 1.418 . S
C448 H443 0.930 . S
C448 C451 1.404 . S
C448 C452 1.353 . S
N449 Co414 2.145 . S
N449 C450 1.397 . S
N449 C451 1.334 . S
C450 H431 0.929 . S
C450 C447 1.388 . S
C450 N449 1.397 . S
C451 H432 0.929 . S
C451 C448 1.404 . S
C451 N449 1.334 . S
C452 H444 0.930 . S
C452 C447 1.418 . S
C452 C448 1.353 . S
C453 H423 0.930 . S
C453 N454 1.330 . S
C453 C455 1.446 1_565 S
N454 Co413 2.151 . S
N454 C453 1.330 . S
N454 C458 1.418 1_565 S
C455 H434 0.929 . S
C455 C453 1.446 1_545 S
C455 C456 1.332 . S
C456 H436 0.931 . S
C456 C455 1.332 . S
C456 C457 1.267 . S
C457 H425 0.929 . S
C457 C456 1.267 . S
C457 C458 1.251 . S
C458 H428 0.929 . S
C458 N454 1.418 1_545 S
C458 C457 1.251 . S
C459 H426 0.930 . S
C459 C461 1.406 . S
C459 C464 1.261 . S
C460 H427 0.930 . S
C460 N462 1.325 . S
C460 C463 1.357 . S
C461 H429 0.928 . S
C461 C459 1.406 . S
C461 N462 1.261 . S
N462 Co413 2.214 . S
N462 C460 1.325 . S
N462 C461 1.261 . S
C463 H433 0.931 . S
C463 C460 1.357 . S
C463 C464 1.312 . S
C464 H435 0.930 . S
C464 C459 1.261 . S
C464 C463 1.312 . S
C465 O437 1.214 . S
C465 O445 1.234 . S
C466 H438 0.929 . S
C466 C469 1.391 . S
C466 C471 1.391 . S
C467 H439 0.929 . S
C467 C468 1.390 . S
C467 N470 1.391 . S
C468 H440 0.930 . S
C468 C467 1.390 . S
C468 C469 1.392 . S
C469 H441 0.929 . S
C469 C466 1.391 . S
C469 C468 1.392 . S
N470 Co414 2.257 . S
N470 C467 1.391 . S
N470 C471 1.388 . S
C471 H442 0.930 . S
C471 C466 1.391 . S
C471 N470 1.388 . S
Co472 O474 2.143 . S
Co472 O480 2.074 . S
Co472 O483 2.093 . S
Co472 O496 2.097 . S
Co472 N513 2.151 . S
Co472 N521 2.214 . S
Co473 O474 2.160 . S
Co473 O479 2.058 . S
Co473 O489 2.057 . S
Co473 O504 2.037 . S
Co473 N508 2.145 . S
Co473 N529 2.257 . S
O474 Co472 2.143 . S
O474 Co473 2.160 . S
C475 O476 1.278 . S
C475 O483 1.224 . S
O476 C475 1.278 . S
C477 O478 1.245 . S
C477 O489 1.232 . S
O478 C477 1.245 . S
O479 Co473 2.058 . S
O479 C505 1.269 . S
O480 Co472 2.074 . S
O480 C505 1.257 . S
H481 C506 0.930 . S
H482 C512 0.930 . S
O483 Co472 2.093 . S
O483 C475 1.224 . S
H484 C516 0.929 . S
H485 C518 0.930 . S
H486 C519 0.930 . S
H487 C517 0.929 . S
H488 C520 0.928 . S
O489 Co473 2.057 . S
O489 C477 1.232 . S
H490 C509 0.929 . S
H491 C510 0.929 . S
H492 C522 0.931 . S
H493 C514 0.929 . S
H494 C523 0.930 . S
H495 C515 0.931 . S
O496 Co472 2.097 . S
O496 C524 1.206 1_545 S
H497 C525 0.929 . S
H498 C526 0.929 . S
H499 C527 0.930 . S
H500 C528 0.929 . S
H501 C530 0.930 . S
H502 C507 0.930 . S
H503 C511 0.930 . S
O504 Co473 2.037 . S
O504 C524 1.212 1_545 S
C505 O479 1.269 . S
C505 O480 1.257 . S
C506 H481 0.930 . S
C506 C509 1.388 . S
C506 C511 1.418 . S
C507 H502 0.930 . S
C507 C510 1.404 . S
C507 C511 1.353 . S
N508 Co473 2.145 . S
N508 C509 1.397 . S
N508 C510 1.334 . S
C509 H490 0.929 . S
C509 C506 1.388 . S
C509 N508 1.397 . S
C510 H491 0.929 . S
C510 C507 1.404 . S
C510 N508 1.334 . S
C511 H503 0.930 . S
C511 C506 1.418 . S
C511 C507 1.353 . S
C512 H482 0.930 . S
C512 N513 1.330 . S
C512 C514 1.446 . S
N513 Co472 2.151 . S
N513 C512 1.330 . S
N513 C517 1.418 . S
C514 H493 0.929 . S
C514 C512 1.446 . S
C514 C515 1.332 . S
C515 H495 0.931 . S
C515 C514 1.332 . S
C515 C516 1.267 . S
C516 H484 0.929 . S
C516 C515 1.267 . S
C516 C517 1.251 . S
C517 H487 0.929 . S
C517 N513 1.418 . S
C517 C516 1.251 . S
C518 H485 0.930 . S
C518 C520 1.406 . S
C518 C523 1.261 . S
C519 H486 0.930 . S
C519 N521 1.325 . S
C519 C522 1.357 . S
C520 H488 0.928 . S
C520 C518 1.406 . S
C520 N521 1.261 . S
N521 Co472 2.214 . S
N521 C519 1.325 . S
N521 C520 1.261 . S
C522 H492 0.931 . S
C522 C519 1.357 . S
C522 C523 1.312 . S
C523 H494 0.930 . S
C523 C518 1.261 . S
C523 C522 1.312 . S
C524 O496 1.206 1_565 S
C524 O504 1.212 1_565 S
C525 H497 0.929 . S
C525 C528 1.391 . S
C525 C530 1.391 1_565 S
C526 H498 0.929 . S
C526 C527 1.390 . S
C526 N529 1.391 1_565 S
C527 H499 0.930 . S
C527 C526 1.390 . S
C527 C528 1.392 . S
C528 H500 0.929 . S
C528 C525 1.391 . S
C528 C527 1.392 . S
N529 Co473 2.257 . S
N529 C526 1.391 1_545 S
N529 C530 1.388 . S
C530 H501 0.930 . S
C530 C525 1.391 1_545 S
C530 N529 1.388 . S
Co531 O533 2.143 . S
Co531 O539 2.074 . S
Co531 O542 2.093 . S
Co531 O555 2.097 . S
Co531 N572 2.151 . S
Co531 N580 2.214 . S
Co532 O533 2.160 . S
Co532 O538 2.058 . S
Co532 O548 2.057 . S
Co532 O563 2.037 . S
Co532 N567 2.145 . S
Co532 N588 2.257 . S
O533 Co531 2.143 . S
O533 Co532 2.160 . S
C534 O535 1.278 . S
C534 O542 1.224 . S
O535 C534 1.278 . S
C536 O537 1.245 . S
C536 O548 1.232 . S
O537 C536 1.245 . S
O538 Co532 2.058 . S
O538 C564 1.269 . S
O539 Co531 2.074 . S
O539 C564 1.257 . S
H540 C565 0.930 . S
H541 C571 0.930 . S
O542 Co531 2.093 . S
O542 C534 1.224 . S
H543 C575 0.929 . S
H544 C577 0.930 . S
H545 C578 0.930 . S
H546 C576 0.929 . S
H547 C579 0.928 . S
O548 Co532 2.057 . S
O548 C536 1.232 . S
H549 C568 0.929 . S
H550 C569 0.929 . S
H551 C581 0.931 . S
H552 C573 0.929 . S
H553 C582 0.930 . S
H554 C574 0.931 . S
O555 Co531 2.097 . S
O555 C583 1.206 1_655 S
H556 C584 0.929 . S
H557 C585 0.929 . S
H558 C586 0.930 . S
H559 C587 0.929 . S
H560 C589 0.930 . S
H561 C566 0.930 . S
H562 C570 0.930 . S
O563 Co532 2.037 . S
O563 C583 1.214 1_655 S
C564 O538 1.269 . S
C564 O539 1.257 . S
C565 H540 0.930 . S
C565 C568 1.388 . S
C565 C570 1.418 . S
C566 H561 0.930 . S
C566 C569 1.404 . S
C566 C570 1.353 . S
N567 Co532 2.145 . S
N567 C568 1.397 . S
N567 C569 1.334 . S
C568 H549 0.929 . S
C568 C565 1.388 . S
C568 N567 1.397 . S
C569 H550 0.929 . S
C569 C566 1.404 . S
C569 N567 1.334 . S
C570 H562 0.930 . S
C570 C565 1.418 . S
C570 C566 1.353 . S
C571 H541 0.930 . S
C571 N572 1.330 . S
C571 C573 1.446 . S
N572 Co531 2.151 . S
N572 C571 1.330 . S
N572 C576 1.418 . S
C573 H552 0.929 . S
C573 C571 1.446 . S
C573 C574 1.332 . S
C574 H554 0.931 . S
C574 C573 1.332 . S
C574 C575 1.267 . S
C575 H543 0.929 . S
C575 C574 1.267 . S
C575 C576 1.251 . S
C576 H546 0.929 . S
C576 N572 1.418 . S
C576 C575 1.251 . S
C577 H544 0.930 . S
C577 C579 1.406 . S
C577 C582 1.261 . S
C578 H545 0.930 . S
C578 N580 1.325 . S
C578 C581 1.357 . S
C579 H547 0.928 . S
C579 C577 1.406 . S
C579 N580 1.261 . S
N580 Co531 2.214 . S
N580 C578 1.325 . S
N580 C579 1.261 . S
C581 H551 0.931 . S
C581 C578 1.357 . S
C581 C582 1.312 . S
C582 H553 0.930 . S
C582 C577 1.261 . S
C582 C581 1.312 . S
C583 O555 1.206 1_455 S
C583 O563 1.214 1_455 S
C584 H556 0.929 . S
C584 C587 1.391 . S
C584 C589 1.391 1_455 S
C585 H557 0.929 . S
C585 C586 1.390 . S
C585 N588 1.391 1_455 S
C586 H558 0.930 . S
C586 C585 1.390 . S
C586 C587 1.392 . S
C587 H559 0.929 . S
C587 C584 1.391 . S
C587 C586 1.392 . S
N588 Co532 2.257 . S
N588 C585 1.391 1_655 S
N588 C589 1.388 . S
C589 H560 0.930 . S
C589 C584 1.391 1_655 S
C589 N588 1.388 . S
Co590 O592 2.143 . S
Co590 O598 2.074 . S
Co590 O601 2.093 . S
Co590 O614 2.097 . S
Co590 N631 2.151 . S
Co590 N639 2.214 . S
Co591 O592 2.160 . S
Co591 O597 2.058 . S
Co591 O607 2.057 . S
Co591 O622 2.037 . S
Co591 N626 2.145 . S
Co591 N647 2.257 . S
O592 Co590 2.143 . S
O592 Co591 2.160 . S
C593 O594 1.278 . S
C593 O601 1.224 . S
O594 C593 1.278 . S
C595 O596 1.245 . S
C595 O607 1.232 . S
O596 C595 1.245 . S
O597 Co591 2.058 . S
O597 C623 1.269 . S
O598 Co590 2.074 . S
O598 C623 1.257 . S
H599 C624 0.930 . S
H600 C630 0.930 . S
O601 Co590 2.093 . S
O601 C593 1.224 . S
H602 C634 0.929 . S
H603 C636 0.930 . S
H604 C637 0.930 . S
H605 C635 0.929 . S
H606 C638 0.928 . S
O607 Co591 2.057 . S
O607 C595 1.232 . S
H608 C627 0.929 . S
H609 C628 0.929 . S
H610 C640 0.931 . S
H611 C632 0.929 . S
H612 C641 0.930 . S
H613 C633 0.931 . S
O614 Co590 2.097 . S
O614 C642 1.206 1_565 S
H615 C643 0.929 . S
H616 C644 0.929 . S
H617 C645 0.930 . S
H618 C646 0.929 . S
H619 C648 0.930 . S
H620 C625 0.930 . S
H621 C629 0.930 . S
O622 Co591 2.037 . S
O622 C642 1.212 1_565 S
C623 O597 1.269 . S
C623 O598 1.257 . S
C624 H599 0.930 . S
C624 C627 1.388 . S
C624 C629 1.418 . S
C625 H620 0.930 . S
C625 C628 1.404 . S
C625 C629 1.353 . S
N626 Co591 2.145 . S
N626 C627 1.397 . S
N626 C628 1.334 . S
C627 H608 0.929 . S
C627 C624 1.388 . S
C627 N626 1.397 . S
C628 H609 0.929 . S
C628 C625 1.404 . S
C628 N626 1.334 . S
C629 H621 0.930 . S
C629 C624 1.418 . S
C629 C625 1.353 . S
C630 H600 0.930 . S
C630 N631 1.330 . S
C630 C632 1.446 . S
N631 Co590 2.151 . S
N631 C630 1.330 . S
N631 C635 1.418 . S
C632 H611 0.929 . S
C632 C630 1.446 . S
C632 C633 1.332 . S
C633 H613 0.931 . S
C633 C632 1.332 . S
C633 C634 1.267 . S
C634 H602 0.929 . S
C634 C633 1.267 . S
C634 C635 1.251 . S
C635 H605 0.929 . S
C635 N631 1.418 . S
C635 C634 1.251 . S
C636 H603 0.930 . S
C636 C638 1.406 . S
C636 C641 1.261 . S
C637 H604 0.930 . S
C637 N639 1.325 . S
C637 C640 1.357 . S
C638 H606 0.928 . S
C638 C636 1.406 . S
C638 N639 1.261 . S
N639 Co590 2.214 . S
N639 C637 1.325 . S
N639 C638 1.261 . S
C640 H610 0.931 . S
C640 C637 1.357 . S
C640 C641 1.312 . S
C641 H612 0.930 . S
C641 C636 1.261 . S
C641 C640 1.312 . S
C642 O614 1.206 1_545 S
C642 O622 1.212 1_545 S
C643 H615 0.929 . S
C643 C646 1.391 . S
C643 C648 1.391 1_545 S
C644 H616 0.929 . S
C644 C645 1.390 . S
C644 N647 1.391 1_545 S
C645 H617 0.930 . S
C645 C644 1.390 . S
C645 C646 1.392 . S
C646 H618 0.929 . S
C646 C643 1.391 . S
C646 C645 1.392 . S
N647 Co591 2.257 . S
N647 C644 1.391 1_565 S
N647 C648 1.388 . S
C648 H619 0.930 . S
C648 C643 1.391 1_565 S
C648 N647 1.388 . S
Co649 O651 2.143 . S
Co649 O657 2.074 . S
Co649 O660 2.093 . S
Co649 O673 2.097 . S
Co649 N690 2.151 . S
Co649 N698 2.214 . S
Co650 O651 2.160 . S
Co650 O656 2.058 . S
Co650 O666 2.057 . S
Co650 O681 2.037 . S
Co650 N685 2.145 . S
Co650 N706 2.257 . S
O651 Co649 2.143 . S
O651 Co650 2.160 . S
C652 O653 1.278 . S
C652 O660 1.224 . S
O653 C652 1.278 . S
C654 O655 1.245 . S
C654 O666 1.232 . S
O655 C654 1.245 . S
O656 Co650 2.058 . S
O656 C682 1.269 . S
O657 Co649 2.074 . S
O657 C682 1.257 . S
H658 C683 0.930 . S
H659 C689 0.930 . S
O660 Co649 2.093 . S
O660 C652 1.224 . S
H661 C693 0.929 . S
H662 C695 0.930 . S
H663 C696 0.930 . S
H664 C694 0.929 . S
H665 C697 0.928 . S
O666 Co650 2.057 . S
O666 C654 1.232 . S
H667 C686 0.929 . S
H668 C687 0.929 . S
H669 C699 0.931 . S
H670 C691 0.929 . S
H671 C700 0.930 . S
H672 C692 0.931 . S
O673 Co649 2.097 . S
O673 C701 1.206 1_455 S
H674 C702 0.929 . S
H675 C703 0.929 . S
H676 C704 0.930 . S
H677 C705 0.929 . S
H678 C707 0.930 . S
H679 C684 0.930 . S
H680 C688 0.930 . S
O681 Co650 2.037 . S
O681 C701 1.214 1_455 S
C682 O656 1.269 . S
C682 O657 1.257 . S
C683 H658 0.930 . S
C683 C686 1.388 . S
C683 C688 1.418 . S
C684 H679 0.930 . S
C684 C687 1.404 . S
C684 C688 1.353 . S
N685 Co650 2.145 . S
N685 C686 1.397 . S
N685 C687 1.334 . S
C686 H667 0.929 . S
C686 C683 1.388 . S
C686 N685 1.397 . S
C687 H668 0.929 . S
C687 C684 1.404 . S
C687 N685 1.334 . S
C688 H680 0.930 . S
C688 C683 1.418 . S
C688 C684 1.353 . S
C689 H659 0.930 . S
C689 N690 1.330 . S
C689 C691 1.446 . S
N690 Co649 2.151 . S
N690 C689 1.330 . S
N690 C694 1.418 . S
C691 H670 0.929 . S
C691 C689 1.446 . S
C691 C692 1.332 . S
C692 H672 0.931 . S
C692 C691 1.332 . S
C692 C693 1.267 . S
C693 H661 0.929 . S
C693 C692 1.267 . S
C693 C694 1.251 . S
C694 H664 0.929 . S
C694 N690 1.418 . S
C694 C693 1.251 . S
C695 H662 0.930 . S
C695 C697 1.406 . S
C695 C700 1.261 . S
C696 H663 0.930 . S
C696 N698 1.325 . S
C696 C699 1.357 . S
C697 H665 0.928 . S
C697 C695 1.406 . S
C697 N698 1.261 . S
N698 Co649 2.214 . S
N698 C696 1.325 . S
N698 C697 1.261 . S
C699 H669 0.931 . S
C699 C696 1.357 . S
C699 C700 1.312 . S
C700 H671 0.930 . S
C700 C695 1.261 . S
C700 C699 1.312 . S
C701 O673 1.206 1_655 S
C701 O681 1.214 1_655 S
C702 H674 0.929 . S
C702 C705 1.391 . S
C702 C707 1.391 1_655 S
C703 H675 0.929 . S
C703 C704 1.390 . S
C703 N706 1.391 1_655 S
C704 H676 0.930 . S
C704 C703 1.390 . S
C704 C705 1.392 . S
C705 H677 0.929 . S
C705 C702 1.391 . S
C705 C704 1.392 . S
N706 Co650 2.257 . S
N706 C703 1.391 1_455 S
N706 C707 1.388 . S
C707 H678 0.930 . S
C707 C702 1.391 1_455 S
C707 N706 1.388 . S
Co708 O710 2.143 . S
Co708 O716 2.074 . S
Co708 O719 2.093 . S
Co708 O732 2.097 . S
Co708 N749 2.151 . S
Co708 N757 2.214 . S
Co709 O710 2.160 . S
Co709 O715 2.058 . S
Co709 O725 2.057 . S
Co709 O740 2.037 . S
Co709 N744 2.145 . S
Co709 N765 2.257 . S
O710 Co708 2.143 . S
O710 Co709 2.160 . S
C711 O712 1.278 . S
C711 O719 1.224 . S
O712 C711 1.278 . S
C713 O714 1.245 . S
C713 O725 1.232 . S
O714 C713 1.245 . S
O715 Co709 2.058 . S
O715 C741 1.269 . S
O716 Co708 2.074 . S
O716 C741 1.257 . S
H717 C742 0.930 . S
H718 C748 0.930 . S
O719 Co708 2.093 . S
O719 C711 1.224 . S
H720 C752 0.929 . S
H721 C754 0.930 . S
H722 C755 0.930 . S
H723 C753 0.929 . S
H724 C756 0.928 . S
O725 Co709 2.057 . S
O725 C713 1.232 . S
H726 C745 0.929 . S
H727 C746 0.929 . S
H728 C758 0.931 . S
H729 C750 0.929 . S
H730 C759 0.930 . S
H731 C751 0.931 . S
O732 Co708 2.097 . S
O732 C760 1.206 1_565 S
H733 C761 0.929 . S
H734 C762 0.929 . S
H735 C763 0.930 . S
H736 C764 0.929 . S
H737 C766 0.930 . S
H738 C743 0.930 . S
H739 C747 0.930 . S
O740 Co709 2.037 . S
O740 C760 1.212 1_565 S
C741 O715 1.269 . S
C741 O716 1.257 . S
C742 H717 0.930 . S
C742 C745 1.388 . S
C742 C747 1.418 . S
C743 H738 0.930 . S
C743 C746 1.404 . S
C743 C747 1.353 . S
N744 Co709 2.145 . S
N744 C745 1.397 . S
N744 C746 1.334 . S
C745 H726 0.929 . S
C745 C742 1.388 . S
C745 N744 1.397 . S
C746 H727 0.929 . S
C746 C743 1.404 . S
C746 N744 1.334 . S
C747 H739 0.930 . S
C747 C742 1.418 . S
C747 C743 1.353 . S
C748 H718 0.930 . S
C748 N749 1.330 . S
C748 C750 1.446 . S
N749 Co708 2.151 . S
N749 C748 1.330 . S
N749 C753 1.418 . S
C750 H729 0.929 . S
C750 C748 1.446 . S
C750 C751 1.332 . S
C751 H731 0.931 . S
C751 C750 1.332 . S
C751 C752 1.267 . S
C752 H720 0.929 . S
C752 C751 1.267 . S
C752 C753 1.251 . S
C753 H723 0.929 . S
C753 N749 1.418 . S
C753 C752 1.251 . S
C754 H721 0.930 . S
C754 C756 1.406 . S
C754 C759 1.261 . S
C755 H722 0.930 . S
C755 N757 1.325 . S
C755 C758 1.357 . S
C756 H724 0.928 . S
C756 C754 1.406 . S
C756 N757 1.261 . S
N757 Co708 2.214 . S
N757 C755 1.325 . S
N757 C756 1.261 . S
C758 H728 0.931 . S
C758 C755 1.357 . S
C758 C759 1.312 . S
C759 H730 0.930 . S
C759 C754 1.261 . S
C759 C758 1.312 . S
C760 O732 1.206 1_545 S
C760 O740 1.212 1_545 S
C761 H733 0.929 . S
C761 C764 1.391 . S
C761 C766 1.391 1_545 S
C762 H734 0.929 . S
C762 C763 1.390 . S
C762 N765 1.391 1_545 S
C763 H735 0.930 . S
C763 C762 1.390 . S
C763 C764 1.392 . S
C764 H736 0.929 . S
C764 C761 1.391 . S
C764 C763 1.392 . S
N765 Co709 2.257 . S
N765 C762 1.391 1_565 S
N765 C766 1.388 . S
C766 H737 0.930 . S
C766 C761 1.391 1_565 S
C766 N765 1.388 . S
Co767 O769 2.143 . S
Co767 O775 2.074 . S
Co767 O778 2.093 . S
Co767 O791 2.097 . S
Co767 N808 2.151 . S
Co767 N816 2.214 . S
Co768 O769 2.160 . S
Co768 O774 2.058 . S
Co768 O784 2.057 . S
Co768 O799 2.037 . S
Co768 N803 2.145 . S
Co768 N824 2.257 . S
O769 Co767 2.143 . S
O769 Co768 2.160 . S
C770 O771 1.278 . S
C770 O778 1.224 . S
O771 C770 1.278 . S
C772 O773 1.245 . S
C772 O784 1.232 . S
O773 C772 1.245 . S
O774 Co768 2.058 . S
O774 C800 1.269 . S
O775 Co767 2.074 . S
O775 C800 1.257 . S
H776 C801 0.930 . S
H777 C807 0.930 . S
O778 Co767 2.093 . S
O778 C770 1.224 . S
H779 C811 0.929 . S
H780 C813 0.930 . S
H781 C814 0.930 . S
H782 C812 0.929 . S
H783 C815 0.928 . S
O784 Co768 2.057 . S
O784 C772 1.232 . S
H785 C804 0.929 . S
H786 C805 0.929 . S
H787 C817 0.931 . S
H788 C809 0.929 . S
H789 C818 0.930 . S
H790 C810 0.931 . S
O791 Co767 2.097 . S
O791 C819 1.206 1_455 S
H792 C820 0.929 . S
H793 C821 0.929 . S
H794 C822 0.930 . S
H795 C823 0.929 . S
H796 C825 0.930 . S
H797 C802 0.930 . S
H798 C806 0.930 . S
O799 Co768 2.037 . S
O799 C819 1.214 1_455 S
C800 O774 1.269 . S
C800 O775 1.257 . S
C801 H776 0.930 . S
C801 C804 1.388 . S
C801 C806 1.418 . S
C802 H797 0.930 . S
C802 C805 1.404 . S
C802 C806 1.353 . S
N803 Co768 2.145 . S
N803 C804 1.397 . S
N803 C805 1.334 . S
C804 H785 0.929 . S
C804 C801 1.388 . S
C804 N803 1.397 . S
C805 H786 0.929 . S
C805 C802 1.404 . S
C805 N803 1.334 . S
C806 H798 0.930 . S
C806 C801 1.418 . S
C806 C802 1.353 . S
C807 H777 0.930 . S
C807 N808 1.330 . S
C807 C809 1.446 . S
N808 Co767 2.151 . S
N808 C807 1.330 . S
N808 C812 1.418 . S
C809 H788 0.929 . S
C809 C807 1.446 . S
C809 C810 1.332 . S
C810 H790 0.931 . S
C810 C809 1.332 . S
C810 C811 1.267 . S
C811 H779 0.929 . S
C811 C810 1.267 . S
C811 C812 1.251 . S
C812 H782 0.929 . S
C812 N808 1.418 . S
C812 C811 1.251 . S
C813 H780 0.930 . S
C813 C815 1.406 . S
C813 C818 1.261 . S
C814 H781 0.930 . S
C814 N816 1.325 . S
C814 C817 1.357 . S
C815 H783 0.928 . S
C815 C813 1.406 . S
C815 N816 1.261 . S
N816 Co767 2.214 . S
N816 C814 1.325 . S
N816 C815 1.261 . S
C817 H787 0.931 . S
C817 C814 1.357 . S
C817 C818 1.312 . S
C818 H789 0.930 . S
C818 C813 1.261 . S
C818 C817 1.312 . S
C819 O791 1.206 1_655 S
C819 O799 1.214 1_655 S
C820 H792 0.929 . S
C820 C823 1.391 . S
C820 C825 1.391 1_655 S
C821 H793 0.929 . S
C821 C822 1.390 . S
C821 N824 1.391 1_655 S
C822 H794 0.930 . S
C822 C821 1.390 . S
C822 C823 1.392 . S
C823 H795 0.929 . S
C823 C820 1.391 . S
C823 C822 1.392 . S
N824 Co768 2.257 . S
N824 C821 1.391 1_455 S
N824 C825 1.388 . S
C825 H796 0.930 . S
C825 C820 1.391 1_455 S
C825 N824 1.388 . S
Co826 O828 2.143 . S
Co826 O834 2.074 . S
Co826 O837 2.093 . S
Co826 O850 2.097 . S
Co826 N867 2.151 . S
Co826 N875 2.214 . S
Co827 O828 2.160 . S
Co827 O833 2.058 . S
Co827 O843 2.057 . S
Co827 O858 2.037 . S
Co827 N862 2.145 . S
Co827 N883 2.257 . S
O828 Co826 2.143 . S
O828 Co827 2.160 . S
C829 O830 1.278 . S
C829 O837 1.224 . S
O830 C829 1.278 . S
C831 O832 1.245 . S
C831 O843 1.232 . S
O832 C831 1.245 . S
O833 Co827 2.058 . S
O833 C859 1.269 . S
O834 Co826 2.074 . S
O834 C859 1.257 . S
H835 C860 0.930 . S
H836 C866 0.930 . S
O837 Co826 2.093 . S
O837 C829 1.224 . S
H838 C870 0.929 . S
H839 C872 0.930 . S
H840 C873 0.930 . S
H841 C871 0.929 . S
H842 C874 0.928 . S
O843 Co827 2.057 . S
O843 C831 1.232 . S
H844 C863 0.929 . S
H845 C864 0.929 . S
H846 C876 0.931 . S
H847 C868 0.929 . S
H848 C877 0.930 . S
H849 C869 0.931 . S
O850 Co826 2.097 . S
O850 C878 1.206 1_545 S
H851 C879 0.929 . S
H852 C880 0.929 . S
H853 C881 0.930 . S
H854 C882 0.929 . S
H855 C884 0.930 . S
H856 C861 0.930 . S
H857 C865 0.930 . S
O858 Co827 2.037 . S
O858 C878 1.212 1_545 S
C859 O833 1.269 . S
C859 O834 1.257 . S
C860 H835 0.930 . S
C860 C863 1.388 . S
C860 C865 1.418 . S
C861 H856 0.930 . S
C861 C864 1.404 . S
C861 C865 1.353 . S
N862 Co827 2.145 . S
N862 C863 1.397 . S
N862 C864 1.334 . S
C863 H844 0.929 . S
C863 C860 1.388 . S
C863 N862 1.397 . S
C864 H845 0.929 . S
C864 C861 1.404 . S
C864 N862 1.334 . S
C865 H857 0.930 . S
C865 C860 1.418 . S
C865 C861 1.353 . S
C866 H836 0.930 . S
C866 N867 1.330 . S
C866 C868 1.446 . S
N867 Co826 2.151 . S
N867 C866 1.330 . S
N867 C871 1.418 . S
C868 H847 0.929 . S
C868 C866 1.446 . S
C868 C869 1.332 . S
C869 H849 0.931 . S
C869 C868 1.332 . S
C869 C870 1.267 . S
C870 H838 0.929 . S
C870 C869 1.267 . S
C870 C871 1.251 . S
C871 H841 0.929 . S
C871 N867 1.418 . S
C871 C870 1.251 . S
C872 H839 0.930 . S
C872 C874 1.406 . S
C872 C877 1.261 . S
C873 H840 0.930 . S
C873 N875 1.325 . S
C873 C876 1.357 . S
C874 H842 0.928 . S
C874 C872 1.406 . S
C874 N875 1.261 . S
N875 Co826 2.214 . S
N875 C873 1.325 . S
N875 C874 1.261 . S
C876 H846 0.931 . S
C876 C873 1.357 . S
C876 C877 1.312 . S
C877 H848 0.930 . S
C877 C872 1.261 . S
C877 C876 1.312 . S
C878 O850 1.206 1_565 S
C878 O858 1.212 1_565 S
C879 H851 0.929 . S
C879 C882 1.391 . S
C879 C884 1.391 1_565 S
C880 H852 0.929 . S
C880 C881 1.390 . S
C880 N883 1.391 1_565 S
C881 H853 0.930 . S
C881 C880 1.390 . S
C881 C882 1.392 . S
C882 H854 0.929 . S
C882 C879 1.391 . S
C882 C881 1.392 . S
N883 Co827 2.257 . S
N883 C880 1.391 1_545 S
N883 C884 1.388 . S
C884 H855 0.930 . S
C884 C879 1.391 1_545 S
C884 N883 1.388 . S
Co885 O887 2.143 . S
Co885 O893 2.074 . S
Co885 O896 2.093 . S
Co885 O909 2.097 . S
Co885 N926 2.151 . S
Co885 N934 2.214 . S
Co886 O887 2.160 . S
Co886 O892 2.058 . S
Co886 O902 2.057 . S
Co886 O917 2.037 . S
Co886 N921 2.145 . S
Co886 N942 2.257 . S
O887 Co885 2.143 . S
O887 Co886 2.160 . S
C888 O889 1.278 . S
C888 O896 1.224 . S
O889 C888 1.278 . S
C890 O891 1.245 . S
C890 O902 1.232 . S
O891 C890 1.245 . S
O892 Co886 2.058 . S
O892 C918 1.269 . S
O893 Co885 2.074 . S
O893 C918 1.257 . S
H894 C919 0.930 . S
H895 C925 0.930 . S
O896 Co885 2.093 . S
O896 C888 1.224 . S
H897 C929 0.929 . S
H898 C931 0.930 . S
H899 C932 0.930 . S
H900 C930 0.929 . S
H901 C933 0.928 . S
O902 Co886 2.057 . S
O902 C890 1.232 . S
H903 C922 0.929 . S
H904 C923 0.929 . S
H905 C935 0.931 . S
H906 C927 0.929 . S
H907 C936 0.930 . S
H908 C928 0.931 . S
O909 Co885 2.097 . S
O909 C937 1.206 1_655 S
H910 C938 0.929 . S
H911 C939 0.929 . S
H912 C940 0.930 . S
H913 C941 0.929 . S
H914 C943 0.930 . S
H915 C920 0.930 . S
H916 C924 0.930 . S
O917 Co886 2.037 . S
O917 C937 1.214 1_655 S
C918 O892 1.269 . S
C918 O893 1.257 . S
C919 H894 0.930 . S
C919 C922 1.388 . S
C919 C924 1.418 . S
C920 H915 0.930 . S
C920 C923 1.404 . S
C920 C924 1.353 . S
N921 Co886 2.145 . S
N921 C922 1.397 . S
N921 C923 1.334 . S
C922 H903 0.929 . S
C922 C919 1.388 . S
C922 N921 1.397 . S
C923 H904 0.929 . S
C923 C920 1.404 . S
C923 N921 1.334 . S
C924 H916 0.930 . S
C924 C919 1.418 . S
C924 C920 1.353 . S
C925 H895 0.930 . S
C925 N926 1.330 . S
C925 C927 1.446 . S
N926 Co885 2.151 . S
N926 C925 1.330 . S
N926 C930 1.418 . S
C927 H906 0.929 . S
C927 C925 1.446 . S
C927 C928 1.332 . S
C928 H908 0.931 . S
C928 C927 1.332 . S
C928 C929 1.267 . S
C929 H897 0.929 . S
C929 C928 1.267 . S
C929 C930 1.251 . S
C930 H900 0.929 . S
C930 N926 1.418 . S
C930 C929 1.251 . S
C931 H898 0.930 . S
C931 C933 1.406 . S
C931 C936 1.261 . S
C932 H899 0.930 . S
C932 N934 1.325 . S
C932 C935 1.357 . S
C933 H901 0.928 . S
C933 C931 1.406 . S
C933 N934 1.261 . S
N934 Co885 2.214 . S
N934 C932 1.325 . S
N934 C933 1.261 . S
C935 H905 0.931 . S
C935 C932 1.357 . S
C935 C936 1.312 . S
C936 H907 0.930 . S
C936 C931 1.261 . S
C936 C935 1.312 . S
C937 O909 1.206 1_455 S
C937 O917 1.214 1_455 S
C938 H910 0.929 . S
C938 C941 1.391 . S
C938 C943 1.391 1_455 S
C939 H911 0.929 . S
C939 C940 1.390 . S
C939 N942 1.391 1_455 S
C940 H912 0.930 . S
C940 C939 1.390 . S
C940 C941 1.392 . S
C941 H913 0.929 . S
C941 C938 1.391 . S
C941 C940 1.392 . S
N942 Co886 2.257 . S
N942 C939 1.391 1_655 S
N942 C943 1.388 . S
C943 H914 0.930 . S
C943 C938 1.391 1_655 S
C943 N942 1.388 . S
Co944 O946 2.143 . S
Co944 O952 2.074 . S
Co944 O955 2.093 . S
Co944 O968 2.097 . S
Co944 N985 2.151 . S
Co944 N993 2.214 . S
Co945 O946 2.160 . S
Co945 O951 2.058 . S
Co945 O961 2.057 . S
Co945 O976 2.037 . S
Co945 N980 2.145 . S
Co945 N1001 2.257 . S
O946 Co944 2.143 . S
O946 Co945 2.160 . S
C947 O948 1.278 . S
C947 O955 1.224 . S
O948 C947 1.278 . S
C949 O950 1.245 . S
C949 O961 1.232 . S
O950 C949 1.245 . S
O951 Co945 2.058 . S
O951 C977 1.270 1_554 S
O952 Co944 2.074 . S
O952 C977 1.258 1_554 S
H953 C978 0.930 . S
H954 C984 0.930 . S
O955 Co944 2.093 . S
O955 C947 1.224 . S
H956 C988 0.929 . S
H957 C990 0.930 . S
H958 C991 0.930 . S
H959 C989 0.929 . S
H960 C992 0.928 . S
O961 Co945 2.057 . S
O961 C949 1.232 . S
H962 C981 0.929 . S
H963 C982 0.929 . S
H964 C994 0.931 . S
H965 C986 0.929 . S
H966 C995 0.930 . S
H967 C987 0.931 . S
O968 Co944 2.097 . S
O968 C996 1.214 . S
H969 C997 0.929 . S
H970 C998 0.929 . S
H971 C999 0.930 . S
H972 C1000 0.929 . S
H973 C1002 0.930 . S
H974 C979 0.930 . S
H975 C983 0.930 . S
O976 Co945 2.037 . S
O976 C996 1.234 . S
C977 O951 1.270 1_556 S
C977 O952 1.258 1_556 S
C978 H953 0.930 . S
C978 C981 1.388 . S
C978 C983 1.418 . S
C979 H974 0.930 . S
C979 C982 1.404 . S
C979 C983 1.353 . S
N980 Co945 2.145 . S
N980 C981 1.397 . S
N980 C982 1.334 . S
C981 H962 0.929 . S
C981 C978 1.388 . S
C981 N980 1.397 . S
C982 H963 0.929 . S
C982 C979 1.404 . S
C982 N980 1.334 . S
C983 H975 0.930 . S
C983 C978 1.418 . S
C983 C979 1.353 . S
C984 H954 0.930 . S
C984 N985 1.330 . S
C984 C986 1.446 1_554 S
N985 Co944 2.151 . S
N985 C984 1.330 . S
N985 C989 1.418 1_554 S
C986 H965 0.929 . S
C986 C984 1.446 1_556 S
C986 C987 1.332 . S
C987 H967 0.931 . S
C987 C986 1.332 . S
C987 C988 1.267 . S
C988 H956 0.929 . S
C988 C987 1.267 . S
C988 C989 1.251 . S
C989 H959 0.929 . S
C989 N985 1.418 1_556 S
C989 C988 1.251 . S
C990 H957 0.930 . S
C990 C992 1.406 . S
C990 C995 1.261 . S
C991 H958 0.930 . S
C991 N993 1.325 . S
C991 C994 1.357 . S
C992 H960 0.928 . S
C992 C990 1.406 . S
C992 N993 1.261 . S
N993 Co944 2.214 . S
N993 C991 1.325 . S
N993 C992 1.261 . S
C994 H964 0.931 . S
C994 C991 1.357 . S
C994 C995 1.312 . S
C995 H966 0.930 . S
C995 C990 1.261 . S
C995 C994 1.312 . S
C996 O968 1.214 . S
C996 O976 1.234 . S
C997 H969 0.929 . S
C997 C1000 1.391 . S
C997 C1002 1.391 . S
C998 H970 0.929 . S
C998 C999 1.390 . S
C998 N1001 1.391 . S
C999 H971 0.930 . S
C999 C998 1.390 . S
C999 C1000 1.392 . S
C1000 H972 0.929 . S
C1000 C997 1.391 . S
C1000 C999 1.392 . S
N1001 Co945 2.257 . S
N1001 C998 1.391 . S
N1001 C1002 1.388 . S
C1002 H973 0.930 . S
C1002 C997 1.391 . S
C1002 N1001 1.388 . S
Co1003 O1005 2.143 . S
Co1003 O1011 2.074 . S
Co1003 O1014 2.093 . S
Co1003 O1027 2.097 . S
Co1003 N1044 2.151 . S
Co1003 N1052 2.214 . S
Co1004 O1005 2.160 . S
Co1004 O1010 2.058 . S
Co1004 O1020 2.057 . S
Co1004 O1035 2.037 . S
Co1004 N1039 2.145 . S
Co1004 N1060 2.257 . S
O1005 Co1003 2.143 . S
O1005 Co1004 2.160 . S
C1006 O1007 1.278 . S
C1006 O1014 1.224 . S
O1007 C1006 1.278 . S
C1008 O1009 1.245 . S
C1008 O1020 1.232 . S
O1009 C1008 1.245 . S
O1010 Co1004 2.058 . S
O1010 C1036 1.270 1_556 S
O1011 Co1003 2.074 . S
O1011 C1036 1.258 1_556 S
H1012 C1037 0.930 . S
H1013 C1043 0.930 . S
O1014 Co1003 2.093 . S
O1014 C1006 1.224 . S
H1015 C1047 0.929 . S
H1016 C1049 0.930 . S
H1017 C1050 0.930 . S
H1018 C1048 0.929 . S
H1019 C1051 0.928 . S
O1020 Co1004 2.057 . S
O1020 C1008 1.232 . S
H1021 C1040 0.929 . S
H1022 C1041 0.929 . S
H1023 C1053 0.931 . S
H1024 C1045 0.929 . S
H1025 C1054 0.930 . S
H1026 C1046 0.931 . S
O1027 Co1003 2.097 . S
O1027 C1055 1.214 . S
H1028 C1056 0.929 . S
H1029 C1057 0.929 . S
H1030 C1058 0.930 . S
H1031 C1059 0.929 . S
H1032 C1061 0.930 . S
H1033 C1038 0.930 . S
H1034 C1042 0.930 . S
O1035 Co1004 2.037 . S
O1035 C1055 1.234 . S
C1036 O1010 1.270 1_554 S
C1036 O1011 1.258 1_554 S
C1037 H1012 0.930 . S
C1037 C1040 1.388 . S
C1037 C1042 1.418 . S
C1038 H1033 0.930 . S
C1038 C1041 1.404 . S
C1038 C1042 1.353 . S
N1039 Co1004 2.145 . S
N1039 C1040 1.397 . S
N1039 C1041 1.334 . S
C1040 H1021 0.929 . S
C1040 C1037 1.388 . S
C1040 N1039 1.397 . S
C1041 H1022 0.929 . S
C1041 C1038 1.404 . S
C1041 N1039 1.334 . S
C1042 H1034 0.930 . S
C1042 C1037 1.418 . S
C1042 C1038 1.353 . S
C1043 H1013 0.930 . S
C1043 N1044 1.330 . S
C1043 C1045 1.446 1_556 S
N1044 Co1003 2.151 . S
N1044 C1043 1.330 . S
N1044 C1048 1.418 1_556 S
C1045 H1024 0.929 . S
C1045 C1043 1.446 1_554 S
C1045 C1046 1.332 . S
C1046 H1026 0.931 . S
C1046 C1045 1.332 . S
C1046 C1047 1.267 . S
C1047 H1015 0.929 . S
C1047 C1046 1.267 . S
C1047 C1048 1.251 . S
C1048 H1018 0.929 . S
C1048 N1044 1.418 1_554 S
C1048 C1047 1.251 . S
C1049 H1016 0.930 . S
C1049 C1051 1.406 . S
C1049 C1054 1.261 . S
C1050 H1017 0.930 . S
C1050 N1052 1.325 . S
C1050 C1053 1.357 . S
C1051 H1019 0.928 . S
C1051 C1049 1.406 . S
C1051 N1052 1.261 . S
N1052 Co1003 2.214 . S
N1052 C1050 1.325 . S
N1052 C1051 1.261 . S
C1053 H1023 0.931 . S
C1053 C1050 1.357 . S
C1053 C1054 1.312 . S
C1054 H1025 0.930 . S
C1054 C1049 1.261 . S
C1054 C1053 1.312 . S
C1055 O1027 1.214 . S
C1055 O1035 1.234 . S
C1056 H1028 0.929 . S
C1056 C1059 1.391 . S
C1056 C1061 1.391 . S
C1057 H1029 0.929 . S
C1057 C1058 1.390 . S
C1057 N1060 1.391 . S
C1058 H1030 0.930 . S
C1058 C1057 1.390 . S
C1058 C1059 1.392 . S
C1059 H1031 0.929 . S
C1059 C1056 1.391 . S
C1059 C1058 1.392 . S
N1060 Co1004 2.257 . S
N1060 C1057 1.391 . S
N1060 C1061 1.388 . S
C1061 H1032 0.930 . S
C1061 C1056 1.391 . S
C1061 N1060 1.388 . S
Co1062 O1064 2.143 . S
Co1062 O1070 2.074 . S
Co1062 O1073 2.093 . S
Co1062 O1086 2.097 . S
Co1062 N1103 2.151 . S
Co1062 N1111 2.214 . S
Co1063 O1064 2.160 . S
Co1063 O1069 2.058 . S
Co1063 O1079 2.057 . S
Co1063 O1094 2.037 . S
Co1063 N1098 2.145 . S
Co1063 N1119 2.257 . S
O1064 Co1062 2.143 . S
O1064 Co1063 2.160 . S
C1065 O1066 1.278 . S
C1065 O1073 1.224 . S
O1066 C1065 1.278 . S
C1067 O1068 1.245 . S
C1067 O1079 1.232 . S
O1068 C1067 1.245 . S
O1069 Co1063 2.058 . S
O1069 C1095 1.269 . S
O1070 Co1062 2.074 . S
O1070 C1095 1.257 . S
H1071 C1096 0.930 . S
H1072 C1102 0.930 . S
O1073 Co1062 2.093 . S
O1073 C1065 1.224 . S
H1074 C1106 0.929 . S
H1075 C1108 0.930 . S
H1076 C1109 0.930 . S
H1077 C1107 0.929 . S
H1078 C1110 0.928 . S
O1079 Co1063 2.057 . S
O1079 C1067 1.232 . S
H1080 C1099 0.929 . S
H1081 C1100 0.929 . S
H1082 C1112 0.931 . S
H1083 C1104 0.929 . S
H1084 C1113 0.930 . S
H1085 C1105 0.931 . S
O1086 Co1062 2.097 . S
O1086 C1114 1.206 1_556 S
H1087 C1115 0.929 . S
H1088 C1116 0.929 . S
H1089 C1117 0.930 . S
H1090 C1118 0.929 . S
H1091 C1120 0.930 . S
H1092 C1097 0.930 . S
H1093 C1101 0.930 . S
O1094 Co1063 2.037 . S
O1094 C1114 1.212 1_556 S
C1095 O1069 1.269 . S
C1095 O1070 1.257 . S
C1096 H1071 0.930 . S
C1096 C1099 1.388 . S
C1096 C1101 1.418 . S
C1097 H1092 0.930 . S
C1097 C1100 1.404 . S
C1097 C1101 1.353 . S
N1098 Co1063 2.145 . S
N1098 C1099 1.397 . S
N1098 C1100 1.334 . S
C1099 H1080 0.929 . S
C1099 C1096 1.388 . S
C1099 N1098 1.397 . S
C1100 H1081 0.929 . S
C1100 C1097 1.404 . S
C1100 N1098 1.334 . S
C1101 H1093 0.930 . S
C1101 C1096 1.418 . S
C1101 C1097 1.353 . S
C1102 H1072 0.930 . S
C1102 N1103 1.330 . S
C1102 C1104 1.446 . S
N1103 Co1062 2.151 . S
N1103 C1102 1.330 . S
N1103 C1107 1.418 . S
C1104 H1083 0.929 . S
C1104 C1102 1.446 . S
C1104 C1105 1.332 . S
C1105 H1085 0.931 . S
C1105 C1104 1.332 . S
C1105 C1106 1.267 . S
C1106 H1074 0.929 . S
C1106 C1105 1.267 . S
C1106 C1107 1.251 . S
C1107 H1077 0.929 . S
C1107 N1103 1.418 . S
C1107 C1106 1.251 . S
C1108 H1075 0.930 . S
C1108 C1110 1.406 . S
C1108 C1113 1.261 . S
C1109 H1076 0.930 . S
C1109 N1111 1.325 . S
C1109 C1112 1.357 . S
C1110 H1078 0.928 . S
C1110 C1108 1.406 . S
C1110 N1111 1.261 . S
N1111 Co1062 2.214 . S
N1111 C1109 1.325 . S
N1111 C1110 1.261 . S
C1112 H1082 0.931 . S
C1112 C1109 1.357 . S
C1112 C1113 1.312 . S
C1113 H1084 0.930 . S
C1113 C1108 1.261 . S
C1113 C1112 1.312 . S
C1114 O1086 1.206 1_554 S
C1114 O1094 1.212 1_554 S
C1115 H1087 0.929 . S
C1115 C1118 1.391 . S
C1115 C1120 1.391 1_554 S
C1116 H1088 0.929 . S
C1116 C1117 1.390 . S
C1116 N1119 1.391 1_554 S
C1117 H1089 0.930 . S
C1117 C1116 1.390 . S
C1117 C1118 1.392 . S
C1118 H1090 0.929 . S
C1118 C1115 1.391 . S
C1118 C1117 1.392 . S
N1119 Co1063 2.257 . S
N1119 C1116 1.391 1_556 S
N1119 C1120 1.388 . S
C1120 H1091 0.930 . S
C1120 C1115 1.391 1_556 S
C1120 N1119 1.388 . S
Co1121 O1123 2.143 . S
Co1121 O1129 2.074 . S
Co1121 O1132 2.093 . S
Co1121 O1145 2.097 . S
Co1121 N1162 2.151 . S
Co1121 N1170 2.214 . S
Co1122 O1123 2.160 . S
Co1122 O1128 2.058 . S
Co1122 O1138 2.057 . S
Co1122 O1153 2.037 . S
Co1122 N1157 2.145 . S
Co1122 N1178 2.257 . S
O1123 Co1121 2.143 . S
O1123 Co1122 2.160 . S
C1124 O1125 1.278 . S
C1124 O1132 1.224 . S
O1125 C1124 1.278 . S
C1126 O1127 1.245 . S
C1126 O1138 1.232 . S
O1127 C1126 1.245 . S
O1128 Co1122 2.058 . S
O1128 C1154 1.270 1_556 S
O1129 Co1121 2.074 . S
O1129 C1154 1.258 1_556 S
H1130 C1155 0.930 . S
H1131 C1161 0.930 . S
O1132 Co1121 2.093 . S
O1132 C1124 1.224 . S
H1133 C1165 0.929 . S
H1134 C1167 0.930 . S
H1135 C1168 0.930 . S
H1136 C1166 0.929 . S
H1137 C1169 0.928 . S
O1138 Co1122 2.057 . S
O1138 C1126 1.232 . S
H1139 C1158 0.929 . S
H1140 C1159 0.929 . S
H1141 C1171 0.931 . S
H1142 C1163 0.929 . S
H1143 C1172 0.930 . S
H1144 C1164 0.931 . S
O1145 Co1121 2.097 . S
O1145 C1173 1.214 . S
H1146 C1174 0.929 . S
H1147 C1175 0.929 . S
H1148 C1176 0.930 . S
H1149 C1177 0.929 . S
H1150 C1179 0.930 . S
H1151 C1156 0.930 . S
H1152 C1160 0.930 . S
O1153 Co1122 2.037 . S
O1153 C1173 1.234 . S
C1154 O1128 1.270 1_554 S
C1154 O1129 1.258 1_554 S
C1155 H1130 0.930 . S
C1155 C1158 1.388 . S
C1155 C1160 1.418 . S
C1156 H1151 0.930 . S
C1156 C1159 1.404 . S
C1156 C1160 1.353 . S
N1157 Co1122 2.145 . S
N1157 C1158 1.397 . S
N1157 C1159 1.334 . S
C1158 H1139 0.929 . S
C1158 C1155 1.388 . S
C1158 N1157 1.397 . S
C1159 H1140 0.929 . S
C1159 C1156 1.404 . S
C1159 N1157 1.334 . S
C1160 H1152 0.930 . S
C1160 C1155 1.418 . S
C1160 C1156 1.353 . S
C1161 H1131 0.930 . S
C1161 N1162 1.330 . S
C1161 C1163 1.446 1_556 S
N1162 Co1121 2.151 . S
N1162 C1161 1.330 . S
N1162 C1166 1.418 1_556 S
C1163 H1142 0.929 . S
C1163 C1161 1.446 1_554 S
C1163 C1164 1.332 . S
C1164 H1144 0.931 . S
C1164 C1163 1.332 . S
C1164 C1165 1.267 . S
C1165 H1133 0.929 . S
C1165 C1164 1.267 . S
C1165 C1166 1.251 . S
C1166 H1136 0.929 . S
C1166 N1162 1.418 1_554 S
C1166 C1165 1.251 . S
C1167 H1134 0.930 . S
C1167 C1169 1.406 . S
C1167 C1172 1.261 . S
C1168 H1135 0.930 . S
C1168 N1170 1.325 . S
C1168 C1171 1.357 . S
C1169 H1137 0.928 . S
C1169 C1167 1.406 . S
C1169 N1170 1.261 . S
N1170 Co1121 2.214 . S
N1170 C1168 1.325 . S
N1170 C1169 1.261 . S
C1171 H1141 0.931 . S
C1171 C1168 1.357 . S
C1171 C1172 1.312 . S
C1172 H1143 0.930 . S
C1172 C1167 1.261 . S
C1172 C1171 1.312 . S
C1173 O1145 1.214 . S
C1173 O1153 1.234 . S
C1174 H1146 0.929 . S
C1174 C1177 1.391 . S
C1174 C1179 1.391 . S
C1175 H1147 0.929 . S
C1175 C1176 1.390 . S
C1175 N1178 1.391 . S
C1176 H1148 0.930 . S
C1176 C1175 1.390 . S
C1176 C1177 1.392 . S
C1177 H1149 0.929 . S
C1177 C1174 1.391 . S
C1177 C1176 1.392 . S
N1178 Co1122 2.257 . S
N1178 C1175 1.391 . S
N1178 C1179 1.388 . S
C1179 H1150 0.930 . S
C1179 C1174 1.391 . S
C1179 N1178 1.388 . S
Co1180 O1182 2.143 . S
Co1180 O1188 2.074 . S
Co1180 O1191 2.093 . S
Co1180 O1204 2.097 . S
Co1180 N1221 2.151 . S
Co1180 N1229 2.214 . S
Co1181 O1182 2.160 . S
Co1181 O1187 2.058 . S
Co1181 O1197 2.057 . S
Co1181 O1212 2.037 . S
Co1181 N1216 2.145 . S
Co1181 N1237 2.257 . S
O1182 Co1180 2.143 . S
O1182 Co1181 2.160 . S
C1183 O1184 1.278 . S
C1183 O1191 1.224 . S
O1184 C1183 1.278 . S
C1185 O1186 1.245 . S
C1185 O1197 1.232 . S
O1186 C1185 1.245 . S
O1187 Co1181 2.058 . S
O1187 C1213 1.269 . S
O1188 Co1180 2.074 . S
O1188 C1213 1.257 . S
H1189 C1214 0.930 . S
H1190 C1220 0.930 . S
O1191 Co1180 2.093 . S
O1191 C1183 1.224 . S
H1192 C1224 0.929 . S
H1193 C1226 0.930 . S
H1194 C1227 0.930 . S
H1195 C1225 0.929 . S
H1196 C1228 0.928 . S
O1197 Co1181 2.057 . S
O1197 C1185 1.232 . S
H1198 C1217 0.929 . S
H1199 C1218 0.929 . S
H1200 C1230 0.931 . S
H1201 C1222 0.929 . S
H1202 C1231 0.930 . S
H1203 C1223 0.931 . S
O1204 Co1180 2.097 . S
O1204 C1232 1.206 1_556 S
H1205 C1233 0.929 . S
H1206 C1234 0.929 . S
H1207 C1235 0.930 . S
H1208 C1236 0.929 . S
H1209 C1238 0.930 . S
H1210 C1215 0.930 . S
H1211 C1219 0.930 . S
O1212 Co1181 2.037 . S
O1212 C1232 1.212 1_556 S
C1213 O1187 1.269 . S
C1213 O1188 1.257 . S
C1214 H1189 0.930 . S
C1214 C1217 1.388 . S
C1214 C1219 1.418 . S
C1215 H1210 0.930 . S
C1215 C1218 1.404 . S
C1215 C1219 1.353 . S
N1216 Co1181 2.145 . S
N1216 C1217 1.397 . S
N1216 C1218 1.334 . S
C1217 H1198 0.929 . S
C1217 C1214 1.388 . S
C1217 N1216 1.397 . S
C1218 H1199 0.929 . S
C1218 C1215 1.404 . S
C1218 N1216 1.334 . S
C1219 H1211 0.930 . S
C1219 C1214 1.418 . S
C1219 C1215 1.353 . S
C1220 H1190 0.930 . S
C1220 N1221 1.330 . S
C1220 C1222 1.446 . S
N1221 Co1180 2.151 . S
N1221 C1220 1.330 . S
N1221 C1225 1.418 . S
C1222 H1201 0.929 . S
C1222 C1220 1.446 . S
C1222 C1223 1.332 . S
C1223 H1203 0.931 . S
C1223 C1222 1.332 . S
C1223 C1224 1.267 . S
C1224 H1192 0.929 . S
C1224 C1223 1.267 . S
C1224 C1225 1.251 . S
C1225 H1195 0.929 . S
C1225 N1221 1.418 . S
C1225 C1224 1.251 . S
C1226 H1193 0.930 . S
C1226 C1228 1.406 . S
C1226 C1231 1.261 . S
C1227 H1194 0.930 . S
C1227 N1229 1.325 . S
C1227 C1230 1.357 . S
C1228 H1196 0.928 . S
C1228 C1226 1.406 . S
C1228 N1229 1.261 . S
N1229 Co1180 2.214 . S
N1229 C1227 1.325 . S
N1229 C1228 1.261 . S
C1230 H1200 0.931 . S
C1230 C1227 1.357 . S
C1230 C1231 1.312 . S
C1231 H1202 0.930 . S
C1231 C1226 1.261 . S
C1231 C1230 1.312 . S
C1232 O1204 1.206 1_554 S
C1232 O1212 1.212 1_554 S
C1233 H1205 0.929 . S
C1233 C1236 1.391 . S
C1233 C1238 1.391 1_554 S
C1234 H1206 0.929 . S
C1234 C1235 1.390 . S
C1234 N1237 1.391 1_554 S
C1235 H1207 0.930 . S
C1235 C1234 1.390 . S
C1235 C1236 1.392 . S
C1236 H1208 0.929 . S
C1236 C1233 1.391 . S
C1236 C1235 1.392 . S
N1237 Co1181 2.257 . S
N1237 C1234 1.391 1_556 S
N1237 C1238 1.388 . S
C1238 H1209 0.930 . S
C1238 C1233 1.391 1_556 S
C1238 N1237 1.388 . S
Co1239 O1241 2.143 . S
Co1239 O1247 2.074 . S
Co1239 O1250 2.093 . S
Co1239 O1263 2.097 . S
Co1239 N1280 2.151 . S
Co1239 N1288 2.214 . S
Co1240 O1241 2.160 . S
Co1240 O1246 2.058 . S
Co1240 O1256 2.057 . S
Co1240 O1271 2.037 . S
Co1240 N1275 2.145 . S
Co1240 N1296 2.257 . S
O1241 Co1239 2.143 . S
O1241 Co1240 2.160 . S
C1242 O1243 1.278 . S
C1242 O1250 1.224 . S
O1243 C1242 1.278 . S
C1244 O1245 1.245 . S
C1244 O1256 1.232 . S
O1245 C1244 1.245 . S
O1246 Co1240 2.058 . S
O1246 C1272 1.270 1_554 S
O1247 Co1239 2.074 . S
O1247 C1272 1.258 1_554 S
H1248 C1273 0.930 . S
H1249 C1279 0.930 . S
O1250 Co1239 2.093 . S
O1250 C1242 1.224 . S
H1251 C1283 0.929 . S
H1252 C1285 0.930 . S
H1253 C1286 0.930 . S
H1254 C1284 0.929 . S
H1255 C1287 0.928 . S
O1256 Co1240 2.057 . S
O1256 C1244 1.232 . S
H1257 C1276 0.929 . S
H1258 C1277 0.929 . S
H1259 C1289 0.931 . S
H1260 C1281 0.929 . S
H1261 C1290 0.930 . S
H1262 C1282 0.931 . S
O1263 Co1239 2.097 . S
O1263 C1291 1.214 . S
H1264 C1292 0.929 . S
H1265 C1293 0.929 . S
H1266 C1294 0.930 . S
H1267 C1295 0.929 . S
H1268 C1297 0.930 . S
H1269 C1274 0.930 . S
H1270 C1278 0.930 . S
O1271 Co1240 2.037 . S
O1271 C1291 1.234 . S
C1272 O1246 1.270 1_556 S
C1272 O1247 1.258 1_556 S
C1273 H1248 0.930 . S
C1273 C1276 1.388 . S
C1273 C1278 1.418 . S
C1274 H1269 0.930 . S
C1274 C1277 1.404 . S
C1274 C1278 1.353 . S
N1275 Co1240 2.145 . S
N1275 C1276 1.397 . S
N1275 C1277 1.334 . S
C1276 H1257 0.929 . S
C1276 C1273 1.388 . S
C1276 N1275 1.397 . S
C1277 H1258 0.929 . S
C1277 C1274 1.404 . S
C1277 N1275 1.334 . S
C1278 H1270 0.930 . S
C1278 C1273 1.418 . S
C1278 C1274 1.353 . S
C1279 H1249 0.930 . S
C1279 N1280 1.330 . S
C1279 C1281 1.446 1_554 S
N1280 Co1239 2.151 . S
N1280 C1279 1.330 . S
N1280 C1284 1.418 1_554 S
C1281 H1260 0.929 . S
C1281 C1279 1.446 1_556 S
C1281 C1282 1.332 . S
C1282 H1262 0.931 . S
C1282 C1281 1.332 . S
C1282 C1283 1.267 . S
C1283 H1251 0.929 . S
C1283 C1282 1.267 . S
C1283 C1284 1.251 . S
C1284 H1254 0.929 . S
C1284 N1280 1.418 1_556 S
C1284 C1283 1.251 . S
C1285 H1252 0.930 . S
C1285 C1287 1.406 . S
C1285 C1290 1.261 . S
C1286 H1253 0.930 . S
C1286 N1288 1.325 . S
C1286 C1289 1.357 . S
C1287 H1255 0.928 . S
C1287 C1285 1.406 . S
C1287 N1288 1.261 . S
N1288 Co1239 2.214 . S
N1288 C1286 1.325 . S
N1288 C1287 1.261 . S
C1289 H1259 0.931 . S
C1289 C1286 1.357 . S
C1289 C1290 1.312 . S
C1290 H1261 0.930 . S
C1290 C1285 1.261 . S
C1290 C1289 1.312 . S
C1291 O1263 1.214 . S
C1291 O1271 1.234 . S
C1292 H1264 0.929 . S
C1292 C1295 1.391 . S
C1292 C1297 1.391 . S
C1293 H1265 0.929 . S
C1293 C1294 1.390 . S
C1293 N1296 1.391 . S
C1294 H1266 0.930 . S
C1294 C1293 1.390 . S
C1294 C1295 1.392 . S
C1295 H1267 0.929 . S
C1295 C1292 1.391 . S
C1295 C1294 1.392 . S
N1296 Co1240 2.257 . S
N1296 C1293 1.391 . S
N1296 C1297 1.388 . S
C1297 H1268 0.930 . S
C1297 C1292 1.391 . S
C1297 N1296 1.388 . S
Co1298 O1300 2.143 . S
Co1298 O1306 2.074 . S
Co1298 O1309 2.093 . S
Co1298 O1322 2.097 . S
Co1298 N1339 2.151 . S
Co1298 N1347 2.214 . S
Co1299 O1300 2.160 . S
Co1299 O1305 2.058 . S
Co1299 O1315 2.057 . S
Co1299 O1330 2.037 . S
Co1299 N1334 2.145 . S
Co1299 N1355 2.257 . S
O1300 Co1298 2.143 . S
O1300 Co1299 2.160 . S
C1301 O1302 1.278 . S
C1301 O1309 1.224 . S
O1302 C1301 1.278 . S
C1303 O1304 1.245 . S
C1303 O1315 1.232 . S
O1304 C1303 1.245 . S
O1305 Co1299 2.058 . S
O1305 C1331 1.269 . S
O1306 Co1298 2.074 . S
O1306 C1331 1.257 . S
H1307 C1332 0.930 . S
H1308 C1338 0.930 . S
O1309 Co1298 2.093 . S
O1309 C1301 1.224 . S
H1310 C1342 0.929 . S
H1311 C1344 0.930 . S
H1312 C1345 0.930 . S
H1313 C1343 0.929 . S
H1314 C1346 0.928 . S
O1315 Co1299 2.057 . S
O1315 C1303 1.232 . S
H1316 C1335 0.929 . S
H1317 C1336 0.929 . S
H1318 C1348 0.931 . S
H1319 C1340 0.929 . S
H1320 C1349 0.930 . S
H1321 C1341 0.931 . S
O1322 Co1298 2.097 . S
O1322 C1350 1.206 1_554 S
H1323 C1351 0.929 . S
H1324 C1352 0.929 . S
H1325 C1353 0.930 . S
H1326 C1354 0.929 . S
H1327 C1356 0.930 . S
H1328 C1333 0.930 . S
H1329 C1337 0.930 . S
O1330 Co1299 2.037 . S
O1330 C1350 1.212 1_554 S
C1331 O1305 1.269 . S
C1331 O1306 1.257 . S
C1332 H1307 0.930 . S
C1332 C1335 1.388 . S
C1332 C1337 1.418 . S
C1333 H1328 0.930 . S
C1333 C1336 1.404 . S
C1333 C1337 1.353 . S
N1334 Co1299 2.145 . S
N1334 C1335 1.397 . S
N1334 C1336 1.334 . S
C1335 H1316 0.929 . S
C1335 C1332 1.388 . S
C1335 N1334 1.397 . S
C1336 H1317 0.929 . S
C1336 C1333 1.404 . S
C1336 N1334 1.334 . S
C1337 H1329 0.930 . S
C1337 C1332 1.418 . S
C1337 C1333 1.353 . S
C1338 H1308 0.930 . S
C1338 N1339 1.330 . S
C1338 C1340 1.446 . S
N1339 Co1298 2.151 . S
N1339 C1338 1.330 . S
N1339 C1343 1.418 . S
C1340 H1319 0.929 . S
C1340 C1338 1.446 . S
C1340 C1341 1.332 . S
C1341 H1321 0.931 . S
C1341 C1340 1.332 . S
C1341 C1342 1.267 . S
C1342 H1310 0.929 . S
C1342 C1341 1.267 . S
C1342 C1343 1.251 . S
C1343 H1313 0.929 . S
C1343 N1339 1.418 . S
C1343 C1342 1.251 . S
C1344 H1311 0.930 . S
C1344 C1346 1.406 . S
C1344 C1349 1.261 . S
C1345 H1312 0.930 . S
C1345 N1347 1.325 . S
C1345 C1348 1.357 . S
C1346 H1314 0.928 . S
C1346 C1344 1.406 . S
C1346 N1347 1.261 . S
N1347 Co1298 2.214 . S
N1347 C1345 1.325 . S
N1347 C1346 1.261 . S
C1348 H1318 0.931 . S
C1348 C1345 1.357 . S
C1348 C1349 1.312 . S
C1349 H1320 0.930 . S
C1349 C1344 1.261 . S
C1349 C1348 1.312 . S
C1350 O1322 1.206 1_556 S
C1350 O1330 1.212 1_556 S
C1351 H1323 0.929 . S
C1351 C1354 1.391 . S
C1351 C1356 1.391 1_556 S
C1352 H1324 0.929 . S
C1352 C1353 1.390 . S
C1352 N1355 1.391 1_556 S
C1353 H1325 0.930 . S
C1353 C1352 1.390 . S
C1353 C1354 1.392 . S
C1354 H1326 0.929 . S
C1354 C1351 1.391 . S
C1354 C1353 1.392 . S
N1355 Co1299 2.257 . S
N1355 C1352 1.391 1_554 S
N1355 C1356 1.388 . S
C1356 H1327 0.930 . S
C1356 C1351 1.391 1_554 S
C1356 N1355 1.388 . S
Co1357 O1359 2.143 . S
Co1357 O1365 2.074 . S
Co1357 O1368 2.093 . S
Co1357 O1381 2.097 . S
Co1357 N1398 2.151 . S
Co1357 N1406 2.214 . S
Co1358 O1359 2.160 . S
Co1358 O1364 2.058 . S
Co1358 O1374 2.057 . S
Co1358 O1389 2.037 . S
Co1358 N1393 2.145 . S
Co1358 N1414 2.257 . S
O1359 Co1357 2.143 . S
O1359 Co1358 2.160 . S
C1360 O1361 1.278 . S
C1360 O1368 1.224 . S
O1361 C1360 1.278 . S
C1362 O1363 1.245 . S
C1362 O1374 1.232 . S
O1363 C1362 1.245 . S
O1364 Co1358 2.058 . S
O1364 C1390 1.269 . S
O1365 Co1357 2.074 . S
O1365 C1390 1.257 . S
H1366 C1391 0.930 . S
H1367 C1397 0.930 . S
O1368 Co1357 2.093 . S
O1368 C1360 1.224 . S
H1369 C1401 0.929 . S
H1370 C1403 0.930 . S
H1371 C1404 0.930 . S
H1372 C1402 0.929 . S
H1373 C1405 0.928 . S
O1374 Co1358 2.057 . S
O1374 C1362 1.232 . S
H1375 C1394 0.929 . S
H1376 C1395 0.929 . S
H1377 C1407 0.931 . S
H1378 C1399 0.929 . S
H1379 C1408 0.930 . S
H1380 C1400 0.931 . S
O1381 Co1357 2.097 . S
O1381 C1409 1.206 1_554 S
H1382 C1410 0.929 . S
H1383 C1411 0.929 . S
H1384 C1412 0.930 . S
H1385 C1413 0.929 . S
H1386 C1415 0.930 . S
H1387 C1392 0.930 . S
H1388 C1396 0.930 . S
O1389 Co1358 2.037 . S
O1389 C1409 1.212 1_554 S
C1390 O1364 1.269 . S
C1390 O1365 1.257 . S
C1391 H1366 0.930 . S
C1391 C1394 1.388 . S
C1391 C1396 1.418 . S
C1392 H1387 0.930 . S
C1392 C1395 1.404 . S
C1392 C1396 1.353 . S
N1393 Co1358 2.145 . S
N1393 C1394 1.397 . S
N1393 C1395 1.334 . S
C1394 H1375 0.929 . S
C1394 C1391 1.388 . S
C1394 N1393 1.397 . S
C1395 H1376 0.929 . S
C1395 C1392 1.404 . S
C1395 N1393 1.334 . S
C1396 H1388 0.930 . S
C1396 C1391 1.418 . S
C1396 C1392 1.353 . S
C1397 H1367 0.930 . S
C1397 N1398 1.330 . S
C1397 C1399 1.446 . S
N1398 Co1357 2.151 . S
N1398 C1397 1.330 . S
N1398 C1402 1.418 . S
C1399 H1378 0.929 . S
C1399 C1397 1.446 . S
C1399 C1400 1.332 . S
C1400 H1380 0.931 . S
C1400 C1399 1.332 . S
C1400 C1401 1.267 . S
C1401 H1369 0.929 . S
C1401 C1400 1.267 . S
C1401 C1402 1.251 . S
C1402 H1372 0.929 . S
C1402 N1398 1.418 . S
C1402 C1401 1.251 . S
C1403 H1370 0.930 . S
C1403 C1405 1.406 . S
C1403 C1408 1.261 . S
C1404 H1371 0.930 . S
C1404 N1406 1.325 . S
C1404 C1407 1.357 . S
C1405 H1373 0.928 . S
C1405 C1403 1.406 . S
C1405 N1406 1.261 . S
N1406 Co1357 2.214 . S
N1406 C1404 1.325 . S
N1406 C1405 1.261 . S
C1407 H1377 0.931 . S
C1407 C1404 1.357 . S
C1407 C1408 1.312 . S
C1408 H1379 0.930 . S
C1408 C1403 1.261 . S
C1408 C1407 1.312 . S
C1409 O1381 1.206 1_556 S
C1409 O1389 1.212 1_556 S
C1410 H1382 0.929 . S
C1410 C1413 1.391 . S
C1410 C1415 1.391 1_556 S
C1411 H1383 0.929 . S
C1411 C1412 1.390 . S
C1411 N1414 1.391 1_556 S
C1412 H1384 0.930 . S
C1412 C1411 1.390 . S
C1412 C1413 1.392 . S
C1413 H1385 0.929 . S
C1413 C1410 1.391 . S
C1413 C1412 1.392 . S
N1414 Co1358 2.257 . S
N1414 C1411 1.391 1_554 S
N1414 C1415 1.388 . S
C1415 H1386 0.930 . S
C1415 C1410 1.391 1_554 S
C1415 N1414 1.388 . S
Co1416 O1418 2.143 . S
Co1416 O1424 2.074 . S
Co1416 O1427 2.093 . S
Co1416 O1440 2.097 . S
Co1416 N1457 2.151 . S
Co1416 N1465 2.214 . S
Co1417 O1418 2.160 . S
Co1417 O1423 2.058 . S
Co1417 O1433 2.057 . S
Co1417 O1448 2.037 . S
Co1417 N1452 2.145 . S
Co1417 N1473 2.257 . S
O1418 Co1416 2.143 . S
O1418 Co1417 2.160 . S
C1419 O1420 1.278 . S
C1419 O1427 1.224 . S
O1420 C1419 1.278 . S
C1421 O1422 1.245 . S
C1421 O1433 1.232 . S
O1422 C1421 1.245 . S
O1423 Co1417 2.058 . S
O1423 C1449 1.269 . S
O1424 Co1416 2.074 . S
O1424 C1449 1.257 . S
H1425 C1450 0.930 . S
H1426 C1456 0.930 . S
O1427 Co1416 2.093 . S
O1427 C1419 1.224 . S
H1428 C1460 0.929 . S
H1429 C1462 0.930 . S
H1430 C1463 0.930 . S
H1431 C1461 0.929 . S
H1432 C1464 0.928 . S
O1433 Co1417 2.057 . S
O1433 C1421 1.232 . S
H1434 C1453 0.929 . S
H1435 C1454 0.929 . S
H1436 C1466 0.931 . S
H1437 C1458 0.929 . S
H1438 C1467 0.930 . S
H1439 C1459 0.931 . S
O1440 Co1416 2.097 . S
O1440 C1468 1.214 . S
H1441 C1469 0.929 . S
H1442 C1470 0.929 . S
H1443 C1471 0.930 . S
H1444 C1472 0.929 . S
H1445 C1474 0.930 . S
H1446 C1451 0.930 . S
H1447 C1455 0.930 . S
O1448 Co1417 2.037 . S
O1448 C1468 1.234 . S
C1449 O1423 1.269 . S
C1449 O1424 1.257 . S
C1450 H1425 0.930 . S
C1450 C1453 1.388 . S
C1450 C1455 1.418 . S
C1451 H1446 0.930 . S
C1451 C1454 1.404 . S
C1451 C1455 1.353 . S
N1452 Co1417 2.145 . S
N1452 C1453 1.397 . S
N1452 C1454 1.334 . S
C1453 H1434 0.929 . S
C1453 C1450 1.388 . S
C1453 N1452 1.397 . S
C1454 H1435 0.929 . S
C1454 C1451 1.404 . S
C1454 N1452 1.334 . S
C1455 H1447 0.930 . S
C1455 C1450 1.418 . S
C1455 C1451 1.353 . S
C1456 H1426 0.930 . S
C1456 N1457 1.330 . S
C1456 C1458 1.446 . S
N1457 Co1416 2.151 . S
N1457 C1456 1.330 . S
N1457 C1461 1.418 . S
C1458 H1437 0.929 . S
C1458 C1456 1.446 . S
C1458 C1459 1.332 . S
C1459 H1439 0.931 . S
C1459 C1458 1.332 . S
C1459 C1460 1.267 . S
C1460 H1428 0.929 . S
C1460 C1459 1.267 . S
C1460 C1461 1.251 . S
C1461 H1431 0.929 . S
C1461 N1457 1.418 . S
C1461 C1460 1.251 . S
C1462 H1429 0.930 . S
C1462 C1464 1.406 . S
C1462 C1467 1.261 . S
C1463 H1430 0.930 . S
C1463 N1465 1.325 . S
C1463 C1466 1.357 . S
C1464 H1432 0.928 . S
C1464 C1462 1.406 . S
C1464 N1465 1.261 . S
N1465 Co1416 2.214 . S
N1465 C1463 1.325 . S
N1465 C1464 1.261 . S
C1466 H1436 0.931 . S
C1466 C1463 1.357 . S
C1466 C1467 1.312 . S
C1467 H1438 0.930 . S
C1467 C1462 1.261 . S
C1467 C1466 1.312 . S
C1468 O1440 1.214 . S
C1468 O1448 1.234 . S
C1469 H1441 0.929 . S
C1469 C1472 1.391 . S
C1469 C1474 1.391 . S
C1470 H1442 0.929 . S
C1470 C1471 1.390 . S
C1470 N1473 1.391 . S
C1471 H1443 0.930 . S
C1471 C1470 1.390 . S
C1471 C1472 1.392 . S
C1472 H1444 0.929 . S
C1472 C1469 1.391 . S
C1472 C1471 1.392 . S
N1473 Co1417 2.257 . S
N1473 C1470 1.391 . S
N1473 C1474 1.388 . S
C1474 H1445 0.930 . S
C1474 C1469 1.391 . S
C1474 N1473 1.388 . S
Co1475 O1477 2.143 . S
Co1475 O1483 2.074 . S
Co1475 O1486 2.093 . S
Co1475 O1499 2.097 . S
Co1475 N1516 2.151 . S
Co1475 N1524 2.214 . S
Co1476 O1477 2.160 . S
Co1476 O1482 2.058 . S
Co1476 O1492 2.057 . S
Co1476 O1507 2.037 . S
Co1476 N1511 2.145 . S
Co1476 N1532 2.257 . S
O1477 Co1475 2.143 . S
O1477 Co1476 2.160 . S
C1478 O1479 1.278 . S
C1478 O1486 1.224 . S
O1479 C1478 1.278 . S
C1480 O1481 1.245 . S
C1480 O1492 1.232 . S
O1481 C1480 1.245 . S
O1482 Co1476 2.058 . S
O1482 C1508 1.269 . S
O1483 Co1475 2.074 . S
O1483 C1508 1.257 . S
H1484 C1509 0.930 . S
H1485 C1515 0.930 . S
O1486 Co1475 2.093 . S
O1486 C1478 1.224 . S
H1487 C1519 0.929 . S
H1488 C1521 0.930 . S
H1489 C1522 0.930 . S
H1490 C1520 0.929 . S
H1491 C1523 0.928 . S
O1492 Co1476 2.057 . S
O1492 C1480 1.232 . S
H1493 C1512 0.929 . S
H1494 C1513 0.929 . S
H1495 C1525 0.931 . S
H1496 C1517 0.929 . S
H1497 C1526 0.930 . S
H1498 C1518 0.931 . S
O1499 Co1475 2.097 . S
O1499 C1527 1.214 . S
H1500 C1528 0.929 . S
H1501 C1529 0.929 . S
H1502 C1530 0.930 . S
H1503 C1531 0.929 . S
H1504 C1533 0.930 . S
H1505 C1510 0.930 . S
H1506 C1514 0.930 . S
O1507 Co1476 2.037 . S
O1507 C1527 1.234 . S
C1508 O1482 1.269 . S
C1508 O1483 1.257 . S
C1509 H1484 0.930 . S
C1509 C1512 1.388 . S
C1509 C1514 1.418 . S
C1510 H1505 0.930 . S
C1510 C1513 1.404 . S
C1510 C1514 1.353 . S
N1511 Co1476 2.145 . S
N1511 C1512 1.397 . S
N1511 C1513 1.334 . S
C1512 H1493 0.929 . S
C1512 C1509 1.388 . S
C1512 N1511 1.397 . S
C1513 H1494 0.929 . S
C1513 C1510 1.404 . S
C1513 N1511 1.334 . S
C1514 H1506 0.930 . S
C1514 C1509 1.418 . S
C1514 C1510 1.353 . S
C1515 H1485 0.930 . S
C1515 N1516 1.330 . S
C1515 C1517 1.446 . S
N1516 Co1475 2.151 . S
N1516 C1515 1.330 . S
N1516 C1520 1.418 . S
C1517 H1496 0.929 . S
C1517 C1515 1.446 . S
C1517 C1518 1.332 . S
C1518 H1498 0.931 . S
C1518 C1517 1.332 . S
C1518 C1519 1.267 . S
C1519 H1487 0.929 . S
C1519 C1518 1.267 . S
C1519 C1520 1.251 . S
C1520 H1490 0.929 . S
C1520 N1516 1.418 . S
C1520 C1519 1.251 . S
C1521 H1488 0.930 . S
C1521 C1523 1.406 . S
C1521 C1526 1.261 . S
C1522 H1489 0.930 . S
C1522 N1524 1.325 . S
C1522 C1525 1.357 . S
C1523 H1491 0.928 . S
C1523 C1521 1.406 . S
C1523 N1524 1.261 . S
N1524 Co1475 2.214 . S
N1524 C1522 1.325 . S
N1524 C1523 1.261 . S
C1525 H1495 0.931 . S
C1525 C1522 1.357 . S
C1525 C1526 1.312 . S
C1526 H1497 0.930 . S
C1526 C1521 1.261 . S
C1526 C1525 1.312 . S
C1527 O1499 1.214 . S
C1527 O1507 1.234 . S
C1528 H1500 0.929 . S
C1528 C1531 1.391 . S
C1528 C1533 1.391 . S
C1529 H1501 0.929 . S
C1529 C1530 1.390 . S
C1529 N1532 1.391 . S
C1530 H1502 0.930 . S
C1530 C1529 1.390 . S
C1530 C1531 1.392 . S
C1531 H1503 0.929 . S
C1531 C1528 1.391 . S
C1531 C1530 1.392 . S
N1532 Co1476 2.257 . S
N1532 C1529 1.391 . S
N1532 C1533 1.388 . S
C1533 H1504 0.930 . S
C1533 C1528 1.391 . S
C1533 N1532 1.388 . S
Co1534 O1536 2.143 . S
Co1534 O1542 2.074 . S
Co1534 O1545 2.093 . S
Co1534 O1558 2.097 . S
Co1534 N1575 2.151 . S
Co1534 N1583 2.214 . S
Co1535 O1536 2.160 . S
Co1535 O1541 2.058 . S
Co1535 O1551 2.057 . S
Co1535 O1566 2.037 . S
Co1535 N1570 2.145 . S
Co1535 N1591 2.257 . S
O1536 Co1534 2.143 . S
O1536 Co1535 2.160 . S
C1537 O1538 1.278 . S
C1537 O1545 1.224 . S
O1538 C1537 1.278 . S
C1539 O1540 1.245 . S
C1539 O1551 1.232 . S
O1540 C1539 1.245 . S
O1541 Co1535 2.058 . S
O1541 C1567 1.269 . S
O1542 Co1534 2.074 . S
O1542 C1567 1.257 . S
H1543 C1568 0.930 . S
H1544 C1574 0.930 . S
O1545 Co1534 2.093 . S
O1545 C1537 1.224 . S
H1546 C1578 0.929 . S
H1547 C1580 0.930 . S
H1548 C1581 0.930 . S
H1549 C1579 0.929 . S
H1550 C1582 0.928 . S
O1551 Co1535 2.057 . S
O1551 C1539 1.232 . S
H1552 C1571 0.929 . S
H1553 C1572 0.929 . S
H1554 C1584 0.931 . S
H1555 C1576 0.929 . S
H1556 C1585 0.930 . S
H1557 C1577 0.931 . S
O1558 Co1534 2.097 . S
O1558 C1586 1.214 . S
H1559 C1587 0.929 . S
H1560 C1588 0.929 . S
H1561 C1589 0.930 . S
H1562 C1590 0.929 . S
H1563 C1592 0.930 . S
H1564 C1569 0.930 . S
H1565 C1573 0.930 . S
O1566 Co1535 2.037 . S
O1566 C1586 1.234 . S
C1567 O1541 1.269 . S
C1567 O1542 1.257 . S
C1568 H1543 0.930 . S
C1568 C1571 1.388 . S
C1568 C1573 1.418 . S
C1569 H1564 0.930 . S
C1569 C1572 1.404 . S
C1569 C1573 1.353 . S
N1570 Co1535 2.145 . S
N1570 C1571 1.397 . S
N1570 C1572 1.334 . S
C1571 H1552 0.929 . S
C1571 C1568 1.388 . S
C1571 N1570 1.397 . S
C1572 H1553 0.929 . S
C1572 C1569 1.404 . S
C1572 N1570 1.334 . S
C1573 H1565 0.930 . S
C1573 C1568 1.418 . S
C1573 C1569 1.353 . S
C1574 H1544 0.930 . S
C1574 N1575 1.330 . S
C1574 C1576 1.446 . S
N1575 Co1534 2.151 . S
N1575 C1574 1.330 . S
N1575 C1579 1.418 . S
C1576 H1555 0.929 . S
C1576 C1574 1.446 . S
C1576 C1577 1.332 . S
C1577 H1557 0.931 . S
C1577 C1576 1.332 . S
C1577 C1578 1.267 . S
C1578 H1546 0.929 . S
C1578 C1577 1.267 . S
C1578 C1579 1.251 . S
C1579 H1549 0.929 . S
C1579 N1575 1.418 . S
C1579 C1578 1.251 . S
C1580 H1547 0.930 . S
C1580 C1582 1.406 . S
C1580 C1585 1.261 . S
C1581 H1548 0.930 . S
C1581 N1583 1.325 . S
C1581 C1584 1.357 . S
C1582 H1550 0.928 . S
C1582 C1580 1.406 . S
C1582 N1583 1.261 . S
N1583 Co1534 2.214 . S
N1583 C1581 1.325 . S
N1583 C1582 1.261 . S
C1584 H1554 0.931 . S
C1584 C1581 1.357 . S
C1584 C1585 1.312 . S
C1585 H1556 0.930 . S
C1585 C1580 1.261 . S
C1585 C1584 1.312 . S
C1586 O1558 1.214 . S
C1586 O1566 1.234 . S
C1587 H1559 0.929 . S
C1587 C1590 1.391 . S
C1587 C1592 1.391 . S
C1588 H1560 0.929 . S
C1588 C1589 1.390 . S
C1588 N1591 1.391 . S
C1589 H1561 0.930 . S
C1589 C1588 1.390 . S
C1589 C1590 1.392 . S
C1590 H1562 0.929 . S
C1590 C1587 1.391 . S
C1590 C1589 1.392 . S
N1591 Co1535 2.257 . S
N1591 C1588 1.391 . S
N1591 C1592 1.388 . S
C1592 H1563 0.930 . S
C1592 C1587 1.391 . S
C1592 N1591 1.388 . S
Co1593 O1595 2.143 . S
Co1593 O1601 2.074 . S
Co1593 O1604 2.093 . S
Co1593 O1617 2.097 . S
Co1593 N1634 2.151 . S
Co1593 N1642 2.214 . S
Co1594 O1595 2.160 . S
Co1594 O1600 2.058 . S
Co1594 O1610 2.057 . S
Co1594 O1625 2.037 . S
Co1594 N1629 2.145 . S
Co1594 N1650 2.257 . S
O1595 Co1593 2.143 . S
O1595 Co1594 2.160 . S
C1596 O1597 1.278 . S
C1596 O1604 1.224 . S
O1597 C1596 1.278 . S
C1598 O1599 1.245 . S
C1598 O1610 1.232 . S
O1599 C1598 1.245 . S
O1600 Co1594 2.058 . S
O1600 C1626 1.269 . S
O1601 Co1593 2.074 . S
O1601 C1626 1.257 . S
H1602 C1627 0.930 . S
H1603 C1633 0.930 . S
O1604 Co1593 2.093 . S
O1604 C1596 1.224 . S
H1605 C1637 0.929 . S
H1606 C1639 0.930 . S
H1607 C1640 0.930 . S
H1608 C1638 0.929 . S
H1609 C1641 0.928 . S
O1610 Co1594 2.057 . S
O1610 C1598 1.232 . S
H1611 C1630 0.929 . S
H1612 C1631 0.929 . S
H1613 C1643 0.931 . S
H1614 C1635 0.929 . S
H1615 C1644 0.930 . S
H1616 C1636 0.931 . S
O1617 Co1593 2.097 . S
O1617 C1645 1.214 . S
H1618 C1646 0.929 . S
H1619 C1647 0.929 . S
H1620 C1648 0.930 . S
H1621 C1649 0.929 . S
H1622 C1651 0.930 . S
H1623 C1628 0.930 . S
H1624 C1632 0.930 . S
O1625 Co1594 2.037 . S
O1625 C1645 1.234 . S
C1626 O1600 1.269 . S
C1626 O1601 1.257 . S
C1627 H1602 0.930 . S
C1627 C1630 1.388 . S
C1627 C1632 1.418 . S
C1628 H1623 0.930 . S
C1628 C1631 1.404 . S
C1628 C1632 1.353 . S
N1629 Co1594 2.145 . S
N1629 C1630 1.397 . S
N1629 C1631 1.334 . S
C1630 H1611 0.929 . S
C1630 C1627 1.388 . S
C1630 N1629 1.397 . S
C1631 H1612 0.929 . S
C1631 C1628 1.404 . S
C1631 N1629 1.334 . S
C1632 H1624 0.930 . S
C1632 C1627 1.418 . S
C1632 C1628 1.353 . S
C1633 H1603 0.930 . S
C1633 N1634 1.330 . S
C1633 C1635 1.446 . S
N1634 Co1593 2.151 . S
N1634 C1633 1.330 . S
N1634 C1638 1.418 . S
C1635 H1614 0.929 . S
C1635 C1633 1.446 . S
C1635 C1636 1.332 . S
C1636 H1616 0.931 . S
C1636 C1635 1.332 . S
C1636 C1637 1.267 . S
C1637 H1605 0.929 . S
C1637 C1636 1.267 . S
C1637 C1638 1.251 . S
C1638 H1608 0.929 . S
C1638 N1634 1.418 . S
C1638 C1637 1.251 . S
C1639 H1606 0.930 . S
C1639 C1641 1.406 . S
C1639 C1644 1.261 . S
C1640 H1607 0.930 . S
C1640 N1642 1.325 . S
C1640 C1643 1.357 . S
C1641 H1609 0.928 . S
C1641 C1639 1.406 . S
C1641 N1642 1.261 . S
N1642 Co1593 2.214 . S
N1642 C1640 1.325 . S
N1642 C1641 1.261 . S
C1643 H1613 0.931 . S
C1643 C1640 1.357 . S
C1643 C1644 1.312 . S
C1644 H1615 0.930 . S
C1644 C1639 1.261 . S
C1644 C1643 1.312 . S
C1645 O1617 1.214 . S
C1645 O1625 1.234 . S
C1646 H1618 0.929 . S
C1646 C1649 1.391 . S
C1646 C1651 1.391 . S
C1647 H1619 0.929 . S
C1647 C1648 1.390 . S
C1647 N1650 1.391 . S
C1648 H1620 0.930 . S
C1648 C1647 1.390 . S
C1648 C1649 1.392 . S
C1649 H1621 0.929 . S
C1649 C1646 1.391 . S
C1649 C1648 1.392 . S
N1650 Co1594 2.257 . S
N1650 C1647 1.391 . S
N1650 C1651 1.388 . S
C1651 H1622 0.930 . S
C1651 C1646 1.391 . S
C1651 N1650 1.388 . S
Co1652 O1654 2.143 . S
Co1652 O1660 2.074 . S
Co1652 O1663 2.093 . S
Co1652 O1676 2.097 . S
Co1652 N1693 2.151 . S
Co1652 N1701 2.214 . S
Co1653 O1654 2.160 . S
Co1653 O1659 2.058 . S
Co1653 O1669 2.057 . S
Co1653 O1684 2.037 . S
Co1653 N1688 2.145 . S
Co1653 N1709 2.257 . S
O1654 Co1652 2.143 . S
O1654 Co1653 2.160 . S
C1655 O1656 1.278 . S
C1655 O1663 1.224 . S
O1656 C1655 1.278 . S
C1657 O1658 1.245 . S
C1657 O1669 1.232 . S
O1658 C1657 1.245 . S
O1659 Co1653 2.058 . S
O1659 C1685 1.269 . S
O1660 Co1652 2.074 . S
O1660 C1685 1.257 . S
H1661 C1686 0.930 . S
H1662 C1692 0.930 . S
O1663 Co1652 2.093 . S
O1663 C1655 1.224 . S
H1664 C1696 0.929 . S
H1665 C1698 0.930 . S
H1666 C1699 0.930 . S
H1667 C1697 0.929 . S
H1668 C1700 0.928 . S
O1669 Co1653 2.057 . S
O1669 C1657 1.232 . S
H1670 C1689 0.929 . S
H1671 C1690 0.929 . S
H1672 C1702 0.931 . S
H1673 C1694 0.929 . S
H1674 C1703 0.930 . S
H1675 C1695 0.931 . S
O1676 Co1652 2.097 . S
O1676 C1704 1.214 . S
H1677 C1705 0.929 . S
H1678 C1706 0.929 . S
H1679 C1707 0.930 . S
H1680 C1708 0.929 . S
H1681 C1710 0.930 . S
H1682 C1687 0.930 . S
H1683 C1691 0.930 . S
O1684 Co1653 2.037 . S
O1684 C1704 1.234 . S
C1685 O1659 1.269 . S
C1685 O1660 1.257 . S
C1686 H1661 0.930 . S
C1686 C1689 1.388 . S
C1686 C1691 1.418 . S
C1687 H1682 0.930 . S
C1687 C1690 1.404 . S
C1687 C1691 1.353 . S
N1688 Co1653 2.145 . S
N1688 C1689 1.397 . S
N1688 C1690 1.334 . S
C1689 H1670 0.929 . S
C1689 C1686 1.388 . S
C1689 N1688 1.397 . S
C1690 H1671 0.929 . S
C1690 C1687 1.404 . S
C1690 N1688 1.334 . S
C1691 H1683 0.930 . S
C1691 C1686 1.418 . S
C1691 C1687 1.353 . S
C1692 H1662 0.930 . S
C1692 N1693 1.330 . S
C1692 C1694 1.446 . S
N1693 Co1652 2.151 . S
N1693 C1692 1.330 . S
N1693 C1697 1.418 . S
C1694 H1673 0.929 . S
C1694 C1692 1.446 . S
C1694 C1695 1.332 . S
C1695 H1675 0.931 . S
C1695 C1694 1.332 . S
C1695 C1696 1.267 . S
C1696 H1664 0.929 . S
C1696 C1695 1.267 . S
C1696 C1697 1.251 . S
C1697 H1667 0.929 . S
C1697 N1693 1.418 . S
C1697 C1696 1.251 . S
C1698 H1665 0.930 . S
C1698 C1700 1.406 . S
C1698 C1703 1.261 . S
C1699 H1666 0.930 . S
C1699 N1701 1.325 . S
C1699 C1702 1.357 . S
C1700 H1668 0.928 . S
C1700 C1698 1.406 . S
C1700 N1701 1.261 . S
N1701 Co1652 2.214 . S
N1701 C1699 1.325 . S
N1701 C1700 1.261 . S
C1702 H1672 0.931 . S
C1702 C1699 1.357 . S
C1702 C1703 1.312 . S
C1703 H1674 0.930 . S
C1703 C1698 1.261 . S
C1703 C1702 1.312 . S
C1704 O1676 1.214 . S
C1704 O1684 1.234 . S
C1705 H1677 0.929 . S
C1705 C1708 1.391 . S
C1705 C1710 1.391 . S
C1706 H1678 0.929 . S
C1706 C1707 1.390 . S
C1706 N1709 1.391 . S
C1707 H1679 0.930 . S
C1707 C1706 1.390 . S
C1707 C1708 1.392 . S
C1708 H1680 0.929 . S
C1708 C1705 1.391 . S
C1708 C1707 1.392 . S
N1709 Co1653 2.257 . S
N1709 C1706 1.391 . S
N1709 C1710 1.388 . S
C1710 H1681 0.930 . S
C1710 C1705 1.391 . S
C1710 N1709 1.388 . S
Co1711 O1713 2.143 . S
Co1711 O1719 2.074 . S
Co1711 O1722 2.093 . S
Co1711 O1735 2.097 . S
Co1711 N1752 2.151 . S
Co1711 N1760 2.214 . S
Co1712 O1713 2.160 . S
Co1712 O1718 2.058 . S
Co1712 O1728 2.057 . S
Co1712 O1743 2.037 . S
Co1712 N1747 2.145 . S
Co1712 N1768 2.257 . S
O1713 Co1711 2.143 . S
O1713 Co1712 2.160 . S
C1714 O1715 1.278 . S
C1714 O1722 1.224 . S
O1715 C1714 1.278 . S
C1716 O1717 1.245 . S
C1716 O1728 1.232 . S
O1717 C1716 1.245 . S
O1718 Co1712 2.058 . S
O1718 C1744 1.269 . S
O1719 Co1711 2.074 . S
O1719 C1744 1.257 . S
H1720 C1745 0.930 . S
H1721 C1751 0.930 . S
O1722 Co1711 2.093 . S
O1722 C1714 1.224 . S
H1723 C1755 0.929 . S
H1724 C1757 0.930 . S
H1725 C1758 0.930 . S
H1726 C1756 0.929 . S
H1727 C1759 0.928 . S
O1728 Co1712 2.057 . S
O1728 C1716 1.232 . S
H1729 C1748 0.929 . S
H1730 C1749 0.929 . S
H1731 C1761 0.931 . S
H1732 C1753 0.929 . S
H1733 C1762 0.930 . S
H1734 C1754 0.931 . S
O1735 Co1711 2.097 . S
O1735 C1763 1.214 . S
H1736 C1764 0.929 . S
H1737 C1765 0.929 . S
H1738 C1766 0.930 . S
H1739 C1767 0.929 . S
H1740 C1769 0.930 . S
H1741 C1746 0.930 . S
H1742 C1750 0.930 . S
O1743 Co1712 2.037 . S
O1743 C1763 1.234 . S
C1744 O1718 1.269 . S
C1744 O1719 1.257 . S
C1745 H1720 0.930 . S
C1745 C1748 1.388 . S
C1745 C1750 1.418 . S
C1746 H1741 0.930 . S
C1746 C1749 1.404 . S
C1746 C1750 1.353 . S
N1747 Co1712 2.145 . S
N1747 C1748 1.397 . S
N1747 C1749 1.334 . S
C1748 H1729 0.929 . S
C1748 C1745 1.388 . S
C1748 N1747 1.397 . S
C1749 H1730 0.929 . S
C1749 C1746 1.404 . S
C1749 N1747 1.334 . S
C1750 H1742 0.930 . S
C1750 C1745 1.418 . S
C1750 C1746 1.353 . S
C1751 H1721 0.930 . S
C1751 N1752 1.330 . S
C1751 C1753 1.446 . S
N1752 Co1711 2.151 . S
N1752 C1751 1.330 . S
N1752 C1756 1.418 . S
C1753 H1732 0.929 . S
C1753 C1751 1.446 . S
C1753 C1754 1.332 . S
C1754 H1734 0.931 . S
C1754 C1753 1.332 . S
C1754 C1755 1.267 . S
C1755 H1723 0.929 . S
C1755 C1754 1.267 . S
C1755 C1756 1.251 . S
C1756 H1726 0.929 . S
C1756 N1752 1.418 . S
C1756 C1755 1.251 . S
C1757 H1724 0.930 . S
C1757 C1759 1.406 . S
C1757 C1762 1.261 . S
C1758 H1725 0.930 . S
C1758 N1760 1.325 . S
C1758 C1761 1.357 . S
C1759 H1727 0.928 . S
C1759 C1757 1.406 . S
C1759 N1760 1.261 . S
N1760 Co1711 2.214 . S
N1760 C1758 1.325 . S
N1760 C1759 1.261 . S
C1761 H1731 0.931 . S
C1761 C1758 1.357 . S
C1761 C1762 1.312 . S
C1762 H1733 0.930 . S
C1762 C1757 1.261 . S
C1762 C1761 1.312 . S
C1763 O1735 1.214 . S
C1763 O1743 1.234 . S
C1764 H1736 0.929 . S
C1764 C1767 1.391 . S
C1764 C1769 1.391 . S
C1765 H1737 0.929 . S
C1765 C1766 1.390 . S
C1765 N1768 1.391 . S
C1766 H1738 0.930 . S
C1766 C1765 1.390 . S
C1766 C1767 1.392 . S
C1767 H1739 0.929 . S
C1767 C1764 1.391 . S
C1767 C1766 1.392 . S
N1768 Co1712 2.257 . S
N1768 C1765 1.391 . S
N1768 C1769 1.388 . S
C1769 H1740 0.930 . S
C1769 C1764 1.391 . S
C1769 N1768 1.388 . S
Co1770 O1772 2.143 . S
Co1770 O1778 2.074 . S
Co1770 O1781 2.093 . S
Co1770 O1794 2.097 . S
Co1770 N1811 2.151 . S
Co1770 N1819 2.214 . S
Co1771 O1772 2.160 . S
Co1771 O1777 2.058 . S
Co1771 O1787 2.057 . S
Co1771 O1802 2.037 . S
Co1771 N1806 2.145 . S
Co1771 N1827 2.257 . S
O1772 Co1770 2.143 . S
O1772 Co1771 2.160 . S
C1773 O1774 1.278 . S
C1773 O1781 1.224 . S
O1774 C1773 1.278 . S
C1775 O1776 1.245 . S
C1775 O1787 1.232 . S
O1776 C1775 1.245 . S
O1777 Co1771 2.058 . S
O1777 C1803 1.269 . S
O1778 Co1770 2.074 . S
O1778 C1803 1.257 . S
H1779 C1804 0.930 . S
H1780 C1810 0.930 . S
O1781 Co1770 2.093 . S
O1781 C1773 1.224 . S
H1782 C1814 0.929 . S
H1783 C1816 0.930 . S
H1784 C1817 0.930 . S
H1785 C1815 0.929 . S
H1786 C1818 0.928 . S
O1787 Co1771 2.057 . S
O1787 C1775 1.232 . S
H1788 C1807 0.929 . S
H1789 C1808 0.929 . S
H1790 C1820 0.931 . S
H1791 C1812 0.929 . S
H1792 C1821 0.930 . S
H1793 C1813 0.931 . S
O1794 Co1770 2.097 . S
O1794 C1822 1.214 . S
H1795 C1823 0.929 . S
H1796 C1824 0.929 . S
H1797 C1825 0.930 . S
H1798 C1826 0.929 . S
H1799 C1828 0.930 . S
H1800 C1805 0.930 . S
H1801 C1809 0.930 . S
O1802 Co1771 2.037 . S
O1802 C1822 1.234 . S
C1803 O1777 1.269 . S
C1803 O1778 1.257 . S
C1804 H1779 0.930 . S
C1804 C1807 1.388 . S
C1804 C1809 1.418 . S
C1805 H1800 0.930 . S
C1805 C1808 1.404 . S
C1805 C1809 1.353 . S
N1806 Co1771 2.145 . S
N1806 C1807 1.397 . S
N1806 C1808 1.334 . S
C1807 H1788 0.929 . S
C1807 C1804 1.388 . S
C1807 N1806 1.397 . S
C1808 H1789 0.929 . S
C1808 C1805 1.404 . S
C1808 N1806 1.334 . S
C1809 H1801 0.930 . S
C1809 C1804 1.418 . S
C1809 C1805 1.353 . S
C1810 H1780 0.930 . S
C1810 N1811 1.330 . S
C1810 C1812 1.446 . S
N1811 Co1770 2.151 . S
N1811 C1810 1.330 . S
N1811 C1815 1.418 . S
C1812 H1791 0.929 . S
C1812 C1810 1.446 . S
C1812 C1813 1.332 . S
C1813 H1793 0.931 . S
C1813 C1812 1.332 . S
C1813 C1814 1.267 . S
C1814 H1782 0.929 . S
C1814 C1813 1.267 . S
C1814 C1815 1.251 . S
C1815 H1785 0.929 . S
C1815 N1811 1.418 . S
C1815 C1814 1.251 . S
C1816 H1783 0.930 . S
C1816 C1818 1.406 . S
C1816 C1821 1.261 . S
C1817 H1784 0.930 . S
C1817 N1819 1.325 . S
C1817 C1820 1.357 . S
C1818 H1786 0.928 . S
C1818 C1816 1.406 . S
C1818 N1819 1.261 . S
N1819 Co1770 2.214 . S
N1819 C1817 1.325 . S
N1819 C1818 1.261 . S
C1820 H1790 0.931 . S
C1820 C1817 1.357 . S
C1820 C1821 1.312 . S
C1821 H1792 0.930 . S
C1821 C1816 1.261 . S
C1821 C1820 1.312 . S
C1822 O1794 1.214 . S
C1822 O1802 1.234 . S
C1823 H1795 0.929 . S
C1823 C1826 1.391 . S
C1823 C1828 1.391 . S
C1824 H1796 0.929 . S
C1824 C1825 1.390 . S
C1824 N1827 1.391 . S
C1825 H1797 0.930 . S
C1825 C1824 1.390 . S
C1825 C1826 1.392 . S
C1826 H1798 0.929 . S
C1826 C1823 1.391 . S
C1826 C1825 1.392 . S
N1827 Co1771 2.257 . S
N1827 C1824 1.391 . S
N1827 C1828 1.388 . S
C1828 H1799 0.930 . S
C1828 C1823 1.391 . S
C1828 N1827 1.388 . S
Co1829 O1831 2.143 . S
Co1829 O1837 2.074 . S
Co1829 O1840 2.093 . S
Co1829 O1853 2.097 . S
Co1829 N1870 2.151 . S
Co1829 N1878 2.214 . S
Co1830 O1831 2.160 . S
Co1830 O1836 2.058 . S
Co1830 O1846 2.057 . S
Co1830 O1861 2.037 . S
Co1830 N1865 2.145 . S
Co1830 N1886 2.257 . S
O1831 Co1829 2.143 . S
O1831 Co1830 2.160 . S
C1832 O1833 1.278 . S
C1832 O1840 1.224 . S
O1833 C1832 1.278 . S
C1834 O1835 1.245 . S
C1834 O1846 1.232 . S
O1835 C1834 1.245 . S
O1836 Co1830 2.058 . S
O1836 C1862 1.269 . S
O1837 Co1829 2.074 . S
O1837 C1862 1.257 . S
H1838 C1863 0.930 . S
H1839 C1869 0.930 . S
O1840 Co1829 2.093 . S
O1840 C1832 1.224 . S
H1841 C1873 0.929 . S
H1842 C1875 0.930 . S
H1843 C1876 0.930 . S
H1844 C1874 0.929 . S
H1845 C1877 0.928 . S
O1846 Co1830 2.057 . S
O1846 C1834 1.232 . S
H1847 C1866 0.929 . S
H1848 C1867 0.929 . S
H1849 C1879 0.931 . S
H1850 C1871 0.929 . S
H1851 C1880 0.930 . S
H1852 C1872 0.931 . S
O1853 Co1829 2.097 . S
O1853 C1881 1.214 . S
H1854 C1882 0.929 . S
H1855 C1883 0.929 . S
H1856 C1884 0.930 . S
H1857 C1885 0.929 . S
H1858 C1887 0.930 . S
H1859 C1864 0.930 . S
H1860 C1868 0.930 . S
O1861 Co1830 2.037 . S
O1861 C1881 1.234 . S
C1862 O1836 1.269 . S
C1862 O1837 1.257 . S
C1863 H1838 0.930 . S
C1863 C1866 1.388 . S
C1863 C1868 1.418 . S
C1864 H1859 0.930 . S
C1864 C1867 1.404 . S
C1864 C1868 1.353 . S
N1865 Co1830 2.145 . S
N1865 C1866 1.397 . S
N1865 C1867 1.334 . S
C1866 H1847 0.929 . S
C1866 C1863 1.388 . S
C1866 N1865 1.397 . S
C1867 H1848 0.929 . S
C1867 C1864 1.404 . S
C1867 N1865 1.334 . S
C1868 H1860 0.930 . S
C1868 C1863 1.418 . S
C1868 C1864 1.353 . S
C1869 H1839 0.930 . S
C1869 N1870 1.330 . S
C1869 C1871 1.446 . S
N1870 Co1829 2.151 . S
N1870 C1869 1.330 . S
N1870 C1874 1.418 . S
C1871 H1850 0.929 . S
C1871 C1869 1.446 . S
C1871 C1872 1.332 . S
C1872 H1852 0.931 . S
C1872 C1871 1.332 . S
C1872 C1873 1.267 . S
C1873 H1841 0.929 . S
C1873 C1872 1.267 . S
C1873 C1874 1.251 . S
C1874 H1844 0.929 . S
C1874 N1870 1.418 . S
C1874 C1873 1.251 . S
C1875 H1842 0.930 . S
C1875 C1877 1.406 . S
C1875 C1880 1.261 . S
C1876 H1843 0.930 . S
C1876 N1878 1.325 . S
C1876 C1879 1.357 . S
C1877 H1845 0.928 . S
C1877 C1875 1.406 . S
C1877 N1878 1.261 . S
N1878 Co1829 2.214 . S
N1878 C1876 1.325 . S
N1878 C1877 1.261 . S
C1879 H1849 0.931 . S
C1879 C1876 1.357 . S
C1879 C1880 1.312 . S
C1880 H1851 0.930 . S
C1880 C1875 1.261 . S
C1880 C1879 1.312 . S
C1881 O1853 1.214 . S
C1881 O1861 1.234 . S
C1882 H1854 0.929 . S
C1882 C1885 1.391 . S
C1882 C1887 1.391 . S
C1883 H1855 0.929 . S
C1883 C1884 1.390 . S
C1883 N1886 1.391 . S
C1884 H1856 0.930 . S
C1884 C1883 1.390 . S
C1884 C1885 1.392 . S
C1885 H1857 0.929 . S
C1885 C1882 1.391 . S
C1885 C1884 1.392 . S
N1886 Co1830 2.257 . S
N1886 C1883 1.391 . S
N1886 C1887 1.388 . S
C1887 H1858 0.930 . S
C1887 C1882 1.391 . S
C1887 N1886 1.388 . S
Co1888 O1890 2.143 . S
Co1888 O1896 2.074 . S
Co1888 O1899 2.093 . S
Co1888 O1912 2.097 . S
Co1888 N1929 2.151 . S
Co1888 N1937 2.214 . S
Co1889 O1890 2.160 . S
Co1889 O1895 2.058 . S
Co1889 O1905 2.057 . S
Co1889 O1920 2.037 . S
Co1889 N1924 2.145 . S
Co1889 N1945 2.257 . S
O1890 Co1888 2.143 . S
O1890 Co1889 2.160 . S
C1891 O1892 1.278 . S
C1891 O1899 1.224 . S
O1892 C1891 1.278 . S
C1893 O1894 1.245 . S
C1893 O1905 1.232 . S
O1894 C1893 1.245 . S
O1895 Co1889 2.058 . S
O1895 C1921 1.269 . S
O1896 Co1888 2.074 . S
O1896 C1921 1.257 . S
H1897 C1922 0.930 . S
H1898 C1928 0.930 . S
O1899 Co1888 2.093 . S
O1899 C1891 1.224 . S
H1900 C1932 0.929 . S
H1901 C1934 0.930 . S
H1902 C1935 0.930 . S
H1903 C1933 0.929 . S
H1904 C1936 0.928 . S
O1905 Co1889 2.057 . S
O1905 C1893 1.232 . S
H1906 C1925 0.929 . S
H1907 C1926 0.929 . S
H1908 C1938 0.931 . S
H1909 C1930 0.929 . S
H1910 C1939 0.930 . S
H1911 C1931 0.931 . S
O1912 Co1888 2.097 . S
O1912 C1940 1.214 . S
H1913 C1941 0.929 . S
H1914 C1942 0.929 . S
H1915 C1943 0.930 . S
H1916 C1944 0.929 . S
H1917 C1946 0.930 . S
H1918 C1923 0.930 . S
H1919 C1927 0.930 . S
O1920 Co1889 2.037 . S
O1920 C1940 1.234 . S
C1921 O1895 1.269 . S
C1921 O1896 1.257 . S
C1922 H1897 0.930 . S
C1922 C1925 1.388 . S
C1922 C1927 1.418 . S
C1923 H1918 0.930 . S
C1923 C1926 1.404 . S
C1923 C1927 1.353 . S
N1924 Co1889 2.145 . S
N1924 C1925 1.397 . S
N1924 C1926 1.334 . S
C1925 H1906 0.929 . S
C1925 C1922 1.388 . S
C1925 N1924 1.397 . S
C1926 H1907 0.929 . S
C1926 C1923 1.404 . S
C1926 N1924 1.334 . S
C1927 H1919 0.930 . S
C1927 C1922 1.418 . S
C1927 C1923 1.353 . S
C1928 H1898 0.930 . S
C1928 N1929 1.330 . S
C1928 C1930 1.446 . S
N1929 Co1888 2.151 . S
N1929 C1928 1.330 . S
N1929 C1933 1.418 . S
C1930 H1909 0.929 . S
C1930 C1928 1.446 . S
C1930 C1931 1.332 . S
C1931 H1911 0.931 . S
C1931 C1930 1.332 . S
C1931 C1932 1.267 . S
C1932 H1900 0.929 . S
C1932 C1931 1.267 . S
C1932 C1933 1.251 . S
C1933 H1903 0.929 . S
C1933 N1929 1.418 . S
C1933 C1932 1.251 . S
C1934 H1901 0.930 . S
C1934 C1936 1.406 . S
C1934 C1939 1.261 . S
C1935 H1902 0.930 . S
C1935 N1937 1.325 . S
C1935 C1938 1.357 . S
C1936 H1904 0.928 . S
C1936 C1934 1.406 . S
C1936 N1937 1.261 . S
N1937 Co1888 2.214 . S
N1937 C1935 1.325 . S
N1937 C1936 1.261 . S
C1938 H1908 0.931 . S
C1938 C1935 1.357 . S
C1938 C1939 1.312 . S
C1939 H1910 0.930 . S
C1939 C1934 1.261 . S
C1939 C1938 1.312 . S
C1940 O1912 1.214 . S
C1940 O1920 1.234 . S
C1941 H1913 0.929 . S
C1941 C1944 1.391 . S
C1941 C1946 1.391 . S
C1942 H1914 0.929 . S
C1942 C1943 1.390 . S
C1942 N1945 1.391 . S
C1943 H1915 0.930 . S
C1943 C1942 1.390 . S
C1943 C1944 1.392 . S
C1944 H1916 0.929 . S
C1944 C1941 1.391 . S
C1944 C1943 1.392 . S
N1945 Co1889 2.257 . S
N1945 C1942 1.391 . S
N1945 C1946 1.388 . S
C1946 H1917 0.930 . S
C1946 C1941 1.391 . S
C1946 N1945 1.388 . S
Co1947 O1949 2.143 . S
Co1947 O1955 2.074 . S
Co1947 O1958 2.093 . S
Co1947 O1971 2.097 . S
Co1947 N1988 2.151 . S
Co1947 N1996 2.214 . S
Co1948 O1949 2.160 . S
Co1948 O1954 2.058 . S
Co1948 O1964 2.057 . S
Co1948 O1979 2.037 . S
Co1948 N1983 2.145 . S
Co1948 N2004 2.257 . S
O1949 Co1947 2.143 . S
O1949 Co1948 2.160 . S
C1950 O1951 1.278 . S
C1950 O1958 1.224 . S
O1951 C1950 1.278 . S
C1952 O1953 1.245 . S
C1952 O1964 1.232 . S
O1953 C1952 1.245 . S
O1954 Co1948 2.058 . S
O1954 C1980 1.269 . S
O1955 Co1947 2.074 . S
O1955 C1980 1.257 . S
H1956 C1981 0.930 . S
H1957 C1987 0.930 . S
O1958 Co1947 2.093 . S
O1958 C1950 1.224 . S
H1959 C1991 0.929 . S
H1960 C1993 0.930 . S
H1961 C1994 0.930 . S
H1962 C1992 0.929 . S
H1963 C1995 0.928 . S
O1964 Co1948 2.057 . S
O1964 C1952 1.232 . S
H1965 C1984 0.929 . S
H1966 C1985 0.929 . S
H1967 C1997 0.931 . S
H1968 C1989 0.929 . S
H1969 C1998 0.930 . S
H1970 C1990 0.931 . S
O1971 Co1947 2.097 . S
O1971 C1999 1.214 . S
H1972 C2000 0.929 . S
H1973 C2001 0.929 . S
H1974 C2002 0.930 . S
H1975 C2003 0.929 . S
H1976 C2005 0.930 . S
H1977 C1982 0.930 . S
H1978 C1986 0.930 . S
O1979 Co1948 2.037 . S
O1979 C1999 1.234 . S
C1980 O1954 1.269 . S
C1980 O1955 1.257 . S
C1981 H1956 0.930 . S
C1981 C1984 1.388 . S
C1981 C1986 1.418 . S
C1982 H1977 0.930 . S
C1982 C1985 1.404 . S
C1982 C1986 1.353 . S
N1983 Co1948 2.145 . S
N1983 C1984 1.397 . S
N1983 C1985 1.334 . S
C1984 H1965 0.929 . S
C1984 C1981 1.388 . S
C1984 N1983 1.397 . S
C1985 H1966 0.929 . S
C1985 C1982 1.404 . S
C1985 N1983 1.334 . S
C1986 H1978 0.930 . S
C1986 C1981 1.418 . S
C1986 C1982 1.353 . S
C1987 H1957 0.930 . S
C1987 N1988 1.330 . S
C1987 C1989 1.446 . S
N1988 Co1947 2.151 . S
N1988 C1987 1.330 . S
N1988 C1992 1.418 . S
C1989 H1968 0.929 . S
C1989 C1987 1.446 . S
C1989 C1990 1.332 . S
C1990 H1970 0.931 . S
C1990 C1989 1.332 . S
C1990 C1991 1.267 . S
C1991 H1959 0.929 . S
C1991 C1990 1.267 . S
C1991 C1992 1.251 . S
C1992 H1962 0.929 . S
C1992 N1988 1.418 . S
C1992 C1991 1.251 . S
C1993 H1960 0.930 . S
C1993 C1995 1.406 . S
C1993 C1998 1.261 . S
C1994 H1961 0.930 . S
C1994 N1996 1.325 . S
C1994 C1997 1.357 . S
C1995 H1963 0.928 . S
C1995 C1993 1.406 . S
C1995 N1996 1.261 . S
N1996 Co1947 2.214 . S
N1996 C1994 1.325 . S
N1996 C1995 1.261 . S
C1997 H1967 0.931 . S
C1997 C1994 1.357 . S
C1997 C1998 1.312 . S
C1998 H1969 0.930 . S
C1998 C1993 1.261 . S
C1998 C1997 1.312 . S
C1999 O1971 1.214 . S
C1999 O1979 1.234 . S
C2000 H1972 0.929 . S
C2000 C2003 1.391 . S
C2000 C2005 1.391 . S
C2001 H1973 0.929 . S
C2001 C2002 1.390 . S
C2001 N2004 1.391 . S
C2002 H1974 0.930 . S
C2002 C2001 1.390 . S
C2002 C2003 1.392 . S
C2003 H1975 0.929 . S
C2003 C2000 1.391 . S
C2003 C2002 1.392 . S
N2004 Co1948 2.257 . S
N2004 C2001 1.391 . S
N2004 C2005 1.388 . S
C2005 H1976 0.930 . S
C2005 C2000 1.391 . S
C2005 N2004 1.388 . S
Co2006 O2008 2.143 . S
Co2006 O2014 2.074 . S
Co2006 O2017 2.093 . S
Co2006 O2030 2.097 . S
Co2006 N2047 2.151 . S
Co2006 N2055 2.214 . S
Co2007 O2008 2.160 . S
Co2007 O2013 2.058 . S
Co2007 O2023 2.057 . S
Co2007 O2038 2.037 . S
Co2007 N2042 2.145 . S
Co2007 N2063 2.257 . S
O2008 Co2006 2.143 . S
O2008 Co2007 2.160 . S
C2009 O2010 1.278 . S
C2009 O2017 1.224 . S
O2010 C2009 1.278 . S
C2011 O2012 1.245 . S
C2011 O2023 1.232 . S
O2012 C2011 1.245 . S
O2013 Co2007 2.058 . S
O2013 C2039 1.269 . S
O2014 Co2006 2.074 . S
O2014 C2039 1.257 . S
H2015 C2040 0.930 . S
H2016 C2046 0.930 . S
O2017 Co2006 2.093 . S
O2017 C2009 1.224 . S
H2018 C2050 0.929 . S
H2019 C2052 0.930 . S
H2020 C2053 0.930 . S
H2021 C2051 0.929 . S
H2022 C2054 0.928 . S
O2023 Co2007 2.057 . S
O2023 C2011 1.232 . S
H2024 C2043 0.929 . S
H2025 C2044 0.929 . S
H2026 C2056 0.931 . S
H2027 C2048 0.929 . S
H2028 C2057 0.930 . S
H2029 C2049 0.931 . S
O2030 Co2006 2.097 . S
O2030 C2058 1.214 . S
H2031 C2059 0.929 . S
H2032 C2060 0.929 . S
H2033 C2061 0.930 . S
H2034 C2062 0.929 . S
H2035 C2064 0.930 . S
H2036 C2041 0.930 . S
H2037 C2045 0.930 . S
O2038 Co2007 2.037 . S
O2038 C2058 1.234 . S
C2039 O2013 1.269 . S
C2039 O2014 1.257 . S
C2040 H2015 0.930 . S
C2040 C2043 1.388 . S
C2040 C2045 1.418 . S
C2041 H2036 0.930 . S
C2041 C2044 1.404 . S
C2041 C2045 1.353 . S
N2042 Co2007 2.145 . S
N2042 C2043 1.397 . S
N2042 C2044 1.334 . S
C2043 H2024 0.929 . S
C2043 C2040 1.388 . S
C2043 N2042 1.397 . S
C2044 H2025 0.929 . S
C2044 C2041 1.404 . S
C2044 N2042 1.334 . S
C2045 H2037 0.930 . S
C2045 C2040 1.418 . S
C2045 C2041 1.353 . S
C2046 H2016 0.930 . S
C2046 N2047 1.330 . S
C2046 C2048 1.446 . S
N2047 Co2006 2.151 . S
N2047 C2046 1.330 . S
N2047 C2051 1.418 . S
C2048 H2027 0.929 . S
C2048 C2046 1.446 . S
C2048 C2049 1.332 . S
C2049 H2029 0.931 . S
C2049 C2048 1.332 . S
C2049 C2050 1.267 . S
C2050 H2018 0.929 . S
C2050 C2049 1.267 . S
C2050 C2051 1.251 . S
C2051 H2021 0.929 . S
C2051 N2047 1.418 . S
C2051 C2050 1.251 . S
C2052 H2019 0.930 . S
C2052 C2054 1.406 . S
C2052 C2057 1.261 . S
C2053 H2020 0.930 . S
C2053 N2055 1.325 . S
C2053 C2056 1.357 . S
C2054 H2022 0.928 . S
C2054 C2052 1.406 . S
C2054 N2055 1.261 . S
N2055 Co2006 2.214 . S
N2055 C2053 1.325 . S
N2055 C2054 1.261 . S
C2056 H2026 0.931 . S
C2056 C2053 1.357 . S
C2056 C2057 1.312 . S
C2057 H2028 0.930 . S
C2057 C2052 1.261 . S
C2057 C2056 1.312 . S
C2058 O2030 1.214 . S
C2058 O2038 1.234 . S
C2059 H2031 0.929 . S
C2059 C2062 1.391 . S
C2059 C2064 1.391 . S
C2060 H2032 0.929 . S
C2060 C2061 1.390 . S
C2060 N2063 1.391 . S
C2061 H2033 0.930 . S
C2061 C2060 1.390 . S
C2061 C2062 1.392 . S
C2062 H2034 0.929 . S
C2062 C2059 1.391 . S
C2062 C2061 1.392 . S
N2063 Co2007 2.257 . S
N2063 C2060 1.391 . S
N2063 C2064 1.388 . S
C2064 H2035 0.930 . S
C2064 C2059 1.391 . S
C2064 N2063 1.388 . S
Co2065 O2067 2.143 . S
Co2065 O2073 2.074 . S
Co2065 O2076 2.093 . S
Co2065 O2089 2.097 . S
Co2065 N2106 2.151 . S
Co2065 N2114 2.214 . S
Co2066 O2067 2.160 . S
Co2066 O2072 2.058 . S
Co2066 O2082 2.057 . S
Co2066 O2097 2.037 . S
Co2066 N2101 2.145 . S
Co2066 N2122 2.257 . S
O2067 Co2065 2.143 . S
O2067 Co2066 2.160 . S
C2068 O2069 1.278 . S
C2068 O2076 1.224 . S
O2069 C2068 1.278 . S
C2070 O2071 1.245 . S
C2070 O2082 1.232 . S
O2071 C2070 1.245 . S
O2072 Co2066 2.058 . S
O2072 C2098 1.269 . S
O2073 Co2065 2.074 . S
O2073 C2098 1.257 . S
H2074 C2099 0.930 . S
H2075 C2105 0.930 . S
O2076 Co2065 2.093 . S
O2076 C2068 1.224 . S
H2077 C2109 0.929 . S
H2078 C2111 0.930 . S
H2079 C2112 0.930 . S
H2080 C2110 0.929 . S
H2081 C2113 0.928 . S
O2082 Co2066 2.057 . S
O2082 C2070 1.232 . S
H2083 C2102 0.929 . S
H2084 C2103 0.929 . S
H2085 C2115 0.931 . S
H2086 C2107 0.929 . S
H2087 C2116 0.930 . S
H2088 C2108 0.931 . S
O2089 Co2065 2.097 . S
O2089 C2117 1.214 . S
H2090 C2118 0.929 . S
H2091 C2119 0.929 . S
H2092 C2120 0.930 . S
H2093 C2121 0.929 . S
H2094 C2123 0.930 . S
H2095 C2100 0.930 . S
H2096 C2104 0.930 . S
O2097 Co2066 2.037 . S
O2097 C2117 1.234 . S
C2098 O2072 1.269 . S
C2098 O2073 1.257 . S
C2099 H2074 0.930 . S
C2099 C2102 1.388 . S
C2099 C2104 1.418 . S
C2100 H2095 0.930 . S
C2100 C2103 1.404 . S
C2100 C2104 1.353 . S
N2101 Co2066 2.145 . S
N2101 C2102 1.397 . S
N2101 C2103 1.334 . S
C2102 H2083 0.929 . S
C2102 C2099 1.388 . S
C2102 N2101 1.397 . S
C2103 H2084 0.929 . S
C2103 C2100 1.404 . S
C2103 N2101 1.334 . S
C2104 H2096 0.930 . S
C2104 C2099 1.418 . S
C2104 C2100 1.353 . S
C2105 H2075 0.930 . S
C2105 N2106 1.330 . S
C2105 C2107 1.446 . S
N2106 Co2065 2.151 . S
N2106 C2105 1.330 . S
N2106 C2110 1.418 . S
C2107 H2086 0.929 . S
C2107 C2105 1.446 . S
C2107 C2108 1.332 . S
C2108 H2088 0.931 . S
C2108 C2107 1.332 . S
C2108 C2109 1.267 . S
C2109 H2077 0.929 . S
C2109 C2108 1.267 . S
C2109 C2110 1.251 . S
C2110 H2080 0.929 . S
C2110 N2106 1.418 . S
C2110 C2109 1.251 . S
C2111 H2078 0.930 . S
C2111 C2113 1.406 . S
C2111 C2116 1.261 . S
C2112 H2079 0.930 . S
C2112 N2114 1.325 . S
C2112 C2115 1.357 . S
C2113 H2081 0.928 . S
C2113 C2111 1.406 . S
C2113 N2114 1.261 . S
N2114 Co2065 2.214 . S
N2114 C2112 1.325 . S
N2114 C2113 1.261 . S
C2115 H2085 0.931 . S
C2115 C2112 1.357 . S
C2115 C2116 1.312 . S
C2116 H2087 0.930 . S
C2116 C2111 1.261 . S
C2116 C2115 1.312 . S
C2117 O2089 1.214 . S
C2117 O2097 1.234 . S
C2118 H2090 0.929 . S
C2118 C2121 1.391 . S
C2118 C2123 1.391 . S
C2119 H2091 0.929 . S
C2119 C2120 1.390 . S
C2119 N2122 1.391 . S
C2120 H2092 0.930 . S
C2120 C2119 1.390 . S
C2120 C2121 1.392 . S
C2121 H2093 0.929 . S
C2121 C2118 1.391 . S
C2121 C2120 1.392 . S
N2122 Co2066 2.257 . S
N2122 C2119 1.391 . S
N2122 C2123 1.388 . S
C2123 H2094 0.930 . S
C2123 C2118 1.391 . S
C2123 N2122 1.388 . S
Co2124 O2126 2.143 . S
Co2124 O2132 2.074 . S
Co2124 O2135 2.093 . S
Co2124 O2148 2.097 . S
Co2124 N2165 2.151 . S
Co2124 N2173 2.214 . S
Co2125 O2126 2.160 . S
Co2125 O2131 2.058 . S
Co2125 O2141 2.057 . S
Co2125 O2156 2.037 . S
Co2125 N2160 2.145 . S
Co2125 N2181 2.257 . S
O2126 Co2124 2.143 . S
O2126 Co2125 2.160 . S
C2127 O2128 1.278 . S
C2127 O2135 1.224 . S
O2128 C2127 1.278 . S
C2129 O2130 1.245 . S
C2129 O2141 1.232 . S
O2130 C2129 1.245 . S
O2131 Co2125 2.058 . S
O2131 C2157 1.269 . S
O2132 Co2124 2.074 . S
O2132 C2157 1.257 . S
H2133 C2158 0.930 . S
H2134 C2164 0.930 . S
O2135 Co2124 2.093 . S
O2135 C2127 1.224 . S
H2136 C2168 0.929 . S
H2137 C2170 0.930 . S
H2138 C2171 0.930 . S
H2139 C2169 0.929 . S
H2140 C2172 0.928 . S
O2141 Co2125 2.057 . S
O2141 C2129 1.232 . S
H2142 C2161 0.929 . S
H2143 C2162 0.929 . S
H2144 C2174 0.931 . S
H2145 C2166 0.929 . S
H2146 C2175 0.930 . S
H2147 C2167 0.931 . S
O2148 Co2124 2.097 . S
O2148 C2176 1.214 . S
H2149 C2177 0.929 . S
H2150 C2178 0.929 . S
H2151 C2179 0.930 . S
H2152 C2180 0.929 . S
H2153 C2182 0.930 . S
H2154 C2159 0.930 . S
H2155 C2163 0.930 . S
O2156 Co2125 2.037 . S
O2156 C2176 1.234 . S
C2157 O2131 1.269 . S
C2157 O2132 1.257 . S
C2158 H2133 0.930 . S
C2158 C2161 1.388 . S
C2158 C2163 1.418 . S
C2159 H2154 0.930 . S
C2159 C2162 1.404 . S
C2159 C2163 1.353 . S
N2160 Co2125 2.145 . S
N2160 C2161 1.397 . S
N2160 C2162 1.334 . S
C2161 H2142 0.929 . S
C2161 C2158 1.388 . S
C2161 N2160 1.397 . S
C2162 H2143 0.929 . S
C2162 C2159 1.404 . S
C2162 N2160 1.334 . S
C2163 H2155 0.930 . S
C2163 C2158 1.418 . S
C2163 C2159 1.353 . S
C2164 H2134 0.930 . S
C2164 N2165 1.330 . S
C2164 C2166 1.446 . S
N2165 Co2124 2.151 . S
N2165 C2164 1.330 . S
N2165 C2169 1.418 . S
C2166 H2145 0.929 . S
C2166 C2164 1.446 . S
C2166 C2167 1.332 . S
C2167 H2147 0.931 . S
C2167 C2166 1.332 . S
C2167 C2168 1.267 . S
C2168 H2136 0.929 . S
C2168 C2167 1.267 . S
C2168 C2169 1.251 . S
C2169 H2139 0.929 . S
C2169 N2165 1.418 . S
C2169 C2168 1.251 . S
C2170 H2137 0.930 . S
C2170 C2172 1.406 . S
C2170 C2175 1.261 . S
C2171 H2138 0.930 . S
C2171 N2173 1.325 . S
C2171 C2174 1.357 . S
C2172 H2140 0.928 . S
C2172 C2170 1.406 . S
C2172 N2173 1.261 . S
N2173 Co2124 2.214 . S
N2173 C2171 1.325 . S
N2173 C2172 1.261 . S
C2174 H2144 0.931 . S
C2174 C2171 1.357 . S
C2174 C2175 1.312 . S
C2175 H2146 0.930 . S
C2175 C2170 1.261 . S
C2175 C2174 1.312 . S
C2176 O2148 1.214 . S
C2176 O2156 1.234 . S
C2177 H2149 0.929 . S
C2177 C2180 1.391 . S
C2177 C2182 1.391 . S
C2178 H2150 0.929 . S
C2178 C2179 1.390 . S
C2178 N2181 1.391 . S
C2179 H2151 0.930 . S
C2179 C2178 1.390 . S
C2179 C2180 1.392 . S
C2180 H2152 0.929 . S
C2180 C2177 1.391 . S
C2180 C2179 1.392 . S
N2181 Co2125 2.257 . S
N2181 C2178 1.391 . S
N2181 C2182 1.388 . S
C2182 H2153 0.930 . S
C2182 C2177 1.391 . S
C2182 N2181 1.388 . S
Co2183 O2185 2.143 . S
Co2183 O2191 2.074 . S
Co2183 O2194 2.093 . S
Co2183 O2207 2.097 . S
Co2183 N2224 2.151 . S
Co2183 N2232 2.214 . S
Co2184 O2185 2.160 . S
Co2184 O2190 2.058 . S
Co2184 O2200 2.057 . S
Co2184 O2215 2.037 . S
Co2184 N2219 2.145 . S
Co2184 N2240 2.257 . S
O2185 Co2183 2.143 . S
O2185 Co2184 2.160 . S
C2186 O2187 1.278 . S
C2186 O2194 1.224 . S
O2187 C2186 1.278 . S
C2188 O2189 1.245 . S
C2188 O2200 1.232 . S
O2189 C2188 1.245 . S
O2190 Co2184 2.058 . S
O2190 C2216 1.269 . S
O2191 Co2183 2.074 . S
O2191 C2216 1.257 . S
H2192 C2217 0.930 . S
H2193 C2223 0.930 . S
O2194 Co2183 2.093 . S
O2194 C2186 1.224 . S
H2195 C2227 0.929 . S
H2196 C2229 0.930 . S
H2197 C2230 0.930 . S
H2198 C2228 0.929 . S
H2199 C2231 0.928 . S
O2200 Co2184 2.057 . S
O2200 C2188 1.232 . S
H2201 C2220 0.929 . S
H2202 C2221 0.929 . S
H2203 C2233 0.931 . S
H2204 C2225 0.929 . S
H2205 C2234 0.930 . S
H2206 C2226 0.931 . S
O2207 Co2183 2.097 . S
O2207 C2235 1.214 . S
H2208 C2236 0.929 . S
H2209 C2237 0.929 . S
H2210 C2238 0.930 . S
H2211 C2239 0.929 . S
H2212 C2241 0.930 . S
H2213 C2218 0.930 . S
H2214 C2222 0.930 . S
O2215 Co2184 2.037 . S
O2215 C2235 1.234 . S
C2216 O2190 1.269 . S
C2216 O2191 1.257 . S
C2217 H2192 0.930 . S
C2217 C2220 1.388 . S
C2217 C2222 1.418 . S
C2218 H2213 0.930 . S
C2218 C2221 1.404 . S
C2218 C2222 1.353 . S
N2219 Co2184 2.145 . S
N2219 C2220 1.397 . S
N2219 C2221 1.334 . S
C2220 H2201 0.929 . S
C2220 C2217 1.388 . S
C2220 N2219 1.397 . S
C2221 H2202 0.929 . S
C2221 C2218 1.404 . S
C2221 N2219 1.334 . S
C2222 H2214 0.930 . S
C2222 C2217 1.418 . S
C2222 C2218 1.353 . S
C2223 H2193 0.930 . S
C2223 N2224 1.330 . S
C2223 C2225 1.446 . S
N2224 Co2183 2.151 . S
N2224 C2223 1.330 . S
N2224 C2228 1.418 . S
C2225 H2204 0.929 . S
C2225 C2223 1.446 . S
C2225 C2226 1.332 . S
C2226 H2206 0.931 . S
C2226 C2225 1.332 . S
C2226 C2227 1.267 . S
C2227 H2195 0.929 . S
C2227 C2226 1.267 . S
C2227 C2228 1.251 . S
C2228 H2198 0.929 . S
C2228 N2224 1.418 . S
C2228 C2227 1.251 . S
C2229 H2196 0.930 . S
C2229 C2231 1.406 . S
C2229 C2234 1.261 . S
C2230 H2197 0.930 . S
C2230 N2232 1.325 . S
C2230 C2233 1.357 . S
C2231 H2199 0.928 . S
C2231 C2229 1.406 . S
C2231 N2232 1.261 . S
N2232 Co2183 2.214 . S
N2232 C2230 1.325 . S
N2232 C2231 1.261 . S
C2233 H2203 0.931 . S
C2233 C2230 1.357 . S
C2233 C2234 1.312 . S
C2234 H2205 0.930 . S
C2234 C2229 1.261 . S
C2234 C2233 1.312 . S
C2235 O2207 1.214 . S
C2235 O2215 1.234 . S
C2236 H2208 0.929 . S
C2236 C2239 1.391 . S
C2236 C2241 1.391 . S
C2237 H2209 0.929 . S
C2237 C2238 1.390 . S
C2237 N2240 1.391 . S
C2238 H2210 0.930 . S
C2238 C2237 1.390 . S
C2238 C2239 1.392 . S
C2239 H2211 0.929 . S
C2239 C2236 1.391 . S
C2239 C2238 1.392 . S
N2240 Co2184 2.257 . S
N2240 C2237 1.391 . S
N2240 C2241 1.388 . S
C2241 H2212 0.930 . S
C2241 C2236 1.391 . S
C2241 N2240 1.388 . S
Co2242 O2244 2.143 . S
Co2242 O2250 2.074 . S
Co2242 O2253 2.093 . S
Co2242 O2266 2.097 . S
Co2242 N2283 2.151 . S
Co2242 N2291 2.214 . S
Co2243 O2244 2.160 . S
Co2243 O2249 2.058 . S
Co2243 O2259 2.057 . S
Co2243 O2274 2.037 . S
Co2243 N2278 2.145 . S
Co2243 N2299 2.257 . S
O2244 Co2242 2.143 . S
O2244 Co2243 2.160 . S
C2245 O2246 1.278 . S
C2245 O2253 1.224 . S
O2246 C2245 1.278 . S
C2247 O2248 1.245 . S
C2247 O2259 1.232 . S
O2248 C2247 1.245 . S
O2249 Co2243 2.058 . S
O2249 C2275 1.269 . S
O2250 Co2242 2.074 . S
O2250 C2275 1.257 . S
H2251 C2276 0.930 . S
H2252 C2282 0.930 . S
O2253 Co2242 2.093 . S
O2253 C2245 1.224 . S
H2254 C2286 0.929 . S
H2255 C2288 0.930 . S
H2256 C2289 0.930 . S
H2257 C2287 0.929 . S
H2258 C2290 0.928 . S
O2259 Co2243 2.057 . S
O2259 C2247 1.232 . S
H2260 C2279 0.929 . S
H2261 C2280 0.929 . S
H2262 C2292 0.931 . S
H2263 C2284 0.929 . S
H2264 C2293 0.930 . S
H2265 C2285 0.931 . S
O2266 Co2242 2.097 . S
O2266 C2294 1.214 . S
H2267 C2295 0.929 . S
H2268 C2296 0.929 . S
H2269 C2297 0.930 . S
H2270 C2298 0.929 . S
H2271 C2300 0.930 . S
H2272 C2277 0.930 . S
H2273 C2281 0.930 . S
O2274 Co2243 2.037 . S
O2274 C2294 1.234 . S
C2275 O2249 1.269 . S
C2275 O2250 1.257 . S
C2276 H2251 0.930 . S
C2276 C2279 1.388 . S
C2276 C2281 1.418 . S
C2277 H2272 0.930 . S
C2277 C2280 1.404 . S
C2277 C2281 1.353 . S
N2278 Co2243 2.145 . S
N2278 C2279 1.397 . S
N2278 C2280 1.334 . S
C2279 H2260 0.929 . S
C2279 C2276 1.388 . S
C2279 N2278 1.397 . S
C2280 H2261 0.929 . S
C2280 C2277 1.404 . S
C2280 N2278 1.334 . S
C2281 H2273 0.930 . S
C2281 C2276 1.418 . S
C2281 C2277 1.353 . S
C2282 H2252 0.930 . S
C2282 N2283 1.330 . S
C2282 C2284 1.446 . S
N2283 Co2242 2.151 . S
N2283 C2282 1.330 . S
N2283 C2287 1.418 . S
C2284 H2263 0.929 . S
C2284 C2282 1.446 . S
C2284 C2285 1.332 . S
C2285 H2265 0.931 . S
C2285 C2284 1.332 . S
C2285 C2286 1.267 . S
C2286 H2254 0.929 . S
C2286 C2285 1.267 . S
C2286 C2287 1.251 . S
C2287 H2257 0.929 . S
C2287 N2283 1.418 . S
C2287 C2286 1.251 . S
C2288 H2255 0.930 . S
C2288 C2290 1.406 . S
C2288 C2293 1.261 . S
C2289 H2256 0.930 . S
C2289 N2291 1.325 . S
C2289 C2292 1.357 . S
C2290 H2258 0.928 . S
C2290 C2288 1.406 . S
C2290 N2291 1.261 . S
N2291 Co2242 2.214 . S
N2291 C2289 1.325 . S
N2291 C2290 1.261 . S
C2292 H2262 0.931 . S
C2292 C2289 1.357 . S
C2292 C2293 1.312 . S
C2293 H2264 0.930 . S
C2293 C2288 1.261 . S
C2293 C2292 1.312 . S
C2294 O2266 1.214 . S
C2294 O2274 1.234 . S
C2295 H2267 0.929 . S
C2295 C2298 1.391 . S
C2295 C2300 1.391 . S
C2296 H2268 0.929 . S
C2296 C2297 1.390 . S
C2296 N2299 1.391 . S
C2297 H2269 0.930 . S
C2297 C2296 1.390 . S
C2297 C2298 1.392 . S
C2298 H2270 0.929 . S
C2298 C2295 1.391 . S
C2298 C2297 1.392 . S
N2299 Co2243 2.257 . S
N2299 C2296 1.391 . S
N2299 C2300 1.388 . S
C2300 H2271 0.930 . S
C2300 C2295 1.391 . S
C2300 N2299 1.388 . S
Co2301 O2303 2.143 . S
Co2301 O2309 2.074 . S
Co2301 O2312 2.093 . S
Co2301 O2325 2.097 . S
Co2301 N2342 2.151 . S
Co2301 N2350 2.214 . S
Co2302 O2303 2.160 . S
Co2302 O2308 2.058 . S
Co2302 O2318 2.057 . S
Co2302 O2333 2.037 . S
Co2302 N2337 2.145 . S
Co2302 N2358 2.257 . S
O2303 Co2301 2.143 . S
O2303 Co2302 2.160 . S
C2304 O2305 1.278 . S
C2304 O2312 1.224 . S
O2305 C2304 1.278 . S
C2306 O2307 1.245 . S
C2306 O2318 1.232 . S
O2307 C2306 1.245 . S
O2308 Co2302 2.058 . S
O2308 C2334 1.269 . S
O2309 Co2301 2.074 . S
O2309 C2334 1.257 . S
H2310 C2335 0.930 . S
H2311 C2341 0.930 . S
O2312 Co2301 2.093 . S
O2312 C2304 1.224 . S
H2313 C2345 0.929 . S
H2314 C2347 0.930 . S
H2315 C2348 0.930 . S
H2316 C2346 0.929 . S
H2317 C2349 0.928 . S
O2318 Co2302 2.057 . S
O2318 C2306 1.232 . S
H2319 C2338 0.929 . S
H2320 C2339 0.929 . S
H2321 C2351 0.931 . S
H2322 C2343 0.929 . S
H2323 C2352 0.930 . S
H2324 C2344 0.931 . S
O2325 Co2301 2.097 . S
O2325 C2353 1.214 . S
H2326 C2354 0.929 . S
H2327 C2355 0.929 . S
H2328 C2356 0.930 . S
H2329 C2357 0.929 . S
H2330 C2359 0.930 . S
H2331 C2336 0.930 . S
H2332 C2340 0.930 . S
O2333 Co2302 2.037 . S
O2333 C2353 1.234 . S
C2334 O2308 1.269 . S
C2334 O2309 1.257 . S
C2335 H2310 0.930 . S
C2335 C2338 1.388 . S
C2335 C2340 1.418 . S
C2336 H2331 0.930 . S
C2336 C2339 1.404 . S
C2336 C2340 1.353 . S
N2337 Co2302 2.145 . S
N2337 C2338 1.397 . S
N2337 C2339 1.334 . S
C2338 H2319 0.929 . S
C2338 C2335 1.388 . S
C2338 N2337 1.397 . S
C2339 H2320 0.929 . S
C2339 C2336 1.404 . S
C2339 N2337 1.334 . S
C2340 H2332 0.930 . S
C2340 C2335 1.418 . S
C2340 C2336 1.353 . S
C2341 H2311 0.930 . S
C2341 N2342 1.330 . S
C2341 C2343 1.446 . S
N2342 Co2301 2.151 . S
N2342 C2341 1.330 . S
N2342 C2346 1.418 . S
C2343 H2322 0.929 . S
C2343 C2341 1.446 . S
C2343 C2344 1.332 . S
C2344 H2324 0.931 . S
C2344 C2343 1.332 . S
C2344 C2345 1.267 . S
C2345 H2313 0.929 . S
C2345 C2344 1.267 . S
C2345 C2346 1.251 . S
C2346 H2316 0.929 . S
C2346 N2342 1.418 . S
C2346 C2345 1.251 . S
C2347 H2314 0.930 . S
C2347 C2349 1.406 . S
C2347 C2352 1.261 . S
C2348 H2315 0.930 . S
C2348 N2350 1.325 . S
C2348 C2351 1.357 . S
C2349 H2317 0.928 . S
C2349 C2347 1.406 . S
C2349 N2350 1.261 . S
N2350 Co2301 2.214 . S
N2350 C2348 1.325 . S
N2350 C2349 1.261 . S
C2351 H2321 0.931 . S
C2351 C2348 1.357 . S
C2351 C2352 1.312 . S
C2352 H2323 0.930 . S
C2352 C2347 1.261 . S
C2352 C2351 1.312 . S
C2353 O2325 1.214 . S
C2353 O2333 1.234 . S
C2354 H2326 0.929 . S
C2354 C2357 1.391 . S
C2354 C2359 1.391 . S
C2355 H2327 0.929 . S
C2355 C2356 1.390 . S
C2355 N2358 1.391 . S
C2356 H2328 0.930 . S
C2356 C2355 1.390 . S
C2356 C2357 1.392 . S
C2357 H2329 0.929 . S
C2357 C2354 1.391 . S
C2357 C2356 1.392 . S
N2358 Co2302 2.257 . S
N2358 C2355 1.391 . S
N2358 C2359 1.388 . S
C2359 H2330 0.930 . S
C2359 C2354 1.391 . S
C2359 N2358 1.388 . S
Co2360 O2362 2.143 . S
Co2360 O2368 2.074 . S
Co2360 O2371 2.093 . S
Co2360 O2384 2.097 . S
Co2360 N2401 2.151 . S
Co2360 N2409 2.214 . S
Co2361 O2362 2.160 . S
Co2361 O2367 2.058 . S
Co2361 O2377 2.057 . S
Co2361 O2392 2.037 . S
Co2361 N2396 2.145 . S
Co2361 N2417 2.257 . S
O2362 Co2360 2.143 . S
O2362 Co2361 2.160 . S
C2363 O2364 1.278 . S
C2363 O2371 1.224 . S
O2364 C2363 1.278 . S
C2365 O2366 1.245 . S
C2365 O2377 1.232 . S
O2366 C2365 1.245 . S
O2367 Co2361 2.058 . S
O2367 C2393 1.269 . S
O2368 Co2360 2.074 . S
O2368 C2393 1.257 . S
H2369 C2394 0.930 . S
H2370 C2400 0.930 . S
O2371 Co2360 2.093 . S
O2371 C2363 1.224 . S
H2372 C2404 0.929 . S
H2373 C2406 0.930 . S
H2374 C2407 0.930 . S
H2375 C2405 0.929 . S
H2376 C2408 0.928 . S
O2377 Co2361 2.057 . S
O2377 C2365 1.232 . S
H2378 C2397 0.929 . S
H2379 C2398 0.929 . S
H2380 C2410 0.931 . S
H2381 C2402 0.929 . S
H2382 C2411 0.930 . S
H2383 C2403 0.931 . S
O2384 Co2360 2.097 . S
O2384 C2412 1.214 . S
H2385 C2413 0.929 . S
H2386 C2414 0.929 . S
H2387 C2415 0.930 . S
H2388 C2416 0.929 . S
H2389 C2418 0.930 . S
H2390 C2395 0.930 . S
H2391 C2399 0.930 . S
O2392 Co2361 2.037 . S
O2392 C2412 1.234 . S
C2393 O2367 1.269 . S
C2393 O2368 1.257 . S
C2394 H2369 0.930 . S
C2394 C2397 1.388 . S
C2394 C2399 1.418 . S
C2395 H2390 0.930 . S
C2395 C2398 1.404 . S
C2395 C2399 1.353 . S
N2396 Co2361 2.145 . S
N2396 C2397 1.397 . S
N2396 C2398 1.334 . S
C2397 H2378 0.929 . S
C2397 C2394 1.388 . S
C2397 N2396 1.397 . S
C2398 H2379 0.929 . S
C2398 C2395 1.404 . S
C2398 N2396 1.334 . S
C2399 H2391 0.930 . S
C2399 C2394 1.418 . S
C2399 C2395 1.353 . S
C2400 H2370 0.930 . S
C2400 N2401 1.330 . S
C2400 C2402 1.446 . S
N2401 Co2360 2.151 . S
N2401 C2400 1.330 . S
N2401 C2405 1.418 . S
C2402 H2381 0.929 . S
C2402 C2400 1.446 . S
C2402 C2403 1.332 . S
C2403 H2383 0.931 . S
C2403 C2402 1.332 . S
C2403 C2404 1.267 . S
C2404 H2372 0.929 . S
C2404 C2403 1.267 . S
C2404 C2405 1.251 . S
C2405 H2375 0.929 . S
C2405 N2401 1.418 . S
C2405 C2404 1.251 . S
C2406 H2373 0.930 . S
C2406 C2408 1.406 . S
C2406 C2411 1.261 . S
C2407 H2374 0.930 . S
C2407 N2409 1.325 . S
C2407 C2410 1.357 . S
C2408 H2376 0.928 . S
C2408 C2406 1.406 . S
C2408 N2409 1.261 . S
N2409 Co2360 2.214 . S
N2409 C2407 1.325 . S
N2409 C2408 1.261 . S
C2410 H2380 0.931 . S
C2410 C2407 1.357 . S
C2410 C2411 1.312 . S
C2411 H2382 0.930 . S
C2411 C2406 1.261 . S
C2411 C2410 1.312 . S
C2412 O2384 1.214 . S
C2412 O2392 1.234 . S
C2413 H2385 0.929 . S
C2413 C2416 1.391 . S
C2413 C2418 1.391 . S
C2414 H2386 0.929 . S
C2414 C2415 1.390 . S
C2414 N2417 1.391 . S
C2415 H2387 0.930 . S
C2415 C2414 1.390 . S
C2415 C2416 1.392 . S
C2416 H2388 0.929 . S
C2416 C2413 1.391 . S
C2416 C2415 1.392 . S
N2417 Co2361 2.257 . S
N2417 C2414 1.391 . S
N2417 C2418 1.388 . S
C2418 H2389 0.930 . S
C2418 C2413 1.391 . S
C2418 N2417 1.388 . S
Co2419 O2421 2.143 . S
Co2419 O2427 2.074 . S
Co2419 O2430 2.093 . S
Co2419 O2443 2.097 . S
Co2419 N2460 2.151 . S
Co2419 N2468 2.214 . S
Co2420 O2421 2.160 . S
Co2420 O2426 2.058 . S
Co2420 O2436 2.057 . S
Co2420 O2451 2.037 . S
Co2420 N2455 2.145 . S
Co2420 N2476 2.257 . S
O2421 Co2419 2.143 . S
O2421 Co2420 2.160 . S
C2422 O2423 1.278 . S
C2422 O2430 1.224 . S
O2423 C2422 1.278 . S
C2424 O2425 1.245 . S
C2424 O2436 1.232 . S
O2425 C2424 1.245 . S
O2426 Co2420 2.058 . S
O2426 C2452 1.269 . S
O2427 Co2419 2.074 . S
O2427 C2452 1.257 . S
H2428 C2453 0.930 . S
H2429 C2459 0.930 . S
O2430 Co2419 2.093 . S
O2430 C2422 1.224 . S
H2431 C2463 0.929 . S
H2432 C2465 0.930 . S
H2433 C2466 0.930 . S
H2434 C2464 0.929 . S
H2435 C2467 0.928 . S
O2436 Co2420 2.057 . S
O2436 C2424 1.232 . S
H2437 C2456 0.929 . S
H2438 C2457 0.929 . S
H2439 C2469 0.931 . S
H2440 C2461 0.929 . S
H2441 C2470 0.930 . S
H2442 C2462 0.931 . S
O2443 Co2419 2.097 . S
O2443 C2471 1.214 . S
H2444 C2472 0.929 . S
H2445 C2473 0.929 . S
H2446 C2474 0.930 . S
H2447 C2475 0.929 . S
H2448 C2477 0.930 . S
H2449 C2454 0.930 . S
H2450 C2458 0.930 . S
O2451 Co2420 2.037 . S
O2451 C2471 1.234 . S
C2452 O2426 1.269 . S
C2452 O2427 1.257 . S
C2453 H2428 0.930 . S
C2453 C2456 1.388 . S
C2453 C2458 1.418 . S
C2454 H2449 0.930 . S
C2454 C2457 1.404 . S
C2454 C2458 1.353 . S
N2455 Co2420 2.145 . S
N2455 C2456 1.397 . S
N2455 C2457 1.334 . S
C2456 H2437 0.929 . S
C2456 C2453 1.388 . S
C2456 N2455 1.397 . S
C2457 H2438 0.929 . S
C2457 C2454 1.404 . S
C2457 N2455 1.334 . S
C2458 H2450 0.930 . S
C2458 C2453 1.418 . S
C2458 C2454 1.353 . S
C2459 H2429 0.930 . S
C2459 N2460 1.330 . S
C2459 C2461 1.446 . S
N2460 Co2419 2.151 . S
N2460 C2459 1.330 . S
N2460 C2464 1.418 . S
C2461 H2440 0.929 . S
C2461 C2459 1.446 . S
C2461 C2462 1.332 . S
C2462 H2442 0.931 . S
C2462 C2461 1.332 . S
C2462 C2463 1.267 . S
C2463 H2431 0.929 . S
C2463 C2462 1.267 . S
C2463 C2464 1.251 . S
C2464 H2434 0.929 . S
C2464 N2460 1.418 . S
C2464 C2463 1.251 . S
C2465 H2432 0.930 . S
C2465 C2467 1.406 . S
C2465 C2470 1.261 . S
C2466 H2433 0.930 . S
C2466 N2468 1.325 . S
C2466 C2469 1.357 . S
C2467 H2435 0.928 . S
C2467 C2465 1.406 . S
C2467 N2468 1.261 . S
N2468 Co2419 2.214 . S
N2468 C2466 1.325 . S
N2468 C2467 1.261 . S
C2469 H2439 0.931 . S
C2469 C2466 1.357 . S
C2469 C2470 1.312 . S
C2470 H2441 0.930 . S
C2470 C2465 1.261 . S
C2470 C2469 1.312 . S
C2471 O2443 1.214 . S
C2471 O2451 1.234 . S
C2472 H2444 0.929 . S
C2472 C2475 1.391 . S
C2472 C2477 1.391 . S
C2473 H2445 0.929 . S
C2473 C2474 1.390 . S
C2473 N2476 1.391 . S
C2474 H2446 0.930 . S
C2474 C2473 1.390 . S
C2474 C2475 1.392 . S
C2475 H2447 0.929 . S
C2475 C2472 1.391 . S
C2475 C2474 1.392 . S
N2476 Co2420 2.257 . S
N2476 C2473 1.391 . S
N2476 C2477 1.388 . S
C2477 H2448 0.930 . S
C2477 C2472 1.391 . S
C2477 N2476 1.388 . S
Co2478 O2480 2.143 . S
Co2478 O2486 2.074 . S
Co2478 O2489 2.093 . S
Co2478 O2502 2.097 . S
Co2478 N2519 2.151 . S
Co2478 N2527 2.214 . S
Co2479 O2480 2.160 . S
Co2479 O2485 2.058 . S
Co2479 O2495 2.057 . S
Co2479 O2510 2.037 . S
Co2479 N2514 2.145 . S
Co2479 N2535 2.257 . S
O2480 Co2478 2.143 . S
O2480 Co2479 2.160 . S
C2481 O2482 1.278 . S
C2481 O2489 1.224 . S
O2482 C2481 1.278 . S
C2483 O2484 1.245 . S
C2483 O2495 1.232 . S
O2484 C2483 1.245 . S
O2485 Co2479 2.058 . S
O2485 C2511 1.269 . S
O2486 Co2478 2.074 . S
O2486 C2511 1.257 . S
H2487 C2512 0.930 . S
H2488 C2518 0.930 . S
O2489 Co2478 2.093 . S
O2489 C2481 1.224 . S
H2490 C2522 0.929 . S
H2491 C2524 0.930 . S
H2492 C2525 0.930 . S
H2493 C2523 0.929 . S
H2494 C2526 0.928 . S
O2495 Co2479 2.057 . S
O2495 C2483 1.232 . S
H2496 C2515 0.929 . S
H2497 C2516 0.929 . S
H2498 C2528 0.931 . S
H2499 C2520 0.929 . S
H2500 C2529 0.930 . S
H2501 C2521 0.931 . S
O2502 Co2478 2.097 . S
O2502 C2530 1.214 . S
H2503 C2531 0.929 . S
H2504 C2532 0.929 . S
H2505 C2533 0.930 . S
H2506 C2534 0.929 . S
H2507 C2536 0.930 . S
H2508 C2513 0.930 . S
H2509 C2517 0.930 . S
O2510 Co2479 2.037 . S
O2510 C2530 1.234 . S
C2511 O2485 1.269 . S
C2511 O2486 1.257 . S
C2512 H2487 0.930 . S
C2512 C2515 1.388 . S
C2512 C2517 1.418 . S
C2513 H2508 0.930 . S
C2513 C2516 1.404 . S
C2513 C2517 1.353 . S
N2514 Co2479 2.145 . S
N2514 C2515 1.397 . S
N2514 C2516 1.334 . S
C2515 H2496 0.929 . S
C2515 C2512 1.388 . S
C2515 N2514 1.397 . S
C2516 H2497 0.929 . S
C2516 C2513 1.404 . S
C2516 N2514 1.334 . S
C2517 H2509 0.930 . S
C2517 C2512 1.418 . S
C2517 C2513 1.353 . S
C2518 H2488 0.930 . S
C2518 N2519 1.330 . S
C2518 C2520 1.446 . S
N2519 Co2478 2.151 . S
N2519 C2518 1.330 . S
N2519 C2523 1.418 . S
C2520 H2499 0.929 . S
C2520 C2518 1.446 . S
C2520 C2521 1.332 . S
C2521 H2501 0.931 . S
C2521 C2520 1.332 . S
C2521 C2522 1.267 . S
C2522 H2490 0.929 . S
C2522 C2521 1.267 . S
C2522 C2523 1.251 . S
C2523 H2493 0.929 . S
C2523 N2519 1.418 . S
C2523 C2522 1.251 . S
C2524 H2491 0.930 . S
C2524 C2526 1.406 . S
C2524 C2529 1.261 . S
C2525 H2492 0.930 . S
C2525 N2527 1.325 . S
C2525 C2528 1.357 . S
C2526 H2494 0.928 . S
C2526 C2524 1.406 . S
C2526 N2527 1.261 . S
N2527 Co2478 2.214 . S
N2527 C2525 1.325 . S
N2527 C2526 1.261 . S
C2528 H2498 0.931 . S
C2528 C2525 1.357 . S
C2528 C2529 1.312 . S
C2529 H2500 0.930 . S
C2529 C2524 1.261 . S
C2529 C2528 1.312 . S
C2530 O2502 1.214 . S
C2530 O2510 1.234 . S
C2531 H2503 0.929 . S
C2531 C2534 1.391 . S
C2531 C2536 1.391 . S
C2532 H2504 0.929 . S
C2532 C2533 1.390 . S
C2532 N2535 1.391 . S
C2533 H2505 0.930 . S
C2533 C2532 1.390 . S
C2533 C2534 1.392 . S
C2534 H2506 0.929 . S
C2534 C2531 1.391 . S
C2534 C2533 1.392 . S
N2535 Co2479 2.257 . S
N2535 C2532 1.391 . S
N2535 C2536 1.388 . S
C2536 H2507 0.930 . S
C2536 C2531 1.391 . S
C2536 N2535 1.388 . S
Co2537 O2539 2.143 . S
Co2537 O2545 2.074 . S
Co2537 O2548 2.093 . S
Co2537 O2561 2.097 . S
Co2537 N2578 2.151 . S
Co2537 N2586 2.214 . S
Co2538 O2539 2.160 . S
Co2538 O2544 2.058 . S
Co2538 O2554 2.057 . S
Co2538 O2569 2.037 . S
Co2538 N2573 2.145 . S
Co2538 N2594 2.257 . S
O2539 Co2537 2.143 . S
O2539 Co2538 2.160 . S
C2540 O2541 1.278 . S
C2540 O2548 1.224 . S
O2541 C2540 1.278 . S
C2542 O2543 1.245 . S
C2542 O2554 1.232 . S
O2543 C2542 1.245 . S
O2544 Co2538 2.058 . S
O2544 C2570 1.269 . S
O2545 Co2537 2.074 . S
O2545 C2570 1.257 . S
H2546 C2571 0.930 . S
H2547 C2577 0.930 . S
O2548 Co2537 2.093 . S
O2548 C2540 1.224 . S
H2549 C2581 0.929 . S
H2550 C2583 0.930 . S
H2551 C2584 0.930 . S
H2552 C2582 0.929 . S
H2553 C2585 0.928 . S
O2554 Co2538 2.057 . S
O2554 C2542 1.232 . S
H2555 C2574 0.929 . S
H2556 C2575 0.929 . S
H2557 C2587 0.931 . S
H2558 C2579 0.929 . S
H2559 C2588 0.930 . S
H2560 C2580 0.931 . S
O2561 Co2537 2.097 . S
O2561 C2589 1.214 . S
H2562 C2590 0.929 . S
H2563 C2591 0.929 . S
H2564 C2592 0.930 . S
H2565 C2593 0.929 . S
H2566 C2595 0.930 . S
H2567 C2572 0.930 . S
H2568 C2576 0.930 . S
O2569 Co2538 2.037 . S
O2569 C2589 1.234 . S
C2570 O2544 1.269 . S
C2570 O2545 1.257 . S
C2571 H2546 0.930 . S
C2571 C2574 1.388 . S
C2571 C2576 1.418 . S
C2572 H2567 0.930 . S
C2572 C2575 1.404 . S
C2572 C2576 1.353 . S
N2573 Co2538 2.145 . S
N2573 C2574 1.397 . S
N2573 C2575 1.334 . S
C2574 H2555 0.929 . S
C2574 C2571 1.388 . S
C2574 N2573 1.397 . S
C2575 H2556 0.929 . S
C2575 C2572 1.404 . S
C2575 N2573 1.334 . S
C2576 H2568 0.930 . S
C2576 C2571 1.418 . S
C2576 C2572 1.353 . S
C2577 H2547 0.930 . S
C2577 N2578 1.330 . S
C2577 C2579 1.446 . S
N2578 Co2537 2.151 . S
N2578 C2577 1.330 . S
N2578 C2582 1.418 . S
C2579 H2558 0.929 . S
C2579 C2577 1.446 . S
C2579 C2580 1.332 . S
C2580 H2560 0.931 . S
C2580 C2579 1.332 . S
C2580 C2581 1.267 . S
C2581 H2549 0.929 . S
C2581 C2580 1.267 . S
C2581 C2582 1.251 . S
C2582 H2552 0.929 . S
C2582 N2578 1.418 . S
C2582 C2581 1.251 . S
C2583 H2550 0.930 . S
C2583 C2585 1.406 . S
C2583 C2588 1.261 . S
C2584 H2551 0.930 . S
C2584 N2586 1.325 . S
C2584 C2587 1.357 . S
C2585 H2553 0.928 . S
C2585 C2583 1.406 . S
C2585 N2586 1.261 . S
N2586 Co2537 2.214 . S
N2586 C2584 1.325 . S
N2586 C2585 1.261 . S
C2587 H2557 0.931 . S
C2587 C2584 1.357 . S
C2587 C2588 1.312 . S
C2588 H2559 0.930 . S
C2588 C2583 1.261 . S
C2588 C2587 1.312 . S
C2589 O2561 1.214 . S
C2589 O2569 1.234 . S
C2590 H2562 0.929 . S
C2590 C2593 1.391 . S
C2590 C2595 1.391 . S
C2591 H2563 0.929 . S
C2591 C2592 1.390 . S
C2591 N2594 1.391 . S
C2592 H2564 0.930 . S
C2592 C2591 1.390 . S
C2592 C2593 1.392 . S
C2593 H2565 0.929 . S
C2593 C2590 1.391 . S
C2593 C2592 1.392 . S
N2594 Co2538 2.257 . S
N2594 C2591 1.391 . S
N2594 C2595 1.388 . S
C2595 H2566 0.930 . S
C2595 C2590 1.391 . S
C2595 N2594 1.388 . S
Co2596 O2598 2.143 . S
Co2596 O2604 2.074 . S
Co2596 O2607 2.093 . S
Co2596 O2620 2.097 . S
Co2596 N2637 2.151 . S
Co2596 N2645 2.214 . S
Co2597 O2598 2.160 . S
Co2597 O2603 2.058 . S
Co2597 O2613 2.057 . S
Co2597 O2628 2.037 . S
Co2597 N2632 2.145 . S
Co2597 N2653 2.257 . S
O2598 Co2596 2.143 . S
O2598 Co2597 2.160 . S
C2599 O2600 1.278 . S
C2599 O2607 1.224 . S
O2600 C2599 1.278 . S
C2601 O2602 1.245 . S
C2601 O2613 1.232 . S
O2602 C2601 1.245 . S
O2603 Co2597 2.058 . S
O2603 C2629 1.269 . S
O2604 Co2596 2.074 . S
O2604 C2629 1.257 . S
H2605 C2630 0.930 . S
H2606 C2636 0.930 . S
O2607 Co2596 2.093 . S
O2607 C2599 1.224 . S
H2608 C2640 0.929 . S
H2609 C2642 0.930 . S
H2610 C2643 0.930 . S
H2611 C2641 0.929 . S
H2612 C2644 0.928 . S
O2613 Co2597 2.057 . S
O2613 C2601 1.232 . S
H2614 C2633 0.929 . S
H2615 C2634 0.929 . S
H2616 C2646 0.931 . S
H2617 C2638 0.929 . S
H2618 C2647 0.930 . S
H2619 C2639 0.931 . S
O2620 Co2596 2.097 . S
O2620 C2648 1.214 . S
H2621 C2649 0.929 . S
H2622 C2650 0.929 . S
H2623 C2651 0.930 . S
H2624 C2652 0.929 . S
H2625 C2654 0.930 . S
H2626 C2631 0.930 . S
H2627 C2635 0.930 . S
O2628 Co2597 2.037 . S
O2628 C2648 1.234 . S
C2629 O2603 1.269 . S
C2629 O2604 1.257 . S
C2630 H2605 0.930 . S
C2630 C2633 1.388 . S
C2630 C2635 1.418 . S
C2631 H2626 0.930 . S
C2631 C2634 1.404 . S
C2631 C2635 1.353 . S
N2632 Co2597 2.145 . S
N2632 C2633 1.397 . S
N2632 C2634 1.334 . S
C2633 H2614 0.929 . S
C2633 C2630 1.388 . S
C2633 N2632 1.397 . S
C2634 H2615 0.929 . S
C2634 C2631 1.404 . S
C2634 N2632 1.334 . S
C2635 H2627 0.930 . S
C2635 C2630 1.418 . S
C2635 C2631 1.353 . S
C2636 H2606 0.930 . S
C2636 N2637 1.330 . S
C2636 C2638 1.446 . S
N2637 Co2596 2.151 . S
N2637 C2636 1.330 . S
N2637 C2641 1.418 . S
C2638 H2617 0.929 . S
C2638 C2636 1.446 . S
C2638 C2639 1.332 . S
C2639 H2619 0.931 . S
C2639 C2638 1.332 . S
C2639 C2640 1.267 . S
C2640 H2608 0.929 . S
C2640 C2639 1.267 . S
C2640 C2641 1.251 . S
C2641 H2611 0.929 . S
C2641 N2637 1.418 . S
C2641 C2640 1.251 . S
C2642 H2609 0.930 . S
C2642 C2644 1.406 . S
C2642 C2647 1.261 . S
C2643 H2610 0.930 . S
C2643 N2645 1.325 . S
C2643 C2646 1.357 . S
C2644 H2612 0.928 . S
C2644 C2642 1.406 . S
C2644 N2645 1.261 . S
N2645 Co2596 2.214 . S
N2645 C2643 1.325 . S
N2645 C2644 1.261 . S
C2646 H2616 0.931 . S
C2646 C2643 1.357 . S
C2646 C2647 1.312 . S
C2647 H2618 0.930 . S
C2647 C2642 1.261 . S
C2647 C2646 1.312 . S
C2648 O2620 1.214 . S
C2648 O2628 1.234 . S
C2649 H2621 0.929 . S
C2649 C2652 1.391 . S
C2649 C2654 1.391 . S
C2650 H2622 0.929 . S
C2650 C2651 1.390 . S
C2650 N2653 1.391 . S
C2651 H2623 0.930 . S
C2651 C2650 1.390 . S
C2651 C2652 1.392 . S
C2652 H2624 0.929 . S
C2652 C2649 1.391 . S
C2652 C2651 1.392 . S
N2653 Co2597 2.257 . S
N2653 C2650 1.391 . S
N2653 C2654 1.388 . S
C2654 H2625 0.930 . S
C2654 C2649 1.391 . S
C2654 N2653 1.388 . S
Co2655 O2657 2.143 . S
Co2655 O2663 2.074 . S
Co2655 O2666 2.093 . S
Co2655 O2679 2.097 . S
Co2655 N2696 2.151 . S
Co2655 N2704 2.214 . S
Co2656 O2657 2.160 . S
Co2656 O2662 2.058 . S
Co2656 O2672 2.057 . S
Co2656 O2687 2.037 . S
Co2656 N2691 2.145 . S
Co2656 N2712 2.257 . S
O2657 Co2655 2.143 . S
O2657 Co2656 2.160 . S
C2658 O2659 1.278 . S
C2658 O2666 1.224 . S
O2659 C2658 1.278 . S
C2660 O2661 1.245 . S
C2660 O2672 1.232 . S
O2661 C2660 1.245 . S
O2662 Co2656 2.058 . S
O2662 C2688 1.269 . S
O2663 Co2655 2.074 . S
O2663 C2688 1.257 . S
H2664 C2689 0.930 . S
H2665 C2695 0.930 . S
O2666 Co2655 2.093 . S
O2666 C2658 1.224 . S
H2667 C2699 0.929 . S
H2668 C2701 0.930 . S
H2669 C2702 0.930 . S
H2670 C2700 0.929 . S
H2671 C2703 0.928 . S
O2672 Co2656 2.057 . S
O2672 C2660 1.232 . S
H2673 C2692 0.929 . S
H2674 C2693 0.929 . S
H2675 C2705 0.931 . S
H2676 C2697 0.929 . S
H2677 C2706 0.930 . S
H2678 C2698 0.931 . S
O2679 Co2655 2.097 . S
O2679 C2707 1.214 . S
H2680 C2708 0.929 . S
H2681 C2709 0.929 . S
H2682 C2710 0.930 . S
H2683 C2711 0.929 . S
H2684 C2713 0.930 . S
H2685 C2690 0.930 . S
H2686 C2694 0.930 . S
O2687 Co2656 2.037 . S
O2687 C2707 1.234 . S
C2688 O2662 1.269 . S
C2688 O2663 1.257 . S
C2689 H2664 0.930 . S
C2689 C2692 1.388 . S
C2689 C2694 1.418 . S
C2690 H2685 0.930 . S
C2690 C2693 1.404 . S
C2690 C2694 1.353 . S
N2691 Co2656 2.145 . S
N2691 C2692 1.397 . S
N2691 C2693 1.334 . S
C2692 H2673 0.929 . S
C2692 C2689 1.388 . S
C2692 N2691 1.397 . S
C2693 H2674 0.929 . S
C2693 C2690 1.404 . S
C2693 N2691 1.334 . S
C2694 H2686 0.930 . S
C2694 C2689 1.418 . S
C2694 C2690 1.353 . S
C2695 H2665 0.930 . S
C2695 N2696 1.330 . S
C2695 C2697 1.446 . S
N2696 Co2655 2.151 . S
N2696 C2695 1.330 . S
N2696 C2700 1.418 . S
C2697 H2676 0.929 . S
C2697 C2695 1.446 . S
C2697 C2698 1.332 . S
C2698 H2678 0.931 . S
C2698 C2697 1.332 . S
C2698 C2699 1.267 . S
C2699 H2667 0.929 . S
C2699 C2698 1.267 . S
C2699 C2700 1.251 . S
C2700 H2670 0.929 . S
C2700 N2696 1.418 . S
C2700 C2699 1.251 . S
C2701 H2668 0.930 . S
C2701 C2703 1.406 . S
C2701 C2706 1.261 . S
C2702 H2669 0.930 . S
C2702 N2704 1.325 . S
C2702 C2705 1.357 . S
C2703 H2671 0.928 . S
C2703 C2701 1.406 . S
C2703 N2704 1.261 . S
N2704 Co2655 2.214 . S
N2704 C2702 1.325 . S
N2704 C2703 1.261 . S
C2705 H2675 0.931 . S
C2705 C2702 1.357 . S
C2705 C2706 1.312 . S
C2706 H2677 0.930 . S
C2706 C2701 1.261 . S
C2706 C2705 1.312 . S
C2707 O2679 1.214 . S
C2707 O2687 1.234 . S
C2708 H2680 0.929 . S
C2708 C2711 1.391 . S
C2708 C2713 1.391 . S
C2709 H2681 0.929 . S
C2709 C2710 1.390 . S
C2709 N2712 1.391 . S
C2710 H2682 0.930 . S
C2710 C2709 1.390 . S
C2710 C2711 1.392 . S
C2711 H2683 0.929 . S
C2711 C2708 1.391 . S
C2711 C2710 1.392 . S
N2712 Co2656 2.257 . S
N2712 C2709 1.391 . S
N2712 C2713 1.388 . S
C2713 H2684 0.930 . S
C2713 C2708 1.391 . S
C2713 N2712 1.388 . S
Co2714 O2716 2.143 . S
Co2714 O2722 2.074 . S
Co2714 O2725 2.093 . S
Co2714 O2738 2.097 . S
Co2714 N2755 2.151 . S
Co2714 N2763 2.214 . S
Co2715 O2716 2.160 . S
Co2715 O2721 2.058 . S
Co2715 O2731 2.057 . S
Co2715 O2746 2.037 . S
Co2715 N2750 2.145 . S
Co2715 N2771 2.257 . S
O2716 Co2714 2.143 . S
O2716 Co2715 2.160 . S
C2717 O2718 1.278 . S
C2717 O2725 1.224 . S
O2718 C2717 1.278 . S
C2719 O2720 1.245 . S
C2719 O2731 1.232 . S
O2720 C2719 1.245 . S
O2721 Co2715 2.058 . S
O2721 C2747 1.269 . S
O2722 Co2714 2.074 . S
O2722 C2747 1.257 . S
H2723 C2748 0.930 . S
H2724 C2754 0.930 . S
O2725 Co2714 2.093 . S
O2725 C2717 1.224 . S
H2726 C2758 0.929 . S
H2727 C2760 0.930 . S
H2728 C2761 0.930 . S
H2729 C2759 0.929 . S
H2730 C2762 0.928 . S
O2731 Co2715 2.057 . S
O2731 C2719 1.232 . S
H2732 C2751 0.929 . S
H2733 C2752 0.929 . S
H2734 C2764 0.931 . S
H2735 C2756 0.929 . S
H2736 C2765 0.930 . S
H2737 C2757 0.931 . S
O2738 Co2714 2.097 . S
O2738 C2766 1.214 . S
H2739 C2767 0.929 . S
H2740 C2768 0.929 . S
H2741 C2769 0.930 . S
H2742 C2770 0.929 . S
H2743 C2772 0.930 . S
H2744 C2749 0.930 . S
H2745 C2753 0.930 . S
O2746 Co2715 2.037 . S
O2746 C2766 1.234 . S
C2747 O2721 1.269 . S
C2747 O2722 1.257 . S
C2748 H2723 0.930 . S
C2748 C2751 1.388 . S
C2748 C2753 1.418 . S
C2749 H2744 0.930 . S
C2749 C2752 1.404 . S
C2749 C2753 1.353 . S
N2750 Co2715 2.145 . S
N2750 C2751 1.397 . S
N2750 C2752 1.334 . S
C2751 H2732 0.929 . S
C2751 C2748 1.388 . S
C2751 N2750 1.397 . S
C2752 H2733 0.929 . S
C2752 C2749 1.404 . S
C2752 N2750 1.334 . S
C2753 H2745 0.930 . S
C2753 C2748 1.418 . S
C2753 C2749 1.353 . S
C2754 H2724 0.930 . S
C2754 N2755 1.330 . S
C2754 C2756 1.446 . S
N2755 Co2714 2.151 . S
N2755 C2754 1.330 . S
N2755 C2759 1.418 . S
C2756 H2735 0.929 . S
C2756 C2754 1.446 . S
C2756 C2757 1.332 . S
C2757 H2737 0.931 . S
C2757 C2756 1.332 . S
C2757 C2758 1.267 . S
C2758 H2726 0.929 . S
C2758 C2757 1.267 . S
C2758 C2759 1.251 . S
C2759 H2729 0.929 . S
C2759 N2755 1.418 . S
C2759 C2758 1.251 . S
C2760 H2727 0.930 . S
C2760 C2762 1.406 . S
C2760 C2765 1.261 . S
C2761 H2728 0.930 . S
C2761 N2763 1.325 . S
C2761 C2764 1.357 . S
C2762 H2730 0.928 . S
C2762 C2760 1.406 . S
C2762 N2763 1.261 . S
N2763 Co2714 2.214 . S
N2763 C2761 1.325 . S
N2763 C2762 1.261 . S
C2764 H2734 0.931 . S
C2764 C2761 1.357 . S
C2764 C2765 1.312 . S
C2765 H2736 0.930 . S
C2765 C2760 1.261 . S
C2765 C2764 1.312 . S
C2766 O2738 1.214 . S
C2766 O2746 1.234 . S
C2767 H2739 0.929 . S
C2767 C2770 1.391 . S
C2767 C2772 1.391 . S
C2768 H2740 0.929 . S
C2768 C2769 1.390 . S
C2768 N2771 1.391 . S
C2769 H2741 0.930 . S
C2769 C2768 1.390 . S
C2769 C2770 1.392 . S
C2770 H2742 0.929 . S
C2770 C2767 1.391 . S
C2770 C2769 1.392 . S
N2771 Co2715 2.257 . S
N2771 C2768 1.391 . S
N2771 C2772 1.388 . S
C2772 H2743 0.930 . S
C2772 C2767 1.391 . S
C2772 N2771 1.388 . S
Co2773 O2775 2.143 . S
Co2773 O2781 2.074 . S
Co2773 O2784 2.093 . S
Co2773 O2797 2.097 . S
Co2773 N2814 2.151 . S
Co2773 N2822 2.214 . S
Co2774 O2775 2.160 . S
Co2774 O2780 2.058 . S
Co2774 O2790 2.057 . S
Co2774 O2805 2.037 . S
Co2774 N2809 2.145 . S
Co2774 N2830 2.257 . S
O2775 Co2773 2.143 . S
O2775 Co2774 2.160 . S
C2776 O2777 1.278 . S
C2776 O2784 1.224 . S
O2777 C2776 1.278 . S
C2778 O2779 1.245 . S
C2778 O2790 1.232 . S
O2779 C2778 1.245 . S
O2780 Co2774 2.058 . S
O2780 C2806 1.269 . S
O2781 Co2773 2.074 . S
O2781 C2806 1.257 . S
H2782 C2807 0.930 . S
H2783 C2813 0.930 . S
O2784 Co2773 2.093 . S
O2784 C2776 1.224 . S
H2785 C2817 0.929 . S
H2786 C2819 0.930 . S
H2787 C2820 0.930 . S
H2788 C2818 0.929 . S
H2789 C2821 0.928 . S
O2790 Co2774 2.057 . S
O2790 C2778 1.232 . S
H2791 C2810 0.929 . S
H2792 C2811 0.929 . S
H2793 C2823 0.931 . S
H2794 C2815 0.929 . S
H2795 C2824 0.930 . S
H2796 C2816 0.931 . S
O2797 Co2773 2.097 . S
O2797 C2825 1.214 . S
H2798 C2826 0.929 . S
H2799 C2827 0.929 . S
H2800 C2828 0.930 . S
H2801 C2829 0.929 . S
H2802 C2831 0.930 . S
H2803 C2808 0.930 . S
H2804 C2812 0.930 . S
O2805 Co2774 2.037 . S
O2805 C2825 1.234 . S
C2806 O2780 1.269 . S
C2806 O2781 1.257 . S
C2807 H2782 0.930 . S
C2807 C2810 1.388 . S
C2807 C2812 1.418 . S
C2808 H2803 0.930 . S
C2808 C2811 1.404 . S
C2808 C2812 1.353 . S
N2809 Co2774 2.145 . S
N2809 C2810 1.397 . S
N2809 C2811 1.334 . S
C2810 H2791 0.929 . S
C2810 C2807 1.388 . S
C2810 N2809 1.397 . S
C2811 H2792 0.929 . S
C2811 C2808 1.404 . S
C2811 N2809 1.334 . S
C2812 H2804 0.930 . S
C2812 C2807 1.418 . S
C2812 C2808 1.353 . S
C2813 H2783 0.930 . S
C2813 N2814 1.330 . S
C2813 C2815 1.446 . S
N2814 Co2773 2.151 . S
N2814 C2813 1.330 . S
N2814 C2818 1.418 . S
C2815 H2794 0.929 . S
C2815 C2813 1.446 . S
C2815 C2816 1.332 . S
C2816 H2796 0.931 . S
C2816 C2815 1.332 . S
C2816 C2817 1.267 . S
C2817 H2785 0.929 . S
C2817 C2816 1.267 . S
C2817 C2818 1.251 . S
C2818 H2788 0.929 . S
C2818 N2814 1.418 . S
C2818 C2817 1.251 . S
C2819 H2786 0.930 . S
C2819 C2821 1.406 . S
C2819 C2824 1.261 . S
C2820 H2787 0.930 . S
C2820 N2822 1.325 . S
C2820 C2823 1.357 . S
C2821 H2789 0.928 . S
C2821 C2819 1.406 . S
C2821 N2822 1.261 . S
N2822 Co2773 2.214 . S
N2822 C2820 1.325 . S
N2822 C2821 1.261 . S
C2823 H2793 0.931 . S
C2823 C2820 1.357 . S
C2823 C2824 1.312 . S
C2824 H2795 0.930 . S
C2824 C2819 1.261 . S
C2824 C2823 1.312 . S
C2825 O2797 1.214 . S
C2825 O2805 1.234 . S
C2826 H2798 0.929 . S
C2826 C2829 1.391 . S
C2826 C2831 1.391 . S
C2827 H2799 0.929 . S
C2827 C2828 1.390 . S
C2827 N2830 1.391 . S
C2828 H2800 0.930 . S
C2828 C2827 1.390 . S
C2828 C2829 1.392 . S
C2829 H2801 0.929 . S
C2829 C2826 1.391 . S
C2829 C2828 1.392 . S
N2830 Co2774 2.257 . S
N2830 C2827 1.391 . S
N2830 C2831 1.388 . S
C2831 H2802 0.930 . S
C2831 C2826 1.391 . S
C2831 N2830 1.388 . S
H2832 C2838 0.930 . S
H2833 C2842 0.930 . S
H2834 C2847 0.929 . S
H2835 C2845 0.929 . S
H2836 C2840 0.929 . S
H2837 C2846 0.929 . S
C2838 H2832 0.930 . S
C2838 C2839 1.367 . S
C2838 C2846 1.378 . S
C2839 C2838 1.367 . S
C2839 C2847 1.433 . S
C2840 H2836 0.929 . S
C2840 C2842 1.378 . S
C2840 C2844 1.350 . S
C2841 C2844 1.463 . S
C2841 C2846 1.350 . S
C2841 N2849 1.427 . S
C2842 H2833 0.930 . S
C2842 C2840 1.378 . S
C2842 C2843 1.367 . S
C2843 C2842 1.367 . S
C2843 C2845 1.433 . S
C2844 C2840 1.350 . S
C2844 C2841 1.463 . S
C2844 N2848 1.427 . S
C2845 H2835 0.929 . S
C2845 C2843 1.433 . S
C2845 N2848 1.384 . S
C2846 H2837 0.929 . S
C2846 C2838 1.378 . S
C2846 C2841 1.350 . S
C2847 H2834 0.929 . S
C2847 C2839 1.433 . S
C2847 N2849 1.384 . S
N2848 C2844 1.427 . S
N2848 C2845 1.384 . S
N2849 C2841 1.427 . S
N2849 C2847 1.384 . S
H2850 C2856 0.930 . S
H2851 C2860 0.930 . S
H2852 C2865 0.929 . S
H2853 C2863 0.929 . S
H2854 C2858 0.929 . S
H2855 C2864 0.929 . S
C2856 H2850 0.930 . S
C2856 C2857 1.367 . S
C2856 C2864 1.378 . S
C2857 C2856 1.367 . S
C2857 C2865 1.433 . S
C2858 H2854 0.929 . S
C2858 C2860 1.378 . S
C2858 C2862 1.350 . S
C2859 C2862 1.463 . S
C2859 C2864 1.350 . S
C2859 N2867 1.427 . S
C2860 H2851 0.930 . S
C2860 C2858 1.378 . S
C2860 C2861 1.367 . S
C2861 C2860 1.367 . S
C2861 C2863 1.433 . S
C2862 C2858 1.350 . S
C2862 C2859 1.463 . S
C2862 N2866 1.427 . S
C2863 H2853 0.929 . S
C2863 C2861 1.433 . S
C2863 N2866 1.384 . S
C2864 H2855 0.929 . S
C2864 C2856 1.378 . S
C2864 C2859 1.350 . S
C2865 H2852 0.929 . S
C2865 C2857 1.433 . S
C2865 N2867 1.384 . S
N2866 C2862 1.427 . S
N2866 C2863 1.384 . S
N2867 C2859 1.427 . S
N2867 C2865 1.384 . S
H2868 C2874 0.930 . S
H2869 C2878 0.930 . S
H2870 C2883 0.929 . S
H2871 C2881 0.929 . S
H2872 C2876 0.929 . S
H2873 C2882 0.929 . S
C2874 H2868 0.930 . S
C2874 C2875 1.367 . S
C2874 C2882 1.378 . S
C2875 C2874 1.367 . S
C2875 C2883 1.433 . S
C2876 H2872 0.929 . S
C2876 C2878 1.378 . S
C2876 C2880 1.350 . S
C2877 C2880 1.463 . S
C2877 C2882 1.350 . S
C2877 N2885 1.427 . S
C2878 H2869 0.930 . S
C2878 C2876 1.378 . S
C2878 C2879 1.367 . S
C2879 C2878 1.367 . S
C2879 C2881 1.433 . S
C2880 C2876 1.350 . S
C2880 C2877 1.463 . S
C2880 N2884 1.427 . S
C2881 H2871 0.929 . S
C2881 C2879 1.433 . S
C2881 N2884 1.384 . S
C2882 H2873 0.929 . S
C2882 C2874 1.378 . S
C2882 C2877 1.350 . S
C2883 H2870 0.929 . S
C2883 C2875 1.433 . S
C2883 N2885 1.384 . S
N2884 C2880 1.427 . S
N2884 C2881 1.384 . S
N2885 C2877 1.427 . S
N2885 C2883 1.384 . S
H2886 C2892 0.930 . S
H2887 C2896 0.930 . S
H2888 C2901 0.929 . S
H2889 C2899 0.929 . S
H2890 C2894 0.929 . S
H2891 C2900 0.929 . S
C2892 H2886 0.930 . S
C2892 C2893 1.367 . S
C2892 C2900 1.378 . S
C2893 C2892 1.367 . S
C2893 C2901 1.433 . S
C2894 H2890 0.929 . S
C2894 C2896 1.378 . S
C2894 C2898 1.350 . S
C2895 C2898 1.463 . S
C2895 C2900 1.350 . S
C2895 N2903 1.427 . S
C2896 H2887 0.930 . S
C2896 C2894 1.378 . S
C2896 C2897 1.367 . S
C2897 C2896 1.367 . S
C2897 C2899 1.433 . S
C2898 C2894 1.350 . S
C2898 C2895 1.463 . S
C2898 N2902 1.427 . S
C2899 H2889 0.929 . S
C2899 C2897 1.433 . S
C2899 N2902 1.384 . S
C2900 H2891 0.929 . S
C2900 C2892 1.378 . S
C2900 C2895 1.350 . S
C2901 H2888 0.929 . S
C2901 C2893 1.433 . S
C2901 N2903 1.384 . S
N2902 C2898 1.427 . S
N2902 C2899 1.384 . S
N2903 C2895 1.427 . S
N2903 C2901 1.384 . S
H2904 C2910 0.930 . S
H2905 C2914 0.930 . S
H2906 C2919 0.929 . S
H2907 C2917 0.929 . S
H2908 C2912 0.929 . S
H2909 C2918 0.929 . S
C2910 H2904 0.930 . S
C2910 C2911 1.367 . S
C2910 C2918 1.378 . S
C2911 C2910 1.367 . S
C2911 C2919 1.433 . S
C2912 H2908 0.929 . S
C2912 C2914 1.378 . S
C2912 C2916 1.350 . S
C2913 C2916 1.463 . S
C2913 C2918 1.350 . S
C2913 N2921 1.427 . S
C2914 H2905 0.930 . S
C2914 C2912 1.378 . S
C2914 C2915 1.367 . S
C2915 C2914 1.367 . S
C2915 C2917 1.433 . S
C2916 C2912 1.350 . S
C2916 C2913 1.463 . S
C2916 N2920 1.427 . S
C2917 H2907 0.929 . S
C2917 C2915 1.433 . S
C2917 N2920 1.384 . S
C2918 H2909 0.929 . S
C2918 C2910 1.378 . S
C2918 C2913 1.350 . S
C2919 H2906 0.929 . S
C2919 C2911 1.433 . S
C2919 N2921 1.384 . S
N2920 C2916 1.427 . S
N2920 C2917 1.384 . S
N2921 C2913 1.427 . S
N2921 C2919 1.384 . S
H2922 C2928 0.930 . S
H2923 C2932 0.930 . S
H2924 C2937 0.929 . S
H2925 C2935 0.929 . S
H2926 C2930 0.929 . S
H2927 C2936 0.929 . S
C2928 H2922 0.930 . S
C2928 C2929 1.367 . S
C2928 C2936 1.378 . S
C2929 C2928 1.367 . S
C2929 C2937 1.433 . S
C2930 H2926 0.929 . S
C2930 C2932 1.378 . S
C2930 C2934 1.350 . S
C2931 C2934 1.463 . S
C2931 C2936 1.350 . S
C2931 N2939 1.427 . S
C2932 H2923 0.930 . S
C2932 C2930 1.378 . S
C2932 C2933 1.367 . S
C2933 C2932 1.367 . S
C2933 C2935 1.433 . S
C2934 C2930 1.350 . S
C2934 C2931 1.463 . S
C2934 N2938 1.427 . S
C2935 H2925 0.929 . S
C2935 C2933 1.433 . S
C2935 N2938 1.384 . S
C2936 H2927 0.929 . S
C2936 C2928 1.378 . S
C2936 C2931 1.350 . S
C2937 H2924 0.929 . S
C2937 C2929 1.433 . S
C2937 N2939 1.384 . S
N2938 C2934 1.427 . S
N2938 C2935 1.384 . S
N2939 C2931 1.427 . S
N2939 C2937 1.384 . S
H2940 C2946 0.930 . S
H2941 C2950 0.930 . S
H2942 C2955 0.929 . S
H2943 C2953 0.929 . S
H2944 C2948 0.929 . S
H2945 C2954 0.929 . S
C2946 H2940 0.930 . S
C2946 C2947 1.367 . S
C2946 C2954 1.378 . S
C2947 C2946 1.367 . S
C2947 C2955 1.433 . S
C2948 H2944 0.929 . S
C2948 C2950 1.378 . S
C2948 C2952 1.350 . S
C2949 C2952 1.463 . S
C2949 C2954 1.350 . S
C2949 N2957 1.427 . S
C2950 H2941 0.930 . S
C2950 C2948 1.378 . S
C2950 C2951 1.367 . S
C2951 C2950 1.367 . S
C2951 C2953 1.433 . S
C2952 C2948 1.350 . S
C2952 C2949 1.463 . S
C2952 N2956 1.427 . S
C2953 H2943 0.929 . S
C2953 C2951 1.433 . S
C2953 N2956 1.384 . S
C2954 H2945 0.929 . S
C2954 C2946 1.378 . S
C2954 C2949 1.350 . S
C2955 H2942 0.929 . S
C2955 C2947 1.433 . S
C2955 N2957 1.384 . S
N2956 C2952 1.427 . S
N2956 C2953 1.384 . S
N2957 C2949 1.427 . S
N2957 C2955 1.384 . S
H2958 C2964 0.930 . S
H2959 C2968 0.930 . S
H2960 C2973 0.929 . S
H2961 C2971 0.929 . S
H2962 C2966 0.929 . S
H2963 C2972 0.929 . S
C2964 H2958 0.930 . S
C2964 C2965 1.367 . S
C2964 C2972 1.378 . S
C2965 C2964 1.367 . S
C2965 C2973 1.433 . S
C2966 H2962 0.929 . S
C2966 C2968 1.378 . S
C2966 C2970 1.350 . S
C2967 C2970 1.463 . S
C2967 C2972 1.350 . S
C2967 N2975 1.427 . S
C2968 H2959 0.930 . S
C2968 C2966 1.378 . S
C2968 C2969 1.367 . S
C2969 C2968 1.367 . S
C2969 C2971 1.433 . S
C2970 C2966 1.350 . S
C2970 C2967 1.463 . S
C2970 N2974 1.427 . S
C2971 H2961 0.929 . S
C2971 C2969 1.433 . S
C2971 N2974 1.384 . S
C2972 H2963 0.929 . S
C2972 C2964 1.378 . S
C2972 C2967 1.350 . S
C2973 H2960 0.929 . S
C2973 C2965 1.433 . S
C2973 N2975 1.384 . S
N2974 C2970 1.427 . S
N2974 C2971 1.384 . S
N2975 C2967 1.427 . S
N2975 C2973 1.384 . S
H2976 C2982 0.930 . S
H2977 C2986 0.930 . S
H2978 C2991 0.929 . S
H2979 C2989 0.929 . S
H2980 C2984 0.929 . S
H2981 C2990 0.929 . S
C2982 H2976 0.930 . S
C2982 C2983 1.367 . S
C2982 C2990 1.378 . S
C2983 C2982 1.367 . S
C2983 C2991 1.433 . S
C2984 H2980 0.929 . S
C2984 C2986 1.378 . S
C2984 C2988 1.350 . S
C2985 C2988 1.463 . S
C2985 C2990 1.350 . S
C2985 N2993 1.427 . S
C2986 H2977 0.930 . S
C2986 C2984 1.378 . S
C2986 C2987 1.367 . S
C2987 C2986 1.367 . S
C2987 C2989 1.433 . S
C2988 C2984 1.350 . S
C2988 C2985 1.463 . S
C2988 N2992 1.427 . S
C2989 H2979 0.929 . S
C2989 C2987 1.433 . S
C2989 N2992 1.384 . S
C2990 H2981 0.929 . S
C2990 C2982 1.378 . S
C2990 C2985 1.350 . S
C2991 H2978 0.929 . S
C2991 C2983 1.433 . S
C2991 N2993 1.384 . S
N2992 C2988 1.427 . S
N2992 C2989 1.384 . S
N2993 C2985 1.427 . S
N2993 C2991 1.384 . S
H2994 C3000 0.930 . S
H2995 C3004 0.930 . S
H2996 C3009 0.929 . S
H2997 C3007 0.929 . S
H2998 C3002 0.929 . S
H2999 C3008 0.929 . S
C3000 H2994 0.930 . S
C3000 C3001 1.367 . S
C3000 C3008 1.378 . S
C3001 C3000 1.367 . S
C3001 C3009 1.433 . S
C3002 H2998 0.929 . S
C3002 C3004 1.378 . S
C3002 C3006 1.350 . S
C3003 C3006 1.463 . S
C3003 C3008 1.350 . S
C3003 N3011 1.427 . S
C3004 H2995 0.930 . S
C3004 C3002 1.378 . S
C3004 C3005 1.367 . S
C3005 C3004 1.367 . S
C3005 C3007 1.433 . S
C3006 C3002 1.350 . S
C3006 C3003 1.463 . S
C3006 N3010 1.427 . S
C3007 H2997 0.929 . S
C3007 C3005 1.433 . S
C3007 N3010 1.384 . S
C3008 H2999 0.929 . S
C3008 C3000 1.378 . S
C3008 C3003 1.350 . S
C3009 H2996 0.929 . S
C3009 C3001 1.433 . S
C3009 N3011 1.384 . S
N3010 C3006 1.427 . S
N3010 C3007 1.384 . S
N3011 C3003 1.427 . S
N3011 C3009 1.384 . S
H3012 C3018 0.930 . S
H3013 C3022 0.930 . S
H3014 C3027 0.929 . S
H3015 C3025 0.929 . S
H3016 C3020 0.929 . S
H3017 C3026 0.929 . S
C3018 H3012 0.930 . S
C3018 C3019 1.367 . S
C3018 C3026 1.378 . S
C3019 C3018 1.367 . S
C3019 C3027 1.433 . S
C3020 H3016 0.929 . S
C3020 C3022 1.378 . S
C3020 C3024 1.350 . S
C3021 C3024 1.463 . S
C3021 C3026 1.350 . S
C3021 N3029 1.427 . S
C3022 H3013 0.930 . S
C3022 C3020 1.378 . S
C3022 C3023 1.367 . S
C3023 C3022 1.367 . S
C3023 C3025 1.433 . S
C3024 C3020 1.350 . S
C3024 C3021 1.463 . S
C3024 N3028 1.427 . S
C3025 H3015 0.929 . S
C3025 C3023 1.433 . S
C3025 N3028 1.384 . S
C3026 H3017 0.929 . S
C3026 C3018 1.378 . S
C3026 C3021 1.350 . S
C3027 H3014 0.929 . S
C3027 C3019 1.433 . S
C3027 N3029 1.384 . S
N3028 C3024 1.427 . S
N3028 C3025 1.384 . S
N3029 C3021 1.427 . S
N3029 C3027 1.384 . S
H3030 C3036 0.930 . S
H3031 C3040 0.930 . S
H3032 C3045 0.929 . S
H3033 C3043 0.929 . S
H3034 C3038 0.929 . S
H3035 C3044 0.929 . S
C3036 H3030 0.930 . S
C3036 C3037 1.367 . S
C3036 C3044 1.378 . S
C3037 C3036 1.367 . S
C3037 C3045 1.433 . S
C3038 H3034 0.929 . S
C3038 C3040 1.378 . S
C3038 C3042 1.350 . S
C3039 C3042 1.463 . S
C3039 C3044 1.350 . S
C3039 N3047 1.427 . S
C3040 H3031 0.930 . S
C3040 C3038 1.378 . S
C3040 C3041 1.367 . S
C3041 C3040 1.367 . S
C3041 C3043 1.433 . S
C3042 C3038 1.350 . S
C3042 C3039 1.463 . S
C3042 N3046 1.427 . S
C3043 H3033 0.929 . S
C3043 C3041 1.433 . S
C3043 N3046 1.384 . S
C3044 H3035 0.929 . S
C3044 C3036 1.378 . S
C3044 C3039 1.350 . S
C3045 H3032 0.929 . S
C3045 C3037 1.433 . S
C3045 N3047 1.384 . S
N3046 C3042 1.427 . S
N3046 C3043 1.384 . S
N3047 C3039 1.427 . S
N3047 C3045 1.384 . S
H3048 C3054 0.930 . S
H3049 C3058 0.930 . S
H3050 C3063 0.929 . S
H3051 C3061 0.929 . S
H3052 C3056 0.929 . S
H3053 C3062 0.929 . S
C3054 H3048 0.930 . S
C3054 C3055 1.367 . S
C3054 C3062 1.378 . S
C3055 C3054 1.367 . S
C3055 C3063 1.433 . S
C3056 H3052 0.929 . S
C3056 C3058 1.378 . S
C3056 C3060 1.350 . S
C3057 C3060 1.463 . S
C3057 C3062 1.350 . S
C3057 N3065 1.427 . S
C3058 H3049 0.930 . S
C3058 C3056 1.378 . S
C3058 C3059 1.367 . S
C3059 C3058 1.367 . S
C3059 C3061 1.433 . S
C3060 C3056 1.350 . S
C3060 C3057 1.463 . S
C3060 N3064 1.427 . S
C3061 H3051 0.929 . S
C3061 C3059 1.433 . S
C3061 N3064 1.384 . S
C3062 H3053 0.929 . S
C3062 C3054 1.378 . S
C3062 C3057 1.350 . S
C3063 H3050 0.929 . S
C3063 C3055 1.433 . S
C3063 N3065 1.384 . S
N3064 C3060 1.427 . S
N3064 C3061 1.384 . S
N3065 C3057 1.427 . S
N3065 C3063 1.384 . S
H3066 C3072 0.930 . S
H3067 C3076 0.930 . S
H3068 C3081 0.929 . S
H3069 C3079 0.929 . S
H3070 C3074 0.929 . S
H3071 C3080 0.929 . S
C3072 H3066 0.930 . S
C3072 C3073 1.367 . S
C3072 C3080 1.378 . S
C3073 C3072 1.367 . S
C3073 C3081 1.433 . S
C3074 H3070 0.929 . S
C3074 C3076 1.378 . S
C3074 C3078 1.350 . S
C3075 C3078 1.463 . S
C3075 C3080 1.350 . S
C3075 N3083 1.427 . S
C3076 H3067 0.930 . S
C3076 C3074 1.378 . S
C3076 C3077 1.367 . S
C3077 C3076 1.367 . S
C3077 C3079 1.433 . S
C3078 C3074 1.350 . S
C3078 C3075 1.463 . S
C3078 N3082 1.427 . S
C3079 H3069 0.929 . S
C3079 C3077 1.433 . S
C3079 N3082 1.384 . S
C3080 H3071 0.929 . S
C3080 C3072 1.378 . S
C3080 C3075 1.350 . S
C3081 H3068 0.929 . S
C3081 C3073 1.433 . S
C3081 N3083 1.384 . S
N3082 C3078 1.427 . S
N3082 C3079 1.384 . S
N3083 C3075 1.427 . S
N3083 C3081 1.384 . S
H3084 C3090 0.930 . S
H3085 C3094 0.930 . S
H3086 C3099 0.929 . S
H3087 C3097 0.929 . S
H3088 C3092 0.929 . S
H3089 C3098 0.929 . S
C3090 H3084 0.930 . S
C3090 C3091 1.367 . S
C3090 C3098 1.378 . S
C3091 C3090 1.367 . S
C3091 C3099 1.433 . S
C3092 H3088 0.929 . S
C3092 C3094 1.378 . S
C3092 C3096 1.350 . S
C3093 C3096 1.463 . S
C3093 C3098 1.350 . S
C3093 N3101 1.427 . S
C3094 H3085 0.930 . S
C3094 C3092 1.378 . S
C3094 C3095 1.367 . S
C3095 C3094 1.367 . S
C3095 C3097 1.433 . S
C3096 C3092 1.350 . S
C3096 C3093 1.463 . S
C3096 N3100 1.427 . S
C3097 H3087 0.929 . S
C3097 C3095 1.433 . S
C3097 N3100 1.384 . S
C3098 H3089 0.929 . S
C3098 C3090 1.378 . S
C3098 C3093 1.350 . S
C3099 H3086 0.929 . S
C3099 C3091 1.433 . S
C3099 N3101 1.384 . S
N3100 C3096 1.427 . S
N3100 C3097 1.384 . S
N3101 C3093 1.427 . S
N3101 C3099 1.384 . S
H3102 C3108 0.930 . S
H3103 C3112 0.930 . S
H3104 C3117 0.929 . S
H3105 C3115 0.929 . S
H3106 C3110 0.929 . S
H3107 C3116 0.929 . S
C3108 H3102 0.930 . S
C3108 C3109 1.367 . S
C3108 C3116 1.378 . S
C3109 C3108 1.367 . S
C3109 C3117 1.433 . S
C3110 H3106 0.929 . S
C3110 C3112 1.378 . S
C3110 C3114 1.350 . S
C3111 C3114 1.463 . S
C3111 C3116 1.350 . S
C3111 N3119 1.427 . S
C3112 H3103 0.930 . S
C3112 C3110 1.378 . S
C3112 C3113 1.367 . S
C3113 C3112 1.367 . S
C3113 C3115 1.433 . S
C3114 C3110 1.350 . S
C3114 C3111 1.463 . S
C3114 N3118 1.427 . S
C3115 H3105 0.929 . S
C3115 C3113 1.433 . S
C3115 N3118 1.384 . S
C3116 H3107 0.929 . S
C3116 C3108 1.378 . S
C3116 C3111 1.350 . S
C3117 H3104 0.929 . S
C3117 C3109 1.433 . S
C3117 N3119 1.384 . S
N3118 C3114 1.427 . S
N3118 C3115 1.384 . S
N3119 C3111 1.427 . S
N3119 C3117 1.384 . S
H3120 C3126 0.930 . S
H3121 C3130 0.930 . S
H3122 C3135 0.929 . S
H3123 C3133 0.929 . S
H3124 C3128 0.929 . S
H3125 C3134 0.929 . S
C3126 H3120 0.930 . S
C3126 C3127 1.367 . S
C3126 C3134 1.378 . S
C3127 C3126 1.367 . S
C3127 C3135 1.433 . S
C3128 H3124 0.929 . S
C3128 C3130 1.378 . S
C3128 C3132 1.350 . S
C3129 C3132 1.463 . S
C3129 C3134 1.350 . S
C3129 N3137 1.427 . S
C3130 H3121 0.930 . S
C3130 C3128 1.378 . S
C3130 C3131 1.367 . S
C3131 C3130 1.367 . S
C3131 C3133 1.433 . S
C3132 C3128 1.350 . S
C3132 C3129 1.463 . S
C3132 N3136 1.427 . S
C3133 H3123 0.929 . S
C3133 C3131 1.433 . S
C3133 N3136 1.384 . S
C3134 H3125 0.929 . S
C3134 C3126 1.378 . S
C3134 C3129 1.350 . S
C3135 H3122 0.929 . S
C3135 C3127 1.433 . S
C3135 N3137 1.384 . S
N3136 C3132 1.427 . S
N3136 C3133 1.384 . S
N3137 C3129 1.427 . S
N3137 C3135 1.384 . S
H3138 C3144 0.930 . S
H3139 C3148 0.930 . S
H3140 C3153 0.929 . S
H3141 C3151 0.929 . S
H3142 C3146 0.929 . S
H3143 C3152 0.929 . S
C3144 H3138 0.930 . S
C3144 C3145 1.367 . S
C3144 C3152 1.378 . S
C3145 C3144 1.367 . S
C3145 C3153 1.433 . S
C3146 H3142 0.929 . S
C3146 C3148 1.378 . S
C3146 C3150 1.350 . S
C3147 C3150 1.463 . S
C3147 C3152 1.350 . S
C3147 N3155 1.427 . S
C3148 H3139 0.930 . S
C3148 C3146 1.378 . S
C3148 C3149 1.367 . S
C3149 C3148 1.367 . S
C3149 C3151 1.433 . S
C3150 C3146 1.350 . S
C3150 C3147 1.463 . S
C3150 N3154 1.427 . S
C3151 H3141 0.929 . S
C3151 C3149 1.433 . S
C3151 N3154 1.384 . S
C3152 H3143 0.929 . S
C3152 C3144 1.378 . S
C3152 C3147 1.350 . S
C3153 H3140 0.929 . S
C3153 C3145 1.433 . S
C3153 N3155 1.384 . S
N3154 C3150 1.427 . S
N3154 C3151 1.384 . S
N3155 C3147 1.427 . S
N3155 C3153 1.384 . S
H3156 C3162 0.930 . S
H3157 C3166 0.930 . S
H3158 C3171 0.929 . S
H3159 C3169 0.929 . S
H3160 C3164 0.929 . S
H3161 C3170 0.929 . S
C3162 H3156 0.930 . S
C3162 C3163 1.367 . S
C3162 C3170 1.378 . S
C3163 C3162 1.367 . S
C3163 C3171 1.433 . S
C3164 H3160 0.929 . S
C3164 C3166 1.378 . S
C3164 C3168 1.350 . S
C3165 C3168 1.463 . S
C3165 C3170 1.350 . S
C3165 N3173 1.427 . S
C3166 H3157 0.930 . S
C3166 C3164 1.378 . S
C3166 C3167 1.367 . S
C3167 C3166 1.367 . S
C3167 C3169 1.433 . S
C3168 C3164 1.350 . S
C3168 C3165 1.463 . S
C3168 N3172 1.427 . S
C3169 H3159 0.929 . S
C3169 C3167 1.433 . S
C3169 N3172 1.384 . S
C3170 H3161 0.929 . S
C3170 C3162 1.378 . S
C3170 C3165 1.350 . S
C3171 H3158 0.929 . S
C3171 C3163 1.433 . S
C3171 N3173 1.384 . S
N3172 C3168 1.427 . S
N3172 C3169 1.384 . S
N3173 C3165 1.427 . S
N3173 C3171 1.384 . S
H3174 C3180 0.930 . S
H3175 C3184 0.930 . S
H3176 C3189 0.929 . S
H3177 C3187 0.929 . S
H3178 C3182 0.929 . S
H3179 C3188 0.929 . S
C3180 H3174 0.930 . S
C3180 C3181 1.367 . S
C3180 C3188 1.378 . S
C3181 C3180 1.367 . S
C3181 C3189 1.433 . S
C3182 H3178 0.929 . S
C3182 C3184 1.378 . S
C3182 C3186 1.350 . S
C3183 C3186 1.463 . S
C3183 C3188 1.350 . S
C3183 N3191 1.427 . S
C3184 H3175 0.930 . S
C3184 C3182 1.378 . S
C3184 C3185 1.367 . S
C3185 C3184 1.367 . S
C3185 C3187 1.433 . S
C3186 C3182 1.350 . S
C3186 C3183 1.463 . S
C3186 N3190 1.427 . S
C3187 H3177 0.929 . S
C3187 C3185 1.433 . S
C3187 N3190 1.384 . S
C3188 H3179 0.929 . S
C3188 C3180 1.378 . S
C3188 C3183 1.350 . S
C3189 H3176 0.929 . S
C3189 C3181 1.433 . S
C3189 N3191 1.384 . S
N3190 C3186 1.427 . S
N3190 C3187 1.384 . S
N3191 C3183 1.427 . S
N3191 C3189 1.384 . S
H3192 C3198 0.930 . S
H3193 C3202 0.930 . S
H3194 C3207 0.929 . S
H3195 C3205 0.929 . S
H3196 C3200 0.929 . S
H3197 C3206 0.929 . S
C3198 H3192 0.930 . S
C3198 C3199 1.367 . S
C3198 C3206 1.378 . S
C3199 C3198 1.367 . S
C3199 C3207 1.433 . S
C3200 H3196 0.929 . S
C3200 C3202 1.378 . S
C3200 C3204 1.350 . S
C3201 C3204 1.463 . S
C3201 C3206 1.350 . S
C3201 N3209 1.427 . S
C3202 H3193 0.930 . S
C3202 C3200 1.378 . S
C3202 C3203 1.367 . S
C3203 C3202 1.367 . S
C3203 C3205 1.433 . S
C3204 C3200 1.350 . S
C3204 C3201 1.463 . S
C3204 N3208 1.427 . S
C3205 H3195 0.929 . S
C3205 C3203 1.433 . S
C3205 N3208 1.384 . S
C3206 H3197 0.929 . S
C3206 C3198 1.378 . S
C3206 C3201 1.350 . S
C3207 H3194 0.929 . S
C3207 C3199 1.433 . S
C3207 N3209 1.384 . S
N3208 C3204 1.427 . S
N3208 C3205 1.384 . S
N3209 C3201 1.427 . S
N3209 C3207 1.384 . S
H3210 C3216 0.930 . S
H3211 C3220 0.930 . S
H3212 C3225 0.929 . S
H3213 C3223 0.929 . S
H3214 C3218 0.929 . S
H3215 C3224 0.929 . S
C3216 H3210 0.930 . S
C3216 C3217 1.367 . S
C3216 C3224 1.378 . S
C3217 C3216 1.367 . S
C3217 C3225 1.433 . S
C3218 H3214 0.929 . S
C3218 C3220 1.378 . S
C3218 C3222 1.350 . S
C3219 C3222 1.463 . S
C3219 C3224 1.350 . S
C3219 N3227 1.427 . S
C3220 H3211 0.930 . S
C3220 C3218 1.378 . S
C3220 C3221 1.367 . S
C3221 C3220 1.367 . S
C3221 C3223 1.433 . S
C3222 C3218 1.350 . S
C3222 C3219 1.463 . S
C3222 N3226 1.427 . S
C3223 H3213 0.929 . S
C3223 C3221 1.433 . S
C3223 N3226 1.384 . S
C3224 H3215 0.929 . S
C3224 C3216 1.378 . S
C3224 C3219 1.350 . S
C3225 H3212 0.929 . S
C3225 C3217 1.433 . S
C3225 N3227 1.384 . S
N3226 C3222 1.427 . S
N3226 C3223 1.384 . S
N3227 C3219 1.427 . S
N3227 C3225 1.384 . S
H3228 C3234 0.930 . S
H3229 C3238 0.930 . S
H3230 C3243 0.929 . S
H3231 C3241 0.929 . S
H3232 C3236 0.929 . S
H3233 C3242 0.929 . S
C3234 H3228 0.930 . S
C3234 C3235 1.367 . S
C3234 C3242 1.378 . S
C3235 C3234 1.367 . S
C3235 C3243 1.433 . S
C3236 H3232 0.929 . S
C3236 C3238 1.378 . S
C3236 C3240 1.350 . S
C3237 C3240 1.463 . S
C3237 C3242 1.350 . S
C3237 N3245 1.427 . S
C3238 H3229 0.930 . S
C3238 C3236 1.378 . S
C3238 C3239 1.367 . S
C3239 C3238 1.367 . S
C3239 C3241 1.433 . S
C3240 C3236 1.350 . S
C3240 C3237 1.463 . S
C3240 N3244 1.427 . S
C3241 H3231 0.929 . S
C3241 C3239 1.433 . S
C3241 N3244 1.384 . S
C3242 H3233 0.929 . S
C3242 C3234 1.378 . S
C3242 C3237 1.350 . S
C3243 H3230 0.929 . S
C3243 C3235 1.433 . S
C3243 N3245 1.384 . S
N3244 C3240 1.427 . S
N3244 C3241 1.384 . S
N3245 C3237 1.427 . S
N3245 C3243 1.384 . S
H3246 C3252 0.930 . S
H3247 C3256 0.930 . S
H3248 C3261 0.929 . S
H3249 C3259 0.929 . S
H3250 C3254 0.929 . S
H3251 C3260 0.929 . S
C3252 H3246 0.930 . S
C3252 C3253 1.367 . S
C3252 C3260 1.378 . S
C3253 C3252 1.367 . S
C3253 C3261 1.433 . S
C3254 H3250 0.929 . S
C3254 C3256 1.378 . S
C3254 C3258 1.350 . S
C3255 C3258 1.463 . S
C3255 C3260 1.350 . S
C3255 N3263 1.427 . S
C3256 H3247 0.930 . S
C3256 C3254 1.378 . S
C3256 C3257 1.367 . S
C3257 C3256 1.367 . S
C3257 C3259 1.433 . S
C3258 C3254 1.350 . S
C3258 C3255 1.463 . S
C3258 N3262 1.427 . S
C3259 H3249 0.929 . S
C3259 C3257 1.433 . S
C3259 N3262 1.384 . S
C3260 H3251 0.929 . S
C3260 C3252 1.378 . S
C3260 C3255 1.350 . S
C3261 H3248 0.929 . S
C3261 C3253 1.433 . S
C3261 N3263 1.384 . S
N3262 C3258 1.427 . S
N3262 C3259 1.384 . S
N3263 C3255 1.427 . S
N3263 C3261 1.384 . S
H3264 C3270 0.930 . S
H3265 C3274 0.930 . S
H3266 C3279 0.929 . S
H3267 C3277 0.929 . S
H3268 C3272 0.929 1_655 S
H3269 C3278 0.929 1_455 S
C3270 H3264 0.930 . S
C3270 C3271 1.367 . S
C3270 C3278 1.378 . S
C3271 C3270 1.367 . S
C3271 C3279 1.433 . S
C3272 H3268 0.929 1_455 S
C3272 C3274 1.378 . S
C3272 C3276 1.350 . S
C3273 C3276 1.463 1_655 S
C3273 C3278 1.350 . S
C3273 N3281 1.427 . S
C3274 H3265 0.930 . S
C3274 C3272 1.378 . S
C3274 C3275 1.367 . S
C3275 C3274 1.367 . S
C3275 C3277 1.433 . S
C3276 C3272 1.350 . S
C3276 C3273 1.463 1_455 S
C3276 N3280 1.427 . S
C3277 H3267 0.929 . S
C3277 C3275 1.433 . S
C3277 N3280 1.384 . S
C3278 H3269 0.929 1_655 S
C3278 C3270 1.378 . S
C3278 C3273 1.350 . S
C3279 H3266 0.929 . S
C3279 C3271 1.433 . S
C3279 N3281 1.384 . S
N3280 C3276 1.427 . S
N3280 C3277 1.384 . S
N3281 C3273 1.427 . S
N3281 C3279 1.384 . S
H3282 C3288 0.930 . S
H3283 C3292 0.930 . S
H3284 C3297 0.929 . S
H3285 C3295 0.929 . S
H3286 C3290 0.929 . S
H3287 C3296 0.929 . S
C3288 H3282 0.930 . S
C3288 C3289 1.367 . S
C3288 C3296 1.378 . S
C3289 C3288 1.367 . S
C3289 C3297 1.433 . S
C3290 H3286 0.929 . S
C3290 C3292 1.378 . S
C3290 C3294 1.350 . S
C3291 C3294 1.463 1_565 S
C3291 C3296 1.350 . S
C3291 N3299 1.427 . S
C3292 H3283 0.930 . S
C3292 C3290 1.378 . S
C3292 C3293 1.367 . S
C3293 C3292 1.367 . S
C3293 C3295 1.433 . S
C3294 C3290 1.350 . S
C3294 C3291 1.463 1_545 S
C3294 N3298 1.427 . S
C3295 H3285 0.929 . S
C3295 C3293 1.433 . S
C3295 N3298 1.384 . S
C3296 H3287 0.929 . S
C3296 C3288 1.378 . S
C3296 C3291 1.350 . S
C3297 H3284 0.929 . S
C3297 C3289 1.433 . S
C3297 N3299 1.384 . S
N3298 C3294 1.427 . S
N3298 C3295 1.384 . S
N3299 C3291 1.427 . S
N3299 C3297 1.384 . S
H3300 C3306 0.930 . S
H3301 C3310 0.930 . S
H3302 C3315 0.929 . S
H3303 C3313 0.929 . S
H3304 C3308 0.929 . S
H3305 C3314 0.929 . S
C3306 H3300 0.930 . S
C3306 C3307 1.367 1_455 S
C3306 C3314 1.378 . S
C3307 C3306 1.367 1_655 S
C3307 C3315 1.433 . S
C3308 H3304 0.929 . S
C3308 C3310 1.378 . S
C3308 C3312 1.350 1_655 S
C3309 C3312 1.463 1_655 S
C3309 C3314 1.350 1_655 S
C3309 N3317 1.427 . S
C3310 H3301 0.930 . S
C3310 C3308 1.378 . S
C3310 C3311 1.367 1_655 S
C3311 C3310 1.367 1_455 S
C3311 C3313 1.433 . S
C3312 C3308 1.350 1_455 S
C3312 C3309 1.463 1_455 S
C3312 N3316 1.427 . S
C3313 H3303 0.929 . S
C3313 C3311 1.433 . S
C3313 N3316 1.384 . S
C3314 H3305 0.929 . S
C3314 C3306 1.378 . S
C3314 C3309 1.350 1_455 S
C3315 H3302 0.929 . S
C3315 C3307 1.433 . S
C3315 N3317 1.384 . S
N3316 C3312 1.427 . S
N3316 C3313 1.384 . S
N3317 C3309 1.427 . S
N3317 C3315 1.384 . S
H3318 C3324 0.930 . S
H3319 C3328 0.930 . S
H3320 C3333 0.929 . S
H3321 C3331 0.929 . S
H3322 C3326 0.929 . S
H3323 C3332 0.929 . S
C3324 H3318 0.930 . S
C3324 C3325 1.367 . S
C3324 C3332 1.378 . S
C3325 C3324 1.367 . S
C3325 C3333 1.433 1_545 S
C3326 H3322 0.929 . S
C3326 C3328 1.378 . S
C3326 C3330 1.350 . S
C3327 C3330 1.463 1_545 S
C3327 C3332 1.350 . S
C3327 N3335 1.427 1_545 S
C3328 H3319 0.930 . S
C3328 C3326 1.378 . S
C3328 C3329 1.367 . S
C3329 C3328 1.367 . S
C3329 C3331 1.433 1_565 S
C3330 C3326 1.350 . S
C3330 C3327 1.463 1_565 S
C3330 N3334 1.427 1_565 S
C3331 H3321 0.929 . S
C3331 C3329 1.433 1_545 S
C3331 N3334 1.384 . S
C3332 H3323 0.929 . S
C3332 C3324 1.378 . S
C3332 C3327 1.350 . S
C3333 H3320 0.929 . S
C3333 C3325 1.433 1_565 S
C3333 N3335 1.384 . S
N3334 C3330 1.427 1_545 S
N3334 C3331 1.384 . S
N3335 C3327 1.427 1_565 S
N3335 C3333 1.384 . S
H3336 C3342 0.930 . S
H3337 C3346 0.930 . S
H3338 C3351 0.929 . S
H3339 C3349 0.929 . S
H3340 C3344 0.929 . S
H3341 C3350 0.929 . S
C3342 H3336 0.930 . S
C3342 C3343 1.367 . S
C3342 C3350 1.378 . S
C3343 C3342 1.367 . S
C3343 C3351 1.433 1_455 S
C3344 H3340 0.929 . S
C3344 C3346 1.378 . S
C3344 C3348 1.350 . S
C3345 C3348 1.463 1_455 S
C3345 C3350 1.350 . S
C3345 N3353 1.427 1_455 S
C3346 H3337 0.930 . S
C3346 C3344 1.378 . S
C3346 C3347 1.367 . S
C3347 C3346 1.367 . S
C3347 C3349 1.433 1_655 S
C3348 C3344 1.350 . S
C3348 C3345 1.463 1_655 S
C3348 N3352 1.427 1_655 S
C3349 H3339 0.929 . S
C3349 C3347 1.433 1_455 S
C3349 N3352 1.384 . S
C3350 H3341 0.929 . S
C3350 C3342 1.378 . S
C3350 C3345 1.350 . S
C3351 H3338 0.929 . S
C3351 C3343 1.433 1_655 S
C3351 N3353 1.384 . S
N3352 C3348 1.427 1_455 S
N3352 C3349 1.384 . S
N3353 C3345 1.427 1_655 S
N3353 C3351 1.384 . S
H3354 C3360 0.930 . S
H3355 C3364 0.930 . S
H3356 C3369 0.929 . S
H3357 C3367 0.929 . S
H3358 C3362 0.929 . S
H3359 C3368 0.929 . S
C3360 H3354 0.930 . S
C3360 C3361 1.367 . S
C3360 C3368 1.378 . S
C3361 C3360 1.367 . S
C3361 C3369 1.433 1_565 S
C3362 H3358 0.929 . S
C3362 C3364 1.378 . S
C3362 C3366 1.350 . S
C3363 C3366 1.463 1_565 S
C3363 C3368 1.350 . S
C3363 N3371 1.427 1_565 S
C3364 H3355 0.930 . S
C3364 C3362 1.378 . S
C3364 C3365 1.367 . S
C3365 C3364 1.367 . S
C3365 C3367 1.433 1_545 S
C3366 C3362 1.350 . S
C3366 C3363 1.463 1_545 S
C3366 N3370 1.427 1_545 S
C3367 H3357 0.929 . S
C3367 C3365 1.433 1_565 S
C3367 N3370 1.384 . S
C3368 H3359 0.929 . S
C3368 C3360 1.378 . S
C3368 C3363 1.350 . S
C3369 H3356 0.929 . S
C3369 C3361 1.433 1_545 S
C3369 N3371 1.384 . S
N3370 C3366 1.427 1_565 S
N3370 C3367 1.384 . S
N3371 C3363 1.427 1_545 S
N3371 C3369 1.384 . S
H3372 C3378 0.930 . S
H3373 C3382 0.930 . S
H3374 C3387 0.929 . S
H3375 C3385 0.929 . S
H3376 C3380 0.929 . S
H3377 C3386 0.929 . S
C3378 H3372 0.930 . S
C3378 C3379 1.367 1_655 S
C3378 C3386 1.378 . S
C3379 C3378 1.367 1_455 S
C3379 C3387 1.433 . S
C3380 H3376 0.929 . S
C3380 C3382 1.378 . S
C3380 C3384 1.350 1_455 S
C3381 C3384 1.463 1_455 S
C3381 C3386 1.350 1_455 S
C3381 N3389 1.427 . S
C3382 H3373 0.930 . S
C3382 C3380 1.378 . S
C3382 C3383 1.367 1_455 S
C3383 C3382 1.367 1_655 S
C3383 C3385 1.433 . S
C3384 C3380 1.350 1_655 S
C3384 C3381 1.463 1_655 S
C3384 N3388 1.427 . S
C3385 H3375 0.929 . S
C3385 C3383 1.433 . S
C3385 N3388 1.384 . S
C3386 H3377 0.929 . S
C3386 C3378 1.378 . S
C3386 C3381 1.350 1_655 S
C3387 H3374 0.929 . S
C3387 C3379 1.433 . S
C3387 N3389 1.384 . S
N3388 C3384 1.427 . S
N3388 C3385 1.384 . S
N3389 C3381 1.427 . S
N3389 C3387 1.384 . S
H3390 C3396 0.930 . S
H3391 C3400 0.930 . S
H3392 C3405 0.929 . S
H3393 C3403 0.929 . S
H3394 C3398 0.929 . S
H3395 C3404 0.929 . S
C3396 H3390 0.930 . S
C3396 C3397 1.367 . S
C3396 C3404 1.378 . S
C3397 C3396 1.367 . S
C3397 C3405 1.433 1_545 S
C3398 H3394 0.929 . S
C3398 C3400 1.378 . S
C3398 C3402 1.350 . S
C3399 C3402 1.463 1_545 S
C3399 C3404 1.350 . S
C3399 N3407 1.427 1_545 S
C3400 H3391 0.930 . S
C3400 C3398 1.378 . S
C3400 C3401 1.367 . S
C3401 C3400 1.367 . S
C3401 C3403 1.433 1_565 S
C3402 C3398 1.350 . S
C3402 C3399 1.463 1_565 S
C3402 N3406 1.427 1_565 S
C3403 H3393 0.929 . S
C3403 C3401 1.433 1_545 S
C3403 N3406 1.384 . S
C3404 H3395 0.929 . S
C3404 C3396 1.378 . S
C3404 C3399 1.350 . S
C3405 H3392 0.929 . S
C3405 C3397 1.433 1_565 S
C3405 N3407 1.384 . S
N3406 C3402 1.427 1_545 S
N3406 C3403 1.384 . S
N3407 C3399 1.427 1_565 S
N3407 C3405 1.384 . S
H3408 C3414 0.930 . S
H3409 C3418 0.930 . S
H3410 C3423 0.929 . S
H3411 C3421 0.929 . S
H3412 C3416 0.929 . S
H3413 C3422 0.929 . S
C3414 H3408 0.930 . S
C3414 C3415 1.367 1_554 S
C3414 C3422 1.378 . S
C3415 C3414 1.367 1_556 S
C3415 C3423 1.433 . S
C3416 H3412 0.929 . S
C3416 C3418 1.378 . S
C3416 C3420 1.350 1_556 S
C3417 C3420 1.463 1_556 S
C3417 C3422 1.350 1_556 S
C3417 N3425 1.427 . S
C3418 H3409 0.930 . S
C3418 C3416 1.378 . S
C3418 C3419 1.367 1_556 S
C3419 C3418 1.367 1_554 S
C3419 C3421 1.433 . S
C3420 C3416 1.350 1_554 S
C3420 C3417 1.463 1_554 S
C3420 N3424 1.427 . S
C3421 H3411 0.929 . S
C3421 C3419 1.433 . S
C3421 N3424 1.384 . S
C3422 H3413 0.929 . S
C3422 C3414 1.378 . S
C3422 C3417 1.350 1_554 S
C3423 H3410 0.929 . S
C3423 C3415 1.433 . S
C3423 N3425 1.384 . S
N3424 C3420 1.427 . S
N3424 C3421 1.384 . S
N3425 C3417 1.427 . S
N3425 C3423 1.384 . S
H3426 C3432 0.923 1_556 S
H3427 C3436 0.924 1_554 S
H3428 C3441 0.929 . S
H3429 C3439 0.929 . S
H3430 C3434 0.929 . S
H3431 C3440 0.929 . S
C3432 H3426 0.923 1_554 S
C3432 C3433 1.381 . S
C3432 C3440 1.372 1_554 S
C3433 C3432 1.381 . S
C3433 C3441 1.433 . S
C3434 H3430 0.929 . S
C3434 C3436 1.373 1_554 S
C3434 C3438 1.350 1_554 S
C3435 C3438 1.463 1_554 S
C3435 C3440 1.350 1_554 S
C3435 N3443 1.427 . S
C3436 H3427 0.924 1_556 S
C3436 C3434 1.373 1_556 S
C3436 C3437 1.378 . S
C3437 C3436 1.378 . S
C3437 C3439 1.433 . S
C3438 C3434 1.350 1_556 S
C3438 C3435 1.463 1_556 S
C3438 N3442 1.427 . S
C3439 H3429 0.929 . S
C3439 C3437 1.433 . S
C3439 N3442 1.384 . S
C3440 H3431 0.929 . S
C3440 C3432 1.372 1_556 S
C3440 C3435 1.350 1_556 S
C3441 H3428 0.929 . S
C3441 C3433 1.433 . S
C3441 N3443 1.384 . S
N3442 C3438 1.427 . S
N3442 C3439 1.384 . S
N3443 C3435 1.427 . S
N3443 C3441 1.384 . S
H3444 C3450 0.930 . S
H3445 C3454 0.930 . S
H3446 C3459 0.929 . S
H3447 C3457 0.929 . S
H3448 C3452 0.929 . S
H3449 C3458 0.929 . S
C3450 H3444 0.930 . S
C3450 C3451 1.367 . S
C3450 C3458 1.378 . S
C3451 C3450 1.367 . S
C3451 C3459 1.433 1_554 S
C3452 H3448 0.929 . S
C3452 C3454 1.378 . S
C3452 C3456 1.350 . S
C3453 C3456 1.463 1_554 S
C3453 C3458 1.350 . S
C3453 N3461 1.427 1_554 S
C3454 H3445 0.930 . S
C3454 C3452 1.378 . S
C3454 C3455 1.367 . S
C3455 C3454 1.367 . S
C3455 C3457 1.433 1_556 S
C3456 C3452 1.350 . S
C3456 C3453 1.463 1_556 S
C3456 N3460 1.427 1_556 S
C3457 H3447 0.929 . S
C3457 C3455 1.433 1_554 S
C3457 N3460 1.384 . S
C3458 H3449 0.929 . S
C3458 C3450 1.378 . S
C3458 C3453 1.350 . S
C3459 H3446 0.929 . S
C3459 C3451 1.433 1_556 S
C3459 N3461 1.384 . S
N3460 C3456 1.427 1_554 S
N3460 C3457 1.384 . S
N3461 C3453 1.427 1_556 S
N3461 C3459 1.384 . S
H3462 C3468 0.930 . S
H3463 C3472 0.930 . S
H3464 C3477 0.929 . S
H3465 C3475 0.929 . S
H3466 C3470 0.929 . S
H3467 C3476 0.929 . S
C3468 H3462 0.930 . S
C3468 C3469 1.367 . S
C3468 C3476 1.378 . S
C3469 C3468 1.367 . S
C3469 C3477 1.433 1_556 S
C3470 H3466 0.929 . S
C3470 C3472 1.378 . S
C3470 C3474 1.350 . S
C3471 C3474 1.463 1_556 S
C3471 C3476 1.350 . S
C3471 N3479 1.427 1_556 S
C3472 H3463 0.930 . S
C3472 C3470 1.378 . S
C3472 C3473 1.367 . S
C3473 C3472 1.367 . S
C3473 C3475 1.433 1_554 S
C3474 C3470 1.350 . S
C3474 C3471 1.463 1_554 S
C3474 N3478 1.427 1_554 S
C3475 H3465 0.929 . S
C3475 C3473 1.433 1_556 S
C3475 N3478 1.384 . S
C3476 H3467 0.929 . S
C3476 C3468 1.378 . S
C3476 C3471 1.350 . S
C3477 H3464 0.929 . S
C3477 C3469 1.433 1_554 S
C3477 N3479 1.384 . S
N3478 C3474 1.427 1_556 S
N3478 C3475 1.384 . S
N3479 C3471 1.427 1_554 S
N3479 C3477 1.384 . S
H3480 C3486 0.930 . S
H3481 C3490 0.930 . S
H3482 C3495 0.929 . S
H3483 C3493 0.929 . S
H3484 C3488 0.929 . S
H3485 C3494 0.929 . S
C3486 H3480 0.930 . S
C3486 C3487 1.367 . S
C3486 C3494 1.378 . S
C3487 C3486 1.367 . S
C3487 C3495 1.433 . S
C3488 H3484 0.929 . S
C3488 C3490 1.378 . S
C3488 C3492 1.350 . S
C3489 C3492 1.463 . S
C3489 C3494 1.350 . S
C3489 N3497 1.427 . S
C3490 H3481 0.930 . S
C3490 C3488 1.378 . S
C3490 C3491 1.367 . S
C3491 C3490 1.367 . S
C3491 C3493 1.433 . S
C3492 C3488 1.350 . S
C3492 C3489 1.463 . S
C3492 N3496 1.427 . S
C3493 H3483 0.929 . S
C3493 C3491 1.433 . S
C3493 N3496 1.384 . S
C3494 H3485 0.929 . S
C3494 C3486 1.378 . S
C3494 C3489 1.350 . S
C3495 H3482 0.929 . S
C3495 C3487 1.433 . S
C3495 N3497 1.384 . S
N3496 C3492 1.427 . S
N3496 C3493 1.384 . S
N3497 C3489 1.427 . S
N3497 C3495 1.384 . S
H3498 C3504 0.930 . S
H3499 C3508 0.930 . S
H3500 C3513 0.929 . S
H3501 C3511 0.929 . S
H3502 C3506 0.929 . S
H3503 C3512 0.929 . S
C3504 H3498 0.930 . S
C3504 C3505 1.367 . S
C3504 C3512 1.378 . S
C3505 C3504 1.367 . S
C3505 C3513 1.433 . S
C3506 H3502 0.929 . S
C3506 C3508 1.378 . S
C3506 C3510 1.350 . S
C3507 C3510 1.463 . S
C3507 C3512 1.350 . S
C3507 N3515 1.427 . S
C3508 H3499 0.930 . S
C3508 C3506 1.378 . S
C3508 C3509 1.367 . S
C3509 C3508 1.367 . S
C3509 C3511 1.433 . S
C3510 C3506 1.350 . S
C3510 C3507 1.463 . S
C3510 N3514 1.427 . S
C3511 H3501 0.929 . S
C3511 C3509 1.433 . S
C3511 N3514 1.384 . S
C3512 H3503 0.929 . S
C3512 C3504 1.378 . S
C3512 C3507 1.350 . S
C3513 H3500 0.929 . S
C3513 C3505 1.433 . S
C3513 N3515 1.384 . S
N3514 C3510 1.427 . S
N3514 C3511 1.384 . S
N3515 C3507 1.427 . S
N3515 C3513 1.384 . S
H3516 C3522 0.930 . S
H3517 C3526 0.930 . S
H3518 C3531 0.929 . S
H3519 C3529 0.929 . S
H3520 C3524 0.929 . S
H3521 C3530 0.929 . S
C3522 H3516 0.930 . S
C3522 C3523 1.367 . S
C3522 C3530 1.378 . S
C3523 C3522 1.367 . S
C3523 C3531 1.433 . S
C3524 H3520 0.929 . S
C3524 C3526 1.378 . S
C3524 C3528 1.350 . S
C3525 C3528 1.463 . S
C3525 C3530 1.350 . S
C3525 N3533 1.427 . S
C3526 H3517 0.930 . S
C3526 C3524 1.378 . S
C3526 C3527 1.367 . S
C3527 C3526 1.367 . S
C3527 C3529 1.433 . S
C3528 C3524 1.350 . S
C3528 C3525 1.463 . S
C3528 N3532 1.427 . S
C3529 H3519 0.929 . S
C3529 C3527 1.433 . S
C3529 N3532 1.384 . S
C3530 H3521 0.929 . S
C3530 C3522 1.378 . S
C3530 C3525 1.350 . S
C3531 H3518 0.929 . S
C3531 C3523 1.433 . S
C3531 N3533 1.384 . S
N3532 C3528 1.427 . S
N3532 C3529 1.384 . S
N3533 C3525 1.427 . S
N3533 C3531 1.384 . S
H3534 C3540 0.930 . S
H3535 C3544 0.930 . S
H3536 C3549 0.929 . S
H3537 C3547 0.929 . S
H3538 C3542 0.929 . S
H3539 C3548 0.929 . S
C3540 H3534 0.930 . S
C3540 C3541 1.367 . S
C3540 C3548 1.378 . S
C3541 C3540 1.367 . S
C3541 C3549 1.433 . S
C3542 H3538 0.929 . S
C3542 C3544 1.378 . S
C3542 C3546 1.350 . S
C3543 C3546 1.463 . S
C3543 C3548 1.350 . S
C3543 N3551 1.427 . S
C3544 H3535 0.930 . S
C3544 C3542 1.378 . S
C3544 C3545 1.367 . S
C3545 C3544 1.367 . S
C3545 C3547 1.433 . S
C3546 C3542 1.350 . S
C3546 C3543 1.463 . S
C3546 N3550 1.427 . S
C3547 H3537 0.929 . S
C3547 C3545 1.433 . S
C3547 N3550 1.384 . S
C3548 H3539 0.929 . S
C3548 C3540 1.378 . S
C3548 C3543 1.350 . S
C3549 H3536 0.929 . S
C3549 C3541 1.433 . S
C3549 N3551 1.384 . S
N3550 C3546 1.427 . S
N3550 C3547 1.384 . S
N3551 C3543 1.427 . S
N3551 C3549 1.384 . S
H3552 C3558 0.930 . S
H3553 C3562 0.930 . S
H3554 C3567 0.929 . S
H3555 C3565 0.929 . S
H3556 C3560 0.929 . S
H3557 C3566 0.929 . S
C3558 H3552 0.930 . S
C3558 C3559 1.367 . S
C3558 C3566 1.378 . S
C3559 C3558 1.367 . S
C3559 C3567 1.433 . S
C3560 H3556 0.929 . S
C3560 C3562 1.378 . S
C3560 C3564 1.350 . S
C3561 C3564 1.463 . S
C3561 C3566 1.350 . S
C3561 N3569 1.427 . S
C3562 H3553 0.930 . S
C3562 C3560 1.378 . S
C3562 C3563 1.367 . S
C3563 C3562 1.367 . S
C3563 C3565 1.433 . S
C3564 C3560 1.350 . S
C3564 C3561 1.463 . S
C3564 N3568 1.427 . S
C3565 H3555 0.929 . S
C3565 C3563 1.433 . S
C3565 N3568 1.384 . S
C3566 H3557 0.929 . S
C3566 C3558 1.378 . S
C3566 C3561 1.350 . S
C3567 H3554 0.929 . S
C3567 C3559 1.433 . S
C3567 N3569 1.384 . S
N3568 C3564 1.427 . S
N3568 C3565 1.384 . S
N3569 C3561 1.427 . S
N3569 C3567 1.384 . S
H3570 C3576 0.930 . S
H3571 C3580 0.930 . S
H3572 C3585 0.929 . S
H3573 C3583 0.929 . S
H3574 C3578 0.929 . S
H3575 C3584 0.929 . S
C3576 H3570 0.930 . S
C3576 C3577 1.367 . S
C3576 C3584 1.378 . S
C3577 C3576 1.367 . S
C3577 C3585 1.433 . S
C3578 H3574 0.929 . S
C3578 C3580 1.378 . S
C3578 C3582 1.350 . S
C3579 C3582 1.463 . S
C3579 C3584 1.350 . S
C3579 N3587 1.427 . S
C3580 H3571 0.930 . S
C3580 C3578 1.378 . S
C3580 C3581 1.367 . S
C3581 C3580 1.367 . S
C3581 C3583 1.433 . S
C3582 C3578 1.350 . S
C3582 C3579 1.463 . S
C3582 N3586 1.427 . S
C3583 H3573 0.929 . S
C3583 C3581 1.433 . S
C3583 N3586 1.384 . S
C3584 H3575 0.929 . S
C3584 C3576 1.378 . S
C3584 C3579 1.350 . S
C3585 H3572 0.929 . S
C3585 C3577 1.433 . S
C3585 N3587 1.384 . S
N3586 C3582 1.427 . S
N3586 C3583 1.384 . S
N3587 C3579 1.427 . S
N3587 C3585 1.384 . S
H3588 C3594 0.930 . S
H3589 C3598 0.930 . S
H3590 C3603 0.929 . S
H3591 C3601 0.929 . S
H3592 C3596 0.929 . S
H3593 C3602 0.929 . S
C3594 H3588 0.930 . S
C3594 C3595 1.367 . S
C3594 C3602 1.378 . S
C3595 C3594 1.367 . S
C3595 C3603 1.433 . S
C3596 H3592 0.929 . S
C3596 C3598 1.378 . S
C3596 C3600 1.350 . S
C3597 C3600 1.463 . S
C3597 C3602 1.350 . S
C3597 N3605 1.427 . S
C3598 H3589 0.930 . S
C3598 C3596 1.378 . S
C3598 C3599 1.367 . S
C3599 C3598 1.367 . S
C3599 C3601 1.433 . S
C3600 C3596 1.350 . S
C3600 C3597 1.463 . S
C3600 N3604 1.427 . S
C3601 H3591 0.929 . S
C3601 C3599 1.433 . S
C3601 N3604 1.384 . S
C3602 H3593 0.929 . S
C3602 C3594 1.378 . S
C3602 C3597 1.350 . S
C3603 H3590 0.929 . S
C3603 C3595 1.433 . S
C3603 N3605 1.384 . S
N3604 C3600 1.427 . S
N3604 C3601 1.384 . S
N3605 C3597 1.427 . S
N3605 C3603 1.384 . S
H3606 C3612 0.930 . S
H3607 C3616 0.930 . S
H3608 C3621 0.929 . S
H3609 C3619 0.929 . S
H3610 C3614 0.929 . S
H3611 C3620 0.929 . S
C3612 H3606 0.930 . S
C3612 C3613 1.367 . S
C3612 C3620 1.378 . S
C3613 C3612 1.367 . S
C3613 C3621 1.433 . S
C3614 H3610 0.929 . S
C3614 C3616 1.378 . S
C3614 C3618 1.350 . S
C3615 C3618 1.463 . S
C3615 C3620 1.350 . S
C3615 N3623 1.427 . S
C3616 H3607 0.930 . S
C3616 C3614 1.378 . S
C3616 C3617 1.367 . S
C3617 C3616 1.367 . S
C3617 C3619 1.433 . S
C3618 C3614 1.350 . S
C3618 C3615 1.463 . S
C3618 N3622 1.427 . S
C3619 H3609 0.929 . S
C3619 C3617 1.433 . S
C3619 N3622 1.384 . S
C3620 H3611 0.929 . S
C3620 C3612 1.378 . S
C3620 C3615 1.350 . S
C3621 H3608 0.929 . S
C3621 C3613 1.433 . S
C3621 N3623 1.384 . S
N3622 C3618 1.427 . S
N3622 C3619 1.384 . S
N3623 C3615 1.427 . S
N3623 C3621 1.384 . S
H3624 C3630 0.930 . S
H3625 C3634 0.930 . S
H3626 C3639 0.929 . S
H3627 C3637 0.929 . S
H3628 C3632 0.929 . S
H3629 C3638 0.929 . S
C3630 H3624 0.930 . S
C3630 C3631 1.367 . S
C3630 C3638 1.378 . S
C3631 C3630 1.367 . S
C3631 C3639 1.433 . S
C3632 H3628 0.929 . S
C3632 C3634 1.378 . S
C3632 C3636 1.350 . S
C3633 C3636 1.463 . S
C3633 C3638 1.350 . S
C3633 N3641 1.427 . S
C3634 H3625 0.930 . S
C3634 C3632 1.378 . S
C3634 C3635 1.367 . S
C3635 C3634 1.367 . S
C3635 C3637 1.433 . S
C3636 C3632 1.350 . S
C3636 C3633 1.463 . S
C3636 N3640 1.427 . S
C3637 H3627 0.929 . S
C3637 C3635 1.433 . S
C3637 N3640 1.384 . S
C3638 H3629 0.929 . S
C3638 C3630 1.378 . S
C3638 C3633 1.350 . S
C3639 H3626 0.929 . S
C3639 C3631 1.433 . S
C3639 N3641 1.384 . S
N3640 C3636 1.427 . S
N3640 C3637 1.384 . S
N3641 C3633 1.427 . S
N3641 C3639 1.384 . S
H3642 C3648 0.930 . S
H3643 C3652 0.930 . S
H3644 C3657 0.929 . S
H3645 C3655 0.929 . S
H3646 C3650 0.929 . S
H3647 C3656 0.929 . S
C3648 H3642 0.930 . S
C3648 C3649 1.367 . S
C3648 C3656 1.378 . S
C3649 C3648 1.367 . S
C3649 C3657 1.433 . S
C3650 H3646 0.929 . S
C3650 C3652 1.378 . S
C3650 C3654 1.350 . S
C3651 C3654 1.463 . S
C3651 C3656 1.350 . S
C3651 N3659 1.427 . S
C3652 H3643 0.930 . S
C3652 C3650 1.378 . S
C3652 C3653 1.367 . S
C3653 C3652 1.367 . S
C3653 C3655 1.433 . S
C3654 C3650 1.350 . S
C3654 C3651 1.463 . S
C3654 N3658 1.427 . S
C3655 H3645 0.929 . S
C3655 C3653 1.433 . S
C3655 N3658 1.384 . S
C3656 H3647 0.929 . S
C3656 C3648 1.378 . S
C3656 C3651 1.350 . S
C3657 H3644 0.929 . S
C3657 C3649 1.433 . S
C3657 N3659 1.384 . S
N3658 C3654 1.427 . S
N3658 C3655 1.384 . S
N3659 C3651 1.427 . S
N3659 C3657 1.384 . S
H3660 C3666 0.930 . S
H3661 C3670 0.930 . S
H3662 C3675 0.929 . S
H3663 C3673 0.929 . S
H3664 C3668 0.929 . S
H3665 C3674 0.929 . S
C3666 H3660 0.930 . S
C3666 C3667 1.367 . S
C3666 C3674 1.378 . S
C3667 C3666 1.367 . S
C3667 C3675 1.433 . S
C3668 H3664 0.929 . S
C3668 C3670 1.378 . S
C3668 C3672 1.350 . S
C3669 C3672 1.463 . S
C3669 C3674 1.350 . S
C3669 N3677 1.427 . S
C3670 H3661 0.930 . S
C3670 C3668 1.378 . S
C3670 C3671 1.367 . S
C3671 C3670 1.367 . S
C3671 C3673 1.433 . S
C3672 C3668 1.350 . S
C3672 C3669 1.463 . S
C3672 N3676 1.427 . S
C3673 H3663 0.929 . S
C3673 C3671 1.433 . S
C3673 N3676 1.384 . S
C3674 H3665 0.929 . S
C3674 C3666 1.378 . S
C3674 C3669 1.350 . S
C3675 H3662 0.929 . S
C3675 C3667 1.433 . S
C3675 N3677 1.384 . S
N3676 C3672 1.427 . S
N3676 C3673 1.384 . S
N3677 C3669 1.427 . S
N3677 C3675 1.384 . S
H3678 C3684 0.930 . S
H3679 C3688 0.930 . S
H3680 C3693 0.929 . S
H3681 C3691 0.929 . S
H3682 C3686 0.929 . S
H3683 C3692 0.929 . S
C3684 H3678 0.930 . S
C3684 C3685 1.367 . S
C3684 C3692 1.378 . S
C3685 C3684 1.367 . S
C3685 C3693 1.433 . S
C3686 H3682 0.929 . S
C3686 C3688 1.378 . S
C3686 C3690 1.350 . S
C3687 C3690 1.463 . S
C3687 C3692 1.350 . S
C3687 N3695 1.427 . S
C3688 H3679 0.930 . S
C3688 C3686 1.378 . S
C3688 C3689 1.367 . S
C3689 C3688 1.367 . S
C3689 C3691 1.433 . S
C3690 C3686 1.350 . S
C3690 C3687 1.463 . S
C3690 N3694 1.427 . S
C3691 H3681 0.929 . S
C3691 C3689 1.433 . S
C3691 N3694 1.384 . S
C3692 H3683 0.929 . S
C3692 C3684 1.378 . S
C3692 C3687 1.350 . S
C3693 H3680 0.929 . S
C3693 C3685 1.433 . S
C3693 N3695 1.384 . S
N3694 C3690 1.427 . S
N3694 C3691 1.384 . S
N3695 C3687 1.427 . S
N3695 C3693 1.384 . S
H3696 C3702 0.930 . S
H3697 C3706 0.930 . S
H3698 C3711 0.929 . S
H3699 C3709 0.929 . S
H3700 C3704 0.929 . S
H3701 C3710 0.929 . S
C3702 H3696 0.930 . S
C3702 C3703 1.367 . S
C3702 C3710 1.378 . S
C3703 C3702 1.367 . S
C3703 C3711 1.433 . S
C3704 H3700 0.929 . S
C3704 C3706 1.378 . S
C3704 C3708 1.350 . S
C3705 C3708 1.463 . S
C3705 C3710 1.350 . S
C3705 N3713 1.427 . S
C3706 H3697 0.930 . S
C3706 C3704 1.378 . S
C3706 C3707 1.367 . S
C3707 C3706 1.367 . S
C3707 C3709 1.433 . S
C3708 C3704 1.350 . S
C3708 C3705 1.463 . S
C3708 N3712 1.427 . S
C3709 H3699 0.929 . S
C3709 C3707 1.433 . S
C3709 N3712 1.384 . S
C3710 H3701 0.929 . S
C3710 C3702 1.378 . S
C3710 C3705 1.350 . S
C3711 H3698 0.929 . S
C3711 C3703 1.433 . S
C3711 N3713 1.384 . S
N3712 C3708 1.427 . S
N3712 C3709 1.384 . S
N3713 C3705 1.427 . S
N3713 C3711 1.384 . S
H3714 C3720 0.930 . S
H3715 C3724 0.930 . S
H3716 C3729 0.929 . S
H3717 C3727 0.929 . S
H3718 C3722 0.929 . S
H3719 C3728 0.929 . S
C3720 H3714 0.930 . S
C3720 C3721 1.367 . S
C3720 C3728 1.378 . S
C3721 C3720 1.367 . S
C3721 C3729 1.433 . S
C3722 H3718 0.929 . S
C3722 C3724 1.378 . S
C3722 C3726 1.350 . S
C3723 C3726 1.463 . S
C3723 C3728 1.350 . S
C3723 N3731 1.427 . S
C3724 H3715 0.930 . S
C3724 C3722 1.378 . S
C3724 C3725 1.367 . S
C3725 C3724 1.367 . S
C3725 C3727 1.433 . S
C3726 C3722 1.350 . S
C3726 C3723 1.463 . S
C3726 N3730 1.427 . S
C3727 H3717 0.929 . S
C3727 C3725 1.433 . S
C3727 N3730 1.384 . S
C3728 H3719 0.929 . S
C3728 C3720 1.378 . S
C3728 C3723 1.350 . S
C3729 H3716 0.929 . S
C3729 C3721 1.433 . S
C3729 N3731 1.384 . S
N3730 C3726 1.427 . S
N3730 C3727 1.384 . S
N3731 C3723 1.427 . S
N3731 C3729 1.384 . S
H3732 C3738 0.930 . S
H3733 C3742 0.930 . S
H3734 C3747 0.929 . S
H3735 C3745 0.929 . S
H3736 C3740 0.929 . S
H3737 C3746 0.929 . S
C3738 H3732 0.930 . S
C3738 C3739 1.367 . S
C3738 C3746 1.378 . S
C3739 C3738 1.367 . S
C3739 C3747 1.433 . S
C3740 H3736 0.929 . S
C3740 C3742 1.378 . S
C3740 C3744 1.350 . S
C3741 C3744 1.463 . S
C3741 C3746 1.350 . S
C3741 N3749 1.427 . S
C3742 H3733 0.930 . S
C3742 C3740 1.378 . S
C3742 C3743 1.367 . S
C3743 C3742 1.367 . S
C3743 C3745 1.433 . S
C3744 C3740 1.350 . S
C3744 C3741 1.463 . S
C3744 N3748 1.427 . S
C3745 H3735 0.929 . S
C3745 C3743 1.433 . S
C3745 N3748 1.384 . S
C3746 H3737 0.929 . S
C3746 C3738 1.378 . S
C3746 C3741 1.350 . S
C3747 H3734 0.929 . S
C3747 C3739 1.433 . S
C3747 N3749 1.384 . S
N3748 C3744 1.427 . S
N3748 C3745 1.384 . S
N3749 C3741 1.427 . S
N3749 C3747 1.384 . S
H3750 C3756 0.930 . S
H3751 C3760 0.930 . S
H3752 C3765 0.929 . S
H3753 C3763 0.929 . S
H3754 C3758 0.929 . S
H3755 C3764 0.929 . S
C3756 H3750 0.930 . S
C3756 C3757 1.367 . S
C3756 C3764 1.378 . S
C3757 C3756 1.367 . S
C3757 C3765 1.433 . S
C3758 H3754 0.929 . S
C3758 C3760 1.378 . S
C3758 C3762 1.350 . S
C3759 C3762 1.463 . S
C3759 C3764 1.350 . S
C3759 N3767 1.427 . S
C3760 H3751 0.930 . S
C3760 C3758 1.378 . S
C3760 C3761 1.367 . S
C3761 C3760 1.367 . S
C3761 C3763 1.433 . S
C3762 C3758 1.350 . S
C3762 C3759 1.463 . S
C3762 N3766 1.427 . S
C3763 H3753 0.929 . S
C3763 C3761 1.433 . S
C3763 N3766 1.384 . S
C3764 H3755 0.929 . S
C3764 C3756 1.378 . S
C3764 C3759 1.350 . S
C3765 H3752 0.929 . S
C3765 C3757 1.433 . S
C3765 N3767 1.384 . S
N3766 C3762 1.427 . S
N3766 C3763 1.384 . S
N3767 C3759 1.427 . S
N3767 C3765 1.384 . S
H3768 C3774 0.930 . S
H3769 C3778 0.930 . S
H3770 C3783 0.929 . S
H3771 C3781 0.929 . S
H3772 C3776 0.929 . S
H3773 C3782 0.929 . S
C3774 H3768 0.930 . S
C3774 C3775 1.367 . S
C3774 C3782 1.378 . S
C3775 C3774 1.367 . S
C3775 C3783 1.433 . S
C3776 H3772 0.929 . S
C3776 C3778 1.378 . S
C3776 C3780 1.350 . S
C3777 C3780 1.463 . S
C3777 C3782 1.350 . S
C3777 N3785 1.427 . S
C3778 H3769 0.930 . S
C3778 C3776 1.378 . S
C3778 C3779 1.367 . S
C3779 C3778 1.367 . S
C3779 C3781 1.433 . S
C3780 C3776 1.350 . S
C3780 C3777 1.463 . S
C3780 N3784 1.427 . S
C3781 H3771 0.929 . S
C3781 C3779 1.433 . S
C3781 N3784 1.384 . S
C3782 H3773 0.929 . S
C3782 C3774 1.378 . S
C3782 C3777 1.350 . S
C3783 H3770 0.929 . S
C3783 C3775 1.433 . S
C3783 N3785 1.384 . S
N3784 C3780 1.427 . S
N3784 C3781 1.384 . S
N3785 C3777 1.427 . S
N3785 C3783 1.384 . S
H3786 C3792 0.930 . S
H3787 C3796 0.930 . S
H3788 C3801 0.929 . S
H3789 C3799 0.929 . S
H3790 C3794 0.929 . S
H3791 C3800 0.929 . S
C3792 H3786 0.930 . S
C3792 C3793 1.367 . S
C3792 C3800 1.378 . S
C3793 C3792 1.367 . S
C3793 C3801 1.433 . S
C3794 H3790 0.929 . S
C3794 C3796 1.378 . S
C3794 C3798 1.350 . S
C3795 C3798 1.463 . S
C3795 C3800 1.350 . S
C3795 N3803 1.427 . S
C3796 H3787 0.930 . S
C3796 C3794 1.378 . S
C3796 C3797 1.367 . S
C3797 C3796 1.367 . S
C3797 C3799 1.433 . S
C3798 C3794 1.350 . S
C3798 C3795 1.463 . S
C3798 N3802 1.427 . S
C3799 H3789 0.929 . S
C3799 C3797 1.433 . S
C3799 N3802 1.384 . S
C3800 H3791 0.929 . S
C3800 C3792 1.378 . S
C3800 C3795 1.350 . S
C3801 H3788 0.929 . S
C3801 C3793 1.433 . S
C3801 N3803 1.384 . S
N3802 C3798 1.427 . S
N3802 C3799 1.384 . S
N3803 C3795 1.427 . S
N3803 C3801 1.384 . S
H3804 C3810 0.930 . S
H3805 C3814 0.930 . S
H3806 C3819 0.929 . S
H3807 C3817 0.929 . S
H3808 C3812 0.929 . S
H3809 C3818 0.929 . S
C3810 H3804 0.930 . S
C3810 C3811 1.367 . S
C3810 C3818 1.378 . S
C3811 C3810 1.367 . S
C3811 C3819 1.433 . S
C3812 H3808 0.929 . S
C3812 C3814 1.378 . S
C3812 C3816 1.350 . S
C3813 C3816 1.463 . S
C3813 C3818 1.350 . S
C3813 N3821 1.427 . S
C3814 H3805 0.930 . S
C3814 C3812 1.378 . S
C3814 C3815 1.367 . S
C3815 C3814 1.367 . S
C3815 C3817 1.433 . S
C3816 C3812 1.350 . S
C3816 C3813 1.463 . S
C3816 N3820 1.427 . S
C3817 H3807 0.929 . S
C3817 C3815 1.433 . S
C3817 N3820 1.384 . S
C3818 H3809 0.929 . S
C3818 C3810 1.378 . S
C3818 C3813 1.350 . S
C3819 H3806 0.929 . S
C3819 C3811 1.433 . S
C3819 N3821 1.384 . S
N3820 C3816 1.427 . S
N3820 C3817 1.384 . S
N3821 C3813 1.427 . S
N3821 C3819 1.384 . S
H3822 C3828 0.930 . S
H3823 C3832 0.930 . S
H3824 C3837 0.929 . S
H3825 C3835 0.929 . S
H3826 C3830 0.929 . S
H3827 C3836 0.929 . S
C3828 H3822 0.930 . S
C3828 C3829 1.367 . S
C3828 C3836 1.378 . S
C3829 C3828 1.367 . S
C3829 C3837 1.433 . S
C3830 H3826 0.929 . S
C3830 C3832 1.378 . S
C3830 C3834 1.350 . S
C3831 C3834 1.463 . S
C3831 C3836 1.350 . S
C3831 N3839 1.427 . S
C3832 H3823 0.930 . S
C3832 C3830 1.378 . S
C3832 C3833 1.367 . S
C3833 C3832 1.367 . S
C3833 C3835 1.433 . S
C3834 C3830 1.350 . S
C3834 C3831 1.463 . S
C3834 N3838 1.427 . S
C3835 H3825 0.929 . S
C3835 C3833 1.433 . S
C3835 N3838 1.384 . S
C3836 H3827 0.929 . S
C3836 C3828 1.378 . S
C3836 C3831 1.350 . S
C3837 H3824 0.929 . S
C3837 C3829 1.433 . S
C3837 N3839 1.384 . S
N3838 C3834 1.427 . S
N3838 C3835 1.384 . S
N3839 C3831 1.427 . S
N3839 C3837 1.384 . S
H3840 C3846 0.930 . S
H3841 C3850 0.930 . S
H3842 C3855 0.929 . S
H3843 C3853 0.929 . S
H3844 C3848 0.929 . S
H3845 C3854 0.929 . S
C3846 H3840 0.930 . S
C3846 C3847 1.367 . S
C3846 C3854 1.378 . S
C3847 C3846 1.367 . S
C3847 C3855 1.433 . S
C3848 H3844 0.929 . S
C3848 C3850 1.378 . S
C3848 C3852 1.350 . S
C3849 C3852 1.463 . S
C3849 C3854 1.350 . S
C3849 N3857 1.427 . S
C3850 H3841 0.930 . S
C3850 C3848 1.378 . S
C3850 C3851 1.367 . S
C3851 C3850 1.367 . S
C3851 C3853 1.433 . S
C3852 C3848 1.350 . S
C3852 C3849 1.463 . S
C3852 N3856 1.427 . S
C3853 H3843 0.929 . S
C3853 C3851 1.433 . S
C3853 N3856 1.384 . S
C3854 H3845 0.929 . S
C3854 C3846 1.378 . S
C3854 C3849 1.350 . S
C3855 H3842 0.929 . S
C3855 C3847 1.433 . S
C3855 N3857 1.384 . S
N3856 C3852 1.427 . S
N3856 C3853 1.384 . S
N3857 C3849 1.427 . S
N3857 C3855 1.384 . S
H3858 C3864 0.930 . S
H3859 C3868 0.930 . S
H3860 C3873 0.929 . S
H3861 C3871 0.929 . S
H3862 C3866 0.929 . S
H3863 C3872 0.929 . S
C3864 H3858 0.930 . S
C3864 C3865 1.367 . S
C3864 C3872 1.378 . S
C3865 C3864 1.367 . S
C3865 C3873 1.433 . S
C3866 H3862 0.929 . S
C3866 C3868 1.378 . S
C3866 C3870 1.350 . S
C3867 C3870 1.463 . S
C3867 C3872 1.350 . S
C3867 N3875 1.427 . S
C3868 H3859 0.930 . S
C3868 C3866 1.378 . S
C3868 C3869 1.367 . S
C3869 C3868 1.367 . S
C3869 C3871 1.433 . S
C3870 C3866 1.350 . S
C3870 C3867 1.463 . S
C3870 N3874 1.427 . S
C3871 H3861 0.929 . S
C3871 C3869 1.433 . S
C3871 N3874 1.384 . S
C3872 H3863 0.929 . S
C3872 C3864 1.378 . S
C3872 C3867 1.350 . S
C3873 H3860 0.929 . S
C3873 C3865 1.433 . S
C3873 N3875 1.384 . S
N3874 C3870 1.427 . S
N3874 C3871 1.384 . S
N3875 C3867 1.427 . S
N3875 C3873 1.384 . S
H3876 C3882 0.930 . S
H3877 C3886 0.930 . S
H3878 C3891 0.929 . S
H3879 C3889 0.929 . S
H3880 C3884 0.929 . S
H3881 C3890 0.929 . S
C3882 H3876 0.930 . S
C3882 C3883 1.367 . S
C3882 C3890 1.378 . S
C3883 C3882 1.367 . S
C3883 C3891 1.433 . S
C3884 H3880 0.929 . S
C3884 C3886 1.378 . S
C3884 C3888 1.350 . S
C3885 C3888 1.463 . S
C3885 C3890 1.350 . S
C3885 N3893 1.427 . S
C3886 H3877 0.930 . S
C3886 C3884 1.378 . S
C3886 C3887 1.367 . S
C3887 C3886 1.367 . S
C3887 C3889 1.433 . S
C3888 C3884 1.350 . S
C3888 C3885 1.463 . S
C3888 N3892 1.427 . S
C3889 H3879 0.929 . S
C3889 C3887 1.433 . S
C3889 N3892 1.384 . S
C3890 H3881 0.929 . S
C3890 C3882 1.378 . S
C3890 C3885 1.350 . S
C3891 H3878 0.929 . S
C3891 C3883 1.433 . S
C3891 N3893 1.384 . S
N3892 C3888 1.427 . S
N3892 C3889 1.384 . S
N3893 C3885 1.427 . S
N3893 C3891 1.384 . S
H3894 C3900 0.930 . S
H3895 C3904 0.930 . S
H3896 C3909 0.929 . S
H3897 C3907 0.929 . S
H3898 C3902 0.929 . S
H3899 C3908 0.929 . S
C3900 H3894 0.930 . S
C3900 C3901 1.367 . S
C3900 C3908 1.378 . S
C3901 C3900 1.367 . S
C3901 C3909 1.433 . S
C3902 H3898 0.929 . S
C3902 C3904 1.378 . S
C3902 C3906 1.350 . S
C3903 C3906 1.463 . S
C3903 C3908 1.350 . S
C3903 N3911 1.427 . S
C3904 H3895 0.930 . S
C3904 C3902 1.378 . S
C3904 C3905 1.367 . S
C3905 C3904 1.367 . S
C3905 C3907 1.433 . S
C3906 C3902 1.350 . S
C3906 C3903 1.463 . S
C3906 N3910 1.427 . S
C3907 H3897 0.929 . S
C3907 C3905 1.433 . S
C3907 N3910 1.384 . S
C3908 H3899 0.929 . S
C3908 C3900 1.378 . S
C3908 C3903 1.350 . S
C3909 H3896 0.929 . S
C3909 C3901 1.433 . S
C3909 N3911 1.384 . S
N3910 C3906 1.427 . S
N3910 C3907 1.384 . S
N3911 C3903 1.427 . S
N3911 C3909 1.384 . S
H3912 C3918 0.930 . S
H3913 C3922 0.930 . S
H3914 C3927 0.929 . S
H3915 C3925 0.929 . S
H3916 C3920 0.929 . S
H3917 C3926 0.929 . S
C3918 H3912 0.930 . S
C3918 C3919 1.367 . S
C3918 C3926 1.378 . S
C3919 C3918 1.367 . S
C3919 C3927 1.433 . S
C3920 H3916 0.929 . S
C3920 C3922 1.378 . S
C3920 C3924 1.350 . S
C3921 C3924 1.463 . S
C3921 C3926 1.350 . S
C3921 N3929 1.427 . S
C3922 H3913 0.930 . S
C3922 C3920 1.378 . S
C3922 C3923 1.367 . S
C3923 C3922 1.367 . S
C3923 C3925 1.433 . S
C3924 C3920 1.350 . S
C3924 C3921 1.463 . S
C3924 N3928 1.427 . S
C3925 H3915 0.929 . S
C3925 C3923 1.433 . S
C3925 N3928 1.384 . S
C3926 H3917 0.929 . S
C3926 C3918 1.378 . S
C3926 C3921 1.350 . S
C3927 H3914 0.929 . S
C3927 C3919 1.433 . S
C3927 N3929 1.384 . S
N3928 C3924 1.427 . S
N3928 C3925 1.384 . S
N3929 C3921 1.427 . S
N3929 C3927 1.384 . S
H3930 C3936 0.930 . S
H3931 C3940 0.930 . S
H3932 C3945 0.929 . S
H3933 C3943 0.929 . S
H3934 C3938 0.929 . S
H3935 C3944 0.929 . S
C3936 H3930 0.930 . S
C3936 C3937 1.367 . S
C3936 C3944 1.378 . S
C3937 C3936 1.367 . S
C3937 C3945 1.433 . S
C3938 H3934 0.929 . S
C3938 C3940 1.378 . S
C3938 C3942 1.350 . S
C3939 C3942 1.463 . S
C3939 C3944 1.350 . S
C3939 N3947 1.427 . S
C3940 H3931 0.930 . S
C3940 C3938 1.378 . S
C3940 C3941 1.367 . S
C3941 C3940 1.367 . S
C3941 C3943 1.433 . S
C3942 C3938 1.350 . S
C3942 C3939 1.463 . S
C3942 N3946 1.427 . S
C3943 H3933 0.929 . S
C3943 C3941 1.433 . S
C3943 N3946 1.384 . S
C3944 H3935 0.929 . S
C3944 C3936 1.378 . S
C3944 C3939 1.350 . S
C3945 H3932 0.929 . S
C3945 C3937 1.433 . S
C3945 N3947 1.384 . S
N3946 C3942 1.427 . S
N3946 C3943 1.384 . S
N3947 C3939 1.427 . S
N3947 C3945 1.384 . S
H3948 C3954 0.930 . S
H3949 C3958 0.930 . S
H3950 C3963 0.929 . S
H3951 C3961 0.929 . S
H3952 C3956 0.929 . S
H3953 C3962 0.929 . S
C3954 H3948 0.930 . S
C3954 C3955 1.367 . S
C3954 C3962 1.378 . S
C3955 C3954 1.367 . S
C3955 C3963 1.433 . S
C3956 H3952 0.929 . S
C3956 C3958 1.378 . S
C3956 C3960 1.350 . S
C3957 C3960 1.463 . S
C3957 C3962 1.350 . S
C3957 N3965 1.427 . S
C3958 H3949 0.930 . S
C3958 C3956 1.378 . S
C3958 C3959 1.367 . S
C3959 C3958 1.367 . S
C3959 C3961 1.433 . S
C3960 C3956 1.350 . S
C3960 C3957 1.463 . S
C3960 N3964 1.427 . S
C3961 H3951 0.929 . S
C3961 C3959 1.433 . S
C3961 N3964 1.384 . S
C3962 H3953 0.929 . S
C3962 C3954 1.378 . S
C3962 C3957 1.350 . S
C3963 H3950 0.929 . S
C3963 C3955 1.433 . S
C3963 N3965 1.384 . S
N3964 C3960 1.427 . S
N3964 C3961 1.384 . S
N3965 C3957 1.427 . S
N3965 C3963 1.384 . S
H3966 C3972 0.930 . S
H3967 C3976 0.930 . S
H3968 C3981 0.929 . S
H3969 C3979 0.929 . S
H3970 C3974 0.929 . S
H3971 C3980 0.929 . S
C3972 H3966 0.930 . S
C3972 C3973 1.367 . S
C3972 C3980 1.378 . S
C3973 C3972 1.367 . S
C3973 C3981 1.433 . S
C3974 H3970 0.929 . S
C3974 C3976 1.378 . S
C3974 C3978 1.350 . S
C3975 C3978 1.463 . S
C3975 C3980 1.350 . S
C3975 N3983 1.427 . S
C3976 H3967 0.930 . S
C3976 C3974 1.378 . S
C3976 C3977 1.367 . S
C3977 C3976 1.367 . S
C3977 C3979 1.433 . S
C3978 C3974 1.350 . S
C3978 C3975 1.463 . S
C3978 N3982 1.427 . S
C3979 H3969 0.929 . S
C3979 C3977 1.433 . S
C3979 N3982 1.384 . S
C3980 H3971 0.929 . S
C3980 C3972 1.378 . S
C3980 C3975 1.350 . S
C3981 H3968 0.929 . S
C3981 C3973 1.433 . S
C3981 N3983 1.384 . S
N3982 C3978 1.427 . S
N3982 C3979 1.384 . S
N3983 C3975 1.427 . S
N3983 C3981 1.384 . S
H3984 C3990 0.930 . S
H3985 C3994 0.930 . S
H3986 C3999 0.929 . S
H3987 C3997 0.929 . S
H3988 C3992 0.929 . S
H3989 C3998 0.929 . S
C3990 H3984 0.930 . S
C3990 C3991 1.367 . S
C3990 C3998 1.378 . S
C3991 C3990 1.367 . S
C3991 C3999 1.433 . S
C3992 H3988 0.929 . S
C3992 C3994 1.378 . S
C3992 C3996 1.350 . S
C3993 C3996 1.463 . S
C3993 C3998 1.350 . S
C3993 N4001 1.427 . S
C3994 H3985 0.930 . S
C3994 C3992 1.378 . S
C3994 C3995 1.367 . S
C3995 C3994 1.367 . S
C3995 C3997 1.433 . S
C3996 C3992 1.350 . S
C3996 C3993 1.463 . S
C3996 N4000 1.427 . S
C3997 H3987 0.929 . S
C3997 C3995 1.433 . S
C3997 N4000 1.384 . S
C3998 H3989 0.929 . S
C3998 C3990 1.378 . S
C3998 C3993 1.350 . S
C3999 H3986 0.929 . S
C3999 C3991 1.433 . S
C3999 N4001 1.384 . S
N4000 C3996 1.427 . S
N4000 C3997 1.384 . S
N4001 C3993 1.427 . S
N4001 C3999 1.384 . S
H4002 C4008 0.930 . S
H4003 C4012 0.930 . S
H4004 C4017 0.929 . S
H4005 C4015 0.929 . S
H4006 C4010 0.929 . S
H4007 C4016 0.929 . S
C4008 H4002 0.930 . S
C4008 C4009 1.367 . S
C4008 C4016 1.378 . S
C4009 C4008 1.367 . S
C4009 C4017 1.433 . S
C4010 H4006 0.929 . S
C4010 C4012 1.378 . S
C4010 C4014 1.350 . S
C4011 C4014 1.463 . S
C4011 C4016 1.350 . S
C4011 N4019 1.427 . S
C4012 H4003 0.930 . S
C4012 C4010 1.378 . S
C4012 C4013 1.367 . S
C4013 C4012 1.367 . S
C4013 C4015 1.433 . S
C4014 C4010 1.350 . S
C4014 C4011 1.463 . S
C4014 N4018 1.427 . S
C4015 H4005 0.929 . S
C4015 C4013 1.433 . S
C4015 N4018 1.384 . S
C4016 H4007 0.929 . S
C4016 C4008 1.378 . S
C4016 C4011 1.350 . S
C4017 H4004 0.929 . S
C4017 C4009 1.433 . S
C4017 N4019 1.384 . S
N4018 C4014 1.427 . S
N4018 C4015 1.384 . S
N4019 C4011 1.427 . S
N4019 C4017 1.384 . S
H4020 C4026 0.930 . S
H4021 C4030 0.930 . S
H4022 C4035 0.929 . S
H4023 C4033 0.929 . S
H4024 C4028 0.929 . S
H4025 C4034 0.929 . S
C4026 H4020 0.930 . S
C4026 C4027 1.367 . S
C4026 C4034 1.378 . S
C4027 C4026 1.367 . S
C4027 C4035 1.433 . S
C4028 H4024 0.929 . S
C4028 C4030 1.378 . S
C4028 C4032 1.350 . S
C4029 C4032 1.463 . S
C4029 C4034 1.350 . S
C4029 N4037 1.427 . S
C4030 H4021 0.930 . S
C4030 C4028 1.378 . S
C4030 C4031 1.367 . S
C4031 C4030 1.367 . S
C4031 C4033 1.433 . S
C4032 C4028 1.350 . S
C4032 C4029 1.463 . S
C4032 N4036 1.427 . S
C4033 H4023 0.929 . S
C4033 C4031 1.433 . S
C4033 N4036 1.384 . S
C4034 H4025 0.929 . S
C4034 C4026 1.378 . S
C4034 C4029 1.350 . S
C4035 H4022 0.929 . S
C4035 C4027 1.433 . S
C4035 N4037 1.384 . S
N4036 C4032 1.427 . S
N4036 C4033 1.384 . S
N4037 C4029 1.427 . S
N4037 C4035 1.384 . S
H4038 C4044 0.930 . S
H4039 C4048 0.930 . S
H4040 C4053 0.929 . S
H4041 C4051 0.929 . S
H4042 C4046 0.929 . S
H4043 C4052 0.929 . S
C4044 H4038 0.930 . S
C4044 C4045 1.367 . S
C4044 C4052 1.378 . S
C4045 C4044 1.367 . S
C4045 C4053 1.433 . S
C4046 H4042 0.929 . S
C4046 C4048 1.378 . S
C4046 C4050 1.350 . S
C4047 C4050 1.463 . S
C4047 C4052 1.350 . S
C4047 N4055 1.427 . S
C4048 H4039 0.930 . S
C4048 C4046 1.378 . S
C4048 C4049 1.367 . S
C4049 C4048 1.367 . S
C4049 C4051 1.433 . S
C4050 C4046 1.350 . S
C4050 C4047 1.463 . S
C4050 N4054 1.427 . S
C4051 H4041 0.929 . S
C4051 C4049 1.433 . S
C4051 N4054 1.384 . S
C4052 H4043 0.929 . S
C4052 C4044 1.378 . S
C4052 C4047 1.350 . S
C4053 H4040 0.929 . S
C4053 C4045 1.433 . S
C4053 N4055 1.384 . S
N4054 C4050 1.427 . S
N4054 C4051 1.384 . S
N4055 C4047 1.427 . S
N4055 C4053 1.384 . S
H4056 C4062 0.930 . S
H4057 C4066 0.930 . S
H4058 C4071 0.929 . S
H4059 C4069 0.929 . S
H4060 C4064 0.929 . S
H4061 C4070 0.929 . S
C4062 H4056 0.930 . S
C4062 C4063 1.367 . S
C4062 C4070 1.378 . S
C4063 C4062 1.367 . S
C4063 C4071 1.433 . S
C4064 H4060 0.929 . S
C4064 C4066 1.378 . S
C4064 C4068 1.350 . S
C4065 C4068 1.463 . S
C4065 C4070 1.350 . S
C4065 N4073 1.427 . S
C4066 H4057 0.930 . S
C4066 C4064 1.378 . S
C4066 C4067 1.367 . S
C4067 C4066 1.367 . S
C4067 C4069 1.433 . S
C4068 C4064 1.350 . S
C4068 C4065 1.463 . S
C4068 N4072 1.427 . S
C4069 H4059 0.929 . S
C4069 C4067 1.433 . S
C4069 N4072 1.384 . S
C4070 H4061 0.929 . S
C4070 C4062 1.378 . S
C4070 C4065 1.350 . S
C4071 H4058 0.929 . S
C4071 C4063 1.433 . S
C4071 N4073 1.384 . S
N4072 C4068 1.427 . S
N4072 C4069 1.384 . S
N4073 C4065 1.427 . S
N4073 C4071 1.384 . S
H4074 C4080 0.930 . S
H4075 C4084 0.930 . S
H4076 C4089 0.929 . S
H4077 C4087 0.929 . S
H4078 C4082 0.929 . S
H4079 C4088 0.929 . S
C4080 H4074 0.930 . S
C4080 C4081 1.367 . S
C4080 C4088 1.378 . S
C4081 C4080 1.367 . S
C4081 C4089 1.433 . S
C4082 H4078 0.929 . S
C4082 C4084 1.378 . S
C4082 C4086 1.350 . S
C4083 C4086 1.463 . S
C4083 C4088 1.350 . S
C4083 N4091 1.427 . S
C4084 H4075 0.930 . S
C4084 C4082 1.378 . S
C4084 C4085 1.367 . S
C4085 C4084 1.367 . S
C4085 C4087 1.433 . S
C4086 C4082 1.350 . S
C4086 C4083 1.463 . S
C4086 N4090 1.427 . S
C4087 H4077 0.929 . S
C4087 C4085 1.433 . S
C4087 N4090 1.384 . S
C4088 H4079 0.929 . S
C4088 C4080 1.378 . S
C4088 C4083 1.350 . S
C4089 H4076 0.929 . S
C4089 C4081 1.433 . S
C4089 N4091 1.384 . S
N4090 C4086 1.427 . S
N4090 C4087 1.384 . S
N4091 C4083 1.427 . S
N4091 C4089 1.384 . S
H4092 C4098 0.930 . S
H4093 C4102 0.930 . S
H4094 C4107 0.929 . S
H4095 C4105 0.929 . S
H4096 C4100 0.929 . S
H4097 C4106 0.929 . S
C4098 H4092 0.930 . S
C4098 C4099 1.367 . S
C4098 C4106 1.378 . S
C4099 C4098 1.367 . S
C4099 C4107 1.433 . S
C4100 H4096 0.929 . S
C4100 C4102 1.378 . S
C4100 C4104 1.350 . S
C4101 C4104 1.463 . S
C4101 C4106 1.350 . S
C4101 N4109 1.427 . S
C4102 H4093 0.930 . S
C4102 C4100 1.378 . S
C4102 C4103 1.367 . S
C4103 C4102 1.367 . S
C4103 C4105 1.433 . S
C4104 C4100 1.350 . S
C4104 C4101 1.463 . S
C4104 N4108 1.427 . S
C4105 H4095 0.929 . S
C4105 C4103 1.433 . S
C4105 N4108 1.384 . S
C4106 H4097 0.929 . S
C4106 C4098 1.378 . S
C4106 C4101 1.350 . S
C4107 H4094 0.929 . S
C4107 C4099 1.433 . S
C4107 N4109 1.384 . S
N4108 C4104 1.427 . S
N4108 C4105 1.384 . S
N4109 C4101 1.427 . S
N4109 C4107 1.384 . S
H4110 C4116 0.930 . S
H4111 C4120 0.930 . S
H4112 C4125 0.929 . S
H4113 C4123 0.929 . S
H4114 C4118 0.929 . S
H4115 C4124 0.929 . S
C4116 H4110 0.930 . S
C4116 C4117 1.367 . S
C4116 C4124 1.378 . S
C4117 C4116 1.367 . S
C4117 C4125 1.433 . S
C4118 H4114 0.929 . S
C4118 C4120 1.378 . S
C4118 C4122 1.350 . S
C4119 C4122 1.463 . S
C4119 C4124 1.350 . S
C4119 N4127 1.427 . S
C4120 H4111 0.930 . S
C4120 C4118 1.378 . S
C4120 C4121 1.367 . S
C4121 C4120 1.367 . S
C4121 C4123 1.433 . S
C4122 C4118 1.350 . S
C4122 C4119 1.463 . S
C4122 N4126 1.427 . S
C4123 H4113 0.929 . S
C4123 C4121 1.433 . S
C4123 N4126 1.384 . S
C4124 H4115 0.929 . S
C4124 C4116 1.378 . S
C4124 C4119 1.350 . S
C4125 H4112 0.929 . S
C4125 C4117 1.433 . S
C4125 N4127 1.384 . S
N4126 C4122 1.427 . S
N4126 C4123 1.384 . S
N4127 C4119 1.427 . S
N4127 C4125 1.384 . S
H4128 C4134 0.930 . S
H4129 C4138 0.930 . S
H4130 C4143 0.929 . S
H4131 C4141 0.929 . S
H4132 C4136 0.929 . S
H4133 C4142 0.929 . S
C4134 H4128 0.930 . S
C4134 C4135 1.367 . S
C4134 C4142 1.378 . S
C4135 C4134 1.367 . S
C4135 C4143 1.433 . S
C4136 H4132 0.929 . S
C4136 C4138 1.378 . S
C4136 C4140 1.350 . S
C4137 C4140 1.463 . S
C4137 C4142 1.350 . S
C4137 N4145 1.427 . S
C4138 H4129 0.930 . S
C4138 C4136 1.378 . S
C4138 C4139 1.367 . S
C4139 C4138 1.367 . S
C4139 C4141 1.433 . S
C4140 C4136 1.350 . S
C4140 C4137 1.463 . S
C4140 N4144 1.427 . S
C4141 H4131 0.929 . S
C4141 C4139 1.433 . S
C4141 N4144 1.384 . S
C4142 H4133 0.929 . S
C4142 C4134 1.378 . S
C4142 C4137 1.350 . S
C4143 H4130 0.929 . S
C4143 C4135 1.433 . S
C4143 N4145 1.384 . S
N4144 C4140 1.427 . S
N4144 C4141 1.384 . S
N4145 C4137 1.427 . S
N4145 C4143 1.384 . S
H4146 C4152 0.930 . S
H4147 C4156 0.930 . S
H4148 C4161 0.929 . S
H4149 C4159 0.929 . S
H4150 C4154 0.929 . S
H4151 C4160 0.929 . S
C4152 H4146 0.930 . S
C4152 C4153 1.367 . S
C4152 C4160 1.378 . S
C4153 C4152 1.367 . S
C4153 C4161 1.433 . S
C4154 H4150 0.929 . S
C4154 C4156 1.378 . S
C4154 C4158 1.350 . S
C4155 C4158 1.463 . S
C4155 C4160 1.350 . S
C4155 N4163 1.427 . S
C4156 H4147 0.930 . S
C4156 C4154 1.378 . S
C4156 C4157 1.367 . S
C4157 C4156 1.367 . S
C4157 C4159 1.433 . S
C4158 C4154 1.350 . S
C4158 C4155 1.463 . S
C4158 N4162 1.427 . S
C4159 H4149 0.929 . S
C4159 C4157 1.433 . S
C4159 N4162 1.384 . S
C4160 H4151 0.929 . S
C4160 C4152 1.378 . S
C4160 C4155 1.350 . S
C4161 H4148 0.929 . S
C4161 C4153 1.433 . S
C4161 N4163 1.384 . S
N4162 C4158 1.427 . S
N4162 C4159 1.384 . S
N4163 C4155 1.427 . S
N4163 C4161 1.384 . S
H4164 C4170 0.930 . S
H4165 C4174 0.930 . S
H4166 C4179 0.929 . S
H4167 C4177 0.929 . S
H4168 C4172 0.929 . S
H4169 C4178 0.929 . S
C4170 H4164 0.930 . S
C4170 C4171 1.367 . S
C4170 C4178 1.378 . S
C4171 C4170 1.367 . S
C4171 C4179 1.433 . S
C4172 H4168 0.929 . S
C4172 C4174 1.378 . S
C4172 C4176 1.350 . S
C4173 C4176 1.463 . S
C4173 C4178 1.350 . S
C4173 N4181 1.427 . S
C4174 H4165 0.930 . S
C4174 C4172 1.378 . S
C4174 C4175 1.367 . S
C4175 C4174 1.367 . S
C4175 C4177 1.433 . S
C4176 C4172 1.350 . S
C4176 C4173 1.463 . S
C4176 N4180 1.427 . S
C4177 H4167 0.929 . S
C4177 C4175 1.433 . S
C4177 N4180 1.384 . S
C4178 H4169 0.929 . S
C4178 C4170 1.378 . S
C4178 C4173 1.350 . S
C4179 H4166 0.929 . S
C4179 C4171 1.433 . S
C4179 N4181 1.384 . S
N4180 C4176 1.427 . S
N4180 C4177 1.384 . S
N4181 C4173 1.427 . S
N4181 C4179 1.384 . S
H4182 C4188 0.930 . S
H4183 C4192 0.930 . S
H4184 C4197 0.929 . S
H4185 C4195 0.929 . S
H4186 C4190 0.929 . S
H4187 C4196 0.929 . S
C4188 H4182 0.930 . S
C4188 C4189 1.367 . S
C4188 C4196 1.378 . S
C4189 C4188 1.367 . S
C4189 C4197 1.433 . S
C4190 H4186 0.929 . S
C4190 C4192 1.378 . S
C4190 C4194 1.350 . S
C4191 C4194 1.463 . S
C4191 C4196 1.350 . S
C4191 N4199 1.427 . S
C4192 H4183 0.930 . S
C4192 C4190 1.378 . S
C4192 C4193 1.367 . S
C4193 C4192 1.367 . S
C4193 C4195 1.433 . S
C4194 C4190 1.350 . S
C4194 C4191 1.463 . S
C4194 N4198 1.427 . S
C4195 H4185 0.929 . S
C4195 C4193 1.433 . S
C4195 N4198 1.384 . S
C4196 H4187 0.929 . S
C4196 C4188 1.378 . S
C4196 C4191 1.350 . S
C4197 H4184 0.929 . S
C4197 C4189 1.433 . S
C4197 N4199 1.384 . S
N4198 C4194 1.427 . S
N4198 C4195 1.384 . S
N4199 C4191 1.427 . S
N4199 C4197 1.384 . S
H4200 C4206 0.930 . S
H4201 C4210 0.930 . S
H4202 C4215 0.929 . S
H4203 C4213 0.929 . S
H4204 C4208 0.929 . S
H4205 C4214 0.929 . S
C4206 H4200 0.930 . S
C4206 C4207 1.367 . S
C4206 C4214 1.378 . S
C4207 C4206 1.367 . S
C4207 C4215 1.433 . S
C4208 H4204 0.929 . S
C4208 C4210 1.378 . S
C4208 C4212 1.350 . S
C4209 C4212 1.463 . S
C4209 C4214 1.350 . S
C4209 N4217 1.427 . S
C4210 H4201 0.930 . S
C4210 C4208 1.378 . S
C4210 C4211 1.367 . S
C4211 C4210 1.367 . S
C4211 C4213 1.433 . S
C4212 C4208 1.350 . S
C4212 C4209 1.463 . S
C4212 N4216 1.427 . S
C4213 H4203 0.929 . S
C4213 C4211 1.433 . S
C4213 N4216 1.384 . S
C4214 H4205 0.929 . S
C4214 C4206 1.378 . S
C4214 C4209 1.350 . S
C4215 H4202 0.929 . S
C4215 C4207 1.433 . S
C4215 N4217 1.384 . S
N4216 C4212 1.427 . S
N4216 C4213 1.384 . S
N4217 C4209 1.427 . S
N4217 C4215 1.384 . S
H4218 C4224 0.930 . S
H4219 C4228 0.930 . S
H4220 C4233 0.929 . S
H4221 C4231 0.929 . S
H4222 C4226 0.929 . S
H4223 C4232 0.929 . S
C4224 H4218 0.930 . S
C4224 C4225 1.367 . S
C4224 C4232 1.378 . S
C4225 C4224 1.367 . S
C4225 C4233 1.433 . S
C4226 H4222 0.929 . S
C4226 C4228 1.378 . S
C4226 C4230 1.350 . S
C4227 C4230 1.463 . S
C4227 C4232 1.350 . S
C4227 N4235 1.427 . S
C4228 H4219 0.930 . S
C4228 C4226 1.378 . S
C4228 C4229 1.367 . S
C4229 C4228 1.367 . S
C4229 C4231 1.433 . S
C4230 C4226 1.350 . S
C4230 C4227 1.463 . S
C4230 N4234 1.427 . S
C4231 H4221 0.929 . S
C4231 C4229 1.433 . S
C4231 N4234 1.384 . S
C4232 H4223 0.929 . S
C4232 C4224 1.378 . S
C4232 C4227 1.350 . S
C4233 H4220 0.929 . S
C4233 C4225 1.433 . S
C4233 N4235 1.384 . S
N4234 C4230 1.427 . S
N4234 C4231 1.384 . S
N4235 C4227 1.427 . S
N4235 C4233 1.384 . S
H4236 C4242 0.930 . S
H4237 C4246 0.930 . S
H4238 C4251 0.929 . S
H4239 C4249 0.929 . S
H4240 C4244 0.929 . S
H4241 C4250 0.929 . S
C4242 H4236 0.930 . S
C4242 C4243 1.367 . S
C4242 C4250 1.378 . S
C4243 C4242 1.367 . S
C4243 C4251 1.433 . S
C4244 H4240 0.929 . S
C4244 C4246 1.378 . S
C4244 C4248 1.350 . S
C4245 C4248 1.463 . S
C4245 C4250 1.350 . S
C4245 N4253 1.427 . S
C4246 H4237 0.930 . S
C4246 C4244 1.378 . S
C4246 C4247 1.367 . S
C4247 C4246 1.367 . S
C4247 C4249 1.433 . S
C4248 C4244 1.350 . S
C4248 C4245 1.463 . S
C4248 N4252 1.427 . S
C4249 H4239 0.929 . S
C4249 C4247 1.433 . S
C4249 N4252 1.384 . S
C4250 H4241 0.929 . S
C4250 C4242 1.378 . S
C4250 C4245 1.350 . S
C4251 H4238 0.929 . S
C4251 C4243 1.433 . S
C4251 N4253 1.384 . S
N4252 C4248 1.427 . S
N4252 C4249 1.384 . S
N4253 C4245 1.427 . S
N4253 C4251 1.384 . S
H4254 C4260 0.930 . S
H4255 C4264 0.930 . S
H4256 C4269 0.929 . S
H4257 C4267 0.929 . S
H4258 C4262 0.929 . S
H4259 C4268 0.929 . S
C4260 H4254 0.930 . S
C4260 C4261 1.367 . S
C4260 C4268 1.378 . S
C4261 C4260 1.367 . S
C4261 C4269 1.433 . S
C4262 H4258 0.929 . S
C4262 C4264 1.378 . S
C4262 C4266 1.350 . S
C4263 C4266 1.463 . S
C4263 C4268 1.350 . S
C4263 N4271 1.427 . S
C4264 H4255 0.930 . S
C4264 C4262 1.378 . S
C4264 C4265 1.367 . S
C4265 C4264 1.367 . S
C4265 C4267 1.433 . S
C4266 C4262 1.350 . S
C4266 C4263 1.463 . S
C4266 N4270 1.427 . S
C4267 H4257 0.929 . S
C4267 C4265 1.433 . S
C4267 N4270 1.384 . S
C4268 H4259 0.929 . S
C4268 C4260 1.378 . S
C4268 C4263 1.350 . S
C4269 H4256 0.929 . S
C4269 C4261 1.433 . S
C4269 N4271 1.384 . S
N4270 C4266 1.427 . S
N4270 C4267 1.384 . S
N4271 C4263 1.427 . S
N4271 C4269 1.384 . S
H4272 C4278 0.930 . S
H4273 C4282 0.930 . S
H4274 C4287 0.929 . S
H4275 C4285 0.929 . S
H4276 C4280 0.929 . S
H4277 C4286 0.929 . S
C4278 H4272 0.930 . S
C4278 C4279 1.367 . S
C4278 C4286 1.378 . S
C4279 C4278 1.367 . S
C4279 C4287 1.433 . S
C4280 H4276 0.929 . S
C4280 C4282 1.378 . S
C4280 C4284 1.350 . S
C4281 C4284 1.463 . S
C4281 C4286 1.350 . S
C4281 N4289 1.427 . S
C4282 H4273 0.930 . S
C4282 C4280 1.378 . S
C4282 C4283 1.367 . S
C4283 C4282 1.367 . S
C4283 C4285 1.433 . S
C4284 C4280 1.350 . S
C4284 C4281 1.463 . S
C4284 N4288 1.427 . S
C4285 H4275 0.929 . S
C4285 C4283 1.433 . S
C4285 N4288 1.384 . S
C4286 H4277 0.929 . S
C4286 C4278 1.378 . S
C4286 C4281 1.350 . S
C4287 H4274 0.929 . S
C4287 C4279 1.433 . S
C4287 N4289 1.384 . S
N4288 C4284 1.427 . S
N4288 C4285 1.384 . S
N4289 C4281 1.427 . S
N4289 C4287 1.384 . S
H4290 C4296 0.930 . S
H4291 C4300 0.930 . S
H4292 C4305 0.929 . S
H4293 C4303 0.929 . S
H4294 C4298 0.929 . S
H4295 C4304 0.929 . S
C4296 H4290 0.930 . S
C4296 C4297 1.367 . S
C4296 C4304 1.378 . S
C4297 C4296 1.367 . S
C4297 C4305 1.433 . S
C4298 H4294 0.929 . S
C4298 C4300 1.378 . S
C4298 C4302 1.350 . S
C4299 C4302 1.463 . S
C4299 C4304 1.350 . S
C4299 N4307 1.427 . S
C4300 H4291 0.930 . S
C4300 C4298 1.378 . S
C4300 C4301 1.367 . S
C4301 C4300 1.367 . S
C4301 C4303 1.433 . S
C4302 C4298 1.350 . S
C4302 C4299 1.463 . S
C4302 N4306 1.427 . S
C4303 H4293 0.929 . S
C4303 C4301 1.433 . S
C4303 N4306 1.384 . S
C4304 H4295 0.929 . S
C4304 C4296 1.378 . S
C4304 C4299 1.350 . S
C4305 H4292 0.929 . S
C4305 C4297 1.433 . S
C4305 N4307 1.384 . S
N4306 C4302 1.427 . S
N4306 C4303 1.384 . S
N4307 C4299 1.427 . S
N4307 C4305 1.384 . S
H4308 C4314 0.930 . S
H4309 C4318 0.930 . S
H4310 C4323 0.929 . S
H4311 C4321 0.929 . S
H4312 C4316 0.929 . S
H4313 C4322 0.929 . S
C4314 H4308 0.930 . S
C4314 C4315 1.367 . S
C4314 C4322 1.378 . S
C4315 C4314 1.367 . S
C4315 C4323 1.433 . S
C4316 H4312 0.929 . S
C4316 C4318 1.378 . S
C4316 C4320 1.350 . S
C4317 C4320 1.463 . S
C4317 C4322 1.350 . S
C4317 N4325 1.427 . S
C4318 H4309 0.930 . S
C4318 C4316 1.378 . S
C4318 C4319 1.367 . S
C4319 C4318 1.367 . S
C4319 C4321 1.433 . S
C4320 C4316 1.350 . S
C4320 C4317 1.463 . S
C4320 N4324 1.427 . S
C4321 H4311 0.929 . S
C4321 C4319 1.433 . S
C4321 N4324 1.384 . S
C4322 H4313 0.929 . S
C4322 C4314 1.378 . S
C4322 C4317 1.350 . S
C4323 H4310 0.929 . S
C4323 C4315 1.433 . S
C4323 N4325 1.384 . S
N4324 C4320 1.427 . S
N4324 C4321 1.384 . S
N4325 C4317 1.427 . S
N4325 C4323 1.384 . S
H4326 C4332 0.930 . S
H4327 C4336 0.930 . S
H4328 C4341 0.929 . S
H4329 C4339 0.929 . S
H4330 C4334 0.929 . S
H4331 C4340 0.929 . S
C4332 H4326 0.930 . S
C4332 C4333 1.367 . S
C4332 C4340 1.378 . S
C4333 C4332 1.367 . S
C4333 C4341 1.433 . S
C4334 H4330 0.929 . S
C4334 C4336 1.378 . S
C4334 C4338 1.350 . S
C4335 C4338 1.463 . S
C4335 C4340 1.350 . S
C4335 N4343 1.427 . S
C4336 H4327 0.930 . S
C4336 C4334 1.378 . S
C4336 C4337 1.367 . S
C4337 C4336 1.367 . S
C4337 C4339 1.433 . S
C4338 C4334 1.350 . S
C4338 C4335 1.463 . S
C4338 N4342 1.427 . S
C4339 H4329 0.929 . S
C4339 C4337 1.433 . S
C4339 N4342 1.384 . S
C4340 H4331 0.929 . S
C4340 C4332 1.378 . S
C4340 C4335 1.350 . S
C4341 H4328 0.929 . S
C4341 C4333 1.433 . S
C4341 N4343 1.384 . S
N4342 C4338 1.427 . S
N4342 C4339 1.384 . S
N4343 C4335 1.427 . S
N4343 C4341 1.384 . S
H4344 C4350 0.930 . S
H4345 C4354 0.930 . S
H4346 C4359 0.929 . S
H4347 C4357 0.929 . S
H4348 C4352 0.929 . S
H4349 C4358 0.929 . S
C4350 H4344 0.930 . S
C4350 C4351 1.367 . S
C4350 C4358 1.378 . S
C4351 C4350 1.367 . S
C4351 C4359 1.433 . S
C4352 H4348 0.929 . S
C4352 C4354 1.378 . S
C4352 C4356 1.350 . S
C4353 C4356 1.463 . S
C4353 C4358 1.350 . S
C4353 N4361 1.427 . S
C4354 H4345 0.930 . S
C4354 C4352 1.378 . S
C4354 C4355 1.367 . S
C4355 C4354 1.367 . S
C4355 C4357 1.433 . S
C4356 C4352 1.350 . S
C4356 C4353 1.463 . S
C4356 N4360 1.427 . S
C4357 H4347 0.929 . S
C4357 C4355 1.433 . S
C4357 N4360 1.384 . S
C4358 H4349 0.929 . S
C4358 C4350 1.378 . S
C4358 C4353 1.350 . S
C4359 H4346 0.929 . S
C4359 C4351 1.433 . S
C4359 N4361 1.384 . S
N4360 C4356 1.427 . S
N4360 C4357 1.384 . S
N4361 C4353 1.427 . S
N4361 C4359 1.384 . S
H4362 C4368 0.930 . S
H4363 C4372 0.930 . S
H4364 C4377 0.929 . S
H4365 C4375 0.929 . S
H4366 C4370 0.929 . S
H4367 C4376 0.929 . S
C4368 H4362 0.930 . S
C4368 C4369 1.367 . S
C4368 C4376 1.378 . S
C4369 C4368 1.367 . S
C4369 C4377 1.433 . S
C4370 H4366 0.929 . S
C4370 C4372 1.378 . S
C4370 C4374 1.350 . S
C4371 C4374 1.463 . S
C4371 C4376 1.350 . S
C4371 N4379 1.427 . S
C4372 H4363 0.930 . S
C4372 C4370 1.378 . S
C4372 C4373 1.367 . S
C4373 C4372 1.367 . S
C4373 C4375 1.433 . S
C4374 C4370 1.350 . S
C4374 C4371 1.463 . S
C4374 N4378 1.427 . S
C4375 H4365 0.929 . S
C4375 C4373 1.433 . S
C4375 N4378 1.384 . S
C4376 H4367 0.929 . S
C4376 C4368 1.378 . S
C4376 C4371 1.350 . S
C4377 H4364 0.929 . S
C4377 C4369 1.433 . S
C4377 N4379 1.384 . S
N4378 C4374 1.427 . S
N4378 C4375 1.384 . S
N4379 C4371 1.427 . S
N4379 C4377 1.384 . S
H4380 C4386 0.930 . S
H4381 C4390 0.930 . S
H4382 C4395 0.929 . S
H4383 C4393 0.929 . S
H4384 C4388 0.929 . S
H4385 C4394 0.929 . S
C4386 H4380 0.930 . S
C4386 C4387 1.367 . S
C4386 C4394 1.378 . S
C4387 C4386 1.367 . S
C4387 C4395 1.433 . S
C4388 H4384 0.929 . S
C4388 C4390 1.378 . S
C4388 C4392 1.350 . S
C4389 C4392 1.463 . S
C4389 C4394 1.350 . S
C4389 N4397 1.427 . S
C4390 H4381 0.930 . S
C4390 C4388 1.378 . S
C4390 C4391 1.367 . S
C4391 C4390 1.367 . S
C4391 C4393 1.433 . S
C4392 C4388 1.350 . S
C4392 C4389 1.463 . S
C4392 N4396 1.427 . S
C4393 H4383 0.929 . S
C4393 C4391 1.433 . S
C4393 N4396 1.384 . S
C4394 H4385 0.929 . S
C4394 C4386 1.378 . S
C4394 C4389 1.350 . S
C4395 H4382 0.929 . S
C4395 C4387 1.433 . S
C4395 N4397 1.384 . S
N4396 C4392 1.427 . S
N4396 C4393 1.384 . S
N4397 C4389 1.427 . S
N4397 C4395 1.384 . S
H4398 C4404 0.930 . S
H4399 C4408 0.930 . S
H4400 C4413 0.929 . S
H4401 C4411 0.929 . S
H4402 C4406 0.929 . S
H4403 C4412 0.929 . S
C4404 H4398 0.930 . S
C4404 C4405 1.367 . S
C4404 C4412 1.378 . S
C4405 C4404 1.367 . S
C4405 C4413 1.433 . S
C4406 H4402 0.929 . S
C4406 C4408 1.378 . S
C4406 C4410 1.350 . S
C4407 C4410 1.463 . S
C4407 C4412 1.350 . S
C4407 N4415 1.427 . S
C4408 H4399 0.930 . S
C4408 C4406 1.378 . S
C4408 C4409 1.367 . S
C4409 C4408 1.367 . S
C4409 C4411 1.433 . S
C4410 C4406 1.350 . S
C4410 C4407 1.463 . S
C4410 N4414 1.427 . S
C4411 H4401 0.929 . S
C4411 C4409 1.433 . S
C4411 N4414 1.384 . S
C4412 H4403 0.929 . S
C4412 C4404 1.378 . S
C4412 C4407 1.350 . S
C4413 H4400 0.929 . S
C4413 C4405 1.433 . S
C4413 N4415 1.384 . S
N4414 C4410 1.427 . S
N4414 C4411 1.384 . S
N4415 C4407 1.427 . S
N4415 C4413 1.384 . S
H4416 C4422 0.930 . S
H4417 C4426 0.930 . S
H4418 C4431 0.929 . S
H4419 C4429 0.929 . S
H4420 C4424 0.929 . S
H4421 C4430 0.929 . S
C4422 H4416 0.930 . S
C4422 C4423 1.367 . S
C4422 C4430 1.378 . S
C4423 C4422 1.367 . S
C4423 C4431 1.433 . S
C4424 H4420 0.929 . S
C4424 C4426 1.378 . S
C4424 C4428 1.350 . S
C4425 C4428 1.463 . S
C4425 C4430 1.350 . S
C4425 N4433 1.427 . S
C4426 H4417 0.930 . S
C4426 C4424 1.378 . S
C4426 C4427 1.367 . S
C4427 C4426 1.367 . S
C4427 C4429 1.433 . S
C4428 C4424 1.350 . S
C4428 C4425 1.463 . S
C4428 N4432 1.427 . S
C4429 H4419 0.929 . S
C4429 C4427 1.433 . S
C4429 N4432 1.384 . S
C4430 H4421 0.929 . S
C4430 C4422 1.378 . S
C4430 C4425 1.350 . S
C4431 H4418 0.929 . S
C4431 C4423 1.433 . S
C4431 N4433 1.384 . S
N4432 C4428 1.427 . S
N4432 C4429 1.384 . S
N4433 C4425 1.427 . S
N4433 C4431 1.384 . S
H4434 C4440 0.930 . S
H4435 C4444 0.930 . S
H4436 C4449 0.929 . S
H4437 C4447 0.929 . S
H4438 C4442 0.929 . S
H4439 C4448 0.929 . S
C4440 H4434 0.930 . S
C4440 C4441 1.367 . S
C4440 C4448 1.378 . S
C4441 C4440 1.367 . S
C4441 C4449 1.433 . S
C4442 H4438 0.929 . S
C4442 C4444 1.378 . S
C4442 C4446 1.350 . S
C4443 C4446 1.463 . S
C4443 C4448 1.350 . S
C4443 N4451 1.427 . S
C4444 H4435 0.930 . S
C4444 C4442 1.378 . S
C4444 C4445 1.367 . S
C4445 C4444 1.367 . S
C4445 C4447 1.433 . S
C4446 C4442 1.350 . S
C4446 C4443 1.463 . S
C4446 N4450 1.427 . S
C4447 H4437 0.929 . S
C4447 C4445 1.433 . S
C4447 N4450 1.384 . S
C4448 H4439 0.929 . S
C4448 C4440 1.378 . S
C4448 C4443 1.350 . S
C4449 H4436 0.929 . S
C4449 C4441 1.433 . S
C4449 N4451 1.384 . S
N4450 C4446 1.427 . S
N4450 C4447 1.384 . S
N4451 C4443 1.427 . S
N4451 C4449 1.384 . S
H4452 C4458 0.930 . S
H4453 C4462 0.930 . S
H4454 C4467 0.929 . S
H4455 C4465 0.929 . S
H4456 C4460 0.929 . S
H4457 C4466 0.929 . S
C4458 H4452 0.930 . S
C4458 C4459 1.367 . S
C4458 C4466 1.378 . S
C4459 C4458 1.367 . S
C4459 C4467 1.433 . S
C4460 H4456 0.929 . S
C4460 C4462 1.378 . S
C4460 C4464 1.350 . S
C4461 C4464 1.463 . S
C4461 C4466 1.350 . S
C4461 N4469 1.427 . S
C4462 H4453 0.930 . S
C4462 C4460 1.378 . S
C4462 C4463 1.367 . S
C4463 C4462 1.367 . S
C4463 C4465 1.433 . S
C4464 C4460 1.350 . S
C4464 C4461 1.463 . S
C4464 N4468 1.427 . S
C4465 H4455 0.929 . S
C4465 C4463 1.433 . S
C4465 N4468 1.384 . S
C4466 H4457 0.929 . S
C4466 C4458 1.378 . S
C4466 C4461 1.350 . S
C4467 H4454 0.929 . S
C4467 C4459 1.433 . S
C4467 N4469 1.384 . S
N4468 C4464 1.427 . S
N4468 C4465 1.384 . S
N4469 C4461 1.427 . S
N4469 C4467 1.384 . S
H4470 C4476 0.930 . S
H4471 C4480 0.930 . S
H4472 C4485 0.929 . S
H4473 C4483 0.929 . S
H4474 C4478 0.929 . S
H4475 C4484 0.929 . S
C4476 H4470 0.930 . S
C4476 C4477 1.367 . S
C4476 C4484 1.378 . S
C4477 C4476 1.367 . S
C4477 C4485 1.433 . S
C4478 H4474 0.929 . S
C4478 C4480 1.378 . S
C4478 C4482 1.350 . S
C4479 C4482 1.463 . S
C4479 C4484 1.350 . S
C4479 N4487 1.427 . S
C4480 H4471 0.930 . S
C4480 C4478 1.378 . S
C4480 C4481 1.367 . S
C4481 C4480 1.367 . S
C4481 C4483 1.433 . S
C4482 C4478 1.350 . S
C4482 C4479 1.463 . S
C4482 N4486 1.427 . S
C4483 H4473 0.929 . S
C4483 C4481 1.433 . S
C4483 N4486 1.384 . S
C4484 H4475 0.929 . S
C4484 C4476 1.378 . S
C4484 C4479 1.350 . S
C4485 H4472 0.929 . S
C4485 C4477 1.433 . S
C4485 N4487 1.384 . S
N4486 C4482 1.427 . S
N4486 C4483 1.384 . S
N4487 C4479 1.427 . S
N4487 C4485 1.384 . S
H4488 C4494 0.930 . S
H4489 C4498 0.930 . S
H4490 C4503 0.929 . S
H4491 C4501 0.929 . S
H4492 C4496 0.929 . S
H4493 C4502 0.929 . S
C4494 H4488 0.930 . S
C4494 C4495 1.367 . S
C4494 C4502 1.378 . S
C4495 C4494 1.367 . S
C4495 C4503 1.433 . S
C4496 H4492 0.929 . S
C4496 C4498 1.378 . S
C4496 C4500 1.350 . S
C4497 C4500 1.463 . S
C4497 C4502 1.350 . S
C4497 N4505 1.427 . S
C4498 H4489 0.930 . S
C4498 C4496 1.378 . S
C4498 C4499 1.367 . S
C4499 C4498 1.367 . S
C4499 C4501 1.433 . S
C4500 C4496 1.350 . S
C4500 C4497 1.463 . S
C4500 N4504 1.427 . S
C4501 H4491 0.929 . S
C4501 C4499 1.433 . S
C4501 N4504 1.384 . S
C4502 H4493 0.929 . S
C4502 C4494 1.378 . S
C4502 C4497 1.350 . S
C4503 H4490 0.929 . S
C4503 C4495 1.433 . S
C4503 N4505 1.384 . S
N4504 C4500 1.427 . S
N4504 C4501 1.384 . S
N4505 C4497 1.427 . S
N4505 C4503 1.384 . S
H4506 C4512 0.930 . S
H4507 C4516 0.930 . S
H4508 C4521 0.929 . S
H4509 C4519 0.929 . S
H4510 C4514 0.929 . S
H4511 C4520 0.929 . S
C4512 H4506 0.930 . S
C4512 C4513 1.367 . S
C4512 C4520 1.378 . S
C4513 C4512 1.367 . S
C4513 C4521 1.433 . S
C4514 H4510 0.929 . S
C4514 C4516 1.378 . S
C4514 C4518 1.350 . S
C4515 C4518 1.463 . S
C4515 C4520 1.350 . S
C4515 N4523 1.427 . S
C4516 H4507 0.930 . S
C4516 C4514 1.378 . S
C4516 C4517 1.367 . S
C4517 C4516 1.367 . S
C4517 C4519 1.433 . S
C4518 C4514 1.350 . S
C4518 C4515 1.463 . S
C4518 N4522 1.427 . S
C4519 H4509 0.929 . S
C4519 C4517 1.433 . S
C4519 N4522 1.384 . S
C4520 H4511 0.929 . S
C4520 C4512 1.378 . S
C4520 C4515 1.350 . S
C4521 H4508 0.929 . S
C4521 C4513 1.433 . S
C4521 N4523 1.384 . S
N4522 C4518 1.427 . S
N4522 C4519 1.384 . S
N4523 C4515 1.427 . S
N4523 C4521 1.384 . S
H4524 C4530 0.930 . S
H4525 C4534 0.930 . S
H4526 C4539 0.929 . S
H4527 C4537 0.929 . S
H4528 C4532 0.929 . S
H4529 C4538 0.929 . S
C4530 H4524 0.930 . S
C4530 C4531 1.367 . S
C4530 C4538 1.378 . S
C4531 C4530 1.367 . S
C4531 C4539 1.433 . S
C4532 H4528 0.929 . S
C4532 C4534 1.378 . S
C4532 C4536 1.350 . S
C4533 C4536 1.463 . S
C4533 C4538 1.350 . S
C4533 N4541 1.427 . S
C4534 H4525 0.930 . S
C4534 C4532 1.378 . S
C4534 C4535 1.367 . S
C4535 C4534 1.367 . S
C4535 C4537 1.433 . S
C4536 C4532 1.350 . S
C4536 C4533 1.463 . S
C4536 N4540 1.427 . S
C4537 H4527 0.929 . S
C4537 C4535 1.433 . S
C4537 N4540 1.384 . S
C4538 H4529 0.929 . S
C4538 C4530 1.378 . S
C4538 C4533 1.350 . S
C4539 H4526 0.929 . S
C4539 C4531 1.433 . S
C4539 N4541 1.384 . S
N4540 C4536 1.427 . S
N4540 C4537 1.384 . S
N4541 C4533 1.427 . S
N4541 C4539 1.384 . S
H4542 C4548 0.930 . S
H4543 C4552 0.930 . S
H4544 C4557 0.929 . S
H4545 C4555 0.929 . S
H4546 C4550 0.929 . S
H4547 C4556 0.929 . S
C4548 H4542 0.930 . S
C4548 C4549 1.367 . S
C4548 C4556 1.378 . S
C4549 C4548 1.367 . S
C4549 C4557 1.433 . S
C4550 H4546 0.929 . S
C4550 C4552 1.378 . S
C4550 C4554 1.350 . S
C4551 C4554 1.463 . S
C4551 C4556 1.350 . S
C4551 N4559 1.427 . S
C4552 H4543 0.930 . S
C4552 C4550 1.378 . S
C4552 C4553 1.367 . S
C4553 C4552 1.367 . S
C4553 C4555 1.433 . S
C4554 C4550 1.350 . S
C4554 C4551 1.463 . S
C4554 N4558 1.427 . S
C4555 H4545 0.929 . S
C4555 C4553 1.433 . S
C4555 N4558 1.384 . S
C4556 H4547 0.929 . S
C4556 C4548 1.378 . S
C4556 C4551 1.350 . S
C4557 H4544 0.929 . S
C4557 C4549 1.433 . S
C4557 N4559 1.384 . S
N4558 C4554 1.427 . S
N4558 C4555 1.384 . S
N4559 C4551 1.427 . S
N4559 C4557 1.384 . S
C2839 C1832 1.512 . S
C2843 C5 1.509 . S
C2857 C62 1.512 . S
C2861 C1657 1.505 . S
C2875 C123 1.509 . S
C2879 C1714 1.511 . S
C2893 C1775 1.508 . S
C2897 C180 1.511 . S
C2911 C1478 1.511 . S
C2915 C241 1.507 . S
C2929 C298 1.512 . S
C2933 C1539 1.505 . S
C2947 C1596 1.511 . S
C2951 C359 1.509 . S
C2965 C416 1.511 . S
C2969 C1421 1.508 . S
C2983 C477 1.505 . S
C2987 C2601 1.504 . S
C3001 C2422 1.511 . S
C3005 C536 1.505 . S
C3019 C2483 1.500 . S
C3023 C595 1.500 . S
C3037 C654 1.505 . S
C3041 C2540 1.512 . S
C3055 C713 1.501 . S
C3059 C2778 1.500 . S
C3073 C772 1.509 . S
C3077 C2658 1.511 . S
C3091 C831 1.501 . S
C3095 C2719 1.503 . S
C3109 C2363 1.513 . S
C3113 C890 1.505 . S
C3127 C2306 1.509 . S
C3131 C947 1.512 . S
C3145 C1006 1.512 . S
C3149 C1952 1.509 . S
C3163 C2011 1.500 . S
C3167 C1067 1.502 . S
C3181 C1124 1.512 . S
C3185 C2070 1.505 . S
C3199 C1893 1.502 . S
C3203 C1185 1.500 . S
C3217 C2188 1.505 . S
C3221 C1242 1.512 . S
C3235 C1303 1.504 . S
C3239 C2247 1.502 . S
C3253 C2129 1.504 . S
C3257 C1362 1.502 . S
C3271 C534 1.198 . S
C3275 C3 1.195 . S
C3289 C593 1.197 . S
C3293 C64 1.197 . S
C3307 C121 1.197 . S
C3311 C652 1.195 . S
C3325 C475 1.194 . S
C3329 C182 1.197 . S
C3343 C239 1.198 . S
C3347 C888 1.198 . S
C3361 C711 1.196 . S
C3365 C300 1.196 . S
C3379 C770 1.197 . S
C3383 C357 1.195 . S
C3397 C829 1.196 . S
C3401 C418 1.196 . S
C3415 C1065 1.193 . S
C3419 C949 1.198 . S
C3433 C1301 1.193 . S
C3437 C1008 1.197 . S
C3451 C1360 1.196 . S
C3455 C1126 1.196 . S
C3469 C1183 1.196 . S
C3473 C1244 1.196 . S
C3487 C1950 1.196 . S
C3491 C1419 1.195 . S
C3505 C2009 1.197 . S
C3509 C1480 1.197 . S
C3523 C2068 1.196 . S
C3527 C1537 1.199 . S
C3541 C1598 1.197 . S
C3545 C1891 1.194 . S
C3559 C1655 1.198 . S
C3563 C2304 1.195 . S
C3577 C1716 1.197 . S
C3581 C2127 1.195 . S
C3595 C2186 1.195 . S
C3599 C1773 1.199 . S
C3613 C2245 1.196 . S
C3617 C1834 1.196 . S
C3631 C2365 1.197 . S
C3635 C2481 1.197 . S
C3649 C2717 1.193 . S
C3653 C2424 1.197 . S
C3667 C2776 1.197 . S
C3671 C2542 1.197 . S
C3685 C2660 1.198 . S
C3689 C2599 1.193 . S
C3703 C33 1.677 . S
C3707 C1114 1.713 . S
C3721 C111 1.674 . S
C3725 C1154 1.675 . S
C3739 C151 1.676 . S
C3743 C1232 1.713 . S
C3757 C1036 1.674 . S
C3761 C229 1.674 . S
C3775 C269 1.676 . S
C3779 C1350 1.714 . S
C3793 C347 1.674 . S
C3797 C977 1.675 . S
C3811 C1409 1.713 . S
C3815 C387 1.677 . S
C3829 C1272 1.674 . S
C3833 C465 1.675 . S
C3847 C505 1.678 . S
C3851 C583 1.713 . S
C3865 C564 1.677 . S
C3869 C642 1.713 . S
C3883 C623 1.678 . S
C3887 C701 1.711 . S
C3901 C524 1.713 . S
C3905 C682 1.676 . S
C3919 C937 1.712 . S
C3923 C741 1.678 . S
C3937 C760 1.714 . S
C3941 C800 1.677 . S
C3955 C819 1.711 . S
C3959 C859 1.679 . S
C3973 C918 1.677 . S
C3977 C878 1.713 . S
C3991 C210 1.674 . S
C3995 C996 1.674 . S
C4009 C328 1.674 . S
C4013 C1055 1.675 . S
C4027 C406 1.711 . S
C4031 C1095 1.679 . S
C4045 C1173 1.675 . S
C4049 C446 1.675 . S
C4063 C288 1.711 . S
C4067 C1213 1.678 . S
C4081 C92 1.675 . S
C4085 C1291 1.675 . S
C4099 C170 1.712 . S
C4103 C1331 1.678 . S
C4117 C52 1.711 . S
C4121 C1390 1.678 . S
C4135 C2530 1.676 . S
C4139 C1449 1.677 . S
C4153 C1527 1.674 . S
C4157 C2570 1.676 . S
C4171 C2648 1.675 . S
C4175 C1567 1.676 . S
C4189 C2452 1.675 . S
C4193 C1645 1.675 . S
C4207 C1685 1.676 . S
C4211 C2766 1.675 . S
C4225 C1763 1.674 . S
C4229 C2393 1.676 . S
C4243 C2825 1.676 . S
C4247 C1803 1.677 . S
C4261 C1881 1.676 . S
C4265 C2688 1.676 . S
C4279 C1921 1.678 . S
C4283 C1999 1.675 . S
C4297 C1980 1.677 . S
C4301 C2058 1.675 . S
C4315 C2039 1.677 . S
C4319 C2117 1.675 . S
C4333 C2098 1.676 . S
C4337 C1940 1.674 . S
C4351 C2353 1.678 . S
C4355 C2157 1.678 . S
C4369 C2176 1.676 . S
C4373 C2216 1.677 . S
C4387 C2235 1.676 . S
C4391 C2275 1.679 . S
C4405 C2334 1.677 . S
C4409 C2294 1.674 . S
C4423 C1626 1.675 . S
C4427 C2412 1.675 . S
C4441 C1744 1.675 . S
C4445 C2471 1.675 . S
C4459 C1822 1.677 . S
C4463 C2511 1.678 . S
C4477 C2589 1.675 . S
C4481 C1862 1.676 . S
C4495 C1704 1.676 . S
C4499 C2629 1.679 . S
C4513 C1508 1.677 . S
C4517 C2707 1.674 . S
C4531 C2747 1.679 . S
C4535 C1586 1.676 . S
C4549 C1468 1.675 . S
C4553 C2806 1.679 . S
