# Generated by pormake.
# Topology snp, (6)-cn, num edge types: 1
# Building blocks:
#     Node 0, Type 0, BuildingBlock: FUNLAD_clean_sbu_0, # of connection points: 6
#     Node 1, Type 0, BuildingBlock: FUNLAD_clean_sbu_0, # of connection points: 6
#     Node 2, Type 0, BuildingBlock: FUNLAD_clean_sbu_0, # of connection points: 6
#     Node 3, Type 0, BuildingBlock: FUNLAD_clean_sbu_0, # of connection points: 6
#     Edge 4, Type (0, 0), BuildingBlock: FUNLAD_clean_linker_1, # of connection points: 2
#     Edge 5, Type (0, 0), BuildingBlock: FUNLAD_clean_linker_1, # of connection points: 2
#     Edge 6, Type (0, 0), BuildingBlock: FUNLAD_clean_linker_1, # of connection points: 2
#     Edge 7, Type (0, 0), BuildingBlock: FUNLAD_clean_linker_1, # of connection points: 2
#     Edge 8, Type (0, 0), BuildingBlock: FUNLAD_clean_linker_1, # of connection points: 2
#     Edge 9, Type (0, 0), BuildingBlock: FUNLAD_clean_linker_1, # of connection points: 2
#     Edge 10, Type (0, 0), BuildingBlock: FUNLAD_clean_linker_1, # of connection points: 2
#     Edge 11, Type (0, 0), BuildingBlock: FUNLAD_clean_linker_1, # of connection points: 2
#     Edge 12, Type (0, 0), BuildingBlock: FUNLAD_clean_linker_1, # of connection points: 2
#     Edge 13, Type (0, 0), BuildingBlock: FUNLAD_clean_linker_1, # of connection points: 2
#     Edge 14, Type (0, 0), BuildingBlock: FUNLAD_clean_linker_1, # of connection points: 2
#     Edge 15, Type (0, 0), BuildingBlock: FUNLAD_clean_linker_1, # of connection points: 2
# Relax obj value: 1.220
# Max RMSD: 0.253
# Mean RMSD: 0.253
data_MOF--net-snp--node1-FUNLAD_clean_sbu_0--edge1-FUNLAD_clean_linker_1
_symmetry_space_group_name_H-M    P1
_symmetry_Int_Tables_number       1
_symmetry_cell_setting            triclinic
loop_
_symmetry_equiv_pos_as_xyz
'x, y, z'
_cell_length_a     35.809447
_cell_length_b     36.160193
_cell_length_c     22.717907
_cell_angle_alpha  91.560867
_cell_angle_beta   90.458351
_cell_angle_gamma 90.233723
loop_
_atom_site_label
_atom_site_type_symbol
_atom_site_fract_x
_atom_site_fract_y
_atom_site_fract_z
_atom_type_partial_charge
C0 C 0.24328 0.04904 0.92861 0.0
N1 N 0.35596 0.07183 1.0006 0.0
C2 C 0.36936 0.03662 0.99834 0.0
C3 C 0.40808 0.03012 0.99605 0.0
C4 C 0.43353 0.05998 0.99653 0.0
C5 C 0.41866 0.09596 0.99714 0.0
C6 C 0.37995 0.10118 0.9995 0.0
Zn7 Zn 0.29954 0.08476 0.01432 0.0
C8 C 0.27691 0.15209 0.94749 0.0
N9 N 0.18795 0.12028 0.05136 0.0
C10 C 0.16767 0.1383 0.01029 0.0
C11 C 0.17643 0.11899 0.10833 0.0
C12 C 0.14293 0.13548 0.12545 0.0
C13 C 0.12154 0.15393 0.08375 0.0
C14 C 0.13465 0.1562 0.026 0.0
Zn15 Zn 0.24049 0.1023 0.03143 0.0
O16 O 0.27834 0.04835 0.941 0.0
C17 C 0.26094 0.03458 0.09769 0.0
O18 O 0.22177 0.06967 0.95921 0.0
H19 H 0.19341 0.10545 0.14078 0.0
H20 H 0.35014 0.01351 0.99974 0.0
H21 H 0.1772 0.13892 0.96537 0.0
O22 O 0.29304 0.04022 0.07558 0.0
O23 O 0.23419 0.05623 0.08573 0.0
H24 H 0.36915 0.12904 1.00189 0.0
O25 O 0.25833 0.1347 0.10188 0.0
O26 O 0.31726 0.1215 0.08819 0.0
O27 O 0.24748 0.1476 0.97708 0.0
O28 O 0.30372 0.1294 0.9528 0.0
C29 C 0.2921 0.13903 0.1166 0.0
H30 H 0.41808 1.00189 0.99518 0.0
H31 H 0.43635 0.12019 0.99606 0.0
H32 H 0.13323 0.13284 0.1702 0.0
H33 H 0.11854 0.17009 0.99275 0.0
C34 C 0.15185 0.26844 0.43996 0.0
N35 N 0.08151 0.35097 0.51736 0.0
C36 C 0.11135 0.37397 0.51123 0.0
C37 C 0.10647 0.41217 0.50768 0.0
C38 C 0.0704 0.4273 0.5111 0.0
C39 C 0.04001 0.40283 0.51606 0.0
C40 C 0.04617 0.36463 0.51933 0.0
Zn41 Zn 0.09301 0.29547 0.52758 0.0
C42 C 0.04514 0.24433 0.44569 0.0
N43 N 0.12389 0.18314 0.54975 0.0
C44 C 0.16106 0.17546 0.54412 0.0
C45 C 0.10131 0.16092 0.58117 0.0
C46 C 0.1159 0.13026 0.60876 0.0
C47 C 0.15308 0.12001 0.5991 0.0
C48 C 0.1762 0.14358 0.56794 0.0
Zn49 Zn 0.10614 0.23535 0.53134 0.0
O50 O 0.13475 0.29759 0.45727 0.0
C51 C 0.15362 0.28414 0.61241 0.0
O52 O 0.14459 0.23813 0.46396 0.0
H53 H 0.07201 0.16701 0.58554 0.0
H54 H 0.13927 0.36273 0.50977 0.0
H55 H 0.17943 0.1943 0.52221 0.0
O56 O 0.13449 0.31083 0.59345 0.0
O57 O 0.14687 0.25184 0.59244 0.0
H58 H 0.02278 0.34598 0.52426 0.0
O59 O 0.06648 0.2326 0.59883 0.0
O60 O 0.05199 0.29134 0.59825 0.0
O61 O 0.06448 0.21869 0.46847 0.0
O62 O 0.05104 0.27802 0.4621 0.0
C63 C 0.04727 0.25927 0.61906 0.0
H64 H 0.13094 0.42925 0.50199 0.0
H65 H 1.0117 0.41321 0.51832 0.0
H66 H 0.09764 0.11302 0.63363 0.0
H67 H 0.20513 0.13659 0.55987 0.0
C68 C 0.90426 0.10605 0.93111 0.0
N69 N 0.8092 0.06336 0.02299 0.0
C70 C 0.79454 0.09805 0.02558 0.0
C71 C 0.7556 0.10318 0.02641 0.0
C72 C 0.7312 0.07248 0.02416 0.0
C73 C 0.74732 0.03702 0.02292 0.0
C74 C 0.78625 0.03316 0.02213 0.0
Zn75 Zn 0.8665 0.05321 0.0134 0.0
C76 C 0.88142 0.9993 0.91396 0.0
N77 N 0.98136 0.02629 0.98612 0.0
C78 C 0.9948 0.0274 0.93022 0.0
C79 C 1.00053 1.00895 0.02927 0.0
C80 C 0.03429 0.99157 0.0168 0.0
C81 C 0.04933 0.99363 0.96027 0.0
C82 C 0.0291 0.01132 0.91634 0.0
Zn83 Zn 0.92746 0.04188 1.00098 0.0
O84 O 0.87215 0.09761 0.95091 0.0
C85 C 0.91869 0.09425 0.10154 0.0
O86 O 0.93255 0.08716 0.94573 0.0
H87 H 0.98946 1.00806 0.07332 0.0
H88 H 0.81297 0.12183 0.02588 0.0
H89 H 0.97867 0.04027 0.89606 0.0
O90 O 0.88384 0.09188 0.08774 0.0
O91 O 0.94235 0.07568 0.072 0.0
H92 H 0.79813 1.00573 0.01973 0.0
O93 O 0.92165 0.99747 0.05614 0.0
O94 O 0.8629 1.00865 0.07568 0.0
O95 O 0.9138 1.00777 0.93158 0.0
O96 O 0.8533 0.01394 0.9394 0.0
C97 C 0.8922 0.9895 0.08335 0.0
H98 H 0.74464 0.13106 0.02776 0.0
H99 H 0.73046 0.01218 0.02243 0.0
H100 H 0.04941 0.97817 0.05167 0.0
H101 H 0.04035 0.01387 0.8725 0.0
C102 C 0.11206 0.88703 0.40895 0.0
N103 N 0.03756 0.96581 0.47719 0.0
C104 C 0.06073 0.98825 0.44721 0.0
C105 C 0.04694 0.02 0.42161 0.0
C106 C 1.01 0.03087 0.43208 0.0
C107 C 0.98629 1.00707 0.4616 0.0
C108 C 1.00056 0.97418 0.48304 0.0
Zn109 Zn 0.05413 0.91303 0.49463 0.0
C110 C 1.00422 0.86637 0.41225 0.0
N111 N 0.07215 0.79617 0.50851 0.0
C112 C 0.10734 0.7821 0.50784 0.0
C113 C 0.04193 0.7735 0.51335 0.0
C114 C 0.0463 0.73523 0.51693 0.0
C115 C 0.08225 0.7197 0.51493 0.0
C116 C 0.11299 0.74384 0.51119 0.0
Zn117 Zn 0.06206 0.85199 0.49855 0.0
O118 O 0.09506 0.91517 0.42925 0.0
C119 C 0.11194 0.90168 0.58259 0.0
O120 O 0.10409 0.85525 0.42864 0.0
H121 H 1.01414 0.78506 0.51386 0.0
H122 H 0.08981 0.98145 0.44256 0.0
H123 H 0.13103 0.80049 0.50396 0.0
O124 O 0.09458 0.92828 0.55895 0.0
O125 O 0.10432 0.86829 0.56598 0.0
H126 H 0.9816 0.95519 0.50332 0.0
O127 O 0.019 0.85043 0.56582 0.0
O128 O 1.0143 0.9106 0.56084 0.0
O129 O 0.0199 0.83812 0.43305 0.0
O130 O 1.01421 0.89811 0.43113 0.0
C131 C 1.00384 0.88058 0.58296 0.0
H132 H 0.06555 0.03736 0.39739 0.0
H133 H 0.95755 0.01454 0.47021 0.0
H134 H 0.02153 0.71842 0.52154 0.0
H135 H 0.1412 0.73316 0.51001 0.0
H136 H 0.09687 0.95993 0.92758 0.0
C137 C 0.0892 0.98512 0.95123 0.0
H138 H 0.14505 1.00276 0.9645 0.0
H139 H 0.05227 0.09513 0.1701 0.0
H140 H 0.07486 0.04459 0.2294 0.0
H141 H 0.11258 0.99435 0.18465 0.0
H142 H 0.12835 0.99456 0.08055 0.0
C143 C 0.11572 1.00899 0.97103 0.0
C144 C 0.1047 0.04452 1.00066 0.0
C145 C 0.09817 0.04538 0.06207 0.0
C146 C 0.07679 0.07443 0.08794 0.0
C147 C 0.06893 0.07381 0.14879 0.0
C148 C 0.08159 0.04498 0.18306 0.0
C149 C 0.10285 0.0167 0.15786 0.0
C150 C 0.11153 0.017 0.09819 0.0
H151 H 0.07618 0.18945 0.11987 0.0
C152 C 0.08235 0.16353 0.09694 0.0
H153 H 0.02584 0.14643 0.09234 0.0
H154 H 0.11665 0.0537 0.8836 0.0
H155 H 0.09164 0.1029 0.82388 0.0
H156 H 0.05121 0.15122 0.868 0.0
H157 H 0.03677 0.15142 0.97272 0.0
C158 C 0.05462 0.13968 0.08217 0.0
C159 C 0.06366 0.10349 0.05296 0.0
C160 C 0.06926 0.10207 0.99141 0.0
C161 C 0.09124 0.07348 0.96565 0.0
C162 C 0.09915 0.07436 0.90481 0.0
C163 C 0.08501 0.10238 0.87024 0.0
C164 C 0.0623 0.12963 0.89512 0.0
C165 C 0.05438 0.12959 0.95505 0.0
H166 H 0.97336 0.07565 0.39988 0.0
C167 C 0.99877 0.06978 0.4242 0.0
H168 H 1.00815 0.12589 0.44731 0.0
H169 H 0.09508 0.01741 0.6396 0.0
H170 H 0.03289 1.00939 0.67978 0.0
H171 H 0.97869 0.04076 0.63605 0.0
H172 H 0.98622 0.07932 0.55065 0.0
C173 C 0.01733 0.09771 0.45225 0.0
C174 C 0.0506 0.09047 0.49006 0.0
C175 C 0.04617 0.06981 0.5418 0.0
C176 C 0.0775 0.05253 0.56784 0.0
C177 C 0.07208 0.03092 0.61805 0.0
C178 C 0.03659 0.02621 0.64154 0.0
C179 C 1.00605 0.04384 0.61688 0.0
C180 C 1.01069 0.06572 0.5679 0.0
H181 H 0.19035 0.07667 0.63463 0.0
C182 C 0.16502 0.08152 0.60946 0.0
H183 H 0.15592 0.02469 0.59157 0.0
H184 H 0.06928 0.13198 0.396 0.0
H185 H 0.1316 0.14083 0.35684 0.0
H186 H 0.18576 0.10907 0.40014 0.0
H187 H 0.17786 0.06907 0.48385 0.0
C188 C 0.14676 0.05256 0.58359 0.0
C189 C 0.11359 0.05828 0.54476 0.0
C190 C 0.11794 0.07861 0.49266 0.0
C191 C 0.08667 0.0961 0.46686 0.0
C192 C 0.09221 0.11824 0.41728 0.0
C193 C 0.12779 0.12344 0.39439 0.0
C194 C 0.15829 0.10558 0.41879 0.0
C195 C 0.15346 0.08287 0.46676 0.0
H196 H 0.67986 0.1068 0.03155 0.0
C197 C 0.68962 0.07872 0.02325 0.0
H198 H 0.67185 0.02377 1.00273 0.0
H199 H 0.50799 0.03694 0.09989 0.0
H200 H 0.53715 1.00059 0.17539 0.0
H201 H 0.60523 0.99066 0.17655 0.0
H202 H 0.6447 0.01731 0.10241 0.0
C203 C 0.66361 0.05219 0.01115 0.0
C204 C 0.62226 0.05964 0.01099 0.0
C205 C 0.59918 0.04334 0.05389 0.0
C206 C 0.55964 0.04869 0.05278 0.0
C207 C 0.53787 0.03314 0.09767 0.0
C208 C 0.55429 0.01233 0.14154 0.0
C209 C 0.59264 1.00676 0.14221 0.0
C210 C 0.61495 0.02211 0.09921 0.0
H211 H 0.4838 0.02422 0.98725 0.0
C212 C 0.47489 0.05249 0.99641 0.0
H213 H 0.49415 0.10673 0.01848 0.0
H214 H 0.65698 0.09209 0.91862 0.0
H215 H 0.62778 0.12822 0.84288 0.0
H216 H 0.55972 0.13828 0.8419 0.0
H217 H 0.52031 0.11195 0.91643 0.0
C218 C 0.50164 0.07823 1.00888 0.0
C219 C 0.54281 0.06993 1.00813 0.0
C220 C 0.56586 0.08603 0.96502 0.0
C221 C 0.60539 0.08066 0.9661 0.0
C222 C 0.62712 0.096 0.92096 0.0
C223 C 0.61067 0.11665 0.87694 0.0
C224 C 0.57234 0.1223 0.87636 0.0
C225 C 0.55006 0.10714 0.91959 0.0
H226 H 0.03498 0.47703 0.50033 0.0
C227 C 0.06339 0.46802 0.509 0.0
H228 H 0.1185 0.48664 0.5287 0.0
H229 H 0.10132 0.64245 0.41302 0.0
H230 H 0.13773 0.61015 0.33848 0.0
H231 H 0.1492 0.54312 0.34411 0.0
H232 H 0.12406 0.5079 0.42417 0.0
C233 C 0.08988 0.49417 0.51915 0.0
C234 C 0.08189 0.53461 0.51556 0.0
C235 C 0.09734 0.55506 0.46913 0.0
C236 C 0.09114 0.59389 0.46629 0.0
C237 C 0.10584 0.61317 0.41818 0.0
C238 C 0.12665 0.59492 0.37485 0.0
C239 C 0.13309 0.55717 0.378 0.0
C240 C 0.11858 0.53731 0.42433 0.0
H241 H 0.11715 0.66966 0.52598 0.0
C242 C 0.08883 0.6789 0.5172 0.0
H243 H 0.03358 0.66063 0.49756 0.0
H244 H 0.0505 0.5046 0.613 0.0
H245 H 1.01412 0.53691 0.68758 0.0
H246 H 1.00268 0.60394 0.68197 0.0
H247 H 0.0278 0.63916 0.60189 0.0
C248 C 0.06216 0.65294 0.50707 0.0
C249 C 0.06996 0.61245 0.51051 0.0
C250 C 0.05449 0.592 0.55693 0.0
C251 C 0.06069 0.55316 0.55975 0.0
C252 C 0.04599 0.53388 0.60786 0.0
C253 C 0.0252 0.55214 0.6512 0.0
C254 C 0.01877 0.58989 0.64807 0.0
C255 C 0.03327 0.60975 0.60173 0.0
H256 H 0.18175 0.29365 0.3653 0.0
C257 C 0.17869 0.26875 0.39054 0.0
H258 H 0.19518 0.2132 0.401 0.0
H259 H 0.22351 0.20964 0.11897 0.0
H260 H 0.1582 0.22335 0.10848 0.0
H261 H 0.11988 0.23934 0.19496 0.0
H262 H 0.14746 0.24385 0.29222 0.0
C263 C 0.19739 0.23772 0.37458 0.0
C264 C 0.22127 0.23407 0.32116 0.0
C265 C 0.20466 0.23126 0.2643 0.0
C266 C 0.22672 0.22099 0.21452 0.0
C267 C 0.20889 0.21783 0.15854 0.0
C268 C 0.17101 0.22521 0.15176 0.0
C269 C 0.14948 0.2344 0.20038 0.0
C270 C 0.16585 0.2371 0.25609 0.0
H271 H 0.3029 0.14798 0.21038 0.0
C272 C 0.29978 0.16245 0.16936 0.0
H273 H 0.28356 0.21087 0.12843 0.0
H274 H 0.2622 0.23951 0.42289 0.0
H275 H 0.32887 0.2292 0.4335 0.0
H276 H 0.36736 0.21278 0.34714 0.0
H277 H 0.33937 0.20614 0.24968 0.0
C278 C 0.28686 0.19743 0.17033 0.0
C279 C 0.26539 0.21286 0.22177 0.0
C280 C 0.28228 0.21767 0.27815 0.0
C281 C 0.26015 0.22788 0.32785 0.0
C282 C 0.27768 0.2317 0.38378 0.0
C283 C 0.31592 0.22604 0.39043 0.0
C284 C 0.33759 0.21675 0.3418 0.0
C285 C 0.32115 0.21274 0.2862 0.0
H286 H 0.02075 0.27181 0.70548 0.0
C287 C 0.02162 0.2521 0.66861 0.0
H288 H 1.00493 0.2008 0.63221 0.0
H289 H 0.97551 0.0969 0.83492 0.0
H290 H 0.02241 0.06474 0.77764 0.0
H291 H 0.05624 0.09629 0.70015 0.0
H292 H 0.04194 0.15964 0.6761 0.0
C293 C 1.00351 0.21923 0.67076 0.0
C294 C 0.98678 0.2032 0.72513 0.0
C295 C 0.99747 0.16683 0.74101 0.0
C296 C 0.98001 0.14932 0.78897 0.0
C297 C 0.98897 0.11202 0.80054 0.0
C298 C 0.01572 0.0931 0.76783 0.0
C299 C 0.03465 0.11091 0.72382 0.0
C300 C 0.02586 0.14723 0.71033 0.0
H301 H 0.88624 0.14066 0.85672 0.0
C302 C 0.9089 0.13546 0.88743 0.0
H303 H 0.96472 0.14601 0.91189 0.0
H304 H 0.9534 0.26955 0.70192 0.0
H305 H 0.90809 0.30191 0.76268 0.0
H306 H 0.8845 0.27451 0.8535 0.0
H307 H 0.90533 0.21383 0.88318 0.0
C308 C 0.94238 0.15196 0.88084 0.0
C309 C 0.95424 0.16894 0.82471 0.0
C310 C 0.94334 0.20507 0.80937 0.0
C311 C 0.95863 0.22177 0.75843 0.0
C312 C 0.94464 0.25651 0.74175 0.0
C313 C 0.91825 0.27522 0.77595 0.0
C314 C 0.90486 0.25973 0.82702 0.0
C315 C 0.91706 0.22498 0.84363 0.0
H316 H 0.95618 0.83892 0.36553 0.0
C317 C 0.97337 0.86372 0.36858 0.0
H318 H 0.98289 0.91805 0.34138 0.0
H319 H 0.87133 0.88352 0.1207 0.0
H320 H 0.90511 0.82641 0.09843 0.0
H321 H 0.95177 0.80282 0.16846 0.0
H322 H 0.9643 0.8353 0.26135 0.0
C323 C 0.96521 0.89358 0.33668 0.0
C324 C 0.93038 0.89902 0.30178 0.0
C325 C 0.9238 0.87946 0.24777 0.0
C326 C 0.89809 0.89384 0.2062 0.0
C327 C 0.89142 0.87397 0.15271 0.0
C328 C 0.91047 0.84129 0.13965 0.0
C329 C 0.93669 0.82797 0.17916 0.0
C330 C 0.94355 0.84684 0.23252 0.0
H331 H 0.92214 0.94649 0.12872 0.0
C332 C 0.89502 0.95989 0.1263 0.0
H333 H 0.84265 0.96608 0.16698 0.0
H334 H 0.92878 0.93701 0.40728 0.0
H335 H 0.89326 0.99272 0.42997 0.0
H336 H 0.85157 0.01952 0.35553 0.0
H337 H 0.84452 0.99044 0.25848 0.0
C338 C 0.86923 0.95176 0.16659 0.0
C339 C 0.88098 0.92867 0.21717 0.0
C340 C 0.88343 0.9452 0.27426 0.0
C341 C 0.908 0.93015 0.31675 0.0
C342 C 0.91098 0.94779 0.37307 0.0
C343 C 0.89069 0.97963 0.3867 0.0
C344 C 0.86716 0.99468 0.3448 0.0
C345 C 0.86349 0.9778 0.28915 0.0
H346 H 0.15425 0.88593 0.64974 0.0
C347 C 0.14023 0.90925 0.63022 0.0
H348 H 0.13505 0.96704 0.62927 0.0
H349 H 0.20495 0.95545 0.89898 0.0
H350 H 0.15335 0.91443 0.92021 0.0
H351 H 0.10992 0.89304 0.84154 0.0
H352 H 0.11879 0.91104 0.74076 0.0
C353 C 0.14812 0.94393 0.65057 0.0
C354 C 0.17593 0.95342 0.69891 0.0
C355 C 0.1692 0.94416 0.75833 0.0
C356 C 0.19294 0.95846 0.80463 0.0
C357 C 0.18689 0.94679 0.86274 0.0
C358 C 0.15753 0.92304 0.87546 0.0
C359 C 0.13316 0.91088 0.83111 0.0
C360 C 0.13869 0.92133 0.77325 0.0
H361 H 0.19562 0.02994 0.8743 0.0
C362 C 0.22565 0.02677 0.87963 0.0
H363 H 0.27349 1.00081 0.84432 0.0
H364 H 0.20108 0.97166 0.59047 0.0
H365 H 0.25231 0.01326 0.56935 0.0
H366 H 0.28982 0.0422 0.64978 0.0
H367 H 0.27682 0.02928 0.75179 0.0
C368 C 0.24335 1.00366 0.84169 0.0
C369 C 0.22204 0.98395 0.79239 0.0
C370 C 0.22974 0.99188 0.73284 0.0
C371 C 0.20719 0.97614 0.68631 0.0
C372 C 0.21645 0.98382 0.62742 0.0
C373 C 0.24592 1.00745 0.61467 0.0
C374 C 0.26707 0.02371 0.65997 0.0
C375 C 0.25928 0.01605 0.71838 0.0
H376 H 0.90323 0.95094 0.86975 0.0
C377 C 0.8796 0.96973 0.86829 0.0
H378 H 0.83761 0.99116 0.81468 0.0
H379 H 0.93907 0.96377 0.59208 0.0
H380 H 0.90895 0.02226 0.57335 0.0
H381 H 0.86196 0.04785 0.64189 0.0
H382 H 0.84436 0.01481 0.72878 0.0
C383 C 0.85908 0.9703 0.81857 0.0
C384 C 0.87337 0.94911 0.7653 0.0
C385 C 0.88253 0.96841 0.71387 0.0
C386 C 0.91015 0.95393 0.67486 0.0
C387 C 0.91902 0.97391 0.62396 0.0
C388 C 0.90176 1.00741 0.61246 0.0
C389 C 0.87533 0.02181 0.65107 0.0
C390 C 0.86572 1.00268 0.70121 0.0
H391 H 0.95317 0.85783 0.62466 0.0
C392 C 0.9721 0.88136 0.62434 0.0
H393 H 0.98437 0.9355 0.65402 0.0
H394 H 0.84898 0.89843 0.8421 0.0
H395 H 0.87724 0.83842 0.86044 0.0
H396 H 0.9317 0.81709 0.80313 0.0
H397 H 0.95707 0.85425 0.72597 0.0
C398 C 0.96487 0.91243 0.65638 0.0
C399 C 0.92913 0.9206 0.68787 0.0
C400 C 0.91619 0.89892 0.73482 0.0
C401 C 0.88668 0.91242 0.77113 0.0
C402 C 0.8724 0.88966 0.81533 0.0
C403 C 0.88827 0.85538 0.82606 0.0
C404 C 0.91884 0.84332 0.7936 0.0
C405 C 0.93293 0.86483 0.74878 0.0
H406 H 0.27812 0.9966 0.16827 0.0
C407 C 0.25488 1.00507 0.14082 0.0
H408 H 0.19735 1.00126 0.12283 0.0
H409 H 0.2042 0.86894 0.31899 0.0
H410 H 0.24395 0.83487 0.25089 0.0
H411 H 0.26704 0.86365 0.16087 0.0
H412 H 0.25135 0.92723 0.13918 0.0
C413 C 0.2202 0.99209 0.1506 0.0
C414 C 0.20917 0.9742 0.20644 0.0
C415 C 0.21717 0.93663 0.21738 0.0
C416 C 0.20221 0.91939 0.26811 0.0
C417 C 0.21303 0.88274 0.27985 0.0
C418 C 0.23615 0.86299 0.24135 0.0
C419 C 0.24926 0.87924 0.19071 0.0
C420 C 0.24004 0.91568 0.17872 0.0
H421 H 0.13609 0.87431 0.3209 0.0
C422 C 0.13857 0.89226 0.35984 0.0
H423 H 0.16265 0.93924 0.40052 0.0
H424 H 0.1938 0.04819 0.20446 0.0
H425 H 0.15179 0.08195 0.26888 0.0
H426 H 0.11862 0.05023 0.34747 0.0
H427 H 0.12892 0.98555 0.36484 0.0
C428 C 0.1609 0.92252 0.36004 0.0
C429 C 0.1774 0.93918 0.30599 0.0
C430 C 0.16967 0.97696 0.29459 0.0
C431 C 0.18671 0.99467 0.24645 0.0
C432 C 0.18048 0.033 0.23893 0.0
C433 C 0.15658 0.05283 0.27575 0.0
C434 C 0.13806 0.03503 0.32024 0.0
C435 C 0.14444 0.99774 0.32988 0.0
H436 H 0.17528 0.31165 0.69426 0.0
C437 C 0.17926 0.2885 0.6635 0.0
H438 H 0.20537 0.23707 0.6468 0.0
H439 H 0.31209 0.24578 0.87214 0.0
H440 H 0.35356 0.27925 0.80799 0.0
H441 H 0.33125 0.30113 0.712 0.0
H442 H 0.26713 0.28994 0.67968 0.0
C443 C 0.20157 0.26013 0.67788 0.0
C444 C 0.2134 0.25327 0.73944 0.0
C445 C 0.25075 0.25997 0.75773 0.0
C446 C 0.26379 0.24679 0.81271 0.0
C447 C 0.30109 0.25436 0.83019 0.0
C448 C 0.32507 0.27372 0.79396 0.0
C449 C 0.31249 0.28608 0.73991 0.0
C450 C 0.27575 0.2794 0.72179 0.0
H451 H 0.29255 0.17389 0.86118 0.0
C452 C 0.27701 0.17999 0.90114 0.0
H453 H 0.23819 0.21453 0.94408 0.0
H454 H 0.13967 0.23573 0.71789 0.0
H455 H 0.09806 0.20338 0.78227 0.0
H456 H 0.12008 0.18243 0.87893 0.0
H457 H 0.18372 0.19272 0.91067 0.0
C458 C 0.25319 0.20874 0.90349 0.0
C459 C 0.23943 0.2266 0.84899 0.0
C460 C 0.20138 0.22173 0.83204 0.0
C461 C 0.18851 0.23456 0.77689 0.0
C462 C 0.15094 0.22726 0.75964 0.0
C463 C 0.12665 0.2086 0.79616 0.0
C464 C 0.13902 0.1967 0.85042 0.0
C465 C 0.17584 0.20293 0.86821 0.0
H466 H 0.96424 0.1156 0.15757 0.0
C467 C 0.93415 0.11745 0.1511 0.0
H468 H 0.88497 0.14179 0.18477 0.0
H469 H 0.95834 0.17182 0.43886 0.0
H470 H 0.90776 0.1295 0.46042 0.0
H471 H 0.86978 0.10074 0.38034 0.0
H472 H 0.8816 0.11464 0.2783 0.0
C473 C 0.91518 0.14 0.18811 0.0
C474 C 0.93576 0.16055 0.2373 0.0
C475 C 0.92851 0.15232 0.29687 0.0
C476 C 0.95132 0.16796 0.34315 0.0
C477 C 0.94275 0.15974 0.40208 0.0
C478 C 0.91364 0.13572 0.41507 0.0
C479 C 0.89222 0.11958 0.36998 0.0
C480 C 0.89934 0.12778 0.31155 0.0
H481 H 1.00081 0.25833 0.38095 0.0
C482 C 0.01649 0.23561 0.39918 0.0
H483 H 0.02518 0.17823 0.39723 0.0
H484 H 0.95267 0.18887 0.13039 0.0
H485 H 1.00483 0.22909 0.10845 0.0
H486 H 0.04802 0.2511 0.187 0.0
H487 H 0.03897 0.23377 0.28808 0.0
C488 C 1.01022 0.20088 0.37794 0.0
C489 C 0.98226 0.19099 0.33018 0.0
C490 C 0.98866 0.20041 0.27077 0.0
C491 C 0.96478 0.18611 0.22475 0.0
C492 C 0.97084 0.19755 0.16649 0.0
C493 C 1.00049 0.22088 0.15336 0.0
C494 C 0.02476 0.23335 0.19763 0.0
C495 C 0.01912 0.22327 0.25564 0.0
loop_
_geom_bond_atom_site_label_1
_geom_bond_atom_site_label_2
_geom_bond_distance
_geom_bond_site_symmetry_2
_ccdc_geom_bond_type
C0 O16 1.251 . S
C0 O18 1.254 . S
N1 C2 1.333 1_554 S
N1 C6 1.307 . S
N1 Zn7 2.020 . S
C2 N1 1.333 1_556 S
C2 C3 1.379 . S
C2 H20 0.952 . S
C3 C2 1.379 . S
C3 C4 1.390 1_556 S
C3 H30 0.949 . S
C4 C3 1.390 1_554 S
C4 C5 1.357 . S
C5 C4 1.357 . S
C5 C6 1.370 . S
C5 H31 0.950 . S
C6 N1 1.307 . S
C6 C5 1.370 . S
C6 H24 0.948 . S
Zn7 N1 2.020 . S
Zn7 O16 2.039 1_554 S
Zn7 O22 2.034 . S
Zn7 O26 2.025 . S
Zn7 O28 2.024 1_554 S
C8 O27 1.246 . S
C8 O28 1.249 . S
N9 C10 1.307 1_554 S
N9 C11 1.333 . S
N9 Zn15 2.020 . S
C10 N9 1.307 1_556 S
C10 C14 1.370 . S
C10 H21 0.948 . S
C11 N9 1.333 . S
C11 C12 1.379 . S
C11 H19 0.952 . S
C12 C11 1.379 . S
C12 C13 1.390 . S
C12 H32 0.949 . S
C13 C12 1.390 . S
C13 C14 1.357 1_554 S
C14 C10 1.370 . S
C14 C13 1.357 1_556 S
C14 H33 0.950 . S
Zn15 N9 2.020 . S
Zn15 O18 2.025 1_554 S
Zn15 O23 2.024 . S
Zn15 O25 2.039 . S
Zn15 O27 2.034 1_554 S
O16 C0 1.251 . S
O16 Zn7 2.039 1_556 S
C17 O22 1.246 . S
C17 O23 1.249 . S
O18 C0 1.254 . S
O18 Zn15 2.025 1_556 S
H19 C11 0.952 . S
H20 C2 0.952 . S
H21 C10 0.948 . S
O22 Zn7 2.034 . S
O22 C17 1.246 . S
O23 Zn15 2.024 . S
O23 C17 1.249 . S
H24 C6 0.948 . S
O25 Zn15 2.039 . S
O25 C29 1.251 . S
O26 Zn7 2.025 . S
O26 C29 1.254 . S
O27 C8 1.246 . S
O27 Zn15 2.034 1_556 S
O28 Zn7 2.024 1_556 S
O28 C8 1.249 . S
C29 O25 1.251 . S
C29 O26 1.254 . S
H30 C3 0.949 . S
H31 C5 0.950 . S
H32 C12 0.949 . S
H33 C14 0.950 . S
C34 O50 1.251 . S
C34 O52 1.254 . S
N35 C36 1.333 . S
N35 C40 1.307 . S
N35 Zn41 2.020 . S
C36 N35 1.333 . S
C36 C37 1.379 . S
C36 H54 0.952 . S
C37 C36 1.379 . S
C37 C38 1.390 . S
C37 H64 0.949 . S
C38 C37 1.390 . S
C38 C39 1.357 . S
C39 C38 1.357 . S
C39 C40 1.370 . S
C39 H65 0.950 1_455 S
C40 N35 1.307 . S
C40 C39 1.370 . S
C40 H58 0.948 1_455 S
Zn41 N35 2.020 . S
Zn41 O50 2.039 . S
Zn41 O56 2.034 . S
Zn41 O60 2.025 . S
Zn41 O62 2.024 . S
C42 O61 1.246 1_655 S
C42 O62 1.249 1_655 S
N43 C44 1.307 . S
N43 C45 1.333 . S
N43 Zn49 2.020 . S
C44 N43 1.307 . S
C44 C48 1.370 . S
C44 H55 0.948 . S
C45 N43 1.333 . S
C45 C46 1.379 . S
C45 H53 0.952 . S
C46 C45 1.379 . S
C46 C47 1.390 . S
C46 H66 0.949 1_455 S
C47 C46 1.390 . S
C47 C48 1.357 . S
C48 C44 1.370 . S
C48 C47 1.357 . S
C48 H67 0.950 . S
Zn49 N43 2.020 . S
Zn49 O52 2.025 . S
Zn49 O57 2.024 . S
Zn49 O59 2.039 . S
Zn49 O61 2.034 . S
O50 C34 1.251 . S
O50 Zn41 2.039 . S
C51 O56 1.246 . S
C51 O57 1.249 . S
O52 C34 1.254 . S
O52 Zn49 2.025 . S
H53 C45 0.952 . S
H54 C36 0.952 . S
H55 C44 0.948 . S
O56 Zn41 2.034 . S
O56 C51 1.246 . S
O57 Zn49 2.024 . S
O57 C51 1.249 . S
H58 C40 0.948 1_655 S
O59 Zn49 2.039 . S
O59 C63 1.251 1_455 S
O60 Zn41 2.025 . S
O60 C63 1.254 1_455 S
O61 C42 1.246 1_455 S
O61 Zn49 2.034 . S
O62 Zn41 2.024 . S
O62 C42 1.249 1_455 S
C63 O59 1.251 1_655 S
C63 O60 1.254 1_655 S
H64 C37 0.949 . S
H65 C39 0.950 1_655 S
H66 C46 0.949 1_655 S
H67 C48 0.950 . S
C68 O84 1.251 . S
C68 O86 1.254 . S
N69 C70 1.333 1_554 S
N69 C74 1.307 . S
N69 Zn75 2.020 . S
C70 N69 1.333 1_556 S
C70 C71 1.379 . S
C70 H88 0.952 . S
C71 C70 1.379 . S
C71 C72 1.390 1_556 S
C71 H98 0.949 . S
C72 C71 1.390 1_554 S
C72 C73 1.357 . S
C73 C72 1.357 . S
C73 C74 1.370 . S
C73 H99 0.950 1_545 S
C74 N69 1.307 . S
C74 C73 1.370 . S
C74 H92 0.948 1_545 S
Zn75 N69 2.020 . S
Zn75 O84 2.039 1_554 S
Zn75 O90 2.034 . S
Zn75 O94 2.025 . S
Zn75 O96 2.024 1_554 S
C76 O95 1.246 1_565 S
C76 O96 1.249 1_565 S
N77 C78 1.307 1_554 S
N77 C79 1.333 . S
N77 Zn83 2.020 . S
C78 N77 1.307 1_556 S
C78 C82 1.370 1_655 S
C78 H89 0.948 . S
C79 N77 1.333 . S
C79 C80 1.379 1_655 S
C79 H87 0.975 . S
C80 C79 1.379 1_455 S
C80 C81 1.390 . S
C80 H100 0.949 1_545 S
C81 C80 1.390 . S
C81 C82 1.357 1_554 S
C82 C78 1.370 1_455 S
C82 C81 1.357 1_556 S
C82 H101 0.950 . S
Zn83 N77 2.020 . S
Zn83 O86 2.025 1_554 S
Zn83 O91 2.024 . S
Zn83 O93 2.039 . S
Zn83 O95 2.034 1_554 S
O84 C68 1.251 . S
O84 Zn75 2.039 1_556 S
C85 O90 1.246 . S
C85 O91 1.249 . S
O86 C68 1.254 . S
O86 Zn83 2.025 1_556 S
H87 C79 0.975 . S
H88 C70 0.952 . S
H89 C78 0.948 . S
O90 Zn75 2.034 . S
O90 C85 1.246 . S
O91 Zn83 2.024 . S
O91 C85 1.249 . S
H92 C74 0.948 1_565 S
O93 Zn83 2.039 . S
O93 C97 1.251 1_545 S
O94 Zn75 2.025 . S
O94 C97 1.254 1_545 S
O95 C76 1.246 1_545 S
O95 Zn83 2.034 1_556 S
O96 Zn75 2.024 1_556 S
O96 C76 1.249 1_545 S
C97 O93 1.251 1_565 S
C97 O94 1.254 1_565 S
H98 C71 0.949 . S
H99 C73 0.950 1_565 S
H100 C80 0.949 1_565 S
H101 C82 0.950 . S
C102 O118 1.251 . S
C102 O120 1.254 . S
N103 C104 1.333 . S
N103 C108 1.307 . S
N103 Zn109 2.020 . S
C104 N103 1.333 . S
C104 C105 1.379 1_565 S
C104 H122 0.952 . S
C105 C104 1.379 1_545 S
C105 C106 1.390 . S
C105 H132 0.949 . S
C106 C105 1.390 . S
C106 C107 1.357 . S
C107 C106 1.357 . S
C107 C108 1.370 1_545 S
C107 H133 0.950 . S
C108 N103 1.307 . S
C108 C107 1.370 1_565 S
C108 H126 0.948 . S
Zn109 N103 2.020 . S
Zn109 O118 2.039 . S
Zn109 O124 2.034 . S
Zn109 O128 2.025 . S
Zn109 O130 2.024 . S
C110 O129 1.246 . S
C110 O130 1.249 . S
N111 C112 1.307 . S
N111 C113 1.333 . S
N111 Zn117 2.020 . S
C112 N111 1.307 . S
C112 C116 1.370 . S
C112 H123 0.948 . S
C113 N111 1.333 . S
C113 C114 1.379 . S
C113 H121 0.952 . S
C114 C113 1.379 . S
C114 C115 1.390 . S
C114 H134 0.949 . S
C115 C114 1.390 . S
C115 C116 1.357 . S
C116 C112 1.370 . S
C116 C115 1.357 . S
C116 H135 0.950 . S
Zn117 N111 2.020 . S
Zn117 O120 2.025 . S
Zn117 O125 2.024 . S
Zn117 O127 2.039 . S
Zn117 O129 2.034 . S
O118 C102 1.251 . S
O118 Zn109 2.039 . S
C119 O124 1.246 . S
C119 O125 1.249 . S
O120 C102 1.254 . S
O120 Zn117 2.025 . S
H121 C113 0.952 . S
H122 C104 0.952 . S
H123 C112 0.948 . S
O124 Zn109 2.034 . S
O124 C119 1.246 . S
O125 Zn117 2.024 . S
O125 C119 1.249 . S
H126 C108 0.948 . S
O127 Zn117 2.039 . S
O127 C131 1.251 . S
O128 Zn109 2.025 . S
O128 C131 1.254 . S
O129 C110 1.246 . S
O129 Zn117 2.034 . S
O130 Zn109 2.024 . S
O130 C110 1.249 . S
C131 O127 1.251 . S
C131 O128 1.254 . S
H132 C105 0.949 . S
H133 C107 0.950 . S
H134 C114 0.949 . S
H135 C116 0.950 . S
H136 C137 0.951 . S
C137 H136 0.951 . S
C137 C143 1.265 1_565 S
H138 C143 0.950 1_655 S
H139 C147 0.949 . S
H140 C148 0.950 . S
H141 C149 0.951 . S
H142 C150 0.968 . S
C143 C137 1.265 1_545 S
C143 H138 0.950 1_455 S
C143 C144 1.478 . S
C144 C143 1.478 . S
C144 C145 1.397 . S
C144 C161 1.394 1_554 S
C145 C144 1.397 . S
C145 C146 1.438 . S
C145 C150 1.429 . S
C146 C145 1.438 . S
C146 C147 1.428 . S
C146 C159 1.394 . S
C147 H139 0.949 . S
C147 C146 1.428 . S
C147 C148 1.345 . S
C148 H140 0.950 . S
C148 C147 1.345 . S
C148 C149 1.424 . S
C149 H141 0.951 . S
C149 C148 1.424 . S
C149 C150 1.347 . S
C150 H142 0.968 . S
C150 C145 1.429 . S
C150 C149 1.347 . S
H151 C152 0.951 . S
C152 H151 0.951 . S
C152 C158 1.265 . S
H153 C158 0.950 . S
H154 C162 0.946 1_565 S
H155 C163 0.950 . S
H156 C164 0.951 . S
H157 C165 0.951 . S
C158 C152 1.265 . S
C158 H153 0.950 . S
C158 C159 1.478 . S
C159 C146 1.394 . S
C159 C158 1.478 . S
C159 C160 1.397 1_554 S
C160 C159 1.397 1_556 S
C160 C161 1.438 . S
C160 C165 1.429 . S
C161 C144 1.394 1_556 S
C161 C160 1.438 . S
C161 C162 1.428 . S
C162 H154 0.946 1_545 S
C162 C161 1.428 . S
C162 C163 1.345 . S
C163 H155 0.950 . S
C163 C162 1.345 . S
C163 C164 1.424 . S
C164 H156 0.951 . S
C164 C163 1.424 . S
C164 C165 1.347 . S
C165 H157 0.951 . S
C165 C160 1.429 . S
C165 C164 1.347 . S
H166 C167 0.951 1_565 S
C167 H166 0.951 1_545 S
C167 C173 1.265 . S
H168 C173 0.950 . S
H169 C177 0.949 . S
H170 C178 0.950 . S
H171 C179 0.951 . S
H172 C180 0.951 . S
C173 C167 1.265 . S
C173 H168 0.950 . S
C173 C174 1.478 . S
C174 C173 1.478 . S
C174 C175 1.397 . S
C174 C191 1.394 . S
C175 C174 1.397 . S
C175 C176 1.438 . S
C175 C180 1.429 . S
C176 C175 1.438 . S
C176 C177 1.428 . S
C176 C189 1.394 . S
C177 H169 0.949 . S
C177 C176 1.428 . S
C177 C178 1.345 . S
C178 H170 0.950 . S
C178 C177 1.345 . S
C178 C179 1.424 . S
C179 H171 0.951 . S
C179 C178 1.424 . S
C179 C180 1.347 . S
C180 H172 0.951 . S
C180 C175 1.429 . S
C180 C179 1.347 . S
H181 C182 0.951 1_455 S
C182 H181 0.951 1_655 S
C182 C188 1.265 . S
H183 C188 0.950 . S
H184 C192 0.949 . S
H185 C193 0.950 . S
H186 C194 0.951 1_655 S
H187 C195 0.951 1_655 S
C188 C182 1.265 . S
C188 H183 0.950 . S
C188 C189 1.478 1_655 S
C189 C176 1.394 . S
C189 C188 1.478 1_455 S
C189 C190 1.397 . S
C190 C189 1.397 . S
C190 C191 1.438 . S
C190 C195 1.429 . S
C191 C174 1.394 . S
C191 C190 1.438 . S
C191 C192 1.428 1_545 S
C192 H184 0.949 . S
C192 C191 1.428 1_565 S
C192 C193 1.345 . S
C193 H185 0.950 . S
C193 C192 1.345 . S
C193 C194 1.424 . S
C194 H186 0.951 1_455 S
C194 C193 1.424 . S
C194 C195 1.347 1_565 S
C195 H187 0.951 1_455 S
C195 C190 1.429 . S
C195 C194 1.347 1_545 S
H196 C197 0.952 . S
C197 H196 0.952 . S
C197 C203 1.264 1_556 S
H198 C203 0.950 . S
H199 C207 0.949 . S
H200 C208 0.950 . S
H201 C209 0.951 . S
H202 C210 0.951 . S
C203 C197 1.264 1_554 S
C203 H198 0.950 . S
C203 C204 1.478 . S
C204 C203 1.478 . S
C204 C205 1.397 . S
C204 C221 1.394 1_554 S
C205 C204 1.397 . S
C205 C206 1.438 . S
C205 C210 1.429 . S
C206 C205 1.438 . S
C206 C207 1.428 . S
C206 C219 1.384 1_554 S
C207 H199 0.949 . S
C207 C206 1.428 . S
C207 C208 1.345 . S
C208 H200 0.950 . S
C208 C207 1.345 . S
C208 C209 1.424 . S
C209 H201 0.951 . S
C209 C208 1.424 . S
C209 C210 1.347 . S
C210 H202 0.951 . S
C210 C205 1.429 . S
C210 C209 1.347 . S
H211 C212 0.951 . S
C212 H211 0.951 . S
C212 C218 1.265 1_554 S
H213 C218 0.950 . S
H214 C222 0.949 . S
H215 C223 0.950 . S
H216 C224 0.951 . S
H217 C225 0.951 . S
C218 C212 1.265 1_556 S
C218 H213 0.950 . S
C218 C219 1.479 . S
C219 C206 1.384 1_556 S
C219 C218 1.479 . S
C219 C220 1.406 . S
C220 C219 1.406 . S
C220 C221 1.438 . S
C220 C225 1.429 . S
C221 C204 1.394 1_556 S
C221 C220 1.438 . S
C221 C222 1.428 . S
C222 H214 0.949 . S
C222 C221 1.428 . S
C222 C223 1.345 . S
C223 H215 0.950 . S
C223 C222 1.345 . S
C223 C224 1.424 . S
C224 H216 0.951 . S
C224 C223 1.424 . S
C224 C225 1.347 . S
C225 H217 0.951 . S
C225 C220 1.429 . S
C225 C224 1.347 . S
H226 C227 0.951 . S
C227 H226 0.951 . S
C227 C233 1.265 . S
H228 C233 0.950 . S
H229 C237 0.949 . S
H230 C238 0.950 . S
H231 C239 0.951 . S
H232 C240 0.951 . S
C233 C227 1.265 . S
C233 H228 0.950 . S
C233 C234 1.478 . S
C234 C233 1.478 . S
C234 C235 1.397 . S
C234 C251 1.394 . S
C235 C234 1.397 . S
C235 C236 1.438 . S
C235 C240 1.429 . S
C236 C235 1.438 . S
C236 C237 1.428 . S
C236 C249 1.394 . S
C237 H229 0.949 . S
C237 C236 1.428 . S
C237 C238 1.345 . S
C238 H230 0.950 . S
C238 C237 1.345 . S
C238 C239 1.424 . S
C239 H231 0.951 . S
C239 C238 1.424 . S
C239 C240 1.347 . S
C240 H232 0.951 . S
C240 C235 1.429 . S
C240 C239 1.347 . S
H241 C242 0.951 . S
C242 H241 0.951 . S
C242 C248 1.265 . S
H243 C248 0.950 . S
H244 C252 0.949 . S
H245 C253 0.950 . S
H246 C254 0.951 . S
H247 C255 0.951 . S
C248 C242 1.265 . S
C248 H243 0.950 . S
C248 C249 1.478 . S
C249 C236 1.394 . S
C249 C248 1.478 . S
C249 C250 1.397 . S
C250 C249 1.397 . S
C250 C251 1.438 . S
C250 C255 1.429 . S
C251 C234 1.394 . S
C251 C250 1.438 . S
C251 C252 1.428 . S
C252 H244 0.949 . S
C252 C251 1.428 . S
C252 C253 1.345 . S
C253 H245 0.950 . S
C253 C252 1.345 . S
C253 C254 1.424 . S
C254 H246 0.951 . S
C254 C253 1.424 . S
C254 C255 1.347 . S
C255 H247 0.951 . S
C255 C250 1.429 . S
C255 C254 1.347 . S
H256 C257 0.951 . S
C257 H256 0.951 . S
C257 C263 1.265 . S
H258 C263 0.950 . S
H259 C267 0.949 . S
H260 C268 0.950 . S
H261 C269 0.951 . S
H262 C270 0.951 . S
C263 C257 1.265 . S
C263 H258 0.950 . S
C263 C264 1.478 . S
C264 C263 1.478 . S
C264 C265 1.397 . S
C264 C281 1.394 . S
C265 C264 1.397 . S
C265 C266 1.438 . S
C265 C270 1.429 . S
C266 C265 1.438 . S
C266 C267 1.428 . S
C266 C279 1.394 . S
C267 H259 0.949 . S
C267 C266 1.428 . S
C267 C268 1.345 . S
C268 H260 0.950 . S
C268 C267 1.345 . S
C268 C269 1.424 . S
C269 H261 0.951 . S
C269 C268 1.424 . S
C269 C270 1.347 . S
C270 H262 0.951 . S
C270 C265 1.429 . S
C270 C269 1.347 . S
H271 C272 0.951 . S
C272 H271 0.951 . S
C272 C278 1.265 . S
H273 C278 0.950 . S
H274 C282 0.949 . S
H275 C283 0.950 . S
H276 C284 0.951 . S
H277 C285 0.951 . S
C278 C272 1.265 . S
C278 H273 0.950 . S
C278 C279 1.478 . S
C279 C266 1.394 . S
C279 C278 1.478 . S
C279 C280 1.397 . S
C280 C279 1.397 . S
C280 C281 1.438 . S
C280 C285 1.429 . S
C281 C264 1.394 . S
C281 C280 1.438 . S
C281 C282 1.428 . S
C282 H274 0.949 . S
C282 C281 1.428 . S
C282 C283 1.345 . S
C283 H275 0.950 . S
C283 C282 1.345 . S
C283 C284 1.424 . S
C284 H276 0.951 . S
C284 C283 1.424 . S
C284 C285 1.347 . S
C285 H277 0.951 . S
C285 C280 1.429 . S
C285 C284 1.347 . S
H286 C287 0.951 . S
C287 H286 0.951 . S
C287 C293 1.265 . S
H288 C293 0.950 . S
H289 C297 0.949 . S
H290 C298 0.950 . S
H291 C299 0.951 . S
H292 C300 0.951 . S
C293 C287 1.265 . S
C293 H288 0.950 . S
C293 C294 1.478 . S
C294 C293 1.478 . S
C294 C295 1.397 . S
C294 C311 1.394 . S
C295 C294 1.397 . S
C295 C296 1.438 . S
C295 C300 1.429 . S
C296 C295 1.438 . S
C296 C297 1.428 . S
C296 C309 1.394 . S
C297 H289 0.949 . S
C297 C296 1.428 . S
C297 C298 1.345 . S
C298 H290 0.950 . S
C298 C297 1.345 . S
C298 C299 1.424 . S
C299 H291 0.951 . S
C299 C298 1.424 . S
C299 C300 1.347 . S
C300 H292 0.951 . S
C300 C295 1.429 . S
C300 C299 1.347 . S
H301 C302 0.951 . S
C302 H301 0.951 . S
C302 C308 1.265 . S
H303 C308 0.950 . S
H304 C312 0.949 . S
H305 C313 0.950 . S
H306 C314 0.951 . S
H307 C315 0.951 . S
C308 C302 1.265 . S
C308 H303 0.950 . S
C308 C309 1.478 . S
C309 C296 1.394 . S
C309 C308 1.478 . S
C309 C310 1.397 . S
C310 C309 1.397 . S
C310 C311 1.438 . S
C310 C315 1.429 . S
C311 C294 1.394 . S
C311 C310 1.438 . S
C311 C312 1.428 . S
C312 H304 0.949 . S
C312 C311 1.428 . S
C312 C313 1.345 . S
C313 H305 0.950 . S
C313 C312 1.345 . S
C313 C314 1.424 . S
C314 H306 0.951 . S
C314 C313 1.424 . S
C314 C315 1.347 . S
C315 H307 0.951 . S
C315 C310 1.429 . S
C315 C314 1.347 . S
H316 C317 0.948 . S
C317 H316 0.948 . S
C317 C323 1.265 . S
H318 C323 0.950 1_455 S
H319 C327 0.949 . S
H320 C328 0.950 . S
H321 C329 0.951 . S
H322 C330 0.951 . S
C323 C317 1.265 . S
C323 H318 0.950 1_655 S
C323 C324 1.478 . S
C324 C323 1.478 . S
C324 C325 1.397 . S
C324 C341 1.394 . S
C325 C324 1.397 . S
C325 C326 1.438 . S
C325 C330 1.429 . S
C326 C325 1.438 . S
C326 C327 1.428 . S
C326 C339 1.394 . S
C327 H319 0.949 . S
C327 C326 1.428 . S
C327 C328 1.345 . S
C328 H320 0.950 . S
C328 C327 1.345 . S
C328 C329 1.424 . S
C329 H321 0.951 . S
C329 C328 1.424 . S
C329 C330 1.347 . S
C330 H322 0.951 . S
C330 C325 1.429 . S
C330 C329 1.347 . S
H331 C332 0.951 . S
C332 H331 0.951 . S
C332 C338 1.265 . S
H333 C338 0.950 . S
H334 C342 0.949 1_455 S
H335 C343 0.953 1_545 S
H336 C344 0.951 . S
H337 C345 0.951 1_545 S
C338 C332 1.265 . S
C338 H333 0.950 . S
C338 C339 1.478 . S
C339 C326 1.394 . S
C339 C338 1.478 . S
C339 C340 1.397 . S
C340 C339 1.397 . S
C340 C341 1.438 . S
C340 C345 1.429 . S
C341 C324 1.394 . S
C341 C340 1.438 . S
C341 C342 1.428 . S
C342 H334 0.949 1_655 S
C342 C341 1.428 . S
C342 C343 1.345 . S
C343 H335 0.953 1_565 S
C343 C342 1.345 . S
C343 C344 1.424 1_565 S
C344 H336 0.951 . S
C344 C343 1.424 1_545 S
C344 C345 1.347 1_545 S
C345 H337 0.951 1_565 S
C345 C340 1.429 . S
C345 C344 1.347 1_565 S
H346 C347 0.951 . S
C347 H346 0.951 . S
C347 C353 1.265 . S
H348 C353 0.950 . S
H349 C357 0.949 . S
H350 C358 0.950 . S
H351 C359 0.951 . S
H352 C360 0.951 . S
C353 C347 1.265 . S
C353 H348 0.950 . S
C353 C354 1.478 . S
C354 C353 1.478 . S
C354 C355 1.397 . S
C354 C371 1.394 . S
C355 C354 1.397 . S
C355 C356 1.438 . S
C355 C360 1.429 . S
C356 C355 1.438 . S
C356 C357 1.428 . S
C356 C369 1.394 . S
C357 H349 0.949 . S
C357 C356 1.428 . S
C357 C358 1.345 . S
C358 H350 0.950 . S
C358 C357 1.345 . S
C358 C359 1.424 . S
C359 H351 0.951 . S
C359 C358 1.424 . S
C359 C360 1.347 . S
C360 H352 0.951 . S
C360 C355 1.429 . S
C360 C359 1.347 . S
H361 C362 0.951 . S
C362 H361 0.951 . S
C362 C368 1.265 1_565 S
H363 C368 0.950 . S
H364 C372 0.949 . S
H365 C373 0.950 . S
H366 C374 0.951 . S
H367 C375 0.951 . S
C368 C362 1.265 1_545 S
C368 H363 0.950 . S
C368 C369 1.478 1_545 S
C369 C356 1.394 . S
C369 C368 1.478 1_565 S
C369 C370 1.397 . S
C370 C369 1.397 . S
C370 C371 1.438 . S
C370 C375 1.429 1_565 S
C371 C354 1.394 . S
C371 C370 1.438 . S
C371 C372 1.428 . S
C372 H364 0.949 . S
C372 C371 1.428 . S
C372 C373 1.345 . S
C373 H365 0.950 . S
C373 C372 1.345 . S
C373 C374 1.424 1_565 S
C374 H366 0.951 . S
C374 C373 1.424 1_545 S
C374 C375 1.347 . S
C375 H367 0.951 . S
C375 C370 1.429 1_545 S
C375 C374 1.347 . S
H376 C377 0.951 . S
C377 H376 0.951 . S
C377 C383 1.265 . S
H378 C383 0.950 . S
H379 C387 0.949 . S
H380 C388 0.950 . S
H381 C389 0.951 . S
H382 C390 0.951 . S
C383 C377 1.265 . S
C383 H378 0.950 . S
C383 C384 1.478 . S
C384 C383 1.478 . S
C384 C385 1.397 . S
C384 C401 1.394 . S
C385 C384 1.397 . S
C385 C386 1.438 . S
C385 C390 1.429 . S
C386 C385 1.438 . S
C386 C387 1.428 . S
C386 C399 1.394 . S
C387 H379 0.949 . S
C387 C386 1.428 . S
C387 C388 1.345 . S
C388 H380 0.950 . S
C388 C387 1.345 . S
C388 C389 1.424 . S
C389 H381 0.951 . S
C389 C388 1.424 . S
C389 C390 1.347 . S
C390 H382 0.951 . S
C390 C385 1.429 . S
C390 C389 1.347 . S
H391 C392 0.951 . S
C392 H391 0.951 . S
C392 C398 1.265 1_655 S
H393 C398 0.950 . S
H394 C402 0.949 . S
H395 C403 0.950 . S
H396 C404 0.951 1_455 S
H397 C405 0.951 1_455 S
C398 C392 1.265 1_455 S
C398 H393 0.950 . S
C398 C399 1.478 1_455 S
C399 C386 1.394 . S
C399 C398 1.478 1_655 S
C399 C400 1.397 . S
C400 C399 1.397 . S
C400 C401 1.438 . S
C400 C405 1.429 . S
C401 C384 1.394 . S
C401 C400 1.438 . S
C401 C402 1.428 . S
C402 H394 0.949 . S
C402 C401 1.428 . S
C402 C403 1.345 . S
C403 H395 0.950 . S
C403 C402 1.345 . S
C403 C404 1.424 . S
C404 H396 0.951 1_655 S
C404 C403 1.424 . S
C404 C405 1.347 . S
C405 H397 0.951 1_655 S
C405 C400 1.429 . S
C405 C404 1.347 . S
H406 C407 0.951 1_565 S
C407 H406 0.951 1_545 S
C407 C413 1.265 1_545 S
H408 C413 0.950 . S
H409 C417 0.949 . S
H410 C418 0.950 . S
H411 C419 0.951 . S
H412 C420 0.951 . S
C413 C407 1.265 1_565 S
C413 H408 0.950 . S
C413 C414 1.478 . S
C414 C413 1.478 . S
C414 C415 1.397 . S
C414 C431 1.394 . S
C415 C414 1.397 . S
C415 C416 1.438 . S
C415 C420 1.429 . S
C416 C415 1.438 . S
C416 C417 1.428 . S
C416 C429 1.394 . S
C417 H409 0.949 . S
C417 C416 1.428 . S
C417 C418 1.345 . S
C418 H410 0.950 . S
C418 C417 1.345 . S
C418 C419 1.424 . S
C419 H411 0.951 . S
C419 C418 1.424 . S
C419 C420 1.347 . S
C420 H412 0.951 . S
C420 C415 1.429 . S
C420 C419 1.347 . S
H421 C422 0.951 . S
C422 H421 0.951 . S
C422 C428 1.265 . S
H423 C428 0.950 . S
H424 C432 0.949 . S
H425 C433 0.950 . S
H426 C434 0.951 . S
H427 C435 0.951 . S
C428 C422 1.265 . S
C428 H423 0.950 . S
C428 C429 1.478 . S
C429 C416 1.394 . S
C429 C428 1.478 . S
C429 C430 1.397 . S
C430 C429 1.397 . S
C430 C431 1.438 . S
C430 C435 1.429 . S
C431 C414 1.394 . S
C431 C430 1.438 . S
C431 C432 1.428 1_565 S
C432 H424 0.949 . S
C432 C431 1.428 1_545 S
C432 C433 1.345 . S
C433 H425 0.950 . S
C433 C432 1.345 . S
C433 C434 1.424 . S
C434 H426 0.951 . S
C434 C433 1.424 . S
C434 C435 1.347 1_545 S
C435 H427 0.951 . S
C435 C430 1.429 . S
C435 C434 1.347 1_565 S
H436 C437 0.951 . S
C437 H436 0.951 . S
C437 C443 1.265 . S
H438 C443 0.950 . S
H439 C447 0.949 . S
H440 C448 0.950 . S
H441 C449 0.951 . S
H442 C450 0.951 . S
C443 C437 1.265 . S
C443 H438 0.950 . S
C443 C444 1.478 . S
C444 C443 1.478 . S
C444 C445 1.397 . S
C444 C461 1.394 . S
C445 C444 1.397 . S
C445 C446 1.438 . S
C445 C450 1.429 . S
C446 C445 1.438 . S
C446 C447 1.428 . S
C446 C459 1.394 . S
C447 H439 0.949 . S
C447 C446 1.428 . S
C447 C448 1.345 . S
C448 H440 0.950 . S
C448 C447 1.345 . S
C448 C449 1.424 . S
C449 H441 0.951 . S
C449 C448 1.424 . S
C449 C450 1.347 . S
C450 H442 0.951 . S
C450 C445 1.429 . S
C450 C449 1.347 . S
H451 C452 0.951 . S
C452 H451 0.951 . S
C452 C458 1.265 . S
H453 C458 0.950 . S
H454 C462 0.949 . S
H455 C463 0.950 . S
H456 C464 0.951 . S
H457 C465 0.951 . S
C458 C452 1.265 . S
C458 H453 0.950 . S
C458 C459 1.478 . S
C459 C446 1.394 . S
C459 C458 1.478 . S
C459 C460 1.397 . S
C460 C459 1.397 . S
C460 C461 1.438 . S
C460 C465 1.429 . S
C461 C444 1.394 . S
C461 C460 1.438 . S
C461 C462 1.428 . S
C462 H454 0.949 . S
C462 C461 1.428 . S
C462 C463 1.345 . S
C463 H455 0.950 . S
C463 C462 1.345 . S
C463 C464 1.424 . S
C464 H456 0.951 . S
C464 C463 1.424 . S
C464 C465 1.347 . S
C465 H457 0.951 . S
C465 C460 1.429 . S
C465 C464 1.347 . S
H466 C467 0.951 . S
C467 H466 0.951 . S
C467 C473 1.265 . S
H468 C473 0.950 . S
H469 C477 0.949 . S
H470 C478 0.950 . S
H471 C479 0.951 . S
H472 C480 0.951 . S
C473 C467 1.265 . S
C473 H468 0.950 . S
C473 C474 1.478 . S
C474 C473 1.478 . S
C474 C475 1.397 . S
C474 C491 1.394 . S
C475 C474 1.397 . S
C475 C476 1.438 . S
C475 C480 1.429 . S
C476 C475 1.438 . S
C476 C477 1.428 . S
C476 C489 1.394 . S
C477 H469 0.949 . S
C477 C476 1.428 . S
C477 C478 1.345 . S
C478 H470 0.950 . S
C478 C477 1.345 . S
C478 C479 1.424 . S
C479 H471 0.951 . S
C479 C478 1.424 . S
C479 C480 1.347 . S
C480 H472 0.951 . S
C480 C475 1.429 . S
C480 C479 1.347 . S
H481 C482 0.951 . S
C482 H481 0.951 . S
C482 C488 1.265 . S
H483 C488 0.950 . S
H484 C492 0.949 . S
H485 C493 0.950 . S
H486 C494 0.951 . S
H487 C495 0.951 . S
C488 C482 1.265 . S
C488 H483 0.950 . S
C488 C489 1.478 . S
C489 C476 1.394 . S
C489 C488 1.478 . S
C489 C490 1.397 . S
C490 C489 1.397 . S
C490 C491 1.438 . S
C490 C495 1.429 . S
C491 C474 1.394 . S
C491 C490 1.438 . S
C491 C492 1.428 . S
C492 H484 0.949 . S
C492 C491 1.428 . S
C492 C493 1.345 . S
C493 H485 0.950 . S
C493 C492 1.345 . S
C493 C494 1.424 . S
C494 H486 0.951 . S
C494 C493 1.424 . S
C494 C495 1.347 . S
C495 H487 0.951 . S
C495 C490 1.429 . S
C495 C494 1.347 . S
C137 C81 2.802 1_565 S
C152 C13 2.802 . S
C167 C106 2.743 . S
C182 C47 2.743 1_655 S
C197 C72 1.074 1_556 S
C212 C4 1.074 . S
C227 C38 1.107 . S
C242 C115 1.107 . S
C257 C34 1.867 . S
C272 C29 1.804 . S
C287 C63 1.871 . S
C302 C68 1.928 . S
C317 C110 1.859 1_655 S
C332 C97 1.863 . S
C347 C119 1.831 . S
C362 C0 1.854 1_565 S
C377 C76 1.829 . S
C392 C131 1.875 1_655 S
C407 C17 1.919 . S
C422 C102 1.876 . S
C437 C51 1.927 . S
C452 C8 1.930 . S
C467 C85 1.802 . S
C482 C42 1.868 . S
