# Generated by pormake.
# Topology wme, (6)-cn, num edge types: 1
# Building blocks:
#     Node 0, Type 0, BuildingBlock: MAKGUD_clean_sbu_1, # of connection points: 6
#     Node 1, Type 0, BuildingBlock: MAKGUD_clean_sbu_1, # of connection points: 6
#     Node 2, Type 0, BuildingBlock: MAKGUD_clean_sbu_1, # of connection points: 6
#     Node 3, Type 0, BuildingBlock: MAKGUD_clean_sbu_1, # of connection points: 6
#     Node 4, Type 0, BuildingBlock: MAKGUD_clean_sbu_1, # of connection points: 6
#     Node 5, Type 0, BuildingBlock: MAKGUD_clean_sbu_1, # of connection points: 6
#     Node 6, Type 0, BuildingBlock: MAKGUD_clean_sbu_1, # of connection points: 6
#     Node 7, Type 0, BuildingBlock: MAKGUD_clean_sbu_1, # of connection points: 6
#     Node 8, Type 0, BuildingBlock: MAKGUD_clean_sbu_1, # of connection points: 6
#     Node 9, Type 0, BuildingBlock: MAKGUD_clean_sbu_1, # of connection points: 6
#     Node 10, Type 0, BuildingBlock: MAKGUD_clean_sbu_1, # of connection points: 6
#     Node 11, Type 0, BuildingBlock: MAKGUD_clean_sbu_1, # of connection points: 6
#     Edge 12, Type (0, 0), BuildingBlock: KIFKEQ_clean_linker_1, # of connection points: 2
#     Edge 13, Type (0, 0), BuildingBlock: KIFKEQ_clean_linker_1, # of connection points: 2
#     Edge 14, Type (0, 0), BuildingBlock: KIFKEQ_clean_linker_1, # of connection points: 2
#     Edge 15, Type (0, 0), BuildingBlock: KIFKEQ_clean_linker_1, # of connection points: 2
#     Edge 16, Type (0, 0), BuildingBlock: KIFKEQ_clean_linker_1, # of connection points: 2
#     Edge 17, Type (0, 0), BuildingBlock: KIFKEQ_clean_linker_1, # of connection points: 2
#     Edge 18, Type (0, 0), BuildingBlock: KIFKEQ_clean_linker_1, # of connection points: 2
#     Edge 19, Type (0, 0), BuildingBlock: KIFKEQ_clean_linker_1, # of connection points: 2
#     Edge 20, Type (0, 0), BuildingBlock: KIFKEQ_clean_linker_1, # of connection points: 2
#     Edge 21, Type (0, 0), BuildingBlock: KIFKEQ_clean_linker_1, # of connection points: 2
#     Edge 22, Type (0, 0), BuildingBlock: KIFKEQ_clean_linker_1, # of connection points: 2
#     Edge 23, Type (0, 0), BuildingBlock: KIFKEQ_clean_linker_1, # of connection points: 2
#     Edge 24, Type (0, 0), BuildingBlock: KIFKEQ_clean_linker_1, # of connection points: 2
#     Edge 25, Type (0, 0), BuildingBlock: KIFKEQ_clean_linker_1, # of connection points: 2
#     Edge 26, Type (0, 0), BuildingBlock: KIFKEQ_clean_linker_1, # of connection points: 2
#     Edge 27, Type (0, 0), BuildingBlock: KIFKEQ_clean_linker_1, # of connection points: 2
#     Edge 28, Type (0, 0), BuildingBlock: KIFKEQ_clean_linker_1, # of connection points: 2
#     Edge 29, Type (0, 0), BuildingBlock: KIFKEQ_clean_linker_1, # of connection points: 2
#     Edge 30, Type (0, 0), BuildingBlock: KIFKEQ_clean_linker_1, # of connection points: 2
#     Edge 31, Type (0, 0), BuildingBlock: KIFKEQ_clean_linker_1, # of connection points: 2
#     Edge 32, Type (0, 0), BuildingBlock: KIFKEQ_clean_linker_1, # of connection points: 2
#     Edge 33, Type (0, 0), BuildingBlock: KIFKEQ_clean_linker_1, # of connection points: 2
#     Edge 34, Type (0, 0), BuildingBlock: KIFKEQ_clean_linker_1, # of connection points: 2
#     Edge 35, Type (0, 0), BuildingBlock: KIFKEQ_clean_linker_1, # of connection points: 2
#     Edge 36, Type (0, 0), BuildingBlock: KIFKEQ_clean_linker_1, # of connection points: 2
#     Edge 37, Type (0, 0), BuildingBlock: KIFKEQ_clean_linker_1, # of connection points: 2
#     Edge 38, Type (0, 0), BuildingBlock: KIFKEQ_clean_linker_1, # of connection points: 2
#     Edge 39, Type (0, 0), BuildingBlock: KIFKEQ_clean_linker_1, # of connection points: 2
#     Edge 40, Type (0, 0), BuildingBlock: KIFKEQ_clean_linker_1, # of connection points: 2
#     Edge 41, Type (0, 0), BuildingBlock: KIFKEQ_clean_linker_1, # of connection points: 2
#     Edge 42, Type (0, 0), BuildingBlock: KIFKEQ_clean_linker_1, # of connection points: 2
#     Edge 43, Type (0, 0), BuildingBlock: KIFKEQ_clean_linker_1, # of connection points: 2
#     Edge 44, Type (0, 0), BuildingBlock: KIFKEQ_clean_linker_1, # of connection points: 2
#     Edge 45, Type (0, 0), BuildingBlock: KIFKEQ_clean_linker_1, # of connection points: 2
#     Edge 46, Type (0, 0), BuildingBlock: KIFKEQ_clean_linker_1, # of connection points: 2
#     Edge 47, Type (0, 0), BuildingBlock: KIFKEQ_clean_linker_1, # of connection points: 2
# Relax obj value: 0.158
# Max RMSD: 0.286
# Mean RMSD: 0.286
data_MOF--net-wme--node1-MAKGUD_clean_sbu_1--edge1-KIFKEQ_clean_linker_1
_symmetry_space_group_name_H-M    P1
_symmetry_Int_Tables_number       1
_symmetry_cell_setting            triclinic
loop_
_symmetry_equiv_pos_as_xyz
'x, y, z'
_cell_length_a     37.270926
_cell_length_b     37.194116
_cell_length_c     49.535302
_cell_angle_alpha  90.137158
_cell_angle_beta   89.640617
_cell_angle_gamma 119.52222
loop_
_atom_site_label
_atom_site_type_symbol
_atom_site_fract_x
_atom_site_fract_y
_atom_site_fract_z
_atom_type_partial_charge
O0 O 0.33365 0.48616 0.10597 0.0
Tb1 Tb 0.28948 0.42701 0.12435 0.0
C2 C 0.24095 0.38261 0.17543 0.0
O3 O 0.22097 0.34106 0.08624 0.0
Tb4 Tb 0.1994 0.32074 0.1274 0.0
C5 C 0.2094 0.25605 0.13982 0.0
O6 O 0.2902 0.38504 0.09402 0.0
O7 O 0.13384 0.29016 0.11799 0.0
C8 C 0.11878 0.25819 0.10156 0.0
O9 O 0.14485 0.25027 0.08841 0.0
O10 O 0.27763 0.39923 0.16412 0.0
O11 O 0.2072 0.36238 0.16097 0.0
O12 O 0.24678 0.45145 0.12519 0.0
C13 C 0.26003 0.3579 0.0789 0.0
C14 C 0.36395 0.49462 0.12229 0.0
O15 O 0.23723 0.29001 0.12829 0.0
O16 O 0.17732 0.25981 0.14531 0.0
C17 C 0.25203 0.47746 0.14496 0.0
O18 O 0.27896 0.48281 0.16376 0.0
O19 O 0.35234 0.46483 0.13979 0.0
O20 O 0.91345 0.33844 0.6159 0.0
Tb21 Tb 0.9108 0.2833 0.63392 0.0
C22 C 0.90883 0.23047 0.68185 0.0
O23 O 0.92756 0.21971 0.59281 0.0
Tb24 Tb 0.92636 0.19047 0.63107 0.0
C25 C 0.9993 0.19456 0.6399 0.0
O26 O 0.95778 0.2876 0.60567 0.0
O27 O 0.88676 0.12643 0.61915 0.0
C28 C 0.89909 0.11021 0.60007 0.0
O29 O 0.9318 0.13493 0.58567 0.0
O30 O 0.92997 0.26749 0.67119 0.0
O31 O 0.89571 0.19689 0.66702 0.0
O32 O 0.84468 0.24061 0.62994 0.0
C33 C 0.9548 0.25885 0.5888 0.0
C34 C 0.91738 0.35805 0.63842 0.0
O35 O 0.99442 0.22595 0.63368 0.0
O36 O 0.96326 0.1619 0.64202 0.0
C37 C 0.82142 0.2383 0.65082 0.0
O38 O 0.84006 0.25764 0.67306 0.0
O39 O 0.91821 0.33579 0.65833 0.0
O40 O 0.58927 0.85474 0.12055 0.0
Tb41 Tb 0.65165 0.87109 0.13232 0.0
C42 C 0.70502 0.89457 0.18527 0.0
O43 O 0.74536 0.9116 0.10369 0.0
Tb44 Tb 0.77592 0.93546 0.14187 0.0
C45 C 0.84142 1.01119 0.13777 0.0
O46 O 0.68713 0.91687 0.10141 0.0
O47 O 0.80246 0.89463 0.14296 0.0
C48 C 0.82475 0.8957 0.12187 0.0
O49 O 0.82662 0.91852 0.10111 0.0
O50 O 0.68225 0.86477 0.16826 0.0
O51 O 0.73824 0.9287 0.17747 0.0
O52 O 0.62648 0.8061 0.12209 0.0
C53 C 0.72409 0.92679 0.09234 0.0
C54 C 0.58229 0.8747 0.1395 0.0
O55 O 0.80437 1.00085 0.12962 0.0
O56 O 0.84091 0.97926 0.14871 0.0
C57 C 0.60535 0.77965 0.14145 0.0
O58 O 0.60444 0.79451 0.16538 0.0
O59 O 0.61475 0.89295 0.15496 0.0
O60 O 0.7473 0.58702 0.62824 0.0
Tb61 Tb 0.80808 0.63407 0.64118 0.0
C62 C 0.86161 0.7129 0.67715 0.0
O63 O 0.86538 0.71748 0.61305 0.0
Tb64 Tb 0.89645 0.77803 0.63195 0.0
C65 C 0.86876 0.83067 0.62273 0.0
O66 O 0.8045 0.66205 0.60337 0.0
O67 O 0.96332 0.80918 0.62969 0.0
C68 C 0.98399 0.8311 0.60857 0.0
O69 O 0.96374 0.83291 0.58748 0.0
O70 O 0.83076 0.69446 0.66017 0.0
O71 O 0.88923 0.75188 0.67243 0.0
O72 O 0.84967 0.6091 0.63651 0.0
C73 C 0.83143 0.70108 0.59866 0.0
C74 C 0.73232 0.57344 0.65217 0.0
O75 O 0.88277 0.81546 0.60449 0.0
O76 O 0.86962 0.81554 0.64631 0.0
C77 C 0.86076 0.59527 0.65747 0.0
O78 O 0.85084 0.60157 0.68183 0.0
O79 O 0.76005 0.59473 0.67038 0.0
O80 O 0.20441 0.73711 0.11152 0.0
Tb81 Tb 0.20879 0.79293 0.12908 0.0
C82 C 0.18317 0.84507 0.16686 0.0
O83 O 0.17702 0.85114 0.10482 0.0
Tb84 Tb 0.14519 0.87937 0.12543 0.0
C85 C 0.06311 0.84428 0.12679 0.0
O86 O 0.17893 0.79427 0.09142 0.0
O87 O 0.17233 0.9464 0.12084 0.0
C88 C 0.14779 0.96196 0.11659 0.0
O89 O 0.10837 0.93626 0.11289 0.0
O90 O 0.1702 0.81372 0.14994 0.0
O91 O 0.17096 0.87267 0.16341 0.0
O92 O 0.27511 0.83502 0.1313 0.0
C93 C 0.16274 0.81866 0.08884 0.0
C94 C 0.19602 0.71586 0.13375 0.0
O95 O 0.08537 0.85069 0.105 0.0
O96 O 0.08722 0.85616 0.14773 0.0
C97 C 0.2952 0.83403 0.15286 0.0
O98 O 0.27376 0.81185 0.17367 0.0
O99 O 0.19374 0.73784 0.15368 0.0
O100 O 0.52019 0.20339 0.61728 0.0
Tb101 Tb 0.46515 0.19989 0.63541 0.0
C102 C 0.38905 0.17369 0.67381 0.0
O103 O 0.3776 0.17222 0.61162 0.0
Tb104 Tb 0.31795 0.14028 0.63219 0.0
C105 C 0.2713 0.05831 0.6302 0.0
O106 O 0.43536 0.17379 0.59683 0.0
O107 O 0.27853 0.16827 0.62781 0.0
C108 C 0.24202 0.14685 0.61649 0.0
O109 O 0.23223 0.11085 0.60578 0.0
O110 O 0.40675 0.1605 0.65626 0.0
O111 O 0.34988 0.16316 0.67056 0.0
O112 O 0.48499 0.26453 0.64308 0.0
C113 C 0.39527 0.15862 0.59435 0.0
C114 C 0.53083 0.18908 0.63782 0.0
O115 O 0.28984 0.0823 0.60974 0.0
O116 O 0.28041 0.08057 0.65206 0.0
C117 C 0.50739 0.28173 0.66468 0.0
O118 O 0.51326 0.25812 0.68172 0.0
O119 O 0.50374 0.17995 0.65728 0.0
O120 O 0.61152 0.72492 0.4242 0.0
Tb121 Tb 0.65473 0.78899 0.41357 0.0
C122 C 0.73596 0.84732 0.38042 0.0
O123 O 0.73498 0.84341 0.44299 0.0
Tb124 Tb 0.79786 0.87583 0.42798 0.0
C125 C 0.84742 0.84327 0.43018 0.0
O126 O 0.67779 0.78487 0.45322 0.0
O127 O 0.83083 0.94148 0.43737 0.0
C128 C 0.86262 0.95725 0.45374 0.0
O129 O 0.87268 0.93233 0.46615 0.0
O130 O 0.71572 0.81297 0.39466 0.0
O131 O 0.77398 0.87451 0.38767 0.0
O132 O 0.62854 0.82969 0.41754 0.0
C133 C 0.71659 0.81092 0.45875 0.0
C134 C 0.59525 0.71323 0.40045 0.0
O135 O 0.82783 0.84761 0.45066 0.0
O136 O 0.83798 0.85614 0.40833 0.0
C137 C 0.61183 0.83676 0.39631 0.0
O138 O 0.6157 0.82281 0.37271 0.0
O139 O 0.61327 0.74417 0.38368 0.0
O140 O 0.91724 0.58285 0.91519 0.0
Tb141 Tb 0.9061 0.63198 0.90181 0.0
C142 C 0.92604 0.7091 0.86603 0.0
O143 O 0.92747 0.71274 0.92974 0.0
Tb144 Tb 0.95358 0.77362 0.91188 0.0
C145 C 1.03385 0.82688 0.91609 0.0
O146 O 0.93547 0.65901 0.9403 0.0
O147 O 0.91659 0.80303 0.91883 0.0
C148 C 0.9226 0.82696 0.93981 0.0
O149 O 0.95053 0.83184 0.95769 0.0
O150 O 0.94165 0.69183 0.8818 0.0
O151 O 0.93321 0.74674 0.87186 0.0
O152 O 0.83975 0.60781 0.90232 0.0
C153 C 0.94517 0.69747 0.9452 0.0
C154 C 0.92219 0.57122 0.89135 0.0
O155 O 1.00905 0.80787 0.93619 0.0
O156 O 1.01349 0.81508 0.89353 0.0
C157 C 0.81868 0.59424 0.87979 0.0
O158 O 0.83881 0.59906 0.85702 0.0
O159 O 0.91872 0.59449 0.873 0.0
O160 O 0.344 0.87075 0.43014 0.0
Tb161 Tb 0.30011 0.88692 0.41244 0.0
C162 C 0.25136 0.88395 0.36118 0.0
O163 O 0.23235 0.90344 0.45065 0.0
Tb164 Tb 0.21181 0.90599 0.41015 0.0
C165 C 0.22695 0.98313 0.40063 0.0
O166 O 0.30182 0.93018 0.44296 0.0
O167 O 0.14631 0.87026 0.41939 0.0
C168 C 0.1303 0.88209 0.43889 0.0
O169 O 0.15511 0.91344 0.45414 0.0
O170 O 0.28814 0.90198 0.37223 0.0
O171 O 0.21773 0.87252 0.37569 0.0
O172 O 0.25639 0.8205 0.4143 0.0
C173 C 0.27097 0.92689 0.45788 0.0
C174 C 0.37372 0.89079 0.41294 0.0
O175 O 0.25421 0.97317 0.40858 0.0
O176 O 0.19196 0.94957 0.39707 0.0
C177 C 0.2549 0.79732 0.3936 0.0
O178 O 0.27567 0.81573 0.37161 0.0
O179 O 0.36213 0.90908 0.39551 0.0
O180 O 0.50862 0.35489 0.91183 0.0
Tb181 Tb 0.46198 0.29392 0.89831 0.0
C182 C 0.3871 0.23724 0.8616 0.0
O183 O 0.38214 0.23251 0.92596 0.0
Tb184 Tb 0.32242 0.19658 0.90722 0.0
C185 C 0.26676 0.22036 0.916 0.0
O186 O 0.43247 0.2961 0.93589 0.0
O187 O 0.29362 0.12987 0.91142 0.0
C188 C 0.27229 0.11097 0.93318 0.0
O189 O 0.27145 0.13319 0.95357 0.0
O190 O 0.40282 0.26956 0.87777 0.0
O191 O 0.35 0.206 0.86702 0.0
O192 O 0.48489 0.25048 0.90029 0.0
C193 C 0.39475 0.26617 0.9405 0.0
C194 C 0.52367 0.36965 0.88809 0.0
O195 O 0.28488 0.21049 0.93453 0.0
O196 O 0.28066 0.21763 0.89229 0.0
C197 C 0.5017 0.24459 0.87849 0.0
O198 O 0.50107 0.26278 0.85594 0.0
O199 O 0.50321 0.34183 0.86971 0.0
O200 O 0.20303 0.48751 0.42638 0.0
Tb201 Tb 0.21737 0.44129 0.41007 0.0
C202 C 0.18965 0.3631 0.37251 0.0
O203 O 0.19941 0.35743 0.43453 0.0
Tb204 Tb 0.1692 0.29633 0.41637 0.0
C205 C 0.09193 0.24447 0.43115 0.0
O206 O 0.19243 0.41116 0.44886 0.0
O207 O 0.20148 0.26104 0.41124 0.0
C208 C 0.20434 0.2386 0.43078 0.0
O209 O 0.19177 0.24118 0.45517 0.0
O210 O 0.17819 0.38129 0.39085 0.0
O211 O 0.18053 0.3243 0.37631 0.0
O212 O 0.28364 0.46507 0.4096 0.0
C213 C 0.18314 0.37234 0.45183 0.0
C214 C 0.2026 0.50424 0.40342 0.0
O215 O 0.12375 0.2592 0.44709 0.0
O216 O 0.10361 0.26007 0.40701 0.0
C217 C 0.3049 0.4799 0.38711 0.0
O218 O 0.28493 0.47556 0.3645 0.0
O219 O 0.2092 0.48446 0.38389 0.0
O220 O 0.754 0.19892 0.9241 0.0
Tb221 Tb 0.80782 0.19662 0.90948 0.0
C222 C 0.85665 0.1638 0.87567 0.0
O223 O 0.86341 0.1699 0.93836 0.0
Tb224 Tb 0.89137 0.13526 0.92167 0.0
C225 C 0.85927 0.05391 0.9268 0.0
O226 O 0.80827 0.17484 0.9503 0.0
O227 O 0.95802 0.16765 0.92544 0.0
C228 C 0.9768 0.15645 0.94311 0.0
O229 O 0.95469 0.12612 0.95993 0.0
O230 O 0.82617 0.15368 0.89296 0.0
O231 O 0.88469 0.15306 0.88103 0.0
O232 O 0.85339 0.26047 0.90132 0.0
C233 C 0.83258 0.15942 0.95535 0.0
C234 C 0.73222 0.18488 0.90229 0.0
O235 O 0.86917 0.07998 0.94661 0.0
O236 O 0.86655 0.07368 0.90398 0.0
C237 C 0.85007 0.27779 0.87905 0.0
O238 O 0.82146 0.25479 0.86159 0.0
O239 O 0.753 0.1769 0.88418 0.0
H240 H 0.10237 1.00028 0.11 0.0
H241 H 0.22605 1.02612 0.12821 0.0
H242 H 0.12269 0.07225 0.11743 0.0
H243 H 0.24655 0.09922 0.13565 0.0
H244 H 0.26365 0.23481 0.1162 0.0
H245 H 0.25328 0.1645 0.11066 0.0
H246 H 0.14225 0.11643 0.15886 0.0
H247 H 0.15246 0.18588 0.16427 0.0
C248 C 0.13407 1.02133 0.11545 0.0
C249 C 0.16245 1.0071 0.11872 0.0
C250 C 0.14566 0.06272 0.11987 0.0
C251 C 0.18606 0.09141 0.12759 0.0
C252 C 0.21515 0.07782 0.12979 0.0
C253 C 0.20338 0.03598 0.12555 0.0
C254 C 0.23765 0.20925 0.12613 0.0
C255 C 0.20876 0.21584 0.14058 0.0
C256 C 0.23166 0.16902 0.12291 0.0
C257 C 0.19653 0.13479 0.13392 0.0
C258 C 0.16918 0.14197 0.14967 0.0
C259 C 0.17521 0.18188 0.15295 0.0
H260 H 0.24744 0.21669 0.64048 0.0
H261 H 0.16373 0.10617 0.59703 0.0
H262 H 0.19136 0.23268 0.64732 0.0
H263 H 0.10849 0.12202 0.60392 0.0
H264 H 1.00881 0.12882 0.6516 0.0
H265 H 0.06987 0.12178 0.64575 0.0
H266 H 0.13995 0.24953 0.62128 0.0
H267 H 0.07801 0.25665 0.62714 0.0
C268 C 0.21736 0.19609 0.63213 0.0
C269 C 0.21012 0.15991 0.61841 0.0
C270 C 0.18528 0.20531 0.63602 0.0
C271 C 0.14529 0.17828 0.62654 0.0
C272 C 0.13869 0.1431 0.61195 0.0
C273 C 0.17057 0.13412 0.60788 0.0
C274 C 1.03729 0.15566 0.6453 0.0
C275 C 1.0385 0.19326 0.63975 0.0
C276 C 0.07229 0.15152 0.64177 0.0
C277 C 0.10966 0.1849 0.63266 0.0
C278 C 0.1116 0.22325 0.62833 0.0
C279 C 0.07622 0.22734 0.63171 0.0
H280 H 0.84958 0.08352 0.11684 0.0
H281 H 0.91964 1.02769 0.14614 0.0
H282 H 0.91448 0.14707 0.10582 0.0
H283 H 0.98362 0.09009 0.13461 0.0
H284 H 0.08187 0.18239 0.07765 0.0
H285 H 1.01251 0.12533 0.08555 0.0
H286 H 0.98488 0.20362 0.13565 0.0
H287 H 0.05512 0.26121 0.12824 0.0
C288 C 0.87873 0.08494 0.12108 0.0
C289 C 0.87959 0.05074 0.13242 0.0
C290 C 0.91572 0.12117 0.11478 0.0
C291 C 0.95394 0.12324 0.1192 0.0
C292 C 0.95458 0.08917 0.13079 0.0
C293 C 0.91791 0.05352 0.1375 0.0
C294 C 0.06099 0.18792 0.08998 0.0
C295 C 0.07433 0.22641 0.10253 0.0
C296 C 1.02123 0.1551 0.09453 0.0
C297 C 0.99353 0.16003 0.11136 0.0
C298 C 1.00569 0.19912 0.12253 0.0
C299 C 1.04588 0.23199 0.1183 0.0
H300 H 0.86204 0.86116 0.57425 0.0
H301 H 0.85782 0.87846 0.66013 0.0
H302 H 0.85925 0.92442 0.56597 0.0
H303 H 0.85641 0.94242 0.65206 0.0
H304 H 0.92308 0.06759 0.56637 0.0
H305 H 0.90687 0.9961 0.57035 0.0
H306 H 0.82213 0.97787 0.63567 0.0
H307 H 0.83936 0.0501 0.63215 0.0
C308 C 0.86001 0.87829 0.59136 0.0
C309 C 0.86049 0.86513 0.61784 0.0
C310 C 0.85871 0.91473 0.58664 0.0
C311 C 0.85819 0.93905 0.60832 0.0
C312 C 0.85638 0.92447 0.63481 0.0
C313 C 0.85737 0.88784 0.6395 0.0
C314 C 0.90041 0.04822 0.58128 0.0
C315 C 0.8829 0.06484 0.59913 0.0
C316 C 0.8909 1.00696 0.5835 0.0
C317 C 0.86345 0.98107 0.60356 0.0
C318 C 0.844 0.99705 0.62033 0.0
C319 C 0.85361 0.03843 0.61815 0.0
H320 H 1.00917 0.82208 0.08468 0.0
H321 H 1.02108 0.85178 0.16954 0.0
H322 H 0.94448 0.8237 0.08358 0.0
H323 H 0.9578 0.85553 0.16834 0.0
H324 H 0.83558 0.85148 0.16267 0.0
H325 H 0.88612 0.82757 0.16406 0.0
H326 H 0.92719 0.87585 0.08362 0.0
H327 H 0.8761 0.89779 0.0819 0.0
C328 C 0.99757 0.8283 0.1032 0.0
C329 C 1.0203 0.83704 0.12714 0.0
C330 C 0.96069 0.82973 0.10256 0.0
C331 C 0.94601 0.84062 0.12576 0.0
C332 C 0.96761 0.84673 0.15009 0.0
C333 C 1.00415 0.84474 0.15078 0.0
C334 C 0.85496 0.85624 0.14515 0.0
C335 C 0.85186 0.87679 0.12226 0.0
C336 C 0.88421 0.84282 0.14598 0.0
C337 C 0.91118 0.84984 0.124 0.0
C338 C 0.90677 0.86905 0.10081 0.0
C339 C 0.8775 0.88211 0.09992 0.0
H340 H 1.03561 0.88946 0.57238 0.0
H341 H 1.03539 0.83109 0.64773 0.0
H342 H 0.10895 0.93749 0.57735 0.0
H343 H 0.10912 0.87839 0.65233 0.0
H344 H 0.24479 1.01124 0.58472 0.0
H345 H 0.17812 0.94911 0.57825 0.0
H346 H 0.15048 0.9499 0.66307 0.0
H347 H 0.21745 1.01111 0.66954 0.0
C348 C 1.05137 0.88634 0.58975 0.0
C349 C 1.0295 0.85676 0.60981 0.0
C350 C 0.0936 0.91373 0.59253 0.0
C351 C 0.11504 0.91205 0.61536 0.0
C352 C 0.0935 0.88106 0.63474 0.0
C353 C 1.05122 0.85381 0.63203 0.0
C354 C 0.22487 0.99735 0.60209 0.0
C355 C 0.23609 1.01608 0.6276 0.0
C356 C 0.1865 0.96201 0.59834 0.0
C357 C 0.15853 0.94482 0.62003 0.0
C358 C 0.17122 0.96199 0.64592 0.0
C359 C 0.20965 0.99719 0.64967 0.0
H360 H 0.08763 0.90116 0.47593 0.0
H361 H 0.07043 0.82474 0.40602 0.0
H362 H 1.01499 0.8815 0.47506 0.0
H363 H 0.99737 0.80445 0.40544 0.0
H364 H 0.87841 0.82818 0.47587 0.0
H365 H 0.94347 0.82758 0.48016 0.0
H366 H 0.96056 0.84085 0.39365 0.0
H367 H 0.89542 0.84076 0.38945 0.0
C368 C 0.06819 0.8795 0.46068 0.0
C369 C 0.08501 0.86493 0.44085 0.0
C370 C 1.02636 0.86797 0.46029 0.0
C371 C 1.00031 0.8416 0.44005 0.0
C372 C 1.01669 0.82528 0.42108 0.0
C373 C 0.05855 0.83675 0.42151 0.0
C374 C 0.89567 0.82996 0.45775 0.0
C375 C 0.88209 0.83482 0.43233 0.0
C376 C 0.93307 0.82994 0.46021 0.0
C377 C 0.95754 0.83466 0.43729 0.0
C378 C 0.94244 0.8368 0.41172 0.0
C379 C 0.90513 0.83691 0.40929 0.0
H380 H 0.07899 0.85562 0.96215 0.0
H381 H 0.08295 0.87851 0.87652 0.0
H382 H 0.14334 0.92065 0.96786 0.0
H383 H 0.14624 0.944 0.88217 0.0
H384 H 0.26854 0.05512 0.89556 0.0
H385 H 0.21739 0.98198 0.89256 0.0
H386 H 0.16171 0.99148 0.96711 0.0
H387 H 0.21357 0.06395 0.97054 0.0
C388 C 0.09399 0.87433 0.9445 0.0
C389 C 0.07591 0.86227 0.91892 0.0
C390 C 0.13068 0.91176 0.94777 0.0
C391 C 0.14985 0.93802 0.92555 0.0
C392 C 0.13277 0.92456 0.89974 0.0
C393 C 0.0963 0.88704 0.89646 0.0
C394 C 0.24578 0.04138 0.91154 0.0
C395 C 0.24491 0.06551 0.93314 0.0
C396 C 0.21627 0.99946 0.90974 0.0
C397 C 0.18499 0.98075 0.92941 0.0
C398 C 0.18549 1.00451 0.95171 0.0
C399 C 0.21517 0.04631 0.9536 0.0
H400 H 0.22453 0.19521 0.46645 0.0
H401 H 0.21081 0.20918 0.38124 0.0
H402 H 0.23649 0.13746 0.4567 0.0
H403 H 0.22233 0.15114 0.37159 0.0
H404 H 0.17819 1.0084 0.37609 0.0
H405 H 0.17928 0.07423 0.38167 0.0
H406 H 0.28595 0.11793 0.43292 0.0
H407 H 0.28525 0.05203 0.42688 0.0
C408 C 0.2246 0.18636 0.44561 0.0
C409 C 0.21654 0.20683 0.42465 0.0
C410 C 0.23165 0.15335 0.44003 0.0
C411 C 0.23019 0.13956 0.41337 0.0
C412 C 0.22337 0.16082 0.39235 0.0
C413 C 0.21698 0.19424 0.39789 0.0
C414 C 0.20242 1.0324 0.38806 0.0
C415 C 0.23176 1.02516 0.40091 0.0
C416 C 0.20309 0.07015 0.39124 0.0
C417 C 0.23264 0.10134 0.40779 0.0
C418 C 0.26268 0.09447 0.42013 0.0
C419 C 0.2625 0.0569 0.4165 0.0
H420 H 0.23547 0.22565 0.9646 0.0
H421 H 0.2147 0.22342 0.87884 0.0
H422 H 0.16791 0.2189 0.97343 0.0
H423 H 0.14676 0.21571 0.88753 0.0
H424 H 1.03136 0.21849 0.91007 0.0
H425 H 0.1052 0.24408 0.90525 0.0
H426 H 0.09866 0.16127 0.96854 0.0
H427 H 1.02516 0.13634 0.97374 0.0
C428 C 0.2167 0.22446 0.94764 0.0
C429 C 0.23003 0.22465 0.92104 0.0
C430 C 0.17789 0.22027 0.95269 0.0
C431 C 0.1516 0.21607 0.9312 0.0
C432 C 0.16625 0.21911 0.90456 0.0
C433 C 0.20515 0.22343 0.89954 0.0
C434 C 1.04578 0.20613 0.92321 0.0
C435 C 1.02226 0.17508 0.94214 0.0
C436 C 0.0881 0.22071 0.92035 0.0
C437 C 0.10786 0.2046 0.93637 0.0
C438 C 0.0846 0.17478 0.95607 0.0
C439 C 1.04232 0.16023 0.95894 0.0
H440 H 1.02868 0.19928 0.39685 0.0
H441 H 0.06371 0.20926 0.48056 0.0
H442 H 0.96802 0.13268 0.40594 0.0
H443 H 1.00221 0.14294 0.49001 0.0
H444 H 0.93424 0.99965 0.4821 0.0
H445 H 0.98391 0.07299 0.47973 0.0
H446 H 0.90236 0.09161 0.42717 0.0
H447 H 0.85302 1.01778 0.42898 0.0
C448 C 1.02272 0.18772 0.41738 0.0
C449 C 1.05114 0.20908 0.43792 0.0
C450 C 0.9878 0.14953 0.42267 0.0
C451 C 0.98042 0.132 0.44867 0.0
C452 C 1.0074 0.15503 0.46963 0.0
C453 C 1.04247 0.19315 0.46429 0.0
C454 C 0.92658 1.01941 0.47033 0.0
C455 C 0.88986 1.00268 0.45544 0.0
C456 C 0.95501 0.06168 0.46912 0.0
C457 C 0.94739 0.08835 0.45307 0.0
C458 C 0.90959 0.07191 0.43936 0.0
C459 C 0.88118 1.02957 0.44051 0.0
H460 H 0.93616 0.88809 0.97586 0.0
H461 H 0.86163 0.82233 0.90713 0.0
H462 H 0.909 0.93555 0.97424 0.0
H463 H 0.83353 0.8692 0.90595 0.0
H464 H 0.85627 1.00207 0.88699 0.0
H465 H 0.8617 0.93994 0.89255 0.0
H466 H 0.85178 0.94787 0.97913 0.0
H467 H 0.84755 1.0109 0.97345 0.0
C468 C 0.91331 0.8832 0.96076 0.0
C469 C 0.90156 0.85183 0.94138 0.0
C470 C 0.89743 0.91027 0.95994 0.0
C471 C 0.86926 0.90642 0.93981 0.0
C472 C 0.8557 0.87347 0.92143 0.0
C473 C 0.87172 0.84652 0.92217 0.0
C474 C 0.85415 0.98989 0.90715 0.0
C475 C 0.85206 1.01148 0.9298 0.0
C476 C 0.85713 0.95415 0.91038 0.0
C477 C 0.85784 0.93923 0.93635 0.0
C478 C 0.85223 0.95905 0.95889 0.0
C479 C 0.84947 0.99493 0.95564 0.0
H480 H 0.18241 0.66752 0.17881 0.0
H481 H 0.2077 0.67304 0.09339 0.0
H482 H 0.18704 0.60425 0.18218 0.0
H483 H 0.21394 0.61117 0.09673 0.0
H484 H 0.20551 0.48691 0.10522 0.0
H485 H 0.18388 0.53925 0.10322 0.0
H486 H 0.23784 0.58454 0.18159 0.0
H487 H 0.25775 0.53174 0.18393 0.0
C488 C 0.18866 0.65504 0.16073 0.0
C489 C 0.19481 0.67538 0.13588 0.0
C490 C 0.19166 0.6189 0.16264 0.0
C491 C 0.20122 0.60238 0.13975 0.0
C492 C 0.20596 0.62224 0.11477 0.0
C493 C 0.20269 0.65808 0.11287 0.0
C494 C 0.21198 0.50756 0.12221 0.0
C495 C 0.23364 0.50515 0.14463 0.0
C496 C 0.19995 0.53794 0.12099 0.0
C497 C 0.20936 0.56674 0.14214 0.0
C498 C 0.22943 0.56291 0.165 0.0
C499 C 0.24123 0.5326 0.16625 0.0
H500 H 0.77147 0.20676 0.60607 0.0
H501 H 0.7681 0.23079 0.69109 0.0
H502 H 0.69856 0.18702 0.60258 0.0
H503 H 0.69647 0.21294 0.6875 0.0
H504 H 0.55982 0.16108 0.6791 0.0
H505 H 0.62684 0.16408 0.68165 0.0
H506 H 0.6579 0.21931 0.60219 0.0
H507 H 0.5907 0.21468 0.59941 0.0
C508 C 0.75514 0.20741 0.62406 0.0
C509 C 0.77589 0.22067 0.64879 0.0
C510 C 0.71334 0.19649 0.62205 0.0
C511 C 0.6913 0.19873 0.64471 0.0
C512 C 0.71181 0.21023 0.66963 0.0
C513 C 0.75331 0.22086 0.67164 0.0
C514 C 0.58086 0.17331 0.6621 0.0
C515 C 0.56999 0.18775 0.63912 0.0
C516 C 0.61948 0.17535 0.66357 0.0
C517 C 0.64832 0.1922 0.64218 0.0
C518 C 0.63665 0.20552 0.61893 0.0
C519 C 0.59806 0.20319 0.61741 0.0
H520 H 0.57932 0.73933 0.09266 0.0
H521 H 0.56792 0.71898 0.17882 0.0
H522 H 0.52527 0.66755 0.08558 0.0
H523 H 0.51376 0.64842 0.17193 0.0
H524 H 0.43041 0.51502 0.15448 0.0
H525 H 0.49462 0.58093 0.15641 0.0
H526 H 0.45142 0.62807 0.09211 0.0
H527 H 0.38789 0.56169 0.08973 0.0
C528 C 0.56583 0.71941 0.11003 0.0
C529 C 0.57777 0.73496 0.13629 0.0
C530 C 0.53456 0.67839 0.10602 0.0
C531 C 0.5148 0.65211 0.12819 0.0
C532 C 0.52841 0.66734 0.15432 0.0
C533 C 0.55942 0.7081 0.15829 0.0
C534 C 0.43493 0.53936 0.14057 0.0
C535 C 0.40407 0.53337 0.12211 0.0
C536 C 0.47165 0.57722 0.14172 0.0
C537 C 0.47823 0.61012 0.12456 0.0
C538 C 0.44779 0.60343 0.10542 0.0
C539 C 0.41118 0.56547 0.10419 0.0
H540 H 0.90105 0.5733 0.69424 0.0
H541 H 0.85795 0.5524 0.61198 0.0
H542 H 0.92171 0.52083 0.6893 0.0
H543 H 0.87609 0.49834 0.6074 0.0
H544 H 0.92978 0.41441 0.59913 0.0
H545 H 0.92402 0.47675 0.60323 0.0
H546 H 0.89382 0.45015 0.68798 0.0
H547 H 0.9023 0.38957 0.68395 0.0
C548 C 0.89615 0.55758 0.67505 0.0
C549 C 0.87781 0.567 0.65354 0.0
C550 C 0.90759 0.52707 0.67225 0.0
C551 C 0.90019 0.50454 0.64803 0.0
C552 C 0.88302 0.51513 0.62626 0.0
C553 C 0.87235 0.54617 0.6289 0.0
C554 C 0.92247 0.42237 0.61867 0.0
C555 C 0.91648 0.39721 0.64121 0.0
C556 C 0.91876 0.45795 0.62104 0.0
C557 C 0.90805 0.46877 0.64592 0.0
C558 C 0.90284 0.44368 0.66856 0.0
C559 C 0.90739 0.40861 0.66626 0.0
H560 H 0.51902 0.84381 0.10422 0.0
H561 H 0.55675 0.90743 0.18055 0.0
H562 H 0.45307 0.8418 0.108 0.0
H563 H 0.49007 0.9057 0.18438 0.0
H564 H 0.34516 0.83767 0.19425 0.0
H565 H 0.4169 0.8538 0.1915 0.0
H566 H 0.42033 0.88441 0.10715 0.0
H567 H 0.34826 0.86764 0.10978 0.0
C568 C 0.51331 0.85772 0.12178 0.0
C569 C 0.54309 0.87569 0.14213 0.0
C570 C 0.47551 0.85689 0.12383 0.0
C571 C 0.46617 0.87383 0.1464 0.0
C572 C 0.49616 0.89221 0.16676 0.0
C573 C 0.53436 0.89334 0.16457 0.0
C574 C 0.36136 0.84849 0.17519 0.0
C575 C 0.34067 0.85088 0.15214 0.0
C576 C 0.40267 0.85796 0.17366 0.0
C577 C 0.42437 0.86991 0.14903 0.0
C578 C 0.40436 0.87458 0.12635 0.0
C579 C 0.36307 0.86526 0.1279 0.0
H580 H 0.6781 0.52467 0.61433 0.0
H581 H 0.69681 0.53644 0.70049 0.0
H582 H 0.61794 0.45725 0.62039 0.0
H583 H 0.63486 0.46909 0.70692 0.0
H584 H 0.5679 0.32601 0.70114 0.0
H585 H 0.61633 0.39954 0.70064 0.0
H586 H 0.54996 0.415 0.63449 0.0
H587 H 0.50254 0.34067 0.63418 0.0
C588 C 0.66868 0.51317 0.6347 0.0
C589 C 0.69236 0.53562 0.65693 0.0
C590 C 0.63379 0.47448 0.63823 0.0
C591 C 0.62132 0.45727 0.66417 0.0
C592 C 0.64387 0.48091 0.68659 0.0
C593 C 0.67918 0.51964 0.68299 0.0
C594 C 0.56321 0.34512 0.6867 0.0
C595 C 0.53175 0.32731 0.66736 0.0
C596 C 0.59094 0.38758 0.68656 0.0
C597 C 0.58765 0.41348 0.66726 0.0
C598 C 0.55422 0.39598 0.6492 0.0
C599 C 0.52677 0.35335 0.64913 0.0
H600 H 0.43719 0.92886 0.37677 0.0
H601 H 0.39848 0.85029 0.44718 0.0
H602 H 0.49977 0.92322 0.3738 0.0
H603 H 0.46033 0.84378 0.44397 0.0
H604 H 0.58787 0.85917 0.443 0.0
H605 H 0.53444 0.87863 0.44815 0.0
H606 H 0.5172 0.87095 0.36174 0.0
H607 H 0.57104 0.85254 0.35657 0.0
C608 C 0.44223 0.91061 0.3917 0.0
C609 C 0.41296 0.88992 0.41215 0.0
C610 C 0.47796 0.90717 0.38994 0.0
C611 C 0.48515 0.88292 0.40859 0.0
C612 C 0.45622 0.86319 0.42948 0.0
C613 C 0.42058 0.86666 0.43123 0.0
C614 C 0.57316 0.86234 0.42508 0.0
C615 C 0.58359 0.85401 0.39939 0.0
C616 C 0.54227 0.87317 0.42804 0.0
C617 C 0.52114 0.87599 0.40539 0.0
C618 C 0.53298 0.86949 0.37963 0.0
C619 C 0.5638 0.85868 0.37667 0.0
H620 H 0.76878 0.55846 0.92362 0.0
H621 H 0.7655 0.57121 0.83721 0.0
H622 H 0.69555 0.50867 0.92387 0.0
H623 H 0.69158 0.52267 0.83747 0.0
H624 H 0.57611 0.39259 0.84471 0.0
H625 H 0.64581 0.45158 0.84198 0.0
H626 H 0.62783 0.49473 0.91935 0.0
H627 H 0.55919 0.43459 0.92249 0.0
C628 C 0.75219 0.55136 0.90473 0.0
C629 C 0.77307 0.56861 0.88039 0.0
C630 C 0.70995 0.52284 0.90484 0.0
C631 C 0.68727 0.51122 0.88064 0.0
C632 C 0.70796 0.53005 0.85644 0.0
C633 C 0.75036 0.5582 0.8563 0.0
C634 C 0.58693 0.41516 0.86085 0.0
C635 C 0.56244 0.40894 0.88388 0.0
C636 C 0.62691 0.44913 0.85931 0.0
C637 C 0.64301 0.47792 0.88064 0.0
C638 C 0.61718 0.47279 0.90286 0.0
C639 C 0.57758 0.43853 0.90457 0.0
H640 H 0.24549 0.75112 0.43897 0.0
H641 H 0.2246 0.7406 0.35311 0.0
H642 H 0.22816 0.67882 0.44085 0.0
H643 H 0.20488 0.66779 0.35496 0.0
H644 H 0.22591 0.55666 0.3601 0.0
H645 H 0.233 0.6253 0.35817 0.0
H646 H 0.18271 0.60887 0.43903 0.0
H647 H 0.17806 0.54122 0.44124 0.0
C648 C 0.23592 0.73296 0.42062 0.0
C649 C 0.23656 0.75169 0.3959 0.0
C650 C 0.22588 0.69125 0.42162 0.0
C651 C 0.2155 0.66689 0.39797 0.0
C652 C 0.21383 0.68536 0.37354 0.0
C653 C 0.22464 0.72716 0.37248 0.0
C654 C 0.21592 0.5676 0.37731 0.0
C655 C 0.20148 0.54351 0.40081 0.0
C656 C 0.21978 0.60708 0.37623 0.0
C657 C 0.20864 0.6234 0.39851 0.0
C658 C 0.19258 0.59827 0.42163 0.0
C659 C 0.18943 0.55911 0.42283 0.0
H660 H 0.68346 0.1614 0.85711 0.0
H661 H 0.69064 0.20438 0.93895 0.0
H662 H 0.6202 0.16507 0.85045 0.0
H663 H 0.62903 0.20954 0.93224 0.0
H664 H 0.50819 0.20132 0.92108 0.0
H665 H 0.55718 0.17626 0.926 0.0
H666 H 0.60239 0.21784 0.84504 0.0
H667 H 0.55236 0.24114 0.83979 0.0
C668 C 0.67128 0.17124 0.8737 0.0
C669 C 0.692 0.1828 0.89847 0.0
C670 C 0.63523 0.1736 0.86989 0.0
C671 C 0.61941 0.18774 0.89077 0.0
C672 C 0.63962 0.19781 0.91581 0.0
C673 C 0.67531 0.19523 0.91961 0.0
C674 C 0.52807 0.20437 0.90418 0.0
C675 C 0.52678 0.22378 0.88021 0.0
C676 C 0.55638 0.19024 0.90703 0.0
C677 C 0.58439 0.19566 0.8861 0.0
C678 C 0.58124 0.21279 0.86155 0.0
C679 C 0.55265 0.22648 0.8586 0.0
H680 H 0.35892 0.50982 0.34446 0.0
H681 H 0.35373 0.51202 0.43152 0.0
H682 H 0.43209 0.56101 0.34558 0.0
H683 H 0.42612 0.56425 0.43269 0.0
H684 H 0.56222 0.64415 0.4316 0.0
H685 H 0.49516 0.58226 0.42679 0.0
H686 H 0.47449 0.63222 0.35349 0.0
H687 H 0.54256 0.69317 0.35782 0.0
C688 C 0.37347 0.52101 0.36387 0.0
C689 C 0.35038 0.50691 0.3879 0.0
C690 C 0.41543 0.55068 0.36451 0.0
C691 C 0.43529 0.56731 0.3892 0.0
C692 C 0.41237 0.55193 0.41326 0.0
C693 C 0.37058 0.52198 0.41262 0.0
C694 C 0.5436 0.64144 0.41418 0.0
C695 C 0.55748 0.67349 0.39513 0.0
C696 C 0.50492 0.60612 0.41153 0.0
C697 C 0.47879 0.60224 0.38998 0.0
C698 C 0.49369 0.63366 0.37023 0.0
C699 C 0.53272 0.66878 0.37271 0.0
H700 H 0.92625 0.52112 0.92912 0.0
H701 H 0.92271 0.53534 0.84291 0.0
H702 H 0.91843 0.45309 0.92279 0.0
H703 H 0.91649 0.46719 0.83625 0.0
H704 H 0.83626 0.32384 0.84211 0.0
H705 H 0.86369 0.39806 0.8423 0.0
H706 H 0.94369 0.40965 0.90855 0.0
H707 H 0.91458 0.33483 0.90914 0.0
C708 C 0.92483 0.51001 0.9087 0.0
C709 C 0.92465 0.53331 0.88651 0.0
C710 C 0.9207 0.47098 0.90501 0.0
C711 C 0.91658 0.45425 0.87898 0.0
C712 C 0.91887 0.47873 0.85662 0.0
C713 C 0.92276 0.51789 0.86037 0.0
C714 C 0.86019 0.34225 0.85645 0.0
C715 C 0.87265 0.32332 0.87597 0.0
C716 C 0.87624 0.38504 0.85643 0.0
C717 C 0.90553 0.41006 0.87573 0.0
C718 C 0.92037 0.39133 0.89385 0.0
C719 C 0.90389 0.34842 0.8941 0.0
H720 H 0.24948 0.35763 0.34521 0.0
H721 H 0.16851 0.40933 0.34018 0.0
H722 H 0.26647 0.3719 0.29749 0.0
H723 H 0.18515 0.42336 0.29191 0.0
H724 H 0.17131 0.36414 0.20475 0.0
H725 H 0.16569 0.37198 0.25327 0.0
H726 H 0.29744 0.42474 0.26094 0.0
H727 H 0.30323 0.4169 0.21244 0.0
C728 C 0.23633 0.37328 0.33399 0.0
C729 C 0.20769 0.38235 0.34628 0.0
C730 C 0.24606 0.38149 0.30664 0.0
C731 C 0.22678 0.39831 0.29084 0.0
C732 C 0.20017 0.41 0.30356 0.0
C733 C 0.19099 0.40243 0.33119 0.0
C734 C 0.19916 0.37772 0.21671 0.0
C735 C 0.23766 0.38938 0.20469 0.0
C736 C 0.19596 0.38265 0.24449 0.0
C737 C 0.23113 0.39904 0.26094 0.0
C738 C 0.26977 0.41184 0.24881 0.0
C739 C 0.27303 0.40726 0.22101 0.0
H740 H 0.85198 0.16127 0.70854 0.0
H741 H 0.93872 0.29079 0.72065 0.0
H742 H 0.83475 0.15379 0.75647 0.0
H743 H 0.92138 0.28311 0.76876 0.0
H744 H 0.9268 0.2219 0.85193 0.0
H745 H 0.93546 0.24456 0.80508 0.0
H746 H 0.80346 0.17599 0.79436 0.0
H747 H 0.79485 0.15354 0.84169 0.0
C748 C 0.86719 0.1882 0.72137 0.0
C749 C 0.89716 0.22648 0.7108 0.0
C750 C 0.85691 0.18404 0.7488 0.0
C751 C 0.87661 0.21791 0.76636 0.0
C752 C 0.90577 0.25647 0.7557 0.0
C753 C 0.91572 0.26076 0.72817 0.0
C754 C 0.89956 0.21278 0.83979 0.0
C755 C 0.8602 0.18582 0.85026 0.0
C756 C 0.9045 0.22585 0.81298 0.0
C757 C 0.87018 0.2116 0.79596 0.0
C758 C 0.83047 0.18708 0.807 0.0
C759 C 0.82549 0.17456 0.83408 0.0
H760 H 0.7175 0.94864 0.22594 0.0
H761 H 0.67992 0.82073 0.21074 0.0
H762 H 0.71407 0.93615 0.27433 0.0
H763 H 0.67963 0.80854 0.25905 0.0
H764 H 0.67202 0.79062 0.34881 0.0
H765 H 0.65517 0.80111 0.30289 0.0
H766 H 0.75288 0.92847 0.30625 0.0
H767 H 0.76698 0.91861 0.35213 0.0
C768 C 0.70863 0.91782 0.23304 0.0
C769 C 0.69945 0.88582 0.21461 0.0
C770 C 0.70697 0.91059 0.26084 0.0
C771 C 0.69752 0.87144 0.27098 0.0
C772 C 0.68666 0.83901 0.25235 0.0
C773 C 0.68714 0.84603 0.22453 0.0
C774 C 0.68881 0.82109 0.33994 0.0
C775 C 0.72076 0.85372 0.35422 0.0
C776 C 0.67969 0.82707 0.31338 0.0
C777 C 0.70279 0.86566 0.30038 0.0
C778 C 0.73362 0.89848 0.3153 0.0
C779 C 0.74215 0.89267 0.34179 0.0
H780 H 0.9311 0.72214 0.70045 0.0
H781 H 0.79916 0.66136 0.71123 0.0
H782 H 0.93892 0.70499 0.74673 0.0
H783 H 0.80698 0.64479 0.75807 0.0
H784 H 0.86286 0.71373 0.84286 0.0
H785 H 0.84026 0.6984 0.79609 0.0
H786 H 0.92272 0.64959 0.78304 0.0
H787 H 0.94477 0.66426 0.83033 0.0
C788 C 0.90365 0.70398 0.71253 0.0
C789 C 0.86456 0.69319 0.70232 0.0
C790 C 0.9081 0.69397 0.73903 0.0
C791 C 0.8736 0.67375 0.75614 0.0
C792 C 0.83414 0.66047 0.74535 0.0
C793 C 0.82962 0.66972 0.71853 0.0
C794 C 0.87514 0.69846 0.83025 0.0
C795 C 0.90571 0.69039 0.84015 0.0
C796 C 0.86204 0.68946 0.80347 0.0
C797 C 0.87989 0.67302 0.78579 0.0
C798 C 0.9085 0.66236 0.79619 0.0
C799 C 0.92098 0.67056 0.82326 0.0
H800 H 0.24074 0.91408 0.19188 0.0
H801 H 0.17411 0.78122 0.19889 0.0
H802 H 0.26363 0.91983 0.23847 0.0
H803 H 0.19666 0.78693 0.24592 0.0
H804 H 0.18229 0.82876 0.33409 0.0
H805 H 0.17435 0.81537 0.28569 0.0
H806 H 0.30316 0.90345 0.2733 0.0
H807 H 0.31133 0.91677 0.32195 0.0
C808 C 0.23207 0.88604 0.20319 0.0
C809 C 0.20558 0.84723 0.19184 0.0
C810 C 0.24522 0.88933 0.22988 0.0
C811 C 0.23152 0.85386 0.24598 0.0
C812 C 0.20738 0.81481 0.23404 0.0
C813 C 0.19481 0.8115 0.20707 0.0
C814 C 0.20905 0.84508 0.32112 0.0
C815 C 0.24735 0.87422 0.33189 0.0
C816 C 0.20459 0.83701 0.29339 0.0
C817 C 0.23815 0.85825 0.27567 0.0
C818 C 0.27672 0.88665 0.28647 0.0
C819 C 0.28136 0.89428 0.31431 0.0
H820 H 0.43412 0.30197 0.82763 0.0
H821 H 0.38438 0.17065 0.8374 0.0
H822 H 0.45217 0.29667 0.78057 0.0
H823 H 0.40283 0.16537 0.79089 0.0
H824 H 0.38326 0.23679 0.69661 0.0
H825 H 0.40025 0.26119 0.74294 0.0
H826 H 0.4569 0.18521 0.75387 0.0
H827 H 0.44032 0.16124 0.70701 0.0
C828 C 0.42841 0.27229 0.82002 0.0
C829 C 0.40746 0.23663 0.836 0.0
C830 C 0.43858 0.26921 0.79308 0.0
C831 C 0.42872 0.23056 0.78194 0.0
C832 C 0.41121 0.19565 0.79884 0.0
C833 C 0.40036 0.19861 0.82546 0.0
C834 C 0.40078 0.22655 0.70859 0.0
C835 C 0.41025 0.19696 0.69834 0.0
C836 C 0.41068 0.24066 0.73513 0.0
C837 C 0.42954 0.22481 0.75221 0.0
C838 C 0.44215 0.19779 0.74123 0.0
C839 C 0.43291 0.18426 0.71439 0.0
H840 H 0.34283 0.22012 0.98152 0.0
H841 H 0.3846 0.33302 0.93652 0.0
H842 H 0.30332 0.24034 1.01185 0.0
H843 H 0.3449 0.35296 0.96623 0.0
H844 H 0.32944 0.40092 0.04895 0.0
H845 H 0.35568 0.37568 1.01302 0.0
H846 H 0.24514 0.25652 1.01702 0.0
H847 H 0.21873 0.28206 0.05363 0.0
C848 C 0.34283 0.24882 0.97785 0.0
C849 C 0.36661 0.27503 0.95673 0.0
C850 C 0.32011 0.26034 0.99508 0.0
C851 C 0.32118 0.29845 0.9916 0.0
C852 C 0.34381 0.3237 0.96974 0.0
C853 C 0.36647 0.31228 0.95267 0.0
C854 C 0.31032 0.36951 0.04195 0.0
C855 C 0.27197 0.34355 0.05418 0.0
C856 C 0.32532 0.35504 1.02119 0.0
C857 C 0.30258 0.31402 1.01209 0.0
C858 C 0.26354 0.28821 0.0237 0.0
C859 C 0.24822 0.30294 0.04444 0.0
H860 H 0.18817 0.35217 0.50356 0.0
H861 H 0.10119 0.3355 0.44121 0.0
H862 H 0.13142 0.31906 0.53633 0.0
H863 H 1.04411 0.30126 0.47378 0.0
H864 H 0.95376 0.21512 0.54339 0.0
H865 H 1.00837 0.23589 0.50893 0.0
H866 H 0.08332 0.34901 0.55247 0.0
H867 H 1.02918 0.32916 0.58623 0.0
C868 C 0.15675 0.34026 0.49677 0.0
C869 C 0.14878 0.34574 0.46994 0.0
C870 C 0.12436 0.32151 0.51546 0.0
C871 C 0.08341 0.30761 0.50755 0.0
C872 C 0.07532 0.31134 0.48034 0.0
C873 C 0.10785 0.3309 0.46177 0.0
C874 C 0.98187 0.24445 0.5455 0.0
C875 C 0.98692 0.27059 0.56748 0.0
C876 C 1.01304 0.25627 0.52582 0.0
C877 C 1.05015 0.29389 0.52821 0.0
C878 C 0.05524 0.31965 0.55029 0.0
C879 C 1.02397 0.30835 0.56952 0.0
H880 H 0.80596 0.97995 0.08113 0.0
H881 H 0.6834 0.94145 0.0524 0.0
H882 H 0.83407 0.03792 0.05014 0.0
H883 H 0.71133 0.99489 1.01848 0.0
H884 H 0.75639 0.11387 0.97705 0.0
H885 H 0.73302 0.05957 1.00988 0.0
H886 H 0.85566 0.07387 1.0125 0.0
H887 H 0.87999 0.13331 0.98248 0.0
C888 C 0.78504 0.9837 0.06793 0.0
C889 C 0.74227 0.95732 0.07011 0.0
C890 C 0.80125 1.01679 0.04962 0.0
C891 C 0.77522 1.02299 0.03192 0.0
C892 C 0.7327 0.99366 0.03258 0.0
C893 C 0.71643 0.96211 0.05182 0.0
C894 C 0.77852 0.10565 0.98479 0.0
C895 C 0.81974 0.12656 0.97606 0.0
C896 C 0.76483 0.07347 1.00341 0.0
C897 C 0.7915 0.05986 1.01335 0.0
C898 C 0.83347 0.08239 1.00549 0.0
C899 C 0.84754 0.11613 0.98772 0.0
H900 H 0.75576 0.69317 0.59453 0.0
H901 H 0.87922 0.76198 0.56214 0.0
H902 H 0.73173 0.72467 0.56136 0.0
H903 H 0.855 0.79435 0.52882 0.0
H904 H 0.78293 0.86227 0.49053 0.0
H905 H 0.81542 0.84128 0.52582 0.0
H906 H 0.72932 0.71327 0.50898 0.0
H907 H 0.69793 0.73387 0.47377 0.0
C908 C 0.77792 0.71563 0.58056 0.0
C909 C 0.81939 0.72534 0.581 0.0
C910 C 0.76415 0.73365 0.56159 0.0
C911 C 0.79146 0.76178 0.54246 0.0
C912 C 0.83341 0.77297 0.54349 0.0
C913 C 0.84721 0.75452 0.56249 0.0
C914 C 0.77151 0.8297 0.49421 0.0
C915 C 0.73825 0.79969 0.47919 0.0
C916 C 0.79003 0.81775 0.51433 0.0
C917 C 0.77472 0.77566 0.52015 0.0
C918 C 0.74154 0.74592 0.50507 0.0
C919 C 0.72358 0.75775 0.48489 0.0
H920 H 1.01193 0.68971 0.95609 0.0
H921 H 0.95248 0.75956 0.9793 0.0
H922 H 0.06278 0.72319 0.99145 0.0
H923 H 1.00427 0.79381 1.01506 0.0
H924 H 0.13999 0.86666 0.05841 0.0
H925 H 0.08655 0.84186 0.02307 0.0
H926 H 0.0531 0.71605 0.04235 0.0
H927 H 0.10548 0.74039 0.07712 0.0
C928 C 1.01002 0.71265 0.9686 0.0
C929 C 0.97833 0.72214 0.9648 0.0
C930 C 1.03915 0.7318 0.98893 0.0
C931 C 1.03736 0.76089 1.00625 0.0
C932 C 1.00654 0.77166 1.00195 0.0
C933 C 0.97698 0.75212 0.98153 0.0
C934 C 0.12051 0.83374 0.05538 0.0
C935 C 0.12701 0.80548 0.07049 0.0
C936 C 0.09004 0.81957 0.03517 0.0
C937 C 0.06608 0.777 0.02964 0.0
C938 C 0.07152 0.74902 0.04572 0.0
C939 C 0.10151 0.76303 0.06575 0.0
H940 H 0.25256 0.98884 0.46328 0.0
H941 H 0.31255 0.9305 0.5035 0.0
H942 H 0.27991 0.04431 0.49652 0.0
H943 H 0.33643 0.98304 0.53855 0.0
H944 H 0.41846 0.10375 0.57809 0.0
H945 H 0.38547 0.04762 0.54656 0.0
H946 H 0.28603 0.0751 0.53719 0.0
H947 H 0.32231 0.13481 0.56707 0.0
C948 C 0.27067 0.98736 0.47981 0.0
C949 C 0.28075 0.95566 0.48081 0.0
C950 C 0.28628 1.01913 0.49909 0.0
C951 C 0.31148 1.01932 0.52031 0.0
C952 C 0.31884 0.98555 0.5221 0.0
C953 C 0.30454 0.95477 0.50227 0.0
C954 C 0.38957 0.09796 0.56927 0.0
C955 C 0.37247 0.12318 0.57571 0.0
C956 C 0.37001 0.06498 0.55135 0.0
C957 C 0.33202 0.05529 0.5395 0.0
C958 C 0.31519 0.08115 0.54562 0.0
C959 C 0.33566 0.1152 0.56307 0.0
loop_
_geom_bond_atom_site_label_1
_geom_bond_atom_site_label_2
_geom_bond_distance
_geom_bond_site_symmetry_2
_ccdc_geom_bond_type
O0 Tb1 2.506 . S
O0 C14 1.265 . S
Tb1 O0 2.506 . S
Tb1 O6 2.312 . S
Tb1 O10 2.271 . S
Tb1 O12 2.338 . S
Tb1 O19 2.441 . S
C2 O10 1.252 . S
C2 O11 1.253 . S
O3 Tb4 2.271 . S
O3 C13 1.252 . S
Tb4 O3 2.271 . S
Tb4 O7 2.338 . S
Tb4 O11 2.312 . S
Tb4 O15 2.441 . S
Tb4 O16 2.506 . S
C5 O15 1.244 . S
C5 O16 1.265 . S
O6 Tb1 2.312 . S
O6 C13 1.253 . S
O7 Tb4 2.338 . S
O7 C8 1.258 . S
C8 O7 1.258 . S
C8 O9 1.251 . S
O9 C8 1.251 . S
O10 Tb1 2.271 . S
O10 C2 1.252 . S
O11 C2 1.253 . S
O11 Tb4 2.312 . S
O12 Tb1 2.338 . S
O12 C17 1.258 . S
C13 O3 1.252 . S
C13 O6 1.253 . S
C14 O0 1.265 . S
C14 O19 1.244 . S
O15 Tb4 2.441 . S
O15 C5 1.244 . S
O16 Tb4 2.506 . S
O16 C5 1.265 . S
C17 O12 1.258 . S
C17 O18 1.251 . S
O18 C17 1.251 . S
O19 Tb1 2.441 . S
O19 C14 1.244 . S
O20 Tb21 2.506 . S
O20 C34 1.265 . S
Tb21 O20 2.506 . S
Tb21 O26 2.312 . S
Tb21 O30 2.271 . S
Tb21 O32 2.338 . S
Tb21 O39 2.441 . S
C22 O30 1.252 . S
C22 O31 1.253 . S
O23 Tb24 2.271 . S
O23 C33 1.252 . S
Tb24 O23 2.271 . S
Tb24 O27 2.338 . S
Tb24 O31 2.312 . S
Tb24 O35 2.441 . S
Tb24 O36 2.506 . S
C25 O35 1.244 . S
C25 O36 1.265 . S
O26 Tb21 2.312 . S
O26 C33 1.253 . S
O27 Tb24 2.338 . S
O27 C28 1.258 . S
C28 O27 1.258 . S
C28 O29 1.251 . S
O29 C28 1.251 . S
O30 Tb21 2.271 . S
O30 C22 1.252 . S
O31 C22 1.253 . S
O31 Tb24 2.312 . S
O32 Tb21 2.338 . S
O32 C37 1.258 . S
C33 O23 1.252 . S
C33 O26 1.253 . S
C34 O20 1.265 . S
C34 O39 1.244 . S
O35 Tb24 2.441 . S
O35 C25 1.244 . S
O36 Tb24 2.506 . S
O36 C25 1.265 . S
C37 O32 1.258 . S
C37 O38 1.251 . S
O38 C37 1.251 . S
O39 Tb21 2.441 . S
O39 C34 1.244 . S
O40 Tb41 2.506 . S
O40 C54 1.265 . S
Tb41 O40 2.506 . S
Tb41 O46 2.312 . S
Tb41 O50 2.271 . S
Tb41 O52 2.338 . S
Tb41 O59 2.441 . S
C42 O50 1.252 . S
C42 O51 1.253 . S
O43 Tb44 2.271 . S
O43 C53 1.252 . S
Tb44 O43 2.271 . S
Tb44 O47 2.338 . S
Tb44 O51 2.312 . S
Tb44 O55 2.441 . S
Tb44 O56 2.506 . S
C45 O55 1.244 . S
C45 O56 1.265 . S
O46 Tb41 2.312 . S
O46 C53 1.253 . S
O47 Tb44 2.338 . S
O47 C48 1.258 . S
C48 O47 1.258 . S
C48 O49 1.251 . S
O49 C48 1.251 . S
O50 Tb41 2.271 . S
O50 C42 1.252 . S
O51 C42 1.253 . S
O51 Tb44 2.312 . S
O52 Tb41 2.338 . S
O52 C57 1.258 . S
C53 O43 1.252 . S
C53 O46 1.253 . S
C54 O40 1.265 . S
C54 O59 1.244 . S
O55 Tb44 2.441 . S
O55 C45 1.244 . S
O56 Tb44 2.506 . S
O56 C45 1.265 . S
C57 O52 1.258 . S
C57 O58 1.251 . S
O58 C57 1.251 . S
O59 Tb41 2.441 . S
O59 C54 1.244 . S
O60 Tb61 2.506 . S
O60 C74 1.265 . S
Tb61 O60 2.506 . S
Tb61 O66 2.312 . S
Tb61 O70 2.271 . S
Tb61 O72 2.338 . S
Tb61 O79 2.441 . S
C62 O70 1.252 . S
C62 O71 1.253 . S
O63 Tb64 2.271 . S
O63 C73 1.252 . S
Tb64 O63 2.271 . S
Tb64 O67 2.338 . S
Tb64 O71 2.312 . S
Tb64 O75 2.441 . S
Tb64 O76 2.506 . S
C65 O75 1.244 . S
C65 O76 1.265 . S
O66 Tb61 2.312 . S
O66 C73 1.253 . S
O67 Tb64 2.338 . S
O67 C68 1.258 . S
C68 O67 1.258 . S
C68 O69 1.251 . S
O69 C68 1.251 . S
O70 Tb61 2.271 . S
O70 C62 1.252 . S
O71 C62 1.253 . S
O71 Tb64 2.312 . S
O72 Tb61 2.338 . S
O72 C77 1.258 . S
C73 O63 1.252 . S
C73 O66 1.253 . S
C74 O60 1.265 . S
C74 O79 1.244 . S
O75 Tb64 2.441 . S
O75 C65 1.244 . S
O76 Tb64 2.506 . S
O76 C65 1.265 . S
C77 O72 1.258 . S
C77 O78 1.251 . S
O78 C77 1.251 . S
O79 Tb61 2.441 . S
O79 C74 1.244 . S
O80 Tb81 2.506 . S
O80 C94 1.265 . S
Tb81 O80 2.506 . S
Tb81 O86 2.312 . S
Tb81 O90 2.271 . S
Tb81 O92 2.338 . S
Tb81 O99 2.441 . S
C82 O90 1.252 . S
C82 O91 1.253 . S
O83 Tb84 2.271 . S
O83 C93 1.252 . S
Tb84 O83 2.271 . S
Tb84 O87 2.338 . S
Tb84 O91 2.312 . S
Tb84 O95 2.441 . S
Tb84 O96 2.506 . S
C85 O95 1.244 . S
C85 O96 1.265 . S
O86 Tb81 2.312 . S
O86 C93 1.253 . S
O87 Tb84 2.338 . S
O87 C88 1.258 . S
C88 O87 1.258 . S
C88 O89 1.251 . S
O89 C88 1.251 . S
O90 Tb81 2.271 . S
O90 C82 1.252 . S
O91 C82 1.253 . S
O91 Tb84 2.312 . S
O92 Tb81 2.338 . S
O92 C97 1.258 . S
C93 O83 1.252 . S
C93 O86 1.253 . S
C94 O80 1.265 . S
C94 O99 1.244 . S
O95 Tb84 2.441 . S
O95 C85 1.244 . S
O96 Tb84 2.506 . S
O96 C85 1.265 . S
C97 O92 1.258 . S
C97 O98 1.251 . S
O98 C97 1.251 . S
O99 Tb81 2.441 . S
O99 C94 1.244 . S
O100 Tb101 2.506 . S
O100 C114 1.265 . S
Tb101 O100 2.506 . S
Tb101 O106 2.312 . S
Tb101 O110 2.271 . S
Tb101 O112 2.338 . S
Tb101 O119 2.441 . S
C102 O110 1.252 . S
C102 O111 1.253 . S
O103 Tb104 2.271 . S
O103 C113 1.252 . S
Tb104 O103 2.271 . S
Tb104 O107 2.338 . S
Tb104 O111 2.312 . S
Tb104 O115 2.441 . S
Tb104 O116 2.506 . S
C105 O115 1.244 . S
C105 O116 1.265 . S
O106 Tb101 2.312 . S
O106 C113 1.253 . S
O107 Tb104 2.338 . S
O107 C108 1.258 . S
C108 O107 1.258 . S
C108 O109 1.251 . S
O109 C108 1.251 . S
O110 Tb101 2.271 . S
O110 C102 1.252 . S
O111 C102 1.253 . S
O111 Tb104 2.312 . S
O112 Tb101 2.338 . S
O112 C117 1.258 . S
C113 O103 1.252 . S
C113 O106 1.253 . S
C114 O100 1.265 . S
C114 O119 1.244 . S
O115 Tb104 2.441 . S
O115 C105 1.244 . S
O116 Tb104 2.506 . S
O116 C105 1.265 . S
C117 O112 1.258 . S
C117 O118 1.251 . S
O118 C117 1.251 . S
O119 Tb101 2.441 . S
O119 C114 1.244 . S
O120 Tb121 2.506 . S
O120 C134 1.265 . S
Tb121 O120 2.506 . S
Tb121 O126 2.312 . S
Tb121 O130 2.271 . S
Tb121 O132 2.338 . S
Tb121 O139 2.441 . S
C122 O130 1.252 . S
C122 O131 1.253 . S
O123 Tb124 2.271 . S
O123 C133 1.252 . S
Tb124 O123 2.271 . S
Tb124 O127 2.338 . S
Tb124 O131 2.312 . S
Tb124 O135 2.441 . S
Tb124 O136 2.506 . S
C125 O135 1.244 . S
C125 O136 1.265 . S
O126 Tb121 2.312 . S
O126 C133 1.253 . S
O127 Tb124 2.338 . S
O127 C128 1.258 . S
C128 O127 1.258 . S
C128 O129 1.251 . S
O129 C128 1.251 . S
O130 Tb121 2.271 . S
O130 C122 1.252 . S
O131 C122 1.253 . S
O131 Tb124 2.312 . S
O132 Tb121 2.338 . S
O132 C137 1.258 . S
C133 O123 1.252 . S
C133 O126 1.253 . S
C134 O120 1.265 . S
C134 O139 1.244 . S
O135 Tb124 2.441 . S
O135 C125 1.244 . S
O136 Tb124 2.506 . S
O136 C125 1.265 . S
C137 O132 1.258 . S
C137 O138 1.251 . S
O138 C137 1.251 . S
O139 Tb121 2.441 . S
O139 C134 1.244 . S
O140 Tb141 2.506 . S
O140 C154 1.265 . S
Tb141 O140 2.506 . S
Tb141 O146 2.312 . S
Tb141 O150 2.271 . S
Tb141 O152 2.338 . S
Tb141 O159 2.441 . S
C142 O150 1.252 . S
C142 O151 1.253 . S
O143 Tb144 2.271 . S
O143 C153 1.252 . S
Tb144 O143 2.271 . S
Tb144 O147 2.338 . S
Tb144 O151 2.312 . S
Tb144 O155 2.441 . S
Tb144 O156 2.506 . S
C145 O155 1.244 . S
C145 O156 1.265 . S
O146 Tb141 2.312 . S
O146 C153 1.253 . S
O147 Tb144 2.338 . S
O147 C148 1.258 . S
C148 O147 1.258 . S
C148 O149 1.251 . S
O149 C148 1.251 . S
O150 Tb141 2.271 . S
O150 C142 1.252 . S
O151 C142 1.253 . S
O151 Tb144 2.312 . S
O152 Tb141 2.338 . S
O152 C157 1.258 . S
C153 O143 1.252 . S
C153 O146 1.253 . S
C154 O140 1.265 . S
C154 O159 1.244 . S
O155 Tb144 2.441 . S
O155 C145 1.244 . S
O156 Tb144 2.506 . S
O156 C145 1.265 . S
C157 O152 1.258 . S
C157 O158 1.251 . S
O158 C157 1.251 . S
O159 Tb141 2.441 . S
O159 C154 1.244 . S
O160 Tb161 2.506 . S
O160 C174 1.265 . S
Tb161 O160 2.506 . S
Tb161 O166 2.312 . S
Tb161 O170 2.271 . S
Tb161 O172 2.338 . S
Tb161 O179 2.441 . S
C162 O170 1.252 . S
C162 O171 1.253 . S
O163 Tb164 2.271 . S
O163 C173 1.252 . S
Tb164 O163 2.271 . S
Tb164 O167 2.338 . S
Tb164 O171 2.312 . S
Tb164 O175 2.441 . S
Tb164 O176 2.506 . S
C165 O175 1.244 . S
C165 O176 1.265 . S
O166 Tb161 2.312 . S
O166 C173 1.253 . S
O167 Tb164 2.338 . S
O167 C168 1.258 . S
C168 O167 1.258 . S
C168 O169 1.251 . S
O169 C168 1.251 . S
O170 Tb161 2.271 . S
O170 C162 1.252 . S
O171 C162 1.253 . S
O171 Tb164 2.312 . S
O172 Tb161 2.338 . S
O172 C177 1.258 . S
C173 O163 1.252 . S
C173 O166 1.253 . S
C174 O160 1.265 . S
C174 O179 1.244 . S
O175 Tb164 2.441 . S
O175 C165 1.244 . S
O176 Tb164 2.506 . S
O176 C165 1.265 . S
C177 O172 1.258 . S
C177 O178 1.251 . S
O178 C177 1.251 . S
O179 Tb161 2.441 . S
O179 C174 1.244 . S
O180 Tb181 2.506 . S
O180 C194 1.265 . S
Tb181 O180 2.506 . S
Tb181 O186 2.312 . S
Tb181 O190 2.271 . S
Tb181 O192 2.338 . S
Tb181 O199 2.441 . S
C182 O190 1.252 . S
C182 O191 1.253 . S
O183 Tb184 2.271 . S
O183 C193 1.252 . S
Tb184 O183 2.271 . S
Tb184 O187 2.338 . S
Tb184 O191 2.312 . S
Tb184 O195 2.441 . S
Tb184 O196 2.506 . S
C185 O195 1.244 . S
C185 O196 1.265 . S
O186 Tb181 2.312 . S
O186 C193 1.253 . S
O187 Tb184 2.338 . S
O187 C188 1.258 . S
C188 O187 1.258 . S
C188 O189 1.251 . S
O189 C188 1.251 . S
O190 Tb181 2.271 . S
O190 C182 1.252 . S
O191 C182 1.253 . S
O191 Tb184 2.312 . S
O192 Tb181 2.338 . S
O192 C197 1.258 . S
C193 O183 1.252 . S
C193 O186 1.253 . S
C194 O180 1.265 . S
C194 O199 1.244 . S
O195 Tb184 2.441 . S
O195 C185 1.244 . S
O196 Tb184 2.506 . S
O196 C185 1.265 . S
C197 O192 1.258 . S
C197 O198 1.251 . S
O198 C197 1.251 . S
O199 Tb181 2.441 . S
O199 C194 1.244 . S
O200 Tb201 2.506 . S
O200 C214 1.265 . S
Tb201 O200 2.506 . S
Tb201 O206 2.312 . S
Tb201 O210 2.271 . S
Tb201 O212 2.338 . S
Tb201 O219 2.441 . S
C202 O210 1.252 . S
C202 O211 1.253 . S
O203 Tb204 2.271 . S
O203 C213 1.252 . S
Tb204 O203 2.271 . S
Tb204 O207 2.338 . S
Tb204 O211 2.312 . S
Tb204 O215 2.441 . S
Tb204 O216 2.506 . S
C205 O215 1.244 . S
C205 O216 1.265 . S
O206 Tb201 2.312 . S
O206 C213 1.253 . S
O207 Tb204 2.338 . S
O207 C208 1.258 . S
C208 O207 1.258 . S
C208 O209 1.251 . S
O209 C208 1.251 . S
O210 Tb201 2.271 . S
O210 C202 1.252 . S
O211 C202 1.253 . S
O211 Tb204 2.312 . S
O212 Tb201 2.338 . S
O212 C217 1.258 . S
C213 O203 1.252 . S
C213 O206 1.253 . S
C214 O200 1.265 . S
C214 O219 1.244 . S
O215 Tb204 2.441 . S
O215 C205 1.244 . S
O216 Tb204 2.506 . S
O216 C205 1.265 . S
C217 O212 1.258 . S
C217 O218 1.251 . S
O218 C217 1.251 . S
O219 Tb201 2.441 . S
O219 C214 1.244 . S
O220 Tb221 2.506 . S
O220 C234 1.265 . S
Tb221 O220 2.506 . S
Tb221 O226 2.312 . S
Tb221 O230 2.271 . S
Tb221 O232 2.338 . S
Tb221 O239 2.441 . S
C222 O230 1.252 . S
C222 O231 1.253 . S
O223 Tb224 2.271 . S
O223 C233 1.252 . S
Tb224 O223 2.271 . S
Tb224 O227 2.338 . S
Tb224 O231 2.312 . S
Tb224 O235 2.441 . S
Tb224 O236 2.506 . S
C225 O235 1.244 . S
C225 O236 1.265 . S
O226 Tb221 2.312 . S
O226 C233 1.253 . S
O227 Tb224 2.338 . S
O227 C228 1.258 . S
C228 O227 1.258 . S
C228 O229 1.251 . S
O229 C228 1.251 . S
O230 Tb221 2.271 . S
O230 C222 1.252 . S
O231 C222 1.253 . S
O231 Tb224 2.312 . S
O232 Tb221 2.338 . S
O232 C237 1.258 . S
C233 O223 1.252 . S
C233 O226 1.253 . S
C234 O220 1.265 . S
C234 O239 1.244 . S
O235 Tb224 2.441 . S
O235 C225 1.244 . S
O236 Tb224 2.506 . S
O236 C225 1.265 . S
C237 O232 1.258 . S
C237 O238 1.251 . S
O238 C237 1.251 . S
O239 Tb221 2.441 . S
O239 C234 1.244 . S
H240 C248 0.950 . S
H241 C253 0.950 . S
H242 C250 0.950 . S
H243 C252 0.950 . S
H244 C254 0.950 . S
H245 C256 0.950 . S
H246 C258 0.950 . S
H247 C259 0.950 . S
C248 H240 0.950 . S
C248 C249 1.386 . S
C248 C250 1.391 . S
C249 C248 1.386 . S
C249 C253 1.393 . S
C250 H242 0.950 . S
C250 C248 1.391 . S
C250 C251 1.400 1_565 S
C251 C250 1.400 1_545 S
C251 C252 1.398 . S
C251 C257 1.491 . S
C252 H243 0.950 . S
C252 C251 1.398 . S
C252 C253 1.391 1_545 S
C253 H241 0.950 . S
C253 C249 1.393 . S
C253 C252 1.391 1_565 S
C254 H244 0.950 . S
C254 C255 1.386 . S
C254 C256 1.391 . S
C255 C254 1.386 . S
C255 C259 1.393 . S
C256 H245 0.950 . S
C256 C254 1.391 . S
C256 C257 1.400 . S
C257 C251 1.491 . S
C257 C256 1.400 . S
C257 C258 1.398 . S
C258 H246 0.950 . S
C258 C257 1.398 . S
C258 C259 1.391 . S
C259 H247 0.950 . S
C259 C255 1.393 . S
C259 C258 1.391 . S
H260 C268 0.950 . S
H261 C273 0.950 . S
H262 C270 0.950 . S
H263 C272 0.950 . S
H264 C274 0.943 1_655 S
H265 C276 0.950 . S
H266 C278 0.950 . S
H267 C279 0.950 . S
C268 H260 0.950 . S
C268 C269 1.386 . S
C268 C270 1.391 . S
C269 C268 1.386 . S
C269 C273 1.393 . S
C270 H262 0.950 . S
C270 C268 1.391 . S
C270 C271 1.400 . S
C271 C270 1.400 . S
C271 C272 1.398 . S
C271 C277 1.491 . S
C272 H263 0.950 . S
C272 C271 1.398 . S
C272 C273 1.391 . S
C273 H261 0.950 . S
C273 C269 1.393 . S
C273 C272 1.391 . S
C274 H264 0.943 1_455 S
C274 C275 1.382 . S
C274 C276 1.401 . S
C275 C274 1.382 . S
C275 C279 1.393 . S
C276 H265 0.950 . S
C276 C274 1.401 . S
C276 C277 1.400 . S
C277 C271 1.491 . S
C277 C276 1.400 . S
C277 C278 1.398 . S
C278 H266 0.950 . S
C278 C277 1.398 . S
C278 C279 1.391 . S
C279 H267 0.950 . S
C279 C275 1.393 . S
C279 C278 1.391 . S
H280 C288 0.950 . S
H281 C293 0.950 1_565 S
H282 C290 0.950 . S
H283 C292 0.950 . S
H284 C294 0.950 . S
H285 C296 0.950 . S
H286 C298 0.950 . S
H287 C299 0.950 . S
C288 H280 0.950 . S
C288 C289 1.386 . S
C288 C290 1.391 . S
C289 C288 1.386 . S
C289 C293 1.393 . S
C290 H282 0.950 . S
C290 C288 1.391 . S
C290 C291 1.400 . S
C291 C290 1.400 . S
C291 C292 1.398 . S
C291 C297 1.491 . S
C292 H283 0.950 . S
C292 C291 1.398 . S
C292 C293 1.391 . S
C293 H281 0.950 1_545 S
C293 C289 1.393 . S
C293 C292 1.391 . S
C294 H284 0.950 . S
C294 C295 1.386 . S
C294 C296 1.391 . S
C295 C294 1.386 . S
C295 C299 1.393 . S
C296 H285 0.950 . S
C296 C294 1.391 . S
C296 C297 1.400 1_455 S
C297 C291 1.491 . S
C297 C296 1.400 1_655 S
C297 C298 1.398 . S
C298 H286 0.950 . S
C298 C297 1.398 . S
C298 C299 1.391 1_655 S
C299 H287 0.950 . S
C299 C295 1.393 . S
C299 C298 1.391 1_455 S
H300 C308 0.950 . S
H301 C313 0.950 . S
H302 C310 0.950 . S
H303 C312 0.950 . S
H304 C314 0.950 . S
H305 C316 0.950 . S
H306 C318 0.950 . S
H307 C319 0.950 . S
C308 H300 0.950 . S
C308 C309 1.386 . S
C308 C310 1.391 . S
C309 C308 1.386 . S
C309 C313 1.393 . S
C310 H302 0.950 . S
C310 C308 1.391 . S
C310 C311 1.400 . S
C311 C310 1.400 . S
C311 C312 1.398 . S
C311 C317 1.491 . S
C312 H303 0.950 . S
C312 C311 1.398 . S
C312 C313 1.391 . S
C313 H301 0.950 . S
C313 C309 1.393 . S
C313 C312 1.391 . S
C314 H304 0.950 . S
C314 C315 1.386 . S
C314 C316 1.391 . S
C315 C314 1.386 . S
C315 C319 1.393 . S
C316 H305 0.950 . S
C316 C314 1.391 . S
C316 C317 1.400 1_545 S
C317 C311 1.491 . S
C317 C316 1.400 1_565 S
C317 C318 1.398 . S
C318 H306 0.950 . S
C318 C317 1.398 . S
C318 C319 1.391 1_565 S
C319 H307 0.950 . S
C319 C315 1.393 . S
C319 C318 1.391 1_545 S
H320 C328 0.950 . S
H321 C333 0.950 . S
H322 C330 0.950 . S
H323 C332 0.950 . S
H324 C334 0.950 . S
H325 C336 0.950 . S
H326 C338 0.950 . S
H327 C339 0.950 . S
C328 H320 0.950 . S
C328 C329 1.386 . S
C328 C330 1.391 . S
C329 C328 1.386 . S
C329 C333 1.393 . S
C330 H322 0.950 . S
C330 C328 1.391 . S
C330 C331 1.400 . S
C331 C330 1.400 . S
C331 C332 1.398 . S
C331 C337 1.491 . S
C332 H323 0.950 . S
C332 C331 1.398 . S
C332 C333 1.391 . S
C333 H321 0.950 . S
C333 C329 1.393 . S
C333 C332 1.391 . S
C334 H324 0.950 . S
C334 C335 1.386 . S
C334 C336 1.391 . S
C335 C334 1.386 . S
C335 C339 1.393 . S
C336 H325 0.950 . S
C336 C334 1.391 . S
C336 C337 1.400 . S
C337 C331 1.491 . S
C337 C336 1.400 . S
C337 C338 1.398 . S
C338 H326 0.950 . S
C338 C337 1.398 . S
C338 C339 1.391 . S
C339 H327 0.950 . S
C339 C335 1.393 . S
C339 C338 1.391 . S
H340 C348 0.950 . S
H341 C353 0.950 . S
H342 C350 0.950 . S
H343 C352 0.950 . S
H344 C354 0.950 . S
H345 C356 0.950 . S
H346 C358 0.950 . S
H347 C359 0.950 1_545 S
C348 H340 0.950 . S
C348 C349 1.386 . S
C348 C350 1.391 . S
C349 C348 1.386 . S
C349 C353 1.393 . S
C350 H342 0.950 . S
C350 C348 1.391 . S
C350 C351 1.400 1_655 S
C351 C350 1.400 1_455 S
C351 C352 1.398 . S
C351 C357 1.491 . S
C352 H343 0.950 . S
C352 C351 1.398 . S
C352 C353 1.391 1_455 S
C353 H341 0.950 . S
C353 C349 1.393 . S
C353 C352 1.391 1_655 S
C354 H344 0.950 . S
C354 C355 1.386 . S
C354 C356 1.391 . S
C355 C354 1.386 . S
C355 C359 1.393 . S
C356 H345 0.950 . S
C356 C354 1.391 . S
C356 C357 1.400 . S
C357 C351 1.491 . S
C357 C356 1.400 . S
C357 C358 1.398 . S
C358 H346 0.950 . S
C358 C357 1.398 . S
C358 C359 1.391 . S
C359 H347 0.950 1_565 S
C359 C355 1.393 . S
C359 C358 1.391 . S
H360 C368 0.950 . S
H361 C373 0.950 . S
H362 C370 0.950 . S
H363 C372 0.950 . S
H364 C374 0.950 . S
H365 C376 0.950 . S
H366 C378 0.950 . S
H367 C379 0.950 . S
C368 H360 0.950 . S
C368 C369 1.386 . S
C368 C370 1.391 . S
C369 C368 1.386 . S
C369 C373 1.393 . S
C370 H362 0.950 . S
C370 C368 1.391 . S
C370 C371 1.400 1_455 S
C371 C370 1.400 1_655 S
C371 C372 1.398 . S
C371 C377 1.491 . S
C372 H363 0.950 . S
C372 C371 1.398 . S
C372 C373 1.391 1_655 S
C373 H361 0.950 . S
C373 C369 1.393 . S
C373 C372 1.391 1_455 S
C374 H364 0.950 . S
C374 C375 1.386 . S
C374 C376 1.391 . S
C375 C374 1.386 . S
C375 C379 1.393 . S
C376 H365 0.950 . S
C376 C374 1.391 . S
C376 C377 1.400 . S
C377 C371 1.491 . S
C377 C376 1.400 . S
C377 C378 1.398 . S
C378 H366 0.950 . S
C378 C377 1.398 . S
C378 C379 1.391 . S
C379 H367 0.950 . S
C379 C375 1.393 . S
C379 C378 1.391 . S
H380 C388 0.950 1_655 S
H381 C393 0.950 . S
H382 C390 0.950 . S
H383 C392 0.950 . S
H384 C394 0.950 . S
H385 C396 0.950 . S
H386 C398 0.950 . S
H387 C399 0.950 . S
C388 H380 0.950 1_455 S
C388 C389 1.386 . S
C388 C390 1.391 . S
C389 C388 1.386 . S
C389 C393 1.393 . S
C390 H382 0.950 . S
C390 C388 1.391 . S
C390 C391 1.400 . S
C391 C390 1.400 . S
C391 C392 1.398 . S
C391 C397 1.491 . S
C392 H383 0.950 . S
C392 C391 1.398 . S
C392 C393 1.391 . S
C393 H381 0.950 . S
C393 C389 1.393 . S
C393 C392 1.391 . S
C394 H384 0.950 . S
C394 C395 1.386 . S
C394 C396 1.391 1_545 S
C395 C394 1.386 . S
C395 C399 1.393 . S
C396 H385 0.950 . S
C396 C394 1.391 1_565 S
C396 C397 1.400 . S
C397 C391 1.491 . S
C397 C396 1.400 . S
C397 C398 1.398 . S
C398 H386 0.950 . S
C398 C397 1.398 . S
C398 C399 1.391 1_565 S
C399 H387 0.950 . S
C399 C395 1.393 . S
C399 C398 1.391 1_545 S
H400 C408 0.950 . S
H401 C413 0.950 . S
H402 C410 0.950 . S
H403 C412 0.950 . S
H404 C414 0.950 1_565 S
H405 C416 0.950 . S
H406 C418 0.950 . S
H407 C419 0.950 . S
C408 H400 0.950 . S
C408 C409 1.386 . S
C408 C410 1.391 . S
C409 C408 1.386 . S
C409 C413 1.393 . S
C410 H402 0.950 . S
C410 C408 1.391 . S
C410 C411 1.400 . S
C411 C410 1.400 . S
C411 C412 1.398 . S
C411 C417 1.491 . S
C412 H403 0.950 . S
C412 C411 1.398 . S
C412 C413 1.391 . S
C413 H401 0.950 . S
C413 C409 1.393 . S
C413 C412 1.391 . S
C414 H404 0.950 1_545 S
C414 C415 1.386 . S
C414 C416 1.391 . S
C415 C414 1.386 . S
C415 C419 1.393 . S
C416 H405 0.950 . S
C416 C414 1.391 . S
C416 C417 1.400 . S
C417 C411 1.491 . S
C417 C416 1.400 . S
C417 C418 1.398 . S
C418 H406 0.950 . S
C418 C417 1.398 . S
C418 C419 1.391 . S
C419 H407 0.950 . S
C419 C415 1.393 . S
C419 C418 1.391 . S
H420 C428 0.950 . S
H421 C433 0.950 . S
H422 C430 0.950 . S
H423 C432 0.950 . S
H424 C434 0.950 . S
H425 C436 0.950 . S
H426 C438 0.950 . S
H427 C439 0.950 . S
C428 H420 0.950 . S
C428 C429 1.386 . S
C428 C430 1.391 . S
C429 C428 1.386 . S
C429 C433 1.393 . S
C430 H422 0.950 . S
C430 C428 1.391 . S
C430 C431 1.400 . S
C431 C430 1.400 . S
C431 C432 1.398 . S
C431 C437 1.491 . S
C432 H423 0.950 . S
C432 C431 1.398 . S
C432 C433 1.391 . S
C433 H421 0.950 . S
C433 C429 1.393 . S
C433 C432 1.391 . S
C434 H424 0.950 . S
C434 C435 1.386 . S
C434 C436 1.391 . S
C435 C434 1.386 . S
C435 C439 1.393 . S
C436 H425 0.950 . S
C436 C434 1.391 . S
C436 C437 1.400 1_655 S
C437 C431 1.491 . S
C437 C436 1.400 1_455 S
C437 C438 1.398 . S
C438 H426 0.950 . S
C438 C437 1.398 . S
C438 C439 1.391 1_455 S
C439 H427 0.950 . S
C439 C435 1.393 . S
C439 C438 1.391 1_655 S
H440 C448 0.950 . S
H441 C453 0.950 1_455 S
H442 C450 0.950 . S
H443 C452 0.950 . S
H444 C454 0.950 . S
H445 C456 0.950 . S
H446 C458 0.945 1_545 S
H447 C459 0.950 . S
C448 H440 0.950 . S
C448 C449 1.386 . S
C448 C450 1.391 . S
C449 C448 1.386 . S
C449 C453 1.393 . S
C450 H442 0.950 . S
C450 C448 1.391 . S
C450 C451 1.400 . S
C451 C450 1.400 . S
C451 C452 1.398 . S
C451 C457 1.491 . S
C452 H443 0.950 . S
C452 C451 1.398 . S
C452 C453 1.391 . S
C453 H441 0.950 1_655 S
C453 C449 1.393 . S
C453 C452 1.391 . S
C454 H444 0.950 . S
C454 C455 1.386 . S
C454 C456 1.391 1_565 S
C455 C454 1.386 . S
C455 C459 1.393 . S
C456 H445 0.950 . S
C456 C454 1.391 1_545 S
C456 C457 1.400 . S
C457 C451 1.491 . S
C457 C456 1.400 . S
C457 C458 1.390 1_545 S
C458 H446 0.945 1_565 S
C458 C457 1.390 1_565 S
C458 C459 1.404 . S
C459 H447 0.950 . S
C459 C455 1.393 . S
C459 C458 1.404 . S
H460 C468 0.950 . S
H461 C473 0.950 . S
H462 C470 0.950 . S
H463 C472 0.950 . S
H464 C474 0.950 . S
H465 C476 0.950 . S
H466 C478 0.950 . S
H467 C479 0.950 . S
C468 H460 0.950 . S
C468 C469 1.386 . S
C468 C470 1.391 . S
C469 C468 1.386 . S
C469 C473 1.393 . S
C470 H462 0.950 . S
C470 C468 1.391 . S
C470 C471 1.400 . S
C471 C470 1.400 . S
C471 C472 1.398 . S
C471 C477 1.491 . S
C472 H463 0.950 . S
C472 C471 1.398 . S
C472 C473 1.391 . S
C473 H461 0.950 . S
C473 C469 1.393 . S
C473 C472 1.391 . S
C474 H464 0.950 . S
C474 C475 1.386 . S
C474 C476 1.391 . S
C475 C474 1.386 . S
C475 C479 1.393 . S
C476 H465 0.950 . S
C476 C474 1.391 . S
C476 C477 1.400 . S
C477 C471 1.491 . S
C477 C476 1.400 . S
C477 C478 1.398 . S
C478 H466 0.950 . S
C478 C477 1.398 . S
C478 C479 1.391 . S
C479 H467 0.950 . S
C479 C475 1.393 . S
C479 C478 1.391 . S
H480 C488 0.950 . S
H481 C493 0.950 . S
H482 C490 0.950 . S
H483 C492 0.950 . S
H484 C494 0.950 . S
H485 C496 0.950 . S
H486 C498 0.950 . S
H487 C499 0.950 . S
C488 H480 0.950 . S
C488 C489 1.386 . S
C488 C490 1.391 . S
C489 C488 1.386 . S
C489 C493 1.393 . S
C490 H482 0.950 . S
C490 C488 1.391 . S
C490 C491 1.400 . S
C491 C490 1.400 . S
C491 C492 1.398 . S
C491 C497 1.491 . S
C492 H483 0.950 . S
C492 C491 1.398 . S
C492 C493 1.391 . S
C493 H481 0.950 . S
C493 C489 1.393 . S
C493 C492 1.391 . S
C494 H484 0.950 . S
C494 C495 1.386 . S
C494 C496 1.391 . S
C495 C494 1.386 . S
C495 C499 1.393 . S
C496 H485 0.950 . S
C496 C494 1.391 . S
C496 C497 1.400 . S
C497 C491 1.491 . S
C497 C496 1.400 . S
C497 C498 1.398 . S
C498 H486 0.950 . S
C498 C497 1.398 . S
C498 C499 1.391 . S
C499 H487 0.950 . S
C499 C495 1.393 . S
C499 C498 1.391 . S
H500 C508 0.950 . S
H501 C513 0.950 . S
H502 C510 0.950 . S
H503 C512 0.950 . S
H504 C514 0.950 . S
H505 C516 0.950 . S
H506 C518 0.950 . S
H507 C519 0.950 . S
C508 H500 0.950 . S
C508 C509 1.386 . S
C508 C510 1.391 . S
C509 C508 1.386 . S
C509 C513 1.393 . S
C510 H502 0.950 . S
C510 C508 1.391 . S
C510 C511 1.400 . S
C511 C510 1.400 . S
C511 C512 1.398 . S
C511 C517 1.491 . S
C512 H503 0.950 . S
C512 C511 1.398 . S
C512 C513 1.391 . S
C513 H501 0.950 . S
C513 C509 1.393 . S
C513 C512 1.391 . S
C514 H504 0.950 . S
C514 C515 1.386 . S
C514 C516 1.391 . S
C515 C514 1.386 . S
C515 C519 1.393 . S
C516 H505 0.950 . S
C516 C514 1.391 . S
C516 C517 1.400 . S
C517 C511 1.491 . S
C517 C516 1.400 . S
C517 C518 1.398 . S
C518 H506 0.950 . S
C518 C517 1.398 . S
C518 C519 1.391 . S
C519 H507 0.950 . S
C519 C515 1.393 . S
C519 C518 1.391 . S
H520 C528 0.950 . S
H521 C533 0.950 . S
H522 C530 0.950 . S
H523 C532 0.950 . S
H524 C534 0.950 . S
H525 C536 0.950 . S
H526 C538 0.950 . S
H527 C539 0.950 . S
C528 H520 0.950 . S
C528 C529 1.386 . S
C528 C530 1.391 . S
C529 C528 1.386 . S
C529 C533 1.393 . S
C530 H522 0.950 . S
C530 C528 1.391 . S
C530 C531 1.400 . S
C531 C530 1.400 . S
C531 C532 1.398 . S
C531 C537 1.491 . S
C532 H523 0.950 . S
C532 C531 1.398 . S
C532 C533 1.391 . S
C533 H521 0.950 . S
C533 C529 1.393 . S
C533 C532 1.391 . S
C534 H524 0.950 . S
C534 C535 1.386 . S
C534 C536 1.391 . S
C535 C534 1.386 . S
C535 C539 1.393 . S
C536 H525 0.950 . S
C536 C534 1.391 . S
C536 C537 1.400 . S
C537 C531 1.491 . S
C537 C536 1.400 . S
C537 C538 1.398 . S
C538 H526 0.950 . S
C538 C537 1.398 . S
C538 C539 1.391 . S
C539 H527 0.950 . S
C539 C535 1.393 . S
C539 C538 1.391 . S
H540 C548 0.950 . S
H541 C553 0.950 . S
H542 C550 0.950 . S
H543 C552 0.950 . S
H544 C554 0.950 . S
H545 C556 0.950 . S
H546 C558 0.950 . S
H547 C559 0.950 . S
C548 H540 0.950 . S
C548 C549 1.386 . S
C548 C550 1.391 . S
C549 C548 1.386 . S
C549 C553 1.393 . S
C550 H542 0.950 . S
C550 C548 1.391 . S
C550 C551 1.400 . S
C551 C550 1.400 . S
C551 C552 1.398 . S
C551 C557 1.491 . S
C552 H543 0.950 . S
C552 C551 1.398 . S
C552 C553 1.391 . S
C553 H541 0.950 . S
C553 C549 1.393 . S
C553 C552 1.391 . S
C554 H544 0.950 . S
C554 C555 1.386 . S
C554 C556 1.391 . S
C555 C554 1.386 . S
C555 C559 1.393 . S
C556 H545 0.950 . S
C556 C554 1.391 . S
C556 C557 1.400 . S
C557 C551 1.491 . S
C557 C556 1.400 . S
C557 C558 1.398 . S
C558 H546 0.950 . S
C558 C557 1.398 . S
C558 C559 1.391 . S
C559 H547 0.950 . S
C559 C555 1.393 . S
C559 C558 1.391 . S
H560 C568 0.950 . S
H561 C573 0.950 . S
H562 C570 0.950 . S
H563 C572 0.950 . S
H564 C574 0.950 . S
H565 C576 0.950 . S
H566 C578 0.950 . S
H567 C579 0.950 . S
C568 H560 0.950 . S
C568 C569 1.386 . S
C568 C570 1.391 . S
C569 C568 1.386 . S
C569 C573 1.393 . S
C570 H562 0.950 . S
C570 C568 1.391 . S
C570 C571 1.400 . S
C571 C570 1.400 . S
C571 C572 1.398 . S
C571 C577 1.491 . S
C572 H563 0.950 . S
C572 C571 1.398 . S
C572 C573 1.391 . S
C573 H561 0.950 . S
C573 C569 1.393 . S
C573 C572 1.391 . S
C574 H564 0.950 . S
C574 C575 1.386 . S
C574 C576 1.391 . S
C575 C574 1.386 . S
C575 C579 1.393 . S
C576 H565 0.950 . S
C576 C574 1.391 . S
C576 C577 1.400 . S
C577 C571 1.491 . S
C577 C576 1.400 . S
C577 C578 1.398 . S
C578 H566 0.950 . S
C578 C577 1.398 . S
C578 C579 1.391 . S
C579 H567 0.950 . S
C579 C575 1.393 . S
C579 C578 1.391 . S
H580 C588 0.950 . S
H581 C593 0.950 . S
H582 C590 0.950 . S
H583 C592 0.950 . S
H584 C594 0.950 . S
H585 C596 0.950 . S
H586 C598 0.950 . S
H587 C599 0.950 . S
C588 H580 0.950 . S
C588 C589 1.386 . S
C588 C590 1.391 . S
C589 C588 1.386 . S
C589 C593 1.393 . S
C590 H582 0.950 . S
C590 C588 1.391 . S
C590 C591 1.400 . S
C591 C590 1.400 . S
C591 C592 1.398 . S
C591 C597 1.491 . S
C592 H583 0.950 . S
C592 C591 1.398 . S
C592 C593 1.391 . S
C593 H581 0.950 . S
C593 C589 1.393 . S
C593 C592 1.391 . S
C594 H584 0.950 . S
C594 C595 1.386 . S
C594 C596 1.391 . S
C595 C594 1.386 . S
C595 C599 1.393 . S
C596 H585 0.950 . S
C596 C594 1.391 . S
C596 C597 1.400 . S
C597 C591 1.491 . S
C597 C596 1.400 . S
C597 C598 1.398 . S
C598 H586 0.950 . S
C598 C597 1.398 . S
C598 C599 1.391 . S
C599 H587 0.950 . S
C599 C595 1.393 . S
C599 C598 1.391 . S
H600 C608 0.950 . S
H601 C613 0.950 . S
H602 C610 0.950 . S
H603 C612 0.950 . S
H604 C614 0.950 . S
H605 C616 0.950 . S
H606 C618 0.950 . S
H607 C619 0.950 . S
C608 H600 0.950 . S
C608 C609 1.386 . S
C608 C610 1.391 . S
C609 C608 1.386 . S
C609 C613 1.393 . S
C610 H602 0.950 . S
C610 C608 1.391 . S
C610 C611 1.400 . S
C611 C610 1.400 . S
C611 C612 1.398 . S
C611 C617 1.491 . S
C612 H603 0.950 . S
C612 C611 1.398 . S
C612 C613 1.391 . S
C613 H601 0.950 . S
C613 C609 1.393 . S
C613 C612 1.391 . S
C614 H604 0.950 . S
C614 C615 1.386 . S
C614 C616 1.391 . S
C615 C614 1.386 . S
C615 C619 1.393 . S
C616 H605 0.950 . S
C616 C614 1.391 . S
C616 C617 1.400 . S
C617 C611 1.491 . S
C617 C616 1.400 . S
C617 C618 1.398 . S
C618 H606 0.950 . S
C618 C617 1.398 . S
C618 C619 1.391 . S
C619 H607 0.950 . S
C619 C615 1.393 . S
C619 C618 1.391 . S
H620 C628 0.950 . S
H621 C633 0.950 . S
H622 C630 0.950 . S
H623 C632 0.950 . S
H624 C634 0.950 . S
H625 C636 0.950 . S
H626 C638 0.950 . S
H627 C639 0.950 . S
C628 H620 0.950 . S
C628 C629 1.386 . S
C628 C630 1.391 . S
C629 C628 1.386 . S
C629 C633 1.393 . S
C630 H622 0.950 . S
C630 C628 1.391 . S
C630 C631 1.400 . S
C631 C630 1.400 . S
C631 C632 1.398 . S
C631 C637 1.491 . S
C632 H623 0.950 . S
C632 C631 1.398 . S
C632 C633 1.391 . S
C633 H621 0.950 . S
C633 C629 1.393 . S
C633 C632 1.391 . S
C634 H624 0.950 . S
C634 C635 1.386 . S
C634 C636 1.391 . S
C635 C634 1.386 . S
C635 C639 1.393 . S
C636 H625 0.950 . S
C636 C634 1.391 . S
C636 C637 1.400 . S
C637 C631 1.491 . S
C637 C636 1.400 . S
C637 C638 1.398 . S
C638 H626 0.950 . S
C638 C637 1.398 . S
C638 C639 1.391 . S
C639 H627 0.950 . S
C639 C635 1.393 . S
C639 C638 1.391 . S
H640 C648 0.950 . S
H641 C653 0.950 . S
H642 C650 0.950 . S
H643 C652 0.950 . S
H644 C654 0.950 . S
H645 C656 0.950 . S
H646 C658 0.950 . S
H647 C659 0.950 . S
C648 H640 0.950 . S
C648 C649 1.386 . S
C648 C650 1.391 . S
C649 C648 1.386 . S
C649 C653 1.393 . S
C650 H642 0.950 . S
C650 C648 1.391 . S
C650 C651 1.400 . S
C651 C650 1.400 . S
C651 C652 1.398 . S
C651 C657 1.491 . S
C652 H643 0.950 . S
C652 C651 1.398 . S
C652 C653 1.391 . S
C653 H641 0.950 . S
C653 C649 1.393 . S
C653 C652 1.391 . S
C654 H644 0.950 . S
C654 C655 1.386 . S
C654 C656 1.391 . S
C655 C654 1.386 . S
C655 C659 1.393 . S
C656 H645 0.950 . S
C656 C654 1.391 . S
C656 C657 1.400 . S
C657 C651 1.491 . S
C657 C656 1.400 . S
C657 C658 1.398 . S
C658 H646 0.950 . S
C658 C657 1.398 . S
C658 C659 1.391 . S
C659 H647 0.950 . S
C659 C655 1.393 . S
C659 C658 1.391 . S
H660 C668 0.950 . S
H661 C673 0.950 . S
H662 C670 0.950 . S
H663 C672 0.950 . S
H664 C674 0.950 . S
H665 C676 0.950 . S
H666 C678 0.950 . S
H667 C679 0.950 . S
C668 H660 0.950 . S
C668 C669 1.386 . S
C668 C670 1.391 . S
C669 C668 1.386 . S
C669 C673 1.393 . S
C670 H662 0.950 . S
C670 C668 1.391 . S
C670 C671 1.400 . S
C671 C670 1.400 . S
C671 C672 1.398 . S
C671 C677 1.491 . S
C672 H663 0.950 . S
C672 C671 1.398 . S
C672 C673 1.391 . S
C673 H661 0.950 . S
C673 C669 1.393 . S
C673 C672 1.391 . S
C674 H664 0.950 . S
C674 C675 1.386 . S
C674 C676 1.391 . S
C675 C674 1.386 . S
C675 C679 1.393 . S
C676 H665 0.950 . S
C676 C674 1.391 . S
C676 C677 1.400 . S
C677 C671 1.491 . S
C677 C676 1.400 . S
C677 C678 1.398 . S
C678 H666 0.950 . S
C678 C677 1.398 . S
C678 C679 1.391 . S
C679 H667 0.950 . S
C679 C675 1.393 . S
C679 C678 1.391 . S
H680 C688 0.950 . S
H681 C693 0.950 . S
H682 C690 0.950 . S
H683 C692 0.950 . S
H684 C694 0.950 . S
H685 C696 0.950 . S
H686 C698 0.950 . S
H687 C699 0.950 . S
C688 H680 0.950 . S
C688 C689 1.386 . S
C688 C690 1.391 . S
C689 C688 1.386 . S
C689 C693 1.393 . S
C690 H682 0.950 . S
C690 C688 1.391 . S
C690 C691 1.400 . S
C691 C690 1.400 . S
C691 C692 1.398 . S
C691 C697 1.491 . S
C692 H683 0.950 . S
C692 C691 1.398 . S
C692 C693 1.391 . S
C693 H681 0.950 . S
C693 C689 1.393 . S
C693 C692 1.391 . S
C694 H684 0.950 . S
C694 C695 1.386 . S
C694 C696 1.391 . S
C695 C694 1.386 . S
C695 C699 1.393 . S
C696 H685 0.950 . S
C696 C694 1.391 . S
C696 C697 1.400 . S
C697 C691 1.491 . S
C697 C696 1.400 . S
C697 C698 1.398 . S
C698 H686 0.950 . S
C698 C697 1.398 . S
C698 C699 1.391 . S
C699 H687 0.950 . S
C699 C695 1.393 . S
C699 C698 1.391 . S
H700 C708 0.950 . S
H701 C713 0.950 . S
H702 C710 0.950 . S
H703 C712 0.950 . S
H704 C714 0.950 . S
H705 C716 0.950 . S
H706 C718 0.950 . S
H707 C719 0.950 . S
C708 H700 0.950 . S
C708 C709 1.386 . S
C708 C710 1.391 . S
C709 C708 1.386 . S
C709 C713 1.393 . S
C710 H702 0.950 . S
C710 C708 1.391 . S
C710 C711 1.400 . S
C711 C710 1.400 . S
C711 C712 1.398 . S
C711 C717 1.491 . S
C712 H703 0.950 . S
C712 C711 1.398 . S
C712 C713 1.391 . S
C713 H701 0.950 . S
C713 C709 1.393 . S
C713 C712 1.391 . S
C714 H704 0.950 . S
C714 C715 1.386 . S
C714 C716 1.391 . S
C715 C714 1.386 . S
C715 C719 1.393 . S
C716 H705 0.950 . S
C716 C714 1.391 . S
C716 C717 1.400 . S
C717 C711 1.491 . S
C717 C716 1.400 . S
C717 C718 1.398 . S
C718 H706 0.950 . S
C718 C717 1.398 . S
C718 C719 1.391 . S
C719 H707 0.950 . S
C719 C715 1.393 . S
C719 C718 1.391 . S
H720 C728 0.950 . S
H721 C733 0.950 . S
H722 C730 0.950 . S
H723 C732 0.950 . S
H724 C734 0.950 . S
H725 C736 0.950 . S
H726 C738 0.950 . S
H727 C739 0.950 . S
C728 H720 0.950 . S
C728 C729 1.386 . S
C728 C730 1.391 . S
C729 C728 1.386 . S
C729 C733 1.393 . S
C730 H722 0.950 . S
C730 C728 1.391 . S
C730 C731 1.400 . S
C731 C730 1.400 . S
C731 C732 1.398 . S
C731 C737 1.491 . S
C732 H723 0.950 . S
C732 C731 1.398 . S
C732 C733 1.391 . S
C733 H721 0.950 . S
C733 C729 1.393 . S
C733 C732 1.391 . S
C734 H724 0.950 . S
C734 C735 1.386 . S
C734 C736 1.391 . S
C735 C734 1.386 . S
C735 C739 1.393 . S
C736 H725 0.950 . S
C736 C734 1.391 . S
C736 C737 1.400 . S
C737 C731 1.491 . S
C737 C736 1.400 . S
C737 C738 1.398 . S
C738 H726 0.950 . S
C738 C737 1.398 . S
C738 C739 1.391 . S
C739 H727 0.950 . S
C739 C735 1.393 . S
C739 C738 1.391 . S
H740 C748 0.950 . S
H741 C753 0.950 . S
H742 C750 0.950 . S
H743 C752 0.950 . S
H744 C754 0.950 . S
H745 C756 0.950 . S
H746 C758 0.950 . S
H747 C759 0.950 . S
C748 H740 0.950 . S
C748 C749 1.386 . S
C748 C750 1.391 . S
C749 C748 1.386 . S
C749 C753 1.393 . S
C750 H742 0.950 . S
C750 C748 1.391 . S
C750 C751 1.400 . S
C751 C750 1.400 . S
C751 C752 1.398 . S
C751 C757 1.491 . S
C752 H743 0.950 . S
C752 C751 1.398 . S
C752 C753 1.391 . S
C753 H741 0.950 . S
C753 C749 1.393 . S
C753 C752 1.391 . S
C754 H744 0.950 . S
C754 C755 1.386 . S
C754 C756 1.391 . S
C755 C754 1.386 . S
C755 C759 1.393 . S
C756 H745 0.950 . S
C756 C754 1.391 . S
C756 C757 1.400 . S
C757 C751 1.491 . S
C757 C756 1.400 . S
C757 C758 1.398 . S
C758 H746 0.950 . S
C758 C757 1.398 . S
C758 C759 1.391 . S
C759 H747 0.950 . S
C759 C755 1.393 . S
C759 C758 1.391 . S
H760 C768 0.950 . S
H761 C773 0.950 . S
H762 C770 0.950 . S
H763 C772 0.950 . S
H764 C774 0.950 . S
H765 C776 0.950 . S
H766 C778 0.950 . S
H767 C779 0.950 . S
C768 H760 0.950 . S
C768 C769 1.386 . S
C768 C770 1.391 . S
C769 C768 1.386 . S
C769 C773 1.393 . S
C770 H762 0.950 . S
C770 C768 1.391 . S
C770 C771 1.400 . S
C771 C770 1.400 . S
C771 C772 1.398 . S
C771 C777 1.491 . S
C772 H763 0.950 . S
C772 C771 1.398 . S
C772 C773 1.391 . S
C773 H761 0.950 . S
C773 C769 1.393 . S
C773 C772 1.391 . S
C774 H764 0.950 . S
C774 C775 1.386 . S
C774 C776 1.391 . S
C775 C774 1.386 . S
C775 C779 1.393 . S
C776 H765 0.950 . S
C776 C774 1.391 . S
C776 C777 1.400 . S
C777 C771 1.491 . S
C777 C776 1.400 . S
C777 C778 1.398 . S
C778 H766 0.950 . S
C778 C777 1.398 . S
C778 C779 1.391 . S
C779 H767 0.950 . S
C779 C775 1.393 . S
C779 C778 1.391 . S
H780 C788 0.950 . S
H781 C793 0.950 . S
H782 C790 0.950 . S
H783 C792 0.950 . S
H784 C794 0.950 . S
H785 C796 0.950 . S
H786 C798 0.950 . S
H787 C799 0.950 . S
C788 H780 0.950 . S
C788 C789 1.386 . S
C788 C790 1.391 . S
C789 C788 1.386 . S
C789 C793 1.393 . S
C790 H782 0.950 . S
C790 C788 1.391 . S
C790 C791 1.400 . S
C791 C790 1.400 . S
C791 C792 1.398 . S
C791 C797 1.491 . S
C792 H783 0.950 . S
C792 C791 1.398 . S
C792 C793 1.391 . S
C793 H781 0.950 . S
C793 C789 1.393 . S
C793 C792 1.391 . S
C794 H784 0.950 . S
C794 C795 1.386 . S
C794 C796 1.391 . S
C795 C794 1.386 . S
C795 C799 1.393 . S
C796 H785 0.950 . S
C796 C794 1.391 . S
C796 C797 1.400 . S
C797 C791 1.491 . S
C797 C796 1.400 . S
C797 C798 1.398 . S
C798 H786 0.950 . S
C798 C797 1.398 . S
C798 C799 1.391 . S
C799 H787 0.950 . S
C799 C795 1.393 . S
C799 C798 1.391 . S
H800 C808 0.950 . S
H801 C813 0.950 . S
H802 C810 0.950 . S
H803 C812 0.950 . S
H804 C814 0.950 . S
H805 C816 0.950 . S
H806 C818 0.950 . S
H807 C819 0.950 . S
C808 H800 0.950 . S
C808 C809 1.386 . S
C808 C810 1.391 . S
C809 C808 1.386 . S
C809 C813 1.393 . S
C810 H802 0.950 . S
C810 C808 1.391 . S
C810 C811 1.400 . S
C811 C810 1.400 . S
C811 C812 1.398 . S
C811 C817 1.491 . S
C812 H803 0.950 . S
C812 C811 1.398 . S
C812 C813 1.391 . S
C813 H801 0.950 . S
C813 C809 1.393 . S
C813 C812 1.391 . S
C814 H804 0.950 . S
C814 C815 1.386 . S
C814 C816 1.391 . S
C815 C814 1.386 . S
C815 C819 1.393 . S
C816 H805 0.950 . S
C816 C814 1.391 . S
C816 C817 1.400 . S
C817 C811 1.491 . S
C817 C816 1.400 . S
C817 C818 1.398 . S
C818 H806 0.950 . S
C818 C817 1.398 . S
C818 C819 1.391 . S
C819 H807 0.950 . S
C819 C815 1.393 . S
C819 C818 1.391 . S
H820 C828 0.950 . S
H821 C833 0.950 . S
H822 C830 0.950 . S
H823 C832 0.950 . S
H824 C834 0.950 . S
H825 C836 0.950 . S
H826 C838 0.950 . S
H827 C839 0.950 . S
C828 H820 0.950 . S
C828 C829 1.386 . S
C828 C830 1.391 . S
C829 C828 1.386 . S
C829 C833 1.393 . S
C830 H822 0.950 . S
C830 C828 1.391 . S
C830 C831 1.400 . S
C831 C830 1.400 . S
C831 C832 1.398 . S
C831 C837 1.491 . S
C832 H823 0.950 . S
C832 C831 1.398 . S
C832 C833 1.391 . S
C833 H821 0.950 . S
C833 C829 1.393 . S
C833 C832 1.391 . S
C834 H824 0.950 . S
C834 C835 1.386 . S
C834 C836 1.391 . S
C835 C834 1.386 . S
C835 C839 1.393 . S
C836 H825 0.950 . S
C836 C834 1.391 . S
C836 C837 1.400 . S
C837 C831 1.491 . S
C837 C836 1.400 . S
C837 C838 1.398 . S
C838 H826 0.950 . S
C838 C837 1.398 . S
C838 C839 1.391 . S
C839 H827 0.950 . S
C839 C835 1.393 . S
C839 C838 1.391 . S
H840 C848 0.950 . S
H841 C853 0.950 . S
H842 C850 0.950 . S
H843 C852 0.950 1_554 S
H844 C854 0.950 . S
H845 C856 0.950 . S
H846 C858 0.950 1_556 S
H847 C859 0.950 . S
C848 H840 0.950 . S
C848 C849 1.386 . S
C848 C850 1.391 . S
C849 C848 1.386 . S
C849 C853 1.393 . S
C850 H842 0.950 . S
C850 C848 1.391 . S
C850 C851 1.400 . S
C851 C850 1.400 . S
C851 C852 1.398 . S
C851 C857 1.491 1_556 S
C852 H843 0.950 1_556 S
C852 C851 1.398 . S
C852 C853 1.391 . S
C853 H841 0.950 . S
C853 C849 1.393 . S
C853 C852 1.391 . S
C854 H844 0.950 . S
C854 C855 1.386 . S
C854 C856 1.391 . S
C855 C854 1.386 . S
C855 C859 1.393 . S
C856 H845 0.950 . S
C856 C854 1.391 . S
C856 C857 1.400 . S
C857 C851 1.491 1_554 S
C857 C856 1.400 . S
C857 C858 1.398 . S
C858 H846 0.950 1_554 S
C858 C857 1.398 . S
C858 C859 1.391 . S
C859 H847 0.950 . S
C859 C855 1.393 . S
C859 C858 1.391 . S
H860 C868 0.950 . S
H861 C873 0.950 . S
H862 C870 0.950 . S
H863 C872 0.950 1_655 S
H864 C874 0.950 . S
H865 C876 0.950 . S
H866 C878 0.950 1_455 S
H867 C879 0.950 . S
C868 H860 0.950 . S
C868 C869 1.386 . S
C868 C870 1.391 . S
C869 C868 1.386 . S
C869 C873 1.393 . S
C870 H862 0.950 . S
C870 C868 1.391 . S
C870 C871 1.400 . S
C871 C870 1.400 . S
C871 C872 1.398 . S
C871 C877 1.491 1_455 S
C872 H863 0.950 1_455 S
C872 C871 1.398 . S
C872 C873 1.391 . S
C873 H861 0.950 . S
C873 C869 1.393 . S
C873 C872 1.391 . S
C874 H864 0.950 . S
C874 C875 1.386 . S
C874 C876 1.391 . S
C875 C874 1.386 . S
C875 C879 1.393 . S
C876 H865 0.950 . S
C876 C874 1.391 . S
C876 C877 1.400 . S
C877 C871 1.491 1_655 S
C877 C876 1.400 . S
C877 C878 1.398 . S
C878 H866 0.950 1_655 S
C878 C877 1.398 . S
C878 C879 1.391 . S
C879 H867 0.950 . S
C879 C875 1.393 . S
C879 C878 1.391 . S
H880 C888 0.950 . S
H881 C893 0.950 . S
H882 C890 0.950 . S
H883 C892 0.950 . S
H884 C894 0.950 . S
H885 C896 0.950 . S
H886 C898 0.950 . S
H887 C899 0.950 . S
C888 H880 0.950 . S
C888 C889 1.386 . S
C888 C890 1.391 . S
C889 C888 1.386 . S
C889 C893 1.393 . S
C890 H882 0.950 . S
C890 C888 1.391 . S
C890 C891 1.400 . S
C891 C890 1.400 . S
C891 C892 1.398 . S
C891 C897 1.491 1_564 S
C892 H883 0.950 . S
C892 C891 1.398 . S
C892 C893 1.391 . S
C893 H881 0.950 . S
C893 C889 1.393 . S
C893 C892 1.391 . S
C894 H884 0.950 . S
C894 C895 1.386 . S
C894 C896 1.391 . S
C895 C894 1.386 . S
C895 C899 1.393 . S
C896 H885 0.950 . S
C896 C894 1.391 . S
C896 C897 1.400 . S
C897 C891 1.491 1_546 S
C897 C896 1.400 . S
C897 C898 1.398 . S
C898 H886 0.950 . S
C898 C897 1.398 . S
C898 C899 1.391 . S
C899 H887 0.950 . S
C899 C895 1.393 . S
C899 C898 1.391 . S
H900 C908 0.950 . S
H901 C913 0.950 . S
H902 C910 0.950 . S
H903 C912 0.950 . S
H904 C914 0.950 . S
H905 C916 0.950 . S
H906 C918 0.950 . S
H907 C919 0.950 . S
C908 H900 0.950 . S
C908 C909 1.386 . S
C908 C910 1.391 . S
C909 C908 1.386 . S
C909 C913 1.393 . S
C910 H902 0.950 . S
C910 C908 1.391 . S
C910 C911 1.400 . S
C911 C910 1.400 . S
C911 C912 1.398 . S
C911 C917 1.491 . S
C912 H903 0.950 . S
C912 C911 1.398 . S
C912 C913 1.391 . S
C913 H901 0.950 . S
C913 C909 1.393 . S
C913 C912 1.391 . S
C914 H904 0.950 . S
C914 C915 1.386 . S
C914 C916 1.391 . S
C915 C914 1.386 . S
C915 C919 1.393 . S
C916 H905 0.950 . S
C916 C914 1.391 . S
C916 C917 1.400 . S
C917 C911 1.491 . S
C917 C916 1.400 . S
C917 C918 1.398 . S
C918 H906 0.950 . S
C918 C917 1.398 . S
C918 C919 1.391 . S
C919 H907 0.950 . S
C919 C915 1.393 . S
C919 C918 1.391 . S
H920 C928 0.950 . S
H921 C933 0.950 . S
H922 C930 0.950 . S
H923 C932 0.950 . S
H924 C934 0.950 . S
H925 C936 0.950 . S
H926 C938 0.950 . S
H927 C939 0.950 . S
C928 H920 0.950 . S
C928 C929 1.386 . S
C928 C930 1.391 . S
C929 C928 1.386 . S
C929 C933 1.393 . S
C930 H922 0.950 . S
C930 C928 1.391 . S
C930 C931 1.400 . S
C931 C930 1.400 . S
C931 C932 1.398 . S
C931 C937 1.491 1_656 S
C932 H923 0.950 . S
C932 C931 1.398 . S
C932 C933 1.391 . S
C933 H921 0.950 . S
C933 C929 1.393 . S
C933 C932 1.391 . S
C934 H924 0.950 . S
C934 C935 1.386 . S
C934 C936 1.391 . S
C935 C934 1.386 . S
C935 C939 1.393 . S
C936 H925 0.950 . S
C936 C934 1.391 . S
C936 C937 1.400 . S
C937 C931 1.491 1_454 S
C937 C936 1.400 . S
C937 C938 1.398 . S
C938 H926 0.950 . S
C938 C937 1.398 . S
C938 C939 1.391 . S
C939 H927 0.950 . S
C939 C935 1.393 . S
C939 C938 1.391 . S
H940 C948 0.950 . S
H941 C953 0.950 . S
H942 C950 0.950 . S
H943 C952 0.950 . S
H944 C954 0.950 . S
H945 C956 0.950 . S
H946 C958 0.950 . S
H947 C959 0.950 . S
C948 H940 0.950 . S
C948 C949 1.386 . S
C948 C950 1.391 . S
C949 C948 1.386 . S
C949 C953 1.393 . S
C950 H942 0.950 . S
C950 C948 1.391 . S
C950 C951 1.400 . S
C951 C950 1.400 . S
C951 C952 1.398 . S
C951 C957 1.491 1_565 S
C952 H943 0.950 . S
C952 C951 1.398 . S
C952 C953 1.391 . S
C953 H941 0.950 . S
C953 C949 1.393 . S
C953 C952 1.391 . S
C954 H944 0.950 . S
C954 C955 1.386 . S
C954 C956 1.391 . S
C955 C954 1.386 . S
C955 C959 1.393 . S
C956 H945 0.950 . S
C956 C954 1.391 . S
C956 C957 1.400 . S
C957 C951 1.491 1_545 S
C957 C956 1.400 . S
C957 C958 1.398 . S
C958 H946 0.950 . S
C958 C957 1.398 . S
C958 C959 1.391 . S
C959 H947 0.950 . S
C959 C955 1.393 . S
C959 C958 1.391 . S
C249 C88 1.738 . S
C255 C5 2.062 . S
C269 C108 1.763 . S
C275 C25 2.068 1_455 S
C289 C45 2.067 1_545 S
C295 C8 1.768 . S
C309 C65 2.067 . S
C315 C28 1.766 . S
C329 C85 2.063 1_655 S
C335 C48 1.769 . S
C349 C68 1.734 . S
C355 C105 2.063 1_565 S
C369 C168 1.741 . S
C375 C125 2.062 . S
C389 C145 2.062 1_455 S
C395 C188 1.754 . S
C409 C208 1.771 . S
C415 C165 2.066 1_545 S
C429 C185 2.064 . S
C435 C228 1.770 . S
C449 C205 2.067 1_655 S
C455 C128 1.740 . S
C469 C148 1.769 . S
C475 C225 2.064 1_565 S
C489 C94 1.881 . S
C495 C17 1.776 . S
C509 C37 1.792 . S
C515 C114 1.883 . S
C529 C57 1.782 . S
C535 C14 1.887 . S
C549 C77 1.799 . S
C555 C34 1.873 . S
C569 C54 1.888 . S
C575 C97 1.774 . S
C589 C74 1.886 . S
C595 C117 1.787 . S
C609 C174 1.881 . S
C615 C137 1.778 . S
C629 C157 1.773 . S
C635 C194 1.886 . S
C649 C177 1.779 . S
C655 C214 1.888 . S
C669 C234 1.881 . S
C675 C197 1.777 . S
C689 C217 1.789 . S
C695 C134 1.875 . S
C709 C154 1.880 . S
C715 C237 1.796 . S
C729 C202 1.804 . S
C735 C2 1.820 . S
C749 C22 1.805 . S
C755 C222 1.823 . S
C769 C42 1.823 . S
C775 C122 1.805 . S
C789 C62 1.805 . S
C795 C142 1.823 . S
C809 C82 1.805 . S
C815 C162 1.822 . S
C829 C182 1.821 . S
C835 C102 1.822 . S
C849 C193 1.874 . S
C855 C13 1.864 . S
C869 C213 1.853 . S
C875 C33 1.864 . S
C889 C53 1.869 . S
C895 C233 1.874 . S
C909 C73 1.864 . S
C915 C133 1.852 . S
C929 C153 1.855 . S
C935 C93 1.852 . S
C949 C173 1.867 . S
C955 C113 1.874 . S
