# Generated by pormake.
# Topology yfg, (5)-cn, num edge types: 1
# Building blocks:
#     Node 0, Type 0, BuildingBlock: BEQFEK_clean_sbu_0, # of connection points: 5
#     Node 1, Type 0, BuildingBlock: BEQFEK_clean_sbu_0, # of connection points: 5
#     Node 2, Type 0, BuildingBlock: BEQFEK_clean_sbu_0, # of connection points: 5
#     Node 3, Type 0, BuildingBlock: BEQFEK_clean_sbu_0, # of connection points: 5
#     Node 4, Type 0, BuildingBlock: BEQFEK_clean_sbu_0, # of connection points: 5
#     Node 5, Type 0, BuildingBlock: BEQFEK_clean_sbu_0, # of connection points: 5
#     Node 6, Type 0, BuildingBlock: BEQFEK_clean_sbu_0, # of connection points: 5
#     Node 7, Type 0, BuildingBlock: BEQFEK_clean_sbu_0, # of connection points: 5
#     Edge 8, Type (0, 0), BuildingBlock: ZUJKAS_clean_linker_0, # of connection points: 2
#     Edge 9, Type (0, 0), BuildingBlock: ZUJKAS_clean_linker_0, # of connection points: 2
#     Edge 10, Type (0, 0), BuildingBlock: ZUJKAS_clean_linker_0, # of connection points: 2
#     Edge 11, Type (0, 0), BuildingBlock: ZUJKAS_clean_linker_0, # of connection points: 2
#     Edge 12, Type (0, 0), BuildingBlock: ZUJKAS_clean_linker_0, # of connection points: 2
#     Edge 13, Type (0, 0), BuildingBlock: ZUJKAS_clean_linker_0, # of connection points: 2
#     Edge 14, Type (0, 0), BuildingBlock: ZUJKAS_clean_linker_0, # of connection points: 2
#     Edge 15, Type (0, 0), BuildingBlock: ZUJKAS_clean_linker_0, # of connection points: 2
#     Edge 16, Type (0, 0), BuildingBlock: ZUJKAS_clean_linker_0, # of connection points: 2
#     Edge 17, Type (0, 0), BuildingBlock: ZUJKAS_clean_linker_0, # of connection points: 2
#     Edge 18, Type (0, 0), BuildingBlock: ZUJKAS_clean_linker_0, # of connection points: 2
#     Edge 19, Type (0, 0), BuildingBlock: ZUJKAS_clean_linker_0, # of connection points: 2
#     Edge 20, Type (0, 0), BuildingBlock: ZUJKAS_clean_linker_0, # of connection points: 2
#     Edge 21, Type (0, 0), BuildingBlock: ZUJKAS_clean_linker_0, # of connection points: 2
#     Edge 22, Type (0, 0), BuildingBlock: ZUJKAS_clean_linker_0, # of connection points: 2
#     Edge 23, Type (0, 0), BuildingBlock: ZUJKAS_clean_linker_0, # of connection points: 2
#     Edge 24, Type (0, 0), BuildingBlock: ZUJKAS_clean_linker_0, # of connection points: 2
#     Edge 25, Type (0, 0), BuildingBlock: ZUJKAS_clean_linker_0, # of connection points: 2
#     Edge 26, Type (0, 0), BuildingBlock: ZUJKAS_clean_linker_0, # of connection points: 2
#     Edge 27, Type (0, 0), BuildingBlock: ZUJKAS_clean_linker_0, # of connection points: 2
# Relax obj value: 0.509
# Max RMSD: 0.212
# Mean RMSD: 0.212
data_MOF--net-yfg--node1-BEQFEK_clean_sbu_0--edge1-ZUJKAS_clean_linker_0
_symmetry_space_group_name_H-M    P1
_symmetry_Int_Tables_number       1
_symmetry_cell_setting            triclinic
loop_
_symmetry_equiv_pos_as_xyz
'x, y, z'
_cell_length_a     42.177019
_cell_length_b     42.165445
_cell_length_c     55.362917
_cell_angle_alpha  90.039707
_cell_angle_beta   89.990679
_cell_angle_gamma 89.980006
loop_
_atom_site_label
_atom_site_type_symbol
_atom_site_fract_x
_atom_site_fract_y
_atom_site_fract_z
_atom_type_partial_charge
Co0 Co 0.22796 0.45222 0.08648 0.0
Co1 Co 0.2571 0.45626 0.03443 0.0
C2 C 0.27148 0.50529 0.07175 0.0
O3 O 0.2541 0.49092 0.08696 0.0
O4 O 0.2749 0.49477 0.05034 0.0
C5 C 0.19366 0.47867 0.12501 0.0
O6 O 0.19693 0.50417 0.11161 0.0
C7 C 0.27019 0.48401 0.98726 0.0
C8 C 0.28215 0.44226 0.96486 0.0
C9 C 0.27898 0.47495 0.9641 0.0
N10 N 0.26779 0.45784 0.00095 0.0
N11 N 0.27483 0.43293 0.98747 0.0
C12 C 0.26697 0.51693 0.99716 0.0
H13 H 0.24681 0.51793 0.01002 0.0
H14 H 0.26368 0.53494 0.98286 0.0
H15 H 0.28887 0.52294 0.00728 0.0
C16 C 0.16851 0.45093 0.05883 0.0
N17 N 0.2003 0.45216 0.05999 0.0
N18 N 0.21204 0.45421 0.03802 0.0
C19 C 0.18777 0.45461 0.02209 0.0
C20 C 0.15946 0.45277 0.03485 0.0
C21 C 0.14723 0.44656 0.08022 0.0
H22 H 0.15819 0.42986 0.09323 0.0
H23 H 0.1438 0.46976 0.08931 0.0
H24 H 0.12369 0.43723 0.07477 0.0
O25 O 0.25618 0.41517 0.08546 0.0
O26 O 0.2785 0.4186 0.04915 0.0
H27 H 0.20669 0.43893 0.98829 0.0
H28 H 0.16849 0.45823 0.98586 0.0
C29 C 0.19161 0.45837 0.99538 0.0
H30 H 0.20366 0.48117 0.99159 0.0
H31 H 0.27503 0.40961 0.99378 0.0
O32 O 0.20449 0.45239 0.11734 0.0
C33 C 0.27554 0.40498 0.0696 0.0
Co34 Co 0.54041 0.22749 0.33643 0.0
Co35 Co 0.53699 0.25864 0.28503 0.0
C36 C 0.48607 0.26901 0.32218 0.0
O37 O 0.50026 0.2511 0.33711 0.0
O38 O 0.49751 0.27417 0.30126 0.0
C39 C 0.51657 0.19195 0.37563 0.0
O40 O 0.48995 0.19569 0.36364 0.0
C41 C 0.5098 0.26769 0.23697 0.0
C42 C 0.54743 0.2942 0.21797 0.0
C43 C 0.51711 0.28207 0.21512 0.0
N44 N 0.5347 0.27096 0.25191 0.0
N45 N 0.55727 0.28652 0.24036 0.0
C46 C 0.4787 0.25359 0.24437 0.0
H47 H 0.45931 0.27087 0.24108 0.0
H48 H 0.47901 0.24652 0.26363 0.0
H49 H 0.47376 0.23213 0.23346 0.0
C50 C 0.54685 0.16943 0.30735 0.0
N51 N 0.54305 0.201 0.30923 0.0
N52 N 0.54202 0.21364 0.28751 0.0
C53 C 0.54538 0.19025 0.27102 0.0
C54 C 0.5485 0.16155 0.28308 0.0
C55 C 0.547 0.14732 0.32852 0.0
H56 H 0.52395 0.14914 0.33801 0.0
H57 H 0.55048 0.12226 0.32316 0.0
H58 H 0.56595 0.15446 0.34131 0.0
O59 O 0.57544 0.25848 0.33661 0.0
O60 O 0.57317 0.28134 0.30047 0.0
H61 H 0.56198 0.21652 0.24036 0.0
H62 H 0.55787 0.17442 0.23509 0.0
C63 C 0.54738 0.19531 0.24432 0.0
H64 H 0.52321 0.19922 0.23706 0.0
H65 H 0.57902 0.29271 0.24801 0.0
O66 O 0.54215 0.20288 0.3668 0.0
C67 C 0.58561 0.2787 0.32137 0.0
Co68 Co 0.76995 0.54947 0.58623 0.0
Co69 Co 0.73957 0.54151 0.53486 0.0
C70 C 0.72681 0.49469 0.57377 0.0
O71 O 0.74382 0.51082 0.5882 0.0
O72 O 0.72328 0.50312 0.55185 0.0
C73 C 0.80762 0.52416 0.62281 0.0
O74 O 0.8063 0.49978 0.60804 0.0
C75 C 0.72452 0.51257 0.48823 0.0
C76 C 0.71418 0.55412 0.46521 0.0
C77 C 0.71602 0.52132 0.46494 0.0
N78 N 0.72804 0.539 0.50152 0.0
N79 N 0.72192 0.56378 0.48766 0.0
C80 C 0.72641 0.47984 0.49863 0.0
H81 H 0.70504 0.47571 0.50986 0.0
H82 H 0.74747 0.47794 0.51055 0.0
H83 H 0.72728 0.46114 0.48463 0.0
C84 C 0.82869 0.55029 0.55742 0.0
N85 N 0.79695 0.54852 0.55925 0.0
N86 N 0.78463 0.54463 0.5376 0.0
C87 C 0.80843 0.54338 0.52129 0.0
C88 C 0.83705 0.54671 0.53342 0.0
C89 C 0.85065 0.55684 0.57807 0.0
H90 H 0.83918 0.57293 0.59127 0.0
H91 H 0.8566 0.5342 0.58718 0.0
H92 H 0.87304 0.56783 0.57165 0.0
O93 O 0.7414 0.58615 0.58485 0.0
O94 O 0.71766 0.57924 0.54935 0.0
H95 H 0.78919 0.55655 0.48701 0.0
H96 H 0.82689 0.53623 0.48512 0.0
C97 C 0.80394 0.53738 0.49487 0.0
H98 H 0.79127 0.51461 0.49235 0.0
H99 H 0.72279 0.58726 0.49359 0.0
O100 O 0.7942 0.54993 0.61671 0.0
C101 C 0.72097 0.59446 0.56914 0.0
Co102 Co 0.45026 0.76859 0.83347 0.0
Co103 Co 0.45347 0.73751 0.78196 0.0
C104 C 0.50491 0.72805 0.81882 0.0
O105 O 0.49114 0.74632 0.83371 0.0
O106 O 0.49287 0.72201 0.79824 0.0
C107 C 0.474 0.80545 0.87188 0.0
O108 O 0.49965 0.80445 0.85843 0.0
C109 C 0.48138 0.72908 0.73405 0.0
C110 C 0.44464 0.7017 0.71476 0.0
C111 C 0.47476 0.71441 0.71216 0.0
N112 N 0.4563 0.72539 0.74877 0.0
N113 N 0.43425 0.70931 0.73704 0.0
C114 C 0.51207 0.74385 0.74173 0.0
H115 H 0.53192 0.72712 0.73839 0.0
H116 H 0.51141 0.75068 0.76104 0.0
H117 H 0.51653 0.76557 0.73102 0.0
C118 C 0.44172 0.82649 0.80464 0.0
N119 N 0.44651 0.79506 0.80641 0.0
N120 N 0.44789 0.7825 0.78465 0.0
C121 C 0.44397 0.80588 0.76824 0.0
C122 C 0.43997 0.83441 0.7804 0.0
C123 C 0.4406 0.84852 0.82586 0.0
H124 H 0.42333 0.83953 0.83932 0.0
H125 H 0.46431 0.8492 0.83445 0.0
H126 H 0.43415 0.87305 0.82071 0.0
O127 O 0.41594 0.7368 0.83367 0.0
O128 O 0.41746 0.71446 0.79727 0.0
H129 H 0.42815 0.77959 0.73734 0.0
H130 H 0.43183 0.8218 0.7323 0.0
C131 C 0.44243 0.80096 0.74151 0.0
H132 H 0.46674 0.79737 0.73443 0.0
H133 H 0.41253 0.70266 0.74451 0.0
O134 O 0.44871 0.79259 0.86413 0.0
C135 C 0.40551 0.71676 0.81837 0.0
Co136 Co 0.23078 0.54631 0.41145 0.0
Co137 Co 0.26027 0.54064 0.46325 0.0
C138 C 0.27112 0.49063 0.42609 0.0
O139 O 0.25438 0.50601 0.41106 0.0
O140 O 0.27556 0.501 0.44742 0.0
C141 C 0.19354 0.52058 0.37474 0.0
O142 O 0.19433 0.49657 0.38985 0.0
C143 C 0.27084 0.51225 0.51046 0.0
C144 C 0.29102 0.55178 0.53171 0.0
C145 C 0.28281 0.51999 0.53306 0.0
N146 N 0.2716 0.53831 0.49654 0.0
N147 N 0.28341 0.56196 0.50937 0.0
C148 C 0.26213 0.48009 0.50106 0.0
H149 H 0.28365 0.46869 0.49344 0.0
H150 H 0.24429 0.48233 0.48642 0.0
H151 H 0.25267 0.46451 0.51541 0.0
C152 C 0.17193 0.55324 0.43987 0.0
N153 N 0.20347 0.54891 0.43828 0.0
N154 N 0.21545 0.54585 0.46011 0.0
C155 C 0.19163 0.54773 0.47634 0.0
C156 C 0.16335 0.55249 0.46403 0.0
C157 C 0.15037 0.5561 0.41848 0.0
H158 H 0.16116 0.57195 0.40479 0.0
H159 H 0.1471 0.53232 0.41032 0.0
H160 H 0.12666 0.56529 0.42339 0.0
O161 O 0.26169 0.58137 0.41185 0.0
O162 O 0.28353 0.57687 0.44827 0.0
H163 H 0.21513 0.56228 0.50878 0.0
H164 H 0.17382 0.55245 0.51287 0.0
C165 C 0.1959 0.54598 0.50314 0.0
H166 H 0.20278 0.52149 0.50821 0.0
H167 H 0.28702 0.58481 0.5027 0.0
O168 O 0.20702 0.5464 0.38068 0.0
C169 C 0.28164 0.59043 0.42771 0.0
Co170 Co 0.45688 0.22766 0.66074 0.0
Co171 Co 0.46145 0.25828 0.71216 0.0
C172 C 0.51103 0.27025 0.67497 0.0
O173 O 0.49595 0.25303 0.66006 0.0
O174 O 0.50089 0.27428 0.69641 0.0
C175 C 0.4836 0.1897 0.62468 0.0
O176 O 0.50735 0.19053 0.64003 0.0
C177 C 0.48833 0.26906 0.75996 0.0
C178 C 0.44936 0.29315 0.77933 0.0
C179 C 0.48037 0.28284 0.78184 0.0
N180 N 0.46308 0.27074 0.74524 0.0
N181 N 0.43974 0.28493 0.75697 0.0
C182 C 0.52029 0.25741 0.75223 0.0
H183 H 0.5184 0.24307 0.73548 0.0
H184 H 0.53132 0.24292 0.76665 0.0
H185 H 0.53593 0.27808 0.7488 0.0
C186 C 0.45252 0.16917 0.68949 0.0
N187 N 0.45558 0.20081 0.68777 0.0
N188 N 0.45751 0.21316 0.70957 0.0
C189 C 0.45574 0.18944 0.72594 0.0
C190 C 0.45292 0.16087 0.71363 0.0
C191 C 0.44729 0.14737 0.66851 0.0
H192 H 0.43229 0.15911 0.65472 0.0
H193 H 0.4705 0.14133 0.6603 0.0
H194 H 0.43563 0.12503 0.67429 0.0
O195 O 0.42048 0.25673 0.66079 0.0
O196 O 0.42473 0.28035 0.69659 0.0
H197 H 0.44109 0.21306 0.75834 0.0
H198 H 0.45167 0.17184 0.76258 0.0
C199 C 0.45755 0.19393 0.75271 0.0
H200 H 0.48197 0.20107 0.75767 0.0
H201 H 0.41756 0.28979 0.74949 0.0
O202 O 0.45777 0.20343 0.63024 0.0
C203 C 0.41097 0.27706 0.67621 0.0
Co204 Co 0.76752 0.46433 0.91091 0.0
Co205 Co 0.73631 0.46121 0.96234 0.0
C206 C 0.72427 0.51531 0.92805 0.0
O207 O 0.74344 0.50405 0.91258 0.0
O208 O 0.71862 0.50098 0.94784 0.0
C209 C 0.80155 0.49177 0.87203 0.0
O210 O 0.79608 0.51793 0.88425 0.0
C211 C 0.7238 0.4856 0.01056 0.0
C212 C 0.70831 0.44308 0.03068 0.0
C213 C 0.71381 0.47533 0.03315 0.0
N214 N 0.72463 0.4605 0.99563 0.0
N215 N 0.71546 0.43511 0.00774 0.0
C216 C 0.72944 0.51889 0.00214 0.0
H217 H 0.70854 0.52684 0.99159 0.0
H218 H 0.75032 0.51947 0.98995 0.0
H219 H 0.73291 0.5358 0.01717 0.0
C220 C 0.82571 0.45725 0.93952 0.0
N221 N 0.79404 0.45997 0.93783 0.0
N222 N 0.78144 0.45894 0.95956 0.0
C223 C 0.80498 0.45553 0.97589 0.0
C224 C 0.83372 0.45425 0.96367 0.0
C225 C 0.84775 0.4593 0.91836 0.0
H226 H 0.84477 0.4827 0.90956 0.0
H227 H 0.87295 0.45673 0.92365 0.0
H228 H 0.84153 0.44069 0.905 0.0
O229 O 0.73722 0.42872 0.90896 0.0
O230 O 0.71584 0.42483 0.94554 0.0
H231 H 0.78169 0.43383 0.00597 0.0
H232 H 0.82219 0.4453 0.01192 0.0
C233 C 0.8 0.45213 0.00251 0.0
H234 H 0.79142 0.47498 0.00998 0.0
H235 H 0.71377 0.41244 0.00028 0.0
O236 O 0.79218 0.46539 0.88055 0.0
C237 C 0.71827 0.41537 0.92373 0.0
Co238 Co 0.54595 0.76699 0.15933 0.0
Co239 Co 0.539 0.73849 0.21139 0.0
C240 C 0.49095 0.72533 0.17323 0.0
O241 O 0.50633 0.74229 0.15833 0.0
O242 O 0.50063 0.72161 0.19482 0.0
C243 C 0.5213 0.80396 0.12201 0.0
O244 O 0.49729 0.8045 0.13715 0.0
C245 C 0.50936 0.72332 0.2576 0.0
C246 C 0.55039 0.71686 0.2819 0.0
C247 C 0.51756 0.71606 0.28121 0.0
N248 N 0.53606 0.72793 0.24485 0.0
N249 N 0.56054 0.72402 0.25946 0.0
C250 C 0.47675 0.72838 0.24764 0.0
H251 H 0.47717 0.74733 0.23374 0.0
H252 H 0.45982 0.73502 0.26213 0.0
H253 H 0.46849 0.70614 0.23897 0.0
C254 C 0.54894 0.8267 0.187 0.0
N255 N 0.54636 0.79495 0.18578 0.0
N256 N 0.54265 0.78342 0.20768 0.0
C257 C 0.54231 0.80774 0.22357 0.0
C258 C 0.54611 0.83591 0.21089 0.0
C259 C 0.55565 0.84778 0.16587 0.0
H260 H 0.57102 0.83537 0.15265 0.0
H261 H 0.53299 0.85416 0.15696 0.0
H262 H 0.5675 0.87 0.17172 0.0
O263 O 0.58168 0.73711 0.16092 0.0
O264 O 0.57632 0.7157 0.1974 0.0
H265 H 0.5568 0.79081 0.25821 0.0
H266 H 0.53459 0.82747 0.25928 0.0
C267 C 0.53679 0.80418 0.25012 0.0
H268 H 0.51476 0.79045 0.25317 0.0
H269 H 0.58416 0.72639 0.25414 0.0
O270 O 0.54667 0.78987 0.12823 0.0
C271 C 0.59056 0.71757 0.17711 0.0
H272 H 0.18919 0.56465 0.33862 0.0
H273 H 0.1749 0.55496 0.29646 0.0
H274 H 0.1538 0.45741 0.31334 0.0
H275 H 0.16808 0.46677 0.35549 0.0
H276 H 0.20102 0.46719 0.27766 0.0
H277 H 0.09228 0.53664 0.25799 0.0
H278 H 0.12253 0.55799 0.27408 0.0
H279 H 0.10335 0.52481 0.28823 0.0
C280 C 0.18081 0.54132 0.33349 0.0
C281 C 0.18012 0.51638 0.35032 0.0
C282 C 0.1724 0.5359 0.30944 0.0
C283 C 0.16306 0.50554 0.3019 0.0
C284 C 0.16073 0.48105 0.31891 0.0
H285 H 0.17412 0.43063 0.1546 0.0
H286 H 0.16006 0.43468 0.1974 0.0
C287 C 0.16901 0.48645 0.34296 0.0
C288 C 0.16063 0.49827 0.27588 0.0
H289 H 0.12245 0.51898 0.22392 0.0
C290 C 0.18351 0.47802 0.26591 0.0
C291 C 0.13794 0.51277 0.26074 0.0
C292 C 0.11243 0.53408 0.27077 0.0
C293 C 0.18534 0.47299 0.24096 0.0
C294 C 0.16297 0.48791 0.22564 0.0
C295 C 0.13942 0.50743 0.23572 0.0
C296 C 0.1656 0.48567 0.19905 0.0
C297 C 0.21234 0.45322 0.23119 0.0
C298 C 0.17134 0.51318 0.18552 0.0
C299 C 0.17882 0.511 0.16103 0.0
C300 C 0.18094 0.48122 0.14974 0.0
C301 C 0.17317 0.45385 0.16295 0.0
C302 C 0.16524 0.45611 0.18738 0.0
H303 H 0.23142 0.44983 0.24479 0.0
H304 H 0.2033 0.42944 0.22608 0.0
H305 H 0.22287 0.46437 0.2149 0.0
H306 H 0.17159 0.53624 0.19417 0.0
H307 H 0.18452 0.53253 0.15129 0.0
H308 H 0.56743 0.17602 0.40378 0.0
H309 H 0.56647 0.15983 0.44619 0.0
H310 H 0.46419 0.16149 0.44524 0.0
H311 H 0.46493 0.17673 0.40284 0.0
H312 H 0.54344 0.1972 0.48028 0.0
H313 H 0.47923 0.08329 0.48477 0.0
H314 H 0.49508 0.09873 0.45684 0.0
H315 H 0.45717 0.11208 0.46791 0.0
C316 C 0.54474 0.1722 0.41247 0.0
C317 C 0.51625 0.1779 0.40004 0.0
C318 C 0.54423 0.16285 0.43667 0.0
C319 C 0.51527 0.15907 0.44883 0.0
C320 C 0.48681 0.16339 0.43611 0.0
H321 H 0.44043 0.18675 0.58791 0.0
H322 H 0.45081 0.17254 0.54583 0.0
C323 C 0.48729 0.17245 0.41188 0.0
C324 C 0.51463 0.1555 0.47542 0.0
H325 H 0.47846 0.11532 0.52134 0.0
C326 C 0.52989 0.17882 0.48928 0.0
C327 C 0.4968 0.1316 0.48713 0.0
C328 C 0.48144 0.10484 0.47335 0.0
C329 C 0.52632 0.18001 0.5144 0.0
C330 C 0.50725 0.15703 0.52597 0.0
C331 C 0.49301 0.13291 0.51231 0.0
C332 C 0.49981 0.15969 0.55192 0.0
C333 C 0.54154 0.20687 0.52824 0.0
C334 C 0.52367 0.156 0.5693 0.0
C335 C 0.51789 0.16422 0.59334 0.0
C336 C 0.48814 0.17625 0.60029 0.0
C337 C 0.46367 0.17782 0.58309 0.0
C338 C 0.46949 0.16958 0.55907 0.0
H339 H 0.55153 0.22531 0.51609 0.0
H340 H 0.52403 0.21825 0.54047 0.0
H341 H 0.5611 0.19738 0.53953 0.0
H342 H 0.54714 0.14814 0.56407 0.0
H343 H 0.53715 0.16246 0.6062 0.0
H344 H 0.81245 0.56902 0.65831 0.0
H345 H 0.82692 0.56029 0.70049 0.0
H346 H 0.84801 0.46235 0.68475 0.0
H347 H 0.83341 0.47075 0.64253 0.0
H348 H 0.80175 0.47168 0.72003 0.0
H349 H 0.90827 0.54408 0.73977 0.0
H350 H 0.87785 0.56524 0.72378 0.0
H351 H 0.89736 0.53228 0.70948 0.0
C352 C 0.82088 0.54581 0.66368 0.0
C353 C 0.8214 0.52048 0.64716 0.0
C354 C 0.82942 0.54094 0.68775 0.0
C355 C 0.83879 0.51075 0.69565 0.0
C356 C 0.84105 0.48587 0.67892 0.0
H357 H 0.82477 0.44283 0.84487 0.0
H358 H 0.84097 0.44475 0.80243 0.0
C359 C 0.83259 0.49072 0.65483 0.0
C360 C 0.84108 0.5041 0.72178 0.0
H361 H 0.87678 0.52827 0.77392 0.0
C362 C 0.81857 0.48351 0.73181 0.0
C363 C 0.86288 0.51983 0.73699 0.0
C364 C 0.88817 0.54139 0.72696 0.0
C365 C 0.81604 0.47954 0.75684 0.0
C366 C 0.83728 0.49595 0.77219 0.0
C367 C 0.86064 0.51563 0.76209 0.0
C368 C 0.8334 0.49529 0.79873 0.0
C369 C 0.78936 0.45934 0.76659 0.0
C370 C 0.82571 0.52335 0.81102 0.0
C371 C 0.81693 0.52241 0.83531 0.0
C372 C 0.81547 0.49332 0.84762 0.0
C373 C 0.82518 0.46551 0.8357 0.0
C374 C 0.83436 0.46655 0.81148 0.0
H375 H 0.77113 0.45425 0.75263 0.0
H376 H 0.79909 0.43634 0.77289 0.0
H377 H 0.77759 0.47114 0.78212 0.0
H378 H 0.82496 0.5458 0.80152 0.0
H379 H 0.80977 0.54426 0.84404 0.0
H380 H 0.42627 0.80838 0.90524 0.0
H381 H 0.43134 0.82087 0.94819 0.0
H382 H 0.53047 0.84207 0.93798 0.0
H383 H 0.52558 0.83009 0.89502 0.0
H384 H 0.47095 0.78533 0.97666 0.0
H385 H 0.50249 0.91262 0.98393 0.0
H386 H 0.48462 0.89579 0.95717 0.0
H387 H 0.52641 0.89121 0.9626 0.0
C388 C 0.44897 0.81644 0.91201 0.0
C389 C 0.47561 0.81792 0.89679 0.0
C390 C 0.4518 0.82362 0.93654 0.0
C391 C 0.48121 0.83261 0.94621 0.0
C392 C 0.50741 0.83579 0.93081 0.0
H393 H 0.56409 0.80153 0.08492 0.0
H394 H 0.55404 0.81367 0.04237 0.0
C395 C 0.50462 0.82866 0.90627 0.0
C396 C 0.4856 0.834 0.97268 0.0
H397 H 0.51297 0.88035 0.01883 0.0
C398 C 0.47968 0.80627 0.98591 0.0
C399 C 0.49719 0.86129 0.98464 0.0
C400 C 0.50278 0.89202 0.97141 0.0
C401 C 0.48587 0.80479 0.0107 0.0
C402 C 0.49829 0.83172 0.02251 0.0
C403 C 0.5036 0.85974 0.00953 0.0
C404 C 0.50623 0.83038 0.04837 0.0
C405 C 0.47979 0.77426 0.02415 0.0
C406 C 0.48285 0.83663 0.06568 0.0
C407 C 0.4884 0.8296 0.08995 0.0
C408 C 0.5174 0.81613 0.09719 0.0
C409 C 0.54146 0.81176 0.07991 0.0
C410 C 0.53586 0.81878 0.05564 0.0
H411 H 0.46929 0.75567 0.01239 0.0
H412 H 0.5024 0.76515 0.03172 0.0
H413 H 0.46348 0.77872 0.03953 0.0
H414 H 0.45979 0.84542 0.06024 0.0
H415 H 0.46945 0.83342 0.10284 0.0
H416 H 0.11344 0.49401 0.0479 0.0
H417 H 0.05749 0.49298 0.03608 0.0
H418 H 0.07575 0.41256 0.98989 0.0
H419 H 0.13196 0.41367 0.00168 0.0
H420 H 0.03692 0.46007 0.96894 0.0
H421 H 0.9946 0.42564 0.06021 0.0
H422 H 0.01901 0.46052 0.05979 0.0
H423 H 0.03571 0.42288 0.05135 0.0
C424 C 0.10545 0.47628 0.03511 0.0
C425 C 0.12671 0.45388 0.02567 0.0
C426 C 0.07357 0.47558 0.0285 0.0
C427 C 0.06246 0.45228 0.01253 0.0
C428 C 0.08392 0.43057 0.00238 0.0
H429 H 0.87701 0.40882 0.95308 0.0
H430 H 0.9327 0.40702 0.9658 0.0
C431 C 0.11591 0.43131 0.00898 0.0
C432 C 0.02837 0.45057 0.00657 0.0
H433 H 0.95512 0.44016 0.03161 0.0
C434 C 0.01902 0.4555 0.98257 0.0
C435 C 0.00518 0.44463 0.02448 0.0
C436 C 0.01406 0.43782 0.05037 0.0
C437 C 0.9869 0.45537 0.97606 0.0
C438 C 0.96371 0.44966 0.994 0.0
C439 C 0.97305 0.44457 0.01797 0.0
C440 C 0.92959 0.44906 0.98812 0.0
C441 C 0.97794 0.46208 0.95017 0.0
C442 C 0.90927 0.47251 0.99732 0.0
C443 C 0.87753 0.47349 0.99013 0.0
C444 C 0.86585 0.45098 0.97374 0.0
C445 C 0.88578 0.4266 0.96554 0.0
C446 C 0.91747 0.42564 0.97269 0.0
H447 H 0.99783 0.47292 0.93992 0.0
H448 H 0.97142 0.4395 0.94113 0.0
H449 H 0.95714 0.47819 0.94927 0.0
H450 H 0.91825 0.49064 0.00939 0.0
H451 H 0.86244 0.49248 0.99662 0.0
H452 H 0.59435 0.11795 0.2923 0.0
H453 H 0.59568 0.06246 0.27893 0.0
H454 H 0.5107 0.07776 0.23719 0.0
H455 H 0.50916 0.13322 0.25075 0.0
H456 H 0.54364 0.01874 0.28779 0.0
H457 H 0.57301 0.03137 0.19034 0.0
H458 H 0.58117 0.06214 0.21221 0.0
H459 H 0.5415 0.05622 0.20137 0.0
C460 C 0.57618 0.10943 0.28008 0.0
C461 C 0.5515 0.12951 0.27266 0.0
C462 C 0.57697 0.07789 0.27247 0.0
C463 C 0.55335 0.06616 0.25705 0.0
C464 C 0.52934 0.08654 0.24886 0.0
H465 H 0.50759 0.88344 0.19629 0.0
H466 H 0.50908 0.93912 0.20884 0.0
C467 C 0.52847 0.1181 0.25657 0.0
C468 C 0.55264 0.03209 0.25089 0.0
H469 H 0.55836 0.98018 0.20387 0.0
C470 C 0.54703 0.0102 0.26948 0.0
C471 C 0.55688 0.02125 0.22698 0.0
C472 C 0.56372 0.04387 0.20654 0.0
C473 C 0.54488 0.9776 0.26469 0.0
C474 C 0.54923 0.96668 0.24076 0.0
C475 C 0.55504 0.98864 0.2222 0.0
C476 C 0.54736 0.93263 0.2344 0.0
C477 C 0.53707 0.95531 0.28516 0.0
C478 C 0.56829 0.91052 0.24473 0.0
C479 C 0.56725 0.87867 0.2377 0.0
C480 C 0.54557 0.8687 0.22007 0.0
C481 C 0.52451 0.89073 0.20992 0.0
C482 C 0.52538 0.92244 0.21704 0.0
H483 H 0.52603 0.968 0.30062 0.0
H484 H 0.52072 0.93626 0.27912 0.0
H485 H 0.55923 0.94405 0.29172 0.0
H486 H 0.5859 0.91802 0.25776 0.0
H487 H 0.58399 0.86206 0.24545 0.0
H488 H 0.12002 0.5997 0.4588 0.0
H489 H 0.06409 0.5987 0.47112 0.0
H490 H 0.07827 0.50717 0.50415 0.0
H491 H 0.13409 0.50784 0.4914 0.0
H492 H 0.02054 0.54441 0.45689 0.0
H493 H 0.03144 0.56599 0.55579 0.0
H494 H 0.0614 0.57858 0.53451 0.0
H495 H 0.05797 0.53749 0.5424 0.0
C496 C 0.11112 0.5795 0.46881 0.0
C497 C 0.13098 0.55369 0.47399 0.0
C498 C 0.07935 0.57898 0.47584 0.0
C499 C 0.06724 0.55287 0.48849 0.0
C500 C 0.08736 0.5276 0.49452 0.0
H501 H 0.8833 0.5061 0.54695 0.0
H502 H 0.93894 0.50641 0.53431 0.0
C503 C 0.11911 0.52802 0.48732 0.0
C504 C 0.03313 0.55129 0.49419 0.0
H505 H 0.98044 0.5543 0.54079 0.0
C506 C 0.01164 0.54665 0.47519 0.0
C507 C 0.0219 0.55401 0.5181 0.0
C508 C 0.04424 0.55949 0.53896 0.0
C509 C 0.97896 0.54418 0.47955 0.0
C510 C 0.9676 0.54726 0.50347 0.0
C511 C 0.98922 0.55195 0.52245 0.0
C512 C 0.93341 0.54557 0.50938 0.0
C513 C 0.95708 0.53746 0.4586 0.0
C514 C 0.9118 0.56725 0.49935 0.0
C515 C 0.87996 0.56684 0.50639 0.0
C516 C 0.86952 0.54503 0.52375 0.0
C517 C 0.89098 0.52308 0.53348 0.0
C518 C 0.92267 0.5233 0.52633 0.0
H519 H 0.97002 0.52681 0.4431 0.0
H520 H 0.93765 0.52117 0.46398 0.0
H521 H 0.94634 0.56004 0.45235 0.0
H522 H 0.91974 0.58511 0.48668 0.0
H523 H 0.86379 0.58428 0.49899 0.0
H524 H 0.49379 0.11341 0.70372 0.0
H525 H 0.48885 0.05748 0.715 0.0
H526 H 0.4041 0.07904 0.75549 0.0
H527 H 0.40924 0.13529 0.74432 0.0
H528 H 0.4462 0.03693 0.77905 0.0
H529 H 0.42193 -0.00094 0.68486 0.0
H530 H 0.45788 0.02144 0.68815 0.0
H531 H 0.42034 0.04004 0.69426 0.0
C532 C 0.47436 0.10616 0.71528 0.0
C533 C 0.45191 0.12836 0.72326 0.0
C534 C 0.47141 0.07429 0.72153 0.0
C535 C 0.44572 0.06411 0.7356 0.0
C536 C 0.42396 0.08649 0.74446 0.0
H537 H 0.39223 0.87652 0.78784 0.0
H538 H 0.39119 0.93257 0.77587 0.0
C539 C 0.42699 0.1185 0.73824 0.0
C540 C 0.4415 0.02998 0.74071 0.0
H541 H 0.43225 0.95797 0.71335 0.0
C542 C 0.44284 0.01966 0.76475 0.0
C543 C 0.43706 0.00761 0.72194 0.0
C544 C 0.4339 0.01757 0.69587 0.0
C545 C 0.44092 0.98732 0.77049 0.0
C546 C 0.43707 0.96493 0.75167 0.0
C547 C 0.43525 0.97528 0.72767 0.0
C548 C 0.4358 0.93056 0.75662 0.0
C549 C 0.44399 0.97725 0.79654 0.0
C550 C 0.46047 0.91073 0.74875 0.0
C551 C 0.46102 0.87882 0.7555 0.0
C552 C 0.4369 0.86648 0.77017 0.0
C553 C 0.41126 0.88584 0.77678 0.0
C554 C 0.41072 0.91772 0.77006 0.0
H555 H 0.45337 0.99663 0.80812 0.0
H556 H 0.4203 0.97041 0.80353 0.0
H557 H 0.45987 0.95635 0.79819 0.0
H558 H 0.4799 0.92026 0.73821 0.0
H559 H 0.48097 0.86418 0.75022 0.0
H560 H 0.45955 0.67636 0.19539 0.0
H561 H 0.41803 0.64282 0.17786 0.0
H562 H 0.41782 0.70042 0.11357 0.0
H563 H 0.45915 0.73407 0.13082 0.0
H564 H 0.35504 0.6808 0.13218 0.0
H565 H 0.44144 0.58234 0.11973 0.0
H566 H 0.43907 0.59906 0.14958 0.0
H567 H 0.45367 0.62278 0.12507 0.0
C568 C 0.45032 0.68221 0.17769 0.0
C569 C 0.46291 0.70768 0.1644 0.0
C570 C 0.42672 0.66295 0.16767 0.0
C571 C 0.41527 0.66897 0.14432 0.0
C572 C 0.4265 0.69535 0.13157 0.0
H573 H 0.32067 0.53529 0.04874 0.0
H574 H 0.35408 0.57788 0.06488 0.0
C575 C 0.45018 0.71449 0.14147 0.0
C576 C 0.39305 0.64673 0.1325 0.0
H577 H 0.38821 0.57195 0.1092 0.0
C578 C 0.3622 0.65699 0.12715 0.0
C579 C 0.40277 0.61594 0.1256 0.0
C580 C 0.4361 0.60429 0.13007 0.0
C581 C 0.34049 0.63687 0.1155 0.0
C582 C 0.34999 0.60579 0.10916 0.0
C583 C 0.38104 0.59581 0.11411 0.0
C584 C 0.32781 0.58268 0.09825 0.0
C585 C 0.30769 0.64905 0.10985 0.0
C586 C 0.30187 0.57157 0.1116 0.0
C587 C 0.28287 0.54723 0.10252 0.0
C588 C 0.28949 0.53347 0.0799 0.0
C589 C 0.31487 0.54543 0.06617 0.0
C590 C 0.33401 0.56969 0.07538 0.0
H591 H 0.30667 0.67537 0.11034 0.0
H592 H 0.29976 0.64077 0.09179 0.0
H593 H 0.29079 0.6398 0.12351 0.0
H594 H 0.29699 0.58093 0.12945 0.0
H595 H 0.26349 0.53865 0.11356 0.0
H596 H 0.45634 0.31938 0.30042 0.0
H597 H 0.41461 0.35284 0.31779 0.0
H598 H 0.40998 0.29183 0.38014 0.0
H599 H 0.45144 0.25824 0.36302 0.0
H600 H 0.34884 0.31444 0.36162 0.0
H601 H 0.43781 0.40959 0.37764 0.0
H602 H 0.43535 0.39475 0.34724 0.0
H603 H 0.44896 0.36917 0.37098 0.0
C604 C 0.44605 0.31274 0.31762 0.0
C605 C 0.45752 0.28637 0.33047 0.0
C606 C 0.42233 0.33196 0.32755 0.0
C607 C 0.40966 0.32501 0.35039 0.0
C608 C 0.41961 0.29764 0.36254 0.0
H609 H 0.31885 0.45777 0.44866 0.0
H610 H 0.3506 0.41445 0.4317 0.0
C611 C 0.44338 0.27853 0.35272 0.0
C612 C 0.3878 0.34738 0.36251 0.0
H613 H 0.38476 0.42106 0.38795 0.0
C614 C 0.35659 0.33778 0.36736 0.0
C615 C 0.39828 0.37752 0.37037 0.0
C616 C 0.43198 0.38843 0.36652 0.0
C617 C 0.33532 0.35791 0.3795 0.0
C618 C 0.3456 0.38836 0.38682 0.0
C619 C 0.37697 0.39768 0.38231 0.0
C620 C 0.32401 0.41156 0.39835 0.0
C621 C 0.30215 0.34637 0.38462 0.0
C622 C 0.29834 0.42391 0.38533 0.0
C623 C 0.28027 0.44866 0.39489 0.0
C624 C 0.2876 0.46163 0.41766 0.0
C625 C 0.31254 0.4483 0.43111 0.0
C626 C 0.33074 0.42361 0.42144 0.0
H627 H 0.30049 0.32011 0.38353 0.0
H628 H 0.29415 0.35414 0.4028 0.0
H629 H 0.28569 0.35655 0.37105 0.0
H630 H 0.29307 0.41531 0.36733 0.0
H631 H 0.26118 0.45829 0.38405 0.0
H632 H 0.53755 0.26768 0.63007 0.0
H633 H 0.57904 0.30162 0.61365 0.0
H634 H 0.58989 0.34693 0.68296 0.0
H635 H 0.54798 0.3131 0.69974 0.0
H636 H 0.57159 0.37334 0.61746 0.0
H637 H 0.6832 0.32401 0.65595 0.0
H638 H 0.64818 0.29995 0.65157 0.0
H639 H 0.64939 0.32843 0.6756 0.0
C640 C 0.54898 0.2845 0.64202 0.0
C641 C 0.53919 0.28784 0.66622 0.0
C642 C 0.57273 0.30384 0.63256 0.0
C643 C 0.58746 0.32663 0.64711 0.0
C644 C 0.57888 0.32921 0.67153 0.0
H645 H 0.72234 0.47591 0.62081 0.0
H646 H 0.68943 0.43388 0.63752 0.0
C647 C 0.55492 0.30993 0.68105 0.0
C648 C 0.60955 0.34959 0.63605 0.0
H649 H 0.68753 0.37043 0.63236 0.0
C650 C 0.59697 0.37273 0.62061 0.0
C651 C 0.64249 0.34866 0.6404 0.0
C652 C 0.65687 0.3239 0.65668 0.0
C653 C 0.61648 0.39547 0.60964 0.0
C654 C 0.64962 0.39436 0.61366 0.0
C655 C 0.66218 0.37108 0.62913 0.0
C656 C 0.67138 0.41816 0.60296 0.0
C657 C 0.6012 0.42107 0.59454 0.0
C658 C 0.6729 0.42276 0.57785 0.0
C659 C 0.69147 0.44715 0.56817 0.0
C660 C 0.70925 0.46701 0.58343 0.0
C661 C 0.70886 0.46121 0.60847 0.0
C662 C 0.69008 0.43711 0.61811 0.0
H663 H 0.57553 0.42358 0.59864 0.0
H664 H 0.61286 0.44435 0.59752 0.0
H665 H 0.6035 0.41482 0.57515 0.0
H666 H 0.65933 0.40784 0.56575 0.0
H667 H 0.6915 0.4507 0.54881 0.0
H668 H 0.66268 0.52849 0.93902 0.0
H669 H 0.62944 0.56944 0.92057 0.0
H670 H 0.71138 0.60765 0.88405 0.0
H671 H 0.74422 0.56552 0.90127 0.0
H672 H 0.62522 0.63055 0.91961 0.0
H673 H 0.65677 0.59078 0.82731 0.0
H674 H 0.66899 0.56942 0.85388 0.0
H675 H 0.69072 0.60386 0.84401 0.0
C676 C 0.67363 0.54595 0.92734 0.0
C677 C 0.70587 0.54367 0.92129 0.0
C678 C 0.65463 0.56928 0.91673 0.0
C679 C 0.66769 0.591 0.90023 0.0
C680 C 0.70049 0.59039 0.8959 0.0
H681 H 0.55014 0.74919 0.84999 0.0
H682 H 0.5927 0.71816 0.86847 0.0
C683 C 0.71931 0.56658 0.90598 0.0
C684 C 0.64673 0.61329 0.88688 0.0
H685 H 0.62583 0.63747 0.83018 0.0
C686 C 0.62533 0.63204 0.90005 0.0
C687 C 0.64641 0.6148 0.86129 0.0
C688 C 0.6667 0.5934 0.84579 0.0
C689 C 0.60353 0.65205 0.88844 0.0
C690 C 0.60411 0.65453 0.86289 0.0
C691 C 0.62567 0.63594 0.84974 0.0
C692 C 0.58132 0.67476 0.8494 0.0
C693 C 0.57928 0.66917 0.90371 0.0
C694 C 0.56241 0.66149 0.83107 0.0
C695 C 0.53887 0.67955 0.81982 0.0
C696 C 0.53352 0.71104 0.82699 0.0
C697 C 0.55356 0.72482 0.84434 0.0
C698 C 0.57761 0.70699 0.85513 0.0
H699 H 0.57596 0.65744 0.9215 0.0
H700 H 0.58754 0.69373 0.90718 0.0
H701 H 0.55593 0.67028 0.89449 0.0
H702 H 0.56498 0.63675 0.82614 0.0
H703 H 0.52367 0.66831 0.80656 0.0
H704 H 0.33512 0.39423 0.05193 0.0
H705 H 0.37667 0.36298 0.07142 0.0
H706 H 0.30872 0.32812 0.12324 0.0
H707 H 0.26732 0.36 0.10429 0.0
H708 H 0.35653 0.35898 0.14437 0.0
H709 H 0.40594 0.27199 0.07943 0.0
H710 H 0.4038 0.31146 0.06742 0.0
H711 H 0.36787 0.2908 0.07507 0.0
C712 C 0.32879 0.37902 0.06694 0.0
C713 C 0.29807 0.37986 0.07679 0.0
C714 C 0.35258 0.36104 0.07802 0.0
C715 C 0.34582 0.34319 0.0988 0.0
C716 C 0.31447 0.34178 0.10726 0.0
H717 H 0.47615 0.24083 0.19274 0.0
H718 H 0.43547 0.25412 0.16281 0.0
C719 C 0.29084 0.36002 0.09641 0.0
C720 C 0.37187 0.33073 0.11406 0.0
H721 H 0.43801 0.28388 0.1142 0.0
C722 C 0.37411 0.34227 0.1378 0.0
C723 C 0.39482 0.30898 0.1055 0.0
C724 C 0.39288 0.29483 0.08053 0.0
C725 C 0.39889 0.33314 0.15307 0.0
C726 C 0.42251 0.31238 0.14425 0.0
C727 C 0.42003 0.30015 0.12073 0.0
C728 C 0.44968 0.30321 0.15958 0.0
C729 C 0.39957 0.34574 0.17861 0.0
C730 C 0.47169 0.32617 0.16699 0.0
C731 C 0.49456 0.31877 0.18433 0.0
C732 C 0.49562 0.28835 0.1946 0.0
C733 C 0.47495 0.26482 0.18593 0.0
C734 C 0.45207 0.27222 0.16855 0.0
H735 H 0.3762 0.35545 0.1842 0.0
H736 H 0.40656 0.32685 0.19153 0.0
H737 H 0.4173 0.36511 0.17985 0.0
H738 H 0.47039 0.35014 0.16003 0.0
H739 H 0.51043 0.33727 0.19052 0.0
H740 H 0.60055 0.33588 0.30067 0.0
H741 H 0.63014 0.37924 0.31958 0.0
H742 H 0.65321 0.31852 0.37969 0.0
H743 H 0.62351 0.27527 0.36117 0.0
H744 H 0.61953 0.3736 0.39189 0.0
H745 H 0.72413 0.40127 0.33449 0.0
H746 H 0.68684 0.39726 0.31901 0.0
H747 H 0.70415 0.36338 0.33351 0.0
C748 C 0.61274 0.33145 0.31755 0.0
C749 C 0.60933 0.30224 0.32958 0.0
C750 C 0.62972 0.35626 0.3283 0.0
C751 C 0.64382 0.35205 0.35103 0.0
C752 C 0.64245 0.32221 0.36214 0.0
H753 H 0.75064 0.47209 0.44673 0.0
H754 H 0.73352 0.43331 0.41636 0.0
C755 C 0.62542 0.29753 0.35153 0.0
C756 C 0.65581 0.37955 0.36492 0.0
H757 H 0.71301 0.43683 0.36669 0.0
C758 C 0.63997 0.38743 0.38638 0.0
C759 C 0.68243 0.39748 0.35762 0.0
C760 C 0.70062 0.38941 0.335 0.0
C761 C 0.65017 0.41259 0.40093 0.0
C762 C 0.67662 0.43079 0.39359 0.0
C763 C 0.69252 0.42301 0.37208 0.0
C764 C 0.68891 0.45673 0.40896 0.0
C765 C 0.63303 0.41892 0.4244 0.0
C766 C 0.67002 0.4833 0.41413 0.0
C767 C 0.67952 0.5051 0.43173 0.0
C768 C 0.70796 0.50052 0.4444 0.0
C769 C 0.72799 0.47534 0.43784 0.0
C770 C 0.71846 0.45348 0.42031 0.0
H771 H 0.61771 0.39869 0.42981 0.0
H772 H 0.65014 0.4237 0.43921 0.0
H773 H 0.61771 0.44013 0.42229 0.0
H774 H 0.64737 0.48649 0.40523 0.0
H775 H 0.66397 0.5247 0.4362 0.0
H776 H 0.48241 0.65931 0.6875 0.0
H777 H 0.52313 0.64682 0.65742 0.0
H778 H 0.55729 0.74307 0.66082 0.0
H779 H 0.51597 0.75599 0.69036 0.0
H780 H 0.55532 0.71276 0.61182 0.0
H781 H 0.61735 0.64283 0.68262 0.0
H782 H 0.5763 0.63299 0.67814 0.0
H783 H 0.58683 0.67141 0.68965 0.0
C784 C 0.49827 0.67795 0.68154 0.0
C785 C 0.49676 0.70834 0.69188 0.0
C786 C 0.52152 0.67076 0.66443 0.0
C787 C 0.54348 0.6939 0.65729 0.0
C788 C 0.54071 0.72483 0.66633 0.0
H789 H 0.72768 0.64063 0.60323 0.0
H790 H 0.68526 0.67165 0.62171 0.0
C791 C 0.51746 0.73203 0.68349 0.0
C792 C 0.57097 0.68497 0.64217 0.0
H793 H 0.63776 0.63953 0.64302 0.0
C794 C 0.5735 0.69689 0.61858 0.0
C795 C 0.59482 0.66471 0.65127 0.0
C796 C 0.59399 0.65239 0.67687 0.0
C797 C 0.59901 0.68825 0.60356 0.0
C798 C 0.62226 0.66705 0.61242 0.0
C799 C 0.61995 0.65582 0.63622 0.0
C800 C 0.64873 0.6549 0.59741 0.0
C801 C 0.60097 0.70199 0.57847 0.0
C802 C 0.64259 0.63634 0.57686 0.0
C803 C 0.66694 0.61878 0.56607 0.0
C804 C 0.69766 0.61911 0.57596 0.0
C805 C 0.70421 0.63968 0.59532 0.0
C806 C 0.67998 0.65743 0.6059 0.0
H807 H 0.58725 0.72442 0.577 0.0
H808 H 0.62595 0.70667 0.57324 0.0
H809 H 0.59082 0.68479 0.56541 0.0
H810 H 0.61859 0.63357 0.57024 0.0
H811 H 0.6611 0.60303 0.55126 0.0
H812 H 0.33205 0.47363 0.93642 0.0
H813 H 0.34767 0.51199 0.90529 0.0
H814 H 0.25839 0.5606 0.91393 0.0
H815 H 0.24236 0.52173 0.94457 0.0
H816 H 0.28175 0.55627 0.86426 0.0
H817 H 0.37032 0.60262 0.92983 0.0
H818 H 0.3731 0.56093 0.92343 0.0
H819 H 0.33871 0.57623 0.93864 0.0
C820 C 0.31562 0.49222 0.93135 0.0
C821 C 0.28652 0.49555 0.94338 0.0
C822 C 0.32454 0.51408 0.91365 0.0
C823 C 0.30441 0.53943 0.90772 0.0
C824 C 0.27435 0.54136 0.91845 0.0
H825 H 0.36614 0.72131 0.85721 0.0
H826 H 0.33649 0.67838 0.87619 0.0
C827 C 0.26541 0.51947 0.93611 0.0
C828 C 0.3159 0.56561 0.89228 0.0
H829 H 0.3698 0.62579 0.89119 0.0
C830 C 0.30102 0.57151 0.87004 0.0
C831 C 0.34069 0.58566 0.90015 0.0
C832 C 0.35653 0.58134 0.92439 0.0
C833 C 0.31065 0.5969 0.85528 0.0
C834 C 0.3358 0.61658 0.86303 0.0
C835 C 0.35049 0.61065 0.88531 0.0
C836 C 0.34763 0.64371 0.84865 0.0
C837 C 0.29354 0.60284 0.83181 0.0
C838 C 0.36267 0.63876 0.82634 0.0
C839 C 0.37952 0.66341 0.81531 0.0
C840 C 0.38194 0.69318 0.82665 0.0
C841 C 0.36497 0.69858 0.84812 0.0
C842 C 0.34798 0.67408 0.85899 0.0
H843 H 0.27025 0.59055 0.83121 0.0
H844 H 0.2897 0.62862 0.82895 0.0
H845 H 0.30821 0.59382 0.81665 0.0
H846 H 0.36311 0.61538 0.81823 0.0
H847 H 0.39246 0.65847 0.79882 0.0
H848 H 0.33693 0.60539 0.45114 0.0
H849 H 0.3809 0.63696 0.4352 0.0
H850 H 0.32503 0.66028 0.37245 0.0
H851 H 0.28105 0.62914 0.38821 0.0
H852 H 0.40923 0.61993 0.39234 0.0
H853 H 0.36865 0.74436 0.38686 0.0
H854 H 0.34981 0.71544 0.40621 0.0
H855 H 0.33993 0.71742 0.3746 0.0
C856 C 0.33365 0.61802 0.4343 0.0
C857 C 0.30557 0.61449 0.42083 0.0
C858 C 0.35883 0.63602 0.42522 0.0
C859 C 0.35615 0.65117 0.40274 0.0
C860 C 0.32743 0.64934 0.39005 0.0
H861 H 0.46587 0.6775 0.28004 0.0
H862 H 0.4302 0.66435 0.31337 0.0
C863 C 0.30236 0.63125 0.39901 0.0
C864 C 0.38446 0.6646 0.39067 0.0
H865 H 0.40953 0.7287 0.35821 0.0
C866 C 0.4097 0.64399 0.38543 0.0
C867 C 0.38512 0.69601 0.38172 0.0
C868 C 0.35955 0.71967 0.38785 0.0
C869 C 0.43438 0.65324 0.37002 0.0
C870 C 0.43371 0.68377 0.35962 0.0
C871 C 0.40975 0.70518 0.36614 0.0
C872 C 0.45552 0.6923 0.33983 0.0
C873 C 0.46025 0.62985 0.36395 0.0
C874 C 0.4815 0.71236 0.34383 0.0
C875 C 0.50198 0.71991 0.32477 0.0
C876 C 0.49627 0.70796 0.30146 0.0
C877 C 0.47032 0.68773 0.29765 0.0
C878 C 0.4501 0.68 0.31668 0.0
H879 H 0.4608 0.60966 0.37683 0.0
H880 H 0.45614 0.62029 0.34552 0.0
H881 H 0.48375 0.64172 0.364 0.0
H882 H 0.486 0.72195 0.36166 0.0
H883 H 0.52198 0.73541 0.32813 0.0
H884 H 0.33874 0.51448 0.55675 0.0
H885 H 0.35337 0.47442 0.58682 0.0
H886 H 0.25826 0.43698 0.58491 0.0
H887 H 0.24325 0.47777 0.5554 0.0
H888 H 0.28792 0.43889 0.63276 0.0
H889 H 0.36206 0.38139 0.56221 0.0
H890 H 0.3706 0.4226 0.56729 0.0
H891 H 0.33273 0.41117 0.55521 0.0
C892 C 0.32087 0.498 0.56305 0.0
C893 C 0.29022 0.49835 0.5532 0.0
C894 C 0.32924 0.47513 0.58013 0.0
C895 C 0.30704 0.45239 0.58763 0.0
C896 C 0.27579 0.45412 0.5791 0.0
H897 H 0.36719 0.26981 0.64045 0.0
H898 H 0.33553 0.31153 0.62172 0.0
C899 C 0.2674 0.47706 0.56203 0.0
C900 C 0.31724 0.42525 0.60264 0.0
H901 H 0.36605 0.36086 0.60176 0.0
C902 C 0.3049 0.42168 0.62604 0.0
C903 C 0.33892 0.40261 0.59359 0.0
C904 C 0.35169 0.40434 0.56813 0.0
C905 C 0.31442 0.39635 0.6409 0.0
C906 C 0.33699 0.37438 0.6321 0.0
C907 C 0.34874 0.37772 0.60851 0.0
C908 C 0.34983 0.34807 0.64692 0.0
C909 C 0.30007 0.39317 0.66572 0.0
C910 C 0.36728 0.35444 0.66796 0.0
C911 C 0.3852 0.33048 0.6789 0.0
C912 C 0.38635 0.29997 0.66865 0.0
C913 C 0.36701 0.29315 0.64864 0.0
C914 C 0.34888 0.31697 0.63792 0.0
H915 H 0.277 0.40579 0.66701 0.0
H916 H 0.29642 0.36787 0.67054 0.0
H917 H 0.3164 0.40379 0.6792 0.0
H918 H 0.36884 0.37837 0.67499 0.0
H919 H 0.39997 0.33651 0.69423 0.0
H920 H 0.67495 0.37971 0.94908 0.0
H921 H 0.63448 0.34429 0.9323 0.0
H922 H 0.6706 0.3617 0.86061 0.0
H923 H 0.71147 0.39579 0.87711 0.0
H924 H 0.58814 0.36006 0.90394 0.0
H925 H 0.65682 0.26907 0.85586 0.0
H926 H 0.67501 0.29541 0.87751 0.0
H927 H 0.67047 0.30726 0.84637 0.0
C928 C 0.67473 0.37532 0.9298 0.0
C929 C 0.69648 0.39063 0.91446 0.0
C930 C 0.65155 0.35511 0.92024 0.0
C931 C 0.64974 0.34986 0.8952 0.0
C932 C 0.67203 0.36445 0.88002 0.0
H933 H 0.49411 0.34007 0.80123 0.0
H934 H 0.53284 0.35187 0.83281 0.0
C935 C 0.69531 0.38428 0.88953 0.0
C936 C 0.62268 0.33236 0.8844 0.0
H937 H 0.60487 0.28168 0.83836 0.0
C938 C 0.59176 0.34233 0.89 0.0
C939 C 0.6271 0.30857 0.86667 0.0
C940 C 0.65918 0.29425 0.86151 0.0
C941 C 0.5655 0.3311 0.877 0.0
C942 C 0.57044 0.31026 0.85729 0.0
C943 C 0.60102 0.29827 0.85305 0.0
C944 C 0.545 0.3027 0.83964 0.0
C945 C 0.53287 0.34218 0.88433 0.0
C946 C 0.53939 0.27123 0.83243 0.0
C947 C 0.51784 0.26461 0.81391 0.0
C948 C 0.5015 0.28934 0.80241 0.0
C949 C 0.50633 0.32065 0.81003 0.0
C950 C 0.52824 0.32733 0.82824 0.0
H951 H 0.53171 0.34653 0.90411 0.0
H952 H 0.52753 0.36497 0.87518 0.0
H953 H 0.51434 0.32463 0.87943 0.0
H954 H 0.55207 0.25183 0.84087 0.0
H955 H 0.51406 0.24022 0.80848 0.0
H956 H 0.63246 0.71952 0.13959 0.0
H957 H 0.66103 0.67458 0.12228 0.0
H958 H 0.63058 0.61544 0.18134 0.0
H959 H 0.602 0.66041 0.19903 0.0
H960 H 0.69744 0.60402 0.15978 0.0
H961 H 0.59608 0.6051 0.09557 0.0
H962 H 0.61614 0.64239 0.09933 0.0
H963 H 0.59491 0.62537 0.12428 0.0
C964 C 0.63257 0.69724 0.14933 0.0
C965 C 0.61447 0.69338 0.17046 0.0
C966 C 0.64896 0.67161 0.13941 0.0
C967 C 0.64743 0.6417 0.15038 0.0
C968 C 0.63196 0.63841 0.17265 0.0
H969 H 0.66104 0.47306 0.06108 0.0
H970 H 0.64644 0.50911 0.09397 0.0
C971 C 0.61565 0.66415 0.18271 0.0
C972 C 0.6575 0.61337 0.13667 0.0
H973 H 0.63853 0.57064 0.08646 0.0
C974 C 0.68455 0.59647 0.14383 0.0
C975 C 0.64016 0.6033 0.11622 0.0
C976 C 0.61004 0.61975 0.10842 0.0
C977 C 0.69539 0.57026 0.13041 0.0
C978 C 0.67887 0.56119 0.10923 0.0
C979 C 0.65124 0.57759 0.10265 0.0
C980 C 0.69022 0.53589 0.09273 0.0
C981 C 0.72425 0.5525 0.1391 0.0
C982 C 0.72004 0.53834 0.08161 0.0
C983 C 0.72847 0.51756 0.063 0.0
C984 C 0.7069 0.4946 0.0548 0.0
C985 C 0.6779 0.49089 0.06688 0.0
C986 C 0.66956 0.51146 0.08563 0.0
H987 H 0.72756 0.5553 0.1589 0.0
H988 H 0.72257 0.52683 0.1348 0.0
H989 H 0.74561 0.56221 0.13004 0.0
H990 H 0.73623 0.55719 0.08651 0.0
H991 H 0.75152 0.52002 0.05459 0.0
loop_
_geom_bond_atom_site_label_1
_geom_bond_atom_site_label_2
_geom_bond_distance
_geom_bond_site_symmetry_2
_ccdc_geom_bond_type
Co0 O3 1.970 . S
Co0 N17 1.989 . S
Co0 O25 1.967 . S
Co0 O32 1.920 . S
Co1 O4 1.966 . S
Co1 N10 2.022 1_554 S
Co1 N18 1.993 . S
Co1 O26 1.941 . S
C2 O3 1.258 . S
C2 O4 1.263 . S
O3 Co0 1.970 . S
O3 C2 1.258 . S
O4 Co1 1.966 . S
O4 C2 1.263 . S
C5 O6 1.235 . S
C5 O32 1.289 . S
O6 C5 1.235 . S
C7 C9 1.400 . S
C7 N10 1.351 . S
C7 C12 1.520 . S
C8 C9 1.387 . S
C8 N11 1.341 . S
C9 C7 1.400 . S
C9 C8 1.387 . S
N10 Co1 2.022 1_556 S
N10 C7 1.351 . S
N10 N11 1.365 . S
N11 C8 1.341 . S
N11 N10 1.365 . S
N11 H31 0.862 . S
C12 C7 1.520 . S
C12 H13 0.922 1_556 S
C12 H14 0.971 . S
C12 H15 0.972 . S
H13 C12 0.922 1_554 S
H14 C12 0.971 . S
H15 C12 0.972 . S
C16 N17 1.342 . S
C16 C20 1.401 . S
C16 C21 1.499 . S
N17 Co0 1.989 . S
N17 C16 1.342 . S
N17 N18 1.388 . S
N18 Co1 1.993 . S
N18 N17 1.388 . S
N18 C19 1.346 . S
C19 N18 1.346 . S
C19 C20 1.396 . S
C19 C29 1.510 1_554 S
C20 C16 1.401 . S
C20 C19 1.396 . S
C21 C16 1.499 . S
C21 H22 0.959 . S
C21 H23 0.960 . S
C21 H24 0.961 . S
H22 C21 0.959 . S
H23 C21 0.960 . S
H24 C21 0.961 . S
O25 Co0 1.967 . S
O25 C33 1.258 . S
O26 Co1 1.941 . S
O26 C33 1.266 . S
H27 C29 0.959 . S
H28 C29 0.961 . S
C29 C19 1.510 1_556 S
C29 H27 0.959 . S
C29 H28 0.961 . S
C29 H30 0.960 . S
H30 C29 0.960 . S
H31 N11 0.862 . S
O32 Co0 1.920 . S
O32 C5 1.289 . S
C33 O25 1.258 . S
C33 O26 1.266 . S
Co34 O37 1.970 . S
Co34 N51 1.989 . S
Co34 O59 1.967 . S
Co34 O66 1.920 . S
Co35 O38 1.966 . S
Co35 N44 2.022 . S
Co35 N52 1.993 . S
Co35 O60 1.941 . S
C36 O37 1.258 . S
C36 O38 1.263 . S
O37 Co34 1.970 . S
O37 C36 1.258 . S
O38 Co35 1.966 . S
O38 C36 1.263 . S
C39 O40 1.235 . S
C39 O66 1.289 . S
O40 C39 1.235 . S
C41 C43 1.400 . S
C41 N44 1.351 . S
C41 C46 1.501 . S
C42 C43 1.387 . S
C42 N45 1.341 . S
C43 C41 1.400 . S
C43 C42 1.387 . S
N44 Co35 2.022 . S
N44 C41 1.351 . S
N44 N45 1.365 . S
N45 C42 1.341 . S
N45 N44 1.365 . S
N45 H65 0.862 . S
C46 C41 1.501 . S
C46 H47 0.961 . S
C46 H48 0.961 . S
C46 H49 0.960 . S
H47 C46 0.961 . S
H48 C46 0.961 . S
H49 C46 0.960 . S
C50 N51 1.342 . S
C50 C54 1.401 . S
C50 C55 1.499 . S
N51 Co34 1.989 . S
N51 C50 1.342 . S
N51 N52 1.388 . S
N52 Co35 1.993 . S
N52 N51 1.388 . S
N52 C53 1.346 . S
C53 N52 1.346 . S
C53 C54 1.396 . S
C53 C63 1.510 . S
C54 C50 1.401 . S
C54 C53 1.396 . S
C55 C50 1.499 . S
C55 H56 0.959 . S
C55 H57 0.960 . S
C55 H58 0.961 . S
H56 C55 0.959 . S
H57 C55 0.960 . S
H58 C55 0.961 . S
O59 Co34 1.967 . S
O59 C67 1.258 . S
O60 Co35 1.941 . S
O60 C67 1.266 . S
H61 C63 0.959 . S
H62 C63 0.961 . S
C63 C53 1.510 . S
C63 H61 0.959 . S
C63 H62 0.961 . S
C63 H64 0.960 . S
H64 C63 0.960 . S
H65 N45 0.862 . S
O66 Co34 1.920 . S
O66 C39 1.289 . S
C67 O59 1.258 . S
C67 O60 1.266 . S
Co68 O71 1.970 . S
Co68 N85 1.989 . S
Co68 O93 1.967 . S
Co68 O100 1.920 . S
Co69 O72 1.966 . S
Co69 N78 2.022 . S
Co69 N86 1.993 . S
Co69 O94 1.941 . S
C70 O71 1.258 . S
C70 O72 1.263 . S
O71 Co68 1.970 . S
O71 C70 1.258 . S
O72 Co69 1.966 . S
O72 C70 1.263 . S
C73 O74 1.235 . S
C73 O100 1.289 . S
O74 C73 1.235 . S
C75 C77 1.400 . S
C75 N78 1.351 . S
C75 C80 1.501 . S
C76 C77 1.387 . S
C76 N79 1.341 . S
C77 C75 1.400 . S
C77 C76 1.387 . S
N78 Co69 2.022 . S
N78 C75 1.351 . S
N78 N79 1.365 . S
N79 C76 1.341 . S
N79 N78 1.365 . S
N79 H99 0.862 . S
C80 C75 1.501 . S
C80 H81 0.961 . S
C80 H82 0.961 . S
C80 H83 0.960 . S
H81 C80 0.961 . S
H82 C80 0.961 . S
H83 C80 0.960 . S
C84 N85 1.342 . S
C84 C88 1.401 . S
C84 C89 1.499 . S
N85 Co68 1.989 . S
N85 C84 1.342 . S
N85 N86 1.388 . S
N86 Co69 1.993 . S
N86 N85 1.388 . S
N86 C87 1.346 . S
C87 N86 1.346 . S
C87 C88 1.396 . S
C87 C97 1.510 . S
C88 C84 1.401 . S
C88 C87 1.396 . S
C89 C84 1.499 . S
C89 H90 0.959 . S
C89 H91 0.960 . S
C89 H92 0.961 . S
H90 C89 0.959 . S
H91 C89 0.960 . S
H92 C89 0.961 . S
O93 Co68 1.967 . S
O93 C101 1.258 . S
O94 Co69 1.941 . S
O94 C101 1.266 . S
H95 C97 0.959 . S
H96 C97 0.961 . S
C97 C87 1.510 . S
C97 H95 0.959 . S
C97 H96 0.961 . S
C97 H98 0.960 . S
H98 C97 0.960 . S
H99 N79 0.862 . S
O100 Co68 1.920 . S
O100 C73 1.289 . S
C101 O93 1.258 . S
C101 O94 1.266 . S
Co102 O105 1.970 . S
Co102 N119 1.989 . S
Co102 O127 1.967 . S
Co102 O134 1.920 . S
Co103 O106 1.966 . S
Co103 N112 2.022 . S
Co103 N120 1.993 . S
Co103 O128 1.941 . S
C104 O105 1.258 . S
C104 O106 1.263 . S
O105 Co102 1.970 . S
O105 C104 1.258 . S
O106 Co103 1.966 . S
O106 C104 1.263 . S
C107 O108 1.235 . S
C107 O134 1.289 . S
O108 C107 1.235 . S
C109 C111 1.400 . S
C109 N112 1.351 . S
C109 C114 1.501 . S
C110 C111 1.387 . S
C110 N113 1.341 . S
C111 C109 1.400 . S
C111 C110 1.387 . S
N112 Co103 2.022 . S
N112 C109 1.351 . S
N112 N113 1.365 . S
N113 C110 1.341 . S
N113 N112 1.365 . S
N113 H133 0.862 . S
C114 C109 1.501 . S
C114 H115 0.961 . S
C114 H116 0.961 . S
C114 H117 0.960 . S
H115 C114 0.961 . S
H116 C114 0.961 . S
H117 C114 0.960 . S
C118 N119 1.342 . S
C118 C122 1.401 . S
C118 C123 1.499 . S
N119 Co102 1.989 . S
N119 C118 1.342 . S
N119 N120 1.388 . S
N120 Co103 1.993 . S
N120 N119 1.388 . S
N120 C121 1.346 . S
C121 N120 1.346 . S
C121 C122 1.396 . S
C121 C131 1.510 . S
C122 C118 1.401 . S
C122 C121 1.396 . S
C123 C118 1.499 . S
C123 H124 0.959 . S
C123 H125 0.960 . S
C123 H126 0.961 . S
H124 C123 0.959 . S
H125 C123 0.960 . S
H126 C123 0.961 . S
O127 Co102 1.967 . S
O127 C135 1.258 . S
O128 Co103 1.941 . S
O128 C135 1.266 . S
H129 C131 0.959 . S
H130 C131 0.961 . S
C131 C121 1.510 . S
C131 H129 0.959 . S
C131 H130 0.961 . S
C131 H132 0.960 . S
H132 C131 0.960 . S
H133 N113 0.862 . S
O134 Co102 1.920 . S
O134 C107 1.289 . S
C135 O127 1.258 . S
C135 O128 1.266 . S
Co136 O139 1.970 . S
Co136 N153 1.989 . S
Co136 O161 1.967 . S
Co136 O168 1.920 . S
Co137 O140 1.966 . S
Co137 N146 2.022 . S
Co137 N154 1.993 . S
Co137 O162 1.941 . S
C138 O139 1.258 . S
C138 O140 1.263 . S
O139 Co136 1.970 . S
O139 C138 1.258 . S
O140 Co137 1.966 . S
O140 C138 1.263 . S
C141 O142 1.235 . S
C141 O168 1.289 . S
O142 C141 1.235 . S
C143 C145 1.400 . S
C143 N146 1.351 . S
C143 C148 1.501 . S
C144 C145 1.387 . S
C144 N147 1.341 . S
C145 C143 1.400 . S
C145 C144 1.387 . S
N146 Co137 2.022 . S
N146 C143 1.351 . S
N146 N147 1.365 . S
N147 C144 1.341 . S
N147 N146 1.365 . S
N147 H167 0.862 . S
C148 C143 1.501 . S
C148 H149 0.961 . S
C148 H150 0.961 . S
C148 H151 0.960 . S
H149 C148 0.961 . S
H150 C148 0.961 . S
H151 C148 0.960 . S
C152 N153 1.342 . S
C152 C156 1.401 . S
C152 C157 1.499 . S
N153 Co136 1.989 . S
N153 C152 1.342 . S
N153 N154 1.388 . S
N154 Co137 1.993 . S
N154 N153 1.388 . S
N154 C155 1.346 . S
C155 N154 1.346 . S
C155 C156 1.396 . S
C155 C165 1.510 . S
C156 C152 1.401 . S
C156 C155 1.396 . S
C157 C152 1.499 . S
C157 H158 0.959 . S
C157 H159 0.960 . S
C157 H160 0.961 . S
H158 C157 0.959 . S
H159 C157 0.960 . S
H160 C157 0.961 . S
O161 Co136 1.967 . S
O161 C169 1.258 . S
O162 Co137 1.941 . S
O162 C169 1.266 . S
H163 C165 0.959 . S
H164 C165 0.961 . S
C165 C155 1.510 . S
C165 H163 0.959 . S
C165 H164 0.961 . S
C165 H166 0.960 . S
H166 C165 0.960 . S
H167 N147 0.862 . S
O168 Co136 1.920 . S
O168 C141 1.289 . S
C169 O161 1.258 . S
C169 O162 1.266 . S
Co170 O173 1.970 . S
Co170 N187 1.989 . S
Co170 O195 1.967 . S
Co170 O202 1.920 . S
Co171 O174 1.966 . S
Co171 N180 2.022 . S
Co171 N188 1.993 . S
Co171 O196 1.941 . S
C172 O173 1.258 . S
C172 O174 1.263 . S
O173 Co170 1.970 . S
O173 C172 1.258 . S
O174 Co171 1.966 . S
O174 C172 1.263 . S
C175 O176 1.235 . S
C175 O202 1.289 . S
O176 C175 1.235 . S
C177 C179 1.400 . S
C177 N180 1.351 . S
C177 C182 1.501 . S
C178 C179 1.387 . S
C178 N181 1.341 . S
C179 C177 1.400 . S
C179 C178 1.387 . S
N180 Co171 2.022 . S
N180 C177 1.351 . S
N180 N181 1.365 . S
N181 C178 1.341 . S
N181 N180 1.365 . S
N181 H201 0.862 . S
C182 C177 1.501 . S
C182 H183 0.961 . S
C182 H184 0.961 . S
C182 H185 0.960 . S
H183 C182 0.961 . S
H184 C182 0.961 . S
H185 C182 0.960 . S
C186 N187 1.342 . S
C186 C190 1.401 . S
C186 C191 1.499 . S
N187 Co170 1.989 . S
N187 C186 1.342 . S
N187 N188 1.388 . S
N188 Co171 1.993 . S
N188 N187 1.388 . S
N188 C189 1.346 . S
C189 N188 1.346 . S
C189 C190 1.396 . S
C189 C199 1.510 . S
C190 C186 1.401 . S
C190 C189 1.396 . S
C191 C186 1.499 . S
C191 H192 0.959 . S
C191 H193 0.960 . S
C191 H194 0.961 . S
H192 C191 0.959 . S
H193 C191 0.960 . S
H194 C191 0.961 . S
O195 Co170 1.967 . S
O195 C203 1.258 . S
O196 Co171 1.941 . S
O196 C203 1.266 . S
H197 C199 0.959 . S
H198 C199 0.961 . S
C199 C189 1.510 . S
C199 H197 0.959 . S
C199 H198 0.961 . S
C199 H200 0.960 . S
H200 C199 0.960 . S
H201 N181 0.862 . S
O202 Co170 1.920 . S
O202 C175 1.289 . S
C203 O195 1.258 . S
C203 O196 1.266 . S
Co204 O207 1.970 . S
Co204 N221 1.989 . S
Co204 O229 1.967 . S
Co204 O236 1.920 . S
Co205 O208 1.966 . S
Co205 N214 2.022 1_556 S
Co205 N222 1.993 . S
Co205 O230 1.941 . S
C206 O207 1.258 . S
C206 O208 1.263 . S
O207 Co204 1.970 . S
O207 C206 1.258 . S
O208 Co205 1.966 . S
O208 C206 1.263 . S
C209 O210 1.235 . S
C209 O236 1.289 . S
O210 C209 1.235 . S
C211 C213 1.400 . S
C211 N214 1.351 . S
C211 C216 1.520 . S
C212 C213 1.387 . S
C212 N215 1.341 . S
C213 C211 1.400 . S
C213 C212 1.387 . S
N214 Co205 2.022 1_554 S
N214 C211 1.351 . S
N214 N215 1.365 . S
N215 C212 1.341 . S
N215 N214 1.365 . S
N215 H235 0.862 . S
C216 C211 1.520 . S
C216 H217 0.922 1_554 S
C216 H218 0.971 . S
C216 H219 0.972 . S
H217 C216 0.922 1_556 S
H218 C216 0.971 . S
H219 C216 0.972 . S
C220 N221 1.342 . S
C220 C224 1.401 . S
C220 C225 1.499 . S
N221 Co204 1.989 . S
N221 C220 1.342 . S
N221 N222 1.388 . S
N222 Co205 1.993 . S
N222 N221 1.388 . S
N222 C223 1.346 . S
C223 N222 1.346 . S
C223 C224 1.396 . S
C223 C233 1.510 1_556 S
C224 C220 1.401 . S
C224 C223 1.396 . S
C225 C220 1.499 . S
C225 H226 0.959 . S
C225 H227 0.960 . S
C225 H228 0.961 . S
H226 C225 0.959 . S
H227 C225 0.960 . S
H228 C225 0.961 . S
O229 Co204 1.967 . S
O229 C237 1.258 . S
O230 Co205 1.941 . S
O230 C237 1.266 . S
H231 C233 0.959 . S
H232 C233 0.961 . S
C233 C223 1.510 1_554 S
C233 H231 0.959 . S
C233 H232 0.961 . S
C233 H234 0.960 . S
H234 C233 0.960 . S
H235 N215 0.862 . S
O236 Co204 1.920 . S
O236 C209 1.289 . S
C237 O229 1.258 . S
C237 O230 1.266 . S
Co238 O241 1.970 . S
Co238 N255 1.989 . S
Co238 O263 1.967 . S
Co238 O270 1.920 . S
Co239 O242 1.966 . S
Co239 N248 2.022 . S
Co239 N256 1.993 . S
Co239 O264 1.941 . S
C240 O241 1.258 . S
C240 O242 1.263 . S
O241 Co238 1.970 . S
O241 C240 1.258 . S
O242 Co239 1.966 . S
O242 C240 1.263 . S
C243 O244 1.235 . S
C243 O270 1.289 . S
O244 C243 1.235 . S
C245 C247 1.400 . S
C245 N248 1.351 . S
C245 C250 1.501 . S
C246 C247 1.387 . S
C246 N249 1.341 . S
C247 C245 1.400 . S
C247 C246 1.387 . S
N248 Co239 2.022 . S
N248 C245 1.351 . S
N248 N249 1.365 . S
N249 C246 1.341 . S
N249 N248 1.365 . S
N249 H269 0.862 . S
C250 C245 1.501 . S
C250 H251 0.961 . S
C250 H252 0.961 . S
C250 H253 0.960 . S
H251 C250 0.961 . S
H252 C250 0.961 . S
H253 C250 0.960 . S
C254 N255 1.342 . S
C254 C258 1.401 . S
C254 C259 1.499 . S
N255 Co238 1.989 . S
N255 C254 1.342 . S
N255 N256 1.388 . S
N256 Co239 1.993 . S
N256 N255 1.388 . S
N256 C257 1.346 . S
C257 N256 1.346 . S
C257 C258 1.396 . S
C257 C267 1.510 . S
C258 C254 1.401 . S
C258 C257 1.396 . S
C259 C254 1.499 . S
C259 H260 0.959 . S
C259 H261 0.960 . S
C259 H262 0.961 . S
H260 C259 0.959 . S
H261 C259 0.960 . S
H262 C259 0.961 . S
O263 Co238 1.967 . S
O263 C271 1.258 . S
O264 Co239 1.941 . S
O264 C271 1.266 . S
H265 C267 0.959 . S
H266 C267 0.961 . S
C267 C257 1.510 . S
C267 H265 0.959 . S
C267 H266 0.961 . S
C267 H268 0.960 . S
H268 C267 0.960 . S
H269 N249 0.862 . S
O270 Co238 1.920 . S
O270 C243 1.289 . S
C271 O263 1.258 . S
C271 O264 1.266 . S
H272 C280 0.929 . S
H273 C282 0.930 . S
H274 C284 0.930 . S
H275 C287 0.929 . S
H276 C290 0.930 . S
H277 C292 0.960 . S
H278 C292 0.960 . S
H279 C292 0.960 . S
C280 H272 0.929 . S
C280 C281 1.377 . S
C280 C282 1.384 . S
C281 C280 1.377 . S
C281 C287 1.390 . S
C282 H273 0.930 . S
C282 C280 1.384 . S
C282 C283 1.372 . S
C283 C282 1.372 . S
C283 C284 1.400 . S
C283 C288 1.490 . S
C284 H274 0.930 . S
C284 C283 1.400 . S
C284 C287 1.386 . S
H285 C301 0.930 . S
H286 C302 0.931 . S
C287 H275 0.929 . S
C287 C281 1.390 . S
C287 C284 1.386 . S
C288 C283 1.490 . S
C288 C290 1.395 . S
C288 C291 1.403 . S
H289 C295 0.930 . S
C290 H276 0.930 . S
C290 C288 1.395 . S
C290 C293 1.403 . S
C291 C288 1.403 . S
C291 C292 1.524 . S
C291 C295 1.400 . S
C292 H277 0.960 . S
C292 H278 0.960 . S
C292 H279 0.960 . S
C292 C291 1.524 . S
C293 C290 1.403 . S
C293 C294 1.392 . S
C293 C297 1.495 . S
C294 C293 1.392 . S
C294 C295 1.385 . S
C294 C296 1.478 . S
C295 H289 0.930 . S
C295 C291 1.400 . S
C295 C294 1.385 . S
C296 C294 1.478 . S
C296 C298 1.381 . S
C296 C302 1.383 . S
C297 C293 1.495 . S
C297 H303 0.959 . S
C297 H304 0.961 . S
C297 H305 0.960 . S
C298 C296 1.381 . S
C298 C299 1.394 . S
C298 H306 0.930 . S
C299 C298 1.394 . S
C299 C300 1.383 . S
C299 H307 0.929 . S
C300 C299 1.383 . S
C300 C301 1.377 . S
C301 H285 0.930 . S
C301 C300 1.377 . S
C301 C302 1.379 . S
C302 H286 0.931 . S
C302 C296 1.383 . S
C302 C301 1.379 . S
H303 C297 0.959 . S
H304 C297 0.961 . S
H305 C297 0.960 . S
H306 C298 0.930 . S
H307 C299 0.929 . S
H308 C316 0.929 . S
H309 C318 0.930 . S
H310 C320 0.930 . S
H311 C323 0.929 . S
H312 C326 0.930 . S
H313 C328 0.960 . S
H314 C328 0.960 . S
H315 C328 0.960 . S
C316 H308 0.929 . S
C316 C317 1.377 . S
C316 C318 1.384 . S
C317 C316 1.377 . S
C317 C323 1.390 . S
C318 H309 0.930 . S
C318 C316 1.384 . S
C318 C319 1.372 . S
C319 C318 1.372 . S
C319 C320 1.400 . S
C319 C324 1.490 . S
C320 H310 0.930 . S
C320 C319 1.400 . S
C320 C323 1.386 . S
H321 C337 0.930 . S
H322 C338 0.931 . S
C323 H311 0.929 . S
C323 C317 1.390 . S
C323 C320 1.386 . S
C324 C319 1.490 . S
C324 C326 1.395 . S
C324 C327 1.403 . S
H325 C331 0.930 . S
C326 H312 0.930 . S
C326 C324 1.395 . S
C326 C329 1.403 . S
C327 C324 1.403 . S
C327 C328 1.524 . S
C327 C331 1.400 . S
C328 H313 0.960 . S
C328 H314 0.960 . S
C328 H315 0.960 . S
C328 C327 1.524 . S
C329 C326 1.403 . S
C329 C330 1.392 . S
C329 C333 1.495 . S
C330 C329 1.392 . S
C330 C331 1.385 . S
C330 C332 1.478 . S
C331 H325 0.930 . S
C331 C327 1.400 . S
C331 C330 1.385 . S
C332 C330 1.478 . S
C332 C334 1.381 . S
C332 C338 1.383 . S
C333 C329 1.495 . S
C333 H339 0.959 . S
C333 H340 0.961 . S
C333 H341 0.960 . S
C334 C332 1.381 . S
C334 C335 1.394 . S
C334 H342 0.930 . S
C335 C334 1.394 . S
C335 C336 1.383 . S
C335 H343 0.929 . S
C336 C335 1.383 . S
C336 C337 1.377 . S
C337 H321 0.930 . S
C337 C336 1.377 . S
C337 C338 1.379 . S
C338 H322 0.931 . S
C338 C332 1.383 . S
C338 C337 1.379 . S
H339 C333 0.959 . S
H340 C333 0.961 . S
H341 C333 0.960 . S
H342 C334 0.930 . S
H343 C335 0.929 . S
H344 C352 0.929 . S
H345 C354 0.930 . S
H346 C356 0.930 . S
H347 C359 0.929 . S
H348 C362 0.930 . S
H349 C364 0.960 . S
H350 C364 0.960 . S
H351 C364 0.960 . S
C352 H344 0.929 . S
C352 C353 1.377 . S
C352 C354 1.384 . S
C353 C352 1.377 . S
C353 C359 1.390 . S
C354 H345 0.930 . S
C354 C352 1.384 . S
C354 C355 1.372 . S
C355 C354 1.372 . S
C355 C356 1.400 . S
C355 C360 1.490 . S
C356 H346 0.930 . S
C356 C355 1.400 . S
C356 C359 1.386 . S
H357 C373 0.930 . S
H358 C374 0.931 . S
C359 H347 0.929 . S
C359 C353 1.390 . S
C359 C356 1.386 . S
C360 C355 1.490 . S
C360 C362 1.395 . S
C360 C363 1.403 . S
H361 C367 0.930 . S
C362 H348 0.930 . S
C362 C360 1.395 . S
C362 C365 1.403 . S
C363 C360 1.403 . S
C363 C364 1.524 . S
C363 C367 1.400 . S
C364 H349 0.960 . S
C364 H350 0.960 . S
C364 H351 0.960 . S
C364 C363 1.524 . S
C365 C362 1.403 . S
C365 C366 1.392 . S
C365 C369 1.495 . S
C366 C365 1.392 . S
C366 C367 1.385 . S
C366 C368 1.478 . S
C367 H361 0.930 . S
C367 C363 1.400 . S
C367 C366 1.385 . S
C368 C366 1.478 . S
C368 C370 1.381 . S
C368 C374 1.383 . S
C369 C365 1.495 . S
C369 H375 0.959 . S
C369 H376 0.961 . S
C369 H377 0.960 . S
C370 C368 1.381 . S
C370 C371 1.394 . S
C370 H378 0.930 . S
C371 C370 1.394 . S
C371 C372 1.383 . S
C371 H379 0.929 . S
C372 C371 1.383 . S
C372 C373 1.377 . S
C373 H357 0.930 . S
C373 C372 1.377 . S
C373 C374 1.379 . S
C374 H358 0.931 . S
C374 C368 1.383 . S
C374 C373 1.379 . S
H375 C369 0.959 . S
H376 C369 0.961 . S
H377 C369 0.960 . S
H378 C370 0.930 . S
H379 C371 0.929 . S
H380 C388 0.929 . S
H381 C390 0.930 . S
H382 C392 0.930 . S
H383 C395 0.929 . S
H384 C398 0.930 . S
H385 C400 0.960 . S
H386 C400 0.960 . S
H387 C400 0.960 . S
C388 H380 0.929 . S
C388 C389 1.377 . S
C388 C390 1.384 . S
C389 C388 1.377 . S
C389 C395 1.390 . S
C390 H381 0.930 . S
C390 C388 1.384 . S
C390 C391 1.372 . S
C391 C390 1.372 . S
C391 C392 1.400 . S
C391 C396 1.490 . S
C392 H382 0.930 . S
C392 C391 1.400 . S
C392 C395 1.386 . S
H393 C409 0.930 . S
H394 C410 0.931 . S
C395 H383 0.929 . S
C395 C389 1.390 . S
C395 C392 1.386 . S
C396 C391 1.490 . S
C396 C398 1.395 . S
C396 C399 1.403 . S
H397 C403 0.930 . S
C398 H384 0.930 . S
C398 C396 1.395 . S
C398 C401 1.403 1_556 S
C399 C396 1.403 . S
C399 C400 1.524 . S
C399 C403 1.400 1_556 S
C400 H385 0.960 . S
C400 H386 0.960 . S
C400 H387 0.960 . S
C400 C399 1.524 . S
C401 C398 1.403 1_554 S
C401 C402 1.392 . S
C401 C405 1.495 . S
C402 C401 1.392 . S
C402 C403 1.385 . S
C402 C404 1.478 . S
C403 H397 0.930 . S
C403 C399 1.400 1_554 S
C403 C402 1.385 . S
C404 C402 1.478 . S
C404 C406 1.381 . S
C404 C410 1.383 . S
C405 C401 1.495 . S
C405 H411 0.959 . S
C405 H412 0.961 . S
C405 H413 0.960 . S
C406 C404 1.381 . S
C406 C407 1.394 . S
C406 H414 0.930 . S
C407 C406 1.394 . S
C407 C408 1.383 . S
C407 H415 0.929 . S
C408 C407 1.383 . S
C408 C409 1.377 . S
C409 H393 0.930 . S
C409 C408 1.377 . S
C409 C410 1.379 . S
C410 H394 0.931 . S
C410 C404 1.383 . S
C410 C409 1.379 . S
H411 C405 0.959 . S
H412 C405 0.961 . S
H413 C405 0.960 . S
H414 C406 0.930 . S
H415 C407 0.929 . S
H416 C424 0.929 . S
H417 C426 0.930 . S
H418 C428 0.930 1_556 S
H419 C431 0.929 . S
H420 C434 0.930 . S
H421 C436 0.960 . S
H422 C436 0.960 . S
H423 C436 0.960 . S
C424 H416 0.929 . S
C424 C425 1.377 . S
C424 C426 1.384 . S
C425 C424 1.377 . S
C425 C431 1.390 . S
C426 H417 0.930 . S
C426 C424 1.384 . S
C426 C427 1.372 . S
C427 C426 1.372 . S
C427 C428 1.400 . S
C427 C432 1.490 . S
C428 H418 0.930 1_554 S
C428 C427 1.400 . S
C428 C431 1.386 . S
H429 C445 0.930 . S
H430 C446 0.931 . S
C431 H419 0.929 . S
C431 C425 1.390 . S
C431 C428 1.386 . S
C432 C427 1.490 . S
C432 C434 1.395 1_554 S
C432 C435 1.403 . S
H433 C439 0.930 . S
C434 H420 0.930 . S
C434 C432 1.395 1_556 S
C434 C437 1.403 1_455 S
C435 C432 1.403 . S
C435 C436 1.524 . S
C435 C439 1.400 1_455 S
C436 H421 0.960 . S
C436 H422 0.960 . S
C436 H423 0.960 . S
C436 C435 1.524 . S
C437 C434 1.403 1_655 S
C437 C438 1.392 . S
C437 C441 1.495 . S
C438 C437 1.392 . S
C438 C439 1.385 1_556 S
C438 C440 1.478 . S
C439 H433 0.930 . S
C439 C435 1.400 1_655 S
C439 C438 1.385 1_554 S
C440 C438 1.478 . S
C440 C442 1.381 . S
C440 C446 1.383 . S
C441 C437 1.495 . S
C441 H447 0.959 . S
C441 H448 0.961 . S
C441 H449 0.960 . S
C442 C440 1.381 . S
C442 C443 1.394 . S
C442 H450 0.930 1_556 S
C443 C442 1.394 . S
C443 C444 1.383 . S
C443 H451 0.929 . S
C444 C443 1.383 . S
C444 C445 1.377 . S
C445 H429 0.930 . S
C445 C444 1.377 . S
C445 C446 1.379 . S
C446 H430 0.931 . S
C446 C440 1.383 . S
C446 C445 1.379 . S
H447 C441 0.959 . S
H448 C441 0.961 . S
H449 C441 0.960 . S
H450 C442 0.930 1_554 S
H451 C443 0.929 . S
H452 C460 0.929 . S
H453 C462 0.930 . S
H454 C464 0.930 . S
H455 C467 0.929 . S
H456 C470 0.930 . S
H457 C472 0.960 . S
H458 C472 0.960 . S
H459 C472 0.960 . S
C460 H452 0.929 . S
C460 C461 1.377 . S
C460 C462 1.384 . S
C461 C460 1.377 . S
C461 C467 1.390 . S
C462 H453 0.930 . S
C462 C460 1.384 . S
C462 C463 1.372 . S
C463 C462 1.372 . S
C463 C464 1.400 . S
C463 C468 1.490 . S
C464 H454 0.930 . S
C464 C463 1.400 . S
C464 C467 1.386 . S
H465 C481 0.930 . S
H466 C482 0.931 . S
C467 H455 0.929 . S
C467 C461 1.390 . S
C467 C464 1.386 . S
C468 C463 1.490 . S
C468 C470 1.395 . S
C468 C471 1.403 . S
H469 C475 0.930 . S
C470 H456 0.930 . S
C470 C468 1.395 . S
C470 C473 1.403 1_545 S
C471 C468 1.403 . S
C471 C472 1.524 . S
C471 C475 1.400 1_545 S
C472 H457 0.960 . S
C472 H458 0.960 . S
C472 H459 0.960 . S
C472 C471 1.524 . S
C473 C470 1.403 1_565 S
C473 C474 1.392 . S
C473 C477 1.495 . S
C474 C473 1.392 . S
C474 C475 1.385 . S
C474 C476 1.478 . S
C475 H469 0.930 . S
C475 C471 1.400 1_565 S
C475 C474 1.385 . S
C476 C474 1.478 . S
C476 C478 1.381 . S
C476 C482 1.383 . S
C477 C473 1.495 . S
C477 H483 0.959 . S
C477 H484 0.961 . S
C477 H485 0.960 . S
C478 C476 1.381 . S
C478 C479 1.394 . S
C478 H486 0.930 . S
C479 C478 1.394 . S
C479 C480 1.383 . S
C479 H487 0.929 . S
C480 C479 1.383 . S
C480 C481 1.377 . S
C481 H465 0.930 . S
C481 C480 1.377 . S
C481 C482 1.379 . S
C482 H466 0.931 . S
C482 C476 1.383 . S
C482 C481 1.379 . S
H483 C477 0.959 . S
H484 C477 0.961 . S
H485 C477 0.960 . S
H486 C478 0.930 . S
H487 C479 0.929 . S
H488 C496 0.929 . S
H489 C498 0.930 . S
H490 C500 0.930 . S
H491 C503 0.929 . S
H492 C506 0.930 . S
H493 C508 0.960 . S
H494 C508 0.960 . S
H495 C508 0.960 . S
C496 H488 0.929 . S
C496 C497 1.377 . S
C496 C498 1.384 . S
C497 C496 1.377 . S
C497 C503 1.390 . S
C498 H489 0.930 . S
C498 C496 1.384 . S
C498 C499 1.372 . S
C499 C498 1.372 . S
C499 C500 1.400 . S
C499 C504 1.490 . S
C500 H490 0.930 . S
C500 C499 1.400 . S
C500 C503 1.386 . S
H501 C517 0.930 . S
H502 C518 0.931 . S
C503 H491 0.929 . S
C503 C497 1.390 . S
C503 C500 1.386 . S
C504 C499 1.490 . S
C504 C506 1.395 . S
C504 C507 1.403 . S
H505 C511 0.930 . S
C506 H492 0.930 . S
C506 C504 1.395 . S
C506 C509 1.403 1_455 S
C507 C504 1.403 . S
C507 C508 1.524 . S
C507 C511 1.400 1_455 S
C508 H493 0.960 . S
C508 H494 0.960 . S
C508 H495 0.960 . S
C508 C507 1.524 . S
C509 C506 1.403 1_655 S
C509 C510 1.392 . S
C509 C513 1.495 . S
C510 C509 1.392 . S
C510 C511 1.385 . S
C510 C512 1.478 . S
C511 H505 0.930 . S
C511 C507 1.400 1_655 S
C511 C510 1.385 . S
C512 C510 1.478 . S
C512 C514 1.381 . S
C512 C518 1.383 . S
C513 C509 1.495 . S
C513 H519 0.959 . S
C513 H520 0.961 . S
C513 H521 0.960 . S
C514 C512 1.381 . S
C514 C515 1.394 . S
C514 H522 0.930 . S
C515 C514 1.394 . S
C515 C516 1.383 . S
C515 H523 0.929 . S
C516 C515 1.383 . S
C516 C517 1.377 . S
C517 H501 0.930 . S
C517 C516 1.377 . S
C517 C518 1.379 . S
C518 H502 0.931 . S
C518 C512 1.383 . S
C518 C517 1.379 . S
H519 C513 0.959 . S
H520 C513 0.961 . S
H521 C513 0.960 . S
H522 C514 0.930 . S
H523 C515 0.929 . S
H524 C532 0.929 . S
H525 C534 0.930 . S
H526 C536 0.930 . S
H527 C539 0.929 . S
H528 C542 0.930 . S
H529 C544 0.960 1_565 S
H530 C544 0.960 . S
H531 C544 0.960 . S
C532 H524 0.929 . S
C532 C533 1.377 . S
C532 C534 1.384 . S
C533 C532 1.377 . S
C533 C539 1.390 . S
C534 H525 0.930 . S
C534 C532 1.384 . S
C534 C535 1.372 . S
C535 C534 1.372 . S
C535 C536 1.400 . S
C535 C540 1.490 . S
C536 H526 0.930 . S
C536 C535 1.400 . S
C536 C539 1.386 . S
H537 C553 0.930 . S
H538 C554 0.931 . S
C539 H527 0.929 . S
C539 C533 1.390 . S
C539 C536 1.386 . S
C540 C535 1.490 . S
C540 C542 1.395 . S
C540 C543 1.403 . S
H541 C547 0.930 . S
C542 H528 0.930 . S
C542 C540 1.395 . S
C542 C545 1.403 1_545 S
C543 C540 1.403 . S
C543 C544 1.524 . S
C543 C547 1.400 1_545 S
C544 H529 0.960 1_545 S
C544 H530 0.960 . S
C544 H531 0.960 . S
C544 C543 1.524 . S
C545 C542 1.403 1_565 S
C545 C546 1.392 . S
C545 C549 1.495 . S
C546 C545 1.392 . S
C546 C547 1.385 . S
C546 C548 1.478 . S
C547 H541 0.930 . S
C547 C543 1.400 1_565 S
C547 C546 1.385 . S
C548 C546 1.478 . S
C548 C550 1.381 . S
C548 C554 1.383 . S
C549 C545 1.495 . S
C549 H555 0.959 1_565 S
C549 H556 0.961 . S
C549 H557 0.960 . S
C550 C548 1.381 . S
C550 C551 1.394 . S
C550 H558 0.930 . S
C551 C550 1.394 . S
C551 C552 1.383 . S
C551 H559 0.929 . S
C552 C551 1.383 . S
C552 C553 1.377 . S
C553 H537 0.930 . S
C553 C552 1.377 . S
C553 C554 1.379 . S
C554 H538 0.931 . S
C554 C548 1.383 . S
C554 C553 1.379 . S
H555 C549 0.959 1_545 S
H556 C549 0.961 . S
H557 C549 0.960 . S
H558 C550 0.930 . S
H559 C551 0.929 . S
H560 C568 0.929 . S
H561 C570 0.930 . S
H562 C572 0.930 . S
H563 C575 0.929 . S
H564 C578 0.930 . S
H565 C580 0.960 . S
H566 C580 0.960 . S
H567 C580 0.960 . S
C568 H560 0.929 . S
C568 C569 1.377 . S
C568 C570 1.384 . S
C569 C568 1.377 . S
C569 C575 1.390 . S
C570 H561 0.930 . S
C570 C568 1.384 . S
C570 C571 1.372 . S
C571 C570 1.372 . S
C571 C572 1.400 . S
C571 C576 1.490 . S
C572 H562 0.930 . S
C572 C571 1.400 . S
C572 C575 1.386 . S
H573 C589 0.930 . S
H574 C590 0.931 . S
C575 H563 0.929 . S
C575 C569 1.390 . S
C575 C572 1.386 . S
C576 C571 1.490 . S
C576 C578 1.395 . S
C576 C579 1.403 . S
H577 C583 0.930 . S
C578 H564 0.930 . S
C578 C576 1.395 . S
C578 C581 1.403 . S
C579 C576 1.403 . S
C579 C580 1.524 . S
C579 C583 1.400 . S
C580 H565 0.960 . S
C580 H566 0.960 . S
C580 H567 0.960 . S
C580 C579 1.524 . S
C581 C578 1.403 . S
C581 C582 1.392 . S
C581 C585 1.495 . S
C582 C581 1.392 . S
C582 C583 1.385 . S
C582 C584 1.478 . S
C583 H577 0.930 . S
C583 C579 1.400 . S
C583 C582 1.385 . S
C584 C582 1.478 . S
C584 C586 1.381 . S
C584 C590 1.383 . S
C585 C581 1.495 . S
C585 H591 0.959 . S
C585 H592 0.961 . S
C585 H593 0.960 . S
C586 C584 1.381 . S
C586 C587 1.394 . S
C586 H594 0.930 . S
C587 C586 1.394 . S
C587 C588 1.383 . S
C587 H595 0.929 . S
C588 C587 1.383 . S
C588 C589 1.377 . S
C589 H573 0.930 . S
C589 C588 1.377 . S
C589 C590 1.379 . S
C590 H574 0.931 . S
C590 C584 1.383 . S
C590 C589 1.379 . S
H591 C585 0.959 . S
H592 C585 0.961 . S
H593 C585 0.960 . S
H594 C586 0.930 . S
H595 C587 0.929 . S
H596 C604 0.929 . S
H597 C606 0.930 . S
H598 C608 0.930 . S
H599 C611 0.929 . S
H600 C614 0.930 . S
H601 C616 0.960 . S
H602 C616 0.960 . S
H603 C616 0.960 . S
C604 H596 0.929 . S
C604 C605 1.377 . S
C604 C606 1.384 . S
C605 C604 1.377 . S
C605 C611 1.390 . S
C606 H597 0.930 . S
C606 C604 1.384 . S
C606 C607 1.372 . S
C607 C606 1.372 . S
C607 C608 1.400 . S
C607 C612 1.490 . S
C608 H598 0.930 . S
C608 C607 1.400 . S
C608 C611 1.386 . S
H609 C625 0.930 . S
H610 C626 0.931 . S
C611 H599 0.929 . S
C611 C605 1.390 . S
C611 C608 1.386 . S
C612 C607 1.490 . S
C612 C614 1.395 . S
C612 C615 1.403 . S
H613 C619 0.930 . S
C614 H600 0.930 . S
C614 C612 1.395 . S
C614 C617 1.403 . S
C615 C612 1.403 . S
C615 C616 1.524 . S
C615 C619 1.400 . S
C616 H601 0.960 . S
C616 H602 0.960 . S
C616 H603 0.960 . S
C616 C615 1.524 . S
C617 C614 1.403 . S
C617 C618 1.392 . S
C617 C621 1.495 . S
C618 C617 1.392 . S
C618 C619 1.385 . S
C618 C620 1.478 . S
C619 H613 0.930 . S
C619 C615 1.400 . S
C619 C618 1.385 . S
C620 C618 1.478 . S
C620 C622 1.381 . S
C620 C626 1.383 . S
C621 C617 1.495 . S
C621 H627 0.959 . S
C621 H628 0.961 . S
C621 H629 0.960 . S
C622 C620 1.381 . S
C622 C623 1.394 . S
C622 H630 0.930 . S
C623 C622 1.394 . S
C623 C624 1.383 . S
C623 H631 0.929 . S
C624 C623 1.383 . S
C624 C625 1.377 . S
C625 H609 0.930 . S
C625 C624 1.377 . S
C625 C626 1.379 . S
C626 H610 0.931 . S
C626 C620 1.383 . S
C626 C625 1.379 . S
H627 C621 0.959 . S
H628 C621 0.961 . S
H629 C621 0.960 . S
H630 C622 0.930 . S
H631 C623 0.929 . S
H632 C640 0.929 . S
H633 C642 0.930 . S
H634 C644 0.930 . S
H635 C647 0.929 . S
H636 C650 0.930 . S
H637 C652 0.960 . S
H638 C652 0.960 . S
H639 C652 0.960 . S
C640 H632 0.929 . S
C640 C641 1.377 . S
C640 C642 1.384 . S
C641 C640 1.377 . S
C641 C647 1.390 . S
C642 H633 0.930 . S
C642 C640 1.384 . S
C642 C643 1.372 . S
C643 C642 1.372 . S
C643 C644 1.400 . S
C643 C648 1.490 . S
C644 H634 0.930 . S
C644 C643 1.400 . S
C644 C647 1.386 . S
H645 C661 0.930 . S
H646 C662 0.931 . S
C647 H635 0.929 . S
C647 C641 1.390 . S
C647 C644 1.386 . S
C648 C643 1.490 . S
C648 C650 1.395 . S
C648 C651 1.403 . S
H649 C655 0.930 . S
C650 H636 0.930 . S
C650 C648 1.395 . S
C650 C653 1.403 . S
C651 C648 1.403 . S
C651 C652 1.524 . S
C651 C655 1.400 . S
C652 H637 0.960 . S
C652 H638 0.960 . S
C652 H639 0.960 . S
C652 C651 1.524 . S
C653 C650 1.403 . S
C653 C654 1.392 . S
C653 C657 1.495 . S
C654 C653 1.392 . S
C654 C655 1.385 . S
C654 C656 1.478 . S
C655 H649 0.930 . S
C655 C651 1.400 . S
C655 C654 1.385 . S
C656 C654 1.478 . S
C656 C658 1.381 . S
C656 C662 1.383 . S
C657 C653 1.495 . S
C657 H663 0.959 . S
C657 H664 0.961 . S
C657 H665 0.960 . S
C658 C656 1.381 . S
C658 C659 1.394 . S
C658 H666 0.930 . S
C659 C658 1.394 . S
C659 C660 1.383 . S
C659 H667 0.929 . S
C660 C659 1.383 . S
C660 C661 1.377 . S
C661 H645 0.930 . S
C661 C660 1.377 . S
C661 C662 1.379 . S
C662 H646 0.931 . S
C662 C656 1.383 . S
C662 C661 1.379 . S
H663 C657 0.959 . S
H664 C657 0.961 . S
H665 C657 0.960 . S
H666 C658 0.930 . S
H667 C659 0.929 . S
H668 C676 0.929 . S
H669 C678 0.930 . S
H670 C680 0.930 . S
H671 C683 0.929 . S
H672 C686 0.930 . S
H673 C688 0.960 . S
H674 C688 0.960 . S
H675 C688 0.960 . S
C676 H668 0.929 . S
C676 C677 1.377 . S
C676 C678 1.384 . S
C677 C676 1.377 . S
C677 C683 1.390 . S
C678 H669 0.930 . S
C678 C676 1.384 . S
C678 C679 1.372 . S
C679 C678 1.372 . S
C679 C680 1.400 . S
C679 C684 1.490 . S
C680 H670 0.930 . S
C680 C679 1.400 . S
C680 C683 1.386 . S
H681 C697 0.930 . S
H682 C698 0.931 . S
C683 H671 0.929 . S
C683 C677 1.390 . S
C683 C680 1.386 . S
C684 C679 1.490 . S
C684 C686 1.395 . S
C684 C687 1.403 . S
H685 C691 0.930 . S
C686 H672 0.930 . S
C686 C684 1.395 . S
C686 C689 1.403 . S
C687 C684 1.403 . S
C687 C688 1.524 . S
C687 C691 1.400 . S
C688 H673 0.960 . S
C688 H674 0.960 . S
C688 H675 0.960 . S
C688 C687 1.524 . S
C689 C686 1.403 . S
C689 C690 1.392 . S
C689 C693 1.495 . S
C690 C689 1.392 . S
C690 C691 1.385 . S
C690 C692 1.478 . S
C691 H685 0.930 . S
C691 C687 1.400 . S
C691 C690 1.385 . S
C692 C690 1.478 . S
C692 C694 1.381 . S
C692 C698 1.383 . S
C693 C689 1.495 . S
C693 H699 0.959 . S
C693 H700 0.961 . S
C693 H701 0.960 . S
C694 C692 1.381 . S
C694 C695 1.394 . S
C694 H702 0.930 . S
C695 C694 1.394 . S
C695 C696 1.383 . S
C695 H703 0.929 . S
C696 C695 1.383 . S
C696 C697 1.377 . S
C697 H681 0.930 . S
C697 C696 1.377 . S
C697 C698 1.379 . S
C698 H682 0.931 . S
C698 C692 1.383 . S
C698 C697 1.379 . S
H699 C693 0.959 . S
H700 C693 0.961 . S
H701 C693 0.960 . S
H702 C694 0.930 . S
H703 C695 0.929 . S
H704 C712 0.929 . S
H705 C714 0.930 . S
H706 C716 0.930 . S
H707 C719 0.929 . S
H708 C722 0.930 . S
H709 C724 0.960 . S
H710 C724 0.960 . S
H711 C724 0.960 . S
C712 H704 0.929 . S
C712 C713 1.377 . S
C712 C714 1.384 . S
C713 C712 1.377 . S
C713 C719 1.390 . S
C714 H705 0.930 . S
C714 C712 1.384 . S
C714 C715 1.372 . S
C715 C714 1.372 . S
C715 C716 1.400 . S
C715 C720 1.490 . S
C716 H706 0.930 . S
C716 C715 1.400 . S
C716 C719 1.386 . S
H717 C733 0.930 . S
H718 C734 0.931 . S
C719 H707 0.929 . S
C719 C713 1.390 . S
C719 C716 1.386 . S
C720 C715 1.490 . S
C720 C722 1.395 . S
C720 C723 1.403 . S
H721 C727 0.930 . S
C722 H708 0.930 . S
C722 C720 1.395 . S
C722 C725 1.403 . S
C723 C720 1.403 . S
C723 C724 1.524 . S
C723 C727 1.400 . S
C724 H709 0.960 . S
C724 H710 0.960 . S
C724 H711 0.960 . S
C724 C723 1.524 . S
C725 C722 1.403 . S
C725 C726 1.392 . S
C725 C729 1.495 . S
C726 C725 1.392 . S
C726 C727 1.385 . S
C726 C728 1.478 . S
C727 H721 0.930 . S
C727 C723 1.400 . S
C727 C726 1.385 . S
C728 C726 1.478 . S
C728 C730 1.381 . S
C728 C734 1.383 . S
C729 C725 1.495 . S
C729 H735 0.959 . S
C729 H736 0.961 . S
C729 H737 0.960 . S
C730 C728 1.381 . S
C730 C731 1.394 . S
C730 H738 0.930 . S
C731 C730 1.394 . S
C731 C732 1.383 . S
C731 H739 0.929 . S
C732 C731 1.383 . S
C732 C733 1.377 . S
C733 H717 0.930 . S
C733 C732 1.377 . S
C733 C734 1.379 . S
C734 H718 0.931 . S
C734 C728 1.383 . S
C734 C733 1.379 . S
H735 C729 0.959 . S
H736 C729 0.961 . S
H737 C729 0.960 . S
H738 C730 0.930 . S
H739 C731 0.929 . S
H740 C748 0.929 . S
H741 C750 0.930 . S
H742 C752 0.930 . S
H743 C755 0.929 . S
H744 C758 0.930 . S
H745 C760 0.960 . S
H746 C760 0.960 . S
H747 C760 0.960 . S
C748 H740 0.929 . S
C748 C749 1.377 . S
C748 C750 1.384 . S
C749 C748 1.377 . S
C749 C755 1.390 . S
C750 H741 0.930 . S
C750 C748 1.384 . S
C750 C751 1.372 . S
C751 C750 1.372 . S
C751 C752 1.400 . S
C751 C756 1.490 . S
C752 H742 0.930 . S
C752 C751 1.400 . S
C752 C755 1.386 . S
H753 C769 0.930 . S
H754 C770 0.931 . S
C755 H743 0.929 . S
C755 C749 1.390 . S
C755 C752 1.386 . S
C756 C751 1.490 . S
C756 C758 1.395 . S
C756 C759 1.403 . S
H757 C763 0.930 . S
C758 H744 0.930 . S
C758 C756 1.395 . S
C758 C761 1.403 . S
C759 C756 1.403 . S
C759 C760 1.524 . S
C759 C763 1.400 . S
C760 H745 0.960 . S
C760 H746 0.960 . S
C760 H747 0.960 . S
C760 C759 1.524 . S
C761 C758 1.403 . S
C761 C762 1.392 . S
C761 C765 1.495 . S
C762 C761 1.392 . S
C762 C763 1.385 . S
C762 C764 1.478 . S
C763 H757 0.930 . S
C763 C759 1.400 . S
C763 C762 1.385 . S
C764 C762 1.478 . S
C764 C766 1.381 . S
C764 C770 1.383 . S
C765 C761 1.495 . S
C765 H771 0.959 . S
C765 H772 0.961 . S
C765 H773 0.960 . S
C766 C764 1.381 . S
C766 C767 1.394 . S
C766 H774 0.930 . S
C767 C766 1.394 . S
C767 C768 1.383 . S
C767 H775 0.929 . S
C768 C767 1.383 . S
C768 C769 1.377 . S
C769 H753 0.930 . S
C769 C768 1.377 . S
C769 C770 1.379 . S
C770 H754 0.931 . S
C770 C764 1.383 . S
C770 C769 1.379 . S
H771 C765 0.959 . S
H772 C765 0.961 . S
H773 C765 0.960 . S
H774 C766 0.930 . S
H775 C767 0.929 . S
H776 C784 0.929 . S
H777 C786 0.930 . S
H778 C788 0.930 . S
H779 C791 0.929 . S
H780 C794 0.930 . S
H781 C796 0.960 . S
H782 C796 0.960 . S
H783 C796 0.960 . S
C784 H776 0.929 . S
C784 C785 1.377 . S
C784 C786 1.384 . S
C785 C784 1.377 . S
C785 C791 1.390 . S
C786 H777 0.930 . S
C786 C784 1.384 . S
C786 C787 1.372 . S
C787 C786 1.372 . S
C787 C788 1.400 . S
C787 C792 1.490 . S
C788 H778 0.930 . S
C788 C787 1.400 . S
C788 C791 1.386 . S
H789 C805 0.930 . S
H790 C806 0.931 . S
C791 H779 0.929 . S
C791 C785 1.390 . S
C791 C788 1.386 . S
C792 C787 1.490 . S
C792 C794 1.395 . S
C792 C795 1.403 . S
H793 C799 0.930 . S
C794 H780 0.930 . S
C794 C792 1.395 . S
C794 C797 1.403 . S
C795 C792 1.403 . S
C795 C796 1.524 . S
C795 C799 1.400 . S
C796 H781 0.960 . S
C796 H782 0.960 . S
C796 H783 0.960 . S
C796 C795 1.524 . S
C797 C794 1.403 . S
C797 C798 1.392 . S
C797 C801 1.495 . S
C798 C797 1.392 . S
C798 C799 1.385 . S
C798 C800 1.478 . S
C799 H793 0.930 . S
C799 C795 1.400 . S
C799 C798 1.385 . S
C800 C798 1.478 . S
C800 C802 1.381 . S
C800 C806 1.383 . S
C801 C797 1.495 . S
C801 H807 0.959 . S
C801 H808 0.961 . S
C801 H809 0.960 . S
C802 C800 1.381 . S
C802 C803 1.394 . S
C802 H810 0.930 . S
C803 C802 1.394 . S
C803 C804 1.383 . S
C803 H811 0.929 . S
C804 C803 1.383 . S
C804 C805 1.377 . S
C805 H789 0.930 . S
C805 C804 1.377 . S
C805 C806 1.379 . S
C806 H790 0.931 . S
C806 C800 1.383 . S
C806 C805 1.379 . S
H807 C801 0.959 . S
H808 C801 0.961 . S
H809 C801 0.960 . S
H810 C802 0.930 . S
H811 C803 0.929 . S
H812 C820 0.929 . S
H813 C822 0.930 . S
H814 C824 0.930 . S
H815 C827 0.929 . S
H816 C830 0.930 . S
H817 C832 0.960 . S
H818 C832 0.960 . S
H819 C832 0.960 . S
C820 H812 0.929 . S
C820 C821 1.377 . S
C820 C822 1.384 . S
C821 C820 1.377 . S
C821 C827 1.390 . S
C822 H813 0.930 . S
C822 C820 1.384 . S
C822 C823 1.372 . S
C823 C822 1.372 . S
C823 C824 1.400 . S
C823 C828 1.490 . S
C824 H814 0.930 . S
C824 C823 1.400 . S
C824 C827 1.386 . S
H825 C841 0.930 . S
H826 C842 0.931 . S
C827 H815 0.929 . S
C827 C821 1.390 . S
C827 C824 1.386 . S
C828 C823 1.490 . S
C828 C830 1.395 . S
C828 C831 1.403 . S
H829 C835 0.930 . S
C830 H816 0.930 . S
C830 C828 1.395 . S
C830 C833 1.403 . S
C831 C828 1.403 . S
C831 C832 1.524 . S
C831 C835 1.400 . S
C832 H817 0.960 . S
C832 H818 0.960 . S
C832 H819 0.960 . S
C832 C831 1.524 . S
C833 C830 1.403 . S
C833 C834 1.392 . S
C833 C837 1.495 . S
C834 C833 1.392 . S
C834 C835 1.385 . S
C834 C836 1.478 . S
C835 H829 0.930 . S
C835 C831 1.400 . S
C835 C834 1.385 . S
C836 C834 1.478 . S
C836 C838 1.381 . S
C836 C842 1.383 . S
C837 C833 1.495 . S
C837 H843 0.959 . S
C837 H844 0.961 . S
C837 H845 0.960 . S
C838 C836 1.381 . S
C838 C839 1.394 . S
C838 H846 0.930 . S
C839 C838 1.394 . S
C839 C840 1.383 . S
C839 H847 0.929 . S
C840 C839 1.383 . S
C840 C841 1.377 . S
C841 H825 0.930 . S
C841 C840 1.377 . S
C841 C842 1.379 . S
C842 H826 0.931 . S
C842 C836 1.383 . S
C842 C841 1.379 . S
H843 C837 0.959 . S
H844 C837 0.961 . S
H845 C837 0.960 . S
H846 C838 0.930 . S
H847 C839 0.929 . S
H848 C856 0.929 . S
H849 C858 0.930 . S
H850 C860 0.930 . S
H851 C863 0.929 . S
H852 C866 0.930 . S
H853 C868 0.960 . S
H854 C868 0.960 . S
H855 C868 0.960 . S
C856 H848 0.929 . S
C856 C857 1.377 . S
C856 C858 1.384 . S
C857 C856 1.377 . S
C857 C863 1.390 . S
C858 H849 0.930 . S
C858 C856 1.384 . S
C858 C859 1.372 . S
C859 C858 1.372 . S
C859 C860 1.400 . S
C859 C864 1.490 . S
C860 H850 0.930 . S
C860 C859 1.400 . S
C860 C863 1.386 . S
H861 C877 0.930 . S
H862 C878 0.931 . S
C863 H851 0.929 . S
C863 C857 1.390 . S
C863 C860 1.386 . S
C864 C859 1.490 . S
C864 C866 1.395 . S
C864 C867 1.403 . S
H865 C871 0.930 . S
C866 H852 0.930 . S
C866 C864 1.395 . S
C866 C869 1.403 . S
C867 C864 1.403 . S
C867 C868 1.524 . S
C867 C871 1.400 . S
C868 H853 0.960 . S
C868 H854 0.960 . S
C868 H855 0.960 . S
C868 C867 1.524 . S
C869 C866 1.403 . S
C869 C870 1.392 . S
C869 C873 1.495 . S
C870 C869 1.392 . S
C870 C871 1.385 . S
C870 C872 1.478 . S
C871 H865 0.930 . S
C871 C867 1.400 . S
C871 C870 1.385 . S
C872 C870 1.478 . S
C872 C874 1.381 . S
C872 C878 1.383 . S
C873 C869 1.495 . S
C873 H879 0.959 . S
C873 H880 0.961 . S
C873 H881 0.960 . S
C874 C872 1.381 . S
C874 C875 1.394 . S
C874 H882 0.930 . S
C875 C874 1.394 . S
C875 C876 1.383 . S
C875 H883 0.929 . S
C876 C875 1.383 . S
C876 C877 1.377 . S
C877 H861 0.930 . S
C877 C876 1.377 . S
C877 C878 1.379 . S
C878 H862 0.931 . S
C878 C872 1.383 . S
C878 C877 1.379 . S
H879 C873 0.959 . S
H880 C873 0.961 . S
H881 C873 0.960 . S
H882 C874 0.930 . S
H883 C875 0.929 . S
H884 C892 0.929 . S
H885 C894 0.930 . S
H886 C896 0.930 . S
H887 C899 0.929 . S
H888 C902 0.930 . S
H889 C904 0.960 . S
H890 C904 0.960 . S
H891 C904 0.960 . S
C892 H884 0.929 . S
C892 C893 1.377 . S
C892 C894 1.384 . S
C893 C892 1.377 . S
C893 C899 1.390 . S
C894 H885 0.930 . S
C894 C892 1.384 . S
C894 C895 1.372 . S
C895 C894 1.372 . S
C895 C896 1.400 . S
C895 C900 1.490 . S
C896 H886 0.930 . S
C896 C895 1.400 . S
C896 C899 1.386 . S
H897 C913 0.930 . S
H898 C914 0.931 . S
C899 H887 0.929 . S
C899 C893 1.390 . S
C899 C896 1.386 . S
C900 C895 1.490 . S
C900 C902 1.395 . S
C900 C903 1.403 . S
H901 C907 0.930 . S
C902 H888 0.930 . S
C902 C900 1.395 . S
C902 C905 1.403 . S
C903 C900 1.403 . S
C903 C904 1.524 . S
C903 C907 1.400 . S
C904 H889 0.960 . S
C904 H890 0.960 . S
C904 H891 0.960 . S
C904 C903 1.524 . S
C905 C902 1.403 . S
C905 C906 1.392 . S
C905 C909 1.495 . S
C906 C905 1.392 . S
C906 C907 1.385 . S
C906 C908 1.478 . S
C907 H901 0.930 . S
C907 C903 1.400 . S
C907 C906 1.385 . S
C908 C906 1.478 . S
C908 C910 1.381 . S
C908 C914 1.383 . S
C909 C905 1.495 . S
C909 H915 0.959 . S
C909 H916 0.961 . S
C909 H917 0.960 . S
C910 C908 1.381 . S
C910 C911 1.394 . S
C910 H918 0.930 . S
C911 C910 1.394 . S
C911 C912 1.383 . S
C911 H919 0.929 . S
C912 C911 1.383 . S
C912 C913 1.377 . S
C913 H897 0.930 . S
C913 C912 1.377 . S
C913 C914 1.379 . S
C914 H898 0.931 . S
C914 C908 1.383 . S
C914 C913 1.379 . S
H915 C909 0.959 . S
H916 C909 0.961 . S
H917 C909 0.960 . S
H918 C910 0.930 . S
H919 C911 0.929 . S
H920 C928 0.929 . S
H921 C930 0.930 . S
H922 C932 0.930 . S
H923 C935 0.929 . S
H924 C938 0.930 . S
H925 C940 0.960 . S
H926 C940 0.960 . S
H927 C940 0.960 . S
C928 H920 0.929 . S
C928 C929 1.377 . S
C928 C930 1.384 . S
C929 C928 1.377 . S
C929 C935 1.390 . S
C930 H921 0.930 . S
C930 C928 1.384 . S
C930 C931 1.372 . S
C931 C930 1.372 . S
C931 C932 1.400 . S
C931 C936 1.490 . S
C932 H922 0.930 . S
C932 C931 1.400 . S
C932 C935 1.386 . S
H933 C949 0.930 . S
H934 C950 0.931 . S
C935 H923 0.929 . S
C935 C929 1.390 . S
C935 C932 1.386 . S
C936 C931 1.490 . S
C936 C938 1.395 . S
C936 C939 1.403 . S
H937 C943 0.930 . S
C938 H924 0.930 . S
C938 C936 1.395 . S
C938 C941 1.403 . S
C939 C936 1.403 . S
C939 C940 1.524 . S
C939 C943 1.400 . S
C940 H925 0.960 . S
C940 H926 0.960 . S
C940 H927 0.960 . S
C940 C939 1.524 . S
C941 C938 1.403 . S
C941 C942 1.392 . S
C941 C945 1.495 . S
C942 C941 1.392 . S
C942 C943 1.385 . S
C942 C944 1.478 . S
C943 H937 0.930 . S
C943 C939 1.400 . S
C943 C942 1.385 . S
C944 C942 1.478 . S
C944 C946 1.381 . S
C944 C950 1.383 . S
C945 C941 1.495 . S
C945 H951 0.959 . S
C945 H952 0.961 . S
C945 H953 0.960 . S
C946 C944 1.381 . S
C946 C947 1.394 . S
C946 H954 0.930 . S
C947 C946 1.394 . S
C947 C948 1.383 . S
C947 H955 0.929 . S
C948 C947 1.383 . S
C948 C949 1.377 . S
C949 H933 0.930 . S
C949 C948 1.377 . S
C949 C950 1.379 . S
C950 H934 0.931 . S
C950 C944 1.383 . S
C950 C949 1.379 . S
H951 C945 0.959 . S
H952 C945 0.961 . S
H953 C945 0.960 . S
H954 C946 0.930 . S
H955 C947 0.929 . S
H956 C964 0.929 . S
H957 C966 0.930 . S
H958 C968 0.930 . S
H959 C971 0.929 . S
H960 C974 0.930 . S
H961 C976 0.960 . S
H962 C976 0.960 . S
H963 C976 0.960 . S
C964 H956 0.929 . S
C964 C965 1.377 . S
C964 C966 1.384 . S
C965 C964 1.377 . S
C965 C971 1.390 . S
C966 H957 0.930 . S
C966 C964 1.384 . S
C966 C967 1.372 . S
C967 C966 1.372 . S
C967 C968 1.400 . S
C967 C972 1.490 . S
C968 H958 0.930 . S
C968 C967 1.400 . S
C968 C971 1.386 . S
H969 C985 0.930 . S
H970 C986 0.931 . S
C971 H959 0.929 . S
C971 C965 1.390 . S
C971 C968 1.386 . S
C972 C967 1.490 . S
C972 C974 1.395 . S
C972 C975 1.403 . S
H973 C979 0.930 . S
C974 H960 0.930 . S
C974 C972 1.395 . S
C974 C977 1.403 . S
C975 C972 1.403 . S
C975 C976 1.524 . S
C975 C979 1.400 . S
C976 H961 0.960 . S
C976 H962 0.960 . S
C976 H963 0.960 . S
C976 C975 1.524 . S
C977 C974 1.403 . S
C977 C978 1.392 . S
C977 C981 1.495 . S
C978 C977 1.392 . S
C978 C979 1.385 . S
C978 C980 1.478 . S
C979 H973 0.930 . S
C979 C975 1.400 . S
C979 C978 1.385 . S
C980 C978 1.478 . S
C980 C982 1.381 . S
C980 C986 1.383 . S
C981 C977 1.495 . S
C981 H987 0.959 . S
C981 H988 0.961 . S
C981 H989 0.960 . S
C982 C980 1.381 . S
C982 C983 1.394 . S
C982 H990 0.930 . S
C983 C982 1.394 . S
C983 C984 1.383 . S
C983 H991 0.929 . S
C984 C983 1.383 . S
C984 C985 1.377 . S
C985 H969 0.930 . S
C985 C984 1.377 . S
C985 C986 1.379 . S
C986 H970 0.931 . S
C986 C980 1.383 . S
C986 C985 1.379 . S
H987 C981 0.959 . S
H988 C981 0.961 . S
H989 C981 0.960 . S
H990 C982 0.930 . S
H991 C983 0.929 . S
C281 C141 1.141 . S
C300 C5 1.133 . S
C317 C39 1.143 . S
C336 C175 1.110 . S
C353 C73 1.139 . S
C372 C209 1.139 . S
C389 C107 1.142 . S
C408 C243 1.123 . S
C425 C20 1.104 . S
C444 C224 1.085 . S
C461 C54 1.111 . S
C480 C258 1.117 . S
C497 C156 1.111 . S
C516 C88 1.118 . S
C533 C190 1.103 . S
C552 C122 1.086 . S
C569 C240 0.559 . S
C588 C2 0.554 . S
C605 C36 0.559 . S
C624 C138 0.554 . S
C641 C172 0.552 . S
C660 C70 0.569 . S
C677 C206 0.551 . S
C696 C104 0.527 . S
C713 C33 1.275 . S
C732 C43 1.250 . S
C749 C67 1.276 . S
C768 C77 1.248 . S
C785 C111 1.271 . S
C804 C101 1.296 . S
C821 C9 1.270 . S
C840 C135 1.290 . S
C857 C169 1.278 . S
C876 C247 1.252 . S
C893 C145 1.271 . S
C912 C203 1.296 . S
C929 C237 1.276 . S
C948 C179 1.279 . S
C965 C271 1.269 . S
C984 C213 1.298 . S
