# Generated by pormake.
# Topology whw, (6)-cn, num edge types: 1
# Building blocks:
#     Node 0, Type 0, BuildingBlock: CIFDUS_clean_sbu_1, # of connection points: 6
#     Node 1, Type 0, BuildingBlock: CIFDUS_clean_sbu_1, # of connection points: 6
#     Node 2, Type 0, BuildingBlock: CIFDUS_clean_sbu_1, # of connection points: 6
#     Node 3, Type 0, BuildingBlock: CIFDUS_clean_sbu_1, # of connection points: 6
#     Node 4, Type 0, BuildingBlock: CIFDUS_clean_sbu_1, # of connection points: 6
#     Node 5, Type 0, BuildingBlock: CIFDUS_clean_sbu_1, # of connection points: 6
#     Node 6, Type 0, BuildingBlock: CIFDUS_clean_sbu_1, # of connection points: 6
#     Node 7, Type 0, BuildingBlock: CIFDUS_clean_sbu_1, # of connection points: 6
#     Node 8, Type 0, BuildingBlock: CIFDUS_clean_sbu_1, # of connection points: 6
#     Node 9, Type 0, BuildingBlock: CIFDUS_clean_sbu_1, # of connection points: 6
#     Node 10, Type 0, BuildingBlock: CIFDUS_clean_sbu_1, # of connection points: 6
#     Node 11, Type 0, BuildingBlock: CIFDUS_clean_sbu_1, # of connection points: 6
#     Node 12, Type 0, BuildingBlock: CIFDUS_clean_sbu_1, # of connection points: 6
#     Node 13, Type 0, BuildingBlock: CIFDUS_clean_sbu_1, # of connection points: 6
#     Node 14, Type 0, BuildingBlock: CIFDUS_clean_sbu_1, # of connection points: 6
#     Node 15, Type 0, BuildingBlock: CIFDUS_clean_sbu_1, # of connection points: 6
#     Edge 16, Type (0, 0), BuildingBlock: KIFKEQ_clean_linker_1, # of connection points: 2
#     Edge 17, Type (0, 0), BuildingBlock: KIFKEQ_clean_linker_1, # of connection points: 2
#     Edge 18, Type (0, 0), BuildingBlock: KIFKEQ_clean_linker_1, # of connection points: 2
#     Edge 19, Type (0, 0), BuildingBlock: KIFKEQ_clean_linker_1, # of connection points: 2
#     Edge 20, Type (0, 0), BuildingBlock: KIFKEQ_clean_linker_1, # of connection points: 2
#     Edge 21, Type (0, 0), BuildingBlock: KIFKEQ_clean_linker_1, # of connection points: 2
#     Edge 22, Type (0, 0), BuildingBlock: KIFKEQ_clean_linker_1, # of connection points: 2
#     Edge 23, Type (0, 0), BuildingBlock: KIFKEQ_clean_linker_1, # of connection points: 2
#     Edge 24, Type (0, 0), BuildingBlock: KIFKEQ_clean_linker_1, # of connection points: 2
#     Edge 25, Type (0, 0), BuildingBlock: KIFKEQ_clean_linker_1, # of connection points: 2
#     Edge 26, Type (0, 0), BuildingBlock: KIFKEQ_clean_linker_1, # of connection points: 2
#     Edge 27, Type (0, 0), BuildingBlock: KIFKEQ_clean_linker_1, # of connection points: 2
#     Edge 28, Type (0, 0), BuildingBlock: KIFKEQ_clean_linker_1, # of connection points: 2
#     Edge 29, Type (0, 0), BuildingBlock: KIFKEQ_clean_linker_1, # of connection points: 2
#     Edge 30, Type (0, 0), BuildingBlock: KIFKEQ_clean_linker_1, # of connection points: 2
#     Edge 31, Type (0, 0), BuildingBlock: KIFKEQ_clean_linker_1, # of connection points: 2
#     Edge 32, Type (0, 0), BuildingBlock: KIFKEQ_clean_linker_1, # of connection points: 2
#     Edge 33, Type (0, 0), BuildingBlock: KIFKEQ_clean_linker_1, # of connection points: 2
#     Edge 34, Type (0, 0), BuildingBlock: KIFKEQ_clean_linker_1, # of connection points: 2
#     Edge 35, Type (0, 0), BuildingBlock: KIFKEQ_clean_linker_1, # of connection points: 2
#     Edge 36, Type (0, 0), BuildingBlock: KIFKEQ_clean_linker_1, # of connection points: 2
#     Edge 37, Type (0, 0), BuildingBlock: KIFKEQ_clean_linker_1, # of connection points: 2
#     Edge 38, Type (0, 0), BuildingBlock: KIFKEQ_clean_linker_1, # of connection points: 2
#     Edge 39, Type (0, 0), BuildingBlock: KIFKEQ_clean_linker_1, # of connection points: 2
#     Edge 40, Type (0, 0), BuildingBlock: KIFKEQ_clean_linker_1, # of connection points: 2
#     Edge 41, Type (0, 0), BuildingBlock: KIFKEQ_clean_linker_1, # of connection points: 2
#     Edge 42, Type (0, 0), BuildingBlock: KIFKEQ_clean_linker_1, # of connection points: 2
#     Edge 43, Type (0, 0), BuildingBlock: KIFKEQ_clean_linker_1, # of connection points: 2
#     Edge 44, Type (0, 0), BuildingBlock: KIFKEQ_clean_linker_1, # of connection points: 2
#     Edge 45, Type (0, 0), BuildingBlock: KIFKEQ_clean_linker_1, # of connection points: 2
#     Edge 46, Type (0, 0), BuildingBlock: KIFKEQ_clean_linker_1, # of connection points: 2
#     Edge 47, Type (0, 0), BuildingBlock: KIFKEQ_clean_linker_1, # of connection points: 2
#     Edge 48, Type (0, 0), BuildingBlock: KIFKEQ_clean_linker_1, # of connection points: 2
#     Edge 49, Type (0, 0), BuildingBlock: KIFKEQ_clean_linker_1, # of connection points: 2
#     Edge 50, Type (0, 0), BuildingBlock: KIFKEQ_clean_linker_1, # of connection points: 2
#     Edge 51, Type (0, 0), BuildingBlock: KIFKEQ_clean_linker_1, # of connection points: 2
#     Edge 52, Type (0, 0), BuildingBlock: KIFKEQ_clean_linker_1, # of connection points: 2
#     Edge 53, Type (0, 0), BuildingBlock: KIFKEQ_clean_linker_1, # of connection points: 2
#     Edge 54, Type (0, 0), BuildingBlock: KIFKEQ_clean_linker_1, # of connection points: 2
#     Edge 55, Type (0, 0), BuildingBlock: KIFKEQ_clean_linker_1, # of connection points: 2
#     Edge 56, Type (0, 0), BuildingBlock: KIFKEQ_clean_linker_1, # of connection points: 2
#     Edge 57, Type (0, 0), BuildingBlock: KIFKEQ_clean_linker_1, # of connection points: 2
#     Edge 58, Type (0, 0), BuildingBlock: KIFKEQ_clean_linker_1, # of connection points: 2
#     Edge 59, Type (0, 0), BuildingBlock: KIFKEQ_clean_linker_1, # of connection points: 2
#     Edge 60, Type (0, 0), BuildingBlock: KIFKEQ_clean_linker_1, # of connection points: 2
#     Edge 61, Type (0, 0), BuildingBlock: KIFKEQ_clean_linker_1, # of connection points: 2
#     Edge 62, Type (0, 0), BuildingBlock: KIFKEQ_clean_linker_1, # of connection points: 2
#     Edge 63, Type (0, 0), BuildingBlock: KIFKEQ_clean_linker_1, # of connection points: 2
# Relax obj value: 0.549
# Max RMSD: 0.239
# Mean RMSD: 0.239
data_MOF--net-whw--node1-CIFDUS_clean_sbu_1--edge1-KIFKEQ_clean_linker_1
_symmetry_space_group_name_H-M    P1
_symmetry_Int_Tables_number       1
_symmetry_cell_setting            triclinic
loop_
_symmetry_equiv_pos_as_xyz
'x, y, z'
_cell_length_a     52.040206
_cell_length_b     51.771752
_cell_length_c     24.589566
_cell_angle_alpha  90.06724
_cell_angle_beta   90.131937
_cell_angle_gamma 90.077039
loop_
_atom_site_label
_atom_site_type_symbol
_atom_site_fract_x
_atom_site_fract_y
_atom_site_fract_z
_atom_type_partial_charge
O0 O 0.02659 0.12091 0.06937 0.0
Mn1 Mn -0.00064 0.12621 0.13296 0.0
O2 O 0.03643 0.1612 0.03971 0.0
Mn3 Mn 0.00887 0.17834 0.07028 0.0
O4 O 0.97196 0.1329 0.19554 0.0
O5 O -0.00766 0.08776 0.13714 0.0
Mn6 Mn 0.98725 0.08239 0.20827 0.0
O7 O 0.02859 0.12355 0.18961 0.0
O8 O 0.95497 0.09493 0.21915 0.0
O9 O 0.97007 0.13111 0.07411 0.0
O10 O 0.97704 0.1711 0.03926 0.0
O11 O 0.00045 0.05244 0.18368 0.0
O12 O 0.01048 0.0992 0.25342 0.0
C13 C 0.00838 0.18505 0.15744 0.0
C14 C 0.03987 0.13679 0.03983 0.0
C15 C 0.95475 0.11946 0.22065 0.0
C16 C 0.00449 0.06588 0.14 0.0
C17 C 0.0279 0.11454 0.23774 0.0
C18 C 0.96375 0.15034 0.04324 0.0
O19 O 0.00607 0.16346 0.13311 0.0
O20 O 0.01224 0.20389 0.12405 0.0
O21 O 0.1061 0.77292 0.4397 0.0
Mn22 Mn 0.11307 0.74497 0.38067 0.0
O23 O 0.13893 0.77206 0.49912 0.0
Mn24 Mn 0.15479 0.74393 0.46761 0.0
O25 O 0.11818 0.71645 0.31943 0.0
O26 O 0.07591 0.74358 0.36883 0.0
Mn27 Mn 0.06495 0.74513 0.30231 0.0
O28 O 0.11672 0.77431 0.32105 0.0
O29 O 0.08076 0.71665 0.27132 0.0
O30 O 0.10724 0.71631 0.44001 0.0
O31 O 0.14292 0.71218 0.48988 0.0
O32 O 0.03616 0.74207 0.34783 0.0
O33 O 0.07777 0.77668 0.27973 0.0
C34 C 0.17635 0.74966 0.39728 0.0
C35 C 0.11785 0.78138 0.48199 0.0
C36 C 0.10318 0.70772 0.28135 0.0
C37 C 0.05304 0.74163 0.38637 0.0
C38 C 0.10053 0.78507 0.28809 0.0
C39 C 0.12035 0.70511 0.47746 0.0
O40 O 0.15148 0.7471 0.39614 0.0
O41 O 0.1874 0.74744 0.44439 0.0
O42 O 0.46468 0.87132 0.57392 0.0
Mn43 Mn 0.49318 0.86539 0.63567 0.0
O44 O 0.45689 0.83174 0.53788 0.0
Mn45 Mn 0.48629 0.81604 0.56307 0.0
O46 O 0.5221 0.85746 0.69548 0.0
O47 O 0.49844 0.9048 0.64341 0.0
Mn48 Mn 0.50478 0.90545 0.71508 0.0
O49 O 0.46427 0.86457 0.69387 0.0
O50 O 0.53778 0.89499 0.72411 0.0
O51 O 0.52215 0.86445 0.5755 0.0
O52 O 0.51663 0.82658 0.53059 0.0
O53 O 0.49282 0.937 0.70213 0.0
O54 O 0.48176 0.88813 0.75946 0.0
C55 C 0.48871 0.80407 0.64657 0.0
C56 C 0.45187 0.85573 0.54244 0.0
C57 C 0.53941 0.87064 0.7213 0.0
C58 C 0.4877 0.92711 0.65474 0.0
C59 C 0.46437 0.87297 0.7427 0.0
C60 C 0.52887 0.84755 0.53951 0.0
O61 O 0.48878 0.82745 0.62958 0.0
O62 O 0.48605 0.78725 0.60807 0.0
O63 O 0.37033 0.2136 0.82138 0.0
Mn64 Mn 0.37481 0.24275 0.88198 0.0
O65 O 0.40977 0.20932 0.78297 0.0
Mn66 Mn 0.42468 0.239 0.81016 0.0
O67 O 0.38178 0.27102 0.94153 0.0
O68 O 0.33599 0.2453 0.89109 0.0
Mn69 Mn 0.33117 0.25107 0.96154 0.0
O70 O 0.37681 0.21482 0.9427 0.0
O71 O 0.34497 0.28248 0.98052 0.0
O72 O 0.3739 0.27124 0.82067 0.0
O73 O 0.41281 0.26945 0.77946 0.0
O74 O 0.29896 0.2502 0.93425 0.0
O75 O 0.34439 0.22342 1.00018 0.0
C76 C 0.43516 0.2396 0.89519 0.0
C77 C 0.3864 0.20232 0.78879 0.0
C78 C 0.36886 0.28549 0.97382 0.0
C79 C 0.31102 0.24624 0.88892 0.0
C80 C 0.36437 0.21068 0.98691 0.0
C81 C 0.39065 0.27956 0.78613 0.0
O82 O 0.41243 0.24025 0.87574 0.0
O83 O 0.45263 0.2382 0.85808 0.0
O84 O 0.02318 0.86762 0.9491 0.0
Mn85 Mn -0.00511 0.86385 0.8877 0.0
O86 O 0.0231 0.82954 0.99452 0.0
Mn87 Mn -0.00518 0.8143 0.96166 0.0
O88 O 0.96696 0.85933 0.8263 0.0
O89 O -0.00524 0.90236 0.87691 0.0
Mn90 Mn -0.00253 0.90912 0.80681 0.0
O91 O 0.02315 0.85932 0.82902 0.0
O92 O 0.96928 0.89465 0.77317 0.0
O93 O 0.96592 0.86653 0.94798 0.0
O94 O 0.96342 0.82659 0.98562 0.0
O95 O -0.00442 0.94073 0.83907 0.0
O96 O 0.02861 0.89623 0.78317 0.0
C97 C -0.00103 0.80324 0.87725 0.0
C98 C 0.03192 0.8522 0.98604 0.0
C99 C 0.95975 0.87268 0.78473 0.0
C100 C -0.00537 0.92712 0.8832 0.0
C101 C 0.03479 0.87302 0.79336 0.0
C102 C 0.9553 0.84972 0.97984 0.0
O103 O -0.00435 0.82605 0.8955 0.0
O104 O -0.00102 0.78598 0.91515 0.0
O105 O 0.37081 0.77648 0.19928 0.0
Mn106 Mn 0.37589 0.748 0.13733 0.0
O107 O 0.41017 0.7807 0.23904 0.0
Mn108 Mn 0.42546 0.75128 0.21147 0.0
O109 O 0.38401 0.7203 0.07734 0.0
O110 O 0.33726 0.74508 0.12546 0.0
Mn111 Mn 0.33375 0.73895 0.05477 0.0
O112 O 0.37828 0.77659 0.07779 0.0
O113 O 0.3477 0.7074 0.03824 0.0
O114 O 0.37468 0.71869 0.19694 0.0
O115 O 0.41317 0.72059 0.24031 0.0
O116 O 0.30107 0.73984 0.07851 0.0
O117 O 0.34781 0.76621 0.01634 0.0
C118 C 0.43552 0.75023 0.12591 0.0
C119 C 0.38673 0.78751 0.23298 0.0
C120 C 0.37161 0.70509 0.04552 0.0
C121 C 0.31228 0.74374 0.12496 0.0
C122 C 0.36678 0.7799 0.03205 0.0
C123 C 0.39125 0.71018 0.2318 0.0
O124 O 0.41308 0.75099 0.14596 0.0
O125 O 0.45323 0.75107 0.16273 0.0
O126 O 0.46483 0.1207 0.44389 0.0
Mn127 Mn 0.4941 0.12341 0.38445 0.0
O128 O 0.4694 0.1573 0.49417 0.0
Mn129 Mn 0.49658 0.173 0.45824 0.0
O130 O 0.52371 0.12857 0.32674 0.0
O131 O 0.49276 0.08461 0.37259 0.0
Mn132 Mn 0.50014 0.07976 0.30295 0.0
O133 O 0.46697 0.1281 0.3229 0.0
O134 O 0.53312 0.09048 0.2901 0.0
O135 O 0.522 0.11988 0.44727 0.0
O136 O 0.52863 0.16063 0.4778 0.0
O137 O 0.49415 0.04754 0.32856 0.0
O138 O 0.47569 0.09692 0.26174 0.0
C139 C 0.4885 0.18344 0.37455 0.0
C140 C 0.45835 0.13579 0.48363 0.0
C141 C 0.53783 0.1143 0.29613 0.0
C142 C 0.49008 0.05967 0.37391 0.0
C143 C 0.46354 0.11705 0.27669 0.0
C144 C 0.53459 0.13672 0.47587 0.0
O145 O 0.49402 0.16106 0.39247 0.0
O146 O 0.48971 0.20094 0.41195 0.0
O147 O 0.11269 0.21168 0.5763 0.0
Mn148 Mn 0.11489 0.23976 0.63601 0.0
O149 O 0.13873 0.22635 0.51087 0.0
Mn150 Mn 0.15705 0.25007 0.55246 0.0
O151 O 0.1155 0.26798 0.69762 0.0
O152 O 0.07737 0.23628 0.64412 0.0
Mn153 Mn 0.06624 0.23221 0.71002 0.0
O154 O 0.1211 0.21061 0.696 0.0
O155 O 0.07889 0.26125 0.74572 0.0
O156 O 0.10747 0.26851 0.57705 0.0
O157 O 0.14473 0.28308 0.54374 0.0
O158 O 0.03748 0.23415 0.66451 0.0
O159 O 0.08158 0.20159 0.7297 0.0
C160 C 0.17507 0.23304 0.62104 0.0
C161 C 0.12187 0.21068 0.52823 0.0
C162 C 0.09975 0.27357 0.73639 0.0
C163 C 0.0543 0.23743 0.6266 0.0
C164 C 0.10554 0.19688 0.7254 0.0
C165 C 0.12045 0.2848 0.54832 0.0
O166 O 0.153 0.24452 0.62349 0.0
O167 O 0.18756 0.23703 0.57628 0.0
O168 O 0.87269 0.27243 0.69524 0.0
Mn169 Mn 0.8762 0.24398 0.63399 0.0
O170 O 0.90894 0.26728 0.74587 0.0
Mn171 Mn 0.92603 0.24223 0.70566 0.0
O172 O 0.88214 0.21535 0.57408 0.0
O173 O 0.83779 0.24315 0.6238 0.0
Mn174 Mn 0.83127 0.23658 0.55473 0.0
O175 O 0.87835 0.27199 0.57358 0.0
O176 O 0.8442 0.20456 0.5384 0.0
O177 O 0.87464 0.21499 0.6952 0.0
O178 O 0.91595 0.20874 0.72005 0.0
O179 O 0.79979 0.24084 0.5854 0.0
O180 O 0.84588 0.26327 0.51556 0.0
C181 C 0.93561 0.25353 0.62343 0.0
C182 C 0.88733 0.27814 0.73622 0.0
C183 C 0.86822 0.20105 0.54287 0.0
C184 C 0.81318 0.2455 0.62885 0.0
C185 C 0.86586 0.27604 0.5292 0.0
C186 C 0.89234 0.20205 0.72033 0.0
O187 O 0.91369 0.24626 0.64058 0.0
O188 O 0.9532 0.25215 0.66044 0.0
O189 O 0.60517 0.7147 0.07451 0.0
Mn190 Mn 0.61089 0.74201 0.13558 0.0
O191 O 0.63984 0.71545 0.01984 0.0
Mn192 Mn 0.65545 0.74322 0.05361 0.0
O193 O 0.61549 0.76983 0.19827 0.0
O194 O 0.5734 0.74328 0.14379 0.0
Mn195 Mn 0.56162 0.74342 0.20976 0.0
O196 O 0.61287 0.71232 0.19504 0.0
O197 O 0.57654 0.77273 0.23912 0.0
O198 O 0.60701 0.77107 0.07635 0.0
O199 O 0.64405 0.77509 0.03083 0.0
O200 O 0.53332 0.74457 0.16266 0.0
O201 O 0.5741 0.7126 0.23732 0.0
C202 C 0.67392 0.73803 0.12866 0.0
C203 C 0.61799 0.70657 0.0334 0.0
C204 C 0.59983 0.77997 0.23312 0.0
C205 C 0.55058 0.74387 0.12504 0.0
C206 C 0.59637 0.70299 0.22927 0.0
C207 C 0.62117 0.78217 0.04041 0.0
O208 O 0.64926 0.74031 0.12403 0.0
O209 O 0.68704 0.73943 0.08403 0.0
O210 O 0.60975 0.27368 0.94038 0.0
Mn211 Mn 0.61254 0.24441 0.88207 0.0
O212 O 0.64539 0.27268 0.99183 0.0
Mn213 Mn 0.65769 0.24254 0.96168 0.0
O214 O 0.61398 0.21455 0.82282 0.0
O215 O 0.57503 0.24609 0.87474 0.0
Mn216 Mn 0.56286 0.24477 0.80884 0.0
O217 O 0.61647 0.27263 0.8201 0.0
O218 O 0.57415 0.21275 0.78537 0.0
O219 O 0.60668 0.21696 0.94441 0.0
O220 O 0.64369 0.2132 0.99055 0.0
O221 O 0.5351 0.24976 0.85598 0.0
O222 O 0.57821 0.27292 0.77559 0.0
C223 C 0.67596 0.2425 0.88643 0.0
C224 C 0.62361 0.28226 0.97984 0.0
C225 C 0.59688 0.20393 0.79159 0.0
C226 C 0.55256 0.24992 0.89339 0.0
C227 C 0.60082 0.28174 0.78389 0.0
C228 C 0.62039 0.207 0.98263 0.0
O229 O 0.65116 0.24302 0.8913 0.0
O230 O 0.68925 0.24152 0.93103 0.0
O231 O 0.87267 0.7155 0.31751 0.0
Mn232 Mn 0.87634 0.74306 0.38051 0.0
O233 O 0.91025 0.71777 0.27086 0.0
Mn234 Mn 0.92569 0.74538 0.30649 0.0
O235 O 0.88159 0.77019 0.44285 0.0
O236 O 0.83814 0.74279 0.39292 0.0
Mn237 Mn 0.83205 0.74119 0.46354 0.0
O238 O 0.88126 0.71397 0.4377 0.0
O239 O 0.84639 0.76999 0.49583 0.0
O240 O 0.87319 0.77304 0.32209 0.0
O241 O 0.91319 0.77744 0.28658 0.0
O242 O 0.80033 0.74155 0.43214 0.0
O243 O 0.84554 0.71034 0.48803 0.0
C244 C 0.93606 0.73933 0.391 0.0
C245 C 0.88797 0.7081 0.27913 0.0
C246 C 0.86857 0.7785 0.4836 0.0
C247 C 0.81348 0.74176 0.38746 0.0
C248 C 0.86804 0.7031 0.47518 0.0
C249 C 0.88994 0.78491 0.29222 0.0
O250 O 0.91364 0.74278 0.3719 0.0
O251 O 0.95358 0.74031 0.35399 0.0
O252 O 0.52532 0.61595 0.57278 0.0
Mn253 Mn 0.49707 0.62275 0.63404 0.0
O254 O 0.53833 0.65602 0.54781 0.0
Mn255 Mn 0.50769 0.67224 0.56332 0.0
O256 O 0.46937 0.63164 0.69333 0.0
O257 O 0.48987 0.58459 0.64541 0.0
Mn258 Mn 0.48517 0.58034 0.71647 0.0
O259 O 0.52543 0.62271 0.69346 0.0
O260 O 0.45379 0.59532 0.72978 0.0
O261 O 0.46908 0.62432 0.57232 0.0
O262 O 0.47982 0.65991 0.52339 0.0
O263 O 0.49279 0.54844 0.69057 0.0
O264 O 0.51179 0.59476 0.75634 0.0
C265 C 0.49993 0.68281 0.64696 0.0
C266 C 0.54073 0.63148 0.54706 0.0
C267 C 0.45303 0.61965 0.72338 0.0
C268 C 0.49739 0.56074 0.64572 0.0
C269 C 0.52758 0.61175 0.73987 0.0
C270 C 0.46589 0.63993 0.53191 0.0
O271 O 0.50236 0.66009 0.62786 0.0
O272 O 0.50378 0.70041 0.61074 0.0
O273 O 0.96496 0.36792 0.07142 0.0
Mn274 Mn -0.00606 0.36152 0.13094 0.0
O275 O 0.96487 0.3313 0.0201 0.0
Mn276 Mn -0.00834 0.31348 0.05195 0.0
O277 O 0.02239 0.35153 0.18861 0.0
O278 O -0.00409 0.40075 0.14597 0.0
Mn279 Mn 0.0066 0.39968 0.21489 0.0
O280 O 0.96635 0.3579 0.1912 0.0
O281 O 0.03946 0.38736 0.21999 0.0
O282 O 0.02242 0.3641 0.06975 0.0
O283 O 0.02395 0.32437 0.03095 0.0
O284 O 0.00347 0.43341 0.20389 0.0
O285 O 0.98263 0.38282 0.25764 0.0
C286 C 0.98541 0.30136 0.13499 0.0
C287 C 0.95625 0.35369 0.03196 0.0
C288 C 0.04015 0.36321 0.21522 0.0
C289 C -0.00286 0.4257 0.1554 0.0
C290 C 0.96657 0.36616 0.24034 0.0
C291 C 0.03269 0.34721 0.03767 0.0
O292 O 0.9906 0.32413 0.11878 0.0
O293 O 0.98498 0.2847 0.09589 0.0
O294 O 0.52668 0.3682 0.44355 0.0
Mn295 Mn 0.4975 0.36269 0.3839 0.0
O296 O 0.53048 0.3295 0.48624 0.0
Mn297 Mn 0.50175 0.31335 0.45799 0.0
O298 O 0.46881 0.35482 0.32615 0.0
O299 O 0.4956 0.40147 0.37208 0.0
Mn300 Mn 0.48517 0.40532 0.30399 0.0
O301 O 0.52429 0.36064 0.32142 0.0
O302 O 0.45275 0.3917 0.29614 0.0
O303 O 0.4696 0.36402 0.44611 0.0
O304 O 0.47083 0.3247 0.48669 0.0
O305 O 0.48942 0.43806 0.32832 0.0
O306 O 0.51016 0.39006 0.26086 0.0
C307 C 0.50245 0.30199 0.37337 0.0
C308 C 0.53738 0.35289 0.47861 0.0
C309 C 0.45176 0.36739 0.29943 0.0
C310 C 0.49661 0.42654 0.37261 0.0
C311 C 0.52517 0.37165 0.27455 0.0
C312 C 0.46095 0.34708 0.4801 0.0
O313 O 0.50048 0.32495 0.3918 0.0
O314 O 0.50423 0.28488 0.41138 0.0
O315 O 0.96601 0.62097 0.94519 0.0
Mn316 Mn -0.00478 0.62446 0.88593 0.0
O317 O 0.96865 0.65729 0.99643 0.0
Mn318 Mn -0.00321 0.67278 0.96394 0.0
O319 O 0.02427 0.62904 0.82664 0.0
O320 O -0.00619 0.58528 0.87307 0.0
Mn321 Mn 0.99023 0.58304 0.80137 0.0
O322 O 0.96732 0.63193 0.82713 0.0
O323 O 0.01879 0.5964 0.76787 0.0
O324 O 0.02399 0.62 0.94722 0.0
O325 O 0.02827 0.65984 0.98527 0.0
O326 O 0.99105 0.54992 0.82115 0.0
O327 O 0.95921 0.59634 0.77957 0.0
C328 C 0.99056 0.68493 0.88077 0.0
C329 C 0.95824 0.63571 0.98428 0.0
C330 C 0.0307 0.61654 0.78338 0.0
C331 C -0.00695 0.56007 0.86927 0.0
C332 C 0.95415 0.61946 0.79187 0.0
C333 C 0.03558 0.63647 0.97885 0.0
O334 O -0.00425 0.66211 0.89689 0.0
O335 O 0.99106 0.70164 0.91979 0.0
H336 H 0.09213 0.13692 0.04338 0.0
H337 H 0.02759 0.12026 0.93927 0.0
H338 H 0.11957 0.14259 0.96349 0.0
H339 H 0.05443 0.12661 0.85957 0.0
H340 H 0.12866 0.20523 0.82208 0.0
H341 H 0.11913 0.17925 0.90192 0.0
H342 H 0.08994 0.11843 0.79846 0.0
H343 H 0.09893 0.145 0.71872 0.0
C344 C 0.08417 0.13305 1.00345 0.0
C345 C 0.05784 0.12762 0.99762 0.0
C346 C 0.09976 0.13678 0.95755 0.0
C347 C 0.08924 0.13551 0.90478 0.0
C348 C 0.06347 0.12743 0.89924 0.0
C349 C 0.048 0.12352 0.94511 0.0
C350 C 0.12187 0.18561 0.81619 0.0
C351 C 0.1147 0.17713 0.76403 0.0
C352 C 0.11604 0.17072 0.86222 0.0
C353 C 0.10307 0.1469 0.85694 0.0
C354 C 0.09937 0.13689 0.80423 0.0
C355 C 0.10506 0.15189 0.75831 0.0
H356 H 0.12448 0.78117 0.19165 0.0
H357 H 0.09047 0.83621 0.3011 0.0
H358 H 0.11572 0.80942 0.11554 0.0
H359 H 0.08314 0.8658 0.22556 0.0
H360 H 0.02331 0.8717 0.08528 0.0
H361 H 0.05093 0.8647 0.16294 0.0
H362 H 0.11287 0.8428 0.0552 0.0
H363 H 0.08404 0.84835 0.97752 0.0
C364 C 0.11673 0.8002 0.19983 0.0
C365 C 0.10819 0.80649 0.25222 0.0
C366 C 0.11146 0.81656 0.15587 0.0
C367 C 0.09773 0.83979 0.16348 0.0
C368 C 0.0928 0.84771 0.21739 0.0
C369 C 0.09756 0.83103 0.26116 0.0
C370 C 0.04325 0.86671 0.07814 0.0
C371 C 0.05155 0.86068 0.02546 0.0
C372 C 0.05929 0.86251 0.12297 0.0
C373 C 0.08423 0.85231 0.11617 0.0
C374 C 0.0936 0.84976 0.06258 0.0
C375 C 0.07728 0.85352 0.01772 0.0
H376 H 0.39306 0.83941 0.22388 0.0
H377 H 0.3661 0.78013 0.33224 0.0
H378 H 0.4009 0.86801 0.30133 0.0
H379 H 0.3747 0.80794 0.40981 0.0
H380 H 0.4615 0.87577 0.44361 0.0
H381 H 0.43514 0.86653 0.36438 0.0
H382 H 0.37259 0.84379 0.46923 0.0
H383 H 0.39977 0.85208 0.54852 0.0
C384 C 0.38741 0.83304 0.26408 0.0
C385 C 0.37849 0.80768 0.2718 0.0
C386 C 0.39246 0.84922 0.30878 0.0
C387 C 0.38911 0.84025 0.36242 0.0
C388 C 0.37742 0.81588 0.36952 0.0
C389 C 0.37216 0.79985 0.32477 0.0
C390 C 0.44158 0.8704 0.44981 0.0
C391 C 0.4327 0.86493 0.50246 0.0
C392 C 0.42638 0.86474 0.40408 0.0
C393 C 0.40174 0.85367 0.40988 0.0
C394 C 0.39165 0.8516 0.46286 0.0
C395 C 0.40703 0.85697 0.50857 0.0
H396 H 0.36424 0.20891 0.69071 0.0
H397 H 0.39451 0.1507 0.7978 0.0
H398 H 0.37454 0.18228 0.61263 0.0
H399 H 0.40353 0.12294 0.72003 0.0
H400 H 0.46533 0.11689 0.58409 0.0
H401 H 0.43723 0.12501 0.66044 0.0
H402 H 0.3773 0.14939 0.54968 0.0
H403 H 0.40652 0.14238 0.4733 0.0
C404 C 0.3714 0.18954 0.69774 0.0
C405 C 0.37839 0.18188 0.75045 0.0
C406 C 0.37764 0.17417 0.65263 0.0
C407 C 0.39081 0.15055 0.65925 0.0
C408 C 0.39428 0.14133 0.71274 0.0
C409 C 0.38846 0.15696 0.75773 0.0
C410 C 0.44568 0.12267 0.57595 0.0
C411 C 0.43804 0.12865 0.52269 0.0
C412 C 0.42939 0.12754 0.62001 0.0
C413 C 0.40485 0.1385 0.61204 0.0
C414 C 0.3962 0.14163 0.55796 0.0
C415 C 0.41273 0.13703 0.51383 0.0
H416 H 0.86521 0.77898 0.19705 0.0
H417 H 0.90083 0.83622 0.29946 0.0
H418 H 0.87341 0.80531 0.11792 0.0
H419 H 0.90724 0.86416 0.221 0.0
H420 H 0.96359 0.87183 0.07686 0.0
H421 H 0.9375 0.86446 0.15638 0.0
H422 H 0.87594 0.83595 0.05369 0.0
H423 H 0.90356 0.84145 0.97451 0.0
C424 C 0.8732 0.79813 0.203 0.0
C425 C 0.8823 0.80557 0.25437 0.0
C426 C 0.87817 0.81341 0.15722 0.0
C427 C 0.89202 0.83681 0.16188 0.0
C428 C 0.8976 0.84587 0.21481 0.0
C429 C 0.89329 0.83017 0.26035 0.0
C430 C 0.944 0.86519 0.07117 0.0
C431 C 0.93556 0.85739 0.01953 0.0
C432 C 0.92882 0.86075 0.11716 0.0
C433 C 0.90453 0.84871 0.1126 0.0
C434 C 0.89483 0.84424 0.05971 0.0
C435 C 0.91039 0.84802 0.01383 0.0
H436 H 0.85866 0.20632 0.80448 0.0
H437 H 0.91379 0.15477 0.73209 0.0
H438 H 0.86523 0.18549 0.89249 0.0
H439 H 0.92105 0.13442 0.8195 0.0
H440 H 0.94571 0.10975 0.98095 0.0
H441 H 0.9157 0.11336 0.90409 0.0
H442 H 0.90136 0.19301 0.9475 0.0
H443 H 0.93036 0.189 0.02383 0.0
C444 C 0.87107 0.18955 0.80668 0.0
C445 C 0.8859 0.18232 0.76156 0.0
C446 C 0.87528 0.17789 0.85745 0.0
C447 C 0.89448 0.15887 0.86393 0.0
C448 C 0.90626 0.14904 0.81677 0.0
C449 C 0.90202 0.16067 0.76621 0.0
C450 C 0.93524 0.12761 0.97513 0.0
C451 C 0.94061 0.14919 1.00793 0.0
C452 C 0.91824 0.12983 0.93075 0.0
C453 C 0.90628 0.15364 0.91857 0.0
C454 C 0.9098 0.17426 0.95518 0.0
C455 C 0.92671 0.17205 0.99904 0.0
H456 H 0.58277 0.15352 0.80014 0.0
H457 H 0.62287 0.20717 0.69713 0.0
H458 H 0.57646 0.12448 0.72317 0.0
H459 H 0.61505 0.17965 0.61923 0.0
H460 H 0.58684 0.14176 0.47584 0.0
H461 H 0.61285 0.1474 0.55771 0.0
H462 H 0.54749 0.12453 0.6552 0.0
H463 H 0.52289 0.11689 0.57334 0.0
C464 C 0.59123 0.15853 0.76133 0.0
C465 C 0.60351 0.18247 0.75467 0.0
C466 C 0.58706 0.14219 0.71661 0.0
C467 C 0.59417 0.14991 0.66368 0.0
C468 C 0.60911 0.1726 0.65863 0.0
C469 C 0.61382 0.18856 0.70366 0.0
C470 C 0.57874 0.13642 0.5148 0.0
C471 C 0.55296 0.12862 0.51826 0.0
C472 C 0.59341 0.14029 0.56212 0.0
C473 C 0.58223 0.13754 0.61409 0.0
C474 C 0.55724 0.12691 0.61676 0.0
C475 C 0.54294 0.12231 0.56942 0.0
H476 H 0.52927 0.87177 0.44253 0.0
H477 H 0.57746 0.82981 0.55393 0.0
H478 H 0.55845 0.86203 0.36874 0.0
H479 H 0.60799 0.82116 0.48106 0.0
H480 H 0.61678 0.76692 0.33195 0.0
H481 H 0.60829 0.79192 0.41282 0.0
H482 H 0.59308 0.85909 0.31321 0.0
H483 H 0.59958 0.83281 0.23186 0.0
C484 C 0.54703 0.86178 0.45176 0.0
C485 C 0.55124 0.85181 0.50396 0.0
C486 C 0.56394 0.856 0.40922 0.0
C487 C 0.5856 0.84009 0.41786 0.0
C488 C 0.59124 0.83274 0.47187 0.0
C489 C 0.57403 0.83818 0.5142 0.0
C490 C 0.61295 0.7874 0.3275 0.0
C491 C 0.60888 0.7979 0.27564 0.0
C492 C 0.60785 0.80193 0.37425 0.0
C493 C 0.59896 0.8276 0.3703 0.0
C494 C 0.59877 0.83914 0.31827 0.0
C495 C 0.60319 0.8243 0.27137 0.0
H496 H 0.62246 0.70559 0.32409 0.0
H497 H 0.58162 0.65288 0.21961 0.0
H498 H 0.61553 0.67709 0.40085 0.0
H499 H 0.57586 0.62312 0.29546 0.0
H500 H 0.52599 0.6122 0.45051 0.0
H501 H 0.54806 0.62214 0.36665 0.0
H502 H 0.61626 0.64251 0.45813 0.0
H503 H 0.59297 0.63435 0.54231 0.0
C504 C 0.61342 0.68702 0.3169 0.0
C505 C 0.60292 0.68131 0.26571 0.0
C506 C 0.60921 0.67053 0.36124 0.0
C507 C 0.59447 0.64773 0.35543 0.0
C508 C 0.58659 0.64073 0.30247 0.0
C509 C 0.59042 0.65751 0.2584 0.0
C510 C 0.54617 0.61733 0.45255 0.0
C511 C 0.55773 0.62234 0.5031 0.0
C512 C 0.55896 0.6234 0.40405 0.0
C513 C 0.58395 0.6341 0.40484 0.0
C514 C 0.59676 0.63533 0.45542 0.0
C515 C 0.58367 0.62991 0.50396 0.0
H516 H 0.59035 0.33267 0.79706 0.0
H517 H 0.62439 0.27821 0.68641 0.0
H518 H 0.58368 0.36298 0.72248 0.0
H519 H 0.6167 0.30744 0.61123 0.0
H520 H 0.58961 0.34963 0.47363 0.0
H521 H 0.61643 0.34215 0.55363 0.0
H522 H 0.55272 0.36404 0.65645 0.0
H523 H 0.52712 0.37313 0.57658 0.0
C524 C 0.5976 0.32774 0.7571 0.0
C525 C 0.60819 0.30321 0.74763 0.0
C526 C 0.59323 0.34488 0.71385 0.0
C527 C 0.59876 0.33759 0.65981 0.0
C528 C 0.61211 0.31416 0.65172 0.0
C529 C 0.61676 0.29723 0.69511 0.0
C530 C 0.58208 0.35453 0.51336 0.0
C531 C 0.55635 0.36221 0.51879 0.0
C532 C 0.59721 0.34956 0.55955 0.0
C533 C 0.58664 0.35137 0.61224 0.0
C534 C 0.56192 0.3623 0.61722 0.0
C535 C 0.54709 0.36783 0.57105 0.0
H536 H 0.90542 0.34563 0.04745 0.0
H537 H 0.96016 0.37615 0.93339 0.0
H538 H 0.87643 0.3347 0.97279 0.0
H539 H 0.932 0.3645 0.85848 0.0
H540 H 0.88909 0.33055 0.72492 0.0
H541 H 0.89629 0.36079 0.80014 0.0
H542 H 0.8808 0.29933 0.91444 0.0
H543 H 0.87286 0.26994 0.83952 0.0
C544 C 0.91054 0.35154 1.00661 0.0
C545 C 0.93498 0.36198 0.99638 0.0
C546 C 0.8942 0.34464 0.96346 0.0
C547 C 0.90209 0.34781 0.90904 0.0
C548 C 0.925 0.36164 0.89945 0.0
C549 C 0.94119 0.36869 0.94268 0.0
C550 C 0.88572 0.32407 0.76618 0.0
C551 C 0.88005 0.29801 0.77641 0.0
C552 C 0.89037 0.34124 0.80947 0.0
C553 C 0.88973 0.33258 0.86387 0.0
C554 C 0.8813 0.3071 0.87362 0.0
C555 C 0.87657 0.29009 0.83046 0.0
H556 H 0.88911 0.65556 0.28874 0.0
H557 H 0.87223 0.71724 0.17711 0.0
H558 H 0.89535 0.62597 0.21222 0.0
H559 H 0.87959 0.68866 0.10089 0.0
H560 H 0.90777 0.64599 0.96667 0.0
H561 H 0.87726 0.65495 0.03954 0.0
H562 H 0.93078 0.62264 0.15576 0.0
H563 H 0.96024 0.61276 0.0825 0.0
C564 C 0.88546 0.66243 0.24785 0.0
C565 C 0.87999 0.6886 0.23874 0.0
C566 C 0.88955 0.64564 0.20377 0.0
C567 C 0.88884 0.6549 0.1498 0.0
C568 C 0.88029 0.68042 0.14128 0.0
C569 C 0.87592 0.697 0.18522 0.0
C570 C 0.91215 0.6393 1.00739 0.0
C571 C 0.9363 0.62855 0.01896 0.0
C572 C 0.89491 0.64496 0.04956 0.0
C573 C 0.90178 0.64052 0.1043 0.0
C574 C 0.92452 0.62653 0.11459 0.0
C575 C 0.94155 0.62063 0.07234 0.0
H576 H 0.40954 0.33805 0.47029 0.0
H577 H 0.46725 0.36791 0.57917 0.0
H578 H 0.38034 0.33174 0.54676 0.0
H579 H 0.43939 0.36008 0.65597 0.0
H580 H 0.39952 0.33131 0.79445 0.0
H581 H 0.4067 0.35981 0.71688 0.0
H582 H 0.37875 0.29966 0.60942 0.0
H583 H 0.37006 0.27254 0.68718 0.0
C584 C 0.41551 0.34432 0.51043 0.0
C585 C 0.4405 0.35369 0.51893 0.0
C586 C 0.39902 0.34019 0.55465 0.0
C587 C 0.40758 0.34443 0.60847 0.0
C588 C 0.43167 0.35653 0.61578 0.0
C589 C 0.44784 0.36117 0.57148 0.0
C590 C 0.3935 0.32499 0.75438 0.0
C591 C 0.38407 0.29986 0.74668 0.0
C592 C 0.39815 0.34106 0.70955 0.0
C593 C 0.39436 0.3319 0.656 0.0
C594 C 0.38203 0.3078 0.64936 0.0
C595 C 0.37688 0.29206 0.69423 0.0
H596 H 0.41324 0.6414 0.53939 0.0
H597 H 0.47569 0.62885 0.42787 0.0
H598 H 0.38386 0.64784 0.46235 0.0
H599 H 0.44727 0.63604 0.35157 0.0
H600 H 0.40364 0.65978 0.21674 0.0
H601 H 0.41347 0.63013 0.29101 0.0
H602 H 0.37943 0.6838 0.40475 0.0
H603 H 0.36858 0.7124 0.33001 0.0
C604 C 0.42039 0.6389 0.49838 0.0
C605 C 0.44663 0.63453 0.48934 0.0
C606 C 0.4037 0.64297 0.45415 0.0
C607 C 0.4131 0.64298 0.40029 0.0
C608 C 0.43894 0.63596 0.39186 0.0
C609 C 0.45543 0.63185 0.43579 0.0
C610 C 0.39681 0.66433 0.25723 0.0
C611 C 0.38525 0.68828 0.26771 0.0
C612 C 0.40289 0.6476 0.30013 0.0
C613 C 0.3982 0.6549 0.35449 0.0
C614 C 0.38349 0.67732 0.36381 0.0
C615 C 0.37708 0.6938 0.32077 0.0
H616 H 0.12327 0.71507 0.18209 0.0
H617 H 0.09801 0.65554 0.29163 0.0
H618 H 0.11514 0.68704 0.10523 0.0
H619 H 0.09119 0.62633 0.21483 0.0
H620 H 0.0306 0.61378 0.07676 0.0
H621 H 0.05817 0.6236 0.15353 0.0
H622 H 0.11554 0.65406 0.0438 0.0
H623 H 0.08674 0.64559 0.96745 0.0
C624 C 0.11763 0.69525 0.18988 0.0
C625 C 0.11151 0.68747 0.24294 0.0
C626 C 0.11271 0.67899 0.14546 0.0
C627 C 0.10167 0.65433 0.15293 0.0
C628 C 0.09885 0.64539 0.20684 0.0
C629 C 0.10339 0.66191 0.25127 0.0
C630 C 0.04971 0.62122 0.06885 0.0
C631 C 0.05652 0.62875 0.01602 0.0
C632 C 0.06565 0.62716 0.11323 0.0
C633 C 0.08903 0.64058 0.10577 0.0
C634 C 0.09737 0.64464 0.05186 0.0
C635 C 0.08114 0.63915 1.00763 0.0
H636 H 0.11601 0.2657 0.83802 0.0
H637 H 0.09479 0.326 0.72634 0.0
H638 H 0.10898 0.29427 0.91389 0.0
H639 H 0.08899 0.35589 0.80261 0.0
H640 H 0.02903 0.37127 0.94082 0.0
H641 H 0.05646 0.36116 0.86419 0.0
H642 H 0.11186 0.32694 0.97404 0.0
H643 H 0.08293 0.33519 0.04967 0.0
C644 C 0.11127 0.28571 0.82977 0.0
C645 C 0.10607 0.2937 0.77653 0.0
C646 C 0.10717 0.30235 0.87354 0.0
C647 C 0.0978 0.32761 0.86524 0.0
C648 C 0.09549 0.33646 0.81111 0.0
C649 C 0.0993 0.31953 0.76714 0.0
C650 C 0.0477 0.36278 0.94871 0.0
C651 C 0.05392 0.35407 1.0011 0.0
C652 C 0.06355 0.35676 0.90451 0.0
C653 C 0.08615 0.34213 0.91206 0.0
C654 C 0.09415 0.33717 0.96592 0.0
C655 C 0.07791 0.34253 0.00979 0.0
H656 H 0.94109 0.28498 0.18132 0.0
H657 H 0.02081 0.29992 0.21497 0.0
H658 H 0.93939 0.25489 0.25647 0.0
H659 H 0.01938 0.27094 0.29158 0.0
H660 H 0.03962 0.19923 0.24174 0.0
H661 H 0.0255 0.23045 0.30893 0.0
H662 H 0.94665 0.21403 0.26751 0.0
H663 H 0.96081 0.183 0.20076 0.0
C664 C 0.95802 0.2825 0.2065 0.0
C665 C 0.98136 0.29384 0.19158 0.0
C666 C 0.95729 0.26496 0.24964 0.0
C667 C 0.98042 0.25711 0.27507 0.0
C668 C 0.00174 0.27389 0.26923 0.0
C669 C 0.00261 0.29119 0.22575 0.0
C670 C 0.01921 0.20165 0.24867 0.0
C671 C 0.00128 0.18991 0.21409 0.0
C672 C 0.01092 0.21993 0.28667 0.0
C673 C 0.98519 0.22864 0.28465 0.0
C674 C 0.96708 0.21075 0.26395 0.0
C675 C 0.97512 0.19226 0.22622 0.0
H676 H 0.93866 0.77329 0.47574 0.0
H677 H 0.9469 0.69279 0.43546 0.0
H678 H 0.96958 0.76822 0.54938 0.0
H679 H 0.9773 0.68758 0.50905 0.0
H680 H 0.04876 0.69704 0.44339 0.0
H681 H 0.01882 0.69108 0.51794 0.0
H682 H 0.01038 0.77393 0.53058 0.0
H683 H 0.04101 0.77948 0.45785 0.0
C684 C 0.94647 0.75429 0.48395 0.0
C685 C 0.94209 0.73382 0.44787 0.0
C686 C 0.96445 0.7513 0.52591 0.0
C687 C 0.97984 0.72881 0.52726 0.0
C688 C 0.96884 0.70645 0.50361 0.0
C689 C 0.95114 0.70922 0.46132 0.0
C690 C 0.04106 0.71391 0.46372 0.0
C691 C 0.04587 0.73865 0.44341 0.0
C692 C 0.02359 0.71063 0.50626 0.0
C693 C 0.00869 0.73185 0.52392 0.0
C694 C 0.01896 0.7567 0.51373 0.0
C695 C 0.03675 0.76011 0.4719 0.0
H696 H 0.45357 0.70008 0.68005 0.0
H697 H 0.52934 0.68168 0.73812 0.0
H698 H 0.44931 0.7323 0.75044 0.0
H699 H 0.52506 0.71371 0.80986 0.0
H700 H 0.45726 0.80494 0.73492 0.0
H701 H 0.45807 0.77079 0.8032 0.0
H702 H 0.534 0.74921 0.74865 0.0
H703 H 0.53227 0.78209 0.68014 0.0
C704 C 0.46872 0.70185 0.71013 0.0
C705 C 0.49224 0.68929 0.70256 0.0
C706 C 0.46631 0.72028 0.75126 0.0
C707 C 0.4883 0.72772 0.78116 0.0
C708 C 0.50851 0.70969 0.78441 0.0
C709 C 0.51111 0.69128 0.74304 0.0
C710 C 0.4747 0.79395 0.74034 0.0
C711 C 0.4945 0.79574 0.70203 0.0
C712 C 0.47525 0.7743 0.77953 0.0
C713 C 0.49507 0.75576 0.7783 0.0
C714 C 0.51758 0.76203 0.74923 0.0
C715 C 0.51673 0.78102 0.70937 0.0
H716 H 0.53695 0.29529 0.93529 0.0
H717 H 0.55357 0.21665 0.97948 0.0
H718 H 0.50717 0.29864 1.00954 0.0
H719 H 0.52242 0.21937 0.05297 0.0
H720 H 0.4502 0.20246 0.96583 0.0
H721 H 0.48199 0.21025 0.03555 0.0
H722 H 0.46671 0.29215 0.026 0.0
H723 H 0.43635 0.28413 0.95284 0.0
C724 C 0.53482 0.27895 0.96244 0.0
C725 C 0.54637 0.25531 0.95021 0.0
C726 C 0.51732 0.28058 1.00508 0.0
C727 C 0.50871 0.25763 0.03027 0.0
C728 C 0.52594 0.23651 0.029 0.0
C729 C 0.54412 0.23491 0.98719 0.0
C730 C 0.45315 0.22207 0.98003 0.0
C731 C 0.44192 0.2428 0.9525 0.0
C732 C 0.47163 0.22677 0.02016 0.0
C733 C 0.48015 0.25233 0.02997 0.0
C734 C 0.46324 0.27233 0.01418 0.0
C735 C 0.44537 0.26781 0.97274 0.0
H736 H 0.9635 0.80825 0.79714 0.0
H737 H 0.04 0.78098 0.82915 0.0
H738 H 0.95861 0.77627 0.72528 0.0
H739 H 0.0353 0.7488 0.75902 0.0
H740 H 0.01988 0.67938 0.79051 0.0
H741 H 0.02044 0.71135 0.71785 0.0
H742 H 0.9471 0.73979 0.77391 0.0
H743 H 0.94713 0.70808 0.84545 0.0
C744 C 0.97985 0.79653 0.78634 0.0
C745 C 0.00161 0.79615 0.81989 0.0
C746 C 0.9771 0.77796 0.74528 0.0
C747 C -0.00488 0.75768 0.74188 0.0
C748 C 0.01977 0.76248 0.76392 0.0
C749 C 0.02264 0.78101 0.80471 0.0
C750 C 0.00341 0.69161 0.78503 0.0
C751 C 0.98429 0.69242 0.82484 0.0
C752 C 0.00355 0.71002 0.74337 0.0
C753 C 0.98553 0.73035 0.74462 0.0
C754 C 0.96271 0.72602 0.77437 0.0
C755 C 0.9626 0.70777 0.81602 0.0
H756 H 0.54662 0.70235 0.05752 0.0
H757 H 0.53846 0.78502 0.06329 0.0
H758 H 0.51576 0.70033 0.98303 0.0
H759 H 0.50843 0.78337 0.9886 0.0
H760 H 0.43832 0.78444 0.04148 0.0
H761 H 0.46762 0.77855 0.96523 0.0
H762 H 0.47475 0.69786 1.00609 0.0
H763 H 0.44561 0.70382 0.0813 0.0
C764 C 0.53897 0.72019 0.0412 0.0
C765 C 0.5437 0.74373 0.06749 0.0
C766 C 0.5211 0.71915 0.99859 0.0
C767 C 0.50619 0.74125 0.98644 0.0
C768 C 0.51688 0.76533 1.00154 0.0
C769 C 0.53428 0.7665 0.04462 0.0
C770 C 0.44555 0.76527 0.03267 0.0
C771 C 0.44134 0.74489 0.06893 0.0
C772 C 0.46249 0.76178 0.9891 0.0
C773 C 0.47728 0.7389 0.9864 0.0
C774 C 0.46659 0.71687 0.01162 0.0
C775 C 0.44975 0.72012 0.05511 0.0
H776 H 0.44311 0.20341 0.34164 0.0
H777 H 0.51599 0.17778 0.28084 0.0
H778 H 0.44072 0.23535 0.27097 0.0
H779 H 0.51434 0.21045 0.20973 0.0
H780 H 0.53914 0.28054 0.31023 0.0
H781 H 0.52953 0.24818 0.24271 0.0
H782 H 0.4506 0.27401 0.23768 0.0
H783 H 0.4601 0.30479 0.30953 0.0
C784 C 0.4582 0.20393 0.31135 0.0
C785 C 0.48069 0.18961 0.31871 0.0
C786 C 0.45706 0.22249 0.27037 0.0
C787 C 0.47949 0.22832 0.2404 0.0
C788 C 0.49801 0.20849 0.23662 0.0
C789 C 0.49906 0.18957 0.27727 0.0
C790 C 0.51997 0.27994 0.29298 0.0
C791 C 0.50017 0.29446 0.31616 0.0
C792 C 0.51422 0.26125 0.25379 0.0
C793 C 0.4883 0.25605 0.2401 0.0
C794 C 0.47028 0.27564 0.25163 0.0
C795 C 0.47577 0.29379 0.29222 0.0
H796 H 0.03673 0.20799 0.54322 0.0
H797 H 0.05364 0.28642 0.58904 0.0
H798 H 0.00547 0.22299 0.478 0.0
H799 H 0.02353 0.30204 0.52138 0.0
H800 H 0.95059 0.30205 0.59753 0.0
H801 H 0.9828 0.30973 0.52908 0.0
H802 H 0.96642 0.23551 0.45744 0.0
H803 H 0.93343 0.22827 0.52571 0.0
C804 C 0.03447 0.22861 0.53734 0.0
C805 C 0.04662 0.24605 0.57238 0.0
C806 C 0.01628 0.23749 0.4999 0.0
C807 C 0.009 0.26384 0.4996 0.0
C808 C 0.02617 0.28141 0.52469 0.0
C809 C 0.04389 0.27255 0.56315 0.0
C810 C 0.95318 0.2878 0.56568 0.0
C811 C 0.94114 0.26368 0.56912 0.0
C812 C 0.97204 0.29192 0.52639 0.0
C813 C 0.98084 0.27072 0.49538 0.0
C814 C 0.96281 0.25066 0.48676 0.0
C815 C 0.94353 0.2465 0.52547 0.0
H816 H 0.98755 0.06926 0.0351 0.0
H817 H 0.04151 0.02999 0.13969 0.0
H818 H 0.98796 0.0324 0.9731 0.0
H819 H 0.04083 0.99271 0.0802 0.0
H820 H 0.03687 0.93117 0.94494 0.0
H821 H 0.04637 0.96939 0.99948 0.0
H822 H 0.96655 0.99227 0.98845 0.0
H823 H 0.95775 0.9548 0.93146 0.0
C824 C 0.00034 0.05325 0.04349 0.0
C825 C 0.01391 0.05191 0.09255 0.0
C826 C 0.00012 0.03188 1.00888 0.0
C827 C 0.01333 0.00915 0.02351 0.0
C828 C 0.03009 0.00968 0.06818 0.0
C829 C 0.03061 0.03113 0.10214 0.0
C830 C 0.02124 0.94382 0.95661 0.0
C831 C -0.00341 0.9402 0.935 0.0
C832 C 0.02672 0.96595 0.98685 0.0
C833 C 0.00742 0.9844 0.99626 0.0
C834 C 0.98209 0.979 0.97976 0.0
C835 C 0.97678 0.95715 0.94883 0.0
H836 H 0.21822 0.77955 0.40087 0.0
H837 H 0.17004 0.73629 0.29012 0.0
H838 H 0.2519 0.7815 0.33354 0.0
H839 H 0.20381 0.73904 0.22083 0.0
H840 H 0.28065 0.70779 0.16321 0.0
H841 H 0.24415 0.71521 0.22275 0.0
H842 H 0.26922 0.79412 0.24725 0.0
H843 H 0.30643 0.78609 0.18855 0.0
C844 C 0.21459 0.77115 0.36118 0.0
C845 C 0.19202 0.75708 0.35077 0.0
C846 C 0.23384 0.77248 0.32248 0.0
C847 C 0.23074 0.75981 0.27263 0.0
C848 C 0.20686 0.74835 0.25979 0.0
C849 C 0.18748 0.74698 0.2989 0.0
C850 C 0.27872 0.72641 0.18301 0.0
C851 C 0.29633 0.74625 0.17281 0.0
C852 C 0.25752 0.73091 0.21571 0.0
C853 C 0.25341 0.75548 0.23809 0.0
C854 C 0.27186 0.77503 0.2301 0.0
C855 C 0.29331 0.77039 0.19754 0.0
H856 H 0.5027 0.06536 0.48144 0.0
H857 H 0.45651 0.02059 0.36964 0.0
H858 H 0.49556 0.0325 0.55191 0.0
H859 H 0.44936 0.98808 0.43938 0.0
H860 H 0.48995 0.92223 0.54326 0.0
H861 H 0.48391 0.95734 0.47769 0.0
H862 H 0.46053 0.0084 0.60738 0.0
H863 H 0.4657 0.97353 0.67229 0.0
C864 C 0.49031 0.04903 0.47276 0.0
C865 C 0.48042 0.04513 0.42042 0.0
C866 C 0.48631 0.03022 0.51268 0.0
C867 C 0.47236 0.00759 0.50024 0.0
C868 C 0.46059 0.00508 0.44937 0.0
C869 C 0.46458 0.02373 0.40979 0.0
C870 C 0.48281 0.9407 0.55737 0.0
C871 C 0.47876 0.94526 0.61283 0.0
C872 C 0.47943 0.96079 0.52008 0.0
C873 C 0.47218 0.98559 0.53805 0.0
C874 C 0.46649 0.98957 0.59286 0.0
C875 C 0.46941 0.96951 0.62977 0.0
H876 H 0.30756 0.20286 0.82726 0.0
H877 H 0.27851 0.28028 0.84601 0.0
H878 H 0.27049 0.19191 0.76985 0.0
H879 H 0.24216 0.26999 0.78773 0.0
H880 H 0.16859 0.2461 0.72812 0.0
H881 H 0.20323 0.24507 0.79539 0.0
H882 H 0.24968 0.20004 0.68483 0.0
H883 H 0.21478 0.20002 0.61946 0.0
C884 C 0.29381 0.21777 0.81691 0.0
C885 C 0.29583 0.24245 0.83989 0.0
C886 C 0.2724 0.21145 0.78504 0.0
C887 C 0.25292 0.22983 0.776 0.0
C888 C 0.25625 0.25508 0.79575 0.0
C889 C 0.27741 0.26125 0.82772 0.0
C890 C 0.1857 0.23492 0.71956 0.0
C891 C 0.18946 0.22377 0.66834 0.0
C892 C 0.20572 0.23469 0.7575 0.0
C893 C 0.22959 0.22348 0.74418 0.0
C894 C 0.23173 0.20912 0.6961 0.0
C895 C 0.21169 0.20911 0.65863 0.0
H896 H 0.70158 0.20507 0.83539 0.0
H897 H 0.68366 0.28628 0.83038 0.0
H898 H 0.73984 0.21265 0.78089 0.0
H899 H 0.72253 0.29434 0.77729 0.0
H900 H 0.77912 0.28396 0.62928 0.0
H901 H 0.74345 0.28667 0.69217 0.0
H902 H 0.78161 0.23231 0.79851 0.0
H903 H 0.8171 0.22895 0.7336 0.0
C904 C 0.70534 0.22438 0.82033 0.0
C905 C 0.68966 0.24504 0.83562 0.0
C906 C 0.72764 0.22891 0.79091 0.0
C907 C 0.73471 0.25425 0.77696 0.0
C908 C 0.71772 0.27466 0.78816 0.0
C909 C 0.69523 0.27002 0.81732 0.0
C910 C 0.78036 0.27351 0.66738 0.0
C911 C 0.80025 0.25576 0.67652 0.0
C912 C 0.75989 0.27501 0.70331 0.0
C913 C 0.7593 0.25883 0.74889 0.0
C914 C 0.78127 0.24423 0.76234 0.0
C915 C 0.80177 0.24264 0.72599 0.0
H916 H 0.80231 0.77643 0.30884 0.0
H917 H 0.79285 0.69701 0.35742 0.0
H918 H 0.76482 0.77256 0.24894 0.0
H919 H 0.75505 0.69317 0.29965 0.0
H920 H 0.69929 0.69485 0.15229 0.0
H921 H 0.7374 0.69358 0.20963 0.0
H922 H 0.71892 0.7695 0.27175 0.0
H923 H 0.681 0.77082 0.21271 0.0
C924 C 0.79286 0.75787 0.30457 0.0
C925 C 0.8003 0.73691 0.33663 0.0
C926 C 0.77109 0.75579 0.27168 0.0
C927 C 0.7566 0.73281 0.27129 0.0
C928 C 0.76576 0.71112 0.29935 0.0
C929 C 0.78755 0.71319 0.33177 0.0
C930 C 0.70278 0.71065 0.18034 0.0
C931 C 0.68739 0.73281 0.17899 0.0
C932 C 0.72474 0.71011 0.2125 0.0
C933 C 0.73149 0.73179 0.24368 0.0
C934 C 0.71449 0.75287 0.24666 0.0
C935 C 0.69247 0.75338 0.21428 0.0
H936 H 0.46342 0.52689 0.6092 0.0
H937 H 0.5391 0.55763 0.57852 0.0
H938 H 0.47222 0.49038 0.5503 0.0
H939 H 0.548 0.52084 0.51761 0.0
H940 H 0.52366 0.47025 0.36058 0.0
H941 H 0.53003 0.50337 0.42906 0.0
H942 H 0.50134 0.45128 0.55204 0.0
H943 H 0.49452 0.4179 0.48245 0.0
C944 C 0.48169 0.52615 0.58811 0.0
C945 C 0.50043 0.54514 0.59705 0.0
C946 C 0.487 0.50493 0.55574 0.0
C947 C 0.51111 0.50238 0.53114 0.0
C948 C 0.52943 0.52223 0.53718 0.0
C949 C 0.52419 0.54347 0.5707 0.0
C950 C 0.51948 0.46557 0.4026 0.0
C951 C 0.50782 0.44198 0.41644 0.0
C952 C 0.52339 0.48448 0.4418 0.0
C953 C 0.51556 0.48004 0.4953 0.0
C954 C 0.50705 0.4552 0.51051 0.0
C955 C 0.50324 0.43611 0.47105 0.0
H956 H 0.97317 0.5679 0.971 0.0
H957 H 0.01289 0.51255 0.87006 0.0
H958 H 0.96744 0.53455 0.04081 0.0
H959 H 0.00784 0.47979 0.93916 0.0
H960 H 0.98151 0.4188 0.04937 0.0
H961 H 0.97576 0.45284 0.98133 0.0
H962 H -0.00609 0.51061 0.10273 0.0
H963 H -0.00149 0.4773 0.17015 0.0
C964 C 0.98111 0.54882 0.96445 0.0
C965 C -0.00648 0.54266 0.91572 0.0
C966 C 0.9776 0.5297 1.0038 0.0
C967 C 0.98667 0.50441 0.99469 0.0
C968 C -0.00016 0.49878 0.94656 0.0
C969 C 0.00317 0.51768 0.90749 0.0
C970 C 0.98379 0.4388 0.06141 0.0
C971 C 0.99093 0.44535 0.1146 0.0
C972 C 0.98056 0.45825 0.0227 0.0
C973 C 0.98473 0.48434 0.0368 0.0
C974 C 0.99031 0.49079 0.09074 0.0
C975 C -0.00672 0.47153 0.12923 0.0
H976 H 0.07996 0.11157 0.25502 0.0
H977 H 0.00973 0.14548 0.31459 0.0
H978 H 0.10411 0.13318 0.32876 0.0
H979 H 0.03346 0.16707 0.38702 0.0
H980 H 0.08807 0.22721 0.45503 0.0
H981 H 0.06666 0.20264 0.38402 0.0
H982 H 0.10579 0.13354 0.4373 0.0
H983 H 0.12726 0.15871 0.50979 0.0
C984 C 0.06986 0.12366 0.28389 0.0
C985 C 0.04323 0.12709 0.27981 0.0
C986 C 0.0835 0.13575 0.32603 0.0
C987 C 0.07054 0.15168 0.36333 0.0
C988 C 0.04387 0.15493 0.3587 0.0
C989 C 0.03034 0.14262 0.31748 0.0
C990 C 0.09188 0.20678 0.4519 0.0
C991 C 0.10885 0.19467 0.48786 0.0
C992 C 0.07973 0.19272 0.41127 0.0
C993 C 0.08456 0.16623 0.40549 0.0
C994 C 0.1019 0.15401 0.44105 0.0
C995 C 0.11392 0.16821 0.48251 0.0
H996 H 0.12379 0.83284 0.50517 0.0
H997 H 0.0817 0.76422 0.54788 0.0
H998 H 0.10374 0.85604 0.58093 0.0
H999 H 0.06397 0.78555 0.62607 0.0
H1000 H 0.01767 0.8325 0.73837 0.0
H1001 H 0.03568 0.81285 0.65879 0.0
H1002 H 0.1023 0.86293 0.67232 0.0
H1003 H 0.08226 0.88435 0.75035 0.0
C1004 C 0.10996 0.82295 0.5306 0.0
C1005 C 0.10355 0.79712 0.5205 0.0
C1006 C 0.09886 0.83594 0.57466 0.0
C1007 C 0.08204 0.82286 0.61025 0.0
C1008 C 0.07595 0.79686 0.5992 0.0
C1009 C 0.08621 0.78439 0.55435 0.0
C1010 C 0.0365 0.83878 0.72517 0.0
C1011 C 0.04907 0.8592 0.75136 0.0
C1012 C 0.04696 0.82753 0.67915 0.0
C1013 C 0.07087 0.83579 0.65892 0.0
C1014 C 0.08373 0.85615 0.68595 0.0
C1015 C 0.07261 0.86814 0.73126 0.0
H1016 H 0.37563 0.83229 0.03444 0.0
H1017 H 0.38517 0.76371 0.93694 0.0
H1018 H 0.39456 0.85833 0.96116 0.0
H1019 H 0.40526 0.78896 0.86554 0.0
H1020 H 0.42393 0.83945 0.7263 0.0
H1021 H 0.39707 0.81965 0.79608 0.0
H1022 H 0.4348 0.86592 0.91909 0.0
H1023 H 0.46099 0.88597 0.84982 0.0
C1024 C 0.38199 0.82289 0.99747 0.0
C1025 C 0.37888 0.79621 0.9907 0.0
C1026 C 0.39282 0.83766 0.95559 0.0
C1027 C 0.40112 0.82579 0.90699 0.0
C1028 C 0.39834 0.79893 0.90136 0.0
C1029 C 0.38712 0.7844 0.9425 0.0
C1030 C 0.42622 0.84561 0.76815 0.0
C1031 C 0.44514 0.86372 0.78258 0.0
C1032 C 0.41093 0.83419 0.80823 0.0
C1033 C 0.41416 0.84078 0.86347 0.0
C1034 C 0.43172 0.86034 0.87714 0.0
C1035 C 0.44694 0.8717 0.83721 0.0
H1036 H 0.41346 0.13249 0.28541 0.0
H1037 H 0.47818 0.13064 0.1764 0.0
H1038 H 0.38706 0.15178 0.21383 0.0
H1039 H 0.45293 0.15177 0.10636 0.0
H1040 H 0.39933 0.17166 0.97192 0.0
H1041 H 0.42139 0.14706 0.04229 0.0
H1042 H 0.37872 0.18841 0.16567 0.0
H1043 H 0.35556 0.21125 0.09559 0.0
C1044 C 0.422 0.13653 0.24617 0.0
C1045 C 0.44754 0.12982 0.23571 0.0
C1046 C 0.40703 0.14774 0.20517 0.0
C1047 C 0.41767 0.15319 0.15363 0.0
C1048 C 0.44364 0.14711 0.14444 0.0
C1049 C 0.45826 0.13524 0.18476 0.0
C1050 C 0.39431 0.17496 0.01409 0.0
C1051 C 0.37557 0.19323 0.02808 0.0
C1052 C 0.4072 0.16115 0.05465 0.0
C1053 C 0.40217 0.16586 0.11015 0.0
C1054 C 0.38291 0.18373 0.12372 0.0
C1055 C 0.36961 0.19699 0.08326 0.0
H1056 H 0.87637 0.83077 0.48761 0.0
H1057 H 0.88913 0.7598 0.57484 0.0
H1058 H 0.89512 0.85514 0.5636 0.0
H1059 H 0.90911 0.78353 0.64929 0.0
H1060 H 0.92396 0.83357 0.79634 0.0
H1061 H 0.90037 0.81176 0.72314 0.0
H1062 H 0.93483 0.86336 0.60588 0.0
H1063 H 0.95755 0.88518 0.67808 0.0
C1064 C 0.88365 0.82047 0.52273 0.0
C1065 C 0.88175 0.79357 0.52558 0.0
C1066 C 0.89437 0.83428 0.56622 0.0
C1067 C 0.90354 0.8213 0.61287 0.0
C1068 C 0.9018 0.79425 0.61479 0.0
C1069 C 0.8908 0.78059 0.57178 0.0
C1070 C 0.92619 0.84033 0.75494 0.0
C1071 C 0.9427 0.86101 0.74315 0.0
C1072 C 0.91282 0.8278 0.71294 0.0
C1073 C 0.9158 0.83572 0.65841 0.0
C1074 C 0.93166 0.85696 0.64723 0.0
C1075 C 0.94478 0.86948 0.68896 0.0
H1076 H 0.9187 0.18528 0.53758 0.0
H1077 H 0.84603 0.1798 0.45268 0.0
H1078 H 0.94028 0.1664 0.4586 0.0
H1079 H 0.86746 0.16065 0.37501 0.0
H1080 H 0.91883 0.15841 0.22253 0.0
H1081 H 0.89826 0.17686 0.30377 0.0
H1082 H 0.94226 0.12525 0.40568 0.0
H1083 H 0.9626 0.10708 0.32502 0.0
C1084 C 0.9073 0.17981 0.50251 0.0
C1085 C 0.88072 0.18452 0.5013 0.0
C1086 C 0.91963 0.16897 0.45734 0.0
C1087 C 0.90558 0.1626 0.41018 0.0
C1088 C 0.87886 0.16597 0.41021 0.0
C1089 C 0.86656 0.17662 0.45525 0.0
C1090 C 0.92395 0.15113 0.26238 0.0
C1091 C 0.94188 0.13115 0.26779 0.0
C1092 C 0.91221 0.16153 0.30875 0.0
C1093 C 0.91857 0.15233 0.36106 0.0
C1094 C 0.93703 0.13279 0.3661 0.0
C1095 C 0.94844 0.12223 0.31994 0.0
H1096 H 0.62906 0.21475 0.08844 0.0
H1097 H 0.58356 0.16819 0.97868 0.0
H1098 H 0.61163 0.19195 0.16554 0.0
H1099 H 0.56518 0.14528 0.05728 0.0
H1100 H 0.55778 0.09265 0.20403 0.0
H1101 H 0.57722 0.11499 0.12775 0.0
H1102 H 0.57473 0.18657 0.21824 0.0
H1103 H 0.55708 0.16373 0.29625 0.0
C1104 C 0.6153 0.19942 0.08087 0.0
C1105 C 0.60807 0.1928 0.02751 0.0
C1106 C 0.60502 0.18656 0.1253 0.0
C1107 C 0.58708 0.16667 0.11786 0.0
C1108 C 0.57931 0.16029 0.06436 0.0
C1109 C 0.58961 0.17343 0.01941 0.0
C1110 C 0.56194 0.11305 0.20833 0.0
C1111 C 0.55514 0.12661 0.2559 0.0
C1112 C 0.57264 0.12595 0.16399 0.0
C1113 C 0.57685 0.1527 0.16606 0.0
C1114 C 0.57165 0.16594 0.21494 0.0
C1115 C 0.5613 0.15293 0.25963 0.0
H1116 H 0.54643 0.81897 0.73813 0.0
H1117 H 0.57168 0.89348 0.79523 0.0
H1118 H 0.56684 0.79845 0.8163 0.0
H1119 H 0.59163 0.87344 0.87361 0.0
H1120 H 0.64043 0.8258 0.99262 0.0
H1121 H 0.624 0.84679 0.9105 0.0
H1122 H 0.55888 0.79475 0.91036 0.0
H1123 H 0.57668 0.77289 0.98922 0.0
C1124 C 0.55643 0.83087 0.76716 0.0
C1125 C 0.55672 0.85776 0.76096 0.0
C1126 C 0.56802 0.81924 0.81228 0.0
C1127 C 0.58034 0.83437 0.85229 0.0
C1128 C 0.58232 0.86113 0.8439 0.0
C1129 C 0.57077 0.87265 0.79872 0.0
C1130 C 0.62229 0.81941 0.97558 0.0
C1131 C 0.60897 0.79862 0.99893 0.0
C1132 C 0.61289 0.83131 0.92844 0.0
C1133 C 0.59009 0.82247 0.9035 0.0
C1134 C 0.5766 0.802 0.92788 0.0
C1135 C 0.58615 0.79006 0.97452 0.0
H1136 H 0.53715 0.59333 0.84186 0.0
H1137 H 0.56253 0.65104 0.72666 0.0
H1138 H 0.56175 0.61455 0.91327 0.0
H1139 H 0.58635 0.67283 0.79936 0.0
H1140 H 0.58208 0.72087 0.96176 0.0
H1141 H 0.56469 0.69525 0.88646 0.0
H1142 H 0.60934 0.62962 0.93951 0.0
H1143 H 0.62702 0.65561 0.01476 0.0
C1144 C 0.54827 0.61031 0.83145 0.0
C1145 C 0.54712 0.62108 0.77894 0.0
C1146 C 0.56237 0.62238 0.87245 0.0
C1147 C 0.57536 0.6455 0.86178 0.0
C1148 C 0.57601 0.65518 0.80849 0.0
C1149 C 0.56236 0.64275 0.76707 0.0
C1150 C 0.58773 0.70081 0.9577 0.0
C1151 C 0.60527 0.68979 0.99415 0.0
C1152 C 0.57819 0.68637 0.91434 0.0
C1153 C 0.58603 0.66067 0.90712 0.0
C1154 C 0.60318 0.64946 0.94442 0.0
C1155 C 0.61306 0.66411 0.98742 0.0
H1156 H 0.53055 0.38902 0.17058 0.0
H1157 H 0.55869 0.33078 0.28178 0.0
H1158 H 0.55589 0.37036 0.09801 0.0
H1159 H 0.58385 0.31181 0.20829 0.0
H1160 H 0.64277 0.29685 0.07866 0.0
H1161 H 0.62056 0.32032 0.14984 0.0
H1162 H 0.55592 0.33203 0.04205 0.0
H1163 H 0.57887 0.30963 0.96957 0.0
C1164 C 0.54234 0.37236 0.17982 0.0
C1165 C 0.54268 0.3615 0.2323 0.0
C1166 C 0.5567 0.36153 0.13789 0.0
C1167 C 0.57184 0.33961 0.14729 0.0
C1168 C 0.57262 0.32896 0.19994 0.0
C1169 C 0.55817 0.33979 0.24205 0.0
C1170 C 0.62406 0.30489 0.06954 0.0
C1171 C 0.6123 0.30089 0.0186 0.0
C1172 C 0.61119 0.31805 0.11074 0.0
C1173 C 0.5863 0.32757 0.10202 0.0
C1174 C 0.57511 0.32492 0.05013 0.0
C1175 C 0.58812 0.31189 1.00871 0.0
H1176 H 0.98119 0.34859 0.33789 0.0
H1177 H 0.91496 0.35624 0.23335 0.0
H1178 H 0.95496 0.32867 0.40733 0.0
H1179 H 0.88774 0.33825 0.30514 0.0
H1180 H 0.85423 0.27802 0.42152 0.0
H1181 H 0.87723 0.30073 0.35107 0.0
H1182 H 0.92477 0.33755 0.47336 0.0
H1183 H 0.90248 0.3135 0.54402 0.0
C1184 C 0.96081 0.34627 0.33028 0.0
C1185 C 0.94993 0.35401 0.28075 0.0
C1186 C 0.94566 0.33519 0.37039 0.0
C1187 C 0.91906 0.33238 0.36261 0.0
C1188 C 0.90819 0.33997 0.3125 0.0
C1189 C 0.92363 0.35036 0.27147 0.0
C1190 C 0.86933 0.29127 0.43361 0.0
C1191 C 0.87677 0.29374 0.4884 0.0
C1192 C 0.8825 0.30443 0.39297 0.0
C1193 C 0.90314 0.32074 0.40622 0.0
C1194 C 0.90945 0.32454 0.46145 0.0
C1195 C 0.89654 0.31098 0.5021 0.0
H1196 H 0.97265 0.6563 0.72834 0.0
H1197 H 0.90369 0.61336 0.76309 0.0
H1198 H 0.95278 0.67495 0.64903 0.0
H1199 H 0.88233 0.63365 0.6852 0.0
H1200 H 0.85936 0.6538 0.51201 0.0
H1201 H 0.87973 0.63387 0.59159 0.0
H1202 H 0.92473 0.70352 0.61563 0.0
H1203 H 0.90625 0.72161 0.53434 0.0
C1204 C 0.95265 0.65195 0.72022 0.0
C1205 C 0.93934 0.63416 0.7523 0.0
C1206 C 0.94117 0.66252 0.67445 0.0
C1207 C 0.91575 0.656 0.66038 0.0
C1208 C 0.90207 0.63877 0.69401 0.0
C1209 C 0.914 0.62753 0.73917 0.0
C1210 C 0.87429 0.66418 0.53372 0.0
C1211 C 0.88207 0.68872 0.51651 0.0
C1212 C 0.88559 0.65313 0.57985 0.0
C1213 C 0.904 0.667 0.61042 0.0
C1214 C 0.91137 0.69172 0.59268 0.0
C1215 C 0.90081 0.7022 0.54589 0.0
H1216 H 0.40069 0.36985 0.2719 0.0
H1217 H 0.47351 0.33745 0.22402 0.0
H1218 H 0.38052 0.35094 0.1904 0.0
H1219 H 0.45381 0.31874 0.14347 0.0
H1220 H 0.40376 0.26526 0.04094 0.0
H1221 H 0.42326 0.2849 0.12077 0.0
H1222 H 0.38122 0.35534 0.08966 0.0
H1223 H 0.36189 0.33534 1.00846 0.0
C1224 C 0.41216 0.35824 0.2445 0.0
C1225 C 0.43827 0.35396 0.25526 0.0
C1226 C 0.4008 0.34774 0.19768 0.0
C1227 C 0.41557 0.33319 0.16081 0.0
C1228 C 0.44177 0.32931 0.17164 0.0
C1229 C 0.45299 0.33974 0.21811 0.0
C1230 C 0.39966 0.28534 0.04975 0.0
C1231 C 0.38261 0.29938 0.01699 0.0
C1232 C 0.41044 0.29646 0.09598 0.0
C1233 C 0.40397 0.32177 0.11122 0.0
C1234 C 0.38653 0.33578 0.07887 0.0
C1235 C 0.37577 0.32456 0.03218 0.0
H1236 H 0.40766 0.7249 0.98045 0.0
H1237 H 0.36485 0.65521 0.01179 0.0
H1238 H 0.42593 0.70574 0.89942 0.0
H1239 H 0.38393 0.63513 0.93114 0.0
H1240 H 0.40288 0.61505 0.75588 0.0
H1241 H 0.38323 0.63581 0.83522 0.0
H1242 H 0.45491 0.6755 0.86781 0.0
H1243 H 0.47364 0.65567 0.78815 0.0
C1244 C 0.40313 0.70496 0.97114 0.0
C1245 C 0.38578 0.69109 1.00339 0.0
C1246 C 0.41336 0.694 0.92428 0.0
C1247 C 0.40655 0.66877 0.9086 0.0
C1248 C 0.38937 0.65472 0.94151 0.0
C1249 C 0.3788 0.66594 0.98818 0.0
C1250 C 0.41399 0.6288 0.77945 0.0
C1251 C 0.43939 0.63458 0.76502 0.0
C1252 C 0.40297 0.64038 0.8253 0.0
C1253 C 0.41747 0.65735 0.85818 0.0
C1254 C 0.44286 0.66312 0.84299 0.0
C1255 C 0.4536 0.65195 0.79691 0.0
H1256 H 0.13195 0.65585 0.50898 0.0
H1257 H 0.08092 0.71954 0.54024 0.0
H1258 H 0.11455 0.63306 0.58855 0.0
H1259 H 0.0637 0.69724 0.61964 0.0
H1260 H 0.05913 0.66193 0.78978 0.0
H1261 H 0.08161 0.68276 0.71395 0.0
H1262 H 0.07117 0.61417 0.61653 0.0
H1263 H 0.04779 0.59399 0.69007 0.0
C1264 C 0.1166 0.66463 0.53218 0.0
C1265 C 0.10704 0.68898 0.51763 0.0
C1266 C 0.10687 0.65182 0.57789 0.0
C1267 C 0.08806 0.66359 0.61063 0.0
C1268 C 0.07844 0.68787 0.59562 0.0
C1269 C 0.08782 0.70037 0.54952 0.0
C1270 C 0.06141 0.65143 0.75206 0.0
C1271 C 0.05029 0.62689 0.74516 0.0
C1272 C 0.07445 0.66325 0.70886 0.0
C1273 C 0.07755 0.65023 0.65899 0.0
C1274 C 0.06889 0.62473 0.65427 0.0
C1275 C 0.0554 0.61323 0.6967 0.0
H1276 H 0.09096 0.36587 0.2448 0.0
H1277 H 0.01807 0.3326 0.28887 0.0
H1278 H 0.1102 0.34818 0.32805 0.0
H1279 H 0.03638 0.31584 0.372 0.0
H1280 H 0.08136 0.26689 0.48845 0.0
H1281 H 0.06327 0.28468 0.40642 0.0
H1282 H 0.11186 0.35208 0.4242 0.0
H1283 H 0.13086 0.33303 0.50639 0.0
C1284 C 0.07929 0.35419 0.27168 0.0
C1285 C 0.05341 0.34931 0.25916 0.0
C1286 C 0.09008 0.34449 0.31982 0.0
C1287 C 0.07494 0.33034 0.35684 0.0
C1288 C 0.04897 0.32584 0.34402 0.0
C1289 C 0.03844 0.33516 0.29587 0.0
C1290 C 0.08757 0.28585 0.47595 0.0
C1291 C 0.10682 0.29891 0.5049 0.0
C1292 C 0.07732 0.2961 0.42843 0.0
C1293 C 0.08589 0.32 0.40845 0.0
C1294 C 0.10496 0.33347 0.43795 0.0
C1295 C 0.11556 0.32284 0.48547 0.0
loop_
_geom_bond_atom_site_label_1
_geom_bond_atom_site_label_2
_geom_bond_distance
_geom_bond_site_symmetry_2
_ccdc_geom_bond_type
O0 Mn1 2.163 . S
O0 C14 1.244 . S
Mn1 O0 2.163 . S
Mn1 O4 2.160 1_455 S
Mn1 O5 2.220 1_455 S
Mn1 O7 2.163 . S
Mn1 O9 2.160 1_455 S
Mn1 O19 2.221 1_455 S
O2 Mn3 2.087 . S
O2 C14 1.256 . S
Mn3 O2 2.087 . S
Mn3 O10 2.089 1_455 S
Mn3 O19 2.289 1_455 S
Mn3 O20 2.251 . S
O4 Mn1 2.160 1_655 S
O4 C15 1.239 . S
O5 Mn1 2.220 1_655 S
O5 Mn6 2.288 1_655 S
O5 C16 1.268 1_655 S
Mn6 O5 2.288 1_455 S
Mn6 O8 2.089 1_455 S
Mn6 O11 2.251 . S
Mn6 O12 2.087 . S
O7 Mn1 2.163 . S
O7 C17 1.244 . S
O8 Mn6 2.089 1_655 S
O8 C15 1.256 . S
O9 Mn1 2.160 1_655 S
O9 C18 1.239 . S
O10 Mn3 2.089 1_655 S
O10 C18 1.256 . S
O11 Mn6 2.251 . S
O11 C16 1.241 . S
O12 Mn6 2.087 . S
O12 C17 1.256 . S
C13 O19 1.273 1_455 S
C13 O20 1.241 . S
C14 O0 1.244 . S
C14 O2 1.256 . S
C15 O4 1.239 . S
C15 O8 1.256 . S
C16 O5 1.268 1_455 S
C16 O11 1.241 . S
C17 O7 1.244 . S
C17 O12 1.256 . S
C18 O9 1.239 . S
C18 O10 1.256 . S
O19 Mn1 2.221 1_655 S
O19 Mn3 2.289 1_655 S
O19 C13 1.273 1_655 S
O20 Mn3 2.251 . S
O20 C13 1.241 . S
O21 Mn22 2.163 . S
O21 C35 1.244 . S
Mn22 O21 2.163 . S
Mn22 O25 2.160 . S
Mn22 O26 2.221 . S
Mn22 O28 2.163 . S
Mn22 O30 2.160 . S
Mn22 O40 2.221 . S
O23 Mn24 2.087 . S
O23 C35 1.256 . S
Mn24 O23 2.087 . S
Mn24 O31 2.089 . S
Mn24 O40 2.290 . S
Mn24 O41 2.251 . S
O25 Mn22 2.160 . S
O25 C36 1.239 . S
O26 Mn22 2.221 . S
O26 Mn27 2.290 . S
O26 C37 1.278 . S
Mn27 O26 2.290 . S
Mn27 O29 2.089 . S
Mn27 O32 2.251 . S
Mn27 O33 2.087 . S
O28 Mn22 2.163 . S
O28 C38 1.244 . S
O29 Mn27 2.089 . S
O29 C36 1.256 . S
O30 Mn22 2.160 . S
O30 C39 1.239 . S
O31 Mn24 2.089 . S
O31 C39 1.256 . S
O32 Mn27 2.251 . S
O32 C37 1.241 . S
O33 Mn27 2.087 . S
O33 C38 1.256 . S
C34 O40 1.278 . S
C34 O41 1.241 . S
C35 O21 1.244 . S
C35 O23 1.256 . S
C36 O25 1.239 . S
C36 O29 1.256 . S
C37 O26 1.278 . S
C37 O32 1.241 . S
C38 O28 1.244 . S
C38 O33 1.256 . S
C39 O30 1.239 . S
C39 O31 1.256 . S
O40 Mn22 2.221 . S
O40 Mn24 2.290 . S
O40 C34 1.278 . S
O41 Mn24 2.251 . S
O41 C34 1.241 . S
O42 Mn43 2.163 . S
O42 C56 1.244 . S
Mn43 O42 2.163 . S
Mn43 O46 2.160 . S
Mn43 O47 2.221 . S
Mn43 O49 2.163 . S
Mn43 O51 2.160 . S
Mn43 O61 2.221 . S
O44 Mn45 2.087 . S
O44 C56 1.256 . S
Mn45 O44 2.087 . S
Mn45 O52 2.089 . S
Mn45 O61 2.290 . S
Mn45 O62 2.251 . S
O46 Mn43 2.160 . S
O46 C57 1.239 . S
O47 Mn43 2.221 . S
O47 Mn48 2.290 . S
O47 C58 1.278 . S
Mn48 O47 2.290 . S
Mn48 O50 2.089 . S
Mn48 O53 2.251 . S
Mn48 O54 2.087 . S
O49 Mn43 2.163 . S
O49 C59 1.244 . S
O50 Mn48 2.089 . S
O50 C57 1.256 . S
O51 Mn43 2.160 . S
O51 C60 1.239 . S
O52 Mn45 2.089 . S
O52 C60 1.256 . S
O53 Mn48 2.251 . S
O53 C58 1.241 . S
O54 Mn48 2.087 . S
O54 C59 1.256 . S
C55 O61 1.278 . S
C55 O62 1.241 . S
C56 O42 1.244 . S
C56 O44 1.256 . S
C57 O46 1.239 . S
C57 O50 1.256 . S
C58 O47 1.278 . S
C58 O53 1.241 . S
C59 O49 1.244 . S
C59 O54 1.256 . S
C60 O51 1.239 . S
C60 O52 1.256 . S
O61 Mn43 2.221 . S
O61 Mn45 2.290 . S
O61 C55 1.278 . S
O62 Mn45 2.251 . S
O62 C55 1.241 . S
O63 Mn64 2.163 . S
O63 C77 1.244 . S
Mn64 O63 2.163 . S
Mn64 O67 2.160 . S
Mn64 O68 2.221 . S
Mn64 O70 2.163 . S
Mn64 O72 2.160 . S
Mn64 O82 2.221 . S
O65 Mn66 2.087 . S
O65 C77 1.256 . S
Mn66 O65 2.087 . S
Mn66 O73 2.089 . S
Mn66 O82 2.290 . S
Mn66 O83 2.251 . S
O67 Mn64 2.160 . S
O67 C78 1.239 . S
O68 Mn64 2.221 . S
O68 Mn69 2.290 . S
O68 C79 1.278 . S
Mn69 O68 2.290 . S
Mn69 O71 2.089 1_556 S
Mn69 O74 2.251 . S
Mn69 O75 2.087 . S
O70 Mn64 2.163 . S
O70 C80 1.244 . S
O71 Mn69 2.089 1_554 S
O71 C78 1.256 1_554 S
O72 Mn64 2.160 . S
O72 C81 1.239 . S
O73 Mn66 2.089 . S
O73 C81 1.256 . S
O74 Mn69 2.251 . S
O74 C79 1.241 . S
O75 Mn69 2.087 . S
O75 C80 1.256 . S
C76 O82 1.278 . S
C76 O83 1.241 . S
C77 O63 1.244 . S
C77 O65 1.256 . S
C78 O67 1.239 . S
C78 O71 1.256 1_556 S
C79 O68 1.278 . S
C79 O74 1.241 . S
C80 O70 1.244 . S
C80 O75 1.256 . S
C81 O72 1.239 . S
C81 O73 1.256 . S
O82 Mn64 2.221 . S
O82 Mn66 2.290 . S
O82 C76 1.278 . S
O83 Mn66 2.251 . S
O83 C76 1.241 . S
O84 Mn85 2.163 . S
O84 C98 1.244 . S
Mn85 O84 2.163 . S
Mn85 O88 2.160 1_455 S
Mn85 O89 2.220 1_455 S
Mn85 O91 2.163 . S
Mn85 O93 2.160 1_455 S
Mn85 O103 2.221 1_455 S
O86 Mn87 2.087 . S
O86 C98 1.256 . S
Mn87 O86 2.087 . S
Mn87 O94 2.089 1_455 S
Mn87 O103 2.289 1_455 S
Mn87 O104 2.251 . S
O88 Mn85 2.160 1_655 S
O88 C99 1.239 . S
O89 Mn85 2.220 1_655 S
O89 Mn90 2.288 1_655 S
O89 C100 1.268 1_655 S
Mn90 O89 2.288 1_455 S
Mn90 O92 2.089 1_455 S
Mn90 O95 2.251 . S
Mn90 O96 2.087 . S
O91 Mn85 2.163 . S
O91 C101 1.244 . S
O92 Mn90 2.089 1_655 S
O92 C99 1.256 . S
O93 Mn85 2.160 1_655 S
O93 C102 1.239 . S
O94 Mn87 2.089 1_655 S
O94 C102 1.256 . S
O95 Mn90 2.251 . S
O95 C100 1.241 . S
O96 Mn90 2.087 . S
O96 C101 1.256 . S
C97 O103 1.273 1_455 S
C97 O104 1.241 . S
C98 O84 1.244 . S
C98 O86 1.256 . S
C99 O88 1.239 . S
C99 O92 1.256 . S
C100 O89 1.268 1_455 S
C100 O95 1.241 . S
C101 O91 1.244 . S
C101 O96 1.256 . S
C102 O93 1.239 . S
C102 O94 1.256 . S
O103 Mn85 2.221 1_655 S
O103 Mn87 2.289 1_655 S
O103 C97 1.273 1_655 S
O104 Mn87 2.251 . S
O104 C97 1.241 . S
O105 Mn106 2.163 . S
O105 C119 1.244 . S
Mn106 O105 2.163 . S
Mn106 O109 2.160 . S
Mn106 O110 2.221 . S
Mn106 O112 2.163 . S
Mn106 O114 2.160 . S
Mn106 O124 2.221 . S
O107 Mn108 2.087 . S
O107 C119 1.256 . S
Mn108 O107 2.087 . S
Mn108 O115 2.089 . S
Mn108 O124 2.290 . S
Mn108 O125 2.251 . S
O109 Mn106 2.160 . S
O109 C120 1.239 . S
O110 Mn106 2.221 . S
O110 Mn111 2.290 . S
O110 C121 1.278 . S
Mn111 O110 2.290 . S
Mn111 O113 2.089 1_554 S
Mn111 O116 2.251 . S
Mn111 O117 2.087 . S
O112 Mn106 2.163 . S
O112 C122 1.244 . S
O113 Mn111 2.089 1_556 S
O113 C120 1.256 1_556 S
O114 Mn106 2.160 . S
O114 C123 1.239 . S
O115 Mn108 2.089 . S
O115 C123 1.256 . S
O116 Mn111 2.251 . S
O116 C121 1.241 . S
O117 Mn111 2.087 . S
O117 C122 1.256 . S
C118 O124 1.278 . S
C118 O125 1.241 . S
C119 O105 1.244 . S
C119 O107 1.256 . S
C120 O109 1.239 . S
C120 O113 1.256 1_554 S
C121 O110 1.278 . S
C121 O116 1.241 . S
C122 O112 1.244 . S
C122 O117 1.256 . S
C123 O114 1.239 . S
C123 O115 1.256 . S
O124 Mn106 2.221 . S
O124 Mn108 2.290 . S
O124 C118 1.278 . S
O125 Mn108 2.251 . S
O125 C118 1.241 . S
O126 Mn127 2.163 . S
O126 C140 1.244 . S
Mn127 O126 2.163 . S
Mn127 O130 2.160 . S
Mn127 O131 2.221 . S
Mn127 O133 2.163 . S
Mn127 O135 2.160 . S
Mn127 O145 2.221 . S
O128 Mn129 2.087 . S
O128 C140 1.256 . S
Mn129 O128 2.087 . S
Mn129 O136 2.089 . S
Mn129 O145 2.290 . S
Mn129 O146 2.251 . S
O130 Mn127 2.160 . S
O130 C141 1.239 . S
O131 Mn127 2.221 . S
O131 Mn132 2.290 . S
O131 C142 1.278 . S
Mn132 O131 2.290 . S
Mn132 O134 2.089 . S
Mn132 O137 2.251 . S
Mn132 O138 2.087 . S
O133 Mn127 2.163 . S
O133 C143 1.244 . S
O134 Mn132 2.089 . S
O134 C141 1.256 . S
O135 Mn127 2.160 . S
O135 C144 1.239 . S
O136 Mn129 2.089 . S
O136 C144 1.256 . S
O137 Mn132 2.251 . S
O137 C142 1.241 . S
O138 Mn132 2.087 . S
O138 C143 1.256 . S
C139 O145 1.278 . S
C139 O146 1.241 . S
C140 O126 1.244 . S
C140 O128 1.256 . S
C141 O130 1.239 . S
C141 O134 1.256 . S
C142 O131 1.278 . S
C142 O137 1.241 . S
C143 O133 1.244 . S
C143 O138 1.256 . S
C144 O135 1.239 . S
C144 O136 1.256 . S
O145 Mn127 2.221 . S
O145 Mn129 2.290 . S
O145 C139 1.278 . S
O146 Mn129 2.251 . S
O146 C139 1.241 . S
O147 Mn148 2.163 . S
O147 C161 1.244 . S
Mn148 O147 2.163 . S
Mn148 O151 2.160 . S
Mn148 O152 2.221 . S
Mn148 O154 2.163 . S
Mn148 O156 2.160 . S
Mn148 O166 2.221 . S
O149 Mn150 2.087 . S
O149 C161 1.256 . S
Mn150 O149 2.087 . S
Mn150 O157 2.089 . S
Mn150 O166 2.290 . S
Mn150 O167 2.251 . S
O151 Mn148 2.160 . S
O151 C162 1.239 . S
O152 Mn148 2.221 . S
O152 Mn153 2.290 . S
O152 C163 1.278 . S
Mn153 O152 2.290 . S
Mn153 O155 2.089 . S
Mn153 O158 2.251 . S
Mn153 O159 2.087 . S
O154 Mn148 2.163 . S
O154 C164 1.244 . S
O155 Mn153 2.089 . S
O155 C162 1.256 . S
O156 Mn148 2.160 . S
O156 C165 1.239 . S
O157 Mn150 2.089 . S
O157 C165 1.256 . S
O158 Mn153 2.251 . S
O158 C163 1.241 . S
O159 Mn153 2.087 . S
O159 C164 1.256 . S
C160 O166 1.278 . S
C160 O167 1.241 . S
C161 O147 1.244 . S
C161 O149 1.256 . S
C162 O151 1.239 . S
C162 O155 1.256 . S
C163 O152 1.278 . S
C163 O158 1.241 . S
C164 O154 1.244 . S
C164 O159 1.256 . S
C165 O156 1.239 . S
C165 O157 1.256 . S
O166 Mn148 2.221 . S
O166 Mn150 2.290 . S
O166 C160 1.278 . S
O167 Mn150 2.251 . S
O167 C160 1.241 . S
O168 Mn169 2.163 . S
O168 C182 1.244 . S
Mn169 O168 2.163 . S
Mn169 O172 2.160 . S
Mn169 O173 2.221 . S
Mn169 O175 2.163 . S
Mn169 O177 2.160 . S
Mn169 O187 2.221 . S
O170 Mn171 2.087 . S
O170 C182 1.256 . S
Mn171 O170 2.087 . S
Mn171 O178 2.089 . S
Mn171 O187 2.290 . S
Mn171 O188 2.251 . S
O172 Mn169 2.160 . S
O172 C183 1.239 . S
O173 Mn169 2.221 . S
O173 Mn174 2.290 . S
O173 C184 1.278 . S
Mn174 O173 2.290 . S
Mn174 O176 2.089 . S
Mn174 O179 2.251 . S
Mn174 O180 2.087 . S
O175 Mn169 2.163 . S
O175 C185 1.244 . S
O176 Mn174 2.089 . S
O176 C183 1.256 . S
O177 Mn169 2.160 . S
O177 C186 1.239 . S
O178 Mn171 2.089 . S
O178 C186 1.256 . S
O179 Mn174 2.251 . S
O179 C184 1.241 . S
O180 Mn174 2.087 . S
O180 C185 1.256 . S
C181 O187 1.278 . S
C181 O188 1.241 . S
C182 O168 1.244 . S
C182 O170 1.256 . S
C183 O172 1.239 . S
C183 O176 1.256 . S
C184 O173 1.278 . S
C184 O179 1.241 . S
C185 O175 1.244 . S
C185 O180 1.256 . S
C186 O177 1.239 . S
C186 O178 1.256 . S
O187 Mn169 2.221 . S
O187 Mn171 2.290 . S
O187 C181 1.278 . S
O188 Mn171 2.251 . S
O188 C181 1.241 . S
O189 Mn190 2.163 . S
O189 C203 1.244 . S
Mn190 O189 2.163 . S
Mn190 O193 2.160 . S
Mn190 O194 2.221 . S
Mn190 O196 2.163 . S
Mn190 O198 2.160 . S
Mn190 O208 2.221 . S
O191 Mn192 2.087 . S
O191 C203 1.256 . S
Mn192 O191 2.087 . S
Mn192 O199 2.089 1_554 S
Mn192 O208 2.290 . S
Mn192 O209 2.251 . S
O193 Mn190 2.160 . S
O193 C204 1.239 . S
O194 Mn190 2.221 . S
O194 Mn195 2.290 . S
O194 C205 1.278 . S
Mn195 O194 2.290 . S
Mn195 O197 2.089 . S
Mn195 O200 2.251 . S
Mn195 O201 2.087 . S
O196 Mn190 2.163 . S
O196 C206 1.244 . S
O197 Mn195 2.089 . S
O197 C204 1.256 . S
O198 Mn190 2.160 . S
O198 C207 1.239 . S
O199 Mn192 2.089 1_556 S
O199 C207 1.256 1_556 S
O200 Mn195 2.251 . S
O200 C205 1.241 . S
O201 Mn195 2.087 . S
O201 C206 1.256 . S
C202 O208 1.278 . S
C202 O209 1.241 . S
C203 O189 1.244 . S
C203 O191 1.256 . S
C204 O193 1.239 . S
C204 O197 1.256 . S
C205 O194 1.278 . S
C205 O200 1.241 . S
C206 O196 1.244 . S
C206 O201 1.256 . S
C207 O198 1.239 . S
C207 O199 1.256 1_554 S
O208 Mn190 2.221 . S
O208 Mn192 2.290 . S
O208 C202 1.278 . S
O209 Mn192 2.251 . S
O209 C202 1.241 . S
O210 Mn211 2.163 . S
O210 C224 1.244 . S
Mn211 O210 2.163 . S
Mn211 O214 2.160 . S
Mn211 O215 2.221 . S
Mn211 O217 2.163 . S
Mn211 O219 2.160 . S
Mn211 O229 2.221 . S
O212 Mn213 2.087 . S
O212 C224 1.256 . S
Mn213 O212 2.087 . S
Mn213 O220 2.089 1_556 S
Mn213 O229 2.290 . S
Mn213 O230 2.251 . S
O214 Mn211 2.160 . S
O214 C225 1.239 . S
O215 Mn211 2.221 . S
O215 Mn216 2.290 . S
O215 C226 1.278 . S
Mn216 O215 2.290 . S
Mn216 O218 2.089 . S
Mn216 O221 2.251 . S
Mn216 O222 2.087 . S
O217 Mn211 2.163 . S
O217 C227 1.244 . S
O218 Mn216 2.089 . S
O218 C225 1.256 . S
O219 Mn211 2.160 . S
O219 C228 1.239 . S
O220 Mn213 2.089 1_554 S
O220 C228 1.256 1_554 S
O221 Mn216 2.251 . S
O221 C226 1.241 . S
O222 Mn216 2.087 . S
O222 C227 1.256 . S
C223 O229 1.278 . S
C223 O230 1.241 . S
C224 O210 1.244 . S
C224 O212 1.256 . S
C225 O214 1.239 . S
C225 O218 1.256 . S
C226 O215 1.278 . S
C226 O221 1.241 . S
C227 O217 1.244 . S
C227 O222 1.256 . S
C228 O219 1.239 . S
C228 O220 1.256 1_556 S
O229 Mn211 2.221 . S
O229 Mn213 2.290 . S
O229 C223 1.278 . S
O230 Mn213 2.251 . S
O230 C223 1.241 . S
O231 Mn232 2.163 . S
O231 C245 1.244 . S
Mn232 O231 2.163 . S
Mn232 O235 2.160 . S
Mn232 O236 2.221 . S
Mn232 O238 2.163 . S
Mn232 O240 2.160 . S
Mn232 O250 2.221 . S
O233 Mn234 2.087 . S
O233 C245 1.256 . S
Mn234 O233 2.087 . S
Mn234 O241 2.089 . S
Mn234 O250 2.290 . S
Mn234 O251 2.251 . S
O235 Mn232 2.160 . S
O235 C246 1.239 . S
O236 Mn232 2.221 . S
O236 Mn237 2.290 . S
O236 C247 1.278 . S
Mn237 O236 2.290 . S
Mn237 O239 2.089 . S
Mn237 O242 2.251 . S
Mn237 O243 2.087 . S
O238 Mn232 2.163 . S
O238 C248 1.244 . S
O239 Mn237 2.089 . S
O239 C246 1.256 . S
O240 Mn232 2.160 . S
O240 C249 1.239 . S
O241 Mn234 2.089 . S
O241 C249 1.256 . S
O242 Mn237 2.251 . S
O242 C247 1.241 . S
O243 Mn237 2.087 . S
O243 C248 1.256 . S
C244 O250 1.278 . S
C244 O251 1.241 . S
C245 O231 1.244 . S
C245 O233 1.256 . S
C246 O235 1.239 . S
C246 O239 1.256 . S
C247 O236 1.278 . S
C247 O242 1.241 . S
C248 O238 1.244 . S
C248 O243 1.256 . S
C249 O240 1.239 . S
C249 O241 1.256 . S
O250 Mn232 2.221 . S
O250 Mn234 2.290 . S
O250 C244 1.278 . S
O251 Mn234 2.251 . S
O251 C244 1.241 . S
O252 Mn253 2.163 . S
O252 C266 1.244 . S
Mn253 O252 2.163 . S
Mn253 O256 2.160 . S
Mn253 O257 2.221 . S
Mn253 O259 2.163 . S
Mn253 O261 2.160 . S
Mn253 O271 2.221 . S
O254 Mn255 2.087 . S
O254 C266 1.256 . S
Mn255 O254 2.087 . S
Mn255 O262 2.089 . S
Mn255 O271 2.290 . S
Mn255 O272 2.251 . S
O256 Mn253 2.160 . S
O256 C267 1.239 . S
O257 Mn253 2.221 . S
O257 Mn258 2.290 . S
O257 C268 1.278 . S
Mn258 O257 2.290 . S
Mn258 O260 2.089 . S
Mn258 O263 2.251 . S
Mn258 O264 2.087 . S
O259 Mn253 2.163 . S
O259 C269 1.244 . S
O260 Mn258 2.089 . S
O260 C267 1.256 . S
O261 Mn253 2.160 . S
O261 C270 1.239 . S
O262 Mn255 2.089 . S
O262 C270 1.256 . S
O263 Mn258 2.251 . S
O263 C268 1.241 . S
O264 Mn258 2.087 . S
O264 C269 1.256 . S
C265 O271 1.278 . S
C265 O272 1.241 . S
C266 O252 1.244 . S
C266 O254 1.256 . S
C267 O256 1.239 . S
C267 O260 1.256 . S
C268 O257 1.278 . S
C268 O263 1.241 . S
C269 O259 1.244 . S
C269 O264 1.256 . S
C270 O261 1.239 . S
C270 O262 1.256 . S
O271 Mn253 2.221 . S
O271 Mn255 2.290 . S
O271 C265 1.278 . S
O272 Mn255 2.251 . S
O272 C265 1.241 . S
O273 Mn274 2.163 1_655 S
O273 C287 1.244 . S
Mn274 O273 2.163 1_455 S
Mn274 O277 2.160 . S
Mn274 O278 2.221 . S
Mn274 O280 2.163 1_455 S
Mn274 O282 2.160 . S
Mn274 O292 2.221 . S
O275 Mn276 2.087 1_655 S
O275 C287 1.256 . S
Mn276 O275 2.087 1_455 S
Mn276 O283 2.089 . S
Mn276 O292 2.290 . S
Mn276 O293 2.251 1_455 S
O277 Mn274 2.160 . S
O277 C288 1.239 . S
O278 Mn274 2.221 . S
O278 Mn279 2.290 . S
O278 C289 1.278 1_455 S
Mn279 O278 2.290 . S
Mn279 O281 2.089 . S
Mn279 O284 2.251 1_455 S
Mn279 O285 2.087 1_455 S
O280 Mn274 2.163 1_655 S
O280 C290 1.244 . S
O281 Mn279 2.089 . S
O281 C288 1.256 . S
O282 Mn274 2.160 . S
O282 C291 1.239 . S
O283 Mn276 2.089 . S
O283 C291 1.256 . S
O284 Mn279 2.251 1_655 S
O284 C289 1.241 . S
O285 Mn279 2.087 1_655 S
O285 C290 1.256 . S
C286 O292 1.278 1_655 S
C286 O293 1.241 . S
C287 O273 1.244 . S
C287 O275 1.256 . S
C288 O277 1.239 . S
C288 O281 1.256 . S
C289 O278 1.278 1_655 S
C289 O284 1.241 . S
C290 O280 1.244 . S
C290 O285 1.256 . S
C291 O282 1.239 . S
C291 O283 1.256 . S
O292 Mn274 2.221 . S
O292 Mn276 2.290 . S
O292 C286 1.278 1_455 S
O293 Mn276 2.251 1_655 S
O293 C286 1.241 . S
O294 Mn295 2.163 . S
O294 C308 1.244 . S
Mn295 O294 2.163 . S
Mn295 O298 2.160 . S
Mn295 O299 2.221 . S
Mn295 O301 2.163 . S
Mn295 O303 2.160 . S
Mn295 O313 2.221 . S
O296 Mn297 2.087 . S
O296 C308 1.256 . S
Mn297 O296 2.087 . S
Mn297 O304 2.089 . S
Mn297 O313 2.290 . S
Mn297 O314 2.251 . S
O298 Mn295 2.160 . S
O298 C309 1.239 . S
O299 Mn295 2.221 . S
O299 Mn300 2.290 . S
O299 C310 1.278 . S
Mn300 O299 2.290 . S
Mn300 O302 2.089 . S
Mn300 O305 2.251 . S
Mn300 O306 2.087 . S
O301 Mn295 2.163 . S
O301 C311 1.244 . S
O302 Mn300 2.089 . S
O302 C309 1.256 . S
O303 Mn295 2.160 . S
O303 C312 1.239 . S
O304 Mn297 2.089 . S
O304 C312 1.256 . S
O305 Mn300 2.251 . S
O305 C310 1.241 . S
O306 Mn300 2.087 . S
O306 C311 1.256 . S
C307 O313 1.278 . S
C307 O314 1.241 . S
C308 O294 1.244 . S
C308 O296 1.256 . S
C309 O298 1.239 . S
C309 O302 1.256 . S
C310 O299 1.278 . S
C310 O305 1.241 . S
C311 O301 1.244 . S
C311 O306 1.256 . S
C312 O303 1.239 . S
C312 O304 1.256 . S
O313 Mn295 2.221 . S
O313 Mn297 2.290 . S
O313 C307 1.278 . S
O314 Mn297 2.251 . S
O314 C307 1.241 . S
O315 Mn316 2.163 1_655 S
O315 C329 1.244 . S
Mn316 O315 2.163 1_455 S
Mn316 O319 2.160 . S
Mn316 O320 2.221 . S
Mn316 O322 2.163 1_455 S
Mn316 O324 2.160 . S
Mn316 O334 2.221 . S
O317 Mn318 2.087 1_655 S
O317 C329 1.256 . S
Mn318 O317 2.087 1_455 S
Mn318 O325 2.089 . S
Mn318 O334 2.290 . S
Mn318 O335 2.251 1_455 S
O319 Mn316 2.160 . S
O319 C330 1.239 . S
O320 Mn316 2.221 . S
O320 Mn321 2.290 . S
O320 C331 1.278 1_455 S
Mn321 O320 2.290 . S
Mn321 O323 2.089 . S
Mn321 O326 2.251 1_455 S
Mn321 O327 2.087 1_455 S
O322 Mn316 2.163 1_655 S
O322 C332 1.244 . S
O323 Mn321 2.089 . S
O323 C330 1.256 . S
O324 Mn316 2.160 . S
O324 C333 1.239 . S
O325 Mn318 2.089 . S
O325 C333 1.256 . S
O326 Mn321 2.251 1_655 S
O326 C331 1.241 . S
O327 Mn321 2.087 1_655 S
O327 C332 1.256 . S
C328 O334 1.278 1_655 S
C328 O335 1.241 . S
C329 O315 1.244 . S
C329 O317 1.256 . S
C330 O319 1.239 . S
C330 O323 1.256 . S
C331 O320 1.278 1_655 S
C331 O326 1.241 . S
C332 O322 1.244 . S
C332 O327 1.256 . S
C333 O324 1.239 . S
C333 O325 1.256 . S
O334 Mn316 2.221 . S
O334 Mn318 2.290 . S
O334 C328 1.278 1_455 S
O335 Mn318 2.251 1_655 S
O335 C328 1.241 . S
H336 C344 0.950 . S
H337 C349 0.950 . S
H338 C346 0.950 . S
H339 C348 0.950 . S
H340 C350 0.950 . S
H341 C352 0.950 . S
H342 C354 0.950 . S
H343 C355 0.950 . S
C344 H336 0.950 . S
C344 C345 1.386 . S
C344 C346 1.391 . S
C345 C344 1.386 . S
C345 C349 1.393 . S
C346 H338 0.950 . S
C346 C344 1.391 . S
C346 C347 1.400 . S
C347 C346 1.400 . S
C347 C348 1.398 . S
C347 C353 1.491 . S
C348 H339 0.950 . S
C348 C347 1.398 . S
C348 C349 1.391 . S
C349 H337 0.950 . S
C349 C345 1.393 . S
C349 C348 1.391 . S
C350 H340 0.950 . S
C350 C351 1.386 . S
C350 C352 1.391 . S
C351 C350 1.386 . S
C351 C355 1.393 . S
C352 H341 0.950 . S
C352 C350 1.391 . S
C352 C353 1.400 . S
C353 C347 1.491 . S
C353 C352 1.400 . S
C353 C354 1.398 . S
C354 H342 0.950 . S
C354 C353 1.398 . S
C354 C355 1.391 . S
C355 H343 0.950 . S
C355 C351 1.393 . S
C355 C354 1.391 . S
H356 C364 0.950 . S
H357 C369 0.950 . S
H358 C366 0.950 . S
H359 C368 0.950 . S
H360 C370 0.950 . S
H361 C372 0.950 . S
H362 C374 0.950 . S
H363 C375 0.950 1_556 S
C364 H356 0.950 . S
C364 C365 1.386 . S
C364 C366 1.391 . S
C365 C364 1.386 . S
C365 C369 1.393 . S
C366 H358 0.950 . S
C366 C364 1.391 . S
C366 C367 1.400 . S
C367 C366 1.400 . S
C367 C368 1.398 . S
C367 C373 1.491 . S
C368 H359 0.950 . S
C368 C367 1.398 . S
C368 C369 1.391 . S
C369 H357 0.950 . S
C369 C365 1.393 . S
C369 C368 1.391 . S
C370 H360 0.950 . S
C370 C371 1.386 . S
C370 C372 1.391 . S
C371 C370 1.386 . S
C371 C375 1.393 . S
C372 H361 0.950 . S
C372 C370 1.391 . S
C372 C373 1.400 . S
C373 C367 1.491 . S
C373 C372 1.400 . S
C373 C374 1.398 . S
C374 H362 0.950 . S
C374 C373 1.398 . S
C374 C375 1.391 . S
C375 H363 0.950 1_554 S
C375 C371 1.393 . S
C375 C374 1.391 . S
H376 C384 0.950 . S
H377 C389 0.950 . S
H378 C386 0.950 . S
H379 C388 0.950 . S
H380 C390 0.950 . S
H381 C392 0.950 . S
H382 C394 0.950 . S
H383 C395 0.950 . S
C384 H376 0.950 . S
C384 C385 1.386 . S
C384 C386 1.391 . S
C385 C384 1.386 . S
C385 C389 1.393 . S
C386 H378 0.950 . S
C386 C384 1.391 . S
C386 C387 1.400 . S
C387 C386 1.400 . S
C387 C388 1.398 . S
C387 C393 1.491 . S
C388 H379 0.950 . S
C388 C387 1.398 . S
C388 C389 1.391 . S
C389 H377 0.950 . S
C389 C385 1.393 . S
C389 C388 1.391 . S
C390 H380 0.950 . S
C390 C391 1.386 . S
C390 C392 1.391 . S
C391 C390 1.386 . S
C391 C395 1.393 . S
C392 H381 0.950 . S
C392 C390 1.391 . S
C392 C393 1.400 . S
C393 C387 1.491 . S
C393 C392 1.400 . S
C393 C394 1.398 . S
C394 H382 0.950 . S
C394 C393 1.398 . S
C394 C395 1.391 . S
C395 H383 0.950 . S
C395 C391 1.393 . S
C395 C394 1.391 . S
H396 C404 0.950 . S
H397 C409 0.950 . S
H398 C406 0.950 . S
H399 C408 0.950 . S
H400 C410 0.950 . S
H401 C412 0.950 . S
H402 C414 0.950 . S
H403 C415 0.950 . S
C404 H396 0.950 . S
C404 C405 1.386 . S
C404 C406 1.391 . S
C405 C404 1.386 . S
C405 C409 1.393 . S
C406 H398 0.950 . S
C406 C404 1.391 . S
C406 C407 1.400 . S
C407 C406 1.400 . S
C407 C408 1.398 . S
C407 C413 1.491 . S
C408 H399 0.950 . S
C408 C407 1.398 . S
C408 C409 1.391 . S
C409 H397 0.950 . S
C409 C405 1.393 . S
C409 C408 1.391 . S
C410 H400 0.950 . S
C410 C411 1.386 . S
C410 C412 1.391 . S
C411 C410 1.386 . S
C411 C415 1.393 . S
C412 H401 0.950 . S
C412 C410 1.391 . S
C412 C413 1.400 . S
C413 C407 1.491 . S
C413 C412 1.400 . S
C413 C414 1.398 . S
C414 H402 0.950 . S
C414 C413 1.398 . S
C414 C415 1.391 . S
C415 H403 0.950 . S
C415 C411 1.393 . S
C415 C414 1.391 . S
H416 C424 0.950 . S
H417 C429 0.950 . S
H418 C426 0.950 . S
H419 C428 0.950 . S
H420 C430 0.950 . S
H421 C432 0.950 . S
H422 C434 0.950 . S
H423 C435 0.950 1_556 S
C424 H416 0.950 . S
C424 C425 1.386 . S
C424 C426 1.391 . S
C425 C424 1.386 . S
C425 C429 1.393 . S
C426 H418 0.950 . S
C426 C424 1.391 . S
C426 C427 1.400 . S
C427 C426 1.400 . S
C427 C428 1.398 . S
C427 C433 1.491 . S
C428 H419 0.950 . S
C428 C427 1.398 . S
C428 C429 1.391 . S
C429 H417 0.950 . S
C429 C425 1.393 . S
C429 C428 1.391 . S
C430 H420 0.950 . S
C430 C431 1.386 . S
C430 C432 1.391 . S
C431 C430 1.386 . S
C431 C435 1.393 . S
C432 H421 0.950 . S
C432 C430 1.391 . S
C432 C433 1.400 . S
C433 C427 1.491 . S
C433 C432 1.400 . S
C433 C434 1.398 . S
C434 H422 0.950 . S
C434 C433 1.398 . S
C434 C435 1.391 . S
C435 H423 0.950 1_554 S
C435 C431 1.393 . S
C435 C434 1.391 . S
H436 C444 0.950 . S
H437 C449 0.950 . S
H438 C446 0.950 . S
H439 C448 0.950 . S
H440 C450 0.950 . S
H441 C452 0.950 . S
H442 C454 0.950 . S
H443 C455 0.950 . S
C444 H436 0.950 . S
C444 C445 1.386 . S
C444 C446 1.391 . S
C445 C444 1.386 . S
C445 C449 1.393 . S
C446 H438 0.950 . S
C446 C444 1.391 . S
C446 C447 1.400 . S
C447 C446 1.400 . S
C447 C448 1.398 . S
C447 C453 1.491 . S
C448 H439 0.950 . S
C448 C447 1.398 . S
C448 C449 1.391 . S
C449 H437 0.950 . S
C449 C445 1.393 . S
C449 C448 1.391 . S
C450 H440 0.950 . S
C450 C451 1.386 . S
C450 C452 1.391 . S
C451 C450 1.386 . S
C451 C455 1.393 . S
C452 H441 0.950 . S
C452 C450 1.391 . S
C452 C453 1.400 . S
C453 C447 1.491 . S
C453 C452 1.400 . S
C453 C454 1.398 . S
C454 H442 0.950 . S
C454 C453 1.398 . S
C454 C455 1.391 . S
C455 H443 0.950 . S
C455 C451 1.393 . S
C455 C454 1.391 . S
H456 C464 0.950 . S
H457 C469 0.950 . S
H458 C466 0.950 . S
H459 C468 0.950 . S
H460 C470 0.950 . S
H461 C472 0.950 . S
H462 C474 0.950 . S
H463 C475 0.950 . S
C464 H456 0.950 . S
C464 C465 1.386 . S
C464 C466 1.391 . S
C465 C464 1.386 . S
C465 C469 1.393 . S
C466 H458 0.950 . S
C466 C464 1.391 . S
C466 C467 1.400 . S
C467 C466 1.400 . S
C467 C468 1.398 . S
C467 C473 1.491 . S
C468 H459 0.950 . S
C468 C467 1.398 . S
C468 C469 1.391 . S
C469 H457 0.950 . S
C469 C465 1.393 . S
C469 C468 1.391 . S
C470 H460 0.950 . S
C470 C471 1.386 . S
C470 C472 1.391 . S
C471 C470 1.386 . S
C471 C475 1.393 . S
C472 H461 0.950 . S
C472 C470 1.391 . S
C472 C473 1.400 . S
C473 C467 1.491 . S
C473 C472 1.400 . S
C473 C474 1.398 . S
C474 H462 0.950 . S
C474 C473 1.398 . S
C474 C475 1.391 . S
C475 H463 0.950 . S
C475 C471 1.393 . S
C475 C474 1.391 . S
H476 C484 0.950 . S
H477 C489 0.950 . S
H478 C486 0.950 . S
H479 C488 0.950 . S
H480 C490 0.950 . S
H481 C492 0.950 . S
H482 C494 0.950 . S
H483 C495 0.950 . S
C484 H476 0.950 . S
C484 C485 1.386 . S
C484 C486 1.391 . S
C485 C484 1.386 . S
C485 C489 1.393 . S
C486 H478 0.950 . S
C486 C484 1.391 . S
C486 C487 1.400 . S
C487 C486 1.400 . S
C487 C488 1.398 . S
C487 C493 1.491 . S
C488 H479 0.950 . S
C488 C487 1.398 . S
C488 C489 1.391 . S
C489 H477 0.950 . S
C489 C485 1.393 . S
C489 C488 1.391 . S
C490 H480 0.950 . S
C490 C491 1.386 . S
C490 C492 1.391 . S
C491 C490 1.386 . S
C491 C495 1.393 . S
C492 H481 0.950 . S
C492 C490 1.391 . S
C492 C493 1.400 . S
C493 C487 1.491 . S
C493 C492 1.400 . S
C493 C494 1.398 . S
C494 H482 0.950 . S
C494 C493 1.398 . S
C494 C495 1.391 . S
C495 H483 0.950 . S
C495 C491 1.393 . S
C495 C494 1.391 . S
H496 C504 0.950 . S
H497 C509 0.950 . S
H498 C506 0.950 . S
H499 C508 0.950 . S
H500 C510 0.950 . S
H501 C512 0.950 . S
H502 C514 0.950 . S
H503 C515 0.950 . S
C504 H496 0.950 . S
C504 C505 1.386 . S
C504 C506 1.391 . S
C505 C504 1.386 . S
C505 C509 1.393 . S
C506 H498 0.950 . S
C506 C504 1.391 . S
C506 C507 1.400 . S
C507 C506 1.400 . S
C507 C508 1.398 . S
C507 C513 1.491 . S
C508 H499 0.950 . S
C508 C507 1.398 . S
C508 C509 1.391 . S
C509 H497 0.950 . S
C509 C505 1.393 . S
C509 C508 1.391 . S
C510 H500 0.950 . S
C510 C511 1.386 . S
C510 C512 1.391 . S
C511 C510 1.386 . S
C511 C515 1.393 . S
C512 H501 0.950 . S
C512 C510 1.391 . S
C512 C513 1.400 . S
C513 C507 1.491 . S
C513 C512 1.400 . S
C513 C514 1.398 . S
C514 H502 0.950 . S
C514 C513 1.398 . S
C514 C515 1.391 . S
C515 H503 0.950 . S
C515 C511 1.393 . S
C515 C514 1.391 . S
H516 C524 0.950 . S
H517 C529 0.950 . S
H518 C526 0.950 . S
H519 C528 0.950 . S
H520 C530 0.950 . S
H521 C532 0.950 . S
H522 C534 0.950 . S
H523 C535 0.950 . S
C524 H516 0.950 . S
C524 C525 1.386 . S
C524 C526 1.391 . S
C525 C524 1.386 . S
C525 C529 1.393 . S
C526 H518 0.950 . S
C526 C524 1.391 . S
C526 C527 1.400 . S
C527 C526 1.400 . S
C527 C528 1.398 . S
C527 C533 1.491 . S
C528 H519 0.950 . S
C528 C527 1.398 . S
C528 C529 1.391 . S
C529 H517 0.950 . S
C529 C525 1.393 . S
C529 C528 1.391 . S
C530 H520 0.950 . S
C530 C531 1.386 . S
C530 C532 1.391 . S
C531 C530 1.386 . S
C531 C535 1.393 . S
C532 H521 0.950 . S
C532 C530 1.391 . S
C532 C533 1.400 . S
C533 C527 1.491 . S
C533 C532 1.400 . S
C533 C534 1.398 . S
C534 H522 0.950 . S
C534 C533 1.398 . S
C534 C535 1.391 . S
C535 H523 0.950 . S
C535 C531 1.393 . S
C535 C534 1.391 . S
H536 C544 0.950 1_554 S
H537 C549 0.950 . S
H538 C546 0.950 . S
H539 C548 0.950 . S
H540 C550 0.950 . S
H541 C552 0.950 . S
H542 C554 0.950 . S
H543 C555 0.950 . S
C544 H536 0.950 1_556 S
C544 C545 1.386 . S
C544 C546 1.391 . S
C545 C544 1.386 . S
C545 C549 1.393 . S
C546 H538 0.950 . S
C546 C544 1.391 . S
C546 C547 1.400 . S
C547 C546 1.400 . S
C547 C548 1.398 . S
C547 C553 1.491 . S
C548 H539 0.950 . S
C548 C547 1.398 . S
C548 C549 1.391 . S
C549 H537 0.950 . S
C549 C545 1.393 . S
C549 C548 1.391 . S
C550 H540 0.950 . S
C550 C551 1.386 . S
C550 C552 1.391 . S
C551 C550 1.386 . S
C551 C555 1.393 . S
C552 H541 0.950 . S
C552 C550 1.391 . S
C552 C553 1.400 . S
C553 C547 1.491 . S
C553 C552 1.400 . S
C553 C554 1.398 . S
C554 H542 0.950 . S
C554 C553 1.398 . S
C554 C555 1.391 . S
C555 H543 0.950 . S
C555 C551 1.393 . S
C555 C554 1.391 . S
H556 C564 0.950 . S
H557 C569 0.950 . S
H558 C566 0.950 . S
H559 C568 0.950 . S
H560 C570 0.950 1_556 S
H561 C572 0.950 . S
H562 C574 0.950 . S
H563 C575 0.950 . S
C564 H556 0.950 . S
C564 C565 1.386 . S
C564 C566 1.391 . S
C565 C564 1.386 . S
C565 C569 1.393 . S
C566 H558 0.950 . S
C566 C564 1.391 . S
C566 C567 1.400 . S
C567 C566 1.400 . S
C567 C568 1.398 . S
C567 C573 1.491 . S
C568 H559 0.950 . S
C568 C567 1.398 . S
C568 C569 1.391 . S
C569 H557 0.950 . S
C569 C565 1.393 . S
C569 C568 1.391 . S
C570 H560 0.950 1_554 S
C570 C571 1.386 . S
C570 C572 1.391 . S
C571 C570 1.386 . S
C571 C575 1.393 . S
C572 H561 0.950 . S
C572 C570 1.391 . S
C572 C573 1.400 . S
C573 C567 1.491 . S
C573 C572 1.400 . S
C573 C574 1.398 . S
C574 H562 0.950 . S
C574 C573 1.398 . S
C574 C575 1.391 . S
C575 H563 0.950 . S
C575 C571 1.393 . S
C575 C574 1.391 . S
H576 C584 0.950 . S
H577 C589 0.950 . S
H578 C586 0.950 . S
H579 C588 0.950 . S
H580 C590 0.950 . S
H581 C592 0.950 . S
H582 C594 0.950 . S
H583 C595 0.950 . S
C584 H576 0.950 . S
C584 C585 1.386 . S
C584 C586 1.391 . S
C585 C584 1.386 . S
C585 C589 1.393 . S
C586 H578 0.950 . S
C586 C584 1.391 . S
C586 C587 1.400 . S
C587 C586 1.400 . S
C587 C588 1.398 . S
C587 C593 1.491 . S
C588 H579 0.950 . S
C588 C587 1.398 . S
C588 C589 1.391 . S
C589 H577 0.950 . S
C589 C585 1.393 . S
C589 C588 1.391 . S
C590 H580 0.950 . S
C590 C591 1.386 . S
C590 C592 1.391 . S
C591 C590 1.386 . S
C591 C595 1.393 . S
C592 H581 0.950 . S
C592 C590 1.391 . S
C592 C593 1.400 . S
C593 C587 1.491 . S
C593 C592 1.400 . S
C593 C594 1.398 . S
C594 H582 0.950 . S
C594 C593 1.398 . S
C594 C595 1.391 . S
C595 H583 0.950 . S
C595 C591 1.393 . S
C595 C594 1.391 . S
H596 C604 0.950 . S
H597 C609 0.950 . S
H598 C606 0.950 . S
H599 C608 0.950 . S
H600 C610 0.950 . S
H601 C612 0.950 . S
H602 C614 0.950 . S
H603 C615 0.950 . S
C604 H596 0.950 . S
C604 C605 1.386 . S
C604 C606 1.391 . S
C605 C604 1.386 . S
C605 C609 1.393 . S
C606 H598 0.950 . S
C606 C604 1.391 . S
C606 C607 1.400 . S
C607 C606 1.400 . S
C607 C608 1.398 . S
C607 C613 1.491 . S
C608 H599 0.950 . S
C608 C607 1.398 . S
C608 C609 1.391 . S
C609 H597 0.950 . S
C609 C605 1.393 . S
C609 C608 1.391 . S
C610 H600 0.950 . S
C610 C611 1.386 . S
C610 C612 1.391 . S
C611 C610 1.386 . S
C611 C615 1.393 . S
C612 H601 0.950 . S
C612 C610 1.391 . S
C612 C613 1.400 . S
C613 C607 1.491 . S
C613 C612 1.400 . S
C613 C614 1.398 . S
C614 H602 0.950 . S
C614 C613 1.398 . S
C614 C615 1.391 . S
C615 H603 0.950 . S
C615 C611 1.393 . S
C615 C614 1.391 . S
H616 C624 0.950 . S
H617 C629 0.950 . S
H618 C626 0.950 . S
H619 C628 0.950 . S
H620 C630 0.950 . S
H621 C632 0.950 . S
H622 C634 0.950 . S
H623 C635 0.950 1_556 S
C624 H616 0.950 . S
C624 C625 1.386 . S
C624 C626 1.391 . S
C625 C624 1.386 . S
C625 C629 1.393 . S
C626 H618 0.950 . S
C626 C624 1.391 . S
C626 C627 1.400 . S
C627 C626 1.400 . S
C627 C628 1.398 . S
C627 C633 1.491 . S
C628 H619 0.950 . S
C628 C627 1.398 . S
C628 C629 1.391 . S
C629 H617 0.950 . S
C629 C625 1.393 . S
C629 C628 1.391 . S
C630 H620 0.950 . S
C630 C631 1.386 . S
C630 C632 1.391 . S
C631 C630 1.386 . S
C631 C635 1.393 . S
C632 H621 0.950 . S
C632 C630 1.391 . S
C632 C633 1.400 . S
C633 C627 1.491 . S
C633 C632 1.400 . S
C633 C634 1.398 . S
C634 H622 0.950 . S
C634 C633 1.398 . S
C634 C635 1.391 . S
C635 H623 0.950 1_554 S
C635 C631 1.393 . S
C635 C634 1.391 . S
H636 C644 0.950 . S
H637 C649 0.950 . S
H638 C646 0.950 . S
H639 C648 0.950 . S
H640 C650 0.950 . S
H641 C652 0.950 . S
H642 C654 0.950 . S
H643 C655 0.950 1_554 S
C644 H636 0.950 . S
C644 C645 1.386 . S
C644 C646 1.391 . S
C645 C644 1.386 . S
C645 C649 1.393 . S
C646 H638 0.950 . S
C646 C644 1.391 . S
C646 C647 1.400 . S
C647 C646 1.400 . S
C647 C648 1.398 . S
C647 C653 1.491 . S
C648 H639 0.950 . S
C648 C647 1.398 . S
C648 C649 1.391 . S
C649 H637 0.950 . S
C649 C645 1.393 . S
C649 C648 1.391 . S
C650 H640 0.950 . S
C650 C651 1.386 . S
C650 C652 1.391 . S
C651 C650 1.386 . S
C651 C655 1.393 . S
C652 H641 0.950 . S
C652 C650 1.391 . S
C652 C653 1.400 . S
C653 C647 1.491 . S
C653 C652 1.400 . S
C653 C654 1.398 . S
C654 H642 0.950 . S
C654 C653 1.398 . S
C654 C655 1.391 . S
C655 H643 0.950 1_556 S
C655 C651 1.393 . S
C655 C654 1.391 . S
H656 C664 0.950 . S
H657 C669 0.950 . S
H658 C666 0.950 . S
H659 C668 0.950 . S
H660 C670 0.950 . S
H661 C672 0.950 . S
H662 C674 0.950 . S
H663 C675 0.950 . S
C664 H656 0.950 . S
C664 C665 1.386 . S
C664 C666 1.391 . S
C665 C664 1.386 . S
C665 C669 1.393 1_655 S
C666 H658 0.950 . S
C666 C664 1.391 . S
C666 C667 1.400 1_655 S
C667 C666 1.400 1_455 S
C667 C668 1.398 . S
C667 C673 1.491 . S
C668 H659 0.950 . S
C668 C667 1.398 . S
C668 C669 1.391 . S
C669 H657 0.950 . S
C669 C665 1.393 1_455 S
C669 C668 1.391 . S
C670 H660 0.950 . S
C670 C671 1.386 . S
C670 C672 1.391 . S
C671 C670 1.386 . S
C671 C675 1.393 1_455 S
C672 H661 0.950 . S
C672 C670 1.391 . S
C672 C673 1.400 . S
C673 C667 1.491 . S
C673 C672 1.400 . S
C673 C674 1.398 1_455 S
C674 H662 0.950 . S
C674 C673 1.398 1_655 S
C674 C675 1.391 . S
C675 H663 0.950 . S
C675 C671 1.393 1_655 S
C675 C674 1.391 . S
H676 C684 0.950 . S
H677 C689 0.950 . S
H678 C686 0.950 . S
H679 C688 0.950 . S
H680 C690 0.950 . S
H681 C692 0.950 . S
H682 C694 0.950 . S
H683 C695 0.950 . S
C684 H676 0.950 . S
C684 C685 1.386 . S
C684 C686 1.391 . S
C685 C684 1.386 . S
C685 C689 1.393 . S
C686 H678 0.950 . S
C686 C684 1.391 . S
C686 C687 1.400 . S
C687 C686 1.400 . S
C687 C688 1.398 . S
C687 C693 1.491 1_655 S
C688 H679 0.950 . S
C688 C687 1.398 . S
C688 C689 1.391 . S
C689 H677 0.950 . S
C689 C685 1.393 . S
C689 C688 1.391 . S
C690 H680 0.950 . S
C690 C691 1.386 . S
C690 C692 1.391 . S
C691 C690 1.386 . S
C691 C695 1.393 . S
C692 H681 0.950 . S
C692 C690 1.391 . S
C692 C693 1.400 . S
C693 C687 1.491 1_455 S
C693 C692 1.400 . S
C693 C694 1.398 . S
C694 H682 0.950 . S
C694 C693 1.398 . S
C694 C695 1.391 . S
C695 H683 0.950 . S
C695 C691 1.393 . S
C695 C694 1.391 . S
H696 C704 0.950 . S
H697 C709 0.950 . S
H698 C706 0.950 . S
H699 C708 0.950 . S
H700 C710 0.950 . S
H701 C712 0.950 . S
H702 C714 0.950 . S
H703 C715 0.950 . S
C704 H696 0.950 . S
C704 C705 1.386 . S
C704 C706 1.391 . S
C705 C704 1.386 . S
C705 C709 1.393 . S
C706 H698 0.950 . S
C706 C704 1.391 . S
C706 C707 1.400 . S
C707 C706 1.400 . S
C707 C708 1.398 . S
C707 C713 1.491 . S
C708 H699 0.950 . S
C708 C707 1.398 . S
C708 C709 1.391 . S
C709 H697 0.950 . S
C709 C705 1.393 . S
C709 C708 1.391 . S
C710 H700 0.950 . S
C710 C711 1.386 . S
C710 C712 1.391 . S
C711 C710 1.386 . S
C711 C715 1.393 . S
C712 H701 0.950 . S
C712 C710 1.391 . S
C712 C713 1.400 . S
C713 C707 1.491 . S
C713 C712 1.400 . S
C713 C714 1.398 . S
C714 H702 0.950 . S
C714 C713 1.398 . S
C714 C715 1.391 . S
C715 H703 0.950 . S
C715 C711 1.393 . S
C715 C714 1.391 . S
H716 C724 0.950 . S
H717 C729 0.950 . S
H718 C726 0.950 . S
H719 C728 0.950 . S
H720 C730 0.950 . S
H721 C732 0.950 . S
H722 C734 0.950 . S
H723 C735 0.950 . S
C724 H716 0.950 . S
C724 C725 1.386 . S
C724 C726 1.391 . S
C725 C724 1.386 . S
C725 C729 1.393 . S
C726 H718 0.950 . S
C726 C724 1.391 . S
C726 C727 1.400 . S
C727 C726 1.400 . S
C727 C728 1.398 . S
C727 C733 1.491 . S
C728 H719 0.950 . S
C728 C727 1.398 . S
C728 C729 1.391 . S
C729 H717 0.950 . S
C729 C725 1.393 . S
C729 C728 1.391 . S
C730 H720 0.950 . S
C730 C731 1.386 . S
C730 C732 1.391 . S
C731 C730 1.386 . S
C731 C735 1.393 . S
C732 H721 0.950 . S
C732 C730 1.391 . S
C732 C733 1.400 . S
C733 C727 1.491 . S
C733 C732 1.400 . S
C733 C734 1.398 . S
C734 H722 0.950 . S
C734 C733 1.398 . S
C734 C735 1.391 . S
C735 H723 0.950 . S
C735 C731 1.393 . S
C735 C734 1.391 . S
H736 C744 0.950 . S
H737 C749 0.950 . S
H738 C746 0.950 . S
H739 C748 0.950 . S
H740 C750 0.950 . S
H741 C752 0.950 . S
H742 C754 0.950 . S
H743 C755 0.950 . S
C744 H736 0.950 . S
C744 C745 1.386 1_655 S
C744 C746 1.391 . S
C745 C744 1.386 1_455 S
C745 C749 1.393 . S
C746 H738 0.950 . S
C746 C744 1.391 . S
C746 C747 1.400 1_655 S
C747 C746 1.400 1_455 S
C747 C748 1.398 . S
C747 C753 1.499 . S
C748 H739 0.950 . S
C748 C747 1.398 . S
C748 C749 1.391 . S
C749 H737 0.950 . S
C749 C745 1.393 . S
C749 C748 1.391 . S
C750 H740 0.950 . S
C750 C751 1.386 1_455 S
C750 C752 1.391 . S
C751 C750 1.386 1_655 S
C751 C755 1.393 . S
C752 H741 0.950 . S
C752 C750 1.391 . S
C752 C753 1.432 . S
C753 C747 1.499 . S
C753 C752 1.432 . S
C753 C754 1.359 1_455 S
C754 H742 0.950 . S
C754 C753 1.359 1_655 S
C754 C755 1.391 . S
C755 H743 0.950 . S
C755 C751 1.393 . S
C755 C754 1.391 . S
H756 C764 0.950 . S
H757 C769 0.950 . S
H758 C766 0.950 . S
H759 C768 0.950 . S
H760 C770 0.950 . S
H761 C772 0.950 . S
H762 C774 0.950 . S
H763 C775 0.950 . S
C764 H756 0.950 . S
C764 C765 1.386 . S
C764 C766 1.391 . S
C765 C764 1.386 . S
C765 C769 1.393 . S
C766 H758 0.950 . S
C766 C764 1.391 . S
C766 C767 1.400 . S
C767 C766 1.400 . S
C767 C768 1.398 . S
C767 C773 1.491 . S
C768 H759 0.950 . S
C768 C767 1.398 . S
C768 C769 1.391 . S
C769 H757 0.950 . S
C769 C765 1.393 . S
C769 C768 1.391 . S
C770 H760 0.950 . S
C770 C771 1.386 . S
C770 C772 1.391 . S
C771 C770 1.386 . S
C771 C775 1.393 . S
C772 H761 0.950 . S
C772 C770 1.391 . S
C772 C773 1.400 . S
C773 C767 1.491 . S
C773 C772 1.400 . S
C773 C774 1.398 . S
C774 H762 0.950 . S
C774 C773 1.398 . S
C774 C775 1.391 . S
C775 H763 0.950 . S
C775 C771 1.393 . S
C775 C774 1.391 . S
H776 C784 0.950 . S
H777 C789 0.950 . S
H778 C786 0.950 . S
H779 C788 0.950 . S
H780 C790 0.950 . S
H781 C792 0.950 . S
H782 C794 0.950 . S
H783 C795 0.950 . S
C784 H776 0.950 . S
C784 C785 1.386 . S
C784 C786 1.391 . S
C785 C784 1.386 . S
C785 C789 1.393 . S
C786 H778 0.950 . S
C786 C784 1.391 . S
C786 C787 1.400 . S
C787 C786 1.400 . S
C787 C788 1.398 . S
C787 C793 1.491 . S
C788 H779 0.950 . S
C788 C787 1.398 . S
C788 C789 1.391 . S
C789 H777 0.950 . S
C789 C785 1.393 . S
C789 C788 1.391 . S
C790 H780 0.950 . S
C790 C791 1.386 . S
C790 C792 1.391 . S
C791 C790 1.386 . S
C791 C795 1.393 . S
C792 H781 0.950 . S
C792 C790 1.391 . S
C792 C793 1.400 . S
C793 C787 1.491 . S
C793 C792 1.400 . S
C793 C794 1.398 . S
C794 H782 0.950 . S
C794 C793 1.398 . S
C794 C795 1.391 . S
C795 H783 0.950 . S
C795 C791 1.393 . S
C795 C794 1.391 . S
H796 C804 0.950 . S
H797 C809 0.950 . S
H798 C806 0.950 . S
H799 C808 0.950 . S
H800 C810 0.950 . S
H801 C812 0.950 . S
H802 C814 0.950 . S
H803 C815 0.950 . S
C804 H796 0.950 . S
C804 C805 1.386 . S
C804 C806 1.391 . S
C805 C804 1.386 . S
C805 C809 1.393 . S
C806 H798 0.950 . S
C806 C804 1.391 . S
C806 C807 1.400 . S
C807 C806 1.400 . S
C807 C808 1.398 . S
C807 C813 1.491 1_455 S
C808 H799 0.950 . S
C808 C807 1.398 . S
C808 C809 1.391 . S
C809 H797 0.950 . S
C809 C805 1.393 . S
C809 C808 1.391 . S
C810 H800 0.950 . S
C810 C811 1.386 . S
C810 C812 1.391 . S
C811 C810 1.386 . S
C811 C815 1.393 . S
C812 H801 0.950 . S
C812 C810 1.391 . S
C812 C813 1.400 . S
C813 C807 1.491 1_655 S
C813 C812 1.400 . S
C813 C814 1.398 . S
C814 H802 0.950 . S
C814 C813 1.398 . S
C814 C815 1.391 . S
C815 H803 0.950 . S
C815 C811 1.393 . S
C815 C814 1.391 . S
H816 C824 0.950 . S
H817 C829 0.950 . S
H818 C826 0.950 1_556 S
H819 C828 0.962 . S
H820 C830 0.950 . S
H821 C832 0.950 1_554 S
H822 C834 0.962 . S
H823 C835 0.950 . S
C824 H816 0.950 . S
C824 C825 1.386 1_655 S
C824 C826 1.391 . S
C825 C824 1.386 1_455 S
C825 C829 1.393 . S
C826 H818 0.950 1_554 S
C826 C824 1.391 . S
C826 C827 1.400 1_655 S
C827 C826 1.400 1_455 S
C827 C828 1.398 . S
C827 C833 1.491 1_544 S
C828 H819 0.962 . S
C828 C827 1.398 . S
C828 C829 1.391 . S
C829 H817 0.950 . S
C829 C825 1.393 . S
C829 C828 1.391 . S
C830 H820 0.950 . S
C830 C831 1.386 . S
C830 C832 1.391 . S
C831 C830 1.386 . S
C831 C835 1.393 1_455 S
C832 H821 0.950 1_556 S
C832 C830 1.391 . S
C832 C833 1.400 . S
C833 C827 1.491 1_566 S
C833 C832 1.400 . S
C833 C834 1.398 1_455 S
C834 H822 0.962 . S
C834 C833 1.398 1_655 S
C834 C835 1.391 . S
C835 H823 0.950 . S
C835 C831 1.393 1_655 S
C835 C834 1.391 . S
H836 C844 0.950 . S
H837 C849 0.950 . S
H838 C846 0.950 . S
H839 C848 0.950 . S
H840 C850 0.950 . S
H841 C852 0.950 . S
H842 C854 0.950 . S
H843 C855 0.950 . S
C844 H836 0.950 . S
C844 C845 1.386 . S
C844 C846 1.391 . S
C845 C844 1.386 . S
C845 C849 1.393 . S
C846 H838 0.950 . S
C846 C844 1.391 . S
C846 C847 1.400 . S
C847 C846 1.400 . S
C847 C848 1.398 . S
C847 C853 1.491 . S
C848 H839 0.950 . S
C848 C847 1.398 . S
C848 C849 1.391 . S
C849 H837 0.950 . S
C849 C845 1.393 . S
C849 C848 1.391 . S
C850 H840 0.950 . S
C850 C851 1.386 . S
C850 C852 1.391 . S
C851 C850 1.386 . S
C851 C855 1.393 . S
C852 H841 0.950 . S
C852 C850 1.391 . S
C852 C853 1.400 . S
C853 C847 1.491 . S
C853 C852 1.400 . S
C853 C854 1.398 . S
C854 H842 0.950 . S
C854 C853 1.398 . S
C854 C855 1.391 . S
C855 H843 0.950 . S
C855 C851 1.393 . S
C855 C854 1.391 . S
H856 C864 0.950 . S
H857 C869 0.950 . S
H858 C866 0.950 . S
H859 C868 0.950 1_565 S
H860 C870 0.950 . S
H861 C872 0.950 . S
H862 C874 0.950 1_545 S
H863 C875 0.950 . S
C864 H856 0.950 . S
C864 C865 1.386 . S
C864 C866 1.391 . S
C865 C864 1.386 . S
C865 C869 1.393 . S
C866 H858 0.950 . S
C866 C864 1.391 . S
C866 C867 1.400 . S
C867 C866 1.400 . S
C867 C868 1.398 . S
C867 C873 1.491 1_545 S
C868 H859 0.950 1_545 S
C868 C867 1.398 . S
C868 C869 1.391 . S
C869 H857 0.950 . S
C869 C865 1.393 . S
C869 C868 1.391 . S
C870 H860 0.950 . S
C870 C871 1.386 . S
C870 C872 1.391 . S
C871 C870 1.386 . S
C871 C875 1.393 . S
C872 H861 0.950 . S
C872 C870 1.391 . S
C872 C873 1.400 . S
C873 C867 1.491 1_565 S
C873 C872 1.400 . S
C873 C874 1.398 . S
C874 H862 0.950 1_565 S
C874 C873 1.398 . S
C874 C875 1.391 . S
C875 H863 0.950 . S
C875 C871 1.393 . S
C875 C874 1.391 . S
H876 C884 0.950 . S
H877 C889 0.950 . S
H878 C886 0.950 . S
H879 C888 0.950 . S
H880 C890 0.950 . S
H881 C892 0.950 . S
H882 C894 0.950 . S
H883 C895 0.950 . S
C884 H876 0.950 . S
C884 C885 1.386 . S
C884 C886 1.391 . S
C885 C884 1.386 . S
C885 C889 1.393 . S
C886 H878 0.950 . S
C886 C884 1.391 . S
C886 C887 1.400 . S
C887 C886 1.400 . S
C887 C888 1.398 . S
C887 C893 1.491 . S
C888 H879 0.950 . S
C888 C887 1.398 . S
C888 C889 1.391 . S
C889 H877 0.950 . S
C889 C885 1.393 . S
C889 C888 1.391 . S
C890 H880 0.950 . S
C890 C891 1.386 . S
C890 C892 1.391 . S
C891 C890 1.386 . S
C891 C895 1.393 . S
C892 H881 0.950 . S
C892 C890 1.391 . S
C892 C893 1.400 . S
C893 C887 1.491 . S
C893 C892 1.400 . S
C893 C894 1.398 . S
C894 H882 0.950 . S
C894 C893 1.398 . S
C894 C895 1.391 . S
C895 H883 0.950 . S
C895 C891 1.393 . S
C895 C894 1.391 . S
H896 C904 0.950 . S
H897 C909 0.950 . S
H898 C906 0.950 . S
H899 C908 0.950 . S
H900 C910 0.950 . S
H901 C912 0.950 . S
H902 C914 0.950 . S
H903 C915 0.950 . S
C904 H896 0.950 . S
C904 C905 1.386 . S
C904 C906 1.391 . S
C905 C904 1.386 . S
C905 C909 1.393 . S
C906 H898 0.950 . S
C906 C904 1.391 . S
C906 C907 1.400 . S
C907 C906 1.400 . S
C907 C908 1.398 . S
C907 C913 1.491 . S
C908 H899 0.950 . S
C908 C907 1.398 . S
C908 C909 1.391 . S
C909 H897 0.950 . S
C909 C905 1.393 . S
C909 C908 1.391 . S
C910 H900 0.950 . S
C910 C911 1.386 . S
C910 C912 1.391 . S
C911 C910 1.386 . S
C911 C915 1.393 . S
C912 H901 0.950 . S
C912 C910 1.391 . S
C912 C913 1.400 . S
C913 C907 1.491 . S
C913 C912 1.400 . S
C913 C914 1.398 . S
C914 H902 0.950 . S
C914 C913 1.398 . S
C914 C915 1.391 . S
C915 H903 0.950 . S
C915 C911 1.393 . S
C915 C914 1.391 . S
H916 C924 0.950 . S
H917 C929 0.950 . S
H918 C926 0.950 . S
H919 C928 0.950 . S
H920 C930 0.950 . S
H921 C932 0.950 . S
H922 C934 0.950 . S
H923 C935 0.950 . S
C924 H916 0.950 . S
C924 C925 1.386 . S
C924 C926 1.391 . S
C925 C924 1.386 . S
C925 C929 1.393 . S
C926 H918 0.950 . S
C926 C924 1.391 . S
C926 C927 1.400 . S
C927 C926 1.400 . S
C927 C928 1.398 . S
C927 C933 1.491 . S
C928 H919 0.950 . S
C928 C927 1.398 . S
C928 C929 1.391 . S
C929 H917 0.950 . S
C929 C925 1.393 . S
C929 C928 1.391 . S
C930 H920 0.950 . S
C930 C931 1.386 . S
C930 C932 1.391 . S
C931 C930 1.386 . S
C931 C935 1.393 . S
C932 H921 0.950 . S
C932 C930 1.391 . S
C932 C933 1.400 . S
C933 C927 1.491 . S
C933 C932 1.400 . S
C933 C934 1.398 . S
C934 H922 0.950 . S
C934 C933 1.398 . S
C934 C935 1.391 . S
C935 H923 0.950 . S
C935 C931 1.393 . S
C935 C934 1.391 . S
H936 C944 0.950 . S
H937 C949 0.950 . S
H938 C946 0.950 . S
H939 C948 0.950 . S
H940 C950 0.950 . S
H941 C952 0.950 . S
H942 C954 0.950 . S
H943 C955 0.950 . S
C944 H936 0.950 . S
C944 C945 1.386 . S
C944 C946 1.391 . S
C945 C944 1.386 . S
C945 C949 1.393 . S
C946 H938 0.950 . S
C946 C944 1.391 . S
C946 C947 1.400 . S
C947 C946 1.400 . S
C947 C948 1.398 . S
C947 C953 1.491 . S
C948 H939 0.950 . S
C948 C947 1.398 . S
C948 C949 1.391 . S
C949 H937 0.950 . S
C949 C945 1.393 . S
C949 C948 1.391 . S
C950 H940 0.950 . S
C950 C951 1.386 . S
C950 C952 1.391 . S
C951 C950 1.386 . S
C951 C955 1.393 . S
C952 H941 0.950 . S
C952 C950 1.391 . S
C952 C953 1.400 . S
C953 C947 1.491 . S
C953 C952 1.400 . S
C953 C954 1.398 . S
C954 H942 0.950 . S
C954 C953 1.398 . S
C954 C955 1.391 . S
C955 H943 0.950 . S
C955 C951 1.393 . S
C955 C954 1.391 . S
H956 C964 0.950 . S
H957 C969 0.950 . S
H958 C966 0.950 . S
H959 C968 0.950 . S
H960 C970 0.950 . S
H961 C972 0.950 . S
H962 C974 0.950 . S
H963 C975 0.950 . S
C964 H956 0.950 . S
C964 C965 1.386 . S
C964 C966 1.391 1_556 S
C965 C964 1.386 . S
C965 C969 1.393 . S
C966 H958 0.950 . S
C966 C964 1.391 1_554 S
C966 C967 1.400 1_554 S
C967 C966 1.400 1_556 S
C967 C968 1.398 . S
C967 C973 1.491 1_556 S
C968 H959 0.950 . S
C968 C967 1.398 . S
C968 C969 1.391 . S
C969 H957 0.950 . S
C969 C965 1.393 . S
C969 C968 1.391 . S
C970 H960 0.950 . S
C970 C971 1.386 . S
C970 C972 1.391 1_554 S
C971 C970 1.386 . S
C971 C975 1.393 . S
C972 H961 0.950 . S
C972 C970 1.391 1_556 S
C972 C973 1.400 1_556 S
C973 C967 1.491 1_554 S
C973 C972 1.400 1_554 S
C973 C974 1.398 . S
C974 H962 0.950 . S
C974 C973 1.398 . S
C974 C975 1.391 . S
C975 H963 0.950 . S
C975 C971 1.393 . S
C975 C974 1.391 . S
H976 C984 0.950 . S
H977 C989 0.950 . S
H978 C986 0.950 . S
H979 C988 0.950 . S
H980 C990 0.950 . S
H981 C992 0.950 . S
H982 C994 0.950 . S
H983 C995 0.950 . S
C984 H976 0.950 . S
C984 C985 1.386 . S
C984 C986 1.391 . S
C985 C984 1.386 . S
C985 C989 1.393 . S
C986 H978 0.950 . S
C986 C984 1.391 . S
C986 C987 1.400 . S
C987 C986 1.400 . S
C987 C988 1.398 . S
C987 C993 1.491 . S
C988 H979 0.950 . S
C988 C987 1.398 . S
C988 C989 1.391 . S
C989 H977 0.950 . S
C989 C985 1.393 . S
C989 C988 1.391 . S
C990 H980 0.950 . S
C990 C991 1.386 . S
C990 C992 1.391 . S
C991 C990 1.386 . S
C991 C995 1.393 . S
C992 H981 0.950 . S
C992 C990 1.391 . S
C992 C993 1.400 . S
C993 C987 1.491 . S
C993 C992 1.400 . S
C993 C994 1.398 . S
C994 H982 0.950 . S
C994 C993 1.398 . S
C994 C995 1.391 . S
C995 H983 0.950 . S
C995 C991 1.393 . S
C995 C994 1.391 . S
H996 C1004 0.950 . S
H997 C1009 0.950 . S
H998 C1006 0.950 . S
H999 C1008 0.950 . S
H1000 C1010 0.950 . S
H1001 C1012 0.950 . S
H1002 C1014 0.950 . S
H1003 C1015 0.950 . S
C1004 H996 0.950 . S
C1004 C1005 1.386 . S
C1004 C1006 1.391 . S
C1005 C1004 1.386 . S
C1005 C1009 1.393 . S
C1006 H998 0.950 . S
C1006 C1004 1.391 . S
C1006 C1007 1.400 . S
C1007 C1006 1.400 . S
C1007 C1008 1.398 . S
C1007 C1013 1.491 . S
C1008 H999 0.950 . S
C1008 C1007 1.398 . S
C1008 C1009 1.391 . S
C1009 H997 0.950 . S
C1009 C1005 1.393 . S
C1009 C1008 1.391 . S
C1010 H1000 0.950 . S
C1010 C1011 1.386 . S
C1010 C1012 1.391 . S
C1011 C1010 1.386 . S
C1011 C1015 1.393 . S
C1012 H1001 0.950 . S
C1012 C1010 1.391 . S
C1012 C1013 1.400 . S
C1013 C1007 1.491 . S
C1013 C1012 1.400 . S
C1013 C1014 1.398 . S
C1014 H1002 0.950 . S
C1014 C1013 1.398 . S
C1014 C1015 1.391 . S
C1015 H1003 0.950 . S
C1015 C1011 1.393 . S
C1015 C1014 1.391 . S
H1016 C1024 0.950 1_554 S
H1017 C1029 0.950 . S
H1018 C1026 0.950 . S
H1019 C1028 0.950 . S
H1020 C1030 0.950 . S
H1021 C1032 0.950 . S
H1022 C1034 0.950 . S
H1023 C1035 0.950 . S
C1024 H1016 0.950 1_556 S
C1024 C1025 1.386 . S
C1024 C1026 1.391 . S
C1025 C1024 1.386 . S
C1025 C1029 1.393 . S
C1026 H1018 0.950 . S
C1026 C1024 1.391 . S
C1026 C1027 1.400 . S
C1027 C1026 1.400 . S
C1027 C1028 1.398 . S
C1027 C1033 1.491 . S
C1028 H1019 0.950 . S
C1028 C1027 1.398 . S
C1028 C1029 1.391 . S
C1029 H1017 0.950 . S
C1029 C1025 1.393 . S
C1029 C1028 1.391 . S
C1030 H1020 0.950 . S
C1030 C1031 1.386 . S
C1030 C1032 1.391 . S
C1031 C1030 1.386 . S
C1031 C1035 1.393 . S
C1032 H1021 0.950 . S
C1032 C1030 1.391 . S
C1032 C1033 1.400 . S
C1033 C1027 1.491 . S
C1033 C1032 1.400 . S
C1033 C1034 1.398 . S
C1034 H1022 0.950 . S
C1034 C1033 1.398 . S
C1034 C1035 1.391 . S
C1035 H1023 0.950 . S
C1035 C1031 1.393 . S
C1035 C1034 1.391 . S
H1036 C1044 0.950 . S
H1037 C1049 0.950 . S
H1038 C1046 0.950 . S
H1039 C1048 0.950 . S
H1040 C1050 0.950 1_556 S
H1041 C1052 0.950 . S
H1042 C1054 0.950 . S
H1043 C1055 0.950 . S
C1044 H1036 0.950 . S
C1044 C1045 1.386 . S
C1044 C1046 1.391 . S
C1045 C1044 1.386 . S
C1045 C1049 1.393 . S
C1046 H1038 0.950 . S
C1046 C1044 1.391 . S
C1046 C1047 1.400 . S
C1047 C1046 1.400 . S
C1047 C1048 1.398 . S
C1047 C1053 1.491 . S
C1048 H1039 0.950 . S
C1048 C1047 1.398 . S
C1048 C1049 1.391 . S
C1049 H1037 0.950 . S
C1049 C1045 1.393 . S
C1049 C1048 1.391 . S
C1050 H1040 0.950 1_554 S
C1050 C1051 1.386 . S
C1050 C1052 1.391 . S
C1051 C1050 1.386 . S
C1051 C1055 1.393 . S
C1052 H1041 0.950 . S
C1052 C1050 1.391 . S
C1052 C1053 1.400 . S
C1053 C1047 1.491 . S
C1053 C1052 1.400 . S
C1053 C1054 1.398 . S
C1054 H1042 0.950 . S
C1054 C1053 1.398 . S
C1054 C1055 1.391 . S
C1055 H1043 0.950 . S
C1055 C1051 1.393 . S
C1055 C1054 1.391 . S
H1056 C1064 0.950 . S
H1057 C1069 0.950 . S
H1058 C1066 0.950 . S
H1059 C1068 0.950 . S
H1060 C1070 0.950 . S
H1061 C1072 0.950 . S
H1062 C1074 0.950 . S
H1063 C1075 0.950 . S
C1064 H1056 0.950 . S
C1064 C1065 1.386 . S
C1064 C1066 1.391 . S
C1065 C1064 1.386 . S
C1065 C1069 1.393 . S
C1066 H1058 0.950 . S
C1066 C1064 1.391 . S
C1066 C1067 1.400 . S
C1067 C1066 1.400 . S
C1067 C1068 1.398 . S
C1067 C1073 1.491 . S
C1068 H1059 0.950 . S
C1068 C1067 1.398 . S
C1068 C1069 1.391 . S
C1069 H1057 0.950 . S
C1069 C1065 1.393 . S
C1069 C1068 1.391 . S
C1070 H1060 0.950 . S
C1070 C1071 1.386 . S
C1070 C1072 1.391 . S
C1071 C1070 1.386 . S
C1071 C1075 1.393 . S
C1072 H1061 0.950 . S
C1072 C1070 1.391 . S
C1072 C1073 1.400 . S
C1073 C1067 1.491 . S
C1073 C1072 1.400 . S
C1073 C1074 1.398 . S
C1074 H1062 0.950 . S
C1074 C1073 1.398 . S
C1074 C1075 1.391 . S
C1075 H1063 0.950 . S
C1075 C1071 1.393 . S
C1075 C1074 1.391 . S
H1076 C1084 0.950 . S
H1077 C1089 0.950 . S
H1078 C1086 0.950 . S
H1079 C1088 0.950 . S
H1080 C1090 0.950 . S
H1081 C1092 0.950 . S
H1082 C1094 0.950 . S
H1083 C1095 0.950 . S
C1084 H1076 0.950 . S
C1084 C1085 1.386 . S
C1084 C1086 1.391 . S
C1085 C1084 1.386 . S
C1085 C1089 1.393 . S
C1086 H1078 0.950 . S
C1086 C1084 1.391 . S
C1086 C1087 1.400 . S
C1087 C1086 1.400 . S
C1087 C1088 1.398 . S
C1087 C1093 1.491 . S
C1088 H1079 0.950 . S
C1088 C1087 1.398 . S
C1088 C1089 1.391 . S
C1089 H1077 0.950 . S
C1089 C1085 1.393 . S
C1089 C1088 1.391 . S
C1090 H1080 0.950 . S
C1090 C1091 1.386 . S
C1090 C1092 1.391 . S
C1091 C1090 1.386 . S
C1091 C1095 1.393 . S
C1092 H1081 0.950 . S
C1092 C1090 1.391 . S
C1092 C1093 1.400 . S
C1093 C1087 1.491 . S
C1093 C1092 1.400 . S
C1093 C1094 1.398 . S
C1094 H1082 0.950 . S
C1094 C1093 1.398 . S
C1094 C1095 1.391 . S
C1095 H1083 0.950 . S
C1095 C1091 1.393 . S
C1095 C1094 1.391 . S
H1096 C1104 0.950 . S
H1097 C1109 0.950 1_556 S
H1098 C1106 0.950 . S
H1099 C1108 0.950 . S
H1100 C1110 0.950 . S
H1101 C1112 0.950 . S
H1102 C1114 0.950 . S
H1103 C1115 0.950 . S
C1104 H1096 0.950 . S
C1104 C1105 1.386 . S
C1104 C1106 1.391 . S
C1105 C1104 1.386 . S
C1105 C1109 1.393 . S
C1106 H1098 0.950 . S
C1106 C1104 1.391 . S
C1106 C1107 1.400 . S
C1107 C1106 1.400 . S
C1107 C1108 1.398 . S
C1107 C1113 1.491 . S
C1108 H1099 0.950 . S
C1108 C1107 1.398 . S
C1108 C1109 1.391 . S
C1109 H1097 0.950 1_554 S
C1109 C1105 1.393 . S
C1109 C1108 1.391 . S
C1110 H1100 0.950 . S
C1110 C1111 1.386 . S
C1110 C1112 1.391 . S
C1111 C1110 1.386 . S
C1111 C1115 1.393 . S
C1112 H1101 0.950 . S
C1112 C1110 1.391 . S
C1112 C1113 1.400 . S
C1113 C1107 1.491 . S
C1113 C1112 1.400 . S
C1113 C1114 1.398 . S
C1114 H1102 0.950 . S
C1114 C1113 1.398 . S
C1114 C1115 1.391 . S
C1115 H1103 0.950 . S
C1115 C1111 1.393 . S
C1115 C1114 1.391 . S
H1116 C1124 0.950 . S
H1117 C1129 0.950 . S
H1118 C1126 0.950 . S
H1119 C1128 0.950 . S
H1120 C1130 0.950 . S
H1121 C1132 0.950 . S
H1122 C1134 0.950 . S
H1123 C1135 0.950 . S
C1124 H1116 0.950 . S
C1124 C1125 1.386 . S
C1124 C1126 1.391 . S
C1125 C1124 1.386 . S
C1125 C1129 1.393 . S
C1126 H1118 0.950 . S
C1126 C1124 1.391 . S
C1126 C1127 1.400 . S
C1127 C1126 1.400 . S
C1127 C1128 1.398 . S
C1127 C1133 1.491 . S
C1128 H1119 0.950 . S
C1128 C1127 1.398 . S
C1128 C1129 1.391 . S
C1129 H1117 0.950 . S
C1129 C1125 1.393 . S
C1129 C1128 1.391 . S
C1130 H1120 0.950 . S
C1130 C1131 1.386 . S
C1130 C1132 1.391 . S
C1131 C1130 1.386 . S
C1131 C1135 1.393 . S
C1132 H1121 0.950 . S
C1132 C1130 1.391 . S
C1132 C1133 1.400 . S
C1133 C1127 1.491 . S
C1133 C1132 1.400 . S
C1133 C1134 1.398 . S
C1134 H1122 0.950 . S
C1134 C1133 1.398 . S
C1134 C1135 1.391 . S
C1135 H1123 0.950 . S
C1135 C1131 1.393 . S
C1135 C1134 1.391 . S
H1136 C1144 0.950 . S
H1137 C1149 0.950 . S
H1138 C1146 0.950 . S
H1139 C1148 0.950 . S
H1140 C1150 0.950 . S
H1141 C1152 0.950 . S
H1142 C1154 0.950 . S
H1143 C1155 0.950 1_554 S
C1144 H1136 0.950 . S
C1144 C1145 1.386 . S
C1144 C1146 1.391 . S
C1145 C1144 1.386 . S
C1145 C1149 1.393 . S
C1146 H1138 0.950 . S
C1146 C1144 1.391 . S
C1146 C1147 1.400 . S
C1147 C1146 1.400 . S
C1147 C1148 1.398 . S
C1147 C1153 1.491 . S
C1148 H1139 0.950 . S
C1148 C1147 1.398 . S
C1148 C1149 1.391 . S
C1149 H1137 0.950 . S
C1149 C1145 1.393 . S
C1149 C1148 1.391 . S
C1150 H1140 0.950 . S
C1150 C1151 1.386 . S
C1150 C1152 1.391 . S
C1151 C1150 1.386 . S
C1151 C1155 1.393 . S
C1152 H1141 0.950 . S
C1152 C1150 1.391 . S
C1152 C1153 1.400 . S
C1153 C1147 1.491 . S
C1153 C1152 1.400 . S
C1153 C1154 1.398 . S
C1154 H1142 0.950 . S
C1154 C1153 1.398 . S
C1154 C1155 1.391 . S
C1155 H1143 0.950 1_556 S
C1155 C1151 1.393 . S
C1155 C1154 1.391 . S
H1156 C1164 0.950 . S
H1157 C1169 0.950 . S
H1158 C1166 0.950 . S
H1159 C1168 0.950 . S
H1160 C1170 0.950 . S
H1161 C1172 0.950 . S
H1162 C1174 0.950 . S
H1163 C1175 0.950 1_556 S
C1164 H1156 0.950 . S
C1164 C1165 1.386 . S
C1164 C1166 1.391 . S
C1165 C1164 1.386 . S
C1165 C1169 1.393 . S
C1166 H1158 0.950 . S
C1166 C1164 1.391 . S
C1166 C1167 1.400 . S
C1167 C1166 1.400 . S
C1167 C1168 1.398 . S
C1167 C1173 1.491 . S
C1168 H1159 0.950 . S
C1168 C1167 1.398 . S
C1168 C1169 1.391 . S
C1169 H1157 0.950 . S
C1169 C1165 1.393 . S
C1169 C1168 1.391 . S
C1170 H1160 0.950 . S
C1170 C1171 1.386 . S
C1170 C1172 1.391 . S
C1171 C1170 1.386 . S
C1171 C1175 1.393 . S
C1172 H1161 0.950 . S
C1172 C1170 1.391 . S
C1172 C1173 1.400 . S
C1173 C1167 1.491 . S
C1173 C1172 1.400 . S
C1173 C1174 1.398 . S
C1174 H1162 0.950 . S
C1174 C1173 1.398 . S
C1174 C1175 1.391 . S
C1175 H1163 0.950 1_554 S
C1175 C1171 1.393 . S
C1175 C1174 1.391 . S
H1176 C1184 0.950 . S
H1177 C1189 0.950 . S
H1178 C1186 0.950 . S
H1179 C1188 0.950 . S
H1180 C1190 0.950 . S
H1181 C1192 0.950 . S
H1182 C1194 0.950 . S
H1183 C1195 0.950 . S
C1184 H1176 0.950 . S
C1184 C1185 1.386 . S
C1184 C1186 1.391 . S
C1185 C1184 1.386 . S
C1185 C1189 1.393 . S
C1186 H1178 0.950 . S
C1186 C1184 1.391 . S
C1186 C1187 1.400 . S
C1187 C1186 1.400 . S
C1187 C1188 1.398 . S
C1187 C1193 1.491 . S
C1188 H1179 0.950 . S
C1188 C1187 1.398 . S
C1188 C1189 1.391 . S
C1189 H1177 0.950 . S
C1189 C1185 1.393 . S
C1189 C1188 1.391 . S
C1190 H1180 0.950 . S
C1190 C1191 1.386 . S
C1190 C1192 1.391 . S
C1191 C1190 1.386 . S
C1191 C1195 1.393 . S
C1192 H1181 0.950 . S
C1192 C1190 1.391 . S
C1192 C1193 1.400 . S
C1193 C1187 1.491 . S
C1193 C1192 1.400 . S
C1193 C1194 1.398 . S
C1194 H1182 0.950 . S
C1194 C1193 1.398 . S
C1194 C1195 1.391 . S
C1195 H1183 0.950 . S
C1195 C1191 1.393 . S
C1195 C1194 1.391 . S
H1196 C1204 0.950 . S
H1197 C1209 0.950 . S
H1198 C1206 0.950 . S
H1199 C1208 0.950 . S
H1200 C1210 0.950 . S
H1201 C1212 0.950 . S
H1202 C1214 0.950 . S
H1203 C1215 0.950 . S
C1204 H1196 0.950 . S
C1204 C1205 1.386 . S
C1204 C1206 1.391 . S
C1205 C1204 1.386 . S
C1205 C1209 1.393 . S
C1206 H1198 0.950 . S
C1206 C1204 1.391 . S
C1206 C1207 1.400 . S
C1207 C1206 1.400 . S
C1207 C1208 1.398 . S
C1207 C1213 1.491 . S
C1208 H1199 0.950 . S
C1208 C1207 1.398 . S
C1208 C1209 1.391 . S
C1209 H1197 0.950 . S
C1209 C1205 1.393 . S
C1209 C1208 1.391 . S
C1210 H1200 0.950 . S
C1210 C1211 1.386 . S
C1210 C1212 1.391 . S
C1211 C1210 1.386 . S
C1211 C1215 1.393 . S
C1212 H1201 0.950 . S
C1212 C1210 1.391 . S
C1212 C1213 1.400 . S
C1213 C1207 1.491 . S
C1213 C1212 1.400 . S
C1213 C1214 1.398 . S
C1214 H1202 0.950 . S
C1214 C1213 1.398 . S
C1214 C1215 1.391 . S
C1215 H1203 0.950 . S
C1215 C1211 1.393 . S
C1215 C1214 1.391 . S
H1216 C1224 0.950 . S
H1217 C1229 0.950 . S
H1218 C1226 0.950 . S
H1219 C1228 0.950 . S
H1220 C1230 0.950 . S
H1221 C1232 0.950 . S
H1222 C1234 0.950 . S
H1223 C1235 0.950 . S
C1224 H1216 0.950 . S
C1224 C1225 1.386 . S
C1224 C1226 1.391 . S
C1225 C1224 1.386 . S
C1225 C1229 1.393 . S
C1226 H1218 0.950 . S
C1226 C1224 1.391 . S
C1226 C1227 1.400 . S
C1227 C1226 1.400 . S
C1227 C1228 1.398 . S
C1227 C1233 1.491 . S
C1228 H1219 0.950 . S
C1228 C1227 1.398 . S
C1228 C1229 1.391 . S
C1229 H1217 0.950 . S
C1229 C1225 1.393 . S
C1229 C1228 1.391 . S
C1230 H1220 0.950 . S
C1230 C1231 1.386 . S
C1230 C1232 1.391 . S
C1231 C1230 1.386 . S
C1231 C1235 1.393 . S
C1232 H1221 0.950 . S
C1232 C1230 1.391 . S
C1232 C1233 1.400 . S
C1233 C1227 1.491 . S
C1233 C1232 1.400 . S
C1233 C1234 1.398 . S
C1234 H1222 0.950 . S
C1234 C1233 1.398 . S
C1234 C1235 1.391 . S
C1235 H1223 0.950 . S
C1235 C1231 1.393 . S
C1235 C1234 1.391 . S
H1236 C1244 0.950 . S
H1237 C1249 0.950 . S
H1238 C1246 0.950 . S
H1239 C1248 0.950 . S
H1240 C1250 0.950 . S
H1241 C1252 0.950 . S
H1242 C1254 0.950 . S
H1243 C1255 0.950 . S
C1244 H1236 0.950 . S
C1244 C1245 1.386 . S
C1244 C1246 1.391 . S
C1245 C1244 1.386 . S
C1245 C1249 1.393 . S
C1246 H1238 0.950 . S
C1246 C1244 1.391 . S
C1246 C1247 1.400 . S
C1247 C1246 1.400 . S
C1247 C1248 1.398 . S
C1247 C1253 1.491 . S
C1248 H1239 0.950 . S
C1248 C1247 1.398 . S
C1248 C1249 1.391 . S
C1249 H1237 0.950 . S
C1249 C1245 1.393 . S
C1249 C1248 1.391 . S
C1250 H1240 0.950 . S
C1250 C1251 1.386 . S
C1250 C1252 1.391 . S
C1251 C1250 1.386 . S
C1251 C1255 1.393 . S
C1252 H1241 0.950 . S
C1252 C1250 1.391 . S
C1252 C1253 1.400 . S
C1253 C1247 1.491 . S
C1253 C1252 1.400 . S
C1253 C1254 1.398 . S
C1254 H1242 0.950 . S
C1254 C1253 1.398 . S
C1254 C1255 1.391 . S
C1255 H1243 0.950 . S
C1255 C1251 1.393 . S
C1255 C1254 1.391 . S
H1256 C1264 0.950 . S
H1257 C1269 0.950 . S
H1258 C1266 0.950 . S
H1259 C1268 0.950 . S
H1260 C1270 0.950 . S
H1261 C1272 0.950 . S
H1262 C1274 0.950 . S
H1263 C1275 0.950 . S
C1264 H1256 0.950 . S
C1264 C1265 1.386 . S
C1264 C1266 1.391 . S
C1265 C1264 1.386 . S
C1265 C1269 1.393 . S
C1266 H1258 0.950 . S
C1266 C1264 1.391 . S
C1266 C1267 1.400 . S
C1267 C1266 1.400 . S
C1267 C1268 1.398 . S
C1267 C1273 1.491 . S
C1268 H1259 0.950 . S
C1268 C1267 1.398 . S
C1268 C1269 1.391 . S
C1269 H1257 0.950 . S
C1269 C1265 1.393 . S
C1269 C1268 1.391 . S
C1270 H1260 0.950 . S
C1270 C1271 1.386 . S
C1270 C1272 1.391 . S
C1271 C1270 1.386 . S
C1271 C1275 1.393 . S
C1272 H1261 0.950 . S
C1272 C1270 1.391 . S
C1272 C1273 1.400 . S
C1273 C1267 1.491 . S
C1273 C1272 1.400 . S
C1273 C1274 1.398 . S
C1274 H1262 0.950 . S
C1274 C1273 1.398 . S
C1274 C1275 1.391 . S
C1275 H1263 0.950 . S
C1275 C1271 1.393 . S
C1275 C1274 1.391 . S
H1276 C1284 0.950 . S
H1277 C1289 0.950 . S
H1278 C1286 0.950 . S
H1279 C1288 0.950 . S
H1280 C1290 0.950 . S
H1281 C1292 0.950 . S
H1282 C1294 0.950 . S
H1283 C1295 0.950 . S
C1284 H1276 0.950 . S
C1284 C1285 1.386 . S
C1284 C1286 1.391 . S
C1285 C1284 1.386 . S
C1285 C1289 1.393 . S
C1286 H1278 0.950 . S
C1286 C1284 1.391 . S
C1286 C1287 1.400 . S
C1287 C1286 1.400 . S
C1287 C1288 1.398 . S
C1287 C1293 1.491 . S
C1288 H1279 0.950 . S
C1288 C1287 1.398 . S
C1288 C1289 1.391 . S
C1289 H1277 0.950 . S
C1289 C1285 1.393 . S
C1289 C1288 1.391 . S
C1290 H1280 0.950 . S
C1290 C1291 1.386 . S
C1290 C1292 1.391 . S
C1291 C1290 1.386 . S
C1291 C1295 1.393 . S
C1292 H1281 0.950 . S
C1292 C1290 1.391 . S
C1292 C1293 1.400 . S
C1293 C1287 1.491 . S
C1293 C1292 1.400 . S
C1293 C1294 1.398 . S
C1294 H1282 0.950 . S
C1294 C1293 1.398 . S
C1294 C1295 1.391 . S
C1295 H1283 0.950 . S
C1295 C1291 1.393 . S
C1295 C1294 1.391 . S
C345 C14 1.364 1_556 S
C351 C164 1.379 . S
C365 C38 1.352 . S
C371 C98 1.385 1_554 S
C385 C119 1.370 . S
C391 C56 1.374 . S
C405 C77 1.350 . S
C411 C140 1.386 . S
C425 C249 1.253 . S
C431 C102 1.215 1_554 S
C445 C186 1.251 . S
C451 C18 1.228 1_556 S
C465 C225 1.229 . S
C471 C144 1.250 . S
C485 C60 1.238 . S
C491 C204 1.228 . S
C505 C206 1.353 . S
C511 C266 1.385 . S
C525 C227 1.376 . S
C531 C308 1.342 . S
C545 C287 1.376 1_556 S
C551 C182 1.342 . S
C565 C245 1.381 . S
C571 C329 1.361 1_554 S
C585 C312 1.213 . S
C591 C81 1.261 . S
C605 C270 1.220 . S
C611 C123 1.247 . S
C625 C36 1.258 . S
C631 C333 1.218 1_554 S
C645 C162 1.258 . S
C651 C291 1.218 1_556 S
C665 C286 0.933 . S
C671 C13 0.991 . S
C685 C244 0.973 . S
C691 C37 0.960 . S
C705 C265 0.969 . S
C711 C55 0.954 . S
C725 C226 0.937 . S
C731 C76 0.986 . S
C745 C97 0.999 . S
C751 C328 0.928 . S
C765 C205 0.927 . S
C771 C118 0.999 . S
C785 C139 0.927 . S
C791 C307 0.998 . S
C805 C163 0.936 . S
C811 C181 0.993 . S
C825 C16 1.093 . S
C831 C100 1.093 . S
C845 C34 1.068 . S
C851 C121 1.068 . S
C865 C142 1.084 . S
C871 C58 1.083 . S
C885 C79 1.067 . S
C891 C160 1.066 . S
C905 C223 1.096 . S
C911 C184 1.097 . S
C925 C247 1.099 . S
C931 C202 1.099 . S
C945 C268 1.091 . S
C951 C310 1.091 . S
C965 C331 1.077 . S
C971 C289 1.077 . S
C985 C17 1.414 . S
C991 C161 1.414 . S
C1005 C35 1.411 . S
C1011 C101 1.415 . S
C1025 C122 1.408 1_556 S
C1031 C59 1.414 . S
C1045 C143 1.406 . S
C1051 C80 1.412 1_554 S
C1065 C246 1.311 . S
C1071 C99 1.300 . S
C1085 C183 1.320 . S
C1091 C15 1.306 . S
C1105 C228 1.310 1_554 S
C1111 C141 1.322 . S
C1125 C57 1.321 . S
C1131 C207 1.318 1_556 S
C1145 C269 1.415 . S
C1151 C203 1.411 1_556 S
C1165 C311 1.410 . S
C1171 C224 1.404 1_554 S
C1185 C290 1.409 . S
C1191 C185 1.403 . S
C1205 C332 1.403 . S
C1211 C248 1.402 . S
C1225 C309 1.304 . S
C1231 C78 1.302 1_554 S
C1245 C120 1.322 1_556 S
C1251 C267 1.315 . S
C1265 C39 1.308 . S
C1271 C330 1.300 . S
C1285 C288 1.303 . S
C1291 C165 1.303 . S
