# Generated by pormake.
# Topology ukg, (4)-cn, num edge types: 1
# Building blocks:
#     Node 0, Type 0, BuildingBlock: CEKHIL_clean_sbu_0, # of connection points: 4
#     Node 1, Type 0, BuildingBlock: CEKHIL_clean_sbu_0, # of connection points: 4
#     Node 2, Type 0, BuildingBlock: CEKHIL_clean_sbu_0, # of connection points: 4
#     Node 3, Type 0, BuildingBlock: CEKHIL_clean_sbu_0, # of connection points: 4
#     Node 4, Type 0, BuildingBlock: CEKHIL_clean_sbu_0, # of connection points: 4
#     Node 5, Type 0, BuildingBlock: CEKHIL_clean_sbu_0, # of connection points: 4
#     Node 6, Type 0, BuildingBlock: CEKHIL_clean_sbu_0, # of connection points: 4
#     Node 7, Type 0, BuildingBlock: CEKHIL_clean_sbu_0, # of connection points: 4
#     Edge 8, Type (0, 0), BuildingBlock: CIFDUS_clean_linker_0, # of connection points: 2
#     Edge 9, Type (0, 0), BuildingBlock: CIFDUS_clean_linker_0, # of connection points: 2
#     Edge 10, Type (0, 0), BuildingBlock: CIFDUS_clean_linker_0, # of connection points: 2
#     Edge 11, Type (0, 0), BuildingBlock: CIFDUS_clean_linker_0, # of connection points: 2
#     Edge 12, Type (0, 0), BuildingBlock: CIFDUS_clean_linker_0, # of connection points: 2
#     Edge 13, Type (0, 0), BuildingBlock: CIFDUS_clean_linker_0, # of connection points: 2
#     Edge 14, Type (0, 0), BuildingBlock: CIFDUS_clean_linker_0, # of connection points: 2
#     Edge 15, Type (0, 0), BuildingBlock: CIFDUS_clean_linker_0, # of connection points: 2
#     Edge 16, Type (0, 0), BuildingBlock: CIFDUS_clean_linker_0, # of connection points: 2
#     Edge 17, Type (0, 0), BuildingBlock: CIFDUS_clean_linker_0, # of connection points: 2
#     Edge 18, Type (0, 0), BuildingBlock: CIFDUS_clean_linker_0, # of connection points: 2
#     Edge 19, Type (0, 0), BuildingBlock: CIFDUS_clean_linker_0, # of connection points: 2
#     Edge 20, Type (0, 0), BuildingBlock: CIFDUS_clean_linker_0, # of connection points: 2
#     Edge 21, Type (0, 0), BuildingBlock: CIFDUS_clean_linker_0, # of connection points: 2
#     Edge 22, Type (0, 0), BuildingBlock: CIFDUS_clean_linker_0, # of connection points: 2
#     Edge 23, Type (0, 0), BuildingBlock: CIFDUS_clean_linker_0, # of connection points: 2
# Relax obj value: 0.122
# Max RMSD: 0.207
# Mean RMSD: 0.201
data_MOF--net-ukg--node1-CEKHIL_clean_sbu_0--edge1-CIFDUS_clean_linker_0
_symmetry_space_group_name_H-M    P1
_symmetry_Int_Tables_number       1
_symmetry_cell_setting            triclinic
loop_
_symmetry_equiv_pos_as_xyz
'x, y, z'
_cell_length_a     26.480314
_cell_length_b     26.035663
_cell_length_c     32.977824
_cell_angle_alpha  90.194991
_cell_angle_beta   90.093601
_cell_angle_gamma 89.620413
loop_
_atom_site_label
_atom_site_type_symbol
_atom_site_fract_x
_atom_site_fract_y
_atom_site_fract_z
_atom_type_partial_charge
Co0 Co 0.0358 0.61639 0.15456 0.0
O1 O 0.05989 0.55234 0.13242 0.0
O2 O 0.04684 0.6225 0.09638 0.0
C3 C 0.96989 0.58367 0.18908 0.0
O4 O 0.00836 0.68823 0.16804 0.0
Co5 Co 0.03786 0.63 0.24872 0.0
O6 O 0.99073 0.68675 0.23504 0.0
C7 C 0.13103 0.64714 0.20145 0.0
C8 C 0.05797 0.57366 0.09704 0.0
C9 C 0.98801 0.70767 0.20019 0.0
O10 O 0.10702 0.63993 0.16784 0.0
O11 O 0.11109 0.64066 0.23641 0.0
O12 O 0.96677 0.59242 0.15054 0.0
O13 O 0.01463 0.58802 0.20442 0.0
Co14 Co 0.33987 0.50501 0.63344 0.0
O15 O 0.40166 0.51853 0.60543 0.0
O16 O 0.32995 0.5004 0.57467 0.0
C17 C 0.37464 0.44777 0.67665 0.0
O18 O 0.26949 0.48756 0.65542 0.0
Co19 Co 0.3397 0.53526 0.72581 0.0
O20 O 0.27121 0.5058 0.72266 0.0
C21 C 0.31257 0.6124 0.66339 0.0
C22 C 0.37844 0.50848 0.57192 0.0
C23 C 0.24847 0.49045 0.69076 0.0
O24 O 0.32031 0.58022 0.63431 0.0
O25 O 0.32139 0.60262 0.70076 0.0
O26 O 0.36068 0.43396 0.64065 0.0
O27 O 0.37247 0.49649 0.68381 0.0
Co28 Co 0.46567 0.88009 0.16241 0.0
O29 O 0.43696 0.94369 0.14358 0.0
O30 O 0.46027 0.87946 0.10351 0.0
C31 C 0.5243 0.91554 0.20371 0.0
O32 O 0.49781 0.80949 0.17205 0.0
Co33 Co 0.45817 0.8536 0.2541 0.0
O34 O 0.51353 0.80579 0.2391 0.0
C35 C 0.37337 0.82746 0.19885 0.0
C36 C 0.44287 0.92616 0.10711 0.0
C37 C 0.51877 0.7884 0.20317 0.0
O38 O 0.39627 0.84843 0.16869 0.0
O39 O 0.39098 0.82756 0.23507 0.0
O40 O 0.5323 0.91079 0.16516 0.0
O41 O 0.47912 0.90451 0.21556 0.0
Co42 Co 0.169 -0.00208 0.62866 0.0
O43 O 0.10618 0.98543 0.60105 0.0
O44 O 0.1753 0.01165 0.57054 0.0
C45 C 0.13469 0.04481 0.67918 0.0
O46 O 0.23971 0.01662 0.6501 0.0
Co47 Co 0.17869 0.95274 0.71651 0.0
O48 O 0.2436 0.98971 0.71531 0.0
C49 C 0.18885 0.8849 0.64533 0.0
C50 C 0.12739 0.00059 0.56797 0.0
C51 C 0.26279 0.01175 0.68455 0.0
O52 O 0.19067 0.92373 0.62129 0.0
O53 O 0.1779 0.88869 0.68302 0.0
O54 O 0.14481 0.06588 0.64459 0.0
O55 O 0.14034 0.99568 0.68048 0.0
Co56 Co 0.97287 0.30626 0.86548 0.0
O57 O 0.92446 0.27418 0.90009 0.0
O58 O 0.90954 0.345 0.86519 0.0
C59 C 0.99494 0.23466 0.83146 0.0
O60 O 0.01551 0.34613 0.82404 0.0
Co61 Co 0.08473 0.27213 0.87596 0.0
O62 O 0.08811 0.30039 0.82034 0.0
C63 C 0.0419 0.34731 0.9333 0.0
C64 C 0.89215 0.30819 0.88788 0.0
C65 C 0.05739 0.33374 0.80617 0.0
O66 O 1.00085 0.34881 0.91219 0.0
O67 O 0.07832 0.31613 0.92581 0.0
O68 O 0.95424 0.25977 0.82224 0.0
O69 O 0.01687 0.24909 0.86474 0.0
Co70 Co 0.6262 0.46817 0.33943 0.0
O71 O 0.56092 0.45406 0.36222 0.0
O72 O 0.63122 0.46008 0.39794 0.0
C73 C 0.60217 0.53628 0.30188 0.0
O74 O 0.69931 0.4853 0.32478 0.0
Co75 Co 0.63705 0.45602 0.2456 0.0
O76 O 0.69763 0.49791 0.25707 0.0
C77 C 0.64644 0.36453 0.29778 0.0
C78 C 0.58221 0.45535 0.39754 0.0
C79 C 0.71951 0.50098 0.2915 0.0
O80 O 0.64122 0.3925 0.32987 0.0
O81 O 0.64172 0.38206 0.26172 0.0
O82 O 0.61126 0.54118 0.34026 0.0
O83 O 0.60049 0.48949 0.28867 0.0
Co84 Co 0.52787 0.20073 0.87067 0.0
O85 O 0.5788 0.23002 0.90506 0.0
O86 O 0.59286 0.16778 0.86059 0.0
C87 C 0.49619 0.27598 0.84911 0.0
O88 O 0.48328 0.16487 0.82778 0.0
Co89 Co 0.41551 0.22032 0.89183 0.0
O90 O 0.40716 0.2034 0.83363 0.0
C91 C 0.47083 0.13854 0.93508 0.0
C92 C 0.61104 0.20074 0.88654 0.0
C93 C 0.43869 0.17581 0.81397 0.0
O94 O 0.50995 0.14757 0.91304 0.0
O95 O 0.43021 0.16537 0.93291 0.0
O96 O 0.53672 0.25658 0.83315 0.0
O97 O 0.47965 0.2528 0.88112 0.0
Co98 Co 0.88001 0.0238 0.33185 0.0
O99 O 0.9401 0.04875 0.35843 0.0
O100 O 0.87354 0.01889 0.39055 0.0
C101 C 0.92145 0.97274 0.28729 0.0
O102 O 0.81258 0.99218 0.31368 0.0
Co103 Co 0.86275 0.04616 0.24014 0.0
O104 O 0.81511 0.98842 0.2454 0.0
C105 C 0.82806 0.1217 0.30217 0.0
C106 C 0.91986 0.03539 0.39247 0.0
C107 C 0.79524 0.97649 0.2792 0.0
O108 O 0.84745 0.09473 0.33112 0.0
O109 O 0.83182 0.10949 0.26462 0.0
O110 O 0.91251 0.95752 0.32388 0.0
O111 O 0.90981 0.02004 0.27969 0.0
H112 H 0.01408 0.44859 0.93616 0.0
H113 H 0.08717 0.32939 0.00575 0.0
H114 H 0.10245 0.39004 0.06104 0.0
H115 H 0.09299 0.47602 0.09055 0.0
H116 H 0.02321 0.59704 0.02079 0.0
H117 H 0.01003 0.5372 0.96427 0.0
C118 C 0.033 0.43596 0.9636 0.0
C119 C 0.04875 0.38433 0.96715 0.0
C120 C 0.04302 0.47156 0.99494 0.0
C121 C 0.07435 0.36876 0.00242 0.0
C122 C 0.08328 0.40348 0.03398 0.0
C123 C 0.07559 0.4896 0.06274 0.0
C124 C 0.05911 0.54102 0.05998 0.0
C125 C 0.06775 0.45491 0.03061 0.0
C126 C 0.03672 0.55787 0.02365 0.0
C127 C 0.02863 0.52345 0.99148 0.0
H128 H 0.48005 0.50233 0.56623 0.0
H129 H 0.34461 0.4921 0.49376 0.0
H130 H 0.39597 0.47132 0.43388 0.0
H131 H 0.47949 0.4568 0.40244 0.0
H132 H 0.61414 0.46607 0.47607 0.0
H133 H 0.56251 0.48535 0.53567 0.0
C134 C 0.46151 0.49599 0.53732 0.0
C135 C 0.40838 0.49944 0.53443 0.0
C136 C 0.49113 0.48308 0.50346 0.0
C137 C 0.38531 0.49023 0.49678 0.0
C138 C 0.41471 0.47804 0.46263 0.0
C139 C 0.49761 0.46238 0.43162 0.0
C140 C 0.55082 0.45979 0.43473 0.0
C141 C 0.46765 0.4742 0.46569 0.0
C142 C 0.57345 0.46747 0.47278 0.0
C143 C 0.54391 0.4789 0.50681 0.0
H144 H 0.5062 0.94027 0.04345 0.0
H145 H 0.36574 0.99292 0.09516 0.0
H146 H 0.36113 0.06249 0.04562 0.0
H147 H 0.40001 0.11203 0.99114 0.0
H148 H 0.54377 0.06351 0.94208 0.0
H149 H 0.54447 0.98932 0.98725 0.0
C150 C 0.47402 0.96625 0.04304 0.0
C151 C 0.43584 0.96107 0.07233 0.0
C152 C 0.47283 0.00765 0.01557 0.0
C153 C 0.39514 0.99587 0.07248 0.0
C154 C 0.39275 0.03589 0.04442 0.0
C155 C 0.43155 0.08529 0.99015 0.0
C156 C 0.47189 0.09382 0.96322 0.0
C157 C 0.43196 0.04287 0.01645 0.0
C158 C 0.51233 0.05842 0.96262 0.0
C159 C 0.51267 0.0157 0.98834 0.0
H160 H 0.02115 0.05123 0.40008 0.0
H161 H 0.88925 0.00973 0.46905 0.0
H162 H 0.94222 0.9944 0.52869 0.0
H163 H 0.02589 0.99021 0.56061 0.0
H164 H 0.15829 0.03105 0.49209 0.0
H165 H 0.10518 0.04854 0.43264 0.0
C166 C 0.0038 0.03943 0.42828 0.0
C167 C 0.95102 0.03194 0.43003 0.0
C168 C 0.0347 0.02982 0.46232 0.0
C169 C 0.92952 0.01613 0.4668 0.0
C170 C 0.95991 0.00704 0.50087 0.0
C171 C 0.04338 0.0027 0.53265 0.0
C172 C 0.09628 0.00891 0.53083 0.0
C173 C 0.01255 0.01316 0.49883 0.0
C174 C 0.11789 0.02559 0.49435 0.0
C175 C 0.08743 0.03582 0.4604 0.0
H176 H 0.17068 0.71529 0.1471 0.0
H177 H 0.2058 0.63092 0.25611 0.0
H178 H 0.28336 0.67958 0.26459 0.0
H179 H 0.33794 0.74962 0.2443 0.0
H180 H 0.30542 0.83531 0.13551 0.0
H181 H 0.22993 0.78294 0.12385 0.0
C182 C 0.19599 0.70678 0.17211 0.0
C183 C 0.18244 0.66941 0.20094 0.0
C184 C 0.24034 0.73592 0.17738 0.0
C185 C 0.21527 0.65942 0.23354 0.0
C186 C 0.25949 0.68749 0.23858 0.0
C187 C 0.31425 0.7573 0.21811 0.0
C188 C 0.32683 0.79717 0.19129 0.0
C189 C 0.27166 0.72668 0.21135 0.0
C190 C 0.29632 0.80533 0.15694 0.0
C191 C 0.25326 0.77523 0.15019 0.0
H192 H 0.32618 0.69313 0.61027 0.0
H193 H 0.22476 0.63053 0.69935 0.0
H194 H 0.17068 0.70598 0.69459 0.0
H195 H 0.15831 0.79368 0.67287 0.0
H196 H 0.26147 0.86236 0.58833 0.0
H197 H 0.3076 0.78057 0.58225 0.0
C198 C 0.29194 0.69615 0.62812 0.0
C199 C 0.27988 0.65719 0.65581 0.0
C200 C 0.26126 0.74064 0.62597 0.0
C201 C 0.23523 0.66084 0.67858 0.0
C202 C 0.20413 0.70375 0.67573 0.0
C203 C 0.19023 0.79045 0.65238 0.0
C204 C 0.2069 0.83397 0.63156 0.0
C205 C 0.21766 0.7445 0.65064 0.0
C206 C 0.24783 0.82921 0.60465 0.0
C207 C 0.27465 0.78265 0.60164 0.0
H208 H 0.65419 0.29334 0.89654 0.0
H209 H 0.69004 0.13247 0.88257 0.0
H210 H 0.78051 0.1522 0.88544 0.0
H211 H 0.84869 0.21542 0.88912 0.0
H212 H 0.81328 0.3772 0.89439 0.0
H213 H 0.72278 0.3571 0.89786 0.0
C214 C 0.68189 0.26254 0.89463 0.0
C215 C 0.66567 0.21134 0.89003 0.0
C216 C 0.73357 0.27452 0.89461 0.0
C217 C 0.70174 0.17198 0.88642 0.0
C218 C 0.75332 0.18334 0.88803 0.0
C219 C 0.8212 0.24635 0.89161 0.0
C220 C 0.83756 0.2978 0.8923 0.0
C221 C 0.76958 0.23448 0.89181 0.0
C222 C 0.80154 0.33742 0.89423 0.0
C223 C 0.74993 0.32585 0.89612 0.0
H224 H 0.71448 0.32708 0.35289 0.0
H225 H 0.62474 0.28359 0.24911 0.0
H226 H 0.67211 0.20336 0.24303 0.0
H227 H 0.74458 0.1506 0.2619 0.0
H228 H 0.83627 0.19184 0.36493 0.0
H229 H 0.78271 0.26806 0.37669 0.0
C230 C 0.70436 0.29926 0.32976 0.0
C231 C 0.66609 0.31131 0.30142 0.0
C232 C 0.73292 0.25356 0.32569 0.0
C233 C 0.65395 0.27526 0.27123 0.0
C234 C 0.68132 0.22956 0.26753 0.0
C235 C 0.75299 0.17627 0.28697 0.0
C236 C 0.79513 0.1664 0.31188 0.0
C237 C 0.72197 0.21929 0.2936 0.0
C238 C 0.80446 0.19905 0.34501 0.0
C239 C 0.77379 0.24252 0.35171 0.0
H240 H 0.74825 0.58439 0.25189 0.0
H241 H 0.80572 0.4628 0.32746 0.0
H242 H 0.89247 0.48294 0.30643 0.0
H243 H 0.94947 0.52549 0.25645 0.0
H244 H 0.88638 0.63959 0.17607 0.0
H245 H 0.80472 0.63252 0.20896 0.0
C246 C 0.78 0.56328 0.26463 0.0
C247 C 0.77096 0.52207 0.2908 0.0
C248 C 0.82875 0.57319 0.25073 0.0
C249 C 0.81204 0.49499 0.30741 0.0
C250 C 0.86148 0.50604 0.29488 0.0
C251 C 0.9179 0.54925 0.24684 0.0
C252 C 0.92352 0.58252 0.21363 0.0
C253 C 0.87001 0.54345 0.26497 0.0
C254 C 0.88259 0.61317 0.2012 0.0
C255 C 0.83592 0.60929 0.22003 0.0
H256 H 0.38018 0.45505 0.75947 0.0
H257 H 0.41398 0.35543 0.65792 0.0
H258 H 0.45214 0.29281 0.70316 0.0
H259 H 0.48044 0.26853 0.7701 0.0
H260 H 0.44369 0.36218 0.87395 0.0
H261 H 0.40163 0.42525 0.82936 0.0
C262 C 0.39588 0.41955 0.74749 0.0
C263 C 0.395 0.41006 0.70547 0.0
C264 C 0.41713 0.38295 0.77391 0.0
C265 C 0.41446 0.36363 0.69016 0.0
C266 C 0.43637 0.32782 0.71593 0.0
C267 C 0.46283 0.3026 0.78304 0.0
C268 C 0.4654 0.31142 0.82487 0.0
C269 C 0.43852 0.33747 0.75761 0.0
C270 C 0.44193 0.35498 0.84161 0.0
C271 C 0.41825 0.39095 0.81615 0.0
H272 H 0.61293 0.86583 0.2023 0.0
H273 H 0.53105 0.9834 0.26715 0.0
H274 H 0.60848 0.00724 0.30381 0.0
H275 H 0.70239 0.00331 0.30815 0.0
H276 H 0.78227 0.88621 0.24084 0.0
H277 H 0.70276 0.8521 0.21556 0.0
C278 C 0.61194 0.89599 0.22511 0.0
C279 C 0.56698 0.92352 0.23171 0.0
C280 C 0.65632 0.90929 0.24572 0.0
C281 C 0.56556 0.96194 0.26161 0.0
C282 C 0.60983 0.97563 0.28237 0.0
C283 C 0.70201 0.96904 0.28936 0.0
C284 C 0.74801 0.94702 0.27652 0.0
C285 C 0.6559 0.95077 0.27355 0.0
C286 C 0.7473 0.90338 0.2514 0.0
C287 C 0.70187 0.88427 0.23651 0.0
H288 H 0.05698 0.15072 0.84049 0.0
H289 H 0.98928 0.251 0.75138 0.0
H290 H 0.02933 0.20296 0.69699 0.0
H291 H 0.08135 0.13175 0.6741 0.0
H292 H 0.14317 0.02454 0.76045 0.0
H293 H 0.1079 0.07567 0.81657 0.0
C294 C 0.05128 0.16178 0.80913 0.0
C295 C 0.02027 0.20409 0.79988 0.0
C296 C 0.07327 0.1328 0.77756 0.0
C297 C 0.01256 0.2181 0.75921 0.0
C298 C 0.03559 0.19085 0.72803 0.0
C299 C 0.08737 0.11977 0.70524 0.0
C300 C 0.1149 0.07495 0.71338 0.0
C301 C 0.06569 0.14807 0.73682 0.0
C302 C 0.12188 0.05913 0.75369 0.0
C303 C 0.1018 0.08832 0.78566 0.0
H304 H 0.06017 0.43634 0.78964 0.0
H305 H 0.09538 0.28729 0.73975 0.0
H306 H 0.15096 0.32575 0.68984 0.0
H307 H 0.20561 0.39862 0.67278 0.0
H308 H 0.17484 0.54685 0.72578 0.0
H309 H 0.10132 0.51278 0.7609 0.0
C310 C 0.07822 0.41274 0.76661 0.0
C311 C 0.07404 0.35913 0.76856 0.0
C312 C 0.11207 0.43506 0.73891 0.0
C313 C 0.09811 0.32874 0.73885 0.0
C314 C 0.1304 0.35068 0.7105 0.0
C315 C 0.18127 0.42383 0.69041 0.0
C316 C 0.19564 0.47488 0.69702 0.0
C317 C 0.14015 0.4034 0.71192 0.0
C318 C 0.16436 0.50722 0.72044 0.0
C319 C 0.12259 0.48764 0.74088 0.0
H320 H 0.54582 0.55672 0.23398 0.0
H321 H 0.66326 0.61734 0.31085 0.0
H322 H 0.65678 0.70037 0.27754 0.0
H323 H 0.60582 0.75972 0.23763 0.0
H324 H 0.48345 0.70312 0.16436 0.0
H325 H 0.50455 0.61467 0.18373 0.0
C326 C 0.57069 0.58788 0.24254 0.0
C327 C 0.604 0.58163 0.27539 0.0
C328 C 0.56564 0.63637 0.22398 0.0
C329 C 0.6364 0.6219 0.28626 0.0
C330 C 0.63288 0.66931 0.26716 0.0
C331 C 0.58518 0.72772 0.22463 0.0
C332 C 0.54305 0.73757 0.20002 0.0
C333 C 0.59589 0.67768 0.23755 0.0
C334 C 0.51635 0.69621 0.18319 0.0
C335 C 0.52788 0.64573 0.19487 0.0
H336 H 0.44775 0.07758 0.7849 0.0
H337 H 0.38511 0.22649 0.75693 0.0
H338 H 0.3317 0.18896 0.70463 0.0
H339 H 0.28896 0.11189 0.67863 0.0
H340 H 0.34683 0.96243 0.7102 0.0
H341 H 0.41621 0.00147 0.74797 0.0
C342 C 0.42389 0.1019 0.7662 0.0
C343 C 0.42003 0.15458 0.77504 0.0
C344 C 0.39158 0.07965 0.73701 0.0
C345 C 0.3885 0.18569 0.75086 0.0
C346 C 0.35762 0.16421 0.72105 0.0
C347 C 0.31824 0.08807 0.69209 0.0
C348 C 0.31299 0.0345 0.69159 0.0
C349 C 0.35675 0.1109 0.71543 0.0
C350 C 0.35044 0.00387 0.71001 0.0
C351 C 0.38978 0.0262 0.73207 0.0
H352 H 0.02739 0.8017 0.18503 0.0
H353 H 0.89006 0.72369 0.21667 0.0
H354 H 0.85327 0.80381 0.24135 0.0
H355 H 0.86795 0.89006 0.26786 0.0
H356 H 0.00447 0.9701 0.23818 0.0
H357 H 0.03439 0.89541 0.19893 0.0
C358 C 0.98859 0.80304 0.1955 0.0
C359 C 0.9612 0.75716 0.1989 0.0
C360 C 0.96834 0.84919 0.21116 0.0
C361 C 0.91143 0.75874 0.21338 0.0
C362 C 0.89067 0.80441 0.22804 0.0
C363 C 0.9033 0.89177 0.2514 0.0
C364 C 0.93411 0.93496 0.2557 0.0
C365 C 0.91988 0.84901 0.2292 0.0
C366 C 0.98021 0.937 0.23493 0.0
C367 C 0.99733 0.89425 0.21276 0.0
loop_
_geom_bond_atom_site_label_1
_geom_bond_atom_site_label_2
_geom_bond_distance
_geom_bond_site_symmetry_2
_ccdc_geom_bond_type
Co0 O1 2.216 . S
Co0 O2 2.091 . S
Co0 O4 2.004 1_455 S
Co0 O10 2.021 . S
Co0 O12 2.137 1_455 S
Co0 O13 2.244 . S
O1 Co0 2.216 . S
O1 C8 1.247 . S
O2 Co0 2.091 . S
O2 C8 1.261 . S
C3 O12 1.247 . S
C3 O13 1.272 1_655 S
O4 Co0 2.004 1_655 S
O4 C9 1.259 . S
Co5 O6 2.061 . S
Co5 O11 2.052 . S
Co5 O13 2.135 . S
O6 Co5 2.061 . S
O6 C9 1.235 1_455 S
C7 O10 1.238 . S
C7 O11 1.241 . S
C8 O1 1.247 . S
C8 O2 1.261 . S
C9 O4 1.259 . S
C9 O6 1.235 1_655 S
O10 Co0 2.021 . S
O10 C7 1.238 . S
O11 Co5 2.052 . S
O11 C7 1.241 . S
O12 Co0 2.137 1_655 S
O12 C3 1.247 . S
O13 Co0 2.244 . S
O13 C3 1.272 1_455 S
O13 Co5 2.135 . S
Co14 O15 2.216 . S
Co14 O16 2.091 . S
Co14 O18 2.004 . S
Co14 O24 2.021 . S
Co14 O26 2.137 . S
Co14 O27 2.244 . S
O15 Co14 2.216 . S
O15 C22 1.247 . S
O16 Co14 2.091 . S
O16 C22 1.261 . S
C17 O26 1.247 . S
C17 O27 1.272 . S
O18 Co14 2.004 . S
O18 C23 1.259 . S
Co19 O20 2.061 . S
Co19 O25 2.052 . S
Co19 O27 2.135 . S
O20 Co19 2.061 . S
O20 C23 1.235 . S
C21 O24 1.238 . S
C21 O25 1.241 . S
C22 O15 1.247 . S
C22 O16 1.261 . S
C23 O18 1.259 . S
C23 O20 1.235 . S
O24 Co14 2.021 . S
O24 C21 1.238 . S
O25 Co19 2.052 . S
O25 C21 1.241 . S
O26 Co14 2.137 . S
O26 C17 1.247 . S
O27 Co14 2.244 . S
O27 C17 1.272 . S
O27 Co19 2.135 . S
Co28 O29 2.216 . S
Co28 O30 2.091 . S
Co28 O32 2.004 . S
Co28 O38 2.021 . S
Co28 O40 2.137 . S
Co28 O41 2.244 . S
O29 Co28 2.216 . S
O29 C36 1.247 . S
O30 Co28 2.091 . S
O30 C36 1.261 . S
C31 O40 1.247 . S
C31 O41 1.272 . S
O32 Co28 2.004 . S
O32 C37 1.259 . S
Co33 O34 2.061 . S
Co33 O39 2.052 . S
Co33 O41 2.135 . S
O34 Co33 2.061 . S
O34 C37 1.235 . S
C35 O38 1.238 . S
C35 O39 1.241 . S
C36 O29 1.247 . S
C36 O30 1.261 . S
C37 O32 1.259 . S
C37 O34 1.235 . S
O38 Co28 2.021 . S
O38 C35 1.238 . S
O39 Co33 2.052 . S
O39 C35 1.241 . S
O40 Co28 2.137 . S
O40 C31 1.247 . S
O41 Co28 2.244 . S
O41 C31 1.272 . S
O41 Co33 2.135 . S
Co42 O43 2.216 . S
Co42 O44 2.091 1_565 S
Co42 O46 2.004 1_565 S
Co42 O52 2.021 . S
Co42 O54 2.137 1_565 S
Co42 O55 2.244 . S
O43 Co42 2.216 . S
O43 C50 1.247 . S
O44 Co42 2.091 1_545 S
O44 C50 1.261 1_545 S
C45 O54 1.247 . S
C45 O55 1.272 1_545 S
O46 Co42 2.004 1_545 S
O46 C51 1.259 . S
Co47 O48 2.061 . S
Co47 O53 2.052 . S
Co47 O55 2.135 . S
O48 Co47 2.061 . S
O48 C51 1.235 1_565 S
C49 O52 1.238 . S
C49 O53 1.241 . S
C50 O43 1.247 . S
C50 O44 1.261 1_565 S
C51 O46 1.259 . S
C51 O48 1.235 1_545 S
O52 Co42 2.021 . S
O52 C49 1.238 . S
O53 Co47 2.052 . S
O53 C49 1.241 . S
O54 Co42 2.137 1_545 S
O54 C45 1.247 . S
O55 Co42 2.244 . S
O55 C45 1.272 1_565 S
O55 Co47 2.135 . S
Co56 O57 2.216 . S
Co56 O58 2.091 . S
Co56 O60 2.004 1_655 S
Co56 O66 2.021 . S
Co56 O68 2.137 . S
Co56 O69 2.244 1_655 S
O57 Co56 2.216 . S
O57 C64 1.247 . S
O58 Co56 2.091 . S
O58 C64 1.261 . S
C59 O68 1.247 1_455 S
C59 O69 1.272 . S
O60 Co56 2.004 1_455 S
O60 C65 1.259 . S
Co61 O62 2.061 . S
Co61 O67 2.052 . S
Co61 O69 2.135 . S
O62 Co61 2.061 . S
O62 C65 1.235 . S
C63 O66 1.241 . S
C63 O67 1.237 1_655 S
C64 O57 1.247 . S
C64 O58 1.261 . S
C65 O60 1.259 . S
C65 O62 1.235 . S
O66 Co56 2.021 . S
O66 C63 1.241 . S
O67 Co61 2.052 . S
O67 C63 1.237 1_455 S
O68 Co56 2.137 . S
O68 C59 1.247 1_655 S
O69 Co56 2.244 1_455 S
O69 C59 1.272 . S
O69 Co61 2.135 . S
Co70 O71 2.216 . S
Co70 O72 2.091 . S
Co70 O74 2.004 . S
Co70 O80 2.021 . S
Co70 O82 2.137 . S
Co70 O83 2.244 . S
O71 Co70 2.216 . S
O71 C78 1.247 . S
O72 Co70 2.091 . S
O72 C78 1.261 . S
C73 O82 1.247 . S
C73 O83 1.272 . S
O74 Co70 2.004 . S
O74 C79 1.259 . S
Co75 O76 2.061 . S
Co75 O81 2.052 . S
Co75 O83 2.135 . S
O76 Co75 2.061 . S
O76 C79 1.235 . S
C77 O80 1.238 . S
C77 O81 1.241 . S
C78 O71 1.247 . S
C78 O72 1.261 . S
C79 O74 1.259 . S
C79 O76 1.235 . S
O80 Co70 2.021 . S
O80 C77 1.238 . S
O81 Co75 2.052 . S
O81 C77 1.241 . S
O82 Co70 2.137 . S
O82 C73 1.247 . S
O83 Co70 2.244 . S
O83 C73 1.272 . S
O83 Co75 2.135 . S
Co84 O85 2.216 . S
Co84 O86 2.091 . S
Co84 O88 2.004 . S
Co84 O94 2.021 . S
Co84 O96 2.137 . S
Co84 O97 2.244 . S
O85 Co84 2.216 . S
O85 C92 1.247 . S
O86 Co84 2.091 . S
O86 C92 1.261 . S
C87 O96 1.247 . S
C87 O97 1.272 . S
O88 Co84 2.004 . S
O88 C93 1.259 . S
Co89 O90 2.061 . S
Co89 O95 2.052 . S
Co89 O97 2.135 . S
O90 Co89 2.061 . S
O90 C93 1.235 . S
C91 O94 1.238 . S
C91 O95 1.241 . S
C92 O85 1.247 . S
C92 O86 1.261 . S
C93 O88 1.259 . S
C93 O90 1.235 . S
O94 Co84 2.021 . S
O94 C91 1.238 . S
O95 Co89 2.052 . S
O95 C91 1.241 . S
O96 Co84 2.137 . S
O96 C87 1.247 . S
O97 Co84 2.244 . S
O97 C87 1.272 . S
O97 Co89 2.135 . S
Co98 O99 2.216 . S
Co98 O100 2.091 1_545 S
Co98 O102 2.004 1_545 S
Co98 O108 2.021 . S
Co98 O110 2.137 1_545 S
Co98 O111 2.244 . S
O99 Co98 2.216 . S
O99 C106 1.247 . S
O100 Co98 2.091 1_565 S
O100 C106 1.261 1_565 S
C101 O110 1.247 . S
C101 O111 1.272 1_565 S
O102 Co98 2.004 1_565 S
O102 C107 1.259 . S
Co103 O104 2.061 . S
Co103 O109 2.052 . S
Co103 O111 2.135 . S
O104 Co103 2.061 . S
O104 C107 1.235 1_545 S
C105 O108 1.238 . S
C105 O109 1.241 . S
C106 O99 1.247 . S
C106 O100 1.261 1_545 S
C107 O102 1.259 . S
C107 O104 1.235 1_565 S
O108 Co98 2.021 . S
O108 C105 1.238 . S
O109 Co103 2.052 . S
O109 C105 1.241 . S
O110 Co98 2.137 1_565 S
O110 C101 1.247 . S
O111 Co98 2.244 . S
O111 C101 1.272 1_545 S
O111 Co103 2.135 . S
H112 C118 0.930 . S
H113 C121 0.930 . S
H114 C122 0.930 . S
H115 C123 0.930 . S
H116 C126 0.930 . S
H117 C127 0.930 . S
C118 H112 0.930 . S
C118 C119 1.361 . S
C118 C120 1.415 . S
C119 C118 1.361 . S
C119 C121 1.410 1_655 S
C120 C118 1.415 . S
C120 C125 1.425 1_655 S
C120 C127 1.409 1_556 S
C121 H113 0.930 . S
C121 C119 1.410 1_455 S
C121 C122 1.362 . S
C122 H114 0.930 . S
C122 C121 1.362 . S
C122 C125 1.409 . S
C123 H115 0.930 . S
C123 C124 1.355 . S
C123 C125 1.415 1_554 S
C124 C123 1.355 . S
C124 C126 1.419 1_455 S
C125 C120 1.425 1_455 S
C125 C122 1.409 . S
C125 C123 1.415 1_556 S
C126 H116 0.930 . S
C126 C124 1.419 1_655 S
C126 C127 1.362 . S
C127 H117 0.930 . S
C127 C120 1.409 1_554 S
C127 C126 1.362 . S
H128 C134 0.930 . S
H129 C137 0.930 . S
H130 C138 0.930 . S
H131 C139 0.930 . S
H132 C142 0.930 . S
H133 C143 0.930 . S
C134 H128 0.930 . S
C134 C135 1.355 . S
C134 C136 1.415 . S
C135 C134 1.355 . S
C135 C137 1.419 . S
C136 C134 1.415 . S
C136 C141 1.425 . S
C136 C143 1.409 . S
C137 H129 0.930 . S
C137 C135 1.419 . S
C137 C138 1.362 . S
C138 H130 0.930 . S
C138 C137 1.362 . S
C138 C141 1.409 . S
C139 H131 0.930 . S
C139 C140 1.355 . S
C139 C141 1.415 . S
C140 C139 1.355 . S
C140 C142 1.419 . S
C141 C136 1.425 . S
C141 C138 1.409 . S
C141 C139 1.415 . S
C142 H132 0.930 . S
C142 C140 1.419 . S
C142 C143 1.362 . S
C143 H133 0.930 . S
C143 C136 1.409 . S
C143 C142 1.362 . S
H144 C150 0.930 . S
H145 C153 0.930 . S
H146 C154 0.930 . S
H147 C155 0.930 . S
H148 C158 0.930 . S
H149 C159 0.934 . S
C150 H144 0.930 . S
C150 C151 1.355 . S
C150 C152 1.415 1_565 S
C151 C150 1.355 . S
C151 C153 1.419 . S
C152 C150 1.415 1_545 S
C152 C157 1.425 1_554 S
C152 C159 1.410 . S
C153 H145 0.930 . S
C153 C151 1.419 . S
C153 C154 1.362 1_554 S
C154 H146 0.930 . S
C154 C153 1.362 1_556 S
C154 C157 1.409 1_565 S
C155 H147 0.930 . S
C155 C156 1.355 . S
C155 C157 1.415 . S
C156 C155 1.355 . S
C156 C158 1.419 . S
C157 C152 1.425 1_556 S
C157 C154 1.409 1_545 S
C157 C155 1.415 . S
C158 H148 0.930 . S
C158 C156 1.419 . S
C158 C159 1.357 1_556 S
C159 H149 0.934 . S
C159 C152 1.410 . S
C159 C158 1.357 1_554 S
H160 C166 0.930 . S
H161 C169 0.930 . S
H162 C170 0.930 . S
H163 C171 0.930 . S
H164 C174 0.930 . S
H165 C175 0.930 . S
C166 H160 0.930 . S
C166 C167 1.355 . S
C166 C168 1.415 1_655 S
C167 C166 1.355 . S
C167 C169 1.419 1_545 S
C168 C166 1.415 1_455 S
C168 C173 1.425 1_445 S
C168 C175 1.409 . S
C169 H161 0.930 . S
C169 C167 1.419 1_565 S
C169 C170 1.362 . S
C170 H162 0.930 . S
C170 C169 1.362 . S
C170 C173 1.409 . S
C171 H163 0.930 . S
C171 C172 1.355 . S
C171 C173 1.415 1_455 S
C172 C171 1.355 . S
C172 C174 1.419 1_565 S
C173 C168 1.425 1_665 S
C173 C170 1.409 . S
C173 C171 1.415 1_655 S
C174 H164 0.930 . S
C174 C172 1.419 1_545 S
C174 C175 1.362 . S
C175 H165 0.930 . S
C175 C168 1.409 . S
C175 C174 1.362 . S
H176 C182 0.930 . S
H177 C185 0.930 . S
H178 C186 0.930 . S
H179 C187 0.930 . S
H180 C190 0.930 . S
H181 C191 0.930 . S
C182 H176 0.930 . S
C182 C183 1.355 . S
C182 C184 1.415 . S
C183 C182 1.355 . S
C183 C185 1.419 . S
C184 C182 1.415 . S
C184 C189 1.425 . S
C184 C191 1.409 . S
C185 H177 0.930 . S
C185 C183 1.419 . S
C185 C186 1.362 . S
C186 H178 0.930 . S
C186 C185 1.362 . S
C186 C189 1.409 . S
C187 H179 0.930 . S
C187 C188 1.355 . S
C187 C189 1.415 . S
C188 C187 1.355 . S
C188 C190 1.419 . S
C189 C184 1.425 . S
C189 C186 1.409 . S
C189 C187 1.415 . S
C190 H180 0.930 . S
C190 C188 1.419 . S
C190 C191 1.362 . S
C191 H181 0.930 . S
C191 C184 1.409 . S
C191 C190 1.362 . S
H192 C198 0.930 . S
H193 C201 0.930 . S
H194 C202 0.930 . S
H195 C203 0.930 . S
H196 C206 0.930 . S
H197 C207 0.930 . S
C198 H192 0.930 . S
C198 C199 1.355 . S
C198 C200 1.415 . S
C199 C198 1.355 . S
C199 C201 1.419 . S
C200 C198 1.415 . S
C200 C205 1.425 . S
C200 C207 1.409 . S
C201 H193 0.930 . S
C201 C199 1.419 . S
C201 C202 1.362 . S
C202 H194 0.930 . S
C202 C201 1.362 . S
C202 C205 1.409 . S
C203 H195 0.930 . S
C203 C204 1.355 . S
C203 C205 1.415 . S
C204 C203 1.355 . S
C204 C206 1.419 . S
C205 C200 1.425 . S
C205 C202 1.409 . S
C205 C203 1.415 . S
C206 H196 0.930 . S
C206 C204 1.419 . S
C206 C207 1.362 . S
C207 H197 0.930 . S
C207 C200 1.409 . S
C207 C206 1.362 . S
H208 C214 0.930 . S
H209 C217 0.930 . S
H210 C218 0.930 . S
H211 C219 0.930 . S
H212 C222 0.930 . S
H213 C223 0.930 . S
C214 H208 0.930 . S
C214 C215 1.355 . S
C214 C216 1.415 . S
C215 C214 1.355 . S
C215 C217 1.419 . S
C216 C214 1.415 . S
C216 C221 1.425 . S
C216 C223 1.409 . S
C217 H209 0.930 . S
C217 C215 1.419 . S
C217 C218 1.362 . S
C218 H210 0.930 . S
C218 C217 1.362 . S
C218 C221 1.409 . S
C219 H211 0.930 . S
C219 C220 1.355 . S
C219 C221 1.415 . S
C220 C219 1.355 . S
C220 C222 1.419 . S
C221 C216 1.425 . S
C221 C218 1.409 . S
C221 C219 1.415 . S
C222 H212 0.930 . S
C222 C220 1.419 . S
C222 C223 1.362 . S
C223 H213 0.930 . S
C223 C216 1.409 . S
C223 C222 1.362 . S
H224 C230 0.930 . S
H225 C233 0.930 . S
H226 C234 0.930 . S
H227 C235 0.930 . S
H228 C238 0.930 . S
H229 C239 0.930 . S
C230 H224 0.930 . S
C230 C231 1.355 . S
C230 C232 1.415 . S
C231 C230 1.355 . S
C231 C233 1.419 . S
C232 C230 1.415 . S
C232 C237 1.425 . S
C232 C239 1.409 . S
C233 H225 0.930 . S
C233 C231 1.419 . S
C233 C234 1.362 . S
C234 H226 0.930 . S
C234 C233 1.362 . S
C234 C237 1.409 . S
C235 H227 0.930 . S
C235 C236 1.355 . S
C235 C237 1.415 . S
C236 C235 1.355 . S
C236 C238 1.419 . S
C237 C232 1.425 . S
C237 C234 1.409 . S
C237 C235 1.415 . S
C238 H228 0.930 . S
C238 C236 1.419 . S
C238 C239 1.362 . S
C239 H229 0.930 . S
C239 C232 1.409 . S
C239 C238 1.362 . S
H240 C246 0.930 . S
H241 C249 0.930 . S
H242 C250 0.930 . S
H243 C251 0.930 . S
H244 C254 0.930 . S
H245 C255 0.930 . S
C246 H240 0.930 . S
C246 C247 1.355 . S
C246 C248 1.415 . S
C247 C246 1.355 . S
C247 C249 1.419 . S
C248 C246 1.415 . S
C248 C253 1.425 . S
C248 C255 1.409 . S
C249 H241 0.930 . S
C249 C247 1.419 . S
C249 C250 1.362 . S
C250 H242 0.930 . S
C250 C249 1.362 . S
C250 C253 1.409 . S
C251 H243 0.930 . S
C251 C252 1.355 . S
C251 C253 1.415 . S
C252 C251 1.355 . S
C252 C254 1.419 . S
C253 C248 1.425 . S
C253 C250 1.409 . S
C253 C251 1.415 . S
C254 H244 0.930 . S
C254 C252 1.419 . S
C254 C255 1.362 . S
C255 H245 0.930 . S
C255 C248 1.409 . S
C255 C254 1.362 . S
H256 C262 0.930 . S
H257 C265 0.930 . S
H258 C266 0.930 . S
H259 C267 0.930 . S
H260 C270 0.930 . S
H261 C271 0.930 . S
C262 H256 0.930 . S
C262 C263 1.355 . S
C262 C264 1.415 . S
C263 C262 1.355 . S
C263 C265 1.419 . S
C264 C262 1.415 . S
C264 C269 1.425 . S
C264 C271 1.409 . S
C265 H257 0.930 . S
C265 C263 1.419 . S
C265 C266 1.362 . S
C266 H258 0.930 . S
C266 C265 1.362 . S
C266 C269 1.409 . S
C267 H259 0.930 . S
C267 C268 1.355 . S
C267 C269 1.415 . S
C268 C267 1.355 . S
C268 C270 1.419 . S
C269 C264 1.425 . S
C269 C266 1.409 . S
C269 C267 1.415 . S
C270 H260 0.930 . S
C270 C268 1.419 . S
C270 C271 1.362 . S
C271 H261 0.930 . S
C271 C264 1.409 . S
C271 C270 1.362 . S
H272 C278 0.930 . S
H273 C281 0.930 . S
H274 C282 0.930 1_545 S
H275 C283 0.930 1_545 S
H276 C286 0.930 . S
H277 C287 0.930 . S
C278 H272 0.930 . S
C278 C279 1.355 . S
C278 C280 1.415 . S
C279 C278 1.355 . S
C279 C281 1.419 . S
C280 C278 1.415 . S
C280 C285 1.425 . S
C280 C287 1.409 . S
C281 H273 0.930 . S
C281 C279 1.419 . S
C281 C282 1.362 . S
C282 H274 0.930 1_565 S
C282 C281 1.362 . S
C282 C285 1.409 . S
C283 H275 0.930 1_565 S
C283 C284 1.355 . S
C283 C285 1.415 . S
C284 C283 1.355 . S
C284 C286 1.419 . S
C285 C280 1.425 . S
C285 C282 1.409 . S
C285 C283 1.415 . S
C286 H276 0.930 . S
C286 C284 1.419 . S
C286 C287 1.362 . S
C287 H277 0.930 . S
C287 C280 1.409 . S
C287 C286 1.362 . S
H288 C294 0.930 . S
H289 C297 0.930 . S
H290 C298 0.930 . S
H291 C299 0.930 . S
H292 C302 0.930 . S
H293 C303 0.930 . S
C294 H288 0.930 . S
C294 C295 1.355 . S
C294 C296 1.415 . S
C295 C294 1.355 . S
C295 C297 1.419 . S
C296 C294 1.415 . S
C296 C301 1.425 . S
C296 C303 1.409 . S
C297 H289 0.930 . S
C297 C295 1.419 . S
C297 C298 1.362 . S
C298 H290 0.930 . S
C298 C297 1.362 . S
C298 C301 1.409 . S
C299 H291 0.930 . S
C299 C300 1.355 . S
C299 C301 1.415 . S
C300 C299 1.355 . S
C300 C302 1.419 . S
C301 C296 1.425 . S
C301 C298 1.409 . S
C301 C299 1.415 . S
C302 H292 0.930 . S
C302 C300 1.419 . S
C302 C303 1.362 . S
C303 H293 0.930 . S
C303 C296 1.409 . S
C303 C302 1.362 . S
H304 C310 0.930 . S
H305 C313 0.930 . S
H306 C314 0.930 . S
H307 C315 0.930 . S
H308 C318 0.930 . S
H309 C319 0.930 . S
C310 H304 0.930 . S
C310 C311 1.355 . S
C310 C312 1.415 . S
C311 C310 1.355 . S
C311 C313 1.419 . S
C312 C310 1.415 . S
C312 C317 1.425 . S
C312 C319 1.409 . S
C313 H305 0.930 . S
C313 C311 1.419 . S
C313 C314 1.362 . S
C314 H306 0.930 . S
C314 C313 1.362 . S
C314 C317 1.409 . S
C315 H307 0.930 . S
C315 C316 1.355 . S
C315 C317 1.415 . S
C316 C315 1.355 . S
C316 C318 1.419 . S
C317 C312 1.425 . S
C317 C314 1.409 . S
C317 C315 1.415 . S
C318 H308 0.930 . S
C318 C316 1.419 . S
C318 C319 1.362 . S
C319 H309 0.930 . S
C319 C312 1.409 . S
C319 C318 1.362 . S
H320 C326 0.930 . S
H321 C329 0.930 . S
H322 C330 0.930 . S
H323 C331 0.930 . S
H324 C334 0.930 . S
H325 C335 0.930 . S
C326 H320 0.930 . S
C326 C327 1.355 . S
C326 C328 1.415 . S
C327 C326 1.355 . S
C327 C329 1.419 . S
C328 C326 1.415 . S
C328 C333 1.425 . S
C328 C335 1.409 . S
C329 H321 0.930 . S
C329 C327 1.419 . S
C329 C330 1.362 . S
C330 H322 0.930 . S
C330 C329 1.362 . S
C330 C333 1.409 . S
C331 H323 0.930 . S
C331 C332 1.355 . S
C331 C333 1.415 . S
C332 C331 1.355 . S
C332 C334 1.419 . S
C333 C328 1.425 . S
C333 C330 1.409 . S
C333 C331 1.415 . S
C334 H324 0.930 . S
C334 C332 1.419 . S
C334 C335 1.362 . S
C335 H325 0.930 . S
C335 C328 1.409 . S
C335 C334 1.362 . S
H336 C342 0.930 . S
H337 C345 0.930 . S
H338 C346 0.930 . S
H339 C347 0.930 . S
H340 C350 0.930 1_565 S
H341 C351 0.930 . S
C342 H336 0.930 . S
C342 C343 1.355 . S
C342 C344 1.415 . S
C343 C342 1.355 . S
C343 C345 1.419 . S
C344 C342 1.415 . S
C344 C349 1.425 . S
C344 C351 1.409 . S
C345 H337 0.930 . S
C345 C343 1.419 . S
C345 C346 1.362 . S
C346 H338 0.930 . S
C346 C345 1.362 . S
C346 C349 1.409 . S
C347 H339 0.930 . S
C347 C348 1.355 . S
C347 C349 1.415 . S
C348 C347 1.355 . S
C348 C350 1.419 . S
C349 C344 1.425 . S
C349 C346 1.409 . S
C349 C347 1.415 . S
C350 H340 0.930 1_545 S
C350 C348 1.419 . S
C350 C351 1.362 . S
C351 H341 0.930 . S
C351 C344 1.409 . S
C351 C350 1.362 . S
H352 C358 0.930 . S
H353 C361 0.930 . S
H354 C362 0.930 . S
H355 C363 0.930 . S
H356 C366 0.930 . S
H357 C367 0.930 . S
C358 H352 0.930 . S
C358 C359 1.355 . S
C358 C360 1.415 . S
C359 C358 1.355 . S
C359 C361 1.419 . S
C360 C358 1.415 . S
C360 C365 1.425 . S
C360 C367 1.409 . S
C361 H353 0.930 . S
C361 C359 1.419 . S
C361 C362 1.362 . S
C362 H354 0.930 . S
C362 C361 1.362 . S
C362 C365 1.409 . S
C363 H355 0.930 . S
C363 C364 1.355 . S
C363 C365 1.415 . S
C364 C363 1.355 . S
C364 C366 1.419 . S
C365 C360 1.425 . S
C365 C362 1.409 . S
C365 C363 1.415 . S
C366 H356 0.930 . S
C366 C364 1.419 . S
C366 C367 1.362 . S
C367 H357 0.930 . S
C367 C360 1.409 . S
C367 C366 1.362 . S
C119 C63 1.541 . S
C124 C8 1.586 . S
C135 C22 1.625 . S
C140 C78 1.625 . S
C151 C36 1.620 . S
C156 C91 1.603 . S
C167 C106 1.607 . S
C172 C50 1.607 . S
C183 C7 1.479 . S
C188 C35 1.505 . S
C199 C21 1.409 . S
C204 C49 1.431 . S
C215 C92 1.428 . S
C220 C64 1.431 . S
C231 C77 1.373 . S
C236 C105 1.368 . S
C247 C79 1.107 . S
C252 C3 1.104 . S
C263 C17 1.072 . S
C268 C87 1.102 . S
C279 C31 1.170 . S
C284 C107 1.090 . S
C295 C59 1.030 . S
C300 C45 1.090 . S
C311 C65 1.004 . S
C316 C23 0.994 . S
C327 C73 1.066 . S
C332 C37 1.051 . S
C343 C93 0.977 . S
C348 C51 1.054 . S
C359 C9 1.021 . S
C364 C101 1.093 . S
