# Generated by pormake.
# Topology wkh, (6)-cn, num edge types: 1
# Building blocks:
#     Node 0, Type 0, BuildingBlock: VOLQOD_clean_sbu_1, # of connection points: 6
#     Node 1, Type 0, BuildingBlock: VOLQOD_clean_sbu_1, # of connection points: 6
#     Node 2, Type 0, BuildingBlock: VOLQOD_clean_sbu_1, # of connection points: 6
#     Node 3, Type 0, BuildingBlock: VOLQOD_clean_sbu_1, # of connection points: 6
#     Node 4, Type 0, BuildingBlock: VOLQOD_clean_sbu_1, # of connection points: 6
#     Node 5, Type 0, BuildingBlock: VOLQOD_clean_sbu_1, # of connection points: 6
#     Node 6, Type 0, BuildingBlock: VOLQOD_clean_sbu_1, # of connection points: 6
#     Node 7, Type 0, BuildingBlock: VOLQOD_clean_sbu_1, # of connection points: 6
#     Node 8, Type 0, BuildingBlock: VOLQOD_clean_sbu_1, # of connection points: 6
#     Node 9, Type 0, BuildingBlock: VOLQOD_clean_sbu_1, # of connection points: 6
#     Node 10, Type 0, BuildingBlock: VOLQOD_clean_sbu_1, # of connection points: 6
#     Node 11, Type 0, BuildingBlock: VOLQOD_clean_sbu_1, # of connection points: 6
#     Edge 12, Type (0, 0), BuildingBlock: EZIPEK_clean_linker_0, # of connection points: 2
#     Edge 13, Type (0, 0), BuildingBlock: EZIPEK_clean_linker_0, # of connection points: 2
#     Edge 14, Type (0, 0), BuildingBlock: EZIPEK_clean_linker_0, # of connection points: 2
#     Edge 15, Type (0, 0), BuildingBlock: EZIPEK_clean_linker_0, # of connection points: 2
#     Edge 16, Type (0, 0), BuildingBlock: EZIPEK_clean_linker_0, # of connection points: 2
#     Edge 17, Type (0, 0), BuildingBlock: EZIPEK_clean_linker_0, # of connection points: 2
#     Edge 18, Type (0, 0), BuildingBlock: EZIPEK_clean_linker_0, # of connection points: 2
#     Edge 19, Type (0, 0), BuildingBlock: EZIPEK_clean_linker_0, # of connection points: 2
#     Edge 20, Type (0, 0), BuildingBlock: EZIPEK_clean_linker_0, # of connection points: 2
#     Edge 21, Type (0, 0), BuildingBlock: EZIPEK_clean_linker_0, # of connection points: 2
#     Edge 22, Type (0, 0), BuildingBlock: EZIPEK_clean_linker_0, # of connection points: 2
#     Edge 23, Type (0, 0), BuildingBlock: EZIPEK_clean_linker_0, # of connection points: 2
#     Edge 24, Type (0, 0), BuildingBlock: EZIPEK_clean_linker_0, # of connection points: 2
#     Edge 25, Type (0, 0), BuildingBlock: EZIPEK_clean_linker_0, # of connection points: 2
#     Edge 26, Type (0, 0), BuildingBlock: EZIPEK_clean_linker_0, # of connection points: 2
#     Edge 27, Type (0, 0), BuildingBlock: EZIPEK_clean_linker_0, # of connection points: 2
#     Edge 28, Type (0, 0), BuildingBlock: EZIPEK_clean_linker_0, # of connection points: 2
#     Edge 29, Type (0, 0), BuildingBlock: EZIPEK_clean_linker_0, # of connection points: 2
#     Edge 30, Type (0, 0), BuildingBlock: EZIPEK_clean_linker_0, # of connection points: 2
#     Edge 31, Type (0, 0), BuildingBlock: EZIPEK_clean_linker_0, # of connection points: 2
#     Edge 32, Type (0, 0), BuildingBlock: EZIPEK_clean_linker_0, # of connection points: 2
#     Edge 33, Type (0, 0), BuildingBlock: EZIPEK_clean_linker_0, # of connection points: 2
#     Edge 34, Type (0, 0), BuildingBlock: EZIPEK_clean_linker_0, # of connection points: 2
#     Edge 35, Type (0, 0), BuildingBlock: EZIPEK_clean_linker_0, # of connection points: 2
#     Edge 36, Type (0, 0), BuildingBlock: EZIPEK_clean_linker_0, # of connection points: 2
#     Edge 37, Type (0, 0), BuildingBlock: EZIPEK_clean_linker_0, # of connection points: 2
#     Edge 38, Type (0, 0), BuildingBlock: EZIPEK_clean_linker_0, # of connection points: 2
#     Edge 39, Type (0, 0), BuildingBlock: EZIPEK_clean_linker_0, # of connection points: 2
#     Edge 40, Type (0, 0), BuildingBlock: EZIPEK_clean_linker_0, # of connection points: 2
#     Edge 41, Type (0, 0), BuildingBlock: EZIPEK_clean_linker_0, # of connection points: 2
#     Edge 42, Type (0, 0), BuildingBlock: EZIPEK_clean_linker_0, # of connection points: 2
#     Edge 43, Type (0, 0), BuildingBlock: EZIPEK_clean_linker_0, # of connection points: 2
#     Edge 44, Type (0, 0), BuildingBlock: EZIPEK_clean_linker_0, # of connection points: 2
#     Edge 45, Type (0, 0), BuildingBlock: EZIPEK_clean_linker_0, # of connection points: 2
#     Edge 46, Type (0, 0), BuildingBlock: EZIPEK_clean_linker_0, # of connection points: 2
#     Edge 47, Type (0, 0), BuildingBlock: EZIPEK_clean_linker_0, # of connection points: 2
# Relax obj value: 0.361
# Max RMSD: 0.263
# Mean RMSD: 0.263
data_MOF--net-wkh--node1-VOLQOD_clean_sbu_1--edge1-EZIPEK_clean_linker_0
_symmetry_space_group_name_H-M    P1
_symmetry_Int_Tables_number       1
_symmetry_cell_setting            triclinic
loop_
_symmetry_equiv_pos_as_xyz
'x, y, z'
_cell_length_a     20.944669
_cell_length_b     20.925206
_cell_length_c     67.935515
_cell_angle_alpha  90.028653
_cell_angle_beta   90.078036
_cell_angle_gamma 120.1916
loop_
_atom_site_label
_atom_site_type_symbol
_atom_site_fract_x
_atom_site_fract_y
_atom_site_fract_z
_atom_type_partial_charge
O0 O 0.09263 0.30939 0.04099 0.0
Zn1 Zn 0.10918 0.29628 0.01307 0.0
O2 O 0.21076 0.32607 0.00962 0.0
Zn3 Zn 0.22332 0.24198 0.00603 0.0
Zn4 Zn 0.26804 0.3829 0.03231 0.0
Zn5 Zn 0.24553 0.38316 0.98608 0.0
O6 O 0.28465 0.25423 0.98188 0.0
O7 O 0.25172 0.32215 0.96398 0.0
O8 O 0.04327 0.19117 0.00534 0.0
O9 O 0.12519 0.1546 0.00045 0.0
O10 O 0.26266 0.21971 0.03061 0.0
O11 O 0.29956 0.32236 0.04786 0.0
O12 O 0.36582 0.47136 0.02383 0.0
O13 O 0.08134 0.35676 -0.00315 0.0
O14 O 0.35266 0.45276 0.99152 0.0
O15 O 0.17973 0.42689 0.97823 0.0
C16 C 0.13319 0.35305 0.05452 0.0
C17 C 0.27996 0.28068 0.96537 0.0
C18 C 0.29116 0.2582 0.04608 0.0
C19 C 0.05928 0.14216 0.00067 0.0
C20 C 0.39359 0.48155 0.00661 0.0
C21 C 0.11381 0.40641 0.98388 0.0
O22 O 0.20277 0.39607 0.05228 0.0
O23 O 0.77916 0.09748 0.20801 0.0
Zn24 Zn 0.80786 0.11478 0.1797 0.0
O25 O 0.882 0.21614 0.1757 0.0
Zn26 Zn 0.97537 0.2259 0.16853 0.0
Zn27 Zn 0.89391 0.27097 0.19989 0.0
Zn28 Zn 0.85614 0.25655 0.15384 0.0
O29 O 0.02023 0.28786 0.14458 0.0
O30 O 0.91633 0.2655 0.12984 0.0
O31 O 0.84328 0.04637 0.17151 0.0
O32 O 0.95826 0.12613 0.16202 0.0
O33 O 0.04684 0.26224 0.19077 0.0
O34 O 0.98601 0.28653 0.21358 0.0
O35 O 0.91275 0.37402 0.19331 0.0
O36 O 0.71949 0.08927 0.16345 0.0
O37 O 0.89734 0.36356 0.16088 0.0
O38 O 0.74624 0.1908 0.14641 0.0
C39 C 0.78001 0.1391 0.22178 0.0
C40 C 0.98546 0.28937 0.12942 0.0
C41 C 0.04174 0.28227 0.20806 0.0
C42 C 0.90486 0.06056 0.16425 0.0
C43 C 0.92018 0.40345 0.17639 0.0
C44 C 0.70163 0.12333 0.15114 0.0
O45 O 0.81345 0.20947 0.21997 0.0
O46 O 0.68267 0.78985 0.37611 0.0
Zn47 Zn 0.6954 0.81577 0.34772 0.0
O48 O 0.66093 0.88282 0.34228 0.0
Zn49 Zn 0.74215 0.97839 0.33553 0.0
Zn50 Zn 0.61595 0.89368 0.36608 0.0
Zn51 Zn 0.59274 0.84762 0.3202 0.0
O52 O 0.72572 0.01537 0.31015 0.0
O53 O 0.6427 0.91017 0.29583 0.0
O54 O 0.80093 0.85673 0.34056 0.0
O55 O 0.83172 0.9706 0.33127 0.0
O56 O 0.76674 0.05239 0.35698 0.0
O57 O 0.68599 0.98871 0.38002 0.0
O58 O 0.53152 0.90783 0.35813 0.0
O59 O 0.63806 0.72424 0.33236 0.0
O60 O 0.51616 0.87669 0.3263 0.0
O61 O 0.5555 0.73648 0.31455 0.0
C62 C 0.63769 0.78671 0.38915 0.0
C63 C 0.68945 0.97938 0.29507 0.0
C64 C 0.74115 0.04878 0.37415 0.0
C65 C 0.84741 0.92002 0.33395 0.0
C66 C 0.50154 0.90326 0.34145 0.0
C67 C 0.58437 0.69821 0.3203 0.0
O68 O 0.59658 0.81483 0.38641 0.0
O69 O 0.9006 0.68186 0.54038 0.0
Zn70 Zn 0.88555 0.6939 0.51201 0.0
O71 O 0.78512 0.66908 0.50773 0.0
Zn72 Zn 0.78109 0.75654 0.50128 0.0
Zn73 Zn 0.73126 0.62854 0.53202 0.0
Zn74 Zn 0.74084 0.59991 0.48616 0.0
O75 O 0.71993 0.74211 0.47748 0.0
O76 O 0.72861 0.6521 0.46251 0.0
O77 O 0.95789 0.79772 0.50398 0.0
O78 O 0.88209 0.8378 0.49482 0.0
O79 O 0.74785 0.79346 0.52389 0.0
O80 O 0.72231 0.70694 0.54638 0.0
O81 O 0.62634 0.55188 0.52553 0.0
O82 O 0.90835 0.62876 0.49608 0.0
O83 O 0.63327 0.52992 0.49367 0.0
O84 O 0.80738 0.55637 0.47839 0.0
C85 C 0.8581 0.63996 0.55386 0.0
C86 C 0.71184 0.70288 0.46236 0.0
C87 C 0.7289 0.76826 0.54122 0.0
C88 C 0.94658 0.84745 0.497 0.0
C89 C 0.59572 0.52079 0.50932 0.0
C90 C 0.87411 0.57749 0.48355 0.0
O91 O 0.78806 0.60251 0.55161 0.0
O92 O 0.20796 0.89805 0.7086 0.0
Zn93 Zn 0.18111 0.88294 0.68027 0.0
O94 O 0.10797 0.7813 0.67535 0.0
Zn95 Zn 0.01532 0.77283 0.66772 0.0
Zn96 Zn 0.09265 0.72611 0.69956 0.0
Zn97 Zn 0.13894 0.74188 0.654 0.0
O98 O 0.97388 0.71503 0.64312 0.0
O99 O 0.07481 0.72351 0.62982 0.0
O100 O 0.14582 0.95194 0.67269 0.0
O101 O 0.03193 0.87309 0.66224 0.0
O102 O 0.9406 0.73314 0.68915 0.0
O103 O 0.00069 0.71143 0.71274 0.0
O104 O 0.07344 0.62382 0.69262 0.0
O105 O 0.27149 0.91209 0.66472 0.0
O106 O 0.11323 0.63858 0.6619 0.0
O107 O 0.24737 0.81389 0.64648 0.0
C108 C 0.20614 0.85563 0.72223 0.0
C109 C 0.00734 0.70656 0.62867 0.0
C110 C 0.94485 0.71432 0.70665 0.0
C111 C 0.08462 0.93844 0.66529 0.0
C112 C 0.08419 0.59714 0.67691 0.0
C113 C 0.29085 0.88068 0.65198 0.0
O114 O 0.17219 0.78536 0.72015 0.0
O115 O 0.30715 0.19978 0.87875 0.0
Zn116 Zn 0.29252 0.17641 0.84984 0.0
O117 O 0.32741 0.11062 0.84294 0.0
Zn118 Zn 0.24555 0.01645 0.83528 0.0
Zn119 Zn 0.37295 0.09758 0.86617 0.0
Zn120 Zn 0.39524 0.14631 0.82095 0.0
O121 O 0.26432 0.97801 0.81058 0.0
O122 O 0.34436 0.08456 0.79639 0.0
O123 O 0.18629 0.1359 0.84291 0.0
O124 O 0.1591 0.02788 0.82966 0.0
O125 O 0.21296 0.94276 0.85692 0.0
O126 O 0.29961 0.00432 0.87939 0.0
O127 O 0.45473 0.08044 0.85799 0.0
O128 O 0.34827 0.26825 0.83441 0.0
O129 O 0.47198 0.11585 0.82652 0.0
O130 O 0.43065 0.25774 0.81603 0.0
C131 C 0.35301 0.201 0.89128 0.0
C132 C 0.29953 0.01486 0.79554 0.0
C133 C 0.23996 0.94777 0.87396 0.0
C134 C 0.14195 0.07624 0.83409 0.0
C135 C 0.48544 0.08687 0.84137 0.0
C136 C 0.40126 0.29521 0.82215 0.0
O137 O 0.39484 0.17458 0.88735 0.0
O138 O 0.68713 0.89256 0.76575 0.0
Zn139 Zn 0.69847 0.87979 0.79428 0.0
O140 O 0.66293 0.77814 0.79991 0.0
Zn141 Zn 0.74388 0.76352 0.80587 0.0
Zn142 Zn 0.61417 0.72455 0.77635 0.0
Zn143 Zn 0.59713 0.74415 0.82201 0.0
O144 O 0.72523 0.70193 0.82986 0.0
O145 O 0.64842 0.72901 0.84552 0.0
O146 O 0.80324 0.94481 0.80228 0.0
O147 O 0.83216 0.86113 0.81211 0.0
O148 O 0.77157 0.7243 0.78269 0.0
O149 O 0.68718 0.71053 0.76054 0.0
O150 O 0.53232 0.62278 0.78429 0.0
O151 O 0.63987 0.91404 0.80914 0.0
O152 O 0.51609 0.63994 0.81558 0.0
O153 O 0.56407 0.81964 0.82838 0.0
C154 C 0.63382 0.85299 0.75415 0.0
C155 C 0.69212 0.7031 0.84542 0.0
C156 C 0.74534 0.7094 0.76533 0.0
C157 C 0.8484 0.9278 0.80963 0.0
C158 C 0.49898 0.59737 0.8006 0.0
C159 C 0.5891 0.88567 0.822 0.0
O160 O 0.58669 0.786 0.75849 0.0
O161 O 0.78967 0.68629 0.93179 0.0
Zn162 Zn 0.81684 0.69969 0.96017 0.0
O163 O 0.8846 0.66617 0.96543 0.0
Zn164 Zn 0.97838 0.74837 0.97296 0.0
Zn165 Zn 0.89638 0.62324 0.94153 0.0
Zn166 Zn 0.85061 0.59549 0.98665 0.0
O167 O 0.01574 0.72898 -0.00225 0.0
O168 O 0.90917 0.64656 0.0115 0.0
O169 O 0.85497 0.80448 0.9676 0.0
O170 O 0.96679 0.83523 0.97863 0.0
O171 O 0.05228 0.78049 0.95133 0.0
O172 O 0.98758 0.69887 0.92797 0.0
O173 O 0.91774 0.54275 0.9485 0.0
O174 O 0.72669 0.64121 0.97559 0.0
O175 O 0.8872 0.5241 0.98029 0.0
O176 O 0.73775 0.55337 0.99097 0.0
C177 C 0.78647 0.64098 0.9188 0.0
C178 C 0.97835 0.69305 0.01266 0.0
C179 C 0.04551 0.75645 0.93384 0.0
C180 C 0.91616 0.85039 0.9754 0.0
C181 C 0.9152 0.5124 0.96495 0.0
C182 C 0.69964 0.5837 0.98625 0.0
O183 O 0.81566 0.60077 0.9215 0.0
O184 O 0.09593 0.7928 0.09994 0.0
Zn185 Zn 0.1139 0.82457 0.128 0.0
O186 O 0.21611 0.89658 0.13233 0.0
Zn187 Zn 0.22375 0.98788 0.14111 0.0
Zn188 Zn 0.26834 0.91438 0.10746 0.0
Zn189 Zn 0.25868 0.86069 0.15198 0.0
O190 O 0.27094 0.0165 0.16752 0.0
O191 O 0.28173 0.92115 0.1772 0.0
O192 O 0.04527 0.86038 0.13499 0.0
O193 O 0.1238 0.97567 0.1444 0.0
O194 O 0.27929 0.07048 0.12184 0.0
O195 O 0.29092 0.01224 0.09628 0.0
O196 O 0.37021 0.93134 0.11251 0.0
O197 O 0.08518 0.73651 0.14421 0.0
O198 O 0.36307 0.89298 0.14342 0.0
O199 O 0.18773 0.74833 0.15744 0.0
C200 C 0.13732 0.79831 0.08562 0.0
C201 C 0.2886 0.98436 0.18051 0.0
C202 C 0.30036 0.07142 0.10424 0.0
C203 C 0.05855 0.9227 0.14145 0.0
C204 C 0.40047 0.92463 0.12803 0.0
C205 C 0.11796 0.71011 0.15411 0.0
O206 O 0.20754 0.83815 0.08661 0.0
O207 O 0.30126 0.10001 0.26578 0.0
Zn208 Zn 0.29045 0.11292 0.29435 0.0
O209 O 0.32676 0.21477 0.30008 0.0
Zn210 Zn 0.24736 0.23049 0.3073 0.0
Zn211 Zn 0.37168 0.26831 0.27636 0.0
Zn212 Zn 0.39695 0.24925 0.32121 0.0
O213 O 0.26948 0.2909 0.33179 0.0
O214 O 0.35096 0.26552 0.34543 0.0
O215 O 0.18567 0.04887 0.30228 0.0
O216 O 0.15923 0.13279 0.31353 0.0
O217 O 0.21701 0.27112 0.28485 0.0
O218 O 0.29547 0.28014 0.26147 0.0
O219 O 0.45278 0.37098 0.28397 0.0
O220 O 0.34837 0.07749 0.30917 0.0
O221 O 0.47717 0.35278 0.31443 0.0
O222 O 0.4295 0.17359 0.32717 0.0
C223 C 0.35322 0.14045 0.25398 0.0
C224 C 0.30653 0.29033 0.34657 0.0
C225 C 0.23914 0.28317 0.26709 0.0
C226 C 0.1417 0.06609 0.31029 0.0
C227 C 0.48984 0.39601 0.29984 0.0
C228 C 0.40145 0.10645 0.32141 0.0
O229 O 0.3992 0.20799 0.25816 0.0
O230 O 0.21799 0.31216 0.43549 0.0
Zn231 Zn 0.18605 0.29724 0.46329 0.0
O232 O 0.108 0.31994 0.46675 0.0
Zn233 Zn 0.01661 0.22927 0.47309 0.0
Zn234 Zn 0.09525 0.3615 0.44241 0.0
Zn235 Zn 0.13468 0.39279 0.4876 0.0
O236 O 0.9762 0.23957 0.49906 0.0
O237 O 0.0681 0.34506 0.51084 0.0
O238 O 0.156 0.193 0.47035 0.0
O239 O 0.03711 0.14734 0.47714 0.0
O240 O 0.94199 0.19528 0.45068 0.0
O241 O 0.00147 0.28787 0.42975 0.0
O242 O 0.0752 0.44443 0.44778 0.0
O243 O 0.27269 0.36198 0.47962 0.0
O244 O 0.10043 0.46408 0.47975 0.0
O245 O 0.24483 0.43735 0.49584 0.0
C246 C 0.21135 0.34629 0.42088 0.0
C247 C 0.00518 0.28688 0.51291 0.0
C248 C 0.94637 0.22542 0.43406 0.0
C249 C 0.09355 0.14015 0.47563 0.0
C250 C 0.07487 0.47527 0.4639 0.0
C251 C 0.29005 0.41508 0.49148 0.0
O252 O 0.17225 0.37737 0.42175 0.0
O253 O 0.8937 0.20015 0.60046 0.0
Zn254 Zn 0.8794 0.17834 0.62922 0.0
O255 O 0.77838 0.11003 0.63479 0.0
Zn256 Zn 0.7695 0.01724 0.64226 0.0
Zn257 Zn 0.72853 0.10056 0.61016 0.0
Zn258 Zn 0.73664 0.14386 0.65482 0.0
O259 O 0.7135 0.97975 0.66743 0.0
O260 O 0.7123 0.07843 0.67904 0.0
O261 O 0.94809 0.14378 0.63722 0.0
O262 O 0.86879 0.03087 0.64791 0.0
O263 O 0.73078 0.94496 0.61975 0.0
O264 O 0.72171 0.01393 0.59615 0.0
O265 O 0.6244 0.07351 0.61557 0.0
O266 O 0.90857 0.2693 0.64423 0.0
O267 O 0.63212 0.11428 0.64628 0.0
O268 O 0.81097 0.2552 0.66111 0.0
C269 C 0.85345 0.20789 0.58775 0.0
C270 C 0.6997 0.01241 0.68121 0.0
C271 C 0.7201 0.95531 0.60186 0.0
C272 C 0.93427 0.0829 0.64481 0.0
C273 C 0.59431 0.08058 0.63104 0.0
C274 C 0.87896 0.29444 0.65588 0.0
O275 O 0.78608 0.18676 0.59152 0.0
C276 C 0.59634 0.52918 0.01177 0.0
C277 C 0.6209 0.55281 0.99226 0.0
C278 C 0.50546 0.5519 0.9856 0.0
C279 C 0.47525 0.51565 0.0037 0.0
N280 N 0.49042 0.45135 0.03172 0.0
N281 N 0.58599 0.56323 0.95891 0.0
C282 C 0.5201 0.49928 0.0163 0.0
C283 C 0.57157 0.55717 0.97864 0.0
N284 N 0.64511 0.53685 0.02621 0.0
N285 N 0.47145 0.58185 0.97502 0.0
H286 H 0.63044 0.56052 0.95294 0.0
H287 H 0.54865 0.56135 0.94843 0.0
H288 H 0.42511 0.58285 0.98023 0.0
H289 H 0.4946 0.61317 0.96235 0.0
H290 H 0.62998 0.5265 0.04099 0.0
H291 H 0.70168 0.56071 0.02385 0.0
H292 H 0.52074 0.43337 0.03983 0.0
H293 H 0.43458 0.42252 0.03511 0.0
C294 C 0.01282 0.58157 0.14831 0.0
C295 C 0.07124 0.63172 0.16077 0.0
C296 C 0.03172 0.53187 0.18501 0.0
C297 C 0.96656 0.48581 0.17361 0.0
N298 N 0.88601 0.48325 0.14772 0.0
N299 N 0.12189 0.658 0.19375 0.0
C300 C 0.95409 0.5162 0.15638 0.0
C301 C 0.07647 0.60817 0.17999 0.0
N302 N 0.01446 0.59426 0.12854 0.0
N303 N 0.05482 0.50379 0.19975 0.0
H304 H 0.15351 0.71456 0.19105 0.0
H305 H 0.12176 0.64381 0.20847 0.0
H306 H 0.02866 0.44859 0.2038 0.0
H307 H 0.10578 0.53508 0.20672 0.0
H308 H 0.97502 0.55595 0.11887 0.0
H309 H 0.05984 0.63785 0.12158 0.0
H310 H 0.87399 0.50661 0.13573 0.0
H311 H 0.83999 0.43823 0.15405 0.0
C312 C 0.50209 0.07516 0.32372 0.0
C313 C 0.43001 0.05903 0.32885 0.0
C314 C 0.40248 0.93831 0.34214 0.0
C315 C 0.4756 0.95621 0.33779 0.0
N316 N 0.6006 0.04883 0.32912 0.0
N317 N 0.31593 0.98248 0.34617 0.0
C318 C 0.52712 0.0269 0.33002 0.0
C319 C 0.38139 0.99259 0.33905 0.0
N320 N 0.54538 0.1343 0.31192 0.0
N321 N 0.35307 0.86912 0.34879 0.0
H322 H 0.29958 0.02177 0.34447 0.0
H323 H 0.28088 0.93858 0.35521 0.0
H324 H 0.36788 0.82922 0.35157 0.0
H325 H 0.29679 0.84966 0.35031 0.0
H326 H 0.59448 0.14303 0.30564 0.0
H327 H 0.52948 0.17145 0.30701 0.0
H328 H 0.64147 0.10248 0.32559 0.0
H329 H 0.62187 0.01566 0.33368 0.0
C330 C 0.42113 0.52008 0.49352 0.0
C331 C 0.36554 0.44948 0.50003 0.0
C332 C 0.46063 0.42519 0.51353 0.0
C333 C 0.51596 0.49582 0.50704 0.0
N334 N 0.54859 0.61835 0.49598 0.0
N335 N 0.33007 0.3415 0.51988 0.0
C336 C 0.49602 0.54574 0.49865 0.0
C337 C 0.38479 0.40423 0.51127 0.0
N338 N 0.40306 0.56098 0.48149 0.0
N339 N 0.48064 0.37753 0.52127 0.0
H340 H 0.27434 0.32573 0.51867 0.0
H341 H 0.3398 0.30882 0.52957 0.0
H342 H 0.53573 0.39224 0.52341 0.0
H343 H 0.44335 0.32235 0.52443 0.0
H344 H 0.44216 0.6081 0.47409 0.0
H345 H 0.34871 0.5452 0.47785 0.0
H346 H 0.53626 0.65885 0.49183 0.0
H347 H 0.60404 0.63975 0.49965 0.0
C348 C 0.97578 0.42369 0.64848 0.0
C349 C 0.92808 0.37217 0.6627 0.0
C350 C -0.00169 0.46361 0.68869 0.0
C351 C 0.04548 0.51424 0.67402 0.0
N352 N 0.10083 0.52038 0.64246 0.0
N353 N 0.90536 0.33711 0.69696 0.0
C354 C 0.04116 0.48737 0.65467 0.0
C355 C 0.94207 0.39046 0.68306 0.0
N356 N 0.95846 0.41224 0.62892 0.0
N357 N 0.00907 0.48406 0.70803 0.0
H358 H 0.86478 0.28322 0.69351 0.0
H359 H 0.91841 0.34444 0.71188 0.0
H360 H 0.05833 0.52871 0.71314 0.0
H361 H 0.97018 0.45582 0.71898 0.0
H362 H 0.99033 0.45044 0.61813 0.0
H363 H 0.90835 0.36869 0.6238 0.0
H364 H 0.10147 0.49946 0.62857 0.0
H365 H 0.15256 0.5615 0.64744 0.0
C366 C 0.48659 0.91432 0.82464 0.0
C367 C 0.55974 0.93261 0.82934 0.0
C368 C 0.58675 0.05499 0.84126 0.0
C369 C 0.51263 0.03501 0.83743 0.0
N370 N 0.38736 0.93976 0.82984 0.0
N371 N 0.67583 0.01396 0.84532 0.0
C372 C 0.46115 0.96281 0.83047 0.0
C373 C 0.60883 0.00123 0.83862 0.0
N374 N 0.44251 0.8527 0.81367 0.0
N375 N 0.63611 0.1256 0.84701 0.0
H376 H 0.69296 0.97517 0.84395 0.0
H377 H 0.71162 0.05977 0.85374 0.0
H378 H 0.62074 0.1653 0.84942 0.0
H379 H 0.69275 0.14629 0.84811 0.0
H380 H 0.39232 0.84189 0.80761 0.0
H381 H 0.45857 0.81518 0.80921 0.0
H382 H 0.34666 0.88527 0.82704 0.0
H383 H 0.36586 0.97332 0.83382 0.0
C384 C 0.43136 0.48887 0.82326 0.0
C385 C 0.45338 0.51467 0.80381 0.0
C386 C 0.4293 0.38964 0.79492 0.0
C387 C 0.42655 0.3723 0.8153 0.0
N388 N 0.43655 0.41294 0.8491 0.0
N389 N 0.45518 0.48201 0.76977 0.0
C390 C 0.43107 0.4243 0.82951 0.0
C391 C 0.44717 0.46277 0.78918 0.0
N392 N 0.40736 0.52411 0.83551 0.0
N393 N 0.40985 0.33533 0.78111 0.0
H394 H 0.4501 0.52618 0.76464 0.0
H395 H 0.46457 0.453 0.75878 0.0
H396 H 0.39436 0.28101 0.78461 0.0
H397 H 0.40317 0.3422 0.76622 0.0
H398 H 0.38583 0.50427 0.84946 0.0
H399 H 0.39891 0.56649 0.83054 0.0
H400 H 0.44276 0.45098 0.85991 0.0
H401 H 0.44294 0.36956 0.85429 0.0
C402 C 0.03998 0.53705 0.97534 0.0
C403 C 0.96843 0.48612 0.96788 0.0
C404 C 0.00387 0.39127 0.96535 0.0
C405 C 0.07097 0.43877 0.97545 0.0
N406 N 0.15038 0.55455 0.99179 0.0
N407 N 0.88045 0.36466 0.95618 0.0
C408 C 0.08884 0.5114 0.98071 0.0
C409 C 0.94999 0.41323 0.96283 0.0
N410 N 0.06191 0.61047 0.9769 0.0
N411 N 0.99254 0.32558 0.95795 0.0
H412 H 0.84071 0.38 0.95385 0.0
H413 H 0.86055 0.30844 0.95415 0.0
H414 H 0.03161 0.30881 0.95933 0.0
H415 H 0.94796 0.29086 0.94903 0.0
H416 H 0.11587 0.65128 0.98018 0.0
H417 H 0.02804 0.6319 0.97319 0.0
H418 H 0.16101 0.60397 -0.00165 0.0
H419 H 0.18864 0.53863 -0.00441 0.0
C420 C 0.50052 0.05167 0.13714 0.0
C421 C 0.48007 0.97875 0.13093 0.0
C422 C 0.60979 0.01155 0.13232 0.0
C423 C 0.62803 0.07977 0.1416 0.0
N424 N 0.58918 0.16214 0.15454 0.0
N425 N 0.51365 0.88751 0.12317 0.0
C426 C 0.57331 0.09983 0.14417 0.0
C427 C 0.53437 0.95824 0.12856 0.0
N428 N 0.45025 0.07511 0.13641 0.0
N429 N 0.66505 0.99876 0.12672 0.0
H430 H 0.45913 0.84835 0.11968 0.0
H431 H 0.54935 0.86647 0.12329 0.0
H432 H 0.72085 0.03767 0.12871 0.0
H433 H 0.65622 0.95316 0.11842 0.0
H434 H 0.46487 0.13034 0.13804 0.0
H435 H 0.39492 0.04082 0.13265 0.0
H436 H 0.54907 0.17443 0.15909 0.0
H437 H 0.64167 0.19908 0.15996 0.0
C438 C 0.54891 0.50417 0.32307 0.0
C439 C 0.53336 0.47857 0.30336 0.0
C440 C 0.55865 0.60312 0.29354 0.0
C441 C 0.55661 0.62061 0.3137 0.0
N442 N 0.53512 0.57962 0.34754 0.0
N443 N 0.53957 0.51045 0.269 0.0
C444 C 0.54679 0.56831 0.32839 0.0
C445 C 0.54277 0.53013 0.28829 0.0
N446 N 0.57054 0.4703 0.3365 0.0
N447 N 0.57996 0.65709 0.27958 0.0
H448 H 0.544 0.46499 0.26468 0.0
H449 H 0.53398 0.53966 0.25737 0.0
H450 H 0.59204 0.7107 0.28282 0.0
H451 H 0.59031 0.65049 0.26496 0.0
H452 H 0.58669 0.49019 0.35079 0.0
H453 H 0.58357 0.43014 0.3324 0.0
H454 H 0.52254 0.5401 0.35848 0.0
H455 H 0.52997 0.6246 0.35196 0.0
C456 C 0.94709 0.44749 0.47203 0.0
C457 C 0.02008 0.50013 0.46593 0.0
C458 C 0.98546 0.5958 0.46515 0.0
C459 C 0.91709 0.54629 0.4744 0.0
N460 N 0.83464 0.426 0.48803 0.0
N461 N 0.11015 0.6244 0.45691 0.0
C462 C 0.89775 0.47199 0.47792 0.0
C463 C 0.03955 0.57429 0.46237 0.0
N464 N 0.92459 0.37374 0.47204 0.0
N465 N -0.00218 0.66302 0.45875 0.0
H466 H 0.14995 0.60941 0.45424 0.0
H467 H 0.13049 0.6811 0.45616 0.0
H468 H 0.95849 0.67942 0.46016 0.0
H469 H 0.04356 0.69943 0.45046 0.0
H470 H 0.86972 0.3325 0.47393 0.0
H471 H 0.95922 0.35312 0.46841 0.0
H472 H 0.82253 0.37438 0.49332 0.0
H473 H 0.79647 0.44132 0.49234 0.0
C474 C 0.49253 0.95274 0.6387 0.0
C475 C 0.51456 0.02724 0.6338 0.0
C476 C 0.3855 0.9966 0.63529 0.0
C477 C 0.36549 0.92597 0.64323 0.0
N478 N 0.40204 0.83981 0.65465 0.0
N479 N 0.48366 0.12194 0.62832 0.0
C480 C 0.41923 0.90423 0.64522 0.0
C481 C 0.46143 0.04972 0.63228 0.0
N482 N 0.54168 0.92807 0.63722 0.0
N483 N 0.33148 0.01191 0.63013 0.0
H484 H 0.5386 0.16127 0.62538 0.0
H485 H 0.44873 0.14379 0.62916 0.0
H486 H 0.27532 0.9733 0.6315 0.0
H487 H 0.3418 0.05971 0.62272 0.0
H488 H 0.52569 0.87222 0.63779 0.0
H489 H 0.59748 0.96216 0.63397 0.0
H490 H 0.44141 0.82583 0.65875 0.0
H491 H 0.34937 0.80272 0.65987 0.0
C492 C 0.36209 0.31668 0.93559 0.0
C493 C 0.30545 0.26059 0.94731 0.0
C494 C 0.29929 0.16601 0.92491 0.0
C495 C 0.34741 0.22225 0.91173 0.0
N496 N 0.42264 0.35123 0.90373 0.0
N497 N 0.21168 0.1324 0.95154 0.0
C498 C 0.37855 0.29777 0.91688 0.0
C499 C 0.27223 0.18524 0.94167 0.0
N500 N 0.40156 0.38741 0.94261 0.0
N501 N 0.27918 0.09402 0.92137 0.0
H502 H 0.18844 0.14413 0.96358 0.0
H503 H 0.17998 0.07802 0.94665 0.0
H504 H 0.29786 0.07786 0.90922 0.0
H505 H 0.25006 0.05151 0.93142 0.0
H506 H 0.44806 0.42919 0.93562 0.0
H507 H 0.39181 0.4029 0.95638 0.0
H508 H 0.43989 0.40703 0.90553 0.0
H509 H 0.43905 0.33896 0.89043 0.0
C510 C 0.0593 0.38108 0.10312 0.0
C511 C 0.02402 0.30755 0.11038 0.0
C512 C 0.07032 0.26854 0.08264 0.0
C513 C 0.10028 0.34046 0.07436 0.0
N514 N 0.11775 0.46332 0.07534 0.0
N515 N 0.98671 0.17896 0.10623 0.0
C516 C 0.0938 0.39659 0.08429 0.0
C517 C 0.02695 0.25063 0.0999 0.0
N518 N 0.06032 0.43586 0.11435 0.0
N519 N 0.08543 0.21793 0.07434 0.0
H520 H 0.95573 0.16364 0.11916 0.0
H521 H 0.97912 0.13377 0.09795 0.0
H522 H 0.11745 0.22831 0.06172 0.0
H523 H 0.07259 0.16803 0.08097 0.0
H524 H 0.09113 0.49181 0.1109 0.0
H525 H 0.03354 0.42567 0.12791 0.0
H526 H 0.108 0.50408 0.08081 0.0
H527 H 0.1436 0.47634 0.06163 0.0
C528 C 0.68271 0.0747 0.24782 0.0
C529 C 0.75689 0.10522 0.24148 0.0
C530 C 0.78235 0.04472 0.26876 0.0
C531 C 0.70987 0.0185 0.27597 0.0
N532 N 0.59396 0.01665 0.27432 0.0
N533 N 0.88116 0.13119 0.24769 0.0
C534 C 0.66062 0.03561 0.26603 0.0
C535 C 0.80789 0.09397 0.25256 0.0
N536 N 0.63328 0.0818 0.23623 0.0
N537 N 0.8258 0.02002 0.27691 0.0
H538 H 0.90196 0.16734 0.23579 0.0
H539 H 0.92225 0.1316 0.25643 0.0
H540 H 0.80854 0.98271 0.2886 0.0
H541 H 0.87603 0.03073 0.27096 0.0
H542 H 0.57666 0.0541 0.23888 0.0
H543 H 0.64872 0.1126 0.22325 0.0
H544 H 0.55894 0.03445 0.26895 0.0
H545 H 0.57575 0.98703 0.28745 0.0
C546 C 0.60392 0.69297 0.4161 0.0
C547 C 0.64792 0.76632 0.40916 0.0
C548 C 0.73593 0.79488 0.43604 0.0
C549 C 0.68989 0.723 0.44377 0.0
N550 N 0.57427 0.60742 0.44332 0.0
N551 N 0.74625 0.8917 0.41455 0.0
C552 C 0.62206 0.67291 0.43442 0.0
C553 C 0.71076 0.81877 0.41986 0.0
N554 N 0.54631 0.64228 0.40492 0.0
N555 N 0.80547 0.83892 0.44349 0.0
H556 H 0.72968 0.91129 0.40263 0.0
H557 H 0.78754 0.93369 0.42303 0.0
H558 H 0.82725 0.82262 0.45496 0.0
H559 H 0.8444 0.88858 0.43705 0.0
H560 H 0.51714 0.58593 0.40802 0.0
H561 H 0.53023 0.65634 0.39183 0.0
H562 H 0.52075 0.57212 0.4383 0.0
H563 H 0.5862 0.59079 0.45663 0.0
C564 C 0.91183 0.72055 0.58311 0.0
C565 C 0.88982 0.6517 0.57384 0.0
C566 C 0.94078 0.61577 0.60135 0.0
C567 C 0.96953 0.68765 0.60944 0.0
N568 N 0.99279 0.81258 0.60667 0.0
N569 N 0.88794 0.53582 0.57281 0.0
C570 C 0.95782 0.74118 0.59996 0.0
C571 C 0.90523 0.59954 0.58262 0.0
N572 N 0.88716 0.76552 0.57605 0.0
N573 N 0.94545 0.56258 0.61183 0.0
H574 H 0.86001 0.52172 0.55936 0.0
H575 H 0.90502 0.49925 0.57737 0.0
H576 H 0.97274 0.57318 0.62535 0.0
H577 H 0.91764 0.507 0.60784 0.0
H578 H 0.89441 0.81232 0.58345 0.0
H579 H 0.85326 0.75239 0.5637 0.0
H580 H 0.99295 0.85591 0.59909 0.0
H581 H 0.02742 0.83018 0.61896 0.0
C582 C 0.20793 0.95523 0.76857 0.0
C583 C 0.27864 0.97622 0.77638 0.0
C584 C 0.30162 0.9136 0.74905 0.0
C585 C 0.2291 0.88887 0.74201 0.0
N586 N 0.10831 0.87435 0.74669 0.0
N587 N 0.38945 0.96822 0.77599 0.0
C588 C 0.18074 0.90605 0.75233 0.0
C589 C 0.32474 0.95344 0.76716 0.0
N590 N 0.16786 0.98449 0.77632 0.0
N591 N 0.34874 0.90063 0.73815 0.0
H592 H 0.40881 -0.00087 0.78892 0.0
H593 H 0.42168 0.94626 0.77124 0.0
H594 H 0.33226 0.86923 0.72525 0.0
H595 H 0.40478 0.92398 0.74127 0.0
H596 H 0.11952 0.97774 0.77001 0.0
H597 H 0.18636 0.02136 0.78814 0.0
H598 H 0.06833 0.87841 0.75479 0.0
H599 H 0.08638 0.83826 0.73476 0.0
C600 C 0.66651 0.61833 0.87428 0.0
C601 C 0.71478 0.68469 0.86416 0.0
C602 C 0.81372 0.71055 0.88756 0.0
C603 C 0.76326 0.6488 0.8989 0.0
N604 N 0.64051 0.54677 0.90439 0.0
N605 N 0.83028 0.80028 0.8627 0.0
C606 C 0.68927 0.60314 0.8926 0.0
C607 C 0.78745 0.73245 0.87118 0.0
N608 N 0.60007 0.56895 0.86609 0.0
N609 N 0.88711 0.74784 0.89238 0.0
H610 H 0.81255 0.81895 0.85083 0.0
H611 H 0.88053 0.84087 0.86852 0.0
H612 H 0.90832 0.73335 0.90435 0.0
H613 H 0.92786 0.7885 0.88354 0.0
H614 H 0.56652 0.51595 0.87162 0.0
H615 H 0.58113 0.57901 0.85288 0.0
H616 H 0.58382 0.51684 0.90181 0.0
H617 H 0.65658 0.53253 0.91745 0.0
C618 C 0.03583 0.78803 0.03886 0.0
C619 C 0.01508 0.71614 0.032 0.0
C620 C 0.07533 0.69688 0.06052 0.0
C621 C 0.10139 0.77109 0.06634 0.0
N622 N 0.11654 0.89133 0.05974 0.0
N623 N 0.02174 0.60478 0.03452 0.0
C624 C 0.08479 0.81792 0.05506 0.0
C625 C 0.03643 0.671 0.04236 0.0
N626 N 0.0064 0.82664 0.03028 0.0
N627 N 0.08662 0.65106 0.07251 0.0
H628 H 0.99212 0.58379 0.02146 0.0
H629 H 0.04281 0.57295 0.04023 0.0
H630 H 0.11753 0.66939 0.08546 0.0
H631 H 0.06194 0.59429 0.07024 0.0
H632 H 0.01317 0.87603 0.03586 0.0
H633 H 0.96908 0.80579 0.01859 0.0
H634 H 0.11314 0.9299 0.05079 0.0
H635 H 0.15173 0.91532 0.07176 0.0
C636 C 0.36333 0.10275 0.19928 0.0
C637 C 0.31991 0.02419 0.19949 0.0
C638 C 0.33393 0.02943 0.23526 0.0
C639 C 0.35673 0.10589 0.23511 0.0
N640 N 0.38436 0.21397 0.21544 0.0
N641 N 0.25546 0.91275 0.21931 0.0
C642 C 0.37018 0.14286 0.21673 0.0
C643 C 0.30363 0.98702 0.2179 0.0
N644 N 0.39918 0.13923 0.18256 0.0
N645 N 0.34096 0.99727 0.25198 0.0
H646 H 0.22642 0.87931 0.20744 0.0
H647 H 0.23795 0.88586 0.23283 0.0
H648 H 0.36646 0.02782 0.26465 0.0
H649 H 0.32982 0.94277 0.25234 0.0
H650 H 0.43573 0.19615 0.18223 0.0
H651 H 0.39985 0.11151 0.16988 0.0
H652 H 0.38691 0.23907 0.20198 0.0
H653 H 0.38631 0.24569 0.22745 0.0
C654 C 0.31251 0.38074 0.37188 0.0
C655 C 0.28704 0.3066 0.36602 0.0
C656 C 0.20676 0.26059 0.39481 0.0
C657 C 0.23637 0.33453 0.40159 0.0
N658 N 0.32388 0.46457 0.39822 0.0
N659 N 0.21913 0.17588 0.37314 0.0
C660 C 0.2909 0.39473 0.39054 0.0
C661 C 0.23723 0.24657 0.37792 0.0
N662 N 0.35674 0.43745 0.35952 0.0
N663 N 0.14689 0.20379 0.40398 0.0
H664 H 0.23725 0.16232 0.36037 0.0
H665 H 0.19093 0.13113 0.3826 0.0
H666 H 0.12175 0.21079 0.41637 0.0
H667 H 0.11731 0.15044 0.39825 0.0
H668 H 0.37076 0.49214 0.36188 0.0
H669 H 0.3764 0.42912 0.34621 0.0
H670 H 0.3694 0.50982 0.3919 0.0
H671 H 0.30889 0.47641 0.41179 0.0
C672 C 0.88618 0.23762 0.53212 0.0
C673 C 0.96468 0.27385 0.53191 0.0
C674 C 0.9637 0.29083 0.56745 0.0
C675 C 0.88696 0.23859 0.56816 0.0
N676 N 0.77755 0.15057 0.54985 0.0
N677 N 0.07685 0.31885 0.55134 0.0
C678 C 0.84825 0.20893 0.55016 0.0
C679 C 0.00349 0.29674 0.55009 0.0
N680 N 0.8475 0.23214 0.5154 0.0
N681 N -0.00114 0.33468 0.58331 0.0
H682 H 0.10721 0.31565 0.53965 0.0
H683 H 0.10481 0.33067 0.56477 0.0
H684 H 0.9705 0.33464 0.59593 0.0
H685 H 0.05398 0.37691 0.58285 0.0
H686 H 0.79052 0.21087 0.51543 0.0
H687 H 0.87302 0.25742 0.50221 0.0
H688 H 0.75117 0.12405 0.53681 0.0
H689 H 0.74793 0.12313 0.56236 0.0
C690 C 0.61425 0.85175 0.71696 0.0
C691 C 0.62991 0.88833 0.73547 0.0
C692 C 0.68742 0.00785 0.71868 0.0
C693 C 0.66867 0.97152 0.70008 0.0
N694 N 0.58505 0.85819 0.68291 0.0
N695 N 0.65063 0.99808 0.75273 0.0
C696 C 0.62249 0.89318 0.69964 0.0
C697 C 0.65564 0.96535 0.73587 0.0
N698 N 0.59618 0.77949 0.71541 0.0
N699 N 0.73955 0.08096 0.72046 0.0
H700 H 0.62439 0.96759 0.76533 0.0
H701 H 0.66431 0.05336 0.75327 0.0
H702 H 0.77131 0.11375 0.70883 0.0
H703 H 0.75795 0.10664 0.73411 0.0
H704 H 0.59206 0.75429 0.70184 0.0
H705 H 0.59192 0.74643 0.72731 0.0
H706 H 0.54663 0.80173 0.68245 0.0
H707 H 0.58505 0.88705 0.67043 0.0
C708 C 0.35819 0.1439 0.07297 0.0
C709 C 0.32717 0.13949 0.09186 0.0
C710 C 0.29191 0.22953 0.08232 0.0
C711 C 0.31317 0.22657 0.06255 0.0
N712 N 0.39129 0.20434 0.04099 0.0
N713 N 0.31347 0.21473 0.11649 0.0
C714 C 0.3542 0.19087 0.05843 0.0
C715 C 0.30961 0.19402 0.09727 0.0
N716 N 0.39277 0.10462 0.06923 0.0
N717 N 0.25142 0.26214 0.08695 0.0
H718 H 0.33613 0.19701 0.12739 0.0
H719 H 0.30578 0.25809 0.12093 0.0
H720 H 0.23601 0.28931 0.07691 0.0
H721 H 0.22773 0.25687 0.10078 0.0
H722 H 0.40786 0.0968 0.05524 0.0
H723 H 0.40755 0.08064 0.0805 0.0
H724 H 0.42594 0.18391 0.03739 0.0
H725 H 0.39265 0.24188 0.03065 0.0
C726 C 0.08125 0.21615 0.23085 0.0
C727 C 0.09329 0.28429 0.2231 0.0
C728 C 0.20449 0.35254 0.24338 0.0
C729 C 0.18941 0.28475 0.25205 0.0
N730 N 0.11034 0.15279 0.25595 0.0
N731 N 0.16113 0.41732 0.22247 0.0
C732 C 0.12686 0.21678 0.24633 0.0
C733 C 0.15347 0.35266 0.22952 0.0
N734 N 0.02728 0.15066 0.22303 0.0
N735 N 0.26804 0.41624 0.24822 0.0
H736 H 0.1264 0.4187 0.21168 0.0
H737 H 0.19911 0.46934 0.22791 0.0
H738 H 0.3052 0.41794 0.25874 0.0
H739 H 0.28634 0.46653 0.24112 0.0
H740 H 0.02203 0.09957 0.2262 0.0
H741 H 0.98988 0.1471 0.21233 0.0
H742 H 0.06027 0.10367 0.2544 0.0
H743 H 0.1446 0.14939 0.26654 0.0
C744 C 0.85819 0.16334 0.38375 0.0
C745 C 0.78452 0.11045 0.3885 0.0
C746 C 0.8125 0.15135 0.42305 0.0
C747 C 0.8892 0.18617 0.41862 0.0
N748 N 0.9836 0.21235 0.39404 0.0
N749 N 0.68633 0.0682 0.4124 0.0
C750 C 0.9118 0.18905 0.39875 0.0
C751 C 0.75986 0.10853 0.40814 0.0
N752 N 0.87686 0.19128 0.36516 0.0
N753 N 0.79003 0.16254 0.44096 0.0
H754 H 0.64585 0.04897 0.40146 0.0
H755 H 0.6657 0.05501 0.42667 0.0
H756 H 0.82681 0.19681 0.45174 0.0
H757 H 0.73511 0.14385 0.44451 0.0
H758 H 0.93002 0.23317 0.36152 0.0
H759 H 0.83707 0.18105 0.35444 0.0
H760 H 2e-05 0.20943 0.37973 0.0
H761 H 0.02465 0.22564 0.40453 0.0
C762 C 0.65762 0.79474 0.56627 0.0
C763 C 0.7253 0.81614 0.55651 0.0
C764 C 0.78805 0.92931 0.57616 0.0
C765 C 0.72142 0.90589 0.5867 0.0
N766 N 0.59548 0.81408 0.59388 0.0
N767 N 0.85774 0.89588 0.55433 0.0
C768 C 0.65691 0.83771 0.58242 0.0
C769 C 0.7913 0.88147 0.56197 0.0
N770 N 0.59387 0.73497 0.5596 0.0
N771 N 0.84824 0.99767 0.57963 0.0
H772 H 0.86313 0.86231 0.54391 0.0
H773 H 0.90858 0.93756 0.55953 0.0
H774 H 0.85047 0.03273 0.59087 0.0
H775 H 0.89472 0.02186 0.57064 0.0
H776 H 0.54153 0.72043 0.56476 0.0
H777 H 0.59264 0.70262 0.54775 0.0
H778 H 0.549 0.7616 0.59286 0.0
H779 H 0.59278 0.84555 0.60542 0.0
C780 C 0.83643 0.64248 0.72892 0.0
C781 C 0.89149 0.7113 0.72119 0.0
C782 C 0.85027 0.7778 0.7425 0.0
C783 C 0.79318 0.70883 0.74963 0.0
N784 N 0.72482 0.57589 0.74857 0.0
N785 N 0.94821 0.8442 0.71886 0.0
C786 C 0.78408 0.64109 0.74251 0.0
C787 C 0.8975 0.77889 0.72744 0.0
N788 N 0.83523 0.57896 0.72346 0.0
N789 N 0.86059 0.84233 0.75059 0.0
H790 H 0.98811 0.84881 0.70889 0.0
H791 H 0.94877 0.89381 0.72076 0.0
H792 H 0.82484 0.8445 0.76089 0.0
H793 H 0.90682 0.89391 0.74803 0.0
H794 H 0.80148 0.52771 0.72993 0.0
H795 H 0.87135 0.57813 0.71303 0.0
H796 H 0.71068 0.52454 0.74267 0.0
H797 H 0.68652 0.57353 0.75878 0.0
C798 C 0.09048 0.86606 0.91235 0.0
C799 C 0.09757 0.80561 0.91894 0.0
C800 C 0.19545 0.83487 0.89491 0.0
C801 C 0.19135 0.89787 0.88928 0.0
N802 N 0.14362 0.98064 0.89414 0.0
N803 N 0.15932 0.73485 0.91842 0.0
C804 C 0.14134 0.91555 0.89843 0.0
C805 C 0.15077 0.79048 0.91074 0.0
N806 N 0.03314 0.87438 0.91879 0.0
N807 N 0.24091 0.81711 0.88484 0.0
H808 H 0.12665 0.70114 0.92989 0.0
H809 H 0.20141 0.72484 0.91439 0.0
H810 H 0.27514 0.84968 0.87343 0.0
H811 H 0.24173 0.76827 0.8869 0.0
H812 H 0.01941 0.91138 0.91259 0.0
H813 H 0.99493 0.84013 0.92929 0.0
H814 H 0.11545 0.00107 0.90218 0.0
H815 H 0.17827 0.01775 0.88349 0.0
C816 C 0.96632 0.01182 0.00811 0.0
C817 C 0.00102 0.0694 -0.00584 0.0
C818 C 0.9589 0.98122 0.96702 0.0
C819 C 0.92984 0.9236 0.98109 0.0
N820 N 0.88517 0.88046 0.01378 0.0
N821 N 0.01474 0.1129 0.96081 0.0
C822 C 0.9263 0.93789 0.00129 0.0
C823 C 0.99145 0.05524 0.97369 0.0
N824 N 0.97538 0.02792 0.02778 0.0
N825 N 0.95892 0.96501 0.94753 0.0
H826 H 0.0389 0.16774 0.96551 0.0
H827 H 0.00502 0.10651 0.94571 0.0
H828 H 0.93208 0.91089 0.9422 0.0
H829 H 0.98722 0.00451 0.93672 0.0
H830 H 0.95907 0.98818 0.03879 0.0
H831 H 0.0021 0.0821 0.0331 0.0
H832 H 0.87584 0.88714 0.02848 0.0
H833 H 0.85516 0.82576 0.0089 0.0
C834 C 0.96535 0.9578 0.13223 0.0
C835 C 0.99712 0.93373 0.14673 0.0
C836 C 0.94274 0.9696 0.1731 0.0
C837 C 0.91728 0.00024 0.15866 0.0
N838 N 0.88219 0.00424 0.12523 0.0
N839 N -0.00096 0.89499 0.17995 0.0
C840 C 0.92075 0.98721 0.13839 0.0
C841 C 0.97945 0.93185 0.16689 0.0
N842 N 0.98158 0.95653 0.1128 0.0
N843 N 0.93602 0.98101 0.19262 0.0
H844 H 0.02619 0.867 0.17557 0.0
H845 H 0.98317 0.88673 0.19467 0.0
H846 H 0.90669 0.0061 0.19753 0.0
H847 H 0.96133 0.96814 0.20389 0.0
H848 H 0.96727 0.98118 0.10166 0.0
H849 H 0.01224 0.93286 0.10788 0.0
H850 H 0.87799 0.99162 0.1103 0.0
H851 H 0.84897 0.02563 0.12973 0.0
C852 C 0.01126 0.97431 0.30191 0.0
C853 C 0.06796 0.0078 0.31621 0.0
C854 C 0.97805 0.96386 0.34285 0.0
C855 C 0.92134 0.93564 0.3285 0.0
N856 N 0.88034 0.89388 0.29543 0.0
N857 N 0.10859 0.01489 0.34965 0.0
C858 C 0.93692 0.93378 0.30832 0.0
C859 C 0.05226 0.99575 0.33655 0.0
N860 N 0.0284 0.9849 0.28234 0.0
N861 N 0.96105 0.96374 0.36228 0.0
H862 H 0.16332 0.03704 0.34512 0.0
H863 H 0.10061 0.00254 0.3646 0.0
H864 H 0.90673 0.93819 0.36737 0.0
H865 H 0.00039 0.99153 0.3732 0.0
H866 H 0.98932 0.96974 0.27117 0.0
H867 H 0.08267 0.01173 0.27722 0.0
H868 H 0.88797 0.88553 0.28072 0.0
H869 H 0.82531 0.86378 0.29993 0.0
C870 C 0.05474 0.01211 0.46528 0.0
C871 C 0.08421 0.06739 0.48003 0.0
C872 C 0.04563 0.97452 0.50587 0.0
C873 C 0.00906 0.91938 0.49129 0.0
N874 N 0.9956 0.8811 0.45747 0.0
N875 N 0.12887 0.10468 0.51301 0.0
C876 C 0.02 0.93687 0.47102 0.0
C877 C 0.08743 0.04949 0.49992 0.0
N878 N 0.05636 0.03195 0.44604 0.0
N879 N 0.03582 0.95546 0.52534 0.0
H880 H 0.15958 0.16001 0.50873 0.0
H881 H 0.13794 0.09549 0.52754 0.0
H882 H 0.00717 0.90061 0.53006 0.0
H883 H 0.05354 0.99356 0.53682 0.0
H884 H 0.02862 0.99462 0.4347 0.0
H885 H 0.08451 0.08708 0.4415 0.0
H886 H 0.00537 0.88955 0.44242 0.0
H887 H 0.97025 0.82558 0.46161 0.0
C888 C 0.04962 0.03095 0.67514 0.0
C889 C 0.07225 -0.00072 0.66024 0.0
C890 C 0.02369 0.04441 0.63458 0.0
C891 C 0.99497 0.06998 0.64954 0.0
N892 N 0.99705 0.10824 0.68301 0.0
N893 N 0.10262 0.99409 0.62643 0.0
C894 C 0.0141 0.07062 0.66954 0.0
C895 C 0.06698 0.01278 0.6401 0.0
N896 N 0.05783 0.01884 0.69451 0.0
N897 N 0.00552 0.04611 0.61532 0.0
H898 H 0.13494 0.97107 0.6304 0.0
H899 H 0.10555 0.00695 0.61154 0.0
H900 H 0.97591 0.07137 0.61078 0.0
H901 H 0.01698 0.02009 0.60394 0.0
H902 H 0.03473 0.03278 0.70611 0.0
H903 H 0.08604 0.99207 0.699 0.0
H904 H 0.01399 0.11559 0.69766 0.0
H905 H 0.9709 0.13765 0.67904 0.0
C906 C 0.05279 0.06272 0.80835 0.0
C907 C 0.06814 0.06129 0.82858 0.0
C908 C 0.93674 0.99837 0.83622 0.0
C909 C 0.92175 0.9863 0.81582 0.0
N910 N 0.96247 0.00884 0.78208 0.0
N911 N 0.02743 0.03138 0.86221 0.0
C912 C 0.97881 0.02047 0.8017 0.0
C913 C 0.01092 0.03173 0.84275 0.0
N914 N 0.10935 0.10395 0.79564 0.0
N915 N 0.87978 0.97741 0.84918 0.0
H916 H 0.08154 0.05772 0.86751 0.0
H917 H 0.98793 0.00233 0.87297 0.0
H918 H 0.82486 0.9531 0.84456 0.0
H919 H 0.88715 0.9897 0.86415 0.0
H920 H 0.10171 0.11191 0.7809 0.0
H921 H 0.16406 0.13557 0.80038 0.0
H922 H 0.00216 0.02443 0.77109 0.0
H923 H 0.90837 0.98046 0.77678 0.0
loop_
_geom_bond_atom_site_label_1
_geom_bond_atom_site_label_2
_geom_bond_distance
_geom_bond_site_symmetry_2
_ccdc_geom_bond_type
O0 Zn1 1.953 . S
O0 C16 1.225 . S
Zn1 O0 1.953 . S
Zn1 O2 1.949 . S
Zn1 O8 1.919 . S
Zn1 O13 1.924 . S
O2 Zn1 1.949 . S
O2 Zn3 1.923 . S
O2 Zn4 1.950 . S
O2 Zn5 1.945 1_554 S
Zn3 O2 1.923 . S
Zn3 O6 1.933 1_554 S
Zn3 O9 1.941 . S
Zn3 O10 1.965 . S
Zn4 O2 1.950 . S
Zn4 O11 1.938 . S
Zn4 O12 1.906 . S
Zn4 O22 1.953 . S
Zn5 O2 1.945 1_556 S
Zn5 O7 1.932 . S
Zn5 O14 1.977 . S
Zn5 O15 1.910 . S
O6 Zn3 1.933 1_556 S
O6 C17 1.226 . S
O7 Zn5 1.932 . S
O7 C17 1.307 . S
O8 Zn1 1.919 . S
O8 C19 1.253 . S
O9 Zn3 1.941 . S
O9 C19 1.283 . S
O10 Zn3 1.965 . S
O10 C18 1.303 . S
O11 Zn4 1.938 . S
O11 C18 1.247 . S
O12 Zn4 1.906 . S
O12 C20 1.304 . S
O13 Zn1 1.924 . S
O13 C21 1.311 1_554 S
O14 Zn5 1.977 . S
O14 C20 1.272 1_556 S
O15 Zn5 1.910 . S
O15 C21 1.231 . S
C16 O0 1.225 . S
C16 O22 1.298 . S
C17 O6 1.226 . S
C17 O7 1.307 . S
C18 O10 1.303 . S
C18 O11 1.247 . S
C19 O8 1.253 . S
C19 O9 1.283 . S
C20 O12 1.304 . S
C20 O14 1.272 1_554 S
C21 O13 1.311 1_556 S
C21 O15 1.231 . S
O22 Zn4 1.953 . S
O22 C16 1.298 . S
O23 Zn24 1.953 . S
O23 C39 1.225 . S
Zn24 O23 1.953 . S
Zn24 O25 1.949 . S
Zn24 O31 1.919 . S
Zn24 O36 1.924 . S
O25 Zn24 1.949 . S
O25 Zn26 1.923 1_655 S
O25 Zn27 1.950 . S
O25 Zn28 1.945 . S
Zn26 O25 1.923 1_455 S
Zn26 O29 1.933 . S
Zn26 O32 1.941 . S
Zn26 O33 1.965 . S
Zn27 O25 1.950 . S
Zn27 O34 1.938 1_655 S
Zn27 O35 1.906 . S
Zn27 O45 1.953 . S
Zn28 O25 1.945 . S
Zn28 O30 1.932 . S
Zn28 O37 1.977 . S
Zn28 O38 1.910 . S
O29 Zn26 1.933 . S
O29 C40 1.226 . S
O30 Zn28 1.932 . S
O30 C40 1.307 1_655 S
O31 Zn24 1.919 . S
O31 C42 1.253 . S
O32 Zn26 1.941 . S
O32 C42 1.283 1_455 S
O33 Zn26 1.965 . S
O33 C41 1.303 . S
O34 Zn27 1.938 1_455 S
O34 C41 1.247 . S
O35 Zn27 1.906 . S
O35 C43 1.304 . S
O36 Zn24 1.924 . S
O36 C44 1.311 . S
O37 Zn28 1.977 . S
O37 C43 1.272 . S
O38 Zn28 1.910 . S
O38 C44 1.231 . S
C39 O23 1.225 . S
C39 O45 1.298 . S
C40 O29 1.226 . S
C40 O30 1.307 1_455 S
C41 O33 1.303 . S
C41 O34 1.247 . S
C42 O31 1.253 . S
C42 O32 1.283 1_655 S
C43 O35 1.304 . S
C43 O37 1.272 . S
C44 O36 1.311 . S
C44 O38 1.231 . S
O45 Zn27 1.953 . S
O45 C39 1.298 . S
O46 Zn47 1.953 . S
O46 C62 1.225 . S
Zn47 O46 1.953 . S
Zn47 O48 1.949 . S
Zn47 O54 1.919 . S
Zn47 O59 1.924 . S
O48 Zn47 1.949 . S
O48 Zn49 1.923 1_565 S
O48 Zn50 1.950 . S
O48 Zn51 1.945 . S
Zn49 O48 1.923 1_545 S
Zn49 O52 1.933 . S
Zn49 O55 1.941 . S
Zn49 O56 1.965 . S
Zn50 O48 1.950 . S
Zn50 O57 1.938 1_565 S
Zn50 O58 1.906 . S
Zn50 O68 1.953 . S
Zn51 O48 1.945 . S
Zn51 O53 1.932 . S
Zn51 O60 1.977 . S
Zn51 O61 1.910 . S
O52 Zn49 1.933 . S
O52 C63 1.226 . S
O53 Zn51 1.932 . S
O53 C63 1.307 1_565 S
O54 Zn47 1.919 . S
O54 C65 1.253 . S
O55 Zn49 1.941 . S
O55 C65 1.283 1_545 S
O56 Zn49 1.965 . S
O56 C64 1.303 . S
O57 Zn50 1.938 1_545 S
O57 C64 1.247 . S
O58 Zn50 1.906 . S
O58 C66 1.304 . S
O59 Zn47 1.924 . S
O59 C67 1.311 . S
O60 Zn51 1.977 . S
O60 C66 1.272 . S
O61 Zn51 1.910 . S
O61 C67 1.231 . S
C62 O46 1.225 . S
C62 O68 1.298 . S
C63 O52 1.226 . S
C63 O53 1.307 1_545 S
C64 O56 1.303 . S
C64 O57 1.247 . S
C65 O54 1.253 . S
C65 O55 1.283 1_565 S
C66 O58 1.304 . S
C66 O60 1.272 . S
C67 O59 1.311 . S
C67 O61 1.231 . S
O68 Zn50 1.953 . S
O68 C62 1.298 . S
O69 Zn70 1.953 . S
O69 C85 1.225 . S
Zn70 O69 1.953 . S
Zn70 O71 1.949 . S
Zn70 O77 1.919 . S
Zn70 O82 1.924 . S
O71 Zn70 1.949 . S
O71 Zn72 1.923 . S
O71 Zn73 1.950 . S
O71 Zn74 1.945 . S
Zn72 O71 1.923 . S
Zn72 O75 1.933 . S
Zn72 O78 1.941 . S
Zn72 O79 1.965 . S
Zn73 O71 1.950 . S
Zn73 O80 1.938 . S
Zn73 O81 1.906 . S
Zn73 O91 1.953 . S
Zn74 O71 1.945 . S
Zn74 O76 1.932 . S
Zn74 O83 1.977 . S
Zn74 O84 1.910 . S
O75 Zn72 1.933 . S
O75 C86 1.226 . S
O76 Zn74 1.932 . S
O76 C86 1.307 . S
O77 Zn70 1.919 . S
O77 C88 1.253 . S
O78 Zn72 1.941 . S
O78 C88 1.283 . S
O79 Zn72 1.965 . S
O79 C87 1.303 . S
O80 Zn73 1.938 . S
O80 C87 1.247 . S
O81 Zn73 1.906 . S
O81 C89 1.304 . S
O82 Zn70 1.924 . S
O82 C90 1.311 . S
O83 Zn74 1.977 . S
O83 C89 1.272 . S
O84 Zn74 1.910 . S
O84 C90 1.231 . S
C85 O69 1.225 . S
C85 O91 1.298 . S
C86 O75 1.226 . S
C86 O76 1.307 . S
C87 O79 1.303 . S
C87 O80 1.247 . S
C88 O77 1.253 . S
C88 O78 1.283 . S
C89 O81 1.304 . S
C89 O83 1.272 . S
C90 O82 1.311 . S
C90 O84 1.231 . S
O91 Zn73 1.953 . S
O91 C85 1.298 . S
O92 Zn93 1.953 . S
O92 C108 1.225 . S
Zn93 O92 1.953 . S
Zn93 O94 1.949 . S
Zn93 O100 1.919 . S
Zn93 O105 1.924 . S
O94 Zn93 1.949 . S
O94 Zn95 1.923 1_455 S
O94 Zn96 1.950 . S
O94 Zn97 1.945 . S
Zn95 O94 1.923 1_655 S
Zn95 O98 1.933 . S
Zn95 O101 1.941 . S
Zn95 O102 1.965 . S
Zn96 O94 1.950 . S
Zn96 O103 1.938 1_455 S
Zn96 O104 1.906 . S
Zn96 O114 1.953 . S
Zn97 O94 1.945 . S
Zn97 O99 1.932 . S
Zn97 O106 1.977 . S
Zn97 O107 1.910 . S
O98 Zn95 1.933 . S
O98 C109 1.226 . S
O99 Zn97 1.932 . S
O99 C109 1.307 1_455 S
O100 Zn93 1.919 . S
O100 C111 1.253 . S
O101 Zn95 1.941 . S
O101 C111 1.283 1_655 S
O102 Zn95 1.965 . S
O102 C110 1.303 . S
O103 Zn96 1.938 1_655 S
O103 C110 1.247 . S
O104 Zn96 1.906 . S
O104 C112 1.304 . S
O105 Zn93 1.924 . S
O105 C113 1.311 . S
O106 Zn97 1.977 . S
O106 C112 1.272 . S
O107 Zn97 1.910 . S
O107 C113 1.231 . S
C108 O92 1.225 . S
C108 O114 1.298 . S
C109 O98 1.226 . S
C109 O99 1.307 1_655 S
C110 O102 1.303 . S
C110 O103 1.247 . S
C111 O100 1.253 . S
C111 O101 1.283 1_455 S
C112 O104 1.304 . S
C112 O106 1.272 . S
C113 O105 1.311 . S
C113 O107 1.231 . S
O114 Zn96 1.953 . S
O114 C108 1.298 . S
O115 Zn116 1.953 . S
O115 C131 1.225 . S
Zn116 O115 1.953 . S
Zn116 O117 1.949 . S
Zn116 O123 1.919 . S
Zn116 O128 1.924 . S
O117 Zn116 1.949 . S
O117 Zn118 1.923 1_545 S
O117 Zn119 1.950 . S
O117 Zn120 1.945 . S
Zn118 O117 1.923 1_565 S
Zn118 O121 1.933 . S
Zn118 O124 1.941 . S
Zn118 O125 1.965 . S
Zn119 O117 1.950 . S
Zn119 O126 1.938 1_545 S
Zn119 O127 1.906 . S
Zn119 O137 1.953 . S
Zn120 O117 1.945 . S
Zn120 O122 1.932 . S
Zn120 O129 1.977 . S
Zn120 O130 1.910 . S
O121 Zn118 1.933 . S
O121 C132 1.226 . S
O122 Zn120 1.932 . S
O122 C132 1.307 1_545 S
O123 Zn116 1.919 . S
O123 C134 1.253 . S
O124 Zn118 1.941 . S
O124 C134 1.283 1_565 S
O125 Zn118 1.965 . S
O125 C133 1.303 . S
O126 Zn119 1.938 1_565 S
O126 C133 1.247 . S
O127 Zn119 1.906 . S
O127 C135 1.304 . S
O128 Zn116 1.924 . S
O128 C136 1.311 . S
O129 Zn120 1.977 . S
O129 C135 1.272 . S
O130 Zn120 1.910 . S
O130 C136 1.231 . S
C131 O115 1.225 . S
C131 O137 1.298 . S
C132 O121 1.226 . S
C132 O122 1.307 1_565 S
C133 O125 1.303 . S
C133 O126 1.247 . S
C134 O123 1.253 . S
C134 O124 1.283 1_545 S
C135 O127 1.304 . S
C135 O129 1.272 . S
C136 O128 1.311 . S
C136 O130 1.231 . S
O137 Zn119 1.953 . S
O137 C131 1.298 . S
O138 Zn139 1.953 . S
O138 C154 1.225 . S
Zn139 O138 1.953 . S
Zn139 O140 1.949 . S
Zn139 O146 1.919 . S
Zn139 O151 1.924 . S
O140 Zn139 1.949 . S
O140 Zn141 1.923 . S
O140 Zn142 1.950 . S
O140 Zn143 1.945 . S
Zn141 O140 1.923 . S
Zn141 O144 1.933 . S
Zn141 O147 1.941 . S
Zn141 O148 1.965 . S
Zn142 O140 1.950 . S
Zn142 O149 1.938 . S
Zn142 O150 1.906 . S
Zn142 O160 1.953 . S
Zn143 O140 1.945 . S
Zn143 O145 1.932 . S
Zn143 O152 1.977 . S
Zn143 O153 1.910 . S
O144 Zn141 1.933 . S
O144 C155 1.226 . S
O145 Zn143 1.932 . S
O145 C155 1.307 . S
O146 Zn139 1.919 . S
O146 C157 1.253 . S
O147 Zn141 1.941 . S
O147 C157 1.283 . S
O148 Zn141 1.965 . S
O148 C156 1.303 . S
O149 Zn142 1.938 . S
O149 C156 1.247 . S
O150 Zn142 1.906 . S
O150 C158 1.304 . S
O151 Zn139 1.924 . S
O151 C159 1.311 . S
O152 Zn143 1.977 . S
O152 C158 1.272 . S
O153 Zn143 1.910 . S
O153 C159 1.231 . S
C154 O138 1.225 . S
C154 O160 1.298 . S
C155 O144 1.226 . S
C155 O145 1.307 . S
C156 O148 1.303 . S
C156 O149 1.247 . S
C157 O146 1.253 . S
C157 O147 1.283 . S
C158 O150 1.304 . S
C158 O152 1.272 . S
C159 O151 1.311 . S
C159 O153 1.231 . S
O160 Zn142 1.953 . S
O160 C154 1.298 . S
O161 Zn162 1.953 . S
O161 C177 1.225 . S
Zn162 O161 1.953 . S
Zn162 O163 1.949 . S
Zn162 O169 1.919 . S
Zn162 O174 1.924 . S
O163 Zn162 1.949 . S
O163 Zn164 1.923 1_655 S
O163 Zn165 1.950 . S
O163 Zn166 1.945 . S
Zn164 O163 1.923 1_455 S
Zn164 O167 1.933 1_556 S
Zn164 O170 1.941 . S
Zn164 O171 1.965 . S
Zn165 O163 1.950 . S
Zn165 O172 1.938 1_655 S
Zn165 O173 1.906 . S
Zn165 O183 1.953 . S
Zn166 O163 1.945 . S
Zn166 O168 1.932 1_556 S
Zn166 O175 1.977 . S
Zn166 O176 1.910 1_556 S
O167 Zn164 1.933 1_554 S
O167 C178 1.226 . S
O168 Zn166 1.932 1_554 S
O168 C178 1.307 1_655 S
O169 Zn162 1.919 . S
O169 C180 1.253 . S
O170 Zn164 1.941 . S
O170 C180 1.283 1_455 S
O171 Zn164 1.965 . S
O171 C179 1.303 . S
O172 Zn165 1.938 1_455 S
O172 C179 1.247 . S
O173 Zn165 1.906 . S
O173 C181 1.304 . S
O174 Zn162 1.924 . S
O174 C182 1.311 . S
O175 Zn166 1.977 . S
O175 C181 1.272 . S
O176 Zn166 1.910 1_554 S
O176 C182 1.231 1_554 S
C177 O161 1.225 . S
C177 O183 1.298 . S
C178 O167 1.226 . S
C178 O168 1.307 1_455 S
C179 O171 1.303 . S
C179 O172 1.247 . S
C180 O169 1.253 . S
C180 O170 1.283 1_655 S
C181 O173 1.304 . S
C181 O175 1.272 . S
C182 O174 1.311 . S
C182 O176 1.231 1_556 S
O183 Zn165 1.953 . S
O183 C177 1.298 . S
O184 Zn185 1.953 . S
O184 C200 1.225 . S
Zn185 O184 1.953 . S
Zn185 O186 1.949 . S
Zn185 O192 1.919 . S
Zn185 O197 1.924 . S
O186 Zn185 1.949 . S
O186 Zn187 1.923 1_565 S
O186 Zn188 1.950 . S
O186 Zn189 1.945 . S
Zn187 O186 1.923 1_545 S
Zn187 O190 1.933 . S
Zn187 O193 1.941 . S
Zn187 O194 1.965 . S
Zn188 O186 1.950 . S
Zn188 O195 1.938 1_565 S
Zn188 O196 1.906 . S
Zn188 O206 1.953 . S
Zn189 O186 1.945 . S
Zn189 O191 1.932 . S
Zn189 O198 1.977 . S
Zn189 O199 1.910 . S
O190 Zn187 1.933 . S
O190 C201 1.226 . S
O191 Zn189 1.932 . S
O191 C201 1.307 1_565 S
O192 Zn185 1.919 . S
O192 C203 1.253 . S
O193 Zn187 1.941 . S
O193 C203 1.283 1_545 S
O194 Zn187 1.965 . S
O194 C202 1.303 . S
O195 Zn188 1.938 1_545 S
O195 C202 1.247 . S
O196 Zn188 1.906 . S
O196 C204 1.304 . S
O197 Zn185 1.924 . S
O197 C205 1.311 . S
O198 Zn189 1.977 . S
O198 C204 1.272 . S
O199 Zn189 1.910 . S
O199 C205 1.231 . S
C200 O184 1.225 . S
C200 O206 1.298 . S
C201 O190 1.226 . S
C201 O191 1.307 1_545 S
C202 O194 1.303 . S
C202 O195 1.247 . S
C203 O192 1.253 . S
C203 O193 1.283 1_565 S
C204 O196 1.304 . S
C204 O198 1.272 . S
C205 O197 1.311 . S
C205 O199 1.231 . S
O206 Zn188 1.953 . S
O206 C200 1.298 . S
O207 Zn208 1.953 . S
O207 C223 1.225 . S
Zn208 O207 1.953 . S
Zn208 O209 1.949 . S
Zn208 O215 1.919 . S
Zn208 O220 1.924 . S
O209 Zn208 1.949 . S
O209 Zn210 1.923 . S
O209 Zn211 1.950 . S
O209 Zn212 1.945 . S
Zn210 O209 1.923 . S
Zn210 O213 1.933 . S
Zn210 O216 1.941 . S
Zn210 O217 1.965 . S
Zn211 O209 1.950 . S
Zn211 O218 1.938 . S
Zn211 O219 1.906 . S
Zn211 O229 1.953 . S
Zn212 O209 1.945 . S
Zn212 O214 1.932 . S
Zn212 O221 1.977 . S
Zn212 O222 1.910 . S
O213 Zn210 1.933 . S
O213 C224 1.226 . S
O214 Zn212 1.932 . S
O214 C224 1.307 . S
O215 Zn208 1.919 . S
O215 C226 1.253 . S
O216 Zn210 1.941 . S
O216 C226 1.283 . S
O217 Zn210 1.965 . S
O217 C225 1.303 . S
O218 Zn211 1.938 . S
O218 C225 1.247 . S
O219 Zn211 1.906 . S
O219 C227 1.304 . S
O220 Zn208 1.924 . S
O220 C228 1.311 . S
O221 Zn212 1.977 . S
O221 C227 1.272 . S
O222 Zn212 1.910 . S
O222 C228 1.231 . S
C223 O207 1.225 . S
C223 O229 1.298 . S
C224 O213 1.226 . S
C224 O214 1.307 . S
C225 O217 1.303 . S
C225 O218 1.247 . S
C226 O215 1.253 . S
C226 O216 1.283 . S
C227 O219 1.304 . S
C227 O221 1.272 . S
C228 O220 1.311 . S
C228 O222 1.231 . S
O229 Zn211 1.953 . S
O229 C223 1.298 . S
O230 Zn231 1.953 . S
O230 C246 1.225 . S
Zn231 O230 1.953 . S
Zn231 O232 1.949 . S
Zn231 O238 1.919 . S
Zn231 O243 1.924 . S
O232 Zn231 1.949 . S
O232 Zn233 1.923 1_455 S
O232 Zn234 1.950 . S
O232 Zn235 1.945 . S
Zn233 O232 1.923 1_655 S
Zn233 O236 1.933 . S
Zn233 O239 1.941 . S
Zn233 O240 1.965 . S
Zn234 O232 1.950 . S
Zn234 O241 1.938 1_455 S
Zn234 O242 1.906 . S
Zn234 O252 1.953 . S
Zn235 O232 1.945 . S
Zn235 O237 1.932 . S
Zn235 O244 1.977 . S
Zn235 O245 1.910 . S
O236 Zn233 1.933 . S
O236 C247 1.226 . S
O237 Zn235 1.932 . S
O237 C247 1.307 1_455 S
O238 Zn231 1.919 . S
O238 C249 1.253 . S
O239 Zn233 1.941 . S
O239 C249 1.283 1_655 S
O240 Zn233 1.965 . S
O240 C248 1.303 . S
O241 Zn234 1.938 1_655 S
O241 C248 1.247 . S
O242 Zn234 1.906 . S
O242 C250 1.304 . S
O243 Zn231 1.924 . S
O243 C251 1.311 . S
O244 Zn235 1.977 . S
O244 C250 1.272 . S
O245 Zn235 1.910 . S
O245 C251 1.231 . S
C246 O230 1.225 . S
C246 O252 1.298 . S
C247 O236 1.226 . S
C247 O237 1.307 1_655 S
C248 O240 1.303 . S
C248 O241 1.247 . S
C249 O238 1.253 . S
C249 O239 1.283 1_455 S
C250 O242 1.304 . S
C250 O244 1.272 . S
C251 O243 1.311 . S
C251 O245 1.231 . S
O252 Zn234 1.953 . S
O252 C246 1.298 . S
O253 Zn254 1.953 . S
O253 C269 1.225 . S
Zn254 O253 1.953 . S
Zn254 O255 1.949 . S
Zn254 O261 1.919 . S
Zn254 O266 1.924 . S
O255 Zn254 1.949 . S
O255 Zn256 1.923 1_545 S
O255 Zn257 1.950 . S
O255 Zn258 1.945 . S
Zn256 O255 1.923 1_565 S
Zn256 O259 1.933 . S
Zn256 O262 1.941 . S
Zn256 O263 1.965 . S
Zn257 O255 1.950 . S
Zn257 O264 1.938 1_545 S
Zn257 O265 1.906 . S
Zn257 O275 1.953 . S
Zn258 O255 1.945 . S
Zn258 O260 1.932 . S
Zn258 O267 1.977 . S
Zn258 O268 1.910 . S
O259 Zn256 1.933 . S
O259 C270 1.226 . S
O260 Zn258 1.932 . S
O260 C270 1.307 1_545 S
O261 Zn254 1.919 . S
O261 C272 1.253 . S
O262 Zn256 1.941 . S
O262 C272 1.283 1_565 S
O263 Zn256 1.965 . S
O263 C271 1.303 . S
O264 Zn257 1.938 1_565 S
O264 C271 1.247 . S
O265 Zn257 1.906 . S
O265 C273 1.304 . S
O266 Zn254 1.924 . S
O266 C274 1.311 . S
O267 Zn258 1.977 . S
O267 C273 1.272 . S
O268 Zn258 1.910 . S
O268 C274 1.231 . S
C269 O253 1.225 . S
C269 O275 1.298 . S
C270 O259 1.226 . S
C270 O260 1.307 1_565 S
C271 O263 1.303 . S
C271 O264 1.247 . S
C272 O261 1.253 . S
C272 O262 1.283 1_545 S
C273 O265 1.304 . S
C273 O267 1.272 . S
C274 O266 1.311 . S
C274 O268 1.231 . S
O275 Zn257 1.953 . S
O275 C269 1.298 . S
C276 C277 1.318 1_554 S
C276 C282 1.379 . S
C276 N284 1.356 . S
C277 C276 1.318 1_556 S
C277 C283 1.397 . S
C278 C279 1.363 1_556 S
C278 C283 1.379 . S
C278 N285 1.356 . S
C279 C278 1.363 1_554 S
C279 C282 1.363 . S
N280 C282 1.356 . S
N280 H292 0.984 . S
N280 H293 0.985 . S
N281 C283 1.356 . S
N281 H286 0.984 . S
N281 H287 0.985 . S
C282 C276 1.379 . S
C282 C279 1.363 . S
C282 N280 1.356 . S
C283 C277 1.397 . S
C283 C278 1.379 . S
C283 N281 1.356 . S
N284 C276 1.356 . S
N284 H290 0.984 . S
N284 H291 0.984 . S
N285 C278 1.356 . S
N285 H288 0.984 . S
N285 H289 0.985 . S
H286 N281 0.984 . S
H287 N281 0.985 . S
H288 N285 0.984 . S
H289 N285 0.985 . S
H290 N284 0.984 . S
H291 N284 0.984 . S
H292 N280 0.984 . S
H293 N280 0.985 . S
C294 C295 1.363 . S
C294 C300 1.379 1_455 S
C294 N302 1.356 . S
C295 C294 1.363 . S
C295 C301 1.363 . S
C296 C297 1.363 1_455 S
C296 C301 1.379 . S
C296 N303 1.356 . S
C297 C296 1.363 1_655 S
C297 C300 1.363 . S
N298 C300 1.356 . S
N298 H310 0.984 . S
N298 H311 0.985 . S
N299 C301 1.356 . S
N299 H304 0.984 . S
N299 H305 0.985 . S
C300 C294 1.379 1_655 S
C300 C297 1.363 . S
C300 N298 1.356 . S
C301 C295 1.363 . S
C301 C296 1.379 . S
C301 N299 1.356 . S
N302 C294 1.356 . S
N302 H308 0.984 . S
N302 H309 0.984 . S
N303 C296 1.356 . S
N303 H306 0.984 . S
N303 H307 0.985 . S
H304 N299 0.984 . S
H305 N299 0.985 . S
H306 N303 0.984 . S
H307 N303 0.985 . S
H308 N302 0.984 . S
H309 N302 0.984 . S
H310 N298 0.984 . S
H311 N298 0.985 . S
C312 C313 1.363 . S
C312 C318 1.379 . S
C312 N320 1.356 . S
C313 C312 1.363 . S
C313 C319 1.363 . S
C314 C315 1.363 . S
C314 C319 1.379 1_565 S
C314 N321 1.356 . S
C315 C314 1.363 . S
C315 C318 1.363 1_565 S
N316 C318 1.356 . S
N316 H328 0.984 . S
N316 H329 0.985 . S
N317 C319 1.356 . S
N317 H322 0.984 . S
N317 H323 0.985 1_545 S
C318 C312 1.379 . S
C318 C315 1.363 1_545 S
C318 N316 1.356 . S
C319 C313 1.363 . S
C319 C314 1.379 1_545 S
C319 N317 1.356 . S
N320 C312 1.356 . S
N320 H326 0.984 . S
N320 H327 0.984 . S
N321 C314 1.356 . S
N321 H324 0.984 . S
N321 H325 0.985 . S
H322 N317 0.984 . S
H323 N317 0.985 1_565 S
H324 N321 0.984 . S
H325 N321 0.985 . S
H326 N320 0.984 . S
H327 N320 0.984 . S
H328 N316 0.984 . S
H329 N316 0.985 . S
C330 C331 1.363 . S
C330 C336 1.379 . S
C330 N338 1.356 . S
C331 C330 1.363 . S
C331 C337 1.363 . S
C332 C333 1.363 . S
C332 C337 1.379 . S
C332 N339 1.356 . S
C333 C332 1.363 . S
C333 C336 1.363 . S
N334 C336 1.356 . S
N334 H346 0.984 . S
N334 H347 0.985 . S
N335 C337 1.356 . S
N335 H340 0.984 . S
N335 H341 0.985 . S
C336 C330 1.379 . S
C336 C333 1.363 . S
C336 N334 1.356 . S
C337 C331 1.363 . S
C337 C332 1.379 . S
C337 N335 1.356 . S
N338 C330 1.356 . S
N338 H344 0.984 . S
N338 H345 0.984 . S
N339 C332 1.356 . S
N339 H342 0.984 . S
N339 H343 0.985 . S
H340 N335 0.984 . S
H341 N335 0.985 . S
H342 N339 0.984 . S
H343 N339 0.985 . S
H344 N338 0.984 . S
H345 N338 0.984 . S
H346 N334 0.984 . S
H347 N334 0.985 . S
C348 C349 1.363 . S
C348 C354 1.379 1_655 S
C348 N356 1.356 . S
C349 C348 1.363 . S
C349 C355 1.363 . S
C350 C351 1.363 1_655 S
C350 C355 1.379 . S
C350 N357 1.356 . S
C351 C350 1.363 1_455 S
C351 C354 1.363 . S
N352 C354 1.356 . S
N352 H364 0.984 . S
N352 H365 0.985 . S
N353 C355 1.356 . S
N353 H358 0.984 . S
N353 H359 0.985 . S
C354 C348 1.379 1_455 S
C354 C351 1.363 . S
C354 N352 1.356 . S
C355 C349 1.363 . S
C355 C350 1.379 . S
C355 N353 1.356 . S
N356 C348 1.356 . S
N356 H362 0.984 . S
N356 H363 0.984 . S
N357 C350 1.356 . S
N357 H360 0.984 1_655 S
N357 H361 0.985 . S
H358 N353 0.984 . S
H359 N353 0.985 . S
H360 N357 0.984 1_455 S
H361 N357 0.985 . S
H362 N356 0.984 . S
H363 N356 0.984 . S
H364 N352 0.984 . S
H365 N352 0.985 . S
C366 C367 1.363 . S
C366 C372 1.379 . S
C366 N374 1.356 . S
C367 C366 1.363 . S
C367 C373 1.363 . S
C368 C369 1.363 . S
C368 C373 1.379 1_545 S
C368 N375 1.356 . S
C369 C368 1.363 . S
C369 C372 1.363 1_545 S
N370 C372 1.356 . S
N370 H382 0.984 . S
N370 H383 0.985 . S
N371 C373 1.356 . S
N371 H376 0.984 . S
N371 H377 0.985 1_565 S
C372 C366 1.379 . S
C372 C369 1.363 1_565 S
C372 N370 1.356 . S
C373 C367 1.363 . S
C373 C368 1.379 1_565 S
C373 N371 1.356 . S
N374 C366 1.356 . S
N374 H380 0.984 . S
N374 H381 0.984 . S
N375 C368 1.356 . S
N375 H378 0.984 . S
N375 H379 0.985 . S
H376 N371 0.984 . S
H377 N371 0.985 1_545 S
H378 N375 0.984 . S
H379 N375 0.985 . S
H380 N374 0.984 . S
H381 N374 0.984 . S
H382 N370 0.984 . S
H383 N370 0.985 . S
C384 C385 1.363 . S
C384 C390 1.379 . S
C384 N392 1.356 . S
C385 C384 1.363 . S
C385 C391 1.363 . S
C386 C387 1.363 . S
C386 C391 1.379 . S
C386 N393 1.356 . S
C387 C386 1.363 . S
C387 C390 1.363 . S
N388 C390 1.356 . S
N388 H400 0.984 . S
N388 H401 0.985 . S
N389 C391 1.356 . S
N389 H394 0.984 . S
N389 H395 0.985 . S
C390 C384 1.379 . S
C390 C387 1.363 . S
C390 N388 1.356 . S
C391 C385 1.363 . S
C391 C386 1.379 . S
C391 N389 1.356 . S
N392 C384 1.356 . S
N392 H398 0.984 . S
N392 H399 0.984 . S
N393 C386 1.356 . S
N393 H396 0.984 . S
N393 H397 0.985 . S
H394 N389 0.984 . S
H395 N389 0.985 . S
H396 N393 0.984 . S
H397 N393 0.985 . S
H398 N392 0.984 . S
H399 N392 0.984 . S
H400 N388 0.984 . S
H401 N388 0.985 . S
C402 C403 1.363 1_455 S
C402 C408 1.379 . S
C402 N410 1.356 . S
C403 C402 1.363 1_655 S
C403 C409 1.363 . S
C404 C405 1.363 . S
C404 C409 1.379 1_455 S
C404 N411 1.356 . S
C405 C404 1.363 . S
C405 C408 1.363 . S
N406 C408 1.356 1_554 S
N406 H418 0.984 . S
N406 H419 0.985 . S
N407 C409 1.356 . S
N407 H412 0.984 . S
N407 H413 0.985 . S
C408 C402 1.379 . S
C408 C405 1.363 . S
C408 N406 1.356 1_556 S
C409 C403 1.363 . S
C409 C404 1.379 1_655 S
C409 N407 1.356 . S
N410 C402 1.356 . S
N410 H416 0.984 1_556 S
N410 H417 0.984 . S
N411 C404 1.356 . S
N411 H414 0.984 . S
N411 H415 0.985 . S
H412 N407 0.984 . S
H413 N407 0.985 . S
H414 N411 0.984 . S
H415 N411 0.985 . S
H416 N410 0.984 1_554 S
H417 N410 0.984 . S
H418 N406 0.984 . S
H419 N406 0.985 . S
C420 C421 1.363 1_545 S
C420 C426 1.379 . S
C420 N428 1.356 1_545 S
C421 C420 1.363 1_565 S
C421 C427 1.363 1_565 S
C422 C423 1.363 . S
C422 C427 1.379 . S
C422 N429 1.356 . S
C423 C422 1.363 . S
C423 C426 1.363 . S
N424 C426 1.356 . S
N424 H436 0.984 . S
N424 H437 0.985 . S
N425 C427 1.356 1_565 S
N425 H430 0.984 . S
N425 H431 0.985 . S
C426 C420 1.379 . S
C426 C423 1.363 . S
C426 N424 1.356 . S
C427 C421 1.363 1_545 S
C427 C422 1.379 . S
C427 N425 1.356 1_545 S
N428 C420 1.356 1_565 S
N428 H434 0.982 1_565 S
N428 H435 0.984 . S
N429 C422 1.356 . S
N429 H432 0.984 . S
N429 H433 0.985 . S
H430 N425 0.984 . S
H431 N425 0.985 . S
H432 N429 0.984 . S
H433 N429 0.985 . S
H434 N428 0.982 1_545 S
H435 N428 0.984 . S
H436 N424 0.984 . S
H437 N424 0.985 . S
C438 C439 1.363 . S
C438 C444 1.379 . S
C438 N446 1.356 . S
C439 C438 1.363 . S
C439 C445 1.363 . S
C440 C441 1.363 . S
C440 C445 1.379 . S
C440 N447 1.356 . S
C441 C440 1.363 . S
C441 C444 1.363 . S
N442 C444 1.356 . S
N442 H454 0.984 . S
N442 H455 0.985 . S
N443 C445 1.356 . S
N443 H448 0.984 . S
N443 H449 0.985 . S
C444 C438 1.379 . S
C444 C441 1.363 . S
C444 N442 1.356 . S
C445 C439 1.363 . S
C445 C440 1.379 . S
C445 N443 1.356 . S
N446 C438 1.356 . S
N446 H452 0.984 . S
N446 H453 0.984 . S
N447 C440 1.356 . S
N447 H450 0.984 . S
N447 H451 0.985 . S
H448 N443 0.984 . S
H449 N443 0.985 . S
H450 N447 0.984 . S
H451 N447 0.985 . S
H452 N446 0.984 . S
H453 N446 0.984 . S
H454 N442 0.984 . S
H455 N442 0.985 . S
C456 C457 1.363 1_655 S
C456 C462 1.379 . S
C456 N464 1.356 . S
C457 C456 1.363 1_455 S
C457 C463 1.363 . S
C458 C459 1.363 . S
C458 C463 1.379 1_655 S
C458 N465 1.356 . S
C459 C458 1.363 . S
C459 C462 1.363 . S
N460 C462 1.356 . S
N460 H472 0.984 . S
N460 H473 0.985 . S
N461 C463 1.356 . S
N461 H466 0.984 . S
N461 H467 0.985 . S
C462 C456 1.379 . S
C462 C459 1.363 . S
C462 N460 1.356 . S
C463 C457 1.363 . S
C463 C458 1.379 1_455 S
C463 N461 1.356 . S
N464 C456 1.356 . S
N464 H470 0.984 . S
N464 H471 0.984 . S
N465 C458 1.356 . S
N465 H468 0.984 . S
N465 H469 0.985 1_655 S
H466 N461 0.984 . S
H467 N461 0.985 . S
H468 N465 0.984 . S
H469 N465 0.985 1_455 S
H470 N464 0.984 . S
H471 N464 0.984 . S
H472 N460 0.984 . S
H473 N460 0.985 . S
C474 C475 1.363 1_565 S
C474 C480 1.379 . S
C474 N482 1.356 . S
C475 C474 1.363 1_545 S
C475 C481 1.356 . S
C476 C477 1.363 . S
C476 C481 1.376 1_565 S
C476 N483 1.356 . S
C477 C476 1.363 . S
C477 C480 1.363 . S
N478 C480 1.356 . S
N478 H490 0.984 . S
N478 H491 0.985 . S
N479 C481 1.365 . S
N479 H484 0.984 . S
N479 H485 0.985 . S
C480 C474 1.379 . S
C480 C477 1.363 . S
C480 N478 1.356 . S
C481 C475 1.356 . S
C481 C476 1.376 1_545 S
C481 N479 1.365 . S
N482 C474 1.356 . S
N482 H488 0.984 . S
N482 H489 0.984 1_565 S
N483 C476 1.356 . S
N483 H486 0.984 . S
N483 H487 0.985 . S
H484 N479 0.984 . S
H485 N479 0.985 . S
H486 N483 0.984 . S
H487 N483 0.985 . S
H488 N482 0.984 . S
H489 N482 0.984 1_545 S
H490 N478 0.984 . S
H491 N478 0.985 . S
C492 C493 1.363 . S
C492 C498 1.379 . S
C492 N500 1.356 . S
C493 C492 1.363 . S
C493 C499 1.363 . S
C494 C495 1.363 . S
C494 C499 1.379 . S
C494 N501 1.356 . S
C495 C494 1.363 . S
C495 C498 1.363 . S
N496 C498 1.356 . S
N496 H508 0.984 . S
N496 H509 0.985 . S
N497 C499 1.356 . S
N497 H502 0.984 . S
N497 H503 0.985 . S
C498 C492 1.379 . S
C498 C495 1.363 . S
C498 N496 1.356 . S
C499 C493 1.363 . S
C499 C494 1.379 . S
C499 N497 1.356 . S
N500 C492 1.356 . S
N500 H506 0.984 . S
N500 H507 0.984 . S
N501 C494 1.356 . S
N501 H504 0.984 . S
N501 H505 0.985 . S
H502 N497 0.984 . S
H503 N497 0.985 . S
H504 N501 0.984 . S
H505 N501 0.985 . S
H506 N500 0.984 . S
H507 N500 0.984 . S
H508 N496 0.984 . S
H509 N496 0.985 . S
C510 C511 1.363 . S
C510 C516 1.379 . S
C510 N518 1.356 . S
C511 C510 1.363 . S
C511 C517 1.363 . S
C512 C513 1.363 . S
C512 C517 1.379 . S
C512 N519 1.356 . S
C513 C512 1.363 . S
C513 C516 1.363 . S
N514 C516 1.356 . S
N514 H526 0.984 . S
N514 H527 0.985 . S
N515 C517 1.356 . S
N515 H520 0.984 1_455 S
N515 H521 0.985 1_455 S
C516 C510 1.379 . S
C516 C513 1.363 . S
C516 N514 1.356 . S
C517 C511 1.363 . S
C517 C512 1.379 . S
C517 N515 1.356 . S
N518 C510 1.356 . S
N518 H524 0.984 . S
N518 H525 0.984 . S
N519 C512 1.356 . S
N519 H522 0.984 . S
N519 H523 0.985 . S
H520 N515 0.984 1_655 S
H521 N515 0.985 1_655 S
H522 N519 0.984 . S
H523 N519 0.985 . S
H524 N518 0.984 . S
H525 N518 0.984 . S
H526 N514 0.984 . S
H527 N514 0.985 . S
C528 C529 1.363 . S
C528 C534 1.379 . S
C528 N536 1.356 . S
C529 C528 1.363 . S
C529 C535 1.363 . S
C530 C531 1.363 . S
C530 C535 1.379 . S
C530 N537 1.356 . S
C531 C530 1.363 . S
C531 C534 1.363 . S
N532 C534 1.356 1_565 S
N532 H544 0.984 . S
N532 H545 0.985 . S
N533 C535 1.356 . S
N533 H538 0.984 . S
N533 H539 0.985 . S
C534 C528 1.379 . S
C534 C531 1.363 . S
C534 N532 1.356 1_545 S
C535 C529 1.363 . S
C535 C530 1.379 . S
C535 N533 1.356 . S
N536 C528 1.356 . S
N536 H542 0.984 . S
N536 H543 0.984 . S
N537 C530 1.356 . S
N537 H540 0.984 . S
N537 H541 0.985 . S
H538 N533 0.984 . S
H539 N533 0.985 . S
H540 N537 0.984 . S
H541 N537 0.985 . S
H542 N536 0.984 . S
H543 N536 0.984 . S
H544 N532 0.984 . S
H545 N532 0.985 . S
C546 C547 1.363 . S
C546 C552 1.379 . S
C546 N554 1.356 . S
C547 C546 1.363 . S
C547 C553 1.363 . S
C548 C549 1.363 . S
C548 C553 1.379 . S
C548 N555 1.356 . S
C549 C548 1.363 . S
C549 C552 1.363 . S
N550 C552 1.356 . S
N550 H562 0.984 . S
N550 H563 0.985 . S
N551 C553 1.356 . S
N551 H556 0.984 . S
N551 H557 0.985 . S
C552 C546 1.379 . S
C552 C549 1.363 . S
C552 N550 1.356 . S
C553 C547 1.363 . S
C553 C548 1.379 . S
C553 N551 1.356 . S
N554 C546 1.356 . S
N554 H560 0.984 . S
N554 H561 0.984 . S
N555 C548 1.356 . S
N555 H558 0.984 . S
N555 H559 0.985 . S
H556 N551 0.984 . S
H557 N551 0.985 . S
H558 N555 0.984 . S
H559 N555 0.985 . S
H560 N554 0.984 . S
H561 N554 0.984 . S
H562 N550 0.984 . S
H563 N550 0.985 . S
C564 C565 1.363 . S
C564 C570 1.379 . S
C564 N572 1.356 . S
C565 C564 1.363 . S
C565 C571 1.363 . S
C566 C567 1.363 . S
C566 C571 1.379 . S
C566 N573 1.356 . S
C567 C566 1.363 . S
C567 C570 1.363 . S
N568 C570 1.356 1_455 S
N568 H580 0.984 . S
N568 H581 0.985 . S
N569 C571 1.356 . S
N569 H574 0.984 . S
N569 H575 0.985 . S
C570 C564 1.379 . S
C570 C567 1.363 . S
C570 N568 1.356 1_655 S
C571 C565 1.363 . S
C571 C566 1.379 . S
C571 N569 1.356 . S
N572 C564 1.356 . S
N572 H578 0.984 . S
N572 H579 0.984 . S
N573 C566 1.356 . S
N573 H576 0.984 . S
N573 H577 0.985 . S
H574 N569 0.984 . S
H575 N569 0.985 . S
H576 N573 0.984 . S
H577 N573 0.985 . S
H578 N572 0.984 . S
H579 N572 0.984 . S
H580 N568 0.984 . S
H581 N568 0.985 . S
C582 C583 1.363 . S
C582 C588 1.379 . S
C582 N590 1.356 1_565 S
C583 C582 1.363 . S
C583 C589 1.363 . S
C584 C585 1.363 . S
C584 C589 1.379 . S
C584 N591 1.356 . S
C585 C584 1.363 . S
C585 C588 1.363 . S
N586 C588 1.356 . S
N586 H598 0.984 . S
N586 H599 0.985 . S
N587 C589 1.356 . S
N587 H592 0.984 . S
N587 H593 0.985 . S
C588 C582 1.379 . S
C588 C585 1.363 . S
C588 N586 1.356 . S
C589 C583 1.363 . S
C589 C584 1.379 . S
C589 N587 1.356 . S
N590 C582 1.356 1_545 S
N590 H596 0.984 . S
N590 H597 0.984 . S
N591 C584 1.356 . S
N591 H594 0.984 . S
N591 H595 0.985 . S
H592 N587 0.984 . S
H593 N587 0.985 . S
H594 N591 0.984 . S
H595 N591 0.985 . S
H596 N590 0.984 . S
H597 N590 0.984 . S
H598 N586 0.984 . S
H599 N586 0.985 . S
C600 C601 1.363 . S
C600 C606 1.379 . S
C600 N608 1.356 . S
C601 C600 1.363 . S
C601 C607 1.363 . S
C602 C603 1.363 . S
C602 C607 1.379 . S
C602 N609 1.356 . S
C603 C602 1.363 . S
C603 C606 1.363 . S
N604 C606 1.356 . S
N604 H616 0.984 . S
N604 H617 0.985 . S
N605 C607 1.356 . S
N605 H610 0.984 . S
N605 H611 0.985 . S
C606 C600 1.379 . S
C606 C603 1.363 . S
C606 N604 1.356 . S
C607 C601 1.363 . S
C607 C602 1.379 . S
C607 N605 1.356 . S
N608 C600 1.356 . S
N608 H614 0.984 . S
N608 H615 0.984 . S
N609 C602 1.356 . S
N609 H612 0.984 . S
N609 H613 0.985 . S
H610 N605 0.984 . S
H611 N605 0.985 . S
H612 N609 0.984 . S
H613 N609 0.985 . S
H614 N608 0.984 . S
H615 N608 0.984 . S
H616 N604 0.984 . S
H617 N604 0.985 . S
C618 C619 1.363 . S
C618 C624 1.379 . S
C618 N626 1.356 . S
C619 C618 1.363 . S
C619 C625 1.363 . S
C620 C621 1.363 . S
C620 C625 1.379 . S
C620 N627 1.356 . S
C621 C620 1.363 . S
C621 C624 1.363 . S
N622 C624 1.356 . S
N622 H634 0.984 . S
N622 H635 0.985 . S
N623 C625 1.356 1_655 S
N623 H628 0.984 . S
N623 H629 0.985 . S
C624 C618 1.379 . S
C624 C621 1.363 . S
C624 N622 1.356 . S
C625 C619 1.363 . S
C625 C620 1.379 . S
C625 N623 1.356 1_455 S
N626 C618 1.356 . S
N626 H632 0.984 . S
N626 H633 0.984 . S
N627 C620 1.356 . S
N627 H630 0.984 . S
N627 H631 0.985 . S
H628 N623 0.984 . S
H629 N623 0.985 . S
H630 N627 0.984 . S
H631 N627 0.985 . S
H632 N626 0.984 . S
H633 N626 0.984 . S
H634 N622 0.984 . S
H635 N622 0.985 . S
C636 C637 1.363 . S
C636 C642 1.379 . S
C636 N644 1.356 . S
C637 C636 1.363 . S
C637 C643 1.363 . S
C638 C639 1.363 . S
C638 C643 1.379 . S
C638 N645 1.356 . S
C639 C638 1.363 . S
C639 C642 1.363 . S
N640 C642 1.356 . S
N640 H652 0.984 . S
N640 H653 0.985 . S
N641 C643 1.356 1_565 S
N641 H646 0.984 . S
N641 H647 0.985 . S
C642 C636 1.379 . S
C642 C639 1.363 . S
C642 N640 1.356 . S
C643 C637 1.363 . S
C643 C638 1.379 . S
C643 N641 1.356 1_545 S
N644 C636 1.356 . S
N644 H650 0.984 . S
N644 H651 0.984 . S
N645 C638 1.356 . S
N645 H648 0.984 . S
N645 H649 0.985 1_545 S
H646 N641 0.984 . S
H647 N641 0.985 . S
H648 N645 0.984 . S
H649 N645 0.985 1_565 S
H650 N644 0.984 . S
H651 N644 0.984 . S
H652 N640 0.984 . S
H653 N640 0.985 . S
C654 C655 1.363 . S
C654 C660 1.379 . S
C654 N662 1.356 . S
C655 C654 1.363 . S
C655 C661 1.363 . S
C656 C657 1.363 . S
C656 C661 1.379 . S
C656 N663 1.356 . S
C657 C656 1.363 . S
C657 C660 1.363 . S
N658 C660 1.356 . S
N658 H670 0.984 . S
N658 H671 0.985 . S
N659 C661 1.356 . S
N659 H664 0.984 . S
N659 H665 0.985 . S
C660 C654 1.379 . S
C660 C657 1.363 . S
C660 N658 1.356 . S
C661 C655 1.363 . S
C661 C656 1.379 . S
C661 N659 1.356 . S
N662 C654 1.356 . S
N662 H668 0.984 . S
N662 H669 0.984 . S
N663 C656 1.356 . S
N663 H666 0.984 . S
N663 H667 0.985 . S
H664 N659 0.984 . S
H665 N659 0.985 . S
H666 N663 0.984 . S
H667 N663 0.985 . S
H668 N662 0.984 . S
H669 N662 0.984 . S
H670 N658 0.984 . S
H671 N658 0.985 . S
C672 C673 1.363 . S
C672 C678 1.379 . S
C672 N680 1.356 . S
C673 C672 1.363 . S
C673 C679 1.363 . S
C674 C675 1.363 . S
C674 C679 1.379 . S
C674 N681 1.356 . S
C675 C674 1.363 . S
C675 C678 1.363 . S
N676 C678 1.356 . S
N676 H688 0.984 . S
N676 H689 0.985 . S
N677 C679 1.356 1_455 S
N677 H682 0.984 . S
N677 H683 0.985 . S
C678 C672 1.379 . S
C678 C675 1.363 . S
C678 N676 1.356 . S
C679 C673 1.363 . S
C679 C674 1.379 . S
C679 N677 1.356 1_655 S
N680 C672 1.356 . S
N680 H686 0.984 . S
N680 H687 0.984 . S
N681 C674 1.356 . S
N681 H684 0.984 . S
N681 H685 0.985 1_655 S
H682 N677 0.984 . S
H683 N677 0.985 . S
H684 N681 0.984 . S
H685 N681 0.985 1_455 S
H686 N680 0.984 . S
H687 N680 0.984 . S
H688 N676 0.984 . S
H689 N676 0.985 . S
C690 C691 1.363 . S
C690 C696 1.379 . S
C690 N698 1.356 . S
C691 C690 1.363 . S
C691 C697 1.363 . S
C692 C693 1.363 . S
C692 C697 1.379 . S
C692 N699 1.356 1_565 S
C693 C692 1.363 . S
C693 C696 1.363 . S
N694 C696 1.356 . S
N694 H706 0.984 . S
N694 H707 0.985 . S
N695 C697 1.356 . S
N695 H700 0.984 . S
N695 H701 0.985 . S
C696 C690 1.379 . S
C696 C693 1.363 . S
C696 N694 1.356 . S
C697 C691 1.363 . S
C697 C692 1.379 . S
C697 N695 1.356 . S
N698 C690 1.356 . S
N698 H704 0.984 . S
N698 H705 0.984 . S
N699 C692 1.356 1_545 S
N699 H702 0.984 . S
N699 H703 0.985 . S
H700 N695 0.984 . S
H701 N695 0.985 . S
H702 N699 0.984 . S
H703 N699 0.985 . S
H704 N698 0.984 . S
H705 N698 0.984 . S
H706 N694 0.984 . S
H707 N694 0.985 . S
C708 C709 1.363 . S
C708 C714 1.379 . S
C708 N716 1.356 . S
C709 C708 1.363 . S
C709 C715 1.363 . S
C710 C711 1.363 . S
C710 C715 1.379 . S
C710 N717 1.356 . S
C711 C710 1.363 . S
C711 C714 1.363 . S
N712 C714 1.356 . S
N712 H724 0.984 . S
N712 H725 0.985 . S
N713 C715 1.356 . S
N713 H718 0.984 . S
N713 H719 0.985 . S
C714 C708 1.379 . S
C714 C711 1.363 . S
C714 N712 1.356 . S
C715 C709 1.363 . S
C715 C710 1.379 . S
C715 N713 1.356 . S
N716 C708 1.356 . S
N716 H722 0.984 1_545 S
N716 H723 0.984 . S
N717 C710 1.356 . S
N717 H720 0.984 . S
N717 H721 0.985 . S
H718 N713 0.984 . S
H719 N713 0.985 . S
H720 N717 0.984 . S
H721 N717 0.985 . S
H722 N716 0.984 1_565 S
H723 N716 0.984 . S
H724 N712 0.984 . S
H725 N712 0.985 . S
C726 C727 1.363 . S
C726 C732 1.379 . S
C726 N734 1.356 . S
C727 C726 1.363 . S
C727 C733 1.363 . S
C728 C729 1.363 . S
C728 C733 1.379 . S
C728 N735 1.356 . S
C729 C728 1.363 . S
C729 C732 1.363 . S
N730 C732 1.356 . S
N730 H742 0.984 . S
N730 H743 0.985 . S
N731 C733 1.356 . S
N731 H736 0.984 . S
N731 H737 0.985 . S
C732 C726 1.379 . S
C732 C729 1.363 . S
C732 N730 1.356 . S
C733 C727 1.363 . S
C733 C728 1.379 . S
C733 N731 1.356 . S
N734 C726 1.356 . S
N734 H740 0.984 1_455 S
N734 H741 0.984 . S
N735 C728 1.356 . S
N735 H738 0.984 . S
N735 H739 0.985 . S
H736 N731 0.984 . S
H737 N731 0.985 . S
H738 N735 0.984 . S
H739 N735 0.985 . S
H740 N734 0.984 1_655 S
H741 N734 0.984 . S
H742 N730 0.984 . S
H743 N730 0.985 . S
C744 C745 1.363 . S
C744 C750 1.379 . S
C744 N752 1.356 . S
C745 C744 1.363 . S
C745 C751 1.363 . S
C746 C747 1.363 . S
C746 C751 1.379 . S
C746 N753 1.356 . S
C747 C746 1.363 . S
C747 C750 1.363 . S
N748 C750 1.356 . S
N748 H760 0.984 1_655 S
N748 H761 0.985 . S
N749 C751 1.356 . S
N749 H754 0.984 . S
N749 H755 0.985 1_545 S
C750 C744 1.379 . S
C750 C747 1.363 . S
C750 N748 1.356 . S
C751 C745 1.363 . S
C751 C746 1.379 . S
C751 N749 1.356 . S
N752 C744 1.356 . S
N752 H758 0.984 . S
N752 H759 0.984 . S
N753 C746 1.356 . S
N753 H756 0.984 . S
N753 H757 0.985 . S
H754 N749 0.984 . S
H755 N749 0.985 1_565 S
H756 N753 0.984 . S
H757 N753 0.985 . S
H758 N752 0.984 . S
H759 N752 0.984 . S
H760 N748 0.984 1_455 S
H761 N748 0.985 . S
C762 C763 1.363 . S
C762 C768 1.379 . S
C762 N770 1.356 . S
C763 C762 1.363 . S
C763 C769 1.363 . S
C764 C765 1.363 . S
C764 C769 1.379 . S
C764 N771 1.356 . S
C765 C764 1.363 . S
C765 C768 1.363 . S
N766 C768 1.356 . S
N766 H778 0.984 . S
N766 H779 0.985 . S
N767 C769 1.356 . S
N767 H772 0.984 . S
N767 H773 0.985 . S
C768 C762 1.379 . S
C768 C765 1.363 . S
C768 N766 1.356 . S
C769 C763 1.363 . S
C769 C764 1.379 . S
C769 N767 1.356 . S
N770 C762 1.356 . S
N770 H776 0.984 . S
N770 H777 0.984 . S
N771 C764 1.356 . S
N771 H774 0.984 . S
N771 H775 0.986 . S
H772 N767 0.984 . S
H773 N767 0.985 . S
H774 N771 0.984 . S
H775 N771 0.986 . S
H776 N770 0.984 . S
H777 N770 0.984 . S
H778 N766 0.984 . S
H779 N766 0.985 . S
C780 C781 1.363 . S
C780 C786 1.379 . S
C780 N788 1.356 . S
C781 C780 1.363 . S
C781 C787 1.363 . S
C782 C783 1.363 . S
C782 C787 1.379 . S
C782 N789 1.356 . S
C783 C782 1.363 . S
C783 C786 1.363 . S
N784 C786 1.356 . S
N784 H796 0.984 . S
N784 H797 0.985 . S
N785 C787 1.356 . S
N785 H790 0.984 . S
N785 H791 0.985 1_655 S
C786 C780 1.379 . S
C786 C783 1.363 . S
C786 N784 1.356 . S
C787 C781 1.363 . S
C787 C782 1.379 . S
C787 N785 1.356 . S
N788 C780 1.356 . S
N788 H794 0.984 . S
N788 H795 0.984 . S
N789 C782 1.356 . S
N789 H792 0.984 . S
N789 H793 0.985 . S
H790 N785 0.984 . S
H791 N785 0.985 1_455 S
H792 N789 0.984 . S
H793 N789 0.985 . S
H794 N788 0.984 . S
H795 N788 0.984 . S
H796 N784 0.984 . S
H797 N784 0.985 . S
C798 C799 1.363 . S
C798 C804 1.379 . S
C798 N806 1.356 . S
C799 C798 1.363 . S
C799 C805 1.363 . S
C800 C801 1.363 . S
C800 C805 1.379 . S
C800 N807 1.356 . S
C801 C800 1.363 . S
C801 C804 1.363 . S
N802 C804 1.356 . S
N802 H814 0.984 1_565 S
N802 H815 0.985 . S
N803 C805 1.356 . S
N803 H808 0.984 . S
N803 H809 0.985 . S
C804 C798 1.379 . S
C804 C801 1.363 . S
C804 N802 1.356 . S
C805 C799 1.363 . S
C805 C800 1.379 . S
C805 N803 1.356 . S
N806 C798 1.356 . S
N806 H812 0.984 . S
N806 H813 0.984 . S
N807 C800 1.356 . S
N807 H810 0.984 . S
N807 H811 0.985 . S
H808 N803 0.984 . S
H809 N803 0.985 . S
H810 N807 0.984 . S
H811 N807 0.985 . S
H812 N806 0.984 . S
H813 N806 0.984 . S
H814 N802 0.984 1_545 S
H815 N802 0.985 . S
C816 C817 1.363 1_554 S
C816 C822 1.379 1_545 S
C816 N824 1.356 . S
C817 C816 1.363 1_556 S
C817 C823 1.363 1_455 S
C818 C819 1.363 . S
C818 C823 1.379 1_565 S
C818 N825 1.356 . S
C819 C818 1.363 . S
C819 C822 1.363 1_656 S
N820 C822 1.356 1_655 S
N820 H832 0.984 1_655 S
N820 H833 0.985 . S
N821 C823 1.356 . S
N821 H826 0.984 1_655 S
N821 H827 0.985 . S
C822 C816 1.379 1_565 S
C822 C819 1.363 1_454 S
C822 N820 1.356 1_455 S
C823 C817 1.363 1_655 S
C823 C818 1.379 1_545 S
C823 N821 1.356 . S
N824 C816 1.356 . S
N824 H830 0.984 . S
N824 H831 0.984 . S
N825 C818 1.356 . S
N825 H828 0.984 . S
N825 H829 0.985 . S
H826 N821 0.984 1_455 S
H827 N821 0.985 . S
H828 N825 0.984 . S
H829 N825 0.985 . S
H830 N824 0.984 . S
H831 N824 0.984 . S
H832 N820 0.984 1_455 S
H833 N820 0.985 . S
C834 C835 1.363 1_545 S
C834 C840 1.379 . S
C834 N842 1.356 . S
C835 C834 1.363 1_565 S
C835 C841 1.363 1_455 S
C836 C837 1.363 1_565 S
C836 C841 1.379 . S
C836 N843 1.356 . S
C837 C836 1.363 1_545 S
C837 C840 1.363 1_655 S
N838 C840 1.356 . S
N838 H850 0.984 . S
N838 H851 0.985 1_455 S
N839 C841 1.356 . S
N839 H844 0.984 1_655 S
N839 H845 0.985 . S
C840 C834 1.379 . S
C840 C837 1.363 1_455 S
C840 N838 1.356 . S
C841 C835 1.363 1_655 S
C841 C836 1.379 . S
C841 N839 1.356 . S
N842 C834 1.356 . S
N842 H848 0.984 . S
N842 H849 0.984 1_545 S
N843 C836 1.356 . S
N843 H846 0.979 1_565 S
N843 H847 0.985 . S
H844 N839 0.984 1_455 S
H845 N839 0.985 . S
H846 N843 0.979 1_545 S
H847 N843 0.985 . S
H848 N842 0.984 . S
H849 N842 0.984 1_565 S
H850 N838 0.984 . S
H851 N838 0.985 1_655 S
C852 C853 1.363 . S
C852 C858 1.379 1_445 S
C852 N860 1.356 . S
C853 C852 1.363 . S
C853 C859 1.361 1_545 S
C854 C855 1.363 . S
C854 C859 1.379 1_655 S
C854 N861 1.356 . S
C855 C854 1.363 . S
C855 C858 1.363 . S
N856 C858 1.356 . S
N856 H868 0.984 . S
N856 H869 0.985 . S
N857 C859 1.358 1_545 S
N857 H862 0.984 . S
N857 H863 0.985 . S
C858 C852 1.379 1_665 S
C858 C855 1.363 . S
C858 N856 1.356 . S
C859 C853 1.361 1_565 S
C859 C854 1.379 1_455 S
C859 N857 1.358 1_565 S
N860 C852 1.356 . S
N860 H866 0.984 . S
N860 H867 0.984 . S
N861 C854 1.356 . S
N861 H864 0.984 . S
N861 H865 0.985 . S
H862 N857 0.984 . S
H863 N857 0.985 . S
H864 N861 0.984 . S
H865 N861 0.985 . S
H866 N860 0.984 . S
H867 N860 0.984 . S
H868 N856 0.984 . S
H869 N856 0.985 . S
C870 C871 1.363 1_655 S
C870 C876 1.379 1_545 S
C870 N878 1.356 . S
C871 C870 1.363 1_455 S
C871 C877 1.363 . S
C872 C873 1.363 1_455 S
C872 C877 1.379 1_565 S
C872 N879 1.356 . S
C873 C872 1.363 1_655 S
C873 C876 1.363 . S
N874 C876 1.356 . S
N874 H886 0.984 . S
N874 H887 0.985 . S
N875 C877 1.356 . S
N875 H880 0.984 . S
N875 H881 0.985 . S
C876 C870 1.379 1_565 S
C876 C873 1.363 . S
C876 N874 1.356 . S
C877 C871 1.363 . S
C877 C872 1.379 1_545 S
C877 N875 1.356 . S
N878 C870 1.356 . S
N878 H884 0.984 . S
N878 H885 0.984 1_655 S
N879 C872 1.356 . S
N879 H882 0.984 1_455 S
N879 H883 0.985 . S
H880 N875 0.984 . S
H881 N875 0.985 . S
H882 N879 0.984 1_655 S
H883 N879 0.985 . S
H884 N878 0.984 . S
H885 N878 0.984 1_455 S
H886 N874 0.984 . S
H887 N874 0.985 . S
C888 C889 1.363 1_655 S
C888 C894 1.379 . S
C888 N896 1.356 . S
C889 C888 1.363 1_455 S
C889 C895 1.363 1_565 S
C890 C891 1.363 1_455 S
C890 C895 1.379 . S
C890 N897 1.356 . S
C891 C890 1.363 1_655 S
C891 C894 1.363 1_545 S
N892 C894 1.356 1_545 S
N892 H904 0.984 1_545 S
N892 H905 0.985 . S
N893 C895 1.356 . S
N893 H898 0.984 1_545 S
N893 H899 0.985 . S
C894 C888 1.379 . S
C894 C891 1.363 1_565 S
C894 N892 1.356 1_565 S
C895 C889 1.363 1_545 S
C895 C890 1.379 . S
C895 N893 1.356 . S
N896 C888 1.356 . S
N896 H902 0.984 . S
N896 H903 0.984 1_655 S
N897 C890 1.356 . S
N897 H900 0.984 1_455 S
N897 H901 0.985 . S
H898 N893 0.984 1_565 S
H899 N893 0.985 . S
H900 N897 0.984 1_655 S
H901 N897 0.985 . S
H902 N896 0.984 . S
H903 N896 0.984 1_455 S
H904 N892 0.984 1_565 S
H905 N892 0.985 . S
C906 C907 1.363 . S
C906 C912 1.379 1_455 S
C906 N914 1.356 . S
C907 C906 1.363 . S
C907 C913 1.363 1_545 S
C908 C909 1.363 . S
C908 C913 1.379 1_655 S
C908 N915 1.356 . S
C909 C908 1.363 . S
C909 C912 1.363 1_565 S
N910 C912 1.356 . S
N910 H922 0.984 . S
N910 H923 0.985 . S
N911 C913 1.356 . S
N911 H916 0.984 1_565 S
N911 H917 0.985 . S
C912 C906 1.379 1_655 S
C912 C909 1.363 1_545 S
C912 N910 1.356 . S
C913 C907 1.363 1_565 S
C913 C908 1.379 1_455 S
C913 N911 1.356 . S
N914 C906 1.356 . S
N914 H920 0.984 . S
N914 H921 0.984 . S
N915 C908 1.356 . S
N915 H918 0.984 . S
N915 H919 0.985 . S
H916 N911 0.984 1_545 S
H917 N911 0.985 . S
H918 N915 0.984 . S
H919 N915 0.985 . S
H920 N914 0.984 . S
H921 N914 0.984 . S
H922 N910 0.984 . S
H923 N910 0.985 . S
C277 C182 1.797 . S
C279 C20 1.798 . S
C295 C205 1.788 . S
C297 C43 1.798 . S
C313 C228 1.788 . S
C315 C66 1.798 . S
C331 C251 1.788 . S
C333 C89 1.798 . S
C349 C274 1.788 . S
C351 C112 1.798 . S
C367 C159 1.788 . S
C369 C135 1.798 . S
C385 C158 1.798 . S
C387 C136 1.788 . S
C403 C181 1.798 . S
C405 C21 1.788 . S
C421 C204 1.798 . S
C423 C44 1.788 . S
C439 C227 1.798 . S
C441 C67 1.788 . S
C457 C250 1.798 . S
C459 C90 1.788 . S
C475 C273 1.798 . S
C477 C113 1.788 . S
C493 C17 1.388 . S
C495 C131 1.367 . S
C511 C40 1.388 . S
C513 C16 1.367 . S
C529 C39 1.367 . S
C531 C63 1.388 . S
C547 C62 1.367 . S
C549 C86 1.388 . S
C565 C85 1.367 . S
C567 C109 1.388 . S
C583 C132 1.388 . S
C585 C108 1.367 . S
C601 C155 1.388 . S
C603 C177 1.367 . S
C619 C178 1.388 . S
C621 C200 1.367 . S
C637 C201 1.388 . S
C639 C223 1.367 . S
C655 C224 1.388 . S
C657 C246 1.367 . S
C673 C247 1.388 . S
C675 C269 1.366 . S
C691 C154 1.367 . S
C693 C270 1.388 . S
C709 C202 1.201 . S
C711 C18 1.201 . S
C727 C41 1.201 . S
C729 C225 1.201 . S
C745 C64 1.201 . S
C747 C248 1.201 . S
C763 C87 1.201 . S
C765 C271 1.201 . S
C781 C110 1.201 . S
C783 C156 1.201 . S
C799 C179 1.201 . S
C801 C133 1.201 . S
C817 C19 1.000 1_556 S
C819 C180 1.000 . S
C835 C203 1.000 . S
C837 C42 1.000 . S
C853 C226 1.000 . S
C855 C65 1.000 . S
C871 C249 1.000 . S
C873 C88 1.000 . S
C889 C111 1.000 . S
C891 C272 1.000 . S
C907 C134 1.000 . S
C909 C157 1.000 . S
