# Generated by pormake.
# Topology bcs, (6)-cn, num edge types: 1
# Building blocks:
#     Node 0, Type 0, BuildingBlock: KUMBOL_clean_sbu_1, # of connection points: 6
#     Node 1, Type 0, BuildingBlock: KUMBOL_clean_sbu_1, # of connection points: 6
#     Node 2, Type 0, BuildingBlock: KUMBOL_clean_sbu_1, # of connection points: 6
#     Node 3, Type 0, BuildingBlock: KUMBOL_clean_sbu_1, # of connection points: 6
#     Node 4, Type 0, BuildingBlock: KUMBOL_clean_sbu_1, # of connection points: 6
#     Node 5, Type 0, BuildingBlock: KUMBOL_clean_sbu_1, # of connection points: 6
#     Node 6, Type 0, BuildingBlock: KUMBOL_clean_sbu_1, # of connection points: 6
#     Node 7, Type 0, BuildingBlock: KUMBOL_clean_sbu_1, # of connection points: 6
#     Node 8, Type 0, BuildingBlock: KUMBOL_clean_sbu_1, # of connection points: 6
#     Node 9, Type 0, BuildingBlock: KUMBOL_clean_sbu_1, # of connection points: 6
#     Node 10, Type 0, BuildingBlock: KUMBOL_clean_sbu_1, # of connection points: 6
#     Node 11, Type 0, BuildingBlock: KUMBOL_clean_sbu_1, # of connection points: 6
#     Node 12, Type 0, BuildingBlock: KUMBOL_clean_sbu_1, # of connection points: 6
#     Node 13, Type 0, BuildingBlock: KUMBOL_clean_sbu_1, # of connection points: 6
#     Node 14, Type 0, BuildingBlock: KUMBOL_clean_sbu_1, # of connection points: 6
#     Node 15, Type 0, BuildingBlock: KUMBOL_clean_sbu_1, # of connection points: 6
#     Edge 16, Type (0, 0), BuildingBlock: AJUNOK_clean_linker_0, # of connection points: 2
#     Edge 17, Type (0, 0), BuildingBlock: AJUNOK_clean_linker_0, # of connection points: 2
#     Edge 18, Type (0, 0), BuildingBlock: AJUNOK_clean_linker_0, # of connection points: 2
#     Edge 19, Type (0, 0), BuildingBlock: AJUNOK_clean_linker_0, # of connection points: 2
#     Edge 20, Type (0, 0), BuildingBlock: AJUNOK_clean_linker_0, # of connection points: 2
#     Edge 21, Type (0, 0), BuildingBlock: AJUNOK_clean_linker_0, # of connection points: 2
#     Edge 22, Type (0, 0), BuildingBlock: AJUNOK_clean_linker_0, # of connection points: 2
#     Edge 23, Type (0, 0), BuildingBlock: AJUNOK_clean_linker_0, # of connection points: 2
#     Edge 24, Type (0, 0), BuildingBlock: AJUNOK_clean_linker_0, # of connection points: 2
#     Edge 25, Type (0, 0), BuildingBlock: AJUNOK_clean_linker_0, # of connection points: 2
#     Edge 26, Type (0, 0), BuildingBlock: AJUNOK_clean_linker_0, # of connection points: 2
#     Edge 27, Type (0, 0), BuildingBlock: AJUNOK_clean_linker_0, # of connection points: 2
#     Edge 28, Type (0, 0), BuildingBlock: AJUNOK_clean_linker_0, # of connection points: 2
#     Edge 29, Type (0, 0), BuildingBlock: AJUNOK_clean_linker_0, # of connection points: 2
#     Edge 30, Type (0, 0), BuildingBlock: AJUNOK_clean_linker_0, # of connection points: 2
#     Edge 31, Type (0, 0), BuildingBlock: AJUNOK_clean_linker_0, # of connection points: 2
#     Edge 32, Type (0, 0), BuildingBlock: AJUNOK_clean_linker_0, # of connection points: 2
#     Edge 33, Type (0, 0), BuildingBlock: AJUNOK_clean_linker_0, # of connection points: 2
#     Edge 34, Type (0, 0), BuildingBlock: AJUNOK_clean_linker_0, # of connection points: 2
#     Edge 35, Type (0, 0), BuildingBlock: AJUNOK_clean_linker_0, # of connection points: 2
#     Edge 36, Type (0, 0), BuildingBlock: AJUNOK_clean_linker_0, # of connection points: 2
#     Edge 37, Type (0, 0), BuildingBlock: AJUNOK_clean_linker_0, # of connection points: 2
#     Edge 38, Type (0, 0), BuildingBlock: AJUNOK_clean_linker_0, # of connection points: 2
#     Edge 39, Type (0, 0), BuildingBlock: AJUNOK_clean_linker_0, # of connection points: 2
#     Edge 40, Type (0, 0), BuildingBlock: AJUNOK_clean_linker_0, # of connection points: 2
#     Edge 41, Type (0, 0), BuildingBlock: AJUNOK_clean_linker_0, # of connection points: 2
#     Edge 42, Type (0, 0), BuildingBlock: AJUNOK_clean_linker_0, # of connection points: 2
#     Edge 43, Type (0, 0), BuildingBlock: AJUNOK_clean_linker_0, # of connection points: 2
#     Edge 44, Type (0, 0), BuildingBlock: AJUNOK_clean_linker_0, # of connection points: 2
#     Edge 45, Type (0, 0), BuildingBlock: AJUNOK_clean_linker_0, # of connection points: 2
#     Edge 46, Type (0, 0), BuildingBlock: AJUNOK_clean_linker_0, # of connection points: 2
#     Edge 47, Type (0, 0), BuildingBlock: AJUNOK_clean_linker_0, # of connection points: 2
#     Edge 48, Type (0, 0), BuildingBlock: AJUNOK_clean_linker_0, # of connection points: 2
#     Edge 49, Type (0, 0), BuildingBlock: AJUNOK_clean_linker_0, # of connection points: 2
#     Edge 50, Type (0, 0), BuildingBlock: AJUNOK_clean_linker_0, # of connection points: 2
#     Edge 51, Type (0, 0), BuildingBlock: AJUNOK_clean_linker_0, # of connection points: 2
#     Edge 52, Type (0, 0), BuildingBlock: AJUNOK_clean_linker_0, # of connection points: 2
#     Edge 53, Type (0, 0), BuildingBlock: AJUNOK_clean_linker_0, # of connection points: 2
#     Edge 54, Type (0, 0), BuildingBlock: AJUNOK_clean_linker_0, # of connection points: 2
#     Edge 55, Type (0, 0), BuildingBlock: AJUNOK_clean_linker_0, # of connection points: 2
#     Edge 56, Type (0, 0), BuildingBlock: AJUNOK_clean_linker_0, # of connection points: 2
#     Edge 57, Type (0, 0), BuildingBlock: AJUNOK_clean_linker_0, # of connection points: 2
#     Edge 58, Type (0, 0), BuildingBlock: AJUNOK_clean_linker_0, # of connection points: 2
#     Edge 59, Type (0, 0), BuildingBlock: AJUNOK_clean_linker_0, # of connection points: 2
#     Edge 60, Type (0, 0), BuildingBlock: AJUNOK_clean_linker_0, # of connection points: 2
#     Edge 61, Type (0, 0), BuildingBlock: AJUNOK_clean_linker_0, # of connection points: 2
#     Edge 62, Type (0, 0), BuildingBlock: AJUNOK_clean_linker_0, # of connection points: 2
#     Edge 63, Type (0, 0), BuildingBlock: AJUNOK_clean_linker_0, # of connection points: 2
# Relax obj value: 0.183
# Max RMSD: 0.210
# Mean RMSD: 0.149
data_MOF--net-bcs--node1-KUMBOL_clean_sbu_1--edge1-AJUNOK_clean_linker_0
_symmetry_space_group_name_H-M    P1
_symmetry_Int_Tables_number       1
_symmetry_cell_setting            triclinic
loop_
_symmetry_equiv_pos_as_xyz
'x, y, z'
_cell_length_a     32.824533
_cell_length_b     31.898482
_cell_length_c     34.736634
_cell_angle_alpha  106.11134
_cell_angle_beta   75.215856
_cell_angle_gamma 125.80728
loop_
_atom_site_label
_atom_site_type_symbol
_atom_site_fract_x
_atom_site_fract_y
_atom_site_fract_z
_atom_type_partial_charge
C0 C 0.15785 0.20207 0.10364 0.0
C1 C 0.12166 0.21797 0.17166 0.0
C2 C 0.124 0.18347 0.13736 0.0
C3 C 0.15201 0.27169 0.1703 0.0
C4 C 0.19142 0.25632 0.10355 0.0
C5 C 0.1874 0.29109 0.13668 0.0
N6 N 0.16021 0.16706 0.07212 0.0
C7 C 0.20085 0.18395 0.04283 0.0
C8 C 0.22946 0.27389 0.07113 0.0
C9 C 0.23514 0.23749 0.04123 0.0
Gd10 Gd 1.00416 0.03111 0.03125 0.0
Gd11 Gd 0.09123 0.079 0.07363 0.0
N12 N 0.09182 0.13101 0.13602 0.0
C13 C 0.08882 0.19723 0.20598 0.0
C14 C 0.06229 0.11022 0.16993 0.0
C15 C 0.06 0.14309 0.20543 0.0
H16 H 0.03908 0.06833 0.16905 0.0
H17 H 1.03544 0.1266 0.23197 0.0
H18 H 0.0538 0.03119 0.93679 0.0
H19 H 0.20681 0.15646 0.02016 0.0
H20 H 1.03594 0.97037 0.8719 0.0
H21 H 0.08621 0.22259 0.23318 0.0
H22 H 0.14854 0.29825 0.19513 0.0
H23 H 0.89008 0.97888 0.09061 0.0
H24 H 0.25622 0.31538 0.07011 0.0
H25 H 0.26611 0.25062 0.01714 0.0
H26 H 0.87341 0.81799 0.90617 0.0
H27 H 0.21296 0.33289 0.13707 0.0
H28 H 0.79407 0.8196 0.03908 0.0
H29 H 0.81103 0.89315 0.09513 0.0
N30 N 0.92359 0.95243 0.0369 0.0
C31 C 0.91371 0.91379 1.00469 0.0
C32 C 0.88578 0.94642 0.06768 0.0
C33 C 0.83054 0.85659 0.03829 0.0
C34 C 0.83987 0.89795 0.06985 0.0
C35 C 0.86648 0.8652 1.00432 0.0
H36 H 0.81789 0.79207 0.96754 0.0
N37 N 0.99106 0.97419 0.97053 0.0
C38 C 0.94789 0.92565 0.96995 0.0
C39 C 0.96642 0.90759 0.89793 0.0
C40 C 0.93424 0.89099 0.93347 0.0
C41 C 1.02147 0.99131 0.93584 0.0
C42 C 1.0111 0.95726 0.89928 0.0
O43 O 0.0376 0.12549 0.1077 0.0
O44 O 0.96349 0.06898 0.08794 0.0
O45 O 1.02064 0.10165 0.01639 0.0
O46 O 0.95092 0.0249 1.00224 0.0
O47 O 1.0275 0.99618 0.08858 0.0
O48 O 0.9769 0.01996 0.09675 0.0
O49 O 0.05403 0.98231 0.99333 0.0
O50 O 0.12776 0.03733 0.01472 0.0
O51 O 0.08397 0.02747 0.10838 0.0
O52 O 0.15765 0.09564 0.09286 0.0
O53 O 0.06868 0.10986 1.01046 0.0
O54 O 0.12232 0.09069 1.00731 0.0
C55 C 0.98764 0.11533 0.11346 0.0
C56 C 0.98559 0.99094 0.10766 0.0
C57 C 0.94701 0.09987 0.02083 0.0
C58 C 0.92753 0.15103 0.99887 0.0
C59 C 0.86494 0.08674 0.04301 0.0
C60 C 0.89843 0.07304 0.04198 0.0
C61 C 0.87837 0.12368 0.02013 0.0
C62 C 0.96318 0.14335 1.00479 0.0
C63 C 0.97582 0.07581 1.00494 0.0
C64 C 0.88715 0.84304 0.9334 0.0
C65 C 0.85439 0.829 0.96877 0.0
H66 H 0.95552 0.88451 0.86891 0.0
C67 C 0.10381 0.99226 0.98734 0.0
C68 C 0.11131 0.11597 0.99311 0.0
C69 C 0.15213 0.01754 0.09381 0.0
C70 C 0.16731 0.96025 0.1136 0.0
C71 C 0.20584 0.99089 0.04885 0.0
C72 C 0.18562 0.02121 0.05848 0.0
C73 C 0.19702 0.96079 0.0762 0.0
C74 C 0.14114 0.98477 0.12006 0.0
C75 C 0.13253 0.05156 0.10675 0.0
H76 H 0.82684 0.06499 0.05808 0.0
H77 H 0.88504 0.03907 0.0547 0.0
H78 H 0.84869 0.12737 0.01709 0.0
H79 H 1.00235 0.16639 0.99249 0.0
H80 H 0.23088 0.99311 0.02117 0.0
H81 H 0.19737 0.04833 0.03883 0.0
H82 H 0.21611 0.94064 0.0691 0.0
H83 H 0.11658 0.98386 0.14774 0.0
C84 C 0.3917 0.7558 0.21014 0.0
C85 C 0.47485 0.82868 0.22788 0.0
C86 C 0.42157 0.80117 0.2359 0.0
C87 C 0.49721 0.80761 0.1959 0.0
C88 C 0.4143 0.73724 0.1758 0.0
C89 C 0.467 0.76221 0.16971 0.0
N90 N 0.34084 0.73249 0.21661 0.0
C91 C 0.31096 0.69381 0.18796 0.0
C92 C 0.38345 0.6953 0.14777 0.0
C93 C 0.33164 0.67414 0.15354 0.0
Gd94 Gd 0.26806 0.85131 0.32359 0.0
Gd95 Gd 0.30933 0.76344 0.27849 0.0
N96 N 0.39879 0.82113 0.26611 0.0
C97 C 0.50413 0.87792 0.25079 0.0
C98 C 0.42748 0.87156 0.28551 0.0
C99 C 0.48028 0.90006 0.27892 0.0
H100 H 0.41025 0.89086 0.30559 0.0
H101 H 0.50253 0.93942 0.29518 0.0
H102 H 0.16611 0.72652 0.2856 0.0
H103 H 0.27064 0.67622 0.19269 0.0
H104 H 0.07461 0.67878 0.29685 0.0
H105 H 0.54508 0.90035 0.24541 0.0
H106 H 0.53798 0.82758 0.1899 0.0
H107 H 0.30849 0.93722 0.40763 0.0
H108 H 0.39944 0.67997 0.12108 0.0
H109 H 0.30753 0.64238 0.13166 0.0
H110 H 0.03975 0.77607 0.41701 0.0
H111 H 0.48487 0.74779 0.14402 0.0
H112 H 0.17859 0.91751 0.48923 0.0
H113 H 0.27154 0.96342 0.47334 0.0
N114 N 0.23725 0.87308 0.38889 0.0
C115 C 0.18602 0.84665 0.39712 0.0
C116 C 0.26794 0.91475 0.41544 0.0
C117 C 0.1946 0.90431 0.46115 0.0
C118 C 0.2471 0.93028 0.45234 0.0
C119 C 0.1634 0.86267 0.43311 0.0
H120 H 0.09272 0.85013 0.46668 0.0
N121 N 0.17888 0.78938 0.33435 0.0
C122 C 0.15609 0.80444 0.36885 0.0
C123 C 0.07346 0.73309 0.34942 0.0
C124 C 0.10285 0.7778 0.37639 0.0
C125 C 0.14984 0.74334 0.3098 0.0
C126 C 0.09707 0.71489 0.31675 0.0
O127 O 0.33778 0.82162 0.23502 0.0
O128 O 0.34164 0.88994 0.281 0.0
O129 O 0.22877 0.88625 0.32493 0.0
O130 O 0.31008 0.93675 0.32506 0.0
O131 O 0.34739 0.81159 0.33836 0.0
O132 O 0.32838 0.87376 0.36399 0.0
O133 O 0.24941 0.79813 0.36702 0.0
O134 O 0.23132 0.73166 0.31624 0.0
O135 O 0.31202 0.72761 0.32106 0.0
O136 O 0.28305 0.68088 0.26434 0.0
O137 O 0.24051 0.80967 0.25864 0.0
O138 O 0.24924 0.73998 0.23936 0.0
C139 C 0.35245 0.87138 0.24378 0.0
C140 C 0.35178 0.8517 0.3667 0.0
C141 C 0.26632 0.96552 0.3041 0.0
C142 C 0.21262 0.95818 0.26221 0.0
C143 C 0.23598 0.02231 0.32332 0.0
C144 C 0.26884 0.01013 0.32762 0.0
C145 C 0.20562 0.99414 0.29202 0.0
C146 C 0.24191 0.94249 0.26901 0.0
C147 C 0.2685 0.9335 0.32557 0.0
C148 C 0.08049 0.79565 0.41114 0.0
C149 C 0.11063 0.83761 0.43959 0.0
H150 H 1.03252 0.71117 0.35445 0.0
C151 C 0.22746 0.74749 0.35559 0.0
C152 C 0.23356 0.76697 0.23221 0.0
C153 C 0.31706 0.65361 0.29736 0.0
C154 C 0.36552 0.64037 0.32949 0.0
C155 C 0.31964 0.57603 0.274 0.0
C156 C 0.30106 0.60511 0.27212 0.0
C157 C 0.35329 0.59461 0.30151 0.0
C158 C 0.34861 0.67046 0.32648 0.0
C159 C 0.2944 0.68207 0.29793 0.0
H160 H 0.23426 0.05372 0.34408 0.0
H161 H 0.29077 0.03084 0.3529 0.0
H162 H 0.18232 1.0058 0.28775 0.0
H163 H 0.24322 0.91066 0.24862 0.0
H164 H 0.30775 0.53888 0.25428 0.0
H165 H 0.27457 0.58991 0.25084 0.0
H166 H 0.36708 0.57152 0.30259 0.0
H167 H 0.35735 0.70513 0.34876 0.0
C168 C 0.67573 0.13944 0.47315 0.0
C169 C 0.67046 0.08439 0.40809 0.0
C170 C 0.64808 0.09352 0.44689 0.0
C171 C 0.72248 0.11867 0.39821 0.0
C172 C 0.72718 0.17584 0.46228 0.0
C173 C 0.7509 0.16376 0.42569 0.0
N174 N 0.65281 0.14713 0.51015 0.0
C175 C 0.678 0.19212 0.53677 0.0
C176 C 0.75371 0.2221 0.4893 0.0
C177 C 0.72865 0.2307 0.52652 0.0
Gd178 Gd 0.53239 0.94724 0.58429 0.0
Gd179 Gd 0.57417 0.07433 0.52825 0.0
N180 N 0.59951 0.05751 0.4596 0.0
C181 C 0.64028 0.04002 0.38113 0.0
C182 C 0.56893 0.01637 0.43287 0.0
C183 C 0.58876 0.00666 0.39326 0.0
H184 H 0.52927 0.99215 0.44143 0.0
H185 H 0.56437 0.97354 0.37221 0.0
H186 H 0.5143 0.99448 0.68329 0.0
H187 H 0.6592 0.19789 0.56619 0.0
H188 H 0.44888 0.01231 0.71894 0.0
H189 H 0.65604 0.03199 0.35074 0.0
H190 H 0.74092 0.10939 0.36994 0.0
H191 H 0.4815 0.82642 0.52513 0.0
H192 H 0.79341 0.25123 0.48175 0.0
H193 H 0.74864 0.26627 0.54771 0.0
H194 H 0.30499 0.88556 0.64514 0.0
H195 H 0.79126 0.18916 0.41899 0.0
H196 H 0.32153 0.75873 0.53973 0.0
H197 H 0.39574 0.75444 0.50614 0.0
N198 N 0.4546 0.86686 0.57179 0.0
C199 C 0.41374 0.86699 0.59257 0.0
C200 C 0.44872 0.82626 0.54177 0.0
C201 C 0.3585 0.78865 0.54949 0.0
C202 C 0.40038 0.78613 0.5305 0.0
C203 C 0.36506 0.82995 0.58087 0.0
H204 H 0.28772 0.80941 0.59133 0.0
N205 N 0.46845 0.93758 0.63733 0.0
C206 C 0.42113 0.90448 0.62615 0.0
C207 C 0.39619 0.95673 0.67538 0.0
C208 C 0.3831 0.91306 0.64495 0.0
C209 C 0.47695 0.97036 0.67369 0.0
C210 C 0.44063 0.98144 0.69308 0.0
O211 O 0.6368 0.06204 0.51969 0.0
O212 O 0.58032 0.98 0.529 0.0
O213 O 0.57185 0.94943 0.63097 0.0
O214 O 0.55028 0.88927 0.57927 0.0
O215 O 0.49855 0.9933 0.5208 0.0
O216 O 0.50423 0.92393 0.51915 0.0
O217 O 0.4919 0.99118 0.60313 0.0
O218 O 0.54775 0.0755 0.59199 0.0
O219 O 0.51709 0.07479 0.50676 0.0
O220 O 0.57301 0.14383 0.54431 0.0
O221 O 0.59381 0.0294 0.61307 0.0
O222 O 0.61225 0.09942 0.58542 0.0
C223 C 0.62725 0.0199 0.52827 0.0
C224 C 0.48678 0.94529 0.50439 0.0
C225 C 0.59028 0.87882 0.62631 0.0
C226 C 0.63015 0.85914 0.66935 0.0
C227 C 0.57907 0.79372 0.61533 0.0
C228 C 0.57124 0.82753 0.60544 0.0
C229 C 0.60579 0.8084 0.64707 0.0
C230 C 0.62233 0.89559 0.65824 0.0
C231 C 0.57151 0.90776 0.61246 0.0
C232 C 0.33504 0.8795 0.63138 0.0
C233 C 0.32539 0.83648 0.60045 0.0
H234 H 0.37223 0.97131 0.68551 0.0
C235 C 0.50436 0.03936 0.60652 0.0
C236 C 0.61892 0.08033 0.61147 0.0
C237 C 0.5109 0.151 0.52758 0.0
C238 C 0.47764 0.17753 0.49059 0.0
C239 C 0.50889 0.22815 0.5557 0.0
C240 C 0.52065 0.1938 0.5583 0.0
C241 C 0.48905 0.22113 0.52174 0.0
C242 C 0.4866 0.14109 0.49514 0.0
C243 C 0.53319 0.12204 0.52655 0.0
H244 H 0.5624 0.75418 0.59871 0.0
H245 H 0.54815 0.81197 0.58136 0.0
H246 H 0.60681 0.77847 0.6544 0.0
H247 H 0.63912 0.93512 0.6748 0.0
H248 H 0.51757 0.26184 0.57911 0.0
H249 H 0.53908 0.20171 0.58359 0.0
H250 H 0.48472 0.25146 0.51955 0.0
H251 H 0.4774 0.10646 0.47289 0.0
C252 C 0.33103 0.19524 0.82367 0.0
C253 C 0.27032 0.10432 0.79783 0.0
C254 C 0.29434 0.15819 0.79791 0.0
C255 C 0.28435 0.08816 0.82299 0.0
C256 C 0.34507 0.1789 0.84896 0.0
C257 C 0.32174 0.1253 0.84829 0.0
N258 N 0.35288 0.24706 0.82409 0.0
C259 C 0.39151 0.28402 0.84675 0.0
C260 C 0.38257 0.21694 0.87399 0.0
C261 C 0.40618 0.26976 0.87261 0.0
Gd262 Gd 0.26062 0.33498 0.81026 0.0
Gd263 Gd 0.3294 0.26565 0.7757 0.0
N264 N 0.28029 0.17475 0.77458 0.0
C265 C 0.23037 0.06823 0.77456 0.0
C266 C 0.24301 0.13938 0.75032 0.0
C267 C 0.21685 0.08573 0.75054 0.0
H268 H 0.23364 0.15185 0.7302 0.0
H269 H 0.18657 0.05786 0.73192 0.0
H270 H 0.3517 0.44742 0.85939 0.0
H271 H 0.41289 0.32437 0.8438 0.0
H272 H 0.39769 0.54198 0.85977 0.0
H273 H 0.20953 0.02677 0.77525 0.0
H274 H 0.26572 0.04692 0.8237 0.0
H275 H 0.17954 0.27654 0.73884 0.0
H276 H 0.39436 0.20592 0.89378 0.0
H277 H 0.43655 0.29952 0.89071 0.0
H278 H 0.33554 0.55359 0.75508 0.0
H279 H 0.33213 0.11217 0.86745 0.0
H280 H 0.21337 0.39524 0.67954 0.0
H281 H 0.165 0.30198 0.68619 0.0
N282 N 0.2435 0.35265 0.75686 0.0
C283 C 0.26824 0.40472 0.75558 0.0
C284 C 0.20496 0.31645 0.73377 0.0
C285 C 0.22207 0.38386 0.7014 0.0
C286 C 0.19494 0.33116 0.70484 0.0
C287 C 0.2581 0.42151 0.72769 0.0
H288 H 0.27535 0.48862 0.70644 0.0
N289 N 0.31282 0.42527 0.8095 0.0
C290 C 0.30247 0.44185 0.78331 0.0
C291 C 0.3618 0.532 0.81106 0.0
C292 C 0.32675 0.49586 0.78355 0.0
C293 C 0.34595 0.46047 0.83709 0.0
C294 C 0.37131 0.51424 0.83798 0.0
O295 O 0.26519 0.22917 0.82827 0.0
O296 O 0.22848 0.27638 0.85313 0.0
O297 O 0.24312 0.38134 0.86175 0.0
O298 O 0.18617 0.32133 0.82129 0.0
O299 O 0.27907 0.24572 0.72976 0.0
O300 O 0.21663 0.25305 0.77167 0.0
O301 O 0.33659 0.37691 0.7683 0.0
O302 O 0.33959 0.30918 0.72775 0.0
O303 O 0.35549 0.22231 0.73014 0.0
O304 O 0.41088 0.30123 0.75967 0.0
O305 O 0.30672 0.34958 0.85726 0.0
O306 O 0.37103 0.34719 0.81502 0.0
C307 C 0.23279 0.23821 0.85474 0.0
C308 C 0.23295 0.23532 0.73629 0.0
C309 C 0.15972 0.36248 0.88084 0.0
C310 C 0.12731 0.41559 0.91628 0.0
C311 C 0.07782 0.32299 0.92075 0.0
C312 C 0.11617 0.31835 0.89564 0.0
C313 C 0.08297 0.37135 0.93058 0.0
C314 C 0.16566 0.41108 0.89177 0.0
C315 C 0.19859 0.35967 0.85162 0.0
C316 C 0.31684 0.51226 0.75554 0.0
C317 C 0.28284 0.47525 0.72763 0.0
H318 H 0.38194 0.57378 0.81162 0.0
C319 C 0.35265 0.35793 0.73338 0.0
C320 C 0.35389 0.36318 0.85075 0.0
C321 C 0.44281 0.25264 0.71032 0.0
C322 C 0.47322 0.19621 0.67955 0.0
C323 C 0.52996 0.29023 0.68037 0.0
C324 C 0.49087 0.2965 0.70068 0.0
C325 C 0.5214 0.2404 0.67023 0.0
C326 C 0.43382 0.20236 0.6992 0.0
C327 C 0.40273 0.25922 0.73397 0.0
H328 H 0.04387 0.2891 0.93213 0.0
H329 H 0.11174 0.28071 0.88736 0.0
H330 H 0.0526 0.37433 0.94936 0.0
H331 H 0.19938 0.44512 0.87999 0.0
H332 H 0.56711 0.32409 0.67299 0.0
H333 H 0.49822 0.3355 0.70909 0.0
H334 H 0.55241 0.23628 0.65518 0.0
H335 H 0.39692 0.16834 0.70712 0.0
C336 C 0.13883 0.99491 0.44931 0.0
C337 C 0.2259 0.06295 0.46141 0.0
C338 C 0.17375 0.04175 0.47158 0.0
C339 C 0.24189 0.03339 0.43238 0.0
C340 C 0.1553 0.96785 0.41758 0.0
C341 C 0.20634 0.98533 0.41137 0.0
N342 N 0.0888 0.97556 0.45909 0.0
C343 C 0.05372 0.93291 0.43571 0.0
C344 C 0.11977 0.92325 0.39384 0.0
C345 C 0.06888 0.90648 0.40235 0.0
Gd346 Gd 1.02449 0.09885 0.55589 0.0
Gd347 Gd 0.07061 0.00977 0.52436 0.0
N348 N 0.15667 0.06673 0.50263 0.0
C349 C 0.26023 0.11257 0.48135 0.0
C350 C 0.18994 0.11581 0.5214 0.0
C351 C 0.24209 0.13973 0.51066 0.0
H352 H 0.17727 0.13735 0.54418 0.0
H353 H 0.26827 0.1786 0.52572 0.0
H354 H 0.91083 0.99072 0.52714 0.0
H355 H 1.01389 0.9171 0.4442 0.0
H356 H 0.82178 0.95402 0.55038 0.0
H357 H 0.30068 0.13049 0.47397 0.0
H358 H 0.28156 0.04727 0.42604 0.0
H359 H 0.08867 0.19454 0.63205 0.0
H360 H 0.13125 0.90159 0.36893 0.0
H361 H 0.04107 0.87191 0.38434 0.0
H362 H 0.82108 0.06285 0.67655 0.0
H363 H 0.21847 0.96168 0.39032 0.0
H364 H 0.97862 0.19906 0.72659 0.0
H365 H 0.0679 0.23283 0.69936 0.0
N366 N 1.01173 0.13421 0.62297 0.0
C367 C 0.96228 0.11453 0.63763 0.0
C368 C 0.04949 0.17643 0.64455 0.0
C369 C 0.9875 0.18031 0.69764 0.0
C370 C 0.03791 0.19937 0.68245 0.0
C371 C 0.9491 0.1379 0.67502 0.0
H372 H 0.88814 0.13923 0.71544 0.0
N373 N 0.93777 0.04915 0.57885 0.0
C374 C 0.92445 0.07149 0.61488 0.0
C375 C 0.836 0.01001 0.60517 0.0
C376 C 0.87308 0.05226 0.62892 0.0
C377 C 0.90139 0.00735 0.55606 0.0
C378 C 0.85019 0.9868 0.56899 0.0
O379 O 0.09522 0.0601 0.4754 0.0
O380 O 0.09787 0.13311 0.51232 0.0
O381 O 0.98423 0.11604 0.52905 0.0
O382 O 0.04419 0.17842 0.56486 0.0
O383 O 0.09059 0.06154 0.58697 0.0
O384 O 0.09929 0.13495 0.57889 0.0
O385 O 0.99577 0.04258 0.60093 0.0
O386 O 0.99331 0.97106 0.56129 0.0
O387 O 0.11031 0.99423 0.55396 0.0
O388 O 0.05491 0.93166 0.51461 0.0
O389 O 1.00169 0.04397 0.49519 0.0
O390 O 0.99428 0.97072 0.50276 0.0
C391 C 0.10951 0.1092 0.47814 0.0
C392 C 0.1068 0.11139 0.59938 0.0
C393 C 1.02999 0.20045 0.51201 0.0
C394 C 1.01419 0.2182 0.45556 0.0
C395 C 0.09062 0.28307 0.48744 0.0
C396 C 0.07595 0.2498 0.51417 0.0
C397 C 0.06041 0.26711 0.45768 0.0
C398 C 0.99896 0.18521 0.48289 0.0
C399 C 1.01211 0.16625 0.54165 0.0
C400 C 0.86025 0.07647 0.66566 0.0
C401 C 0.8982 0.11931 0.68832 0.0
H402 H 0.79628 0.99496 0.61451 0.0
C403 C 0.98012 0.99272 0.59575 0.0
C404 C 0.98393 0.99362 0.48416 0.0
C405 C 0.07333 0.90702 0.56333 0.0
C406 C 0.09871 0.88357 0.60963 0.0
C407 C 1.01953 0.81965 0.58132 0.0
C408 C 1.0289 0.85626 0.55991 0.0
C409 C 0.05423 0.83321 0.60622 0.0
C410 C 0.10823 0.92014 0.58806 0.0
C411 C 0.08696 0.94477 0.53813 0.0
H412 H 0.12496 0.32178 0.49056 0.0
H413 H 0.1 0.26329 0.53704 0.0
H414 H 0.07192 0.29376 0.43754 0.0
H415 H 0.96254 0.148 0.48177 0.0
H416 H 0.98551 0.78053 0.57834 0.0
H417 H 1.00185 0.84455 0.54028 0.0
H418 H 0.04673 0.80439 0.62244 0.0
H419 H 0.14316 0.95875 0.59032 0.0
C420 C 0.44533 0.92009 0.76912 0.0
C421 C 0.47378 0.87998 0.70835 0.0
C422 C 0.43565 0.88544 0.73319 0.0
C423 C 0.52181 0.90902 0.72131 0.0
C424 C 0.49466 0.95331 0.78007 0.0
C425 C 0.53237 0.94575 0.757 0.0
N426 N 0.40675 0.92276 0.79242 0.0
C427 C 0.41649 0.96404 0.82305 0.0
C428 C 0.50433 0.993 0.81358 0.0
C429 C 0.46537 0.99948 0.83437 0.0
Gd430 Gd 0.26445 0.75367 0.81223 0.0
Gd431 Gd 0.32542 0.8518 0.77594 0.0
N432 N 0.38766 0.85472 0.72339 0.0
C433 C 0.46153 0.84415 0.67216 0.0
C434 C 0.37753 0.82697 0.68529 0.0
C435 C 0.41369 0.81866 0.66001 0.0
H436 H 0.33979 0.80579 0.67716 0.0
H437 H 0.40437 0.79188 0.63171 0.0
H438 H 0.25589 0.80624 0.91106 0.0
H439 H 0.38637 0.96883 0.8396 0.0
H440 H 0.19226 0.82294 0.95523 0.0
H441 H 0.48842 0.83584 0.6533 0.0
H442 H 0.55103 0.90374 0.704 0.0
H443 H 0.2061 0.63202 0.75538 0.0
H444 H 0.54192 0.01984 0.82272 0.0
H445 H 0.47275 0.03111 0.8595 0.0
H446 H 0.03918 0.69208 0.89296 0.0
H447 H 0.56973 0.9681 0.76641 0.0
H448 H 0.0465 0.56 0.78947 0.0
H449 H 0.11814 0.55622 0.74755 0.0
N450 N 0.18416 0.67696 0.8022 0.0
C451 C 0.14557 0.67786 0.82731 0.0
C452 C 0.17509 0.63355 0.77424 0.0
C453 C 0.08504 0.59259 0.79374 0.0
C454 C 0.12537 0.59046 0.76988 0.0
C455 C 0.09506 0.63746 0.82218 0.0
H456 H 1.01796 0.61567 0.83917 0.0
N457 N 0.20567 0.75242 0.86709 0.0
C458 C 0.1568 0.71787 0.85991 0.0
C459 C 0.13307 0.76501 0.91729 0.0
C460 C 0.11884 0.7234 0.88472 0.0
C461 C 0.21756 0.78359 0.90394 0.0
C462 C 0.18183 0.79309 0.92859 0.0
O463 O 0.36458 0.79125 0.74653 0.0
O464 O 0.30296 0.7126 0.755 0.0
O465 O 0.31749 0.75521 0.84106 0.0
O466 O 0.2385 0.69016 0.84087 0.0
O467 O 0.24892 0.79119 0.7512 0.0
O468 O 0.25671 0.72665 0.74524 0.0
O469 O 0.22197 0.81137 0.84117 0.0
O470 O 0.28236 0.89031 0.83166 0.0
O471 O 0.28381 0.85238 0.73666 0.0
O472 O 0.35589 0.9224 0.75392 0.0
O473 O 0.34001 0.81676 0.83827 0.0
O474 O 0.3248 0.87535 0.84397 0.0
C475 C 0.35081 0.73823 0.73488 0.0
C476 C 0.24007 0.7463 0.73078 0.0
C477 C 0.29686 0.67015 0.84195 0.0
C478 C 0.33445 0.64004 0.87001 0.0
C479 C 0.26844 0.57854 0.82644 0.0
C480 C 0.26673 0.61919 0.82098 0.0
C481 C 0.30063 0.58855 0.85218 0.0
C482 C 0.33225 0.68071 0.86477 0.0
C483 C 0.28301 0.70819 0.84927 0.0
C484 C 0.06881 0.68758 0.87574 0.0
C485 C 0.05669 0.64386 0.84522 0.0
H486 H 0.10682 0.7753 0.93422 0.0
C487 C 0.23459 0.86411 0.85228 0.0
C488 C 0.34462 0.85967 0.85916 0.0
C489 C 0.29644 0.9348 0.74041 0.0
C490 C 0.24882 0.95046 0.70975 0.0
C491 C 0.31752 0.023 0.74731 0.0
C492 C 0.32485 0.98837 0.75684 0.0
C493 C 0.28035 1.00427 0.72311 0.0
C494 C 0.25709 0.91578 0.71813 0.0
C495 C 0.31601 0.90235 0.73655 0.0
H496 H 0.24317 0.53885 0.81209 0.0
H497 H 0.239 0.60988 0.80311 0.0
H498 H 0.29894 0.55612 0.85829 0.0
H499 H 0.35516 0.71985 0.88128 0.0
H500 H 0.34208 0.06466 0.75736 0.0
H501 H 0.35585 1.00427 0.77376 0.0
H502 H 0.27666 0.03168 0.71417 0.0
H503 H 0.23521 0.8747 0.70488 0.0
C504 C 0.56968 0.97547 0.09741 0.0
C505 C 0.49527 0.88632 0.0904 0.0
C506 C 0.52648 0.93614 0.07839 0.0
C507 C 0.508 0.87649 0.121 0.0
C508 C 0.58245 0.96546 0.12812 0.0
C509 C 0.55146 0.9158 0.1397 0.0
N510 N 0.59747 0.02438 0.08764 0.0
C511 C 0.64062 0.06347 0.10456 0.0
C512 C 0.62544 1.00612 0.14701 0.0
C513 C 0.65495 0.05517 0.13485 0.0
Gd514 Gd 0.49962 0.10287 0.06709 0.0
Gd515 Gd 0.56869 0.03669 0.03955 0.0
N516 N 0.51277 0.94812 0.05094 0.0
C517 C 0.45133 0.84793 0.07208 0.0
C518 C 0.46821 0.91104 0.03468 0.0
C519 C 0.43791 0.86027 0.04397 0.0
H520 H 0.45564 0.91842 1.0134 0.0
H521 H 0.40363 0.83098 0.02998 0.0
H522 H 0.58525 0.2101 0.12659 0.0
H523 H 0.6639 0.10131 0.09493 0.0
H524 H 0.64084 0.30493 0.12841 0.0
H525 H 0.42696 0.80899 0.08005 0.0
H526 H 0.48408 0.83856 0.13056 0.0
H527 H 0.42768 0.05736 0.99118 0.0
H528 H 0.63625 1.0 0.1709 0.0
H529 H 0.68857 0.08667 0.14894 0.0
H530 H 0.59007 0.33502 0.02776 0.0
H531 H 0.56055 0.90765 0.16343 0.0
H532 H 0.46344 0.18864 0.94823 0.0
H533 H 0.41414 0.09301 0.94598 0.0
N534 N 0.48929 0.13046 0.01606 0.0
C535 C 0.51615 0.18352 0.01842 0.0
C536 C 0.4524 0.09847 0.99093 0.0
C537 C 0.4712 0.17283 0.96721 0.0
C538 C 0.44355 0.1189 0.96568 0.0
C539 C 0.50741 0.20584 0.99413 0.0
H540 H 0.52429 0.2777 0.98221 0.0
N541 N 0.55514 0.19455 0.07299 0.0
C542 C 0.55044 0.21619 0.04691 0.0
C543 C 0.61287 0.30267 0.07773 0.0
C544 C 0.57848 0.27102 0.04946 0.0
C545 C 0.58559 0.22598 0.10301 0.0
C546 C 0.61607 0.28028 0.10504 0.0
O547 O 0.51549 0.01579 0.09944 0.0
O548 O 0.45764 0.03557 0.10411 0.0
O549 O 0.47674 0.152 0.10588 0.0
O550 O 0.41963 0.07368 0.07919 0.0
O551 O 0.51374 0.99969 0.99286 0.0
O552 O 0.46064 0.02842 0.0206 0.0
O553 O 0.57468 0.14268 0.02481 0.0
O554 O 0.57371 0.07218 0.98751 0.0
O555 O 0.60796 0.99907 1.00913 0.0
O556 O 0.64799 0.0835 0.01505 0.0
O557 O 0.53898 0.11601 0.11933 0.0
O558 O 0.60438 0.11727 0.07786 0.0
C559 C 0.47172 0.00986 0.11508 0.0
C560 C 0.4723 0.99782 0.99313 0.0
C561 C 0.40017 0.10849 0.14471 0.0
C562 C 0.41945 0.18087 0.22334 0.0
C563 C 0.30395 0.09799 0.1784 0.0
C564 C 0.34064 0.08574 0.1416 0.0
C565 C 0.36084 0.16304 0.25006 0.0
C566 C 0.43519 0.14526 0.18358 0.0
C567 C 0.42914 0.11536 0.10554 0.0
C568 C 0.56992 0.29289 0.02511 0.0
C569 C 0.53327 0.26036 0.99858 0.0
H570 H 0.63573 0.34447 0.07935 0.0
C571 C 0.58823 0.12111 0.9904 0.0
C572 C 0.58466 0.12586 0.11455 0.0
C573 C 0.65899 0.03677 0.95202 0.0
C574 C 0.63166 0.97309 0.89106 0.0
C575 C 0.71911 0.04956 0.89219 0.0
C576 C 0.70868 0.06451 0.93341 0.0
C577 C 0.68129 1.00328 0.87125 0.0
C578 C 0.62017 0.99755 0.92844 0.0
C579 C 0.64719 0.04163 0.99614 0.0
H580 H 0.26457 0.0793 0.17529 0.0
H581 H 0.32573 0.06454 0.11301 0.0
H582 H 0.35145 0.17972 0.28 0.0
H583 H 0.47445 0.15763 0.17868 0.0
H584 H 0.75746 0.07096 0.87745 0.0
H585 H 0.7392 0.0962 0.95075 0.0
H586 H 0.69235 0.98905 0.8411 0.0
H587 H 0.58159 0.97975 0.94257 0.0
C588 C 0.42982 0.43807 0.35074 0.0
C589 C 0.38004 0.44262 0.4142 0.0
C590 C 0.39836 0.4158 0.38425 0.0
C591 C 0.39375 0.49151 0.40895 0.0
C592 C 0.45166 0.49086 0.34968 0.0
C593 C 0.43217 0.51729 0.37852 0.0
N594 N 0.43412 0.40637 0.3173 0.0
C595 C 0.47116 0.42719 0.28625 0.0
C596 C 0.48785 0.51296 0.31717 0.0
C597 C 0.49941 0.48127 0.28614 0.0
Gd598 Gd 0.23442 0.27532 0.25739 0.0
Gd599 Gd 0.36414 0.31889 0.31387 0.0
N600 N 0.37322 0.36294 0.38098 0.0
C601 C 0.34345 0.41658 0.44534 0.0
C602 C 0.34069 0.33784 0.41255 0.0
C603 C 0.32584 0.36478 0.44566 0.0
H604 H 0.32166 0.29596 0.4099 0.0
H605 H 0.2979 0.34447 0.46969 0.0
H606 H 0.27443 0.30524 0.16344 0.0
H607 H 0.47616 0.40188 0.26022 0.0
H608 H 0.30233 0.263 0.10119 0.0
H609 H 0.32829 0.43595 0.46898 0.0
H610 H 0.37395 0.50892 0.42786 0.0
H611 H 0.12174 0.18608 0.30614 0.0
H612 H 0.5063 0.55388 0.31547 0.0
H613 H 0.52743 0.49772 0.26087 0.0
H614 H 0.23498 0.09464 0.13279 0.0
H615 H 0.44368 0.55577 0.37569 0.0
H616 H 0.10667 0.04092 0.24838 0.0
H617 H 0.07674 0.09015 0.30249 0.0
N618 N 0.1672 0.18722 0.25014 0.0
C619 C 0.17691 0.15899 0.21711 0.0
C620 C 0.12964 0.16312 0.27985 0.0
C621 C 0.12221 0.08151 0.24776 0.0
C622 C 0.10536 0.10919 0.27841 0.0
C623 C 0.15935 0.10714 0.21682 0.0
H624 H 0.17463 0.04762 0.18963 0.0
N625 N 0.22751 0.23586 0.1897 0.0
C626 C 0.20864 0.18439 0.18533 0.0
C627 C 0.26175 0.18909 0.12226 0.0
C628 C 0.22838 0.16084 0.15343 0.0
C629 C 0.25847 0.26371 0.15912 0.0
C630 C 0.27574 0.24038 0.12461 0.0
O631 O 0.32101 0.35308 0.35043 0.0
O632 O 0.29028 0.31836 0.2959 0.0
O633 O 0.22616 0.33249 0.24345 0.0
O634 O 0.18129 0.29328 0.29454 0.0
O635 O 0.28596 0.25634 0.34259 0.0
O636 O 0.21649 0.23466 0.31297 0.0
O637 O 0.29128 0.25862 0.21895 0.0
O638 O 0.30811 0.25151 0.27393 0.0
O639 O 0.37626 0.26964 0.33521 0.0
O640 O 0.42558 0.30952 0.28489 0.0
O641 O 0.31154 0.344 0.23363 0.0
O642 O 0.381 0.35776 0.25779 0.0
C643 C 0.29148 0.34731 0.32954 0.0
C644 C 0.23635 0.23046 0.34038 0.0
C645 C 0.15495 0.33779 0.27381 0.0
C646 C 0.12723 0.3763 0.2441 0.0
C647 C 0.0689 0.31556 0.29128 0.0
C648 C 0.10707 0.31121 0.296 0.0
C649 C 0.07837 0.34658 0.26452 0.0
C650 C 0.16597 0.37355 0.25054 0.0
C651 C 0.1939 0.32939 0.27519 0.0
C652 C 0.21736 0.11198 0.15576 0.0
C653 C 0.18241 0.08482 0.18736 0.0
H654 H 0.27756 0.17209 0.09681 0.0
C655 C 0.31658 0.25028 0.23535 0.0
C656 C 0.36107 0.36659 0.23384 0.0
C657 C 0.4528 0.2721 0.31474 0.0
C658 C 0.47553 0.23367 0.34956 0.0
C659 C 0.53924 0.2959 0.30492 0.0
C660 C 0.50296 0.30086 0.29663 0.0
C661 C 0.52586 0.26308 0.33176 0.0
C662 C 0.4389 0.23639 0.33921 0.0
C663 C 0.41367 0.27663 0.3073 0.0
H664 H 1.03153 0.29362 0.30745 0.0
H665 H 0.099 0.28652 0.31646 0.0
H666 H 0.0471 0.34628 0.25921 0.0
H667 H 0.20366 0.39598 0.23483 0.0
H668 H 0.57804 0.31856 0.29139 0.0
H669 H 0.51422 0.32752 0.2766 0.0
H670 H 0.55505 0.26186 0.33948 0.0
H671 H 0.39984 0.21275 0.3522 0.0
C672 C 0.63927 0.49651 0.95152 0.0
C673 C 0.72796 0.55903 0.96176 0.0
C674 C 0.67647 0.54072 0.97395 0.0
C675 C 0.74156 0.53275 0.9269 0.0
C676 C 0.65325 0.47065 0.91616 0.0
C677 C 0.70427 0.4887 0.90434 0.0
N678 N 0.58965 0.47659 0.96561 0.0
C679 C 0.55259 0.43039 0.94592 0.0
C680 C 0.61542 0.42549 0.89472 0.0
C681 C 0.56486 0.40516 0.90979 0.0
Gd682 Gd 0.51642 0.59693 0.06286 0.0
Gd683 Gd 0.57552 0.51808 0.03038 0.0
N684 N 0.66238 0.56404 1.00878 0.0
C685 C 0.76427 0.6021 0.9858 0.0
C686 C 0.6977 0.60532 0.03276 0.0
C687 C 0.7491 0.62571 0.0212 0.0
H688 H 0.68645 0.62198 0.06123 0.0
H689 H 0.77683 0.65859 0.04025 0.0
H690 H 0.40961 0.47086 0.04792 0.0
H691 H 0.51335 0.41133 0.95874 0.0
H692 H 0.31991 0.42697 0.07586 0.0
H693 H 0.80407 0.6169 0.97763 0.0
H694 H 0.78079 0.54561 0.91754 0.0
H695 H 0.58229 0.69791 0.13475 0.0
H696 H 0.62489 0.40483 0.86738 0.0
H697 H 0.53533 0.36899 0.89437 0.0
H698 H 0.31492 0.55454 0.18606 0.0
H699 H 0.71483 0.46711 0.8788 0.0
H700 H 0.47259 0.70508 0.22858 0.0
H701 H 0.56195 0.74088 0.20006 0.0
N702 N 0.50573 0.63393 0.12925 0.0
C703 C 0.45644 0.61277 0.14487 0.0
C704 C 0.54349 0.67944 0.1484 0.0
C705 C 0.48155 0.6845 0.20087 0.0
C706 C 0.53202 0.70473 0.18498 0.0
C707 C 0.44313 0.6385 0.18044 0.0
H708 H 0.38181 0.64074 0.21898 0.0
N709 N 0.43274 0.54128 0.09038 0.0
C710 C 0.41896 0.56521 0.12505 0.0
C711 C 0.33173 0.49222 0.12292 0.0
C712 C 0.36779 0.5422 0.14123 0.0
C713 C 0.39822 0.49159 0.07338 0.0
C714 C 0.34727 0.46623 0.08953 0.0
O715 O 0.6214 0.5938 1.00131 0.0
O716 O 0.56013 0.60634 0.99958 0.0
O717 O 0.4682 0.61871 0.05603 0.0
O718 O 0.54735 0.67907 0.06354 0.0
O719 O 0.59218 0.57056 0.09214 0.0
O720 O 0.59627 0.63919 0.07978 0.0
O721 O 0.50007 0.54859 0.1099 0.0
O722 O 0.49707 0.47898 0.06733 0.0
O723 O 0.6106 0.50501 0.06685 0.0
O724 O 0.55874 0.44049 0.02587 0.0
O725 O 0.47901 0.53609 1.00836 0.0
O726 O 0.51457 0.48746 0.99043 0.0
C727 C 0.60573 0.6158 0.98678 0.0
C728 C 0.6079 0.62023 0.10123 0.0
C729 C 0.50203 0.69919 0.03645 0.0
C730 C 0.46351 0.70483 0.98864 0.0
C731 C 0.51259 0.78094 0.03731 0.0
C732 C 0.52294 0.75234 0.05213 0.0
C733 C 0.48113 0.75658 1.00705 0.0
C734 C 0.4733 0.67555 1.00379 0.0
C735 C 0.50368 0.66837 0.05935 0.0
C736 C 0.35434 0.5701 0.17478 0.0
C737 C 0.39203 0.61844 0.19392 0.0
H738 H 0.29203 0.47297 0.13478 0.0
C739 C 0.486 0.49937 0.10378 0.0
C740 C 0.48307 0.49787 0.98512 0.0
C741 C 0.56545 0.42014 0.08363 0.0
C742 C 0.58047 0.39918 0.13858 0.0
C743 C 0.50502 0.33532 0.10515 0.0
C744 C 0.52007 0.37027 0.0797 0.0
C745 C 0.53574 0.34925 0.13377 0.0
C746 C 0.59465 0.43475 0.11388 0.0
C747 C 0.58638 0.45481 0.05369 0.0
H748 H 0.52803 0.82161 0.04998 0.0
H749 H 0.54513 0.77102 0.07726 0.0
H750 H 0.46938 0.77734 0.99808 0.0
H751 H 0.45748 0.63457 0.99111 0.0
H752 H 0.47068 0.29653 0.10146 0.0
H753 H 0.497 0.35765 0.05629 0.0
H754 H 0.52617 0.32026 0.1506 0.0
H755 H 0.62985 0.47303 0.11695 0.0
C756 C 0.92826 0.41761 0.22521 0.0
C757 C 0.92599 0.37038 0.15657 0.0
C758 C 0.90331 0.37259 0.19673 0.0
C759 C 0.97302 0.4137 0.1452 0.0
C760 C 0.97443 0.46215 0.21302 0.0
C761 C 0.99632 0.46006 0.17289 0.0
N762 N 0.90562 0.41935 0.2639 0.0
C763 C 0.92863 0.46344 0.29212 0.0
C764 C 0.99716 0.50791 0.24137 0.0
C765 C 0.97472 0.50815 0.28124 0.0
Gd766 Gd 0.76592 0.25514 0.31802 0.0
Gd767 Gd 0.82073 0.34945 0.27261 0.0
N768 N 0.85672 0.3313 0.20804 0.0
C769 C 0.90025 0.32516 0.12851 0.0
C770 C 0.8307 0.28766 0.18036 0.0
C771 C 0.85236 0.28358 0.14051 0.0
H772 H 0.79413 0.25498 0.18924 0.0
H773 H 0.83187 0.24856 0.11902 0.0
H774 H 0.79062 0.33439 0.40587 0.0
H775 H 0.91002 0.46613 0.32225 0.0
H776 H 0.74946 0.33702 0.4757 0.0
H777 H 0.91669 0.3223 0.09737 0.0
H778 H 0.99088 0.41118 0.11476 0.0
H779 H 0.68864 0.13292 0.26768 0.0
H780 H 1.03243 0.54306 0.23287 0.0
H781 H 0.99202 0.54339 0.30331 0.0
H782 H 0.58996 0.17523 0.47085 0.0
H783 H 1.03176 0.49416 0.16349 0.0
H784 H 0.55626 0.05133 0.34861 0.0
H785 H 0.60526 0.0537 0.28134 0.0
N786 N 0.68391 0.1788 0.32455 0.0
C787 C 0.65739 0.17828 0.36185 0.0
C788 C 0.66607 0.13432 0.29608 0.0
C789 C 0.59182 0.08737 0.34211 0.0
C790 C 0.61928 0.08858 0.30408 0.0
C791 C 0.61128 0.13206 0.37178 0.0
H792 H 0.55197 0.09579 0.41982 0.0
N793 N 0.72621 0.26441 0.38277 0.0
C794 C 0.67932 0.22213 0.39171 0.0
C795 C 0.67967 0.26352 0.46168 0.0
C796 C 0.65497 0.22087 0.43148 0.0
C797 C 0.75216 0.30388 0.4127 0.0
C798 C 0.72893 0.30497 0.45231 0.0
O799 O 0.86749 0.29729 0.24413 0.0
O800 O 0.80859 0.21909 0.25972 0.0
O801 O 0.82006 0.26448 0.35024 0.0
O802 O 0.74947 0.18882 0.33895 0.0
O803 O 0.73898 0.28994 0.25826 0.0
O804 O 0.73851 0.22038 0.25606 0.0
O805 O 0.71945 0.30657 0.34982 0.0
O806 O 0.77467 0.3831 0.32972 0.0
O807 O 0.77648 0.34918 0.23594 0.0
O808 O 0.84467 0.42194 0.25589 0.0
O809 O 0.84911 0.31993 0.32876 0.0
O810 O 0.83889 0.38314 0.33722 0.0
C811 C 0.85538 0.24507 0.23738 0.0
C812 C 0.72021 0.24058 0.24402 0.0
C813 C 0.82209 0.1893 0.33474 0.0
C814 C 0.88025 0.17285 0.34755 0.0
C815 C 0.8284 0.11863 0.29262 0.0
C816 C 0.8068 0.14731 0.30244 0.0
C817 C 0.8642 0.13072 0.31553 0.0
C818 C 0.86033 0.20337 0.35596 0.0
C819 C 0.79425 0.2143 0.3501 0.0
C820 C 0.60834 0.17588 0.44065 0.0
C821 C 0.587 0.13114 0.41138 0.0
H822 H 0.66202 0.26359 0.49265 0.0
C823 C 0.72972 0.35759 0.35438 0.0
C824 C 0.8622 0.36701 0.3471 0.0
C825 C 0.77463 0.42448 0.2554 0.0
C826 C 0.71286 0.43753 0.2448 0.0
C827 C 0.76061 0.48825 0.30215 0.0
C828 C 0.78662 0.46371 0.28972 0.0
C829 C 0.72379 0.47513 0.27985 0.0
C830 C 0.73667 0.41053 0.23381 0.0
C831 C 0.80326 0.40003 0.24023 0.0
H832 H 0.81557 0.08576 0.26831 0.0
H833 H 0.77669 0.13509 0.28592 0.0
H834 H 0.87818 0.10637 0.30919 0.0
H835 H 0.87229 0.23614 0.38068 0.0
H836 H 0.76998 0.51826 0.32856 0.0
H837 H 0.81625 0.47579 0.30674 0.0
H838 H 0.70475 0.49507 0.28924 0.0
H839 H 0.72702 0.38005 0.20746 0.0
C840 C 0.08351 0.45029 0.58031 0.0
C841 C 1.0345 0.35982 0.54744 0.0
C842 C 0.05549 0.4135 0.54915 0.0
C843 C 0.04411 0.34393 0.57601 0.0
C844 C 0.09322 0.4342 0.60902 0.0
C845 C 0.07417 0.38119 0.60621 0.0
N846 N 0.10299 0.50184 0.58165 0.0
C847 C 0.13555 0.53888 0.60914 0.0
C848 C 0.12335 0.47204 0.63901 0.0
C849 C 0.14497 0.52471 0.63884 0.0
Gd850 Gd 1.01122 0.57763 0.55556 0.0
Gd851 Gd 0.08984 0.52139 0.52678 0.0
N852 N 0.04781 0.42994 0.52107 0.0
C853 C 1.00402 0.32347 0.51725 0.0
C854 C 1.01987 0.3945 0.49046 0.0
C855 C 0.99692 0.34089 0.48848 0.0
H856 H 1.01528 0.40682 0.46705 0.0
H857 H 0.97418 0.31312 0.46448 0.0
H858 H 0.07754 0.68537 0.62869 0.0
H859 H 0.15812 0.57931 0.60635 0.0
H860 H 0.148 0.77723 0.62883 0.0
H861 H 0.98597 0.28196 0.51598 0.0
H862 H 1.02884 0.30296 0.57478 0.0
H863 H 0.94508 0.5471 0.48253 0.0
H864 H 0.13169 0.46116 0.66148 0.0
H865 H 0.17077 0.5546 0.66046 0.0
H866 H 0.16447 0.80728 0.49594 0.0
H867 H 0.08328 0.36892 0.62697 0.0
H868 H 1.03332 0.67221 0.4133 0.0
H869 H 0.95824 0.58332 0.42254 0.0
N870 N 1.01055 0.61492 0.50648 0.0
C871 C 0.04833 0.66575 0.50443 0.0
C872 C 0.97655 0.5863 0.47902 0.0
C873 C 1.02641 0.65709 0.44018 0.0
C874 C 0.98412 0.60679 0.44519 0.0
C875 C 0.05886 0.68744 0.47028 0.0
H876 H 0.11427 0.75269 0.4391 0.0
N877 N 0.06818 0.67075 0.56683 0.0
C878 C 0.07884 0.6942 0.53514 0.0
C879 C 0.1457 0.77627 0.56719 0.0
C880 C 0.11922 0.7468 0.53365 0.0
C881 C 0.08979 0.70128 0.60142 0.0
C882 C 0.12954 0.75401 0.60187 0.0
O883 O 1.01553 0.47475 0.569 0.0
O884 O 1.00466 0.53893 0.60624 0.0
O885 O 0.96561 0.60936 0.58354 0.0
O886 O 0.92988 0.52548 0.57072 0.0
O887 O 0.04096 0.49496 0.47653 0.0
O888 O 0.97433 0.49743 0.51516 0.0
O889 O 0.05635 0.58583 0.49139 0.0
O890 O 0.12693 0.5985 0.50358 0.0
O891 O 0.12603 0.49552 0.47364 0.0
O892 O 0.16816 0.55092 0.52383 0.0
O893 O 0.06085 0.60119 0.60375 0.0
O894 O 0.128 0.60275 0.56425 0.0
C895 C 0.9956 0.4918 0.60241 0.0
C896 C 0.99351 0.48131 0.48077 0.0
C897 C 0.9171 0.56215 0.63713 0.0
C898 C 0.94857 0.59899 0.70342 0.0
C899 C 0.86757 0.51482 0.69304 0.0
C900 C 0.87323 0.51932 0.65287 0.0
C901 C 0.90477 0.55396 0.71808 0.0
C902 C 0.95519 0.59997 0.66201 0.0
C903 C 0.92792 0.56432 0.59366 0.0
C904 C 0.13191 0.76788 0.49867 0.0
C905 C 0.10246 0.73756 0.46669 0.0
H906 H 0.17747 0.81652 0.56702 0.0
C907 C 0.10545 0.60745 0.48277 0.0
C908 C 0.10894 0.61781 0.59868 0.0
C909 C 0.18449 0.48728 0.4923 0.0
C910 C 0.20645 0.4267 0.45581 0.0
C911 C 0.21407 0.45508 0.52706 0.0
C912 C 0.19813 0.48735 0.52771 0.0
C913 C 0.21862 0.42474 0.49085 0.0
C914 C 0.18809 0.45638 0.4568 0.0
C915 C 0.16706 0.51921 0.49082 0.0
H916 H 0.83416 0.48093 0.70493 0.0
H917 H 0.84452 0.48865 0.63371 0.0
H918 H 0.89852 0.54882 0.74895 0.0
H919 H 0.98971 0.63161 0.64897 0.0
H920 H 0.22432 0.45484 0.55421 0.0
H921 H 0.19705 0.51238 0.5556 0.0
H922 H 0.23337 0.4016 0.48974 0.0
H923 H 0.17893 0.45729 0.42921 0.0
C924 C 0.81941 0.71215 0.33885 0.0
C925 C 0.74983 0.62199 0.32089 0.0
C926 C 0.78117 0.67454 0.31447 0.0
C927 C 0.75906 0.60718 0.3505 0.0
C928 C 0.82968 0.69683 0.36767 0.0
C929 C 0.79961 0.64422 0.37309 0.0
N930 N 0.84562 0.76355 0.33514 0.0
C931 C 0.88532 0.80069 0.3569 0.0
C932 C 0.86918 0.73504 0.39093 0.0
C933 C 0.89745 0.78709 0.38518 0.0
Gd934 Gd 0.75025 0.84219 0.31204 0.0
Gd935 Gd 0.82296 0.78049 0.28495 0.0
N936 N 0.77125 0.69028 0.28737 0.0
C937 C 0.70819 0.58676 0.29915 0.0
C938 C 0.73474 0.65437 0.26249 0.0
C939 C 0.70172 0.60246 0.26881 0.0
H940 H 0.72982 0.6654 0.2384 0.0
H941 H 0.6708 0.57483 0.25073 0.0
H942 H 0.8456 0.95641 0.36354 0.0
H943 H 0.90936 0.84052 0.35127 0.0
H944 H 0.91779 0.04101 0.3454 0.0
H945 H 0.68022 0.54767 0.30589 0.0
H946 H 0.7345 0.56739 0.35665 0.0
H947 H 0.67063 0.79157 0.24451 0.0
H948 H 0.8784 0.7247 0.41316 0.0
H949 H 0.92891 0.81675 0.40228 0.0
H950 H 0.87321 0.05598 0.2315 0.0
H951 H 0.80657 0.63225 0.39561 0.0
H952 H 0.71882 0.91198 0.17911 0.0
H953 H 0.65889 0.82043 0.19154 0.0
N954 N 0.73608 0.86607 0.26183 0.0
C955 C 0.76779 0.91717 0.2572 0.0
C956 C 0.69678 0.83162 0.23938 0.0
C957 C 0.72341 0.89978 0.20299 0.0
C958 C 0.68979 0.84795 0.20962 0.0
C959 C 0.76336 0.93492 0.22654 0.0
H960 H 0.79883 0.99937 0.19426 0.0
N961 N 0.8107 0.93256 0.3106 0.0
C962 C 0.80785 0.95045 0.28059 0.0
C963 C 0.88884 0.03104 0.29235 0.0
C964 C 0.84677 1.00056 0.27099 0.0
C965 C 0.84711 0.96627 0.33591 0.0
C966 C 0.88759 0.01532 0.32643 0.0
O967 O 0.748 0.73732 0.32714 0.0
O968 O 0.73279 0.79934 0.36318 0.0
O969 O 0.7158 0.88463 0.34252 0.0
O970 O 0.66847 0.80014 0.32453 0.0
O971 O 0.77654 0.75893 0.23485 0.0
O972 O 0.7106 0.76043 0.27451 0.0
O973 O 0.80176 0.85483 0.25031 0.0
O974 O 0.86684 0.86079 0.26723 0.0
O975 O 0.8495 0.75972 0.22456 0.0
O976 O 0.89303 0.78474 0.27366 0.0
O977 O 0.79778 0.86469 0.36254 0.0
O978 O 0.86247 0.86012 0.32326 0.0
C979 C 0.72548 0.75315 0.35926 0.0
C980 C 0.72982 0.74652 0.23929 0.0
C981 C 0.64311 0.83718 0.38564 0.0
C982 C 0.64679 0.87512 0.45608 0.0
C983 C 0.56532 0.81359 0.42986 0.0
C984 C 0.59029 0.81025 0.39119 0.0
C985 C 0.59345 0.84698 0.46213 0.0
C986 C 0.67041 0.86461 0.41893 0.0
C987 C 0.67048 0.84201 0.34524 0.0
C988 C 0.84333 0.01782 0.23959 0.0
C989 C 0.80092 0.98575 0.2184 0.0
H990 H 0.92134 0.06801 0.284 0.0
C991 C 0.84983 0.87049 0.24291 0.0
C992 C 0.84343 0.87366 0.35843 0.0
C993 C 0.87742 0.70932 0.22864 0.0
C994 C 0.86201 0.63513 0.17871 0.0
C995 C 0.88554 0.64476 0.24295 0.0
C996 C 0.89053 0.69285 0.25437 0.0
C997 C 0.87278 0.6166 0.20447 0.0
C998 C 0.85716 0.67678 0.19347 0.0
C999 C 0.88343 0.75947 0.23741 0.0
H1000 H 0.5245 0.79299 0.43435 0.0
H1001 H 0.56875 0.78799 0.36567 0.0
H1002 H 0.57379 0.85419 0.49066 0.0
H1003 H 0.71133 0.88511 0.41464 0.0
H1004 H 0.89521 0.63148 0.26254 0.0
H1005 H 0.90472 0.71685 0.28273 0.0
H1006 H 0.87571 0.58343 0.19348 0.0
H1007 H 0.84645 0.68904 0.17371 0.0
C1008 C 0.88739 0.24857 0.71037 0.0
C1009 C 0.97542 0.31889 0.71604 0.0
C1010 C 0.92382 0.29484 0.73154 0.0
C1011 C 0.98977 0.29501 0.67987 0.0
C1012 C 0.90167 0.22572 0.67312 0.0
C1013 C 0.95305 0.24898 0.65817 0.0
N1014 N 0.838 0.22601 0.72604 0.0
C1015 C 0.8013 0.18001 0.70654 0.0
C1016 C 0.86392 0.17961 0.65229 0.0
C1017 C 0.8135 0.15646 0.66924 0.0
Gd1018 Gd 0.76475 0.346 0.80858 0.0
Gd1019 Gd 0.82133 0.26733 0.78947 0.0
N1020 N 0.9088 0.31641 0.76708 0.0
C1021 C 1.01122 0.36594 0.73758 0.0
C1022 C 0.944 0.36116 0.78892 0.0
C1023 C 0.99539 0.38714 0.77419 0.0
H1024 H 0.93349 0.37671 0.81816 0.0
H1025 H 1.02286 0.42297 0.79156 0.0
H1026 H 0.65931 0.24412 0.76272 0.0
H1027 H 0.76283 0.16035 0.72045 0.0
H1028 H 0.56816 0.19174 0.78059 0.0
H1029 H 0.05116 0.38585 0.72645 0.0
H1030 H 1.02924 0.3114 0.66874 0.0
H1031 H 0.81065 0.43134 0.89272 0.0
H1032 H 0.87342 0.16092 0.62362 0.0
H1033 H 0.78413 0.11991 0.65401 0.0
H1034 H 0.54206 0.27674 0.91171 0.0
H1035 H 0.96482 0.23132 0.6301 0.0
H1036 H 0.68619 0.41765 0.97822 0.0
H1037 H 0.77847 0.46061 0.95914 0.0
N1038 N 0.73834 0.37017 0.87524 0.0
C1039 C 0.68748 0.34558 0.88517 0.0
C1040 C 0.77075 0.4108 0.90133 0.0
C1041 C 0.70039 0.40369 0.9494 0.0
C1042 C 0.75242 0.42792 0.93884 0.0
C1043 C 0.66728 0.36216 0.92245 0.0
H1044 H 0.59911 0.35214 0.95883 0.0
N1045 N 0.67588 0.28958 0.82135 0.0
C1046 C 0.65549 0.3037 0.85791 0.0
C1047 C 0.57101 0.23558 0.84044 0.0
C1048 C 0.60254 0.27754 0.86799 0.0
C1049 C 0.64482 0.25128 0.79331 0.0
C1050 C 0.59229 0.22254 0.80288 0.0
O1051 O 0.85098 0.317 0.73825 0.0
O1052 O 0.84091 0.3847 0.76809 0.0
O1053 O 0.73207 0.36468 0.77467 0.0
O1054 O 0.78157 0.42465 0.82061 0.0
O1055 O 0.84168 0.3297 0.84606 0.0
O1056 O 0.84278 0.39298 0.82711 0.0
O1057 O 0.74223 0.29987 0.86034 0.0
O1058 O 0.74058 0.22901 0.82255 0.0
O1059 O 0.84931 0.25633 0.83338 0.0
O1060 O 0.80243 0.19059 0.78954 0.0
O1061 O 0.75028 0.28814 0.74884 0.0
O1062 O 0.7447 0.22428 0.77039 0.0
C1063 C 0.86154 0.36413 0.7382 0.0
C1064 C 0.857 0.37894 0.85032 0.0
C1065 C 0.74788 0.45094 0.78517 0.0
C1066 C 0.72333 0.47601 0.74014 0.0
C1067 C 0.76196 0.53681 0.79982 0.0
C1068 C 0.76771 0.50082 0.80882 0.0
C1069 C 0.74165 0.52542 0.76488 0.0
C1070 C 0.72425 0.43817 0.75177 0.0
C1071 C 0.75396 0.41288 0.79361 0.0
C1072 C 0.58256 0.29518 0.90448 0.0
C1073 C 0.61487 0.33775 0.93137 0.0
H1074 H 0.53021 0.21425 0.84732 0.0
C1075 C 0.72584 0.25011 0.85662 0.0
C1076 C 0.73576 0.23901 0.74395 0.0
C1077 C 0.85611 0.18309 0.81657 0.0
C1078 C 0.90277 0.17215 0.85211 0.0
C1079 C 0.86515 0.10962 0.79269 0.0
C1080 C 0.84524 0.1368 0.78961 0.0
C1081 C 0.89306 0.12656 0.82429 0.0
C1082 C 0.88617 0.20136 0.84685 0.0
C1083 C 0.82832 0.20646 0.81902 0.0
H1084 H 0.7742 0.57399 0.8194 0.0
H1085 H 0.78708 0.51179 0.83442 0.0
H1086 H 0.74099 0.55557 0.75704 0.0
H1087 H 0.70756 0.39908 0.73432 0.0
H1088 H 0.85663 0.0739 0.7719 0.0
H1089 H 0.82028 0.12078 0.76685 0.0
H1090 H 0.9043 0.10231 0.82823 0.0
H1091 H 0.89309 0.23609 0.86858 0.0
C1092 C 0.66816 0.63598 0.75385 0.0
C1093 C 0.65851 0.62454 0.68556 0.0
C1094 C 0.67653 0.65838 0.72151 0.0
C1095 C 0.61819 0.57204 0.68666 0.0
C1096 C 0.62843 0.58281 0.75546 0.0
C1097 C 0.60026 0.5524 0.72281 0.0
N1098 N 0.70564 0.66172 0.77766 0.0
C1099 C 0.70552 0.63484 0.80269 0.0
C1100 C 0.62395 0.5593 0.78598 0.0
C1101 C 0.66331 0.58529 0.80945 0.0
Gd1102 Gd 0.82393 0.86605 0.82749 0.0
Gd1103 Gd 0.7753 0.7461 0.76204 0.0
N1104 N 0.71426 0.70959 0.72073 0.0
C1105 C 0.68839 0.64253 0.64989 0.0
C1106 C 0.73286 0.72958 0.68567 0.0
C1107 C 0.72337 0.69563 0.64924 0.0
H1108 H 0.76319 0.77026 0.68544 0.0
H1109 H 0.7459 0.70974 0.6214 0.0
H1110 H 0.79596 0.86624 0.92658 0.0
H1111 H 0.7382 0.65062 0.81726 0.0
H1112 H 0.82167 0.9425 0.98157 0.0
H1113 H 0.69157 0.61601 0.62491 0.0
H1114 H 0.60179 0.54565 0.65982 0.0
H1115 H 0.92698 0.87007 0.76033 0.0
H1116 H 0.59376 0.51891 0.78817 0.0
H1117 H 0.66293 0.56566 0.83058 0.0
H1118 H 0.98673 0.07683 0.92709 0.0
H1119 H 0.57009 0.51145 0.72303 0.0
H1120 H 0.05469 0.02401 0.79668 0.0
H1121 H 1.01707 0.94126 0.74739 0.0
N1122 N 0.91361 0.91365 0.81487 0.0
C1123 C 0.9358 0.95465 0.84446 0.0
C1124 C 0.94305 0.90599 0.78178 0.0
C1125 C 1.01538 0.99274 0.80238 0.0
C1126 C 0.99429 0.946 0.77463 0.0
C1127 C 0.98585 0.99726 0.83821 0.0
H1128 H 0.04252 0.0758 0.86433 0.0
N1129 N 0.86111 0.90905 0.88644 0.0
C1130 C 0.90808 0.95255 0.88167 0.0
C1131 C 0.89019 0.99371 0.94586 0.0
C1132 C 0.92458 0.99664 0.91151 0.0
C1133 C 0.83281 0.90208 0.92314 0.0
C1134 C 0.84679 0.94526 0.95385 0.0
O1135 O 0.72645 0.78068 0.76584 0.0
O1136 O 0.78696 0.86707 0.77909 0.0
O1137 O 0.76121 0.87235 0.84967 0.0
O1138 O 0.83682 0.94353 0.85382 0.0
O1139 O 0.83513 0.81521 0.7256 0.0
O1140 O 0.85797 0.89278 0.76715 0.0
O1141 O 0.85756 0.82407 0.84159 0.0
O1142 O 0.82773 0.74675 0.79715 0.0
O1143 O 0.83232 0.76059 0.71157 0.0
O1144 O 0.77588 0.68028 0.72171 0.0
O1145 O 0.75409 0.80244 0.86191 0.0
O1146 O 0.75907 0.73486 0.82794 0.0
C1147 C 0.74323 0.83015 0.76514 0.0
C1148 C 0.86048 0.86708 0.731 0.0
C1149 C 0.77109 0.93624 0.90633 0.0
C1150 C 0.69019 0.91111 0.94106 0.0
C1151 C 0.76114 1.00169 0.95411 0.0
C1152 C 0.79127 0.98898 0.92371 0.0
C1153 C 0.70951 0.9629 0.96163 0.0
C1154 C 0.72439 0.89741 0.92347 0.0
C1155 C 0.78865 0.92203 0.86483 0.0
C1156 C 0.97276 0.04213 0.90451 0.0
C1157 C 1.00431 0.04179 0.86846 0.0
H1158 H 0.89588 0.02844 0.9657 0.0
C1159 C 0.85717 0.78042 0.8259 0.0
C1160 C 0.74044 0.75443 0.85971 0.0
C1161 C 0.854 0.70111 0.68339 0.0
C1162 C 0.931 0.71331 0.69236 0.0
C1163 C 0.89724 0.67172 0.62746 0.0
C1164 C 0.85633 0.67622 0.64361 0.0
C1165 C 0.93461 0.69046 0.65152 0.0
C1166 C 0.89183 0.7209 0.70721 0.0
C1167 C 0.81493 0.71124 0.69849 0.0
H1168 H 0.7758 0.04219 0.9676 0.0
H1169 H 0.82817 0.01987 0.91213 0.0
H1170 H 0.68422 0.97472 0.97838 0.0
H1171 H 0.70871 0.85635 0.91107 0.0
H1172 H 0.8996 0.65297 0.59656 0.0
H1173 H 0.82729 0.66157 0.6249 0.0
H1174 H 0.96494 0.68476 0.63857 0.0
H1175 H 0.89013 0.74117 0.73762 0.0
C1176 C 0.66027 0.69399 0.58008 0.0
C1177 C 0.63854 0.71649 0.65113 0.0
C1178 C 0.62798 0.68007 0.61545 0.0
C1179 C 0.68051 0.76783 0.64985 0.0
C1180 C 0.70333 0.74562 0.57925 0.0
C1181 C 0.71204 0.78314 0.61407 0.0
N1182 N 0.65388 0.65527 0.54861 0.0
C1183 C 0.69208 0.66453 0.51758 0.0
C1184 C 0.73909 0.75656 0.545 0.0
C1185 C 0.73404 0.71545 0.51438 0.0
Gd1186 Gd 0.48937 0.51672 0.5179 0.0
Gd1187 Gd 0.58001 0.57147 0.55623 0.0
N1188 N 0.59045 0.62904 0.61622 0.0
C1189 C 0.60931 0.69911 0.68748 0.0
C1190 C 0.56555 0.61091 0.65174 0.0
C1191 C 0.57291 0.64589 0.68787 0.0
H1192 H 0.54105 0.56941 0.65165 0.0
H1193 H 0.55247 0.63166 0.71608 0.0
H1194 H 0.54241 0.52349 0.42252 0.0
H1195 H 0.69083 0.63267 0.49536 0.0
H1196 H 0.54356 0.46281 0.36054 0.0
H1197 H 0.61658 0.72549 0.71575 0.0
H1198 H 0.69047 0.795 0.67681 0.0
H1199 H 0.37684 0.44255 0.57477 0.0
H1200 H 0.77257 0.79577 0.54331 0.0
H1201 H 0.7632 0.72264 0.48898 0.0
H1202 H 0.41998 0.29308 0.39754 0.0
H1203 H 0.74519 0.82288 0.61454 0.0
H1204 H 0.3195 0.28193 0.52515 0.0
H1205 H 0.314 0.34909 0.57828 0.0
N1206 N 0.42148 0.42913 0.52251 0.0
C1207 C 0.42226 0.39301 0.49116 0.0
C1208 C 0.38127 0.41396 0.55224 0.0
C1209 C 0.34809 0.32309 0.52401 0.0
C1210 C 0.34484 0.36084 0.55401 0.0
C1211 C 0.38619 0.33901 0.49144 0.0
H1212 H 0.35979 0.26121 0.45749 0.0
N1213 N 0.48993 0.46253 0.4573 0.0
C1214 C 0.45644 0.41026 0.45707 0.0
C1215 C 0.48894 0.3938 0.38805 0.0
C1216 C 0.45619 0.37448 0.42278 0.0
C1217 C 0.51876 0.48183 0.42267 0.0
C1218 C 0.51959 0.44768 0.3877 0.0
O1219 O 0.5285 0.61798 0.59505 0.0
O1220 O 0.45397 0.56136 0.57494 0.0
O1221 O 0.48967 0.55905 0.47855 0.0
O1222 O 0.4189 0.49257 0.50074 0.0
O1223 O 0.51872 0.49258 0.57944 0.0
O1224 O 0.46234 0.50876 0.58467 0.0
O1225 O 0.54404 0.47136 0.48554 0.0
O1226 O 0.61974 0.53293 0.49961 0.0
O1227 O 0.57553 0.51325 0.58127 0.0
O1228 O 0.64555 0.59046 0.57544 0.0
O1229 O 0.5492 0.60021 0.50228 0.0
O1230 O 0.60189 0.57854 0.48956 0.0
C1231 C 0.47847 0.60722 0.60146 0.0
C1232 C 0.4759 0.48544 0.59827 0.0
C1233 C 0.41958 0.56579 0.49486 0.0
C1234 C 0.40842 0.62574 0.47428 0.0
C1235 C 0.36356 0.59041 0.53713 0.0
C1236 C 0.38366 0.56018 0.52856 0.0
C1237 C 0.37649 0.62364 0.51085 0.0
C1238 C 0.43305 0.5999 0.46896 0.0
C1239 C 0.44066 0.53343 0.48342 0.0
C1240 C 0.42193 0.32087 0.42381 0.0
C1241 C 0.38734 0.30291 0.45807 0.0
H1242 H 0.4897 0.36766 0.36096 0.0
C1243 C 0.5951 0.48426 0.47724 0.0
C1244 C 0.59052 0.60659 0.48051 0.0
C1245 C 0.65328 0.51959 0.56829 0.0
C1246 C 0.68036 0.47539 0.59063 0.0
C1247 C 0.73155 0.52687 0.53665 0.0
C1248 C 0.69734 0.5408 0.54074 0.0
C1249 C 0.72423 0.49593 0.56259 0.0
C1250 C 0.64257 0.48257 0.58951 0.0
C1251 C 0.62428 0.54346 0.58294 0.0
H1252 H 0.33645 0.58687 0.56351 0.0
H1253 H 0.37116 0.53265 0.54818 0.0
H1254 H 0.35936 0.64576 0.51881 0.0
H1255 H 0.45907 0.6009 0.44269 0.0
H1256 H 0.76605 0.54404 0.5161 0.0
H1257 H 0.7067 0.57006 0.52412 0.0
H1258 H 0.7549 0.49231 0.56295 0.0
H1259 H 0.60827 0.46642 0.61059 0.0
C1260 C 0.18751 0.74381 0.99331 0.0
C1261 C 0.2146 0.69437 0.94086 0.0
C1262 C 0.17756 0.70415 0.96077 0.0
C1263 C 0.26378 0.72825 0.95231 0.0
C1264 C 0.2373 0.78096 1.00264 0.0
C1265 C 0.27567 0.77286 0.982 0.0
N1266 N 0.14818 0.74606 0.01537 0.0
C1267 C 0.15639 0.7883 0.0443 0.0
C1268 C 0.24634 0.82407 0.03287 0.0
C1269 C 0.2058 0.82835 0.05316 0.0
Gd1270 Gd 1.02605 0.54435 0.06473 0.0
Gd1271 Gd 0.06897 0.66718 1.00611 0.0
N1272 N 0.12933 0.67102 0.95143 0.0
C1273 C 0.19979 0.64965 0.91124 0.0
C1274 C 0.11841 0.63618 0.91606 0.0
C1275 C 0.15384 0.6242 0.89558 0.0
H1276 H 0.08027 0.61181 0.908 0.0
H1277 H 0.14412 0.5925 0.87023 0.0
H1278 H 0.06302 0.62826 0.15169 0.0
H1279 H 0.12468 0.78978 0.06166 0.0
H1280 H 1.02497 0.64233 0.22061 0.0
H1281 H 0.2239 0.63528 0.89953 0.0
H1282 H 0.293 0.72118 0.93781 0.0
H1283 H 0.94051 0.42476 0.02165 0.0
H1284 H 0.28425 0.85409 0.04073 0.0
H1285 H 0.21237 0.86141 0.07665 0.0
H1286 H 0.85066 0.5021 0.21868 0.0
H1287 H 0.31417 0.80004 0.98937 0.0
H1288 H 0.80084 0.37479 0.09827 0.0
H1289 H 0.84835 0.36014 0.03416 0.0
N1290 N 0.94377 0.47416 0.07783 0.0
C1291 C 0.91903 0.48101 0.11412 0.0
C1292 C 0.91972 0.4306 0.04976 0.0
C1293 C 0.84131 0.40151 0.09346 0.0
C1294 C 0.86787 0.3938 0.05694 0.0
C1295 C 0.86722 0.44432 0.1231 0.0
H1296 H 0.80299 0.42403 0.16774 0.0
N1297 N 0.99445 0.56291 0.13086 0.0
C1298 C 0.94543 0.52584 0.1418 0.0
C1299 C 0.95041 0.57483 0.20926 0.0
C1300 C 0.9216 0.53207 0.1807 0.0
C1301 C 1.02329 0.60313 0.15894 0.0
C1302 C 1.00179 0.61016 0.19845 0.0
O1303 O 0.10544 0.61881 0.98683 0.0
O1304 O 0.05746 0.53517 1.00315 0.0
O1305 O 0.08051 0.5482 0.09323 0.0
O1306 O 1.01847 0.47336 0.06643 0.0
O1307 O 1.01233 0.58494 0.97548 0.0
O1308 O 0.99403 0.51541 1.00365 0.0
O1309 O 0.9676 0.55828 0.06578 0.0
O1310 O 1.02329 0.64266 0.06312 0.0
O1311 O 1.00442 0.65382 0.97997 0.0
O1312 O 0.0692 0.73056 0.99273 0.0
O1313 O 0.10188 0.62495 0.06968 0.0
O1314 O 0.09378 0.6923 0.07219 0.0
C1315 C 0.09635 0.57192 0.98457 0.0
C1316 C 0.98861 0.53426 0.97664 0.0
C1317 C 0.08812 0.47455 0.07618 0.0
C1318 C 0.12028 0.4419 0.10824 0.0
C1319 C 0.09873 0.4047 0.03904 0.0
C1320 C 0.08426 0.43854 0.04099 0.0
C1321 C 0.11491 0.40505 0.07269 0.0
C1322 C 0.10976 0.47882 0.10821 0.0
C1323 C 0.05838 0.49756 0.08482 0.0
C1324 C 0.86984 0.4957 0.18973 0.0
C1325 C 0.8427 0.45219 0.16083 0.0
H1326 H 0.93362 0.58021 0.23984 0.0
C1327 C 0.97732 0.60207 0.06091 0.0
C1328 C 0.11158 0.67182 0.08725 0.0
C1329 C 1.00275 0.72988 0.96904 0.0
C1330 C 0.96112 0.75146 0.9299 0.0
C1331 C 0.9995 0.80791 0.99154 0.0
C1332 C 1.01391 0.77626 0.9959 0.0
C1333 C 0.97431 0.79616 0.95942 0.0
C1334 C 0.97452 0.71682 0.93562 0.0
C1335 C 1.02714 0.70256 0.97632 0.0
H1336 H 0.09445 0.37586 1.0123 0.0
H1337 H 0.06761 0.43475 0.01601 0.0
H1338 H 0.12123 0.37487 0.07103 0.0
H1339 H 0.11517 0.50915 0.13391 0.0
H1340 H 1.00921 0.84329 1.01322 0.0
H1341 H 1.03517 0.78919 0.02069 0.0
H1342 H 0.96528 0.82318 0.95751 0.0
H1343 H 0.96407 0.6813 0.91405 0.0
C1344 C 0.18011 0.22503 0.92554 0.0
C1345 C 0.20104 0.20583 0.88976 0.0
C1346 C 0.15151 0.19655 0.95857 0.0
C1347 C 0.14312 0.1476 0.95852 0.0
H1348 H 0.18584 0.26274 0.92824 0.0
H1349 H 0.13637 0.21348 0.98466 0.0
S1350 S 0.17857 0.0734 0.87136 0.0
N1351 N 0.20172 0.12868 0.85571 0.0
N1352 N 0.15366 0.07925 0.91836 0.0
C1353 C 0.16273 0.12761 0.92326 0.0
C1354 C 0.19 0.1554 0.88904 0.0
C1355 C 0.22155 0.95914 0.15225 0.0
C1356 C 0.17324 0.94564 0.14838 0.0
C1357 C 0.23267 0.9585 0.1883 0.0
C1358 C 0.19615 0.9448 0.22223 0.0
H1359 H 0.25249 0.97419 0.12841 0.0
H1360 H 0.27126 0.97272 0.19053 0.0
S1361 S 0.06148 0.8951 0.22641 0.0
N1362 N 0.08632 0.90883 0.18027 0.0
N1363 N 0.10827 0.91013 0.2486 0.0
C1364 C 0.14684 0.92715 0.21816 0.0
C1365 C 0.13514 0.92687 0.18115 0.0
C1366 C 0.42337 0.93746 0.46486 0.0
C1367 C 0.44895 0.91599 0.47086 0.0
C1368 C 0.393 0.91707 0.43248 0.0
C1369 C 0.38509 0.87306 0.40241 0.0
H1370 H 0.42732 0.97175 0.48545 0.0
H1371 H 0.37583 0.93689 0.43097 0.0
S1372 S 0.4416 0.79953 0.40224 0.0
N1373 N 0.46214 0.84586 0.44209 0.0
N1374 N 0.40674 0.80831 0.38258 0.0
C1375 C 0.40989 0.85059 0.40818 0.0
C1376 C 0.44079 0.8714 0.44151 0.0
C1377 C 0.49459 0.13639 0.68652 0.0
C1378 C 0.46546 0.14427 0.66973 0.0
C1379 C 0.50007 0.09461 0.66958 0.0
C1380 C 0.47634 0.05937 0.63551 0.0
H1381 H 0.51692 0.16534 0.71047 0.0
H1382 H 0.52779 0.09355 0.68013 0.0
S1383 S 0.38942 0.0583 0.58481 0.0
N1384 N 0.40699 0.10985 0.62106 0.0
N1385 N 0.4177 0.03095 0.589 0.0
C1386 C 0.44241 0.06328 0.6216 0.0
C1387 C 0.43686 0.10603 0.63879 0.0
C1388 C 0.18358 0.90818 0.61817 0.0
C1389 C 0.13574 0.89839 0.63554 0.0
C1390 C 0.21983 0.92373 0.64245 0.0
C1391 C 0.20942 0.931 0.68467 0.0
H1392 H 0.19297 0.90396 0.58567 0.0
H1393 H 0.25643 0.931 0.62826 0.0
S1394 S 0.09095 0.9128 0.74457 0.0
N1395 N 0.08036 0.89829 0.69713 0.0
N1396 N 0.14878 0.92785 0.74287 0.0
C1397 C 0.16194 0.92158 0.70233 0.0
C1398 C 0.12495 0.90527 0.67767 0.0
C1399 C 0.42394 0.90261 0.8932 0.0
C1400 C 0.37565 0.89246 0.89428 0.0
C1401 C 0.45441 0.93606 0.92503 0.0
C1402 C 0.43765 0.95989 0.96033 0.0
H1403 H 0.43913 0.88604 0.86685 0.0
H1404 H 0.49185 0.94379 0.92159 0.0
S1405 S 0.31044 0.93921 0.98065 0.0
N1406 N 0.31183 0.90747 0.93439 0.0
N1407 N 0.36518 0.96363 0.99576 0.0
C1408 C 0.38795 0.94717 0.96258 0.0
C1409 C 0.35817 0.91542 0.9293 0.0
C1410 C 0.4381 0.26019 0.20107 0.0
C1411 C 0.42553 0.20876 0.19352 0.0
C1412 C 0.40206 0.27214 0.20439 0.0
C1413 C 0.3497 0.23472 0.21132 0.0
H1414 H 0.47633 0.2919 0.20668 0.0
H1415 H 0.41607 0.31307 0.20866 0.0
S1416 S 0.28276 0.08081 0.24495 0.0
N1417 N 0.35049 0.09813 0.20868 0.0
N1418 N 0.28632 0.14333 0.23617 0.0
C1419 C 0.33315 0.18324 0.20784 0.0
C1420 C 0.3777 0.16779 0.18784 0.0
C1421 C 0.16806 0.19446 0.44722 0.0
C1422 C 0.14097 0.13906 0.44216 0.0
C1423 C 0.19767 0.22295 0.41448 0.0
C1424 C 0.20104 0.19805 0.37417 0.0
H1425 H 0.16715 0.21645 0.47706 0.0
H1426 H 0.2184 0.26529 0.42099 0.0
S1427 S 0.13669 0.05405 0.34313 0.0
N1428 N 0.11997 0.06087 0.39231 0.0
N1429 N 0.17389 0.11377 0.33166 0.0
C1430 C 0.17375 0.1428 0.36851 0.0
C1431 C 0.14435 0.11374 0.40199 0.0
C1432 C 0.94665 0.23298 0.19523 0.0
C1433 C 0.89095 0.21407 0.2057 0.0
C1434 C 0.9748 0.20531 0.16966 0.0
C1435 C 0.95609 0.1504 0.14579 0.0
H1436 H 0.97201 0.27333 0.20833 0.0
H1437 H 1.01557 0.23055 0.16864 0.0
S1438 S 0.81159 0.07222 0.15384 0.0
N1439 N 0.82072 0.12714 0.18245 0.0
N1440 N 0.8677 0.08115 0.13874 0.0
C1441 C 0.90038 0.13119 0.15547 0.0
C1442 C 0.87163 0.15916 0.18223 0.0
C1443 C 0.18228 0.69121 0.45594 0.0
C1444 C 0.13646 0.64165 0.44935 0.0
C1445 C 0.21043 0.72462 0.426 0.0
C1446 C 0.19585 0.70994 0.38685 0.0
H1447 H 0.19595 0.70512 0.48508 0.0
H1448 H 0.24455 0.76245 0.43361 0.0
S1449 S 0.08011 0.58321 0.3527 0.0
N1450 N 0.07836 0.57982 0.39976 0.0
N1451 N 0.13189 0.64039 0.34358 0.0
C1452 C 0.15073 0.65985 0.37953 0.0
C1453 C 0.12114 0.62656 0.41052 0.0
C1454 C 0.63593 0.83172 0.73173 0.0
C1455 C 0.66065 0.8664 0.70251 0.0
C1456 C 0.66184 0.82234 0.75311 0.0
C1457 C 0.71511 0.84586 0.74675 0.0
H1458 H 0.59497 0.80847 0.7364 0.0
H1459 H 0.63917 0.79409 0.77357 0.0
S1460 S 0.80093 0.94338 0.67741 0.0
N1461 N 0.74456 0.92706 0.67178 0.0
N1462 N 0.79179 0.91061 0.71142 0.0
C1463 C 0.74085 0.88401 0.72054 0.0
C1464 C 0.71442 0.8934 0.69853 0.0
C1465 C 0.39816 0.44149 0.95604 0.0
C1466 C 0.45104 0.46508 0.95032 0.0
C1467 C 0.36774 0.40915 0.92404 0.0
C1468 C 0.38839 0.39939 0.88409 0.0
H1469 H 0.37965 0.44711 0.98571 0.0
H1470 H 0.3273 0.39133 0.93093 0.0
S1471 S 0.52606 0.45834 0.85161 0.0
N1472 N 0.52309 0.47959 0.90066 0.0
N1473 N 0.46726 0.42202 0.84062 0.0
C1474 C 0.44173 0.42515 0.87766 0.0
C1475 C 0.47246 0.45689 0.91054 0.0
C1476 C 0.86542 0.88863 0.42869 0.0
C1477 C 0.87766 0.90603 0.39163 0.0
C1478 C 0.90032 0.91548 0.45777 0.0
C1479 C 0.94832 0.96225 0.4519 0.0
H1480 H 0.82922 0.85296 0.43471 0.0
H1481 H 0.88912 0.90013 0.4855 0.0
S1482 S 1.00006 0.02314 0.35968 0.0
N1483 N 0.94349 0.97093 0.34991 0.0
N1484 N 1.00598 0.02365 0.40561 0.0
C1485 C 0.9607 0.97993 0.41514 0.0
C1486 C 0.92636 0.95136 0.38487 0.0
C1487 C 0.46708 0.69586 0.66224 0.0
C1488 C 0.44759 0.642 0.6362 0.0
C1489 C 0.44022 0.72412 0.68963 0.0
C1490 C 0.38495 0.70651 0.70103 0.0
H1491 H 0.50754 0.71934 0.66225 0.0
H1492 H 0.46632 0.76364 0.70375 0.0
S1493 S 0.30286 0.56496 0.64887 0.0
N1494 N 0.35855 0.57368 0.63111 0.0
N1495 N 0.31338 0.62012 0.67809 0.0
C1496 C 0.36449 0.65189 0.67632 0.0
C1497 C 0.39214 0.62359 0.64745 0.0
C1498 C 0.64483 0.20827 0.96076 0.0
C1499 C 0.622 0.15327 0.95555 0.0
C1500 C 0.67714 0.23882 0.92927 0.0
C1501 C 0.68939 0.21671 0.89026 0.0
H1502 H 0.63824 0.22846 0.9898 0.0
H1503 H 0.6932 0.28053 0.93591 0.0
S1504 S 0.63708 0.07423 0.8585 0.0
N1505 N 0.61224 0.07834 0.90602 0.0
N1506 N 0.67293 0.13456 0.84853 0.0
C1507 C 0.6661 0.1617 0.88448 0.0
C1508 C 0.6328 0.13062 0.91635 0.0
C1509 C 0.16006 0.41601 0.1419 0.0
C1510 C 0.13161 0.43743 0.14572 0.0
C1511 C 0.16165 0.39962 0.17458 0.0
C1512 C 0.13586 0.4049 0.21268 0.0
H1513 H 0.17968 0.40963 0.11304 0.0
H1514 H 0.18115 0.38042 0.16938 0.0
S1515 S 0.07202 0.47502 0.24382 0.0
N1516 N 0.08632 0.47324 0.19451 0.0
N1517 N 0.09347 0.4454 0.2556 0.0
C1518 C 0.11384 0.43291 0.21861 0.0
C1519 C 0.11078 0.44856 0.1853 0.0
C1520 C 0.69286 0.67544 0.9475 0.0
C1521 C 0.63986 0.65224 0.95479 0.0
C1522 C 0.72483 0.71014 0.9187 0.0
C1523 C 0.70614 0.72241 0.89401 0.0
H1524 H 0.71022 0.66766 0.96484 0.0
H1525 H 0.76506 0.72881 0.91645 0.0
S1526 S 0.57155 0.67715 0.90246 0.0
N1527 N 0.57139 0.64908 0.93601 0.0
N1528 N 0.63073 0.71104 0.88148 0.0
C1529 C 0.65366 0.70092 0.90169 0.0
C1530 C 0.62103 0.66668 0.93172 0.0
C1531 C 0.62976 0.41465 0.23252 0.0
C1532 C 0.6797 0.42928 0.21793 0.0
C1533 C 0.59764 0.40536 0.2068 0.0
C1534 C 0.61516 0.41208 0.16617 0.0
H1535 H 0.61522 0.40923 0.26369 0.0
H1536 H 0.55896 0.39289 0.21869 0.0
S1537 S 0.74241 0.44954 0.11342 0.0
N1538 N 0.74478 0.44938 0.16027 0.0
N1539 N 0.68557 0.43524 0.11284 0.0
C1540 C 0.66545 0.42832 0.15171 0.0
C1541 C 0.69745 0.43602 0.17737 0.0
C1542 C 0.9142 0.4451 0.44936 0.0
C1543 C 0.9613 0.45111 0.4456 0.0
C1544 C 0.88455 0.42121 0.417 0.0
C1545 C 0.89748 0.39712 0.37984 0.0
H1546 H 0.89978 0.45946 0.47772 0.0
H1547 H 0.85023 0.42042 0.42182 0.0
S1548 S 1.01605 0.4 0.35259 0.0
N1549 N 1.0203 0.43238 0.39926 0.0
N1550 N 0.96136 0.38139 0.34091 0.0
C1551 C 0.94369 0.40136 0.3756 0.0
C1552 C 0.97593 0.4292 0.40773 0.0
C1553 C 0.66616 0.64543 0.42603 0.0
C1554 C 0.62358 0.64407 0.44975 0.0
C1555 C 0.69871 0.68135 0.39859 0.0
C1556 C 0.69031 0.71696 0.3912 0.0
H1557 H 0.67519 0.61888 0.42895 0.0
H1558 H 0.73184 0.68216 0.38409 0.0
S1559 S 0.58452 0.73052 0.44622 0.0
N1560 N 0.57583 0.68346 0.46501 0.0
N1561 N 0.63481 0.74816 0.41211 0.0
C1562 C 0.64767 0.71591 0.41487 0.0
C1563 C 0.61494 0.68008 0.44381 0.0
C1564 C 0.9074 0.4051 0.90701 0.0
C1565 C 0.89243 0.41963 0.88109 0.0
C1566 C 0.939 0.4422 0.937 0.0
C1567 C 0.95633 0.4956 0.9434 0.0
H1568 H 0.89463 0.36458 0.9042 0.0
H1569 H 0.94997 0.42859 0.95515 0.0
S1570 S 0.92732 0.55424 0.88419 0.0
N1571 N 0.89977 0.49228 0.86279 0.0
N1572 N 0.95474 0.5604 0.92092 0.0
C1573 C 0.94182 0.51065 0.91744 0.0
C1574 C 0.91115 0.47324 0.886 0.0
C1575 C 0.876 0.92897 0.1918 0.0
C1576 C 0.88458 0.89863 0.20702 0.0
C1577 C 0.90951 0.95976 0.16156 0.0
C1578 C 0.95177 0.95818 0.14111 0.0
H1579 H 0.84275 0.9289 0.20312 0.0
H1580 H 0.90145 0.98468 0.15401 0.0
S1581 S 0.98289 0.87087 0.15855 0.0
N1582 N 0.93532 0.86243 0.19382 0.0
N1583 N 0.99468 0.91465 0.13353 0.0
C1584 C 0.95869 0.92406 0.15307 0.0
C1585 C 0.92601 0.89534 0.18618 0.0
C1586 C 0.89625 0.19397 0.92705 0.0
C1587 C 0.9218 0.18396 0.89028 0.0
C1588 C 0.90492 0.19189 0.96348 0.0
C1589 C 0.93685 0.17626 0.96426 0.0
H1590 H 0.86651 0.19951 0.92769 0.0
H1591 H 0.88282 0.198 0.99069 0.0
S1592 S 1.02648 0.16649 0.87629 0.0
N1593 N 0.99129 0.17519 0.85737 0.0
N1594 N 1.00556 0.16645 0.92478 0.0
C1595 C 0.96834 0.1743 0.92793 0.0
C1596 C 0.96074 0.17871 0.89112 0.0
C1597 C 0.70694 0.21235 0.67511 0.0
C1598 C 0.70491 0.19838 0.71085 0.0
C1599 C 0.68016 0.17403 0.64309 0.0
C1600 C 0.64999 0.11981 0.64508 0.0
H1601 H 0.72993 0.25319 0.67155 0.0
H1602 H 0.68354 0.18736 0.61644 0.0
S1603 S 0.63087 0.06281 0.73293 0.0
N1604 N 0.66826 0.12646 0.74719 0.0
N1605 N 0.62017 0.05497 0.6868 0.0
C1606 C 0.64771 0.10552 0.68085 0.0
C1607 C 0.67427 0.14453 0.7137 0.0
C1608 C 0.66046 0.97575 0.54311 0.0
C1609 C 0.66725 0.01043 0.52113 0.0
C1610 C 0.6626 0.93247 0.52288 0.0
C1611 C 0.676 0.92699 0.48095 0.0
H1612 H 0.64607 0.97813 0.57449 0.0
H1613 H 0.64689 0.9002 0.53866 0.0
S1614 S 0.73334 0.03019 0.41814 0.0
N1615 N 0.7116 0.05198 0.46169 0.0
N1616 N 0.72127 0.97404 0.42348 0.0
C1617 C 0.69972 0.97158 0.46249 0.0
C1618 C 0.69466 0.01367 0.48292 0.0
C1619 C 0.90209 0.19036 0.4165 0.0
C1620 C 0.91445 0.18261 0.37434 0.0
C1621 C 0.93399 0.20039 0.4426 0.0
C1622 C 0.97956 0.2037 0.42743 0.0
H1623 H 0.86739 0.1884 0.42943 0.0
H1624 H 0.92335 0.20646 0.47485 0.0
S1625 S 1.02555 0.17917 0.32016 0.0
N1626 N 0.97325 0.17471 0.31886 0.0
N1627 N 1.03304 0.19312 0.36834 0.0
C1628 C 0.99145 0.19405 0.38561 0.0
C1629 C 0.95887 0.18357 0.35894 0.0
C1630 C 0.63812 0.16259 0.21479 0.0
C1631 C 0.68463 0.21161 0.2115 0.0
C1632 C 0.60492 0.13575 0.18438 0.0
C1633 C 0.61748 0.15576 0.14854 0.0
H1634 H 0.62668 0.1451 0.24134 0.0
H1635 H 0.56993 0.09829 0.18841 0.0
S1636 S 0.73386 0.28087 0.12386 0.0
N1637 N 0.73919 0.27898 0.16912 0.0
N1638 N 0.68016 0.22637 0.11125 0.0
C1639 C 0.66385 0.20383 0.14463 0.0
C1640 C 0.69629 0.23228 0.1762 0.0
C1641 C 0.65526 0.88409 0.87569 0.0
C1642 C 0.6469 0.88664 0.91829 0.0
C1643 C 0.62794 0.89268 0.85712 0.0
C1644 C 0.60089 0.91358 0.88245 0.0
H1645 H 0.68662 0.88272 0.85756 0.0
H1646 H 0.63979 0.89793 0.82579 0.0
S1647 S 0.53371 0.87337 0.98044 0.0
N1648 N 0.58448 0.87295 0.97615 0.0
N1649 N 0.53263 0.88577 0.93784 0.0
C1650 C 0.57536 0.88968 0.91729 0.0
C1651 C 0.60239 0.882 0.93776 0.0
C1652 C 0.92688 0.90591 0.62427 0.0
C1653 C 0.94855 0.96065 0.63013 0.0
C1654 C 0.89859 0.87583 0.65626 0.0
C1655 C 0.89077 0.89878 0.69621 0.0
H1656 H 0.93177 0.8858 0.59453 0.0
H1657 H 0.883 0.83422 0.64954 0.0
S1658 S 0.93963 0.04083 0.7286 0.0
N1659 N 0.95963 0.0359 0.67996 0.0
N1660 N 0.90811 0.9811 0.73909 0.0
C1661 C 0.91254 0.95362 0.70239 0.0
C1662 C 0.94075 0.98388 0.66985 0.0
C1663 C 0.14405 0.87561 0.90064 0.0
C1664 C 0.1996 0.89507 0.8865 0.0
C1665 C 0.11635 0.90286 0.92857 0.0
C1666 C 0.13525 0.95803 0.95218 0.0
H1667 H 0.11819 0.83491 0.88866 0.0
H1668 H 0.07559 0.87696 0.93171 0.0
S1669 S 0.28006 0.03973 0.9332 0.0
N1670 N 0.27029 0.98417 0.90532 0.0
N1671 N 0.22408 0.02923 0.95291 0.0
C1672 C 0.19094 0.97817 0.93857 0.0
C1673 C 0.21924 0.9506 0.90936 0.0
C1674 C 0.95212 0.48045 0.67605 0.0
C1675 C 0.96295 0.45804 0.63674 0.0
C1676 C 0.92014 0.45054 0.70789 0.0
C1677 C 0.89761 0.39576 0.70339 0.0
H1678 H 0.96911 0.52219 0.68248 0.0
H1679 H 0.9134 0.47105 0.73671 0.0
S1680 S 0.91506 0.31617 0.60778 0.0
N1681 N 0.94789 0.37568 0.59629 0.0
N1682 N 0.89122 0.32105 0.65552 0.0
C1683 C 0.90962 0.37294 0.66469 0.0
C1684 C 0.94123 0.40331 0.63192 0.0
C1685 C 0.4378 0.20003 0.45412 0.0
C1686 C 0.46241 0.17514 0.45235 0.0
C1687 C 0.43857 0.21539 0.41993 0.0
C1688 C 0.46268 0.20534 0.38244 0.0
H1689 H 0.42061 0.211 0.48259 0.0
H1690 H 0.42281 0.23789 0.42365 0.0
S1691 S 0.50708 0.11741 0.35635 0.0
N1692 N 0.49474 0.12457 0.40604 0.0
N1693 N 0.49452 0.15338 0.34211 0.0
C1694 C 0.47849 0.17218 0.37851 0.0
C1695 C 0.47841 0.15671 0.41334 0.0
C1696 C 0.6878 0.6986 0.13238 0.0
C1697 C 0.63791 0.65398 0.13689 0.0
C1698 C 0.71738 0.72758 0.16519 0.0
C1699 C 0.69793 0.71466 0.20451 0.0
H1700 H 0.70469 0.71044 0.10299 0.0
H1701 H 0.75571 0.76091 0.15981 0.0
S1702 S 0.56864 0.60347 0.23323 0.0
N1703 N 0.57064 0.5991 0.18435 0.0
N1704 N 0.62439 0.65492 0.24581 0.0
C1705 C 0.64758 0.67127 0.2096 0.0
C1706 C 0.61822 0.64072 0.17598 0.0
C1707 C 0.21372 0.22174 0.66531 0.0
C1708 C 0.1994 0.20319 0.70223 0.0
C1709 C 0.18344 0.19287 0.63289 0.0
C1710 C 0.13831 0.14252 0.63473 0.0
H1711 H 0.24842 0.25961 0.66166 0.0
H1712 H 0.19616 0.20983 0.60577 0.0
S1713 S 0.08362 0.07501 0.72391 0.0
N1714 N 0.13552 0.13114 0.7385 0.0
N1715 N 0.08123 0.07579 0.6772 0.0
C1716 C 0.12398 0.12323 0.67124 0.0
C1717 C 0.15368 0.15362 0.70488 0.0
C1718 C 0.63817 0.36641 0.40141 0.0
C1719 C 0.69372 0.3879 0.38603 0.0
C1720 C 0.60928 0.39326 0.42675 0.0
C1721 C 0.6272 0.44979 0.44539 0.0
H1722 H 0.61355 0.32441 0.393 0.0
H1723 H 0.56875 0.36602 0.43228 0.0
S1724 S 0.77121 0.53575 0.42177 0.0
N1725 N 0.76294 0.4792 0.39822 0.0
N1726 N 0.71482 0.52418 0.44137 0.0
C1727 C 0.68287 0.47175 0.43072 0.0
C1728 C 0.71222 0.44443 0.40423 0.0
C1729 C 0.40997 0.92053 0.13957 0.0
C1730 C 0.43948 0.97588 0.14859 0.0
C1731 C 0.38372 0.88763 0.16983 0.0
C1732 C 0.3833 0.90794 0.21162 0.0
H1733 H 0.40601 0.90221 0.10858 0.0
H1734 H 0.36242 0.84558 0.16015 0.0
S1735 S 0.44946 0.05087 0.25267 0.0
N1736 N 0.46363 0.04935 0.20333 0.0
N1737 N 0.41332 0.98916 0.25982 0.0
C1738 C 0.41087 0.96359 0.22118 0.0
C1739 C 0.43869 0.99692 0.19011 0.0
C1740 C 0.96199 0.78545 0.86883 0.0
C1741 C 0.93524 0.74726 0.8951 0.0
C1742 C 0.93775 0.79278 0.84425 0.0
C1743 C 0.88429 0.76462 0.84529 0.0
H1744 H 1.00267 0.81176 0.86827 0.0
H1745 H 0.96157 0.82242 0.82502 0.0
S1746 S 0.79578 0.65188 0.90068 0.0
N1747 N 0.85084 0.67581 0.91501 0.0
N1748 N 0.80691 0.68871 0.86916 0.0
C1749 C 0.85746 0.72376 0.8689 0.0
C1750 C 0.88209 0.71591 0.89376 0.0
C1751 C 0.43827 0.41298 0.13197 0.0
C1752 C 0.45513 0.46636 0.13793 0.0
C1753 C 0.40975 0.38175 0.16319 0.0
C1754 C 0.39622 0.40195 0.20233 0.0
H1755 H 0.44644 0.39466 0.10258 0.0
H1756 H 0.3972 0.34092 0.15624 0.0
S1757 S 0.42808 0.5379 0.2349 0.0
N1758 N 0.45422 0.53693 0.18753 0.0
N1759 N 0.40081 0.47854 0.2448 0.0
C1760 C 0.4123 0.45483 0.20882 0.0
C1761 C 0.44153 0.48676 0.17721 0.0
C1762 C 0.38297 0.63928 0.95771 0.0
C1763 C 0.43352 0.6823 0.95465 0.0
C1764 C 0.3514 0.62406 0.92906 0.0
C1765 C 0.36958 0.65153 0.89668 0.0
H1766 H 0.36708 0.61918 0.98348 0.0
H1767 H 0.31198 0.59236 0.93339 0.0
S1768 S 0.50099 0.76195 0.87243 0.0
N1769 N 0.50173 0.7485 0.91475 0.0
N1770 N 0.44246 0.72003 0.86099 0.0
C1771 C 0.42083 0.6926 0.89216 0.0
C1772 C 0.45282 0.70791 0.92112 0.0
C1773 C 0.19559 0.68328 0.62472 0.0
C1774 C 0.14208 0.65287 0.63258 0.0
C1775 C 0.22699 0.71329 0.65626 0.0
C1776 C 0.20657 0.71591 0.69722 0.0
H1777 H 0.21353 0.68299 0.59389 0.0
H1778 H 0.26756 0.73437 0.64835 0.0
S1779 S 0.07037 0.64093 0.7347 0.0
N1780 N 0.07132 0.62349 0.6853 0.0
N1781 N 0.12964 0.68495 0.74347 0.0
C1782 C 0.15355 0.68655 0.70534 0.0
C1783 C 0.12164 0.65401 0.67348 0.0
C1784 C 0.39572 0.36892 0.65959 0.0
C1785 C 0.38553 0.39143 0.6993 0.0
C1786 C 0.42525 0.39891 0.62748 0.0
C1787 C 0.4446 0.45287 0.63249 0.0
H1788 H 0.38087 0.32749 0.65309 0.0
H1789 H 0.432 0.37924 0.59816 0.0
S1790 S 0.43718 0.53389 0.72988 0.0
N1791 N 0.40693 0.47483 0.7416 0.0
N1792 N 0.45239 0.52729 0.68068 0.0
C1793 C 0.43445 0.47557 0.67152 0.0
C1794 C 0.40776 0.44616 0.70481 0.0
C1795 C 0.19363 0.69843 0.16813 0.0
C1796 C 0.20381 0.74565 0.19457 0.0
C1797 C 0.16648 0.67729 0.13377 0.0
C1798 C 0.14604 0.70076 0.12263 0.0
H1799 H 0.20638 0.6766 0.17409 0.0
H1800 H 0.16074 0.6409 0.11601 0.0
S1801 S 0.1617 0.82542 0.17941 0.0
N1802 N 0.19114 0.8159 0.20477 0.0
N1803 N 0.14012 0.77594 0.14185 0.0
C1804 C 0.15644 0.74831 0.14821 0.0
C1805 C 0.18472 0.77035 0.18329 0.0
C1806 C 0.67566 0.48417 0.70144 0.0
C1807 C 0.70402 0.46468 0.70212 0.0
C1808 C 0.66505 0.4838 0.66523 0.0
C1809 C 0.6806 0.46209 0.62807 0.0
H1810 H 0.66391 0.50259 0.72893 0.0
H1811 H 0.64767 0.50428 0.66661 0.0
S1812 S 0.74413 0.39311 0.61422 0.0
N1813 N 0.74127 0.41571 0.66309 0.0
N1814 N 0.71663 0.41107 0.59488 0.0
C1815 C 0.70358 0.43664 0.62865 0.0
C1816 C 0.71618 0.43859 0.66571 0.0
C1817 C 0.85901 0.57464 0.11626 0.0
C1818 C 0.87518 0.62567 0.13522 0.0
C1819 C 0.88761 0.56577 0.08216 0.0
C1820 C 0.93532 0.60838 0.06965 0.0
H1821 H 0.82908 0.54231 0.13141 0.0
H1822 H 0.87746 0.52584 0.0715 0.0
S1823 S 0.98497 0.74916 0.09946 0.0
N1824 N 0.93313 0.71929 0.1307 0.0
N1825 N 0.9885 0.70179 0.06804 0.0
C1826 C 0.94573 0.6589 0.08197 0.0
C1827 C 0.91572 0.66807 0.11568 0.0
C1828 C 1.0197 0.69338 0.71324 0.0
C1829 C 0.98005 0.64922 0.7315 0.0
C1830 C 1.00869 0.72654 0.70573 0.0
C1831 C 0.96069 0.71778 0.72069 0.0
H1832 H 0.05194 0.69393 0.69529 0.0
H1833 H 1.03266 0.7508 0.68257 0.0
S1834 S 0.87834 0.64516 0.80546 0.0
N1835 N 0.92202 0.63216 0.79248 0.0
N1836 N 0.89173 0.68513 0.77577 0.0
C1837 C 0.93477 0.69071 0.75403 0.0
C1838 C 0.95002 0.66093 0.7624 0.0
C1839 C 0.3641 0.64432 0.43859 0.0
C1840 C 0.40712 0.64452 0.43936 0.0
C1841 C 0.35354 0.64737 0.40347 0.0
C1842 C 0.3846 0.64948 0.367 0.0
H1843 H 0.33534 0.63758 0.46409 0.0
H1844 H 0.31846 0.64391 0.40428 0.0
S1845 S 0.50802 0.6652 0.35222 0.0
N1846 N 0.48751 0.66052 0.40044 0.0
N1847 N 0.46351 0.65998 0.33358 0.0
C1848 C 0.42966 0.65435 0.36715 0.0
C1849 C 0.44196 0.65357 0.40349 0.0
C1850 C 0.10258 0.47201 0.90811 0.0
C1851 C 0.13272 0.46611 0.92541 0.0
C1852 C 0.09868 0.51503 0.92268 0.0
C1853 C 0.12461 0.55299 0.95504 0.0
H1854 H 0.07892 0.44121 0.88551 0.0
H1855 H 0.07018 0.51496 0.91224 0.0
S1856 S 0.21419 0.55862 1.00589 0.0
N1857 N 0.19434 0.50449 0.97211 0.0
N1858 N 0.186 0.58533 1.00021 0.0
C1859 C 0.15941 0.55052 0.96907 0.0
C1860 C 0.16351 0.50671 0.9542 0.0
C1861 C 0.21436 0.32948 0.37245 0.0
C1862 C 0.25676 0.36228 0.34759 0.0
C1863 C 0.19605 0.35047 0.40685 0.0
C1864 C 0.21972 0.40446 0.4168 0.0
H1865 H 0.1979 0.28812 0.36793 0.0
H1866 H 0.16575 0.32466 0.42683 0.0
S1867 S 0.32673 0.50581 0.35835 0.0
N1868 N 0.31793 0.44997 0.33195 0.0
N1869 N 0.28287 0.49037 0.39763 0.0
C1870 C 0.25844 0.43734 0.39001 0.0
C1871 C 0.27696 0.41579 0.3548 0.0
loop_
_geom_bond_atom_site_label_1
_geom_bond_atom_site_label_2
_geom_bond_distance
_geom_bond_site_symmetry_2
_ccdc_geom_bond_type
C0 C2 1.422 . S
C0 C4 1.415 . S
C0 N6 1.369 . S
C1 C2 1.421 . S
C1 C3 1.417 . S
C1 C13 1.422 . S
C2 C0 1.422 . S
C2 C1 1.421 . S
C2 N12 1.359 . S
C3 C1 1.417 . S
C3 C5 1.329 . S
C3 H22 0.930 . S
C4 C0 1.415 . S
C4 C5 1.437 . S
C4 C8 1.413 . S
C5 C3 1.329 . S
C5 C4 1.437 . S
C5 H27 0.929 . S
N6 C0 1.369 . S
N6 C7 1.338 . S
N6 Gd11 2.622 . S
C7 N6 1.338 . S
C7 C9 1.378 . S
C7 H19 0.929 . S
C8 C4 1.413 . S
C8 C9 1.348 . S
C8 H24 0.931 . S
C9 C7 1.378 . S
C9 C8 1.348 . S
C9 H25 0.930 . S
Gd10 N30 2.622 1_545 S
Gd10 N37 2.570 1_545 S
Gd10 O44 2.353 1_556 S
Gd10 O45 2.468 . S
Gd10 O46 2.427 1_545 S
Gd10 O48 2.388 1_546 S
Gd10 O49 2.386 1_545 S
Gd10 O53 2.307 1_655 S
Gd10 C63 2.805 . S
Gd11 N6 2.622 . S
Gd11 N12 2.570 . S
Gd11 O43 2.386 . S
Gd11 O47 2.307 1_455 S
Gd11 O50 2.353 . S
Gd11 O51 2.468 . S
Gd11 O52 2.427 . S
Gd11 O54 2.388 . S
Gd11 C75 2.805 . S
N12 C2 1.359 . S
N12 Gd11 2.570 . S
N12 C14 1.343 . S
C13 C1 1.422 . S
C13 C15 1.321 . S
C13 H21 0.931 . S
C14 N12 1.343 . S
C14 C15 1.390 . S
C14 H16 0.931 . S
C15 C13 1.321 . S
C15 C14 1.390 . S
C15 H17 0.930 1_455 S
H16 C14 0.931 . S
H17 C15 0.930 1_655 S
H18 C41 0.931 1_455 S
H19 C7 0.929 . S
H20 C42 0.930 1_445 S
H21 C13 0.931 . S
H22 C3 0.930 . S
H23 C32 0.929 . S
H24 C8 0.931 . S
H25 C9 0.930 . S
H26 C64 0.930 . S
H27 C5 0.929 . S
H28 C33 0.931 . S
H29 C34 0.930 1_554 S
N30 Gd10 2.622 1_565 S
N30 C31 1.369 . S
N30 C32 1.338 1_556 S
C31 N30 1.369 . S
C31 C35 1.415 . S
C31 C38 1.422 . S
C32 H23 0.929 . S
C32 N30 1.338 1_554 S
C32 C34 1.378 1_554 S
C33 H28 0.931 . S
C33 C34 1.348 . S
C33 C35 1.413 . S
C34 H29 0.930 1_556 S
C34 C32 1.378 1_556 S
C34 C33 1.348 . S
C35 C31 1.415 . S
C35 C33 1.413 . S
C35 C65 1.437 . S
H36 C65 0.929 . S
N37 Gd10 2.570 1_565 S
N37 C38 1.359 . S
N37 C41 1.343 1_565 S
C38 C31 1.422 . S
C38 N37 1.359 . S
C38 C40 1.421 . S
C39 C40 1.422 . S
C39 C42 1.321 . S
C39 H66 0.931 . S
C40 C38 1.421 . S
C40 C39 1.422 . S
C40 C64 1.417 . S
C41 H18 0.931 1_655 S
C41 N37 1.343 1_545 S
C41 C42 1.390 1_545 S
C42 H20 0.930 1_665 S
C42 C39 1.321 . S
C42 C41 1.390 1_565 S
O43 Gd11 2.386 . S
O43 C55 1.265 1_455 S
O44 Gd10 2.353 1_554 S
O44 C55 1.242 . S
O45 Gd10 2.468 . S
O45 C63 1.263 . S
O46 Gd10 2.427 1_565 S
O46 C63 1.252 1_565 S
O47 Gd11 2.307 1_655 S
O47 C56 1.261 1_545 S
O48 Gd10 2.388 1_564 S
O48 C56 1.252 . S
O49 Gd10 2.386 1_565 S
O49 C67 1.265 1_655 S
O50 Gd11 2.353 . S
O50 C67 1.242 1_544 S
O51 Gd11 2.468 . S
O51 C75 1.263 . S
O52 Gd11 2.427 . S
O52 C75 1.252 . S
O53 Gd10 2.307 1_455 S
O53 C68 1.261 . S
O54 Gd11 2.388 . S
O54 C68 1.252 1_554 S
C55 O43 1.265 1_655 S
C55 O44 1.242 . S
C56 O47 1.261 1_565 S
C56 O48 1.252 . S
C57 C60 1.394 . S
C57 C62 1.370 . S
C57 C63 1.500 . S
C58 C61 1.383 . S
C58 C62 1.395 . S
C59 C60 1.396 . S
C59 C61 1.365 . S
C59 H76 0.929 1_545 S
C60 C57 1.394 . S
C60 C59 1.396 . S
C60 H77 0.930 1_545 S
C61 C58 1.383 . S
C61 C59 1.365 . S
C61 H78 0.931 . S
C62 C57 1.370 . S
C62 C58 1.395 . S
C62 H79 0.930 . S
C63 Gd10 2.805 . S
C63 O45 1.263 . S
C63 O46 1.252 1_545 S
C63 C57 1.500 . S
C64 H26 0.930 . S
C64 C40 1.417 . S
C64 C65 1.329 . S
C65 C35 1.437 . S
C65 H36 0.929 . S
C65 C64 1.329 . S
H66 C39 0.931 . S
C67 O49 1.265 1_455 S
C67 O50 1.242 1_566 S
C68 O53 1.261 . S
C68 O54 1.252 1_556 S
C69 C72 1.394 . S
C69 C74 1.370 . S
C69 C75 1.500 . S
C70 C73 1.383 . S
C70 C74 1.395 . S
C71 C72 1.396 . S
C71 C73 1.365 . S
C71 H80 0.929 . S
C72 C69 1.394 . S
C72 C71 1.396 . S
C72 H81 0.930 . S
C73 C70 1.383 . S
C73 C71 1.365 . S
C73 H82 0.931 . S
C74 C69 1.370 . S
C74 C70 1.395 . S
C74 H83 0.930 1_545 S
C75 Gd11 2.805 . S
C75 O51 1.263 . S
C75 O52 1.252 . S
C75 C69 1.500 . S
H76 C59 0.929 1_565 S
H77 C60 0.930 1_565 S
H78 C61 0.931 . S
H79 C62 0.930 . S
H80 C71 0.929 . S
H81 C72 0.930 . S
H82 C73 0.931 . S
H83 C74 0.930 1_565 S
C84 C86 1.422 . S
C84 C88 1.415 . S
C84 N90 1.369 . S
C85 C86 1.421 . S
C85 C87 1.417 . S
C85 C97 1.422 . S
C86 C84 1.422 . S
C86 C85 1.421 . S
C86 N96 1.359 . S
C87 C85 1.417 . S
C87 C89 1.329 . S
C87 H106 0.930 . S
C88 C84 1.415 . S
C88 C89 1.437 . S
C88 C92 1.413 . S
C89 C87 1.329 . S
C89 C88 1.437 . S
C89 H111 0.929 . S
N90 C84 1.369 . S
N90 C91 1.338 . S
N90 Gd95 2.622 . S
C91 N90 1.338 . S
C91 C93 1.378 . S
C91 H103 0.929 . S
C92 C88 1.413 . S
C92 C93 1.348 . S
C92 H108 0.931 . S
C93 C91 1.378 . S
C93 C92 1.348 . S
C93 H109 0.930 . S
Gd94 N114 2.622 . S
Gd94 N121 2.570 . S
Gd94 O128 2.353 . S
Gd94 O129 2.468 . S
Gd94 O130 2.427 . S
Gd94 O132 2.388 . S
Gd94 O133 2.386 . S
Gd94 O137 2.307 . S
Gd94 C147 2.805 . S
Gd95 N90 2.622 . S
Gd95 N96 2.570 . S
Gd95 O127 2.386 . S
Gd95 O131 2.307 . S
Gd95 O134 2.353 . S
Gd95 O135 2.468 . S
Gd95 O136 2.427 . S
Gd95 O138 2.388 . S
Gd95 C159 2.805 . S
N96 C86 1.359 . S
N96 Gd95 2.570 . S
N96 C98 1.343 . S
C97 C85 1.422 . S
C97 C99 1.321 . S
C97 H105 0.931 . S
C98 N96 1.343 . S
C98 C99 1.390 . S
C98 H100 0.931 . S
C99 C97 1.321 . S
C99 C98 1.390 . S
C99 H101 0.930 . S
H100 C98 0.931 . S
H101 C99 0.930 . S
H102 C125 0.931 . S
H103 C91 0.929 . S
H104 C126 0.930 . S
H105 C97 0.931 . S
H106 C87 0.930 . S
H107 C116 0.929 . S
H108 C92 0.931 . S
H109 C93 0.930 . S
H110 C148 0.930 . S
H111 C89 0.929 . S
H112 C117 0.931 . S
H113 C118 0.930 . S
N114 Gd94 2.622 . S
N114 C115 1.369 . S
N114 C116 1.338 . S
C115 N114 1.369 . S
C115 C119 1.415 . S
C115 C122 1.422 . S
C116 H107 0.929 . S
C116 N114 1.338 . S
C116 C118 1.378 . S
C117 H112 0.931 . S
C117 C118 1.348 . S
C117 C119 1.413 . S
C118 H113 0.930 . S
C118 C116 1.378 . S
C118 C117 1.348 . S
C119 C115 1.415 . S
C119 C117 1.413 . S
C119 C149 1.437 . S
H120 C149 0.929 . S
N121 Gd94 2.570 . S
N121 C122 1.359 . S
N121 C125 1.343 . S
C122 C115 1.422 . S
C122 N121 1.359 . S
C122 C124 1.421 . S
C123 C124 1.422 . S
C123 C126 1.321 . S
C123 H150 0.931 1_455 S
C124 C122 1.421 . S
C124 C123 1.422 . S
C124 C148 1.417 . S
C125 H102 0.931 . S
C125 N121 1.343 . S
C125 C126 1.390 . S
C126 H104 0.930 . S
C126 C123 1.321 . S
C126 C125 1.390 . S
O127 Gd95 2.386 . S
O127 C139 1.265 . S
O128 Gd94 2.353 . S
O128 C139 1.242 . S
O129 Gd94 2.468 . S
O129 C147 1.263 . S
O130 Gd94 2.427 . S
O130 C147 1.252 . S
O131 Gd95 2.307 . S
O131 C140 1.261 . S
O132 Gd94 2.388 . S
O132 C140 1.252 . S
O133 Gd94 2.386 . S
O133 C151 1.265 . S
O134 Gd95 2.353 . S
O134 C151 1.242 . S
O135 Gd95 2.468 . S
O135 C159 1.263 . S
O136 Gd95 2.427 . S
O136 C159 1.252 . S
O137 Gd94 2.307 . S
O137 C152 1.261 . S
O138 Gd95 2.388 . S
O138 C152 1.252 . S
C139 O127 1.265 . S
C139 O128 1.242 . S
C140 O131 1.261 . S
C140 O132 1.252 . S
C141 C144 1.394 . S
C141 C146 1.370 . S
C141 C147 1.500 . S
C142 C145 1.383 . S
C142 C146 1.395 . S
C143 C144 1.396 . S
C143 C145 1.365 . S
C143 H160 0.929 1_565 S
C144 C141 1.394 . S
C144 C143 1.396 . S
C144 H161 0.930 . S
C145 C142 1.383 . S
C145 C143 1.365 . S
C145 H162 0.931 . S
C146 C141 1.370 . S
C146 C142 1.395 . S
C146 H163 0.930 . S
C147 Gd94 2.805 . S
C147 O129 1.263 . S
C147 O130 1.252 . S
C147 C141 1.500 . S
C148 H110 0.930 . S
C148 C124 1.417 . S
C148 C149 1.329 . S
C149 C119 1.437 . S
C149 H120 0.929 . S
C149 C148 1.329 . S
H150 C123 0.931 1_655 S
C151 O133 1.265 . S
C151 O134 1.242 . S
C152 O137 1.261 . S
C152 O138 1.252 . S
C153 C156 1.394 . S
C153 C158 1.370 . S
C153 C159 1.500 . S
C154 C157 1.383 . S
C154 C158 1.395 . S
C155 C156 1.396 . S
C155 C157 1.365 . S
C155 H164 0.929 . S
C156 C153 1.394 . S
C156 C155 1.396 . S
C156 H165 0.930 . S
C157 C154 1.383 . S
C157 C155 1.365 . S
C157 H166 0.931 . S
C158 C153 1.370 . S
C158 C154 1.395 . S
C158 H167 0.930 . S
C159 Gd95 2.805 . S
C159 O135 1.263 . S
C159 O136 1.252 . S
C159 C153 1.500 . S
H160 C143 0.929 1_545 S
H161 C144 0.930 . S
H162 C145 0.931 . S
H163 C146 0.930 . S
H164 C155 0.929 . S
H165 C156 0.930 . S
H166 C157 0.931 . S
H167 C158 0.930 . S
C168 C170 1.422 . S
C168 C172 1.415 . S
C168 N174 1.369 . S
C169 C170 1.421 . S
C169 C171 1.417 . S
C169 C181 1.422 . S
C170 C168 1.422 . S
C170 C169 1.421 . S
C170 N180 1.359 . S
C171 C169 1.417 . S
C171 C173 1.329 . S
C171 H190 0.930 . S
C172 C168 1.415 . S
C172 C173 1.437 . S
C172 C176 1.413 . S
C173 C171 1.329 . S
C173 C172 1.437 . S
C173 H195 0.929 . S
N174 C168 1.369 . S
N174 C175 1.338 . S
N174 Gd179 2.622 . S
C175 N174 1.338 . S
C175 C177 1.378 . S
C175 H187 0.929 . S
C176 C172 1.413 . S
C176 C177 1.348 . S
C176 H192 0.931 . S
C177 C175 1.378 . S
C177 C176 1.348 . S
C177 H193 0.930 . S
Gd178 N198 2.622 . S
Gd178 N205 2.570 . S
Gd178 O212 2.353 . S
Gd178 O213 2.468 . S
Gd178 O214 2.427 . S
Gd178 O216 2.388 . S
Gd178 O217 2.386 . S
Gd178 O221 2.307 1_565 S
Gd178 C231 2.805 . S
Gd179 N174 2.622 . S
Gd179 N180 2.570 . S
Gd179 O211 2.386 . S
Gd179 O215 2.307 1_545 S
Gd179 O218 2.353 . S
Gd179 O219 2.468 . S
Gd179 O220 2.427 . S
Gd179 O222 2.388 . S
Gd179 C243 2.805 . S
N180 C170 1.359 . S
N180 Gd179 2.570 . S
N180 C182 1.343 . S
C181 C169 1.422 . S
C181 C183 1.321 . S
C181 H189 0.931 . S
C182 N180 1.343 . S
C182 C183 1.390 . S
C182 H184 0.931 1_545 S
C183 C181 1.321 . S
C183 C182 1.390 . S
C183 H185 0.930 1_545 S
H184 C182 0.931 1_565 S
H185 C183 0.930 1_565 S
H186 C209 0.931 1_545 S
H187 C175 0.929 . S
H188 C210 0.930 1_545 S
H189 C181 0.931 . S
H190 C171 0.930 . S
H191 C200 0.929 . S
H192 C176 0.931 . S
H193 C177 0.930 . S
H194 C232 0.930 . S
H195 C173 0.929 . S
H196 C201 0.931 . S
H197 C202 0.930 . S
N198 Gd178 2.622 . S
N198 C199 1.369 . S
N198 C200 1.338 . S
C199 N198 1.369 . S
C199 C203 1.415 . S
C199 C206 1.422 . S
C200 H191 0.929 . S
C200 N198 1.338 . S
C200 C202 1.378 . S
C201 H196 0.931 . S
C201 C202 1.348 . S
C201 C203 1.413 . S
C202 H197 0.930 . S
C202 C200 1.378 . S
C202 C201 1.348 . S
C203 C199 1.415 . S
C203 C201 1.413 . S
C203 C233 1.437 . S
H204 C233 0.929 . S
N205 Gd178 2.570 . S
N205 C206 1.359 . S
N205 C209 1.343 . S
C206 C199 1.422 . S
C206 N205 1.359 . S
C206 C208 1.421 . S
C207 C208 1.422 . S
C207 C210 1.321 . S
C207 H234 0.931 . S
C208 C206 1.421 . S
C208 C207 1.422 . S
C208 C232 1.417 . S
C209 H186 0.931 1_565 S
C209 N205 1.343 . S
C209 C210 1.390 . S
C210 H188 0.930 1_565 S
C210 C207 1.321 . S
C210 C209 1.390 . S
O211 Gd179 2.386 . S
O211 C223 1.265 1_545 S
O212 Gd178 2.353 . S
O212 C223 1.242 . S
O213 Gd178 2.468 . S
O213 C231 1.263 . S
O214 Gd178 2.427 . S
O214 C231 1.252 . S
O215 Gd179 2.307 1_565 S
O215 C224 1.261 . S
O216 Gd178 2.388 . S
O216 C224 1.252 . S
O217 Gd178 2.386 . S
O217 C235 1.265 1_565 S
O218 Gd179 2.353 . S
O218 C235 1.242 . S
O219 Gd179 2.468 . S
O219 C243 1.263 . S
O220 Gd179 2.427 . S
O220 C243 1.252 . S
O221 Gd178 2.307 1_545 S
O221 C236 1.261 . S
O222 Gd179 2.388 . S
O222 C236 1.252 . S
C223 O211 1.265 1_565 S
C223 O212 1.242 . S
C224 O215 1.261 . S
C224 O216 1.252 . S
C225 C228 1.394 . S
C225 C230 1.370 . S
C225 C231 1.500 . S
C226 C229 1.383 . S
C226 C230 1.395 . S
C227 C228 1.396 . S
C227 C229 1.365 . S
C227 H244 0.929 . S
C228 C225 1.394 . S
C228 C227 1.396 . S
C228 H245 0.930 . S
C229 C226 1.383 . S
C229 C227 1.365 . S
C229 H246 0.931 . S
C230 C225 1.370 . S
C230 C226 1.395 . S
C230 H247 0.930 . S
C231 Gd178 2.805 . S
C231 O213 1.263 . S
C231 O214 1.252 . S
C231 C225 1.500 . S
C232 H194 0.930 . S
C232 C208 1.417 . S
C232 C233 1.329 . S
C233 C203 1.437 . S
C233 H204 0.929 . S
C233 C232 1.329 . S
H234 C207 0.931 . S
C235 O217 1.265 1_545 S
C235 O218 1.242 . S
C236 O221 1.261 . S
C236 O222 1.252 . S
C237 C240 1.394 . S
C237 C242 1.370 . S
C237 C243 1.500 . S
C238 C241 1.383 . S
C238 C242 1.395 . S
C239 C240 1.396 . S
C239 C241 1.365 . S
C239 H248 0.929 . S
C240 C237 1.394 . S
C240 C239 1.396 . S
C240 H249 0.930 . S
C241 C238 1.383 . S
C241 C239 1.365 . S
C241 H250 0.931 . S
C242 C237 1.370 . S
C242 C238 1.395 . S
C242 H251 0.930 . S
C243 Gd179 2.805 . S
C243 O219 1.263 . S
C243 O220 1.252 . S
C243 C237 1.500 . S
H244 C227 0.929 . S
H245 C228 0.930 . S
H246 C229 0.931 . S
H247 C230 0.930 . S
H248 C239 0.929 . S
H249 C240 0.930 . S
H250 C241 0.931 . S
H251 C242 0.930 . S
C252 C254 1.422 . S
C252 C256 1.415 . S
C252 N258 1.369 . S
C253 C254 1.421 . S
C253 C255 1.417 . S
C253 C265 1.422 . S
C254 C252 1.422 . S
C254 C253 1.421 . S
C254 N264 1.359 . S
C255 C253 1.417 . S
C255 C257 1.329 . S
C255 H274 0.930 . S
C256 C252 1.415 . S
C256 C257 1.437 . S
C256 C260 1.413 . S
C257 C255 1.329 . S
C257 C256 1.437 . S
C257 H279 0.929 . S
N258 C252 1.369 . S
N258 C259 1.338 . S
N258 Gd263 2.622 . S
C259 N258 1.338 . S
C259 C261 1.378 . S
C259 H271 0.929 . S
C260 C256 1.413 . S
C260 C261 1.348 . S
C260 H276 0.931 . S
C261 C259 1.378 . S
C261 C260 1.348 . S
C261 H277 0.930 . S
Gd262 N282 2.622 . S
Gd262 N289 2.570 . S
Gd262 O296 2.353 . S
Gd262 O297 2.468 . S
Gd262 O298 2.427 . S
Gd262 O300 2.388 . S
Gd262 O301 2.386 . S
Gd262 O305 2.307 . S
Gd262 C315 2.805 . S
Gd263 N258 2.622 . S
Gd263 N264 2.570 . S
Gd263 O295 2.386 . S
Gd263 O299 2.307 . S
Gd263 O302 2.353 . S
Gd263 O303 2.468 . S
Gd263 O304 2.427 . S
Gd263 O306 2.388 . S
Gd263 C327 2.805 . S
N264 C254 1.359 . S
N264 Gd263 2.570 . S
N264 C266 1.343 . S
C265 C253 1.422 . S
C265 C267 1.321 . S
C265 H273 0.931 . S
C266 N264 1.343 . S
C266 C267 1.390 . S
C266 H268 0.931 . S
C267 C265 1.321 . S
C267 C266 1.390 . S
C267 H269 0.930 . S
H268 C266 0.931 . S
H269 C267 0.930 . S
H270 C293 0.931 . S
H271 C259 0.929 . S
H272 C294 0.930 . S
H273 C265 0.931 . S
H274 C255 0.930 . S
H275 C284 0.929 . S
H276 C260 0.931 . S
H277 C261 0.930 . S
H278 C316 0.930 . S
H279 C257 0.929 . S
H280 C285 0.931 . S
H281 C286 0.930 . S
N282 Gd262 2.622 . S
N282 C283 1.369 . S
N282 C284 1.338 . S
C283 N282 1.369 . S
C283 C287 1.415 . S
C283 C290 1.422 . S
C284 H275 0.929 . S
C284 N282 1.338 . S
C284 C286 1.378 . S
C285 H280 0.931 . S
C285 C286 1.348 . S
C285 C287 1.413 . S
C286 H281 0.930 . S
C286 C284 1.378 . S
C286 C285 1.348 . S
C287 C283 1.415 . S
C287 C285 1.413 . S
C287 C317 1.437 . S
H288 C317 0.929 . S
N289 Gd262 2.570 . S
N289 C290 1.359 . S
N289 C293 1.343 . S
C290 C283 1.422 . S
C290 N289 1.359 . S
C290 C292 1.421 . S
C291 C292 1.422 . S
C291 C294 1.321 . S
C291 H318 0.931 . S
C292 C290 1.421 . S
C292 C291 1.422 . S
C292 C316 1.417 . S
C293 H270 0.931 . S
C293 N289 1.343 . S
C293 C294 1.390 . S
C294 H272 0.930 . S
C294 C291 1.321 . S
C294 C293 1.390 . S
O295 Gd263 2.386 . S
O295 C307 1.265 . S
O296 Gd262 2.353 . S
O296 C307 1.242 . S
O297 Gd262 2.468 . S
O297 C315 1.263 . S
O298 Gd262 2.427 . S
O298 C315 1.252 . S
O299 Gd263 2.307 . S
O299 C308 1.261 . S
O300 Gd262 2.388 . S
O300 C308 1.252 . S
O301 Gd262 2.386 . S
O301 C319 1.265 . S
O302 Gd263 2.353 . S
O302 C319 1.242 . S
O303 Gd263 2.468 . S
O303 C327 1.263 . S
O304 Gd263 2.427 . S
O304 C327 1.252 . S
O305 Gd262 2.307 . S
O305 C320 1.261 . S
O306 Gd263 2.388 . S
O306 C320 1.252 . S
C307 O295 1.265 . S
C307 O296 1.242 . S
C308 O299 1.261 . S
C308 O300 1.252 . S
C309 C312 1.394 . S
C309 C314 1.370 . S
C309 C315 1.500 . S
C310 C313 1.383 . S
C310 C314 1.395 . S
C311 C312 1.396 . S
C311 C313 1.365 . S
C311 H328 0.929 . S
C312 C309 1.394 . S
C312 C311 1.396 . S
C312 H329 0.930 . S
C313 C310 1.383 . S
C313 C311 1.365 . S
C313 H330 0.931 . S
C314 C309 1.370 . S
C314 C310 1.395 . S
C314 H331 0.930 . S
C315 Gd262 2.805 . S
C315 O297 1.263 . S
C315 O298 1.252 . S
C315 C309 1.500 . S
C316 H278 0.930 . S
C316 C292 1.417 . S
C316 C317 1.329 . S
C317 C287 1.437 . S
C317 H288 0.929 . S
C317 C316 1.329 . S
H318 C291 0.931 . S
C319 O301 1.265 . S
C319 O302 1.242 . S
C320 O305 1.261 . S
C320 O306 1.252 . S
C321 C324 1.394 . S
C321 C326 1.370 . S
C321 C327 1.500 . S
C322 C325 1.383 . S
C322 C326 1.395 . S
C323 C324 1.396 . S
C323 C325 1.365 . S
C323 H332 0.929 . S
C324 C321 1.394 . S
C324 C323 1.396 . S
C324 H333 0.930 . S
C325 C322 1.383 . S
C325 C323 1.365 . S
C325 H334 0.931 . S
C326 C321 1.370 . S
C326 C322 1.395 . S
C326 H335 0.930 . S
C327 Gd263 2.805 . S
C327 O303 1.263 . S
C327 O304 1.252 . S
C327 C321 1.500 . S
H328 C311 0.929 . S
H329 C312 0.930 . S
H330 C313 0.931 . S
H331 C314 0.930 . S
H332 C323 0.929 . S
H333 C324 0.930 . S
H334 C325 0.931 . S
H335 C326 0.930 . S
C336 C338 1.422 1_565 S
C336 C340 1.415 . S
C336 N342 1.369 . S
C337 C338 1.421 . S
C337 C339 1.417 . S
C337 C349 1.422 . S
C338 C336 1.422 1_545 S
C338 C337 1.421 . S
C338 N348 1.359 . S
C339 C337 1.417 . S
C339 C341 1.329 . S
C339 H358 0.930 . S
C340 C336 1.415 . S
C340 C341 1.437 1_565 S
C340 C344 1.413 . S
C341 C339 1.329 . S
C341 C340 1.437 1_545 S
C341 H363 0.929 1_545 S
N342 C336 1.369 . S
N342 C343 1.338 . S
N342 Gd347 2.622 . S
C343 N342 1.338 . S
C343 C345 1.378 . S
C343 H355 0.929 . S
C344 C340 1.413 . S
C344 C345 1.348 . S
C344 H360 0.931 . S
C345 C343 1.378 . S
C345 C344 1.348 . S
C345 H361 0.930 . S
Gd346 N366 2.622 . S
Gd346 N373 2.570 . S
Gd346 O380 2.353 1_655 S
Gd346 O381 2.468 . S
Gd346 O382 2.427 . S
Gd346 O384 2.388 1_655 S
Gd346 O385 2.386 . S
Gd346 O389 2.307 1_545 S
Gd346 C399 2.805 . S
Gd347 N342 2.622 . S
Gd347 N348 2.570 1_565 S
Gd347 O379 2.386 1_565 S
Gd347 O383 2.307 1_565 S
Gd347 O386 2.353 1_455 S
Gd347 O387 2.468 . S
Gd347 O388 2.427 . S
Gd347 O390 2.388 1_455 S
Gd347 C411 2.805 . S
N348 C338 1.359 . S
N348 Gd347 2.570 1_545 S
N348 C350 1.343 . S
C349 C337 1.422 . S
C349 C351 1.321 . S
C349 H357 0.931 . S
C350 N348 1.343 . S
C350 C351 1.390 . S
C350 H352 0.931 . S
C351 C349 1.321 . S
C351 C350 1.390 . S
C351 H353 0.930 . S
H352 C350 0.931 . S
H353 C351 0.930 . S
H354 C377 0.931 . S
H355 C343 0.929 . S
H356 C378 0.930 . S
H357 C349 0.931 . S
H358 C339 0.930 . S
H359 C368 0.929 1_455 S
H360 C344 0.931 . S
H361 C345 0.930 . S
H362 C400 0.930 . S
H363 C341 0.929 1_565 S
H364 C369 0.931 . S
H365 C370 0.930 1_455 S
N366 Gd346 2.622 . S
N366 C367 1.369 . S
N366 C368 1.338 . S
C367 N366 1.369 . S
C367 C371 1.415 . S
C367 C374 1.422 . S
C368 H359 0.929 1_655 S
C368 N366 1.338 . S
C368 C370 1.378 . S
C369 H364 0.931 . S
C369 C370 1.348 . S
C369 C371 1.413 . S
C370 H365 0.930 1_655 S
C370 C368 1.378 . S
C370 C369 1.348 . S
C371 C367 1.415 . S
C371 C369 1.413 . S
C371 C401 1.437 . S
H372 C401 0.929 . S
N373 Gd346 2.570 . S
N373 C374 1.359 . S
N373 C377 1.343 1_545 S
C374 C367 1.422 . S
C374 N373 1.359 . S
C374 C376 1.421 . S
C375 C376 1.422 1_565 S
C375 C378 1.321 . S
C375 H402 0.931 . S
C376 C374 1.421 . S
C376 C375 1.422 1_545 S
C376 C400 1.417 . S
C377 H354 0.931 . S
C377 N373 1.343 1_565 S
C377 C378 1.390 . S
C378 H356 0.930 . S
C378 C375 1.321 . S
C378 C377 1.390 . S
O379 Gd347 2.386 1_545 S
O379 C391 1.265 . S
O380 Gd346 2.353 1_455 S
O380 C391 1.242 . S
O381 Gd346 2.468 . S
O381 C399 1.263 . S
O382 Gd346 2.427 . S
O382 C399 1.252 . S
O383 Gd347 2.307 1_545 S
O383 C392 1.261 . S
O384 Gd346 2.388 1_455 S
O384 C392 1.252 . S
O385 Gd346 2.386 . S
O385 C403 1.265 1_545 S
O386 Gd347 2.353 1_655 S
O386 C403 1.242 . S
O387 Gd347 2.468 . S
O387 C411 1.263 . S
O388 Gd347 2.427 . S
O388 C411 1.252 . S
O389 Gd346 2.307 1_565 S
O389 C404 1.261 . S
O390 Gd347 2.388 1_655 S
O390 C404 1.252 . S
C391 O379 1.265 . S
C391 O380 1.242 . S
C392 O383 1.261 . S
C392 O384 1.252 . S
C393 C396 1.394 . S
C393 C398 1.370 . S
C393 C399 1.500 . S
C394 C397 1.383 . S
C394 C398 1.395 . S
C395 C396 1.396 . S
C395 C397 1.365 . S
C395 H412 0.929 . S
C396 C393 1.394 . S
C396 C395 1.396 . S
C396 H413 0.931 1_655 S
C397 C394 1.383 . S
C397 C395 1.365 . S
C397 H414 0.931 . S
C398 C393 1.370 . S
C398 C394 1.395 . S
C398 H415 0.930 . S
C399 Gd346 2.805 . S
C399 O381 1.263 . S
C399 O382 1.252 . S
C399 C393 1.500 . S
C400 H362 0.930 . S
C400 C376 1.417 . S
C400 C401 1.329 . S
C401 C371 1.437 . S
C401 H372 0.929 . S
C401 C400 1.329 . S
H402 C375 0.931 . S
C403 O385 1.265 1_565 S
C403 O386 1.242 . S
C404 O389 1.261 . S
C404 O390 1.252 . S
C405 C408 1.394 . S
C405 C410 1.370 . S
C405 C411 1.500 . S
C406 C409 1.383 . S
C406 C410 1.395 . S
C407 C408 1.396 . S
C407 C409 1.365 . S
C407 H416 0.929 . S
C408 C405 1.394 . S
C408 C407 1.396 . S
C408 H417 0.930 . S
C409 C406 1.383 . S
C409 C407 1.365 . S
C409 H418 0.931 . S
C410 C405 1.370 . S
C410 C406 1.395 . S
C410 H419 0.930 . S
C411 Gd347 2.805 . S
C411 O387 1.263 . S
C411 O388 1.252 . S
C411 C405 1.500 . S
H412 C395 0.929 . S
H413 C396 0.931 1_455 S
H414 C397 0.931 . S
H415 C398 0.930 . S
H416 C407 0.929 . S
H417 C408 0.930 . S
H418 C409 0.931 . S
H419 C410 0.930 . S
C420 C422 1.422 . S
C420 C424 1.415 . S
C420 N426 1.369 . S
C421 C422 1.421 . S
C421 C423 1.417 . S
C421 C433 1.422 . S
C422 C420 1.422 . S
C422 C421 1.421 . S
C422 N432 1.359 . S
C423 C421 1.417 . S
C423 C425 1.329 . S
C423 H442 0.930 . S
C424 C420 1.415 . S
C424 C425 1.437 . S
C424 C428 1.413 1_565 S
C425 C423 1.329 . S
C425 C424 1.437 . S
C425 H447 0.929 . S
N426 C420 1.369 . S
N426 C427 1.338 . S
N426 Gd431 2.622 . S
C427 N426 1.338 . S
C427 C429 1.378 1_565 S
C427 H439 0.929 . S
C428 C424 1.413 1_545 S
C428 C429 1.348 . S
C428 H444 0.931 . S
C429 C427 1.378 1_545 S
C429 C428 1.348 . S
C429 H445 0.930 . S
Gd430 N450 2.622 . S
Gd430 N457 2.570 . S
Gd430 O464 2.353 . S
Gd430 O465 2.468 . S
Gd430 O466 2.427 . S
Gd430 O468 2.388 . S
Gd430 O469 2.386 . S
Gd430 O473 2.307 . S
Gd430 C483 2.805 . S
Gd431 N426 2.622 . S
Gd431 N432 2.570 . S
Gd431 O463 2.386 . S
Gd431 O467 2.307 . S
Gd431 O470 2.353 . S
Gd431 O471 2.468 . S
Gd431 O472 2.427 . S
Gd431 O474 2.388 . S
Gd431 C495 2.805 . S
N432 C422 1.359 . S
N432 Gd431 2.570 . S
N432 C434 1.343 . S
C433 C421 1.422 . S
C433 C435 1.321 . S
C433 H441 0.931 . S
C434 N432 1.343 . S
C434 C435 1.390 . S
C434 H436 0.931 . S
C435 C433 1.321 . S
C435 C434 1.390 . S
C435 H437 0.930 . S
H436 C434 0.931 . S
H437 C435 0.930 . S
H438 C461 0.931 . S
H439 C427 0.929 . S
H440 C462 0.930 . S
H441 C433 0.931 . S
H442 C423 0.930 . S
H443 C452 0.929 . S
H444 C428 0.931 . S
H445 C429 0.930 . S
H446 C484 0.930 . S
H447 C425 0.929 . S
H448 C453 0.931 1_655 S
H449 C454 0.930 . S
N450 Gd430 2.622 . S
N450 C451 1.369 . S
N450 C452 1.338 . S
C451 N450 1.369 . S
C451 C455 1.415 . S
C451 C458 1.422 . S
C452 H443 0.929 . S
C452 N450 1.338 . S
C452 C454 1.378 . S
C453 H448 0.931 1_455 S
C453 C454 1.348 . S
C453 C455 1.413 . S
C454 H449 0.930 . S
C454 C452 1.378 . S
C454 C453 1.348 . S
C455 C451 1.415 . S
C455 C453 1.413 . S
C455 C485 1.437 . S
H456 C485 0.929 1_655 S
N457 Gd430 2.570 . S
N457 C458 1.359 . S
N457 C461 1.343 . S
C458 C451 1.422 . S
C458 N457 1.359 . S
C458 C460 1.421 . S
C459 C460 1.422 . S
C459 C462 1.321 . S
C459 H486 0.931 . S
C460 C458 1.421 . S
C460 C459 1.422 . S
C460 C484 1.417 . S
C461 H438 0.931 . S
C461 N457 1.343 . S
C461 C462 1.390 . S
C462 H440 0.930 . S
C462 C459 1.321 . S
C462 C461 1.390 . S
O463 Gd431 2.386 . S
O463 C475 1.265 . S
O464 Gd430 2.353 . S
O464 C475 1.242 . S
O465 Gd430 2.468 . S
O465 C483 1.263 . S
O466 Gd430 2.427 . S
O466 C483 1.252 . S
O467 Gd431 2.307 . S
O467 C476 1.261 . S
O468 Gd430 2.388 . S
O468 C476 1.252 . S
O469 Gd430 2.386 . S
O469 C487 1.265 . S
O470 Gd431 2.353 . S
O470 C487 1.242 . S
O471 Gd431 2.468 . S
O471 C495 1.263 . S
O472 Gd431 2.427 . S
O472 C495 1.252 . S
O473 Gd430 2.307 . S
O473 C488 1.261 . S
O474 Gd431 2.388 . S
O474 C488 1.252 . S
C475 O463 1.265 . S
C475 O464 1.242 . S
C476 O467 1.261 . S
C476 O468 1.252 . S
C477 C480 1.394 . S
C477 C482 1.370 . S
C477 C483 1.500 . S
C478 C481 1.383 . S
C478 C482 1.395 . S
C479 C480 1.396 . S
C479 C481 1.365 . S
C479 H496 0.929 . S
C480 C477 1.394 . S
C480 C479 1.396 . S
C480 H497 0.930 . S
C481 C478 1.383 . S
C481 C479 1.365 . S
C481 H498 0.931 . S
C482 C477 1.370 . S
C482 C478 1.395 . S
C482 H499 0.930 . S
C483 Gd430 2.805 . S
C483 O465 1.263 . S
C483 O466 1.252 . S
C483 C477 1.500 . S
C484 H446 0.930 . S
C484 C460 1.417 . S
C484 C485 1.329 . S
C485 C455 1.437 . S
C485 H456 0.929 1_455 S
C485 C484 1.329 . S
H486 C459 0.931 . S
C487 O469 1.265 . S
C487 O470 1.242 . S
C488 O473 1.261 . S
C488 O474 1.252 . S
C489 C492 1.395 . S
C489 C494 1.370 . S
C489 C495 1.500 . S
C490 C493 1.383 1_565 S
C490 C494 1.395 . S
C491 C492 1.394 1_545 S
C491 C493 1.365 . S
C491 H500 0.929 . S
C492 C489 1.395 . S
C492 C491 1.394 1_565 S
C492 H501 0.930 1_565 S
C493 C490 1.383 1_545 S
C493 C491 1.365 . S
C493 H502 0.931 . S
C494 C489 1.370 . S
C494 C490 1.395 . S
C494 H503 0.930 . S
C495 Gd431 2.805 . S
C495 O471 1.263 . S
C495 O472 1.252 . S
C495 C489 1.500 . S
H496 C479 0.929 . S
H497 C480 0.930 . S
H498 C481 0.931 . S
H499 C482 0.930 . S
H500 C491 0.929 . S
H501 C492 0.930 1_545 S
H502 C493 0.931 . S
H503 C494 0.930 . S
C504 C506 1.422 . S
C504 C508 1.415 . S
C504 N510 1.369 1_565 S
C505 C506 1.421 . S
C505 C507 1.417 . S
C505 C517 1.422 . S
C506 C504 1.422 . S
C506 C505 1.421 . S
C506 N516 1.359 . S
C507 C505 1.417 . S
C507 C509 1.329 . S
C507 H526 0.930 . S
C508 C504 1.415 . S
C508 C509 1.437 . S
C508 C512 1.413 . S
C509 C507 1.329 . S
C509 C508 1.437 . S
C509 H531 0.929 . S
N510 C504 1.369 1_545 S
N510 C511 1.338 . S
N510 Gd515 2.622 . S
C511 N510 1.338 . S
C511 C513 1.378 . S
C511 H523 0.929 . S
C512 C508 1.413 . S
C512 C513 1.348 1_565 S
C512 H528 0.931 . S
C513 C511 1.378 . S
C513 C512 1.348 1_545 S
C513 H529 0.930 . S
Gd514 N534 2.622 . S
Gd514 N541 2.570 . S
Gd514 O548 2.353 . S
Gd514 O549 2.468 . S
Gd514 O550 2.427 . S
Gd514 O552 2.388 . S
Gd514 O553 2.386 . S
Gd514 O557 2.307 . S
Gd514 C567 2.805 . S
Gd515 N510 2.622 . S
Gd515 N516 2.570 1_545 S
Gd515 O547 2.386 . S
Gd515 O551 2.307 . S
Gd515 O554 2.353 . S
Gd515 O555 2.468 1_545 S
Gd515 O556 2.427 . S
Gd515 O558 2.388 . S
Gd515 C579 2.805 . S
N516 C506 1.359 . S
N516 Gd515 2.570 1_565 S
N516 C518 1.343 . S
C517 C505 1.422 . S
C517 C519 1.321 . S
C517 H525 0.931 . S
C518 N516 1.343 . S
C518 C519 1.390 . S
C518 H520 0.931 . S
C519 C517 1.321 . S
C519 C518 1.390 . S
C519 H521 0.930 . S
H520 C518 0.931 . S
H521 C519 0.930 . S
H522 C545 0.931 . S
H523 C511 0.929 . S
H524 C546 0.930 . S
H525 C517 0.931 . S
H526 C507 0.930 . S
H527 C536 0.929 . S
H528 C512 0.931 . S
H529 C513 0.930 . S
H530 C568 0.930 1_556 S
H531 C509 0.929 . S
H532 C537 0.931 . S
H533 C538 0.930 . S
N534 Gd514 2.622 . S
N534 C535 1.369 . S
N534 C536 1.338 . S
C535 N534 1.369 . S
C535 C539 1.415 1_554 S
C535 C542 1.422 . S
C536 H527 0.929 . S
C536 N534 1.338 . S
C536 C538 1.378 1_554 S
C537 H532 0.931 . S
C537 C538 1.348 . S
C537 C539 1.413 . S
C538 H533 0.930 . S
C538 C536 1.378 1_556 S
C538 C537 1.348 . S
C539 C535 1.415 1_556 S
C539 C537 1.413 . S
C539 C569 1.437 . S
H540 C569 0.929 . S
N541 Gd514 2.570 . S
N541 C542 1.359 . S
N541 C545 1.343 . S
C542 C535 1.422 . S
C542 N541 1.359 . S
C542 C544 1.421 . S
C543 C544 1.422 . S
C543 C546 1.321 . S
C543 H570 0.931 . S
C544 C542 1.421 . S
C544 C543 1.422 . S
C544 C568 1.417 . S
C545 H522 0.931 . S
C545 N541 1.343 . S
C545 C546 1.390 . S
C546 H524 0.930 . S
C546 C543 1.321 . S
C546 C545 1.390 . S
O547 Gd515 2.386 . S
O547 C559 1.265 . S
O548 Gd514 2.353 . S
O548 C559 1.242 . S
O549 Gd514 2.468 . S
O549 C567 1.263 . S
O550 Gd514 2.427 . S
O550 C567 1.252 . S
O551 Gd515 2.307 . S
O551 C560 1.261 . S
O552 Gd514 2.388 . S
O552 C560 1.252 . S
O553 Gd514 2.386 . S
O553 C571 1.265 . S
O554 Gd515 2.353 . S
O554 C571 1.242 . S
O555 Gd515 2.468 1_565 S
O555 C579 1.263 1_565 S
O556 Gd515 2.427 . S
O556 C579 1.252 . S
O557 Gd514 2.307 . S
O557 C572 1.261 . S
O558 Gd515 2.388 . S
O558 C572 1.252 . S
C559 O547 1.265 . S
C559 O548 1.242 . S
C560 O551 1.261 . S
C560 O552 1.252 . S
C561 C564 1.394 . S
C561 C566 1.370 . S
C561 C567 1.500 . S
C562 C565 1.383 . S
C562 C566 1.395 . S
C563 C564 1.396 . S
C563 C565 1.365 . S
C563 H580 0.929 . S
C564 C561 1.394 . S
C564 C563 1.396 . S
C564 H581 0.930 . S
C565 C562 1.383 . S
C565 C563 1.365 . S
C565 H582 0.931 . S
C566 C561 1.370 . S
C566 C562 1.395 . S
C566 H583 0.930 . S
C567 Gd514 2.805 . S
C567 O549 1.263 . S
C567 O550 1.252 . S
C567 C561 1.500 . S
C568 H530 0.930 1_554 S
C568 C544 1.417 . S
C568 C569 1.329 1_554 S
C569 C539 1.437 . S
C569 H540 0.929 . S
C569 C568 1.329 1_556 S
H570 C543 0.931 . S
C571 O553 1.265 . S
C571 O554 1.242 . S
C572 O557 1.261 . S
C572 O558 1.252 . S
C573 C576 1.388 . S
C573 C578 1.366 1_545 S
C573 C579 1.510 1_556 S
C574 C577 1.383 . S
C574 C578 1.395 . S
C575 C576 1.396 . S
C575 C577 1.365 1_545 S
C575 H584 0.929 . S
C576 C573 1.388 . S
C576 C575 1.396 . S
C576 H585 0.930 1_556 S
C577 C574 1.383 . S
C577 C575 1.365 1_565 S
C577 H586 0.931 . S
C578 C573 1.366 1_565 S
C578 C574 1.395 . S
C578 H587 0.930 . S
C579 Gd515 2.805 . S
C579 O555 1.263 1_545 S
C579 O556 1.252 . S
C579 C573 1.510 1_554 S
H580 C563 0.929 . S
H581 C564 0.930 . S
H582 C565 0.931 . S
H583 C566 0.930 . S
H584 C575 0.929 . S
H585 C576 0.930 1_554 S
H586 C577 0.931 . S
H587 C578 0.930 . S
C588 C590 1.422 . S
C588 C592 1.415 . S
C588 N594 1.369 . S
C589 C590 1.421 . S
C589 C591 1.417 . S
C589 C601 1.422 . S
C590 C588 1.422 . S
C590 C589 1.421 . S
C590 N600 1.359 . S
C591 C589 1.417 . S
C591 C593 1.329 . S
C591 H610 0.930 . S
C592 C588 1.415 . S
C592 C593 1.437 . S
C592 C596 1.413 . S
C593 C591 1.329 . S
C593 C592 1.437 . S
C593 H615 0.929 . S
N594 C588 1.369 . S
N594 C595 1.338 . S
N594 Gd599 2.622 . S
C595 N594 1.338 . S
C595 C597 1.378 . S
C595 H607 0.929 . S
C596 C592 1.413 . S
C596 C597 1.348 . S
C596 H612 0.931 . S
C597 C595 1.378 . S
C597 C596 1.348 . S
C597 H613 0.930 . S
Gd598 N618 2.622 . S
Gd598 N625 2.570 . S
Gd598 O632 2.353 . S
Gd598 O633 2.468 . S
Gd598 O634 2.427 . S
Gd598 O636 2.388 . S
Gd598 O637 2.386 . S
Gd598 O641 2.307 . S
Gd598 C651 2.805 . S
Gd599 N594 2.622 . S
Gd599 N600 2.570 . S
Gd599 O631 2.386 . S
Gd599 O635 2.307 . S
Gd599 O638 2.353 . S
Gd599 O639 2.468 . S
Gd599 O640 2.427 . S
Gd599 O642 2.388 . S
Gd599 C663 2.805 . S
N600 C590 1.359 . S
N600 Gd599 2.570 . S
N600 C602 1.343 . S
C601 C589 1.422 . S
C601 C603 1.321 . S
C601 H609 0.931 . S
C602 N600 1.343 . S
C602 C603 1.390 . S
C602 H604 0.931 . S
C603 C601 1.321 . S
C603 C602 1.390 . S
C603 H605 0.930 . S
H604 C602 0.931 . S
H605 C603 0.930 . S
H606 C629 0.931 . S
H607 C595 0.929 . S
H608 C630 0.930 . S
H609 C601 0.931 . S
H610 C591 0.930 . S
H611 C620 0.929 . S
H612 C596 0.931 . S
H613 C597 0.930 . S
H614 C652 0.930 . S
H615 C593 0.929 . S
H616 C621 0.931 . S
H617 C622 0.930 . S
N618 Gd598 2.622 . S
N618 C619 1.369 . S
N618 C620 1.338 . S
C619 N618 1.369 . S
C619 C623 1.415 . S
C619 C626 1.422 . S
C620 H611 0.929 . S
C620 N618 1.338 . S
C620 C622 1.378 . S
C621 H616 0.931 . S
C621 C622 1.348 . S
C621 C623 1.413 . S
C622 H617 0.930 . S
C622 C620 1.378 . S
C622 C621 1.348 . S
C623 C619 1.415 . S
C623 C621 1.413 . S
C623 C653 1.437 . S
H624 C653 0.929 . S
N625 Gd598 2.570 . S
N625 C626 1.359 . S
N625 C629 1.343 . S
C626 C619 1.422 . S
C626 N625 1.359 . S
C626 C628 1.421 . S
C627 C628 1.422 . S
C627 C630 1.321 . S
C627 H654 0.931 . S
C628 C626 1.421 . S
C628 C627 1.422 . S
C628 C652 1.417 . S
C629 H606 0.931 . S
C629 N625 1.343 . S
C629 C630 1.390 . S
C630 H608 0.930 . S
C630 C627 1.321 . S
C630 C629 1.390 . S
O631 Gd599 2.386 . S
O631 C643 1.265 . S
O632 Gd598 2.353 . S
O632 C643 1.242 . S
O633 Gd598 2.468 . S
O633 C651 1.263 . S
O634 Gd598 2.427 . S
O634 C651 1.252 . S
O635 Gd599 2.307 . S
O635 C644 1.261 . S
O636 Gd598 2.388 . S
O636 C644 1.252 . S
O637 Gd598 2.386 . S
O637 C655 1.265 . S
O638 Gd599 2.353 . S
O638 C655 1.242 . S
O639 Gd599 2.468 . S
O639 C663 1.263 . S
O640 Gd599 2.427 . S
O640 C663 1.252 . S
O641 Gd598 2.307 . S
O641 C656 1.261 . S
O642 Gd599 2.388 . S
O642 C656 1.252 . S
C643 O631 1.265 . S
C643 O632 1.242 . S
C644 O635 1.261 . S
C644 O636 1.252 . S
C645 C648 1.394 . S
C645 C650 1.370 . S
C645 C651 1.500 . S
C646 C649 1.383 . S
C646 C650 1.395 . S
C647 C648 1.396 . S
C647 C649 1.365 . S
C647 H664 0.929 . S
C648 C645 1.394 . S
C648 C647 1.396 . S
C648 H665 0.930 . S
C649 C646 1.383 . S
C649 C647 1.365 . S
C649 H666 0.931 . S
C650 C645 1.370 . S
C650 C646 1.395 . S
C650 H667 0.930 . S
C651 Gd598 2.805 . S
C651 O633 1.263 . S
C651 O634 1.252 . S
C651 C645 1.500 . S
C652 H614 0.930 . S
C652 C628 1.417 . S
C652 C653 1.329 . S
C653 C623 1.437 . S
C653 H624 0.929 . S
C653 C652 1.329 . S
H654 C627 0.931 . S
C655 O637 1.265 . S
C655 O638 1.242 . S
C656 O641 1.261 . S
C656 O642 1.252 . S
C657 C660 1.394 . S
C657 C662 1.370 . S
C657 C663 1.500 . S
C658 C661 1.383 . S
C658 C662 1.395 . S
C659 C660 1.396 . S
C659 C661 1.365 . S
C659 H668 0.929 . S
C660 C657 1.394 . S
C660 C659 1.396 . S
C660 H669 0.930 . S
C661 C658 1.383 . S
C661 C659 1.365 . S
C661 H670 0.931 . S
C662 C657 1.370 . S
C662 C658 1.395 . S
C662 H671 0.930 . S
C663 Gd599 2.805 . S
C663 O639 1.263 . S
C663 O640 1.252 . S
C663 C657 1.500 . S
H664 C647 0.929 . S
H665 C648 0.930 . S
H666 C649 0.931 . S
H667 C650 0.930 . S
H668 C659 0.929 . S
H669 C660 0.930 . S
H670 C661 0.931 . S
H671 C662 0.930 . S
C672 C674 1.422 . S
C672 C676 1.415 . S
C672 N678 1.369 . S
C673 C674 1.421 . S
C673 C675 1.417 . S
C673 C685 1.422 . S
C674 C672 1.422 . S
C674 C673 1.421 . S
C674 N684 1.359 1_556 S
C675 C673 1.417 . S
C675 C677 1.329 . S
C675 H694 0.930 . S
C676 C672 1.415 . S
C676 C677 1.437 . S
C676 C680 1.413 . S
C677 C675 1.329 . S
C677 C676 1.437 . S
C677 H699 0.929 . S
N678 C672 1.369 . S
N678 C679 1.338 . S
N678 Gd683 2.622 1_556 S
C679 N678 1.338 . S
C679 C681 1.378 . S
C679 H691 0.929 . S
C680 C676 1.413 . S
C680 C681 1.348 . S
C680 H696 0.931 . S
C681 C679 1.378 . S
C681 C680 1.348 . S
C681 H697 0.930 . S
Gd682 N702 2.622 . S
Gd682 N709 2.570 . S
Gd682 O716 2.353 . S
Gd682 O717 2.468 . S
Gd682 O718 2.427 . S
Gd682 O720 2.388 . S
Gd682 O721 2.386 . S
Gd682 O725 2.307 . S
Gd682 C735 2.805 . S
Gd683 N678 2.622 1_554 S
Gd683 N684 2.570 . S
Gd683 O715 2.386 1_554 S
Gd683 O719 2.307 . S
Gd683 O722 2.353 . S
Gd683 O723 2.468 . S
Gd683 O724 2.427 . S
Gd683 O726 2.388 1_554 S
Gd683 C747 2.805 . S
N684 C674 1.359 1_554 S
N684 Gd683 2.570 . S
N684 C686 1.343 . S
C685 C673 1.422 . S
C685 C687 1.321 1_556 S
C685 H693 0.931 . S
C686 N684 1.343 . S
C686 C687 1.390 . S
C686 H688 0.931 . S
C687 C685 1.321 1_554 S
C687 C686 1.390 . S
C687 H689 0.930 . S
H688 C686 0.931 . S
H689 C687 0.930 . S
H690 C713 0.931 . S
H691 C679 0.929 . S
H692 C714 0.930 . S
H693 C685 0.931 . S
H694 C675 0.930 . S
H695 C704 0.929 . S
H696 C680 0.931 . S
H697 C681 0.930 . S
H698 C736 0.930 . S
H699 C677 0.929 . S
H700 C705 0.931 . S
H701 C706 0.930 . S
N702 Gd682 2.622 . S
N702 C703 1.369 . S
N702 C704 1.338 . S
C703 N702 1.369 . S
C703 C707 1.415 . S
C703 C710 1.422 . S
C704 H695 0.929 . S
C704 N702 1.338 . S
C704 C706 1.378 . S
C705 H700 0.931 . S
C705 C706 1.348 . S
C705 C707 1.413 . S
C706 H701 0.930 . S
C706 C704 1.378 . S
C706 C705 1.348 . S
C707 C703 1.415 . S
C707 C705 1.413 . S
C707 C737 1.437 . S
H708 C737 0.929 . S
N709 Gd682 2.570 . S
N709 C710 1.359 . S
N709 C713 1.343 . S
C710 C703 1.422 . S
C710 N709 1.359 . S
C710 C712 1.421 . S
C711 C712 1.422 . S
C711 C714 1.321 . S
C711 H738 0.931 . S
C712 C710 1.421 . S
C712 C711 1.422 . S
C712 C736 1.417 . S
C713 H690 0.931 . S
C713 N709 1.343 . S
C713 C714 1.390 . S
C714 H692 0.930 . S
C714 C711 1.321 . S
C714 C713 1.390 . S
O715 Gd683 2.386 1_556 S
O715 C727 1.265 . S
O716 Gd682 2.353 . S
O716 C727 1.242 1_554 S
O717 Gd682 2.468 . S
O717 C735 1.263 . S
O718 Gd682 2.427 . S
O718 C735 1.252 . S
O719 Gd683 2.307 . S
O719 C728 1.261 . S
O720 Gd682 2.388 . S
O720 C728 1.252 . S
O721 Gd682 2.386 . S
O721 C739 1.265 . S
O722 Gd683 2.353 . S
O722 C739 1.242 . S
O723 Gd683 2.468 . S
O723 C747 1.263 . S
O724 Gd683 2.427 . S
O724 C747 1.252 . S
O725 Gd682 2.307 . S
O725 C740 1.261 1_554 S
O726 Gd683 2.388 1_556 S
O726 C740 1.252 . S
C727 O715 1.265 . S
C727 O716 1.242 1_556 S
C728 O719 1.261 . S
C728 O720 1.252 . S
C729 C732 1.394 . S
C729 C734 1.370 1_554 S
C729 C735 1.500 . S
C730 C733 1.383 . S
C730 C734 1.395 . S
C731 C732 1.396 . S
C731 C733 1.365 1_554 S
C731 H748 0.929 . S
C732 C729 1.394 . S
C732 C731 1.396 . S
C732 H749 0.930 . S
C733 C730 1.383 . S
C733 C731 1.365 1_556 S
C733 H750 0.931 . S
C734 C729 1.370 1_556 S
C734 C730 1.395 . S
C734 H751 0.930 . S
C735 Gd682 2.805 . S
C735 O717 1.263 . S
C735 O718 1.252 . S
C735 C729 1.500 . S
C736 H698 0.930 . S
C736 C712 1.417 . S
C736 C737 1.329 . S
C737 C707 1.437 . S
C737 H708 0.929 . S
C737 C736 1.329 . S
H738 C711 0.931 . S
C739 O721 1.265 . S
C739 O722 1.242 . S
C740 O725 1.261 1_556 S
C740 O726 1.252 . S
C741 C744 1.394 . S
C741 C746 1.370 . S
C741 C747 1.500 . S
C742 C745 1.383 . S
C742 C746 1.395 . S
C743 C744 1.396 . S
C743 C745 1.365 . S
C743 H752 0.929 . S
C744 C741 1.394 . S
C744 C743 1.396 . S
C744 H753 0.930 . S
C745 C742 1.383 . S
C745 C743 1.365 . S
C745 H754 0.931 . S
C746 C741 1.370 . S
C746 C742 1.395 . S
C746 H755 0.930 . S
C747 Gd683 2.805 . S
C747 O723 1.263 . S
C747 O724 1.252 . S
C747 C741 1.500 . S
H748 C731 0.929 . S
H749 C732 0.930 . S
H750 C733 0.931 . S
H751 C734 0.930 . S
H752 C743 0.929 . S
H753 C744 0.930 . S
H754 C745 0.931 . S
H755 C746 0.930 . S
C756 C758 1.422 . S
C756 C760 1.415 . S
C756 N762 1.369 . S
C757 C758 1.421 . S
C757 C759 1.417 . S
C757 C769 1.422 . S
C758 C756 1.422 . S
C758 C757 1.421 . S
C758 N768 1.359 . S
C759 C757 1.417 . S
C759 C761 1.329 . S
C759 H778 0.930 . S
C760 C756 1.415 . S
C760 C761 1.437 . S
C760 C764 1.413 . S
C761 C759 1.329 . S
C761 C760 1.437 . S
C761 H783 0.929 1_655 S
N762 C756 1.369 . S
N762 C763 1.338 . S
N762 Gd767 2.622 . S
C763 N762 1.338 . S
C763 C765 1.378 . S
C763 H775 0.929 . S
C764 C760 1.413 . S
C764 C765 1.348 . S
C764 H780 0.931 1_655 S
C765 C763 1.378 . S
C765 C764 1.348 . S
C765 H781 0.930 . S
Gd766 N786 2.622 . S
Gd766 N793 2.570 . S
Gd766 O800 2.353 . S
Gd766 O801 2.468 . S
Gd766 O802 2.427 . S
Gd766 O804 2.388 . S
Gd766 O805 2.386 . S
Gd766 O809 2.307 . S
Gd766 C819 2.805 . S
Gd767 N762 2.622 . S
Gd767 N768 2.570 . S
Gd767 O799 2.386 . S
Gd767 O803 2.307 . S
Gd767 O806 2.353 . S
Gd767 O807 2.468 . S
Gd767 O808 2.427 . S
Gd767 O810 2.388 . S
Gd767 C831 2.805 . S
N768 C758 1.359 . S
N768 Gd767 2.570 . S
N768 C770 1.343 . S
C769 C757 1.422 . S
C769 C771 1.321 . S
C769 H777 0.931 . S
C770 N768 1.343 . S
C770 C771 1.390 . S
C770 H772 0.931 . S
C771 C769 1.321 . S
C771 C770 1.390 . S
C771 H773 0.930 . S
H772 C770 0.931 . S
H773 C771 0.930 . S
H774 C797 0.931 . S
H775 C763 0.929 . S
H776 C798 0.930 . S
H777 C769 0.931 . S
H778 C759 0.930 . S
H779 C788 0.929 . S
H780 C764 0.931 1_455 S
H781 C765 0.930 . S
H782 C820 0.930 . S
H783 C761 0.929 1_455 S
H784 C789 0.931 . S
H785 C790 0.930 . S
N786 Gd766 2.622 . S
N786 C787 1.369 . S
N786 C788 1.338 . S
C787 N786 1.369 . S
C787 C791 1.415 . S
C787 C794 1.422 . S
C788 H779 0.929 . S
C788 N786 1.338 . S
C788 C790 1.378 . S
C789 H784 0.931 . S
C789 C790 1.348 . S
C789 C791 1.413 . S
C790 H785 0.930 . S
C790 C788 1.378 . S
C790 C789 1.348 . S
C791 C787 1.415 . S
C791 C789 1.413 . S
C791 C821 1.437 . S
H792 C821 0.929 . S
N793 Gd766 2.570 . S
N793 C794 1.359 . S
N793 C797 1.343 . S
C794 C787 1.422 . S
C794 N793 1.359 . S
C794 C796 1.421 . S
C795 C796 1.422 . S
C795 C798 1.321 . S
C795 H822 0.931 . S
C796 C794 1.421 . S
C796 C795 1.422 . S
C796 C820 1.417 . S
C797 H774 0.931 . S
C797 N793 1.343 . S
C797 C798 1.390 . S
C798 H776 0.930 . S
C798 C795 1.321 . S
C798 C797 1.390 . S
O799 Gd767 2.386 . S
O799 C811 1.265 . S
O800 Gd766 2.353 . S
O800 C811 1.242 . S
O801 Gd766 2.468 . S
O801 C819 1.263 . S
O802 Gd766 2.427 . S
O802 C819 1.252 . S
O803 Gd767 2.307 . S
O803 C812 1.261 . S
O804 Gd766 2.388 . S
O804 C812 1.252 . S
O805 Gd766 2.386 . S
O805 C823 1.265 . S
O806 Gd767 2.353 . S
O806 C823 1.242 . S
O807 Gd767 2.468 . S
O807 C831 1.263 . S
O808 Gd767 2.427 . S
O808 C831 1.252 . S
O809 Gd766 2.307 . S
O809 C824 1.261 . S
O810 Gd767 2.388 . S
O810 C824 1.252 . S
C811 O799 1.265 . S
C811 O800 1.242 . S
C812 O803 1.261 . S
C812 O804 1.252 . S
C813 C816 1.394 . S
C813 C818 1.370 . S
C813 C819 1.500 . S
C814 C817 1.383 . S
C814 C818 1.395 . S
C815 C816 1.396 . S
C815 C817 1.365 . S
C815 H832 0.929 . S
C816 C813 1.394 . S
C816 C815 1.396 . S
C816 H833 0.930 . S
C817 C814 1.383 . S
C817 C815 1.365 . S
C817 H834 0.931 . S
C818 C813 1.370 . S
C818 C814 1.395 . S
C818 H835 0.930 . S
C819 Gd766 2.805 . S
C819 O801 1.263 . S
C819 O802 1.252 . S
C819 C813 1.500 . S
C820 H782 0.930 . S
C820 C796 1.417 . S
C820 C821 1.329 . S
C821 C791 1.437 . S
C821 H792 0.929 . S
C821 C820 1.329 . S
H822 C795 0.931 . S
C823 O805 1.265 . S
C823 O806 1.242 . S
C824 O809 1.261 . S
C824 O810 1.252 . S
C825 C828 1.394 . S
C825 C830 1.370 . S
C825 C831 1.500 . S
C826 C829 1.383 . S
C826 C830 1.395 . S
C827 C828 1.396 . S
C827 C829 1.365 . S
C827 H836 0.929 . S
C828 C825 1.394 . S
C828 C827 1.396 . S
C828 H837 0.930 . S
C829 C826 1.383 . S
C829 C827 1.365 . S
C829 H838 0.931 . S
C830 C825 1.370 . S
C830 C826 1.395 . S
C830 H839 0.930 . S
C831 Gd767 2.805 . S
C831 O807 1.263 . S
C831 O808 1.252 . S
C831 C825 1.500 . S
H832 C815 0.929 . S
H833 C816 0.930 . S
H834 C817 0.931 . S
H835 C818 0.930 . S
H836 C827 0.929 . S
H837 C828 0.930 . S
H838 C829 0.931 . S
H839 C830 0.930 . S
C840 C842 1.422 . S
C840 C844 1.415 . S
C840 N846 1.369 . S
C841 C842 1.421 1_655 S
C841 C843 1.417 1_655 S
C841 C853 1.422 . S
C842 C840 1.422 . S
C842 C841 1.421 1_455 S
C842 N852 1.359 . S
C843 C841 1.417 1_455 S
C843 C845 1.329 . S
C843 H862 0.930 1_455 S
C844 C840 1.415 . S
C844 C845 1.437 . S
C844 C848 1.413 . S
C845 C843 1.329 . S
C845 C844 1.437 . S
C845 H867 0.929 . S
N846 C840 1.369 . S
N846 C847 1.338 . S
N846 Gd851 2.622 . S
C847 N846 1.338 . S
C847 C849 1.378 . S
C847 H859 0.929 . S
C848 C844 1.413 . S
C848 C849 1.348 . S
C848 H864 0.931 . S
C849 C847 1.378 . S
C849 C848 1.348 . S
C849 H865 0.930 . S
Gd850 N870 2.622 1_455 S
Gd850 N877 2.570 . S
Gd850 O884 2.353 1_455 S
Gd850 O885 2.468 1_455 S
Gd850 O886 2.427 1_455 S
Gd850 O888 2.388 1_455 S
Gd850 O889 2.386 . S
Gd850 O893 2.307 . S
Gd850 C903 2.805 1_455 S
Gd851 N846 2.622 . S
Gd851 N852 2.570 . S
Gd851 O883 2.386 . S
Gd851 O887 2.307 . S
Gd851 O890 2.353 . S
Gd851 O891 2.468 . S
Gd851 O892 2.427 . S
Gd851 O894 2.388 . S
Gd851 C915 2.805 . S
N852 C842 1.359 . S
N852 Gd851 2.570 . S
N852 C854 1.343 1_455 S
C853 C841 1.422 . S
C853 C855 1.321 . S
C853 H861 0.931 . S
C854 N852 1.343 1_655 S
C854 C855 1.390 . S
C854 H856 0.931 . S
C855 C853 1.321 . S
C855 C854 1.390 . S
C855 H857 0.930 . S
H856 C854 0.931 . S
H857 C855 0.930 . S
H858 C881 0.931 . S
H859 C847 0.929 . S
H860 C882 0.930 . S
H861 C853 0.931 . S
H862 C843 0.930 1_655 S
H863 C872 0.929 . S
H864 C848 0.931 . S
H865 C849 0.930 . S
H866 C904 0.930 . S
H867 C845 0.929 . S
H868 C873 0.931 . S
H869 C874 0.930 . S
N870 Gd850 2.622 1_655 S
N870 C871 1.369 1_655 S
N870 C872 1.338 . S
C871 N870 1.369 1_455 S
C871 C875 1.415 . S
C871 C878 1.422 . S
C872 H863 0.929 . S
C872 N870 1.338 . S
C872 C874 1.378 . S
C873 H868 0.931 . S
C873 C874 1.348 . S
C873 C875 1.413 1_655 S
C874 H869 0.930 . S
C874 C872 1.378 . S
C874 C873 1.348 . S
C875 C871 1.415 . S
C875 C873 1.413 1_455 S
C875 C905 1.437 . S
H876 C905 0.929 . S
N877 Gd850 2.570 . S
N877 C878 1.359 . S
N877 C881 1.343 . S
C878 C871 1.422 . S
C878 N877 1.359 . S
C878 C880 1.421 . S
C879 C880 1.422 . S
C879 C882 1.321 . S
C879 H906 0.931 . S
C880 C878 1.421 . S
C880 C879 1.422 . S
C880 C904 1.417 . S
C881 H858 0.931 . S
C881 N877 1.343 . S
C881 C882 1.390 . S
C882 H860 0.930 . S
C882 C879 1.321 . S
C882 C881 1.390 . S
O883 Gd851 2.386 . S
O883 C895 1.265 1_455 S
O884 Gd850 2.353 1_655 S
O884 C895 1.242 . S
O885 Gd850 2.468 1_655 S
O885 C903 1.263 . S
O886 Gd850 2.427 1_655 S
O886 C903 1.252 . S
O887 Gd851 2.307 . S
O887 C896 1.261 1_455 S
O888 Gd850 2.388 1_655 S
O888 C896 1.252 . S
O889 Gd850 2.386 . S
O889 C907 1.265 . S
O890 Gd851 2.353 . S
O890 C907 1.242 . S
O891 Gd851 2.468 . S
O891 C915 1.263 . S
O892 Gd851 2.427 . S
O892 C915 1.252 . S
O893 Gd850 2.307 . S
O893 C908 1.261 . S
O894 Gd851 2.388 . S
O894 C908 1.252 . S
C895 O883 1.265 1_655 S
C895 O884 1.242 . S
C896 O887 1.261 1_655 S
C896 O888 1.252 . S
C897 C900 1.394 . S
C897 C902 1.370 . S
C897 C903 1.500 . S
C898 C901 1.383 . S
C898 C902 1.395 . S
C899 C900 1.396 . S
C899 C901 1.365 . S
C899 H916 0.929 . S
C900 C897 1.394 . S
C900 C899 1.396 . S
C900 H917 0.930 . S
C901 C898 1.383 . S
C901 C899 1.365 . S
C901 H918 0.931 . S
C902 C897 1.370 . S
C902 C898 1.395 . S
C902 H919 0.930 . S
C903 Gd850 2.805 1_655 S
C903 O885 1.263 . S
C903 O886 1.252 . S
C903 C897 1.500 . S
C904 H866 0.930 . S
C904 C880 1.417 . S
C904 C905 1.329 . S
C905 C875 1.437 . S
C905 H876 0.929 . S
C905 C904 1.329 . S
H906 C879 0.931 . S
C907 O889 1.265 . S
C907 O890 1.242 . S
C908 O893 1.261 . S
C908 O894 1.252 . S
C909 C912 1.394 . S
C909 C914 1.370 . S
C909 C915 1.500 . S
C910 C913 1.383 . S
C910 C914 1.395 . S
C911 C912 1.396 . S
C911 C913 1.365 . S
C911 H920 0.929 . S
C912 C909 1.394 . S
C912 C911 1.396 . S
C912 H921 0.930 . S
C913 C910 1.383 . S
C913 C911 1.365 . S
C913 H922 0.931 . S
C914 C909 1.370 . S
C914 C910 1.395 . S
C914 H923 0.930 . S
C915 Gd851 2.805 . S
C915 O891 1.263 . S
C915 O892 1.252 . S
C915 C909 1.500 . S
H916 C899 0.929 . S
H917 C900 0.930 . S
H918 C901 0.931 . S
H919 C902 0.930 . S
H920 C911 0.929 . S
H921 C912 0.930 . S
H922 C913 0.931 . S
H923 C914 0.930 . S
C924 C926 1.422 . S
C924 C928 1.415 . S
C924 N930 1.369 . S
C925 C926 1.421 . S
C925 C927 1.417 . S
C925 C937 1.422 . S
C926 C924 1.422 . S
C926 C925 1.421 . S
C926 N936 1.359 . S
C927 C925 1.417 . S
C927 C929 1.329 . S
C927 H946 0.930 . S
C928 C924 1.415 . S
C928 C929 1.437 . S
C928 C932 1.413 . S
C929 C927 1.329 . S
C929 C928 1.437 . S
C929 H951 0.929 . S
N930 C924 1.369 . S
N930 C931 1.338 . S
N930 Gd935 2.622 . S
C931 N930 1.338 . S
C931 C933 1.378 . S
C931 H943 0.929 . S
C932 C928 1.413 . S
C932 C933 1.348 . S
C932 H948 0.931 . S
C933 C931 1.378 . S
C933 C932 1.348 . S
C933 H949 0.930 . S
Gd934 N954 2.622 . S
Gd934 N961 2.570 . S
Gd934 O968 2.353 . S
Gd934 O969 2.468 . S
Gd934 O970 2.427 . S
Gd934 O972 2.388 . S
Gd934 O973 2.386 . S
Gd934 O977 2.307 . S
Gd934 C987 2.805 . S
Gd935 N930 2.622 . S
Gd935 N936 2.570 . S
Gd935 O967 2.386 . S
Gd935 O971 2.307 . S
Gd935 O974 2.353 . S
Gd935 O975 2.468 . S
Gd935 O976 2.427 . S
Gd935 O978 2.388 . S
Gd935 C999 2.805 . S
N936 C926 1.359 . S
N936 Gd935 2.570 . S
N936 C938 1.343 . S
C937 C925 1.422 . S
C937 C939 1.321 . S
C937 H945 0.931 . S
C938 N936 1.343 . S
C938 C939 1.390 . S
C938 H940 0.931 . S
C939 C937 1.321 . S
C939 C938 1.390 . S
C939 H941 0.930 . S
H940 C938 0.931 . S
H941 C939 0.930 . S
H942 C965 0.931 . S
H943 C931 0.929 . S
H944 C966 0.930 . S
H945 C937 0.931 . S
H946 C927 0.930 . S
H947 C956 0.929 . S
H948 C932 0.931 . S
H949 C933 0.930 . S
H950 C988 0.930 . S
H951 C929 0.929 . S
H952 C957 0.931 . S
H953 C958 0.930 . S
N954 Gd934 2.622 . S
N954 C955 1.369 . S
N954 C956 1.338 . S
C955 N954 1.369 . S
C955 C959 1.415 . S
C955 C962 1.422 . S
C956 H947 0.929 . S
C956 N954 1.338 . S
C956 C958 1.378 . S
C957 H952 0.931 . S
C957 C958 1.348 . S
C957 C959 1.413 . S
C958 H953 0.930 . S
C958 C956 1.378 . S
C958 C957 1.348 . S
C959 C955 1.415 . S
C959 C957 1.413 . S
C959 C989 1.437 . S
H960 C989 0.929 . S
N961 Gd934 2.570 . S
N961 C962 1.359 . S
N961 C965 1.343 . S
C962 C955 1.422 . S
C962 N961 1.359 . S
C962 C964 1.421 . S
C963 C964 1.422 1_545 S
C963 C966 1.321 . S
C963 H990 0.931 . S
C964 C962 1.421 . S
C964 C963 1.422 1_565 S
C964 C988 1.417 1_565 S
C965 H942 0.931 . S
C965 N961 1.343 . S
C965 C966 1.390 1_565 S
C966 H944 0.930 . S
C966 C963 1.321 . S
C966 C965 1.390 1_545 S
O967 Gd935 2.386 . S
O967 C979 1.265 . S
O968 Gd934 2.353 . S
O968 C979 1.242 . S
O969 Gd934 2.468 . S
O969 C987 1.263 . S
O970 Gd934 2.427 . S
O970 C987 1.252 . S
O971 Gd935 2.307 . S
O971 C980 1.261 . S
O972 Gd934 2.388 . S
O972 C980 1.252 . S
O973 Gd934 2.386 . S
O973 C991 1.265 . S
O974 Gd935 2.353 . S
O974 C991 1.242 . S
O975 Gd935 2.468 . S
O975 C999 1.263 . S
O976 Gd935 2.427 . S
O976 C999 1.252 . S
O977 Gd934 2.307 . S
O977 C992 1.261 . S
O978 Gd935 2.388 . S
O978 C992 1.252 . S
C979 O967 1.265 . S
C979 O968 1.242 . S
C980 O971 1.261 . S
C980 O972 1.252 . S
C981 C984 1.394 . S
C981 C986 1.370 . S
C981 C987 1.500 . S
C982 C985 1.383 . S
C982 C986 1.395 . S
C983 C984 1.396 . S
C983 C985 1.365 . S
C983 H1000 0.929 . S
C984 C981 1.394 . S
C984 C983 1.396 . S
C984 H1001 0.930 . S
C985 C982 1.383 . S
C985 C983 1.365 . S
C985 H1002 0.931 . S
C986 C981 1.370 . S
C986 C982 1.395 . S
C986 H1003 0.930 . S
C987 Gd934 2.805 . S
C987 O969 1.263 . S
C987 O970 1.252 . S
C987 C981 1.500 . S
C988 H950 0.930 . S
C988 C964 1.417 1_545 S
C988 C989 1.329 1_545 S
C989 C959 1.437 . S
C989 H960 0.929 . S
C989 C988 1.329 1_565 S
H990 C963 0.931 . S
C991 O973 1.265 . S
C991 O974 1.242 . S
C992 O977 1.261 . S
C992 O978 1.252 . S
C993 C996 1.394 . S
C993 C998 1.370 . S
C993 C999 1.500 . S
C994 C997 1.383 . S
C994 C998 1.395 . S
C995 C996 1.396 . S
C995 C997 1.365 . S
C995 H1004 0.929 . S
C996 C993 1.394 . S
C996 C995 1.396 . S
C996 H1005 0.930 . S
C997 C994 1.383 . S
C997 C995 1.365 . S
C997 H1006 0.931 . S
C998 C993 1.370 . S
C998 C994 1.395 . S
C998 H1007 0.930 . S
C999 Gd935 2.805 . S
C999 O975 1.263 . S
C999 O976 1.252 . S
C999 C993 1.500 . S
H1000 C983 0.929 . S
H1001 C984 0.930 . S
H1002 C985 0.931 . S
H1003 C986 0.930 . S
H1004 C995 0.929 . S
H1005 C996 0.930 . S
H1006 C997 0.931 . S
H1007 C998 0.930 . S
C1008 C1010 1.422 . S
C1008 C1012 1.415 . S
C1008 N1014 1.369 . S
C1009 C1010 1.421 . S
C1009 C1011 1.417 . S
C1009 C1021 1.422 . S
C1010 C1008 1.422 . S
C1010 C1009 1.421 . S
C1010 N1020 1.359 . S
C1011 C1009 1.417 . S
C1011 C1013 1.329 . S
C1011 H1030 0.930 . S
C1012 C1008 1.415 . S
C1012 C1013 1.437 . S
C1012 C1016 1.413 . S
C1013 C1011 1.329 . S
C1013 C1012 1.437 . S
C1013 H1035 0.929 . S
N1014 C1008 1.369 . S
N1014 C1015 1.338 . S
N1014 Gd1019 2.622 . S
C1015 N1014 1.338 . S
C1015 C1017 1.378 . S
C1015 H1027 0.929 . S
C1016 C1012 1.413 . S
C1016 C1017 1.348 . S
C1016 H1032 0.931 . S
C1017 C1015 1.378 . S
C1017 C1016 1.348 . S
C1017 H1033 0.930 . S
Gd1018 N1038 2.622 . S
Gd1018 N1045 2.570 . S
Gd1018 O1052 2.353 . S
Gd1018 O1053 2.468 . S
Gd1018 O1054 2.427 . S
Gd1018 O1056 2.388 . S
Gd1018 O1057 2.386 . S
Gd1018 O1061 2.307 . S
Gd1018 C1071 2.805 . S
Gd1019 N1014 2.622 . S
Gd1019 N1020 2.570 . S
Gd1019 O1051 2.386 . S
Gd1019 O1055 2.307 . S
Gd1019 O1058 2.353 . S
Gd1019 O1059 2.468 . S
Gd1019 O1060 2.427 . S
Gd1019 O1062 2.388 . S
Gd1019 C1083 2.805 . S
N1020 C1010 1.359 . S
N1020 Gd1019 2.570 . S
N1020 C1022 1.343 . S
C1021 C1009 1.422 . S
C1021 C1023 1.321 . S
C1021 H1029 0.931 1_655 S
C1022 N1020 1.343 . S
C1022 C1023 1.390 . S
C1022 H1024 0.931 . S
C1023 C1021 1.321 . S
C1023 C1022 1.390 . S
C1023 H1025 0.930 . S
H1024 C1022 0.931 . S
H1025 C1023 0.930 . S
H1026 C1049 0.931 . S
H1027 C1015 0.929 . S
H1028 C1050 0.930 . S
H1029 C1021 0.931 1_455 S
H1030 C1011 0.930 . S
H1031 C1040 0.929 . S
H1032 C1016 0.931 . S
H1033 C1017 0.930 . S
H1034 C1072 0.930 . S
H1035 C1013 0.929 . S
H1036 C1041 0.931 . S
H1037 C1042 0.930 . S
N1038 Gd1018 2.622 . S
N1038 C1039 1.369 . S
N1038 C1040 1.338 . S
C1039 N1038 1.369 . S
C1039 C1043 1.415 . S
C1039 C1046 1.422 . S
C1040 H1031 0.929 . S
C1040 N1038 1.338 . S
C1040 C1042 1.378 . S
C1041 H1036 0.931 . S
C1041 C1042 1.348 . S
C1041 C1043 1.413 . S
C1042 H1037 0.930 . S
C1042 C1040 1.378 . S
C1042 C1041 1.348 . S
C1043 C1039 1.415 . S
C1043 C1041 1.413 . S
C1043 C1073 1.437 . S
H1044 C1073 0.929 . S
N1045 Gd1018 2.570 . S
N1045 C1046 1.359 . S
N1045 C1049 1.343 . S
C1046 C1039 1.422 . S
C1046 N1045 1.359 . S
C1046 C1048 1.421 . S
C1047 C1048 1.422 . S
C1047 C1050 1.321 . S
C1047 H1074 0.931 . S
C1048 C1046 1.421 . S
C1048 C1047 1.422 . S
C1048 C1072 1.417 . S
C1049 H1026 0.931 . S
C1049 N1045 1.343 . S
C1049 C1050 1.390 . S
C1050 H1028 0.930 . S
C1050 C1047 1.321 . S
C1050 C1049 1.390 . S
O1051 Gd1019 2.386 . S
O1051 C1063 1.265 . S
O1052 Gd1018 2.353 . S
O1052 C1063 1.242 . S
O1053 Gd1018 2.468 . S
O1053 C1071 1.263 . S
O1054 Gd1018 2.427 . S
O1054 C1071 1.252 . S
O1055 Gd1019 2.307 . S
O1055 C1064 1.261 . S
O1056 Gd1018 2.388 . S
O1056 C1064 1.252 . S
O1057 Gd1018 2.386 . S
O1057 C1075 1.265 . S
O1058 Gd1019 2.353 . S
O1058 C1075 1.242 . S
O1059 Gd1019 2.468 . S
O1059 C1083 1.263 . S
O1060 Gd1019 2.427 . S
O1060 C1083 1.252 . S
O1061 Gd1018 2.307 . S
O1061 C1076 1.261 . S
O1062 Gd1019 2.388 . S
O1062 C1076 1.252 . S
C1063 O1051 1.265 . S
C1063 O1052 1.242 . S
C1064 O1055 1.261 . S
C1064 O1056 1.252 . S
C1065 C1068 1.394 . S
C1065 C1070 1.370 . S
C1065 C1071 1.500 . S
C1066 C1069 1.383 . S
C1066 C1070 1.395 . S
C1067 C1068 1.396 . S
C1067 C1069 1.365 . S
C1067 H1084 0.929 . S
C1068 C1065 1.394 . S
C1068 C1067 1.396 . S
C1068 H1085 0.930 . S
C1069 C1066 1.383 . S
C1069 C1067 1.365 . S
C1069 H1086 0.931 . S
C1070 C1065 1.370 . S
C1070 C1066 1.395 . S
C1070 H1087 0.930 . S
C1071 Gd1018 2.805 . S
C1071 O1053 1.263 . S
C1071 O1054 1.252 . S
C1071 C1065 1.500 . S
C1072 H1034 0.930 . S
C1072 C1048 1.417 . S
C1072 C1073 1.329 . S
C1073 C1043 1.437 . S
C1073 H1044 0.929 . S
C1073 C1072 1.329 . S
H1074 C1047 0.931 . S
C1075 O1057 1.265 . S
C1075 O1058 1.242 . S
C1076 O1061 1.261 . S
C1076 O1062 1.252 . S
C1077 C1080 1.394 . S
C1077 C1082 1.370 . S
C1077 C1083 1.500 . S
C1078 C1081 1.383 . S
C1078 C1082 1.395 . S
C1079 C1080 1.396 . S
C1079 C1081 1.365 . S
C1079 H1088 0.929 . S
C1080 C1077 1.394 . S
C1080 C1079 1.396 . S
C1080 H1089 0.930 . S
C1081 C1078 1.383 . S
C1081 C1079 1.365 . S
C1081 H1090 0.931 . S
C1082 C1077 1.370 . S
C1082 C1078 1.395 . S
C1082 H1091 0.930 . S
C1083 Gd1019 2.805 . S
C1083 O1059 1.263 . S
C1083 O1060 1.252 . S
C1083 C1077 1.500 . S
H1084 C1067 0.929 . S
H1085 C1068 0.930 . S
H1086 C1069 0.931 . S
H1087 C1070 0.930 . S
H1088 C1079 0.929 . S
H1089 C1080 0.930 . S
H1090 C1081 0.931 . S
H1091 C1082 0.930 . S
C1092 C1094 1.422 . S
C1092 C1096 1.415 . S
C1092 N1098 1.369 . S
C1093 C1094 1.421 . S
C1093 C1095 1.417 . S
C1093 C1105 1.422 . S
C1094 C1092 1.422 . S
C1094 C1093 1.421 . S
C1094 N1104 1.359 . S
C1095 C1093 1.417 . S
C1095 C1097 1.329 . S
C1095 H1114 0.930 . S
C1096 C1092 1.415 . S
C1096 C1097 1.437 . S
C1096 C1100 1.413 . S
C1097 C1095 1.329 . S
C1097 C1096 1.437 . S
C1097 H1119 0.929 . S
N1098 C1092 1.369 . S
N1098 C1099 1.338 . S
N1098 Gd1103 2.622 . S
C1099 N1098 1.338 . S
C1099 C1101 1.378 . S
C1099 H1111 0.929 . S
C1100 C1096 1.413 . S
C1100 C1101 1.348 . S
C1100 H1116 0.931 . S
C1101 C1099 1.378 . S
C1101 C1100 1.348 . S
C1101 H1117 0.930 . S
Gd1102 N1122 2.622 . S
Gd1102 N1129 2.570 . S
Gd1102 O1136 2.353 . S
Gd1102 O1137 2.468 . S
Gd1102 O1138 2.427 . S
Gd1102 O1140 2.388 . S
Gd1102 O1141 2.386 . S
Gd1102 O1145 2.307 . S
Gd1102 C1155 2.805 . S
Gd1103 N1098 2.622 . S
Gd1103 N1104 2.570 . S
Gd1103 O1135 2.386 . S
Gd1103 O1139 2.307 . S
Gd1103 O1142 2.353 . S
Gd1103 O1143 2.468 . S
Gd1103 O1144 2.427 . S
Gd1103 O1146 2.388 . S
Gd1103 C1167 2.805 . S
N1104 C1094 1.359 . S
N1104 Gd1103 2.570 . S
N1104 C1106 1.343 . S
C1105 C1093 1.422 . S
C1105 C1107 1.321 . S
C1105 H1113 0.931 . S
C1106 N1104 1.343 . S
C1106 C1107 1.390 . S
C1106 H1108 0.931 . S
C1107 C1105 1.321 . S
C1107 C1106 1.390 . S
C1107 H1109 0.930 . S
H1108 C1106 0.931 . S
H1109 C1107 0.930 . S
H1110 C1133 0.931 . S
H1111 C1099 0.929 . S
H1112 C1134 0.930 . S
H1113 C1105 0.931 . S
H1114 C1095 0.930 . S
H1115 C1124 0.929 . S
H1116 C1100 0.931 . S
H1117 C1101 0.930 . S
H1118 C1156 0.930 . S
H1119 C1097 0.929 . S
H1120 C1125 0.931 1_455 S
H1121 C1126 0.930 . S
N1122 Gd1102 2.622 . S
N1122 C1123 1.369 . S
N1122 C1124 1.338 . S
C1123 N1122 1.369 . S
C1123 C1127 1.415 . S
C1123 C1130 1.422 . S
C1124 H1115 0.929 . S
C1124 N1122 1.338 . S
C1124 C1126 1.378 1_565 S
C1125 H1120 0.931 1_655 S
C1125 C1126 1.348 . S
C1125 C1127 1.413 1_545 S
C1126 H1121 0.930 . S
C1126 C1124 1.378 1_545 S
C1126 C1125 1.348 . S
C1127 C1123 1.415 . S
C1127 C1125 1.413 1_565 S
C1127 C1157 1.438 1_565 S
H1128 C1157 0.929 . S
N1129 Gd1102 2.570 . S
N1129 C1130 1.359 . S
N1129 C1133 1.343 . S
C1130 C1123 1.422 . S
C1130 N1129 1.359 . S
C1130 C1132 1.421 . S
C1131 C1132 1.422 . S
C1131 C1134 1.321 . S
C1131 H1158 0.931 . S
C1132 C1130 1.421 . S
C1132 C1131 1.422 . S
C1132 C1156 1.417 . S
C1133 H1110 0.931 . S
C1133 N1129 1.343 . S
C1133 C1134 1.390 . S
C1134 H1112 0.930 . S
C1134 C1131 1.321 . S
C1134 C1133 1.390 . S
O1135 Gd1103 2.386 . S
O1135 C1147 1.265 . S
O1136 Gd1102 2.353 . S
O1136 C1147 1.242 . S
O1137 Gd1102 2.468 . S
O1137 C1155 1.263 . S
O1138 Gd1102 2.427 . S
O1138 C1155 1.252 . S
O1139 Gd1103 2.307 . S
O1139 C1148 1.261 . S
O1140 Gd1102 2.388 . S
O1140 C1148 1.252 . S
O1141 Gd1102 2.386 . S
O1141 C1159 1.265 . S
O1142 Gd1103 2.353 . S
O1142 C1159 1.242 . S
O1143 Gd1103 2.468 . S
O1143 C1167 1.263 . S
O1144 Gd1103 2.427 . S
O1144 C1167 1.252 . S
O1145 Gd1102 2.307 . S
O1145 C1160 1.261 . S
O1146 Gd1103 2.388 . S
O1146 C1160 1.252 . S
C1147 O1135 1.265 . S
C1147 O1136 1.242 . S
C1148 O1139 1.261 . S
C1148 O1140 1.252 . S
C1149 C1152 1.394 1_565 S
C1149 C1154 1.370 . S
C1149 C1155 1.500 . S
C1150 C1153 1.383 1_565 S
C1150 C1154 1.395 . S
C1151 C1152 1.396 . S
C1151 C1153 1.365 . S
C1151 H1168 0.929 . S
C1152 C1149 1.394 1_545 S
C1152 C1151 1.396 . S
C1152 H1169 0.930 . S
C1153 C1150 1.383 1_545 S
C1153 C1151 1.365 . S
C1153 H1170 0.931 . S
C1154 C1149 1.370 . S
C1154 C1150 1.395 . S
C1154 H1171 0.930 . S
C1155 Gd1102 2.805 . S
C1155 O1137 1.263 . S
C1155 O1138 1.252 . S
C1155 C1149 1.500 . S
C1156 H1118 0.930 . S
C1156 C1132 1.417 . S
C1156 C1157 1.328 1_565 S
C1157 C1127 1.438 1_545 S
C1157 H1128 0.929 . S
C1157 C1156 1.328 1_545 S
H1158 C1131 0.931 . S
C1159 O1141 1.265 . S
C1159 O1142 1.242 . S
C1160 O1145 1.261 . S
C1160 O1146 1.252 . S
C1161 C1164 1.394 . S
C1161 C1166 1.370 . S
C1161 C1167 1.500 . S
C1162 C1165 1.383 . S
C1162 C1166 1.395 . S
C1163 C1164 1.396 . S
C1163 C1165 1.365 . S
C1163 H1172 0.929 . S
C1164 C1161 1.394 . S
C1164 C1163 1.396 . S
C1164 H1173 0.930 . S
C1165 C1162 1.383 . S
C1165 C1163 1.365 . S
C1165 H1174 0.931 . S
C1166 C1161 1.370 . S
C1166 C1162 1.395 . S
C1166 H1175 0.930 . S
C1167 Gd1103 2.805 . S
C1167 O1143 1.263 . S
C1167 O1144 1.252 . S
C1167 C1161 1.500 . S
H1168 C1151 0.929 . S
H1169 C1152 0.930 . S
H1170 C1153 0.931 . S
H1171 C1154 0.930 . S
H1172 C1163 0.929 . S
H1173 C1164 0.930 . S
H1174 C1165 0.931 . S
H1175 C1166 0.930 . S
C1176 C1178 1.422 . S
C1176 C1180 1.415 . S
C1176 N1182 1.369 . S
C1177 C1178 1.421 . S
C1177 C1179 1.417 . S
C1177 C1189 1.422 . S
C1178 C1176 1.422 . S
C1178 C1177 1.421 . S
C1178 N1188 1.359 . S
C1179 C1177 1.417 . S
C1179 C1181 1.329 . S
C1179 H1198 0.930 . S
C1180 C1176 1.415 . S
C1180 C1181 1.437 . S
C1180 C1184 1.413 . S
C1181 C1179 1.329 . S
C1181 C1180 1.437 . S
C1181 H1203 0.929 . S
N1182 C1176 1.369 . S
N1182 C1183 1.338 . S
N1182 Gd1187 2.622 . S
C1183 N1182 1.338 . S
C1183 C1185 1.378 . S
C1183 H1195 0.929 . S
C1184 C1180 1.413 . S
C1184 C1185 1.348 . S
C1184 H1200 0.931 . S
C1185 C1183 1.378 . S
C1185 C1184 1.348 . S
C1185 H1201 0.930 . S
Gd1186 N1206 2.622 . S
Gd1186 N1213 2.570 . S
Gd1186 O1220 2.353 . S
Gd1186 O1221 2.468 . S
Gd1186 O1222 2.427 . S
Gd1186 O1224 2.388 . S
Gd1186 O1225 2.386 . S
Gd1186 O1229 2.307 . S
Gd1186 C1239 2.805 . S
Gd1187 N1182 2.622 . S
Gd1187 N1188 2.570 . S
Gd1187 O1219 2.386 . S
Gd1187 O1223 2.307 . S
Gd1187 O1226 2.353 . S
Gd1187 O1227 2.468 . S
Gd1187 O1228 2.427 . S
Gd1187 O1230 2.388 . S
Gd1187 C1251 2.805 . S
N1188 C1178 1.359 . S
N1188 Gd1187 2.570 . S
N1188 C1190 1.343 . S
C1189 C1177 1.422 . S
C1189 C1191 1.321 . S
C1189 H1197 0.931 . S
C1190 N1188 1.343 . S
C1190 C1191 1.390 . S
C1190 H1192 0.931 . S
C1191 C1189 1.321 . S
C1191 C1190 1.390 . S
C1191 H1193 0.930 . S
H1192 C1190 0.931 . S
H1193 C1191 0.930 . S
H1194 C1217 0.931 . S
H1195 C1183 0.929 . S
H1196 C1218 0.930 . S
H1197 C1189 0.931 . S
H1198 C1179 0.930 . S
H1199 C1208 0.929 . S
H1200 C1184 0.931 . S
H1201 C1185 0.930 . S
H1202 C1240 0.930 . S
H1203 C1181 0.929 . S
H1204 C1209 0.931 . S
H1205 C1210 0.930 . S
N1206 Gd1186 2.622 . S
N1206 C1207 1.369 . S
N1206 C1208 1.338 . S
C1207 N1206 1.369 . S
C1207 C1211 1.415 . S
C1207 C1214 1.422 . S
C1208 H1199 0.929 . S
C1208 N1206 1.338 . S
C1208 C1210 1.378 . S
C1209 H1204 0.931 . S
C1209 C1210 1.348 . S
C1209 C1211 1.413 . S
C1210 H1205 0.930 . S
C1210 C1208 1.378 . S
C1210 C1209 1.348 . S
C1211 C1207 1.415 . S
C1211 C1209 1.413 . S
C1211 C1241 1.437 . S
H1212 C1241 0.929 . S
N1213 Gd1186 2.570 . S
N1213 C1214 1.359 . S
N1213 C1217 1.343 . S
C1214 C1207 1.422 . S
C1214 N1213 1.359 . S
C1214 C1216 1.421 . S
C1215 C1216 1.422 . S
C1215 C1218 1.321 . S
C1215 H1242 0.931 . S
C1216 C1214 1.421 . S
C1216 C1215 1.422 . S
C1216 C1240 1.417 . S
C1217 H1194 0.931 . S
C1217 N1213 1.343 . S
C1217 C1218 1.390 . S
C1218 H1196 0.930 . S
C1218 C1215 1.321 . S
C1218 C1217 1.390 . S
O1219 Gd1187 2.386 . S
O1219 C1231 1.265 . S
O1220 Gd1186 2.353 . S
O1220 C1231 1.242 . S
O1221 Gd1186 2.468 . S
O1221 C1239 1.263 . S
O1222 Gd1186 2.427 . S
O1222 C1239 1.252 . S
O1223 Gd1187 2.307 . S
O1223 C1232 1.261 . S
O1224 Gd1186 2.388 . S
O1224 C1232 1.252 . S
O1225 Gd1186 2.386 . S
O1225 C1243 1.265 . S
O1226 Gd1187 2.353 . S
O1226 C1243 1.242 . S
O1227 Gd1187 2.468 . S
O1227 C1251 1.263 . S
O1228 Gd1187 2.427 . S
O1228 C1251 1.252 . S
O1229 Gd1186 2.307 . S
O1229 C1244 1.261 . S
O1230 Gd1187 2.388 . S
O1230 C1244 1.252 . S
C1231 O1219 1.265 . S
C1231 O1220 1.242 . S
C1232 O1223 1.261 . S
C1232 O1224 1.252 . S
C1233 C1236 1.394 . S
C1233 C1238 1.370 . S
C1233 C1239 1.500 . S
C1234 C1237 1.383 . S
C1234 C1238 1.395 . S
C1235 C1236 1.396 . S
C1235 C1237 1.365 . S
C1235 H1252 0.929 . S
C1236 C1233 1.394 . S
C1236 C1235 1.396 . S
C1236 H1253 0.930 . S
C1237 C1234 1.383 . S
C1237 C1235 1.365 . S
C1237 H1254 0.931 . S
C1238 C1233 1.370 . S
C1238 C1234 1.395 . S
C1238 H1255 0.930 . S
C1239 Gd1186 2.805 . S
C1239 O1221 1.263 . S
C1239 O1222 1.252 . S
C1239 C1233 1.500 . S
C1240 H1202 0.930 . S
C1240 C1216 1.417 . S
C1240 C1241 1.329 . S
C1241 C1211 1.437 . S
C1241 H1212 0.929 . S
C1241 C1240 1.329 . S
H1242 C1215 0.931 . S
C1243 O1225 1.265 . S
C1243 O1226 1.242 . S
C1244 O1229 1.261 . S
C1244 O1230 1.252 . S
C1245 C1248 1.394 . S
C1245 C1250 1.370 . S
C1245 C1251 1.500 . S
C1246 C1249 1.383 . S
C1246 C1250 1.395 . S
C1247 C1248 1.396 . S
C1247 C1249 1.365 . S
C1247 H1256 0.929 . S
C1248 C1245 1.394 . S
C1248 C1247 1.396 . S
C1248 H1257 0.930 . S
C1249 C1246 1.383 . S
C1249 C1247 1.365 . S
C1249 H1258 0.931 . S
C1250 C1245 1.370 . S
C1250 C1246 1.395 . S
C1250 H1259 0.930 . S
C1251 Gd1187 2.805 . S
C1251 O1227 1.263 . S
C1251 O1228 1.252 . S
C1251 C1245 1.500 . S
H1252 C1235 0.929 . S
H1253 C1236 0.930 . S
H1254 C1237 0.931 . S
H1255 C1238 0.930 . S
H1256 C1247 0.929 . S
H1257 C1248 0.930 . S
H1258 C1249 0.931 . S
H1259 C1250 0.930 . S
C1260 C1262 1.422 . S
C1260 C1264 1.415 . S
C1260 N1266 1.369 . S
C1261 C1262 1.421 . S
C1261 C1263 1.417 . S
C1261 C1273 1.422 . S
C1262 C1260 1.422 . S
C1262 C1261 1.421 . S
C1262 N1272 1.359 . S
C1263 C1261 1.417 . S
C1263 C1265 1.329 . S
C1263 H1282 0.930 . S
C1264 C1260 1.415 . S
C1264 C1265 1.437 . S
C1264 C1268 1.413 . S
C1265 C1263 1.329 . S
C1265 C1264 1.437 . S
C1265 H1287 0.929 . S
N1266 C1260 1.369 . S
N1266 C1267 1.338 . S
N1266 Gd1271 2.622 . S
C1267 N1266 1.338 . S
C1267 C1269 1.378 . S
C1267 H1279 0.929 1_556 S
C1268 C1264 1.413 . S
C1268 C1269 1.348 . S
C1268 H1284 0.931 . S
C1269 C1267 1.378 . S
C1269 C1268 1.348 . S
C1269 H1285 0.930 . S
Gd1270 N1290 2.622 . S
Gd1270 N1297 2.570 . S
Gd1270 O1304 2.353 1_654 S
Gd1270 O1305 2.468 1_655 S
Gd1270 O1306 2.427 . S
Gd1270 O1308 2.388 1_554 S
Gd1270 O1309 2.386 . S
Gd1270 O1313 2.307 1_655 S
Gd1270 C1323 2.805 1_655 S
Gd1271 N1266 2.622 . S
Gd1271 N1272 2.570 . S
Gd1271 O1303 2.386 . S
Gd1271 O1307 2.307 . S
Gd1271 O1310 2.353 1_556 S
Gd1271 O1311 2.468 . S
Gd1271 O1312 2.427 . S
Gd1271 O1314 2.388 1_556 S
Gd1271 C1335 2.805 . S
N1272 C1262 1.359 . S
N1272 Gd1271 2.570 . S
N1272 C1274 1.343 . S
C1273 C1261 1.422 . S
C1273 C1275 1.321 . S
C1273 H1281 0.931 . S
C1274 N1272 1.343 . S
C1274 C1275 1.390 . S
C1274 H1276 0.931 . S
C1275 C1273 1.321 . S
C1275 C1274 1.390 . S
C1275 H1277 0.930 . S
H1276 C1274 0.931 . S
H1277 C1275 0.930 . S
H1278 C1301 0.931 1_455 S
H1279 C1267 0.929 1_554 S
H1280 C1302 0.940 . S
H1281 C1273 0.931 . S
H1282 C1263 0.930 . S
H1283 C1292 0.929 . S
H1284 C1268 0.931 . S
H1285 C1269 0.930 . S
H1286 C1324 0.930 . S
H1287 C1265 0.929 . S
H1288 C1293 0.931 . S
H1289 C1294 0.930 . S
N1290 Gd1270 2.622 . S
N1290 C1291 1.369 . S
N1290 C1292 1.338 . S
C1291 N1290 1.369 . S
C1291 C1295 1.415 . S
C1291 C1298 1.422 . S
C1292 H1283 0.929 . S
C1292 N1290 1.338 . S
C1292 C1294 1.378 . S
C1293 H1288 0.931 . S
C1293 C1294 1.348 . S
C1293 C1295 1.413 . S
C1294 H1289 0.930 . S
C1294 C1292 1.378 . S
C1294 C1293 1.348 . S
C1295 C1291 1.415 . S
C1295 C1293 1.413 . S
C1295 C1325 1.437 . S
H1296 C1325 0.929 . S
N1297 Gd1270 2.570 . S
N1297 C1298 1.359 . S
N1297 C1301 1.343 . S
C1298 C1291 1.422 . S
C1298 N1297 1.359 . S
C1298 C1300 1.421 . S
C1299 C1300 1.422 . S
C1299 C1302 1.321 . S
C1299 H1326 0.931 . S
C1300 C1298 1.421 . S
C1300 C1299 1.422 . S
C1300 C1324 1.417 . S
C1301 H1278 0.931 1_655 S
C1301 N1297 1.343 . S
C1301 C1302 1.390 . S
C1302 H1280 0.940 . S
C1302 C1299 1.321 . S
C1302 C1301 1.390 . S
O1303 Gd1271 2.386 . S
O1303 C1315 1.265 . S
O1304 Gd1270 2.353 1_456 S
O1304 C1315 1.242 . S
O1305 Gd1270 2.468 1_455 S
O1305 C1323 1.263 . S
O1306 Gd1270 2.427 . S
O1306 C1323 1.252 1_655 S
O1307 Gd1271 2.307 . S
O1307 C1316 1.261 1_455 S
O1308 Gd1270 2.388 1_556 S
O1308 C1316 1.252 . S
O1309 Gd1270 2.386 . S
O1309 C1327 1.265 . S
O1310 Gd1271 2.353 1_554 S
O1310 C1327 1.242 1_455 S
O1311 Gd1271 2.468 . S
O1311 C1335 1.263 . S
O1312 Gd1271 2.427 . S
O1312 C1335 1.252 . S
O1313 Gd1270 2.307 1_455 S
O1313 C1328 1.261 . S
O1314 Gd1271 2.388 1_554 S
O1314 C1328 1.252 . S
C1315 O1303 1.265 . S
C1315 O1304 1.242 . S
C1316 O1307 1.261 1_655 S
C1316 O1308 1.252 . S
C1317 C1320 1.394 1_455 S
C1317 C1322 1.370 . S
C1317 C1323 1.500 . S
C1318 C1321 1.383 . S
C1318 C1322 1.395 . S
C1319 C1320 1.396 . S
C1319 C1321 1.365 1_655 S
C1319 H1336 0.929 . S
C1320 C1317 1.394 1_655 S
C1320 C1319 1.396 . S
C1320 H1337 0.930 . S
C1321 C1318 1.383 . S
C1321 C1319 1.365 1_455 S
C1321 H1338 0.931 . S
C1322 C1317 1.370 . S
C1322 C1318 1.395 . S
C1322 H1339 0.930 . S
C1323 Gd1270 2.805 1_455 S
C1323 O1305 1.263 . S
C1323 O1306 1.252 1_455 S
C1323 C1317 1.500 . S
C1324 H1286 0.930 . S
C1324 C1300 1.417 . S
C1324 C1325 1.329 . S
C1325 C1295 1.437 . S
C1325 H1296 0.929 . S
C1325 C1324 1.329 . S
H1326 C1299 0.931 . S
C1327 O1309 1.265 . S
C1327 O1310 1.242 1_655 S
C1328 O1313 1.261 . S
C1328 O1314 1.252 . S
C1329 C1332 1.394 . S
C1329 C1334 1.372 . S
C1329 C1335 1.500 . S
C1330 C1333 1.383 1_655 S
C1330 C1334 1.394 1_655 S
C1331 C1332 1.396 . S
C1331 C1333 1.365 . S
C1331 H1340 0.929 . S
C1332 C1329 1.394 . S
C1332 C1331 1.396 . S
C1332 H1341 0.930 . S
C1333 C1330 1.383 1_455 S
C1333 C1331 1.365 . S
C1333 H1342 0.931 . S
C1334 C1329 1.372 . S
C1334 C1330 1.394 1_455 S
C1334 H1343 0.930 1_455 S
C1335 Gd1271 2.805 . S
C1335 O1311 1.263 . S
C1335 O1312 1.252 . S
C1335 C1329 1.500 . S
H1336 C1319 0.929 . S
H1337 C1320 0.930 . S
H1338 C1321 0.931 . S
H1339 C1322 0.930 . S
H1340 C1331 0.929 . S
H1341 C1332 0.930 . S
H1342 C1333 0.931 . S
H1343 C1334 0.930 1_655 S
C1344 C1345 1.369 . S
C1344 C1346 1.419 . S
C1344 H1348 0.930 . S
C1345 C1344 1.369 . S
C1345 C1354 1.429 . S
C1346 C1344 1.419 . S
C1346 C1347 1.363 . S
C1346 H1349 0.929 . S
C1347 C1346 1.363 . S
C1347 C1353 1.428 . S
H1348 C1344 0.930 . S
H1349 C1346 0.929 . S
S1350 N1351 1.613 . S
S1350 N1352 1.610 . S
N1351 S1350 1.613 . S
N1351 C1354 1.350 . S
N1352 S1350 1.610 . S
N1352 C1353 1.351 . S
C1353 C1347 1.428 . S
C1353 N1352 1.351 . S
C1353 C1354 1.434 . S
C1354 C1345 1.429 . S
C1354 N1351 1.350 . S
C1354 C1353 1.434 . S
C1355 C1356 1.369 . S
C1355 C1357 1.419 . S
C1355 H1359 0.930 1_565 S
C1356 C1355 1.369 . S
C1356 C1365 1.429 . S
C1357 C1355 1.419 . S
C1357 C1358 1.363 . S
C1357 H1360 0.929 . S
C1358 C1357 1.363 . S
C1358 C1364 1.428 . S
H1359 C1355 0.930 1_545 S
H1360 C1357 0.929 . S
S1361 N1362 1.613 . S
S1361 N1363 1.610 . S
N1362 S1361 1.613 . S
N1362 C1365 1.350 . S
N1363 S1361 1.610 . S
N1363 C1364 1.351 . S
C1364 C1358 1.428 . S
C1364 N1363 1.351 . S
C1364 C1365 1.434 . S
C1365 C1356 1.429 . S
C1365 N1362 1.350 . S
C1365 C1364 1.434 . S
C1366 C1367 1.369 . S
C1366 C1368 1.419 . S
C1366 H1370 0.930 . S
C1367 C1366 1.369 . S
C1367 C1376 1.429 . S
C1368 C1366 1.419 . S
C1368 C1369 1.363 . S
C1368 H1371 0.929 . S
C1369 C1368 1.363 . S
C1369 C1375 1.428 . S
H1370 C1366 0.930 . S
H1371 C1368 0.929 . S
S1372 N1373 1.613 . S
S1372 N1374 1.610 . S
N1373 S1372 1.613 . S
N1373 C1376 1.350 . S
N1374 S1372 1.610 . S
N1374 C1375 1.351 . S
C1375 C1369 1.428 . S
C1375 N1374 1.351 . S
C1375 C1376 1.434 . S
C1376 C1367 1.429 . S
C1376 N1373 1.350 . S
C1376 C1375 1.434 . S
C1377 C1378 1.369 . S
C1377 C1379 1.419 . S
C1377 H1381 0.930 . S
C1378 C1377 1.369 . S
C1378 C1387 1.429 . S
C1379 C1377 1.419 . S
C1379 C1380 1.363 . S
C1379 H1382 0.929 . S
C1380 C1379 1.363 . S
C1380 C1386 1.428 . S
H1381 C1377 0.930 . S
H1382 C1379 0.929 . S
S1383 N1384 1.614 . S
S1383 N1385 1.610 1_545 S
N1384 S1383 1.614 . S
N1384 C1387 1.350 . S
N1385 S1383 1.610 1_565 S
N1385 C1386 1.351 1_565 S
C1386 C1380 1.428 . S
C1386 N1385 1.351 1_545 S
C1386 C1387 1.434 . S
C1387 C1378 1.429 . S
C1387 N1384 1.350 . S
C1387 C1386 1.434 . S
C1388 C1389 1.369 . S
C1388 C1390 1.419 . S
C1388 H1392 0.930 . S
C1389 C1388 1.369 . S
C1389 C1398 1.429 . S
C1390 C1388 1.419 . S
C1390 C1391 1.363 . S
C1390 H1393 0.929 . S
C1391 C1390 1.363 . S
C1391 C1397 1.428 . S
H1392 C1388 0.930 . S
H1393 C1390 0.929 . S
S1394 N1395 1.613 . S
S1394 N1396 1.610 . S
N1395 S1394 1.613 . S
N1395 C1398 1.350 . S
N1396 S1394 1.610 . S
N1396 C1397 1.351 . S
C1397 C1391 1.428 . S
C1397 N1396 1.351 . S
C1397 C1398 1.434 . S
C1398 C1389 1.429 . S
C1398 N1395 1.350 . S
C1398 C1397 1.434 . S
C1399 C1400 1.369 . S
C1399 C1401 1.419 . S
C1399 H1403 0.930 . S
C1400 C1399 1.369 . S
C1400 C1409 1.429 . S
C1401 C1399 1.419 . S
C1401 C1402 1.363 . S
C1401 H1404 0.929 . S
C1402 C1401 1.363 . S
C1402 C1408 1.428 . S
H1403 C1399 0.930 . S
H1404 C1401 0.929 . S
S1405 N1406 1.613 1_545 S
S1405 N1407 1.610 . S
N1406 S1405 1.613 1_565 S
N1406 C1409 1.350 . S
N1407 S1405 1.610 . S
N1407 C1408 1.351 1_545 S
C1408 C1402 1.428 . S
C1408 N1407 1.351 1_565 S
C1408 C1409 1.434 . S
C1409 C1400 1.429 . S
C1409 N1406 1.350 . S
C1409 C1408 1.434 . S
C1410 C1411 1.369 . S
C1410 C1412 1.419 . S
C1410 H1414 0.930 . S
C1411 C1410 1.369 . S
C1411 C1420 1.429 . S
C1412 C1410 1.419 . S
C1412 C1413 1.363 . S
C1412 H1415 0.929 . S
C1413 C1412 1.363 . S
C1413 C1419 1.428 . S
H1414 C1410 0.930 . S
H1415 C1412 0.929 . S
S1416 N1417 1.613 . S
S1416 N1418 1.610 . S
N1417 S1416 1.613 . S
N1417 C1420 1.350 . S
N1418 S1416 1.610 . S
N1418 C1419 1.351 . S
C1419 C1413 1.428 . S
C1419 N1418 1.351 . S
C1419 C1420 1.434 . S
C1420 C1411 1.429 . S
C1420 N1417 1.350 . S
C1420 C1419 1.434 . S
C1421 C1422 1.369 . S
C1421 C1423 1.419 . S
C1421 H1425 0.930 . S
C1422 C1421 1.369 . S
C1422 C1431 1.429 . S
C1423 C1421 1.419 . S
C1423 C1424 1.363 . S
C1423 H1426 0.929 . S
C1424 C1423 1.363 . S
C1424 C1430 1.428 . S
H1425 C1421 0.930 . S
H1426 C1423 0.929 . S
S1427 N1428 1.613 . S
S1427 N1429 1.610 . S
N1428 S1427 1.613 . S
N1428 C1431 1.350 . S
N1429 S1427 1.610 . S
N1429 C1430 1.351 . S
C1430 C1424 1.428 . S
C1430 N1429 1.351 . S
C1430 C1431 1.434 . S
C1431 C1422 1.429 . S
C1431 N1428 1.350 . S
C1431 C1430 1.434 . S
C1432 C1433 1.369 . S
C1432 C1434 1.419 . S
C1432 H1436 0.930 . S
C1433 C1432 1.369 . S
C1433 C1442 1.429 . S
C1434 C1432 1.419 . S
C1434 C1435 1.363 . S
C1434 H1437 0.929 . S
C1435 C1434 1.363 . S
C1435 C1441 1.428 . S
H1436 C1432 0.930 . S
H1437 C1434 0.929 . S
S1438 N1439 1.613 . S
S1438 N1440 1.610 . S
N1439 S1438 1.613 . S
N1439 C1442 1.350 . S
N1440 S1438 1.610 . S
N1440 C1441 1.351 . S
C1441 C1435 1.428 . S
C1441 N1440 1.351 . S
C1441 C1442 1.434 . S
C1442 C1433 1.429 . S
C1442 N1439 1.350 . S
C1442 C1441 1.434 . S
C1443 C1444 1.369 . S
C1443 C1445 1.419 . S
C1443 H1447 0.930 . S
C1444 C1443 1.369 . S
C1444 C1453 1.429 . S
C1445 C1443 1.419 . S
C1445 C1446 1.363 . S
C1445 H1448 0.929 . S
C1446 C1445 1.363 . S
C1446 C1452 1.428 . S
H1447 C1443 0.930 . S
H1448 C1445 0.929 . S
S1449 N1450 1.613 . S
S1449 N1451 1.610 . S
N1450 S1449 1.613 . S
N1450 C1453 1.350 . S
N1451 S1449 1.610 . S
N1451 C1452 1.351 . S
C1452 C1446 1.428 . S
C1452 N1451 1.351 . S
C1452 C1453 1.434 . S
C1453 C1444 1.429 . S
C1453 N1450 1.350 . S
C1453 C1452 1.434 . S
C1454 C1455 1.369 . S
C1454 C1456 1.419 . S
C1454 H1458 0.930 . S
C1455 C1454 1.369 . S
C1455 C1464 1.429 . S
C1456 C1454 1.419 . S
C1456 C1457 1.363 . S
C1456 H1459 0.929 . S
C1457 C1456 1.363 . S
C1457 C1463 1.428 . S
H1458 C1454 0.930 . S
H1459 C1456 0.929 . S
S1460 N1461 1.613 . S
S1460 N1462 1.610 . S
N1461 S1460 1.613 . S
N1461 C1464 1.350 . S
N1462 S1460 1.610 . S
N1462 C1463 1.351 . S
C1463 C1457 1.428 . S
C1463 N1462 1.351 . S
C1463 C1464 1.434 . S
C1464 C1455 1.429 . S
C1464 N1461 1.350 . S
C1464 C1463 1.434 . S
C1465 C1466 1.369 . S
C1465 C1467 1.419 . S
C1465 H1469 0.930 . S
C1466 C1465 1.369 . S
C1466 C1475 1.429 . S
C1467 C1465 1.419 . S
C1467 C1468 1.363 . S
C1467 H1470 0.929 . S
C1468 C1467 1.363 . S
C1468 C1474 1.428 . S
H1469 C1465 0.930 . S
H1470 C1467 0.929 . S
S1471 N1472 1.613 . S
S1471 N1473 1.610 . S
N1472 S1471 1.613 . S
N1472 C1475 1.350 . S
N1473 S1471 1.610 . S
N1473 C1474 1.351 . S
C1474 C1468 1.428 . S
C1474 N1473 1.351 . S
C1474 C1475 1.434 . S
C1475 C1466 1.429 . S
C1475 N1472 1.350 . S
C1475 C1474 1.434 . S
C1476 C1477 1.369 . S
C1476 C1478 1.419 . S
C1476 H1480 0.930 . S
C1477 C1476 1.369 . S
C1477 C1486 1.429 . S
C1478 C1476 1.419 . S
C1478 C1479 1.363 . S
C1478 H1481 0.929 . S
C1479 C1478 1.363 . S
C1479 C1485 1.428 . S
H1480 C1476 0.930 . S
H1481 C1478 0.929 . S
S1482 N1483 1.613 1_545 S
S1482 N1484 1.610 . S
N1483 S1482 1.613 1_565 S
N1483 C1486 1.350 . S
N1484 S1482 1.610 . S
N1484 C1485 1.351 1_545 S
C1485 C1479 1.428 . S
C1485 N1484 1.351 1_565 S
C1485 C1486 1.434 . S
C1486 C1477 1.429 . S
C1486 N1483 1.350 . S
C1486 C1485 1.434 . S
C1487 C1488 1.369 . S
C1487 C1489 1.419 . S
C1487 H1491 0.930 . S
C1488 C1487 1.369 . S
C1488 C1497 1.429 . S
C1489 C1487 1.419 . S
C1489 C1490 1.363 . S
C1489 H1492 0.929 . S
C1490 C1489 1.363 . S
C1490 C1496 1.428 . S
H1491 C1487 0.930 . S
H1492 C1489 0.929 . S
S1493 N1494 1.613 . S
S1493 N1495 1.610 . S
N1494 S1493 1.613 . S
N1494 C1497 1.350 . S
N1495 S1493 1.610 . S
N1495 C1496 1.351 . S
C1496 C1490 1.428 . S
C1496 N1495 1.351 . S
C1496 C1497 1.434 . S
C1497 C1488 1.429 . S
C1497 N1494 1.350 . S
C1497 C1496 1.434 . S
C1498 C1499 1.369 . S
C1498 C1500 1.419 . S
C1498 H1502 0.930 . S
C1499 C1498 1.369 . S
C1499 C1508 1.429 . S
C1500 C1498 1.419 . S
C1500 C1501 1.363 . S
C1500 H1503 0.929 . S
C1501 C1500 1.363 . S
C1501 C1507 1.428 . S
H1502 C1498 0.930 . S
H1503 C1500 0.929 . S
S1504 N1505 1.613 . S
S1504 N1506 1.610 . S
N1505 S1504 1.613 . S
N1505 C1508 1.350 . S
N1506 S1504 1.610 . S
N1506 C1507 1.351 . S
C1507 C1501 1.428 . S
C1507 N1506 1.351 . S
C1507 C1508 1.434 . S
C1508 C1499 1.429 . S
C1508 N1505 1.350 . S
C1508 C1507 1.434 . S
C1509 C1510 1.369 . S
C1509 C1511 1.419 . S
C1509 H1513 0.930 . S
C1510 C1509 1.369 . S
C1510 C1519 1.429 . S
C1511 C1509 1.419 . S
C1511 C1512 1.363 . S
C1511 H1514 0.929 . S
C1512 C1511 1.363 . S
C1512 C1518 1.428 . S
H1513 C1509 0.930 . S
H1514 C1511 0.929 . S
S1515 N1516 1.613 . S
S1515 N1517 1.610 . S
N1516 S1515 1.613 . S
N1516 C1519 1.350 . S
N1517 S1515 1.610 . S
N1517 C1518 1.351 . S
C1518 C1512 1.428 . S
C1518 N1517 1.351 . S
C1518 C1519 1.434 . S
C1519 C1510 1.429 . S
C1519 N1516 1.350 . S
C1519 C1518 1.434 . S
C1520 C1521 1.369 . S
C1520 C1522 1.419 . S
C1520 H1524 0.930 . S
C1521 C1520 1.369 . S
C1521 C1530 1.429 . S
C1522 C1520 1.419 . S
C1522 C1523 1.363 . S
C1522 H1525 0.929 . S
C1523 C1522 1.363 . S
C1523 C1529 1.428 . S
H1524 C1520 0.930 . S
H1525 C1522 0.929 . S
S1526 N1527 1.613 . S
S1526 N1528 1.610 . S
N1527 S1526 1.613 . S
N1527 C1530 1.350 . S
N1528 S1526 1.610 . S
N1528 C1529 1.351 . S
C1529 C1523 1.428 . S
C1529 N1528 1.351 . S
C1529 C1530 1.434 . S
C1530 C1521 1.429 . S
C1530 N1527 1.350 . S
C1530 C1529 1.434 . S
C1531 C1532 1.369 . S
C1531 C1533 1.419 . S
C1531 H1535 0.930 . S
C1532 C1531 1.369 . S
C1532 C1541 1.429 . S
C1533 C1531 1.419 . S
C1533 C1534 1.363 . S
C1533 H1536 0.929 . S
C1534 C1533 1.363 . S
C1534 C1540 1.428 . S
H1535 C1531 0.930 . S
H1536 C1533 0.929 . S
S1537 N1538 1.613 . S
S1537 N1539 1.610 . S
N1538 S1537 1.613 . S
N1538 C1541 1.350 . S
N1539 S1537 1.610 . S
N1539 C1540 1.351 . S
C1540 C1534 1.428 . S
C1540 N1539 1.351 . S
C1540 C1541 1.434 . S
C1541 C1532 1.429 . S
C1541 N1538 1.350 . S
C1541 C1540 1.434 . S
C1542 C1543 1.369 . S
C1542 C1544 1.419 . S
C1542 H1546 0.930 . S
C1543 C1542 1.369 . S
C1543 C1552 1.429 . S
C1544 C1542 1.419 . S
C1544 C1545 1.363 . S
C1544 H1547 0.929 . S
C1545 C1544 1.363 . S
C1545 C1551 1.428 . S
H1546 C1542 0.930 . S
H1547 C1544 0.929 . S
S1548 N1549 1.613 1_655 S
S1548 N1550 1.610 . S
N1549 S1548 1.613 1_455 S
N1549 C1552 1.350 1_455 S
N1550 S1548 1.610 . S
N1550 C1551 1.351 . S
C1551 C1545 1.428 . S
C1551 N1550 1.351 . S
C1551 C1552 1.434 . S
C1552 C1543 1.429 . S
C1552 N1549 1.350 1_655 S
C1552 C1551 1.434 . S
C1553 C1554 1.369 . S
C1553 C1555 1.419 . S
C1553 H1557 0.930 . S
C1554 C1553 1.369 . S
C1554 C1563 1.429 . S
C1555 C1553 1.419 . S
C1555 C1556 1.363 . S
C1555 H1558 0.929 . S
C1556 C1555 1.363 . S
C1556 C1562 1.428 . S
H1557 C1553 0.930 . S
H1558 C1555 0.929 . S
S1559 N1560 1.613 . S
S1559 N1561 1.610 . S
N1560 S1559 1.613 . S
N1560 C1563 1.350 . S
N1561 S1559 1.610 . S
N1561 C1562 1.351 . S
C1562 C1556 1.428 . S
C1562 N1561 1.351 . S
C1562 C1563 1.434 . S
C1563 C1554 1.429 . S
C1563 N1560 1.350 . S
C1563 C1562 1.434 . S
C1564 C1565 1.369 . S
C1564 C1566 1.419 . S
C1564 H1568 0.930 . S
C1565 C1564 1.369 . S
C1565 C1574 1.429 . S
C1566 C1564 1.419 . S
C1566 C1567 1.363 . S
C1566 H1569 0.929 . S
C1567 C1566 1.363 . S
C1567 C1573 1.428 . S
H1568 C1564 0.930 . S
H1569 C1566 0.929 . S
S1570 N1571 1.613 . S
S1570 N1572 1.610 . S
N1571 S1570 1.613 . S
N1571 C1574 1.350 . S
N1572 S1570 1.610 . S
N1572 C1573 1.351 . S
C1573 C1567 1.428 . S
C1573 N1572 1.351 . S
C1573 C1574 1.434 . S
C1574 C1565 1.429 . S
C1574 N1571 1.350 . S
C1574 C1573 1.434 . S
C1575 C1576 1.369 . S
C1575 C1577 1.419 . S
C1575 H1579 0.930 . S
C1576 C1575 1.369 . S
C1576 C1585 1.429 . S
C1577 C1575 1.419 . S
C1577 C1578 1.363 . S
C1577 H1580 0.929 . S
C1578 C1577 1.363 . S
C1578 C1584 1.428 . S
H1579 C1575 0.930 . S
H1580 C1577 0.929 . S
S1581 N1582 1.613 . S
S1581 N1583 1.610 . S
N1582 S1581 1.613 . S
N1582 C1585 1.350 . S
N1583 S1581 1.610 . S
N1583 C1584 1.351 . S
C1584 C1578 1.428 . S
C1584 N1583 1.351 . S
C1584 C1585 1.434 . S
C1585 C1576 1.429 . S
C1585 N1582 1.350 . S
C1585 C1584 1.434 . S
C1586 C1587 1.369 . S
C1586 C1588 1.419 . S
C1586 H1590 0.930 . S
C1587 C1586 1.369 . S
C1587 C1596 1.429 . S
C1588 C1586 1.419 . S
C1588 C1589 1.363 . S
C1588 H1591 0.929 . S
C1589 C1588 1.363 . S
C1589 C1595 1.428 . S
H1590 C1586 0.930 . S
H1591 C1588 0.929 . S
S1592 N1593 1.613 . S
S1592 N1594 1.610 . S
N1593 S1592 1.613 . S
N1593 C1596 1.350 . S
N1594 S1592 1.610 . S
N1594 C1595 1.351 . S
C1595 C1589 1.428 . S
C1595 N1594 1.351 . S
C1595 C1596 1.434 . S
C1596 C1587 1.429 . S
C1596 N1593 1.350 . S
C1596 C1595 1.434 . S
C1597 C1598 1.369 . S
C1597 C1599 1.419 . S
C1597 H1601 0.930 . S
C1598 C1597 1.369 . S
C1598 C1607 1.429 . S
C1599 C1597 1.419 . S
C1599 C1600 1.363 . S
C1599 H1602 0.929 . S
C1600 C1599 1.363 . S
C1600 C1606 1.428 . S
H1601 C1597 0.930 . S
H1602 C1599 0.929 . S
S1603 N1604 1.613 . S
S1603 N1605 1.610 . S
N1604 S1603 1.613 . S
N1604 C1607 1.350 . S
N1605 S1603 1.610 . S
N1605 C1606 1.351 . S
C1606 C1600 1.428 . S
C1606 N1605 1.351 . S
C1606 C1607 1.434 . S
C1607 C1598 1.429 . S
C1607 N1604 1.350 . S
C1607 C1606 1.434 . S
C1608 C1609 1.369 . S
C1608 C1610 1.419 . S
C1608 H1612 0.930 . S
C1609 C1608 1.369 . S
C1609 C1618 1.429 . S
C1610 C1608 1.419 . S
C1610 C1611 1.363 . S
C1610 H1613 0.929 . S
C1611 C1610 1.363 . S
C1611 C1617 1.428 . S
H1612 C1608 0.930 . S
H1613 C1610 0.929 . S
S1614 N1615 1.613 . S
S1614 N1616 1.610 . S
N1615 S1614 1.613 . S
N1615 C1618 1.350 . S
N1616 S1614 1.610 . S
N1616 C1617 1.351 . S
C1617 C1611 1.428 . S
C1617 N1616 1.351 . S
C1617 C1618 1.434 . S
C1618 C1609 1.429 . S
C1618 N1615 1.350 . S
C1618 C1617 1.434 . S
C1619 C1620 1.369 . S
C1619 C1621 1.419 . S
C1619 H1623 0.930 . S
C1620 C1619 1.369 . S
C1620 C1629 1.429 . S
C1621 C1619 1.419 . S
C1621 C1622 1.363 . S
C1621 H1624 0.929 . S
C1622 C1621 1.363 . S
C1622 C1628 1.428 . S
H1623 C1619 0.930 . S
H1624 C1621 0.929 . S
S1625 N1626 1.613 . S
S1625 N1627 1.610 . S
N1626 S1625 1.613 . S
N1626 C1629 1.350 . S
N1627 S1625 1.610 . S
N1627 C1628 1.351 . S
C1628 C1622 1.428 . S
C1628 N1627 1.351 . S
C1628 C1629 1.434 . S
C1629 C1620 1.429 . S
C1629 N1626 1.350 . S
C1629 C1628 1.434 . S
C1630 C1631 1.369 . S
C1630 C1632 1.419 . S
C1630 H1634 0.930 . S
C1631 C1630 1.369 . S
C1631 C1640 1.429 . S
C1632 C1630 1.419 . S
C1632 C1633 1.363 . S
C1632 H1635 0.929 . S
C1633 C1632 1.363 . S
C1633 C1639 1.428 . S
H1634 C1630 0.930 . S
H1635 C1632 0.929 . S
S1636 N1637 1.613 . S
S1636 N1638 1.610 . S
N1637 S1636 1.613 . S
N1637 C1640 1.350 . S
N1638 S1636 1.610 . S
N1638 C1639 1.351 . S
C1639 C1633 1.428 . S
C1639 N1638 1.351 . S
C1639 C1640 1.434 . S
C1640 C1631 1.429 . S
C1640 N1637 1.350 . S
C1640 C1639 1.434 . S
C1641 C1642 1.369 . S
C1641 C1643 1.419 . S
C1641 H1645 0.930 . S
C1642 C1641 1.369 . S
C1642 C1651 1.429 . S
C1643 C1641 1.419 . S
C1643 C1644 1.363 . S
C1643 H1646 0.929 . S
C1644 C1643 1.363 . S
C1644 C1650 1.428 . S
H1645 C1641 0.930 . S
H1646 C1643 0.929 . S
S1647 N1648 1.613 . S
S1647 N1649 1.610 . S
N1648 S1647 1.613 . S
N1648 C1651 1.350 . S
N1649 S1647 1.610 . S
N1649 C1650 1.351 . S
C1650 C1644 1.428 . S
C1650 N1649 1.351 . S
C1650 C1651 1.434 . S
C1651 C1642 1.429 . S
C1651 N1648 1.350 . S
C1651 C1650 1.434 . S
C1652 C1653 1.369 . S
C1652 C1654 1.419 . S
C1652 H1656 0.930 . S
C1653 C1652 1.369 . S
C1653 C1662 1.429 . S
C1654 C1652 1.419 . S
C1654 C1655 1.363 . S
C1654 H1657 0.929 . S
C1655 C1654 1.363 . S
C1655 C1661 1.428 . S
H1656 C1652 0.930 . S
H1657 C1654 0.929 . S
S1658 N1659 1.613 1_545 S
S1658 N1660 1.610 1_545 S
N1659 S1658 1.613 1_565 S
N1659 C1662 1.350 . S
N1660 S1658 1.610 1_565 S
N1660 C1661 1.351 . S
C1661 C1655 1.428 . S
C1661 N1660 1.351 . S
C1661 C1662 1.434 . S
C1662 C1653 1.429 . S
C1662 N1659 1.350 . S
C1662 C1661 1.434 . S
C1663 C1664 1.369 . S
C1663 C1665 1.419 . S
C1663 H1667 0.930 . S
C1664 C1663 1.369 . S
C1664 C1673 1.429 . S
C1665 C1663 1.419 . S
C1665 C1666 1.363 . S
C1665 H1668 0.929 . S
C1666 C1665 1.363 . S
C1666 C1672 1.428 . S
H1667 C1663 0.930 . S
H1668 C1665 0.929 . S
S1669 N1670 1.613 1_545 S
S1669 N1671 1.610 . S
N1670 S1669 1.613 1_565 S
N1670 C1673 1.350 . S
N1671 S1669 1.610 . S
N1671 C1672 1.351 1_545 S
C1672 C1666 1.428 . S
C1672 N1671 1.351 1_565 S
C1672 C1673 1.434 . S
C1673 C1664 1.429 . S
C1673 N1670 1.350 . S
C1673 C1672 1.434 . S
C1674 C1675 1.369 . S
C1674 C1676 1.419 . S
C1674 H1678 0.930 . S
C1675 C1674 1.369 . S
C1675 C1684 1.429 . S
C1676 C1674 1.419 . S
C1676 C1677 1.363 . S
C1676 H1679 0.929 . S
C1677 C1676 1.363 . S
C1677 C1683 1.428 . S
H1678 C1674 0.930 . S
H1679 C1676 0.929 . S
S1680 N1681 1.613 . S
S1680 N1682 1.610 . S
N1681 S1680 1.613 . S
N1681 C1684 1.350 . S
N1682 S1680 1.610 . S
N1682 C1683 1.351 . S
C1683 C1677 1.428 . S
C1683 N1682 1.351 . S
C1683 C1684 1.434 . S
C1684 C1675 1.429 . S
C1684 N1681 1.350 . S
C1684 C1683 1.434 . S
C1685 C1686 1.369 . S
C1685 C1687 1.419 . S
C1685 H1689 0.930 . S
C1686 C1685 1.369 . S
C1686 C1695 1.429 . S
C1687 C1685 1.419 . S
C1687 C1688 1.363 . S
C1687 H1690 0.929 . S
C1688 C1687 1.363 . S
C1688 C1694 1.428 . S
H1689 C1685 0.930 . S
H1690 C1687 0.929 . S
S1691 N1692 1.613 . S
S1691 N1693 1.610 . S
N1692 S1691 1.613 . S
N1692 C1695 1.350 . S
N1693 S1691 1.610 . S
N1693 C1694 1.351 . S
C1694 C1688 1.428 . S
C1694 N1693 1.351 . S
C1694 C1695 1.434 . S
C1695 C1686 1.429 . S
C1695 N1692 1.350 . S
C1695 C1694 1.434 . S
C1696 C1697 1.369 . S
C1696 C1698 1.419 . S
C1696 H1700 0.930 . S
C1697 C1696 1.369 . S
C1697 C1706 1.429 . S
C1698 C1696 1.419 . S
C1698 C1699 1.363 . S
C1698 H1701 0.929 . S
C1699 C1698 1.363 . S
C1699 C1705 1.428 . S
H1700 C1696 0.930 . S
H1701 C1698 0.929 . S
S1702 N1703 1.613 . S
S1702 N1704 1.610 . S
N1703 S1702 1.613 . S
N1703 C1706 1.350 . S
N1704 S1702 1.610 . S
N1704 C1705 1.351 . S
C1705 C1699 1.428 . S
C1705 N1704 1.351 . S
C1705 C1706 1.434 . S
C1706 C1697 1.429 . S
C1706 N1703 1.350 . S
C1706 C1705 1.434 . S
C1707 C1708 1.369 . S
C1707 C1709 1.419 . S
C1707 H1711 0.930 . S
C1708 C1707 1.369 . S
C1708 C1717 1.429 . S
C1709 C1707 1.419 . S
C1709 C1710 1.363 . S
C1709 H1712 0.929 . S
C1710 C1709 1.363 . S
C1710 C1716 1.428 . S
H1711 C1707 0.930 . S
H1712 C1709 0.929 . S
S1713 N1714 1.613 . S
S1713 N1715 1.610 . S
N1714 S1713 1.613 . S
N1714 C1717 1.350 . S
N1715 S1713 1.610 . S
N1715 C1716 1.351 . S
C1716 C1710 1.428 . S
C1716 N1715 1.351 . S
C1716 C1717 1.434 . S
C1717 C1708 1.429 . S
C1717 N1714 1.350 . S
C1717 C1716 1.434 . S
C1718 C1719 1.369 . S
C1718 C1720 1.419 . S
C1718 H1722 0.930 . S
C1719 C1718 1.369 . S
C1719 C1728 1.429 . S
C1720 C1718 1.419 . S
C1720 C1721 1.363 . S
C1720 H1723 0.929 . S
C1721 C1720 1.363 . S
C1721 C1727 1.428 . S
H1722 C1718 0.930 . S
H1723 C1720 0.929 . S
S1724 N1725 1.613 . S
S1724 N1726 1.610 . S
N1725 S1724 1.613 . S
N1725 C1728 1.350 . S
N1726 S1724 1.610 . S
N1726 C1727 1.351 . S
C1727 C1721 1.428 . S
C1727 N1726 1.351 . S
C1727 C1728 1.434 . S
C1728 C1719 1.429 . S
C1728 N1725 1.350 . S
C1728 C1727 1.434 . S
C1729 C1730 1.369 . S
C1729 C1731 1.419 . S
C1729 H1733 0.930 . S
C1730 C1729 1.369 . S
C1730 C1739 1.429 . S
C1731 C1729 1.419 . S
C1731 C1732 1.363 . S
C1731 H1734 0.929 . S
C1732 C1731 1.363 . S
C1732 C1738 1.428 . S
H1733 C1729 0.930 . S
H1734 C1731 0.929 . S
S1735 N1736 1.613 . S
S1735 N1737 1.610 . S
N1736 S1735 1.613 . S
N1736 C1739 1.350 . S
N1737 S1735 1.610 . S
N1737 C1738 1.351 . S
C1738 C1732 1.428 . S
C1738 N1737 1.351 . S
C1738 C1739 1.434 . S
C1739 C1730 1.429 . S
C1739 N1736 1.350 . S
C1739 C1738 1.434 . S
C1740 C1741 1.369 . S
C1740 C1742 1.419 . S
C1740 H1744 0.930 . S
C1741 C1740 1.369 . S
C1741 C1750 1.429 . S
C1742 C1740 1.419 . S
C1742 C1743 1.363 . S
C1742 H1745 0.929 . S
C1743 C1742 1.363 . S
C1743 C1749 1.428 . S
H1744 C1740 0.930 . S
H1745 C1742 0.929 . S
S1746 N1747 1.613 . S
S1746 N1748 1.610 . S
N1747 S1746 1.613 . S
N1747 C1750 1.350 . S
N1748 S1746 1.610 . S
N1748 C1749 1.351 . S
C1749 C1743 1.428 . S
C1749 N1748 1.351 . S
C1749 C1750 1.434 . S
C1750 C1741 1.429 . S
C1750 N1747 1.350 . S
C1750 C1749 1.434 . S
C1751 C1752 1.369 . S
C1751 C1753 1.419 . S
C1751 H1755 0.930 . S
C1752 C1751 1.369 . S
C1752 C1761 1.429 . S
C1753 C1751 1.419 . S
C1753 C1754 1.363 . S
C1753 H1756 0.929 . S
C1754 C1753 1.363 . S
C1754 C1760 1.428 . S
H1755 C1751 0.930 . S
H1756 C1753 0.929 . S
S1757 N1758 1.613 . S
S1757 N1759 1.610 . S
N1758 S1757 1.613 . S
N1758 C1761 1.350 . S
N1759 S1757 1.610 . S
N1759 C1760 1.351 . S
C1760 C1754 1.428 . S
C1760 N1759 1.351 . S
C1760 C1761 1.434 . S
C1761 C1752 1.429 . S
C1761 N1758 1.350 . S
C1761 C1760 1.434 . S
C1762 C1763 1.369 . S
C1762 C1764 1.419 . S
C1762 H1766 0.930 . S
C1763 C1762 1.369 . S
C1763 C1772 1.429 . S
C1764 C1762 1.419 . S
C1764 C1765 1.363 . S
C1764 H1767 0.929 . S
C1765 C1764 1.363 . S
C1765 C1771 1.428 . S
H1766 C1762 0.930 . S
H1767 C1764 0.929 . S
S1768 N1769 1.613 . S
S1768 N1770 1.610 . S
N1769 S1768 1.613 . S
N1769 C1772 1.350 . S
N1770 S1768 1.610 . S
N1770 C1771 1.351 . S
C1771 C1765 1.428 . S
C1771 N1770 1.351 . S
C1771 C1772 1.434 . S
C1772 C1763 1.429 . S
C1772 N1769 1.350 . S
C1772 C1771 1.434 . S
C1773 C1774 1.369 . S
C1773 C1775 1.419 . S
C1773 H1777 0.930 . S
C1774 C1773 1.369 . S
C1774 C1783 1.429 . S
C1775 C1773 1.419 . S
C1775 C1776 1.363 . S
C1775 H1778 0.929 . S
C1776 C1775 1.363 . S
C1776 C1782 1.428 . S
H1777 C1773 0.930 . S
H1778 C1775 0.929 . S
S1779 N1780 1.613 . S
S1779 N1781 1.610 . S
N1780 S1779 1.613 . S
N1780 C1783 1.350 . S
N1781 S1779 1.610 . S
N1781 C1782 1.351 . S
C1782 C1776 1.428 . S
C1782 N1781 1.351 . S
C1782 C1783 1.434 . S
C1783 C1774 1.429 . S
C1783 N1780 1.350 . S
C1783 C1782 1.434 . S
C1784 C1785 1.369 . S
C1784 C1786 1.419 . S
C1784 H1788 0.930 . S
C1785 C1784 1.369 . S
C1785 C1794 1.429 . S
C1786 C1784 1.419 . S
C1786 C1787 1.363 . S
C1786 H1789 0.929 . S
C1787 C1786 1.363 . S
C1787 C1793 1.428 . S
H1788 C1784 0.930 . S
H1789 C1786 0.929 . S
S1790 N1791 1.613 . S
S1790 N1792 1.610 . S
N1791 S1790 1.613 . S
N1791 C1794 1.350 . S
N1792 S1790 1.610 . S
N1792 C1793 1.351 . S
C1793 C1787 1.428 . S
C1793 N1792 1.351 . S
C1793 C1794 1.434 . S
C1794 C1785 1.429 . S
C1794 N1791 1.350 . S
C1794 C1793 1.434 . S
C1795 C1796 1.369 . S
C1795 C1797 1.419 . S
C1795 H1799 0.930 . S
C1796 C1795 1.369 . S
C1796 C1805 1.429 . S
C1797 C1795 1.419 . S
C1797 C1798 1.363 . S
C1797 H1800 0.929 . S
C1798 C1797 1.363 . S
C1798 C1804 1.428 . S
H1799 C1795 0.930 . S
H1800 C1797 0.929 . S
S1801 N1802 1.613 . S
S1801 N1803 1.610 . S
N1802 S1801 1.613 . S
N1802 C1805 1.350 . S
N1803 S1801 1.610 . S
N1803 C1804 1.351 . S
C1804 C1798 1.428 . S
C1804 N1803 1.351 . S
C1804 C1805 1.434 . S
C1805 C1796 1.429 . S
C1805 N1802 1.350 . S
C1805 C1804 1.434 . S
C1806 C1807 1.369 . S
C1806 C1808 1.419 . S
C1806 H1810 0.930 . S
C1807 C1806 1.369 . S
C1807 C1816 1.429 . S
C1808 C1806 1.419 . S
C1808 C1809 1.363 . S
C1808 H1811 0.929 . S
C1809 C1808 1.363 . S
C1809 C1815 1.428 . S
H1810 C1806 0.930 . S
H1811 C1808 0.929 . S
S1812 N1813 1.613 . S
S1812 N1814 1.610 . S
N1813 S1812 1.613 . S
N1813 C1816 1.350 . S
N1814 S1812 1.610 . S
N1814 C1815 1.351 . S
C1815 C1809 1.428 . S
C1815 N1814 1.351 . S
C1815 C1816 1.434 . S
C1816 C1807 1.429 . S
C1816 N1813 1.350 . S
C1816 C1815 1.434 . S
C1817 C1818 1.369 . S
C1817 C1819 1.419 . S
C1817 H1821 0.930 . S
C1818 C1817 1.369 . S
C1818 C1827 1.429 . S
C1819 C1817 1.419 . S
C1819 C1820 1.363 . S
C1819 H1822 0.929 . S
C1820 C1819 1.363 . S
C1820 C1826 1.428 . S
H1821 C1817 0.930 . S
H1822 C1819 0.929 . S
S1823 N1824 1.613 1_455 S
S1823 N1825 1.610 . S
N1824 S1823 1.613 1_655 S
N1824 C1827 1.350 . S
N1825 S1823 1.610 . S
N1825 C1826 1.351 1_455 S
C1826 C1820 1.428 . S
C1826 N1825 1.351 1_655 S
C1826 C1827 1.434 . S
C1827 C1818 1.429 . S
C1827 N1824 1.350 . S
C1827 C1826 1.434 . S
C1828 C1829 1.369 . S
C1828 C1830 1.419 . S
C1828 H1832 0.930 . S
C1829 C1828 1.369 . S
C1829 C1838 1.429 . S
C1830 C1828 1.419 . S
C1830 C1831 1.363 . S
C1830 H1833 0.929 . S
C1831 C1830 1.363 . S
C1831 C1837 1.428 . S
H1832 C1828 0.930 . S
H1833 C1830 0.929 . S
S1834 N1835 1.613 . S
S1834 N1836 1.610 . S
N1835 S1834 1.613 . S
N1835 C1838 1.350 . S
N1836 S1834 1.610 . S
N1836 C1837 1.351 . S
C1837 C1831 1.428 . S
C1837 N1836 1.351 . S
C1837 C1838 1.434 . S
C1838 C1829 1.429 . S
C1838 N1835 1.350 . S
C1838 C1837 1.434 . S
C1839 C1840 1.369 . S
C1839 C1841 1.419 . S
C1839 H1843 0.930 . S
C1840 C1839 1.369 . S
C1840 C1849 1.429 . S
C1841 C1839 1.419 . S
C1841 C1842 1.363 . S
C1841 H1844 0.929 . S
C1842 C1841 1.363 . S
C1842 C1848 1.428 . S
H1843 C1839 0.930 . S
H1844 C1841 0.929 . S
S1845 N1846 1.613 . S
S1845 N1847 1.610 . S
N1846 S1845 1.613 . S
N1846 C1849 1.350 . S
N1847 S1845 1.610 . S
N1847 C1848 1.351 . S
C1848 C1842 1.428 . S
C1848 N1847 1.351 . S
C1848 C1849 1.434 . S
C1849 C1840 1.429 . S
C1849 N1846 1.350 . S
C1849 C1848 1.434 . S
C1850 C1851 1.369 . S
C1850 C1852 1.419 . S
C1850 H1854 0.930 . S
C1851 C1850 1.369 . S
C1851 C1860 1.429 . S
C1852 C1850 1.419 . S
C1852 C1853 1.363 . S
C1852 H1855 0.929 . S
C1853 C1852 1.363 . S
C1853 C1859 1.428 . S
H1854 C1850 0.930 . S
H1855 C1852 0.929 . S
S1856 N1857 1.613 . S
S1856 N1858 1.610 . S
N1857 S1856 1.613 . S
N1857 C1860 1.350 1_554 S
N1858 S1856 1.610 . S
N1858 C1859 1.351 1_554 S
C1859 C1853 1.428 . S
C1859 N1858 1.351 1_556 S
C1859 C1860 1.434 . S
C1860 C1851 1.429 . S
C1860 N1857 1.350 1_556 S
C1860 C1859 1.434 . S
C1861 C1862 1.369 . S
C1861 C1863 1.419 . S
C1861 H1865 0.930 . S
C1862 C1861 1.369 . S
C1862 C1871 1.429 . S
C1863 C1861 1.419 . S
C1863 C1864 1.363 . S
C1863 H1866 0.929 . S
C1864 C1863 1.363 . S
C1864 C1870 1.428 . S
H1865 C1861 0.930 . S
H1866 C1863 0.929 . S
S1867 N1868 1.613 . S
S1867 N1869 1.610 . S
N1868 S1867 1.613 . S
N1868 C1871 1.350 . S
N1869 S1867 1.610 . S
N1869 C1870 1.351 . S
C1870 C1864 1.428 . S
C1870 N1869 1.351 . S
C1870 C1871 1.434 . S
C1871 C1862 1.429 . S
C1871 N1868 1.350 . S
C1871 C1870 1.434 . S
C1345 C307 1.827 . S
C1347 C68 1.827 . S
C1356 C70 0.906 1_565 S
C1358 C142 0.860 . S
C1367 C224 2.062 . S
C1369 C140 2.101 . S
C1378 C322 1.461 . S
C1380 C235 1.704 . S
C1389 C406 0.864 . S
C1391 C490 0.861 . S
C1400 C488 2.093 . S
C1402 C560 2.159 1_566 S
C1411 C562 0.727 . S
C1413 C655 0.777 . S
C1422 C391 1.681 . S
C1424 C644 1.683 . S
C1433 C811 3.728 . S
C1435 C55 3.730 . S
C1444 C907 1.386 . S
C1446 C151 1.406 . S
C1455 C226 2.692 . S
C1457 C1147 2.803 . S
C1466 C740 1.861 . S
C1468 C320 1.826 . S
C1477 C992 1.544 . S
C1479 C404 1.605 . S
C1488 C1231 3.888 . S
C1490 C475 3.888 . S
C1499 C571 2.208 1_556 S
C1501 C1075 2.227 . S
C1510 C1318 1.416 . S
C1512 C646 1.498 . S
C1521 C727 1.905 . S
C1523 C1160 1.858 . S
C1532 C826 1.088 . S
C1534 C742 1.039 . S
C1543 C896 1.443 . S
C1545 C824 1.548 . S
C1554 C1244 1.733 . S
C1556 C979 1.738 . S
C1565 C1064 1.524 . S
C1567 C1316 1.497 . S
C1576 C991 1.735 . S
C1578 C56 1.734 . S
C1587 C1078 0.786 . S
C1589 C58 0.888 . S
C1598 C1076 1.524 . S
C1600 C236 1.498 . S
C1609 C223 1.216 . S
C1611 C982 0.977 . S
C1620 C814 1.082 . S
C1622 C394 1.050 . S
C1631 C812 1.547 . S
C1633 C572 1.442 . S
C1642 C1150 0.771 . S
C1644 C574 0.920 . S
C1653 C403 1.906 . S
C1655 C1148 1.856 . S
C1664 C487 3.887 . S
C1666 C67 3.888 . S
C1675 C895 2.210 . S
C1677 C1063 2.226 . S
C1686 C238 1.415 . S
C1688 C658 1.495 . S
C1697 C728 1.605 . S
C1699 C980 1.541 . S
C1708 C308 1.828 . S
C1710 C392 1.861 . S
C1719 C823 3.728 . S
C1721 C1243 3.730 . S
C1730 C559 1.390 1_565 S
C1732 C139 1.402 . S
C1741 C1330 2.695 . S
C1743 C1159 2.800 . S
C1752 C739 1.681 . S
C1754 C656 1.683 . S
C1763 C730 0.857 . S
C1765 C478 0.866 . S
C1774 C908 2.160 . S
C1776 C476 2.097 . S
C1785 C319 1.827 . S
C1787 C1232 1.827 . S
C1796 C152 2.101 . S
C1798 C1328 2.062 . S
C1807 C1066 0.798 . S
C1809 C1246 0.876 . S
C1818 C994 0.975 . S
C1820 C1327 1.214 . S
C1829 C898 0.926 . S
C1831 C1162 0.744 . S
C1840 C1234 0.906 . S
C1842 C154 0.857 . S
C1851 C310 1.463 . S
C1853 C1315 1.703 . S
C1862 C643 0.777 . S
C1864 C910 0.733 . S
