# Generated by pormake.
# Topology uox, (4)-cn, num edge types: 1
# Building blocks:
#     Node 0, Type 0, BuildingBlock: QUQFOY_clean_sbu_3, # of connection points: 4
#     Node 1, Type 0, BuildingBlock: QUQFOY_clean_sbu_3, # of connection points: 4
#     Node 2, Type 0, BuildingBlock: QUQFOY_clean_sbu_3, # of connection points: 4
#     Node 3, Type 0, BuildingBlock: QUQFOY_clean_sbu_3, # of connection points: 4
#     Node 4, Type 0, BuildingBlock: QUQFOY_clean_sbu_3, # of connection points: 4
#     Node 5, Type 0, BuildingBlock: QUQFOY_clean_sbu_3, # of connection points: 4
#     Node 6, Type 0, BuildingBlock: QUQFOY_clean_sbu_3, # of connection points: 4
#     Node 7, Type 0, BuildingBlock: QUQFOY_clean_sbu_3, # of connection points: 4
#     Node 8, Type 0, BuildingBlock: QUQFOY_clean_sbu_3, # of connection points: 4
#     Node 9, Type 0, BuildingBlock: QUQFOY_clean_sbu_3, # of connection points: 4
#     Node 10, Type 0, BuildingBlock: QUQFOY_clean_sbu_3, # of connection points: 4
#     Node 11, Type 0, BuildingBlock: QUQFOY_clean_sbu_3, # of connection points: 4
#     Node 12, Type 0, BuildingBlock: QUQFOY_clean_sbu_3, # of connection points: 4
#     Node 13, Type 0, BuildingBlock: QUQFOY_clean_sbu_3, # of connection points: 4
#     Node 14, Type 0, BuildingBlock: QUQFOY_clean_sbu_3, # of connection points: 4
#     Node 15, Type 0, BuildingBlock: QUQFOY_clean_sbu_3, # of connection points: 4
#     Node 16, Type 0, BuildingBlock: QUQFOY_clean_sbu_3, # of connection points: 4
#     Node 17, Type 0, BuildingBlock: QUQFOY_clean_sbu_3, # of connection points: 4
#     Node 18, Type 0, BuildingBlock: QUQFOY_clean_sbu_3, # of connection points: 4
#     Node 19, Type 0, BuildingBlock: QUQFOY_clean_sbu_3, # of connection points: 4
#     Node 20, Type 0, BuildingBlock: QUQFOY_clean_sbu_3, # of connection points: 4
#     Node 21, Type 0, BuildingBlock: QUQFOY_clean_sbu_3, # of connection points: 4
#     Node 22, Type 0, BuildingBlock: QUQFOY_clean_sbu_3, # of connection points: 4
#     Node 23, Type 0, BuildingBlock: QUQFOY_clean_sbu_3, # of connection points: 4
#     Node 24, Type 0, BuildingBlock: QUQFOY_clean_sbu_3, # of connection points: 4
#     Node 25, Type 0, BuildingBlock: QUQFOY_clean_sbu_3, # of connection points: 4
#     Node 26, Type 0, BuildingBlock: QUQFOY_clean_sbu_3, # of connection points: 4
#     Node 27, Type 0, BuildingBlock: QUQFOY_clean_sbu_3, # of connection points: 4
#     Node 28, Type 0, BuildingBlock: QUQFOY_clean_sbu_3, # of connection points: 4
#     Node 29, Type 0, BuildingBlock: QUQFOY_clean_sbu_3, # of connection points: 4
#     Node 30, Type 0, BuildingBlock: QUQFOY_clean_sbu_3, # of connection points: 4
#     Node 31, Type 0, BuildingBlock: QUQFOY_clean_sbu_3, # of connection points: 4
#     Edge 32, Type (0, 0), BuildingBlock: OJICUG_clean_linker_0, # of connection points: 2
#     Edge 33, Type (0, 0), BuildingBlock: OJICUG_clean_linker_0, # of connection points: 2
#     Edge 34, Type (0, 0), BuildingBlock: OJICUG_clean_linker_0, # of connection points: 2
#     Edge 35, Type (0, 0), BuildingBlock: OJICUG_clean_linker_0, # of connection points: 2
#     Edge 36, Type (0, 0), BuildingBlock: OJICUG_clean_linker_0, # of connection points: 2
#     Edge 37, Type (0, 0), BuildingBlock: OJICUG_clean_linker_0, # of connection points: 2
#     Edge 38, Type (0, 0), BuildingBlock: OJICUG_clean_linker_0, # of connection points: 2
#     Edge 39, Type (0, 0), BuildingBlock: OJICUG_clean_linker_0, # of connection points: 2
#     Edge 40, Type (0, 0), BuildingBlock: OJICUG_clean_linker_0, # of connection points: 2
#     Edge 41, Type (0, 0), BuildingBlock: OJICUG_clean_linker_0, # of connection points: 2
#     Edge 42, Type (0, 0), BuildingBlock: OJICUG_clean_linker_0, # of connection points: 2
#     Edge 43, Type (0, 0), BuildingBlock: OJICUG_clean_linker_0, # of connection points: 2
#     Edge 44, Type (0, 0), BuildingBlock: OJICUG_clean_linker_0, # of connection points: 2
#     Edge 45, Type (0, 0), BuildingBlock: OJICUG_clean_linker_0, # of connection points: 2
#     Edge 46, Type (0, 0), BuildingBlock: OJICUG_clean_linker_0, # of connection points: 2
#     Edge 47, Type (0, 0), BuildingBlock: OJICUG_clean_linker_0, # of connection points: 2
#     Edge 48, Type (0, 0), BuildingBlock: OJICUG_clean_linker_0, # of connection points: 2
#     Edge 49, Type (0, 0), BuildingBlock: OJICUG_clean_linker_0, # of connection points: 2
#     Edge 50, Type (0, 0), BuildingBlock: OJICUG_clean_linker_0, # of connection points: 2
#     Edge 51, Type (0, 0), BuildingBlock: OJICUG_clean_linker_0, # of connection points: 2
#     Edge 52, Type (0, 0), BuildingBlock: OJICUG_clean_linker_0, # of connection points: 2
#     Edge 53, Type (0, 0), BuildingBlock: OJICUG_clean_linker_0, # of connection points: 2
#     Edge 54, Type (0, 0), BuildingBlock: OJICUG_clean_linker_0, # of connection points: 2
#     Edge 55, Type (0, 0), BuildingBlock: OJICUG_clean_linker_0, # of connection points: 2
#     Edge 56, Type (0, 0), BuildingBlock: OJICUG_clean_linker_0, # of connection points: 2
#     Edge 57, Type (0, 0), BuildingBlock: OJICUG_clean_linker_0, # of connection points: 2
#     Edge 58, Type (0, 0), BuildingBlock: OJICUG_clean_linker_0, # of connection points: 2
#     Edge 59, Type (0, 0), BuildingBlock: OJICUG_clean_linker_0, # of connection points: 2
#     Edge 60, Type (0, 0), BuildingBlock: OJICUG_clean_linker_0, # of connection points: 2
#     Edge 61, Type (0, 0), BuildingBlock: OJICUG_clean_linker_0, # of connection points: 2
#     Edge 62, Type (0, 0), BuildingBlock: OJICUG_clean_linker_0, # of connection points: 2
#     Edge 63, Type (0, 0), BuildingBlock: OJICUG_clean_linker_0, # of connection points: 2
#     Edge 64, Type (0, 0), BuildingBlock: OJICUG_clean_linker_0, # of connection points: 2
#     Edge 65, Type (0, 0), BuildingBlock: OJICUG_clean_linker_0, # of connection points: 2
#     Edge 66, Type (0, 0), BuildingBlock: OJICUG_clean_linker_0, # of connection points: 2
#     Edge 67, Type (0, 0), BuildingBlock: OJICUG_clean_linker_0, # of connection points: 2
#     Edge 68, Type (0, 0), BuildingBlock: OJICUG_clean_linker_0, # of connection points: 2
#     Edge 69, Type (0, 0), BuildingBlock: OJICUG_clean_linker_0, # of connection points: 2
#     Edge 70, Type (0, 0), BuildingBlock: OJICUG_clean_linker_0, # of connection points: 2
#     Edge 71, Type (0, 0), BuildingBlock: OJICUG_clean_linker_0, # of connection points: 2
#     Edge 72, Type (0, 0), BuildingBlock: OJICUG_clean_linker_0, # of connection points: 2
#     Edge 73, Type (0, 0), BuildingBlock: OJICUG_clean_linker_0, # of connection points: 2
#     Edge 74, Type (0, 0), BuildingBlock: OJICUG_clean_linker_0, # of connection points: 2
#     Edge 75, Type (0, 0), BuildingBlock: OJICUG_clean_linker_0, # of connection points: 2
#     Edge 76, Type (0, 0), BuildingBlock: OJICUG_clean_linker_0, # of connection points: 2
#     Edge 77, Type (0, 0), BuildingBlock: OJICUG_clean_linker_0, # of connection points: 2
#     Edge 78, Type (0, 0), BuildingBlock: OJICUG_clean_linker_0, # of connection points: 2
#     Edge 79, Type (0, 0), BuildingBlock: OJICUG_clean_linker_0, # of connection points: 2
#     Edge 80, Type (0, 0), BuildingBlock: OJICUG_clean_linker_0, # of connection points: 2
#     Edge 81, Type (0, 0), BuildingBlock: OJICUG_clean_linker_0, # of connection points: 2
#     Edge 82, Type (0, 0), BuildingBlock: OJICUG_clean_linker_0, # of connection points: 2
#     Edge 83, Type (0, 0), BuildingBlock: OJICUG_clean_linker_0, # of connection points: 2
#     Edge 84, Type (0, 0), BuildingBlock: OJICUG_clean_linker_0, # of connection points: 2
#     Edge 85, Type (0, 0), BuildingBlock: OJICUG_clean_linker_0, # of connection points: 2
#     Edge 86, Type (0, 0), BuildingBlock: OJICUG_clean_linker_0, # of connection points: 2
#     Edge 87, Type (0, 0), BuildingBlock: OJICUG_clean_linker_0, # of connection points: 2
#     Edge 88, Type (0, 0), BuildingBlock: OJICUG_clean_linker_0, # of connection points: 2
#     Edge 89, Type (0, 0), BuildingBlock: OJICUG_clean_linker_0, # of connection points: 2
#     Edge 90, Type (0, 0), BuildingBlock: OJICUG_clean_linker_0, # of connection points: 2
#     Edge 91, Type (0, 0), BuildingBlock: OJICUG_clean_linker_0, # of connection points: 2
#     Edge 92, Type (0, 0), BuildingBlock: OJICUG_clean_linker_0, # of connection points: 2
#     Edge 93, Type (0, 0), BuildingBlock: OJICUG_clean_linker_0, # of connection points: 2
#     Edge 94, Type (0, 0), BuildingBlock: OJICUG_clean_linker_0, # of connection points: 2
#     Edge 95, Type (0, 0), BuildingBlock: OJICUG_clean_linker_0, # of connection points: 2
# Relax obj value: 0.058
# Max RMSD: 0.086
# Mean RMSD: 0.086
data_MOF--net-uox--node1-QUQFOY_clean_sbu_3--edge1-OJICUG_clean_linker_0
_symmetry_space_group_name_H-M    P1
_symmetry_Int_Tables_number       1
_symmetry_cell_setting            triclinic
loop_
_symmetry_equiv_pos_as_xyz
'x, y, z'
_cell_length_a     34.783968
_cell_length_b     34.744051
_cell_length_c     61.138589
_cell_angle_alpha  89.814906
_cell_angle_beta   90.026747
_cell_angle_gamma 89.97654
loop_
_atom_site_label
_atom_site_type_symbol
_atom_site_fract_x
_atom_site_fract_y
_atom_site_fract_z
_atom_type_partial_charge
C0 C 0.50616 0.03919 0.10859 0.0
O1 O 0.4886 0.03048 0.09105 0.0
Cd2 Cd 0.42493 0.00264 0.08929 0.0
O3 O 0.4905 0.03326 0.12713 0.0
Cd4 Cd 0.42882 0.00801 0.14108 0.0
C5 C 0.37525 0.07515 0.11347 0.0
O6 O 0.42198 0.95231 0.11641 0.0
O7 O 0.37659 0.9622 0.13983 0.0
O8 O 0.46349 0.98725 0.17419 0.0
C9 C 0.39042 0.94145 0.12483 0.0
O10 O 0.38097 0.05613 0.09602 0.0
C11 C 0.43783 0.00034 0.18697 0.0
O12 O 0.39097 0.06487 0.13137 0.0
O13 O 0.40967 0.01793 0.17833 0.0
C14 C 0.18753 0.25535 0.35853 0.0
O15 O 0.19706 0.23755 0.34121 0.0
Cd16 Cd 0.22549 0.17407 0.33983 0.0
O17 O 0.1925 0.23993 0.37727 0.0
Cd18 Cd 0.21704 0.17856 0.39233 0.0
C19 C 0.1528 0.1233 0.36363 0.0
O20 O 0.27323 0.17278 0.36821 0.0
O21 O 0.26497 0.12795 0.39226 0.0
O22 O 0.23478 0.21414 0.42556 0.0
C23 C 0.28501 0.14172 0.37688 0.0
O24 O 0.17232 0.12959 0.34637 0.0
C25 C 0.22184 0.18821 0.4383 0.0
O26 O 0.16194 0.13912 0.38165 0.0
O27 O 0.2056 0.15941 0.42956 0.0
C28 C 0.9653 0.94174 0.61039 0.0
O29 O 0.98254 0.95304 0.59324 0.0
Cd30 Cd 0.0478 0.97612 0.59336 0.0
O31 O 0.98195 0.94353 0.6289 0.0
Cd32 Cd 0.0447 0.96504 0.64329 0.0
C33 C 0.09279 0.89738 0.61499 0.0
O34 O 0.0581 0.02365 0.62146 0.0
O35 O 0.10541 -0.00337 0.63842 0.0
O36 O 0.01253 -0.01029 0.6762 0.0
C37 C 0.09307 0.02491 0.62739 0.0
O38 O 0.08878 0.91933 0.59842 0.0
C39 C 0.03643 0.97421 0.68924 0.0
O40 O 0.07672 0.90556 0.63309 0.0
O41 O 0.06291 0.95391 0.68091 0.0
C42 C 0.28582 0.71376 0.85959 0.0
O43 O 0.27518 0.73062 0.84217 0.0
Cd44 Cd 0.25262 0.79618 0.84194 0.0
O45 O 0.28315 0.73085 0.8779 0.0
Cd46 Cd 0.26072 0.79403 0.8911 0.0
C47 C 0.33083 0.84043 0.864 0.0
O48 O 0.20284 0.80813 0.86872 0.0
O49 O 0.23114 0.85549 0.88485 0.0
O50 O 0.23366 0.76286 0.92386 0.0
C51 C 0.20234 0.84333 0.87429 0.0
O52 O 0.30956 0.8368 0.84717 0.0
C53 C 0.2488 0.78682 0.93693 0.0
O54 O 0.32146 0.82459 0.88202 0.0
O55 O 0.26989 0.81284 0.92869 0.0
C56 C 0.50102 0.93153 0.35894 0.0
O57 O 0.48354 0.94145 0.37629 0.0
Cd58 Cd 0.42096 0.97138 0.3777 0.0
O59 O 0.48593 0.93738 0.34023 0.0
Cd60 Cd 0.4256 0.9642 0.32542 0.0
C61 C 0.37073 0.89889 0.3536 0.0
O62 O 0.42074 0.02015 0.34974 0.0
O63 O 0.37508 0.01218 0.32627 0.0
O64 O 0.46193 0.98271 0.29251 0.0
C65 C 0.38968 0.03231 0.34132 0.0
O66 O 0.37659 0.9183 0.3709 0.0
C67 C 0.43599 0.97066 0.27958 0.0
O68 O 0.38655 0.90852 0.33562 0.0
O69 O 0.40682 0.95458 0.28806 0.0
C70 C 0.29121 0.25779 0.60912 0.0
O71 O 0.27991 0.24073 0.62634 0.0
Cd72 Cd 0.25503 0.17621 0.62639 0.0
O73 O 0.28803 0.24154 0.59058 0.0
Cd74 Cd 0.26367 0.17973 0.57653 0.0
C75 C 0.33241 0.13102 0.60373 0.0
O76 O 0.20584 0.1675 0.599 0.0
O77 O 0.23154 0.11937 0.58224 0.0
O78 O 0.23781 0.21256 0.54395 0.0
C79 C 0.20369 0.13248 0.59325 0.0
O80 O 0.31116 0.1348 0.62055 0.0
C81 C 0.25209 0.18827 0.53076 0.0
O82 O 0.32341 0.14726 0.58575 0.0
O83 O 0.2723 0.1614 0.53888 0.0
C84 C 0.96332 0.0387 0.85957 0.0
O85 O 0.98024 0.02763 0.87687 0.0
Cd86 Cd 0.04568 0.00493 0.87679 0.0
O87 O 0.98034 0.03654 0.84119 0.0
Cd88 Cd 0.04349 0.01459 0.82758 0.0
C89 C 0.09013 0.08373 0.85526 0.0
O90 O 0.05709 0.95592 0.84952 0.0
O91 O 0.10457 0.98401 0.83332 0.0
O92 O 0.01173 -0.01072 0.79468 0.0
C93 C 0.09219 0.95512 0.8438 0.0
O94 O 0.08639 0.06197 0.87193 0.0
C95 C 0.03601 0.00415 0.78166 0.0
O96 O 0.0743 0.07494 0.83718 0.0
O97 O 0.06257 0.02435 0.78998 0.0
C98 C 0.18332 0.72013 0.10836 0.0
O99 O 0.1931 0.73734 0.12582 0.0
Cd100 Cd 0.22135 0.80083 0.12736 0.0
O101 O 0.18835 0.73607 0.08978 0.0
Cd102 Cd 0.21332 0.79775 0.07539 0.0
C103 C 0.14769 0.85088 0.10414 0.0
O104 O 0.26998 0.80333 0.09939 0.0
O105 O 0.26014 0.84927 0.07619 0.0
O106 O 0.23129 0.76221 0.04221 0.0
C107 C 0.28111 0.83485 0.09098 0.0
O108 O 0.16747 0.84474 0.12133 0.0
C109 C 0.21895 0.78836 0.02942 0.0
O110 O 0.1572 0.83567 0.08602 0.0
O111 O 0.20303 0.81741 0.03807 0.0
C112 C 0.47114 0.92956 0.8593 0.0
O113 O 0.48831 0.93945 0.87676 0.0
Cd114 Cd 0.5504 0.97046 0.8785 0.0
O115 O 0.48623 0.93618 0.84069 0.0
Cd116 Cd 0.54642 0.96452 0.82664 0.0
C117 C 0.60197 0.89927 0.85437 0.0
O118 O 0.55107 0.02049 0.85119 0.0
O119 O 0.59714 0.01195 0.82803 0.0
O120 O 0.51086 0.98423 0.79365 0.0
C121 C 0.5823 0.03241 0.84285 0.0
O122 O 0.59592 0.91838 0.87176 0.0
C123 C 0.53698 0.97227 0.78082 0.0
O124 O 0.58591 0.90894 0.83647 0.0
O125 O 0.56578 0.95562 0.78937 0.0
C126 C 0.79328 0.72541 0.60905 0.0
O127 O 0.78247 0.74248 0.62636 0.0
Cd128 Cd 0.75113 0.80447 0.62777 0.0
O129 O 0.78777 0.74065 0.59033 0.0
Cd130 Cd 0.7603 0.80069 0.57531 0.0
C131 C 0.82283 0.85716 0.60436 0.0
O132 O 0.70371 0.80407 0.59922 0.0
O133 O 0.71097 0.84986 0.57565 0.0
O134 O 0.74364 0.76411 0.54232 0.0
C135 C 0.69101 0.8349 0.59071 0.0
O136 O 0.80318 0.85029 0.6215 0.0
C137 C 0.75534 0.79039 0.52943 0.0
O138 O 0.81425 0.8414 0.58623 0.0
O139 O 0.77054 0.81994 0.53797 0.0
C140 C 0.01169 0.03585 0.35917 0.0
O141 O -0.00498 0.0245 0.37649 0.0
Cd142 Cd 0.92991 0.00067 0.37663 0.0
O143 O -0.0053 0.03329 0.3408 0.0
Cd144 Cd 0.93208 0.01008 0.32725 0.0
C145 C 0.88409 0.07852 0.35484 0.0
O146 O 0.91821 0.9517 0.34939 0.0
O147 O 0.87106 0.97986 0.33283 0.0
O148 O 0.96336 0.98346 0.29452 0.0
C149 C 0.88312 0.95113 0.34358 0.0
O150 O 0.88836 0.057 0.37157 0.0
C151 C 0.9396 -0.00099 0.28141 0.0
O152 O 0.90002 0.06992 0.33677 0.0
O153 O 0.91373 0.02022 0.28962 0.0
C154 C 0.68521 0.25545 0.11021 0.0
O155 O 0.69417 0.23764 0.12768 0.0
Cd156 Cd 0.72181 0.17384 0.12931 0.0
O157 O 0.6907 0.23998 0.09161 0.0
Cd158 Cd 0.71548 0.17836 0.07733 0.0
C159 C 0.64883 0.12458 0.10515 0.0
O160 O 0.77132 0.17157 0.10187 0.0
O161 O 0.76169 0.12633 0.07837 0.0
O162 O 0.73533 0.21378 0.04427 0.0
C163 C 0.78236 0.14014 0.09342 0.0
O164 O 0.66811 0.13015 0.12256 0.0
C165 C 0.72249 0.1881 0.03143 0.0
O166 O 0.65886 0.1404 0.08723 0.0
O167 O 0.70543 0.15955 0.04002 0.0
C168 C 0.47319 0.04278 0.60901 0.0
O169 O 0.49045 0.03252 0.59165 0.0
Cd170 Cd 0.55249 0.00131 0.59007 0.0
O171 O 0.48824 0.03671 0.62771 0.0
Cd172 Cd 0.54813 0.00896 0.64249 0.0
C173 C 0.60475 0.0725 0.61403 0.0
O174 O 0.55241 0.95292 0.61821 0.0
O175 O 0.59779 0.96024 0.64193 0.0
O176 O 0.51197 -0.00944 0.67544 0.0
C177 C 0.58327 0.94042 0.62673 0.0
O178 O 0.59819 0.05325 0.59674 0.0
C179 C 0.53783 0.00296 0.68832 0.0
O180 O 0.58873 0.06342 0.63204 0.0
O181 O 0.56682 0.01926 0.67977 0.0
C182 C 0.68141 0.71685 0.35976 0.0
O183 O 0.69306 0.73334 0.34245 0.0
Cd184 Cd 0.71888 0.7976 0.3422 0.0
O185 O 0.68502 0.73342 0.37818 0.0
Cd186 Cd 0.71076 0.79519 0.39148 0.0
C187 C 0.64211 0.84393 0.36441 0.0
O188 O 0.76891 0.80749 0.36907 0.0
O189 O 0.74205 0.85566 0.38524 0.0
O190 O 0.73745 0.76332 0.42412 0.0
C191 C 0.77049 0.84263 0.37469 0.0
O192 O 0.66328 0.83985 0.34758 0.0
C193 C 0.72314 0.78776 0.43721 0.0
O194 O 0.65106 0.82778 0.38242 0.0
O195 O 0.70245 0.81419 0.42902 0.0
C196 C 0.00428 0.93466 0.10955 0.0
O197 O 0.98653 0.94439 0.09221 0.0
Cd198 Cd 0.9229 0.97224 0.09091 0.0
O199 O -0.01122 0.93935 0.12824 0.0
Cd200 Cd 0.92728 0.96362 0.14305 0.0
C201 C 0.87351 0.89827 0.11439 0.0
O202 O 0.9211 0.02034 0.11907 0.0
O203 O 0.87584 0.01065 0.14259 0.0
O204 O 0.96329 0.98145 0.17612 0.0
C205 C 0.88982 0.03153 0.12762 0.0
O206 O 0.8793 0.91821 0.0972 0.0
C207 C 0.93741 0.96896 0.18899 0.0
O208 O 0.88914 0.90757 0.13245 0.0
O209 O 0.90833 0.95294 0.18041 0.0
C210 C 0.78719 0.25513 0.85951 0.0
O211 O 0.7773 0.23777 0.84212 0.0
Cd212 Cd 0.74807 0.17465 0.84068 0.0
O213 O 0.78184 0.23957 0.87816 0.0
Cd214 Cd 0.75605 0.17848 0.8928 0.0
C215 C 0.82058 0.12345 0.86424 0.0
O216 O 0.69958 0.17287 0.86871 0.0
O217 O 0.70875 0.12749 0.89235 0.0
O218 O 0.73754 0.21398 0.92593 0.0
C219 C 0.68815 0.1416 0.8773 0.0
O220 O 0.80108 0.12984 0.84698 0.0
C221 C 0.75059 0.18818 0.93872 0.0
O222 O 0.81133 0.13913 0.88228 0.0
O223 O 0.76718 0.1595 0.93006 0.0
C224 C 0.00668 0.54191 0.6098 0.0
O225 O -0.01016 0.53052 0.59258 0.0
Cd226 Cd 0.92524 0.50601 0.59257 0.0
O227 O -0.00982 0.53887 0.62829 0.0
Cd228 Cd 0.92822 0.51465 0.64229 0.0
C229 C 0.88039 0.58385 0.61494 0.0
O230 O 0.91581 0.4567 0.61996 0.0
O231 O 0.86775 0.48299 0.6365 0.0
O232 O 0.96087 0.48835 0.67477 0.0
C233 C 0.88077 0.45487 0.62569 0.0
O234 O 0.88426 0.56254 0.59817 0.0
C235 C 0.93661 0.50249 0.68803 0.0
O236 O 0.89625 0.57472 0.63299 0.0
O237 O 0.90982 0.52289 0.68001 0.0
C238 C 0.68551 0.75562 0.8585 0.0
O239 O 0.6942 0.73779 0.84106 0.0
Cd240 Cd 0.72075 0.67357 0.83965 0.0
O241 O 0.69062 0.73989 0.87713 0.0
Cd242 Cd 0.71422 0.67796 0.89178 0.0
C243 C 0.647 0.62518 0.86397 0.0
O244 O 0.76989 0.67076 0.86728 0.0
O245 O 0.76006 0.62555 0.89094 0.0
O246 O 0.73434 0.71352 0.92461 0.0
C247 C 0.7807 0.63922 0.87579 0.0
O248 O 0.66638 0.63072 0.84658 0.0
C249 C 0.72141 0.68803 0.93763 0.0
O250 O 0.65716 0.64067 0.8819 0.0
O251 O 0.70419 0.65948 0.92924 0.0
C252 C 0.46957 0.43384 0.10976 0.0
O253 O 0.48697 0.44328 0.09226 0.0
Cd254 Cd 0.55038 0.47162 0.09057 0.0
O255 O 0.48529 0.4392 0.12833 0.0
Cd256 Cd 0.54675 0.46438 0.14266 0.0
C257 C 0.60045 0.39851 0.1144 0.0
O258 O 0.55246 0.52067 0.11825 0.0
O259 O 0.59797 0.51151 0.14172 0.0
O260 O 0.51103 0.48244 0.17579 0.0
C261 C 0.58378 0.53208 0.12665 0.0
O262 O 0.59444 0.418 0.09707 0.0
C263 C 0.53717 0.47027 0.1886 0.0
O264 O 0.58494 0.40822 0.13241 0.0
O265 O 0.5663 0.45444 0.17998 0.0
C266 C 0.79405 0.21809 0.36042 0.0
O267 O 0.78195 0.23453 0.34317 0.0
Cd268 Cd 0.75572 0.29864 0.34304 0.0
O269 O 0.79077 0.23464 0.37886 0.0
Cd270 Cd 0.7651 0.2962 0.3926 0.0
C271 C 0.8328 0.34517 0.36488 0.0
O272 O 0.7065 0.30778 0.37044 0.0
O273 O 0.73243 0.35617 0.38687 0.0
O274 O 0.74065 0.26323 0.4254 0.0
C275 C 0.70431 0.34284 0.37616 0.0
O276 O 0.81134 0.34094 0.34817 0.0
C277 C 0.75448 0.288 0.43845 0.0
O278 O 0.82424 0.32912 0.38296 0.0
O279 O 0.7738 0.31535 0.43018 0.0
C280 C 0.00394 0.43599 0.85994 0.0
O281 O 0.98585 0.44506 0.87725 0.0
Cd282 Cd 0.92174 0.47167 0.87842 0.0
O283 O -0.01152 0.44058 0.84121 0.0
Cd284 Cd 0.92655 0.46369 0.82624 0.0
C285 C 0.87342 0.39735 0.85475 0.0
O286 O 0.91957 0.51997 0.85023 0.0
O287 O 0.87447 0.51006 0.82666 0.0
O288 O 0.96202 0.4827 0.79312 0.0
C289 C 0.88819 0.5309 0.84166 0.0
O290 O 0.8789 0.41716 0.87196 0.0
C291 C 0.93634 0.46979 0.78029 0.0
O292 O 0.88905 0.40701 0.83673 0.0
O293 O 0.90773 0.45295 0.7889 0.0
C294 C 0.78812 0.75569 0.10932 0.0
O295 O 0.77886 0.73778 0.12671 0.0
Cd296 Cd 0.75089 0.67416 0.12817 0.0
O297 O 0.78271 0.74042 0.09065 0.0
Cd298 Cd 0.7577 0.67899 0.07613 0.0
C299 C 0.82403 0.62493 0.10412 0.0
O300 O 0.70171 0.6722 0.10053 0.0
O301 O 0.7114 0.62698 0.07703 0.0
O302 O 0.738 0.71437 0.043 0.0
C303 C 0.69068 0.64079 0.09206 0.0
O304 O 0.80461 0.63045 0.12147 0.0
C305 C 0.75101 0.6887 0.03021 0.0
O306 O 0.81417 0.64084 0.08618 0.0
O307 O 0.76813 0.66022 0.03885 0.0
C308 C 0.46334 0.53528 0.359 0.0
O309 O 0.48005 0.52408 0.37634 0.0
Cd310 Cd 0.5451 0.49996 0.37664 0.0
O311 O 0.48026 0.53251 0.34062 0.0
Cd312 Cd 0.54283 0.50918 0.32707 0.0
C313 C 0.59111 0.57748 0.35469 0.0
O314 O 0.55654 0.45096 0.3494 0.0
O315 O 0.6037 0.47847 0.33257 0.0
O316 O 0.51163 0.48291 0.29421 0.0
C317 C 0.5916 0.45007 0.34357 0.0
O318 O 0.58685 0.55609 0.37147 0.0
C319 C 0.53533 0.49872 0.28119 0.0
O320 O 0.57508 0.56882 0.33664 0.0
O321 O 0.56119 0.5198 0.28953 0.0
C322 C 0.68967 0.21507 0.60916 0.0
O323 O 0.70069 0.23203 0.62641 0.0
Cd324 Cd 0.72384 0.2974 0.62642 0.0
O325 O 0.69183 0.23204 0.59072 0.0
Cd326 Cd 0.71364 0.295 0.5767 0.0
C327 C 0.64569 0.34298 0.60472 0.0
O328 O 0.77199 0.30849 0.59864 0.0
O329 O 0.74468 0.35586 0.58179 0.0
O330 O 0.73909 0.26337 0.54383 0.0
C331 C 0.77302 0.34357 0.59274 0.0
O332 O 0.66738 0.33877 0.62136 0.0
C333 C 0.72348 0.28721 0.53078 0.0
O334 O 0.65406 0.32697 0.58664 0.0
O335 O 0.70281 0.31343 0.53909 0.0
C336 C 0.97398 0.43226 0.35855 0.0
O337 O -0.00841 0.4424 0.37582 0.0
Cd338 Cd 0.05419 0.4721 0.37708 0.0
O339 O -0.01104 0.43777 0.33978 0.0
Cd340 Cd 0.04925 0.46432 0.32476 0.0
C341 C 0.10414 0.39913 0.3531 0.0
O342 O 0.05416 0.5204 0.34893 0.0
O343 O 0.09988 0.51217 0.32555 0.0
O344 O 0.01251 0.483 0.29202 0.0
C345 C 0.08523 0.53247 0.34051 0.0
O346 O 0.09831 0.41877 0.37032 0.0
C347 C 0.03836 0.47121 0.27896 0.0
O348 O 0.08831 0.40856 0.33508 0.0
O349 O 0.06764 0.45504 0.28729 0.0
C350 C 0.28991 0.21802 0.11037 0.0
O351 O 0.28089 0.23532 0.12792 0.0
Cd352 Cd 0.25349 0.29925 0.12944 0.0
O353 O 0.28444 0.23408 0.09187 0.0
Cd354 Cd 0.25965 0.2961 0.07803 0.0
C355 C 0.32676 0.34877 0.10582 0.0
O356 O 0.2033 0.3031 0.10231 0.0
O357 O 0.21477 0.34902 0.07929 0.0
O358 O 0.23859 0.26147 0.0451 0.0
C359 C 0.19312 0.33494 0.09385 0.0
O360 O 0.30734 0.34297 0.12316 0.0
C361 C 0.25166 0.28703 0.03218 0.0
O362 O 0.31672 0.33335 0.08784 0.0
O363 O 0.26949 0.31512 0.04065 0.0
C364 C 0.5045 0.53942 0.86032 0.0
O365 O 0.48724 0.52978 0.87783 0.0
Cd366 Cd 0.42426 0.50023 0.87964 0.0
O367 O 0.48888 0.53374 0.84175 0.0
Cd368 Cd 0.42789 0.50768 0.8274 0.0
C369 C 0.37236 0.57198 0.85579 0.0
O370 O 0.42261 0.45141 0.85184 0.0
O371 O 0.37759 0.45972 0.82796 0.0
O372 O 0.46352 0.48987 0.79421 0.0
C373 C 0.39155 0.43959 0.84327 0.0
O374 O 0.37895 0.55276 0.87315 0.0
C375 C 0.43744 0.50243 0.78147 0.0
O376 O 0.38814 0.56268 0.83778 0.0
O377 O 0.40846 0.5184 0.79018 0.0
C378 C 0.18355 0.75835 0.60871 0.0
O379 O 0.19569 0.74171 0.62589 0.0
Cd380 Cd 0.22303 0.67799 0.62608 0.0
O381 O 0.18715 0.74224 0.59017 0.0
Cd382 Cd 0.21346 0.68119 0.57618 0.0
C383 C 0.14695 0.63026 0.60396 0.0
O384 O 0.27186 0.66942 0.59845 0.0
O385 O 0.24652 0.62146 0.58134 0.0
O386 O 0.23855 0.71375 0.54336 0.0
C387 C 0.27424 0.6345 0.59249 0.0
O388 O 0.16825 0.63477 0.62071 0.0
C389 C 0.22369 0.6895 0.53035 0.0
O390 O 0.15513 0.64678 0.58594 0.0
O391 O 0.20349 0.66286 0.53868 0.0
C392 C 0.96717 0.54033 0.10804 0.0
O393 O 0.98474 0.53126 0.09058 0.0
Cd394 Cd 0.04863 0.5039 0.08922 0.0
O395 O 0.98296 0.53504 0.12662 0.0
Cd396 Cd 0.0449 0.51055 0.14068 0.0
C397 C 0.09787 0.57744 0.11263 0.0
O398 O 0.05216 0.454 0.11663 0.0
O399 O 0.09776 0.46554 0.13971 0.0
O400 O 0.01035 0.48966 0.17377 0.0
C401 C 0.08387 0.44383 0.12517 0.0
O402 O 0.09224 0.55787 0.09536 0.0
C403 C 0.03582 0.50303 0.18659 0.0
O404 O 0.08227 0.56755 0.13062 0.0
O405 O 0.06375 0.52098 0.17798 0.0
C406 C 0.17938 0.22387 0.86089 0.0
O407 O 0.18993 0.24108 0.84352 0.0
Cd408 Cd 0.22076 0.30327 0.84202 0.0
O409 O 0.18526 0.23895 0.87956 0.0
Cd410 Cd 0.21312 0.29909 0.894 0.0
C411 C 0.14843 0.35429 0.8656 0.0
O412 O 0.26959 0.30358 0.86987 0.0
O413 O 0.26075 0.3498 0.89286 0.0
O414 O 0.23177 0.26272 0.92691 0.0
C415 C 0.28147 0.33481 0.87819 0.0
O416 O 0.16806 0.34826 0.84838 0.0
C417 C 0.21997 0.28874 0.93984 0.0
O418 O 0.1577 0.33845 0.88365 0.0
O419 O 0.20383 0.31797 0.93138 0.0
C420 C 0.50732 0.43465 0.61058 0.0
O421 O 0.49094 0.44698 0.59337 0.0
Cd422 Cd 0.42731 0.47446 0.59309 0.0
O423 O 0.49101 0.43818 0.62908 0.0
Cd424 Cd 0.43004 0.46454 0.64303 0.0
C425 C 0.37944 0.39817 0.61512 0.0
O426 O 0.41838 0.52311 0.62076 0.0
O427 O 0.37043 0.49766 0.63792 0.0
O428 O 0.46252 0.48936 0.67583 0.0
C429 C 0.38346 0.52542 0.62673 0.0
O430 O 0.3841 0.41959 0.59839 0.0
C431 C 0.43834 0.47431 0.68886 0.0
O432 O 0.39575 0.40625 0.63317 0.0
O433 O 0.4117 0.4542 0.68054 0.0
C434 C 0.28746 0.75508 0.35829 0.0
O435 O 0.27808 0.73743 0.3409 0.0
Cd436 Cd 0.24973 0.67394 0.33935 0.0
O437 O 0.28239 0.73949 0.37697 0.0
Cd438 Cd 0.25785 0.67813 0.39188 0.0
C439 C 0.32226 0.62294 0.36327 0.0
O440 O 0.20183 0.67262 0.36762 0.0
O441 O 0.20977 0.62776 0.39169 0.0
O442 O 0.24022 0.71407 0.42497 0.0
C443 C 0.18991 0.6416 0.37624 0.0
O444 O 0.30286 0.62938 0.34598 0.0
C445 C 0.25283 0.68809 0.43779 0.0
O446 O 0.313 0.63866 0.3813 0.0
O447 O 0.26879 0.65903 0.42917 0.0
C448 C 0.47279 0.98113 0.24473 0.0
C449 C 0.43763 0.97764 0.25586 0.0
H450 H 0.50056 -0.00967 0.21372 0.0
C451 C 0.40311 0.9819 0.24424 0.0
H452 H 0.49977 0.97798 0.25341 0.0
C453 C 0.40357 -0.00999 0.22195 0.0
C454 C 0.43855 -0.00698 0.21067 0.0
H455 H 0.3756 0.97967 0.25246 0.0
H456 H 0.37641 -0.0067 0.21347 0.0
C457 C 0.47324 -0.01185 0.22214 0.0
C458 C 0.24083 0.15451 0.49577 0.0
C459 C 0.24379 0.1893 0.5072 0.0
H460 H 0.23054 0.12714 0.46512 0.0
C461 C 0.23856 0.22425 0.49596 0.0
H462 H 0.24445 0.12719 0.50412 0.0
C463 C 0.23151 0.22427 0.47339 0.0
C464 C 0.22826 0.1893 0.46206 0.0
H465 H 0.24074 0.25142 0.50452 0.0
H466 H 0.22829 0.25145 0.46486 0.0
C467 C 0.2326 0.15449 0.4735 0.0
C468 C 0.07006 -0.00751 0.74673 0.0
C469 C 0.03523 -0.00349 0.75804 0.0
H470 H 0.09746 0.98121 0.71613 0.0
C471 C 0.00036 -0.00719 0.74666 0.0
H472 H 0.0973 -0.00502 0.75522 0.0
C473 C 0.00046 0.98601 0.72409 0.0
C474 C 0.03542 0.98141 0.71291 0.0
H475 H 0.97317 -0.00415 0.75512 0.0
H476 H 0.97335 0.98378 0.71545 0.0
C477 C 0.07015 0.9844 0.72444 0.0
C478 C 0.23437 0.75157 0.97182 0.0
C479 C 0.24068 0.78626 0.96052 0.0
H480 H 0.22334 0.72489 0.00297 0.0
C481 C 0.23905 0.82118 0.9719 0.0
H482 H 0.23554 0.7243 0.96331 0.0
C483 C 0.23096 0.82159 -0.00581 0.0
C484 C 0.22548 0.78701 0.00567 0.0
H485 H 0.24355 0.84832 0.9635 0.0
H486 H 0.22986 0.84903 0.00255 0.0
C487 C 0.22747 0.7519 -0.0056 0.0
C488 C 0.57086 0.98427 0.7459 0.0
C489 C 0.536 0.97994 0.75716 0.0
H490 H 0.59848 -0.00413 0.71545 0.0
C491 C 0.50117 0.98388 0.74573 0.0
H492 H 0.59812 0.98174 0.75437 0.0
C493 C 0.50138 -0.00876 0.72317 0.0
C494 C 0.53642 -0.00403 0.71205 0.0
H495 H 0.47394 0.98071 0.75414 0.0
H496 H 0.47431 -0.0064 0.7145 0.0
C497 C 0.57106 -0.00731 0.72366 0.0
C498 C 0.73836 0.75284 0.47212 0.0
C499 C 0.73197 0.78742 0.46071 0.0
H500 H 0.75007 0.72653 0.5033 0.0
C501 C 0.73433 0.8225 0.4719 0.0
H502 H 0.73668 0.72545 0.46375 0.0
C503 C 0.74308 0.82317 0.4941 0.0
C504 C 0.74858 0.78872 0.50571 0.0
H505 H 0.72982 0.84956 0.46341 0.0
H506 H 0.74461 0.85074 0.50229 0.0
C507 C 0.74597 0.75345 0.49462 0.0
C508 C 0.90508 -0.01057 0.24644 0.0
C509 C 0.94004 -0.00901 0.25782 0.0
H510 H 0.87705 0.98019 0.21583 0.0
C511 C 0.97461 0.98451 0.24654 0.0
H512 H 0.87804 -0.00596 0.25483 0.0
C513 C 0.97411 0.97751 0.22398 0.0
C514 C 0.93896 0.97557 0.21271 0.0
H515 H 0.0019 0.98559 0.25506 0.0
H516 H 0.00102 0.97325 0.21541 0.0
C517 C 0.90451 0.98124 0.22418 0.0
C518 C 0.74094 0.15453 0.97403 0.0
C519 C 0.74413 0.18933 0.96249 0.0
H520 H 0.73071 0.12713 0.00477 0.0
C521 C 0.73998 0.22429 0.97373 0.0
H522 H 0.7437 0.12716 0.96572 0.0
C523 C 0.73334 0.22428 -0.00365 0.0
C524 C 0.7295 0.18929 0.00772 0.0
H525 H 0.74229 0.25148 0.96511 0.0
H526 H 0.73062 0.25145 0.00485 0.0
C527 C 0.7332 0.15451 -0.00366 0.0
C528 C 0.97245 0.48824 0.72273 0.0
C529 C 0.93757 0.49373 0.71156 0.0
H530 H -0.00046 0.47712 0.75374 0.0
C531 C 0.90279 0.49044 0.72299 0.0
H532 H -0.00039 0.49065 0.71417 0.0
C533 C 0.90272 0.48157 0.7452 0.0
C534 C 0.93746 0.47693 0.75657 0.0
H535 H 0.87552 0.49424 0.71468 0.0
H536 H 0.87538 0.47924 0.75359 0.0
C537 C 0.97241 0.48055 0.74525 0.0
C538 C 0.73974 0.72461 -0.00495 0.0
C539 C 0.74395 0.68972 0.00649 0.0
H540 H 0.73006 0.75155 0.9638 0.0
C541 C 0.74038 0.65484 -0.00482 0.0
H542 H 0.74235 0.75185 0.00349 0.0
C543 C 0.73227 0.65467 0.97291 0.0
C544 C 0.7286 0.68938 0.96132 0.0
H545 H 0.74316 0.62753 0.00365 0.0
H546 H 0.72953 0.62724 0.96467 0.0
C547 C 0.73275 0.72444 0.97247 0.0
C548 C 0.56968 0.49042 0.24607 0.0
C549 C 0.5348 0.49123 0.25755 0.0
H550 H 0.59758 0.48215 0.21534 0.0
C551 C 0.50023 0.48457 0.24629 0.0
H552 H 0.59673 0.4952 0.25443 0.0
C553 C 0.50063 0.47804 0.22368 0.0
C554 C 0.53571 0.47676 0.21234 0.0
H555 H 0.473 0.48511 0.25487 0.0
H556 H 0.47371 0.47354 0.21515 0.0
C557 C 0.57017 0.48269 0.22376 0.0
C558 C 0.73657 0.25166 0.49597 0.0
C559 C 0.73095 0.28648 0.50713 0.0
H560 H 0.7475 0.22475 0.46497 0.0
C561 C 0.73317 0.32137 0.4956 0.0
H562 H 0.73494 0.22443 0.50461 0.0
C563 C 0.74151 0.32159 0.47333 0.0
C564 C 0.74658 0.28689 0.46204 0.0
H565 H 0.72919 0.34859 0.5039 0.0
H566 H 0.74338 0.34896 0.46485 0.0
C567 C 0.74365 0.25183 0.47342 0.0
C568 C 0.07097 0.48374 0.2437 0.0
C569 C 0.03655 0.47875 0.2553 0.0
H570 H 0.09742 0.49628 0.21301 0.0
C571 C 0.0013 0.48218 0.24423 0.0
H572 H 0.09853 0.48159 0.25189 0.0
C573 C 0.00068 0.48982 0.2217 0.0
C574 C 0.03527 0.49538 0.21026 0.0
H575 H 0.9744 0.4785 0.2529 0.0
H576 H 0.97331 0.49187 0.21331 0.0
C577 C 0.07032 0.49247 0.22149 0.0
C578 C 0.2386 0.25157 -0.00276 0.0
C579 C 0.24394 0.28631 0.00854 0.0
H580 H 0.2275 0.22497 0.96616 0.0
C581 C 0.24084 0.32131 -0.00282 0.0
H582 H 0.2408 0.22424 0.00572 0.0
C583 C 0.23216 0.32175 0.97497 0.0
C584 C 0.22741 0.28717 0.96351 0.0
H585 H 0.24449 0.34851 0.00555 0.0
H586 H 0.22989 0.34926 0.96668 0.0
C587 C 0.23101 0.25198 0.97472 0.0
C588 C 0.47373 0.49399 0.74635 0.0
C589 C 0.43872 0.49613 0.75772 0.0
H590 H 0.50111 0.48626 0.71513 0.0
C591 C 0.40409 0.49111 0.74632 0.0
H592 H 0.50078 0.49776 0.75486 0.0
C593 C 0.40434 0.48344 0.724 0.0
C594 C 0.43916 0.48173 0.71251 0.0
H595 H 0.37672 0.49232 0.75475 0.0
H596 H 0.37715 0.47938 0.71567 0.0
C597 C 0.47392 0.48749 0.72374 0.0
C598 C 0.23359 0.65527 0.49538 0.0
C599 C 0.23147 0.69021 0.50673 0.0
H600 H 0.24303 0.62743 0.46477 0.0
C601 C 0.23716 0.72495 0.49537 0.0
H602 H 0.22961 0.62808 0.50382 0.0
C603 C 0.24394 0.72463 0.47278 0.0
C604 C 0.24644 0.68951 0.46155 0.0
H605 H 0.23563 0.75223 0.50386 0.0
H606 H 0.2476 0.75167 0.46416 0.0
C607 C 0.24155 0.65489 0.47309 0.0
C608 C 0.34642 0.88589 0.1304 0.0
C609 C 0.36805 0.90907 0.11612 0.0
H610 H 0.30256 0.84281 0.13346 0.0
C611 C 0.36418 0.90421 0.09348 0.0
H612 H 0.34898 0.8893 0.14796 0.0
C613 C 0.33686 0.87857 0.08524 0.0
C614 C 0.31406 0.85657 0.09954 0.0
H615 H 0.38036 0.92204 0.08219 0.0
H616 H 0.33262 0.87687 0.06771 0.0
C617 C 0.32004 0.8593 0.12215 0.0
C618 C 0.34031 0.0971 0.38165 0.0
C619 C 0.31693 0.11928 0.36773 0.0
H620 H 0.38303 0.05275 0.384 0.0
C621 C 0.32112 0.11592 0.34501 0.0
H622 H 0.33743 0.09929 0.39925 0.0
C623 C 0.34626 0.08857 0.33635 0.0
C624 C 0.36841 0.0652 0.35029 0.0
H625 H 0.30314 0.13254 0.334 0.0
H626 H 0.34746 0.08476 0.31878 0.0
C627 C 0.36639 0.07066 0.37297 0.0
C628 C 0.15834 0.04175 0.61455 0.0
C629 C 0.12035 0.0533 0.61853 0.0
H630 H 0.21404 0.0577 0.60319 0.0
C631 C 0.10951 0.09155 0.61423 0.0
H632 H 0.16742 0.01238 0.61762 0.0
C633 C 0.13674 0.11801 0.60639 0.0
C634 C 0.1746 0.10603 0.60216 0.0
H635 H 0.08034 0.10104 0.61726 0.0
H636 H 0.12812 0.14749 0.60329 0.0
C637 C 0.18501 0.06766 0.60621 0.0
C638 C 0.10785 0.88746 0.85574 0.0
C639 C 0.11932 0.92563 0.85173 0.0
H640 H 0.12575 0.83061 0.86555 0.0
C641 C 0.15788 0.93597 0.85496 0.0
H642 H 0.07825 0.87884 0.85326 0.0
C643 C 0.18445 0.909 0.86231 0.0
C644 C 0.17337 0.87075 0.86611 0.0
H645 H 0.16753 0.9652 0.85207 0.0
H646 H 0.21393 0.91809 0.8648 0.0
C647 C 0.13493 0.85996 0.8626 0.0
C648 C 0.65059 0.11624 0.84584 0.0
C649 C 0.65568 0.11948 0.8685 0.0
H650 H 0.62328 0.08516 0.81989 0.0
C651 C 0.63276 0.09732 0.88266 0.0
H652 H 0.6682 0.13283 0.83464 0.0
C653 C 0.60631 0.07095 0.87426 0.0
C654 C 0.60347 0.06554 0.85161 0.0
H655 H 0.63633 0.09941 0.90023 0.0
H656 H 0.59012 0.05298 0.88546 0.0
C657 C 0.62509 0.08896 0.83744 0.0
C658 C 0.62693 0.88431 0.63132 0.0
C659 C 0.60486 0.90798 0.61751 0.0
H660 H 0.67093 0.84122 0.63348 0.0
C661 C 0.60775 0.90368 0.59478 0.0
H662 H 0.62509 0.88727 0.64893 0.0
C663 C 0.63469 0.87824 0.58598 0.0
C664 C 0.65811 0.85594 0.59981 0.0
H665 H 0.59121 0.92187 0.58384 0.0
H666 H 0.63827 0.87705 0.56839 0.0
C667 C 0.65297 0.85797 0.62252 0.0
C668 C 0.83817 0.85723 0.36264 0.0
C669 C 0.80018 0.86922 0.36652 0.0
H670 H 0.89513 0.87438 0.3528 0.0
C671 C 0.79024 0.90788 0.36302 0.0
H672 H 0.84647 0.82754 0.36535 0.0
C673 C 0.81744 0.93405 0.35555 0.0
C674 C 0.85552 0.92248 0.35188 0.0
H675 H 0.76116 0.91792 0.36581 0.0
H676 H 0.80864 0.96362 0.35287 0.0
C677 C 0.86592 0.88393 0.35564 0.0
C678 C 0.83792 0.09615 0.08797 0.0
C679 C 0.81481 0.11783 0.10218 0.0
H680 H 0.88119 0.05246 0.08505 0.0
C681 C 0.81993 0.11421 0.12484 0.0
H682 H 0.83433 0.09855 0.07041 0.0
C683 C 0.8458 0.08709 0.13317 0.0
C684 C 0.86776 0.06426 0.11894 0.0
H685 H 0.80217 0.13045 0.13607 0.0
H686 H 0.84774 0.08304 0.15072 0.0
C687 C 0.86473 0.06998 0.0963 0.0
C688 C 0.78989 0.40901 0.60525 0.0
C689 C 0.80144 0.37095 0.60139 0.0
H690 H 0.80589 0.46494 0.6162 0.0
C691 C 0.83973 0.36022 0.6055 0.0
H692 H 0.7605 0.41802 0.60233 0.0
C693 C 0.86623 0.38763 0.61301 0.0
C694 C 0.85427 0.42557 0.6171 0.0
H695 H 0.84923 0.331 0.60254 0.0
H696 H 0.89574 0.37909 0.61596 0.0
C697 C 0.81586 0.43585 0.61327 0.0
C698 C 0.86289 0.56888 0.87294 0.0
C699 C 0.86584 0.56333 0.85031 0.0
H700 H 0.83262 0.59729 0.89882 0.0
C701 C 0.84373 0.58616 0.83606 0.0
H702 H 0.87947 0.55135 0.8842 0.0
C703 C 0.81789 0.61321 0.84438 0.0
C704 C 0.81293 0.61673 0.86704 0.0
H705 H 0.84562 0.58225 0.81852 0.0
H706 H 0.80007 0.62951 0.83313 0.0
C707 C 0.8361 0.59496 0.88127 0.0
C708 C 0.65304 0.6152 0.12352 0.0
C709 C 0.65833 0.6184 0.10086 0.0
H710 H 0.62526 0.58438 0.14952 0.0
C711 C 0.63547 0.59628 0.08672 0.0
H712 H 0.67059 0.63177 0.13471 0.0
C713 C 0.60877 0.57011 0.09515 0.0
C714 C 0.60561 0.56482 0.11782 0.0
H715 H 0.63918 0.59835 0.06916 0.0
H716 H 0.59254 0.55224 0.08397 0.0
C717 C 0.6273 0.58809 0.13195 0.0
C718 C 0.63677 0.35682 0.36354 0.0
C719 C 0.67456 0.36914 0.36771 0.0
H720 H 0.57994 0.3734 0.3531 0.0
C721 C 0.68427 0.40782 0.36411 0.0
H722 H 0.62865 0.32711 0.36631 0.0
C723 C 0.65707 0.43368 0.35624 0.0
C724 C 0.61919 0.42176 0.35227 0.0
H725 H 0.7132 0.41812 0.3671 0.0
H726 H 0.6657 0.46326 0.35348 0.0
C727 C 0.609 0.3832 0.35616 0.0
C728 C 0.12892 0.58848 0.33558 0.0
C729 C 0.10653 0.56531 0.34948 0.0
H730 H 0.17224 0.63223 0.33332 0.0
C731 C 0.1083 0.57095 0.37215 0.0
H732 H 0.12791 0.58454 0.31801 0.0
C733 C 0.13436 0.59734 0.38088 0.0
C734 C 0.15798 0.61929 0.36701 0.0
H735 H 0.09146 0.5532 0.38316 0.0
H736 H 0.13704 0.59964 0.39849 0.0
C737 C 0.15406 0.61578 0.34429 0.0
C738 C 0.13748 0.37831 0.08705 0.0
C739 C 0.16005 0.35708 0.10186 0.0
H740 H 0.0942 0.42177 0.08299 0.0
C741 C 0.15388 0.36118 0.12438 0.0
H742 H 0.14192 0.37554 0.06959 0.0
C743 C 0.12755 0.3884 0.13201 0.0
C744 C 0.10616 0.41082 0.11719 0.0
H745 H 0.17122 0.34532 0.13606 0.0
H746 H 0.12484 0.39291 0.14947 0.0
C747 C 0.11019 0.40455 0.09468 0.0
C748 C 0.34789 0.38365 0.83834 0.0
C749 C 0.36936 0.40733 0.85236 0.0
H750 H 0.30381 0.34076 0.83573 0.0
C751 C 0.36514 0.40336 0.87506 0.0
H752 H 0.35072 0.38639 0.82075 0.0
C753 C 0.33756 0.37821 0.88355 0.0
C754 C 0.3148 0.35584 0.86948 0.0
H755 H 0.38117 0.4216 0.88614 0.0
H756 H 0.33301 0.37724 0.90108 0.0
C757 C 0.32122 0.35756 0.84687 0.0
C758 C 0.36805 0.5924 0.61353 0.0
C759 C 0.35676 0.55424 0.61771 0.0
H760 H 0.35005 0.64868 0.60272 0.0
C761 C 0.31865 0.5432 0.61364 0.0
H762 H 0.39731 0.6015 0.61666 0.0
C763 C 0.29231 0.56951 0.60536 0.0
C764 C 0.30312 0.60779 0.60144 0.0
H765 H 0.3092 0.51393 0.61662 0.0
H766 H 0.26317 0.55989 0.60229 0.0
C767 C 0.34111 0.61928 0.60573 0.0
C768 C 0.34229 0.1302 0.1322 0.0
C769 C 0.35113 0.11032 0.11284 0.0
H770 H 0.31574 0.17952 0.14666 0.0
C771 C 0.33774 0.12508 0.0928 0.0
H772 H 0.35197 0.11954 0.14794 0.0
C773 C 0.31706 0.15954 0.09207 0.0
C774 C 0.30907 0.17995 0.11137 0.0
H775 H 0.34392 0.11047 0.07758 0.0
H776 H 0.30787 0.17048 0.0763 0.0
C777 C 0.3214 0.16457 0.13148 0.0
C778 C 0.09891 0.0875 0.38182 0.0
C779 C 0.11834 0.0983 0.3626 0.0
H780 H 0.05034 0.05886 0.39587 0.0
C781 C 0.10376 0.08606 0.34233 0.0
H782 H 0.1095 0.09621 0.39772 0.0
C783 C 0.06974 0.06477 0.34127 0.0
C784 C 0.04969 0.05494 0.36046 0.0
H785 H 0.11805 0.09376 0.3272 0.0
H786 H 0.05878 0.05665 0.32535 0.0
C787 C 0.06506 0.06592 0.38077 0.0
C788 C 0.12989 0.84928 0.59294 0.0
C789 C 0.11696 0.86243 0.61337 0.0
H790 H 0.16116 0.80619 0.57543 0.0
C791 C 0.12761 0.842 0.63232 0.0
H792 H 0.12231 0.86441 0.57803 0.0
C793 C 0.15025 0.8089 0.63085 0.0
C794 C 0.16245 0.79524 0.61039 0.0
H795 H 0.1184 0.85152 0.64834 0.0
H796 H 0.15746 0.79357 0.64576 0.0
C797 C 0.15223 0.81594 0.59145 0.0
C798 C 0.42062 0.89462 0.8808 0.0
C799 C 0.43435 0.90821 0.86059 0.0
H800 H 0.37749 0.86236 0.89772 0.0
C801 C 0.41343 0.89975 0.84151 0.0
H802 H 0.43607 0.90049 0.89581 0.0
C803 C 0.37974 0.87791 0.8426 0.0
C804 C 0.36636 0.86381 0.86278 0.0
H805 H 0.42318 0.90978 0.82566 0.0
H806 H 0.3644 0.87179 0.82759 0.0
C807 C 0.3871 0.87256 0.88188 0.0
C808 C 0.31789 0.80835 0.33658 0.0
C809 C 0.30615 0.79331 0.35688 0.0
H810 H 0.34743 0.85342 0.3196 0.0
C811 C 0.31397 0.81442 0.37596 0.0
H812 H 0.3123 0.79288 0.32156 0.0
C813 C 0.33397 0.84923 0.37483 0.0
C814 C 0.34684 0.86363 0.3546 0.0
H815 H 0.30517 0.80378 0.39186 0.0
H816 H 0.34012 0.86435 0.38989 0.0
C817 C 0.33811 0.84306 0.33546 0.0
C818 C 0.38114 0.09358 0.62527 0.0
C819 C 0.36783 0.10749 0.60503 0.0
H820 H 0.42473 0.06223 0.64242 0.0
C821 C 0.38877 0.09877 0.58601 0.0
H822 H 0.36566 0.0997 0.64023 0.0
C823 C 0.42249 0.07702 0.58723 0.0
C824 C 0.4362 0.06374 0.60753 0.0
H825 H 0.37921 0.10884 0.57013 0.0
H826 H 0.43814 0.0712 0.57229 0.0
C827 C 0.41502 0.07207 0.62652 0.0
C828 C 0.12285 0.14016 0.83775 0.0
C829 C 0.11359 0.11918 0.85673 0.0
H830 H 0.15121 0.18928 0.82412 0.0
C831 C 0.12724 0.13224 0.87703 0.0
H832 H 0.11302 0.13078 0.82182 0.0
C833 C 0.1491 0.16591 0.87836 0.0
C834 C 0.15807 0.18708 0.85939 0.0
H835 H 0.12072 0.11671 0.89196 0.0
H836 H 0.15876 0.17545 0.89429 0.0
C837 C 0.14495 0.17363 0.83905 0.0
C838 C 0.0918 0.88418 0.08634 0.0
C839 C 0.11241 0.87469 0.1054 0.0
H840 H 0.04177 0.9108 0.07265 0.0
C841 C 0.09817 0.88695 0.12574 0.0
H842 H 0.10203 0.87536 0.07039 0.0
C843 C 0.06351 0.90716 0.12704 0.0
C844 C 0.04239 0.9158 0.10802 0.0
H845 H 0.11334 0.88022 0.14075 0.0
H846 H 0.05299 0.91549 0.14301 0.0
C847 C 0.05725 0.9046 0.08763 0.0
C848 C 0.65521 0.80921 0.83697 0.0
C849 C 0.66719 0.79405 0.8572 0.0
H850 H 0.62528 0.85427 0.82018 0.0
C851 C 0.65965 0.81508 0.87634 0.0
H852 H 0.6606 0.7938 0.82191 0.0
C853 C 0.63952 0.84984 0.87535 0.0
C854 C 0.62626 0.86427 0.85521 0.0
H855 H 0.66865 0.80435 0.89219 0.0
H856 H 0.6335 0.86485 0.89047 0.0
C857 C 0.63487 0.84387 0.83599 0.0
C858 C 0.90614 0.91401 0.62769 0.0
C859 C 0.92685 0.92371 0.60872 0.0
H860 H 0.85694 0.88575 0.64121 0.0
C861 C 0.91161 0.91369 0.58821 0.0
H862 H 0.91697 0.92146 0.64374 0.0
C863 C 0.87729 0.89295 0.58676 0.0
C864 C 0.85729 0.88206 0.60578 0.0
H865 H 0.92679 0.92076 0.57327 0.0
H866 H 0.86687 0.88479 0.57074 0.0
C867 C 0.87167 0.89355 0.62623 0.0
C868 C 0.8267 0.16679 0.33852 0.0
C869 C 0.8148 0.18098 0.35893 0.0
H870 H 0.85818 0.12364 0.32124 0.0
C871 C 0.82508 0.16063 0.37797 0.0
H872 H 0.81942 0.18184 0.32354 0.0
C873 C 0.84724 0.12715 0.37665 0.0
C874 C 0.85993 0.11351 0.35627 0.0
H875 H 0.81637 0.17077 0.39396 0.0
H876 H 0.85491 0.11232 0.39164 0.0
C877 C 0.84917 0.13355 0.33722 0.0
C878 C 0.59349 0.09185 0.08657 0.0
C879 C 0.61367 0.10052 0.10587 0.0
H880 H 0.54402 0.06542 0.07223 0.0
C881 C 0.59922 0.087 0.12595 0.0
H882 H 0.6039 0.10164 0.07081 0.0
C883 C 0.5648 0.06632 0.12677 0.0
C884 C 0.54412 0.05847 0.10752 0.0
H885 H 0.61405 0.09306 0.14113 0.0
H886 H 0.55412 0.05701 0.14256 0.0
C887 C 0.55918 0.07097 0.08738 0.0
C888 C 0.66232 0.15619 0.59146 0.0
C889 C 0.67154 0.17659 0.61058 0.0
H890 H 0.63437 0.10724 0.57754 0.0
C891 C 0.66091 0.16103 0.63095 0.0
H892 H 0.67025 0.16726 0.5755 0.0
C893 C 0.64007 0.1267 0.63211 0.0
C894 C 0.62967 0.10701 0.61294 0.0
H895 H 0.66758 0.17598 0.646 0.0
H896 H 0.63145 0.11602 0.64804 0.0
C897 C 0.64176 0.12172 0.59263 0.0
C898 C 0.55203 0.89798 0.3808 0.0
C899 C 0.53824 0.91102 0.36047 0.0
H900 H 0.59542 0.86643 0.39797 0.0
C901 C 0.55948 0.90269 0.3415 0.0
H902 H 0.53635 0.90381 0.39573 0.0
C903 C 0.59345 0.88132 0.34279 0.0
C904 C 0.60677 0.86756 0.36307 0.0
H905 H 0.54971 0.91236 0.32558 0.0
H906 H 0.60893 0.87514 0.32785 0.0
C907 C 0.58583 0.87637 0.38207 0.0
C908 C 0.81937 0.80814 0.13112 0.0
C909 C 0.80741 0.79362 0.11078 0.0
H910 H 0.8496 0.85241 0.14822 0.0
C911 C 0.81579 0.81483 0.09174 0.0
H912 H 0.8134 0.79257 0.14611 0.0
C913 C 0.83645 0.84925 0.09296 0.0
C914 C 0.84943 0.86315 0.11323 0.0
H915 H 0.8069 0.80457 0.07581 0.0
H916 H 0.84294 0.8645 0.07793 0.0
C917 C 0.84024 0.84243 0.13232 0.0
C918 C 0.90463 0.06655 0.84172 0.0
C919 C 0.92489 0.05695 0.86088 0.0
H920 H 0.85574 0.09475 0.82774 0.0
C921 C 0.90926 0.06732 0.88123 0.0
H922 H 0.91577 0.05885 0.82578 0.0
C923 C 0.87496 0.08818 0.88235 0.0
C924 C 0.85533 0.09886 0.86315 0.0
H925 H 0.92412 0.06039 0.89631 0.0
H926 H 0.86419 0.09652 0.89827 0.0
C927 C 0.87016 0.08712 0.84285 0.0
C928 C 0.82674 0.67441 0.63105 0.0
C929 C 0.81408 0.68831 0.61066 0.0
H930 H 0.85776 0.63076 0.64838 0.0
C931 C 0.82277 0.66714 0.59173 0.0
H932 H 0.82063 0.69004 0.64595 0.0
C933 C 0.84396 0.63305 0.59313 0.0
C934 C 0.85721 0.61952 0.61348 0.0
H935 H 0.81341 0.677 0.57577 0.0
H936 H 0.85034 0.61757 0.57822 0.0
C937 C 0.84819 0.64048 0.63243 0.0
C938 C 0.59145 0.59244 0.88247 0.0
C939 C 0.61168 0.60136 0.86319 0.0
H940 H 0.54203 0.56565 0.89674 0.0
C941 C 0.59723 0.58816 0.84309 0.0
H942 H 0.60185 0.602 0.89824 0.0
C943 C 0.56285 0.56742 0.84222 0.0
C944 C 0.54221 0.55917 0.86145 0.0
H945 H 0.61208 0.59443 0.82792 0.0
H946 H 0.55224 0.55827 0.82641 0.0
C947 C 0.55718 0.57148 0.88161 0.0
C948 C 0.6375 0.34906 0.0933 0.0
C949 C 0.62452 0.36335 0.11347 0.0
H950 H 0.66686 0.30393 0.07643 0.0
C951 C 0.63359 0.34292 0.13269 0.0
H952 H 0.63111 0.36409 0.07818 0.0
C953 C 0.65428 0.30848 0.1317 0.0
C954 C 0.66618 0.29355 0.11146 0.0
H955 H 0.62422 0.3532 0.14852 0.0
H956 H 0.66012 0.29312 0.14679 0.0
C957 C 0.65799 0.31451 0.0923 0.0
C958 C 0.88126 0.38212 0.3429 0.0
C959 C 0.8681 0.36877 0.36329 0.0
H960 H 0.92494 0.41268 0.3254 0.0
C961 C 0.88923 0.37787 0.38219 0.0
H962 H 0.86562 0.37569 0.32803 0.0
C963 C 0.92307 0.39932 0.3807 0.0
C964 C 0.93672 0.41192 0.36026 0.0
H965 H 0.87978 0.36824 0.39817 0.0
H966 H 0.93889 0.40537 0.39556 0.0
C967 C 0.91528 0.40334 0.3414 0.0
C968 C 0.83636 0.34796 0.87606 0.0
C969 C 0.84946 0.36212 0.85583 0.0
H970 H 0.80643 0.30325 0.8931 0.0
C971 C 0.84029 0.34171 0.8367 0.0
H972 H 0.84283 0.36297 0.89112 0.0
C973 C 0.81919 0.30752 0.83782 0.0
C974 C 0.80699 0.29282 0.85812 0.0
H975 H 0.84976 0.35188 0.82083 0.0
H976 H 0.81317 0.29221 0.8228 0.0
C977 C 0.81548 0.31366 0.8772 0.0
C978 C 0.90825 0.56718 0.12602 0.0
C979 C 0.92906 0.55931 0.10684 0.0
H980 H 0.85878 0.59377 0.14023 0.0
C981 C 0.91399 0.57152 0.08663 0.0
H982 H 0.91893 0.55808 0.14186 0.0
C983 C 0.87955 0.59221 0.08571 0.0
C984 C 0.85925 0.60094 0.10495 0.0
H985 H 0.92925 0.56593 0.07153 0.0
H986 H 0.86914 0.60182 0.06991 0.0
C987 C 0.87369 0.58765 0.12509 0.0
C988 C 0.62836 0.62606 0.37632 0.0
C989 C 0.6154 0.61237 0.356 0.0
H990 H 0.6595 0.6697 0.39345 0.0
C991 C 0.62601 0.63227 0.33688 0.0
H992 H 0.62082 0.61133 0.39135 0.0
C993 C 0.64855 0.66546 0.33806 0.0
C994 C 0.66069 0.67973 0.3584 0.0
H995 H 0.6168 0.62232 0.32094 0.0
H996 H 0.65567 0.68041 0.32302 0.0
C997 C 0.65061 0.65949 0.37751 0.0
C998 C 0.59081 0.37819 0.58722 0.0
C999 C 0.6109 0.36737 0.60623 0.0
H1000 H 0.5428 0.40843 0.57363 0.0
C1001 C 0.59761 0.38038 0.62661 0.0
H1002 H 0.60046 0.36894 0.57123 0.0
C1003 C 0.56445 0.40297 0.62799 0.0
C1004 C 0.54407 0.41336 0.609 0.0
H1005 H 0.6125 0.37268 0.64157 0.0
H1006 H 0.55458 0.41196 0.64398 0.0
C1007 C 0.55789 0.40109 0.58858 0.0
C1008 C 0.1368 0.34301 0.33525 0.0
C1009 C 0.128 0.36384 0.35428 0.0
H1010 H 0.16272 0.29265 0.32161 0.0
C1011 C 0.14081 0.34969 0.37459 0.0
H1012 H 0.12753 0.35316 0.31933 0.0
C1013 C 0.16084 0.31489 0.3759 0.0
C1014 C 0.16876 0.29355 0.35693 0.0
H1015 H 0.1346 0.36501 0.38958 0.0
H1016 H 0.1696 0.30447 0.39186 0.0
C1017 C 0.15706 0.30832 0.33655 0.0
C1018 C 0.37651 0.38558 0.12683 0.0
C1019 C 0.36203 0.37264 0.10668 0.0
H1020 H 0.42166 0.41505 0.14362 0.0
C1021 C 0.38224 0.38175 0.08744 0.0
H1022 H 0.36165 0.37916 0.14198 0.0
C1023 C 0.4166 0.40254 0.08837 0.0
C1024 C 0.43166 0.4145 0.10858 0.0
H1025 H 0.37181 0.37241 0.07163 0.0
H1026 H 0.43176 0.40847 0.07326 0.0
C1027 C 0.41098 0.40616 0.12778 0.0
C1028 C 0.314 0.65546 0.87778 0.0
C1029 C 0.30439 0.67544 0.85849 0.0
H1030 H 0.34271 0.60707 0.89207 0.0
C1031 C 0.31521 0.65974 0.83825 0.0
H1032 H 0.30598 0.66667 0.89365 0.0
C1033 C 0.33654 0.62569 0.83735 0.0
C1034 C 0.34728 0.60641 0.85667 0.0
H1035 H 0.30827 0.67437 0.82308 0.0
H1036 H 0.34521 0.61488 0.8215 0.0
C1037 C 0.33508 0.62126 0.87687 0.0
C1038 C 0.06483 0.57137 0.62721 0.0
C1039 C 0.04424 0.56168 0.60822 0.0
H1040 H 0.11347 0.60047 0.64079 0.0
C1041 C 0.05861 0.57338 0.58777 0.0
H1042 H 0.05457 0.56273 0.64322 0.0
C1043 C 0.09214 0.59535 0.5864 0.0
C1044 C 0.11225 0.60579 0.60542 0.0
H1045 H 0.04343 0.56649 0.57282 0.0
H1046 H 0.10208 0.60443 0.57041 0.0
C1047 C 0.09858 0.59304 0.62582 0.0
C1048 C 0.13107 0.63282 0.13088 0.0
C1049 C 0.12182 0.61268 0.11167 0.0
H1050 H 0.15803 0.68224 0.14495 0.0
C1051 C 0.13472 0.62718 0.09148 0.0
H1052 H 0.12177 0.62237 0.14672 0.0
C1053 C 0.15541 0.66161 0.09046 0.0
C1054 C 0.16391 0.68222 0.10962 0.0
H1055 H 0.12819 0.61238 0.07636 0.0
H1056 H 0.16427 0.67233 0.07458 0.0
C1057 C 0.15199 0.66713 0.12987 0.0
C1058 C 0.09896 0.39065 0.844 0.0
C1059 C 0.11317 0.37814 0.86435 0.0
H1060 H 0.05344 0.41871 0.82664 0.0
C1061 C 0.09226 0.38694 0.88337 0.0
H1062 H 0.11434 0.38444 0.82902 0.0
C1063 C 0.05737 0.40677 0.882 0.0
C1064 C 0.04247 0.41803 0.86158 0.0
H1065 H 0.10246 0.3779 0.89932 0.0
H1066 H 0.04162 0.41235 0.89694 0.0
C1067 C 0.06396 0.41026 0.84263 0.0
C1068 C 0.32262 0.30955 0.6312 0.0
C1069 C 0.311 0.29536 0.61074 0.0
H1070 H 0.35355 0.35291 0.64862 0.0
C1071 C 0.32074 0.31615 0.59177 0.0
H1072 H 0.31568 0.29421 0.64613 0.0
C1073 C 0.34237 0.34993 0.5932 0.0
C1074 C 0.35503 0.36343 0.61361 0.0
H1075 H 0.31216 0.30604 0.57575 0.0
H1076 H 0.34984 0.36498 0.57825 0.0
C1077 C 0.34454 0.34311 0.63261 0.0
C1078 C 0.40533 0.56427 0.34102 0.0
C1079 C 0.42534 0.55444 0.36023 0.0
H1080 H 0.35706 0.59332 0.32689 0.0
C1081 C 0.40995 0.56546 0.38053 0.0
H1082 H 0.41631 0.55612 0.32512 0.0
C1083 C 0.37611 0.58708 0.38154 0.0
C1084 C 0.35671 0.5979 0.36229 0.0
H1085 H 0.42464 0.55839 0.39564 0.0
H1086 H 0.36549 0.59582 0.39742 0.0
C1087 C 0.37133 0.58562 0.34204 0.0
loop_
_geom_bond_atom_site_label_1
_geom_bond_atom_site_label_2
_geom_bond_distance
_geom_bond_site_symmetry_2
_ccdc_geom_bond_type
C0 O1 1.306 . S
C0 O3 1.160 . S
O1 C0 1.306 . S
O1 Cd2 2.228 . S
Cd2 O1 2.228 . S
Cd2 O6 2.273 . S
Cd2 O10 2.277 . S
O3 C0 1.160 . S
O3 Cd4 2.203 . S
Cd4 O3 2.203 . S
Cd4 O6 2.411 . S
Cd4 O7 2.333 . S
Cd4 O8 2.352 . S
Cd4 O12 2.277 . S
Cd4 O13 2.356 . S
C5 O10 1.209 . S
C5 O12 1.226 . S
O6 Cd2 2.273 . S
O6 Cd4 2.411 . S
O6 C9 1.319 1_545 S
O7 Cd4 2.333 . S
O7 C9 1.211 1_545 S
O8 Cd4 2.352 . S
O8 C11 1.258 . S
C9 O6 1.319 1_565 S
C9 O7 1.211 1_565 S
O10 Cd2 2.277 . S
O10 C5 1.209 . S
C11 O8 1.258 . S
C11 O13 1.282 . S
O12 Cd4 2.277 . S
O12 C5 1.226 . S
O13 Cd4 2.356 . S
O13 C11 1.282 . S
C14 O15 1.306 . S
C14 O17 1.160 . S
O15 C14 1.306 . S
O15 Cd16 2.228 . S
Cd16 O15 2.228 . S
Cd16 O20 2.273 . S
Cd16 O24 2.277 . S
O17 C14 1.160 . S
O17 Cd18 2.203 . S
Cd18 O17 2.203 . S
Cd18 O20 2.411 . S
Cd18 O21 2.333 . S
Cd18 O22 2.352 . S
Cd18 O26 2.277 . S
Cd18 O27 2.356 . S
C19 O24 1.209 . S
C19 O26 1.226 . S
O20 Cd16 2.273 . S
O20 Cd18 2.411 . S
O20 C23 1.320 . S
O21 Cd18 2.333 . S
O21 C23 1.214 . S
O22 Cd18 2.352 . S
O22 C25 1.258 . S
C23 O20 1.320 . S
C23 O21 1.214 . S
O24 Cd16 2.277 . S
O24 C19 1.209 . S
C25 O22 1.258 . S
C25 O27 1.282 . S
O26 Cd18 2.277 . S
O26 C19 1.226 . S
O27 Cd18 2.356 . S
O27 C25 1.282 . S
C28 O29 1.306 . S
C28 O31 1.160 . S
O29 C28 1.306 . S
O29 Cd30 2.228 . S
Cd30 O29 2.228 . S
Cd30 O34 2.273 . S
Cd30 O38 2.277 . S
O31 C28 1.160 . S
O31 Cd32 2.203 . S
Cd32 O31 2.203 . S
Cd32 O34 2.411 . S
Cd32 O35 2.333 . S
Cd32 O36 2.352 . S
Cd32 O40 2.277 . S
Cd32 O41 2.356 . S
C33 O38 1.209 . S
C33 O40 1.226 . S
O34 Cd30 2.273 . S
O34 Cd32 2.411 . S
O34 C37 1.319 1_565 S
O35 Cd32 2.333 . S
O35 C37 1.211 1_565 S
O36 Cd32 2.352 . S
O36 C39 1.258 . S
C37 O34 1.319 1_545 S
C37 O35 1.211 1_545 S
O38 Cd30 2.277 . S
O38 C33 1.209 . S
C39 O36 1.258 . S
C39 O41 1.282 . S
O40 Cd32 2.277 . S
O40 C33 1.226 . S
O41 Cd32 2.356 . S
O41 C39 1.282 . S
C42 O43 1.306 . S
C42 O45 1.160 . S
O43 C42 1.306 . S
O43 Cd44 2.228 . S
Cd44 O43 2.228 . S
Cd44 O48 2.273 . S
Cd44 O52 2.277 . S
O45 C42 1.160 . S
O45 Cd46 2.203 . S
Cd46 O45 2.203 . S
Cd46 O48 2.411 . S
Cd46 O49 2.333 . S
Cd46 O50 2.352 . S
Cd46 O54 2.277 . S
Cd46 O55 2.356 . S
C47 O52 1.209 . S
C47 O54 1.226 . S
O48 Cd44 2.273 . S
O48 Cd46 2.411 . S
O48 C51 1.320 . S
O49 Cd46 2.333 . S
O49 C51 1.214 . S
O50 Cd46 2.352 . S
O50 C53 1.258 . S
C51 O48 1.320 . S
C51 O49 1.214 . S
O52 Cd44 2.277 . S
O52 C47 1.209 . S
C53 O50 1.258 . S
C53 O55 1.282 . S
O54 Cd46 2.277 . S
O54 C47 1.226 . S
O55 Cd46 2.356 . S
O55 C53 1.282 . S
C56 O57 1.306 . S
C56 O59 1.160 . S
O57 C56 1.306 . S
O57 Cd58 2.228 . S
Cd58 O57 2.228 . S
Cd58 O62 2.273 . S
Cd58 O66 2.277 . S
O59 C56 1.160 . S
O59 Cd60 2.203 . S
Cd60 O59 2.203 . S
Cd60 O62 2.411 . S
Cd60 O63 2.333 . S
Cd60 O64 2.352 . S
Cd60 O68 2.277 . S
Cd60 O69 2.356 . S
C61 O66 1.209 . S
C61 O68 1.226 . S
O62 Cd58 2.273 . S
O62 Cd60 2.411 . S
O62 C65 1.319 1_565 S
O63 Cd60 2.333 . S
O63 C65 1.211 1_565 S
O64 Cd60 2.352 . S
O64 C67 1.258 . S
C65 O62 1.319 1_545 S
C65 O63 1.211 1_545 S
O66 Cd58 2.277 . S
O66 C61 1.209 . S
C67 O64 1.258 . S
C67 O69 1.282 . S
O68 Cd60 2.277 . S
O68 C61 1.226 . S
O69 Cd60 2.356 . S
O69 C67 1.282 . S
C70 O71 1.306 . S
C70 O73 1.160 . S
O71 C70 1.306 . S
O71 Cd72 2.228 . S
Cd72 O71 2.228 . S
Cd72 O76 2.273 . S
Cd72 O80 2.277 . S
O73 C70 1.160 . S
O73 Cd74 2.203 . S
Cd74 O73 2.203 . S
Cd74 O76 2.411 . S
Cd74 O77 2.333 . S
Cd74 O78 2.352 . S
Cd74 O82 2.277 . S
Cd74 O83 2.356 . S
C75 O80 1.209 . S
C75 O82 1.226 . S
O76 Cd72 2.273 . S
O76 Cd74 2.411 . S
O76 C79 1.320 . S
O77 Cd74 2.333 . S
O77 C79 1.214 . S
O78 Cd74 2.352 . S
O78 C81 1.258 . S
C79 O76 1.320 . S
C79 O77 1.214 . S
O80 Cd72 2.277 . S
O80 C75 1.209 . S
C81 O78 1.258 . S
C81 O83 1.282 . S
O82 Cd74 2.277 . S
O82 C75 1.226 . S
O83 Cd74 2.356 . S
O83 C81 1.282 . S
C84 O85 1.306 . S
C84 O87 1.160 . S
O85 C84 1.306 . S
O85 Cd86 2.228 . S
Cd86 O85 2.228 . S
Cd86 O90 2.273 . S
Cd86 O94 2.277 . S
O87 C84 1.160 . S
O87 Cd88 2.203 . S
Cd88 O87 2.203 . S
Cd88 O90 2.411 . S
Cd88 O91 2.333 . S
Cd88 O92 2.352 . S
Cd88 O96 2.277 . S
Cd88 O97 2.356 . S
C89 O94 1.209 . S
C89 O96 1.226 . S
O90 Cd86 2.273 . S
O90 Cd88 2.411 . S
O90 C93 1.319 1_545 S
O91 Cd88 2.333 . S
O91 C93 1.211 1_545 S
O92 Cd88 2.352 . S
O92 C95 1.258 . S
C93 O90 1.319 1_565 S
C93 O91 1.211 1_565 S
O94 Cd86 2.277 . S
O94 C89 1.209 . S
C95 O92 1.258 . S
C95 O97 1.282 . S
O96 Cd88 2.277 . S
O96 C89 1.226 . S
O97 Cd88 2.356 . S
O97 C95 1.282 . S
C98 O99 1.306 . S
C98 O101 1.160 . S
O99 C98 1.306 . S
O99 Cd100 2.228 . S
Cd100 O99 2.228 . S
Cd100 O104 2.273 . S
Cd100 O108 2.277 . S
O101 C98 1.160 . S
O101 Cd102 2.203 . S
Cd102 O101 2.203 . S
Cd102 O104 2.411 . S
Cd102 O105 2.333 . S
Cd102 O106 2.352 . S
Cd102 O110 2.277 . S
Cd102 O111 2.356 . S
C103 O108 1.209 . S
C103 O110 1.226 . S
O104 Cd100 2.273 . S
O104 Cd102 2.411 . S
O104 C107 1.320 . S
O105 Cd102 2.333 . S
O105 C107 1.214 . S
O106 Cd102 2.352 . S
O106 C109 1.258 . S
C107 O104 1.320 . S
C107 O105 1.214 . S
O108 Cd100 2.277 . S
O108 C103 1.209 . S
C109 O106 1.258 . S
C109 O111 1.282 . S
O110 Cd102 2.277 . S
O110 C103 1.226 . S
O111 Cd102 2.356 . S
O111 C109 1.282 . S
C112 O113 1.306 . S
C112 O115 1.160 . S
O113 C112 1.306 . S
O113 Cd114 2.228 . S
Cd114 O113 2.228 . S
Cd114 O118 2.273 . S
Cd114 O122 2.277 . S
O115 C112 1.160 . S
O115 Cd116 2.203 . S
Cd116 O115 2.203 . S
Cd116 O118 2.411 . S
Cd116 O119 2.333 . S
Cd116 O120 2.352 . S
Cd116 O124 2.277 . S
Cd116 O125 2.356 . S
C117 O122 1.209 . S
C117 O124 1.226 . S
O118 Cd114 2.273 . S
O118 Cd116 2.411 . S
O118 C121 1.319 1_565 S
O119 Cd116 2.333 . S
O119 C121 1.211 1_565 S
O120 Cd116 2.352 . S
O120 C123 1.258 . S
C121 O118 1.319 1_545 S
C121 O119 1.211 1_545 S
O122 Cd114 2.277 . S
O122 C117 1.209 . S
C123 O120 1.258 . S
C123 O125 1.282 . S
O124 Cd116 2.277 . S
O124 C117 1.226 . S
O125 Cd116 2.356 . S
O125 C123 1.282 . S
C126 O127 1.306 . S
C126 O129 1.160 . S
O127 C126 1.306 . S
O127 Cd128 2.228 . S
Cd128 O127 2.228 . S
Cd128 O132 2.273 . S
Cd128 O136 2.277 . S
O129 C126 1.160 . S
O129 Cd130 2.203 . S
Cd130 O129 2.203 . S
Cd130 O132 2.411 . S
Cd130 O133 2.333 . S
Cd130 O134 2.352 . S
Cd130 O138 2.277 . S
Cd130 O139 2.356 . S
C131 O136 1.209 . S
C131 O138 1.226 . S
O132 Cd128 2.273 . S
O132 Cd130 2.411 . S
O132 C135 1.320 . S
O133 Cd130 2.333 . S
O133 C135 1.214 . S
O134 Cd130 2.352 . S
O134 C137 1.258 . S
C135 O132 1.320 . S
C135 O133 1.214 . S
O136 Cd128 2.277 . S
O136 C131 1.209 . S
C137 O134 1.258 . S
C137 O139 1.282 . S
O138 Cd130 2.277 . S
O138 C131 1.226 . S
O139 Cd130 2.356 . S
O139 C137 1.282 . S
C140 O141 1.306 . S
C140 O143 1.160 . S
O141 C140 1.306 . S
O141 Cd142 2.228 . S
Cd142 O141 2.228 . S
Cd142 O146 2.273 . S
Cd142 O150 2.277 . S
O143 C140 1.160 . S
O143 Cd144 2.203 . S
Cd144 O143 2.203 . S
Cd144 O146 2.411 . S
Cd144 O147 2.333 . S
Cd144 O148 2.352 . S
Cd144 O152 2.277 . S
Cd144 O153 2.356 . S
C145 O150 1.209 . S
C145 O152 1.226 . S
O146 Cd142 2.273 . S
O146 Cd144 2.411 . S
O146 C149 1.319 1_545 S
O147 Cd144 2.333 . S
O147 C149 1.211 1_545 S
O148 Cd144 2.352 . S
O148 C151 1.258 . S
C149 O146 1.319 1_565 S
C149 O147 1.211 1_565 S
O150 Cd142 2.277 . S
O150 C145 1.209 . S
C151 O148 1.258 . S
C151 O153 1.282 . S
O152 Cd144 2.277 . S
O152 C145 1.226 . S
O153 Cd144 2.356 . S
O153 C151 1.282 . S
C154 O155 1.306 . S
C154 O157 1.160 . S
O155 C154 1.306 . S
O155 Cd156 2.228 . S
Cd156 O155 2.228 . S
Cd156 O160 2.273 . S
Cd156 O164 2.277 . S
O157 C154 1.160 . S
O157 Cd158 2.203 . S
Cd158 O157 2.203 . S
Cd158 O160 2.411 . S
Cd158 O161 2.333 . S
Cd158 O162 2.352 . S
Cd158 O166 2.277 . S
Cd158 O167 2.356 . S
C159 O164 1.209 . S
C159 O166 1.226 . S
O160 Cd156 2.273 . S
O160 Cd158 2.411 . S
O160 C163 1.320 . S
O161 Cd158 2.333 . S
O161 C163 1.214 . S
O162 Cd158 2.352 . S
O162 C165 1.258 . S
C163 O160 1.320 . S
C163 O161 1.214 . S
O164 Cd156 2.277 . S
O164 C159 1.209 . S
C165 O162 1.258 . S
C165 O167 1.282 . S
O166 Cd158 2.277 . S
O166 C159 1.226 . S
O167 Cd158 2.356 . S
O167 C165 1.282 . S
C168 O169 1.306 . S
C168 O171 1.160 . S
O169 C168 1.306 . S
O169 Cd170 2.228 . S
Cd170 O169 2.228 . S
Cd170 O174 2.273 . S
Cd170 O178 2.277 . S
O171 C168 1.160 . S
O171 Cd172 2.203 . S
Cd172 O171 2.203 . S
Cd172 O174 2.411 . S
Cd172 O175 2.333 . S
Cd172 O176 2.352 . S
Cd172 O180 2.277 . S
Cd172 O181 2.356 . S
C173 O178 1.209 . S
C173 O180 1.226 . S
O174 Cd170 2.273 . S
O174 Cd172 2.411 . S
O174 C177 1.319 1_545 S
O175 Cd172 2.333 . S
O175 C177 1.211 1_545 S
O176 Cd172 2.352 . S
O176 C179 1.258 . S
C177 O174 1.319 1_565 S
C177 O175 1.211 1_565 S
O178 Cd170 2.277 . S
O178 C173 1.209 . S
C179 O176 1.258 . S
C179 O181 1.282 . S
O180 Cd172 2.277 . S
O180 C173 1.226 . S
O181 Cd172 2.356 . S
O181 C179 1.282 . S
C182 O183 1.306 . S
C182 O185 1.160 . S
O183 C182 1.306 . S
O183 Cd184 2.228 . S
Cd184 O183 2.228 . S
Cd184 O188 2.273 . S
Cd184 O192 2.277 . S
O185 C182 1.160 . S
O185 Cd186 2.203 . S
Cd186 O185 2.203 . S
Cd186 O188 2.411 . S
Cd186 O189 2.333 . S
Cd186 O190 2.352 . S
Cd186 O194 2.277 . S
Cd186 O195 2.356 . S
C187 O192 1.209 . S
C187 O194 1.226 . S
O188 Cd184 2.273 . S
O188 Cd186 2.411 . S
O188 C191 1.320 . S
O189 Cd186 2.333 . S
O189 C191 1.214 . S
O190 Cd186 2.352 . S
O190 C193 1.258 . S
C191 O188 1.320 . S
C191 O189 1.214 . S
O192 Cd184 2.277 . S
O192 C187 1.209 . S
C193 O190 1.258 . S
C193 O195 1.282 . S
O194 Cd186 2.277 . S
O194 C187 1.226 . S
O195 Cd186 2.356 . S
O195 C193 1.282 . S
C196 O197 1.306 . S
C196 O199 1.160 . S
O197 C196 1.306 . S
O197 Cd198 2.228 . S
Cd198 O197 2.228 . S
Cd198 O202 2.273 . S
Cd198 O206 2.277 . S
O199 C196 1.160 . S
O199 Cd200 2.203 . S
Cd200 O199 2.203 . S
Cd200 O202 2.411 . S
Cd200 O203 2.333 . S
Cd200 O204 2.352 . S
Cd200 O208 2.277 . S
Cd200 O209 2.356 . S
C201 O206 1.209 . S
C201 O208 1.226 . S
O202 Cd198 2.273 . S
O202 Cd200 2.411 . S
O202 C205 1.319 1_565 S
O203 Cd200 2.333 . S
O203 C205 1.211 1_565 S
O204 Cd200 2.352 . S
O204 C207 1.258 . S
C205 O202 1.319 1_545 S
C205 O203 1.211 1_545 S
O206 Cd198 2.277 . S
O206 C201 1.209 . S
C207 O204 1.258 . S
C207 O209 1.282 . S
O208 Cd200 2.277 . S
O208 C201 1.226 . S
O209 Cd200 2.356 . S
O209 C207 1.282 . S
C210 O211 1.306 . S
C210 O213 1.160 . S
O211 C210 1.306 . S
O211 Cd212 2.228 . S
Cd212 O211 2.228 . S
Cd212 O216 2.273 . S
Cd212 O220 2.277 . S
O213 C210 1.160 . S
O213 Cd214 2.203 . S
Cd214 O213 2.203 . S
Cd214 O216 2.411 . S
Cd214 O217 2.333 . S
Cd214 O218 2.352 . S
Cd214 O222 2.277 . S
Cd214 O223 2.356 . S
C215 O220 1.209 . S
C215 O222 1.226 . S
O216 Cd212 2.273 . S
O216 Cd214 2.411 . S
O216 C219 1.320 . S
O217 Cd214 2.333 . S
O217 C219 1.214 . S
O218 Cd214 2.352 . S
O218 C221 1.258 . S
C219 O216 1.320 . S
C219 O217 1.214 . S
O220 Cd212 2.277 . S
O220 C215 1.209 . S
C221 O218 1.258 . S
C221 O223 1.282 . S
O222 Cd214 2.277 . S
O222 C215 1.226 . S
O223 Cd214 2.356 . S
O223 C221 1.282 . S
C224 O225 1.306 . S
C224 O227 1.160 . S
O225 C224 1.306 . S
O225 Cd226 2.228 . S
Cd226 O225 2.228 . S
Cd226 O230 2.273 . S
Cd226 O234 2.277 . S
O227 C224 1.160 . S
O227 Cd228 2.203 . S
Cd228 O227 2.203 . S
Cd228 O230 2.411 . S
Cd228 O231 2.333 . S
Cd228 O232 2.352 . S
Cd228 O236 2.277 . S
Cd228 O237 2.356 . S
C229 O234 1.209 . S
C229 O236 1.226 . S
O230 Cd226 2.273 . S
O230 Cd228 2.411 . S
O230 C233 1.320 . S
O231 Cd228 2.333 . S
O231 C233 1.214 . S
O232 Cd228 2.352 . S
O232 C235 1.258 . S
C233 O230 1.320 . S
C233 O231 1.214 . S
O234 Cd226 2.277 . S
O234 C229 1.209 . S
C235 O232 1.258 . S
C235 O237 1.282 . S
O236 Cd228 2.277 . S
O236 C229 1.226 . S
O237 Cd228 2.356 . S
O237 C235 1.282 . S
C238 O239 1.306 . S
C238 O241 1.160 . S
O239 C238 1.306 . S
O239 Cd240 2.228 . S
Cd240 O239 2.228 . S
Cd240 O244 2.273 . S
Cd240 O248 2.277 . S
O241 C238 1.160 . S
O241 Cd242 2.203 . S
Cd242 O241 2.203 . S
Cd242 O244 2.411 . S
Cd242 O245 2.333 . S
Cd242 O246 2.352 . S
Cd242 O250 2.277 . S
Cd242 O251 2.356 . S
C243 O248 1.209 . S
C243 O250 1.226 . S
O244 Cd240 2.273 . S
O244 Cd242 2.411 . S
O244 C247 1.320 . S
O245 Cd242 2.333 . S
O245 C247 1.214 . S
O246 Cd242 2.352 . S
O246 C249 1.258 . S
C247 O244 1.320 . S
C247 O245 1.214 . S
O248 Cd240 2.277 . S
O248 C243 1.209 . S
C249 O246 1.258 . S
C249 O251 1.282 . S
O250 Cd242 2.277 . S
O250 C243 1.226 . S
O251 Cd242 2.356 . S
O251 C249 1.282 . S
C252 O253 1.306 . S
C252 O255 1.160 . S
O253 C252 1.306 . S
O253 Cd254 2.228 . S
Cd254 O253 2.228 . S
Cd254 O258 2.273 . S
Cd254 O262 2.277 . S
O255 C252 1.160 . S
O255 Cd256 2.203 . S
Cd256 O255 2.203 . S
Cd256 O258 2.411 . S
Cd256 O259 2.333 . S
Cd256 O260 2.352 . S
Cd256 O264 2.277 . S
Cd256 O265 2.356 . S
C257 O262 1.209 . S
C257 O264 1.226 . S
O258 Cd254 2.273 . S
O258 Cd256 2.411 . S
O258 C261 1.320 . S
O259 Cd256 2.333 . S
O259 C261 1.214 . S
O260 Cd256 2.352 . S
O260 C263 1.258 . S
C261 O258 1.320 . S
C261 O259 1.214 . S
O262 Cd254 2.277 . S
O262 C257 1.209 . S
C263 O260 1.258 . S
C263 O265 1.282 . S
O264 Cd256 2.277 . S
O264 C257 1.226 . S
O265 Cd256 2.356 . S
O265 C263 1.282 . S
C266 O267 1.306 . S
C266 O269 1.160 . S
O267 C266 1.306 . S
O267 Cd268 2.228 . S
Cd268 O267 2.228 . S
Cd268 O272 2.273 . S
Cd268 O276 2.277 . S
O269 C266 1.160 . S
O269 Cd270 2.203 . S
Cd270 O269 2.203 . S
Cd270 O272 2.411 . S
Cd270 O273 2.333 . S
Cd270 O274 2.352 . S
Cd270 O278 2.277 . S
Cd270 O279 2.356 . S
C271 O276 1.209 . S
C271 O278 1.226 . S
O272 Cd268 2.273 . S
O272 Cd270 2.411 . S
O272 C275 1.320 . S
O273 Cd270 2.333 . S
O273 C275 1.214 . S
O274 Cd270 2.352 . S
O274 C277 1.258 . S
C275 O272 1.320 . S
C275 O273 1.214 . S
O276 Cd268 2.277 . S
O276 C271 1.209 . S
C277 O274 1.258 . S
C277 O279 1.282 . S
O278 Cd270 2.277 . S
O278 C271 1.226 . S
O279 Cd270 2.356 . S
O279 C277 1.282 . S
C280 O281 1.306 . S
C280 O283 1.160 . S
O281 C280 1.306 . S
O281 Cd282 2.228 . S
Cd282 O281 2.228 . S
Cd282 O286 2.273 . S
Cd282 O290 2.277 . S
O283 C280 1.160 . S
O283 Cd284 2.203 . S
Cd284 O283 2.203 . S
Cd284 O286 2.411 . S
Cd284 O287 2.333 . S
Cd284 O288 2.352 . S
Cd284 O292 2.277 . S
Cd284 O293 2.356 . S
C285 O290 1.209 . S
C285 O292 1.226 . S
O286 Cd282 2.273 . S
O286 Cd284 2.411 . S
O286 C289 1.320 . S
O287 Cd284 2.333 . S
O287 C289 1.214 . S
O288 Cd284 2.352 . S
O288 C291 1.258 . S
C289 O286 1.320 . S
C289 O287 1.214 . S
O290 Cd282 2.277 . S
O290 C285 1.209 . S
C291 O288 1.258 . S
C291 O293 1.282 . S
O292 Cd284 2.277 . S
O292 C285 1.226 . S
O293 Cd284 2.356 . S
O293 C291 1.282 . S
C294 O295 1.306 . S
C294 O297 1.160 . S
O295 C294 1.306 . S
O295 Cd296 2.228 . S
Cd296 O295 2.228 . S
Cd296 O300 2.273 . S
Cd296 O304 2.277 . S
O297 C294 1.160 . S
O297 Cd298 2.203 . S
Cd298 O297 2.203 . S
Cd298 O300 2.411 . S
Cd298 O301 2.333 . S
Cd298 O302 2.352 . S
Cd298 O306 2.277 . S
Cd298 O307 2.356 . S
C299 O304 1.209 . S
C299 O306 1.226 . S
O300 Cd296 2.273 . S
O300 Cd298 2.411 . S
O300 C303 1.320 . S
O301 Cd298 2.333 . S
O301 C303 1.214 . S
O302 Cd298 2.352 . S
O302 C305 1.258 . S
C303 O300 1.320 . S
C303 O301 1.214 . S
O304 Cd296 2.277 . S
O304 C299 1.209 . S
C305 O302 1.258 . S
C305 O307 1.282 . S
O306 Cd298 2.277 . S
O306 C299 1.226 . S
O307 Cd298 2.356 . S
O307 C305 1.282 . S
C308 O309 1.306 . S
C308 O311 1.160 . S
O309 C308 1.306 . S
O309 Cd310 2.228 . S
Cd310 O309 2.228 . S
Cd310 O314 2.273 . S
Cd310 O318 2.277 . S
O311 C308 1.160 . S
O311 Cd312 2.203 . S
Cd312 O311 2.203 . S
Cd312 O314 2.411 . S
Cd312 O315 2.333 . S
Cd312 O316 2.352 . S
Cd312 O320 2.277 . S
Cd312 O321 2.356 . S
C313 O318 1.209 . S
C313 O320 1.226 . S
O314 Cd310 2.273 . S
O314 Cd312 2.411 . S
O314 C317 1.320 . S
O315 Cd312 2.333 . S
O315 C317 1.214 . S
O316 Cd312 2.352 . S
O316 C319 1.258 . S
C317 O314 1.320 . S
C317 O315 1.214 . S
O318 Cd310 2.277 . S
O318 C313 1.209 . S
C319 O316 1.258 . S
C319 O321 1.282 . S
O320 Cd312 2.277 . S
O320 C313 1.226 . S
O321 Cd312 2.356 . S
O321 C319 1.282 . S
C322 O323 1.306 . S
C322 O325 1.160 . S
O323 C322 1.306 . S
O323 Cd324 2.228 . S
Cd324 O323 2.228 . S
Cd324 O328 2.273 . S
Cd324 O332 2.277 . S
O325 C322 1.160 . S
O325 Cd326 2.203 . S
Cd326 O325 2.203 . S
Cd326 O328 2.411 . S
Cd326 O329 2.333 . S
Cd326 O330 2.352 . S
Cd326 O334 2.277 . S
Cd326 O335 2.356 . S
C327 O332 1.209 . S
C327 O334 1.226 . S
O328 Cd324 2.273 . S
O328 Cd326 2.411 . S
O328 C331 1.320 . S
O329 Cd326 2.333 . S
O329 C331 1.214 . S
O330 Cd326 2.352 . S
O330 C333 1.258 . S
C331 O328 1.320 . S
C331 O329 1.214 . S
O332 Cd324 2.277 . S
O332 C327 1.209 . S
C333 O330 1.258 . S
C333 O335 1.282 . S
O334 Cd326 2.277 . S
O334 C327 1.226 . S
O335 Cd326 2.356 . S
O335 C333 1.282 . S
C336 O337 1.306 . S
C336 O339 1.160 . S
O337 C336 1.306 . S
O337 Cd338 2.228 . S
Cd338 O337 2.228 . S
Cd338 O342 2.273 . S
Cd338 O346 2.277 . S
O339 C336 1.160 . S
O339 Cd340 2.203 . S
Cd340 O339 2.203 . S
Cd340 O342 2.411 . S
Cd340 O343 2.333 . S
Cd340 O344 2.352 . S
Cd340 O348 2.277 . S
Cd340 O349 2.356 . S
C341 O346 1.209 . S
C341 O348 1.226 . S
O342 Cd338 2.273 . S
O342 Cd340 2.411 . S
O342 C345 1.320 . S
O343 Cd340 2.333 . S
O343 C345 1.214 . S
O344 Cd340 2.352 . S
O344 C347 1.258 . S
C345 O342 1.320 . S
C345 O343 1.214 . S
O346 Cd338 2.277 . S
O346 C341 1.209 . S
C347 O344 1.258 . S
C347 O349 1.282 . S
O348 Cd340 2.277 . S
O348 C341 1.226 . S
O349 Cd340 2.356 . S
O349 C347 1.282 . S
C350 O351 1.306 . S
C350 O353 1.160 . S
O351 C350 1.306 . S
O351 Cd352 2.228 . S
Cd352 O351 2.228 . S
Cd352 O356 2.273 . S
Cd352 O360 2.277 . S
O353 C350 1.160 . S
O353 Cd354 2.203 . S
Cd354 O353 2.203 . S
Cd354 O356 2.411 . S
Cd354 O357 2.333 . S
Cd354 O358 2.352 . S
Cd354 O362 2.277 . S
Cd354 O363 2.356 . S
C355 O360 1.209 . S
C355 O362 1.226 . S
O356 Cd352 2.273 . S
O356 Cd354 2.411 . S
O356 C359 1.320 . S
O357 Cd354 2.333 . S
O357 C359 1.214 . S
O358 Cd354 2.352 . S
O358 C361 1.258 . S
C359 O356 1.320 . S
C359 O357 1.214 . S
O360 Cd352 2.277 . S
O360 C355 1.209 . S
C361 O358 1.258 . S
C361 O363 1.282 . S
O362 Cd354 2.277 . S
O362 C355 1.226 . S
O363 Cd354 2.356 . S
O363 C361 1.282 . S
C364 O365 1.306 . S
C364 O367 1.160 . S
O365 C364 1.306 . S
O365 Cd366 2.228 . S
Cd366 O365 2.228 . S
Cd366 O370 2.273 . S
Cd366 O374 2.277 . S
O367 C364 1.160 . S
O367 Cd368 2.203 . S
Cd368 O367 2.203 . S
Cd368 O370 2.411 . S
Cd368 O371 2.333 . S
Cd368 O372 2.352 . S
Cd368 O376 2.277 . S
Cd368 O377 2.356 . S
C369 O374 1.209 . S
C369 O376 1.226 . S
O370 Cd366 2.273 . S
O370 Cd368 2.411 . S
O370 C373 1.320 . S
O371 Cd368 2.333 . S
O371 C373 1.214 . S
O372 Cd368 2.352 . S
O372 C375 1.258 . S
C373 O370 1.320 . S
C373 O371 1.214 . S
O374 Cd366 2.277 . S
O374 C369 1.209 . S
C375 O372 1.258 . S
C375 O377 1.282 . S
O376 Cd368 2.277 . S
O376 C369 1.226 . S
O377 Cd368 2.356 . S
O377 C375 1.282 . S
C378 O379 1.306 . S
C378 O381 1.160 . S
O379 C378 1.306 . S
O379 Cd380 2.228 . S
Cd380 O379 2.228 . S
Cd380 O384 2.273 . S
Cd380 O388 2.277 . S
O381 C378 1.160 . S
O381 Cd382 2.203 . S
Cd382 O381 2.203 . S
Cd382 O384 2.411 . S
Cd382 O385 2.333 . S
Cd382 O386 2.352 . S
Cd382 O390 2.277 . S
Cd382 O391 2.356 . S
C383 O388 1.209 . S
C383 O390 1.226 . S
O384 Cd380 2.273 . S
O384 Cd382 2.411 . S
O384 C387 1.320 . S
O385 Cd382 2.333 . S
O385 C387 1.214 . S
O386 Cd382 2.352 . S
O386 C389 1.258 . S
C387 O384 1.320 . S
C387 O385 1.214 . S
O388 Cd380 2.277 . S
O388 C383 1.209 . S
C389 O386 1.258 . S
C389 O391 1.282 . S
O390 Cd382 2.277 . S
O390 C383 1.226 . S
O391 Cd382 2.356 . S
O391 C389 1.282 . S
C392 O393 1.306 . S
C392 O395 1.160 . S
O393 C392 1.306 . S
O393 Cd394 2.228 . S
Cd394 O393 2.228 . S
Cd394 O398 2.273 . S
Cd394 O402 2.277 . S
O395 C392 1.160 . S
O395 Cd396 2.203 . S
Cd396 O395 2.203 . S
Cd396 O398 2.411 . S
Cd396 O399 2.333 . S
Cd396 O400 2.352 . S
Cd396 O404 2.277 . S
Cd396 O405 2.356 . S
C397 O402 1.209 . S
C397 O404 1.226 . S
O398 Cd394 2.273 . S
O398 Cd396 2.411 . S
O398 C401 1.320 . S
O399 Cd396 2.333 . S
O399 C401 1.214 . S
O400 Cd396 2.352 . S
O400 C403 1.258 . S
C401 O398 1.320 . S
C401 O399 1.214 . S
O402 Cd394 2.277 . S
O402 C397 1.209 . S
C403 O400 1.258 . S
C403 O405 1.282 . S
O404 Cd396 2.277 . S
O404 C397 1.226 . S
O405 Cd396 2.356 . S
O405 C403 1.282 . S
C406 O407 1.306 . S
C406 O409 1.160 . S
O407 C406 1.306 . S
O407 Cd408 2.228 . S
Cd408 O407 2.228 . S
Cd408 O412 2.273 . S
Cd408 O416 2.277 . S
O409 C406 1.160 . S
O409 Cd410 2.203 . S
Cd410 O409 2.203 . S
Cd410 O412 2.411 . S
Cd410 O413 2.333 . S
Cd410 O414 2.352 . S
Cd410 O418 2.277 . S
Cd410 O419 2.356 . S
C411 O416 1.209 . S
C411 O418 1.226 . S
O412 Cd408 2.273 . S
O412 Cd410 2.411 . S
O412 C415 1.320 . S
O413 Cd410 2.333 . S
O413 C415 1.214 . S
O414 Cd410 2.352 . S
O414 C417 1.258 . S
C415 O412 1.320 . S
C415 O413 1.214 . S
O416 Cd408 2.277 . S
O416 C411 1.209 . S
C417 O414 1.258 . S
C417 O419 1.282 . S
O418 Cd410 2.277 . S
O418 C411 1.226 . S
O419 Cd410 2.356 . S
O419 C417 1.282 . S
C420 O421 1.306 . S
C420 O423 1.160 . S
O421 C420 1.306 . S
O421 Cd422 2.228 . S
Cd422 O421 2.228 . S
Cd422 O426 2.273 . S
Cd422 O430 2.277 . S
O423 C420 1.160 . S
O423 Cd424 2.203 . S
Cd424 O423 2.203 . S
Cd424 O426 2.411 . S
Cd424 O427 2.333 . S
Cd424 O428 2.352 . S
Cd424 O432 2.277 . S
Cd424 O433 2.356 . S
C425 O430 1.209 . S
C425 O432 1.226 . S
O426 Cd422 2.273 . S
O426 Cd424 2.411 . S
O426 C429 1.320 . S
O427 Cd424 2.333 . S
O427 C429 1.214 . S
O428 Cd424 2.352 . S
O428 C431 1.258 . S
C429 O426 1.320 . S
C429 O427 1.214 . S
O430 Cd422 2.277 . S
O430 C425 1.209 . S
C431 O428 1.258 . S
C431 O433 1.282 . S
O432 Cd424 2.277 . S
O432 C425 1.226 . S
O433 Cd424 2.356 . S
O433 C431 1.282 . S
C434 O435 1.306 . S
C434 O437 1.160 . S
O435 C434 1.306 . S
O435 Cd436 2.228 . S
Cd436 O435 2.228 . S
Cd436 O440 2.273 . S
Cd436 O444 2.277 . S
O437 C434 1.160 . S
O437 Cd438 2.203 . S
Cd438 O437 2.203 . S
Cd438 O440 2.411 . S
Cd438 O441 2.333 . S
Cd438 O442 2.352 . S
Cd438 O446 2.277 . S
Cd438 O447 2.356 . S
C439 O444 1.209 . S
C439 O446 1.226 . S
O440 Cd436 2.273 . S
O440 Cd438 2.411 . S
O440 C443 1.320 . S
O441 Cd438 2.333 . S
O441 C443 1.214 . S
O442 Cd438 2.352 . S
O442 C445 1.258 . S
C443 O440 1.320 . S
C443 O441 1.214 . S
O444 Cd436 2.277 . S
O444 C439 1.209 . S
C445 O442 1.258 . S
C445 O447 1.282 . S
O446 Cd438 2.277 . S
O446 C439 1.226 . S
O447 Cd438 2.356 . S
O447 C445 1.282 . S
C448 C449 1.387 . S
C448 H452 0.950 . S
C448 C457 1.390 1_565 S
C449 C448 1.387 . S
C449 C451 1.387 . S
H450 C457 0.950 . S
C451 C449 1.387 . S
C451 C453 1.390 1_565 S
C451 H455 0.950 . S
H452 C448 0.950 . S
C453 C451 1.390 1_545 S
C453 C454 1.387 . S
C453 H456 0.950 . S
C454 C453 1.387 . S
C454 C457 1.387 . S
H455 C451 0.950 . S
H456 C453 0.950 . S
C457 C448 1.390 1_545 S
C457 H450 0.950 . S
C457 C454 1.387 . S
C458 C459 1.387 . S
C458 H462 0.950 . S
C458 C467 1.390 . S
C459 C458 1.387 . S
C459 C461 1.387 . S
H460 C467 0.950 . S
C461 C459 1.387 . S
C461 C463 1.390 . S
C461 H465 0.950 . S
H462 C458 0.950 . S
C463 C461 1.390 . S
C463 C464 1.387 . S
C463 H466 0.950 . S
C464 C463 1.387 . S
C464 C467 1.387 . S
H465 C461 0.950 . S
H466 C463 0.950 . S
C467 C458 1.390 . S
C467 H460 0.950 . S
C467 C464 1.387 . S
C468 C469 1.387 . S
C468 H472 0.950 . S
C468 C477 1.390 1_545 S
C469 C468 1.387 . S
C469 C471 1.387 . S
H470 C477 0.950 . S
C471 C469 1.387 . S
C471 C473 1.390 1_545 S
C471 H475 0.950 . S
H472 C468 0.950 . S
C473 C471 1.390 1_565 S
C473 C474 1.387 . S
C473 H476 0.950 . S
C474 C473 1.387 . S
C474 C477 1.387 . S
H475 C471 0.950 . S
H476 C473 0.950 . S
C477 C468 1.390 1_565 S
C477 H470 0.950 . S
C477 C474 1.387 . S
C478 C479 1.387 . S
C478 H482 0.950 . S
C478 C487 1.390 1_556 S
C479 C478 1.387 . S
C479 C481 1.387 . S
H480 C487 0.950 . S
C481 C479 1.387 . S
C481 C483 1.390 1_556 S
C481 H485 0.950 . S
H482 C478 0.950 . S
C483 C481 1.390 1_554 S
C483 C484 1.387 . S
C483 H486 0.950 . S
C484 C483 1.387 . S
C484 C487 1.387 . S
H485 C481 0.950 . S
H486 C483 0.950 . S
C487 C478 1.390 1_554 S
C487 H480 0.950 . S
C487 C484 1.387 . S
C488 C489 1.387 . S
C488 H492 0.950 . S
C488 C497 1.390 1_565 S
C489 C488 1.387 . S
C489 C491 1.387 . S
H490 C497 0.950 . S
C491 C489 1.387 . S
C491 C493 1.390 1_565 S
C491 H495 0.950 . S
H492 C488 0.950 . S
C493 C491 1.390 1_545 S
C493 C494 1.387 . S
C493 H496 0.950 . S
C494 C493 1.387 . S
C494 C497 1.387 . S
H495 C491 0.950 . S
H496 C493 0.950 . S
C497 C488 1.390 1_545 S
C497 H490 0.950 . S
C497 C494 1.387 . S
C498 C499 1.387 . S
C498 H502 0.950 . S
C498 C507 1.390 . S
C499 C498 1.387 . S
C499 C501 1.387 . S
H500 C507 0.950 . S
C501 C499 1.387 . S
C501 C503 1.390 . S
C501 H505 0.950 . S
H502 C498 0.950 . S
C503 C501 1.390 . S
C503 C504 1.387 . S
C503 H506 0.950 . S
C504 C503 1.387 . S
C504 C507 1.387 . S
H505 C501 0.950 . S
H506 C503 0.950 . S
C507 C498 1.390 . S
C507 H500 0.950 . S
C507 C504 1.387 . S
C508 C509 1.387 . S
C508 H512 0.950 . S
C508 C517 1.390 1_545 S
C509 C508 1.387 . S
C509 C511 1.387 . S
H510 C517 0.950 . S
C511 C509 1.387 . S
C511 C513 1.390 1_545 S
C511 H515 0.950 . S
H512 C508 0.950 . S
C513 C511 1.390 1_565 S
C513 C514 1.387 . S
C513 H516 0.950 . S
C514 C513 1.387 . S
C514 C517 1.387 . S
H515 C511 0.950 . S
H516 C513 0.950 . S
C517 C508 1.390 1_565 S
C517 H510 0.950 . S
C517 C514 1.387 . S
C518 C519 1.387 . S
C518 H522 0.950 . S
C518 C527 1.390 1_556 S
C519 C518 1.387 . S
C519 C521 1.387 . S
H520 C527 0.950 . S
C521 C519 1.387 . S
C521 C523 1.390 1_556 S
C521 H525 0.950 . S
H522 C518 0.950 . S
C523 C521 1.390 1_554 S
C523 C524 1.387 . S
C523 H526 0.950 . S
C524 C523 1.387 . S
C524 C527 1.387 . S
H525 C521 0.950 . S
H526 C523 0.950 . S
C527 C518 1.390 1_554 S
C527 H520 0.950 . S
C527 C524 1.387 . S
C528 C529 1.387 . S
C528 H532 0.950 . S
C528 C537 1.390 . S
C529 C528 1.387 . S
C529 C531 1.387 . S
H530 C537 0.950 . S
C531 C529 1.387 . S
C531 C533 1.390 . S
C531 H535 0.950 . S
H532 C528 0.950 . S
C533 C531 1.390 . S
C533 C534 1.387 . S
C533 H536 0.950 . S
C534 C533 1.387 . S
C534 C537 1.387 . S
H535 C531 0.950 . S
H536 C533 0.950 . S
C537 C528 1.390 . S
C537 H530 0.950 . S
C537 C534 1.387 . S
C538 C539 1.387 . S
C538 H542 0.950 . S
C538 C547 1.390 1_554 S
C539 C538 1.387 . S
C539 C541 1.387 . S
H540 C547 0.950 . S
C541 C539 1.387 . S
C541 C543 1.390 1_554 S
C541 H545 0.950 . S
H542 C538 0.950 . S
C543 C541 1.390 1_556 S
C543 C544 1.387 . S
C543 H546 0.950 . S
C544 C543 1.387 . S
C544 C547 1.387 . S
H545 C541 0.950 . S
H546 C543 0.950 . S
C547 C538 1.390 1_556 S
C547 H540 0.950 . S
C547 C544 1.387 . S
C548 C549 1.387 . S
C548 H552 0.950 . S
C548 C557 1.390 . S
C549 C548 1.387 . S
C549 C551 1.387 . S
H550 C557 0.950 . S
C551 C549 1.387 . S
C551 C553 1.390 . S
C551 H555 0.950 . S
H552 C548 0.950 . S
C553 C551 1.390 . S
C553 C554 1.387 . S
C553 H556 0.950 . S
C554 C553 1.387 . S
C554 C557 1.387 . S
H555 C551 0.950 . S
H556 C553 0.950 . S
C557 C548 1.390 . S
C557 H550 0.950 . S
C557 C554 1.387 . S
C558 C559 1.387 . S
C558 H562 0.950 . S
C558 C567 1.390 . S
C559 C558 1.387 . S
C559 C561 1.387 . S
H560 C567 0.950 . S
C561 C559 1.387 . S
C561 C563 1.390 . S
C561 H565 0.950 . S
H562 C558 0.950 . S
C563 C561 1.390 . S
C563 C564 1.387 . S
C563 H566 0.950 . S
C564 C563 1.387 . S
C564 C567 1.387 . S
H565 C561 0.950 . S
H566 C563 0.950 . S
C567 C558 1.390 . S
C567 H560 0.950 . S
C567 C564 1.387 . S
C568 C569 1.387 . S
C568 H572 0.950 . S
C568 C577 1.390 . S
C569 C568 1.387 . S
C569 C571 1.387 . S
H570 C577 0.950 . S
C571 C569 1.387 . S
C571 C573 1.390 . S
C571 H575 0.950 . S
H572 C568 0.950 . S
C573 C571 1.390 . S
C573 C574 1.387 . S
C573 H576 0.950 . S
C574 C573 1.387 . S
C574 C577 1.387 . S
H575 C571 0.950 . S
H576 C573 0.950 . S
C577 C568 1.390 . S
C577 H570 0.950 . S
C577 C574 1.387 . S
C578 C579 1.387 . S
C578 H582 0.950 . S
C578 C587 1.390 1_554 S
C579 C578 1.387 . S
C579 C581 1.387 . S
H580 C587 0.950 . S
C581 C579 1.387 . S
C581 C583 1.390 1_554 S
C581 H585 0.950 . S
H582 C578 0.950 . S
C583 C581 1.390 1_556 S
C583 C584 1.387 . S
C583 H586 0.950 . S
C584 C583 1.387 . S
C584 C587 1.387 . S
H585 C581 0.950 . S
H586 C583 0.950 . S
C587 C578 1.390 1_556 S
C587 H580 0.950 . S
C587 C584 1.387 . S
C588 C589 1.387 . S
C588 H592 0.950 . S
C588 C597 1.390 . S
C589 C588 1.387 . S
C589 C591 1.387 . S
H590 C597 0.950 . S
C591 C589 1.387 . S
C591 C593 1.390 . S
C591 H595 0.950 . S
H592 C588 0.950 . S
C593 C591 1.390 . S
C593 C594 1.387 . S
C593 H596 0.950 . S
C594 C593 1.387 . S
C594 C597 1.387 . S
H595 C591 0.950 . S
H596 C593 0.950 . S
C597 C588 1.390 . S
C597 H590 0.950 . S
C597 C594 1.387 . S
C598 C599 1.387 . S
C598 H602 0.950 . S
C598 C607 1.390 . S
C599 C598 1.387 . S
C599 C601 1.387 . S
H600 C607 0.950 . S
C601 C599 1.387 . S
C601 C603 1.390 . S
C601 H605 0.950 . S
H602 C598 0.950 . S
C603 C601 1.390 . S
C603 C604 1.387 . S
C603 H606 0.950 . S
C604 C603 1.387 . S
C604 C607 1.387 . S
H605 C601 0.950 . S
H606 C603 0.950 . S
C607 C598 1.390 . S
C607 H600 0.950 . S
C607 C604 1.387 . S
C608 C609 1.387 . S
C608 H612 0.950 . S
C608 C617 1.390 . S
C609 C608 1.387 . S
C609 C611 1.387 . S
H610 C617 0.950 . S
C611 C609 1.387 . S
C611 C613 1.390 . S
C611 H615 0.950 . S
H612 C608 0.950 . S
C613 C611 1.390 . S
C613 C614 1.387 . S
C613 H616 0.950 . S
C614 C613 1.387 . S
C614 C617 1.387 . S
H615 C611 0.950 . S
H616 C613 0.950 . S
C617 C608 1.390 . S
C617 H610 0.950 . S
C617 C614 1.387 . S
C618 C619 1.387 . S
C618 H622 0.950 . S
C618 C627 1.390 . S
C619 C618 1.387 . S
C619 C621 1.387 . S
H620 C627 0.950 . S
C621 C619 1.387 . S
C621 C623 1.390 . S
C621 H625 0.950 . S
H622 C618 0.950 . S
C623 C621 1.390 . S
C623 C624 1.387 . S
C623 H626 0.950 . S
C624 C623 1.387 . S
C624 C627 1.387 . S
H625 C621 0.950 . S
H626 C623 0.950 . S
C627 C618 1.390 . S
C627 H620 0.950 . S
C627 C624 1.387 . S
C628 C629 1.387 . S
C628 H632 0.931 1_545 S
C628 C637 1.390 . S
C629 C628 1.387 . S
C629 C631 1.387 . S
H630 C637 0.950 . S
C631 C629 1.387 . S
C631 C633 1.390 . S
C631 H635 0.950 . S
H632 C628 0.931 1_565 S
C633 C631 1.390 . S
C633 C634 1.387 . S
C633 H636 0.950 . S
C634 C633 1.387 . S
C634 C637 1.387 . S
H635 C631 0.950 . S
H636 C633 0.950 . S
C637 C628 1.390 . S
C637 H630 0.950 . S
C637 C634 1.387 . S
C638 C639 1.387 . S
C638 H642 0.950 . S
C638 C647 1.390 . S
C639 C638 1.387 . S
C639 C641 1.387 . S
H640 C647 0.950 . S
C641 C639 1.387 . S
C641 C643 1.390 . S
C641 H645 0.950 . S
H642 C638 0.950 . S
C643 C641 1.390 . S
C643 C644 1.387 . S
C643 H646 0.950 . S
C644 C643 1.387 . S
C644 C647 1.387 . S
H645 C641 0.950 . S
H646 C643 0.950 . S
C647 C638 1.390 . S
C647 H640 0.950 . S
C647 C644 1.387 . S
C648 C649 1.387 . S
C648 H652 0.950 . S
C648 C657 1.390 . S
C649 C648 1.387 . S
C649 C651 1.387 . S
H650 C657 0.950 . S
C651 C649 1.387 . S
C651 C653 1.390 . S
C651 H655 0.950 . S
H652 C648 0.950 . S
C653 C651 1.390 . S
C653 C654 1.387 . S
C653 H656 0.950 . S
C654 C653 1.387 . S
C654 C657 1.387 . S
H655 C651 0.950 . S
H656 C653 0.950 . S
C657 C648 1.390 . S
C657 H650 0.950 . S
C657 C654 1.387 . S
C658 C659 1.387 . S
C658 H662 0.950 . S
C658 C667 1.390 . S
C659 C658 1.387 . S
C659 C661 1.387 . S
H660 C667 0.950 . S
C661 C659 1.387 . S
C661 C663 1.390 . S
C661 H665 0.950 . S
H662 C658 0.950 . S
C663 C661 1.390 . S
C663 C664 1.387 . S
C663 H666 0.950 . S
C664 C663 1.387 . S
C664 C667 1.387 . S
H665 C661 0.950 . S
H666 C663 0.950 . S
C667 C658 1.390 . S
C667 H660 0.950 . S
C667 C664 1.387 . S
C668 C669 1.387 . S
C668 H672 0.950 . S
C668 C677 1.390 . S
C669 C668 1.387 . S
C669 C671 1.387 . S
H670 C677 0.950 . S
C671 C669 1.387 . S
C671 C673 1.390 . S
C671 H675 0.950 . S
H672 C668 0.950 . S
C673 C671 1.390 . S
C673 C674 1.387 . S
C673 H676 0.950 1_565 S
C674 C673 1.387 . S
C674 C677 1.387 . S
H675 C671 0.950 . S
H676 C673 0.950 1_545 S
C677 C668 1.390 . S
C677 H670 0.950 . S
C677 C674 1.387 . S
C678 C679 1.387 . S
C678 H682 0.950 . S
C678 C687 1.390 . S
C679 C678 1.387 . S
C679 C681 1.387 . S
H680 C687 0.950 . S
C681 C679 1.387 . S
C681 C683 1.390 . S
C681 H685 0.950 . S
H682 C678 0.950 . S
C683 C681 1.390 . S
C683 C684 1.387 . S
C683 H686 0.950 . S
C684 C683 1.387 . S
C684 C687 1.387 . S
H685 C681 0.950 . S
H686 C683 0.950 . S
C687 C678 1.390 . S
C687 H680 0.950 . S
C687 C684 1.387 . S
C688 C689 1.387 . S
C688 H692 0.950 . S
C688 C697 1.390 . S
C689 C688 1.387 . S
C689 C691 1.387 . S
H690 C697 0.950 . S
C691 C689 1.387 . S
C691 C693 1.390 . S
C691 H695 0.950 . S
H692 C688 0.950 . S
C693 C691 1.390 . S
C693 C694 1.387 . S
C693 H696 0.950 . S
C694 C693 1.387 . S
C694 C697 1.387 . S
H695 C691 0.950 . S
H696 C693 0.950 . S
C697 C688 1.390 . S
C697 H690 0.950 . S
C697 C694 1.387 . S
C698 C699 1.387 . S
C698 H702 0.950 . S
C698 C707 1.390 . S
C699 C698 1.387 . S
C699 C701 1.387 . S
H700 C707 0.950 . S
C701 C699 1.387 . S
C701 C703 1.390 . S
C701 H705 0.950 . S
H702 C698 0.950 . S
C703 C701 1.390 . S
C703 C704 1.387 . S
C703 H706 0.950 . S
C704 C703 1.387 . S
C704 C707 1.387 . S
H705 C701 0.950 . S
H706 C703 0.950 . S
C707 C698 1.390 . S
C707 H700 0.950 . S
C707 C704 1.387 . S
C708 C709 1.387 . S
C708 H712 0.950 . S
C708 C717 1.390 . S
C709 C708 1.387 . S
C709 C711 1.387 . S
H710 C717 0.950 . S
C711 C709 1.387 . S
C711 C713 1.390 . S
C711 H715 0.950 . S
H712 C708 0.950 . S
C713 C711 1.390 . S
C713 C714 1.387 . S
C713 H716 0.950 . S
C714 C713 1.387 . S
C714 C717 1.387 . S
H715 C711 0.950 . S
H716 C713 0.950 . S
C717 C708 1.390 . S
C717 H710 0.950 . S
C717 C714 1.387 . S
C718 C719 1.387 . S
C718 H722 0.950 . S
C718 C727 1.390 . S
C719 C718 1.387 . S
C719 C721 1.387 . S
H720 C727 0.950 . S
C721 C719 1.387 . S
C721 C723 1.390 . S
C721 H725 0.950 . S
H722 C718 0.950 . S
C723 C721 1.390 . S
C723 C724 1.387 . S
C723 H726 0.950 . S
C724 C723 1.387 . S
C724 C727 1.387 . S
H725 C721 0.950 . S
H726 C723 0.950 . S
C727 C718 1.390 . S
C727 H720 0.950 . S
C727 C724 1.387 . S
C728 C729 1.387 . S
C728 H732 0.950 . S
C728 C737 1.390 . S
C729 C728 1.387 . S
C729 C731 1.387 . S
H730 C737 0.950 . S
C731 C729 1.387 . S
C731 C733 1.390 . S
C731 H735 0.950 . S
H732 C728 0.950 . S
C733 C731 1.390 . S
C733 C734 1.387 . S
C733 H736 0.950 . S
C734 C733 1.387 . S
C734 C737 1.387 . S
H735 C731 0.950 . S
H736 C733 0.950 . S
C737 C728 1.390 . S
C737 H730 0.950 . S
C737 C734 1.387 . S
C738 C739 1.387 . S
C738 H742 0.950 . S
C738 C747 1.390 . S
C739 C738 1.387 . S
C739 C741 1.387 . S
H740 C747 0.950 . S
C741 C739 1.387 . S
C741 C743 1.390 . S
C741 H745 0.950 . S
H742 C738 0.950 . S
C743 C741 1.390 . S
C743 C744 1.387 . S
C743 H746 0.950 . S
C744 C743 1.387 . S
C744 C747 1.387 . S
H745 C741 0.950 . S
H746 C743 0.950 . S
C747 C738 1.390 . S
C747 H740 0.950 . S
C747 C744 1.387 . S
C748 C749 1.387 . S
C748 H752 0.950 . S
C748 C757 1.390 . S
C749 C748 1.387 . S
C749 C751 1.387 . S
H750 C757 0.950 . S
C751 C749 1.387 . S
C751 C753 1.390 . S
C751 H755 0.950 . S
H752 C748 0.950 . S
C753 C751 1.390 . S
C753 C754 1.387 . S
C753 H756 0.950 . S
C754 C753 1.387 . S
C754 C757 1.387 . S
H755 C751 0.950 . S
H756 C753 0.950 . S
C757 C748 1.390 . S
C757 H750 0.950 . S
C757 C754 1.387 . S
C758 C759 1.387 . S
C758 H762 0.950 . S
C758 C767 1.390 . S
C759 C758 1.387 . S
C759 C761 1.387 . S
H760 C767 0.950 . S
C761 C759 1.387 . S
C761 C763 1.390 . S
C761 H765 0.950 . S
H762 C758 0.950 . S
C763 C761 1.390 . S
C763 C764 1.387 . S
C763 H766 0.950 . S
C764 C763 1.387 . S
C764 C767 1.387 . S
H765 C761 0.950 . S
H766 C763 0.950 . S
C767 C758 1.390 . S
C767 H760 0.950 . S
C767 C764 1.387 . S
C768 C769 1.387 . S
C768 H772 0.950 . S
C768 C777 1.390 . S
C769 C768 1.387 . S
C769 C771 1.387 . S
H770 C777 0.950 . S
C771 C769 1.387 . S
C771 C773 1.390 . S
C771 H775 0.950 . S
H772 C768 0.950 . S
C773 C771 1.390 . S
C773 C774 1.387 . S
C773 H776 0.950 . S
C774 C773 1.387 . S
C774 C777 1.387 . S
H775 C771 0.950 . S
H776 C773 0.950 . S
C777 C768 1.390 . S
C777 H770 0.950 . S
C777 C774 1.387 . S
C778 C779 1.387 . S
C778 H782 0.950 . S
C778 C787 1.390 . S
C779 C778 1.387 . S
C779 C781 1.387 . S
H780 C787 0.950 . S
C781 C779 1.387 . S
C781 C783 1.390 . S
C781 H785 0.950 . S
H782 C778 0.950 . S
C783 C781 1.390 . S
C783 C784 1.387 . S
C783 H786 0.950 . S
C784 C783 1.387 . S
C784 C787 1.387 . S
H785 C781 0.950 . S
H786 C783 0.950 . S
C787 C778 1.390 . S
C787 H780 0.950 . S
C787 C784 1.387 . S
C788 C789 1.387 . S
C788 H792 0.950 . S
C788 C797 1.390 . S
C789 C788 1.387 . S
C789 C791 1.387 . S
H790 C797 0.950 . S
C791 C789 1.387 . S
C791 C793 1.390 . S
C791 H795 0.950 . S
H792 C788 0.950 . S
C793 C791 1.390 . S
C793 C794 1.387 . S
C793 H796 0.950 . S
C794 C793 1.387 . S
C794 C797 1.387 . S
H795 C791 0.950 . S
H796 C793 0.950 . S
C797 C788 1.390 . S
C797 H790 0.950 . S
C797 C794 1.387 . S
C798 C799 1.387 . S
C798 H802 0.950 . S
C798 C807 1.390 . S
C799 C798 1.387 . S
C799 C801 1.387 . S
H800 C807 0.950 . S
C801 C799 1.387 . S
C801 C803 1.390 . S
C801 H805 0.950 . S
H802 C798 0.950 . S
C803 C801 1.390 . S
C803 C804 1.387 . S
C803 H806 0.950 . S
C804 C803 1.387 . S
C804 C807 1.387 . S
H805 C801 0.950 . S
H806 C803 0.950 . S
C807 C798 1.390 . S
C807 H800 0.950 . S
C807 C804 1.387 . S
C808 C809 1.387 . S
C808 H812 0.950 . S
C808 C817 1.390 . S
C809 C808 1.387 . S
C809 C811 1.387 . S
H810 C817 0.950 . S
C811 C809 1.387 . S
C811 C813 1.390 . S
C811 H815 0.950 . S
H812 C808 0.950 . S
C813 C811 1.390 . S
C813 C814 1.387 . S
C813 H816 0.950 . S
C814 C813 1.387 . S
C814 C817 1.387 . S
H815 C811 0.950 . S
H816 C813 0.950 . S
C817 C808 1.390 . S
C817 H810 0.950 . S
C817 C814 1.387 . S
C818 C819 1.387 . S
C818 H822 0.950 . S
C818 C827 1.390 . S
C819 C818 1.387 . S
C819 C821 1.387 . S
H820 C827 0.950 . S
C821 C819 1.387 . S
C821 C823 1.390 . S
C821 H825 0.950 . S
H822 C818 0.950 . S
C823 C821 1.390 . S
C823 C824 1.387 . S
C823 H826 0.950 . S
C824 C823 1.387 . S
C824 C827 1.387 . S
H825 C821 0.950 . S
H826 C823 0.950 . S
C827 C818 1.390 . S
C827 H820 0.950 . S
C827 C824 1.387 . S
C828 C829 1.387 . S
C828 H832 0.950 . S
C828 C837 1.390 . S
C829 C828 1.387 . S
C829 C831 1.387 . S
H830 C837 0.950 . S
C831 C829 1.387 . S
C831 C833 1.390 . S
C831 H835 0.950 . S
H832 C828 0.950 . S
C833 C831 1.390 . S
C833 C834 1.387 . S
C833 H836 0.950 . S
C834 C833 1.387 . S
C834 C837 1.387 . S
H835 C831 0.950 . S
H836 C833 0.950 . S
C837 C828 1.390 . S
C837 H830 0.950 . S
C837 C834 1.387 . S
C838 C839 1.387 . S
C838 H842 0.950 . S
C838 C847 1.390 . S
C839 C838 1.387 . S
C839 C841 1.387 . S
H840 C847 0.950 . S
C841 C839 1.387 . S
C841 C843 1.390 . S
C841 H845 0.950 . S
H842 C838 0.950 . S
C843 C841 1.390 . S
C843 C844 1.387 . S
C843 H846 0.950 . S
C844 C843 1.387 . S
C844 C847 1.387 . S
H845 C841 0.950 . S
H846 C843 0.950 . S
C847 C838 1.390 . S
C847 H840 0.950 . S
C847 C844 1.387 . S
C848 C849 1.387 . S
C848 H852 0.950 . S
C848 C857 1.390 . S
C849 C848 1.387 . S
C849 C851 1.387 . S
H850 C857 0.950 . S
C851 C849 1.387 . S
C851 C853 1.390 . S
C851 H855 0.950 . S
H852 C848 0.950 . S
C853 C851 1.390 . S
C853 C854 1.387 . S
C853 H856 0.950 . S
C854 C853 1.387 . S
C854 C857 1.387 . S
H855 C851 0.950 . S
H856 C853 0.950 . S
C857 C848 1.390 . S
C857 H850 0.950 . S
C857 C854 1.387 . S
C858 C859 1.387 . S
C858 H862 0.950 . S
C858 C867 1.390 . S
C859 C858 1.387 . S
C859 C861 1.387 . S
H860 C867 0.950 . S
C861 C859 1.387 . S
C861 C863 1.390 . S
C861 H865 0.950 . S
H862 C858 0.950 . S
C863 C861 1.390 . S
C863 C864 1.387 . S
C863 H866 0.950 . S
C864 C863 1.387 . S
C864 C867 1.387 . S
H865 C861 0.950 . S
H866 C863 0.950 . S
C867 C858 1.390 . S
C867 H860 0.950 . S
C867 C864 1.387 . S
C868 C869 1.387 . S
C868 H872 0.950 . S
C868 C877 1.390 . S
C869 C868 1.387 . S
C869 C871 1.387 . S
H870 C877 0.950 . S
C871 C869 1.387 . S
C871 C873 1.390 . S
C871 H875 0.950 . S
H872 C868 0.950 . S
C873 C871 1.390 . S
C873 C874 1.387 . S
C873 H876 0.950 . S
C874 C873 1.387 . S
C874 C877 1.387 . S
H875 C871 0.950 . S
H876 C873 0.950 . S
C877 C868 1.390 . S
C877 H870 0.950 . S
C877 C874 1.387 . S
C878 C879 1.387 . S
C878 H882 0.950 . S
C878 C887 1.390 . S
C879 C878 1.387 . S
C879 C881 1.387 . S
H880 C887 0.950 . S
C881 C879 1.387 . S
C881 C883 1.390 . S
C881 H885 0.950 . S
H882 C878 0.950 . S
C883 C881 1.390 . S
C883 C884 1.387 . S
C883 H886 0.950 . S
C884 C883 1.387 . S
C884 C887 1.387 . S
H885 C881 0.950 . S
H886 C883 0.950 . S
C887 C878 1.390 . S
C887 H880 0.950 . S
C887 C884 1.387 . S
C888 C889 1.387 . S
C888 H892 0.950 . S
C888 C897 1.390 . S
C889 C888 1.387 . S
C889 C891 1.387 . S
H890 C897 0.950 . S
C891 C889 1.387 . S
C891 C893 1.390 . S
C891 H895 0.950 . S
H892 C888 0.950 . S
C893 C891 1.390 . S
C893 C894 1.387 . S
C893 H896 0.950 . S
C894 C893 1.387 . S
C894 C897 1.387 . S
H895 C891 0.950 . S
H896 C893 0.950 . S
C897 C888 1.390 . S
C897 H890 0.950 . S
C897 C894 1.387 . S
C898 C899 1.387 . S
C898 H902 0.950 . S
C898 C907 1.390 . S
C899 C898 1.387 . S
C899 C901 1.387 . S
H900 C907 0.950 . S
C901 C899 1.387 . S
C901 C903 1.390 . S
C901 H905 0.950 . S
H902 C898 0.950 . S
C903 C901 1.390 . S
C903 C904 1.387 . S
C903 H906 0.950 . S
C904 C903 1.387 . S
C904 C907 1.387 . S
H905 C901 0.950 . S
H906 C903 0.950 . S
C907 C898 1.390 . S
C907 H900 0.950 . S
C907 C904 1.387 . S
C908 C909 1.387 . S
C908 H912 0.950 . S
C908 C917 1.390 . S
C909 C908 1.387 . S
C909 C911 1.387 . S
H910 C917 0.950 . S
C911 C909 1.387 . S
C911 C913 1.390 . S
C911 H915 0.950 . S
H912 C908 0.950 . S
C913 C911 1.390 . S
C913 C914 1.387 . S
C913 H916 0.950 . S
C914 C913 1.387 . S
C914 C917 1.387 . S
H915 C911 0.950 . S
H916 C913 0.950 . S
C917 C908 1.390 . S
C917 H910 0.950 . S
C917 C914 1.387 . S
C918 C919 1.387 . S
C918 H922 0.950 . S
C918 C927 1.390 . S
C919 C918 1.387 . S
C919 C921 1.387 . S
H920 C927 0.950 . S
C921 C919 1.387 . S
C921 C923 1.390 . S
C921 H925 0.950 . S
H922 C918 0.950 . S
C923 C921 1.390 . S
C923 C924 1.387 . S
C923 H926 0.950 . S
C924 C923 1.387 . S
C924 C927 1.387 . S
H925 C921 0.950 . S
H926 C923 0.950 . S
C927 C918 1.390 . S
C927 H920 0.950 . S
C927 C924 1.387 . S
C928 C929 1.387 . S
C928 H932 0.950 . S
C928 C937 1.390 . S
C929 C928 1.387 . S
C929 C931 1.387 . S
H930 C937 0.950 . S
C931 C929 1.387 . S
C931 C933 1.390 . S
C931 H935 0.950 . S
H932 C928 0.950 . S
C933 C931 1.390 . S
C933 C934 1.387 . S
C933 H936 0.950 . S
C934 C933 1.387 . S
C934 C937 1.387 . S
H935 C931 0.950 . S
H936 C933 0.950 . S
C937 C928 1.390 . S
C937 H930 0.950 . S
C937 C934 1.387 . S
C938 C939 1.387 . S
C938 H942 0.950 . S
C938 C947 1.390 . S
C939 C938 1.387 . S
C939 C941 1.387 . S
H940 C947 0.950 . S
C941 C939 1.387 . S
C941 C943 1.390 . S
C941 H945 0.950 . S
H942 C938 0.950 . S
C943 C941 1.390 . S
C943 C944 1.387 . S
C943 H946 0.950 . S
C944 C943 1.387 . S
C944 C947 1.387 . S
H945 C941 0.950 . S
H946 C943 0.950 . S
C947 C938 1.390 . S
C947 H940 0.950 . S
C947 C944 1.387 . S
C948 C949 1.387 . S
C948 H952 0.950 . S
C948 C957 1.390 . S
C949 C948 1.387 . S
C949 C951 1.387 . S
H950 C957 0.950 . S
C951 C949 1.387 . S
C951 C953 1.390 . S
C951 H955 0.950 . S
H952 C948 0.950 . S
C953 C951 1.390 . S
C953 C954 1.387 . S
C953 H956 0.950 . S
C954 C953 1.387 . S
C954 C957 1.387 . S
H955 C951 0.950 . S
H956 C953 0.950 . S
C957 C948 1.390 . S
C957 H950 0.950 . S
C957 C954 1.387 . S
C958 C959 1.387 . S
C958 H962 0.950 . S
C958 C967 1.390 . S
C959 C958 1.387 . S
C959 C961 1.387 . S
H960 C967 0.950 . S
C961 C959 1.387 . S
C961 C963 1.390 . S
C961 H965 0.950 . S
H962 C958 0.950 . S
C963 C961 1.390 . S
C963 C964 1.387 . S
C963 H966 0.950 . S
C964 C963 1.387 . S
C964 C967 1.387 . S
H965 C961 0.950 . S
H966 C963 0.950 . S
C967 C958 1.390 . S
C967 H960 0.950 . S
C967 C964 1.387 . S
C968 C969 1.387 . S
C968 H972 0.950 . S
C968 C977 1.390 . S
C969 C968 1.387 . S
C969 C971 1.387 . S
H970 C977 0.950 . S
C971 C969 1.387 . S
C971 C973 1.390 . S
C971 H975 0.950 . S
H972 C968 0.950 . S
C973 C971 1.390 . S
C973 C974 1.387 . S
C973 H976 0.950 . S
C974 C973 1.387 . S
C974 C977 1.387 . S
H975 C971 0.950 . S
H976 C973 0.950 . S
C977 C968 1.390 . S
C977 H970 0.950 . S
C977 C974 1.387 . S
C978 C979 1.387 . S
C978 H982 0.950 . S
C978 C987 1.390 . S
C979 C978 1.387 . S
C979 C981 1.387 . S
H980 C987 0.950 . S
C981 C979 1.387 . S
C981 C983 1.390 . S
C981 H985 0.950 . S
H982 C978 0.950 . S
C983 C981 1.390 . S
C983 C984 1.387 . S
C983 H986 0.950 . S
C984 C983 1.387 . S
C984 C987 1.387 . S
H985 C981 0.950 . S
H986 C983 0.950 . S
C987 C978 1.390 . S
C987 H980 0.950 . S
C987 C984 1.387 . S
C988 C989 1.387 . S
C988 H992 0.950 . S
C988 C997 1.390 . S
C989 C988 1.387 . S
C989 C991 1.387 . S
H990 C997 0.950 . S
C991 C989 1.387 . S
C991 C993 1.390 . S
C991 H995 0.950 . S
H992 C988 0.950 . S
C993 C991 1.390 . S
C993 C994 1.387 . S
C993 H996 0.950 . S
C994 C993 1.387 . S
C994 C997 1.387 . S
H995 C991 0.950 . S
H996 C993 0.950 . S
C997 C988 1.390 . S
C997 H990 0.950 . S
C997 C994 1.387 . S
C998 C999 1.387 . S
C998 H1002 0.950 . S
C998 C1007 1.390 . S
C999 C998 1.387 . S
C999 C1001 1.387 . S
H1000 C1007 0.950 . S
C1001 C999 1.387 . S
C1001 C1003 1.390 . S
C1001 H1005 0.950 . S
H1002 C998 0.950 . S
C1003 C1001 1.390 . S
C1003 C1004 1.387 . S
C1003 H1006 0.950 . S
C1004 C1003 1.387 . S
C1004 C1007 1.387 . S
H1005 C1001 0.950 . S
H1006 C1003 0.950 . S
C1007 C998 1.390 . S
C1007 H1000 0.950 . S
C1007 C1004 1.387 . S
C1008 C1009 1.387 . S
C1008 H1012 0.950 . S
C1008 C1017 1.390 . S
C1009 C1008 1.387 . S
C1009 C1011 1.387 . S
H1010 C1017 0.950 . S
C1011 C1009 1.387 . S
C1011 C1013 1.390 . S
C1011 H1015 0.950 . S
H1012 C1008 0.950 . S
C1013 C1011 1.390 . S
C1013 C1014 1.387 . S
C1013 H1016 0.950 . S
C1014 C1013 1.387 . S
C1014 C1017 1.387 . S
H1015 C1011 0.950 . S
H1016 C1013 0.950 . S
C1017 C1008 1.390 . S
C1017 H1010 0.950 . S
C1017 C1014 1.387 . S
C1018 C1019 1.387 . S
C1018 H1022 0.950 . S
C1018 C1027 1.390 . S
C1019 C1018 1.387 . S
C1019 C1021 1.387 . S
H1020 C1027 0.950 . S
C1021 C1019 1.387 . S
C1021 C1023 1.390 . S
C1021 H1025 0.950 . S
H1022 C1018 0.950 . S
C1023 C1021 1.390 . S
C1023 C1024 1.387 . S
C1023 H1026 0.950 . S
C1024 C1023 1.387 . S
C1024 C1027 1.387 . S
H1025 C1021 0.950 . S
H1026 C1023 0.950 . S
C1027 C1018 1.390 . S
C1027 H1020 0.950 . S
C1027 C1024 1.387 . S
C1028 C1029 1.387 . S
C1028 H1032 0.950 . S
C1028 C1037 1.390 . S
C1029 C1028 1.387 . S
C1029 C1031 1.387 . S
H1030 C1037 0.950 . S
C1031 C1029 1.387 . S
C1031 C1033 1.390 . S
C1031 H1035 0.950 . S
H1032 C1028 0.950 . S
C1033 C1031 1.390 . S
C1033 C1034 1.387 . S
C1033 H1036 0.950 . S
C1034 C1033 1.387 . S
C1034 C1037 1.387 . S
H1035 C1031 0.950 . S
H1036 C1033 0.950 . S
C1037 C1028 1.390 . S
C1037 H1030 0.950 . S
C1037 C1034 1.387 . S
C1038 C1039 1.387 . S
C1038 H1042 0.950 . S
C1038 C1047 1.390 . S
C1039 C1038 1.387 . S
C1039 C1041 1.387 . S
H1040 C1047 0.950 . S
C1041 C1039 1.387 . S
C1041 C1043 1.390 . S
C1041 H1045 0.950 . S
H1042 C1038 0.950 . S
C1043 C1041 1.390 . S
C1043 C1044 1.387 . S
C1043 H1046 0.950 . S
C1044 C1043 1.387 . S
C1044 C1047 1.387 . S
H1045 C1041 0.950 . S
H1046 C1043 0.950 . S
C1047 C1038 1.390 . S
C1047 H1040 0.950 . S
C1047 C1044 1.387 . S
C1048 C1049 1.387 . S
C1048 H1052 0.950 . S
C1048 C1057 1.390 . S
C1049 C1048 1.387 . S
C1049 C1051 1.387 . S
H1050 C1057 0.950 . S
C1051 C1049 1.387 . S
C1051 C1053 1.390 . S
C1051 H1055 0.950 . S
H1052 C1048 0.950 . S
C1053 C1051 1.390 . S
C1053 C1054 1.387 . S
C1053 H1056 0.950 . S
C1054 C1053 1.387 . S
C1054 C1057 1.387 . S
H1055 C1051 0.950 . S
H1056 C1053 0.950 . S
C1057 C1048 1.390 . S
C1057 H1050 0.950 . S
C1057 C1054 1.387 . S
C1058 C1059 1.387 . S
C1058 H1062 0.950 . S
C1058 C1067 1.390 . S
C1059 C1058 1.387 . S
C1059 C1061 1.387 . S
H1060 C1067 0.950 . S
C1061 C1059 1.387 . S
C1061 C1063 1.390 . S
C1061 H1065 0.950 . S
H1062 C1058 0.950 . S
C1063 C1061 1.390 . S
C1063 C1064 1.387 . S
C1063 H1066 0.950 . S
C1064 C1063 1.387 . S
C1064 C1067 1.387 . S
H1065 C1061 0.950 . S
H1066 C1063 0.950 . S
C1067 C1058 1.390 . S
C1067 H1060 0.950 . S
C1067 C1064 1.387 . S
C1068 C1069 1.387 . S
C1068 H1072 0.950 . S
C1068 C1077 1.390 . S
C1069 C1068 1.387 . S
C1069 C1071 1.387 . S
H1070 C1077 0.950 . S
C1071 C1069 1.387 . S
C1071 C1073 1.390 . S
C1071 H1075 0.950 . S
H1072 C1068 0.950 . S
C1073 C1071 1.390 . S
C1073 C1074 1.387 . S
C1073 H1076 0.950 . S
C1074 C1073 1.387 . S
C1074 C1077 1.387 . S
H1075 C1071 0.950 . S
H1076 C1073 0.950 . S
C1077 C1068 1.390 . S
C1077 H1070 0.950 . S
C1077 C1074 1.387 . S
C1078 C1079 1.387 . S
C1078 H1082 0.950 . S
C1078 C1087 1.390 . S
C1079 C1078 1.387 . S
C1079 C1081 1.387 . S
H1080 C1087 0.950 . S
C1081 C1079 1.387 . S
C1081 C1083 1.390 . S
C1081 H1085 0.950 . S
H1082 C1078 0.950 . S
C1083 C1081 1.390 . S
C1083 C1084 1.387 . S
C1083 H1086 0.950 . S
C1084 C1083 1.387 . S
C1084 C1087 1.387 . S
H1085 C1081 0.950 . S
H1086 C1083 0.950 . S
C1087 C1078 1.390 . S
C1087 H1080 0.950 . S
C1087 C1084 1.387 . S
C449 C67 1.514 . S
C454 C11 1.514 . S
C459 C81 1.513 . S
C464 C25 1.513 . S
C469 C95 1.513 . S
C474 C39 1.513 . S
C479 C53 1.514 . S
C484 C109 1.514 . S
C489 C123 1.514 . S
C494 C179 1.514 . S
C499 C193 1.513 . S
C504 C137 1.513 . S
C509 C151 1.514 . S
C514 C207 1.514 . S
C519 C221 1.514 . S
C524 C165 1.514 . S
C529 C235 1.514 . S
C534 C291 1.514 . S
C539 C305 1.514 . S
C544 C249 1.514 . S
C549 C319 1.513 . S
C554 C263 1.513 . S
C559 C333 1.514 . S
C564 C277 1.514 . S
C569 C347 1.514 . S
C574 C403 1.514 . S
C579 C361 1.513 . S
C584 C417 1.513 . S
C589 C375 1.513 . S
C594 C431 1.513 . S
C599 C389 1.514 . S
C604 C445 1.514 . S
C609 C9 1.341 . S
C614 C107 1.338 . S
C619 C23 1.338 . S
C624 C65 1.340 . S
C629 C37 1.340 . S
C634 C79 1.338 . S
C639 C93 1.341 . S
C644 C51 1.339 . S
C649 C219 1.338 . S
C654 C121 1.341 . S
C659 C177 1.341 . S
C664 C135 1.338 . S
C669 C191 1.337 . S
C674 C149 1.340 . S
C679 C163 1.338 . S
C684 C205 1.341 . S
C689 C331 1.337 . S
C694 C233 1.337 . S
C699 C289 1.337 . S
C704 C247 1.338 . S
C709 C303 1.338 . S
C714 C261 1.338 . S
C719 C275 1.338 . S
C724 C317 1.339 . S
C729 C345 1.337 . S
C734 C443 1.338 . S
C739 C359 1.338 . S
C744 C401 1.338 . S
C749 C373 1.338 . S
C754 C415 1.338 . S
C759 C429 1.337 . S
C764 C387 1.337 . S
C769 C5 1.485 . S
C774 C350 1.464 . S
C779 C19 1.485 . S
C784 C140 1.464 1_455 S
C789 C33 1.484 . S
C794 C378 1.466 . S
C799 C112 1.464 . S
C804 C47 1.485 . S
C809 C434 1.464 . S
C814 C61 1.485 . S
C819 C75 1.484 . S
C824 C168 1.466 . S
C829 C89 1.484 . S
C834 C406 1.464 . S
C839 C103 1.485 . S
C844 C196 1.464 1_455 S
C849 C238 1.465 . S
C854 C117 1.484 . S
C859 C28 1.464 1_655 S
C864 C131 1.485 . S
C869 C266 1.465 . S
C874 C145 1.484 . S
C879 C159 1.484 . S
C884 C0 1.466 . S
C889 C322 1.464 . S
C894 C173 1.485 . S
C899 C56 1.466 . S
C904 C187 1.484 . S
C909 C294 1.465 . S
C914 C201 1.484 . S
C919 C84 1.464 1_655 S
C924 C215 1.485 . S
C929 C126 1.464 . S
C934 C229 1.485 . S
C939 C243 1.485 . S
C944 C364 1.464 . S
C949 C257 1.484 . S
C954 C154 1.465 . S
C959 C271 1.484 . S
C964 C336 1.465 1_655 S
C969 C285 1.484 . S
C974 C210 1.465 . S
C979 C392 1.466 1_655 S
C984 C299 1.484 . S
C989 C313 1.484 . S
C994 C182 1.465 . S
C999 C327 1.485 . S
C1004 C420 1.464 . S
C1009 C341 1.484 . S
C1014 C14 1.466 . S
C1019 C355 1.484 . S
C1024 C252 1.465 . S
C1029 C42 1.464 . S
C1034 C369 1.485 . S
C1039 C224 1.464 1_455 S
C1044 C383 1.485 . S
C1049 C397 1.484 . S
C1054 C98 1.466 . S
C1059 C411 1.485 . S
C1064 C280 1.464 1_455 S
C1069 C70 1.466 . S
C1074 C425 1.484 . S
C1079 C308 1.464 . S
C1084 C439 1.485 . S
