# Generated by pormake.
# Topology upa, (4)-cn, num edge types: 1
# Building blocks:
#     Node 0, Type 0, BuildingBlock: TATPOV_clean_sbu_0, # of connection points: 4
#     Node 1, Type 0, BuildingBlock: TATPOV_clean_sbu_0, # of connection points: 4
#     Node 2, Type 0, BuildingBlock: TATPOV_clean_sbu_0, # of connection points: 4
#     Node 3, Type 0, BuildingBlock: TATPOV_clean_sbu_0, # of connection points: 4
#     Node 4, Type 0, BuildingBlock: TATPOV_clean_sbu_0, # of connection points: 4
#     Node 5, Type 0, BuildingBlock: TATPOV_clean_sbu_0, # of connection points: 4
#     Node 6, Type 0, BuildingBlock: TATPOV_clean_sbu_0, # of connection points: 4
#     Node 7, Type 0, BuildingBlock: TATPOV_clean_sbu_0, # of connection points: 4
#     Edge 8, Type (0, 0), BuildingBlock: FUNLAD_clean_linker_1, # of connection points: 2
#     Edge 9, Type (0, 0), BuildingBlock: FUNLAD_clean_linker_1, # of connection points: 2
#     Edge 10, Type (0, 0), BuildingBlock: FUNLAD_clean_linker_1, # of connection points: 2
#     Edge 11, Type (0, 0), BuildingBlock: FUNLAD_clean_linker_1, # of connection points: 2
#     Edge 12, Type (0, 0), BuildingBlock: FUNLAD_clean_linker_1, # of connection points: 2
#     Edge 13, Type (0, 0), BuildingBlock: FUNLAD_clean_linker_1, # of connection points: 2
#     Edge 14, Type (0, 0), BuildingBlock: FUNLAD_clean_linker_1, # of connection points: 2
#     Edge 15, Type (0, 0), BuildingBlock: FUNLAD_clean_linker_1, # of connection points: 2
#     Edge 16, Type (0, 0), BuildingBlock: FUNLAD_clean_linker_1, # of connection points: 2
#     Edge 17, Type (0, 0), BuildingBlock: FUNLAD_clean_linker_1, # of connection points: 2
#     Edge 18, Type (0, 0), BuildingBlock: FUNLAD_clean_linker_1, # of connection points: 2
#     Edge 19, Type (0, 0), BuildingBlock: FUNLAD_clean_linker_1, # of connection points: 2
#     Edge 20, Type (0, 0), BuildingBlock: FUNLAD_clean_linker_1, # of connection points: 2
#     Edge 21, Type (0, 0), BuildingBlock: FUNLAD_clean_linker_1, # of connection points: 2
#     Edge 22, Type (0, 0), BuildingBlock: FUNLAD_clean_linker_1, # of connection points: 2
#     Edge 23, Type (0, 0), BuildingBlock: FUNLAD_clean_linker_1, # of connection points: 2
# Relax obj value: 0.172
# Max RMSD: 0.171
# Mean RMSD: 0.171
data_MOF--net-upa--node1-TATPOV_clean_sbu_0--edge1-FUNLAD_clean_linker_1
_symmetry_space_group_name_H-M    P1
_symmetry_Int_Tables_number       1
_symmetry_cell_setting            triclinic
loop_
_symmetry_equiv_pos_as_xyz
'x, y, z'
_cell_length_a     27.117965
_cell_length_b     27.454223
_cell_length_c     44.724757
_cell_angle_alpha  89.919974
_cell_angle_beta   90.092758
_cell_angle_gamma 90.427076
loop_
_atom_site_label
_atom_site_type_symbol
_atom_site_fract_x
_atom_site_fract_y
_atom_site_fract_z
_atom_type_partial_charge
Zn0 Zn 0.08632 0.26521 0.39408 0.0
Zn1 Zn 0.16267 0.24801 0.36123 0.0
O2 O 0.11533 0.28637 0.33258 0.0
O3 O 0.05024 0.2982 0.36095 0.0
O4 O 0.22781 0.24044 0.33892 0.0
O5 O 0.12114 0.3021 0.42632 0.0
O6 O 0.1864 0.27395 0.40313 0.0
C7 C 0.07107 0.3013 0.33572 0.0
C8 C 0.09966 0.16338 0.38087 0.0
O9 O 0.13432 0.17916 0.3642 0.0
O10 O 0.07636 0.1921 0.39777 0.0
C11 C 0.23101 0.21983 0.31354 0.0
O12 O 0.19076 0.20377 0.3004 0.0
C13 C 0.16706 0.29506 0.42567 0.0
Zn14 Zn 0.27951 0.57944 0.88543 0.0
Zn15 Zn 0.29198 0.65278 0.8503 0.0
O16 O 0.2491 0.60553 0.82408 0.0
O17 O 0.24677 0.54048 0.85291 0.0
O18 O 0.29966 0.71515 0.826 0.0
O19 O 0.24133 0.61479 0.91668 0.0
O20 O 0.26735 0.67902 0.8917 0.0
C21 C 0.23776 0.56069 0.82806 0.0
C22 C 0.38038 0.59384 0.86978 0.0
O23 O 0.36154 0.62433 0.8517 0.0
O24 O 0.35362 0.57309 0.88927 0.0
C25 C 0.32233 0.71605 0.80112 0.0
O26 O 0.33998 0.67541 0.79021 0.0
C27 C 0.24695 0.66038 0.91482 0.0
Zn28 Zn 0.93856 0.73443 0.36804 0.0
Zn29 Zn 0.86465 0.74771 0.33313 0.0
O30 O 0.9182 0.70953 0.3085 0.0
O31 O 0.97387 0.68794 0.34177 0.0
O32 O 0.80105 0.74621 0.30844 0.0
O33 O 0.90231 0.71227 0.40392 0.0
O34 O 0.83785 0.72559 0.37525 0.0
C35 C 0.95869 0.68829 0.31508 0.0
C36 C 0.92691 0.83465 0.34722 0.0
O37 O 0.88864 0.81857 0.33384 0.0
O38 O 0.95321 0.80628 0.36283 0.0
C39 C 0.77006 0.78085 0.30926 0.0
O40 O 0.78038 0.82001 0.32498 0.0
C41 C 0.85617 0.71342 0.40051 0.0
Zn42 Zn 0.66656 0.39917 0.8772 0.0
Zn43 Zn 0.70763 0.33171 0.83958 0.0
O44 O 0.73512 0.39695 0.82259 0.0
O45 O 0.70909 0.44975 0.85626 0.0
O46 O 0.73059 0.27687 0.81195 0.0
O47 O 0.69331 0.36055 0.91192 0.0
O48 O 0.73272 0.3109 0.88166 0.0
C49 C 0.73283 0.44043 0.83261 0.0
C50 C 0.5947 0.34961 0.84269 0.0
O51 O 0.63305 0.32708 0.83453 0.0
O52 O 0.59804 0.38428 0.8612 0.0
C53 C 0.70232 0.26126 0.7912 0.0
O54 O 0.661 0.28409 0.78548 0.0
C55 C 0.7219 0.32482 0.90804 0.0
Zn56 Zn 0.58427 0.26775 0.14918 0.0
Zn57 Zn 0.66519 0.27933 0.1795 0.0
O58 O 0.61382 0.24713 0.20929 0.0
O59 O 0.54757 0.23459 0.18178 0.0
O60 O 0.73068 0.28293 0.20207 0.0
O61 O 0.61476 0.23146 0.11559 0.0
O62 O 0.6848 0.24828 0.13837 0.0
C63 C 0.56904 0.23251 0.20685 0.0
C64 C 0.61115 0.36872 0.1588 0.0
O65 O 0.64747 0.35085 0.173 0.0
O66 O 0.57964 0.34097 0.14644 0.0
C67 C 0.73484 0.30804 0.22585 0.0
O68 O 0.69587 0.33004 0.23656 0.0
C69 C 0.66131 0.23142 0.11579 0.0
Zn70 Zn 0.2879 0.07959 0.64281 0.0
Zn71 Zn 0.2582 0.14548 0.6799 0.0
O72 O 0.29901 0.09609 0.70554 0.0
O73 O 0.32446 0.04113 0.67344 0.0
O74 O 0.24546 0.20259 0.70817 0.0
O75 O 0.32174 0.12389 0.6139 0.0
O76 O 0.28366 0.1793 0.64053 0.0
C77 C 0.32113 0.05614 0.70008 0.0
C78 C 0.18187 0.07951 0.65343 0.0
O79 O 0.19164 0.1124 0.67267 0.0
O80 O 0.21541 0.06268 0.63678 0.0
C81 C 0.23082 0.2442 0.69933 0.0
O82 O 0.22194 0.25129 0.67077 0.0
C83 C 0.30838 0.16745 0.61737 0.0
Zn84 Zn 0.43262 0.80436 0.14119 0.0
Zn85 Zn 0.3584 0.76608 0.16987 0.0
O86 O 0.40518 0.80067 0.201 0.0
O87 O 0.45675 0.84591 0.1748 0.0
O88 O 0.29425 0.74865 0.19172 0.0
O89 O 0.39511 0.83189 0.10672 0.0
O90 O 0.33326 0.79538 0.12942 0.0
C91 C 0.4412 0.83098 0.19981 0.0
C92 C 0.43384 0.6974 0.14886 0.0
O93 O 0.39172 0.70234 0.1609 0.0
O94 O 0.45772 0.73425 0.13935 0.0
C95 C 0.25957 0.7287 0.17671 0.0
O96 O 0.26676 0.71894 0.14834 0.0
C97 C 0.35031 0.81915 0.1071 0.0
Zn98 Zn 0.78114 0.90024 0.62192 0.0
Zn99 Zn 0.76483 0.83358 0.66207 0.0
O100 O 0.72444 0.89141 0.67905 0.0
O101 O 0.74326 0.94853 0.64624 0.0
O102 O 0.75047 0.77616 0.68984 0.0
O103 O 0.75254 0.86362 0.58772 0.0
O104 O 0.74429 0.80426 0.62045 0.0
C105 C 0.72273 0.93573 0.67044 0.0
C106 C 0.8688 0.87566 0.65242 0.0
O107 O 0.83895 0.85035 0.66815 0.0
O108 O 0.8536 0.8975 0.62928 0.0
C109 C 0.78313 0.74628 0.69864 0.0
O110 O 0.82931 0.75303 0.69073 0.0
C111 C 0.74099 0.81999 0.59364 0.0
H112 H 0.06042 0.09831 0.39699 0.0
C113 C 0.08194 0.11293 0.37849 0.0
H114 H 0.10397 0.10264 0.33357 0.0
H115 H 0.06337 0.87365 0.34157 0.0
H116 H 0.15103 0.87604 0.33102 0.0
H117 H 0.1963 0.95429 0.32906 0.0
H118 H 0.15388 0.03071 0.33727 0.0
C119 C 0.0838 0.08818 0.35264 0.0
C120 C 0.05572 0.0418 0.34919 0.0
C121 C 0.08113 0.9977 0.34451 0.0
C122 C 0.05518 0.95265 0.34624 0.0
C123 C 0.08139 0.90895 0.34119 0.0
C124 C 0.13171 0.90979 0.33497 0.0
C125 C 0.15717 0.95384 0.33381 0.0
C126 C 0.1324 0.99741 0.3386 0.0
H127 H 0.92666 0.90695 0.32516 0.0
C128 C 0.94315 0.88554 0.34299 0.0
H129 H 0.99689 0.88227 0.37702 0.0
H130 H 0.99396 0.12024 0.34924 0.0
H131 H 0.90581 0.11872 0.35859 0.0
H132 H 0.86209 0.04094 0.36767 0.0
H133 H 0.90576 0.96441 0.36637 0.0
C134 C 0.9799 0.90435 0.35968 0.0
C135 C 1.00405 0.9519 0.35309 0.0
C136 C 0.97797 0.9963 0.35568 0.0
C137 C 1.00367 0.04131 0.35254 0.0
C138 C 0.97655 0.08519 0.35308 0.0
C139 C 0.92592 0.08481 0.35819 0.0
C140 C 0.90129 0.04102 0.36314 0.0
C141 C 0.92684 0.9972 0.36208 0.0
H142 H 0.43677 0.56856 0.83912 0.0
C143 C 0.42851 0.57242 0.86277 0.0
H144 H 0.44436 0.55094 0.9065 0.0
H145 H 0.45793 0.32986 0.87318 0.0
H146 H 0.40168 0.33092 0.91519 0.0
H147 H 0.37773 0.40847 0.93856 0.0
H148 H 0.41009 0.48484 0.92057 0.0
C149 C 0.45247 0.5452 0.88304 0.0
C150 C 0.47542 0.49839 0.87363 0.0
C151 C 0.45585 0.45376 0.8849 0.0
C152 C 0.46859 0.40903 0.87105 0.0
C153 C 0.44874 0.36493 0.88256 0.0
C154 C 0.4165 0.36496 0.90672 0.0
C155 C 0.40309 0.40859 0.91989 0.0
C156 C 0.4222 0.45249 0.90919 0.0
H157 H 0.54654 0.30235 0.81574 0.0
C158 C 0.54735 0.33586 0.82863 0.0
H159 H 0.47376 0.34809 0.81758 0.0
H160 H 0.53008 0.57492 0.85259 0.0
H161 H 0.58643 0.57362 0.81031 0.0
H162 H 0.6024 0.49719 0.78316 0.0
H163 H 0.56246 0.42161 0.79818 0.0
C164 C 0.50614 0.36273 0.82886 0.0
C165 C 0.49988 0.40893 0.84575 0.0
C166 C 0.52189 0.45303 0.8357 0.0
C167 C 0.51101 0.49753 0.85043 0.0
C168 C 0.53562 0.54062 0.84123 0.0
C169 C 0.56829 0.54024 0.81723 0.0
C170 C 0.57726 0.49719 0.80195 0.0
C171 C 0.55423 0.45402 0.81087 0.0
H172 H 0.6328 0.44537 0.1673 0.0
C173 C 0.60469 0.42188 0.1575 0.0
H174 H 0.53599 0.41809 0.13524 0.0
H175 H 0.51792 0.63553 0.19683 0.0
H176 H 0.52524 0.59482 0.24483 0.0
H177 H 0.54388 0.50709 0.24761 0.0
H178 H 0.55655 0.45999 0.20262 0.0
C179 C 0.56374 0.4413 0.14565 0.0
C180 C 0.55501 0.49453 0.14476 0.0
C181 C 0.54607 0.52084 0.17149 0.0
C182 C 0.53271 0.57069 0.1699 0.0
C183 C 0.52617 0.59702 0.1968 0.0
C184 C 0.53055 0.57419 0.22449 0.0
C185 C 0.54124 0.52487 0.22605 0.0
C186 C 0.54879 0.49828 0.19996 0.0
H187 H 0.43411 0.61792 0.15539 0.0
C188 C 0.4561 0.64884 0.14782 0.0
H189 H 0.52601 0.6724 0.13203 0.0
H190 H 0.57446 0.45588 0.08962 0.0
H191 H 0.56613 0.49689 0.04177 0.0
H192 H 0.53904 0.5824 0.0391 0.0
H193 H 0.52048 0.62753 0.08432 0.0
C194 C 0.50334 0.64221 0.13991 0.0
C195 C 0.52557 0.59314 0.14168 0.0
C196 C 0.53657 0.5676 0.1151 0.0
C197 C 0.5515 0.5182 0.11664 0.0
C198 C 0.56224 0.49332 0.08972 0.0
C199 C 0.55777 0.51646 0.06211 0.0
C200 C 0.54257 0.56462 0.06061 0.0
C201 C 0.532 0.59008 0.08672 0.0
H202 H 0.12186 0.0408 0.63041 0.0
C203 C 0.13268 0.05717 0.65159 0.0
H204 H 0.11728 0.06122 0.69786 0.0
H205 H 0.90862 0.9897 0.62983 0.0
H206 H 0.90075 0.07483 0.61654 0.0
H207 H 0.96618 0.13415 0.62941 0.0
H208 H 0.03981 0.10845 0.65593 0.0
C209 C 0.10501 0.04897 0.67596 0.0
C210 C 0.06158 0.0159 0.67367 0.0
C211 C 0.0189 0.03138 0.65829 0.0
C212 C 0.98156 0.99705 0.6507 0.0
C213 C 0.93884 0.01383 0.63563 0.0
C214 C 0.93365 0.06275 0.62801 0.0
C215 C 0.97047 0.09614 0.63526 0.0
C216 C 0.01263 0.08088 0.65029 0.0
H217 H 0.92397 0.88711 0.68808 0.0
C218 C 0.91816 0.88838 0.66404 0.0
H219 H 0.94407 0.91273 0.62235 0.0
H220 H 0.13443 0.9768 0.70832 0.0
H221 H 0.14088 0.89239 0.72401 0.0
H222 H 0.07902 0.83137 0.7081 0.0
H223 H 0.00902 0.85481 0.67753 0.0
C224 C 0.95094 0.91129 0.64631 0.0
C225 C 0.98737 0.94709 0.65822 0.0
C226 C 0.02851 0.93226 0.67547 0.0
C227 C 0.06523 0.96707 0.68372 0.0
C228 C 0.10582 0.95169 0.70118 0.0
C229 C 0.11008 0.90334 0.71021 0.0
C230 C 0.07505 0.86905 0.70141 0.0
C231 C 0.03485 0.88305 0.68404 0.0
H232 H 0.17766 0.3257 0.4706 0.0
C233 C 0.19505 0.30342 0.45357 0.0
H234 H 0.24918 0.25011 0.44551 0.0
H235 H 0.35296 0.29483 0.57266 0.0
H236 H 0.40729 0.34415 0.54149 0.0
H237 H 0.38758 0.35878 0.48835 0.0
H238 H 0.31341 0.32417 0.46596 0.0
C239 C 0.23283 0.27478 0.46161 0.0
C240 C 0.24473 0.26713 0.49387 0.0
C241 C 0.28805 0.28752 0.50661 0.0
C242 C 0.29957 0.27888 0.53727 0.0
C243 C 0.34292 0.29988 0.54944 0.0
C244 C 0.37424 0.32834 0.53183 0.0
C245 C 0.36312 0.33661 0.5019 0.0
C246 C 0.32052 0.31656 0.48931 0.0
H247 H 0.33568 0.18808 0.57291 0.0
C248 C 0.3131 0.20055 0.59143 0.0
H249 H 0.25559 0.2472 0.60413 0.0
H250 H 0.16073 0.21854 0.47604 0.0
H251 H 0.10672 0.16978 0.50712 0.0
H252 H 0.12509 0.1573 0.56058 0.0
H253 H 0.19778 0.19325 0.58316 0.0
C254 C 0.2809 0.23666 0.5865 0.0
C255 C 0.26768 0.24988 0.55513 0.0
C256 C 0.22397 0.22993 0.54246 0.0
C257 C 0.2129 0.23786 0.51174 0.0
C258 C 0.17035 0.21516 0.4994 0.0
C259 C 0.13908 0.18666 0.51696 0.0
C260 C 0.14945 0.17959 0.54704 0.0
C261 C 0.19139 0.20062 0.55972 0.0
H262 H 0.21604 0.67195 0.95959 0.0
C263 C 0.23707 0.68951 0.94184 0.0
H264 H 0.28564 0.74766 0.9314 0.0
H265 H 0.22666 0.85806 0.05348 0.0
H266 H 0.17643 0.90489 0.01885 0.0
H267 H 0.1676 0.8796 0.96617 0.0
H268 H 0.20901 0.80736 0.94767 0.0
C269 C 0.26248 0.73042 0.94822 0.0
C270 C 0.26808 0.74664 0.97988 0.0
C271 C 0.2438 0.78886 0.9903 0.0
C272 C 0.24893 0.80352 0.02072 0.0
C273 C 0.22414 0.84565 0.03057 0.0
C274 C 0.19518 0.87271 0.01095 0.0
C275 C 0.19019 0.85845 0.98127 0.0
C276 C 0.21409 0.81698 0.97094 0.0
H277 H 0.33876 0.84397 0.0609 0.0
C278 C 0.32208 0.82293 0.07892 0.0
H279 H 0.2712 0.76727 0.08956 0.0
H280 H 0.3251 0.66727 0.9665 0.0
H281 H 0.37496 0.62082 1.00101 0.0
H282 H 0.38073 0.64401 0.05416 0.0
H283 H 0.33701 0.71407 0.07298 0.0
C284 C 0.28576 0.79117 0.07226 0.0
C285 C 0.27819 0.7758 0.04063 0.0
C286 C 0.30265 0.7336 0.03018 0.0
C287 C 0.29838 0.71955 0.9997 0.0
C288 C 0.32549 0.67877 0.98961 0.0
C289 C 0.35466 0.6519 0.00915 0.0
C290 C 0.35798 0.665 0.03905 0.0
C291 C 0.33255 0.70537 0.04954 0.0
H292 H 0.70781 0.75311 0.5737 0.0
C293 C 0.72792 0.78656 0.56888 0.0
H294 H 0.76397 0.82995 0.53675 0.0
H295 H 0.7844 0.62992 0.45975 0.0
H296 H 0.81349 0.58773 0.50439 0.0
H297 H 0.81034 0.62766 0.55375 0.0
H298 H 0.77659 0.70835 0.5591 0.0
C299 C 0.74417 0.79605 0.541 0.0
C300 C 0.7359 0.76464 0.51423 0.0
C301 C 0.75761 0.71787 0.51181 0.0
C302 C 0.76265 0.69602 0.48313 0.0
C303 C 0.78199 0.64849 0.48104 0.0
C304 C 0.79851 0.62401 0.50639 0.0
C305 C 0.79655 0.64645 0.53418 0.0
C306 C 0.7767 0.69292 0.53697 0.0
H307 H 0.84555 0.70747 0.4486 0.0
C308 C 0.82549 0.70834 0.42754 0.0
H309 H 0.75618 0.7142 0.40695 0.0
H310 H 0.67978 0.84654 0.51222 0.0
H311 H 0.64702 0.88558 0.46763 0.0
H312 H 0.66087 0.85014 0.4177 0.0
H313 H 0.70688 0.77553 0.41201 0.0
C314 C 0.77603 0.71199 0.42797 0.0
C315 C 0.75047 0.72263 0.45697 0.0
C316 C 0.7221 0.76552 0.45975 0.0
C317 C 0.7146 0.78632 0.48849 0.0
C318 C 0.68719 0.82983 0.49079 0.0
C319 C 0.66803 0.85241 0.46545 0.0
C320 C 0.67584 0.83245 0.43734 0.0
C321 C 0.70265 0.78962 0.43437 0.0
H322 H 0.77179 0.2733 0.93156 0.0
C323 C 0.74169 0.29873 0.93446 0.0
H324 H 0.69228 0.33173 0.96439 0.0
H325 H 0.73671 0.15015 0.05384 0.0
H326 H 0.71474 0.09459 0.01341 0.0
H327 H 0.70246 0.1253 0.96206 0.0
H328 H 0.71331 0.21098 0.95059 0.0
C329 C 0.72191 0.30564 0.96173 0.0
C330 C 0.74047 0.28319 0.98993 0.0
C331 C 0.7331 0.23295 0.99611 0.0
C332 C 0.73779 0.21549 0.02598 0.0
C333 C 0.73171 0.16514 0.03165 0.0
C334 C 0.71941 0.13303 0.00868 0.0
C335 C 0.71263 0.15032 0.97976 0.0
C336 C 0.71912 0.19969 0.97343 0.0
H337 H 0.66194 0.21226 0.06851 0.0
C338 C 0.68614 0.22159 0.08709 0.0
H339 H 0.75659 0.24618 0.09963 0.0
H340 H 0.76913 0.37813 0.98426 0.0
H341 H 0.79423 0.43261 0.02433 0.0
H342 H 0.79832 0.40345 0.07646 0.0
H343 H 0.77798 0.32004 0.08883 0.0
C344 C 0.73285 0.23542 0.08122 0.0
C345 C 0.74685 0.24855 0.04977 0.0
C346 C 0.76046 0.29737 0.04298 0.0
C347 C 0.75741 0.31451 0.01299 0.0
C348 C 0.77001 0.36364 1.00677 0.0
C349 C 0.78467 0.39519 0.02951 0.0
C350 C 0.787 0.37875 0.05884 0.0
C351 C 0.77499 0.33056 0.06565 0.0
H352 H 0.55591 0.22487 0.25576 0.0
C353 C 0.53915 0.22098 0.2338 0.0
H354 H 0.4732 0.20943 0.20945 0.0
H355 H 0.33191 0.1308 0.30807 0.0
H356 H 0.35994 0.05307 0.28898 0.0
H357 H 0.43155 0.0487 0.25514 0.0
H358 H 0.47596 0.12214 0.24044 0.0
C359 C 0.48997 0.21361 0.23139 0.0
C360 C 0.4548 0.21514 0.25701 0.0
C361 C 0.42903 0.17217 0.26538 0.0
C362 C 0.38712 0.17482 0.28447 0.0
C363 C 0.36296 0.13105 0.29292 0.0
C364 C 0.37891 0.08616 0.2823 0.0
C365 C 0.41926 0.08369 0.26327 0.0
C366 C 0.44424 0.12607 0.25488 0.0
H367 H 0.27887 0.19989 0.2757 0.0
C368 C 0.27917 0.21393 0.29842 0.0
H369 H 0.32355 0.23969 0.33397 0.0
H370 H 0.49728 0.30474 0.24708 0.0
H371 H 0.47084 0.38186 0.26733 0.0
H372 H 0.39862 0.38636 0.30063 0.0
H373 H 0.35219 0.31366 0.31365 0.0
C374 C 0.3227 0.22481 0.31147 0.0
C375 C 0.3703 0.22071 0.29473 0.0
C376 C 0.39818 0.26332 0.28813 0.0
C377 C 0.44022 0.26063 0.2691 0.0
C378 C 0.46564 0.30427 0.2617 0.0
C379 C 0.45077 0.34896 0.27315 0.0
C380 C 0.41011 0.35149 0.29188 0.0
C381 C 0.38384 0.30938 0.29923 0.0
H382 H 0.34459 0.75949 0.76181 0.0
C383 C 0.32858 0.76186 0.78402 0.0
H384 H 0.30115 0.80912 0.81726 0.0
H385 H 0.40911 0.99563 0.76264 0.0
H386 H 0.455 0.98433 0.80875 0.0
H387 H 0.44034 0.9122 0.84057 0.0
H388 H 0.37987 0.85076 0.82645 0.0
C389 C 0.31538 0.80572 0.79466 0.0
C390 C 0.32184 0.85098 0.77639 0.0
C391 C 0.35656 0.88716 0.78525 0.0
C392 C 0.36477 0.9291 0.76701 0.0
C393 C 0.40089 0.96362 0.7759 0.0
C394 C 0.4276 0.95747 0.80225 0.0
C395 C 0.41936 0.91683 0.82016 0.0
C396 C 0.38447 0.88188 0.81182 0.0
H397 H 0.31997 0.03152 0.74722 0.0
C398 C 0.33263 0.0222 0.72493 0.0
H399 H 0.35907 0.96682 0.69674 0.0
H400 H 0.24724 0.79265 0.75504 0.0
H401 H 0.20065 0.80453 0.70941 0.0
H402 H 0.21568 0.87631 0.67743 0.0
H403 H 0.27704 0.9368 0.691 0.0
C404 C 0.34811 0.97654 0.71932 0.0
C405 C 0.33783 0.93508 0.7401 0.0
C406 C 0.30182 0.89973 0.73179 0.0
C407 C 0.29355 0.85793 0.75002 0.0
C408 C 0.25627 0.8242 0.74157 0.0
C409 C 0.22893 0.83074 0.71551 0.0
C410 C 0.23737 0.87116 0.69752 0.0
C411 C 0.27298 0.90553 0.70555 0.0
H412 H 0.70996 0.739 0.28742 0.0
C413 C 0.72123 0.77519 0.29463 0.0
H414 H 0.70195 0.84904 0.29819 0.0
H415 H 0.53663 0.75569 0.20098 0.0
H416 H 0.60563 0.72697 0.17183 0.0
H417 H 0.69101 0.73837 0.18972 0.0
H418 H 0.70772 0.77711 0.2372 0.0
C419 C 0.69054 0.81311 0.29058 0.0
C420 C 0.63919 0.80782 0.2783 0.0
C421 C 0.63029 0.78731 0.24957 0.0
C422 C 0.58111 0.78313 0.23846 0.0
C423 C 0.57316 0.76063 0.21032 0.0
C424 C 0.61247 0.74404 0.19326 0.0
C425 C 0.6605 0.75027 0.2034 0.0
C426 C 0.66953 0.77202 0.23101 0.0
H427 H 0.49441 0.87336 0.22646 0.0
C428 C 0.47364 0.83934 0.22587 0.0
H429 H 0.47326 0.7656 0.23885 0.0
H430 H 0.64162 0.847 0.33475 0.0
H431 H 0.57239 0.87846 0.36263 0.0
H432 H 0.48828 0.87599 0.34158 0.0
H433 H 0.47287 0.84137 0.29245 0.0
C434 C 0.49047 0.80119 0.24174 0.0
C435 C 0.54112 0.80247 0.25498 0.0
C436 C 0.54989 0.82359 0.28334 0.0
C437 C 0.59872 0.8257 0.2952 0.0
C438 C 0.60575 0.84546 0.32418 0.0
C439 C 0.56621 0.86344 0.34056 0.0
C440 C 0.51884 0.862 0.32872 0.0
C441 C 0.51053 0.8422 0.3005 0.0
H442 H 0.75181 0.20349 0.77427 0.0
C443 C 0.7139 0.21597 0.7749 0.0
H444 H 0.63989 0.20205 0.76296 0.0
H445 H 0.66772 0.06989 0.65134 0.0
H446 H 0.62916 0.14132 0.62998 0.0
H447 H 0.61751 0.21548 0.66012 0.0
H448 H 0.6439 0.21855 0.7118 0.0
C449 C 0.67775 0.18944 0.76189 0.0
C450 C 0.68713 0.14483 0.74377 0.0
C451 C 0.67211 0.14389 0.71336 0.0
C452 C 0.67998 0.10158 0.69572 0.0
C453 C 0.66369 0.10143 0.66558 0.0
C454 C 0.64128 0.14212 0.65305 0.0
C455 C 0.63462 0.18381 0.67003 0.0
C456 C 0.64981 0.18495 0.69979 0.0
H457 H 0.67836 0.96325 0.7086 0.0
C458 C 0.70267 0.97373 0.69037 0.0
H459 H 0.74359 0.0302 0.66978 0.0
H460 H 0.71173 0.13039 0.80263 0.0
H461 H 0.75361 0.06042 0.82339 0.0
H462 H 0.7758 0.99081 0.79145 0.0
H463 H 0.75491 0.99012 0.73885 0.0
C464 C 0.71883 0.02017 0.68791 0.0
C465 C 0.70397 0.06054 0.70818 0.0
C466 C 0.71876 0.06126 0.73867 0.0
C467 C 0.70882 0.10282 0.75671 0.0
C468 C 0.72075 0.10109 0.78753 0.0
C469 C 0.74445 0.06092 0.79982 0.0
C470 C 0.75674 0.02165 0.78187 0.0
C471 C 0.7442 0.02162 0.75166 0.0
H472 H 0.05679 0.30933 0.28701 0.0
C473 C 0.04054 0.31293 0.30908 0.0
H474 H 0.97473 0.32118 0.3338 0.0
H475 H 0.84273 0.38986 0.22475 0.0
H476 H 0.87694 0.4697 0.23614 0.0
H477 H 0.94754 0.47862 0.27062 0.0
H478 H 0.98477 0.40752 0.29373 0.0
C479 C 0.99133 0.31863 0.31177 0.0
C480 C 0.95607 0.313 0.28638 0.0
C481 C 0.93456 0.35462 0.27314 0.0
C482 C 0.89318 0.34947 0.25369 0.0
C483 C 0.87321 0.39175 0.24034 0.0
C484 C 0.89272 0.43776 0.24654 0.0
C485 C 0.93252 0.44278 0.26594 0.0
C486 C 0.95339 0.4018 0.27913 0.0
H487 H 0.78268 0.33282 0.26281 0.0
C488 C 0.78268 0.31363 0.24156 0.0
H489 H 0.82629 0.27702 0.20973 0.0
H490 H 0.9909 0.22519 0.30604 0.0
H491 H 0.95811 0.1453 0.29381 0.0
H492 H 0.88631 0.13631 0.2603 0.0
H493 H 0.84673 0.2072 0.23888 0.0
C494 C 0.82566 0.29709 0.23064 0.0
C495 C 0.87271 0.30261 0.24794 0.0
C496 C 0.89632 0.26073 0.25962 0.0
C497 C 0.93784 0.26593 0.27895 0.0
C498 C 0.95945 0.22347 0.29117 0.0
C499 C 0.94099 0.17732 0.28434 0.0
C500 C 0.90059 0.17226 0.26546 0.0
C501 C 0.87826 0.21331 0.25327 0.0
H502 H 0.23329 0.27694 0.74451 0.0
C503 C 0.22586 0.28457 0.72108 0.0
H504 H 0.20865 0.33886 0.68926 0.0
H505 H 0.13917 0.44336 0.81667 0.0
H506 H 0.07278 0.38354 0.81667 0.0
H507 H 0.06969 0.31834 0.7788 0.0
H508 H 0.13306 0.31235 0.74078 0.0
C509 C 0.21433 0.3303 0.71273 0.0
C510 C 0.21399 0.37149 0.7346 0.0
C511 C 0.17638 0.3749 0.75647 0.0
C512 C 0.17799 0.4128 0.77821 0.0
C513 C 0.14 0.41509 0.79984 0.0
C514 C 0.10156 0.38115 0.8 0.0
C515 C 0.09982 0.34443 0.77868 0.0
C516 C 0.13659 0.34125 0.75707 0.0
H517 H 0.21346 0.54758 0.7812 0.0
C518 C 0.22128 0.53014 0.80249 0.0
H519 H 0.23084 0.46359 0.8255 0.0
H520 H 0.28932 0.37811 0.69421 0.0
H521 H 0.35567 0.43773 0.69404 0.0
H522 H 0.36043 0.50149 0.73273 0.0
H523 H 0.29873 0.50653 0.77146 0.0
C524 C 0.22311 0.48102 0.80419 0.0
C525 C 0.21701 0.44754 0.77807 0.0
C526 C 0.25384 0.44503 0.75553 0.0
C527 C 0.25181 0.40745 0.73356 0.0
C528 C 0.28908 0.40574 0.71143 0.0
C529 C 0.3275 0.43966 0.71111 0.0
C530 C 0.33013 0.47559 0.73286 0.0
C531 C 0.29409 0.47824 0.75494 0.0
H532 H 0.18133 0.70673 0.17459 0.0
C533 C 0.21038 0.71853 0.18978 0.0
H534 H 0.22827 0.73664 0.23427 0.0
H535 H 0.01582 0.79046 0.27821 0.0
H536 H 0.05819 0.86802 0.28062 0.0
H537 H 0.14197 0.87802 0.2601 0.0
H538 H 0.18379 0.8103 0.23686 0.0
C539 C 0.1999 0.72371 0.21898 0.0
C540 C 0.14844 0.71711 0.23063 0.0
C541 C 0.12385 0.75736 0.24358 0.0
C542 C 0.075 0.75181 0.25489 0.0
C543 C 0.05231 0.79248 0.26857 0.0
C544 C 0.07635 0.83737 0.2703 0.0
C545 C 0.1235 0.84299 0.25874 0.0
C546 C 0.14712 0.80367 0.24551 0.0
H547 H 0.0248 0.65104 0.29916 0.0
C548 C 0.99456 0.67407 0.29191 0.0
H549 H 0.97187 0.72627 0.26047 0.0
H550 H 0.18626 0.63056 0.21088 0.0
H551 H 0.14259 0.55355 0.20664 0.0
H552 H 0.05568 0.54591 0.22229 0.0
H553 H 0.01221 0.61517 0.24285 0.0
C554 C 1.00019 0.70034 0.26671 0.0
C555 C 0.05021 0.7061 0.25287 0.0
C556 C 0.07446 0.66605 0.23951 0.0
C557 C 0.12394 0.67118 0.22907 0.0
C558 C 0.1481 0.62952 0.2178 0.0
C559 C 0.12357 0.58491 0.21549 0.0
C560 C 0.07469 0.58055 0.2244 0.0
C561 C 0.05026 0.62051 0.23631 0.0
H562 H 0.77169 0.51084 0.82944 0.0
C563 C 0.75504 0.48176 0.8163 0.0
H564 H 0.72824 0.46094 0.7739 0.0
H565 H 0.75042 0.70513 0.77374 0.0
H566 H 0.69058 0.70384 0.81385 0.0
H567 H 0.65843 0.626 0.83366 0.0
H568 H 0.68718 0.54913 0.81415 0.0
C569 C 0.74642 0.48913 0.78703 0.0
C570 C 0.75958 0.53624 0.77198 0.0
C571 C 0.73911 0.58094 0.78193 0.0
C572 C 0.75449 0.62585 0.76877 0.0
C573 C 0.7375 0.66994 0.7814 0.0
C574 C 0.70348 0.66976 0.80468 0.0
C575 C 0.6856 0.62596 0.81595 0.0
C576 C 0.70294 0.582 0.80475 0.0
H577 H 0.72912 0.69439 0.71789 0.0
C578 C 0.76826 0.70254 0.71591 0.0
H579 H 0.84053 0.68022 0.72615 0.0
H580 H 0.80507 0.45762 0.74698 0.0
H581 H 0.85999 0.45842 0.70429 0.0
H582 H 0.88098 0.53538 0.67865 0.0
H583 H 0.84776 0.61204 0.69572 0.0
C584 C 0.80138 0.67249 0.72858 0.0
C585 C 0.78668 0.6259 0.74373 0.0
C586 C 0.80557 0.58103 0.73305 0.0
C587 C 0.79249 0.53637 0.74738 0.0
C588 C 0.81308 0.49245 0.73668 0.0
C589 C 0.84474 0.49237 0.7122 0.0
C590 C 0.85662 0.53571 0.6978 0.0
C591 C 0.83737 0.57956 0.70795 0.0
loop_
_geom_bond_atom_site_label_1
_geom_bond_atom_site_label_2
_geom_bond_distance
_geom_bond_site_symmetry_2
_ccdc_geom_bond_type
Zn0 O3 2.031 . S
Zn0 O5 2.049 . S
Zn0 O10 2.067 . S
Zn1 O2 1.962 . S
Zn1 O4 1.986 . S
Zn1 O6 1.996 . S
Zn1 O9 1.943 . S
O2 Zn1 1.962 . S
O2 C7 1.254 . S
O3 Zn0 2.031 . S
O3 C7 1.269 . S
O4 Zn1 1.986 . S
O4 C11 1.262 . S
O5 Zn0 2.049 . S
O5 C13 1.260 . S
O6 Zn1 1.996 . S
O6 C13 1.257 . S
C7 O2 1.254 . S
C7 O3 1.269 . S
C8 O9 1.249 . S
C8 O10 1.270 . S
O9 Zn1 1.943 . S
O9 C8 1.249 . S
O10 Zn0 2.067 . S
O10 C8 1.270 . S
C11 O4 1.262 . S
C11 O12 1.232 . S
O12 C11 1.232 . S
C13 O5 1.260 . S
C13 O6 1.257 . S
Zn14 O17 2.031 . S
Zn14 O19 2.049 . S
Zn14 O24 2.067 . S
Zn15 O16 1.962 . S
Zn15 O18 1.986 . S
Zn15 O20 1.996 . S
Zn15 O23 1.943 . S
O16 Zn15 1.962 . S
O16 C21 1.254 . S
O17 Zn14 2.031 . S
O17 C21 1.269 . S
O18 Zn15 1.986 . S
O18 C25 1.262 . S
O19 Zn14 2.049 . S
O19 C27 1.260 . S
O20 Zn15 1.996 . S
O20 C27 1.257 . S
C21 O16 1.254 . S
C21 O17 1.269 . S
C22 O23 1.249 . S
C22 O24 1.270 . S
O23 Zn15 1.943 . S
O23 C22 1.249 . S
O24 Zn14 2.067 . S
O24 C22 1.270 . S
C25 O18 1.262 . S
C25 O26 1.232 . S
O26 C25 1.232 . S
C27 O19 1.260 . S
C27 O20 1.257 . S
Zn28 O31 2.031 . S
Zn28 O33 2.049 . S
Zn28 O38 2.067 . S
Zn29 O30 1.962 . S
Zn29 O32 1.986 . S
Zn29 O34 1.996 . S
Zn29 O37 1.943 . S
O30 Zn29 1.962 . S
O30 C35 1.254 . S
O31 Zn28 2.031 . S
O31 C35 1.269 . S
O32 Zn29 1.986 . S
O32 C39 1.262 . S
O33 Zn28 2.049 . S
O33 C41 1.260 . S
O34 Zn29 1.996 . S
O34 C41 1.257 . S
C35 O30 1.254 . S
C35 O31 1.269 . S
C36 O37 1.249 . S
C36 O38 1.270 . S
O37 Zn29 1.943 . S
O37 C36 1.249 . S
O38 Zn28 2.067 . S
O38 C36 1.270 . S
C39 O32 1.262 . S
C39 O40 1.232 . S
O40 C39 1.232 . S
C41 O33 1.260 . S
C41 O34 1.257 . S
Zn42 O45 2.031 . S
Zn42 O47 2.049 . S
Zn42 O52 2.067 . S
Zn43 O44 1.962 . S
Zn43 O46 1.986 . S
Zn43 O48 1.996 . S
Zn43 O51 1.943 . S
O44 Zn43 1.962 . S
O44 C49 1.254 . S
O45 Zn42 2.031 . S
O45 C49 1.269 . S
O46 Zn43 1.986 . S
O46 C53 1.262 . S
O47 Zn42 2.049 . S
O47 C55 1.260 . S
O48 Zn43 1.996 . S
O48 C55 1.257 . S
C49 O44 1.254 . S
C49 O45 1.269 . S
C50 O51 1.249 . S
C50 O52 1.270 . S
O51 Zn43 1.943 . S
O51 C50 1.249 . S
O52 Zn42 2.067 . S
O52 C50 1.270 . S
C53 O46 1.262 . S
C53 O54 1.232 . S
O54 C53 1.232 . S
C55 O47 1.260 . S
C55 O48 1.257 . S
Zn56 O59 2.031 . S
Zn56 O61 2.049 . S
Zn56 O66 2.067 . S
Zn57 O58 1.962 . S
Zn57 O60 1.986 . S
Zn57 O62 1.996 . S
Zn57 O65 1.943 . S
O58 Zn57 1.962 . S
O58 C63 1.254 . S
O59 Zn56 2.031 . S
O59 C63 1.269 . S
O60 Zn57 1.986 . S
O60 C67 1.262 . S
O61 Zn56 2.049 . S
O61 C69 1.260 . S
O62 Zn57 1.996 . S
O62 C69 1.257 . S
C63 O58 1.254 . S
C63 O59 1.269 . S
C64 O65 1.249 . S
C64 O66 1.270 . S
O65 Zn57 1.943 . S
O65 C64 1.249 . S
O66 Zn56 2.067 . S
O66 C64 1.270 . S
C67 O60 1.262 . S
C67 O68 1.232 . S
O68 C67 1.232 . S
C69 O61 1.260 . S
C69 O62 1.257 . S
Zn70 O73 2.031 . S
Zn70 O75 2.049 . S
Zn70 O80 2.067 . S
Zn71 O72 1.962 . S
Zn71 O74 1.986 . S
Zn71 O76 1.996 . S
Zn71 O79 1.943 . S
O72 Zn71 1.962 . S
O72 C77 1.254 . S
O73 Zn70 2.031 . S
O73 C77 1.269 . S
O74 Zn71 1.986 . S
O74 C81 1.262 . S
O75 Zn70 2.049 . S
O75 C83 1.260 . S
O76 Zn71 1.996 . S
O76 C83 1.257 . S
C77 O72 1.254 . S
C77 O73 1.269 . S
C78 O79 1.249 . S
C78 O80 1.270 . S
O79 Zn71 1.943 . S
O79 C78 1.249 . S
O80 Zn70 2.067 . S
O80 C78 1.270 . S
C81 O74 1.262 . S
C81 O82 1.232 . S
O82 C81 1.232 . S
C83 O75 1.260 . S
C83 O76 1.257 . S
Zn84 O87 2.031 . S
Zn84 O89 2.049 . S
Zn84 O94 2.067 . S
Zn85 O86 1.962 . S
Zn85 O88 1.986 . S
Zn85 O90 1.996 . S
Zn85 O93 1.943 . S
O86 Zn85 1.962 . S
O86 C91 1.254 . S
O87 Zn84 2.031 . S
O87 C91 1.269 . S
O88 Zn85 1.986 . S
O88 C95 1.262 . S
O89 Zn84 2.049 . S
O89 C97 1.260 . S
O90 Zn85 1.996 . S
O90 C97 1.257 . S
C91 O86 1.254 . S
C91 O87 1.269 . S
C92 O93 1.249 . S
C92 O94 1.270 . S
O93 Zn85 1.943 . S
O93 C92 1.249 . S
O94 Zn84 2.067 . S
O94 C92 1.270 . S
C95 O88 1.262 . S
C95 O96 1.232 . S
O96 C95 1.232 . S
C97 O89 1.260 . S
C97 O90 1.257 . S
Zn98 O101 2.031 . S
Zn98 O103 2.049 . S
Zn98 O108 2.067 . S
Zn99 O100 1.962 . S
Zn99 O102 1.986 . S
Zn99 O104 1.996 . S
Zn99 O107 1.943 . S
O100 Zn99 1.962 . S
O100 C105 1.254 . S
O101 Zn98 2.031 . S
O101 C105 1.269 . S
O102 Zn99 1.986 . S
O102 C109 1.262 . S
O103 Zn98 2.049 . S
O103 C111 1.260 . S
O104 Zn99 1.996 . S
O104 C111 1.257 . S
C105 O100 1.254 . S
C105 O101 1.269 . S
C106 O107 1.249 . S
C106 O108 1.270 . S
O107 Zn99 1.943 . S
O107 C106 1.249 . S
O108 Zn98 2.067 . S
O108 C106 1.270 . S
C109 O102 1.262 . S
C109 O110 1.232 . S
O110 C109 1.232 . S
C111 O103 1.260 . S
C111 O104 1.257 . S
H112 C113 0.951 . S
C113 H112 0.951 . S
C113 C119 1.265 . S
H114 C119 0.950 . S
H115 C123 0.949 . S
H116 C124 0.950 . S
H117 C125 0.951 . S
H118 C126 0.951 . S
C119 C113 1.265 . S
C119 H114 0.950 . S
C119 C120 1.478 . S
C120 C119 1.478 . S
C120 C121 1.397 . S
C120 C137 1.394 . S
C121 C120 1.397 . S
C121 C122 1.438 1_445 S
C121 C126 1.429 . S
C122 C121 1.438 1_665 S
C122 C123 1.428 . S
C122 C135 1.394 . S
C123 H115 0.949 . S
C123 C122 1.428 . S
C123 C124 1.345 1_655 S
C124 H116 0.950 . S
C124 C123 1.345 1_455 S
C124 C125 1.424 . S
C125 H117 0.951 . S
C125 C124 1.424 . S
C125 C126 1.347 1_565 S
C126 H118 0.951 . S
C126 C121 1.429 . S
C126 C125 1.347 1_545 S
H127 C128 0.951 . S
C128 H127 0.951 . S
C128 C134 1.265 . S
H129 C134 0.950 . S
H130 C138 0.949 . S
H131 C139 0.950 . S
H132 C140 0.951 . S
H133 C141 0.951 . S
C134 C128 1.265 . S
C134 H129 0.950 . S
C134 C135 1.478 . S
C135 C122 1.394 . S
C135 C134 1.478 . S
C135 C136 1.397 . S
C136 C135 1.397 . S
C136 C137 1.438 1_665 S
C136 C141 1.429 . S
C137 C120 1.394 . S
C137 C136 1.438 1_445 S
C137 C138 1.428 . S
C138 H130 0.949 . S
C138 C137 1.428 . S
C138 C139 1.345 1_455 S
C139 H131 0.950 . S
C139 C138 1.345 1_655 S
C139 C140 1.424 . S
C140 H132 0.951 . S
C140 C139 1.424 . S
C140 C141 1.347 1_545 S
C141 H133 0.951 . S
C141 C136 1.429 . S
C141 C140 1.347 1_565 S
H142 C143 0.951 . S
C143 H142 0.951 . S
C143 C149 1.265 . S
H144 C149 0.950 . S
H145 C153 0.949 . S
H146 C154 0.950 . S
H147 C155 0.951 . S
H148 C156 0.951 . S
C149 C143 1.265 . S
C149 H144 0.950 . S
C149 C150 1.478 . S
C150 C149 1.478 . S
C150 C151 1.397 . S
C150 C167 1.394 . S
C151 C150 1.397 . S
C151 C152 1.438 . S
C151 C156 1.429 . S
C152 C151 1.438 . S
C152 C153 1.428 . S
C152 C165 1.394 . S
C153 H145 0.949 . S
C153 C152 1.428 . S
C153 C154 1.345 . S
C154 H146 0.950 . S
C154 C153 1.345 . S
C154 C155 1.424 . S
C155 H147 0.951 . S
C155 C154 1.424 . S
C155 C156 1.347 . S
C156 H148 0.951 . S
C156 C151 1.429 . S
C156 C155 1.347 . S
H157 C158 0.951 . S
C158 H157 0.951 . S
C158 C164 1.265 . S
H159 C164 0.950 . S
H160 C168 0.949 . S
H161 C169 0.950 . S
H162 C170 0.951 . S
H163 C171 0.951 . S
C164 C158 1.265 . S
C164 H159 0.950 . S
C164 C165 1.478 . S
C165 C152 1.394 . S
C165 C164 1.478 . S
C165 C166 1.397 . S
C166 C165 1.397 . S
C166 C167 1.438 . S
C166 C171 1.429 . S
C167 C150 1.394 . S
C167 C166 1.438 . S
C167 C168 1.428 . S
C168 H160 0.949 . S
C168 C167 1.428 . S
C168 C169 1.345 . S
C169 H161 0.950 . S
C169 C168 1.345 . S
C169 C170 1.424 . S
C170 H162 0.951 . S
C170 C169 1.424 . S
C170 C171 1.347 . S
C171 H163 0.951 . S
C171 C166 1.429 . S
C171 C170 1.347 . S
H172 C173 0.951 . S
C173 H172 0.951 . S
C173 C179 1.265 . S
H174 C179 0.950 . S
H175 C183 0.949 . S
H176 C184 0.950 . S
H177 C185 0.951 . S
H178 C186 0.951 . S
C179 C173 1.265 . S
C179 H174 0.950 . S
C179 C180 1.478 . S
C180 C179 1.478 . S
C180 C181 1.397 . S
C180 C197 1.394 . S
C181 C180 1.397 . S
C181 C182 1.438 . S
C181 C186 1.429 . S
C182 C181 1.438 . S
C182 C183 1.428 . S
C182 C195 1.394 . S
C183 H175 0.949 . S
C183 C182 1.428 . S
C183 C184 1.345 . S
C184 H176 0.950 . S
C184 C183 1.345 . S
C184 C185 1.424 . S
C185 H177 0.951 . S
C185 C184 1.424 . S
C185 C186 1.347 . S
C186 H178 0.951 . S
C186 C181 1.429 . S
C186 C185 1.347 . S
H187 C188 0.951 . S
C188 H187 0.951 . S
C188 C194 1.265 . S
H189 C194 0.950 . S
H190 C198 0.949 . S
H191 C199 0.950 . S
H192 C200 0.951 . S
H193 C201 0.951 . S
C194 C188 1.265 . S
C194 H189 0.950 . S
C194 C195 1.478 . S
C195 C182 1.394 . S
C195 C194 1.478 . S
C195 C196 1.397 . S
C196 C195 1.397 . S
C196 C197 1.438 . S
C196 C201 1.429 . S
C197 C180 1.394 . S
C197 C196 1.438 . S
C197 C198 1.428 . S
C198 H190 0.949 . S
C198 C197 1.428 . S
C198 C199 1.345 . S
C199 H191 0.950 . S
C199 C198 1.345 . S
C199 C200 1.424 . S
C200 H192 0.951 . S
C200 C199 1.424 . S
C200 C201 1.347 . S
C201 H193 0.951 . S
C201 C196 1.429 . S
C201 C200 1.347 . S
H202 C203 0.951 . S
C203 H202 0.951 . S
C203 C209 1.265 . S
H204 C209 0.950 . S
H205 C213 0.949 . S
H206 C214 0.950 1_565 S
H207 C215 0.951 . S
H208 C216 0.951 . S
C209 C203 1.265 . S
C209 H204 0.950 . S
C209 C210 1.478 . S
C210 C209 1.478 . S
C210 C211 1.397 . S
C210 C227 1.394 . S
C211 C210 1.397 . S
C211 C212 1.438 1_445 S
C211 C216 1.429 . S
C212 C211 1.438 1_665 S
C212 C213 1.428 . S
C212 C225 1.394 . S
C213 H205 0.949 . S
C213 C212 1.428 . S
C213 C214 1.345 1_565 S
C214 H206 0.950 1_545 S
C214 C213 1.345 1_545 S
C214 C215 1.424 . S
C215 H207 0.951 . S
C215 C214 1.424 . S
C215 C216 1.347 1_655 S
C216 H208 0.951 . S
C216 C211 1.429 . S
C216 C215 1.347 1_455 S
H217 C218 0.951 . S
C218 H217 0.951 . S
C218 C224 1.265 . S
H219 C224 0.950 . S
H220 C228 0.949 . S
H221 C229 0.950 1_545 S
H222 C230 0.951 . S
H223 C231 0.951 . S
C224 C218 1.265 . S
C224 H219 0.950 . S
C224 C225 1.478 . S
C225 C212 1.394 . S
C225 C224 1.478 . S
C225 C226 1.397 . S
C226 C225 1.397 . S
C226 C227 1.438 1_665 S
C226 C231 1.429 . S
C227 C210 1.394 . S
C227 C226 1.438 1_445 S
C227 C228 1.428 . S
C228 H220 0.949 . S
C228 C227 1.428 . S
C228 C229 1.345 1_545 S
C229 H221 0.950 1_565 S
C229 C228 1.345 1_565 S
C229 C230 1.424 . S
C230 H222 0.951 . S
C230 C229 1.424 . S
C230 C231 1.347 1_455 S
C231 H223 0.951 . S
C231 C226 1.429 . S
C231 C230 1.347 1_655 S
H232 C233 0.951 . S
C233 H232 0.951 . S
C233 C239 1.265 . S
H234 C239 0.950 . S
H235 C243 0.949 . S
H236 C244 0.950 . S
H237 C245 0.951 . S
H238 C246 0.951 . S
C239 C233 1.265 . S
C239 H234 0.950 . S
C239 C240 1.478 . S
C240 C239 1.478 . S
C240 C241 1.397 . S
C240 C257 1.394 . S
C241 C240 1.397 . S
C241 C242 1.438 . S
C241 C246 1.429 . S
C242 C241 1.438 . S
C242 C243 1.428 . S
C242 C255 1.394 . S
C243 H235 0.949 . S
C243 C242 1.428 . S
C243 C244 1.345 . S
C244 H236 0.950 . S
C244 C243 1.345 . S
C244 C245 1.424 . S
C245 H237 0.951 . S
C245 C244 1.424 . S
C245 C246 1.347 . S
C246 H238 0.951 . S
C246 C241 1.429 . S
C246 C245 1.347 . S
H247 C248 0.951 . S
C248 H247 0.951 . S
C248 C254 1.265 . S
H249 C254 0.950 . S
H250 C258 0.949 . S
H251 C259 0.950 . S
H252 C260 0.951 . S
H253 C261 0.951 . S
C254 C248 1.265 . S
C254 H249 0.950 . S
C254 C255 1.478 . S
C255 C242 1.394 . S
C255 C254 1.478 . S
C255 C256 1.397 . S
C256 C255 1.397 . S
C256 C257 1.438 . S
C256 C261 1.429 . S
C257 C240 1.394 . S
C257 C256 1.438 . S
C257 C258 1.428 . S
C258 H250 0.949 . S
C258 C257 1.428 . S
C258 C259 1.345 . S
C259 H251 0.950 . S
C259 C258 1.345 . S
C259 C260 1.424 . S
C260 H252 0.951 . S
C260 C259 1.424 . S
C260 C261 1.347 . S
C261 H253 0.951 . S
C261 C256 1.429 . S
C261 C260 1.347 . S
H262 C263 0.951 . S
C263 H262 0.951 . S
C263 C269 1.265 . S
H264 C269 0.950 . S
H265 C273 0.949 . S
H266 C274 0.950 . S
H267 C275 0.951 . S
H268 C276 0.951 . S
C269 C263 1.265 . S
C269 H264 0.950 . S
C269 C270 1.478 . S
C270 C269 1.478 . S
C270 C271 1.397 . S
C270 C287 1.394 . S
C271 C270 1.397 . S
C271 C272 1.438 1_556 S
C271 C276 1.429 . S
C272 C271 1.438 1_554 S
C272 C273 1.428 . S
C272 C285 1.394 . S
C273 H265 0.949 . S
C273 C272 1.428 . S
C273 C274 1.345 . S
C274 H266 0.950 . S
C274 C273 1.345 . S
C274 C275 1.424 1_554 S
C275 H267 0.951 . S
C275 C274 1.424 1_556 S
C275 C276 1.347 . S
C276 H268 0.951 . S
C276 C271 1.429 . S
C276 C275 1.347 . S
H277 C278 0.951 . S
C278 H277 0.951 . S
C278 C284 1.265 . S
H279 C284 0.950 . S
H280 C288 0.949 . S
H281 C289 0.950 . S
H282 C290 0.951 . S
H283 C291 0.951 . S
C284 C278 1.265 . S
C284 H279 0.950 . S
C284 C285 1.478 . S
C285 C272 1.394 . S
C285 C284 1.478 . S
C285 C286 1.397 . S
C286 C285 1.397 . S
C286 C287 1.438 1_554 S
C286 C291 1.429 . S
C287 C270 1.394 . S
C287 C286 1.438 1_556 S
C287 C288 1.428 . S
C288 H280 0.949 . S
C288 C287 1.428 . S
C288 C289 1.345 . S
C289 H281 0.950 . S
C289 C288 1.345 . S
C289 C290 1.424 1_556 S
C290 H282 0.951 . S
C290 C289 1.424 1_554 S
C290 C291 1.347 . S
C291 H283 0.951 . S
C291 C286 1.429 . S
C291 C290 1.347 . S
H292 C293 0.951 . S
C293 H292 0.951 . S
C293 C299 1.265 . S
H294 C299 0.950 . S
H295 C303 0.949 . S
H296 C304 0.950 . S
H297 C305 0.951 . S
H298 C306 0.951 . S
C299 C293 1.265 . S
C299 H294 0.950 . S
C299 C300 1.478 . S
C300 C299 1.478 . S
C300 C301 1.397 . S
C300 C317 1.394 . S
C301 C300 1.397 . S
C301 C302 1.438 . S
C301 C306 1.429 . S
C302 C301 1.438 . S
C302 C303 1.428 . S
C302 C315 1.394 . S
C303 H295 0.949 . S
C303 C302 1.428 . S
C303 C304 1.345 . S
C304 H296 0.950 . S
C304 C303 1.345 . S
C304 C305 1.424 . S
C305 H297 0.951 . S
C305 C304 1.424 . S
C305 C306 1.347 . S
C306 H298 0.951 . S
C306 C301 1.429 . S
C306 C305 1.347 . S
H307 C308 0.951 . S
C308 H307 0.951 . S
C308 C314 1.265 . S
H309 C314 0.950 . S
H310 C318 0.949 . S
H311 C319 0.950 . S
H312 C320 0.951 . S
H313 C321 0.951 . S
C314 C308 1.265 . S
C314 H309 0.950 . S
C314 C315 1.478 . S
C315 C302 1.394 . S
C315 C314 1.478 . S
C315 C316 1.397 . S
C316 C315 1.397 . S
C316 C317 1.438 . S
C316 C321 1.429 . S
C317 C300 1.394 . S
C317 C316 1.438 . S
C317 C318 1.428 . S
C318 H310 0.949 . S
C318 C317 1.428 . S
C318 C319 1.345 . S
C319 H311 0.950 . S
C319 C318 1.345 . S
C319 C320 1.424 . S
C320 H312 0.951 . S
C320 C319 1.424 . S
C320 C321 1.347 . S
C321 H313 0.951 . S
C321 C316 1.429 . S
C321 C320 1.347 . S
H322 C323 0.951 . S
C323 H322 0.951 . S
C323 C329 1.265 . S
H324 C329 0.950 . S
H325 C333 0.949 . S
H326 C334 0.950 1_554 S
H327 C335 0.951 . S
H328 C336 0.951 . S
C329 C323 1.265 . S
C329 H324 0.950 . S
C329 C330 1.478 . S
C330 C329 1.478 . S
C330 C331 1.397 . S
C330 C347 1.394 . S
C331 C330 1.397 . S
C331 C332 1.438 1_556 S
C331 C336 1.429 . S
C332 C331 1.438 1_554 S
C332 C333 1.428 . S
C332 C345 1.394 . S
C333 H325 0.949 . S
C333 C332 1.428 . S
C333 C334 1.345 1_554 S
C334 H326 0.950 1_556 S
C334 C333 1.345 1_556 S
C334 C335 1.424 . S
C335 H327 0.951 . S
C335 C334 1.424 . S
C335 C336 1.347 . S
C336 H328 0.951 . S
C336 C331 1.429 . S
C336 C335 1.347 . S
H337 C338 0.951 . S
C338 H337 0.951 . S
C338 C344 1.265 . S
H339 C344 0.950 . S
H340 C348 0.949 . S
H341 C349 0.950 1_556 S
H342 C350 0.951 . S
H343 C351 0.951 . S
C344 C338 1.265 . S
C344 H339 0.950 . S
C344 C345 1.478 . S
C345 C332 1.394 . S
C345 C344 1.478 . S
C345 C346 1.397 . S
C346 C345 1.397 . S
C346 C347 1.438 1_554 S
C346 C351 1.429 . S
C347 C330 1.394 . S
C347 C346 1.438 1_556 S
C347 C348 1.428 . S
C348 H340 0.949 . S
C348 C347 1.428 . S
C348 C349 1.345 1_556 S
C349 H341 0.950 1_554 S
C349 C348 1.345 1_554 S
C349 C350 1.424 . S
C350 H342 0.951 . S
C350 C349 1.424 . S
C350 C351 1.347 . S
C351 H343 0.951 . S
C351 C346 1.429 . S
C351 C350 1.347 . S
H352 C353 0.951 . S
C353 H352 0.951 . S
C353 C359 1.265 . S
H354 C359 0.950 . S
H355 C363 0.949 . S
H356 C364 0.950 . S
H357 C365 0.951 . S
H358 C366 0.951 . S
C359 C353 1.265 . S
C359 H354 0.950 . S
C359 C360 1.478 . S
C360 C359 1.478 . S
C360 C361 1.397 . S
C360 C377 1.394 . S
C361 C360 1.397 . S
C361 C362 1.438 . S
C361 C366 1.429 . S
C362 C361 1.438 . S
C362 C363 1.428 . S
C362 C375 1.394 . S
C363 H355 0.949 . S
C363 C362 1.428 . S
C363 C364 1.345 . S
C364 H356 0.950 . S
C364 C363 1.345 . S
C364 C365 1.424 . S
C365 H357 0.951 . S
C365 C364 1.424 . S
C365 C366 1.347 . S
C366 H358 0.951 . S
C366 C361 1.429 . S
C366 C365 1.347 . S
H367 C368 0.951 . S
C368 H367 0.951 . S
C368 C374 1.265 . S
H369 C374 0.950 . S
H370 C378 0.949 . S
H371 C379 0.950 . S
H372 C380 0.951 . S
H373 C381 0.951 . S
C374 C368 1.265 . S
C374 H369 0.950 . S
C374 C375 1.478 . S
C375 C362 1.394 . S
C375 C374 1.478 . S
C375 C376 1.397 . S
C376 C375 1.397 . S
C376 C377 1.438 . S
C376 C381 1.429 . S
C377 C360 1.394 . S
C377 C376 1.438 . S
C377 C378 1.428 . S
C378 H370 0.949 . S
C378 C377 1.428 . S
C378 C379 1.345 . S
C379 H371 0.950 . S
C379 C378 1.345 . S
C379 C380 1.424 . S
C380 H372 0.951 . S
C380 C379 1.424 . S
C380 C381 1.347 . S
C381 H373 0.951 . S
C381 C376 1.429 . S
C381 C380 1.347 . S
H382 C383 0.951 . S
C383 H382 0.951 . S
C383 C389 1.265 . S
H384 C389 0.950 . S
H385 C393 0.949 . S
H386 C394 0.959 . S
H387 C395 0.951 . S
H388 C396 0.951 . S
C389 C383 1.265 . S
C389 H384 0.950 . S
C389 C390 1.478 . S
C390 C389 1.478 . S
C390 C391 1.397 . S
C390 C407 1.394 . S
C391 C390 1.397 . S
C391 C392 1.438 . S
C391 C396 1.429 . S
C392 C391 1.438 . S
C392 C393 1.428 . S
C392 C405 1.394 . S
C393 H385 0.949 . S
C393 C392 1.428 . S
C393 C394 1.345 . S
C394 H386 0.959 . S
C394 C393 1.345 . S
C394 C395 1.424 . S
C395 H387 0.951 . S
C395 C394 1.424 . S
C395 C396 1.347 . S
C396 H388 0.951 . S
C396 C391 1.429 . S
C396 C395 1.347 . S
H397 C398 0.951 . S
C398 H397 0.951 . S
C398 C404 1.265 . S
H399 C404 0.950 . S
H400 C408 0.949 . S
H401 C409 0.950 . S
H402 C410 0.951 . S
H403 C411 0.951 . S
C404 C398 1.265 . S
C404 H399 0.950 . S
C404 C405 1.478 . S
C405 C392 1.394 . S
C405 C404 1.478 . S
C405 C406 1.397 . S
C406 C405 1.397 . S
C406 C407 1.438 . S
C406 C411 1.429 . S
C407 C390 1.394 . S
C407 C406 1.438 . S
C407 C408 1.428 . S
C408 H400 0.949 . S
C408 C407 1.428 . S
C408 C409 1.345 . S
C409 H401 0.950 . S
C409 C408 1.345 . S
C409 C410 1.424 . S
C410 H402 0.951 . S
C410 C409 1.424 . S
C410 C411 1.347 . S
C411 H403 0.951 . S
C411 C406 1.429 . S
C411 C410 1.347 . S
H412 C413 0.951 . S
C413 H412 0.951 . S
C413 C419 1.265 . S
H414 C419 0.950 . S
H415 C423 0.949 . S
H416 C424 0.950 . S
H417 C425 0.951 . S
H418 C426 0.951 . S
C419 C413 1.265 . S
C419 H414 0.950 . S
C419 C420 1.478 . S
C420 C419 1.478 . S
C420 C421 1.397 . S
C420 C437 1.394 . S
C421 C420 1.397 . S
C421 C422 1.438 . S
C421 C426 1.429 . S
C422 C421 1.438 . S
C422 C423 1.428 . S
C422 C435 1.394 . S
C423 H415 0.949 . S
C423 C422 1.428 . S
C423 C424 1.345 . S
C424 H416 0.950 . S
C424 C423 1.345 . S
C424 C425 1.424 . S
C425 H417 0.951 . S
C425 C424 1.424 . S
C425 C426 1.347 . S
C426 H418 0.951 . S
C426 C421 1.429 . S
C426 C425 1.347 . S
H427 C428 0.951 . S
C428 H427 0.951 . S
C428 C434 1.265 . S
H429 C434 0.950 . S
H430 C438 0.949 . S
H431 C439 0.950 . S
H432 C440 0.951 . S
H433 C441 0.951 . S
C434 C428 1.265 . S
C434 H429 0.950 . S
C434 C435 1.478 . S
C435 C422 1.394 . S
C435 C434 1.478 . S
C435 C436 1.397 . S
C436 C435 1.397 . S
C436 C437 1.438 . S
C436 C441 1.429 . S
C437 C420 1.394 . S
C437 C436 1.438 . S
C437 C438 1.428 . S
C438 H430 0.949 . S
C438 C437 1.428 . S
C438 C439 1.345 . S
C439 H431 0.950 . S
C439 C438 1.345 . S
C439 C440 1.424 . S
C440 H432 0.951 . S
C440 C439 1.424 . S
C440 C441 1.347 . S
C441 H433 0.951 . S
C441 C436 1.429 . S
C441 C440 1.347 . S
H442 C443 0.951 . S
C443 H442 0.951 . S
C443 C449 1.265 . S
H444 C449 0.950 . S
H445 C453 0.949 . S
H446 C454 0.950 . S
H447 C455 0.951 . S
H448 C456 0.951 . S
C449 C443 1.265 . S
C449 H444 0.950 . S
C449 C450 1.478 . S
C450 C449 1.478 . S
C450 C451 1.397 . S
C450 C467 1.394 . S
C451 C450 1.397 . S
C451 C452 1.438 . S
C451 C456 1.429 . S
C452 C451 1.438 . S
C452 C453 1.428 . S
C452 C465 1.394 . S
C453 H445 0.949 . S
C453 C452 1.428 . S
C453 C454 1.345 . S
C454 H446 0.950 . S
C454 C453 1.345 . S
C454 C455 1.424 . S
C455 H447 0.951 . S
C455 C454 1.424 . S
C455 C456 1.347 . S
C456 H448 0.951 . S
C456 C451 1.429 . S
C456 C455 1.347 . S
H457 C458 0.951 . S
C458 H457 0.951 . S
C458 C464 1.265 . S
H459 C464 0.950 . S
H460 C468 0.949 . S
H461 C469 0.950 . S
H462 C470 0.951 . S
H463 C471 0.951 . S
C464 C458 1.265 . S
C464 H459 0.950 . S
C464 C465 1.478 . S
C465 C452 1.394 . S
C465 C464 1.478 . S
C465 C466 1.397 . S
C466 C465 1.397 . S
C466 C467 1.438 . S
C466 C471 1.429 . S
C467 C450 1.394 . S
C467 C466 1.438 . S
C467 C468 1.428 . S
C468 H460 0.949 . S
C468 C467 1.428 . S
C468 C469 1.345 . S
C469 H461 0.950 . S
C469 C468 1.345 . S
C469 C470 1.424 . S
C470 H462 0.951 . S
C470 C469 1.424 . S
C470 C471 1.347 . S
C471 H463 0.951 . S
C471 C466 1.429 . S
C471 C470 1.347 . S
H472 C473 0.951 1_455 S
C473 H472 0.951 1_655 S
C473 C479 1.265 . S
H474 C479 0.950 . S
H475 C483 0.949 . S
H476 C484 0.950 . S
H477 C485 0.951 . S
H478 C486 0.951 . S
C479 C473 1.265 . S
C479 H474 0.950 . S
C479 C480 1.478 . S
C480 C479 1.478 . S
C480 C481 1.397 . S
C480 C497 1.394 . S
C481 C480 1.397 . S
C481 C482 1.438 . S
C481 C486 1.429 . S
C482 C481 1.438 . S
C482 C483 1.428 . S
C482 C495 1.394 . S
C483 H475 0.949 . S
C483 C482 1.428 . S
C483 C484 1.345 . S
C484 H476 0.950 . S
C484 C483 1.345 . S
C484 C485 1.424 . S
C485 H477 0.951 . S
C485 C484 1.424 . S
C485 C486 1.347 . S
C486 H478 0.951 . S
C486 C481 1.429 . S
C486 C485 1.347 . S
H487 C488 0.951 . S
C488 H487 0.951 . S
C488 C494 1.265 . S
H489 C494 0.950 . S
H490 C498 0.949 . S
H491 C499 0.950 . S
H492 C500 0.951 . S
H493 C501 0.951 . S
C494 C488 1.265 . S
C494 H489 0.950 . S
C494 C495 1.478 . S
C495 C482 1.394 . S
C495 C494 1.478 . S
C495 C496 1.397 . S
C496 C495 1.397 . S
C496 C497 1.438 . S
C496 C501 1.429 . S
C497 C480 1.394 . S
C497 C496 1.438 . S
C497 C498 1.428 . S
C498 H490 0.949 . S
C498 C497 1.428 . S
C498 C499 1.345 . S
C499 H491 0.950 . S
C499 C498 1.345 . S
C499 C500 1.424 . S
C500 H492 0.951 . S
C500 C499 1.424 . S
C500 C501 1.347 . S
C501 H493 0.951 . S
C501 C496 1.429 . S
C501 C500 1.347 . S
H502 C503 0.951 . S
C503 H502 0.951 . S
C503 C509 1.265 . S
H504 C509 0.950 . S
H505 C513 0.949 . S
H506 C514 0.950 . S
H507 C515 0.951 . S
H508 C516 0.951 . S
C509 C503 1.265 . S
C509 H504 0.950 . S
C509 C510 1.478 . S
C510 C509 1.478 . S
C510 C511 1.397 . S
C510 C527 1.394 . S
C511 C510 1.397 . S
C511 C512 1.438 . S
C511 C516 1.429 . S
C512 C511 1.438 . S
C512 C513 1.428 . S
C512 C525 1.394 . S
C513 H505 0.949 . S
C513 C512 1.428 . S
C513 C514 1.345 . S
C514 H506 0.950 . S
C514 C513 1.345 . S
C514 C515 1.424 . S
C515 H507 0.951 . S
C515 C514 1.424 . S
C515 C516 1.347 . S
C516 H508 0.951 . S
C516 C511 1.429 . S
C516 C515 1.347 . S
H517 C518 0.951 . S
C518 H517 0.951 . S
C518 C524 1.265 . S
H519 C524 0.950 . S
H520 C528 0.949 . S
H521 C529 0.950 . S
H522 C530 0.951 . S
H523 C531 0.951 . S
C524 C518 1.265 . S
C524 H519 0.950 . S
C524 C525 1.478 . S
C525 C512 1.394 . S
C525 C524 1.478 . S
C525 C526 1.397 . S
C526 C525 1.397 . S
C526 C527 1.438 . S
C526 C531 1.429 . S
C527 C510 1.394 . S
C527 C526 1.438 . S
C527 C528 1.428 . S
C528 H520 0.949 . S
C528 C527 1.428 . S
C528 C529 1.345 . S
C529 H521 0.950 . S
C529 C528 1.345 . S
C529 C530 1.424 . S
C530 H522 0.951 . S
C530 C529 1.424 . S
C530 C531 1.347 . S
C531 H523 0.951 . S
C531 C526 1.429 . S
C531 C530 1.347 . S
H532 C533 0.951 . S
C533 H532 0.951 . S
C533 C539 1.265 . S
H534 C539 0.950 . S
H535 C543 0.949 . S
H536 C544 0.950 . S
H537 C545 0.951 . S
H538 C546 0.951 . S
C539 C533 1.265 . S
C539 H534 0.950 . S
C539 C540 1.478 . S
C540 C539 1.478 . S
C540 C541 1.397 . S
C540 C557 1.394 . S
C541 C540 1.397 . S
C541 C542 1.438 . S
C541 C546 1.429 . S
C542 C541 1.438 . S
C542 C543 1.428 . S
C542 C555 1.394 . S
C543 H535 0.949 . S
C543 C542 1.428 . S
C543 C544 1.345 . S
C544 H536 0.950 . S
C544 C543 1.345 . S
C544 C545 1.424 . S
C545 H537 0.951 . S
C545 C544 1.424 . S
C545 C546 1.347 . S
C546 H538 0.951 . S
C546 C541 1.429 . S
C546 C545 1.347 . S
H547 C548 0.951 . S
C548 H547 0.951 . S
C548 C554 1.265 . S
H549 C554 0.950 . S
H550 C558 0.949 . S
H551 C559 0.950 . S
H552 C560 0.951 . S
H553 C561 0.951 . S
C554 C548 1.265 . S
C554 H549 0.950 . S
C554 C555 1.478 . S
C555 C542 1.394 . S
C555 C554 1.478 . S
C555 C556 1.397 . S
C556 C555 1.397 . S
C556 C557 1.438 . S
C556 C561 1.429 . S
C557 C540 1.394 . S
C557 C556 1.438 . S
C557 C558 1.428 . S
C558 H550 0.949 . S
C558 C557 1.428 . S
C558 C559 1.345 . S
C559 H551 0.950 . S
C559 C558 1.345 . S
C559 C560 1.424 . S
C560 H552 0.951 . S
C560 C559 1.424 . S
C560 C561 1.347 . S
C561 H553 0.951 . S
C561 C556 1.429 . S
C561 C560 1.347 . S
H562 C563 0.951 . S
C563 H562 0.951 . S
C563 C569 1.265 . S
H564 C569 0.950 . S
H565 C573 0.949 . S
H566 C574 0.950 . S
H567 C575 0.951 . S
H568 C576 0.951 . S
C569 C563 1.265 . S
C569 H564 0.950 . S
C569 C570 1.478 . S
C570 C569 1.478 . S
C570 C571 1.397 . S
C570 C587 1.394 . S
C571 C570 1.397 . S
C571 C572 1.438 . S
C571 C576 1.429 . S
C572 C571 1.438 . S
C572 C573 1.428 . S
C572 C585 1.394 . S
C573 H565 0.949 . S
C573 C572 1.428 . S
C573 C574 1.345 . S
C574 H566 0.950 . S
C574 C573 1.345 . S
C574 C575 1.424 . S
C575 H567 0.951 . S
C575 C574 1.424 . S
C575 C576 1.347 . S
C576 H568 0.951 . S
C576 C571 1.429 . S
C576 C575 1.347 . S
H577 C578 0.951 . S
C578 H577 0.951 . S
C578 C584 1.265 . S
H579 C584 0.950 . S
H580 C588 0.949 . S
H581 C589 0.950 . S
H582 C590 0.951 . S
H583 C591 0.951 . S
C584 C578 1.265 . S
C584 H579 0.950 . S
C584 C585 1.478 . S
C585 C572 1.394 . S
C585 C584 1.478 . S
C585 C586 1.397 . S
C586 C585 1.397 . S
C586 C587 1.438 . S
C586 C591 1.429 . S
C587 C570 1.394 . S
C587 C586 1.438 . S
C587 C588 1.428 . S
C588 H580 0.949 . S
C588 C587 1.428 . S
C588 C589 1.345 . S
C589 H581 0.950 . S
C589 C588 1.345 . S
C589 C590 1.424 . S
C590 H582 0.951 . S
C590 C589 1.424 . S
C590 C591 1.347 . S
C591 H583 0.951 . S
C591 C586 1.429 . S
C591 C590 1.347 . S
C113 C8 0.474 . S
C128 C36 0.461 . S
C143 C22 0.598 . S
C158 C50 0.390 . S
C173 C64 0.612 . S
C188 C92 0.670 . S
C203 C78 0.480 . S
C218 C106 0.455 . S
C233 C13 1.381 . S
C248 C83 1.402 . S
C263 C27 1.400 . S
C278 C97 1.383 . S
C293 C111 1.441 . S
C308 C41 1.352 . S
C323 C55 1.429 . S
C338 C69 1.359 . S
C353 C63 1.462 . S
C368 C11 1.480 . S
C383 C25 1.480 . S
C398 C77 1.405 1_565 S
C413 C39 1.502 . S
C428 C91 1.439 . S
C443 C53 1.491 . S
C458 C105 1.488 1_545 S
C473 C7 1.464 1_655 S
C488 C67 1.480 . S
C503 C81 1.500 . S
C518 C21 1.480 . S
C533 C95 1.484 . S
C548 C35 1.397 1_455 S
C563 C49 1.457 . S
C578 C109 1.503 . S
