# Generated by pormake.
# Topology whk, (6)-cn, num edge types: 1
# Building blocks:
#     Node 0, Type 0, BuildingBlock: PAMTOO_clean_sbu_0, # of connection points: 6
#     Node 1, Type 0, BuildingBlock: PAMTOO_clean_sbu_0, # of connection points: 6
#     Node 2, Type 0, BuildingBlock: PAMTOO_clean_sbu_0, # of connection points: 6
#     Node 3, Type 0, BuildingBlock: PAMTOO_clean_sbu_0, # of connection points: 6
#     Node 4, Type 0, BuildingBlock: PAMTOO_clean_sbu_0, # of connection points: 6
#     Node 5, Type 0, BuildingBlock: PAMTOO_clean_sbu_0, # of connection points: 6
#     Node 6, Type 0, BuildingBlock: PAMTOO_clean_sbu_0, # of connection points: 6
#     Node 7, Type 0, BuildingBlock: PAMTOO_clean_sbu_0, # of connection points: 6
#     Node 8, Type 0, BuildingBlock: PAMTOO_clean_sbu_0, # of connection points: 6
#     Node 9, Type 0, BuildingBlock: PAMTOO_clean_sbu_0, # of connection points: 6
#     Node 10, Type 0, BuildingBlock: PAMTOO_clean_sbu_0, # of connection points: 6
#     Node 11, Type 0, BuildingBlock: PAMTOO_clean_sbu_0, # of connection points: 6
#     Node 12, Type 0, BuildingBlock: PAMTOO_clean_sbu_0, # of connection points: 6
#     Node 13, Type 0, BuildingBlock: PAMTOO_clean_sbu_0, # of connection points: 6
#     Node 14, Type 0, BuildingBlock: PAMTOO_clean_sbu_0, # of connection points: 6
#     Node 15, Type 0, BuildingBlock: PAMTOO_clean_sbu_0, # of connection points: 6
#     Edge 16, Type (0, 0), BuildingBlock: XUDNAN_clean_linker_2, # of connection points: 2
#     Edge 17, Type (0, 0), BuildingBlock: XUDNAN_clean_linker_2, # of connection points: 2
#     Edge 18, Type (0, 0), BuildingBlock: XUDNAN_clean_linker_2, # of connection points: 2
#     Edge 19, Type (0, 0), BuildingBlock: XUDNAN_clean_linker_2, # of connection points: 2
#     Edge 20, Type (0, 0), BuildingBlock: XUDNAN_clean_linker_2, # of connection points: 2
#     Edge 21, Type (0, 0), BuildingBlock: XUDNAN_clean_linker_2, # of connection points: 2
#     Edge 22, Type (0, 0), BuildingBlock: XUDNAN_clean_linker_2, # of connection points: 2
#     Edge 23, Type (0, 0), BuildingBlock: XUDNAN_clean_linker_2, # of connection points: 2
#     Edge 24, Type (0, 0), BuildingBlock: XUDNAN_clean_linker_2, # of connection points: 2
#     Edge 25, Type (0, 0), BuildingBlock: XUDNAN_clean_linker_2, # of connection points: 2
#     Edge 26, Type (0, 0), BuildingBlock: XUDNAN_clean_linker_2, # of connection points: 2
#     Edge 27, Type (0, 0), BuildingBlock: XUDNAN_clean_linker_2, # of connection points: 2
#     Edge 28, Type (0, 0), BuildingBlock: XUDNAN_clean_linker_2, # of connection points: 2
#     Edge 29, Type (0, 0), BuildingBlock: XUDNAN_clean_linker_2, # of connection points: 2
#     Edge 30, Type (0, 0), BuildingBlock: XUDNAN_clean_linker_2, # of connection points: 2
#     Edge 31, Type (0, 0), BuildingBlock: XUDNAN_clean_linker_2, # of connection points: 2
#     Edge 32, Type (0, 0), BuildingBlock: XUDNAN_clean_linker_2, # of connection points: 2
#     Edge 33, Type (0, 0), BuildingBlock: XUDNAN_clean_linker_2, # of connection points: 2
#     Edge 34, Type (0, 0), BuildingBlock: XUDNAN_clean_linker_2, # of connection points: 2
#     Edge 35, Type (0, 0), BuildingBlock: XUDNAN_clean_linker_2, # of connection points: 2
#     Edge 36, Type (0, 0), BuildingBlock: XUDNAN_clean_linker_2, # of connection points: 2
#     Edge 37, Type (0, 0), BuildingBlock: XUDNAN_clean_linker_2, # of connection points: 2
#     Edge 38, Type (0, 0), BuildingBlock: XUDNAN_clean_linker_2, # of connection points: 2
#     Edge 39, Type (0, 0), BuildingBlock: XUDNAN_clean_linker_2, # of connection points: 2
#     Edge 40, Type (0, 0), BuildingBlock: XUDNAN_clean_linker_2, # of connection points: 2
#     Edge 41, Type (0, 0), BuildingBlock: XUDNAN_clean_linker_2, # of connection points: 2
#     Edge 42, Type (0, 0), BuildingBlock: XUDNAN_clean_linker_2, # of connection points: 2
#     Edge 43, Type (0, 0), BuildingBlock: XUDNAN_clean_linker_2, # of connection points: 2
#     Edge 44, Type (0, 0), BuildingBlock: XUDNAN_clean_linker_2, # of connection points: 2
#     Edge 45, Type (0, 0), BuildingBlock: XUDNAN_clean_linker_2, # of connection points: 2
#     Edge 46, Type (0, 0), BuildingBlock: XUDNAN_clean_linker_2, # of connection points: 2
#     Edge 47, Type (0, 0), BuildingBlock: XUDNAN_clean_linker_2, # of connection points: 2
#     Edge 48, Type (0, 0), BuildingBlock: XUDNAN_clean_linker_2, # of connection points: 2
#     Edge 49, Type (0, 0), BuildingBlock: XUDNAN_clean_linker_2, # of connection points: 2
#     Edge 50, Type (0, 0), BuildingBlock: XUDNAN_clean_linker_2, # of connection points: 2
#     Edge 51, Type (0, 0), BuildingBlock: XUDNAN_clean_linker_2, # of connection points: 2
#     Edge 52, Type (0, 0), BuildingBlock: XUDNAN_clean_linker_2, # of connection points: 2
#     Edge 53, Type (0, 0), BuildingBlock: XUDNAN_clean_linker_2, # of connection points: 2
#     Edge 54, Type (0, 0), BuildingBlock: XUDNAN_clean_linker_2, # of connection points: 2
#     Edge 55, Type (0, 0), BuildingBlock: XUDNAN_clean_linker_2, # of connection points: 2
#     Edge 56, Type (0, 0), BuildingBlock: XUDNAN_clean_linker_2, # of connection points: 2
#     Edge 57, Type (0, 0), BuildingBlock: XUDNAN_clean_linker_2, # of connection points: 2
#     Edge 58, Type (0, 0), BuildingBlock: XUDNAN_clean_linker_2, # of connection points: 2
#     Edge 59, Type (0, 0), BuildingBlock: XUDNAN_clean_linker_2, # of connection points: 2
#     Edge 60, Type (0, 0), BuildingBlock: XUDNAN_clean_linker_2, # of connection points: 2
#     Edge 61, Type (0, 0), BuildingBlock: XUDNAN_clean_linker_2, # of connection points: 2
#     Edge 62, Type (0, 0), BuildingBlock: XUDNAN_clean_linker_2, # of connection points: 2
#     Edge 63, Type (0, 0), BuildingBlock: XUDNAN_clean_linker_2, # of connection points: 2
# Relax obj value: 0.601
# Max RMSD: 0.319
# Mean RMSD: 0.319
data_MOF--net-whk--node1-PAMTOO_clean_sbu_0--edge1-XUDNAN_clean_linker_2
_symmetry_space_group_name_H-M    P1
_symmetry_Int_Tables_number       1
_symmetry_cell_setting            triclinic
loop_
_symmetry_equiv_pos_as_xyz
'x, y, z'
_cell_length_a     45.490185
_cell_length_b     45.711858
_cell_length_c     39.737855
_cell_angle_alpha  89.970707
_cell_angle_beta   90.143692
_cell_angle_gamma 90.18896
loop_
_atom_site_label
_atom_site_type_symbol
_atom_site_fract_x
_atom_site_fract_y
_atom_site_fract_z
_atom_type_partial_charge
Dy0 Dy 0.58558 0.23255 0.42309 0.0
Dy1 Dy 0.63403 0.26995 0.38132 0.0
C2 C 0.60451 0.2169 0.34962 0.0
O3 O 0.62762 0.21442 0.44367 0.0
O4 O 0.65652 0.22912 0.39927 0.0
O5 O 0.54545 0.21262 0.40793 0.0
O6 O 0.56058 0.20666 0.46028 0.0
O7 O 0.63582 0.28948 0.43243 0.0
O8 O 0.59712 0.26757 0.46105 0.0
O9 O 0.60026 0.30374 0.3882 0.0
O10 O 0.56254 0.27349 0.40513 0.0
O11 O 0.67836 0.28556 0.37385 0.0
O12 O 0.64579 0.29103 0.33451 0.0
C13 C 0.65271 0.21396 0.42717 0.0
O14 O 0.60405 0.20617 0.38001 0.0
O15 O 0.60499 0.24517 0.34654 0.0
C16 C 0.51317 0.18382 0.44254 0.0
C17 C 0.46441 0.14517 0.44522 0.0
C18 C 0.4663 0.16653 0.41993 0.0
C19 C 0.49036 0.18557 0.4186 0.0
C20 C 0.51063 0.16357 0.4689 0.0
C21 C 0.4865 0.14442 0.47022 0.0
C22 C 0.54049 0.20098 0.43736 0.0
C23 C 0.61869 0.28706 0.45899 0.0
C24 C 0.57265 0.29926 0.39571 0.0
C25 C 0.69194 0.27185 0.31979 0.0
C26 C 0.72745 0.22448 0.30172 0.0
C27 C 0.74031 0.25102 0.31203 0.0
C28 C 0.72259 0.27459 0.3212 0.0
C29 C 0.6794 0.24665 0.30526 0.0
C30 C 0.69704 0.22303 0.29649 0.0
C31 C 0.67377 0.29009 0.34183 0.0
H32 H 0.44995 0.16763 0.40011 0.0
H33 H 0.49158 0.20102 0.39796 0.0
H34 H 0.52785 0.1617 0.48765 0.0
H35 H 0.48551 0.12849 0.49037 0.0
H36 H 0.76378 0.25246 0.31654 0.0
H37 H 0.73267 0.29365 0.33268 0.0
H38 H 0.6558 0.24391 0.30389 0.0
H39 H 0.68666 0.20294 0.28838 0.0
Dy40 Dy 0.35297 0.579 0.43972 0.0
Dy41 Dy 0.31557 0.63153 0.40534 0.0
C42 C 0.36693 0.6027 0.36497 0.0
O43 O 0.36891 0.62079 0.46336 0.0
O44 O 0.36058 0.64895 0.41693 0.0
O45 O 0.35501 0.53341 0.45456 0.0
O46 O 0.39194 0.56209 0.46397 0.0
O47 O 0.31129 0.63635 0.4606 0.0
O48 O 0.31476 0.58826 0.47453 0.0
O49 O 0.28389 0.59455 0.41005 0.0
O50 O 0.31942 0.55992 0.40461 0.0
O51 O 0.28853 0.66989 0.41204 0.0
O52 O 0.30061 0.65615 0.36194 0.0
C53 C 0.37413 0.64455 0.44565 0.0
O54 O 0.3783 0.59268 0.39324 0.0
O55 O 0.33901 0.60948 0.36345 0.0
C56 C 0.40249 0.512 0.45234 0.0
C57 C 0.4411 0.46695 0.43156 0.0
C58 C 0.44935 0.4966 0.42889 0.0
C59 C 0.43028 0.51883 0.43903 0.0
C60 C 0.39428 0.48245 0.45532 0.0
C61 C 0.4133 0.46018 0.44497 0.0
C62 C 0.38232 0.5352 0.46427 0.0
C63 C 0.3044 0.61462 0.48041 0.0
C64 C 0.29147 0.56718 0.40569 0.0
C65 C 0.314 0.7037 0.37945 0.0
C66 C 0.36202 0.74059 0.39481 0.0
C67 C 0.33452 0.74489 0.41025 0.0
C68 C 0.31078 0.72654 0.40274 0.0
C69 C 0.34096 0.7007 0.36253 0.0
C70 C 0.3647 0.7187 0.37031 0.0
C71 C 0.29415 0.67825 0.38137 0.0
H72 H 0.47076 0.50272 0.4193 0.0
H73 H 0.43745 0.54135 0.43658 0.0
H74 H 0.37305 0.47657 0.46567 0.0
H75 H 0.40603 0.43767 0.44707 0.0
H76 H 0.33134 0.76223 0.42841 0.0
H77 H 0.29045 0.7291 0.41657 0.0
H78 H 0.34468 0.68281 0.34531 0.0
H79 H 0.38554 0.71453 0.35814 0.0
Dy80 Dy 0.99331 0.35787 0.42992 0.0
Dy81 Dy 0.9394 0.31522 0.40637 0.0
C82 C 0.95616 0.37033 0.36237 0.0
O83 O 0.95374 0.37915 0.45239 0.0
O84 O 0.91659 0.35636 0.42202 0.0
O85 O 1.02994 0.38156 0.41021 0.0
O86 O 1.02274 0.38112 0.46502 0.0
O87 O 0.94062 0.31227 0.46171 0.0
O88 O 0.98933 0.32284 0.47042 0.0
O89 O 0.97843 0.28619 0.41384 0.0
O90 O 1.01216 0.32074 0.4004 0.0
O91 O 0.9234 0.28552 0.36857 0.0
O92 O 0.89753 0.29372 0.4135 0.0
C93 C 0.92597 0.37664 0.44315 0.0
O94 O 0.96927 0.38186 0.38871 0.0
O95 O 0.95 0.34236 0.36143 0.0
C96 C 0.06389 0.41061 0.44235 0.0
C97 C 0.1166 0.44331 0.43998 0.0
C98 C 0.09419 0.44832 0.41632 0.0
C99 C 0.06818 0.43195 0.41735 0.0
C100 C 0.08548 0.40675 0.46718 0.0
C101 C 0.11173 0.42282 0.46586 0.0
C102 C 0.03884 0.39018 0.43979 0.0
C103 C 0.96441 0.31044 0.47997 0.0
C104 C 1.00537 0.29327 0.40582 0.0
C105 C 0.89756 0.24541 0.39215 0.0
C106 C 0.88203 0.186 0.38868 0.0
C107 C 0.90924 0.19552 0.37597 0.0
C108 C 0.9169 0.22512 0.3775 0.0
C109 C 0.8727 0.23517 0.40922 0.0
C110 C 0.86517 0.20564 0.40789 0.0
C111 C 0.90133 0.27713 0.38719 0.0
H112 H 0.09739 0.46378 0.39598 0.0
H113 H 0.05182 0.43525 0.39785 0.0
H114 H 0.08271 0.39029 0.48654 0.0
H115 H 0.12859 0.41868 0.48455 0.0
H116 H 0.92279 0.18084 0.36133 0.0
H117 H 0.93676 0.2323 0.36495 0.0
H118 H 0.85782 0.2503 0.42134 0.0
H119 H 0.84409 0.19919 0.41816 0.0
Dy120 Dy 0.22513 1.00745 0.43169 0.0
Dy121 Dy 0.26136 0.95472 0.39338 0.0
C122 C 0.2051 0.98 0.36104 0.0
O123 O 0.20243 0.96659 0.44956 0.0
O124 O 0.22226 0.93111 0.41421 0.0
O125 O 0.21132 0.05108 0.42079 0.0
O126 O 0.19983 1.03174 0.46925 0.0
O127 O 0.27569 0.95133 0.44651 0.0
O128 O 0.257 0.99287 0.47228 0.0
O129 O 0.29498 0.98672 0.40863 0.0
O130 O 0.26699 1.02759 0.41114 0.0
O131 O 0.28778 0.94687 0.34944 0.0
O132 O 0.27928 0.91172 0.38503 0.0
C133 C 0.20388 0.93948 0.43799 0.0
O134 O 0.19633 0.98889 0.39068 0.0
O135 O 0.23315 0.97699 0.35559 0.0
C136 C 0.17238 0.07421 0.4499 0.0
C137 C 0.13426 0.12265 0.44271 0.0
C138 C 0.13398 0.09997 0.41878 0.0
C139 C 0.15308 0.07601 0.4222 0.0
C140 C 0.17086 0.09567 0.47501 0.0
C141 C 0.15213 0.11967 0.47142 0.0
C142 C 0.19832 0.05476 0.4497 0.0
C143 C 0.27361 0.96911 0.4724 0.0
C144 C 0.29284 1.01495 0.41109 0.0
C145 C 0.32689 0.91583 0.36252 0.0
C146 C 0.38664 0.90209 0.37275 0.0
C147 C 0.37343 0.925 0.39083 0.0
C148 C 0.34371 0.9314 0.38614 0.0
C149 C 0.34044 0.89507 0.34221 0.0
C150 C 0.36992 0.88812 0.34728 0.0
C151 C 0.29519 0.92081 0.3597 0.0
H152 H 0.12055 0.10177 0.39633 0.0
H153 H 0.15409 0.05993 0.40223 0.0
H154 H 0.18574 0.095 0.49633 0.0
H155 H 0.15268 0.13672 0.49034 0.0
H156 H 0.38547 0.93677 0.41007 0.0
H157 H 0.33359 0.94769 0.40189 0.0
H158 H 0.32792 0.88332 0.32343 0.0
H159 H 0.37864 0.87019 0.33274 0.0
Dy160 Dy 0.07568 0.85262 0.11543 0.0
Dy161 Dy 0.11865 0.80779 0.15429 0.0
C162 C 0.1007 0.86587 0.18737 0.0
O163 O 0.11947 0.86722 0.09671 0.0
O164 O 0.14935 0.84274 0.13472 0.0
O165 O 0.04099 0.88067 0.13092 0.0
O166 O 0.05113 0.87725 0.07686 0.0
O167 O 0.12411 0.79514 0.10091 0.0
O168 O 0.08431 0.8181 0.07571 0.0
O169 O 0.08129 0.78073 0.13649 0.0
O170 O 0.04851 0.81753 0.13989 0.0
O171 O 0.15988 0.79124 0.17339 0.0
O172 O 0.11874 0.77024 0.18684 0.0
C173 C 0.14553 0.86172 0.1099 0.0
O174 O 0.09967 0.87627 0.15681 0.0
O175 O 0.09804 0.83773 0.19175 0.0
C176 C 1.01102 0.91046 0.09482 0.0
C177 C 0.95871 0.94363 0.09151 0.0
C178 C 0.97751 0.94593 0.11948 0.0
C179 C 1.00328 0.92945 0.12116 0.0
C180 C 0.99333 0.90951 0.06588 0.0
C181 C 0.96731 0.92585 0.0643 0.0
C182 C 1.03449 0.88866 0.10031 0.0
C183 C 0.10635 0.79919 0.07515 0.0
C184 C 0.05417 0.78956 0.13755 0.0
C185 C 0.15525 0.77201 0.22784 0.0
C186 C 0.1791 0.77769 0.29251 0.0
C187 C 0.15715 0.79708 0.28148 0.0
C188 C 0.14553 0.79444 0.24912 0.0
C189 C 0.17435 0.75066 0.2401 0.0
C190 C 0.18613 0.75337 0.27235 0.0
C191 C 0.1469 0.7718 0.19239 0.0
H192 H 0.97148 0.95917 0.14097 0.0
H193 H 1.01648 0.93057 0.14387 0.0
H194 H 0.99867 0.89488 0.04537 0.0
H195 H 0.95342 0.92387 0.04224 0.0
H196 H 0.15137 0.81601 0.29645 0.0
H197 H 0.13039 0.8109 0.24004 0.0
H198 H 0.18167 0.73302 0.224 0.0
H199 H 0.2032 0.73822 0.27984 0.0
Dy200 Dy 0.7164 0.07874 0.09934 0.0
Dy201 Dy 0.75705 0.12432 0.14224 0.0
C202 C 0.69691 0.10459 0.16949 0.0
O203 O 0.69985 0.12198 0.08045 0.0
O204 O 0.72096 0.15231 0.12066 0.0
O205 O 0.69153 0.04176 0.11438 0.0
O206 O 0.69274 0.05316 0.06042 0.0
O207 O 0.77519 0.12714 0.0899 0.0
O208 O 0.75141 0.08957 0.06111 0.0
O209 O 0.78767 0.08878 0.12787 0.0
O210 O 0.75237 0.05391 0.12523 0.0
O211 O 0.78636 0.12897 0.18488 0.0
O212 O 0.77238 0.16716 0.15667 0.0
C213 C 0.7032 0.14792 0.09472 0.0
O214 O 0.68917 0.10114 0.1381 0.0
O215 O 0.7248 0.10326 0.17716 0.0
C216 C 0.66138 1.01163 0.07951 0.0
C217 C 0.62945 0.95853 0.08268 0.0
C218 C 0.62398 0.98106 0.10586 0.0
C219 C 0.63986 1.00725 0.10437 0.0
C220 C 0.66543 0.99008 0.05488 0.0
C221 C 0.64968 0.96369 0.05652 0.0
C222 C 0.68324 0.03525 0.08386 0.0
C223 C 0.77138 0.11066 0.06295 0.0
C224 C 0.78016 0.06135 0.12565 0.0
C225 C 0.82216 0.16373 0.16905 0.0
C226 C 0.85874 0.18258 0.11764 0.0
C227 C 0.84881 0.20277 0.14171 0.0
C228 C 0.83006 0.19333 0.16729 0.0
C229 C 0.83857 0.14316 0.15076 0.0
C230 C 0.8569 0.15263 0.12491 0.0
C231 C 0.79166 0.15639 0.1777 0.0
H232 H 0.60876 0.97778 0.12646 0.0
H233 H 0.63652 1.02345 0.12388 0.0
H234 H 0.68215 0.9928 0.03576 0.0
H235 H 0.65411 0.94688 0.03803 0.0
H236 H 0.85047 0.22606 0.13691 0.0
H237 H 0.81807 0.20951 0.18166 0.0
H238 H 0.83359 0.12004 0.15239 0.0
H239 H 0.86486 0.13665 0.10705 0.0
Dy240 Dy 0.48865 0.72294 0.1044 0.0
Dy241 Dy 0.44126 0.76872 0.14032 0.0
C242 C 0.4617 0.70884 0.17847 0.0
O243 O 0.44435 0.70591 0.08976 0.0
O244 O 0.41102 0.73462 0.11919 0.0
O245 O 0.53087 0.71758 0.07974 0.0
O246 O 0.50246 0.68026 0.0876 0.0
O247 O 0.4365 0.78127 0.08754 0.0
O248 O 0.47387 0.75424 0.06278 0.0
O249 O 0.48176 0.79248 0.12491 0.0
O250 O 0.51461 0.75626 0.13311 0.0
O251 O 0.40218 0.79369 0.15055 0.0
O252 O 0.44224 0.80102 0.17959 0.0
C253 C 0.41742 0.71249 0.09922 0.0
O254 O 0.48013 0.70131 0.1545 0.0
O255 O 0.4469 0.73335 0.17792 0.0
C256 C 0.5537 0.67154 0.08881 0.0
C257 C 0.60019 0.63359 0.10738 0.0
C258 C 0.57872 0.642 0.131 0.0
C259 C 0.55573 0.66075 0.12181 0.0
C260 C 0.57554 0.66407 0.06551 0.0
C261 C 0.59856 0.64534 0.07466 0.0
C262 C 0.52826 0.68923 0.07778 0.0
C263 C 0.45273 0.77419 0.06169 0.0
C264 C 0.50878 0.78411 0.12975 0.0
C265 C 0.39774 0.80696 0.20753 0.0
C266 C 0.36432 0.80775 0.26666 0.0
C267 C 0.36924 0.78129 0.24956 0.0
C268 C 0.38596 0.78087 0.22025 0.0
C269 C 0.39412 0.83314 0.22526 0.0
C270 C 0.3775 0.83357 0.25468 0.0
C271 C 0.41435 0.80703 0.1762 0.0
H272 H 0.57951 0.6339 0.15659 0.0
H273 H 0.53924 0.66638 0.14033 0.0
H274 H 0.57439 0.67218 0.03992 0.0
H275 H 0.61446 0.63925 0.05571 0.0
H276 H 0.35884 0.76121 0.25775 0.0
H277 H 0.38901 0.76038 0.20702 0.0
H278 H 0.40365 0.85334 0.21596 0.0
H279 H 0.37421 0.85419 0.26754 0.0
Dy280 Dy 0.83918 0.49967 0.10494 0.0
Dy281 Dy 0.80357 0.44011 0.12698 0.0
C282 C 0.84772 0.46732 0.17839 0.0
O283 O 0.86395 0.46227 0.08074 0.0
O284 O 0.8501 0.42672 0.11832 0.0
O285 O 0.85262 0.54266 0.11973 0.0
O286 O 0.86492 0.52628 0.07003 0.0
O287 O 0.80758 0.44514 0.07159 0.0
O288 O 0.80204 0.49359 0.06781 0.0
O289 O 0.7703 0.47478 0.13688 0.0
O290 O 0.79564 0.51658 0.12216 0.0
O291 O 0.76424 0.41481 0.11769 0.0
O292 O 0.79965 0.39641 0.14738 0.0
C293 C 0.86731 0.43604 0.09414 0.0
O294 O 0.85938 0.48244 0.15333 0.0
O295 O 0.82167 0.45506 0.17576 0.0
C296 C 0.89052 0.56889 0.09168 0.0
C297 C 0.92682 0.61866 0.09832 0.0
C298 C 0.92681 0.59692 0.12338 0.0
C299 C 0.90858 0.57226 0.12021 0.0
C300 C 0.89232 0.58947 0.06562 0.0
C301 C 0.91019 0.61417 0.06894 0.0
C302 C 0.86564 0.5482 0.09118 0.0
C303 C 0.79599 0.46743 0.05633 0.0
C304 C 0.77165 0.50321 0.13233 0.0
C305 C 0.78102 0.36898 0.1026 0.0
C306 C 0.79127 0.32917 0.0501 0.0
C307 C 0.76903 0.32373 0.07415 0.0
C308 C 0.76366 0.34381 0.10003 0.0
C309 C 0.80267 0.37455 0.07839 0.0
C310 C 0.8072 0.35541 0.05195 0.0
C311 C 0.77654 0.39095 0.12879 0.0
H312 H 0.93938 0.59994 0.14632 0.0
H313 H 0.90733 0.55678 0.14081 0.0
H314 H 0.87836 0.58746 0.04359 0.0
H315 H 0.91002 0.63048 0.04914 0.0
H316 H 0.75669 0.30345 0.07398 0.0
H317 H 0.74665 0.33933 0.11837 0.0
H318 H 0.81656 0.3936 0.0801 0.0
H319 H 0.82405 0.3607 0.03371 0.0
Dy320 Dy 0.44574 0.81856 0.65326 0.0
Dy321 Dy 0.49326 0.8586 0.61324 0.0
C322 C 0.45966 0.8057 0.57576 0.0
O323 O 0.48218 0.7884 0.63953 0.0
O324 O 0.5168 0.82376 0.64232 0.0
O325 O 0.43957 0.78736 0.69346 0.0
O326 O 0.40232 0.80219 0.66366 0.0
O327 O 0.4722 0.8858 0.65345 0.0
O328 O 0.46558 0.8491 0.69077 0.0
O329 O 0.44991 0.87488 0.59384 0.0
O330 O 0.41967 0.85754 0.63625 0.0
O331 O 0.53085 0.88335 0.62731 0.0
O332 O 0.51881 0.88142 0.57365 0.0
C333 C 0.50978 0.79599 0.64111 0.0
O334 O 0.43971 0.80756 0.59945 0.0
O335 O 0.48435 0.82117 0.57691 0.0
C336 C 0.40336 0.75209 0.67953 0.0
C337 C 0.38389 0.69377 0.67172 0.0
C338 C 0.40344 0.70128 0.69782 0.0
C339 C 0.41295 0.7302 0.70177 0.0
C340 C 0.38483 0.7444 0.65265 0.0
C341 C 0.37517 0.71564 0.64886 0.0
C342 C 0.41219 0.78282 0.68503 0.0
C343 C 0.46703 0.87711 0.68429 0.0
C344 C 0.42424 0.8739 0.60936 0.0
C345 C 0.56153 0.91233 0.59141 0.0
C346 C 0.61447 0.94519 0.58787 0.0
C347 C 0.59589 0.94753 0.61593 0.0
C348 C 0.56984 0.93127 0.6177 0.0
C349 C 0.57911 0.91112 0.56251 0.0
C350 C 0.60537 0.92733 0.56078 0.0
C351 C 0.53696 0.89143 0.59667 0.0
H352 H 0.41045 0.68503 0.71596 0.0
H353 H 0.42723 0.7356 0.72275 0.0
H354 H 0.37697 0.76072 0.63505 0.0
H355 H 0.35939 0.71101 0.62911 0.0
H356 H 0.60218 0.96078 0.63738 0.0
H357 H 0.55673 0.93268 0.64037 0.0
H358 H 0.57332 0.89661 0.54197 0.0
H359 H 0.61895 0.9253 0.53857 0.0
Dy360 Dy 0.75632 0.44877 0.64113 0.0
Dy361 Dy 0.7241 0.5076 0.61206 0.0
C362 C 0.76879 0.47137 0.56755 0.0
O363 O 0.79354 0.48029 0.64052 0.0
O364 O 0.76708 0.52291 0.63438 0.0
O365 O 0.77617 0.40708 0.62988 0.0
O366 O 0.77001 0.42016 0.68168 0.0
O367 O 0.69777 0.49159 0.65661 0.0
O368 O 0.73544 0.47043 0.68508 0.0
O369 O 0.7019 0.4693 0.58665 0.0
O370 O 0.7098 0.43672 0.62937 0.0
O371 O 0.71354 0.55229 0.62258 0.0
O372 O 0.69923 0.53296 0.57518 0.0
C373 C 0.79204 0.50894 0.6393 0.0
O374 O 0.76026 0.44884 0.58535 0.0
O375 O 0.76091 0.49801 0.576 0.0
C376 C 0.75053 0.37483 0.664 0.0
C377 C 0.70082 0.33946 0.65291 0.0
C378 C 0.72777 0.33258 0.63765 0.0
C379 C 0.7525 0.35012 0.64323 0.0
C380 C 0.72374 0.38089 0.68019 0.0
C381 C 0.69918 0.36333 0.67478 0.0
C382 C 0.77246 0.39829 0.66075 0.0
C383 C 0.70816 0.47938 0.68414 0.0
C384 C 0.69608 0.44424 0.60169 0.0
C385 C 0.67388 0.57592 0.59509 0.0
C386 C 0.63568 0.62407 0.60244 0.0
C387 C 0.63663 0.60208 0.62719 0.0
C388 C 0.65578 0.57822 0.62366 0.0
C389 C 0.67106 0.59663 0.56929 0.0
C390 C 0.65226 0.62051 0.57296 0.0
C391 C 0.69955 0.55625 0.59425 0.0
H392 H 0.72965 0.31375 0.62125 0.0
H393 H 0.77263 0.34543 0.62976 0.0
H394 H 0.7211 0.40032 0.69536 0.0
H395 H 0.67861 0.36891 0.68679 0.0
H396 H 0.62418 0.60441 0.65023 0.0
H397 H 0.65774 0.56262 0.64406 0.0
H398 H 0.68495 0.59546 0.54722 0.0
H399 H 0.65183 0.63708 0.55345 0.0
Dy400 Dy 0.13176 0.76287 0.64303 0.0
Dy401 Dy 0.07426 0.73289 0.60527 0.0
C402 C 0.11327 0.78199 0.56705 0.0
O403 O 0.10187 0.8008 0.64184 0.0
O404 O 0.05951 0.77635 0.62646 0.0
O405 O 0.17664 0.77821 0.64352 0.0
O406 O 0.15263 0.77461 0.69021 0.0
O407 O 0.09124 0.70249 0.64529 0.0
O408 O 0.10485 0.73835 0.68035 0.0
O409 O 0.11217 0.71005 0.58062 0.0
O410 O 0.14746 0.72089 0.62073 0.0
O411 O 1.02861 0.7255 0.6159 0.0
O412 O 0.04728 0.70844 0.56958 0.0
C413 C 0.07359 0.80037 0.63554 0.0
O414 O 0.13333 0.78071 0.59091 0.0
O415 O 0.08808 0.76751 0.56823 0.0
C416 C 0.19875 0.75114 0.68651 0.0
C417 C 0.22475 0.69549 0.68727 0.0
C418 C 0.23601 0.71771 0.66651 0.0
C419 C 0.2233 0.74534 0.66631 0.0
C420 C 0.1895 0.72975 0.70987 0.0
C421 C 0.20263 0.70214 0.71038 0.0
C422 C 0.17849 0.77462 0.67603 0.0
C423 C 0.10014 0.71062 0.67516 0.0
C424 C 0.13866 0.70678 0.5937 0.0
C425 C 1.00367 0.68534 0.59217 0.0
C426 C 0.96278 0.63964 0.60496 0.0
C427 C 0.99316 0.63374 0.6019 0.0
C428 C 1.01345 0.65641 0.59576 0.0
C429 C 0.97352 0.69117 0.59465 0.0
C430 C 0.95338 0.66874 0.60109 0.0
C431 C 1.02384 0.71055 0.58848 0.0
H432 H 0.25423 0.71344 0.64972 0.0
H433 H 0.23112 0.76139 0.64833 0.0
H434 H 0.1708 0.73355 0.72607 0.0
H435 H 0.19474 0.68563 0.72763 0.0
H436 H 1.00134 0.61163 0.6043 0.0
H437 H 0.03667 0.65142 0.59428 0.0
H438 H 0.96553 0.7134 0.59243 0.0
H439 H 0.93048 0.67453 0.60401 0.0
Dy440 Dy 0.81514 0.12653 0.64169 0.0
Dy441 Dy 0.85829 0.08399 0.59796 0.0
C442 C 0.80468 0.11884 0.56123 0.0
O443 O 0.78663 0.09059 0.62307 0.0
O444 O 0.82278 0.05643 0.62199 0.0
O445 O 0.78491 0.12964 0.68328 0.0
O446 O 0.79789 0.16864 0.65565 0.0
O447 O 0.88202 0.0975 0.64558 0.0
O448 O 0.84138 0.10033 0.67793 0.0
O449 O 0.86821 0.1292 0.57984 0.0
O450 O 0.85539 0.15287 0.62854 0.0
O451 O 0.86534 0.04227 0.57324 0.0
O452 O 0.90147 0.07244 0.57978 0.0
C453 C 0.79467 0.06328 0.62129 0.0
O454 O 0.79827 0.13203 0.58966 0.0
O455 O 0.82627 0.09968 0.55824 0.0
C456 C 0.74752 0.16303 0.66961 0.0
C457 C 0.68762 0.17442 0.65686 0.0
C458 C 0.70962 0.18542 0.63538 0.0
C459 C 0.73913 0.17973 0.64158 0.0
C460 C 0.72561 0.15092 0.69029 0.0
C461 C 0.69589 0.15676 0.68418 0.0
C462 C 0.77882 0.15684 0.67622 0.0
C463 C 0.86992 0.09953 0.67539 0.0
C464 C 0.86956 0.15224 0.59962 0.0
C465 C 0.91272 1.0219 0.58126 0.0
C466 C 0.95134 0.97619 0.60047 0.0
C467 C 0.94143 0.99683 0.62423 0.0
C468 C 0.92232 1.01941 0.61473 0.0
C469 C 0.92209 1.00116 0.55762 0.0
C470 C 0.94117 0.97856 0.56708 0.0
C471 C 0.89359 0.04627 0.57038 0.0
H472 H 0.70423 0.2 0.61479 0.0
H473 H 0.75534 0.189 0.62469 0.0
H474 H 0.73153 0.13715 0.71132 0.0
H475 H 0.67949 0.14841 0.70144 0.0
H476 H 0.94833 0.99549 0.65028 0.0
H477 H 0.91522 0.03505 0.63348 0.0
H478 H 0.91494 1.00267 0.53165 0.0
H479 H 0.94849 0.96336 0.54799 0.0
Dy480 Dy 0.94753 0.25958 0.88366 0.0
Dy481 Dy 0.99234 0.22263 0.93304 0.0
C482 C 0.9589 0.28105 0.96078 0.0
O483 O 0.98467 0.28996 0.89326 0.0
O484 O 1.01802 0.25344 0.89988 0.0
O485 O 0.90486 0.27788 0.87339 0.0
O486 O 0.93883 0.27928 0.83515 0.0
O487 O 0.97773 0.19332 0.89056 0.0
O488 O 0.97248 0.22855 0.85127 0.0
O489 O 0.94783 0.21122 0.95342 0.0
O490 O 0.92237 0.22135 0.9047 0.0
O491 O 1.03441 0.22063 0.95894 0.0
O492 O 1.00735 0.18194 0.95475 0.0
C493 C 1.01192 0.28146 0.89663 0.0
O494 O 0.94509 0.28399 0.93183 0.0
O495 O 0.97739 0.25937 0.96707 0.0
C496 C 0.89145 0.26288 0.81982 0.0
C497 C 0.85182 0.21823 0.80288 0.0
C498 C 0.88197 0.21329 0.80043 0.0
C499 C 0.90171 0.23563 0.80842 0.0
C500 C 0.86123 0.26859 0.81927 0.0
C501 C 0.84147 0.24633 0.81078 0.0
C502 C 0.91066 0.2807 0.84138 0.0
C503 C 0.97349 0.20084 0.85907 0.0
C504 C 0.92402 0.20901 0.93464 0.0
C505 C 0.0592 0.1753 0.95233 0.0
C506 C 0.10954 0.14273 0.93295 0.0
C507 C 0.08249 0.13924 0.91599 0.0
C508 C 0.05772 0.1554 0.92541 0.0
C509 C 0.08604 0.17881 0.96941 0.0
C510 C 0.11092 0.16278 0.95984 0.0
C511 C 1.03308 0.19236 0.96296 0.0
H512 H 0.89014 0.19156 0.79528 0.0
H513 H 0.92489 0.23062 0.809 0.0
H514 H 0.85282 0.28919 0.82861 0.0
H515 H 0.8181 0.25028 0.81329 0.0
H516 H 0.08026 0.12374 0.89555 0.0
H517 H 0.03737 0.15221 0.91165 0.0
H518 H 0.0878 0.19408 0.99016 0.0
H519 H 0.13134 0.16649 0.97324 0.0
Dy520 Dy 0.30136 0.95766 0.89337 0.0
Dy521 Dy 0.34658 0.998 0.93778 0.0
C522 C 0.29151 0.96455 0.97186 0.0
O523 O 0.29491 1.00514 0.88198 0.0
O524 O 0.30451 1.02287 0.9336 0.0
O525 O 0.27326 0.92141 0.87874 0.0
O526 O 0.27758 0.95952 0.8466 0.0
O527 O 0.35995 0.99841 0.88273 0.0
O528 O 0.34526 0.95208 0.87144 0.0
O529 O 0.36306 0.9528 0.94842 0.0
O530 O 0.33006 0.92403 0.91836 0.0
O531 O 0.35481 0.03597 0.96907 0.0
O532 O 0.39124 1.01093 0.94991 0.0
C533 C 0.28925 1.02396 0.90581 0.0
O534 O 0.27871 0.96395 0.94215 0.0
O535 O 0.31927 0.97283 0.9757 0.0
C536 C 0.27881 0.91472 0.8199 0.0
C537 C 0.30483 0.89068 0.76194 0.0
C538 C 0.31782 0.88702 0.79386 0.0
C539 C 0.30514 0.8991 0.8224 0.0
C540 C 0.26517 0.91781 0.78833 0.0
C541 C 0.27798 0.90563 0.7595 0.0
C542 C 0.26912 0.93235 0.84863 0.0
C543 C 0.36294 0.97386 0.8658 0.0
C544 C 0.35322 0.92707 0.93826 0.0
C545 C 0.39858 0.06261 0.95523 0.0
C546 C 0.42825 0.11559 0.93829 0.0
C547 C 0.44112 0.08824 0.93158 0.0
C548 C 0.4265 0.06212 0.93997 0.0
C549 C 0.38592 0.08994 0.96232 0.0
C550 C 0.40049 0.11599 0.95395 0.0
C551 C 0.38323 0.03493 0.96498 0.0
H552 H 0.33772 0.87438 0.79696 0.0
H553 H 0.31641 0.89686 0.84633 0.0
H554 H 0.24514 0.93038 0.78585 0.0
H555 H 0.26718 0.90817 0.73536 0.0
H556 H 0.46232 0.08697 0.91935 0.0
H557 H 0.43713 0.04151 0.93445 0.0
H558 H 0.36471 0.09127 0.97455 0.0
H559 H 0.39005 0.13653 0.96018 0.0
Dy560 Dy 0.61971 0.31358 0.8891 0.0
Dy561 Dy 0.56871 0.35189 0.926 0.0
C562 C 0.60237 0.29906 0.96599 0.0
O563 O 0.58367 0.28146 0.89962 0.0
O564 O 0.54769 0.31542 0.89674 0.0
O565 O 0.6292 0.29152 0.84268 0.0
O566 O 0.66249 0.29433 0.88205 0.0
O567 O 0.58991 0.38054 0.88694 0.0
O568 O 0.59969 0.34351 0.85138 0.0
O569 O 0.60922 0.37409 0.94457 0.0
O570 O 0.64457 0.35171 0.91139 0.0
O571 O 0.52993 0.37374 0.91004 0.0
O572 O 0.54151 0.3742 0.96393 0.0
C573 C 0.55578 0.28798 0.89795 0.0
O574 O 0.62055 0.29594 0.94067 0.0
O575 O 0.58005 0.31774 0.96575 0.0
C576 C 0.66122 0.25204 0.84779 0.0
C577 C 0.67819 0.19378 0.83694 0.0
C578 C 0.68057 0.21477 0.8111 0.0
C579 C 0.67233 0.2436 0.81663 0.0
C580 C 0.65636 0.23095 0.87287 0.0
C581 C 0.6649 0.20192 0.8675 0.0
C582 C 0.65498 0.28301 0.85307 0.0
C583 C 0.59722 0.37146 0.85698 0.0
C584 C 0.63645 0.37139 0.93389 0.0
C585 C 0.49597 0.39942 0.9454 0.0
C586 C 0.44854 0.43914 0.94786 0.0
C587 C 0.45083 0.41902 0.92133 0.0
C588 C 0.47427 0.39943 0.92012 0.0
C589 C 0.49288 0.41828 0.97296 0.0
C590 C 0.46937 0.43801 0.97416 0.0
C591 C 0.52324 0.38255 0.94024 0.0
H592 H 0.69131 0.20972 0.78753 0.0
H593 H 0.67596 0.25972 0.7971 0.0
H594 H 0.64714 0.23715 0.89695 0.0
H595 H 0.66292 0.18633 0.88791 0.0
H596 H 0.43542 0.41941 0.90052 0.0
H597 H 0.47604 0.38509 0.89852 0.0
H598 H 0.50934 0.4188 0.9927 0.0
H599 H 0.468 0.45298 0.99521 0.0
Dy600 Dy 0.25133 0.63439 0.89252 0.0
Dy601 Dy 0.21452 0.5817 0.92726 0.0
C602 C 0.25871 0.62238 0.97031 0.0
O603 O 0.28591 0.60275 0.90565 0.0
O604 O 0.25741 0.56179 0.91012 0.0
O605 O 0.29186 0.65739 0.88182 0.0
O606 O 0.25095 0.66842 0.85492 0.0
O607 O 0.1912 0.5994 0.88164 0.0
O608 O 0.23341 0.604 0.85388 0.0
O609 O 0.19131 0.62143 0.94727 0.0
O610 O 0.20987 0.65563 0.90987 0.0
O611 O 0.20112 0.53834 0.91451 0.0
O612 O 0.18812 0.5563 0.96329 0.0
C613 C 0.28335 0.5745 0.90907 0.0
O614 O 0.25508 0.64287 0.94746 0.0
O615 O 0.24831 0.59557 0.96596 0.0
C616 C 0.29492 0.69521 0.83926 0.0
C617 C 0.3223 0.7298 0.79015 0.0
C618 C 0.33896 0.70989 0.8091 0.0
C619 C 0.32527 0.69255 0.83352 0.0
C620 C 0.27893 0.71677 0.82242 0.0
C621 C 0.29252 0.73408 0.79835 0.0
C622 C 0.2791 0.67306 0.85865 0.0
C623 C 0.20487 0.60206 0.85296 0.0
C624 C 0.19153 0.64795 0.93396 0.0
C625 C 0.16415 0.51137 0.9433 0.0
C626 C 0.13124 0.45887 0.93722 0.0
C627 C 0.12968 0.48052 0.91206 0.0
C628 C 0.1462 0.50645 0.91494 0.0
C629 C 0.164 0.49073 0.9694 0.0
C630 C 0.14783 0.46476 0.96638 0.0
C631 C 0.18783 0.53366 0.94307 0.0
H632 H 0.36203 0.7065 0.80373 0.0
H633 H 0.33799 0.6759 0.84632 0.0
H634 H 0.2556 0.71951 0.82685 0.0
H635 H 0.27937 0.75042 0.78559 0.0
H636 H 0.11721 0.47661 0.88924 0.0
H637 H 0.14625 0.52182 0.89418 0.0
H638 H 0.17798 0.49377 0.99124 0.0
H639 H 0.14922 0.44872 0.98639 0.0
H640 H 0.63494 0.16448 0.3454 0.0
H641 H 0.58851 0.22912 0.2857 0.0
H642 H 0.60317 0.20368 0.23385 0.0
H643 H 0.69757 0.15404 0.29093 0.0
H644 H 0.69877 0.1158 0.30033 0.0
H645 H 0.68291 0.14057 0.33038 0.0
H646 H 0.63665 0.10526 0.32657 0.0
H647 H 0.65329 0.0846 0.29303 0.0
H648 H 0.61799 0.10151 0.28671 0.0
H649 H 0.62546 0.17476 0.18867 0.0
H650 H 0.65634 0.14475 0.15179 0.0
H651 H 0.69144 0.09921 0.23885 0.0
C652 C 0.62722 0.17269 0.3214 0.0
C653 C 0.61019 0.1986 0.31954 0.0
C654 C 0.60125 0.20921 0.2877 0.0
C655 C 0.60946 0.19488 0.2581 0.0
C656 C 0.62666 0.16984 0.26059 0.0
C657 C 0.63551 0.15865 0.2913 0.0
C658 C 0.65523 0.13209 0.28621 0.0
C659 C 0.68536 0.13593 0.30309 0.0
C660 C 0.63986 0.10421 0.29888 0.0
C661 C 0.65796 0.13186 0.24808 0.0
C662 C 0.64031 0.15317 0.23396 0.0
C663 C 0.63918 0.15784 0.19939 0.0
C664 C 0.65686 0.14063 0.17863 0.0
C665 C 0.67622 0.11956 0.19242 0.0
C666 C 0.67668 0.11503 0.22766 0.0
H667 H 0.40824 0.70134 0.20686 0.0
H668 H 0.49761 0.66911 0.212 0.0
H669 H 0.48325 0.63647 0.25951 0.0
H670 H 0.39206 0.70207 0.29442 0.0
H671 H 0.35454 0.69064 0.2872 0.0
H672 H 0.37394 0.7105 0.25523 0.0
H673 H 0.36134 0.66836 0.21367 0.0
H674 H 0.34353 0.64803 0.24672 0.0
H675 H 0.37312 0.63168 0.22332 0.0
H676 H 0.45826 0.6096 0.30997 0.0
H677 H 0.4256 0.58965 0.35443 0.0
H678 H 0.35246 0.63768 0.31148 0.0
C679 C 0.42493 0.68751 0.218 0.0
C680 C 0.45421 0.68811 0.20609 0.0
C681 C 0.47511 0.66912 0.22085 0.0
C682 C 0.4671 0.65057 0.24785 0.0
C683 C 0.43796 0.65082 0.25919 0.0
C684 C 0.41719 0.66859 0.24421 0.0
C685 C 0.38722 0.66471 0.26008 0.0
C686 C 0.37634 0.69369 0.27521 0.0
C687 C 0.365 0.65246 0.23441 0.0
C688 C 0.39425 0.64241 0.28708 0.0
C689 C 0.4236 0.63462 0.28641 0.0
C690 C 0.43519 0.6153 0.31026 0.0
C691 C 0.41644 0.60397 0.33541 0.0
C692 C 0.38627 0.61164 0.33636 0.0
C693 C 0.37522 0.63085 0.3114 0.0
H694 H 0.91004 0.35958 0.31968 0.0
H695 H 0.97613 0.42492 0.34378 0.0
H696 H 0.95555 0.45748 0.29974 0.0
H697 H 0.90689 0.37177 0.22996 0.0
H698 H 0.86765 0.36654 0.22771 0.0
H699 H 0.88868 0.3482 0.2598 0.0
H700 H 0.85545 0.37098 0.30564 0.0
H701 H 0.83445 0.38956 0.2737 0.0
H702 H 0.85119 0.41014 0.3074 0.0
H703 H 0.92793 0.48233 0.25103 0.0
H704 H 0.89448 0.49799 0.20506 0.0
H705 H 0.84446 0.41774 0.21685 0.0
C706 C 0.92049 0.38058 0.31543 0.0
C707 C 0.94505 0.3895 0.33487 0.0
C708 C 0.95749 0.4175 0.32903 0.0
C709 C 0.94592 0.43614 0.30407 0.0
C710 C 0.92154 0.42671 0.28551 0.0
C711 C 0.90887 0.39963 0.29116 0.0
C712 C 0.88211 0.39502 0.26893 0.0
C713 C 0.88661 0.36884 0.24519 0.0
C714 C 0.85415 0.39121 0.2902 0.0
C715 C 0.88171 0.42366 0.24969 0.0
C716 C 0.90478 0.44158 0.25927 0.0
C717 C 0.90958 0.46859 0.24371 0.0
C718 C 0.89044 0.47737 0.21768 0.0
C719 C 0.86642 0.45949 0.20783 0.0
C720 C 0.86207 0.43237 0.22436 0.0
H721 H 0.21551 0.95863 0.29708 0.0
H722 H 0.14617 0.97057 0.37063 0.0
H723 H 0.11179 0.94346 0.33392 0.0
H724 H 0.1694 0.96653 0.22229 0.0
H725 H 0.18876 0.9388 0.19902 0.0
H726 H 0.20779 0.95991 0.23061 0.0
H727 H 0.2233 0.91203 0.26077 0.0
H728 H 0.20428 0.89096 0.22918 0.0
H729 H 0.19538 0.88602 0.27297 0.0
H730 H 0.08585 0.91118 0.29127 0.0
H731 H 0.06936 0.88049 0.24321 0.0
H732 H 0.15414 0.89219 0.19567 0.0
C733 C 0.19295 0.95607 0.30522 0.0
C734 C 0.18357 0.96714 0.33675 0.0
C735 C 0.15391 0.96277 0.34651 0.0
C736 C 0.1342 0.94718 0.32588 0.0
C737 C 0.14427 0.93622 0.29528 0.0
C738 C 0.17286 0.94079 0.28475 0.0
C739 C 0.17816 0.92642 0.25083 0.0
C740 C 0.18651 0.94929 0.2241 0.0
C741 C 0.20168 0.90245 0.25363 0.0
C742 C 0.14808 0.91325 0.24386 0.0
C743 C 0.12896 0.91875 0.27008 0.0
C744 C 0.10049 0.90719 0.27036 0.0
C745 C 0.09129 0.88978 0.24308 0.0
C746 C 0.11028 0.88459 0.21566 0.0
C747 C 0.139 0.89649 0.21608 0.0
H748 H 0.39648 0.92583 0.85839 0.0
H749 H 0.3783 1.01017 0.81334 0.0
H750 H 0.40747 0.99595 0.76317 0.0
H751 H 0.47325 0.91885 0.82236 0.0
H752 H 0.469 0.87984 0.8178 0.0
H753 H 0.45084 0.89867 0.85171 0.0
H754 H 0.40142 0.87681 0.83226 0.0
H755 H 0.41882 0.85859 0.79753 0.0
H756 H 0.38887 0.88333 0.79002 0.0
H757 H 0.43314 0.96968 0.71528 0.0
H758 H 0.45469 0.9351 0.6747 0.0
H759 H 0.45584 0.86765 0.7516 0.0
C760 C 0.39953 0.94169 0.8384 0.0
C761 C 0.38557 0.96927 0.83976 0.0
C762 C 0.38944 0.98927 0.81303 0.0
C763 C 0.40578 0.98123 0.78441 0.0
C764 C 0.41847 0.95338 0.78339 0.0
C765 C 0.41603 0.93416 0.81008 0.0
C766 C 0.43043 0.90503 0.80229 0.0
C767 C 0.45749 0.90034 0.82488 0.0
C768 C 0.40859 0.87944 0.80572 0.0
C769 C 0.43946 0.91004 0.76607 0.0
C770 C 0.43306 0.93828 0.75591 0.0
C771 C 0.43866 0.94772 0.72319 0.0
C772 C 0.45098 0.92785 0.70029 0.0
C773 C 0.45727 0.89865 0.70995 0.0
C774 C 0.4516 0.88985 0.74346 0.0
H775 H 0.65273 0.37445 0.83235 0.0
H776 H 0.56737 0.41559 0.82514 0.0
H777 H 0.5867 0.44937 0.7813 0.0
H778 H 0.69486 0.44247 0.8232 0.0
H779 H 0.72398 0.42498 0.80012 0.0
H780 H 0.70313 0.40447 0.83063 0.0
H781 H 0.69005 0.36602 0.78526 0.0
H782 H 0.71089 0.38627 0.7547 0.0
H783 H 0.67275 0.3776 0.74673 0.0
H784 H 0.61528 0.47635 0.73518 0.0
H785 H 0.65077 0.49624 0.69389 0.0
H786 H 0.71862 0.44026 0.73552 0.0
C787 C 0.63817 0.39064 0.82147 0.0
C788 C 0.60849 0.39232 0.83161 0.0
C789 C 0.59013 0.41398 0.81744 0.0
C790 C 0.60096 0.43318 0.79259 0.0
C791 C 0.6304 0.43089 0.78292 0.0
C792 C 0.64885 0.41045 0.79742 0.0
C793 C 0.67972 0.4128 0.78334 0.0
C794 C 0.70171 0.42171 0.81097 0.0
C795 C 0.68888 0.38398 0.76646 0.0
C796 C 0.67566 0.4372 0.75783 0.0
C797 C 0.64706 0.44733 0.75789 0.0
C798 C 0.63782 0.46888 0.73533 0.0
C799 C 0.6582 0.48014 0.712 0.0
C800 C 0.68767 0.47017 0.71153 0.0
C801 C 0.69642 0.44872 0.73529 0.0
H802 H 0.10857 0.71436 0.74402 0.0
H803 H 0.12391 0.65807 0.65801 0.0
H804 H 0.15176 0.62404 0.69408 0.0
H805 H 0.17858 0.70415 0.78435 0.0
H806 H 0.16358 0.704 0.82621 0.0
H807 H 0.14514 0.72374 0.79312 0.0
H808 H 0.09743 0.69432 0.80619 0.0
H809 H 0.11648 0.67439 0.83869 0.0
H810 H 0.09833 0.6549 0.80508 0.0
H811 H 0.1822 0.59848 0.73829 0.0
H812 H 0.20735 0.5798 0.78943 0.0
H813 H 0.16849 0.64942 0.84815 0.0
C814 C 0.11732 0.69458 0.73298 0.0
C815 C 0.11366 0.68874 0.69821 0.0
C816 C 0.12585 0.6628 0.68463 0.0
C817 C 0.14192 0.64339 0.7049 0.0
C818 C 0.14523 0.64979 0.73898 0.0
C819 C 0.13291 0.67453 0.7531 0.0
C820 C 0.1397 0.6761 0.79054 0.0
C821 C 0.15782 0.70363 0.79901 0.0
C822 C 0.11129 0.67484 0.81135 0.0
C823 C 0.15785 0.64852 0.79513 0.0
C824 C 0.16128 0.63399 0.76491 0.0
C825 C 0.17902 0.60922 0.76226 0.0
C826 C 0.19322 0.59875 0.79134 0.0
C827 C 0.18903 0.61257 0.82274 0.0
C828 C 0.17119 0.63784 0.82458 0.0
H829 H 0.91413 0.14042 0.68088 0.0
H830 H 0.86359 0.07747 0.73844 0.0
H831 H 0.88834 0.09398 0.79061 0.0
H832 H 0.98279 0.13814 0.73197 0.0
H833 H 0.98869 0.17705 0.72853 0.0
H834 H 0.97019 0.15754 0.69519 0.0
H835 H 0.92765 0.19335 0.69971 0.0
H836 H 0.94354 0.2124 0.73504 0.0
H837 H 0.90734 0.19646 0.73817 0.0
H838 H 0.9172 0.1178 0.83652 0.0
H839 H 0.94419 0.15077 0.8746 0.0
H840 H 0.97367 0.20193 0.78897 0.0
C841 C 0.90911 0.12948 0.70437 0.0
C842 C 0.88772 0.10687 0.70557 0.0
C843 C 0.88045 0.09421 0.73694 0.0
C844 C 0.89437 0.1035 0.76666 0.0
C845 C 0.9152 0.12592 0.76477 0.0
C846 C 0.92239 0.139 0.73451 0.0
C847 C 0.94335 0.16462 0.74011 0.0
C848 C 0.97302 0.15899 0.72293 0.0
C849 C 0.92967 0.19341 0.72759 0.0
C850 C 0.94653 0.16402 0.77829 0.0
C851 C 0.93058 0.14105 0.79176 0.0
C852 C 0.92992 0.13574 0.82627 0.0
C853 C 0.94558 0.15453 0.84774 0.0
C854 C 0.96139 0.17886 0.83492 0.0
C855 C 0.96206 0.18339 0.79957 0.0
H856 H 0.40537 0.15124 0.42845 0.0
H857 H 0.47081 0.08679 0.45717 0.0
H858 H 0.43369 0.04785 0.45195 0.0
H859 H 0.34371 0.11706 0.47147 0.0
H860 H 0.31742 0.12556 0.43891 0.0
H861 H 0.3488 0.14905 0.44553 0.0
H862 H 0.36366 0.1428 0.3831 0.0
H863 H 0.33233 0.11931 0.37628 0.0
H864 H 0.36872 0.10654 0.36631 0.0
H865 H 0.39125 1.01591 0.44258 0.0
H866 H 0.34466 0.99159 0.43086 0.0
H867 H 0.30434 0.07528 0.40727 0.0
C868 C 0.41185 0.12894 0.43372 0.0
C869 C 0.44107 0.1222 0.44369 0.0
C870 C 0.44855 0.0927 0.45035 0.0
C871 C 0.42765 0.07035 0.44714 0.0
C872 C 0.39925 0.07771 0.43724 0.0
C873 C 0.39113 0.1062 0.43071 0.0
C874 C 0.35891 0.10772 0.42029 0.0
C875 C 0.34116 0.12593 0.44556 0.0
C876 C 0.35573 0.11981 0.38436 0.0
C877 C 0.35034 0.07556 0.42188 0.0
C878 C 0.37418 0.05886 0.43166 0.0
C879 C 0.37244 1.02871 0.4348 0.0
C880 C 0.34568 1.01506 0.42776 0.0
C881 C 0.32063 1.03134 0.41756 0.0
C882 C 0.323 0.06217 0.41483 0.0
H883 H 0.45104 0.41243 0.46004 0.0
H884 H 0.47695 0.4679 0.37628 0.0
H885 H 0.51177 0.43026 0.3576 0.0
H886 H 0.52195 0.38279 0.47738 0.0
H887 H 0.50877 0.34649 0.48685 0.0
H888 H 0.48539 0.37761 0.49381 0.0
H889 H 0.44527 0.35431 0.45593 0.0
H890 H 0.46857 0.32311 0.44886 0.0
H891 H 0.45436 0.34352 0.41359 0.0
H892 H 0.54531 0.38843 0.34917 0.0
H893 H 0.5751 0.3435 0.35053 0.0
H894 H 0.52615 0.31284 0.43731 0.0
C895 C 0.46372 0.41653 0.4375 0.0
C896 C 0.46132 0.44341 0.41985 0.0
C897 C 0.47871 0.44789 0.39073 0.0
C898 C 0.49842 0.42651 0.37969 0.0
C899 C 0.50037 0.40049 0.39775 0.0
C900 C 0.48343 0.39524 0.42591 0.0
C901 C 0.49023 0.36536 0.44079 0.0
C902 C 0.50231 0.36825 0.47684 0.0
C903 C 0.46298 0.34539 0.43971 0.0
C904 C 0.51377 0.35483 0.41665 0.0
C905 C 0.51925 0.37559 0.39213 0.0
C906 C 0.54099 0.37182 0.36795 0.0
C907 C 0.5578 0.34626 0.36894 0.0
C908 C 0.55263 0.32458 0.39367 0.0
C909 C 0.53007 0.32878 0.41763 0.0
H910 H 0.12913 0.50162 0.42892 0.0
H911 H 0.16997 0.4166 0.44089 0.0
H912 H 0.21872 0.43881 0.43083 0.0
H913 H 0.17637 0.52875 0.36333 0.0
H914 H 0.17794 0.56554 0.37956 0.0
H915 H 0.14606 0.54307 0.38731 0.0
H916 H 0.15219 0.55107 0.45151 0.0
H917 H 0.18397 0.5737 0.44391 0.0
H918 H 0.18677 0.54245 0.47138 0.0
H919 H 0.26273 0.46966 0.41805 0.0
H920 H 0.30003 0.50802 0.40875 0.0
H921 H 0.23125 0.57371 0.40695 0.0
C922 C 0.14838 0.48775 0.42944 0.0
C923 C 0.14583 0.45739 0.43579 0.0
C924 C 0.17149 0.43995 0.4365 0.0
C925 C 0.19923 0.45232 0.43054 0.0
C926 C 0.20101 0.48224 0.42417 0.0
C927 C 0.17637 0.49985 0.42401 0.0
C928 C 0.18463 0.53156 0.41764 0.0
C929 C 0.1704 0.54289 0.38502 0.0
C930 C 0.1764 0.55082 0.44791 0.0
C931 C 0.21771 0.52893 0.414 0.0
C932 C 0.22662 0.50023 0.41757 0.0
C933 C 0.25606 0.49223 0.41522 0.0
C934 C 0.27709 0.51421 0.40972 0.0
C935 C 0.26866 0.54392 0.40688 0.0
C936 C 0.23846 0.55121 0.40874 0.0
H937 H 0.07565 0.13268 0.42683 0.0
H938 H 0.15908 0.17662 0.44342 0.0
H939 H 0.13558 0.2243 0.4328 0.0
H940 H 0.04883 0.18144 0.36064 0.0
H941 H 1.01134 0.18091 0.37519 0.0
H942 H 1.03473 0.14977 0.3824 0.0
H943 H 1.02487 0.15286 0.44673 0.0
H944 H 1.00083 0.18324 0.43863 0.0
H945 H 1.03078 0.18716 0.46817 0.0
H946 H 0.10369 0.26712 0.42019 0.0
H947 H 0.06436 0.30319 0.41116 0.0
H948 H 1.00011 0.23284 0.40582 0.0
C949 C 0.08889 0.15238 0.42802 0.0
C950 C 0.11921 0.15097 0.43602 0.0
C951 C 0.1358 0.17722 0.43763 0.0
C952 C 0.12269 0.20439 0.43144 0.0
C953 C 0.0928 0.20514 0.42386 0.0
C954 C 0.07596 0.17993 0.42241 0.0
C955 C 0.04398 0.18726 0.41511 0.0
C956 C 1.03415 0.17405 0.38132 0.0
C957 C 1.02396 0.17703 0.44393 0.0
C958 C 0.0455 0.22047 0.41318 0.0
C959 C 0.07402 0.23018 0.4177 0.0
C960 C 0.08125 0.2598 0.41663 0.0
C961 C 0.05871 0.28015 0.4113 0.0
C962 C 1.02909 0.27096 0.40759 0.0
C963 C 1.02252 0.24061 0.40841 0.0
H964 H 0.94419 0.99927 0.11268 0.0
H965 H 0.90626 0.91906 0.07315 0.0
H966 H 0.85663 0.94015 0.07849 0.0
H967 H 0.88829 1.01372 0.17364 0.0
H968 H 0.88868 0.05279 0.1675 0.0
H969 H 0.92144 1.0318 0.15991 0.0
H970 H 0.92423 0.05256 0.09924 0.0
H971 H 0.89158 0.07371 0.10682 0.0
H972 H 0.89291 0.04888 0.07166 0.0
H973 H 0.81097 0.96887 0.09067 0.0
H974 H 0.77254 1.00496 0.10421 0.0
H975 H 0.83993 0.06713 0.13453 0.0
C976 C 0.92544 0.98622 0.10499 0.0
C977 C 0.92916 0.95754 0.09228 0.0
C978 C 0.90404 0.94122 0.0824 0.0
C979 C 0.87573 0.95292 0.08562 0.0
C980 C 0.87282 0.98107 0.0986 0.0
C981 C 0.89698 0.99768 0.10776 0.0
C982 C 0.88769 1.02747 0.12074 0.0
C983 C 0.89709 1.03167 0.15764 0.0
C984 C 0.89982 0.0521 0.09826 0.0
C985 C 0.85456 1.02489 0.11759 0.0
C986 C 0.84645 0.99786 0.10504 0.0
C987 C 0.81705 0.99015 0.10043 0.0
C988 C 0.79536 1.01074 0.10843 0.0
C989 C 0.80315 0.03884 0.12064 0.0
C990 C 0.83321 0.04584 0.12536 0.0
H991 H 0.50311 0.84362 0.12968 0.0
H992 H 0.56786 0.77467 0.11945 0.0
H993 H 0.60576 0.81186 0.10594 0.0
H994 H 0.52775 0.88771 0.06213 0.0
H995 H 0.52082 0.92195 0.08308 0.0
H996 H 0.49925 0.89011 0.09343 0.0
H997 H 0.5136 0.89575 0.15624 0.0
H998 H 0.53509 0.92772 0.14612 0.0
H999 H 0.55189 0.89746 0.16791 0.0
H1000 H 0.6358 0.85658 0.0903 0.0
H1001 H 0.65673 0.90541 0.07836 0.0
H1002 H 0.57217 0.94499 0.09936 0.0
C1003 C 0.52534 0.83627 0.12504 0.0
C1004 C 0.53254 0.80615 0.12577 0.0
C1005 C 0.56188 0.79758 0.1194 0.0
C1006 C 0.58349 0.81855 0.11149 0.0
C1007 C 0.57544 0.84799 0.1103 0.0
C1008 C 0.54712 0.85686 0.1173 0.0
C1009 C 0.544 0.88977 0.11414 0.0
C1010 C 0.52164 0.89784 0.08655 0.0
C1011 C 0.53566 0.90348 0.14813 0.0
C1012 C 0.57499 0.89809 0.10396 0.0
C1013 C 0.59274 0.87367 0.10171 0.0
C1014 C 0.62211 0.87583 0.0921 0.0
C1015 C 0.63372 0.90365 0.08504 0.0
C1016 C 0.61608 0.92906 0.08772 0.0
C1017 C 0.58628 0.92605 0.09723 0.0
H1018 H 0.65881 0.63217 0.08819 0.0
H1019 H 0.59365 0.5845 0.14636 0.0
H1020 H 0.63082 0.54751 0.16085 0.0
H1021 H 0.69444 0.56823 0.05409 0.0
H1022 H 0.73078 0.58399 0.05584 0.0
H1023 H 0.69924 0.60728 0.05066 0.0
H1024 H 0.71502 0.63702 0.10319 0.0
H1025 H 0.74653 0.6137 0.1086 0.0
H1026 H 0.72083 0.61834 0.14262 0.0
H1027 H 0.67437 0.51457 0.16765 0.0
H1028 H 0.7216 0.48812 0.16642 0.0
H1029 H 0.75896 0.55681 0.10416 0.0
C1030 C 0.6523 0.61394 0.10392 0.0
C1031 C 0.62319 0.61157 0.1164 0.0
C1032 C 0.61582 0.58732 0.13705 0.0
C1033 C 0.63677 0.566 0.14525 0.0
C1034 C 0.66515 0.56906 0.13265 0.0
C1035 C 0.67299 0.59237 0.11239 0.0
C1036 C 0.70497 0.59013 0.10178 0.0
C1037 C 0.70749 0.58723 0.06331 0.0
C1038 C 0.72289 0.61636 0.11484 0.0
C1039 C 0.71384 0.56199 0.11939 0.0
C1040 C 0.69047 0.55016 0.13691 0.0
C1041 C 0.69291 0.52374 0.15424 0.0
C1042 C 0.71986 0.50888 0.15345 0.0
C1043 C 0.74419 0.52051 0.13567 0.0
C1044 C 0.74104 0.54759 0.11864 0.0
H1045 H 0.05828 0.72974 0.14 0.0
H1046 H 0.9959 0.80036 0.12537 0.0
H1047 H 0.95665 0.76409 0.11437 0.0
H1048 H 1.03076 0.68283 0.0758 0.0
H1049 H 1.03654 0.64955 0.09922 0.0
H1050 H 0.0596 0.68095 0.10691 0.0
H1051 H 0.04602 0.67945 0.17013 0.0
H1052 H 1.02296 0.64798 0.16274 0.0
H1053 H 1.00789 0.68015 0.18234 0.0
H1054 H 0.92498 0.72054 0.10206 0.0
H1055 H 0.90189 0.67228 0.09259 0.0
H1056 H 0.98422 0.62961 0.11717 0.0
C1057 C 1.0363 0.73762 0.13483 0.0
C1058 C 1.03011 0.76794 0.13371 0.0
C1059 C 1.0011 0.77728 0.12668 0.0
C1060 C 0.9787 0.75685 0.12025 0.0
C1061 C 0.98563 0.72717 0.12124 0.0
C1062 C 1.01364 0.71753 0.12865 0.0
C1063 C 1.01526 0.68439 0.12803 0.0
C1064 C 0.03681 0.67382 0.10087 0.0
C1065 C 1.02351 0.67228 0.16289 0.0
C1066 C 0.98376 0.67688 0.11887 0.0
C1067 C 0.96714 0.70193 0.11486 0.0
C1068 C 0.9377 0.70078 0.10533 0.0
C1069 C 0.92485 0.67331 0.09984 0.0
C1070 C 0.94132 0.64731 0.10409 0.0
C1071 C 0.97112 0.64916 0.11397 0.0
H1072 H 0.73518 0.06814 0.63225 0.0
H1073 H 0.80157 1.00759 0.59686 0.0
H1074 H 0.76255 0.97178 0.58276 0.0
H1075 H 0.68808 1.01337 0.67044 0.0
H1076 H 0.6545 1.03164 0.65884 0.0
H1077 H 0.68752 0.05261 0.66592 0.0
H1078 H 0.68272 0.07543 0.60654 0.0
H1079 H 0.64971 0.05448 0.59924 0.0
H1080 H 0.68005 0.05182 0.57032 0.0
H1081 H 0.71626 0.94311 0.5709 0.0
H1082 H 0.66654 0.92176 0.56666 0.0
H1083 H 0.62995 1.00041 0.6109 0.0
C1084 C 0.74158 0.04724 0.62179 0.0
C1085 C 0.77158 0.04061 0.61584 0.0
C1086 C 0.77888 1.01305 0.60205 0.0
C1087 C 0.75682 0.99266 0.59372 0.0
C1088 C 0.72752 1.0 0.59959 0.0
C1089 C 0.71986 1.0265 0.61369 0.0
C1090 C 0.68675 1.0287 0.61813 0.0
C1091 C 0.67875 1.03175 0.65555 0.0
C1092 C 0.67408 0.05411 0.59731 0.0
C1093 C 0.67699 0.99929 0.60419 0.0
C1094 C 0.70085 0.98322 0.59337 0.0
C1095 C 0.69743 0.95549 0.57932 0.0
C1096 C 0.669 0.94363 0.57674 0.0
C1097 C 0.64416 0.95935 0.58826 0.0
C1098 C 0.6484 0.98769 0.602 0.0
H1099 H 0.57751 0.63467 0.61925 0.0
H1100 H 0.66106 0.67757 0.60045 0.0
H1101 H 0.63828 0.7256 0.61077 0.0
H1102 H 0.53327 0.6893 0.57755 0.0
H1103 H 0.50318 0.68697 0.60686 0.0
H1104 H 0.52614 0.65557 0.59965 0.0
H1105 H 0.5373 0.65233 0.66349 0.0
H1106 H 0.51436 0.68374 0.67086 0.0
H1107 H 0.55203 0.68384 0.68507 0.0
H1108 H 0.60722 0.76876 0.62296 0.0
H1109 H 0.56862 0.80536 0.63282 0.0
H1110 H 0.50383 0.73574 0.64155 0.0
C1111 C 0.59091 0.65423 0.61753 0.0
C1112 C 0.62104 0.65249 0.60901 0.0
C1113 C 0.6379 0.6785 0.60668 0.0
C1114 C 0.62521 0.70585 0.61266 0.0
C1115 C 0.59548 0.70695 0.62075 0.0
C1116 C 0.57839 0.68195 0.62293 0.0
C1117 C 0.54663 0.6897 0.63063 0.0
C1118 C 0.5261 0.6798 0.60196 0.0
C1119 C 0.53702 0.67662 0.66453 0.0
C1120 C 0.54871 0.72286 0.63246 0.0
C1121 C 0.57719 0.73221 0.62697 0.0
C1122 C 0.58481 0.76175 0.62734 0.0
C1123 C 0.56269 0.7824 0.63311 0.0
C1124 C 0.53317 0.77354 0.63817 0.0
C1125 C 0.5262 0.74327 0.63798 0.0
H1126 H 0.90479 0.63445 0.58401 0.0
H1127 H 0.97079 0.59127 0.64555 0.0
H1128 H 0.93442 0.55358 0.66109 0.0
H1129 H 0.84485 0.62347 0.64148 0.0
H1130 H 0.81798 0.61771 0.60872 0.0
H1131 H 0.8496 0.64053 0.60093 0.0
H1132 H 0.86319 0.60858 0.54945 0.0
H1133 H 0.83156 0.58574 0.55706 0.0
H1134 H 0.86762 0.56967 0.55477 0.0
H1135 H 0.89077 0.52012 0.66977 0.0
H1136 H 0.84301 0.49415 0.67158 0.0
H1137 H 0.8045 0.56115 0.60813 0.0
C1138 C 0.91171 0.61728 0.60098 0.0
C1139 C 0.94099 0.61603 0.61334 0.0
C1140 C 0.94887 0.59264 0.63504 0.0
C1141 C 0.92822 0.57118 0.64432 0.0
C1142 C 0.89959 0.57339 0.63201 0.0
C1143 C 0.89129 0.59589 0.61087 0.0
C1144 C 0.85897 0.59353 0.6016 0.0
C1145 C 0.84185 0.62041 0.61393 0.0
C1146 C 0.85512 0.58911 0.56346 0.0
C1147 C 0.85033 0.56625 0.621 0.0
C1148 C 0.87416 0.55482 0.63812 0.0
C1149 C 0.87191 0.52904 0.65673 0.0
C1150 C 0.84468 0.51447 0.65768 0.0
C1151 C 0.8199 0.52589 0.64058 0.0
C1152 C 0.82284 0.55227 0.6222 0.0
H1153 H 0.95306 0.91846 0.57929 0.0
H1154 H 0.99835 0.9808 0.6437 0.0
H1155 H 1.03334 0.94242 0.66063 0.0
H1156 H 0.96034 0.85601 0.63277 0.0
H1157 H 0.96684 0.8306 0.59894 0.0
H1158 H 0.94529 0.86296 0.59152 0.0
H1159 H 0.98017 0.87806 0.543 0.0
H1160 H 1.00165 0.84559 0.55013 0.0
H1161 H 1.01909 0.88103 0.55099 0.0
H1162 H 0.06405 0.89757 0.67006 0.0
H1163 H 0.08825 0.84932 0.67134 0.0
H1164 H 1.02317 0.8156 0.60123 0.0
C1165 C 0.97044 0.92416 0.59677 0.0
C1166 C 0.97265 0.95278 0.61034 0.0
C1167 C 0.99569 0.95903 0.6334 0.0
C1168 C 1.01586 0.93739 0.64301 0.0
C1169 C 1.01289 0.90946 0.62936 0.0
C1170 C 0.99084 0.90278 0.60665 0.0
C1171 C 0.99266 0.871 0.59568 0.0
C1172 C 0.96461 0.85415 0.60532 0.0
C1173 C 0.99876 0.8688 0.5577 0.0
C1174 C 1.01891 0.86078 0.61616 0.0
C1175 C 1.03038 0.88342 0.63519 0.0
C1176 C 0.05515 0.87964 0.65542 0.0
C1177 C 0.06873 0.85212 0.65603 0.0
C1178 C 0.05739 0.82851 0.63682 0.0
C1179 C 1.032 0.83299 0.6168 0.0
H1180 H 0.15407 0.11964 0.97279 0.0
H1181 H 0.12582 0.12756 0.86866 0.0
H1182 H 0.16874 0.09892 0.85072 0.0
H1183 H 0.23214 0.12738 0.95611 0.0
H1184 H 0.24281 0.10132 0.9879 0.0
H1185 H 0.20956 0.12218 0.99287 0.0
H1186 H 0.17973 0.07417 0.99952 0.0
H1187 H 0.21288 0.05319 0.99456 0.0
H1188 H 0.18186 0.04653 0.96728 0.0
H1189 H 0.2141 0.06831 0.8438 0.0
H1190 H 0.25929 0.03876 0.84854 0.0
H1191 H 0.25995 0.05268 0.95657 0.0
C1192 C 0.157 0.1157 0.94616 0.0
C1193 C 0.13615 0.12584 0.92225 0.0
C1194 C 0.1409 0.11965 0.88769 0.0
C1195 C 0.16543 0.10355 0.87714 0.0
C1196 C 0.18537 0.09387 0.90132 0.0
C1197 C 0.18154 0.09979 0.93511 0.0
C1198 C 0.20634 0.08676 0.95591 0.0
C1199 C 0.22374 0.11085 0.97428 0.0
C1200 C 0.19449 0.0638 0.98078 0.0
C1201 C 0.22467 0.07264 0.92849 0.0
C1202 C 0.21207 0.0769 0.89721 0.0
C1203 C 0.22433 0.06509 0.86813 0.0
C1204 C 0.25006 0.04836 0.87106 0.0
C1205 C 0.2635 0.04374 0.9028 0.0
C1206 C 0.25061 0.05629 0.93183 0.0
H1207 H 0.48769 0.12987 0.94187 0.0
H1208 H 0.40286 0.16507 0.91242 0.0
H1209 H 0.42646 0.21195 0.89803 0.0
H1210 H 0.51573 0.19546 0.97886 0.0
H1211 H 0.55283 0.19117 0.96403 0.0
H1212 H 0.53026 0.15938 0.97149 0.0
H1213 H 0.53815 0.14157 0.91055 0.0
H1214 H 0.56154 0.17274 0.90284 0.0
H1215 H 0.53031 0.16586 0.87594 0.0
H1216 H 0.45856 0.25558 0.88822 0.0
H1217 H 0.49738 0.29305 0.88291 0.0
H1218 H 0.56227 0.23002 0.91674 0.0
C1219 C 0.4741 0.1473 0.93201 0.0
C1220 C 0.44322 0.14362 0.92858 0.0
C1221 C 0.42637 0.16729 0.91596 0.0
C1222 C 0.43963 0.19403 0.90744 0.0
C1223 C 0.46993 0.19696 0.91138 0.0
C1224 C 0.48704 0.17426 0.92325 0.0
C1225 C 0.51915 0.18355 0.92555 0.0
C1226 C 0.53013 0.1823 0.96216 0.0
C1227 C 0.53842 0.16481 0.90233 0.0
C1228 C 0.51731 0.21493 0.91303 0.0
C1229 C 0.48866 0.22217 0.90511 0.0
C1230 C 0.48113 0.2501 0.89404 0.0
C1231 C 0.50339 0.27126 0.89108 0.0
C1232 C 0.533 0.2645 0.89893 0.0
C1233 C 0.53997 0.2358 0.90991 0.0
H1234 H 0.39031 0.43543 0.92766 0.0
H1235 H 0.45654 0.49677 0.96331 0.0
H1236 H 0.42117 0.53707 0.9574 0.0
H1237 H 0.35875 0.48305 0.86527 0.0
H1238 H 0.32149 0.47099 0.8722 0.0
H1239 H 0.35163 0.44644 0.88011 0.0
H1240 H 0.33331 0.43863 0.94111 0.0
H1241 H 0.3031 0.46316 0.9334 0.0
H1242 H 0.3279 0.46988 0.96803 0.0
H1243 H 0.38039 0.57082 0.94562 0.0
H1244 H 0.33503 0.59678 0.93138 0.0
H1245 H 0.29339 0.5145 0.9036 0.0
C1246 C 0.39731 0.45733 0.93434 0.0
C1247 C 0.4262 0.46284 0.94634 0.0
C1248 C 0.43443 0.49182 0.95483 0.0
C1249 C 0.41457 0.51494 0.95125 0.0
C1250 C 0.38647 0.50879 0.93917 0.0
C1251 C 0.37766 0.48076 0.93101 0.0
C1252 C 0.34606 0.48045 0.91841 0.0
C1253 C 0.3444 0.46959 0.88183 0.0
C1254 C 0.32643 0.46193 0.94163 0.0
C1255 C 0.33857 0.51274 0.92077 0.0
C1256 C 0.36242 0.52855 0.93261 0.0
C1257 C 0.36154 0.55873 0.93636 0.0
C1258 C 0.33561 0.57328 0.92794 0.0
C1259 C 0.3106 0.55777 0.91602 0.0
C1260 C 0.31211 0.52698 0.91257 0.0
H1261 H 0.07542 0.44467 0.9143 0.0
H1262 H 0.15735 0.40604 0.94801 0.0
H1263 H 0.1366 0.3567 0.93908 0.0
H1264 H 1.02813 0.39112 0.95374 0.0
H1265 H 1.00147 0.39107 0.92012 0.0
H1266 H 1.02299 0.42343 0.92838 0.0
H1267 H 0.04095 0.42364 0.86654 0.0
H1268 H 1.01954 0.39121 0.85814 0.0
H1269 H 0.05845 0.39151 0.84967 0.0
H1270 H 0.10711 0.31127 0.92618 0.0
H1271 H 0.06989 0.27327 0.91371 0.0
H1272 H 1.00669 0.3411 0.88936 0.0
C1273 C 0.08899 0.42581 0.91964 0.0
C1274 C 0.11801 0.42928 0.93199 0.0
C1275 C 0.13496 0.40399 0.93896 0.0
C1276 C 0.12344 0.37583 0.93374 0.0
C1277 C 0.09479 0.37315 0.92164 0.0
C1278 C 0.07768 0.39743 0.91493 0.0
C1279 C 0.0472 0.38835 0.90318 0.0
C1280 C 1.02356 0.39913 0.92783 0.0
C1281 C 0.04119 0.39934 0.86724 0.0
C1282 C 0.04999 0.35526 0.90411 0.0
C1283 C 0.07767 0.34694 0.91465 0.0
C1284 C 0.08537 0.31754 0.9178 0.0
C1285 C 0.06411 0.29606 0.91045 0.0
C1286 C 1.03538 0.30403 0.90022 0.0
C1287 C 1.02849 0.33413 0.89679 0.0
H1288 H 0.77669 0.20965 0.26747 0.0
H1289 H 0.71813 0.18105 0.34609 0.0
H1290 H 0.75436 0.14497 0.36506 0.0
H1291 H 0.82154 0.13331 0.26181 0.0
H1292 H 0.85472 0.15426 0.25499 0.0
H1293 H 0.82037 0.16646 0.23739 0.0
H1294 H 0.82639 0.21667 0.26502 0.0
H1295 H 0.86058 0.20537 0.2823 0.0
H1296 H 0.83214 0.21865 0.30994 0.0
H1297 H 0.79993 0.13048 0.38983 0.0
H1298 H 0.84644 0.14372 0.41719 0.0
H1299 H 0.87981 0.17573 0.32242 0.0
C1300 C 0.77118 0.19433 0.28726 0.0
C1301 C 0.74469 0.19744 0.30492 0.0
C1302 C 0.73815 0.17833 0.33178 0.0
C1303 C 0.75863 0.15764 0.34258 0.0
C1304 C 0.78578 0.15645 0.32643 0.0
C1305 C 0.79186 0.17388 0.29863 0.0
C1306 C 0.8244 0.174 0.29096 0.0
C1307 C 0.83067 0.15582 0.25943 0.0
C1308 C 0.83653 0.20551 0.28697 0.0
C1309 C 0.83606 0.15865 0.32203 0.0
C1310 C 0.8134 0.14693 0.34113 0.0
C1311 C 0.8179 0.13858 0.37463 0.0
C1312 C 0.84462 0.14591 0.39011 0.0
C1313 C 0.86622 0.16158 0.37198 0.0
C1314 C 0.86348 0.16384 0.33673 0.0
H1315 H 0.40329 0.76156 0.35181 0.0
H1316 H 0.37742 0.76337 0.4564 0.0
H1317 H 0.4107 0.80465 0.46626 0.0
H1318 H 0.48372 0.80295 0.37158 0.0
H1319 H 0.48001 0.82014 0.33098 0.0
H1320 H 0.47004 0.78218 0.33633 0.0
H1321 H 0.41926 0.79284 0.31146 0.0
H1322 H 0.42837 0.83043 0.30642 0.0
H1323 H 0.39637 0.82028 0.33072 0.0
H1324 H 0.42611 0.85382 0.46019 0.0
H1325 H 0.4076 0.89953 0.43803 0.0
H1326 H 0.42864 0.8722 0.3371 0.0
C1327 C 0.40614 0.76955 0.3772 0.0
C1328 C 0.38738 0.75978 0.40306 0.0
C1329 C 0.39097 0.77112 0.43585 0.0
C1330 C 0.41049 0.79419 0.44184 0.0
C1331 C 0.42676 0.80552 0.41499 0.0
C1332 C 0.42551 0.79281 0.3833 0.0
C1333 C 0.43824 0.81314 0.35696 0.0
C1334 C 0.46989 0.80407 0.3485 0.0
C1335 C 0.41936 0.81429 0.32458 0.0
C1336 C 0.43831 0.84153 0.37676 0.0
C1337 C 0.43556 0.83593 0.41106 0.0
C1338 C 0.42825 0.85819 0.43354 0.0
C1339 C 0.41755 0.88447 0.42055 0.0
C1340 C 0.4141 0.88793 0.3854 0.0
C1341 C 0.4295 0.86877 0.364 0.0
H1342 H 0.321 0.84739 0.27248 0.0
H1343 H 0.35562 0.76891 0.31838 0.0
H1344 H 0.3093 0.7625 0.34909 0.0
H1345 H 0.26617 0.86952 0.34375 0.0
H1346 H 0.23904 0.87922 0.31278 0.0
H1347 H 0.27731 0.88594 0.3042 0.0
H1348 H 0.27479 0.85599 0.24989 0.0
H1349 H 0.23666 0.8491 0.25643 0.0
H1350 H 0.26139 0.8188 0.25128 0.0
H1351 H 0.25762 0.7552 0.35995 0.0
H1352 H 0.20633 0.74602 0.34285 0.0
H1353 H 0.20366 0.83078 0.29456 0.0
C1354 C 0.31965 0.83014 0.29109 0.0
C1355 C 0.3419 0.80891 0.29343 0.0
C1356 C 0.33891 0.78565 0.31657 0.0
C1357 C 0.31285 0.78212 0.3347 0.0
C1358 C 0.29031 0.80233 0.33022 0.0
C1359 C 0.29366 0.8263 0.30917 0.0
C1360 C 0.26433 0.84006 0.30088 0.0
C1361 C 0.26162 0.87057 0.31633 0.0
C1362 C 0.259 0.84098 0.26242 0.0
C1363 C 0.24392 0.81892 0.31839 0.0
C1364 C 0.2592 0.79776 0.33609 0.0
C1365 C 0.24533 0.77227 0.34742 0.0
C1366 C 0.21606 0.76723 0.33783 0.0
C1367 C 0.20118 0.7877 0.3173 0.0
C1368 C 0.21432 0.81504 0.31084 0.0
H1369 H 0.84758 0.31718 0.03477 0.0
H1370 H 0.75885 0.28694 0.01677 0.0
H1371 H 0.77765 0.23792 1.00461 0.0
H1372 H 0.88485 0.24689 0.98141 0.0
H1373 H 0.91502 0.25032 1.01059 0.0
H1374 H 0.89744 0.28252 0.9931 0.0
H1375 H 0.89046 0.30101 0.05453 0.0
H1376 H 0.90605 0.26831 0.07076 0.0
H1377 H 0.86944 0.27881 0.08339 0.0
H1378 H 0.79698 0.19602 0.02966 0.0
H1379 H 0.81519 0.16713 0.07647 0.0
H1380 H 0.89282 0.22105 0.08263 0.0
C1381 C 0.83237 0.30074 0.02589 0.0
C1382 C 0.80181 0.30544 0.02788 0.0
C1383 C 0.7824 0.2835 0.01639 0.0
C1384 C 0.79307 0.25558 1.00908 0.0
C1385 C 0.8231 0.25012 1.01346 0.0
C1386 C 0.84285 0.27263 0.01982 0.0
C1387 C 0.87207 0.26084 0.03206 0.0
C1388 C 0.89374 0.26001 1.00261 0.0
C1389 C 0.88514 0.27824 0.062 0.0
C1390 C 0.86282 0.23018 0.0415 0.0
C1391 C 0.83553 0.22356 0.02743 0.0
C1392 C 0.81909 0.19981 0.03869 0.0
C1393 C 0.82952 0.18358 0.06577 0.0
C1394 C 0.85576 0.19168 0.08235 0.0
C1395 C 0.87338 0.21408 0.06906 0.0
H1396 H 0.25159 0.66667 0.7373 0.0
H1397 H 0.22828 0.65995 0.63265 0.0
H1398 H 0.27109 0.62892 0.62229 0.0
H1399 H 0.30789 0.68467 0.74032 0.0
H1400 H 0.32965 0.662 0.76815 0.0
H1401 H 0.29073 0.66243 0.77249 0.0
H1402 H 0.28966 0.60671 0.76603 0.0
H1403 H 0.32913 0.60663 0.76173 0.0
H1404 H 0.30643 0.58954 0.73012 0.0
H1405 H 0.32298 0.63003 0.61644 0.0
H1406 H 0.36768 0.65984 0.61754 0.0
H1407 H 0.36268 0.66499 0.72579 0.0
C1408 C 0.25459 0.65637 0.71305 0.0
C1409 C 0.23794 0.66616 0.68555 0.0
C1410 C 0.24165 0.65304 0.6538 0.0
C1411 C 0.26588 0.6351 0.64787 0.0
C1412 C 0.28576 0.63024 0.67417 0.0
C1413 C 0.27918 0.63863 0.70703 0.0
C1414 C 0.30657 0.63769 0.72871 0.0
C1415 C 0.30879 0.66336 0.75376 0.0
C1416 C 0.30803 0.6084 0.74772 0.0
C1417 C 0.32974 0.63857 0.70138 0.0
C1418 C 0.31767 0.63041 0.67057 0.0
C1419 C 0.33268 0.63569 0.64047 0.0
C1420 C 0.35806 0.65304 0.64121 0.0
C1421 C 0.36796 0.66533 0.67182 0.0
C1422 C 0.35553 0.65547 0.70225 0.0
H1423 H 0.6574 0.19907 0.70724 0.0
H1424 H 0.65213 0.18059 0.60125 0.0
H1425 H 0.62942 0.22815 0.5912 0.0
H1426 H 0.59373 0.26632 0.70332 0.0
H1427 H 0.6156 0.28458 0.73487 0.0
H1428 H 0.60923 0.24568 0.73767 0.0
H1429 H 0.66512 0.23752 0.74103 0.0
H1430 H 0.67153 0.2758 0.738 0.0
H1431 H 0.68855 0.25152 0.70807 0.0
H1432 H 0.64377 0.27784 0.58755 0.0
H1433 H 0.67667 0.32018 0.59387 0.0
H1434 H 0.66972 0.31399 0.70186 0.0
C1435 C 0.64905 0.20439 0.68249 0.0
C1436 C 0.65794 0.18749 0.65476 0.0
C1437 C 0.64633 0.19397 0.62269 0.0
C1438 C 0.63345 0.2212 0.61683 0.0
C1439 C 0.63168 0.24096 0.64358 0.0
C1440 C 0.63709 0.23217 0.67657 0.0
C1441 C 0.64121 0.25853 0.69938 0.0
C1442 C 0.61326 0.26411 0.72 0.0
C1443 C 0.66826 0.25566 0.72285 0.0
C1444 C 0.64521 0.28219 0.67318 0.0
C1445 C 0.63795 0.27209 0.64125 0.0
C1446 C 0.64784 0.28664 0.6124 0.0
C1447 C 0.66688 0.31051 0.61609 0.0
C1448 C 0.67523 0.3201 0.64842 0.0
C1449 C 0.66262 0.3072 0.67703 0.0
H1450 H 0.82947 0.19601 0.85898 0.0
H1451 H 0.82791 0.18653 0.751 0.0
H1452 H 0.78452 0.15404 0.75536 0.0
H1453 H 0.7879 0.12107 0.88048 0.0
H1454 H 0.7686 0.13965 0.91363 0.0
H1455 H 0.80647 0.14875 0.90479 0.0
H1456 H 0.7926 0.20438 0.89566 0.0
H1457 H 0.75639 0.19431 0.90792 0.0
H1458 H 0.76238 0.21257 0.86818 0.0
H1459 H 0.73472 0.13973 0.76822 0.0
H1460 H 0.68526 0.15602 0.78341 0.0
H1461 H 0.71518 0.17378 0.88455 0.0
C1462 C 0.82054 0.18571 0.83662 0.0
C1463 C 0.83148 0.19336 0.80481 0.0
C1464 C 0.81967 0.18045 0.7756 0.0
C1465 C 0.79522 0.16178 0.77802 0.0
C1466 C 0.7831 0.15635 0.80982 0.0
C1467 C 0.7957 0.16783 0.83878 0.0
C1468 C 0.77491 0.16606 0.86834 0.0
C1469 C 0.78508 0.14249 0.8933 0.0
C1470 C 0.77136 0.19605 0.88597 0.0
C1471 C 0.74709 0.15645 0.85046 0.0
C1472 C 0.7528 0.14863 0.81735 0.0
C1473 C 0.73008 0.14534 0.79401 0.0
C1474 C 0.70182 0.15445 0.80297 0.0
C1475 C 0.69701 0.1674 0.83476 0.0
C1476 C 0.71857 0.16421 0.85998 0.0
H1477 H 0.27744 0.8551 0.71716 0.0
H1478 H 0.36224 0.89146 0.74169 0.0
H1479 H 0.38587 0.84542 0.72583 0.0
H1480 H 0.27211 0.8019 0.7453 0.0
H1481 H 0.26058 0.77424 0.71576 0.0
H1482 H 0.25392 0.81168 0.70636 0.0
H1483 H 0.28163 0.80687 0.65042 0.0
H1484 H 0.28863 0.76882 0.65941 0.0
H1485 H 0.31871 0.79307 0.64972 0.0
H1486 H 0.38889 0.798 0.75192 0.0
H1487 H 0.37653 0.75616 0.78757 0.0
H1488 H 0.29665 0.74254 0.7306 0.0
C1489 C 0.30116 0.85406 0.71597 0.0
C1490 C 0.31805 0.8754 0.73282 0.0
C1491 C 0.34897 0.87427 0.73063 0.0
C1492 C 0.36258 0.84823 0.72124 0.0
C1493 C 0.34482 0.82469 0.71171 0.0
C1494 C 0.315 0.82829 0.70503 0.0
C1495 C 0.30023 0.7987 0.70037 0.0
C1496 C 0.27002 0.79655 0.7181 0.0
C1497 C 0.29714 0.79146 0.66275 0.0
C1498 C 0.3233 0.77926 0.71625 0.0
C1499 C 0.34936 0.79445 0.7216 0.0
C1500 C 0.36961 0.78506 0.74593 0.0
C1501 C 0.36244 0.76116 0.76634 0.0
C1502 C 0.33526 0.74676 0.76214 0.0
C1503 C 0.31736 0.75381 0.73437 0.0
H1504 H 0.65645 0.18146 0.48579 0.0
H1505 H 0.70615 0.20626 0.39712 0.0
H1506 H 0.74882 0.17874 0.41825 0.0
H1507 H 0.71434 0.19031 0.5435 0.0
H1508 H 0.70348 0.15969 0.56932 0.0
H1509 H 0.67641 0.1788 0.54475 0.0
H1510 H 0.6617 0.12897 0.51781 0.0
H1511 H 0.68984 0.11056 0.54172 0.0
H1512 H 0.68923 0.10763 0.4965 0.0
H1513 H 0.78787 0.15129 0.45117 0.0
H1514 H 0.8202 0.13019 0.49542 0.0
H1515 H 0.74564 0.12497 0.56284 0.0
C1516 C 0.67607 0.1806 0.47046 0.0
C1517 C 0.67761 0.19569 0.43944 0.0
C1518 C 0.70408 0.19449 0.42063 0.0
C1519 C 0.72854 0.17883 0.43241 0.0
C1520 C 0.72638 0.16436 0.46314 0.0
C1521 C 0.70082 0.16518 0.48197 0.0
C1522 C 0.70502 0.14993 0.51549 0.0
C1523 C 0.6995 0.17098 0.54499 0.0
C1524 C 0.68527 0.12265 0.51801 0.0
C1525 C 0.73716 0.14153 0.51312 0.0
C1526 C 0.749 0.14934 0.48243 0.0
C1527 C 0.77873 0.14478 0.47516 0.0
C1528 C 0.79693 0.13268 0.5003 0.0
C1529 C 0.78536 0.12594 0.53238 0.0
C1530 C 0.755 0.12984 0.53841 0.0
H1531 H 0.42748 0.75665 0.58472 0.0
H1532 H 0.4793 0.80197 0.50933 0.0
H1533 H 0.46569 0.76346 0.46763 0.0
H1534 H 0.44411 0.6832 0.55955 0.0
H1535 H 0.40759 0.66998 0.5686 0.0
H1536 H 0.42255 0.70029 0.59204 0.0
H1537 H 0.37799 0.73302 0.575 0.0
H1538 H 0.36267 0.70196 0.5533 0.0
H1539 H 0.36817 0.73601 0.53125 0.0
H1540 H 0.44052 0.7222 0.43297 0.0
H1541 H 0.41105 0.68075 0.41059 0.0
H1542 H 0.37896 0.66221 0.51091 0.0
C1543 C 0.4361 0.7587 0.55944 0.0
C1544 C 0.45424 0.78259 0.55015 0.0
C1545 C 0.46542 0.78389 0.51699 0.0
C1546 C 0.45769 0.76215 0.49322 0.0
C1547 C 0.43902 0.73931 0.50321 0.0
C1548 C 0.42875 0.73742 0.53578 0.0
C1549 C 0.40868 0.71132 0.54072 0.0
C1550 C 0.42151 0.68993 0.56676 0.0
C1551 C 0.37754 0.72115 0.55065 0.0
C1552 C 0.40899 0.69852 0.50571 0.0
C1553 C 0.42625 0.71508 0.48418 0.0
C1554 C 0.42756 0.7088 0.44985 0.0
C1555 C 0.4107 0.68531 0.43734 0.0
C1556 C 0.39334 0.66794 0.45921 0.0
C1557 C 0.39279 0.67455 0.49383 0.0
H1558 H 0.86889 0.36544 0.46003 0.0
H1559 H 0.93488 0.43406 0.45961 0.0
H1560 H 0.89918 0.46821 0.48521 0.0
H1561 H 0.80414 0.4104 0.44431 0.0
H1562 H 0.78157 0.39019 0.47348 0.0
H1563 H 0.81122 0.37217 0.45189 0.0
H1564 H 0.83352 0.356 0.50902 0.0
H1565 H 0.80378 0.37365 0.53069 0.0
H1566 H 0.84126 0.38319 0.5407 0.0
H1567 H 0.85646 0.49435 0.51302 0.0
H1568 H 0.81296 0.50812 0.54683 0.0
H1569 H 0.77616 0.42154 0.53115 0.0
C1570 C 0.87559 0.38784 0.46471 0.0
C1571 C 0.90441 0.39734 0.45734 0.0
C1572 C 0.91278 0.42648 0.46488 0.0
C1573 C 0.89261 0.44604 0.47922 0.0
C1574 C 0.8643 0.43599 0.48627 0.0
C1575 C 0.85596 0.40742 0.47968 0.0
C1576 C 0.82535 0.40114 0.49276 0.0
C1577 C 0.80433 0.393 0.46388 0.0
C1578 C 0.82604 0.37709 0.5199 0.0
C1579 C 0.81773 0.43063 0.50769 0.0
C1580 C 0.84025 0.45061 0.50331 0.0
C1581 C 0.83858 0.47895 0.51631 0.0
C1582 C 0.81368 0.4867 0.53521 0.0
C1583 C 0.79109 0.46601 0.54128 0.0
C1584 C 0.79294 0.43793 0.52658 0.0
H1585 H 0.16508 0.79193 0.53488 0.0
H1586 H 0.07476 0.82137 0.54008 0.0
H1587 H 0.08743 0.86413 0.50448 0.0
H1588 H 0.19846 0.85935 0.5416 0.0
H1589 H 0.22784 0.85247 0.51232 0.0
H1590 H 0.21108 0.82251 0.5346 0.0
H1591 H 0.19879 0.79668 0.47831 0.0
H1592 H 0.21606 0.8263 0.45577 0.0
H1593 H 0.17863 0.81613 0.44627 0.0
H1594 H 0.11218 0.90764 0.47643 0.0
H1595 H 0.14517 0.94464 0.45064 0.0
H1596 H 0.21838 0.88478 0.45981 0.0
C1597 C 0.14779 0.8069 0.52754 0.0
C1598 C 0.11887 0.80327 0.5398 0.0
C1599 C 0.09688 0.82347 0.53029 0.0
C1600 C 0.10397 0.84793 0.51035 0.0
C1601 C 0.13299 0.85144 0.4996 0.0
C1602 C 0.15438 0.83102 0.50714 0.0
C1603 C 0.18412 0.84028 0.49357 0.0
C1604 C 0.20669 0.84387 0.52223 0.0
C1605 C 0.19503 0.81856 0.46689 0.0
C1606 C 0.17636 0.86951 0.47796 0.0
C1607 C 0.14682 0.87571 0.48197 0.0
C1608 C 0.13513 0.90266 0.47235 0.0
C1609 C 0.154 0.92358 0.45792 0.0
C1610 C 0.18405 0.91725 0.4527 0.0
C1611 C 0.19527 0.88981 0.46272 0.0
H1612 H 0.23213 0.95687 0.97464 0.0
H1613 H 0.31165 0.94494 0.03354 0.0
H1614 H 0.28261 0.91911 0.07727 0.0
H1615 H 0.18154 0.96741 0.04507 0.0
H1616 H 0.1524 0.94767 0.02416 0.0
H1617 H 0.17924 0.96747 0.99978 0.0
H1618 H 0.19114 0.92007 0.96678 0.0
H1619 H 0.16464 0.90008 0.99131 0.0
H1620 H 0.2022 0.88777 0.98951 0.0
H1621 H 0.24471 0.89043 0.11208 0.0
H1622 H 0.20177 0.86423 0.13578 0.0
H1623 H 0.14798 0.89552 0.05295 0.0
C1624 C 0.2435 0.94932 0.99698 0.0
C1625 C 0.27422 0.95305 1.00068 0.0
C1626 C 0.28811 0.94267 0.0303 0.0
C1627 C 0.27179 0.92782 0.05517 0.0
C1628 C 0.24163 0.92378 0.05012 0.0
C1629 C 0.22765 0.93457 0.02184 0.0
C1630 C 0.19538 0.9264 0.02132 0.0
C1631 C 0.176 0.95387 0.02267 0.0
C1632 C 0.18792 0.90745 0.99041 0.0
C1633 C 0.19329 0.90891 0.05355 0.0
C1634 C 0.22011 0.90761 0.06992 0.0
C1635 C 0.22359 0.89161 0.09959 0.0
C1636 C 0.19907 0.8767 0.1128 0.0
C1637 C 0.17138 0.87787 0.0964 0.0
C1638 C 0.16866 0.89436 0.06643 0.0
H1639 H 0.67486 0.15388 0.03371 0.0
H1640 H 0.69072 0.19883 0.1282 0.0
H1641 H 0.66099 0.24056 0.10833 0.0
H1642 H 0.68154 0.21718 0.98235 0.0
H1643 H 0.65368 0.20578 0.95278 0.0
H1644 H 0.67431 0.17881 0.97569 0.0
H1645 H 0.62557 0.1562 0.9982 0.0
H1646 H 0.60538 0.18318 0.97466 0.0
H1647 H 0.59949 0.17942 0.01932 0.0
H1648 H 0.63096 0.27902 0.07653 0.0
H1649 H 0.60803 0.31153 0.03371 0.0
H1650 H 0.61201 0.24119 0.96091 0.0
C1651 C 0.67177 0.17231 0.05042 0.0
C1652 C 0.68502 0.17289 0.08265 0.0
C1653 C 0.68086 0.19779 0.10339 0.0
C1654 C 0.66381 0.22158 0.09241 0.0
C1655 C 0.651 0.22032 0.06052 0.0
C1656 C 0.65502 0.19637 0.03974 0.0
C1657 C 0.64081 0.20124 1.00569 0.0
C1658 C 0.66397 0.20074 0.97749 0.0
C1659 C 0.61634 0.17867 0.99913 0.0
C1660 C 0.62825 0.23163 1.01051 0.0
C1661 C 0.63404 0.2423 0.04236 0.0
C1662 C 0.62596 0.2707 0.05166 0.0
C1663 C 0.61262 0.28896 0.02739 0.0
C1664 C 0.60777 0.27869 0.99429 0.0
C1665 C 0.61494 0.24941 0.98628 0.0
H1666 H 0.27052 0.67576 0.99823 0.0
H1667 H 0.29509 0.58427 1.00332 0.0
H1668 H 0.33672 0.59715 0.04073 0.0
H1669 H 0.34093 0.70396 0.99277 0.0
H1670 H 0.33451 0.73593 0.0182 0.0
H1671 H 0.30455 0.71929 0.9955 0.0
H1672 H 0.27501 0.71356 0.05082 0.0
H1673 H 0.30472 0.73067 0.07366 0.0
H1674 H 0.29151 0.69509 0.0862 0.0
H1675 H 0.3797 0.62101 0.07024 0.0
H1676 H 0.41783 0.65329 0.09484 0.0
H1677 H 0.364 0.72908 0.07326 0.0
C1678 C 0.28412 0.65832 1.00808 0.0
C1679 C 0.27935 0.62894 0.99822 0.0
C1680 C 0.29792 0.6068 1.01114 0.0
C1681 C 0.32177 0.61397 0.03218 0.0
C1682 C 0.32641 0.6433 0.04051 0.0
C1683 C 0.30775 0.66506 0.02939 0.0
C1684 C 0.31838 0.69505 0.04048 0.0
C1685 C 0.32499 0.7147 1.00992 0.0
C1686 C 0.29607 0.70944 0.06421 0.0
C1687 C 0.34631 0.68689 0.05903 0.0
C1688 C 0.35063 0.65693 0.05858 0.0
C1689 C 0.37616 0.64439 0.07147 0.0
C1690 C 0.39773 0.66287 0.08527 0.0
C1691 C 0.3935 0.69353 0.08652 0.0
C1692 C 0.36734 0.70563 0.07349 0.0
H1693 H 0.87995 0.42531 0.02771 0.0
H1694 H 0.9002 0.39678 0.12909 0.0
H1695 H 0.9297 0.35595 0.10636 0.0
H1696 H 0.86914 0.35394 0.99555 0.0
H1697 H 0.88393 0.36205 0.95462 0.0
H1698 H 0.86749 0.39068 0.97922 0.0
H1699 H 0.91587 0.42091 0.97415 0.0
H1700 H 0.9323 0.39193 0.94998 0.0
H1701 H 0.95009 0.40489 0.98772 0.0
H1702 H 0.95492 0.31605 0.072 0.0
H1703 H 0.97058 0.27972 0.02931 0.0
H1704 H 0.93223 0.33385 0.951 0.0
C1705 C 0.89149 0.41107 0.04504 0.0
C1706 C 0.88856 0.41472 0.08016 0.0
C1707 C 0.90271 0.39472 0.10208 0.0
C1708 C 0.91947 0.37143 0.0894 0.0
C1709 C 0.92162 0.36811 0.05463 0.0
C1710 C 0.90786 0.38733 0.03276 0.0
C1711 C 0.91129 0.37738 0.99661 0.0
C1712 C 0.88117 0.37063 0.98058 0.0
C1713 C 0.92841 0.40014 0.9759 0.0
C1714 C 0.92907 0.34972 1.00157 0.0
C1715 C 0.93514 0.34477 0.03511 0.0
C1716 C 0.95054 0.31992 0.04559 0.0
C1717 C 0.95944 0.2994 0.02118 0.0
C1718 C 0.95271 0.30376 0.98673 0.0
C1719 C 0.93779 0.32963 0.97706 0.0
H1720 H 0.41536 0.89164 0.54458 0.0
H1721 H 0.37725 0.89605 0.64432 0.0
H1722 H 0.33595 0.92544 0.6217 0.0
H1723 H 0.39539 0.96293 0.51435 0.0
H1724 H 0.38597 0.95031 0.47275 0.0
H1725 H 0.41345 0.9313 0.49698 0.0
H1726 H 0.38441 0.88233 0.49147 0.0
H1727 H 0.35768 0.90107 0.46589 0.0
H1728 H 0.34617 0.88138 0.50287 0.0
H1729 H 0.29744 0.95398 0.58632 0.0
H1730 H 0.26451 0.97362 0.54147 0.0
H1731 H 0.32848 0.94827 0.4664 0.0
C1732 C 0.39862 0.89923 0.5618 0.0
C1733 C 0.39976 0.892 0.59628 0.0
C1734 C 0.37689 0.90153 0.61779 0.0
C1735 C 0.35341 0.91834 0.6052 0.0
C1736 C 0.35295 0.92515 0.57095 0.0
C1737 C 0.37486 0.91548 0.54957 0.0
C1738 C 0.3682 0.92322 0.51341 0.0
C1739 C 0.39219 0.94312 0.49851 0.0
C1740 C 0.36387 0.89536 0.49215 0.0
C1741 C 0.33955 0.93939 0.51772 0.0
C1742 C 0.33088 0.94046 0.55095 0.0
C1743 C 0.30418 0.95335 0.56024 0.0
C1744 C 0.28568 0.96462 0.53473 0.0
C1745 C 0.29395 0.96248 0.50054 0.0
C1746 C 0.32152 0.95031 0.49234 0.0
H1747 H 0.69275 0.43053 0.53503 0.0
H1748 H 0.65818 0.40646 0.63267 0.0
H1749 H 0.63114 0.365 0.60679 0.0
H1750 H 0.6294 0.40882 0.48321 0.0
H1751 H 0.65237 0.39437 0.45032 0.0
H1752 H 0.66538 0.42423 0.47597 0.0
H1753 H 0.7117 0.39416 0.49171 0.0
H1754 H 0.69873 0.36418 0.46635 0.0
H1755 H 0.70731 0.35838 0.51014 0.0
H1756 H 0.60946 0.32406 0.56923 0.0
H1757 H 0.59855 0.28692 0.52515 0.0
H1758 H 0.65049 0.33732 0.45412 0.0
C1759 C 0.67872 0.41708 0.55073 0.0
C1760 C 0.67679 0.42215 0.58563 0.0
C1761 C 0.6594 0.40322 0.60571 0.0
C1762 C 0.64405 0.37959 0.59123 0.0
C1763 C 0.64688 0.37474 0.55674 0.0
C1764 C 0.66398 0.39294 0.53685 0.0
C1765 C 0.66584 0.38161 0.50119 0.0
C1766 C 0.65244 0.40357 0.47621 0.0
C1767 C 0.69778 0.37414 0.49182 0.0
C1768 C 0.64715 0.3543 0.50402 0.0
C1769 C 0.63604 0.35067 0.53602 0.0
C1770 C 0.61823 0.32666 0.54413 0.0
C1771 C 0.61206 0.3057 0.51895 0.0
C1772 C 0.62384 0.30889 0.48618 0.0
C1773 C 0.64134 0.33377 0.47892 0.0
H1774 H 0.29235 0.66592 0.51182 0.0
H1775 H 0.26174 0.5764 0.50231 0.0
H1776 H 0.21579 0.58964 0.53207 0.0
H1777 H 0.26227 0.68182 0.59365 0.0
H1778 H 0.25089 0.71847 0.58327 0.0
H1779 H 0.28242 0.70256 0.56303 0.0
H1780 H 0.26095 0.71119 0.50438 0.0
H1781 H 0.22949 0.72856 0.52298 0.0
H1782 H 0.22447 0.69827 0.49448 0.0
H1783 H 0.16987 0.61519 0.55513 0.0
H1784 H 0.13169 0.64872 0.57762 0.0
H1785 H 0.19411 0.72039 0.57448 0.0
C1786 C 0.2764 0.64884 0.51698 0.0
C1787 C 0.28076 0.62002 0.50518 0.0
C1788 C 0.25915 0.59844 0.51183 0.0
C1789 C 0.23284 0.60589 0.52836 0.0
C1790 C 0.22873 0.6349 0.53839 0.0
C1791 C 0.25026 0.65587 0.53348 0.0
C1792 C 0.24012 0.68581 0.5448 0.0
C1793 C 0.26006 0.69787 0.57289 0.0
C1794 C 0.23868 0.7072 0.51488 0.0
C1795 C 0.2096 0.67843 0.55743 0.0
C1796 C 0.20306 0.64913 0.55279 0.0
C1797 C 0.17501 0.638 0.55953 0.0
C1798 C 0.15339 0.65717 0.57193 0.0
C1799 C 0.16014 0.68693 0.57789 0.0
C1800 C 0.18858 0.69757 0.57054 0.0
H1801 H 0.89785 0.16124 0.53928 0.0
H1802 H 0.88279 0.20127 0.63674 0.0
H1803 H 0.91251 0.24402 0.61948 0.0
H1804 H 0.97338 0.18764 0.52826 0.0
H1805 H 0.96867 0.19402 0.48385 0.0
H1806 H 0.9481 0.16536 0.50429 0.0
H1807 H 0.89924 0.18775 0.48294 0.0
H1808 H 0.91988 0.2157 0.46161 0.0
H1809 H 0.89164 0.22577 0.49111 0.0
H1810 H 0.94037 0.28473 0.58939 0.0
H1811 H 0.96096 0.31997 0.54801 0.0
H1812 H 0.95936 0.25252 0.47171 0.0
C1813 C 0.90104 0.17881 0.5572 0.0
C1814 C 0.88796 0.17775 0.58946 0.0
C1815 C 0.89251 0.20147 0.61189 0.0
C1816 C 0.90953 0.22584 0.60237 0.0
C1817 C 0.92208 0.2262 0.57038 0.0
C1818 C 0.91795 0.20328 0.54812 0.0
C1819 C 0.93229 0.20967 0.51454 0.0
C1820 C 0.95709 0.18784 0.50735 0.0
C1821 C 0.90939 0.20974 0.4859 0.0
C1822 C 0.9445 0.24006 0.52104 0.0
C1823 C 0.93873 0.24918 0.5535 0.0
C1824 C 0.94568 0.27754 0.56419 0.0
C1825 C 0.95775 0.29735 0.54073 0.0
C1826 C 0.96286 0.28857 0.50718 0.0
C1827 C 0.95691 0.25935 0.49767 0.0
H1828 H 0.92128 0.16092 0.97779 0.0
H1829 H 0.86715 0.22039 0.91948 0.0
H1830 H 0.82273 0.19554 0.9402 0.0
H1831 H 0.86727 0.09572 0.96197 0.0
H1832 H 0.8756 0.08019 1.00258 0.0
H1833 H 0.9036 0.09971 0.97952 0.0
H1834 H 0.91209 0.13099 0.03061 0.0
H1835 H 0.88249 0.11515 0.05438 0.0
H1836 H 0.88372 0.15399 0.04637 0.0
H1837 H 0.78381 0.166 0.96679 0.0
H1838 H 0.75282 0.14056 1.00855 0.0
H1839 H 0.8304 0.10065 0.05197 0.0
C1840 C 0.90004 0.16825 0.96887 0.0
C1841 C 0.89778 0.19259 0.94683 0.0
C1842 C 0.86958 0.20159 0.93585 0.0
C1843 C 0.84413 0.18735 0.94705 0.0
C1844 C 0.84697 0.16312 0.96797 0.0
C1845 C 0.87417 0.15345 0.97881 0.0
C1846 C 0.8705 0.12778 1.00297 0.0
C1847 C 0.87979 0.09916 0.98573 0.0
C1848 C 0.88811 0.13226 0.0356 0.0
C1849 C 0.83722 0.12802 1.00806 0.0
C1850 C 0.8241 0.14684 0.98534 0.0
C1851 C 0.7937 0.15073 0.98424 0.0
C1852 C 0.77621 0.13619 1.00804 0.0
C1853 C 0.78915 0.11846 0.03307 0.0
C1854 C 0.82 0.11377 0.03265 0.0
H1855 H 0.39416 0.92208 0.98904 0.0
H1856 H 0.34896 0.87154 0.91218 0.0
H1857 H 0.37606 0.82737 0.93 0.0
H1858 H 0.46515 0.88479 0.98427 0.0
H1859 H 0.47095 0.88608 0.02913 0.0
H1860 H 0.44992 0.91432 1.00864 0.0
H1861 H 0.40587 0.90419 0.04828 0.0
H1862 H 0.42708 0.87651 0.06928 0.0
H1863 H 0.39159 0.86748 0.05178 0.0
H1864 H 0.40573 0.78757 0.95923 0.0
H1865 H 0.4313 0.75581 1.00067 0.0
H1866 H 0.45737 0.83255 0.05716 0.0
C1867 C 0.39018 0.90184 0.97562 0.0
C1868 C 0.36945 0.90041 0.94905 0.0
C1869 C 0.36464 0.87327 0.93264 0.0
C1870 C 0.38013 0.84806 0.94241 0.0
C1871 C 0.40047 0.85025 0.96863 0.0
C1872 C 0.40534 0.87646 0.98515 0.0
C1873 C 0.42657 0.87262 1.01424 0.0
C1874 C 0.45482 0.89052 1.00871 0.0
C1875 C 0.41189 0.88066 0.04787 0.0
C1876 C 0.43253 0.84009 1.01187 0.0
C1877 C 0.41763 0.82752 0.98516 0.0
C1878 C 0.41798 0.79727 0.97979 0.0
C1879 C 0.43287 0.77937 1.00312 0.0
C1880 C 0.44703 0.79186 0.03136 0.0
C1881 C 0.44758 0.82261 0.03503 0.0
H1882 H 0.78601 0.41639 0.02316 0.0
H1883 H 0.75199 0.50437 0.03427 0.0
H1884 H 0.7083 0.49042 1.00022 0.0
H1885 H 0.76089 0.40052 0.93904 0.0
H1886 H 0.75087 0.36333 0.94906 0.0
H1887 H 0.78025 0.38105 0.97176 0.0
H1888 H 0.75333 0.3721 0.02943 0.0
H1889 H 0.72642 0.35179 1.00576 0.0
H1890 H 0.71527 0.3813 0.03302 0.0
H1891 H 0.6651 0.46405 0.97162 0.0
H1892 H 0.62904 0.42957 0.94658 0.0
H1893 H 0.693 0.35978 0.95269 0.0
C1894 C 0.76975 0.43302 0.01783 0.0
C1895 C 0.77259 0.4616 0.03109 0.0
C1896 C 0.75057 0.48251 0.02386 0.0
C1897 C 0.72558 0.47468 1.00477 0.0
C1898 C 0.72311 0.44594 0.993 0.0
C1899 C 0.7448 0.42556 0.9991 0.0
C1900 C 0.7362 0.39561 0.98601 0.0
C1901 C 0.75838 0.38449 0.9599 0.0
C1902 C 0.73255 0.37386 1.01524 0.0
C1903 C 0.70673 0.40233 0.97037 0.0
C1904 C 0.69909 0.43129 0.97542 0.0
C1905 C 0.67123 0.44158 0.96686 0.0
C1906 C 0.65086 0.42182 0.95284 0.0
C1907 C 0.65855 0.39223 0.94708 0.0
C1908 C 0.68693 0.38252 0.95574 0.0
H1909 H 0.11936 0.74189 0.07955 0.0
H1910 H 0.10441 0.81098 1.00687 0.0
H1911 H 0.12037 0.77754 0.96104 0.0
H1912 H 0.18381 0.71569 0.04562 0.0
H1913 H 0.1766 0.6777 0.05464 0.0
H1914 H 0.16046 0.70568 0.08039 0.0
H1915 H 0.10849 0.68474 0.06844 0.0
H1916 H 0.12445 0.65643 0.04283 0.0
H1917 H 0.09644 0.6799 0.02555 0.0
H1918 H 0.14441 0.73821 0.92492 0.0
H1919 H 0.17139 0.69633 0.90098 0.0
H1920 H 0.1693 0.65281 0.99796 0.0
C1921 C 0.11883 0.74982 0.05385 0.0
C1922 C 0.11064 0.77896 0.04658 0.0
C1923 C 0.11027 0.78862 1.0128 0.0
C1924 C 0.11942 0.76979 0.98675 0.0
C1925 C 0.1283 0.74137 0.99504 0.0
C1926 C 0.1276 0.73137 0.02781 0.0
C1927 C 0.13977 0.70065 0.03076 0.0
C1928 C 0.16676 0.69991 0.05423 0.0
C1929 C 0.11586 0.67916 0.04258 0.0
C1930 C 0.14827 0.69498 0.99457 0.0
C1931 C 0.14142 0.71867 0.97431 0.0
C1932 C 0.14929 0.71938 0.94045 0.0
C1933 C 0.16468 0.69548 0.92711 0.0
C1934 C 0.17205 0.67107 0.94748 0.0
C1935 C 0.16328 0.67074 0.98153 0.0
loop_
_geom_bond_atom_site_label_1
_geom_bond_atom_site_label_2
_geom_bond_distance
_geom_bond_site_symmetry_2
_ccdc_geom_bond_type
Dy0 O3 2.307 . S
Dy0 O5 2.395 . S
Dy0 O6 2.379 . S
Dy0 O8 2.339 . S
Dy0 O10 2.298 . S
Dy0 O14 2.275 . S
Dy0 C22 2.738 . S
Dy1 O4 2.298 . S
Dy1 O7 2.275 . S
Dy1 O9 2.307 . S
Dy1 O11 2.395 . S
Dy1 O12 2.379 . S
Dy1 O15 2.339 . S
Dy1 C31 2.738 . S
C2 O14 1.254 . S
C2 O15 1.257 . S
O3 Dy0 2.307 . S
O3 C13 1.266 . S
O4 Dy1 2.298 . S
O4 C13 1.236 . S
O5 Dy0 2.395 . S
O5 C22 1.255 . S
O6 Dy0 2.379 . S
O6 C22 1.249 . S
O7 Dy1 2.275 . S
O7 C23 1.254 . S
O8 Dy0 2.339 . S
O8 C23 1.257 . S
O9 Dy1 2.307 . S
O9 C24 1.266 . S
O10 Dy0 2.298 . S
O10 C24 1.236 . S
O11 Dy1 2.395 . S
O11 C31 1.255 . S
O12 Dy1 2.379 . S
O12 C31 1.249 . S
C13 O3 1.266 . S
C13 O4 1.236 . S
O14 Dy0 2.275 . S
O14 C2 1.254 . S
O15 Dy1 2.339 . S
O15 C2 1.257 . S
C16 C19 1.344 . S
C16 C20 1.328 . S
C16 C22 1.516 . S
C17 C18 1.304 . S
C17 C21 1.323 . S
C18 C17 1.304 . S
C18 C19 1.371 . S
C18 H32 0.930 . S
C19 C16 1.344 . S
C19 C18 1.371 . S
C19 H33 0.931 . S
C20 C16 1.328 . S
C20 C21 1.433 . S
C20 H34 0.931 . S
C21 C17 1.323 . S
C21 C20 1.433 . S
C21 H35 0.933 . S
C22 Dy0 2.738 . S
C22 O5 1.255 . S
C22 O6 1.249 . S
C22 C16 1.516 . S
C23 O7 1.254 . S
C23 O8 1.257 . S
C24 O9 1.266 . S
C24 O10 1.236 . S
C25 C28 1.344 . S
C25 C29 1.328 . S
C25 C31 1.516 . S
C26 C27 1.304 . S
C26 C30 1.323 . S
C27 C26 1.304 . S
C27 C28 1.371 . S
C27 H36 0.930 . S
C28 C25 1.344 . S
C28 C27 1.371 . S
C28 H37 0.931 . S
C29 C25 1.328 . S
C29 C30 1.433 . S
C29 H38 0.931 . S
C30 C26 1.323 . S
C30 C29 1.433 . S
C30 H39 0.933 . S
C31 Dy1 2.738 . S
C31 O11 1.255 . S
C31 O12 1.249 . S
C31 C25 1.516 . S
H32 C18 0.930 . S
H33 C19 0.931 . S
H34 C20 0.931 . S
H35 C21 0.933 . S
H36 C27 0.930 . S
H37 C28 0.931 . S
H38 C29 0.931 . S
H39 C30 0.933 . S
Dy40 O43 2.307 . S
Dy40 O45 2.395 . S
Dy40 O46 2.379 . S
Dy40 O48 2.339 . S
Dy40 O50 2.298 . S
Dy40 O54 2.275 . S
Dy40 C62 2.738 . S
Dy41 O44 2.298 . S
Dy41 O47 2.275 . S
Dy41 O49 2.307 . S
Dy41 O51 2.395 . S
Dy41 O52 2.379 . S
Dy41 O55 2.339 . S
Dy41 C71 2.738 . S
C42 O54 1.254 . S
C42 O55 1.257 . S
O43 Dy40 2.307 . S
O43 C53 1.266 . S
O44 Dy41 2.298 . S
O44 C53 1.236 . S
O45 Dy40 2.395 . S
O45 C62 1.255 . S
O46 Dy40 2.379 . S
O46 C62 1.249 . S
O47 Dy41 2.275 . S
O47 C63 1.254 . S
O48 Dy40 2.339 . S
O48 C63 1.257 . S
O49 Dy41 2.307 . S
O49 C64 1.266 . S
O50 Dy40 2.298 . S
O50 C64 1.236 . S
O51 Dy41 2.395 . S
O51 C71 1.255 . S
O52 Dy41 2.379 . S
O52 C71 1.249 . S
C53 O43 1.266 . S
C53 O44 1.236 . S
O54 Dy40 2.275 . S
O54 C42 1.254 . S
O55 Dy41 2.339 . S
O55 C42 1.257 . S
C56 C59 1.344 . S
C56 C60 1.328 . S
C56 C62 1.516 . S
C57 C58 1.304 . S
C57 C61 1.323 . S
C58 C57 1.304 . S
C58 C59 1.371 . S
C58 H72 0.930 . S
C59 C56 1.344 . S
C59 C58 1.371 . S
C59 H73 0.931 . S
C60 C56 1.328 . S
C60 C61 1.433 . S
C60 H74 0.931 . S
C61 C57 1.323 . S
C61 C60 1.433 . S
C61 H75 0.933 . S
C62 Dy40 2.738 . S
C62 O45 1.255 . S
C62 O46 1.249 . S
C62 C56 1.516 . S
C63 O47 1.254 . S
C63 O48 1.257 . S
C64 O49 1.266 . S
C64 O50 1.236 . S
C65 C68 1.344 . S
C65 C69 1.328 . S
C65 C71 1.516 . S
C66 C67 1.304 . S
C66 C70 1.323 . S
C67 C66 1.304 . S
C67 C68 1.371 . S
C67 H76 0.930 . S
C68 C65 1.344 . S
C68 C67 1.371 . S
C68 H77 0.931 . S
C69 C65 1.328 . S
C69 C70 1.433 . S
C69 H78 0.931 . S
C70 C66 1.323 . S
C70 C69 1.433 . S
C70 H79 0.933 . S
C71 Dy41 2.738 . S
C71 O51 1.255 . S
C71 O52 1.249 . S
C71 C65 1.516 . S
H72 C58 0.930 . S
H73 C59 0.931 . S
H74 C60 0.931 . S
H75 C61 0.933 . S
H76 C67 0.930 . S
H77 C68 0.931 . S
H78 C69 0.931 . S
H79 C70 0.933 . S
Dy80 O83 2.307 . S
Dy80 O85 2.395 1_655 S
Dy80 O86 2.379 1_655 S
Dy80 O88 2.339 . S
Dy80 O90 2.298 1_655 S
Dy80 O94 2.275 . S
Dy80 C102 2.738 1_655 S
Dy81 O84 2.298 . S
Dy81 O87 2.275 . S
Dy81 O89 2.307 . S
Dy81 O91 2.395 . S
Dy81 O92 2.379 . S
Dy81 O95 2.339 . S
Dy81 C111 2.738 . S
C82 O94 1.254 . S
C82 O95 1.257 . S
O83 Dy80 2.307 . S
O83 C93 1.266 . S
O84 Dy81 2.298 . S
O84 C93 1.236 . S
O85 Dy80 2.395 1_455 S
O85 C102 1.255 . S
O86 Dy80 2.379 1_455 S
O86 C102 1.249 . S
O87 Dy81 2.275 . S
O87 C103 1.254 . S
O88 Dy80 2.339 . S
O88 C103 1.257 . S
O89 Dy81 2.307 . S
O89 C104 1.266 . S
O90 Dy80 2.298 1_455 S
O90 C104 1.236 1_455 S
O91 Dy81 2.395 . S
O91 C111 1.255 . S
O92 Dy81 2.379 . S
O92 C111 1.249 . S
C93 O83 1.266 . S
C93 O84 1.236 . S
O94 Dy80 2.275 . S
O94 C82 1.254 . S
O95 Dy81 2.339 . S
O95 C82 1.257 . S
C96 C99 1.344 . S
C96 C100 1.328 . S
C96 C102 1.516 . S
C97 C98 1.304 . S
C97 C101 1.323 . S
C98 C97 1.304 . S
C98 C99 1.371 . S
C98 H112 0.930 . S
C99 C96 1.344 . S
C99 C98 1.371 . S
C99 H113 0.931 . S
C100 C96 1.328 . S
C100 C101 1.433 . S
C100 H114 0.931 . S
C101 C97 1.323 . S
C101 C100 1.433 . S
C101 H115 0.933 . S
C102 Dy80 2.738 1_455 S
C102 O85 1.255 . S
C102 O86 1.249 . S
C102 C96 1.516 . S
C103 O87 1.254 . S
C103 O88 1.257 . S
C104 O89 1.266 . S
C104 O90 1.236 1_655 S
C105 C108 1.344 . S
C105 C109 1.328 . S
C105 C111 1.516 . S
C106 C107 1.304 . S
C106 C110 1.323 . S
C107 C106 1.304 . S
C107 C108 1.371 . S
C107 H116 0.930 . S
C108 C105 1.344 . S
C108 C107 1.371 . S
C108 H117 0.931 . S
C109 C105 1.328 . S
C109 C110 1.433 . S
C109 H118 0.931 . S
C110 C106 1.323 . S
C110 C109 1.433 . S
C110 H119 0.933 . S
C111 Dy81 2.738 . S
C111 O91 1.255 . S
C111 O92 1.249 . S
C111 C105 1.516 . S
H112 C98 0.930 . S
H113 C99 0.931 . S
H114 C100 0.931 . S
H115 C101 0.933 . S
H116 C107 0.930 . S
H117 C108 0.931 . S
H118 C109 0.931 . S
H119 C110 0.933 . S
Dy120 O123 2.307 . S
Dy120 O125 2.395 1_565 S
Dy120 O126 2.379 1_565 S
Dy120 O128 2.339 . S
Dy120 O130 2.298 1_565 S
Dy120 O134 2.275 . S
Dy120 C142 2.738 1_565 S
Dy121 O124 2.298 . S
Dy121 O127 2.275 . S
Dy121 O129 2.307 . S
Dy121 O131 2.395 . S
Dy121 O132 2.379 . S
Dy121 O135 2.339 . S
Dy121 C151 2.738 . S
C122 O134 1.254 . S
C122 O135 1.257 . S
O123 Dy120 2.307 . S
O123 C133 1.266 . S
O124 Dy121 2.298 . S
O124 C133 1.236 . S
O125 Dy120 2.395 1_545 S
O125 C142 1.255 . S
O126 Dy120 2.379 1_545 S
O126 C142 1.249 . S
O127 Dy121 2.275 . S
O127 C143 1.254 . S
O128 Dy120 2.339 . S
O128 C143 1.257 . S
O129 Dy121 2.307 . S
O129 C144 1.266 . S
O130 Dy120 2.298 1_545 S
O130 C144 1.236 1_545 S
O131 Dy121 2.395 . S
O131 C151 1.255 . S
O132 Dy121 2.379 . S
O132 C151 1.249 . S
C133 O123 1.266 . S
C133 O124 1.236 . S
O134 Dy120 2.275 . S
O134 C122 1.254 . S
O135 Dy121 2.339 . S
O135 C122 1.257 . S
C136 C139 1.344 . S
C136 C140 1.328 . S
C136 C142 1.516 . S
C137 C138 1.304 . S
C137 C141 1.323 . S
C138 C137 1.304 . S
C138 C139 1.371 . S
C138 H152 0.930 . S
C139 C136 1.344 . S
C139 C138 1.371 . S
C139 H153 0.931 . S
C140 C136 1.328 . S
C140 C141 1.433 . S
C140 H154 0.931 . S
C141 C137 1.323 . S
C141 C140 1.433 . S
C141 H155 0.933 . S
C142 Dy120 2.738 1_545 S
C142 O125 1.255 . S
C142 O126 1.249 . S
C142 C136 1.516 . S
C143 O127 1.254 . S
C143 O128 1.257 . S
C144 O129 1.266 . S
C144 O130 1.236 1_565 S
C145 C148 1.344 . S
C145 C149 1.328 . S
C145 C151 1.516 . S
C146 C147 1.304 . S
C146 C150 1.323 . S
C147 C146 1.304 . S
C147 C148 1.371 . S
C147 H156 0.930 . S
C148 C145 1.344 . S
C148 C147 1.371 . S
C148 H157 0.931 . S
C149 C145 1.328 . S
C149 C150 1.433 . S
C149 H158 0.931 . S
C150 C146 1.323 . S
C150 C149 1.433 . S
C150 H159 0.933 . S
C151 Dy121 2.738 . S
C151 O131 1.255 . S
C151 O132 1.249 . S
C151 C145 1.516 . S
H152 C138 0.930 . S
H153 C139 0.931 . S
H154 C140 0.931 . S
H155 C141 0.933 . S
H156 C147 0.930 . S
H157 C148 0.931 . S
H158 C149 0.931 . S
H159 C150 0.933 . S
Dy160 O163 2.307 . S
Dy160 O165 2.395 1_455 S
Dy160 O166 2.379 1_455 S
Dy160 O168 2.339 . S
Dy160 O170 2.298 1_455 S
Dy160 O174 2.275 . S
Dy160 C182 2.738 1_455 S
Dy161 O164 2.298 . S
Dy161 O167 2.275 . S
Dy161 O169 2.307 . S
Dy161 O171 2.395 . S
Dy161 O172 2.379 . S
Dy161 O175 2.339 . S
Dy161 C191 2.738 . S
C162 O174 1.254 . S
C162 O175 1.257 . S
O163 Dy160 2.307 . S
O163 C173 1.266 . S
O164 Dy161 2.298 . S
O164 C173 1.236 . S
O165 Dy160 2.395 1_655 S
O165 C182 1.255 . S
O166 Dy160 2.379 1_655 S
O166 C182 1.249 . S
O167 Dy161 2.275 . S
O167 C183 1.254 . S
O168 Dy160 2.339 . S
O168 C183 1.257 . S
O169 Dy161 2.307 . S
O169 C184 1.266 . S
O170 Dy160 2.298 1_655 S
O170 C184 1.236 1_655 S
O171 Dy161 2.395 . S
O171 C191 1.255 . S
O172 Dy161 2.379 . S
O172 C191 1.249 . S
C173 O163 1.266 . S
C173 O164 1.236 . S
O174 Dy160 2.275 . S
O174 C162 1.254 . S
O175 Dy161 2.339 . S
O175 C162 1.257 . S
C176 C179 1.344 . S
C176 C180 1.328 . S
C176 C182 1.516 . S
C177 C178 1.304 . S
C177 C181 1.323 . S
C178 C177 1.304 . S
C178 C179 1.371 . S
C178 H192 0.930 . S
C179 C176 1.344 . S
C179 C178 1.371 . S
C179 H193 0.931 . S
C180 C176 1.328 . S
C180 C181 1.433 . S
C180 H194 0.931 . S
C181 C177 1.323 . S
C181 C180 1.433 . S
C181 H195 0.933 . S
C182 Dy160 2.738 1_655 S
C182 O165 1.255 . S
C182 O166 1.249 . S
C182 C176 1.516 . S
C183 O167 1.254 . S
C183 O168 1.257 . S
C184 O169 1.266 . S
C184 O170 1.236 1_455 S
C185 C188 1.344 . S
C185 C189 1.328 . S
C185 C191 1.516 . S
C186 C187 1.304 . S
C186 C190 1.323 . S
C187 C186 1.304 . S
C187 C188 1.371 . S
C187 H196 0.930 . S
C188 C185 1.344 . S
C188 C187 1.371 . S
C188 H197 0.931 . S
C189 C185 1.328 . S
C189 C190 1.433 . S
C189 H198 0.931 . S
C190 C186 1.323 . S
C190 C189 1.433 . S
C190 H199 0.933 . S
C191 Dy161 2.738 . S
C191 O171 1.255 . S
C191 O172 1.249 . S
C191 C185 1.516 . S
H192 C178 0.930 . S
H193 C179 0.931 . S
H194 C180 0.931 . S
H195 C181 0.933 . S
H196 C187 0.930 . S
H197 C188 0.931 . S
H198 C189 0.931 . S
H199 C190 0.933 . S
Dy200 O203 2.307 . S
Dy200 O205 2.395 1_545 S
Dy200 O206 2.379 1_545 S
Dy200 O208 2.339 . S
Dy200 O210 2.298 1_545 S
Dy200 O214 2.275 . S
Dy200 C222 2.738 1_545 S
Dy201 O204 2.298 . S
Dy201 O207 2.275 . S
Dy201 O209 2.307 . S
Dy201 O211 2.395 . S
Dy201 O212 2.379 . S
Dy201 O215 2.339 . S
Dy201 C231 2.738 . S
C202 O214 1.254 . S
C202 O215 1.257 . S
O203 Dy200 2.307 . S
O203 C213 1.266 . S
O204 Dy201 2.298 . S
O204 C213 1.236 . S
O205 Dy200 2.395 1_565 S
O205 C222 1.255 . S
O206 Dy200 2.379 1_565 S
O206 C222 1.249 . S
O207 Dy201 2.275 . S
O207 C223 1.254 . S
O208 Dy200 2.339 . S
O208 C223 1.257 . S
O209 Dy201 2.307 . S
O209 C224 1.266 . S
O210 Dy200 2.298 1_565 S
O210 C224 1.236 1_565 S
O211 Dy201 2.395 . S
O211 C231 1.255 . S
O212 Dy201 2.379 . S
O212 C231 1.249 . S
C213 O203 1.266 . S
C213 O204 1.236 . S
O214 Dy200 2.275 . S
O214 C202 1.254 . S
O215 Dy201 2.339 . S
O215 C202 1.257 . S
C216 C219 1.344 . S
C216 C220 1.328 . S
C216 C222 1.516 . S
C217 C218 1.304 . S
C217 C221 1.323 . S
C218 C217 1.304 . S
C218 C219 1.371 . S
C218 H232 0.930 . S
C219 C216 1.344 . S
C219 C218 1.371 . S
C219 H233 0.931 . S
C220 C216 1.328 . S
C220 C221 1.433 . S
C220 H234 0.931 . S
C221 C217 1.323 . S
C221 C220 1.433 . S
C221 H235 0.933 . S
C222 Dy200 2.738 1_565 S
C222 O205 1.255 . S
C222 O206 1.249 . S
C222 C216 1.516 . S
C223 O207 1.254 . S
C223 O208 1.257 . S
C224 O209 1.266 . S
C224 O210 1.236 1_545 S
C225 C228 1.344 . S
C225 C229 1.328 . S
C225 C231 1.516 . S
C226 C227 1.304 . S
C226 C230 1.323 . S
C227 C226 1.304 . S
C227 C228 1.371 . S
C227 H236 0.930 . S
C228 C225 1.344 . S
C228 C227 1.371 . S
C228 H237 0.931 . S
C229 C225 1.328 . S
C229 C230 1.433 . S
C229 H238 0.931 . S
C230 C226 1.323 . S
C230 C229 1.433 . S
C230 H239 0.933 . S
C231 Dy201 2.738 . S
C231 O211 1.255 . S
C231 O212 1.249 . S
C231 C225 1.516 . S
H232 C218 0.930 . S
H233 C219 0.931 . S
H234 C220 0.931 . S
H235 C221 0.933 . S
H236 C227 0.930 . S
H237 C228 0.931 . S
H238 C229 0.931 . S
H239 C230 0.933 . S
Dy240 O243 2.307 . S
Dy240 O245 2.395 . S
Dy240 O246 2.379 . S
Dy240 O248 2.339 . S
Dy240 O250 2.298 . S
Dy240 O254 2.275 . S
Dy240 C262 2.738 . S
Dy241 O244 2.298 . S
Dy241 O247 2.275 . S
Dy241 O249 2.307 . S
Dy241 O251 2.395 . S
Dy241 O252 2.379 . S
Dy241 O255 2.339 . S
Dy241 C271 2.738 . S
C242 O254 1.254 . S
C242 O255 1.257 . S
O243 Dy240 2.307 . S
O243 C253 1.266 . S
O244 Dy241 2.298 . S
O244 C253 1.236 . S
O245 Dy240 2.395 . S
O245 C262 1.255 . S
O246 Dy240 2.379 . S
O246 C262 1.249 . S
O247 Dy241 2.275 . S
O247 C263 1.254 . S
O248 Dy240 2.339 . S
O248 C263 1.257 . S
O249 Dy241 2.307 . S
O249 C264 1.266 . S
O250 Dy240 2.298 . S
O250 C264 1.236 . S
O251 Dy241 2.395 . S
O251 C271 1.255 . S
O252 Dy241 2.379 . S
O252 C271 1.249 . S
C253 O243 1.266 . S
C253 O244 1.236 . S
O254 Dy240 2.275 . S
O254 C242 1.254 . S
O255 Dy241 2.339 . S
O255 C242 1.257 . S
C256 C259 1.344 . S
C256 C260 1.328 . S
C256 C262 1.516 . S
C257 C258 1.304 . S
C257 C261 1.323 . S
C258 C257 1.304 . S
C258 C259 1.371 . S
C258 H272 0.930 . S
C259 C256 1.344 . S
C259 C258 1.371 . S
C259 H273 0.931 . S
C260 C256 1.328 . S
C260 C261 1.433 . S
C260 H274 0.931 . S
C261 C257 1.323 . S
C261 C260 1.433 . S
C261 H275 0.933 . S
C262 Dy240 2.738 . S
C262 O245 1.255 . S
C262 O246 1.249 . S
C262 C256 1.516 . S
C263 O247 1.254 . S
C263 O248 1.257 . S
C264 O249 1.266 . S
C264 O250 1.236 . S
C265 C268 1.344 . S
C265 C269 1.328 . S
C265 C271 1.516 . S
C266 C267 1.304 . S
C266 C270 1.323 . S
C267 C266 1.304 . S
C267 C268 1.371 . S
C267 H276 0.930 . S
C268 C265 1.344 . S
C268 C267 1.371 . S
C268 H277 0.931 . S
C269 C265 1.328 . S
C269 C270 1.433 . S
C269 H278 0.931 . S
C270 C266 1.323 . S
C270 C269 1.433 . S
C270 H279 0.933 . S
C271 Dy241 2.738 . S
C271 O251 1.255 . S
C271 O252 1.249 . S
C271 C265 1.516 . S
H272 C258 0.930 . S
H273 C259 0.931 . S
H274 C260 0.931 . S
H275 C261 0.933 . S
H276 C267 0.930 . S
H277 C268 0.931 . S
H278 C269 0.931 . S
H279 C270 0.933 . S
Dy280 O283 2.307 . S
Dy280 O285 2.395 . S
Dy280 O286 2.379 . S
Dy280 O288 2.339 . S
Dy280 O290 2.298 . S
Dy280 O294 2.275 . S
Dy280 C302 2.738 . S
Dy281 O284 2.298 . S
Dy281 O287 2.275 . S
Dy281 O289 2.307 . S
Dy281 O291 2.395 . S
Dy281 O292 2.379 . S
Dy281 O295 2.339 . S
Dy281 C311 2.738 . S
C282 O294 1.254 . S
C282 O295 1.257 . S
O283 Dy280 2.307 . S
O283 C293 1.266 . S
O284 Dy281 2.298 . S
O284 C293 1.236 . S
O285 Dy280 2.395 . S
O285 C302 1.255 . S
O286 Dy280 2.379 . S
O286 C302 1.249 . S
O287 Dy281 2.275 . S
O287 C303 1.254 . S
O288 Dy280 2.339 . S
O288 C303 1.257 . S
O289 Dy281 2.307 . S
O289 C304 1.266 . S
O290 Dy280 2.298 . S
O290 C304 1.236 . S
O291 Dy281 2.395 . S
O291 C311 1.255 . S
O292 Dy281 2.379 . S
O292 C311 1.249 . S
C293 O283 1.266 . S
C293 O284 1.236 . S
O294 Dy280 2.275 . S
O294 C282 1.254 . S
O295 Dy281 2.339 . S
O295 C282 1.257 . S
C296 C299 1.344 . S
C296 C300 1.328 . S
C296 C302 1.516 . S
C297 C298 1.304 . S
C297 C301 1.323 . S
C298 C297 1.304 . S
C298 C299 1.371 . S
C298 H312 0.930 . S
C299 C296 1.344 . S
C299 C298 1.371 . S
C299 H313 0.931 . S
C300 C296 1.328 . S
C300 C301 1.433 . S
C300 H314 0.931 . S
C301 C297 1.323 . S
C301 C300 1.433 . S
C301 H315 0.933 . S
C302 Dy280 2.738 . S
C302 O285 1.255 . S
C302 O286 1.249 . S
C302 C296 1.516 . S
C303 O287 1.254 . S
C303 O288 1.257 . S
C304 O289 1.266 . S
C304 O290 1.236 . S
C305 C308 1.344 . S
C305 C309 1.328 . S
C305 C311 1.516 . S
C306 C307 1.304 . S
C306 C310 1.323 . S
C307 C306 1.304 . S
C307 C308 1.371 . S
C307 H316 0.930 . S
C308 C305 1.344 . S
C308 C307 1.371 . S
C308 H317 0.931 . S
C309 C305 1.328 . S
C309 C310 1.433 . S
C309 H318 0.931 . S
C310 C306 1.323 . S
C310 C309 1.433 . S
C310 H319 0.933 . S
C311 Dy281 2.738 . S
C311 O291 1.255 . S
C311 O292 1.249 . S
C311 C305 1.516 . S
H312 C298 0.930 . S
H313 C299 0.931 . S
H314 C300 0.931 . S
H315 C301 0.933 . S
H316 C307 0.930 . S
H317 C308 0.931 . S
H318 C309 0.931 . S
H319 C310 0.933 . S
Dy320 O323 2.307 . S
Dy320 O325 2.395 . S
Dy320 O326 2.379 . S
Dy320 O328 2.339 . S
Dy320 O330 2.298 . S
Dy320 O334 2.275 . S
Dy320 C342 2.738 . S
Dy321 O324 2.298 . S
Dy321 O327 2.275 . S
Dy321 O329 2.307 . S
Dy321 O331 2.395 . S
Dy321 O332 2.379 . S
Dy321 O335 2.339 . S
Dy321 C351 2.738 . S
C322 O334 1.254 . S
C322 O335 1.257 . S
O323 Dy320 2.307 . S
O323 C333 1.266 . S
O324 Dy321 2.298 . S
O324 C333 1.236 . S
O325 Dy320 2.395 . S
O325 C342 1.255 . S
O326 Dy320 2.379 . S
O326 C342 1.249 . S
O327 Dy321 2.275 . S
O327 C343 1.254 . S
O328 Dy320 2.339 . S
O328 C343 1.257 . S
O329 Dy321 2.307 . S
O329 C344 1.266 . S
O330 Dy320 2.298 . S
O330 C344 1.236 . S
O331 Dy321 2.395 . S
O331 C351 1.255 . S
O332 Dy321 2.379 . S
O332 C351 1.249 . S
C333 O323 1.266 . S
C333 O324 1.236 . S
O334 Dy320 2.275 . S
O334 C322 1.254 . S
O335 Dy321 2.339 . S
O335 C322 1.257 . S
C336 C339 1.344 . S
C336 C340 1.328 . S
C336 C342 1.516 . S
C337 C338 1.304 . S
C337 C341 1.323 . S
C338 C337 1.304 . S
C338 C339 1.371 . S
C338 H352 0.930 . S
C339 C336 1.344 . S
C339 C338 1.371 . S
C339 H353 0.931 . S
C340 C336 1.328 . S
C340 C341 1.433 . S
C340 H354 0.931 . S
C341 C337 1.323 . S
C341 C340 1.433 . S
C341 H355 0.933 . S
C342 Dy320 2.738 . S
C342 O325 1.255 . S
C342 O326 1.249 . S
C342 C336 1.516 . S
C343 O327 1.254 . S
C343 O328 1.257 . S
C344 O329 1.266 . S
C344 O330 1.236 . S
C345 C348 1.344 . S
C345 C349 1.328 . S
C345 C351 1.516 . S
C346 C347 1.304 . S
C346 C350 1.323 . S
C347 C346 1.304 . S
C347 C348 1.371 . S
C347 H356 0.930 . S
C348 C345 1.344 . S
C348 C347 1.371 . S
C348 H357 0.931 . S
C349 C345 1.328 . S
C349 C350 1.433 . S
C349 H358 0.931 . S
C350 C346 1.323 . S
C350 C349 1.433 . S
C350 H359 0.933 . S
C351 Dy321 2.738 . S
C351 O331 1.255 . S
C351 O332 1.249 . S
C351 C345 1.516 . S
H352 C338 0.930 . S
H353 C339 0.931 . S
H354 C340 0.931 . S
H355 C341 0.933 . S
H356 C347 0.930 . S
H357 C348 0.931 . S
H358 C349 0.931 . S
H359 C350 0.933 . S
Dy360 O363 2.307 . S
Dy360 O365 2.395 . S
Dy360 O366 2.379 . S
Dy360 O368 2.339 . S
Dy360 O370 2.298 . S
Dy360 O374 2.275 . S
Dy360 C382 2.738 . S
Dy361 O364 2.298 . S
Dy361 O367 2.275 . S
Dy361 O369 2.307 . S
Dy361 O371 2.395 . S
Dy361 O372 2.379 . S
Dy361 O375 2.339 . S
Dy361 C391 2.738 . S
C362 O374 1.254 . S
C362 O375 1.257 . S
O363 Dy360 2.307 . S
O363 C373 1.266 . S
O364 Dy361 2.298 . S
O364 C373 1.236 . S
O365 Dy360 2.395 . S
O365 C382 1.255 . S
O366 Dy360 2.379 . S
O366 C382 1.249 . S
O367 Dy361 2.275 . S
O367 C383 1.254 . S
O368 Dy360 2.339 . S
O368 C383 1.257 . S
O369 Dy361 2.307 . S
O369 C384 1.266 . S
O370 Dy360 2.298 . S
O370 C384 1.236 . S
O371 Dy361 2.395 . S
O371 C391 1.255 . S
O372 Dy361 2.379 . S
O372 C391 1.249 . S
C373 O363 1.266 . S
C373 O364 1.236 . S
O374 Dy360 2.275 . S
O374 C362 1.254 . S
O375 Dy361 2.339 . S
O375 C362 1.257 . S
C376 C379 1.344 . S
C376 C380 1.328 . S
C376 C382 1.516 . S
C377 C378 1.304 . S
C377 C381 1.323 . S
C378 C377 1.304 . S
C378 C379 1.371 . S
C378 H392 0.930 . S
C379 C376 1.344 . S
C379 C378 1.371 . S
C379 H393 0.931 . S
C380 C376 1.328 . S
C380 C381 1.433 . S
C380 H394 0.931 . S
C381 C377 1.323 . S
C381 C380 1.433 . S
C381 H395 0.933 . S
C382 Dy360 2.738 . S
C382 O365 1.255 . S
C382 O366 1.249 . S
C382 C376 1.516 . S
C383 O367 1.254 . S
C383 O368 1.257 . S
C384 O369 1.266 . S
C384 O370 1.236 . S
C385 C388 1.344 . S
C385 C389 1.328 . S
C385 C391 1.516 . S
C386 C387 1.304 . S
C386 C390 1.323 . S
C387 C386 1.304 . S
C387 C388 1.371 . S
C387 H396 0.930 . S
C388 C385 1.344 . S
C388 C387 1.371 . S
C388 H397 0.931 . S
C389 C385 1.328 . S
C389 C390 1.433 . S
C389 H398 0.931 . S
C390 C386 1.323 . S
C390 C389 1.433 . S
C390 H399 0.933 . S
C391 Dy361 2.738 . S
C391 O371 1.255 . S
C391 O372 1.249 . S
C391 C385 1.516 . S
H392 C378 0.930 . S
H393 C379 0.931 . S
H394 C380 0.931 . S
H395 C381 0.933 . S
H396 C387 0.930 . S
H397 C388 0.931 . S
H398 C389 0.931 . S
H399 C390 0.933 . S
Dy400 O403 2.307 . S
Dy400 O405 2.395 . S
Dy400 O406 2.379 . S
Dy400 O408 2.339 . S
Dy400 O410 2.298 . S
Dy400 O414 2.275 . S
Dy400 C422 2.738 . S
Dy401 O404 2.298 1_455 S
Dy401 O407 2.275 . S
Dy401 O409 2.307 . S
Dy401 O411 2.395 1_455 S
Dy401 O412 2.379 1_455 S
Dy401 O415 2.339 . S
Dy401 C431 2.738 1_455 S
C402 O414 1.254 . S
C402 O415 1.257 . S
O403 Dy400 2.307 . S
O403 C413 1.266 . S
O404 Dy401 2.298 1_655 S
O404 C413 1.236 1_655 S
O405 Dy400 2.395 . S
O405 C422 1.255 . S
O406 Dy400 2.379 . S
O406 C422 1.249 . S
O407 Dy401 2.275 . S
O407 C423 1.254 . S
O408 Dy400 2.339 . S
O408 C423 1.257 . S
O409 Dy401 2.307 . S
O409 C424 1.266 . S
O410 Dy400 2.298 . S
O410 C424 1.236 . S
O411 Dy401 2.395 1_655 S
O411 C431 1.255 . S
O412 Dy401 2.379 1_655 S
O412 C431 1.249 . S
C413 O403 1.266 . S
C413 O404 1.236 1_455 S
O414 Dy400 2.275 . S
O414 C402 1.254 . S
O415 Dy401 2.339 . S
O415 C402 1.257 . S
C416 C419 1.344 . S
C416 C420 1.328 . S
C416 C422 1.516 . S
C417 C418 1.304 . S
C417 C421 1.323 . S
C418 C417 1.304 . S
C418 C419 1.371 . S
C418 H432 0.930 . S
C419 C416 1.344 . S
C419 C418 1.371 . S
C419 H433 0.931 . S
C420 C416 1.328 . S
C420 C421 1.433 . S
C420 H434 0.931 . S
C421 C417 1.323 . S
C421 C420 1.433 . S
C421 H435 0.933 . S
C422 Dy400 2.738 . S
C422 O405 1.255 . S
C422 O406 1.249 . S
C422 C416 1.516 . S
C423 O407 1.254 . S
C423 O408 1.257 . S
C424 O409 1.266 . S
C424 O410 1.236 . S
C425 C428 1.344 . S
C425 C429 1.328 . S
C425 C431 1.516 . S
C426 C427 1.304 . S
C426 C430 1.323 . S
C427 C426 1.304 . S
C427 C428 1.371 . S
C427 H436 0.930 . S
C428 C425 1.344 . S
C428 C427 1.371 . S
C428 H437 0.931 . S
C429 C425 1.328 . S
C429 C430 1.433 . S
C429 H438 0.931 . S
C430 C426 1.323 . S
C430 C429 1.433 . S
C430 H439 0.933 . S
C431 Dy401 2.738 1_655 S
C431 O411 1.255 . S
C431 O412 1.249 . S
C431 C425 1.516 . S
H432 C418 0.930 . S
H433 C419 0.931 . S
H434 C420 0.931 . S
H435 C421 0.933 . S
H436 C427 0.930 . S
H437 C428 0.931 . S
H438 C429 0.931 . S
H439 C430 0.933 . S
Dy440 O443 2.307 . S
Dy440 O445 2.395 . S
Dy440 O446 2.379 . S
Dy440 O448 2.339 . S
Dy440 O450 2.298 . S
Dy440 O454 2.275 . S
Dy440 C462 2.738 . S
Dy441 O444 2.298 1_545 S
Dy441 O447 2.275 . S
Dy441 O449 2.307 . S
Dy441 O451 2.395 1_545 S
Dy441 O452 2.379 1_545 S
Dy441 O455 2.339 . S
Dy441 C471 2.738 1_545 S
C442 O454 1.254 . S
C442 O455 1.257 . S
O443 Dy440 2.307 . S
O443 C453 1.266 . S
O444 Dy441 2.298 1_565 S
O444 C453 1.236 1_565 S
O445 Dy440 2.395 . S
O445 C462 1.255 . S
O446 Dy440 2.379 . S
O446 C462 1.249 . S
O447 Dy441 2.275 . S
O447 C463 1.254 . S
O448 Dy440 2.339 . S
O448 C463 1.257 . S
O449 Dy441 2.307 . S
O449 C464 1.266 . S
O450 Dy440 2.298 . S
O450 C464 1.236 . S
O451 Dy441 2.395 1_565 S
O451 C471 1.255 . S
O452 Dy441 2.379 1_565 S
O452 C471 1.249 . S
C453 O443 1.266 . S
C453 O444 1.236 1_545 S
O454 Dy440 2.275 . S
O454 C442 1.254 . S
O455 Dy441 2.339 . S
O455 C442 1.257 . S
C456 C459 1.344 . S
C456 C460 1.328 . S
C456 C462 1.516 . S
C457 C458 1.304 . S
C457 C461 1.323 . S
C458 C457 1.304 . S
C458 C459 1.371 . S
C458 H472 0.930 . S
C459 C456 1.344 . S
C459 C458 1.371 . S
C459 H473 0.931 . S
C460 C456 1.328 . S
C460 C461 1.433 . S
C460 H474 0.931 . S
C461 C457 1.323 . S
C461 C460 1.433 . S
C461 H475 0.933 . S
C462 Dy440 2.738 . S
C462 O445 1.255 . S
C462 O446 1.249 . S
C462 C456 1.516 . S
C463 O447 1.254 . S
C463 O448 1.257 . S
C464 O449 1.266 . S
C464 O450 1.236 . S
C465 C468 1.344 . S
C465 C469 1.328 . S
C465 C471 1.516 . S
C466 C467 1.304 . S
C466 C470 1.323 . S
C467 C466 1.304 . S
C467 C468 1.371 . S
C467 H476 0.930 . S
C468 C465 1.344 . S
C468 C467 1.371 . S
C468 H477 0.931 . S
C469 C465 1.328 . S
C469 C470 1.433 . S
C469 H478 0.931 . S
C470 C466 1.323 . S
C470 C469 1.433 . S
C470 H479 0.933 . S
C471 Dy441 2.738 1_565 S
C471 O451 1.255 . S
C471 O452 1.249 . S
C471 C465 1.516 . S
H472 C458 0.930 . S
H473 C459 0.931 . S
H474 C460 0.931 . S
H475 C461 0.933 . S
H476 C467 0.930 . S
H477 C468 0.931 . S
H478 C469 0.931 . S
H479 C470 0.933 . S
Dy480 O483 2.307 . S
Dy480 O485 2.395 . S
Dy480 O486 2.379 . S
Dy480 O488 2.339 . S
Dy480 O490 2.298 . S
Dy480 O494 2.275 . S
Dy480 C502 2.738 . S
Dy481 O484 2.298 1_655 S
Dy481 O487 2.275 . S
Dy481 O489 2.307 . S
Dy481 O491 2.395 1_655 S
Dy481 O492 2.379 1_655 S
Dy481 O495 2.339 . S
Dy481 C511 2.738 1_655 S
C482 O494 1.254 . S
C482 O495 1.257 . S
O483 Dy480 2.307 . S
O483 C493 1.266 . S
O484 Dy481 2.298 1_455 S
O484 C493 1.236 1_455 S
O485 Dy480 2.395 . S
O485 C502 1.255 . S
O486 Dy480 2.379 . S
O486 C502 1.249 . S
O487 Dy481 2.275 . S
O487 C503 1.254 . S
O488 Dy480 2.339 . S
O488 C503 1.257 . S
O489 Dy481 2.307 . S
O489 C504 1.266 . S
O490 Dy480 2.298 . S
O490 C504 1.236 . S
O491 Dy481 2.395 1_455 S
O491 C511 1.255 . S
O492 Dy481 2.379 1_455 S
O492 C511 1.249 . S
C493 O483 1.266 . S
C493 O484 1.236 1_655 S
O494 Dy480 2.275 . S
O494 C482 1.254 . S
O495 Dy481 2.339 . S
O495 C482 1.257 . S
C496 C499 1.344 . S
C496 C500 1.328 . S
C496 C502 1.516 . S
C497 C498 1.304 . S
C497 C501 1.323 . S
C498 C497 1.304 . S
C498 C499 1.371 . S
C498 H512 0.930 . S
C499 C496 1.344 . S
C499 C498 1.371 . S
C499 H513 0.931 . S
C500 C496 1.328 . S
C500 C501 1.433 . S
C500 H514 0.931 . S
C501 C497 1.323 . S
C501 C500 1.433 . S
C501 H515 0.933 . S
C502 Dy480 2.738 . S
C502 O485 1.255 . S
C502 O486 1.249 . S
C502 C496 1.516 . S
C503 O487 1.254 . S
C503 O488 1.257 . S
C504 O489 1.266 . S
C504 O490 1.236 . S
C505 C508 1.344 . S
C505 C509 1.328 . S
C505 C511 1.516 . S
C506 C507 1.304 . S
C506 C510 1.323 . S
C507 C506 1.304 . S
C507 C508 1.371 . S
C507 H516 0.930 . S
C508 C505 1.344 . S
C508 C507 1.371 . S
C508 H517 0.931 . S
C509 C505 1.328 . S
C509 C510 1.433 . S
C509 H518 0.931 . S
C510 C506 1.323 . S
C510 C509 1.433 . S
C510 H519 0.933 . S
C511 Dy481 2.738 1_455 S
C511 O491 1.255 . S
C511 O492 1.249 . S
C511 C505 1.516 . S
H512 C498 0.930 . S
H513 C499 0.931 . S
H514 C500 0.931 . S
H515 C501 0.933 . S
H516 C507 0.930 . S
H517 C508 0.931 . S
H518 C509 0.931 . S
H519 C510 0.933 . S
Dy520 O523 2.307 . S
Dy520 O525 2.395 . S
Dy520 O526 2.379 . S
Dy520 O528 2.339 . S
Dy520 O530 2.298 . S
Dy520 O534 2.275 . S
Dy520 C542 2.738 . S
Dy521 O524 2.298 1_565 S
Dy521 O527 2.275 . S
Dy521 O529 2.307 . S
Dy521 O531 2.395 1_565 S
Dy521 O532 2.379 1_565 S
Dy521 O535 2.339 . S
Dy521 C551 2.738 1_565 S
C522 O534 1.254 . S
C522 O535 1.257 . S
O523 Dy520 2.307 . S
O523 C533 1.266 . S
O524 Dy521 2.298 1_545 S
O524 C533 1.236 1_545 S
O525 Dy520 2.395 . S
O525 C542 1.255 . S
O526 Dy520 2.379 . S
O526 C542 1.249 . S
O527 Dy521 2.275 . S
O527 C543 1.254 . S
O528 Dy520 2.339 . S
O528 C543 1.257 . S
O529 Dy521 2.307 . S
O529 C544 1.266 . S
O530 Dy520 2.298 . S
O530 C544 1.236 . S
O531 Dy521 2.395 1_545 S
O531 C551 1.255 . S
O532 Dy521 2.379 1_545 S
O532 C551 1.249 . S
C533 O523 1.266 . S
C533 O524 1.236 1_565 S
O534 Dy520 2.275 . S
O534 C522 1.254 . S
O535 Dy521 2.339 . S
O535 C522 1.257 . S
C536 C539 1.344 . S
C536 C540 1.328 . S
C536 C542 1.516 . S
C537 C538 1.304 . S
C537 C541 1.323 . S
C538 C537 1.304 . S
C538 C539 1.371 . S
C538 H552 0.930 . S
C539 C536 1.344 . S
C539 C538 1.371 . S
C539 H553 0.931 . S
C540 C536 1.328 . S
C540 C541 1.433 . S
C540 H554 0.931 . S
C541 C537 1.323 . S
C541 C540 1.433 . S
C541 H555 0.933 . S
C542 Dy520 2.738 . S
C542 O525 1.255 . S
C542 O526 1.249 . S
C542 C536 1.516 . S
C543 O527 1.254 . S
C543 O528 1.257 . S
C544 O529 1.266 . S
C544 O530 1.236 . S
C545 C548 1.344 . S
C545 C549 1.328 . S
C545 C551 1.516 . S
C546 C547 1.304 . S
C546 C550 1.323 . S
C547 C546 1.304 . S
C547 C548 1.371 . S
C547 H556 0.930 . S
C548 C545 1.344 . S
C548 C547 1.371 . S
C548 H557 0.931 . S
C549 C545 1.328 . S
C549 C550 1.433 . S
C549 H558 0.931 . S
C550 C546 1.323 . S
C550 C549 1.433 . S
C550 H559 0.933 . S
C551 Dy521 2.738 1_545 S
C551 O531 1.255 . S
C551 O532 1.249 . S
C551 C545 1.516 . S
H552 C538 0.930 . S
H553 C539 0.931 . S
H554 C540 0.931 . S
H555 C541 0.933 . S
H556 C547 0.930 . S
H557 C548 0.931 . S
H558 C549 0.931 . S
H559 C550 0.933 . S
Dy560 O563 2.307 . S
Dy560 O565 2.395 . S
Dy560 O566 2.379 . S
Dy560 O568 2.339 . S
Dy560 O570 2.298 . S
Dy560 O574 2.275 . S
Dy560 C582 2.738 . S
Dy561 O564 2.298 . S
Dy561 O567 2.275 . S
Dy561 O569 2.307 . S
Dy561 O571 2.395 . S
Dy561 O572 2.379 . S
Dy561 O575 2.339 . S
Dy561 C591 2.738 . S
C562 O574 1.254 . S
C562 O575 1.257 . S
O563 Dy560 2.307 . S
O563 C573 1.266 . S
O564 Dy561 2.298 . S
O564 C573 1.236 . S
O565 Dy560 2.395 . S
O565 C582 1.255 . S
O566 Dy560 2.379 . S
O566 C582 1.249 . S
O567 Dy561 2.275 . S
O567 C583 1.254 . S
O568 Dy560 2.339 . S
O568 C583 1.257 . S
O569 Dy561 2.307 . S
O569 C584 1.266 . S
O570 Dy560 2.298 . S
O570 C584 1.236 . S
O571 Dy561 2.395 . S
O571 C591 1.255 . S
O572 Dy561 2.379 . S
O572 C591 1.249 . S
C573 O563 1.266 . S
C573 O564 1.236 . S
O574 Dy560 2.275 . S
O574 C562 1.254 . S
O575 Dy561 2.339 . S
O575 C562 1.257 . S
C576 C579 1.344 . S
C576 C580 1.328 . S
C576 C582 1.516 . S
C577 C578 1.304 . S
C577 C581 1.323 . S
C578 C577 1.304 . S
C578 C579 1.371 . S
C578 H592 0.930 . S
C579 C576 1.344 . S
C579 C578 1.371 . S
C579 H593 0.931 . S
C580 C576 1.328 . S
C580 C581 1.433 . S
C580 H594 0.931 . S
C581 C577 1.323 . S
C581 C580 1.433 . S
C581 H595 0.933 . S
C582 Dy560 2.738 . S
C582 O565 1.255 . S
C582 O566 1.249 . S
C582 C576 1.516 . S
C583 O567 1.254 . S
C583 O568 1.257 . S
C584 O569 1.266 . S
C584 O570 1.236 . S
C585 C588 1.344 . S
C585 C589 1.328 . S
C585 C591 1.516 . S
C586 C587 1.304 . S
C586 C590 1.323 . S
C587 C586 1.304 . S
C587 C588 1.371 . S
C587 H596 0.930 . S
C588 C585 1.344 . S
C588 C587 1.371 . S
C588 H597 0.931 . S
C589 C585 1.328 . S
C589 C590 1.433 . S
C589 H598 0.931 . S
C590 C586 1.323 . S
C590 C589 1.433 . S
C590 H599 0.933 . S
C591 Dy561 2.738 . S
C591 O571 1.255 . S
C591 O572 1.249 . S
C591 C585 1.516 . S
H592 C578 0.930 . S
H593 C579 0.931 . S
H594 C580 0.931 . S
H595 C581 0.933 . S
H596 C587 0.930 . S
H597 C588 0.931 . S
H598 C589 0.931 . S
H599 C590 0.933 . S
Dy600 O603 2.307 . S
Dy600 O605 2.395 . S
Dy600 O606 2.379 . S
Dy600 O608 2.339 . S
Dy600 O610 2.298 . S
Dy600 O614 2.275 . S
Dy600 C622 2.738 . S
Dy601 O604 2.298 . S
Dy601 O607 2.275 . S
Dy601 O609 2.307 . S
Dy601 O611 2.395 . S
Dy601 O612 2.379 . S
Dy601 O615 2.339 . S
Dy601 C631 2.738 . S
C602 O614 1.254 . S
C602 O615 1.257 . S
O603 Dy600 2.307 . S
O603 C613 1.266 . S
O604 Dy601 2.298 . S
O604 C613 1.236 . S
O605 Dy600 2.395 . S
O605 C622 1.255 . S
O606 Dy600 2.379 . S
O606 C622 1.249 . S
O607 Dy601 2.275 . S
O607 C623 1.254 . S
O608 Dy600 2.339 . S
O608 C623 1.257 . S
O609 Dy601 2.307 . S
O609 C624 1.266 . S
O610 Dy600 2.298 . S
O610 C624 1.236 . S
O611 Dy601 2.395 . S
O611 C631 1.255 . S
O612 Dy601 2.379 . S
O612 C631 1.249 . S
C613 O603 1.266 . S
C613 O604 1.236 . S
O614 Dy600 2.275 . S
O614 C602 1.254 . S
O615 Dy601 2.339 . S
O615 C602 1.257 . S
C616 C619 1.344 . S
C616 C620 1.328 . S
C616 C622 1.516 . S
C617 C618 1.304 . S
C617 C621 1.323 . S
C618 C617 1.304 . S
C618 C619 1.371 . S
C618 H632 0.930 . S
C619 C616 1.344 . S
C619 C618 1.371 . S
C619 H633 0.931 . S
C620 C616 1.328 . S
C620 C621 1.433 . S
C620 H634 0.931 . S
C621 C617 1.323 . S
C621 C620 1.433 . S
C621 H635 0.933 . S
C622 Dy600 2.738 . S
C622 O605 1.255 . S
C622 O606 1.249 . S
C622 C616 1.516 . S
C623 O607 1.254 . S
C623 O608 1.257 . S
C624 O609 1.266 . S
C624 O610 1.236 . S
C625 C628 1.344 . S
C625 C629 1.328 . S
C625 C631 1.516 . S
C626 C627 1.304 . S
C626 C630 1.323 . S
C627 C626 1.304 . S
C627 C628 1.371 . S
C627 H636 0.930 . S
C628 C625 1.344 . S
C628 C627 1.371 . S
C628 H637 0.931 . S
C629 C625 1.328 . S
C629 C630 1.433 . S
C629 H638 0.931 . S
C630 C626 1.323 . S
C630 C629 1.433 . S
C630 H639 0.933 . S
C631 Dy601 2.738 . S
C631 O611 1.255 . S
C631 O612 1.249 . S
C631 C625 1.516 . S
H632 C618 0.930 . S
H633 C619 0.931 . S
H634 C620 0.931 . S
H635 C621 0.933 . S
H636 C627 0.930 . S
H637 C628 0.931 . S
H638 C629 0.931 . S
H639 C630 0.933 . S
H640 C652 0.930 . S
H641 C654 0.930 . S
H642 C655 0.930 . S
H643 C659 0.959 . S
H644 C659 0.959 . S
H645 C659 0.961 . S
H646 C660 0.960 . S
H647 C660 0.961 . S
H648 C660 0.959 . S
H649 C663 0.929 . S
H650 C664 0.931 . S
H651 C666 0.930 . S
C652 H640 0.930 . S
C652 C653 1.399 . S
C652 C657 1.399 . S
C653 C652 1.399 . S
C653 C654 1.376 . S
C654 H641 0.930 . S
C654 C653 1.376 . S
C654 C655 1.388 . S
C655 H642 0.930 . S
C655 C654 1.388 . S
C655 C656 1.390 . S
C656 C655 1.390 . S
C656 C657 1.394 . S
C656 C662 1.465 . S
C657 C652 1.399 . S
C657 C656 1.394 . S
C657 C658 1.516 . S
C658 C657 1.516 . S
C658 C659 1.502 . S
C658 C660 1.561 . S
C658 C661 1.526 . S
C659 H643 0.959 . S
C659 H644 0.959 . S
C659 H645 0.961 . S
C659 C658 1.502 . S
C660 H646 0.960 . S
C660 H647 0.961 . S
C660 H648 0.959 . S
C660 C658 1.561 . S
C661 C658 1.526 . S
C661 C662 1.396 . S
C661 C666 1.390 . S
C662 C656 1.465 . S
C662 C661 1.396 . S
C662 C663 1.399 . S
C663 H649 0.929 . S
C663 C662 1.399 . S
C663 C664 1.385 . S
C664 H650 0.931 . S
C664 C663 1.385 . S
C664 C665 1.389 . S
C665 C664 1.389 . S
C665 C666 1.387 . S
C666 H651 0.930 . S
C666 C661 1.390 . S
C666 C665 1.387 . S
H667 C679 0.930 . S
H668 C681 0.930 . S
H669 C682 0.930 . S
H670 C686 0.959 . S
H671 C686 0.959 . S
H672 C686 0.961 . S
H673 C687 0.960 . S
H674 C687 0.961 . S
H675 C687 0.959 . S
H676 C690 0.929 . S
H677 C691 0.931 . S
H678 C693 0.930 . S
C679 H667 0.930 . S
C679 C680 1.399 . S
C679 C684 1.399 . S
C680 C679 1.399 . S
C680 C681 1.376 . S
C681 H668 0.930 . S
C681 C680 1.376 . S
C681 C682 1.388 . S
C682 H669 0.930 . S
C682 C681 1.388 . S
C682 C683 1.390 . S
C683 C682 1.390 . S
C683 C684 1.394 . S
C683 C689 1.465 . S
C684 C679 1.399 . S
C684 C683 1.394 . S
C684 C685 1.516 . S
C685 C684 1.516 . S
C685 C686 1.502 . S
C685 C687 1.561 . S
C685 C688 1.526 . S
C686 H670 0.959 . S
C686 H671 0.959 . S
C686 H672 0.961 . S
C686 C685 1.502 . S
C687 H673 0.960 . S
C687 H674 0.961 . S
C687 H675 0.959 . S
C687 C685 1.561 . S
C688 C685 1.526 . S
C688 C689 1.396 . S
C688 C693 1.390 . S
C689 C683 1.465 . S
C689 C688 1.396 . S
C689 C690 1.399 . S
C690 H676 0.929 . S
C690 C689 1.399 . S
C690 C691 1.385 . S
C691 H677 0.931 . S
C691 C690 1.385 . S
C691 C692 1.389 . S
C692 C691 1.389 . S
C692 C693 1.387 . S
C693 H678 0.930 . S
C693 C688 1.390 . S
C693 C692 1.387 . S
H694 C706 0.930 . S
H695 C708 0.930 . S
H696 C709 0.930 . S
H697 C713 0.959 . S
H698 C713 0.959 . S
H699 C713 0.961 . S
H700 C714 0.960 . S
H701 C714 0.961 . S
H702 C714 0.959 . S
H703 C717 0.929 . S
H704 C718 0.931 . S
H705 C720 0.930 . S
C706 H694 0.930 . S
C706 C707 1.399 . S
C706 C711 1.399 . S
C707 C706 1.399 . S
C707 C708 1.376 . S
C708 H695 0.930 . S
C708 C707 1.376 . S
C708 C709 1.388 . S
C709 H696 0.930 . S
C709 C708 1.388 . S
C709 C710 1.390 . S
C710 C709 1.390 . S
C710 C711 1.394 . S
C710 C716 1.465 . S
C711 C706 1.399 . S
C711 C710 1.394 . S
C711 C712 1.516 . S
C712 C711 1.516 . S
C712 C713 1.502 . S
C712 C714 1.561 . S
C712 C715 1.526 . S
C713 H697 0.959 . S
C713 H698 0.959 . S
C713 H699 0.961 . S
C713 C712 1.502 . S
C714 H700 0.960 . S
C714 H701 0.961 . S
C714 H702 0.959 . S
C714 C712 1.561 . S
C715 C712 1.526 . S
C715 C716 1.396 . S
C715 C720 1.390 . S
C716 C710 1.465 . S
C716 C715 1.396 . S
C716 C717 1.399 . S
C717 H703 0.929 . S
C717 C716 1.399 . S
C717 C718 1.385 . S
C718 H704 0.931 . S
C718 C717 1.385 . S
C718 C719 1.389 . S
C719 C718 1.389 . S
C719 C720 1.387 . S
C720 H705 0.930 . S
C720 C715 1.390 . S
C720 C719 1.387 . S
H721 C733 0.930 . S
H722 C735 0.930 . S
H723 C736 0.930 . S
H724 C740 0.959 . S
H725 C740 0.959 . S
H726 C740 0.961 . S
H727 C741 0.960 . S
H728 C741 0.961 . S
H729 C741 0.959 . S
H730 C744 0.929 . S
H731 C745 0.931 . S
H732 C747 0.930 . S
C733 H721 0.930 . S
C733 C734 1.399 . S
C733 C738 1.399 . S
C734 C733 1.399 . S
C734 C735 1.376 . S
C735 H722 0.930 . S
C735 C734 1.376 . S
C735 C736 1.388 . S
C736 H723 0.930 . S
C736 C735 1.388 . S
C736 C737 1.390 . S
C737 C736 1.390 . S
C737 C738 1.394 . S
C737 C743 1.465 . S
C738 C733 1.399 . S
C738 C737 1.394 . S
C738 C739 1.516 . S
C739 C738 1.516 . S
C739 C740 1.502 . S
C739 C741 1.561 . S
C739 C742 1.526 . S
C740 H724 0.959 . S
C740 H725 0.959 . S
C740 H726 0.961 . S
C740 C739 1.502 . S
C741 H727 0.960 . S
C741 H728 0.961 . S
C741 H729 0.959 . S
C741 C739 1.561 . S
C742 C739 1.526 . S
C742 C743 1.396 . S
C742 C747 1.390 . S
C743 C737 1.465 . S
C743 C742 1.396 . S
C743 C744 1.399 . S
C744 H730 0.929 . S
C744 C743 1.399 . S
C744 C745 1.385 . S
C745 H731 0.931 . S
C745 C744 1.385 . S
C745 C746 1.389 . S
C746 C745 1.389 . S
C746 C747 1.387 . S
C747 H732 0.930 . S
C747 C742 1.390 . S
C747 C746 1.387 . S
H748 C760 0.930 . S
H749 C762 0.930 . S
H750 C763 0.930 . S
H751 C767 0.959 . S
H752 C767 0.959 . S
H753 C767 0.961 . S
H754 C768 0.960 . S
H755 C768 0.961 . S
H756 C768 0.959 . S
H757 C771 0.929 . S
H758 C772 0.931 . S
H759 C774 0.930 . S
C760 H748 0.930 . S
C760 C761 1.399 . S
C760 C765 1.399 . S
C761 C760 1.399 . S
C761 C762 1.376 . S
C762 H749 0.930 . S
C762 C761 1.376 . S
C762 C763 1.388 . S
C763 H750 0.930 . S
C763 C762 1.388 . S
C763 C764 1.390 . S
C764 C763 1.390 . S
C764 C765 1.394 . S
C764 C770 1.465 . S
C765 C760 1.399 . S
C765 C764 1.394 . S
C765 C766 1.516 . S
C766 C765 1.516 . S
C766 C767 1.502 . S
C766 C768 1.561 . S
C766 C769 1.526 . S
C767 H751 0.959 . S
C767 H752 0.959 . S
C767 H753 0.961 . S
C767 C766 1.502 . S
C768 H754 0.960 . S
C768 H755 0.961 . S
C768 H756 0.959 . S
C768 C766 1.561 . S
C769 C766 1.526 . S
C769 C770 1.396 . S
C769 C774 1.390 . S
C770 C764 1.465 . S
C770 C769 1.396 . S
C770 C771 1.399 . S
C771 H757 0.929 . S
C771 C770 1.399 . S
C771 C772 1.385 . S
C772 H758 0.931 . S
C772 C771 1.385 . S
C772 C773 1.389 . S
C773 C772 1.389 . S
C773 C774 1.387 . S
C774 H759 0.930 . S
C774 C769 1.390 . S
C774 C773 1.387 . S
H775 C787 0.930 . S
H776 C789 0.930 . S
H777 C790 0.930 . S
H778 C794 0.959 . S
H779 C794 0.959 . S
H780 C794 0.961 . S
H781 C795 0.960 . S
H782 C795 0.961 . S
H783 C795 0.959 . S
H784 C798 0.929 . S
H785 C799 0.931 . S
H786 C801 0.930 . S
C787 H775 0.930 . S
C787 C788 1.399 . S
C787 C792 1.399 . S
C788 C787 1.399 . S
C788 C789 1.376 . S
C789 H776 0.930 . S
C789 C788 1.376 . S
C789 C790 1.388 . S
C790 H777 0.930 . S
C790 C789 1.388 . S
C790 C791 1.390 . S
C791 C790 1.390 . S
C791 C792 1.394 . S
C791 C797 1.465 . S
C792 C787 1.399 . S
C792 C791 1.394 . S
C792 C793 1.516 . S
C793 C792 1.516 . S
C793 C794 1.502 . S
C793 C795 1.561 . S
C793 C796 1.526 . S
C794 H778 0.959 . S
C794 H779 0.959 . S
C794 H780 0.961 . S
C794 C793 1.502 . S
C795 H781 0.960 . S
C795 H782 0.961 . S
C795 H783 0.959 . S
C795 C793 1.561 . S
C796 C793 1.526 . S
C796 C797 1.396 . S
C796 C801 1.390 . S
C797 C791 1.465 . S
C797 C796 1.396 . S
C797 C798 1.399 . S
C798 H784 0.929 . S
C798 C797 1.399 . S
C798 C799 1.385 . S
C799 H785 0.931 . S
C799 C798 1.385 . S
C799 C800 1.389 . S
C800 C799 1.389 . S
C800 C801 1.387 . S
C801 H786 0.930 . S
C801 C796 1.390 . S
C801 C800 1.387 . S
H802 C814 0.930 . S
H803 C816 0.930 . S
H804 C817 0.930 . S
H805 C821 0.959 . S
H806 C821 0.959 . S
H807 C821 0.961 . S
H808 C822 0.960 . S
H809 C822 0.961 . S
H810 C822 0.959 . S
H811 C825 0.929 . S
H812 C826 0.931 . S
H813 C828 0.930 . S
C814 H802 0.930 . S
C814 C815 1.399 . S
C814 C819 1.399 . S
C815 C814 1.399 . S
C815 C816 1.376 . S
C816 H803 0.930 . S
C816 C815 1.376 . S
C816 C817 1.388 . S
C817 H804 0.930 . S
C817 C816 1.388 . S
C817 C818 1.390 . S
C818 C817 1.390 . S
C818 C819 1.394 . S
C818 C824 1.465 . S
C819 C814 1.399 . S
C819 C818 1.394 . S
C819 C820 1.516 . S
C820 C819 1.516 . S
C820 C821 1.502 . S
C820 C822 1.561 . S
C820 C823 1.526 . S
C821 H805 0.959 . S
C821 H806 0.959 . S
C821 H807 0.961 . S
C821 C820 1.502 . S
C822 H808 0.960 . S
C822 H809 0.961 . S
C822 H810 0.959 . S
C822 C820 1.561 . S
C823 C820 1.526 . S
C823 C824 1.396 . S
C823 C828 1.390 . S
C824 C818 1.465 . S
C824 C823 1.396 . S
C824 C825 1.399 . S
C825 H811 0.929 . S
C825 C824 1.399 . S
C825 C826 1.385 . S
C826 H812 0.931 . S
C826 C825 1.385 . S
C826 C827 1.389 . S
C827 C826 1.389 . S
C827 C828 1.387 . S
C828 H813 0.930 . S
C828 C823 1.390 . S
C828 C827 1.387 . S
H829 C841 0.930 . S
H830 C843 0.930 . S
H831 C844 0.930 . S
H832 C848 0.959 . S
H833 C848 0.959 . S
H834 C848 0.961 . S
H835 C849 0.960 . S
H836 C849 0.961 . S
H837 C849 0.959 . S
H838 C852 0.929 . S
H839 C853 0.931 . S
H840 C855 0.930 . S
C841 H829 0.930 . S
C841 C842 1.399 . S
C841 C846 1.399 . S
C842 C841 1.399 . S
C842 C843 1.376 . S
C843 H830 0.930 . S
C843 C842 1.376 . S
C843 C844 1.388 . S
C844 H831 0.930 . S
C844 C843 1.388 . S
C844 C845 1.390 . S
C845 C844 1.390 . S
C845 C846 1.394 . S
C845 C851 1.465 . S
C846 C841 1.399 . S
C846 C845 1.394 . S
C846 C847 1.516 . S
C847 C846 1.516 . S
C847 C848 1.502 . S
C847 C849 1.561 . S
C847 C850 1.526 . S
C848 H832 0.959 . S
C848 H833 0.959 . S
C848 H834 0.961 . S
C848 C847 1.502 . S
C849 H835 0.960 . S
C849 H836 0.961 . S
C849 H837 0.959 . S
C849 C847 1.561 . S
C850 C847 1.526 . S
C850 C851 1.396 . S
C850 C855 1.390 . S
C851 C845 1.465 . S
C851 C850 1.396 . S
C851 C852 1.399 . S
C852 H838 0.929 . S
C852 C851 1.399 . S
C852 C853 1.385 . S
C853 H839 0.931 . S
C853 C852 1.385 . S
C853 C854 1.389 . S
C854 C853 1.389 . S
C854 C855 1.387 . S
C855 H840 0.930 . S
C855 C850 1.390 . S
C855 C854 1.387 . S
H856 C868 0.930 . S
H857 C870 0.930 . S
H858 C871 0.930 . S
H859 C875 0.959 . S
H860 C875 0.959 . S
H861 C875 0.961 . S
H862 C876 0.960 . S
H863 C876 0.961 . S
H864 C876 0.959 . S
H865 C879 0.929 . S
H866 C880 0.931 1_565 S
H867 C882 0.930 . S
C868 H856 0.930 . S
C868 C869 1.399 . S
C868 C873 1.399 . S
C869 C868 1.399 . S
C869 C870 1.376 . S
C870 H857 0.930 . S
C870 C869 1.376 . S
C870 C871 1.388 . S
C871 H858 0.930 . S
C871 C870 1.388 . S
C871 C872 1.390 . S
C872 C871 1.390 . S
C872 C873 1.394 . S
C872 C878 1.465 . S
C873 C868 1.399 . S
C873 C872 1.394 . S
C873 C874 1.516 . S
C874 C873 1.516 . S
C874 C875 1.502 . S
C874 C876 1.561 . S
C874 C877 1.526 . S
C875 H859 0.959 . S
C875 H860 0.959 . S
C875 H861 0.961 . S
C875 C874 1.502 . S
C876 H862 0.960 . S
C876 H863 0.961 . S
C876 H864 0.959 . S
C876 C874 1.561 . S
C877 C874 1.526 . S
C877 C878 1.396 . S
C877 C882 1.390 . S
C878 C872 1.465 . S
C878 C877 1.396 . S
C878 C879 1.399 . S
C879 H865 0.929 . S
C879 C878 1.399 . S
C879 C880 1.385 . S
C880 H866 0.931 1_545 S
C880 C879 1.385 . S
C880 C881 1.389 . S
C881 C880 1.389 . S
C881 C882 1.387 . S
C882 H867 0.930 . S
C882 C877 1.390 . S
C882 C881 1.387 . S
H883 C895 0.930 . S
H884 C897 0.930 . S
H885 C898 0.930 . S
H886 C902 0.959 . S
H887 C902 0.959 . S
H888 C902 0.961 . S
H889 C903 0.960 . S
H890 C903 0.961 . S
H891 C903 0.959 . S
H892 C906 0.929 . S
H893 C907 0.931 . S
H894 C909 0.930 . S
C895 H883 0.930 . S
C895 C896 1.399 . S
C895 C900 1.399 . S
C896 C895 1.399 . S
C896 C897 1.376 . S
C897 H884 0.930 . S
C897 C896 1.376 . S
C897 C898 1.388 . S
C898 H885 0.930 . S
C898 C897 1.388 . S
C898 C899 1.390 . S
C899 C898 1.390 . S
C899 C900 1.394 . S
C899 C905 1.465 . S
C900 C895 1.399 . S
C900 C899 1.394 . S
C900 C901 1.516 . S
C901 C900 1.516 . S
C901 C902 1.502 . S
C901 C903 1.561 . S
C901 C904 1.526 . S
C902 H886 0.959 . S
C902 H887 0.959 . S
C902 H888 0.961 . S
C902 C901 1.502 . S
C903 H889 0.960 . S
C903 H890 0.961 . S
C903 H891 0.959 . S
C903 C901 1.561 . S
C904 C901 1.526 . S
C904 C905 1.396 . S
C904 C909 1.390 . S
C905 C899 1.465 . S
C905 C904 1.396 . S
C905 C906 1.399 . S
C906 H892 0.929 . S
C906 C905 1.399 . S
C906 C907 1.385 . S
C907 H893 0.931 . S
C907 C906 1.385 . S
C907 C908 1.389 . S
C908 C907 1.389 . S
C908 C909 1.387 . S
C909 H894 0.930 . S
C909 C904 1.390 . S
C909 C908 1.387 . S
H910 C922 0.930 . S
H911 C924 0.930 . S
H912 C925 0.930 . S
H913 C929 0.959 . S
H914 C929 0.959 . S
H915 C929 0.961 . S
H916 C930 0.960 . S
H917 C930 0.961 . S
H918 C930 0.959 . S
H919 C933 0.929 . S
H920 C934 0.931 . S
H921 C936 0.930 . S
C922 H910 0.930 . S
C922 C923 1.399 . S
C922 C927 1.399 . S
C923 C922 1.399 . S
C923 C924 1.376 . S
C924 H911 0.930 . S
C924 C923 1.376 . S
C924 C925 1.388 . S
C925 H912 0.930 . S
C925 C924 1.388 . S
C925 C926 1.390 . S
C926 C925 1.390 . S
C926 C927 1.394 . S
C926 C932 1.465 . S
C927 C922 1.399 . S
C927 C926 1.394 . S
C927 C928 1.516 . S
C928 C927 1.516 . S
C928 C929 1.502 . S
C928 C930 1.561 . S
C928 C931 1.526 . S
C929 H913 0.959 . S
C929 H914 0.959 . S
C929 H915 0.961 . S
C929 C928 1.502 . S
C930 H916 0.960 . S
C930 H917 0.961 . S
C930 H918 0.959 . S
C930 C928 1.561 . S
C931 C928 1.526 . S
C931 C932 1.396 . S
C931 C936 1.390 . S
C932 C926 1.465 . S
C932 C931 1.396 . S
C932 C933 1.399 . S
C933 H919 0.929 . S
C933 C932 1.399 . S
C933 C934 1.385 . S
C934 H920 0.931 . S
C934 C933 1.385 . S
C934 C935 1.389 . S
C935 C934 1.389 . S
C935 C936 1.387 . S
C936 H921 0.930 . S
C936 C931 1.390 . S
C936 C935 1.387 . S
H937 C949 0.930 . S
H938 C951 0.930 . S
H939 C952 0.930 . S
H940 C956 0.959 . S
H941 C956 0.959 . S
H942 C956 0.961 . S
H943 C957 0.960 . S
H944 C957 0.961 . S
H945 C957 0.959 . S
H946 C960 0.929 . S
H947 C961 0.931 . S
H948 C963 0.930 . S
C949 H937 0.930 . S
C949 C950 1.399 . S
C949 C954 1.399 . S
C950 C949 1.399 . S
C950 C951 1.376 . S
C951 H938 0.930 . S
C951 C950 1.376 . S
C951 C952 1.388 . S
C952 H939 0.930 . S
C952 C951 1.388 . S
C952 C953 1.390 . S
C953 C952 1.390 . S
C953 C954 1.394 . S
C953 C959 1.465 . S
C954 C949 1.399 . S
C954 C953 1.394 . S
C954 C955 1.516 . S
C955 C954 1.516 . S
C955 C956 1.502 . S
C955 C957 1.561 . S
C955 C958 1.526 . S
C956 H940 0.959 . S
C956 H941 0.959 . S
C956 H942 0.961 . S
C956 C955 1.502 . S
C957 H943 0.960 . S
C957 H944 0.961 . S
C957 H945 0.959 . S
C957 C955 1.561 . S
C958 C955 1.526 . S
C958 C959 1.396 . S
C958 C963 1.390 . S
C959 C953 1.465 . S
C959 C958 1.396 . S
C959 C960 1.399 . S
C960 H946 0.929 . S
C960 C959 1.399 . S
C960 C961 1.385 . S
C961 H947 0.931 . S
C961 C960 1.385 . S
C961 C962 1.389 . S
C962 C961 1.389 . S
C962 C963 1.387 . S
C963 H948 0.930 . S
C963 C958 1.390 . S
C963 C962 1.387 . S
H964 C976 0.930 . S
H965 C978 0.930 . S
H966 C979 0.930 . S
H967 C983 0.959 . S
H968 C983 0.959 . S
H969 C983 0.961 . S
H970 C984 0.960 . S
H971 C984 0.961 . S
H972 C984 0.959 . S
H973 C987 0.929 . S
H974 C988 0.931 . S
H975 C990 0.930 . S
C976 H964 0.930 . S
C976 C977 1.399 . S
C976 C981 1.399 . S
C977 C976 1.399 . S
C977 C978 1.376 . S
C978 H965 0.930 . S
C978 C977 1.376 . S
C978 C979 1.388 . S
C979 H966 0.930 . S
C979 C978 1.388 . S
C979 C980 1.390 . S
C980 C979 1.390 . S
C980 C981 1.394 . S
C980 C986 1.465 . S
C981 C976 1.399 . S
C981 C980 1.394 . S
C981 C982 1.516 . S
C982 C981 1.516 . S
C982 C983 1.502 . S
C982 C984 1.561 . S
C982 C985 1.526 . S
C983 H967 0.959 . S
C983 H968 0.959 . S
C983 H969 0.961 . S
C983 C982 1.502 . S
C984 H970 0.960 . S
C984 H971 0.961 . S
C984 H972 0.959 . S
C984 C982 1.561 . S
C985 C982 1.526 . S
C985 C986 1.396 . S
C985 C990 1.390 . S
C986 C980 1.465 . S
C986 C985 1.396 . S
C986 C987 1.399 . S
C987 H973 0.929 . S
C987 C986 1.399 . S
C987 C988 1.385 . S
C988 H974 0.931 . S
C988 C987 1.385 . S
C988 C989 1.389 . S
C989 C988 1.389 . S
C989 C990 1.387 . S
C990 H975 0.930 . S
C990 C985 1.390 . S
C990 C989 1.387 . S
H991 C1003 0.930 . S
H992 C1005 0.930 . S
H993 C1006 0.930 . S
H994 C1010 0.959 . S
H995 C1010 0.959 . S
H996 C1010 0.961 . S
H997 C1011 0.960 . S
H998 C1011 0.961 . S
H999 C1011 0.959 . S
H1000 C1014 0.929 . S
H1001 C1015 0.931 . S
H1002 C1017 0.930 . S
C1003 H991 0.930 . S
C1003 C1004 1.399 . S
C1003 C1008 1.399 . S
C1004 C1003 1.399 . S
C1004 C1005 1.376 . S
C1005 H992 0.930 . S
C1005 C1004 1.376 . S
C1005 C1006 1.388 . S
C1006 H993 0.930 . S
C1006 C1005 1.388 . S
C1006 C1007 1.390 . S
C1007 C1006 1.390 . S
C1007 C1008 1.394 . S
C1007 C1013 1.465 . S
C1008 C1003 1.399 . S
C1008 C1007 1.394 . S
C1008 C1009 1.516 . S
C1009 C1008 1.516 . S
C1009 C1010 1.502 . S
C1009 C1011 1.561 . S
C1009 C1012 1.526 . S
C1010 H994 0.959 . S
C1010 H995 0.959 . S
C1010 H996 0.961 . S
C1010 C1009 1.502 . S
C1011 H997 0.960 . S
C1011 H998 0.961 . S
C1011 H999 0.959 . S
C1011 C1009 1.561 . S
C1012 C1009 1.526 . S
C1012 C1013 1.396 . S
C1012 C1017 1.390 . S
C1013 C1007 1.465 . S
C1013 C1012 1.396 . S
C1013 C1014 1.399 . S
C1014 H1000 0.929 . S
C1014 C1013 1.399 . S
C1014 C1015 1.385 . S
C1015 H1001 0.931 . S
C1015 C1014 1.385 . S
C1015 C1016 1.389 . S
C1016 C1015 1.389 . S
C1016 C1017 1.387 . S
C1017 H1002 0.930 . S
C1017 C1012 1.390 . S
C1017 C1016 1.387 . S
H1018 C1030 0.930 . S
H1019 C1032 0.930 . S
H1020 C1033 0.930 . S
H1021 C1037 0.959 . S
H1022 C1037 0.959 . S
H1023 C1037 0.961 . S
H1024 C1038 0.960 . S
H1025 C1038 0.961 . S
H1026 C1038 0.959 . S
H1027 C1041 0.929 . S
H1028 C1042 0.931 . S
H1029 C1044 0.930 . S
C1030 H1018 0.930 . S
C1030 C1031 1.399 . S
C1030 C1035 1.399 . S
C1031 C1030 1.399 . S
C1031 C1032 1.376 . S
C1032 H1019 0.930 . S
C1032 C1031 1.376 . S
C1032 C1033 1.388 . S
C1033 H1020 0.930 . S
C1033 C1032 1.388 . S
C1033 C1034 1.390 . S
C1034 C1033 1.390 . S
C1034 C1035 1.394 . S
C1034 C1040 1.465 . S
C1035 C1030 1.399 . S
C1035 C1034 1.394 . S
C1035 C1036 1.516 . S
C1036 C1035 1.516 . S
C1036 C1037 1.502 . S
C1036 C1038 1.561 . S
C1036 C1039 1.526 . S
C1037 H1021 0.959 . S
C1037 H1022 0.959 . S
C1037 H1023 0.961 . S
C1037 C1036 1.502 . S
C1038 H1024 0.960 . S
C1038 H1025 0.961 . S
C1038 H1026 0.959 . S
C1038 C1036 1.561 . S
C1039 C1036 1.526 . S
C1039 C1040 1.396 . S
C1039 C1044 1.390 . S
C1040 C1034 1.465 . S
C1040 C1039 1.396 . S
C1040 C1041 1.399 . S
C1041 H1027 0.929 . S
C1041 C1040 1.399 . S
C1041 C1042 1.385 . S
C1042 H1028 0.931 . S
C1042 C1041 1.385 . S
C1042 C1043 1.389 . S
C1043 C1042 1.389 . S
C1043 C1044 1.387 . S
C1044 H1029 0.930 . S
C1044 C1039 1.390 . S
C1044 C1043 1.387 . S
H1045 C1057 0.930 . S
H1046 C1059 0.930 . S
H1047 C1060 0.930 . S
H1048 C1064 0.959 . S
H1049 C1064 0.959 . S
H1050 C1064 0.961 . S
H1051 C1065 0.960 . S
H1052 C1065 0.961 . S
H1053 C1065 0.959 . S
H1054 C1068 0.929 . S
H1055 C1069 0.931 . S
H1056 C1071 0.930 . S
C1057 H1045 0.930 . S
C1057 C1058 1.399 . S
C1057 C1062 1.399 . S
C1058 C1057 1.399 . S
C1058 C1059 1.376 . S
C1059 H1046 0.930 . S
C1059 C1058 1.376 . S
C1059 C1060 1.388 . S
C1060 H1047 0.930 . S
C1060 C1059 1.388 . S
C1060 C1061 1.390 . S
C1061 C1060 1.390 . S
C1061 C1062 1.394 . S
C1061 C1067 1.465 . S
C1062 C1057 1.399 . S
C1062 C1061 1.394 . S
C1062 C1063 1.516 . S
C1063 C1062 1.516 . S
C1063 C1064 1.502 . S
C1063 C1065 1.561 . S
C1063 C1066 1.526 . S
C1064 H1048 0.959 . S
C1064 H1049 0.959 . S
C1064 H1050 0.961 . S
C1064 C1063 1.502 . S
C1065 H1051 0.960 . S
C1065 H1052 0.961 . S
C1065 H1053 0.959 . S
C1065 C1063 1.561 . S
C1066 C1063 1.526 . S
C1066 C1067 1.396 . S
C1066 C1071 1.390 . S
C1067 C1061 1.465 . S
C1067 C1066 1.396 . S
C1067 C1068 1.399 . S
C1068 H1054 0.929 . S
C1068 C1067 1.399 . S
C1068 C1069 1.385 . S
C1069 H1055 0.931 . S
C1069 C1068 1.385 . S
C1069 C1070 1.389 . S
C1070 C1069 1.389 . S
C1070 C1071 1.387 . S
C1071 H1056 0.930 . S
C1071 C1066 1.390 . S
C1071 C1070 1.387 . S
H1072 C1084 0.930 . S
H1073 C1086 0.930 1_545 S
H1074 C1087 0.930 . S
H1075 C1091 0.959 . S
H1076 C1091 0.959 . S
H1077 C1091 0.961 . S
H1078 C1092 0.960 . S
H1079 C1092 0.961 . S
H1080 C1092 0.959 . S
H1081 C1095 0.929 . S
H1082 C1096 0.931 . S
H1083 C1098 0.930 . S
C1084 H1072 0.930 . S
C1084 C1085 1.399 . S
C1084 C1089 1.399 . S
C1085 C1084 1.399 . S
C1085 C1086 1.376 . S
C1086 H1073 0.930 1_565 S
C1086 C1085 1.376 . S
C1086 C1087 1.388 . S
C1087 H1074 0.930 . S
C1087 C1086 1.388 . S
C1087 C1088 1.390 . S
C1088 C1087 1.390 . S
C1088 C1089 1.394 . S
C1088 C1094 1.465 . S
C1089 C1084 1.399 . S
C1089 C1088 1.394 . S
C1089 C1090 1.516 . S
C1090 C1089 1.516 . S
C1090 C1091 1.502 . S
C1090 C1092 1.561 . S
C1090 C1093 1.526 . S
C1091 H1075 0.959 . S
C1091 H1076 0.959 . S
C1091 H1077 0.961 . S
C1091 C1090 1.502 . S
C1092 H1078 0.960 . S
C1092 H1079 0.961 . S
C1092 H1080 0.959 . S
C1092 C1090 1.561 . S
C1093 C1090 1.526 . S
C1093 C1094 1.396 . S
C1093 C1098 1.390 . S
C1094 C1088 1.465 . S
C1094 C1093 1.396 . S
C1094 C1095 1.399 . S
C1095 H1081 0.929 . S
C1095 C1094 1.399 . S
C1095 C1096 1.385 . S
C1096 H1082 0.931 . S
C1096 C1095 1.385 . S
C1096 C1097 1.389 . S
C1097 C1096 1.389 . S
C1097 C1098 1.387 . S
C1098 H1083 0.930 . S
C1098 C1093 1.390 . S
C1098 C1097 1.387 . S
H1099 C1111 0.930 . S
H1100 C1113 0.930 . S
H1101 C1114 0.930 . S
H1102 C1118 0.959 . S
H1103 C1118 0.959 . S
H1104 C1118 0.961 . S
H1105 C1119 0.960 . S
H1106 C1119 0.961 . S
H1107 C1119 0.959 . S
H1108 C1122 0.929 . S
H1109 C1123 0.931 . S
H1110 C1125 0.930 . S
C1111 H1099 0.930 . S
C1111 C1112 1.399 . S
C1111 C1116 1.399 . S
C1112 C1111 1.399 . S
C1112 C1113 1.376 . S
C1113 H1100 0.930 . S
C1113 C1112 1.376 . S
C1113 C1114 1.388 . S
C1114 H1101 0.930 . S
C1114 C1113 1.388 . S
C1114 C1115 1.390 . S
C1115 C1114 1.390 . S
C1115 C1116 1.394 . S
C1115 C1121 1.465 . S
C1116 C1111 1.399 . S
C1116 C1115 1.394 . S
C1116 C1117 1.516 . S
C1117 C1116 1.516 . S
C1117 C1118 1.502 . S
C1117 C1119 1.561 . S
C1117 C1120 1.526 . S
C1118 H1102 0.959 . S
C1118 H1103 0.959 . S
C1118 H1104 0.961 . S
C1118 C1117 1.502 . S
C1119 H1105 0.960 . S
C1119 H1106 0.961 . S
C1119 H1107 0.959 . S
C1119 C1117 1.561 . S
C1120 C1117 1.526 . S
C1120 C1121 1.396 . S
C1120 C1125 1.390 . S
C1121 C1115 1.465 . S
C1121 C1120 1.396 . S
C1121 C1122 1.399 . S
C1122 H1108 0.929 . S
C1122 C1121 1.399 . S
C1122 C1123 1.385 . S
C1123 H1109 0.931 . S
C1123 C1122 1.385 . S
C1123 C1124 1.389 . S
C1124 C1123 1.389 . S
C1124 C1125 1.387 . S
C1125 H1110 0.930 . S
C1125 C1120 1.390 . S
C1125 C1124 1.387 . S
H1126 C1138 0.930 . S
H1127 C1140 0.930 . S
H1128 C1141 0.930 . S
H1129 C1145 0.959 . S
H1130 C1145 0.959 . S
H1131 C1145 0.961 . S
H1132 C1146 0.960 . S
H1133 C1146 0.961 . S
H1134 C1146 0.959 . S
H1135 C1149 0.929 . S
H1136 C1150 0.931 . S
H1137 C1152 0.930 . S
C1138 H1126 0.930 . S
C1138 C1139 1.399 . S
C1138 C1143 1.399 . S
C1139 C1138 1.399 . S
C1139 C1140 1.376 . S
C1140 H1127 0.930 . S
C1140 C1139 1.376 . S
C1140 C1141 1.388 . S
C1141 H1128 0.930 . S
C1141 C1140 1.388 . S
C1141 C1142 1.390 . S
C1142 C1141 1.390 . S
C1142 C1143 1.394 . S
C1142 C1148 1.465 . S
C1143 C1138 1.399 . S
C1143 C1142 1.394 . S
C1143 C1144 1.516 . S
C1144 C1143 1.516 . S
C1144 C1145 1.502 . S
C1144 C1146 1.561 . S
C1144 C1147 1.526 . S
C1145 H1129 0.959 . S
C1145 H1130 0.959 . S
C1145 H1131 0.961 . S
C1145 C1144 1.502 . S
C1146 H1132 0.960 . S
C1146 H1133 0.961 . S
C1146 H1134 0.959 . S
C1146 C1144 1.561 . S
C1147 C1144 1.526 . S
C1147 C1148 1.396 . S
C1147 C1152 1.390 . S
C1148 C1142 1.465 . S
C1148 C1147 1.396 . S
C1148 C1149 1.399 . S
C1149 H1135 0.929 . S
C1149 C1148 1.399 . S
C1149 C1150 1.385 . S
C1150 H1136 0.931 . S
C1150 C1149 1.385 . S
C1150 C1151 1.389 . S
C1151 C1150 1.389 . S
C1151 C1152 1.387 . S
C1152 H1137 0.930 . S
C1152 C1147 1.390 . S
C1152 C1151 1.387 . S
H1153 C1165 0.930 . S
H1154 C1167 0.930 . S
H1155 C1168 0.930 . S
H1156 C1172 0.959 . S
H1157 C1172 0.959 . S
H1158 C1172 0.961 . S
H1159 C1173 0.960 . S
H1160 C1173 0.961 . S
H1161 C1173 0.959 . S
H1162 C1176 0.929 . S
H1163 C1177 0.931 . S
H1164 C1179 0.930 . S
C1165 H1153 0.930 . S
C1165 C1166 1.399 . S
C1165 C1170 1.399 . S
C1166 C1165 1.399 . S
C1166 C1167 1.376 . S
C1167 H1154 0.930 . S
C1167 C1166 1.376 . S
C1167 C1168 1.388 . S
C1168 H1155 0.930 . S
C1168 C1167 1.388 . S
C1168 C1169 1.390 . S
C1169 C1168 1.390 . S
C1169 C1170 1.394 . S
C1169 C1175 1.465 . S
C1170 C1165 1.399 . S
C1170 C1169 1.394 . S
C1170 C1171 1.516 . S
C1171 C1170 1.516 . S
C1171 C1172 1.502 . S
C1171 C1173 1.561 . S
C1171 C1174 1.526 . S
C1172 H1156 0.959 . S
C1172 H1157 0.959 . S
C1172 H1158 0.961 . S
C1172 C1171 1.502 . S
C1173 H1159 0.960 . S
C1173 H1160 0.961 . S
C1173 H1161 0.959 . S
C1173 C1171 1.561 . S
C1174 C1171 1.526 . S
C1174 C1175 1.396 . S
C1174 C1179 1.390 . S
C1175 C1169 1.465 . S
C1175 C1174 1.396 . S
C1175 C1176 1.399 . S
C1176 H1162 0.929 . S
C1176 C1175 1.399 . S
C1176 C1177 1.385 . S
C1177 H1163 0.931 . S
C1177 C1176 1.385 . S
C1177 C1178 1.389 . S
C1178 C1177 1.389 . S
C1178 C1179 1.387 . S
C1179 H1164 0.930 . S
C1179 C1174 1.390 . S
C1179 C1178 1.387 . S
H1180 C1192 0.930 . S
H1181 C1194 0.930 . S
H1182 C1195 0.930 . S
H1183 C1199 0.959 . S
H1184 C1199 0.959 . S
H1185 C1199 0.961 . S
H1186 C1200 0.960 . S
H1187 C1200 0.961 1_565 S
H1188 C1200 0.959 . S
H1189 C1203 0.929 . S
H1190 C1204 0.931 . S
H1191 C1206 0.930 . S
C1192 H1180 0.930 . S
C1192 C1193 1.399 . S
C1192 C1197 1.399 . S
C1193 C1192 1.399 . S
C1193 C1194 1.376 . S
C1194 H1181 0.930 . S
C1194 C1193 1.376 . S
C1194 C1195 1.388 . S
C1195 H1182 0.930 . S
C1195 C1194 1.388 . S
C1195 C1196 1.390 . S
C1196 C1195 1.390 . S
C1196 C1197 1.394 . S
C1196 C1202 1.465 . S
C1197 C1192 1.399 . S
C1197 C1196 1.394 . S
C1197 C1198 1.516 . S
C1198 C1197 1.516 . S
C1198 C1199 1.502 . S
C1198 C1200 1.561 . S
C1198 C1201 1.526 . S
C1199 H1183 0.959 . S
C1199 H1184 0.959 . S
C1199 H1185 0.961 . S
C1199 C1198 1.502 . S
C1200 H1186 0.960 . S
C1200 H1187 0.961 1_545 S
C1200 H1188 0.959 . S
C1200 C1198 1.561 . S
C1201 C1198 1.526 . S
C1201 C1202 1.396 . S
C1201 C1206 1.390 . S
C1202 C1196 1.465 . S
C1202 C1201 1.396 . S
C1202 C1203 1.399 . S
C1203 H1189 0.929 . S
C1203 C1202 1.399 . S
C1203 C1204 1.385 . S
C1204 H1190 0.931 . S
C1204 C1203 1.385 . S
C1204 C1205 1.389 . S
C1205 C1204 1.389 . S
C1205 C1206 1.387 . S
C1206 H1191 0.930 . S
C1206 C1201 1.390 . S
C1206 C1205 1.387 . S
H1207 C1219 0.930 . S
H1208 C1221 0.930 . S
H1209 C1222 0.930 . S
H1210 C1226 0.959 . S
H1211 C1226 0.959 . S
H1212 C1226 0.961 . S
H1213 C1227 0.960 . S
H1214 C1227 0.961 . S
H1215 C1227 0.959 . S
H1216 C1230 0.929 . S
H1217 C1231 0.931 . S
H1218 C1233 0.930 . S
C1219 H1207 0.930 . S
C1219 C1220 1.399 . S
C1219 C1224 1.399 . S
C1220 C1219 1.399 . S
C1220 C1221 1.376 . S
C1221 H1208 0.930 . S
C1221 C1220 1.376 . S
C1221 C1222 1.388 . S
C1222 H1209 0.930 . S
C1222 C1221 1.388 . S
C1222 C1223 1.390 . S
C1223 C1222 1.390 . S
C1223 C1224 1.394 . S
C1223 C1229 1.465 . S
C1224 C1219 1.399 . S
C1224 C1223 1.394 . S
C1224 C1225 1.516 . S
C1225 C1224 1.516 . S
C1225 C1226 1.502 . S
C1225 C1227 1.561 . S
C1225 C1228 1.526 . S
C1226 H1210 0.959 . S
C1226 H1211 0.959 . S
C1226 H1212 0.961 . S
C1226 C1225 1.502 . S
C1227 H1213 0.960 . S
C1227 H1214 0.961 . S
C1227 H1215 0.959 . S
C1227 C1225 1.561 . S
C1228 C1225 1.526 . S
C1228 C1229 1.396 . S
C1228 C1233 1.390 . S
C1229 C1223 1.465 . S
C1229 C1228 1.396 . S
C1229 C1230 1.399 . S
C1230 H1216 0.929 . S
C1230 C1229 1.399 . S
C1230 C1231 1.385 . S
C1231 H1217 0.931 . S
C1231 C1230 1.385 . S
C1231 C1232 1.389 . S
C1232 C1231 1.389 . S
C1232 C1233 1.387 . S
C1233 H1218 0.930 . S
C1233 C1228 1.390 . S
C1233 C1232 1.387 . S
H1234 C1246 0.930 . S
H1235 C1248 0.930 . S
H1236 C1249 0.930 . S
H1237 C1253 0.959 . S
H1238 C1253 0.959 . S
H1239 C1253 0.961 . S
H1240 C1254 0.960 . S
H1241 C1254 0.961 . S
H1242 C1254 0.959 . S
H1243 C1257 0.929 . S
H1244 C1258 0.931 . S
H1245 C1260 0.930 . S
C1246 H1234 0.930 . S
C1246 C1247 1.399 . S
C1246 C1251 1.399 . S
C1247 C1246 1.399 . S
C1247 C1248 1.376 . S
C1248 H1235 0.930 . S
C1248 C1247 1.376 . S
C1248 C1249 1.388 . S
C1249 H1236 0.930 . S
C1249 C1248 1.388 . S
C1249 C1250 1.390 . S
C1250 C1249 1.390 . S
C1250 C1251 1.394 . S
C1250 C1256 1.465 . S
C1251 C1246 1.399 . S
C1251 C1250 1.394 . S
C1251 C1252 1.516 . S
C1252 C1251 1.516 . S
C1252 C1253 1.502 . S
C1252 C1254 1.561 . S
C1252 C1255 1.526 . S
C1253 H1237 0.959 . S
C1253 H1238 0.959 . S
C1253 H1239 0.961 . S
C1253 C1252 1.502 . S
C1254 H1240 0.960 . S
C1254 H1241 0.961 . S
C1254 H1242 0.959 . S
C1254 C1252 1.561 . S
C1255 C1252 1.526 . S
C1255 C1256 1.396 . S
C1255 C1260 1.390 . S
C1256 C1250 1.465 . S
C1256 C1255 1.396 . S
C1256 C1257 1.399 . S
C1257 H1243 0.929 . S
C1257 C1256 1.399 . S
C1257 C1258 1.385 . S
C1258 H1244 0.931 . S
C1258 C1257 1.385 . S
C1258 C1259 1.389 . S
C1259 C1258 1.389 . S
C1259 C1260 1.387 . S
C1260 H1245 0.930 . S
C1260 C1255 1.390 . S
C1260 C1259 1.387 . S
H1261 C1273 0.930 . S
H1262 C1275 0.930 . S
H1263 C1276 0.930 . S
H1264 C1280 0.959 . S
H1265 C1280 0.959 . S
H1266 C1280 0.961 . S
H1267 C1281 0.960 . S
H1268 C1281 0.961 . S
H1269 C1281 0.959 . S
H1270 C1284 0.929 . S
H1271 C1285 0.931 . S
H1272 C1287 0.930 . S
C1273 H1261 0.930 . S
C1273 C1274 1.399 . S
C1273 C1278 1.399 . S
C1274 C1273 1.399 . S
C1274 C1275 1.376 . S
C1275 H1262 0.930 . S
C1275 C1274 1.376 . S
C1275 C1276 1.388 . S
C1276 H1263 0.930 . S
C1276 C1275 1.388 . S
C1276 C1277 1.390 . S
C1277 C1276 1.390 . S
C1277 C1278 1.394 . S
C1277 C1283 1.465 . S
C1278 C1273 1.399 . S
C1278 C1277 1.394 . S
C1278 C1279 1.516 . S
C1279 C1278 1.516 . S
C1279 C1280 1.502 . S
C1279 C1281 1.561 . S
C1279 C1282 1.526 . S
C1280 H1264 0.959 . S
C1280 H1265 0.959 . S
C1280 H1266 0.961 . S
C1280 C1279 1.502 . S
C1281 H1267 0.960 . S
C1281 H1268 0.961 . S
C1281 H1269 0.959 . S
C1281 C1279 1.561 . S
C1282 C1279 1.526 . S
C1282 C1283 1.396 . S
C1282 C1287 1.390 . S
C1283 C1277 1.465 . S
C1283 C1282 1.396 . S
C1283 C1284 1.399 . S
C1284 H1270 0.929 . S
C1284 C1283 1.399 . S
C1284 C1285 1.385 . S
C1285 H1271 0.931 . S
C1285 C1284 1.385 . S
C1285 C1286 1.389 . S
C1286 C1285 1.389 . S
C1286 C1287 1.387 . S
C1287 H1272 0.930 . S
C1287 C1282 1.390 . S
C1287 C1286 1.387 . S
H1288 C1300 0.930 . S
H1289 C1302 0.930 . S
H1290 C1303 0.930 . S
H1291 C1307 0.959 . S
H1292 C1307 0.959 . S
H1293 C1307 0.961 . S
H1294 C1308 0.960 . S
H1295 C1308 0.961 . S
H1296 C1308 0.959 . S
H1297 C1311 0.929 . S
H1298 C1312 0.931 . S
H1299 C1314 0.930 . S
C1300 H1288 0.930 . S
C1300 C1301 1.399 . S
C1300 C1305 1.399 . S
C1301 C1300 1.399 . S
C1301 C1302 1.376 . S
C1302 H1289 0.930 . S
C1302 C1301 1.376 . S
C1302 C1303 1.388 . S
C1303 H1290 0.930 . S
C1303 C1302 1.388 . S
C1303 C1304 1.390 . S
C1304 C1303 1.390 . S
C1304 C1305 1.394 . S
C1304 C1310 1.465 . S
C1305 C1300 1.399 . S
C1305 C1304 1.394 . S
C1305 C1306 1.516 . S
C1306 C1305 1.516 . S
C1306 C1307 1.502 . S
C1306 C1308 1.561 . S
C1306 C1309 1.526 . S
C1307 H1291 0.959 . S
C1307 H1292 0.959 . S
C1307 H1293 0.961 . S
C1307 C1306 1.502 . S
C1308 H1294 0.960 . S
C1308 H1295 0.961 . S
C1308 H1296 0.959 . S
C1308 C1306 1.561 . S
C1309 C1306 1.526 . S
C1309 C1310 1.396 . S
C1309 C1314 1.390 . S
C1310 C1304 1.465 . S
C1310 C1309 1.396 . S
C1310 C1311 1.399 . S
C1311 H1297 0.929 . S
C1311 C1310 1.399 . S
C1311 C1312 1.385 . S
C1312 H1298 0.931 . S
C1312 C1311 1.385 . S
C1312 C1313 1.389 . S
C1313 C1312 1.389 . S
C1313 C1314 1.387 . S
C1314 H1299 0.930 . S
C1314 C1309 1.390 . S
C1314 C1313 1.387 . S
H1315 C1327 0.930 . S
H1316 C1329 0.930 . S
H1317 C1330 0.930 . S
H1318 C1334 0.959 . S
H1319 C1334 0.959 . S
H1320 C1334 0.961 . S
H1321 C1335 0.960 . S
H1322 C1335 0.961 . S
H1323 C1335 0.959 . S
H1324 C1338 0.929 . S
H1325 C1339 0.931 . S
H1326 C1341 0.930 . S
C1327 H1315 0.930 . S
C1327 C1328 1.399 . S
C1327 C1332 1.399 . S
C1328 C1327 1.399 . S
C1328 C1329 1.376 . S
C1329 H1316 0.930 . S
C1329 C1328 1.376 . S
C1329 C1330 1.388 . S
C1330 H1317 0.930 . S
C1330 C1329 1.388 . S
C1330 C1331 1.390 . S
C1331 C1330 1.390 . S
C1331 C1332 1.394 . S
C1331 C1337 1.465 . S
C1332 C1327 1.399 . S
C1332 C1331 1.394 . S
C1332 C1333 1.516 . S
C1333 C1332 1.516 . S
C1333 C1334 1.502 . S
C1333 C1335 1.561 . S
C1333 C1336 1.526 . S
C1334 H1318 0.959 . S
C1334 H1319 0.959 . S
C1334 H1320 0.961 . S
C1334 C1333 1.502 . S
C1335 H1321 0.960 . S
C1335 H1322 0.961 . S
C1335 H1323 0.959 . S
C1335 C1333 1.561 . S
C1336 C1333 1.526 . S
C1336 C1337 1.396 . S
C1336 C1341 1.390 . S
C1337 C1331 1.465 . S
C1337 C1336 1.396 . S
C1337 C1338 1.399 . S
C1338 H1324 0.929 . S
C1338 C1337 1.399 . S
C1338 C1339 1.385 . S
C1339 H1325 0.931 . S
C1339 C1338 1.385 . S
C1339 C1340 1.389 . S
C1340 C1339 1.389 . S
C1340 C1341 1.387 . S
C1341 H1326 0.930 . S
C1341 C1336 1.390 . S
C1341 C1340 1.387 . S
H1342 C1354 0.930 . S
H1343 C1356 0.930 . S
H1344 C1357 0.930 . S
H1345 C1361 0.959 . S
H1346 C1361 0.959 . S
H1347 C1361 0.961 . S
H1348 C1362 0.960 . S
H1349 C1362 0.961 . S
H1350 C1362 0.959 . S
H1351 C1365 0.929 . S
H1352 C1366 0.931 . S
H1353 C1368 0.930 . S
C1354 H1342 0.930 . S
C1354 C1355 1.399 . S
C1354 C1359 1.399 . S
C1355 C1354 1.399 . S
C1355 C1356 1.376 . S
C1356 H1343 0.930 . S
C1356 C1355 1.376 . S
C1356 C1357 1.388 . S
C1357 H1344 0.930 . S
C1357 C1356 1.388 . S
C1357 C1358 1.390 . S
C1358 C1357 1.390 . S
C1358 C1359 1.394 . S
C1358 C1364 1.465 . S
C1359 C1354 1.399 . S
C1359 C1358 1.394 . S
C1359 C1360 1.516 . S
C1360 C1359 1.516 . S
C1360 C1361 1.502 . S
C1360 C1362 1.561 . S
C1360 C1363 1.526 . S
C1361 H1345 0.959 . S
C1361 H1346 0.959 . S
C1361 H1347 0.961 . S
C1361 C1360 1.502 . S
C1362 H1348 0.960 . S
C1362 H1349 0.961 . S
C1362 H1350 0.959 . S
C1362 C1360 1.561 . S
C1363 C1360 1.526 . S
C1363 C1364 1.396 . S
C1363 C1368 1.390 . S
C1364 C1358 1.465 . S
C1364 C1363 1.396 . S
C1364 C1365 1.399 . S
C1365 H1351 0.929 . S
C1365 C1364 1.399 . S
C1365 C1366 1.385 . S
C1366 H1352 0.931 . S
C1366 C1365 1.385 . S
C1366 C1367 1.389 . S
C1367 C1366 1.389 . S
C1367 C1368 1.387 . S
C1368 H1353 0.930 . S
C1368 C1363 1.390 . S
C1368 C1367 1.387 . S
H1369 C1381 0.930 . S
H1370 C1383 0.930 . S
H1371 C1384 0.930 . S
H1372 C1388 0.959 . S
H1373 C1388 0.959 . S
H1374 C1388 0.961 . S
H1375 C1389 0.960 . S
H1376 C1389 0.961 . S
H1377 C1389 0.959 . S
H1378 C1392 0.929 . S
H1379 C1393 0.931 . S
H1380 C1395 0.930 . S
C1381 H1369 0.930 . S
C1381 C1382 1.399 . S
C1381 C1386 1.399 . S
C1382 C1381 1.399 . S
C1382 C1383 1.376 . S
C1383 H1370 0.930 . S
C1383 C1382 1.376 . S
C1383 C1384 1.388 . S
C1384 H1371 0.930 . S
C1384 C1383 1.388 . S
C1384 C1385 1.390 . S
C1385 C1384 1.390 . S
C1385 C1386 1.394 . S
C1385 C1391 1.465 . S
C1386 C1381 1.399 . S
C1386 C1385 1.394 . S
C1386 C1387 1.516 . S
C1387 C1386 1.516 . S
C1387 C1388 1.502 . S
C1387 C1389 1.561 . S
C1387 C1390 1.526 . S
C1388 H1372 0.959 . S
C1388 H1373 0.959 . S
C1388 H1374 0.961 . S
C1388 C1387 1.502 . S
C1389 H1375 0.960 . S
C1389 H1376 0.961 . S
C1389 H1377 0.959 . S
C1389 C1387 1.561 . S
C1390 C1387 1.526 . S
C1390 C1391 1.396 . S
C1390 C1395 1.390 . S
C1391 C1385 1.465 . S
C1391 C1390 1.396 . S
C1391 C1392 1.399 . S
C1392 H1378 0.929 . S
C1392 C1391 1.399 . S
C1392 C1393 1.385 . S
C1393 H1379 0.931 . S
C1393 C1392 1.385 . S
C1393 C1394 1.389 . S
C1394 C1393 1.389 . S
C1394 C1395 1.387 . S
C1395 H1380 0.930 . S
C1395 C1390 1.390 . S
C1395 C1394 1.387 . S
H1396 C1408 0.930 . S
H1397 C1410 0.930 . S
H1398 C1411 0.930 . S
H1399 C1415 0.959 . S
H1400 C1415 0.959 . S
H1401 C1415 0.961 . S
H1402 C1416 0.960 . S
H1403 C1416 0.961 . S
H1404 C1416 0.959 . S
H1405 C1419 0.929 . S
H1406 C1420 0.931 . S
H1407 C1422 0.930 . S
C1408 H1396 0.930 . S
C1408 C1409 1.399 . S
C1408 C1413 1.399 . S
C1409 C1408 1.399 . S
C1409 C1410 1.376 . S
C1410 H1397 0.930 . S
C1410 C1409 1.376 . S
C1410 C1411 1.388 . S
C1411 H1398 0.930 . S
C1411 C1410 1.388 . S
C1411 C1412 1.390 . S
C1412 C1411 1.390 . S
C1412 C1413 1.394 . S
C1412 C1418 1.465 . S
C1413 C1408 1.399 . S
C1413 C1412 1.394 . S
C1413 C1414 1.516 . S
C1414 C1413 1.516 . S
C1414 C1415 1.502 . S
C1414 C1416 1.561 . S
C1414 C1417 1.526 . S
C1415 H1399 0.959 . S
C1415 H1400 0.959 . S
C1415 H1401 0.961 . S
C1415 C1414 1.502 . S
C1416 H1402 0.960 . S
C1416 H1403 0.961 . S
C1416 H1404 0.959 . S
C1416 C1414 1.561 . S
C1417 C1414 1.526 . S
C1417 C1418 1.396 . S
C1417 C1422 1.390 . S
C1418 C1412 1.465 . S
C1418 C1417 1.396 . S
C1418 C1419 1.399 . S
C1419 H1405 0.929 . S
C1419 C1418 1.399 . S
C1419 C1420 1.385 . S
C1420 H1406 0.931 . S
C1420 C1419 1.385 . S
C1420 C1421 1.389 . S
C1421 C1420 1.389 . S
C1421 C1422 1.387 . S
C1422 H1407 0.930 . S
C1422 C1417 1.390 . S
C1422 C1421 1.387 . S
H1423 C1435 0.930 . S
H1424 C1437 0.930 . S
H1425 C1438 0.930 . S
H1426 C1442 0.959 . S
H1427 C1442 0.959 . S
H1428 C1442 0.961 . S
H1429 C1443 0.960 . S
H1430 C1443 0.961 . S
H1431 C1443 0.959 . S
H1432 C1446 0.929 . S
H1433 C1447 0.931 . S
H1434 C1449 0.930 . S
C1435 H1423 0.930 . S
C1435 C1436 1.399 . S
C1435 C1440 1.399 . S
C1436 C1435 1.399 . S
C1436 C1437 1.376 . S
C1437 H1424 0.930 . S
C1437 C1436 1.376 . S
C1437 C1438 1.388 . S
C1438 H1425 0.930 . S
C1438 C1437 1.388 . S
C1438 C1439 1.390 . S
C1439 C1438 1.390 . S
C1439 C1440 1.394 . S
C1439 C1445 1.465 . S
C1440 C1435 1.399 . S
C1440 C1439 1.394 . S
C1440 C1441 1.516 . S
C1441 C1440 1.516 . S
C1441 C1442 1.502 . S
C1441 C1443 1.561 . S
C1441 C1444 1.526 . S
C1442 H1426 0.959 . S
C1442 H1427 0.959 . S
C1442 H1428 0.961 . S
C1442 C1441 1.502 . S
C1443 H1429 0.960 . S
C1443 H1430 0.961 . S
C1443 H1431 0.959 . S
C1443 C1441 1.561 . S
C1444 C1441 1.526 . S
C1444 C1445 1.396 . S
C1444 C1449 1.390 . S
C1445 C1439 1.465 . S
C1445 C1444 1.396 . S
C1445 C1446 1.399 . S
C1446 H1432 0.929 . S
C1446 C1445 1.399 . S
C1446 C1447 1.385 . S
C1447 H1433 0.931 . S
C1447 C1446 1.385 . S
C1447 C1448 1.389 . S
C1448 C1447 1.389 . S
C1448 C1449 1.387 . S
C1449 H1434 0.930 . S
C1449 C1444 1.390 . S
C1449 C1448 1.387 . S
H1450 C1462 0.930 . S
H1451 C1464 0.930 . S
H1452 C1465 0.930 . S
H1453 C1469 0.959 . S
H1454 C1469 0.959 . S
H1455 C1469 0.961 . S
H1456 C1470 0.960 . S
H1457 C1470 0.961 . S
H1458 C1470 0.959 . S
H1459 C1473 0.929 . S
H1460 C1474 0.931 . S
H1461 C1476 0.930 . S
C1462 H1450 0.930 . S
C1462 C1463 1.399 . S
C1462 C1467 1.399 . S
C1463 C1462 1.399 . S
C1463 C1464 1.376 . S
C1464 H1451 0.930 . S
C1464 C1463 1.376 . S
C1464 C1465 1.388 . S
C1465 H1452 0.930 . S
C1465 C1464 1.388 . S
C1465 C1466 1.390 . S
C1466 C1465 1.390 . S
C1466 C1467 1.394 . S
C1466 C1472 1.465 . S
C1467 C1462 1.399 . S
C1467 C1466 1.394 . S
C1467 C1468 1.516 . S
C1468 C1467 1.516 . S
C1468 C1469 1.502 . S
C1468 C1470 1.561 . S
C1468 C1471 1.526 . S
C1469 H1453 0.959 . S
C1469 H1454 0.959 . S
C1469 H1455 0.961 . S
C1469 C1468 1.502 . S
C1470 H1456 0.960 . S
C1470 H1457 0.961 . S
C1470 H1458 0.959 . S
C1470 C1468 1.561 . S
C1471 C1468 1.526 . S
C1471 C1472 1.396 . S
C1471 C1476 1.390 . S
C1472 C1466 1.465 . S
C1472 C1471 1.396 . S
C1472 C1473 1.399 . S
C1473 H1459 0.929 . S
C1473 C1472 1.399 . S
C1473 C1474 1.385 . S
C1474 H1460 0.931 . S
C1474 C1473 1.385 . S
C1474 C1475 1.389 . S
C1475 C1474 1.389 . S
C1475 C1476 1.387 . S
C1476 H1461 0.930 . S
C1476 C1471 1.390 . S
C1476 C1475 1.387 . S
H1477 C1489 0.930 . S
H1478 C1491 0.930 . S
H1479 C1492 0.930 . S
H1480 C1496 0.959 . S
H1481 C1496 0.959 . S
H1482 C1496 0.961 . S
H1483 C1497 0.960 . S
H1484 C1497 0.961 . S
H1485 C1497 0.959 . S
H1486 C1500 0.929 . S
H1487 C1501 0.931 . S
H1488 C1503 0.930 . S
C1489 H1477 0.930 . S
C1489 C1490 1.399 . S
C1489 C1494 1.399 . S
C1490 C1489 1.399 . S
C1490 C1491 1.376 . S
C1491 H1478 0.930 . S
C1491 C1490 1.376 . S
C1491 C1492 1.388 . S
C1492 H1479 0.930 . S
C1492 C1491 1.388 . S
C1492 C1493 1.390 . S
C1493 C1492 1.390 . S
C1493 C1494 1.394 . S
C1493 C1499 1.465 . S
C1494 C1489 1.399 . S
C1494 C1493 1.394 . S
C1494 C1495 1.516 . S
C1495 C1494 1.516 . S
C1495 C1496 1.502 . S
C1495 C1497 1.561 . S
C1495 C1498 1.526 . S
C1496 H1480 0.959 . S
C1496 H1481 0.959 . S
C1496 H1482 0.961 . S
C1496 C1495 1.502 . S
C1497 H1483 0.960 . S
C1497 H1484 0.961 . S
C1497 H1485 0.959 . S
C1497 C1495 1.561 . S
C1498 C1495 1.526 . S
C1498 C1499 1.396 . S
C1498 C1503 1.390 . S
C1499 C1493 1.465 . S
C1499 C1498 1.396 . S
C1499 C1500 1.399 . S
C1500 H1486 0.929 . S
C1500 C1499 1.399 . S
C1500 C1501 1.385 . S
C1501 H1487 0.931 . S
C1501 C1500 1.385 . S
C1501 C1502 1.389 . S
C1502 C1501 1.389 . S
C1502 C1503 1.387 . S
C1503 H1488 0.930 . S
C1503 C1498 1.390 . S
C1503 C1502 1.387 . S
H1504 C1516 0.930 . S
H1505 C1518 0.930 . S
H1506 C1519 0.930 . S
H1507 C1523 0.959 . S
H1508 C1523 0.959 . S
H1509 C1523 0.961 . S
H1510 C1524 0.960 . S
H1511 C1524 0.961 . S
H1512 C1524 0.959 . S
H1513 C1527 0.929 . S
H1514 C1528 0.931 . S
H1515 C1530 0.930 . S
C1516 H1504 0.930 . S
C1516 C1517 1.399 . S
C1516 C1521 1.399 . S
C1517 C1516 1.399 . S
C1517 C1518 1.376 . S
C1518 H1505 0.930 . S
C1518 C1517 1.376 . S
C1518 C1519 1.388 . S
C1519 H1506 0.930 . S
C1519 C1518 1.388 . S
C1519 C1520 1.390 . S
C1520 C1519 1.390 . S
C1520 C1521 1.394 . S
C1520 C1526 1.465 . S
C1521 C1516 1.399 . S
C1521 C1520 1.394 . S
C1521 C1522 1.516 . S
C1522 C1521 1.516 . S
C1522 C1523 1.502 . S
C1522 C1524 1.561 . S
C1522 C1525 1.526 . S
C1523 H1507 0.959 . S
C1523 H1508 0.959 . S
C1523 H1509 0.961 . S
C1523 C1522 1.502 . S
C1524 H1510 0.960 . S
C1524 H1511 0.961 . S
C1524 H1512 0.959 . S
C1524 C1522 1.561 . S
C1525 C1522 1.526 . S
C1525 C1526 1.396 . S
C1525 C1530 1.390 . S
C1526 C1520 1.465 . S
C1526 C1525 1.396 . S
C1526 C1527 1.399 . S
C1527 H1513 0.929 . S
C1527 C1526 1.399 . S
C1527 C1528 1.385 . S
C1528 H1514 0.931 . S
C1528 C1527 1.385 . S
C1528 C1529 1.389 . S
C1529 C1528 1.389 . S
C1529 C1530 1.387 . S
C1530 H1515 0.930 . S
C1530 C1525 1.390 . S
C1530 C1529 1.387 . S
H1531 C1543 0.930 . S
H1532 C1545 0.930 . S
H1533 C1546 0.930 . S
H1534 C1550 0.959 . S
H1535 C1550 0.959 . S
H1536 C1550 0.961 . S
H1537 C1551 0.960 . S
H1538 C1551 0.961 . S
H1539 C1551 0.959 . S
H1540 C1554 0.929 . S
H1541 C1555 0.931 . S
H1542 C1557 0.930 . S
C1543 H1531 0.930 . S
C1543 C1544 1.399 . S
C1543 C1548 1.399 . S
C1544 C1543 1.399 . S
C1544 C1545 1.376 . S
C1545 H1532 0.930 . S
C1545 C1544 1.376 . S
C1545 C1546 1.388 . S
C1546 H1533 0.930 . S
C1546 C1545 1.388 . S
C1546 C1547 1.390 . S
C1547 C1546 1.390 . S
C1547 C1548 1.394 . S
C1547 C1553 1.465 . S
C1548 C1543 1.399 . S
C1548 C1547 1.394 . S
C1548 C1549 1.516 . S
C1549 C1548 1.516 . S
C1549 C1550 1.502 . S
C1549 C1551 1.561 . S
C1549 C1552 1.526 . S
C1550 H1534 0.959 . S
C1550 H1535 0.959 . S
C1550 H1536 0.961 . S
C1550 C1549 1.502 . S
C1551 H1537 0.960 . S
C1551 H1538 0.961 . S
C1551 H1539 0.959 . S
C1551 C1549 1.561 . S
C1552 C1549 1.526 . S
C1552 C1553 1.396 . S
C1552 C1557 1.390 . S
C1553 C1547 1.465 . S
C1553 C1552 1.396 . S
C1553 C1554 1.399 . S
C1554 H1540 0.929 . S
C1554 C1553 1.399 . S
C1554 C1555 1.385 . S
C1555 H1541 0.931 . S
C1555 C1554 1.385 . S
C1555 C1556 1.389 . S
C1556 C1555 1.389 . S
C1556 C1557 1.387 . S
C1557 H1542 0.930 . S
C1557 C1552 1.390 . S
C1557 C1556 1.387 . S
H1558 C1570 0.930 . S
H1559 C1572 0.930 . S
H1560 C1573 0.930 . S
H1561 C1577 0.959 . S
H1562 C1577 0.959 . S
H1563 C1577 0.961 . S
H1564 C1578 0.960 . S
H1565 C1578 0.961 . S
H1566 C1578 0.959 . S
H1567 C1581 0.929 . S
H1568 C1582 0.931 . S
H1569 C1584 0.930 . S
C1570 H1558 0.930 . S
C1570 C1571 1.399 . S
C1570 C1575 1.399 . S
C1571 C1570 1.399 . S
C1571 C1572 1.376 . S
C1572 H1559 0.930 . S
C1572 C1571 1.376 . S
C1572 C1573 1.388 . S
C1573 H1560 0.930 . S
C1573 C1572 1.388 . S
C1573 C1574 1.390 . S
C1574 C1573 1.390 . S
C1574 C1575 1.394 . S
C1574 C1580 1.465 . S
C1575 C1570 1.399 . S
C1575 C1574 1.394 . S
C1575 C1576 1.516 . S
C1576 C1575 1.516 . S
C1576 C1577 1.502 . S
C1576 C1578 1.561 . S
C1576 C1579 1.526 . S
C1577 H1561 0.959 . S
C1577 H1562 0.959 . S
C1577 H1563 0.961 . S
C1577 C1576 1.502 . S
C1578 H1564 0.960 . S
C1578 H1565 0.961 . S
C1578 H1566 0.959 . S
C1578 C1576 1.561 . S
C1579 C1576 1.526 . S
C1579 C1580 1.396 . S
C1579 C1584 1.390 . S
C1580 C1574 1.465 . S
C1580 C1579 1.396 . S
C1580 C1581 1.399 . S
C1581 H1567 0.929 . S
C1581 C1580 1.399 . S
C1581 C1582 1.385 . S
C1582 H1568 0.931 . S
C1582 C1581 1.385 . S
C1582 C1583 1.389 . S
C1583 C1582 1.389 . S
C1583 C1584 1.387 . S
C1584 H1569 0.930 . S
C1584 C1579 1.390 . S
C1584 C1583 1.387 . S
H1585 C1597 0.930 . S
H1586 C1599 0.930 . S
H1587 C1600 0.930 . S
H1588 C1604 0.959 . S
H1589 C1604 0.959 . S
H1590 C1604 0.961 . S
H1591 C1605 0.960 . S
H1592 C1605 0.961 . S
H1593 C1605 0.959 . S
H1594 C1608 0.929 . S
H1595 C1609 0.931 . S
H1596 C1611 0.930 . S
C1597 H1585 0.930 . S
C1597 C1598 1.399 . S
C1597 C1602 1.399 . S
C1598 C1597 1.399 . S
C1598 C1599 1.376 . S
C1599 H1586 0.930 . S
C1599 C1598 1.376 . S
C1599 C1600 1.388 . S
C1600 H1587 0.930 . S
C1600 C1599 1.388 . S
C1600 C1601 1.390 . S
C1601 C1600 1.390 . S
C1601 C1602 1.394 . S
C1601 C1607 1.465 . S
C1602 C1597 1.399 . S
C1602 C1601 1.394 . S
C1602 C1603 1.516 . S
C1603 C1602 1.516 . S
C1603 C1604 1.502 . S
C1603 C1605 1.561 . S
C1603 C1606 1.526 . S
C1604 H1588 0.959 . S
C1604 H1589 0.959 . S
C1604 H1590 0.961 . S
C1604 C1603 1.502 . S
C1605 H1591 0.960 . S
C1605 H1592 0.961 . S
C1605 H1593 0.959 . S
C1605 C1603 1.561 . S
C1606 C1603 1.526 . S
C1606 C1607 1.396 . S
C1606 C1611 1.390 . S
C1607 C1601 1.465 . S
C1607 C1606 1.396 . S
C1607 C1608 1.399 . S
C1608 H1594 0.929 . S
C1608 C1607 1.399 . S
C1608 C1609 1.385 . S
C1609 H1595 0.931 . S
C1609 C1608 1.385 . S
C1609 C1610 1.389 . S
C1610 C1609 1.389 . S
C1610 C1611 1.387 . S
C1611 H1596 0.930 . S
C1611 C1606 1.390 . S
C1611 C1610 1.387 . S
H1612 C1624 0.930 . S
H1613 C1626 0.930 . S
H1614 C1627 0.930 . S
H1615 C1631 0.959 . S
H1616 C1631 0.959 . S
H1617 C1631 0.961 . S
H1618 C1632 0.960 . S
H1619 C1632 0.961 . S
H1620 C1632 0.944 1_554 S
H1621 C1635 0.929 . S
H1622 C1636 0.931 . S
H1623 C1638 0.930 1_556 S
C1624 H1612 0.930 . S
C1624 C1625 1.399 . S
C1624 C1629 1.399 . S
C1625 C1624 1.399 . S
C1625 C1626 1.376 1_556 S
C1626 H1613 0.930 . S
C1626 C1625 1.376 1_554 S
C1626 C1627 1.388 . S
C1627 H1614 0.930 . S
C1627 C1626 1.388 . S
C1627 C1628 1.390 . S
C1628 C1627 1.390 . S
C1628 C1629 1.394 1_554 S
C1628 C1634 1.465 . S
C1629 C1624 1.399 . S
C1629 C1628 1.394 1_556 S
C1629 C1630 1.516 . S
C1630 C1629 1.516 . S
C1630 C1631 1.502 . S
C1630 C1632 1.561 . S
C1630 C1633 1.526 1_556 S
C1631 H1615 0.959 . S
C1631 H1616 0.959 . S
C1631 H1617 0.961 . S
C1631 C1630 1.502 . S
C1632 H1618 0.960 . S
C1632 H1619 0.961 . S
C1632 H1620 0.944 1_556 S
C1632 C1630 1.561 . S
C1633 C1630 1.526 1_554 S
C1633 C1634 1.396 . S
C1633 C1638 1.390 . S
C1634 C1628 1.465 . S
C1634 C1633 1.396 . S
C1634 C1635 1.399 . S
C1635 H1621 0.929 . S
C1635 C1634 1.399 . S
C1635 C1636 1.385 . S
C1636 H1622 0.931 . S
C1636 C1635 1.385 . S
C1636 C1637 1.389 . S
C1637 C1636 1.389 . S
C1637 C1638 1.387 . S
C1638 H1623 0.930 1_554 S
C1638 C1633 1.390 . S
C1638 C1637 1.387 . S
H1639 C1651 0.930 1_556 S
H1640 C1653 0.930 . S
H1641 C1654 0.930 . S
H1642 C1658 0.959 . S
H1643 C1658 0.959 . S
H1644 C1658 0.961 . S
H1645 C1659 0.960 . S
H1646 C1659 0.961 . S
H1647 C1659 0.959 . S
H1648 C1662 0.929 . S
H1649 C1663 0.931 . S
H1650 C1665 0.930 . S
C1651 H1639 0.930 1_554 S
C1651 C1652 1.399 . S
C1651 C1656 1.399 . S
C1652 C1651 1.399 . S
C1652 C1653 1.376 . S
C1653 H1640 0.930 . S
C1653 C1652 1.376 . S
C1653 C1654 1.388 . S
C1654 H1641 0.930 . S
C1654 C1653 1.388 . S
C1654 C1655 1.390 . S
C1655 C1654 1.390 . S
C1655 C1656 1.394 . S
C1655 C1661 1.465 . S
C1656 C1651 1.399 . S
C1656 C1655 1.394 . S
C1656 C1657 1.516 1_554 S
C1657 C1656 1.516 1_556 S
C1657 C1658 1.502 . S
C1657 C1659 1.561 . S
C1657 C1660 1.526 . S
C1658 H1642 0.959 . S
C1658 H1643 0.959 . S
C1658 H1644 0.961 . S
C1658 C1657 1.502 . S
C1659 H1645 0.960 . S
C1659 H1646 0.961 . S
C1659 H1647 0.959 . S
C1659 C1657 1.561 . S
C1660 C1657 1.526 . S
C1660 C1661 1.396 1_556 S
C1660 C1665 1.390 . S
C1661 C1655 1.465 . S
C1661 C1660 1.396 1_554 S
C1661 C1662 1.399 . S
C1662 H1648 0.929 . S
C1662 C1661 1.399 . S
C1662 C1663 1.385 . S
C1663 H1649 0.931 . S
C1663 C1662 1.385 . S
C1663 C1664 1.389 1_554 S
C1664 C1663 1.389 1_556 S
C1664 C1665 1.387 . S
C1665 H1650 0.930 . S
C1665 C1660 1.390 . S
C1665 C1664 1.387 . S
H1666 C1678 0.930 . S
H1667 C1680 0.930 . S
H1668 C1681 0.930 . S
H1669 C1685 0.959 . S
H1670 C1685 0.959 . S
H1671 C1685 0.961 . S
H1672 C1686 0.960 . S
H1673 C1686 0.961 . S
H1674 C1686 0.959 . S
H1675 C1689 0.929 1_556 S
H1676 C1690 0.931 . S
H1677 C1692 0.930 . S
C1678 H1666 0.930 . S
C1678 C1679 1.399 1_554 S
C1678 C1683 1.399 . S
C1679 C1678 1.399 1_556 S
C1679 C1680 1.376 . S
C1680 H1667 0.930 . S
C1680 C1679 1.376 . S
C1680 C1681 1.388 . S
C1681 H1668 0.930 . S
C1681 C1680 1.388 . S
C1681 C1682 1.390 1_556 S
C1682 C1681 1.390 1_554 S
C1682 C1683 1.394 . S
C1682 C1688 1.465 . S
C1683 C1678 1.399 . S
C1683 C1682 1.394 . S
C1683 C1684 1.516 . S
C1684 C1683 1.516 . S
C1684 C1685 1.502 . S
C1684 C1686 1.561 . S
C1684 C1687 1.526 . S
C1685 H1669 0.959 . S
C1685 H1670 0.959 . S
C1685 H1671 0.961 . S
C1685 C1684 1.502 . S
C1686 H1672 0.960 . S
C1686 H1673 0.961 . S
C1686 H1674 0.959 . S
C1686 C1684 1.561 . S
C1687 C1684 1.526 . S
C1687 C1688 1.396 . S
C1687 C1692 1.390 . S
C1688 C1682 1.465 . S
C1688 C1687 1.396 . S
C1688 C1689 1.399 . S
C1689 H1675 0.929 1_554 S
C1689 C1688 1.399 . S
C1689 C1690 1.385 . S
C1690 H1676 0.931 . S
C1690 C1689 1.385 . S
C1690 C1691 1.389 . S
C1691 C1690 1.389 . S
C1691 C1692 1.387 . S
C1692 H1677 0.930 . S
C1692 C1687 1.390 . S
C1692 C1691 1.387 . S
H1693 C1705 0.930 1_556 S
H1694 C1707 0.930 . S
H1695 C1708 0.930 . S
H1696 C1712 0.959 . S
H1697 C1712 0.959 . S
H1698 C1712 0.961 . S
H1699 C1713 0.960 . S
H1700 C1713 0.961 . S
H1701 C1713 0.959 . S
H1702 C1716 0.929 . S
H1703 C1717 0.931 . S
H1704 C1719 0.930 . S
C1705 H1693 0.930 1_554 S
C1705 C1706 1.399 . S
C1705 C1710 1.399 . S
C1706 C1705 1.399 . S
C1706 C1707 1.376 . S
C1707 H1694 0.930 . S
C1707 C1706 1.376 . S
C1707 C1708 1.388 . S
C1708 H1695 0.930 . S
C1708 C1707 1.388 . S
C1708 C1709 1.390 . S
C1709 C1708 1.390 . S
C1709 C1710 1.394 . S
C1709 C1715 1.465 . S
C1710 C1705 1.399 . S
C1710 C1709 1.394 . S
C1710 C1711 1.516 1_554 S
C1711 C1710 1.516 1_556 S
C1711 C1712 1.502 . S
C1711 C1713 1.561 . S
C1711 C1714 1.526 . S
C1712 H1696 0.959 . S
C1712 H1697 0.959 . S
C1712 H1698 0.961 . S
C1712 C1711 1.502 . S
C1713 H1699 0.960 . S
C1713 H1700 0.961 . S
C1713 H1701 0.959 . S
C1713 C1711 1.561 . S
C1714 C1711 1.526 . S
C1714 C1715 1.396 1_556 S
C1714 C1719 1.390 . S
C1715 C1709 1.465 . S
C1715 C1714 1.396 1_554 S
C1715 C1716 1.399 . S
C1716 H1702 0.929 . S
C1716 C1715 1.399 . S
C1716 C1717 1.385 . S
C1717 H1703 0.931 . S
C1717 C1716 1.385 . S
C1717 C1718 1.389 1_554 S
C1718 C1717 1.389 1_556 S
C1718 C1719 1.387 . S
C1719 H1704 0.930 . S
C1719 C1714 1.390 . S
C1719 C1718 1.387 . S
H1720 C1732 0.930 . S
H1721 C1734 0.930 . S
H1722 C1735 0.930 . S
H1723 C1739 0.959 . S
H1724 C1739 0.959 . S
H1725 C1739 0.961 . S
H1726 C1740 0.960 . S
H1727 C1740 0.961 . S
H1728 C1740 0.959 . S
H1729 C1743 0.929 . S
H1730 C1744 0.931 . S
H1731 C1746 0.930 . S
C1732 H1720 0.930 . S
C1732 C1733 1.399 . S
C1732 C1737 1.399 . S
C1733 C1732 1.399 . S
C1733 C1734 1.376 . S
C1734 H1721 0.930 . S
C1734 C1733 1.376 . S
C1734 C1735 1.388 . S
C1735 H1722 0.930 . S
C1735 C1734 1.388 . S
C1735 C1736 1.390 . S
C1736 C1735 1.390 . S
C1736 C1737 1.394 . S
C1736 C1742 1.465 . S
C1737 C1732 1.399 . S
C1737 C1736 1.394 . S
C1737 C1738 1.516 . S
C1738 C1737 1.516 . S
C1738 C1739 1.502 . S
C1738 C1740 1.561 . S
C1738 C1741 1.526 . S
C1739 H1723 0.959 . S
C1739 H1724 0.959 . S
C1739 H1725 0.961 . S
C1739 C1738 1.502 . S
C1740 H1726 0.960 . S
C1740 H1727 0.961 . S
C1740 H1728 0.959 . S
C1740 C1738 1.561 . S
C1741 C1738 1.526 . S
C1741 C1742 1.396 . S
C1741 C1746 1.390 . S
C1742 C1736 1.465 . S
C1742 C1741 1.396 . S
C1742 C1743 1.399 . S
C1743 H1729 0.929 . S
C1743 C1742 1.399 . S
C1743 C1744 1.385 . S
C1744 H1730 0.931 . S
C1744 C1743 1.385 . S
C1744 C1745 1.389 . S
C1745 C1744 1.389 . S
C1745 C1746 1.387 . S
C1746 H1731 0.930 . S
C1746 C1741 1.390 . S
C1746 C1745 1.387 . S
H1747 C1759 0.930 . S
H1748 C1761 0.930 . S
H1749 C1762 0.930 . S
H1750 C1766 0.959 . S
H1751 C1766 0.959 . S
H1752 C1766 0.961 . S
H1753 C1767 0.960 . S
H1754 C1767 0.961 . S
H1755 C1767 0.959 . S
H1756 C1770 0.929 . S
H1757 C1771 0.931 . S
H1758 C1773 0.930 . S
C1759 H1747 0.930 . S
C1759 C1760 1.399 . S
C1759 C1764 1.399 . S
C1760 C1759 1.399 . S
C1760 C1761 1.376 . S
C1761 H1748 0.930 . S
C1761 C1760 1.376 . S
C1761 C1762 1.388 . S
C1762 H1749 0.930 . S
C1762 C1761 1.388 . S
C1762 C1763 1.390 . S
C1763 C1762 1.390 . S
C1763 C1764 1.394 . S
C1763 C1769 1.465 . S
C1764 C1759 1.399 . S
C1764 C1763 1.394 . S
C1764 C1765 1.516 . S
C1765 C1764 1.516 . S
C1765 C1766 1.502 . S
C1765 C1767 1.561 . S
C1765 C1768 1.526 . S
C1766 H1750 0.959 . S
C1766 H1751 0.959 . S
C1766 H1752 0.961 . S
C1766 C1765 1.502 . S
C1767 H1753 0.960 . S
C1767 H1754 0.961 . S
C1767 H1755 0.959 . S
C1767 C1765 1.561 . S
C1768 C1765 1.526 . S
C1768 C1769 1.396 . S
C1768 C1773 1.390 . S
C1769 C1763 1.465 . S
C1769 C1768 1.396 . S
C1769 C1770 1.399 . S
C1770 H1756 0.929 . S
C1770 C1769 1.399 . S
C1770 C1771 1.385 . S
C1771 H1757 0.931 . S
C1771 C1770 1.385 . S
C1771 C1772 1.389 . S
C1772 C1771 1.389 . S
C1772 C1773 1.387 . S
C1773 H1758 0.930 . S
C1773 C1768 1.390 . S
C1773 C1772 1.387 . S
H1774 C1786 0.930 . S
H1775 C1788 0.930 . S
H1776 C1789 0.930 . S
H1777 C1793 0.959 . S
H1778 C1793 0.959 . S
H1779 C1793 0.961 . S
H1780 C1794 0.960 . S
H1781 C1794 0.961 . S
H1782 C1794 0.959 . S
H1783 C1797 0.929 . S
H1784 C1798 0.931 . S
H1785 C1800 0.930 . S
C1786 H1774 0.930 . S
C1786 C1787 1.399 . S
C1786 C1791 1.399 . S
C1787 C1786 1.399 . S
C1787 C1788 1.376 . S
C1788 H1775 0.930 . S
C1788 C1787 1.376 . S
C1788 C1789 1.388 . S
C1789 H1776 0.930 . S
C1789 C1788 1.388 . S
C1789 C1790 1.390 . S
C1790 C1789 1.390 . S
C1790 C1791 1.394 . S
C1790 C1796 1.465 . S
C1791 C1786 1.399 . S
C1791 C1790 1.394 . S
C1791 C1792 1.516 . S
C1792 C1791 1.516 . S
C1792 C1793 1.502 . S
C1792 C1794 1.561 . S
C1792 C1795 1.526 . S
C1793 H1777 0.959 . S
C1793 H1778 0.959 . S
C1793 H1779 0.961 . S
C1793 C1792 1.502 . S
C1794 H1780 0.960 . S
C1794 H1781 0.961 . S
C1794 H1782 0.959 . S
C1794 C1792 1.561 . S
C1795 C1792 1.526 . S
C1795 C1796 1.396 . S
C1795 C1800 1.390 . S
C1796 C1790 1.465 . S
C1796 C1795 1.396 . S
C1796 C1797 1.399 . S
C1797 H1783 0.929 . S
C1797 C1796 1.399 . S
C1797 C1798 1.385 . S
C1798 H1784 0.931 . S
C1798 C1797 1.385 . S
C1798 C1799 1.389 . S
C1799 C1798 1.389 . S
C1799 C1800 1.387 . S
C1800 H1785 0.930 . S
C1800 C1795 1.390 . S
C1800 C1799 1.387 . S
H1801 C1813 0.930 . S
H1802 C1815 0.930 . S
H1803 C1816 0.930 . S
H1804 C1820 0.959 . S
H1805 C1820 0.959 . S
H1806 C1820 0.961 . S
H1807 C1821 0.960 . S
H1808 C1821 0.961 . S
H1809 C1821 0.959 . S
H1810 C1824 0.929 . S
H1811 C1825 0.931 . S
H1812 C1827 0.930 . S
C1813 H1801 0.930 . S
C1813 C1814 1.399 . S
C1813 C1818 1.399 . S
C1814 C1813 1.399 . S
C1814 C1815 1.376 . S
C1815 H1802 0.930 . S
C1815 C1814 1.376 . S
C1815 C1816 1.388 . S
C1816 H1803 0.930 . S
C1816 C1815 1.388 . S
C1816 C1817 1.390 . S
C1817 C1816 1.390 . S
C1817 C1818 1.394 . S
C1817 C1823 1.465 . S
C1818 C1813 1.399 . S
C1818 C1817 1.394 . S
C1818 C1819 1.516 . S
C1819 C1818 1.516 . S
C1819 C1820 1.502 . S
C1819 C1821 1.561 . S
C1819 C1822 1.526 . S
C1820 H1804 0.959 . S
C1820 H1805 0.959 . S
C1820 H1806 0.961 . S
C1820 C1819 1.502 . S
C1821 H1807 0.960 . S
C1821 H1808 0.961 . S
C1821 H1809 0.959 . S
C1821 C1819 1.561 . S
C1822 C1819 1.526 . S
C1822 C1823 1.396 . S
C1822 C1827 1.390 . S
C1823 C1817 1.465 . S
C1823 C1822 1.396 . S
C1823 C1824 1.399 . S
C1824 H1810 0.929 . S
C1824 C1823 1.399 . S
C1824 C1825 1.385 . S
C1825 H1811 0.931 . S
C1825 C1824 1.385 . S
C1825 C1826 1.389 . S
C1826 C1825 1.389 . S
C1826 C1827 1.387 . S
C1827 H1812 0.930 . S
C1827 C1822 1.390 . S
C1827 C1826 1.387 . S
H1828 C1840 0.930 . S
H1829 C1842 0.930 . S
H1830 C1843 0.930 . S
H1831 C1847 0.959 1_556 S
H1832 C1847 0.959 . S
H1833 C1847 0.961 . S
H1834 C1848 0.960 . S
H1835 C1848 0.961 . S
H1836 C1848 0.959 . S
H1837 C1851 0.929 . S
H1838 C1852 0.931 . S
H1839 C1854 0.930 . S
C1840 H1828 0.930 . S
C1840 C1841 1.399 . S
C1840 C1845 1.399 . S
C1841 C1840 1.399 . S
C1841 C1842 1.376 . S
C1842 H1829 0.930 . S
C1842 C1841 1.376 . S
C1842 C1843 1.388 . S
C1843 H1830 0.930 . S
C1843 C1842 1.388 . S
C1843 C1844 1.390 . S
C1844 C1843 1.390 . S
C1844 C1845 1.394 . S
C1844 C1850 1.465 . S
C1845 C1840 1.399 . S
C1845 C1844 1.394 . S
C1845 C1846 1.516 1_556 S
C1846 C1845 1.516 1_554 S
C1846 C1847 1.502 . S
C1846 C1848 1.561 . S
C1846 C1849 1.526 . S
C1847 H1831 0.959 1_554 S
C1847 H1832 0.959 . S
C1847 H1833 0.961 . S
C1847 C1846 1.502 . S
C1848 H1834 0.960 . S
C1848 H1835 0.961 . S
C1848 H1836 0.959 . S
C1848 C1846 1.561 . S
C1849 C1846 1.526 . S
C1849 C1850 1.396 1_554 S
C1849 C1854 1.390 . S
C1850 C1844 1.465 . S
C1850 C1849 1.396 1_556 S
C1850 C1851 1.399 . S
C1851 H1837 0.929 . S
C1851 C1850 1.399 . S
C1851 C1852 1.385 . S
C1852 H1838 0.931 . S
C1852 C1851 1.385 . S
C1852 C1853 1.389 1_556 S
C1853 C1852 1.389 1_554 S
C1853 C1854 1.387 . S
C1854 H1839 0.930 . S
C1854 C1849 1.390 . S
C1854 C1853 1.387 . S
H1855 C1867 0.930 . S
H1856 C1869 0.930 . S
H1857 C1870 0.930 . S
H1858 C1874 0.959 . S
H1859 C1874 0.959 . S
H1860 C1874 0.961 . S
H1861 C1875 0.960 . S
H1862 C1875 0.961 . S
H1863 C1875 0.959 . S
H1864 C1878 0.929 . S
H1865 C1879 0.931 . S
H1866 C1881 0.930 . S
C1867 H1855 0.930 . S
C1867 C1868 1.399 . S
C1867 C1872 1.399 . S
C1868 C1867 1.399 . S
C1868 C1869 1.376 . S
C1869 H1856 0.930 . S
C1869 C1868 1.376 . S
C1869 C1870 1.388 . S
C1870 H1857 0.930 . S
C1870 C1869 1.388 . S
C1870 C1871 1.390 . S
C1871 C1870 1.390 . S
C1871 C1872 1.394 . S
C1871 C1877 1.465 . S
C1872 C1867 1.399 . S
C1872 C1871 1.394 . S
C1872 C1873 1.516 . S
C1873 C1872 1.516 . S
C1873 C1874 1.502 . S
C1873 C1875 1.561 1_556 S
C1873 C1876 1.526 . S
C1874 H1858 0.959 . S
C1874 H1859 0.959 . S
C1874 H1860 0.961 . S
C1874 C1873 1.502 . S
C1875 H1861 0.960 . S
C1875 H1862 0.961 . S
C1875 H1863 0.959 . S
C1875 C1873 1.561 1_554 S
C1876 C1873 1.526 . S
C1876 C1877 1.396 . S
C1876 C1881 1.389 1_556 S
C1877 C1871 1.465 . S
C1877 C1876 1.396 . S
C1877 C1878 1.399 . S
C1878 H1864 0.929 . S
C1878 C1877 1.399 . S
C1878 C1879 1.385 . S
C1879 H1865 0.931 . S
C1879 C1878 1.385 . S
C1879 C1880 1.389 1_556 S
C1880 C1879 1.389 1_554 S
C1880 C1881 1.387 . S
C1881 H1866 0.930 . S
C1881 C1876 1.389 1_554 S
C1881 C1880 1.387 . S
H1882 C1894 0.930 . S
H1883 C1896 0.930 . S
H1884 C1897 0.930 . S
H1885 C1901 0.959 1_556 S
H1886 C1901 0.959 . S
H1887 C1901 0.961 . S
H1888 C1902 0.960 . S
H1889 C1902 0.961 . S
H1890 C1902 0.959 . S
H1891 C1905 0.929 . S
H1892 C1906 0.931 . S
H1893 C1908 0.930 . S
C1894 H1882 0.930 . S
C1894 C1895 1.399 . S
C1894 C1899 1.399 . S
C1895 C1894 1.399 . S
C1895 C1896 1.376 1_554 S
C1896 H1883 0.930 . S
C1896 C1895 1.376 1_556 S
C1896 C1897 1.388 . S
C1897 H1884 0.930 . S
C1897 C1896 1.388 . S
C1897 C1898 1.390 . S
C1898 C1897 1.390 . S
C1898 C1899 1.394 1_556 S
C1898 C1904 1.465 . S
C1899 C1894 1.399 . S
C1899 C1898 1.394 1_554 S
C1899 C1900 1.516 . S
C1900 C1899 1.516 . S
C1900 C1901 1.502 . S
C1900 C1902 1.561 . S
C1900 C1903 1.526 1_554 S
C1901 H1885 0.959 1_554 S
C1901 H1886 0.959 . S
C1901 H1887 0.961 . S
C1901 C1900 1.502 . S
C1902 H1888 0.960 . S
C1902 H1889 0.961 . S
C1902 H1890 0.959 . S
C1902 C1900 1.561 . S
C1903 C1900 1.526 1_556 S
C1903 C1904 1.396 . S
C1903 C1908 1.390 . S
C1904 C1898 1.465 . S
C1904 C1903 1.396 . S
C1904 C1905 1.399 . S
C1905 H1891 0.929 . S
C1905 C1904 1.399 . S
C1905 C1906 1.385 . S
C1906 H1892 0.931 . S
C1906 C1905 1.385 . S
C1906 C1907 1.389 . S
C1907 C1906 1.389 . S
C1907 C1908 1.387 . S
C1908 H1893 0.930 . S
C1908 C1903 1.390 . S
C1908 C1907 1.387 . S
H1909 C1921 0.930 . S
H1910 C1923 0.930 . S
H1911 C1924 0.930 . S
H1912 C1928 0.959 . S
H1913 C1928 0.959 . S
H1914 C1928 0.961 . S
H1915 C1929 0.960 . S
H1916 C1929 0.961 . S
H1917 C1929 0.959 . S
H1918 C1932 0.929 . S
H1919 C1933 0.931 . S
H1920 C1935 0.930 . S
C1921 H1909 0.930 . S
C1921 C1922 1.399 1_556 S
C1921 C1926 1.399 . S
C1922 C1921 1.399 1_554 S
C1922 C1923 1.376 . S
C1923 H1910 0.930 . S
C1923 C1922 1.376 . S
C1923 C1924 1.388 . S
C1924 H1911 0.930 . S
C1924 C1923 1.388 . S
C1924 C1925 1.386 1_554 S
C1925 C1924 1.386 1_556 S
C1925 C1926 1.397 . S
C1925 C1931 1.467 . S
C1926 C1921 1.399 . S
C1926 C1925 1.397 . S
C1926 C1927 1.516 . S
C1927 C1926 1.516 . S
C1927 C1928 1.502 . S
C1927 C1929 1.561 . S
C1927 C1930 1.526 . S
C1928 H1912 0.959 . S
C1928 H1913 0.959 . S
C1928 H1914 0.961 . S
C1928 C1927 1.502 . S
C1929 H1915 0.960 . S
C1929 H1916 0.961 . S
C1929 H1917 0.959 . S
C1929 C1927 1.561 . S
C1930 C1927 1.526 . S
C1930 C1931 1.396 . S
C1930 C1935 1.390 . S
C1931 C1925 1.467 . S
C1931 C1930 1.396 . S
C1931 C1932 1.399 1_556 S
C1932 H1918 0.929 . S
C1932 C1931 1.399 1_554 S
C1932 C1933 1.385 1_554 S
C1933 H1919 0.931 . S
C1933 C1932 1.385 1_556 S
C1933 C1934 1.389 . S
C1934 C1933 1.389 . S
C1934 C1935 1.387 . S
C1935 H1920 0.930 . S
C1935 C1930 1.390 . S
C1935 C1934 1.387 . S
C653 C2 2.322 . S
C665 C202 2.303 . S
C680 C242 2.331 . S
C692 C42 2.305 . S
C707 C82 2.362 . S
C719 C282 2.378 . S
C734 C122 2.305 . S
C746 C162 2.313 . S
C761 C543 2.358 . S
C773 C343 2.344 . S
C788 C583 2.303 . S
C800 C383 2.305 . S
C815 C423 2.327 . S
C827 C623 2.342 . S
C842 C463 2.344 . S
C854 C503 2.330 . S
C869 C17 1.872 . S
C881 C144 1.725 1_545 S
C896 C57 1.861 . S
C908 C24 1.814 . S
C923 C97 1.900 . S
C935 C64 1.792 . S
C950 C137 1.892 . S
C962 C104 1.724 1_455 S
C977 C177 1.899 . S
C989 C224 1.730 1_565 S
C1004 C264 1.757 . S
C1016 C217 1.907 . S
C1031 C257 1.846 . S
C1043 C304 1.780 . S
C1058 C184 1.776 1_655 S
C1070 C297 1.906 . S
C1085 C453 1.731 1_565 S
C1097 C346 1.882 . S
C1112 C386 1.908 . S
C1124 C333 1.734 . S
C1139 C426 1.846 . S
C1151 C373 1.808 . S
C1166 C466 1.849 . S
C1178 C413 1.788 1_655 S
C1193 C506 1.860 . S
C1205 C533 1.815 1_545 S
C1220 C546 1.906 . S
C1232 C573 1.746 . S
C1247 C586 1.891 . S
C1259 C613 1.725 . S
C1274 C626 1.906 . S
C1286 C493 1.749 1_455 S
C1301 C26 1.395 . S
C1313 C106 1.408 . S
C1328 C66 1.395 . S
C1340 C146 1.409 . S
C1355 C266 1.436 . S
C1367 C186 1.426 . S
C1382 C306 1.395 . S
C1394 C226 1.404 . S
C1409 C417 1.415 . S
C1421 C337 1.395 . S
C1436 C457 1.410 . S
C1448 C377 1.397 . S
C1463 C497 1.419 . S
C1475 C577 1.394 . S
C1490 C537 1.412 . S
C1502 C617 1.396 . S
C1517 C13 2.694 . S
C1529 C442 2.668 . S
C1544 C322 2.687 . S
C1556 C53 2.685 . S
C1571 C93 2.703 . S
C1583 C362 2.658 . S
C1598 C402 2.662 . S
C1610 C133 2.705 . S
C1625 C522 2.688 . S
C1637 C173 2.687 . S
C1652 C213 2.688 . S
C1664 C562 2.686 . S
C1679 C602 2.664 . S
C1691 C253 2.704 . S
C1706 C293 2.693 . S
C1718 C482 2.682 . S
C1733 C344 2.685 . S
C1745 C143 2.688 . S
C1760 C384 2.685 . S
C1772 C23 2.688 . S
C1787 C63 2.673 . S
C1799 C424 2.693 . S
C1814 C464 2.688 . S
C1826 C103 2.685 . S
C1841 C504 2.689 . S
C1853 C223 2.684 . S
C1868 C544 2.693 . S
C1880 C263 2.678 . S
C1895 C303 2.673 . S
C1907 C584 2.693 . S
C1922 C183 2.669 . S
C1934 C624 2.700 . S
