# Generated by pormake.
# Topology ske, (6)-cn, num edge types: 1
# Building blocks:
#     Node 0, Type 0, BuildingBlock: PAMTOO_clean_sbu_0, # of connection points: 6
#     Node 1, Type 0, BuildingBlock: PAMTOO_clean_sbu_0, # of connection points: 6
#     Node 2, Type 0, BuildingBlock: PAMTOO_clean_sbu_0, # of connection points: 6
#     Node 3, Type 0, BuildingBlock: PAMTOO_clean_sbu_0, # of connection points: 6
#     Node 4, Type 0, BuildingBlock: PAMTOO_clean_sbu_0, # of connection points: 6
#     Node 5, Type 0, BuildingBlock: PAMTOO_clean_sbu_0, # of connection points: 6
#     Node 6, Type 0, BuildingBlock: PAMTOO_clean_sbu_0, # of connection points: 6
#     Node 7, Type 0, BuildingBlock: PAMTOO_clean_sbu_0, # of connection points: 6
#     Edge 8, Type (0, 0), BuildingBlock: MIFKUJ_clean_linker_0, # of connection points: 2
#     Edge 9, Type (0, 0), BuildingBlock: MIFKUJ_clean_linker_0, # of connection points: 2
#     Edge 10, Type (0, 0), BuildingBlock: MIFKUJ_clean_linker_0, # of connection points: 2
#     Edge 11, Type (0, 0), BuildingBlock: MIFKUJ_clean_linker_0, # of connection points: 2
#     Edge 12, Type (0, 0), BuildingBlock: MIFKUJ_clean_linker_0, # of connection points: 2
#     Edge 13, Type (0, 0), BuildingBlock: MIFKUJ_clean_linker_0, # of connection points: 2
#     Edge 14, Type (0, 0), BuildingBlock: MIFKUJ_clean_linker_0, # of connection points: 2
#     Edge 15, Type (0, 0), BuildingBlock: MIFKUJ_clean_linker_0, # of connection points: 2
#     Edge 16, Type (0, 0), BuildingBlock: MIFKUJ_clean_linker_0, # of connection points: 2
#     Edge 17, Type (0, 0), BuildingBlock: MIFKUJ_clean_linker_0, # of connection points: 2
#     Edge 18, Type (0, 0), BuildingBlock: MIFKUJ_clean_linker_0, # of connection points: 2
#     Edge 19, Type (0, 0), BuildingBlock: MIFKUJ_clean_linker_0, # of connection points: 2
#     Edge 20, Type (0, 0), BuildingBlock: MIFKUJ_clean_linker_0, # of connection points: 2
#     Edge 21, Type (0, 0), BuildingBlock: MIFKUJ_clean_linker_0, # of connection points: 2
#     Edge 22, Type (0, 0), BuildingBlock: MIFKUJ_clean_linker_0, # of connection points: 2
#     Edge 23, Type (0, 0), BuildingBlock: MIFKUJ_clean_linker_0, # of connection points: 2
#     Edge 24, Type (0, 0), BuildingBlock: MIFKUJ_clean_linker_0, # of connection points: 2
#     Edge 25, Type (0, 0), BuildingBlock: MIFKUJ_clean_linker_0, # of connection points: 2
#     Edge 26, Type (0, 0), BuildingBlock: MIFKUJ_clean_linker_0, # of connection points: 2
#     Edge 27, Type (0, 0), BuildingBlock: MIFKUJ_clean_linker_0, # of connection points: 2
#     Edge 28, Type (0, 0), BuildingBlock: MIFKUJ_clean_linker_0, # of connection points: 2
#     Edge 29, Type (0, 0), BuildingBlock: MIFKUJ_clean_linker_0, # of connection points: 2
#     Edge 30, Type (0, 0), BuildingBlock: MIFKUJ_clean_linker_0, # of connection points: 2
#     Edge 31, Type (0, 0), BuildingBlock: MIFKUJ_clean_linker_0, # of connection points: 2
# Relax obj value: 0.158
# Max RMSD: 0.177
# Mean RMSD: 0.171
data_MOF--net-ske--node1-PAMTOO_clean_sbu_0--edge1-MIFKUJ_clean_linker_0
_symmetry_space_group_name_H-M    P1
_symmetry_Int_Tables_number       1
_symmetry_cell_setting            triclinic
loop_
_symmetry_equiv_pos_as_xyz
'x, y, z'
_cell_length_a     122.57256
_cell_length_b     39.062237
_cell_length_c     19.969572
_cell_angle_alpha  90.03873
_cell_angle_beta   90.054026
_cell_angle_gamma 90.015149
loop_
_atom_site_label
_atom_site_type_symbol
_atom_site_fract_x
_atom_site_fract_y
_atom_site_fract_z
_atom_type_partial_charge
Dy0 Dy 0.14695 0.23958 0.57275 0.0
Dy1 Dy 0.11958 0.23688 0.57686 0.0
C2 C 0.13384 0.17071 0.56435 0.0
O3 O 0.1418 0.24888 0.46697 0.0
O4 O 0.12361 0.23274 0.46767 0.0
O5 O 0.1621 0.2121 0.58495 0.0
O6 O 0.1623 0.26523 0.55311 0.0
O7 O 0.12425 0.28982 0.54662 0.0
O8 O 0.14104 0.29212 0.59777 0.0
O9 O 0.12493 0.24809 0.6814 0.0
O10 O 0.1427 0.229 0.67983 0.0
O11 O 0.10404 0.25793 0.60725 0.0
O12 O 0.10476 0.20785 0.55979 0.0
C13 C 0.13263 0.24133 0.43581 0.0
O14 O 0.14122 0.18927 0.53408 0.0
O15 O 0.12636 0.18536 0.60135 0.0
C16 C 0.17849 0.24319 0.60626 0.0
C17 C 0.1997 0.25117 0.66098 0.0
C18 C 0.1958 0.21868 0.64217 0.0
C19 C 0.18535 0.21479 0.61516 0.0
C20 C 0.18223 0.27566 0.62631 0.0
C21 C 0.19272 0.27958 0.65353 0.0
C22 C 0.16811 0.23844 0.56912 0.0
C23 C 0.13257 0.30731 0.57029 0.0
C24 C 0.13388 0.23852 0.71244 0.0
C25 C 0.08752 0.23653 0.55786 0.0
C26 C 0.06536 0.24612 0.52164 0.0
C27 C 0.07297 0.27299 0.51496 0.0
C28 C 0.08395 0.26828 0.53309 0.0
C29 C 0.08003 0.20951 0.56256 0.0
C30 C 0.0691 0.2142 0.54487 0.0
C31 C 0.09855 0.23138 0.58616 0.0
H32 H 0.20097 0.19628 0.64589 0.0
H33 H 0.18277 0.18955 0.59905 0.0
H34 H 0.17716 0.29812 0.61965 0.0
H35 H 0.19539 0.30494 0.66813 0.0
H36 H 0.07044 0.29779 0.49646 0.0
H37 H 0.08956 0.28961 0.52916 0.0
H38 H 0.08255 0.18493 0.58239 0.0
H39 H 0.06352 0.19305 0.55207 0.0
Dy40 Dy 0.86641 0.23934 0.56442 0.0
Dy41 Dy 0.89384 0.23982 0.5683 0.0
C42 C 0.88009 0.30827 0.55864 0.0
O43 O 0.87136 0.24581 0.45742 0.0
O44 O 0.88995 0.23485 0.45907 0.0
O45 O 0.85098 0.2634 0.54037 0.0
O46 O 0.85135 0.21218 0.58237 0.0
O47 O 0.88789 0.18729 0.59241 0.0
O48 O 0.87248 0.18892 0.52862 0.0
O49 O 0.88823 0.25126 0.67231 0.0
O50 O 0.87088 0.22894 0.6712 0.0
O51 O 0.90927 0.21514 0.54771 0.0
O52 O 0.90883 0.26253 0.60475 0.0
C53 C 0.88072 0.2403 0.42681 0.0
O54 O 0.87194 0.29248 0.58821 0.0
O55 O 0.88846 0.29134 0.53429 0.0
C56 C 0.83497 0.24432 0.59938 0.0
C57 C 0.81373 0.25411 0.65269 0.0
C58 C 0.81968 0.28186 0.62638 0.0
C59 C 0.83016 0.27702 0.59986 0.0
C60 C 0.82915 0.21682 0.62736 0.0
C61 C 0.8187 0.22164 0.65381 0.0
C62 C 0.84524 0.23752 0.56217 0.0
C63 C 0.88031 0.17162 0.55758 0.0
C64 C 0.87951 0.24008 0.70367 0.0
C65 C 0.92581 0.24834 0.55201 0.0
C66 C 0.94806 0.25825 0.51799 0.0
C67 C 0.94126 0.23743 0.47814 0.0
C68 C 0.93027 0.23244 0.49505 0.0
C69 C 0.93247 0.27023 0.59009 0.0
C70 C 0.94343 0.27518 0.57331 0.0
C71 C 0.91494 0.23866 0.57861 0.0
H72 H 0.81618 0.3073 0.62541 0.0
H73 H 0.83435 0.29872 0.57803 0.0
H74 H 0.83251 0.19117 0.62659 0.0
H75 H 0.81434 0.19953 0.67259 0.0
H76 H 0.94449 0.22437 0.43462 0.0
H77 H 0.92539 0.21521 0.46485 0.0
H78 H 0.92932 0.28235 0.63491 0.0
H79 H 0.9484 0.29097 0.60585 0.0
Dy80 Dy 0.14728 0.74025 0.44903 0.0
Dy81 Dy 0.11981 0.73662 0.44461 0.0
C82 C 0.13268 0.8071 0.45186 0.0
O83 O 0.14189 0.74795 0.55482 0.0
O84 O 0.12384 0.73073 0.55339 0.0
O85 O 0.1622 0.76576 0.47969 0.0
O86 O 0.16284 0.71639 0.4296 0.0
O87 O 0.12634 0.68485 0.42042 0.0
O88 O 0.14195 0.68844 0.48245 0.0
O89 O 0.12516 0.74599 0.33936 0.0
O90 O 0.14336 0.73097 0.34119 0.0
O91 O 0.10462 0.71074 0.46653 0.0
O92 O 0.1046 0.75758 0.40786 0.0
C93 C 0.1328 0.73945 0.58568 0.0
O94 O 0.14106 0.79229 0.42268 0.0
O95 O 0.1246 0.78911 0.477 0.0
C96 C 0.17898 0.75046 0.42665 0.0
C97 C 0.20012 0.76163 0.37378 0.0
C98 C 0.19104 0.75774 0.33089 0.0
C99 C 0.18056 0.75213 0.3571 0.0
C100 C 0.18793 0.75513 0.46935 0.0
C101 C 0.19836 0.76055 0.44339 0.0
C102 C 0.1684 0.74125 0.45689 0.0
C103 C 0.13425 0.67019 0.454 0.0
C104 C 0.13432 0.73827 0.30866 0.0
C105 C 0.08782 0.74261 0.46186 0.0
C106 C 0.06557 0.75168 0.4967 0.0
C107 C 0.07248 0.73117 0.53631 0.0
C108 C 0.08348 0.72659 0.51899 0.0
C109 C 0.08103 0.76414 0.42392 0.0
C110 C 0.07007 0.76867 0.4411 0.0
C111 C 0.09872 0.73346 0.43506 0.0
H112 H 0.19204 0.75883 0.27706 0.0
H113 H 0.17375 0.74853 0.32319 0.0
H114 H 0.1869 0.75358 0.52317 0.0
H115 H 0.20511 0.76272 0.47817 0.0
H116 H 0.06935 0.71805 0.58001 0.0
H117 H 0.08845 0.70961 0.54907 0.0
H118 H 0.08408 0.77633 0.37895 0.0
H119 H 0.06501 0.78422 0.40869 0.0
Dy120 Dy 0.86656 0.74282 0.44958 0.0
Dy121 Dy 0.89391 0.73589 0.44562 0.0
C122 C 0.87861 0.6718 0.45358 0.0
O123 O 0.87199 0.75148 0.55511 0.0
O124 O 0.88966 0.73071 0.55432 0.0
O125 O 0.85088 0.71913 0.43382 0.0
O126 O 0.85176 0.77063 0.47466 0.0
O127 O 0.88993 0.78924 0.47669 0.0
O128 O 0.87339 0.79403 0.42348 0.0
O129 O 0.88884 0.74706 0.34052 0.0
O130 O 0.8705 0.73359 0.34161 0.0
O131 O 0.90967 0.75482 0.41477 0.0
O132 O 0.90838 0.70538 0.46423 0.0
C133 C 0.88091 0.74154 0.58635 0.0
O134 O 0.8714 0.69085 0.48434 0.0
O135 O 0.8864 0.68586 0.41828 0.0
C136 C 0.83507 0.75446 0.42015 0.0
C137 C 0.81358 0.76318 0.37031 0.0
C138 C 0.82102 0.74146 0.33738 0.0
C139 C 0.83164 0.73707 0.36211 0.0
C140 C 0.82782 0.77729 0.45119 0.0
C141 C 0.81722 0.78168 0.42655 0.0
C142 C 0.84542 0.74578 0.45462 0.0
C143 C 0.88198 0.80797 0.45208 0.0
C144 C 0.87961 0.74042 0.30943 0.0
C145 C 0.92592 0.73236 0.4653 0.0
C146 C 0.94818 0.74074 0.50044 0.0
C147 C 0.94073 0.76804 0.50741 0.0
C148 C 0.92971 0.76393 0.48982 0.0
C149 C 0.93323 0.70488 0.46052 0.0
C150 C 0.94421 0.70898 0.4777 0.0
C151 C 0.91486 0.72793 0.43704 0.0
H152 H 0.81849 0.72662 0.29426 0.0
H153 H 0.837 0.71907 0.33724 0.0
H154 H 0.83021 0.79083 0.49626 0.0
H155 H 0.81179 0.79908 0.45249 0.0
H156 H 0.94343 0.79274 0.52562 0.0
H157 H 0.92424 0.7856 0.49381 0.0
H158 H 0.93054 0.68042 0.44091 0.0
H159 H 0.94966 0.6875 0.47038 0.0
Dy160 Dy 0.6475 0.73993 0.08319 0.0
Dy161 Dy 0.62017 0.73494 0.08733 0.0
C162 C 0.63488 0.66933 0.07446 0.0
O163 O 0.64218 0.74838 0.97748 0.0
O164 O 0.62424 0.73001 0.97843 0.0
O165 O 0.66309 0.71577 0.0998 0.0
O166 O 0.66239 0.76695 0.05755 0.0
O167 O 0.62452 0.78806 0.05569 0.0
O168 O 0.64106 0.79188 0.10903 0.0
O169 O 0.6254 0.74478 0.19267 0.0
O170 O 0.64357 0.72966 0.19067 0.0
O171 O 0.60467 0.75495 0.12111 0.0
O172 O 0.60533 0.70666 0.06724 0.0
C173 C 0.63313 0.73955 0.94636 0.0
O174 O 0.64239 0.68836 0.04622 0.0
O175 O 0.62713 0.6834 0.11031 0.0
C176 C 0.67894 0.751 0.11364 0.0
C177 C 0.70032 0.76051 0.16474 0.0
C178 C 0.69297 0.7381 0.19659 0.0
C179 C 0.68241 0.73332 0.17122 0.0
C180 C 0.6861 0.77449 0.08371 0.0
C181 C 0.69665 0.77926 0.10898 0.0
C182 C 0.66865 0.74213 0.0786 0.0
C183 C 0.63261 0.80641 0.07995 0.0
C184 C 0.63455 0.73696 0.22333 0.0
C185 C 0.58807 0.73591 0.06831 0.0
C186 C 0.56549 0.74227 0.03944 0.0
C187 C 0.5713 0.76961 0.06843 0.0
C188 C 0.58244 0.76641 0.08299 0.0
C189 C 0.58237 0.70925 0.03634 0.0
C190 C 0.57125 0.71243 0.02191 0.0
C191 C 0.59911 0.7294 0.09618 0.0
H192 H 0.69553 0.72306 0.23933 0.0
H193 H 0.67712 0.71483 0.19526 0.0
H194 H 0.68369 0.78828 0.03903 0.0
H195 H 0.702 0.79718 0.08389 0.0
H196 H 0.56712 0.79286 0.08311 0.0
H197 H 0.58652 0.78727 0.10859 0.0
H198 H 0.5864 0.68525 0.0251 0.0
H199 H 0.56707 0.69107 0.99859 0.0
Dy200 Dy 0.3656 0.7378 0.07652 0.0
Dy201 Dy 0.39295 0.7347 0.08098 0.0
C202 C 0.38011 0.8053 0.07121 0.0
O203 O 0.37074 0.74636 0.97051 0.0
O204 O 0.38894 0.73034 0.97175 0.0
O205 O 0.35031 0.76389 0.05717 0.0
O206 O 0.35037 0.71061 0.08807 0.0
O207 O 0.38626 0.68291 0.10452 0.0
O208 O 0.37119 0.68704 0.03868 0.0
O209 O 0.38755 0.74612 0.18537 0.0
O210 O 0.36976 0.72735 0.18376 0.0
O211 O 0.40789 0.70688 0.06207 0.0
O212 O 0.40836 0.75555 0.11473 0.0
C213 C 0.37992 0.73877 0.93959 0.0
O214 O 0.37166 0.79056 0.09984 0.0
O215 O 0.38835 0.78728 0.04803 0.0
C216 C 0.33396 0.74177 0.10837 0.0
C217 C 0.31252 0.74998 0.159 0.0
C218 C 0.31971 0.77806 0.15564 0.0
C219 C 0.33031 0.77405 0.13021 0.0
C220 C 0.32691 0.7136 0.11412 0.0
C221 C 0.31634 0.7176 0.13918 0.0
C222 C 0.34443 0.73711 0.07233 0.0
C223 C 0.37867 0.66839 0.06804 0.0
C224 C 0.37859 0.73672 0.2164 0.0
C225 C 0.42507 0.73669 0.06301 0.0
C226 C 0.44766 0.74304 0.0349 0.0
C227 C 0.44186 0.71352 0.01584 0.0
C228 C 0.43072 0.71035 0.02988 0.0
C229 C 0.43074 0.76692 0.07919 0.0
C230 C 0.44189 0.77012 0.065 0.0
C231 C 0.41402 0.73004 0.09063 0.0
H232 H 0.317 0.80339 0.17019 0.0
H233 H 0.33552 0.79635 0.12589 0.0
H234 H 0.32945 0.68848 0.09719 0.0
H235 H 0.3111 0.69532 0.14212 0.0
H236 H 0.446 0.69237 0.99167 0.0
H237 H 0.42666 0.68654 0.01746 0.0
H238 H 0.4267 0.7875 0.10573 0.0
H239 H 0.44611 0.7931 0.08089 0.0
Dy240 Dy 0.64761 0.23953 0.93771 0.0
Dy241 Dy 0.62031 0.235 0.93361 0.0
C242 C 0.6328 0.30648 0.94135 0.0
O243 O 0.64244 0.24948 0.04318 0.0
O244 O 0.62448 0.23114 0.04266 0.0
O245 O 0.66283 0.26651 0.95507 0.0
O246 O 0.66291 0.21268 0.92829 0.0
O247 O 0.62718 0.18338 0.91052 0.0
O248 O 0.64225 0.18853 0.97604 0.0
O249 O 0.62553 0.24535 0.82851 0.0
O250 O 0.64358 0.22903 0.83034 0.0
O251 O 0.60546 0.20706 0.95591 0.0
O252 O 0.60482 0.25422 0.89835 0.0
C253 C 0.63338 0.24101 0.07451 0.0
O254 O 0.64134 0.29192 0.91329 0.0
O255 O 0.62462 0.28824 0.96463 0.0
C256 C 0.67915 0.24398 0.90391 0.0
C257 C 0.70053 0.25094 0.85158 0.0
C258 C 0.69387 0.27991 0.8612 0.0
C259 C 0.68331 0.27649 0.88749 0.0
C260 C 0.68566 0.21504 0.89172 0.0
C261 C 0.69618 0.21845 0.86579 0.0
C262 C 0.66879 0.23968 0.94149 0.0
C263 C 0.63487 0.16936 0.94694 0.0
C264 C 0.63462 0.23709 0.7977 0.0
C265 C 0.58827 0.2365 0.95263 0.0
C266 C 0.56585 0.24677 0.98135 0.0
C267 C 0.57054 0.21399 0.98603 0.0
C268 C 0.5816 0.20895 0.97172 0.0
C269 C 0.58373 0.26955 0.95074 0.0
C270 C 0.57265 0.27463 0.9651 0.0
C271 C 0.59926 0.22923 0.92515 0.0
H272 H 0.69699 0.30532 0.85114 0.0
H273 H 0.67856 0.29936 0.89697 0.0
H274 H 0.68275 0.18967 0.90448 0.0
H275 H 0.70101 0.19557 0.85802 0.0
H276 H 0.56557 0.19184 0.99744 0.0
H277 H 0.58482 0.18312 0.97251 0.0
H278 H 0.58862 0.29134 0.9358 0.0
H279 H 0.56936 0.3003 0.96198 0.0
Dy280 Dy 0.36635 0.23837 0.9359 0.0
Dy281 Dy 0.39367 0.23441 0.9326 0.0
C282 C 0.37914 0.16852 0.94584 0.0
O283 O 0.37138 0.24691 0.04215 0.0
O284 O 0.38956 0.23071 0.04169 0.0
O285 O 0.35101 0.21219 0.92311 0.0
O286 O 0.35117 0.26534 0.95466 0.0
O287 O 0.38923 0.28732 0.96455 0.0
O288 O 0.37264 0.29068 0.91158 0.0
O289 O 0.38839 0.24541 0.82778 0.0
O290 O 0.37055 0.2271 0.82916 0.0
O291 O 0.4091 0.25406 0.89743 0.0
O292 O 0.40858 0.20672 0.95446 0.0
C293 C 0.38053 0.23929 0.07344 0.0
O294 O 0.37168 0.1875 0.97442 0.0
O295 O 0.38685 0.18265 0.90977 0.0
C296 C 0.33496 0.24487 0.89926 0.0
C297 C 0.3136 0.25187 0.84621 0.0
C298 C 0.31938 0.22098 0.8392 0.0
C299 C 0.32991 0.21751 0.86547 0.0
C300 C 0.32936 0.27622 0.9039 0.0
C301 C 0.31882 0.27974 0.87733 0.0
C302 C 0.34516 0.23907 0.93789 0.0
C303 C 0.38106 0.3054 0.94067 0.0
C304 C 0.37942 0.23611 0.79664 0.0
C305 C 0.42571 0.23655 0.95149 0.0
C306 C 0.44814 0.247 0.98029 0.0
C307 C 0.44135 0.27473 0.9631 0.0
C308 C 0.43027 0.26957 0.94869 0.0
C309 C 0.43237 0.20914 0.97151 0.0
C310 C 0.44342 0.21427 0.98588 0.0
C311 C 0.41472 0.22912 0.92395 0.0
H312 H 0.31566 0.19915 0.81471 0.0
H313 H 0.3339 0.19286 0.86152 0.0
H314 H 0.33292 0.29764 0.93054 0.0
H315 H 0.31457 0.30379 0.88411 0.0
H316 H 0.44465 0.30037 0.95927 0.0
H317 H 0.42539 0.29126 0.933 0.0
H318 H 0.42915 0.18332 0.97299 0.0
H319 H 0.44839 0.1922 0.99805 0.0
H320 H 0.21421 0.30288 0.63257 0.0
H321 H 0.23335 0.30721 0.66617 0.0
H322 H 0.23051 0.21226 0.77492 0.0
H323 H 0.21127 0.20859 0.74421 0.0
H324 H 0.24234 0.25534 0.84442 0.0
H325 H 0.2422 0.21711 0.61568 0.0
H326 H 0.23763 0.21972 0.4955 0.0
H327 H 0.25435 0.31594 0.47866 0.0
H328 H 0.2589 0.31411 0.59903 0.0
H329 H 0.29752 0.2044 0.86528 0.0
H330 H 0.27827 0.20838 0.83461 0.0
H331 H 0.28381 0.30858 0.75082 0.0
H332 H 0.30321 0.30457 0.78065 0.0
H333 H 0.27078 0.26738 0.66933 0.0
H334 H 0.27189 0.30244 0.89934 0.0
H335 H 0.27671 0.29727 0.01879 0.0
H336 H 0.25832 0.20395 0.03223 0.0
H337 H 0.25352 0.2083 0.91254 0.0
C338 C 0.21759 0.28322 0.66466 0.0
C339 C 0.21117 0.25524 0.68523 0.0
C340 C 0.2286 0.28551 0.68316 0.0
C341 C 0.23347 0.25972 0.72208 0.0
C342 C 0.22699 0.23239 0.74452 0.0
C343 C 0.21599 0.23017 0.72637 0.0
C344 C 0.24534 0.26075 0.73869 0.0
C345 C 0.24855 0.25765 0.80597 0.0
C346 C 0.25349 0.26451 0.68886 0.0
C347 C 0.25078 0.26566 0.61651 0.0
C348 C 0.24482 0.23895 0.58646 0.0
C349 C 0.24225 0.24027 0.5183 0.0
C350 C 0.24567 0.26803 0.47952 0.0
C351 C 0.25169 0.29449 0.5088 0.0
C352 C 0.25427 0.29331 0.57697 0.0
C353 C 0.2947 0.22715 0.8396 0.0
C354 C 0.30193 0.25415 0.82528 0.0
C355 C 0.28365 0.22951 0.82265 0.0
C356 C 0.27956 0.25893 0.79105 0.0
C357 C 0.28678 0.28569 0.77542 0.0
C358 C 0.29785 0.28345 0.79282 0.0
C359 C 0.26773 0.26158 0.77482 0.0
C360 C 0.26455 0.26535 0.7077 0.0
C361 C 0.2596 0.25813 0.82469 0.0
C362 C 0.26242 0.25556 0.89681 0.0
C363 C 0.26894 0.28068 0.92763 0.0
C364 C 0.27166 0.27792 0.99541 0.0
C365 C 0.26785 0.25026 0.03304 0.0
C366 C 0.26128 0.22535 1.003 0.0
C367 C 0.25854 0.22797 0.93521 0.0
H368 H 0.26996 0.24816 0.08551 0.0
H369 H 0.24367 0.269 0.42674 0.0
H370 H 0.70912 0.29246 0.7535 0.0
H371 H 0.7283 0.29742 0.7194 0.0
H372 H 0.73731 0.22225 0.86751 0.0
H373 H 0.71828 0.21761 0.90242 0.0
H374 H 0.75126 0.27619 0.86824 0.0
H375 H 0.73538 0.20062 0.70387 0.0
H376 H 0.72222 0.1839 0.61623 0.0
H377 H 0.7324 0.26891 0.49518 0.0
H378 H 0.74552 0.28641 0.58259 0.0
H379 H 0.80369 0.22411 0.76077 0.0
H380 H 0.78454 0.22784 0.79333 0.0
H381 H 0.77848 0.29806 0.63094 0.0
H382 H 0.79756 0.29336 0.59632 0.0
H383 H 0.76287 0.25147 0.63528 0.0
H384 H 0.77955 0.32535 0.79605 0.0
H385 H 0.79272 0.34232 0.88334 0.0
H386 H 0.78109 0.26179 0.01095 0.0
H387 H 0.76794 0.24402 0.92404 0.0
C388 C 0.71521 0.27714 0.77899 0.0
C389 C 0.71214 0.25442 0.83031 0.0
C390 C 0.72615 0.27984 0.75918 0.0
C391 C 0.73425 0.25998 0.79051 0.0
C392 C 0.73122 0.23777 0.84246 0.0
C393 C 0.72031 0.23492 0.86195 0.0
C394 C 0.74589 0.26204 0.76936 0.0
C395 C 0.75381 0.27049 0.81743 0.0
C396 C 0.74921 0.25554 0.70266 0.0
C397 C 0.74133 0.24505 0.6501 0.0
C398 C 0.73474 0.21592 0.65882 0.0
C399 C 0.72731 0.20627 0.60914 0.0
C400 C 0.72645 0.22539 0.55027 0.0
C401 C 0.73305 0.25416 0.54088 0.0
C402 C 0.74049 0.26395 0.59045 0.0
C403 C 0.7983 0.24031 0.73179 0.0
C404 C 0.80222 0.25843 0.67584 0.0
C405 C 0.78735 0.2427 0.75093 0.0
C406 C 0.78005 0.26355 0.71511 0.0
C407 C 0.78394 0.2819 0.65958 0.0
C408 C 0.7949 0.27945 0.64026 0.0
C409 C 0.7683 0.26526 0.73437 0.0
C410 C 0.76034 0.25749 0.68598 0.0
C411 C 0.76494 0.27251 0.80077 0.0
C412 C 0.77282 0.28318 0.85327 0.0
C413 C 0.77985 0.3111 0.84253 0.0
C414 C 0.78731 0.32089 0.89197 0.0
C415 C 0.78776 0.3031 0.95259 0.0
C416 C 0.78074 0.27553 0.96395 0.0
C417 C 0.77327 0.26561 0.91464 0.0
H418 H 0.79354 0.31072 0.99081 0.0
H419 H 0.72069 0.21787 0.51185 0.0
H420 H 0.30444 0.78811 0.26377 0.0
H421 H 0.28535 0.79405 0.29872 0.0
H422 H 0.27535 0.7275 0.13754 0.0
H423 H 0.29431 0.72203 0.10168 0.0
H424 H 0.26185 0.78165 0.14747 0.0
H425 H 0.27703 0.69789 0.29659 0.0
H426 H 0.29008 0.67514 0.37939 0.0
H427 H 0.28149 0.75539 0.5166 0.0
H428 H 0.26849 0.77892 0.43416 0.0
H429 H 0.20919 0.73023 0.26364 0.0
H430 H 0.2281 0.73298 0.22528 0.0
H431 H 0.23585 0.8028 0.38567 0.0
H432 H 0.2169 0.80105 0.42332 0.0
H433 H 0.25054 0.74996 0.37768 0.0
H434 H 0.23458 0.83191 0.22919 0.0
H435 H 0.22137 0.85347 0.14618 0.0
H436 H 0.23126 0.77541 1.00746 0.0
H437 H 0.24443 0.75305 0.09006 0.0
C438 C 0.29816 0.77496 0.23551 0.0
C439 C 0.30093 0.75435 0.18028 0.0
C440 C 0.28725 0.77818 0.2558 0.0
C441 C 0.2789 0.76093 0.22118 0.0
C442 C 0.28163 0.74098 0.1652 0.0
C443 C 0.29251 0.73762 0.14514 0.0
C444 C 0.26731 0.76322 0.24346 0.0
C445 C 0.25937 0.7744 0.19762 0.0
C446 C 0.26407 0.75444 0.3093 0.0
C447 C 0.27189 0.7404 0.3589 0.0
C448 C 0.278 0.71087 0.34418 0.0
C449 C 0.28537 0.6978 0.39109 0.0
C450 C 0.28664 0.71387 0.45313 0.0
C451 C 0.28052 0.74301 0.46846 0.0
C452 C 0.27314 0.75622 0.42168 0.0
C453 C 0.21483 0.74677 0.29004 0.0
C454 C 0.21146 0.76531 0.34688 0.0
C455 C 0.22568 0.74817 0.26818 0.0
C456 C 0.23342 0.7681 0.30259 0.0
C457 C 0.23005 0.78706 0.35857 0.0
C458 C 0.2192 0.7859 0.38017 0.0
C459 C 0.24508 0.76823 0.28161 0.0
C460 C 0.25303 0.75744 0.32767 0.0
C461 C 0.24833 0.77723 0.21592 0.0
C462 C 0.24042 0.7906 0.16609 0.0
C463 C 0.23388 0.81915 0.18121 0.0
C464 C 0.22641 0.83155 0.13418 0.0
C465 C 0.22546 0.81576 0.07165 0.0
C466 C 0.23199 0.78758 0.05596 0.0
C467 C 0.23947 0.77505 0.10284 0.0
H468 H 0.21967 0.82541 0.0353 0.0
H469 H 0.29235 0.7037 0.4894 0.0
H470 H 0.70845 0.76184 0.29337 0.0
H471 H 0.7276 0.76352 0.32842 0.0
H472 H 0.73765 0.76638 0.1216 0.0
H473 H 0.71859 0.76372 0.08623 0.0
H474 H 0.74968 0.7214 0.19074 0.0
H475 H 0.73839 0.8383 0.22021 0.0
H476 H 0.72681 0.88494 0.26346 0.0
H477 H 0.73458 0.85582 0.46525 0.0
H478 H 0.74609 0.80868 0.42319 0.0
H479 H 0.80535 0.76525 0.24208 0.0
H480 H 0.78618 0.76611 0.20758 0.0
H481 H 0.77625 0.76588 0.41471 0.0
H482 H 0.79535 0.765 0.4495 0.0
H483 H 0.76411 0.80975 0.34587 0.0
H484 H 0.77516 0.69292 0.31814 0.0
H485 H 0.78662 0.6456 0.27659 0.0
H486 H 0.77914 0.67354 0.07375 0.0
H487 H 0.76775 0.72136 0.11412 0.0
C488 C 0.71473 0.76273 0.25533 0.0
C489 C 0.71194 0.76285 0.18693 0.0
C490 C 0.72569 0.76397 0.27546 0.0
C491 C 0.73409 0.76543 0.22768 0.0
C492 C 0.73133 0.7654 0.15945 0.0
C493 C 0.7204 0.76422 0.13932 0.0
C494 C 0.74578 0.76634 0.24846 0.0
C495 C 0.75286 0.74102 0.22394 0.0
C496 C 0.74991 0.79137 0.29315 0.0
C497 C 0.74301 0.81975 0.31854 0.0
C498 C 0.73756 0.84167 0.27381 0.0
C499 C 0.73102 0.86822 0.29811 0.0
C500 C 0.72993 0.87328 0.36706 0.0
C501 C 0.73541 0.85184 0.41186 0.0
C502 C 0.74195 0.82522 0.38781 0.0
C503 C 0.79909 0.76526 0.2803 0.0
C504 C 0.80193 0.76506 0.34861 0.0
C505 C 0.78812 0.76575 0.2605 0.0
C506 C 0.77973 0.76567 0.30851 0.0
C507 C 0.78255 0.76605 0.37666 0.0
C508 C 0.7935 0.76567 0.39649 0.0
C509 C 0.76803 0.76488 0.28793 0.0
C510 C 0.76094 0.79017 0.31258 0.0
C511 C 0.76387 0.73971 0.24358 0.0
C512 C 0.7707 0.71094 0.21915 0.0
C513 C 0.77603 0.68914 0.26467 0.0
C514 C 0.7825 0.6622 0.24133 0.0
C515 C 0.78363 0.65663 0.17257 0.0
C516 C 0.77827 0.67793 0.127 0.0
C517 C 0.7718 0.70494 0.15008 0.0
H518 H 0.78864 0.63575 0.1546 0.0
H519 H 0.72487 0.89386 0.38578 0.0
H520 H 0.11781 0.84582 0.51997 0.0
H521 H 0.11797 0.9076 0.53698 0.0
H522 H 0.14719 0.9158 0.4178 0.0
H523 H 0.14724 0.85373 0.4016 0.0
H524 H 0.149 0.95244 0.52963 0.0
H525 H 0.12216 0.94079 0.35642 0.0
H526 H 0.1056 0.9177 0.30268 0.0
H527 H 0.08605 0.95589 0.46461 0.0
H528 H 0.10252 0.97881 0.51981 0.0
H529 H 0.14805 0.1326 0.4901 0.0
H530 H 0.14767 0.07097 0.47068 0.0
H531 H 0.11918 0.06201 0.59611 0.0
H532 H 0.1194 0.12392 0.61522 0.0
H533 H 0.11698 0.02597 0.48055 0.0
H534 H 0.14394 0.03739 0.65367 0.0
H535 H 0.16054 0.06069 0.70659 0.0
H536 H 0.17991 0.02306 0.54335 0.0
H537 H 0.1634 -6e-05 0.48895 0.0
C538 C 0.12425 0.86072 0.49691 0.0
C539 C 0.13251 0.84479 0.45928 0.0
C540 C 0.12429 0.89611 0.50653 0.0
C541 C 0.13252 0.91639 0.47803 0.0
C542 C 0.14075 0.90063 0.44018 0.0
C543 C 0.14075 0.86516 0.4308 0.0
C544 C 0.13269 0.95391 0.4895 0.0
C545 C 0.14206 0.9686 0.51793 0.0
C546 C 0.12352 0.97485 0.47583 0.0
C547 C 0.11359 0.96124 0.44255 0.0
C548 C 0.11434 0.94404 0.38082 0.0
C549 C 0.10497 0.93102 0.35005 0.0
C550 C 0.09478 0.93525 0.38029 0.0
C551 C 0.09394 0.9526 0.44128 0.0
C552 C 0.1033 0.96564 0.4723 0.0
C553 C 0.14171 0.11757 0.51387 0.0
C554 C 0.13377 0.13318 0.55446 0.0
C555 C 0.14154 0.0823 0.50282 0.0
C556 C 0.13347 0.06187 0.53251 0.0
C557 C 0.12549 0.07734 0.57283 0.0
C558 C 0.12565 0.11269 0.58391 0.0
C559 C 0.13329 0.02442 0.5206 0.0
C560 C 0.12392 0.00977 0.49214 0.0
C561 C 0.14246 0.00353 0.5341 0.0
C562 C 0.15241 0.01721 0.56694 0.0
C563 C 0.15173 0.03431 0.62881 0.0
C564 C 0.16112 0.04745 0.65911 0.0
C565 C 0.17127 0.04344 0.62827 0.0
C566 C 0.17205 0.02618 0.56714 0.0
C567 C 0.16267 0.01302 0.53658 0.0
H568 H 0.17854 0.05363 0.65181 0.0
H569 H 0.08753 0.92514 0.35639 0.0
H570 H 0.89548 0.34944 0.50125 0.0
H571 H 0.89475 0.41129 0.48579 0.0
H572 H 0.86338 0.41446 0.58332 0.0
H573 H 0.86395 0.35234 0.59835 0.0
H574 H 0.86352 0.4523 0.4698 0.0
H575 H 0.88582 0.44161 0.66514 0.0
H576 H 0.90103 0.4197 0.73363 0.0
H577 H 0.92408 0.46137 0.59388 0.0
H578 H 0.90899 0.48313 0.524 0.0
H579 H 0.86281 0.63359 0.51464 0.0
H580 H 0.86271 0.57172 0.53261 0.0
H581 H 0.89351 0.56313 0.42963 0.0
H582 H 0.89371 0.62502 0.41159 0.0
H583 H 0.89327 0.52837 0.54933 0.0
H584 H 0.87075 0.53808 0.35309 0.0
H585 H 0.85542 0.56012 0.2857 0.0
H586 H 0.83263 0.52058 0.42934 0.0
H587 H 0.84784 0.49871 0.49813 0.0
C588 C 0.88843 0.36322 0.51974 0.0
C589 C 0.87979 0.34592 0.55127 0.0
C590 C 0.88805 0.39863 0.51103 0.0
C591 C 0.87907 0.41748 0.53405 0.0
C592 C 0.8704 0.40035 0.56532 0.0
C593 C 0.87076 0.36487 0.57408 0.0
C594 C 0.87867 0.45503 0.52428 0.0
C595 C 0.86993 0.46903 0.48809 0.0
C596 C 0.88716 0.47668 0.54701 0.0
C597 C 0.89627 0.46372 0.58901 0.0
C598 C 0.89413 0.44587 0.64872 0.0
C599 C 0.90273 0.43352 0.68785 0.0
C600 C 0.91352 0.43907 0.66803 0.0
C601 C 0.91572 0.45706 0.60912 0.0
C602 C 0.90715 0.46944 0.56977 0.0
C603 C 0.86954 0.61855 0.49547 0.0
C604 C 0.87827 0.63422 0.46163 0.0
C605 C 0.86945 0.58319 0.50563 0.0
C606 C 0.87807 0.5629 0.48213 0.0
C607 C 0.88677 0.57841 0.44813 0.0
C608 C 0.88685 0.61374 0.43764 0.0
C609 C 0.87816 0.52556 0.49445 0.0
C610 C 0.88684 0.51163 0.53122 0.0
C611 C 0.8696 0.50402 0.47247 0.0
C612 C 0.86044 0.51708 0.43112 0.0
C613 C 0.86247 0.53435 0.37061 0.0
C614 C 0.85381 0.54676 0.3321 0.0
C615 C 0.84306 0.54184 0.35332 0.0
C616 C 0.84096 0.52442 0.41302 0.0
C617 C 0.8496 0.51198 0.45176 0.0
H618 H 0.83636 0.55147 0.32342 0.0
H619 H 0.92017 0.42949 0.6984 0.0
H620 H 0.86654 0.85493 0.41559 0.0
H621 H 0.86703 0.91676 0.43277 0.0
H622 H 0.89898 0.90822 0.52199 0.0
H623 H 0.89851 0.84621 0.50598 0.0
H624 H 0.88573 0.9488 0.5954 0.0
H625 H 0.89597 0.93887 0.36416 0.0
H626 H 0.89389 0.91875 0.24776 0.0
H627 H 0.86331 0.97171 0.23198 0.0
H628 H 0.86512 0.99173 0.34868 0.0
H629 H 0.89661 0.12782 0.59578 0.0
H630 H 0.89755 0.06607 0.5766 0.0
H631 H 0.86603 0.06886 0.48043 0.0
H632 H 0.86511 0.13058 0.49817 0.0
H633 H 0.87994 0.03115 0.40967 0.0
H634 H 0.86911 0.03905 0.6405 0.0
H635 H 0.87068 0.05855 0.75762 0.0
H636 H 0.90183 0.00907 0.77471 0.0
H637 H 0.90052 0.98969 0.65732 0.0
C638 C 0.87371 0.86616 0.43847 0.0
C639 C 0.8825 0.84561 0.45927 0.0
C640 C 0.87398 0.90154 0.44812 0.0
C641 C 0.88309 0.91708 0.4781 0.0
C642 C 0.89188 0.8967 0.49873 0.0
C643 C 0.89161 0.86128 0.48928 0.0
C644 C 0.88331 0.95457 0.48911 0.0
C645 C 0.88464 0.96686 0.55468 0.0
C646 C 0.88164 0.978 0.43609 0.0
C647 C 0.88064 0.96658 0.3654 0.0
C648 C 0.88877 0.94607 0.33601 0.0
C649 C 0.88764 0.93469 0.26996 0.0
C650 C 0.87846 0.94387 0.23256 0.0
C651 C 0.87041 0.96458 0.26104 0.0
C652 C 0.87149 0.97599 0.32711 0.0
C653 C 0.88986 0.11527 0.57085 0.0
C654 C 0.88077 0.1341 0.54865 0.0
C655 C 0.8904 0.07997 0.56001 0.0
C656 C 0.88182 0.06284 0.52755 0.0
C657 C 0.87275 0.08158 0.50545 0.0
C658 C 0.87222 0.11685 0.5159 0.0
C659 C 0.88228 0.0254 0.51605 0.0
C660 C 0.88109 0.01311 0.45036 0.0
C661 C 0.88403 0.00196 0.569 0.0
C662 C 0.88477 0.01322 0.63988 0.0
C663 C 0.87633 0.03253 0.66908 0.0
C664 C 0.87717 0.04353 0.73553 0.0
C665 C 0.88636 0.03514 0.77352 0.0
C666 C 0.89472 0.0156 0.74519 0.0
C667 C 0.89393 0.00458 0.67871 0.0
H668 H 0.887 0.04372 0.82493 0.0
H669 H 0.87759 0.93497 0.18148 0.0
H670 H 0.15066 0.63012 0.50328 0.0
H671 H 0.15031 0.56838 0.52282 0.0
H672 H 0.11746 0.5635 0.44594 0.0
H673 H 0.11772 0.62531 0.42603 0.0
H674 H 0.12012 0.52881 0.5669 0.0
H675 H 0.13735 0.53499 0.35165 0.0
H676 H 0.1509 0.55497 0.26932 0.0
H677 H 0.17679 0.51393 0.39001 0.0
H678 H 0.16339 0.49414 0.47362 0.0
H679 H 0.1159 0.3484 0.52755 0.0
H680 H 0.11628 0.41028 0.51042 0.0
H681 H 0.14962 0.4136 0.57941 0.0
H682 H 0.14935 0.35163 0.59643 0.0
H683 H 0.1468 0.4493 0.46334 0.0
H684 H 0.12979 0.44276 0.67818 0.0
H685 H 0.1164 0.42309 0.76179 0.0
H686 H 0.09032 0.46501 0.64393 0.0
H687 H 0.10354 0.48452 0.55905 0.0
C688 C 0.14337 0.61593 0.49019 0.0
C689 C 0.13422 0.63262 0.46298 0.0
C690 C 0.1432 0.58064 0.50125 0.0
C691 C 0.13387 0.56142 0.48554 0.0
C692 C 0.12473 0.57794 0.45837 0.0
C693 C 0.12492 0.61321 0.44672 0.0
C694 C 0.13362 0.52412 0.49857 0.0
C695 C 0.12584 0.51131 0.54357 0.0
C696 C 0.14129 0.50156 0.46946 0.0
C697 C 0.14937 0.5134 0.41925 0.0
C698 C 0.14594 0.5305 0.36095 0.0
C699 C 0.15359 0.54173 0.31398 0.0
C700 C 0.1647 0.5358 0.32451 0.0
C701 C 0.16818 0.51855 0.38197 0.0
C702 C 0.16056 0.50729 0.42914 0.0
C703 C 0.1233 0.36227 0.5395 0.0
C704 C 0.13259 0.34504 0.5634 0.0
C705 C 0.12349 0.39767 0.52988 0.0
C706 C 0.13296 0.41653 0.54401 0.0
C707 C 0.14223 0.39948 0.56822 0.0
C708 C 0.14204 0.36408 0.57819 0.0
C709 C 0.13328 0.45391 0.53162 0.0
C710 C 0.14107 0.46677 0.48674 0.0
C711 C 0.12564 0.47652 0.56102 0.0
C712 C 0.11765 0.46479 0.61189 0.0
C713 C 0.12119 0.44751 0.66976 0.0
C714 C 0.11363 0.43645 0.71746 0.0
C715 C 0.10251 0.44271 0.70809 0.0
C716 C 0.09893 0.46013 0.65107 0.0
C717 C 0.10646 0.47123 0.60317 0.0
H718 H 0.09668 0.43414 0.74509 0.0
H719 H 0.17062 0.54451 0.28808 0.0
H720 H 0.64882 0.63211 0.99595 0.0
H721 H 0.64824 0.57079 0.97228 0.0
H722 H 0.6202 0.56014 0.10095 0.0
H723 H 0.62078 0.62149 0.12549 0.0
H724 H 0.63445 0.50898 0.12153 0.0
H725 H 0.61724 0.5607 0.93281 0.0
H726 H 0.61522 0.6 0.83706 0.0
H727 H 0.6433 0.55525 0.7431 0.0
H728 H 0.6456 0.516 0.83888 0.0
H729 H 0.61782 0.34479 0.00994 0.0
H730 H 0.61812 0.4064 0.03051 0.0
H731 H 0.6476 0.41555 0.91428 0.0
H732 H 0.64739 0.35379 0.89322 0.0
H733 H 0.63248 0.46727 0.887 0.0
H734 H 0.64933 0.41513 0.07949 0.0
H735 H 0.65027 0.3747 0.1741 0.0
H736 H 0.62164 0.42009 0.26038 0.0
H737 H 0.62043 0.46046 0.16567 0.0
C738 C 0.64255 0.61676 0.01955 0.0
C739 C 0.63483 0.63181 0.06254 0.0
C740 C 0.6422 0.58168 1.00563 0.0
C741 C 0.63409 0.56089 0.03413 0.0
C742 C 0.62651 0.57568 0.07824 0.0
C743 C 0.62685 0.6108 0.09213 0.0
C744 C 0.63351 0.52377 0.01777 0.0
C745 C 0.63388 0.49991 0.07028 0.0
C746 C 0.63294 0.51184 0.95082 0.0
C747 C 0.63166 0.53562 0.89338 0.0
C748 C 0.62305 0.55944 0.89205 0.0
C749 C 0.62184 0.58165 0.83769 0.0
C750 C 0.62912 0.58009 0.78402 0.0
C751 C 0.63765 0.55637 0.78467 0.0
C752 C 0.63892 0.53414 0.839 0.0
C753 C 0.62435 0.35985 0.98826 0.0
C754 C 0.63262 0.34422 0.95015 0.0
C755 C 0.62451 0.3951 1.00033 0.0
C756 C 0.63295 0.41551 0.97459 0.0
C757 C 0.64103 0.40025 0.93477 0.0
C758 C 0.64091 0.36491 0.92294 0.0
C759 C 0.63346 0.45262 0.9907 0.0
C760 C 0.63307 0.47643 0.93818 0.0
C761 C 0.63392 0.46453 0.05764 0.0
C762 C 0.63473 0.44061 0.11515 0.0
C763 C 0.64319 0.41634 0.11839 0.0
C764 C 0.64378 0.39345 0.17206 0.0
C765 C 0.636 0.39476 0.22313 0.0
C766 C 0.62765 0.41906 0.22074 0.0
C767 C 0.62701 0.44198 0.1671 0.0
H768 H 0.63647 0.377 0.26462 0.0
H769 H 0.62816 0.59728 0.74193 0.0
H770 H 0.39515 0.84384 1.00384 0.0
H771 H 0.39493 0.90545 0.98468 0.0
H772 H 0.36524 0.91411 0.0993 0.0
H773 H 0.36526 0.85218 0.11756 0.0
H774 H 0.36373 0.95017 0.98724 0.0
H775 H 0.39014 0.94027 0.16309 0.0
H776 H 0.40658 0.91787 0.21922 0.0
H777 H 0.42653 0.9548 0.05804 0.0
H778 H 0.41019 0.97703 1.00047 0.0
H779 H 0.36457 0.13116 0.0192 0.0
H780 H 0.36482 0.06972 0.04109 0.0
H781 H 0.39378 0.05924 0.92024 0.0
H782 H 0.39369 0.12092 0.89873 0.0
H783 H 0.3956 0.02437 0.03673 0.0
H784 H 0.369 0.03392 0.86091 0.0
H785 H 0.35249 0.05654 0.80592 0.0
H786 H 0.33282 0.02048 0.96911 0.0
H787 H 0.34924 -0.00196 0.02555 0.0
C788 C 0.38859 0.85879 0.02545 0.0
C789 C 0.38023 0.843 0.06246 0.0
C790 C 0.38851 0.89412 0.0146 0.0
C791 C 0.38014 0.91453 0.04121 0.0
C792 C 0.37179 0.89888 0.07835 0.0
C793 C 0.37183 0.86347 0.08894 0.0
C794 C 0.37996 0.95204 0.02864 0.0
C795 C 0.37064 0.96647 0.99904 0.0
C796 C 0.38907 0.97323 0.04249 0.0
C797 C 0.39892 0.96004 0.07718 0.0
C798 C 0.39803 0.9434 0.13937 0.0
C799 C 0.40733 0.93077 0.17149 0.0
C800 C 0.41759 0.93483 0.14214 0.0
C801 C 0.41857 0.95163 0.08068 0.0
C802 C 0.40929 0.96429 0.04832 0.0
C803 C 0.37098 0.11583 0.99693 0.0
C804 C 0.3791 0.131 0.95696 0.0
C805 C 0.37108 0.08065 0.00938 0.0
C806 C 0.37925 0.05981 0.98177 0.0
C807 C 0.38739 0.07484 0.94199 0.0
C808 C 0.3873 0.11009 0.92951 0.0
C809 C 0.37939 0.02242 0.99531 0.0
C810 C 0.38869 0.00804 0.02505 0.0
C811 C 0.37026 0.00129 0.9818 0.0
C812 C 0.36036 0.01458 0.94774 0.0
C813 C 0.36116 0.03104 0.88531 0.0
C814 C 0.35182 0.04379 0.85384 0.0
C815 C 0.34161 0.04003 0.88408 0.0
C816 C 0.34073 0.02341 0.94578 0.0
C817 C 0.35005 0.01064 0.9775 0.0
H818 H 0.33439 0.04993 0.85964 0.0
H819 H 0.42478 0.92503 0.16708 0.0
H820 H 0.366 0.35194 0.89574 0.0
H821 H 0.36582 0.41379 0.91469 0.0
H822 H 0.39589 0.40594 0.02607 0.0
H823 H 0.39625 0.34432 1.00633 0.0
H824 H 0.36451 0.44913 0.02808 0.0
H825 H 0.41073 0.47866 0.00924 0.0
H826 H 0.42698 0.45755 0.94925 0.0
H827 H 0.40666 0.41994 0.79014 0.0
H828 H 0.39031 0.44121 0.8487 0.0
H829 H 0.39358 0.62171 0.11425 0.0
H830 H 0.39401 0.56003 0.09266 0.0
H831 H 0.36471 0.56866 0.97405 0.0
H832 H 0.36415 0.63011 0.99589 0.0
H833 H 0.39573 0.5253 0.97522 0.0
H834 H 0.34957 0.4961 0.99233 0.0
H835 H 0.33325 0.51745 0.05123 0.0
H836 H 0.35334 0.55462 0.21183 0.0
H837 H 0.36976 0.53309 0.15438 0.0
C838 C 0.37263 0.36338 0.92376 0.0
C839 C 0.38116 0.34312 0.94929 0.0
C840 C 0.37249 0.39875 0.93476 0.0
C841 C 0.38089 0.4146 0.9713 0.0
C842 C 0.38942 0.39443 0.99671 0.0
C843 C 0.38959 0.35912 0.98552 0.0
C844 C 0.38056 0.45204 0.9846 0.0
C845 C 0.37127 0.46586 0.01557 0.0
C846 C 0.38949 0.47377 0.96985 0.0
C847 C 0.39929 0.46123 0.93376 0.0
C848 C 0.40974 0.46599 0.96134 0.0
C849 C 0.41897 0.45398 0.9276 0.0
C850 C 0.41785 0.43731 0.86604 0.0
C851 C 0.40751 0.43273 0.83796 0.0
C852 C 0.39826 0.44472 0.87146 0.0
C853 C 0.38719 0.61046 0.08395 0.0
C854 C 0.37881 0.63086 0.05706 0.0
C855 C 0.38747 0.57522 0.07142 0.0
C856 C 0.37934 0.55968 0.03223 0.0
C857 C 0.37098 0.57999 1.00526 0.0
C858 C 0.37069 0.61518 0.01769 0.0
C859 C 0.37968 0.52231 0.01861 0.0
C860 C 0.38897 0.50853 0.98763 0.0
C861 C 0.37074 0.50062 0.03317 0.0
C862 C 0.3609 0.51328 0.06865 0.0
C863 C 0.3505 0.50871 0.04033 0.0
C864 C 0.34123 0.52087 0.07345 0.0
C865 C 0.34226 0.53748 0.13512 0.0
C866 C 0.35256 0.54187 0.16394 0.0
C867 C 0.36185 0.52974 0.13106 0.0
H868 H 0.33507 0.5469 0.16065 0.0
H869 H 0.42501 0.42801 0.84002 0.0
H870 H 0.62031 0.12171 0.89998 0.0
H871 H 0.61996 0.0603 0.9236 0.0
H872 H 0.64894 0.07062 0.04462 0.0
H873 H 0.64944 0.13193 0.02065 0.0
H874 H 0.65006 0.0146 0.9656 0.0
H875 H 0.62399 0.06381 0.11708 0.0
H876 H 0.60797 0.09858 0.14789 0.0
H877 H 0.58745 0.03477 0.02602 0.0
H878 H 0.60338 -0.00011 0.99371 0.0
H879 H 0.64734 0.85349 0.12723 0.0
H880 H 0.64759 0.91516 0.10677 0.0
H881 H 0.618 0.90649 0.99089 0.0
H882 H 0.61755 0.84496 0.01224 0.0
H883 H 0.61724 0.9619 0.06806 0.0
H884 H 0.64322 0.91306 0.9155 0.0
H885 H 0.65921 0.87837 0.88365 0.0
H886 H 0.67983 0.94151 1.00616 0.0
H887 H 0.66394 0.97631 0.0395 0.0
C888 C 0.62664 0.11093 0.93136 0.0
C889 C 0.63488 0.13183 0.9586 0.0
C890 C 0.6264 0.07581 0.94508 0.0
C891 C 0.63434 0.06089 0.98661 0.0
C892 C 0.64271 0.08155 0.01257 0.0
C893 C 0.64296 0.11665 0.9989 0.0
C894 C 0.63388 0.02384 1.00354 0.0
C895 C 0.64293 0.00316 0.9888 0.0
C896 C 0.62451 0.00873 0.03256 0.0
C897 C 0.6149 0.02944 0.05248 0.0
C898 C 0.61607 0.05734 0.09648 0.0
C899 C 0.60701 0.07705 0.11426 0.0
C900 C 0.5967 0.06894 0.08879 0.0
C901 C 0.59544 0.04104 0.04564 0.0
C902 C 0.60448 0.02127 0.02763 0.0
C903 C 0.64084 0.86469 0.09772 0.0
C904 C 0.63246 0.84415 0.07109 0.0
C905 C 0.64103 0.89998 0.08578 0.0
C906 C 0.63291 0.91545 0.04632 0.0
C907 C 0.62437 0.89517 0.02131 0.0
C908 C 0.62414 0.85992 0.03351 0.0
C909 C 0.63341 0.95261 0.03005 0.0
C910 C 0.62436 0.97332 0.04491 0.0
C911 C 0.64278 0.96775 1.001 0.0
C912 C 0.65237 0.94708 0.98049 0.0
C913 C 0.65116 0.9194 0.936 0.0
C914 C 0.6602 0.89974 0.91763 0.0
C915 C 0.67052 0.90768 0.943 0.0
C916 C 0.67183 0.93537 0.98662 0.0
C917 C 0.66281 0.95508 1.00523 0.0
H918 H 0.67752 0.89241 0.92875 0.0
H919 H 0.58969 0.08424 0.10259 0.0
H920 H 0.11503 0.24223 0.3506 0.0
H921 H 0.11524 0.24228 0.22811 0.0
H922 H 0.15044 0.24016 0.23031 0.0
H923 H 0.15029 0.24138 0.35237 0.0
H924 H 0.14426 0.28193 0.1384 0.0
H925 H 0.13414 0.1672 0.19657 0.0
H926 H 0.12328 0.12229 0.25213 0.0
H927 H 0.09458 0.15602 0.14786 0.0
H928 H 0.10524 0.20145 0.09233 0.0
H929 H 0.15132 0.22988 0.79757 0.0
H930 H 0.15114 0.2304 0.92028 0.0
H931 H 0.11639 0.24749 0.91846 0.0
H932 H 0.11646 0.247 0.79627 0.0
H933 H 0.12243 0.19775 0.0091 0.0
H934 H 0.13323 0.31261 0.95052 0.0
H935 H 0.14462 0.35595 0.89429 0.0
H936 H 0.17289 0.31919 0.99915 0.0
H937 H 0.16168 0.27531 0.05533 0.0
C938 C 0.12281 0.24181 0.32499 0.0
C939 C 0.13263 0.24173 0.36143 0.0
C940 C 0.12293 0.24165 0.25484 0.0
C941 C 0.13286 0.24065 0.21962 0.0
C942 C 0.14266 0.24094 0.25605 0.0
C943 C 0.14256 0.24159 0.32604 0.0
C944 C 0.13309 0.23941 0.14495 0.0
C945 C 0.13959 0.26318 0.11033 0.0
C946 C 0.12688 0.21535 0.10779 0.0
C947 C 0.12047 0.18793 0.1408 0.0
C948 C 0.1255 0.16519 0.18584 0.0
C949 C 0.11938 0.13962 0.21728 0.0
C950 C 0.10825 0.13636 0.20366 0.0
C951 C 0.10321 0.15861 0.15842 0.0
C952 C 0.10928 0.18425 0.12691 0.0
C953 C 0.14363 0.23372 0.82323 0.0
C954 C 0.13391 0.23852 0.78687 0.0
C955 C 0.14355 0.23412 0.8934 0.0
C956 C 0.13376 0.23921 0.92856 0.0
C957 C 0.12404 0.24352 0.89243 0.0
C958 C 0.12412 0.24338 0.82244 0.0
C959 C 0.1336 0.24018 1.00301 0.0
C960 C 0.12711 0.21639 0.03744 0.0
C961 C 0.1399 0.26394 0.04 0.0
C962 C 0.14663 0.29046 1.00661 0.0
C963 C 0.14189 0.3136 0.96119 0.0
C964 C 0.14831 0.33829 0.9294 0.0
C965 C 0.15948 0.34026 0.943 0.0
C966 C 0.16424 0.3176 0.98859 0.0
C967 C 0.15785 0.29284 0.02046 0.0
H968 H 0.16444 0.35939 0.91833 0.0
H969 H 0.10353 0.11655 0.22806 0.0
H970 H 0.89813 0.24866 0.34197 0.0
H971 H 0.89794 0.24823 0.21914 0.0
H972 H 0.86327 0.22959 0.2207 0.0
H973 H 0.86334 0.23046 0.34316 0.0
H974 H 0.87536 0.18678 0.13004 0.0
H975 H 0.87096 0.30587 0.18809 0.0
H976 H 0.87601 0.3596 0.2451 0.0
H977 H 0.90685 0.35998 0.14325 0.0
H978 H 0.90204 0.30592 0.08639 0.0
H979 H 0.86295 0.22147 0.78904 0.0
H980 H 0.86325 0.22109 0.91153 0.0
H981 H 0.89646 0.25768 0.90961 0.0
H982 H 0.89617 0.25874 0.78753 0.0
H983 H 0.88529 0.29086 1.00147 0.0
H984 H 0.89034 0.17346 0.94287 0.0
H985 H 0.88617 0.11883 0.8864 0.0
H986 H 0.85546 0.11349 0.98913 0.0
H987 H 0.85938 0.16838 0.04551 0.0
C988 C 0.89047 0.24442 0.31619 0.0
C989 C 0.88074 0.23977 0.35245 0.0
C990 C 0.89037 0.24424 0.24603 0.0
C991 C 0.88058 0.23895 0.21084 0.0
C992 C 0.87091 0.23368 0.24686 0.0
C993 C 0.87097 0.2344 0.31689 0.0
C994 C 0.88037 0.23949 0.13644 0.0
C995 C 0.87741 0.20962 0.10182 0.0
C996 C 0.88331 0.26904 0.09975 0.0
C997 C 0.88619 0.30165 0.13356 0.0
C998 C 0.87886 0.31724 0.17831 0.0
C999 C 0.88167 0.34779 0.21051 0.0
C1000 C 0.89176 0.36315 0.19796 0.0
C1001 C 0.89904 0.34803 0.15301 0.0
C1002 C 0.89628 0.31744 0.12076 0.0
C1003 C 0.87032 0.22946 0.8146 0.0
C1004 C 0.87955 0.24004 0.77816 0.0
C1005 C 0.8705 0.22909 0.88475 0.0
C1006 C 0.87993 0.23898 0.91999 0.0
C1007 C 0.88909 0.24993 0.88372 0.0
C1008 C 0.88891 0.25042 0.81371 0.0
C1009 C 0.88026 0.23809 0.99459 0.0
C1010 C 0.88325 0.26793 0.02942 0.0
C1011 C 0.87747 0.20834 0.03142 0.0
C1012 C 0.8751 0.17523 0.99789 0.0
C1013 C 0.88266 0.16078 0.95303 0.0
C1014 C 0.88035 0.12974 0.9211 0.0
C1015 C 0.87055 0.11275 0.93402 0.0
C1016 C 0.86305 0.12671 0.97908 0.0
C1017 C 0.86531 0.15778 0.01108 0.0
H1018 H 0.86877 0.08873 0.90923 0.0
H1019 H 0.89392 0.3868 0.22293 0.0
H1020 H 0.15194 0.73815 0.22365 0.0
H1021 H 0.1517 0.73816 0.10087 0.0
H1022 H 0.11653 0.73709 0.10276 0.0
H1023 H 0.11667 0.73728 0.22504 0.0
H1024 H 0.12552 0.69013 0.01222 0.0
H1025 H 0.12897 0.80939 0.0705 0.0
H1026 H 0.13742 0.85897 0.1268 0.0
H1027 H 0.16748 0.84013 0.02289 0.0
H1028 H 0.15926 0.7901 0.96666 0.0
H1029 H 0.11541 0.73098 0.67101 0.0
H1030 H 0.11568 0.7307 0.79351 0.0
H1031 H 0.15049 0.74689 0.79139 0.0
H1032 H 0.15026 0.74806 0.66942 0.0
H1033 H 0.14179 0.78578 0.88302 0.0
H1034 H 0.13894 0.66727 0.82465 0.0
H1035 H 0.13111 0.61654 0.76891 0.0
H1036 H 0.10087 0.63186 0.87304 0.0
H1037 H 0.10847 0.683 0.92872 0.0
C1038 C 0.14416 0.73786 0.19796 0.0
C1039 C 0.13433 0.73787 0.2343 0.0
C1040 C 0.14404 0.73796 0.1278 0.0
C1041 C 0.13409 0.73779 0.0927 0.0
C1042 C 0.12429 0.73722 0.12881 0.0
C1043 C 0.1244 0.73751 0.1988 0.0
C1044 C 0.13386 0.73852 0.01831 0.0
C1045 C 0.12896 0.71121 0.98388 0.0
C1046 C 0.13859 0.76563 0.98142 0.0
C1047 C 0.14353 0.79579 0.01493 0.0
C1048 C 0.13741 0.81564 0.06009 0.0
C1049 C 0.14215 0.84386 0.09191 0.0
C1050 C 0.15299 0.85264 0.07858 0.0
C1051 C 0.15909 0.83327 0.03325 0.0
C1052 C 0.1544 0.80499 1.00136 0.0
C1053 C 0.12312 0.7345 0.69657 0.0
C1054 C 0.13281 0.73947 0.66012 0.0
C1055 C 0.12328 0.73418 0.76672 0.0
C1056 C 0.13313 0.73833 0.8019 0.0
C1057 C 0.14278 0.74364 0.76557 0.0
C1058 C 0.14263 0.74422 0.69561 0.0
C1059 C 0.13344 0.73731 0.87648 0.0
C1060 C 0.13836 0.76461 0.9111 0.0
C1061 C 0.12882 0.70999 0.91353 0.0
C1062 C 0.12424 0.67918 0.88033 0.0
C1063 C 0.13059 0.65998 0.83527 0.0
C1064 C 0.1262 0.63112 0.80375 0.0
C1065 C 0.11549 0.62103 0.81729 0.0
C1066 C 0.10916 0.63973 0.86253 0.0
C1067 C 0.1135 0.66865 0.89412 0.0
H1068 H 0.11211 0.59868 0.79284 0.0
H1069 H 0.15664 0.8745 0.10325 0.0
H1070 H 0.89795 0.72772 0.67181 0.0
H1071 H 0.89778 0.72832 0.79427 0.0
H1072 H 0.86382 0.75719 0.79228 0.0
H1073 H 0.86397 0.75737 0.67018 0.0
H1074 H 0.87422 0.7929 0.88444 0.0
H1075 H 0.87205 0.6742 0.82522 0.0
H1076 H 0.87771 0.62092 0.76879 0.0
H1077 H 0.90844 0.62386 0.87208 0.0
H1078 H 0.90302 0.67746 0.92844 0.0
H1079 H 0.86212 0.74641 0.22418 0.0
H1080 H 0.86242 0.74742 0.10132 0.0
H1081 H 0.89737 0.73515 0.10389 0.0
H1082 H 0.89718 0.7346 0.22627 0.0
H1083 H 0.88642 0.69104 0.01252 0.0
H1084 H 0.88818 0.81019 0.07215 0.0
H1085 H 0.88208 0.86276 0.12939 0.0
H1086 H 0.8514 0.8577 0.02592 0.0
H1087 H 0.85726 0.80477 0.96879 0.0
C1088 C 0.89044 0.73424 0.69734 0.0
C1089 C 0.88096 0.74234 0.66084 0.0
C1090 C 0.89035 0.73445 0.76749 0.0
C1091 C 0.88074 0.74236 0.80272 0.0
C1092 C 0.87133 0.75098 0.7664 0.0
C1093 C 0.87143 0.75096 0.69637 0.0
C1094 C 0.88045 0.74141 0.87734 0.0
C1095 C 0.87676 0.77044 0.9123 0.0
C1096 C 0.88391 0.71235 0.91408 0.0
C1097 C 0.88718 0.68003 0.88053 0.0
C1098 C 0.88005 0.66362 0.83552 0.0
C1099 C 0.88321 0.63335 0.80361 0.0
C1100 C 0.89344 0.61906 0.81671 0.0
C1101 C 0.90052 0.63498 0.86191 0.0
C1102 C 0.89741 0.6653 0.89389 0.0
C1103 C 0.86986 0.74389 0.19859 0.0
C1104 C 0.87963 0.74055 0.23509 0.0
C1105 C 0.87002 0.74457 0.12843 0.0
C1106 C 0.87992 0.74149 0.09355 0.0
C1107 C 0.88964 0.73758 0.12982 0.0
C1108 C 0.88951 0.73743 0.19981 0.0
C1109 C 0.88019 0.74243 0.01919 0.0
C1110 C 0.88387 0.71343 0.98443 0.0
C1111 C 0.87664 0.77139 0.98268 0.0
C1112 C 0.87311 0.80329 0.01675 0.0
C1113 C 0.88009 0.8201 0.06206 0.0
C1114 C 0.87669 0.85001 0.0944 0.0
C1115 C 0.86635 0.86351 0.08145 0.0
C1116 C 0.8594 0.84718 0.03599 0.0
C1117 C 0.86276 0.81724 1.00358 0.0
H1118 H 0.86373 0.88666 0.10653 0.0
H1119 H 0.89587 0.59562 0.79195 0.0
H1120 H 0.617 0.73241 0.30682 0.0
H1121 H 0.61688 0.73216 0.42883 0.0
H1122 H 0.65197 0.74117 0.43088 0.0
H1123 H 0.65217 0.74004 0.30822 0.0
H1124 H 0.64623 0.6987 0.52339 0.0
H1125 H 0.63429 0.8109 0.4634 0.0
H1126 H 0.6231 0.8543 0.40575 0.0
H1127 H 0.59432 0.81553 0.50191 0.0
H1128 H 0.60532 0.77158 0.55947 0.0
H1129 H 0.65029 0.75288 0.86263 0.0
H1130 H 0.65045 0.75211 0.74052 0.0
H1131 H 0.61626 0.72621 0.7384 0.0
H1132 H 0.61597 0.72703 0.86103 0.0
H1133 H 0.62167 0.77738 0.6471 0.0
H1134 H 0.63511 0.6664 0.71304 0.0
H1135 H 0.64749 0.62767 0.77416 0.0
H1136 H 0.67489 0.66855 0.66722 0.0
H1137 H 0.66276 0.70846 0.60713 0.0
C1138 C 0.62471 0.73439 0.33312 0.0
C1139 C 0.63459 0.73651 0.29766 0.0
C1140 C 0.62462 0.7344 0.40309 0.0
C1141 C 0.63439 0.7374 0.43944 0.0
C1142 C 0.64431 0.73896 0.40415 0.0
C1143 C 0.64441 0.73839 0.33397 0.0
C1144 C 0.63424 0.73876 0.51411 0.0
C1145 C 0.64096 0.71625 0.55032 0.0
C1146 C 0.62726 0.7613 0.54969 0.0
C1147 C 0.62062 0.78773 0.51524 0.0
C1148 C 0.62556 0.81147 0.47187 0.0
C1149 C 0.61926 0.83619 0.43927 0.0
C1150 C 0.608 0.83762 0.45002 0.0
C1151 C 0.60304 0.81437 0.49355 0.0
C1152 C 0.6093 0.78956 0.52623 0.0
C1153 C 0.64277 0.74708 0.83646 0.0
C1154 C 0.63311 0.7399 0.87194 0.0
C1155 C 0.6429 0.74654 0.76649 0.0
C1156 C 0.6334 0.73873 0.73034 0.0
C1157 C 0.6237 0.7322 0.76536 0.0
C1158 C 0.62356 0.7326 0.83549 0.0
C1159 C 0.63363 0.73734 0.65597 0.0
C1160 C 0.62692 0.75984 0.61995 0.0
C1161 C 0.64076 0.71524 0.6207 0.0
C1162 C 0.64802 0.69068 0.65594 0.0
C1163 C 0.64378 0.66736 0.70289 0.0
C1164 C 0.65075 0.64515 0.73733 0.0
C1165 C 0.66195 0.64557 0.72444 0.0
C1166 C 0.66621 0.66825 0.67715 0.0
C1167 C 0.6593 0.69072 0.64298 0.0
H1168 H 0.66732 0.62832 0.75112 0.0
H1169 H 0.60314 0.85678 0.42474 0.0
H1170 H 0.36232 0.74124 0.85547 0.0
H1171 H 0.36226 0.74081 0.73323 0.0
H1172 H 0.39741 0.737 0.73206 0.0
H1173 H 0.39758 0.73724 0.85485 0.0
H1174 H 0.38848 0.78509 0.64108 0.0
H1175 H 0.38408 0.66659 0.70026 0.0
H1176 H 0.37552 0.6181 0.75921 0.0
H1177 H 0.34498 0.63978 0.66271 0.0
H1178 H 0.35332 0.68877 0.60395 0.0
H1179 H 0.39609 0.74359 0.30034 0.0
H1180 H 0.3962 0.74395 0.42231 0.0
H1181 H 0.36124 0.73118 0.42407 0.0
H1182 H 0.36109 0.72982 0.30143 0.0
H1183 H 0.36999 0.69184 0.51588 0.0
H1184 H 0.37377 0.80984 0.45739 0.0
H1185 H 0.38169 0.8599 0.40005 0.0
H1186 H 0.41248 0.84145 0.49613 0.0
H1187 H 0.40479 0.79097 0.55336 0.0
C1188 C 0.37006 0.74041 0.82944 0.0
C1189 C 0.37996 0.7392 0.86518 0.0
C1190 C 0.37 0.74003 0.75944 0.0
C1191 C 0.37982 0.73862 0.72354 0.0
C1192 C 0.38973 0.73804 0.75884 0.0
C1193 C 0.38981 0.73805 0.82902 0.0
C1194 C 0.37969 0.73759 0.64913 0.0
C1195 C 0.38458 0.76448 0.61358 0.0
C1196 C 0.37431 0.71121 0.61342 0.0
C1197 C 0.3693 0.68156 0.64819 0.0
C1198 C 0.37552 0.66119 0.69201 0.0
C1199 C 0.37071 0.63359 0.72533 0.0
C1200 C 0.3597 0.62592 0.71484 0.0
C1201 C 0.3535 0.64578 0.67085 0.0
C1202 C 0.35826 0.67345 0.63748 0.0
C1203 C 0.3884 0.74093 0.32646 0.0
C1204 C 0.37856 0.73688 0.29084 0.0
C1205 C 0.38848 0.74129 0.39645 0.0
C1206 C 0.37871 0.73822 0.43269 0.0
C1207 C 0.36889 0.73372 0.39735 0.0
C1208 C 0.36881 0.73301 0.32716 0.0
C1209 C 0.3788 0.73938 0.50735 0.0
C1210 C 0.3739 0.71252 0.54312 0.0
C1211 C 0.38408 0.766 0.5433 0.0
C1212 C 0.38873 0.79642 0.50917 0.0
C1213 C 0.38225 0.8163 0.46591 0.0
C1214 C 0.3867 0.84478 0.43349 0.0
C1215 C 0.39759 0.85379 0.44431 0.0
C1216 C 0.40405 0.8344 0.48773 0.0
C1217 C 0.39965 0.80588 0.52022 0.0
H1218 H 0.40102 0.87584 0.41915 0.0
H1219 H 0.35599 0.60454 0.74069 0.0
H1220 H 0.65066 0.25296 0.15839 0.0
H1221 H 0.65079 0.25273 0.28057 0.0
H1222 H 0.6163 0.23116 0.28235 0.0
H1223 H 0.61605 0.23134 0.1597 0.0
H1224 H 0.62236 0.28171 0.37422 0.0
H1225 H 0.63372 0.16811 0.31163 0.0
H1226 H 0.64507 0.12606 0.25145 0.0
H1227 H 0.67372 0.16478 0.34959 0.0
H1228 H 0.66255 0.20743 0.40963 0.0
H1229 H 0.61705 0.23507 0.71369 0.0
H1230 H 0.61696 0.23591 0.59166 0.0
H1231 H 0.65212 0.24117 0.59059 0.0
H1232 H 0.65228 0.23901 0.71319 0.0
H1233 H 0.64588 0.19959 0.49715 0.0
H1234 H 0.63514 0.313 0.5594 0.0
H1235 H 0.62432 0.35706 0.61775 0.0
H1236 H 0.59527 0.32161 0.51937 0.0
H1237 H 0.6059 0.27702 0.46108 0.0
C1238 C 0.64307 0.24826 0.18452 0.0
C1239 C 0.63334 0.242 0.14894 0.0
C1240 C 0.64318 0.24803 0.25452 0.0
C1241 C 0.63358 0.24157 0.2906 0.0
C1242 C 0.62381 0.23611 0.25547 0.0
C1243 C 0.62369 0.23612 0.18532 0.0
C1244 C 0.63379 0.2402 0.36499 0.0
C1245 C 0.62739 0.26347 0.40121 0.0
C1246 C 0.6406 0.21707 0.4001 0.0
C1247 C 0.64731 0.19117 0.36466 0.0
C1248 C 0.64245 0.16782 0.32002 0.0
C1249 C 0.64885 0.14386 0.28598 0.0
C1250 C 0.66012 0.1428 0.29657 0.0
C1251 C 0.665 0.16565 0.34138 0.0
C1252 C 0.65863 0.18971 0.37547 0.0
C1253 C 0.62478 0.23646 0.68761 0.0
C1254 C 0.63467 0.23721 0.72334 0.0
C1255 C 0.62471 0.23712 0.61763 0.0
C1256 C 0.63452 0.23937 0.58156 0.0
C1257 C 0.64444 0.23958 0.6171 0.0
C1258 C 0.64452 0.23839 0.68725 0.0
C1259 C 0.63441 0.24113 0.50691 0.0
C1260 C 0.64085 0.21793 0.47045 0.0
C1261 C 0.62771 0.26459 0.47155 0.0
C1262 C 0.6213 0.29147 0.50635 0.0
C1263 C 0.62643 0.31444 0.55057 0.0
C1264 C 0.62034 0.33954 0.58358 0.0
C1265 C 0.60911 0.34208 0.5724 0.0
C1266 C 0.60396 0.31959 0.52804 0.0
C1267 C 0.61002 0.29442 0.49495 0.0
H1268 H 0.6044 0.36152 0.59801 0.0
H1269 H 0.66506 0.12424 0.27016 0.0
H1270 H 0.39812 0.23766 0.15871 0.0
H1271 H 0.3979 0.23749 0.28115 0.0
H1272 H 0.36272 0.2406 0.27901 0.0
H1273 H 0.36288 0.24189 0.15694 0.0
H1274 H 0.36969 0.28155 0.37138 0.0
H1275 H 0.37761 0.16543 0.31184 0.0
H1276 H 0.38755 0.11872 0.25543 0.0
H1277 H 0.41691 0.14675 0.35937 0.0
H1278 H 0.40718 0.19394 0.41573 0.0
H1279 H 0.36188 0.22984 0.71164 0.0
H1280 H 0.36203 0.23042 0.58894 0.0
H1281 H 0.397 0.24248 0.59052 0.0
H1282 H 0.39695 0.242 0.71279 0.0
H1283 H 0.39002 0.19341 0.49943 0.0
H1284 H 0.38141 0.30991 0.55923 0.0
H1285 H 0.37089 0.35521 0.61599 0.0
H1286 H 0.34192 0.32384 0.51156 0.0
H1287 H 0.35224 0.27802 0.45486 0.0
C1288 C 0.39033 0.23834 0.18428 0.0
C1289 C 0.38052 0.23969 0.14783 0.0
C1290 C 0.39022 0.23807 0.2544 0.0
C1291 C 0.38028 0.23847 0.28961 0.0
C1292 C 0.37049 0.24026 0.25324 0.0
C1293 C 0.3706 0.24094 0.18324 0.0
C1294 C 0.38005 0.23711 0.36423 0.0
C1295 C 0.37402 0.26195 0.3992 0.0
C1296 C 0.38583 0.21191 0.401 0.0
C1297 C 0.39169 0.18342 0.36751 0.0
C1298 C 0.3862 0.16178 0.32232 0.0
C1299 C 0.3918 0.1352 0.2904 0.0
C1300 C 0.40286 0.12983 0.30368 0.0
C1301 C 0.40834 0.15097 0.34906 0.0
C1302 C 0.40279 0.17762 0.38105 0.0
C1303 C 0.36961 0.23256 0.68593 0.0
C1304 C 0.3794 0.236 0.72223 0.0
C1305 C 0.36968 0.233 0.61578 0.0
C1306 C 0.37953 0.23671 0.58057 0.0
C1307 C 0.38931 0.2396 0.61662 0.0
C1308 C 0.38924 0.23947 0.68663 0.0
C1309 C 0.37967 0.23777 0.50615 0.0
C1310 C 0.38568 0.2129 0.47136 0.0
C1311 C 0.37378 0.26267 0.46953 0.0
C1312 C 0.36758 0.29031 0.50333 0.0
C1313 C 0.37278 0.31249 0.54878 0.0
C1314 C 0.36685 0.33829 0.58087 0.0
C1315 C 0.35573 0.34234 0.56753 0.0
C1316 C 0.35053 0.32064 0.52192 0.0
C1317 C 0.35641 0.29477 0.48976 0.0
H1318 H 0.35116 0.36233 0.59242 0.0
H1319 H 0.40717 0.10924 0.27892 0.0
H1320 H 0.05071 0.20089 0.46606 0.0
H1321 H 0.03101 0.20707 0.45636 0.0
H1322 H 0.0332 0.30996 0.53382 0.0
H1323 H 0.05289 0.3032 0.54762 0.0
H1324 H 0.0174 0.2788 0.59348 0.0
H1325 H 0.02729 0.29102 0.36358 0.0
H1326 H 0.03627 0.27578 0.25724 0.0
H1327 H 0.01824 0.18158 0.24998 0.0
H1328 H 0.00925 0.19604 0.35678 0.0
H1329 H 0.96148 0.31442 0.52997 0.0
H1330 H 0.98137 0.31627 0.52056 0.0
H1331 H 0.98178 0.20928 0.46757 0.0
H1332 H 0.96193 0.207 0.47793 0.0
H1333 H 0.99617 0.24664 0.39138 0.0
H1334 H 0.98731 0.23372 0.62552 0.0
H1335 H 0.9783 0.24971 0.73137 0.0
H1336 H 0.99453 0.34713 0.72863 0.0
H1337 H 1.00353 0.33188 0.62218 0.0
C1338 C 0.04703 0.22486 0.48127 0.0
C1339 C 0.05347 0.25145 0.50808 0.0
C1340 C 0.03573 0.22854 0.47476 0.0
C1341 C 0.03055 0.25915 0.49359 0.0
C1342 C 0.03697 0.28609 0.51875 0.0
C1343 C 0.04828 0.2823 0.52592 0.0
C1344 C 0.01841 0.26227 0.49066 0.0
C1345 C 0.0128 0.27241 0.54874 0.0
C1346 C 0.0123 0.25324 0.4329 0.0
C1347 C 0.01766 0.24451 0.3685 0.0
C1348 C 0.02529 0.26695 0.33956 0.0
C1349 C 0.03038 0.25846 0.27915 0.0
C1350 C 0.02784 0.2277 0.24695 0.0
C1351 C 0.0202 0.20539 0.27501 0.0
C1352 C 0.0151 0.21374 0.33544 0.0
C1353 C 0.96579 0.29125 0.51629 0.0
C1354 C 0.96006 0.26049 0.50522 0.0
C1355 C 0.97717 0.29239 0.51075 0.0
C1356 C 0.9831 0.26281 0.49417 0.0
C1357 C 0.97739 0.23245 0.48035 0.0
C1358 C 0.96601 0.23125 0.48603 0.0
C1359 C 0.99525 0.26304 0.49411 0.0
C1360 C 1.00083 0.2534 0.43568 0.0
C1361 C 1.00135 0.27271 0.55136 0.0
C1362 C 0.996 0.28181 0.61554 0.0
C1363 C 0.98889 0.25865 0.64722 0.0
C1364 C 0.9838 0.26756 0.70736 0.0
C1365 C 0.98582 0.29945 0.73661 0.0
C1366 C 0.99296 0.32246 0.70586 0.0
C1367 C 0.99806 0.31369 0.64564 0.0
H1368 H 0.98187 0.3063 0.78318 0.0
H1369 H 0.03179 0.22117 0.20019 0.0
H1370 H 0.96272 0.69498 0.55529 0.0
H1371 H 0.98248 0.70033 0.56351 0.0
H1372 H 0.9806 0.80302 0.48502 0.0
H1373 H 0.96086 0.7971 0.47282 0.0
H1374 H 0.99612 0.77076 0.42441 0.0
H1375 H 0.98667 0.78451 0.65496 0.0
H1376 H 0.97783 0.76992 0.76209 0.0
H1377 H 0.99563 0.67532 0.76942 0.0
H1378 H 1.00447 0.68912 0.66184 0.0
H1379 H 0.05199 0.80746 0.48498 0.0
H1380 H 0.03212 0.80884 0.4953 0.0
H1381 H 0.03203 0.70201 0.54934 0.0
H1382 H 0.05187 0.70019 0.53798 0.0
H1383 H 0.01762 0.73957 0.62593 0.0
H1384 H 0.02619 0.72519 0.39203 0.0
H1385 H 0.03506 0.74034 0.28531 0.0
H1386 H 0.01881 0.83771 0.28603 0.0
H1387 H 0.00995 0.82332 0.39332 0.0
C1388 C 0.96648 0.71873 0.53957 0.0
C1389 C 0.96012 0.74553 0.51299 0.0
C1390 C 0.97782 0.72193 0.54519 0.0
C1391 C 0.9831 0.75225 0.52561 0.0
C1392 C 0.97675 0.77937 0.50064 0.0
C1393 C 0.96542 0.77608 0.4944 0.0
C1394 C 0.99525 0.7549 0.52764 0.0
C1395 C 1.00078 0.76456 0.469 0.0
C1396 C 1.00143 0.74607 0.58518 0.0
C1397 C 0.99616 0.73774 0.65003 0.0
C1398 C 0.98864 0.76048 0.67917 0.0
C1399 C 0.98364 0.75237 0.74002 0.0
C1400 C 0.98615 0.72168 0.77246 0.0
C1401 C 0.99369 0.69907 0.7442 0.0
C1402 C 0.9987 0.70705 0.68333 0.0
C1403 C 0.04777 0.78422 0.49906 0.0
C1404 C 0.05358 0.75363 0.5101 0.0
C1405 C 0.03639 0.78509 0.50514 0.0
C1406 C 0.03055 0.75542 0.52229 0.0
C1407 C 0.03635 0.72524 0.53612 0.0
C1408 C 0.04773 0.7243 0.52986 0.0
C1409 C 0.0184 0.7554 0.52287 0.0
C1410 C 0.0129 0.7461 0.58176 0.0
C1411 C 0.01223 0.76472 0.46572 0.0
C1412 C 0.0175 0.77332 0.40104 0.0
C1413 C 0.02457 0.74994 0.36969 0.0
C1414 C 0.02959 0.75838 0.30906 0.0
C1415 C 0.02753 0.79001 0.279 0.0
C1416 C 0.02042 0.81324 0.30943 0.0
C1417 C 0.01539 0.80495 0.37013 0.0
H1418 H 0.03142 0.79649 0.23206 0.0
H1419 H 0.98227 0.71545 0.81956 0.0
H1420 H 0.55063 0.69198 0.06676 0.0
H1421 H 0.53081 0.69459 0.0581 0.0
H1422 H 0.53291 0.7988 0.98804 0.0
H1423 H 0.55286 0.79639 0.99689 0.0
H1424 H 0.51714 0.79267 0.07963 0.0
H1425 H 0.52692 0.73195 0.88005 0.0
H1426 H 0.53608 0.68708 0.81383 0.0
H1427 H 0.51861 0.60945 0.92176 0.0
H1428 H 0.50946 0.65385 0.98928 0.0
H1429 H 0.46044 0.79726 0.99467 0.0
H1430 H 0.48039 0.79958 0.98806 0.0
H1431 H 0.48223 0.69465 0.05431 0.0
H1432 H 0.46238 0.69212 0.06058 0.0
H1433 H 0.4961 0.70441 0.95596 0.0
H1434 H 0.48737 0.76392 0.16042 0.0
H1435 H 0.47836 0.80803 0.22937 0.0
H1436 H 0.4939 0.88708 0.11453 0.0
H1437 H 0.50289 0.84341 0.0443 0.0
C1438 C 0.54692 0.71532 0.04847 0.0
C1439 C 0.55338 0.74386 0.03182 0.0
C1440 C 0.53555 0.7168 0.04367 0.0
C1441 C 0.53033 0.74672 0.02139 0.0
C1442 C 0.53673 0.77539 1.00519 0.0
C1443 C 0.54814 0.77398 0.01031 0.0
C1444 C 0.51819 0.74809 0.01644 0.0
C1445 C 0.51255 0.77372 0.05156 0.0
C1446 C 0.51215 0.72299 0.98102 0.0
C1447 C 0.51757 0.69624 0.94005 0.0
C1448 C 0.52509 0.7053 0.88995 0.0
C1449 C 0.53027 0.67995 0.85214 0.0
C1450 C 0.52795 0.64543 0.86367 0.0
C1451 C 0.52041 0.6362 0.91291 0.0
C1452 C 0.51521 0.66145 0.95091 0.0
C1453 C 0.4651 0.77471 1.0079 0.0
C1454 C 0.45978 0.74447 0.02797 0.0
C1455 C 0.47652 0.77607 1.0042 0.0
C1456 C 0.48287 0.74739 0.02137 0.0
C1457 C 0.47755 0.7171 0.04053 0.0
C1458 C 0.46616 0.71565 0.04385 0.0
C1459 C 0.49503 0.7487 0.0199 0.0
C1460 C 0.50069 0.72355 0.98353 0.0
C1461 C 0.50108 0.77415 0.05439 0.0
C1462 C 0.4957 0.80041 0.09665 0.0
C1463 C 0.48879 0.79072 0.14955 0.0
C1464 C 0.48371 0.81563 0.18891 0.0
C1465 C 0.48553 0.85034 0.17621 0.0
C1466 C 0.49248 0.86019 0.12423 0.0
C1467 C 0.49758 0.83537 0.08465 0.0
H1468 H 0.48159 0.86959 0.20675 0.0
H1469 H 0.53197 0.62585 0.83436 0.0
H1470 H 0.46191 0.21636 0.07115 0.0
H1471 H 0.48181 0.21987 0.0759 0.0
H1472 H 0.48161 0.29166 0.91191 0.0
H1473 H 0.46176 0.28729 0.90516 0.0
H1474 H 0.49646 0.24367 0.89116 0.0
H1475 H 0.48712 0.31687 0.07517 0.0
H1476 H 0.47803 0.33252 0.18097 0.0
H1477 H 0.49468 0.25089 0.28235 0.0
H1478 H 0.50376 0.23445 0.1769 0.0
H1479 H 0.55226 0.2879 0.9075 0.0
H1480 H 0.53241 0.29187 0.91339 0.0
H1481 H 0.53212 0.21871 0.07499 0.0
H1482 H 0.55204 0.21554 0.07115 0.0
H1483 H 0.51753 0.26873 0.09769 0.0
H1484 H 0.52638 0.19442 0.91397 0.0
H1485 H 0.53538 0.17799 0.80835 0.0
H1486 H 0.51952 0.26104 0.70664 0.0
H1487 H 0.51053 0.27827 0.81193 0.0
C1488 C 0.46609 0.23294 0.03608 0.0
C1489 C 0.46018 0.25155 0.98777 0.0
C1490 C 0.47748 0.23518 0.03929 0.0
C1491 C 0.48325 0.25627 0.99463 0.0
C1492 C 0.47737 0.27527 0.94705 0.0
C1493 C 0.46598 0.27301 0.94373 0.0
C1494 C 0.49541 0.25737 0.99545 0.0
C1495 C 0.50105 0.24973 0.93612 0.0
C1496 C 0.50145 0.26433 0.05445 0.0
C1497 C 0.49604 0.27424 0.11798 0.0
C1498 C 0.48878 0.30209 0.11991 0.0
C1499 C 0.48364 0.31113 0.17983 0.0
C1500 C 0.48576 0.29266 0.2383 0.0
C1501 C 0.49304 0.26515 0.237 0.0
C1502 C 0.49819 0.25598 0.17718 0.0
C1503 C 0.54802 0.27314 0.94527 0.0
C1504 C 0.5538 0.25127 0.98868 0.0
C1505 C 0.53663 0.27515 0.94804 0.0
C1506 C 0.53072 0.25514 0.99385 0.0
C1507 C 0.53647 0.23425 0.03892 0.0
C1508 C 0.54787 0.23227 0.03628 0.0
C1509 C 0.51856 0.25518 0.99335 0.0
C1510 C 0.51292 0.26289 0.05271 0.0
C1511 C 0.5125 0.24821 0.9344 0.0
C1512 C 0.51787 0.23784 0.87099 0.0
C1513 C 0.52488 0.20934 0.86919 0.0
C1514 C 0.52997 0.19986 0.80937 0.0
C1515 C 0.52805 0.21851 0.75086 0.0
C1516 C 0.52101 0.24665 0.75203 0.0
C1517 C 0.51591 0.25627 0.81175 0.0
H1518 H 0.53199 0.21113 0.70459 0.0
H1519 H 0.48177 0.2997 0.28465 0.0
loop_
_geom_bond_atom_site_label_1
_geom_bond_atom_site_label_2
_geom_bond_distance
_geom_bond_site_symmetry_2
_ccdc_geom_bond_type
Dy0 O3 2.307 . S
Dy0 O5 2.395 . S
Dy0 O6 2.379 . S
Dy0 O8 2.339 . S
Dy0 O10 2.298 . S
Dy0 O14 2.275 . S
Dy0 C22 2.738 . S
Dy1 O4 2.298 . S
Dy1 O7 2.275 . S
Dy1 O9 2.307 . S
Dy1 O11 2.395 . S
Dy1 O12 2.379 . S
Dy1 O15 2.339 . S
Dy1 C31 2.738 . S
C2 O14 1.254 . S
C2 O15 1.257 . S
O3 Dy0 2.307 . S
O3 C13 1.266 . S
O4 Dy1 2.298 . S
O4 C13 1.236 . S
O5 Dy0 2.395 . S
O5 C22 1.255 . S
O6 Dy0 2.379 . S
O6 C22 1.249 . S
O7 Dy1 2.275 . S
O7 C23 1.254 . S
O8 Dy0 2.339 . S
O8 C23 1.257 . S
O9 Dy1 2.307 . S
O9 C24 1.266 . S
O10 Dy0 2.298 . S
O10 C24 1.236 . S
O11 Dy1 2.395 . S
O11 C31 1.255 . S
O12 Dy1 2.379 . S
O12 C31 1.249 . S
C13 O3 1.266 . S
C13 O4 1.236 . S
O14 Dy0 2.275 . S
O14 C2 1.254 . S
O15 Dy1 2.339 . S
O15 C2 1.257 . S
C16 C19 1.344 . S
C16 C20 1.328 . S
C16 C22 1.516 . S
C17 C18 1.304 . S
C17 C21 1.323 . S
C18 C17 1.304 . S
C18 C19 1.371 . S
C18 H32 0.930 . S
C19 C16 1.344 . S
C19 C18 1.371 . S
C19 H33 0.931 . S
C20 C16 1.328 . S
C20 C21 1.433 . S
C20 H34 0.931 . S
C21 C17 1.323 . S
C21 C20 1.433 . S
C21 H35 0.933 . S
C22 Dy0 2.738 . S
C22 O5 1.255 . S
C22 O6 1.249 . S
C22 C16 1.516 . S
C23 O7 1.254 . S
C23 O8 1.257 . S
C24 O9 1.266 . S
C24 O10 1.236 . S
C25 C28 1.344 . S
C25 C29 1.328 . S
C25 C31 1.516 . S
C26 C27 1.304 . S
C26 C30 1.323 . S
C27 C26 1.304 . S
C27 C28 1.371 . S
C27 H36 0.930 . S
C28 C25 1.344 . S
C28 C27 1.371 . S
C28 H37 0.931 . S
C29 C25 1.328 . S
C29 C30 1.433 . S
C29 H38 0.931 . S
C30 C26 1.323 . S
C30 C29 1.433 . S
C30 H39 0.933 . S
C31 Dy1 2.738 . S
C31 O11 1.255 . S
C31 O12 1.249 . S
C31 C25 1.516 . S
H32 C18 0.930 . S
H33 C19 0.931 . S
H34 C20 0.931 . S
H35 C21 0.933 . S
H36 C27 0.930 . S
H37 C28 0.931 . S
H38 C29 0.931 . S
H39 C30 0.933 . S
Dy40 O43 2.307 . S
Dy40 O45 2.395 . S
Dy40 O46 2.379 . S
Dy40 O48 2.339 . S
Dy40 O50 2.298 . S
Dy40 O54 2.275 . S
Dy40 C62 2.738 . S
Dy41 O44 2.298 . S
Dy41 O47 2.275 . S
Dy41 O49 2.307 . S
Dy41 O51 2.395 . S
Dy41 O52 2.379 . S
Dy41 O55 2.339 . S
Dy41 C71 2.738 . S
C42 O54 1.254 . S
C42 O55 1.257 . S
O43 Dy40 2.307 . S
O43 C53 1.266 . S
O44 Dy41 2.298 . S
O44 C53 1.236 . S
O45 Dy40 2.395 . S
O45 C62 1.255 . S
O46 Dy40 2.379 . S
O46 C62 1.249 . S
O47 Dy41 2.275 . S
O47 C63 1.254 . S
O48 Dy40 2.339 . S
O48 C63 1.257 . S
O49 Dy41 2.307 . S
O49 C64 1.266 . S
O50 Dy40 2.298 . S
O50 C64 1.236 . S
O51 Dy41 2.395 . S
O51 C71 1.255 . S
O52 Dy41 2.379 . S
O52 C71 1.249 . S
C53 O43 1.266 . S
C53 O44 1.236 . S
O54 Dy40 2.275 . S
O54 C42 1.254 . S
O55 Dy41 2.339 . S
O55 C42 1.257 . S
C56 C59 1.344 . S
C56 C60 1.328 . S
C56 C62 1.516 . S
C57 C58 1.304 . S
C57 C61 1.323 . S
C58 C57 1.304 . S
C58 C59 1.371 . S
C58 H72 0.930 . S
C59 C56 1.344 . S
C59 C58 1.371 . S
C59 H73 0.931 . S
C60 C56 1.328 . S
C60 C61 1.433 . S
C60 H74 0.931 . S
C61 C57 1.323 . S
C61 C60 1.433 . S
C61 H75 0.933 . S
C62 Dy40 2.738 . S
C62 O45 1.255 . S
C62 O46 1.249 . S
C62 C56 1.516 . S
C63 O47 1.254 . S
C63 O48 1.257 . S
C64 O49 1.266 . S
C64 O50 1.236 . S
C65 C68 1.344 . S
C65 C69 1.328 . S
C65 C71 1.516 . S
C66 C67 1.304 . S
C66 C70 1.323 . S
C67 C66 1.304 . S
C67 C68 1.371 . S
C67 H76 0.930 . S
C68 C65 1.344 . S
C68 C67 1.371 . S
C68 H77 0.931 . S
C69 C65 1.328 . S
C69 C70 1.433 . S
C69 H78 0.931 . S
C70 C66 1.323 . S
C70 C69 1.433 . S
C70 H79 0.933 . S
C71 Dy41 2.738 . S
C71 O51 1.255 . S
C71 O52 1.249 . S
C71 C65 1.516 . S
H72 C58 0.930 . S
H73 C59 0.931 . S
H74 C60 0.931 . S
H75 C61 0.933 . S
H76 C67 0.930 . S
H77 C68 0.931 . S
H78 C69 0.931 . S
H79 C70 0.933 . S
Dy80 O83 2.307 . S
Dy80 O85 2.395 . S
Dy80 O86 2.379 . S
Dy80 O88 2.339 . S
Dy80 O90 2.298 . S
Dy80 O94 2.275 . S
Dy80 C102 2.738 . S
Dy81 O84 2.298 . S
Dy81 O87 2.275 . S
Dy81 O89 2.307 . S
Dy81 O91 2.395 . S
Dy81 O92 2.379 . S
Dy81 O95 2.339 . S
Dy81 C111 2.738 . S
C82 O94 1.254 . S
C82 O95 1.257 . S
O83 Dy80 2.307 . S
O83 C93 1.266 . S
O84 Dy81 2.298 . S
O84 C93 1.236 . S
O85 Dy80 2.395 . S
O85 C102 1.255 . S
O86 Dy80 2.379 . S
O86 C102 1.249 . S
O87 Dy81 2.275 . S
O87 C103 1.254 . S
O88 Dy80 2.339 . S
O88 C103 1.257 . S
O89 Dy81 2.307 . S
O89 C104 1.266 . S
O90 Dy80 2.298 . S
O90 C104 1.236 . S
O91 Dy81 2.395 . S
O91 C111 1.255 . S
O92 Dy81 2.379 . S
O92 C111 1.249 . S
C93 O83 1.266 . S
C93 O84 1.236 . S
O94 Dy80 2.275 . S
O94 C82 1.254 . S
O95 Dy81 2.339 . S
O95 C82 1.257 . S
C96 C99 1.344 . S
C96 C100 1.328 . S
C96 C102 1.516 . S
C97 C98 1.304 . S
C97 C101 1.323 . S
C98 C97 1.304 . S
C98 C99 1.371 . S
C98 H112 0.930 . S
C99 C96 1.344 . S
C99 C98 1.371 . S
C99 H113 0.931 . S
C100 C96 1.328 . S
C100 C101 1.433 . S
C100 H114 0.931 . S
C101 C97 1.323 . S
C101 C100 1.433 . S
C101 H115 0.933 . S
C102 Dy80 2.738 . S
C102 O85 1.255 . S
C102 O86 1.249 . S
C102 C96 1.516 . S
C103 O87 1.254 . S
C103 O88 1.257 . S
C104 O89 1.266 . S
C104 O90 1.236 . S
C105 C108 1.344 . S
C105 C109 1.328 . S
C105 C111 1.516 . S
C106 C107 1.304 . S
C106 C110 1.323 . S
C107 C106 1.304 . S
C107 C108 1.371 . S
C107 H116 0.930 . S
C108 C105 1.344 . S
C108 C107 1.371 . S
C108 H117 0.931 . S
C109 C105 1.328 . S
C109 C110 1.433 . S
C109 H118 0.931 . S
C110 C106 1.323 . S
C110 C109 1.433 . S
C110 H119 0.933 . S
C111 Dy81 2.738 . S
C111 O91 1.255 . S
C111 O92 1.249 . S
C111 C105 1.516 . S
H112 C98 0.930 . S
H113 C99 0.931 . S
H114 C100 0.931 . S
H115 C101 0.933 . S
H116 C107 0.930 . S
H117 C108 0.931 . S
H118 C109 0.931 . S
H119 C110 0.933 . S
Dy120 O123 2.307 . S
Dy120 O125 2.395 . S
Dy120 O126 2.379 . S
Dy120 O128 2.339 . S
Dy120 O130 2.298 . S
Dy120 O134 2.275 . S
Dy120 C142 2.738 . S
Dy121 O124 2.298 . S
Dy121 O127 2.275 . S
Dy121 O129 2.307 . S
Dy121 O131 2.395 . S
Dy121 O132 2.379 . S
Dy121 O135 2.339 . S
Dy121 C151 2.738 . S
C122 O134 1.254 . S
C122 O135 1.257 . S
O123 Dy120 2.307 . S
O123 C133 1.266 . S
O124 Dy121 2.298 . S
O124 C133 1.236 . S
O125 Dy120 2.395 . S
O125 C142 1.255 . S
O126 Dy120 2.379 . S
O126 C142 1.249 . S
O127 Dy121 2.275 . S
O127 C143 1.254 . S
O128 Dy120 2.339 . S
O128 C143 1.257 . S
O129 Dy121 2.307 . S
O129 C144 1.266 . S
O130 Dy120 2.298 . S
O130 C144 1.236 . S
O131 Dy121 2.395 . S
O131 C151 1.255 . S
O132 Dy121 2.379 . S
O132 C151 1.249 . S
C133 O123 1.266 . S
C133 O124 1.236 . S
O134 Dy120 2.275 . S
O134 C122 1.254 . S
O135 Dy121 2.339 . S
O135 C122 1.257 . S
C136 C139 1.344 . S
C136 C140 1.328 . S
C136 C142 1.516 . S
C137 C138 1.304 . S
C137 C141 1.323 . S
C138 C137 1.304 . S
C138 C139 1.371 . S
C138 H152 0.930 . S
C139 C136 1.344 . S
C139 C138 1.371 . S
C139 H153 0.931 . S
C140 C136 1.328 . S
C140 C141 1.433 . S
C140 H154 0.931 . S
C141 C137 1.323 . S
C141 C140 1.433 . S
C141 H155 0.933 . S
C142 Dy120 2.738 . S
C142 O125 1.255 . S
C142 O126 1.249 . S
C142 C136 1.516 . S
C143 O127 1.254 . S
C143 O128 1.257 . S
C144 O129 1.266 . S
C144 O130 1.236 . S
C145 C148 1.344 . S
C145 C149 1.328 . S
C145 C151 1.516 . S
C146 C147 1.304 . S
C146 C150 1.323 . S
C147 C146 1.304 . S
C147 C148 1.371 . S
C147 H156 0.930 . S
C148 C145 1.344 . S
C148 C147 1.371 . S
C148 H157 0.931 . S
C149 C145 1.328 . S
C149 C150 1.433 . S
C149 H158 0.931 . S
C150 C146 1.323 . S
C150 C149 1.433 . S
C150 H159 0.933 . S
C151 Dy121 2.738 . S
C151 O131 1.255 . S
C151 O132 1.249 . S
C151 C145 1.516 . S
H152 C138 0.930 . S
H153 C139 0.931 . S
H154 C140 0.931 . S
H155 C141 0.933 . S
H156 C147 0.930 . S
H157 C148 0.931 . S
H158 C149 0.931 . S
H159 C150 0.933 . S
Dy160 O163 2.307 . S
Dy160 O165 2.395 1_556 S
Dy160 O166 2.379 1_556 S
Dy160 O168 2.339 . S
Dy160 O170 2.298 1_556 S
Dy160 O174 2.275 . S
Dy160 C182 2.738 1_556 S
Dy161 O164 2.298 1_554 S
Dy161 O167 2.275 . S
Dy161 O169 2.307 . S
Dy161 O171 2.395 1_554 S
Dy161 O172 2.379 1_554 S
Dy161 O175 2.339 . S
Dy161 C191 2.738 1_554 S
C162 O174 1.254 1_554 S
C162 O175 1.257 . S
O163 Dy160 2.307 . S
O163 C173 1.266 . S
O164 Dy161 2.298 1_556 S
O164 C173 1.236 . S
O165 Dy160 2.395 1_554 S
O165 C182 1.255 . S
O166 Dy160 2.379 1_554 S
O166 C182 1.249 . S
O167 Dy161 2.275 . S
O167 C183 1.254 1_554 S
O168 Dy160 2.339 . S
O168 C183 1.257 . S
O169 Dy161 2.307 . S
O169 C184 1.266 . S
O170 Dy160 2.298 1_554 S
O170 C184 1.236 . S
O171 Dy161 2.395 1_556 S
O171 C191 1.255 . S
O172 Dy161 2.379 1_556 S
O172 C191 1.249 . S
C173 O163 1.266 . S
C173 O164 1.236 . S
O174 Dy160 2.275 . S
O174 C162 1.254 1_556 S
O175 Dy161 2.339 . S
O175 C162 1.257 . S
C176 C179 1.344 . S
C176 C180 1.328 . S
C176 C182 1.516 . S
C177 C178 1.304 . S
C177 C181 1.323 . S
C178 C177 1.304 . S
C178 C179 1.371 . S
C178 H192 0.930 . S
C179 C176 1.344 . S
C179 C178 1.371 . S
C179 H193 0.931 . S
C180 C176 1.328 . S
C180 C181 1.433 . S
C180 H194 0.931 . S
C181 C177 1.323 . S
C181 C180 1.433 . S
C181 H195 0.933 . S
C182 Dy160 2.738 1_554 S
C182 O165 1.255 . S
C182 O166 1.249 . S
C182 C176 1.516 . S
C183 O167 1.254 1_556 S
C183 O168 1.257 . S
C184 O169 1.266 . S
C184 O170 1.236 . S
C185 C188 1.344 . S
C185 C189 1.328 . S
C185 C191 1.516 . S
C186 C187 1.304 . S
C186 C190 1.323 . S
C187 C186 1.304 . S
C187 C188 1.371 . S
C187 H196 0.930 . S
C188 C185 1.344 . S
C188 C187 1.371 . S
C188 H197 0.931 . S
C189 C185 1.328 . S
C189 C190 1.433 . S
C189 H198 0.931 . S
C190 C186 1.323 . S
C190 C189 1.433 . S
C190 H199 0.933 . S
C191 Dy161 2.738 1_556 S
C191 O171 1.255 . S
C191 O172 1.249 . S
C191 C185 1.516 . S
H192 C178 0.930 . S
H193 C179 0.931 . S
H194 C180 0.931 . S
H195 C181 0.933 . S
H196 C187 0.930 . S
H197 C188 0.931 . S
H198 C189 0.931 . S
H199 C190 0.933 . S
Dy200 O203 2.307 . S
Dy200 O205 2.395 1_556 S
Dy200 O206 2.379 1_556 S
Dy200 O208 2.339 . S
Dy200 O210 2.298 1_556 S
Dy200 O214 2.275 . S
Dy200 C222 2.738 1_556 S
Dy201 O204 2.298 1_554 S
Dy201 O207 2.275 . S
Dy201 O209 2.307 . S
Dy201 O211 2.395 1_554 S
Dy201 O212 2.379 1_554 S
Dy201 O215 2.339 . S
Dy201 C231 2.738 1_554 S
C202 O214 1.254 1_554 S
C202 O215 1.257 . S
O203 Dy200 2.307 . S
O203 C213 1.266 . S
O204 Dy201 2.298 1_556 S
O204 C213 1.236 . S
O205 Dy200 2.395 1_554 S
O205 C222 1.255 . S
O206 Dy200 2.379 1_554 S
O206 C222 1.249 . S
O207 Dy201 2.275 . S
O207 C223 1.254 1_554 S
O208 Dy200 2.339 . S
O208 C223 1.257 . S
O209 Dy201 2.307 . S
O209 C224 1.266 . S
O210 Dy200 2.298 1_554 S
O210 C224 1.236 . S
O211 Dy201 2.395 1_556 S
O211 C231 1.255 . S
O212 Dy201 2.379 1_556 S
O212 C231 1.249 . S
C213 O203 1.266 . S
C213 O204 1.236 . S
O214 Dy200 2.275 . S
O214 C202 1.254 1_556 S
O215 Dy201 2.339 . S
O215 C202 1.257 . S
C216 C219 1.344 . S
C216 C220 1.328 . S
C216 C222 1.516 . S
C217 C218 1.304 . S
C217 C221 1.323 . S
C218 C217 1.304 . S
C218 C219 1.371 . S
C218 H232 0.930 . S
C219 C216 1.344 . S
C219 C218 1.371 . S
C219 H233 0.931 . S
C220 C216 1.328 . S
C220 C221 1.433 . S
C220 H234 0.931 . S
C221 C217 1.323 . S
C221 C220 1.433 . S
C221 H235 0.933 . S
C222 Dy200 2.738 1_554 S
C222 O205 1.255 . S
C222 O206 1.249 . S
C222 C216 1.516 . S
C223 O207 1.254 1_556 S
C223 O208 1.257 . S
C224 O209 1.266 . S
C224 O210 1.236 . S
C225 C228 1.344 . S
C225 C229 1.328 . S
C225 C231 1.516 . S
C226 C227 1.304 . S
C226 C230 1.323 . S
C227 C226 1.304 . S
C227 C228 1.371 . S
C227 H236 0.930 . S
C228 C225 1.344 . S
C228 C227 1.371 . S
C228 H237 0.931 . S
C229 C225 1.328 . S
C229 C230 1.433 . S
C229 H238 0.931 . S
C230 C226 1.323 . S
C230 C229 1.433 . S
C230 H239 0.933 . S
C231 Dy201 2.738 1_556 S
C231 O211 1.255 . S
C231 O212 1.249 . S
C231 C225 1.516 . S
H232 C218 0.930 . S
H233 C219 0.931 . S
H234 C220 0.931 . S
H235 C221 0.933 . S
H236 C227 0.930 . S
H237 C228 0.931 . S
H238 C229 0.931 . S
H239 C230 0.933 . S
Dy240 O243 2.307 . S
Dy240 O245 2.395 1_554 S
Dy240 O246 2.379 1_554 S
Dy240 O248 2.339 . S
Dy240 O250 2.298 1_554 S
Dy240 O254 2.275 . S
Dy240 C262 2.738 1_554 S
Dy241 O244 2.298 1_556 S
Dy241 O247 2.275 . S
Dy241 O249 2.307 . S
Dy241 O251 2.395 1_556 S
Dy241 O252 2.379 1_556 S
Dy241 O255 2.339 . S
Dy241 C271 2.738 1_556 S
C242 O254 1.254 1_556 S
C242 O255 1.257 . S
O243 Dy240 2.307 . S
O243 C253 1.266 . S
O244 Dy241 2.298 1_554 S
O244 C253 1.236 . S
O245 Dy240 2.395 1_556 S
O245 C262 1.255 . S
O246 Dy240 2.379 1_556 S
O246 C262 1.249 . S
O247 Dy241 2.275 . S
O247 C263 1.254 1_556 S
O248 Dy240 2.339 . S
O248 C263 1.257 . S
O249 Dy241 2.307 . S
O249 C264 1.266 . S
O250 Dy240 2.298 1_556 S
O250 C264 1.236 . S
O251 Dy241 2.395 1_554 S
O251 C271 1.255 . S
O252 Dy241 2.379 1_554 S
O252 C271 1.249 . S
C253 O243 1.266 . S
C253 O244 1.236 . S
O254 Dy240 2.275 . S
O254 C242 1.254 1_554 S
O255 Dy241 2.339 . S
O255 C242 1.257 . S
C256 C259 1.344 . S
C256 C260 1.328 . S
C256 C262 1.516 . S
C257 C258 1.304 . S
C257 C261 1.323 . S
C258 C257 1.304 . S
C258 C259 1.371 . S
C258 H272 0.930 . S
C259 C256 1.344 . S
C259 C258 1.371 . S
C259 H273 0.931 . S
C260 C256 1.328 . S
C260 C261 1.433 . S
C260 H274 0.931 . S
C261 C257 1.323 . S
C261 C260 1.433 . S
C261 H275 0.933 . S
C262 Dy240 2.738 1_556 S
C262 O245 1.255 . S
C262 O246 1.249 . S
C262 C256 1.516 . S
C263 O247 1.254 1_554 S
C263 O248 1.257 . S
C264 O249 1.266 . S
C264 O250 1.236 . S
C265 C268 1.344 . S
C265 C269 1.328 . S
C265 C271 1.516 . S
C266 C267 1.304 . S
C266 C270 1.323 . S
C267 C266 1.304 . S
C267 C268 1.371 . S
C267 H276 0.930 . S
C268 C265 1.344 . S
C268 C267 1.371 . S
C268 H277 0.931 . S
C269 C265 1.328 . S
C269 C270 1.433 . S
C269 H278 0.931 . S
C270 C266 1.323 . S
C270 C269 1.433 . S
C270 H279 0.933 . S
C271 Dy241 2.738 1_554 S
C271 O251 1.255 . S
C271 O252 1.249 . S
C271 C265 1.516 . S
H272 C258 0.930 . S
H273 C259 0.931 . S
H274 C260 0.931 . S
H275 C261 0.933 . S
H276 C267 0.930 . S
H277 C268 0.931 . S
H278 C269 0.931 . S
H279 C270 0.933 . S
Dy280 O283 2.307 . S
Dy280 O285 2.395 1_554 S
Dy280 O286 2.379 1_554 S
Dy280 O288 2.339 . S
Dy280 O290 2.298 1_554 S
Dy280 O294 2.275 . S
Dy280 C302 2.738 1_554 S
Dy281 O284 2.298 1_556 S
Dy281 O287 2.275 . S
Dy281 O289 2.307 . S
Dy281 O291 2.395 1_556 S
Dy281 O292 2.379 1_556 S
Dy281 O295 2.339 . S
Dy281 C311 2.738 1_556 S
C282 O294 1.254 1_556 S
C282 O295 1.257 . S
O283 Dy280 2.307 . S
O283 C293 1.266 . S
O284 Dy281 2.298 1_554 S
O284 C293 1.236 . S
O285 Dy280 2.395 1_556 S
O285 C302 1.255 . S
O286 Dy280 2.379 1_556 S
O286 C302 1.249 . S
O287 Dy281 2.275 . S
O287 C303 1.254 1_556 S
O288 Dy280 2.339 . S
O288 C303 1.257 . S
O289 Dy281 2.307 . S
O289 C304 1.266 . S
O290 Dy280 2.298 1_556 S
O290 C304 1.236 . S
O291 Dy281 2.395 1_554 S
O291 C311 1.255 . S
O292 Dy281 2.379 1_554 S
O292 C311 1.249 . S
C293 O283 1.266 . S
C293 O284 1.236 . S
O294 Dy280 2.275 . S
O294 C282 1.254 1_554 S
O295 Dy281 2.339 . S
O295 C282 1.257 . S
C296 C299 1.344 . S
C296 C300 1.328 . S
C296 C302 1.516 . S
C297 C298 1.304 . S
C297 C301 1.323 . S
C298 C297 1.304 . S
C298 C299 1.371 . S
C298 H312 0.930 . S
C299 C296 1.344 . S
C299 C298 1.371 . S
C299 H313 0.931 . S
C300 C296 1.328 . S
C300 C301 1.433 . S
C300 H314 0.931 . S
C301 C297 1.323 . S
C301 C300 1.433 . S
C301 H315 0.933 . S
C302 Dy280 2.738 1_556 S
C302 O285 1.255 . S
C302 O286 1.249 . S
C302 C296 1.516 . S
C303 O287 1.254 1_554 S
C303 O288 1.257 . S
C304 O289 1.266 . S
C304 O290 1.236 . S
C305 C308 1.344 . S
C305 C309 1.328 . S
C305 C311 1.516 . S
C306 C307 1.304 . S
C306 C310 1.323 . S
C307 C306 1.304 . S
C307 C308 1.371 . S
C307 H316 0.930 . S
C308 C305 1.344 . S
C308 C307 1.371 . S
C308 H317 0.931 . S
C309 C305 1.328 . S
C309 C310 1.433 . S
C309 H318 0.931 . S
C310 C306 1.323 . S
C310 C309 1.433 . S
C310 H319 0.933 . S
C311 Dy281 2.738 1_554 S
C311 O291 1.255 . S
C311 O292 1.249 . S
C311 C305 1.516 . S
H312 C298 0.930 . S
H313 C299 0.931 . S
H314 C300 0.931 . S
H315 C301 0.933 . S
H316 C307 0.930 . S
H317 C308 0.931 . S
H318 C309 0.931 . S
H319 C310 0.933 . S
H320 C338 0.951 . S
H321 C340 0.951 . S
H322 C342 0.950 . S
H323 C343 0.950 . S
H324 C345 0.950 . S
H325 C348 0.950 . S
H326 C349 0.950 . S
H327 C351 0.950 . S
H328 C352 0.950 . S
H329 C353 0.951 . S
H330 C355 0.951 . S
H331 C357 0.950 . S
H332 C358 0.950 . S
H333 C360 0.950 . S
H334 C363 0.950 . S
H335 C364 0.950 . S
H336 C366 0.950 . S
H337 C367 0.950 . S
C338 H320 0.951 . S
C338 C339 1.366 . S
C338 C340 1.388 . S
C339 C338 1.366 . S
C339 C343 1.385 . S
C340 H321 0.951 . S
C340 C338 1.388 . S
C340 C341 1.366 . S
C341 C340 1.366 . S
C341 C342 1.414 . S
C341 C344 1.499 . S
C342 H322 0.950 . S
C342 C341 1.414 . S
C342 C343 1.374 . S
C343 H323 0.950 . S
C343 C339 1.385 . S
C343 C342 1.374 . S
C344 C341 1.499 . S
C344 C345 1.373 . S
C344 C346 1.389 . S
C345 H324 0.950 . S
C345 C344 1.373 . S
C345 C361 1.377 . S
C346 C344 1.389 . S
C346 C347 1.524 . S
C346 C360 1.377 . S
C347 C346 1.524 . S
C347 C348 1.397 . S
C347 C352 1.363 . S
C348 H325 0.950 . S
C348 C347 1.397 . S
C348 C349 1.334 . S
C349 H326 0.950 . S
C349 C348 1.334 . S
C349 C350 1.287 . S
C350 C349 1.287 . S
C350 C351 1.524 . S
C350 H369 0.913 . S
C351 H327 0.950 . S
C351 C350 1.524 . S
C351 C352 1.415 . S
C352 H328 0.950 . S
C352 C347 1.363 . S
C352 C351 1.415 . S
C353 H329 0.951 . S
C353 C354 1.366 . S
C353 C355 1.388 . S
C354 C353 1.366 . S
C354 C358 1.385 . S
C355 H330 0.951 . S
C355 C353 1.388 . S
C355 C356 1.366 . S
C356 C355 1.366 . S
C356 C357 1.414 . S
C356 C359 1.499 . S
C357 H331 0.950 . S
C357 C356 1.414 . S
C357 C358 1.374 . S
C358 H332 0.950 . S
C358 C354 1.385 . S
C358 C357 1.374 . S
C359 C356 1.499 . S
C359 C360 1.373 . S
C359 C361 1.389 . S
C360 H333 0.950 . S
C360 C346 1.377 . S
C360 C359 1.373 . S
C361 C345 1.377 . S
C361 C359 1.389 . S
C361 C362 1.524 . S
C362 C361 1.524 . S
C362 C363 1.397 . S
C362 C367 1.363 . S
C363 H334 0.950 . S
C363 C362 1.397 . S
C363 C364 1.334 . S
C364 H335 0.950 . S
C364 C363 1.334 . S
C364 C365 1.287 1_556 S
C365 C364 1.287 1_554 S
C365 C366 1.524 1_554 S
C365 H368 0.999 . S
C366 H336 0.950 . S
C366 C365 1.524 1_556 S
C366 C367 1.415 . S
C367 H337 0.950 . S
C367 C362 1.363 . S
C367 C366 1.415 . S
H368 C365 0.999 . S
H369 C350 0.913 . S
H370 C388 0.951 . S
H371 C390 0.951 . S
H372 C392 0.950 . S
H373 C393 0.950 . S
H374 C395 0.950 . S
H375 C398 0.950 . S
H376 C399 0.950 . S
H377 C401 0.950 . S
H378 C402 0.950 . S
H379 C403 0.951 . S
H380 C405 0.951 . S
H381 C407 0.950 . S
H382 C408 0.950 . S
H383 C410 0.950 . S
H384 C413 0.950 . S
H385 C414 0.950 . S
H386 C416 0.950 . S
H387 C417 0.950 . S
C388 H370 0.951 . S
C388 C389 1.366 . S
C388 C390 1.388 . S
C389 C388 1.366 . S
C389 C393 1.385 . S
C390 H371 0.951 . S
C390 C388 1.388 . S
C390 C391 1.366 . S
C391 C390 1.366 . S
C391 C392 1.414 . S
C391 C394 1.499 . S
C392 H372 0.950 . S
C392 C391 1.414 . S
C392 C393 1.374 . S
C393 H373 0.950 . S
C393 C389 1.385 . S
C393 C392 1.374 . S
C394 C391 1.499 . S
C394 C395 1.373 . S
C394 C396 1.389 . S
C395 H374 0.950 . S
C395 C394 1.373 . S
C395 C411 1.377 . S
C396 C394 1.389 . S
C396 C397 1.524 . S
C396 C410 1.377 . S
C397 C396 1.524 . S
C397 C398 1.397 . S
C397 C402 1.363 . S
C398 H375 0.950 . S
C398 C397 1.397 . S
C398 C399 1.334 . S
C399 H376 0.950 . S
C399 C398 1.334 . S
C399 C400 1.287 . S
C400 C399 1.287 . S
C400 C401 1.524 . S
C400 H419 0.913 . S
C401 H377 0.950 . S
C401 C400 1.524 . S
C401 C402 1.415 . S
C402 H378 0.950 . S
C402 C397 1.363 . S
C402 C401 1.415 . S
C403 H379 0.951 . S
C403 C404 1.366 . S
C403 C405 1.388 . S
C404 C403 1.366 . S
C404 C408 1.385 . S
C405 H380 0.951 . S
C405 C403 1.388 . S
C405 C406 1.366 . S
C406 C405 1.366 . S
C406 C407 1.414 . S
C406 C409 1.499 . S
C407 H381 0.950 . S
C407 C406 1.414 . S
C407 C408 1.374 . S
C408 H382 0.950 . S
C408 C404 1.385 . S
C408 C407 1.374 . S
C409 C406 1.499 . S
C409 C410 1.373 . S
C409 C411 1.389 . S
C410 H383 0.950 . S
C410 C396 1.377 . S
C410 C409 1.373 . S
C411 C395 1.377 . S
C411 C409 1.389 . S
C411 C412 1.524 . S
C412 C411 1.524 . S
C412 C413 1.397 . S
C412 C417 1.363 . S
C413 H384 0.950 . S
C413 C412 1.397 . S
C413 C414 1.334 . S
C414 H385 0.950 . S
C414 C413 1.334 . S
C414 C415 1.287 . S
C415 C414 1.287 . S
C415 C416 1.524 . S
C415 H418 0.999 . S
C416 H386 0.950 . S
C416 C415 1.524 . S
C416 C417 1.415 . S
C417 H387 0.950 . S
C417 C412 1.363 . S
C417 C416 1.415 . S
H418 C415 0.999 . S
H419 C400 0.913 . S
H420 C438 0.951 . S
H421 C440 0.951 . S
H422 C442 0.950 . S
H423 C443 0.950 . S
H424 C445 0.950 . S
H425 C448 0.950 . S
H426 C449 0.950 . S
H427 C451 0.950 . S
H428 C452 0.950 . S
H429 C453 0.951 . S
H430 C455 0.951 . S
H431 C457 0.950 . S
H432 C458 0.950 . S
H433 C460 0.950 . S
H434 C463 0.950 . S
H435 C464 0.950 . S
H436 C466 0.950 . S
H437 C467 0.950 . S
C438 H420 0.951 . S
C438 C439 1.366 . S
C438 C440 1.388 . S
C439 C438 1.366 . S
C439 C443 1.385 . S
C440 H421 0.951 . S
C440 C438 1.388 . S
C440 C441 1.366 . S
C441 C440 1.366 . S
C441 C442 1.414 . S
C441 C444 1.499 . S
C442 H422 0.950 . S
C442 C441 1.414 . S
C442 C443 1.374 . S
C443 H423 0.950 . S
C443 C439 1.385 . S
C443 C442 1.374 . S
C444 C441 1.499 . S
C444 C445 1.373 . S
C444 C446 1.389 . S
C445 H424 0.950 . S
C445 C444 1.373 . S
C445 C461 1.377 . S
C446 C444 1.389 . S
C446 C447 1.524 . S
C446 C460 1.377 . S
C447 C446 1.524 . S
C447 C448 1.397 . S
C447 C452 1.363 . S
C448 H425 0.950 . S
C448 C447 1.397 . S
C448 C449 1.334 . S
C449 H426 0.950 . S
C449 C448 1.334 . S
C449 C450 1.287 . S
C450 C449 1.287 . S
C450 C451 1.524 . S
C450 H469 0.913 . S
C451 H427 0.950 . S
C451 C450 1.524 . S
C451 C452 1.415 . S
C452 H428 0.950 . S
C452 C447 1.363 . S
C452 C451 1.415 . S
C453 H429 0.951 . S
C453 C454 1.366 . S
C453 C455 1.388 . S
C454 C453 1.366 . S
C454 C458 1.385 . S
C455 H430 0.951 . S
C455 C453 1.388 . S
C455 C456 1.366 . S
C456 C455 1.366 . S
C456 C457 1.414 . S
C456 C459 1.499 . S
C457 H431 0.950 . S
C457 C456 1.414 . S
C457 C458 1.374 . S
C458 H432 0.950 . S
C458 C454 1.385 . S
C458 C457 1.374 . S
C459 C456 1.499 . S
C459 C460 1.373 . S
C459 C461 1.389 . S
C460 H433 0.950 . S
C460 C446 1.377 . S
C460 C459 1.373 . S
C461 C445 1.377 . S
C461 C459 1.389 . S
C461 C462 1.524 . S
C462 C461 1.524 . S
C462 C463 1.397 . S
C462 C467 1.363 . S
C463 H434 0.950 . S
C463 C462 1.397 . S
C463 C464 1.334 . S
C464 H435 0.950 . S
C464 C463 1.334 . S
C464 C465 1.287 . S
C465 C464 1.287 . S
C465 C466 1.524 . S
C465 H468 0.999 . S
C466 H436 0.950 . S
C466 C465 1.524 . S
C466 C467 1.415 . S
C467 H437 0.950 . S
C467 C462 1.363 . S
C467 C466 1.415 . S
H468 C465 0.999 . S
H469 C450 0.913 . S
H470 C488 0.951 . S
H471 C490 0.951 . S
H472 C492 0.950 . S
H473 C493 0.950 . S
H474 C495 0.950 . S
H475 C498 0.950 . S
H476 C499 0.950 . S
H477 C501 0.950 . S
H478 C502 0.950 . S
H479 C503 0.951 . S
H480 C505 0.951 . S
H481 C507 0.950 . S
H482 C508 0.950 . S
H483 C510 0.950 . S
H484 C513 0.950 . S
H485 C514 0.950 . S
H486 C516 0.950 . S
H487 C517 0.950 . S
C488 H470 0.951 . S
C488 C489 1.366 . S
C488 C490 1.388 . S
C489 C488 1.366 . S
C489 C493 1.385 . S
C490 H471 0.951 . S
C490 C488 1.388 . S
C490 C491 1.366 . S
C491 C490 1.366 . S
C491 C492 1.414 . S
C491 C494 1.499 . S
C492 H472 0.950 . S
C492 C491 1.414 . S
C492 C493 1.374 . S
C493 H473 0.950 . S
C493 C489 1.385 . S
C493 C492 1.374 . S
C494 C491 1.499 . S
C494 C495 1.373 . S
C494 C496 1.389 . S
C495 H474 0.950 . S
C495 C494 1.373 . S
C495 C511 1.377 . S
C496 C494 1.389 . S
C496 C497 1.524 . S
C496 C510 1.377 . S
C497 C496 1.524 . S
C497 C498 1.397 . S
C497 C502 1.363 . S
C498 H475 0.950 . S
C498 C497 1.397 . S
C498 C499 1.334 . S
C499 H476 0.950 . S
C499 C498 1.334 . S
C499 C500 1.287 . S
C500 C499 1.287 . S
C500 C501 1.524 . S
C500 H519 0.913 . S
C501 H477 0.950 . S
C501 C500 1.524 . S
C501 C502 1.415 . S
C502 H478 0.950 . S
C502 C497 1.363 . S
C502 C501 1.415 . S
C503 H479 0.951 . S
C503 C504 1.366 . S
C503 C505 1.388 . S
C504 C503 1.366 . S
C504 C508 1.385 . S
C505 H480 0.951 . S
C505 C503 1.388 . S
C505 C506 1.366 . S
C506 C505 1.366 . S
C506 C507 1.414 . S
C506 C509 1.499 . S
C507 H481 0.950 . S
C507 C506 1.414 . S
C507 C508 1.374 . S
C508 H482 0.950 . S
C508 C504 1.385 . S
C508 C507 1.374 . S
C509 C506 1.499 . S
C509 C510 1.373 . S
C509 C511 1.389 . S
C510 H483 0.950 . S
C510 C496 1.377 . S
C510 C509 1.373 . S
C511 C495 1.377 . S
C511 C509 1.389 . S
C511 C512 1.524 . S
C512 C511 1.524 . S
C512 C513 1.397 . S
C512 C517 1.363 . S
C513 H484 0.950 . S
C513 C512 1.397 . S
C513 C514 1.334 . S
C514 H485 0.950 . S
C514 C513 1.334 . S
C514 C515 1.287 . S
C515 C514 1.287 . S
C515 C516 1.524 . S
C515 H518 0.999 . S
C516 H486 0.950 . S
C516 C515 1.524 . S
C516 C517 1.415 . S
C517 H487 0.950 . S
C517 C512 1.363 . S
C517 C516 1.415 . S
H518 C515 0.999 . S
H519 C500 0.913 . S
H520 C538 0.951 . S
H521 C540 0.951 . S
H522 C542 0.950 . S
H523 C543 0.950 . S
H524 C545 0.950 . S
H525 C548 0.950 . S
H526 C549 0.950 . S
H527 C551 0.950 . S
H528 C552 0.950 . S
H529 C553 0.951 . S
H530 C555 0.951 . S
H531 C557 0.950 . S
H532 C558 0.950 . S
H533 C560 0.950 . S
H534 C563 0.950 . S
H535 C564 0.950 . S
H536 C566 0.950 . S
H537 C567 0.950 . S
C538 H520 0.951 . S
C538 C539 1.366 . S
C538 C540 1.388 . S
C539 C538 1.366 . S
C539 C543 1.385 . S
C540 H521 0.951 . S
C540 C538 1.388 . S
C540 C541 1.366 . S
C541 C540 1.366 . S
C541 C542 1.414 . S
C541 C544 1.499 . S
C542 H522 0.950 . S
C542 C541 1.414 . S
C542 C543 1.374 . S
C543 H523 0.950 . S
C543 C539 1.385 . S
C543 C542 1.374 . S
C544 C541 1.499 . S
C544 C545 1.373 . S
C544 C546 1.389 . S
C545 H524 0.950 . S
C545 C544 1.373 . S
C545 C561 1.377 1_565 S
C546 C544 1.389 . S
C546 C547 1.524 . S
C546 C560 1.377 1_565 S
C547 C546 1.524 . S
C547 C548 1.397 . S
C547 C552 1.363 . S
C548 H525 0.950 . S
C548 C547 1.397 . S
C548 C549 1.334 . S
C549 H526 0.950 . S
C549 C548 1.334 . S
C549 C550 1.287 . S
C550 C549 1.287 . S
C550 C551 1.524 . S
C550 H569 0.913 . S
C551 H527 0.950 . S
C551 C550 1.524 . S
C551 C552 1.415 . S
C552 H528 0.950 . S
C552 C547 1.363 . S
C552 C551 1.415 . S
C553 H529 0.951 . S
C553 C554 1.366 . S
C553 C555 1.388 . S
C554 C553 1.366 . S
C554 C558 1.385 . S
C555 H530 0.951 . S
C555 C553 1.388 . S
C555 C556 1.366 . S
C556 C555 1.366 . S
C556 C557 1.414 . S
C556 C559 1.499 . S
C557 H531 0.950 . S
C557 C556 1.414 . S
C557 C558 1.374 . S
C558 H532 0.950 . S
C558 C554 1.385 . S
C558 C557 1.374 . S
C559 C556 1.499 . S
C559 C560 1.373 . S
C559 C561 1.389 . S
C560 H533 0.950 . S
C560 C546 1.377 1_545 S
C560 C559 1.373 . S
C561 C545 1.377 1_545 S
C561 C559 1.389 . S
C561 C562 1.524 . S
C562 C561 1.524 . S
C562 C563 1.397 . S
C562 C567 1.363 . S
C563 H534 0.950 . S
C563 C562 1.397 . S
C563 C564 1.334 . S
C564 H535 0.950 . S
C564 C563 1.334 . S
C564 C565 1.287 . S
C565 C564 1.287 . S
C565 C566 1.524 . S
C565 H568 0.999 . S
C566 H536 0.950 . S
C566 C565 1.524 . S
C566 C567 1.415 . S
C567 H537 0.950 . S
C567 C562 1.363 . S
C567 C566 1.415 . S
H568 C565 0.999 . S
H569 C550 0.913 . S
H570 C588 0.951 . S
H571 C590 0.951 . S
H572 C592 0.950 . S
H573 C593 0.950 . S
H574 C595 0.950 . S
H575 C598 0.950 . S
H576 C599 0.950 . S
H577 C601 0.950 . S
H578 C602 0.950 . S
H579 C603 0.951 . S
H580 C605 0.951 . S
H581 C607 0.950 . S
H582 C608 0.950 . S
H583 C610 0.950 . S
H584 C613 0.950 . S
H585 C614 0.950 . S
H586 C616 0.950 . S
H587 C617 0.950 . S
C588 H570 0.951 . S
C588 C589 1.366 . S
C588 C590 1.388 . S
C589 C588 1.366 . S
C589 C593 1.385 . S
C590 H571 0.951 . S
C590 C588 1.388 . S
C590 C591 1.366 . S
C591 C590 1.366 . S
C591 C592 1.414 . S
C591 C594 1.499 . S
C592 H572 0.950 . S
C592 C591 1.414 . S
C592 C593 1.374 . S
C593 H573 0.950 . S
C593 C589 1.385 . S
C593 C592 1.374 . S
C594 C591 1.499 . S
C594 C595 1.373 . S
C594 C596 1.389 . S
C595 H574 0.950 . S
C595 C594 1.373 . S
C595 C611 1.377 . S
C596 C594 1.389 . S
C596 C597 1.524 . S
C596 C610 1.377 . S
C597 C596 1.524 . S
C597 C598 1.397 . S
C597 C602 1.363 . S
C598 H575 0.950 . S
C598 C597 1.397 . S
C598 C599 1.334 . S
C599 H576 0.950 . S
C599 C598 1.334 . S
C599 C600 1.287 . S
C600 C599 1.287 . S
C600 C601 1.524 . S
C600 H619 0.913 . S
C601 H577 0.950 . S
C601 C600 1.524 . S
C601 C602 1.415 . S
C602 H578 0.950 . S
C602 C597 1.363 . S
C602 C601 1.415 . S
C603 H579 0.951 . S
C603 C604 1.366 . S
C603 C605 1.388 . S
C604 C603 1.366 . S
C604 C608 1.385 . S
C605 H580 0.951 . S
C605 C603 1.388 . S
C605 C606 1.366 . S
C606 C605 1.366 . S
C606 C607 1.414 . S
C606 C609 1.499 . S
C607 H581 0.950 . S
C607 C606 1.414 . S
C607 C608 1.374 . S
C608 H582 0.950 . S
C608 C604 1.385 . S
C608 C607 1.374 . S
C609 C606 1.499 . S
C609 C610 1.373 . S
C609 C611 1.389 . S
C610 H583 0.950 . S
C610 C596 1.377 . S
C610 C609 1.373 . S
C611 C595 1.377 . S
C611 C609 1.389 . S
C611 C612 1.524 . S
C612 C611 1.524 . S
C612 C613 1.397 . S
C612 C617 1.363 . S
C613 H584 0.950 . S
C613 C612 1.397 . S
C613 C614 1.334 . S
C614 H585 0.950 . S
C614 C613 1.334 . S
C614 C615 1.287 . S
C615 C614 1.287 . S
C615 C616 1.524 . S
C615 H618 0.999 . S
C616 H586 0.950 . S
C616 C615 1.524 . S
C616 C617 1.415 . S
C617 H587 0.950 . S
C617 C612 1.363 . S
C617 C616 1.415 . S
H618 C615 0.999 . S
H619 C600 0.913 . S
H620 C638 0.951 . S
H621 C640 0.951 . S
H622 C642 0.950 . S
H623 C643 0.950 . S
H624 C645 0.950 . S
H625 C648 0.950 . S
H626 C649 0.950 . S
H627 C651 0.950 . S
H628 C652 0.950 . S
H629 C653 0.951 . S
H630 C655 0.951 . S
H631 C657 0.950 . S
H632 C658 0.950 . S
H633 C660 0.950 . S
H634 C663 0.950 . S
H635 C664 0.950 . S
H636 C666 0.950 . S
H637 C667 0.950 . S
C638 H620 0.951 . S
C638 C639 1.366 . S
C638 C640 1.388 . S
C639 C638 1.366 . S
C639 C643 1.385 . S
C640 H621 0.951 . S
C640 C638 1.388 . S
C640 C641 1.366 . S
C641 C640 1.366 . S
C641 C642 1.414 . S
C641 C644 1.499 . S
C642 H622 0.950 . S
C642 C641 1.414 . S
C642 C643 1.374 . S
C643 H623 0.950 . S
C643 C639 1.385 . S
C643 C642 1.374 . S
C644 C641 1.499 . S
C644 C645 1.373 . S
C644 C646 1.389 . S
C645 H624 0.950 . S
C645 C644 1.373 . S
C645 C661 1.377 1_565 S
C646 C644 1.389 . S
C646 C647 1.524 . S
C646 C660 1.377 1_565 S
C647 C646 1.524 . S
C647 C648 1.397 . S
C647 C652 1.363 . S
C648 H625 0.950 . S
C648 C647 1.397 . S
C648 C649 1.334 . S
C649 H626 0.950 . S
C649 C648 1.334 . S
C649 C650 1.287 . S
C650 C649 1.287 . S
C650 C651 1.524 . S
C650 H669 0.913 . S
C651 H627 0.950 . S
C651 C650 1.524 . S
C651 C652 1.415 . S
C652 H628 0.950 . S
C652 C647 1.363 . S
C652 C651 1.415 . S
C653 H629 0.951 . S
C653 C654 1.366 . S
C653 C655 1.388 . S
C654 C653 1.366 . S
C654 C658 1.385 . S
C655 H630 0.951 . S
C655 C653 1.388 . S
C655 C656 1.366 . S
C656 C655 1.366 . S
C656 C657 1.414 . S
C656 C659 1.499 . S
C657 H631 0.950 . S
C657 C656 1.414 . S
C657 C658 1.374 . S
C658 H632 0.950 . S
C658 C654 1.385 . S
C658 C657 1.374 . S
C659 C656 1.499 . S
C659 C660 1.373 . S
C659 C661 1.389 . S
C660 H633 0.950 . S
C660 C646 1.377 1_545 S
C660 C659 1.373 . S
C661 C645 1.377 1_545 S
C661 C659 1.389 . S
C661 C662 1.524 . S
C662 C661 1.524 . S
C662 C663 1.397 . S
C662 C667 1.363 . S
C663 H634 0.950 . S
C663 C662 1.397 . S
C663 C664 1.334 . S
C664 H635 0.950 . S
C664 C663 1.334 . S
C664 C665 1.287 . S
C665 C664 1.287 . S
C665 C666 1.524 . S
C665 H668 0.999 . S
C666 H636 0.950 . S
C666 C665 1.524 . S
C666 C667 1.415 . S
C667 H637 0.950 . S
C667 C662 1.363 . S
C667 C666 1.415 . S
H668 C665 0.999 . S
H669 C650 0.913 . S
H670 C688 0.951 . S
H671 C690 0.951 . S
H672 C692 0.950 . S
H673 C693 0.950 . S
H674 C695 0.950 . S
H675 C698 0.950 . S
H676 C699 0.950 . S
H677 C701 0.950 . S
H678 C702 0.950 . S
H679 C703 0.951 . S
H680 C705 0.951 . S
H681 C707 0.950 . S
H682 C708 0.950 . S
H683 C710 0.950 . S
H684 C713 0.950 . S
H685 C714 0.950 . S
H686 C716 0.950 . S
H687 C717 0.950 . S
C688 H670 0.951 . S
C688 C689 1.366 . S
C688 C690 1.388 . S
C689 C688 1.366 . S
C689 C693 1.385 . S
C690 H671 0.951 . S
C690 C688 1.388 . S
C690 C691 1.366 . S
C691 C690 1.366 . S
C691 C692 1.414 . S
C691 C694 1.499 . S
C692 H672 0.950 . S
C692 C691 1.414 . S
C692 C693 1.374 . S
C693 H673 0.950 . S
C693 C689 1.385 . S
C693 C692 1.374 . S
C694 C691 1.499 . S
C694 C695 1.373 . S
C694 C696 1.389 . S
C695 H674 0.950 . S
C695 C694 1.373 . S
C695 C711 1.377 . S
C696 C694 1.389 . S
C696 C697 1.524 . S
C696 C710 1.377 . S
C697 C696 1.524 . S
C697 C698 1.397 . S
C697 C702 1.363 . S
C698 H675 0.950 . S
C698 C697 1.397 . S
C698 C699 1.334 . S
C699 H676 0.950 . S
C699 C698 1.334 . S
C699 C700 1.287 . S
C700 C699 1.287 . S
C700 C701 1.524 . S
C700 H719 0.913 . S
C701 H677 0.950 . S
C701 C700 1.524 . S
C701 C702 1.415 . S
C702 H678 0.950 . S
C702 C697 1.363 . S
C702 C701 1.415 . S
C703 H679 0.951 . S
C703 C704 1.366 . S
C703 C705 1.388 . S
C704 C703 1.366 . S
C704 C708 1.385 . S
C705 H680 0.951 . S
C705 C703 1.388 . S
C705 C706 1.366 . S
C706 C705 1.366 . S
C706 C707 1.414 . S
C706 C709 1.499 . S
C707 H681 0.950 . S
C707 C706 1.414 . S
C707 C708 1.374 . S
C708 H682 0.950 . S
C708 C704 1.385 . S
C708 C707 1.374 . S
C709 C706 1.499 . S
C709 C710 1.373 . S
C709 C711 1.389 . S
C710 H683 0.950 . S
C710 C696 1.377 . S
C710 C709 1.373 . S
C711 C695 1.377 . S
C711 C709 1.389 . S
C711 C712 1.524 . S
C712 C711 1.524 . S
C712 C713 1.397 . S
C712 C717 1.363 . S
C713 H684 0.950 . S
C713 C712 1.397 . S
C713 C714 1.334 . S
C714 H685 0.950 . S
C714 C713 1.334 . S
C714 C715 1.287 . S
C715 C714 1.287 . S
C715 C716 1.524 . S
C715 H718 0.999 . S
C716 H686 0.950 . S
C716 C715 1.524 . S
C716 C717 1.415 . S
C717 H687 0.950 . S
C717 C712 1.363 . S
C717 C716 1.415 . S
H718 C715 0.999 . S
H719 C700 0.913 . S
H720 C738 0.951 . S
H721 C740 0.951 . S
H722 C742 0.950 . S
H723 C743 0.950 . S
H724 C745 0.950 . S
H725 C748 0.950 . S
H726 C749 0.950 . S
H727 C751 0.950 . S
H728 C752 0.950 . S
H729 C753 0.951 . S
H730 C755 0.951 . S
H731 C757 0.950 . S
H732 C758 0.950 . S
H733 C760 0.950 . S
H734 C763 0.950 . S
H735 C764 0.950 . S
H736 C766 0.950 . S
H737 C767 0.950 . S
C738 H720 0.951 . S
C738 C739 1.366 1_556 S
C738 C740 1.388 . S
C739 C738 1.366 1_554 S
C739 C743 1.385 . S
C740 H721 0.951 . S
C740 C738 1.388 . S
C740 C741 1.366 1_556 S
C741 C740 1.366 1_554 S
C741 C742 1.414 . S
C741 C744 1.499 . S
C742 H722 0.950 . S
C742 C741 1.414 . S
C742 C743 1.374 . S
C743 H723 0.950 . S
C743 C739 1.385 . S
C743 C742 1.374 . S
C744 C741 1.499 . S
C744 C745 1.373 . S
C744 C746 1.389 1_554 S
C745 H724 0.950 . S
C745 C744 1.373 . S
C745 C761 1.377 . S
C746 C744 1.389 1_556 S
C746 C747 1.524 . S
C746 C760 1.377 . S
C747 C746 1.524 . S
C747 C748 1.397 . S
C747 C752 1.363 . S
C748 H725 0.950 . S
C748 C747 1.397 . S
C748 C749 1.334 . S
C749 H726 0.950 . S
C749 C748 1.334 . S
C749 C750 1.287 . S
C750 C749 1.287 . S
C750 C751 1.524 . S
C750 H769 0.913 . S
C751 H727 0.950 . S
C751 C750 1.524 . S
C751 C752 1.415 . S
C752 H728 0.950 . S
C752 C747 1.363 . S
C752 C751 1.415 . S
C753 H729 0.951 . S
C753 C754 1.366 1_554 S
C753 C755 1.388 . S
C754 C753 1.366 1_556 S
C754 C758 1.385 . S
C755 H730 0.951 . S
C755 C753 1.388 . S
C755 C756 1.366 1_554 S
C756 C755 1.366 1_556 S
C756 C757 1.414 . S
C756 C759 1.499 . S
C757 H731 0.950 . S
C757 C756 1.414 . S
C757 C758 1.374 . S
C758 H732 0.950 . S
C758 C754 1.385 . S
C758 C757 1.374 . S
C759 C756 1.499 . S
C759 C760 1.373 . S
C759 C761 1.389 1_556 S
C760 H733 0.950 . S
C760 C746 1.377 . S
C760 C759 1.373 . S
C761 C745 1.377 . S
C761 C759 1.389 1_554 S
C761 C762 1.524 . S
C762 C761 1.524 . S
C762 C763 1.397 . S
C762 C767 1.363 . S
C763 H734 0.950 . S
C763 C762 1.397 . S
C763 C764 1.334 . S
C764 H735 0.950 . S
C764 C763 1.334 . S
C764 C765 1.287 . S
C765 C764 1.287 . S
C765 C766 1.524 . S
C765 H768 0.999 . S
C766 H736 0.950 . S
C766 C765 1.524 . S
C766 C767 1.415 . S
C767 H737 0.950 . S
C767 C762 1.363 . S
C767 C766 1.415 . S
H768 C765 0.999 . S
H769 C750 0.913 . S
H770 C788 0.951 . S
H771 C790 0.951 . S
H772 C792 0.950 . S
H773 C793 0.950 . S
H774 C795 0.950 . S
H775 C798 0.950 . S
H776 C799 0.942 1_554 S
H777 C801 0.950 . S
H778 C802 0.950 . S
H779 C803 0.951 . S
H780 C805 0.951 . S
H781 C807 0.950 . S
H782 C808 0.950 . S
H783 C810 0.950 . S
H784 C813 0.950 . S
H785 C814 0.940 1_556 S
H786 C816 0.950 . S
H787 C817 0.950 . S
C788 H770 0.951 . S
C788 C789 1.366 1_556 S
C788 C790 1.388 . S
C789 C788 1.366 1_554 S
C789 C793 1.385 . S
C790 H771 0.951 . S
C790 C788 1.388 . S
C790 C791 1.366 1_556 S
C791 C790 1.366 1_554 S
C791 C792 1.414 . S
C791 C794 1.499 . S
C792 H772 0.950 . S
C792 C791 1.414 . S
C792 C793 1.374 . S
C793 H773 0.950 . S
C793 C789 1.385 . S
C793 C792 1.374 . S
C794 C791 1.499 . S
C794 C795 1.373 . S
C794 C796 1.389 1_554 S
C795 H774 0.950 . S
C795 C794 1.373 . S
C795 C811 1.377 1_565 S
C796 C794 1.389 1_556 S
C796 C797 1.524 . S
C796 C810 1.377 1_565 S
C797 C796 1.524 . S
C797 C798 1.397 1_556 S
C797 C802 1.363 . S
C798 H775 0.950 . S
C798 C797 1.397 1_554 S
C798 C799 1.332 1_554 S
C799 H776 0.942 1_556 S
C799 C798 1.332 1_556 S
C799 C800 1.297 . S
C800 C799 1.297 . S
C800 C801 1.524 . S
C800 H819 0.913 . S
C801 H777 0.950 . S
C801 C800 1.524 . S
C801 C802 1.415 . S
C802 H778 0.950 . S
C802 C797 1.363 . S
C802 C801 1.415 . S
C803 H779 0.951 . S
C803 C804 1.366 1_554 S
C803 C805 1.388 . S
C804 C803 1.366 1_556 S
C804 C808 1.385 . S
C805 H780 0.951 . S
C805 C803 1.388 . S
C805 C806 1.366 1_554 S
C806 C805 1.366 1_556 S
C806 C807 1.414 . S
C806 C809 1.499 . S
C807 H781 0.950 . S
C807 C806 1.414 . S
C807 C808 1.374 . S
C808 H782 0.950 . S
C808 C804 1.385 . S
C808 C807 1.374 . S
C809 C806 1.499 . S
C809 C810 1.373 . S
C809 C811 1.389 1_556 S
C810 H783 0.950 . S
C810 C796 1.377 1_545 S
C810 C809 1.373 . S
C811 C795 1.377 1_545 S
C811 C809 1.389 1_554 S
C811 C812 1.524 . S
C812 C811 1.524 . S
C812 C813 1.397 1_554 S
C812 C817 1.363 . S
C813 H784 0.950 . S
C813 C812 1.397 1_556 S
C813 C814 1.332 1_556 S
C814 H785 0.940 1_554 S
C814 C813 1.332 1_554 S
C814 C815 1.300 . S
C815 C814 1.300 . S
C815 C816 1.524 . S
C815 H818 0.999 . S
C816 H786 0.950 . S
C816 C815 1.524 . S
C816 C817 1.415 . S
C817 H787 0.950 . S
C817 C812 1.363 . S
C817 C816 1.415 . S
H818 C815 0.999 . S
H819 C800 0.913 . S
H820 C838 0.951 . S
H821 C840 0.951 . S
H822 C842 0.950 . S
H823 C843 0.950 . S
H824 C845 0.950 . S
H825 C848 0.950 . S
H826 C849 0.950 1_554 S
H827 C851 0.950 . S
H828 C852 0.950 . S
H829 C853 0.951 . S
H830 C855 0.951 . S
H831 C857 0.950 . S
H832 C858 0.950 . S
H833 C860 0.950 . S
H834 C863 0.950 . S
H835 C864 0.950 1_556 S
H836 C866 0.950 . S
H837 C867 0.950 . S
C838 H820 0.951 . S
C838 C839 1.366 1_556 S
C838 C840 1.388 . S
C839 C838 1.366 1_554 S
C839 C843 1.385 . S
C840 H821 0.951 . S
C840 C838 1.388 . S
C840 C841 1.366 1_556 S
C841 C840 1.366 1_554 S
C841 C842 1.414 . S
C841 C844 1.499 . S
C842 H822 0.950 . S
C842 C841 1.414 . S
C842 C843 1.374 . S
C843 H823 0.950 . S
C843 C839 1.385 . S
C843 C842 1.374 . S
C844 C841 1.499 . S
C844 C845 1.373 . S
C844 C846 1.389 1_554 S
C845 H824 0.950 . S
C845 C844 1.373 . S
C845 C861 1.377 . S
C846 C844 1.389 1_556 S
C846 C847 1.524 . S
C846 C860 1.377 . S
C847 C846 1.524 . S
C847 C848 1.397 1_556 S
C847 C852 1.363 . S
C848 H825 0.950 . S
C848 C847 1.397 1_554 S
C848 C849 1.334 1_554 S
C849 H826 0.950 1_556 S
C849 C848 1.334 1_556 S
C849 C850 1.287 . S
C850 C849 1.287 . S
C850 C851 1.524 . S
C850 H869 0.913 . S
C851 H827 0.950 . S
C851 C850 1.524 . S
C851 C852 1.415 . S
C852 H828 0.950 . S
C852 C847 1.363 . S
C852 C851 1.415 . S
C853 H829 0.951 . S
C853 C854 1.366 1_554 S
C853 C855 1.388 . S
C854 C853 1.366 1_556 S
C854 C858 1.385 . S
C855 H830 0.951 . S
C855 C853 1.388 . S
C855 C856 1.366 1_554 S
C856 C855 1.366 1_556 S
C856 C857 1.414 . S
C856 C859 1.499 . S
C857 H831 0.950 . S
C857 C856 1.414 . S
C857 C858 1.374 . S
C858 H832 0.950 . S
C858 C854 1.385 . S
C858 C857 1.374 . S
C859 C856 1.499 . S
C859 C860 1.373 . S
C859 C861 1.389 1_556 S
C860 H833 0.950 . S
C860 C846 1.377 . S
C860 C859 1.373 . S
C861 C845 1.377 . S
C861 C859 1.389 1_554 S
C861 C862 1.524 . S
C862 C861 1.524 . S
C862 C863 1.397 1_554 S
C862 C867 1.363 . S
C863 H834 0.950 . S
C863 C862 1.397 1_556 S
C863 C864 1.334 1_556 S
C864 H835 0.950 1_554 S
C864 C863 1.334 1_554 S
C864 C865 1.287 . S
C865 C864 1.287 . S
C865 C866 1.524 . S
C865 H868 0.999 . S
C866 H836 0.950 . S
C866 C865 1.524 . S
C866 C867 1.415 . S
C867 H837 0.950 . S
C867 C862 1.363 . S
C867 C866 1.415 . S
H868 C865 0.999 . S
H869 C850 0.913 . S
H870 C888 0.951 . S
H871 C890 0.951 . S
H872 C892 0.950 . S
H873 C893 0.950 . S
H874 C895 0.950 . S
H875 C898 0.950 1_554 S
H876 C899 0.950 . S
H877 C901 0.950 . S
H878 C902 0.950 . S
H879 C903 0.951 . S
H880 C905 0.951 . S
H881 C907 0.950 . S
H882 C908 0.950 . S
H883 C910 0.950 . S
H884 C913 0.950 1_556 S
H885 C914 0.950 . S
H886 C916 0.950 . S
H887 C917 0.950 . S
C888 H870 0.951 . S
C888 C889 1.366 1_556 S
C888 C890 1.388 . S
C889 C888 1.366 1_554 S
C889 C893 1.385 . S
C890 H871 0.951 . S
C890 C888 1.388 . S
C890 C891 1.366 1_556 S
C891 C890 1.366 1_554 S
C891 C892 1.414 . S
C891 C894 1.499 . S
C892 H872 0.950 . S
C892 C891 1.414 . S
C892 C893 1.374 . S
C893 H873 0.950 . S
C893 C889 1.385 . S
C893 C892 1.374 . S
C894 C891 1.499 . S
C894 C895 1.373 . S
C894 C896 1.389 1_554 S
C895 H874 0.950 . S
C895 C894 1.373 . S
C895 C911 1.377 1_545 S
C896 C894 1.389 1_556 S
C896 C897 1.524 . S
C896 C910 1.377 1_545 S
C897 C896 1.524 . S
C897 C898 1.397 . S
C897 C902 1.363 . S
C898 H875 0.950 1_556 S
C898 C897 1.397 . S
C898 C899 1.334 . S
C899 H876 0.950 . S
C899 C898 1.334 . S
C899 C900 1.287 . S
C900 C899 1.287 . S
C900 C901 1.524 . S
C900 H919 0.913 . S
C901 H877 0.950 . S
C901 C900 1.524 . S
C901 C902 1.415 . S
C902 H878 0.950 . S
C902 C897 1.363 . S
C902 C901 1.415 . S
C903 H879 0.951 . S
C903 C904 1.366 1_554 S
C903 C905 1.388 . S
C904 C903 1.366 1_556 S
C904 C908 1.385 . S
C905 H880 0.951 . S
C905 C903 1.388 . S
C905 C906 1.366 1_554 S
C906 C905 1.366 1_556 S
C906 C907 1.414 . S
C906 C909 1.499 . S
C907 H881 0.950 . S
C907 C906 1.414 . S
C907 C908 1.374 . S
C908 H882 0.950 . S
C908 C904 1.385 . S
C908 C907 1.374 . S
C909 C906 1.499 . S
C909 C910 1.373 . S
C909 C911 1.389 1_556 S
C910 H883 0.950 . S
C910 C896 1.377 1_565 S
C910 C909 1.373 . S
C911 C895 1.377 1_565 S
C911 C909 1.389 1_554 S
C911 C912 1.524 . S
C912 C911 1.524 . S
C912 C913 1.397 . S
C912 C917 1.363 . S
C913 H884 0.950 1_554 S
C913 C912 1.397 . S
C913 C914 1.334 . S
C914 H885 0.950 . S
C914 C913 1.334 . S
C914 C915 1.287 . S
C915 C914 1.287 . S
C915 C916 1.524 . S
C915 H918 0.999 . S
C916 H886 0.950 . S
C916 C915 1.524 . S
C916 C917 1.415 . S
C917 H887 0.950 . S
C917 C912 1.363 . S
C917 C916 1.415 . S
H918 C915 0.999 . S
H919 C900 0.913 . S
H920 C938 0.951 . S
H921 C940 0.951 . S
H922 C942 0.950 . S
H923 C943 0.950 . S
H924 C945 0.950 . S
H925 C948 0.950 . S
H926 C949 0.950 . S
H927 C951 0.950 . S
H928 C952 0.950 . S
H929 C953 0.951 . S
H930 C955 0.951 . S
H931 C957 0.950 . S
H932 C958 0.950 . S
H933 C960 0.950 . S
H934 C963 0.950 . S
H935 C964 0.950 . S
H936 C966 0.950 . S
H937 C967 0.950 . S
C938 H920 0.951 . S
C938 C939 1.366 . S
C938 C940 1.388 . S
C939 C938 1.366 . S
C939 C943 1.385 . S
C940 H921 0.951 . S
C940 C938 1.388 . S
C940 C941 1.366 . S
C941 C940 1.366 . S
C941 C942 1.414 . S
C941 C944 1.499 . S
C942 H922 0.950 . S
C942 C941 1.414 . S
C942 C943 1.374 . S
C943 H923 0.950 . S
C943 C939 1.385 . S
C943 C942 1.374 . S
C944 C941 1.499 . S
C944 C945 1.373 . S
C944 C946 1.389 1_554 S
C945 H924 0.950 . S
C945 C944 1.373 . S
C945 C961 1.377 1_554 S
C946 C944 1.389 1_556 S
C946 C947 1.524 1_556 S
C946 C960 1.377 . S
C947 C946 1.524 1_554 S
C947 C948 1.397 . S
C947 C952 1.363 1_554 S
C948 H925 0.950 . S
C948 C947 1.397 . S
C948 C949 1.334 . S
C949 H926 0.950 . S
C949 C948 1.334 . S
C949 C950 1.287 . S
C950 C949 1.287 . S
C950 C951 1.524 . S
C950 H969 0.913 . S
C951 H927 0.950 . S
C951 C950 1.524 . S
C951 C952 1.415 1_554 S
C952 H928 0.950 . S
C952 C947 1.363 1_556 S
C952 C951 1.415 1_556 S
C953 H929 0.951 . S
C953 C954 1.366 . S
C953 C955 1.388 . S
C954 C953 1.366 . S
C954 C958 1.385 . S
C955 H930 0.951 . S
C955 C953 1.388 . S
C955 C956 1.366 . S
C956 C955 1.366 . S
C956 C957 1.414 . S
C956 C959 1.499 . S
C957 H931 0.950 . S
C957 C956 1.414 . S
C957 C958 1.374 . S
C958 H932 0.950 . S
C958 C954 1.385 . S
C958 C957 1.374 . S
C959 C956 1.499 . S
C959 C960 1.373 . S
C959 C961 1.389 . S
C960 H933 0.950 . S
C960 C946 1.377 . S
C960 C959 1.373 . S
C961 C945 1.377 1_556 S
C961 C959 1.389 . S
C961 C962 1.524 . S
C962 C961 1.524 . S
C962 C963 1.397 . S
C962 C967 1.363 . S
C963 H934 0.950 . S
C963 C962 1.397 . S
C963 C964 1.334 . S
C964 H935 0.950 . S
C964 C963 1.334 . S
C964 C965 1.287 . S
C965 C964 1.287 . S
C965 C966 1.524 . S
C965 H968 0.999 . S
C966 H936 0.950 . S
C966 C965 1.524 . S
C966 C967 1.415 . S
C967 H937 0.950 . S
C967 C962 1.363 . S
C967 C966 1.415 . S
H968 C965 0.999 . S
H969 C950 0.913 . S
H970 C988 0.951 . S
H971 C990 0.951 . S
H972 C992 0.950 . S
H973 C993 0.950 . S
H974 C995 0.950 1_554 S
H975 C998 0.950 . S
H976 C999 0.950 . S
H977 C1001 0.950 . S
H978 C1002 0.950 1_556 S
H979 C1003 0.951 . S
H980 C1005 0.951 . S
H981 C1007 0.950 . S
H982 C1008 0.950 . S
H983 C1010 0.950 . S
H984 C1013 0.950 . S
H985 C1014 0.950 . S
H986 C1016 0.950 . S
H987 C1017 0.950 . S
C988 H970 0.951 . S
C988 C989 1.366 . S
C988 C990 1.388 . S
C989 C988 1.366 . S
C989 C993 1.385 . S
C990 H971 0.951 . S
C990 C988 1.388 . S
C990 C991 1.366 . S
C991 C990 1.366 . S
C991 C992 1.414 . S
C991 C994 1.499 . S
C992 H972 0.950 . S
C992 C991 1.414 . S
C992 C993 1.374 . S
C993 H973 0.950 . S
C993 C989 1.385 . S
C993 C992 1.374 . S
C994 C991 1.499 . S
C994 C995 1.373 1_554 S
C994 C996 1.385 1_554 S
C995 H974 0.950 1_556 S
C995 C994 1.373 1_556 S
C995 C1011 1.377 . S
C996 C994 1.385 1_556 S
C996 C997 1.520 1_556 S
C996 C1010 1.386 . S
C997 C996 1.520 1_554 S
C997 C998 1.397 . S
C997 C1002 1.363 . S
C998 H975 0.950 . S
C998 C997 1.397 . S
C998 C999 1.334 . S
C999 H976 0.950 . S
C999 C998 1.334 . S
C999 C1000 1.287 . S
C1000 C999 1.287 . S
C1000 C1001 1.524 . S
C1000 H1019 0.913 . S
C1001 H977 0.950 . S
C1001 C1000 1.524 . S
C1001 C1002 1.415 . S
C1002 H978 0.950 1_554 S
C1002 C997 1.363 . S
C1002 C1001 1.415 . S
C1003 H979 0.951 . S
C1003 C1004 1.366 . S
C1003 C1005 1.388 . S
C1004 C1003 1.366 . S
C1004 C1008 1.385 . S
C1005 H980 0.951 . S
C1005 C1003 1.388 . S
C1005 C1006 1.366 . S
C1006 C1005 1.366 . S
C1006 C1007 1.414 . S
C1006 C1009 1.499 . S
C1007 H981 0.950 . S
C1007 C1006 1.414 . S
C1007 C1008 1.374 . S
C1008 H982 0.950 . S
C1008 C1004 1.385 . S
C1008 C1007 1.374 . S
C1009 C1006 1.499 . S
C1009 C1010 1.373 . S
C1009 C1011 1.389 . S
C1010 H983 0.950 . S
C1010 C996 1.386 . S
C1010 C1009 1.373 . S
C1011 C995 1.377 . S
C1011 C1009 1.389 . S
C1011 C1012 1.524 . S
C1012 C1011 1.524 . S
C1012 C1013 1.397 . S
C1012 C1017 1.363 . S
C1013 H984 0.950 . S
C1013 C1012 1.397 . S
C1013 C1014 1.334 . S
C1014 H985 0.950 . S
C1014 C1013 1.334 . S
C1014 C1015 1.287 . S
C1015 C1014 1.287 . S
C1015 C1016 1.524 . S
C1015 H1018 0.999 . S
C1016 H986 0.950 . S
C1016 C1015 1.524 . S
C1016 C1017 1.415 . S
C1017 H987 0.950 . S
C1017 C1012 1.363 . S
C1017 C1016 1.415 . S
H1018 C1015 0.999 . S
H1019 C1000 0.913 . S
H1020 C1038 0.951 . S
H1021 C1040 0.951 . S
H1022 C1042 0.950 . S
H1023 C1043 0.950 . S
H1024 C1045 0.950 . S
H1025 C1048 0.950 . S
H1026 C1049 0.950 . S
H1027 C1051 0.950 . S
H1028 C1052 0.950 . S
H1029 C1053 0.951 . S
H1030 C1055 0.951 . S
H1031 C1057 0.950 . S
H1032 C1058 0.950 . S
H1033 C1060 0.955 . S
H1034 C1063 0.950 . S
H1035 C1064 0.950 . S
H1036 C1066 0.950 . S
H1037 C1067 0.950 1_554 S
C1038 H1020 0.951 . S
C1038 C1039 1.366 . S
C1038 C1040 1.388 . S
C1039 C1038 1.366 . S
C1039 C1043 1.385 . S
C1040 H1021 0.951 . S
C1040 C1038 1.388 . S
C1040 C1041 1.366 . S
C1041 C1040 1.366 . S
C1041 C1042 1.414 . S
C1041 C1044 1.499 . S
C1042 H1022 0.950 . S
C1042 C1041 1.414 . S
C1042 C1043 1.374 . S
C1043 H1023 0.950 . S
C1043 C1039 1.385 . S
C1043 C1042 1.374 . S
C1044 C1041 1.499 . S
C1044 C1045 1.373 . S
C1044 C1046 1.389 . S
C1045 H1024 0.950 . S
C1045 C1044 1.373 . S
C1045 C1061 1.377 . S
C1046 C1044 1.389 . S
C1046 C1047 1.524 . S
C1046 C1060 1.367 1_554 S
C1047 C1046 1.524 . S
C1047 C1048 1.397 . S
C1047 C1052 1.363 . S
C1048 H1025 0.950 . S
C1048 C1047 1.397 . S
C1048 C1049 1.334 . S
C1049 H1026 0.950 . S
C1049 C1048 1.334 . S
C1049 C1050 1.287 . S
C1050 C1049 1.287 . S
C1050 C1051 1.524 . S
C1050 H1069 0.913 . S
C1051 H1027 0.950 . S
C1051 C1050 1.524 . S
C1051 C1052 1.415 . S
C1052 H1028 0.950 . S
C1052 C1047 1.363 . S
C1052 C1051 1.415 . S
C1053 H1029 0.951 . S
C1053 C1054 1.366 . S
C1053 C1055 1.388 . S
C1054 C1053 1.366 . S
C1054 C1058 1.385 . S
C1055 H1030 0.951 . S
C1055 C1053 1.388 . S
C1055 C1056 1.366 . S
C1056 C1055 1.366 . S
C1056 C1057 1.414 . S
C1056 C1059 1.499 . S
C1057 H1031 0.950 . S
C1057 C1056 1.414 . S
C1057 C1058 1.374 . S
C1058 H1032 0.950 . S
C1058 C1054 1.385 . S
C1058 C1057 1.374 . S
C1059 C1056 1.499 . S
C1059 C1060 1.378 . S
C1059 C1061 1.389 1_556 S
C1060 H1033 0.955 . S
C1060 C1046 1.367 1_556 S
C1060 C1059 1.378 . S
C1061 C1045 1.377 . S
C1061 C1059 1.389 1_554 S
C1061 C1062 1.524 1_554 S
C1062 C1061 1.524 1_556 S
C1062 C1063 1.397 . S
C1062 C1067 1.363 . S
C1063 H1034 0.950 . S
C1063 C1062 1.397 . S
C1063 C1064 1.334 . S
C1064 H1035 0.950 . S
C1064 C1063 1.334 . S
C1064 C1065 1.287 . S
C1065 C1064 1.287 . S
C1065 C1066 1.524 . S
C1065 H1068 0.999 . S
C1066 H1036 0.950 . S
C1066 C1065 1.524 . S
C1066 C1067 1.415 . S
C1067 H1037 0.950 1_556 S
C1067 C1062 1.363 . S
C1067 C1066 1.415 . S
H1068 C1065 0.999 . S
H1069 C1050 0.913 . S
H1070 C1088 0.951 . S
H1071 C1090 0.951 . S
H1072 C1092 0.950 . S
H1073 C1093 0.950 . S
H1074 C1095 0.950 1_556 S
H1075 C1098 0.950 . S
H1076 C1099 0.950 . S
H1077 C1101 0.950 . S
H1078 C1102 0.950 1_554 S
H1079 C1103 0.951 . S
H1080 C1105 0.951 . S
H1081 C1107 0.950 . S
H1082 C1108 0.950 . S
H1083 C1110 0.950 . S
H1084 C1113 0.950 . S
H1085 C1114 0.950 . S
H1086 C1116 0.950 . S
H1087 C1117 0.950 . S
C1088 H1070 0.951 . S
C1088 C1089 1.366 . S
C1088 C1090 1.388 . S
C1089 C1088 1.366 . S
C1089 C1093 1.385 . S
C1090 H1071 0.951 . S
C1090 C1088 1.388 . S
C1090 C1091 1.366 . S
C1091 C1090 1.366 . S
C1091 C1092 1.414 . S
C1091 C1094 1.499 . S
C1092 H1072 0.950 . S
C1092 C1091 1.414 . S
C1092 C1093 1.374 . S
C1093 H1073 0.950 . S
C1093 C1089 1.385 . S
C1093 C1092 1.374 . S
C1094 C1091 1.499 . S
C1094 C1095 1.373 1_556 S
C1094 C1096 1.389 1_556 S
C1095 H1074 0.950 1_554 S
C1095 C1094 1.373 1_554 S
C1095 C1111 1.377 . S
C1096 C1094 1.389 1_554 S
C1096 C1097 1.524 1_554 S
C1096 C1110 1.377 . S
C1097 C1096 1.524 1_556 S
C1097 C1098 1.397 . S
C1097 C1102 1.363 . S
C1098 H1075 0.950 . S
C1098 C1097 1.397 . S
C1098 C1099 1.334 . S
C1099 H1076 0.950 . S
C1099 C1098 1.334 . S
C1099 C1100 1.287 . S
C1100 C1099 1.287 . S
C1100 C1101 1.524 . S
C1100 H1119 0.913 . S
C1101 H1077 0.950 . S
C1101 C1100 1.524 . S
C1101 C1102 1.415 . S
C1102 H1078 0.950 1_556 S
C1102 C1097 1.363 . S
C1102 C1101 1.415 . S
C1103 H1079 0.951 . S
C1103 C1104 1.366 . S
C1103 C1105 1.388 . S
C1104 C1103 1.366 . S
C1104 C1108 1.385 . S
C1105 H1080 0.951 . S
C1105 C1103 1.388 . S
C1105 C1106 1.366 . S
C1106 C1105 1.366 . S
C1106 C1107 1.414 . S
C1106 C1109 1.499 . S
C1107 H1081 0.950 . S
C1107 C1106 1.414 . S
C1107 C1108 1.374 . S
C1108 H1082 0.950 . S
C1108 C1104 1.385 . S
C1108 C1107 1.374 . S
C1109 C1106 1.499 . S
C1109 C1110 1.373 . S
C1109 C1111 1.389 . S
C1110 H1083 0.950 . S
C1110 C1096 1.377 . S
C1110 C1109 1.373 . S
C1111 C1095 1.377 . S
C1111 C1109 1.389 . S
C1111 C1112 1.524 . S
C1112 C1111 1.524 . S
C1112 C1113 1.397 . S
C1112 C1117 1.363 . S
C1113 H1084 0.950 . S
C1113 C1112 1.397 . S
C1113 C1114 1.334 . S
C1114 H1085 0.950 . S
C1114 C1113 1.334 . S
C1114 C1115 1.287 . S
C1115 C1114 1.287 . S
C1115 C1116 1.524 . S
C1115 H1118 0.999 . S
C1116 H1086 0.950 . S
C1116 C1115 1.524 . S
C1116 C1117 1.415 . S
C1117 H1087 0.950 . S
C1117 C1112 1.363 . S
C1117 C1116 1.415 . S
H1118 C1115 0.999 . S
H1119 C1100 0.913 . S
H1120 C1138 0.951 . S
H1121 C1140 0.951 . S
H1122 C1142 0.950 . S
H1123 C1143 0.950 . S
H1124 C1145 0.950 . S
H1125 C1148 0.950 . S
H1126 C1149 0.950 . S
H1127 C1151 0.950 . S
H1128 C1152 0.950 . S
H1129 C1153 0.951 . S
H1130 C1155 0.951 . S
H1131 C1157 0.950 . S
H1132 C1158 0.950 . S
H1133 C1160 0.950 . S
H1134 C1163 0.950 . S
H1135 C1164 0.950 . S
H1136 C1166 0.950 . S
H1137 C1167 0.950 . S
C1138 H1120 0.951 . S
C1138 C1139 1.366 . S
C1138 C1140 1.388 . S
C1139 C1138 1.366 . S
C1139 C1143 1.385 . S
C1140 H1121 0.951 . S
C1140 C1138 1.388 . S
C1140 C1141 1.366 . S
C1141 C1140 1.366 . S
C1141 C1142 1.414 . S
C1141 C1144 1.499 . S
C1142 H1122 0.950 . S
C1142 C1141 1.414 . S
C1142 C1143 1.374 . S
C1143 H1123 0.950 . S
C1143 C1139 1.385 . S
C1143 C1142 1.374 . S
C1144 C1141 1.499 . S
C1144 C1145 1.373 . S
C1144 C1146 1.389 . S
C1145 H1124 0.950 . S
C1145 C1144 1.373 . S
C1145 C1161 1.377 . S
C1146 C1144 1.389 . S
C1146 C1147 1.524 . S
C1146 C1160 1.377 . S
C1147 C1146 1.524 . S
C1147 C1148 1.397 . S
C1147 C1152 1.363 . S
C1148 H1125 0.950 . S
C1148 C1147 1.397 . S
C1148 C1149 1.334 . S
C1149 H1126 0.950 . S
C1149 C1148 1.334 . S
C1149 C1150 1.287 . S
C1150 C1149 1.287 . S
C1150 C1151 1.524 . S
C1150 H1169 0.913 . S
C1151 H1127 0.950 . S
C1151 C1150 1.524 . S
C1151 C1152 1.415 . S
C1152 H1128 0.950 . S
C1152 C1147 1.363 . S
C1152 C1151 1.415 . S
C1153 H1129 0.951 . S
C1153 C1154 1.366 . S
C1153 C1155 1.388 . S
C1154 C1153 1.366 . S
C1154 C1158 1.385 . S
C1155 H1130 0.951 . S
C1155 C1153 1.388 . S
C1155 C1156 1.366 . S
C1156 C1155 1.366 . S
C1156 C1157 1.414 . S
C1156 C1159 1.499 . S
C1157 H1131 0.950 . S
C1157 C1156 1.414 . S
C1157 C1158 1.374 . S
C1158 H1132 0.950 . S
C1158 C1154 1.385 . S
C1158 C1157 1.374 . S
C1159 C1156 1.499 . S
C1159 C1160 1.373 . S
C1159 C1161 1.389 . S
C1160 H1133 0.950 . S
C1160 C1146 1.377 . S
C1160 C1159 1.373 . S
C1161 C1145 1.377 . S
C1161 C1159 1.389 . S
C1161 C1162 1.524 . S
C1162 C1161 1.524 . S
C1162 C1163 1.397 . S
C1162 C1167 1.363 . S
C1163 H1134 0.950 . S
C1163 C1162 1.397 . S
C1163 C1164 1.334 . S
C1164 H1135 0.950 . S
C1164 C1163 1.334 . S
C1164 C1165 1.287 . S
C1165 C1164 1.287 . S
C1165 C1166 1.524 . S
C1165 H1168 0.999 . S
C1166 H1136 0.950 . S
C1166 C1165 1.524 . S
C1166 C1167 1.415 . S
C1167 H1137 0.950 . S
C1167 C1162 1.363 . S
C1167 C1166 1.415 . S
H1168 C1165 0.999 . S
H1169 C1150 0.913 . S
H1170 C1188 0.951 . S
H1171 C1190 0.951 . S
H1172 C1192 0.950 . S
H1173 C1193 0.950 . S
H1174 C1195 0.950 . S
H1175 C1198 0.950 . S
H1176 C1199 0.950 . S
H1177 C1201 0.950 . S
H1178 C1202 0.950 . S
H1179 C1203 0.951 . S
H1180 C1205 0.951 . S
H1181 C1207 0.950 . S
H1182 C1208 0.950 . S
H1183 C1210 0.950 . S
H1184 C1213 0.950 . S
H1185 C1214 0.950 . S
H1186 C1216 0.950 . S
H1187 C1217 0.950 . S
C1188 H1170 0.951 . S
C1188 C1189 1.366 . S
C1188 C1190 1.388 . S
C1189 C1188 1.366 . S
C1189 C1193 1.385 . S
C1190 H1171 0.951 . S
C1190 C1188 1.388 . S
C1190 C1191 1.366 . S
C1191 C1190 1.366 . S
C1191 C1192 1.414 . S
C1191 C1194 1.499 . S
C1192 H1172 0.950 . S
C1192 C1191 1.414 . S
C1192 C1193 1.374 . S
C1193 H1173 0.950 . S
C1193 C1189 1.385 . S
C1193 C1192 1.374 . S
C1194 C1191 1.499 . S
C1194 C1195 1.373 . S
C1194 C1196 1.389 . S
C1195 H1174 0.950 . S
C1195 C1194 1.373 . S
C1195 C1211 1.377 . S
C1196 C1194 1.389 . S
C1196 C1197 1.524 . S
C1196 C1210 1.377 . S
C1197 C1196 1.524 . S
C1197 C1198 1.397 . S
C1197 C1202 1.363 . S
C1198 H1175 0.950 . S
C1198 C1197 1.397 . S
C1198 C1199 1.334 . S
C1199 H1176 0.950 . S
C1199 C1198 1.334 . S
C1199 C1200 1.287 . S
C1200 C1199 1.287 . S
C1200 C1201 1.524 . S
C1200 H1219 0.913 . S
C1201 H1177 0.950 . S
C1201 C1200 1.524 . S
C1201 C1202 1.415 . S
C1202 H1178 0.950 . S
C1202 C1197 1.363 . S
C1202 C1201 1.415 . S
C1203 H1179 0.951 . S
C1203 C1204 1.366 . S
C1203 C1205 1.388 . S
C1204 C1203 1.366 . S
C1204 C1208 1.385 . S
C1205 H1180 0.951 . S
C1205 C1203 1.388 . S
C1205 C1206 1.366 . S
C1206 C1205 1.366 . S
C1206 C1207 1.414 . S
C1206 C1209 1.499 . S
C1207 H1181 0.950 . S
C1207 C1206 1.414 . S
C1207 C1208 1.374 . S
C1208 H1182 0.950 . S
C1208 C1204 1.385 . S
C1208 C1207 1.374 . S
C1209 C1206 1.499 . S
C1209 C1210 1.373 . S
C1209 C1211 1.389 . S
C1210 H1183 0.950 . S
C1210 C1196 1.377 . S
C1210 C1209 1.373 . S
C1211 C1195 1.377 . S
C1211 C1209 1.389 . S
C1211 C1212 1.524 . S
C1212 C1211 1.524 . S
C1212 C1213 1.397 . S
C1212 C1217 1.363 . S
C1213 H1184 0.950 . S
C1213 C1212 1.397 . S
C1213 C1214 1.334 . S
C1214 H1185 0.950 . S
C1214 C1213 1.334 . S
C1214 C1215 1.287 . S
C1215 C1214 1.287 . S
C1215 C1216 1.524 . S
C1215 H1218 0.999 . S
C1216 H1186 0.950 . S
C1216 C1215 1.524 . S
C1216 C1217 1.415 . S
C1217 H1187 0.950 . S
C1217 C1212 1.363 . S
C1217 C1216 1.415 . S
H1218 C1215 0.999 . S
H1219 C1200 0.913 . S
H1220 C1238 0.951 . S
H1221 C1240 0.951 . S
H1222 C1242 0.950 . S
H1223 C1243 0.950 . S
H1224 C1245 0.950 . S
H1225 C1248 0.950 . S
H1226 C1249 0.950 . S
H1227 C1251 0.950 . S
H1228 C1252 0.950 . S
H1229 C1253 0.951 . S
H1230 C1255 0.951 . S
H1231 C1257 0.950 . S
H1232 C1258 0.950 . S
H1233 C1260 0.950 . S
H1234 C1263 0.950 . S
H1235 C1264 0.950 . S
H1236 C1266 0.950 . S
H1237 C1267 0.950 . S
C1238 H1220 0.951 . S
C1238 C1239 1.366 . S
C1238 C1240 1.388 . S
C1239 C1238 1.366 . S
C1239 C1243 1.385 . S
C1240 H1221 0.951 . S
C1240 C1238 1.388 . S
C1240 C1241 1.366 . S
C1241 C1240 1.366 . S
C1241 C1242 1.414 . S
C1241 C1244 1.499 . S
C1242 H1222 0.950 . S
C1242 C1241 1.414 . S
C1242 C1243 1.374 . S
C1243 H1223 0.950 . S
C1243 C1239 1.385 . S
C1243 C1242 1.374 . S
C1244 C1241 1.499 . S
C1244 C1245 1.373 . S
C1244 C1246 1.389 . S
C1245 H1224 0.950 . S
C1245 C1244 1.373 . S
C1245 C1261 1.377 . S
C1246 C1244 1.389 . S
C1246 C1247 1.524 . S
C1246 C1260 1.377 . S
C1247 C1246 1.524 . S
C1247 C1248 1.397 . S
C1247 C1252 1.363 . S
C1248 H1225 0.950 . S
C1248 C1247 1.397 . S
C1248 C1249 1.334 . S
C1249 H1226 0.950 . S
C1249 C1248 1.334 . S
C1249 C1250 1.287 . S
C1250 C1249 1.287 . S
C1250 C1251 1.524 . S
C1250 H1269 0.913 . S
C1251 H1227 0.950 . S
C1251 C1250 1.524 . S
C1251 C1252 1.415 . S
C1252 H1228 0.950 . S
C1252 C1247 1.363 . S
C1252 C1251 1.415 . S
C1253 H1229 0.951 . S
C1253 C1254 1.366 . S
C1253 C1255 1.388 . S
C1254 C1253 1.366 . S
C1254 C1258 1.385 . S
C1255 H1230 0.951 . S
C1255 C1253 1.388 . S
C1255 C1256 1.366 . S
C1256 C1255 1.366 . S
C1256 C1257 1.414 . S
C1256 C1259 1.499 . S
C1257 H1231 0.950 . S
C1257 C1256 1.414 . S
C1257 C1258 1.374 . S
C1258 H1232 0.950 . S
C1258 C1254 1.385 . S
C1258 C1257 1.374 . S
C1259 C1256 1.499 . S
C1259 C1260 1.373 . S
C1259 C1261 1.389 . S
C1260 H1233 0.950 . S
C1260 C1246 1.377 . S
C1260 C1259 1.373 . S
C1261 C1245 1.377 . S
C1261 C1259 1.389 . S
C1261 C1262 1.524 . S
C1262 C1261 1.524 . S
C1262 C1263 1.397 . S
C1262 C1267 1.363 . S
C1263 H1234 0.950 . S
C1263 C1262 1.397 . S
C1263 C1264 1.334 . S
C1264 H1235 0.950 . S
C1264 C1263 1.334 . S
C1264 C1265 1.287 . S
C1265 C1264 1.287 . S
C1265 C1266 1.524 . S
C1265 H1268 0.999 . S
C1266 H1236 0.950 . S
C1266 C1265 1.524 . S
C1266 C1267 1.415 . S
C1267 H1237 0.950 . S
C1267 C1262 1.363 . S
C1267 C1266 1.415 . S
H1268 C1265 0.999 . S
H1269 C1250 0.913 . S
H1270 C1288 0.951 . S
H1271 C1290 0.951 . S
H1272 C1292 0.950 . S
H1273 C1293 0.950 . S
H1274 C1295 0.950 . S
H1275 C1298 0.950 . S
H1276 C1299 0.950 . S
H1277 C1301 0.950 . S
H1278 C1302 0.950 . S
H1279 C1303 0.951 . S
H1280 C1305 0.951 . S
H1281 C1307 0.950 . S
H1282 C1308 0.950 . S
H1283 C1310 0.950 . S
H1284 C1313 0.950 . S
H1285 C1314 0.950 . S
H1286 C1316 0.950 . S
H1287 C1317 0.950 . S
C1288 H1270 0.951 . S
C1288 C1289 1.366 . S
C1288 C1290 1.388 . S
C1289 C1288 1.366 . S
C1289 C1293 1.385 . S
C1290 H1271 0.951 . S
C1290 C1288 1.388 . S
C1290 C1291 1.366 . S
C1291 C1290 1.366 . S
C1291 C1292 1.414 . S
C1291 C1294 1.499 . S
C1292 H1272 0.950 . S
C1292 C1291 1.414 . S
C1292 C1293 1.374 . S
C1293 H1273 0.950 . S
C1293 C1289 1.385 . S
C1293 C1292 1.374 . S
C1294 C1291 1.499 . S
C1294 C1295 1.373 . S
C1294 C1296 1.389 . S
C1295 H1274 0.950 . S
C1295 C1294 1.373 . S
C1295 C1311 1.377 . S
C1296 C1294 1.389 . S
C1296 C1297 1.524 . S
C1296 C1310 1.377 . S
C1297 C1296 1.524 . S
C1297 C1298 1.397 . S
C1297 C1302 1.363 . S
C1298 H1275 0.950 . S
C1298 C1297 1.397 . S
C1298 C1299 1.334 . S
C1299 H1276 0.950 . S
C1299 C1298 1.334 . S
C1299 C1300 1.287 . S
C1300 C1299 1.287 . S
C1300 C1301 1.524 . S
C1300 H1319 0.913 . S
C1301 H1277 0.950 . S
C1301 C1300 1.524 . S
C1301 C1302 1.415 . S
C1302 H1278 0.950 . S
C1302 C1297 1.363 . S
C1302 C1301 1.415 . S
C1303 H1279 0.951 . S
C1303 C1304 1.366 . S
C1303 C1305 1.388 . S
C1304 C1303 1.366 . S
C1304 C1308 1.385 . S
C1305 H1280 0.951 . S
C1305 C1303 1.388 . S
C1305 C1306 1.366 . S
C1306 C1305 1.366 . S
C1306 C1307 1.414 . S
C1306 C1309 1.499 . S
C1307 H1281 0.950 . S
C1307 C1306 1.414 . S
C1307 C1308 1.374 . S
C1308 H1282 0.950 . S
C1308 C1304 1.385 . S
C1308 C1307 1.374 . S
C1309 C1306 1.499 . S
C1309 C1310 1.373 . S
C1309 C1311 1.389 . S
C1310 H1283 0.950 . S
C1310 C1296 1.377 . S
C1310 C1309 1.373 . S
C1311 C1295 1.377 . S
C1311 C1309 1.389 . S
C1311 C1312 1.524 . S
C1312 C1311 1.524 . S
C1312 C1313 1.397 . S
C1312 C1317 1.363 . S
C1313 H1284 0.950 . S
C1313 C1312 1.397 . S
C1313 C1314 1.334 . S
C1314 H1285 0.950 . S
C1314 C1313 1.334 . S
C1314 C1315 1.287 . S
C1315 C1314 1.287 . S
C1315 C1316 1.524 . S
C1315 H1318 0.999 . S
C1316 H1286 0.950 . S
C1316 C1315 1.524 . S
C1316 C1317 1.415 . S
C1317 H1287 0.950 . S
C1317 C1312 1.363 . S
C1317 C1316 1.415 . S
H1318 C1315 0.999 . S
H1319 C1300 0.913 . S
H1320 C1338 0.951 . S
H1321 C1340 0.951 . S
H1322 C1342 0.950 . S
H1323 C1343 0.950 . S
H1324 C1345 0.950 . S
H1325 C1348 0.950 . S
H1326 C1349 0.950 . S
H1327 C1351 0.950 . S
H1328 C1352 0.950 . S
H1329 C1353 0.951 . S
H1330 C1355 0.951 . S
H1331 C1357 0.950 . S
H1332 C1358 0.950 . S
H1333 C1360 0.950 . S
H1334 C1363 0.950 . S
H1335 C1364 0.950 . S
H1336 C1366 0.950 . S
H1337 C1367 0.950 . S
C1338 H1320 0.951 . S
C1338 C1339 1.366 . S
C1338 C1340 1.388 . S
C1339 C1338 1.366 . S
C1339 C1343 1.385 . S
C1340 H1321 0.951 . S
C1340 C1338 1.388 . S
C1340 C1341 1.366 . S
C1341 C1340 1.366 . S
C1341 C1342 1.414 . S
C1341 C1344 1.499 . S
C1342 H1322 0.950 . S
C1342 C1341 1.414 . S
C1342 C1343 1.374 . S
C1343 H1323 0.950 . S
C1343 C1339 1.385 . S
C1343 C1342 1.374 . S
C1344 C1341 1.499 . S
C1344 C1345 1.373 . S
C1344 C1346 1.389 . S
C1345 H1324 0.950 . S
C1345 C1344 1.373 . S
C1345 C1361 1.377 1_455 S
C1346 C1344 1.389 . S
C1346 C1347 1.524 . S
C1346 C1360 1.377 1_455 S
C1347 C1346 1.524 . S
C1347 C1348 1.397 . S
C1347 C1352 1.363 . S
C1348 H1325 0.950 . S
C1348 C1347 1.397 . S
C1348 C1349 1.334 . S
C1349 H1326 0.950 . S
C1349 C1348 1.334 . S
C1349 C1350 1.287 . S
C1350 C1349 1.287 . S
C1350 C1351 1.524 . S
C1350 H1369 0.913 . S
C1351 H1327 0.950 . S
C1351 C1350 1.524 . S
C1351 C1352 1.415 . S
C1352 H1328 0.950 . S
C1352 C1347 1.363 . S
C1352 C1351 1.415 . S
C1353 H1329 0.951 . S
C1353 C1354 1.366 . S
C1353 C1355 1.388 . S
C1354 C1353 1.366 . S
C1354 C1358 1.385 . S
C1355 H1330 0.951 . S
C1355 C1353 1.388 . S
C1355 C1356 1.366 . S
C1356 C1355 1.366 . S
C1356 C1357 1.414 . S
C1356 C1359 1.499 . S
C1357 H1331 0.950 . S
C1357 C1356 1.414 . S
C1357 C1358 1.374 . S
C1358 H1332 0.950 . S
C1358 C1354 1.385 . S
C1358 C1357 1.374 . S
C1359 C1356 1.499 . S
C1359 C1360 1.373 . S
C1359 C1361 1.389 . S
C1360 H1333 0.950 . S
C1360 C1346 1.377 1_655 S
C1360 C1359 1.373 . S
C1361 C1345 1.377 1_655 S
C1361 C1359 1.389 . S
C1361 C1362 1.524 . S
C1362 C1361 1.524 . S
C1362 C1363 1.397 . S
C1362 C1367 1.363 . S
C1363 H1334 0.950 . S
C1363 C1362 1.397 . S
C1363 C1364 1.334 . S
C1364 H1335 0.950 . S
C1364 C1363 1.334 . S
C1364 C1365 1.287 . S
C1365 C1364 1.287 . S
C1365 C1366 1.524 . S
C1365 H1368 0.999 . S
C1366 H1336 0.950 . S
C1366 C1365 1.524 . S
C1366 C1367 1.415 . S
C1367 H1337 0.950 . S
C1367 C1362 1.363 . S
C1367 C1366 1.415 . S
H1368 C1365 0.999 . S
H1369 C1350 0.913 . S
H1370 C1388 0.951 . S
H1371 C1390 0.951 . S
H1372 C1392 0.950 . S
H1373 C1393 0.950 . S
H1374 C1395 0.950 . S
H1375 C1398 0.950 . S
H1376 C1399 0.950 . S
H1377 C1401 0.950 . S
H1378 C1402 0.950 . S
H1379 C1403 0.951 . S
H1380 C1405 0.951 . S
H1381 C1407 0.950 . S
H1382 C1408 0.950 . S
H1383 C1410 0.950 . S
H1384 C1413 0.950 . S
H1385 C1414 0.950 . S
H1386 C1416 0.950 . S
H1387 C1417 0.950 . S
C1388 H1370 0.951 . S
C1388 C1389 1.366 . S
C1388 C1390 1.388 . S
C1389 C1388 1.366 . S
C1389 C1393 1.385 . S
C1390 H1371 0.951 . S
C1390 C1388 1.388 . S
C1390 C1391 1.366 . S
C1391 C1390 1.366 . S
C1391 C1392 1.414 . S
C1391 C1394 1.499 . S
C1392 H1372 0.950 . S
C1392 C1391 1.414 . S
C1392 C1393 1.374 . S
C1393 H1373 0.950 . S
C1393 C1389 1.385 . S
C1393 C1392 1.374 . S
C1394 C1391 1.499 . S
C1394 C1395 1.373 . S
C1394 C1396 1.389 . S
C1395 H1374 0.950 . S
C1395 C1394 1.373 . S
C1395 C1411 1.377 1_655 S
C1396 C1394 1.389 . S
C1396 C1397 1.524 . S
C1396 C1410 1.377 1_655 S
C1397 C1396 1.524 . S
C1397 C1398 1.397 . S
C1397 C1402 1.363 . S
C1398 H1375 0.950 . S
C1398 C1397 1.397 . S
C1398 C1399 1.334 . S
C1399 H1376 0.950 . S
C1399 C1398 1.334 . S
C1399 C1400 1.287 . S
C1400 C1399 1.287 . S
C1400 C1401 1.524 . S
C1400 H1419 0.913 . S
C1401 H1377 0.950 . S
C1401 C1400 1.524 . S
C1401 C1402 1.415 . S
C1402 H1378 0.950 . S
C1402 C1397 1.363 . S
C1402 C1401 1.415 . S
C1403 H1379 0.951 . S
C1403 C1404 1.366 . S
C1403 C1405 1.388 . S
C1404 C1403 1.366 . S
C1404 C1408 1.385 . S
C1405 H1380 0.951 . S
C1405 C1403 1.388 . S
C1405 C1406 1.366 . S
C1406 C1405 1.366 . S
C1406 C1407 1.414 . S
C1406 C1409 1.499 . S
C1407 H1381 0.950 . S
C1407 C1406 1.414 . S
C1407 C1408 1.374 . S
C1408 H1382 0.950 . S
C1408 C1404 1.385 . S
C1408 C1407 1.374 . S
C1409 C1406 1.499 . S
C1409 C1410 1.373 . S
C1409 C1411 1.389 . S
C1410 H1383 0.950 . S
C1410 C1396 1.377 1_455 S
C1410 C1409 1.373 . S
C1411 C1395 1.377 1_455 S
C1411 C1409 1.389 . S
C1411 C1412 1.524 . S
C1412 C1411 1.524 . S
C1412 C1413 1.397 . S
C1412 C1417 1.363 . S
C1413 H1384 0.950 . S
C1413 C1412 1.397 . S
C1413 C1414 1.334 . S
C1414 H1385 0.950 . S
C1414 C1413 1.334 . S
C1414 C1415 1.287 . S
C1415 C1414 1.287 . S
C1415 C1416 1.524 . S
C1415 H1418 0.999 . S
C1416 H1386 0.950 . S
C1416 C1415 1.524 . S
C1416 C1417 1.415 . S
C1417 H1387 0.950 . S
C1417 C1412 1.363 . S
C1417 C1416 1.415 . S
H1418 C1415 0.999 . S
H1419 C1400 0.913 . S
H1420 C1438 0.951 . S
H1421 C1440 0.951 . S
H1422 C1442 0.950 . S
H1423 C1443 0.950 . S
H1424 C1445 0.950 . S
H1425 C1448 0.950 . S
H1426 C1449 0.950 . S
H1427 C1451 0.950 . S
H1428 C1452 0.950 . S
H1429 C1453 0.951 . S
H1430 C1455 0.951 . S
H1431 C1457 0.950 . S
H1432 C1458 0.950 . S
H1433 C1460 0.950 . S
H1434 C1463 0.950 . S
H1435 C1464 0.950 . S
H1436 C1466 0.950 . S
H1437 C1467 0.950 . S
C1438 H1420 0.951 . S
C1438 C1439 1.366 . S
C1438 C1440 1.388 . S
C1439 C1438 1.366 . S
C1439 C1443 1.385 . S
C1440 H1421 0.951 . S
C1440 C1438 1.388 . S
C1440 C1441 1.366 . S
C1441 C1440 1.366 . S
C1441 C1442 1.414 . S
C1441 C1444 1.499 . S
C1442 H1422 0.950 . S
C1442 C1441 1.414 . S
C1442 C1443 1.374 . S
C1443 H1423 0.950 . S
C1443 C1439 1.385 . S
C1443 C1442 1.374 . S
C1444 C1441 1.499 . S
C1444 C1445 1.373 . S
C1444 C1446 1.389 . S
C1445 H1424 0.950 . S
C1445 C1444 1.373 . S
C1445 C1461 1.377 . S
C1446 C1444 1.389 . S
C1446 C1447 1.524 . S
C1446 C1460 1.377 . S
C1447 C1446 1.524 . S
C1447 C1448 1.397 . S
C1447 C1452 1.363 . S
C1448 H1425 0.950 . S
C1448 C1447 1.397 . S
C1448 C1449 1.334 . S
C1449 H1426 0.950 . S
C1449 C1448 1.334 . S
C1449 C1450 1.287 . S
C1450 C1449 1.287 . S
C1450 C1451 1.524 . S
C1450 H1469 0.913 . S
C1451 H1427 0.950 . S
C1451 C1450 1.524 . S
C1451 C1452 1.415 . S
C1452 H1428 0.950 . S
C1452 C1447 1.363 . S
C1452 C1451 1.415 . S
C1453 H1429 0.951 . S
C1453 C1454 1.366 . S
C1453 C1455 1.388 . S
C1454 C1453 1.366 . S
C1454 C1458 1.385 . S
C1455 H1430 0.951 . S
C1455 C1453 1.388 . S
C1455 C1456 1.366 . S
C1456 C1455 1.366 . S
C1456 C1457 1.414 . S
C1456 C1459 1.499 . S
C1457 H1431 0.950 . S
C1457 C1456 1.414 . S
C1457 C1458 1.374 . S
C1458 H1432 0.950 . S
C1458 C1454 1.385 . S
C1458 C1457 1.374 . S
C1459 C1456 1.499 . S
C1459 C1460 1.373 . S
C1459 C1461 1.389 . S
C1460 H1433 0.950 . S
C1460 C1446 1.377 . S
C1460 C1459 1.373 . S
C1461 C1445 1.377 . S
C1461 C1459 1.389 . S
C1461 C1462 1.524 . S
C1462 C1461 1.524 . S
C1462 C1463 1.397 . S
C1462 C1467 1.363 . S
C1463 H1434 0.950 . S
C1463 C1462 1.397 . S
C1463 C1464 1.334 . S
C1464 H1435 0.950 . S
C1464 C1463 1.334 . S
C1464 C1465 1.287 . S
C1465 C1464 1.287 . S
C1465 C1466 1.524 . S
C1465 H1468 0.999 . S
C1466 H1436 0.950 . S
C1466 C1465 1.524 . S
C1466 C1467 1.415 . S
C1467 H1437 0.950 . S
C1467 C1462 1.363 . S
C1467 C1466 1.415 . S
H1468 C1465 0.999 . S
H1469 C1450 0.913 . S
H1470 C1488 0.951 . S
H1471 C1490 0.951 . S
H1472 C1492 0.950 . S
H1473 C1493 0.950 . S
H1474 C1495 0.950 . S
H1475 C1498 0.950 . S
H1476 C1499 0.950 . S
H1477 C1501 0.950 . S
H1478 C1502 0.950 . S
H1479 C1503 0.951 . S
H1480 C1505 0.951 . S
H1481 C1507 0.950 . S
H1482 C1508 0.950 . S
H1483 C1510 0.950 . S
H1484 C1513 0.950 . S
H1485 C1514 0.950 . S
H1486 C1516 0.950 . S
H1487 C1517 0.950 . S
C1488 H1470 0.951 . S
C1488 C1489 1.366 . S
C1488 C1490 1.388 . S
C1489 C1488 1.366 . S
C1489 C1493 1.385 . S
C1490 H1471 0.951 . S
C1490 C1488 1.388 . S
C1490 C1491 1.366 . S
C1491 C1490 1.366 . S
C1491 C1492 1.414 . S
C1491 C1494 1.499 . S
C1492 H1472 0.950 . S
C1492 C1491 1.414 . S
C1492 C1493 1.374 . S
C1493 H1473 0.950 . S
C1493 C1489 1.385 . S
C1493 C1492 1.374 . S
C1494 C1491 1.499 . S
C1494 C1495 1.373 . S
C1494 C1496 1.389 . S
C1495 H1474 0.950 . S
C1495 C1494 1.373 . S
C1495 C1511 1.377 . S
C1496 C1494 1.389 . S
C1496 C1497 1.524 . S
C1496 C1510 1.377 . S
C1497 C1496 1.524 . S
C1497 C1498 1.397 . S
C1497 C1502 1.363 . S
C1498 H1475 0.950 . S
C1498 C1497 1.397 . S
C1498 C1499 1.334 . S
C1499 H1476 0.950 . S
C1499 C1498 1.334 . S
C1499 C1500 1.287 . S
C1500 C1499 1.287 . S
C1500 C1501 1.524 . S
C1500 H1519 0.913 . S
C1501 H1477 0.950 . S
C1501 C1500 1.524 . S
C1501 C1502 1.415 . S
C1502 H1478 0.950 . S
C1502 C1497 1.363 . S
C1502 C1501 1.415 . S
C1503 H1479 0.951 . S
C1503 C1504 1.366 . S
C1503 C1505 1.388 . S
C1504 C1503 1.366 . S
C1504 C1508 1.385 . S
C1505 H1480 0.951 . S
C1505 C1503 1.388 . S
C1505 C1506 1.366 . S
C1506 C1505 1.366 . S
C1506 C1507 1.414 . S
C1506 C1509 1.499 . S
C1507 H1481 0.950 . S
C1507 C1506 1.414 . S
C1507 C1508 1.374 . S
C1508 H1482 0.950 . S
C1508 C1504 1.385 . S
C1508 C1507 1.374 . S
C1509 C1506 1.499 . S
C1509 C1510 1.373 . S
C1509 C1511 1.389 . S
C1510 H1483 0.950 . S
C1510 C1496 1.377 . S
C1510 C1509 1.373 . S
C1511 C1495 1.377 . S
C1511 C1509 1.389 . S
C1511 C1512 1.524 . S
C1512 C1511 1.524 . S
C1512 C1513 1.397 . S
C1512 C1517 1.363 1_554 S
C1513 H1484 0.950 . S
C1513 C1512 1.397 . S
C1513 C1514 1.334 1_554 S
C1514 H1485 0.950 . S
C1514 C1513 1.334 1_556 S
C1514 C1515 1.287 . S
C1515 C1514 1.287 . S
C1515 C1516 1.524 . S
C1515 H1518 0.999 . S
C1516 H1486 0.950 . S
C1516 C1515 1.524 . S
C1516 C1517 1.415 . S
C1517 H1487 0.950 . S
C1517 C1512 1.363 1_556 S
C1517 C1516 1.415 . S
H1518 C1515 0.999 . S
H1519 C1500 0.913 . S
C339 C17 1.701 . S
C354 C297 1.701 . S
C389 C257 1.701 . S
C404 C57 1.701 . S
C439 C217 1.701 . S
C454 C97 1.701 . S
C489 C177 1.701 . S
C504 C137 1.701 . S
C539 C82 1.004 . S
C554 C2 1.003 . S
C589 C42 1.004 . S
C604 C122 1.004 . S
C639 C143 2.003 . S
C654 C63 2.003 . S
C689 C103 2.003 . S
C704 C23 2.003 . S
C739 C162 0.979 . S
C754 C242 0.977 . S
C789 C202 0.979 . S
C804 C282 0.977 . S
C839 C303 1.955 . S
C854 C223 1.956 . S
C889 C263 1.955 . S
C904 C183 1.956 . S
C939 C13 1.876 . S
C954 C24 1.875 . S
C989 C53 1.876 . S
C1004 C64 1.876 . S
C1039 C104 1.876 . S
C1054 C93 1.876 . S
C1089 C133 1.876 . S
C1104 C144 1.876 . S
C1139 C184 1.876 . S
C1154 C173 1.876 . S
C1189 C213 1.875 . S
C1204 C224 1.875 . S
C1239 C253 1.876 . S
C1254 C264 1.876 . S
C1289 C293 1.876 . S
C1304 C304 1.876 . S
C1339 C26 2.195 . S
C1354 C66 2.195 . S
C1389 C146 2.195 . S
C1404 C106 2.195 . S
C1439 C186 2.195 . S
C1454 C226 2.195 . S
C1489 C306 2.195 . S
C1504 C266 2.196 . S
