# Generated by pormake.
# Topology umf, (4)-cn, num edge types: 1
# Building blocks:
#     Node 0, Type 0, BuildingBlock: ICAMEG_clean_sbu_1, # of connection points: 4
#     Node 1, Type 0, BuildingBlock: ICAMEG_clean_sbu_1, # of connection points: 4
#     Node 2, Type 0, BuildingBlock: ICAMEG_clean_sbu_1, # of connection points: 4
#     Node 3, Type 0, BuildingBlock: ICAMEG_clean_sbu_1, # of connection points: 4
#     Node 4, Type 0, BuildingBlock: ICAMEG_clean_sbu_1, # of connection points: 4
#     Node 5, Type 0, BuildingBlock: ICAMEG_clean_sbu_1, # of connection points: 4
#     Node 6, Type 0, BuildingBlock: ICAMEG_clean_sbu_1, # of connection points: 4
#     Node 7, Type 0, BuildingBlock: ICAMEG_clean_sbu_1, # of connection points: 4
#     Edge 8, Type (0, 0), BuildingBlock: XUDNAN_clean_linker_2, # of connection points: 2
#     Edge 9, Type (0, 0), BuildingBlock: XUDNAN_clean_linker_2, # of connection points: 2
#     Edge 10, Type (0, 0), BuildingBlock: XUDNAN_clean_linker_2, # of connection points: 2
#     Edge 11, Type (0, 0), BuildingBlock: XUDNAN_clean_linker_2, # of connection points: 2
#     Edge 12, Type (0, 0), BuildingBlock: XUDNAN_clean_linker_2, # of connection points: 2
#     Edge 13, Type (0, 0), BuildingBlock: XUDNAN_clean_linker_2, # of connection points: 2
#     Edge 14, Type (0, 0), BuildingBlock: XUDNAN_clean_linker_2, # of connection points: 2
#     Edge 15, Type (0, 0), BuildingBlock: XUDNAN_clean_linker_2, # of connection points: 2
#     Edge 16, Type (0, 0), BuildingBlock: XUDNAN_clean_linker_2, # of connection points: 2
#     Edge 17, Type (0, 0), BuildingBlock: XUDNAN_clean_linker_2, # of connection points: 2
#     Edge 18, Type (0, 0), BuildingBlock: XUDNAN_clean_linker_2, # of connection points: 2
#     Edge 19, Type (0, 0), BuildingBlock: XUDNAN_clean_linker_2, # of connection points: 2
#     Edge 20, Type (0, 0), BuildingBlock: XUDNAN_clean_linker_2, # of connection points: 2
#     Edge 21, Type (0, 0), BuildingBlock: XUDNAN_clean_linker_2, # of connection points: 2
#     Edge 22, Type (0, 0), BuildingBlock: XUDNAN_clean_linker_2, # of connection points: 2
#     Edge 23, Type (0, 0), BuildingBlock: XUDNAN_clean_linker_2, # of connection points: 2
# Relax obj value: 0.112
# Max RMSD: 0.202
# Mean RMSD: 0.201
data_MOF--net-umf--node1-ICAMEG_clean_sbu_1--edge1-XUDNAN_clean_linker_2
_symmetry_space_group_name_H-M    P1
_symmetry_Int_Tables_number       1
_symmetry_cell_setting            triclinic
loop_
_symmetry_equiv_pos_as_xyz
'x, y, z'
_cell_length_a     29.827931
_cell_length_b     29.83589
_cell_length_c     56.707189
_cell_angle_alpha  90.003618
_cell_angle_beta   89.971695
_cell_angle_gamma 90.02728
loop_
_atom_site_label
_atom_site_type_symbol
_atom_site_fract_x
_atom_site_fract_y
_atom_site_fract_z
_atom_type_partial_charge
Co0 Co 0.09017 0.22745 0.14006 0.0
Co1 Co 0.99274 0.26592 0.16626 0.0
O2 O 0.04158 0.27068 0.14354 0.0
C3 C 0.04511 0.22905 0.09365 0.0
O4 O 0.00713 0.22752 0.10531 0.0
C5 C 0.03646 0.35178 0.17783 0.0
O6 O 0.07478 0.33022 0.17721 0.0
O7 O 0.03523 0.25045 0.19217 0.0
O8 O 0.09813 0.22421 0.17507 0.0
H9 H 0.90481 0.19417 0.23175 0.0
H10 H 0.09299 0.31297 0.11345 0.0
O11 O 0.08228 0.22945 0.10482 0.0
H12 H 0.22836 0.31355 0.16335 0.0
H13 H 0.22827 0.16468 0.10117 0.0
H14 H 0.11725 0.14405 0.1647 0.0
H15 H 0.1763 0.24929 0.16407 0.0
H16 H 0.1669 0.21913 0.10668 0.0
O17 O -0.00011 0.33102 0.17389 0.0
H18 H 0.96602 0.19967 0.2026 0.0
H19 H 0.91552 0.32474 0.17871 0.0
H20 H 0.17819 0.08898 0.15996 0.0
H21 H 0.1443 0.3778 0.11205 0.0
H22 H 0.23427 0.09912 0.12799 0.0
H23 H 0.21249 0.37839 0.13718 0.0
O24 O 0.04805 0.17605 0.14166 0.0
H25 H 0.9397 0.35423 0.09618 0.0
H26 H 0.90622 0.2276 0.14923 0.0
H27 H 0.8549 0.24437 0.11629 0.0
H28 H 0.87158 0.30807 0.08947 0.0
H29 H 0.99032 0.336 0.12919 0.0
H30 H 0.85399 0.32081 0.20773 0.0
H31 H 0.84827 0.25506 0.23444 0.0
O32 O 0.98476 0.20089 0.15893 0.0
C33 C 0.07465 0.23385 0.19322 0.0
C34 C 0.90685 0.22291 0.22015 0.0
C35 C 0.87836 0.29402 0.20669 0.0
N36 N 0.94407 0.26227 0.18885 0.0
C37 C 0.94134 0.22613 0.20357 0.0
C38 C 0.91332 0.2961 0.19033 0.0
C39 C 0.87517 0.25711 0.22167 0.0
C40 C 0.12282 0.31282 0.12427 0.0
N41 N 0.13181 0.2773 0.13871 0.0
C42 C 0.15165 0.34969 0.12347 0.0
C43 C 0.18987 0.35002 0.1376 0.0
C44 C 0.19879 0.31366 0.15229 0.0
C45 C 0.16916 0.27741 0.15266 0.0
C46 C 0.2041 0.15994 0.11519 0.0
C47 C 0.14167 0.14884 0.15085 0.0
C48 C 0.16924 0.1906 0.11836 0.0
N49 N 0.13873 0.18492 0.1361 0.0
C50 C 0.17604 0.11747 0.14821 0.0
C51 C 0.20745 0.12316 0.13025 0.0
C52 C 0.00857 0.17007 0.14965 0.0
C53 C 0.93204 0.32643 0.10776 0.0
C54 C 0.91373 0.2553 0.1376 0.0
C55 C 0.8845 0.26471 0.11902 0.0
C56 C 0.89385 0.30048 0.10399 0.0
N57 N 0.9512 0.28081 0.14113 0.0
C58 C 0.96048 0.31606 0.12654 0.0
Co59 Co 0.76758 0.10861 0.63364 0.0
Co60 Co 0.74118 0.02303 0.67201 0.0
O61 O 0.72852 0.06074 0.64462 0.0
C62 C 0.75562 0.05304 0.59061 0.0
O63 O 0.7635 0.01751 0.60362 0.0
C64 C 0.65214 0.06181 0.68121 0.0
O65 O 0.67118 0.10092 0.67771 0.0
O66 O 0.75419 0.07617 0.69223 0.0
O67 O 0.782 0.12668 0.6668 0.0
H68 H 0.82753 0.97201 0.74315 0.0
H69 H 0.67462 0.10272 0.61568 0.0
O70 O 0.75456 0.09185 0.60004 0.0
H71 H 0.68505 0.25064 0.65409 0.0
H72 H 0.81151 0.23628 0.58036 0.0
H73 H 0.8573 0.14204 0.6476 0.0
H74 H 0.75076 0.20058 0.65246 0.0
H75 H 0.76179 0.17641 0.59512 0.0
O76 O 0.67579 0.02623 0.68058 0.0
H77 H 0.813 0.0187 0.70809 0.0
H78 H 0.69271 0.94695 0.69457 0.0
H79 H 0.90789 0.2018 0.63356 0.0
H80 H 0.60811 0.15182 0.61677 0.0
H81 H 0.88506 0.2494 0.5997 0.0
H82 H 0.61307 0.22631 0.63616 0.0
O83 O 0.8195 0.06717 0.63343 0.0
H84 H 0.65343 0.93267 0.61311 0.0
H85 H 0.78869 0.93678 0.66305 0.0
H86 H 0.77507 0.87133 0.63747 0.0
H87 H 0.70699 0.86897 0.61229 0.0
H88 H 0.66858 0.99768 0.63874 0.0
H89 H 0.70587 0.89951 0.72954 0.0
H90 H 0.77376 0.91186 0.75406 0.0
O91 O 0.80658 0.01931 0.66348 0.0
C92 C 0.77367 0.11327 0.68773 0.0
C93 C 0.79793 0.96617 0.73255 0.0
C94 C 0.7296 0.92553 0.72493 0.0
N95 N 0.75224 0.98529 0.69921 0.0
C96 C 0.78958 0.99242 0.71265 0.0
C97 C 0.72229 0.95252 0.70518 0.0
C98 C 0.76771 0.93248 0.73868 0.0
C99 C 0.67712 0.13528 0.62393 0.0
N100 N 0.71654 0.14885 0.6339 0.0
C101 C 0.63932 0.16285 0.62459 0.0
C102 C 0.64211 0.20461 0.6355 0.0
C103 C 0.68248 0.21827 0.64558 0.0
C104 C 0.71955 0.18975 0.64464 0.0
C105 C 0.82179 0.21582 0.59516 0.0
C106 C 0.84703 0.16281 0.63295 0.0
C107 C 0.79383 0.18182 0.60356 0.0
N108 N 0.80651 0.15601 0.62231 0.0
C109 C 0.87586 0.19651 0.62504 0.0
C110 C 0.86305 0.22317 0.60602 0.0
C111 C 0.83148 0.03579 0.64731 0.0
C112 C 0.68315 0.93325 0.62405 0.0
C113 C 0.75905 0.93607 0.65209 0.0
C114 C 0.75147 0.89887 0.63768 0.0
C115 C 0.71325 0.89755 0.62357 0.0
N116 N 0.72936 0.97094 0.65248 0.0
C117 C 0.69182 0.96989 0.63869 0.0
Co118 Co 0.89834 0.76239 0.13802 0.0
Co119 Co 0.98483 0.76807 0.17853 0.0
O120 O 0.95541 0.74259 0.15104 0.0
C121 C 0.96472 0.77323 0.1003 0.0
O122 O 0.98901 0.79281 0.11659 0.0
C123 C 0.97185 0.67271 0.18908 0.0
O124 O 0.92979 0.679 0.18316 0.0
O125 O 0.92791 0.76741 0.19675 0.0
O126 O 0.87135 0.76675 0.17046 0.0
H127 H 0.00038 0.87299 0.24734 0.0
H128 H 0.94154 0.67947 0.1201 0.0
O129 O 0.92547 0.75906 0.10536 0.0
H130 H 0.79499 0.63154 0.15153 0.0
H131 H 0.7742 0.75998 0.07801 0.0
H132 H 0.83008 0.83047 0.15096 0.0
H133 H 0.81699 0.71125 0.15233 0.0
H134 H 0.84569 0.73561 0.09574 0.0
O135 O -0.0011 0.70577 0.18947 0.0
H136 H 0.9642 0.84183 0.21183 0.0
H137 H 0.06848 0.74587 0.2048 0.0
H138 H 0.75828 0.85564 0.13396 0.0
H139 H 0.92089 0.59941 0.11896 0.0
H140 H 0.72991 0.8203 0.09721 0.0
H141 H 0.84711 0.57503 0.13474 0.0
O142 O 0.91611 0.82647 0.14033 0.0
H143 H 0.1029 0.70358 0.12512 0.0
H144 H 0.056 0.83652 0.1705 0.0
H145 H 0.12573 0.83936 0.14715 0.0
H146 H 0.14965 0.77247 0.1243 0.0
H147 H 0.03305 0.70248 0.14839 0.0
H148 H 0.1058 0.77594 0.24028 0.0
H149 H 0.07176 0.84004 0.26176 0.0
O150 O 0.97103 0.83029 0.16759 0.0
C151 C 0.88628 0.76862 0.19161 0.0
C152 C 0.01566 0.84519 0.23807 0.0
C153 C 0.07478 0.79066 0.23413 0.0
N154 N 0.01445 0.79237 0.20615 0.0
C155 C 0.9954 0.8275 0.21792 0.0
C156 C 0.05348 0.77375 0.21408 0.0
C157 C 0.05567 0.82664 0.24617 0.0
C158 C 0.90921 0.66916 0.1268 0.0
N159 N 0.88035 0.70002 0.1361 0.0
C160 C 0.89778 0.62376 0.12619 0.0
C161 C 0.85643 0.61009 0.1351 0.0
C162 C 0.82716 0.64178 0.14453 0.0
C163 C 0.8398 0.68686 0.14494 0.0
C164 C 0.78618 0.77559 0.09404 0.0
C165 C 0.81783 0.81477 0.13504 0.0
C166 C 0.82667 0.762 0.10412 0.0
N167 N 0.84186 0.78143 0.12443 0.0
C168 C 0.77721 0.82924 0.12546 0.0
C169 C 0.76133 0.80943 0.10483 0.0
C170 C 0.94399 0.84836 0.15293 0.0
C171 C 0.0929 0.73289 0.13506 0.0
C172 C 0.06604 0.80741 0.16048 0.0
C173 C 0.10565 0.80914 0.14736 0.0
C174 C 0.11908 0.77158 0.13457 0.0
N175 N 0.04051 0.76938 0.16084 0.0
C176 C 0.05346 0.73241 0.14834 0.0
Co177 Co 0.22987 0.8961 0.63886 0.0
Co178 Co 0.23374 0.99591 0.66921 0.0
O179 O 0.25564 0.95499 0.64504 0.0
C180 C 0.22768 0.94196 0.59285 0.0
O181 O 0.20992 0.97598 0.60417 0.0
C182 C 0.33092 0.98733 0.67876 0.0
O183 O 0.32535 0.94374 0.67755 0.0
O184 O 0.23704 0.94796 0.6934 0.0
O185 O 0.22028 0.88484 0.67349 0.0
H186 H 0.13734 0.04271 0.73759 0.0
H187 H 0.31826 0.91972 0.61845 0.0
O188 O 0.23833 0.90646 0.60408 0.0
H189 H 0.34619 0.7879 0.66879 0.0
H190 H 0.22053 0.74805 0.59662 0.0
H191 H 0.15202 0.84493 0.65718 0.0
H192 H 0.26978 0.81845 0.66452 0.0
H193 H 0.25278 0.82229 0.60561 0.0
O194 O 0.29737 0.01342 0.67631 0.0
H195 H 0.16432 0.99134 0.70658 0.0
H196 H 0.25939 0.08828 0.68399 0.0
H197 H 0.11893 0.77077 0.64894 0.0
H198 H 0.39517 0.89016 0.62214 0.0
H199 H 0.15324 0.72179 0.61844 0.0
H200 H 0.40953 0.82389 0.64753 0.0
O201 O 0.16893 0.92212 0.63661 0.0
H202 H 0.29155 0.08675 0.60103 0.0
H203 H 0.16403 0.06232 0.65492 0.0
H204 H 0.15829 0.11973 0.62379 0.0
H205 H 0.22234 0.13221 0.59656 0.0
H206 H 0.29575 0.02942 0.63228 0.0
H207 H 0.23381 0.14051 0.71492 0.0
H208 H 0.17232 0.11783 0.74194 0.0
O209 O 0.16963 0.97943 0.66239 0.0
C210 C 0.22694 0.90645 0.69263 0.0
C211 C 0.16411 0.053 0.72589 0.0
C212 C 0.21829 0.10788 0.71318 0.0
N213 N 0.21312 0.03696 0.69338 0.0
C214 C 0.17942 0.02412 0.70825 0.0
C215 C 0.23271 0.07813 0.69574 0.0
C216 C 0.18374 0.09515 0.72833 0.0
C217 C 0.32418 0.89056 0.62932 0.0
N218 N 0.28956 0.87071 0.64117 0.0
C219 C 0.36782 0.87409 0.63142 0.0
C220 C 0.37587 0.83696 0.64571 0.0
C221 C 0.34034 0.81678 0.65765 0.0
C222 C 0.29716 0.83426 0.6552 0.0
C223 C 0.20535 0.76904 0.60998 0.0
C224 C 0.16732 0.82365 0.64402 0.0
C225 C 0.22341 0.81112 0.61511 0.0
N226 N 0.20454 0.83768 0.63206 0.0
C227 C 0.14835 0.78176 0.63937 0.0
C228 C 0.16759 0.75432 0.62224 0.0
C229 C 0.14932 0.9529 0.64829 0.0
C230 C 0.26347 0.08172 0.61284 0.0
C231 C 0.19206 0.06754 0.64314 0.0
C232 C 0.18863 0.10015 0.62557 0.0
C233 C 0.2246 0.10717 0.61031 0.0
N234 N 0.23027 0.04266 0.64549 0.0
C235 C 0.26574 0.04946 0.63064 0.0
Co236 Co 0.1095 0.76286 0.89077 0.0
Co237 Co 0.02538 0.72818 0.853 0.0
O238 O 0.06391 0.72026 0.88055 0.0
C239 C 0.05148 0.75396 0.9332 0.0
O240 O 0.01642 0.75851 0.91942 0.0
C241 C 0.07179 0.64244 0.84416 0.0
O242 O 0.10964 0.66349 0.8483 0.0
O243 O 0.07723 0.746 0.83261 0.0
O244 O 0.12895 0.77304 0.8576 0.0
H245 H 0.96664 0.80762 0.78128 0.0
H246 H 0.10561 0.67255 0.91239 0.0
O247 O 0.09088 0.75401 0.92445 0.0
H248 H 0.2557 0.68321 0.8763 0.0
H249 H 0.23083 0.81963 0.94479 0.0
H250 H 0.14188 0.8509 0.8734 0.0
H251 H 0.20308 0.74684 0.87424 0.0
H252 H 0.17424 0.76547 0.93082 0.0
O253 O 0.03481 0.66372 0.84466 0.0
H254 H 0.01418 0.79848 0.81653 0.0
H255 H 0.95458 0.67193 0.83056 0.0
H256 H 0.19818 0.90589 0.88668 0.0
H257 H 0.15727 0.60816 0.91499 0.0
H258 H 0.24314 0.89041 0.92263 0.0
H259 H 0.23288 0.61325 0.8968 0.0
O260 O 0.06685 0.81372 0.88793 0.0
H261 H 0.94476 0.63347 0.91284 0.0
H262 H 0.93389 0.76552 0.86089 0.0
H263 H 0.87002 0.74575 0.88651 0.0
H264 H 0.87521 0.67923 0.9127 0.0
H265 H 0.008 0.6548 0.88715 0.0
H266 H 0.90648 0.67962 0.79541 0.0
H267 H 0.91228 0.74792 0.77054 0.0
O268 O 0.01508 0.79246 0.86123 0.0
C269 C 0.1147 0.7651 0.83683 0.0
C270 C 0.96366 0.77779 0.79203 0.0
C271 C 0.92996 0.70592 0.79994 0.0
N272 N 0.98688 0.73489 0.82569 0.0
C273 C 0.9904 0.77249 0.81205 0.0
C274 C 0.95732 0.70171 0.8198 0.0
C275 C 0.93322 0.74425 0.786 0.0
C276 C 0.13862 0.67512 0.90463 0.0
N277 N 0.15142 0.71346 0.8933 0.0
C278 C 0.16765 0.63852 0.90607 0.0
C279 C 0.21004 0.64137 0.89583 0.0
C280 C 0.22286 0.68061 0.88432 0.0
C281 C 0.19291 0.7165 0.88318 0.0
C282 C 0.21147 0.82675 0.9291 0.0
C283 C 0.1614 0.84384 0.88901 0.0
C284 C 0.17931 0.79627 0.92114 0.0
N285 N 0.15483 0.80498 0.9013 0.0
C286 C 0.1932 0.87514 0.89647 0.0
C287 C 0.21838 0.86645 0.91665 0.0
C288 C 0.03254 0.82128 0.87511 0.0
C289 C 0.94208 0.66253 0.9015 0.0
C290 C 0.9365 0.73675 0.87236 0.0
C291 C 0.90017 0.72559 0.88676 0.0
C292 C 0.90309 0.68824 0.90143 0.0
N293 N 0.97465 0.71142 0.87255 0.0
C294 C 0.97773 0.67469 0.88686 0.0
Co295 Co 0.21062 0.07993 0.38788 0.0
Co296 Co 0.25016 0.01241 0.34315 0.0
O297 O 0.25628 0.04164 0.37375 0.0
C298 C 0.22672 0.00963 0.42322 0.0
O299 O 0.22387 0.98133 0.40556 0.0
C300 C 0.33554 0.06185 0.33958 0.0
O301 O 0.31419 0.09826 0.34614 0.0
O302 O 0.23268 0.06981 0.328 0.0
O303 O 0.19731 0.10841 0.35655 0.0
H304 H 0.17583 0.97862 0.26566 0.0
H305 H 0.30184 0.07719 0.40851 0.0
O306 O 0.22253 0.05157 0.41947 0.0
H307 H 0.27768 0.23469 0.38544 0.0
H308 H 0.147 0.17784 0.45195 0.0
H309 H 0.11907 0.10875 0.37432 0.0
H310 H 0.21842 0.17819 0.37926 0.0
H311 H 0.2049 0.13117 0.43289 0.0
O312 O 0.31448 0.02516 0.33678 0.0
H313 H 0.18244 0.01373 0.30487 0.0
H314 H 0.30817 0.95012 0.31557 0.0
H315 H 0.06031 0.15529 0.39269 0.0
H316 H 0.36192 0.13264 0.41515 0.0
H317 H 0.07413 0.19023 0.43178 0.0
H318 H 0.35003 0.21202 0.40352 0.0
O319 O 0.16331 0.03461 0.38185 0.0
H320 H 0.34436 0.91356 0.39503 0.0
H321 H 0.21244 0.91976 0.34273 0.0
H322 H 0.23221 0.8485 0.36215 0.0
H323 H 0.29864 0.84508 0.38849 0.0
H324 H 0.32309 0.98424 0.37551 0.0
H325 H 0.30296 0.91435 0.27643 0.0
H326 H 0.23636 0.92844 0.25122 0.0
O327 O 0.18579 -0.00113 0.34905 0.0
C328 C 0.20879 0.10267 0.33502 0.0
C329 C 0.20491 0.97203 0.27653 0.0
C330 C 0.2763 0.93602 0.28256 0.0
N331 N 0.24542 0.9836 0.31259 0.0
C332 C 0.20879 0.99172 0.29877 0.0
C333 C 0.27908 0.95639 0.30469 0.0
C334 C 0.23892 0.94394 0.26842 0.0
C335 C 0.2963 0.11175 0.40361 0.0
N336 N 0.25662 0.12451 0.39365 0.0
C337 C 0.33049 0.14296 0.40733 0.0
C338 C 0.32382 0.18748 0.40076 0.0
C339 C 0.28324 0.20022 0.39061 0.0
C340 C 0.24984 0.16807 0.38712 0.0
C341 C 0.14064 0.16292 0.43488 0.0
C342 C 0.12545 0.12413 0.39126 0.0
C343 C 0.17327 0.13645 0.42402 0.0
N344 N 0.16551 0.11766 0.40242 0.0
C345 C 0.092 0.15033 0.4016 0.0
C346 C 0.09976 0.16987 0.42355 0.0
C347 C 0.15676 0.00727 0.36492 0.0
C348 C 0.3154 0.91459 0.38354 0.0
C349 C 0.2413 0.91859 0.35423 0.0
C350 C 0.2524 0.87811 0.36513 0.0
C351 C 0.2897 0.87621 0.37989 0.0
N352 N 0.26669 0.9561 0.35789 0.0
C353 C 0.30332 0.95448 0.37234 0.0
Co354 Co 0.92249 0.22737 0.88357 0.0
Co355 Co 0.01472 0.22407 0.84661 0.0
O356 O 0.98159 0.24745 0.87338 0.0
C357 C 0.98322 0.21208 0.92337 0.0
O358 O 0.00885 0.19279 0.90756 0.0
C359 C 0.00586 0.32076 0.8379 0.0
O360 O 0.9629 0.31529 0.84203 0.0
O361 O 0.96084 0.22846 0.82614 0.0
O362 O 0.90027 0.22558 0.85003 0.0
H363 H 0.03908 0.12535 0.776 0.0
H364 H 0.9639 0.30813 0.90507 0.0
O365 O 0.94511 0.22781 0.91724 0.0
H366 H 0.82392 0.36101 0.86817 0.0
H367 H 0.79016 0.22734 0.93858 0.0
H368 H 0.85525 0.16144 0.86654 0.0
H369 H 0.84438 0.28091 0.86699 0.0
H370 H 0.86438 0.25176 0.92421 0.0
O371 O 0.03205 0.28701 0.83807 0.0
H372 H 0.99784 0.15422 0.81054 0.0
H373 H 0.10276 0.24664 0.82471 0.0
H374 H 0.78084 0.13627 0.88015 0.0
H375 H 0.94473 0.3885 0.90668 0.0
H376 H 0.74781 0.1693 0.91642 0.0
H377 H 0.87441 0.41542 0.88804 0.0
O378 O 0.93958 0.16335 0.88052 0.0
H379 H 0.12531 0.27942 0.90681 0.0
H380 H 0.08227 0.15261 0.85584 0.0
H381 H 0.14766 0.14522 0.88215 0.0
H382 H 0.16962 0.209 0.90784 0.0
H383 H 0.05976 0.28513 0.88049 0.0
H384 H 0.14501 0.21902 0.79021 0.0
H385 H 0.11315 0.1579 0.76564 0.0
O386 O 0.99784 0.16116 0.85513 0.0
C387 C 0.91861 0.22665 0.82963 0.0
C388 C 0.05336 0.15191 0.78662 0.0
C389 C 0.11278 0.20453 0.79458 0.0
N390 N 0.04808 0.20179 0.81972 0.0
C391 C 0.03023 0.16829 0.80623 0.0
C392 C 0.08868 0.22009 0.81405 0.0
C393 C 0.09491 0.1702 0.78081 0.0
C394 C 0.93294 0.3195 0.89719 0.0
N395 N 0.90513 0.28983 0.88609 0.0
C396 C 0.92238 0.36508 0.89806 0.0
C397 C 0.88295 0.38018 0.88755 0.0
C398 C 0.85463 0.34967 0.87639 0.0
C399 C 0.86637 0.30436 0.87579 0.0
C400 C 0.80416 0.21274 0.92273 0.0
C401 C 0.841 0.17612 0.88226 0.0
C402 C 0.8462 0.22636 0.91455 0.0
N403 N 0.86397 0.20821 0.89449 0.0
C404 C 0.7989 0.16166 0.88992 0.0
C405 C 0.78042 0.18018 0.91029 0.0
C406 C 0.96865 0.14232 0.86831 0.0
C407 C 0.11618 0.25148 0.89563 0.0
C408 C 0.09152 0.18044 0.86702 0.0
C409 C 0.12866 0.17611 0.88184 0.0
C410 C 0.14099 0.21192 0.89623 0.0
N411 N 0.06733 0.21932 0.86656 0.0
C412 C 0.07921 0.25458 0.88062 0.0
Co413 Co 0.75598 0.90844 0.38441 0.0
Co414 Co 0.75243 0.99113 0.34234 0.0
O415 O 0.73294 0.96483 0.37201 0.0
C416 C 0.76802 0.97415 0.42228 0.0
O417 O 0.78674 -0.00109 0.40588 0.0
C418 C 0.65475 0.98825 0.33889 0.0
O419 O 0.65834 0.94552 0.34408 0.0
O420 O 0.73918 0.93459 0.32545 0.0
O421 O 0.7595 0.88163 0.35168 0.0
H422 H 0.83475 0.99444 0.26502 0.0
H423 H 0.67273 0.94727 0.40441 0.0
O424 O 0.75376 0.93499 0.41717 0.0
H425 H 0.629 0.79943 0.37306 0.0
H426 H 0.76359 0.78353 0.44387 0.0
H427 H 0.82696 0.84424 0.37014 0.0
H428 H 0.70754 0.82505 0.37068 0.0
H429 H 0.73443 0.85385 0.42686 0.0
O430 O 0.68976 0.01233 0.33688 0.0
H431 H 0.81103 0.96174 0.30296 0.0
H432 H 0.73222 0.07696 0.31768 0.0
H433 H 0.85687 0.77365 0.3864 0.0
H434 H 0.59386 0.92291 0.40726 0.0
H435 H 0.82514 0.74286 0.42353 0.0
H436 H 0.57154 0.84858 0.39141 0.0
O437 O 0.81859 0.92961 0.38085 0.0
H438 H 0.71972 0.11776 0.39822 0.0
H439 H 0.83148 0.05227 0.34417 0.0
H440 H 0.8499 0.12141 0.36595 0.0
H441 H 0.79373 0.15469 0.39315 0.0
H442 H 0.70299 0.0482 0.37645 0.0
H443 H 0.7549 0.11082 0.2798 0.0
H444 H 0.80667 0.06955 0.25323 0.0
O445 O 0.81527 0.9699 0.3473 0.0
C446 C 0.74912 0.89434 0.33081 0.0
C447 C 0.81231 0.01283 0.27648 0.0
C448 C 0.76744 0.07813 0.28477 0.0
N449 N 0.77061 0.01762 0.31261 0.0
C450 C 0.79885 0.99455 0.29802 0.0
C451 C 0.75466 0.05876 0.30617 0.0
C452 C 0.7965 0.05495 0.26987 0.0
C453 C 0.66336 0.91465 0.39774 0.0
N454 N 0.69472 0.8875 0.38752 0.0
C455 C 0.61862 0.90113 0.3993 0.0
C456 C 0.6061 0.85945 0.39037 0.0
C457 C 0.63832 0.83187 0.38005 0.0
C458 C 0.68272 0.84657 0.37873 0.0
C459 C 0.77762 0.79655 0.42765 0.0
C460 C 0.81276 0.83087 0.38621 0.0
C461 C 0.7613 0.83637 0.41796 0.0
N462 N 0.77871 0.85287 0.39743 0.0
C463 C 0.82993 0.79097 0.39537 0.0
C464 C 0.81214 0.77374 0.41622 0.0
C465 C 0.83686 0.94956 0.36349 0.0
C466 C 0.74439 0.10369 0.38634 0.0
C467 C 0.80695 0.0664 0.35607 0.0
C468 C 0.81752 0.10565 0.36829 0.0
C469 C 0.78597 0.12433 0.38353 0.0
N470 N 0.76612 0.04631 0.35895 0.0
C471 C 0.73502 0.06442 0.37387 0.0
H472 H 0.96401 0.4078 0.17548 0.0
H473 H 0.10673 0.406 0.19055 0.0
H474 H 0.10482 0.48769 0.19774 0.0
H475 H 0.96399 0.51075 0.14411 0.0
H476 H 0.91016 0.5282 0.15522 0.0
H477 H 0.92282 0.46947 0.15254 0.0
H478 H 0.90404 0.45851 0.19687 0.0
H479 H 0.89177 0.51741 0.19959 0.0
H480 H 0.9328 0.49185 0.21865 0.0
H481 H 0.08764 0.57014 0.20178 0.0
H482 H 0.05722 0.64712 0.20095 0.0
H483 H 0.92593 0.59413 0.18303 0.0
C484 C 0.99484 0.42442 0.18051 0.0
C485 C 0.03549 0.40047 0.18259 0.0
C486 C 0.07517 0.42365 0.18892 0.0
C487 C 0.07439 0.47001 0.1931 0.0
C488 C 0.03372 0.49259 0.19086 0.0
C489 C 0.99472 0.47056 0.18464 0.0
C490 C 0.95579 0.50275 0.18235 0.0
C491 C 0.93713 0.50278 0.15705 0.0
C492 C 0.91893 0.49198 0.20045 0.0
C493 C 0.97903 0.54647 0.18808 0.0
C494 C 0.02389 0.53993 0.19308 0.0
C495 C 0.05249 0.57563 0.19806 0.0
C496 C 0.03488 0.61922 0.19758 0.0
C497 C 0.98913 0.62665 0.19207 0.0
C498 C 0.9609 0.58961 0.18758 0.0
H499 H 0.4118 0.94281 0.67872 0.0
H500 H 0.35319 0.0755 0.68511 0.0
H501 H 0.42885 0.10828 0.68831 0.0
H502 H 0.50463 0.96078 0.71953 0.0
H503 H 0.54369 0.92866 0.70213 0.0
H504 H 0.48481 0.91518 0.70146 0.0
H505 H 0.48454 0.92374 0.656 0.0
H506 H 0.54339 0.93722 0.65652 0.0
H507 H 0.50418 0.97527 0.64297 0.0
H508 H 0.51067 0.12725 0.68895 0.0
H509 H 0.5932 0.13108 0.68707 0.0
H510 H 0.59917 0.98615 0.68061 0.0
C511 C 0.41482 0.97871 0.68108 0.0
C512 C 0.37643 0.00654 0.68177 0.0
C513 C 0.38199 0.05343 0.68457 0.0
C514 C 0.42486 0.0724 0.68644 0.0
C515 C 0.46195 0.0441 0.68552 0.0
C516 C 0.45743 -0.00174 0.68294 0.0
C517 C 0.50287 0.97558 0.68166 0.0
C518 C 0.50937 0.94313 0.70244 0.0
C519 C 0.5091 0.95154 0.65787 0.0
C520 C 0.53362 0.01589 0.68373 0.0
C521 C 0.50928 0.05505 0.686 0.0
C522 C 0.53011 0.09677 0.68739 0.0
C523 C 0.57705 0.09859 0.68631 0.0
C524 C 0.60277 0.05893 0.68389 0.0
C525 C 0.58057 0.01705 0.68278 0.0
H526 H 0.96019 0.40028 0.83984 0.0
H527 H 0.09372 0.34477 0.83104 0.0
H528 H 0.12517 0.42137 0.82999 0.0
H529 H 0.97567 0.49767 0.80183 0.0
H530 H 0.94277 0.53365 0.82061 0.0
H531 H 0.93073 0.47453 0.81928 0.0
H532 H 0.93968 0.46893 0.86464 0.0
H533 H 0.95193 0.52795 0.86614 0.0
H534 H 0.99092 0.48793 0.8782 0.0
H535 H 0.14246 0.50421 0.83249 0.0
H536 H 0.14375 0.58666 0.83708 0.0
H537 H -0.00132 0.58708 0.84355 0.0
C538 C 0.99598 0.40413 0.83733 0.0
C539 C 0.02446 0.36649 0.8354 0.0
C540 C 0.07119 0.37311 0.83244 0.0
C541 C 0.08938 0.41648 0.83184 0.0
C542 C 0.0604 0.45284 0.83411 0.0
C543 C 0.01466 0.44709 0.83665 0.0
C544 C 0.9909 0.49155 0.83954 0.0
C545 C 0.95809 0.49983 0.81909 0.0
C546 C 0.96697 0.49423 0.86355 0.0
C547 C 0.03045 0.52324 0.83842 0.0
C548 C 0.07027 0.50036 0.8353 0.0
C549 C 0.11143 0.52253 0.83468 0.0
C550 C 0.11184 0.56933 0.83733 0.0
C551 C 0.07134 0.59337 0.84046 0.0
C552 C 0.03022 0.56982 0.84087 0.0
H553 H 0.38926 0.98851 0.33703 0.0
H554 H 0.39312 0.13398 0.33804 0.0
H555 H 0.47613 0.13141 0.33599 0.0
H556 H 0.48236 0.97245 0.37444 0.0
H557 H 0.50184 0.92308 0.35927 0.0
H558 H 0.44311 0.9369 0.35913 0.0
H559 H 0.44297 0.93576 0.31339 0.0
H560 H 0.50172 0.92185 0.31338 0.0
H561 H 0.48222 0.97037 0.29747 0.0
H562 H 0.55904 0.11196 0.33465 0.0
H563 H 0.6345 0.07776 0.33602 0.0
H564 H 0.57405 0.94536 0.33734 0.0
C565 C 0.40736 0.01998 0.3365 0.0
C566 C 0.38479 0.06151 0.33743 0.0
C567 C 0.40985 0.10181 0.33719 0.0
C568 C 0.45689 0.10065 0.336 0.0
C569 C 0.47804 0.05896 0.33523 0.0
C570 C 0.45396 0.01941 0.3356 0.0
C571 C 0.48429 0.97889 0.33589 0.0
C572 C 0.47749 0.95122 0.35853 0.0
C573 C 0.47738 0.95003 0.31371 0.0
C574 C 0.52943 0.00171 0.33567 0.0
C575 C 0.52528 0.04786 0.33509 0.0
C576 C 0.56265 0.07588 0.33504 0.0
C577 C 0.60532 0.05614 0.33578 0.0
C578 C 0.61006 0.0089 0.33677 0.0
C579 C 0.57153 0.98154 0.33657 0.0
H580 H 0.9356 0.22904 0.9644 0.0
H581 H 0.06985 0.20521 0.93753 0.0
H582 H 0.10013 0.21062 0.97772 0.0
H583 H 0.96731 0.30753 0.01118 0.0
H584 H 0.92723 0.28557 0.03199 0.0
H585 H 0.9158 0.2828 1.00082 0.0
H586 H 0.9046 0.19691 1.00398 0.0
H587 H 0.91599 0.19944 0.03513 0.0
H588 H 0.94851 0.16288 0.01648 0.0
H589 H 0.11638 0.21669 0.02059 0.0
H590 H 0.11696 0.22008 0.06403 0.0
H591 H 0.97236 0.23751 0.06407 0.0
C592 C 0.97138 0.22544 0.96701 0.0
C593 C 0.00034 0.21685 0.94777 0.0
C594 C 0.04693 0.21174 0.95193 0.0
C595 C 0.06456 0.2149 0.97473 0.0
C596 C 0.03524 0.22292 0.99332 0.0
C597 C 0.98963 0.22796 0.98982 0.0
C598 C 0.96549 0.23415 0.01318 0.0
C599 C 0.94261 0.28026 0.01435 0.0
C600 C 0.93166 0.19607 0.01744 0.0
C601 C 0.00464 0.23139 0.03022 0.0
C602 C 0.04457 0.22536 0.01833 0.0
C603 C 0.08534 0.22148 0.03014 0.0
C604 C 0.08533 0.22348 0.05484 0.0
C605 C 0.04476 0.22893 0.06751 0.0
C606 C 0.00396 0.23319 0.05493 0.0
H607 H 0.75394 0.97588 0.56356 0.0
H608 H 0.74912 0.12115 0.55864 0.0
H609 H 0.74851 0.11582 0.51538 0.0
H610 H 0.82675 0.95802 0.51516 0.0
H611 H 0.79915 0.90809 0.50468 0.0
H612 H 0.7966 0.9226 0.53547 0.0
H613 H 0.70985 0.92052 0.53398 0.0
H614 H 0.71213 0.90579 0.50318 0.0
H615 H 0.68065 0.9542 0.51253 0.0
H616 H 0.75496 0.09597 0.47309 0.0
H617 H 0.76303 0.06227 0.4337 0.0
H618 H 0.76007 0.92937 0.4648 0.0
C619 C 0.75221 0.00654 0.55338 0.0
C620 C 0.75164 0.04897 0.5646 0.0
C621 C 0.74951 0.08825 0.55058 0.0
C622 C 0.74918 0.08561 0.52593 0.0
C623 C 0.75049 0.04345 0.51545 0.0
C624 C 0.75145 0.00453 0.52864 0.0
C625 C 0.75357 0.96356 0.51275 0.0
C626 C 0.79658 0.93648 0.51729 0.0
C627 C 0.71154 0.93429 0.51579 0.0
C628 C 0.75452 0.98569 0.48863 0.0
C629 C 0.75282 0.03182 0.49072 0.0
C630 C 0.7557 0.05989 0.47118 0.0
C631 C 0.76047 0.0404 0.44887 0.0
C632 C 0.76187 0.99323 0.44616 0.0
C633 C 0.75845 0.96551 0.46633 0.0
H634 H 0.92163 0.76257 0.05739 0.0
H635 H 0.0532 0.76816 0.08995 0.0
H636 H 0.08865 0.75875 0.05112 0.0
H637 H 0.94965 0.68128 0.01089 0.0
H638 H 0.91636 0.70914 0.9888 0.0
H639 H 0.9005 0.71247 0.01942 0.0
H640 H 0.90155 0.79915 0.01705 0.0
H641 H 0.9174 0.79608 0.98644 0.0
H642 H 0.9515 0.82727 1.00692 0.0
H643 H 0.1105 0.75136 1.00931 0.0
H644 H 0.11797 0.75039 0.96616 0.0
H645 H 0.97288 0.75268 0.95923 0.0
C646 C 0.95785 0.76117 0.05629 0.0
C647 C 0.98468 0.76582 0.07672 0.0
C648 C 0.03198 0.76468 0.07458 0.0
C649 C 0.05248 0.75915 0.05259 0.0
C650 C 0.02529 0.75519 0.03277 0.0
C651 C 0.97905 0.75638 0.03428 0.0
C652 C 0.9581 0.75427 0.00988 0.0
C653 C 0.92946 0.71175 1.00709 0.0
C654 C 0.93051 0.79673 1.00478 0.0
C655 C -0.00015 0.7522 0.99454 0.0
C656 C 0.03812 0.75221 1.00824 0.0
C657 C 0.08081 0.7512 0.99835 0.0
C658 C 0.08466 0.75066 0.97376 0.0
C659 C 0.04605 0.75154 0.95919 0.0
C660 C 0.00305 0.75191 0.96983 0.0
H661 H 0.21401 0.05438 0.4651 0.0
H662 H 0.25386 0.92571 0.43613 0.0
H663 H 0.26183 0.89548 0.47642 0.0
H664 H 0.28746 0.0523 0.51664 0.0
H665 H 0.24636 0.07791 0.53566 0.0
H666 H 0.24657 0.09039 0.50456 0.0
H667 H 0.16349 0.06562 0.50161 0.0
H668 H 0.16305 0.05303 0.53266 0.0
H669 H 0.14759 0.01049 0.5116 0.0
H670 H 0.26308 0.87834 0.5198 0.0
H671 H 0.25568 0.87507 0.56314 0.0
H672 H 0.21354 0.01439 0.56389 0.0
C673 C 0.22496 0.02002 0.46724 0.0
C674 C 0.23346 0.99244 0.44746 0.0
C675 C 0.2471 0.94746 0.45101 0.0
C676 C 0.25186 0.93 0.47383 0.0
C677 C 0.24274 0.95787 0.49295 0.0
C678 C 0.22953 0.00191 0.48992 0.0
C679 C 0.2198 0.0241 0.51342 0.0
C680 C 0.25197 0.06351 0.51782 0.0
C681 C 0.17056 0.03918 0.5149 0.0
C682 C 0.22919 0.98554 0.53009 0.0
C683 C 0.24273 0.94776 0.51795 0.0
C684 C 0.25266 0.90776 0.52952 0.0
C685 C 0.24836 0.90624 0.55415 0.0
C686 C 0.23396 0.94441 0.56695 0.0
C687 C 0.22458 0.98459 0.55466 0.0
H688 H 0.14246 0.17537 0.20442 0.0
H689 H 0.04943 0.27035 0.23555 0.0
H690 H 0.07868 0.25192 0.27512 0.0
H691 H 0.12936 0.09257 0.24832 0.0
H692 H 0.187 0.07455 0.24769 0.0
H693 H 0.16194 0.09845 0.22171 0.0
H694 H 0.225 0.15811 0.21992 0.0
H695 H 0.25028 0.13441 0.24595 0.0
H696 H 0.23561 0.193 0.24527 0.0
H697 H 0.11536 0.22032 0.31149 0.0
H698 H 0.1534 0.17513 0.3419 0.0
H699 H 0.2209 0.09927 0.28695 0.0
C700 C 0.1287 0.19287 0.21949 0.0
C701 C 0.09385 0.22459 0.21683 0.0
C702 C 0.07619 0.246 0.23712 0.0
C703 C 0.09271 0.23589 0.25967 0.0
C704 C 0.12672 0.20409 0.26168 0.0
C705 C 0.14435 0.18272 0.24215 0.0
C706 C 0.17834 0.14748 0.24923 0.0
C707 C 0.16324 0.1005 0.24127 0.0
C708 C 0.22508 0.15896 0.23952 0.0
C709 C 0.17678 0.15209 0.27582 0.0
C710 C 0.14717 0.18524 0.28265 0.0
C711 C 0.13886 0.19448 0.30634 0.0
C712 C 0.16073 0.16861 0.32351 0.0
C713 C 0.19035 0.13359 0.31693 0.0
C714 C 0.19886 0.12595 0.29269 0.0
H715 H 0.85719 0.16171 0.81929 0.0
H716 H 0.9194 0.28203 0.79175 0.0
H717 H 0.88129 0.27024 0.7535 0.0
H718 H 0.87372 0.09853 0.76858 0.0
H719 H 0.82218 0.06715 0.77029 0.0
H720 H 0.84736 0.08891 0.79675 0.0
H721 H 0.77386 0.13082 0.80697 0.0
H722 H 0.74822 0.10881 0.78061 0.0
H723 H 0.74945 0.16844 0.78567 0.0
H724 H 0.84351 0.24159 0.71741 0.0
H725 H 0.81038 0.19731 0.68527 0.0
H726 H 0.77467 0.09291 0.73532 0.0
C727 C 0.86124 0.18637 0.80543 0.0
C728 C 0.89009 0.22348 0.8085 0.0
C729 C 0.89663 0.25397 0.78974 0.0
C730 C 0.87516 0.2475 0.76802 0.0
C731 C 0.84774 0.21 0.76526 0.0
C732 C 0.84073 0.17984 0.78342 0.0
C733 C 0.81394 0.13964 0.77496 0.0
C734 C 0.84092 0.096 0.77781 0.0
C735 C 0.76867 0.13678 0.78782 0.0
C736 C 0.80771 0.15156 0.74915 0.0
C737 C 0.82699 0.19256 0.74406 0.0
C738 C 0.82779 0.20971 0.72123 0.0
C739 C 0.80887 0.18414 0.70304 0.0
C740 C 0.78954 0.14157 0.70765 0.0
C741 C 0.78855 0.12551 0.73116 0.0
H742 H 0.82296 0.84457 0.32146 0.0
H743 H 0.6916 0.87859 0.29446 0.0
H744 H 0.70901 0.83915 0.25713 0.0
H745 H 0.87821 0.86995 0.27044 0.0
H746 H 0.92032 0.8268 0.27237 0.0
H747 H 0.89458 0.84798 0.29877 0.0
H748 H 0.86996 0.76796 0.31068 0.0
H749 H 0.89637 0.74608 0.2845 0.0
H750 H 0.83808 0.73437 0.29025 0.0
H751 H 0.74428 0.8049 0.22109 0.0
H752 H 0.79505 0.78191 0.1889 0.0
H753 H 0.905 0.77395 0.23894 0.0
C754 C 0.79719 0.84171 0.30808 0.0
C755 C 0.75539 0.8631 0.31099 0.0
C756 C 0.72333 0.86126 0.29266 0.0
C757 C 0.73299 0.83901 0.27144 0.0
C758 C 0.77513 0.81938 0.26875 0.0
C759 C 0.80677 0.82058 0.2866 0.0
C760 C 0.85158 0.80287 0.27814 0.0
C761 C 0.8883 0.83906 0.28003 0.0
C762 C 0.86476 0.76028 0.2917 0.0
C763 C 0.84051 0.79241 0.25265 0.0
C764 C 0.7961 0.80142 0.24766 0.0
C765 C 0.77896 0.79709 0.22489 0.0
C766 C 0.80812 0.78401 0.20668 0.0
C767 C 0.85412 0.77592 0.21127 0.0
C768 C 0.87001 0.77937 0.23474 0.0
H769 H 0.16254 0.84478 0.70433 0.0
H770 H 0.27745 0.9164 0.73217 0.0
H771 H 0.26521 0.88128 0.77112 0.0
H772 H 0.09488 0.8608 0.75455 0.0
H773 H 0.06738 0.80707 0.75308 0.0
H774 H 0.08845 0.8328 0.72658 0.0
H775 H 0.13578 0.76201 0.71771 0.0
H776 H 0.11474 0.73595 0.74418 0.0
H777 H 0.17432 0.74137 0.73965 0.0
H778 H 0.23859 0.84227 0.80721 0.0
H779 H 0.19641 0.80652 0.83927 0.0
H780 H 0.09527 0.76293 0.78905 0.0
C781 C 0.18568 0.85213 0.71853 0.0
C782 C 0.2214 0.88267 0.71526 0.0
C783 C 0.25015 0.89279 0.73436 0.0
C784 C 0.24354 0.8729 0.75647 0.0
C785 C 0.20768 0.84339 0.75927 0.0
C786 C 0.17895 0.83327 0.74091 0.0
C787 C 0.14046 0.80397 0.7493 0.0
C788 C 0.09512 0.82758 0.74566 0.0
C789 C 0.1414 0.75809 0.73697 0.0
C790 C 0.1518 0.79971 0.77529 0.0
C791 C 0.19111 0.82215 0.7805 0.0
C792 C 0.2079 0.82437 0.80334 0.0
C793 C 0.18352 0.80386 0.82148 0.0
C794 C 0.14233 0.78172 0.81682 0.0
C795 C 0.12675 0.77915 0.79326 0.0
H796 H 0.05356 0.09164 0.15559 0.0
H797 H 0.92143 0.146 0.14153 0.0
H798 H 0.89058 0.069 0.13962 0.0
H799 H 0.0462 0.99367 0.11892 0.0
H800 H 0.07543 0.95823 0.13955 0.0
H801 H 0.08721 0.01743 0.13866 0.0
H802 H 0.06901 0.0237 0.18322 0.0
H803 H 0.0572 0.96454 0.18428 0.0
H804 H 0.01555 0.00423 0.19398 0.0
H805 H 0.87512 0.98589 0.13811 0.0
H806 H 0.87435 0.90323 0.14098 0.0
H807 H 0.01568 0.90436 0.15909 0.0
C808 C 0.01822 0.08729 0.1519 0.0
C809 C 0.98984 0.12452 0.14845 0.0
C810 C 0.9436 0.11774 0.1442 0.0
C811 C 0.9259 0.07422 0.14299 0.0
C812 C 0.95484 0.03815 0.14649 0.0
C813 C -0.00011 0.04428 0.15118 0.0
C814 C 0.0234 0.00015 0.15556 0.0
C815 C 0.06023 0.9919 0.13707 0.0
C816 C 0.04239 0.99805 0.18076 0.0
C817 C 0.98458 0.96811 0.15243 0.0
C818 C 0.94546 0.9906 0.14691 0.0
C819 C 0.90546 0.96794 0.14259 0.0
C820 C 0.90539 0.92105 0.14419 0.0
C821 C 0.94488 0.89752 0.15043 0.0
C822 C 0.98489 0.92149 0.15456 0.0
H823 H 0.08722 0.98696 0.67934 0.0
H824 H 0.10187 0.93331 0.60859 0.0
H825 H 0.0214 0.9464 0.60124 0.0
H826 H 0.97669 0.93797 0.69009 0.0
H827 H 0.95704 0.98551 0.70677 0.0
H828 H 0.01583 0.97159 0.70665 0.0
H829 H 0.035 0.05175 0.69227 0.0
H830 H 0.97632 0.06594 0.69236 0.0
H831 H 0.00896 0.07297 0.66585 0.0
H832 H 0.94143 0.97107 0.60031 0.0
H833 H 0.86467 -0.00017 0.60719 0.0
H834 H 0.89948 0.03125 0.67951 0.0
C835 C 0.07338 0.97784 0.66235 0.0
C836 C 0.10075 0.95925 0.64449 0.0
C837 C 0.08144 0.94738 0.62255 0.0
C838 C 0.03582 0.95479 0.61818 0.0
C839 C 0.00979 0.97331 0.63609 0.0
C840 C 0.02762 0.9841 0.65785 0.0
C841 C 0.99202 0.00315 0.67411 0.0
C842 C 0.98498 0.97273 0.69568 0.0
C843 C 0.00379 0.05131 0.68158 0.0
C844 C 0.95162 0.0022 0.6579 0.0
C845 C 0.96278 0.98518 0.63598 0.0
C846 C 0.93203 0.9837 0.61751 0.0
C847 C 0.88869 0.00012 0.62152 0.0
C848 C 0.87643 0.01689 0.64391 0.0
C849 C 0.90807 0.01759 0.66239 0.0
H850 H 0.04049 0.08785 0.87578 0.0
H851 H 0.89681 0.08693 0.86442 0.0
H852 H 0.89672 0.00398 0.86606 0.0
H853 H 0.06793 0.99086 0.84239 0.0
H854 H 0.10972 0.97093 0.8628 0.0
H855 H 0.09818 0.03002 0.86065 0.0
H856 H 0.08183 0.03284 0.90552 0.0
H857 H 0.09324 0.97369 0.90778 0.0
H858 H 0.04037 0.99571 0.91793 0.0
H859 H 0.91358 0.92141 0.86605 0.0
H860 H 0.94505 0.84486 0.86764 0.0
H861 H 0.07653 0.90023 0.8826 0.0
C862 C 0.00914 0.07001 0.87359 0.0
C863 C 0.9687 0.09327 0.86975 0.0
C864 C 0.92804 0.06931 0.86739 0.0
C865 C 0.92772 0.02237 0.86826 0.0
C866 C 0.96821 0.00025 0.87204 0.0
C867 C 0.00806 0.02328 0.87503 0.0
C868 C 0.04671 0.99157 0.87944 0.0
C869 C 0.08275 0.99612 0.86017 0.0
C870 C 0.06671 -0.0011 0.90414 0.0
C871 C 0.02258 0.94706 0.87786 0.0
C872 C 0.97739 0.95277 0.87345 0.0
C873 C 0.94878 0.91648 0.86987 0.0
C874 C 0.96694 0.87318 0.87074 0.0
C875 C 0.01306 0.86666 0.87551 0.0
C876 C 0.04099 0.90415 0.87936 0.0
H877 H 0.89894 0.97526 0.39587 0.0
H878 H 0.88322 0.92074 0.32554 0.0
H879 H 0.9656 0.9204 0.32036 0.0
H880 H 0.9829 0.05139 0.38022 0.0
H881 H 0.01375 0.04724 0.40745 0.0
H882 H 0.95443 0.03639 0.40714 0.0
H883 H 0.96813 0.95799 0.42551 0.0
H884 H 0.02762 0.96863 0.42587 0.0
H885 H 0.00602 0.91953 0.41123 0.0
H886 H 0.04812 0.93072 0.3218 0.0
H887 H 0.12521 0.95757 0.32789 0.0
H888 H 0.08704 0.01029 0.39649 0.0
C889 C 0.9132 0.96235 0.37966 0.0
C890 C 0.88551 0.94741 0.36119 0.0
C891 C 0.9045 0.93201 0.33985 0.0
C892 C 0.95104 0.93144 0.33685 0.0
C893 C 0.97772 0.94697 0.35528 0.0
C894 C 0.95956 0.96259 0.37618 0.0
C895 C 0.99526 0.98241 0.39201 0.0
C896 C 0.98603 0.03231 0.39698 0.0
C897 C -0.0005 0.95552 0.41502 0.0
C898 C 0.03612 0.97632 0.37653 0.0
C899 C 0.02539 0.95494 0.35566 0.0
C900 C 0.05708 0.94721 0.33813 0.0
C901 C 0.10081 0.96266 0.34178 0.0
C902 C 0.11219 0.98624 0.36265 0.0
C903 C 0.07949 0.99229 0.38039 0.0
loop_
_geom_bond_atom_site_label_1
_geom_bond_atom_site_label_2
_geom_bond_distance
_geom_bond_site_symmetry_2
_ccdc_geom_bond_type
Co0 O2 2.143 . S
Co0 O8 2.074 . S
Co0 O11 2.093 . S
Co0 O24 2.097 . S
Co0 N41 2.151 . S
Co0 N49 2.214 . S
Co1 O2 2.160 . S
Co1 O7 2.058 . S
Co1 O17 2.057 . S
Co1 O32 2.037 . S
Co1 N36 2.145 1_455 S
Co1 N57 2.257 1_455 S
O2 Co0 2.143 . S
O2 Co1 2.160 . S
C3 O4 1.278 . S
C3 O11 1.224 . S
O4 C3 1.278 . S
C5 O6 1.245 . S
C5 O17 1.232 . S
O6 C5 1.245 . S
O7 Co1 2.058 . S
O7 C33 1.269 . S
O8 Co0 2.074 . S
O8 C33 1.257 . S
H9 C34 0.930 . S
H10 C40 0.930 . S
O11 Co0 2.093 . S
O11 C3 1.224 . S
H12 C44 0.929 . S
H13 C46 0.930 . S
H14 C47 0.930 . S
H15 C45 0.929 . S
H16 C48 0.928 . S
O17 Co1 2.057 . S
O17 C5 1.232 . S
H18 C37 0.929 . S
H19 C38 0.929 . S
H20 C50 0.931 . S
H21 C42 0.929 . S
H22 C51 0.930 . S
H23 C43 0.931 . S
O24 Co0 2.097 . S
O24 C52 1.214 . S
H25 C53 0.929 . S
H26 C54 0.929 . S
H27 C55 0.930 . S
H28 C56 0.929 . S
H29 C58 0.930 . S
H30 C35 0.930 . S
H31 C39 0.930 . S
O32 Co1 2.037 . S
O32 C52 1.234 . S
C33 O7 1.269 . S
C33 O8 1.257 . S
C34 H9 0.930 . S
C34 C37 1.388 . S
C34 C39 1.418 . S
C35 H30 0.930 . S
C35 C38 1.404 . S
C35 C39 1.353 . S
N36 Co1 2.145 1_655 S
N36 C37 1.397 . S
N36 C38 1.334 . S
C37 H18 0.929 . S
C37 C34 1.388 . S
C37 N36 1.397 . S
C38 H19 0.929 . S
C38 C35 1.404 . S
C38 N36 1.334 . S
C39 H31 0.930 . S
C39 C34 1.418 . S
C39 C35 1.353 . S
C40 H10 0.930 . S
C40 N41 1.330 . S
C40 C42 1.446 . S
N41 Co0 2.151 . S
N41 C40 1.330 . S
N41 C45 1.418 . S
C42 H21 0.929 . S
C42 C40 1.446 . S
C42 C43 1.332 . S
C43 H23 0.931 . S
C43 C42 1.332 . S
C43 C44 1.267 . S
C44 H12 0.929 . S
C44 C43 1.267 . S
C44 C45 1.251 . S
C45 H15 0.929 . S
C45 N41 1.418 . S
C45 C44 1.251 . S
C46 H13 0.930 . S
C46 C48 1.406 . S
C46 C51 1.261 . S
C47 H14 0.930 . S
C47 N49 1.325 . S
C47 C50 1.357 . S
C48 H16 0.928 . S
C48 C46 1.406 . S
C48 N49 1.261 . S
N49 Co0 2.214 . S
N49 C47 1.325 . S
N49 C48 1.261 . S
C50 H20 0.931 . S
C50 C47 1.357 . S
C50 C51 1.312 . S
C51 H22 0.930 . S
C51 C46 1.261 . S
C51 C50 1.312 . S
C52 O24 1.214 . S
C52 O32 1.234 . S
C53 H25 0.929 . S
C53 C56 1.391 . S
C53 C58 1.391 . S
C54 H26 0.929 . S
C54 C55 1.390 . S
C54 N57 1.391 . S
C55 H27 0.930 . S
C55 C54 1.390 . S
C55 C56 1.392 . S
C56 H28 0.929 . S
C56 C53 1.391 . S
C56 C55 1.392 . S
N57 Co1 2.257 1_655 S
N57 C54 1.391 . S
N57 C58 1.388 . S
C58 H29 0.930 . S
C58 C53 1.391 . S
C58 N57 1.388 . S
Co59 O61 2.143 . S
Co59 O67 2.074 . S
Co59 O70 2.093 . S
Co59 O83 2.097 . S
Co59 N100 2.151 . S
Co59 N108 2.214 . S
Co60 O61 2.160 . S
Co60 O66 2.058 . S
Co60 O76 2.057 . S
Co60 O91 2.037 . S
Co60 N95 2.145 1_545 S
Co60 N116 2.257 1_545 S
O61 Co59 2.143 . S
O61 Co60 2.160 . S
C62 O63 1.278 . S
C62 O70 1.224 . S
O63 C62 1.278 . S
C64 O65 1.245 . S
C64 O76 1.232 . S
O65 C64 1.245 . S
O66 Co60 2.058 . S
O66 C92 1.269 . S
O67 Co59 2.074 . S
O67 C92 1.257 . S
H68 C93 0.930 . S
H69 C99 0.930 . S
O70 Co59 2.093 . S
O70 C62 1.224 . S
H71 C103 0.929 . S
H72 C105 0.930 . S
H73 C106 0.930 . S
H74 C104 0.929 . S
H75 C107 0.928 . S
O76 Co60 2.057 . S
O76 C64 1.232 . S
H77 C96 0.929 . S
H78 C97 0.929 . S
H79 C109 0.931 . S
H80 C101 0.929 . S
H81 C110 0.930 . S
H82 C102 0.931 . S
O83 Co59 2.097 . S
O83 C111 1.214 . S
H84 C112 0.929 . S
H85 C113 0.929 . S
H86 C114 0.930 . S
H87 C115 0.929 . S
H88 C117 0.930 . S
H89 C94 0.930 . S
H90 C98 0.930 . S
O91 Co60 2.037 . S
O91 C111 1.234 . S
C92 O66 1.269 . S
C92 O67 1.257 . S
C93 H68 0.930 . S
C93 C96 1.388 . S
C93 C98 1.418 . S
C94 H89 0.930 . S
C94 C97 1.404 . S
C94 C98 1.353 . S
N95 Co60 2.145 1_565 S
N95 C96 1.397 . S
N95 C97 1.334 . S
C96 H77 0.929 . S
C96 C93 1.388 . S
C96 N95 1.397 . S
C97 H78 0.929 . S
C97 C94 1.404 . S
C97 N95 1.334 . S
C98 H90 0.930 . S
C98 C93 1.418 . S
C98 C94 1.353 . S
C99 H69 0.930 . S
C99 N100 1.330 . S
C99 C101 1.446 . S
N100 Co59 2.151 . S
N100 C99 1.330 . S
N100 C104 1.418 . S
C101 H80 0.929 . S
C101 C99 1.446 . S
C101 C102 1.332 . S
C102 H82 0.931 . S
C102 C101 1.332 . S
C102 C103 1.267 . S
C103 H71 0.929 . S
C103 C102 1.267 . S
C103 C104 1.251 . S
C104 H74 0.929 . S
C104 N100 1.418 . S
C104 C103 1.251 . S
C105 H72 0.930 . S
C105 C107 1.406 . S
C105 C110 1.261 . S
C106 H73 0.930 . S
C106 N108 1.325 . S
C106 C109 1.357 . S
C107 H75 0.928 . S
C107 C105 1.406 . S
C107 N108 1.261 . S
N108 Co59 2.214 . S
N108 C106 1.325 . S
N108 C107 1.261 . S
C109 H79 0.931 . S
C109 C106 1.357 . S
C109 C110 1.312 . S
C110 H81 0.930 . S
C110 C105 1.261 . S
C110 C109 1.312 . S
C111 O83 1.214 . S
C111 O91 1.234 . S
C112 H84 0.929 . S
C112 C115 1.391 . S
C112 C117 1.391 . S
C113 H85 0.929 . S
C113 C114 1.390 . S
C113 N116 1.391 . S
C114 H86 0.930 . S
C114 C113 1.390 . S
C114 C115 1.392 . S
C115 H87 0.929 . S
C115 C112 1.391 . S
C115 C114 1.392 . S
N116 Co60 2.257 1_565 S
N116 C113 1.391 . S
N116 C117 1.388 . S
C117 H88 0.930 . S
C117 C112 1.391 . S
C117 N116 1.388 . S
Co118 O120 2.143 . S
Co118 O126 2.074 . S
Co118 O129 2.093 . S
Co118 O142 2.097 . S
Co118 N159 2.151 . S
Co118 N167 2.214 . S
Co119 O120 2.160 . S
Co119 O125 2.058 . S
Co119 O135 2.057 . S
Co119 O150 2.037 . S
Co119 N154 2.145 1_655 S
Co119 N175 2.257 1_655 S
O120 Co118 2.143 . S
O120 Co119 2.160 . S
C121 O122 1.278 . S
C121 O129 1.224 . S
O122 C121 1.278 . S
C123 O124 1.245 . S
C123 O135 1.232 . S
O124 C123 1.245 . S
O125 Co119 2.058 . S
O125 C151 1.269 . S
O126 Co118 2.074 . S
O126 C151 1.257 . S
H127 C152 0.930 . S
H128 C158 0.930 . S
O129 Co118 2.093 . S
O129 C121 1.224 . S
H130 C162 0.929 . S
H131 C164 0.930 . S
H132 C165 0.930 . S
H133 C163 0.929 . S
H134 C166 0.928 . S
O135 Co119 2.057 . S
O135 C123 1.232 . S
H136 C155 0.929 . S
H137 C156 0.929 . S
H138 C168 0.931 . S
H139 C160 0.929 . S
H140 C169 0.930 . S
H141 C161 0.931 . S
O142 Co118 2.097 . S
O142 C170 1.214 . S
H143 C171 0.929 . S
H144 C172 0.929 . S
H145 C173 0.930 . S
H146 C174 0.929 . S
H147 C176 0.930 . S
H148 C153 0.930 . S
H149 C157 0.930 . S
O150 Co119 2.037 . S
O150 C170 1.234 . S
C151 O125 1.269 . S
C151 O126 1.257 . S
C152 H127 0.930 . S
C152 C155 1.388 . S
C152 C157 1.418 . S
C153 H148 0.930 . S
C153 C156 1.404 . S
C153 C157 1.353 . S
N154 Co119 2.145 1_455 S
N154 C155 1.397 . S
N154 C156 1.334 . S
C155 H136 0.929 . S
C155 C152 1.388 . S
C155 N154 1.397 . S
C156 H137 0.929 . S
C156 C153 1.404 . S
C156 N154 1.334 . S
C157 H149 0.930 . S
C157 C152 1.418 . S
C157 C153 1.353 . S
C158 H128 0.930 . S
C158 N159 1.330 . S
C158 C160 1.446 . S
N159 Co118 2.151 . S
N159 C158 1.330 . S
N159 C163 1.418 . S
C160 H139 0.929 . S
C160 C158 1.446 . S
C160 C161 1.332 . S
C161 H141 0.931 . S
C161 C160 1.332 . S
C161 C162 1.267 . S
C162 H130 0.929 . S
C162 C161 1.267 . S
C162 C163 1.251 . S
C163 H133 0.929 . S
C163 N159 1.418 . S
C163 C162 1.251 . S
C164 H131 0.930 . S
C164 C166 1.406 . S
C164 C169 1.261 . S
C165 H132 0.930 . S
C165 N167 1.325 . S
C165 C168 1.357 . S
C166 H134 0.928 . S
C166 C164 1.406 . S
C166 N167 1.261 . S
N167 Co118 2.214 . S
N167 C165 1.325 . S
N167 C166 1.261 . S
C168 H138 0.931 . S
C168 C165 1.357 . S
C168 C169 1.312 . S
C169 H140 0.930 . S
C169 C164 1.261 . S
C169 C168 1.312 . S
C170 O142 1.214 . S
C170 O150 1.234 . S
C171 H143 0.929 . S
C171 C174 1.391 . S
C171 C176 1.391 . S
C172 H144 0.929 . S
C172 C173 1.390 . S
C172 N175 1.391 . S
C173 H145 0.930 . S
C173 C172 1.390 . S
C173 C174 1.392 . S
C174 H146 0.929 . S
C174 C171 1.391 . S
C174 C173 1.392 . S
N175 Co119 2.257 1_455 S
N175 C172 1.391 . S
N175 C176 1.388 . S
C176 H147 0.930 . S
C176 C171 1.391 . S
C176 N175 1.388 . S
Co177 O179 2.143 . S
Co177 O185 2.074 . S
Co177 O188 2.093 . S
Co177 O201 2.097 . S
Co177 N218 2.151 . S
Co177 N226 2.214 . S
Co178 O179 2.160 . S
Co178 O184 2.058 . S
Co178 O194 2.057 . S
Co178 O209 2.037 . S
Co178 N213 2.145 1_565 S
Co178 N234 2.257 1_565 S
O179 Co177 2.143 . S
O179 Co178 2.160 . S
C180 O181 1.278 . S
C180 O188 1.224 . S
O181 C180 1.278 . S
C182 O183 1.245 . S
C182 O194 1.232 . S
O183 C182 1.245 . S
O184 Co178 2.058 . S
O184 C210 1.269 . S
O185 Co177 2.074 . S
O185 C210 1.257 . S
H186 C211 0.930 . S
H187 C217 0.930 . S
O188 Co177 2.093 . S
O188 C180 1.224 . S
H189 C221 0.929 . S
H190 C223 0.930 . S
H191 C224 0.930 . S
H192 C222 0.929 . S
H193 C225 0.928 . S
O194 Co178 2.057 . S
O194 C182 1.232 . S
H195 C214 0.929 . S
H196 C215 0.929 . S
H197 C227 0.931 . S
H198 C219 0.929 . S
H199 C228 0.930 . S
H200 C220 0.931 . S
O201 Co177 2.097 . S
O201 C229 1.214 . S
H202 C230 0.929 . S
H203 C231 0.929 . S
H204 C232 0.930 . S
H205 C233 0.929 . S
H206 C235 0.930 . S
H207 C212 0.930 . S
H208 C216 0.930 . S
O209 Co178 2.037 . S
O209 C229 1.234 . S
C210 O184 1.269 . S
C210 O185 1.257 . S
C211 H186 0.930 . S
C211 C214 1.388 . S
C211 C216 1.418 . S
C212 H207 0.930 . S
C212 C215 1.404 . S
C212 C216 1.353 . S
N213 Co178 2.145 1_545 S
N213 C214 1.397 . S
N213 C215 1.334 . S
C214 H195 0.929 . S
C214 C211 1.388 . S
C214 N213 1.397 . S
C215 H196 0.929 . S
C215 C212 1.404 . S
C215 N213 1.334 . S
C216 H208 0.930 . S
C216 C211 1.418 . S
C216 C212 1.353 . S
C217 H187 0.930 . S
C217 N218 1.330 . S
C217 C219 1.446 . S
N218 Co177 2.151 . S
N218 C217 1.330 . S
N218 C222 1.418 . S
C219 H198 0.929 . S
C219 C217 1.446 . S
C219 C220 1.332 . S
C220 H200 0.931 . S
C220 C219 1.332 . S
C220 C221 1.267 . S
C221 H189 0.929 . S
C221 C220 1.267 . S
C221 C222 1.251 . S
C222 H192 0.929 . S
C222 N218 1.418 . S
C222 C221 1.251 . S
C223 H190 0.930 . S
C223 C225 1.406 . S
C223 C228 1.261 . S
C224 H191 0.930 . S
C224 N226 1.325 . S
C224 C227 1.357 . S
C225 H193 0.928 . S
C225 C223 1.406 . S
C225 N226 1.261 . S
N226 Co177 2.214 . S
N226 C224 1.325 . S
N226 C225 1.261 . S
C227 H197 0.931 . S
C227 C224 1.357 . S
C227 C228 1.312 . S
C228 H199 0.930 . S
C228 C223 1.261 . S
C228 C227 1.312 . S
C229 O201 1.214 . S
C229 O209 1.234 . S
C230 H202 0.929 . S
C230 C233 1.391 . S
C230 C235 1.391 . S
C231 H203 0.929 . S
C231 C232 1.390 . S
C231 N234 1.391 . S
C232 H204 0.930 . S
C232 C231 1.390 . S
C232 C233 1.392 . S
C233 H205 0.929 . S
C233 C230 1.391 . S
C233 C232 1.392 . S
N234 Co178 2.257 1_545 S
N234 C231 1.391 . S
N234 C235 1.388 . S
C235 H206 0.930 . S
C235 C230 1.391 . S
C235 N234 1.388 . S
Co236 O238 2.143 . S
Co236 O244 2.074 . S
Co236 O247 2.093 . S
Co236 O260 2.097 . S
Co236 N277 2.151 . S
Co236 N285 2.214 . S
Co237 O238 2.160 . S
Co237 O243 2.058 . S
Co237 O253 2.057 . S
Co237 O268 2.037 . S
Co237 N272 2.145 1_455 S
Co237 N293 2.257 1_455 S
O238 Co236 2.143 . S
O238 Co237 2.160 . S
C239 O240 1.278 . S
C239 O247 1.224 . S
O240 C239 1.278 . S
C241 O242 1.245 . S
C241 O253 1.232 . S
O242 C241 1.245 . S
O243 Co237 2.058 . S
O243 C269 1.269 . S
O244 Co236 2.074 . S
O244 C269 1.257 . S
H245 C270 0.930 . S
H246 C276 0.930 . S
O247 Co236 2.093 . S
O247 C239 1.224 . S
H248 C280 0.929 . S
H249 C282 0.930 . S
H250 C283 0.930 . S
H251 C281 0.929 . S
H252 C284 0.928 . S
O253 Co237 2.057 . S
O253 C241 1.232 . S
H254 C273 0.929 . S
H255 C274 0.929 . S
H256 C286 0.931 . S
H257 C278 0.929 . S
H258 C287 0.930 . S
H259 C279 0.931 . S
O260 Co236 2.097 . S
O260 C288 1.214 . S
H261 C289 0.929 . S
H262 C290 0.929 . S
H263 C291 0.930 . S
H264 C292 0.929 . S
H265 C294 0.930 . S
H266 C271 0.930 . S
H267 C275 0.930 . S
O268 Co237 2.037 . S
O268 C288 1.234 . S
C269 O243 1.269 . S
C269 O244 1.257 . S
C270 H245 0.930 . S
C270 C273 1.388 . S
C270 C275 1.418 . S
C271 H266 0.930 . S
C271 C274 1.404 . S
C271 C275 1.353 . S
N272 Co237 2.145 1_655 S
N272 C273 1.397 . S
N272 C274 1.334 . S
C273 H254 0.929 . S
C273 C270 1.388 . S
C273 N272 1.397 . S
C274 H255 0.929 . S
C274 C271 1.404 . S
C274 N272 1.334 . S
C275 H267 0.930 . S
C275 C270 1.418 . S
C275 C271 1.353 . S
C276 H246 0.930 . S
C276 N277 1.330 . S
C276 C278 1.446 . S
N277 Co236 2.151 . S
N277 C276 1.330 . S
N277 C281 1.418 . S
C278 H257 0.929 . S
C278 C276 1.446 . S
C278 C279 1.332 . S
C279 H259 0.931 . S
C279 C278 1.332 . S
C279 C280 1.267 . S
C280 H248 0.929 . S
C280 C279 1.267 . S
C280 C281 1.251 . S
C281 H251 0.929 . S
C281 N277 1.418 . S
C281 C280 1.251 . S
C282 H249 0.930 . S
C282 C284 1.406 . S
C282 C287 1.261 . S
C283 H250 0.930 . S
C283 N285 1.325 . S
C283 C286 1.357 . S
C284 H252 0.928 . S
C284 C282 1.406 . S
C284 N285 1.261 . S
N285 Co236 2.214 . S
N285 C283 1.325 . S
N285 C284 1.261 . S
C286 H256 0.931 . S
C286 C283 1.357 . S
C286 C287 1.312 . S
C287 H258 0.930 . S
C287 C282 1.261 . S
C287 C286 1.312 . S
C288 O260 1.214 . S
C288 O268 1.234 . S
C289 H261 0.929 . S
C289 C292 1.391 . S
C289 C294 1.391 . S
C290 H262 0.929 . S
C290 C291 1.390 . S
C290 N293 1.391 . S
C291 H263 0.930 . S
C291 C290 1.390 . S
C291 C292 1.392 . S
C292 H264 0.929 . S
C292 C289 1.391 . S
C292 C291 1.392 . S
N293 Co237 2.257 1_655 S
N293 C290 1.391 . S
N293 C294 1.388 . S
C294 H265 0.930 . S
C294 C289 1.391 . S
C294 N293 1.388 . S
Co295 O297 2.143 . S
Co295 O303 2.074 . S
Co295 O306 2.093 . S
Co295 O319 2.097 . S
Co295 N336 2.151 . S
Co295 N344 2.214 . S
Co296 O297 2.160 . S
Co296 O302 2.058 . S
Co296 O312 2.057 . S
Co296 O327 2.037 . S
Co296 N331 2.145 1_545 S
Co296 N352 2.257 1_545 S
O297 Co295 2.143 . S
O297 Co296 2.160 . S
C298 O299 1.278 . S
C298 O306 1.224 . S
O299 C298 1.278 . S
C300 O301 1.245 . S
C300 O312 1.232 . S
O301 C300 1.245 . S
O302 Co296 2.058 . S
O302 C328 1.269 . S
O303 Co295 2.074 . S
O303 C328 1.257 . S
H304 C329 0.930 . S
H305 C335 0.930 . S
O306 Co295 2.093 . S
O306 C298 1.224 . S
H307 C339 0.929 . S
H308 C341 0.930 . S
H309 C342 0.930 . S
H310 C340 0.929 . S
H311 C343 0.928 . S
O312 Co296 2.057 . S
O312 C300 1.232 . S
H313 C332 0.929 . S
H314 C333 0.929 . S
H315 C345 0.931 . S
H316 C337 0.929 . S
H317 C346 0.930 . S
H318 C338 0.931 . S
O319 Co295 2.097 . S
O319 C347 1.214 . S
H320 C348 0.929 . S
H321 C349 0.929 . S
H322 C350 0.930 . S
H323 C351 0.929 . S
H324 C353 0.930 . S
H325 C330 0.930 . S
H326 C334 0.930 . S
O327 Co296 2.037 . S
O327 C347 1.234 . S
C328 O302 1.269 . S
C328 O303 1.257 . S
C329 H304 0.930 . S
C329 C332 1.388 . S
C329 C334 1.418 . S
C330 H325 0.930 . S
C330 C333 1.404 . S
C330 C334 1.353 . S
N331 Co296 2.145 1_565 S
N331 C332 1.397 . S
N331 C333 1.334 . S
C332 H313 0.929 . S
C332 C329 1.388 . S
C332 N331 1.397 . S
C333 H314 0.929 . S
C333 C330 1.404 . S
C333 N331 1.334 . S
C334 H326 0.930 . S
C334 C329 1.418 . S
C334 C330 1.353 . S
C335 H305 0.930 . S
C335 N336 1.330 . S
C335 C337 1.446 . S
N336 Co295 2.151 . S
N336 C335 1.330 . S
N336 C340 1.418 . S
C337 H316 0.929 . S
C337 C335 1.446 . S
C337 C338 1.332 . S
C338 H318 0.931 . S
C338 C337 1.332 . S
C338 C339 1.267 . S
C339 H307 0.929 . S
C339 C338 1.267 . S
C339 C340 1.251 . S
C340 H310 0.929 . S
C340 N336 1.418 . S
C340 C339 1.251 . S
C341 H308 0.930 . S
C341 C343 1.406 . S
C341 C346 1.261 . S
C342 H309 0.930 . S
C342 N344 1.325 . S
C342 C345 1.357 . S
C343 H311 0.928 . S
C343 C341 1.406 . S
C343 N344 1.261 . S
N344 Co295 2.214 . S
N344 C342 1.325 . S
N344 C343 1.261 . S
C345 H315 0.931 . S
C345 C342 1.357 . S
C345 C346 1.312 . S
C346 H317 0.930 . S
C346 C341 1.261 . S
C346 C345 1.312 . S
C347 O319 1.214 . S
C347 O327 1.234 . S
C348 H320 0.929 . S
C348 C351 1.391 . S
C348 C353 1.391 . S
C349 H321 0.929 . S
C349 C350 1.390 . S
C349 N352 1.391 . S
C350 H322 0.930 . S
C350 C349 1.390 . S
C350 C351 1.392 . S
C351 H323 0.929 . S
C351 C348 1.391 . S
C351 C350 1.392 . S
N352 Co296 2.257 1_565 S
N352 C349 1.391 . S
N352 C353 1.388 . S
C353 H324 0.930 . S
C353 C348 1.391 . S
C353 N352 1.388 . S
Co354 O356 2.143 . S
Co354 O362 2.074 . S
Co354 O365 2.093 . S
Co354 O378 2.097 . S
Co354 N395 2.151 . S
Co354 N403 2.214 . S
Co355 O356 2.160 . S
Co355 O361 2.058 . S
Co355 O371 2.057 . S
Co355 O386 2.037 . S
Co355 N390 2.145 1_655 S
Co355 N411 2.257 1_655 S
O356 Co354 2.143 . S
O356 Co355 2.160 . S
C357 O358 1.278 . S
C357 O365 1.224 . S
O358 C357 1.278 . S
C359 O360 1.245 . S
C359 O371 1.232 . S
O360 C359 1.245 . S
O361 Co355 2.058 . S
O361 C387 1.269 . S
O362 Co354 2.074 . S
O362 C387 1.257 . S
H363 C388 0.930 . S
H364 C394 0.930 . S
O365 Co354 2.093 . S
O365 C357 1.224 . S
H366 C398 0.929 . S
H367 C400 0.930 . S
H368 C401 0.930 . S
H369 C399 0.929 . S
H370 C402 0.928 . S
O371 Co355 2.057 . S
O371 C359 1.232 . S
H372 C391 0.929 . S
H373 C392 0.929 . S
H374 C404 0.931 . S
H375 C396 0.929 . S
H376 C405 0.930 . S
H377 C397 0.931 . S
O378 Co354 2.097 . S
O378 C406 1.214 . S
H379 C407 0.929 . S
H380 C408 0.929 . S
H381 C409 0.930 . S
H382 C410 0.929 . S
H383 C412 0.930 . S
H384 C389 0.930 . S
H385 C393 0.930 . S
O386 Co355 2.037 . S
O386 C406 1.234 . S
C387 O361 1.269 . S
C387 O362 1.257 . S
C388 H363 0.930 . S
C388 C391 1.388 . S
C388 C393 1.418 . S
C389 H384 0.930 . S
C389 C392 1.404 . S
C389 C393 1.353 . S
N390 Co355 2.145 1_455 S
N390 C391 1.397 . S
N390 C392 1.334 . S
C391 H372 0.929 . S
C391 C388 1.388 . S
C391 N390 1.397 . S
C392 H373 0.929 . S
C392 C389 1.404 . S
C392 N390 1.334 . S
C393 H385 0.930 . S
C393 C388 1.418 . S
C393 C389 1.353 . S
C394 H364 0.930 . S
C394 N395 1.330 . S
C394 C396 1.446 . S
N395 Co354 2.151 . S
N395 C394 1.330 . S
N395 C399 1.418 . S
C396 H375 0.929 . S
C396 C394 1.446 . S
C396 C397 1.332 . S
C397 H377 0.931 . S
C397 C396 1.332 . S
C397 C398 1.267 . S
C398 H366 0.929 . S
C398 C397 1.267 . S
C398 C399 1.251 . S
C399 H369 0.929 . S
C399 N395 1.418 . S
C399 C398 1.251 . S
C400 H367 0.930 . S
C400 C402 1.406 . S
C400 C405 1.261 . S
C401 H368 0.930 . S
C401 N403 1.325 . S
C401 C404 1.357 . S
C402 H370 0.928 . S
C402 C400 1.406 . S
C402 N403 1.261 . S
N403 Co354 2.214 . S
N403 C401 1.325 . S
N403 C402 1.261 . S
C404 H374 0.931 . S
C404 C401 1.357 . S
C404 C405 1.312 . S
C405 H376 0.930 . S
C405 C400 1.261 . S
C405 C404 1.312 . S
C406 O378 1.214 . S
C406 O386 1.234 . S
C407 H379 0.929 . S
C407 C410 1.391 . S
C407 C412 1.391 . S
C408 H380 0.929 . S
C408 C409 1.390 . S
C408 N411 1.391 . S
C409 H381 0.930 . S
C409 C408 1.390 . S
C409 C410 1.392 . S
C410 H382 0.929 . S
C410 C407 1.391 . S
C410 C409 1.392 . S
N411 Co355 2.257 1_455 S
N411 C408 1.391 . S
N411 C412 1.388 . S
C412 H383 0.930 . S
C412 C407 1.391 . S
C412 N411 1.388 . S
Co413 O415 2.143 . S
Co413 O421 2.074 . S
Co413 O424 2.093 . S
Co413 O437 2.097 . S
Co413 N454 2.151 . S
Co413 N462 2.214 . S
Co414 O415 2.160 . S
Co414 O420 2.058 . S
Co414 O430 2.057 . S
Co414 O445 2.037 . S
Co414 N449 2.145 1_565 S
Co414 N470 2.257 1_565 S
O415 Co413 2.143 . S
O415 Co414 2.160 . S
C416 O417 1.278 . S
C416 O424 1.224 . S
O417 C416 1.278 . S
C418 O419 1.245 . S
C418 O430 1.232 . S
O419 C418 1.245 . S
O420 Co414 2.058 . S
O420 C446 1.269 . S
O421 Co413 2.074 . S
O421 C446 1.257 . S
H422 C447 0.930 . S
H423 C453 0.930 . S
O424 Co413 2.093 . S
O424 C416 1.224 . S
H425 C457 0.929 . S
H426 C459 0.930 . S
H427 C460 0.930 . S
H428 C458 0.929 . S
H429 C461 0.928 . S
O430 Co414 2.057 . S
O430 C418 1.232 . S
H431 C450 0.929 . S
H432 C451 0.929 . S
H433 C463 0.931 . S
H434 C455 0.929 . S
H435 C464 0.930 . S
H436 C456 0.931 . S
O437 Co413 2.097 . S
O437 C465 1.214 . S
H438 C466 0.929 . S
H439 C467 0.929 . S
H440 C468 0.930 . S
H441 C469 0.929 . S
H442 C471 0.930 . S
H443 C448 0.930 . S
H444 C452 0.930 . S
O445 Co414 2.037 . S
O445 C465 1.234 . S
C446 O420 1.269 . S
C446 O421 1.257 . S
C447 H422 0.930 . S
C447 C450 1.388 . S
C447 C452 1.418 . S
C448 H443 0.930 . S
C448 C451 1.404 . S
C448 C452 1.353 . S
N449 Co414 2.145 1_545 S
N449 C450 1.397 . S
N449 C451 1.334 . S
C450 H431 0.929 . S
C450 C447 1.388 . S
C450 N449 1.397 . S
C451 H432 0.929 . S
C451 C448 1.404 . S
C451 N449 1.334 . S
C452 H444 0.930 . S
C452 C447 1.418 . S
C452 C448 1.353 . S
C453 H423 0.930 . S
C453 N454 1.330 . S
C453 C455 1.446 . S
N454 Co413 2.151 . S
N454 C453 1.330 . S
N454 C458 1.418 . S
C455 H434 0.929 . S
C455 C453 1.446 . S
C455 C456 1.332 . S
C456 H436 0.931 . S
C456 C455 1.332 . S
C456 C457 1.267 . S
C457 H425 0.929 . S
C457 C456 1.267 . S
C457 C458 1.251 . S
C458 H428 0.929 . S
C458 N454 1.418 . S
C458 C457 1.251 . S
C459 H426 0.930 . S
C459 C461 1.406 . S
C459 C464 1.261 . S
C460 H427 0.930 . S
C460 N462 1.325 . S
C460 C463 1.357 . S
C461 H429 0.928 . S
C461 C459 1.406 . S
C461 N462 1.261 . S
N462 Co413 2.214 . S
N462 C460 1.325 . S
N462 C461 1.261 . S
C463 H433 0.931 . S
C463 C460 1.357 . S
C463 C464 1.312 . S
C464 H435 0.930 . S
C464 C459 1.261 . S
C464 C463 1.312 . S
C465 O437 1.214 . S
C465 O445 1.234 . S
C466 H438 0.929 . S
C466 C469 1.391 . S
C466 C471 1.391 . S
C467 H439 0.929 . S
C467 C468 1.390 . S
C467 N470 1.391 . S
C468 H440 0.930 . S
C468 C467 1.390 . S
C468 C469 1.392 . S
C469 H441 0.929 . S
C469 C466 1.391 . S
C469 C468 1.392 . S
N470 Co414 2.257 1_545 S
N470 C467 1.391 . S
N470 C471 1.388 . S
C471 H442 0.930 . S
C471 C466 1.391 . S
C471 N470 1.388 . S
H472 C484 0.930 1_655 S
H473 C486 0.930 . S
H474 C487 0.930 . S
H475 C491 0.959 . S
H476 C491 0.959 . S
H477 C491 0.961 . S
H478 C492 0.960 . S
H479 C492 0.961 . S
H480 C492 0.959 . S
H481 C495 0.929 . S
H482 C496 0.929 1_455 S
H483 C498 0.930 . S
C484 H472 0.930 1_455 S
C484 C485 1.399 . S
C484 C489 1.399 . S
C485 C484 1.399 . S
C485 C486 1.376 . S
C486 H473 0.930 . S
C486 C485 1.376 . S
C486 C487 1.388 . S
C487 H474 0.930 . S
C487 C486 1.388 . S
C487 C488 1.390 . S
C488 C487 1.390 . S
C488 C489 1.394 . S
C488 C494 1.465 . S
C489 C484 1.399 . S
C489 C488 1.394 . S
C489 C490 1.516 1_455 S
C490 C489 1.516 1_655 S
C490 C491 1.502 . S
C490 C492 1.561 1_655 S
C490 C493 1.526 . S
C491 H475 0.959 . S
C491 H476 0.959 . S
C491 H477 0.961 . S
C491 C490 1.502 . S
C492 H478 0.960 . S
C492 H479 0.961 . S
C492 H480 0.959 . S
C492 C490 1.561 1_455 S
C493 C490 1.526 . S
C493 C494 1.396 1_655 S
C493 C498 1.390 . S
C494 C488 1.465 . S
C494 C493 1.396 1_455 S
C494 C495 1.399 . S
C495 H481 0.929 . S
C495 C494 1.399 . S
C495 C496 1.380 1_455 S
C496 H482 0.929 1_655 S
C496 C495 1.380 1_655 S
C496 C497 1.396 . S
C497 C496 1.396 . S
C497 C498 1.387 . S
C498 H483 0.930 . S
C498 C493 1.390 . S
C498 C497 1.387 . S
H499 C511 0.930 1_545 S
H500 C513 0.930 . S
H501 C514 0.930 . S
H502 C518 0.959 . S
H503 C518 0.959 . S
H504 C518 0.961 . S
H505 C519 0.960 . S
H506 C519 0.961 . S
H507 C519 0.959 . S
H508 C522 0.929 . S
H509 C523 0.931 . S
H510 C525 0.930 . S
C511 H499 0.930 1_565 S
C511 C512 1.399 . S
C511 C516 1.399 . S
C512 C511 1.399 . S
C512 C513 1.376 . S
C513 H500 0.930 . S
C513 C512 1.376 . S
C513 C514 1.388 . S
C514 H501 0.930 . S
C514 C513 1.388 . S
C514 C515 1.390 . S
C515 C514 1.390 . S
C515 C516 1.394 . S
C515 C521 1.465 . S
C516 C511 1.399 . S
C516 C515 1.394 . S
C516 C517 1.516 1_565 S
C517 C516 1.516 1_545 S
C517 C518 1.502 . S
C517 C519 1.561 1_545 S
C517 C520 1.526 . S
C518 H502 0.959 . S
C518 H503 0.959 . S
C518 H504 0.961 . S
C518 C517 1.502 . S
C519 H505 0.960 . S
C519 H506 0.961 . S
C519 H507 0.959 . S
C519 C517 1.561 1_565 S
C520 C517 1.526 . S
C520 C521 1.396 1_545 S
C520 C525 1.390 . S
C521 C515 1.465 . S
C521 C520 1.396 1_565 S
C521 C522 1.399 . S
C522 H508 0.929 . S
C522 C521 1.399 . S
C522 C523 1.385 . S
C523 H509 0.931 . S
C523 C522 1.385 . S
C523 C524 1.389 1_565 S
C524 C523 1.389 1_545 S
C524 C525 1.387 . S
C525 H510 0.930 . S
C525 C520 1.390 . S
C525 C524 1.387 . S
H526 C538 0.930 . S
H527 C540 0.933 . S
H528 C541 0.930 . S
H529 C545 0.959 . S
H530 C545 0.959 . S
H531 C545 0.961 . S
H532 C546 0.960 . S
H533 C546 0.961 . S
H534 C546 0.959 . S
H535 C549 0.929 . S
H536 C550 0.931 . S
H537 C552 0.935 . S
C538 H526 0.930 . S
C538 C539 1.399 . S
C538 C543 1.399 . S
C539 C538 1.399 . S
C539 C540 1.369 1_655 S
C540 H527 0.933 . S
C540 C539 1.369 1_455 S
C540 C541 1.393 . S
C541 H528 0.930 . S
C541 C540 1.393 . S
C541 C542 1.390 . S
C542 C541 1.390 . S
C542 C543 1.394 1_455 S
C542 C548 1.465 . S
C543 C538 1.399 . S
C543 C542 1.394 1_655 S
C543 C544 1.516 . S
C544 C543 1.516 . S
C544 C545 1.502 . S
C544 C546 1.561 1_655 S
C544 C547 1.526 1_655 S
C545 H529 0.959 . S
C545 H530 0.959 . S
C545 H531 0.961 . S
C545 C544 1.502 . S
C546 H532 0.960 . S
C546 H533 0.961 . S
C546 H534 0.959 . S
C546 C544 1.561 1_455 S
C547 C544 1.526 1_455 S
C547 C548 1.396 . S
C547 C552 1.390 . S
C548 C542 1.465 . S
C548 C547 1.396 . S
C548 C549 1.399 . S
C549 H535 0.929 . S
C549 C548 1.399 . S
C549 C550 1.385 . S
C550 H536 0.931 . S
C550 C549 1.385 . S
C550 C551 1.389 . S
C551 C550 1.389 . S
C551 C552 1.387 . S
C552 H537 0.935 . S
C552 C547 1.390 . S
C552 C551 1.387 . S
H553 C565 0.930 1_565 S
H554 C567 0.930 . S
H555 C568 0.930 . S
H556 C572 0.959 . S
H557 C572 0.959 . S
H558 C572 0.961 . S
H559 C573 0.960 . S
H560 C573 0.961 . S
H561 C573 0.959 . S
H562 C576 0.929 . S
H563 C577 0.931 . S
H564 C579 0.930 . S
C565 H553 0.930 1_545 S
C565 C566 1.399 . S
C565 C570 1.400 . S
C566 C565 1.399 . S
C566 C567 1.376 . S
C567 H554 0.930 . S
C567 C566 1.376 . S
C567 C568 1.388 . S
C568 H555 0.930 . S
C568 C567 1.388 . S
C568 C569 1.390 . S
C569 C568 1.390 . S
C569 C570 1.403 . S
C569 C575 1.465 . S
C570 C565 1.400 . S
C570 C569 1.403 . S
C570 C571 1.507 1_545 S
C571 C570 1.507 1_565 S
C571 C572 1.502 . S
C571 C573 1.561 1_565 S
C571 C574 1.526 . S
C572 H556 0.959 . S
C572 H557 0.959 . S
C572 H558 0.961 . S
C572 C571 1.502 . S
C573 H559 0.960 . S
C573 H560 0.961 . S
C573 H561 0.959 . S
C573 C571 1.561 1_545 S
C574 C571 1.526 . S
C574 C575 1.396 1_565 S
C574 C579 1.390 . S
C575 C569 1.465 . S
C575 C574 1.396 1_545 S
C575 C576 1.399 . S
C576 H562 0.929 . S
C576 C575 1.399 . S
C576 C577 1.385 . S
C577 H563 0.931 . S
C577 C576 1.385 . S
C577 C578 1.389 1_545 S
C578 C577 1.389 1_565 S
C578 C579 1.387 . S
C579 H564 0.930 . S
C579 C574 1.390 . S
C579 C578 1.387 . S
H580 C592 0.930 . S
H581 C594 0.930 . S
H582 C595 0.930 . S
H583 C599 0.959 . S
H584 C599 0.959 . S
H585 C599 0.961 . S
H586 C600 0.960 1_556 S
H587 C600 0.961 . S
H588 C600 0.959 1_456 S
H589 C603 0.929 . S
H590 C604 0.931 . S
H591 C606 0.930 . S
C592 H580 0.930 . S
C592 C593 1.399 . S
C592 C597 1.399 . S
C593 C592 1.399 . S
C593 C594 1.376 . S
C594 H581 0.930 . S
C594 C593 1.376 . S
C594 C595 1.388 1_655 S
C595 H582 0.930 . S
C595 C594 1.388 1_455 S
C595 C596 1.390 . S
C596 C595 1.390 . S
C596 C597 1.394 1_455 S
C596 C602 1.465 1_556 S
C597 C592 1.399 . S
C597 C596 1.394 1_655 S
C597 C598 1.516 1_556 S
C598 C597 1.516 1_554 S
C598 C599 1.502 . S
C598 C600 1.561 . S
C598 C601 1.526 1_655 S
C599 H583 0.959 . S
C599 H584 0.959 . S
C599 H585 0.961 . S
C599 C598 1.502 . S
C600 H586 0.960 1_554 S
C600 H587 0.961 . S
C600 H588 0.959 1_654 S
C600 C598 1.561 . S
C601 C598 1.526 1_455 S
C601 C602 1.396 . S
C601 C606 1.390 . S
C602 C596 1.465 1_554 S
C602 C601 1.396 . S
C602 C603 1.399 . S
C603 H589 0.929 . S
C603 C602 1.399 . S
C603 C604 1.385 . S
C604 H590 0.931 . S
C604 C603 1.385 . S
C604 C605 1.389 . S
C605 C604 1.389 . S
C605 C606 1.387 . S
C606 H591 0.930 . S
C606 C601 1.390 . S
C606 C605 1.387 . S
H607 C619 0.930 . S
H608 C621 0.930 . S
H609 C622 0.930 . S
H610 C626 0.959 . S
H611 C626 0.959 . S
H612 C626 0.960 1_545 S
H613 C627 0.960 . S
H614 C627 0.961 . S
H615 C627 0.959 . S
H616 C630 0.929 . S
H617 C631 0.931 . S
H618 C633 0.930 . S
C619 H607 0.930 . S
C619 C620 1.399 . S
C619 C624 1.399 . S
C620 C619 1.399 . S
C620 C621 1.376 . S
C621 H608 0.930 . S
C621 C620 1.376 . S
C621 C622 1.388 . S
C622 H609 0.930 . S
C622 C621 1.388 . S
C622 C623 1.390 . S
C623 C622 1.390 . S
C623 C624 1.394 . S
C623 C629 1.465 1_545 S
C624 C619 1.399 . S
C624 C623 1.394 . S
C624 C625 1.516 . S
C625 C624 1.516 . S
C625 C626 1.502 1_545 S
C625 C627 1.561 . S
C625 C628 1.526 1_545 S
C626 H610 0.959 . S
C626 H611 0.959 . S
C626 H612 0.960 1_565 S
C626 C625 1.502 1_565 S
C627 H613 0.960 . S
C627 H614 0.961 . S
C627 H615 0.959 . S
C627 C625 1.561 . S
C628 C625 1.526 1_565 S
C628 C629 1.396 . S
C628 C633 1.390 . S
C629 C623 1.465 1_565 S
C629 C628 1.396 . S
C629 C630 1.399 . S
C630 H616 0.929 . S
C630 C629 1.399 . S
C630 C631 1.385 . S
C631 H617 0.931 . S
C631 C630 1.385 . S
C631 C632 1.389 . S
C632 C631 1.389 . S
C632 C633 1.387 . S
C633 H618 0.930 . S
C633 C628 1.390 . S
C633 C632 1.387 . S
H634 C646 0.930 . S
H635 C648 0.930 . S
H636 C649 0.933 . S
H637 C653 0.959 . S
H638 C653 0.959 . S
H639 C653 0.961 . S
H640 C654 0.960 . S
H641 C654 0.961 1_556 S
H642 C654 0.959 . S
H643 C657 0.929 . S
H644 C658 0.931 . S
H645 C660 0.930 . S
C646 H634 0.930 . S
C646 C647 1.399 . S
C646 C651 1.399 . S
C647 C646 1.399 . S
C647 C648 1.376 . S
C648 H635 0.930 . S
C648 C647 1.376 . S
C648 C649 1.385 1_655 S
C649 H636 0.933 . S
C649 C648 1.385 1_455 S
C649 C650 1.390 . S
C650 C649 1.390 . S
C650 C651 1.394 1_455 S
C650 C656 1.465 1_554 S
C651 C646 1.399 . S
C651 C650 1.394 1_655 S
C651 C652 1.516 1_554 S
C652 C651 1.516 1_556 S
C652 C653 1.502 . S
C652 C654 1.561 1_656 S
C652 C655 1.526 1_655 S
C653 H637 0.959 . S
C653 H638 0.959 . S
C653 H639 0.961 . S
C653 C652 1.502 . S
C654 H640 0.960 . S
C654 H641 0.961 1_554 S
C654 H642 0.959 . S
C654 C652 1.561 1_454 S
C655 C652 1.526 1_455 S
C655 C656 1.396 . S
C655 C660 1.390 . S
C656 C650 1.465 1_556 S
C656 C655 1.396 . S
C656 C657 1.399 . S
C657 H643 0.929 . S
C657 C656 1.399 . S
C657 C658 1.385 . S
C658 H644 0.931 . S
C658 C657 1.385 . S
C658 C659 1.389 . S
C659 C658 1.389 . S
C659 C660 1.387 . S
C660 H645 0.930 . S
C660 C655 1.390 . S
C660 C659 1.387 . S
H661 C673 0.930 . S
H662 C675 0.930 1_565 S
H663 C676 0.930 . S
H664 C680 0.959 . S
H665 C680 0.959 . S
H666 C680 0.961 . S
H667 C681 0.960 . S
H668 C681 0.961 . S
H669 C681 0.959 . S
H670 C684 0.929 . S
H671 C685 0.931 . S
H672 C687 0.930 1_545 S
C673 H661 0.930 . S
C673 C674 1.399 . S
C673 C678 1.399 . S
C674 C673 1.399 . S
C674 C675 1.376 . S
C675 H662 0.930 1_545 S
C675 C674 1.376 . S
C675 C676 1.388 1_545 S
C676 H663 0.930 . S
C676 C675 1.388 1_565 S
C676 C677 1.390 . S
C677 C676 1.390 . S
C677 C678 1.394 1_565 S
C677 C683 1.465 . S
C678 C673 1.399 . S
C678 C677 1.394 1_545 S
C678 C679 1.516 . S
C679 C678 1.516 . S
C679 C680 1.502 . S
C679 C681 1.561 . S
C679 C682 1.526 . S
C680 H664 0.959 . S
C680 H665 0.959 . S
C680 H666 0.961 . S
C680 C679 1.502 . S
C681 H667 0.960 . S
C681 H668 0.961 . S
C681 H669 0.959 . S
C681 C679 1.561 . S
C682 C679 1.526 . S
C682 C683 1.396 1_545 S
C682 C687 1.390 1_545 S
C683 C677 1.465 . S
C683 C682 1.396 1_565 S
C683 C684 1.399 . S
C684 H670 0.929 . S
C684 C683 1.399 . S
C684 C685 1.385 . S
C685 H671 0.931 . S
C685 C684 1.385 . S
C685 C686 1.389 . S
C686 C685 1.389 . S
C686 C687 1.387 . S
C687 H672 0.930 1_565 S
C687 C682 1.390 1_565 S
C687 C686 1.387 . S
H688 C700 0.930 . S
H689 C702 0.930 . S
H690 C703 0.930 . S
H691 C707 0.959 . S
H692 C707 0.959 . S
H693 C707 0.961 . S
H694 C708 0.960 . S
H695 C708 0.961 . S
H696 C708 0.959 . S
H697 C711 0.929 . S
H698 C712 0.931 . S
H699 C714 0.930 . S
C700 H688 0.930 . S
C700 C701 1.399 . S
C700 C705 1.399 . S
C701 C700 1.399 . S
C701 C702 1.376 . S
C702 H689 0.930 . S
C702 C701 1.376 . S
C702 C703 1.388 . S
C703 H690 0.930 . S
C703 C702 1.388 . S
C703 C704 1.390 . S
C704 C703 1.390 . S
C704 C705 1.394 . S
C704 C710 1.465 . S
C705 C700 1.399 . S
C705 C704 1.394 . S
C705 C706 1.516 . S
C706 C705 1.516 . S
C706 C707 1.502 . S
C706 C708 1.561 . S
C706 C709 1.526 . S
C707 H691 0.959 . S
C707 H692 0.959 . S
C707 H693 0.961 . S
C707 C706 1.502 . S
C708 H694 0.960 . S
C708 H695 0.961 . S
C708 H696 0.959 . S
C708 C706 1.561 . S
C709 C706 1.526 . S
C709 C710 1.396 . S
C709 C714 1.390 . S
C710 C704 1.465 . S
C710 C709 1.396 . S
C710 C711 1.399 . S
C711 H697 0.929 . S
C711 C710 1.399 . S
C711 C712 1.385 . S
C712 H698 0.931 . S
C712 C711 1.385 . S
C712 C713 1.389 . S
C713 C712 1.389 . S
C713 C714 1.387 . S
C714 H699 0.930 . S
C714 C709 1.390 . S
C714 C713 1.387 . S
H715 C727 0.930 . S
H716 C729 0.930 . S
H717 C730 0.930 . S
H718 C734 0.959 . S
H719 C734 0.959 . S
H720 C734 0.961 . S
H721 C735 0.960 . S
H722 C735 0.961 . S
H723 C735 0.959 . S
H724 C738 0.929 . S
H725 C739 0.931 . S
H726 C741 0.930 . S
C727 H715 0.930 . S
C727 C728 1.399 . S
C727 C732 1.399 . S
C728 C727 1.399 . S
C728 C729 1.376 . S
C729 H716 0.930 . S
C729 C728 1.376 . S
C729 C730 1.388 . S
C730 H717 0.930 . S
C730 C729 1.388 . S
C730 C731 1.390 . S
C731 C730 1.390 . S
C731 C732 1.394 . S
C731 C737 1.465 . S
C732 C727 1.399 . S
C732 C731 1.394 . S
C732 C733 1.516 . S
C733 C732 1.516 . S
C733 C734 1.502 . S
C733 C735 1.561 . S
C733 C736 1.526 . S
C734 H718 0.959 . S
C734 H719 0.959 . S
C734 H720 0.961 . S
C734 C733 1.502 . S
C735 H721 0.960 . S
C735 H722 0.961 . S
C735 H723 0.959 . S
C735 C733 1.561 . S
C736 C733 1.526 . S
C736 C737 1.396 . S
C736 C741 1.390 . S
C737 C731 1.465 . S
C737 C736 1.396 . S
C737 C738 1.399 . S
C738 H724 0.929 . S
C738 C737 1.399 . S
C738 C739 1.385 . S
C739 H725 0.931 . S
C739 C738 1.385 . S
C739 C740 1.389 . S
C740 C739 1.389 . S
C740 C741 1.387 . S
C741 H726 0.930 . S
C741 C736 1.390 . S
C741 C740 1.387 . S
H742 C754 0.930 . S
H743 C756 0.930 . S
H744 C757 0.930 . S
H745 C761 0.959 . S
H746 C761 0.959 . S
H747 C761 0.961 . S
H748 C762 0.960 . S
H749 C762 0.961 . S
H750 C762 0.959 . S
H751 C765 0.929 . S
H752 C766 0.931 . S
H753 C768 0.930 . S
C754 H742 0.930 . S
C754 C755 1.399 . S
C754 C759 1.399 . S
C755 C754 1.399 . S
C755 C756 1.376 . S
C756 H743 0.930 . S
C756 C755 1.376 . S
C756 C757 1.388 . S
C757 H744 0.930 . S
C757 C756 1.388 . S
C757 C758 1.390 . S
C758 C757 1.390 . S
C758 C759 1.394 . S
C758 C764 1.465 . S
C759 C754 1.399 . S
C759 C758 1.394 . S
C759 C760 1.516 . S
C760 C759 1.516 . S
C760 C761 1.502 . S
C760 C762 1.561 . S
C760 C763 1.526 . S
C761 H745 0.959 . S
C761 H746 0.959 . S
C761 H747 0.961 . S
C761 C760 1.502 . S
C762 H748 0.960 . S
C762 H749 0.961 . S
C762 H750 0.959 . S
C762 C760 1.561 . S
C763 C760 1.526 . S
C763 C764 1.396 . S
C763 C768 1.390 . S
C764 C758 1.465 . S
C764 C763 1.396 . S
C764 C765 1.399 . S
C765 H751 0.929 . S
C765 C764 1.399 . S
C765 C766 1.385 . S
C766 H752 0.931 . S
C766 C765 1.385 . S
C766 C767 1.389 . S
C767 C766 1.389 . S
C767 C768 1.387 . S
C768 H753 0.930 . S
C768 C763 1.390 . S
C768 C767 1.387 . S
H769 C781 0.930 . S
H770 C783 0.930 . S
H771 C784 0.930 . S
H772 C788 0.959 . S
H773 C788 0.959 . S
H774 C788 0.961 . S
H775 C789 0.960 . S
H776 C789 0.961 . S
H777 C789 0.959 . S
H778 C792 0.929 . S
H779 C793 0.931 . S
H780 C795 0.930 . S
C781 H769 0.930 . S
C781 C782 1.399 . S
C781 C786 1.399 . S
C782 C781 1.399 . S
C782 C783 1.376 . S
C783 H770 0.930 . S
C783 C782 1.376 . S
C783 C784 1.388 . S
C784 H771 0.930 . S
C784 C783 1.388 . S
C784 C785 1.390 . S
C785 C784 1.390 . S
C785 C786 1.394 . S
C785 C791 1.465 . S
C786 C781 1.399 . S
C786 C785 1.394 . S
C786 C787 1.516 . S
C787 C786 1.516 . S
C787 C788 1.502 . S
C787 C789 1.561 . S
C787 C790 1.526 . S
C788 H772 0.959 . S
C788 H773 0.959 . S
C788 H774 0.961 . S
C788 C787 1.502 . S
C789 H775 0.960 . S
C789 H776 0.961 . S
C789 H777 0.959 . S
C789 C787 1.561 . S
C790 C787 1.526 . S
C790 C791 1.396 . S
C790 C795 1.390 . S
C791 C785 1.465 . S
C791 C790 1.396 . S
C791 C792 1.399 . S
C792 H778 0.929 . S
C792 C791 1.399 . S
C792 C793 1.385 . S
C793 H779 0.931 . S
C793 C792 1.385 . S
C793 C794 1.389 . S
C794 C793 1.389 . S
C794 C795 1.387 . S
C795 H780 0.930 . S
C795 C790 1.390 . S
C795 C794 1.387 . S
H796 C808 0.930 . S
H797 C810 0.930 . S
H798 C811 0.930 . S
H799 C815 0.959 . S
H800 C815 0.959 . S
H801 C815 0.961 1_545 S
H802 C816 0.960 . S
H803 C816 0.961 1_565 S
H804 C816 0.959 . S
H805 C819 0.929 . S
H806 C820 0.931 . S
H807 C822 0.928 1_455 S
C808 H796 0.930 . S
C808 C809 1.399 . S
C808 C813 1.399 . S
C809 C808 1.399 . S
C809 C810 1.376 1_455 S
C810 H797 0.930 . S
C810 C809 1.376 1_655 S
C810 C811 1.388 . S
C811 H798 0.930 . S
C811 C810 1.388 . S
C811 C812 1.390 . S
C812 C811 1.390 . S
C812 C813 1.394 1_655 S
C812 C818 1.465 1_545 S
C813 C808 1.399 . S
C813 C812 1.394 1_455 S
C813 C814 1.516 1_545 S
C814 C813 1.516 1_565 S
C814 C815 1.502 . S
C814 C816 1.561 1_465 S
C814 C817 1.527 . S
C815 H799 0.959 . S
C815 H800 0.959 . S
C815 H801 0.961 1_565 S
C815 C814 1.502 . S
C816 H802 0.960 . S
C816 H803 0.961 1_545 S
C816 H804 0.959 . S
C816 C814 1.561 1_645 S
C817 C814 1.527 . S
C817 C818 1.395 1_455 S
C817 C822 1.389 1_455 S
C818 C812 1.465 1_565 S
C818 C817 1.395 1_655 S
C818 C819 1.399 . S
C819 H805 0.929 . S
C819 C818 1.399 . S
C819 C820 1.385 . S
C820 H806 0.931 . S
C820 C819 1.385 . S
C820 C821 1.389 . S
C821 C820 1.389 . S
C821 C822 1.389 . S
C822 H807 0.928 1_655 S
C822 C817 1.389 1_655 S
C822 C821 1.389 . S
H823 C835 0.930 . S
H824 C837 0.931 . S
H825 C838 0.930 . S
H826 C842 0.959 . S
H827 C842 0.959 . S
H828 C842 0.961 1_455 S
H829 C843 0.960 . S
H830 C843 0.961 1_655 S
H831 C843 0.959 . S
H832 C846 0.929 . S
H833 C847 0.931 . S
H834 C849 0.930 . S
C835 H823 0.930 . S
C835 C836 1.399 . S
C835 C840 1.399 . S
C836 C835 1.399 . S
C836 C837 1.376 1_565 S
C837 H824 0.931 . S
C837 C836 1.376 1_545 S
C837 C838 1.389 . S
C838 H825 0.930 . S
C838 C837 1.389 . S
C838 C839 1.390 . S
C839 C838 1.390 . S
C839 C840 1.394 1_545 S
C839 C845 1.465 1_455 S
C840 C835 1.399 . S
C840 C839 1.394 1_565 S
C840 C841 1.504 1_455 S
C841 C840 1.504 1_655 S
C841 C842 1.504 . S
C841 C843 1.560 1_665 S
C841 C844 1.538 1_565 S
C842 H826 0.959 . S
C842 H827 0.959 . S
C842 H828 0.961 1_655 S
C842 C841 1.504 . S
C843 H829 0.960 . S
C843 H830 0.961 1_455 S
C843 H831 0.959 . S
C843 C841 1.560 1_445 S
C844 C841 1.538 1_545 S
C844 C845 1.396 . S
C844 C849 1.390 . S
C845 C839 1.465 1_655 S
C845 C844 1.396 . S
C845 C846 1.399 . S
C846 H832 0.929 . S
C846 C845 1.399 . S
C846 C847 1.385 . S
C847 H833 0.931 . S
C847 C846 1.385 . S
C847 C848 1.389 . S
C848 C847 1.389 . S
C848 C849 1.387 . S
C849 H834 0.930 . S
C849 C844 1.390 . S
C849 C848 1.387 . S
H850 C862 0.927 1_455 S
H851 C864 0.930 . S
H852 C865 0.930 . S
H853 C869 0.959 . S
H854 C869 0.959 1_565 S
H855 C869 0.961 . S
H856 C870 0.960 1_545 S
H857 C870 0.961 . S
H858 C870 0.959 . S
H859 C873 0.929 . S
H860 C874 0.930 1_655 S
H861 C876 0.930 . S
C862 H850 0.927 1_655 S
C862 C863 1.399 . S
C862 C867 1.399 . S
C863 C862 1.399 . S
C863 C864 1.376 . S
C864 H851 0.930 . S
C864 C863 1.376 . S
C864 C865 1.388 . S
C865 H852 0.930 . S
C865 C864 1.388 . S
C865 C866 1.390 . S
C866 C865 1.390 . S
C866 C867 1.394 . S
C866 C872 1.465 1_545 S
C867 C862 1.399 . S
C867 C866 1.394 . S
C867 C868 1.526 1_655 S
C868 C867 1.526 1_455 S
C868 C869 1.503 . S
C868 C870 1.560 1_445 S
C868 C871 1.516 1_545 S
C869 H853 0.959 . S
C869 H854 0.959 1_545 S
C869 H855 0.961 . S
C869 C868 1.503 . S
C870 H856 0.960 1_565 S
C870 H857 0.961 . S
C870 H858 0.959 . S
C870 C868 1.560 1_665 S
C871 C868 1.516 1_565 S
C871 C872 1.396 1_455 S
C871 C876 1.390 . S
C872 C866 1.465 1_565 S
C872 C871 1.396 1_655 S
C872 C873 1.399 . S
C873 H859 0.929 . S
C873 C872 1.399 . S
C873 C874 1.380 1_655 S
C874 H860 0.930 1_455 S
C874 C873 1.380 1_455 S
C874 C875 1.396 . S
C875 C874 1.396 . S
C875 C876 1.387 . S
C876 H861 0.930 . S
C876 C871 1.390 . S
C876 C875 1.387 . S
H877 C889 0.930 . S
H878 C891 0.930 . S
H879 C892 0.930 . S
H880 C896 0.959 . S
H881 C896 0.959 1_455 S
H882 C896 0.961 . S
H883 C897 0.960 . S
H884 C897 0.961 1_455 S
H885 C897 0.959 1_465 S
H886 C900 0.929 . S
H887 C901 0.931 . S
H888 C903 0.930 . S
C889 H877 0.930 . S
C889 C890 1.399 1_545 S
C889 C894 1.399 . S
C890 C889 1.399 1_565 S
C890 C891 1.376 . S
C891 H878 0.930 . S
C891 C890 1.376 . S
C891 C892 1.388 . S
C892 H879 0.930 . S
C892 C891 1.388 . S
C892 C893 1.390 . S
C893 C892 1.390 . S
C893 C894 1.394 1_565 S
C893 C899 1.465 1_655 S
C894 C889 1.399 . S
C894 C893 1.394 1_545 S
C894 C895 1.516 . S
C895 C894 1.516 . S
C895 C896 1.502 . S
C895 C897 1.561 . S
C895 C898 1.526 1_655 S
C896 H880 0.959 . S
C896 H881 0.959 1_655 S
C896 H882 0.961 . S
C896 C895 1.502 . S
C897 H883 0.960 . S
C897 H884 0.961 1_655 S
C897 H885 0.959 1_645 S
C897 C895 1.561 . S
C898 C895 1.526 1_455 S
C898 C899 1.396 1_545 S
C898 C903 1.390 . S
C899 C893 1.465 1_455 S
C899 C898 1.396 1_565 S
C899 C900 1.399 . S
C900 H886 0.929 . S
C900 C899 1.399 . S
C900 C901 1.385 . S
C901 H887 0.931 . S
C901 C900 1.385 . S
C901 C902 1.389 1_565 S
C902 C901 1.389 1_545 S
C902 C903 1.387 . S
C903 H888 0.930 . S
C903 C898 1.390 . S
C903 C902 1.387 . S
C485 C5 1.359 . S
C497 C123 1.369 . S
C512 C182 1.359 . S
C524 C64 1.369 . S
C539 C359 1.391 . S
C551 C241 1.382 . S
C566 C300 1.359 . S
C578 C418 1.371 . S
C593 C357 1.502 . S
C605 C3 1.566 . S
C620 C62 1.523 . S
C632 C416 1.513 . S
C647 C121 1.513 . S
C659 C239 1.561 . S
C674 C298 1.491 . S
C686 C180 1.552 . S
C701 C33 1.347 . S
C713 C328 1.361 . S
C728 C387 1.365 . S
C740 C92 1.367 . S
C755 C446 1.335 . S
C767 C151 1.353 . S
C782 C210 1.326 . S
C794 C269 1.345 . S
C809 C52 0.964 . S
C821 C170 0.929 . S
C836 C229 0.957 . S
C848 C111 0.932 . S
C863 C406 0.960 . S
C875 C288 0.985 . S
C890 C465 0.945 . S
C902 C347 0.990 . S
