# Generated by pormake.
# Topology wlh, (5)-cn, num edge types: 1
# Building blocks:
#     Node 0, Type 0, BuildingBlock: XOMCOT_clean_sbu_0, # of connection points: 5
#     Node 1, Type 0, BuildingBlock: XOMCOT_clean_sbu_0, # of connection points: 5
#     Node 2, Type 0, BuildingBlock: XOMCOT_clean_sbu_0, # of connection points: 5
#     Node 3, Type 0, BuildingBlock: XOMCOT_clean_sbu_0, # of connection points: 5
#     Node 4, Type 0, BuildingBlock: XOMCOT_clean_sbu_0, # of connection points: 5
#     Node 5, Type 0, BuildingBlock: XOMCOT_clean_sbu_0, # of connection points: 5
#     Node 6, Type 0, BuildingBlock: XOMCOT_clean_sbu_0, # of connection points: 5
#     Node 7, Type 0, BuildingBlock: XOMCOT_clean_sbu_0, # of connection points: 5
#     Node 8, Type 0, BuildingBlock: XOMCOT_clean_sbu_0, # of connection points: 5
#     Node 9, Type 0, BuildingBlock: XOMCOT_clean_sbu_0, # of connection points: 5
#     Node 10, Type 0, BuildingBlock: XOMCOT_clean_sbu_0, # of connection points: 5
#     Node 11, Type 0, BuildingBlock: XOMCOT_clean_sbu_0, # of connection points: 5
#     Node 12, Type 0, BuildingBlock: XOMCOT_clean_sbu_0, # of connection points: 5
#     Node 13, Type 0, BuildingBlock: XOMCOT_clean_sbu_0, # of connection points: 5
#     Node 14, Type 0, BuildingBlock: XOMCOT_clean_sbu_0, # of connection points: 5
#     Node 15, Type 0, BuildingBlock: XOMCOT_clean_sbu_0, # of connection points: 5
#     Node 16, Type 0, BuildingBlock: XOMCOT_clean_sbu_0, # of connection points: 5
#     Node 17, Type 0, BuildingBlock: XOMCOT_clean_sbu_0, # of connection points: 5
#     Node 18, Type 0, BuildingBlock: XOMCOT_clean_sbu_0, # of connection points: 5
#     Node 19, Type 0, BuildingBlock: XOMCOT_clean_sbu_0, # of connection points: 5
#     Node 20, Type 0, BuildingBlock: XOMCOT_clean_sbu_0, # of connection points: 5
#     Node 21, Type 0, BuildingBlock: XOMCOT_clean_sbu_0, # of connection points: 5
#     Node 22, Type 0, BuildingBlock: XOMCOT_clean_sbu_0, # of connection points: 5
#     Node 23, Type 0, BuildingBlock: XOMCOT_clean_sbu_0, # of connection points: 5
#     Node 24, Type 0, BuildingBlock: XOMCOT_clean_sbu_0, # of connection points: 5
#     Node 25, Type 0, BuildingBlock: XOMCOT_clean_sbu_0, # of connection points: 5
#     Node 26, Type 0, BuildingBlock: XOMCOT_clean_sbu_0, # of connection points: 5
#     Node 27, Type 0, BuildingBlock: XOMCOT_clean_sbu_0, # of connection points: 5
#     Node 28, Type 0, BuildingBlock: XOMCOT_clean_sbu_0, # of connection points: 5
#     Node 29, Type 0, BuildingBlock: XOMCOT_clean_sbu_0, # of connection points: 5
#     Node 30, Type 0, BuildingBlock: XOMCOT_clean_sbu_0, # of connection points: 5
#     Node 31, Type 0, BuildingBlock: XOMCOT_clean_sbu_0, # of connection points: 5
#     Node 32, Type 0, BuildingBlock: XOMCOT_clean_sbu_0, # of connection points: 5
#     Node 33, Type 0, BuildingBlock: XOMCOT_clean_sbu_0, # of connection points: 5
#     Node 34, Type 0, BuildingBlock: XOMCOT_clean_sbu_0, # of connection points: 5
#     Node 35, Type 0, BuildingBlock: XOMCOT_clean_sbu_0, # of connection points: 5
#     Edge 36, Type (0, 0), BuildingBlock: OJICUG_clean_linker_0, # of connection points: 2
#     Edge 37, Type (0, 0), BuildingBlock: OJICUG_clean_linker_0, # of connection points: 2
#     Edge 38, Type (0, 0), BuildingBlock: OJICUG_clean_linker_0, # of connection points: 2
#     Edge 39, Type (0, 0), BuildingBlock: OJICUG_clean_linker_0, # of connection points: 2
#     Edge 40, Type (0, 0), BuildingBlock: OJICUG_clean_linker_0, # of connection points: 2
#     Edge 41, Type (0, 0), BuildingBlock: OJICUG_clean_linker_0, # of connection points: 2
#     Edge 42, Type (0, 0), BuildingBlock: OJICUG_clean_linker_0, # of connection points: 2
#     Edge 43, Type (0, 0), BuildingBlock: OJICUG_clean_linker_0, # of connection points: 2
#     Edge 44, Type (0, 0), BuildingBlock: OJICUG_clean_linker_0, # of connection points: 2
#     Edge 45, Type (0, 0), BuildingBlock: OJICUG_clean_linker_0, # of connection points: 2
#     Edge 46, Type (0, 0), BuildingBlock: OJICUG_clean_linker_0, # of connection points: 2
#     Edge 47, Type (0, 0), BuildingBlock: OJICUG_clean_linker_0, # of connection points: 2
#     Edge 48, Type (0, 0), BuildingBlock: OJICUG_clean_linker_0, # of connection points: 2
#     Edge 49, Type (0, 0), BuildingBlock: OJICUG_clean_linker_0, # of connection points: 2
#     Edge 50, Type (0, 0), BuildingBlock: OJICUG_clean_linker_0, # of connection points: 2
#     Edge 51, Type (0, 0), BuildingBlock: OJICUG_clean_linker_0, # of connection points: 2
#     Edge 52, Type (0, 0), BuildingBlock: OJICUG_clean_linker_0, # of connection points: 2
#     Edge 53, Type (0, 0), BuildingBlock: OJICUG_clean_linker_0, # of connection points: 2
#     Edge 54, Type (0, 0), BuildingBlock: OJICUG_clean_linker_0, # of connection points: 2
#     Edge 55, Type (0, 0), BuildingBlock: OJICUG_clean_linker_0, # of connection points: 2
#     Edge 56, Type (0, 0), BuildingBlock: OJICUG_clean_linker_0, # of connection points: 2
#     Edge 57, Type (0, 0), BuildingBlock: OJICUG_clean_linker_0, # of connection points: 2
#     Edge 58, Type (0, 0), BuildingBlock: OJICUG_clean_linker_0, # of connection points: 2
#     Edge 59, Type (0, 0), BuildingBlock: OJICUG_clean_linker_0, # of connection points: 2
#     Edge 60, Type (0, 0), BuildingBlock: OJICUG_clean_linker_0, # of connection points: 2
#     Edge 61, Type (0, 0), BuildingBlock: OJICUG_clean_linker_0, # of connection points: 2
#     Edge 62, Type (0, 0), BuildingBlock: OJICUG_clean_linker_0, # of connection points: 2
#     Edge 63, Type (0, 0), BuildingBlock: OJICUG_clean_linker_0, # of connection points: 2
#     Edge 64, Type (0, 0), BuildingBlock: OJICUG_clean_linker_0, # of connection points: 2
#     Edge 65, Type (0, 0), BuildingBlock: OJICUG_clean_linker_0, # of connection points: 2
#     Edge 66, Type (0, 0), BuildingBlock: OJICUG_clean_linker_0, # of connection points: 2
#     Edge 67, Type (0, 0), BuildingBlock: OJICUG_clean_linker_0, # of connection points: 2
#     Edge 68, Type (0, 0), BuildingBlock: OJICUG_clean_linker_0, # of connection points: 2
#     Edge 69, Type (0, 0), BuildingBlock: OJICUG_clean_linker_0, # of connection points: 2
#     Edge 70, Type (0, 0), BuildingBlock: OJICUG_clean_linker_0, # of connection points: 2
#     Edge 71, Type (0, 0), BuildingBlock: OJICUG_clean_linker_0, # of connection points: 2
#     Edge 72, Type (0, 0), BuildingBlock: OJICUG_clean_linker_0, # of connection points: 2
#     Edge 73, Type (0, 0), BuildingBlock: OJICUG_clean_linker_0, # of connection points: 2
#     Edge 74, Type (0, 0), BuildingBlock: OJICUG_clean_linker_0, # of connection points: 2
#     Edge 75, Type (0, 0), BuildingBlock: OJICUG_clean_linker_0, # of connection points: 2
#     Edge 76, Type (0, 0), BuildingBlock: OJICUG_clean_linker_0, # of connection points: 2
#     Edge 77, Type (0, 0), BuildingBlock: OJICUG_clean_linker_0, # of connection points: 2
#     Edge 78, Type (0, 0), BuildingBlock: OJICUG_clean_linker_0, # of connection points: 2
#     Edge 79, Type (0, 0), BuildingBlock: OJICUG_clean_linker_0, # of connection points: 2
#     Edge 80, Type (0, 0), BuildingBlock: OJICUG_clean_linker_0, # of connection points: 2
#     Edge 81, Type (0, 0), BuildingBlock: OJICUG_clean_linker_0, # of connection points: 2
#     Edge 82, Type (0, 0), BuildingBlock: OJICUG_clean_linker_0, # of connection points: 2
#     Edge 83, Type (0, 0), BuildingBlock: OJICUG_clean_linker_0, # of connection points: 2
#     Edge 84, Type (0, 0), BuildingBlock: OJICUG_clean_linker_0, # of connection points: 2
#     Edge 85, Type (0, 0), BuildingBlock: OJICUG_clean_linker_0, # of connection points: 2
#     Edge 86, Type (0, 0), BuildingBlock: OJICUG_clean_linker_0, # of connection points: 2
#     Edge 87, Type (0, 0), BuildingBlock: OJICUG_clean_linker_0, # of connection points: 2
#     Edge 88, Type (0, 0), BuildingBlock: OJICUG_clean_linker_0, # of connection points: 2
#     Edge 89, Type (0, 0), BuildingBlock: OJICUG_clean_linker_0, # of connection points: 2
#     Edge 90, Type (0, 0), BuildingBlock: OJICUG_clean_linker_0, # of connection points: 2
#     Edge 91, Type (0, 0), BuildingBlock: OJICUG_clean_linker_0, # of connection points: 2
#     Edge 92, Type (0, 0), BuildingBlock: OJICUG_clean_linker_0, # of connection points: 2
#     Edge 93, Type (0, 0), BuildingBlock: OJICUG_clean_linker_0, # of connection points: 2
#     Edge 94, Type (0, 0), BuildingBlock: OJICUG_clean_linker_0, # of connection points: 2
#     Edge 95, Type (0, 0), BuildingBlock: OJICUG_clean_linker_0, # of connection points: 2
#     Edge 96, Type (0, 0), BuildingBlock: OJICUG_clean_linker_0, # of connection points: 2
#     Edge 97, Type (0, 0), BuildingBlock: OJICUG_clean_linker_0, # of connection points: 2
#     Edge 98, Type (0, 0), BuildingBlock: OJICUG_clean_linker_0, # of connection points: 2
#     Edge 99, Type (0, 0), BuildingBlock: OJICUG_clean_linker_0, # of connection points: 2
#     Edge 100, Type (0, 0), BuildingBlock: OJICUG_clean_linker_0, # of connection points: 2
#     Edge 101, Type (0, 0), BuildingBlock: OJICUG_clean_linker_0, # of connection points: 2
#     Edge 102, Type (0, 0), BuildingBlock: OJICUG_clean_linker_0, # of connection points: 2
#     Edge 103, Type (0, 0), BuildingBlock: OJICUG_clean_linker_0, # of connection points: 2
#     Edge 104, Type (0, 0), BuildingBlock: OJICUG_clean_linker_0, # of connection points: 2
#     Edge 105, Type (0, 0), BuildingBlock: OJICUG_clean_linker_0, # of connection points: 2
#     Edge 106, Type (0, 0), BuildingBlock: OJICUG_clean_linker_0, # of connection points: 2
#     Edge 107, Type (0, 0), BuildingBlock: OJICUG_clean_linker_0, # of connection points: 2
#     Edge 108, Type (0, 0), BuildingBlock: OJICUG_clean_linker_0, # of connection points: 2
#     Edge 109, Type (0, 0), BuildingBlock: OJICUG_clean_linker_0, # of connection points: 2
#     Edge 110, Type (0, 0), BuildingBlock: OJICUG_clean_linker_0, # of connection points: 2
#     Edge 111, Type (0, 0), BuildingBlock: OJICUG_clean_linker_0, # of connection points: 2
#     Edge 112, Type (0, 0), BuildingBlock: OJICUG_clean_linker_0, # of connection points: 2
#     Edge 113, Type (0, 0), BuildingBlock: OJICUG_clean_linker_0, # of connection points: 2
#     Edge 114, Type (0, 0), BuildingBlock: OJICUG_clean_linker_0, # of connection points: 2
#     Edge 115, Type (0, 0), BuildingBlock: OJICUG_clean_linker_0, # of connection points: 2
#     Edge 116, Type (0, 0), BuildingBlock: OJICUG_clean_linker_0, # of connection points: 2
#     Edge 117, Type (0, 0), BuildingBlock: OJICUG_clean_linker_0, # of connection points: 2
#     Edge 118, Type (0, 0), BuildingBlock: OJICUG_clean_linker_0, # of connection points: 2
#     Edge 119, Type (0, 0), BuildingBlock: OJICUG_clean_linker_0, # of connection points: 2
#     Edge 120, Type (0, 0), BuildingBlock: OJICUG_clean_linker_0, # of connection points: 2
#     Edge 121, Type (0, 0), BuildingBlock: OJICUG_clean_linker_0, # of connection points: 2
#     Edge 122, Type (0, 0), BuildingBlock: OJICUG_clean_linker_0, # of connection points: 2
#     Edge 123, Type (0, 0), BuildingBlock: OJICUG_clean_linker_0, # of connection points: 2
#     Edge 124, Type (0, 0), BuildingBlock: OJICUG_clean_linker_0, # of connection points: 2
#     Edge 125, Type (0, 0), BuildingBlock: OJICUG_clean_linker_0, # of connection points: 2
# Relax obj value: 0.367
# Max RMSD: 0.247
# Mean RMSD: 0.247
data_MOF--net-wlh--node1-XOMCOT_clean_sbu_0--edge1-OJICUG_clean_linker_0
_symmetry_space_group_name_H-M    P1
_symmetry_Int_Tables_number       1
_symmetry_cell_setting            triclinic
loop_
_symmetry_equiv_pos_as_xyz
'x, y, z'
_cell_length_a     30.167079
_cell_length_b     30.166325
_cell_length_c     116.02888
_cell_angle_alpha  90.09527
_cell_angle_beta   89.976748
_cell_angle_gamma 120.0414
loop_
_atom_site_label
_atom_site_type_symbol
_atom_site_fract_x
_atom_site_fract_y
_atom_site_fract_z
_atom_type_partial_charge
Co0 Co 0.07421 0.25802 0.19287 0.0
C1 C 0.04388 0.33708 0.18726 0.0
C2 C 0.02397 0.27909 0.17432 0.0
C3 C 0.01121 0.31383 0.17027 0.0
N4 N 0.04397 0.29306 0.185 0.0
N5 N 0.02362 0.34997 0.17838 0.0
H6 H 0.05984 0.36034 0.19486 0.0
H7 H 0.02022 0.24629 0.16966 0.0
C8 C 0.96384 0.17911 0.19047 0.0
O9 O 0.95335 0.21556 0.19277 0.0
N10 N 0.10519 0.22262 0.2 0.0
C11 C 0.13737 0.23864 0.20908 0.0
C12 C 0.16114 0.2098 0.20958 0.0
C13 C 0.10956 0.18445 0.19513 0.0
N14 N 0.14376 0.17604 0.20075 0.0
C15 C 0.06839 0.30838 0.2138 0.0
C16 C 1.00221 0.2188 0.22513 0.0
C17 C 0.0235 0.26475 0.23136 0.0
C18 C 0.05639 0.3103 0.22546 0.0
C19 C 0.0169 0.21841 0.21382 0.0
N20 N 0.04817 0.26273 0.20803 0.0
H21 H 0.09667 0.34323 0.20968 0.0
H22 H 0.00541 0.18154 0.21008 0.0
H23 H 0.14547 0.27111 0.21447 0.0
H24 H 0.09124 0.16615 0.1871 0.0
O25 O 0.14027 0.32017 0.19312 0.0
O26 O 0.11166 0.26327 0.17892 0.0
O27 O 0.01053 0.18985 0.18972 0.0
C28 C 0.149 0.30513 0.18327 0.0
H29 H 0.9951 0.31342 0.1619 0.0
H30 H 0.19032 0.21458 0.21569 0.0
H31 H 0.97628 0.18243 0.22912 0.0
H32 H 0.07497 0.34669 0.22994 0.0
Co33 Co 0.73685 0.82032 0.19396 0.0
C34 C 0.66605 0.71433 0.18583 0.0
C35 C 0.74346 0.74258 0.1801 0.0
C36 C 0.7139 0.69296 0.17634 0.0
N37 N 0.71367 0.75571 0.18618 0.0
N38 N 0.66544 0.67542 0.17991 0.0
H39 H 0.63298 0.71236 0.18998 0.0
H40 H 0.78398 0.76719 0.17858 0.0
C41 C 0.83701 0.84698 0.20422 0.0
O42 O 0.82024 0.85832 0.2136 0.0
N43 N 0.76124 0.88721 0.20106 0.0
C44 C 0.73331 0.90629 0.2058 0.0
C45 C 0.76182 0.95893 0.20583 0.0
C46 C 0.80565 0.92909 0.19793 0.0
N47 N 0.80721 0.97321 0.20077 0.0
C48 C 0.69063 0.79155 0.21697 0.0
C49 C 0.73636 0.73435 0.22222 0.0
C50 C 0.71471 0.74836 0.23117 0.0
C51 C 0.68891 0.77478 0.22834 0.0
C52 C 0.73716 0.75181 0.21107 0.0
N53 N 0.71864 0.78402 0.20876 0.0
H54 H 0.67063 0.81159 0.21495 0.0
H55 H 0.75663 0.74271 0.20448 0.0
H56 H 0.69299 0.88479 0.20773 0.0
H57 H 0.83393 0.92729 0.19252 0.0
O58 O 0.67357 0.81886 0.18997 0.0
O59 O 0.74409 0.85311 0.17936 0.0
O60 O 0.80847 0.83065 0.19525 0.0
C61 C 0.69811 0.84552 0.18091 0.0
H62 H 0.72679 0.67144 0.17125 0.0
H63 H 0.74857 0.98454 0.20863 0.0
H64 H 0.75495 0.71223 0.22392 0.0
H65 H 0.67006 0.7849 0.23492 0.0
Co66 Co 0.184 0.92571 0.19313 0.0
C67 C 0.29335 0.95776 0.18694 0.0
C68 C 0.25248 0.97307 0.17384 0.0
C69 C 0.30003 0.98649 0.16964 0.0
N70 N 0.2481 0.95535 0.1847 0.0
N71 N 0.32554 0.97699 0.17786 0.0
H72 H 0.30221 0.94424 0.19472 0.0
H73 H 0.22239 0.97494 0.1692 0.0
C74 C 0.21273 0.03519 0.18992 0.0
O75 O 0.26051 0.04791 0.19195 0.0
N76 N 0.11922 0.89558 0.20104 0.0
C77 C 0.10652 0.8675 0.21076 0.0
C78 C 0.05652 0.85244 0.21345 0.0
C79 C 0.07685 0.89664 0.19782 0.0
N80 N 0.03798 0.87071 0.2053 0.0
C81 C 0.24299 0.9344 0.21377 0.0
C82 C 0.22175 0.00282 0.22482 0.0
C83 C 0.2459 0.98142 0.23114 0.0
C84 C 0.25768 0.94753 0.22538 0.0
C85 C 0.20572 0.98692 0.21361 0.0
N86 N 0.21752 0.95436 0.20796 0.0
H87 H 0.2488 0.90537 0.20977 0.0
H88 H 0.18011 0.99814 0.20994 0.0
H89 H 0.13179 0.85846 0.21552 0.0
H90 H 0.07474 0.9164 0.19025 0.0
O91 O 0.1803 0.85964 0.19351 0.0
O92 O 0.1494 0.88674 0.17958 0.0
O93 O 0.17793 0.98799 0.18968 0.0
C94 C 0.15506 0.85008 0.18384 0.0
H95 H 0.3146 1.00117 0.16112 0.0
H96 H 0.03521 0.82924 0.22075 0.0
H97 H 0.21206 0.02953 0.2287 0.0
H98 H 0.27523 0.92898 0.22994 0.0
Co99 Co 0.26242 0.07275 0.31926 0.0
C100 C 0.34321 0.04545 0.32505 0.0
C101 C 0.28256 0.02021 0.33747 0.0
C102 C 0.31902 0.01036 0.34176 0.0
N103 N 0.29713 0.0417 0.32694 0.0
N104 N 0.35691 0.02619 0.33398 0.0
H105 H 0.36771 0.06439 0.31778 0.0
H106 H 0.24859 0.01429 0.34195 0.0
C107 C 0.18144 0.96301 0.32161 0.0
O108 O 0.21664 0.95124 0.31893 0.0
N109 N 0.22764 0.10468 0.31228 0.0
C110 C 0.24366 0.13659 0.30317 0.0
C111 C 0.21545 0.161 0.30271 0.0
C112 C 0.19009 0.10985 0.31722 0.0
N113 N 0.18208 0.14428 0.31159 0.0
C114 C 0.31041 0.06404 0.29818 0.0
C115 C 0.21923 1.00005 0.28709 0.0
C116 C 0.2647 0.01905 0.28076 0.0
C117 C 0.31104 0.0509 0.28654 0.0
C118 C 0.22021 0.0158 0.29837 0.0
N119 N 0.26526 0.04585 0.30404 0.0
H120 H 0.34595 0.09163 0.30217 0.0
H121 H 0.18394 0.00602 0.3022 0.0
H122 H 0.2757 0.14398 0.29771 0.0
H123 H 0.17192 0.09185 0.32527 0.0
O124 O 0.32523 0.13833 0.31886 0.0
O125 O 0.2693 0.11059 0.33323 0.0
O126 O 0.19377 0.01008 0.32261 0.0
C127 C 0.31106 0.14752 0.32877 0.0
H128 H 0.31862 0.99418 0.35012 0.0
H129 H 0.22035 0.19012 0.29658 0.0
H130 H 0.18229 0.97502 0.2832 0.0
H131 H 0.34716 0.06783 0.28197 0.0
Co132 Co 0.93493 0.18976 0.31915 0.0
C133 C 0.96336 0.29689 0.32619 0.0
C134 C 0.98432 0.25717 0.33841 0.0
C135 C 0.99363 0.30237 0.34329 0.0
N136 N 0.96567 0.25358 0.32767 0.0
N137 N 0.98036 0.32713 0.33565 0.0
H138 H 0.94704 0.30504 0.31878 0.0
H139 H 0.98856 0.22754 0.34262 0.0
C140 C 0.0435 0.21602 0.32227 0.0
O141 O 0.05689 0.2639 0.32013 0.0
N142 N 0.90328 0.1248 0.3113 0.0
C143 C 0.87409 0.112 0.30174 0.0
C144 C 0.85129 0.05988 0.30016 0.0
C145 C 0.89794 0.08069 0.31543 0.0
N146 N 0.86616 0.04032 0.30881 0.0
C147 C 0.94587 0.25 0.29862 0.0
C148 C 0.01076 0.22449 0.28738 0.0
C149 C 0.99067 0.25005 0.28113 0.0
C150 C 0.9587 0.26407 0.28699 0.0
C151 C 0.99511 0.20912 0.29863 0.0
N152 N 0.96418 0.22285 0.30435 0.0
H153 H 0.91808 0.25745 0.30269 0.0
H154 H 0.00508 0.18253 0.30228 0.0
H155 H 0.86795 0.13831 0.2966 0.0
H156 H 0.91436 0.07788 0.32349 0.0
O157 O 0.86998 0.18821 0.31865 0.0
O158 O 0.89541 0.15609 0.33267 0.0
O159 O 0.9961 0.18181 0.32262 0.0
C160 C 0.85968 0.1631 0.32833 0.0
H161 H 0.00806 0.31569 0.3519 0.0
H162 H 0.82477 0.03793 0.29335 0.0
H163 H 0.03607 0.21315 0.28342 0.0
H164 H 0.94121 0.28284 0.28249 0.0
Co165 Co 0.81766 0.74197 0.31767 0.0
C166 C 0.71101 0.66281 0.32467 0.0
C167 C 0.73879 0.73466 0.33336 0.0
C168 C 0.6926 0.70011 0.33813 0.0
N169 N 0.75003 0.71204 0.32466 0.0
N170 N 0.67528 0.65524 0.33263 0.0
H171 H 0.71045 0.63207 0.31977 0.0
H172 H 0.76401 0.77291 0.33656 0.0
C173 C 0.79561 0.82711 0.3161 0.0
O174 O 0.75015 0.79302 0.31221 0.0
N175 N 0.88619 0.77197 0.31156 0.0
C176 C 0.90319 0.75188 0.30351 0.0
C177 C 0.95595 0.77958 0.30342 0.0
C178 C 0.92844 0.81129 0.31628 0.0
N179 N 0.97167 0.81672 0.3115 0.0
C180 C 0.75319 0.69246 0.29743 0.0
C181 C 0.8015 0.77842 0.28361 0.0
C182 C 0.76091 0.73365 0.27899 0.0
C183 C 0.73639 0.69019 0.28604 0.0
C184 C 0.8164 0.77927 0.295 0.0
N185 N 0.79169 0.73712 0.30194 0.0
H186 H 0.73624 0.65787 0.30241 0.0
H187 H 0.8486 0.8142 0.29821 0.0
H188 H 0.87902 0.71802 0.29846 0.0
H189 H 0.92753 0.83322 0.32358 0.0
O190 O 0.81598 0.67731 0.31871 0.0
O191 O 0.84427 0.73666 0.33241 0.0
O192 O 0.8272 0.81294 0.31928 0.0
C193 C 0.83799 0.69307 0.32873 0.0
H194 H 0.67403 0.70668 0.34539 0.0
H195 H 0.9808 0.77217 0.29802 0.0
H196 H 0.82187 0.81268 0.27842 0.0
H197 H 0.70584 0.65439 0.28265 0.0
Co198 Co 0.92899 0.74475 0.81675 0.0
C199 C 0.95874 0.66637 0.82318 0.0
C200 C 0.98861 0.73139 0.8345 0.0
C201 C 1.00082 0.69682 0.83898 0.0
N202 N 0.96284 0.7129 0.82451 0.0
N203 N 0.98215 0.65629 0.83186 0.0
H204 H 0.93692 0.63906 0.81654 0.0
H205 H 0.99614 0.76689 0.83851 0.0
C206 C 0.03921 0.82557 0.81676 0.0
O207 O 0.04957 0.7892 0.81427 0.0
N208 N 0.89464 0.77713 0.80976 0.0
C209 C 0.85924 0.75825 0.80133 0.0
C210 C 0.83458 0.78633 0.80104 0.0
C211 C 0.89127 0.81617 0.81446 0.0
N212 N 0.85464 0.82245 0.80937 0.0
C213 C 0.93057 0.68788 0.79669 0.0
C214 C 0.99259 0.77283 0.78344 0.0
C215 C 0.97486 0.72421 0.7787 0.0
C216 C 0.94261 0.68124 0.78536 0.0
C217 C 0.97849 0.77769 0.7946 0.0
N218 N 0.95029 0.73569 0.80139 0.0
H219 H 0.90345 0.65462 0.80146 0.0
H220 H 0.98884 0.81557 0.79756 0.0
H221 H 0.84972 0.72446 0.79628 0.0
H222 H 0.91224 0.83665 0.82209 0.0
O223 O 0.86404 0.68194 0.81786 0.0
O224 O 0.89563 0.74278 0.83118 0.0
O225 O 0.99275 0.81432 0.81842 0.0
C226 C 0.85775 0.6992 0.82765 0.0
H227 H 0.0205 0.70029 0.84703 0.0
H228 H 0.80305 0.77943 0.79544 0.0
H229 H 0.01523 0.80697 0.77834 0.0
H230 H 0.92626 0.64303 0.78179 0.0
Co231 Co 0.26379 0.18485 0.81726 0.0
C232 C 0.3324 0.28918 0.82616 0.0
C233 C 0.26077 0.25059 0.83526 0.0
C234 C 0.29259 0.29579 0.84088 0.0
N235 N 0.28581 0.24648 0.82608 0.0
N236 N 0.33741 0.31976 0.83515 0.0
H237 H 0.36282 0.29627 0.82018 0.0
H238 H 0.22304 0.22141 0.83802 0.0
C239 C 0.16396 0.15934 0.80732 0.0
O240 O 0.18205 0.15107 0.79775 0.0
N241 N 0.2406 0.12013 0.80919 0.0
C242 C 0.26893 0.10295 0.80383 0.0
C243 C 0.24067 0.05041 0.80293 0.0
C244 C 0.19631 0.07709 0.81186 0.0
N245 N 0.19505 0.03416 0.80808 0.0
C246 C 0.31002 0.22043 0.79456 0.0
C247 C 0.26293 0.27742 0.79057 0.0
C248 C 0.2852 0.26609 0.78126 0.0
C249 C 0.31172 0.23984 0.7835 0.0
C250 C 0.2622 0.25733 0.80143 0.0
N251 N 0.28128 0.22511 0.80304 0.0
H252 H 0.33055 0.20052 0.79613 0.0
H253 H 0.24246 0.26434 0.80834 0.0
H254 H 0.30925 0.12535 0.80194 0.0
H255 H 0.16776 0.07691 0.81753 0.0
O256 O 0.32811 0.18806 0.82043 0.0
O257 O 0.25845 0.14865 0.83132 0.0
O258 O 0.19161 0.17344 0.81646 0.0
C259 C 0.30543 0.15974 0.82941 0.0
H260 H 0.28399 0.30955 0.84872 0.0
H261 H 0.25421 0.02602 0.79946 0.0
H262 H 0.24384 0.2994 0.78935 0.0
H263 H 0.33102 0.23169 0.77665 0.0
Co264 Co 0.81556 0.07326 0.81821 0.0
C265 C 0.70842 0.04427 0.82559 0.0
C266 C 0.75057 0.02713 0.83797 0.0
C267 C 0.70512 0.01682 0.84289 0.0
N268 N 0.7529 0.0442 0.82713 0.0
N269 N 0.67878 0.02763 0.83513 0.0
H270 H 0.69868 0.05824 0.818 0.0
H271 H 0.78096 0.02412 0.84217 0.0
C272 C 0.78723 0.96378 0.82128 0.0
O273 O 0.73917 0.95099 0.81965 0.0
N274 N 0.87922 0.10295 0.8099 0.0
C275 C 0.89119 0.13082 0.80016 0.0
C276 C 0.94158 0.14736 0.79751 0.0
C277 C 0.92228 0.10342 0.81316 0.0
N278 N 0.96101 0.13021 0.80572 0.0
C279 C 0.75384 0.06418 0.79805 0.0
C280 C 0.77461 0.99653 0.78649 0.0
C281 C 0.75024 0.01837 0.78043 0.0
C282 C 0.7385 0.05169 0.78646 0.0
C283 C 0.79126 0.01179 0.7977 0.0
N284 N 0.77997 0.04421 0.80359 0.0
H285 H 0.74826 0.09301 0.80223 0.0
H286 H 0.81719 1.00049 0.80114 0.0
H287 H 0.86535 0.13916 0.79543 0.0
H288 H 0.92509 0.08453 0.82082 0.0
O289 O 0.81933 0.13933 0.81791 0.0
O290 O 0.85212 0.11281 0.83155 0.0
O291 O 0.82199 0.01101 0.82143 0.0
C292 C 0.84596 0.14932 0.82738 0.0
H293 H 0.69251 0.00307 0.85156 0.0
H294 H 0.96259 0.17108 0.79025 0.0
H295 H 0.78432 0.97028 0.78237 0.0
H296 H 0.7207 0.07047 0.78209 0.0
Co297 Co 0.74114 0.93249 0.69261 0.0
C298 C 0.66152 0.96036 0.68579 0.0
C299 C 0.71994 0.97789 0.67312 0.0
C300 C 0.68413 0.98765 0.66841 0.0
N301 N 0.70621 0.96095 0.68402 0.0
N302 N 0.64753 0.97658 0.67634 0.0
H303 H 0.63845 0.94633 0.69347 0.0
H304 H 0.75314 0.98118 0.66875 0.0
C305 C 0.82055 0.04227 0.68932 0.0
O306 O 0.78453 0.05379 0.69121 0.0
N307 N 0.77637 0.90314 0.70051 0.0
C308 C 0.76012 0.87282 0.70989 0.0
C309 C 0.78923 0.84956 0.71104 0.0
C310 C 0.81494 0.89817 0.6961 0.0
N311 N 0.8234 0.86541 0.70232 0.0
C312 C 0.69002 0.94097 0.71311 0.0
C313 C 0.77927 0.00916 0.72434 0.0
C314 C 0.73346 0.98721 0.7306 0.0
C315 C 0.688 0.95357 0.72474 0.0
C316 C 0.77986 0.99382 0.7131 0.0
N317 N 0.73571 0.96116 0.70738 0.0
H318 H 0.65533 0.91201 0.70904 0.0
H319 H 0.81687 0.00553 0.70944 0.0
H320 H 0.72734 0.86554 0.71506 0.0
H321 H 0.83349 0.91491 0.68799 0.0
O322 O 0.6792 0.86613 0.69312 0.0
O323 O 0.73698 0.89303 0.67913 0.0
O324 O 0.80925 0.99536 0.68916 0.0
C325 C 0.69504 0.85621 0.68352 0.0
H326 H 0.68442 1.00118 0.65976 0.0
H327 H 0.78433 0.82168 0.71751 0.0
H328 H 0.81551 0.03571 0.72832 0.0
H329 H 0.65172 0.93467 0.72925 0.0
Co330 Co 0.07171 0.81909 0.69321 0.0
C331 C 0.04275 0.71332 0.68495 0.0
C332 C 0.01548 0.75246 0.67421 0.0
C333 C 0.00548 0.70805 0.66876 0.0
N334 N 0.03847 0.75587 0.68442 0.0
N335 N 0.02269 0.68364 0.6755 0.0
H336 H 0.06274 0.70541 0.69161 0.0
H337 H 0.00879 0.78178 0.6707 0.0
C338 C 0.96271 0.79343 0.69236 0.0
O339 O 0.94959 0.74557 0.69442 0.0
N340 N 0.10542 0.88346 0.70131 0.0
C341 C 0.13671 0.89594 0.71049 0.0
C342 C 0.15847 0.94778 0.71245 0.0
C343 C 0.10853 0.92744 0.69777 0.0
N344 N 0.14086 0.9675 0.7044 0.0
C345 C 0.06488 0.75478 0.71252 0.0
C346 C 0.00289 0.77743 0.7259 0.0
C347 C 0.01986 0.74575 0.73047 0.0
C348 C 0.05185 0.73489 0.72373 0.0
C349 C 0.01804 0.79765 0.71488 0.0
N350 N 0.04662 0.78445 0.70804 0.0
H351 H 0.092 0.74869 0.70773 0.0
H352 H 0.00878 0.82621 0.71217 0.0
H353 H 0.14456 0.86961 0.71515 0.0
H354 H 0.08974 0.93039 0.69011 0.0
O355 O 0.1363 0.82031 0.69233 0.0
O356 O 0.10765 0.85403 0.6794 0.0
O357 O 0.0099 0.82734 0.69128 0.0
C358 C 0.14424 0.8463 0.68284 0.0
H359 H 0.98789 0.69508 0.66038 0.0
H360 H 0.18593 0.96938 0.71913 0.0
H361 H 0.98044 0.78895 0.73107 0.0
H362 H 0.06755 0.71232 0.7272 0.0
Co363 Co 0.18321 0.26545 0.6946 0.0
C364 C 0.29055 0.34327 0.68779 0.0
C365 C 0.26659 0.26866 0.68092 0.0
C366 C 0.31502 0.30159 0.67695 0.0
N367 N 0.25182 0.29396 0.68817 0.0
N368 N 0.32981 0.34824 0.68127 0.0
H369 H 0.28946 0.3753 0.69166 0.0
H370 H 0.24304 0.22927 0.67823 0.0
C371 C 0.20404 0.18013 0.69826 0.0
O372 O 0.24829 0.2147 0.70261 0.0
N373 N 0.114 0.23691 0.70017 0.0
C374 C 0.09607 0.25865 0.70757 0.0
C375 C 0.04333 0.23096 0.70735 0.0
C376 C 0.07236 0.19669 0.69552 0.0
N377 N 0.0286 0.19222 0.69972 0.0
C378 C 0.24645 0.3183 0.71475 0.0
C379 C 0.19527 0.23583 0.72945 0.0
C380 C 0.23685 0.28081 0.73372 0.0
C381 C 0.2627 0.32253 0.72624 0.0
C382 C 0.18095 0.23296 0.71795 0.0
N383 N 0.20718 0.27328 0.71059 0.0
H384 H 0.2648 0.35164 0.70937 0.0
H385 H 0.14845 0.19775 0.71494 0.0
H386 H 0.11966 0.29348 0.71237 0.0
H387 H 0.07417 0.17328 0.68866 0.0
O388 O 0.18564 0.33003 0.69258 0.0
O389 O 0.15846 0.26852 0.67942 0.0
O390 O 0.17348 0.19391 0.69409 0.0
C391 C 0.16459 0.31277 0.68254 0.0
H392 H 0.33702 0.29258 0.67098 0.0
H393 H 0.01785 0.23939 0.71223 0.0
H394 H 0.17404 0.20279 0.73495 0.0
H395 H 0.29418 0.35845 0.72933 0.0
Co396 Co 0.75034 0.59657 0.52814 0.0
C397 C 0.71993 0.67344 0.52094 0.0
C398 C 0.67041 0.59834 0.51416 0.0
C399 C 0.65435 0.63045 0.51 0.0
N400 N 0.71009 0.6244 0.52148 0.0
N401 N 0.68545 0.67743 0.51427 0.0
H402 H 0.75259 0.70591 0.52483 0.0
H403 H 0.65529 0.55898 0.51154 0.0
C404 C 0.64443 0.51046 0.53162 0.0
O405 O 0.63387 0.54447 0.53592 0.0
N406 N 0.79087 0.56825 0.5339 0.0
C407 C 0.83047 0.58995 0.54132 0.0
C408 C 0.85507 0.56181 0.54121 0.0
C409 C 0.7919 0.52766 0.52936 0.0
N410 N 0.83082 0.52284 0.53364 0.0
C411 C 0.73774 0.64904 0.54809 0.0
C412 C 0.7068 0.56709 0.56293 0.0
C413 C 0.7091 0.61175 0.56707 0.0
C414 C 0.72481 0.6532 0.55952 0.0
C415 C 0.71913 0.56425 0.55149 0.0
N416 N 0.7331 0.60431 0.54406 0.0
H417 H 0.75248 0.68219 0.54266 0.0
H418 H 0.71709 0.52923 0.54858 0.0
H419 H 0.84196 0.62498 0.54605 0.0
H420 H 0.76666 0.5042 0.52251 0.0
O421 O 0.81245 0.66135 0.52623 0.0
O422 O 0.77908 0.59972 0.51307 0.0
O423 O 0.68905 0.52491 0.52754 0.0
C424 C 0.817 0.644 0.51627 0.0
H425 H 0.62351 0.62069 0.50394 0.0
H426 H 0.88883 0.5701 0.54614 0.0
H427 H 0.69511 0.53424 0.56849 0.0
H428 H 0.72842 0.68891 0.5625 0.0
Co429 Co 0.41429 0.15018 0.52572 0.0
C430 C 0.33567 0.0432 0.51826 0.0
C431 C 0.39317 0.08656 0.50559 0.0
C432 C 0.35761 0.04132 0.50066 0.0
N433 N 0.37978 0.08804 0.51662 0.0
N434 N 0.32154 0.01421 0.50858 0.0
H435 H 0.31317 0.03269 0.52606 0.0
H436 H 0.42599 0.11733 0.50131 0.0
C437 C 0.49473 0.1217 0.52166 0.0
O438 O 0.45951 0.07352 0.52318 0.0
N439 N 0.44911 0.21341 0.53423 0.0
C440 C 0.43345 0.22487 0.54409 0.0
C441 C 0.46429 0.27637 0.54624 0.0
C442 C 0.48896 0.25773 0.53049 0.0
N443 N 0.49894 0.29695 0.53765 0.0
C444 C 0.36261 0.08887 0.54594 0.0
C445 C 0.45135 0.10726 0.55697 0.0
C446 C 0.40588 0.08503 0.56334 0.0
C447 C 0.36056 0.07427 0.55756 0.0
C448 C 0.45213 0.12359 0.54577 0.0
N449 N 0.40825 0.11374 0.54016 0.0
H450 H 0.32814 0.08397 0.54193 0.0
H451 H 0.4893 0.1484 0.54215 0.0
H452 H 0.40052 0.19822 0.54907 0.0
H453 H 0.50804 0.2617 0.52234 0.0
O454 O 0.35226 0.15445 0.5264 0.0
O455 O 0.41097 0.18746 0.51262 0.0
O456 O 0.4825 0.15656 0.52206 0.0
C457 C 0.36861 0.18136 0.51697 0.0
H458 H 0.35788 0.02927 0.49187 0.0
H459 H 0.46056 0.29729 0.55341 0.0
H460 H 0.48742 0.11582 0.56085 0.0
H461 H 0.32449 0.0579 0.56214 0.0
Co462 Co 0.85631 0.26153 0.52555 0.0
C463 C 0.96594 0.29152 0.52041 0.0
C464 C 0.9296 0.31274 0.50736 0.0
C465 C 0.97739 0.32525 0.50352 0.0
N466 N 0.92234 0.29211 0.51799 0.0
N467 N 1.0 0.31199 0.51171 0.0
H468 H 0.97222 0.27479 0.528 0.0
H469 H 0.90118 0.317 0.50258 0.0
C470 C 0.88735 0.37171 0.52322 0.0
O471 O 0.93399 0.38233 0.52589 0.0
N472 N 0.78929 0.23015 0.5324 0.0
C473 C 0.77257 0.19778 0.54143 0.0
C474 C 0.71989 0.17354 0.54171 0.0
C475 C 0.747 0.22542 0.52733 0.0
N476 N 0.70404 0.19082 0.53279 0.0
C477 C 0.91136 0.26853 0.54675 0.0
C478 C 0.88577 0.33385 0.55776 0.0
C479 C 0.91118 0.31388 0.56413 0.0
C480 C 0.92484 0.28132 0.55841 0.0
C481 C 0.87127 0.31848 0.54646 0.0
N482 N 0.8856 0.28783 0.54082 0.0
H483 H 0.91861 0.24042 0.54277 0.0
H484 H 0.8455 0.32905 0.54257 0.0
H485 H 0.79669 0.18989 0.54694 0.0
H486 H 0.74753 0.2438 0.51929 0.0
O487 O 0.8527 0.19568 0.52596 0.0
O488 O 0.82545 0.22394 0.51153 0.0
O489 O 0.85172 0.32495 0.5222 0.0
C490 C 0.82961 0.18671 0.51603 0.0
H491 H 0.99402 0.34173 0.49524 0.0
H492 H 0.6951 0.14415 0.54773 0.0
H493 H 0.87445 0.35937 0.56163 0.0
H494 H 0.94313 0.26363 0.56302 0.0
Co495 Co 0.92506 0.40937 0.65163 0.0
C496 C 0.00409 0.38052 0.65805 0.0
C497 C 0.94559 0.36111 0.67081 0.0
C498 C 0.9815 0.35071 0.67525 0.0
N499 N 0.95929 0.37949 0.66001 0.0
N500 N 0.01804 0.36286 0.66725 0.0
H501 H 0.02752 0.39623 0.65048 0.0
H502 H 0.91256 0.35749 0.67532 0.0
C503 C 0.84321 0.30031 0.65491 0.0
O504 O 0.8778 0.287 0.65283 0.0
N505 N 0.89091 0.44007 0.64375 0.0
C506 C 0.90682 0.46836 0.63407 0.0
C507 C 0.87306 0.48502 0.63152 0.0
C508 C 0.84828 0.44043 0.64708 0.0
N509 N 0.83638 0.46752 0.63971 0.0
C510 C 0.97438 0.39913 0.63098 0.0
C511 C 0.88408 0.3315 0.62004 0.0
C512 C 0.92961 0.3519 0.6137 0.0
C513 C 0.97556 0.38542 0.61942 0.0
C514 C 0.88438 0.34798 0.63121 0.0
N515 N 0.92904 0.38008 0.63682 0.0
H516 H 0.00949 0.42804 0.63491 0.0
H517 H 0.84773 0.33755 0.6349 0.0
H518 H 0.94089 0.4767 0.62928 0.0
H519 H 0.82638 0.42107 0.65469 0.0
O520 O 0.98796 0.47484 0.65108 0.0
O521 O 0.93048 0.44897 0.66513 0.0
O522 O 0.85631 0.34769 0.65519 0.0
C523 C 0.9729 0.48511 0.66075 0.0
H524 H 0.98161 0.33654 0.68381 0.0
H525 H 0.8758 0.50893 0.6243 0.0
H526 H 0.84745 0.30515 0.61619 0.0
H527 H 0.01166 0.4033 0.61484 0.0
Co528 Co 0.58793 0.5224 0.65098 0.0
C529 C 0.62295 0.62716 0.65961 0.0
C530 C 0.65758 0.58998 0.66864 0.0
C531 C 0.67126 0.63561 0.67409 0.0
N532 N 0.62727 0.58471 0.65962 0.0
N533 N 0.64947 0.65873 0.6684 0.0
H534 H 0.59886 0.63348 0.65371 0.0
H535 H 0.6669 0.56138 0.67141 0.0
C536 C 0.66292 0.49758 0.64099 0.0
O537 O 0.6362 0.48836 0.63145 0.0
N538 N 0.54681 0.45721 0.64309 0.0
C539 C 0.50071 0.43919 0.63795 0.0
C540 C 0.47626 0.38658 0.6375 0.0
C541 C 0.54841 0.41467 0.64602 0.0
N542 N 0.50617 0.37121 0.6427 0.0
C543 C 0.57531 0.55579 0.62813 0.0
C544 C 0.67922 0.61305 0.62385 0.0
C545 C 0.6452 0.60009 0.61457 0.0
C546 C 0.59248 0.57379 0.61694 0.0
C547 C 0.6604 0.59436 0.63483 0.0
N548 N 0.60923 0.5619 0.63662 0.0
H549 H 0.53491 0.53573 0.62979 0.0
H550 H 0.68756 0.60245 0.64172 0.0
H551 H 0.48237 0.46115 0.63605 0.0
H552 H 0.57725 0.41538 0.65168 0.0
O553 O 0.52564 0.52364 0.6545 0.0
O554 O 0.55901 0.48658 0.66513 0.0
O555 O 0.64956 0.51235 0.65005 0.0
C556 C 0.52173 0.49576 0.66345 0.0
H557 H 0.6945 0.65027 0.68178 0.0
H558 H 0.43776 0.36163 0.63437 0.0
H559 H 0.72024 0.63515 0.62252 0.0
H560 H 0.56469 0.56448 0.61012 0.0
Co561 Co 0.48066 0.08334 0.65192 0.0
C562 C 0.37292 0.00418 0.65841 0.0
C563 C 0.4097 0.0673 0.67022 0.0
C564 C 0.36407 0.0316 0.67494 0.0
N565 N 0.41535 0.05068 0.65981 0.0
N566 N 0.34118 0.99213 0.66755 0.0
H567 H 0.36657 0.97824 0.65138 0.0
H568 H 0.43831 0.10211 0.67436 0.0
C569 C 0.45201 0.16429 0.65333 0.0
O570 O 0.40495 0.12828 0.65094 0.0
N571 N 0.54727 0.11636 0.64483 0.0
C572 C 0.56292 0.09868 0.63597 0.0
C573 C 0.61564 0.12645 0.6355 0.0
C574 C 0.59022 0.15442 0.6496 0.0
N575 N 0.6326 0.1612 0.64413 0.0
C576 C 0.4227 0.03168 0.6312 0.0
C577 C 0.45115 0.12085 0.61914 0.0
C578 C 0.42408 0.07421 0.61324 0.0
C579 C 0.40888 0.02895 0.6195 0.0
C580 C 0.46584 0.12189 0.63052 0.0
N581 N 0.4504 0.07789 0.63665 0.0
H582 H 0.41422 0.99681 0.63558 0.0
H583 H 0.49267 0.15877 0.63406 0.0
H584 H 0.53804 0.06588 0.63071 0.0
H585 H 0.59053 0.17387 0.65748 0.0
O586 O 0.48209 0.02002 0.65218 0.0
O587 O 0.51197 0.07852 0.66604 0.0
O588 O 0.48719 0.15269 0.65451 0.0
C589 C 0.50567 0.03542 0.66204 0.0
H590 H 0.34932 0.03365 0.68332 0.0
H591 H 0.63967 0.12032 0.62954 0.0
H592 H 0.46364 0.15705 0.61485 0.0
H593 H 0.38913 0.99198 0.61528 0.0
Co594 Co 0.58909 0.0731 0.14916 0.0
C595 C 0.61919 0.99922 0.15767 0.0
C596 C 0.66977 0.07573 0.16379 0.0
C597 C 0.68707 0.04423 0.16783 0.0
N598 N 0.62769 0.04766 0.15731 0.0
N599 N 0.65516 0.99636 0.16401 0.0
H600 H 0.58818 0.96713 0.15322 0.0
H601 H 0.687 0.11635 0.16541 0.0
C602 C 0.66939 0.17122 0.13906 0.0
O603 O 0.64347 0.15503 0.12938 0.0
N604 N 0.54896 0.09939 0.14161 0.0
C605 C 0.50003 0.07198 0.13779 0.0
C606 C 0.48023 0.10407 0.1364 0.0
C607 C 0.55709 0.14754 0.14284 0.0
N608 N 0.51643 0.15145 0.13952 0.0
C609 C 0.57206 0.02889 0.12611 0.0
C610 C 0.67438 0.06416 0.12163 0.0
C611 C 0.63943 0.04487 0.11248 0.0
C612 C 0.58726 0.0246 0.11495 0.0
C613 C 0.65758 0.06768 0.13262 0.0
N614 N 0.60754 0.05387 0.13456 0.0
H615 H 0.53201 0.01371 0.12779 0.0
H616 H 0.68581 0.08544 0.13936 0.0
H617 H 0.47812 0.03078 0.13705 0.0
H618 H 0.59026 0.17842 0.14701 0.0
O619 O 0.52665 0.01034 0.15258 0.0
O620 O 0.5609 0.07967 0.16363 0.0
O621 O 0.65269 0.14381 0.1482 0.0
C622 C 0.52316 0.03341 0.16174 0.0
H623 H 0.72037 0.05541 0.17321 0.0
H624 H 0.44165 0.09314 0.13377 0.0
H625 H 0.71485 0.07877 0.12021 0.0
H626 H 0.55869 0.00829 0.1082 0.0
Co627 Co 0.92956 0.51859 0.14959 0.0
C628 C 1.00155 0.6228 0.15843 0.0
C629 C 0.92915 0.5866 0.16725 0.0
C630 C 0.96158 0.63156 0.17286 0.0
N631 N 0.9542 0.58104 0.15826 0.0
N632 N 0.00689 0.65408 0.16732 0.0
H633 H 0.03209 0.62875 0.1526 0.0
H634 H 0.8908 0.55852 0.1699 0.0
C635 C 0.82739 0.49254 0.14048 0.0
O636 O 0.84034 0.4784 0.13094 0.0
N637 N 0.90325 0.45334 0.14155 0.0
C638 C 0.9227 0.43873 0.1328 0.0
C639 C 0.89032 0.38738 0.13063 0.0
C640 C 0.86054 0.41 0.14483 0.0
N641 N 0.85128 0.36947 0.13821 0.0
C642 C 0.98768 0.55997 0.12862 0.0
C643 C 0.93338 0.60537 0.12082 0.0
C644 C 0.96594 0.59954 0.11309 0.0
C645 C 0.99573 0.57937 0.11739 0.0
C646 C 0.92694 0.58574 0.13199 0.0
N647 N 0.94963 0.55828 0.13528 0.0
H648 H 0.01069 0.54437 0.13178 0.0
H649 H 0.90162 0.59056 0.13778 0.0
H650 H 0.95812 0.46238 0.12835 0.0
H651 H 0.83596 0.40859 0.15179 0.0
O652 O 0.99199 0.51799 0.15284 0.0
O653 O 0.92243 0.48207 0.16378 0.0
O654 O 0.85889 0.51098 0.14893 0.0
C655 C 0.96866 0.49075 0.16188 0.0
H656 H 0.95304 0.64618 0.18056 0.0
H657 H 0.89552 0.3648 0.12408 0.0
H658 H 0.9107 0.62219 0.11813 0.0
H659 H 0.02376 0.57692 0.11201 0.0
Co660 Co 0.48363 0.4134 0.15032 0.0
C661 C 0.37941 0.38232 0.15905 0.0
C662 C 0.41555 0.34708 0.16827 0.0
C663 C 0.36987 0.33394 0.17359 0.0
N664 N 0.42155 0.37741 0.15921 0.0
N665 N 0.34735 0.35602 0.16778 0.0
H666 H 0.37333 0.40606 0.15301 0.0
H667 H 0.44346 0.33685 0.17107 0.0
C668 C 0.49871 0.33157 0.14006 0.0
O669 O 0.50998 0.35775 0.13041 0.0
N670 N 0.54867 0.45094 0.14213 0.0
C671 C 0.57075 0.49919 0.13788 0.0
C672 C 0.62237 0.51767 0.13628 0.0
C673 C 0.58813 0.44211 0.14345 0.0
N674 N 0.63276 0.48136 0.13972 0.0
C675 C 0.45307 0.43098 0.12775 0.0
C676 C 0.38767 0.32837 0.12314 0.0
C677 C 0.40338 0.36339 0.11401 0.0
C678 C 0.43402 0.41569 0.11656 0.0
C679 C 0.40745 0.34533 0.13416 0.0
N680 N 0.44336 0.39546 0.13611 0.0
H681 H 0.4773 0.47108 0.12951 0.0
H682 H 0.39717 0.31724 0.14092 0.0
H683 H 0.55239 0.52191 0.1371 0.0
H684 H 0.58547 0.4096 0.148 0.0
O685 O 0.48777 0.47801 0.15415 0.0
O686 O 0.52199 0.44054 0.16435 0.0
O687 O 0.48691 0.34786 0.1491 0.0
C688 C 0.516 0.47999 0.16287 0.0
H689 H 0.35453 0.31052 0.18122 0.0
H690 H 0.65044 0.55556 0.13334 0.0
H691 H 0.36262 0.28778 0.12164 0.0
H692 H 0.446 0.44428 0.10983 0.0
Co693 Co 0.40861 0.26013 0.02783 0.0
C694 C 0.32966 0.28699 0.02017 0.0
C695 C 0.40141 0.32907 0.01136 0.0
C696 C 0.36712 0.34049 0.00635 0.0
N697 N 0.37865 0.29652 0.02025 0.0
N698 N 0.32232 0.31421 0.01193 0.0
H699 H 0.29883 0.25792 0.02522 0.0
H700 H 0.43967 0.34151 0.00826 0.0
C701 C 0.49235 0.36847 0.02937 0.0
O702 O 0.45726 0.37936 0.03273 0.0
N703 N 0.43876 0.22308 0.03463 0.0
C704 C 0.41859 0.18737 0.04296 0.0
C705 C 0.4477 0.16404 0.04388 0.0
C706 C 0.47952 0.221 0.03055 0.0
N707 N 0.48583 0.1851 0.03603 0.0
C708 C 0.35412 0.27086 0.04753 0.0
C709 C 0.4385 0.31379 0.06194 0.0
C710 C 0.39165 0.30544 0.0662 0.0
C711 C 0.34899 0.28387 0.05888 0.0
C712 C 0.44213 0.30117 0.05056 0.0
N713 N 0.40068 0.28123 0.04333 0.0
H714 H 0.3202 0.25042 0.04238 0.0
H715 H 0.47842 0.30627 0.04767 0.0
H716 H 0.38401 0.17764 0.0477 0.0
H717 H 0.50214 0.24317 0.02327 0.0
O718 O 0.34473 0.19632 0.02647 0.0
O719 O 0.40609 0.22777 0.01327 0.0
O720 O 0.47931 0.32249 0.02655 0.0
C721 C 0.36211 0.19018 0.01667 0.0
H722 H 0.37388 0.36475 0.99892 0.0
H723 H 0.44068 0.13321 0.04971 0.0
H724 H 0.47206 0.32934 0.06742 0.0
H725 H 0.31171 0.27517 0.06205 0.0
Co726 Co 0.74388 0.1491 0.02655 0.0
C727 C 0.7144 0.0427 0.01862 0.0
C728 C 0.67846 0.07708 0.00912 0.0
C729 C 0.6668 0.03183 1.00384 0.0
N730 N 0.70753 0.0838 0.01854 0.0
N731 N 0.68932 0.01037 0.00982 0.0
H732 H 0.74016 0.03805 0.02425 0.0
H733 H 0.66869 0.10476 0.00592 0.0
C734 C 0.63541 0.12405 0.02758 0.0
O735 O 0.62433 0.07749 0.03047 0.0
N736 N 0.78085 0.21537 0.03375 0.0
C737 C 0.81631 0.23003 0.04214 0.0
C738 C 0.83994 0.28246 0.0433 0.0
C739 C 0.78329 0.25858 0.0299 0.0
N740 N 0.8192 0.30023 0.03556 0.0
C741 C 0.73395 0.0838 0.04613 0.0
C742 C 0.68773 0.12242 0.06037 0.0
C743 C 0.69772 0.08518 0.06469 0.0
C744 C 0.72103 0.06553 0.05747 0.0
C745 C 0.70052 0.13897 0.04905 0.0
N746 N 0.72191 0.1187 0.04188 0.0
H747 H 0.75594 0.07185 0.04106 0.0
H748 H 0.69484 0.16981 0.04619 0.0
H749 H 0.82576 0.20465 0.04673 0.0
H750 H 0.76145 0.25972 0.02262 0.0
O751 O 0.80775 0.14893 0.02515 0.0
O752 O 0.77678 0.1802 0.01217 0.0
O753 O 0.68174 0.15777 0.02526 0.0
C754 C 0.81406 0.17318 0.01545 0.0
H755 H 0.64472 0.01644 0.99602 0.0
H756 H 0.87077 0.30576 0.0492 0.0
H757 H 0.67114 0.13957 0.06582 0.0
H758 H 0.7312 0.03815 0.06072 0.0
Co759 Co 0.85495 0.59365 0.02726 0.0
C760 C 0.96125 0.6705 0.01928 0.0
C761 C 0.9244 0.60185 0.00914 0.0
C762 C 0.96912 0.63582 1.00376 0.0
N763 N 0.91944 0.62298 0.01897 0.0
N764 N 0.99209 0.6788 0.01013 0.0
H765 H 0.96759 0.69986 0.02545 0.0
H766 H 0.89583 0.56506 0.00576 0.0
C767 C 0.88088 0.5109 0.02746 0.0
O768 O 0.92789 0.54649 0.03005 0.0
N769 N 0.78921 0.56371 0.03475 0.0
C770 C 0.77537 0.58364 0.04349 0.0
C771 C 0.72307 0.55457 0.04487 0.0
C772 C 0.74557 0.52317 0.03091 0.0
N773 N 0.70443 0.51674 0.03691 0.0
C774 C 0.92002 0.64979 0.04682 0.0
C775 C 0.88915 0.56415 0.06044 0.0
C776 C 0.92557 0.61188 0.06486 0.0
C777 C 0.94034 0.65537 0.05798 0.0
C778 C 0.8696 0.56045 0.04941 0.0
N779 N 0.88691 0.60243 0.04243 0.0
H780 H 0.92932 0.6837 0.04196 0.0
H781 H 0.83913 0.52352 0.04662 0.0
H782 H 0.80118 0.61804 0.04819 0.0
H783 H 0.74372 0.50083 0.02343 0.0
O784 O 0.85496 0.65753 0.02609 0.0
O785 O 0.82258 0.59524 0.01307 0.0
O786 O 0.84661 0.52323 0.02568 0.0
C787 C 0.83039 0.63978 0.01641 0.0
H788 H 0.98318 0.63003 0.99563 0.0
H789 H 0.70042 0.56148 0.05108 0.0
H790 H 0.87437 0.52983 0.06564 0.0
H791 H 0.96694 0.69327 0.06122 0.0
Co792 Co 0.404 0.9213 0.85935 0.0
C793 C 0.37525 1.00109 0.85383 0.0
C794 C 0.35024 0.94073 0.84131 0.0
C795 C 0.33916 0.9766 0.83719 0.0
N796 N 0.3723 0.95551 0.85179 0.0
N797 N 0.35483 0.01422 0.84505 0.0
H798 H 0.39415 0.02558 0.86112 0.0
H799 H 0.34452 0.90694 0.83676 0.0
C800 C 0.29384 0.84144 0.85761 0.0
O801 O 0.28331 0.87765 0.86014 0.0
N802 N 0.43664 0.88694 0.86619 0.0
C803 C 0.46962 0.90351 0.87512 0.0
C804 C 0.49443 0.87564 0.87538 0.0
C805 C 0.44161 0.84943 0.86116 0.0
N806 N 0.47693 0.84197 0.86654 0.0
C807 C 0.39845 0.97123 0.88042 0.0
C808 C 0.33467 0.8812 0.89188 0.0
C809 C 0.35482 0.92723 0.89805 0.0
C810 C 0.3866 0.97296 0.8921 0.0
C811 C 0.34922 0.88108 0.88055 0.0
N812 N 0.37905 0.92558 0.87469 0.0
H813 H 0.426 0.00631 0.87627 0.0
H814 H 0.33865 0.8444 0.87682 0.0
H815 H 0.47747 0.93574 0.88058 0.0
H816 H 0.42281 0.83097 0.85318 0.0
O817 O 0.4693 0.98413 0.85937 0.0
O818 O 0.44042 0.92715 0.84519 0.0
O819 O 0.34053 0.8526 0.85644 0.0
C820 C 0.47758 0.9695 0.84942 0.0
H821 H 0.32226 0.97603 0.82892 0.0
H822 H 0.52434 0.88101 0.88133 0.0
H823 H 0.30964 0.84467 0.89591 0.0
H824 H 0.40442 0.00944 0.89654 0.0
Co825 Co 0.07003 0.48329 0.86035 0.0
C826 C 1.00046 0.37813 0.85184 0.0
C827 C 0.07226 0.41566 0.84277 0.0
C828 C 0.04042 0.37005 0.83732 0.0
N829 N 0.04717 0.42073 0.85182 0.0
N830 N 0.99551 0.34671 0.84302 0.0
H831 H 0.96997 0.37165 0.85773 0.0
H832 H 0.11009 0.44446 0.83998 0.0
C833 C 0.17055 0.50951 0.87006 0.0
O834 O 0.15322 0.51904 0.87959 0.0
N835 N 0.09422 0.54884 0.86808 0.0
C836 C 0.06662 0.56702 0.87339 0.0
C837 C 0.0949 0.6197 0.87371 0.0
C838 C 0.13809 0.59128 0.86494 0.0
N839 N 0.13974 0.63487 0.8683 0.0
C840 C 0.02424 0.44983 0.88315 0.0
C841 C 0.07203 0.39392 0.88768 0.0
C842 C 0.04944 0.4058 0.89684 0.0
C843 C 0.02262 0.43152 0.89433 0.0
C844 C 0.07246 0.41272 0.87667 0.0
N845 N 0.05308 0.44451 0.87479 0.0
H846 H 0.00348 0.46935 0.88136 0.0
H847 H 0.09212 0.40503 0.86986 0.0
H848 H 0.02659 0.54503 0.87556 0.0
H849 H 0.16576 0.59035 0.85916 0.0
O850 O 0.00582 0.48061 0.85723 0.0
O851 O 0.07481 0.51831 0.84611 0.0
O852 O 0.14215 0.49427 0.86104 0.0
C853 C 0.02826 0.5083 0.84816 0.0
H854 H 0.04902 0.35557 0.8296 0.0
H855 H 0.08177 0.64479 0.87696 0.0
H856 H 0.09139 0.37235 0.88912 0.0
H857 H 0.00307 0.44002 0.90105 0.0
Co858 Co 0.5192 0.59403 0.85907 0.0
C859 C 0.62729 0.62399 0.85215 0.0
C860 C 0.58463 0.63795 0.83926 0.0
C861 C 0.63076 0.64901 0.8346 0.0
N862 N 0.58216 0.62236 0.85025 0.0
N863 N 0.65743 0.64026 0.84267 0.0
H864 H 0.63725 0.61164 0.85996 0.0
H865 H 0.554 0.63961 0.83481 0.0
C866 C 0.54755 0.70306 0.85524 0.0
O867 O 0.59562 0.71618 0.857 0.0
N868 N 0.45531 0.56507 0.86731 0.0
C869 C 0.4433 0.53784 0.87714 0.0
C870 C 0.393 0.52168 0.87978 0.0
C871 C 0.41229 0.56458 0.86398 0.0
N872 N 0.37359 0.53842 0.87148 0.0
C873 C 0.57992 0.60437 0.87948 0.0
C874 C 0.55974 0.67372 0.89043 0.0
C875 C 0.58324 0.65181 0.89681 0.0
C876 C 0.5947 0.61762 0.89108 0.0
C877 C 0.5435 0.65765 0.87923 0.0
N878 N 0.55446 0.62432 0.87365 0.0
H879 H 0.5854 0.57506 0.87551 0.0
H880 H 0.5181 0.66914 0.87556 0.0
H881 H 0.46907 0.52968 0.88196 0.0
H882 H 0.40949 0.58305 0.85624 0.0
O883 O 0.51531 0.52797 0.85979 0.0
O884 O 0.48294 0.55349 0.84584 0.0
O885 O 0.51284 0.65584 0.85537 0.0
C886 C 0.48884 0.51728 0.85028 0.0
H887 H 0.64361 0.6618 0.82589 0.0
H888 H 0.37203 0.49852 0.88711 0.0
H889 H 0.55046 0.70078 0.89428 0.0
H890 H 0.6119 0.59879 0.89567 0.0
Co891 Co 0.59374 0.73854 0.98503 0.0
C892 C 0.67453 0.71182 0.99136 0.0
C893 C 0.61272 0.68665 1.00347 0.0
C894 C 0.64892 0.6773 0.0081 0.0
N895 N 0.62817 0.70781 0.99294 0.0
N896 N 0.68758 0.69314 1.00052 0.0
H897 H 0.69959 0.73048 0.98415 0.0
H898 H 0.57828 0.68068 0.00774 0.0
C899 C 0.51377 0.62871 0.98721 0.0
O900 O 0.54957 0.61771 0.98459 0.0
N901 N 0.55883 0.77008 0.97792 0.0
C902 C 0.57511 0.80262 0.96893 0.0
C903 C 0.54662 0.82679 0.96853 0.0
C904 C 0.52087 0.77461 0.98284 0.0
N905 N 0.51283 0.80927 0.97733 0.0
C906 C 0.64321 0.73018 0.96418 0.0
C907 C 0.55283 0.66703 0.9527 0.0
C908 C 0.59877 0.68637 0.94655 0.0
C909 C 0.64469 0.7177 0.95252 0.0
C910 C 0.55299 0.68207 0.96402 0.0
N911 N 0.59763 0.71186 0.96986 0.0
H912 H 0.67848 0.75741 0.96833 0.0
H913 H 0.51644 0.67199 0.96775 0.0
H914 H 0.60756 0.81069 0.96354 0.0
H915 H 0.50255 0.75614 0.99084 0.0
O916 O 0.65636 0.80412 0.9847 0.0
O917 O 0.59976 0.77632 0.99895 0.0
O918 O 0.52529 0.67554 0.98823 0.0
C919 C 0.64175 0.81322 0.99456 0.0
H920 H 0.64774 0.6613 0.01652 0.0
H921 H 0.55172 0.85637 0.96251 0.0
H922 H 0.51619 0.64233 0.94866 0.0
H923 H 0.68115 0.73479 0.9481 0.0
Co924 Co 0.26529 0.85308 0.98587 0.0
C925 C 0.29403 0.961 0.99242 0.0
C926 C 0.31497 0.92229 1.00491 0.0
C927 C 0.32494 0.96825 0.00951 0.0
N928 N 0.29593 0.91758 0.99418 0.0
N929 N 0.31179 0.99242 1.00168 0.0
H930 H 0.27748 0.96847 0.98495 0.0
H931 H 0.31915 0.89301 0.00931 0.0
C932 C 0.37418 0.8801 0.98889 0.0
O933 O 0.38722 0.92787 0.98674 0.0
N934 N 0.2337 0.78764 0.97816 0.0
C935 C 0.20477 0.77478 0.96856 0.0
C936 C 0.18249 0.72278 0.96691 0.0
C937 C 0.22868 0.74354 0.98225 0.0
N938 N 0.19735 0.70319 0.97555 0.0
C939 C 0.27549 0.91214 0.96517 0.0
C940 C 0.3412 0.88727 0.95411 0.0
C941 C 0.32093 0.91245 0.94777 0.0
C942 C 0.28846 0.92608 0.95354 0.0
C943 C 0.32529 0.87189 0.96533 0.0
N944 N 0.29412 0.88549 0.97099 0.0
H945 H 0.24737 0.9193 0.96917 0.0
H946 H 0.33535 0.84545 0.96904 0.0
H947 H 0.19858 0.80102 0.9634 0.0
H948 H 0.24519 0.7407 0.9903 0.0
O949 O 0.20018 0.85112 0.98535 0.0
O950 O 0.22603 0.81988 0.99947 0.0
O951 O 0.32683 0.84574 0.98936 0.0
C952 C 0.19003 0.82634 0.99508 0.0
H953 H 0.33949 0.98242 0.01807 0.0
H954 H 0.15645 0.70093 0.96002 0.0
H955 H 0.36692 0.87624 0.95023 0.0
H956 H 0.27076 0.94448 0.94898 0.0
Co957 Co 0.15132 0.40424 0.98352 0.0
C958 C 0.04411 0.32576 0.99049 0.0
C959 C 0.07248 0.39797 0.99906 0.0
C960 C 0.02574 0.36414 1.00371 0.0
N961 N 0.08369 0.37471 0.9905 0.0
N962 N 0.00805 0.31905 0.99829 0.0
H963 H 0.0431 0.29466 0.98567 0.0
H964 H 0.09791 0.43625 1.00221 0.0
C965 C 0.12926 0.48957 0.98165 0.0
O966 O 0.08396 0.45548 0.97768 0.0
N967 N 0.21969 0.43399 0.97739 0.0
C968 C 0.23687 0.41358 0.96946 0.0
C969 C 0.2896 0.4418 0.9693 0.0
C970 C 0.26173 0.47395 0.98198 0.0
N971 N 0.30504 0.47954 0.97723 0.0
C972 C 0.08789 0.35262 0.96333 0.0
C973 C 0.13491 0.43772 0.94922 0.0
C974 C 0.09535 0.39205 0.94467 0.0
C975 C 0.07146 0.34905 0.95186 0.0
C976 C 0.14943 0.43986 0.96069 0.0
N977 N 0.12529 0.39811 0.96776 0.0
H978 H 0.07175 0.31837 0.96842 0.0
H979 H 0.18106 0.47537 0.96384 0.0
H980 H 0.21287 0.37926 0.96453 0.0
H981 H 0.26064 0.49631 0.98917 0.0
O982 O 0.15008 0.33975 0.98485 0.0
O983 O 0.17806 0.40003 0.99833 0.0
O984 O 0.16079 0.47538 0.98488 0.0
C985 C 0.17214 0.35634 0.99483 0.0
H986 H 0.00696 0.37136 0.01082 0.0
H987 H 0.31463 0.43438 0.96397 0.0
H988 H 0.1548 0.47168 0.94392 0.0
H989 H 0.04175 0.31261 0.94853 0.0
Co990 Co 0.26341 0.40783 0.48401 0.0
C991 C 0.29802 0.338 0.49265 0.0
C992 C 0.33364 0.41044 0.50149 0.0
C993 C 0.34669 0.37838 0.50706 0.0
N994 N 0.3031 0.38507 0.49251 0.0
N995 N 0.32422 0.33305 0.5015 0.0
H996 H 0.27341 0.30726 0.48685 0.0
H997 H 0.34333 0.44859 0.50418 0.0
C998 C 0.33892 0.50762 0.4741 0.0
O999 O 0.31178 0.4909 0.46459 0.0
N1000 N 0.22208 0.43199 0.47629 0.0
C1001 C 0.17596 0.40396 0.47115 0.0
C1002 C 0.15102 0.43167 0.47102 0.0
C1003 C 0.22334 0.47578 0.47949 0.0
N1004 N 0.18069 0.47667 0.47639 0.0
C1005 C 0.24932 0.35966 0.46146 0.0
C1006 C 0.35258 0.40678 0.45642 0.0
C1007 C 0.31718 0.3829 0.44748 0.0
C1008 C 0.26489 0.35645 0.45026 0.0
C1009 C 0.33527 0.40875 0.46747 0.0
N1010 N 0.28429 0.38975 0.46957 0.0
H1011 H 0.20922 0.33896 0.46347 0.0
H1012 H 0.36327 0.42909 0.47414 0.0
H1013 H 0.15794 0.36388 0.46902 0.0
H1014 H 0.25225 0.50376 0.48518 0.0
O1015 O 0.20196 0.34389 0.48729 0.0
O1016 O 0.23365 0.41333 0.4983 0.0
O1017 O 0.325 0.47958 0.48316 0.0
C1018 C 0.19712 0.36656 0.49638 0.0
H1019 H 0.36986 0.38715 0.51477 0.0
H1020 H 0.11237 0.41795 0.46799 0.0
H1021 H 0.39338 0.42588 0.45478 0.0
H1022 H 0.23613 0.33592 0.44372 0.0
Co1023 Co 0.60228 0.85247 0.48309 0.0
C1024 C 0.67456 0.95673 0.49188 0.0
C1025 C 0.60364 0.91954 0.50129 0.0
C1026 C 0.63618 0.96512 0.50667 0.0
N1027 N 0.62772 0.91426 0.49207 0.0
N1028 N 0.68052 0.98829 0.50075 0.0
H1029 H 0.70422 0.96329 0.48573 0.0
H1030 H 0.56579 0.89113 0.50416 0.0
C1031 C 0.50361 0.83246 0.47328 0.0
O1032 O 0.52067 0.82393 0.46358 0.0
N1033 N 0.57497 0.78773 0.47481 0.0
C1034 C 0.59755 0.7697 0.4676 0.0
C1035 C 0.56424 0.71838 0.46557 0.0
C1036 C 0.52959 0.74621 0.47753 0.0
N1037 N 0.52175 0.70385 0.4719 0.0
C1038 C 0.65384 0.89005 0.46096 0.0
C1039 C 0.60694 0.94646 0.45611 0.0
C1040 C 0.63036 0.93483 0.44708 0.0
C1041 C 0.65712 0.90922 0.44979 0.0
C1042 C 0.60464 0.92649 0.46707 0.0
N1043 N 0.62285 0.89376 0.469 0.0
H1044 H 0.67505 0.87117 0.46301 0.0
H1045 H 0.58438 0.93397 0.47378 0.0
H1046 H 0.6365 0.79031 0.46462 0.0
H1047 H 0.5031 0.74682 0.48373 0.0
O1048 O 0.66406 0.85001 0.48639 0.0
O1049 O 0.59349 0.81454 0.49702 0.0
O1050 O 0.53182 0.8457 0.48234 0.0
C1051 C 0.63937 0.8221 0.49528 0.0
H1052 H 0.62832 0.97988 0.51445 0.0
H1053 H 0.57173 0.6931 0.46034 0.0
H1054 H 0.58806 0.96842 0.45457 0.0
H1055 H 0.67783 0.9014 0.44322 0.0
Co1056 Co 0.15166 0.73626 0.4852 0.0
C1057 C 0.04439 0.70727 0.49206 0.0
C1058 C 0.08435 0.68841 0.50468 0.0
C1059 C 0.03851 0.67864 0.50933 0.0
N1060 N 0.08817 0.70611 0.49384 0.0
N1061 N 0.01359 0.69048 0.5014 0.0
H1062 H 0.03618 0.72265 0.4845 0.0
H1063 H 0.11408 0.68497 0.50909 0.0
C1064 C 0.12393 0.62682 0.48816 0.0
O1065 O 0.07578 0.6142 0.48676 0.0
N1066 N 0.21587 0.76751 0.47704 0.0
C1067 C 0.22726 0.79627 0.46745 0.0
C1068 C 0.27782 0.81433 0.46475 0.0
C1069 C 0.25961 0.76897 0.48017 0.0
N1070 N 0.29812 0.79725 0.47277 0.0
C1071 C 0.09166 0.72845 0.46485 0.0
C1072 C 0.11221 0.66057 0.45334 0.0
C1073 C 0.08854 0.68302 0.44722 0.0
C1074 C 0.07692 0.71645 0.45322 0.0
C1075 C 0.12837 0.67543 0.46459 0.0
N1076 N 0.1171 0.7079 0.47045 0.0
H1077 H 0.08629 0.75746 0.469 0.0
H1078 H 0.15396 0.66378 0.46806 0.0
H1079 H 0.20088 0.8043 0.46286 0.0
H1080 H 0.26308 0.74979 0.4877 0.0
O1081 O 0.15398 0.80154 0.48509 0.0
O1082 O 0.1871 0.77543 0.49872 0.0
O1083 O 0.1588 0.67409 0.48825 0.0
C1084 C 0.18002 0.81154 0.49465 0.0
H1085 H 0.02496 0.66515 0.51797 0.0
H1086 H 0.29836 0.83908 0.45759 0.0
H1087 H 0.12178 0.63419 0.44923 0.0
H1088 H 0.05974 0.73574 0.44882 0.0
Co1089 Co 0.08187 0.60199 0.35914 0.0
C1090 C 1.00192 0.62908 0.35254 0.0
C1091 C 0.06276 0.65244 0.34023 0.0
C1092 C 0.02618 0.66133 0.33558 0.0
N1093 N 0.04802 0.63258 0.35089 0.0
N1094 N 0.98812 0.64663 0.3433 0.0
H1095 H 0.97741 0.61137 0.35987 0.0
H1096 H 0.09684 0.65774 0.3359 0.0
C1097 C 0.16313 0.71143 0.35653 0.0
O1098 O 0.12783 0.72371 0.35867 0.0
N1099 N 0.11564 0.57034 0.3668 0.0
C1100 C 0.09914 0.54074 0.37628 0.0
C1101 C 0.12824 0.51769 0.37774 0.0
C1102 C 0.15436 0.56497 0.36259 0.0
N1103 N 0.16271 0.53275 0.36909 0.0
C1104 C 0.03103 0.60996 0.37974 0.0
C1105 C 0.12045 0.67567 0.39123 0.0
C1106 C 0.07435 0.65449 0.39737 0.0
C1107 C 0.02887 0.62205 0.39138 0.0
C1108 C 0.12108 0.6608 0.37995 0.0
N1109 N 0.07687 0.62956 0.37409 0.0
H1110 H 0.99622 0.5817 0.37559 0.0
H1111 H 0.15801 0.67172 0.37635 0.0
H1112 H 0.06664 0.53438 0.38145 0.0
H1113 H 0.1737 0.58165 0.35455 0.0
O1114 O 0.01892 0.53671 0.35934 0.0
O1115 O 0.07695 0.56366 0.34541 0.0
O1116 O 0.15079 0.66427 0.35597 0.0
C1117 C 0.03421 0.52724 0.34961 0.0
H1118 H 0.02669 0.67617 0.32706 0.0
H1119 H 0.12347 0.49083 0.38446 0.0
H1120 H 0.15674 0.70125 0.39532 0.0
H1121 H 0.99238 0.60364 0.3958 0.0
Co1122 Co 0.41275 0.48362 0.36075 0.0
C1123 C 0.38308 0.37711 0.35289 0.0
C1124 C 0.34505 0.41022 0.34374 0.0
C1125 C 0.33333 0.3649 0.33847 0.0
N1126 N 0.37546 0.41778 0.35295 0.0
N1127 N 0.35715 0.34421 0.34424 0.0
H1128 H 0.41006 0.37332 0.35829 0.0
H1129 H 0.33454 0.43744 0.34061 0.0
C1130 C 0.30501 0.46144 0.36187 0.0
O1131 O 0.2925 0.41488 0.36512 0.0
N1132 N 0.45058 0.5503 0.36778 0.0
C1133 C 0.48577 0.56484 0.37622 0.0
C1134 C 0.50915 0.6172 0.37747 0.0
C1135 C 0.45303 0.59358 0.36395 0.0
N1136 N 0.48862 0.63515 0.36971 0.0
C1137 C 0.40204 0.41873 0.38047 0.0
C1138 C 0.35918 0.46053 0.39479 0.0
C1139 C 0.36898 0.42328 0.39923 0.0
C1140 C 0.39027 0.4018 0.39193 0.0
C1141 C 0.37068 0.47563 0.38335 0.0
N1142 N 0.39081 0.45413 0.37617 0.0
H1143 H 0.42259 0.40531 0.37533 0.0
H1144 H 0.36525 0.50652 0.3804 0.0
H1145 H 0.49492 0.53936 0.38086 0.0
H1146 H 0.43116 0.5948 0.35669 0.0
O1147 O 0.47614 0.48252 0.35941 0.0
O1148 O 0.44549 0.51364 0.34631 0.0
O1149 O 0.35155 0.49366 0.35936 0.0
C1150 C 0.48258 0.50645 0.34966 0.0
H1151 H 0.31041 0.34903 0.33077 0.0
H1152 H 0.53952 0.64031 0.38348 0.0
H1153 H 0.34369 0.47876 0.40023 0.0
H1154 H 0.39998 0.37411 0.3952 0.0
Co1155 Co 0.52547 0.92996 0.36047 0.0
C1156 C 0.63124 0.00758 0.35266 0.0
C1157 C 0.60048 0.93515 0.34407 0.0
C1158 C 0.64527 0.96908 0.3387 0.0
N1159 N 0.5919 0.95861 0.35302 0.0
N1160 N 0.66442 0.01437 0.34411 0.0
H1161 H 0.63359 0.03878 0.35769 0.0
H1162 H 0.57411 0.89676 0.34111 0.0
C1163 C 0.54937 0.84628 0.36238 0.0
O1164 O 0.59517 0.88166 0.36581 0.0
N1165 N 0.45784 0.90085 0.36697 0.0
C1166 C 0.44139 0.9221 0.37487 0.0
C1167 C 0.38861 0.89463 0.37508 0.0
C1168 C 0.41533 0.86113 0.36248 0.0
N1169 N 0.37243 0.85653 0.36723 0.0
C1170 C 0.59085 0.98378 0.38029 0.0
C1171 C 0.54555 0.89982 0.39476 0.0
C1172 C 0.58504 0.94607 0.39909 0.0
C1173 C 0.60814 0.98848 0.39171 0.0
C1174 C 0.53015 0.89658 0.38334 0.0
N1175 N 0.55337 0.93778 0.37608 0.0
H1176 H 0.60629 0.01759 0.37506 0.0
H1177 H 0.49841 0.86071 0.38039 0.0
H1178 H 0.4659 0.95668 0.37966 0.0
H1179 H 0.41583 0.8385 0.35528 0.0
O1180 O 0.52684 0.99433 0.35891 0.0
O1181 O 0.49695 0.9326 0.34576 0.0
O1182 O 0.51638 0.85897 0.35941 0.0
C1183 C 0.50392 0.97696 0.34904 0.0
H1184 H 0.66173 0.96168 0.33116 0.0
H1185 H 0.36408 0.90299 0.38035 0.0
H1186 H 0.52622 0.86633 0.40022 0.0
H1187 H 0.63774 0.02534 0.39488 0.0
C1188 C 0.21339 0.1559 0.19903 0.0
C1189 C 0.16202 0.14222 0.19725 0.0
H1190 H 0.27017 0.13348 0.19778 0.0
C1191 C 0.12872 0.09504 0.19201 0.0
H1192 H 0.24014 0.1925 0.20283 0.0
C1193 C 0.14585 0.06115 0.18908 0.0
C1194 C 0.19683 0.07407 0.19122 0.0
H1195 H 0.08897 0.08362 0.19053 0.0
H1196 H 0.11873 0.02421 0.18546 0.0
C1197 C 0.23071 0.12233 0.19598 0.0
C1198 C 0.87159 0.11277 0.19304 0.0
C1199 C 0.9228 0.12501 0.19173 0.0
H1200 H 0.79468 0.05508 0.19683 0.0
C1201 C 0.93489 0.08586 0.1929 0.0
H1202 H 0.86088 0.14193 0.19215 0.0
C1203 C 0.89694 0.03609 0.19576 0.0
C1204 C 0.84601 0.02425 0.19748 0.0
H1205 H 0.97402 0.09399 0.19203 0.0
H1206 H 0.9078 0.00722 0.19696 0.0
C1207 C 0.83366 0.06301 0.19588 0.0
C1208 C 0.91296 0.85635 0.21488 0.0
C1209 C 0.88843 0.8523 0.20431 0.0
H1210 H 0.97976 0.86544 0.22343 0.0
C1211 C 0.91383 0.85418 0.19401 0.0
H1212 H 0.89436 0.85486 0.22297 0.0
C1213 C 0.96317 0.86068 0.1943 0.0
C1214 C 0.9875 0.86453 0.20489 0.0
H1215 H 0.89588 0.85124 0.18574 0.0
H1216 H 0.98203 0.862 0.18626 0.0
C1217 C 0.96177 0.86208 0.21516 0.0
C1218 C 0.13026 0.23274 0.31635 0.0
C1219 C 0.08176 0.19933 0.32102 0.0
H1220 H 0.20012 0.24116 0.3096 0.0
C1221 C 0.06807 0.14813 0.32315 0.0
H1222 H 0.14201 0.27236 0.31457 0.0
C1223 C 0.10147 0.13036 0.32028 0.0
C1224 C 0.14887 0.16322 0.3151 0.0
H1225 H 0.03091 0.12137 0.32672 0.0
H1226 H 0.0895 0.09047 0.32173 0.0
C1227 C 0.16332 0.21477 0.31335 0.0
C1228 C 0.78072 0.89785 0.30986 0.0
C1229 C 0.81267 0.88226 0.31511 0.0
H1230 H 0.7727 0.96031 0.30378 0.0
C1231 C 0.86212 0.91979 0.31859 0.0
H1232 H 0.7424 0.87002 0.30708 0.0
C1233 C 0.87948 0.97172 0.31666 0.0
C1234 C 0.84795 0.98706 0.31112 0.0
H1235 H 0.88778 0.90905 0.32261 0.0
H1236 H 0.91803 0.9998 0.31923 0.0
C1237 C 0.79822 0.94961 0.30786 0.0
C1238 C 0.08807 0.93632 0.3219 0.0
C1239 C 0.12662 0.92347 0.32048 0.0
H1240 H 0.00849 0.9124 0.32005 0.0
C1241 C 0.11265 0.87384 0.3167 0.0
H1242 H 0.09746 0.97426 0.32475 0.0
C1243 C 0.06181 0.8387 0.31391 0.0
C1244 C 0.02362 0.85216 0.31492 0.0
H1245 H 0.14124 0.86253 0.31553 0.0
H1246 H 0.05245 0.80103 0.31089 0.0
C1247 C 0.03709 0.90094 0.31919 0.0
C1248 C 0.85461 0.93841 0.82107 0.0
C1249 C 0.80307 0.92497 0.81963 0.0
H1250 H 0.91143 0.91638 0.81881 0.0
C1251 C 0.76832 0.87622 0.81523 0.0
H1252 H 0.88245 0.97574 0.82439 0.0
C1253 C 0.78516 0.84253 0.8119 0.0
C1254 C 0.83697 0.85663 0.81302 0.0
H1255 H 0.72841 0.86466 0.81395 0.0
H1256 H 0.75762 0.80546 0.80843 0.0
C1257 C 0.8713 0.9045 0.81785 0.0
C1258 C 0.10534 0.96956 0.81275 0.0
C1259 C 0.15622 0.98204 0.81061 0.0
H1260 H 0.02862 0.91067 0.8165 0.0
C1261 C 0.16856 0.94289 0.81115 0.0
H1262 H 0.09439 0.99864 0.81233 0.0
C1263 C 0.13085 0.89244 0.81352 0.0
C1264 C 0.07985 0.87983 0.81544 0.0
H1265 H 0.20743 0.95109 0.8098 0.0
H1266 H 0.14167 0.8632 0.81371 0.0
C1267 C 0.06761 0.91908 0.81516 0.0
C1268 C 0.08866 0.15045 0.79653 0.0
C1269 C 0.11225 0.15323 0.80716 0.0
H1270 H 0.02212 0.14075 0.78777 0.0
C1271 C 0.08555 0.14908 0.81739 0.0
H1272 H 0.10827 0.15376 0.78848 0.0
C1273 C 0.03576 0.14138 0.81695 0.0
C1274 C 0.01223 0.13842 0.80628 0.0
H1275 H 0.1028 0.15108 0.82571 0.0
H1276 H 0.01588 0.13825 0.82494 0.0
C1277 C 0.03938 0.14336 0.7961 0.0
C1278 C 0.93795 0.86108 0.69132 0.0
C1279 C 0.9248 0.81038 0.69388 0.0
H1280 H 0.91584 0.91835 0.6921 0.0
C1281 C 0.87696 0.77763 0.69892 0.0
H1282 H 0.9746 0.88734 0.68747 0.0
C1283 C 0.84373 0.79569 0.7017 0.0
C1284 C 0.85738 0.84665 0.69937 0.0
H1285 H 0.86573 0.73845 0.70105 0.0
H1286 H 0.80726 0.76971 0.70565 0.0
C1287 C 0.90442 0.87891 0.69398 0.0
C1288 C 0.20578 0.05922 0.70602 0.0
C1289 C 0.15675 0.02071 0.70261 0.0
H1290 H 0.25931 0.13932 0.70716 0.0
C1291 C 0.1238 0.03501 0.69733 0.0
H1292 H 0.23246 0.04957 0.7099 0.0
C1293 C 0.1393 0.08675 0.69569 0.0
C1294 C 0.18818 0.12521 0.69924 0.0
H1295 H 0.08566 0.00623 0.69468 0.0
H1296 H 0.11272 0.09657 0.69179 0.0
C1297 C 0.22133 0.11077 0.70434 0.0
C1298 C 0.91408 0.07023 0.68973 0.0
C1299 C 0.875 0.08265 0.69048 0.0
H1300 H 0.99356 0.09533 0.69221 0.0
C1301 C 0.888 0.13273 0.69365 0.0
H1302 H 0.90543 0.03197 0.68734 0.0
C1303 C 0.93845 0.16882 0.69652 0.0
C1304 C 0.97711 0.15581 0.69621 0.0
H1305 H 0.85895 0.14368 0.69431 0.0
H1306 H 0.9471 0.20685 0.69908 0.0
C1307 C 0.9646 0.10648 0.69253 0.0
C1308 C 0.8084 0.43692 0.5264 0.0
C1309 C 0.84545 0.48601 0.5302 0.0
H1310 H 0.79248 0.36234 0.5211 0.0
C1311 C 0.89695 0.49844 0.53064 0.0
H1312 H 0.7684 0.42616 0.52599 0.0
C1313 C 0.91087 0.46207 0.52775 0.0
C1314 C 0.87357 0.41226 0.52443 0.0
H1315 H 0.92654 0.53625 0.53327 0.0
H1316 H 0.95077 0.47266 0.52848 0.0
C1317 C 0.82226 0.40038 0.52358 0.0
C1318 C 0.58145 0.36574 0.53002 0.0
C1319 C 0.53514 0.35037 0.53585 0.0
H1320 H 0.65259 0.42849 0.52411 0.0
C1321 C 0.52438 0.38797 0.53982 0.0
H1322 H 0.5908 0.33755 0.52691 0.0
C1323 C 0.55938 0.4398 0.53817 0.0
C1324 C 0.60617 0.45535 0.53255 0.0
H1325 H 0.48863 0.37735 0.54414 0.0
H1326 H 0.5499 0.46768 0.54144 0.0
C1327 C 0.61677 0.41776 0.52843 0.0
C1328 C 0.61456 0.12083 0.53071 0.0
C1329 C 0.65218 0.17237 0.52911 0.0
H1330 H 0.53539 0.06388 0.52927 0.0
C1331 C 0.63842 0.20575 0.52392 0.0
H1332 H 0.62437 0.09405 0.53447 0.0
C1333 C 0.58751 0.18857 0.52091 0.0
C1334 C 0.54945 0.13744 0.52291 0.0
H1335 H 0.66674 0.24563 0.52258 0.0
H1336 H 0.5777 0.21576 0.51737 0.0
C1337 C 0.56375 0.10343 0.52757 0.0
C1338 C 0.73058 0.48683 0.6512 0.0
C1339 C 0.70841 0.49118 0.64093 0.0
H1340 H 0.78891 0.47543 0.65887 0.0
C1341 C 0.7293 0.488 0.63034 0.0
H1342 H 0.7152 0.48902 0.65949 0.0
C1343 C 0.77124 0.48048 0.63 0.0
C1344 C 0.79317 0.4755 0.64022 0.0
H1345 H 0.71326 0.49135 0.62226 0.0
H1346 H 0.78598 0.47768 0.62169 0.0
C1347 C 0.77242 0.47867 0.65085 0.0
C1348 C 0.51787 0.25703 0.65087 0.0
C1349 C 0.46622 0.21855 0.65183 0.0
H1350 H 0.57095 0.33547 0.64693 0.0
C1351 C 0.42802 0.23158 0.65014 0.0
H1352 H 0.54829 0.24825 0.65202 0.0
C1353 C 0.44105 0.28155 0.64721 0.0
C1354 C 0.49263 0.31973 0.64589 0.0
H1355 H 0.38787 0.20292 0.65086 0.0
H1356 H 0.41059 0.29015 0.64602 0.0
C1357 C 0.5309 0.30703 0.64791 0.0
C1358 C 0.72203 0.18014 0.64596 0.0
C1359 C 0.68488 0.19464 0.6476 0.0
H1360 H 0.80096 0.20148 0.6473 0.0
C1361 C 0.6995 0.24229 0.65269 0.0
H1362 H 0.71166 0.14321 0.64228 0.0
C1363 C 0.75065 0.27572 0.65561 0.0
C1364 C 0.78819 0.26195 0.65361 0.0
H1365 H 0.67164 0.25441 0.65406 0.0
H1366 H 0.76101 0.31298 0.65912 0.0
C1367 C 0.77308 0.2133 0.64899 0.0
C1368 C 0.47031 0.19611 0.14549 0.0
C1369 C 0.51206 0.19665 0.13997 0.0
H1370 H 0.43413 0.23953 0.15017 0.0
C1371 C 0.54987 0.24201 0.13487 0.0
H1372 H 0.441 0.16144 0.14954 0.0
C1373 C 0.5453 0.28583 0.13495 0.0
C1374 C 0.50374 0.28552 0.14048 0.0
H1375 H 0.5823 0.24303 0.1306 0.0
H1376 H 0.57445 0.32012 0.13072 0.0
C1377 C 0.46661 0.24059 0.14591 0.0
C1378 C 0.78706 0.2906 0.12844 0.0
C1379 C 0.80711 0.31873 0.13864 0.0
H1380 H 0.72795 0.22235 0.12061 0.0
C1381 C 0.7824 0.29719 0.14914 0.0
H1382 H 0.80491 0.30634 0.12021 0.0
C1383 C 0.73826 0.24861 0.14941 0.0
C1384 C 0.71758 0.2212 0.13914 0.0
H1385 H 0.79729 0.31787 0.15715 0.0
H1386 H 0.71975 0.23305 0.1576 0.0
C1387 C 0.74269 0.24262 0.12867 0.0
C1388 C 0.7242 0.52697 0.14513 0.0
C1389 C 0.68166 0.48435 0.14021 0.0
H1390 H 0.80411 0.56227 0.14943 0.0
C1391 C 0.68695 0.44386 0.13587 0.0
H1392 H 0.72054 0.55831 0.14862 0.0
C1393 C 0.73444 0.44651 0.1361 0.0
C1394 C 0.77705 0.48902 0.14102 0.0
H1395 H 0.65446 0.41072 0.13207 0.0
H1396 H 0.73788 0.41527 0.13246 0.0
C1397 C 0.77155 0.52896 0.14569 0.0
C1398 C 0.6077 0.18996 0.02686 0.0
C1399 C 0.59592 0.13923 0.02886 0.0
H1400 H 0.58185 0.24442 0.02767 0.0
C1401 C 0.54678 0.10364 0.03289 0.0
H1402 H 0.64527 0.21841 0.0238 0.0
C1403 C 0.51074 0.11865 0.03516 0.0
C1404 C 0.52278 0.16954 0.03341 0.0
H1405 H 0.5363 0.06422 0.0345 0.0
H1406 H 0.47331 0.09026 0.03828 0.0
C1407 C 0.57141 0.2049 0.02907 0.0
C1408 C 0.81487 0.41756 0.02671 0.0
C1409 C 0.86574 0.45632 0.02867 0.0
H1410 H 0.76009 0.33738 0.02749 0.0
C1411 C 0.90129 0.44262 0.03262 0.0
H1412 H 0.78646 0.42682 0.02371 0.0
C1413 C 0.88605 0.39149 0.03486 0.0
C1414 C 0.83501 0.35286 0.03311 0.0
H1415 H 0.94079 0.47148 0.03422 0.0
H1416 H 0.91432 0.3822 0.03791 0.0
C1417 C 0.79972 0.36633 0.02887 0.0
C1418 C 0.61297 0.49196 0.03709 0.0
C1419 C 0.65143 0.48004 0.03463 0.0
H1420 H 0.53295 0.46665 0.03716 0.0
C1421 C 0.63732 0.43186 0.02986 0.0
H1422 H 0.62261 0.52905 0.04055 0.0
C1423 C 0.58575 0.39595 0.02786 0.0
C1424 C 0.54723 0.40764 0.03051 0.0
H1425 H 0.66606 0.42147 0.02793 0.0
H1426 H 0.57605 0.35874 0.02443 0.0
C1427 C 0.56154 0.45628 0.03502 0.0
C1428 C 0.48021 0.72829 0.85452 0.0
C1429 C 0.53143 0.74174 0.85654 0.0
H1430 H 0.42271 0.74974 0.85623 0.0
C1431 C 0.56513 0.79009 0.86127 0.0
H1432 H 0.45323 0.69126 0.85092 0.0
C1433 C 0.54737 0.82317 0.86445 0.0
C1434 C 0.49575 0.80886 0.86284 0.0
H1435 H 0.60475 0.8016 0.86299 0.0
H1436 H 0.57397 0.85981 0.86826 0.0
C1437 C 0.46265 0.76165 0.85758 0.0
C1438 C 0.20229 0.77473 0.86096 0.0
C1439 C 0.25329 0.78725 0.85906 0.0
H1440 H 0.1262 0.71666 0.8653 0.0
C1441 C 0.26587 0.74834 0.85984 0.0
H1442 H 0.19122 0.80373 0.8604 0.0
C1443 C 0.22862 0.69845 0.86283 0.0
C1444 C 0.17791 0.68626 0.86507 0.0
H1445 H 0.30487 0.7567 0.85854 0.0
H1446 H 0.23987 0.66972 0.86368 0.0
C1447 C 0.16505 0.72485 0.86392 0.0
C1448 C 0.29843 0.52672 0.86029 0.0
C1449 C 0.32243 0.5305 0.87094 0.0
H1450 H 0.23094 0.51629 0.8516 0.0
C1451 C 0.29572 0.52643 0.88114 0.0
H1452 H 0.31798 0.52923 0.85228 0.0
C1453 C 0.24642 0.51928 0.88076 0.0
C1454 C 0.2223 0.51558 0.87015 0.0
H1455 H 0.31333 0.5297 0.88946 0.0
H1456 H 0.2272 0.51663 0.88883 0.0
C1457 C 0.24857 0.51895 0.85989 0.0
C1458 C 0.46074 0.89724 0.98263 0.0
C1459 C 0.4125 0.86358 0.9874 0.0
H1460 H 0.53034 0.90612 0.97559 0.0
C1461 C 0.39902 0.81232 0.98935 0.0
H1462 H 0.47233 0.93691 0.98097 0.0
C1463 C 0.43233 0.79476 0.98622 0.0
C1464 C 0.4795 0.8279 0.98097 0.0
H1465 H 0.36206 0.78534 0.99297 0.0
H1466 H 0.4205 0.75483 0.98756 0.0
C1467 C 0.49373 0.87949 0.97938 0.0
C1468 C 0.1304 0.61218 0.97419 0.0
C1469 C 0.17973 0.64984 0.97765 0.0
H1470 H 0.07556 0.53244 0.97291 0.0
C1471 C 0.21154 0.6345 0.98307 0.0
H1472 H 0.10462 0.62279 0.9702 0.0
C1473 C 0.19487 0.58244 0.98464 0.0
C1474 C 0.14584 0.54476 0.98094 0.0
H1475 H 0.2498 0.66271 0.98579 0.0
H1476 H 0.22074 0.57174 0.98857 0.0
C1477 C 0.11359 0.56033 0.97584 0.0
C1478 C 0.4462 0.53899 0.98241 0.0
C1479 C 0.45928 0.58854 0.98607 0.0
H1480 H 0.38684 0.46549 0.97673 0.0
C1481 C 0.42018 0.60064 0.98738 0.0
H1482 H 0.47528 0.52828 0.98133 0.0
C1483 C 0.36946 0.56456 0.98468 0.0
C1484 C 0.35682 0.5158 0.98055 0.0
H1485 H 0.42892 0.6385 0.99014 0.0
H1486 H 0.34039 0.57543 0.98545 0.0
C1487 C 0.39558 0.50312 0.97964 0.0
C1488 C 0.19066 0.60135 0.48517 0.0
C1489 C 0.13885 0.58726 0.48646 0.0
H1490 H 0.24442 0.57741 0.48073 0.0
C1491 C 0.10119 0.53569 0.48482 0.0
H1492 H 0.22072 0.64078 0.48629 0.0
C1493 C 0.11486 0.49944 0.4816 0.0
C1494 C 0.16654 0.51383 0.47994 0.0
H1495 H 0.06094 0.52341 0.48576 0.0
H1496 H 0.0848 0.46013 0.48042 0.0
C1497 C 0.20431 0.56506 0.48195 0.0
C1498 C 0.45163 0.63506 0.48322 0.0
C1499 C 0.4774 0.65356 0.47267 0.0
H1500 H 0.38782 0.57358 0.49202 0.0
C1501 C 0.45829 0.62297 0.46278 0.0
H1502 H 0.46598 0.65782 0.49099 0.0
C1503 C 0.4134 0.57548 0.46333 0.0
C1504 C 0.38727 0.55712 0.47383 0.0
H1505 H 0.47733 0.63652 0.45456 0.0
H1506 H 0.39915 0.55307 0.4555 0.0
C1507 C 0.40721 0.58691 0.48382 0.0
C1508 C 0.37435 0.80967 0.48364 0.0
C1509 C 0.34999 0.80701 0.47311 0.0
H1510 H 0.44272 0.82078 0.49203 0.0
C1511 C 0.37714 0.81424 0.46281 0.0
H1512 H 0.3545 0.80477 0.49173 0.0
C1513 C 0.42716 0.82328 0.46297 0.0
C1514 C 0.45158 0.82569 0.47346 0.0
H1515 H 0.35933 0.8119 0.45456 0.0
H1516 H 0.44662 0.82815 0.45482 0.0
C1517 C 0.42491 0.8193 0.48382 0.0
C1518 C 0.21887 0.44655 0.3678 0.0
C1519 C 0.26705 0.47875 0.36284 0.0
H1520 H 0.14799 0.4385 0.37365 0.0
C1521 C 0.2796 0.5286 0.35956 0.0
H1522 H 0.20787 0.40795 0.37042 0.0
C1523 C 0.24505 0.54609 0.36142 0.0
C1524 C 0.19757 0.51432 0.36672 0.0
H1525 H 0.31646 0.55445 0.35574 0.0
H1526 H 0.25601 0.58491 0.35902 0.0
C1527 C 0.18467 0.4642 0.36976 0.0
C1528 C 0.56954 0.778 0.36765 0.0
C1529 C 0.53426 0.79163 0.36347 0.0
H1530 H 0.58278 0.71766 0.37284 0.0
C1531 C 0.48393 0.75269 0.36106 0.0
H1532 H 0.60867 0.80696 0.36957 0.0
C1533 C 0.46905 0.70132 0.363 0.0
C1534 C 0.5041 0.68789 0.36745 0.0
H1535 H 0.45573 0.7619 0.35789 0.0
H1536 H 0.42979 0.67222 0.36129 0.0
C1537 C 0.55461 0.72679 0.36964 0.0
C1538 C 0.28257 0.83522 0.36459 0.0
C1539 C 0.32047 0.82127 0.36382 0.0
H1540 H 0.20342 0.81203 0.3626 0.0
C1541 C 0.3069 0.77233 0.35965 0.0
H1542 H 0.29206 0.87302 0.36754 0.0
C1543 C 0.25612 0.73735 0.35675 0.0
C1544 C 0.21785 0.7507 0.35789 0.0
H1545 H 0.33527 0.76049 0.35897 0.0
H1546 H 0.24666 0.69933 0.35394 0.0
C1547 C 0.23186 0.80041 0.36162 0.0
C1548 C 0.29243 0.36541 0.18202 0.0
C1549 C 0.29968 0.35272 0.17081 0.0
H1550 H 0.23901 0.36191 0.19463 0.0
C1551 C 0.25804 0.33055 0.16318 0.0
H1552 H 0.32421 0.38236 0.18801 0.0
C1553 C 0.20897 0.31776 0.16701 0.0
C1554 C 0.20123 0.32814 0.17843 0.0
H1555 H 0.26297 0.32009 0.15454 0.0
H1556 H 0.17679 0.29771 0.1612 0.0
C1557 C 0.24378 0.35389 0.18575 0.0
C1558 C 0.71579 0.91571 0.16713 0.0
C1559 C 0.68086 0.87644 0.17442 0.0
H1560 H 0.73478 0.9853 0.15824 0.0
C1561 C 0.63379 0.87357 0.17687 0.0
H1562 H 0.7525 0.91934 0.16508 0.0
C1563 C 0.62346 0.91117 0.17271 0.0
C1564 C 0.66039 0.95244 0.16623 0.0
H1565 H 0.60626 0.84405 0.18252 0.0
H1566 H 0.58829 0.91001 0.17519 0.0
C1567 C 0.70591 0.95363 0.16322 0.0
C1568 C 0.10619 0.75528 0.18625 0.0
C1569 C 0.12617 0.79798 0.17892 0.0
H1570 H 0.0513 0.67537 0.18819 0.0
C1571 C 0.11107 0.79093 0.16728 0.0
H1572 H 0.11665 0.75969 0.19528 0.0
C1573 C 0.07449 0.74246 0.1632 0.0
C1574 C 0.0516 0.70078 0.17077 0.0
H1575 H 0.12575 0.82332 0.16147 0.0
H1576 H 0.06148 0.73821 0.15435 0.0
C1577 C 0.06867 0.70722 0.18223 0.0
C1578 C 0.33721 0.25658 0.3489 0.0
C1579 C 0.35629 0.29768 0.34115 0.0
H1580 H 0.3076 0.17588 0.35101 0.0
C1581 C 0.36762 0.29044 0.32981 0.0
H1582 H 0.32782 0.26145 0.35765 0.0
C1583 C 0.35738 0.24214 0.32607 0.0
C1584 C 0.33427 0.19992 0.33354 0.0
H1585 H 0.38221 0.32178 0.32372 0.0
H1586 H 0.3639 0.23717 0.3171 0.0
C1587 C 0.32565 0.20783 0.34509 0.0
C1588 C 0.7171 0.0774 0.32944 0.0
C1589 C 0.71016 0.06034 0.3409 0.0
H1590 H 0.77026 0.12536 0.31655 0.0
C1591 C 0.75116 0.08372 0.34865 0.0
H1592 H 0.68575 0.05949 0.32335 0.0
C1593 C 0.79973 0.12052 0.34474 0.0
C1594 C 0.80744 0.13525 0.33309 0.0
H1595 H 0.74644 0.07058 0.35749 0.0
H1596 H 0.83177 0.13535 0.35067 0.0
C1597 C 0.76526 0.11515 0.32559 0.0
C1598 C 0.87516 0.63572 0.32781 0.0
C1599 C 0.86567 0.66971 0.3342 0.0
H1600 H 0.92267 0.60206 0.3258 0.0
C1601 C 0.89118 0.68852 0.34479 0.0
H1602 H 0.85636 0.62066 0.31962 0.0
C1603 C 0.92865 0.67702 0.34838 0.0
C1604 C 0.9415 0.64728 0.34137 0.0
H1605 H 0.88473 0.71485 0.34989 0.0
H1606 H 0.95045 0.69469 0.35613 0.0
C1607 C 0.91316 0.62513 0.3313 0.0
C1608 C 0.79921 0.6969 0.84337 0.0
C1609 C 0.80692 0.67549 0.8333 0.0
H1610 H 0.74418 0.70118 0.85445 0.0
C1611 C 0.76411 0.63605 0.82764 0.0
H1612 H 0.83143 0.7274 0.84792 0.0
C1613 C 0.71468 0.62172 0.83132 0.0
C1614 C 0.70697 0.64572 0.84085 0.0
H1615 H 0.76858 0.61871 0.81987 0.0
H1616 H 0.68224 0.5939 0.82633 0.0
C1617 C 0.74947 0.68185 0.84716 0.0
C1618 C 0.30192 0.10168 0.84517 0.0
C1619 C 0.3276 0.13279 0.83563 0.0
H1620 H 0.2918 0.03914 0.85586 0.0
C1621 C 0.36918 0.1305 0.83083 0.0
H1622 H 0.26973 0.10263 0.84904 0.0
C1623 C 0.38123 0.094 0.83469 0.0
C1624 C 0.35271 0.06013 0.84355 0.0
H1625 H 0.3896 0.15379 0.82346 0.0
H1626 H 0.41039 0.08965 0.83024 0.0
C1627 C 0.31457 0.06561 0.84912 0.0
C1628 C 0.89209 0.20952 0.84363 0.0
C1629 C 0.87575 0.20169 0.83207 0.0
H1630 H 0.94282 0.2632 0.85627 0.0
C1631 C 0.89513 0.24383 0.82459 0.0
H1632 H 0.8779 0.17755 0.84955 0.0
C1633 C 0.93307 0.29214 0.82836 0.0
C1634 C 0.95115 0.2994 0.83975 0.0
H1635 H 0.88372 0.23878 0.81561 0.0
H1636 H 0.94977 0.32359 0.8223 0.0
C1637 C 0.92905 0.25826 0.84748 0.0
C1638 C 0.66935 0.74638 0.66372 0.0
C1639 C 0.65225 0.706 0.67163 0.0
H1640 H 0.69673 0.82656 0.66136 0.0
C1641 C 0.64272 0.71391 0.68307 0.0
H1642 H 0.67715 0.74094 0.65488 0.0
C1643 C 0.65235 0.76213 0.68671 0.0
C1644 C 0.67308 0.80359 0.67902 0.0
H1645 H 0.62942 0.68307 0.68927 0.0
H1646 H 0.647 0.76773 0.69572 0.0
C1647 C 0.68043 0.79509 0.66743 0.0
C1648 C 0.23866 0.88245 0.68368 0.0
C1649 C 0.19523 0.87355 0.67738 0.0
H1650 H 0.32024 0.9283 0.68533 0.0
C1651 C 0.20181 0.89797 0.66667 0.0
H1652 H 0.23485 0.86437 0.69196 0.0
C1653 C 0.25087 0.93384 0.66281 0.0
C1654 C 0.29368 0.94617 0.66969 0.0
H1655 H 0.16896 0.89173 0.66163 0.0
H1656 H 0.25509 0.95497 0.65496 0.0
C1657 C 0.28746 0.91893 0.67991 0.0
C1658 C 0.1082 0.31235 0.66658 0.0
C1659 C 0.13765 0.3357 0.6765 0.0
H1660 H 0.04666 0.30382 0.65567 0.0
C1661 C 0.13303 0.37492 0.68192 0.0
H1662 H 0.11075 0.2819 0.66223 0.0
C1663 C 0.09605 0.38668 0.67824 0.0
C1664 C 0.06382 0.36037 0.66895 0.0
H1665 H 0.155 0.39369 0.68958 0.0
H1666 H 0.09029 0.41407 0.68311 0.0
C1667 C 0.07163 0.32483 0.66279 0.0
C1668 C 0.91139 0.70323 0.51635 0.0
C1669 C 0.86745 0.6664 0.51049 0.0
H1670 H 0.99301 0.73931 0.51797 0.0
C1671 C 0.87356 0.64434 0.50034 0.0
H1672 H 0.90819 0.72089 0.5242 0.0
C1673 C 0.9225 0.65572 0.49671 0.0
C1674 C 0.9657 0.68869 0.50325 0.0
H1675 H 0.84046 0.61572 0.49566 0.0
H1676 H 0.9263 0.63581 0.48934 0.0
C1677 C 0.95997 0.71375 0.51283 0.0
C1678 C 0.34173 0.26356 0.497 0.0
C1679 C 0.32621 0.28836 0.50489 0.0
H1680 H 0.36771 0.20964 0.49473 0.0
C1681 C 0.31763 0.27224 0.51643 0.0
H1682 H 0.34875 0.27572 0.48809 0.0
C1683 C 0.32689 0.23359 0.52017 0.0
C1684 C 0.34627 0.21153 0.51247 0.0
H1685 H 0.30548 0.29093 0.52261 0.0
H1686 H 0.32251 0.22374 0.52923 0.0
C1687 C 0.35245 0.22591 0.5008 0.0
C1688 C 0.74419 0.04356 0.5151 0.0
C1689 C 0.72502 0.03592 0.50381 0.0
H1690 H 0.79402 0.09727 0.52769 0.0
C1691 C 0.74588 0.07704 0.49606 0.0
H1692 H 0.72843 0.01218 0.52119 0.0
C1693 C 0.78271 0.12608 0.49981 0.0
C1694 C 0.80006 0.13426 0.51129 0.0
H1695 H 0.73121 0.07182 0.48734 0.0
H1696 H 0.79588 0.15795 0.49389 0.0
C1697 C 0.78188 0.09214 0.51877 0.0
C1698 C 0.98633 0.54596 0.67682 0.0
C1699 C 0.99678 0.53759 0.66546 0.0
H1700 H 0.98782 0.60036 0.68904 0.0
C1701 C 0.02279 0.57966 0.65805 0.0
H1702 H 0.96622 0.51412 0.6827 0.0
C1703 C 0.03399 0.62844 0.66162 0.0
C1704 C 0.02052 0.6362 0.67272 0.0
H1705 H 0.03099 0.57434 0.64923 0.0
H1706 H 0.05107 0.65984 0.65554 0.0
C1707 C 0.99869 0.59511 0.68047 0.0
C1708 C 0.47031 0.43365 0.67883 0.0
C1709 C 0.47349 0.46711 0.67003 0.0
H1710 H 0.42088 0.36898 0.68931 0.0
C1711 C 0.42843 0.46597 0.66639 0.0
H1712 H 0.50421 0.43348 0.68185 0.0
C1713 C 0.38077 0.42923 0.67083 0.0
C1714 C 0.37775 0.39333 0.67892 0.0
H1715 H 0.42959 0.49101 0.65957 0.0
H1716 H 0.34611 0.42641 0.66738 0.0
C1717 C 0.42282 0.39682 0.68315 0.0
C1718 C 0.55856 0.02835 0.67784 0.0
C1719 C 0.53227 0.01051 0.6673 0.0
H1720 H 0.61595 0.03016 0.68915 0.0
C1721 C 0.53836 0.97427 0.66094 0.0
H1722 H 0.55457 0.05627 0.68293 0.0
C1723 C 0.5737 0.96003 0.66446 0.0
C1724 C 0.60286 0.98092 0.67449 0.0
H1725 H 0.51873 0.95977 0.6528 0.0
H1726 H 0.5806 0.93498 0.65899 0.0
C1727 C 0.59342 0.01333 0.68144 0.0
C1728 C 0.41851 0.02678 0.18091 0.0
C1729 C 0.37557 0.98337 0.17641 0.0
H1730 H 0.49982 0.07673 0.17986 0.0
C1731 C 0.38259 0.95236 0.16848 0.0
H1732 H 0.41355 0.05157 0.18688 0.0
C1733 C 0.43155 0.96631 0.16448 0.0
C1734 C 0.47438 0.01214 0.16821 0.0
H1735 H 0.34969 0.91914 0.16481 0.0
H1736 H 0.43527 0.94308 0.15784 0.0
C1737 C 0.46767 0.04115 0.17684 0.0
C1738 C 0.96136 0.42912 0.17724 0.0
C1739 C 0.99007 0.46378 0.16845 0.0
H1740 H 0.95079 0.36534 0.18754 0.0
C1741 C 0.03569 0.46636 0.16475 0.0
H1742 H 0.92602 0.42621 0.18027 0.0
C1743 C 0.04953 0.43159 0.16893 0.0
C1744 C 0.01855 0.39432 0.17699 0.0
H1745 H 0.05869 0.4926 0.158 0.0
H1746 H 0.08236 0.43121 0.16527 0.0
C1747 C 0.97556 0.39457 0.18148 0.0
C1748 C 0.59067 0.53402 0.17554 0.0
C1749 C 0.54821 0.52824 0.16927 0.0
H1750 H 0.6617 0.58616 0.18375 0.0
C1751 C 0.54179 0.57103 0.16786 0.0
H1752 H 0.597 0.50201 0.17674 0.0
C1753 C 0.57867 0.61918 0.17211 0.0
C1754 C 0.62287 0.62528 0.1776 0.0
H1755 H 0.50959 0.56781 0.16303 0.0
H1756 H 0.57442 0.65218 0.17047 0.0
C1757 C 0.62786 0.58213 0.17953 0.0
C1758 C 0.2905 0.0469 0.01336 0.0
C1759 C 0.31401 0.0405 1.00356 0.0
H1760 H 0.28594 0.09949 0.02498 0.0
C1761 C 0.34683 0.08344 0.99696 0.0
H1762 H 0.26521 0.01409 0.01857 0.0
C1763 C 0.35955 0.13264 1.0007 0.0
C1764 C 0.33902 0.13934 0.01103 0.0
H1765 H 0.36568 0.07916 0.98944 0.0
H1766 H 0.3879 0.16546 0.99592 0.0
C1767 C 0.30241 0.09579 0.017 0.0
C1768 C 0.90917 0.21184 0.01579 0.0
C1769 C 0.86447 0.20044 0.00966 0.0
H1770 H 0.99096 0.25973 0.01682 0.0
C1771 C 0.86914 0.22287 0.99878 0.0
H1772 H 0.90686 0.1956 0.02424 0.0
C1773 C 0.91736 0.25885 0.99451 0.0
C1774 C 0.96143 0.27319 1.00109 0.0
H1775 H 0.83539 0.21496 0.99388 0.0
H1776 H 0.92003 0.2783 0.98648 0.0
C1777 C 0.95724 0.24841 0.01158 0.0
C1778 C 0.77893 0.64469 1.00005 0.0
C1779 C 0.80449 0.66414 0.0106 0.0
H1780 H 0.72151 0.64022 0.98836 0.0
C1781 C 0.79783 0.70112 0.01647 0.0
H1782 H 0.78344 0.61621 0.99532 0.0
C1783 C 0.76222 0.71424 0.01252 0.0
C1784 C 0.73355 0.69149 1.00253 0.0
H1785 H 0.81688 0.71678 0.02462 0.0
H1786 H 0.75435 0.73948 0.01768 0.0
C1787 C 0.74383 0.65855 0.99601 0.0
C1788 C 0.62137 0.04243 0.84745 0.0
C1789 C 0.62969 0.02293 0.8372 0.0
H1790 H 0.56662 0.04206 0.85919 0.0
C1791 C 0.58791 0.99216 0.83004 0.0
H1792 H 0.65324 0.0663 0.85306 0.0
C1793 C 0.53801 0.97746 0.83361 0.0
C1794 C 0.52945 0.99406 0.84431 0.0
H1795 H 0.59362 0.97645 0.82215 0.0
H1796 H 0.5061 0.95083 0.82833 0.0
C1797 C 0.57181 0.02858 0.85092 0.0
C1798 C 0.95691 0.57916 0.84328 0.0
C1799 C 0.98399 0.61051 0.83395 0.0
H1800 H 0.94853 0.52051 0.8549 0.0
C1801 C 0.01981 0.60212 0.82813 0.0
H1802 H 0.92958 0.58576 0.84792 0.0
C1803 C 0.0314 0.5654 0.83218 0.0
C1804 C 0.0069 0.53638 0.84205 0.0
H1805 H 0.04146 0.6266 0.82101 0.0
H1806 H 0.06177 0.56207 0.82803 0.0
C1807 C 0.96782 0.54194 0.84723 0.0
C1808 C 0.43725 0.42332 0.85359 0.0
C1809 C 0.4586 0.46455 0.84585 0.0
H1810 H 0.38061 0.34441 0.85617 0.0
C1811 C 0.44347 0.45584 0.83422 0.0
H1812 H 0.44771 0.42915 0.86262 0.0
C1813 C 0.40583 0.40717 0.83051 0.0
C1814 C 0.38179 0.36703 0.83845 0.0
H1815 H 0.45916 0.48717 0.8281 0.0
H1816 H 0.39316 0.40161 0.82162 0.0
C1817 C 0.39863 0.3751 0.84994 0.0
C1818 C 0.65552 0.87345 0.01082 0.0
C1819 C 0.66507 0.86552 0.99935 0.0
H1820 H 0.65739 0.92732 0.02326 0.0
C1821 C 0.68957 0.90778 0.99193 0.0
H1822 H 0.63646 0.84145 0.0167 0.0
C1823 C 0.70024 0.95625 0.99562 0.0
C1824 C 0.68794 0.96354 0.00686 0.0
H1825 H 0.69691 0.90279 0.98302 0.0
H1826 H 0.71595 0.98771 0.98955 0.0
C1827 C 0.66749 0.92235 0.01459 0.0
C1828 C 0.08038 0.74426 0.015 0.0
C1829 C 0.03922 0.72412 0.00725 0.0
H1830 H 0.16141 0.79308 0.01716 0.0
C1831 C 0.04679 0.74413 0.99605 0.0
H1832 H 0.07521 0.72896 0.02365 0.0
C1833 C 0.09551 0.78144 0.9924 0.0
C1834 C 0.13767 0.79833 0.99982 0.0
H1835 H 0.01534 0.72897 0.98996 0.0
H1836 H 0.10073 0.79398 0.9835 0.0
C1837 C 0.12947 0.78071 0.01127 0.0
C1838 C 0.21543 0.30439 0.99399 0.0
C1839 C 0.20024 0.33387 1.00051 0.0
H1840 H 0.2675 0.27557 0.99262 0.0
C1841 C 0.22047 0.34962 0.01166 0.0
H1842 H 0.20107 0.29219 0.98533 0.0
C1843 C 0.25781 0.33916 0.01587 0.0
C1844 C 0.27594 0.31359 0.00892 0.0
H1845 H 0.20972 0.37264 0.01684 0.0
H1846 H 0.27528 0.35429 0.02417 0.0
C1847 C 0.25348 0.29496 0.99811 0.0
C1848 C 0.05617 0.28615 0.50242 0.0
C1849 C 0.04929 0.31652 0.51057 0.0
H1850 H 0.10904 0.27738 0.49175 0.0
C1851 C 0.0922 0.35841 0.5155 0.0
H1852 H 0.02323 0.25413 0.49843 0.0
C1853 C 0.14141 0.37237 0.51161 0.0
C1854 C 0.14813 0.34445 0.50272 0.0
H1855 H 0.08729 0.38268 0.52165 0.0
H1856 H 0.17369 0.40708 0.51495 0.0
C1857 C 0.10524 0.29969 0.4986 0.0
C1858 C 0.70355 0.7936 0.49885 0.0
C1859 C 0.65838 0.79337 0.50201 0.0
H1860 H 0.74812 0.75622 0.50057 0.0
C1861 C 0.62729 0.75957 0.51069 0.0
H1862 H 0.72817 0.81904 0.49216 0.0
C1863 C 0.63868 0.72387 0.51537 0.0
C1864 C 0.68174 0.72181 0.51165 0.0
H1865 H 0.5923 0.75838 0.51335 0.0
H1866 H 0.61229 0.69575 0.52143 0.0
C1867 C 0.71516 0.75798 0.50366 0.0
C1868 C 0.214 0.90556 0.49299 0.0
C1869 C 0.20731 0.86373 0.49961 0.0
H1870 H 0.25626 0.987 0.4908 0.0
C1871 C 0.23307 0.87306 0.51024 0.0
H1872 H 0.19479 0.89972 0.48478 0.0
C1873 C 0.26771 0.92325 0.51375 0.0
C1874 C 0.2776 0.96462 0.5066 0.0
H1875 H 0.22856 0.84153 0.51554 0.0
H1876 H 0.28956 0.92955 0.52159 0.0
C1877 C 0.24917 0.95548 0.49641 0.0
C1878 C 0.01127 0.41681 0.33031 0.0
C1879 C 0.98317 0.37536 0.33772 0.0
H1880 H 0.04972 0.49837 0.3283 0.0
C1881 C 0.96485 0.38352 0.34817 0.0
H1882 H 0.02598 0.41119 0.32226 0.0
C1883 C 0.97759 0.4329 0.35158 0.0
C1884 C 0.00981 0.47511 0.34468 0.0
H1885 H 0.94298 0.35184 0.35398 0.0
H1886 H 0.9654 0.43824 0.35999 0.0
C1887 C 0.02491 0.46651 0.33381 0.0
C1888 C 0.53775 0.55466 0.33288 0.0
C1889 C 0.53316 0.53401 0.34397 0.0
H1890 H 0.58817 0.60954 0.32043 0.0
C1891 C 0.57781 0.5481 0.35039 0.0
H1892 H 0.50398 0.54467 0.32776 0.0
C1893 C 0.62553 0.58567 0.34625 0.0
C1894 C 0.6295 0.6087 0.33552 0.0
H1895 H 0.57551 0.53334 0.35901 0.0
H1896 H 0.65902 0.59906 0.35168 0.0
C1897 C 0.5857 0.59154 0.32866 0.0
C1898 C 0.41297 0.99155 0.3292 0.0
C1899 C 0.40338 0.0251 0.33567 0.0
H1900 H 0.45339 0.95001 0.32834 0.0
C1901 C 0.43391 0.04968 0.34532 0.0
H1902 H 0.38924 0.97183 0.32182 0.0
C1903 C 0.47086 0.0379 0.349 0.0
C1904 C 0.47706 1.00039 0.34322 0.0
H1905 H 0.42664 0.07542 0.35044 0.0
H1906 H 0.49138 0.05503 0.35692 0.0
C1907 C 0.44946 0.97904 0.33298 0.0
C1908 C 0.0037 0.29812 0.26219 0.0
C1909 C 0.99863 0.25557 0.26835 0.0
H1910 H 0.01529 0.33469 0.24565 0.0
C1911 C 1.00141 0.21689 0.26217 0.0
H1912 H 1.00179 0.32868 0.26665 0.0
C1913 C 0.01077 0.22112 0.2504 0.0
C1914 C 0.01541 0.26306 0.24412 0.0
H1915 H 0.99611 0.1826 0.26639 0.0
H1916 H 0.01465 0.19106 0.24626 0.0
C1917 C 0.01202 0.30183 0.25018 0.0
C1918 C 0.68557 0.7227 0.25179 0.0
C1919 C 0.72429 0.74036 0.24337 0.0
H1920 H 0.66657 0.7055 0.26974 0.0
C1921 C 0.77406 0.75303 0.24674 0.0
H1922 H 0.64688 0.7126 0.24945 0.0
C1923 C 0.78525 0.74939 0.25824 0.0
C1924 C 0.74692 0.73253 0.26669 0.0
H1925 H 0.80497 0.76746 0.24051 0.0
H1926 H 0.82424 0.76052 0.26057 0.0
C1927 C 0.6967 0.7183 0.26335 0.0
C1928 C 0.21515 0.99571 0.25006 0.0
C1929 C 0.25234 0.99039 0.24388 0.0
H1930 H 0.19158 0.01216 0.2659 0.0
C1931 C 0.29446 0.99417 0.25001 0.0
H1932 H 0.1812 0.99152 0.24587 0.0
C1933 C 0.29922 0.00372 0.26198 0.0
C1934 C 0.26196 0.00968 0.26803 0.0
H1935 H 0.3239 0.99032 0.24556 0.0
H1936 H 0.33168 0.00594 0.26649 0.0
C1937 C 0.22045 0.00631 0.26178 0.0
C1938 C 0.03735 0.74432 0.76261 0.0
C1939 C 0.98635 0.71975 0.76648 0.0
H1940 H 0.0879 0.77034 0.74803 0.0
C1941 C 0.94654 0.69752 0.75837 0.0
H1942 H 0.06865 0.76201 0.76873 0.0
C1943 C 0.95753 0.70306 0.74656 0.0
C1944 C 0.00851 0.7299 0.74269 0.0
H1945 H 0.90696 0.67895 0.76114 0.0
H1946 H 0.92622 0.68856 0.74044 0.0
C1947 C 0.04835 0.74887 0.75081 0.0
C1948 C 0.22562 0.26411 0.76605 0.0
C1949 C 0.2754 0.27614 0.76924 0.0
H1950 H 0.17478 0.25658 0.75236 0.0
C1951 C 0.31368 0.29367 0.76071 0.0
H1952 H 0.19501 0.24976 0.77234 0.0
C1953 C 0.30194 0.29777 0.74919 0.0
C1954 C 0.25158 0.28355 0.746 0.0
H1955 H 0.3524 0.30337 0.76291 0.0
H1956 H 0.33165 0.30994 0.74272 0.0
C1957 C 0.21385 0.26759 0.75458 0.0
C1958 C 0.70154 0.00662 0.76161 0.0
C1959 C 0.74413 0.011 0.76764 0.0
H1960 H 0.66435 0.99569 0.74514 0.0
C1961 C 0.78228 0.00792 0.76133 0.0
H1962 H 0.6714 0.00881 0.76618 0.0
C1963 C 0.77756 0.99899 0.74954 0.0
C1964 C 0.73556 0.99496 0.74338 0.0
H1965 H 0.81651 0.01258 0.76548 0.0
H1966 H 0.80728 0.99494 0.74528 0.0
C1967 C 0.69725 0.99857 0.74958 0.0
C1968 C 0.70251 0.59651 0.59948 0.0
C1969 C 0.66466 0.60864 0.60251 0.0
H1970 H 0.74624 0.58835 0.58598 0.0
C1971 C 0.64379 0.62524 0.59382 0.0
H1972 H 0.71887 0.58285 0.60591 0.0
C1973 C 0.65985 0.62864 0.58233 0.0
C1974 C 0.69629 0.61456 0.57932 0.0
H1975 H 0.61466 0.63495 0.59589 0.0
H1976 H 0.64236 0.6403 0.57574 0.0
C1977 C 0.71795 0.59924 0.58804 0.0
C1978 C 0.37387 0.03714 0.59459 0.0
C1979 C 0.41772 0.07459 0.60044 0.0
H1980 H 0.33535 0.01052 0.57825 0.0
C1981 C 0.45675 0.11413 0.59394 0.0
H1982 H 0.34296 0.00613 0.5993 0.0
C1983 C 0.45172 0.11752 0.58213 0.0
C1984 C 0.40845 0.08023 0.57615 0.0
H1985 H 0.49189 0.143 0.59793 0.0
H1986 H 0.48221 0.15019 0.57773 0.0
C1987 C 0.36926 0.03996 0.58254 0.0
C1988 C 0.96502 0.33797 0.59492 0.0
C1989 C 0.92696 0.34247 0.60099 0.0
H1990 H 0.99042 0.32566 0.57849 0.0
C1991 C 0.88476 0.33766 0.59477 0.0
H1992 H 0.99806 0.34139 0.5994 0.0
C1993 C 0.87957 0.32701 0.58305 0.0
C1994 C 0.91751 0.32305 0.57686 0.0
H1995 H 0.85524 0.3424 0.59892 0.0
H1996 H 0.84515 0.32168 0.57888 0.0
C1997 C 0.96035 0.32836 0.58296 0.0
C1998 C 0.71411 0.10855 0.0854 0.0
C1999 C 0.68744 0.07107 0.07699 0.0
H2000 H 0.7199 0.12948 0.10315 0.0
C2001 C 0.64715 0.02298 0.08036 0.0
H2002 H 0.74497 0.14608 0.08296 0.0
C2003 C 0.63229 0.01341 0.09197 0.0
C2004 C 0.65801 0.05162 0.10037 0.0
H2005 H 0.62575 0.99378 0.07395 0.0
H2006 H 0.60008 0.97661 0.09434 0.0
C2007 C 0.69979 0.09888 0.09696 0.0
C2008 C 0.9567 0.5783 0.08076 0.0
C2009 C 0.9448 0.61518 0.07683 0.0
H2010 H 0.97232 0.54432 0.09514 0.0
C2011 C 0.94628 0.65128 0.08473 0.0
H2012 H 0.95654 0.55034 0.07486 0.0
C2013 C 0.95601 0.64826 0.09645 0.0
C2014 C 0.96462 0.60917 0.1005 0.0
H2015 H 0.93724 0.68014 0.08198 0.0
H2016 H 0.95517 0.67558 0.10238 0.0
C2017 C 0.96637 0.57526 0.09241 0.0
C2018 C 0.4001 0.29137 0.08701 0.0
C2019 C 0.38764 0.31621 0.07849 0.0
H2020 H 0.4143 0.28657 0.10487 0.0
C2021 C 0.37634 0.35433 0.08175 0.0
H2022 H 0.40918 0.26202 0.08468 0.0
C2023 C 0.37981 0.36897 0.09336 0.0
C2024 C 0.39366 0.34495 0.10187 0.0
H2025 H 0.36702 0.37422 0.07528 0.0
H2026 H 0.37259 0.3996 0.09565 0.0
C2027 C 0.40274 0.3053 0.09857 0.0
C2028 C 0.33352 0.9601 0.9288 0.0
C2029 C 0.32933 0.91804 0.93501 0.0
H2030 H 0.34451 0.99624 0.91223 0.0
C2031 C 0.33336 0.87993 0.92889 0.0
H2032 H 0.33066 0.99026 0.9332 0.0
C2033 C 0.34306 0.88426 0.91714 0.0
C2034 C 0.34667 0.92562 0.91081 0.0
H2035 H 0.32873 0.84595 0.93314 0.0
H2036 H 0.34795 0.85469 0.91306 0.0
C2037 C 0.34206 0.96383 0.9168 0.0
C2038 C 0.01995 0.37817 0.91734 0.0
C2039 C 0.05889 0.39661 0.90896 0.0
H2040 H 1.00079 0.36112 0.93527 0.0
C2041 C 0.10881 0.41004 0.91237 0.0
H2042 H 0.98113 0.36744 0.91496 0.0
C2043 C 0.11999 0.40688 0.9239 0.0
C2044 C 0.08148 0.38969 0.93232 0.0
H2045 H 0.13986 0.42507 0.90618 0.0
H2046 H 0.15914 0.41891 0.9263 0.0
C2047 C 0.03108 0.37425 0.92892 0.0
C2048 C 0.63441 0.67195 0.92783 0.0
C2049 C 0.59698 0.67796 0.93379 0.0
H2050 H 0.65997 0.65916 0.91146 0.0
C2051 C 0.5562 0.67557 0.92742 0.0
H2052 H 0.66633 0.67345 0.93244 0.0
C2053 C 0.55172 0.66582 0.91566 0.0
C2054 C 0.58904 0.66033 0.90957 0.0
H2055 H 0.52726 0.68147 0.93148 0.0
H2056 H 0.51826 0.66233 0.91136 0.0
C2057 C 0.63046 0.66319 0.91583 0.0
C2058 C 0.38329 0.44989 0.41985 0.0
C2059 C 0.36019 0.4105 0.41166 0.0
H2060 H 0.38801 0.47184 0.43752 0.0
C2061 C 0.32558 0.36056 0.41538 0.0
H2062 H 0.41007 0.48872 0.41718 0.0
C2063 C 0.31245 0.3508 0.42709 0.0
C2064 C 0.3345 0.39069 0.43526 0.0
H2065 H 0.3071 0.32967 0.40919 0.0
H2066 H 0.28445 0.31234 0.42972 0.0
C2067 C 0.37085 0.44008 0.4315 0.0
C2068 C 0.56071 0.93368 0.41986 0.0
C2069 C 0.59912 0.94965 0.41145 0.0
H2070 H 0.5406 0.91673 0.43759 0.0
C2071 C 0.64935 0.96456 0.41489 0.0
H2072 H 0.52168 0.92201 0.41742 0.0
C2073 C 0.66034 0.96121 0.42652 0.0
C2074 C 0.62141 0.94384 0.4349 0.0
H2075 H 0.67955 0.97673 0.40854 0.0
H2076 H 0.69899 0.97146 0.42893 0.0
C2077 C 0.57172 0.93103 0.43142 0.0
C2078 C 0.1212 0.67261 0.42821 0.0
C2079 C 0.08311 0.67619 0.43443 0.0
H2080 H 0.14663 0.65982 0.4122 0.0
C2081 C 0.0413 0.67305 0.4283 0.0
H2082 H 0.15491 0.67639 0.43244 0.0
C2083 C 0.03768 0.66577 0.41625 0.0
C2084 C 0.07588 0.66162 0.41015 0.0
H2085 H 0.01124 0.67567 0.4328 0.0
H2086 H 0.0054 0.66388 0.41173 0.0
C2087 C 0.11709 0.66436 0.4164 0.0
loop_
_geom_bond_atom_site_label_1
_geom_bond_atom_site_label_2
_geom_bond_distance
_geom_bond_site_symmetry_2
_ccdc_geom_bond_type
Co0 N4 2.148 . S
Co0 N10 2.128 . S
Co0 N20 2.194 . S
Co0 O25 2.351 . S
Co0 O26 2.155 . S
Co0 O27 2.096 . S
C1 N4 1.301 . S
C1 N5 1.328 . S
C1 H6 0.930 . S
C2 C3 1.333 . S
C2 N4 1.317 1_655 S
C2 H7 0.930 . S
C3 C2 1.333 . S
C3 N5 1.350 1_655 S
C3 H29 0.931 . S
N4 Co0 2.148 . S
N4 C1 1.301 . S
N4 C2 1.317 1_455 S
N5 C1 1.328 . S
N5 C3 1.350 1_455 S
H6 C1 0.930 . S
H7 C2 0.930 . S
C8 O9 1.224 . S
C8 O27 1.247 1_655 S
O9 C8 1.224 . S
N10 Co0 2.128 . S
N10 C11 1.355 . S
N10 C13 1.311 . S
C11 N10 1.355 . S
C11 C12 1.363 . S
C11 H23 0.929 . S
C12 C11 1.363 . S
C12 N14 1.375 . S
C12 H30 0.931 . S
C13 N10 1.311 . S
C13 N14 1.347 . S
C13 H24 0.929 . S
N14 C12 1.375 . S
N14 C13 1.347 . S
C15 C18 1.365 . S
C15 N20 1.328 . S
C15 H21 0.929 . S
C16 C17 1.362 . S
C16 C19 1.378 . S
C16 H31 0.929 . S
C17 C16 1.362 . S
C17 C18 1.366 . S
C18 C15 1.365 . S
C18 C17 1.366 . S
C18 H32 0.930 . S
C19 C16 1.378 . S
C19 N20 1.315 . S
C19 H22 0.930 . S
N20 Co0 2.194 . S
N20 C15 1.328 . S
N20 C19 1.315 . S
H21 C15 0.929 . S
H22 C19 0.930 . S
H23 C11 0.929 . S
H24 C13 0.929 . S
O25 Co0 2.351 . S
O25 C28 1.244 . S
O26 Co0 2.155 . S
O26 C28 1.240 . S
O27 Co0 2.096 . S
O27 C8 1.247 1_455 S
C28 O25 1.244 . S
C28 O26 1.240 . S
H29 C3 0.931 . S
H30 C12 0.931 . S
H31 C16 0.929 . S
H32 C18 0.930 . S
Co33 N37 2.148 . S
Co33 N43 2.128 . S
Co33 N53 2.194 . S
Co33 O58 2.351 . S
Co33 O59 2.155 . S
Co33 O60 2.096 . S
C34 N37 1.301 . S
C34 N38 1.328 . S
C34 H39 0.930 . S
C35 C36 1.333 . S
C35 N37 1.317 . S
C35 H40 0.930 . S
C36 C35 1.333 . S
C36 N38 1.350 . S
C36 H62 0.931 . S
N37 Co33 2.148 . S
N37 C34 1.301 . S
N37 C35 1.317 . S
N38 C34 1.328 . S
N38 C36 1.350 . S
H39 C34 0.930 . S
H40 C35 0.930 . S
C41 O42 1.224 . S
C41 O60 1.247 . S
O42 C41 1.224 . S
N43 Co33 2.128 . S
N43 C44 1.355 . S
N43 C46 1.311 . S
C44 N43 1.355 . S
C44 C45 1.363 . S
C44 H56 0.929 . S
C45 C44 1.363 . S
C45 N47 1.375 . S
C45 H63 0.931 . S
C46 N43 1.311 . S
C46 N47 1.347 . S
C46 H57 0.929 . S
N47 C45 1.375 . S
N47 C46 1.347 . S
C48 C51 1.365 . S
C48 N53 1.328 . S
C48 H54 0.929 . S
C49 C50 1.362 . S
C49 C52 1.378 . S
C49 H64 0.929 . S
C50 C49 1.362 . S
C50 C51 1.366 . S
C51 C48 1.365 . S
C51 C50 1.366 . S
C51 H65 0.930 . S
C52 C49 1.378 . S
C52 N53 1.315 . S
C52 H55 0.930 . S
N53 Co33 2.194 . S
N53 C48 1.328 . S
N53 C52 1.315 . S
H54 C48 0.929 . S
H55 C52 0.930 . S
H56 C44 0.929 . S
H57 C46 0.929 . S
O58 Co33 2.351 . S
O58 C61 1.244 . S
O59 Co33 2.155 . S
O59 C61 1.240 . S
O60 Co33 2.096 . S
O60 C41 1.247 . S
C61 O58 1.244 . S
C61 O59 1.240 . S
H62 C36 0.931 . S
H63 C45 0.931 . S
H64 C49 0.929 . S
H65 C51 0.930 . S
Co66 N70 2.148 . S
Co66 N76 2.128 . S
Co66 N86 2.194 . S
Co66 O91 2.351 . S
Co66 O92 2.155 . S
Co66 O93 2.096 . S
C67 N70 1.301 . S
C67 N71 1.328 . S
C67 H72 0.930 . S
C68 C69 1.333 . S
C68 N70 1.317 1_545 S
C68 H73 0.930 . S
C69 C68 1.333 . S
C69 N71 1.350 1_545 S
C69 H95 0.931 . S
N70 Co66 2.148 . S
N70 C67 1.301 . S
N70 C68 1.317 1_565 S
N71 C67 1.328 . S
N71 C69 1.350 1_565 S
H72 C67 0.930 . S
H73 C68 0.930 . S
C74 O75 1.224 . S
C74 O93 1.247 1_545 S
O75 C74 1.224 . S
N76 Co66 2.128 . S
N76 C77 1.355 . S
N76 C79 1.311 . S
C77 N76 1.355 . S
C77 C78 1.363 . S
C77 H89 0.929 . S
C78 C77 1.363 . S
C78 N80 1.375 . S
C78 H96 0.931 . S
C79 N76 1.311 . S
C79 N80 1.347 . S
C79 H90 0.929 . S
N80 C78 1.375 . S
N80 C79 1.347 . S
C81 C84 1.365 . S
C81 N86 1.328 . S
C81 H87 0.929 . S
C82 C83 1.362 . S
C82 C85 1.378 . S
C82 H97 0.929 . S
C83 C82 1.362 . S
C83 C84 1.366 . S
C84 C81 1.365 . S
C84 C83 1.366 . S
C84 H98 0.930 . S
C85 C82 1.378 . S
C85 N86 1.315 . S
C85 H88 0.930 . S
N86 Co66 2.194 . S
N86 C81 1.328 . S
N86 C85 1.315 . S
H87 C81 0.929 . S
H88 C85 0.930 . S
H89 C77 0.929 . S
H90 C79 0.929 . S
O91 Co66 2.351 . S
O91 C94 1.244 . S
O92 Co66 2.155 . S
O92 C94 1.240 . S
O93 Co66 2.096 . S
O93 C74 1.247 1_565 S
C94 O91 1.244 . S
C94 O92 1.240 . S
H95 C69 0.931 . S
H96 C78 0.931 . S
H97 C82 0.929 . S
H98 C84 0.930 . S
Co99 N103 2.148 . S
Co99 N109 2.128 . S
Co99 N119 2.194 . S
Co99 O124 2.351 . S
Co99 O125 2.155 . S
Co99 O126 2.096 . S
C100 N103 1.301 . S
C100 N104 1.328 . S
C100 H105 0.930 . S
C101 C102 1.333 . S
C101 N103 1.317 1_565 S
C101 H106 0.930 . S
C102 C101 1.333 . S
C102 N104 1.350 1_565 S
C102 H128 0.931 . S
N103 Co99 2.148 . S
N103 C100 1.301 . S
N103 C101 1.317 1_545 S
N104 C100 1.328 . S
N104 C102 1.350 1_545 S
H105 C100 0.930 . S
H106 C101 0.930 . S
C107 O108 1.224 . S
C107 O126 1.247 1_565 S
O108 C107 1.224 . S
N109 Co99 2.128 . S
N109 C110 1.355 . S
N109 C112 1.311 . S
C110 N109 1.355 . S
C110 C111 1.363 . S
C110 H122 0.929 . S
C111 C110 1.363 . S
C111 N113 1.375 . S
C111 H129 0.931 . S
C112 N109 1.311 . S
C112 N113 1.347 . S
C112 H123 0.929 . S
N113 C111 1.375 . S
N113 C112 1.347 . S
C114 C117 1.365 . S
C114 N119 1.328 . S
C114 H120 0.929 . S
C115 C116 1.362 . S
C115 C118 1.378 . S
C115 H130 0.929 . S
C116 C115 1.362 . S
C116 C117 1.366 . S
C117 C114 1.365 . S
C117 C116 1.366 . S
C117 H131 0.930 . S
C118 C115 1.378 . S
C118 N119 1.315 . S
C118 H121 0.930 . S
N119 Co99 2.194 . S
N119 C114 1.328 . S
N119 C118 1.315 . S
H120 C114 0.929 . S
H121 C118 0.930 . S
H122 C110 0.929 . S
H123 C112 0.929 . S
O124 Co99 2.351 . S
O124 C127 1.244 . S
O125 Co99 2.155 . S
O125 C127 1.240 . S
O126 Co99 2.096 . S
O126 C107 1.247 1_545 S
C127 O124 1.244 . S
C127 O125 1.240 . S
H128 C102 0.931 . S
H129 C111 0.931 . S
H130 C115 0.929 . S
H131 C117 0.930 . S
Co132 N136 2.148 . S
Co132 N142 2.128 . S
Co132 N152 2.194 . S
Co132 O157 2.351 . S
Co132 O158 2.155 . S
Co132 O159 2.096 . S
C133 N136 1.301 . S
C133 N137 1.328 . S
C133 H138 0.930 . S
C134 C135 1.333 . S
C134 N136 1.317 1_455 S
C134 H139 0.930 . S
C135 C134 1.333 . S
C135 N137 1.350 1_455 S
C135 H161 0.931 . S
N136 Co132 2.148 . S
N136 C133 1.301 . S
N136 C134 1.317 1_655 S
N137 C133 1.328 . S
N137 C135 1.350 1_655 S
H138 C133 0.930 . S
H139 C134 0.930 . S
C140 O141 1.224 . S
C140 O159 1.247 1_455 S
O141 C140 1.224 . S
N142 Co132 2.128 . S
N142 C143 1.355 . S
N142 C145 1.311 . S
C143 N142 1.355 . S
C143 C144 1.363 . S
C143 H155 0.929 . S
C144 C143 1.363 . S
C144 N146 1.375 . S
C144 H162 0.931 . S
C145 N142 1.311 . S
C145 N146 1.347 . S
C145 H156 0.929 . S
N146 C144 1.375 . S
N146 C145 1.347 . S
C147 C150 1.365 . S
C147 N152 1.328 . S
C147 H153 0.929 . S
C148 C149 1.362 . S
C148 C151 1.378 . S
C148 H163 0.929 . S
C149 C148 1.362 . S
C149 C150 1.366 . S
C150 C147 1.365 . S
C150 C149 1.366 . S
C150 H164 0.930 . S
C151 C148 1.378 . S
C151 N152 1.315 . S
C151 H154 0.930 . S
N152 Co132 2.194 . S
N152 C147 1.328 . S
N152 C151 1.315 . S
H153 C147 0.929 . S
H154 C151 0.930 . S
H155 C143 0.929 . S
H156 C145 0.929 . S
O157 Co132 2.351 . S
O157 C160 1.244 . S
O158 Co132 2.155 . S
O158 C160 1.240 . S
O159 Co132 2.096 . S
O159 C140 1.247 1_655 S
C160 O157 1.244 . S
C160 O158 1.240 . S
H161 C135 0.931 . S
H162 C144 0.931 . S
H163 C148 0.929 . S
H164 C150 0.930 . S
Co165 N169 2.148 . S
Co165 N175 2.128 . S
Co165 N185 2.194 . S
Co165 O190 2.351 . S
Co165 O191 2.155 . S
Co165 O192 2.096 . S
C166 N169 1.301 . S
C166 N170 1.328 . S
C166 H171 0.930 . S
C167 C168 1.333 . S
C167 N169 1.317 . S
C167 H172 0.930 . S
C168 C167 1.333 . S
C168 N170 1.350 . S
C168 H194 0.931 . S
N169 Co165 2.148 . S
N169 C166 1.301 . S
N169 C167 1.317 . S
N170 C166 1.328 . S
N170 C168 1.350 . S
H171 C166 0.930 . S
H172 C167 0.930 . S
C173 O174 1.224 . S
C173 O192 1.247 . S
O174 C173 1.224 . S
N175 Co165 2.128 . S
N175 C176 1.355 . S
N175 C178 1.311 . S
C176 N175 1.355 . S
C176 C177 1.363 . S
C176 H188 0.929 . S
C177 C176 1.363 . S
C177 N179 1.375 . S
C177 H195 0.931 . S
C178 N175 1.311 . S
C178 N179 1.347 . S
C178 H189 0.929 . S
N179 C177 1.375 . S
N179 C178 1.347 . S
C180 C183 1.365 . S
C180 N185 1.328 . S
C180 H186 0.929 . S
C181 C182 1.362 . S
C181 C184 1.378 . S
C181 H196 0.929 . S
C182 C181 1.362 . S
C182 C183 1.366 . S
C183 C180 1.365 . S
C183 C182 1.366 . S
C183 H197 0.930 . S
C184 C181 1.378 . S
C184 N185 1.315 . S
C184 H187 0.930 . S
N185 Co165 2.194 . S
N185 C180 1.328 . S
N185 C184 1.315 . S
H186 C180 0.929 . S
H187 C184 0.930 . S
H188 C176 0.929 . S
H189 C178 0.929 . S
O190 Co165 2.351 . S
O190 C193 1.244 . S
O191 Co165 2.155 . S
O191 C193 1.240 . S
O192 Co165 2.096 . S
O192 C173 1.247 . S
C193 O190 1.244 . S
C193 O191 1.240 . S
H194 C168 0.931 . S
H195 C177 0.931 . S
H196 C181 0.929 . S
H197 C183 0.930 . S
Co198 N202 2.148 . S
Co198 N208 2.128 . S
Co198 N218 2.194 . S
Co198 O223 2.351 . S
Co198 O224 2.155 . S
Co198 O225 2.096 . S
C199 N202 1.301 . S
C199 N203 1.328 . S
C199 H204 0.930 . S
C200 C201 1.333 . S
C200 N202 1.317 1_455 S
C200 H205 0.930 . S
C201 C200 1.333 . S
C201 N203 1.350 1_455 S
C201 H227 0.931 . S
N202 Co198 2.148 . S
N202 C199 1.301 . S
N202 C200 1.317 1_655 S
N203 C199 1.328 . S
N203 C201 1.350 1_655 S
H204 C199 0.930 . S
H205 C200 0.930 . S
C206 O207 1.224 . S
C206 O225 1.247 1_455 S
O207 C206 1.224 . S
N208 Co198 2.128 . S
N208 C209 1.355 . S
N208 C211 1.311 . S
C209 N208 1.355 . S
C209 C210 1.363 . S
C209 H221 0.929 . S
C210 C209 1.363 . S
C210 N212 1.375 . S
C210 H228 0.931 . S
C211 N208 1.311 . S
C211 N212 1.347 . S
C211 H222 0.929 . S
N212 C210 1.375 . S
N212 C211 1.347 . S
C213 C216 1.365 . S
C213 N218 1.328 . S
C213 H219 0.929 . S
C214 C215 1.362 . S
C214 C217 1.378 . S
C214 H229 0.929 . S
C215 C214 1.362 . S
C215 C216 1.366 . S
C216 C213 1.365 . S
C216 C215 1.366 . S
C216 H230 0.930 . S
C217 C214 1.378 . S
C217 N218 1.315 . S
C217 H220 0.930 . S
N218 Co198 2.194 . S
N218 C213 1.328 . S
N218 C217 1.315 . S
H219 C213 0.929 . S
H220 C217 0.930 . S
H221 C209 0.929 . S
H222 C211 0.929 . S
O223 Co198 2.351 . S
O223 C226 1.244 . S
O224 Co198 2.155 . S
O224 C226 1.240 . S
O225 Co198 2.096 . S
O225 C206 1.247 1_655 S
C226 O223 1.244 . S
C226 O224 1.240 . S
H227 C201 0.931 . S
H228 C210 0.931 . S
H229 C214 0.929 . S
H230 C216 0.930 . S
Co231 N235 2.148 . S
Co231 N241 2.128 . S
Co231 N251 2.194 . S
Co231 O256 2.351 . S
Co231 O257 2.155 . S
Co231 O258 2.096 . S
C232 N235 1.301 . S
C232 N236 1.328 . S
C232 H237 0.930 . S
C233 C234 1.333 . S
C233 N235 1.317 . S
C233 H238 0.930 . S
C234 C233 1.333 . S
C234 N236 1.350 . S
C234 H260 0.931 . S
N235 Co231 2.148 . S
N235 C232 1.301 . S
N235 C233 1.317 . S
N236 C232 1.328 . S
N236 C234 1.350 . S
H237 C232 0.930 . S
H238 C233 0.930 . S
C239 O240 1.224 . S
C239 O258 1.247 . S
O240 C239 1.224 . S
N241 Co231 2.128 . S
N241 C242 1.355 . S
N241 C244 1.311 . S
C242 N241 1.355 . S
C242 C243 1.363 . S
C242 H254 0.929 . S
C243 C242 1.363 . S
C243 N245 1.375 . S
C243 H261 0.931 . S
C244 N241 1.311 . S
C244 N245 1.347 . S
C244 H255 0.929 . S
N245 C243 1.375 . S
N245 C244 1.347 . S
C246 C249 1.365 . S
C246 N251 1.328 . S
C246 H252 0.929 . S
C247 C248 1.362 . S
C247 C250 1.378 . S
C247 H262 0.929 . S
C248 C247 1.362 . S
C248 C249 1.366 . S
C249 C246 1.365 . S
C249 C248 1.366 . S
C249 H263 0.930 . S
C250 C247 1.378 . S
C250 N251 1.315 . S
C250 H253 0.930 . S
N251 Co231 2.194 . S
N251 C246 1.328 . S
N251 C250 1.315 . S
H252 C246 0.929 . S
H253 C250 0.930 . S
H254 C242 0.929 . S
H255 C244 0.929 . S
O256 Co231 2.351 . S
O256 C259 1.244 . S
O257 Co231 2.155 . S
O257 C259 1.240 . S
O258 Co231 2.096 . S
O258 C239 1.247 . S
C259 O256 1.244 . S
C259 O257 1.240 . S
H260 C234 0.931 . S
H261 C243 0.931 . S
H262 C247 0.929 . S
H263 C249 0.930 . S
Co264 N268 2.148 . S
Co264 N274 2.128 . S
Co264 N284 2.194 . S
Co264 O289 2.351 . S
Co264 O290 2.155 . S
Co264 O291 2.096 . S
C265 N268 1.301 . S
C265 N269 1.328 . S
C265 H270 0.930 . S
C266 C267 1.333 . S
C266 N268 1.317 1_565 S
C266 H271 0.930 . S
C267 C266 1.333 . S
C267 N269 1.350 1_565 S
C267 H293 0.931 . S
N268 Co264 2.148 . S
N268 C265 1.301 . S
N268 C266 1.317 1_545 S
N269 C265 1.328 . S
N269 C267 1.350 1_545 S
H270 C265 0.930 . S
H271 C266 0.930 . S
C272 O273 1.224 . S
C272 O291 1.247 1_565 S
O273 C272 1.224 . S
N274 Co264 2.128 . S
N274 C275 1.355 . S
N274 C277 1.311 . S
C275 N274 1.355 . S
C275 C276 1.363 . S
C275 H287 0.929 . S
C276 C275 1.363 . S
C276 N278 1.375 . S
C276 H294 0.931 . S
C277 N274 1.311 . S
C277 N278 1.347 . S
C277 H288 0.929 . S
N278 C276 1.375 . S
N278 C277 1.347 . S
C279 C282 1.365 . S
C279 N284 1.328 . S
C279 H285 0.929 . S
C280 C281 1.362 . S
C280 C283 1.378 . S
C280 H295 0.929 . S
C281 C280 1.362 . S
C281 C282 1.366 . S
C282 C279 1.365 . S
C282 C281 1.366 . S
C282 H296 0.930 . S
C283 C280 1.378 . S
C283 N284 1.315 . S
C283 H286 0.930 . S
N284 Co264 2.194 . S
N284 C279 1.328 . S
N284 C283 1.315 . S
H285 C279 0.929 . S
H286 C283 0.930 . S
H287 C275 0.929 . S
H288 C277 0.929 . S
O289 Co264 2.351 . S
O289 C292 1.244 . S
O290 Co264 2.155 . S
O290 C292 1.240 . S
O291 Co264 2.096 . S
O291 C272 1.247 1_545 S
C292 O289 1.244 . S
C292 O290 1.240 . S
H293 C267 0.931 . S
H294 C276 0.931 . S
H295 C280 0.929 . S
H296 C282 0.930 . S
Co297 N301 2.148 . S
Co297 N307 2.128 . S
Co297 N317 2.194 . S
Co297 O322 2.351 . S
Co297 O323 2.155 . S
Co297 O324 2.096 . S
C298 N301 1.301 . S
C298 N302 1.328 . S
C298 H303 0.930 . S
C299 C300 1.333 . S
C299 N301 1.317 1_545 S
C299 H304 0.930 . S
C300 C299 1.333 . S
C300 N302 1.350 1_545 S
C300 H326 0.931 . S
N301 Co297 2.148 . S
N301 C298 1.301 . S
N301 C299 1.317 1_565 S
N302 C298 1.328 . S
N302 C300 1.350 1_565 S
H303 C298 0.930 . S
H304 C299 0.930 . S
C305 O306 1.224 . S
C305 O324 1.247 1_545 S
O306 C305 1.224 . S
N307 Co297 2.128 . S
N307 C308 1.355 . S
N307 C310 1.311 . S
C308 N307 1.355 . S
C308 C309 1.363 . S
C308 H320 0.929 . S
C309 C308 1.363 . S
C309 N311 1.375 . S
C309 H327 0.931 . S
C310 N307 1.311 . S
C310 N311 1.347 . S
C310 H321 0.929 . S
N311 C309 1.375 . S
N311 C310 1.347 . S
C312 C315 1.365 . S
C312 N317 1.328 . S
C312 H318 0.929 . S
C313 C314 1.362 . S
C313 C316 1.378 . S
C313 H328 0.929 . S
C314 C313 1.362 . S
C314 C315 1.366 . S
C315 C312 1.365 . S
C315 C314 1.366 . S
C315 H329 0.930 . S
C316 C313 1.378 . S
C316 N317 1.315 . S
C316 H319 0.930 . S
N317 Co297 2.194 . S
N317 C312 1.328 . S
N317 C316 1.315 . S
H318 C312 0.929 . S
H319 C316 0.930 . S
H320 C308 0.929 . S
H321 C310 0.929 . S
O322 Co297 2.351 . S
O322 C325 1.244 . S
O323 Co297 2.155 . S
O323 C325 1.240 . S
O324 Co297 2.096 . S
O324 C305 1.247 1_565 S
C325 O322 1.244 . S
C325 O323 1.240 . S
H326 C300 0.931 . S
H327 C309 0.931 . S
H328 C313 0.929 . S
H329 C315 0.930 . S
Co330 N334 2.148 . S
Co330 N340 2.128 . S
Co330 N350 2.194 . S
Co330 O355 2.351 . S
Co330 O356 2.155 . S
Co330 O357 2.096 . S
C331 N334 1.301 . S
C331 N335 1.328 . S
C331 H336 0.930 . S
C332 C333 1.333 . S
C332 N334 1.317 1_655 S
C332 H337 0.930 . S
C333 C332 1.333 . S
C333 N335 1.350 1_655 S
C333 H359 0.931 . S
N334 Co330 2.148 . S
N334 C331 1.301 . S
N334 C332 1.317 1_455 S
N335 C331 1.328 . S
N335 C333 1.350 1_455 S
H336 C331 0.930 . S
H337 C332 0.930 . S
C338 O339 1.224 . S
C338 O357 1.247 1_655 S
O339 C338 1.224 . S
N340 Co330 2.128 . S
N340 C341 1.355 . S
N340 C343 1.311 . S
C341 N340 1.355 . S
C341 C342 1.363 . S
C341 H353 0.929 . S
C342 C341 1.363 . S
C342 N344 1.375 . S
C342 H360 0.931 . S
C343 N340 1.311 . S
C343 N344 1.347 . S
C343 H354 0.929 . S
N344 C342 1.375 . S
N344 C343 1.347 . S
C345 C348 1.365 . S
C345 N350 1.328 . S
C345 H351 0.929 . S
C346 C347 1.362 . S
C346 C349 1.378 . S
C346 H361 0.929 . S
C347 C346 1.362 . S
C347 C348 1.366 . S
C348 C345 1.365 . S
C348 C347 1.366 . S
C348 H362 0.930 . S
C349 C346 1.378 . S
C349 N350 1.315 . S
C349 H352 0.930 . S
N350 Co330 2.194 . S
N350 C345 1.328 . S
N350 C349 1.315 . S
H351 C345 0.929 . S
H352 C349 0.930 . S
H353 C341 0.929 . S
H354 C343 0.929 . S
O355 Co330 2.351 . S
O355 C358 1.244 . S
O356 Co330 2.155 . S
O356 C358 1.240 . S
O357 Co330 2.096 . S
O357 C338 1.247 1_455 S
C358 O355 1.244 . S
C358 O356 1.240 . S
H359 C333 0.931 . S
H360 C342 0.931 . S
H361 C346 0.929 . S
H362 C348 0.930 . S
Co363 N367 2.148 . S
Co363 N373 2.128 . S
Co363 N383 2.194 . S
Co363 O388 2.351 . S
Co363 O389 2.155 . S
Co363 O390 2.096 . S
C364 N367 1.301 . S
C364 N368 1.328 . S
C364 H369 0.930 . S
C365 C366 1.333 . S
C365 N367 1.317 . S
C365 H370 0.930 . S
C366 C365 1.333 . S
C366 N368 1.350 . S
C366 H392 0.931 . S
N367 Co363 2.148 . S
N367 C364 1.301 . S
N367 C365 1.317 . S
N368 C364 1.328 . S
N368 C366 1.350 . S
H369 C364 0.930 . S
H370 C365 0.930 . S
C371 O372 1.224 . S
C371 O390 1.247 . S
O372 C371 1.224 . S
N373 Co363 2.128 . S
N373 C374 1.355 . S
N373 C376 1.311 . S
C374 N373 1.355 . S
C374 C375 1.363 . S
C374 H386 0.929 . S
C375 C374 1.363 . S
C375 N377 1.375 . S
C375 H393 0.931 . S
C376 N373 1.311 . S
C376 N377 1.347 . S
C376 H387 0.929 . S
N377 C375 1.375 . S
N377 C376 1.347 . S
C378 C381 1.365 . S
C378 N383 1.328 . S
C378 H384 0.929 . S
C379 C380 1.362 . S
C379 C382 1.378 . S
C379 H394 0.929 . S
C380 C379 1.362 . S
C380 C381 1.366 . S
C381 C378 1.365 . S
C381 C380 1.366 . S
C381 H395 0.930 . S
C382 C379 1.378 . S
C382 N383 1.315 . S
C382 H385 0.930 . S
N383 Co363 2.194 . S
N383 C378 1.328 . S
N383 C382 1.315 . S
H384 C378 0.929 . S
H385 C382 0.930 . S
H386 C374 0.929 . S
H387 C376 0.929 . S
O388 Co363 2.351 . S
O388 C391 1.244 . S
O389 Co363 2.155 . S
O389 C391 1.240 . S
O390 Co363 2.096 . S
O390 C371 1.247 . S
C391 O388 1.244 . S
C391 O389 1.240 . S
H392 C366 0.931 . S
H393 C375 0.931 . S
H394 C379 0.929 . S
H395 C381 0.930 . S
Co396 N400 2.148 . S
Co396 N406 2.128 . S
Co396 N416 2.194 . S
Co396 O421 2.351 . S
Co396 O422 2.155 . S
Co396 O423 2.096 . S
C397 N400 1.301 . S
C397 N401 1.328 . S
C397 H402 0.930 . S
C398 C399 1.333 . S
C398 N400 1.317 . S
C398 H403 0.930 . S
C399 C398 1.333 . S
C399 N401 1.350 . S
C399 H425 0.931 . S
N400 Co396 2.148 . S
N400 C397 1.301 . S
N400 C398 1.317 . S
N401 C397 1.328 . S
N401 C399 1.350 . S
H402 C397 0.930 . S
H403 C398 0.930 . S
C404 O405 1.224 . S
C404 O423 1.247 . S
O405 C404 1.224 . S
N406 Co396 2.128 . S
N406 C407 1.355 . S
N406 C409 1.311 . S
C407 N406 1.355 . S
C407 C408 1.363 . S
C407 H419 0.929 . S
C408 C407 1.363 . S
C408 N410 1.375 . S
C408 H426 0.931 . S
C409 N406 1.311 . S
C409 N410 1.347 . S
C409 H420 0.929 . S
N410 C408 1.375 . S
N410 C409 1.347 . S
C411 C414 1.365 . S
C411 N416 1.328 . S
C411 H417 0.929 . S
C412 C413 1.362 . S
C412 C415 1.378 . S
C412 H427 0.929 . S
C413 C412 1.362 . S
C413 C414 1.366 . S
C414 C411 1.365 . S
C414 C413 1.366 . S
C414 H428 0.930 . S
C415 C412 1.378 . S
C415 N416 1.315 . S
C415 H418 0.930 . S
N416 Co396 2.194 . S
N416 C411 1.328 . S
N416 C415 1.315 . S
H417 C411 0.929 . S
H418 C415 0.930 . S
H419 C407 0.929 . S
H420 C409 0.929 . S
O421 Co396 2.351 . S
O421 C424 1.244 . S
O422 Co396 2.155 . S
O422 C424 1.240 . S
O423 Co396 2.096 . S
O423 C404 1.247 . S
C424 O421 1.244 . S
C424 O422 1.240 . S
H425 C399 0.931 . S
H426 C408 0.931 . S
H427 C412 0.929 . S
H428 C414 0.930 . S
Co429 N433 2.148 . S
Co429 N439 2.128 . S
Co429 N449 2.194 . S
Co429 O454 2.351 . S
Co429 O455 2.155 . S
Co429 O456 2.096 . S
C430 N433 1.301 . S
C430 N434 1.328 . S
C430 H435 0.930 . S
C431 C432 1.333 . S
C431 N433 1.317 . S
C431 H436 0.930 . S
C432 C431 1.333 . S
C432 N434 1.350 . S
C432 H458 0.931 1_545 S
N433 Co429 2.148 . S
N433 C430 1.301 . S
N433 C431 1.317 . S
N434 C430 1.328 . S
N434 C432 1.350 . S
H435 C430 0.930 . S
H436 C431 0.930 . S
C437 O438 1.224 . S
C437 O456 1.247 . S
O438 C437 1.224 . S
N439 Co429 2.128 . S
N439 C440 1.355 . S
N439 C442 1.311 . S
C440 N439 1.355 . S
C440 C441 1.363 . S
C440 H452 0.929 . S
C441 C440 1.363 . S
C441 N443 1.375 . S
C441 H459 0.931 . S
C442 N439 1.311 . S
C442 N443 1.347 . S
C442 H453 0.929 . S
N443 C441 1.375 . S
N443 C442 1.347 . S
C444 C447 1.365 . S
C444 N449 1.328 . S
C444 H450 0.929 . S
C445 C446 1.362 . S
C445 C448 1.378 . S
C445 H460 0.929 . S
C446 C445 1.362 . S
C446 C447 1.366 . S
C447 C444 1.365 . S
C447 C446 1.366 . S
C447 H461 0.930 . S
C448 C445 1.378 . S
C448 N449 1.315 . S
C448 H451 0.930 . S
N449 Co429 2.194 . S
N449 C444 1.328 . S
N449 C448 1.315 . S
H450 C444 0.929 . S
H451 C448 0.930 . S
H452 C440 0.929 . S
H453 C442 0.929 . S
O454 Co429 2.351 . S
O454 C457 1.244 . S
O455 Co429 2.155 . S
O455 C457 1.240 . S
O456 Co429 2.096 . S
O456 C437 1.247 . S
C457 O454 1.244 . S
C457 O455 1.240 . S
H458 C432 0.931 1_565 S
H459 C441 0.931 . S
H460 C445 0.929 . S
H461 C447 0.930 . S
Co462 N466 2.148 . S
Co462 N472 2.128 . S
Co462 N482 2.194 . S
Co462 O487 2.351 . S
Co462 O488 2.155 . S
Co462 O489 2.096 . S
C463 N466 1.301 . S
C463 N467 1.328 . S
C463 H468 0.930 . S
C464 C465 1.333 . S
C464 N466 1.317 . S
C464 H469 0.930 . S
C465 C464 1.333 . S
C465 N467 1.350 . S
C465 H491 0.931 1_655 S
N466 Co462 2.148 . S
N466 C463 1.301 . S
N466 C464 1.317 . S
N467 C463 1.328 . S
N467 C465 1.350 . S
H468 C463 0.930 . S
H469 C464 0.930 . S
C470 O471 1.224 . S
C470 O489 1.247 . S
O471 C470 1.224 . S
N472 Co462 2.128 . S
N472 C473 1.355 . S
N472 C475 1.311 . S
C473 N472 1.355 . S
C473 C474 1.363 . S
C473 H485 0.929 . S
C474 C473 1.363 . S
C474 N476 1.375 . S
C474 H492 0.931 . S
C475 N472 1.311 . S
C475 N476 1.347 . S
C475 H486 0.929 . S
N476 C474 1.375 . S
N476 C475 1.347 . S
C477 C480 1.365 . S
C477 N482 1.328 . S
C477 H483 0.929 . S
C478 C479 1.362 . S
C478 C481 1.378 . S
C478 H493 0.929 . S
C479 C478 1.362 . S
C479 C480 1.366 . S
C480 C477 1.365 . S
C480 C479 1.366 . S
C480 H494 0.930 . S
C481 C478 1.378 . S
C481 N482 1.315 . S
C481 H484 0.930 . S
N482 Co462 2.194 . S
N482 C477 1.328 . S
N482 C481 1.315 . S
H483 C477 0.929 . S
H484 C481 0.930 . S
H485 C473 0.929 . S
H486 C475 0.929 . S
O487 Co462 2.351 . S
O487 C490 1.244 . S
O488 Co462 2.155 . S
O488 C490 1.240 . S
O489 Co462 2.096 . S
O489 C470 1.247 . S
C490 O487 1.244 . S
C490 O488 1.240 . S
H491 C465 0.931 1_455 S
H492 C474 0.931 . S
H493 C478 0.929 . S
H494 C480 0.930 . S
Co495 N499 2.148 . S
Co495 N505 2.128 . S
Co495 N515 2.194 . S
Co495 O520 2.351 . S
Co495 O521 2.155 . S
Co495 O522 2.096 . S
C496 N499 1.301 1_455 S
C496 N500 1.328 . S
C496 H501 0.930 . S
C497 C498 1.333 . S
C497 N499 1.317 . S
C497 H502 0.930 . S
C498 C497 1.333 . S
C498 N500 1.350 1_655 S
C498 H524 0.931 . S
N499 Co495 2.148 . S
N499 C496 1.301 1_655 S
N499 C497 1.317 . S
N500 C496 1.328 . S
N500 C498 1.350 1_455 S
H501 C496 0.930 . S
H502 C497 0.930 . S
C503 O504 1.224 . S
C503 O522 1.247 . S
O504 C503 1.224 . S
N505 Co495 2.128 . S
N505 C506 1.355 . S
N505 C508 1.311 . S
C506 N505 1.355 . S
C506 C507 1.363 . S
C506 H518 0.929 . S
C507 C506 1.363 . S
C507 N509 1.375 . S
C507 H525 0.931 . S
C508 N505 1.311 . S
C508 N509 1.347 . S
C508 H519 0.929 . S
N509 C507 1.375 . S
N509 C508 1.347 . S
C510 C513 1.365 1_655 S
C510 N515 1.328 . S
C510 H516 0.929 1_655 S
C511 C512 1.362 . S
C511 C514 1.378 . S
C511 H526 0.929 . S
C512 C511 1.362 . S
C512 C513 1.366 1_655 S
C513 C510 1.365 1_455 S
C513 C512 1.366 1_455 S
C513 H527 0.930 . S
C514 C511 1.378 . S
C514 N515 1.315 . S
C514 H517 0.930 . S
N515 Co495 2.194 . S
N515 C510 1.328 . S
N515 C514 1.315 . S
H516 C510 0.929 1_455 S
H517 C514 0.930 . S
H518 C506 0.929 . S
H519 C508 0.929 . S
O520 Co495 2.351 . S
O520 C523 1.244 . S
O521 Co495 2.155 . S
O521 C523 1.240 . S
O522 Co495 2.096 . S
O522 C503 1.247 . S
C523 O520 1.244 . S
C523 O521 1.240 . S
H524 C498 0.931 . S
H525 C507 0.931 . S
H526 C511 0.929 . S
H527 C513 0.930 . S
Co528 N532 2.148 . S
Co528 N538 2.128 . S
Co528 N548 2.194 . S
Co528 O553 2.351 . S
Co528 O554 2.155 . S
Co528 O555 2.096 . S
C529 N532 1.301 . S
C529 N533 1.328 . S
C529 H534 0.930 . S
C530 C531 1.333 . S
C530 N532 1.317 . S
C530 H535 0.930 . S
C531 C530 1.333 . S
C531 N533 1.350 . S
C531 H557 0.931 . S
N532 Co528 2.148 . S
N532 C529 1.301 . S
N532 C530 1.317 . S
N533 C529 1.328 . S
N533 C531 1.350 . S
H534 C529 0.930 . S
H535 C530 0.930 . S
C536 O537 1.224 . S
C536 O555 1.247 . S
O537 C536 1.224 . S
N538 Co528 2.128 . S
N538 C539 1.355 . S
N538 C541 1.311 . S
C539 N538 1.355 . S
C539 C540 1.363 . S
C539 H551 0.929 . S
C540 C539 1.363 . S
C540 N542 1.375 . S
C540 H558 0.931 . S
C541 N538 1.311 . S
C541 N542 1.347 . S
C541 H552 0.929 . S
N542 C540 1.375 . S
N542 C541 1.347 . S
C543 C546 1.365 . S
C543 N548 1.328 . S
C543 H549 0.929 . S
C544 C545 1.362 . S
C544 C547 1.378 . S
C544 H559 0.929 . S
C545 C544 1.362 . S
C545 C546 1.366 . S
C546 C543 1.365 . S
C546 C545 1.366 . S
C546 H560 0.930 . S
C547 C544 1.378 . S
C547 N548 1.315 . S
C547 H550 0.930 . S
N548 Co528 2.194 . S
N548 C543 1.328 . S
N548 C547 1.315 . S
H549 C543 0.929 . S
H550 C547 0.930 . S
H551 C539 0.929 . S
H552 C541 0.929 . S
O553 Co528 2.351 . S
O553 C556 1.244 . S
O554 Co528 2.155 . S
O554 C556 1.240 . S
O555 Co528 2.096 . S
O555 C536 1.247 . S
C556 O553 1.244 . S
C556 O554 1.240 . S
H557 C531 0.931 . S
H558 C540 0.931 . S
H559 C544 0.929 . S
H560 C546 0.930 . S
Co561 N565 2.148 . S
Co561 N571 2.128 . S
Co561 N581 2.194 . S
Co561 O586 2.351 . S
Co561 O587 2.155 . S
Co561 O588 2.096 . S
C562 N565 1.301 1_565 S
C562 N566 1.328 . S
C562 H567 0.930 . S
C563 C564 1.333 . S
C563 N565 1.317 . S
C563 H568 0.930 . S
C564 C563 1.333 . S
C564 N566 1.350 1_545 S
C564 H590 0.931 . S
N565 Co561 2.148 . S
N565 C562 1.301 1_545 S
N565 C563 1.317 . S
N566 C562 1.328 . S
N566 C564 1.350 1_565 S
H567 C562 0.930 . S
H568 C563 0.930 . S
C569 O570 1.224 . S
C569 O588 1.247 . S
O570 C569 1.224 . S
N571 Co561 2.128 . S
N571 C572 1.355 . S
N571 C574 1.311 . S
C572 N571 1.355 . S
C572 C573 1.363 . S
C572 H584 0.929 . S
C573 C572 1.363 . S
C573 N575 1.375 . S
C573 H591 0.931 . S
C574 N571 1.311 . S
C574 N575 1.347 . S
C574 H585 0.929 . S
N575 C573 1.375 . S
N575 C574 1.347 . S
C576 C579 1.362 1_545 S
C576 N581 1.328 . S
C576 H582 0.929 1_545 S
C577 C578 1.362 . S
C577 C580 1.378 . S
C577 H592 0.929 . S
C578 C577 1.362 . S
C578 C579 1.346 1_545 S
C579 C576 1.362 1_565 S
C579 C578 1.346 1_565 S
C579 H593 0.954 . S
C580 C577 1.378 . S
C580 N581 1.315 . S
C580 H583 0.930 . S
N581 Co561 2.194 . S
N581 C576 1.328 . S
N581 C580 1.315 . S
H582 C576 0.929 1_565 S
H583 C580 0.930 . S
H584 C572 0.929 . S
H585 C574 0.929 . S
O586 Co561 2.351 . S
O586 C589 1.244 . S
O587 Co561 2.155 . S
O587 C589 1.240 . S
O588 Co561 2.096 . S
O588 C569 1.247 . S
C589 O586 1.244 . S
C589 O587 1.240 . S
H590 C564 0.931 . S
H591 C573 0.931 . S
H592 C577 0.929 . S
H593 C579 0.954 . S
Co594 N598 2.148 . S
Co594 N604 2.128 . S
Co594 N614 2.194 . S
Co594 O619 2.351 . S
Co594 O620 2.155 . S
Co594 O621 2.096 . S
C595 N598 1.301 1_565 S
C595 N599 1.328 . S
C595 H600 0.930 . S
C596 C597 1.333 . S
C596 N598 1.317 . S
C596 H601 0.930 . S
C597 C596 1.333 . S
C597 N599 1.350 1_545 S
C597 H623 0.931 . S
N598 Co594 2.148 . S
N598 C595 1.301 1_545 S
N598 C596 1.317 . S
N599 C595 1.328 . S
N599 C597 1.350 1_565 S
H600 C595 0.930 . S
H601 C596 0.930 . S
C602 O603 1.224 . S
C602 O621 1.247 . S
O603 C602 1.224 . S
N604 Co594 2.128 . S
N604 C605 1.355 . S
N604 C607 1.311 . S
C605 N604 1.355 . S
C605 C606 1.363 . S
C605 H617 0.929 . S
C606 C605 1.363 . S
C606 N608 1.375 . S
C606 H624 0.931 . S
C607 N604 1.311 . S
C607 N608 1.347 . S
C607 H618 0.929 . S
N608 C606 1.375 . S
N608 C607 1.347 . S
C609 C612 1.365 1_545 S
C609 N614 1.328 . S
C609 H615 0.929 1_545 S
C610 C611 1.362 . S
C610 C613 1.378 . S
C610 H625 0.929 . S
C611 C610 1.362 . S
C611 C612 1.366 1_545 S
C612 C609 1.365 1_565 S
C612 C611 1.366 1_565 S
C612 H626 0.930 . S
C613 C610 1.378 . S
C613 N614 1.315 . S
C613 H616 0.930 . S
N614 Co594 2.194 . S
N614 C609 1.328 . S
N614 C613 1.315 . S
H615 C609 0.929 1_565 S
H616 C613 0.930 . S
H617 C605 0.929 . S
H618 C607 0.929 . S
O619 Co594 2.351 . S
O619 C622 1.244 . S
O620 Co594 2.155 . S
O620 C622 1.240 . S
O621 Co594 2.096 . S
O621 C602 1.247 . S
C622 O619 1.244 . S
C622 O620 1.240 . S
H623 C597 0.931 . S
H624 C606 0.931 . S
H625 C610 0.929 . S
H626 C612 0.930 . S
Co627 N631 2.148 . S
Co627 N637 2.128 . S
Co627 N647 2.194 . S
Co627 O652 2.351 . S
Co627 O653 2.155 . S
Co627 O654 2.096 . S
C628 N631 1.301 1_455 S
C628 N632 1.328 . S
C628 H633 0.930 . S
C629 C630 1.333 . S
C629 N631 1.317 . S
C629 H634 0.930 . S
C630 C629 1.333 . S
C630 N632 1.350 1_655 S
C630 H656 0.931 . S
N631 Co627 2.148 . S
N631 C628 1.301 1_655 S
N631 C629 1.317 . S
N632 C628 1.328 . S
N632 C630 1.350 1_455 S
H633 C628 0.930 . S
H634 C629 0.930 . S
C635 O636 1.224 . S
C635 O654 1.247 . S
O636 C635 1.224 . S
N637 Co627 2.128 . S
N637 C638 1.355 . S
N637 C640 1.311 . S
C638 N637 1.355 . S
C638 C639 1.363 . S
C638 H650 0.929 . S
C639 C638 1.363 . S
C639 N641 1.375 . S
C639 H657 0.931 . S
C640 N637 1.311 . S
C640 N641 1.347 . S
C640 H651 0.929 . S
N641 C639 1.375 . S
N641 C640 1.347 . S
C642 C645 1.362 1_655 S
C642 N647 1.328 . S
C642 H648 0.929 1_655 S
C643 C644 1.362 . S
C643 C646 1.378 . S
C643 H658 0.929 . S
C644 C643 1.362 . S
C644 C645 1.347 1_655 S
C645 C642 1.362 1_455 S
C645 C644 1.347 1_455 S
C645 H659 0.953 . S
C646 C643 1.378 . S
C646 N647 1.315 . S
C646 H649 0.930 . S
N647 Co627 2.194 . S
N647 C642 1.328 . S
N647 C646 1.315 . S
H648 C642 0.929 1_455 S
H649 C646 0.930 . S
H650 C638 0.929 . S
H651 C640 0.929 . S
O652 Co627 2.351 . S
O652 C655 1.244 . S
O653 Co627 2.155 . S
O653 C655 1.240 . S
O654 Co627 2.096 . S
O654 C635 1.247 . S
C655 O652 1.244 . S
C655 O653 1.240 . S
H656 C630 0.931 . S
H657 C639 0.931 . S
H658 C643 0.929 . S
H659 C645 0.953 . S
Co660 N664 2.148 . S
Co660 N670 2.128 . S
Co660 N680 2.194 . S
Co660 O685 2.351 . S
Co660 O686 2.155 . S
Co660 O687 2.096 . S
C661 N664 1.301 . S
C661 N665 1.328 . S
C661 H666 0.930 . S
C662 C663 1.333 . S
C662 N664 1.317 . S
C662 H667 0.930 . S
C663 C662 1.333 . S
C663 N665 1.350 . S
C663 H689 0.931 . S
N664 Co660 2.148 . S
N664 C661 1.301 . S
N664 C662 1.317 . S
N665 C661 1.328 . S
N665 C663 1.350 . S
H666 C661 0.930 . S
H667 C662 0.930 . S
C668 O669 1.224 . S
C668 O687 1.247 . S
O669 C668 1.224 . S
N670 Co660 2.128 . S
N670 C671 1.355 . S
N670 C673 1.311 . S
C671 N670 1.355 . S
C671 C672 1.363 . S
C671 H683 0.929 . S
C672 C671 1.363 . S
C672 N674 1.375 . S
C672 H690 0.931 . S
C673 N670 1.311 . S
C673 N674 1.347 . S
C673 H684 0.929 . S
N674 C672 1.375 . S
N674 C673 1.347 . S
C675 C678 1.365 . S
C675 N680 1.328 . S
C675 H681 0.929 . S
C676 C677 1.362 . S
C676 C679 1.378 . S
C676 H691 0.929 . S
C677 C676 1.362 . S
C677 C678 1.366 . S
C678 C675 1.365 . S
C678 C677 1.366 . S
C678 H692 0.930 . S
C679 C676 1.378 . S
C679 N680 1.315 . S
C679 H682 0.930 . S
N680 Co660 2.194 . S
N680 C675 1.328 . S
N680 C679 1.315 . S
H681 C675 0.929 . S
H682 C679 0.930 . S
H683 C671 0.929 . S
H684 C673 0.929 . S
O685 Co660 2.351 . S
O685 C688 1.244 . S
O686 Co660 2.155 . S
O686 C688 1.240 . S
O687 Co660 2.096 . S
O687 C668 1.247 . S
C688 O685 1.244 . S
C688 O686 1.240 . S
H689 C663 0.931 . S
H690 C672 0.931 . S
H691 C676 0.929 . S
H692 C678 0.930 . S
Co693 N697 2.148 . S
Co693 N703 2.128 . S
Co693 N713 2.194 . S
Co693 O718 2.351 . S
Co693 O719 2.155 . S
Co693 O720 2.096 . S
C694 N697 1.301 . S
C694 N698 1.328 . S
C694 H699 0.930 . S
C695 C696 1.333 . S
C695 N697 1.317 . S
C695 H700 0.930 . S
C696 C695 1.333 . S
C696 N698 1.350 . S
C696 H722 0.931 . S
N697 Co693 2.148 . S
N697 C694 1.301 . S
N697 C695 1.317 . S
N698 C694 1.328 . S
N698 C696 1.350 . S
H699 C694 0.930 . S
H700 C695 0.930 . S
C701 O702 1.224 . S
C701 O720 1.247 . S
O702 C701 1.224 . S
N703 Co693 2.128 . S
N703 C704 1.355 . S
N703 C706 1.311 . S
C704 N703 1.355 . S
C704 C705 1.363 . S
C704 H716 0.929 . S
C705 C704 1.363 . S
C705 N707 1.375 . S
C705 H723 0.931 . S
C706 N703 1.311 . S
C706 N707 1.347 . S
C706 H717 0.929 . S
N707 C705 1.375 . S
N707 C706 1.347 . S
C708 C711 1.365 . S
C708 N713 1.328 . S
C708 H714 0.929 . S
C709 C710 1.362 . S
C709 C712 1.378 . S
C709 H724 0.929 . S
C710 C709 1.362 . S
C710 C711 1.366 . S
C711 C708 1.365 . S
C711 C710 1.366 . S
C711 H725 0.930 . S
C712 C709 1.378 . S
C712 N713 1.315 . S
C712 H715 0.930 . S
N713 Co693 2.194 . S
N713 C708 1.328 . S
N713 C712 1.315 . S
H714 C708 0.929 . S
H715 C712 0.930 . S
H716 C704 0.929 . S
H717 C706 0.929 . S
O718 Co693 2.351 . S
O718 C721 1.244 . S
O719 Co693 2.155 . S
O719 C721 1.240 . S
O720 Co693 2.096 . S
O720 C701 1.247 . S
C721 O718 1.244 . S
C721 O719 1.240 . S
H722 C696 0.931 . S
H723 C705 0.931 . S
H724 C709 0.929 . S
H725 C711 0.930 . S
Co726 N730 2.148 . S
Co726 N736 2.128 . S
Co726 N746 2.194 . S
Co726 O751 2.351 . S
Co726 O752 2.155 . S
Co726 O753 2.096 . S
C727 N730 1.301 . S
C727 N731 1.328 . S
C727 H732 0.930 . S
C728 C729 1.333 . S
C728 N730 1.317 . S
C728 H733 0.930 . S
C729 C728 1.333 . S
C729 N731 1.350 . S
C729 H755 0.931 1_545 S
N730 Co726 2.148 . S
N730 C727 1.301 . S
N730 C728 1.317 . S
N731 C727 1.328 . S
N731 C729 1.350 . S
H732 C727 0.930 . S
H733 C728 0.930 . S
C734 O735 1.224 . S
C734 O753 1.247 . S
O735 C734 1.224 . S
N736 Co726 2.128 . S
N736 C737 1.355 . S
N736 C739 1.311 . S
C737 N736 1.355 . S
C737 C738 1.363 . S
C737 H749 0.929 . S
C738 C737 1.363 . S
C738 N740 1.375 . S
C738 H756 0.931 . S
C739 N736 1.311 . S
C739 N740 1.347 . S
C739 H750 0.929 . S
N740 C738 1.375 . S
N740 C739 1.347 . S
C741 C744 1.365 . S
C741 N746 1.328 . S
C741 H747 0.929 . S
C742 C743 1.362 . S
C742 C745 1.378 . S
C742 H757 0.929 . S
C743 C742 1.362 . S
C743 C744 1.366 . S
C744 C741 1.365 . S
C744 C743 1.366 . S
C744 H758 0.930 . S
C745 C742 1.378 . S
C745 N746 1.315 . S
C745 H748 0.930 . S
N746 Co726 2.194 . S
N746 C741 1.328 . S
N746 C745 1.315 . S
H747 C741 0.929 . S
H748 C745 0.930 . S
H749 C737 0.929 . S
H750 C739 0.929 . S
O751 Co726 2.351 . S
O751 C754 1.244 . S
O752 Co726 2.155 . S
O752 C754 1.240 . S
O753 Co726 2.096 . S
O753 C734 1.247 . S
C754 O751 1.244 . S
C754 O752 1.240 . S
H755 C729 0.931 1_565 S
H756 C738 0.931 . S
H757 C742 0.929 . S
H758 C744 0.930 . S
Co759 N763 2.148 . S
Co759 N769 2.128 . S
Co759 N779 2.194 . S
Co759 O784 2.351 . S
Co759 O785 2.155 . S
Co759 O786 2.096 . S
C760 N763 1.301 . S
C760 N764 1.328 . S
C760 H765 0.930 . S
C761 C762 1.333 . S
C761 N763 1.317 . S
C761 H766 0.930 . S
C762 C761 1.333 . S
C762 N764 1.350 . S
C762 H788 0.931 1_655 S
N763 Co759 2.148 . S
N763 C760 1.301 . S
N763 C761 1.317 . S
N764 C760 1.328 . S
N764 C762 1.350 . S
H765 C760 0.930 . S
H766 C761 0.930 . S
C767 O768 1.224 . S
C767 O786 1.247 . S
O768 C767 1.224 . S
N769 Co759 2.128 . S
N769 C770 1.355 . S
N769 C772 1.311 . S
C770 N769 1.355 . S
C770 C771 1.363 . S
C770 H782 0.929 . S
C771 C770 1.363 . S
C771 N773 1.375 . S
C771 H789 0.931 . S
C772 N769 1.311 . S
C772 N773 1.347 . S
C772 H783 0.929 . S
N773 C771 1.375 . S
N773 C772 1.347 . S
C774 C777 1.365 . S
C774 N779 1.328 . S
C774 H780 0.929 . S
C775 C776 1.362 . S
C775 C778 1.378 . S
C775 H790 0.929 . S
C776 C775 1.362 . S
C776 C777 1.366 . S
C777 C774 1.365 . S
C777 C776 1.366 . S
C777 H791 0.930 . S
C778 C775 1.378 . S
C778 N779 1.315 . S
C778 H781 0.930 . S
N779 Co759 2.194 . S
N779 C774 1.328 . S
N779 C778 1.315 . S
H780 C774 0.929 . S
H781 C778 0.930 . S
H782 C770 0.929 . S
H783 C772 0.929 . S
O784 Co759 2.351 . S
O784 C787 1.244 . S
O785 Co759 2.155 . S
O785 C787 1.240 . S
O786 Co759 2.096 . S
O786 C767 1.247 . S
C787 O784 1.244 . S
C787 O785 1.240 . S
H788 C762 0.931 1_455 S
H789 C771 0.931 . S
H790 C775 0.929 . S
H791 C777 0.930 . S
Co792 N796 2.148 . S
Co792 N802 2.128 . S
Co792 N812 2.194 . S
Co792 O817 2.351 . S
Co792 O818 2.155 . S
Co792 O819 2.096 . S
C793 N796 1.301 1_545 S
C793 N797 1.328 . S
C793 H798 0.930 . S
C794 C795 1.333 . S
C794 N796 1.317 . S
C794 H799 0.930 . S
C795 C794 1.333 . S
C795 N797 1.350 1_565 S
C795 H821 0.931 . S
N796 Co792 2.148 . S
N796 C793 1.301 1_565 S
N796 C794 1.317 . S
N797 C793 1.328 . S
N797 C795 1.350 1_545 S
H798 C793 0.930 . S
H799 C794 0.930 . S
C800 O801 1.224 . S
C800 O819 1.247 . S
O801 C800 1.224 . S
N802 Co792 2.128 . S
N802 C803 1.355 . S
N802 C805 1.311 . S
C803 N802 1.355 . S
C803 C804 1.363 . S
C803 H815 0.929 . S
C804 C803 1.363 . S
C804 N806 1.375 . S
C804 H822 0.931 . S
C805 N802 1.311 . S
C805 N806 1.347 . S
C805 H816 0.929 . S
N806 C804 1.375 . S
N806 C805 1.347 . S
C807 C810 1.365 1_565 S
C807 N812 1.328 . S
C807 H813 0.929 1_565 S
C808 C809 1.362 . S
C808 C811 1.378 . S
C808 H823 0.929 . S
C809 C808 1.362 . S
C809 C810 1.366 1_565 S
C810 C807 1.365 1_545 S
C810 C809 1.366 1_545 S
C810 H824 0.930 . S
C811 C808 1.378 . S
C811 N812 1.315 . S
C811 H814 0.930 . S
N812 Co792 2.194 . S
N812 C807 1.328 . S
N812 C811 1.315 . S
H813 C807 0.929 1_545 S
H814 C811 0.930 . S
H815 C803 0.929 . S
H816 C805 0.929 . S
O817 Co792 2.351 . S
O817 C820 1.244 . S
O818 Co792 2.155 . S
O818 C820 1.240 . S
O819 Co792 2.096 . S
O819 C800 1.247 . S
C820 O817 1.244 . S
C820 O818 1.240 . S
H821 C795 0.931 . S
H822 C804 0.931 . S
H823 C808 0.929 . S
H824 C810 0.930 . S
Co825 N829 2.148 . S
Co825 N835 2.128 . S
Co825 N845 2.194 . S
Co825 O850 2.351 . S
Co825 O851 2.155 . S
Co825 O852 2.096 . S
C826 N829 1.301 1_655 S
C826 N830 1.328 . S
C826 H831 0.930 . S
C827 C828 1.333 . S
C827 N829 1.317 . S
C827 H832 0.930 . S
C828 C827 1.333 . S
C828 N830 1.350 1_455 S
C828 H854 0.931 . S
N829 Co825 2.148 . S
N829 C826 1.301 1_455 S
N829 C827 1.317 . S
N830 C826 1.328 . S
N830 C828 1.350 1_655 S
H831 C826 0.930 . S
H832 C827 0.930 . S
C833 O834 1.224 . S
C833 O852 1.247 . S
O834 C833 1.224 . S
N835 Co825 2.128 . S
N835 C836 1.355 . S
N835 C838 1.311 . S
C836 N835 1.355 . S
C836 C837 1.363 . S
C836 H848 0.929 . S
C837 C836 1.363 . S
C837 N839 1.375 . S
C837 H855 0.931 . S
C838 N835 1.311 . S
C838 N839 1.347 . S
C838 H849 0.929 . S
N839 C837 1.375 . S
N839 C838 1.347 . S
C840 C843 1.362 1_455 S
C840 N845 1.328 . S
C840 H846 0.929 1_455 S
C841 C842 1.362 . S
C841 C844 1.378 . S
C841 H856 0.929 . S
C842 C841 1.362 . S
C842 C843 1.347 1_455 S
C843 C840 1.362 1_655 S
C843 C842 1.347 1_655 S
C843 H857 0.953 . S
C844 C841 1.378 . S
C844 N845 1.315 . S
C844 H847 0.930 . S
N845 Co825 2.194 . S
N845 C840 1.328 . S
N845 C844 1.315 . S
H846 C840 0.929 1_655 S
H847 C844 0.930 . S
H848 C836 0.929 . S
H849 C838 0.929 . S
O850 Co825 2.351 . S
O850 C853 1.244 . S
O851 Co825 2.155 . S
O851 C853 1.240 . S
O852 Co825 2.096 . S
O852 C833 1.247 . S
C853 O850 1.244 . S
C853 O851 1.240 . S
H854 C828 0.931 . S
H855 C837 0.931 . S
H856 C841 0.929 . S
H857 C843 0.953 . S
Co858 N862 2.148 . S
Co858 N868 2.128 . S
Co858 N878 2.194 . S
Co858 O883 2.351 . S
Co858 O884 2.155 . S
Co858 O885 2.096 . S
C859 N862 1.301 . S
C859 N863 1.328 . S
C859 H864 0.930 . S
C860 C861 1.333 . S
C860 N862 1.317 . S
C860 H865 0.930 . S
C861 C860 1.333 . S
C861 N863 1.350 . S
C861 H887 0.931 . S
N862 Co858 2.148 . S
N862 C859 1.301 . S
N862 C860 1.317 . S
N863 C859 1.328 . S
N863 C861 1.350 . S
H864 C859 0.930 . S
H865 C860 0.930 . S
C866 O867 1.224 . S
C866 O885 1.247 . S
O867 C866 1.224 . S
N868 Co858 2.128 . S
N868 C869 1.355 . S
N868 C871 1.311 . S
C869 N868 1.355 . S
C869 C870 1.363 . S
C869 H881 0.929 . S
C870 C869 1.363 . S
C870 N872 1.375 . S
C870 H888 0.931 . S
C871 N868 1.311 . S
C871 N872 1.347 . S
C871 H882 0.929 . S
N872 C870 1.375 . S
N872 C871 1.347 . S
C873 C876 1.365 . S
C873 N878 1.328 . S
C873 H879 0.929 . S
C874 C875 1.362 . S
C874 C877 1.378 . S
C874 H889 0.929 . S
C875 C874 1.362 . S
C875 C876 1.366 . S
C876 C873 1.365 . S
C876 C875 1.366 . S
C876 H890 0.930 . S
C877 C874 1.378 . S
C877 N878 1.315 . S
C877 H880 0.930 . S
N878 Co858 2.194 . S
N878 C873 1.328 . S
N878 C877 1.315 . S
H879 C873 0.929 . S
H880 C877 0.930 . S
H881 C869 0.929 . S
H882 C871 0.929 . S
O883 Co858 2.351 . S
O883 C886 1.244 . S
O884 Co858 2.155 . S
O884 C886 1.240 . S
O885 Co858 2.096 . S
O885 C866 1.247 . S
C886 O883 1.244 . S
C886 O884 1.240 . S
H887 C861 0.931 . S
H888 C870 0.931 . S
H889 C874 0.929 . S
H890 C876 0.930 . S
Co891 N895 2.148 . S
Co891 N901 2.128 . S
Co891 N911 2.194 . S
Co891 O916 2.351 . S
Co891 O917 2.155 . S
Co891 O918 2.096 . S
C892 N895 1.301 . S
C892 N896 1.328 . S
C892 H897 0.930 . S
C893 C894 1.333 . S
C893 N895 1.317 . S
C893 H898 0.930 . S
C894 C893 1.333 . S
C894 N896 1.350 . S
C894 H920 0.931 . S
N895 Co891 2.148 . S
N895 C892 1.301 . S
N895 C893 1.317 . S
N896 C892 1.328 . S
N896 C894 1.350 . S
H897 C892 0.930 . S
H898 C893 0.930 . S
C899 O900 1.224 . S
C899 O918 1.247 . S
O900 C899 1.224 . S
N901 Co891 2.128 . S
N901 C902 1.355 . S
N901 C904 1.311 . S
C902 N901 1.355 . S
C902 C903 1.363 . S
C902 H914 0.929 . S
C903 C902 1.363 . S
C903 N905 1.375 . S
C903 H921 0.931 . S
C904 N901 1.311 . S
C904 N905 1.347 . S
C904 H915 0.929 . S
N905 C903 1.375 . S
N905 C904 1.347 . S
C906 C909 1.365 . S
C906 N911 1.328 . S
C906 H912 0.929 . S
C907 C908 1.362 . S
C907 C910 1.378 . S
C907 H922 0.929 . S
C908 C907 1.362 . S
C908 C909 1.366 . S
C909 C906 1.365 . S
C909 C908 1.366 . S
C909 H923 0.930 . S
C910 C907 1.378 . S
C910 N911 1.315 . S
C910 H913 0.930 . S
N911 Co891 2.194 . S
N911 C906 1.328 . S
N911 C910 1.315 . S
H912 C906 0.929 . S
H913 C910 0.930 . S
H914 C902 0.929 . S
H915 C904 0.929 . S
O916 Co891 2.351 . S
O916 C919 1.244 . S
O917 Co891 2.155 . S
O917 C919 1.240 . S
O918 Co891 2.096 . S
O918 C899 1.247 . S
C919 O916 1.244 . S
C919 O917 1.240 . S
H920 C894 0.931 . S
H921 C903 0.931 . S
H922 C907 0.929 . S
H923 C909 0.930 . S
Co924 N928 2.148 . S
Co924 N934 2.128 . S
Co924 N944 2.194 . S
Co924 O949 2.351 . S
Co924 O950 2.155 . S
Co924 O951 2.096 . S
C925 N928 1.301 . S
C925 N929 1.328 . S
C925 H930 0.930 . S
C926 C927 1.333 . S
C926 N928 1.317 . S
C926 H931 0.930 . S
C927 C926 1.333 . S
C927 N929 1.350 . S
C927 H953 0.931 1_565 S
N928 Co924 2.148 . S
N928 C925 1.301 . S
N928 C926 1.317 . S
N929 C925 1.328 . S
N929 C927 1.350 . S
H930 C925 0.930 . S
H931 C926 0.930 . S
C932 O933 1.224 . S
C932 O951 1.247 . S
O933 C932 1.224 . S
N934 Co924 2.128 . S
N934 C935 1.355 . S
N934 C937 1.311 . S
C935 N934 1.355 . S
C935 C936 1.363 . S
C935 H947 0.929 . S
C936 C935 1.363 . S
C936 N938 1.375 . S
C936 H954 0.931 . S
C937 N934 1.311 . S
C937 N938 1.347 . S
C937 H948 0.929 . S
N938 C936 1.375 . S
N938 C937 1.347 . S
C939 C942 1.365 . S
C939 N944 1.328 . S
C939 H945 0.929 . S
C940 C941 1.362 . S
C940 C943 1.378 . S
C940 H955 0.929 . S
C941 C940 1.362 . S
C941 C942 1.366 . S
C942 C939 1.365 . S
C942 C941 1.366 . S
C942 H956 0.930 . S
C943 C940 1.378 . S
C943 N944 1.315 . S
C943 H946 0.930 . S
N944 Co924 2.194 . S
N944 C939 1.328 . S
N944 C943 1.315 . S
H945 C939 0.929 . S
H946 C943 0.930 . S
H947 C935 0.929 . S
H948 C937 0.929 . S
O949 Co924 2.351 . S
O949 C952 1.244 . S
O950 Co924 2.155 . S
O950 C952 1.240 . S
O951 Co924 2.096 . S
O951 C932 1.247 . S
C952 O949 1.244 . S
C952 O950 1.240 . S
H953 C927 0.931 1_545 S
H954 C936 0.931 . S
H955 C940 0.929 . S
H956 C942 0.930 . S
Co957 N961 2.148 . S
Co957 N967 2.128 . S
Co957 N977 2.194 . S
Co957 O982 2.351 . S
Co957 O983 2.155 . S
Co957 O984 2.096 . S
C958 N961 1.301 . S
C958 N962 1.328 . S
C958 H963 0.930 . S
C959 C960 1.333 . S
C959 N961 1.317 . S
C959 H964 0.930 . S
C960 C959 1.333 . S
C960 N962 1.350 . S
C960 H986 0.931 1_455 S
N961 Co957 2.148 . S
N961 C958 1.301 . S
N961 C959 1.317 . S
N962 C958 1.328 . S
N962 C960 1.350 . S
H963 C958 0.930 . S
H964 C959 0.930 . S
C965 O966 1.224 . S
C965 O984 1.247 . S
O966 C965 1.224 . S
N967 Co957 2.128 . S
N967 C968 1.355 . S
N967 C970 1.311 . S
C968 N967 1.355 . S
C968 C969 1.363 . S
C968 H980 0.929 . S
C969 C968 1.363 . S
C969 N971 1.375 . S
C969 H987 0.931 . S
C970 N967 1.311 . S
C970 N971 1.347 . S
C970 H981 0.929 . S
N971 C969 1.375 . S
N971 C970 1.347 . S
C972 C975 1.365 . S
C972 N977 1.328 . S
C972 H978 0.929 . S
C973 C974 1.362 . S
C973 C976 1.378 . S
C973 H988 0.929 . S
C974 C973 1.362 . S
C974 C975 1.366 . S
C975 C972 1.365 . S
C975 C974 1.366 . S
C975 H989 0.930 . S
C976 C973 1.378 . S
C976 N977 1.315 . S
C976 H979 0.930 . S
N977 Co957 2.194 . S
N977 C972 1.328 . S
N977 C976 1.315 . S
H978 C972 0.929 . S
H979 C976 0.930 . S
H980 C968 0.929 . S
H981 C970 0.929 . S
O982 Co957 2.351 . S
O982 C985 1.244 . S
O983 Co957 2.155 . S
O983 C985 1.240 . S
O984 Co957 2.096 . S
O984 C965 1.247 . S
C985 O982 1.244 . S
C985 O983 1.240 . S
H986 C960 0.931 1_655 S
H987 C969 0.931 . S
H988 C973 0.929 . S
H989 C975 0.930 . S
Co990 N994 2.148 . S
Co990 N1000 2.128 . S
Co990 N1010 2.194 . S
Co990 O1015 2.351 . S
Co990 O1016 2.155 . S
Co990 O1017 2.096 . S
C991 N994 1.301 . S
C991 N995 1.328 . S
C991 H996 0.930 . S
C992 C993 1.333 . S
C992 N994 1.317 . S
C992 H997 0.930 . S
C993 C992 1.333 . S
C993 N995 1.350 . S
C993 H1019 0.931 . S
N994 Co990 2.148 . S
N994 C991 1.301 . S
N994 C992 1.317 . S
N995 C991 1.328 . S
N995 C993 1.350 . S
H996 C991 0.930 . S
H997 C992 0.930 . S
C998 O999 1.224 . S
C998 O1017 1.247 . S
O999 C998 1.224 . S
N1000 Co990 2.128 . S
N1000 C1001 1.355 . S
N1000 C1003 1.311 . S
C1001 N1000 1.355 . S
C1001 C1002 1.363 . S
C1001 H1013 0.929 . S
C1002 C1001 1.363 . S
C1002 N1004 1.375 . S
C1002 H1020 0.931 . S
C1003 N1000 1.311 . S
C1003 N1004 1.347 . S
C1003 H1014 0.929 . S
N1004 C1002 1.375 . S
N1004 C1003 1.347 . S
C1005 C1008 1.365 . S
C1005 N1010 1.328 . S
C1005 H1011 0.929 . S
C1006 C1007 1.362 . S
C1006 C1009 1.378 . S
C1006 H1021 0.929 . S
C1007 C1006 1.362 . S
C1007 C1008 1.366 . S
C1008 C1005 1.365 . S
C1008 C1007 1.366 . S
C1008 H1022 0.930 . S
C1009 C1006 1.378 . S
C1009 N1010 1.315 . S
C1009 H1012 0.930 . S
N1010 Co990 2.194 . S
N1010 C1005 1.328 . S
N1010 C1009 1.315 . S
H1011 C1005 0.929 . S
H1012 C1009 0.930 . S
H1013 C1001 0.929 . S
H1014 C1003 0.929 . S
O1015 Co990 2.351 . S
O1015 C1018 1.244 . S
O1016 Co990 2.155 . S
O1016 C1018 1.240 . S
O1017 Co990 2.096 . S
O1017 C998 1.247 . S
C1018 O1015 1.244 . S
C1018 O1016 1.240 . S
H1019 C993 0.931 . S
H1020 C1002 0.931 . S
H1021 C1006 0.929 . S
H1022 C1008 0.930 . S
Co1023 N1027 2.148 . S
Co1023 N1033 2.128 . S
Co1023 N1043 2.194 . S
Co1023 O1048 2.351 . S
Co1023 O1049 2.155 . S
Co1023 O1050 2.096 . S
C1024 N1027 1.301 . S
C1024 N1028 1.328 . S
C1024 H1029 0.930 . S
C1025 C1026 1.333 . S
C1025 N1027 1.317 . S
C1025 H1030 0.930 . S
C1026 C1025 1.333 . S
C1026 N1028 1.350 . S
C1026 H1052 0.931 1_565 S
N1027 Co1023 2.148 . S
N1027 C1024 1.301 . S
N1027 C1025 1.317 . S
N1028 C1024 1.328 . S
N1028 C1026 1.350 . S
H1029 C1024 0.930 . S
H1030 C1025 0.930 . S
C1031 O1032 1.224 . S
C1031 O1050 1.247 . S
O1032 C1031 1.224 . S
N1033 Co1023 2.128 . S
N1033 C1034 1.355 . S
N1033 C1036 1.311 . S
C1034 N1033 1.355 . S
C1034 C1035 1.363 . S
C1034 H1046 0.929 . S
C1035 C1034 1.363 . S
C1035 N1037 1.375 . S
C1035 H1053 0.931 . S
C1036 N1033 1.311 . S
C1036 N1037 1.347 . S
C1036 H1047 0.929 . S
N1037 C1035 1.375 . S
N1037 C1036 1.347 . S
C1038 C1041 1.365 . S
C1038 N1043 1.328 . S
C1038 H1044 0.929 . S
C1039 C1040 1.362 . S
C1039 C1042 1.378 . S
C1039 H1054 0.929 . S
C1040 C1039 1.362 . S
C1040 C1041 1.366 . S
C1041 C1038 1.365 . S
C1041 C1040 1.366 . S
C1041 H1055 0.930 . S
C1042 C1039 1.378 . S
C1042 N1043 1.315 . S
C1042 H1045 0.930 . S
N1043 Co1023 2.194 . S
N1043 C1038 1.328 . S
N1043 C1042 1.315 . S
H1044 C1038 0.929 . S
H1045 C1042 0.930 . S
H1046 C1034 0.929 . S
H1047 C1036 0.929 . S
O1048 Co1023 2.351 . S
O1048 C1051 1.244 . S
O1049 Co1023 2.155 . S
O1049 C1051 1.240 . S
O1050 Co1023 2.096 . S
O1050 C1031 1.247 . S
C1051 O1048 1.244 . S
C1051 O1049 1.240 . S
H1052 C1026 0.931 1_545 S
H1053 C1035 0.931 . S
H1054 C1039 0.929 . S
H1055 C1041 0.930 . S
Co1056 N1060 2.148 . S
Co1056 N1066 2.128 . S
Co1056 N1076 2.194 . S
Co1056 O1081 2.351 . S
Co1056 O1082 2.155 . S
Co1056 O1083 2.096 . S
C1057 N1060 1.301 . S
C1057 N1061 1.328 . S
C1057 H1062 0.930 . S
C1058 C1059 1.333 . S
C1058 N1060 1.317 . S
C1058 H1063 0.930 . S
C1059 C1058 1.333 . S
C1059 N1061 1.350 . S
C1059 H1085 0.931 1_455 S
N1060 Co1056 2.148 . S
N1060 C1057 1.301 . S
N1060 C1058 1.317 . S
N1061 C1057 1.328 . S
N1061 C1059 1.350 . S
H1062 C1057 0.930 . S
H1063 C1058 0.930 . S
C1064 O1065 1.224 . S
C1064 O1083 1.247 . S
O1065 C1064 1.224 . S
N1066 Co1056 2.128 . S
N1066 C1067 1.355 . S
N1066 C1069 1.311 . S
C1067 N1066 1.355 . S
C1067 C1068 1.363 . S
C1067 H1079 0.929 . S
C1068 C1067 1.363 . S
C1068 N1070 1.375 . S
C1068 H1086 0.931 . S
C1069 N1066 1.311 . S
C1069 N1070 1.347 . S
C1069 H1080 0.929 . S
N1070 C1068 1.375 . S
N1070 C1069 1.347 . S
C1071 C1074 1.365 . S
C1071 N1076 1.328 . S
C1071 H1077 0.929 . S
C1072 C1073 1.362 . S
C1072 C1075 1.378 . S
C1072 H1087 0.929 . S
C1073 C1072 1.362 . S
C1073 C1074 1.366 . S
C1074 C1071 1.365 . S
C1074 C1073 1.366 . S
C1074 H1088 0.930 . S
C1075 C1072 1.378 . S
C1075 N1076 1.315 . S
C1075 H1078 0.930 . S
N1076 Co1056 2.194 . S
N1076 C1071 1.328 . S
N1076 C1075 1.315 . S
H1077 C1071 0.929 . S
H1078 C1075 0.930 . S
H1079 C1067 0.929 . S
H1080 C1069 0.929 . S
O1081 Co1056 2.351 . S
O1081 C1084 1.244 . S
O1082 Co1056 2.155 . S
O1082 C1084 1.240 . S
O1083 Co1056 2.096 . S
O1083 C1064 1.247 . S
C1084 O1081 1.244 . S
C1084 O1082 1.240 . S
H1085 C1059 0.931 1_655 S
H1086 C1068 0.931 . S
H1087 C1072 0.929 . S
H1088 C1074 0.930 . S
Co1089 N1093 2.148 . S
Co1089 N1099 2.128 . S
Co1089 N1109 2.194 . S
Co1089 O1114 2.351 . S
Co1089 O1115 2.155 . S
Co1089 O1116 2.096 . S
C1090 N1093 1.301 1_655 S
C1090 N1094 1.328 . S
C1090 H1095 0.930 . S
C1091 C1092 1.333 . S
C1091 N1093 1.317 . S
C1091 H1096 0.930 . S
C1092 C1091 1.333 . S
C1092 N1094 1.350 1_455 S
C1092 H1118 0.931 . S
N1093 Co1089 2.148 . S
N1093 C1090 1.301 1_455 S
N1093 C1091 1.317 . S
N1094 C1090 1.328 . S
N1094 C1092 1.350 1_655 S
H1095 C1090 0.930 . S
H1096 C1091 0.930 . S
C1097 O1098 1.224 . S
C1097 O1116 1.247 . S
O1098 C1097 1.224 . S
N1099 Co1089 2.128 . S
N1099 C1100 1.355 . S
N1099 C1102 1.311 . S
C1100 N1099 1.355 . S
C1100 C1101 1.363 . S
C1100 H1112 0.929 . S
C1101 C1100 1.363 . S
C1101 N1103 1.375 . S
C1101 H1119 0.931 . S
C1102 N1099 1.311 . S
C1102 N1103 1.347 . S
C1102 H1113 0.929 . S
N1103 C1101 1.375 . S
N1103 C1102 1.347 . S
C1104 C1107 1.365 1_455 S
C1104 N1109 1.328 . S
C1104 H1110 0.929 1_455 S
C1105 C1106 1.362 . S
C1105 C1108 1.378 . S
C1105 H1120 0.929 . S
C1106 C1105 1.362 . S
C1106 C1107 1.366 1_455 S
C1107 C1104 1.365 1_655 S
C1107 C1106 1.366 1_655 S
C1107 H1121 0.930 . S
C1108 C1105 1.378 . S
C1108 N1109 1.315 . S
C1108 H1111 0.930 . S
N1109 Co1089 2.194 . S
N1109 C1104 1.328 . S
N1109 C1108 1.315 . S
H1110 C1104 0.929 1_655 S
H1111 C1108 0.930 . S
H1112 C1100 0.929 . S
H1113 C1102 0.929 . S
O1114 Co1089 2.351 . S
O1114 C1117 1.244 . S
O1115 Co1089 2.155 . S
O1115 C1117 1.240 . S
O1116 Co1089 2.096 . S
O1116 C1097 1.247 . S
C1117 O1114 1.244 . S
C1117 O1115 1.240 . S
H1118 C1092 0.931 . S
H1119 C1101 0.931 . S
H1120 C1105 0.929 . S
H1121 C1107 0.930 . S
Co1122 N1126 2.148 . S
Co1122 N1132 2.128 . S
Co1122 N1142 2.194 . S
Co1122 O1147 2.351 . S
Co1122 O1148 2.155 . S
Co1122 O1149 2.096 . S
C1123 N1126 1.301 . S
C1123 N1127 1.328 . S
C1123 H1128 0.930 . S
C1124 C1125 1.333 . S
C1124 N1126 1.317 . S
C1124 H1129 0.930 . S
C1125 C1124 1.333 . S
C1125 N1127 1.350 . S
C1125 H1151 0.931 . S
N1126 Co1122 2.148 . S
N1126 C1123 1.301 . S
N1126 C1124 1.317 . S
N1127 C1123 1.328 . S
N1127 C1125 1.350 . S
H1128 C1123 0.930 . S
H1129 C1124 0.930 . S
C1130 O1131 1.224 . S
C1130 O1149 1.247 . S
O1131 C1130 1.224 . S
N1132 Co1122 2.128 . S
N1132 C1133 1.355 . S
N1132 C1135 1.311 . S
C1133 N1132 1.355 . S
C1133 C1134 1.363 . S
C1133 H1145 0.929 . S
C1134 C1133 1.363 . S
C1134 N1136 1.375 . S
C1134 H1152 0.931 . S
C1135 N1132 1.311 . S
C1135 N1136 1.347 . S
C1135 H1146 0.929 . S
N1136 C1134 1.375 . S
N1136 C1135 1.347 . S
C1137 C1140 1.365 . S
C1137 N1142 1.328 . S
C1137 H1143 0.929 . S
C1138 C1139 1.362 . S
C1138 C1141 1.378 . S
C1138 H1153 0.929 . S
C1139 C1138 1.362 . S
C1139 C1140 1.366 . S
C1140 C1137 1.365 . S
C1140 C1139 1.366 . S
C1140 H1154 0.930 . S
C1141 C1138 1.378 . S
C1141 N1142 1.315 . S
C1141 H1144 0.930 . S
N1142 Co1122 2.194 . S
N1142 C1137 1.328 . S
N1142 C1141 1.315 . S
H1143 C1137 0.929 . S
H1144 C1141 0.930 . S
H1145 C1133 0.929 . S
H1146 C1135 0.929 . S
O1147 Co1122 2.351 . S
O1147 C1150 1.244 . S
O1148 Co1122 2.155 . S
O1148 C1150 1.240 . S
O1149 Co1122 2.096 . S
O1149 C1130 1.247 . S
C1150 O1147 1.244 . S
C1150 O1148 1.240 . S
H1151 C1125 0.931 . S
H1152 C1134 0.931 . S
H1153 C1138 0.929 . S
H1154 C1140 0.930 . S
Co1155 N1159 2.148 . S
Co1155 N1165 2.128 . S
Co1155 N1175 2.194 . S
Co1155 O1180 2.351 . S
Co1155 O1181 2.155 . S
Co1155 O1182 2.096 . S
C1156 N1159 1.301 1_545 S
C1156 N1160 1.328 . S
C1156 H1161 0.930 . S
C1157 C1158 1.333 . S
C1157 N1159 1.317 . S
C1157 H1162 0.930 . S
C1158 C1157 1.333 . S
C1158 N1160 1.350 1_565 S
C1158 H1184 0.931 . S
N1159 Co1155 2.148 . S
N1159 C1156 1.301 1_565 S
N1159 C1157 1.317 . S
N1160 C1156 1.328 . S
N1160 C1158 1.350 1_545 S
H1161 C1156 0.930 . S
H1162 C1157 0.930 . S
C1163 O1164 1.224 . S
C1163 O1182 1.247 . S
O1164 C1163 1.224 . S
N1165 Co1155 2.128 . S
N1165 C1166 1.355 . S
N1165 C1168 1.311 . S
C1166 N1165 1.355 . S
C1166 C1167 1.363 . S
C1166 H1178 0.929 . S
C1167 C1166 1.363 . S
C1167 N1169 1.375 . S
C1167 H1185 0.931 . S
C1168 N1165 1.311 . S
C1168 N1169 1.347 . S
C1168 H1179 0.929 . S
N1169 C1167 1.375 . S
N1169 C1168 1.347 . S
C1170 C1173 1.362 1_565 S
C1170 N1175 1.328 . S
C1170 H1176 0.929 1_565 S
C1171 C1172 1.362 . S
C1171 C1174 1.378 . S
C1171 H1186 0.929 . S
C1172 C1171 1.362 . S
C1172 C1173 1.346 1_565 S
C1173 C1170 1.362 1_545 S
C1173 C1172 1.346 1_545 S
C1173 H1187 0.954 . S
C1174 C1171 1.378 . S
C1174 N1175 1.315 . S
C1174 H1177 0.930 . S
N1175 Co1155 2.194 . S
N1175 C1170 1.328 . S
N1175 C1174 1.315 . S
H1176 C1170 0.929 1_545 S
H1177 C1174 0.930 . S
H1178 C1166 0.929 . S
H1179 C1168 0.929 . S
O1180 Co1155 2.351 . S
O1180 C1183 1.244 . S
O1181 Co1155 2.155 . S
O1181 C1183 1.240 . S
O1182 Co1155 2.096 . S
O1182 C1163 1.247 . S
C1183 O1180 1.244 . S
C1183 O1181 1.240 . S
H1184 C1158 0.931 . S
H1185 C1167 0.931 . S
H1186 C1171 0.929 . S
H1187 C1173 0.954 . S
C1188 C1189 1.387 . S
C1188 H1192 0.950 . S
C1188 C1197 1.390 . S
C1189 C1188 1.387 . S
C1189 C1191 1.387 . S
H1190 C1197 0.950 . S
C1191 C1189 1.387 . S
C1191 C1193 1.390 . S
C1191 H1195 0.950 . S
H1192 C1188 0.950 . S
C1193 C1191 1.390 . S
C1193 C1194 1.387 . S
C1193 H1196 0.950 . S
C1194 C1193 1.387 . S
C1194 C1197 1.387 . S
H1195 C1191 0.950 . S
H1196 C1193 0.950 . S
C1197 C1188 1.390 . S
C1197 H1190 0.950 . S
C1197 C1194 1.387 . S
C1198 C1199 1.387 . S
C1198 H1202 0.950 . S
C1198 C1207 1.390 . S
C1199 C1198 1.387 . S
C1199 C1201 1.387 . S
H1200 C1207 0.950 . S
C1201 C1199 1.387 . S
C1201 C1203 1.390 . S
C1201 H1205 0.950 1_655 S
H1202 C1198 0.950 . S
C1203 C1201 1.390 . S
C1203 C1204 1.387 . S
C1203 H1206 0.950 . S
C1204 C1203 1.387 . S
C1204 C1207 1.387 . S
H1205 C1201 0.950 1_455 S
H1206 C1203 0.950 . S
C1207 C1198 1.390 . S
C1207 H1200 0.950 . S
C1207 C1204 1.387 . S
C1208 C1209 1.387 . S
C1208 H1212 0.950 . S
C1208 C1217 1.390 . S
C1209 C1208 1.387 . S
C1209 C1211 1.387 . S
H1210 C1217 0.950 . S
C1211 C1209 1.387 . S
C1211 C1213 1.390 . S
C1211 H1215 0.950 . S
H1212 C1208 0.950 . S
C1213 C1211 1.390 . S
C1213 C1214 1.387 . S
C1213 H1216 0.950 1_655 S
C1214 C1213 1.387 . S
C1214 C1217 1.387 . S
H1215 C1211 0.950 . S
H1216 C1213 0.950 1_455 S
C1217 C1208 1.390 . S
C1217 H1210 0.950 . S
C1217 C1214 1.387 . S
C1218 C1219 1.387 . S
C1218 H1222 0.950 . S
C1218 C1227 1.390 . S
C1219 C1218 1.387 . S
C1219 C1221 1.387 . S
H1220 C1227 0.950 . S
C1221 C1219 1.387 . S
C1221 C1223 1.390 . S
C1221 H1225 0.950 1_455 S
H1222 C1218 0.950 . S
C1223 C1221 1.390 . S
C1223 C1224 1.387 . S
C1223 H1226 0.950 . S
C1224 C1223 1.387 . S
C1224 C1227 1.387 . S
H1225 C1221 0.950 1_655 S
H1226 C1223 0.950 . S
C1227 C1218 1.390 . S
C1227 H1220 0.950 . S
C1227 C1224 1.387 . S
C1228 C1229 1.387 . S
C1228 H1232 0.950 . S
C1228 C1237 1.390 . S
C1229 C1228 1.387 . S
C1229 C1231 1.387 . S
H1230 C1237 0.950 . S
C1231 C1229 1.387 . S
C1231 C1233 1.390 . S
C1231 H1235 0.950 . S
H1232 C1228 0.950 . S
C1233 C1231 1.390 . S
C1233 C1234 1.387 . S
C1233 H1236 0.950 . S
C1234 C1233 1.387 . S
C1234 C1237 1.387 . S
H1235 C1231 0.950 . S
H1236 C1233 0.950 . S
C1237 C1228 1.390 . S
C1237 H1230 0.950 . S
C1237 C1234 1.387 . S
C1238 C1239 1.387 . S
C1238 H1242 0.950 . S
C1238 C1247 1.390 . S
C1239 C1238 1.387 . S
C1239 C1241 1.387 . S
H1240 C1247 0.950 1_655 S
C1241 C1239 1.387 . S
C1241 C1243 1.390 . S
C1241 H1245 0.950 . S
H1242 C1238 0.950 . S
C1243 C1241 1.390 . S
C1243 C1244 1.387 . S
C1243 H1246 0.950 . S
C1244 C1243 1.387 . S
C1244 C1247 1.387 . S
H1245 C1241 0.950 . S
H1246 C1243 0.950 . S
C1247 C1238 1.390 . S
C1247 H1240 0.950 1_455 S
C1247 C1244 1.387 . S
C1248 C1249 1.387 . S
C1248 H1252 0.950 . S
C1248 C1257 1.390 . S
C1249 C1248 1.387 . S
C1249 C1251 1.387 . S
H1250 C1257 0.950 . S
C1251 C1249 1.387 . S
C1251 C1253 1.390 . S
C1251 H1255 0.950 . S
H1252 C1248 0.950 . S
C1253 C1251 1.390 . S
C1253 C1254 1.387 . S
C1253 H1256 0.950 . S
C1254 C1253 1.387 . S
C1254 C1257 1.387 . S
H1255 C1251 0.950 . S
H1256 C1253 0.950 . S
C1257 C1248 1.390 . S
C1257 H1250 0.950 . S
C1257 C1254 1.387 . S
C1258 C1259 1.387 . S
C1258 H1262 0.950 1_565 S
C1258 C1267 1.390 . S
C1259 C1258 1.387 . S
C1259 C1261 1.387 . S
H1260 C1267 0.950 . S
C1261 C1259 1.387 . S
C1261 C1263 1.390 . S
C1261 H1265 0.950 . S
H1262 C1258 0.950 1_545 S
C1263 C1261 1.390 . S
C1263 C1264 1.387 . S
C1263 H1266 0.950 . S
C1264 C1263 1.387 . S
C1264 C1267 1.387 . S
H1265 C1261 0.950 . S
H1266 C1263 0.950 . S
C1267 C1258 1.390 . S
C1267 H1260 0.950 . S
C1267 C1264 1.387 . S
C1268 C1269 1.387 . S
C1268 H1272 0.950 . S
C1268 C1277 1.390 . S
C1269 C1268 1.387 . S
C1269 C1271 1.387 . S
H1270 C1277 0.950 . S
C1271 C1269 1.387 . S
C1271 C1273 1.390 . S
C1271 H1275 0.950 . S
H1272 C1268 0.950 . S
C1273 C1271 1.390 . S
C1273 C1274 1.387 . S
C1273 H1276 0.950 1_455 S
C1274 C1273 1.387 . S
C1274 C1277 1.387 . S
H1275 C1271 0.950 . S
H1276 C1273 0.950 1_655 S
C1277 C1268 1.390 . S
C1277 H1270 0.950 . S
C1277 C1274 1.387 . S
C1278 C1279 1.387 . S
C1278 H1282 0.950 1_655 S
C1278 C1287 1.390 . S
C1279 C1278 1.387 . S
C1279 C1281 1.387 . S
H1280 C1287 0.950 . S
C1281 C1279 1.387 . S
C1281 C1283 1.390 . S
C1281 H1285 0.950 . S
H1282 C1278 0.950 1_455 S
C1283 C1281 1.390 . S
C1283 C1284 1.387 . S
C1283 H1286 0.950 . S
C1284 C1283 1.387 . S
C1284 C1287 1.387 . S
H1285 C1281 0.950 . S
H1286 C1283 0.950 . S
C1287 C1278 1.390 . S
C1287 H1280 0.950 . S
C1287 C1284 1.387 . S
C1288 C1289 1.387 . S
C1288 H1292 0.950 . S
C1288 C1297 1.390 . S
C1289 C1288 1.387 . S
C1289 C1291 1.387 . S
H1290 C1297 0.950 . S
C1291 C1289 1.387 . S
C1291 C1293 1.390 . S
C1291 H1295 0.950 . S
H1292 C1288 0.950 . S
C1293 C1291 1.390 . S
C1293 C1294 1.387 . S
C1293 H1296 0.950 . S
C1294 C1293 1.387 . S
C1294 C1297 1.387 . S
H1295 C1291 0.950 . S
H1296 C1293 0.950 . S
C1297 C1288 1.390 . S
C1297 H1290 0.950 . S
C1297 C1294 1.387 . S
C1298 C1299 1.387 . S
C1298 H1302 0.950 1_545 S
C1298 C1307 1.390 . S
C1299 C1298 1.387 . S
C1299 C1301 1.387 . S
H1300 C1307 0.950 . S
C1301 C1299 1.387 . S
C1301 C1303 1.390 . S
C1301 H1305 0.950 . S
H1302 C1298 0.950 1_565 S
C1303 C1301 1.390 . S
C1303 C1304 1.387 . S
C1303 H1306 0.950 . S
C1304 C1303 1.387 . S
C1304 C1307 1.387 . S
H1305 C1301 0.950 . S
H1306 C1303 0.950 . S
C1307 C1298 1.390 . S
C1307 H1300 0.950 . S
C1307 C1304 1.387 . S
C1308 C1309 1.387 . S
C1308 H1312 0.950 . S
C1308 C1317 1.390 . S
C1309 C1308 1.387 . S
C1309 C1311 1.387 . S
H1310 C1317 0.950 . S
C1311 C1309 1.387 . S
C1311 C1313 1.390 . S
C1311 H1315 0.950 . S
H1312 C1308 0.950 . S
C1313 C1311 1.390 . S
C1313 C1314 1.387 . S
C1313 H1316 0.950 . S
C1314 C1313 1.387 . S
C1314 C1317 1.387 . S
H1315 C1311 0.950 . S
H1316 C1313 0.950 . S
C1317 C1308 1.390 . S
C1317 H1310 0.950 . S
C1317 C1314 1.387 . S
C1318 C1319 1.387 . S
C1318 H1322 0.950 . S
C1318 C1327 1.390 . S
C1319 C1318 1.387 . S
C1319 C1321 1.387 . S
H1320 C1327 0.950 . S
C1321 C1319 1.387 . S
C1321 C1323 1.390 . S
C1321 H1325 0.950 . S
H1322 C1318 0.950 . S
C1323 C1321 1.390 . S
C1323 C1324 1.387 . S
C1323 H1326 0.950 . S
C1324 C1323 1.387 . S
C1324 C1327 1.387 . S
H1325 C1321 0.950 . S
H1326 C1323 0.950 . S
C1327 C1318 1.390 . S
C1327 H1320 0.950 . S
C1327 C1324 1.387 . S
C1328 C1329 1.387 . S
C1328 H1332 0.950 . S
C1328 C1337 1.390 . S
C1329 C1328 1.387 . S
C1329 C1331 1.387 . S
H1330 C1337 0.950 . S
C1331 C1329 1.387 . S
C1331 C1333 1.390 . S
C1331 H1335 0.950 . S
H1332 C1328 0.950 . S
C1333 C1331 1.390 . S
C1333 C1334 1.387 . S
C1333 H1336 0.950 . S
C1334 C1333 1.387 . S
C1334 C1337 1.387 . S
H1335 C1331 0.950 . S
H1336 C1333 0.950 . S
C1337 C1328 1.390 . S
C1337 H1330 0.950 . S
C1337 C1334 1.387 . S
C1338 C1339 1.387 . S
C1338 H1342 0.950 . S
C1338 C1347 1.390 . S
C1339 C1338 1.387 . S
C1339 C1341 1.387 . S
H1340 C1347 0.950 . S
C1341 C1339 1.387 . S
C1341 C1343 1.390 . S
C1341 H1345 0.950 . S
H1342 C1338 0.950 . S
C1343 C1341 1.390 . S
C1343 C1344 1.387 . S
C1343 H1346 0.950 . S
C1344 C1343 1.387 . S
C1344 C1347 1.387 . S
H1345 C1341 0.950 . S
H1346 C1343 0.950 . S
C1347 C1338 1.390 . S
C1347 H1340 0.950 . S
C1347 C1344 1.387 . S
C1348 C1349 1.387 . S
C1348 H1352 0.950 . S
C1348 C1357 1.390 . S
C1349 C1348 1.387 . S
C1349 C1351 1.387 . S
H1350 C1357 0.950 . S
C1351 C1349 1.387 . S
C1351 C1353 1.390 . S
C1351 H1355 0.950 . S
H1352 C1348 0.950 . S
C1353 C1351 1.390 . S
C1353 C1354 1.387 . S
C1353 H1356 0.950 . S
C1354 C1353 1.387 . S
C1354 C1357 1.387 . S
H1355 C1351 0.950 . S
H1356 C1353 0.950 . S
C1357 C1348 1.390 . S
C1357 H1350 0.950 . S
C1357 C1354 1.387 . S
C1358 C1359 1.387 . S
C1358 H1362 0.950 . S
C1358 C1367 1.390 . S
C1359 C1358 1.387 . S
C1359 C1361 1.387 . S
H1360 C1367 0.950 . S
C1361 C1359 1.387 . S
C1361 C1363 1.390 . S
C1361 H1365 0.950 . S
H1362 C1358 0.950 . S
C1363 C1361 1.390 . S
C1363 C1364 1.387 . S
C1363 H1366 0.950 . S
C1364 C1363 1.387 . S
C1364 C1367 1.387 . S
H1365 C1361 0.950 . S
H1366 C1363 0.950 . S
C1367 C1358 1.390 . S
C1367 H1360 0.950 . S
C1367 C1364 1.387 . S
C1368 C1369 1.387 . S
C1368 H1372 0.950 . S
C1368 C1377 1.390 . S
C1369 C1368 1.387 . S
C1369 C1371 1.387 . S
H1370 C1377 0.950 . S
C1371 C1369 1.387 . S
C1371 C1373 1.390 . S
C1371 H1375 0.950 . S
H1372 C1368 0.950 . S
C1373 C1371 1.390 . S
C1373 C1374 1.387 . S
C1373 H1376 0.950 . S
C1374 C1373 1.387 . S
C1374 C1377 1.387 . S
H1375 C1371 0.950 . S
H1376 C1373 0.950 . S
C1377 C1368 1.390 . S
C1377 H1370 0.950 . S
C1377 C1374 1.387 . S
C1378 C1379 1.387 . S
C1378 H1382 0.950 . S
C1378 C1387 1.390 . S
C1379 C1378 1.387 . S
C1379 C1381 1.387 . S
H1380 C1387 0.950 . S
C1381 C1379 1.387 . S
C1381 C1383 1.390 . S
C1381 H1385 0.950 . S
H1382 C1378 0.950 . S
C1383 C1381 1.390 . S
C1383 C1384 1.387 . S
C1383 H1386 0.950 . S
C1384 C1383 1.387 . S
C1384 C1387 1.387 . S
H1385 C1381 0.950 . S
H1386 C1383 0.950 . S
C1387 C1378 1.390 . S
C1387 H1380 0.950 . S
C1387 C1384 1.387 . S
C1388 C1389 1.387 . S
C1388 H1392 0.950 . S
C1388 C1397 1.390 . S
C1389 C1388 1.387 . S
C1389 C1391 1.387 . S
H1390 C1397 0.950 . S
C1391 C1389 1.387 . S
C1391 C1393 1.390 . S
C1391 H1395 0.950 . S
H1392 C1388 0.950 . S
C1393 C1391 1.390 . S
C1393 C1394 1.387 . S
C1393 H1396 0.950 . S
C1394 C1393 1.387 . S
C1394 C1397 1.387 . S
H1395 C1391 0.950 . S
H1396 C1393 0.950 . S
C1397 C1388 1.390 . S
C1397 H1390 0.950 . S
C1397 C1394 1.387 . S
C1398 C1399 1.387 . S
C1398 H1402 0.950 . S
C1398 C1407 1.390 . S
C1399 C1398 1.387 . S
C1399 C1401 1.387 . S
H1400 C1407 0.950 . S
C1401 C1399 1.387 . S
C1401 C1403 1.390 . S
C1401 H1405 0.950 . S
H1402 C1398 0.950 . S
C1403 C1401 1.390 . S
C1403 C1404 1.387 . S
C1403 H1406 0.950 . S
C1404 C1403 1.387 . S
C1404 C1407 1.387 . S
H1405 C1401 0.950 . S
H1406 C1403 0.950 . S
C1407 C1398 1.390 . S
C1407 H1400 0.950 . S
C1407 C1404 1.387 . S
C1408 C1409 1.387 . S
C1408 H1412 0.950 . S
C1408 C1417 1.390 . S
C1409 C1408 1.387 . S
C1409 C1411 1.387 . S
H1410 C1417 0.950 . S
C1411 C1409 1.387 . S
C1411 C1413 1.390 . S
C1411 H1415 0.950 . S
H1412 C1408 0.950 . S
C1413 C1411 1.390 . S
C1413 C1414 1.387 . S
C1413 H1416 0.950 . S
C1414 C1413 1.387 . S
C1414 C1417 1.387 . S
H1415 C1411 0.950 . S
H1416 C1413 0.950 . S
C1417 C1408 1.390 . S
C1417 H1410 0.950 . S
C1417 C1414 1.387 . S
C1418 C1419 1.387 . S
C1418 H1422 0.950 . S
C1418 C1427 1.390 . S
C1419 C1418 1.387 . S
C1419 C1421 1.387 . S
H1420 C1427 0.950 . S
C1421 C1419 1.387 . S
C1421 C1423 1.390 . S
C1421 H1425 0.950 . S
H1422 C1418 0.950 . S
C1423 C1421 1.390 . S
C1423 C1424 1.387 . S
C1423 H1426 0.950 . S
C1424 C1423 1.387 . S
C1424 C1427 1.387 . S
H1425 C1421 0.950 . S
H1426 C1423 0.950 . S
C1427 C1418 1.390 . S
C1427 H1420 0.950 . S
C1427 C1424 1.387 . S
C1428 C1429 1.387 . S
C1428 H1432 0.950 . S
C1428 C1437 1.390 . S
C1429 C1428 1.387 . S
C1429 C1431 1.387 . S
H1430 C1437 0.950 . S
C1431 C1429 1.387 . S
C1431 C1433 1.390 . S
C1431 H1435 0.950 . S
H1432 C1428 0.950 . S
C1433 C1431 1.390 . S
C1433 C1434 1.387 . S
C1433 H1436 0.950 . S
C1434 C1433 1.387 . S
C1434 C1437 1.387 . S
H1435 C1431 0.950 . S
H1436 C1433 0.950 . S
C1437 C1428 1.390 . S
C1437 H1430 0.950 . S
C1437 C1434 1.387 . S
C1438 C1439 1.387 . S
C1438 H1442 0.950 . S
C1438 C1447 1.390 . S
C1439 C1438 1.387 . S
C1439 C1441 1.387 . S
H1440 C1447 0.950 . S
C1441 C1439 1.387 . S
C1441 C1443 1.390 . S
C1441 H1445 0.950 . S
H1442 C1438 0.950 . S
C1443 C1441 1.390 . S
C1443 C1444 1.387 . S
C1443 H1446 0.950 . S
C1444 C1443 1.387 . S
C1444 C1447 1.387 . S
H1445 C1441 0.950 . S
H1446 C1443 0.950 . S
C1447 C1438 1.390 . S
C1447 H1440 0.950 . S
C1447 C1444 1.387 . S
C1448 C1449 1.387 . S
C1448 H1452 0.950 . S
C1448 C1457 1.390 . S
C1449 C1448 1.387 . S
C1449 C1451 1.387 . S
H1450 C1457 0.950 . S
C1451 C1449 1.387 . S
C1451 C1453 1.390 . S
C1451 H1455 0.950 . S
H1452 C1448 0.950 . S
C1453 C1451 1.390 . S
C1453 C1454 1.387 . S
C1453 H1456 0.950 . S
C1454 C1453 1.387 . S
C1454 C1457 1.387 . S
H1455 C1451 0.950 . S
H1456 C1453 0.950 . S
C1457 C1448 1.390 . S
C1457 H1450 0.950 . S
C1457 C1454 1.387 . S
C1458 C1459 1.387 . S
C1458 H1462 0.950 . S
C1458 C1467 1.390 . S
C1459 C1458 1.387 . S
C1459 C1461 1.387 . S
H1460 C1467 0.950 . S
C1461 C1459 1.387 . S
C1461 C1463 1.390 . S
C1461 H1465 0.950 . S
H1462 C1458 0.950 . S
C1463 C1461 1.390 . S
C1463 C1464 1.387 . S
C1463 H1466 0.950 . S
C1464 C1463 1.387 . S
C1464 C1467 1.387 . S
H1465 C1461 0.950 . S
H1466 C1463 0.950 . S
C1467 C1458 1.390 . S
C1467 H1460 0.950 . S
C1467 C1464 1.387 . S
C1468 C1469 1.387 . S
C1468 H1472 0.950 . S
C1468 C1477 1.390 . S
C1469 C1468 1.387 . S
C1469 C1471 1.387 . S
H1470 C1477 0.950 . S
C1471 C1469 1.387 . S
C1471 C1473 1.390 . S
C1471 H1475 0.950 . S
H1472 C1468 0.950 . S
C1473 C1471 1.390 . S
C1473 C1474 1.387 . S
C1473 H1476 0.950 . S
C1474 C1473 1.387 . S
C1474 C1477 1.387 . S
H1475 C1471 0.950 . S
H1476 C1473 0.950 . S
C1477 C1468 1.390 . S
C1477 H1470 0.950 . S
C1477 C1474 1.387 . S
C1478 C1479 1.387 . S
C1478 H1482 0.950 . S
C1478 C1487 1.390 . S
C1479 C1478 1.387 . S
C1479 C1481 1.387 . S
H1480 C1487 0.950 . S
C1481 C1479 1.387 . S
C1481 C1483 1.390 . S
C1481 H1485 0.950 . S
H1482 C1478 0.950 . S
C1483 C1481 1.390 . S
C1483 C1484 1.387 . S
C1483 H1486 0.950 . S
C1484 C1483 1.387 . S
C1484 C1487 1.387 . S
H1485 C1481 0.950 . S
H1486 C1483 0.950 . S
C1487 C1478 1.390 . S
C1487 H1480 0.950 . S
C1487 C1484 1.387 . S
C1488 C1489 1.387 . S
C1488 H1492 0.950 . S
C1488 C1497 1.390 . S
C1489 C1488 1.387 . S
C1489 C1491 1.387 . S
H1490 C1497 0.950 . S
C1491 C1489 1.387 . S
C1491 C1493 1.390 . S
C1491 H1495 0.950 . S
H1492 C1488 0.950 . S
C1493 C1491 1.390 . S
C1493 C1494 1.387 . S
C1493 H1496 0.950 . S
C1494 C1493 1.387 . S
C1494 C1497 1.387 . S
H1495 C1491 0.950 . S
H1496 C1493 0.950 . S
C1497 C1488 1.390 . S
C1497 H1490 0.950 . S
C1497 C1494 1.387 . S
C1498 C1499 1.387 . S
C1498 H1502 0.950 . S
C1498 C1507 1.390 . S
C1499 C1498 1.387 . S
C1499 C1501 1.387 . S
H1500 C1507 0.950 . S
C1501 C1499 1.387 . S
C1501 C1503 1.390 . S
C1501 H1505 0.950 . S
H1502 C1498 0.950 . S
C1503 C1501 1.390 . S
C1503 C1504 1.387 . S
C1503 H1506 0.950 . S
C1504 C1503 1.387 . S
C1504 C1507 1.387 . S
H1505 C1501 0.950 . S
H1506 C1503 0.950 . S
C1507 C1498 1.390 . S
C1507 H1500 0.950 . S
C1507 C1504 1.387 . S
C1508 C1509 1.387 . S
C1508 H1512 0.950 . S
C1508 C1517 1.390 . S
C1509 C1508 1.387 . S
C1509 C1511 1.387 . S
H1510 C1517 0.950 . S
C1511 C1509 1.387 . S
C1511 C1513 1.390 . S
C1511 H1515 0.950 . S
H1512 C1508 0.950 . S
C1513 C1511 1.390 . S
C1513 C1514 1.387 . S
C1513 H1516 0.950 . S
C1514 C1513 1.387 . S
C1514 C1517 1.387 . S
H1515 C1511 0.950 . S
H1516 C1513 0.950 . S
C1517 C1508 1.390 . S
C1517 H1510 0.950 . S
C1517 C1514 1.387 . S
C1518 C1519 1.387 . S
C1518 H1522 0.950 . S
C1518 C1527 1.390 . S
C1519 C1518 1.387 . S
C1519 C1521 1.387 . S
H1520 C1527 0.950 . S
C1521 C1519 1.387 . S
C1521 C1523 1.390 . S
C1521 H1525 0.950 . S
H1522 C1518 0.950 . S
C1523 C1521 1.390 . S
C1523 C1524 1.387 . S
C1523 H1526 0.950 . S
C1524 C1523 1.387 . S
C1524 C1527 1.387 . S
H1525 C1521 0.950 . S
H1526 C1523 0.950 . S
C1527 C1518 1.390 . S
C1527 H1520 0.950 . S
C1527 C1524 1.387 . S
C1528 C1529 1.387 . S
C1528 H1532 0.950 . S
C1528 C1537 1.390 . S
C1529 C1528 1.387 . S
C1529 C1531 1.387 . S
H1530 C1537 0.950 . S
C1531 C1529 1.387 . S
C1531 C1533 1.390 . S
C1531 H1535 0.950 . S
H1532 C1528 0.950 . S
C1533 C1531 1.390 . S
C1533 C1534 1.387 . S
C1533 H1536 0.950 . S
C1534 C1533 1.387 . S
C1534 C1537 1.387 . S
H1535 C1531 0.950 . S
H1536 C1533 0.950 . S
C1537 C1528 1.390 . S
C1537 H1530 0.950 . S
C1537 C1534 1.387 . S
C1538 C1539 1.387 . S
C1538 H1542 0.950 . S
C1538 C1547 1.390 . S
C1539 C1538 1.387 . S
C1539 C1541 1.387 . S
H1540 C1547 0.950 . S
C1541 C1539 1.387 . S
C1541 C1543 1.390 . S
C1541 H1545 0.950 . S
H1542 C1538 0.950 . S
C1543 C1541 1.390 . S
C1543 C1544 1.387 . S
C1543 H1546 0.950 . S
C1544 C1543 1.387 . S
C1544 C1547 1.387 . S
H1545 C1541 0.950 . S
H1546 C1543 0.950 . S
C1547 C1538 1.390 . S
C1547 H1540 0.950 . S
C1547 C1544 1.387 . S
C1548 C1549 1.387 . S
C1548 H1552 0.950 . S
C1548 C1557 1.390 . S
C1549 C1548 1.387 . S
C1549 C1551 1.387 . S
H1550 C1557 0.950 . S
C1551 C1549 1.387 . S
C1551 C1553 1.390 . S
C1551 H1555 0.950 . S
H1552 C1548 0.950 . S
C1553 C1551 1.390 . S
C1553 C1554 1.387 . S
C1553 H1556 0.950 . S
C1554 C1553 1.387 . S
C1554 C1557 1.387 . S
H1555 C1551 0.950 . S
H1556 C1553 0.950 . S
C1557 C1548 1.390 . S
C1557 H1550 0.950 . S
C1557 C1554 1.387 . S
C1558 C1559 1.387 . S
C1558 H1562 0.950 . S
C1558 C1567 1.390 . S
C1559 C1558 1.387 . S
C1559 C1561 1.387 . S
H1560 C1567 0.950 . S
C1561 C1559 1.387 . S
C1561 C1563 1.390 . S
C1561 H1565 0.950 . S
H1562 C1558 0.950 . S
C1563 C1561 1.390 . S
C1563 C1564 1.387 . S
C1563 H1566 0.950 . S
C1564 C1563 1.387 . S
C1564 C1567 1.387 . S
H1565 C1561 0.950 . S
H1566 C1563 0.950 . S
C1567 C1558 1.390 . S
C1567 H1560 0.950 . S
C1567 C1564 1.387 . S
C1568 C1569 1.387 . S
C1568 H1572 0.950 . S
C1568 C1577 1.390 . S
C1569 C1568 1.387 . S
C1569 C1571 1.387 . S
H1570 C1577 0.950 . S
C1571 C1569 1.387 . S
C1571 C1573 1.390 . S
C1571 H1575 0.950 . S
H1572 C1568 0.950 . S
C1573 C1571 1.390 . S
C1573 C1574 1.387 . S
C1573 H1576 0.950 . S
C1574 C1573 1.387 . S
C1574 C1577 1.387 . S
H1575 C1571 0.950 . S
H1576 C1573 0.950 . S
C1577 C1568 1.390 . S
C1577 H1570 0.950 . S
C1577 C1574 1.387 . S
C1578 C1579 1.387 . S
C1578 H1582 0.950 . S
C1578 C1587 1.390 . S
C1579 C1578 1.387 . S
C1579 C1581 1.387 . S
H1580 C1587 0.950 . S
C1581 C1579 1.387 . S
C1581 C1583 1.390 . S
C1581 H1585 0.950 . S
H1582 C1578 0.950 . S
C1583 C1581 1.390 . S
C1583 C1584 1.387 . S
C1583 H1586 0.950 . S
C1584 C1583 1.387 . S
C1584 C1587 1.387 . S
H1585 C1581 0.950 . S
H1586 C1583 0.950 . S
C1587 C1578 1.390 . S
C1587 H1580 0.950 . S
C1587 C1584 1.387 . S
C1588 C1589 1.387 . S
C1588 H1592 0.950 . S
C1588 C1597 1.390 . S
C1589 C1588 1.387 . S
C1589 C1591 1.387 . S
H1590 C1597 0.950 . S
C1591 C1589 1.387 . S
C1591 C1593 1.390 . S
C1591 H1595 0.950 . S
H1592 C1588 0.950 . S
C1593 C1591 1.390 . S
C1593 C1594 1.387 . S
C1593 H1596 0.950 . S
C1594 C1593 1.387 . S
C1594 C1597 1.387 . S
H1595 C1591 0.950 . S
H1596 C1593 0.950 . S
C1597 C1588 1.390 . S
C1597 H1590 0.950 . S
C1597 C1594 1.387 . S
C1598 C1599 1.387 . S
C1598 H1602 0.950 . S
C1598 C1607 1.390 . S
C1599 C1598 1.387 . S
C1599 C1601 1.387 . S
H1600 C1607 0.950 . S
C1601 C1599 1.387 . S
C1601 C1603 1.390 . S
C1601 H1605 0.950 . S
H1602 C1598 0.950 . S
C1603 C1601 1.390 . S
C1603 C1604 1.387 . S
C1603 H1606 0.950 . S
C1604 C1603 1.387 . S
C1604 C1607 1.387 . S
H1605 C1601 0.950 . S
H1606 C1603 0.950 . S
C1607 C1598 1.390 . S
C1607 H1600 0.950 . S
C1607 C1604 1.387 . S
C1608 C1609 1.387 . S
C1608 H1612 0.950 . S
C1608 C1617 1.390 . S
C1609 C1608 1.387 . S
C1609 C1611 1.387 . S
H1610 C1617 0.950 . S
C1611 C1609 1.387 . S
C1611 C1613 1.390 . S
C1611 H1615 0.950 . S
H1612 C1608 0.950 . S
C1613 C1611 1.390 . S
C1613 C1614 1.387 . S
C1613 H1616 0.950 . S
C1614 C1613 1.387 . S
C1614 C1617 1.387 . S
H1615 C1611 0.950 . S
H1616 C1613 0.950 . S
C1617 C1608 1.390 . S
C1617 H1610 0.950 . S
C1617 C1614 1.387 . S
C1618 C1619 1.387 . S
C1618 H1622 0.950 . S
C1618 C1627 1.390 . S
C1619 C1618 1.387 . S
C1619 C1621 1.387 . S
H1620 C1627 0.950 . S
C1621 C1619 1.387 . S
C1621 C1623 1.390 . S
C1621 H1625 0.950 . S
H1622 C1618 0.950 . S
C1623 C1621 1.390 . S
C1623 C1624 1.387 . S
C1623 H1626 0.950 . S
C1624 C1623 1.387 . S
C1624 C1627 1.387 . S
H1625 C1621 0.950 . S
H1626 C1623 0.950 . S
C1627 C1618 1.390 . S
C1627 H1620 0.950 . S
C1627 C1624 1.387 . S
C1628 C1629 1.387 . S
C1628 H1632 0.950 . S
C1628 C1637 1.390 . S
C1629 C1628 1.387 . S
C1629 C1631 1.387 . S
H1630 C1637 0.950 . S
C1631 C1629 1.387 . S
C1631 C1633 1.390 . S
C1631 H1635 0.950 . S
H1632 C1628 0.950 . S
C1633 C1631 1.390 . S
C1633 C1634 1.387 . S
C1633 H1636 0.950 . S
C1634 C1633 1.387 . S
C1634 C1637 1.387 . S
H1635 C1631 0.950 . S
H1636 C1633 0.950 . S
C1637 C1628 1.390 . S
C1637 H1630 0.950 . S
C1637 C1634 1.387 . S
C1638 C1639 1.387 . S
C1638 H1642 0.950 . S
C1638 C1647 1.390 . S
C1639 C1638 1.387 . S
C1639 C1641 1.387 . S
H1640 C1647 0.950 . S
C1641 C1639 1.387 . S
C1641 C1643 1.390 . S
C1641 H1645 0.950 . S
H1642 C1638 0.950 . S
C1643 C1641 1.390 . S
C1643 C1644 1.387 . S
C1643 H1646 0.950 . S
C1644 C1643 1.387 . S
C1644 C1647 1.387 . S
H1645 C1641 0.950 . S
H1646 C1643 0.950 . S
C1647 C1638 1.390 . S
C1647 H1640 0.950 . S
C1647 C1644 1.387 . S
C1648 C1649 1.387 . S
C1648 H1652 0.950 . S
C1648 C1657 1.390 . S
C1649 C1648 1.387 . S
C1649 C1651 1.387 . S
H1650 C1657 0.950 . S
C1651 C1649 1.387 . S
C1651 C1653 1.390 . S
C1651 H1655 0.950 . S
H1652 C1648 0.950 . S
C1653 C1651 1.390 . S
C1653 C1654 1.387 . S
C1653 H1656 0.950 . S
C1654 C1653 1.387 . S
C1654 C1657 1.387 . S
H1655 C1651 0.950 . S
H1656 C1653 0.950 . S
C1657 C1648 1.390 . S
C1657 H1650 0.950 . S
C1657 C1654 1.387 . S
C1658 C1659 1.387 . S
C1658 H1662 0.950 . S
C1658 C1667 1.390 . S
C1659 C1658 1.387 . S
C1659 C1661 1.387 . S
H1660 C1667 0.950 . S
C1661 C1659 1.387 . S
C1661 C1663 1.390 . S
C1661 H1665 0.950 . S
H1662 C1658 0.950 . S
C1663 C1661 1.390 . S
C1663 C1664 1.387 . S
C1663 H1666 0.950 . S
C1664 C1663 1.387 . S
C1664 C1667 1.387 . S
H1665 C1661 0.950 . S
H1666 C1663 0.950 . S
C1667 C1658 1.390 . S
C1667 H1660 0.950 . S
C1667 C1664 1.387 . S
C1668 C1669 1.387 . S
C1668 H1672 0.950 . S
C1668 C1677 1.390 . S
C1669 C1668 1.387 . S
C1669 C1671 1.387 . S
H1670 C1677 0.950 . S
C1671 C1669 1.387 . S
C1671 C1673 1.390 . S
C1671 H1675 0.950 . S
H1672 C1668 0.950 . S
C1673 C1671 1.390 . S
C1673 C1674 1.387 . S
C1673 H1676 0.950 . S
C1674 C1673 1.387 . S
C1674 C1677 1.387 . S
H1675 C1671 0.950 . S
H1676 C1673 0.950 . S
C1677 C1668 1.390 . S
C1677 H1670 0.950 . S
C1677 C1674 1.387 . S
C1678 C1679 1.387 . S
C1678 H1682 0.950 . S
C1678 C1687 1.390 . S
C1679 C1678 1.387 . S
C1679 C1681 1.387 . S
H1680 C1687 0.950 . S
C1681 C1679 1.387 . S
C1681 C1683 1.390 . S
C1681 H1685 0.950 . S
H1682 C1678 0.950 . S
C1683 C1681 1.390 . S
C1683 C1684 1.387 . S
C1683 H1686 0.950 . S
C1684 C1683 1.387 . S
C1684 C1687 1.387 . S
H1685 C1681 0.950 . S
H1686 C1683 0.950 . S
C1687 C1678 1.390 . S
C1687 H1680 0.950 . S
C1687 C1684 1.387 . S
C1688 C1689 1.387 . S
C1688 H1692 0.950 . S
C1688 C1697 1.390 . S
C1689 C1688 1.387 . S
C1689 C1691 1.387 . S
H1690 C1697 0.950 . S
C1691 C1689 1.387 . S
C1691 C1693 1.390 . S
C1691 H1695 0.950 . S
H1692 C1688 0.950 . S
C1693 C1691 1.390 . S
C1693 C1694 1.387 . S
C1693 H1696 0.950 . S
C1694 C1693 1.387 . S
C1694 C1697 1.387 . S
H1695 C1691 0.950 . S
H1696 C1693 0.950 . S
C1697 C1688 1.390 . S
C1697 H1690 0.950 . S
C1697 C1694 1.387 . S
C1698 C1699 1.387 1_655 S
C1698 H1702 0.950 . S
C1698 C1707 1.390 . S
C1699 C1698 1.387 1_455 S
C1699 C1701 1.387 . S
H1700 C1707 0.950 . S
C1701 C1699 1.387 . S
C1701 C1703 1.390 . S
C1701 H1705 0.950 . S
H1702 C1698 0.950 . S
C1703 C1701 1.390 . S
C1703 C1704 1.387 . S
C1703 H1706 0.950 . S
C1704 C1703 1.387 . S
C1704 C1707 1.387 1_455 S
H1705 C1701 0.950 . S
H1706 C1703 0.950 . S
C1707 C1698 1.390 . S
C1707 H1700 0.950 . S
C1707 C1704 1.387 1_655 S
C1708 C1709 1.387 . S
C1708 H1712 0.950 . S
C1708 C1717 1.390 . S
C1709 C1708 1.387 . S
C1709 C1711 1.387 . S
H1710 C1717 0.950 . S
C1711 C1709 1.387 . S
C1711 C1713 1.390 . S
C1711 H1715 0.950 . S
H1712 C1708 0.950 . S
C1713 C1711 1.390 . S
C1713 C1714 1.387 . S
C1713 H1716 0.950 . S
C1714 C1713 1.387 . S
C1714 C1717 1.387 . S
H1715 C1711 0.950 . S
H1716 C1713 0.950 . S
C1717 C1708 1.390 . S
C1717 H1710 0.950 . S
C1717 C1714 1.387 . S
C1718 C1719 1.387 1_545 S
C1718 H1722 0.950 . S
C1718 C1727 1.390 . S
C1719 C1718 1.387 1_565 S
C1719 C1721 1.387 . S
H1720 C1727 0.950 . S
C1721 C1719 1.387 . S
C1721 C1723 1.390 . S
C1721 H1725 0.950 . S
H1722 C1718 0.950 . S
C1723 C1721 1.390 . S
C1723 C1724 1.387 . S
C1723 H1726 0.950 . S
C1724 C1723 1.387 . S
C1724 C1727 1.387 1_565 S
H1725 C1721 0.950 . S
H1726 C1723 0.950 . S
C1727 C1718 1.390 . S
C1727 H1720 0.950 . S
C1727 C1724 1.387 1_545 S
C1728 C1729 1.387 1_545 S
C1728 H1732 0.950 . S
C1728 C1737 1.390 . S
C1729 C1728 1.387 1_565 S
C1729 C1731 1.387 . S
H1730 C1737 0.950 . S
C1731 C1729 1.387 . S
C1731 C1733 1.390 . S
C1731 H1735 0.950 . S
H1732 C1728 0.950 . S
C1733 C1731 1.390 . S
C1733 C1734 1.387 . S
C1733 H1736 0.950 . S
C1734 C1733 1.387 . S
C1734 C1737 1.387 1_565 S
H1735 C1731 0.950 . S
H1736 C1733 0.950 . S
C1737 C1728 1.390 . S
C1737 H1730 0.950 . S
C1737 C1734 1.387 1_545 S
C1738 C1739 1.387 1_655 S
C1738 H1742 0.950 . S
C1738 C1747 1.390 1_655 S
C1739 C1738 1.387 1_455 S
C1739 C1741 1.387 . S
H1740 C1747 0.950 1_655 S
C1741 C1739 1.387 . S
C1741 C1743 1.390 . S
C1741 H1745 0.950 . S
H1742 C1738 0.950 . S
C1743 C1741 1.390 . S
C1743 C1744 1.387 . S
C1743 H1746 0.950 . S
C1744 C1743 1.387 . S
C1744 C1747 1.387 . S
H1745 C1741 0.950 . S
H1746 C1743 0.950 . S
C1747 C1738 1.390 1_455 S
C1747 H1740 0.950 1_455 S
C1747 C1744 1.387 . S
C1748 C1749 1.387 . S
C1748 H1752 0.950 . S
C1748 C1757 1.390 . S
C1749 C1748 1.387 . S
C1749 C1751 1.387 . S
H1750 C1757 0.950 . S
C1751 C1749 1.387 . S
C1751 C1753 1.390 . S
C1751 H1755 0.950 . S
H1752 C1748 0.950 . S
C1753 C1751 1.390 . S
C1753 C1754 1.387 . S
C1753 H1756 0.950 . S
C1754 C1753 1.387 . S
C1754 C1757 1.387 . S
H1755 C1751 0.950 . S
H1756 C1753 0.950 . S
C1757 C1748 1.390 . S
C1757 H1750 0.950 . S
C1757 C1754 1.387 . S
C1758 C1759 1.387 1_554 S
C1758 H1762 0.950 . S
C1758 C1767 1.390 . S
C1759 C1758 1.387 1_556 S
C1759 C1761 1.387 . S
H1760 C1767 0.950 . S
C1761 C1759 1.387 . S
C1761 C1763 1.390 . S
C1761 H1765 0.950 . S
H1762 C1758 0.950 . S
C1763 C1761 1.390 . S
C1763 C1764 1.387 1_556 S
C1763 H1766 0.950 . S
C1764 C1763 1.387 1_554 S
C1764 C1767 1.387 . S
H1765 C1761 0.950 . S
H1766 C1763 0.950 . S
C1767 C1758 1.390 . S
C1767 H1760 0.950 . S
C1767 C1764 1.387 . S
C1768 C1769 1.387 . S
C1768 H1772 0.950 . S
C1768 C1777 1.390 . S
C1769 C1768 1.387 . S
C1769 C1771 1.387 1_554 S
H1770 C1777 0.950 . S
C1771 C1769 1.387 1_556 S
C1771 C1773 1.390 . S
C1771 H1775 0.950 . S
H1772 C1768 0.950 . S
C1773 C1771 1.390 . S
C1773 C1774 1.387 . S
C1773 H1776 0.950 . S
C1774 C1773 1.387 . S
C1774 C1777 1.387 1_556 S
H1775 C1771 0.950 . S
H1776 C1773 0.950 . S
C1777 C1768 1.390 . S
C1777 H1770 0.950 . S
C1777 C1774 1.387 1_554 S
C1778 C1779 1.387 . S
C1778 H1782 0.950 . S
C1778 C1787 1.370 1_554 S
C1779 C1778 1.387 . S
C1779 C1781 1.387 1_554 S
H1780 C1787 0.948 1_554 S
C1781 C1779 1.387 1_556 S
C1781 C1783 1.390 . S
C1781 H1785 0.950 . S
H1782 C1778 0.950 . S
C1783 C1781 1.390 . S
C1783 C1784 1.387 . S
C1783 H1786 0.950 . S
C1784 C1783 1.387 . S
C1784 C1787 1.411 . S
H1785 C1781 0.950 . S
H1786 C1783 0.950 . S
C1787 C1778 1.370 1_556 S
C1787 H1780 0.948 1_556 S
C1787 C1784 1.411 . S
C1788 C1789 1.387 . S
C1788 H1792 0.950 . S
C1788 C1797 1.390 . S
C1789 C1788 1.387 . S
C1789 C1791 1.387 1_545 S
H1790 C1797 0.950 . S
C1791 C1789 1.387 1_565 S
C1791 C1793 1.390 . S
C1791 H1795 0.950 . S
H1792 C1788 0.950 . S
C1793 C1791 1.390 . S
C1793 C1794 1.387 1_565 S
C1793 H1796 0.950 . S
C1794 C1793 1.387 1_545 S
C1794 C1797 1.387 . S
H1795 C1791 0.950 . S
H1796 C1793 0.950 . S
C1797 C1788 1.390 . S
C1797 H1790 0.950 . S
C1797 C1794 1.387 . S
C1798 C1799 1.387 . S
C1798 H1802 0.950 . S
C1798 C1807 1.390 . S
C1799 C1798 1.387 . S
C1799 C1801 1.387 . S
H1800 C1807 0.950 . S
C1801 C1799 1.387 . S
C1801 C1803 1.390 . S
C1801 H1805 0.950 . S
H1802 C1798 0.950 . S
C1803 C1801 1.390 . S
C1803 C1804 1.387 . S
C1803 H1806 0.950 . S
C1804 C1803 1.387 . S
C1804 C1807 1.387 . S
H1805 C1801 0.950 . S
H1806 C1803 0.950 . S
C1807 C1798 1.390 . S
C1807 H1800 0.950 . S
C1807 C1804 1.387 . S
C1808 C1809 1.387 . S
C1808 H1812 0.950 . S
C1808 C1817 1.390 . S
C1809 C1808 1.387 . S
C1809 C1811 1.387 . S
H1810 C1817 0.950 . S
C1811 C1809 1.387 . S
C1811 C1813 1.390 . S
C1811 H1815 0.950 . S
H1812 C1808 0.950 . S
C1813 C1811 1.390 . S
C1813 C1814 1.387 . S
C1813 H1816 0.950 . S
C1814 C1813 1.387 . S
C1814 C1817 1.387 . S
H1815 C1811 0.950 . S
H1816 C1813 0.950 . S
C1817 C1808 1.390 . S
C1817 H1810 0.950 . S
C1817 C1814 1.387 . S
C1818 C1819 1.387 1_554 S
C1818 H1822 0.950 . S
C1818 C1827 1.390 . S
C1819 C1818 1.387 1_556 S
C1819 C1821 1.387 . S
H1820 C1827 0.950 . S
C1821 C1819 1.387 . S
C1821 C1823 1.390 . S
C1821 H1825 0.950 . S
H1822 C1818 0.950 . S
C1823 C1821 1.390 . S
C1823 C1824 1.387 1_556 S
C1823 H1826 0.950 . S
C1824 C1823 1.387 1_554 S
C1824 C1827 1.387 . S
H1825 C1821 0.950 . S
H1826 C1823 0.950 . S
C1827 C1818 1.390 . S
C1827 H1820 0.950 . S
C1827 C1824 1.387 . S
C1828 C1829 1.387 . S
C1828 H1832 0.950 . S
C1828 C1837 1.390 . S
C1829 C1828 1.387 . S
C1829 C1831 1.387 1_554 S
H1830 C1837 0.950 . S
C1831 C1829 1.387 1_556 S
C1831 C1833 1.390 . S
C1831 H1835 0.950 . S
H1832 C1828 0.950 . S
C1833 C1831 1.390 . S
C1833 C1834 1.387 . S
C1833 H1836 0.950 . S
C1834 C1833 1.387 . S
C1834 C1837 1.387 1_556 S
H1835 C1831 0.950 . S
H1836 C1833 0.950 . S
C1837 C1828 1.390 . S
C1837 H1830 0.950 . S
C1837 C1834 1.387 1_554 S
C1838 C1839 1.387 . S
C1838 H1842 0.950 . S
C1838 C1847 1.390 . S
C1839 C1838 1.387 . S
C1839 C1841 1.387 1_556 S
H1840 C1847 0.950 . S
C1841 C1839 1.387 1_554 S
C1841 C1843 1.390 . S
C1841 H1845 0.950 . S
H1842 C1838 0.950 . S
C1843 C1841 1.390 . S
C1843 C1844 1.387 . S
C1843 H1846 0.950 . S
C1844 C1843 1.387 . S
C1844 C1847 1.387 1_554 S
H1845 C1841 0.950 . S
H1846 C1843 0.950 . S
C1847 C1838 1.390 . S
C1847 H1840 0.950 . S
C1847 C1844 1.387 1_556 S
C1848 C1849 1.387 . S
C1848 H1852 0.950 . S
C1848 C1857 1.390 . S
C1849 C1848 1.387 . S
C1849 C1851 1.387 . S
H1850 C1857 0.950 . S
C1851 C1849 1.387 . S
C1851 C1853 1.390 . S
C1851 H1855 0.950 . S
H1852 C1848 0.950 . S
C1853 C1851 1.390 . S
C1853 C1854 1.387 . S
C1853 H1856 0.950 . S
C1854 C1853 1.387 . S
C1854 C1857 1.387 . S
H1855 C1851 0.950 . S
H1856 C1853 0.950 . S
C1857 C1848 1.390 . S
C1857 H1850 0.950 . S
C1857 C1854 1.387 . S
C1858 C1859 1.387 . S
C1858 H1862 0.950 . S
C1858 C1867 1.390 . S
C1859 C1858 1.387 . S
C1859 C1861 1.387 . S
H1860 C1867 0.950 . S
C1861 C1859 1.387 . S
C1861 C1863 1.390 . S
C1861 H1865 0.950 . S
H1862 C1858 0.950 . S
C1863 C1861 1.390 . S
C1863 C1864 1.387 . S
C1863 H1866 0.950 . S
C1864 C1863 1.387 . S
C1864 C1867 1.387 . S
H1865 C1861 0.950 . S
H1866 C1863 0.950 . S
C1867 C1858 1.390 . S
C1867 H1860 0.950 . S
C1867 C1864 1.387 . S
C1868 C1869 1.387 . S
C1868 H1872 0.950 . S
C1868 C1877 1.390 . S
C1869 C1868 1.387 . S
C1869 C1871 1.387 . S
H1870 C1877 0.950 . S
C1871 C1869 1.387 . S
C1871 C1873 1.390 . S
C1871 H1875 0.950 . S
H1872 C1868 0.950 . S
C1873 C1871 1.390 . S
C1873 C1874 1.387 . S
C1873 H1876 0.950 . S
C1874 C1873 1.387 . S
C1874 C1877 1.387 . S
H1875 C1871 0.950 . S
H1876 C1873 0.950 . S
C1877 C1868 1.390 . S
C1877 H1870 0.950 . S
C1877 C1874 1.387 . S
C1878 C1879 1.387 . S
C1878 H1882 0.950 . S
C1878 C1887 1.390 . S
C1879 C1878 1.387 . S
C1879 C1881 1.387 1_655 S
H1880 C1887 0.950 . S
C1881 C1879 1.387 1_455 S
C1881 C1883 1.390 . S
C1881 H1885 0.950 . S
H1882 C1878 0.950 . S
C1883 C1881 1.390 . S
C1883 C1884 1.387 1_455 S
C1883 H1886 0.950 . S
C1884 C1883 1.387 1_655 S
C1884 C1887 1.387 . S
H1885 C1881 0.950 . S
H1886 C1883 0.950 . S
C1887 C1878 1.390 . S
C1887 H1880 0.950 . S
C1887 C1884 1.387 . S
C1888 C1889 1.387 . S
C1888 H1892 0.950 . S
C1888 C1897 1.390 . S
C1889 C1888 1.387 . S
C1889 C1891 1.387 . S
H1890 C1897 0.950 . S
C1891 C1889 1.387 . S
C1891 C1893 1.390 . S
C1891 H1895 0.950 . S
H1892 C1888 0.950 . S
C1893 C1891 1.390 . S
C1893 C1894 1.387 . S
C1893 H1896 0.950 . S
C1894 C1893 1.387 . S
C1894 C1897 1.387 . S
H1895 C1891 0.950 . S
H1896 C1893 0.950 . S
C1897 C1888 1.390 . S
C1897 H1890 0.950 . S
C1897 C1894 1.387 . S
C1898 C1899 1.387 1_565 S
C1898 H1902 0.950 . S
C1898 C1907 1.390 . S
C1899 C1898 1.387 1_545 S
C1899 C1901 1.387 . S
H1900 C1907 0.950 . S
C1901 C1899 1.387 . S
C1901 C1903 1.390 . S
C1901 H1905 0.950 . S
H1902 C1898 0.950 . S
C1903 C1901 1.390 . S
C1903 C1904 1.387 . S
C1903 H1906 0.950 . S
C1904 C1903 1.387 . S
C1904 C1907 1.387 1_545 S
H1905 C1901 0.950 . S
H1906 C1903 0.950 . S
C1907 C1898 1.390 . S
C1907 H1900 0.950 . S
C1907 C1904 1.387 1_565 S
C1908 C1909 1.387 . S
C1908 H1912 0.950 . S
C1908 C1917 1.390 1_655 S
C1909 C1908 1.387 . S
C1909 C1911 1.387 . S
H1910 C1917 0.950 . S
C1911 C1909 1.387 . S
C1911 C1913 1.390 1_655 S
C1911 H1915 0.950 . S
H1912 C1908 0.950 . S
C1913 C1911 1.390 1_455 S
C1913 C1914 1.387 . S
C1913 H1916 0.950 . S
C1914 C1913 1.387 . S
C1914 C1917 1.387 . S
H1915 C1911 0.950 . S
H1916 C1913 0.950 . S
C1917 C1908 1.390 1_455 S
C1917 H1910 0.950 . S
C1917 C1914 1.387 . S
C1918 C1919 1.387 . S
C1918 H1922 0.950 . S
C1918 C1927 1.390 . S
C1919 C1918 1.387 . S
C1919 C1921 1.387 . S
H1920 C1927 0.950 . S
C1921 C1919 1.387 . S
C1921 C1923 1.390 . S
C1921 H1925 0.950 . S
H1922 C1918 0.950 . S
C1923 C1921 1.390 . S
C1923 C1924 1.387 . S
C1923 H1926 0.950 . S
C1924 C1923 1.387 . S
C1924 C1927 1.387 . S
H1925 C1921 0.950 . S
H1926 C1923 0.950 . S
C1927 C1918 1.390 . S
C1927 H1920 0.950 . S
C1927 C1924 1.387 . S
C1928 C1929 1.387 . S
C1928 H1932 0.950 . S
C1928 C1937 1.390 1_565 S
C1929 C1928 1.387 . S
C1929 C1931 1.387 . S
H1930 C1937 0.950 . S
C1931 C1929 1.387 . S
C1931 C1933 1.390 1_565 S
C1931 H1935 0.950 . S
H1932 C1928 0.950 . S
C1933 C1931 1.390 1_545 S
C1933 C1934 1.387 . S
C1933 H1936 0.950 . S
C1934 C1933 1.387 . S
C1934 C1937 1.387 . S
H1935 C1931 0.950 . S
H1936 C1933 0.950 . S
C1937 C1928 1.390 1_545 S
C1937 H1930 0.950 . S
C1937 C1934 1.387 . S
C1938 C1939 1.387 1_455 S
C1938 H1942 0.950 . S
C1938 C1947 1.390 . S
C1939 C1938 1.387 1_655 S
C1939 C1941 1.387 . S
H1940 C1947 0.950 . S
C1941 C1939 1.387 . S
C1941 C1943 1.390 . S
C1941 H1945 0.950 . S
H1942 C1938 0.950 . S
C1943 C1941 1.390 . S
C1943 C1944 1.387 1_655 S
C1943 H1946 0.950 . S
C1944 C1943 1.387 1_455 S
C1944 C1947 1.387 . S
H1945 C1941 0.950 . S
H1946 C1943 0.950 . S
C1947 C1938 1.390 . S
C1947 H1940 0.950 . S
C1947 C1944 1.387 . S
C1948 C1949 1.387 . S
C1948 H1952 0.950 . S
C1948 C1957 1.390 . S
C1949 C1948 1.387 . S
C1949 C1951 1.387 . S
H1950 C1957 0.950 . S
C1951 C1949 1.387 . S
C1951 C1953 1.390 . S
C1951 H1955 0.950 . S
H1952 C1948 0.950 . S
C1953 C1951 1.390 . S
C1953 C1954 1.387 . S
C1953 H1956 0.950 . S
C1954 C1953 1.387 . S
C1954 C1957 1.387 . S
H1955 C1951 0.950 . S
H1956 C1953 0.950 . S
C1957 C1948 1.390 . S
C1957 H1950 0.950 . S
C1957 C1954 1.387 . S
C1958 C1959 1.387 . S
C1958 H1962 0.950 . S
C1958 C1967 1.390 1_545 S
C1959 C1958 1.387 . S
C1959 C1961 1.387 . S
H1960 C1967 0.950 . S
C1961 C1959 1.387 . S
C1961 C1963 1.390 1_545 S
C1961 H1965 0.950 . S
H1962 C1958 0.950 . S
C1963 C1961 1.390 1_565 S
C1963 C1964 1.387 . S
C1963 H1966 0.950 . S
C1964 C1963 1.387 . S
C1964 C1967 1.387 . S
H1965 C1961 0.950 . S
H1966 C1963 0.950 . S
C1967 C1958 1.390 1_565 S
C1967 H1960 0.950 . S
C1967 C1964 1.387 . S
C1968 C1969 1.387 . S
C1968 H1972 0.950 . S
C1968 C1977 1.390 . S
C1969 C1968 1.387 . S
C1969 C1971 1.387 . S
H1970 C1977 0.950 . S
C1971 C1969 1.387 . S
C1971 C1973 1.390 . S
C1971 H1975 0.950 . S
H1972 C1968 0.950 . S
C1973 C1971 1.390 . S
C1973 C1974 1.387 . S
C1973 H1976 0.950 . S
C1974 C1973 1.387 . S
C1974 C1977 1.387 . S
H1975 C1971 0.950 . S
H1976 C1973 0.950 . S
C1977 C1968 1.390 . S
C1977 H1970 0.950 . S
C1977 C1974 1.387 . S
C1978 C1979 1.387 . S
C1978 H1982 0.950 1_545 S
C1978 C1987 1.390 . S
C1979 C1978 1.387 . S
C1979 C1981 1.387 . S
H1980 C1987 0.950 . S
C1981 C1979 1.387 . S
C1981 C1983 1.390 . S
C1981 H1985 0.950 . S
H1982 C1978 0.950 1_565 S
C1983 C1981 1.390 . S
C1983 C1984 1.387 . S
C1983 H1986 0.950 . S
C1984 C1983 1.387 . S
C1984 C1987 1.387 . S
H1985 C1981 0.950 . S
H1986 C1983 0.950 . S
C1987 C1978 1.390 . S
C1987 H1980 0.950 . S
C1987 C1984 1.387 . S
C1988 C1989 1.387 . S
C1988 H1992 0.950 1_655 S
C1988 C1997 1.390 . S
C1989 C1988 1.387 . S
C1989 C1991 1.387 . S
H1990 C1997 0.950 . S
C1991 C1989 1.387 . S
C1991 C1993 1.390 . S
C1991 H1995 0.950 . S
H1992 C1988 0.950 1_455 S
C1993 C1991 1.390 . S
C1993 C1994 1.387 . S
C1993 H1996 0.950 . S
C1994 C1993 1.387 . S
C1994 C1997 1.387 . S
H1995 C1991 0.950 . S
H1996 C1993 0.950 . S
C1997 C1988 1.390 . S
C1997 H1990 0.950 . S
C1997 C1994 1.387 . S
C1998 C1999 1.387 . S
C1998 H2002 0.950 . S
C1998 C2007 1.390 . S
C1999 C1998 1.387 . S
C1999 C2001 1.387 . S
H2000 C2007 0.950 . S
C2001 C1999 1.387 . S
C2001 C2003 1.390 . S
C2001 H2005 0.950 . S
H2002 C1998 0.950 . S
C2003 C2001 1.390 . S
C2003 C2004 1.387 . S
C2003 H2006 0.950 1_545 S
C2004 C2003 1.387 . S
C2004 C2007 1.387 . S
H2005 C2001 0.950 . S
H2006 C2003 0.950 1_565 S
C2007 C1998 1.390 . S
C2007 H2000 0.950 . S
C2007 C2004 1.387 . S
C2008 C2009 1.387 . S
C2008 H2012 0.950 . S
C2008 C2017 1.390 . S
C2009 C2008 1.387 . S
C2009 C2011 1.387 . S
H2010 C2017 0.950 . S
C2011 C2009 1.387 . S
C2011 C2013 1.390 . S
C2011 H2015 0.950 . S
H2012 C2008 0.950 . S
C2013 C2011 1.390 . S
C2013 C2014 1.387 . S
C2013 H2016 0.950 . S
C2014 C2013 1.387 . S
C2014 C2017 1.387 . S
H2015 C2011 0.950 . S
H2016 C2013 0.950 . S
C2017 C2008 1.390 . S
C2017 H2010 0.950 . S
C2017 C2014 1.387 . S
C2018 C2019 1.387 . S
C2018 H2022 0.950 . S
C2018 C2027 1.390 . S
C2019 C2018 1.387 . S
C2019 C2021 1.387 . S
H2020 C2027 0.950 . S
C2021 C2019 1.387 . S
C2021 C2023 1.390 . S
C2021 H2025 0.950 . S
H2022 C2018 0.950 . S
C2023 C2021 1.390 . S
C2023 C2024 1.387 . S
C2023 H2026 0.950 . S
C2024 C2023 1.387 . S
C2024 C2027 1.387 . S
H2025 C2021 0.950 . S
H2026 C2023 0.950 . S
C2027 C2018 1.390 . S
C2027 H2020 0.950 . S
C2027 C2024 1.387 . S
C2028 C2029 1.387 . S
C2028 H2032 0.950 . S
C2028 C2037 1.390 . S
C2029 C2028 1.387 . S
C2029 C2031 1.387 . S
H2030 C2037 0.950 1_545 S
C2031 C2029 1.387 . S
C2031 C2033 1.390 . S
C2031 H2035 0.950 . S
H2032 C2028 0.950 . S
C2033 C2031 1.390 . S
C2033 C2034 1.387 . S
C2033 H2036 0.950 . S
C2034 C2033 1.387 . S
C2034 C2037 1.387 . S
H2035 C2031 0.950 . S
H2036 C2033 0.950 . S
C2037 C2028 1.390 . S
C2037 H2030 0.950 1_565 S
C2037 C2034 1.387 . S
C2038 C2039 1.387 . S
C2038 H2042 0.950 1_455 S
C2038 C2047 1.390 . S
C2039 C2038 1.387 . S
C2039 C2041 1.387 . S
H2040 C2047 0.950 . S
C2041 C2039 1.387 . S
C2041 C2043 1.390 . S
C2041 H2045 0.950 . S
H2042 C2038 0.950 1_655 S
C2043 C2041 1.390 . S
C2043 C2044 1.387 . S
C2043 H2046 0.950 . S
C2044 C2043 1.387 . S
C2044 C2047 1.387 . S
H2045 C2041 0.950 . S
H2046 C2043 0.950 . S
C2047 C2038 1.390 . S
C2047 H2040 0.950 . S
C2047 C2044 1.387 . S
C2048 C2049 1.387 . S
C2048 H2052 0.950 . S
C2048 C2057 1.390 . S
C2049 C2048 1.387 . S
C2049 C2051 1.387 . S
H2050 C2057 0.950 . S
C2051 C2049 1.387 . S
C2051 C2053 1.390 . S
C2051 H2055 0.950 . S
H2052 C2048 0.950 . S
C2053 C2051 1.390 . S
C2053 C2054 1.387 . S
C2053 H2056 0.950 . S
C2054 C2053 1.387 . S
C2054 C2057 1.387 . S
H2055 C2051 0.950 . S
H2056 C2053 0.950 . S
C2057 C2048 1.390 . S
C2057 H2050 0.950 . S
C2057 C2054 1.387 . S
C2058 C2059 1.387 . S
C2058 H2062 0.950 . S
C2058 C2067 1.390 . S
C2059 C2058 1.387 . S
C2059 C2061 1.387 . S
H2060 C2067 0.950 . S
C2061 C2059 1.387 . S
C2061 C2063 1.390 . S
C2061 H2065 0.950 . S
H2062 C2058 0.950 . S
C2063 C2061 1.390 . S
C2063 C2064 1.387 . S
C2063 H2066 0.950 . S
C2064 C2063 1.387 . S
C2064 C2067 1.387 . S
H2065 C2061 0.950 . S
H2066 C2063 0.950 . S
C2067 C2058 1.390 . S
C2067 H2060 0.950 . S
C2067 C2064 1.387 . S
C2068 C2069 1.387 . S
C2068 H2072 0.950 . S
C2068 C2077 1.390 . S
C2069 C2068 1.387 . S
C2069 C2071 1.387 . S
H2070 C2077 0.950 . S
C2071 C2069 1.387 . S
C2071 C2073 1.390 . S
C2071 H2075 0.950 1_565 S
H2072 C2068 0.950 . S
C2073 C2071 1.390 . S
C2073 C2074 1.387 . S
C2073 H2076 0.950 . S
C2074 C2073 1.387 . S
C2074 C2077 1.387 . S
H2075 C2071 0.950 1_545 S
H2076 C2073 0.950 . S
C2077 C2068 1.390 . S
C2077 H2070 0.950 . S
C2077 C2074 1.387 . S
C2078 C2079 1.387 . S
C2078 H2082 0.950 . S
C2078 C2087 1.390 . S
C2079 C2078 1.387 . S
C2079 C2081 1.387 . S
H2080 C2087 0.950 . S
C2081 C2079 1.387 . S
C2081 C2083 1.390 . S
C2081 H2085 0.950 . S
H2082 C2078 0.950 . S
C2083 C2081 1.390 . S
C2083 C2084 1.387 . S
C2083 H2086 0.950 1_455 S
C2084 C2083 1.387 . S
C2084 C2087 1.387 . S
H2085 C2081 0.950 . S
H2086 C2083 0.950 1_655 S
C2087 C2078 1.390 . S
C2087 H2080 0.950 . S
C2087 C2084 1.387 . S
C1189 N14 1.443 . S
C1194 C74 1.365 . S
C1199 C8 1.364 . S
C1204 N47 1.442 1_545 S
C1209 C41 1.364 . S
C1214 N80 1.440 1_655 S
C1219 C140 1.363 . S
C1224 N113 1.441 . S
C1229 C173 1.363 . S
C1234 N146 1.441 1_565 S
C1239 C107 1.367 . S
C1244 N179 1.444 1_455 S
C1249 C272 1.366 . S
C1254 N212 1.443 . S
C1259 N245 1.441 1_565 S
C1264 C206 1.364 . S
C1269 C239 1.369 . S
C1274 N278 1.445 1_455 S
C1279 C338 1.364 . S
C1284 N311 1.441 . S
C1289 N344 1.442 1_545 S
C1294 C371 1.367 . S
C1299 C305 1.364 . S
C1304 N377 1.442 1_655 S
C1309 N410 1.442 . S
C1314 C470 1.367 . S
C1319 N443 1.444 . S
C1324 C404 1.368 . S
C1329 N476 1.440 . S
C1334 C437 1.363 . S
C1339 C536 1.369 . S
C1344 N509 1.445 . S
C1349 C569 1.367 . S
C1354 N542 1.443 . S
C1359 N575 1.443 . S
C1364 C503 1.365 . S
C1369 N608 1.445 . S
C1374 C668 1.368 . S
C1379 N641 1.444 . S
C1384 C602 1.368 . S
C1389 N674 1.444 . S
C1394 C635 1.368 . S
C1399 C734 1.364 . S
C1404 N707 1.440 . S
C1409 C767 1.364 . S
C1414 N740 1.442 . S
C1419 N773 1.443 . S
C1424 C701 1.368 . S
C1429 C866 1.367 . S
C1434 N806 1.442 . S
C1439 C800 1.363 . S
C1444 N839 1.441 . S
C1449 N872 1.444 . S
C1454 C833 1.368 . S
C1459 C932 1.363 . S
C1464 N905 1.440 . S
C1469 N938 1.442 . S
C1474 C965 1.364 . S
C1479 C899 1.366 . S
C1484 N971 1.443 . S
C1489 C1064 1.365 . S
C1494 N1004 1.442 . S
C1499 N1037 1.440 . S
C1504 C998 1.363 . S
C1509 N1070 1.440 . S
C1514 C1031 1.363 . S
C1519 C1130 1.367 . S
C1524 N1103 1.444 . S
C1529 C1163 1.368 . S
C1534 N1136 1.443 . S
C1539 N1169 1.444 . S
C1544 C1097 1.367 . S
C1549 N665 1.423 . S
C1554 C28 1.391 . S
C1559 C61 1.389 . S
C1564 N599 1.425 . S
C1569 C94 1.392 . S
C1574 N632 1.424 . S
C1579 N1127 1.425 . S
C1584 C127 1.388 . S
C1589 N1160 1.424 . S
C1594 C160 1.392 . S
C1599 C193 1.392 . S
C1604 N1094 1.423 . S
C1609 C226 1.391 . S
C1614 N863 1.423 . S
C1619 C259 1.392 . S
C1624 N797 1.424 . S
C1629 C292 1.392 . S
C1634 N830 1.424 . S
C1639 N533 1.423 . S
C1644 C325 1.392 . S
C1649 C358 1.389 . S
C1654 N566 1.425 . S
C1659 C391 1.390 . S
C1664 N500 1.424 . S
C1669 C424 1.390 . S
C1674 N1061 1.423 1_655 S
C1679 N995 1.424 . S
C1684 C457 1.389 . S
C1689 N1028 1.425 1_545 S
C1694 C490 1.392 . S
C1699 C523 1.389 1_455 S
C1704 N335 1.426 . S
C1709 C556 1.389 . S
C1714 N368 1.425 . S
C1719 C589 1.390 1_565 S
C1724 N302 1.426 . S
C1729 N71 1.423 . S
C1734 C622 1.391 1_565 S
C1739 C655 1.392 1_455 S
C1744 N5 1.423 . S
C1749 C688 1.392 . S
C1754 N38 1.423 . S
C1759 N929 1.425 1_545 S
C1764 C721 1.388 . S
C1769 C754 1.389 . S
C1774 N962 1.426 1_655 S
C1779 C787 1.390 . S
C1784 N896 1.424 . S
C1789 N269 1.423 . S
C1794 C820 1.390 1_545 S
C1799 N203 1.424 . S
C1804 C853 1.392 1_655 S
C1809 C886 1.392 . S
C1814 N236 1.424 . S
C1819 C919 1.388 . S
C1824 N731 1.425 1_565 S
C1829 N764 1.425 1_455 S
C1834 C952 1.389 . S
C1839 C985 1.392 . S
C1844 N698 1.423 . S
C1849 N467 1.425 1_455 S
C1854 C1018 1.389 . S
C1859 C1051 1.389 . S
C1864 N401 1.424 . S
C1869 C1084 1.389 . S
C1874 N434 1.426 1_565 S
C1879 N137 1.425 . S
C1884 C1117 1.391 1_655 S
C1889 C1150 1.391 . S
C1894 N170 1.423 . S
C1899 N104 1.423 . S
C1904 C1183 1.391 1_545 S
C1909 C149 1.741 . S
C1914 C17 1.741 . S
C1919 C50 1.741 . S
C1924 C182 1.741 . S
C1929 C83 1.738 . S
C1934 C116 1.738 . S
C1939 C215 1.740 . S
C1944 C347 1.741 . S
C1949 C248 1.741 . S
C1954 C380 1.741 . S
C1959 C281 1.738 . S
C1964 C314 1.738 . S
C1969 C545 1.738 . S
C1974 C413 1.738 . S
C1979 C578 1.741 . S
C1984 C446 1.742 . S
C1989 C512 1.741 . S
C1994 C479 1.741 . S
C1999 C743 1.741 . S
C2004 C611 1.741 . S
C2009 C776 1.740 . S
C2014 C644 1.741 . S
C2019 C710 1.741 . S
C2024 C677 1.741 . S
C2029 C941 1.741 . S
C2034 C809 1.741 . S
C2039 C842 1.741 . S
C2044 C974 1.741 . S
C2049 C908 1.741 . S
C2054 C875 1.741 . S
C2059 C1139 1.741 . S
C2064 C1007 1.741 . S
C2069 C1172 1.741 . S
C2074 C1040 1.741 . S
C2079 C1073 1.741 . S
C2084 C1106 1.741 . S
