# Generated by pormake.
# Topology wmg, (6)-cn, num edge types: 1
# Building blocks:
#     Node 0, Type 0, BuildingBlock: OJICUG_clean_sbu_0, # of connection points: 6
#     Node 1, Type 0, BuildingBlock: OJICUG_clean_sbu_0, # of connection points: 6
#     Node 2, Type 0, BuildingBlock: OJICUG_clean_sbu_0, # of connection points: 6
#     Node 3, Type 0, BuildingBlock: OJICUG_clean_sbu_0, # of connection points: 6
#     Node 4, Type 0, BuildingBlock: OJICUG_clean_sbu_0, # of connection points: 6
#     Node 5, Type 0, BuildingBlock: OJICUG_clean_sbu_0, # of connection points: 6
#     Node 6, Type 0, BuildingBlock: OJICUG_clean_sbu_0, # of connection points: 6
#     Node 7, Type 0, BuildingBlock: OJICUG_clean_sbu_0, # of connection points: 6
#     Node 8, Type 0, BuildingBlock: OJICUG_clean_sbu_0, # of connection points: 6
#     Node 9, Type 0, BuildingBlock: OJICUG_clean_sbu_0, # of connection points: 6
#     Node 10, Type 0, BuildingBlock: OJICUG_clean_sbu_0, # of connection points: 6
#     Node 11, Type 0, BuildingBlock: OJICUG_clean_sbu_0, # of connection points: 6
#     Node 12, Type 0, BuildingBlock: OJICUG_clean_sbu_0, # of connection points: 6
#     Node 13, Type 0, BuildingBlock: OJICUG_clean_sbu_0, # of connection points: 6
#     Node 14, Type 0, BuildingBlock: OJICUG_clean_sbu_0, # of connection points: 6
#     Node 15, Type 0, BuildingBlock: OJICUG_clean_sbu_0, # of connection points: 6
#     Node 16, Type 0, BuildingBlock: OJICUG_clean_sbu_0, # of connection points: 6
#     Node 17, Type 0, BuildingBlock: OJICUG_clean_sbu_0, # of connection points: 6
#     Edge 18, Type (0, 0), BuildingBlock: AJUNOK_clean_linker_0, # of connection points: 2
#     Edge 19, Type (0, 0), BuildingBlock: AJUNOK_clean_linker_0, # of connection points: 2
#     Edge 20, Type (0, 0), BuildingBlock: AJUNOK_clean_linker_0, # of connection points: 2
#     Edge 21, Type (0, 0), BuildingBlock: AJUNOK_clean_linker_0, # of connection points: 2
#     Edge 22, Type (0, 0), BuildingBlock: AJUNOK_clean_linker_0, # of connection points: 2
#     Edge 23, Type (0, 0), BuildingBlock: AJUNOK_clean_linker_0, # of connection points: 2
#     Edge 24, Type (0, 0), BuildingBlock: AJUNOK_clean_linker_0, # of connection points: 2
#     Edge 25, Type (0, 0), BuildingBlock: AJUNOK_clean_linker_0, # of connection points: 2
#     Edge 26, Type (0, 0), BuildingBlock: AJUNOK_clean_linker_0, # of connection points: 2
#     Edge 27, Type (0, 0), BuildingBlock: AJUNOK_clean_linker_0, # of connection points: 2
#     Edge 28, Type (0, 0), BuildingBlock: AJUNOK_clean_linker_0, # of connection points: 2
#     Edge 29, Type (0, 0), BuildingBlock: AJUNOK_clean_linker_0, # of connection points: 2
#     Edge 30, Type (0, 0), BuildingBlock: AJUNOK_clean_linker_0, # of connection points: 2
#     Edge 31, Type (0, 0), BuildingBlock: AJUNOK_clean_linker_0, # of connection points: 2
#     Edge 32, Type (0, 0), BuildingBlock: AJUNOK_clean_linker_0, # of connection points: 2
#     Edge 33, Type (0, 0), BuildingBlock: AJUNOK_clean_linker_0, # of connection points: 2
#     Edge 34, Type (0, 0), BuildingBlock: AJUNOK_clean_linker_0, # of connection points: 2
#     Edge 35, Type (0, 0), BuildingBlock: AJUNOK_clean_linker_0, # of connection points: 2
#     Edge 36, Type (0, 0), BuildingBlock: AJUNOK_clean_linker_0, # of connection points: 2
#     Edge 37, Type (0, 0), BuildingBlock: AJUNOK_clean_linker_0, # of connection points: 2
#     Edge 38, Type (0, 0), BuildingBlock: AJUNOK_clean_linker_0, # of connection points: 2
#     Edge 39, Type (0, 0), BuildingBlock: AJUNOK_clean_linker_0, # of connection points: 2
#     Edge 40, Type (0, 0), BuildingBlock: AJUNOK_clean_linker_0, # of connection points: 2
#     Edge 41, Type (0, 0), BuildingBlock: AJUNOK_clean_linker_0, # of connection points: 2
#     Edge 42, Type (0, 0), BuildingBlock: AJUNOK_clean_linker_0, # of connection points: 2
#     Edge 43, Type (0, 0), BuildingBlock: AJUNOK_clean_linker_0, # of connection points: 2
#     Edge 44, Type (0, 0), BuildingBlock: AJUNOK_clean_linker_0, # of connection points: 2
#     Edge 45, Type (0, 0), BuildingBlock: AJUNOK_clean_linker_0, # of connection points: 2
#     Edge 46, Type (0, 0), BuildingBlock: AJUNOK_clean_linker_0, # of connection points: 2
#     Edge 47, Type (0, 0), BuildingBlock: AJUNOK_clean_linker_0, # of connection points: 2
#     Edge 48, Type (0, 0), BuildingBlock: AJUNOK_clean_linker_0, # of connection points: 2
#     Edge 49, Type (0, 0), BuildingBlock: AJUNOK_clean_linker_0, # of connection points: 2
#     Edge 50, Type (0, 0), BuildingBlock: AJUNOK_clean_linker_0, # of connection points: 2
#     Edge 51, Type (0, 0), BuildingBlock: AJUNOK_clean_linker_0, # of connection points: 2
#     Edge 52, Type (0, 0), BuildingBlock: AJUNOK_clean_linker_0, # of connection points: 2
#     Edge 53, Type (0, 0), BuildingBlock: AJUNOK_clean_linker_0, # of connection points: 2
#     Edge 54, Type (0, 0), BuildingBlock: AJUNOK_clean_linker_0, # of connection points: 2
#     Edge 55, Type (0, 0), BuildingBlock: AJUNOK_clean_linker_0, # of connection points: 2
#     Edge 56, Type (0, 0), BuildingBlock: AJUNOK_clean_linker_0, # of connection points: 2
#     Edge 57, Type (0, 0), BuildingBlock: AJUNOK_clean_linker_0, # of connection points: 2
#     Edge 58, Type (0, 0), BuildingBlock: AJUNOK_clean_linker_0, # of connection points: 2
#     Edge 59, Type (0, 0), BuildingBlock: AJUNOK_clean_linker_0, # of connection points: 2
#     Edge 60, Type (0, 0), BuildingBlock: AJUNOK_clean_linker_0, # of connection points: 2
#     Edge 61, Type (0, 0), BuildingBlock: AJUNOK_clean_linker_0, # of connection points: 2
#     Edge 62, Type (0, 0), BuildingBlock: AJUNOK_clean_linker_0, # of connection points: 2
#     Edge 63, Type (0, 0), BuildingBlock: AJUNOK_clean_linker_0, # of connection points: 2
#     Edge 64, Type (0, 0), BuildingBlock: AJUNOK_clean_linker_0, # of connection points: 2
#     Edge 65, Type (0, 0), BuildingBlock: AJUNOK_clean_linker_0, # of connection points: 2
#     Edge 66, Type (0, 0), BuildingBlock: AJUNOK_clean_linker_0, # of connection points: 2
#     Edge 67, Type (0, 0), BuildingBlock: AJUNOK_clean_linker_0, # of connection points: 2
#     Edge 68, Type (0, 0), BuildingBlock: AJUNOK_clean_linker_0, # of connection points: 2
#     Edge 69, Type (0, 0), BuildingBlock: AJUNOK_clean_linker_0, # of connection points: 2
#     Edge 70, Type (0, 0), BuildingBlock: AJUNOK_clean_linker_0, # of connection points: 2
#     Edge 71, Type (0, 0), BuildingBlock: AJUNOK_clean_linker_0, # of connection points: 2
# Relax obj value: 0.253
# Max RMSD: 0.274
# Mean RMSD: 0.274
data_MOF--net-wmg--node1-OJICUG_clean_sbu_0--edge1-AJUNOK_clean_linker_0
_symmetry_space_group_name_H-M    P1
_symmetry_Int_Tables_number       1
_symmetry_cell_setting            triclinic
loop_
_symmetry_equiv_pos_as_xyz
'x, y, z'
_cell_length_a     48.563439
_cell_length_b     48.630737
_cell_length_c     18.500912
_cell_angle_alpha  89.951891
_cell_angle_beta   90.033586
_cell_angle_gamma 120.0196
loop_
_atom_site_label
_atom_site_type_symbol
_atom_site_fract_x
_atom_site_fract_y
_atom_site_fract_z
_atom_type_partial_charge
Sc0 Sc 0.18842 0.24785 0.96948 0.0
Sc1 Sc 0.22412 0.3115 0.0841 0.0
Sc2 Sc 0.17925 0.23623 0.15245 0.0
O3 O 0.19663 0.26527 0.06888 0.0
C4 C 0.1222 0.20992 0.04685 0.0
C5 C 0.18182 0.30545 0.94524 0.0
C6 C 0.17786 0.29957 0.20586 0.0
C7 C 0.26047 0.30353 0.96102 0.0
C8 C 0.19833 0.19756 0.0421 0.0
C9 C 0.24932 0.2816 0.19577 0.0
O10 O 0.14087 0.21011 0.99805 0.0
O11 O 0.20594 0.32227 0.98564 0.0
O12 O 0.17633 0.27287 0.21935 0.0
O13 O 0.23458 0.28509 0.92806 0.0
O14 O 0.18144 0.19708 0.09594 0.0
O15 O 0.24557 0.3051 0.18092 0.0
O16 O 0.2088 0.21957 0.99545 0.0
O17 O 0.26096 0.30974 0.0273 0.0
O18 O 0.22736 0.25296 0.18641 0.0
O19 O 0.1677 0.2755 0.9443 0.0
O20 O 0.13224 0.22073 0.11026 0.0
O21 O 0.18836 0.31372 0.14596 0.0
Sc22 Sc 0.75164 0.93757 0.9843 0.0
Sc23 Sc 0.69106 0.90917 0.10789 0.0
Sc24 Sc 0.768 0.93959 0.16454 0.0
O25 O 0.73677 0.928 0.08562 0.0
C26 C 0.79078 0.90872 0.05171 0.0
C27 C 0.6935 0.87334 0.96475 0.0
C28 C 0.70554 0.87577 0.22579 0.0
C29 C 0.69405 0.95145 0.98655 0.0
C30 C 0.80506 0.99645 0.05003 0.0
C31 C 0.72445 0.96499 0.2155 0.0
O32 O 0.79024 0.92819 0.0062 0.0
O33 O 0.67765 0.88018 0.00931 0.0
O34 O 0.73268 0.90096 0.2358 0.0
O35 O 0.71277 0.94554 0.95005 0.0
O36 O 0.80601 0.97997 0.1032 0.0
O37 O 0.70079 0.93727 0.20537 0.0
O38 O 0.78082 0.98627 0.00959 0.0
O39 O 0.69151 0.94773 0.05407 0.0
O40 O 0.75288 0.97164 0.20232 0.0
O41 O 0.72346 0.88918 0.96019 0.0
O42 O 0.78145 0.90743 0.11698 0.0
O43 O 0.69041 0.87124 0.16698 0.0
Sc44 Sc 0.06298 0.81455 0.97397 0.0
Sc45 Sc 0.08849 0.77836 0.09269 0.0
Sc46 Sc 0.0592 0.82432 0.15678 0.0
O47 O 0.07115 0.80661 0.07498 0.0
C48 C 0.09138 0.87996 0.04949 0.0
C49 C 0.12722 0.8213 0.95564 0.0
C50 C 0.12308 0.82456 0.21423 0.0
C51 C 0.04859 0.74325 0.96778 0.0
C52 C 0.00302 0.80647 0.04036 0.0
C53 C 0.03265 0.75433 0.20234 0.0
O54 O 0.07129 0.86155 0.00279 0.0
O55 O 0.11872 0.79677 0.99551 0.0
O56 O 0.09811 0.82674 0.22636 0.0
O57 O 0.05644 0.76883 0.9331 0.0
O58 O 0.01891 0.82257 0.09572 0.0
O59 O 0.05975 0.75742 0.18855 0.0
O60 O 0.01391 0.79401 0.99701 0.0
O61 O 0.04873 0.74321 0.0356 0.0
O62 O 0.02667 0.77669 0.19164 0.0
O63 O 0.11187 0.83592 0.9534 0.0
O64 O 0.09206 0.87047 0.1135 0.0
O65 O 0.12657 0.81316 0.15555 0.0
Sc66 Sc 0.82465 0.76438 0.84099 0.0
Sc67 Sc 0.7779 0.68845 0.90397 0.0
Sc68 Sc 0.81238 0.75058 0.02262 0.0
O69 O 0.80544 0.73437 0.92241 0.0
C70 C 0.87968 0.78803 0.95077 0.0
C71 C 0.8256 0.7011 0.78539 0.0
C72 C 0.8173 0.69215 0.04598 0.0
C73 C 0.75502 0.72068 0.79398 0.0
C74 C 0.80691 0.80359 0.95473 0.0
C75 C 0.74012 0.69428 0.02633 0.0
O76 O 0.87073 0.77805 0.88631 0.0
O77 O 0.8145 0.68668 0.84471 0.0
O78 O 0.83213 0.72212 0.04755 0.0
O79 O 0.77717 0.74914 0.80475 0.0
O80 O 0.79324 0.77994 0.99678 0.0
O81 O 0.74034 0.68954 0.95932 0.0
O82 O 0.82324 0.80353 0.90015 0.0
O83 O 0.75873 0.69696 0.80622 0.0
O84 O 0.76554 0.71319 0.06038 0.0
O85 O 0.82739 0.72796 0.77226 0.0
O86 O 0.86038 0.78821 0.99728 0.0
O87 O 0.79413 0.6761 0.00275 0.0
Sc88 Sc 0.23476 0.05842 0.84179 0.0
Sc89 Sc 0.31048 0.08667 0.90828 0.0
Sc90 Sc 0.24778 0.06177 0.02463 0.0
O91 O 0.2645 0.06926 0.92408 0.0
C92 C 0.21117 0.09032 0.94926 0.0
C93 C 0.29854 0.1215 0.7838 0.0
C94 C 0.30544 0.12633 0.04159 0.0
C95 C 0.27764 0.03087 0.79526 0.0
C96 C 0.1974 0.00101 0.95549 0.0
C97 C 0.30365 0.046 0.03748 0.0
O98 O 0.22157 0.09116 0.88566 0.0
O99 O 0.31425 0.12396 0.84066 0.0
O100 O 0.27544 0.11053 0.04391 0.0
O101 O 0.24976 0.02675 0.80257 0.0
O102 O 0.21968 0.01291 0.00166 0.0
O103 O 0.30808 0.04897 0.97026 0.0
O104 O 0.19635 0.01715 0.90144 0.0
O105 O 0.30262 0.05567 0.81723 0.0
O106 O 0.2858 0.05456 0.06893 0.0
O107 O 0.27068 0.0975 0.77291 0.0
O108 O 0.20902 0.06983 0.99512 0.0
O109 O 0.32196 0.11813 0.00256 0.0
Sc110 Sc 0.94188 0.17234 0.84344 0.0
Sc111 Sc 0.91457 0.22119 0.90363 0.0
Sc112 Sc 0.93969 0.18532 0.0248 0.0
O113 O 0.93123 0.19229 0.92325 0.0
C114 C 0.91048 0.11817 0.95494 0.0
C115 C 0.87925 0.17402 0.78247 0.0
C116 C 0.87598 0.18015 0.04301 0.0
C117 C 0.9697 0.24188 0.79077 0.0
C118 C 0.99858 0.19075 0.95948 0.0
C119 C 0.95574 0.25711 0.02826 0.0
O120 O 0.90916 0.12687 0.89048 0.0
O121 O 0.87614 0.18683 0.83937 0.0
O122 O 0.89106 0.16525 0.04626 0.0
O123 O 0.97424 0.2186 0.80193 0.0
O124 O 0.9885 0.20459 0.00086 0.0
O125 O 0.95422 0.25681 0.96052 0.0
O126 O 0.9825 0.17445 0.90446 0.0
O127 O 0.94432 0.24164 0.80948 0.0
O128 O 0.94749 0.23158 0.06326 0.0
O129 O 0.90307 0.1696 0.77378 0.0
O130 O 0.93029 0.13763 0.00062 0.0
O131 O 0.88407 0.20387 0.00057 0.0
Sc132 Sc 0.85418 0.58097 0.30858 0.0
Sc133 Sc 0.88814 0.6432 0.42815 0.0
Sc134 Sc 0.84488 0.56667 0.49036 0.0
O135 O 0.86208 0.59708 0.409 0.0
C136 C 0.78789 0.5424 0.38559 0.0
C137 C 0.8455 0.63799 0.29117 0.0
C138 C 0.84284 0.62841 0.55257 0.0
C139 C 0.92574 0.63898 0.30167 0.0
C140 C 0.86123 0.52819 0.37188 0.0
C141 C 0.91489 0.61197 0.532 0.0
O142 O 0.80653 0.54281 0.33628 0.0
O143 O 0.86895 0.65486 0.33315 0.0
O144 O 0.84242 0.60205 0.56301 0.0
O145 O 0.90028 0.61925 0.26875 0.0
O146 O 0.84585 0.52799 0.42845 0.0
O147 O 0.91016 0.63523 0.52186 0.0
O148 O 0.87455 0.55225 0.33094 0.0
O149 O 0.92603 0.64498 0.36806 0.0
O150 O 0.89327 0.58323 0.52146 0.0
O151 O 0.83298 0.60826 0.28643 0.0
O152 O 0.79791 0.55221 0.44963 0.0
O153 O 0.85162 0.64281 0.49253 0.0
Sc154 Sc 0.41803 0.27058 0.30745 0.0
Sc155 Sc 0.35579 0.24551 0.42709 0.0
Sc156 Sc 0.43197 0.27548 0.48981 0.0
O157 O 0.40187 0.26358 0.40816 0.0
C158 C 0.45419 0.24084 0.38524 0.0
C159 C 0.35838 0.20723 0.28903 0.0
C160 C 0.36865 0.21269 0.55091 0.0
C161 C 0.36288 0.28835 0.30036 0.0
C162 C 0.47185 0.33053 0.37232 0.0
C163 C 0.38878 0.30248 0.53253 0.0
O164 O 0.45492 0.25931 0.3353 0.0
O165 O 0.34266 0.21519 0.3311 0.0
O166 O 0.39578 0.23782 0.56112 0.0
O167 O 0.38135 0.28084 0.26761 0.0
O168 O 0.47117 0.315 0.42907 0.0
O169 O 0.36471 0.27511 0.52164 0.0
O170 O 0.44908 0.31955 0.3274 0.0
O171 O 0.35683 0.28308 0.36697 0.0
O172 O 0.41716 0.30841 0.52219 0.0
O173 O 0.38838 0.22197 0.28718 0.0
O174 O 0.44483 0.2419 0.44916 0.0
O175 O 0.35369 0.20808 0.49175 0.0
Sc176 Sc 0.72843 0.14322 0.30681 0.0
Sc177 Sc 0.75581 0.10884 0.42635 0.0
Sc178 Sc 0.72529 0.1546 0.4884 0.0
O179 O 0.73715 0.13608 0.40747 0.0
C180 C 0.75695 0.20999 0.37934 0.0
C181 C 0.79322 0.1504 0.28789 0.0
C182 C 0.78957 0.15594 0.54719 0.0
C183 C 0.71314 0.07144 0.30259 0.0
C184 C 0.66793 0.13449 0.37441 0.0
C185 C 0.69943 0.08465 0.53374 0.0
O186 O 0.73752 0.19073 0.33268 0.0
O187 O 0.78573 0.12645 0.32902 0.0
O188 O 0.76441 0.15783 0.55892 0.0
O189 O 0.72051 0.09698 0.26818 0.0
O190 O 0.6842 0.15197 0.42791 0.0
O191 O 0.72697 0.0884 0.52215 0.0
O192 O 0.67953 0.12287 0.33087 0.0
O193 O 0.71767 0.07152 0.36964 0.0
O194 O 0.69333 0.10699 0.52389 0.0
O195 O 0.77698 0.16407 0.28436 0.0
O196 O 0.7576 0.20097 0.44397 0.0
O197 O 0.79336 0.14504 0.48812 0.0
Sc198 Sc 0.49067 0.09971 0.17489 0.0
Sc199 Sc 0.44543 0.02265 0.23205 0.0
Sc200 Sc 0.48115 0.08266 0.35571 0.0
O201 O 0.47264 0.06831 0.25391 0.0
C202 C 0.54692 0.12146 0.28116 0.0
C203 C 0.49203 0.03803 0.1091 0.0
C204 C 0.48734 0.02458 0.36764 0.0
C205 C 0.42059 0.05614 0.12971 0.0
C206 C 0.4716 0.1352 0.29567 0.0
C207 C 0.40896 0.02604 0.36032 0.0
O208 O 0.53722 0.11269 0.21654 0.0
O209 O 0.4815 0.0224 0.16731 0.0
O210 O 0.5022 0.05452 0.37077 0.0
O211 O 0.44278 0.08449 0.14155 0.0
O212 O 0.46084 0.11169 0.3384 0.0
O213 O 0.40839 0.02228 0.29277 0.0
O214 O 0.48829 0.13703 0.23998 0.0
O215 O 0.42448 0.03232 0.13892 0.0
O216 O 0.4349 0.04381 0.39407 0.0
O217 O 0.4936 0.06505 0.10034 0.0
O218 O 0.52846 0.12171 0.32977 0.0
O219 O 0.46324 0.00902 0.32641 0.0
Sc220 Sc 0.9004 0.38965 0.17298 0.0
Sc221 Sc 0.977 0.42062 0.23529 0.0
Sc222 Sc 0.91487 0.39421 0.35504 0.0
O223 O 0.93087 0.40175 0.25401 0.0
C224 C 0.8762 0.42174 0.27972 0.0
C225 C 0.96305 0.45283 0.11055 0.0
C226 C 0.97249 0.4595 0.37017 0.0
C227 C 0.9445 0.36358 0.12698 0.0
C228 C 0.8624 0.33363 0.2905 0.0
C229 C 0.97217 0.37985 0.36356 0.0
O230 O 0.88623 0.42197 0.21582 0.0
O231 O 0.97862 0.45726 0.16866 0.0
O232 O 0.94261 0.44295 0.37441 0.0
O233 O 0.91617 0.3581 0.13629 0.0
O234 O 0.88561 0.34498 0.33437 0.0
O235 O 0.97695 0.38379 0.29647 0.0
O236 O 0.86225 0.34915 0.23437 0.0
O237 O 0.96887 0.3901 0.14306 0.0
O238 O 0.95334 0.38689 0.39604 0.0
O239 O 0.9356 0.428 0.10152 0.0
O240 O 0.87638 0.40313 0.32814 0.0
O241 O 0.98907 0.45198 0.32961 0.0
Sc242 Sc 0.60987 0.50994 0.17952 0.0
Sc243 Sc 0.57897 0.55572 0.23916 0.0
Sc244 Sc 0.60648 0.52167 0.36047 0.0
O245 O 0.59796 0.52875 0.2597 0.0
C246 C 0.57724 0.45455 0.28821 0.0
C247 C 0.54617 0.50889 0.11859 0.0
C248 C 0.54244 0.51631 0.38016 0.0
C249 C 0.63524 0.57927 0.13213 0.0
C250 C 0.6656 0.52685 0.29648 0.0
C251 C 0.62214 0.5938 0.3631 0.0
O252 O 0.57702 0.46363 0.22338 0.0
O253 O 0.54142 0.51892 0.17791 0.0
O254 O 0.55798 0.50189 0.38351 0.0
O255 O 0.64217 0.55767 0.14471 0.0
O256 O 0.65539 0.54072 0.33719 0.0
O257 O 0.61663 0.59368 0.29633 0.0
O258 O 0.64986 0.51104 0.24082 0.0
O259 O 0.60756 0.57523 0.14282 0.0
O260 O 0.61564 0.56842 0.39726 0.0
O261 O 0.5716 0.50743 0.10811 0.0
O262 O 0.5962 0.47372 0.33566 0.0
O263 O 0.54949 0.53924 0.33635 0.0
Sc264 Sc 0.5201 0.91364 0.63922 0.0
Sc265 Sc 0.55869 0.97748 0.75235 0.0
Sc266 Sc 0.51065 0.90262 0.82233 0.0
O267 O 0.52953 0.93137 0.73866 0.0
C268 C 0.45401 0.87705 0.71634 0.0
C269 C 0.51494 0.97201 0.61672 0.0
C270 C 0.51247 0.96761 0.87579 0.0
C271 C 0.5924 0.96832 0.62582 0.0
C272 C 0.52715 0.86177 0.70961 0.0
C273 C 0.58123 0.94561 0.86836 0.0
O274 O 0.47246 0.87636 0.66829 0.0
O275 O 0.53967 0.98863 0.65567 0.0
O276 O 0.50842 0.93979 0.88825 0.0
O277 O 0.56591 0.9503 0.59479 0.0
O278 O 0.512 0.8629 0.76553 0.0
O279 O 0.58095 0.9703 0.84625 0.0
O280 O 0.5393 0.88426 0.66404 0.0
O281 O 0.59396 0.9738 0.69264 0.0
O282 O 0.55754 0.91767 0.86119 0.0
O283 O 0.50019 0.94206 0.6169 0.0
O284 O 0.46427 0.88852 0.77902 0.0
O285 O 0.52519 0.98245 0.81766 0.0
Sc286 Sc 0.08496 0.60332 0.63705 0.0
Sc287 Sc 0.02256 0.58006 0.75362 0.0
Sc288 Sc 0.09801 0.60614 0.81977 0.0
O289 O 0.0684 0.59594 0.73757 0.0
C290 C 0.12223 0.57416 0.71284 0.0
C291 C 0.02554 0.54077 0.61705 0.0
C292 C 0.03296 0.54356 0.87626 0.0
C293 C 0.03127 0.62237 0.6265 0.0
C294 C 0.13672 0.66356 0.7071 0.0
C295 C 0.05621 0.63496 0.86697 0.0
O296 O 0.12228 0.59277 0.66421 0.0
O297 O 0.00993 0.54952 0.65757 0.0
O298 O 0.06122 0.56695 0.88723 0.0
O299 O 0.04833 0.61301 0.59436 0.0
O300 O 0.13712 0.64732 0.76161 0.0
O301 O 0.03096 0.61014 0.84659 0.0
O302 O 0.11482 0.65192 0.66003 0.0
O303 O 0.02675 0.61904 0.69369 0.0
O304 O 0.0838 0.63846 0.85882 0.0
O305 O 0.05555 0.55482 0.61677 0.0
O306 O 0.11161 0.5736 0.77615 0.0
O307 O 0.01745 0.54174 0.81944 0.0
Sc308 Sc 0.39521 0.48022 0.64565 0.0
Sc309 Sc 0.42362 0.44549 0.76228 0.0
Sc310 Sc 0.39137 0.48917 0.82821 0.0
O311 O 0.40391 0.47203 0.74556 0.0
C312 C 0.4223 0.54605 0.72285 0.0
C313 C 0.46053 0.48855 0.62556 0.0
C314 C 0.45631 0.49175 0.88525 0.0
C315 C 0.3814 0.40889 0.63607 0.0
C316 C 0.33411 0.46934 0.71488 0.0
C317 C 0.36717 0.41924 0.87009 0.0
O318 O 0.40378 0.52729 0.67422 0.0
O319 O 0.45357 0.46463 0.66621 0.0
O320 O 0.43069 0.49263 0.89788 0.0
O321 O 0.38756 0.43462 0.60408 0.0
O322 O 0.35006 0.48639 0.76909 0.0
O323 O 0.39481 0.42349 0.8573 0.0
O324 O 0.34623 0.45897 0.66948 0.0
O325 O 0.38662 0.40814 0.70268 0.0
O326 O 0.36029 0.44107 0.86114 0.0
O327 O 0.44386 0.50177 0.62275 0.0
O328 O 0.42287 0.53616 0.78654 0.0
O329 O 0.46051 0.48162 0.82554 0.0
Sc330 Sc 0.15963 0.4336 0.50397 0.0
Sc331 Sc 0.1129 0.35689 0.55929 0.0
Sc332 Sc 0.14712 0.41617 0.68458 0.0
O333 O 0.1406 0.40216 0.58227 0.0
C334 C 0.21389 0.45482 0.61471 0.0
C335 C 0.16033 0.37131 0.4397 0.0
C336 C 0.15324 0.35817 0.69825 0.0
C337 C 0.09004 0.39105 0.45432 0.0
C338 C 0.14097 0.46987 0.62372 0.0
C339 C 0.07571 0.35853 0.6837 0.0
O340 O 0.20528 0.44575 0.54964 0.0
O341 O 0.14905 0.35549 0.49743 0.0
O342 O 0.16802 0.38809 0.70275 0.0
O343 O 0.11228 0.41925 0.46743 0.0
O344 O 0.1272 0.44541 0.66367 0.0
O345 O 0.07639 0.35925 0.61585 0.0
O346 O 0.15757 0.47102 0.5685 0.0
O347 O 0.09371 0.36712 0.46385 0.0
O348 O 0.10073 0.37627 0.72033 0.0
O349 O 0.16254 0.39861 0.43076 0.0
O350 O 0.1947 0.45536 0.66095 0.0
O351 O 0.12949 0.34284 0.65583 0.0
Sc352 Sc 0.56831 0.72396 0.51762 0.0
Sc353 Sc 0.64426 0.75415 0.58151 0.0
Sc354 Sc 0.58178 0.72634 0.69968 0.0
O355 O 0.5982 0.73531 0.59946 0.0
C356 C 0.54427 0.75558 0.62586 0.0
C357 C 0.63151 0.788 0.46073 0.0
C358 C 0.63974 0.7909 0.7204 0.0
C359 C 0.61262 0.69881 0.47047 0.0
C360 C 0.52874 0.66774 0.63302 0.0
C361 C 0.63804 0.71058 0.70472 0.0
O362 O 0.55439 0.75634 0.56162 0.0
O363 O 0.64568 0.79192 0.52064 0.0
O364 O 0.60981 0.77467 0.72386 0.0
O365 O 0.58404 0.69202 0.4822 0.0
O366 O 0.55259 0.67768 0.67453 0.0
O367 O 0.64338 0.71587 0.63801 0.0
O368 O 0.52903 0.68366 0.5773 0.0
O369 O 0.63639 0.72601 0.48467 0.0
O370 O 0.6195 0.7176 0.73863 0.0
O371 O 0.60472 0.76276 0.44802 0.0
O372 O 0.54396 0.73628 0.67309 0.0
O373 O 0.65624 0.78352 0.67925 0.0
Sc374 Sc 0.27563 0.84071 0.50897 0.0
Sc375 Sc 0.24641 0.8875 0.56748 0.0
Sc376 Sc 0.27094 0.85195 0.6905 0.0
O377 O 0.26325 0.85902 0.58863 0.0
C378 C 0.24244 0.78559 0.61757 0.0
C379 C 0.21242 0.84099 0.44744 0.0
C380 C 0.20774 0.84744 0.7075 0.0
C381 C 0.3024 0.91009 0.45979 0.0
C382 C 0.33064 0.85796 0.62793 0.0
C383 C 0.2865 0.92369 0.69102 0.0
O384 O 0.24229 0.79487 0.553 0.0
O385 O 0.20812 0.85207 0.50579 0.0
O386 O 0.22202 0.83174 0.70992 0.0
O387 O 0.3087 0.88816 0.47357 0.0
O388 O 0.32001 0.87143 0.66886 0.0
O389 O 0.28649 0.92293 0.62319 0.0
O390 O 0.31522 0.84201 0.57202 0.0
O391 O 0.27494 0.90656 0.47077 0.0
O392 O 0.27845 0.8985 0.72756 0.0
O393 O 0.23739 0.83854 0.43759 0.0
O394 O 0.26169 0.80424 0.66531 0.0
O395 O 0.21649 0.87133 0.66537 0.0
C396 C 0.18354 0.11311 0.02251 0.0
C397 C 0.20797 0.11742 0.97477 0.0
C398 C 0.18111 0.13922 0.04744 0.0
C399 C 0.20342 0.17045 0.02641 0.0
H400 H 0.1658 0.0894 0.03925 0.0
H401 H 0.16112 0.13482 0.08128 0.0
S402 S 0.27553 0.19452 0.9144 0.0
N403 N 0.25704 0.15536 0.91518 0.0
N404 N 0.2532 0.20418 0.96318 0.0
C405 C 0.2291 0.17498 0.98253 0.0
C406 C 0.23118 0.14855 0.95636 0.0
C407 C 0.83629 0.03682 0.95556 0.0
C408 C 0.83372 0.0266 0.02787 0.0
C409 C 0.86198 0.06554 0.93194 0.0
C410 C 0.88636 0.08567 0.97953 0.0
H411 H 0.81807 0.02261 0.91639 0.0
H412 H 0.86209 0.07236 0.87615 0.0
S413 S 0.89197 0.06926 0.17393 0.0
N414 N 0.85854 0.03817 0.14632 0.0
N415 N 0.90697 0.09248 0.10252 0.0
C416 C 0.88473 0.07529 0.05169 0.0
C417 C 0.85845 0.04574 0.07565 0.0
C418 C 0.93339 0.79504 0.92479 0.0
C419 C 0.9125 0.79695 0.97438 0.0
C420 C 0.96257 0.79865 0.94696 0.0
C421 C 0.97246 0.80452 0.01979 0.0
H422 H 0.92687 0.78977 0.8684 0.0
H423 H 0.97739 0.79648 0.90623 0.0
S424 S 0.92763 0.81336 0.17134 0.0
N425 N 0.90453 0.80644 0.10018 0.0
N426 N 0.95963 0.81339 0.14116 0.0
C427 C 0.9525 0.80772 0.06975 0.0
C428 C 0.92252 0.80389 0.04727 0.0
C429 C 0.80132 0.83654 0.05047 0.0
C430 C 0.80623 0.83265 0.9769 0.0
C431 C 0.79816 0.86209 0.07442 0.0
C432 C 0.7996 0.88505 0.02599 0.0
H433 H 0.79941 0.81936 0.09039 0.0
H434 H 0.7935 0.86316 0.1313 0.0
S435 S 0.81419 0.88707 0.82791 0.0
N436 N 0.8142 0.85486 0.85619 0.0
N437 N 0.80809 0.90305 0.90049 0.0
C438 C 0.80587 0.88225 0.9524 0.0
C439 C 0.80925 0.85608 0.92808 0.0
C440 C 0.13919 0.95905 0.95091 0.0
C441 C 0.17059 0.96869 0.97219 0.0
C442 C 0.11339 0.93032 0.97618 0.0
C443 C 0.11814 0.91069 0.02455 0.0
H444 H 0.13442 0.97419 0.91643 0.0
H445 H 0.08955 0.92376 0.95902 0.0
S446 S 0.19588 0.92225 0.0865 0.0
N447 N 0.205 0.95388 0.03684 0.0
N448 N 0.15671 0.90088 0.08544 0.0
C449 C 0.14944 0.91936 0.04346 0.0
C450 C 0.17559 0.94807 0.01694 0.0
C451 C 0.08008 0.19722 0.95231 0.0
C452 C 0.08879 0.20001 0.0261 0.0
C453 C 0.05038 0.19291 0.93058 0.0
C454 C 0.02837 0.1915 0.98175 0.0
H455 H 0.09681 0.19974 0.91057 0.0
H456 H 0.04524 0.19212 0.87338 0.0
S457 S 0.03722 0.19261 0.18156 0.0
N458 N 0.07116 0.19745 0.15015 0.0
N459 N 0.01573 0.18949 0.10966 0.0
C460 C 0.03601 0.19239 0.05564 0.0
C461 C 0.06606 0.19661 0.07771 0.0
C462 C 0.86035 0.47677 0.39774 0.0
C463 C 0.86149 0.4991 0.34784 0.0
C464 C 0.86351 0.45086 0.37493 0.0
C465 C 0.86751 0.44603 0.30117 0.0
H466 H 0.85834 0.48002 0.45502 0.0
H467 H 0.86405 0.43524 0.41595 0.0
S468 S 0.86658 0.49491 0.14786 0.0
N469 N 0.8631 0.51259 0.22048 0.0
N470 N 0.86876 0.46412 0.17798 0.0
C471 C 0.86658 0.46713 0.25051 0.0
C472 C 0.86364 0.49355 0.27371 0.0
C473 C 0.53194 0.40021 0.25959 0.0
C474 C 0.55315 0.42165 0.31095 0.0
C475 C 0.5063 0.37078 0.28029 0.0
C476 C 0.50062 0.36122 0.35335 0.0
H477 H 0.53455 0.40647 0.20281 0.0
H478 H 0.49053 0.35551 0.23827 0.0
S479 S 0.54936 0.40778 0.50965 0.0
N480 N 0.56705 0.43063 0.43898 0.0
N481 N 0.51883 0.37514 0.47713 0.0
C482 C 0.52212 0.38181 0.40526 0.0
C483 C 0.54832 0.412 0.3843 0.0
C484 C 0.59724 0.14841 0.35573 0.0
C485 C 0.57806 0.12549 0.30399 0.0
C486 C 0.62586 0.15079 0.38048 0.0
C487 C 0.63594 0.12987 0.35549 0.0
H488 H 0.59027 0.16486 0.37649 0.0
H489 H 0.64043 0.16951 0.41823 0.0
S490 S 0.59106 0.06217 0.22921 0.0
N491 N 0.56944 0.07959 0.23441 0.0
N492 N 0.62207 0.08309 0.28191 0.0
C493 C 0.6159 0.10582 0.30649 0.0
C494 C 0.58732 0.10389 0.28047 0.0
C495 C 0.48435 0.19233 0.28525 0.0
C496 C 0.46649 0.162 0.3167 0.0
C497 C 0.48094 0.21806 0.30863 0.0
C498 C 0.45997 0.21457 0.36518 0.0
H499 H 0.50128 0.19635 0.24271 0.0
H500 H 0.49489 0.24087 0.28237 0.0
S501 S 0.40527 0.13964 0.46075 0.0
N502 N 0.42503 0.12974 0.40401 0.0
N503 N 0.41951 0.17799 0.44837 0.0
C504 C 0.44167 0.18435 0.39625 0.0
C505 C 0.44467 0.15814 0.37188 0.0
C506 C 0.80462 0.26316 0.40518 0.0
C507 C 0.78125 0.24276 0.3559 0.0
C508 C 0.83029 0.29233 0.38318 0.0
C509 C 0.83391 0.30277 0.3108 0.0
H510 H 0.80368 0.25628 0.46122 0.0
H511 H 0.84762 0.30673 0.42377 0.0
S512 S 0.77893 0.25914 0.16 0.0
N513 N 0.76307 0.23569 0.23074 0.0
N514 N 0.8113 0.29075 0.19008 0.0
C515 C 0.8103 0.28319 0.26112 0.0
C516 C 0.78407 0.25321 0.28342 0.0
C517 C 0.71608 0.52586 0.26942 0.0
C518 C 0.69512 0.52714 0.31979 0.0
C519 C 0.74535 0.52917 0.29154 0.0
C520 C 0.75467 0.53353 0.36504 0.0
H521 H 0.71045 0.5236 0.21231 0.0
H522 H 0.76128 0.52955 0.25012 0.0
S523 S 0.7057 0.53328 0.51944 0.0
N524 N 0.68403 0.52936 0.44737 0.0
N525 N 0.73855 0.53536 0.48856 0.0
C526 C 0.73289 0.53278 0.4162 0.0
C527 C 0.70331 0.52966 0.3937 0.0
C528 C 0.53756 0.80218 0.59764 0.0
C529 C 0.53549 0.77969 0.64828 0.0
C530 C 0.53422 0.82799 0.61842 0.0
C531 C 0.52851 0.83267 0.69094 0.0
H532 H 0.54277 0.8005 0.54142 0.0
H533 H 0.53655 0.84469 0.57676 0.0
S534 S 0.5189 0.77974 0.84478 0.0
N535 N 0.52576 0.76303 0.77465 0.0
N536 N 0.51926 0.81167 0.81308 0.0
C537 C 0.525 0.80975 0.74194 0.0
C538 C 0.52857 0.78331 0.72083 0.0
C539 C 0.19493 0.70558 0.71277 0.0
C540 C 0.16352 0.69605 0.69182 0.0
C541 C 0.22069 0.73461 0.68857 0.0
C542 C 0.21584 0.75462 0.64159 0.0
H543 H 0.19975 0.69015 0.7461 0.0
H544 H 0.24456 0.74112 0.70539 0.0
S545 S 0.13806 0.7433 0.58101 0.0
N546 N 0.12901 0.71126 0.62904 0.0
N547 N 0.17722 0.7648 0.58237 0.0
C548 C 0.18453 0.74602 0.6231 0.0
C549 C 0.15845 0.71703 0.64857 0.0
C550 C 0.26407 0.48339 0.68888 0.0
C551 C 0.24441 0.4587 0.64119 0.0
C552 C 0.29255 0.48617 0.71581 0.0
C553 C 0.30187 0.46394 0.69703 0.0
H554 H 0.25773 0.501 0.70419 0.0
H555 H 0.30777 0.50634 0.74955 0.0
S556 S 0.25518 0.39148 0.58538 0.0
N557 N 0.23421 0.40967 0.58359 0.0
N558 N 0.2867 0.41409 0.63536 0.0
C559 C 0.28118 0.43805 0.65304 0.0
C560 C 0.25275 0.43565 0.62479 0.0
C561 C 0.13585 0.54549 0.6187 0.0
C562 C 0.13167 0.55038 0.69227 0.0
C563 C 0.13992 0.52008 0.59663 0.0
C564 C 0.13969 0.49841 0.64719 0.0
H565 H 0.13476 0.56066 0.57725 0.0
H566 H 0.14201 0.51668 0.53946 0.0
S567 S 0.13428 0.50297 0.84686 0.0
N568 N 0.131 0.53304 0.81597 0.0
N569 N 0.13847 0.48547 0.77474 0.0
C570 C 0.13726 0.50399 0.7211 0.0
C571 C 0.13333 0.52989 0.74356 0.0
C572 C 0.47776 0.617 0.6054 0.0
C573 C 0.49926 0.63855 0.65601 0.0
C574 C 0.45184 0.5878 0.62772 0.0
C575 C 0.44624 0.5792 0.7016 0.0
H576 H 0.48178 0.62207 0.54812 0.0
H577 H 0.43694 0.57132 0.58632 0.0
S578 S 0.49254 0.63009 0.85604 0.0
N579 N 0.51096 0.65114 0.78371 0.0
N580 N 0.46248 0.59669 0.82529 0.0
C581 C 0.46639 0.60162 0.75275 0.0
C582 C 0.49279 0.63114 0.73008 0.0
C583 C 0.41168 0.86348 0.62207 0.0
C584 C 0.4207 0.86734 0.6957 0.0
C585 C 0.38205 0.85925 0.60016 0.0
C586 C 0.36046 0.859 0.65095 0.0
H587 H 0.42811 0.86505 0.58053 0.0
H588 H 0.37663 0.85752 0.54297 0.0
S589 S 0.37023 0.86317 0.85073 0.0
N590 N 0.40381 0.86702 0.81957 0.0
N591 N 0.34851 0.85922 0.77871 0.0
C592 C 0.3684 0.86099 0.72487 0.0
C593 C 0.39837 0.86511 0.74714 0.0
C594 C 0.1977 0.34613 0.84937 0.0
C595 C 0.1735 0.32006 0.8863 0.0
C596 C 0.1912 0.35681 0.78509 0.0
C597 C 0.16025 0.34193 0.75591 0.0
H598 H 0.22197 0.3578 0.86904 0.0
H599 H 0.21047 0.37732 0.75863 0.0
S600 S 0.08827 0.27364 0.83445 0.0
N601 N 0.11728 0.27997 0.89068 0.0
N602 N 0.10504 0.30049 0.76998 0.0
C603 C 0.13582 0.31586 0.79241 0.0
C604 C 0.14243 0.30496 0.85787 0.0
C605 C 0.69319 0.83543 0.87551 0.0
C606 C 0.6776 0.85041 0.9065 0.0
C607 C 0.68207 0.81787 0.81192 0.0
C608 C 0.65491 0.81463 0.77745 0.0
H609 H 0.71443 0.8376 0.90028 0.0
H610 H 0.6942 0.80595 0.79111 0.0
S611 S 0.60698 0.85123 0.83323 0.0
N612 N 0.63475 0.86232 0.8959 0.0
N613 N 0.61352 0.82903 0.77615 0.0
C614 C 0.63939 0.82994 0.80707 0.0
C615 C 0.65068 0.84773 0.87197 0.0
C616 C 0.1686 0.8104 0.79625 0.0
C617 C 0.18531 0.84124 0.76678 0.0
C618 C 0.15146 0.80439 0.86054 0.0
C619 C 0.15041 0.82903 0.89741 0.0
H620 H 0.16905 0.79077 0.76968 0.0
H621 H 0.13811 0.78015 0.88001 0.0
S622 S 0.19159 0.91424 0.84561 0.0
N623 N 0.20087 0.89686 0.78108 0.0
N624 N 0.16832 0.88556 0.90184 0.0
C625 C 0.16729 0.86004 0.86907 0.0
C626 C 0.18468 0.86613 0.80352 0.0
C627 C 0.85309 0.69415 0.14371 0.0
C628 C 0.82423 0.67667 0.10565 0.0
C629 C 0.85895 0.68248 0.2071 0.0
C630 C 0.83625 0.65283 0.23447 0.0
H631 H 0.87138 0.7172 0.12453 0.0
H632 H 0.8819 0.69625 0.23307 0.0
S633 S 0.75667 0.59788 0.15622 0.0
N634 N 0.77258 0.62844 0.10037 0.0
N635 N 0.78339 0.60638 0.2203 0.0
C636 C 0.80706 0.63523 0.1976 0.0
C637 C 0.8012 0.64705 0.13268 0.0
C638 C 0.34788 0.15352 0.13282 0.0
C639 C 0.32045 0.14995 0.09911 0.0
C640 C 0.35873 0.17046 0.19723 0.0
C641 C 0.34266 0.18462 0.22991 0.0
H642 H 0.36045 0.14224 0.11085 0.0
H643 H 0.38016 0.1728 0.22129 0.0
S644 S 0.27037 0.18335 0.16074 0.0
N645 N 0.27791 0.16273 0.10118 0.0
N646 N 0.2984 0.19459 0.22282 0.0
C647 C 0.31529 0.18141 0.19651 0.0
C648 C 0.30433 0.1643 0.13063 0.0
C649 C 0.82028 0.13542 0.19571 0.0
C650 C 0.81705 0.15915 0.23085 0.0
C651 C 0.83781 0.14213 0.13189 0.0
C652 C 0.85278 0.1728 0.10121 0.0
H653 H 0.80836 0.1113 0.21617 0.0
H654 H 0.83999 0.12318 0.10675 0.0
S655 S 0.85286 0.24363 0.17548 0.0
N656 N 0.83109 0.21476 0.23272 0.0
N657 N 0.864 0.22725 0.11237 0.0
C658 C 0.84986 0.19677 0.13622 0.0
C659 C 0.8322 0.19002 0.20144 0.0
C660 C 0.53025 0.01444 0.52519 0.0
C661 C 0.50654 0.98653 0.55752 0.0
C662 C 0.52439 0.02525 0.46037 0.0
C663 C 0.49452 0.0087 0.42596 0.0
H664 H 0.55376 0.02759 0.54887 0.0
H665 H 0.54331 0.04715 0.43764 0.0
S666 S 0.42418 0.93457 0.48996 0.0
N667 N 0.45176 0.94276 0.55167 0.0
N668 N 0.44101 0.96304 0.429 0.0
C669 C 0.47063 0.98064 0.45752 0.0
C670 C 0.47649 0.96976 0.52387 0.0
C671 C 0.02657 0.505 0.52331 0.0
C672 C 0.00997 0.5183 0.5575 0.0
C673 C 0.01566 0.48806 0.45895 0.0
C674 C 0.98757 0.4835 0.42687 0.0
H675 H 0.04845 0.50796 0.54614 0.0
H676 H 0.0287 0.47751 0.43583 0.0
S677 S 0.93586 0.51436 0.4925 0.0
N678 N 0.96443 0.52636 0.55338 0.0
N679 N 0.94387 0.49455 0.43167 0.0
C680 C 0.97093 0.49704 0.45968 0.0
C681 C 0.98197 0.51417 0.52553 0.0
C682 C 0.48961 0.47403 0.53826 0.0
C683 C 0.48417 0.49735 0.56809 0.0
C684 C 0.50693 0.47989 0.47456 0.0
C685 C 0.51969 0.50938 0.4389 0.0
H686 H 0.47952 0.45072 0.56273 0.0
H687 H 0.51062 0.46119 0.45345 0.0
S688 S 0.51398 0.57912 0.4984 0.0
N689 N 0.49408 0.5516 0.55988 0.0
N690 N 0.52676 0.56256 0.43951 0.0
C691 C 0.51477 0.53308 0.46865 0.0
C692 C 0.49721 0.52716 0.53377 0.0
C693 C 0.29372 0.27052 0.18218 0.0
C694 C 0.2812 0.28773 0.21636 0.0
C695 C 0.32312 0.2742 0.20297 0.0
C696 C 0.34053 0.29466 0.25986 0.0
H697 H 0.28029 0.25346 0.14023 0.0
H698 H 0.33088 0.25897 0.17862 0.0
S699 S 0.32027 0.34835 0.35946 0.0
N700 N 0.29027 0.32896 0.30288 0.0
N701 N 0.34504 0.33499 0.34432 0.0
C702 C 0.32943 0.31382 0.29043 0.0
C703 C 0.29981 0.31052 0.26822 0.0
C704 C 0.73244 0.04649 0.21564 0.0
C705 C 0.70902 0.04303 0.2651 0.0
C706 C 0.73723 0.02099 0.20029 0.0
C707 C 0.7184 0.99108 0.23292 0.0
H708 H 0.74885 0.06961 0.19323 0.0
H709 H 0.75624 0.02491 0.16354 0.0
S710 S 0.65162 0.96911 0.36008 0.0
N711 N 0.66533 0.0071 0.34264 0.0
N712 N 0.67357 0.95876 0.31165 0.0
C713 C 0.69336 0.98673 0.27822 0.0
C714 C 0.68882 0.01281 0.29471 0.0
C715 C 0.95002 0.68236 0.21243 0.0
C716 C 0.9538 0.66252 0.26167 0.0
C717 C 0.97579 0.71207 0.19383 0.0
C718 C 0.00629 0.7227 0.2229 0.0
H719 H 0.92656 0.67605 0.1927 0.0
H720 H 0.97165 0.72709 0.15736 0.0
S721 S 0.02899 0.67815 0.34904 0.0
N722 N 0.99044 0.65456 0.33611 0.0
N723 N 0.03927 0.70993 0.29868 0.0
C724 C 0.0108 0.70213 0.26829 0.0
C725 C 0.98443 0.67214 0.28826 0.0
C726 C 0.71245 0.73452 0.80714 0.0
C727 C 0.72292 0.71484 0.77651 0.0
C728 C 0.6823 0.73006 0.79141 0.0
C729 C 0.66189 0.70617 0.7434 0.0
H730 H 0.72792 0.75392 0.84254 0.0
H731 H 0.67605 0.74706 0.81212 0.0
S732 S 0.6766 0.64643 0.65461 0.0
N733 N 0.70924 0.6686 0.70193 0.0
N734 N 0.65296 0.66113 0.66975 0.0
C735 C 0.67126 0.68516 0.71595 0.0
C736 C 0.70172 0.6893 0.73305 0.0
C737 C 0.30425 0.97003 0.77484 0.0
C738 C 0.28331 0.94978 0.72183 0.0
C739 C 0.30312 0.99714 0.79656 0.0
C740 C 0.28075 0.00437 0.76646 0.0
H741 H 0.32192 0.96531 0.79825 0.0
H742 H 0.31941 0.01217 0.83817 0.0
S743 S 0.22045 0.95819 0.62685 0.0
N744 N 0.2396 0.93859 0.64003 0.0
N745 N 0.23715 0.98889 0.68211 0.0
C746 C 0.25952 0.98397 0.71426 0.0
C747 C 0.2609 0.95683 0.69163 0.0
C748 C 0.00255 0.3011 0.7898 0.0
C749 C 0.99612 0.27151 0.76151 0.0
C750 C 0.02928 0.32954 0.76725 0.0
C751 C 0.0499 0.32909 0.71496 0.0
H752 H 0.98716 0.30223 0.83062 0.0
H753 H 0.03339 0.35189 0.7894 0.0
S754 S 0.0434 0.25794 0.62402 0.0
N755 N 0.01272 0.24362 0.67956 0.0
N756 N 0.06213 0.29681 0.63517 0.0
C757 C 0.04359 0.29964 0.68629 0.0
C758 C 0.0169 0.27088 0.7101 0.0
C759 C 0.95932 0.60102 0.51556 0.0
C760 C 0.94727 0.61871 0.54955 0.0
C761 C 0.98938 0.60561 0.53327 0.0
C762 C 0.00801 0.62755 0.58673 0.0
H763 H 0.94506 0.58296 0.47617 0.0
H764 H 0.99682 0.59001 0.50951 0.0
S765 S 0.98941 0.68309 0.68337 0.0
N766 N 0.95802 0.66193 0.6316 0.0
N767 N 0.01417 0.66986 0.66687 0.0
C768 C 0.99738 0.64724 0.61647 0.0
C769 C 0.96701 0.64291 0.59759 0.0
C770 C 0.3614 0.32487 0.60523 0.0
C771 C 0.38343 0.32876 0.55155 0.0
C772 C 0.3581 0.35062 0.62727 0.0
C773 C 0.37616 0.38077 0.59505 0.0
H774 H 0.34798 0.30235 0.63304 0.0
H775 H 0.34287 0.34747 0.67304 0.0
S776 S 0.43208 0.40097 0.44153 0.0
N777 N 0.42005 0.36335 0.4593 0.0
N778 N 0.41343 0.41167 0.49987 0.0
C779 C 0.39584 0.38397 0.53632 0.0
C780 C 0.3997 0.35797 0.51498 0.0
C781 C 0.64202 0.04367 0.52637 0.0
C782 C 0.67286 0.05254 0.55077 0.0
C783 C 0.61604 0.01376 0.54236 0.0
C784 C 0.61989 0.99191 0.58448 0.0
H785 H 0.63775 0.0602 0.49583 0.0
H786 H 0.59247 0.00877 0.52683 0.0
S787 S 0.69592 0.00144 0.65261 0.0
N788 N 0.70621 0.03533 0.61111 0.0
N789 N 0.65691 0.97956 0.64408 0.0
C790 C 0.65076 0.99954 0.60495 0.0
C791 C 0.67738 0.02977 0.58745 0.0
C792 C 0.34831 0.06654 0.12402 0.0
C793 C 0.32758 0.04208 0.07757 0.0
C794 C 0.37838 0.07082 0.14047 0.0
C795 C 0.3885 0.05047 0.11194 0.0
H796 H 0.34237 0.08402 0.14295 0.0
H797 H 0.39406 0.09062 0.17466 0.0
S798 S 0.34116 0.98048 0.99478 0.0
N799 N 0.3179 0.99574 0.00809 0.0
N800 N 0.37404 0.0031 0.0409 0.0
C801 C 0.36694 0.02445 0.07007 0.0
C802 C 0.33654 0.02039 0.05255 0.0
C803 C 0.92609 0.2851 0.04578 0.0
C804 C 0.95325 0.283 0.06187 0.0
C805 C 0.92376 0.31144 0.06604 0.0
C806 C 0.94898 0.33729 0.10143 0.0
H807 H 0.90669 0.26649 0.01529 0.0
H808 H 0.90211 0.31163 0.05293 0.0
S809 S 0.0265 0.34434 0.15111 0.0
N810 N 0.00645 0.30914 0.11215 0.0
N811 N 0.00267 0.35945 0.15035 0.0
C812 C 0.97672 0.33579 0.11681 0.0
C813 C 0.97876 0.30847 0.0969 0.0
C814 C 0.68233 0.65517 0.0267 0.0
C815 C 0.71135 0.67065 0.06499 0.0
C816 C 0.65727 0.62587 0.04971 0.0
C817 C 0.66064 0.61097 0.1111 0.0
H818 H 0.67971 0.66481 0.97597 0.0
H819 H 0.63582 0.6141 0.01736 0.0
S820 S 0.72811 0.64474 0.24007 0.0
N821 N 0.73949 0.67131 0.1745 0.0
N822 N 0.69231 0.6159 0.21719 0.0
C823 C 0.68814 0.62738 0.15363 0.0
C824 C 0.7135 0.65747 0.1309 0.0
C825 C 0.60894 0.92466 0.94346 0.0
C826 C 0.61078 0.94906 0.89953 0.0
C827 C 0.63636 0.92567 0.96928 0.0
C828 C 0.66673 0.95081 0.95141 0.0
H829 H 0.58613 0.90457 0.95827 0.0
H830 H 0.63377 0.90655 0.00403 0.0
S831 S 0.68501 0.02052 0.83807 0.0
N832 N 0.64575 0.99928 0.83873 0.0
N833 N 0.69753 0.00071 0.88793 0.0
C834 C 0.66924 0.9753 0.9073 0.0
C835 C 0.64116 0.97457 0.88136 0.0
C836 C 0.0297 0.66785 0.86847 0.0
C837 C 0.05383 0.66218 0.89412 0.0
C838 C 0.02887 0.6953 0.88855 0.0
C839 C 0.05207 0.71768 0.93494 0.0
H840 H 0.0116 0.65119 0.83194 0.0
H841 H 0.00958 0.69856 0.86951 0.0
S842 S 0.1198 0.71378 0.01753 0.0
N843 N 0.10126 0.6813 0.96812 0.0
N844 N 0.0995 0.73235 0.00648 0.0
C845 C 0.07629 0.71228 0.96044 0.0
C846 C 0.07723 0.68466 0.9399 0.0
C847 C 0.28569 0.34591 0.87016 0.0
C848 C 0.2889 0.32636 0.92123 0.0
C849 C 0.31142 0.3759 0.85367 0.0
C850 C 0.34128 0.38696 0.88661 0.0
H851 H 0.26256 0.33931 0.84785 0.0
H852 H 0.30766 0.39089 0.81627 0.0
S853 S 0.36286 0.3426 0.01581 0.0
N854 N 0.32467 0.31856 -0.00071 0.0
N855 N 0.37352 0.37458 0.96588 0.0
C856 C 0.34552 0.36643 0.93258 0.0
C857 C 0.31917 0.33613 0.95035 0.0
C858 C 0.01857 0.4028 0.4448 0.0
C859 C 0.99675 0.37687 0.40319 0.0
C860 C 0.04878 0.40724 0.46036 0.0
C861 C 0.05802 0.38561 0.43588 0.0
H862 H 0.01321 0.42103 0.46076 0.0
H863 H 0.06515 0.42806 0.49102 0.0
S864 S 0.00759 0.3116 0.33286 0.0
N865 N 0.98517 0.32806 0.34237 0.0
N866 N 0.04146 0.33552 0.37423 0.0
C867 C 0.03547 0.35836 0.39862 0.0
C868 C 0.00495 0.35421 0.38169 0.0
C869 C 0.60201 0.64347 0.4811 0.0
C870 C 0.61865 0.67336 0.44739 0.0
C871 C 0.60642 0.61835 0.45955 0.0
C872 C 0.62705 0.62216 0.40238 0.0
H873 H 0.58502 0.63933 0.52364 0.0
H874 H 0.59175 0.59523 0.48397 0.0
S875 S 0.67893 0.69669 0.30256 0.0
N876 N 0.65919 0.70642 0.3601 0.0
N877 N 0.66647 0.65872 0.31712 0.0
C878 C 0.64534 0.65249 0.37152 0.0
C879 C 0.64135 0.67824 0.39456 0.0
C880 C 0.38383 0.98386 0.45327 0.0
C881 C 0.38043 0.00199 0.39863 0.0
C882 C 0.35835 0.95402 0.47237 0.0
C883 C 0.32848 0.94171 0.43866 0.0
H884 H 0.40687 0.99167 0.47762 0.0
H885 H 0.36216 0.94027 0.51318 0.0
S886 S 0.30619 0.98208 0.29997 0.0
N887 N 0.34423 0.00701 0.31599 0.0
N888 N 0.296 0.9514 0.35402 0.0
C889 C 0.32406 0.96076 0.38838 0.0
C890 C 0.35012 0.99085 0.36799 0.0
C891 C 0.17167 0.30933 0.33735 0.0
C892 C 0.17172 0.31729 0.26419 0.0
C893 C 0.16917 0.3276 0.3932 0.0
C894 C 0.16661 0.35481 0.37885 0.0
H895 H 0.17414 0.28909 0.35192 0.0
H896 H 0.16913 0.32015 0.44841 0.0
S897 S 0.16409 0.38531 0.19642 0.0
N898 N 0.168 0.35404 0.18049 0.0
N899 N 0.16336 0.38811 0.28522 0.0
C900 C 0.1665 0.363 0.30595 0.0
C901 C 0.16894 0.34433 0.24892 0.0
C902 C 0.66094 0.82355 0.27258 0.0
C903 C 0.68825 0.85329 0.28682 0.0
C904 C 0.64208 0.80315 0.32859 0.0
C905 C 0.64952 0.81147 0.40176 0.0
H906 H 0.65388 0.81587 0.21735 0.0
H907 H 0.62185 0.78039 0.31421 0.0
S908 S 0.71736 0.8874 0.46916 0.0
N909 N 0.72094 0.89033 0.38039 0.0
N910 N 0.68576 0.85243 0.4852 0.0
C911 C 0.67657 0.84134 0.41685 0.0
C912 C 0.69585 0.86202 0.35975 0.0
C913 C 0.1387 0.82979 0.34603 0.0
C914 C 0.14696 0.83097 0.27274 0.0
C915 C 0.15955 0.83198 0.40164 0.0
C916 C 0.18967 0.83537 0.38679 0.0
H917 H 0.11564 0.82644 0.36077 0.0
H918 H 0.15189 0.83099 0.45703 0.0
S919 S 0.22387 0.84197 0.2039 0.0
N920 N 0.18831 0.83734 0.1885 0.0
N921 N 0.22708 0.84125 0.29261 0.0
C922 C 0.19838 0.83695 0.31374 0.0
C923 C 0.17724 0.83489 0.25707 0.0
C924 C 0.83483 0.67284 0.59855 0.0
C925 C 0.83721 0.64553 0.61333 0.0
C926 C 0.83233 0.69129 0.65405 0.0
C927 C 0.83205 0.68343 0.72734 0.0
H928 H 0.83494 0.68021 0.54324 0.0
H929 H 0.82993 0.71154 0.63909 0.0
S930 S 0.8392 0.6153 0.79646 0.0
N931 N 0.84011 0.61234 0.70774 0.0
N932 N 0.83548 0.64673 0.8117 0.0
C933 C 0.83476 0.65637 0.74309 0.0
C934 C 0.83723 0.63753 0.68644 0.0
C935 C 0.30661 0.1387 0.65275 0.0
C936 C 0.31532 0.14593 0.72582 0.0
C937 C 0.3244 0.16002 0.59701 0.0
C938 C 0.35183 0.18966 0.61144 0.0
H939 H 0.28628 0.11605 0.63815 0.0
H940 H 0.31652 0.15305 0.54185 0.0
S941 S 0.38363 0.22121 0.79414 0.0
N942 N 0.35255 0.18582 0.8097 0.0
N943 N 0.38576 0.22549 0.70546 0.0
C944 C 0.36052 0.19738 0.68441 0.0
C945 C 0.34235 0.17573 0.74122 0.0
C946 C 0.80635 0.16449 0.67903 0.0
C947 C 0.81348 0.16239 0.60616 0.0
C948 C 0.82722 0.16726 0.73535 0.0
C949 C 0.85621 0.16788 0.72184 0.0
H950 H 0.7842 0.16346 0.69302 0.0
H951 H 0.82047 0.16895 0.79024 0.0
S952 S 0.88727 0.16495 0.5404 0.0
N953 N 0.85273 0.16249 0.52376 0.0
N954 N 0.89128 0.16732 0.62909 0.0
C955 C 0.86375 0.16604 0.64923 0.0
C956 C 0.84268 0.16348 0.5918 0.0
C957 C 0.49945 0.99345 0.06203 0.0
C958 C 0.4988 0.02175 0.04827 0.0
C959 C 0.50277 0.97565 0.00621 0.0
C960 C 0.50574 0.98522 0.9335 0.0
H961 H 0.49725 0.98468 0.11678 0.0
H962 H 0.50357 0.95447 0.02058 0.0
S963 S 0.50447 0.05687 0.86683 0.0
N964 N 0.50075 0.05798 0.95529 0.0
N965 N 0.50709 0.02488 0.85064 0.0
C966 C 0.50501 0.01344 0.91869 0.0
C967 C 0.50161 0.03158 0.97574 0.0
C968 C 0.0086 0.50425 0.06266 0.0
C969 C 0.97952 0.47591 0.04978 0.0
C970 C 0.0262 0.52532 0.00644 0.0
C971 C 0.01567 0.51921 0.93426 0.0
H972 H 0.01807 0.51036 0.11698 0.0
H973 H 0.04798 0.54689 0.02009 0.0
S974 S 0.94191 0.44775 0.86984 0.0
N975 N 0.94164 0.44263 0.95807 0.0
N976 N 0.97443 0.48186 0.85281 0.0
C977 C 0.98678 0.49079 0.92034 0.0
C978 C 0.96882 0.46935 0.97774 0.0
C979 C 0.47224 0.4975 0.01717 0.0
C980 C 0.4803 0.49829 0.94383 0.0
C981 C 0.49324 0.49998 0.07279 0.0
C982 C 0.52332 0.50326 0.05798 0.0
H983 H 0.44924 0.49429 0.03199 0.0
H984 H 0.4857 0.49929 0.12818 0.0
S985 S 0.55701 0.50868 0.87496 0.0
N986 N 0.52147 0.50409 0.85962 0.0
N987 N 0.56042 0.50847 0.96367 0.0
C988 C 0.53183 0.50443 0.98488 0.0
C989 C 0.51056 0.5021 0.92819 0.0
loop_
_geom_bond_atom_site_label_1
_geom_bond_atom_site_label_2
_geom_bond_distance
_geom_bond_site_symmetry_2
_ccdc_geom_bond_type
Sc0 O3 2.025 1_556 S
Sc0 O10 2.105 . S
Sc0 O13 2.105 . S
Sc0 O16 2.105 . S
Sc0 O19 2.105 . S
Sc1 O3 2.025 . S
Sc1 O11 2.105 . S
Sc1 O15 2.105 . S
Sc1 O17 2.105 1_554 S
Sc1 O21 2.105 . S
Sc2 O3 2.025 . S
Sc2 O12 2.105 . S
Sc2 O14 2.105 . S
Sc2 O18 2.105 . S
Sc2 O20 2.105 . S
O3 Sc0 2.025 1_554 S
O3 Sc1 2.025 . S
O3 Sc2 2.025 . S
C4 O10 1.268 1_554 S
C4 O20 1.268 . S
C5 O11 1.268 1_556 S
C5 O19 1.268 . S
C6 O12 1.268 . S
C6 O21 1.268 . S
C7 O13 1.268 . S
C7 O17 1.268 . S
C8 O14 1.268 . S
C8 O16 1.268 1_554 S
C9 O15 1.268 . S
C9 O18 1.268 . S
O10 Sc0 2.105 . S
O10 C4 1.268 1_556 S
O11 Sc1 2.105 . S
O11 C5 1.268 1_554 S
O12 Sc2 2.105 . S
O12 C6 1.268 . S
O13 Sc0 2.105 . S
O13 C7 1.268 . S
O14 Sc2 2.105 . S
O14 C8 1.268 . S
O15 Sc1 2.105 . S
O15 C9 1.268 . S
O16 Sc0 2.105 . S
O16 C8 1.268 1_556 S
O17 Sc1 2.105 1_556 S
O17 C7 1.268 . S
O18 Sc2 2.105 . S
O18 C9 1.268 . S
O19 Sc0 2.105 . S
O19 C5 1.268 . S
O20 Sc2 2.105 . S
O20 C4 1.268 . S
O21 Sc1 2.105 . S
O21 C6 1.268 . S
Sc22 O25 2.025 1_556 S
Sc22 O32 2.105 . S
Sc22 O35 2.105 . S
Sc22 O38 2.105 . S
Sc22 O41 2.105 . S
Sc23 O25 2.025 . S
Sc23 O33 2.105 . S
Sc23 O37 2.105 . S
Sc23 O39 2.105 1_554 S
Sc23 O43 2.105 . S
Sc24 O25 2.025 . S
Sc24 O34 2.105 . S
Sc24 O36 2.105 . S
Sc24 O40 2.105 . S
Sc24 O42 2.105 . S
O25 Sc22 2.025 1_554 S
O25 Sc23 2.025 . S
O25 Sc24 2.025 . S
C26 O32 1.268 1_554 S
C26 O42 1.268 . S
C27 O33 1.268 1_556 S
C27 O41 1.268 . S
C28 O34 1.268 . S
C28 O43 1.268 . S
C29 O35 1.268 . S
C29 O39 1.268 . S
C30 O36 1.268 . S
C30 O38 1.268 1_554 S
C31 O37 1.268 . S
C31 O40 1.268 . S
O32 Sc22 2.105 . S
O32 C26 1.268 1_556 S
O33 Sc23 2.105 . S
O33 C27 1.268 1_554 S
O34 Sc24 2.105 . S
O34 C28 1.268 . S
O35 Sc22 2.105 . S
O35 C29 1.268 . S
O36 Sc24 2.105 . S
O36 C30 1.268 . S
O37 Sc23 2.105 . S
O37 C31 1.268 . S
O38 Sc22 2.105 . S
O38 C30 1.268 1_556 S
O39 Sc23 2.105 1_556 S
O39 C29 1.268 . S
O40 Sc24 2.105 . S
O40 C31 1.268 . S
O41 Sc22 2.105 . S
O41 C27 1.268 . S
O42 Sc24 2.105 . S
O42 C26 1.268 . S
O43 Sc23 2.105 . S
O43 C28 1.268 . S
Sc44 O47 2.025 1_556 S
Sc44 O54 2.105 . S
Sc44 O57 2.105 . S
Sc44 O60 2.105 . S
Sc44 O63 2.105 . S
Sc45 O47 2.025 . S
Sc45 O55 2.105 . S
Sc45 O59 2.105 . S
Sc45 O61 2.105 1_554 S
Sc45 O65 2.105 . S
Sc46 O47 2.025 . S
Sc46 O56 2.105 . S
Sc46 O58 2.105 . S
Sc46 O62 2.105 . S
Sc46 O64 2.105 . S
O47 Sc44 2.025 1_554 S
O47 Sc45 2.025 . S
O47 Sc46 2.025 . S
C48 O54 1.268 1_554 S
C48 O64 1.268 . S
C49 O55 1.268 1_556 S
C49 O63 1.268 . S
C50 O56 1.268 . S
C50 O65 1.268 . S
C51 O57 1.268 . S
C51 O61 1.268 . S
C52 O58 1.268 . S
C52 O60 1.268 1_554 S
C53 O59 1.268 . S
C53 O62 1.268 . S
O54 Sc44 2.105 . S
O54 C48 1.268 1_556 S
O55 Sc45 2.105 . S
O55 C49 1.268 1_554 S
O56 Sc46 2.105 . S
O56 C50 1.268 . S
O57 Sc44 2.105 . S
O57 C51 1.268 . S
O58 Sc46 2.105 . S
O58 C52 1.268 . S
O59 Sc45 2.105 . S
O59 C53 1.268 . S
O60 Sc44 2.105 . S
O60 C52 1.268 1_556 S
O61 Sc45 2.105 1_556 S
O61 C51 1.268 . S
O62 Sc46 2.105 . S
O62 C53 1.268 . S
O63 Sc44 2.105 . S
O63 C49 1.268 . S
O64 Sc46 2.105 . S
O64 C48 1.268 . S
O65 Sc45 2.105 . S
O65 C50 1.268 . S
Sc66 O69 2.025 . S
Sc66 O76 2.105 . S
Sc66 O79 2.105 . S
Sc66 O82 2.105 . S
Sc66 O85 2.105 . S
Sc67 O69 2.025 . S
Sc67 O77 2.105 . S
Sc67 O81 2.105 1_556 S
Sc67 O83 2.105 . S
Sc67 O87 2.105 . S
Sc68 O69 2.025 1_554 S
Sc68 O78 2.105 . S
Sc68 O80 2.105 . S
Sc68 O84 2.105 . S
Sc68 O86 2.105 . S
O69 Sc66 2.025 . S
O69 Sc67 2.025 . S
O69 Sc68 2.025 1_556 S
C70 O76 1.268 . S
C70 O86 1.268 1_556 S
C71 O77 1.268 . S
C71 O85 1.268 . S
C72 O78 1.268 . S
C72 O87 1.268 1_554 S
C73 O79 1.268 . S
C73 O83 1.268 . S
C74 O80 1.268 1_556 S
C74 O82 1.268 . S
C75 O81 1.268 . S
C75 O84 1.268 . S
O76 Sc66 2.105 . S
O76 C70 1.268 . S
O77 Sc67 2.105 . S
O77 C71 1.268 . S
O78 Sc68 2.105 . S
O78 C72 1.268 . S
O79 Sc66 2.105 . S
O79 C73 1.268 . S
O80 Sc68 2.105 . S
O80 C74 1.268 1_554 S
O81 Sc67 2.105 1_554 S
O81 C75 1.268 . S
O82 Sc66 2.105 . S
O82 C74 1.268 . S
O83 Sc67 2.105 . S
O83 C73 1.268 . S
O84 Sc68 2.105 . S
O84 C75 1.268 . S
O85 Sc66 2.105 . S
O85 C71 1.268 . S
O86 Sc68 2.105 . S
O86 C70 1.268 1_554 S
O87 Sc67 2.105 . S
O87 C72 1.268 1_556 S
Sc88 O91 2.025 . S
Sc88 O98 2.105 . S
Sc88 O101 2.105 . S
Sc88 O104 2.105 . S
Sc88 O107 2.105 . S
Sc89 O91 2.025 . S
Sc89 O99 2.105 . S
Sc89 O103 2.105 1_556 S
Sc89 O105 2.105 . S
Sc89 O109 2.105 . S
Sc90 O91 2.025 1_554 S
Sc90 O100 2.105 . S
Sc90 O102 2.105 . S
Sc90 O106 2.105 . S
Sc90 O108 2.105 . S
O91 Sc88 2.025 . S
O91 Sc89 2.025 . S
O91 Sc90 2.025 1_556 S
C92 O98 1.268 . S
C92 O108 1.268 1_556 S
C93 O99 1.268 . S
C93 O107 1.268 . S
C94 O100 1.268 . S
C94 O109 1.268 1_554 S
C95 O101 1.268 . S
C95 O105 1.268 . S
C96 O102 1.268 1_556 S
C96 O104 1.268 . S
C97 O103 1.268 . S
C97 O106 1.268 . S
O98 Sc88 2.105 . S
O98 C92 1.268 . S
O99 Sc89 2.105 . S
O99 C93 1.268 . S
O100 Sc90 2.105 . S
O100 C94 1.268 . S
O101 Sc88 2.105 . S
O101 C95 1.268 . S
O102 Sc90 2.105 . S
O102 C96 1.268 1_554 S
O103 Sc89 2.105 1_554 S
O103 C97 1.268 . S
O104 Sc88 2.105 . S
O104 C96 1.268 . S
O105 Sc89 2.105 . S
O105 C95 1.268 . S
O106 Sc90 2.105 . S
O106 C97 1.268 . S
O107 Sc88 2.105 . S
O107 C93 1.268 . S
O108 Sc90 2.105 . S
O108 C92 1.268 1_554 S
O109 Sc89 2.105 . S
O109 C94 1.268 1_556 S
Sc110 O113 2.025 . S
Sc110 O120 2.105 . S
Sc110 O123 2.105 . S
Sc110 O126 2.105 . S
Sc110 O129 2.105 . S
Sc111 O113 2.025 . S
Sc111 O121 2.105 . S
Sc111 O125 2.105 1_556 S
Sc111 O127 2.105 . S
Sc111 O131 2.105 . S
Sc112 O113 2.025 1_554 S
Sc112 O122 2.105 . S
Sc112 O124 2.105 . S
Sc112 O128 2.105 . S
Sc112 O130 2.105 . S
O113 Sc110 2.025 . S
O113 Sc111 2.025 . S
O113 Sc112 2.025 1_556 S
C114 O120 1.268 . S
C114 O130 1.268 1_556 S
C115 O121 1.268 . S
C115 O129 1.268 . S
C116 O122 1.268 . S
C116 O131 1.268 1_554 S
C117 O123 1.268 . S
C117 O127 1.268 . S
C118 O124 1.268 1_556 S
C118 O126 1.268 . S
C119 O125 1.268 . S
C119 O128 1.268 . S
O120 Sc110 2.105 . S
O120 C114 1.268 . S
O121 Sc111 2.105 . S
O121 C115 1.268 . S
O122 Sc112 2.105 . S
O122 C116 1.268 . S
O123 Sc110 2.105 . S
O123 C117 1.268 . S
O124 Sc112 2.105 . S
O124 C118 1.268 1_554 S
O125 Sc111 2.105 1_554 S
O125 C119 1.268 . S
O126 Sc110 2.105 . S
O126 C118 1.268 . S
O127 Sc111 2.105 . S
O127 C117 1.268 . S
O128 Sc112 2.105 . S
O128 C119 1.268 . S
O129 Sc110 2.105 . S
O129 C115 1.268 . S
O130 Sc112 2.105 . S
O130 C114 1.268 1_554 S
O131 Sc111 2.105 . S
O131 C116 1.268 1_556 S
Sc132 O135 2.025 . S
Sc132 O142 2.105 . S
Sc132 O145 2.105 . S
Sc132 O148 2.105 . S
Sc132 O151 2.105 . S
Sc133 O135 2.025 . S
Sc133 O143 2.105 . S
Sc133 O147 2.105 . S
Sc133 O149 2.105 . S
Sc133 O153 2.105 . S
Sc134 O135 2.025 . S
Sc134 O144 2.105 . S
Sc134 O146 2.105 . S
Sc134 O150 2.105 . S
Sc134 O152 2.105 . S
O135 Sc132 2.025 . S
O135 Sc133 2.025 . S
O135 Sc134 2.025 . S
C136 O142 1.268 . S
C136 O152 1.268 . S
C137 O143 1.268 . S
C137 O151 1.268 . S
C138 O144 1.268 . S
C138 O153 1.268 . S
C139 O145 1.268 . S
C139 O149 1.268 . S
C140 O146 1.268 . S
C140 O148 1.268 . S
C141 O147 1.268 . S
C141 O150 1.268 . S
O142 Sc132 2.105 . S
O142 C136 1.268 . S
O143 Sc133 2.105 . S
O143 C137 1.268 . S
O144 Sc134 2.105 . S
O144 C138 1.268 . S
O145 Sc132 2.105 . S
O145 C139 1.268 . S
O146 Sc134 2.105 . S
O146 C140 1.268 . S
O147 Sc133 2.105 . S
O147 C141 1.268 . S
O148 Sc132 2.105 . S
O148 C140 1.268 . S
O149 Sc133 2.105 . S
O149 C139 1.268 . S
O150 Sc134 2.105 . S
O150 C141 1.268 . S
O151 Sc132 2.105 . S
O151 C137 1.268 . S
O152 Sc134 2.105 . S
O152 C136 1.268 . S
O153 Sc133 2.105 . S
O153 C138 1.268 . S
Sc154 O157 2.025 . S
Sc154 O164 2.105 . S
Sc154 O167 2.105 . S
Sc154 O170 2.105 . S
Sc154 O173 2.105 . S
Sc155 O157 2.025 . S
Sc155 O165 2.105 . S
Sc155 O169 2.105 . S
Sc155 O171 2.105 . S
Sc155 O175 2.105 . S
Sc156 O157 2.025 . S
Sc156 O166 2.105 . S
Sc156 O168 2.105 . S
Sc156 O172 2.105 . S
Sc156 O174 2.105 . S
O157 Sc154 2.025 . S
O157 Sc155 2.025 . S
O157 Sc156 2.025 . S
C158 O164 1.268 . S
C158 O174 1.268 . S
C159 O165 1.268 . S
C159 O173 1.268 . S
C160 O166 1.268 . S
C160 O175 1.268 . S
C161 O167 1.268 . S
C161 O171 1.268 . S
C162 O168 1.268 . S
C162 O170 1.268 . S
C163 O169 1.268 . S
C163 O172 1.268 . S
O164 Sc154 2.105 . S
O164 C158 1.268 . S
O165 Sc155 2.105 . S
O165 C159 1.268 . S
O166 Sc156 2.105 . S
O166 C160 1.268 . S
O167 Sc154 2.105 . S
O167 C161 1.268 . S
O168 Sc156 2.105 . S
O168 C162 1.268 . S
O169 Sc155 2.105 . S
O169 C163 1.268 . S
O170 Sc154 2.105 . S
O170 C162 1.268 . S
O171 Sc155 2.105 . S
O171 C161 1.268 . S
O172 Sc156 2.105 . S
O172 C163 1.268 . S
O173 Sc154 2.105 . S
O173 C159 1.268 . S
O174 Sc156 2.105 . S
O174 C158 1.268 . S
O175 Sc155 2.105 . S
O175 C160 1.268 . S
Sc176 O179 2.025 . S
Sc176 O186 2.105 . S
Sc176 O189 2.105 . S
Sc176 O192 2.105 . S
Sc176 O195 2.105 . S
Sc177 O179 2.025 . S
Sc177 O187 2.105 . S
Sc177 O191 2.105 . S
Sc177 O193 2.105 . S
Sc177 O197 2.105 . S
Sc178 O179 2.025 . S
Sc178 O188 2.105 . S
Sc178 O190 2.105 . S
Sc178 O194 2.105 . S
Sc178 O196 2.105 . S
O179 Sc176 2.025 . S
O179 Sc177 2.025 . S
O179 Sc178 2.025 . S
C180 O186 1.268 . S
C180 O196 1.268 . S
C181 O187 1.268 . S
C181 O195 1.268 . S
C182 O188 1.268 . S
C182 O197 1.268 . S
C183 O189 1.268 . S
C183 O193 1.268 . S
C184 O190 1.268 . S
C184 O192 1.268 . S
C185 O191 1.268 . S
C185 O194 1.268 . S
O186 Sc176 2.105 . S
O186 C180 1.268 . S
O187 Sc177 2.105 . S
O187 C181 1.268 . S
O188 Sc178 2.105 . S
O188 C182 1.268 . S
O189 Sc176 2.105 . S
O189 C183 1.268 . S
O190 Sc178 2.105 . S
O190 C184 1.268 . S
O191 Sc177 2.105 . S
O191 C185 1.268 . S
O192 Sc176 2.105 . S
O192 C184 1.268 . S
O193 Sc177 2.105 . S
O193 C183 1.268 . S
O194 Sc178 2.105 . S
O194 C185 1.268 . S
O195 Sc176 2.105 . S
O195 C181 1.268 . S
O196 Sc178 2.105 . S
O196 C180 1.268 . S
O197 Sc177 2.105 . S
O197 C182 1.268 . S
Sc198 O201 2.025 . S
Sc198 O208 2.105 . S
Sc198 O211 2.105 . S
Sc198 O214 2.105 . S
Sc198 O217 2.105 . S
Sc199 O201 2.025 . S
Sc199 O209 2.105 . S
Sc199 O213 2.105 . S
Sc199 O215 2.105 . S
Sc199 O219 2.105 1_545 S
Sc200 O201 2.025 . S
Sc200 O210 2.105 . S
Sc200 O212 2.105 . S
Sc200 O216 2.105 . S
Sc200 O218 2.105 . S
O201 Sc198 2.025 . S
O201 Sc199 2.025 . S
O201 Sc200 2.025 . S
C202 O208 1.268 . S
C202 O218 1.268 . S
C203 O209 1.268 . S
C203 O217 1.268 . S
C204 O210 1.268 . S
C204 O219 1.268 1_545 S
C205 O211 1.268 . S
C205 O215 1.268 . S
C206 O212 1.268 . S
C206 O214 1.268 . S
C207 O213 1.268 . S
C207 O216 1.268 . S
O208 Sc198 2.105 . S
O208 C202 1.268 . S
O209 Sc199 2.105 . S
O209 C203 1.268 . S
O210 Sc200 2.105 . S
O210 C204 1.268 . S
O211 Sc198 2.105 . S
O211 C205 1.268 . S
O212 Sc200 2.105 . S
O212 C206 1.268 . S
O213 Sc199 2.105 . S
O213 C207 1.268 . S
O214 Sc198 2.105 . S
O214 C206 1.268 . S
O215 Sc199 2.105 . S
O215 C205 1.268 . S
O216 Sc200 2.105 . S
O216 C207 1.268 . S
O217 Sc198 2.105 . S
O217 C203 1.268 . S
O218 Sc200 2.105 . S
O218 C202 1.268 . S
O219 Sc199 2.105 1_565 S
O219 C204 1.268 1_565 S
Sc220 O223 2.025 . S
Sc220 O230 2.105 . S
Sc220 O233 2.105 . S
Sc220 O236 2.105 . S
Sc220 O239 2.105 . S
Sc221 O223 2.025 . S
Sc221 O231 2.105 . S
Sc221 O235 2.105 . S
Sc221 O237 2.105 . S
Sc221 O241 2.105 1_655 S
Sc222 O223 2.025 . S
Sc222 O232 2.105 . S
Sc222 O234 2.105 . S
Sc222 O238 2.105 . S
Sc222 O240 2.105 . S
O223 Sc220 2.025 . S
O223 Sc221 2.025 . S
O223 Sc222 2.025 . S
C224 O230 1.268 . S
C224 O240 1.268 . S
C225 O231 1.268 . S
C225 O239 1.268 . S
C226 O232 1.268 . S
C226 O241 1.268 1_655 S
C227 O233 1.268 . S
C227 O237 1.268 . S
C228 O234 1.268 . S
C228 O236 1.268 . S
C229 O235 1.268 . S
C229 O238 1.268 . S
O230 Sc220 2.105 . S
O230 C224 1.268 . S
O231 Sc221 2.105 . S
O231 C225 1.268 . S
O232 Sc222 2.105 . S
O232 C226 1.268 . S
O233 Sc220 2.105 . S
O233 C227 1.268 . S
O234 Sc222 2.105 . S
O234 C228 1.268 . S
O235 Sc221 2.105 . S
O235 C229 1.268 . S
O236 Sc220 2.105 . S
O236 C228 1.268 . S
O237 Sc221 2.105 . S
O237 C227 1.268 . S
O238 Sc222 2.105 . S
O238 C229 1.268 . S
O239 Sc220 2.105 . S
O239 C225 1.268 . S
O240 Sc222 2.105 . S
O240 C224 1.268 . S
O241 Sc221 2.105 1_455 S
O241 C226 1.268 1_455 S
Sc242 O245 2.025 . S
Sc242 O252 2.105 . S
Sc242 O255 2.105 . S
Sc242 O258 2.105 . S
Sc242 O261 2.105 . S
Sc243 O245 2.025 . S
Sc243 O253 2.105 . S
Sc243 O257 2.105 . S
Sc243 O259 2.105 . S
Sc243 O263 2.105 . S
Sc244 O245 2.025 . S
Sc244 O254 2.105 . S
Sc244 O256 2.105 . S
Sc244 O260 2.105 . S
Sc244 O262 2.105 . S
O245 Sc242 2.025 . S
O245 Sc243 2.025 . S
O245 Sc244 2.025 . S
C246 O252 1.268 . S
C246 O262 1.268 . S
C247 O253 1.268 . S
C247 O261 1.268 . S
C248 O254 1.268 . S
C248 O263 1.268 . S
C249 O255 1.268 . S
C249 O259 1.268 . S
C250 O256 1.268 . S
C250 O258 1.268 . S
C251 O257 1.268 . S
C251 O260 1.268 . S
O252 Sc242 2.105 . S
O252 C246 1.268 . S
O253 Sc243 2.105 . S
O253 C247 1.268 . S
O254 Sc244 2.105 . S
O254 C248 1.268 . S
O255 Sc242 2.105 . S
O255 C249 1.268 . S
O256 Sc244 2.105 . S
O256 C250 1.268 . S
O257 Sc243 2.105 . S
O257 C251 1.268 . S
O258 Sc242 2.105 . S
O258 C250 1.268 . S
O259 Sc243 2.105 . S
O259 C249 1.268 . S
O260 Sc244 2.105 . S
O260 C251 1.268 . S
O261 Sc242 2.105 . S
O261 C247 1.268 . S
O262 Sc244 2.105 . S
O262 C246 1.268 . S
O263 Sc243 2.105 . S
O263 C248 1.268 . S
Sc264 O267 2.025 . S
Sc264 O274 2.105 . S
Sc264 O277 2.105 . S
Sc264 O280 2.105 . S
Sc264 O283 2.105 . S
Sc265 O267 2.025 . S
Sc265 O275 2.105 1_565 S
Sc265 O279 2.105 . S
Sc265 O281 2.105 . S
Sc265 O285 2.105 . S
Sc266 O267 2.025 . S
Sc266 O276 2.105 . S
Sc266 O278 2.105 . S
Sc266 O282 2.105 . S
Sc266 O284 2.105 . S
O267 Sc264 2.025 . S
O267 Sc265 2.025 . S
O267 Sc266 2.025 . S
C268 O274 1.268 . S
C268 O284 1.268 . S
C269 O275 1.268 1_565 S
C269 O283 1.268 . S
C270 O276 1.268 . S
C270 O285 1.268 . S
C271 O277 1.268 . S
C271 O281 1.268 . S
C272 O278 1.268 . S
C272 O280 1.268 . S
C273 O279 1.268 . S
C273 O282 1.268 . S
O274 Sc264 2.105 . S
O274 C268 1.268 . S
O275 Sc265 2.105 1_545 S
O275 C269 1.268 1_545 S
O276 Sc266 2.105 . S
O276 C270 1.268 . S
O277 Sc264 2.105 . S
O277 C271 1.268 . S
O278 Sc266 2.105 . S
O278 C272 1.268 . S
O279 Sc265 2.105 . S
O279 C273 1.268 . S
O280 Sc264 2.105 . S
O280 C272 1.268 . S
O281 Sc265 2.105 . S
O281 C271 1.268 . S
O282 Sc266 2.105 . S
O282 C273 1.268 . S
O283 Sc264 2.105 . S
O283 C269 1.268 . S
O284 Sc266 2.105 . S
O284 C268 1.268 . S
O285 Sc265 2.105 . S
O285 C270 1.268 . S
Sc286 O289 2.025 . S
Sc286 O296 2.105 . S
Sc286 O299 2.105 . S
Sc286 O302 2.105 . S
Sc286 O305 2.105 . S
Sc287 O289 2.025 . S
Sc287 O297 2.105 1_455 S
Sc287 O301 2.105 . S
Sc287 O303 2.105 . S
Sc287 O307 2.105 . S
Sc288 O289 2.025 . S
Sc288 O298 2.105 . S
Sc288 O300 2.105 . S
Sc288 O304 2.105 . S
Sc288 O306 2.105 . S
O289 Sc286 2.025 . S
O289 Sc287 2.025 . S
O289 Sc288 2.025 . S
C290 O296 1.268 . S
C290 O306 1.268 . S
C291 O297 1.268 1_455 S
C291 O305 1.268 . S
C292 O298 1.268 . S
C292 O307 1.268 . S
C293 O299 1.268 . S
C293 O303 1.268 . S
C294 O300 1.268 . S
C294 O302 1.268 . S
C295 O301 1.268 . S
C295 O304 1.268 . S
O296 Sc286 2.105 . S
O296 C290 1.268 . S
O297 Sc287 2.105 1_655 S
O297 C291 1.268 1_655 S
O298 Sc288 2.105 . S
O298 C292 1.268 . S
O299 Sc286 2.105 . S
O299 C293 1.268 . S
O300 Sc288 2.105 . S
O300 C294 1.268 . S
O301 Sc287 2.105 . S
O301 C295 1.268 . S
O302 Sc286 2.105 . S
O302 C294 1.268 . S
O303 Sc287 2.105 . S
O303 C293 1.268 . S
O304 Sc288 2.105 . S
O304 C295 1.268 . S
O305 Sc286 2.105 . S
O305 C291 1.268 . S
O306 Sc288 2.105 . S
O306 C290 1.268 . S
O307 Sc287 2.105 . S
O307 C292 1.268 . S
Sc308 O311 2.025 . S
Sc308 O318 2.105 . S
Sc308 O321 2.105 . S
Sc308 O324 2.105 . S
Sc308 O327 2.105 . S
Sc309 O311 2.025 . S
Sc309 O319 2.105 . S
Sc309 O323 2.105 . S
Sc309 O325 2.105 . S
Sc309 O329 2.105 . S
Sc310 O311 2.025 . S
Sc310 O320 2.105 . S
Sc310 O322 2.105 . S
Sc310 O326 2.105 . S
Sc310 O328 2.105 . S
O311 Sc308 2.025 . S
O311 Sc309 2.025 . S
O311 Sc310 2.025 . S
C312 O318 1.268 . S
C312 O328 1.268 . S
C313 O319 1.268 . S
C313 O327 1.268 . S
C314 O320 1.268 . S
C314 O329 1.268 . S
C315 O321 1.268 . S
C315 O325 1.268 . S
C316 O322 1.268 . S
C316 O324 1.268 . S
C317 O323 1.268 . S
C317 O326 1.268 . S
O318 Sc308 2.105 . S
O318 C312 1.268 . S
O319 Sc309 2.105 . S
O319 C313 1.268 . S
O320 Sc310 2.105 . S
O320 C314 1.268 . S
O321 Sc308 2.105 . S
O321 C315 1.268 . S
O322 Sc310 2.105 . S
O322 C316 1.268 . S
O323 Sc309 2.105 . S
O323 C317 1.268 . S
O324 Sc308 2.105 . S
O324 C316 1.268 . S
O325 Sc309 2.105 . S
O325 C315 1.268 . S
O326 Sc310 2.105 . S
O326 C317 1.268 . S
O327 Sc308 2.105 . S
O327 C313 1.268 . S
O328 Sc310 2.105 . S
O328 C312 1.268 . S
O329 Sc309 2.105 . S
O329 C314 1.268 . S
Sc330 O333 2.025 . S
Sc330 O340 2.105 . S
Sc330 O343 2.105 . S
Sc330 O346 2.105 . S
Sc330 O349 2.105 . S
Sc331 O333 2.025 . S
Sc331 O341 2.105 . S
Sc331 O345 2.105 . S
Sc331 O347 2.105 . S
Sc331 O351 2.105 . S
Sc332 O333 2.025 . S
Sc332 O342 2.105 . S
Sc332 O344 2.105 . S
Sc332 O348 2.105 . S
Sc332 O350 2.105 . S
O333 Sc330 2.025 . S
O333 Sc331 2.025 . S
O333 Sc332 2.025 . S
C334 O340 1.268 . S
C334 O350 1.268 . S
C335 O341 1.268 . S
C335 O349 1.268 . S
C336 O342 1.268 . S
C336 O351 1.268 . S
C337 O343 1.268 . S
C337 O347 1.268 . S
C338 O344 1.268 . S
C338 O346 1.268 . S
C339 O345 1.268 . S
C339 O348 1.268 . S
O340 Sc330 2.105 . S
O340 C334 1.268 . S
O341 Sc331 2.105 . S
O341 C335 1.268 . S
O342 Sc332 2.105 . S
O342 C336 1.268 . S
O343 Sc330 2.105 . S
O343 C337 1.268 . S
O344 Sc332 2.105 . S
O344 C338 1.268 . S
O345 Sc331 2.105 . S
O345 C339 1.268 . S
O346 Sc330 2.105 . S
O346 C338 1.268 . S
O347 Sc331 2.105 . S
O347 C337 1.268 . S
O348 Sc332 2.105 . S
O348 C339 1.268 . S
O349 Sc330 2.105 . S
O349 C335 1.268 . S
O350 Sc332 2.105 . S
O350 C334 1.268 . S
O351 Sc331 2.105 . S
O351 C336 1.268 . S
Sc352 O355 2.025 . S
Sc352 O362 2.105 . S
Sc352 O365 2.105 . S
Sc352 O368 2.105 . S
Sc352 O371 2.105 . S
Sc353 O355 2.025 . S
Sc353 O363 2.105 . S
Sc353 O367 2.105 . S
Sc353 O369 2.105 . S
Sc353 O373 2.105 . S
Sc354 O355 2.025 . S
Sc354 O364 2.105 . S
Sc354 O366 2.105 . S
Sc354 O370 2.105 . S
Sc354 O372 2.105 . S
O355 Sc352 2.025 . S
O355 Sc353 2.025 . S
O355 Sc354 2.025 . S
C356 O362 1.268 . S
C356 O372 1.268 . S
C357 O363 1.268 . S
C357 O371 1.268 . S
C358 O364 1.268 . S
C358 O373 1.268 . S
C359 O365 1.268 . S
C359 O369 1.268 . S
C360 O366 1.268 . S
C360 O368 1.268 . S
C361 O367 1.268 . S
C361 O370 1.268 . S
O362 Sc352 2.105 . S
O362 C356 1.268 . S
O363 Sc353 2.105 . S
O363 C357 1.268 . S
O364 Sc354 2.105 . S
O364 C358 1.268 . S
O365 Sc352 2.105 . S
O365 C359 1.268 . S
O366 Sc354 2.105 . S
O366 C360 1.268 . S
O367 Sc353 2.105 . S
O367 C361 1.268 . S
O368 Sc352 2.105 . S
O368 C360 1.268 . S
O369 Sc353 2.105 . S
O369 C359 1.268 . S
O370 Sc354 2.105 . S
O370 C361 1.268 . S
O371 Sc352 2.105 . S
O371 C357 1.268 . S
O372 Sc354 2.105 . S
O372 C356 1.268 . S
O373 Sc353 2.105 . S
O373 C358 1.268 . S
Sc374 O377 2.025 . S
Sc374 O384 2.105 . S
Sc374 O387 2.105 . S
Sc374 O390 2.105 . S
Sc374 O393 2.105 . S
Sc375 O377 2.025 . S
Sc375 O385 2.105 . S
Sc375 O389 2.105 . S
Sc375 O391 2.105 . S
Sc375 O395 2.105 . S
Sc376 O377 2.025 . S
Sc376 O386 2.105 . S
Sc376 O388 2.105 . S
Sc376 O392 2.105 . S
Sc376 O394 2.105 . S
O377 Sc374 2.025 . S
O377 Sc375 2.025 . S
O377 Sc376 2.025 . S
C378 O384 1.268 . S
C378 O394 1.268 . S
C379 O385 1.268 . S
C379 O393 1.268 . S
C380 O386 1.268 . S
C380 O395 1.268 . S
C381 O387 1.268 . S
C381 O391 1.268 . S
C382 O388 1.268 . S
C382 O390 1.268 . S
C383 O389 1.268 . S
C383 O392 1.268 . S
O384 Sc374 2.105 . S
O384 C378 1.268 . S
O385 Sc375 2.105 . S
O385 C379 1.268 . S
O386 Sc376 2.105 . S
O386 C380 1.268 . S
O387 Sc374 2.105 . S
O387 C381 1.268 . S
O388 Sc376 2.105 . S
O388 C382 1.268 . S
O389 Sc375 2.105 . S
O389 C383 1.268 . S
O390 Sc374 2.105 . S
O390 C382 1.268 . S
O391 Sc375 2.105 . S
O391 C381 1.268 . S
O392 Sc376 2.105 . S
O392 C383 1.268 . S
O393 Sc374 2.105 . S
O393 C379 1.268 . S
O394 Sc376 2.105 . S
O394 C378 1.268 . S
O395 Sc375 2.105 . S
O395 C380 1.268 . S
C396 C397 1.369 . S
C396 C398 1.419 . S
C396 H400 0.930 . S
C397 C396 1.369 . S
C397 C406 1.429 . S
C398 C396 1.419 . S
C398 C399 1.363 . S
C398 H401 0.929 . S
C399 C398 1.363 . S
C399 C405 1.428 . S
H400 C396 0.930 . S
H401 C398 0.929 . S
S402 N403 1.613 1_554 S
S402 N404 1.610 . S
N403 S402 1.613 1_556 S
N403 C406 1.350 . S
N404 S402 1.610 . S
N404 C405 1.351 1_554 S
C405 C399 1.428 . S
C405 N404 1.351 1_556 S
C405 C406 1.434 . S
C406 C397 1.429 . S
C406 N403 1.350 . S
C406 C405 1.434 . S
C407 C408 1.369 . S
C407 C409 1.419 . S
C407 H411 0.930 . S
C408 C407 1.369 . S
C408 C417 1.429 . S
C409 C407 1.419 . S
C409 C410 1.363 . S
C409 H412 0.929 . S
C410 C409 1.363 . S
C410 C416 1.428 . S
H411 C407 0.930 . S
H412 C409 0.929 . S
S413 N414 1.613 . S
S413 N415 1.610 . S
N414 S413 1.613 . S
N414 C417 1.350 . S
N415 S413 1.610 . S
N415 C416 1.351 . S
C416 C410 1.428 . S
C416 N415 1.351 . S
C416 C417 1.434 . S
C417 C408 1.429 . S
C417 N414 1.350 . S
C417 C416 1.434 . S
C418 C419 1.369 . S
C418 C420 1.419 . S
C418 H422 0.930 . S
C419 C418 1.369 . S
C419 C428 1.429 1_556 S
C420 C418 1.419 . S
C420 C421 1.363 . S
C420 H423 0.929 . S
C421 C420 1.363 . S
C421 C427 1.428 1_556 S
H422 C418 0.930 . S
H423 C420 0.929 . S
S424 N425 1.613 . S
S424 N426 1.610 . S
N425 S424 1.613 . S
N425 C428 1.350 . S
N426 S424 1.610 . S
N426 C427 1.351 . S
C427 C421 1.428 1_554 S
C427 N426 1.351 . S
C427 C428 1.434 . S
C428 C419 1.429 1_554 S
C428 N425 1.350 . S
C428 C427 1.434 . S
C429 C430 1.369 1_556 S
C429 C431 1.419 1_556 S
C429 H433 0.930 . S
C430 C429 1.369 1_554 S
C430 C439 1.429 . S
C431 C429 1.419 1_554 S
C431 C432 1.363 . S
C431 H434 0.929 1_554 S
C432 C431 1.363 . S
C432 C438 1.428 . S
H433 C429 0.930 . S
H434 C431 0.929 1_556 S
S435 N436 1.613 . S
S435 N437 1.610 . S
N436 S435 1.613 . S
N436 C439 1.350 . S
N437 S435 1.610 . S
N437 C438 1.351 . S
C438 C432 1.428 . S
C438 N437 1.351 . S
C438 C439 1.434 . S
C439 C430 1.429 . S
C439 N436 1.350 . S
C439 C438 1.434 . S
C440 C441 1.369 . S
C440 C442 1.419 . S
C440 H444 0.930 . S
C441 C440 1.369 . S
C441 C450 1.429 . S
C442 C440 1.419 . S
C442 C443 1.363 . S
C442 H445 0.929 . S
C443 C442 1.363 . S
C443 C449 1.428 . S
H444 C440 0.930 . S
H445 C442 0.929 . S
S446 N447 1.613 . S
S446 N448 1.610 . S
N447 S446 1.613 . S
N447 C450 1.350 . S
N448 S446 1.610 . S
N448 C449 1.351 . S
C449 C443 1.428 . S
C449 N448 1.351 . S
C449 C450 1.434 . S
C450 C441 1.429 . S
C450 N447 1.350 . S
C450 C449 1.434 . S
C451 C452 1.369 1_556 S
C451 C453 1.419 . S
C451 H455 0.930 . S
C452 C451 1.369 1_554 S
C452 C461 1.429 . S
C453 C451 1.419 . S
C453 C454 1.363 1_556 S
C453 H456 0.929 . S
C454 C453 1.363 1_554 S
C454 C460 1.428 . S
H455 C451 0.930 . S
H456 C453 0.929 . S
S457 N458 1.613 . S
S457 N459 1.610 . S
N458 S457 1.613 . S
N458 C461 1.350 . S
N459 S457 1.610 . S
N459 C460 1.351 . S
C460 C454 1.428 . S
C460 N459 1.351 . S
C460 C461 1.434 . S
C461 C452 1.429 . S
C461 N458 1.350 . S
C461 C460 1.434 . S
C462 C463 1.369 . S
C462 C464 1.419 . S
C462 H466 0.930 . S
C463 C462 1.369 . S
C463 C472 1.429 . S
C464 C462 1.419 . S
C464 C465 1.363 . S
C464 H467 0.929 . S
C465 C464 1.363 . S
C465 C471 1.428 . S
H466 C462 0.930 . S
H467 C464 0.929 . S
S468 N469 1.613 . S
S468 N470 1.610 . S
N469 S468 1.613 . S
N469 C472 1.350 . S
N470 S468 1.610 . S
N470 C471 1.351 . S
C471 C465 1.428 . S
C471 N470 1.351 . S
C471 C472 1.434 . S
C472 C463 1.429 . S
C472 N469 1.350 . S
C472 C471 1.434 . S
C473 C474 1.369 . S
C473 C475 1.419 . S
C473 H477 0.930 . S
C474 C473 1.369 . S
C474 C483 1.429 . S
C475 C473 1.419 . S
C475 C476 1.363 . S
C475 H478 0.929 . S
C476 C475 1.363 . S
C476 C482 1.428 . S
H477 C473 0.930 . S
H478 C475 0.929 . S
S479 N480 1.613 . S
S479 N481 1.610 . S
N480 S479 1.613 . S
N480 C483 1.350 . S
N481 S479 1.610 . S
N481 C482 1.351 . S
C482 C476 1.428 . S
C482 N481 1.351 . S
C482 C483 1.434 . S
C483 C474 1.429 . S
C483 N480 1.350 . S
C483 C482 1.434 . S
C484 C485 1.369 . S
C484 C486 1.419 . S
C484 H488 0.930 . S
C485 C484 1.369 . S
C485 C494 1.429 . S
C486 C484 1.419 . S
C486 C487 1.363 . S
C486 H489 0.929 . S
C487 C486 1.363 . S
C487 C493 1.428 . S
H488 C484 0.930 . S
H489 C486 0.929 . S
S490 N491 1.613 . S
S490 N492 1.610 . S
N491 S490 1.613 . S
N491 C494 1.350 . S
N492 S490 1.610 . S
N492 C493 1.351 . S
C493 C487 1.428 . S
C493 N492 1.351 . S
C493 C494 1.434 . S
C494 C485 1.429 . S
C494 N491 1.350 . S
C494 C493 1.434 . S
C495 C496 1.369 . S
C495 C497 1.419 . S
C495 H499 0.930 . S
C496 C495 1.369 . S
C496 C505 1.429 . S
C497 C495 1.419 . S
C497 C498 1.363 . S
C497 H500 0.929 . S
C498 C497 1.363 . S
C498 C504 1.428 . S
H499 C495 0.930 . S
H500 C497 0.929 . S
S501 N502 1.613 . S
S501 N503 1.610 . S
N502 S501 1.613 . S
N502 C505 1.350 . S
N503 S501 1.610 . S
N503 C504 1.351 . S
C504 C498 1.428 . S
C504 N503 1.351 . S
C504 C505 1.434 . S
C505 C496 1.429 . S
C505 N502 1.350 . S
C505 C504 1.434 . S
C506 C507 1.369 . S
C506 C508 1.419 . S
C506 H510 0.930 . S
C507 C506 1.369 . S
C507 C516 1.429 . S
C508 C506 1.419 . S
C508 C509 1.363 . S
C508 H511 0.929 . S
C509 C508 1.363 . S
C509 C515 1.428 . S
H510 C506 0.930 . S
H511 C508 0.929 . S
S512 N513 1.613 . S
S512 N514 1.610 . S
N513 S512 1.613 . S
N513 C516 1.350 . S
N514 S512 1.610 . S
N514 C515 1.351 . S
C515 C509 1.428 . S
C515 N514 1.351 . S
C515 C516 1.434 . S
C516 C507 1.429 . S
C516 N513 1.350 . S
C516 C515 1.434 . S
C517 C518 1.369 . S
C517 C519 1.419 . S
C517 H521 0.930 . S
C518 C517 1.369 . S
C518 C527 1.429 . S
C519 C517 1.419 . S
C519 C520 1.363 . S
C519 H522 0.929 . S
C520 C519 1.363 . S
C520 C526 1.428 . S
H521 C517 0.930 . S
H522 C519 0.929 . S
S523 N524 1.613 . S
S523 N525 1.610 . S
N524 S523 1.613 . S
N524 C527 1.350 . S
N525 S523 1.610 . S
N525 C526 1.351 . S
C526 C520 1.428 . S
C526 N525 1.351 . S
C526 C527 1.434 . S
C527 C518 1.429 . S
C527 N524 1.350 . S
C527 C526 1.434 . S
C528 C529 1.369 . S
C528 C530 1.419 . S
C528 H532 0.930 . S
C529 C528 1.369 . S
C529 C538 1.429 . S
C530 C528 1.419 . S
C530 C531 1.363 . S
C530 H533 0.929 . S
C531 C530 1.363 . S
C531 C537 1.428 . S
H532 C528 0.930 . S
H533 C530 0.929 . S
S534 N535 1.613 . S
S534 N536 1.610 . S
N535 S534 1.613 . S
N535 C538 1.350 . S
N536 S534 1.610 . S
N536 C537 1.351 . S
C537 C531 1.428 . S
C537 N536 1.351 . S
C537 C538 1.434 . S
C538 C529 1.429 . S
C538 N535 1.350 . S
C538 C537 1.434 . S
C539 C540 1.369 . S
C539 C541 1.419 . S
C539 H543 0.930 . S
C540 C539 1.369 . S
C540 C549 1.429 . S
C541 C539 1.419 . S
C541 C542 1.363 . S
C541 H544 0.929 . S
C542 C541 1.363 . S
C542 C548 1.428 . S
H543 C539 0.930 . S
H544 C541 0.929 . S
S545 N546 1.613 . S
S545 N547 1.610 . S
N546 S545 1.613 . S
N546 C549 1.350 . S
N547 S545 1.610 . S
N547 C548 1.351 . S
C548 C542 1.428 . S
C548 N547 1.351 . S
C548 C549 1.434 . S
C549 C540 1.429 . S
C549 N546 1.350 . S
C549 C548 1.434 . S
C550 C551 1.369 . S
C550 C552 1.419 . S
C550 H554 0.930 . S
C551 C550 1.369 . S
C551 C560 1.429 . S
C552 C550 1.419 . S
C552 C553 1.363 . S
C552 H555 0.929 . S
C553 C552 1.363 . S
C553 C559 1.428 . S
H554 C550 0.930 . S
H555 C552 0.929 . S
S556 N557 1.613 . S
S556 N558 1.610 . S
N557 S556 1.613 . S
N557 C560 1.350 . S
N558 S556 1.610 . S
N558 C559 1.351 . S
C559 C553 1.428 . S
C559 N558 1.351 . S
C559 C560 1.434 . S
C560 C551 1.429 . S
C560 N557 1.350 . S
C560 C559 1.434 . S
C561 C562 1.369 . S
C561 C563 1.419 . S
C561 H565 0.930 . S
C562 C561 1.369 . S
C562 C571 1.429 . S
C563 C561 1.419 . S
C563 C564 1.363 . S
C563 H566 0.929 . S
C564 C563 1.363 . S
C564 C570 1.428 . S
H565 C561 0.930 . S
H566 C563 0.929 . S
S567 N568 1.613 . S
S567 N569 1.610 . S
N568 S567 1.613 . S
N568 C571 1.350 . S
N569 S567 1.610 . S
N569 C570 1.351 . S
C570 C564 1.428 . S
C570 N569 1.351 . S
C570 C571 1.434 . S
C571 C562 1.429 . S
C571 N568 1.350 . S
C571 C570 1.434 . S
C572 C573 1.369 . S
C572 C574 1.419 . S
C572 H576 0.930 . S
C573 C572 1.369 . S
C573 C582 1.429 . S
C574 C572 1.419 . S
C574 C575 1.363 . S
C574 H577 0.929 . S
C575 C574 1.363 . S
C575 C581 1.428 . S
H576 C572 0.930 . S
H577 C574 0.929 . S
S578 N579 1.613 . S
S578 N580 1.610 . S
N579 S578 1.613 . S
N579 C582 1.350 . S
N580 S578 1.610 . S
N580 C581 1.351 . S
C581 C575 1.428 . S
C581 N580 1.351 . S
C581 C582 1.434 . S
C582 C573 1.429 . S
C582 N579 1.350 . S
C582 C581 1.434 . S
C583 C584 1.369 . S
C583 C585 1.419 . S
C583 H587 0.930 . S
C584 C583 1.369 . S
C584 C593 1.429 . S
C585 C583 1.419 . S
C585 C586 1.363 . S
C585 H588 0.929 . S
C586 C585 1.363 . S
C586 C592 1.428 . S
H587 C583 0.930 . S
H588 C585 0.929 . S
S589 N590 1.613 . S
S589 N591 1.610 . S
N590 S589 1.613 . S
N590 C593 1.350 . S
N591 S589 1.610 . S
N591 C592 1.351 . S
C592 C586 1.428 . S
C592 N591 1.351 . S
C592 C593 1.434 . S
C593 C584 1.429 . S
C593 N590 1.350 . S
C593 C592 1.434 . S
C594 C595 1.369 . S
C594 C596 1.419 . S
C594 H598 0.930 . S
C595 C594 1.369 . S
C595 C604 1.429 . S
C596 C594 1.419 . S
C596 C597 1.363 . S
C596 H599 0.929 . S
C597 C596 1.363 . S
C597 C603 1.428 . S
H598 C594 0.930 . S
H599 C596 0.929 . S
S600 N601 1.613 . S
S600 N602 1.610 . S
N601 S600 1.613 . S
N601 C604 1.350 . S
N602 S600 1.610 . S
N602 C603 1.351 . S
C603 C597 1.428 . S
C603 N602 1.351 . S
C603 C604 1.434 . S
C604 C595 1.429 . S
C604 N601 1.350 . S
C604 C603 1.434 . S
C605 C606 1.369 . S
C605 C607 1.419 . S
C605 H609 0.930 . S
C606 C605 1.369 . S
C606 C615 1.429 . S
C607 C605 1.419 . S
C607 C608 1.363 . S
C607 H610 0.929 . S
C608 C607 1.363 . S
C608 C614 1.428 . S
H609 C605 0.930 . S
H610 C607 0.929 . S
S611 N612 1.613 . S
S611 N613 1.610 . S
N612 S611 1.613 . S
N612 C615 1.350 . S
N613 S611 1.610 . S
N613 C614 1.351 . S
C614 C608 1.428 . S
C614 N613 1.351 . S
C614 C615 1.434 . S
C615 C606 1.429 . S
C615 N612 1.350 . S
C615 C614 1.434 . S
C616 C617 1.369 . S
C616 C618 1.419 . S
C616 H620 0.930 . S
C617 C616 1.369 . S
C617 C626 1.429 . S
C618 C616 1.419 . S
C618 C619 1.363 . S
C618 H621 0.929 . S
C619 C618 1.363 . S
C619 C625 1.428 . S
H620 C616 0.930 . S
H621 C618 0.929 . S
S622 N623 1.613 . S
S622 N624 1.610 . S
N623 S622 1.613 . S
N623 C626 1.350 . S
N624 S622 1.610 . S
N624 C625 1.351 . S
C625 C619 1.428 . S
C625 N624 1.351 . S
C625 C626 1.434 . S
C626 C617 1.429 . S
C626 N623 1.350 . S
C626 C625 1.434 . S
C627 C628 1.369 . S
C627 C629 1.419 . S
C627 H631 0.930 . S
C628 C627 1.369 . S
C628 C637 1.429 . S
C629 C627 1.419 . S
C629 C630 1.363 . S
C629 H632 0.929 . S
C630 C629 1.363 . S
C630 C636 1.428 . S
H631 C627 0.930 . S
H632 C629 0.929 . S
S633 N634 1.613 . S
S633 N635 1.610 . S
N634 S633 1.613 . S
N634 C637 1.350 . S
N635 S633 1.610 . S
N635 C636 1.351 . S
C636 C630 1.428 . S
C636 N635 1.351 . S
C636 C637 1.434 . S
C637 C628 1.429 . S
C637 N634 1.350 . S
C637 C636 1.434 . S
C638 C639 1.369 . S
C638 C640 1.419 . S
C638 H642 0.930 . S
C639 C638 1.369 . S
C639 C648 1.429 . S
C640 C638 1.419 . S
C640 C641 1.363 . S
C640 H643 0.929 . S
C641 C640 1.363 . S
C641 C647 1.428 . S
H642 C638 0.930 . S
H643 C640 0.929 . S
S644 N645 1.613 . S
S644 N646 1.610 . S
N645 S644 1.613 . S
N645 C648 1.350 . S
N646 S644 1.610 . S
N646 C647 1.351 . S
C647 C641 1.428 . S
C647 N646 1.351 . S
C647 C648 1.434 . S
C648 C639 1.429 . S
C648 N645 1.350 . S
C648 C647 1.434 . S
C649 C650 1.369 . S
C649 C651 1.419 . S
C649 H653 0.930 . S
C650 C649 1.369 . S
C650 C659 1.429 . S
C651 C649 1.419 . S
C651 C652 1.363 . S
C651 H654 0.929 . S
C652 C651 1.363 . S
C652 C658 1.428 . S
H653 C649 0.930 . S
H654 C651 0.929 . S
S655 N656 1.613 . S
S655 N657 1.610 . S
N656 S655 1.613 . S
N656 C659 1.350 . S
N657 S655 1.610 . S
N657 C658 1.351 . S
C658 C652 1.428 . S
C658 N657 1.351 . S
C658 C659 1.434 . S
C659 C650 1.429 . S
C659 N656 1.350 . S
C659 C658 1.434 . S
C660 C661 1.366 1_545 S
C660 C662 1.419 . S
C660 H664 0.930 . S
C661 C660 1.366 1_565 S
C661 C670 1.431 . S
C662 C660 1.419 . S
C662 C663 1.364 1_545 S
C662 H665 0.929 . S
C663 C662 1.364 1_565 S
C663 C669 1.427 . S
H664 C660 0.930 . S
H665 C662 0.929 . S
S666 N667 1.613 . S
S666 N668 1.610 . S
N667 S666 1.613 . S
N667 C670 1.350 . S
N668 S666 1.610 . S
N668 C669 1.351 . S
C669 C663 1.427 . S
C669 N668 1.351 . S
C669 C670 1.434 . S
C670 C661 1.431 . S
C670 N667 1.350 . S
C670 C669 1.434 . S
C671 C672 1.359 1_455 S
C671 C673 1.419 . S
C671 H675 0.930 . S
C672 C671 1.359 1_655 S
C672 C681 1.438 . S
C673 C671 1.419 . S
C673 C674 1.354 1_455 S
C673 H676 0.929 . S
C674 C673 1.354 1_655 S
C674 C680 1.439 . S
H675 C671 0.930 . S
H676 C673 0.929 . S
S677 N678 1.613 . S
S677 N679 1.610 . S
N678 S677 1.613 . S
N678 C681 1.350 . S
N679 S677 1.610 . S
N679 C680 1.351 . S
C680 C674 1.439 . S
C680 N679 1.351 . S
C680 C681 1.434 . S
C681 C672 1.438 . S
C681 N678 1.350 . S
C681 C680 1.434 . S
C682 C683 1.369 . S
C682 C684 1.419 . S
C682 H686 0.930 . S
C683 C682 1.369 . S
C683 C692 1.429 . S
C684 C682 1.419 . S
C684 C685 1.363 . S
C684 H687 0.929 . S
C685 C684 1.363 . S
C685 C691 1.428 . S
H686 C682 0.930 . S
H687 C684 0.929 . S
S688 N689 1.613 . S
S688 N690 1.610 . S
N689 S688 1.613 . S
N689 C692 1.350 . S
N690 S688 1.610 . S
N690 C691 1.351 . S
C691 C685 1.428 . S
C691 N690 1.351 . S
C691 C692 1.434 . S
C692 C683 1.429 . S
C692 N689 1.350 . S
C692 C691 1.434 . S
C693 C694 1.369 . S
C693 C695 1.419 . S
C693 H697 0.930 . S
C694 C693 1.369 . S
C694 C703 1.429 . S
C695 C693 1.419 . S
C695 C696 1.363 . S
C695 H698 0.929 . S
C696 C695 1.363 . S
C696 C702 1.428 . S
H697 C693 0.930 . S
H698 C695 0.929 . S
S699 N700 1.613 . S
S699 N701 1.610 . S
N700 S699 1.613 . S
N700 C703 1.350 . S
N701 S699 1.610 . S
N701 C702 1.351 . S
C702 C696 1.428 . S
C702 N701 1.351 . S
C702 C703 1.434 . S
C703 C694 1.429 . S
C703 N700 1.350 . S
C703 C702 1.434 . S
C704 C705 1.369 . S
C704 C706 1.419 . S
C704 H708 0.930 . S
C705 C704 1.369 . S
C705 C714 1.429 . S
C706 C704 1.419 . S
C706 C707 1.363 1_545 S
C706 H709 0.929 . S
C707 C706 1.363 1_565 S
C707 C713 1.428 . S
H708 C704 0.930 . S
H709 C706 0.929 . S
S710 N711 1.613 1_565 S
S710 N712 1.610 . S
N711 S710 1.613 1_545 S
N711 C714 1.350 . S
N712 S710 1.610 . S
N712 C713 1.351 . S
C713 C707 1.428 . S
C713 N712 1.351 . S
C713 C714 1.434 1_565 S
C714 C705 1.429 . S
C714 N711 1.350 . S
C714 C713 1.434 1_545 S
C715 C716 1.369 . S
C715 C717 1.419 . S
C715 H719 0.930 . S
C716 C715 1.369 . S
C716 C725 1.429 . S
C717 C715 1.419 . S
C717 C718 1.363 1_655 S
C717 H720 0.929 . S
C718 C717 1.363 1_455 S
C718 C724 1.435 1_455 S
H719 C715 0.930 . S
H720 C717 0.929 . S
S721 N722 1.598 1_455 S
S721 N723 1.609 . S
N722 S721 1.598 1_655 S
N722 C725 1.350 . S
N723 S721 1.609 . S
N723 C724 1.335 1_455 S
C724 C718 1.435 1_655 S
C724 N723 1.335 1_655 S
C724 C725 1.443 . S
C725 C716 1.429 . S
C725 N722 1.350 . S
C725 C724 1.443 . S
C726 C727 1.369 . S
C726 C728 1.419 . S
C726 H730 0.930 . S
C727 C726 1.369 . S
C727 C736 1.429 . S
C728 C726 1.419 . S
C728 C729 1.363 . S
C728 H731 0.929 . S
C729 C728 1.363 . S
C729 C735 1.428 . S
H730 C726 0.930 . S
H731 C728 0.929 . S
S732 N733 1.613 . S
S732 N734 1.610 . S
N733 S732 1.613 . S
N733 C736 1.350 . S
N734 S732 1.610 . S
N734 C735 1.351 . S
C735 C729 1.428 . S
C735 N734 1.351 . S
C735 C736 1.434 . S
C736 C727 1.429 . S
C736 N733 1.350 . S
C736 C735 1.434 . S
C737 C738 1.369 . S
C737 C739 1.419 1_565 S
C737 H741 0.930 . S
C738 C737 1.369 . S
C738 C747 1.429 . S
C739 C737 1.419 1_545 S
C739 C740 1.363 . S
C739 H742 0.929 . S
C740 C739 1.363 . S
C740 C746 1.428 1_545 S
H741 C737 0.930 . S
H742 C739 0.929 . S
S743 N744 1.613 . S
S743 N745 1.610 . S
N744 S743 1.613 . S
N744 C747 1.350 . S
N745 S743 1.610 . S
N745 C746 1.351 . S
C746 C740 1.428 1_565 S
C746 N745 1.351 . S
C746 C747 1.434 . S
C747 C738 1.429 . S
C747 N744 1.350 . S
C747 C746 1.434 . S
C748 C749 1.369 . S
C748 C750 1.419 1_655 S
C748 H752 0.930 . S
C749 C748 1.369 . S
C749 C758 1.429 1_655 S
C750 C748 1.419 1_455 S
C750 C751 1.363 . S
C750 H753 0.929 . S
C751 C750 1.363 . S
C751 C757 1.428 . S
H752 C748 0.930 . S
H753 C750 0.929 . S
S754 N755 1.613 . S
S754 N756 1.610 . S
N755 S754 1.613 . S
N755 C758 1.350 . S
N756 S754 1.610 . S
N756 C757 1.351 . S
C757 C751 1.428 . S
C757 N756 1.351 . S
C757 C758 1.434 . S
C758 C749 1.429 1_455 S
C758 N755 1.350 . S
C758 C757 1.434 . S
C759 C760 1.369 . S
C759 C761 1.419 . S
C759 H763 0.930 . S
C760 C759 1.369 . S
C760 C769 1.429 . S
C761 C759 1.419 . S
C761 C762 1.363 1_655 S
C761 H764 0.929 1_655 S
C762 C761 1.363 1_455 S
C762 C768 1.428 1_455 S
H763 C759 0.930 . S
H764 C761 0.929 1_455 S
S765 N766 1.613 . S
S765 N767 1.610 . S
N766 S765 1.613 . S
N766 C769 1.350 . S
N767 S765 1.610 . S
N767 C768 1.351 . S
C768 C762 1.428 1_655 S
C768 N767 1.351 . S
C768 C769 1.434 . S
C769 C760 1.429 . S
C769 N766 1.350 . S
C769 C768 1.434 . S
C770 C771 1.369 . S
C770 C772 1.419 . S
C770 H774 0.930 . S
C771 C770 1.369 . S
C771 C780 1.429 . S
C772 C770 1.419 . S
C772 C773 1.363 . S
C772 H775 0.929 . S
C773 C772 1.363 . S
C773 C779 1.428 . S
H774 C770 0.930 . S
H775 C772 0.929 . S
S776 N777 1.613 . S
S776 N778 1.610 . S
N777 S776 1.613 . S
N777 C780 1.350 . S
N778 S776 1.610 . S
N778 C779 1.351 . S
C779 C773 1.428 . S
C779 N778 1.351 . S
C779 C780 1.434 . S
C780 C771 1.429 . S
C780 N777 1.350 . S
C780 C779 1.434 . S
C781 C782 1.369 . S
C781 C783 1.419 . S
C781 H785 0.930 . S
C782 C781 1.369 . S
C782 C791 1.429 . S
C783 C781 1.419 . S
C783 C784 1.363 1_545 S
C783 H786 0.929 . S
C784 C783 1.363 1_565 S
C784 C790 1.428 . S
H785 C781 0.930 . S
H786 C783 0.929 . S
S787 N788 1.613 1_565 S
S787 N789 1.610 . S
N788 S787 1.613 1_545 S
N788 C791 1.350 . S
N789 S787 1.610 . S
N789 C790 1.351 . S
C790 C784 1.428 . S
C790 N789 1.351 . S
C790 C791 1.434 1_565 S
C791 C782 1.429 . S
C791 N788 1.350 . S
C791 C790 1.434 1_545 S
C792 C793 1.369 . S
C792 C794 1.419 . S
C792 H796 0.930 . S
C793 C792 1.369 . S
C793 C802 1.429 . S
C794 C792 1.419 . S
C794 C795 1.363 . S
C794 H797 0.929 . S
C795 C794 1.363 . S
C795 C801 1.428 . S
H796 C792 0.930 . S
H797 C794 0.929 . S
S798 N799 1.613 . S
S798 N800 1.610 . S
N799 S798 1.613 . S
N799 C802 1.350 1_565 S
N800 S798 1.610 . S
N800 C801 1.351 1_565 S
C801 C795 1.428 . S
C801 N800 1.351 1_545 S
C801 C802 1.434 . S
C802 C793 1.429 . S
C802 N799 1.350 1_545 S
C802 C801 1.434 . S
C803 C804 1.369 . S
C803 C805 1.419 . S
C803 H807 0.930 . S
C804 C803 1.369 . S
C804 C813 1.429 . S
C805 C803 1.419 . S
C805 C806 1.363 . S
C805 H808 0.929 . S
C806 C805 1.363 . S
C806 C812 1.428 . S
H807 C803 0.930 . S
H808 C805 0.929 . S
S809 N810 1.613 . S
S809 N811 1.610 . S
N810 S809 1.613 . S
N810 C813 1.350 1_455 S
N811 S809 1.610 . S
N811 C812 1.351 1_455 S
C812 C806 1.428 . S
C812 N811 1.351 1_655 S
C812 C813 1.434 . S
C813 C804 1.429 . S
C813 N810 1.350 1_655 S
C813 C812 1.434 . S
C814 C815 1.369 . S
C814 C816 1.419 . S
C814 H818 0.930 . S
C815 C814 1.369 . S
C815 C824 1.429 . S
C816 C814 1.419 . S
C816 C817 1.363 . S
C816 H819 0.929 . S
C817 C816 1.363 . S
C817 C823 1.428 . S
H818 C814 0.930 . S
H819 C816 0.929 . S
S820 N821 1.613 . S
S820 N822 1.610 . S
N821 S820 1.613 . S
N821 C824 1.350 . S
N822 S820 1.610 . S
N822 C823 1.351 . S
C823 C817 1.428 . S
C823 N822 1.351 . S
C823 C824 1.434 . S
C824 C815 1.429 . S
C824 N821 1.350 . S
C824 C823 1.434 . S
C825 C826 1.369 . S
C825 C827 1.419 . S
C825 H829 0.930 . S
C826 C825 1.369 . S
C826 C835 1.429 . S
C827 C825 1.419 . S
C827 C828 1.363 . S
C827 H830 0.929 . S
C828 C827 1.363 . S
C828 C834 1.428 . S
H829 C825 0.930 . S
H830 C827 0.929 . S
S831 N832 1.613 . S
S831 N833 1.610 . S
N832 S831 1.613 . S
N832 C835 1.350 1_545 S
N833 S831 1.610 . S
N833 C834 1.351 1_545 S
C834 C828 1.428 . S
C834 N833 1.351 1_565 S
C834 C835 1.434 . S
C835 C826 1.429 . S
C835 N832 1.350 1_565 S
C835 C834 1.434 . S
C836 C837 1.369 . S
C836 C838 1.419 . S
C836 H840 0.930 . S
C837 C836 1.369 . S
C837 C846 1.429 . S
C838 C836 1.419 . S
C838 C839 1.363 . S
C838 H841 0.929 . S
C839 C838 1.363 . S
C839 C845 1.428 . S
H840 C836 0.930 . S
H841 C838 0.929 . S
S842 N843 1.613 1_554 S
S842 N844 1.610 1_554 S
N843 S842 1.613 1_556 S
N843 C846 1.350 . S
N844 S842 1.610 1_556 S
N844 C845 1.351 . S
C845 C839 1.428 . S
C845 N844 1.351 . S
C845 C846 1.434 . S
C846 C837 1.429 . S
C846 N843 1.350 . S
C846 C845 1.434 . S
C847 C848 1.369 . S
C847 C849 1.419 . S
C847 H851 0.930 . S
C848 C847 1.369 . S
C848 C857 1.429 . S
C849 C847 1.419 . S
C849 C850 1.363 . S
C849 H852 0.929 . S
C850 C849 1.363 . S
C850 C856 1.428 . S
H851 C847 0.930 . S
H852 C849 0.929 . S
S853 N854 1.613 . S
S853 N855 1.611 1_554 S
N854 S853 1.613 . S
N854 C857 1.350 1_554 S
N855 S853 1.611 1_556 S
N855 C856 1.350 . S
C856 C850 1.428 . S
C856 N855 1.350 . S
C856 C857 1.434 . S
C857 C848 1.429 . S
C857 N854 1.350 1_556 S
C857 C856 1.434 . S
C858 C859 1.369 1_455 S
C858 C860 1.419 . S
C858 H862 0.930 1_455 S
C859 C858 1.369 1_655 S
C859 C868 1.429 1_655 S
C860 C858 1.419 . S
C860 C861 1.363 . S
C860 H863 0.929 . S
C861 C860 1.363 . S
C861 C867 1.428 . S
H862 C858 0.930 1_655 S
H863 C860 0.929 . S
S864 N865 1.613 . S
S864 N866 1.610 . S
N865 S864 1.613 . S
N865 C868 1.350 . S
N866 S864 1.610 . S
N866 C867 1.351 . S
C867 C861 1.428 . S
C867 N866 1.351 . S
C867 C868 1.434 . S
C868 C859 1.429 1_455 S
C868 N865 1.350 . S
C868 C867 1.434 . S
C869 C870 1.369 . S
C869 C871 1.419 . S
C869 H873 0.930 . S
C870 C869 1.369 . S
C870 C879 1.429 . S
C871 C869 1.419 . S
C871 C872 1.363 . S
C871 H874 0.929 . S
C872 C871 1.363 . S
C872 C878 1.428 . S
H873 C869 0.930 . S
H874 C871 0.929 . S
S875 N876 1.613 . S
S875 N877 1.610 . S
N876 S875 1.613 . S
N876 C879 1.350 . S
N877 S875 1.610 . S
N877 C878 1.351 . S
C878 C872 1.428 . S
C878 N877 1.351 . S
C878 C879 1.434 . S
C879 C870 1.429 . S
C879 N876 1.350 . S
C879 C878 1.434 . S
C880 C881 1.369 1_565 S
C880 C882 1.419 . S
C880 H884 0.930 . S
C881 C880 1.369 1_545 S
C881 C890 1.429 . S
C882 C880 1.419 . S
C882 C883 1.363 . S
C882 H885 0.929 . S
C883 C882 1.363 . S
C883 C889 1.428 . S
H884 C880 0.930 . S
H885 C882 0.929 . S
S886 N887 1.613 . S
S886 N888 1.610 1_545 S
N887 S886 1.613 . S
N887 C890 1.350 . S
N888 S886 1.610 1_565 S
N888 C889 1.351 . S
C889 C883 1.428 . S
C889 N888 1.351 . S
C889 C890 1.434 1_565 S
C890 C881 1.429 . S
C890 N887 1.350 . S
C890 C889 1.434 1_545 S
C891 C892 1.369 . S
C891 C893 1.419 . S
C891 H895 0.930 . S
C892 C891 1.369 . S
C892 C901 1.429 . S
C893 C891 1.419 . S
C893 C894 1.363 . S
C893 H896 0.929 . S
C894 C893 1.363 . S
C894 C900 1.428 . S
H895 C891 0.930 . S
H896 C893 0.929 . S
S897 N898 1.613 . S
S897 N899 1.610 . S
N898 S897 1.613 . S
N898 C901 1.350 . S
N899 S897 1.610 . S
N899 C900 1.351 . S
C900 C894 1.428 . S
C900 N899 1.351 . S
C900 C901 1.434 . S
C901 C892 1.429 . S
C901 N898 1.350 . S
C901 C900 1.434 . S
C902 C903 1.369 . S
C902 C904 1.419 . S
C902 H906 0.930 . S
C903 C902 1.369 . S
C903 C912 1.429 . S
C904 C902 1.419 . S
C904 C905 1.363 . S
C904 H907 0.929 . S
C905 C904 1.363 . S
C905 C911 1.428 . S
H906 C902 0.930 . S
H907 C904 0.929 . S
S908 N909 1.613 . S
S908 N910 1.610 . S
N909 S908 1.613 . S
N909 C912 1.350 . S
N910 S908 1.610 . S
N910 C911 1.351 . S
C911 C905 1.428 . S
C911 N910 1.351 . S
C911 C912 1.434 . S
C912 C903 1.429 . S
C912 N909 1.350 . S
C912 C911 1.434 . S
C913 C914 1.369 . S
C913 C915 1.419 . S
C913 H917 0.930 . S
C914 C913 1.369 . S
C914 C923 1.429 . S
C915 C913 1.419 . S
C915 C916 1.363 . S
C915 H918 0.929 . S
C916 C915 1.363 . S
C916 C922 1.428 . S
H917 C913 0.930 . S
H918 C915 0.929 . S
S919 N920 1.613 . S
S919 N921 1.610 . S
N920 S919 1.613 . S
N920 C923 1.350 . S
N921 S919 1.610 . S
N921 C922 1.351 . S
C922 C916 1.428 . S
C922 N921 1.351 . S
C922 C923 1.434 . S
C923 C914 1.429 . S
C923 N920 1.350 . S
C923 C922 1.434 . S
C924 C925 1.369 . S
C924 C926 1.419 . S
C924 H928 0.930 . S
C925 C924 1.369 . S
C925 C934 1.429 . S
C926 C924 1.419 . S
C926 C927 1.363 . S
C926 H929 0.929 . S
C927 C926 1.363 . S
C927 C933 1.428 . S
H928 C924 0.930 . S
H929 C926 0.929 . S
S930 N931 1.613 . S
S930 N932 1.610 . S
N931 S930 1.613 . S
N931 C934 1.350 . S
N932 S930 1.610 . S
N932 C933 1.351 . S
C933 C927 1.428 . S
C933 N932 1.351 . S
C933 C934 1.434 . S
C934 C925 1.429 . S
C934 N931 1.350 . S
C934 C933 1.434 . S
C935 C936 1.369 . S
C935 C937 1.419 . S
C935 H939 0.930 . S
C936 C935 1.369 . S
C936 C945 1.429 . S
C937 C935 1.419 . S
C937 C938 1.363 . S
C937 H940 0.929 . S
C938 C937 1.363 . S
C938 C944 1.428 . S
H939 C935 0.930 . S
H940 C937 0.929 . S
S941 N942 1.613 . S
S941 N943 1.610 . S
N942 S941 1.613 . S
N942 C945 1.350 . S
N943 S941 1.610 . S
N943 C944 1.351 . S
C944 C938 1.428 . S
C944 N943 1.351 . S
C944 C945 1.434 . S
C945 C936 1.429 . S
C945 N942 1.350 . S
C945 C944 1.434 . S
C946 C947 1.369 . S
C946 C948 1.419 . S
C946 H950 0.930 . S
C947 C946 1.369 . S
C947 C956 1.429 . S
C948 C946 1.419 . S
C948 C949 1.363 . S
C948 H951 0.929 . S
C949 C948 1.363 . S
C949 C955 1.428 . S
H950 C946 0.930 . S
H951 C948 0.929 . S
S952 N953 1.613 . S
S952 N954 1.610 . S
N953 S952 1.613 . S
N953 C956 1.350 . S
N954 S952 1.610 . S
N954 C955 1.351 . S
C955 C949 1.428 . S
C955 N954 1.351 . S
C955 C956 1.434 . S
C956 C947 1.429 . S
C956 N953 1.350 . S
C956 C955 1.434 . S
C957 C958 1.369 1_565 S
C957 C959 1.419 1_554 S
C957 H961 0.930 . S
C958 C957 1.369 1_545 S
C958 C967 1.429 . S
C959 C957 1.419 1_556 S
C959 C960 1.363 . S
C959 H962 0.929 . S
C960 C959 1.363 . S
C960 C966 1.428 1_565 S
H961 C957 0.930 . S
H962 C959 0.929 . S
S963 N964 1.613 . S
S963 N965 1.610 1_554 S
N964 S963 1.613 . S
N964 C967 1.350 . S
N965 S963 1.610 1_556 S
N965 C966 1.351 . S
C966 C960 1.428 1_545 S
C966 N965 1.351 . S
C966 C967 1.434 1_556 S
C967 C958 1.429 . S
C967 N964 1.350 . S
C967 C966 1.434 1_554 S
C968 C969 1.369 1_455 S
C968 C970 1.419 . S
C968 H972 0.930 . S
C969 C968 1.369 1_655 S
C969 C978 1.429 1_554 S
C970 C968 1.419 . S
C970 C971 1.363 1_554 S
C970 H973 0.929 . S
C971 C970 1.363 1_556 S
C971 C977 1.428 1_455 S
H972 C968 0.930 . S
H973 C970 0.929 . S
S974 N975 1.613 . S
S974 N976 1.610 . S
N975 S974 1.613 . S
N975 C978 1.350 . S
N976 S974 1.610 . S
N976 C977 1.351 . S
C977 C971 1.428 1_655 S
C977 N976 1.351 . S
C977 C978 1.434 . S
C978 C969 1.429 1_556 S
C978 N975 1.350 . S
C978 C977 1.434 . S
C979 C980 1.369 1_554 S
C979 C981 1.419 . S
C979 H983 0.930 . S
C980 C979 1.369 1_556 S
C980 C989 1.429 . S
C981 C979 1.419 . S
C981 C982 1.363 . S
C981 H984 0.929 . S
C982 C981 1.363 . S
C982 C988 1.428 1_554 S
H983 C979 0.930 . S
H984 C981 0.929 . S
S985 N986 1.613 . S
S985 N987 1.610 . S
N986 S985 1.613 . S
N986 C989 1.350 . S
N987 S985 1.610 . S
N987 C988 1.351 . S
C988 C982 1.428 1_556 S
C988 N987 1.351 . S
C988 C989 1.434 . S
C989 C980 1.429 . S
C989 N986 1.350 . S
C989 C988 1.434 . S
C397 C92 1.510 . S
C399 C8 1.508 1_556 S
C408 C30 1.504 1_546 S
C410 C114 1.513 . S
C419 C70 1.513 . S
C421 C52 1.505 1_656 S
C430 C74 1.506 1_554 S
C432 C26 1.513 . S
C441 C96 1.508 1_564 S
C443 C48 1.510 . S
C452 C4 1.512 . S
C454 C118 1.507 1_454 S
C463 C140 1.506 . S
C465 C224 1.513 . S
C474 C246 1.511 . S
C476 C162 1.506 . S
C485 C202 1.510 . S
C487 C184 1.508 . S
C496 C206 1.507 . S
C498 C158 1.511 . S
C507 C180 1.513 . S
C509 C228 1.505 . S
C518 C250 1.508 . S
C520 C136 1.512 . S
C529 C356 1.513 . S
C531 C272 1.505 . S
C540 C294 1.508 . S
C542 C378 1.511 . S
C551 C334 1.510 . S
C553 C316 1.508 . S
C562 C290 1.512 . S
C564 C338 1.508 . S
C573 C360 1.507 . S
C575 C312 1.512 . S
C584 C268 1.513 . S
C586 C382 1.505 . S
C595 C5 1.225 . S
C597 C336 1.212 . S
C606 C27 1.212 . S
C608 C358 1.223 . S
C617 C380 1.212 . S
C619 C49 1.222 . S
C628 C72 1.226 . S
C630 C137 1.211 . S
C639 C94 1.214 . S
C641 C159 1.222 . S
C650 C181 1.224 . S
C652 C116 1.213 . S
C661 C269 1.211 . S
C663 C204 1.226 1_565 S
C672 C291 1.226 1_655 S
C674 C226 1.212 . S
C683 C313 1.210 . S
C685 C248 1.224 . S
C694 C9 1.422 . S
C696 C161 1.290 . S
C705 C183 1.299 . S
C707 C31 1.421 . S
C716 C139 1.300 . S
C718 C53 1.420 . S
C727 C73 1.420 . S
C729 C361 1.298 . S
C738 C383 1.284 . S
C740 C95 1.422 . S
C749 C117 1.422 . S
C751 C339 1.286 . S
C760 C141 1.422 . S
C762 C293 1.293 . S
C771 C163 1.423 . S
C773 C315 1.286 . S
C782 C185 1.420 . S
C784 C271 1.296 . S
C793 C97 1.300 . S
C795 C205 1.420 . S
C804 C119 1.300 . S
C806 C227 1.420 . S
C815 C75 1.285 . S
C817 C249 1.422 . S
C826 C273 1.420 . S
C828 C29 1.298 . S
C837 C295 1.423 . S
C839 C51 1.287 . S
C848 C7 1.287 . S
C850 C317 1.422 . S
C859 C229 1.295 . S
C861 C337 1.421 . S
C870 C359 1.421 . S
C872 C251 1.297 . S
C881 C207 1.299 . S
C883 C381 1.420 . S
C892 C6 1.780 . S
C894 C335 1.787 . S
C903 C28 1.788 . S
C905 C357 1.781 . S
C914 C50 1.780 . S
C916 C379 1.787 . S
C925 C138 1.787 . S
C927 C71 1.782 . S
C936 C93 1.788 . S
C938 C160 1.781 . S
C947 C182 1.784 . S
C949 C115 1.784 . S
C958 C203 1.788 . S
C960 C270 1.781 . S
C969 C225 1.780 . S
C971 C292 1.787 . S
C980 C314 1.783 . S
C982 C247 1.784 . S
