# Generated by pormake.
# Topology wlt, (5)-cn, num edge types: 1
# Building blocks:
#     Node 0, Type 0, BuildingBlock: XOMCOT_clean_sbu_1, # of connection points: 5
#     Node 1, Type 0, BuildingBlock: XOMCOT_clean_sbu_1, # of connection points: 5
#     Node 2, Type 0, BuildingBlock: XOMCOT_clean_sbu_1, # of connection points: 5
#     Node 3, Type 0, BuildingBlock: XOMCOT_clean_sbu_1, # of connection points: 5
#     Node 4, Type 0, BuildingBlock: XOMCOT_clean_sbu_1, # of connection points: 5
#     Node 5, Type 0, BuildingBlock: XOMCOT_clean_sbu_1, # of connection points: 5
#     Node 6, Type 0, BuildingBlock: XOMCOT_clean_sbu_1, # of connection points: 5
#     Node 7, Type 0, BuildingBlock: XOMCOT_clean_sbu_1, # of connection points: 5
#     Node 8, Type 0, BuildingBlock: XOMCOT_clean_sbu_1, # of connection points: 5
#     Node 9, Type 0, BuildingBlock: XOMCOT_clean_sbu_1, # of connection points: 5
#     Node 10, Type 0, BuildingBlock: XOMCOT_clean_sbu_1, # of connection points: 5
#     Node 11, Type 0, BuildingBlock: XOMCOT_clean_sbu_1, # of connection points: 5
#     Node 12, Type 0, BuildingBlock: XOMCOT_clean_sbu_1, # of connection points: 5
#     Node 13, Type 0, BuildingBlock: XOMCOT_clean_sbu_1, # of connection points: 5
#     Node 14, Type 0, BuildingBlock: XOMCOT_clean_sbu_1, # of connection points: 5
#     Node 15, Type 0, BuildingBlock: XOMCOT_clean_sbu_1, # of connection points: 5
#     Node 16, Type 0, BuildingBlock: XOMCOT_clean_sbu_1, # of connection points: 5
#     Node 17, Type 0, BuildingBlock: XOMCOT_clean_sbu_1, # of connection points: 5
#     Node 18, Type 0, BuildingBlock: XOMCOT_clean_sbu_1, # of connection points: 5
#     Node 19, Type 0, BuildingBlock: XOMCOT_clean_sbu_1, # of connection points: 5
#     Node 20, Type 0, BuildingBlock: XOMCOT_clean_sbu_1, # of connection points: 5
#     Node 21, Type 0, BuildingBlock: XOMCOT_clean_sbu_1, # of connection points: 5
#     Node 22, Type 0, BuildingBlock: XOMCOT_clean_sbu_1, # of connection points: 5
#     Node 23, Type 0, BuildingBlock: XOMCOT_clean_sbu_1, # of connection points: 5
#     Node 24, Type 0, BuildingBlock: XOMCOT_clean_sbu_1, # of connection points: 5
#     Node 25, Type 0, BuildingBlock: XOMCOT_clean_sbu_1, # of connection points: 5
#     Node 26, Type 0, BuildingBlock: XOMCOT_clean_sbu_1, # of connection points: 5
#     Node 27, Type 0, BuildingBlock: XOMCOT_clean_sbu_1, # of connection points: 5
#     Node 28, Type 0, BuildingBlock: XOMCOT_clean_sbu_1, # of connection points: 5
#     Node 29, Type 0, BuildingBlock: XOMCOT_clean_sbu_1, # of connection points: 5
#     Node 30, Type 0, BuildingBlock: XOMCOT_clean_sbu_1, # of connection points: 5
#     Node 31, Type 0, BuildingBlock: XOMCOT_clean_sbu_1, # of connection points: 5
#     Node 32, Type 0, BuildingBlock: XOMCOT_clean_sbu_1, # of connection points: 5
#     Node 33, Type 0, BuildingBlock: XOMCOT_clean_sbu_1, # of connection points: 5
#     Node 34, Type 0, BuildingBlock: XOMCOT_clean_sbu_1, # of connection points: 5
#     Node 35, Type 0, BuildingBlock: XOMCOT_clean_sbu_1, # of connection points: 5
#     Edge 36, Type (0, 0), BuildingBlock: KIFKEQ_clean_linker_1, # of connection points: 2
#     Edge 37, Type (0, 0), BuildingBlock: KIFKEQ_clean_linker_1, # of connection points: 2
#     Edge 38, Type (0, 0), BuildingBlock: KIFKEQ_clean_linker_1, # of connection points: 2
#     Edge 39, Type (0, 0), BuildingBlock: KIFKEQ_clean_linker_1, # of connection points: 2
#     Edge 40, Type (0, 0), BuildingBlock: KIFKEQ_clean_linker_1, # of connection points: 2
#     Edge 41, Type (0, 0), BuildingBlock: KIFKEQ_clean_linker_1, # of connection points: 2
#     Edge 42, Type (0, 0), BuildingBlock: KIFKEQ_clean_linker_1, # of connection points: 2
#     Edge 43, Type (0, 0), BuildingBlock: KIFKEQ_clean_linker_1, # of connection points: 2
#     Edge 44, Type (0, 0), BuildingBlock: KIFKEQ_clean_linker_1, # of connection points: 2
#     Edge 45, Type (0, 0), BuildingBlock: KIFKEQ_clean_linker_1, # of connection points: 2
#     Edge 46, Type (0, 0), BuildingBlock: KIFKEQ_clean_linker_1, # of connection points: 2
#     Edge 47, Type (0, 0), BuildingBlock: KIFKEQ_clean_linker_1, # of connection points: 2
#     Edge 48, Type (0, 0), BuildingBlock: KIFKEQ_clean_linker_1, # of connection points: 2
#     Edge 49, Type (0, 0), BuildingBlock: KIFKEQ_clean_linker_1, # of connection points: 2
#     Edge 50, Type (0, 0), BuildingBlock: KIFKEQ_clean_linker_1, # of connection points: 2
#     Edge 51, Type (0, 0), BuildingBlock: KIFKEQ_clean_linker_1, # of connection points: 2
#     Edge 52, Type (0, 0), BuildingBlock: KIFKEQ_clean_linker_1, # of connection points: 2
#     Edge 53, Type (0, 0), BuildingBlock: KIFKEQ_clean_linker_1, # of connection points: 2
#     Edge 54, Type (0, 0), BuildingBlock: KIFKEQ_clean_linker_1, # of connection points: 2
#     Edge 55, Type (0, 0), BuildingBlock: KIFKEQ_clean_linker_1, # of connection points: 2
#     Edge 56, Type (0, 0), BuildingBlock: KIFKEQ_clean_linker_1, # of connection points: 2
#     Edge 57, Type (0, 0), BuildingBlock: KIFKEQ_clean_linker_1, # of connection points: 2
#     Edge 58, Type (0, 0), BuildingBlock: KIFKEQ_clean_linker_1, # of connection points: 2
#     Edge 59, Type (0, 0), BuildingBlock: KIFKEQ_clean_linker_1, # of connection points: 2
#     Edge 60, Type (0, 0), BuildingBlock: KIFKEQ_clean_linker_1, # of connection points: 2
#     Edge 61, Type (0, 0), BuildingBlock: KIFKEQ_clean_linker_1, # of connection points: 2
#     Edge 62, Type (0, 0), BuildingBlock: KIFKEQ_clean_linker_1, # of connection points: 2
#     Edge 63, Type (0, 0), BuildingBlock: KIFKEQ_clean_linker_1, # of connection points: 2
#     Edge 64, Type (0, 0), BuildingBlock: KIFKEQ_clean_linker_1, # of connection points: 2
#     Edge 65, Type (0, 0), BuildingBlock: KIFKEQ_clean_linker_1, # of connection points: 2
#     Edge 66, Type (0, 0), BuildingBlock: KIFKEQ_clean_linker_1, # of connection points: 2
#     Edge 67, Type (0, 0), BuildingBlock: KIFKEQ_clean_linker_1, # of connection points: 2
#     Edge 68, Type (0, 0), BuildingBlock: KIFKEQ_clean_linker_1, # of connection points: 2
#     Edge 69, Type (0, 0), BuildingBlock: KIFKEQ_clean_linker_1, # of connection points: 2
#     Edge 70, Type (0, 0), BuildingBlock: KIFKEQ_clean_linker_1, # of connection points: 2
#     Edge 71, Type (0, 0), BuildingBlock: KIFKEQ_clean_linker_1, # of connection points: 2
#     Edge 72, Type (0, 0), BuildingBlock: KIFKEQ_clean_linker_1, # of connection points: 2
#     Edge 73, Type (0, 0), BuildingBlock: KIFKEQ_clean_linker_1, # of connection points: 2
#     Edge 74, Type (0, 0), BuildingBlock: KIFKEQ_clean_linker_1, # of connection points: 2
#     Edge 75, Type (0, 0), BuildingBlock: KIFKEQ_clean_linker_1, # of connection points: 2
#     Edge 76, Type (0, 0), BuildingBlock: KIFKEQ_clean_linker_1, # of connection points: 2
#     Edge 77, Type (0, 0), BuildingBlock: KIFKEQ_clean_linker_1, # of connection points: 2
#     Edge 78, Type (0, 0), BuildingBlock: KIFKEQ_clean_linker_1, # of connection points: 2
#     Edge 79, Type (0, 0), BuildingBlock: KIFKEQ_clean_linker_1, # of connection points: 2
#     Edge 80, Type (0, 0), BuildingBlock: KIFKEQ_clean_linker_1, # of connection points: 2
#     Edge 81, Type (0, 0), BuildingBlock: KIFKEQ_clean_linker_1, # of connection points: 2
#     Edge 82, Type (0, 0), BuildingBlock: KIFKEQ_clean_linker_1, # of connection points: 2
#     Edge 83, Type (0, 0), BuildingBlock: KIFKEQ_clean_linker_1, # of connection points: 2
#     Edge 84, Type (0, 0), BuildingBlock: KIFKEQ_clean_linker_1, # of connection points: 2
#     Edge 85, Type (0, 0), BuildingBlock: KIFKEQ_clean_linker_1, # of connection points: 2
#     Edge 86, Type (0, 0), BuildingBlock: KIFKEQ_clean_linker_1, # of connection points: 2
#     Edge 87, Type (0, 0), BuildingBlock: KIFKEQ_clean_linker_1, # of connection points: 2
#     Edge 88, Type (0, 0), BuildingBlock: KIFKEQ_clean_linker_1, # of connection points: 2
#     Edge 89, Type (0, 0), BuildingBlock: KIFKEQ_clean_linker_1, # of connection points: 2
#     Edge 90, Type (0, 0), BuildingBlock: KIFKEQ_clean_linker_1, # of connection points: 2
#     Edge 91, Type (0, 0), BuildingBlock: KIFKEQ_clean_linker_1, # of connection points: 2
#     Edge 92, Type (0, 0), BuildingBlock: KIFKEQ_clean_linker_1, # of connection points: 2
#     Edge 93, Type (0, 0), BuildingBlock: KIFKEQ_clean_linker_1, # of connection points: 2
#     Edge 94, Type (0, 0), BuildingBlock: KIFKEQ_clean_linker_1, # of connection points: 2
#     Edge 95, Type (0, 0), BuildingBlock: KIFKEQ_clean_linker_1, # of connection points: 2
#     Edge 96, Type (0, 0), BuildingBlock: KIFKEQ_clean_linker_1, # of connection points: 2
#     Edge 97, Type (0, 0), BuildingBlock: KIFKEQ_clean_linker_1, # of connection points: 2
#     Edge 98, Type (0, 0), BuildingBlock: KIFKEQ_clean_linker_1, # of connection points: 2
#     Edge 99, Type (0, 0), BuildingBlock: KIFKEQ_clean_linker_1, # of connection points: 2
#     Edge 100, Type (0, 0), BuildingBlock: KIFKEQ_clean_linker_1, # of connection points: 2
#     Edge 101, Type (0, 0), BuildingBlock: KIFKEQ_clean_linker_1, # of connection points: 2
#     Edge 102, Type (0, 0), BuildingBlock: KIFKEQ_clean_linker_1, # of connection points: 2
#     Edge 103, Type (0, 0), BuildingBlock: KIFKEQ_clean_linker_1, # of connection points: 2
#     Edge 104, Type (0, 0), BuildingBlock: KIFKEQ_clean_linker_1, # of connection points: 2
#     Edge 105, Type (0, 0), BuildingBlock: KIFKEQ_clean_linker_1, # of connection points: 2
#     Edge 106, Type (0, 0), BuildingBlock: KIFKEQ_clean_linker_1, # of connection points: 2
#     Edge 107, Type (0, 0), BuildingBlock: KIFKEQ_clean_linker_1, # of connection points: 2
#     Edge 108, Type (0, 0), BuildingBlock: KIFKEQ_clean_linker_1, # of connection points: 2
#     Edge 109, Type (0, 0), BuildingBlock: KIFKEQ_clean_linker_1, # of connection points: 2
#     Edge 110, Type (0, 0), BuildingBlock: KIFKEQ_clean_linker_1, # of connection points: 2
#     Edge 111, Type (0, 0), BuildingBlock: KIFKEQ_clean_linker_1, # of connection points: 2
#     Edge 112, Type (0, 0), BuildingBlock: KIFKEQ_clean_linker_1, # of connection points: 2
#     Edge 113, Type (0, 0), BuildingBlock: KIFKEQ_clean_linker_1, # of connection points: 2
#     Edge 114, Type (0, 0), BuildingBlock: KIFKEQ_clean_linker_1, # of connection points: 2
#     Edge 115, Type (0, 0), BuildingBlock: KIFKEQ_clean_linker_1, # of connection points: 2
#     Edge 116, Type (0, 0), BuildingBlock: KIFKEQ_clean_linker_1, # of connection points: 2
#     Edge 117, Type (0, 0), BuildingBlock: KIFKEQ_clean_linker_1, # of connection points: 2
#     Edge 118, Type (0, 0), BuildingBlock: KIFKEQ_clean_linker_1, # of connection points: 2
#     Edge 119, Type (0, 0), BuildingBlock: KIFKEQ_clean_linker_1, # of connection points: 2
#     Edge 120, Type (0, 0), BuildingBlock: KIFKEQ_clean_linker_1, # of connection points: 2
#     Edge 121, Type (0, 0), BuildingBlock: KIFKEQ_clean_linker_1, # of connection points: 2
#     Edge 122, Type (0, 0), BuildingBlock: KIFKEQ_clean_linker_1, # of connection points: 2
#     Edge 123, Type (0, 0), BuildingBlock: KIFKEQ_clean_linker_1, # of connection points: 2
#     Edge 124, Type (0, 0), BuildingBlock: KIFKEQ_clean_linker_1, # of connection points: 2
#     Edge 125, Type (0, 0), BuildingBlock: KIFKEQ_clean_linker_1, # of connection points: 2
# Relax obj value: 0.186
# Max RMSD: 0.191
# Mean RMSD: 0.191
data_MOF--net-wlt--node1-XOMCOT_clean_sbu_1--edge1-KIFKEQ_clean_linker_1
_symmetry_space_group_name_H-M    P1
_symmetry_Int_Tables_number       1
_symmetry_cell_setting            triclinic
loop_
_symmetry_equiv_pos_as_xyz
'x, y, z'
_cell_length_a     66.273775
_cell_length_b     66.254291
_cell_length_c     50.830769
_cell_angle_alpha  90.008639
_cell_angle_beta   89.984886
_cell_angle_gamma 119.99218
loop_
_atom_site_label
_atom_site_type_symbol
_atom_site_fract_x
_atom_site_fract_y
_atom_site_fract_z
_atom_type_partial_charge
C0 C 0.21126 0.18581 0.04453 0.0
C1 C 0.19315 0.18909 0.03741 0.0
N2 N 0.20064 0.21212 0.0376 0.0
N3 N 0.23039 0.2066 0.04908 0.0
C4 C 0.22348 0.22242 0.04443 0.0
H5 H 0.21033 0.16917 0.047 0.0
Co6 Co 0.25738 0.2082 0.0629 0.0
C7 C 0.2918 0.25734 0.07268 0.0
O8 O 0.29549 0.24965 0.09495 0.0
N9 N 0.28476 0.20889 0.07638 0.0
C10 C 0.32128 0.21563 0.0759 0.0
C11 C 0.30484 0.21833 0.06247 0.0
C12 C 0.28954 0.20017 0.0982 0.0
N13 N 0.3117 0.20423 0.09846 0.0
O14 O 0.26421 0.19972 0.02888 0.0
H15 H 0.30738 0.2267 0.04353 0.0
H16 H 0.27726 0.19107 0.11373 0.0
O17 O 0.27636 0.24287 0.05644 0.0
C18 C 0.25825 0.17822 0.03164 0.0
O19 O 0.24919 0.16803 0.05421 0.0
N20 N 0.24831 0.21285 0.09607 0.0
C21 C 0.23195 0.2136 0.14619 0.0
C22 C 0.23828 0.23229 0.12886 0.0
C23 C 0.24609 0.23143 0.10368 0.0
C24 C 0.23953 0.19348 0.11144 0.0
C25 C 0.23197 0.19368 0.1369 0.0
H26 H 0.25026 0.24572 0.09047 0.0
H27 H 0.23888 0.17787 0.10402 0.0
H28 H 0.23466 0.241 0.04705 0.0
H29 H 0.17571 0.17539 0.03262 0.0
H30 H 0.33879 0.22124 0.06919 0.0
H31 H 0.23729 0.2475 0.13467 0.0
H32 H 0.22684 0.1786 0.14929 0.0
C33 C 0.84439 0.0286 0.05293 0.0
C34 C 0.84003 1.00646 0.04783 0.0
N35 N 0.81744 0.99321 0.04124 0.0
N36 N 0.8247 0.02953 0.04971 0.0
C37 C 0.80846 1.00764 0.04228 0.0
H38 H 0.86074 0.04296 0.05974 0.0
Co39 Co 0.8241 0.05638 0.05986 0.0
C40 C 0.77526 0.04299 0.07049 0.0
O41 O 0.78388 0.05698 0.09084 0.0
N42 N 0.82461 0.08448 0.06979 0.0
C43 C 0.81843 0.11458 0.06695 0.0
C44 C 0.81502 0.09449 0.05502 0.0
C45 C 0.83425 0.09934 0.09035 0.0
N46 N 0.83049 0.1176 0.08931 0.0
O47 O 0.83141 0.06822 0.02439 0.0
H48 H 0.80575 0.08738 0.03678 0.0
H49 H 0.84422 0.09732 0.10574 0.0
O50 O 0.78926 0.04063 0.05477 0.0
C51 C 0.85355 0.08162 0.02468 0.0
O52 O 0.86488 0.08365 0.04661 0.0
N53 N 0.82027 0.04566 0.09449 0.0
C54 C 0.82002 0.03193 0.14617 0.0
C55 C 0.8011 0.0185 0.12948 0.0
C56 C 0.80177 0.02542 0.1035 0.0
C57 C 0.83992 0.05697 0.10931 0.0
C58 C 0.83995 0.05101 0.13553 0.0
H59 H 0.78754 0.01427 0.09066 0.0
H60 H 0.85564 0.07099 0.10077 0.0
H61 H 0.79027 1.00207 0.03909 0.0
H62 H 0.85245 1.00042 0.04926 0.0
H63 H 0.81209 0.1258 0.05988 0.0
H64 H 0.78596 1.00273 0.13635 0.0
H65 H 0.85528 0.06157 0.14733 0.0
C66 C 1.00013 0.81911 0.04235 0.0
C67 C 0.02163 0.83731 0.03571 0.0
N68 N 0.03717 0.82981 0.03615 0.0
N69 N 1.00173 0.79995 0.04684 0.0
C70 C 0.02452 0.80689 0.04264 0.0
H71 H 0.98435 0.81997 0.04449 0.0
Co72 Co 0.97605 0.77285 0.05989 0.0
C73 C 0.99041 0.73818 0.07013 0.0
O74 O 0.97834 0.73414 0.09193 0.0
N75 N 0.949 0.74539 0.07257 0.0
C76 C 0.91897 0.70901 0.07149 0.0
C77 C 0.93842 0.72542 0.05844 0.0
C78 C 0.93518 0.74057 0.09409 0.0
N79 N 0.91691 0.71851 0.094 0.0
O80 O 0.9617 0.7665 0.02539 0.0
H81 H 0.9445 0.72294 0.03963 0.0
H82 H 0.93825 0.75274 0.1097 0.0
O83 O 0.99184 0.75386 0.05393 0.0
C84 C 0.94587 0.77217 0.02708 0.0
O85 O 0.94318 0.78035 0.04954 0.0
N86 N 0.98901 0.7815 0.09347 0.0
C87 C 1.0051 0.79677 0.14418 0.0
C88 C 1.01782 0.79085 0.12688 0.0
C89 C 1.00964 0.78355 0.10145 0.0
C90 C 0.97823 0.79013 0.10876 0.0
C91 C 0.98543 0.79707 0.13452 0.0
H92 H 0.02002 0.77963 0.08836 0.0
H93 H 0.96352 0.79107 0.10104 0.0
H94 H 0.03186 0.79567 0.0453 0.0
H95 H 0.02545 0.85481 0.03105 0.0
H96 H 0.90704 0.69157 0.06457 0.0
H97 H 0.03392 0.79175 0.13289 0.0
H98 H 0.97523 0.80197 0.14682 0.0
C99 C 0.19142 0.20456 0.43874 0.0
C100 C 0.19415 0.18581 0.44435 0.0
N101 N 0.217 0.19352 0.44785 0.0
N102 N 0.21241 0.22414 0.43854 0.0
C103 C 0.22776 0.21693 0.44452 0.0
H104 H 0.17521 0.20385 0.43379 0.0
Co105 Co 0.2153 0.25205 0.42622 0.0
C106 C 0.26466 0.2831 0.41322 0.0
O107 O 0.25648 0.28779 0.39196 0.0
N108 N 0.21742 0.28043 0.41417 0.0
C109 C 0.22689 0.31783 0.41491 0.0
C110 C 0.2296 0.30086 0.42718 0.0
C111 C 0.20697 0.28551 0.39434 0.0
N112 N 0.21263 0.30816 0.39417 0.0
O113 O 0.20913 0.2592 0.46117 0.0
H114 H 0.23987 0.30328 0.44466 0.0
H115 H 0.19477 0.27291 0.38071 0.0
O116 O 0.25029 0.26907 0.43063 0.0
C117 C 0.18772 0.2539 0.4601 0.0
O118 O 0.17632 0.24566 0.43794 0.0
N119 N 0.21765 0.24263 0.39218 0.0
C120 C 0.21631 0.22733 0.341 0.0
C121 C 0.2346 0.23111 0.35791 0.0
C122 C 0.23468 0.23829 0.38366 0.0
C123 C 0.1982 0.23564 0.37733 0.0
C124 C 0.19746 0.22877 0.35132 0.0
H125 H 0.24853 0.24041 0.39658 0.0
H126 H 0.18321 0.23565 0.38568 0.0
H127 H 0.24648 0.22828 0.44478 0.0
H128 H 0.18043 0.16776 0.4452 0.0
H129 H 0.23495 0.33591 0.42081 0.0
H130 H 0.24878 0.22869 0.35132 0.0
H131 H 0.18253 0.22527 0.33939 0.0
C132 C 0.82689 0.99244 0.43783 0.0
C133 C 0.84576 1.01319 0.44517 0.0
N134 N 0.8388 0.02891 0.44931 0.0
N135 N 0.80781 0.99465 0.43716 0.0
C136 C 0.81552 0.0171 0.44429 0.0
H137 H 0.82718 0.97684 0.43227 0.0
Co138 Co 0.78003 0.96982 0.42428 0.0
C139 C 0.74704 0.98631 0.41462 0.0
O140 O 0.74291 0.97476 0.3924 0.0
N141 N 0.75189 0.9435 0.41162 0.0
C142 C 0.71495 0.91453 0.41251 0.0
C143 C 0.73167 0.93402 0.42526 0.0
C144 C 0.74693 0.9289 0.39081 0.0
N145 N 0.72456 0.91126 0.39078 0.0
O146 O 0.77341 0.95526 0.4586 0.0
H147 H 0.72924 0.94087 0.44356 0.0
H148 H 0.75948 0.93043 0.37634 0.0
O149 O 0.76223 0.98674 0.43086 0.0
C150 C 0.77833 0.93892 0.45661 0.0
O151 O 0.78602 0.93591 0.43397 0.0
N152 N 0.78888 0.983 0.39085 0.0
C153 C 0.80476 0.99994 0.34058 0.0
C154 C 0.79997 1.01305 0.35858 0.0
C155 C 0.79244 1.00445 0.38383 0.0
C156 C 0.79645 0.97168 0.37488 0.0
C157 C 0.80364 0.97932 0.3493 0.0
H158 H 0.78962 0.01516 0.39765 0.0
H159 H 0.79678 0.95649 0.38205 0.0
H160 H 0.80442 0.02473 0.44513 0.0
H161 H 0.86346 0.01651 0.44626 0.0
H162 H 0.69708 0.90368 0.41882 0.0
H163 H 0.80201 0.02979 0.35326 0.0
H164 H 0.80775 0.96884 0.33647 0.0
C165 C 0.03599 0.83708 0.43297 0.0
C166 C 1.01395 0.83288 0.43834 0.0
N167 N 1.00047 0.81017 0.4443 0.0
N168 N 0.03662 0.81715 0.43537 0.0
C169 C 1.01466 0.80094 0.44261 0.0
H170 H 0.05048 0.85348 0.42647 0.0
Co171 Co 0.06323 0.81647 0.42437 0.0
C172 C 0.04991 0.76779 0.41349 0.0
O173 O 0.06294 0.7764 0.39241 0.0
N174 N 0.09116 0.81691 0.41363 0.0
C175 C 0.12119 0.8106 0.41596 0.0
C176 C 0.10113 0.80708 0.42803 0.0
C177 C 0.10602 0.82682 0.3931 0.0
N178 N 0.12427 0.82302 0.39388 0.0
O179 O 0.07572 0.82376 0.45957 0.0
H180 H 0.09406 0.79761 0.44618 0.0
H181 H 0.10404 0.83706 0.378 0.0
O182 O 0.04764 0.78162 0.42955 0.0
C183 C 0.08965 0.84581 0.45934 0.0
O184 O 0.09172 0.8574 0.4376 0.0
N185 N 0.05186 0.81257 0.39003 0.0
C186 C 0.03699 0.81208 0.3388 0.0
C187 C 0.02378 0.79338 0.35587 0.0
C188 C 0.03132 0.79415 0.38159 0.0
C189 C 0.06306 0.83205 0.37491 0.0
C190 C 0.05652 0.83194 0.34889 0.0
H191 H 0.02043 0.78002 0.39468 0.0
H192 H 0.07736 0.84777 0.38308 0.0
H193 H 1.00885 0.78261 0.4451 0.0
H194 H 1.00812 0.84549 0.43747 0.0
H195 H 0.13238 0.80415 0.4228 0.0
H196 H 1.00772 0.77832 0.3495 0.0
H197 H 0.06698 0.84711 0.33683 0.0
C198 C 0.8278 0.8407 0.93414 0.0
C199 C 0.84642 0.83832 0.94118 0.0
N200 N 0.83875 0.81576 0.94708 0.0
N201 N 0.80816 0.81987 0.93537 0.0
C202 C 0.81529 0.80486 0.94332 0.0
H203 H 0.8286 0.85659 0.9275 0.0
Co204 Co 0.78044 0.81778 0.92364 0.0
C205 C 0.74677 0.7688 0.91219 0.0
O206 O 0.74268 0.77724 0.89073 0.0
N207 N 0.75245 0.8169 0.91221 0.0
C208 C 0.71561 0.8092 0.91393 0.0
C209 C 0.7324 0.8062 0.92617 0.0
C210 C 0.74733 0.82675 0.89175 0.0
N211 N 0.725 0.82214 0.89218 0.0
O212 O 0.77427 0.82461 0.95864 0.0
H213 H 0.73008 0.79662 0.94421 0.0
H214 H 0.75966 0.83764 0.87706 0.0
O215 O 0.76222 0.78283 0.92873 0.0
C216 C 0.78084 0.84635 0.95816 0.0
O217 O 0.78953 0.85802 0.93625 0.0
N218 N 0.78884 0.81439 0.88958 0.0
C219 C 0.80384 0.81428 0.8386 0.0
C220 C 0.79914 0.79593 0.85588 0.0
C221 C 0.7921 0.79655 0.88152 0.0
C222 C 0.79646 0.8337 0.8743 0.0
C223 C 0.80322 0.83375 0.84839 0.0
H224 H 0.7894 0.78271 0.89481 0.0
H225 H 0.7971 0.84914 0.88226 0.0
H226 H 0.80361 0.78634 0.94573 0.0
H227 H 0.86438 0.8522 0.94092 0.0
H228 H 0.6978 0.80214 0.92046 0.0
H229 H 0.80087 0.78123 0.84969 0.0
H230 H 0.80737 0.84868 0.83612 0.0
C231 C 0.19389 0.993 0.94303 0.0
C232 C 0.19698 0.01434 0.95005 0.0
N233 N 0.21998 0.02997 0.95005 0.0
N234 N 0.21475 0.99478 0.93873 0.0
C235 C 0.23044 0.01753 0.94345 0.0
H236 H 0.17731 0.97725 0.94039 0.0
Co237 Co 0.21656 0.9695 0.92489 0.0
C238 C 0.26578 0.98447 0.91523 0.0
O239 O 0.25813 0.97303 0.89298 0.0
N240 N 0.21739 0.94287 0.91138 0.0
C241 C 0.22404 0.91302 0.91181 0.0
C242 C 0.22694 0.93228 0.92518 0.0
C243 C 0.2084 0.92922 0.88972 0.0
N244 N 0.21238 0.91107 0.88942 0.0
O245 O 0.20797 0.9541 0.95885 0.0
H246 H 0.23544 0.93816 0.94405 0.0
H247 H 0.19906 0.93228 0.87436 0.0
O248 O 0.25124 0.98532 0.93148 0.0
C249 C 0.18649 0.93855 0.95596 0.0
O250 O 0.17643 0.9374 0.93329 0.0
N251 N 0.22132 0.98332 0.89177 0.0
C252 C 0.22242 1.00071 0.84172 0.0
C253 C 0.24087 1.0131 0.85934 0.0
C254 C 0.23985 1.00425 0.88444 0.0
C255 C 0.20211 0.97273 0.87617 0.0
C256 C 0.20252 0.9806 0.85072 0.0
H257 H 0.25398 0.01436 0.89782 0.0
H258 H 0.18646 0.95773 0.88342 0.0
H259 H 0.24904 0.02502 0.94101 0.0
H260 H 0.18318 0.01801 0.95459 0.0
H261 H 0.22964 0.90109 0.91847 0.0
H262 H 0.25601 0.02945 0.85383 0.0
H263 H 0.18759 0.9706 0.83815 0.0
C264 C 0.03866 0.20433 0.93481 0.0
C265 C 1.01719 0.18569 0.94071 0.0
N266 N 1.00235 0.19361 0.94525 0.0
N267 N 0.03757 0.22409 0.9355 0.0
C268 C 1.01518 0.21705 0.94226 0.0
H269 H 0.0539 0.20344 0.92905 0.0
Co270 Co 0.06251 0.25205 0.92303 0.0
C271 C 0.04479 0.28415 0.91349 0.0
O272 O 0.05705 0.28939 0.89168 0.0
N273 N 0.08867 0.28044 0.91075 0.0
C274 C 0.11755 0.3174 0.91221 0.0
C275 C 0.0982 0.30038 0.92491 0.0
C276 C 0.10297 0.2859 0.88959 0.0
N277 N 0.12058 0.30828 0.88991 0.0
O278 O 0.07701 0.25842 0.95743 0.0
H279 H 0.09158 0.30237 0.9436 0.0
H280 H 0.10081 0.2739 0.87414 0.0
O281 O 0.04522 0.26938 0.9297 0.0
C282 C 0.09274 0.25274 0.9546 0.0
O283 O 0.09434 0.24431 0.93178 0.0
N284 N 0.04964 0.24339 0.88937 0.0
C285 C 0.03369 0.22798 0.83868 0.0
C286 C 0.02019 0.23252 0.85637 0.0
C287 C 0.02826 0.23974 0.88187 0.0
C288 C 0.0613 0.23605 0.87363 0.0
C289 C 0.05416 0.2291 0.84787 0.0
H290 H 1.01718 0.24218 0.89548 0.0
H291 H 0.0765 0.23589 0.88106 0.0
H292 H 1.00805 0.22859 0.94331 0.0
H293 H 1.01266 0.16756 0.94102 0.0
H294 H 0.12881 0.33494 0.91929 0.0
H295 H 1.00351 0.23043 0.85067 0.0
H296 H 0.06491 0.22516 0.83527 0.0
C297 C 0.84723 0.82092 0.54837 0.0
C298 C 0.8449 0.83958 0.54133 0.0
N299 N 0.82227 0.83203 0.53602 0.0
N300 N 0.82629 0.80139 0.5477 0.0
C301 C 0.81128 0.8086 0.54008 0.0
H302 H 0.86316 0.82165 0.55469 0.0
Co303 Co 0.824 0.77371 0.55987 0.0
C304 C 0.7748 0.74007 0.57053 0.0
O305 O 0.78281 0.73591 0.59228 0.0
N306 N 0.82294 0.74579 0.57179 0.0
C307 C 0.81538 0.70899 0.57056 0.0
C308 C 0.81225 0.72561 0.55808 0.0
C309 C 0.83294 0.74095 0.5923 0.0
N310 N 0.82843 0.71865 0.59216 0.0
O311 O 0.83133 0.7674 0.52516 0.0
H312 H 0.80266 0.7231 0.54001 0.0
H313 H 0.84397 0.7535 0.60674 0.0
O314 O 0.78913 0.75551 0.55417 0.0
C315 C 0.853 0.77375 0.52603 0.0
O316 O 0.86442 0.78234 0.54811 0.0
N317 N 0.82014 0.78225 0.59369 0.0
C318 C 0.81964 0.79782 0.64429 0.0
C319 C 0.80136 0.79278 0.62678 0.0
C320 C 0.80217 0.78545 0.60134 0.0
C321 C 0.83934 0.79008 0.6092 0.0
C322 C 0.83919 0.79714 0.63493 0.0
H323 H 0.7884 0.78254 0.58785 0.0
H324 H 0.85488 0.79075 0.60153 0.0
H325 H 0.7927 0.79702 0.53822 0.0
H326 H 0.8589 0.85749 0.54124 0.0
H327 H 0.80839 0.69114 0.56421 0.0
H328 H 0.78658 0.7945 0.63261 0.0
H329 H 0.85407 0.80151 0.64738 0.0
C330 C 0.20974 0.02802 0.55427 0.0
C331 C 0.19192 1.00592 0.54919 0.0
N332 N 0.20116 0.99262 0.54239 0.0
N333 N 0.23033 0.02891 0.55082 0.0
C334 C 0.22458 1.00701 0.54328 0.0
H335 H 0.20781 0.04239 0.56119 0.0
Co336 Co 0.25782 0.0559 0.5607 0.0
C337 C 0.29346 0.0428 0.57116 0.0
O338 O 0.29895 0.05697 0.59135 0.0
N339 N 0.28545 0.08419 0.57034 0.0
C340 C 0.32136 0.11478 0.56654 0.0
C341 C 0.30465 0.09452 0.55494 0.0
C342 C 0.29101 0.09894 0.59109 0.0
N343 N 0.31276 0.11757 0.58937 0.0
O344 O 0.26208 0.06747 0.52514 0.0
H345 H 0.30647 0.08764 0.53635 0.0
H346 H 0.27971 0.09622 0.60751 0.0
O347 O 0.27697 0.04024 0.55558 0.0
C348 C 0.25317 0.08071 0.52538 0.0
O349 O 0.24391 0.08278 0.54733 0.0
N350 N 0.25116 0.0454 0.59538 0.0
C351 C 0.23774 0.03179 0.64711 0.0
C352 C 0.24314 0.01828 0.63041 0.0
C353 C 0.2494 0.02517 0.60442 0.0
C354 C 0.24291 0.0568 0.6102 0.0
C355 C 0.23697 0.05091 0.63644 0.0
H356 H 0.25245 0.01398 0.5916 0.0
H357 H 0.24135 0.07091 0.60167 0.0
H358 H 0.23716 1.00141 0.53986 0.0
H359 H 0.17348 0.99994 0.55074 0.0
H360 H 0.3384 0.12665 0.55854 0.0
H361 H 0.24243 1.00247 0.63727 0.0
H362 H 0.23234 0.06159 0.64824 0.0
C363 C 1.00025 0.1857 0.5486 0.0
C364 C 0.02132 0.18795 0.54213 0.0
N365 N 0.0368 0.21068 0.53788 0.0
N366 N 1.00199 0.2068 0.54863 0.0
C367 C 0.02452 0.22183 0.54207 0.0
H368 H 0.9847 0.16967 0.55391 0.0
Co369 Co 0.9764 0.20917 0.55988 0.0
C370 C 0.99193 0.25853 0.57006 0.0
O371 O 0.97897 0.25071 0.5913 0.0
N372 N 0.94939 0.21043 0.57097 0.0
C373 C 0.9198 0.21743 0.56871 0.0
C374 C 0.93949 0.22022 0.55636 0.0
C375 C 0.93498 0.20149 0.59203 0.0
N376 N 0.91694 0.20561 0.59123 0.0
O377 O 0.96352 0.20194 0.52469 0.0
H378 H 0.94618 0.22886 0.5377 0.0
H379 H 0.93746 0.19218 0.60785 0.0
O380 O 0.99346 0.24404 0.55436 0.0
C381 C 0.94764 0.18044 0.52589 0.0
O382 O 0.94417 0.16938 0.54835 0.0
N383 N 0.98772 0.2125 0.59407 0.0
C384 C 1.00029 0.21078 0.64556 0.0
C385 C 1.01434 0.23021 0.62987 0.0
C386 C 1.00799 0.2305 0.60377 0.0
C387 C 0.97585 0.1924 0.60806 0.0
C388 C 0.98132 0.19137 0.6342 0.0
H389 H 1.01935 0.24516 0.59155 0.0
H390 H 0.96156 0.17722 0.59899 0.0
H391 H 0.03179 0.24049 0.5409 0.0
H392 H 0.02494 0.17376 0.54157 0.0
H393 H 0.90829 0.22328 0.56131 0.0
H394 H 0.02968 0.24518 0.63785 0.0
H395 H 0.97074 0.17567 0.64548 0.0
C396 C 0.87804 0.52308 0.38566 0.0
C397 C 0.86021 0.52737 0.38069 0.0
N398 N 0.86946 0.54997 0.37417 0.0
N399 N 0.89863 0.54282 0.38242 0.0
C400 C 0.89289 0.55903 0.37512 0.0
H401 H 0.87611 0.50673 0.3924 0.0
Co402 Co 0.92603 0.54321 0.39243 0.0
C403 C 0.96205 0.59178 0.40259 0.0
O404 O 0.96703 0.58315 0.42324 0.0
N405 N 0.95356 0.54242 0.40223 0.0
C406 C 0.98946 0.5477 0.39856 0.0
C407 C 0.97275 0.55117 0.38683 0.0
C408 C 0.95912 0.53337 0.42313 0.0
N409 N 0.98088 0.5365 0.42148 0.0
O410 O 0.93034 0.53574 0.35694 0.0
H411 H 0.97459 0.55976 0.36817 0.0
H412 H 0.94782 0.52494 0.4396 0.0
O413 O 0.94542 0.57799 0.38708 0.0
C414 C 0.92157 0.5136 0.35708 0.0
O415 O 0.91214 0.50214 0.37892 0.0
N416 N 0.91937 0.54722 0.42705 0.0
C417 C 0.90558 0.54733 0.47863 0.0
C418 C 0.91141 0.56641 0.46205 0.0
C419 C 0.91784 0.56583 0.43611 0.0
C420 C 0.91089 0.52751 0.4418 0.0
C421 C 0.90471 0.52741 0.46796 0.0
H422 H 0.9212 0.58019 0.42333 0.0
H423 H 0.90931 0.51183 0.43326 0.0
H424 H 0.90546 0.57724 0.37196 0.0
H425 H 0.84177 0.5149 0.38217 0.0
H426 H 1.0065 0.55283 0.39059 0.0
H427 H 0.91088 0.5816 0.46896 0.0
H428 H 0.8998 0.512 0.47969 0.0
C429 C 0.51119 0.36375 0.38304 0.0
C430 C 0.50767 0.34196 0.37744 0.0
N431 N 0.48474 0.32752 0.37353 0.0
N432 N 0.49062 0.36325 0.38284 0.0
C433 C 0.4747 0.34087 0.37665 0.0
H434 H 0.52765 0.37884 0.38823 0.0
Co435 Co 0.48923 0.38921 0.39499 0.0
C436 C 0.44031 0.37422 0.40704 0.0
O437 O 0.44901 0.38716 0.42817 0.0
N438 N 0.48889 0.41651 0.4069 0.0
C439 C 0.4818 0.44608 0.40572 0.0
C440 C 0.47848 0.42628 0.39317 0.0
C441 C 0.49885 0.4312 0.42757 0.0
N442 N 0.49462 0.44918 0.42745 0.0
O443 O 0.49612 0.40246 0.36002 0.0
H444 H 0.46887 0.41931 0.37509 0.0
H445 H 0.50952 0.42936 0.44223 0.0
O446 O 0.45428 0.37288 0.39032 0.0
C447 C 0.51781 0.4178 0.36095 0.0
O448 O 0.52918 0.42044 0.38302 0.0
N449 N 0.48596 0.37725 0.42897 0.0
C450 C 0.48628 0.36218 0.47988 0.0
C451 C 0.4676 0.34873 0.46291 0.0
C452 C 0.46795 0.35638 0.43734 0.0
C453 C 0.50554 0.38867 0.44388 0.0
C454 C 0.50582 0.38201 0.46976 0.0
H455 H 0.45378 0.34539 0.42436 0.0
H456 H 0.52098 0.40331 0.4357 0.0
H457 H 0.45609 0.33418 0.37604 0.0
H458 H 0.52091 0.33695 0.37687 0.0
H459 H 0.475 0.45712 0.39942 0.0
H460 H 0.45279 0.33246 0.4693 0.0
H461 H 0.52099 0.39267 0.48174 0.0
C462 C 0.66895 0.15461 0.37723 0.0
C463 C 0.69053 0.17286 0.37108 0.0
N464 N 0.70606 0.16537 0.37173 0.0
N465 N 0.67043 0.13536 0.3816 0.0
C466 C 0.69331 0.14236 0.37787 0.0
H467 H 0.65317 0.1555 0.37908 0.0
Co468 Co 0.64426 0.10808 0.39371 0.0
C469 C 0.65855 0.07364 0.40585 0.0
O470 O 0.64578 0.06966 0.42708 0.0
N471 N 0.61675 0.0805 0.40537 0.0
C472 C 0.58719 0.04388 0.40376 0.0
C473 C 0.6072 0.06035 0.3916 0.0
C474 C 0.60166 0.07579 0.42563 0.0
N475 N 0.58365 0.05358 0.42525 0.0
O476 O 0.63132 0.10179 0.35862 0.0
H477 H 0.61448 0.05772 0.37375 0.0
H478 H 0.60325 0.08835 0.44011 0.0
O479 O 0.6604 0.08923 0.38924 0.0
C480 C 0.61612 0.10833 0.35905 0.0
O481 O 0.61298 0.11688 0.38098 0.0
N482 N 0.65586 0.11662 0.42782 0.0
C483 C 0.66947 0.13088 0.47932 0.0
C484 C 0.68319 0.12561 0.46283 0.0
C485 C 0.67626 0.11885 0.43696 0.0
C486 C 0.64428 0.12486 0.44233 0.0
C487 C 0.65021 0.13127 0.46847 0.0
H488 H 0.68733 0.11537 0.42447 0.0
H489 H 0.62996 0.12595 0.43367 0.0
H490 H 0.7006 0.1311 0.38059 0.0
H491 H 0.6944 0.19039 0.36654 0.0
H492 H 0.57628 0.02607 0.39731 0.0
H493 H 0.69905 0.12654 0.46985 0.0
H494 H 0.63937 0.13581 0.4801 0.0
C495 C 0.85975 0.53691 0.76918 0.0
C496 C 0.86313 0.51864 0.77533 0.0
N497 N 0.88589 0.52718 0.7805 0.0
N498 N 0.88026 0.55702 0.77032 0.0
C499 C 0.89594 0.55059 0.77763 0.0
H500 H 0.84353 0.53552 0.76287 0.0
Co501 Co 0.88283 0.58466 0.7574 0.0
C502 C 0.93247 0.61697 0.74717 0.0
O503 O 0.92516 0.6218 0.72531 0.0
N504 N 0.88461 0.61273 0.74466 0.0
C505 C 0.89238 0.6496 0.74564 0.0
C506 C 0.89507 0.63286 0.75847 0.0
C507 C 0.87535 0.61779 0.72358 0.0
N508 N 0.87994 0.64012 0.7236 0.0
O509 O 0.87481 0.59139 0.79166 0.0
H510 H 0.90395 0.63517 0.77702 0.0
H511 H 0.86531 0.60553 0.70842 0.0
O512 O 0.9175 0.6024 0.76371 0.0
C513 C 0.85327 0.58525 0.78893 0.0
O514 O 0.84311 0.57612 0.76637 0.0
N515 N 0.88701 0.57566 0.7239 0.0
C516 C 0.88792 0.56009 0.6734 0.0
C517 C 0.9058 0.56463 0.69131 0.0
C518 C 0.90478 0.57196 0.71669 0.0
C519 C 0.86806 0.56813 0.70805 0.0
C520 C 0.86844 0.56112 0.68236 0.0
H521 H 0.91826 0.57455 0.73044 0.0
H522 H 0.85262 0.56789 0.71532 0.0
H523 H 0.9145 0.56253 0.77909 0.0
H524 H 0.84995 0.50036 0.77533 0.0
H525 H 0.89862 0.66721 0.75246 0.0
H526 H 0.92047 0.5626 0.68582 0.0
H527 H 0.85384 0.55715 0.66961 0.0
C528 C 0.49153 0.32705 0.77798 0.0
C529 C 0.50994 0.34837 0.78478 0.0
N530 N 0.50309 0.36439 0.78337 0.0
N531 N 0.47286 0.32924 0.77241 0.0
C532 C 0.48033 0.35221 0.77615 0.0
H533 H 0.49193 0.31098 0.77643 0.0
Co534 Co 0.44577 0.30392 0.75871 0.0
C535 C 0.41184 0.3192 0.74804 0.0
O536 O 0.40797 0.30746 0.72599 0.0
N537 N 0.41833 0.27726 0.74533 0.0
C538 C 0.38172 0.24766 0.74535 0.0
C539 C 0.39792 0.2671 0.75861 0.0
C540 C 0.41403 0.26316 0.72416 0.0
N541 N 0.39185 0.24513 0.72363 0.0
O542 O 0.43861 0.28919 0.79301 0.0
H543 H 0.39496 0.2735 0.77695 0.0
H544 H 0.42687 0.2654 0.70972 0.0
O545 O 0.42716 0.32012 0.76442 0.0
C546 C 0.44382 0.27303 0.79139 0.0
O547 O 0.45214 0.27026 0.76907 0.0
N548 N 0.45514 0.31715 0.72535 0.0
C549 C 0.47126 0.33318 0.67487 0.0
C550 C 0.4652 0.34601 0.69183 0.0
C551 C 0.45747 0.33785 0.71717 0.0
C552 C 0.4639 0.30626 0.71045 0.0
C553 C 0.47129 0.31344 0.68479 0.0
H554 H 0.4534 0.34828 0.73 0.0
H555 H 0.46465 0.29152 0.7184 0.0
H556 H 0.46962 0.36001 0.77263 0.0
H557 H 0.52714 0.35174 0.79018 0.0
H558 H 0.3638 0.2364 0.75125 0.0
H559 H 0.46627 0.36214 0.68558 0.0
H560 H 0.47628 0.30317 0.67277 0.0
C561 C 0.70313 0.17262 0.76962 0.0
C562 C 0.68131 0.1688 0.7755 0.0
N563 N 0.66734 0.14594 0.78033 0.0
N564 N 0.70312 0.15229 0.77058 0.0
C565 C 0.68101 0.13623 0.77749 0.0
H566 H 0.71786 0.18905 0.76362 0.0
Co567 Co 0.72894 0.15095 0.75799 0.0
C568 C 0.71466 0.1019 0.74818 0.0
O569 O 0.72659 0.10982 0.72626 0.0
N570 N 0.75611 0.15066 0.74558 0.0
C571 C 0.78609 0.14424 0.74668 0.0
C572 C 0.76636 0.1408 0.75944 0.0
C573 C 0.77048 0.16047 0.72463 0.0
N574 N 0.78873 0.15666 0.72471 0.0
O575 O 0.74338 0.15943 0.79238 0.0
H576 H 0.7598 0.13155 0.7778 0.0
H577 H 0.76825 0.17083 0.70986 0.0
O578 O 0.71334 0.11624 0.76434 0.0
C579 C 0.75824 0.18116 0.78988 0.0
O580 O 0.75913 0.19131 0.76735 0.0
N581 N 0.71592 0.14618 0.72443 0.0
C582 C 0.69886 0.14501 0.67418 0.0
C583 C 0.68633 0.1266 0.69182 0.0
C584 C 0.69498 0.1277 0.71706 0.0
C585 C 0.72663 0.16535 0.70878 0.0
C586 C 0.71895 0.16489 0.68323 0.0
H587 H 0.68463 0.11378 0.73062 0.0
H588 H 0.74137 0.18113 0.71618 0.0
H589 H 0.67467 0.11771 0.77875 0.0
H590 H 0.67591 0.18177 0.77557 0.0
H591 H 0.79746 0.13786 0.75308 0.0
H592 H 0.66996 0.1115 0.68626 0.0
H593 H 0.72901 0.17983 0.67068 0.0
C594 C 0.49664 0.17351 0.26884 0.0
C595 C 0.51486 0.16985 0.27411 0.0
N596 N 0.50617 0.14711 0.27958 0.0
N597 N 0.4764 0.1532 0.27082 0.0
C598 C 0.48272 0.13735 0.27774 0.0
H599 H 0.49809 0.18979 0.26263 0.0
Co600 Co 0.44855 0.15124 0.25967 0.0
C601 C 0.41611 0.10211 0.24687 0.0
O602 O 0.41105 0.11063 0.22618 0.0
N603 N 0.42035 0.15013 0.24884 0.0
C604 C 0.38324 0.14153 0.25093 0.0
C605 C 0.40032 0.13872 0.26274 0.0
C606 C 0.41493 0.16021 0.2289 0.0
N607 N 0.39244 0.15504 0.22953 0.0
O608 O 0.4425 0.15756 0.29498 0.0
H609 H 0.39821 0.12875 0.28041 0.0
H610 H 0.42713 0.17162 0.21442 0.0
O611 O 0.4308 0.11624 0.26396 0.0
C612 C 0.44989 0.17949 0.29472 0.0
O613 O 0.45906 0.19118 0.27293 0.0
N614 N 0.45691 0.14857 0.22523 0.0
C615 C 0.47132 0.1493 0.17376 0.0
C616 C 0.46734 0.13095 0.19068 0.0
C617 C 0.46063 0.13117 0.21655 0.0
C618 C 0.46402 0.16801 0.21028 0.0
C619 C 0.47046 0.16846 0.18414 0.0
H620 H 0.4585 0.11734 0.2295 0.0
H621 H 0.46451 0.18323 0.21868 0.0
H622 H 0.4706 0.11887 0.27979 0.0
H623 H 0.53319 0.18285 0.27343 0.0
H624 H 0.36537 0.13392 0.25747 0.0
H625 H 0.46935 0.11653 0.18401 0.0
H626 H 0.47416 0.18343 0.17217 0.0
C627 C 0.86048 0.32913 0.271 0.0
C628 C 0.86408 0.35096 0.27643 0.0
N629 N 0.88713 0.36562 0.27892 0.0
N630 N 0.88113 0.32981 0.26995 0.0
C631 C 0.89719 0.35237 0.27511 0.0
H632 H 0.84386 0.31389 0.26675 0.0
Co633 Co 0.88246 0.3039 0.25755 0.0
C634 C 0.93146 0.31894 0.24531 0.0
O635 O 0.92287 0.3059 0.22424 0.0
N636 N 0.88287 0.27674 0.2453 0.0
C637 C 0.88958 0.24694 0.24631 0.0
C638 C 0.89252 0.26638 0.25934 0.0
C639 C 0.87389 0.26286 0.22382 0.0
N640 N 0.87788 0.24472 0.22385 0.0
O641 O 0.87576 0.2904 0.29254 0.0
H642 H 0.90127 0.27265 0.27801 0.0
H643 H 0.86481 0.26591 0.20818 0.0
O644 O 0.91743 0.32035 0.26186 0.0
C645 C 0.85403 0.27519 0.29112 0.0
O646 O 0.84294 0.27362 0.26911 0.0
N647 N 0.88516 0.3157 0.22366 0.0
C648 C 0.88236 0.32924 0.1729 0.0
C649 C 0.90227 0.34279 0.18813 0.0
C650 C 0.90312 0.33595 0.21386 0.0
C651 C 0.86471 0.30423 0.21021 0.0
C652 C 0.86311 0.31023 0.18444 0.0
H653 H 0.91818 0.34696 0.22572 0.0
H654 H 0.84968 0.28984 0.21937 0.0
H655 H 0.91582 0.35923 0.27451 0.0
H656 H 0.85078 0.35586 0.27783 0.0
H657 H 0.89535 0.23521 0.25315 0.0
H658 H 0.91719 0.3581 0.18004 0.0
H659 H 0.8471 0.29997 0.17354 0.0
C660 C 0.7042 0.53682 0.26894 0.0
C661 C 0.68325 0.51813 0.27602 0.0
N662 N 0.66822 0.52568 0.28165 0.0
N663 N 0.70281 0.55637 0.2699 0.0
C664 C 0.68062 0.54912 0.27769 0.0
H665 H 0.71937 0.53611 0.26247 0.0
Co666 Co 0.72832 0.58414 0.2581 0.0
C667 C 0.71279 0.61772 0.24699 0.0
O668 O 0.7252 0.62192 0.22542 0.0
N669 N 0.75528 0.61218 0.24658 0.0
C670 C 0.78435 0.64906 0.24819 0.0
C671 C 0.7646 0.63226 0.26049 0.0
C672 C 0.77023 0.61728 0.22613 0.0
N673 N 0.7879 0.63962 0.22648 0.0
O674 O 0.74154 0.59036 0.29302 0.0
H675 H 0.75736 0.6346 0.27854 0.0
H676 H 0.76884 0.60491 0.21151 0.0
O677 O 0.7115 0.60225 0.26341 0.0
C678 C 0.75683 0.58395 0.29236 0.0
O679 O 0.75971 0.57525 0.27039 0.0
N680 N 0.71643 0.57573 0.22407 0.0
C681 C 0.70173 0.56118 0.17287 0.0
C682 C 0.68795 0.56574 0.19012 0.0
C683 C 0.6954 0.57256 0.21587 0.0
C684 C 0.72817 0.56815 0.20882 0.0
C685 C 0.72169 0.56164 0.18282 0.0
H686 H 0.68422 0.57523 0.22912 0.0
H687 H 0.74291 0.56744 0.21686 0.0
H688 H 0.67363 0.5607 0.27986 0.0
H689 H 0.6793 0.5002 0.27597 0.0
H690 H 0.79509 0.66689 0.25467 0.0
H691 H 0.6716 0.56412 0.18381 0.0
H692 H 0.73259 0.55761 0.17061 0.0
C693 C 0.51288 0.15572 0.88436 0.0
C694 C 0.51033 0.17423 0.87724 0.0
N695 N 0.48777 0.16638 0.87129 0.0
N696 N 0.49214 0.13597 0.88311 0.0
C697 C 0.47702 0.14293 0.87508 0.0
H698 H 0.52881 0.15668 0.89109 0.0
Co699 Co 0.49034 0.10843 0.89503 0.0
C700 C 0.44148 0.07412 0.90587 0.0
O701 O 0.44984 0.0702 0.92749 0.0
N702 N 0.48983 0.08066 0.90668 0.0
C703 C 0.48314 0.04416 0.90466 0.0
C704 C 0.48002 0.06083 0.8923 0.0
C705 C 0.49918 0.07551 0.92762 0.0
N706 N 0.49521 0.0534 0.92696 0.0
O707 O 0.49774 0.10249 0.8602 0.0
H708 H 0.47112 0.05861 0.87377 0.0
H709 H 0.50867 0.08748 0.94324 0.0
O710 O 0.4555 0.08974 0.88946 0.0
C711 C 0.51955 0.10941 0.86089 0.0
O712 O 0.53099 0.11818 0.88291 0.0
N713 N 0.48638 0.11668 0.92893 0.0
C714 C 0.4858 0.13263 0.97931 0.0
C715 C 0.46745 0.12727 0.96178 0.0
C716 C 0.46829 0.11974 0.93647 0.0
C717 C 0.50558 0.1247 0.94446 0.0
C718 C 0.5054 0.13195 0.9701 0.0
H719 H 0.45448 0.11665 0.92294 0.0
H720 H 0.52112 0.12531 0.93691 0.0
H721 H 0.45852 0.13113 0.87266 0.0
H722 H 0.52411 0.19224 0.87753 0.0
H723 H 0.47735 0.02675 0.89743 0.0
H724 H 0.45262 0.12895 0.9675 0.0
H725 H 0.52029 0.13651 0.98259 0.0
C726 C 0.87928 0.36685 0.87924 0.0
C727 C 0.86077 0.34554 0.87254 0.0
N728 N 0.86798 0.32978 0.87198 0.0
N729 N 0.89835 0.36488 0.88278 0.0
C730 C 0.89101 0.34209 0.87798 0.0
H731 H 0.87873 0.38274 0.882 0.0
Co732 Co 0.92619 0.39009 0.89518 0.0
C733 C 0.95793 0.37236 0.9072 0.0
O734 O 0.96295 0.38522 0.92852 0.0
N735 N 0.95444 0.41651 0.90716 0.0
C736 C 0.99164 0.44486 0.90603 0.0
C737 C 0.97469 0.42523 0.89368 0.0
C738 C 0.95962 0.43164 0.92744 0.0
N739 N 0.98215 0.4489 0.92735 0.0
O740 O 0.93301 0.40336 0.86028 0.0
H741 H 0.977 0.41772 0.87583 0.0
H742 H 0.94718 0.43074 0.94168 0.0
O743 O 0.94344 0.37247 0.89032 0.0
C744 C 0.92729 0.41917 0.86103 0.0
O745 O 0.91932 0.4227 0.88319 0.0
N746 N 0.91707 0.37822 0.92922 0.0
C747 C 0.9015 0.36378 0.98026 0.0
C748 C 0.90597 0.34972 0.96337 0.0
C749 C 0.91332 0.35705 0.93774 0.0
C750 C 0.90973 0.39038 0.94411 0.0
C751 C 0.90271 0.38401 0.97005 0.0
H752 H 0.91586 0.34557 0.92488 0.0
H753 H 0.90958 0.40533 0.93585 0.0
H754 H 0.9021 0.33451 0.87982 0.0
H755 H 0.84329 0.34204 0.86846 0.0
H756 H 1.00961 0.45521 0.89982 0.0
H757 H 0.90377 0.33316 0.96983 0.0
H758 H 0.89876 0.39512 0.98198 0.0
C759 C 0.66783 0.52117 0.87628 0.0
C760 C 0.68928 0.52431 0.86971 0.0
N761 N 0.70489 0.54731 0.86993 0.0
N762 N 0.66953 0.54202 0.88051 0.0
C763 C 0.69236 0.55774 0.87624 0.0
H764 H 0.65204 0.50458 0.8786 0.0
Co765 Co 0.64397 0.54375 0.89351 0.0
C766 C 0.65875 0.59295 0.90323 0.0
O767 O 0.64684 0.58519 0.92518 0.0
N768 N 0.61708 0.54454 0.90615 0.0
C769 C 0.58723 0.55114 0.90472 0.0
C770 C 0.60673 0.55409 0.8919 0.0
C771 C 0.60307 0.53554 0.92752 0.0
N772 N 0.58488 0.53946 0.92721 0.0
O773 O 0.6293 0.5354 0.85913 0.0
H774 H 0.61297 0.56263 0.87311 0.0
H775 H 0.60591 0.52625 0.94312 0.0
O776 O 0.65996 0.57849 0.88717 0.0
C777 C 0.61372 0.51389 0.86172 0.0
O778 O 0.61219 0.50366 0.88437 0.0
N779 N 0.65698 0.54821 0.92706 0.0
C780 C 0.67282 0.54858 0.97778 0.0
C781 C 0.68564 0.56738 0.9607 0.0
C782 C 0.67761 0.5667 0.93521 0.0
C783 C 0.64601 0.52874 0.94222 0.0
C784 C 0.65311 0.52876 0.96795 0.0
H785 H 0.68809 0.58103 0.9222 0.0
H786 H 0.63125 0.51318 0.93441 0.0
H787 H 0.6998 0.57634 0.87876 0.0
H788 H 0.69301 0.51054 0.86525 0.0
H789 H 0.57541 0.55672 0.89761 0.0
H790 H 0.70171 0.58252 0.96693 0.0
H791 H 0.64282 0.51359 0.98011 0.0
C792 C 0.54512 0.85575 0.70891 0.0
C793 C 0.52699 0.8592 0.7025 0.0
N794 N 0.53458 0.88224 0.70321 0.0
N795 N 0.56437 0.87642 0.71351 0.0
C796 C 0.5575 0.89238 0.70964 0.0
H797 H 0.54413 0.83903 0.71084 0.0
Co798 Co 0.59138 0.87737 0.72628 0.0
C799 C 0.62615 0.92608 0.73801 0.0
O800 O 0.62995 0.91747 0.75949 0.0
N801 N 0.61867 0.87727 0.73866 0.0
C802 C 0.65503 0.88359 0.73745 0.0
C803 C 0.63865 0.88677 0.72457 0.0
C804 C 0.62346 0.86807 0.76003 0.0
N805 N 0.64552 0.87184 0.75987 0.0
O806 O 0.598 0.87037 0.69147 0.0
H807 H 0.6412 0.89561 0.70593 0.0
H808 H 0.61131 0.85893 0.77565 0.0
O809 O 0.61052 0.91228 0.72149 0.0
C810 C 0.59145 0.84862 0.69201 0.0
O811 O 0.58247 0.83693 0.71385 0.0
N812 N 0.5825 0.88074 0.76007 0.0
C813 C 0.567 0.88 0.81102 0.0
C814 C 0.57316 0.89926 0.79461 0.0
C815 C 0.58052 0.89913 0.76899 0.0
C816 C 0.57362 0.86081 0.77448 0.0
C817 C 0.56652 0.86025 0.80034 0.0
H818 H 0.58459 0.91384 0.75651 0.0
H819 H 0.57273 0.8454 0.76602 0.0
H820 H 0.56877 0.91092 0.71253 0.0
H821 H 0.50947 0.84562 0.6978 0.0
H822 H 0.67249 0.8892 0.73052 0.0
H823 H 0.57245 0.91435 0.80151 0.0
H824 H 0.56143 0.84475 0.81196 0.0
C825 C 0.17981 0.69796 0.70849 0.0
C826 C 0.17674 0.67649 0.70205 0.0
N827 N 0.15379 0.66068 0.70299 0.0
N828 N 0.15898 0.69608 0.71333 0.0
C829 C 0.14335 0.67315 0.70959 0.0
H830 H 0.19636 0.71391 0.71017 0.0
Co831 Co 0.15685 0.7216 0.72585 0.0
C832 C 0.10758 0.70444 0.73861 0.0
O833 O 0.11575 0.71744 0.75978 0.0
N834 N 0.15547 0.74827 0.73792 0.0
C835 C 0.14685 0.77681 0.73698 0.0
C836 C 0.14392 0.75708 0.72463 0.0
C837 C 0.16573 0.76349 0.75808 0.0
N838 N 0.16059 0.78086 0.7581 0.0
O839 O 0.16308 0.7348 0.69089 0.0
H840 H 0.13388 0.74953 0.70693 0.0
H841 H 0.17736 0.76254 0.77213 0.0
O842 O 0.1219 0.70425 0.72153 0.0
C843 C 0.18468 0.75043 0.69152 0.0
O844 O 0.19628 0.75368 0.71354 0.0
N845 N 0.15439 0.70989 0.75991 0.0
C846 C 0.15568 0.69682 0.8115 0.0
C847 C 0.13698 0.68241 0.79501 0.0
C848 C 0.13686 0.68907 0.76907 0.0
C849 C 0.17413 0.72211 0.77438 0.0
C850 C 0.1749 0.71644 0.80056 0.0
H851 H 0.12256 0.67749 0.75662 0.0
H852 H 0.18923 0.73676 0.76567 0.0
H853 H 0.12481 0.66562 0.71259 0.0
H854 H 0.19054 0.67294 0.69714 0.0
H855 H 0.13926 0.78721 0.73091 0.0
H856 H 0.12243 0.66626 0.80209 0.0
H857 H 0.1901 0.72777 0.81218 0.0
C858 C 0.33724 0.49039 0.71612 0.0
C859 C 0.35922 0.50841 0.71085 0.0
N860 N 0.37334 0.49954 0.70696 0.0
N861 N 0.33729 0.47008 0.71568 0.0
C862 C 0.35962 0.47616 0.70978 0.0
H863 H 0.32232 0.49208 0.72119 0.0
Co864 Co 0.3109 0.44283 0.72712 0.0
C865 C 0.32478 0.40806 0.73918 0.0
O866 O 0.31178 0.40383 0.76025 0.0
N867 N 0.28321 0.41529 0.73833 0.0
C868 C 0.25349 0.37876 0.73658 0.0
C869 C 0.27353 0.39519 0.72443 0.0
C870 C 0.26818 0.41058 0.75864 0.0
N871 N 0.25011 0.38843 0.75819 0.0
O872 O 0.29818 0.43679 0.69183 0.0
H873 H 0.28077 0.39257 0.70655 0.0
H874 H 0.26989 0.42308 0.77326 0.0
O875 O 0.3269 0.42388 0.72278 0.0
C876 C 0.28329 0.44373 0.69279 0.0
O877 O 0.28154 0.4533 0.71468 0.0
N878 N 0.32204 0.45106 0.76142 0.0
C879 C 0.33427 0.46493 0.8131 0.0
C880 C 0.34824 0.45936 0.79754 0.0
C881 C 0.34206 0.45292 0.77136 0.0
C882 C 0.31035 0.45958 0.77529 0.0
C883 C 0.31562 0.46583 0.80153 0.0
H884 H 0.3533 0.44931 0.7593 0.0
H885 H 0.29643 0.46098 0.76602 0.0
H886 H 0.36597 0.46397 0.70906 0.0
H887 H 0.36456 0.52675 0.71041 0.0
H888 H 0.24249 0.36096 0.73011 0.0
H889 H 0.36334 0.45936 0.80569 0.0
H890 H 0.30515 0.47115 0.81273 0.0
C891 C 0.52677 0.87121 0.10327 0.0
C892 C 0.52981 0.85273 0.10942 0.0
N893 N 0.55262 0.86087 0.11376 0.0
N894 N 0.54755 0.89105 0.10358 0.0
C895 C 0.56306 0.88426 0.1104 0.0
H896 H 0.51055 0.87011 0.0975 0.0
Co897 Co 0.55031 0.91869 0.09034 0.0
C898 C 0.59975 0.94988 0.07791 0.0
O899 O 0.59173 0.95407 0.05617 0.0
N900 N 0.55231 0.94678 0.07735 0.0
C901 C 0.56137 0.98407 0.0776 0.0
C902 C 0.56419 0.96732 0.09023 0.0
C903 C 0.54197 0.95159 0.05715 0.0
N904 N 0.54735 0.97416 0.05674 0.0
O905 O 0.54343 0.92629 0.12477 0.0
H906 H 0.57426 0.96994 0.10793 0.0
H907 H 0.53001 0.93885 0.04344 0.0
O908 O 0.58526 0.93609 0.09537 0.0
C909 C 0.52189 0.92039 0.12264 0.0
O910 O 0.51116 0.91101 0.10041 0.0
N911 N 0.55328 0.90886 0.05677 0.0
C912 C 0.5525 0.89242 0.00628 0.0
C913 C 0.57063 0.89665 0.02368 0.0
C914 C 0.57045 0.90442 0.04907 0.0
C915 C 0.53403 0.90163 0.04148 0.0
C916 C 0.53358 0.89417 0.0158 0.0
H917 H 0.58416 0.90688 0.0624 0.0
H918 H 0.51895 0.9018 0.04923 0.0
H919 H 0.58172 0.89588 0.11113 0.0
H920 H 0.51633 0.83456 0.10995 0.0
H921 H 0.56915 1.00215 0.08339 0.0
H922 H 0.58489 0.89409 0.01774 0.0
H923 H 0.5188 0.89043 0.00348 0.0
C924 C 0.1637 0.6661 0.10157 0.0
C925 C 0.18155 0.68809 0.10717 0.0
N926 N 0.17241 0.70183 0.1121 0.0
N927 N 0.14323 0.66577 0.10281 0.0
C928 C 0.14904 0.68785 0.1096 0.0
H929 H 0.16561 0.65149 0.09558 0.0
Co930 Co 0.11617 0.63953 0.09067 0.0
C931 C 0.08075 0.65282 0.0807 0.0
O932 O 0.0769 0.64071 0.05895 0.0
N933 N 0.08881 0.61194 0.07873 0.0
C934 C 0.05267 0.58155 0.08073 0.0
C935 C 0.06911 0.60131 0.09331 0.0
C936 C 0.08382 0.59784 0.05743 0.0
N937 N 0.0619 0.57936 0.05808 0.0
O938 O 0.11067 0.62552 0.12527 0.0
H939 H 0.06682 0.60757 0.11209 0.0
H940 H 0.09573 0.60088 0.04153 0.0
O941 O 0.09664 0.6547 0.09685 0.0
C942 C 0.11785 0.61089 0.12298 0.0
O943 O 0.12715 0.60996 0.1005 0.0
N944 N 0.12403 0.65217 0.05692 0.0
C945 C 0.13989 0.66902 0.00659 0.0
C946 C 0.13372 0.68147 0.024 0.0
C947 C 0.1262 0.67294 0.04929 0.0
C948 C 0.13263 0.64149 0.04143 0.0
C949 C 0.13987 0.64908 0.01586 0.0
H950 H 0.12244 0.68326 0.06271 0.0
H951 H 0.13367 0.62677 0.04895 0.0
H952 H 0.13666 0.69393 0.11102 0.0
H953 H 0.19997 0.69374 0.10699 0.0
H954 H 0.0354 0.56953 0.08803 0.0
H955 H 0.13477 0.6977 0.01823 0.0
H956 H 0.14493 0.63907 0.00344 0.0
C957 C 0.37025 0.50427 0.10835 0.0
C958 C 0.34876 0.50094 0.11511 0.0
N959 N 0.33329 0.47789 0.11496 0.0
N960 N 0.36874 0.48351 0.10407 0.0
C961 C 0.34597 0.46764 0.10849 0.0
H962 H 0.38593 0.52094 0.10598 0.0
Co963 Co 0.39449 0.48207 0.09101 0.0
C964 C 0.37981 0.43307 0.08031 0.0
O965 O 0.39175 0.44119 0.05843 0.0
N966 N 0.42152 0.48157 0.07839 0.0
C967 C 0.45119 0.47467 0.07961 0.0
C968 C 0.43134 0.47117 0.09207 0.0
C969 C 0.43628 0.49175 0.05783 0.0
N970 N 0.45437 0.48767 0.05802 0.0
O971 O 0.40897 0.48996 0.12549 0.0
H972 H 0.42443 0.46158 0.11018 0.0
H973 H 0.43448 0.50261 0.04337 0.0
O974 O 0.37855 0.44727 0.09673 0.0
C975 C 0.42445 0.51154 0.12316 0.0
O976 O 0.42577 0.52203 0.10075 0.0
N977 N 0.38167 0.478 0.05735 0.0
C978 C 0.36612 0.4778 0.00651 0.0
C979 C 0.35313 0.45901 0.02355 0.0
C980 C 0.36101 0.45962 0.04909 0.0
C981 C 0.39283 0.49747 0.04221 0.0
C982 C 0.38589 0.49751 0.01641 0.0
H983 H 0.35041 0.44529 0.06206 0.0
H984 H 0.40747 0.51303 0.05016 0.0
H985 H 0.33868 0.44906 0.10601 0.0
H986 H 0.34492 0.51462 0.11968 0.0
H987 H 0.46231 0.46799 0.08599 0.0
H988 H 0.33699 0.44398 0.01729 0.0
H989 H 0.39626 0.5127 0.00432 0.0
C990 C 0.15989 0.50574 0.61115 0.0
C991 C 0.1783 0.50272 0.61754 0.0
N992 N 0.17184 0.48011 0.61414 0.0
N993 N 0.14158 0.48518 0.60389 0.0
C994 C 0.1493 0.46973 0.60609 0.0
H995 H 0.16011 0.52216 0.6111 0.0
Co996 Co 0.11455 0.48369 0.59037 0.0
C997 C 0.08116 0.43474 0.5772 0.0
O998 O 0.07749 0.44339 0.55565 0.0
N999 N 0.08713 0.48306 0.57717 0.0
C1000 C 0.05035 0.47552 0.57697 0.0
C1001 C 0.06656 0.47224 0.59013 0.0
C1002 C 0.08289 0.49317 0.55627 0.0
N1003 N 0.06061 0.48872 0.55562 0.0
O1004 O 0.10665 0.48978 0.62515 0.0
H1005 H 0.06349 0.46241 0.60812 0.0
H1006 H 0.09582 0.50412 0.54207 0.0
O1007 O 0.09622 0.44861 0.59416 0.0
C1008 C 0.11231 0.51132 0.6239 0.0
O1009 O 0.12154 0.52274 0.60198 0.0
N1010 N 0.12464 0.48174 0.55675 0.0
C1011 C 0.1411 0.486 0.50584 0.0
C1012 C 0.13457 0.46559 0.52019 0.0
C1013 C 0.12678 0.46397 0.54603 0.0
C1014 C 0.13385 0.50262 0.54417 0.0
C1015 C 0.14155 0.50498 0.51836 0.0
H1016 H 0.12226 0.44838 0.55708 0.0
H1017 H 0.13445 0.51737 0.55401 0.0
H1018 H 0.13897 0.4515 0.6009 0.0
H1019 H 0.19524 0.5163 0.62408 0.0
H1020 H 0.03232 0.46846 0.58261 0.0
H1021 H 0.13474 0.45082 0.51128 0.0
H1022 H 0.14741 0.52134 0.50814 0.0
C1023 C 0.52989 0.66575 0.60106 0.0
C1024 C 0.5341 0.68781 0.60631 0.0
N1025 N 0.55688 0.7014 0.61181 0.0
N1026 N 0.54988 0.66519 0.60311 0.0
C1027 C 0.56615 0.68724 0.61 0.0
H1028 H 0.51343 0.6512 0.59484 0.0
Co1029 Co 0.55037 0.63849 0.592 0.0
C1030 C 0.59892 0.6514 0.5811 0.0
O1031 O 0.59019 0.63829 0.5601 0.0
N1032 N 0.54969 0.61043 0.5811 0.0
C1033 C 0.55512 0.57984 0.58373 0.0
C1034 C 0.55859 0.59981 0.59597 0.0
C1035 C 0.54055 0.59612 0.55997 0.0
N1036 N 0.54377 0.57751 0.56098 0.0
O1037 O 0.54297 0.62592 0.6272 0.0
H1038 H 0.56725 0.60629 0.61465 0.0
H1039 H 0.53195 0.59916 0.54381 0.0
O1040 O 0.5852 0.65384 0.59716 0.0
C1041 C 0.5209 0.61215 0.62696 0.0
O1042 O 0.50937 0.61015 0.6052 0.0
N1043 N 0.55433 0.64995 0.55775 0.0
C1044 C 0.55465 0.66514 0.50673 0.0
C1045 C 0.57349 0.67815 0.52369 0.0
C1046 C 0.57282 0.67045 0.54931 0.0
C1047 C 0.53475 0.63893 0.54276 0.0
C1048 C 0.53478 0.64563 0.51684 0.0
H1049 H 0.58706 0.68119 0.56234 0.0
H1050 H 0.51909 0.62453 0.55091 0.0
H1051 H 0.58452 0.69314 0.61209 0.0
H1052 H 0.52146 0.6936 0.60559 0.0
H1053 H 0.56031 0.56784 0.59126 0.0
H1054 H 0.58859 0.69419 0.51732 0.0
H1055 H 0.51954 0.63526 0.50484 0.0
C1056 C 0.37028 0.87124 0.60312 0.0
C1057 C 0.34872 0.85284 0.60926 0.0
N1058 N 0.33413 0.86111 0.61355 0.0
N1059 N 0.36947 0.89116 0.60337 0.0
C1060 C 0.34718 0.88449 0.61017 0.0
H1061 H 0.38534 0.87003 0.59734 0.0
Co1062 Co 0.39439 0.91869 0.58992 0.0
C1063 C 0.37651 0.95022 0.57784 0.0
O1064 O 0.38864 0.95436 0.55605 0.0
N1065 N 0.42054 0.94669 0.57667 0.0
C1066 C 0.44919 0.98377 0.57717 0.0
C1067 C 0.42988 0.967 0.59011 0.0
C1068 C 0.43494 0.95171 0.55565 0.0
N1069 N 0.45242 0.97418 0.55539 0.0
O1070 O 0.40911 0.92623 0.62423 0.0
H1071 H 0.42314 0.96942 0.6085 0.0
H1072 H 0.43293 0.93933 0.54072 0.0
O1073 O 0.37713 0.93633 0.59522 0.0
C1074 C 0.42469 0.92028 0.6219 0.0
O1075 O 0.42588 0.91087 0.59961 0.0
N1076 N 0.38131 0.90884 0.55651 0.0
C1077 C 0.36474 0.89141 0.50656 0.0
C1078 C 0.35125 0.89618 0.52399 0.0
C1079 C 0.35967 0.90448 0.5491 0.0
C1080 C 0.39302 0.90126 0.5412 0.0
C1081 C 0.38555 0.89328 0.51577 0.0
H1082 H 0.34867 0.90729 0.56249 0.0
H1083 H 0.40846 0.90165 0.54871 0.0
H1084 H 0.34023 0.89619 0.61083 0.0
H1085 H 0.34391 0.83464 0.60977 0.0
H1086 H 0.46029 1.00151 0.58377 0.0
H1087 H 0.33438 0.89361 0.51831 0.0
H1088 H 0.39634 0.88924 0.50339 0.0
C1089 C 0.18088 0.4876 0.20985 0.0
C1090 C 0.17839 0.50615 0.20246 0.0
N1091 N 0.15555 0.4995 0.20288 0.0
N1092 N 0.15978 0.46905 0.21481 0.0
C1093 C 0.14458 0.47673 0.21009 0.0
H1094 H 0.19721 0.48786 0.21227 0.0
Co1095 Co 0.15687 0.44166 0.22921 0.0
C1096 C 0.10731 0.4106 0.24144 0.0
O1097 O 0.1152 0.4066 0.26339 0.0
N1098 N 0.15467 0.41379 0.24324 0.0
C1099 C 0.14589 0.3766 0.24374 0.0
C1100 C 0.14338 0.39321 0.23036 0.0
C1101 C 0.16426 0.40913 0.26433 0.0
N1102 N 0.15905 0.38661 0.26519 0.0
O1103 O 0.16389 0.43335 0.19516 0.0
H1104 H 0.13407 0.39049 0.21204 0.0
H1105 H 0.17501 0.42183 0.2788 0.0
O1106 O 0.12192 0.42426 0.22398 0.0
C1107 C 0.18522 0.43854 0.19761 0.0
O1108 O 0.19585 0.4476 0.21998 0.0
N1109 N 0.15391 0.4522 0.26238 0.0
C1110 C 0.15523 0.46959 0.31252 0.0
C1111 C 0.13668 0.46458 0.29544 0.0
C1112 C 0.13654 0.45628 0.27025 0.0
C1113 C 0.17342 0.45999 0.27734 0.0
C1114 C 0.17418 0.46796 0.30284 0.0
H1115 H 0.12239 0.45312 0.25728 0.0
H1116 H 0.18839 0.45959 0.26956 0.0
H1117 H 0.12597 0.46616 0.213 0.0
H1118 H 0.19248 0.52332 0.1974 0.0
H1119 H 0.13906 0.35871 0.23764 0.0
H1120 H 0.12233 0.46696 0.30146 0.0
H1121 H 0.18922 0.47217 0.31492 0.0
C1122 C 0.54485 0.69645 0.2106 0.0
C1123 C 0.52664 0.67485 0.20441 0.0
N1124 N 0.53432 0.65946 0.20449 0.0
N1125 N 0.56424 0.69511 0.21441 0.0
C1126 C 0.55737 0.6723 0.21031 0.0
H1127 H 0.54383 0.71213 0.2129 0.0
Co1128 Co 0.59148 0.72123 0.22659 0.0
C1129 C 0.62642 0.70729 0.23724 0.0
O1130 O 0.63074 0.71997 0.25861 0.0
N1131 N 0.61898 0.74873 0.23839 0.0
C1132 C 0.65522 0.77895 0.23648 0.0
C1133 C 0.63877 0.75916 0.22396 0.0
C1134 C 0.62394 0.76298 0.25954 0.0
N1135 N 0.64592 0.78139 0.25896 0.0
O1136 O 0.59734 0.73461 0.1917 0.0
H1137 H 0.64111 0.75273 0.20532 0.0
H1138 H 0.61194 0.76012 0.27528 0.0
O1139 O 0.6105 0.70541 0.22114 0.0
C1140 C 0.5906 0.74965 0.19255 0.0
O1141 O 0.5822 0.75255 0.21474 0.0
N1142 N 0.58328 0.70912 0.26053 0.0
C1143 C 0.5685 0.69413 0.31162 0.0
C1144 C 0.57429 0.68104 0.29472 0.0
C1145 C 0.58134 0.68868 0.26908 0.0
C1146 C 0.57471 0.72017 0.27544 0.0
C1147 C 0.56804 0.71355 0.30138 0.0
H1148 H 0.58509 0.67801 0.25626 0.0
H1149 H 0.57361 0.73467 0.26727 0.0
H1150 H 0.56876 0.66512 0.21258 0.0
H1151 H 0.50901 0.67087 0.20028 0.0
H1152 H 0.67255 0.79084 0.22924 0.0
H1153 H 0.57347 0.66508 0.3012 0.0
H1154 H 0.56321 0.72399 0.31335 0.0
C1155 C 0.33651 0.85561 0.20876 0.0
C1156 C 0.35805 0.85897 0.20225 0.0
N1157 N 0.37362 0.88196 0.20325 0.0
N1158 N 0.3381 0.87631 0.21373 0.0
C1159 C 0.36097 0.89218 0.20996 0.0
H1160 H 0.32072 0.83894 0.2105 0.0
Co1161 Co 0.31216 0.87742 0.22669 0.0
C1162 C 0.32706 0.92615 0.24001 0.0
O1163 O 0.31413 0.91706 0.26106 0.0
N1164 N 0.28492 0.87755 0.23925 0.0
C1165 C 0.25522 0.88441 0.23839 0.0
C1166 C 0.27472 0.88749 0.22543 0.0
C1167 C 0.27084 0.86824 0.26054 0.0
N1168 N 0.25275 0.87233 0.26059 0.0
O1169 O 0.29881 0.87123 0.19177 0.0
H1170 H 0.28115 0.89655 0.20694 0.0
H1171 H 0.27368 0.85884 0.27597 0.0
O1172 O 0.32845 0.91248 0.22289 0.0
C1173 C 0.28351 0.84951 0.19202 0.0
O1174 O 0.28059 0.83756 0.2137 0.0
N1175 N 0.32413 0.87991 0.2605 0.0
C1176 C 0.33831 0.87823 0.31144 0.0
C1177 C 0.35187 0.89753 0.29529 0.0
C1178 C 0.34467 0.89787 0.26967 0.0
C1179 C 0.3127 0.85981 0.27457 0.0
C1180 C 0.31895 0.8588 0.30045 0.0
H1181 H 0.35563 0.91264 0.25742 0.0
H1182 H 0.29807 0.84467 0.26586 0.0
H1183 H 0.36835 0.9107 0.21312 0.0
H1184 H 0.36187 0.84534 0.19728 0.0
H1185 H 0.24359 0.89036 0.23164 0.0
H1186 H 0.36778 0.91236 0.30243 0.0
H1187 H 0.3082 0.84324 0.31185 0.0
H1188 H 0.18049 0.19889 0.30775 0.0
H1189 H 0.25486 0.24663 0.30977 0.0
H1190 H 0.18235 0.19594 0.26017 0.0
H1191 H 0.25694 0.24217 0.2628 0.0
H1192 H 0.25236 0.25216 0.17749 0.0
H1193 H 0.24665 0.2546 0.22414 0.0
H1194 H 0.19563 0.18109 0.22564 0.0
H1195 H 0.19989 0.17903 0.17833 0.0
C1196 C 0.19725 0.2086 0.29812 0.0
C1197 C 0.2175 0.22315 0.31259 0.0
C1198 C 0.19834 0.20668 0.27089 0.0
C1199 C 0.21974 0.21906 0.25766 0.0
C1200 C 0.24008 0.23285 0.27229 0.0
C1201 C 0.23895 0.23503 0.29937 0.0
C1202 C 0.23943 0.23662 0.18753 0.0
C1203 C 0.2267 0.21535 0.17413 0.0
C1204 C 0.23648 0.23794 0.21444 0.0
C1205 C 0.22107 0.21793 0.2287 0.0
C1206 C 0.20765 0.19683 0.21521 0.0
C1207 C 0.21033 0.19559 0.18814 0.0
H1208 H 0.782 0.01583 0.17807 0.0
H1209 H 0.85499 0.03598 0.17872 0.0
H1210 H 0.7798 1.00852 0.2249 0.0
H1211 H 0.85323 0.03063 0.22615 0.0
H1212 H 0.83464 0.99517 0.30697 0.0
H1213 H 0.83856 1.00219 0.25984 0.0
H1214 H 0.7917 0.02977 0.26432 0.0
H1215 H 0.78612 0.02081 0.31079 0.0
C1216 C 0.79759 0.01862 0.18816 0.0
C1217 C 0.81868 0.02652 0.17458 0.0
C1218 C 0.79643 0.01488 0.21516 0.0
C1219 C 0.81644 0.01939 0.22936 0.0
C1220 C 0.83747 0.02691 0.21578 0.0
C1221 C 0.83854 0.03028 0.18862 0.0
C1222 C 0.82499 1.00251 0.29786 0.0
C1223 C 0.80981 1.00711 0.31266 0.0
C1224 C 0.82751 1.00686 0.27087 0.0
C1225 C 0.81519 0.01624 0.25825 0.0
C1226 C 0.80098 0.02196 0.27331 0.0
C1227 C 0.79814 0.01724 0.30013 0.0
H1228 H 1.01891 0.7735 0.30748 0.0
H1229 H 0.04147 0.8471 0.30592 0.0
H1230 H 1.01087 0.77097 0.26086 0.0
H1231 H 0.03551 0.84496 0.25861 0.0
H1232 H 1.00124 0.8275 0.17738 0.0
H1233 H 1.00752 0.83116 0.22466 0.0
H1234 H 0.03183 0.78157 0.22152 0.0
H1235 H 0.02345 0.77621 0.17499 0.0
C1236 C 0.02206 0.78916 0.29727 0.0
C1237 C 0.03093 0.81053 0.31054 0.0
C1238 C 1.0179 0.78779 0.27035 0.0
C1239 C 0.02299 0.80785 0.25587 0.0
C1240 C 0.03133 0.82914 0.26917 0.0
C1241 C 0.03508 0.83043 0.29627 0.0
C1242 C 1.00765 0.81716 0.18683 0.0
C1243 C 1.01158 0.80137 0.17233 0.0
C1244 C 1.01158 0.81952 0.21391 0.0
C1245 C 0.01989 0.80643 0.22696 0.0
C1246 C 0.02483 0.79147 0.21224 0.0
C1247 C 0.02048 0.78877 0.18535 0.0
H1248 H 0.85451 0.8284 0.67718 0.0
H1249 H 0.78074 0.77814 0.67503 0.0
H1250 H 0.85203 0.83254 0.72445 0.0
H1251 H 0.77796 0.78377 0.72164 0.0
H1252 H 0.78374 0.77552 0.80768 0.0
H1253 H 0.78892 0.77286 0.76094 0.0
H1254 H 0.83757 0.84698 0.75813 0.0
H1255 H 0.83386 0.84934 0.80551 0.0
C1256 C 0.83774 0.81839 0.68671 0.0
C1257 C 0.81788 0.80273 0.67233 0.0
C1258 C 0.83627 0.82101 0.71374 0.0
C1259 C 0.81485 0.80825 0.72685 0.0
C1260 C 0.79484 0.79343 0.71225 0.0
C1261 C 0.79636 0.79054 0.68537 0.0
C1262 C 0.796 0.79118 0.7973 0.0
C1263 C 0.80834 0.81266 0.81038 0.0
C1264 C 0.79862 0.78974 0.77035 0.0
C1265 C 0.81332 0.80979 0.75573 0.0
C1266 C 0.82614 0.83119 0.76885 0.0
C1267 C 0.82378 0.83259 0.79596 0.0
H1268 H 0.18787 0.99725 0.80879 0.0
H1269 H 0.26157 0.0204 0.81123 0.0
H1270 H 0.19055 1.00398 0.76163 0.0
H1271 H 0.26461 0.02926 0.7648 0.0
H1272 H 0.25927 0.01509 0.67881 0.0
H1273 H 0.25444 1.00802 0.72564 0.0
H1274 H 0.20431 0.03169 0.72748 0.0
H1275 H 0.20747 0.03665 0.68001 0.0
C1276 C 0.20469 1.004 0.79938 0.0
C1277 C 0.22443 1.00794 0.81382 0.0
C1278 C 0.20628 1.0082 0.77237 0.0
C1279 C 0.22773 0.01683 0.75935 0.0
C1280 C 0.24768 0.022 0.77407 0.0
C1281 C 0.24601 0.01735 0.8009 0.0
C1282 C 0.24676 0.01825 0.689 0.0
C1283 C 0.23379 0.02649 0.67556 0.0
C1284 C 0.24436 0.01467 0.71603 0.0
C1285 C 0.22932 0.01972 0.73043 0.0
C1286 C 0.216 0.02755 0.71698 0.0
C1287 C 0.21807 0.03072 0.68979 0.0
H1288 H 0.96909 0.20107 0.68457 0.0
H1289 H 0.041 0.22132 0.67014 0.0
H1290 H 0.97604 0.20314 0.73198 0.0
H1291 H 0.04789 0.22312 0.71778 0.0
H1292 H 0.03881 0.1979 0.80574 0.0
H1293 H 0.03064 0.19248 0.75862 0.0
H1294 H 1.00421 0.24018 0.76139 0.0
H1295 H 1.0134 0.24671 0.80804 0.0
C1296 C 0.98629 0.20567 0.69163 0.0
C1297 C 1.00456 0.21104 0.67394 0.0
C1298 C 0.99025 0.20693 0.71861 0.0
C1299 C 1.01244 0.21323 0.72824 0.0
C1300 C 0.03061 0.21806 0.71061 0.0
C1301 C 0.02674 0.21719 0.68354 0.0
C1302 C 0.03146 0.20742 0.79631 0.0
C1303 C 0.02685 0.22283 0.81069 0.0
C1304 C 0.02671 0.20419 0.76943 0.0
C1305 C 1.01686 0.21595 0.75667 0.0
C1306 C 1.01163 0.2308 0.77103 0.0
C1307 C 1.01674 0.23436 0.79775 0.0
H1308 H 0.92747 0.5792 0.64366 0.0
H1309 H 0.85332 0.53079 0.63939 0.0
H1310 H 0.93092 0.57441 0.597 0.0
H1311 H 0.8565 0.52769 0.59212 0.0
H1312 H 0.87416 0.51218 0.51063 0.0
H1313 H 0.87024 0.51344 0.55805 0.0
H1314 H 0.92178 0.58683 0.55784 0.0
H1315 H 0.92722 0.5851 0.511 0.0
C1316 C 0.9119 0.56737 0.63286 0.0
C1317 C 0.89008 0.55549 0.64533 0.0
C1318 C 0.91382 0.565 0.60593 0.0
C1319 C 0.89392 0.55105 0.59072 0.0
C1320 C 0.8722 0.53854 0.60327 0.0
C1321 C 0.87033 0.54059 0.63034 0.0
C1322 C 0.88488 0.52851 0.52075 0.0
C1323 C 0.90119 0.54848 0.507 0.0
C1324 C 0.88239 0.5293 0.54791 0.0
C1325 C 0.89589 0.55017 0.5618 0.0
C1326 C 0.91152 0.57032 0.54787 0.0
C1327 C 0.9143 0.56944 0.52085 0.0
H1328 H 0.44776 0.34371 0.51124 0.0
H1329 H 0.5216 0.36744 0.51277 0.0
H1330 H 0.44552 0.3365 0.55803 0.0
H1331 H 0.51969 0.36222 0.56024 0.0
H1332 H 0.50234 0.32916 0.64242 0.0
H1333 H 0.50608 0.3347 0.595 0.0
H1334 H 0.45635 0.35885 0.59661 0.0
H1335 H 0.45097 0.35129 0.64331 0.0
C1336 C 0.46353 0.34725 0.52147 0.0
C1337 C 0.48489 0.35626 0.50816 0.0
C1338 C 0.46232 0.34357 0.54848 0.0
C1339 C 0.48252 0.34927 0.56298 0.0
C1340 C 0.50379 0.35763 0.54964 0.0
C1341 C 0.50493 0.36093 0.52246 0.0
C1342 C 0.49202 0.33541 0.63261 0.0
C1343 C 0.47614 0.3395 0.64671 0.0
C1344 C 0.49442 0.3389 0.60546 0.0
C1345 C 0.48125 0.34687 0.59196 0.0
C1346 C 0.4663 0.35208 0.60628 0.0
C1347 C 0.46357 0.34819 0.63325 0.0
H1348 H 0.67927 0.10597 0.6435 0.0
H1349 H 0.70229 0.17967 0.64149 0.0
H1350 H 0.67068 0.10318 0.59698 0.0
H1351 H 0.69579 0.17725 0.59429 0.0
H1352 H 0.66393 0.16076 0.51223 0.0
H1353 H 0.6683 0.16355 0.5598 0.0
H1354 H 0.69251 0.11384 0.55811 0.0
H1355 H 0.6861 0.10941 0.51118 0.0
C1356 C 0.68234 0.12158 0.63324 0.0
C1357 C 0.69169 0.1431 0.64629 0.0
C1358 C 0.67784 0.12005 0.60638 0.0
C1359 C 0.68306 0.14009 0.59178 0.0
C1360 C 0.69154 0.16146 0.60494 0.0
C1361 C 0.69561 0.16291 0.63197 0.0
C1362 C 0.66989 0.1502 0.52206 0.0
C1363 C 0.67449 0.13473 0.50784 0.0
C1364 C 0.67269 0.15203 0.54931 0.0
C1365 C 0.68048 0.13871 0.56282 0.0
C1366 C 0.68589 0.12392 0.54845 0.0
C1367 C 0.68269 0.12176 0.52136 0.0
H1368 H 0.50035 0.18476 0.14047 0.0
H1369 H 0.45105 0.11073 0.14263 0.0
H1370 H 0.50358 0.18261 0.09294 0.0
H1371 H 0.45571 0.10832 0.09574 0.0
H1372 H 0.44696 0.11314 0.01014 0.0
H1373 H 0.44424 0.11914 0.05666 0.0
H1374 H 0.51822 0.1683 0.05907 0.0
H1375 H 0.52063 0.16376 0.01186 0.0
C1376 C 0.49033 0.16803 0.13087 0.0
C1377 C 0.47533 0.14795 0.14535 0.0
C1378 C 0.49241 0.16676 0.10369 0.0
C1379 C 0.47969 0.14535 0.09055 0.0
C1380 C 0.46533 0.12519 0.10518 0.0
C1381 C 0.46301 0.1265 0.1322 0.0
C1382 C 0.46257 0.12571 0.02035 0.0
C1383 C 0.48405 0.13786 0.00724 0.0
C1384 C 0.46108 0.12883 0.04718 0.0
C1385 C 0.48111 0.14383 0.06166 0.0
C1386 C 0.50246 0.15663 0.04845 0.0
C1387 C 0.50389 0.15377 0.02146 0.0
H1388 H 0.8708 0.29828 0.13326 0.0
H1389 H 0.89374 0.37063 0.14928 0.0
H1390 H 0.87317 0.30605 0.08604 0.0
H1391 H 0.89585 0.37833 0.10179 0.0
H1392 H 0.8716 0.37004 0.01236 0.0
H1393 H 0.86521 0.36186 0.05948 0.0
H1394 H 0.91236 0.33475 0.05863 0.0
H1395 H 0.9199 0.34398 0.01212 0.0
C1396 C 0.87595 0.31574 0.1266 0.0
C1397 C 0.88211 0.33391 0.14469 0.0
C1398 C 0.87738 0.32016 0.09973 0.0
C1399 C 0.88465 0.34272 0.09059 0.0
C1400 C 0.89004 0.36077 0.1086 0.0
C1401 C 0.88899 0.35643 0.13558 0.0
C1402 C 0.88082 0.36258 0.02223 0.0
C1403 C 0.89625 0.35764 0.0084 0.0
C1404 C 0.87703 0.35783 0.04909 0.0
C1405 C 0.88825 0.34765 0.06233 0.0
C1406 C 0.90334 0.34237 0.04858 0.0
C1407 C 0.90748 0.3475 0.02193 0.0
H1408 H 0.69063 0.58692 0.00949 0.0
H1409 H 0.66927 0.51361 0.00997 0.0
H1410 H 0.69822 0.58899 0.05625 0.0
H1411 H 0.6749 0.51526 0.05733 0.0
H1412 H 0.70754 0.53191 0.1393 0.0
H1413 H 0.70251 0.5292 0.09182 0.0
H1414 H 0.67615 0.57712 0.09513 0.0
H1415 H 0.68311 0.58143 0.14205 0.0
C1416 C 0.6877 0.57125 0.01948 0.0
C1417 C 0.6792 0.55006 0.00592 0.0
C1418 C 0.69162 0.57234 0.04646 0.0
C1419 C 0.6867 0.55219 0.06065 0.0
C1420 C 0.67891 0.53113 0.047 0.0
C1421 C 0.67537 0.53012 0.01988 0.0
C1422 C 0.70092 0.54207 0.12986 0.0
C1423 C 0.69598 0.55709 0.14451 0.0
C1424 C 0.69774 0.54026 0.10266 0.0
C1425 C 0.68921 0.55318 0.08962 0.0
C1426 C 0.68332 0.56738 0.10445 0.0
C1427 C 0.68687 0.56949 0.13151 0.0
H1428 H 0.51692 0.86342 0.97308 0.0
H1429 H 0.59139 0.91068 0.97554 0.0
H1430 H 0.51902 0.86022 0.92561 0.0
H1431 H 0.59369 0.90587 0.92867 0.0
H1432 H 0.5886 0.91763 0.84351 0.0
H1433 H 0.58367 0.91907 0.89048 0.0
H1434 H 0.53201 0.84573 0.89048 0.0
H1435 H 0.5355 0.84472 0.8429 0.0
C1436 C 0.53376 0.87293 0.96359 0.0
C1437 C 0.55394 0.88756 0.97812 0.0
C1438 C 0.53499 0.87084 0.93641 0.0
C1439 C 0.55647 0.88309 0.92331 0.0
C1440 C 0.57677 0.89668 0.93806 0.0
C1441 C 0.5755 0.89907 0.96509 0.0
C1442 C 0.57572 0.90192 0.85332 0.0
C1443 C 0.5625 0.88104 0.83937 0.0
C1444 C 0.57324 0.90264 0.88041 0.0
C1445 C 0.55781 0.8824 0.89431 0.0
C1446 C 0.54405 0.86164 0.88034 0.0
C1447 C 0.54627 0.861 0.8531 0.0
H1448 H 0.12004 0.68781 0.97532 0.0
H1449 H 0.17178 0.66618 0.9745 0.0
H1450 H 0.12599 0.69611 0.92872 0.0
H1451 H 0.17615 0.67249 0.92725 0.0
H1452 H 0.19137 0.70392 0.84483 0.0
H1453 H 0.18966 0.7 0.8925 0.0
H1454 H 0.11538 0.67362 0.89014 0.0
H1455 H 0.11739 0.67943 0.84307 0.0
C1456 C 0.13285 0.685 0.9653 0.0
C1457 C 0.14526 0.6761 0.97868 0.0
C1458 C 0.13593 0.68934 0.93841 0.0
C1459 C 0.15114 0.68445 0.92414 0.0
C1460 C 0.16429 0.67646 0.93765 0.0
C1461 C 0.16152 0.67251 0.9647 0.0
C1462 C 0.17472 0.69754 0.85453 0.0
C1463 C 0.15454 0.69213 0.84009 0.0
C1464 C 0.17371 0.69503 0.88183 0.0
C1465 C 0.15244 0.68676 0.89516 0.0
C1466 C 0.13216 0.68059 0.88059 0.0
C1467 C 0.13324 0.68346 0.85344 0.0
H1468 H 0.37 0.51319 0.97474 0.0
H1469 H 0.34761 0.43958 0.97449 0.0
H1470 H 0.36223 0.51133 0.92758 0.0
H1471 H 0.33868 0.43774 0.92782 0.0
H1472 H 0.30274 0.44275 0.85159 0.0
H1473 H 0.30933 0.44674 0.89913 0.0
H1474 H 0.38117 0.49917 0.88607 0.0
H1475 H 0.37468 0.4949 0.83831 0.0
C1476 C 0.3634 0.49664 0.96476 0.0
C1477 C 0.35953 0.47654 0.97845 0.0
C1478 C 0.35886 0.49562 0.93785 0.0
C1479 C 0.34992 0.47442 0.92439 0.0
C1480 C 0.34541 0.45423 0.93804 0.0
C1481 C 0.35036 0.4553 0.96477 0.0
C1482 C 0.31985 0.45528 0.85895 0.0
C1483 C 0.33824 0.46856 0.84155 0.0
C1484 C 0.3236 0.45748 0.88599 0.0
C1485 C 0.34569 0.47326 0.89596 0.0
C1486 C 0.36396 0.48701 0.87863 0.0
C1487 C 0.36032 0.4845 0.8515 0.0
H1488 H 0.11697 0.45211 0.34431 0.0
H1489 H 0.19144 0.49987 0.34432 0.0
H1490 H 0.11554 0.45945 0.39091 0.0
H1491 H 0.18991 0.50601 0.39152 0.0
H1492 H 0.17077 0.47517 0.48041 0.0
H1493 H 0.17596 0.47444 0.43263 0.0
H1494 H 0.12641 0.49772 0.42011 0.0
H1495 H 0.12142 0.49873 0.46764 0.0
C1496 C 0.13299 0.46444 0.35405 0.0
C1497 C 0.15433 0.47542 0.34047 0.0
C1498 C 0.13214 0.46846 0.38077 0.0
C1499 C 0.15263 0.4832 0.39453 0.0
C1500 C 0.17395 0.49443 0.38115 0.0
C1501 C 0.17478 0.49078 0.35424 0.0
C1502 C 0.16125 0.48036 0.46736 0.0
C1503 C 0.14575 0.48702 0.47747 0.0
C1504 C 0.16432 0.4801 0.44021 0.0
C1505 C 0.15157 0.48607 0.42301 0.0
C1506 C 0.1364 0.4931 0.43316 0.0
C1507 C 0.13364 0.49374 0.46021 0.0
H1508 H 0.51957 0.6608 0.47407 0.0
H1509 H 0.59312 0.68319 0.47522 0.0
H1510 H 0.52145 0.66629 0.4267 0.0
H1511 H 0.59541 0.69085 0.42854 0.0
H1512 H 0.5894 0.67652 0.34299 0.0
H1513 H 0.58452 0.66918 0.38973 0.0
H1514 H 0.53495 0.69354 0.39207 0.0
H1515 H 0.53809 0.69871 0.34463 0.0
C1516 C 0.53618 0.66708 0.46432 0.0
C1517 C 0.55613 0.67125 0.47849 0.0
C1518 C 0.53732 0.67056 0.43718 0.0
C1519 C 0.55851 0.67869 0.42374 0.0
C1520 C 0.57865 0.68395 0.43813 0.0
C1521 C 0.57743 0.68001 0.4651 0.0
C1522 C 0.57695 0.67972 0.35323 0.0
C1523 C 0.56419 0.68829 0.33994 0.0
C1524 C 0.57452 0.67598 0.38024 0.0
C1525 C 0.55971 0.68124 0.39477 0.0
C1526 C 0.54648 0.68925 0.38147 0.0
C1527 C 0.54855 0.69254 0.35428 0.0
H1528 H 0.33343 0.84252 0.3434 0.0
H1529 H 0.35434 0.91573 0.34405 0.0
H1530 H 0.33737 0.84333 0.3911 0.0
H1531 H 0.36006 0.91691 0.3911 0.0
H1532 H 0.34369 0.90913 0.47569 0.0
H1533 H 0.3362 0.90372 0.42894 0.0
H1534 H 0.36489 0.85775 0.42649 0.0
H1535 H 0.37059 0.86158 0.47391 0.0
C1536 C 0.33905 0.85881 0.35364 0.0
C1537 C 0.34339 0.87902 0.33989 0.0
C1538 C 0.34156 0.85932 0.38093 0.0
C1539 C 0.34868 0.8801 0.3949 0.0
C1540 C 0.35395 0.90047 0.381 0.0
C1541 C 0.35113 0.89989 0.35388 0.0
C1542 C 0.34779 0.89731 0.46544 0.0
C1543 C 0.35795 0.88595 0.47859 0.0
C1544 C 0.3439 0.89456 0.43847 0.0
C1545 C 0.35049 0.88077 0.42391 0.0
C1546 C 0.35966 0.86854 0.43716 0.0
C1547 C 0.36321 0.87099 0.46429 0.0
H1548 H 0.33668 0.2861 0.08419 0.0
H1549 H 0.27562 0.28635 0.05535 0.0
H1550 H 0.35689 0.32811 0.08868 0.0
H1551 H 0.29631 0.32924 0.05928 0.0
H1552 H 0.33483 0.40391 0.09829 0.0
H1553 H 0.31257 0.36104 0.09411 0.0
H1554 H 0.37365 0.36231 0.06232 0.0
H1555 H 0.39553 0.40428 0.06708 0.0
C1556 C 0.32778 0.29531 0.0781 0.0
C1557 C 0.30471 0.28295 0.06899 0.0
C1558 C 0.33937 0.31947 0.08077 0.0
C1559 C 0.32829 0.33221 0.07443 0.0
C1560 C 0.30529 0.31995 0.06461 0.0
C1561 C 0.2936 0.29549 0.06182 0.0
C1562 C 0.34352 0.39481 0.09119 0.0
C1563 C 0.36702 0.40738 0.08342 0.0
C1564 C 0.33071 0.37036 0.08827 0.0
C1565 C 0.34126 0.35815 0.07775 0.0
C1566 C 0.36492 0.37091 0.07076 0.0
C1567 C 0.37754 0.39506 0.07356 0.0
H1568 H 0.62722 0.9534 0.03702 0.0
H1569 H 0.62985 0.96641 0.12046 0.0
H1570 H 0.66948 0.97369 0.03505 0.0
H1571 H 0.67268 0.98676 0.11862 0.0
H1572 H 0.74349 0.04994 0.09625 0.0
H1573 H 0.70183 0.02419 0.09998 0.0
H1574 H 0.70604 0.9754 0.04714 0.0
H1575 H 0.74838 1.00153 0.04337 0.0
C1576 C 0.6369 0.96031 0.05512 0.0
C1577 C 0.62518 0.95854 0.07889 0.0
C1578 C 0.66121 0.97183 0.05397 0.0
C1579 C 0.67462 0.98215 0.07655 0.0
C1580 C 0.66288 0.9793 0.10072 0.0
C1581 C 0.63837 0.96747 0.10191 0.0
C1582 C 0.73566 0.03375 0.0853 0.0
C1583 C 0.74943 0.02787 0.06946 0.0
C1584 C 0.71168 0.01881 0.08774 0.0
C1585 C 0.7005 0.99746 0.07432 0.0
C1586 C 0.71408 0.99172 0.05784 0.0
C1587 C 0.73832 1.00674 0.05549 0.0
H1588 H 0.03575 0.75476 0.0529 0.0
H1589 H 0.97518 0.6937 0.08308 0.0
H1590 H 0.05857 0.73479 0.05769 0.0
H1591 H 0.9976 0.67426 0.08851 0.0
H1592 H 0.03587 0.63606 0.06856 0.0
H1593 H 1.01518 0.65727 0.06318 0.0
H1594 H 0.07495 0.71972 0.0926 0.0
H1595 H 0.09618 0.69812 0.09734 0.0
C1596 C 0.02721 0.73693 0.05989 0.0
C1597 C 1.00358 0.72564 0.06719 0.0
C1598 C 0.04034 0.72566 0.06317 0.0
C1599 C 0.02999 0.70288 0.07361 0.0
C1600 C 1.0062 0.6916 0.08012 0.0
C1601 C 0.99327 0.70277 0.07693 0.0
C1602 C 0.04451 0.65421 0.07443 0.0
C1603 C 0.06753 0.6653 0.08376 0.0
C1604 C 0.03263 0.66646 0.07127 0.0
C1605 C 0.04332 0.6903 0.07739 0.0
C1606 C 0.06626 0.70143 0.08743 0.0
C1607 C 0.07825 0.68899 0.09069 0.0
H1608 H 0.41304 0.33468 0.37692 0.0
H1609 H 0.40887 0.37985 0.43529 0.0
H1610 H 0.37056 0.30891 0.37993 0.0
H1611 H 0.36715 0.35447 0.4383 0.0
H1612 H 0.29464 0.29631 0.45587 0.0
H1613 H 0.33744 0.31599 0.45413 0.0
H1614 H 0.33447 0.30906 0.36953 0.0
H1615 H 0.29224 0.28943 0.37135 0.0
C1616 C 0.40313 0.33925 0.39012 0.0
C1617 C 0.41446 0.35936 0.40582 0.0
C1618 C 0.37881 0.32443 0.39203 0.0
C1619 C 0.36542 0.32936 0.40979 0.0
C1620 C 0.37685 0.34969 0.425 0.0
C1621 C 0.40088 0.36443 0.42299 0.0
C1622 C 0.3032 0.29861 0.43705 0.0
C1623 C 0.29009 0.29162 0.41378 0.0
C1624 C 0.32769 0.31003 0.43595 0.0
C1625 C 0.33948 0.31438 0.41158 0.0
C1626 C 0.32614 0.30599 0.38859 0.0
C1627 C 0.30185 0.29489 0.38968 0.0
H1628 H 0.70174 0.96989 0.40565 0.0
H1629 H 0.76414 0.03217 0.42988 0.0
H1630 H 0.68147 0.99166 0.40129 0.0
H1631 H 0.74345 0.05439 0.42604 0.0
H1632 H 0.70313 0.08882 0.38655 0.0
H1633 H 0.72566 0.06851 0.39122 0.0
H1634 H 0.66607 1.0104 0.42771 0.0
H1635 H 0.64389 0.03008 0.42244 0.0
C1636 C 0.71093 0.98823 0.4108 0.0
C1637 C 0.73437 0.99921 0.41861 0.0
C1638 C 0.69932 1.00079 0.40818 0.0
C1639 C 0.71076 0.02487 0.41325 0.0
C1640 C 0.73417 0.03591 0.42174 0.0
C1641 C 0.74588 0.02315 0.4245 0.0
C1642 C 0.69481 0.07146 0.39491 0.0
C1643 C 0.67164 0.06092 0.40381 0.0
C1644 C 0.7078 0.06001 0.39806 0.0
C1645 C 0.69773 0.03779 0.40995 0.0
C1646 C 0.67441 0.02729 0.41821 0.0
C1647 C 0.66163 0.03863 0.41516 0.0
H1648 H 1.0066 0.62083 0.41579 0.0
H1649 H 0.94564 0.62099 0.38634 0.0
H1650 H 0.02647 0.66275 0.42099 0.0
H1651 H 0.96604 0.66382 0.39102 0.0
H1652 H 1.00468 0.73852 0.4309 0.0
H1653 H 0.98227 0.69567 0.42633 0.0
H1654 H 0.04323 0.69691 0.39424 0.0
H1655 H 0.06525 0.73883 0.39933 0.0
C1656 C 0.99758 0.62997 0.40987 0.0
C1657 C 0.97464 0.61758 0.40033 0.0
C1658 C 1.00901 0.6541 0.41291 0.0
C1659 C 0.99793 0.66681 0.40648 0.0
C1660 C 0.97502 0.65455 0.3964 0.0
C1661 C 0.96349 0.63011 0.39323 0.0
C1662 C 1.01331 0.72942 0.42357 0.0
C1663 C 0.03682 0.742 0.41584 0.0
C1664 C 1.00041 0.70498 0.42046 0.0
C1665 C 1.0109 0.69276 0.40982 0.0
C1666 C 0.03455 0.70552 0.40278 0.0
C1667 C 0.04724 0.72966 0.40575 0.0
H1668 H 0.70429 0.6218 0.88675 0.0
H1669 H 0.64284 0.62196 0.91435 0.0
H1670 H 0.72667 0.66468 0.89087 0.0
H1671 H 0.6648 0.66393 0.91906 0.0
H1672 H 0.70258 0.73998 0.89787 0.0
H1673 H 0.68264 0.69808 0.89274 0.0
H1674 H 0.74196 0.69661 0.9257 0.0
H1675 H 0.76249 0.73947 0.9302 0.0
C1676 C 0.69546 0.63103 0.89299 0.0
C1677 C 0.67171 0.6186 0.89975 0.0
C1678 C 0.70834 0.65549 0.8959 0.0
C1679 C 0.6976 0.66785 0.90541 0.0
C1680 C 0.6737 0.65522 0.91138 0.0
C1681 C 0.66102 0.63107 0.90859 0.0
C1682 C 0.71131 0.73076 0.90447 0.0
C1683 C 0.734 0.74304 0.91476 0.0
C1684 C 0.69985 0.70663 0.90148 0.0
C1685 C 0.71061 0.6938 0.90876 0.0
C1686 C 0.73323 0.70596 0.91965 0.0
C1687 C 0.74482 0.73041 0.92273 0.0
H1688 H 0.41176 0.08958 0.88865 0.0
H1689 H 0.41316 0.0295 0.91897 0.0
H1690 H 0.36892 0.06853 0.89328 0.0
H1691 H 0.37126 1.00902 0.92423 0.0
H1692 H 0.29497 0.96893 0.90346 0.0
H1693 H 0.3369 0.99123 0.89852 0.0
H1694 H 0.33723 0.05253 0.92807 0.0
H1695 H 0.2944 0.02982 0.9324 0.0
C1696 C 0.40289 0.07176 0.89566 0.0
C1697 C 0.41576 0.06104 0.90304 0.0
C1698 C 0.37845 0.05986 0.89884 0.0
C1699 C 0.36654 0.03704 0.90925 0.0
C1700 C 0.37961 0.02638 0.91587 0.0
C1701 C 0.40373 0.03815 0.91278 0.0
C1702 C 0.30399 0.98705 0.90949 0.0
C1703 C 0.29141 0.99749 0.91876 0.0
C1704 C 0.32812 0.99992 0.90656 0.0
C1705 C 0.34062 0.02377 0.91282 0.0
C1706 C 0.32815 0.03425 0.9228 0.0
C1707 C 0.30372 0.02118 0.92583 0.0
H1708 H 0.95825 0.34666 0.94803 0.0
H1709 H 0.97572 0.35918 0.86569 0.0
H1710 H 0.97575 0.3221 0.95063 0.0
H1711 H 0.99436 0.33526 0.86834 0.0
H1712 H 1.01515 0.28059 0.87526 0.0
H1713 H 0.99098 0.2986 0.87321 0.0
H1714 H 1.01227 0.32486 0.95225 0.0
H1715 H 0.03574 0.30573 0.95446 0.0
C1716 C 0.96581 0.34402 0.93036 0.0
C1717 C 0.96569 0.3549 0.90664 0.0
C1718 C 0.97609 0.33009 0.93194 0.0
C1719 C 0.98694 0.32685 0.90989 0.0
C1720 C 0.98602 0.33706 0.88578 0.0
C1721 C 0.97535 0.35081 0.88413 0.0
C1722 C 1.01424 0.28982 0.89242 0.0
C1723 C 0.02723 0.29169 0.9151 0.0
C1724 C 1.0006 0.30044 0.89111 0.0
C1725 C 0.99981 0.31363 0.91233 0.0
C1726 C 1.01214 0.31469 0.93552 0.0
C1727 C 0.0256 0.3037 0.93693 0.0
H1728 H 0.74599 0.69512 0.58175 0.0
H1729 H 0.74567 0.75659 0.55452 0.0
H1730 H 0.70403 0.67492 0.58665 0.0
H1731 H 0.70281 0.73591 0.5589 0.0
H1732 H 0.62826 0.69652 0.59892 0.0
H1733 H 0.67105 0.71905 0.594 0.0
H1734 H 0.66974 0.65851 0.56044 0.0
H1735 H 0.62789 0.63634 0.56594 0.0
C1736 C 0.73678 0.70414 0.57614 0.0
C1737 C 0.74912 0.72732 0.56733 0.0
C1738 C 0.71264 0.69254 0.57903 0.0
C1739 C 0.69987 0.70371 0.57323 0.0
C1740 C 0.7121 0.72684 0.56378 0.0
C1741 C 0.73655 0.73854 0.56075 0.0
C1742 C 0.63733 0.688 0.59119 0.0
C1743 C 0.62474 0.66455 0.58318 0.0
C1744 C 0.66174 0.70098 0.58787 0.0
C1745 C 0.67394 0.69065 0.57672 0.0
C1746 C 0.66116 0.66707 0.56937 0.0
C1747 C 0.63706 0.65429 0.57257 0.0
H1748 H 0.36248 0.96613 0.6206 0.0
H1749 H 0.35293 0.95428 0.53692 0.0
H1750 H 0.33979 0.98629 0.61902 0.0
H1751 H 0.33075 0.97438 0.53522 0.0
H1752 H 0.27924 1.00157 0.54369 0.0
H1753 H 0.29561 0.97555 0.54727 0.0
H1754 H 0.34796 0.02391 0.60097 0.0
H1755 H 0.33191 0.04955 0.59742 0.0
C1756 C 0.35518 0.96743 0.60205 0.0
C1757 C 0.35974 0.95889 0.57889 0.0
C1758 C 0.34236 0.97913 0.60101 0.0
C1759 C 0.33363 0.98223 0.57687 0.0
C1760 C 0.33703 0.9723 0.55413 0.0
C1761 C 0.34995 0.96092 0.55512 0.0
C1762 C 0.29439 1.0067 0.55597 0.0
C1763 C 0.3042 0.02769 0.57021 0.0
C1764 C 0.3037 0.99174 0.55822 0.0
C1765 C 0.3229 0.99741 0.57485 0.0
C1766 C 0.33283 0.01859 0.58859 0.0
C1767 C 0.3237 0.03347 0.58625 0.0
H1768 H 0.03792 0.28692 0.55463 0.0
H1769 H 0.97657 0.28818 0.58044 0.0
H1770 H 0.06068 0.32984 0.55823 0.0
H1771 H 0.99889 0.33023 0.58445 0.0
H1772 H 0.03757 0.40583 0.56072 0.0
H1773 H 1.01753 0.36383 0.55641 0.0
H1774 H 0.07549 0.36238 0.59327 0.0
H1775 H 0.09609 0.40531 0.59714 0.0
C1776 C 0.02922 0.29638 0.56042 0.0
C1777 C 1.00538 0.28423 0.56682 0.0
C1778 C 0.0423 0.32087 0.56299 0.0
C1779 C 0.03166 0.33357 0.57172 0.0
C1780 C 1.0077 0.32122 0.57741 0.0
C1781 C 0.99484 0.29704 0.57503 0.0
C1782 C 0.04601 0.39662 0.56829 0.0
C1783 C 0.06833 0.40892 0.57956 0.0
C1784 C 0.03448 0.37243 0.56577 0.0
C1785 C 0.04482 0.35958 0.57444 0.0
C1786 C 0.0671 0.37176 0.58616 0.0
C1787 C 0.07872 0.39626 0.58884 0.0
H1788 H 0.08181 0.67941 0.77993 0.0
H1789 H 0.07623 0.69102 0.69747 0.0
H1790 H 0.03976 0.65518 0.7831 0.0
H1791 H 0.03368 0.66743 0.70068 0.0
H1792 H 0.9582 0.61308 0.70872 0.0
H1793 H 1.00033 0.63098 0.70616 0.0
H1794 H 1.00611 0.65807 0.78491 0.0
H1795 H 0.96355 0.63904 0.78766 0.0
C1796 C 0.07147 0.67665 0.76236 0.0
C1797 C 0.0823 0.68718 0.73843 0.0
C1798 C 0.04727 0.6629 0.76426 0.0
C1799 C 0.033 0.6595 0.74234 0.0
C1800 C 0.04395 0.66937 0.71803 0.0
C1801 C 0.06837 0.68293 0.71607 0.0
C1802 C 0.96851 0.62249 0.72571 0.0
C1803 C 0.95762 0.62461 0.74846 0.0
C1804 C 0.99275 0.63304 0.7241 0.0
C1805 C 1.00694 0.64641 0.74509 0.0
C1806 C 0.9959 0.64775 0.76835 0.0
C1807 C 0.97147 0.63683 0.77007 0.0
H1808 H 0.30928 0.36387 0.75397 0.0
H1809 H 0.36981 0.4235 0.72133 0.0
H1810 H 0.33103 0.34367 0.75893 0.0
H1811 H 0.39193 0.40277 0.72582 0.0
H1812 H 0.42848 0.36454 0.76517 0.0
H1813 H 0.40821 0.38715 0.76121 0.0
H1814 H 0.34728 0.32585 0.7317 0.0
H1815 H 0.36712 0.30366 0.73608 0.0
C1816 C 0.32722 0.37251 0.74734 0.0
C1817 C 0.33772 0.39519 0.73696 0.0
C1818 C 0.33975 0.3609 0.75023 0.0
C1819 C 0.36331 0.37153 0.74285 0.0
C1820 C 0.37387 0.39415 0.73195 0.0
C1821 C 0.36113 0.40586 0.7289 0.0
C1822 C 0.41053 0.35588 0.75862 0.0
C1823 C 0.39922 0.33224 0.75138 0.0
C1824 C 0.39908 0.36889 0.75583 0.0
C1825 C 0.37609 0.35837 0.74602 0.0
C1826 C 0.36481 0.33456 0.73958 0.0
C1827 C 0.37618 0.32177 0.74219 0.0
H1828 H 0.61078 0.95571 0.72017 0.0
H1829 H 0.67039 0.95463 0.75251 0.0
H1830 H 0.63148 0.99854 0.72497 0.0
H1831 H 0.69055 0.99654 0.75785 0.0
H1832 H 0.73056 0.07292 0.73667 0.0
H1833 H 0.70856 0.03095 0.73173 0.0
H1834 H 0.64674 0.03013 0.76021 0.0
H1835 H 0.66916 0.07297 0.76464 0.0
C1836 C 0.62843 0.96464 0.7277 0.0
C1837 C 0.6391 0.95186 0.73559 0.0
C1838 C 0.64012 0.98907 0.73095 0.0
C1839 C 0.66271 1.00108 0.74192 0.0
C1840 C 0.67336 0.98811 0.74908 0.0
C1841 C 0.66177 0.96398 0.74596 0.0
C1842 C 0.71238 0.06379 0.74245 0.0
C1843 C 0.70171 0.07623 0.75147 0.0
C1844 C 0.69969 0.03964 0.73952 0.0
C1845 C 0.67579 0.027 0.74549 0.0
C1846 C 0.66507 0.03933 0.75518 0.0
C1847 C 0.67797 0.06377 0.75825 0.0
H1848 H 0.40619 0.07439 0.20421 0.0
H1849 H 0.4064 0.07208 0.28906 0.0
H1850 H 0.38733 0.03223 0.20224 0.0
H1851 H 0.38743 0.02931 0.2871 0.0
H1852 H 0.32323 0.95697 0.27165 0.0
H1853 H 0.34808 0.99874 0.27442 0.0
H1854 H 0.38978 0.99685 0.21025 0.0
H1855 H 0.36458 0.95425 0.20747 0.0
C1856 C 0.40239 0.06484 0.22255 0.0
C1857 C 0.40746 0.07662 0.24687 0.0
C1858 C 0.39176 0.04058 0.22134 0.0
C1859 C 0.38563 0.02725 0.24444 0.0
C1860 C 0.39165 0.03905 0.26888 0.0
C1861 C 0.40263 0.06353 0.27008 0.0
C1862 C 0.3377 0.96526 0.25803 0.0
C1863 C 0.34183 0.95205 0.23926 0.0
C1864 C 0.35215 0.98936 0.25989 0.0
C1865 C 0.37121 1.00124 0.24292 0.0
C1866 C 0.37524 0.98822 0.22372 0.0
C1867 C 0.36075 0.96384 0.22197 0.0
H1868 H 0.95849 0.35902 0.27466 0.0
H1869 H 0.96312 0.31283 0.21814 0.0
H1870 H 1.00096 0.38477 0.27188 0.0
H1871 H 1.0049 0.33814 0.21545 0.0
H1872 H 0.07783 0.39585 0.19821 0.0
H1873 H 0.03499 0.37593 0.19918 0.0
H1874 H 0.03689 0.3854 0.2834 0.0
H1875 H 0.07912 0.40532 0.28231 0.0
C1876 C 0.96852 0.35421 0.26193 0.0
C1877 C 0.95731 0.33383 0.24667 0.0
C1878 C 0.99284 0.36902 0.26016 0.0
C1879 C 1.00641 0.36378 0.24302 0.0
C1880 C 0.9951 0.34317 0.22826 0.0
C1881 C 0.97103 0.32846 0.23009 0.0
C1882 C 0.06902 0.39405 0.21675 0.0
C1883 C 0.08185 0.40188 0.24017 0.0
C1884 C 0.0445 0.38248 0.21743 0.0
C1885 C 0.03238 0.37877 0.24149 0.0
C1886 C 0.04544 0.38795 0.26454 0.0
C1887 C 0.06975 0.39923 0.26389 0.0
H1888 H 0.61009 0.66205 0.21957 0.0
H1889 H 0.67063 0.72223 0.25131 0.0
H1890 H 0.63013 0.63926 0.22414 0.0
H1891 H 0.69012 0.69983 0.25645 0.0
H1892 H 0.72894 0.66252 0.2349 0.0
H1893 H 0.70736 0.68289 0.22999 0.0
H1894 H 0.64531 0.62253 0.25915 0.0
H1895 H 0.6673 0.60164 0.2635 0.0
C1896 C 0.6278 0.67051 0.22692 0.0
C1897 C 0.63893 0.69403 0.2347 0.0
C1898 C 0.63911 0.65739 0.23004 0.0
C1899 C 0.66177 0.66765 0.24077 0.0
C1900 C 0.67286 0.69131 0.24785 0.0
C1901 C 0.66165 0.70423 0.24484 0.0
C1902 C 0.71078 0.65366 0.24077 0.0
C1903 C 0.69994 0.63059 0.24997 0.0
C1904 C 0.69834 0.66536 0.23789 0.0
C1905 C 0.67451 0.65443 0.24412 0.0
C1906 C 0.66359 0.63141 0.25393 0.0
C1907 C 0.67624 0.6196 0.25694 0.0
H1908 H 0.29108 0.16869 0.13383 0.0
H1909 H 0.35803 0.2247 0.10841 0.0
H1910 H 0.31045 0.15688 0.16612 0.0
H1911 H 0.37729 0.21276 0.14037 0.0
H1912 H 0.40423 0.16817 0.1786 0.0
H1913 H 0.38439 0.18026 0.14754 0.0
H1914 H 0.33366 0.17017 0.20702 0.0
H1915 H 0.35365 0.1583 0.23827 0.0
C1916 C 0.30987 0.17864 0.13523 0.0
C1917 C 0.32294 0.19758 0.11828 0.0
C1918 C 0.32099 0.17184 0.15375 0.0
C1919 C 0.34544 0.18377 0.1557 0.0
C1920 C 0.35846 0.2029 0.13905 0.0
C1921 C 0.34737 0.20973 0.12066 0.0
C1922 C 0.38904 0.16878 0.18524 0.0
C1923 C 0.38067 0.16231 0.21109 0.0
C1924 C 0.37761 0.17568 0.16736 0.0
C1925 C 0.35745 0.17624 0.17479 0.0
C1926 C 0.34897 0.16966 0.20055 0.0
C1927 C 0.36046 0.16284 0.21849 0.0
H1928 H 0.89722 0.21754 0.21509 0.0
H1929 H 0.84332 0.23086 0.1873 0.0
H1930 H 0.88566 0.1869 0.18244 0.0
H1931 H 0.83208 0.2004 0.15431 0.0
H1932 H 0.83607 0.16073 0.08137 0.0
H1933 H 0.84738 0.19168 0.11378 0.0
H1934 H 0.85228 0.14775 0.17315 0.0
H1935 H 0.84063 0.11669 0.14101 0.0
C1936 C 0.8828 0.21389 0.20222 0.0
C1937 C 0.87119 0.22676 0.20408 0.0
C1938 C 0.8762 0.1963 0.18341 0.0
C1939 C 0.85791 0.19116 0.16581 0.0
C1940 C 0.84643 0.20412 0.1674 0.0
C1941 C 0.85293 0.22165 0.18634 0.0
C1942 C 0.83934 0.15753 0.10135 0.0
C1943 C 0.83748 0.13612 0.10841 0.0
C1944 C 0.84584 0.17533 0.11994 0.0
C1945 C 0.85079 0.17221 0.14603 0.0
C1946 C 0.84895 0.15085 0.15311 0.0
C1947 C 0.84231 0.13302 0.1346 0.0
H1948 H 0.88999 0.6721 0.10326 0.0
H1949 H 0.90244 0.73942 0.12951 0.0
H1950 H 0.85884 0.65316 0.13539 0.0
H1951 H 0.87139 0.72037 0.16191 0.0
H1952 H 0.83056 0.67773 0.23455 0.0
H1953 H 0.86197 0.6971 0.20267 0.0
H1954 H 0.81954 0.64683 0.14365 0.0
H1955 H 0.78801 0.62759 0.17536 0.0
C1956 C 0.88602 0.68291 0.1157 0.0
C1957 C 0.89877 0.70736 0.11358 0.0
C1958 C 0.86813 0.672 0.13418 0.0
C1959 C 0.86255 0.68523 0.15117 0.0
C1960 C 0.87542 0.70967 0.14932 0.0
C1961 C 0.89328 0.72061 0.13073 0.0
C1962 C 0.82778 0.67089 0.21474 0.0
C1963 C 0.80665 0.651 0.20765 0.0
C1964 C 0.84584 0.68202 0.19645 0.0
C1965 C 0.84329 0.67351 0.17062 0.0
C1966 C 0.82221 0.65363 0.1635 0.0
C1967 C 0.80412 0.64255 0.18175 0.0
H1968 H 0.13823 0.34047 0.27676 0.0
H1969 H 0.19688 0.40749 0.2975 0.0
H1970 H 0.15128 0.32163 0.30804 0.0
H1971 H 0.2097 0.38856 0.32909 0.0
H1972 H 0.21063 0.34773 0.4022 0.0
H1973 H 0.19773 0.36699 0.37122 0.0
H1974 H 0.18367 0.31375 0.31348 0.0
H1975 H 0.19686 0.29462 0.34426 0.0
C1976 C 0.15398 0.35123 0.28782 0.0
C1977 C 0.1665 0.37557 0.28439 0.0
C1978 C 0.16145 0.34038 0.30581 0.0
C1979 C 0.18157 0.35357 0.32101 0.0
C1980 C 0.19397 0.37792 0.3179 0.0
C1981 C 0.18656 0.38879 0.29978 0.0
C1982 C 0.20502 0.3402 0.38285 0.0
C1983 C 0.20479 0.31952 0.37586 0.0
C1984 C 0.1976 0.35127 0.36507 0.0
C1985 C 0.18963 0.3419 0.33989 0.0
C1986 C 0.18937 0.32124 0.33287 0.0
C1987 C 0.1969 0.31023 0.35059 0.0
H1988 H 0.68656 0.86848 0.39862 0.0
H1989 H 0.73697 0.91122 0.33975 0.0
H1990 H 0.66743 0.83712 0.36672 0.0
H1991 H 0.7179 0.87968 0.30792 0.0
H1992 H 0.6924 0.80895 0.26744 0.0
H1993 H 0.71142 0.84044 0.29919 0.0
H1994 H 0.64424 0.82755 0.32625 0.0
H1995 H 0.62514 0.79616 0.29428 0.0
C1996 C 0.69351 0.87132 0.37885 0.0
C1997 C 0.71337 0.89251 0.37186 0.0
C1998 C 0.6825 0.85328 0.36053 0.0
C1999 C 0.69109 0.85586 0.33473 0.0
C2000 C 0.711 0.87698 0.32773 0.0
C2001 C 0.72197 0.89508 0.34603 0.0
C2002 C 0.68161 0.81291 0.27992 0.0
C2003 C 0.65715 0.79991 0.27813 0.0
C2004 C 0.69257 0.83102 0.29818 0.0
C2005 C 0.67938 0.83658 0.31526 0.0
C2006 C 0.65493 0.82354 0.31362 0.0
C2007 C 0.64396 0.80547 0.29527 0.0
H2008 H 0.23835 0.83715 0.29645 0.0
H2009 H 0.22565 0.89173 0.26964 0.0
H2010 H 0.20749 0.82544 0.32903 0.0
H2011 H 0.19465 0.87973 0.30188 0.0
H2012 H 0.12397 0.83442 0.34248 0.0
H2013 H 0.15532 0.84651 0.31057 0.0
H2014 H 0.19846 0.84006 0.36976 0.0
H2015 H 0.16728 0.82832 0.40187 0.0
C2016 C 0.22918 0.8468 0.29754 0.0
C2017 C 0.23459 0.86539 0.28019 0.0
C2018 C 0.21142 0.84003 0.31625 0.0
C2019 C 0.19853 0.85159 0.31799 0.0
C2020 C 0.20397 0.87021 0.30077 0.0
C2021 C 0.22179 0.87706 0.28221 0.0
C2022 C 0.14019 0.83584 0.34889 0.0
C2023 C 0.14297 0.8304 0.37492 0.0
C2024 C 0.15818 0.84273 0.33051 0.0
C2025 C 0.1794 0.84424 0.3376 0.0
C2026 C 0.18221 0.83877 0.36355 0.0
C2027 C 0.16428 0.83201 0.38199 0.0
H2028 H 0.68683 0.8266 0.90031 0.0
H2029 H 0.73695 0.8343 0.84102 0.0
H2030 H 0.66731 0.83847 0.86847 0.0
H2031 H 0.71755 0.84642 0.80934 0.0
H2032 H 0.69196 0.89134 0.76895 0.0
H2033 H 0.71102 0.87922 0.80098 0.0
H2034 H 0.64394 0.82459 0.82781 0.0
H2035 H 0.62476 0.83651 0.79548 0.0
C2036 C 0.69364 0.83065 0.88049 0.0
C2037 C 0.71357 0.82948 0.87336 0.0
C2038 C 0.68241 0.83748 0.86221 0.0
C2039 C 0.69086 0.84342 0.83635 0.0
C2040 C 0.71078 0.8423 0.82921 0.0
C2041 C 0.72195 0.83538 0.84744 0.0
C2042 C 0.6812 0.87658 0.78142 0.0
C2043 C 0.65674 0.86487 0.77939 0.0
C2044 C 0.69218 0.86965 0.79986 0.0
C2045 C 0.67904 0.85088 0.81691 0.0
C2046 C 0.65459 0.83929 0.81517 0.0
C2047 C 0.64357 0.84617 0.79661 0.0
H2048 H 0.17635 0.89611 0.85475 0.0
H2049 H 0.23229 0.8847 0.87922 0.0
H2050 H 0.16395 0.86478 0.82259 0.0
H2051 H 0.21975 0.85333 0.84732 0.0
H2052 H 0.17449 0.78194 0.80866 0.0
H2053 H 0.1872 0.81383 0.83999 0.0
H2054 H 0.17664 0.85488 0.78147 0.0
H2055 H 0.16414 0.8231 0.75002 0.0
C2056 C 0.18616 0.88713 0.85316 0.0
C2057 C 0.20529 0.89296 0.86977 0.0
C2058 C 0.17901 0.86911 0.83471 0.0
C2059 C 0.19077 0.85643 0.83247 0.0
C2060 C 0.21002 0.86243 0.84886 0.0
C2061 C 0.21721 0.88046 0.8672 0.0
C2062 C 0.17511 0.79782 0.80231 0.0
C2063 C 0.16829 0.79985 0.77669 0.0
C2064 C 0.18238 0.81613 0.82033 0.0
C2065 C 0.18296 0.83694 0.81326 0.0
C2066 C 0.1761 0.83898 0.78769 0.0
C2067 C 0.16891 0.8207 0.76963 0.0
H2068 H 0.14712 0.35492 0.88132 0.0
H2069 H 0.13638 0.28826 0.85478 0.0
H2070 H 0.1785 0.37454 0.8495 0.0
H2071 H 0.16749 0.30795 0.82272 0.0
H2072 H 0.20728 0.35061 0.75009 0.0
H2073 H 0.17594 0.33125 0.78198 0.0
H2074 H 0.21832 0.38158 0.84096 0.0
H2075 H 0.24989 0.40081 0.80923 0.0
C2076 C 0.15148 0.3444 0.86889 0.0
C2077 C 0.13906 0.31991 0.87077 0.0
C2078 C 0.16949 0.3557 0.85059 0.0
C2079 C 0.17549 0.34283 0.83355 0.0
C2080 C 0.16308 0.31838 0.8353 0.0
C2081 C 0.14515 0.30707 0.85371 0.0
C2082 C 0.21009 0.35749 0.76988 0.0
C2083 C 0.23126 0.37733 0.77697 0.0
C2084 C 0.19205 0.34636 0.78818 0.0
C2085 C 0.19463 0.35484 0.81403 0.0
C2086 C 0.21567 0.37478 0.82111 0.0
C2087 C 0.23377 0.38585 0.80284 0.0
H2088 H 0.8435 0.61946 0.68937 0.0
H2089 H 0.89971 0.68659 0.71417 0.0
H2090 H 0.83132 0.6386 0.65741 0.0
H2091 H 0.88723 0.70565 0.68247 0.0
H2092 H 0.84159 0.73145 0.64297 0.0
H2093 H 0.85429 0.7125 0.67464 0.0
H2094 H 0.84517 0.66132 0.6162 0.0
H2095 H 0.83281 0.68039 0.58437 0.0
C2096 C 0.85343 0.63825 0.68794 0.0
C2097 C 0.87266 0.6514 0.70449 0.0
C2098 C 0.84638 0.64924 0.66959 0.0
C2099 C 0.85827 0.67366 0.66741 0.0
C2100 C 0.87747 0.68683 0.68392 0.0
C2101 C 0.88461 0.67585 0.70215 0.0
C2102 C 0.84254 0.71634 0.63669 0.0
C2103 C 0.83614 0.70753 0.61098 0.0
C2104 C 0.84979 0.70544 0.65492 0.0
C2105 C 0.85071 0.68537 0.64797 0.0
C2106 C 0.84433 0.67655 0.62231 0.0
C2107 C 0.8372 0.68751 0.60404 0.0
H2108 H 0.35463 0.20176 0.73048 0.0
H2109 H 0.40465 0.24659 0.67245 0.0
H2110 H 0.33578 0.17128 0.69762 0.0
H2111 H 0.38581 0.21588 0.63954 0.0
H2112 H 0.35946 0.14563 0.59622 0.0
H2113 H 0.37905 0.17676 0.6284 0.0
H2114 H 0.31231 0.16332 0.65775 0.0
H2115 H 0.29271 0.1324 0.62547 0.0
C2116 C 0.36155 0.20524 0.71069 0.0
C2117 C 0.38115 0.22679 0.70419 0.0
C2118 C 0.3507 0.1877 0.6918 0.0
C2119 C 0.35918 0.19115 0.66588 0.0
C2120 C 0.37897 0.21255 0.6594 0.0
C2121 C 0.3898 0.23017 0.67831 0.0
C2122 C 0.34892 0.14943 0.6093 0.0
C2123 C 0.32442 0.13631 0.60819 0.0
C2124 C 0.36019 0.16731 0.6278 0.0
C2125 C 0.34727 0.17249 0.64575 0.0
C2126 C 0.32281 0.15953 0.64453 0.0
C2127 C 0.31154 0.14172 0.62599 0.0
H2128 H 0.88951 0.22486 0.59901 0.0
H2129 H 0.90192 0.17043 0.62708 0.0
H2130 H 0.85834 0.21318 0.63112 0.0
H2131 H 0.87102 0.15908 0.65938 0.0
H2132 H 0.83203 0.16267 0.73215 0.0
H2133 H 0.86286 0.17448 0.69967 0.0
H2134 H 0.81891 0.1803 0.64106 0.0
H2135 H 0.78783 0.16815 0.67346 0.0
C2136 C 0.88556 0.21031 0.61183 0.0
C2137 C 0.89841 0.19867 0.61033 0.0
C2138 C 0.86765 0.20364 0.63029 0.0
C2139 C 0.86221 0.18523 0.64786 0.0
C2140 C 0.875 0.17357 0.6464 0.0
C2141 C 0.89281 0.18015 0.62785 0.0
C2142 C 0.82875 0.16622 0.71232 0.0
C2143 C 0.80727 0.16432 0.70553 0.0
C2144 C 0.8465 0.17303 0.69367 0.0
C2145 C 0.84334 0.17826 0.66773 0.0
C2146 C 0.82201 0.17665 0.66095 0.0
C2147 C 0.80418 0.16971 0.67959 0.0
H2148 H 0.02758 0.55551 0.42848 0.0
H2149 H 0.96096 0.50175 0.45774 0.0
H2150 H 0.04732 0.54422 0.46071 0.0
H2151 H 0.98072 0.49063 0.49006 0.0
H2152 H 0.02312 0.49437 0.56261 0.0
H2153 H 1.00408 0.5059 0.52987 0.0
H2154 H 0.0545 0.51229 0.47178 0.0
H2155 H 0.07355 0.50057 0.50458 0.0
C2156 C 1.0171 0.54116 0.44158 0.0
C2157 C 0.9926 0.52962 0.44044 0.0
C2158 C 0.02846 0.53469 0.46011 0.0
C2159 C 1.01563 0.51656 0.47805 0.0
C2160 C 0.99115 0.50494 0.47684 0.0
C2161 C 0.9798 0.51135 0.45827 0.0
C2162 C 0.03009 0.49802 0.54283 0.0
C2163 C 0.04986 0.49638 0.53629 0.0
C2164 C 1.01913 0.50465 0.52402 0.0
C2165 C 0.02765 0.5099 0.49813 0.0
C2166 C 0.04762 0.50861 0.49162 0.0
C2167 C 0.05857 0.50191 0.51046 0.0
H2168 H 0.5625 0.54964 0.55325 0.0
H2169 H 0.50906 0.56328 0.52468 0.0
H2170 H 0.55071 0.51859 0.52101 0.0
H2171 H 0.49746 0.53235 0.49226 0.0
H2172 H 0.50017 0.49229 0.41985 0.0
H2173 H 0.512 0.52329 0.45219 0.0
H2174 H 0.51814 0.47963 0.51097 0.0
H2175 H 0.5061 0.44849 0.47871 0.0
C2176 C 0.54812 0.54595 0.5403 0.0
C2177 C 0.53677 0.55909 0.54172 0.0
C2178 C 0.54136 0.52811 0.52175 0.0
C2179 C 0.52313 0.52295 0.50402 0.0
C2180 C 0.5118 0.53608 0.50536 0.0
C2181 C 0.51849 0.55388 0.52398 0.0
C2182 C 0.50383 0.48916 0.4397 0.0
C2183 C 0.50212 0.46777 0.44656 0.0
C2184 C 0.51063 0.50698 0.45827 0.0
C2185 C 0.51599 0.50397 0.48422 0.0
C2186 C 0.51444 0.48267 0.49108 0.0
C2187 C 0.50756 0.46479 0.47251 0.0
H2188 H 0.58256 0.06636 0.47594 0.0
H2189 H 0.54111 0.01529 0.41699 0.0
H2190 H 0.5506 0.04718 0.50723 0.0
H2191 H 0.50941 0.996 0.44842 0.0
H2192 H 0.46864 0.95376 0.52128 0.0
H2193 H 0.50022 0.97314 0.48962 0.0
H2194 H 0.51058 0.03997 0.51449 0.0
H2195 H 0.4788 0.02069 0.54583 0.0
C2196 C 0.56663 0.05121 0.4695 0.0
C2197 C 0.56458 0.04246 0.4438 0.0
C2198 C 0.54829 0.04016 0.48751 0.0
C2199 C 0.52746 0.02 0.48036 0.0
C2200 C 0.52535 1.01127 0.4547 0.0
C2201 C 0.54361 0.02238 0.43665 0.0
C2202 C 0.47739 0.97255 0.51987 0.0
C2203 C 0.47102 0.98556 0.53631 0.0
C2204 C 0.49558 0.98368 0.5017 0.0
C2205 C 0.50799 1.00812 0.49957 0.0
C2206 C 0.50164 0.02114 0.51591 0.0
C2207 C 0.48337 1.01002 0.53395 0.0
H2208 H 0.54382 1.01283 0.06482 0.0
H2209 H 0.53289 0.96097 0.00639 0.0
H2210 H 0.53119 0.03203 0.03347 0.0
H2211 H 0.52009 0.98012 0.97507 0.0
H2212 H 0.47544 1.00691 0.93599 0.0
H2213 H 0.48795 0.98762 0.96737 0.0
H2214 H 0.54403 0.05453 -0.00736 0.0
H2215 H 0.53166 0.07387 0.9611 0.0
C2216 C 0.53891 1.00558 0.04525 0.0
C2217 C 0.53945 0.98531 0.03821 0.0
C2218 C 0.53164 0.01662 0.02725 0.0
C2219 C 0.52466 1.00766 0.00172 0.0
C2220 C 0.52505 0.98732 -0.00531 0.0
C2221 C 0.53238 0.97631 0.01269 0.0
C2222 C 0.49057 0.01755 0.94802 0.0
C2223 C 0.50252 0.04201 0.94588 0.0
C2224 C 0.49774 1.00646 0.96606 0.0
C2225 C 0.51701 0.01951 0.98252 0.0
C2226 C 0.52891 0.04395 0.98051 0.0
C2227 C 0.52178 0.05506 0.96241 0.0
H2228 H 0.0206 0.49122 0.91899 0.0
H2229 H 0.96993 0.44973 0.97822 0.0
H2230 H 0.04012 0.52294 0.95046 0.0
H2231 H 0.98938 0.48153 0.00961 0.0
H2232 H 1.01545 0.55234 0.04935 0.0
H2233 H 0.99626 0.52083 0.01766 0.0
H2234 H 0.06326 0.53293 0.99094 0.0
H2235 H 0.08254 0.56441 0.02283 0.0
C2236 C 1.01369 0.48874 0.93874 0.0
C2237 C 0.99361 0.46782 0.94597 0.0
C2238 C 0.02491 0.50698 0.95681 0.0
C2239 C 1.01633 0.50482 0.98257 0.0
C2240 C 0.99626 0.48393 0.98981 0.0
C2241 C 0.98507 0.46567 0.97176 0.0
C2242 C 0.02615 0.54819 0.03694 0.0
C2243 C 0.05061 0.56096 0.03882 0.0
C2244 C 1.0151 0.53009 0.01872 0.0
C2245 C 0.02819 0.52427 0.0018 0.0
C2246 C 0.05265 0.53714 0.00346 0.0
C2247 C 0.06372 0.55524 0.02176 0.0
H2248 H 0.4974 0.49334 0.06648 0.0
H2249 H 0.45472 0.50038 0.00704 0.0
H2250 H 0.52901 0.50583 0.03491 0.0
H2251 H 0.48656 0.5132 0.97553 0.0
H2252 H 0.55766 0.55876 0.9358 0.0
H2253 H 0.52604 0.54633 0.96735 0.0
H2254 H 0.53851 0.49176 -0.00557 0.0
H2255 H 0.56999 0.50395 0.9626 0.0
C2256 C 0.49463 0.49737 0.04666 0.0
C2257 C 0.47335 0.49572 0.03938 0.0
C2258 C 0.51282 0.50457 0.02853 0.0
C2259 C 0.51031 0.51045 0.00267 0.0
C2260 C 0.48917 0.50905 -0.0046 0.0
C2261 C 0.4709 0.50174 0.01351 0.0
C2262 C 0.55358 0.54396 0.94824 0.0
C2263 C 0.56646 0.53235 0.94646 0.0
C2264 C 0.53541 0.53684 0.96638 0.0
C2265 C 0.52969 0.51802 0.98338 0.0
C2266 C 0.54265 0.50652 0.98183 0.0
C2267 C 0.56077 0.51356 0.96358 0.0
H2268 H 0.19972 0.05663 0.9443 0.0
H2269 H 0.26423 0.06012 0.96669 0.0
H2270 H 0.21494 0.0966 0.95792 0.0
H2271 H 0.28016 0.10096 0.97907 0.0
H2272 H 0.27958 0.15351 0.03991 0.0
H2273 H 0.27473 0.12042 0.01452 0.0
H2274 H 0.23999 0.1371 0.95346 0.0
H2275 H 0.24433 0.17009 0.97983 0.0
C2276 C 0.21728 0.06596 0.95195 0.0
C2277 C 0.23045 0.05476 0.95507 0.0
C2278 C 0.22625 0.08923 0.95932 0.0
C2279 C 0.24881 0.10223 0.96986 0.0
C2280 C 0.26256 0.09147 0.97148 0.0
C2281 C 0.25349 0.06804 0.9642 0.0
C2282 C 0.27165 0.15059 0.02059 0.0
C2283 C 0.26232 0.16434 0.01182 0.0
C2284 C 0.26888 0.13155 0.00592 0.0
C2285 C 0.25656 0.12563 0.98201 0.0
C2286 C 0.24913 0.14078 0.97205 0.0
C2287 C 0.25195 0.15996 0.98687 0.0
H2288 H 0.86078 0.12396 0.00911 0.0
H2289 H 0.87989 0.07198 -0.00732 0.0
H2290 H 0.89474 0.15284 0.9843 0.0
H2291 H 0.91398 0.10052 0.96864 0.0
H2292 H 0.97292 0.15285 0.92177 0.0
H2293 H 0.93254 0.12582 0.93347 0.0
H2294 H 0.93561 0.17433 0.99242 0.0
H2295 H 0.97593 0.20174 0.97968 0.0
C2296 C 0.87165 0.11847 -0.00094 0.0
C2297 C 0.86736 0.09559 0.00207 0.0
C2298 C 0.89143 0.13512 0.98535 0.0
C2299 C 0.90744 0.12925 0.9746 0.0
C2300 C 0.90205 0.10582 0.97616 0.0
C2301 C 0.88234 0.08928 0.9898 0.0
C2302 C 0.96483 0.15781 0.93701 0.0
C2303 C 0.97766 0.17925 0.9501 0.0
C2304 C 0.94166 0.14228 0.94382 0.0
C2305 C 0.93071 0.14754 0.96427 0.0
C2306 C 0.94324 0.16962 0.97642 0.0
C2307 C 0.96641 0.18536 0.96926 0.0
H2308 H 0.95689 0.79819 0.98242 0.0
H2309 H 0.89939 0.74366 0.02524 0.0
H2310 H 0.92968 0.80586 0.95772 0.0
H2311 H 0.87213 0.75122 0.00077 0.0
H2312 H 0.82794 0.76999 0.94632 0.0
H2313 H 0.85348 0.75461 0.95872 0.0
H2314 H 0.90831 0.82426 0.97711 0.0
H2315 H 0.88311 0.83941 0.96582 0.0
C2316 C 0.93834 0.78701 0.9855 0.0
C2317 C 0.93019 0.77009 0.00539 0.0
C2318 C 0.92275 0.79163 0.97171 0.0
C2319 C 0.89872 0.7794 0.97759 0.0
C2320 C 0.89043 0.76088 -0.00438 0.0
C2321 C 0.90604 0.75643 0.00953 0.0
C2322 C 0.8454 0.78202 0.95308 0.0
C2323 C 0.85333 0.80609 0.95467 0.0
C2324 C 0.8601 0.7732 0.96 0.0
C2325 C 0.88316 0.78827 0.96833 0.0
C2326 C 0.89096 0.8122 0.96997 0.0
C2327 C 0.87631 0.82092 0.96347 0.0
H2328 H 0.17097 0.2834 0.46331 0.0
H2329 H 0.1724 0.22723 0.50424 0.0
H2330 H 0.13608 0.27583 0.48762 0.0
H2331 H 0.13747 0.21957 0.52883 0.0
H2332 H 0.05767 0.18707 0.51924 0.0
H2333 H 0.09814 0.2021 0.50894 0.0
H2334 H 0.11324 0.27152 0.52912 0.0
H2335 H 0.07215 0.25626 0.54049 0.0
C2336 C 0.16454 0.27028 0.47865 0.0
C2337 C 0.17459 0.25615 0.48223 0.0
C2338 C 0.14442 0.26581 0.49246 0.0
C2339 C 0.13369 0.24681 0.50984 0.0
C2340 C 0.14513 0.23415 0.51531 0.0
C2341 C 0.16539 0.23878 0.50161 0.0
C2342 C 0.06941 0.20547 0.52222 0.0
C2343 C 0.06125 0.22027 0.53117 0.0
C2344 C 0.09288 0.21412 0.51628 0.0
C2345 C 0.10914 0.23796 0.51867 0.0
C2346 C 0.10118 0.253 0.52725 0.0
C2347 C 0.07755 0.24424 0.5336 0.0
H2348 H 0.8042 0.95007 0.5014 0.0
H2349 H 0.75003 0.8924 0.45841 0.0
H2350 H 0.81197 0.92296 0.52622 0.0
H2351 H 0.75766 0.86526 0.48302 0.0
H2352 H 0.77652 0.82123 0.53729 0.0
H2353 H 0.76105 0.84674 0.52523 0.0
H2354 H 0.83057 0.90172 0.50666 0.0
H2355 H 0.84583 0.87656 0.51759 0.0
C2356 C 0.79312 0.93151 0.4983 0.0
C2357 C 0.77631 0.92327 0.47831 0.0
C2358 C 0.79779 0.91597 0.51217 0.0
C2359 C 0.78568 0.89194 0.50628 0.0
C2360 C 0.76722 0.88357 0.48817 0.0
C2361 C 0.76274 0.89911 0.47417 0.0
C2362 C 0.78851 0.83871 0.53058 0.0
C2363 C 0.81257 0.84668 0.52878 0.0
C2364 C 0.77964 0.8534 0.52385 0.0
C2365 C 0.79464 0.87648 0.51553 0.0
C2366 C 0.81857 0.88435 0.51378 0.0
C2367 C 0.82735 0.8697 0.52008 0.0
H2368 H 0.08048 0.86953 0.49595 0.0
H2369 H 0.13337 0.85453 0.4698 0.0
H2370 H 0.10951 0.90298 0.52059 0.0
H2371 H 0.16275 0.88779 0.49504 0.0
H2372 H 0.20889 0.96919 0.50356 0.0
H2373 H 0.18212 0.92913 0.48932 0.0
H2374 H 0.13678 0.92028 0.55481 0.0
H2375 H 0.16315 0.96039 0.56818 0.0
C2376 C 0.09817 0.87269 0.49673 0.0
C2377 C 0.10456 0.85908 0.48164 0.0
C2378 C 0.11497 0.89203 0.51071 0.0
C2379 C 0.1387 0.8984 0.50973 0.0
C2380 C 0.14477 0.88371 0.49601 0.0
C2381 C 0.12788 0.86433 0.482 0.0
C2382 C 0.19343 0.95843 0.51511 0.0
C2383 C 0.18791 0.96798 0.5367 0.0
C2384 C 0.17805 0.93542 0.50706 0.0
C2385 C 0.15695 0.9214 0.52065 0.0
C2386 C 0.15245 0.93061 0.54339 0.0
C2387 C 0.16762 0.95359 0.55117 0.0
H2388 H 0.78627 0.96995 0.00248 0.0
H2389 H 0.82291 0.96084 0.06718 0.0
H2390 H 0.77257 0.92981 0.9884 0.0
H2391 H 0.80863 0.92056 0.05407 0.0
H2392 H 0.8131 0.86879 -0.00419 0.0
H2393 H 0.81787 0.90231 0.02061 0.0
H2394 H 0.75036 0.88887 -0.00631 0.0
H2395 H 0.74624 0.8557 0.96815 0.0
C2396 C 0.79081 0.95909 0.01409 0.0
C2397 C 0.8059 0.96857 0.03564 0.0
C2398 C 0.78293 0.93602 0.00614 0.0
C2399 C 0.78974 0.92183 0.01984 0.0
C2400 C 0.80349 0.93099 0.04255 0.0
C2401 C 0.8116 0.95407 0.05019 0.0
C2402 C 0.79881 0.87234 -0.00368 0.0
C2403 C 0.77905 0.85932 0.98068 0.0
C2404 C 0.80156 0.89174 0.01039 0.0
C2405 C 0.78461 0.89866 0.00902 0.0
C2406 C 0.76398 0.88442 -0.00509 0.0
C2407 C 0.76133 0.86507 0.98073 0.0
H2408 H 0.0673 0.81534 0.0205 0.0
H2409 H 0.06398 0.87675 0.04157 0.0
H2410 H 0.10828 0.83995 0.00863 0.0
H2411 H 0.10413 0.90121 0.02842 0.0
H2412 H 0.17789 0.94478 0.00743 0.0
H2413 H 0.14451 0.91645 0.03355 0.0
H2414 H 0.12831 0.86453 0.9732 0.0
H2415 H 0.16178 0.89246 0.94808 0.0
C2416 C 0.07528 0.83402 0.02281 0.0
C2417 C 0.06201 0.84397 0.03142 0.0
C2418 C 0.0988 0.84822 0.01581 0.0
C2419 C 0.10967 0.87274 0.01719 0.0
C2420 C 0.09667 0.8825 0.02722 0.0
C2421 C 0.07331 0.86837 0.03431 0.0
C2422 C 0.16778 0.92698 0.00052 0.0
C2423 C 0.17241 0.92075 0.97583 0.0
C2424 C 0.14837 0.9108 0.01519 0.0
C2425 C 0.13324 0.88818 0.00533 0.0
C2426 C 0.13941 0.88156 0.98173 0.0
C2427 C 0.15868 0.89764 0.96721 0.0
H2428 H 0.21522 0.25664 0.0215 0.0
H2429 H 0.15366 0.19202 0.04238 0.0
H2430 H 0.19072 0.27294 0.00884 0.0
H2431 H 0.12931 0.20761 0.02845 0.0
H2432 H 0.08595 0.23783 0.00612 0.0
H2433 H 0.11397 0.23275 0.03282 0.0
H2434 H 0.1665 0.26823 0.97302 0.0
H2435 H 0.13889 0.27381 0.94733 0.0
C2436 C 0.19653 0.24595 0.0236 0.0
C2437 C 0.18652 0.22278 0.0324 0.0
C2438 C 0.18239 0.25523 0.01615 0.0
C2439 C 0.15786 0.24157 0.01724 0.0
C2440 C 0.14802 0.21886 0.02745 0.0
C2441 C 0.1621 0.20968 0.035 0.0
C2442 C 0.1038 0.24544 -0.00057 0.0
C2443 C 0.1103 0.25624 0.97473 0.0
C2444 C 0.11981 0.24219 0.01444 0.0
C2445 C 0.14252 0.24963 0.00493 0.0
C2446 C 0.14939 0.26235 0.98129 0.0
C2447 C 0.13349 0.26555 0.96644 0.0
H2448 H 0.86248 0.73918 0.51628 0.0
H2449 H 0.87588 0.80617 0.48865 0.0
H2450 H 0.89582 0.74333 0.49109 0.0
H2451 H 0.9096 0.811 0.46426 0.0
H2452 H 0.96851 0.81621 0.41832 0.0
H2453 H 0.92818 0.80207 0.4311 0.0
H2454 H 0.93663 0.7652 0.4965 0.0
H2455 H 0.97679 0.77872 0.48268 0.0
C2456 C 0.87197 0.75433 0.50378 0.0
C2457 C 0.86623 0.77206 0.50372 0.0
C2458 C 0.89142 0.75699 0.48981 0.0
C2459 C 0.90581 0.77767 0.47582 0.0
C2460 C 0.89893 0.79466 0.47437 0.0
C2461 C 0.87941 0.79188 0.4882 0.0
C2462 C 0.96153 0.80474 0.43516 0.0
C2463 C 0.97581 0.79874 0.4497 0.0
C2464 C 0.93844 0.79672 0.44263 0.0
C2465 C 0.92903 0.78277 0.46518 0.0
C2466 C 0.94301 0.7757 0.47887 0.0
C2467 C 0.9661 0.78348 0.47108 0.0
H2468 H 0.21678 0.07141 0.49434 0.0
H2469 H 0.28853 0.12254 0.50879 0.0
H2470 H 0.2114 0.10011 0.47045 0.0
H2471 H 0.28361 0.15158 0.48411 0.0
H2472 H 0.25226 0.20144 0.48103 0.0
H2473 H 0.26497 0.17371 0.49301 0.0
H2474 H 0.21785 0.12522 0.43516 0.0
H2475 H 0.20468 0.15257 0.42425 0.0
C2476 C 0.23177 0.08853 0.49104 0.0
C2477 C 0.25321 0.09457 0.50275 0.0
C2478 C 0.22871 0.10517 0.47748 0.0
C2479 C 0.24701 0.12843 0.47543 0.0
C2480 C 0.26901 0.134 0.48555 0.0
C2481 C 0.27203 0.11724 0.49918 0.0
C2482 C 0.24498 0.18499 0.47067 0.0
C2483 C 0.22721 0.17897 0.45209 0.0
C2484 C 0.25231 0.16907 0.47739 0.0
C2485 C 0.24221 0.14691 0.46536 0.0
C2486 C 0.2256 0.14174 0.44541 0.0
C2487 C 0.21808 0.15745 0.43906 0.0
H2488 H 0.95927 0.16314 0.48377 0.0
H2489 H 0.90171 0.1649 0.52077 0.0
H2490 H 0.93189 0.12786 0.45982 0.0
H2491 H 0.87426 0.12965 0.49705 0.0
H2492 H 0.83006 0.06512 0.44446 0.0
H2493 H 0.85648 0.10616 0.45563 0.0
H2494 H 0.90834 0.08908 0.48072 0.0
H2495 H 0.88222 0.0486 0.47059 0.0
C2496 C 0.94075 0.15673 0.48562 0.0
C2497 C 0.93259 0.16698 0.50371 0.0
C2498 C 0.92503 0.13627 0.4723 0.0
C2499 C 0.90085 0.12565 0.47689 0.0
C2500 C 0.89269 0.13734 0.49292 0.0
C2501 C 0.90842 0.15769 0.50636 0.0
C2502 C 0.84704 0.07007 0.45245 0.0
C2503 C 0.85389 0.05326 0.45626 0.0
C2504 C 0.86226 0.09366 0.45867 0.0
C2505 C 0.88478 0.10105 0.46851 0.0
C2506 C 0.89147 0.08424 0.47239 0.0
C2507 C 0.87629 0.06081 0.46656 0.0
H2508 H 0.95742 0.50732 0.34213 0.0
H2509 H 0.88616 0.48679 0.32462 0.0
H2510 H 0.95342 0.47379 0.31726 0.0
H2511 H 0.88171 0.45317 0.30044 0.0
H2512 H 0.87647 0.39488 0.25403 0.0
H2513 H 0.88959 0.43535 0.26526 0.0
H2514 H 0.93446 0.43278 0.32528 0.0
H2515 H 0.92182 0.39239 0.31296 0.0
C2516 C 0.94126 0.49624 0.33183 0.0
C2517 C 0.92229 0.49999 0.33457 0.0
C2518 C 0.93876 0.47672 0.31807 0.0
C2519 C 0.91716 0.46046 0.30695 0.0
C2520 C 0.89875 0.46532 0.30825 0.0
C2521 C 0.90128 0.48476 0.32197 0.0
C2522 C 0.88947 0.40318 0.26929 0.0
C2523 C 0.89795 0.39046 0.28285 0.0
C2524 C 0.89692 0.42635 0.27587 0.0
C2525 C 0.91278 0.4374 0.29659 0.0
C2526 C 0.92237 0.42505 0.30908 0.0
C2527 C 0.91512 0.40186 0.30215 0.0
H2528 H 0.648 0.48176 0.30156 0.0
H2529 H 0.63283 0.53582 0.27955 0.0
H2530 H 0.60763 0.45623 0.31253 0.0
H2531 H 0.59187 0.50996 0.29162 0.0
H2532 H 0.53447 0.46406 0.35795 0.0
H2533 H 0.56931 0.49153 0.33361 0.0
H2534 H 0.56826 0.43406 0.29235 0.0
H2535 H 0.53341 0.40666 0.31694 0.0
C2536 C 0.63609 0.48823 0.2986 0.0
C2537 C 0.64397 0.51098 0.28917 0.0
C2538 C 0.61272 0.47339 0.30492 0.0
C2539 C 0.59632 0.48079 0.30245 0.0
C2540 C 0.60405 0.50365 0.29354 0.0
C2541 C 0.62759 0.51854 0.2868 0.0
C2542 C 0.54097 0.45744 0.3426 0.0
C2543 C 0.53104 0.43328 0.33896 0.0
C2544 C 0.56106 0.47318 0.32878 0.0
C2545 C 0.57184 0.465 0.31137 0.0
C2546 C 0.56054 0.44091 0.30589 0.0
C2547 C 0.54033 0.4252 0.3196 0.0
H2548 H 0.54532 0.15537 0.25432 0.0
H2549 H 0.49809 0.11401 0.31596 0.0
H2550 H 0.5715 0.14093 0.26595 0.0
H2551 H 0.5247 0.10015 0.32867 0.0
H2552 H 0.57272 0.07376 0.34662 0.0
H2553 H 0.54405 0.07891 0.32165 0.0
H2554 H 0.59821 0.14803 0.29937 0.0
H2555 H 0.62658 0.14223 0.32346 0.0
C2556 C 0.54053 0.14306 0.27036 0.0
C2557 C 0.51982 0.13602 0.28447 0.0
C2558 C 0.55559 0.13483 0.27715 0.0
C2559 C 0.55059 0.11961 0.29861 0.0
C2560 C 0.52918 0.11163 0.31186 0.0
C2561 C 0.51389 0.11962 0.30472 0.0
C2562 C 0.57859 0.08948 0.33508 0.0
C2563 C 0.60196 0.10733 0.33627 0.0
C2564 C 0.56208 0.0927 0.32127 0.0
C2565 C 0.56856 0.11407 0.30872 0.0
C2566 C 0.59239 0.1312 0.30836 0.0
C2567 C 0.60885 0.12786 0.32201 0.0
H2568 H 0.84499 0.5714 0.84079 0.0
H2569 H 0.82859 0.60658 0.78045 0.0
H2570 H 0.81198 0.56717 0.86702 0.0
H2571 H 0.79548 0.60183 0.8057 0.0
H2572 H 0.73512 0.59154 0.85321 0.0
H2573 H 0.77596 0.60738 0.84094 0.0
H2574 H 0.7715 0.54222 0.8627 0.0
H2575 H 0.73153 0.5271 0.87621 0.0
C2576 C 0.83489 0.57903 0.83365 0.0
C2577 C 0.83934 0.58936 0.80867 0.0
C2578 C 0.81569 0.57627 0.8484 0.0
C2579 C 0.80059 0.58372 0.83834 0.0
C2580 C 0.80657 0.59597 0.81438 0.0
C2581 C 0.82563 0.59869 0.79979 0.0
C2582 C 0.74302 0.5808 0.85587 0.0
C2583 C 0.72971 0.5578 0.86513 0.0
C2584 C 0.76645 0.58982 0.84865 0.0
C2585 C 0.77719 0.57605 0.85044 0.0
C2586 C 0.76416 0.55355 0.86115 0.0
C2587 C 0.74089 0.54464 0.86846 0.0
H2588 H 0.44194 0.15535 0.87237 0.0
H2589 H 0.51113 0.21065 0.85225 0.0
H2590 H 0.42635 0.18074 0.8601 0.0
H2591 H 0.49577 0.23571 0.84113 0.0
H2592 H 0.46956 0.28412 0.83623 0.0
H2593 H 0.47726 0.25694 0.86099 0.0
H2594 H 0.4228 0.19932 0.81785 0.0
H2595 H 0.41523 0.22655 0.79329 0.0
C2596 C 0.45387 0.1728 0.8655 0.0
C2597 C 0.47794 0.18083 0.86371 0.0
C2598 C 0.44493 0.18742 0.85866 0.0
C2599 C 0.45988 0.21048 0.85023 0.0
C2600 C 0.48381 0.21837 0.84837 0.0
C2601 C 0.49264 0.20379 0.85478 0.0
C2602 C 0.45841 0.26556 0.83315 0.0
C2603 C 0.44157 0.25738 0.81319 0.0
C2604 C 0.46304 0.24998 0.84698 0.0
C2605 C 0.4509 0.22596 0.84107 0.0
C2606 C 0.4324 0.21763 0.82301 0.0
C2607 C 0.42794 0.23322 0.80906 0.0
H2608 H 0.88191 0.29951 0.85515 0.0
H2609 H 0.82094 0.3033 0.87712 0.0
H2610 H 0.85698 0.25879 0.84256 0.0
H2611 H 0.79616 0.26341 0.86322 0.0
H2612 H 0.75214 0.18966 0.84145 0.0
H2613 H 0.78058 0.22288 0.8677 0.0
H2614 H 0.8323 0.23933 0.80705 0.0
H2615 H 0.80428 0.20602 0.7818 0.0
C2616 C 0.86326 0.2917 0.8575 0.0
C2617 C 0.85356 0.30505 0.86663 0.0
C2618 C 0.84887 0.26832 0.85007 0.0
C2619 C 0.82438 0.25766 0.8515 0.0
C2620 C 0.81484 0.27071 0.86196 0.0
C2621 C 0.82917 0.29394 0.8695 0.0
C2622 C 0.76992 0.1998 0.83448 0.0
C2623 C 0.77608 0.19526 0.8097 0.0
C2624 C 0.78616 0.21912 0.84923 0.0
C2625 C 0.80877 0.23425 0.83935 0.0
C2626 C 0.81529 0.22822 0.8156 0.0
C2627 C 0.79916 0.20904 0.801 0.0
H2628 H 0.48397 0.20452 0.3295 0.0
H2629 H 0.41438 0.18695 0.30744 0.0
H2630 H 0.48865 0.23834 0.35342 0.0
H2631 H 0.41848 0.22052 0.33218 0.0
H2632 H 0.45125 0.30164 0.33786 0.0
H2633 H 0.43841 0.26131 0.32517 0.0
H2634 H 0.48071 0.25702 0.38725 0.0
H2635 H 0.49412 0.29748 0.39881 0.0
C2636 C 0.46916 0.20718 0.33113 0.0
C2637 C 0.44861 0.19275 0.31729 0.0
C2638 C 0.47185 0.22677 0.3447 0.0
C2639 C 0.45403 0.23254 0.34465 0.0
C2640 C 0.43275 0.21697 0.33238 0.0
C2641 C 0.43014 0.19738 0.3187 0.0
C2642 C 0.45738 0.29182 0.34899 0.0
C2643 C 0.47391 0.30274 0.36902 0.0
C2644 C 0.44999 0.26864 0.34185 0.0
C2645 C 0.45876 0.25578 0.35488 0.0
C2646 C 0.47403 0.26639 0.37621 0.0
C2647 C 0.48164 0.28957 0.38298 0.0
H2648 H 0.84562 0.28172 0.34255 0.0
H2649 H 0.83105 0.22895 0.28428 0.0
H2650 H 0.81282 0.25308 0.36907 0.0
H2651 H 0.79799 0.20073 0.30967 0.0
H2652 H 0.73655 0.15126 0.35621 0.0
H2653 H 0.77754 0.17619 0.34451 0.0
H2654 H 0.77268 0.23702 0.36462 0.0
H2655 H 0.73266 0.21226 0.37773 0.0
C2656 C 0.836 0.26378 0.33598 0.0
C2657 C 0.84091 0.2575 0.31148 0.0
C2658 C 0.81687 0.2474 0.35086 0.0
C2659 C 0.80218 0.22454 0.34133 0.0
C2660 C 0.80871 0.21792 0.31797 0.0
C2661 C 0.82778 0.23417 0.3033 0.0
C2662 C 0.7444 0.16992 0.35864 0.0
C2663 C 0.73096 0.17965 0.36731 0.0
C2664 C 0.76793 0.18431 0.35172 0.0
C2665 C 0.77862 0.20883 0.35319 0.0
C2666 C 0.76543 0.21835 0.36332 0.0
C2667 C 0.7421 0.20402 0.37039 0.0
H2668 H 0.832 0.54464 0.40077 0.0
H2669 H 0.87657 0.58059 0.335 0.0
H2670 H 0.80545 0.5583 0.38781 0.0
H2671 H 0.84958 0.59368 0.32108 0.0
H2672 H 0.80078 0.61897 0.30126 0.0
H2673 H 0.83048 0.61558 0.32632 0.0
H2674 H 0.77741 0.54821 0.35481 0.0
H2675 H 0.74801 0.55223 0.33045 0.0
C2676 C 0.83617 0.5557 0.3836 0.0
C2677 C 0.8562 0.56137 0.36872 0.0
C2678 C 0.82089 0.56343 0.37603 0.0
C2679 C 0.82498 0.57679 0.35307 0.0
C2680 C 0.84582 0.58362 0.33902 0.0
C2681 C 0.86133 0.5761 0.34688 0.0
C2682 C 0.79542 0.60406 0.31407 0.0
C2683 C 0.77203 0.58617 0.3146 0.0
C2684 C 0.8125 0.60184 0.32798 0.0
C2685 C 0.80657 0.58146 0.34241 0.0
C2686 C 0.7828 0.56433 0.34433 0.0
C2687 C 0.76578 0.56666 0.33052 0.0
H2688 H 0.64261 0.11317 0.81711 0.0
H2689 H 0.63632 0.15379 0.7549 0.0
H2690 H 0.60232 0.09975 0.83036 0.0
H2691 H 0.59588 0.13976 0.76705 0.0
H2692 H 0.54356 0.14303 0.82519 0.0
H2693 H 0.57731 0.14799 0.80084 0.0
H2694 H 0.56151 0.07879 0.82402 0.0
H2695 H 0.52807 0.07446 0.8492 0.0
C2696 C 0.63233 0.11866 0.80584 0.0
C2697 C 0.64263 0.13476 0.78528 0.0
C2698 C 0.60918 0.11094 0.8133 0.0
C2699 C 0.59573 0.11891 0.80006 0.0
C2700 C 0.60572 0.13371 0.77824 0.0
C2701 C 0.62888 0.14167 0.77114 0.0
C2702 C 0.54667 0.12847 0.82394 0.0
C2703 C 0.53288 0.10814 0.83844 0.0
C2704 C 0.5662 0.13132 0.81011 0.0
C2705 C 0.5725 0.11389 0.81057 0.0
C2706 C 0.55754 0.09277 0.82352 0.0
C2707 C 0.53804 0.09003 0.83747 0.0
H2708 H 0.91967 0.53603 0.81619 0.0
H2709 H 0.87673 0.48717 0.75661 0.0
H2710 H 0.93386 0.50977 0.82922 0.0
H2711 H 0.89154 0.46134 0.76845 0.0
H2712 H 0.89269 0.40769 0.82613 0.0
H2713 H 0.88588 0.43535 0.80193 0.0
H2714 H 0.95503 0.49059 0.82238 0.0
H2715 H 0.96114 0.46266 0.84761 0.0
C2716 C 0.91374 0.5199 0.80548 0.0
C2717 C 0.89684 0.51345 0.78572 0.0
C2718 C 0.92194 0.50482 0.81278 0.0
C2719 C 0.9137 0.48309 0.80015 0.0
C2720 C 0.89788 0.4775 0.7792 0.0
C2721 C 0.88942 0.49235 0.77228 0.0
C2722 C 0.90683 0.42551 0.82427 0.0
C2723 C 0.92765 0.43292 0.83813 0.0
C2724 C 0.90291 0.44156 0.81055 0.0
C2725 C 0.91976 0.4655 0.81037 0.0
C2726 C 0.94141 0.47248 0.82246 0.0
C2727 C 0.9452 0.45639 0.83641 0.0
H2728 H 0.48959 0.39571 0.7972 0.0
H2729 H 0.5502 0.39002 0.77901 0.0
H2730 H 0.51492 0.43676 0.80842 0.0
H2731 H 0.57532 0.43023 0.79151 0.0
H2732 H 0.62029 0.50406 0.81092 0.0
H2733 H 0.5917 0.4706 0.78514 0.0
H2734 H 0.53924 0.45719 0.84389 0.0
H2735 H 0.56747 0.49078 0.86865 0.0
C2736 C 0.50825 0.40318 0.79539 0.0
C2737 C 0.51774 0.38924 0.78776 0.0
C2738 C 0.52286 0.42674 0.80202 0.0
C2739 C 0.54734 0.43699 0.80122 0.0
C2740 C 0.55667 0.42328 0.79221 0.0
C2741 C 0.54214 0.39988 0.7855 0.0
C2742 C 0.60235 0.49458 0.81749 0.0
C2743 C 0.59603 0.50004 0.84165 0.0
C2744 C 0.586 0.4751 0.80304 0.0
C2745 C 0.56312 0.4607 0.81262 0.0
C2746 C 0.55647 0.46771 0.83559 0.0
C2747 C 0.57272 0.48707 0.84989 0.0
H2748 H 0.55931 0.82535 0.65454 0.0
H2749 H 0.62663 0.84001 0.68239 0.0
H2750 H 0.5551 0.79176 0.6304 0.0
H2751 H 0.62306 0.80675 0.6575 0.0
H2752 H 0.58834 0.72559 0.64999 0.0
H2753 H 0.60155 0.76584 0.66331 0.0
H2754 H 0.56456 0.77338 0.59743 0.0
H2755 H 0.55075 0.73298 0.58515 0.0
C2756 C 0.57382 0.82213 0.65419 0.0
C2757 C 0.59355 0.83563 0.6697 0.0
C2758 C 0.57139 0.80268 0.6405 0.0
C2759 C 0.58863 0.79617 0.64212 0.0
C2760 C 0.60922 0.81087 0.65608 0.0
C2761 C 0.61155 0.83028 0.66988 0.0
C2762 C 0.58352 0.73611 0.63817 0.0
C2763 C 0.5683 0.72613 0.6168 0.0
C2764 C 0.59111 0.75924 0.64568 0.0
C2765 C 0.58388 0.77298 0.63172 0.0
C2766 C 0.57002 0.76331 0.60916 0.0
C2767 C 0.5622 0.74018 0.60197 0.0
H2768 H 0.30818 0.8692 0.6486 0.0
H2769 H 0.30419 0.82112 0.58904 0.0
H2770 H 0.26767 0.84227 0.66088 0.0
H2771 H 0.2635 0.79464 0.60009 0.0
H2772 H 0.20871 0.73994 0.65684 0.0
H2773 H 0.24317 0.76829 0.6332 0.0
H2774 H 0.22736 0.82228 0.65352 0.0
H2775 H 0.19329 0.79364 0.67819 0.0
C2776 C 0.29838 0.85311 0.63771 0.0
C2777 C 0.30939 0.84707 0.6182 0.0
C2778 C 0.27507 0.83764 0.64459 0.0
C2779 C 0.26212 0.81592 0.63176 0.0
C2780 C 0.2729 0.81077 0.611 0.0
C2781 C 0.29623 0.826 0.60453 0.0
C2782 C 0.21197 0.75762 0.65505 0.0
C2783 C 0.198 0.76446 0.66872 0.0
C2784 C 0.23194 0.77408 0.64165 0.0
C2785 C 0.23849 0.79789 0.64161 0.0
C2786 C 0.22328 0.80429 0.65349 0.0
C2787 C 0.20339 0.78779 0.66711 0.0
H2788 H 0.15878 0.43508 0.62632 0.0
H2789 H 0.21889 0.50218 0.60993 0.0
H2790 H 0.18452 0.41974 0.63733 0.0
H2791 H 0.2444 0.4875 0.62215 0.0
H2792 H 0.29038 0.4604 0.64217 0.0
H2793 H 0.26163 0.46443 0.61576 0.0
H2794 H 0.2085 0.42338 0.67306 0.0
H2795 H 0.23696 0.41881 0.69841 0.0
C2796 C 0.17743 0.4465 0.6248 0.0
C2797 C 0.18667 0.47003 0.61782 0.0
C2798 C 0.19226 0.43778 0.63131 0.0
C2799 C 0.21672 0.45237 0.63099 0.0
C2800 C 0.2258 0.47552 0.62248 0.0
C2801 C 0.21104 0.48414 0.61591 0.0
C2802 C 0.27229 0.45129 0.64825 0.0
C2803 C 0.26582 0.43916 0.67218 0.0
C2804 C 0.25583 0.45394 0.63344 0.0
C2805 C 0.23269 0.44471 0.64249 0.0
C2806 C 0.22594 0.43067 0.66517 0.0
C2807 C 0.24231 0.42799 0.67979 0.0
H2808 H 0.51352 0.90582 0.17421 0.0
H2809 H 0.49822 0.9429 0.11521 0.0
H2810 H 0.48057 0.9015 0.20059 0.0
H2811 H 0.4651 0.93802 0.14055 0.0
H2812 H 0.40403 0.92653 0.18767 0.0
H2813 H 0.44499 0.94259 0.17575 0.0
H2814 H 0.44026 0.87697 0.19588 0.0
H2815 H 0.4002 0.86166 0.20906 0.0
C2816 C 0.50371 0.91388 0.16744 0.0
C2817 C 0.50845 0.92478 0.14277 0.0
C2818 C 0.48451 0.91105 0.18225 0.0
C2819 C 0.46965 0.91892 0.17253 0.0
C2820 C 0.47598 0.93179 0.14898 0.0
C2821 C 0.49507 0.93462 0.13434 0.0
C2822 C 0.41191 0.91574 0.19005 0.0
C2823 C 0.3985 0.89257 0.19875 0.0
C2824 C 0.43541 0.92487 0.18302 0.0
C2825 C 0.44612 0.91106 0.18445 0.0
C2826 C 0.43297 0.88836 0.19462 0.0
C2827 C 0.40964 0.87934 0.20174 0.0
H2828 H 0.09533 0.56473 0.11535 0.0
H2829 H 0.13371 0.61706 0.17398 0.0
H2830 H 0.1005 0.53636 0.14012 0.0
H2831 H 0.1384 0.58832 0.19973 0.0
H2832 H 0.17727 0.54668 0.20691 0.0
H2833 H 0.16258 0.57198 0.19371 0.0
H2834 H 0.09581 0.51179 0.17576 0.0
H2835 H 0.11113 0.48629 0.18772 0.0
C2836 C 0.104 0.56983 0.13428 0.0
C2837 C 0.11404 0.59304 0.14282 0.0
C2838 C 0.10699 0.55351 0.14857 0.0
C2839 C 0.12025 0.55998 0.17183 0.0
C2840 C 0.1285 0.58277 0.18162 0.0
C2841 C 0.12548 0.59919 0.16718 0.0
C2842 C 0.15948 0.5387 0.20003 0.0
C2843 C 0.14564 0.51431 0.19777 0.0
C2844 C 0.15083 0.55334 0.19291 0.0
C2845 C 0.12796 0.54411 0.18345 0.0
C2846 C 0.11365 0.51964 0.18254 0.0
C2847 C 0.12238 0.50494 0.18958 0.0
H2848 H 0.4705 0.53587 0.11506 0.0
H2849 H 0.41866 0.51941 0.1751 0.0
H2850 H 0.4988 0.5688 0.14052 0.0
H2851 H 0.44741 0.55216 0.20164 0.0
H2852 H 0.4876 0.63244 0.21139 0.0
H2853 H 0.46292 0.59247 0.1979 0.0
H2854 H 0.52379 0.58857 0.17543 0.0
H2855 H 0.54859 0.62947 0.18758 0.0
C2856 C 0.4655 0.53876 0.1344 0.0
C2857 C 0.4424 0.52512 0.14311 0.0
C2858 C 0.48181 0.55772 0.14913 0.0
C2859 C 0.47546 0.56365 0.17307 0.0
C2860 C 0.45286 0.54853 0.18301 0.0
C2861 C 0.43643 0.52946 0.16809 0.0
C2862 C 0.49585 0.62321 0.20348 0.0
C2863 C 0.52017 0.63459 0.19986 0.0
C2864 C 0.48159 0.59992 0.19618 0.0
C2865 C 0.49115 0.58705 0.18525 0.0
C2866 C 0.51564 0.59795 0.18327 0.0
C2867 C 0.52996 0.62143 0.19044 0.0
H2868 H 0.1085 0.62948 0.69059 0.0
H2869 H 0.17502 0.63463 0.70583 0.0
H2870 H 0.09209 0.58832 0.67982 0.0
H2871 H 0.15926 0.59436 0.69353 0.0
H2872 H 0.1302 0.5209 0.67397 0.0
H2873 H 0.13583 0.55438 0.7002 0.0
H2874 H 0.0937 0.56668 0.64468 0.0
H2875 H 0.08747 0.53293 0.61964 0.0
C2876 C 0.11964 0.62192 0.69181 0.0
C2877 C 0.1433 0.63577 0.69855 0.0
C2878 C 0.11026 0.59825 0.68541 0.0
C2879 C 0.12431 0.58777 0.68544 0.0
C2880 C 0.14765 0.60143 0.69346 0.0
C2881 C 0.15692 0.62492 0.70004 0.0
C2882 C 0.12115 0.53006 0.66833 0.0
C2883 C 0.10824 0.52423 0.64494 0.0
C2884 C 0.12477 0.54961 0.68299 0.0
C2885 C 0.11576 0.56383 0.67431 0.0
C2886 C 0.10089 0.55636 0.6523 0.0
C2887 C 0.09722 0.53685 0.63786 0.0
H2888 H 0.40384 0.53865 0.73237 0.0
H2889 H 0.39873 0.49155 0.67096 0.0
H2890 H 0.44421 0.56551 0.72034 0.0
H2891 H 0.43901 0.51884 0.65788 0.0
H2892 H 0.51351 0.5692 0.63974 0.0
H2893 H 0.48011 0.53973 0.66477 0.0
H2894 H 0.46195 0.59191 0.68575 0.0
H2895 H 0.49551 0.62103 0.66142 0.0
C2896 C 0.41154 0.534 0.71638 0.0
C2897 C 0.39812 0.51316 0.70239 0.0
C2898 C 0.43466 0.54945 0.70934 0.0
C2899 C 0.44495 0.54473 0.68775 0.0
C2900 C 0.43189 0.52312 0.67475 0.0
C2901 C 0.40876 0.50744 0.68212 0.0
C2902 C 0.50301 0.57449 0.65095 0.0
C2903 C 0.50746 0.59752 0.64937 0.0
C2904 C 0.48356 0.55752 0.66482 0.0
C2905 C 0.468 0.56322 0.67716 0.0
C2906 C 0.47356 0.58674 0.67697 0.0
C2907 C 0.49296 0.60361 0.66316 0.0
H2908 H 0.47075 0.94199 0.61377 0.0
H2909 H 0.41894 0.90668 0.67385 0.0
H2910 H 0.49906 0.93735 0.63924 0.0
H2911 H 0.44767 0.90262 0.70034 0.0
H2912 H 0.48784 0.8624 0.70981 0.0
H2913 H 0.46315 0.87771 0.69633 0.0
H2914 H 0.52404 0.94266 0.67439 0.0
H2915 H 0.54886 0.92657 0.68664 0.0
C2916 C 0.46576 0.93413 0.63312 0.0
C2917 C 0.44267 0.92471 0.64185 0.0
C2918 C 0.48207 0.93146 0.64785 0.0
C2919 C 0.47572 0.91919 0.67179 0.0
C2920 C 0.45312 0.91172 0.68172 0.0
C2921 C 0.4367 0.9144 0.66683 0.0
C2922 C 0.49608 0.87994 0.70204 0.0
C2923 C 0.52042 0.89295 0.69862 0.0
C2924 C 0.48182 0.88897 0.69474 0.0
C2925 C 0.49139 0.91145 0.68396 0.0
C2926 C 0.5159 0.9251 0.68213 0.0
C2927 C 0.53022 0.91596 0.68936 0.0
H2928 H 0.19317 0.453 0.14596 0.0
H2929 H 0.20948 0.41659 0.20484 0.0
H2930 H 0.22611 0.45763 0.1193 0.0
H2931 H 0.24258 0.4218 0.17923 0.0
H2932 H 0.30332 0.43345 0.13137 0.0
H2933 H 0.2625 0.41724 0.14391 0.0
H2934 H 0.26643 0.48243 0.1234 0.0
H2935 H 0.30635 0.49788 0.10956 0.0
C2936 C 0.20321 0.44516 0.15266 0.0
C2937 C 0.19874 0.43435 0.17737 0.0
C2938 C 0.2224 0.44818 0.13768 0.0
C2939 C 0.23753 0.44057 0.14727 0.0
C2940 C 0.23149 0.42782 0.17089 0.0
C2941 C 0.21241 0.4248 0.18569 0.0
C2942 C 0.29532 0.44412 0.12904 0.0
C2943 C 0.30848 0.46722 0.12001 0.0
C2944 C 0.27188 0.4349 0.13644 0.0
C2945 C 0.26098 0.44854 0.13507 0.0
C2946 C 0.27387 0.47116 0.12463 0.0
C2947 C 0.29713 0.48028 0.11713 0.0
H2948 H 0.55552 0.7395 0.15887 0.0
H2949 H 0.6253 0.79266 0.17865 0.0
H2950 H 0.54965 0.76792 0.13502 0.0
H2951 H 0.62004 0.82138 0.15385 0.0
H2952 H 0.58675 0.86901 0.1487 0.0
H2953 H 0.60003 0.84189 0.16131 0.0
H2954 H 0.55605 0.7939 0.10112 0.0
H2955 H 0.54218 0.82059 0.08969 0.0
C2956 C 0.57009 0.75707 0.15673 0.0
C2957 C 0.59106 0.76374 0.16995 0.0
C2958 C 0.56672 0.77355 0.1432 0.0
C2959 C 0.58427 0.79724 0.14263 0.0
C2960 C 0.60595 0.80348 0.1542 0.0
C2961 C 0.60922 0.78693 0.1679 0.0
C2962 C 0.58028 0.85279 0.13801 0.0
C2963 C 0.56318 0.84672 0.11856 0.0
C2964 C 0.58794 0.83722 0.14508 0.0
C2965 C 0.57892 0.81536 0.13252 0.0
C2966 C 0.56296 0.81016 0.11181 0.0
C2967 C 0.55505 0.8255 0.10513 0.0
H2968 H 0.29315 0.82655 0.15492 0.0
H2969 H 0.23988 0.84088 0.18132 0.0
H2970 H 0.26424 0.79278 0.13071 0.0
H2971 H 0.21065 0.80746 0.15627 0.0
H2972 H 0.16461 0.72635 0.14938 0.0
H2973 H 0.19134 0.76675 0.16237 0.0
H2974 H 0.23685 0.77371 0.09775 0.0
H2975 H 0.21059 0.73315 0.08587 0.0
C2976 C 0.2754 0.82324 0.15419 0.0
C2977 C 0.26886 0.83668 0.16937 0.0
C2978 C 0.25864 0.80367 0.14046 0.0
C2979 C 0.23483 0.79699 0.14167 0.0
C2980 C 0.22866 0.81169 0.1552 0.0
C2981 C 0.24548 0.8312 0.16907 0.0
C2982 C 0.18013 0.73677 0.13777 0.0
C2983 C 0.18572 0.72659 0.1169 0.0
C2984 C 0.19549 0.75999 0.14508 0.0
C2985 C 0.21663 0.77364 0.13139 0.0
C2986 C 0.22119 0.76374 0.10929 0.0
C2987 C 0.20607 0.74051 0.10233 0.0
loop_
_geom_bond_atom_site_label_1
_geom_bond_atom_site_label_2
_geom_bond_distance
_geom_bond_site_symmetry_2
_ccdc_geom_bond_type
C0 C1 1.351 . S
C0 N3 1.368 . S
C0 H5 0.931 . S
C1 C0 1.351 . S
C1 N2 1.373 . S
C1 H29 0.930 . S
N2 C1 1.373 . S
N2 C4 1.340 . S
N3 C0 1.368 . S
N3 C4 1.321 . S
N3 Co6 2.135 . S
C4 N2 1.340 . S
C4 N3 1.321 . S
C4 H28 0.930 . S
H5 C0 0.931 . S
Co6 N3 2.135 . S
Co6 N9 2.121 . S
Co6 O14 2.055 . S
Co6 O17 2.039 . S
Co6 N20 2.140 . S
C7 O8 1.227 . S
C7 O17 1.265 . S
O8 C7 1.227 . S
N9 Co6 2.121 . S
N9 C11 1.375 . S
N9 C12 1.313 . S
C10 C11 1.338 . S
C10 N13 1.377 . S
C10 H30 0.930 . S
C11 N9 1.375 . S
C11 C10 1.338 . S
C11 H15 0.931 . S
C12 N9 1.313 . S
C12 N13 1.344 . S
C12 H16 0.930 . S
N13 C10 1.377 . S
N13 C12 1.344 . S
O14 Co6 2.055 . S
O14 C18 1.253 . S
H15 C11 0.931 . S
H16 C12 0.930 . S
O17 Co6 2.039 . S
O17 C7 1.265 . S
C18 O14 1.253 . S
C18 O19 1.227 . S
O19 C18 1.227 . S
N20 Co6 2.140 . S
N20 C23 1.346 . S
N20 C24 1.345 . S
C21 C22 1.387 . S
C21 C25 1.391 . S
C22 C21 1.387 . S
C22 C23 1.369 . S
C22 H31 0.929 . S
C23 N20 1.346 . S
C23 C22 1.369 . S
C23 H26 0.928 . S
C24 N20 1.345 . S
C24 C25 1.371 . S
C24 H27 0.931 . S
C25 C21 1.391 . S
C25 C24 1.371 . S
C25 H32 0.930 . S
H26 C23 0.928 . S
H27 C24 0.931 . S
H28 C4 0.930 . S
H29 C1 0.930 . S
H30 C10 0.930 . S
H31 C22 0.929 . S
H32 C25 0.930 . S
C33 C34 1.351 1_545 S
C33 N36 1.368 . S
C33 H38 0.931 . S
C34 C33 1.351 1_565 S
C34 N35 1.373 . S
C34 H62 0.930 . S
N35 C34 1.373 . S
N35 C37 1.340 . S
N36 C33 1.368 . S
N36 C37 1.321 1_545 S
N36 Co39 2.135 . S
C37 N35 1.340 . S
C37 N36 1.321 1_565 S
C37 H61 0.930 . S
H38 C33 0.931 . S
Co39 N36 2.135 . S
Co39 N42 2.121 . S
Co39 O47 2.055 . S
Co39 O50 2.039 . S
Co39 N53 2.140 . S
C40 O41 1.227 . S
C40 O50 1.265 . S
O41 C40 1.227 . S
N42 Co39 2.121 . S
N42 C44 1.375 . S
N42 C45 1.313 . S
C43 C44 1.338 . S
C43 N46 1.377 . S
C43 H63 0.930 . S
C44 N42 1.375 . S
C44 C43 1.338 . S
C44 H48 0.931 . S
C45 N42 1.313 . S
C45 N46 1.344 . S
C45 H49 0.930 . S
N46 C43 1.377 . S
N46 C45 1.344 . S
O47 Co39 2.055 . S
O47 C51 1.253 . S
H48 C44 0.931 . S
H49 C45 0.930 . S
O50 Co39 2.039 . S
O50 C40 1.265 . S
C51 O47 1.253 . S
C51 O52 1.227 . S
O52 C51 1.227 . S
N53 Co39 2.140 . S
N53 C56 1.346 . S
N53 C57 1.345 . S
C54 C55 1.387 1_545 S
C54 C58 1.391 . S
C55 C54 1.387 1_565 S
C55 C56 1.369 1_565 S
C55 H64 0.929 . S
C56 N53 1.346 . S
C56 C55 1.369 1_545 S
C56 H59 0.928 1_545 S
C57 N53 1.345 . S
C57 C58 1.371 . S
C57 H60 0.931 . S
C58 C54 1.391 . S
C58 C57 1.371 . S
C58 H65 0.930 . S
H59 C56 0.928 1_565 S
H60 C57 0.931 . S
H61 C37 0.930 . S
H62 C34 0.930 . S
H63 C43 0.930 . S
H64 C55 0.929 . S
H65 C58 0.930 . S
C66 C67 1.351 1_655 S
C66 N69 1.368 . S
C66 H71 0.931 . S
C67 C66 1.351 1_455 S
C67 N68 1.373 . S
C67 H95 0.930 . S
N68 C67 1.373 . S
N68 C70 1.340 . S
N69 C66 1.368 . S
N69 C70 1.321 1_655 S
N69 Co72 2.135 . S
C70 N68 1.340 . S
C70 N69 1.321 1_455 S
C70 H94 0.930 . S
H71 C66 0.931 . S
Co72 N69 2.135 . S
Co72 N75 2.121 . S
Co72 O80 2.055 . S
Co72 O83 2.039 . S
Co72 N86 2.140 . S
C73 O74 1.227 . S
C73 O83 1.265 . S
O74 C73 1.227 . S
N75 Co72 2.121 . S
N75 C77 1.375 . S
N75 C78 1.313 . S
C76 C77 1.338 . S
C76 N79 1.377 . S
C76 H96 0.930 . S
C77 N75 1.375 . S
C77 C76 1.338 . S
C77 H81 0.931 . S
C78 N75 1.313 . S
C78 N79 1.344 . S
C78 H82 0.930 . S
N79 C76 1.377 . S
N79 C78 1.344 . S
O80 Co72 2.055 . S
O80 C84 1.253 . S
H81 C77 0.931 . S
H82 C78 0.930 . S
O83 Co72 2.039 . S
O83 C73 1.265 . S
C84 O80 1.253 . S
C84 O85 1.227 . S
O85 C84 1.227 . S
N86 Co72 2.140 . S
N86 C89 1.346 . S
N86 C90 1.345 . S
C87 C88 1.387 1_655 S
C87 C91 1.391 . S
C88 C87 1.387 1_455 S
C88 C89 1.369 1_455 S
C88 H97 0.929 . S
C89 N86 1.346 . S
C89 C88 1.369 1_655 S
C89 H92 0.928 1_655 S
C90 N86 1.345 . S
C90 C91 1.371 . S
C90 H93 0.931 . S
C91 C87 1.391 . S
C91 C90 1.371 . S
C91 H98 0.930 . S
H92 C89 0.928 1_455 S
H93 C90 0.931 . S
H94 C70 0.930 . S
H95 C67 0.930 . S
H96 C76 0.930 . S
H97 C88 0.929 . S
H98 C91 0.930 . S
C99 C100 1.351 . S
C99 N102 1.368 . S
C99 H104 0.931 . S
C100 C99 1.351 . S
C100 N101 1.373 . S
C100 H128 0.930 . S
N101 C100 1.373 . S
N101 C103 1.340 . S
N102 C99 1.368 . S
N102 C103 1.321 . S
N102 Co105 2.135 . S
C103 N101 1.340 . S
C103 N102 1.321 . S
C103 H127 0.930 . S
H104 C99 0.931 . S
Co105 N102 2.135 . S
Co105 N108 2.121 . S
Co105 O113 2.055 . S
Co105 O116 2.039 . S
Co105 N119 2.140 . S
C106 O107 1.227 . S
C106 O116 1.265 . S
O107 C106 1.227 . S
N108 Co105 2.121 . S
N108 C110 1.375 . S
N108 C111 1.313 . S
C109 C110 1.338 . S
C109 N112 1.377 . S
C109 H129 0.930 . S
C110 N108 1.375 . S
C110 C109 1.338 . S
C110 H114 0.931 . S
C111 N108 1.313 . S
C111 N112 1.344 . S
C111 H115 0.930 . S
N112 C109 1.377 . S
N112 C111 1.344 . S
O113 Co105 2.055 . S
O113 C117 1.253 . S
H114 C110 0.931 . S
H115 C111 0.930 . S
O116 Co105 2.039 . S
O116 C106 1.265 . S
C117 O113 1.253 . S
C117 O118 1.227 . S
O118 C117 1.227 . S
N119 Co105 2.140 . S
N119 C122 1.346 . S
N119 C123 1.345 . S
C120 C121 1.387 . S
C120 C124 1.391 . S
C121 C120 1.387 . S
C121 C122 1.369 . S
C121 H130 0.929 . S
C122 N119 1.346 . S
C122 C121 1.369 . S
C122 H125 0.928 . S
C123 N119 1.345 . S
C123 C124 1.371 . S
C123 H126 0.931 . S
C124 C120 1.391 . S
C124 C123 1.371 . S
C124 H131 0.930 . S
H125 C122 0.928 . S
H126 C123 0.931 . S
H127 C103 0.930 . S
H128 C100 0.930 . S
H129 C109 0.930 . S
H130 C121 0.929 . S
H131 C124 0.930 . S
C132 C133 1.351 1_565 S
C132 N135 1.368 . S
C132 H137 0.931 . S
C133 C132 1.351 1_545 S
C133 N134 1.373 . S
C133 H161 0.930 . S
N134 C133 1.373 . S
N134 C136 1.340 . S
N135 C132 1.368 . S
N135 C136 1.321 1_565 S
N135 Co138 2.135 . S
C136 N134 1.340 . S
C136 N135 1.321 1_545 S
C136 H160 0.930 . S
H137 C132 0.931 . S
Co138 N135 2.135 . S
Co138 N141 2.121 . S
Co138 O146 2.055 . S
Co138 O149 2.039 . S
Co138 N152 2.140 . S
C139 O140 1.227 . S
C139 O149 1.265 . S
O140 C139 1.227 . S
N141 Co138 2.121 . S
N141 C143 1.375 . S
N141 C144 1.313 . S
C142 C143 1.338 . S
C142 N145 1.377 . S
C142 H162 0.930 . S
C143 N141 1.375 . S
C143 C142 1.338 . S
C143 H147 0.931 . S
C144 N141 1.313 . S
C144 N145 1.344 . S
C144 H148 0.930 . S
N145 C142 1.377 . S
N145 C144 1.344 . S
O146 Co138 2.055 . S
O146 C150 1.253 . S
H147 C143 0.931 . S
H148 C144 0.930 . S
O149 Co138 2.039 . S
O149 C139 1.265 . S
C150 O146 1.253 . S
C150 O151 1.227 . S
O151 C150 1.227 . S
N152 Co138 2.140 . S
N152 C155 1.346 . S
N152 C156 1.345 . S
C153 C154 1.387 1_565 S
C153 C157 1.391 . S
C154 C153 1.387 1_545 S
C154 C155 1.369 1_545 S
C154 H163 0.929 . S
C155 N152 1.346 . S
C155 C154 1.369 1_565 S
C155 H158 0.928 1_565 S
C156 N152 1.345 . S
C156 C157 1.371 . S
C156 H159 0.931 . S
C157 C153 1.391 . S
C157 C156 1.371 . S
C157 H164 0.930 . S
H158 C155 0.928 1_545 S
H159 C156 0.931 . S
H160 C136 0.930 . S
H161 C133 0.930 . S
H162 C142 0.930 . S
H163 C154 0.929 . S
H164 C157 0.930 . S
C165 C166 1.351 1_455 S
C165 N168 1.368 . S
C165 H170 0.931 . S
C166 C165 1.351 1_655 S
C166 N167 1.373 . S
C166 H194 0.930 . S
N167 C166 1.373 . S
N167 C169 1.340 . S
N168 C165 1.368 . S
N168 C169 1.321 1_455 S
N168 Co171 2.135 . S
C169 N167 1.340 . S
C169 N168 1.321 1_655 S
C169 H193 0.930 . S
H170 C165 0.931 . S
Co171 N168 2.135 . S
Co171 N174 2.121 . S
Co171 O179 2.055 . S
Co171 O182 2.039 . S
Co171 N185 2.140 . S
C172 O173 1.227 . S
C172 O182 1.265 . S
O173 C172 1.227 . S
N174 Co171 2.121 . S
N174 C176 1.375 . S
N174 C177 1.313 . S
C175 C176 1.338 . S
C175 N178 1.377 . S
C175 H195 0.930 . S
C176 N174 1.375 . S
C176 C175 1.338 . S
C176 H180 0.931 . S
C177 N174 1.313 . S
C177 N178 1.344 . S
C177 H181 0.930 . S
N178 C175 1.377 . S
N178 C177 1.344 . S
O179 Co171 2.055 . S
O179 C183 1.253 . S
H180 C176 0.931 . S
H181 C177 0.930 . S
O182 Co171 2.039 . S
O182 C172 1.265 . S
C183 O179 1.253 . S
C183 O184 1.227 . S
O184 C183 1.227 . S
N185 Co171 2.140 . S
N185 C188 1.346 . S
N185 C189 1.345 . S
C186 C187 1.387 1_455 S
C186 C190 1.391 . S
C187 C186 1.387 1_655 S
C187 C188 1.369 1_655 S
C187 H196 0.929 . S
C188 N185 1.346 . S
C188 C187 1.369 1_455 S
C188 H191 0.928 1_455 S
C189 N185 1.345 . S
C189 C190 1.371 . S
C189 H192 0.931 . S
C190 C186 1.391 . S
C190 C189 1.371 . S
C190 H197 0.930 . S
H191 C188 0.928 1_655 S
H192 C189 0.931 . S
H193 C169 0.930 . S
H194 C166 0.930 . S
H195 C175 0.930 . S
H196 C187 0.929 . S
H197 C190 0.930 . S
C198 C199 1.351 . S
C198 N201 1.368 . S
C198 H203 0.931 . S
C199 C198 1.351 . S
C199 N200 1.373 . S
C199 H227 0.930 . S
N200 C199 1.373 . S
N200 C202 1.340 . S
N201 C198 1.368 . S
N201 C202 1.321 . S
N201 Co204 2.135 . S
C202 N200 1.340 . S
C202 N201 1.321 . S
C202 H226 0.930 . S
H203 C198 0.931 . S
Co204 N201 2.135 . S
Co204 N207 2.121 . S
Co204 O212 2.055 . S
Co204 O215 2.039 . S
Co204 N218 2.140 . S
C205 O206 1.227 . S
C205 O215 1.265 . S
O206 C205 1.227 . S
N207 Co204 2.121 . S
N207 C209 1.375 . S
N207 C210 1.313 . S
C208 C209 1.338 . S
C208 N211 1.377 . S
C208 H228 0.930 . S
C209 N207 1.375 . S
C209 C208 1.338 . S
C209 H213 0.931 . S
C210 N207 1.313 . S
C210 N211 1.344 . S
C210 H214 0.930 . S
N211 C208 1.377 . S
N211 C210 1.344 . S
O212 Co204 2.055 . S
O212 C216 1.253 . S
H213 C209 0.931 . S
H214 C210 0.930 . S
O215 Co204 2.039 . S
O215 C205 1.265 . S
C216 O212 1.253 . S
C216 O217 1.227 . S
O217 C216 1.227 . S
N218 Co204 2.140 . S
N218 C221 1.346 . S
N218 C222 1.345 . S
C219 C220 1.387 . S
C219 C223 1.391 . S
C220 C219 1.387 . S
C220 C221 1.369 . S
C220 H229 0.929 . S
C221 N218 1.346 . S
C221 C220 1.369 . S
C221 H224 0.928 . S
C222 N218 1.345 . S
C222 C223 1.371 . S
C222 H225 0.931 . S
C223 C219 1.391 . S
C223 C222 1.371 . S
C223 H230 0.930 . S
H224 C221 0.928 . S
H225 C222 0.931 . S
H226 C202 0.930 . S
H227 C199 0.930 . S
H228 C208 0.930 . S
H229 C220 0.929 . S
H230 C223 0.930 . S
C231 C232 1.351 1_565 S
C231 N234 1.368 . S
C231 H236 0.931 . S
C232 C231 1.351 1_545 S
C232 N233 1.373 . S
C232 H260 0.930 . S
N233 C232 1.373 . S
N233 C235 1.340 . S
N234 C231 1.368 . S
N234 C235 1.321 1_565 S
N234 Co237 2.135 . S
C235 N233 1.340 . S
C235 N234 1.321 1_545 S
C235 H259 0.930 . S
H236 C231 0.931 . S
Co237 N234 2.135 . S
Co237 N240 2.121 . S
Co237 O245 2.055 . S
Co237 O248 2.039 . S
Co237 N251 2.140 . S
C238 O239 1.227 . S
C238 O248 1.265 . S
O239 C238 1.227 . S
N240 Co237 2.121 . S
N240 C242 1.375 . S
N240 C243 1.313 . S
C241 C242 1.338 . S
C241 N244 1.377 . S
C241 H261 0.930 . S
C242 N240 1.375 . S
C242 C241 1.338 . S
C242 H246 0.931 . S
C243 N240 1.313 . S
C243 N244 1.344 . S
C243 H247 0.930 . S
N244 C241 1.377 . S
N244 C243 1.344 . S
O245 Co237 2.055 . S
O245 C249 1.253 . S
H246 C242 0.931 . S
H247 C243 0.930 . S
O248 Co237 2.039 . S
O248 C238 1.265 . S
C249 O245 1.253 . S
C249 O250 1.227 . S
O250 C249 1.227 . S
N251 Co237 2.140 . S
N251 C254 1.346 . S
N251 C255 1.345 . S
C252 C253 1.387 1_565 S
C252 C256 1.391 . S
C253 C252 1.387 1_545 S
C253 C254 1.369 1_545 S
C253 H262 0.929 . S
C254 N251 1.346 . S
C254 C253 1.369 1_565 S
C254 H257 0.928 1_565 S
C255 N251 1.345 . S
C255 C256 1.371 . S
C255 H258 0.931 . S
C256 C252 1.391 . S
C256 C255 1.371 . S
C256 H263 0.930 . S
H257 C254 0.928 1_545 S
H258 C255 0.931 . S
H259 C235 0.930 . S
H260 C232 0.930 . S
H261 C241 0.930 . S
H262 C253 0.929 . S
H263 C256 0.930 . S
C264 C265 1.351 1_455 S
C264 N267 1.368 . S
C264 H269 0.931 . S
C265 C264 1.351 1_655 S
C265 N266 1.373 . S
C265 H293 0.930 . S
N266 C265 1.373 . S
N266 C268 1.340 . S
N267 C264 1.368 . S
N267 C268 1.321 1_455 S
N267 Co270 2.135 . S
C268 N266 1.340 . S
C268 N267 1.321 1_655 S
C268 H292 0.930 . S
H269 C264 0.931 . S
Co270 N267 2.135 . S
Co270 N273 2.121 . S
Co270 O278 2.055 . S
Co270 O281 2.039 . S
Co270 N284 2.140 . S
C271 O272 1.227 . S
C271 O281 1.265 . S
O272 C271 1.227 . S
N273 Co270 2.121 . S
N273 C275 1.375 . S
N273 C276 1.313 . S
C274 C275 1.338 . S
C274 N277 1.377 . S
C274 H294 0.930 . S
C275 N273 1.375 . S
C275 C274 1.338 . S
C275 H279 0.931 . S
C276 N273 1.313 . S
C276 N277 1.344 . S
C276 H280 0.930 . S
N277 C274 1.377 . S
N277 C276 1.344 . S
O278 Co270 2.055 . S
O278 C282 1.253 . S
H279 C275 0.931 . S
H280 C276 0.930 . S
O281 Co270 2.039 . S
O281 C271 1.265 . S
C282 O278 1.253 . S
C282 O283 1.227 . S
O283 C282 1.227 . S
N284 Co270 2.140 . S
N284 C287 1.346 . S
N284 C288 1.345 . S
C285 C286 1.387 1_455 S
C285 C289 1.391 . S
C286 C285 1.387 1_655 S
C286 C287 1.369 1_655 S
C286 H295 0.929 . S
C287 N284 1.346 . S
C287 C286 1.369 1_455 S
C287 H290 0.928 1_455 S
C288 N284 1.345 . S
C288 C289 1.371 . S
C288 H291 0.931 . S
C289 C285 1.391 . S
C289 C288 1.371 . S
C289 H296 0.930 . S
H290 C287 0.928 1_655 S
H291 C288 0.931 . S
H292 C268 0.930 . S
H293 C265 0.930 . S
H294 C274 0.930 . S
H295 C286 0.929 . S
H296 C289 0.930 . S
C297 C298 1.351 . S
C297 N300 1.368 . S
C297 H302 0.931 . S
C298 C297 1.351 . S
C298 N299 1.373 . S
C298 H326 0.930 . S
N299 C298 1.373 . S
N299 C301 1.340 . S
N300 C297 1.368 . S
N300 C301 1.321 . S
N300 Co303 2.135 . S
C301 N299 1.340 . S
C301 N300 1.321 . S
C301 H325 0.930 . S
H302 C297 0.931 . S
Co303 N300 2.135 . S
Co303 N306 2.121 . S
Co303 O311 2.055 . S
Co303 O314 2.039 . S
Co303 N317 2.140 . S
C304 O305 1.227 . S
C304 O314 1.265 . S
O305 C304 1.227 . S
N306 Co303 2.121 . S
N306 C308 1.375 . S
N306 C309 1.313 . S
C307 C308 1.338 . S
C307 N310 1.377 . S
C307 H327 0.930 . S
C308 N306 1.375 . S
C308 C307 1.338 . S
C308 H312 0.931 . S
C309 N306 1.313 . S
C309 N310 1.344 . S
C309 H313 0.930 . S
N310 C307 1.377 . S
N310 C309 1.344 . S
O311 Co303 2.055 . S
O311 C315 1.253 . S
H312 C308 0.931 . S
H313 C309 0.930 . S
O314 Co303 2.039 . S
O314 C304 1.265 . S
C315 O311 1.253 . S
C315 O316 1.227 . S
O316 C315 1.227 . S
N317 Co303 2.140 . S
N317 C320 1.346 . S
N317 C321 1.345 . S
C318 C319 1.387 . S
C318 C322 1.391 . S
C319 C318 1.387 . S
C319 C320 1.369 . S
C319 H328 0.929 . S
C320 N317 1.346 . S
C320 C319 1.369 . S
C320 H323 0.928 . S
C321 N317 1.345 . S
C321 C322 1.371 . S
C321 H324 0.931 . S
C322 C318 1.391 . S
C322 C321 1.371 . S
C322 H329 0.930 . S
H323 C320 0.928 . S
H324 C321 0.931 . S
H325 C301 0.930 . S
H326 C298 0.930 . S
H327 C307 0.930 . S
H328 C319 0.929 . S
H329 C322 0.930 . S
C330 C331 1.351 1_545 S
C330 N333 1.368 . S
C330 H335 0.931 . S
C331 C330 1.351 1_565 S
C331 N332 1.373 . S
C331 H359 0.930 . S
N332 C331 1.373 . S
N332 C334 1.340 . S
N333 C330 1.368 . S
N333 C334 1.321 1_545 S
N333 Co336 2.135 . S
C334 N332 1.340 . S
C334 N333 1.321 1_565 S
C334 H358 0.930 . S
H335 C330 0.931 . S
Co336 N333 2.135 . S
Co336 N339 2.121 . S
Co336 O344 2.055 . S
Co336 O347 2.039 . S
Co336 N350 2.140 . S
C337 O338 1.227 . S
C337 O347 1.265 . S
O338 C337 1.227 . S
N339 Co336 2.121 . S
N339 C341 1.375 . S
N339 C342 1.313 . S
C340 C341 1.338 . S
C340 N343 1.377 . S
C340 H360 0.930 . S
C341 N339 1.375 . S
C341 C340 1.338 . S
C341 H345 0.931 . S
C342 N339 1.313 . S
C342 N343 1.344 . S
C342 H346 0.930 . S
N343 C340 1.377 . S
N343 C342 1.344 . S
O344 Co336 2.055 . S
O344 C348 1.253 . S
H345 C341 0.931 . S
H346 C342 0.930 . S
O347 Co336 2.039 . S
O347 C337 1.265 . S
C348 O344 1.253 . S
C348 O349 1.227 . S
O349 C348 1.227 . S
N350 Co336 2.140 . S
N350 C353 1.346 . S
N350 C354 1.345 . S
C351 C352 1.387 1_545 S
C351 C355 1.391 . S
C352 C351 1.387 1_565 S
C352 C353 1.369 1_565 S
C352 H361 0.929 . S
C353 N350 1.346 . S
C353 C352 1.369 1_545 S
C353 H356 0.928 1_545 S
C354 N350 1.345 . S
C354 C355 1.371 . S
C354 H357 0.931 . S
C355 C351 1.391 . S
C355 C354 1.371 . S
C355 H362 0.930 . S
H356 C353 0.928 1_565 S
H357 C354 0.931 . S
H358 C334 0.930 . S
H359 C331 0.930 . S
H360 C340 0.930 . S
H361 C352 0.929 . S
H362 C355 0.930 . S
C363 C364 1.351 1_655 S
C363 N366 1.368 . S
C363 H368 0.931 . S
C364 C363 1.351 1_455 S
C364 N365 1.373 . S
C364 H392 0.930 . S
N365 C364 1.373 . S
N365 C367 1.340 . S
N366 C363 1.368 . S
N366 C367 1.321 1_655 S
N366 Co369 2.135 . S
C367 N365 1.340 . S
C367 N366 1.321 1_455 S
C367 H391 0.930 . S
H368 C363 0.931 . S
Co369 N366 2.135 . S
Co369 N372 2.121 . S
Co369 O377 2.055 . S
Co369 O380 2.039 . S
Co369 N383 2.140 . S
C370 O371 1.227 . S
C370 O380 1.265 . S
O371 C370 1.227 . S
N372 Co369 2.121 . S
N372 C374 1.375 . S
N372 C375 1.313 . S
C373 C374 1.338 . S
C373 N376 1.377 . S
C373 H393 0.930 . S
C374 N372 1.375 . S
C374 C373 1.338 . S
C374 H378 0.931 . S
C375 N372 1.313 . S
C375 N376 1.344 . S
C375 H379 0.930 . S
N376 C373 1.377 . S
N376 C375 1.344 . S
O377 Co369 2.055 . S
O377 C381 1.253 . S
H378 C374 0.931 . S
H379 C375 0.930 . S
O380 Co369 2.039 . S
O380 C370 1.265 . S
C381 O377 1.253 . S
C381 O382 1.227 . S
O382 C381 1.227 . S
N383 Co369 2.140 . S
N383 C386 1.346 . S
N383 C387 1.345 . S
C384 C385 1.387 1_655 S
C384 C388 1.391 . S
C385 C384 1.387 1_455 S
C385 C386 1.369 1_455 S
C385 H394 0.929 . S
C386 N383 1.346 . S
C386 C385 1.369 1_655 S
C386 H389 0.928 1_655 S
C387 N383 1.345 . S
C387 C388 1.371 . S
C387 H390 0.931 . S
C388 C384 1.391 . S
C388 C387 1.371 . S
C388 H395 0.930 . S
H389 C386 0.928 1_455 S
H390 C387 0.931 . S
H391 C367 0.930 . S
H392 C364 0.930 . S
H393 C373 0.930 . S
H394 C385 0.929 . S
H395 C388 0.930 . S
C396 C397 1.351 . S
C396 N399 1.368 . S
C396 H401 0.931 . S
C397 C396 1.351 . S
C397 N398 1.373 . S
C397 H425 0.930 . S
N398 C397 1.373 . S
N398 C400 1.340 . S
N399 C396 1.368 . S
N399 C400 1.321 . S
N399 Co402 2.135 . S
C400 N398 1.340 . S
C400 N399 1.321 . S
C400 H424 0.930 . S
H401 C396 0.931 . S
Co402 N399 2.135 . S
Co402 N405 2.121 . S
Co402 O410 2.055 . S
Co402 O413 2.039 . S
Co402 N416 2.140 . S
C403 O404 1.227 . S
C403 O413 1.265 . S
O404 C403 1.227 . S
N405 Co402 2.121 . S
N405 C407 1.375 . S
N405 C408 1.313 . S
C406 C407 1.338 . S
C406 N409 1.377 . S
C406 H426 0.930 . S
C407 N405 1.375 . S
C407 C406 1.338 . S
C407 H411 0.931 . S
C408 N405 1.313 . S
C408 N409 1.344 . S
C408 H412 0.930 . S
N409 C406 1.377 . S
N409 C408 1.344 . S
O410 Co402 2.055 . S
O410 C414 1.253 . S
H411 C407 0.931 . S
H412 C408 0.930 . S
O413 Co402 2.039 . S
O413 C403 1.265 . S
C414 O410 1.253 . S
C414 O415 1.227 . S
O415 C414 1.227 . S
N416 Co402 2.140 . S
N416 C419 1.346 . S
N416 C420 1.345 . S
C417 C418 1.387 . S
C417 C421 1.391 . S
C418 C417 1.387 . S
C418 C419 1.369 . S
C418 H427 0.929 . S
C419 N416 1.346 . S
C419 C418 1.369 . S
C419 H422 0.928 . S
C420 N416 1.345 . S
C420 C421 1.371 . S
C420 H423 0.931 . S
C421 C417 1.391 . S
C421 C420 1.371 . S
C421 H428 0.930 . S
H422 C419 0.928 . S
H423 C420 0.931 . S
H424 C400 0.930 . S
H425 C397 0.930 . S
H426 C406 0.930 . S
H427 C418 0.929 . S
H428 C421 0.930 . S
C429 C430 1.351 . S
C429 N432 1.368 . S
C429 H434 0.931 . S
C430 C429 1.351 . S
C430 N431 1.373 . S
C430 H458 0.930 . S
N431 C430 1.373 . S
N431 C433 1.340 . S
N432 C429 1.368 . S
N432 C433 1.321 . S
N432 Co435 2.135 . S
C433 N431 1.340 . S
C433 N432 1.321 . S
C433 H457 0.930 . S
H434 C429 0.931 . S
Co435 N432 2.135 . S
Co435 N438 2.121 . S
Co435 O443 2.055 . S
Co435 O446 2.039 . S
Co435 N449 2.140 . S
C436 O437 1.227 . S
C436 O446 1.265 . S
O437 C436 1.227 . S
N438 Co435 2.121 . S
N438 C440 1.375 . S
N438 C441 1.313 . S
C439 C440 1.338 . S
C439 N442 1.377 . S
C439 H459 0.930 . S
C440 N438 1.375 . S
C440 C439 1.338 . S
C440 H444 0.931 . S
C441 N438 1.313 . S
C441 N442 1.344 . S
C441 H445 0.930 . S
N442 C439 1.377 . S
N442 C441 1.344 . S
O443 Co435 2.055 . S
O443 C447 1.253 . S
H444 C440 0.931 . S
H445 C441 0.930 . S
O446 Co435 2.039 . S
O446 C436 1.265 . S
C447 O443 1.253 . S
C447 O448 1.227 . S
O448 C447 1.227 . S
N449 Co435 2.140 . S
N449 C452 1.346 . S
N449 C453 1.345 . S
C450 C451 1.387 . S
C450 C454 1.391 . S
C451 C450 1.387 . S
C451 C452 1.369 . S
C451 H460 0.929 . S
C452 N449 1.346 . S
C452 C451 1.369 . S
C452 H455 0.928 . S
C453 N449 1.345 . S
C453 C454 1.371 . S
C453 H456 0.931 . S
C454 C450 1.391 . S
C454 C453 1.371 . S
C454 H461 0.930 . S
H455 C452 0.928 . S
H456 C453 0.931 . S
H457 C433 0.930 . S
H458 C430 0.930 . S
H459 C439 0.930 . S
H460 C451 0.929 . S
H461 C454 0.930 . S
C462 C463 1.351 . S
C462 N465 1.368 . S
C462 H467 0.931 . S
C463 C462 1.351 . S
C463 N464 1.373 . S
C463 H491 0.930 . S
N464 C463 1.373 . S
N464 C466 1.340 . S
N465 C462 1.368 . S
N465 C466 1.321 . S
N465 Co468 2.135 . S
C466 N464 1.340 . S
C466 N465 1.321 . S
C466 H490 0.930 . S
H467 C462 0.931 . S
Co468 N465 2.135 . S
Co468 N471 2.121 . S
Co468 O476 2.055 . S
Co468 O479 2.039 . S
Co468 N482 2.140 . S
C469 O470 1.227 . S
C469 O479 1.265 . S
O470 C469 1.227 . S
N471 Co468 2.121 . S
N471 C473 1.375 . S
N471 C474 1.313 . S
C472 C473 1.338 . S
C472 N475 1.377 . S
C472 H492 0.930 . S
C473 N471 1.375 . S
C473 C472 1.338 . S
C473 H477 0.931 . S
C474 N471 1.313 . S
C474 N475 1.344 . S
C474 H478 0.930 . S
N475 C472 1.377 . S
N475 C474 1.344 . S
O476 Co468 2.055 . S
O476 C480 1.253 . S
H477 C473 0.931 . S
H478 C474 0.930 . S
O479 Co468 2.039 . S
O479 C469 1.265 . S
C480 O476 1.253 . S
C480 O481 1.227 . S
O481 C480 1.227 . S
N482 Co468 2.140 . S
N482 C485 1.346 . S
N482 C486 1.345 . S
C483 C484 1.387 . S
C483 C487 1.391 . S
C484 C483 1.387 . S
C484 C485 1.369 . S
C484 H493 0.929 . S
C485 N482 1.346 . S
C485 C484 1.369 . S
C485 H488 0.928 . S
C486 N482 1.345 . S
C486 C487 1.371 . S
C486 H489 0.931 . S
C487 C483 1.391 . S
C487 C486 1.371 . S
C487 H494 0.930 . S
H488 C485 0.928 . S
H489 C486 0.931 . S
H490 C466 0.930 . S
H491 C463 0.930 . S
H492 C472 0.930 . S
H493 C484 0.929 . S
H494 C487 0.930 . S
C495 C496 1.351 . S
C495 N498 1.368 . S
C495 H500 0.931 . S
C496 C495 1.351 . S
C496 N497 1.373 . S
C496 H524 0.930 . S
N497 C496 1.373 . S
N497 C499 1.340 . S
N498 C495 1.368 . S
N498 C499 1.321 . S
N498 Co501 2.135 . S
C499 N497 1.340 . S
C499 N498 1.321 . S
C499 H523 0.930 . S
H500 C495 0.931 . S
Co501 N498 2.135 . S
Co501 N504 2.121 . S
Co501 O509 2.055 . S
Co501 O512 2.039 . S
Co501 N515 2.140 . S
C502 O503 1.227 . S
C502 O512 1.265 . S
O503 C502 1.227 . S
N504 Co501 2.121 . S
N504 C506 1.375 . S
N504 C507 1.313 . S
C505 C506 1.338 . S
C505 N508 1.377 . S
C505 H525 0.930 . S
C506 N504 1.375 . S
C506 C505 1.338 . S
C506 H510 0.931 . S
C507 N504 1.313 . S
C507 N508 1.344 . S
C507 H511 0.930 . S
N508 C505 1.377 . S
N508 C507 1.344 . S
O509 Co501 2.055 . S
O509 C513 1.253 . S
H510 C506 0.931 . S
H511 C507 0.930 . S
O512 Co501 2.039 . S
O512 C502 1.265 . S
C513 O509 1.253 . S
C513 O514 1.227 . S
O514 C513 1.227 . S
N515 Co501 2.140 . S
N515 C518 1.346 . S
N515 C519 1.345 . S
C516 C517 1.387 . S
C516 C520 1.391 . S
C517 C516 1.387 . S
C517 C518 1.369 . S
C517 H526 0.929 . S
C518 N515 1.346 . S
C518 C517 1.369 . S
C518 H521 0.928 . S
C519 N515 1.345 . S
C519 C520 1.371 . S
C519 H522 0.931 . S
C520 C516 1.391 . S
C520 C519 1.371 . S
C520 H527 0.930 . S
H521 C518 0.928 . S
H522 C519 0.931 . S
H523 C499 0.930 . S
H524 C496 0.930 . S
H525 C505 0.930 . S
H526 C517 0.929 . S
H527 C520 0.930 . S
C528 C529 1.351 . S
C528 N531 1.368 . S
C528 H533 0.931 . S
C529 C528 1.351 . S
C529 N530 1.373 . S
C529 H557 0.930 . S
N530 C529 1.373 . S
N530 C532 1.340 . S
N531 C528 1.368 . S
N531 C532 1.321 . S
N531 Co534 2.135 . S
C532 N530 1.340 . S
C532 N531 1.321 . S
C532 H556 0.930 . S
H533 C528 0.931 . S
Co534 N531 2.135 . S
Co534 N537 2.121 . S
Co534 O542 2.055 . S
Co534 O545 2.039 . S
Co534 N548 2.140 . S
C535 O536 1.227 . S
C535 O545 1.265 . S
O536 C535 1.227 . S
N537 Co534 2.121 . S
N537 C539 1.375 . S
N537 C540 1.313 . S
C538 C539 1.338 . S
C538 N541 1.377 . S
C538 H558 0.930 . S
C539 N537 1.375 . S
C539 C538 1.338 . S
C539 H543 0.931 . S
C540 N537 1.313 . S
C540 N541 1.344 . S
C540 H544 0.930 . S
N541 C538 1.377 . S
N541 C540 1.344 . S
O542 Co534 2.055 . S
O542 C546 1.253 . S
H543 C539 0.931 . S
H544 C540 0.930 . S
O545 Co534 2.039 . S
O545 C535 1.265 . S
C546 O542 1.253 . S
C546 O547 1.227 . S
O547 C546 1.227 . S
N548 Co534 2.140 . S
N548 C551 1.346 . S
N548 C552 1.345 . S
C549 C550 1.387 . S
C549 C553 1.391 . S
C550 C549 1.387 . S
C550 C551 1.369 . S
C550 H559 0.929 . S
C551 N548 1.346 . S
C551 C550 1.369 . S
C551 H554 0.928 . S
C552 N548 1.345 . S
C552 C553 1.371 . S
C552 H555 0.931 . S
C553 C549 1.391 . S
C553 C552 1.371 . S
C553 H560 0.930 . S
H554 C551 0.928 . S
H555 C552 0.931 . S
H556 C532 0.930 . S
H557 C529 0.930 . S
H558 C538 0.930 . S
H559 C550 0.929 . S
H560 C553 0.930 . S
C561 C562 1.351 . S
C561 N564 1.368 . S
C561 H566 0.931 . S
C562 C561 1.351 . S
C562 N563 1.373 . S
C562 H590 0.930 . S
N563 C562 1.373 . S
N563 C565 1.340 . S
N564 C561 1.368 . S
N564 C565 1.321 . S
N564 Co567 2.135 . S
C565 N563 1.340 . S
C565 N564 1.321 . S
C565 H589 0.930 . S
H566 C561 0.931 . S
Co567 N564 2.135 . S
Co567 N570 2.121 . S
Co567 O575 2.055 . S
Co567 O578 2.039 . S
Co567 N581 2.140 . S
C568 O569 1.227 . S
C568 O578 1.265 . S
O569 C568 1.227 . S
N570 Co567 2.121 . S
N570 C572 1.375 . S
N570 C573 1.313 . S
C571 C572 1.338 . S
C571 N574 1.377 . S
C571 H591 0.930 . S
C572 N570 1.375 . S
C572 C571 1.338 . S
C572 H576 0.931 . S
C573 N570 1.313 . S
C573 N574 1.344 . S
C573 H577 0.930 . S
N574 C571 1.377 . S
N574 C573 1.344 . S
O575 Co567 2.055 . S
O575 C579 1.253 . S
H576 C572 0.931 . S
H577 C573 0.930 . S
O578 Co567 2.039 . S
O578 C568 1.265 . S
C579 O575 1.253 . S
C579 O580 1.227 . S
O580 C579 1.227 . S
N581 Co567 2.140 . S
N581 C584 1.346 . S
N581 C585 1.345 . S
C582 C583 1.387 . S
C582 C586 1.391 . S
C583 C582 1.387 . S
C583 C584 1.369 . S
C583 H592 0.929 . S
C584 N581 1.346 . S
C584 C583 1.369 . S
C584 H587 0.928 . S
C585 N581 1.345 . S
C585 C586 1.371 . S
C585 H588 0.931 . S
C586 C582 1.391 . S
C586 C585 1.371 . S
C586 H593 0.930 . S
H587 C584 0.928 . S
H588 C585 0.931 . S
H589 C565 0.930 . S
H590 C562 0.930 . S
H591 C571 0.930 . S
H592 C583 0.929 . S
H593 C586 0.930 . S
C594 C595 1.351 . S
C594 N597 1.368 . S
C594 H599 0.931 . S
C595 C594 1.351 . S
C595 N596 1.373 . S
C595 H623 0.930 . S
N596 C595 1.373 . S
N596 C598 1.340 . S
N597 C594 1.368 . S
N597 C598 1.321 . S
N597 Co600 2.135 . S
C598 N596 1.340 . S
C598 N597 1.321 . S
C598 H622 0.930 . S
H599 C594 0.931 . S
Co600 N597 2.135 . S
Co600 N603 2.121 . S
Co600 O608 2.055 . S
Co600 O611 2.039 . S
Co600 N614 2.140 . S
C601 O602 1.227 . S
C601 O611 1.265 . S
O602 C601 1.227 . S
N603 Co600 2.121 . S
N603 C605 1.375 . S
N603 C606 1.313 . S
C604 C605 1.338 . S
C604 N607 1.377 . S
C604 H624 0.930 . S
C605 N603 1.375 . S
C605 C604 1.338 . S
C605 H609 0.931 . S
C606 N603 1.313 . S
C606 N607 1.344 . S
C606 H610 0.930 . S
N607 C604 1.377 . S
N607 C606 1.344 . S
O608 Co600 2.055 . S
O608 C612 1.253 . S
H609 C605 0.931 . S
H610 C606 0.930 . S
O611 Co600 2.039 . S
O611 C601 1.265 . S
C612 O608 1.253 . S
C612 O613 1.227 . S
O613 C612 1.227 . S
N614 Co600 2.140 . S
N614 C617 1.346 . S
N614 C618 1.345 . S
C615 C616 1.387 . S
C615 C619 1.391 . S
C616 C615 1.387 . S
C616 C617 1.369 . S
C616 H625 0.929 . S
C617 N614 1.346 . S
C617 C616 1.369 . S
C617 H620 0.928 . S
C618 N614 1.345 . S
C618 C619 1.371 . S
C618 H621 0.931 . S
C619 C615 1.391 . S
C619 C618 1.371 . S
C619 H626 0.930 . S
H620 C617 0.928 . S
H621 C618 0.931 . S
H622 C598 0.930 . S
H623 C595 0.930 . S
H624 C604 0.930 . S
H625 C616 0.929 . S
H626 C619 0.930 . S
C627 C628 1.351 . S
C627 N630 1.368 . S
C627 H632 0.931 . S
C628 C627 1.351 . S
C628 N629 1.373 . S
C628 H656 0.930 . S
N629 C628 1.373 . S
N629 C631 1.340 . S
N630 C627 1.368 . S
N630 C631 1.321 . S
N630 Co633 2.135 . S
C631 N629 1.340 . S
C631 N630 1.321 . S
C631 H655 0.930 . S
H632 C627 0.931 . S
Co633 N630 2.135 . S
Co633 N636 2.121 . S
Co633 O641 2.055 . S
Co633 O644 2.039 . S
Co633 N647 2.140 . S
C634 O635 1.227 . S
C634 O644 1.265 . S
O635 C634 1.227 . S
N636 Co633 2.121 . S
N636 C638 1.375 . S
N636 C639 1.313 . S
C637 C638 1.338 . S
C637 N640 1.377 . S
C637 H657 0.930 . S
C638 N636 1.375 . S
C638 C637 1.338 . S
C638 H642 0.931 . S
C639 N636 1.313 . S
C639 N640 1.344 . S
C639 H643 0.930 . S
N640 C637 1.377 . S
N640 C639 1.344 . S
O641 Co633 2.055 . S
O641 C645 1.253 . S
H642 C638 0.931 . S
H643 C639 0.930 . S
O644 Co633 2.039 . S
O644 C634 1.265 . S
C645 O641 1.253 . S
C645 O646 1.227 . S
O646 C645 1.227 . S
N647 Co633 2.140 . S
N647 C650 1.346 . S
N647 C651 1.345 . S
C648 C649 1.387 . S
C648 C652 1.391 . S
C649 C648 1.387 . S
C649 C650 1.369 . S
C649 H658 0.929 . S
C650 N647 1.346 . S
C650 C649 1.369 . S
C650 H653 0.928 . S
C651 N647 1.345 . S
C651 C652 1.371 . S
C651 H654 0.931 . S
C652 C648 1.391 . S
C652 C651 1.371 . S
C652 H659 0.930 . S
H653 C650 0.928 . S
H654 C651 0.931 . S
H655 C631 0.930 . S
H656 C628 0.930 . S
H657 C637 0.930 . S
H658 C649 0.929 . S
H659 C652 0.930 . S
C660 C661 1.351 . S
C660 N663 1.368 . S
C660 H665 0.931 . S
C661 C660 1.351 . S
C661 N662 1.373 . S
C661 H689 0.930 . S
N662 C661 1.373 . S
N662 C664 1.340 . S
N663 C660 1.368 . S
N663 C664 1.321 . S
N663 Co666 2.135 . S
C664 N662 1.340 . S
C664 N663 1.321 . S
C664 H688 0.930 . S
H665 C660 0.931 . S
Co666 N663 2.135 . S
Co666 N669 2.121 . S
Co666 O674 2.055 . S
Co666 O677 2.039 . S
Co666 N680 2.140 . S
C667 O668 1.227 . S
C667 O677 1.265 . S
O668 C667 1.227 . S
N669 Co666 2.121 . S
N669 C671 1.375 . S
N669 C672 1.313 . S
C670 C671 1.338 . S
C670 N673 1.377 . S
C670 H690 0.930 . S
C671 N669 1.375 . S
C671 C670 1.338 . S
C671 H675 0.931 . S
C672 N669 1.313 . S
C672 N673 1.344 . S
C672 H676 0.930 . S
N673 C670 1.377 . S
N673 C672 1.344 . S
O674 Co666 2.055 . S
O674 C678 1.253 . S
H675 C671 0.931 . S
H676 C672 0.930 . S
O677 Co666 2.039 . S
O677 C667 1.265 . S
C678 O674 1.253 . S
C678 O679 1.227 . S
O679 C678 1.227 . S
N680 Co666 2.140 . S
N680 C683 1.346 . S
N680 C684 1.345 . S
C681 C682 1.387 . S
C681 C685 1.391 . S
C682 C681 1.387 . S
C682 C683 1.369 . S
C682 H691 0.929 . S
C683 N680 1.346 . S
C683 C682 1.369 . S
C683 H686 0.928 . S
C684 N680 1.345 . S
C684 C685 1.371 . S
C684 H687 0.931 . S
C685 C681 1.391 . S
C685 C684 1.371 . S
C685 H692 0.930 . S
H686 C683 0.928 . S
H687 C684 0.931 . S
H688 C664 0.930 . S
H689 C661 0.930 . S
H690 C670 0.930 . S
H691 C682 0.929 . S
H692 C685 0.930 . S
C693 C694 1.351 . S
C693 N696 1.368 . S
C693 H698 0.931 . S
C694 C693 1.351 . S
C694 N695 1.373 . S
C694 H722 0.930 . S
N695 C694 1.373 . S
N695 C697 1.340 . S
N696 C693 1.368 . S
N696 C697 1.321 . S
N696 Co699 2.135 . S
C697 N695 1.340 . S
C697 N696 1.321 . S
C697 H721 0.930 . S
H698 C693 0.931 . S
Co699 N696 2.135 . S
Co699 N702 2.121 . S
Co699 O707 2.055 . S
Co699 O710 2.039 . S
Co699 N713 2.140 . S
C700 O701 1.227 . S
C700 O710 1.265 . S
O701 C700 1.227 . S
N702 Co699 2.121 . S
N702 C704 1.375 . S
N702 C705 1.313 . S
C703 C704 1.338 . S
C703 N706 1.377 . S
C703 H723 0.930 . S
C704 N702 1.375 . S
C704 C703 1.338 . S
C704 H708 0.931 . S
C705 N702 1.313 . S
C705 N706 1.344 . S
C705 H709 0.930 . S
N706 C703 1.377 . S
N706 C705 1.344 . S
O707 Co699 2.055 . S
O707 C711 1.253 . S
H708 C704 0.931 . S
H709 C705 0.930 . S
O710 Co699 2.039 . S
O710 C700 1.265 . S
C711 O707 1.253 . S
C711 O712 1.227 . S
O712 C711 1.227 . S
N713 Co699 2.140 . S
N713 C716 1.346 . S
N713 C717 1.345 . S
C714 C715 1.387 1_554 S
C714 C718 1.391 . S
C715 C714 1.387 1_556 S
C715 C716 1.369 . S
C715 H724 0.929 . S
C716 N713 1.346 . S
C716 C715 1.369 . S
C716 H719 0.928 . S
C717 N713 1.345 . S
C717 C718 1.369 1_556 S
C717 H720 0.931 . S
C718 C714 1.391 . S
C718 C717 1.369 1_554 S
C718 H725 0.932 . S
H719 C716 0.928 . S
H720 C717 0.931 . S
H721 C697 0.930 . S
H722 C694 0.930 . S
H723 C703 0.930 . S
H724 C715 0.929 . S
H725 C718 0.932 . S
C726 C727 1.351 . S
C726 N729 1.368 . S
C726 H731 0.931 . S
C727 C726 1.351 . S
C727 N728 1.373 . S
C727 H755 0.930 . S
N728 C727 1.373 . S
N728 C730 1.340 . S
N729 C726 1.368 . S
N729 C730 1.321 . S
N729 Co732 2.135 . S
C730 N728 1.340 . S
C730 N729 1.321 . S
C730 H754 0.930 . S
H731 C726 0.931 . S
Co732 N729 2.135 . S
Co732 N735 2.121 . S
Co732 O740 2.055 . S
Co732 O743 2.039 . S
Co732 N746 2.140 . S
C733 O734 1.227 . S
C733 O743 1.265 . S
O734 C733 1.227 . S
N735 Co732 2.121 . S
N735 C737 1.375 . S
N735 C738 1.313 . S
C736 C737 1.338 . S
C736 N739 1.377 . S
C736 H756 0.930 . S
C737 N735 1.375 . S
C737 C736 1.338 . S
C737 H741 0.931 . S
C738 N735 1.313 . S
C738 N739 1.344 . S
C738 H742 0.930 . S
N739 C736 1.377 . S
N739 C738 1.344 . S
O740 Co732 2.055 . S
O740 C744 1.253 . S
H741 C737 0.931 . S
H742 C738 0.930 . S
O743 Co732 2.039 . S
O743 C733 1.265 . S
C744 O740 1.253 . S
C744 O745 1.227 . S
O745 C744 1.227 . S
N746 Co732 2.140 . S
N746 C749 1.346 . S
N746 C750 1.345 . S
C747 C748 1.387 1_554 S
C747 C751 1.391 . S
C748 C747 1.387 1_556 S
C748 C749 1.369 . S
C748 H757 0.929 . S
C749 N746 1.346 . S
C749 C748 1.369 . S
C749 H752 0.928 . S
C750 N746 1.345 . S
C750 C751 1.369 1_556 S
C750 H753 0.931 . S
C751 C747 1.391 . S
C751 C750 1.369 1_554 S
C751 H758 0.932 . S
H752 C749 0.928 . S
H753 C750 0.931 . S
H754 C730 0.930 . S
H755 C727 0.930 . S
H756 C736 0.930 . S
H757 C748 0.929 . S
H758 C751 0.932 . S
C759 C760 1.351 . S
C759 N762 1.368 . S
C759 H764 0.931 . S
C760 C759 1.351 . S
C760 N761 1.373 . S
C760 H788 0.930 . S
N761 C760 1.373 . S
N761 C763 1.340 . S
N762 C759 1.368 . S
N762 C763 1.321 . S
N762 Co765 2.135 . S
C763 N761 1.340 . S
C763 N762 1.321 . S
C763 H787 0.930 . S
H764 C759 0.931 . S
Co765 N762 2.135 . S
Co765 N768 2.121 . S
Co765 O773 2.055 . S
Co765 O776 2.039 . S
Co765 N779 2.140 . S
C766 O767 1.227 . S
C766 O776 1.265 . S
O767 C766 1.227 . S
N768 Co765 2.121 . S
N768 C770 1.375 . S
N768 C771 1.313 . S
C769 C770 1.338 . S
C769 N772 1.377 . S
C769 H789 0.930 . S
C770 N768 1.375 . S
C770 C769 1.338 . S
C770 H774 0.931 . S
C771 N768 1.313 . S
C771 N772 1.344 . S
C771 H775 0.930 . S
N772 C769 1.377 . S
N772 C771 1.344 . S
O773 Co765 2.055 . S
O773 C777 1.253 . S
H774 C770 0.931 . S
H775 C771 0.930 . S
O776 Co765 2.039 . S
O776 C766 1.265 . S
C777 O773 1.253 . S
C777 O778 1.227 . S
O778 C777 1.227 . S
N779 Co765 2.140 . S
N779 C782 1.346 . S
N779 C783 1.345 . S
C780 C781 1.387 1_554 S
C780 C784 1.391 . S
C781 C780 1.387 1_556 S
C781 C782 1.369 . S
C781 H790 0.929 . S
C782 N779 1.346 . S
C782 C781 1.369 . S
C782 H785 0.928 . S
C783 N779 1.345 . S
C783 C784 1.369 1_556 S
C783 H786 0.931 . S
C784 C780 1.391 . S
C784 C783 1.369 1_554 S
C784 H791 0.932 . S
H785 C782 0.928 . S
H786 C783 0.931 . S
H787 C763 0.930 . S
H788 C760 0.930 . S
H789 C769 0.930 . S
H790 C781 0.929 . S
H791 C784 0.932 . S
C792 C793 1.351 . S
C792 N795 1.368 . S
C792 H797 0.931 . S
C793 C792 1.351 . S
C793 N794 1.373 . S
C793 H821 0.930 . S
N794 C793 1.373 . S
N794 C796 1.340 . S
N795 C792 1.368 . S
N795 C796 1.321 . S
N795 Co798 2.135 . S
C796 N794 1.340 . S
C796 N795 1.321 . S
C796 H820 0.930 . S
H797 C792 0.931 . S
Co798 N795 2.135 . S
Co798 N801 2.121 . S
Co798 O806 2.055 . S
Co798 O809 2.039 . S
Co798 N812 2.140 . S
C799 O800 1.227 . S
C799 O809 1.265 . S
O800 C799 1.227 . S
N801 Co798 2.121 . S
N801 C803 1.375 . S
N801 C804 1.313 . S
C802 C803 1.338 . S
C802 N805 1.377 . S
C802 H822 0.930 . S
C803 N801 1.375 . S
C803 C802 1.338 . S
C803 H807 0.931 . S
C804 N801 1.313 . S
C804 N805 1.344 . S
C804 H808 0.930 . S
N805 C802 1.377 . S
N805 C804 1.344 . S
O806 Co798 2.055 . S
O806 C810 1.253 . S
H807 C803 0.931 . S
H808 C804 0.930 . S
O809 Co798 2.039 . S
O809 C799 1.265 . S
C810 O806 1.253 . S
C810 O811 1.227 . S
O811 C810 1.227 . S
N812 Co798 2.140 . S
N812 C815 1.346 . S
N812 C816 1.345 . S
C813 C814 1.387 . S
C813 C817 1.391 . S
C814 C813 1.387 . S
C814 C815 1.369 . S
C814 H823 0.929 . S
C815 N812 1.346 . S
C815 C814 1.369 . S
C815 H818 0.928 . S
C816 N812 1.345 . S
C816 C817 1.371 . S
C816 H819 0.931 . S
C817 C813 1.391 . S
C817 C816 1.371 . S
C817 H824 0.930 . S
H818 C815 0.928 . S
H819 C816 0.931 . S
H820 C796 0.930 . S
H821 C793 0.930 . S
H822 C802 0.930 . S
H823 C814 0.929 . S
H824 C817 0.930 . S
C825 C826 1.351 . S
C825 N828 1.368 . S
C825 H830 0.931 . S
C826 C825 1.351 . S
C826 N827 1.373 . S
C826 H854 0.930 . S
N827 C826 1.373 . S
N827 C829 1.340 . S
N828 C825 1.368 . S
N828 C829 1.321 . S
N828 Co831 2.135 . S
C829 N827 1.340 . S
C829 N828 1.321 . S
C829 H853 0.930 . S
H830 C825 0.931 . S
Co831 N828 2.135 . S
Co831 N834 2.121 . S
Co831 O839 2.055 . S
Co831 O842 2.039 . S
Co831 N845 2.140 . S
C832 O833 1.227 . S
C832 O842 1.265 . S
O833 C832 1.227 . S
N834 Co831 2.121 . S
N834 C836 1.375 . S
N834 C837 1.313 . S
C835 C836 1.338 . S
C835 N838 1.377 . S
C835 H855 0.930 . S
C836 N834 1.375 . S
C836 C835 1.338 . S
C836 H840 0.931 . S
C837 N834 1.313 . S
C837 N838 1.344 . S
C837 H841 0.930 . S
N838 C835 1.377 . S
N838 C837 1.344 . S
O839 Co831 2.055 . S
O839 C843 1.253 . S
H840 C836 0.931 . S
H841 C837 0.930 . S
O842 Co831 2.039 . S
O842 C832 1.265 . S
C843 O839 1.253 . S
C843 O844 1.227 . S
O844 C843 1.227 . S
N845 Co831 2.140 . S
N845 C848 1.346 . S
N845 C849 1.345 . S
C846 C847 1.387 . S
C846 C850 1.391 . S
C847 C846 1.387 . S
C847 C848 1.369 . S
C847 H856 0.929 . S
C848 N845 1.346 . S
C848 C847 1.369 . S
C848 H851 0.928 . S
C849 N845 1.345 . S
C849 C850 1.371 . S
C849 H852 0.931 . S
C850 C846 1.391 . S
C850 C849 1.371 . S
C850 H857 0.930 . S
H851 C848 0.928 . S
H852 C849 0.931 . S
H853 C829 0.930 . S
H854 C826 0.930 . S
H855 C835 0.930 . S
H856 C847 0.929 . S
H857 C850 0.930 . S
C858 C859 1.351 . S
C858 N861 1.368 . S
C858 H863 0.931 . S
C859 C858 1.351 . S
C859 N860 1.373 . S
C859 H887 0.930 . S
N860 C859 1.373 . S
N860 C862 1.340 . S
N861 C858 1.368 . S
N861 C862 1.321 . S
N861 Co864 2.135 . S
C862 N860 1.340 . S
C862 N861 1.321 . S
C862 H886 0.930 . S
H863 C858 0.931 . S
Co864 N861 2.135 . S
Co864 N867 2.121 . S
Co864 O872 2.055 . S
Co864 O875 2.039 . S
Co864 N878 2.140 . S
C865 O866 1.227 . S
C865 O875 1.265 . S
O866 C865 1.227 . S
N867 Co864 2.121 . S
N867 C869 1.375 . S
N867 C870 1.313 . S
C868 C869 1.338 . S
C868 N871 1.377 . S
C868 H888 0.930 . S
C869 N867 1.375 . S
C869 C868 1.338 . S
C869 H873 0.931 . S
C870 N867 1.313 . S
C870 N871 1.344 . S
C870 H874 0.930 . S
N871 C868 1.377 . S
N871 C870 1.344 . S
O872 Co864 2.055 . S
O872 C876 1.253 . S
H873 C869 0.931 . S
H874 C870 0.930 . S
O875 Co864 2.039 . S
O875 C865 1.265 . S
C876 O872 1.253 . S
C876 O877 1.227 . S
O877 C876 1.227 . S
N878 Co864 2.140 . S
N878 C881 1.346 . S
N878 C882 1.345 . S
C879 C880 1.387 . S
C879 C883 1.391 . S
C880 C879 1.387 . S
C880 C881 1.369 . S
C880 H889 0.929 . S
C881 N878 1.346 . S
C881 C880 1.369 . S
C881 H884 0.928 . S
C882 N878 1.345 . S
C882 C883 1.371 . S
C882 H885 0.931 . S
C883 C879 1.391 . S
C883 C882 1.371 . S
C883 H890 0.930 . S
H884 C881 0.928 . S
H885 C882 0.931 . S
H886 C862 0.930 . S
H887 C859 0.930 . S
H888 C868 0.930 . S
H889 C880 0.929 . S
H890 C883 0.930 . S
C891 C892 1.351 . S
C891 N894 1.368 . S
C891 H896 0.931 . S
C892 C891 1.351 . S
C892 N893 1.373 . S
C892 H920 0.930 . S
N893 C892 1.373 . S
N893 C895 1.340 . S
N894 C891 1.368 . S
N894 C895 1.321 . S
N894 Co897 2.135 . S
C895 N893 1.340 . S
C895 N894 1.321 . S
C895 H919 0.930 . S
H896 C891 0.931 . S
Co897 N894 2.135 . S
Co897 N900 2.121 . S
Co897 O905 2.055 . S
Co897 O908 2.039 . S
Co897 N911 2.140 . S
C898 O899 1.227 . S
C898 O908 1.265 . S
O899 C898 1.227 . S
N900 Co897 2.121 . S
N900 C902 1.375 . S
N900 C903 1.313 . S
C901 C902 1.338 . S
C901 N904 1.377 . S
C901 H921 0.930 . S
C902 N900 1.375 . S
C902 C901 1.338 . S
C902 H906 0.931 . S
C903 N900 1.313 . S
C903 N904 1.344 . S
C903 H907 0.930 . S
N904 C901 1.377 . S
N904 C903 1.344 . S
O905 Co897 2.055 . S
O905 C909 1.253 . S
H906 C902 0.931 . S
H907 C903 0.930 . S
O908 Co897 2.039 . S
O908 C898 1.265 . S
C909 O905 1.253 . S
C909 O910 1.227 . S
O910 C909 1.227 . S
N911 Co897 2.140 . S
N911 C914 1.346 . S
N911 C915 1.345 . S
C912 C913 1.387 1_556 S
C912 C916 1.391 . S
C913 C912 1.387 1_554 S
C913 C914 1.369 . S
C913 H922 0.929 . S
C914 N911 1.346 . S
C914 C913 1.369 . S
C914 H917 0.928 . S
C915 N911 1.345 . S
C915 C916 1.369 1_554 S
C915 H918 0.931 . S
C916 C912 1.391 . S
C916 C915 1.369 1_556 S
C916 H923 0.932 . S
H917 C914 0.928 . S
H918 C915 0.931 . S
H919 C895 0.930 . S
H920 C892 0.930 . S
H921 C901 0.930 . S
H922 C913 0.929 . S
H923 C916 0.932 . S
C924 C925 1.351 . S
C924 N927 1.368 . S
C924 H929 0.931 . S
C925 C924 1.351 . S
C925 N926 1.373 . S
C925 H953 0.930 . S
N926 C925 1.373 . S
N926 C928 1.340 . S
N927 C924 1.368 . S
N927 C928 1.321 . S
N927 Co930 2.135 . S
C928 N926 1.340 . S
C928 N927 1.321 . S
C928 H952 0.930 . S
H929 C924 0.931 . S
Co930 N927 2.135 . S
Co930 N933 2.121 . S
Co930 O938 2.055 . S
Co930 O941 2.039 . S
Co930 N944 2.140 . S
C931 O932 1.227 . S
C931 O941 1.265 . S
O932 C931 1.227 . S
N933 Co930 2.121 . S
N933 C935 1.375 . S
N933 C936 1.313 . S
C934 C935 1.338 . S
C934 N937 1.377 . S
C934 H954 0.930 . S
C935 N933 1.375 . S
C935 C934 1.338 . S
C935 H939 0.931 . S
C936 N933 1.313 . S
C936 N937 1.344 . S
C936 H940 0.930 . S
N937 C934 1.377 . S
N937 C936 1.344 . S
O938 Co930 2.055 . S
O938 C942 1.253 . S
H939 C935 0.931 . S
H940 C936 0.930 . S
O941 Co930 2.039 . S
O941 C931 1.265 . S
C942 O938 1.253 . S
C942 O943 1.227 . S
O943 C942 1.227 . S
N944 Co930 2.140 . S
N944 C947 1.346 . S
N944 C948 1.345 . S
C945 C946 1.387 1_556 S
C945 C949 1.391 . S
C946 C945 1.387 1_554 S
C946 C947 1.369 . S
C946 H955 0.929 . S
C947 N944 1.346 . S
C947 C946 1.369 . S
C947 H950 0.928 . S
C948 N944 1.345 . S
C948 C949 1.369 1_554 S
C948 H951 0.931 . S
C949 C945 1.391 . S
C949 C948 1.369 1_556 S
C949 H956 0.932 . S
H950 C947 0.928 . S
H951 C948 0.931 . S
H952 C928 0.930 . S
H953 C925 0.930 . S
H954 C934 0.930 . S
H955 C946 0.929 . S
H956 C949 0.932 . S
C957 C958 1.351 . S
C957 N960 1.368 . S
C957 H962 0.931 . S
C958 C957 1.351 . S
C958 N959 1.373 . S
C958 H986 0.930 . S
N959 C958 1.373 . S
N959 C961 1.340 . S
N960 C957 1.368 . S
N960 C961 1.321 . S
N960 Co963 2.135 . S
C961 N959 1.340 . S
C961 N960 1.321 . S
C961 H985 0.930 . S
H962 C957 0.931 . S
Co963 N960 2.135 . S
Co963 N966 2.121 . S
Co963 O971 2.055 . S
Co963 O974 2.039 . S
Co963 N977 2.140 . S
C964 O965 1.227 . S
C964 O974 1.265 . S
O965 C964 1.227 . S
N966 Co963 2.121 . S
N966 C968 1.375 . S
N966 C969 1.313 . S
C967 C968 1.338 . S
C967 N970 1.377 . S
C967 H987 0.930 . S
C968 N966 1.375 . S
C968 C967 1.338 . S
C968 H972 0.931 . S
C969 N966 1.313 . S
C969 N970 1.344 . S
C969 H973 0.930 . S
N970 C967 1.377 . S
N970 C969 1.344 . S
O971 Co963 2.055 . S
O971 C975 1.253 . S
H972 C968 0.931 . S
H973 C969 0.930 . S
O974 Co963 2.039 . S
O974 C964 1.265 . S
C975 O971 1.253 . S
C975 O976 1.227 . S
O976 C975 1.227 . S
N977 Co963 2.140 . S
N977 C980 1.346 . S
N977 C981 1.345 . S
C978 C979 1.387 1_556 S
C978 C982 1.391 . S
C979 C978 1.387 1_554 S
C979 C980 1.369 . S
C979 H988 0.929 . S
C980 N977 1.346 . S
C980 C979 1.369 . S
C980 H983 0.928 . S
C981 N977 1.345 . S
C981 C982 1.369 1_554 S
C981 H984 0.931 . S
C982 C978 1.391 . S
C982 C981 1.369 1_556 S
C982 H989 0.932 . S
H983 C980 0.928 . S
H984 C981 0.931 . S
H985 C961 0.930 . S
H986 C958 0.930 . S
H987 C967 0.930 . S
H988 C979 0.929 . S
H989 C982 0.932 . S
C990 C991 1.351 . S
C990 N993 1.368 . S
C990 H995 0.931 . S
C991 C990 1.351 . S
C991 N992 1.373 . S
C991 H1019 0.930 . S
N992 C991 1.373 . S
N992 C994 1.340 . S
N993 C990 1.368 . S
N993 C994 1.321 . S
N993 Co996 2.135 . S
C994 N992 1.340 . S
C994 N993 1.321 . S
C994 H1018 0.930 . S
H995 C990 0.931 . S
Co996 N993 2.135 . S
Co996 N999 2.121 . S
Co996 O1004 2.055 . S
Co996 O1007 2.039 . S
Co996 N1010 2.140 . S
C997 O998 1.227 . S
C997 O1007 1.265 . S
O998 C997 1.227 . S
N999 Co996 2.121 . S
N999 C1001 1.375 . S
N999 C1002 1.313 . S
C1000 C1001 1.338 . S
C1000 N1003 1.377 . S
C1000 H1020 0.930 . S
C1001 N999 1.375 . S
C1001 C1000 1.338 . S
C1001 H1005 0.931 . S
C1002 N999 1.313 . S
C1002 N1003 1.344 . S
C1002 H1006 0.930 . S
N1003 C1000 1.377 . S
N1003 C1002 1.344 . S
O1004 Co996 2.055 . S
O1004 C1008 1.253 . S
H1005 C1001 0.931 . S
H1006 C1002 0.930 . S
O1007 Co996 2.039 . S
O1007 C997 1.265 . S
C1008 O1004 1.253 . S
C1008 O1009 1.227 . S
O1009 C1008 1.227 . S
N1010 Co996 2.140 . S
N1010 C1013 1.346 . S
N1010 C1014 1.345 . S
C1011 C1012 1.387 . S
C1011 C1015 1.391 . S
C1012 C1011 1.387 . S
C1012 C1013 1.369 . S
C1012 H1021 0.929 . S
C1013 N1010 1.346 . S
C1013 C1012 1.369 . S
C1013 H1016 0.928 . S
C1014 N1010 1.345 . S
C1014 C1015 1.371 . S
C1014 H1017 0.931 . S
C1015 C1011 1.391 . S
C1015 C1014 1.371 . S
C1015 H1022 0.930 . S
H1016 C1013 0.928 . S
H1017 C1014 0.931 . S
H1018 C994 0.930 . S
H1019 C991 0.930 . S
H1020 C1000 0.930 . S
H1021 C1012 0.929 . S
H1022 C1015 0.930 . S
C1023 C1024 1.351 . S
C1023 N1026 1.368 . S
C1023 H1028 0.931 . S
C1024 C1023 1.351 . S
C1024 N1025 1.373 . S
C1024 H1052 0.930 . S
N1025 C1024 1.373 . S
N1025 C1027 1.340 . S
N1026 C1023 1.368 . S
N1026 C1027 1.321 . S
N1026 Co1029 2.135 . S
C1027 N1025 1.340 . S
C1027 N1026 1.321 . S
C1027 H1051 0.930 . S
H1028 C1023 0.931 . S
Co1029 N1026 2.135 . S
Co1029 N1032 2.121 . S
Co1029 O1037 2.055 . S
Co1029 O1040 2.039 . S
Co1029 N1043 2.140 . S
C1030 O1031 1.227 . S
C1030 O1040 1.265 . S
O1031 C1030 1.227 . S
N1032 Co1029 2.121 . S
N1032 C1034 1.375 . S
N1032 C1035 1.313 . S
C1033 C1034 1.338 . S
C1033 N1036 1.377 . S
C1033 H1053 0.930 . S
C1034 N1032 1.375 . S
C1034 C1033 1.338 . S
C1034 H1038 0.931 . S
C1035 N1032 1.313 . S
C1035 N1036 1.344 . S
C1035 H1039 0.930 . S
N1036 C1033 1.377 . S
N1036 C1035 1.344 . S
O1037 Co1029 2.055 . S
O1037 C1041 1.253 . S
H1038 C1034 0.931 . S
H1039 C1035 0.930 . S
O1040 Co1029 2.039 . S
O1040 C1030 1.265 . S
C1041 O1037 1.253 . S
C1041 O1042 1.227 . S
O1042 C1041 1.227 . S
N1043 Co1029 2.140 . S
N1043 C1046 1.346 . S
N1043 C1047 1.345 . S
C1044 C1045 1.387 . S
C1044 C1048 1.391 . S
C1045 C1044 1.387 . S
C1045 C1046 1.369 . S
C1045 H1054 0.929 . S
C1046 N1043 1.346 . S
C1046 C1045 1.369 . S
C1046 H1049 0.928 . S
C1047 N1043 1.345 . S
C1047 C1048 1.371 . S
C1047 H1050 0.931 . S
C1048 C1044 1.391 . S
C1048 C1047 1.371 . S
C1048 H1055 0.930 . S
H1049 C1046 0.928 . S
H1050 C1047 0.931 . S
H1051 C1027 0.930 . S
H1052 C1024 0.930 . S
H1053 C1033 0.930 . S
H1054 C1045 0.929 . S
H1055 C1048 0.930 . S
C1056 C1057 1.351 . S
C1056 N1059 1.368 . S
C1056 H1061 0.931 . S
C1057 C1056 1.351 . S
C1057 N1058 1.373 . S
C1057 H1085 0.930 . S
N1058 C1057 1.373 . S
N1058 C1060 1.340 . S
N1059 C1056 1.368 . S
N1059 C1060 1.321 . S
N1059 Co1062 2.135 . S
C1060 N1058 1.340 . S
C1060 N1059 1.321 . S
C1060 H1084 0.930 . S
H1061 C1056 0.931 . S
Co1062 N1059 2.135 . S
Co1062 N1065 2.121 . S
Co1062 O1070 2.055 . S
Co1062 O1073 2.039 . S
Co1062 N1076 2.140 . S
C1063 O1064 1.227 . S
C1063 O1073 1.265 . S
O1064 C1063 1.227 . S
N1065 Co1062 2.121 . S
N1065 C1067 1.375 . S
N1065 C1068 1.313 . S
C1066 C1067 1.338 . S
C1066 N1069 1.377 . S
C1066 H1086 0.930 . S
C1067 N1065 1.375 . S
C1067 C1066 1.338 . S
C1067 H1071 0.931 . S
C1068 N1065 1.313 . S
C1068 N1069 1.344 . S
C1068 H1072 0.930 . S
N1069 C1066 1.377 . S
N1069 C1068 1.344 . S
O1070 Co1062 2.055 . S
O1070 C1074 1.253 . S
H1071 C1067 0.931 . S
H1072 C1068 0.930 . S
O1073 Co1062 2.039 . S
O1073 C1063 1.265 . S
C1074 O1070 1.253 . S
C1074 O1075 1.227 . S
O1075 C1074 1.227 . S
N1076 Co1062 2.140 . S
N1076 C1079 1.346 . S
N1076 C1080 1.345 . S
C1077 C1078 1.387 . S
C1077 C1081 1.391 . S
C1078 C1077 1.387 . S
C1078 C1079 1.369 . S
C1078 H1087 0.929 . S
C1079 N1076 1.346 . S
C1079 C1078 1.369 . S
C1079 H1082 0.928 . S
C1080 N1076 1.345 . S
C1080 C1081 1.371 . S
C1080 H1083 0.931 . S
C1081 C1077 1.391 . S
C1081 C1080 1.371 . S
C1081 H1088 0.930 . S
H1082 C1079 0.928 . S
H1083 C1080 0.931 . S
H1084 C1060 0.930 . S
H1085 C1057 0.930 . S
H1086 C1066 0.930 . S
H1087 C1078 0.929 . S
H1088 C1081 0.930 . S
C1089 C1090 1.351 . S
C1089 N1092 1.368 . S
C1089 H1094 0.931 . S
C1090 C1089 1.351 . S
C1090 N1091 1.373 . S
C1090 H1118 0.930 . S
N1091 C1090 1.373 . S
N1091 C1093 1.340 . S
N1092 C1089 1.368 . S
N1092 C1093 1.321 . S
N1092 Co1095 2.135 . S
C1093 N1091 1.340 . S
C1093 N1092 1.321 . S
C1093 H1117 0.930 . S
H1094 C1089 0.931 . S
Co1095 N1092 2.135 . S
Co1095 N1098 2.121 . S
Co1095 O1103 2.055 . S
Co1095 O1106 2.039 . S
Co1095 N1109 2.140 . S
C1096 O1097 1.227 . S
C1096 O1106 1.265 . S
O1097 C1096 1.227 . S
N1098 Co1095 2.121 . S
N1098 C1100 1.375 . S
N1098 C1101 1.313 . S
C1099 C1100 1.338 . S
C1099 N1102 1.377 . S
C1099 H1119 0.930 . S
C1100 N1098 1.375 . S
C1100 C1099 1.338 . S
C1100 H1104 0.931 . S
C1101 N1098 1.313 . S
C1101 N1102 1.344 . S
C1101 H1105 0.930 . S
N1102 C1099 1.377 . S
N1102 C1101 1.344 . S
O1103 Co1095 2.055 . S
O1103 C1107 1.253 . S
H1104 C1100 0.931 . S
H1105 C1101 0.930 . S
O1106 Co1095 2.039 . S
O1106 C1096 1.265 . S
C1107 O1103 1.253 . S
C1107 O1108 1.227 . S
O1108 C1107 1.227 . S
N1109 Co1095 2.140 . S
N1109 C1112 1.346 . S
N1109 C1113 1.345 . S
C1110 C1111 1.387 . S
C1110 C1114 1.391 . S
C1111 C1110 1.387 . S
C1111 C1112 1.369 . S
C1111 H1120 0.929 . S
C1112 N1109 1.346 . S
C1112 C1111 1.369 . S
C1112 H1115 0.928 . S
C1113 N1109 1.345 . S
C1113 C1114 1.371 . S
C1113 H1116 0.931 . S
C1114 C1110 1.391 . S
C1114 C1113 1.371 . S
C1114 H1121 0.930 . S
H1115 C1112 0.928 . S
H1116 C1113 0.931 . S
H1117 C1093 0.930 . S
H1118 C1090 0.930 . S
H1119 C1099 0.930 . S
H1120 C1111 0.929 . S
H1121 C1114 0.930 . S
C1122 C1123 1.351 . S
C1122 N1125 1.368 . S
C1122 H1127 0.931 . S
C1123 C1122 1.351 . S
C1123 N1124 1.373 . S
C1123 H1151 0.930 . S
N1124 C1123 1.373 . S
N1124 C1126 1.340 . S
N1125 C1122 1.368 . S
N1125 C1126 1.321 . S
N1125 Co1128 2.135 . S
C1126 N1124 1.340 . S
C1126 N1125 1.321 . S
C1126 H1150 0.930 . S
H1127 C1122 0.931 . S
Co1128 N1125 2.135 . S
Co1128 N1131 2.121 . S
Co1128 O1136 2.055 . S
Co1128 O1139 2.039 . S
Co1128 N1142 2.140 . S
C1129 O1130 1.227 . S
C1129 O1139 1.265 . S
O1130 C1129 1.227 . S
N1131 Co1128 2.121 . S
N1131 C1133 1.375 . S
N1131 C1134 1.313 . S
C1132 C1133 1.338 . S
C1132 N1135 1.377 . S
C1132 H1152 0.930 . S
C1133 N1131 1.375 . S
C1133 C1132 1.338 . S
C1133 H1137 0.931 . S
C1134 N1131 1.313 . S
C1134 N1135 1.344 . S
C1134 H1138 0.930 . S
N1135 C1132 1.377 . S
N1135 C1134 1.344 . S
O1136 Co1128 2.055 . S
O1136 C1140 1.253 . S
H1137 C1133 0.931 . S
H1138 C1134 0.930 . S
O1139 Co1128 2.039 . S
O1139 C1129 1.265 . S
C1140 O1136 1.253 . S
C1140 O1141 1.227 . S
O1141 C1140 1.227 . S
N1142 Co1128 2.140 . S
N1142 C1145 1.346 . S
N1142 C1146 1.345 . S
C1143 C1144 1.387 . S
C1143 C1147 1.391 . S
C1144 C1143 1.387 . S
C1144 C1145 1.369 . S
C1144 H1153 0.929 . S
C1145 N1142 1.346 . S
C1145 C1144 1.369 . S
C1145 H1148 0.928 . S
C1146 N1142 1.345 . S
C1146 C1147 1.371 . S
C1146 H1149 0.931 . S
C1147 C1143 1.391 . S
C1147 C1146 1.371 . S
C1147 H1154 0.930 . S
H1148 C1145 0.928 . S
H1149 C1146 0.931 . S
H1150 C1126 0.930 . S
H1151 C1123 0.930 . S
H1152 C1132 0.930 . S
H1153 C1144 0.929 . S
H1154 C1147 0.930 . S
C1155 C1156 1.351 . S
C1155 N1158 1.368 . S
C1155 H1160 0.931 . S
C1156 C1155 1.351 . S
C1156 N1157 1.373 . S
C1156 H1184 0.930 . S
N1157 C1156 1.373 . S
N1157 C1159 1.340 . S
N1158 C1155 1.368 . S
N1158 C1159 1.321 . S
N1158 Co1161 2.135 . S
C1159 N1157 1.340 . S
C1159 N1158 1.321 . S
C1159 H1183 0.930 . S
H1160 C1155 0.931 . S
Co1161 N1158 2.135 . S
Co1161 N1164 2.121 . S
Co1161 O1169 2.055 . S
Co1161 O1172 2.039 . S
Co1161 N1175 2.140 . S
C1162 O1163 1.227 . S
C1162 O1172 1.265 . S
O1163 C1162 1.227 . S
N1164 Co1161 2.121 . S
N1164 C1166 1.375 . S
N1164 C1167 1.313 . S
C1165 C1166 1.338 . S
C1165 N1168 1.377 . S
C1165 H1185 0.930 . S
C1166 N1164 1.375 . S
C1166 C1165 1.338 . S
C1166 H1170 0.931 . S
C1167 N1164 1.313 . S
C1167 N1168 1.344 . S
C1167 H1171 0.930 . S
N1168 C1165 1.377 . S
N1168 C1167 1.344 . S
O1169 Co1161 2.055 . S
O1169 C1173 1.253 . S
H1170 C1166 0.931 . S
H1171 C1167 0.930 . S
O1172 Co1161 2.039 . S
O1172 C1162 1.265 . S
C1173 O1169 1.253 . S
C1173 O1174 1.227 . S
O1174 C1173 1.227 . S
N1175 Co1161 2.140 . S
N1175 C1178 1.346 . S
N1175 C1179 1.345 . S
C1176 C1177 1.387 . S
C1176 C1180 1.391 . S
C1177 C1176 1.387 . S
C1177 C1178 1.369 . S
C1177 H1186 0.929 . S
C1178 N1175 1.346 . S
C1178 C1177 1.369 . S
C1178 H1181 0.928 . S
C1179 N1175 1.345 . S
C1179 C1180 1.371 . S
C1179 H1182 0.931 . S
C1180 C1176 1.391 . S
C1180 C1179 1.371 . S
C1180 H1187 0.930 . S
H1181 C1178 0.928 . S
H1182 C1179 0.931 . S
H1183 C1159 0.930 . S
H1184 C1156 0.930 . S
H1185 C1165 0.930 . S
H1186 C1177 0.929 . S
H1187 C1180 0.930 . S
H1188 C1196 0.950 . S
H1189 C1201 0.950 . S
H1190 C1198 0.950 . S
H1191 C1200 0.950 . S
H1192 C1202 0.950 . S
H1193 C1204 0.950 . S
H1194 C1206 0.950 . S
H1195 C1207 0.950 . S
C1196 H1188 0.950 . S
C1196 C1197 1.386 . S
C1196 C1198 1.391 . S
C1197 C1196 1.386 . S
C1197 C1201 1.393 . S
C1198 H1190 0.950 . S
C1198 C1196 1.391 . S
C1198 C1199 1.400 . S
C1199 C1198 1.400 . S
C1199 C1200 1.398 . S
C1199 C1205 1.491 . S
C1200 H1191 0.950 . S
C1200 C1199 1.398 . S
C1200 C1201 1.391 . S
C1201 H1189 0.950 . S
C1201 C1197 1.393 . S
C1201 C1200 1.391 . S
C1202 H1192 0.950 . S
C1202 C1203 1.386 . S
C1202 C1204 1.391 . S
C1203 C1202 1.386 . S
C1203 C1207 1.393 . S
C1204 H1193 0.950 . S
C1204 C1202 1.391 . S
C1204 C1205 1.400 . S
C1205 C1199 1.491 . S
C1205 C1204 1.400 . S
C1205 C1206 1.398 . S
C1206 H1194 0.950 . S
C1206 C1205 1.398 . S
C1206 C1207 1.391 . S
C1207 H1195 0.950 . S
C1207 C1203 1.393 . S
C1207 C1206 1.391 . S
H1208 C1216 0.950 . S
H1209 C1221 0.950 . S
H1210 C1218 0.950 . S
H1211 C1220 0.950 . S
H1212 C1222 0.950 . S
H1213 C1224 0.950 . S
H1214 C1226 0.950 . S
H1215 C1227 0.950 . S
C1216 H1208 0.950 . S
C1216 C1217 1.386 . S
C1216 C1218 1.391 . S
C1217 C1216 1.386 . S
C1217 C1221 1.393 1_545 S
C1218 H1210 0.950 . S
C1218 C1216 1.391 . S
C1218 C1219 1.400 . S
C1219 C1218 1.400 . S
C1219 C1220 1.398 1_545 S
C1219 C1225 1.491 1_545 S
C1220 H1211 0.950 . S
C1220 C1219 1.398 1_565 S
C1220 C1221 1.391 . S
C1221 H1209 0.950 . S
C1221 C1217 1.393 1_565 S
C1221 C1220 1.391 . S
C1222 H1212 0.950 . S
C1222 C1223 1.386 . S
C1222 C1224 1.391 . S
C1223 C1222 1.386 . S
C1223 C1227 1.393 1_565 S
C1224 H1213 0.950 . S
C1224 C1222 1.391 . S
C1224 C1225 1.400 . S
C1225 C1219 1.491 1_565 S
C1225 C1224 1.400 . S
C1225 C1226 1.398 1_565 S
C1226 H1214 0.950 . S
C1226 C1225 1.398 1_545 S
C1226 C1227 1.391 . S
C1227 H1215 0.950 . S
C1227 C1223 1.393 1_545 S
C1227 C1226 1.391 . S
H1228 C1236 0.950 . S
H1229 C1241 0.922 1_655 S
H1230 C1238 0.950 . S
H1231 C1240 0.950 . S
H1232 C1242 0.950 . S
H1233 C1244 0.950 . S
H1234 C1246 0.950 . S
H1235 C1247 0.923 1_455 S
C1236 H1228 0.950 . S
C1236 C1237 1.386 . S
C1236 C1238 1.391 . S
C1237 C1236 1.386 . S
C1237 C1241 1.393 . S
C1238 H1230 0.950 . S
C1238 C1236 1.391 . S
C1238 C1239 1.400 . S
C1239 C1238 1.400 . S
C1239 C1240 1.398 1_455 S
C1239 C1245 1.491 1_455 S
C1240 H1231 0.950 . S
C1240 C1239 1.398 1_655 S
C1240 C1241 1.391 1_655 S
C1241 H1229 0.922 1_455 S
C1241 C1237 1.393 . S
C1241 C1240 1.391 1_455 S
C1242 H1232 0.950 . S
C1242 C1243 1.386 . S
C1242 C1244 1.391 . S
C1243 C1242 1.386 . S
C1243 C1247 1.393 . S
C1244 H1233 0.950 . S
C1244 C1242 1.391 . S
C1244 C1245 1.400 . S
C1245 C1239 1.491 1_655 S
C1245 C1244 1.400 . S
C1245 C1246 1.398 1_655 S
C1246 H1234 0.950 . S
C1246 C1245 1.398 1_455 S
C1246 C1247 1.391 1_455 S
C1247 H1235 0.923 1_655 S
C1247 C1243 1.393 . S
C1247 C1246 1.391 1_655 S
H1248 C1256 0.950 . S
H1249 C1261 0.950 . S
H1250 C1258 0.950 . S
H1251 C1260 0.950 . S
H1252 C1262 0.950 . S
H1253 C1264 0.950 . S
H1254 C1266 0.950 . S
H1255 C1267 0.950 . S
C1256 H1248 0.950 . S
C1256 C1257 1.386 . S
C1256 C1258 1.391 . S
C1257 C1256 1.386 . S
C1257 C1261 1.393 . S
C1258 H1250 0.950 . S
C1258 C1256 1.391 . S
C1258 C1259 1.400 . S
C1259 C1258 1.400 . S
C1259 C1260 1.398 . S
C1259 C1265 1.491 . S
C1260 H1251 0.950 . S
C1260 C1259 1.398 . S
C1260 C1261 1.391 . S
C1261 H1249 0.950 . S
C1261 C1257 1.393 . S
C1261 C1260 1.391 . S
C1262 H1252 0.950 . S
C1262 C1263 1.386 . S
C1262 C1264 1.391 . S
C1263 C1262 1.386 . S
C1263 C1267 1.393 . S
C1264 H1253 0.950 . S
C1264 C1262 1.391 . S
C1264 C1265 1.400 . S
C1265 C1259 1.491 . S
C1265 C1264 1.400 . S
C1265 C1266 1.398 . S
C1266 H1254 0.950 . S
C1266 C1265 1.398 . S
C1266 C1267 1.391 . S
C1267 H1255 0.950 . S
C1267 C1263 1.393 . S
C1267 C1266 1.391 . S
H1268 C1276 0.950 . S
H1269 C1281 0.950 . S
H1270 C1278 0.946 1_545 S
H1271 C1280 0.950 . S
H1272 C1282 0.950 . S
H1273 C1284 0.945 1_565 S
H1274 C1286 0.950 . S
H1275 C1287 0.950 . S
C1276 H1268 0.950 . S
C1276 C1277 1.386 . S
C1276 C1278 1.392 . S
C1277 C1276 1.386 . S
C1277 C1281 1.393 . S
C1278 H1270 0.946 1_565 S
C1278 C1276 1.392 . S
C1278 C1279 1.404 . S
C1279 C1278 1.404 . S
C1279 C1280 1.398 . S
C1279 C1285 1.491 1_565 S
C1280 H1271 0.950 . S
C1280 C1279 1.398 . S
C1280 C1281 1.391 . S
C1281 H1269 0.950 . S
C1281 C1277 1.393 . S
C1281 C1280 1.391 . S
C1282 H1272 0.950 . S
C1282 C1283 1.386 . S
C1282 C1284 1.392 . S
C1283 C1282 1.386 . S
C1283 C1287 1.393 . S
C1284 H1273 0.945 1_545 S
C1284 C1282 1.392 . S
C1284 C1285 1.404 . S
C1285 C1279 1.491 1_545 S
C1285 C1284 1.404 . S
C1285 C1286 1.398 . S
C1286 H1274 0.950 . S
C1286 C1285 1.398 . S
C1286 C1287 1.391 . S
C1287 H1275 0.950 . S
C1287 C1283 1.393 . S
C1287 C1286 1.391 . S
H1288 C1296 0.950 . S
H1289 C1301 0.950 . S
H1290 C1298 0.950 . S
H1291 C1300 0.950 . S
H1292 C1302 0.950 . S
H1293 C1304 0.950 . S
H1294 C1306 0.950 . S
H1295 C1307 0.950 . S
C1296 H1288 0.950 . S
C1296 C1297 1.386 . S
C1296 C1298 1.391 . S
C1297 C1296 1.386 . S
C1297 C1301 1.393 1_655 S
C1298 H1290 0.950 . S
C1298 C1296 1.391 . S
C1298 C1299 1.400 . S
C1299 C1298 1.400 . S
C1299 C1300 1.398 1_655 S
C1299 C1305 1.491 1_655 S
C1300 H1291 0.950 . S
C1300 C1299 1.398 1_455 S
C1300 C1301 1.391 . S
C1301 H1289 0.950 . S
C1301 C1297 1.393 1_455 S
C1301 C1300 1.391 . S
C1302 H1292 0.950 . S
C1302 C1303 1.386 . S
C1302 C1304 1.391 . S
C1303 C1302 1.386 . S
C1303 C1307 1.393 1_455 S
C1304 H1293 0.950 . S
C1304 C1302 1.391 . S
C1304 C1305 1.400 . S
C1305 C1299 1.491 1_455 S
C1305 C1304 1.400 . S
C1305 C1306 1.398 1_455 S
C1306 H1294 0.950 . S
C1306 C1305 1.398 1_655 S
C1306 C1307 1.391 . S
C1307 H1295 0.950 . S
C1307 C1303 1.393 1_655 S
C1307 C1306 1.391 . S
H1308 C1316 0.950 . S
H1309 C1321 0.950 . S
H1310 C1318 0.950 . S
H1311 C1320 0.950 . S
H1312 C1322 0.950 . S
H1313 C1324 0.950 . S
H1314 C1326 0.950 . S
H1315 C1327 0.950 . S
C1316 H1308 0.950 . S
C1316 C1317 1.386 . S
C1316 C1318 1.391 . S
C1317 C1316 1.386 . S
C1317 C1321 1.393 . S
C1318 H1310 0.950 . S
C1318 C1316 1.391 . S
C1318 C1319 1.400 . S
C1319 C1318 1.400 . S
C1319 C1320 1.398 . S
C1319 C1325 1.491 . S
C1320 H1311 0.950 . S
C1320 C1319 1.398 . S
C1320 C1321 1.391 . S
C1321 H1309 0.950 . S
C1321 C1317 1.393 . S
C1321 C1320 1.391 . S
C1322 H1312 0.950 . S
C1322 C1323 1.386 . S
C1322 C1324 1.391 . S
C1323 C1322 1.386 . S
C1323 C1327 1.393 . S
C1324 H1313 0.950 . S
C1324 C1322 1.391 . S
C1324 C1325 1.400 . S
C1325 C1319 1.491 . S
C1325 C1324 1.400 . S
C1325 C1326 1.398 . S
C1326 H1314 0.950 . S
C1326 C1325 1.398 . S
C1326 C1327 1.391 . S
C1327 H1315 0.950 . S
C1327 C1323 1.393 . S
C1327 C1326 1.391 . S
H1328 C1336 0.950 . S
H1329 C1341 0.950 . S
H1330 C1338 0.950 . S
H1331 C1340 0.950 . S
H1332 C1342 0.950 . S
H1333 C1344 0.950 . S
H1334 C1346 0.950 . S
H1335 C1347 0.950 . S
C1336 H1328 0.950 . S
C1336 C1337 1.386 . S
C1336 C1338 1.391 . S
C1337 C1336 1.386 . S
C1337 C1341 1.393 . S
C1338 H1330 0.950 . S
C1338 C1336 1.391 . S
C1338 C1339 1.400 . S
C1339 C1338 1.400 . S
C1339 C1340 1.398 . S
C1339 C1345 1.491 . S
C1340 H1331 0.950 . S
C1340 C1339 1.398 . S
C1340 C1341 1.391 . S
C1341 H1329 0.950 . S
C1341 C1337 1.393 . S
C1341 C1340 1.391 . S
C1342 H1332 0.950 . S
C1342 C1343 1.386 . S
C1342 C1344 1.391 . S
C1343 C1342 1.386 . S
C1343 C1347 1.393 . S
C1344 H1333 0.950 . S
C1344 C1342 1.391 . S
C1344 C1345 1.400 . S
C1345 C1339 1.491 . S
C1345 C1344 1.400 . S
C1345 C1346 1.398 . S
C1346 H1334 0.950 . S
C1346 C1345 1.398 . S
C1346 C1347 1.391 . S
C1347 H1335 0.950 . S
C1347 C1343 1.393 . S
C1347 C1346 1.391 . S
H1348 C1356 0.950 . S
H1349 C1361 0.950 . S
H1350 C1358 0.950 . S
H1351 C1360 0.950 . S
H1352 C1362 0.950 . S
H1353 C1364 0.950 . S
H1354 C1366 0.950 . S
H1355 C1367 0.950 . S
C1356 H1348 0.950 . S
C1356 C1357 1.386 . S
C1356 C1358 1.391 . S
C1357 C1356 1.386 . S
C1357 C1361 1.393 . S
C1358 H1350 0.950 . S
C1358 C1356 1.391 . S
C1358 C1359 1.400 . S
C1359 C1358 1.400 . S
C1359 C1360 1.398 . S
C1359 C1365 1.491 . S
C1360 H1351 0.950 . S
C1360 C1359 1.398 . S
C1360 C1361 1.391 . S
C1361 H1349 0.950 . S
C1361 C1357 1.393 . S
C1361 C1360 1.391 . S
C1362 H1352 0.950 . S
C1362 C1363 1.386 . S
C1362 C1364 1.391 . S
C1363 C1362 1.386 . S
C1363 C1367 1.393 . S
C1364 H1353 0.950 . S
C1364 C1362 1.391 . S
C1364 C1365 1.400 . S
C1365 C1359 1.491 . S
C1365 C1364 1.400 . S
C1365 C1366 1.398 . S
C1366 H1354 0.950 . S
C1366 C1365 1.398 . S
C1366 C1367 1.391 . S
C1367 H1355 0.950 . S
C1367 C1363 1.393 . S
C1367 C1366 1.391 . S
H1368 C1376 0.950 . S
H1369 C1381 0.950 . S
H1370 C1378 0.950 . S
H1371 C1380 0.950 . S
H1372 C1382 0.950 . S
H1373 C1384 0.950 . S
H1374 C1386 0.950 . S
H1375 C1387 0.950 . S
C1376 H1368 0.950 . S
C1376 C1377 1.386 . S
C1376 C1378 1.391 . S
C1377 C1376 1.386 . S
C1377 C1381 1.393 . S
C1378 H1370 0.950 . S
C1378 C1376 1.391 . S
C1378 C1379 1.400 . S
C1379 C1378 1.400 . S
C1379 C1380 1.398 . S
C1379 C1385 1.491 . S
C1380 H1371 0.950 . S
C1380 C1379 1.398 . S
C1380 C1381 1.391 . S
C1381 H1369 0.950 . S
C1381 C1377 1.393 . S
C1381 C1380 1.391 . S
C1382 H1372 0.950 . S
C1382 C1383 1.386 . S
C1382 C1384 1.391 . S
C1383 C1382 1.386 . S
C1383 C1387 1.393 . S
C1384 H1373 0.950 . S
C1384 C1382 1.391 . S
C1384 C1385 1.400 . S
C1385 C1379 1.491 . S
C1385 C1384 1.400 . S
C1385 C1386 1.398 . S
C1386 H1374 0.950 . S
C1386 C1385 1.398 . S
C1386 C1387 1.391 . S
C1387 H1375 0.950 . S
C1387 C1383 1.393 . S
C1387 C1386 1.391 . S
H1388 C1396 0.950 . S
H1389 C1401 0.950 . S
H1390 C1398 0.950 . S
H1391 C1400 0.950 . S
H1392 C1402 0.950 . S
H1393 C1404 0.950 . S
H1394 C1406 0.950 . S
H1395 C1407 0.950 . S
C1396 H1388 0.950 . S
C1396 C1397 1.386 . S
C1396 C1398 1.391 . S
C1397 C1396 1.386 . S
C1397 C1401 1.393 . S
C1398 H1390 0.950 . S
C1398 C1396 1.391 . S
C1398 C1399 1.400 . S
C1399 C1398 1.400 . S
C1399 C1400 1.398 . S
C1399 C1405 1.491 . S
C1400 H1391 0.950 . S
C1400 C1399 1.398 . S
C1400 C1401 1.391 . S
C1401 H1389 0.950 . S
C1401 C1397 1.393 . S
C1401 C1400 1.391 . S
C1402 H1392 0.950 . S
C1402 C1403 1.386 . S
C1402 C1404 1.391 . S
C1403 C1402 1.386 . S
C1403 C1407 1.393 . S
C1404 H1393 0.950 . S
C1404 C1402 1.391 . S
C1404 C1405 1.400 . S
C1405 C1399 1.491 . S
C1405 C1404 1.400 . S
C1405 C1406 1.398 . S
C1406 H1394 0.950 . S
C1406 C1405 1.398 . S
C1406 C1407 1.391 . S
C1407 H1395 0.950 . S
C1407 C1403 1.393 . S
C1407 C1406 1.391 . S
H1408 C1416 0.950 . S
H1409 C1421 0.950 . S
H1410 C1418 0.950 . S
H1411 C1420 0.950 . S
H1412 C1422 0.950 . S
H1413 C1424 0.950 . S
H1414 C1426 0.950 . S
H1415 C1427 0.950 . S
C1416 H1408 0.950 . S
C1416 C1417 1.386 . S
C1416 C1418 1.391 . S
C1417 C1416 1.386 . S
C1417 C1421 1.393 . S
C1418 H1410 0.950 . S
C1418 C1416 1.391 . S
C1418 C1419 1.400 . S
C1419 C1418 1.400 . S
C1419 C1420 1.398 . S
C1419 C1425 1.491 . S
C1420 H1411 0.950 . S
C1420 C1419 1.398 . S
C1420 C1421 1.391 . S
C1421 H1409 0.950 . S
C1421 C1417 1.393 . S
C1421 C1420 1.391 . S
C1422 H1412 0.950 . S
C1422 C1423 1.386 . S
C1422 C1424 1.391 . S
C1423 C1422 1.386 . S
C1423 C1427 1.393 . S
C1424 H1413 0.950 . S
C1424 C1422 1.391 . S
C1424 C1425 1.400 . S
C1425 C1419 1.491 . S
C1425 C1424 1.400 . S
C1425 C1426 1.398 . S
C1426 H1414 0.950 . S
C1426 C1425 1.398 . S
C1426 C1427 1.391 . S
C1427 H1415 0.950 . S
C1427 C1423 1.393 . S
C1427 C1426 1.391 . S
H1428 C1436 0.950 . S
H1429 C1441 0.950 . S
H1430 C1438 0.950 . S
H1431 C1440 0.950 . S
H1432 C1442 0.950 . S
H1433 C1444 0.950 . S
H1434 C1446 0.950 . S
H1435 C1447 0.950 . S
C1436 H1428 0.950 . S
C1436 C1437 1.386 . S
C1436 C1438 1.391 . S
C1437 C1436 1.386 . S
C1437 C1441 1.393 . S
C1438 H1430 0.950 . S
C1438 C1436 1.391 . S
C1438 C1439 1.400 . S
C1439 C1438 1.400 . S
C1439 C1440 1.398 . S
C1439 C1445 1.491 . S
C1440 H1431 0.950 . S
C1440 C1439 1.398 . S
C1440 C1441 1.391 . S
C1441 H1429 0.950 . S
C1441 C1437 1.393 . S
C1441 C1440 1.391 . S
C1442 H1432 0.950 . S
C1442 C1443 1.386 . S
C1442 C1444 1.391 . S
C1443 C1442 1.386 . S
C1443 C1447 1.393 . S
C1444 H1433 0.950 . S
C1444 C1442 1.391 . S
C1444 C1445 1.400 . S
C1445 C1439 1.491 . S
C1445 C1444 1.400 . S
C1445 C1446 1.398 . S
C1446 H1434 0.950 . S
C1446 C1445 1.398 . S
C1446 C1447 1.391 . S
C1447 H1435 0.950 . S
C1447 C1443 1.393 . S
C1447 C1446 1.391 . S
H1448 C1456 0.950 . S
H1449 C1461 0.950 . S
H1450 C1458 0.950 . S
H1451 C1460 0.950 . S
H1452 C1462 0.950 . S
H1453 C1464 0.950 . S
H1454 C1466 0.950 . S
H1455 C1467 0.950 . S
C1456 H1448 0.950 . S
C1456 C1457 1.386 . S
C1456 C1458 1.391 . S
C1457 C1456 1.386 . S
C1457 C1461 1.393 . S
C1458 H1450 0.950 . S
C1458 C1456 1.391 . S
C1458 C1459 1.400 . S
C1459 C1458 1.400 . S
C1459 C1460 1.398 . S
C1459 C1465 1.491 . S
C1460 H1451 0.950 . S
C1460 C1459 1.398 . S
C1460 C1461 1.391 . S
C1461 H1449 0.950 . S
C1461 C1457 1.393 . S
C1461 C1460 1.391 . S
C1462 H1452 0.950 . S
C1462 C1463 1.386 . S
C1462 C1464 1.391 . S
C1463 C1462 1.386 . S
C1463 C1467 1.393 . S
C1464 H1453 0.950 . S
C1464 C1462 1.391 . S
C1464 C1465 1.400 . S
C1465 C1459 1.491 . S
C1465 C1464 1.400 . S
C1465 C1466 1.398 . S
C1466 H1454 0.950 . S
C1466 C1465 1.398 . S
C1466 C1467 1.391 . S
C1467 H1455 0.950 . S
C1467 C1463 1.393 . S
C1467 C1466 1.391 . S
H1468 C1476 0.950 . S
H1469 C1481 0.950 . S
H1470 C1478 0.950 . S
H1471 C1480 0.950 . S
H1472 C1482 0.950 . S
H1473 C1484 0.950 . S
H1474 C1486 0.950 . S
H1475 C1487 0.950 . S
C1476 H1468 0.950 . S
C1476 C1477 1.386 . S
C1476 C1478 1.391 . S
C1477 C1476 1.386 . S
C1477 C1481 1.393 . S
C1478 H1470 0.950 . S
C1478 C1476 1.391 . S
C1478 C1479 1.400 . S
C1479 C1478 1.400 . S
C1479 C1480 1.398 . S
C1479 C1485 1.491 . S
C1480 H1471 0.950 . S
C1480 C1479 1.398 . S
C1480 C1481 1.391 . S
C1481 H1469 0.950 . S
C1481 C1477 1.393 . S
C1481 C1480 1.391 . S
C1482 H1472 0.950 . S
C1482 C1483 1.386 . S
C1482 C1484 1.391 . S
C1483 C1482 1.386 . S
C1483 C1487 1.393 . S
C1484 H1473 0.950 . S
C1484 C1482 1.391 . S
C1484 C1485 1.400 . S
C1485 C1479 1.491 . S
C1485 C1484 1.400 . S
C1485 C1486 1.398 . S
C1486 H1474 0.950 . S
C1486 C1485 1.398 . S
C1486 C1487 1.391 . S
C1487 H1475 0.950 . S
C1487 C1483 1.393 . S
C1487 C1486 1.391 . S
H1488 C1496 0.950 . S
H1489 C1501 0.950 . S
H1490 C1498 0.950 . S
H1491 C1500 0.950 . S
H1492 C1502 0.950 . S
H1493 C1504 0.950 . S
H1494 C1506 0.950 . S
H1495 C1507 0.950 . S
C1496 H1488 0.950 . S
C1496 C1497 1.386 . S
C1496 C1498 1.391 . S
C1497 C1496 1.386 . S
C1497 C1501 1.393 . S
C1498 H1490 0.950 . S
C1498 C1496 1.391 . S
C1498 C1499 1.400 . S
C1499 C1498 1.400 . S
C1499 C1500 1.398 . S
C1499 C1505 1.491 . S
C1500 H1491 0.950 . S
C1500 C1499 1.398 . S
C1500 C1501 1.391 . S
C1501 H1489 0.950 . S
C1501 C1497 1.393 . S
C1501 C1500 1.391 . S
C1502 H1492 0.950 . S
C1502 C1503 1.386 . S
C1502 C1504 1.391 . S
C1503 C1502 1.386 . S
C1503 C1507 1.393 . S
C1504 H1493 0.950 . S
C1504 C1502 1.391 . S
C1504 C1505 1.400 . S
C1505 C1499 1.491 . S
C1505 C1504 1.400 . S
C1505 C1506 1.398 . S
C1506 H1494 0.950 . S
C1506 C1505 1.398 . S
C1506 C1507 1.391 . S
C1507 H1495 0.950 . S
C1507 C1503 1.393 . S
C1507 C1506 1.391 . S
H1508 C1516 0.950 . S
H1509 C1521 0.950 . S
H1510 C1518 0.950 . S
H1511 C1520 0.950 . S
H1512 C1522 0.950 . S
H1513 C1524 0.950 . S
H1514 C1526 0.950 . S
H1515 C1527 0.950 . S
C1516 H1508 0.950 . S
C1516 C1517 1.386 . S
C1516 C1518 1.391 . S
C1517 C1516 1.386 . S
C1517 C1521 1.393 . S
C1518 H1510 0.950 . S
C1518 C1516 1.391 . S
C1518 C1519 1.400 . S
C1519 C1518 1.400 . S
C1519 C1520 1.398 . S
C1519 C1525 1.491 . S
C1520 H1511 0.950 . S
C1520 C1519 1.398 . S
C1520 C1521 1.391 . S
C1521 H1509 0.950 . S
C1521 C1517 1.393 . S
C1521 C1520 1.391 . S
C1522 H1512 0.950 . S
C1522 C1523 1.386 . S
C1522 C1524 1.391 . S
C1523 C1522 1.386 . S
C1523 C1527 1.393 . S
C1524 H1513 0.950 . S
C1524 C1522 1.391 . S
C1524 C1525 1.400 . S
C1525 C1519 1.491 . S
C1525 C1524 1.400 . S
C1525 C1526 1.398 . S
C1526 H1514 0.950 . S
C1526 C1525 1.398 . S
C1526 C1527 1.391 . S
C1527 H1515 0.950 . S
C1527 C1523 1.393 . S
C1527 C1526 1.391 . S
H1528 C1536 0.950 . S
H1529 C1541 0.950 . S
H1530 C1538 0.950 . S
H1531 C1540 0.950 . S
H1532 C1542 0.950 . S
H1533 C1544 0.950 . S
H1534 C1546 0.950 . S
H1535 C1547 0.950 . S
C1536 H1528 0.950 . S
C1536 C1537 1.386 . S
C1536 C1538 1.391 . S
C1537 C1536 1.386 . S
C1537 C1541 1.393 . S
C1538 H1530 0.950 . S
C1538 C1536 1.391 . S
C1538 C1539 1.400 . S
C1539 C1538 1.400 . S
C1539 C1540 1.398 . S
C1539 C1545 1.491 . S
C1540 H1531 0.950 . S
C1540 C1539 1.398 . S
C1540 C1541 1.391 . S
C1541 H1529 0.950 . S
C1541 C1537 1.393 . S
C1541 C1540 1.391 . S
C1542 H1532 0.950 . S
C1542 C1543 1.386 . S
C1542 C1544 1.391 . S
C1543 C1542 1.386 . S
C1543 C1547 1.393 . S
C1544 H1533 0.950 . S
C1544 C1542 1.391 . S
C1544 C1545 1.400 . S
C1545 C1539 1.491 . S
C1545 C1544 1.400 . S
C1545 C1546 1.398 . S
C1546 H1534 0.950 . S
C1546 C1545 1.398 . S
C1546 C1547 1.391 . S
C1547 H1535 0.950 . S
C1547 C1543 1.393 . S
C1547 C1546 1.391 . S
H1548 C1556 0.950 . S
H1549 C1561 0.950 . S
H1550 C1558 0.950 . S
H1551 C1560 0.950 . S
H1552 C1562 0.950 . S
H1553 C1564 0.950 . S
H1554 C1566 0.950 . S
H1555 C1567 0.950 . S
C1556 H1548 0.950 . S
C1556 C1557 1.386 . S
C1556 C1558 1.391 . S
C1557 C1556 1.386 . S
C1557 C1561 1.393 . S
C1558 H1550 0.950 . S
C1558 C1556 1.391 . S
C1558 C1559 1.400 . S
C1559 C1558 1.400 . S
C1559 C1560 1.398 . S
C1559 C1565 1.491 . S
C1560 H1551 0.950 . S
C1560 C1559 1.398 . S
C1560 C1561 1.391 . S
C1561 H1549 0.950 . S
C1561 C1557 1.393 . S
C1561 C1560 1.391 . S
C1562 H1552 0.950 . S
C1562 C1563 1.386 . S
C1562 C1564 1.391 . S
C1563 C1562 1.386 . S
C1563 C1567 1.393 . S
C1564 H1553 0.950 . S
C1564 C1562 1.391 . S
C1564 C1565 1.400 . S
C1565 C1559 1.491 . S
C1565 C1564 1.400 . S
C1565 C1566 1.398 . S
C1566 H1554 0.950 . S
C1566 C1565 1.398 . S
C1566 C1567 1.391 . S
C1567 H1555 0.950 . S
C1567 C1563 1.393 . S
C1567 C1566 1.391 . S
H1568 C1576 0.950 . S
H1569 C1581 0.950 . S
H1570 C1578 0.950 . S
H1571 C1580 0.950 . S
H1572 C1582 0.950 . S
H1573 C1584 0.950 . S
H1574 C1586 0.950 . S
H1575 C1587 0.950 . S
C1576 H1568 0.950 . S
C1576 C1577 1.386 . S
C1576 C1578 1.391 . S
C1577 C1576 1.386 . S
C1577 C1581 1.393 . S
C1578 H1570 0.950 . S
C1578 C1576 1.391 . S
C1578 C1579 1.400 . S
C1579 C1578 1.400 . S
C1579 C1580 1.398 . S
C1579 C1585 1.491 . S
C1580 H1571 0.950 . S
C1580 C1579 1.398 . S
C1580 C1581 1.391 . S
C1581 H1569 0.950 . S
C1581 C1577 1.393 . S
C1581 C1580 1.391 . S
C1582 H1572 0.950 . S
C1582 C1583 1.383 1_545 S
C1582 C1584 1.391 1_545 S
C1583 C1582 1.383 1_565 S
C1583 C1587 1.395 . S
C1584 H1573 0.950 . S
C1584 C1582 1.391 1_565 S
C1584 C1585 1.400 . S
C1585 C1579 1.491 . S
C1585 C1584 1.400 . S
C1585 C1586 1.398 . S
C1586 H1574 0.950 . S
C1586 C1585 1.398 . S
C1586 C1587 1.391 . S
C1587 H1575 0.950 . S
C1587 C1583 1.395 . S
C1587 C1586 1.391 . S
H1588 C1596 0.950 . S
H1589 C1601 0.950 . S
H1590 C1598 0.950 . S
H1591 C1600 0.950 . S
H1592 C1602 0.950 . S
H1593 C1604 0.950 . S
H1594 C1606 0.950 . S
H1595 C1607 0.950 . S
C1596 H1588 0.950 . S
C1596 C1597 1.386 1_455 S
C1596 C1598 1.391 . S
C1597 C1596 1.386 1_655 S
C1597 C1601 1.393 . S
C1598 H1590 0.950 . S
C1598 C1596 1.391 . S
C1598 C1599 1.400 . S
C1599 C1598 1.400 . S
C1599 C1600 1.398 . S
C1599 C1605 1.491 . S
C1600 H1591 0.950 . S
C1600 C1599 1.398 . S
C1600 C1601 1.391 1_455 S
C1601 H1589 0.950 . S
C1601 C1597 1.393 . S
C1601 C1600 1.391 1_655 S
C1602 H1592 0.950 . S
C1602 C1603 1.386 . S
C1602 C1604 1.391 . S
C1603 C1602 1.386 . S
C1603 C1607 1.393 . S
C1604 H1593 0.950 . S
C1604 C1602 1.391 . S
C1604 C1605 1.400 . S
C1605 C1599 1.491 . S
C1605 C1604 1.400 . S
C1605 C1606 1.398 . S
C1606 H1594 0.950 . S
C1606 C1605 1.398 . S
C1606 C1607 1.391 . S
C1607 H1595 0.950 . S
C1607 C1603 1.393 . S
C1607 C1606 1.391 . S
H1608 C1616 0.950 . S
H1609 C1621 0.950 . S
H1610 C1618 0.950 . S
H1611 C1620 0.950 . S
H1612 C1622 0.950 . S
H1613 C1624 0.950 . S
H1614 C1626 0.950 . S
H1615 C1627 0.950 . S
C1616 H1608 0.950 . S
C1616 C1617 1.386 . S
C1616 C1618 1.391 . S
C1617 C1616 1.386 . S
C1617 C1621 1.393 . S
C1618 H1610 0.950 . S
C1618 C1616 1.391 . S
C1618 C1619 1.400 . S
C1619 C1618 1.400 . S
C1619 C1620 1.398 . S
C1619 C1625 1.491 . S
C1620 H1611 0.950 . S
C1620 C1619 1.398 . S
C1620 C1621 1.391 . S
C1621 H1609 0.950 . S
C1621 C1617 1.393 . S
C1621 C1620 1.391 . S
C1622 H1612 0.950 . S
C1622 C1623 1.386 . S
C1622 C1624 1.391 . S
C1623 C1622 1.386 . S
C1623 C1627 1.393 . S
C1624 H1613 0.950 . S
C1624 C1622 1.391 . S
C1624 C1625 1.400 . S
C1625 C1619 1.491 . S
C1625 C1624 1.400 . S
C1625 C1626 1.398 . S
C1626 H1614 0.950 . S
C1626 C1625 1.398 . S
C1626 C1627 1.391 . S
C1627 H1615 0.950 . S
C1627 C1623 1.393 . S
C1627 C1626 1.391 . S
H1628 C1636 0.950 . S
H1629 C1641 0.950 . S
H1630 C1638 0.950 . S
H1631 C1640 0.950 . S
H1632 C1642 0.950 . S
H1633 C1644 0.950 . S
H1634 C1646 0.950 . S
H1635 C1647 0.950 . S
C1636 H1628 0.950 . S
C1636 C1637 1.386 1_565 S
C1636 C1638 1.391 1_565 S
C1637 C1636 1.386 1_545 S
C1637 C1641 1.393 . S
C1638 H1630 0.950 . S
C1638 C1636 1.391 1_545 S
C1638 C1639 1.400 . S
C1639 C1638 1.400 . S
C1639 C1640 1.398 . S
C1639 C1645 1.491 . S
C1640 H1631 0.950 . S
C1640 C1639 1.398 . S
C1640 C1641 1.391 . S
C1641 H1629 0.950 . S
C1641 C1637 1.393 . S
C1641 C1640 1.391 . S
C1642 H1632 0.950 . S
C1642 C1643 1.386 . S
C1642 C1644 1.391 . S
C1643 C1642 1.386 . S
C1643 C1647 1.393 . S
C1644 H1633 0.950 . S
C1644 C1642 1.391 . S
C1644 C1645 1.400 . S
C1645 C1639 1.491 . S
C1645 C1644 1.400 . S
C1645 C1646 1.398 . S
C1646 H1634 0.950 . S
C1646 C1645 1.398 . S
C1646 C1647 1.391 . S
C1647 H1635 0.950 . S
C1647 C1643 1.393 . S
C1647 C1646 1.391 . S
H1648 C1656 0.950 . S
H1649 C1661 0.950 . S
H1650 C1658 0.950 . S
H1651 C1660 0.950 . S
H1652 C1662 0.950 . S
H1653 C1664 0.950 . S
H1654 C1666 0.968 . S
H1655 C1667 0.950 . S
C1656 H1648 0.950 . S
C1656 C1657 1.386 . S
C1656 C1658 1.391 . S
C1657 C1656 1.386 . S
C1657 C1661 1.393 . S
C1658 H1650 0.950 . S
C1658 C1656 1.391 . S
C1658 C1659 1.400 . S
C1659 C1658 1.400 . S
C1659 C1660 1.398 . S
C1659 C1665 1.491 . S
C1660 H1651 0.950 . S
C1660 C1659 1.398 . S
C1660 C1661 1.391 . S
C1661 H1649 0.950 . S
C1661 C1657 1.393 . S
C1661 C1660 1.391 . S
C1662 H1652 0.950 . S
C1662 C1663 1.355 1_655 S
C1662 C1664 1.391 . S
C1663 C1662 1.355 1_455 S
C1663 C1667 1.423 . S
C1664 H1653 0.950 . S
C1664 C1662 1.391 . S
C1664 C1665 1.400 . S
C1665 C1659 1.491 . S
C1665 C1664 1.400 . S
C1665 C1666 1.381 1_655 S
C1666 H1654 0.968 . S
C1666 C1665 1.381 1_455 S
C1666 C1667 1.391 . S
C1667 H1655 0.950 . S
C1667 C1663 1.423 . S
C1667 C1666 1.391 . S
H1668 C1676 0.950 . S
H1669 C1681 0.950 . S
H1670 C1678 0.950 . S
H1671 C1680 0.950 . S
H1672 C1682 0.950 . S
H1673 C1684 0.950 . S
H1674 C1686 0.950 . S
H1675 C1687 0.950 . S
C1676 H1668 0.950 . S
C1676 C1677 1.386 . S
C1676 C1678 1.391 . S
C1677 C1676 1.386 . S
C1677 C1681 1.393 . S
C1678 H1670 0.950 . S
C1678 C1676 1.391 . S
C1678 C1679 1.400 . S
C1679 C1678 1.400 . S
C1679 C1680 1.398 . S
C1679 C1685 1.491 . S
C1680 H1671 0.950 . S
C1680 C1679 1.398 . S
C1680 C1681 1.391 . S
C1681 H1669 0.950 . S
C1681 C1677 1.393 . S
C1681 C1680 1.391 . S
C1682 H1672 0.950 . S
C1682 C1683 1.386 . S
C1682 C1684 1.391 . S
C1683 C1682 1.386 . S
C1683 C1687 1.393 . S
C1684 H1673 0.950 . S
C1684 C1682 1.391 . S
C1684 C1685 1.400 . S
C1685 C1679 1.491 . S
C1685 C1684 1.400 . S
C1685 C1686 1.398 . S
C1686 H1674 0.950 . S
C1686 C1685 1.398 . S
C1686 C1687 1.391 . S
C1687 H1675 0.950 . S
C1687 C1683 1.393 . S
C1687 C1686 1.391 . S
H1688 C1696 0.950 . S
H1689 C1701 0.950 . S
H1690 C1698 0.950 . S
H1691 C1700 0.950 . S
H1692 C1702 0.950 . S
H1693 C1704 0.950 1_565 S
H1694 C1706 0.950 . S
H1695 C1707 0.950 . S
C1696 H1688 0.950 . S
C1696 C1697 1.386 . S
C1696 C1698 1.391 . S
C1697 C1696 1.386 . S
C1697 C1701 1.393 . S
C1698 H1690 0.950 . S
C1698 C1696 1.391 . S
C1698 C1699 1.400 . S
C1699 C1698 1.400 . S
C1699 C1700 1.398 . S
C1699 C1705 1.491 . S
C1700 H1691 0.950 . S
C1700 C1699 1.398 . S
C1700 C1701 1.391 . S
C1701 H1689 0.950 . S
C1701 C1697 1.393 . S
C1701 C1700 1.391 . S
C1702 H1692 0.950 . S
C1702 C1703 1.385 . S
C1702 C1704 1.391 1_565 S
C1703 C1702 1.385 . S
C1703 C1707 1.394 1_565 S
C1704 H1693 0.950 1_545 S
C1704 C1702 1.391 1_545 S
C1704 C1705 1.400 . S
C1705 C1699 1.491 . S
C1705 C1704 1.400 . S
C1705 C1706 1.398 . S
C1706 H1694 0.950 . S
C1706 C1705 1.398 . S
C1706 C1707 1.391 . S
C1707 H1695 0.950 . S
C1707 C1703 1.394 1_545 S
C1707 C1706 1.391 . S
H1708 C1716 0.950 . S
H1709 C1721 0.950 . S
H1710 C1718 0.950 . S
H1711 C1720 0.950 . S
H1712 C1722 0.950 . S
H1713 C1724 0.950 . S
H1714 C1726 0.950 . S
H1715 C1727 0.950 . S
C1716 H1708 0.950 . S
C1716 C1717 1.386 . S
C1716 C1718 1.391 . S
C1717 C1716 1.386 . S
C1717 C1721 1.393 . S
C1718 H1710 0.950 . S
C1718 C1716 1.391 . S
C1718 C1719 1.400 . S
C1719 C1718 1.400 . S
C1719 C1720 1.398 . S
C1719 C1725 1.491 . S
C1720 H1711 0.950 . S
C1720 C1719 1.398 . S
C1720 C1721 1.391 . S
C1721 H1709 0.950 . S
C1721 C1717 1.393 . S
C1721 C1720 1.391 . S
C1722 H1712 0.950 . S
C1722 C1723 1.380 . S
C1722 C1724 1.391 1_455 S
C1723 C1722 1.380 . S
C1723 C1727 1.349 1_455 S
C1724 H1713 0.950 . S
C1724 C1722 1.391 1_655 S
C1724 C1725 1.400 . S
C1725 C1719 1.491 . S
C1725 C1724 1.400 . S
C1725 C1726 1.398 . S
C1726 H1714 0.950 . S
C1726 C1725 1.398 . S
C1726 C1727 1.391 . S
C1727 H1715 0.950 . S
C1727 C1723 1.349 1_655 S
C1727 C1726 1.391 . S
H1728 C1736 0.950 . S
H1729 C1741 0.950 . S
H1730 C1738 0.950 . S
H1731 C1740 0.950 . S
H1732 C1742 0.950 . S
H1733 C1744 0.950 . S
H1734 C1746 0.950 . S
H1735 C1747 0.950 . S
C1736 H1728 0.950 . S
C1736 C1737 1.386 . S
C1736 C1738 1.391 . S
C1737 C1736 1.386 . S
C1737 C1741 1.393 . S
C1738 H1730 0.950 . S
C1738 C1736 1.391 . S
C1738 C1739 1.400 . S
C1739 C1738 1.400 . S
C1739 C1740 1.398 . S
C1739 C1745 1.491 . S
C1740 H1731 0.950 . S
C1740 C1739 1.398 . S
C1740 C1741 1.391 . S
C1741 H1729 0.950 . S
C1741 C1737 1.393 . S
C1741 C1740 1.391 . S
C1742 H1732 0.950 . S
C1742 C1743 1.386 . S
C1742 C1744 1.391 . S
C1743 C1742 1.386 . S
C1743 C1747 1.393 . S
C1744 H1733 0.950 . S
C1744 C1742 1.391 . S
C1744 C1745 1.400 . S
C1745 C1739 1.491 . S
C1745 C1744 1.400 . S
C1745 C1746 1.398 . S
C1746 H1734 0.950 . S
C1746 C1745 1.398 . S
C1746 C1747 1.391 . S
C1747 H1735 0.950 . S
C1747 C1743 1.393 . S
C1747 C1746 1.391 . S
H1748 C1756 0.950 . S
H1749 C1761 0.950 . S
H1750 C1758 0.950 . S
H1751 C1760 0.950 . S
H1752 C1762 0.950 . S
H1753 C1764 0.950 . S
H1754 C1766 0.950 . S
H1755 C1767 0.959 . S
C1756 H1748 0.950 . S
C1756 C1757 1.386 . S
C1756 C1758 1.391 . S
C1757 C1756 1.386 . S
C1757 C1761 1.393 . S
C1758 H1750 0.950 . S
C1758 C1756 1.391 . S
C1758 C1759 1.400 . S
C1759 C1758 1.400 . S
C1759 C1760 1.398 . S
C1759 C1765 1.491 . S
C1760 H1751 0.950 . S
C1760 C1759 1.398 . S
C1760 C1761 1.391 . S
C1761 H1749 0.950 . S
C1761 C1757 1.393 . S
C1761 C1760 1.391 . S
C1762 H1752 0.950 . S
C1762 C1763 1.388 . S
C1762 C1764 1.391 . S
C1763 C1762 1.388 . S
C1763 C1767 1.397 1_565 S
C1764 H1753 0.950 . S
C1764 C1762 1.391 . S
C1764 C1765 1.400 . S
C1765 C1759 1.491 . S
C1765 C1764 1.400 . S
C1765 C1766 1.398 . S
C1766 H1754 0.950 . S
C1766 C1765 1.398 . S
C1766 C1767 1.377 1_565 S
C1767 H1755 0.959 . S
C1767 C1763 1.397 1_545 S
C1767 C1766 1.377 1_545 S
H1768 C1776 0.950 . S
H1769 C1781 0.950 . S
H1770 C1778 0.950 . S
H1771 C1780 0.950 . S
H1772 C1782 0.950 . S
H1773 C1784 0.950 . S
H1774 C1786 0.950 . S
H1775 C1787 0.950 . S
C1776 H1768 0.950 . S
C1776 C1777 1.386 1_455 S
C1776 C1778 1.391 . S
C1777 C1776 1.386 1_655 S
C1777 C1781 1.393 . S
C1778 H1770 0.950 . S
C1778 C1776 1.391 . S
C1778 C1779 1.400 . S
C1779 C1778 1.400 . S
C1779 C1780 1.398 . S
C1779 C1785 1.491 . S
C1780 H1771 0.950 . S
C1780 C1779 1.398 . S
C1780 C1781 1.391 1_455 S
C1781 H1769 0.950 . S
C1781 C1777 1.393 . S
C1781 C1780 1.391 1_655 S
C1782 H1772 0.950 . S
C1782 C1783 1.386 . S
C1782 C1784 1.391 . S
C1783 C1782 1.386 . S
C1783 C1787 1.393 . S
C1784 H1773 0.950 . S
C1784 C1782 1.391 . S
C1784 C1785 1.400 . S
C1785 C1779 1.491 . S
C1785 C1784 1.400 . S
C1785 C1786 1.398 . S
C1786 H1774 0.950 . S
C1786 C1785 1.398 . S
C1786 C1787 1.391 . S
C1787 H1775 0.950 . S
C1787 C1783 1.393 . S
C1787 C1786 1.391 . S
H1788 C1796 0.950 . S
H1789 C1801 0.950 . S
H1790 C1798 0.950 . S
H1791 C1800 0.950 . S
H1792 C1802 0.950 . S
H1793 C1804 0.950 . S
H1794 C1806 0.950 . S
H1795 C1807 0.950 . S
C1796 H1788 0.950 . S
C1796 C1797 1.386 . S
C1796 C1798 1.391 . S
C1797 C1796 1.386 . S
C1797 C1801 1.393 . S
C1798 H1790 0.950 . S
C1798 C1796 1.391 . S
C1798 C1799 1.400 . S
C1799 C1798 1.400 . S
C1799 C1800 1.398 . S
C1799 C1805 1.491 1_455 S
C1800 H1791 0.950 . S
C1800 C1799 1.398 . S
C1800 C1801 1.391 . S
C1801 H1789 0.950 . S
C1801 C1797 1.393 . S
C1801 C1800 1.391 . S
C1802 H1792 0.950 . S
C1802 C1803 1.386 . S
C1802 C1804 1.391 . S
C1803 C1802 1.386 . S
C1803 C1807 1.393 . S
C1804 H1793 0.950 . S
C1804 C1802 1.391 . S
C1804 C1805 1.400 . S
C1805 C1799 1.491 1_655 S
C1805 C1804 1.400 . S
C1805 C1806 1.398 . S
C1806 H1794 0.950 . S
C1806 C1805 1.398 . S
C1806 C1807 1.391 . S
C1807 H1795 0.950 . S
C1807 C1803 1.393 . S
C1807 C1806 1.391 . S
H1808 C1816 0.950 . S
H1809 C1821 0.950 . S
H1810 C1818 0.950 . S
H1811 C1820 0.950 . S
H1812 C1822 0.950 . S
H1813 C1824 0.950 . S
H1814 C1826 0.950 . S
H1815 C1827 0.950 . S
C1816 H1808 0.950 . S
C1816 C1817 1.386 . S
C1816 C1818 1.391 . S
C1817 C1816 1.386 . S
C1817 C1821 1.393 . S
C1818 H1810 0.950 . S
C1818 C1816 1.391 . S
C1818 C1819 1.400 . S
C1819 C1818 1.400 . S
C1819 C1820 1.398 . S
C1819 C1825 1.491 . S
C1820 H1811 0.950 . S
C1820 C1819 1.398 . S
C1820 C1821 1.391 . S
C1821 H1809 0.950 . S
C1821 C1817 1.393 . S
C1821 C1820 1.391 . S
C1822 H1812 0.950 . S
C1822 C1823 1.386 . S
C1822 C1824 1.391 . S
C1823 C1822 1.386 . S
C1823 C1827 1.393 . S
C1824 H1813 0.950 . S
C1824 C1822 1.391 . S
C1824 C1825 1.400 . S
C1825 C1819 1.491 . S
C1825 C1824 1.400 . S
C1825 C1826 1.398 . S
C1826 H1814 0.950 . S
C1826 C1825 1.398 . S
C1826 C1827 1.391 . S
C1827 H1815 0.950 . S
C1827 C1823 1.393 . S
C1827 C1826 1.391 . S
H1828 C1836 0.950 . S
H1829 C1841 0.950 . S
H1830 C1838 0.950 . S
H1831 C1840 0.950 . S
H1832 C1842 0.950 . S
H1833 C1844 0.950 . S
H1834 C1846 0.950 . S
H1835 C1847 0.950 . S
C1836 H1828 0.950 . S
C1836 C1837 1.386 . S
C1836 C1838 1.391 . S
C1837 C1836 1.386 . S
C1837 C1841 1.393 . S
C1838 H1830 0.950 . S
C1838 C1836 1.391 . S
C1838 C1839 1.400 . S
C1839 C1838 1.400 . S
C1839 C1840 1.398 . S
C1839 C1845 1.491 1_565 S
C1840 H1831 0.950 . S
C1840 C1839 1.398 . S
C1840 C1841 1.391 . S
C1841 H1829 0.950 . S
C1841 C1837 1.393 . S
C1841 C1840 1.391 . S
C1842 H1832 0.950 . S
C1842 C1843 1.386 . S
C1842 C1844 1.391 . S
C1843 C1842 1.386 . S
C1843 C1847 1.393 . S
C1844 H1833 0.950 . S
C1844 C1842 1.391 . S
C1844 C1845 1.400 . S
C1845 C1839 1.491 1_545 S
C1845 C1844 1.400 . S
C1845 C1846 1.398 . S
C1846 H1834 0.950 . S
C1846 C1845 1.398 . S
C1846 C1847 1.391 . S
C1847 H1835 0.950 . S
C1847 C1843 1.393 . S
C1847 C1846 1.391 . S
H1848 C1856 0.950 . S
H1849 C1861 0.950 . S
H1850 C1858 0.950 . S
H1851 C1860 0.950 . S
H1852 C1862 0.950 . S
H1853 C1864 0.950 . S
H1854 C1866 0.950 . S
H1855 C1867 0.950 . S
C1856 H1848 0.950 . S
C1856 C1857 1.386 . S
C1856 C1858 1.391 . S
C1857 C1856 1.386 . S
C1857 C1861 1.393 . S
C1858 H1850 0.950 . S
C1858 C1856 1.391 . S
C1858 C1859 1.400 . S
C1859 C1858 1.400 . S
C1859 C1860 1.398 . S
C1859 C1865 1.491 1_545 S
C1860 H1851 0.950 . S
C1860 C1859 1.398 . S
C1860 C1861 1.391 . S
C1861 H1849 0.950 . S
C1861 C1857 1.393 . S
C1861 C1860 1.391 . S
C1862 H1852 0.950 . S
C1862 C1863 1.386 . S
C1862 C1864 1.391 . S
C1863 C1862 1.386 . S
C1863 C1867 1.393 . S
C1864 H1853 0.950 . S
C1864 C1862 1.391 . S
C1864 C1865 1.400 . S
C1865 C1859 1.491 1_565 S
C1865 C1864 1.400 . S
C1865 C1866 1.398 . S
C1866 H1854 0.950 . S
C1866 C1865 1.398 . S
C1866 C1867 1.391 . S
C1867 H1855 0.950 . S
C1867 C1863 1.393 . S
C1867 C1866 1.391 . S
H1868 C1876 0.950 . S
H1869 C1881 0.950 . S
H1870 C1878 0.950 . S
H1871 C1880 0.950 . S
H1872 C1882 0.950 . S
H1873 C1884 0.950 . S
H1874 C1886 0.950 . S
H1875 C1887 0.950 . S
C1876 H1868 0.950 . S
C1876 C1877 1.386 . S
C1876 C1878 1.391 . S
C1877 C1876 1.386 . S
C1877 C1881 1.393 . S
C1878 H1870 0.950 . S
C1878 C1876 1.391 . S
C1878 C1879 1.400 . S
C1879 C1878 1.400 . S
C1879 C1880 1.398 . S
C1879 C1885 1.491 1_655 S
C1880 H1871 0.950 . S
C1880 C1879 1.398 . S
C1880 C1881 1.391 . S
C1881 H1869 0.950 . S
C1881 C1877 1.393 . S
C1881 C1880 1.391 . S
C1882 H1872 0.950 . S
C1882 C1883 1.386 . S
C1882 C1884 1.391 . S
C1883 C1882 1.386 . S
C1883 C1887 1.393 . S
C1884 H1873 0.950 . S
C1884 C1882 1.391 . S
C1884 C1885 1.400 . S
C1885 C1879 1.491 1_455 S
C1885 C1884 1.400 . S
C1885 C1886 1.398 . S
C1886 H1874 0.950 . S
C1886 C1885 1.398 . S
C1886 C1887 1.391 . S
C1887 H1875 0.950 . S
C1887 C1883 1.393 . S
C1887 C1886 1.391 . S
H1888 C1896 0.950 . S
H1889 C1901 0.950 . S
H1890 C1898 0.950 . S
H1891 C1900 0.950 . S
H1892 C1902 0.950 . S
H1893 C1904 0.950 . S
H1894 C1906 0.950 . S
H1895 C1907 0.950 . S
C1896 H1888 0.950 . S
C1896 C1897 1.386 . S
C1896 C1898 1.391 . S
C1897 C1896 1.386 . S
C1897 C1901 1.393 . S
C1898 H1890 0.950 . S
C1898 C1896 1.391 . S
C1898 C1899 1.400 . S
C1899 C1898 1.400 . S
C1899 C1900 1.398 . S
C1899 C1905 1.491 . S
C1900 H1891 0.950 . S
C1900 C1899 1.398 . S
C1900 C1901 1.391 . S
C1901 H1889 0.950 . S
C1901 C1897 1.393 . S
C1901 C1900 1.391 . S
C1902 H1892 0.950 . S
C1902 C1903 1.386 . S
C1902 C1904 1.391 . S
C1903 C1902 1.386 . S
C1903 C1907 1.393 . S
C1904 H1893 0.950 . S
C1904 C1902 1.391 . S
C1904 C1905 1.400 . S
C1905 C1899 1.491 . S
C1905 C1904 1.400 . S
C1905 C1906 1.398 . S
C1906 H1894 0.950 . S
C1906 C1905 1.398 . S
C1906 C1907 1.391 . S
C1907 H1895 0.950 . S
C1907 C1903 1.393 . S
C1907 C1906 1.391 . S
H1908 C1916 0.950 . S
H1909 C1921 0.950 . S
H1910 C1918 0.950 . S
H1911 C1920 0.950 . S
H1912 C1922 0.950 . S
H1913 C1924 0.950 . S
H1914 C1926 0.950 . S
H1915 C1927 0.950 . S
C1916 H1908 0.950 . S
C1916 C1917 1.386 . S
C1916 C1918 1.391 . S
C1917 C1916 1.386 . S
C1917 C1921 1.393 . S
C1918 H1910 0.950 . S
C1918 C1916 1.391 . S
C1918 C1919 1.400 . S
C1919 C1918 1.400 . S
C1919 C1920 1.398 . S
C1919 C1925 1.491 . S
C1920 H1911 0.950 . S
C1920 C1919 1.398 . S
C1920 C1921 1.391 . S
C1921 H1909 0.950 . S
C1921 C1917 1.393 . S
C1921 C1920 1.391 . S
C1922 H1912 0.950 . S
C1922 C1923 1.386 . S
C1922 C1924 1.391 . S
C1923 C1922 1.386 . S
C1923 C1927 1.393 . S
C1924 H1913 0.950 . S
C1924 C1922 1.391 . S
C1924 C1925 1.400 . S
C1925 C1919 1.491 . S
C1925 C1924 1.400 . S
C1925 C1926 1.398 . S
C1926 H1914 0.950 . S
C1926 C1925 1.398 . S
C1926 C1927 1.391 . S
C1927 H1915 0.950 . S
C1927 C1923 1.393 . S
C1927 C1926 1.391 . S
H1928 C1936 0.950 . S
H1929 C1941 0.950 . S
H1930 C1938 0.950 . S
H1931 C1940 0.950 . S
H1932 C1942 0.950 . S
H1933 C1944 0.950 . S
H1934 C1946 0.950 . S
H1935 C1947 0.950 . S
C1936 H1928 0.950 . S
C1936 C1937 1.386 . S
C1936 C1938 1.391 . S
C1937 C1936 1.386 . S
C1937 C1941 1.393 . S
C1938 H1930 0.950 . S
C1938 C1936 1.391 . S
C1938 C1939 1.400 . S
C1939 C1938 1.400 . S
C1939 C1940 1.398 . S
C1939 C1945 1.491 . S
C1940 H1931 0.950 . S
C1940 C1939 1.398 . S
C1940 C1941 1.391 . S
C1941 H1929 0.950 . S
C1941 C1937 1.393 . S
C1941 C1940 1.391 . S
C1942 H1932 0.950 . S
C1942 C1943 1.386 . S
C1942 C1944 1.391 . S
C1943 C1942 1.386 . S
C1943 C1947 1.393 . S
C1944 H1933 0.950 . S
C1944 C1942 1.391 . S
C1944 C1945 1.400 . S
C1945 C1939 1.491 . S
C1945 C1944 1.400 . S
C1945 C1946 1.398 . S
C1946 H1934 0.950 . S
C1946 C1945 1.398 . S
C1946 C1947 1.391 . S
C1947 H1935 0.950 . S
C1947 C1943 1.393 . S
C1947 C1946 1.391 . S
H1948 C1956 0.950 . S
H1949 C1961 0.950 . S
H1950 C1958 0.950 . S
H1951 C1960 0.950 . S
H1952 C1962 0.950 . S
H1953 C1964 0.950 . S
H1954 C1966 0.950 . S
H1955 C1967 0.950 . S
C1956 H1948 0.950 . S
C1956 C1957 1.386 . S
C1956 C1958 1.391 . S
C1957 C1956 1.386 . S
C1957 C1961 1.393 . S
C1958 H1950 0.950 . S
C1958 C1956 1.391 . S
C1958 C1959 1.400 . S
C1959 C1958 1.400 . S
C1959 C1960 1.398 . S
C1959 C1965 1.491 . S
C1960 H1951 0.950 . S
C1960 C1959 1.398 . S
C1960 C1961 1.391 . S
C1961 H1949 0.950 . S
C1961 C1957 1.393 . S
C1961 C1960 1.391 . S
C1962 H1952 0.950 . S
C1962 C1963 1.386 . S
C1962 C1964 1.391 . S
C1963 C1962 1.386 . S
C1963 C1967 1.393 . S
C1964 H1953 0.950 . S
C1964 C1962 1.391 . S
C1964 C1965 1.400 . S
C1965 C1959 1.491 . S
C1965 C1964 1.400 . S
C1965 C1966 1.398 . S
C1966 H1954 0.950 . S
C1966 C1965 1.398 . S
C1966 C1967 1.391 . S
C1967 H1955 0.950 . S
C1967 C1963 1.393 . S
C1967 C1966 1.391 . S
H1968 C1976 0.950 . S
H1969 C1981 0.950 . S
H1970 C1978 0.950 . S
H1971 C1980 0.950 . S
H1972 C1982 0.950 . S
H1973 C1984 0.950 . S
H1974 C1986 0.950 . S
H1975 C1987 0.950 . S
C1976 H1968 0.950 . S
C1976 C1977 1.386 . S
C1976 C1978 1.391 . S
C1977 C1976 1.386 . S
C1977 C1981 1.393 . S
C1978 H1970 0.950 . S
C1978 C1976 1.391 . S
C1978 C1979 1.400 . S
C1979 C1978 1.400 . S
C1979 C1980 1.398 . S
C1979 C1985 1.491 . S
C1980 H1971 0.950 . S
C1980 C1979 1.398 . S
C1980 C1981 1.391 . S
C1981 H1969 0.950 . S
C1981 C1977 1.393 . S
C1981 C1980 1.391 . S
C1982 H1972 0.950 . S
C1982 C1983 1.386 . S
C1982 C1984 1.391 . S
C1983 C1982 1.386 . S
C1983 C1987 1.393 . S
C1984 H1973 0.950 . S
C1984 C1982 1.391 . S
C1984 C1985 1.400 . S
C1985 C1979 1.491 . S
C1985 C1984 1.400 . S
C1985 C1986 1.398 . S
C1986 H1974 0.950 . S
C1986 C1985 1.398 . S
C1986 C1987 1.391 . S
C1987 H1975 0.950 . S
C1987 C1983 1.393 . S
C1987 C1986 1.391 . S
H1988 C1996 0.950 . S
H1989 C2001 0.950 . S
H1990 C1998 0.950 . S
H1991 C2000 0.950 . S
H1992 C2002 0.950 . S
H1993 C2004 0.950 . S
H1994 C2006 0.950 . S
H1995 C2007 0.950 . S
C1996 H1988 0.950 . S
C1996 C1997 1.386 . S
C1996 C1998 1.391 . S
C1997 C1996 1.386 . S
C1997 C2001 1.393 . S
C1998 H1990 0.950 . S
C1998 C1996 1.391 . S
C1998 C1999 1.400 . S
C1999 C1998 1.400 . S
C1999 C2000 1.398 . S
C1999 C2005 1.491 . S
C2000 H1991 0.950 . S
C2000 C1999 1.398 . S
C2000 C2001 1.391 . S
C2001 H1989 0.950 . S
C2001 C1997 1.393 . S
C2001 C2000 1.391 . S
C2002 H1992 0.950 . S
C2002 C2003 1.386 . S
C2002 C2004 1.391 . S
C2003 C2002 1.386 . S
C2003 C2007 1.393 . S
C2004 H1993 0.950 . S
C2004 C2002 1.391 . S
C2004 C2005 1.400 . S
C2005 C1999 1.491 . S
C2005 C2004 1.400 . S
C2005 C2006 1.398 . S
C2006 H1994 0.950 . S
C2006 C2005 1.398 . S
C2006 C2007 1.391 . S
C2007 H1995 0.950 . S
C2007 C2003 1.393 . S
C2007 C2006 1.391 . S
H2008 C2016 0.950 . S
H2009 C2021 0.950 . S
H2010 C2018 0.950 . S
H2011 C2020 0.950 . S
H2012 C2022 0.950 . S
H2013 C2024 0.950 . S
H2014 C2026 0.950 . S
H2015 C2027 0.950 . S
C2016 H2008 0.950 . S
C2016 C2017 1.386 . S
C2016 C2018 1.391 . S
C2017 C2016 1.386 . S
C2017 C2021 1.393 . S
C2018 H2010 0.950 . S
C2018 C2016 1.391 . S
C2018 C2019 1.400 . S
C2019 C2018 1.400 . S
C2019 C2020 1.398 . S
C2019 C2025 1.491 . S
C2020 H2011 0.950 . S
C2020 C2019 1.398 . S
C2020 C2021 1.391 . S
C2021 H2009 0.950 . S
C2021 C2017 1.393 . S
C2021 C2020 1.391 . S
C2022 H2012 0.950 . S
C2022 C2023 1.386 . S
C2022 C2024 1.391 . S
C2023 C2022 1.386 . S
C2023 C2027 1.393 . S
C2024 H2013 0.950 . S
C2024 C2022 1.391 . S
C2024 C2025 1.400 . S
C2025 C2019 1.491 . S
C2025 C2024 1.400 . S
C2025 C2026 1.398 . S
C2026 H2014 0.950 . S
C2026 C2025 1.398 . S
C2026 C2027 1.391 . S
C2027 H2015 0.950 . S
C2027 C2023 1.393 . S
C2027 C2026 1.391 . S
H2028 C2036 0.950 . S
H2029 C2041 0.950 . S
H2030 C2038 0.950 . S
H2031 C2040 0.950 . S
H2032 C2042 0.950 . S
H2033 C2044 0.950 . S
H2034 C2046 0.950 . S
H2035 C2047 0.950 . S
C2036 H2028 0.950 . S
C2036 C2037 1.386 . S
C2036 C2038 1.391 . S
C2037 C2036 1.386 . S
C2037 C2041 1.393 . S
C2038 H2030 0.950 . S
C2038 C2036 1.391 . S
C2038 C2039 1.400 . S
C2039 C2038 1.400 . S
C2039 C2040 1.398 . S
C2039 C2045 1.491 . S
C2040 H2031 0.950 . S
C2040 C2039 1.398 . S
C2040 C2041 1.391 . S
C2041 H2029 0.950 . S
C2041 C2037 1.393 . S
C2041 C2040 1.391 . S
C2042 H2032 0.950 . S
C2042 C2043 1.386 . S
C2042 C2044 1.391 . S
C2043 C2042 1.386 . S
C2043 C2047 1.393 . S
C2044 H2033 0.950 . S
C2044 C2042 1.391 . S
C2044 C2045 1.400 . S
C2045 C2039 1.491 . S
C2045 C2044 1.400 . S
C2045 C2046 1.398 . S
C2046 H2034 0.950 . S
C2046 C2045 1.398 . S
C2046 C2047 1.391 . S
C2047 H2035 0.950 . S
C2047 C2043 1.393 . S
C2047 C2046 1.391 . S
H2048 C2056 0.950 . S
H2049 C2061 0.950 . S
H2050 C2058 0.950 . S
H2051 C2060 0.950 . S
H2052 C2062 0.950 . S
H2053 C2064 0.950 . S
H2054 C2066 0.950 . S
H2055 C2067 0.950 . S
C2056 H2048 0.950 . S
C2056 C2057 1.386 . S
C2056 C2058 1.391 . S
C2057 C2056 1.386 . S
C2057 C2061 1.393 . S
C2058 H2050 0.950 . S
C2058 C2056 1.391 . S
C2058 C2059 1.400 . S
C2059 C2058 1.400 . S
C2059 C2060 1.398 . S
C2059 C2065 1.491 . S
C2060 H2051 0.950 . S
C2060 C2059 1.398 . S
C2060 C2061 1.391 . S
C2061 H2049 0.950 . S
C2061 C2057 1.393 . S
C2061 C2060 1.391 . S
C2062 H2052 0.950 . S
C2062 C2063 1.386 . S
C2062 C2064 1.391 . S
C2063 C2062 1.386 . S
C2063 C2067 1.393 . S
C2064 H2053 0.950 . S
C2064 C2062 1.391 . S
C2064 C2065 1.400 . S
C2065 C2059 1.491 . S
C2065 C2064 1.400 . S
C2065 C2066 1.398 . S
C2066 H2054 0.950 . S
C2066 C2065 1.398 . S
C2066 C2067 1.391 . S
C2067 H2055 0.950 . S
C2067 C2063 1.393 . S
C2067 C2066 1.391 . S
H2068 C2076 0.950 . S
H2069 C2081 0.950 . S
H2070 C2078 0.950 . S
H2071 C2080 0.950 . S
H2072 C2082 0.950 . S
H2073 C2084 0.950 . S
H2074 C2086 0.950 . S
H2075 C2087 0.950 . S
C2076 H2068 0.950 . S
C2076 C2077 1.386 . S
C2076 C2078 1.391 . S
C2077 C2076 1.386 . S
C2077 C2081 1.393 . S
C2078 H2070 0.950 . S
C2078 C2076 1.391 . S
C2078 C2079 1.400 . S
C2079 C2078 1.400 . S
C2079 C2080 1.398 . S
C2079 C2085 1.491 . S
C2080 H2071 0.950 . S
C2080 C2079 1.398 . S
C2080 C2081 1.391 . S
C2081 H2069 0.950 . S
C2081 C2077 1.393 . S
C2081 C2080 1.391 . S
C2082 H2072 0.950 . S
C2082 C2083 1.386 . S
C2082 C2084 1.391 . S
C2083 C2082 1.386 . S
C2083 C2087 1.393 . S
C2084 H2073 0.950 . S
C2084 C2082 1.391 . S
C2084 C2085 1.400 . S
C2085 C2079 1.491 . S
C2085 C2084 1.400 . S
C2085 C2086 1.398 . S
C2086 H2074 0.950 . S
C2086 C2085 1.398 . S
C2086 C2087 1.391 . S
C2087 H2075 0.950 . S
C2087 C2083 1.393 . S
C2087 C2086 1.391 . S
H2088 C2096 0.950 . S
H2089 C2101 0.950 . S
H2090 C2098 0.950 . S
H2091 C2100 0.950 . S
H2092 C2102 0.950 . S
H2093 C2104 0.950 . S
H2094 C2106 0.950 . S
H2095 C2107 0.950 . S
C2096 H2088 0.950 . S
C2096 C2097 1.386 . S
C2096 C2098 1.391 . S
C2097 C2096 1.386 . S
C2097 C2101 1.393 . S
C2098 H2090 0.950 . S
C2098 C2096 1.391 . S
C2098 C2099 1.400 . S
C2099 C2098 1.400 . S
C2099 C2100 1.398 . S
C2099 C2105 1.491 . S
C2100 H2091 0.950 . S
C2100 C2099 1.398 . S
C2100 C2101 1.391 . S
C2101 H2089 0.950 . S
C2101 C2097 1.393 . S
C2101 C2100 1.391 . S
C2102 H2092 0.950 . S
C2102 C2103 1.386 . S
C2102 C2104 1.391 . S
C2103 C2102 1.386 . S
C2103 C2107 1.393 . S
C2104 H2093 0.950 . S
C2104 C2102 1.391 . S
C2104 C2105 1.400 . S
C2105 C2099 1.491 . S
C2105 C2104 1.400 . S
C2105 C2106 1.398 . S
C2106 H2094 0.950 . S
C2106 C2105 1.398 . S
C2106 C2107 1.391 . S
C2107 H2095 0.950 . S
C2107 C2103 1.393 . S
C2107 C2106 1.391 . S
H2108 C2116 0.950 . S
H2109 C2121 0.950 . S
H2110 C2118 0.950 . S
H2111 C2120 0.950 . S
H2112 C2122 0.950 . S
H2113 C2124 0.950 . S
H2114 C2126 0.950 . S
H2115 C2127 0.950 . S
C2116 H2108 0.950 . S
C2116 C2117 1.386 . S
C2116 C2118 1.391 . S
C2117 C2116 1.386 . S
C2117 C2121 1.393 . S
C2118 H2110 0.950 . S
C2118 C2116 1.391 . S
C2118 C2119 1.400 . S
C2119 C2118 1.400 . S
C2119 C2120 1.398 . S
C2119 C2125 1.491 . S
C2120 H2111 0.950 . S
C2120 C2119 1.398 . S
C2120 C2121 1.391 . S
C2121 H2109 0.950 . S
C2121 C2117 1.393 . S
C2121 C2120 1.391 . S
C2122 H2112 0.950 . S
C2122 C2123 1.386 . S
C2122 C2124 1.391 . S
C2123 C2122 1.386 . S
C2123 C2127 1.393 . S
C2124 H2113 0.950 . S
C2124 C2122 1.391 . S
C2124 C2125 1.400 . S
C2125 C2119 1.491 . S
C2125 C2124 1.400 . S
C2125 C2126 1.398 . S
C2126 H2114 0.950 . S
C2126 C2125 1.398 . S
C2126 C2127 1.391 . S
C2127 H2115 0.950 . S
C2127 C2123 1.393 . S
C2127 C2126 1.391 . S
H2128 C2136 0.950 . S
H2129 C2141 0.950 . S
H2130 C2138 0.950 . S
H2131 C2140 0.950 . S
H2132 C2142 0.950 . S
H2133 C2144 0.950 . S
H2134 C2146 0.950 . S
H2135 C2147 0.950 . S
C2136 H2128 0.950 . S
C2136 C2137 1.386 . S
C2136 C2138 1.391 . S
C2137 C2136 1.386 . S
C2137 C2141 1.393 . S
C2138 H2130 0.950 . S
C2138 C2136 1.391 . S
C2138 C2139 1.400 . S
C2139 C2138 1.400 . S
C2139 C2140 1.398 . S
C2139 C2145 1.491 . S
C2140 H2131 0.950 . S
C2140 C2139 1.398 . S
C2140 C2141 1.391 . S
C2141 H2129 0.950 . S
C2141 C2137 1.393 . S
C2141 C2140 1.391 . S
C2142 H2132 0.950 . S
C2142 C2143 1.386 . S
C2142 C2144 1.391 . S
C2143 C2142 1.386 . S
C2143 C2147 1.393 . S
C2144 H2133 0.950 . S
C2144 C2142 1.391 . S
C2144 C2145 1.400 . S
C2145 C2139 1.491 . S
C2145 C2144 1.400 . S
C2145 C2146 1.398 . S
C2146 H2134 0.950 . S
C2146 C2145 1.398 . S
C2146 C2147 1.391 . S
C2147 H2135 0.950 . S
C2147 C2143 1.393 . S
C2147 C2146 1.391 . S
H2148 C2156 0.950 . S
H2149 C2161 0.950 . S
H2150 C2158 0.950 1_455 S
H2151 C2160 0.950 . S
H2152 C2162 0.950 . S
H2153 C2164 0.950 1_655 S
H2154 C2166 0.950 . S
H2155 C2167 0.950 . S
C2156 H2148 0.950 . S
C2156 C2157 1.386 . S
C2156 C2158 1.391 . S
C2157 C2156 1.386 . S
C2157 C2161 1.393 . S
C2158 H2150 0.950 1_655 S
C2158 C2156 1.391 . S
C2158 C2159 1.400 . S
C2159 C2158 1.400 . S
C2159 C2160 1.398 . S
C2159 C2165 1.491 1_655 S
C2160 H2151 0.950 . S
C2160 C2159 1.398 . S
C2160 C2161 1.391 . S
C2161 H2149 0.950 . S
C2161 C2157 1.393 . S
C2161 C2160 1.391 . S
C2162 H2152 0.950 . S
C2162 C2163 1.386 . S
C2162 C2164 1.391 . S
C2163 C2162 1.386 . S
C2163 C2167 1.393 . S
C2164 H2153 0.950 1_455 S
C2164 C2162 1.391 . S
C2164 C2165 1.400 . S
C2165 C2159 1.491 1_455 S
C2165 C2164 1.400 . S
C2165 C2166 1.398 . S
C2166 H2154 0.950 . S
C2166 C2165 1.398 . S
C2166 C2167 1.391 . S
C2167 H2155 0.950 . S
C2167 C2163 1.393 . S
C2167 C2166 1.391 . S
H2168 C2176 0.950 . S
H2169 C2181 0.950 . S
H2170 C2178 0.950 . S
H2171 C2180 0.950 . S
H2172 C2182 0.950 . S
H2173 C2184 0.950 . S
H2174 C2186 0.950 . S
H2175 C2187 0.950 . S
C2176 H2168 0.950 . S
C2176 C2177 1.386 . S
C2176 C2178 1.391 . S
C2177 C2176 1.386 . S
C2177 C2181 1.393 . S
C2178 H2170 0.950 . S
C2178 C2176 1.391 . S
C2178 C2179 1.400 . S
C2179 C2178 1.400 . S
C2179 C2180 1.398 . S
C2179 C2185 1.491 . S
C2180 H2171 0.950 . S
C2180 C2179 1.398 . S
C2180 C2181 1.391 . S
C2181 H2169 0.950 . S
C2181 C2177 1.393 . S
C2181 C2180 1.391 . S
C2182 H2172 0.950 . S
C2182 C2183 1.386 . S
C2182 C2184 1.391 . S
C2183 C2182 1.386 . S
C2183 C2187 1.393 . S
C2184 H2173 0.950 . S
C2184 C2182 1.391 . S
C2184 C2185 1.400 . S
C2185 C2179 1.491 . S
C2185 C2184 1.400 . S
C2185 C2186 1.398 . S
C2186 H2174 0.950 . S
C2186 C2185 1.398 . S
C2186 C2187 1.391 . S
C2187 H2175 0.950 . S
C2187 C2183 1.393 . S
C2187 C2186 1.391 . S
H2188 C2196 0.950 . S
H2189 C2201 0.950 . S
H2190 C2198 0.950 . S
H2191 C2200 1.000 . S
H2192 C2202 0.950 . S
H2193 C2204 0.950 . S
H2194 C2206 1.000 . S
H2195 C2207 0.950 . S
C2196 H2188 0.950 . S
C2196 C2197 1.386 . S
C2196 C2198 1.391 . S
C2197 C2196 1.386 . S
C2197 C2201 1.393 . S
C2198 H2190 0.950 . S
C2198 C2196 1.391 . S
C2198 C2199 1.400 . S
C2199 C2198 1.400 . S
C2199 C2200 1.359 1_545 S
C2199 C2205 1.491 1_545 S
C2200 H2191 1.000 . S
C2200 C2199 1.359 1_565 S
C2200 C2201 1.383 1_565 S
C2201 H2189 0.950 . S
C2201 C2197 1.393 . S
C2201 C2200 1.383 1_545 S
C2202 H2192 0.950 . S
C2202 C2203 1.386 . S
C2202 C2204 1.391 . S
C2203 C2202 1.386 . S
C2203 C2207 1.393 . S
C2204 H2193 0.950 . S
C2204 C2202 1.391 . S
C2204 C2205 1.400 . S
C2205 C2199 1.491 1_565 S
C2205 C2204 1.400 . S
C2205 C2206 1.359 1_565 S
C2206 H2194 1.000 . S
C2206 C2205 1.359 1_545 S
C2206 C2207 1.383 1_545 S
C2207 H2195 0.950 . S
C2207 C2203 1.393 . S
C2207 C2206 1.383 1_565 S
H2208 C2216 0.950 . S
H2209 C2221 0.950 . S
H2210 C2218 0.950 1_546 S
H2211 C2220 0.950 . S
H2212 C2222 0.950 . S
H2213 C2224 0.950 1_564 S
H2214 C2226 0.950 . S
H2215 C2227 0.950 . S
C2216 H2208 0.950 . S
C2216 C2217 1.386 . S
C2216 C2218 1.391 . S
C2217 C2216 1.386 . S
C2217 C2221 1.393 . S
C2218 H2210 0.950 1_564 S
C2218 C2216 1.391 . S
C2218 C2219 1.400 . S
C2219 C2218 1.400 . S
C2219 C2220 1.398 . S
C2219 C2225 1.491 1_564 S
C2220 H2211 0.950 . S
C2220 C2219 1.398 . S
C2220 C2221 1.391 . S
C2221 H2209 0.950 . S
C2221 C2217 1.393 . S
C2221 C2220 1.391 . S
C2222 H2212 0.950 . S
C2222 C2223 1.386 . S
C2222 C2224 1.391 . S
C2223 C2222 1.386 . S
C2223 C2227 1.393 . S
C2224 H2213 0.950 1_546 S
C2224 C2222 1.391 . S
C2224 C2225 1.400 . S
C2225 C2219 1.491 1_546 S
C2225 C2224 1.400 . S
C2225 C2226 1.398 . S
C2226 H2214 0.950 . S
C2226 C2225 1.398 . S
C2226 C2227 1.391 . S
C2227 H2215 0.950 . S
C2227 C2223 1.393 . S
C2227 C2226 1.391 . S
H2228 C2236 0.950 . S
H2229 C2241 0.950 . S
H2230 C2238 0.950 . S
H2231 C2240 0.950 . S
H2232 C2242 0.950 . S
H2233 C2244 0.950 . S
H2234 C2246 0.950 . S
H2235 C2247 0.950 . S
C2236 H2228 0.950 . S
C2236 C2237 1.386 . S
C2236 C2238 1.391 1_655 S
C2237 C2236 1.386 . S
C2237 C2241 1.393 . S
C2238 H2230 0.950 . S
C2238 C2236 1.391 1_455 S
C2238 C2239 1.400 1_455 S
C2239 C2238 1.400 1_655 S
C2239 C2240 1.398 . S
C2239 C2245 1.491 1_656 S
C2240 H2231 0.950 . S
C2240 C2239 1.398 . S
C2240 C2241 1.391 . S
C2241 H2229 0.950 . S
C2241 C2237 1.393 . S
C2241 C2240 1.391 . S
C2242 H2232 0.950 . S
C2242 C2243 1.386 . S
C2242 C2244 1.391 1_455 S
C2243 C2242 1.386 . S
C2243 C2247 1.393 . S
C2244 H2233 0.950 . S
C2244 C2242 1.391 1_655 S
C2244 C2245 1.400 1_655 S
C2245 C2239 1.491 1_454 S
C2245 C2244 1.400 1_455 S
C2245 C2246 1.398 . S
C2246 H2234 0.950 . S
C2246 C2245 1.398 . S
C2246 C2247 1.391 . S
C2247 H2235 0.950 . S
C2247 C2243 1.393 . S
C2247 C2246 1.391 . S
H2248 C2256 0.950 . S
H2249 C2261 0.950 . S
H2250 C2258 0.951 1_556 S
H2251 C2260 0.950 . S
H2252 C2262 0.950 . S
H2253 C2264 0.951 1_554 S
H2254 C2266 0.950 . S
H2255 C2267 0.950 . S
C2256 H2248 0.950 . S
C2256 C2257 1.386 . S
C2256 C2258 1.391 . S
C2257 C2256 1.386 . S
C2257 C2261 1.393 . S
C2258 H2250 0.951 1_554 S
C2258 C2256 1.391 . S
C2258 C2259 1.400 . S
C2259 C2258 1.400 . S
C2259 C2260 1.398 . S
C2259 C2265 1.491 1_554 S
C2260 H2251 0.950 . S
C2260 C2259 1.398 . S
C2260 C2261 1.391 . S
C2261 H2249 0.950 . S
C2261 C2257 1.393 . S
C2261 C2260 1.391 . S
C2262 H2252 0.950 . S
C2262 C2263 1.386 . S
C2262 C2264 1.391 . S
C2263 C2262 1.386 . S
C2263 C2267 1.393 . S
C2264 H2253 0.951 1_556 S
C2264 C2262 1.391 . S
C2264 C2265 1.400 . S
C2265 C2259 1.491 1_556 S
C2265 C2264 1.400 . S
C2265 C2266 1.398 . S
C2266 H2254 0.950 . S
C2266 C2265 1.398 . S
C2266 C2267 1.391 . S
C2267 H2255 0.950 . S
C2267 C2263 1.393 . S
C2267 C2266 1.391 . S
H2268 C2276 0.950 . S
H2269 C2281 0.950 . S
H2270 C2278 0.950 . S
H2271 C2280 0.950 . S
H2272 C2282 0.950 . S
H2273 C2284 0.950 . S
H2274 C2286 0.950 1_556 S
H2275 C2287 0.950 . S
C2276 H2268 0.950 . S
C2276 C2277 1.386 . S
C2276 C2278 1.391 . S
C2277 C2276 1.386 . S
C2277 C2281 1.393 . S
C2278 H2270 0.950 . S
C2278 C2276 1.391 . S
C2278 C2279 1.400 . S
C2279 C2278 1.400 . S
C2279 C2280 1.398 1_556 S
C2279 C2285 1.491 1_556 S
C2280 H2271 0.950 . S
C2280 C2279 1.398 1_554 S
C2280 C2281 1.391 1_554 S
C2281 H2269 0.950 . S
C2281 C2277 1.393 . S
C2281 C2280 1.391 1_556 S
C2282 H2272 0.950 . S
C2282 C2283 1.386 . S
C2282 C2284 1.391 . S
C2283 C2282 1.386 . S
C2283 C2287 1.393 . S
C2284 H2273 0.950 . S
C2284 C2282 1.391 . S
C2284 C2285 1.400 . S
C2285 C2279 1.491 1_554 S
C2285 C2284 1.400 . S
C2285 C2286 1.398 . S
C2286 H2274 0.950 1_554 S
C2286 C2285 1.398 . S
C2286 C2287 1.391 . S
C2287 H2275 0.950 . S
C2287 C2283 1.393 . S
C2287 C2286 1.391 . S
H2288 C2296 0.950 . S
H2289 C2301 0.950 . S
H2290 C2298 0.950 . S
H2291 C2300 0.950 . S
H2292 C2302 0.950 . S
H2293 C2304 0.950 . S
H2294 C2306 0.950 . S
H2295 C2307 0.950 . S
C2296 H2288 0.950 . S
C2296 C2297 1.386 . S
C2296 C2298 1.391 . S
C2297 C2296 1.386 . S
C2297 C2301 1.393 . S
C2298 H2290 0.950 . S
C2298 C2296 1.391 . S
C2298 C2299 1.400 . S
C2299 C2298 1.400 . S
C2299 C2300 1.398 . S
C2299 C2305 1.491 1_554 S
C2300 H2291 0.950 . S
C2300 C2299 1.398 . S
C2300 C2301 1.391 . S
C2301 H2289 0.950 . S
C2301 C2297 1.393 . S
C2301 C2300 1.391 . S
C2302 H2292 0.950 . S
C2302 C2303 1.386 . S
C2302 C2304 1.391 . S
C2303 C2302 1.386 . S
C2303 C2307 1.393 . S
C2304 H2293 0.950 . S
C2304 C2302 1.391 . S
C2304 C2305 1.400 . S
C2305 C2299 1.491 1_556 S
C2305 C2304 1.400 . S
C2305 C2306 1.398 . S
C2306 H2294 0.950 . S
C2306 C2305 1.398 . S
C2306 C2307 1.391 . S
C2307 H2295 0.950 . S
C2307 C2303 1.393 . S
C2307 C2306 1.391 . S
H2308 C2316 0.950 . S
H2309 C2321 0.950 . S
H2310 C2318 0.950 . S
H2311 C2320 0.950 1_556 S
H2312 C2322 0.950 . S
H2313 C2324 0.950 . S
H2314 C2326 0.950 1_554 S
H2315 C2327 0.950 . S
C2316 H2308 0.950 . S
C2316 C2317 1.386 . S
C2316 C2318 1.391 . S
C2317 C2316 1.386 . S
C2317 C2321 1.393 . S
C2318 H2310 0.950 . S
C2318 C2316 1.391 . S
C2318 C2319 1.400 . S
C2319 C2318 1.400 . S
C2319 C2320 1.398 . S
C2319 C2325 1.491 1_554 S
C2320 H2311 0.950 1_554 S
C2320 C2319 1.398 . S
C2320 C2321 1.391 . S
C2321 H2309 0.950 . S
C2321 C2317 1.393 . S
C2321 C2320 1.391 . S
C2322 H2312 0.950 . S
C2322 C2323 1.386 . S
C2322 C2324 1.391 . S
C2323 C2322 1.386 . S
C2323 C2327 1.393 . S
C2324 H2313 0.950 . S
C2324 C2322 1.391 . S
C2324 C2325 1.400 . S
C2325 C2319 1.491 1_556 S
C2325 C2324 1.400 . S
C2325 C2326 1.398 . S
C2326 H2314 0.950 1_556 S
C2326 C2325 1.398 . S
C2326 C2327 1.391 . S
C2327 H2315 0.950 . S
C2327 C2323 1.393 . S
C2327 C2326 1.391 . S
H2328 C2336 0.950 . S
H2329 C2341 0.950 . S
H2330 C2338 0.950 . S
H2331 C2340 0.950 . S
H2332 C2342 0.950 . S
H2333 C2344 0.950 . S
H2334 C2346 0.950 . S
H2335 C2347 0.950 . S
C2336 H2328 0.950 . S
C2336 C2337 1.386 . S
C2336 C2338 1.391 . S
C2337 C2336 1.386 . S
C2337 C2341 1.393 . S
C2338 H2330 0.950 . S
C2338 C2336 1.391 . S
C2338 C2339 1.400 . S
C2339 C2338 1.400 . S
C2339 C2340 1.398 . S
C2339 C2345 1.491 . S
C2340 H2331 0.950 . S
C2340 C2339 1.398 . S
C2340 C2341 1.391 . S
C2341 H2329 0.950 . S
C2341 C2337 1.393 . S
C2341 C2340 1.391 . S
C2342 H2332 0.950 . S
C2342 C2343 1.386 . S
C2342 C2344 1.391 . S
C2343 C2342 1.386 . S
C2343 C2347 1.393 . S
C2344 H2333 0.950 . S
C2344 C2342 1.391 . S
C2344 C2345 1.400 . S
C2345 C2339 1.491 . S
C2345 C2344 1.400 . S
C2345 C2346 1.398 . S
C2346 H2334 0.950 . S
C2346 C2345 1.398 . S
C2346 C2347 1.391 . S
C2347 H2335 0.950 . S
C2347 C2343 1.393 . S
C2347 C2346 1.391 . S
H2348 C2356 0.950 . S
H2349 C2361 0.950 . S
H2350 C2358 0.950 . S
H2351 C2360 0.950 . S
H2352 C2362 0.950 . S
H2353 C2364 0.950 . S
H2354 C2366 0.950 . S
H2355 C2367 0.950 . S
C2356 H2348 0.950 . S
C2356 C2357 1.386 . S
C2356 C2358 1.391 . S
C2357 C2356 1.386 . S
C2357 C2361 1.393 . S
C2358 H2350 0.950 . S
C2358 C2356 1.391 . S
C2358 C2359 1.400 . S
C2359 C2358 1.400 . S
C2359 C2360 1.398 . S
C2359 C2365 1.491 . S
C2360 H2351 0.950 . S
C2360 C2359 1.398 . S
C2360 C2361 1.391 . S
C2361 H2349 0.950 . S
C2361 C2357 1.393 . S
C2361 C2360 1.391 . S
C2362 H2352 0.950 . S
C2362 C2363 1.386 . S
C2362 C2364 1.391 . S
C2363 C2362 1.386 . S
C2363 C2367 1.393 . S
C2364 H2353 0.950 . S
C2364 C2362 1.391 . S
C2364 C2365 1.400 . S
C2365 C2359 1.491 . S
C2365 C2364 1.400 . S
C2365 C2366 1.398 . S
C2366 H2354 0.950 . S
C2366 C2365 1.398 . S
C2366 C2367 1.391 . S
C2367 H2355 0.950 . S
C2367 C2363 1.393 . S
C2367 C2366 1.391 . S
H2368 C2376 0.950 . S
H2369 C2381 0.950 . S
H2370 C2378 0.950 . S
H2371 C2380 0.950 . S
H2372 C2382 0.950 . S
H2373 C2384 0.950 . S
H2374 C2386 0.950 . S
H2375 C2387 0.950 . S
C2376 H2368 0.950 . S
C2376 C2377 1.386 . S
C2376 C2378 1.391 . S
C2377 C2376 1.386 . S
C2377 C2381 1.393 . S
C2378 H2370 0.950 . S
C2378 C2376 1.391 . S
C2378 C2379 1.400 . S
C2379 C2378 1.400 . S
C2379 C2380 1.398 . S
C2379 C2385 1.491 . S
C2380 H2371 0.950 . S
C2380 C2379 1.398 . S
C2380 C2381 1.391 . S
C2381 H2369 0.950 . S
C2381 C2377 1.393 . S
C2381 C2380 1.391 . S
C2382 H2372 0.950 . S
C2382 C2383 1.386 . S
C2382 C2384 1.391 . S
C2383 C2382 1.386 . S
C2383 C2387 1.393 . S
C2384 H2373 0.950 . S
C2384 C2382 1.391 . S
C2384 C2385 1.400 . S
C2385 C2379 1.491 . S
C2385 C2384 1.400 . S
C2385 C2386 1.398 . S
C2386 H2374 0.950 . S
C2386 C2385 1.398 . S
C2386 C2387 1.391 . S
C2387 H2375 0.950 . S
C2387 C2383 1.393 . S
C2387 C2386 1.391 . S
H2388 C2396 0.950 . S
H2389 C2401 0.950 . S
H2390 C2398 0.938 1_556 S
H2391 C2400 0.950 . S
H2392 C2402 0.950 . S
H2393 C2404 0.950 . S
H2394 C2406 0.950 . S
H2395 C2407 0.950 . S
C2396 H2388 0.950 . S
C2396 C2397 1.386 . S
C2396 C2398 1.391 . S
C2397 C2396 1.386 . S
C2397 C2401 1.393 . S
C2398 H2390 0.938 1_554 S
C2398 C2396 1.391 . S
C2398 C2399 1.400 . S
C2399 C2398 1.400 . S
C2399 C2400 1.398 . S
C2399 C2405 1.491 1_554 S
C2400 H2391 0.950 . S
C2400 C2399 1.398 . S
C2400 C2401 1.391 . S
C2401 H2389 0.950 . S
C2401 C2397 1.393 . S
C2401 C2400 1.391 . S
C2402 H2392 0.950 . S
C2402 C2403 1.386 . S
C2402 C2404 1.391 . S
C2403 C2402 1.386 . S
C2403 C2407 1.393 . S
C2404 H2393 0.950 . S
C2404 C2402 1.391 . S
C2404 C2405 1.400 . S
C2405 C2399 1.491 1_556 S
C2405 C2404 1.400 . S
C2405 C2406 1.398 . S
C2406 H2394 0.950 . S
C2406 C2405 1.398 . S
C2406 C2407 1.391 . S
C2407 H2395 0.950 . S
C2407 C2403 1.393 . S
C2407 C2406 1.391 . S
H2408 C2416 0.950 . S
H2409 C2421 0.950 . S
H2410 C2418 0.950 . S
H2411 C2420 0.950 . S
H2412 C2422 0.950 . S
H2413 C2424 0.950 1_554 S
H2414 C2426 0.950 . S
H2415 C2427 0.950 . S
C2416 H2408 0.950 . S
C2416 C2417 1.386 . S
C2416 C2418 1.391 1_554 S
C2417 C2416 1.386 . S
C2417 C2421 1.393 . S
C2418 H2410 0.950 . S
C2418 C2416 1.391 1_556 S
C2418 C2419 1.400 1_556 S
C2419 C2418 1.400 1_554 S
C2419 C2420 1.398 . S
C2419 C2425 1.491 1_554 S
C2420 H2411 0.950 . S
C2420 C2419 1.398 . S
C2420 C2421 1.391 . S
C2421 H2409 0.950 . S
C2421 C2417 1.393 . S
C2421 C2420 1.391 . S
C2422 H2412 0.950 . S
C2422 C2423 1.386 . S
C2422 C2424 1.391 . S
C2423 C2422 1.386 . S
C2423 C2427 1.393 . S
C2424 H2413 0.950 1_556 S
C2424 C2422 1.391 . S
C2424 C2425 1.400 . S
C2425 C2419 1.491 1_556 S
C2425 C2424 1.400 . S
C2425 C2426 1.398 . S
C2426 H2414 0.950 . S
C2426 C2425 1.398 . S
C2426 C2427 1.391 . S
C2427 H2415 0.950 . S
C2427 C2423 1.393 . S
C2427 C2426 1.391 . S
H2428 C2436 0.950 . S
H2429 C2441 0.950 . S
H2430 C2438 0.950 . S
H2431 C2440 0.950 . S
H2432 C2442 0.950 . S
H2433 C2444 0.950 1_554 S
H2434 C2446 0.950 . S
H2435 C2447 0.950 . S
C2436 H2428 0.950 . S
C2436 C2437 1.386 . S
C2436 C2438 1.391 1_554 S
C2437 C2436 1.386 . S
C2437 C2441 1.393 . S
C2438 H2430 0.950 . S
C2438 C2436 1.391 1_556 S
C2438 C2439 1.400 1_556 S
C2439 C2438 1.400 1_554 S
C2439 C2440 1.398 . S
C2439 C2445 1.491 1_554 S
C2440 H2431 0.950 . S
C2440 C2439 1.398 . S
C2440 C2441 1.391 . S
C2441 H2429 0.950 . S
C2441 C2437 1.393 . S
C2441 C2440 1.391 . S
C2442 H2432 0.950 . S
C2442 C2443 1.386 . S
C2442 C2444 1.391 . S
C2443 C2442 1.386 . S
C2443 C2447 1.393 . S
C2444 H2433 0.950 1_556 S
C2444 C2442 1.391 . S
C2444 C2445 1.400 . S
C2445 C2439 1.491 1_556 S
C2445 C2444 1.400 . S
C2445 C2446 1.398 . S
C2446 H2434 0.950 . S
C2446 C2445 1.398 . S
C2446 C2447 1.391 . S
C2447 H2435 0.950 . S
C2447 C2443 1.393 . S
C2447 C2446 1.391 . S
H2448 C2456 0.950 . S
H2449 C2461 0.950 . S
H2450 C2458 0.950 . S
H2451 C2460 0.950 . S
H2452 C2462 0.950 . S
H2453 C2464 0.950 . S
H2454 C2466 0.950 . S
H2455 C2467 0.950 . S
C2456 H2448 0.950 . S
C2456 C2457 1.386 . S
C2456 C2458 1.391 . S
C2457 C2456 1.386 . S
C2457 C2461 1.393 . S
C2458 H2450 0.950 . S
C2458 C2456 1.391 . S
C2458 C2459 1.400 . S
C2459 C2458 1.400 . S
C2459 C2460 1.398 . S
C2459 C2465 1.491 . S
C2460 H2451 0.950 . S
C2460 C2459 1.398 . S
C2460 C2461 1.391 . S
C2461 H2449 0.950 . S
C2461 C2457 1.393 . S
C2461 C2460 1.391 . S
C2462 H2452 0.950 . S
C2462 C2463 1.386 . S
C2462 C2464 1.391 . S
C2463 C2462 1.386 . S
C2463 C2467 1.393 . S
C2464 H2453 0.950 . S
C2464 C2462 1.391 . S
C2464 C2465 1.400 . S
C2465 C2459 1.491 . S
C2465 C2464 1.400 . S
C2465 C2466 1.398 . S
C2466 H2454 0.950 . S
C2466 C2465 1.398 . S
C2466 C2467 1.391 . S
C2467 H2455 0.950 . S
C2467 C2463 1.393 . S
C2467 C2466 1.391 . S
H2468 C2476 0.950 . S
H2469 C2481 0.950 . S
H2470 C2478 0.950 . S
H2471 C2480 0.950 . S
H2472 C2482 0.950 . S
H2473 C2484 0.950 . S
H2474 C2486 0.950 . S
H2475 C2487 0.950 . S
C2476 H2468 0.950 . S
C2476 C2477 1.386 . S
C2476 C2478 1.391 . S
C2477 C2476 1.386 . S
C2477 C2481 1.393 . S
C2478 H2470 0.950 . S
C2478 C2476 1.391 . S
C2478 C2479 1.400 . S
C2479 C2478 1.400 . S
C2479 C2480 1.398 . S
C2479 C2485 1.491 . S
C2480 H2471 0.950 . S
C2480 C2479 1.398 . S
C2480 C2481 1.391 . S
C2481 H2469 0.950 . S
C2481 C2477 1.393 . S
C2481 C2480 1.391 . S
C2482 H2472 0.950 . S
C2482 C2483 1.386 . S
C2482 C2484 1.391 . S
C2483 C2482 1.386 . S
C2483 C2487 1.393 . S
C2484 H2473 0.950 . S
C2484 C2482 1.391 . S
C2484 C2485 1.400 . S
C2485 C2479 1.491 . S
C2485 C2484 1.400 . S
C2485 C2486 1.398 . S
C2486 H2474 0.950 . S
C2486 C2485 1.398 . S
C2486 C2487 1.391 . S
C2487 H2475 0.950 . S
C2487 C2483 1.393 . S
C2487 C2486 1.391 . S
H2488 C2496 0.950 . S
H2489 C2501 0.950 . S
H2490 C2498 0.950 . S
H2491 C2500 0.950 . S
H2492 C2502 0.950 . S
H2493 C2504 0.950 . S
H2494 C2506 0.950 . S
H2495 C2507 0.950 . S
C2496 H2488 0.950 . S
C2496 C2497 1.386 . S
C2496 C2498 1.391 . S
C2497 C2496 1.386 . S
C2497 C2501 1.393 . S
C2498 H2490 0.950 . S
C2498 C2496 1.391 . S
C2498 C2499 1.400 . S
C2499 C2498 1.400 . S
C2499 C2500 1.398 . S
C2499 C2505 1.491 . S
C2500 H2491 0.950 . S
C2500 C2499 1.398 . S
C2500 C2501 1.391 . S
C2501 H2489 0.950 . S
C2501 C2497 1.393 . S
C2501 C2500 1.391 . S
C2502 H2492 0.950 . S
C2502 C2503 1.386 . S
C2502 C2504 1.391 . S
C2503 C2502 1.386 . S
C2503 C2507 1.393 . S
C2504 H2493 0.950 . S
C2504 C2502 1.391 . S
C2504 C2505 1.400 . S
C2505 C2499 1.491 . S
C2505 C2504 1.400 . S
C2505 C2506 1.398 . S
C2506 H2494 0.950 . S
C2506 C2505 1.398 . S
C2506 C2507 1.391 . S
C2507 H2495 0.950 . S
C2507 C2503 1.393 . S
C2507 C2506 1.391 . S
H2508 C2516 0.950 . S
H2509 C2521 0.950 . S
H2510 C2518 0.950 . S
H2511 C2520 0.950 . S
H2512 C2522 0.950 . S
H2513 C2524 0.950 . S
H2514 C2526 0.950 . S
H2515 C2527 0.950 . S
C2516 H2508 0.950 . S
C2516 C2517 1.386 . S
C2516 C2518 1.391 . S
C2517 C2516 1.386 . S
C2517 C2521 1.393 . S
C2518 H2510 0.950 . S
C2518 C2516 1.391 . S
C2518 C2519 1.400 . S
C2519 C2518 1.400 . S
C2519 C2520 1.398 . S
C2519 C2525 1.491 . S
C2520 H2511 0.950 . S
C2520 C2519 1.398 . S
C2520 C2521 1.391 . S
C2521 H2509 0.950 . S
C2521 C2517 1.393 . S
C2521 C2520 1.391 . S
C2522 H2512 0.950 . S
C2522 C2523 1.386 . S
C2522 C2524 1.391 . S
C2523 C2522 1.386 . S
C2523 C2527 1.393 . S
C2524 H2513 0.950 . S
C2524 C2522 1.391 . S
C2524 C2525 1.400 . S
C2525 C2519 1.491 . S
C2525 C2524 1.400 . S
C2525 C2526 1.398 . S
C2526 H2514 0.950 . S
C2526 C2525 1.398 . S
C2526 C2527 1.391 . S
C2527 H2515 0.950 . S
C2527 C2523 1.393 . S
C2527 C2526 1.391 . S
H2528 C2536 0.950 . S
H2529 C2541 0.950 . S
H2530 C2538 0.950 . S
H2531 C2540 0.950 . S
H2532 C2542 0.950 . S
H2533 C2544 0.950 . S
H2534 C2546 0.950 . S
H2535 C2547 0.950 . S
C2536 H2528 0.950 . S
C2536 C2537 1.386 . S
C2536 C2538 1.391 . S
C2537 C2536 1.386 . S
C2537 C2541 1.393 . S
C2538 H2530 0.950 . S
C2538 C2536 1.391 . S
C2538 C2539 1.400 . S
C2539 C2538 1.400 . S
C2539 C2540 1.398 . S
C2539 C2545 1.491 . S
C2540 H2531 0.950 . S
C2540 C2539 1.398 . S
C2540 C2541 1.391 . S
C2541 H2529 0.950 . S
C2541 C2537 1.393 . S
C2541 C2540 1.391 . S
C2542 H2532 0.950 . S
C2542 C2543 1.386 . S
C2542 C2544 1.391 . S
C2543 C2542 1.386 . S
C2543 C2547 1.393 . S
C2544 H2533 0.950 . S
C2544 C2542 1.391 . S
C2544 C2545 1.400 . S
C2545 C2539 1.491 . S
C2545 C2544 1.400 . S
C2545 C2546 1.398 . S
C2546 H2534 0.950 . S
C2546 C2545 1.398 . S
C2546 C2547 1.391 . S
C2547 H2535 0.950 . S
C2547 C2543 1.393 . S
C2547 C2546 1.391 . S
H2548 C2556 0.950 . S
H2549 C2561 0.950 . S
H2550 C2558 0.950 . S
H2551 C2560 0.950 . S
H2552 C2562 0.950 . S
H2553 C2564 0.950 . S
H2554 C2566 0.950 . S
H2555 C2567 0.950 . S
C2556 H2548 0.950 . S
C2556 C2557 1.386 . S
C2556 C2558 1.391 . S
C2557 C2556 1.386 . S
C2557 C2561 1.393 . S
C2558 H2550 0.950 . S
C2558 C2556 1.391 . S
C2558 C2559 1.400 . S
C2559 C2558 1.400 . S
C2559 C2560 1.398 . S
C2559 C2565 1.491 . S
C2560 H2551 0.950 . S
C2560 C2559 1.398 . S
C2560 C2561 1.391 . S
C2561 H2549 0.950 . S
C2561 C2557 1.393 . S
C2561 C2560 1.391 . S
C2562 H2552 0.950 . S
C2562 C2563 1.386 . S
C2562 C2564 1.391 . S
C2563 C2562 1.386 . S
C2563 C2567 1.393 . S
C2564 H2553 0.950 . S
C2564 C2562 1.391 . S
C2564 C2565 1.400 . S
C2565 C2559 1.491 . S
C2565 C2564 1.400 . S
C2565 C2566 1.398 . S
C2566 H2554 0.950 . S
C2566 C2565 1.398 . S
C2566 C2567 1.391 . S
C2567 H2555 0.950 . S
C2567 C2563 1.393 . S
C2567 C2566 1.391 . S
H2568 C2576 0.950 . S
H2569 C2581 0.950 . S
H2570 C2578 0.950 . S
H2571 C2580 0.950 . S
H2572 C2582 0.950 . S
H2573 C2584 0.950 . S
H2574 C2586 0.950 . S
H2575 C2587 0.950 . S
C2576 H2568 0.950 . S
C2576 C2577 1.386 . S
C2576 C2578 1.391 . S
C2577 C2576 1.386 . S
C2577 C2581 1.393 . S
C2578 H2570 0.950 . S
C2578 C2576 1.391 . S
C2578 C2579 1.400 . S
C2579 C2578 1.400 . S
C2579 C2580 1.398 . S
C2579 C2585 1.491 . S
C2580 H2571 0.950 . S
C2580 C2579 1.398 . S
C2580 C2581 1.391 . S
C2581 H2569 0.950 . S
C2581 C2577 1.393 . S
C2581 C2580 1.391 . S
C2582 H2572 0.950 . S
C2582 C2583 1.386 . S
C2582 C2584 1.391 . S
C2583 C2582 1.386 . S
C2583 C2587 1.393 . S
C2584 H2573 0.950 . S
C2584 C2582 1.391 . S
C2584 C2585 1.400 . S
C2585 C2579 1.491 . S
C2585 C2584 1.400 . S
C2585 C2586 1.398 . S
C2586 H2574 0.950 . S
C2586 C2585 1.398 . S
C2586 C2587 1.391 . S
C2587 H2575 0.950 . S
C2587 C2583 1.393 . S
C2587 C2586 1.391 . S
H2588 C2596 0.950 . S
H2589 C2601 0.950 . S
H2590 C2598 0.950 . S
H2591 C2600 0.950 . S
H2592 C2602 0.950 . S
H2593 C2604 0.950 . S
H2594 C2606 0.950 . S
H2595 C2607 0.950 . S
C2596 H2588 0.950 . S
C2596 C2597 1.386 . S
C2596 C2598 1.391 . S
C2597 C2596 1.386 . S
C2597 C2601 1.393 . S
C2598 H2590 0.950 . S
C2598 C2596 1.391 . S
C2598 C2599 1.400 . S
C2599 C2598 1.400 . S
C2599 C2600 1.398 . S
C2599 C2605 1.491 . S
C2600 H2591 0.950 . S
C2600 C2599 1.398 . S
C2600 C2601 1.391 . S
C2601 H2589 0.950 . S
C2601 C2597 1.393 . S
C2601 C2600 1.391 . S
C2602 H2592 0.950 . S
C2602 C2603 1.386 . S
C2602 C2604 1.391 . S
C2603 C2602 1.386 . S
C2603 C2607 1.393 . S
C2604 H2593 0.950 . S
C2604 C2602 1.391 . S
C2604 C2605 1.400 . S
C2605 C2599 1.491 . S
C2605 C2604 1.400 . S
C2605 C2606 1.398 . S
C2606 H2594 0.950 . S
C2606 C2605 1.398 . S
C2606 C2607 1.391 . S
C2607 H2595 0.950 . S
C2607 C2603 1.393 . S
C2607 C2606 1.391 . S
H2608 C2616 0.950 . S
H2609 C2621 0.950 . S
H2610 C2618 0.950 . S
H2611 C2620 0.950 . S
H2612 C2622 0.950 . S
H2613 C2624 0.950 . S
H2614 C2626 0.950 . S
H2615 C2627 0.950 . S
C2616 H2608 0.950 . S
C2616 C2617 1.386 . S
C2616 C2618 1.391 . S
C2617 C2616 1.386 . S
C2617 C2621 1.393 . S
C2618 H2610 0.950 . S
C2618 C2616 1.391 . S
C2618 C2619 1.400 . S
C2619 C2618 1.400 . S
C2619 C2620 1.398 . S
C2619 C2625 1.491 . S
C2620 H2611 0.950 . S
C2620 C2619 1.398 . S
C2620 C2621 1.391 . S
C2621 H2609 0.950 . S
C2621 C2617 1.393 . S
C2621 C2620 1.391 . S
C2622 H2612 0.950 . S
C2622 C2623 1.386 . S
C2622 C2624 1.391 . S
C2623 C2622 1.386 . S
C2623 C2627 1.393 . S
C2624 H2613 0.950 . S
C2624 C2622 1.391 . S
C2624 C2625 1.400 . S
C2625 C2619 1.491 . S
C2625 C2624 1.400 . S
C2625 C2626 1.398 . S
C2626 H2614 0.950 . S
C2626 C2625 1.398 . S
C2626 C2627 1.391 . S
C2627 H2615 0.950 . S
C2627 C2623 1.393 . S
C2627 C2626 1.391 . S
H2628 C2636 0.950 . S
H2629 C2641 0.950 . S
H2630 C2638 0.950 . S
H2631 C2640 0.950 . S
H2632 C2642 0.950 . S
H2633 C2644 0.950 . S
H2634 C2646 0.950 . S
H2635 C2647 0.950 . S
C2636 H2628 0.950 . S
C2636 C2637 1.386 . S
C2636 C2638 1.391 . S
C2637 C2636 1.386 . S
C2637 C2641 1.393 . S
C2638 H2630 0.950 . S
C2638 C2636 1.391 . S
C2638 C2639 1.400 . S
C2639 C2638 1.400 . S
C2639 C2640 1.398 . S
C2639 C2645 1.491 . S
C2640 H2631 0.950 . S
C2640 C2639 1.398 . S
C2640 C2641 1.391 . S
C2641 H2629 0.950 . S
C2641 C2637 1.393 . S
C2641 C2640 1.391 . S
C2642 H2632 0.950 . S
C2642 C2643 1.386 . S
C2642 C2644 1.391 . S
C2643 C2642 1.386 . S
C2643 C2647 1.393 . S
C2644 H2633 0.950 . S
C2644 C2642 1.391 . S
C2644 C2645 1.400 . S
C2645 C2639 1.491 . S
C2645 C2644 1.400 . S
C2645 C2646 1.398 . S
C2646 H2634 0.950 . S
C2646 C2645 1.398 . S
C2646 C2647 1.391 . S
C2647 H2635 0.950 . S
C2647 C2643 1.393 . S
C2647 C2646 1.391 . S
H2648 C2656 0.950 . S
H2649 C2661 0.950 . S
H2650 C2658 0.950 . S
H2651 C2660 0.950 . S
H2652 C2662 0.950 . S
H2653 C2664 0.950 . S
H2654 C2666 0.950 . S
H2655 C2667 0.950 . S
C2656 H2648 0.950 . S
C2656 C2657 1.386 . S
C2656 C2658 1.391 . S
C2657 C2656 1.386 . S
C2657 C2661 1.393 . S
C2658 H2650 0.950 . S
C2658 C2656 1.391 . S
C2658 C2659 1.400 . S
C2659 C2658 1.400 . S
C2659 C2660 1.398 . S
C2659 C2665 1.491 . S
C2660 H2651 0.950 . S
C2660 C2659 1.398 . S
C2660 C2661 1.391 . S
C2661 H2649 0.950 . S
C2661 C2657 1.393 . S
C2661 C2660 1.391 . S
C2662 H2652 0.950 . S
C2662 C2663 1.386 . S
C2662 C2664 1.391 . S
C2663 C2662 1.386 . S
C2663 C2667 1.393 . S
C2664 H2653 0.950 . S
C2664 C2662 1.391 . S
C2664 C2665 1.400 . S
C2665 C2659 1.491 . S
C2665 C2664 1.400 . S
C2665 C2666 1.398 . S
C2666 H2654 0.950 . S
C2666 C2665 1.398 . S
C2666 C2667 1.391 . S
C2667 H2655 0.950 . S
C2667 C2663 1.393 . S
C2667 C2666 1.391 . S
H2668 C2676 0.950 . S
H2669 C2681 0.950 . S
H2670 C2678 0.950 . S
H2671 C2680 0.950 . S
H2672 C2682 0.950 . S
H2673 C2684 0.950 . S
H2674 C2686 0.950 . S
H2675 C2687 0.950 . S
C2676 H2668 0.950 . S
C2676 C2677 1.386 . S
C2676 C2678 1.391 . S
C2677 C2676 1.386 . S
C2677 C2681 1.393 . S
C2678 H2670 0.950 . S
C2678 C2676 1.391 . S
C2678 C2679 1.400 . S
C2679 C2678 1.400 . S
C2679 C2680 1.398 . S
C2679 C2685 1.491 . S
C2680 H2671 0.950 . S
C2680 C2679 1.398 . S
C2680 C2681 1.391 . S
C2681 H2669 0.950 . S
C2681 C2677 1.393 . S
C2681 C2680 1.391 . S
C2682 H2672 0.950 . S
C2682 C2683 1.386 . S
C2682 C2684 1.391 . S
C2683 C2682 1.386 . S
C2683 C2687 1.393 . S
C2684 H2673 0.950 . S
C2684 C2682 1.391 . S
C2684 C2685 1.400 . S
C2685 C2679 1.491 . S
C2685 C2684 1.400 . S
C2685 C2686 1.398 . S
C2686 H2674 0.950 . S
C2686 C2685 1.398 . S
C2686 C2687 1.391 . S
C2687 H2675 0.950 . S
C2687 C2683 1.393 . S
C2687 C2686 1.391 . S
H2688 C2696 0.950 . S
H2689 C2701 0.950 . S
H2690 C2698 0.950 . S
H2691 C2700 0.950 . S
H2692 C2702 0.950 . S
H2693 C2704 0.950 . S
H2694 C2706 0.950 . S
H2695 C2707 0.950 . S
C2696 H2688 0.950 . S
C2696 C2697 1.386 . S
C2696 C2698 1.391 . S
C2697 C2696 1.386 . S
C2697 C2701 1.393 . S
C2698 H2690 0.950 . S
C2698 C2696 1.391 . S
C2698 C2699 1.400 . S
C2699 C2698 1.400 . S
C2699 C2700 1.398 . S
C2699 C2705 1.491 . S
C2700 H2691 0.950 . S
C2700 C2699 1.398 . S
C2700 C2701 1.391 . S
C2701 H2689 0.950 . S
C2701 C2697 1.393 . S
C2701 C2700 1.391 . S
C2702 H2692 0.950 . S
C2702 C2703 1.386 . S
C2702 C2704 1.391 . S
C2703 C2702 1.386 . S
C2703 C2707 1.393 . S
C2704 H2693 0.950 . S
C2704 C2702 1.391 . S
C2704 C2705 1.400 . S
C2705 C2699 1.491 . S
C2705 C2704 1.400 . S
C2705 C2706 1.398 . S
C2706 H2694 0.950 . S
C2706 C2705 1.398 . S
C2706 C2707 1.391 . S
C2707 H2695 0.950 . S
C2707 C2703 1.393 . S
C2707 C2706 1.391 . S
H2708 C2716 0.950 . S
H2709 C2721 0.950 . S
H2710 C2718 0.950 . S
H2711 C2720 0.950 . S
H2712 C2722 0.950 . S
H2713 C2724 0.950 . S
H2714 C2726 0.950 . S
H2715 C2727 0.950 . S
C2716 H2708 0.950 . S
C2716 C2717 1.386 . S
C2716 C2718 1.391 . S
C2717 C2716 1.386 . S
C2717 C2721 1.393 . S
C2718 H2710 0.950 . S
C2718 C2716 1.391 . S
C2718 C2719 1.400 . S
C2719 C2718 1.400 . S
C2719 C2720 1.398 . S
C2719 C2725 1.491 . S
C2720 H2711 0.950 . S
C2720 C2719 1.398 . S
C2720 C2721 1.391 . S
C2721 H2709 0.950 . S
C2721 C2717 1.393 . S
C2721 C2720 1.391 . S
C2722 H2712 0.950 . S
C2722 C2723 1.386 . S
C2722 C2724 1.391 . S
C2723 C2722 1.386 . S
C2723 C2727 1.393 . S
C2724 H2713 0.950 . S
C2724 C2722 1.391 . S
C2724 C2725 1.400 . S
C2725 C2719 1.491 . S
C2725 C2724 1.400 . S
C2725 C2726 1.398 . S
C2726 H2714 0.950 . S
C2726 C2725 1.398 . S
C2726 C2727 1.391 . S
C2727 H2715 0.950 . S
C2727 C2723 1.393 . S
C2727 C2726 1.391 . S
H2728 C2736 0.950 . S
H2729 C2741 0.950 . S
H2730 C2738 0.950 . S
H2731 C2740 0.950 . S
H2732 C2742 0.950 . S
H2733 C2744 0.950 . S
H2734 C2746 0.950 . S
H2735 C2747 0.950 . S
C2736 H2728 0.950 . S
C2736 C2737 1.386 . S
C2736 C2738 1.391 . S
C2737 C2736 1.386 . S
C2737 C2741 1.393 . S
C2738 H2730 0.950 . S
C2738 C2736 1.391 . S
C2738 C2739 1.400 . S
C2739 C2738 1.400 . S
C2739 C2740 1.398 . S
C2739 C2745 1.491 . S
C2740 H2731 0.950 . S
C2740 C2739 1.398 . S
C2740 C2741 1.391 . S
C2741 H2729 0.950 . S
C2741 C2737 1.393 . S
C2741 C2740 1.391 . S
C2742 H2732 0.950 . S
C2742 C2743 1.386 . S
C2742 C2744 1.391 . S
C2743 C2742 1.386 . S
C2743 C2747 1.393 . S
C2744 H2733 0.950 . S
C2744 C2742 1.391 . S
C2744 C2745 1.400 . S
C2745 C2739 1.491 . S
C2745 C2744 1.400 . S
C2745 C2746 1.398 . S
C2746 H2734 0.950 . S
C2746 C2745 1.398 . S
C2746 C2747 1.391 . S
C2747 H2735 0.950 . S
C2747 C2743 1.393 . S
C2747 C2746 1.391 . S
H2748 C2756 0.950 . S
H2749 C2761 0.950 . S
H2750 C2758 0.950 . S
H2751 C2760 0.950 . S
H2752 C2762 0.950 . S
H2753 C2764 0.950 . S
H2754 C2766 0.950 . S
H2755 C2767 0.950 . S
C2756 H2748 0.950 . S
C2756 C2757 1.386 . S
C2756 C2758 1.391 . S
C2757 C2756 1.386 . S
C2757 C2761 1.393 . S
C2758 H2750 0.950 . S
C2758 C2756 1.391 . S
C2758 C2759 1.400 . S
C2759 C2758 1.400 . S
C2759 C2760 1.398 . S
C2759 C2765 1.491 . S
C2760 H2751 0.950 . S
C2760 C2759 1.398 . S
C2760 C2761 1.391 . S
C2761 H2749 0.950 . S
C2761 C2757 1.393 . S
C2761 C2760 1.391 . S
C2762 H2752 0.950 . S
C2762 C2763 1.386 . S
C2762 C2764 1.391 . S
C2763 C2762 1.386 . S
C2763 C2767 1.393 . S
C2764 H2753 0.950 . S
C2764 C2762 1.391 . S
C2764 C2765 1.400 . S
C2765 C2759 1.491 . S
C2765 C2764 1.400 . S
C2765 C2766 1.398 . S
C2766 H2754 0.950 . S
C2766 C2765 1.398 . S
C2766 C2767 1.391 . S
C2767 H2755 0.950 . S
C2767 C2763 1.393 . S
C2767 C2766 1.391 . S
H2768 C2776 0.950 . S
H2769 C2781 0.950 . S
H2770 C2778 0.950 . S
H2771 C2780 0.950 . S
H2772 C2782 0.950 . S
H2773 C2784 0.950 . S
H2774 C2786 0.950 . S
H2775 C2787 0.950 . S
C2776 H2768 0.950 . S
C2776 C2777 1.386 . S
C2776 C2778 1.391 . S
C2777 C2776 1.386 . S
C2777 C2781 1.393 . S
C2778 H2770 0.950 . S
C2778 C2776 1.391 . S
C2778 C2779 1.400 . S
C2779 C2778 1.400 . S
C2779 C2780 1.398 . S
C2779 C2785 1.491 . S
C2780 H2771 0.950 . S
C2780 C2779 1.398 . S
C2780 C2781 1.391 . S
C2781 H2769 0.950 . S
C2781 C2777 1.393 . S
C2781 C2780 1.391 . S
C2782 H2772 0.950 . S
C2782 C2783 1.386 . S
C2782 C2784 1.391 . S
C2783 C2782 1.386 . S
C2783 C2787 1.393 . S
C2784 H2773 0.950 . S
C2784 C2782 1.391 . S
C2784 C2785 1.400 . S
C2785 C2779 1.491 . S
C2785 C2784 1.400 . S
C2785 C2786 1.398 . S
C2786 H2774 0.950 . S
C2786 C2785 1.398 . S
C2786 C2787 1.391 . S
C2787 H2775 0.950 . S
C2787 C2783 1.393 . S
C2787 C2786 1.391 . S
H2788 C2796 0.950 . S
H2789 C2801 0.950 . S
H2790 C2798 0.950 . S
H2791 C2800 0.950 . S
H2792 C2802 0.950 . S
H2793 C2804 0.950 . S
H2794 C2806 0.950 . S
H2795 C2807 0.950 . S
C2796 H2788 0.950 . S
C2796 C2797 1.386 . S
C2796 C2798 1.391 . S
C2797 C2796 1.386 . S
C2797 C2801 1.393 . S
C2798 H2790 0.950 . S
C2798 C2796 1.391 . S
C2798 C2799 1.400 . S
C2799 C2798 1.400 . S
C2799 C2800 1.398 . S
C2799 C2805 1.491 . S
C2800 H2791 0.950 . S
C2800 C2799 1.398 . S
C2800 C2801 1.391 . S
C2801 H2789 0.950 . S
C2801 C2797 1.393 . S
C2801 C2800 1.391 . S
C2802 H2792 0.950 . S
C2802 C2803 1.386 . S
C2802 C2804 1.391 . S
C2803 C2802 1.386 . S
C2803 C2807 1.393 . S
C2804 H2793 0.950 . S
C2804 C2802 1.391 . S
C2804 C2805 1.400 . S
C2805 C2799 1.491 . S
C2805 C2804 1.400 . S
C2805 C2806 1.398 . S
C2806 H2794 0.950 . S
C2806 C2805 1.398 . S
C2806 C2807 1.391 . S
C2807 H2795 0.950 . S
C2807 C2803 1.393 . S
C2807 C2806 1.391 . S
H2808 C2816 0.950 . S
H2809 C2821 0.950 . S
H2810 C2818 0.950 . S
H2811 C2820 0.950 . S
H2812 C2822 0.950 . S
H2813 C2824 0.950 . S
H2814 C2826 0.950 . S
H2815 C2827 0.950 . S
C2816 H2808 0.950 . S
C2816 C2817 1.386 . S
C2816 C2818 1.391 . S
C2817 C2816 1.386 . S
C2817 C2821 1.393 . S
C2818 H2810 0.950 . S
C2818 C2816 1.391 . S
C2818 C2819 1.400 . S
C2819 C2818 1.400 . S
C2819 C2820 1.398 . S
C2819 C2825 1.491 . S
C2820 H2811 0.950 . S
C2820 C2819 1.398 . S
C2820 C2821 1.391 . S
C2821 H2809 0.950 . S
C2821 C2817 1.393 . S
C2821 C2820 1.391 . S
C2822 H2812 0.950 . S
C2822 C2823 1.386 . S
C2822 C2824 1.391 . S
C2823 C2822 1.386 . S
C2823 C2827 1.393 . S
C2824 H2813 0.950 . S
C2824 C2822 1.391 . S
C2824 C2825 1.400 . S
C2825 C2819 1.491 . S
C2825 C2824 1.400 . S
C2825 C2826 1.398 . S
C2826 H2814 0.950 . S
C2826 C2825 1.398 . S
C2826 C2827 1.391 . S
C2827 H2815 0.950 . S
C2827 C2823 1.393 . S
C2827 C2826 1.391 . S
H2828 C2836 0.950 . S
H2829 C2841 0.950 . S
H2830 C2838 0.950 . S
H2831 C2840 0.950 . S
H2832 C2842 0.950 . S
H2833 C2844 0.950 . S
H2834 C2846 0.950 . S
H2835 C2847 0.950 . S
C2836 H2828 0.950 . S
C2836 C2837 1.386 . S
C2836 C2838 1.391 . S
C2837 C2836 1.386 . S
C2837 C2841 1.393 . S
C2838 H2830 0.950 . S
C2838 C2836 1.391 . S
C2838 C2839 1.400 . S
C2839 C2838 1.400 . S
C2839 C2840 1.398 . S
C2839 C2845 1.491 . S
C2840 H2831 0.950 . S
C2840 C2839 1.398 . S
C2840 C2841 1.391 . S
C2841 H2829 0.950 . S
C2841 C2837 1.393 . S
C2841 C2840 1.391 . S
C2842 H2832 0.950 . S
C2842 C2843 1.386 . S
C2842 C2844 1.391 . S
C2843 C2842 1.386 . S
C2843 C2847 1.393 . S
C2844 H2833 0.950 . S
C2844 C2842 1.391 . S
C2844 C2845 1.400 . S
C2845 C2839 1.491 . S
C2845 C2844 1.400 . S
C2845 C2846 1.398 . S
C2846 H2834 0.950 . S
C2846 C2845 1.398 . S
C2846 C2847 1.391 . S
C2847 H2835 0.950 . S
C2847 C2843 1.393 . S
C2847 C2846 1.391 . S
H2848 C2856 0.950 . S
H2849 C2861 0.950 . S
H2850 C2858 0.950 . S
H2851 C2860 0.950 . S
H2852 C2862 0.950 . S
H2853 C2864 0.950 . S
H2854 C2866 0.950 . S
H2855 C2867 0.950 . S
C2856 H2848 0.950 . S
C2856 C2857 1.386 . S
C2856 C2858 1.391 . S
C2857 C2856 1.386 . S
C2857 C2861 1.393 . S
C2858 H2850 0.950 . S
C2858 C2856 1.391 . S
C2858 C2859 1.400 . S
C2859 C2858 1.400 . S
C2859 C2860 1.398 . S
C2859 C2865 1.491 . S
C2860 H2851 0.950 . S
C2860 C2859 1.398 . S
C2860 C2861 1.391 . S
C2861 H2849 0.950 . S
C2861 C2857 1.393 . S
C2861 C2860 1.391 . S
C2862 H2852 0.950 . S
C2862 C2863 1.386 . S
C2862 C2864 1.391 . S
C2863 C2862 1.386 . S
C2863 C2867 1.393 . S
C2864 H2853 0.950 . S
C2864 C2862 1.391 . S
C2864 C2865 1.400 . S
C2865 C2859 1.491 . S
C2865 C2864 1.400 . S
C2865 C2866 1.398 . S
C2866 H2854 0.950 . S
C2866 C2865 1.398 . S
C2866 C2867 1.391 . S
C2867 H2855 0.950 . S
C2867 C2863 1.393 . S
C2867 C2866 1.391 . S
H2868 C2876 0.950 . S
H2869 C2881 0.950 . S
H2870 C2878 0.950 . S
H2871 C2880 0.950 . S
H2872 C2882 0.950 . S
H2873 C2884 0.950 . S
H2874 C2886 0.950 . S
H2875 C2887 0.950 . S
C2876 H2868 0.950 . S
C2876 C2877 1.386 . S
C2876 C2878 1.391 . S
C2877 C2876 1.386 . S
C2877 C2881 1.393 . S
C2878 H2870 0.950 . S
C2878 C2876 1.391 . S
C2878 C2879 1.400 . S
C2879 C2878 1.400 . S
C2879 C2880 1.398 . S
C2879 C2885 1.491 . S
C2880 H2871 0.950 . S
C2880 C2879 1.398 . S
C2880 C2881 1.391 . S
C2881 H2869 0.950 . S
C2881 C2877 1.393 . S
C2881 C2880 1.391 . S
C2882 H2872 0.950 . S
C2882 C2883 1.386 . S
C2882 C2884 1.391 . S
C2883 C2882 1.386 . S
C2883 C2887 1.393 . S
C2884 H2873 0.950 . S
C2884 C2882 1.391 . S
C2884 C2885 1.400 . S
C2885 C2879 1.491 . S
C2885 C2884 1.400 . S
C2885 C2886 1.398 . S
C2886 H2874 0.950 . S
C2886 C2885 1.398 . S
C2886 C2887 1.391 . S
C2887 H2875 0.950 . S
C2887 C2883 1.393 . S
C2887 C2886 1.391 . S
H2888 C2896 0.950 . S
H2889 C2901 0.950 . S
H2890 C2898 0.950 . S
H2891 C2900 0.950 . S
H2892 C2902 0.950 . S
H2893 C2904 0.950 . S
H2894 C2906 0.950 . S
H2895 C2907 0.950 . S
C2896 H2888 0.950 . S
C2896 C2897 1.386 . S
C2896 C2898 1.391 . S
C2897 C2896 1.386 . S
C2897 C2901 1.393 . S
C2898 H2890 0.950 . S
C2898 C2896 1.391 . S
C2898 C2899 1.400 . S
C2899 C2898 1.400 . S
C2899 C2900 1.398 . S
C2899 C2905 1.491 . S
C2900 H2891 0.950 . S
C2900 C2899 1.398 . S
C2900 C2901 1.391 . S
C2901 H2889 0.950 . S
C2901 C2897 1.393 . S
C2901 C2900 1.391 . S
C2902 H2892 0.950 . S
C2902 C2903 1.386 . S
C2902 C2904 1.391 . S
C2903 C2902 1.386 . S
C2903 C2907 1.393 . S
C2904 H2893 0.950 . S
C2904 C2902 1.391 . S
C2904 C2905 1.400 . S
C2905 C2899 1.491 . S
C2905 C2904 1.400 . S
C2905 C2906 1.398 . S
C2906 H2894 0.950 . S
C2906 C2905 1.398 . S
C2906 C2907 1.391 . S
C2907 H2895 0.950 . S
C2907 C2903 1.393 . S
C2907 C2906 1.391 . S
H2908 C2916 0.950 . S
H2909 C2921 0.950 . S
H2910 C2918 0.950 . S
H2911 C2920 0.950 . S
H2912 C2922 0.950 . S
H2913 C2924 0.950 . S
H2914 C2926 0.950 . S
H2915 C2927 0.950 . S
C2916 H2908 0.950 . S
C2916 C2917 1.386 . S
C2916 C2918 1.391 . S
C2917 C2916 1.386 . S
C2917 C2921 1.393 . S
C2918 H2910 0.950 . S
C2918 C2916 1.391 . S
C2918 C2919 1.400 . S
C2919 C2918 1.400 . S
C2919 C2920 1.398 . S
C2919 C2925 1.491 . S
C2920 H2911 0.950 . S
C2920 C2919 1.398 . S
C2920 C2921 1.391 . S
C2921 H2909 0.950 . S
C2921 C2917 1.393 . S
C2921 C2920 1.391 . S
C2922 H2912 0.950 . S
C2922 C2923 1.386 . S
C2922 C2924 1.391 . S
C2923 C2922 1.386 . S
C2923 C2927 1.393 . S
C2924 H2913 0.950 . S
C2924 C2922 1.391 . S
C2924 C2925 1.400 . S
C2925 C2919 1.491 . S
C2925 C2924 1.400 . S
C2925 C2926 1.398 . S
C2926 H2914 0.950 . S
C2926 C2925 1.398 . S
C2926 C2927 1.391 . S
C2927 H2915 0.950 . S
C2927 C2923 1.393 . S
C2927 C2926 1.391 . S
H2928 C2936 0.950 . S
H2929 C2941 0.950 . S
H2930 C2938 0.950 . S
H2931 C2940 0.950 . S
H2932 C2942 0.950 . S
H2933 C2944 0.950 . S
H2934 C2946 0.950 . S
H2935 C2947 0.950 . S
C2936 H2928 0.950 . S
C2936 C2937 1.386 . S
C2936 C2938 1.391 . S
C2937 C2936 1.386 . S
C2937 C2941 1.393 . S
C2938 H2930 0.950 . S
C2938 C2936 1.391 . S
C2938 C2939 1.400 . S
C2939 C2938 1.400 . S
C2939 C2940 1.398 . S
C2939 C2945 1.491 . S
C2940 H2931 0.950 . S
C2940 C2939 1.398 . S
C2940 C2941 1.391 . S
C2941 H2929 0.950 . S
C2941 C2937 1.393 . S
C2941 C2940 1.391 . S
C2942 H2932 0.950 . S
C2942 C2943 1.386 . S
C2942 C2944 1.391 . S
C2943 C2942 1.386 . S
C2943 C2947 1.393 . S
C2944 H2933 0.950 . S
C2944 C2942 1.391 . S
C2944 C2945 1.400 . S
C2945 C2939 1.491 . S
C2945 C2944 1.400 . S
C2945 C2946 1.398 . S
C2946 H2934 0.950 . S
C2946 C2945 1.398 . S
C2946 C2947 1.391 . S
C2947 H2935 0.950 . S
C2947 C2943 1.393 . S
C2947 C2946 1.391 . S
H2948 C2956 0.950 . S
H2949 C2961 0.950 . S
H2950 C2958 0.950 . S
H2951 C2960 0.950 . S
H2952 C2962 0.950 . S
H2953 C2964 0.950 . S
H2954 C2966 0.950 . S
H2955 C2967 0.950 . S
C2956 H2948 0.950 . S
C2956 C2957 1.386 . S
C2956 C2958 1.391 . S
C2957 C2956 1.386 . S
C2957 C2961 1.393 . S
C2958 H2950 0.950 . S
C2958 C2956 1.391 . S
C2958 C2959 1.400 . S
C2959 C2958 1.400 . S
C2959 C2960 1.398 . S
C2959 C2965 1.491 . S
C2960 H2951 0.950 . S
C2960 C2959 1.398 . S
C2960 C2961 1.391 . S
C2961 H2949 0.950 . S
C2961 C2957 1.393 . S
C2961 C2960 1.391 . S
C2962 H2952 0.950 . S
C2962 C2963 1.386 . S
C2962 C2964 1.391 . S
C2963 C2962 1.386 . S
C2963 C2967 1.393 . S
C2964 H2953 0.950 . S
C2964 C2962 1.391 . S
C2964 C2965 1.400 . S
C2965 C2959 1.491 . S
C2965 C2964 1.400 . S
C2965 C2966 1.398 . S
C2966 H2954 0.950 . S
C2966 C2965 1.398 . S
C2966 C2967 1.391 . S
C2967 H2955 0.950 . S
C2967 C2963 1.393 . S
C2967 C2966 1.391 . S
H2968 C2976 0.950 . S
H2969 C2981 0.950 . S
H2970 C2978 0.950 . S
H2971 C2980 0.950 . S
H2972 C2982 0.950 . S
H2973 C2984 0.950 . S
H2974 C2986 0.950 . S
H2975 C2987 0.950 . S
C2976 H2968 0.950 . S
C2976 C2977 1.386 . S
C2976 C2978 1.391 . S
C2977 C2976 1.386 . S
C2977 C2981 1.393 . S
C2978 H2970 0.950 . S
C2978 C2976 1.391 . S
C2978 C2979 1.400 . S
C2979 C2978 1.400 . S
C2979 C2980 1.398 . S
C2979 C2985 1.491 . S
C2980 H2971 0.950 . S
C2980 C2979 1.398 . S
C2980 C2981 1.391 . S
C2981 H2969 0.950 . S
C2981 C2977 1.393 . S
C2981 C2980 1.391 . S
C2982 H2972 0.950 . S
C2982 C2983 1.386 . S
C2982 C2984 1.391 . S
C2983 C2982 1.386 . S
C2983 C2987 1.393 . S
C2984 H2973 0.950 . S
C2984 C2982 1.391 . S
C2984 C2985 1.400 . S
C2985 C2979 1.491 . S
C2985 C2984 1.400 . S
C2985 C2986 1.398 . S
C2986 H2974 0.950 . S
C2986 C2985 1.398 . S
C2986 C2987 1.391 . S
C2987 H2975 0.950 . S
C2987 C2983 1.393 . S
C2987 C2986 1.391 . S
C1197 C120 0.364 . S
C1203 C21 0.396 . S
C1217 C54 0.387 . S
C1223 C153 0.426 . S
C1237 C186 0.409 . S
C1243 C87 0.414 . S
C1257 C318 0.426 . S
C1263 C219 0.372 . S
C1277 C252 0.404 . S
C1283 C351 0.418 . S
C1297 C384 0.415 . S
C1303 C285 0.361 . S
C1317 C516 0.371 . S
C1323 C417 0.426 . S
C1337 C450 0.425 . S
C1343 C549 0.368 . S
C1357 C582 0.417 . S
C1363 C483 0.406 . S
C1377 C615 0.425 . S
C1383 C714 0.369 . S
C1397 C648 0.409 . S
C1403 C747 0.360 . S
C1417 C780 0.394 . S
C1423 C681 0.366 . S
C1437 C912 0.372 . S
C1443 C813 0.385 . S
C1457 C945 0.392 . S
C1463 C846 0.425 . S
C1477 C978 0.362 . S
C1483 C879 0.418 . S
C1497 C1110 0.362 . S
C1503 C1011 0.403 . S
C1517 C1044 0.396 . S
C1523 C1143 0.423 . S
C1537 C1176 0.427 . S
C1543 C1077 0.381 . S
C1557 C7 1.699 . S
C1563 C964 1.703 . S
C1577 C898 1.697 . S
C1583 C40 1.686 1_565 S
C1597 C73 1.695 . S
C1603 C931 1.684 . S
C1617 C436 1.684 . S
C1623 C106 1.694 . S
C1637 C139 1.693 1_545 S
C1643 C469 1.703 . S
C1657 C403 1.700 . S
C1663 C172 1.699 . S
C1677 C766 1.702 . S
C1683 C205 1.701 . S
C1697 C700 1.704 . S
C1703 C238 1.698 . S
C1717 C733 1.695 . S
C1723 C271 1.749 . S
C1737 C304 1.683 . S
C1743 C1030 1.687 . S
C1757 C1063 1.695 . S
C1763 C337 1.681 1_565 S
C1777 C370 1.702 . S
C1783 C997 1.690 . S
C1797 C832 1.694 . S
C1803 C502 1.683 . S
C1817 C865 1.694 . S
C1823 C535 1.703 . S
C1837 C799 1.685 . S
C1843 C568 1.685 . S
C1857 C601 1.691 . S
C1863 C1162 1.702 . S
C1877 C634 1.699 . S
C1883 C1096 1.687 . S
C1897 C1129 1.700 . S
C1903 C667 1.703 . S
C1917 N13 1.264 . S
C1923 N607 1.264 . S
C1937 N640 1.263 . S
C1943 N46 1.263 . S
C1957 N79 1.243 . S
C1963 N673 1.243 . S
C1977 N1102 1.252 . S
C1983 N112 1.252 . S
C1997 N145 1.245 . S
C2003 N1135 1.245 . S
C2017 N1168 1.241 . S
C2023 N178 1.241 . S
C2037 N211 1.255 . S
C2043 N805 1.255 . S
C2057 N244 1.241 . S
C2063 N838 1.241 . S
C2077 N277 1.264 . S
C2083 N871 1.264 . S
C2097 N508 1.264 . S
C2103 N310 1.264 . S
C2117 N541 1.244 . S
C2123 N343 1.244 . S
C2137 N376 1.262 . S
C2143 N574 1.262 . S
C2157 N409 1.249 . S
C2163 N1003 1.249 . S
C2177 N1036 1.262 . S
C2183 N442 1.262 . S
C2197 N475 1.260 . S
C2203 N1069 1.260 . S
C2217 N904 1.249 . S
C2223 N706 1.249 . S
C2237 N739 1.264 . S
C2243 N937 1.264 . S
C2257 N970 1.246 . S
C2263 N772 1.246 . S
C2277 N233 1.537 . S
C2283 C18 1.617 . S
C2297 C51 1.620 . S
C2303 N266 1.558 . S
C2317 C84 1.620 . S
C2323 N200 1.547 . S
C2337 C117 1.618 . S
C2343 N365 1.548 . S
C2357 C150 1.619 . S
C2363 N299 1.543 . S
C2377 C183 1.618 . S
C2383 N332 1.538 . S
C2397 N35 1.537 . S
C2403 C216 1.618 . S
C2417 N68 1.540 . S
C2423 C249 1.618 . S
C2437 N2 1.538 . S
C2443 C282 1.618 . S
C2457 C315 1.617 . S
C2463 N167 1.536 . S
C2477 C348 1.620 . S
C2483 N101 1.557 . S
C2497 C381 1.618 . S
C2503 N134 1.546 . S
C2517 C414 1.621 . S
C2523 N629 1.562 . S
C2537 N662 1.547 . S
C2543 C447 1.620 . S
C2557 N596 1.540 . S
C2563 C480 1.619 . S
C2577 C513 1.618 . S
C2583 N761 1.541 . S
C2597 N695 1.549 . S
C2603 C546 1.619 . S
C2617 N728 1.562 . S
C2623 C579 1.621 . S
C2637 C612 1.620 . S
C2643 N431 1.560 . S
C2657 C645 1.622 . S
C2663 N464 1.562 . S
C2677 N398 1.555 . S
C2683 C678 1.620 . S
C2697 N563 1.537 . S
C2703 C711 1.618 . S
C2717 N497 1.537 . S
C2723 C744 1.618 . S
C2737 N530 1.536 . S
C2743 C777 1.617 . S
C2757 C810 1.617 . S
C2763 N1025 1.536 . S
C2777 N1058 1.559 . S
C2783 C843 1.620 . S
C2797 N992 1.561 . S
C2803 C876 1.622 . S
C2817 C909 1.619 . S
C2823 N1157 1.540 . S
C2837 C942 1.621 . S
C2843 N1091 1.554 . S
C2857 C975 1.621 . S
C2863 N1124 1.557 . S
C2877 N827 1.537 . S
C2883 C1008 1.617 . S
C2897 N860 1.562 . S
C2903 C1041 1.621 . S
C2917 C1074 1.618 . S
C2923 N794 1.536 . S
C2937 C1107 1.621 . S
C2943 N959 1.562 . S
C2957 C1140 1.620 . S
C2963 N893 1.552 . S
C2977 C1173 1.619 . S
C2983 N926 1.552 . S
