# Generated by pormake.
# Topology tzs, (4)-cn, num edge types: 1
# Building blocks:
#     Node 0, Type 0, BuildingBlock: NAHDIM_clean_sbu_0, # of connection points: 4
#     Node 1, Type 0, BuildingBlock: NAHDIM_clean_sbu_0, # of connection points: 4
#     Node 2, Type 0, BuildingBlock: NAHDIM_clean_sbu_0, # of connection points: 4
#     Node 3, Type 0, BuildingBlock: NAHDIM_clean_sbu_0, # of connection points: 4
#     Node 4, Type 0, BuildingBlock: NAHDIM_clean_sbu_0, # of connection points: 4
#     Node 5, Type 0, BuildingBlock: NAHDIM_clean_sbu_0, # of connection points: 4
#     Node 6, Type 0, BuildingBlock: NAHDIM_clean_sbu_0, # of connection points: 4
#     Node 7, Type 0, BuildingBlock: NAHDIM_clean_sbu_0, # of connection points: 4
#     Node 8, Type 0, BuildingBlock: NAHDIM_clean_sbu_0, # of connection points: 4
#     Node 9, Type 0, BuildingBlock: NAHDIM_clean_sbu_0, # of connection points: 4
#     Node 10, Type 0, BuildingBlock: NAHDIM_clean_sbu_0, # of connection points: 4
#     Node 11, Type 0, BuildingBlock: NAHDIM_clean_sbu_0, # of connection points: 4
#     Node 12, Type 0, BuildingBlock: NAHDIM_clean_sbu_0, # of connection points: 4
#     Node 13, Type 0, BuildingBlock: NAHDIM_clean_sbu_0, # of connection points: 4
#     Node 14, Type 0, BuildingBlock: NAHDIM_clean_sbu_0, # of connection points: 4
#     Node 15, Type 0, BuildingBlock: NAHDIM_clean_sbu_0, # of connection points: 4
#     Edge 16, Type (0, 0), BuildingBlock: XIVTED_clean_linker_0, # of connection points: 2
#     Edge 17, Type (0, 0), BuildingBlock: XIVTED_clean_linker_0, # of connection points: 2
#     Edge 18, Type (0, 0), BuildingBlock: XIVTED_clean_linker_0, # of connection points: 2
#     Edge 19, Type (0, 0), BuildingBlock: XIVTED_clean_linker_0, # of connection points: 2
#     Edge 20, Type (0, 0), BuildingBlock: XIVTED_clean_linker_0, # of connection points: 2
#     Edge 21, Type (0, 0), BuildingBlock: XIVTED_clean_linker_0, # of connection points: 2
#     Edge 22, Type (0, 0), BuildingBlock: XIVTED_clean_linker_0, # of connection points: 2
#     Edge 23, Type (0, 0), BuildingBlock: XIVTED_clean_linker_0, # of connection points: 2
#     Edge 24, Type (0, 0), BuildingBlock: XIVTED_clean_linker_0, # of connection points: 2
#     Edge 25, Type (0, 0), BuildingBlock: XIVTED_clean_linker_0, # of connection points: 2
#     Edge 26, Type (0, 0), BuildingBlock: XIVTED_clean_linker_0, # of connection points: 2
#     Edge 27, Type (0, 0), BuildingBlock: XIVTED_clean_linker_0, # of connection points: 2
#     Edge 28, Type (0, 0), BuildingBlock: XIVTED_clean_linker_0, # of connection points: 2
#     Edge 29, Type (0, 0), BuildingBlock: XIVTED_clean_linker_0, # of connection points: 2
#     Edge 30, Type (0, 0), BuildingBlock: XIVTED_clean_linker_0, # of connection points: 2
#     Edge 31, Type (0, 0), BuildingBlock: XIVTED_clean_linker_0, # of connection points: 2
#     Edge 32, Type (0, 0), BuildingBlock: XIVTED_clean_linker_0, # of connection points: 2
#     Edge 33, Type (0, 0), BuildingBlock: XIVTED_clean_linker_0, # of connection points: 2
#     Edge 34, Type (0, 0), BuildingBlock: XIVTED_clean_linker_0, # of connection points: 2
#     Edge 35, Type (0, 0), BuildingBlock: XIVTED_clean_linker_0, # of connection points: 2
#     Edge 36, Type (0, 0), BuildingBlock: XIVTED_clean_linker_0, # of connection points: 2
#     Edge 37, Type (0, 0), BuildingBlock: XIVTED_clean_linker_0, # of connection points: 2
#     Edge 38, Type (0, 0), BuildingBlock: XIVTED_clean_linker_0, # of connection points: 2
#     Edge 39, Type (0, 0), BuildingBlock: XIVTED_clean_linker_0, # of connection points: 2
#     Edge 40, Type (0, 0), BuildingBlock: XIVTED_clean_linker_0, # of connection points: 2
#     Edge 41, Type (0, 0), BuildingBlock: XIVTED_clean_linker_0, # of connection points: 2
#     Edge 42, Type (0, 0), BuildingBlock: XIVTED_clean_linker_0, # of connection points: 2
#     Edge 43, Type (0, 0), BuildingBlock: XIVTED_clean_linker_0, # of connection points: 2
#     Edge 44, Type (0, 0), BuildingBlock: XIVTED_clean_linker_0, # of connection points: 2
#     Edge 45, Type (0, 0), BuildingBlock: XIVTED_clean_linker_0, # of connection points: 2
#     Edge 46, Type (0, 0), BuildingBlock: XIVTED_clean_linker_0, # of connection points: 2
#     Edge 47, Type (0, 0), BuildingBlock: XIVTED_clean_linker_0, # of connection points: 2
# Relax obj value: 0.068
# Max RMSD: 0.082
# Mean RMSD: 0.082
data_MOF--net-tzs--node1-NAHDIM_clean_sbu_0--edge1-XIVTED_clean_linker_0
_symmetry_space_group_name_H-M    P1
_symmetry_Int_Tables_number       1
_symmetry_cell_setting            triclinic
loop_
_symmetry_equiv_pos_as_xyz
'x, y, z'
_cell_length_a     49.547742
_cell_length_b     49.652915
_cell_length_c     39.604986
_cell_angle_alpha  90.042332
_cell_angle_beta   90.044019
_cell_angle_gamma 89.915762
loop_
_atom_site_label
_atom_site_type_symbol
_atom_site_fract_x
_atom_site_fract_y
_atom_site_fract_z
_atom_type_partial_charge
C0 C 0.18755 0.32123 0.22733 0.0
O1 O 0.18423 0.34401 0.24369 0.0
O2 O 0.15827 0.38152 0.1968 0.0
Zn3 Zn 0.14723 0.34388 0.18328 0.0
O4 O 0.14458 0.34073 0.1328 0.0
C5 C 0.10538 0.34492 0.23297 0.0
O6 O 0.12397 0.35788 0.25016 0.0
O7 O 0.17394 0.31687 0.20069 0.0
C8 C 0.12317 0.34787 0.11753 0.0
O9 O 0.10276 0.35726 0.13517 0.0
C10 C 0.15905 0.40133 0.17653 0.0
O11 O 0.15353 0.39745 0.14447 0.0
O12 O 0.11091 0.33636 0.20355 0.0
C13 C 0.66872 0.18478 0.23733 0.0
O14 O 0.64754 0.17993 0.25629 0.0
O15 O 0.60388 0.16668 0.20798 0.0
Zn16 Zn 0.63918 0.15307 0.18942 0.0
O17 O 0.63943 0.1552 0.13883 0.0
C18 C 0.62408 0.09871 0.19354 0.0
O19 O 0.60446 0.1085 0.17487 0.0
O20 O 0.66975 0.17493 0.20776 0.0
C21 C 0.65533 0.14031 0.12195 0.0
O22 O 0.67178 0.12397 0.13803 0.0
C23 C 0.58318 0.17041 0.18961 0.0
O24 O 0.58499 0.16663 0.15686 0.0
O25 O 0.64275 0.11438 0.20336 0.0
C26 C 0.81169 0.6929 0.19527 0.0
O27 O 0.83055 0.70233 0.17522 0.0
O28 O 0.82742 0.60463 0.19548 0.0
Zn29 Zn 0.83607 0.64179 0.17923 0.0
O30 O 0.83218 0.64309 0.12875 0.0
C31 C 0.88033 0.65739 0.22239 0.0
O32 O 0.86109 0.66014 0.24494 0.0
O33 O 0.81039 0.66774 0.20066 0.0
C34 C 0.84863 0.65619 0.11048 0.0
O35 O 0.86839 0.66954 0.12493 0.0
C36 C 0.83795 0.58446 0.18079 0.0
O37 O 0.85391 0.58845 0.15479 0.0
O38 O 0.87425 0.65013 0.19259 0.0
C39 C 0.31274 0.80928 0.23166 0.0
O40 O 0.33443 0.81238 0.25035 0.0
O41 O 0.37684 0.83041 0.2036 0.0
Zn42 Zn 0.34125 0.8446 0.18656 0.0
O43 O 0.34039 0.84421 0.13573 0.0
C44 C 0.35426 0.89976 0.19136 0.0
O45 O 0.37259 0.89156 0.16968 0.0
O46 O 0.31102 0.82162 0.20366 0.0
C47 C 0.32712 0.86183 0.1194 0.0
O48 O 0.31332 0.88017 0.13597 0.0
C49 C 0.39735 0.82759 0.18466 0.0
O50 O 0.39523 0.83309 0.15233 0.0
O51 O 0.33755 0.88277 0.20305 0.0
C52 C 0.1769 0.66791 0.29136 0.0
O53 O 0.1817 0.65084 0.31597 0.0
O54 O 0.14027 0.6016 0.26515 0.0
Zn55 Zn 0.12928 0.63639 0.28724 0.0
O56 O 0.12995 0.63251 0.33766 0.0
C57 C 0.07469 0.65731 0.29072 0.0
O58 O 0.0819 0.66467 0.32129 0.0
O59 O 0.1552 0.66568 0.27445 0.0
C60 C 0.11771 0.6142 0.35392 0.0
O61 O 0.10323 0.59638 0.3374 0.0
C62 C 0.15613 0.58471 0.2789 0.0
O63 O 0.1665 0.59012 0.30867 0.0
O64 O 0.09173 0.64556 0.27179 0.0
C65 C 0.32227 0.18548 0.30965 0.0
O66 O 0.34016 0.19182 0.33282 0.0
O67 O 0.38751 0.14945 0.29052 0.0
Zn68 Zn 0.3525 0.13703 0.31075 0.0
O69 O 0.3548 0.13687 0.36127 0.0
C70 C 0.35225 0.09296 0.26455 0.0
O71 O 0.36327 0.11127 0.24503 0.0
O72 O 0.32321 0.16228 0.29616 0.0
C73 C 0.37038 0.12071 0.37672 0.0
O74 O 0.38525 0.1038 0.35919 0.0
C75 C 0.40566 0.16263 0.30601 0.0
O76 O 0.40204 0.16923 0.33781 0.0
O77 O 0.34506 0.09947 0.29425 0.0
C78 C 0.80831 0.32028 0.30376 0.0
O79 O 0.80205 0.33843 0.3266 0.0
O80 O 0.84883 0.38444 0.27707 0.0
Zn81 Zn 0.8568 0.35077 0.30309 0.0
O82 O 0.85302 0.35769 0.3528 0.0
C83 C 0.91355 0.35312 0.309 0.0
O84 O 0.90659 0.37173 0.33094 0.0
O85 O 0.83122 0.32144 0.28941 0.0
C86 C 0.85685 0.33827 0.37307 0.0
O87 O 0.86309 0.31444 0.36086 0.0
C88 C 0.83274 0.40251 0.28763 0.0
O89 O 0.8201 0.39897 0.31643 0.0
O90 O 0.89517 0.34034 0.29337 0.0
C91 C 0.66517 0.81008 0.28918 0.0
O92 O 0.64683 0.80014 0.30961 0.0
O93 O 0.59729 0.83924 0.27463 0.0
Zn94 Zn 0.63085 0.85536 0.295 0.0
O95 O 0.62955 0.85403 0.34566 0.0
C96 C 0.61344 0.9063 0.26868 0.0
O97 O 0.59012 0.89376 0.26791 0.0
O98 O 0.66278 0.83423 0.2791 0.0
C99 C 0.61501 0.87016 0.36269 0.0
O100 O 0.60026 0.88816 0.34683 0.0
C101 C 0.57866 0.82771 0.29122 0.0
O102 O 0.58132 0.82458 0.32398 0.0
O103 O 0.63416 0.89392 0.27959 0.0
C104 C 0.82056 0.68782 0.78351 0.0
O105 O 0.82909 0.69391 0.81397 0.0
O106 O 0.89569 0.65194 0.77003 0.0
Zn107 Zn 0.85912 0.64446 0.78991 0.0
O108 O 0.85974 0.65063 0.84014 0.0
C109 C 0.85825 0.58713 0.80026 0.0
O110 O 0.87291 0.59349 0.82672 0.0
O111 O 0.83092 0.66789 0.76808 0.0
C112 C 0.84 0.64301 0.8582 0.0
O113 O 0.81919 0.63145 0.84359 0.0
C114 C 0.91679 0.64661 0.78703 0.0
O115 O 0.91425 0.63722 0.81786 0.0
O116 O 0.84996 0.6057 0.78075 0.0
C117 C 0.28979 0.82546 0.77424 0.0
O118 O 0.27921 0.84893 0.78195 0.0
O119 O 0.32514 0.88668 0.77871 0.0
Zn120 Zn 0.33731 0.85134 0.79878 0.0
O121 O 0.33409 0.85121 0.8495 0.0
C122 C 0.39146 0.86645 0.78476 0.0
O123 O 0.3811 0.8902 0.79156 0.0
O124 O 0.31479 0.82148 0.77945 0.0
C125 C 0.34117 0.87115 0.86756 0.0
O126 O 0.35069 0.89289 0.85298 0.0
C127 C 0.30897 0.90355 0.79192 0.0
O128 O 0.29783 0.89828 0.82125 0.0
O129 O 0.37635 0.84581 0.78613 0.0
C130 C 0.19255 0.31557 0.78785 0.0
O131 O 0.20183 0.33369 0.80908 0.0
O132 O 0.10804 0.34462 0.77686 0.0
Zn133 Zn 0.14486 0.34597 0.79766 0.0
O134 O 0.14236 0.34213 0.84799 0.0
C135 C 0.17051 0.39869 0.80577 0.0
O136 O 0.1712 0.39297 0.83813 0.0
O137 O 0.16795 0.31658 0.77896 0.0
C138 C 0.1238 0.35371 0.86471 0.0
O139 O 0.10586 0.36845 0.8487 0.0
C140 C 0.08981 0.32797 0.78523 0.0
O141 O 0.095 0.30981 0.80846 0.0
O142 O 0.16086 0.38165 0.7851 0.0
C143 C 0.70491 0.14878 0.78314 0.0
O144 O 0.71538 0.12579 0.79308 0.0
O145 O 0.66949 0.08668 0.78074 0.0
Zn146 Zn 0.65718 0.12151 0.80159 0.0
O147 O 0.66059 0.12063 0.852 0.0
C148 C 0.60193 0.10871 0.7993 0.0
O149 O 0.61131 0.08812 0.81654 0.0
O150 O 0.67948 0.15188 0.78405 0.0
C151 C 0.64916 0.13913 0.86893 0.0
O152 O 0.63571 0.15802 0.85287 0.0
C153 C 0.67703 0.06651 0.79809 0.0
O154 O 0.67767 0.06841 0.83116 0.0
O155 O 0.61825 0.12681 0.78956 0.0
C156 C 0.82692 0.2978 0.70826 0.0
O157 O 0.85055 0.2924 0.6948 0.0
O158 O 0.88228 0.34109 0.70881 0.0
Zn159 Zn 0.84492 0.34977 0.69271 0.0
O160 O 0.84462 0.34764 0.64219 0.0
C161 C 0.84053 0.39286 0.73941 0.0
O162 O 0.85001 0.37413 0.75964 0.0
O163 O 0.81939 0.32218 0.7107 0.0
C164 C 0.84282 0.36793 0.62281 0.0
O165 O 0.84064 0.39214 0.63592 0.0
C166 C 0.90188 0.35515 0.69816 0.0
O167 O 0.89708 0.37492 0.67695 0.0
O168 O 0.83554 0.38688 0.70886 0.0
C169 C 0.67351 0.79766 0.67827 0.0
O170 O 0.67592 0.80573 0.64684 0.0
O171 O 0.65168 0.87306 0.69921 0.0
Zn172 Zn 0.63358 0.8398 0.68122 0.0
O173 O 0.63176 0.84088 0.63048 0.0
C174 C 0.58474 0.85969 0.7105 0.0
O175 O 0.59837 0.8823 0.70874 0.0
O176 O 0.65584 0.80854 0.69711 0.0
C177 C 0.61694 0.85801 0.61548 0.0
O178 O 0.60265 0.87507 0.63348 0.0
C179 C 0.66452 0.89042 0.68206 0.0
O180 O 0.66743 0.887 0.64938 0.0
O181 O 0.59572 0.83801 0.70021 0.0
C182 C 0.17331 0.67795 0.6821 0.0
O183 O 0.14957 0.68375 0.66922 0.0
O184 O 0.11848 0.63075 0.69244 0.0
Zn185 Zn 0.15468 0.62442 0.6708 0.0
O186 O 0.15117 0.62409 0.62041 0.0
C187 C 0.17359 0.58517 0.71767 0.0
O188 O 0.1706 0.60542 0.73872 0.0
O189 O 0.18027 0.65344 0.68505 0.0
C190 C 0.13772 0.60575 0.60568 0.0
O191 O 0.12625 0.58685 0.62387 0.0
C192 C 0.09872 0.64173 0.67727 0.0
O193 O 0.10166 0.64975 0.64589 0.0
O194 O 0.16845 0.5887 0.68656 0.0
C195 C 0.31447 0.16973 0.70193 0.0
O196 O 0.30484 0.15148 0.68114 0.0
O197 O 0.34064 0.10212 0.71289 0.0
Zn198 Zn 0.35959 0.1355 0.69653 0.0
O199 O 0.36125 0.13599 0.64591 0.0
C200 C 0.40804 0.11549 0.72776 0.0
O201 O 0.39397 0.09311 0.72876 0.0
O202 O 0.3386 0.16747 0.71238 0.0
C203 C 0.37711 0.1205 0.62979 0.0
O204 O 0.39278 0.10389 0.64664 0.0
C205 C 0.32857 0.08552 0.69371 0.0
O206 O 0.32734 0.09022 0.66112 0.0
O207 O 0.39742 0.13656 0.71525 0.0
H208 H 0.31354 0.23609 0.33479 0.0
H209 H 0.19745 0.27112 0.20127 0.0
H210 H 0.28448 0.18014 0.25962 0.0
H211 H 0.22165 0.32478 0.28161 0.0
H212 H 0.22964 0.23776 0.22195 0.0
H213 H 0.28032 0.26903 0.31542 0.0
C214 C 0.30014 0.2307 0.31425 0.0
C215 C 0.30182 0.20533 0.29876 0.0
C216 C 0.22789 0.25681 0.2351 0.0
C217 C 0.2638 0.24298 0.27641 0.0
C218 C 0.20953 0.2759 0.22328 0.0
C219 C 0.20688 0.30081 0.23971 0.0
C220 C 0.24381 0.26266 0.26351 0.0
C221 C 0.22303 0.30585 0.26814 0.0
C222 C 0.28117 0.24953 0.30322 0.0
C223 C 0.28391 0.19946 0.2723 0.0
N224 N 0.24085 0.28695 0.2791 0.0
N225 N 0.26571 0.21817 0.2619 0.0
H226 H 0.81256 0.2824 0.25371 0.0
H227 H 0.67029 0.21409 0.29588 0.0
H228 H 0.75994 0.3093 0.33383 0.0
H229 H 0.71646 0.1966 0.20603 0.0
H230 H 0.70524 0.2458 0.31352 0.0
H231 H 0.77965 0.24769 0.23904 0.0
C232 C 0.79412 0.28098 0.26827 0.0
C233 C 0.78891 0.29887 0.29492 0.0
C234 C 0.70775 0.23496 0.29 0.0
C235 C 0.75124 0.25917 0.27835 0.0
C236 C 0.68784 0.21679 0.27995 0.0
C237 C 0.69038 0.2028 0.24934 0.0
C238 C 0.7304 0.23907 0.26934 0.0
C239 C 0.71358 0.20708 0.22974 0.0
C240 C 0.77533 0.26118 0.25986 0.0
C241 C 0.76471 0.29605 0.31296 0.0
N242 N 0.73266 0.22488 0.24005 0.0
N243 N 0.74676 0.27658 0.30432 0.0
H244 H 0.80602 0.74737 0.1862 0.0
H245 H 0.67547 0.7574 0.30462 0.0
H246 H 0.77152 0.67988 0.23954 0.0
H247 H 0.7065 0.82425 0.24686 0.0
H248 H 0.71225 0.72939 0.2835 0.0
H249 H 0.77139 0.7766 0.21067 0.0
C250 C 0.79124 0.73871 0.20313 0.0
C251 C 0.79159 0.71112 0.2107 0.0
C252 C 0.71106 0.7502 0.27548 0.0
C253 C 0.75195 0.7444 0.23875 0.0
C254 C 0.69006 0.76622 0.28756 0.0
C255 C 0.68783 0.79318 0.27738 0.0
C256 C 0.73002 0.7612 0.25305 0.0
C257 C 0.70738 0.80354 0.25529 0.0
C258 C 0.77147 0.7554 0.21707 0.0
C259 C 0.77197 0.70101 0.23286 0.0
N260 N 0.72763 0.7875 0.24379 0.0
N261 N 0.75293 0.71763 0.24602 0.0
H262 H 0.26498 0.79889 0.19944 0.0
H263 H 0.22381 0.67956 0.32465 0.0
H264 H 0.31185 0.77612 0.28688 0.0
H265 H 0.17445 0.70556 0.24085 0.0
H266 H 0.256 0.71519 0.31159 0.0
H267 H 0.23117 0.76541 0.21483 0.0
C268 C 0.26811 0.78694 0.22198 0.0
C269 C 0.29136 0.79023 0.24184 0.0
C270 C 0.23811 0.71315 0.29609 0.0
C271 C 0.25274 0.75175 0.2595 0.0
C272 C 0.21972 0.69276 0.30349 0.0
C273 C 0.19642 0.68952 0.28374 0.0
C274 C 0.23323 0.73039 0.26867 0.0
C275 C 0.19216 0.70729 0.25672 0.0
C276 C 0.24878 0.7678 0.23074 0.0
C277 C 0.29428 0.77423 0.2708 0.0
N278 N 0.21043 0.72692 0.24992 0.0
N279 N 0.27525 0.75559 0.27866 0.0
H280 H 0.7114 0.76741 0.645 0.0
H281 H 0.78722 0.72432 0.81392 0.0
H282 H 0.68096 0.78496 0.74477 0.0
H283 H 0.80322 0.68645 0.71781 0.0
H284 H 0.75004 0.74922 0.78812 0.0
H285 H 0.7467 0.73941 0.67038 0.0
C286 C 0.712 0.76521 0.6722 0.0
C287 C 0.69328 0.77862 0.69281 0.0
C288 C 0.76164 0.7354 0.7727 0.0
C289 C 0.73373 0.74698 0.72192 0.0
C290 C 0.78297 0.72129 0.78735 0.0
C291 C 0.79836 0.70331 0.76796 0.0
C292 C 0.75583 0.73175 0.7383 0.0
C293 C 0.79183 0.70009 0.73369 0.0
C294 C 0.73214 0.74923 0.68664 0.0
C295 C 0.69497 0.77501 0.72789 0.0
N296 N 0.77112 0.71429 0.71988 0.0
N297 N 0.715 0.75974 0.74135 0.0
H298 H 0.22482 0.6732 0.70648 0.0
H299 H 0.23715 0.8291 0.75413 0.0
H300 H 0.16277 0.73197 0.68526 0.0
H301 H 0.30365 0.77306 0.76102 0.0
H302 H 0.20916 0.79341 0.7304 0.0
H303 H 0.25366 0.70921 0.72793 0.0
C304 C 0.21728 0.69368 0.70625 0.0
C305 C 0.19131 0.69959 0.69412 0.0
C306 C 0.22989 0.78892 0.73702 0.0
C307 C 0.22418 0.74085 0.71877 0.0
C308 C 0.24588 0.80928 0.75066 0.0
C309 C 0.27277 0.80403 0.75963 0.0
C310 C 0.24081 0.76306 0.7325 0.0
C311 C 0.28302 0.77799 0.75445 0.0
C312 C 0.23378 0.71423 0.71847 0.0
C313 C 0.18263 0.7265 0.69438 0.0
N314 N 0.26698 0.75844 0.74133 0.0
N315 N 0.19899 0.74612 0.70664 0.0
H316 H 0.1799 0.27556 0.74306 0.0
H317 H 0.32779 0.21058 0.74533 0.0
H318 H 0.24601 0.30727 0.80195 0.0
H319 H 0.26175 0.17966 0.68565 0.0
H320 H 0.29838 0.24658 0.76574 0.0
H321 H 0.20981 0.24058 0.72127 0.0
C322 C 0.20072 0.27518 0.75141 0.0
C323 C 0.21047 0.29436 0.77441 0.0
C324 C 0.29034 0.23195 0.74813 0.0
C325 C 0.24484 0.25434 0.74953 0.0
C326 C 0.30713 0.2114 0.73645 0.0
C327 C 0.29719 0.19205 0.7138 0.0
C328 C 0.26342 0.23316 0.73712 0.0
C329 C 0.27026 0.19412 0.70313 0.0
C330 C 0.2178 0.2552 0.73893 0.0
C331 C 0.23763 0.29289 0.78429 0.0
N332 N 0.2543 0.21427 0.71494 0.0
N333 N 0.25387 0.27319 0.77182 0.0
H334 H 0.69056 0.20076 0.76864 0.0
H335 H 0.8391 0.24426 0.71269 0.0
H336 H 0.75931 0.14725 0.77179 0.0
H337 H 0.77447 0.30109 0.7297 0.0
H338 H 0.80937 0.20787 0.73075 0.0
H339 H 0.72025 0.23724 0.75058 0.0
C340 C 0.71189 0.19666 0.76546 0.0
C341 C 0.7225 0.17092 0.77174 0.0
C342 C 0.80171 0.22831 0.73061 0.0
C343 C 0.75652 0.21255 0.75107 0.0
C344 C 0.81866 0.24909 0.72025 0.0
C345 C 0.80924 0.27574 0.7197 0.0
C346 C 0.77509 0.23419 0.74025 0.0
C347 C 0.78257 0.28083 0.7298 0.0
C348 C 0.72883 0.21752 0.75526 0.0
C349 C 0.75028 0.16679 0.7673 0.0
N350 N 0.76639 0.26021 0.73957 0.0
N351 N 0.76633 0.18738 0.75716 0.0
H352 H 0.15978 0.32768 0.90574 0.0
H353 H 0.08246 0.36596 0.07656 0.0
H354 H 0.08596 0.37398 0.90833 0.0
H355 H 0.16096 0.32814 0.07361 0.0
H356 H 0.08162 0.3661 0.01486 0.0
H357 H 0.15876 0.32473 0.96719 0.0
C358 C 0.1433 0.33718 0.91922 0.0
C359 C 0.12297 0.3512 0.90186 0.0
C360 C 0.09899 0.35772 0.02773 0.0
C361 C 0.12169 0.34788 0.9723 0.0
C362 C 0.09947 0.35758 0.06296 0.0
C363 C 0.12186 0.34711 0.08028 0.0
C364 C 0.12102 0.34723 0.00969 0.0
C365 C 0.14332 0.33651 0.06133 0.0
C366 C 0.14275 0.33551 0.95434 0.0
C367 C 0.10211 0.36306 0.92068 0.0
N368 N 0.14238 0.33688 0.02706 0.0
N369 N 0.10202 0.36116 0.95491 0.0
H370 H 0.67726 0.10461 0.90989 0.0
H371 H 0.6252 0.17298 0.08093 0.0
H372 H 0.62468 0.17401 0.9128 0.0
H373 H 0.68417 0.10889 0.07801 0.0
H374 H 0.62404 0.17301 0.01932 0.0
H375 H 0.6793 0.10517 0.97152 0.0
C376 C 0.66615 0.11998 0.92348 0.0
C377 C 0.65077 0.13929 0.90617 0.0
C378 C 0.63728 0.15898 0.03214 0.0
C379 C 0.65298 0.14001 0.9767 0.0
C380 C 0.63795 0.15894 0.06734 0.0
C381 C 0.65482 0.1409 0.08466 0.0
C382 C 0.65351 0.14078 0.01409 0.0
C383 C 0.67088 0.12316 0.06572 0.0
C384 C 0.66736 0.1203 0.95867 0.0
C385 C 0.63681 0.15873 0.92509 0.0
N386 N 0.66978 0.12351 0.03144 0.0
N387 N 0.63821 0.15856 0.95933 0.0
H388 H 0.87904 0.66768 0.89609 0.0
H389 H 0.80933 0.63195 0.07255 0.0
H390 H 0.80274 0.62634 0.90467 0.0
H391 H 0.88222 0.67897 0.06369 0.0
H392 H 0.80642 0.62991 0.01107 0.0
H393 H 0.88045 0.67222 0.95745 0.0
C394 C 0.86254 0.65961 0.91086 0.0
C395 C 0.84076 0.64654 0.89522 0.0
C396 C 0.823 0.64076 0.02256 0.0
C397 C 0.84229 0.65162 0.96551 0.0
C398 C 0.82469 0.64192 0.05768 0.0
C399 C 0.8461 0.65559 0.07331 0.0
C400 C 0.84293 0.65326 0.00287 0.0
C401 C 0.86538 0.66818 0.05275 0.0
C402 C 0.86335 0.66223 0.94591 0.0
C403 C 0.81994 0.63653 0.91564 0.0
N404 N 0.86339 0.66662 0.01859 0.0
N405 N 0.82127 0.6392 0.94974 0.0
H406 H 0.34306 0.82159 0.07659 0.0
H407 H 0.34088 0.91317 0.91213 0.0
H408 H 0.31399 0.90359 0.07762 0.0
H409 H 0.3354 0.82649 0.90728 0.0
H410 H 0.33662 0.91075 0.97362 0.0
H411 H 0.34584 0.82363 0.0149 0.0
C412 C 0.33723 0.84 0.06383 0.0
C413 C 0.32823 0.86245 0.08219 0.0
C414 C 0.33627 0.8923 0.95903 0.0
C415 C 0.33168 0.86498 0.0119 0.0
C416 C 0.33883 0.89364 0.92401 0.0
C417 C 0.33848 0.86999 0.90463 0.0
C418 C 0.33383 0.86711 0.97478 0.0
C419 C 0.33565 0.84522 0.92129 0.0
C420 C 0.33875 0.8411 0.02869 0.0
C421 C 0.3209 0.88578 0.06441 0.0
N422 N 0.33363 0.8444 0.95549 0.0
N423 N 0.32299 0.88652 0.03023 0.0
H424 H 0.1096 0.57037 0.56574 0.0
H425 H 0.14599 0.6482 0.39487 0.0
H426 H 0.15858 0.64214 0.56108 0.0
H427 H 0.0957 0.57727 0.39756 0.0
H428 H 0.15082 0.64582 0.45592 0.0
H429 H 0.10438 0.57202 0.50432 0.0
C430 C 0.11928 0.58645 0.55183 0.0
C431 C 0.13455 0.60616 0.56858 0.0
C432 C 0.1387 0.63076 0.44324 0.0
C433 C 0.12863 0.60816 0.4984 0.0
C434 C 0.13591 0.63211 0.40831 0.0
C435 C 0.12039 0.6129 0.39104 0.0
C436 C 0.12591 0.61003 0.4612 0.0
C437 C 0.10784 0.59251 0.40985 0.0
C438 C 0.11627 0.58738 0.51678 0.0
C439 C 0.14662 0.62652 0.54927 0.0
N440 N 0.11089 0.5916 0.44397 0.0
N441 N 0.14339 0.62698 0.51526 0.0
H442 H 0.40711 0.08902 0.58701 0.0
H443 H 0.34263 0.15341 0.42008 0.0
H444 H 0.34714 0.15222 0.58756 0.0
H445 H 0.40125 0.08899 0.41829 0.0
H446 H 0.34483 0.15369 0.48155 0.0
H447 H 0.40609 0.08917 0.52527 0.0
C448 C 0.39377 0.10296 0.57417 0.0
C449 C 0.37717 0.12062 0.59249 0.0
C450 C 0.35724 0.13949 0.46776 0.0
C451 C 0.37589 0.12087 0.52189 0.0
C452 C 0.35599 0.13931 0.43261 0.0
C453 C 0.37175 0.1211 0.41399 0.0
C454 C 0.37438 0.12134 0.48451 0.0
C455 C 0.38872 0.10334 0.43163 0.0
C456 C 0.39319 0.10302 0.53892 0.0
C457 C 0.36028 0.13823 0.57451 0.0
N458 N 0.38957 0.10389 0.46593 0.0
N459 N 0.36008 0.13789 0.54024 0.0
H460 H 0.8619 0.30072 0.42313 0.0
H461 H 0.83884 0.40634 0.57326 0.0
H462 H 0.84598 0.38524 0.40677 0.0
H463 H 0.84946 0.32081 0.58811 0.0
H464 H 0.84173 0.39931 0.51223 0.0
H465 H 0.85784 0.30799 0.48383 0.0
C466 C 0.85754 0.32082 0.43229 0.0
C467 C 0.8543 0.34241 0.40985 0.0
C468 C 0.84337 0.38209 0.52887 0.0
C469 C 0.84963 0.3509 0.47936 0.0
C470 C 0.84173 0.38609 0.56371 0.0
C471 C 0.84394 0.36414 0.58584 0.0
C472 C 0.84732 0.35597 0.51611 0.0
C473 C 0.84765 0.33835 0.57204 0.0
C474 C 0.8552 0.32496 0.46698 0.0
C475 C 0.84864 0.36801 0.42318 0.0
N476 N 0.84927 0.335 0.5381 0.0
N477 N 0.84653 0.37155 0.45709 0.0
H478 H 0.64435 0.82609 0.5707 0.0
H479 H 0.58663 0.90159 0.40718 0.0
H480 H 0.58831 0.89267 0.57531 0.0
H481 H 0.64257 0.8349 0.40311 0.0
H482 H 0.58664 0.89849 0.46876 0.0
H483 H 0.64358 0.82883 0.50918 0.0
C484 C 0.63185 0.84127 0.55878 0.0
C485 C 0.61637 0.8592 0.5782 0.0
C486 C 0.5989 0.88452 0.45439 0.0
C487 C 0.61543 0.86246 0.50772 0.0
C488 C 0.59891 0.88629 0.41921 0.0
C489 C 0.61465 0.8685 0.39995 0.0
C490 C 0.61474 0.86483 0.47042 0.0
C491 C 0.63015 0.84906 0.41692 0.0
C492 C 0.63142 0.84283 0.52363 0.0
C493 C 0.60056 0.87845 0.56136 0.0
N494 N 0.62981 0.84777 0.45117 0.0
N495 N 0.60051 0.87958 0.52708 0.0
H496 H 0.18074 0.54017 0.30582 0.0
H497 H 0.15421 0.449 0.1424 0.0
H498 H 0.14297 0.5694 0.21463 0.0
H499 H 0.17386 0.41641 0.24046 0.0
H500 H 0.15747 0.4944 0.16586 0.0
H501 H 0.18564 0.49584 0.27947 0.0
C502 C 0.1737 0.53734 0.28016 0.0
C503 C 0.16121 0.55845 0.2625 0.0
C504 C 0.16124 0.47731 0.18217 0.0
C505 C 0.16678 0.50785 0.23225 0.0
C506 C 0.15947 0.45138 0.16878 0.0
C507 C 0.16352 0.42886 0.18958 0.0
C508 C 0.16724 0.48077 0.21656 0.0
C509 C 0.17036 0.43319 0.22357 0.0
C510 C 0.17643 0.51202 0.26519 0.0
C511 C 0.1525 0.55364 0.2293 0.0
N512 N 0.17188 0.45864 0.23604 0.0
N513 N 0.15537 0.52883 0.2153 0.0
H514 H 0.53361 0.17195 0.15914 0.0
H515 H 0.4526 0.1821 0.33349 0.0
H516 H 0.5723 0.18003 0.25636 0.0
H517 H 0.41692 0.15771 0.2388 0.0
H518 H 0.49561 0.18913 0.30441 0.0
H519 H 0.48969 0.17479 0.18686 0.0
C520 C 0.5329 0.17463 0.18627 0.0
C521 C 0.55667 0.17543 0.2055 0.0
C522 C 0.47829 0.18242 0.29001 0.0
C523 C 0.50645 0.17857 0.23739 0.0
C524 C 0.45373 0.17845 0.30656 0.0
C525 C 0.43122 0.16904 0.28861 0.0
C526 C 0.48025 0.1771 0.25525 0.0
C527 C 0.43383 0.16472 0.25373 0.0
C528 C 0.5078 0.17616 0.20209 0.0
C529 C 0.55448 0.17906 0.24057 0.0
N530 N 0.45792 0.16867 0.23823 0.0
N531 N 0.5298 0.1803 0.25542 0.0
H532 H 0.80718 0.56929 0.23496 0.0
H533 H 0.85534 0.41572 0.22691 0.0
H534 H 0.85883 0.53707 0.15695 0.0
H535 H 0.80412 0.4476 0.30557 0.0
H536 H 0.85365 0.45919 0.19841 0.0
H537 H 0.80273 0.52413 0.25866 0.0
C538 C 0.81747 0.5527 0.22268 0.0
C539 C 0.8336 0.55701 0.19407 0.0
C540 C 0.84264 0.45666 0.2218 0.0
C541 C 0.82862 0.50526 0.22115 0.0
C542 C 0.84359 0.43181 0.23811 0.0
C543 C 0.83004 0.42808 0.26885 0.0
C544 C 0.82813 0.47801 0.23636 0.0
C545 C 0.81499 0.44962 0.28202 0.0
C546 C 0.81491 0.52691 0.23625 0.0
C547 C 0.84633 0.53473 0.17915 0.0
N548 N 0.8146 0.47374 0.26581 0.0
N549 N 0.8437 0.50985 0.19299 0.0
H550 H 0.56763 0.82873 0.22359 0.0
H551 H 0.4089 0.81485 0.25041 0.0
H552 H 0.53099 0.81186 0.32014 0.0
H553 H 0.44642 0.82576 0.15302 0.0
H554 H 0.45353 0.80922 0.27566 0.0
H555 H 0.52376 0.82316 0.19659 0.0
C556 C 0.5504 0.82358 0.2391 0.0
C557 C 0.55294 0.82106 0.27425 0.0
C558 C 0.452 0.81257 0.24871 0.0
C559 C 0.50252 0.81488 0.24348 0.0
C560 C 0.42651 0.81581 0.23426 0.0
C561 C 0.42393 0.82112 0.19959 0.0
C562 C 0.47511 0.81483 0.2284 0.0
C563 C 0.44744 0.82192 0.17989 0.0
C564 C 0.52532 0.82039 0.22364 0.0
C565 C 0.52994 0.81415 0.293 0.0
N566 N 0.47205 0.81911 0.19463 0.0
N567 N 0.50562 0.81161 0.27742 0.0
H568 H 0.83162 0.56654 0.74536 0.0
H569 H 0.85392 0.41329 0.80136 0.0
H570 H 0.87089 0.54278 0.83807 0.0
H571 H 0.8233 0.43685 0.70362 0.0
H572 H 0.85514 0.46062 0.81799 0.0
H573 H 0.82363 0.51912 0.73232 0.0
C574 C 0.83846 0.55137 0.76306 0.0
C575 C 0.85214 0.55863 0.79274 0.0
C576 C 0.84798 0.45543 0.79298 0.0
C577 C 0.84301 0.50434 0.77797 0.0
C578 C 0.84721 0.42839 0.78349 0.0
C579 C 0.83871 0.42111 0.75094 0.0
C580 C 0.84019 0.47536 0.76978 0.0
C581 C 0.83016 0.44155 0.7289 0.0
C582 C 0.83389 0.5243 0.75559 0.0
C583 C 0.86043 0.53811 0.81479 0.0
N584 N 0.83128 0.46776 0.73866 0.0
N585 N 0.85583 0.5119 0.80689 0.0
H586 H 0.55661 0.90264 0.73499 0.0
H587 H 0.41962 0.82105 0.76601 0.0
H588 H 0.54896 0.81749 0.71501 0.0
H589 H 0.42881 0.90662 0.78173 0.0
H590 H 0.46717 0.81848 0.74926 0.0
H591 H 0.51008 0.90359 0.75435 0.0
C592 C 0.54516 0.88408 0.73473 0.0
C593 C 0.55671 0.85995 0.72324 0.0
C594 C 0.45874 0.83778 0.75644 0.0
C595 C 0.50315 0.86091 0.74541 0.0
C596 C 0.43162 0.83927 0.76602 0.0
C597 C 0.42019 0.86411 0.77519 0.0
C598 C 0.47448 0.86129 0.75612 0.0
C599 C 0.43669 0.88704 0.77477 0.0
C600 C 0.51852 0.88464 0.7458 0.0
C601 C 0.54084 0.83654 0.72361 0.0
N602 N 0.46293 0.88507 0.76536 0.0
N603 N 0.5148 0.83761 0.73445 0.0
H604 H 0.18221 0.44373 0.8432 0.0
H605 H 0.18136 0.53919 0.68091 0.0
H606 H 0.17578 0.41532 0.74044 0.0
H607 H 0.18039 0.56906 0.78333 0.0
H608 H 0.18684 0.49356 0.70251 0.0
H609 H 0.18902 0.48948 0.8219 0.0
C610 C 0.18258 0.44704 0.81618 0.0
C611 C 0.17804 0.42575 0.79357 0.0
C612 C 0.18566 0.5101 0.72029 0.0
C613 C 0.18572 0.47794 0.76909 0.0
C614 C 0.18255 0.53619 0.70796 0.0
C615 C 0.18003 0.55794 0.73037 0.0
C616 C 0.18615 0.50566 0.7553 0.0
C617 C 0.18199 0.55285 0.76515 0.0
C618 C 0.1864 0.47316 0.80404 0.0
C619 C 0.17883 0.43118 0.75882 0.0
N620 N 0.18465 0.52718 0.77658 0.0
N621 N 0.18234 0.45676 0.74767 0.0
H622 H 0.44479 0.15665 0.72403 0.0
H623 H 0.5626 0.07172 0.81266 0.0
H624 H 0.43548 0.07494 0.75935 0.0
H625 H 0.57526 0.14937 0.76632 0.0
H626 H 0.51505 0.0741 0.79694 0.0
H627 H 0.49179 0.15586 0.74298 0.0
C628 C 0.45259 0.13859 0.73588 0.0
C629 C 0.43621 0.11579 0.74002 0.0
C630 C 0.52821 0.09064 0.79023 0.0
C631 C 0.48991 0.11477 0.76173 0.0
C632 C 0.55537 0.08932 0.79925 0.0
C633 C 0.57296 0.11034 0.79068 0.0
C634 C 0.51849 0.11318 0.77259 0.0
C635 C 0.56244 0.13266 0.77333 0.0
C636 C 0.47943 0.13814 0.74662 0.0
C637 C 0.44738 0.09294 0.75552 0.0
N638 N 0.53587 0.13348 0.76481 0.0
N639 N 0.47353 0.09302 0.76578 0.0
H640 H 0.68555 0.01738 0.82758 0.0
H641 H 0.68099 0.93744 0.65219 0.0
H642 H 0.68014 0.05621 0.73028 0.0
H643 H 0.66813 0.90068 0.74961 0.0
H644 H 0.69018 0.98035 0.68045 0.0
H645 H 0.68872 0.9738 0.79917 0.0
C646 C 0.68534 0.01679 0.80024 0.0
C647 C 0.68218 0.04044 0.78129 0.0
C648 C 0.68562 0.96279 0.6956 0.0
C649 C 0.68576 0.99065 0.74866 0.0
C650 C 0.68046 0.93829 0.67951 0.0
C651 C 0.67344 0.91556 0.69857 0.0
C652 C 0.68389 0.96446 0.73095 0.0
C653 C 0.67312 0.91779 0.7339 0.0
C654 C 0.68709 0.9919 0.78405 0.0
C655 C 0.68221 0.03845 0.74591 0.0
N656 N 0.67807 0.94185 0.74893 0.0
N657 N 0.68373 0.01396 0.73073 0.0
H658 H 0.92949 0.6642 0.72336 0.0
H659 H 0.08637 0.62898 0.74265 0.0
H660 H 0.96568 0.63446 0.8153 0.0
H661 H 0.05127 0.66138 0.65146 0.0
H662 H 0.04255 0.63261 0.77028 0.0
H663 H 0.97416 0.66525 0.69725 0.0
C664 C 0.94684 0.65804 0.73814 0.0
C665 C 0.94381 0.64908 0.77153 0.0
C666 C 0.04442 0.63903 0.74426 0.0
C667 C 0.99497 0.65013 0.74174 0.0
C668 C 0.06946 0.63694 0.72843 0.0
C669 C 0.07248 0.64477 0.69461 0.0
C670 C 0.02215 0.64894 0.72614 0.0
C671 C 0.04986 0.65504 0.67754 0.0
C672 C 0.97234 0.65863 0.7232 0.0
C673 C 0.96702 0.64141 0.78946 0.0
N674 N 0.02562 0.65671 0.69345 0.0
N675 N 0.99158 0.64198 0.77429 0.0
H676 H 0.31962 0.07284 0.7599 0.0
H677 H 0.31751 0.91656 0.72593 0.0
H678 H 0.31556 0.03954 0.65931 0.0
H679 H 0.2919 0.95064 0.82095 0.0
H680 H 0.31624 0.96144 0.70081 0.0
H681 H 0.30873 0.02852 0.78294 0.0
C682 C 0.31615 0.05626 0.74265 0.0
C683 C 0.31877 0.05979 0.70765 0.0
C684 C 0.31052 0.95907 0.72702 0.0
C685 C 0.30661 0.00905 0.73385 0.0
C686 C 0.31134 0.93348 0.74141 0.0
C687 C 0.30502 0.92996 0.77563 0.0
C688 C 0.30386 0.98136 0.74718 0.0
C689 C 0.29697 0.95251 0.79447 0.0
C690 C 0.30984 0.031 0.75581 0.0
C691 C 0.31385 0.03769 0.68645 0.0
N692 N 0.29703 0.97737 0.78012 0.0
N693 N 0.30841 0.01313 0.69992 0.0
H694 H 0.07316 0.36282 0.73611 0.0
H695 H 0.91872 0.31637 0.74268 0.0
H696 H 0.04438 0.29874 0.8003 0.0
H697 H 0.94828 0.38124 0.68033 0.0
H698 H 0.96475 0.30822 0.76247 0.0
H699 H 0.02774 0.36828 0.71361 0.0
C700 C 0.0573 0.34979 0.74541 0.0
C701 C 0.06258 0.33035 0.77026 0.0
C702 C 0.96116 0.32419 0.7444 0.0
C703 C 0.01037 0.3366 0.7446 0.0
C704 C 0.93489 0.32887 0.73309 0.0
C705 C 0.92963 0.34959 0.70988 0.0
C706 C 0.98232 0.34034 0.73242 0.0
C707 C 0.95137 0.3651 0.69829 0.0
C708 C 0.03133 0.35295 0.73254 0.0
C709 C 0.04122 0.31402 0.78122 0.0
N710 N 0.97673 0.36019 0.70973 0.0
N711 N 0.016 0.31759 0.7684 0.0
H712 H 0.32777 0.0505 0.2965 0.0
H713 H 0.38205 0.94189 0.16414 0.0
H714 H 0.37214 0.07105 0.20635 0.0
H715 H 0.32341 0.92291 0.24108 0.0
H716 H 0.38002 0.98909 0.18095 0.0
H717 H 0.32696 0.00345 0.27808 0.0
C718 C 0.33722 0.04516 0.27276 0.0
C719 C 0.35012 0.06474 0.25297 0.0
C720 C 0.36752 0.97464 0.1941 0.0
C721 C 0.34943 0.01096 0.23193 0.0
C722 C 0.36873 0.94764 0.1846 0.0
C723 C 0.35291 0.92841 0.20129 0.0
C724 C 0.35052 0.98251 0.2207 0.0
C725 C 0.33594 0.93708 0.22752 0.0
C726 C 0.33673 0.01831 0.26226 0.0
C727 C 0.36198 0.05666 0.22243 0.0
N728 N 0.33529 0.96351 0.23655 0.0
N729 N 0.3615 0.03038 0.21297 0.0
H730 H 0.95751 0.37465 0.34066 0.0
H731 H 0.06234 0.3187 0.20462 0.0
H732 H 0.93512 0.32134 0.25917 0.0
H733 H 0.08542 0.36522 0.29214 0.0
H734 H 0.01599 0.31757 0.22553 0.0
H735 H 0.00476 0.36963 0.32468 0.0
C736 C 0.96254 0.36175 0.31951 0.0
C737 C 0.94231 0.34855 0.30105 0.0
C738 C 0.03123 0.32785 0.24028 0.0
C739 C -0.00357 0.34281 0.2825 0.0
C740 C 0.05771 0.32852 0.22836 0.0
C741 C 0.07776 0.34225 0.24655 0.0
C742 C 0.02471 0.34115 0.27051 0.0
C743 C 0.07061 0.3545 0.2772 0.0
C744 C 0.98956 0.35886 0.31041 0.0
C745 C 0.95005 0.33197 0.27402 0.0
N746 N 0.04463 0.35384 0.28808 0.0
N747 N 0.9765 0.32974 0.26538 0.0
H748 H 0.57417 0.93645 0.23851 0.0
H749 H 0.66268 0.07075 0.2289 0.0
H750 H 0.65699 0.94032 0.27216 0.0
H751 H 0.58468 0.06155 0.18161 0.0
H752 H 0.66076 0.02359 0.24675 0.0
H753 H 0.57733 0.98299 0.2195 0.0
C754 C 0.59305 0.94709 0.24192 0.0
C755 C 0.61535 0.93447 0.25697 0.0
C756 C 0.64413 0.03191 0.23237 0.0
C757 C 0.6191 0.98788 0.23524 0.0
C758 C 0.64519 0.05881 0.22221 0.0
C759 C 0.62378 0.07012 0.20379 0.0
C760 C 0.62142 0.01629 0.22422 0.0
C761 C 0.60165 0.05371 0.19577 0.0
C762 C 0.59486 0.97368 0.23096 0.0
C763 C 0.63931 0.94927 0.26065 0.0
N764 N 0.60101 0.02768 0.20614 0.0
N765 N 0.64053 0.97525 0.24993 0.0
H766 H 0.0539 0.64722 0.22799 0.0
H767 H 0.90093 0.67224 0.28393 0.0
H768 H 0.03123 0.67526 0.32723 0.0
H769 H 0.92498 0.65065 0.18268 0.0
H770 H 0.94852 0.67527 0.29987 0.0
H771 H 0.00681 0.65019 0.21047 0.0
C772 C 0.03904 0.65415 0.24607 0.0
C773 C 0.04652 0.66085 0.2792 0.0
C774 C 0.94337 0.67004 0.27412 0.0
C775 C 0.99243 0.66416 0.25933 0.0
C776 C 0.9162 0.66829 0.265 0.0
C777 C 0.90895 0.661 0.23198 0.0
C778 C 0.96342 0.66435 0.25008 0.0
C779 C 0.9296 0.6562 0.20848 0.0
C780 C 0.01212 0.65586 0.23603 0.0
C781 C 0.02638 0.66983 0.30146 0.0
N782 N 0.95587 0.6578 0.21805 0.0
N783 N 0.00022 0.67104 0.29119 0.0
loop_
_geom_bond_atom_site_label_1
_geom_bond_atom_site_label_2
_geom_bond_distance
_geom_bond_site_symmetry_2
_ccdc_geom_bond_type
C0 O1 1.160 . S
C0 O7 1.185 . S
O1 C0 1.160 . S
O2 Zn3 1.899 . S
O2 C10 1.284 . S
Zn3 O2 1.899 . S
Zn3 O4 2.032 . S
Zn3 O7 2.086 . S
Zn3 O12 1.977 . S
O4 Zn3 2.032 . S
O4 C8 1.278 . S
C5 O6 1.203 . S
C5 O12 1.267 . S
O6 C5 1.203 . S
O7 C0 1.185 . S
O7 Zn3 2.086 . S
C8 O4 1.278 . S
C8 O9 1.211 . S
O9 C8 1.211 . S
C10 O2 1.284 . S
C10 O11 1.273 . S
O11 C10 1.273 . S
O12 Zn3 1.977 . S
O12 C5 1.267 . S
C13 O14 1.160 . S
C13 O20 1.185 . S
O14 C13 1.160 . S
O15 Zn16 1.899 . S
O15 C23 1.284 . S
Zn16 O15 1.899 . S
Zn16 O17 2.032 . S
Zn16 O20 2.086 . S
Zn16 O25 1.977 . S
O17 Zn16 2.032 . S
O17 C21 1.278 . S
C18 O19 1.203 . S
C18 O25 1.267 . S
O19 C18 1.203 . S
O20 C13 1.185 . S
O20 Zn16 2.086 . S
C21 O17 1.278 . S
C21 O22 1.211 . S
O22 C21 1.211 . S
C23 O15 1.284 . S
C23 O24 1.273 . S
O24 C23 1.273 . S
O25 Zn16 1.977 . S
O25 C18 1.267 . S
C26 O27 1.160 . S
C26 O33 1.185 . S
O27 C26 1.160 . S
O28 Zn29 1.899 . S
O28 C36 1.284 . S
Zn29 O28 1.899 . S
Zn29 O30 2.032 . S
Zn29 O33 2.086 . S
Zn29 O38 1.977 . S
O30 Zn29 2.032 . S
O30 C34 1.278 . S
C31 O32 1.203 . S
C31 O38 1.267 . S
O32 C31 1.203 . S
O33 C26 1.185 . S
O33 Zn29 2.086 . S
C34 O30 1.278 . S
C34 O35 1.211 . S
O35 C34 1.211 . S
C36 O28 1.284 . S
C36 O37 1.273 . S
O37 C36 1.273 . S
O38 Zn29 1.977 . S
O38 C31 1.267 . S
C39 O40 1.160 . S
C39 O46 1.185 . S
O40 C39 1.160 . S
O41 Zn42 1.899 . S
O41 C49 1.284 . S
Zn42 O41 1.899 . S
Zn42 O43 2.032 . S
Zn42 O46 2.086 . S
Zn42 O51 1.977 . S
O43 Zn42 2.032 . S
O43 C47 1.278 . S
C44 O45 1.203 . S
C44 O51 1.267 . S
O45 C44 1.203 . S
O46 C39 1.185 . S
O46 Zn42 2.086 . S
C47 O43 1.278 . S
C47 O48 1.211 . S
O48 C47 1.211 . S
C49 O41 1.284 . S
C49 O50 1.273 . S
O50 C49 1.273 . S
O51 Zn42 1.977 . S
O51 C44 1.267 . S
C52 O53 1.160 . S
C52 O59 1.185 . S
O53 C52 1.160 . S
O54 Zn55 1.899 . S
O54 C62 1.284 . S
Zn55 O54 1.899 . S
Zn55 O56 2.032 . S
Zn55 O59 2.086 . S
Zn55 O64 1.977 . S
O56 Zn55 2.032 . S
O56 C60 1.278 . S
C57 O58 1.203 . S
C57 O64 1.267 . S
O58 C57 1.203 . S
O59 C52 1.185 . S
O59 Zn55 2.086 . S
C60 O56 1.278 . S
C60 O61 1.211 . S
O61 C60 1.211 . S
C62 O54 1.284 . S
C62 O63 1.273 . S
O63 C62 1.273 . S
O64 Zn55 1.977 . S
O64 C57 1.267 . S
C65 O66 1.160 . S
C65 O72 1.185 . S
O66 C65 1.160 . S
O67 Zn68 1.899 . S
O67 C75 1.284 . S
Zn68 O67 1.899 . S
Zn68 O69 2.032 . S
Zn68 O72 2.086 . S
Zn68 O77 1.977 . S
O69 Zn68 2.032 . S
O69 C73 1.278 . S
C70 O71 1.203 . S
C70 O77 1.267 . S
O71 C70 1.203 . S
O72 C65 1.185 . S
O72 Zn68 2.086 . S
C73 O69 1.278 . S
C73 O74 1.211 . S
O74 C73 1.211 . S
C75 O67 1.284 . S
C75 O76 1.273 . S
O76 C75 1.273 . S
O77 Zn68 1.977 . S
O77 C70 1.267 . S
C78 O79 1.160 . S
C78 O85 1.185 . S
O79 C78 1.160 . S
O80 Zn81 1.899 . S
O80 C88 1.284 . S
Zn81 O80 1.899 . S
Zn81 O82 2.032 . S
Zn81 O85 2.086 . S
Zn81 O90 1.977 . S
O82 Zn81 2.032 . S
O82 C86 1.278 . S
C83 O84 1.203 . S
C83 O90 1.267 . S
O84 C83 1.203 . S
O85 C78 1.185 . S
O85 Zn81 2.086 . S
C86 O82 1.278 . S
C86 O87 1.211 . S
O87 C86 1.211 . S
C88 O80 1.284 . S
C88 O89 1.273 . S
O89 C88 1.273 . S
O90 Zn81 1.977 . S
O90 C83 1.267 . S
C91 O92 1.160 . S
C91 O98 1.185 . S
O92 C91 1.160 . S
O93 Zn94 1.899 . S
O93 C101 1.284 . S
Zn94 O93 1.899 . S
Zn94 O95 2.032 . S
Zn94 O98 2.086 . S
Zn94 O103 1.977 . S
O95 Zn94 2.032 . S
O95 C99 1.278 . S
C96 O97 1.203 . S
C96 O103 1.267 . S
O97 C96 1.203 . S
O98 C91 1.185 . S
O98 Zn94 2.086 . S
C99 O95 1.278 . S
C99 O100 1.211 . S
O100 C99 1.211 . S
C101 O93 1.284 . S
C101 O102 1.273 . S
O102 C101 1.273 . S
O103 Zn94 1.977 . S
O103 C96 1.267 . S
C104 O105 1.160 . S
C104 O111 1.185 . S
O105 C104 1.160 . S
O106 Zn107 1.899 . S
O106 C114 1.284 . S
Zn107 O106 1.899 . S
Zn107 O108 2.032 . S
Zn107 O111 2.086 . S
Zn107 O116 1.977 . S
O108 Zn107 2.032 . S
O108 C112 1.278 . S
C109 O110 1.203 . S
C109 O116 1.267 . S
O110 C109 1.203 . S
O111 C104 1.185 . S
O111 Zn107 2.086 . S
C112 O108 1.278 . S
C112 O113 1.211 . S
O113 C112 1.211 . S
C114 O106 1.284 . S
C114 O115 1.273 . S
O115 C114 1.273 . S
O116 Zn107 1.977 . S
O116 C109 1.267 . S
C117 O118 1.160 . S
C117 O124 1.185 . S
O118 C117 1.160 . S
O119 Zn120 1.899 . S
O119 C127 1.284 . S
Zn120 O119 1.899 . S
Zn120 O121 2.032 . S
Zn120 O124 2.086 . S
Zn120 O129 1.977 . S
O121 Zn120 2.032 . S
O121 C125 1.278 . S
C122 O123 1.203 . S
C122 O129 1.267 . S
O123 C122 1.203 . S
O124 C117 1.185 . S
O124 Zn120 2.086 . S
C125 O121 1.278 . S
C125 O126 1.211 . S
O126 C125 1.211 . S
C127 O119 1.284 . S
C127 O128 1.273 . S
O128 C127 1.273 . S
O129 Zn120 1.977 . S
O129 C122 1.267 . S
C130 O131 1.160 . S
C130 O137 1.185 . S
O131 C130 1.160 . S
O132 Zn133 1.899 . S
O132 C140 1.284 . S
Zn133 O132 1.899 . S
Zn133 O134 2.032 . S
Zn133 O137 2.086 . S
Zn133 O142 1.977 . S
O134 Zn133 2.032 . S
O134 C138 1.278 . S
C135 O136 1.203 . S
C135 O142 1.267 . S
O136 C135 1.203 . S
O137 C130 1.185 . S
O137 Zn133 2.086 . S
C138 O134 1.278 . S
C138 O139 1.211 . S
O139 C138 1.211 . S
C140 O132 1.284 . S
C140 O141 1.273 . S
O141 C140 1.273 . S
O142 Zn133 1.977 . S
O142 C135 1.267 . S
C143 O144 1.160 . S
C143 O150 1.185 . S
O144 C143 1.160 . S
O145 Zn146 1.899 . S
O145 C153 1.284 . S
Zn146 O145 1.899 . S
Zn146 O147 2.032 . S
Zn146 O150 2.086 . S
Zn146 O155 1.977 . S
O147 Zn146 2.032 . S
O147 C151 1.278 . S
C148 O149 1.203 . S
C148 O155 1.267 . S
O149 C148 1.203 . S
O150 C143 1.185 . S
O150 Zn146 2.086 . S
C151 O147 1.278 . S
C151 O152 1.211 . S
O152 C151 1.211 . S
C153 O145 1.284 . S
C153 O154 1.273 . S
O154 C153 1.273 . S
O155 Zn146 1.977 . S
O155 C148 1.267 . S
C156 O157 1.160 . S
C156 O163 1.185 . S
O157 C156 1.160 . S
O158 Zn159 1.899 . S
O158 C166 1.284 . S
Zn159 O158 1.899 . S
Zn159 O160 2.032 . S
Zn159 O163 2.086 . S
Zn159 O168 1.977 . S
O160 Zn159 2.032 . S
O160 C164 1.278 . S
C161 O162 1.203 . S
C161 O168 1.267 . S
O162 C161 1.203 . S
O163 C156 1.185 . S
O163 Zn159 2.086 . S
C164 O160 1.278 . S
C164 O165 1.211 . S
O165 C164 1.211 . S
C166 O158 1.284 . S
C166 O167 1.273 . S
O167 C166 1.273 . S
O168 Zn159 1.977 . S
O168 C161 1.267 . S
C169 O170 1.160 . S
C169 O176 1.185 . S
O170 C169 1.160 . S
O171 Zn172 1.899 . S
O171 C179 1.284 . S
Zn172 O171 1.899 . S
Zn172 O173 2.032 . S
Zn172 O176 2.086 . S
Zn172 O181 1.977 . S
O173 Zn172 2.032 . S
O173 C177 1.278 . S
C174 O175 1.203 . S
C174 O181 1.267 . S
O175 C174 1.203 . S
O176 C169 1.185 . S
O176 Zn172 2.086 . S
C177 O173 1.278 . S
C177 O178 1.211 . S
O178 C177 1.211 . S
C179 O171 1.284 . S
C179 O180 1.273 . S
O180 C179 1.273 . S
O181 Zn172 1.977 . S
O181 C174 1.267 . S
C182 O183 1.160 . S
C182 O189 1.185 . S
O183 C182 1.160 . S
O184 Zn185 1.899 . S
O184 C192 1.284 . S
Zn185 O184 1.899 . S
Zn185 O186 2.032 . S
Zn185 O189 2.086 . S
Zn185 O194 1.977 . S
O186 Zn185 2.032 . S
O186 C190 1.278 . S
C187 O188 1.203 . S
C187 O194 1.267 . S
O188 C187 1.203 . S
O189 C182 1.185 . S
O189 Zn185 2.086 . S
C190 O186 1.278 . S
C190 O191 1.211 . S
O191 C190 1.211 . S
C192 O184 1.284 . S
C192 O193 1.273 . S
O193 C192 1.273 . S
O194 Zn185 1.977 . S
O194 C187 1.267 . S
C195 O196 1.160 . S
C195 O202 1.185 . S
O196 C195 1.160 . S
O197 Zn198 1.899 . S
O197 C205 1.284 . S
Zn198 O197 1.899 . S
Zn198 O199 2.032 . S
Zn198 O202 2.086 . S
Zn198 O207 1.977 . S
O199 Zn198 2.032 . S
O199 C203 1.278 . S
C200 O201 1.203 . S
C200 O207 1.267 . S
O201 C200 1.203 . S
O202 C195 1.185 . S
O202 Zn198 2.086 . S
C203 O199 1.278 . S
C203 O204 1.211 . S
O204 C203 1.211 . S
C205 O197 1.284 . S
C205 O206 1.273 . S
O206 C205 1.273 . S
O207 Zn198 1.977 . S
O207 C200 1.267 . S
H208 C214 0.930 . S
H209 C218 0.930 . S
H210 C223 0.929 . S
H211 C221 0.929 . S
H212 C216 0.929 . S
H213 C222 0.929 . S
C214 H208 0.930 . S
C214 C215 1.367 . S
C214 C222 1.378 . S
C215 C214 1.367 . S
C215 C223 1.433 . S
C216 H212 0.929 . S
C216 C218 1.378 . S
C216 C220 1.350 . S
C217 C220 1.463 . S
C217 C222 1.350 . S
C217 N225 1.427 . S
C218 H209 0.930 . S
C218 C216 1.378 . S
C218 C219 1.367 . S
C219 C218 1.367 . S
C219 C221 1.433 . S
C220 C216 1.350 . S
C220 C217 1.463 . S
C220 N224 1.427 . S
C221 H211 0.929 . S
C221 C219 1.433 . S
C221 N224 1.384 . S
C222 H213 0.929 . S
C222 C214 1.378 . S
C222 C217 1.350 . S
C223 H210 0.929 . S
C223 C215 1.433 . S
C223 N225 1.384 . S
N224 C220 1.427 . S
N224 C221 1.384 . S
N225 C217 1.427 . S
N225 C223 1.384 . S
H226 C232 0.930 . S
H227 C236 0.930 . S
H228 C241 0.929 . S
H229 C239 0.929 . S
H230 C234 0.929 . S
H231 C240 0.929 . S
C232 H226 0.930 . S
C232 C233 1.367 . S
C232 C240 1.378 . S
C233 C232 1.367 . S
C233 C241 1.433 . S
C234 H230 0.929 . S
C234 C236 1.378 . S
C234 C238 1.350 . S
C235 C238 1.463 . S
C235 C240 1.350 . S
C235 N243 1.427 . S
C236 H227 0.930 . S
C236 C234 1.378 . S
C236 C237 1.367 . S
C237 C236 1.367 . S
C237 C239 1.433 . S
C238 C234 1.350 . S
C238 C235 1.463 . S
C238 N242 1.427 . S
C239 H229 0.929 . S
C239 C237 1.433 . S
C239 N242 1.384 . S
C240 H231 0.929 . S
C240 C232 1.378 . S
C240 C235 1.350 . S
C241 H228 0.929 . S
C241 C233 1.433 . S
C241 N243 1.384 . S
N242 C238 1.427 . S
N242 C239 1.384 . S
N243 C235 1.427 . S
N243 C241 1.384 . S
H244 C250 0.930 . S
H245 C254 0.930 . S
H246 C259 0.929 . S
H247 C257 0.929 . S
H248 C252 0.929 . S
H249 C258 0.929 . S
C250 H244 0.930 . S
C250 C251 1.367 . S
C250 C258 1.378 . S
C251 C250 1.367 . S
C251 C259 1.433 . S
C252 H248 0.929 . S
C252 C254 1.378 . S
C252 C256 1.350 . S
C253 C256 1.463 . S
C253 C258 1.350 . S
C253 N261 1.427 . S
C254 H245 0.930 . S
C254 C252 1.378 . S
C254 C255 1.367 . S
C255 C254 1.367 . S
C255 C257 1.433 . S
C256 C252 1.350 . S
C256 C253 1.463 . S
C256 N260 1.427 . S
C257 H247 0.929 . S
C257 C255 1.433 . S
C257 N260 1.384 . S
C258 H249 0.929 . S
C258 C250 1.378 . S
C258 C253 1.350 . S
C259 H246 0.929 . S
C259 C251 1.433 . S
C259 N261 1.384 . S
N260 C256 1.427 . S
N260 C257 1.384 . S
N261 C253 1.427 . S
N261 C259 1.384 . S
H262 C268 0.930 . S
H263 C272 0.930 . S
H264 C277 0.929 . S
H265 C275 0.929 . S
H266 C270 0.929 . S
H267 C276 0.929 . S
C268 H262 0.930 . S
C268 C269 1.367 . S
C268 C276 1.378 . S
C269 C268 1.367 . S
C269 C277 1.433 . S
C270 H266 0.929 . S
C270 C272 1.378 . S
C270 C274 1.350 . S
C271 C274 1.463 . S
C271 C276 1.350 . S
C271 N279 1.427 . S
C272 H263 0.930 . S
C272 C270 1.378 . S
C272 C273 1.367 . S
C273 C272 1.367 . S
C273 C275 1.433 . S
C274 C270 1.350 . S
C274 C271 1.463 . S
C274 N278 1.427 . S
C275 H265 0.929 . S
C275 C273 1.433 . S
C275 N278 1.384 . S
C276 H267 0.929 . S
C276 C268 1.378 . S
C276 C271 1.350 . S
C277 H264 0.929 . S
C277 C269 1.433 . S
C277 N279 1.384 . S
N278 C274 1.427 . S
N278 C275 1.384 . S
N279 C271 1.427 . S
N279 C277 1.384 . S
H280 C286 0.930 . S
H281 C290 0.930 . S
H282 C295 0.929 . S
H283 C293 0.929 . S
H284 C288 0.929 . S
H285 C294 0.929 . S
C286 H280 0.930 . S
C286 C287 1.367 . S
C286 C294 1.378 . S
C287 C286 1.367 . S
C287 C295 1.433 . S
C288 H284 0.929 . S
C288 C290 1.378 . S
C288 C292 1.350 . S
C289 C292 1.463 . S
C289 C294 1.350 . S
C289 N297 1.427 . S
C290 H281 0.930 . S
C290 C288 1.378 . S
C290 C291 1.367 . S
C291 C290 1.367 . S
C291 C293 1.433 . S
C292 C288 1.350 . S
C292 C289 1.463 . S
C292 N296 1.427 . S
C293 H283 0.929 . S
C293 C291 1.433 . S
C293 N296 1.384 . S
C294 H285 0.929 . S
C294 C286 1.378 . S
C294 C289 1.350 . S
C295 H282 0.929 . S
C295 C287 1.433 . S
C295 N297 1.384 . S
N296 C292 1.427 . S
N296 C293 1.384 . S
N297 C289 1.427 . S
N297 C295 1.384 . S
H298 C304 0.930 . S
H299 C308 0.930 . S
H300 C313 0.929 . S
H301 C311 0.929 . S
H302 C306 0.929 . S
H303 C312 0.929 . S
C304 H298 0.930 . S
C304 C305 1.367 . S
C304 C312 1.378 . S
C305 C304 1.367 . S
C305 C313 1.433 . S
C306 H302 0.929 . S
C306 C308 1.378 . S
C306 C310 1.350 . S
C307 C310 1.463 . S
C307 C312 1.350 . S
C307 N315 1.427 . S
C308 H299 0.930 . S
C308 C306 1.378 . S
C308 C309 1.367 . S
C309 C308 1.367 . S
C309 C311 1.433 . S
C310 C306 1.350 . S
C310 C307 1.463 . S
C310 N314 1.427 . S
C311 H301 0.929 . S
C311 C309 1.433 . S
C311 N314 1.384 . S
C312 H303 0.929 . S
C312 C304 1.378 . S
C312 C307 1.350 . S
C313 H300 0.929 . S
C313 C305 1.433 . S
C313 N315 1.384 . S
N314 C310 1.427 . S
N314 C311 1.384 . S
N315 C307 1.427 . S
N315 C313 1.384 . S
H316 C322 0.930 . S
H317 C326 0.930 . S
H318 C331 0.929 . S
H319 C329 0.929 . S
H320 C324 0.929 . S
H321 C330 0.929 . S
C322 H316 0.930 . S
C322 C323 1.367 . S
C322 C330 1.378 . S
C323 C322 1.367 . S
C323 C331 1.433 . S
C324 H320 0.929 . S
C324 C326 1.378 . S
C324 C328 1.350 . S
C325 C328 1.463 . S
C325 C330 1.350 . S
C325 N333 1.427 . S
C326 H317 0.930 . S
C326 C324 1.378 . S
C326 C327 1.367 . S
C327 C326 1.367 . S
C327 C329 1.433 . S
C328 C324 1.350 . S
C328 C325 1.463 . S
C328 N332 1.427 . S
C329 H319 0.929 . S
C329 C327 1.433 . S
C329 N332 1.384 . S
C330 H321 0.929 . S
C330 C322 1.378 . S
C330 C325 1.350 . S
C331 H318 0.929 . S
C331 C323 1.433 . S
C331 N333 1.384 . S
N332 C328 1.427 . S
N332 C329 1.384 . S
N333 C325 1.427 . S
N333 C331 1.384 . S
H334 C340 0.930 . S
H335 C344 0.930 . S
H336 C349 0.929 . S
H337 C347 0.929 . S
H338 C342 0.929 . S
H339 C348 0.929 . S
C340 H334 0.930 . S
C340 C341 1.367 . S
C340 C348 1.378 . S
C341 C340 1.367 . S
C341 C349 1.433 . S
C342 H338 0.929 . S
C342 C344 1.378 . S
C342 C346 1.350 . S
C343 C346 1.463 . S
C343 C348 1.350 . S
C343 N351 1.427 . S
C344 H335 0.930 . S
C344 C342 1.378 . S
C344 C345 1.367 . S
C345 C344 1.367 . S
C345 C347 1.433 . S
C346 C342 1.350 . S
C346 C343 1.463 . S
C346 N350 1.427 . S
C347 H337 0.929 . S
C347 C345 1.433 . S
C347 N350 1.384 . S
C348 H339 0.929 . S
C348 C340 1.378 . S
C348 C343 1.350 . S
C349 H336 0.929 . S
C349 C341 1.433 . S
C349 N351 1.384 . S
N350 C346 1.427 . S
N350 C347 1.384 . S
N351 C343 1.427 . S
N351 C349 1.384 . S
H352 C358 0.930 . S
H353 C362 0.930 . S
H354 C367 0.929 . S
H355 C365 0.929 . S
H356 C360 0.929 . S
H357 C366 0.929 . S
C358 H352 0.930 . S
C358 C359 1.367 . S
C358 C366 1.378 . S
C359 C358 1.367 . S
C359 C367 1.433 . S
C360 H356 0.929 . S
C360 C362 1.378 . S
C360 C364 1.350 . S
C361 C364 1.463 1_556 S
C361 C366 1.350 . S
C361 N369 1.427 . S
C362 H353 0.930 . S
C362 C360 1.378 . S
C362 C363 1.367 . S
C363 C362 1.367 . S
C363 C365 1.433 . S
C364 C360 1.350 . S
C364 C361 1.463 1_554 S
C364 N368 1.427 . S
C365 H355 0.929 . S
C365 C363 1.433 . S
C365 N368 1.384 . S
C366 H357 0.929 . S
C366 C358 1.378 . S
C366 C361 1.350 . S
C367 H354 0.929 . S
C367 C359 1.433 . S
C367 N369 1.384 . S
N368 C364 1.427 . S
N368 C365 1.384 . S
N369 C361 1.427 . S
N369 C367 1.384 . S
H370 C376 0.930 . S
H371 C380 0.930 . S
H372 C385 0.929 . S
H373 C383 0.929 . S
H374 C378 0.929 . S
H375 C384 0.929 . S
C376 H370 0.930 . S
C376 C377 1.367 . S
C376 C384 1.378 . S
C377 C376 1.367 . S
C377 C385 1.433 . S
C378 H374 0.929 . S
C378 C380 1.378 . S
C378 C382 1.350 . S
C379 C382 1.463 1_556 S
C379 C384 1.350 . S
C379 N387 1.427 . S
C380 H371 0.930 . S
C380 C378 1.378 . S
C380 C381 1.367 . S
C381 C380 1.367 . S
C381 C383 1.433 . S
C382 C378 1.350 . S
C382 C379 1.463 1_554 S
C382 N386 1.427 . S
C383 H373 0.929 . S
C383 C381 1.433 . S
C383 N386 1.384 . S
C384 H375 0.929 . S
C384 C376 1.378 . S
C384 C379 1.350 . S
C385 H372 0.929 . S
C385 C377 1.433 . S
C385 N387 1.384 . S
N386 C382 1.427 . S
N386 C383 1.384 . S
N387 C379 1.427 . S
N387 C385 1.384 . S
H388 C394 0.930 . S
H389 C398 0.930 . S
H390 C403 0.929 . S
H391 C401 0.929 . S
H392 C396 0.929 . S
H393 C402 0.929 . S
C394 H388 0.930 . S
C394 C395 1.367 . S
C394 C402 1.378 . S
C395 C394 1.367 . S
C395 C403 1.433 . S
C396 H392 0.929 . S
C396 C398 1.378 . S
C396 C400 1.350 . S
C397 C400 1.463 1_556 S
C397 C402 1.350 . S
C397 N405 1.427 . S
C398 H389 0.930 . S
C398 C396 1.378 . S
C398 C399 1.367 . S
C399 C398 1.367 . S
C399 C401 1.433 . S
C400 C396 1.350 . S
C400 C397 1.463 1_554 S
C400 N404 1.427 . S
C401 H391 0.929 . S
C401 C399 1.433 . S
C401 N404 1.384 . S
C402 H393 0.929 . S
C402 C394 1.378 . S
C402 C397 1.350 . S
C403 H390 0.929 . S
C403 C395 1.433 . S
C403 N405 1.384 . S
N404 C400 1.427 . S
N404 C401 1.384 . S
N405 C397 1.427 . S
N405 C403 1.384 . S
H406 C412 0.930 . S
H407 C416 0.930 . S
H408 C421 0.929 . S
H409 C419 0.929 . S
H410 C414 0.929 . S
H411 C420 0.929 . S
C412 H406 0.930 . S
C412 C413 1.367 . S
C412 C420 1.378 . S
C413 C412 1.367 . S
C413 C421 1.433 . S
C414 H410 0.929 . S
C414 C416 1.378 . S
C414 C418 1.350 . S
C415 C418 1.463 1_554 S
C415 C420 1.350 . S
C415 N423 1.427 . S
C416 H407 0.930 . S
C416 C414 1.378 . S
C416 C417 1.367 . S
C417 C416 1.367 . S
C417 C419 1.433 . S
C418 C414 1.350 . S
C418 C415 1.463 1_556 S
C418 N422 1.427 . S
C419 H409 0.929 . S
C419 C417 1.433 . S
C419 N422 1.384 . S
C420 H411 0.929 . S
C420 C412 1.378 . S
C420 C415 1.350 . S
C421 H408 0.929 . S
C421 C413 1.433 . S
C421 N423 1.384 . S
N422 C418 1.427 . S
N422 C419 1.384 . S
N423 C415 1.427 . S
N423 C421 1.384 . S
H424 C430 0.930 . S
H425 C434 0.930 . S
H426 C439 0.929 . S
H427 C437 0.929 . S
H428 C432 0.929 . S
H429 C438 0.929 . S
C430 H424 0.930 . S
C430 C431 1.367 . S
C430 C438 1.378 . S
C431 C430 1.367 . S
C431 C439 1.433 . S
C432 H428 0.929 . S
C432 C434 1.378 . S
C432 C436 1.350 . S
C433 C436 1.463 . S
C433 C438 1.350 . S
C433 N441 1.427 . S
C434 H425 0.930 . S
C434 C432 1.378 . S
C434 C435 1.367 . S
C435 C434 1.367 . S
C435 C437 1.433 . S
C436 C432 1.350 . S
C436 C433 1.463 . S
C436 N440 1.427 . S
C437 H427 0.929 . S
C437 C435 1.433 . S
C437 N440 1.384 . S
C438 H429 0.929 . S
C438 C430 1.378 . S
C438 C433 1.350 . S
C439 H426 0.929 . S
C439 C431 1.433 . S
C439 N441 1.384 . S
N440 C436 1.427 . S
N440 C437 1.384 . S
N441 C433 1.427 . S
N441 C439 1.384 . S
H442 C448 0.930 . S
H443 C452 0.930 . S
H444 C457 0.929 . S
H445 C455 0.929 . S
H446 C450 0.929 . S
H447 C456 0.929 . S
C448 H442 0.930 . S
C448 C449 1.367 . S
C448 C456 1.378 . S
C449 C448 1.367 . S
C449 C457 1.433 . S
C450 H446 0.929 . S
C450 C452 1.378 . S
C450 C454 1.350 . S
C451 C454 1.463 . S
C451 C456 1.350 . S
C451 N459 1.427 . S
C452 H443 0.930 . S
C452 C450 1.378 . S
C452 C453 1.367 . S
C453 C452 1.367 . S
C453 C455 1.433 . S
C454 C450 1.350 . S
C454 C451 1.463 . S
C454 N458 1.427 . S
C455 H445 0.929 . S
C455 C453 1.433 . S
C455 N458 1.384 . S
C456 H447 0.929 . S
C456 C448 1.378 . S
C456 C451 1.350 . S
C457 H444 0.929 . S
C457 C449 1.433 . S
C457 N459 1.384 . S
N458 C454 1.427 . S
N458 C455 1.384 . S
N459 C451 1.427 . S
N459 C457 1.384 . S
H460 C466 0.930 . S
H461 C470 0.930 . S
H462 C475 0.929 . S
H463 C473 0.929 . S
H464 C468 0.929 . S
H465 C474 0.929 . S
C466 H460 0.930 . S
C466 C467 1.367 . S
C466 C474 1.378 . S
C467 C466 1.367 . S
C467 C475 1.433 . S
C468 H464 0.929 . S
C468 C470 1.378 . S
C468 C472 1.350 . S
C469 C472 1.463 . S
C469 C474 1.350 . S
C469 N477 1.427 . S
C470 H461 0.930 . S
C470 C468 1.378 . S
C470 C471 1.367 . S
C471 C470 1.367 . S
C471 C473 1.433 . S
C472 C468 1.350 . S
C472 C469 1.463 . S
C472 N476 1.427 . S
C473 H463 0.929 . S
C473 C471 1.433 . S
C473 N476 1.384 . S
C474 H465 0.929 . S
C474 C466 1.378 . S
C474 C469 1.350 . S
C475 H462 0.929 . S
C475 C467 1.433 . S
C475 N477 1.384 . S
N476 C472 1.427 . S
N476 C473 1.384 . S
N477 C469 1.427 . S
N477 C475 1.384 . S
H478 C484 0.930 . S
H479 C488 0.930 . S
H480 C493 0.929 . S
H481 C491 0.929 . S
H482 C486 0.929 . S
H483 C492 0.929 . S
C484 H478 0.930 . S
C484 C485 1.367 . S
C484 C492 1.378 . S
C485 C484 1.367 . S
C485 C493 1.433 . S
C486 H482 0.929 . S
C486 C488 1.378 . S
C486 C490 1.350 . S
C487 C490 1.463 . S
C487 C492 1.350 . S
C487 N495 1.427 . S
C488 H479 0.930 . S
C488 C486 1.378 . S
C488 C489 1.367 . S
C489 C488 1.367 . S
C489 C491 1.433 . S
C490 C486 1.350 . S
C490 C487 1.463 . S
C490 N494 1.427 . S
C491 H481 0.929 . S
C491 C489 1.433 . S
C491 N494 1.384 . S
C492 H483 0.929 . S
C492 C484 1.378 . S
C492 C487 1.350 . S
C493 H480 0.929 . S
C493 C485 1.433 . S
C493 N495 1.384 . S
N494 C490 1.427 . S
N494 C491 1.384 . S
N495 C487 1.427 . S
N495 C493 1.384 . S
H496 C502 0.930 . S
H497 C506 0.930 . S
H498 C511 0.929 . S
H499 C509 0.929 . S
H500 C504 0.929 . S
H501 C510 0.929 . S
C502 H496 0.930 . S
C502 C503 1.367 . S
C502 C510 1.378 . S
C503 C502 1.367 . S
C503 C511 1.433 . S
C504 H500 0.929 . S
C504 C506 1.378 . S
C504 C508 1.350 . S
C505 C508 1.463 . S
C505 C510 1.350 . S
C505 N513 1.427 . S
C506 H497 0.930 . S
C506 C504 1.378 . S
C506 C507 1.367 . S
C507 C506 1.367 . S
C507 C509 1.433 . S
C508 C504 1.350 . S
C508 C505 1.463 . S
C508 N512 1.427 . S
C509 H499 0.929 . S
C509 C507 1.433 . S
C509 N512 1.384 . S
C510 H501 0.929 . S
C510 C502 1.378 . S
C510 C505 1.350 . S
C511 H498 0.929 . S
C511 C503 1.433 . S
C511 N513 1.384 . S
N512 C508 1.427 . S
N512 C509 1.384 . S
N513 C505 1.427 . S
N513 C511 1.384 . S
H514 C520 0.930 . S
H515 C524 0.930 . S
H516 C529 0.929 . S
H517 C527 0.929 . S
H518 C522 0.929 . S
H519 C528 0.929 . S
C520 H514 0.930 . S
C520 C521 1.367 . S
C520 C528 1.378 . S
C521 C520 1.367 . S
C521 C529 1.433 . S
C522 H518 0.929 . S
C522 C524 1.378 . S
C522 C526 1.350 . S
C523 C526 1.463 . S
C523 C528 1.350 . S
C523 N531 1.427 . S
C524 H515 0.930 . S
C524 C522 1.378 . S
C524 C525 1.367 . S
C525 C524 1.367 . S
C525 C527 1.433 . S
C526 C522 1.350 . S
C526 C523 1.463 . S
C526 N530 1.427 . S
C527 H517 0.929 . S
C527 C525 1.433 . S
C527 N530 1.384 . S
C528 H519 0.929 . S
C528 C520 1.378 . S
C528 C523 1.350 . S
C529 H516 0.929 . S
C529 C521 1.433 . S
C529 N531 1.384 . S
N530 C526 1.427 . S
N530 C527 1.384 . S
N531 C523 1.427 . S
N531 C529 1.384 . S
H532 C538 0.930 . S
H533 C542 0.930 . S
H534 C547 0.929 . S
H535 C545 0.929 . S
H536 C540 0.929 . S
H537 C546 0.929 . S
C538 H532 0.930 . S
C538 C539 1.367 . S
C538 C546 1.378 . S
C539 C538 1.367 . S
C539 C547 1.433 . S
C540 H536 0.929 . S
C540 C542 1.378 . S
C540 C544 1.350 . S
C541 C544 1.463 . S
C541 C546 1.350 . S
C541 N549 1.427 . S
C542 H533 0.930 . S
C542 C540 1.378 . S
C542 C543 1.367 . S
C543 C542 1.367 . S
C543 C545 1.433 . S
C544 C540 1.350 . S
C544 C541 1.463 . S
C544 N548 1.427 . S
C545 H535 0.929 . S
C545 C543 1.433 . S
C545 N548 1.384 . S
C546 H537 0.929 . S
C546 C538 1.378 . S
C546 C541 1.350 . S
C547 H534 0.929 . S
C547 C539 1.433 . S
C547 N549 1.384 . S
N548 C544 1.427 . S
N548 C545 1.384 . S
N549 C541 1.427 . S
N549 C547 1.384 . S
H550 C556 0.930 . S
H551 C560 0.930 . S
H552 C565 0.929 . S
H553 C563 0.929 . S
H554 C558 0.929 . S
H555 C564 0.929 . S
C556 H550 0.930 . S
C556 C557 1.367 . S
C556 C564 1.378 . S
C557 C556 1.367 . S
C557 C565 1.433 . S
C558 H554 0.929 . S
C558 C560 1.378 . S
C558 C562 1.350 . S
C559 C562 1.463 . S
C559 C564 1.350 . S
C559 N567 1.427 . S
C560 H551 0.930 . S
C560 C558 1.378 . S
C560 C561 1.367 . S
C561 C560 1.367 . S
C561 C563 1.433 . S
C562 C558 1.350 . S
C562 C559 1.463 . S
C562 N566 1.427 . S
C563 H553 0.929 . S
C563 C561 1.433 . S
C563 N566 1.384 . S
C564 H555 0.929 . S
C564 C556 1.378 . S
C564 C559 1.350 . S
C565 H552 0.929 . S
C565 C557 1.433 . S
C565 N567 1.384 . S
N566 C562 1.427 . S
N566 C563 1.384 . S
N567 C559 1.427 . S
N567 C565 1.384 . S
H568 C574 0.930 . S
H569 C578 0.930 . S
H570 C583 0.929 . S
H571 C581 0.929 . S
H572 C576 0.929 . S
H573 C582 0.929 . S
C574 H568 0.930 . S
C574 C575 1.367 . S
C574 C582 1.378 . S
C575 C574 1.367 . S
C575 C583 1.433 . S
C576 H572 0.929 . S
C576 C578 1.378 . S
C576 C580 1.350 . S
C577 C580 1.463 . S
C577 C582 1.350 . S
C577 N585 1.427 . S
C578 H569 0.930 . S
C578 C576 1.378 . S
C578 C579 1.367 . S
C579 C578 1.367 . S
C579 C581 1.433 . S
C580 C576 1.350 . S
C580 C577 1.463 . S
C580 N584 1.427 . S
C581 H571 0.929 . S
C581 C579 1.433 . S
C581 N584 1.384 . S
C582 H573 0.929 . S
C582 C574 1.378 . S
C582 C577 1.350 . S
C583 H570 0.929 . S
C583 C575 1.433 . S
C583 N585 1.384 . S
N584 C580 1.427 . S
N584 C581 1.384 . S
N585 C577 1.427 . S
N585 C583 1.384 . S
H586 C592 0.930 . S
H587 C596 0.930 . S
H588 C601 0.929 . S
H589 C599 0.929 . S
H590 C594 0.929 . S
H591 C600 0.929 . S
C592 H586 0.930 . S
C592 C593 1.367 . S
C592 C600 1.378 . S
C593 C592 1.367 . S
C593 C601 1.433 . S
C594 H590 0.929 . S
C594 C596 1.378 . S
C594 C598 1.350 . S
C595 C598 1.463 . S
C595 C600 1.350 . S
C595 N603 1.427 . S
C596 H587 0.930 . S
C596 C594 1.378 . S
C596 C597 1.367 . S
C597 C596 1.367 . S
C597 C599 1.433 . S
C598 C594 1.350 . S
C598 C595 1.463 . S
C598 N602 1.427 . S
C599 H589 0.929 . S
C599 C597 1.433 . S
C599 N602 1.384 . S
C600 H591 0.929 . S
C600 C592 1.378 . S
C600 C595 1.350 . S
C601 H588 0.929 . S
C601 C593 1.433 . S
C601 N603 1.384 . S
N602 C598 1.427 . S
N602 C599 1.384 . S
N603 C595 1.427 . S
N603 C601 1.384 . S
H604 C610 0.930 . S
H605 C614 0.930 . S
H606 C619 0.929 . S
H607 C617 0.929 . S
H608 C612 0.929 . S
H609 C618 0.929 . S
C610 H604 0.930 . S
C610 C611 1.367 . S
C610 C618 1.378 . S
C611 C610 1.367 . S
C611 C619 1.433 . S
C612 H608 0.929 . S
C612 C614 1.378 . S
C612 C616 1.350 . S
C613 C616 1.463 . S
C613 C618 1.350 . S
C613 N621 1.427 . S
C614 H605 0.930 . S
C614 C612 1.378 . S
C614 C615 1.367 . S
C615 C614 1.367 . S
C615 C617 1.433 . S
C616 C612 1.350 . S
C616 C613 1.463 . S
C616 N620 1.427 . S
C617 H607 0.929 . S
C617 C615 1.433 . S
C617 N620 1.384 . S
C618 H609 0.929 . S
C618 C610 1.378 . S
C618 C613 1.350 . S
C619 H606 0.929 . S
C619 C611 1.433 . S
C619 N621 1.384 . S
N620 C616 1.427 . S
N620 C617 1.384 . S
N621 C613 1.427 . S
N621 C619 1.384 . S
H622 C628 0.930 . S
H623 C632 0.930 . S
H624 C637 0.929 . S
H625 C635 0.929 . S
H626 C630 0.929 . S
H627 C636 0.929 . S
C628 H622 0.930 . S
C628 C629 1.367 . S
C628 C636 1.378 . S
C629 C628 1.367 . S
C629 C637 1.433 . S
C630 H626 0.929 . S
C630 C632 1.378 . S
C630 C634 1.350 . S
C631 C634 1.463 . S
C631 C636 1.350 . S
C631 N639 1.427 . S
C632 H623 0.930 . S
C632 C630 1.378 . S
C632 C633 1.367 . S
C633 C632 1.367 . S
C633 C635 1.433 . S
C634 C630 1.350 . S
C634 C631 1.463 . S
C634 N638 1.427 . S
C635 H625 0.929 . S
C635 C633 1.433 . S
C635 N638 1.384 . S
C636 H627 0.929 . S
C636 C628 1.378 . S
C636 C631 1.350 . S
C637 H624 0.929 . S
C637 C629 1.433 . S
C637 N639 1.384 . S
N638 C634 1.427 . S
N638 C635 1.384 . S
N639 C631 1.427 . S
N639 C637 1.384 . S
H640 C646 0.930 . S
H641 C650 0.930 . S
H642 C655 0.929 . S
H643 C653 0.929 . S
H644 C648 0.929 . S
H645 C654 0.929 . S
C646 H640 0.930 . S
C646 C647 1.367 . S
C646 C654 1.378 . S
C647 C646 1.367 . S
C647 C655 1.433 . S
C648 H644 0.929 . S
C648 C650 1.378 . S
C648 C652 1.350 . S
C649 C652 1.463 1_545 S
C649 C654 1.350 . S
C649 N657 1.427 . S
C650 H641 0.930 . S
C650 C648 1.378 . S
C650 C651 1.367 . S
C651 C650 1.367 . S
C651 C653 1.433 . S
C652 C648 1.350 . S
C652 C649 1.463 1_565 S
C652 N656 1.427 . S
C653 H643 0.929 . S
C653 C651 1.433 . S
C653 N656 1.384 . S
C654 H645 0.929 . S
C654 C646 1.378 . S
C654 C649 1.350 . S
C655 H642 0.929 . S
C655 C647 1.433 . S
C655 N657 1.384 . S
N656 C652 1.427 . S
N656 C653 1.384 . S
N657 C649 1.427 . S
N657 C655 1.384 . S
H658 C664 0.930 . S
H659 C668 0.930 . S
H660 C673 0.929 . S
H661 C671 0.929 . S
H662 C666 0.929 . S
H663 C672 0.929 . S
C664 H658 0.930 . S
C664 C665 1.367 . S
C664 C672 1.378 . S
C665 C664 1.367 . S
C665 C673 1.433 . S
C666 H662 0.929 . S
C666 C668 1.378 . S
C666 C670 1.350 . S
C667 C670 1.463 1_655 S
C667 C672 1.350 . S
C667 N675 1.427 . S
C668 H659 0.930 . S
C668 C666 1.378 . S
C668 C669 1.367 . S
C669 C668 1.367 . S
C669 C671 1.433 . S
C670 C666 1.350 . S
C670 C667 1.463 1_455 S
C670 N674 1.427 . S
C671 H661 0.929 . S
C671 C669 1.433 . S
C671 N674 1.384 . S
C672 H663 0.929 . S
C672 C664 1.378 . S
C672 C667 1.350 . S
C673 H660 0.929 . S
C673 C665 1.433 . S
C673 N675 1.384 . S
N674 C670 1.427 . S
N674 C671 1.384 . S
N675 C667 1.427 . S
N675 C673 1.384 . S
H676 C682 0.930 . S
H677 C686 0.930 . S
H678 C691 0.929 . S
H679 C689 0.929 . S
H680 C684 0.929 . S
H681 C690 0.929 . S
C682 H676 0.930 . S
C682 C683 1.367 . S
C682 C690 1.378 . S
C683 C682 1.367 . S
C683 C691 1.433 . S
C684 H680 0.929 . S
C684 C686 1.378 . S
C684 C688 1.350 . S
C685 C688 1.463 1_545 S
C685 C690 1.350 . S
C685 N693 1.427 . S
C686 H677 0.930 . S
C686 C684 1.378 . S
C686 C687 1.367 . S
C687 C686 1.367 . S
C687 C689 1.433 . S
C688 C684 1.350 . S
C688 C685 1.463 1_565 S
C688 N692 1.427 . S
C689 H679 0.929 . S
C689 C687 1.433 . S
C689 N692 1.384 . S
C690 H681 0.929 . S
C690 C682 1.378 . S
C690 C685 1.350 . S
C691 H678 0.929 . S
C691 C683 1.433 . S
C691 N693 1.384 . S
N692 C688 1.427 . S
N692 C689 1.384 . S
N693 C685 1.427 . S
N693 C691 1.384 . S
H694 C700 0.930 . S
H695 C704 0.930 . S
H696 C709 0.929 . S
H697 C707 0.929 . S
H698 C702 0.929 . S
H699 C708 0.929 . S
C700 H694 0.930 . S
C700 C701 1.367 . S
C700 C708 1.378 . S
C701 C700 1.367 . S
C701 C709 1.433 . S
C702 H698 0.929 . S
C702 C704 1.378 . S
C702 C706 1.350 . S
C703 C706 1.463 1_455 S
C703 C708 1.350 . S
C703 N711 1.427 . S
C704 H695 0.930 . S
C704 C702 1.378 . S
C704 C705 1.367 . S
C705 C704 1.367 . S
C705 C707 1.433 . S
C706 C702 1.350 . S
C706 C703 1.463 1_655 S
C706 N710 1.427 . S
C707 H697 0.929 . S
C707 C705 1.433 . S
C707 N710 1.384 . S
C708 H699 0.929 . S
C708 C700 1.378 . S
C708 C703 1.350 . S
C709 H696 0.929 . S
C709 C701 1.433 . S
C709 N711 1.384 . S
N710 C706 1.427 . S
N710 C707 1.384 . S
N711 C703 1.427 . S
N711 C709 1.384 . S
H712 C718 0.930 . S
H713 C722 0.930 . S
H714 C727 0.929 . S
H715 C725 0.929 . S
H716 C720 0.929 . S
H717 C726 0.929 . S
C718 H712 0.930 . S
C718 C719 1.367 . S
C718 C726 1.378 . S
C719 C718 1.367 . S
C719 C727 1.433 . S
C720 H716 0.929 . S
C720 C722 1.378 . S
C720 C724 1.350 . S
C721 C724 1.463 1_545 S
C721 C726 1.350 . S
C721 N729 1.427 . S
C722 H713 0.930 . S
C722 C720 1.378 . S
C722 C723 1.367 . S
C723 C722 1.367 . S
C723 C725 1.433 . S
C724 C720 1.350 . S
C724 C721 1.463 1_565 S
C724 N728 1.427 . S
C725 H715 0.929 . S
C725 C723 1.433 . S
C725 N728 1.384 . S
C726 H717 0.929 . S
C726 C718 1.378 . S
C726 C721 1.350 . S
C727 H714 0.929 . S
C727 C719 1.433 . S
C727 N729 1.384 . S
N728 C724 1.427 . S
N728 C725 1.384 . S
N729 C721 1.427 . S
N729 C727 1.384 . S
H730 C736 0.930 . S
H731 C740 0.930 . S
H732 C745 0.929 . S
H733 C743 0.929 . S
H734 C738 0.929 . S
H735 C744 0.929 . S
C736 H730 0.930 . S
C736 C737 1.367 . S
C736 C744 1.378 . S
C737 C736 1.367 . S
C737 C745 1.433 . S
C738 H734 0.929 . S
C738 C740 1.378 . S
C738 C742 1.350 . S
C739 C742 1.463 1_655 S
C739 C744 1.350 . S
C739 N747 1.427 . S
C740 H731 0.930 . S
C740 C738 1.378 . S
C740 C741 1.367 . S
C741 C740 1.367 . S
C741 C743 1.433 . S
C742 C738 1.350 . S
C742 C739 1.463 1_455 S
C742 N746 1.427 . S
C743 H733 0.929 . S
C743 C741 1.433 . S
C743 N746 1.384 . S
C744 H735 0.929 . S
C744 C736 1.378 . S
C744 C739 1.350 . S
C745 H732 0.929 . S
C745 C737 1.433 . S
C745 N747 1.384 . S
N746 C742 1.427 . S
N746 C743 1.384 . S
N747 C739 1.427 . S
N747 C745 1.384 . S
H748 C754 0.930 . S
H749 C758 0.930 . S
H750 C763 0.929 . S
H751 C761 0.929 . S
H752 C756 0.929 . S
H753 C762 0.929 . S
C754 H748 0.930 . S
C754 C755 1.367 . S
C754 C762 1.378 . S
C755 C754 1.367 . S
C755 C763 1.433 . S
C756 H752 0.929 . S
C756 C758 1.378 . S
C756 C760 1.350 . S
C757 C760 1.463 1_565 S
C757 C762 1.350 . S
C757 N765 1.427 . S
C758 H749 0.930 . S
C758 C756 1.378 . S
C758 C759 1.367 . S
C759 C758 1.367 . S
C759 C761 1.433 . S
C760 C756 1.350 . S
C760 C757 1.463 1_545 S
C760 N764 1.427 . S
C761 H751 0.929 . S
C761 C759 1.433 . S
C761 N764 1.384 . S
C762 H753 0.929 . S
C762 C754 1.378 . S
C762 C757 1.350 . S
C763 H750 0.929 . S
C763 C755 1.433 . S
C763 N765 1.384 . S
N764 C760 1.427 . S
N764 C761 1.384 . S
N765 C757 1.427 . S
N765 C763 1.384 . S
H766 C772 0.930 . S
H767 C776 0.930 . S
H768 C781 0.929 . S
H769 C779 0.929 . S
H770 C774 0.929 . S
H771 C780 0.929 . S
C772 H766 0.930 . S
C772 C773 1.367 . S
C772 C780 1.378 . S
C773 C772 1.367 . S
C773 C781 1.433 . S
C774 H770 0.929 . S
C774 C776 1.378 . S
C774 C778 1.350 . S
C775 C778 1.463 1_455 S
C775 C780 1.350 . S
C775 N783 1.427 . S
C776 H767 0.930 . S
C776 C774 1.378 . S
C776 C777 1.367 . S
C777 C776 1.367 . S
C777 C779 1.433 . S
C778 C774 1.350 . S
C778 C775 1.463 1_655 S
C778 N782 1.427 . S
C779 H769 0.929 . S
C779 C777 1.433 . S
C779 N782 1.384 . S
C780 H771 0.929 . S
C780 C772 1.378 . S
C780 C775 1.350 . S
C781 H768 0.929 . S
C781 C773 1.433 . S
C781 N783 1.384 . S
N782 C778 1.427 . S
N782 C779 1.384 . S
N783 C775 1.427 . S
N783 C781 1.384 . S
C215 C65 1.248 . S
C219 C0 1.252 . S
C233 C78 1.246 . S
C237 C13 1.243 . S
C251 C26 1.250 . S
C255 C91 1.250 . S
C269 C39 1.252 . S
C273 C52 1.247 . S
C287 C169 1.250 . S
C291 C104 1.250 . S
C305 C182 1.247 . S
C309 C117 1.242 . S
C323 C130 1.245 . S
C327 C195 1.243 . S
C341 C143 1.251 . S
C345 C156 1.242 . S
C359 C138 1.474 . S
C363 C8 1.466 . S
C377 C151 1.471 . S
C381 C21 1.473 . S
C395 C112 1.473 . S
C399 C34 1.471 . S
C413 C47 1.474 . S
C417 C125 1.465 . S
C431 C190 1.462 . S
C435 C60 1.469 . S
C449 C203 1.466 . S
C453 C73 1.474 . S
C467 C86 1.465 . S
C471 C164 1.463 . S
C485 C177 1.468 . S
C489 C99 1.462 . S
C503 C62 1.337 . S
C507 C10 1.334 . S
C521 C23 1.339 . S
C525 C75 1.334 . S
C539 C36 1.344 . S
C543 C88 1.341 . S
C557 C101 1.338 . S
C561 C49 1.343 . S
C575 C109 1.426 . S
C579 C161 1.422 . S
C593 C174 1.417 . S
C597 C122 1.430 . S
C611 C135 1.421 . S
C615 C187 1.426 . S
C629 C200 1.431 . S
C633 C148 1.416 . S
C647 C153 1.334 . S
C651 C179 1.337 . S
C665 C114 1.343 . S
C669 C192 1.338 . S
C683 C205 1.344 . S
C687 C127 1.341 . S
C701 C140 1.338 . S
C705 C166 1.343 . S
C719 C70 1.427 . S
C723 C44 1.419 . S
C737 C83 1.421 . S
C741 C5 1.426 . S
C755 C96 1.419 . S
C759 C18 1.428 . S
C773 C57 1.426 . S
C777 C31 1.422 . S
