# Generated by pormake.
# Topology neb, (4)-cn, num edge types: 1
# Building blocks:
#     Node 0, Type 0, BuildingBlock: GALJAG_clean_sbu_0, # of connection points: 4
#     Node 1, Type 0, BuildingBlock: GALJAG_clean_sbu_0, # of connection points: 4
#     Node 2, Type 0, BuildingBlock: GALJAG_clean_sbu_0, # of connection points: 4
#     Node 3, Type 0, BuildingBlock: GALJAG_clean_sbu_0, # of connection points: 4
#     Node 4, Type 0, BuildingBlock: GALJAG_clean_sbu_0, # of connection points: 4
#     Node 5, Type 0, BuildingBlock: GALJAG_clean_sbu_0, # of connection points: 4
#     Node 6, Type 0, BuildingBlock: GALJAG_clean_sbu_0, # of connection points: 4
#     Node 7, Type 0, BuildingBlock: GALJAG_clean_sbu_0, # of connection points: 4
#     Node 8, Type 0, BuildingBlock: GALJAG_clean_sbu_0, # of connection points: 4
#     Node 9, Type 0, BuildingBlock: GALJAG_clean_sbu_0, # of connection points: 4
#     Node 10, Type 0, BuildingBlock: GALJAG_clean_sbu_0, # of connection points: 4
#     Node 11, Type 0, BuildingBlock: GALJAG_clean_sbu_0, # of connection points: 4
#     Node 12, Type 0, BuildingBlock: GALJAG_clean_sbu_0, # of connection points: 4
#     Node 13, Type 0, BuildingBlock: GALJAG_clean_sbu_0, # of connection points: 4
#     Node 14, Type 0, BuildingBlock: GALJAG_clean_sbu_0, # of connection points: 4
#     Node 15, Type 0, BuildingBlock: GALJAG_clean_sbu_0, # of connection points: 4
#     Edge 16, Type (0, 0), BuildingBlock: TEMPAE_clean_linker_10, # of connection points: 2
#     Edge 17, Type (0, 0), BuildingBlock: TEMPAE_clean_linker_10, # of connection points: 2
#     Edge 18, Type (0, 0), BuildingBlock: TEMPAE_clean_linker_10, # of connection points: 2
#     Edge 19, Type (0, 0), BuildingBlock: TEMPAE_clean_linker_10, # of connection points: 2
#     Edge 20, Type (0, 0), BuildingBlock: TEMPAE_clean_linker_10, # of connection points: 2
#     Edge 21, Type (0, 0), BuildingBlock: TEMPAE_clean_linker_10, # of connection points: 2
#     Edge 22, Type (0, 0), BuildingBlock: TEMPAE_clean_linker_10, # of connection points: 2
#     Edge 23, Type (0, 0), BuildingBlock: TEMPAE_clean_linker_10, # of connection points: 2
#     Edge 24, Type (0, 0), BuildingBlock: TEMPAE_clean_linker_10, # of connection points: 2
#     Edge 25, Type (0, 0), BuildingBlock: TEMPAE_clean_linker_10, # of connection points: 2
#     Edge 26, Type (0, 0), BuildingBlock: TEMPAE_clean_linker_10, # of connection points: 2
#     Edge 27, Type (0, 0), BuildingBlock: TEMPAE_clean_linker_10, # of connection points: 2
#     Edge 28, Type (0, 0), BuildingBlock: TEMPAE_clean_linker_10, # of connection points: 2
#     Edge 29, Type (0, 0), BuildingBlock: TEMPAE_clean_linker_10, # of connection points: 2
#     Edge 30, Type (0, 0), BuildingBlock: TEMPAE_clean_linker_10, # of connection points: 2
#     Edge 31, Type (0, 0), BuildingBlock: TEMPAE_clean_linker_10, # of connection points: 2
#     Edge 32, Type (0, 0), BuildingBlock: TEMPAE_clean_linker_10, # of connection points: 2
#     Edge 33, Type (0, 0), BuildingBlock: TEMPAE_clean_linker_10, # of connection points: 2
#     Edge 34, Type (0, 0), BuildingBlock: TEMPAE_clean_linker_10, # of connection points: 2
#     Edge 35, Type (0, 0), BuildingBlock: TEMPAE_clean_linker_10, # of connection points: 2
#     Edge 36, Type (0, 0), BuildingBlock: TEMPAE_clean_linker_10, # of connection points: 2
#     Edge 37, Type (0, 0), BuildingBlock: TEMPAE_clean_linker_10, # of connection points: 2
#     Edge 38, Type (0, 0), BuildingBlock: TEMPAE_clean_linker_10, # of connection points: 2
#     Edge 39, Type (0, 0), BuildingBlock: TEMPAE_clean_linker_10, # of connection points: 2
#     Edge 40, Type (0, 0), BuildingBlock: TEMPAE_clean_linker_10, # of connection points: 2
#     Edge 41, Type (0, 0), BuildingBlock: TEMPAE_clean_linker_10, # of connection points: 2
#     Edge 42, Type (0, 0), BuildingBlock: TEMPAE_clean_linker_10, # of connection points: 2
#     Edge 43, Type (0, 0), BuildingBlock: TEMPAE_clean_linker_10, # of connection points: 2
#     Edge 44, Type (0, 0), BuildingBlock: TEMPAE_clean_linker_10, # of connection points: 2
#     Edge 45, Type (0, 0), BuildingBlock: TEMPAE_clean_linker_10, # of connection points: 2
#     Edge 46, Type (0, 0), BuildingBlock: TEMPAE_clean_linker_10, # of connection points: 2
#     Edge 47, Type (0, 0), BuildingBlock: TEMPAE_clean_linker_10, # of connection points: 2
# Relax obj value: 0.003
# Max RMSD: 0.033
# Mean RMSD: 0.033
data_MOF--net-neb--node1-GALJAG_clean_sbu_0--edge1-TEMPAE_clean_linker_10
_symmetry_space_group_name_H-M    P1
_symmetry_Int_Tables_number       1
_symmetry_cell_setting            triclinic
loop_
_symmetry_equiv_pos_as_xyz
'x, y, z'
_cell_length_a     42.784347
_cell_length_b     25.274582
_cell_length_c     71.361863
_cell_angle_alpha  90.020209
_cell_angle_beta   90.411264
_cell_angle_gamma 89.983243
loop_
_atom_site_label
_atom_site_type_symbol
_atom_site_fract_x
_atom_site_fract_y
_atom_site_fract_z
_atom_type_partial_charge
In0 In 0.12698 0.12028 0.43378 0.0
O1 O 0.15632 0.04585 0.42792 0.0
O2 O 0.12194 0.06888 0.40793 0.0
C3 C 0.17521 0.15279 0.45579 0.0
C4 C 0.07689 0.08884 0.45397 0.0
C5 C 0.11285 0.20329 0.4114 0.0
O6 O 0.15872 0.11305 0.45975 0.0
O7 O 0.16801 0.17482 0.44054 0.0
O8 O 0.09759 0.19345 0.4261 0.0
O9 O 0.13467 0.17118 0.4081 0.0
C10 C 0.14278 0.03602 0.41252 0.0
O11 O 0.08513 0.06658 0.43901 0.0
O12 O 0.09328 0.12834 0.45851 0.0
In13 In 0.11808 0.1233 0.81332 0.0
O14 O 0.08745 0.05022 0.81895 0.0
O15 O 0.12161 0.07205 0.83925 0.0
C16 C 0.0688 0.16049 0.79317 0.0
C17 C 0.1669 0.08721 0.79289 0.0
C18 C 0.13625 0.20589 0.83485 0.0
O19 O 0.08493 0.12156 0.78784 0.0
O20 O 0.07697 0.17933 0.80878 0.0
O21 O 0.14856 0.19658 0.81915 0.0
O22 O 0.11545 0.17335 0.83957 0.0
C23 C 0.10037 0.04011 0.83452 0.0
O24 O 0.1592 0.06766 0.80841 0.0
O25 O 0.15048 0.12614 0.78778 0.0
In26 In 0.87347 0.88858 0.56325 0.0
O27 O 0.84136 0.94542 0.57954 0.0
O28 O 0.88963 0.96387 0.57781 0.0
C29 C 0.82425 0.85042 0.54322 0.0
C30 C 0.91586 0.92665 0.53904 0.0
C31 C 0.89272 0.80497 0.58426 0.0
O32 O 0.82408 0.85329 0.56086 0.0
O33 O 0.84875 0.86784 0.53578 0.0
O34 O 0.88251 0.84728 0.59128 0.0
O35 O 0.89442 0.80547 0.56663 0.0
C36 C 0.8631 0.97721 0.58364 0.0
O37 O 0.92294 0.89272 0.55142 0.0
O38 O 0.88747 0.94045 0.53883 0.0
In39 In 0.88194 0.89648 0.1896 0.0
O40 O 0.83431 0.89433 0.20426 0.0
O41 O 0.86375 0.96055 0.20907 0.0
C42 C 0.87 0.80748 0.16948 0.0
C43 C 0.8952 0.97653 0.16553 0.0
C44 C 0.92646 0.85981 0.21318 0.0
O45 O 0.85026 0.84441 0.17084 0.0
O46 O 0.89534 0.81576 0.17803 0.0
O47 O 0.93258 0.87664 0.19693 0.0
O48 O 0.89798 0.86246 0.21764 0.0
C49 C 0.83805 0.93829 0.2124 0.0
O50 O 0.91087 0.96817 0.18025 0.0
O51 O 0.87368 0.94346 0.16262 0.0
In52 In 0.1175 0.62329 0.93055 0.0
O53 O 0.15013 0.55538 0.92201 0.0
O54 O 0.1096 0.57011 0.90542 0.0
C55 C 0.16517 0.65793 0.95265 0.0
C56 C 0.06981 0.58777 0.95193 0.0
C57 C 0.10079 0.70397 0.90774 0.0
O58 O 0.14984 0.61665 0.95631 0.0
O59 O 0.15691 0.68076 0.93775 0.0
O60 O 0.08521 0.69222 0.92213 0.0
O61 O 0.1242 0.67483 0.90494 0.0
C62 C 0.13371 0.54223 0.90797 0.0
O63 O 0.0813 0.63344 0.95392 0.0
O64 O 0.08187 0.56095 0.93899 0.0
In65 In 0.13043 0.62066 0.31379 0.0
O66 O 0.09954 0.55007 0.32205 0.0
O67 O 0.13999 0.56606 0.33844 0.0
C68 C 0.08612 0.67104 0.29347 0.0
C69 C 0.17338 0.57981 0.28994 0.0
C70 C 0.14293 0.7011 0.33751 0.0
O71 O 0.08201 0.62509 0.30001 0.0
O72 O 0.11248 0.69109 0.29709 0.0
O73 O 0.16062 0.68971 0.32398 0.0
O74 O 0.11926 0.67164 0.33909 0.0
C75 C 0.11647 0.53695 0.33584 0.0
O76 O 0.17992 0.59249 0.30657 0.0
O77 O 0.14547 0.58858 0.28523 0.0
In78 In 0.874 0.39365 0.06753 0.0
O79 O 0.84447 0.44732 0.08663 0.0
O80 O 0.89121 0.46996 0.081 0.0
C81 C 0.82762 0.35011 0.04659 0.0
C82 C 0.91476 0.42797 0.04148 0.0
C83 C 0.88976 0.3145 0.09136 0.0
O84 O 0.82739 0.39823 0.05135 0.0
O85 O 0.85093 0.32442 0.05244 0.0
O86 O 0.90445 0.32336 0.0764 0.0
O87 O 0.86786 0.34664 0.09457 0.0
C88 C 0.86597 0.48088 0.0891 0.0
O89 O 0.92346 0.40417 0.05619 0.0
O90 O 0.88555 0.43339 0.03979 0.0
In91 In 0.87334 0.3916 0.68459 0.0
O92 O 0.82484 0.39846 0.69782 0.0
O93 O 0.86003 0.45218 0.70679 0.0
C94 C 0.86421 0.3061 0.6624 0.0
C95 C 0.88588 0.47132 0.66033 0.0
C96 C 0.91303 0.34709 0.70948 0.0
O97 O 0.84192 0.33555 0.66736 0.0
O98 O 0.89074 0.32042 0.66822 0.0
O99 O 0.92187 0.38069 0.6975 0.0
O100 O 0.88413 0.33687 0.70909 0.0
C101 C 0.8321 0.43696 0.70826 0.0
O102 O 0.9055 0.45567 0.6724 0.0
O103 O 0.8605 0.44606 0.66028 0.0
In104 In 0.62291 0.13381 0.9399 0.0
O105 O 0.64974 0.05591 0.9356 0.0
O106 O 0.62009 0.0832 0.91368 0.0
C107 C 0.66654 0.17738 0.9627 0.0
C108 C 0.57532 0.09013 0.95924 0.0
C109 C 0.6116 0.21969 0.9183 0.0
O110 O 0.67365 0.15187 0.94811 0.0
O111 O 0.63762 0.18037 0.96581 0.0
O112 O 0.59436 0.20764 0.93193 0.0
O113 O 0.63411 0.18849 0.91566 0.0
C114 C 0.63861 0.04788 0.91941 0.0
O115 O 0.57218 0.10576 0.94253 0.0
O116 O 0.60216 0.09714 0.96618 0.0
In117 In 0.62362 0.1252 0.31684 0.0
O118 O 0.65298 0.12819 0.29015 0.0
O119 O 0.67051 0.08323 0.31295 0.0
C120 C 0.63717 0.21138 0.3378 0.0
C121 C 0.60988 0.03796 0.33719 0.0
C122 C 0.57238 0.15595 0.29712 0.0
O123 O 0.64899 0.20419 0.32182 0.0
O124 O 0.61921 0.17492 0.34313 0.0
O125 O 0.58018 0.17634 0.31255 0.0
O126 O 0.5898 0.11859 0.29187 0.0
C127 C 0.67419 0.09803 0.29626 0.0
O128 O 0.59859 0.04555 0.32102 0.0
O129 O 0.62746 0.07445 0.34302 0.0
In130 In 0.37442 0.85613 0.06086 0.0
O131 O 0.42155 0.8618 0.04621 0.0
O132 O 0.38572 0.91572 0.03798 0.0
C133 C 0.38772 0.77442 0.08427 0.0
C134 C 0.36913 0.94051 0.08388 0.0
C135 C 0.32952 0.81544 0.0381 0.0
O136 O 0.36458 0.80459 0.08643 0.0
O137 O 0.4048 0.78624 0.07056 0.0
O138 O 0.32424 0.85314 0.04923 0.0
O139 O 0.35725 0.79884 0.03841 0.0
C140 C 0.41354 0.9002 0.03588 0.0
O141 O 0.34572 0.9135 0.07879 0.0
O142 O 0.395 0.92416 0.07782 0.0
In143 In 0.37255 0.86594 0.68973 0.0
O144 O 0.32225 0.87662 0.69986 0.0
O145 O 0.35786 0.92277 0.71279 0.0
C146 C 0.36208 0.78235 0.6669 0.0
C147 C 0.38181 0.95017 0.66721 0.0
C148 C 0.41674 0.82235 0.71225 0.0
O149 O 0.34479 0.79245 0.68072 0.0
O150 O 0.38425 0.81451 0.66462 0.0
O151 O 0.42345 0.84963 0.69803 0.0
O152 O 0.38786 0.81756 0.71519 0.0
C153 C 0.32917 0.91159 0.71185 0.0
O154 O 0.3999 0.93932 0.68073 0.0
O155 O 0.35941 0.91827 0.66498 0.0
In156 In 0.62107 0.62506 0.43814 0.0
O157 O 0.65204 0.56047 0.42573 0.0
O158 O 0.60639 0.57074 0.41424 0.0
C159 C 0.66228 0.66876 0.46262 0.0
C160 C 0.57842 0.58095 0.46119 0.0
C161 C 0.61187 0.70444 0.4134 0.0
O162 O 0.66865 0.62799 0.45317 0.0
O163 O 0.63524 0.68691 0.45982 0.0
O164 O 0.59013 0.68638 0.42344 0.0
O165 O 0.63797 0.68206 0.41574 0.0
C166 C 0.6318 0.5453 0.41391 0.0
O167 O 0.57463 0.62607 0.45398 0.0
O168 O 0.6036 0.55838 0.45685 0.0
In169 In 0.63011 0.6341 0.81957 0.0
O170 O 0.66168 0.6419 0.79371 0.0
O171 O 0.67072 0.579 0.81246 0.0
C172 C 0.64209 0.71455 0.84347 0.0
C173 C 0.6148 0.55287 0.8423 0.0
C174 C 0.58246 0.66826 0.79749 0.0
O175 O 0.66116 0.70134 0.83084 0.0
O176 O 0.61753 0.68702 0.84398 0.0
O177 O 0.59031 0.62013 0.79828 0.0
O178 O 0.59835 0.6984 0.80789 0.0
C179 C 0.67796 0.60167 0.79742 0.0
O180 O 0.5995 0.56301 0.82751 0.0
O181 O 0.63728 0.58386 0.84554 0.0
In182 In 0.37434 0.36636 0.56684 0.0
O183 O 0.34616 0.4402 0.57494 0.0
O184 O 0.38526 0.41897 0.59182 0.0
C185 C 0.33184 0.32023 0.54399 0.0
C186 C 0.41869 0.40887 0.54461 0.0
C187 C 0.38301 0.28248 0.58969 0.0
O188 O 0.32447 0.35604 0.55553 0.0
O189 O 0.36046 0.30826 0.54399 0.0
O190 O 0.40174 0.29358 0.57666 0.0
O191 O 0.36028 0.31394 0.59124 0.0
C192 C 0.36314 0.45098 0.58899 0.0
O193 O 0.4252 0.38662 0.55997 0.0
O194 O 0.39003 0.40926 0.54044 0.0
In195 In 0.37473 0.35979 0.18355 0.0
O196 O 0.32685 0.35874 0.19803 0.0
O197 O 0.35473 0.42778 0.20053 0.0
C198 C 0.36805 0.2721 0.16212 0.0
C199 C 0.38917 0.43772 0.15907 0.0
C200 C 0.41462 0.32336 0.20997 0.0
O201 O 0.34593 0.30452 0.16444 0.0
O202 O 0.39325 0.28443 0.17024 0.0
O203 O 0.4235 0.35197 0.19648 0.0
O204 O 0.38563 0.31414 0.21026 0.0
C205 C 0.32956 0.4049 0.20462 0.0
O206 O 0.40519 0.42873 0.17365 0.0
O207 O 0.36664 0.40627 0.15655 0.0
C208 C 0.27728 0.30823 0.53175 0.0
C209 C 0.30896 0.29417 0.53138 0.0
C210 C 0.25554 0.2839 0.51967 0.0
C211 C 0.26578 0.24465 0.50693 0.0
C212 C 0.2977 0.23005 0.5066 0.0
C213 C 0.3189 0.25497 0.51883 0.0
C214 C 0.22167 0.30052 0.52042 0.0
C215 C 0.30953 0.18844 0.49322 0.0
C216 C 0.20528 0.15098 0.48602 0.0
C217 C 0.19959 0.17423 0.46849 0.0
C218 C 0.22694 0.17324 0.49865 0.0
C219 C 0.24324 0.21981 0.49359 0.0
C220 C 0.23792 0.24294 0.47579 0.0
C221 C 0.21617 0.21987 0.46346 0.0
C222 C 0.23206 0.14737 0.51749 0.0
C223 C 0.25491 0.29249 0.46986 0.0
H224 H 0.26947 0.33843 0.54144 0.0
H225 H 0.34336 0.24385 0.51849 0.0
H226 H 0.21431 0.31695 0.50667 0.0
H227 H 0.20668 0.26565 0.52323 0.0
H228 H 0.21737 0.33077 0.53141 0.0
H229 H 0.33495 0.18078 0.49501 0.0
H230 H 0.29671 0.15079 0.49533 0.0
H231 H 0.30513 0.20115 0.47855 0.0
H232 H 0.19247 0.11578 0.49 0.0
H233 H 0.21184 0.23808 0.44994 0.0
H234 H 0.22577 0.17537 0.52883 0.0
H235 H 0.25713 0.1373 0.51939 0.0
H236 H 0.21799 0.11075 0.51913 0.0
H237 H 0.24946 0.32529 0.47964 0.0
H238 H 0.24847 0.30503 0.45542 0.0
H239 H 0.28053 0.28596 0.47051 0.0
C240 C 0.97052 0.93515 0.5271 0.0
C241 C 0.939 0.95008 0.52617 0.0
C242 C 0.99271 0.95836 0.51525 0.0
C243 C 0.98311 0.99741 0.50218 0.0
C244 C 0.95128 0.01244 0.50113 0.0
C245 C 0.92962 0.98858 0.51314 0.0
C246 C 0.02645 0.94123 0.51674 0.0
C247 C 0.94013 0.05385 0.48737 0.0
C248 C 0.04488 0.09087 0.48318 0.0
C249 C 0.05156 0.06771 0.46581 0.0
C250 C 0.02243 0.06868 0.49511 0.0
C251 C 0.00632 0.02228 0.4895 0.0
C252 C 0.01258 0.99933 0.47183 0.0
C253 C 0.03512 0.02232 0.4602 0.0
C254 C 0.01631 0.09438 0.51383 0.0
C255 C 0.99582 0.94997 0.46532 0.0
H256 H 0.9779 0.90547 0.53717 0.0
H257 H 0.90528 1.00036 0.51236 0.0
H258 H 0.03443 0.92545 0.50307 0.0
H259 H 0.04143 0.97578 0.52018 0.0
H260 H 0.03011 0.91038 0.52762 0.0
H261 H 0.91457 0.06107 0.48833 0.0
H262 H 0.95256 0.0917 0.48996 0.0
H263 H 0.94563 0.04133 0.47286 0.0
H264 H 0.05758 0.12588 0.4876 0.0
H265 H 0.04021 0.00419 0.44679 0.0
H266 H 0.02201 0.06627 0.52529 0.0
H267 H 0.99117 0.10444 0.51506 0.0
H268 H 0.03029 0.13097 0.51592 0.0
H269 H 0.00078 0.91695 0.47514 0.0
H270 H 0.0029 0.93772 0.45101 0.0
H271 H 0.97018 0.95657 0.46534 0.0
C272 C 0.31477 0.97843 0.73611 0.0
C273 C 0.30564 0.93818 0.72369 0.0
C274 C 0.2928 0.00446 0.74735 0.0
C275 C 0.26092 0.98979 0.74618 0.0
C276 C 0.25154 0.94925 0.73363 0.0
C277 C 0.27402 0.92396 0.72251 0.0
C278 C 0.30372 0.04752 0.76053 0.0
C279 C 0.21777 0.9324 0.73204 0.0
C280 C 0.20829 0.01933 0.78753 0.0
C281 C 0.19199 0.0642 0.78127 0.0
C282 C 0.23093 0.995 0.7763 0.0
C283 C 0.23748 0.01608 0.75838 0.0
C284 C 0.22145 0.06187 0.75209 0.0
C285 C 0.19885 0.08539 0.76362 0.0
C286 C 0.24754 0.94629 0.78353 0.0
C287 C 0.2279 0.08561 0.7331 0.0
H288 H 0.33917 0.98973 0.73704 0.0
H289 H 0.26682 0.89293 0.71292 0.0
H290 H 0.29115 0.08493 0.75742 0.0
H291 H 0.29821 0.03654 0.77519 0.0
H292 H 0.32925 0.05487 0.75952 0.0
H293 H 0.21424 0.9007 0.72144 0.0
H294 H 0.20947 0.9178 0.74579 0.0
H295 H 0.20297 0.96679 0.72815 0.0
H296 H 0.20307 0.00271 0.80115 0.0
H297 H 0.18629 0.12002 0.7587 0.0
H298 H 0.27317 0.95292 0.78367 0.0
H299 H 0.24286 0.91236 0.77405 0.0
H300 H 0.24009 0.93538 0.7979 0.0
H301 H 0.25306 0.09556 0.73191 0.0
H302 H 0.21393 0.12195 0.73045 0.0
H303 H 0.22244 0.05633 0.72196 0.0
C304 C 0.03664 0.16466 0.76374 0.0
C305 C 0.04378 0.18468 0.78159 0.0
C306 C 0.01454 0.18986 0.75213 0.0
C307 C 0.99932 0.23619 0.75853 0.0
C308 C 0.00596 0.25587 0.7767 0.0
C309 C 0.02809 0.22985 0.78801 0.0
C310 C 0.00796 0.16756 0.73287 0.0
C311 C 0.99021 0.3051 0.78404 0.0
C312 C 0.96691 0.33213 0.72226 0.0
C313 C 0.93497 0.31985 0.72238 0.0
C314 C 0.9881 0.30522 0.73397 0.0
C315 C 0.97707 0.26498 0.74605 0.0
C316 C 0.94482 0.25259 0.74629 0.0
C317 C 0.92414 0.28023 0.73447 0.0
C318 C 0.02232 0.31972 0.73337 0.0
C319 C 0.93217 0.20994 0.75896 0.0
H320 H 0.04871 0.12978 0.75871 0.0
H321 H 0.03351 0.24555 0.80179 0.0
H322 H 0.98257 0.16001 0.73111 0.0
H323 H 0.01475 0.19678 0.72204 0.0
H324 H 0.02083 0.13011 0.73029 0.0
H325 H 0.99719 0.31423 0.79871 0.0
H326 H 0.99626 0.33943 0.77508 0.0
H327 H 0.96445 0.30042 0.78343 0.0
H328 H 0.97542 0.36266 0.71293 0.0
H329 H 0.89948 0.27044 0.73459 0.0
H330 H 0.03638 0.28462 0.7294 0.0
H331 H 0.03041 0.33243 0.74748 0.0
H332 H 0.0271 0.35204 0.72325 0.0
H333 H 0.94356 0.17159 0.75575 0.0
H334 H 0.90647 0.20509 0.75747 0.0
H335 H 0.9377 0.21949 0.7738 0.0
C336 C 0.79841 0.83092 0.51256 0.0
C337 C 0.79877 0.826 0.53212 0.0
C338 C 0.77546 0.80566 0.50164 0.0
C339 C 0.75256 0.77412 0.51049 0.0
C340 C 0.75263 0.76937 0.53027 0.0
C341 C 0.77564 0.79571 0.54087 0.0
C342 C 0.77591 0.81232 0.48061 0.0
C343 C 0.72876 0.73569 0.54019 0.0
C344 C 0.67828 0.7445 0.48299 0.0
C345 C 0.68488 0.69446 0.47548 0.0
C346 C 0.69994 0.77062 0.49459 0.0
C347 C 0.72874 0.74582 0.49896 0.0
C348 C 0.73524 0.69478 0.49176 0.0
C349 C 0.71329 0.66983 0.47999 0.0
C350 C 0.69229 0.82525 0.50181 0.0
C351 C 0.76556 0.66683 0.49629 0.0
H352 H 0.81621 0.85441 0.50573 0.0
H353 H 0.77596 0.79156 0.55599 0.0
H354 H 0.77945 0.77336 0.47378 0.0
H355 H 0.7531 0.82796 0.4756 0.0
H356 H 0.79469 0.83958 0.47597 0.0
H357 H 0.73182 0.73655 0.55566 0.0
H358 H 0.70482 0.74952 0.53668 0.0
H359 H 0.73062 0.6941 0.53534 0.0
H360 H 0.65636 0.76379 0.4795 0.0
H361 H 0.71843 0.63107 0.47428 0.0
H362 H 0.70961 0.85413 0.49648 0.0
H363 H 0.69384 0.82598 0.51733 0.0
H364 H 0.66854 0.83847 0.4975 0.0
H365 H 0.78548 0.68979 0.49065 0.0
H366 H 0.76638 0.62623 0.49034 0.0
H367 H 0.76888 0.66427 0.5117 0.0
C368 C 0.70127 0.09214 0.26539 0.0
C369 C 0.69985 0.07815 0.28437 0.0
C370 C 0.72401 0.07025 0.25359 0.0
C371 C 0.74588 0.03358 0.26099 0.0
C372 C 0.74495 0.02016 0.28024 0.0
C373 C 0.72193 0.04258 0.2917 0.0
C374 C 0.72428 0.08562 0.23315 0.0
C375 C 0.76797 0.98144 0.28866 0.0
C376 C 0.78534 0.93789 0.22747 0.0
C377 C 0.81443 0.96218 0.22487 0.0
C378 C 0.76277 0.96074 0.23917 0.0
C379 C 0.76955 0.00887 0.24854 0.0
C380 C 0.79894 0.03342 0.24602 0.0
C381 C 0.82099 0.00984 0.23419 0.0
C382 C 0.73164 0.93347 0.24148 0.0
C383 C 0.8071 0.08461 0.25582 0.0
H384 H 0.68421 0.11952 0.25963 0.0
H385 H 0.72092 0.03155 0.30636 0.0
H386 H 0.74748 0.10191 0.22938 0.0
H387 H 0.72031 0.0501 0.22431 0.0
H388 H 0.7061 0.11551 0.22968 0.0
H389 H 0.76463 0.97625 0.30398 0.0
H390 H 0.76543 0.94233 0.28176 0.0
H391 H 0.79223 0.99512 0.2862 0.0
H392 H 0.78015 0.9011 0.22028 0.0
H393 H 0.84346 0.02879 0.23226 0.0
H394 H 0.71247 0.96031 0.237 0.0
H395 H 0.72781 0.92393 0.25646 0.0
H396 H 0.73001 0.89633 0.23319 0.0
H397 H 0.79017 0.1159 0.25174 0.0
H398 H 0.83104 0.09848 0.25244 0.0
H399 H 0.80539 0.07946 0.27121 0.0
C400 C 0.97886 0.81834 0.21808 0.0
C401 C 0.9503 0.83527 0.2255 0.0
C402 C 0.00086 0.79165 0.2293 0.0
C403 C 0.99438 0.78264 0.24847 0.0
C404 C 0.96587 0.80077 0.25613 0.0
C405 C 0.94402 0.82642 0.24449 0.0
C406 C 0.03078 0.77222 0.22055 0.0
C407 C 0.95838 0.79285 0.27658 0.0
C408 C 0.03765 0.67176 0.27367 0.0
C409 C 0.06214 0.69942 0.28237 0.0
C410 C 0.01543 0.69834 0.26255 0.0
C411 C 0.01741 0.75399 0.26047 0.0
C412 C 0.04172 0.78219 0.26959 0.0
C413 C 0.06401 0.75446 0.28025 0.0
C414 C 0.99017 0.66679 0.25277 0.0
C415 C 0.04424 0.84162 0.26804 0.0
H416 H 0.98369 0.82474 0.20337 0.0
H417 H 0.92198 0.83958 0.25027 0.0
H418 H 0.05122 0.78995 0.22784 0.0
H419 H 0.03262 0.72866 0.22218 0.0
H420 H 0.03215 0.78205 0.20541 0.0
H421 H 0.93571 0.81104 0.2805 0.0
H422 H 0.95744 0.74997 0.27983 0.0
H423 H 0.97712 0.81031 0.28546 0.0
H424 H 0.03625 0.62916 0.27523 0.0
H425 H 0.0828 0.77601 0.28709 0.0
H426 H 0.99167 0.67276 0.2374 0.0
H427 H 0.96681 0.68086 0.2572 0.0
H428 H 0.99196 0.62376 0.25578 0.0
H429 H 0.04797 0.85307 0.25322 0.0
H430 H 0.06375 0.85782 0.27665 0.0
H431 H 0.02211 0.86038 0.2726 0.0
C432 C 0.31352 0.75309 0.01265 0.0
C433 C 0.30531 0.79204 0.02573 0.0
C434 C 0.29099 0.73023 0.00079 0.0
C435 C 0.25942 0.74646 0.00212 0.0
C436 C 0.25093 0.78555 0.01538 0.0
C437 C 0.27403 0.80803 0.027 0.0
C438 C 0.301 0.68895 0.98675 0.0
C439 C 0.21748 0.80369 0.01726 0.0
C440 C 0.20621 0.72514 0.95997 0.0
C441 C 0.18988 0.67935 0.96511 0.0
C442 C 0.22893 0.74731 0.97187 0.0
C443 C 0.2354 0.7232 0.98938 0.0
C444 C 0.21911 0.67677 0.99461 0.0
C445 C 0.19656 0.65532 0.98238 0.0
C446 C 0.24591 0.79667 0.96575 0.0
C447 C 0.22537 0.65 0.01317 0.0
H448 H 0.33769 0.74059 0.01159 0.0
H449 H 0.26755 0.83799 0.03713 0.0
H450 H 0.28798 0.65161 0.9891 0.0
H451 H 0.2953 0.70252 0.97234 0.0
H452 H 0.32644 0.6804 0.9876 0.0
H453 H 0.21463 0.83368 0.0285 0.0
H454 H 0.20919 0.82097 0.00383 0.0
H455 H 0.20219 0.76939 0.02039 0.0
H456 H 0.20113 0.74392 0.94664 0.0
H457 H 0.18393 0.62001 0.98644 0.0
H458 H 0.27146 0.7892 0.96546 0.0
H459 H 0.24185 0.82903 0.97595 0.0
H460 H 0.23828 0.81034 0.95164 0.0
H461 H 0.25031 0.6383 0.01419 0.0
H462 H 0.21068 0.61422 0.01515 0.0
H463 H 0.22077 0.67798 0.02481 0.0
C464 C 0.03407 0.51453 0.9613 0.0
C465 C 0.0454 0.56594 0.9643 0.0
C466 C 0.01226 0.49177 0.97347 0.0
C467 C 0.00152 0.52111 0.98904 0.0
C468 C 0.01248 0.57337 0.99199 0.0
C469 C 0.0343 0.5952 0.97956 0.0
C470 C 0.00108 0.43601 0.96981 0.0
C471 C 0.00151 0.6059 0.00843 0.0
C472 C 0.92587 0.47839 0.01216 0.0
C473 C 0.93696 0.45025 0.02779 0.0
C474 C 0.94661 0.5017 0.99944 0.0
C475 C 0.97922 0.49669 0.00241 0.0
C476 C 0.99056 0.46797 0.01809 0.0
C477 C 0.96928 0.4451 0.0306 0.0
C478 C 0.93362 0.53191 0.98287 0.0
C479 C 0.02518 0.46164 0.0217 0.0
H480 H 0.04255 0.4917 0.94952 0.0
H481 H 0.04302 0.63491 0.98196 0.0
H482 H 0.00761 0.41017 0.98178 0.0
H483 H 0.97522 0.43532 0.96859 0.0
H484 H 0.01111 0.41903 0.95682 0.0
H485 H 0.01166 0.64636 0.00848 0.0
H486 H 0.97565 0.60923 0.00815 0.0
H487 H 0.00809 0.58593 0.02172 0.0
H488 H 0.9009 0.48261 0.00993 0.0
H489 H 0.97798 0.42349 0.04267 0.0
H490 H 0.9422 0.51427 0.96963 0.0
H491 H 0.94195 0.57346 0.98331 0.0
H492 H 0.90766 0.53203 0.98253 0.0
H493 H 0.03633 0.44193 0.00957 0.0
H494 H 0.03019 0.43803 0.0345 0.0
H495 H 0.03626 0.50108 0.02328 0.0
C496 C 0.30795 0.4844 0.22068 0.0
C497 C 0.30566 0.43031 0.21649 0.0
C498 C 0.28609 0.50924 0.2323 0.0
C499 C 0.26157 0.47912 0.24015 0.0
C500 C 0.25906 0.42449 0.23592 0.0
C501 C 0.28104 0.40078 0.22401 0.0
C502 C 0.28934 0.56771 0.23625 0.0
C503 C 0.23342 0.39098 0.24419 0.0
C504 C 0.22406 0.53353 0.28427 0.0
C505 C 0.19616 0.55495 0.27718 0.0
C506 C 0.24535 0.50806 0.2724 0.0
C507 C 0.23882 0.5048 0.25295 0.0
C508 C 0.21083 0.52692 0.2457 0.0
C509 C 0.1897 0.55133 0.25794 0.0
C510 C 0.27475 0.48436 0.2807 0.0
C511 C 0.2033 0.52509 0.22501 0.0
H512 H 0.32687 0.50747 0.21482 0.0
H513 H 0.27927 0.35892 0.22087 0.0
H514 H 0.26751 0.58865 0.23223 0.0
H515 H 0.29304 0.57423 0.25148 0.0
H516 H 0.30915 0.5858 0.22858 0.0
H517 H 0.23466 0.34914 0.23948 0.0
H518 H 0.23501 0.39194 0.25971 0.0
H519 H 0.21023 0.40726 0.2402 0.0
H520 H 0.22902 0.53592 0.29916 0.0
H521 H 0.16818 0.56797 0.25241 0.0
H522 H 0.2956 0.50344 0.27449 0.0
H523 H 0.27598 0.44158 0.27728 0.0
H524 H 0.27596 0.48904 0.29617 0.0
H525 H 0.22207 0.54501 0.217 0.0
H526 H 0.18067 0.54451 0.2216 0.0
H527 H 0.20231 0.48343 0.22015 0.0
C528 C 0.6819 0.21811 0.99326 0.0
C529 C 0.69005 0.20253 0.97509 0.0
C530 C 0.70382 0.24237 0.00521 0.0
C531 C 0.73442 0.25229 0.99866 0.0
C532 C 0.74267 0.2371 0.98023 0.0
C533 C 0.72046 0.21186 0.96873 0.0
C534 C 0.69431 0.25694 0.02489 0.0
C535 C 0.77491 0.24779 0.97264 0.0
C536 C 0.78277 0.3569 0.024 0.0
C537 C 0.80311 0.32559 0.03476 0.0
C538 C 0.76041 0.33359 0.01207 0.0
C539 C 0.75796 0.27773 0.01121 0.0
C540 C 0.77808 0.24602 0.02234 0.0
C541 C 0.80061 0.27034 0.03383 0.0
C542 C 0.73971 0.36868 1.00018 0.0
C543 C 0.77581 0.18639 0.02211 0.0
H544 H 0.65843 0.21074 0.99825 0.0
H545 H 0.72675 0.20019 0.95463 0.0
H546 H 0.70981 0.23676 0.03517 0.0
H547 H 0.69706 0.30013 0.02709 0.0
H548 H 0.66972 0.24594 0.02789 0.0
H549 H 0.7773 0.23503 0.95782 0.0
H550 H 0.78021 0.2907 0.97358 0.0
H551 H 0.7927 0.22674 0.98122 0.0
H552 H 0.78479 0.39962 0.0246 0.0
H553 H 0.81621 0.24599 0.04221 0.0
H554 H 0.7148 0.36138 0.00351 0.0
H555 H 0.74291 0.35907 0.98514 0.0
H556 H 0.74478 0.41137 0.00233 0.0
H557 H 0.75177 0.17389 0.02581 0.0
H558 H 0.79254 0.16753 0.03204 0.0
H559 H 0.78055 0.17128 0.00782 0.0
C560 C 0.7185 0.53436 0.7895 0.0
C561 C 0.70213 0.58055 0.78471 0.0
C562 C 0.74008 0.51169 0.77714 0.0
C563 C 0.74542 0.53577 0.75955 0.0
C564 C 0.72934 0.58292 0.75475 0.0
C565 C 0.70788 0.60479 0.7674 0.0
C566 C 0.75683 0.46151 0.78281 0.0
C567 C 0.73445 0.60977 0.73612 0.0
C568 C 0.82028 0.50086 0.73398 0.0
C569 C 0.80981 0.46241 0.72122 0.0
C570 C 0.79956 0.52523 0.74647 0.0
C571 C 0.76755 0.51113 0.7461 0.0
C572 C 0.75679 0.47266 0.73312 0.0
C573 C 0.77809 0.44858 0.72089 0.0
C574 C 0.81198 0.56573 0.76019 0.0
C575 C 0.72279 0.4568 0.73222 0.0
H576 H 0.71414 0.51539 0.80285 0.0
H577 H 0.69524 0.64044 0.76361 0.0
H578 H 0.7509 0.42926 0.77285 0.0
H579 H 0.78249 0.46748 0.7822 0.0
H580 H 0.75063 0.44848 0.79718 0.0
H581 H 0.72063 0.64679 0.73469 0.0
H582 H 0.75956 0.61939 0.7344 0.0
H583 H 0.72781 0.58258 0.72455 0.0
H584 H 0.8448 0.51166 0.73432 0.0
H585 H 0.76987 0.41903 0.71101 0.0
H586 H 0.80764 0.55234 0.77475 0.0
H587 H 0.7995 0.60385 0.75829 0.0
H588 H 0.83745 0.57273 0.75854 0.0
H589 H 0.71556 0.43986 0.74586 0.0
H590 H 0.71806 0.4272 0.72104 0.0
H591 H 0.708 0.49213 0.7296 0.0
C592 C 0.55119 0.06244 0.98936 0.0
C593 C 0.55 0.06414 0.96975 0.0
C594 C 0.52793 0.03645 0.99961 0.0
C595 C 0.50332 0.01036 0.98997 0.0
C596 C 0.50201 0.01196 0.97014 0.0
C597 C 0.52519 0.03945 0.96026 0.0
C598 C 0.52976 0.03675 0.02076 0.0
C599 C 0.47652 0.98368 0.95937 0.0
C600 C 0.46298 0.9016 0.01746 0.0
C601 C 0.43554 0.92702 0.02317 0.0
C602 C 0.48474 0.92769 0.00609 0.0
C603 C 0.47927 0.98087 1.00073 0.0
C604 C 0.45144 0.00653 0.00633 0.0
C605 C 0.42972 0.97905 0.01731 0.0
C606 C 0.51382 0.89861 1.00006 0.0
C607 C 0.44506 0.06354 0.00125 0.0
H608 H 0.57028 0.08177 0.99673 0.0
H609 H 0.52438 0.04039 0.94507 0.0
H610 H 0.50771 0.05252 0.02665 0.0
H611 H 0.53259 0.99575 0.02604 0.0
H612 H 0.54956 0.061 0.02611 0.0
H613 H 0.47882 0.98879 0.94398 0.0
H614 H 0.47719 0.94078 0.96265 0.0
H615 H 0.45328 0.99861 0.96367 0.0
H616 H 0.46743 0.86126 0.0219 0.0
H617 H 0.40861 0.99893 0.02182 0.0
H618 H 0.53476 0.91758 0.00637 0.0
H619 H 0.51633 0.90088 0.98461 0.0
H620 H 0.51349 0.85631 0.00428 0.0
H621 H 0.46349 0.08922 0.00741 0.0
H622 H 0.42196 0.07731 0.00632 0.0
H623 H 0.44587 0.06878 0.98583 0.0
C624 C 0.46841 0.3129 0.22341 0.0
C625 C 0.43659 0.2998 0.22372 0.0
C626 C 0.48968 0.28895 0.23585 0.0
C627 C 0.47889 0.25071 0.24879 0.0
C628 C 0.44674 0.23765 0.24925 0.0
C629 C 0.42595 0.26251 0.23675 0.0
C630 C 0.52377 0.30424 0.23504 0.0
C631 C 0.43438 0.19691 0.26278 0.0
C632 C 0.53947 0.15461 0.268 0.0
C633 C 0.54662 0.1773 0.28544 0.0
C634 C 0.51695 0.17744 0.25609 0.0
C635 C 0.50135 0.22418 0.26174 0.0
C636 C 0.50792 0.24648 0.27953 0.0
C637 C 0.53043 0.22269 0.29118 0.0
C638 C 0.51038 0.15228 0.23728 0.0
C639 C 0.49181 0.2963 0.28605 0.0
H640 H 0.47674 0.34172 0.21337 0.0
H641 H 0.40139 0.25207 0.237 0.0
H642 H 0.53175 0.31881 0.24894 0.0
H643 H 0.53813 0.26905 0.23159 0.0
H644 H 0.52827 0.33544 0.22444 0.0
H645 H 0.40867 0.19167 0.26151 0.0
H646 H 0.44583 0.15821 0.26022 0.0
H647 H 0.44008 0.20866 0.27739 0.0
H648 H 0.55192 0.11953 0.26349 0.0
H649 H 0.53589 0.24046 0.30464 0.0
H650 H 0.51704 0.17992 0.22591 0.0
H651 H 0.48501 0.14423 0.23568 0.0
H652 H 0.52338 0.11463 0.23536 0.0
H653 H 0.49768 0.32953 0.27655 0.0
H654 H 0.49867 0.30744 0.30056 0.0
H655 H 0.46607 0.2911 0.28548 0.0
C656 C 0.47222 0.79753 0.71924 0.0
C657 C 0.44071 0.7977 0.72449 0.0
C658 C 0.49515 0.77431 0.73077 0.0
C659 C 0.48638 0.75127 0.74804 0.0
C660 C 0.45456 0.75112 0.75335 0.0
C661 C 0.43208 0.7741 0.74146 0.0
C662 C 0.52881 0.77488 0.72455 0.0
C663 C 0.44433 0.72746 0.77174 0.0
C664 C 0.5424 0.65541 0.77208 0.0
C665 C 0.55728 0.68855 0.78512 0.0
C666 C 0.51922 0.67521 0.75989 0.0
C667 C 0.51066 0.72929 0.76091 0.0
C668 C 0.52539 0.76271 0.77421 0.0
C669 C 0.54857 0.74198 0.7861 0.0
C670 C 0.50413 0.63846 0.74582 0.0
C671 C 0.51678 0.82049 0.77583 0.0
H672 H 0.47897 0.81546 0.70608 0.0
H673 H 0.40775 0.77416 0.74559 0.0
H674 H 0.54315 0.79806 0.73463 0.0
H675 H 0.53829 0.73401 0.72442 0.0
H676 H 0.53159 0.79231 0.71037 0.0
H677 H 0.4186 0.72939 0.7736 0.0
H678 H 0.4518 0.68549 0.77263 0.0
H679 H 0.45573 0.7488 0.78354 0.0
H680 H 0.54911 0.61412 0.77124 0.0
H681 H 0.55995 0.7678 0.79618 0.0
H682 H 0.5082 0.65328 0.73141 0.0
H683 H 0.47847 0.63751 0.74794 0.0
H684 H 0.51331 0.59744 0.74687 0.0
H685 H 0.52138 0.84098 0.76238 0.0
H686 H 0.53007 0.84091 0.78714 0.0
H687 H 0.49143 0.82451 0.7787 0.0
C688 C 0.43577 0.44351 0.51362 0.0
C689 C 0.44252 0.43336 0.53252 0.0
C690 C 0.45798 0.46722 0.50194 0.0
C691 C 0.48736 0.48226 0.50947 0.0
C692 C 0.4942 0.4725 0.52862 0.0
C693 C 0.4718 0.44755 0.53987 0.0
C694 C 0.45007 0.47586 0.4815 0.0
C695 C 0.52503 0.48893 0.53724 0.0
C696 C 0.55561 0.50116 0.4764 0.0
C697 C 0.55523 0.55605 0.47362 0.0
C698 C 0.53352 0.47659 0.48794 0.0
C699 C 0.511 0.50786 0.49726 0.0
C700 C 0.51082 0.56345 0.49472 0.0
C701 C 0.53272 0.58683 0.48272 0.0
C702 C 0.53403 0.41711 0.48995 0.0
C703 C 0.48758 0.59821 0.50473 0.0
H704 H 0.41318 0.43233 0.50788 0.0
H705 H 0.47697 0.44008 0.55453 0.0
H706 H 0.45098 0.51868 0.47815 0.0
H707 H 0.46759 0.4558 0.47258 0.0
H708 H 0.42648 0.46068 0.47774 0.0
H709 H 0.52639 0.47969 0.55245 0.0
H710 H 0.54453 0.46854 0.53007 0.0
H711 H 0.52856 0.53209 0.53534 0.0
H712 H 0.57289 0.47723 0.46928 0.0
H713 H 0.53253 0.62933 0.48067 0.0
H714 H 0.5112 0.40039 0.48546 0.0
H715 H 0.53759 0.40613 0.50486 0.0
H716 H 0.55278 0.39847 0.48152 0.0
H717 H 0.46345 0.58746 0.50041 0.0
H718 H 0.49127 0.64089 0.50176 0.0
H719 H 0.48939 0.59182 0.52008 0.0
C720 C 0.17271 0.78276 0.34641 0.0
C721 C 0.14823 0.74727 0.34987 0.0
C722 C 0.17603 0.82929 0.35702 0.0
C723 C 0.15435 0.84042 0.3714 0.0
C724 C 0.13042 0.80355 0.37545 0.0
C725 C 0.12765 0.75746 0.36463 0.0
C726 C 0.20188 0.86758 0.35233 0.0
C727 C 0.10687 0.81386 0.3907 0.0
C728 C 0.16791 0.94724 0.40814 0.0
C729 C 0.14887 0.98808 0.40124 0.0
C730 C 0.17098 0.89943 0.39823 0.0
C731 C 0.15464 0.89258 0.38106 0.0
C732 C 0.13649 0.93462 0.37368 0.0
C733 C 0.13381 0.98178 0.38387 0.0
C734 C 0.19063 0.85554 0.40649 0.0
C735 C 0.11881 0.92907 0.35538 0.0
H736 H 0.18875 0.77497 0.33504 0.0
H737 H 0.10879 0.73002 0.36745 0.0
H738 H 0.19168 0.90406 0.34617 0.0
H739 H 0.21479 0.87933 0.3652 0.0
H740 H 0.21871 0.85063 0.34217 0.0
H741 H 0.09125 0.77942 0.39305 0.0
H742 H 0.11898 0.82352 0.40406 0.0
H743 H 0.09224 0.8485 0.38684 0.0
H744 H 0.17963 0.95198 0.42155 0.0
H745 H 0.11921 0.01334 0.3784 0.0
H746 H 0.20704 0.8399 0.39587 0.0
H747 H 0.17528 0.82234 0.41076 0.0
H748 H 0.20425 0.86885 0.41893 0.0
H749 H 0.1348 0.91602 0.34412 0.0
H750 H 0.10747 0.96665 0.35098 0.0
H751 H 0.10047 0.89833 0.3568 0.0
C752 C 0.08636 0.29002 0.40496 0.0
C753 C 0.10733 0.25034 0.39952 0.0
C754 C 0.08355 0.33712 0.3946 0.0
C755 C 0.10214 0.34447 0.37846 0.0
C756 C 0.12228 0.30346 0.37247 0.0
C757 C 0.12464 0.25698 0.38308 0.0
C758 C 0.06175 0.3799 0.40137 0.0
C759 C 0.14243 0.30958 0.35531 0.0
C760 C 0.08721 0.45327 0.34268 0.0
C761 C 0.11035 0.49007 0.34765 0.0
C762 C 0.0833 0.40644 0.35304 0.0
C763 C 0.10293 0.39649 0.36872 0.0
C764 C 0.12541 0.43465 0.37422 0.0
C765 C 0.12888 0.48086 0.3636 0.0
C766 C 0.05908 0.36668 0.34676 0.0
C767 C 0.1467 0.42573 0.3909 0.0
H768 H 0.07286 0.285 0.41764 0.0
H769 H 0.14073 0.22629 0.37872 0.0
H770 H 0.07562 0.41409 0.40653 0.0
H771 H 0.04679 0.39433 0.38968 0.0
H772 H 0.04651 0.36595 0.4129 0.0
H773 H 0.155 0.2725 0.35173 0.0
H774 H 0.12796 0.32166 0.34308 0.0
H775 H 0.15997 0.34122 0.35776 0.0
H776 H 0.07278 0.4603 0.33039 0.0
H777 H 0.14665 0.50937 0.36759 0.0
H778 H 0.04445 0.35431 0.35876 0.0
H779 H 0.0709 0.33073 0.34138 0.0
H780 H 0.04361 0.38259 0.33553 0.0
H781 H 0.13279 0.4157 0.40347 0.0
H782 H 0.16131 0.46094 0.39414 0.0
H783 H 0.16242 0.39175 0.38809 0.0
C784 C 0.16284 0.29343 0.83947 0.0
C785 C 0.14335 0.25328 0.84626 0.0
C786 C 0.16639 0.34125 0.84934 0.0
C787 C 0.14998 0.34888 0.8663 0.0
C788 C 0.13163 0.30731 0.87366 0.0
C789 C 0.12857 0.26006 0.86356 0.0
C790 C 0.1864 0.3845 0.84115 0.0
C791 C 0.11375 0.31375 0.8917 0.0
C792 C 0.16537 0.46153 0.90044 0.0
C793 C 0.14061 0.49584 0.89607 0.0
C794 C 0.16984 0.41457 0.89023 0.0
C795 C 0.14898 0.40179 0.8754 0.0
C796 C 0.12489 0.43761 0.87041 0.0
C797 C 0.12103 0.48417 0.88079 0.0
C798 C 0.19595 0.37755 0.89584 0.0
C799 C 0.10213 0.42554 0.85469 0.0
H800 H 0.17441 0.28827 0.82613 0.0
H801 H 0.11367 0.229 0.86896 0.0
H802 H 0.1712 0.41694 0.83592 0.0
H803 H 0.20204 0.40154 0.85205 0.0
H804 H 0.20086 0.37 0.82935 0.0
H805 H 0.10265 0.27624 0.89629 0.0
H806 H 0.12949 0.32793 0.90305 0.0
H807 H 0.09517 0.34395 0.88978 0.0
H808 H 0.18066 0.47052 0.91219 0.0
H809 H 0.10198 0.51073 0.87725 0.0
H810 H 0.20917 0.36456 0.88334 0.0
H811 H 0.18597 0.34161 0.90242 0.0
H812 H 0.21245 0.39616 0.90597 0.0
H813 H 0.11491 0.41541 0.84171 0.0
H814 H 0.08624 0.45929 0.85166 0.0
H815 H 0.08772 0.39071 0.85849 0.0
C816 C 0.11284 0.76064 0.88022 0.0
C817 C 0.09393 0.75031 0.89575 0.0
C818 C 0.10931 0.80722 0.86979 0.0
C819 C 0.0862 0.84442 0.87498 0.0
C820 C 0.06589 0.83298 0.89004 0.0
C821 C 0.07005 0.78598 0.90031 0.0
C822 C 0.13148 0.81785 0.85384 0.0
C823 C 0.0408 0.87147 0.89585 0.0
C824 C 0.10877 0.98499 0.86299 0.0
C825 C 0.09322 0.99271 0.84585 0.0
C826 C 0.10536 0.93784 0.87307 0.0
C827 C 0.08584 0.89734 0.86587 0.0
C828 C 0.06876 0.90594 0.84906 0.0
C829 C 0.07271 0.95362 0.8392 0.0
C830 C 0.124 0.93035 0.89094 0.0
C831 C 0.04752 0.86385 0.84105 0.0
H832 H 0.1312 0.73304 0.87654 0.0
H833 H 0.05526 0.77803 0.91225 0.0
H834 H 0.11826 0.82873 0.84099 0.0
H835 H 0.14682 0.85179 0.85748 0.0
H836 H 0.14648 0.78314 0.85067 0.0
H837 H 0.02441 0.8538 0.90611 0.0
H838 H 0.05179 0.90681 0.90235 0.0
H839 H 0.02727 0.88521 0.88346 0.0
H840 H 0.12448 0.01522 0.86829 0.0
H841 H 0.06053 0.95951 0.82599 0.0
H842 H 0.14179 0.89896 0.88886 0.0
H843 H 0.10853 0.91726 0.90245 0.0
H844 H 0.13616 0.96715 0.89539 0.0
H845 H 0.06181 0.8305 0.83573 0.0
H846 H 0.03284 0.87913 0.82934 0.0
H847 H 0.03203 0.84781 0.85208 0.0
C848 C 0.88029 0.21482 0.65395 0.0
C849 C 0.85992 0.25753 0.65121 0.0
C850 C 0.87746 0.16856 0.64323 0.0
C851 C 0.85437 0.16568 0.62895 0.0
C852 C 0.83351 0.20864 0.62622 0.0
C853 C 0.83621 0.25384 0.63764 0.0
C854 C 0.89959 0.12314 0.64698 0.0
C855 C 0.80924 0.20771 0.61077 0.0
C856 C 0.87667 0.07091 0.59012 0.0
C857 C 0.85835 0.02658 0.59425 0.0
C858 C 0.87419 0.11751 0.60067 0.0
C859 C 0.85372 0.1191 0.61616 0.0
C860 C 0.83472 0.07463 0.62019 0.0
C861 C 0.83688 0.02906 0.60894 0.0
C862 C 0.89417 0.16451 0.59553 0.0
C863 C 0.81333 0.07419 0.63691 0.0
H864 H 0.89841 0.21747 0.66461 0.0
H865 H 0.82054 0.28704 0.63549 0.0
H866 H 0.88632 0.08575 0.64866 0.0
H867 H 0.91544 0.11793 0.63489 0.0
H868 H 0.91408 0.12964 0.65976 0.0
H869 H 0.79382 0.24308 0.61108 0.0
H870 H 0.82102 0.20616 0.59698 0.0
H871 H 0.79454 0.17174 0.61187 0.0
H872 H 0.89306 0.06908 0.57862 0.0
H873 H 0.82286 0.99456 0.61215 0.0
H874 H 0.91225 0.17095 0.6065 0.0
H875 H 0.87969 0.20089 0.59476 0.0
H876 H 0.90608 0.15895 0.58188 0.0
H877 H 0.82753 0.07616 0.64997 0.0
H878 H 0.79859 0.03805 0.63739 0.0
H879 H 0.79788 0.10941 0.63674 0.0
C880 C 0.9197 0.54488 0.64835 0.0
C881 C 0.89114 0.51765 0.64804 0.0
C882 C 0.92393 0.59106 0.63766 0.0
C883 C 0.89889 0.6106 0.62656 0.0
C884 C 0.87027 0.5825 0.62588 0.0
C885 C 0.86681 0.53631 0.63655 0.0
C886 C 0.95488 0.61959 0.63857 0.0
C887 C 0.84293 0.60207 0.6143 0.0
C888 C 0.89139 0.75648 0.61473 0.0
C889 C 0.89869 0.75691 0.59561 0.0
C890 C 0.89269 0.70947 0.62518 0.0
C891 C 0.90176 0.66176 0.61633 0.0
C892 C 0.91082 0.66253 0.59728 0.0
C893 C 0.90903 0.71008 0.58711 0.0
C894 C 0.88272 0.71039 0.64544 0.0
C895 C 0.921 0.61266 0.5874 0.0
H896 H 0.93862 0.53056 0.65717 0.0
H897 H 0.84466 0.51548 0.63624 0.0
H898 H 0.96389 0.62643 0.62424 0.0
H899 H 0.95171 0.65894 0.64518 0.0
H900 H 0.9727 0.59723 0.64674 0.0
H901 H 0.82262 0.57473 0.61482 0.0
H902 H 0.83539 0.64144 0.61946 0.0
H903 H 0.84995 0.60695 0.59947 0.0
H904 H 0.8834 0.79253 0.6214 0.0
H905 H 0.91482 0.71019 0.57235 0.0
H906 H 0.90072 0.69135 0.65444 0.0
H907 H 0.86079 0.68743 0.64702 0.0
H908 H 0.87865 0.75124 0.65063 0.0
H909 H 0.9389 0.59148 0.59586 0.0
H910 H 0.93071 0.62091 0.5733 0.0
H911 H 0.90071 0.58569 0.58575 0.0
C912 C 0.83969 0.53267 0.11451 0.0
C913 C 0.8623 0.52943 0.10044 0.0
C914 C 0.83768 0.57768 0.12606 0.0
C915 C 0.85826 0.62078 0.12312 0.0
C916 C 0.88025 0.61836 0.10841 0.0
C917 C 0.88226 0.57249 0.09742 0.0
C918 C 0.81438 0.5783 0.14184 0.0
C919 C 0.90221 0.66378 0.10453 0.0
C920 C 0.84266 0.75711 0.14388 0.0
C921 C 0.86461 0.75857 0.15855 0.0
C922 C 0.83965 0.71194 0.13246 0.0
C923 C 0.85855 0.66697 0.13612 0.0
C924 C 0.87967 0.66758 0.15148 0.0
C925 C 0.8827 0.71354 0.16235 0.0
C926 C 0.81729 0.7132 0.11602 0.0
C927 C 0.89981 0.62019 0.15611 0.0
H928 H 0.82429 0.49932 0.11689 0.0
H929 H 0.89955 0.57032 0.08642 0.0
H930 H 0.827 0.57924 0.15547 0.0
H931 H 0.79975 0.61448 0.14108 0.0
H932 H 0.79883 0.54311 0.14159 0.0
H933 H 0.91604 0.65748 0.0916 0.0
H934 H 0.88887 0.70123 0.10306 0.0
H935 H 0.91866 0.66879 0.11648 0.0
H936 H 0.82872 0.79196 0.14089 0.0
H937 H 0.89949 0.71436 0.1738 0.0
H938 H 0.80168 0.67819 0.11628 0.0
H939 H 0.83067 0.7114 0.10277 0.0
H940 H 0.80269 0.74956 0.11587 0.0
H941 H 0.88522 0.58402 0.15706 0.0
H942 H 0.91281 0.62524 0.16952 0.0
H943 H 0.91698 0.6137 0.14476 0.0
C944 C 0.92081 0.06362 0.15891 0.0
C945 C 0.89952 0.024 0.15366 0.0
C946 C 0.92255 0.11144 0.14891 0.0
C947 C 0.90255 0.11973 0.13328 0.0
C948 C 0.88188 0.07901 0.1275 0.0
C949 C 0.8806 0.0317 0.13777 0.0
C950 C 0.94495 0.15381 0.15548 0.0
C951 C 0.86028 0.08613 0.11086 0.0
C952 C 0.87768 0.25858 0.11926 0.0
C953 C 0.89563 0.26733 0.1032 0.0
C954 C 0.8805 0.21143 0.12953 0.0
C955 C 0.90176 0.17197 0.12359 0.0
C956 C 0.92079 0.1814 0.10778 0.0
C957 C 0.9175 0.22901 0.09777 0.0
C958 C 0.85988 0.20307 0.14637 0.0
C959 C 0.94377 0.1404 0.10103 0.0
H960 H 0.93548 0.05794 0.17119 0.0
H961 H 0.86414 1.00121 0.13361 0.0
H962 H 0.95952 0.16767 0.14366 0.0
H963 H 0.93158 0.18844 0.16064 0.0
H964 H 0.96059 0.13971 0.16692 0.0
H965 H 0.84697 0.04954 0.10751 0.0
H966 H 0.84338 0.11836 0.11377 0.0
H967 H 0.87381 0.09791 0.09834 0.0
H968 H 0.86077 0.28806 0.12356 0.0
H969 H 0.93145 0.23551 0.08536 0.0
H970 H 0.87426 0.19211 0.15877 0.0
H971 H 0.84353 0.16985 0.14361 0.0
H972 H 0.84599 0.23885 0.14984 0.0
H973 H 0.9592 0.12749 0.11272 0.0
H974 H 0.95854 0.1554 0.08944 0.0
H975 H 0.93092 0.10495 0.09599 0.0
C976 C 0.62444 0.77202 0.8697 0.0
C977 C 0.64683 0.76044 0.85605 0.0
C978 C 0.6267 0.81781 0.8807 0.0
C979 C 0.652 0.85299 0.87801 0.0
C980 C 0.67543 0.84045 0.8648 0.0
C981 C 0.67255 0.79424 0.85393 0.0
C982 C 0.60122 0.82963 0.89465 0.0
C983 C 0.70282 0.87688 0.86161 0.0
C984 C 0.63276 0.99518 0.89009 0.0
C985 C 0.64512 0.99981 0.90827 0.0
C986 C 0.63609 0.94832 0.8798 0.0
C987 C 0.65215 0.90488 0.88787 0.0
C988 C 0.66581 0.90999 0.90592 0.0
C989 C 0.66214 0.95751 0.91593 0.0
C990 C 0.62122 0.9446 0.86057 0.0
C991 C 0.68316 0.86458 0.91496 0.0
H992 H 0.6046 0.74589 0.8715 0.0
H993 H 0.68998 0.78536 0.84344 0.0
H994 H 0.61151 0.83801 0.90865 0.0
H995 H 0.58818 0.86549 0.89018 0.0
H996 H 0.58437 0.79644 0.896 0.0
H997 H 0.72063 0.85888 0.85232 0.0
H998 H 0.69448 0.91419 0.85509 0.0
H999 H 0.71408 0.88743 0.87515 0.0
H1000 H 0.61976 0.02786 0.88404 0.0
H1001 H 0.67181 0.96096 0.92996 0.0
H1002 H 0.60198 0.91519 0.86081 0.0
H1003 H 0.63857 0.93073 0.85019 0.0
H1004 H 0.61155 0.98311 0.85576 0.0
H1005 H 0.66649 0.8323 0.91823 0.0
H1006 H 0.69517 0.8766 0.92815 0.0
H1007 H 0.70074 0.84819 0.90519 0.0
C1008 C 0.58474 0.30588 0.91154 0.0
C1009 C 0.60685 0.26742 0.90665 0.0
C1010 C 0.58194 0.35306 0.90123 0.0
C1011 C 0.60165 0.36166 0.88565 0.0
C1012 C 0.62318 0.32202 0.88028 0.0
C1013 C 0.62556 0.27549 0.89086 0.0
C1014 C 0.55875 0.39445 0.90738 0.0
C1015 C 0.64453 0.3295 0.86371 0.0
C1016 C 0.58666 0.46803 0.84901 0.0
C1017 C 0.60852 0.50658 0.85437 0.0
C1018 C 0.58306 0.42144 0.85954 0.0
C1019 C 0.60174 0.41347 0.87577 0.0
C1020 C 0.62279 0.45344 0.88167 0.0
C1021 C 0.62593 0.49943 0.87089 0.0
C1022 C 0.56032 0.37976 0.85284 0.0
C1023 C 0.64306 0.44662 0.89892 0.0
H1024 H 0.57019 0.29975 0.92373 0.0
H1025 H 0.64255 0.24573 0.88692 0.0
H1026 H 0.57144 0.42985 0.91259 0.0
H1027 H 0.54405 0.40729 0.89534 0.0
H1028 H 0.54326 0.37986 0.91869 0.0
H1029 H 0.65848 0.29348 0.86064 0.0
H1030 H 0.63071 0.33999 0.85104 0.0
H1031 H 0.66086 0.3627 0.86654 0.0
H1032 H 0.57308 0.47346 0.83628 0.0
H1033 H 0.64272 0.52927 0.87519 0.0
H1034 H 0.54523 0.3666 0.86452 0.0
H1035 H 0.57342 0.34461 0.84788 0.0
H1036 H 0.54522 0.39424 0.8412 0.0
H1037 H 0.62856 0.43553 0.91113 0.0
H1038 H 0.65633 0.48311 0.90245 0.0
H1039 H 0.66 0.41404 0.89661 0.0
C1040 C 0.62946 0.2634 0.36706 0.0
C1041 C 0.64182 0.26012 0.34896 0.0
C1042 C 0.63082 0.31066 0.37731 0.0
C1043 C 0.64476 0.35594 0.36923 0.0
C1044 C 0.65826 0.35245 0.3512 0.0
C1045 C 0.65669 0.30444 0.34127 0.0
C1046 C 0.61633 0.31258 0.39654 0.0
C1047 C 0.67331 0.3999 0.34214 0.0
C1048 C 0.61373 0.48595 0.38805 0.0
C1049 C 0.63668 0.49956 0.40132 0.0
C1050 C 0.61674 0.4404 0.37698 0.0
C1051 C 0.64328 0.40749 0.37928 0.0
C1052 C 0.66706 0.42198 0.3922 0.0
C1053 C 0.66349 0.46796 0.40306 0.0
C1054 C 0.59093 0.42649 0.36329 0.0
C1055 C 0.69566 0.38787 0.39507 0.0
H1056 H 0.61807 0.22919 0.37312 0.0
H1057 H 0.66625 0.3021 0.32727 0.0
H1058 H 0.63343 0.32803 0.40694 0.0
H1059 H 0.59607 0.34 0.3964 0.0
H1060 H 0.60818 0.2731 0.40129 0.0
H1061 H 0.68491 0.38964 0.32874 0.0
H1062 H 0.65529 0.43049 0.33928 0.0
H1063 H 0.69086 0.41775 0.35175 0.0
H1064 H 0.59303 0.51038 0.38657 0.0
H1065 H 0.68134 0.47836 0.41327 0.0
H1066 H 0.5793 0.38944 0.3678 0.0
H1067 H 0.60074 0.41925 0.34917 0.0
H1068 H 0.57299 0.45815 0.36219 0.0
H1069 H 0.68871 0.34947 0.40132 0.0
H1070 H 0.7132 0.40687 0.40445 0.0
H1071 H 0.70681 0.37912 0.38143 0.0
C1072 C 0.63197 0.76495 0.38866 0.0
C1073 C 0.60767 0.74992 0.4006 0.0
C1074 C 0.62948 0.81034 0.37745 0.0
C1075 C 0.60211 0.84173 0.37832 0.0
C1076 C 0.57706 0.82583 0.3899 0.0
C1077 C 0.5801 0.77992 0.40087 0.0
C1078 C 0.65661 0.82568 0.36517 0.0
C1079 C 0.54759 0.85841 0.39126 0.0
C1080 C 0.61507 0.98637 0.36677 0.0
C1081 C 0.60479 0.98905 0.3481 0.0
C1082 C 0.61315 0.93911 0.37697 0.0
C1083 C 0.60092 0.89321 0.36823 0.0
C1084 C 0.58955 0.89606 0.34956 0.0
C1085 C 0.5915 0.94412 0.33972 0.0
C1086 C 0.62524 0.93791 0.3969 0.0
C1087 C 0.57648 0.84789 0.33976 0.0
H1088 H 0.65326 0.7417 0.38831 0.0
H1089 H 0.56124 0.76843 0.41007 0.0
H1090 H 0.64843 0.83257 0.35059 0.0
H1091 H 0.667 0.86325 0.37031 0.0
H1092 H 0.67518 0.79495 0.365 0.0
H1093 H 0.52932 0.83843 0.39968 0.0
H1094 H 0.55305 0.8971 0.39787 0.0
H1095 H 0.53799 0.86668 0.37708 0.0
H1096 H 0.62518 0.0211 0.37335 0.0
H1097 H 0.58357 0.94603 0.32528 0.0
H1098 H 0.646 0.91168 0.39783 0.0
H1099 H 0.60723 0.92142 0.40636 0.0
H1100 H 0.63198 0.97782 0.40206 0.0
H1101 H 0.59532 0.81823 0.33786 0.0
H1102 H 0.56636 0.85759 0.3258 0.0
H1103 H 0.55815 0.82912 0.34843 0.0
C1104 C 0.38311 0.17874 0.15595 0.0
C1105 C 0.36498 0.2229 0.15111 0.0
C1106 C 0.38148 0.13189 0.14545 0.0
C1107 C 0.36207 0.12978 0.12932 0.0
C1108 C 0.34353 0.17426 0.12442 0.0
C1109 C 0.34482 0.2201 0.1356 0.0
C1110 C 0.40092 0.08492 0.1515 0.0
C1111 C 0.32327 0.17412 0.10702 0.0
C1112 C 0.38811 0.03009 0.09281 0.0
C1113 C 0.36655 0.98904 0.09528 0.0
C1114 C 0.38612 0.0769 0.1033 0.0
C1115 C 0.36265 0.082 0.11708 0.0
C1116 C 0.34084 0.04048 0.11968 0.0
C1117 C 0.34272 0.99478 0.10848 0.0
C1118 C 0.40926 0.12078 0.09969 0.0
C1119 C 0.31613 0.04369 0.13463 0.0
H1120 H 0.39848 0.18074 0.16808 0.0
H1121 H 0.33093 0.25441 0.13181 0.0
H1122 H 0.38606 0.04905 0.15242 0.0
H1123 H 0.41919 0.07688 0.14092 0.0
H1124 H 0.41254 0.0914 0.16528 0.0
H1125 H 0.30959 0.21125 0.10547 0.0
H1126 H 0.33816 0.16916 0.09447 0.0
H1127 H 0.30684 0.14023 0.10731 0.0
H1128 H 0.40632 0.02592 0.08242 0.0
H1129 H 0.3261 0.9629 0.11042 0.0
H1130 H 0.42441 0.12656 0.1122 0.0
H1131 H 0.39673 0.15858 0.09713 0.0
H1132 H 0.42441 0.11231 0.08747 0.0
H1133 H 0.32746 0.04735 0.14861 0.0
H1134 H 0.30068 0.00838 0.13468 0.0
H1135 H 0.30151 0.07947 0.13254 0.0
C1136 C 0.41579 0.52372 0.15216 0.0
C1137 C 0.39428 0.48441 0.14694 0.0
C1138 C 0.41809 0.57113 0.14197 0.0
C1139 C 0.39852 0.57922 0.12613 0.0
C1140 C 0.37776 0.53866 0.12034 0.0
C1141 C 0.37584 0.49183 0.13084 0.0
C1142 C 0.44049 0.61342 0.1486 0.0
C1143 C 0.35667 0.54552 0.10345 0.0
C1144 C 0.37417 0.71794 0.11173 0.0
C1145 C 0.39282 0.72679 0.09597 0.0
C1146 C 0.3766 0.67081 0.12203 0.0
C1147 C 0.39803 0.63132 0.11636 0.0
C1148 C 0.41761 0.64068 0.10078 0.0
C1149 C 0.41485 0.68844 0.09081 0.0
C1150 C 0.35549 0.66263 0.13866 0.0
C1151 C 0.44067 0.5995 0.09426 0.0
H1152 H 0.43009 0.51825 0.16461 0.0
H1153 H 0.35924 0.46154 0.12669 0.0
H1154 H 0.4553 0.62706 0.13686 0.0
H1155 H 0.42711 0.64819 0.15363 0.0
H1156 H 0.45589 0.59935 0.16017 0.0
H1157 H 0.34356 0.50882 0.09999 0.0
H1158 H 0.33959 0.57763 0.10615 0.0
H1159 H 0.37055 0.55733 0.09107 0.0
H1160 H 0.35718 0.74752 0.11583 0.0
H1161 H 0.42929 0.69503 0.07861 0.0
H1162 H 0.36953 0.6518 0.15122 0.0
H1163 H 0.33921 0.6294 0.13579 0.0
H1164 H 0.34151 0.69846 0.14195 0.0
H1165 H 0.45585 0.5867 0.10608 0.0
H1166 H 0.45569 0.61428 0.08276 0.0
H1167 H 0.42787 0.56403 0.08921 0.0
C1168 C 0.33613 0.69597 0.65933 0.0
C1169 C 0.35776 0.73548 0.65473 0.0
C1170 C 0.3337 0.64953 0.64857 0.0
C1171 C 0.35326 0.64272 0.63281 0.0
C1172 C 0.37431 0.68339 0.62774 0.0
C1173 C 0.37637 0.72916 0.63879 0.0
C1174 C 0.31105 0.60698 0.65444 0.0
C1175 C 0.39543 0.67784 0.61098 0.0
C1176 C 0.37708 0.50539 0.61696 0.0
C1177 C 0.35857 0.49833 0.60086 0.0
C1178 C 0.37478 0.55146 0.62781 0.0
C1179 C 0.35354 0.59168 0.62239 0.0
C1180 C 0.33414 0.58421 0.60643 0.0
C1181 C 0.33683 0.53747 0.59586 0.0
C1182 C 0.39577 0.55771 0.64478 0.0
C1183 C 0.31128 0.62627 0.6002 0.0
H1184 H 0.32167 0.7007 0.67163 0.0
H1185 H 0.393 0.75972 0.6351 0.0
H1186 H 0.29607 0.59506 0.64241 0.0
H1187 H 0.3242 0.57135 0.65902 0.0
H1188 H 0.29582 0.62001 0.66611 0.0
H1189 H 0.40889 0.71454 0.60818 0.0
H1190 H 0.4122 0.645 0.61339 0.0
H1191 H 0.3815 0.6678 0.5983 0.0
H1192 H 0.39382 0.47514 0.62096 0.0
H1193 H 0.32246 0.53218 0.58343 0.0
H1194 H 0.38166 0.56734 0.65731 0.0
H1195 H 0.41217 0.59108 0.64254 0.0
H1196 H 0.40963 0.52146 0.64775 0.0
H1197 H 0.29599 0.63788 0.612 0.0
H1198 H 0.29636 0.6129 0.5883 0.0
H1199 H 0.32422 0.66218 0.59582 0.0
C1200 C 0.4082 0.19564 0.59729 0.0
C1201 C 0.38647 0.23518 0.6017 0.0
C1202 C 0.41002 0.14887 0.60788 0.0
C1203 C 0.38984 0.14187 0.62333 0.0
C1204 C 0.36858 0.18247 0.62818 0.0
C1205 C 0.36704 0.2285 0.61725 0.0
C1206 C 0.43284 0.1063 0.6022 0.0
C1207 C 0.34689 0.17675 0.64467 0.0
C1208 C 0.36693 0.00418 0.63928 0.0
C1209 C 0.3856 0.99763 0.65534 0.0
C1210 C 0.36882 0.05028 0.62842 0.0
C1211 C 0.38966 0.09109 0.63386 0.0
C1212 C 0.40906 0.08426 0.64985 0.0
C1213 C 0.4069 0.03743 0.66036 0.0
C1214 C 0.34796 0.05583 0.61137 0.0
C1215 C 0.43138 0.12707 0.65615 0.0
H1216 H 0.42324 0.20062 0.58526 0.0
H1217 H 0.35032 0.25909 0.62078 0.0
H1218 H 0.44786 0.09505 0.61429 0.0
H1219 H 0.41984 0.07035 0.5978 0.0
H1220 H 0.44804 0.11901 0.59048 0.0
H1221 H 0.33309 0.21324 0.64726 0.0
H1222 H 0.33043 0.14357 0.64212 0.0
H1223 H 0.36045 0.16713 0.65753 0.0
H1224 H 0.35054 0.9734 0.63529 0.0
H1225 H 0.42134 0.03256 0.67278 0.0
H1226 H 0.36214 0.06557 0.59888 0.0
H1227 H 0.33128 0.08889 0.61348 0.0
H1228 H 0.33442 0.01923 0.60842 0.0
H1229 H 0.44699 0.13848 0.64449 0.0
H1230 H 0.44599 0.11452 0.66829 0.0
H1231 H 0.41802 0.16289 0.66019 0.0
loop_
_geom_bond_atom_site_label_1
_geom_bond_atom_site_label_2
_geom_bond_distance
_geom_bond_site_symmetry_2
_ccdc_geom_bond_type
In0 O1 2.294 . S
In0 O2 2.326 . S
In0 O6 2.266 . S
In0 O7 2.326 . S
In0 O8 2.266 . S
In0 O9 2.326 . S
In0 O11 2.294 . S
In0 O12 2.326 . S
O1 In0 2.294 . S
O1 C10 1.240 . S
O2 In0 2.326 . S
O2 C10 1.252 . S
C3 O6 1.252 . S
C3 O7 1.260 . S
C4 O11 1.240 . S
C4 O12 1.252 . S
C5 O8 1.252 . S
C5 O9 1.260 . S
O6 In0 2.266 . S
O6 C3 1.252 . S
O7 In0 2.326 . S
O7 C3 1.260 . S
O8 In0 2.266 . S
O8 C5 1.252 . S
O9 In0 2.326 . S
O9 C5 1.260 . S
C10 O1 1.240 . S
C10 O2 1.252 . S
O11 In0 2.294 . S
O11 C4 1.240 . S
O12 In0 2.326 . S
O12 C4 1.252 . S
In13 O14 2.294 . S
In13 O15 2.326 . S
In13 O19 2.266 . S
In13 O20 2.326 . S
In13 O21 2.266 . S
In13 O22 2.326 . S
In13 O24 2.294 . S
In13 O25 2.326 . S
O14 In13 2.294 . S
O14 C23 1.240 . S
O15 In13 2.326 . S
O15 C23 1.252 . S
C16 O19 1.252 . S
C16 O20 1.260 . S
C17 O24 1.240 . S
C17 O25 1.252 . S
C18 O21 1.252 . S
C18 O22 1.260 . S
O19 In13 2.266 . S
O19 C16 1.252 . S
O20 In13 2.326 . S
O20 C16 1.260 . S
O21 In13 2.266 . S
O21 C18 1.252 . S
O22 In13 2.326 . S
O22 C18 1.260 . S
C23 O14 1.240 . S
C23 O15 1.252 . S
O24 In13 2.294 . S
O24 C17 1.240 . S
O25 In13 2.326 . S
O25 C17 1.252 . S
In26 O27 2.294 . S
In26 O28 2.326 . S
In26 O32 2.266 . S
In26 O33 2.326 . S
In26 O34 2.266 . S
In26 O35 2.326 . S
In26 O37 2.294 . S
In26 O38 2.326 . S
O27 In26 2.294 . S
O27 C36 1.240 . S
O28 In26 2.326 . S
O28 C36 1.252 . S
C29 O32 1.252 . S
C29 O33 1.260 . S
C30 O37 1.240 . S
C30 O38 1.252 . S
C31 O34 1.252 . S
C31 O35 1.260 . S
O32 In26 2.266 . S
O32 C29 1.252 . S
O33 In26 2.326 . S
O33 C29 1.260 . S
O34 In26 2.266 . S
O34 C31 1.252 . S
O35 In26 2.326 . S
O35 C31 1.260 . S
C36 O27 1.240 . S
C36 O28 1.252 . S
O37 In26 2.294 . S
O37 C30 1.240 . S
O38 In26 2.326 . S
O38 C30 1.252 . S
In39 O40 2.294 . S
In39 O41 2.326 . S
In39 O45 2.266 . S
In39 O46 2.326 . S
In39 O47 2.266 . S
In39 O48 2.326 . S
In39 O50 2.294 . S
In39 O51 2.326 . S
O40 In39 2.294 . S
O40 C49 1.240 . S
O41 In39 2.326 . S
O41 C49 1.252 . S
C42 O45 1.252 . S
C42 O46 1.260 . S
C43 O50 1.240 . S
C43 O51 1.252 . S
C44 O47 1.252 . S
C44 O48 1.260 . S
O45 In39 2.266 . S
O45 C42 1.252 . S
O46 In39 2.326 . S
O46 C42 1.260 . S
O47 In39 2.266 . S
O47 C44 1.252 . S
O48 In39 2.326 . S
O48 C44 1.260 . S
C49 O40 1.240 . S
C49 O41 1.252 . S
O50 In39 2.294 . S
O50 C43 1.240 . S
O51 In39 2.326 . S
O51 C43 1.252 . S
In52 O53 2.294 . S
In52 O54 2.326 . S
In52 O58 2.266 . S
In52 O59 2.326 . S
In52 O60 2.266 . S
In52 O61 2.326 . S
In52 O63 2.294 . S
In52 O64 2.326 . S
O53 In52 2.294 . S
O53 C62 1.240 . S
O54 In52 2.326 . S
O54 C62 1.252 . S
C55 O58 1.252 . S
C55 O59 1.260 . S
C56 O63 1.240 . S
C56 O64 1.252 . S
C57 O60 1.252 . S
C57 O61 1.260 . S
O58 In52 2.266 . S
O58 C55 1.252 . S
O59 In52 2.326 . S
O59 C55 1.260 . S
O60 In52 2.266 . S
O60 C57 1.252 . S
O61 In52 2.326 . S
O61 C57 1.260 . S
C62 O53 1.240 . S
C62 O54 1.252 . S
O63 In52 2.294 . S
O63 C56 1.240 . S
O64 In52 2.326 . S
O64 C56 1.252 . S
In65 O66 2.294 . S
In65 O67 2.326 . S
In65 O71 2.266 . S
In65 O72 2.326 . S
In65 O73 2.266 . S
In65 O74 2.326 . S
In65 O76 2.294 . S
In65 O77 2.326 . S
O66 In65 2.294 . S
O66 C75 1.240 . S
O67 In65 2.326 . S
O67 C75 1.252 . S
C68 O71 1.252 . S
C68 O72 1.260 . S
C69 O76 1.240 . S
C69 O77 1.252 . S
C70 O73 1.252 . S
C70 O74 1.260 . S
O71 In65 2.266 . S
O71 C68 1.252 . S
O72 In65 2.326 . S
O72 C68 1.260 . S
O73 In65 2.266 . S
O73 C70 1.252 . S
O74 In65 2.326 . S
O74 C70 1.260 . S
C75 O66 1.240 . S
C75 O67 1.252 . S
O76 In65 2.294 . S
O76 C69 1.240 . S
O77 In65 2.326 . S
O77 C69 1.252 . S
In78 O79 2.294 . S
In78 O80 2.326 . S
In78 O84 2.266 . S
In78 O85 2.326 . S
In78 O86 2.266 . S
In78 O87 2.326 . S
In78 O89 2.294 . S
In78 O90 2.326 . S
O79 In78 2.294 . S
O79 C88 1.240 . S
O80 In78 2.326 . S
O80 C88 1.252 . S
C81 O84 1.252 . S
C81 O85 1.260 . S
C82 O89 1.240 . S
C82 O90 1.252 . S
C83 O86 1.252 . S
C83 O87 1.260 . S
O84 In78 2.266 . S
O84 C81 1.252 . S
O85 In78 2.326 . S
O85 C81 1.260 . S
O86 In78 2.266 . S
O86 C83 1.252 . S
O87 In78 2.326 . S
O87 C83 1.260 . S
C88 O79 1.240 . S
C88 O80 1.252 . S
O89 In78 2.294 . S
O89 C82 1.240 . S
O90 In78 2.326 . S
O90 C82 1.252 . S
In91 O92 2.294 . S
In91 O93 2.326 . S
In91 O97 2.266 . S
In91 O98 2.326 . S
In91 O99 2.266 . S
In91 O100 2.326 . S
In91 O102 2.294 . S
In91 O103 2.326 . S
O92 In91 2.294 . S
O92 C101 1.240 . S
O93 In91 2.326 . S
O93 C101 1.252 . S
C94 O97 1.252 . S
C94 O98 1.260 . S
C95 O102 1.240 . S
C95 O103 1.252 . S
C96 O99 1.252 . S
C96 O100 1.260 . S
O97 In91 2.266 . S
O97 C94 1.252 . S
O98 In91 2.326 . S
O98 C94 1.260 . S
O99 In91 2.266 . S
O99 C96 1.252 . S
O100 In91 2.326 . S
O100 C96 1.260 . S
C101 O92 1.240 . S
C101 O93 1.252 . S
O102 In91 2.294 . S
O102 C95 1.240 . S
O103 In91 2.326 . S
O103 C95 1.252 . S
In104 O105 2.294 . S
In104 O106 2.326 . S
In104 O110 2.266 . S
In104 O111 2.326 . S
In104 O112 2.266 . S
In104 O113 2.326 . S
In104 O115 2.294 . S
In104 O116 2.326 . S
O105 In104 2.294 . S
O105 C114 1.240 . S
O106 In104 2.326 . S
O106 C114 1.252 . S
C107 O110 1.252 . S
C107 O111 1.260 . S
C108 O115 1.240 . S
C108 O116 1.252 . S
C109 O112 1.252 . S
C109 O113 1.260 . S
O110 In104 2.266 . S
O110 C107 1.252 . S
O111 In104 2.326 . S
O111 C107 1.260 . S
O112 In104 2.266 . S
O112 C109 1.252 . S
O113 In104 2.326 . S
O113 C109 1.260 . S
C114 O105 1.240 . S
C114 O106 1.252 . S
O115 In104 2.294 . S
O115 C108 1.240 . S
O116 In104 2.326 . S
O116 C108 1.252 . S
In117 O118 2.294 . S
In117 O119 2.326 . S
In117 O123 2.266 . S
In117 O124 2.326 . S
In117 O125 2.266 . S
In117 O126 2.326 . S
In117 O128 2.294 . S
In117 O129 2.326 . S
O118 In117 2.294 . S
O118 C127 1.240 . S
O119 In117 2.326 . S
O119 C127 1.252 . S
C120 O123 1.252 . S
C120 O124 1.260 . S
C121 O128 1.240 . S
C121 O129 1.252 . S
C122 O125 1.252 . S
C122 O126 1.260 . S
O123 In117 2.266 . S
O123 C120 1.252 . S
O124 In117 2.326 . S
O124 C120 1.260 . S
O125 In117 2.266 . S
O125 C122 1.252 . S
O126 In117 2.326 . S
O126 C122 1.260 . S
C127 O118 1.240 . S
C127 O119 1.252 . S
O128 In117 2.294 . S
O128 C121 1.240 . S
O129 In117 2.326 . S
O129 C121 1.252 . S
In130 O131 2.294 . S
In130 O132 2.326 . S
In130 O136 2.266 . S
In130 O137 2.326 . S
In130 O138 2.266 . S
In130 O139 2.326 . S
In130 O141 2.294 . S
In130 O142 2.326 . S
O131 In130 2.294 . S
O131 C140 1.240 . S
O132 In130 2.326 . S
O132 C140 1.252 . S
C133 O136 1.252 . S
C133 O137 1.260 . S
C134 O141 1.240 . S
C134 O142 1.252 . S
C135 O138 1.252 . S
C135 O139 1.260 . S
O136 In130 2.266 . S
O136 C133 1.252 . S
O137 In130 2.326 . S
O137 C133 1.260 . S
O138 In130 2.266 . S
O138 C135 1.252 . S
O139 In130 2.326 . S
O139 C135 1.260 . S
C140 O131 1.240 . S
C140 O132 1.252 . S
O141 In130 2.294 . S
O141 C134 1.240 . S
O142 In130 2.326 . S
O142 C134 1.252 . S
In143 O144 2.294 . S
In143 O145 2.326 . S
In143 O149 2.266 . S
In143 O150 2.326 . S
In143 O151 2.266 . S
In143 O152 2.326 . S
In143 O154 2.294 . S
In143 O155 2.326 . S
O144 In143 2.294 . S
O144 C153 1.240 . S
O145 In143 2.326 . S
O145 C153 1.252 . S
C146 O149 1.252 . S
C146 O150 1.260 . S
C147 O154 1.240 . S
C147 O155 1.252 . S
C148 O151 1.252 . S
C148 O152 1.260 . S
O149 In143 2.266 . S
O149 C146 1.252 . S
O150 In143 2.326 . S
O150 C146 1.260 . S
O151 In143 2.266 . S
O151 C148 1.252 . S
O152 In143 2.326 . S
O152 C148 1.260 . S
C153 O144 1.240 . S
C153 O145 1.252 . S
O154 In143 2.294 . S
O154 C147 1.240 . S
O155 In143 2.326 . S
O155 C147 1.252 . S
In156 O157 2.294 . S
In156 O158 2.326 . S
In156 O162 2.266 . S
In156 O163 2.326 . S
In156 O164 2.266 . S
In156 O165 2.326 . S
In156 O167 2.294 . S
In156 O168 2.326 . S
O157 In156 2.294 . S
O157 C166 1.240 . S
O158 In156 2.326 . S
O158 C166 1.252 . S
C159 O162 1.252 . S
C159 O163 1.260 . S
C160 O167 1.240 . S
C160 O168 1.252 . S
C161 O164 1.252 . S
C161 O165 1.260 . S
O162 In156 2.266 . S
O162 C159 1.252 . S
O163 In156 2.326 . S
O163 C159 1.260 . S
O164 In156 2.266 . S
O164 C161 1.252 . S
O165 In156 2.326 . S
O165 C161 1.260 . S
C166 O157 1.240 . S
C166 O158 1.252 . S
O167 In156 2.294 . S
O167 C160 1.240 . S
O168 In156 2.326 . S
O168 C160 1.252 . S
In169 O170 2.294 . S
In169 O171 2.326 . S
In169 O175 2.266 . S
In169 O176 2.326 . S
In169 O177 2.266 . S
In169 O178 2.326 . S
In169 O180 2.294 . S
In169 O181 2.326 . S
O170 In169 2.294 . S
O170 C179 1.240 . S
O171 In169 2.326 . S
O171 C179 1.252 . S
C172 O175 1.252 . S
C172 O176 1.260 . S
C173 O180 1.240 . S
C173 O181 1.252 . S
C174 O177 1.252 . S
C174 O178 1.260 . S
O175 In169 2.266 . S
O175 C172 1.252 . S
O176 In169 2.326 . S
O176 C172 1.260 . S
O177 In169 2.266 . S
O177 C174 1.252 . S
O178 In169 2.326 . S
O178 C174 1.260 . S
C179 O170 1.240 . S
C179 O171 1.252 . S
O180 In169 2.294 . S
O180 C173 1.240 . S
O181 In169 2.326 . S
O181 C173 1.252 . S
In182 O183 2.294 . S
In182 O184 2.326 . S
In182 O188 2.266 . S
In182 O189 2.326 . S
In182 O190 2.266 . S
In182 O191 2.326 . S
In182 O193 2.294 . S
In182 O194 2.326 . S
O183 In182 2.294 . S
O183 C192 1.240 . S
O184 In182 2.326 . S
O184 C192 1.252 . S
C185 O188 1.252 . S
C185 O189 1.260 . S
C186 O193 1.240 . S
C186 O194 1.252 . S
C187 O190 1.252 . S
C187 O191 1.260 . S
O188 In182 2.266 . S
O188 C185 1.252 . S
O189 In182 2.326 . S
O189 C185 1.260 . S
O190 In182 2.266 . S
O190 C187 1.252 . S
O191 In182 2.326 . S
O191 C187 1.260 . S
C192 O183 1.240 . S
C192 O184 1.252 . S
O193 In182 2.294 . S
O193 C186 1.240 . S
O194 In182 2.326 . S
O194 C186 1.252 . S
In195 O196 2.294 . S
In195 O197 2.326 . S
In195 O201 2.266 . S
In195 O202 2.326 . S
In195 O203 2.266 . S
In195 O204 2.326 . S
In195 O206 2.294 . S
In195 O207 2.326 . S
O196 In195 2.294 . S
O196 C205 1.240 . S
O197 In195 2.326 . S
O197 C205 1.252 . S
C198 O201 1.252 . S
C198 O202 1.260 . S
C199 O206 1.240 . S
C199 O207 1.252 . S
C200 O203 1.252 . S
C200 O204 1.260 . S
O201 In195 2.266 . S
O201 C198 1.252 . S
O202 In195 2.326 . S
O202 C198 1.260 . S
O203 In195 2.266 . S
O203 C200 1.252 . S
O204 In195 2.326 . S
O204 C200 1.260 . S
C205 O196 1.240 . S
C205 O197 1.252 . S
O206 In195 2.294 . S
O206 C199 1.240 . S
O207 In195 2.326 . S
O207 C199 1.252 . S
C208 C209 1.391 . S
C208 C210 1.394 . S
C208 H224 0.931 . S
C209 C208 1.391 . S
C209 C213 1.376 . S
C210 C208 1.394 . S
C210 C211 1.369 . S
C210 C214 1.531 . S
C211 C210 1.369 . S
C211 C212 1.410 . S
C211 C219 1.503 . S
C212 C211 1.410 . S
C212 C213 1.392 . S
C212 C215 1.511 . S
C213 C209 1.376 . S
C213 C212 1.392 . S
C213 H225 0.929 . S
C214 C210 1.531 . S
C214 H226 0.960 . S
C214 H227 0.962 . S
C214 H228 0.960 . S
C215 C212 1.511 . S
C215 H229 0.961 . S
C215 H230 0.961 . S
C215 H231 0.961 . S
C216 C217 1.370 . S
C216 C218 1.363 . S
C216 H232 0.931 . S
C217 C216 1.370 . S
C217 C221 1.408 . S
C218 C216 1.363 . S
C218 C219 1.370 . S
C218 C222 1.524 . S
C219 C211 1.503 . S
C219 C218 1.370 . S
C219 C220 1.403 . S
C220 C219 1.403 . S
C220 C221 1.404 . S
C220 C223 1.539 . S
C221 C217 1.408 . S
C221 C220 1.404 . S
C221 H233 0.930 . S
C222 C218 1.524 . S
C222 H234 0.956 . S
C222 H235 0.961 . S
C222 H236 0.961 . S
C223 C220 1.539 . S
C223 H237 0.958 . S
C223 H238 0.961 . S
C223 H239 0.960 . S
H224 C208 0.931 . S
H225 C213 0.929 . S
H226 C214 0.960 . S
H227 C214 0.962 . S
H228 C214 0.960 . S
H229 C215 0.961 . S
H230 C215 0.961 . S
H231 C215 0.961 . S
H232 C216 0.931 . S
H233 C221 0.930 . S
H234 C222 0.956 . S
H235 C222 0.961 . S
H236 C222 0.961 . S
H237 C223 0.958 . S
H238 C223 0.961 . S
H239 C223 0.960 . S
C240 C241 1.391 . S
C240 C242 1.394 . S
C240 H256 0.931 . S
C241 C240 1.391 . S
C241 C245 1.376 . S
C242 C240 1.394 . S
C242 C243 1.369 . S
C242 C246 1.531 1_655 S
C243 C242 1.369 . S
C243 C244 1.410 1_565 S
C243 C251 1.503 1_665 S
C244 C243 1.410 1_545 S
C244 C245 1.392 1_545 S
C244 C247 1.511 . S
C245 C241 1.376 . S
C245 C244 1.392 1_565 S
C245 H257 0.929 1_565 S
C246 C242 1.531 1_455 S
C246 H258 0.960 . S
C246 H259 0.962 . S
C246 H260 0.960 . S
C247 C244 1.511 . S
C247 H261 0.961 . S
C247 H262 0.961 . S
C247 H263 0.961 . S
C248 C249 1.370 . S
C248 C250 1.363 . S
C248 H264 0.931 . S
C249 C248 1.370 . S
C249 C253 1.408 . S
C250 C248 1.363 . S
C250 C251 1.370 . S
C250 C254 1.524 . S
C251 C243 1.503 1_445 S
C251 C250 1.370 . S
C251 C252 1.403 1_545 S
C252 C251 1.403 1_565 S
C252 C253 1.404 1_565 S
C252 C255 1.539 1_455 S
C253 C249 1.408 . S
C253 C252 1.404 1_545 S
C253 H265 0.930 . S
C254 C250 1.524 . S
C254 H266 0.956 . S
C254 H267 0.961 . S
C254 H268 0.961 . S
C255 C252 1.539 1_655 S
C255 H269 0.958 . S
C255 H270 0.961 . S
C255 H271 0.960 . S
H256 C240 0.931 . S
H257 C245 0.929 1_545 S
H258 C246 0.960 . S
H259 C246 0.962 . S
H260 C246 0.960 . S
H261 C247 0.961 . S
H262 C247 0.961 . S
H263 C247 0.961 . S
H264 C248 0.931 . S
H265 C253 0.930 . S
H266 C254 0.956 . S
H267 C254 0.961 . S
H268 C254 0.961 . S
H269 C255 0.958 . S
H270 C255 0.961 . S
H271 C255 0.960 . S
C272 C273 1.385 1_545 S
C272 C274 1.396 . S
C272 H288 0.934 . S
C273 C272 1.385 1_565 S
C273 C277 1.376 . S
C274 C272 1.396 . S
C274 C275 1.369 1_545 S
C274 C278 1.531 . S
C275 C274 1.369 1_565 S
C275 C276 1.410 . S
C275 C283 1.503 1_565 S
C276 C275 1.410 . S
C276 C277 1.392 . S
C276 C279 1.511 . S
C277 C273 1.376 . S
C277 C276 1.392 . S
C277 H289 0.929 . S
C278 C274 1.531 . S
C278 H290 0.960 . S
C278 H291 0.962 . S
C278 H292 0.960 . S
C279 C276 1.511 . S
C279 H293 0.961 . S
C279 H294 0.961 . S
C279 H295 0.961 . S
C280 C281 1.370 . S
C280 C282 1.363 . S
C280 H296 0.931 . S
C281 C280 1.370 . S
C281 C285 1.408 . S
C282 C280 1.363 . S
C282 C283 1.370 . S
C282 C286 1.524 1_545 S
C283 C275 1.503 1_545 S
C283 C282 1.370 . S
C283 C284 1.403 . S
C284 C283 1.403 . S
C284 C285 1.404 . S
C284 C287 1.539 . S
C285 C281 1.408 . S
C285 C284 1.404 . S
C285 H297 0.930 . S
C286 C282 1.524 1_565 S
C286 H298 0.956 . S
C286 H299 0.961 . S
C286 H300 0.961 . S
C287 C284 1.539 . S
C287 H301 0.958 . S
C287 H302 0.961 . S
C287 H303 0.960 . S
H288 C272 0.934 . S
H289 C277 0.929 . S
H290 C278 0.960 . S
H291 C278 0.962 . S
H292 C278 0.960 . S
H293 C279 0.961 . S
H294 C279 0.961 . S
H295 C279 0.961 . S
H296 C280 0.931 . S
H297 C285 0.930 . S
H298 C286 0.956 . S
H299 C286 0.961 . S
H300 C286 0.961 . S
H301 C287 0.958 . S
H302 C287 0.961 . S
H303 C287 0.960 . S
C304 C305 1.391 . S
C304 C306 1.394 . S
C304 H320 0.931 . S
C305 C304 1.391 . S
C305 C309 1.376 . S
C306 C304 1.394 . S
C306 C307 1.369 . S
C306 C310 1.531 . S
C307 C306 1.369 . S
C307 C308 1.410 . S
C307 C315 1.503 1_455 S
C308 C307 1.410 . S
C308 C309 1.392 . S
C308 C311 1.516 . S
C309 C305 1.376 . S
C309 C308 1.392 . S
C309 H321 0.929 . S
C310 C306 1.531 . S
C310 H322 0.960 1_455 S
C310 H323 0.962 . S
C310 H324 0.960 . S
C311 C308 1.516 . S
C311 H325 0.968 . S
C311 H326 0.958 1_455 S
C311 H327 0.952 1_455 S
C312 C313 1.370 . S
C312 C314 1.363 . S
C312 H328 0.931 . S
C313 C312 1.370 . S
C313 C317 1.408 . S
C314 C312 1.363 . S
C314 C315 1.370 . S
C314 C318 1.524 1_655 S
C315 C307 1.503 1_655 S
C315 C314 1.370 . S
C315 C316 1.403 . S
C316 C315 1.403 . S
C316 C317 1.404 . S
C316 C319 1.539 . S
C317 C313 1.408 . S
C317 C316 1.404 . S
C317 H329 0.930 . S
C318 C314 1.524 1_455 S
C318 H330 0.956 . S
C318 H331 0.961 . S
C318 H332 0.961 . S
C319 C316 1.539 . S
C319 H333 0.958 . S
C319 H334 0.961 . S
C319 H335 0.960 . S
H320 C304 0.931 . S
H321 C309 0.929 . S
H322 C310 0.960 1_655 S
H323 C310 0.962 . S
H324 C310 0.960 . S
H325 C311 0.968 . S
H326 C311 0.958 1_655 S
H327 C311 0.952 1_655 S
H328 C312 0.931 . S
H329 C317 0.930 . S
H330 C318 0.956 . S
H331 C318 0.961 . S
H332 C318 0.961 . S
H333 C319 0.958 . S
H334 C319 0.961 . S
H335 C319 0.960 . S
C336 C337 1.391 . S
C336 C338 1.394 . S
C336 H352 0.931 . S
C337 C336 1.391 . S
C337 C341 1.376 . S
C338 C336 1.394 . S
C338 C339 1.369 . S
C338 C342 1.531 . S
C339 C338 1.369 . S
C339 C340 1.410 . S
C339 C347 1.503 . S
C340 C339 1.410 . S
C340 C341 1.392 . S
C340 C343 1.511 . S
C341 C337 1.376 . S
C341 C340 1.392 . S
C341 H353 0.929 . S
C342 C338 1.531 . S
C342 H354 0.960 . S
C342 H355 0.962 . S
C342 H356 0.960 . S
C343 C340 1.511 . S
C343 H357 0.961 . S
C343 H358 0.961 . S
C343 H359 0.961 . S
C344 C345 1.370 . S
C344 C346 1.363 . S
C344 H360 0.931 . S
C345 C344 1.370 . S
C345 C349 1.408 . S
C346 C344 1.363 . S
C346 C347 1.370 . S
C346 C350 1.524 . S
C347 C339 1.503 . S
C347 C346 1.370 . S
C347 C348 1.403 . S
C348 C347 1.403 . S
C348 C349 1.404 . S
C348 C351 1.539 . S
C349 C345 1.408 . S
C349 C348 1.404 . S
C349 H361 0.930 . S
C350 C346 1.524 . S
C350 H362 0.956 . S
C350 H363 0.961 . S
C350 H364 0.961 . S
C351 C348 1.539 . S
C351 H365 0.958 . S
C351 H366 0.961 . S
C351 H367 0.960 . S
H352 C336 0.931 . S
H353 C341 0.929 . S
H354 C342 0.960 . S
H355 C342 0.962 . S
H356 C342 0.960 . S
H357 C343 0.961 . S
H358 C343 0.961 . S
H359 C343 0.961 . S
H360 C344 0.931 . S
H361 C349 0.930 . S
H362 C350 0.956 . S
H363 C350 0.961 . S
H364 C350 0.961 . S
H365 C351 0.958 . S
H366 C351 0.961 . S
H367 C351 0.960 . S
C368 C369 1.391 . S
C368 C370 1.394 . S
C368 H384 0.931 . S
C369 C368 1.391 . S
C369 C373 1.376 . S
C370 C368 1.394 . S
C370 C371 1.369 . S
C370 C374 1.531 . S
C371 C370 1.369 . S
C371 C372 1.410 1_545 S
C371 C379 1.503 1_545 S
C372 C371 1.410 1_565 S
C372 C373 1.392 1_565 S
C372 C375 1.511 . S
C373 C369 1.376 . S
C373 C372 1.392 1_545 S
C373 H385 0.929 1_545 S
C374 C370 1.531 . S
C374 H386 0.960 . S
C374 H387 0.962 . S
C374 H388 0.960 . S
C375 C372 1.511 . S
C375 H389 0.961 . S
C375 H390 0.961 . S
C375 H391 0.961 . S
C376 C377 1.370 . S
C376 C378 1.363 . S
C376 H392 0.931 . S
C377 C376 1.370 . S
C377 C381 1.408 . S
C378 C376 1.363 . S
C378 C379 1.370 . S
C378 C382 1.524 . S
C379 C371 1.503 1_565 S
C379 C378 1.370 . S
C379 C380 1.403 . S
C380 C379 1.403 . S
C380 C381 1.404 . S
C380 C383 1.539 1_565 S
C381 C377 1.408 . S
C381 C380 1.404 . S
C381 H393 0.930 . S
C382 C378 1.524 . S
C382 H394 0.956 . S
C382 H395 0.961 . S
C382 H396 0.961 . S
C383 C380 1.539 1_545 S
C383 H397 0.958 . S
C383 H398 0.961 . S
C383 H399 0.960 . S
H384 C368 0.931 . S
H385 C373 0.929 1_565 S
H386 C374 0.960 . S
H387 C374 0.962 . S
H388 C374 0.960 . S
H389 C375 0.961 . S
H390 C375 0.961 . S
H391 C375 0.961 . S
H392 C376 0.931 . S
H393 C381 0.930 . S
H394 C382 0.956 . S
H395 C382 0.961 . S
H396 C382 0.961 . S
H397 C383 0.958 . S
H398 C383 0.961 . S
H399 C383 0.960 . S
C400 C401 1.391 . S
C400 C402 1.394 . S
C400 H416 0.931 . S
C401 C400 1.391 . S
C401 C405 1.376 . S
C402 C400 1.394 . S
C402 C403 1.369 . S
C402 C406 1.531 1_655 S
C403 C402 1.369 . S
C403 C404 1.410 . S
C403 C411 1.503 1_655 S
C404 C403 1.410 . S
C404 C405 1.392 . S
C404 C407 1.511 . S
C405 C401 1.376 . S
C405 C404 1.392 . S
C405 H417 0.929 . S
C406 C402 1.531 1_455 S
C406 H418 0.960 . S
C406 H419 0.962 . S
C406 H420 0.960 . S
C407 C404 1.511 . S
C407 H421 0.961 . S
C407 H422 0.961 . S
C407 H423 0.961 . S
C408 C409 1.370 . S
C408 C410 1.363 . S
C408 H424 0.931 . S
C409 C408 1.370 . S
C409 C413 1.408 . S
C410 C408 1.363 . S
C410 C411 1.370 . S
C410 C414 1.524 1_455 S
C411 C403 1.503 1_455 S
C411 C410 1.370 . S
C411 C412 1.403 . S
C412 C411 1.403 . S
C412 C413 1.404 . S
C412 C415 1.539 . S
C413 C409 1.408 . S
C413 C412 1.404 . S
C413 H425 0.930 . S
C414 C410 1.524 1_655 S
C414 H426 0.956 . S
C414 H427 0.961 . S
C414 H428 0.961 . S
C415 C412 1.539 . S
C415 H429 0.958 . S
C415 H430 0.961 . S
C415 H431 0.960 . S
H416 C400 0.931 . S
H417 C405 0.929 . S
H418 C406 0.960 . S
H419 C406 0.962 . S
H420 C406 0.960 . S
H421 C407 0.961 . S
H422 C407 0.961 . S
H423 C407 0.961 . S
H424 C408 0.931 . S
H425 C413 0.930 . S
H426 C414 0.956 . S
H427 C414 0.961 . S
H428 C414 0.961 . S
H429 C415 0.958 . S
H430 C415 0.961 . S
H431 C415 0.960 . S
C432 C433 1.391 . S
C432 C434 1.394 . S
C432 H448 0.931 . S
C433 C432 1.391 . S
C433 C437 1.376 . S
C434 C432 1.394 . S
C434 C435 1.369 . S
C434 C438 1.531 1_554 S
C435 C434 1.369 . S
C435 C436 1.410 . S
C435 C443 1.503 1_554 S
C436 C435 1.410 . S
C436 C437 1.392 . S
C436 C439 1.511 . S
C437 C433 1.376 . S
C437 C436 1.392 . S
C437 H449 0.929 . S
C438 C434 1.531 1_556 S
C438 H450 0.960 . S
C438 H451 0.962 . S
C438 H452 0.960 . S
C439 C436 1.511 . S
C439 H453 0.961 . S
C439 H454 0.961 . S
C439 H455 0.961 . S
C440 C441 1.370 . S
C440 C442 1.363 . S
C440 H456 0.931 . S
C441 C440 1.370 . S
C441 C445 1.408 . S
C442 C440 1.363 . S
C442 C443 1.370 . S
C442 C446 1.524 . S
C443 C435 1.503 1_556 S
C443 C442 1.370 . S
C443 C444 1.409 . S
C444 C443 1.409 . S
C444 C445 1.425 . S
C444 C447 1.511 1_556 S
C445 C441 1.408 . S
C445 C444 1.425 . S
C445 H457 0.930 . S
C446 C442 1.524 . S
C446 H458 0.956 . S
C446 H459 0.961 . S
C446 H460 0.961 . S
C447 C444 1.511 1_554 S
C447 H461 0.958 . S
C447 H462 0.961 . S
C447 H463 0.960 . S
H448 C432 0.931 . S
H449 C437 0.929 . S
H450 C438 0.960 . S
H451 C438 0.962 . S
H452 C438 0.960 . S
H453 C439 0.961 . S
H454 C439 0.961 . S
H455 C439 0.961 . S
H456 C440 0.931 . S
H457 C445 0.930 . S
H458 C446 0.956 . S
H459 C446 0.961 . S
H460 C446 0.961 . S
H461 C447 0.958 . S
H462 C447 0.961 . S
H463 C447 0.960 . S
C464 C465 1.391 . S
C464 C466 1.394 . S
C464 H480 0.931 . S
C465 C464 1.391 . S
C465 C469 1.376 . S
C466 C464 1.394 . S
C466 C467 1.369 . S
C466 C470 1.531 . S
C467 C466 1.369 . S
C467 C468 1.410 1_556 S
C467 C475 1.503 1_456 S
C468 C467 1.410 1_554 S
C468 C469 1.392 1_554 S
C468 C471 1.511 . S
C469 C465 1.376 . S
C469 C468 1.392 1_556 S
C469 H481 0.929 . S
C470 C466 1.531 . S
C470 H482 0.960 . S
C470 H483 0.962 1_455 S
C470 H484 0.960 . S
C471 C468 1.511 . S
C471 H485 0.961 . S
C471 H486 0.961 . S
C471 H487 0.961 . S
C472 C473 1.370 . S
C472 C474 1.363 . S
C472 H488 0.931 . S
C473 C472 1.370 . S
C473 C477 1.408 . S
C474 C472 1.363 . S
C474 C475 1.370 . S
C474 C478 1.524 1_554 S
C475 C467 1.503 1_654 S
C475 C474 1.370 . S
C475 C476 1.403 . S
C476 C475 1.403 . S
C476 C477 1.404 . S
C476 C479 1.539 1_655 S
C477 C473 1.408 . S
C477 C476 1.404 . S
C477 H489 0.930 . S
C478 C474 1.524 1_556 S
C478 H490 0.956 . S
C478 H491 0.961 . S
C478 H492 0.961 . S
C479 C476 1.539 1_455 S
C479 H493 0.958 . S
C479 H494 0.961 . S
C479 H495 0.960 . S
H480 C464 0.931 . S
H481 C469 0.929 . S
H482 C470 0.960 . S
H483 C470 0.962 1_655 S
H484 C470 0.960 . S
H485 C471 0.961 . S
H486 C471 0.961 . S
H487 C471 0.961 . S
H488 C472 0.931 . S
H489 C477 0.930 . S
H490 C478 0.956 . S
H491 C478 0.961 . S
H492 C478 0.961 . S
H493 C479 0.958 . S
H494 C479 0.961 . S
H495 C479 0.960 . S
C496 C497 1.391 . S
C496 C498 1.394 . S
C496 H512 0.931 . S
C497 C496 1.391 . S
C497 C501 1.376 . S
C498 C496 1.394 . S
C498 C499 1.369 . S
C498 C502 1.531 . S
C499 C498 1.369 . S
C499 C500 1.410 . S
C499 C507 1.503 . S
C500 C499 1.410 . S
C500 C501 1.392 . S
C500 C503 1.511 . S
C501 C497 1.376 . S
C501 C500 1.392 . S
C501 H513 0.929 . S
C502 C498 1.531 . S
C502 H514 0.960 . S
C502 H515 0.962 . S
C502 H516 0.960 . S
C503 C500 1.511 . S
C503 H517 0.961 . S
C503 H518 0.961 . S
C503 H519 0.961 . S
C504 C505 1.370 . S
C504 C506 1.363 . S
C504 H520 0.931 . S
C505 C504 1.370 . S
C505 C509 1.408 . S
C506 C504 1.363 . S
C506 C507 1.370 . S
C506 C510 1.524 . S
C507 C499 1.503 . S
C507 C506 1.370 . S
C507 C508 1.403 . S
C508 C507 1.403 . S
C508 C509 1.404 . S
C508 C511 1.539 . S
C509 C505 1.408 . S
C509 C508 1.404 . S
C509 H521 0.930 . S
C510 C506 1.524 . S
C510 H522 0.956 . S
C510 H523 0.961 . S
C510 H524 0.961 . S
C511 C508 1.539 . S
C511 H525 0.958 . S
C511 H526 0.961 . S
C511 H527 0.960 . S
H512 C496 0.931 . S
H513 C501 0.929 . S
H514 C502 0.960 . S
H515 C502 0.962 . S
H516 C502 0.960 . S
H517 C503 0.961 . S
H518 C503 0.961 . S
H519 C503 0.961 . S
H520 C504 0.931 . S
H521 C509 0.930 . S
H522 C510 0.956 . S
H523 C510 0.961 . S
H524 C510 0.961 . S
H525 C511 0.958 . S
H526 C511 0.961 . S
H527 C511 0.960 . S
C528 C529 1.391 . S
C528 C530 1.394 1_556 S
C528 H544 0.931 . S
C529 C528 1.391 . S
C529 C533 1.376 . S
C530 C528 1.394 1_554 S
C530 C531 1.369 1_554 S
C530 C534 1.531 . S
C531 C530 1.369 1_556 S
C531 C532 1.410 . S
C531 C539 1.503 1_556 S
C532 C531 1.410 . S
C532 C533 1.392 . S
C532 C535 1.511 . S
C533 C529 1.376 . S
C533 C532 1.392 . S
C533 H545 0.929 . S
C534 C530 1.531 . S
C534 H546 0.960 . S
C534 H547 0.962 . S
C534 H548 0.960 . S
C535 C532 1.511 . S
C535 H549 0.961 . S
C535 H550 0.961 . S
C535 H551 0.961 . S
C536 C537 1.370 . S
C536 C538 1.363 . S
C536 H552 0.931 . S
C537 C536 1.370 . S
C537 C541 1.408 . S
C538 C536 1.363 . S
C538 C539 1.370 . S
C538 C542 1.524 1_554 S
C539 C531 1.503 1_554 S
C539 C538 1.370 . S
C539 C540 1.403 . S
C540 C539 1.403 . S
C540 C541 1.404 . S
C540 C543 1.539 . S
C541 C537 1.408 . S
C541 C540 1.404 . S
C541 H553 0.930 . S
C542 C538 1.524 1_556 S
C542 H554 0.956 . S
C542 H555 0.961 . S
C542 H556 0.961 . S
C543 C540 1.539 . S
C543 H557 0.958 . S
C543 H558 0.961 . S
C543 H559 0.960 . S
H544 C528 0.931 . S
H545 C533 0.929 . S
H546 C534 0.960 . S
H547 C534 0.962 . S
H548 C534 0.960 . S
H549 C535 0.961 . S
H550 C535 0.961 . S
H551 C535 0.961 . S
H552 C536 0.931 . S
H553 C541 0.930 . S
H554 C542 0.956 . S
H555 C542 0.961 . S
H556 C542 0.961 . S
H557 C543 0.958 . S
H558 C543 0.961 . S
H559 C543 0.960 . S
C560 C561 1.391 . S
C560 C562 1.394 . S
C560 H576 0.931 . S
C561 C560 1.391 . S
C561 C565 1.376 . S
C562 C560 1.394 . S
C562 C563 1.369 . S
C562 C566 1.531 . S
C563 C562 1.369 . S
C563 C564 1.410 . S
C563 C571 1.503 . S
C564 C563 1.410 . S
C564 C565 1.392 . S
C564 C567 1.511 . S
C565 C561 1.376 . S
C565 C564 1.392 . S
C565 H577 0.929 . S
C566 C562 1.531 . S
C566 H578 0.960 . S
C566 H579 0.962 . S
C566 H580 0.960 . S
C567 C564 1.511 . S
C567 H581 0.961 . S
C567 H582 0.961 . S
C567 H583 0.961 . S
C568 C569 1.370 . S
C568 C570 1.363 . S
C568 H584 0.931 . S
C569 C568 1.370 . S
C569 C573 1.408 . S
C570 C568 1.363 . S
C570 C571 1.370 . S
C570 C574 1.524 . S
C571 C563 1.503 . S
C571 C570 1.370 . S
C571 C572 1.403 . S
C572 C571 1.403 . S
C572 C573 1.404 . S
C572 C575 1.539 . S
C573 C569 1.408 . S
C573 C572 1.404 . S
C573 H585 0.930 . S
C574 C570 1.524 . S
C574 H586 0.956 . S
C574 H587 0.961 . S
C574 H588 0.961 . S
C575 C572 1.539 . S
C575 H589 0.958 . S
C575 H590 0.961 . S
C575 H591 0.960 . S
H576 C560 0.931 . S
H577 C565 0.929 . S
H578 C566 0.960 . S
H579 C566 0.962 . S
H580 C566 0.960 . S
H581 C567 0.961 . S
H582 C567 0.961 . S
H583 C567 0.961 . S
H584 C568 0.931 . S
H585 C573 0.930 . S
H586 C574 0.956 . S
H587 C574 0.961 . S
H588 C574 0.961 . S
H589 C575 0.958 . S
H590 C575 0.961 . S
H591 C575 0.960 . S
C592 C593 1.391 . S
C592 C594 1.394 1_556 S
C592 H608 0.931 . S
C593 C592 1.391 . S
C593 C597 1.376 . S
C594 C592 1.394 1_554 S
C594 C595 1.369 1_554 S
C594 C598 1.531 . S
C595 C594 1.369 1_556 S
C595 C596 1.410 . S
C595 C603 1.503 1_546 S
C596 C595 1.410 . S
C596 C597 1.392 . S
C596 C599 1.511 1_545 S
C597 C593 1.376 . S
C597 C596 1.392 . S
C597 H609 0.929 . S
C598 C594 1.531 . S
C598 H610 0.960 . S
C598 H611 0.962 . S
C598 H612 0.960 . S
C599 C596 1.511 1_565 S
C599 H613 0.961 . S
C599 H614 0.961 . S
C599 H615 0.961 1_565 S
C600 C601 1.370 . S
C600 C602 1.363 . S
C600 H616 0.931 . S
C601 C600 1.370 . S
C601 C605 1.408 . S
C602 C600 1.363 . S
C602 C603 1.370 . S
C602 C606 1.524 . S
C603 C595 1.503 1_564 S
C603 C602 1.370 . S
C603 C604 1.403 1_565 S
C604 C603 1.403 1_545 S
C604 C605 1.404 1_545 S
C604 C607 1.539 . S
C605 C601 1.408 . S
C605 C604 1.404 1_565 S
C605 H617 0.930 1_565 S
C606 C602 1.524 . S
C606 H618 0.956 . S
C606 H619 0.961 1_554 S
C606 H620 0.961 . S
C607 C604 1.539 . S
C607 H621 0.958 . S
C607 H622 0.957 1_554 S
C607 H623 0.960 1_554 S
H608 C592 0.931 . S
H609 C597 0.929 . S
H610 C598 0.960 . S
H611 C598 0.962 . S
H612 C598 0.960 . S
H613 C599 0.961 . S
H614 C599 0.961 . S
H615 C599 0.961 1_545 S
H616 C600 0.931 . S
H617 C605 0.930 1_545 S
H618 C606 0.956 . S
H619 C606 0.961 1_556 S
H620 C606 0.961 . S
H621 C607 0.958 . S
H622 C607 0.957 1_556 S
H623 C607 0.960 1_556 S
C624 C625 1.391 . S
C624 C626 1.394 . S
C624 H640 0.931 . S
C625 C624 1.391 . S
C625 C629 1.376 . S
C626 C624 1.394 . S
C626 C627 1.369 . S
C626 C630 1.531 . S
C627 C626 1.369 . S
C627 C628 1.410 . S
C627 C635 1.503 . S
C628 C627 1.410 . S
C628 C629 1.392 . S
C628 C631 1.511 . S
C629 C625 1.376 . S
C629 C628 1.392 . S
C629 H641 0.929 . S
C630 C626 1.531 . S
C630 H642 0.960 . S
C630 H643 0.962 . S
C630 H644 0.960 . S
C631 C628 1.511 . S
C631 H645 0.961 . S
C631 H646 0.961 . S
C631 H647 0.961 . S
C632 C633 1.370 . S
C632 C634 1.363 . S
C632 H648 0.931 . S
C633 C632 1.370 . S
C633 C637 1.408 . S
C634 C632 1.363 . S
C634 C635 1.370 . S
C634 C638 1.524 . S
C635 C627 1.503 . S
C635 C634 1.370 . S
C635 C636 1.403 . S
C636 C635 1.403 . S
C636 C637 1.404 . S
C636 C639 1.539 . S
C637 C633 1.408 . S
C637 C636 1.404 . S
C637 H649 0.930 . S
C638 C634 1.524 . S
C638 H650 0.956 . S
C638 H651 0.961 . S
C638 H652 0.961 . S
C639 C636 1.539 . S
C639 H653 0.958 . S
C639 H654 0.961 . S
C639 H655 0.960 . S
H640 C624 0.931 . S
H641 C629 0.929 . S
H642 C630 0.960 . S
H643 C630 0.962 . S
H644 C630 0.960 . S
H645 C631 0.961 . S
H646 C631 0.961 . S
H647 C631 0.961 . S
H648 C632 0.931 . S
H649 C637 0.930 . S
H650 C638 0.956 . S
H651 C638 0.961 . S
H652 C638 0.961 . S
H653 C639 0.958 . S
H654 C639 0.961 . S
H655 C639 0.960 . S
C656 C657 1.391 . S
C656 C658 1.394 . S
C656 H672 0.931 . S
C657 C656 1.391 . S
C657 C661 1.376 . S
C658 C656 1.394 . S
C658 C659 1.369 . S
C658 C662 1.531 . S
C659 C658 1.369 . S
C659 C660 1.410 . S
C659 C667 1.503 . S
C660 C659 1.410 . S
C660 C661 1.392 . S
C660 C663 1.511 . S
C661 C657 1.376 . S
C661 C660 1.392 . S
C661 H673 0.929 . S
C662 C658 1.531 . S
C662 H674 0.960 . S
C662 H675 0.962 . S
C662 H676 0.960 . S
C663 C660 1.511 . S
C663 H677 0.961 . S
C663 H678 0.961 . S
C663 H679 0.961 . S
C664 C665 1.370 . S
C664 C666 1.363 . S
C664 H680 0.931 . S
C665 C664 1.370 . S
C665 C669 1.408 . S
C666 C664 1.363 . S
C666 C667 1.370 . S
C666 C670 1.524 . S
C667 C659 1.503 . S
C667 C666 1.370 . S
C667 C668 1.403 . S
C668 C667 1.403 . S
C668 C669 1.404 . S
C668 C671 1.539 . S
C669 C665 1.408 . S
C669 C668 1.404 . S
C669 H681 0.930 . S
C670 C666 1.524 . S
C670 H682 0.956 . S
C670 H683 0.961 . S
C670 H684 0.961 . S
C671 C668 1.539 . S
C671 H685 0.958 . S
C671 H686 0.961 . S
C671 H687 0.960 . S
H672 C656 0.931 . S
H673 C661 0.929 . S
H674 C662 0.960 . S
H675 C662 0.962 . S
H676 C662 0.960 . S
H677 C663 0.961 . S
H678 C663 0.961 . S
H679 C663 0.961 . S
H680 C664 0.931 . S
H681 C669 0.930 . S
H682 C670 0.956 . S
H683 C670 0.961 . S
H684 C670 0.961 . S
H685 C671 0.958 . S
H686 C671 0.961 . S
H687 C671 0.960 . S
C688 C689 1.391 . S
C688 C690 1.394 . S
C688 H704 0.931 . S
C689 C688 1.391 . S
C689 C693 1.376 . S
C690 C688 1.394 . S
C690 C691 1.369 . S
C690 C694 1.531 . S
C691 C690 1.369 . S
C691 C692 1.410 . S
C691 C699 1.503 . S
C692 C691 1.410 . S
C692 C693 1.392 . S
C692 C695 1.511 . S
C693 C689 1.376 . S
C693 C692 1.392 . S
C693 H705 0.929 . S
C694 C690 1.531 . S
C694 H706 0.960 . S
C694 H707 0.962 . S
C694 H708 0.960 . S
C695 C692 1.511 . S
C695 H709 0.961 . S
C695 H710 0.961 . S
C695 H711 0.961 . S
C696 C697 1.370 . S
C696 C698 1.363 . S
C696 H712 0.931 . S
C697 C696 1.370 . S
C697 C701 1.408 . S
C698 C696 1.363 . S
C698 C699 1.370 . S
C698 C702 1.524 . S
C699 C691 1.503 . S
C699 C698 1.370 . S
C699 C700 1.403 . S
C700 C699 1.403 . S
C700 C701 1.404 . S
C700 C703 1.539 . S
C701 C697 1.408 . S
C701 C700 1.404 . S
C701 H713 0.930 . S
C702 C698 1.524 . S
C702 H714 0.956 . S
C702 H715 0.961 . S
C702 H716 0.961 . S
C703 C700 1.539 . S
C703 H717 0.958 . S
C703 H718 0.961 . S
C703 H719 0.960 . S
H704 C688 0.931 . S
H705 C693 0.929 . S
H706 C694 0.960 . S
H707 C694 0.962 . S
H708 C694 0.960 . S
H709 C695 0.961 . S
H710 C695 0.961 . S
H711 C695 0.961 . S
H712 C696 0.931 . S
H713 C701 0.930 . S
H714 C702 0.956 . S
H715 C702 0.961 . S
H716 C702 0.961 . S
H717 C703 0.958 . S
H718 C703 0.961 . S
H719 C703 0.960 . S
C720 C721 1.391 . S
C720 C722 1.394 . S
C720 H736 0.931 . S
C721 C720 1.391 . S
C721 C725 1.376 . S
C722 C720 1.394 . S
C722 C723 1.369 . S
C722 C726 1.531 . S
C723 C722 1.369 . S
C723 C724 1.410 . S
C723 C731 1.503 . S
C724 C723 1.410 . S
C724 C725 1.392 . S
C724 C727 1.511 . S
C725 C721 1.376 . S
C725 C724 1.392 . S
C725 H737 0.929 . S
C726 C722 1.531 . S
C726 H738 0.960 . S
C726 H739 0.962 . S
C726 H740 0.960 . S
C727 C724 1.511 . S
C727 H741 0.961 . S
C727 H742 0.961 . S
C727 H743 0.961 . S
C728 C729 1.370 . S
C728 C730 1.363 . S
C728 H744 0.931 . S
C729 C728 1.370 . S
C729 C733 1.408 . S
C730 C728 1.363 . S
C730 C731 1.370 . S
C730 C734 1.524 . S
C731 C723 1.503 . S
C731 C730 1.370 . S
C731 C732 1.403 . S
C732 C731 1.403 . S
C732 C733 1.404 . S
C732 C735 1.539 . S
C733 C729 1.408 . S
C733 C732 1.404 . S
C733 H745 0.930 1_565 S
C734 C730 1.524 . S
C734 H746 0.956 . S
C734 H747 0.961 . S
C734 H748 0.961 . S
C735 C732 1.539 . S
C735 H749 0.958 . S
C735 H750 0.961 . S
C735 H751 0.960 . S
H736 C720 0.931 . S
H737 C725 0.929 . S
H738 C726 0.960 . S
H739 C726 0.962 . S
H740 C726 0.960 . S
H741 C727 0.961 . S
H742 C727 0.961 . S
H743 C727 0.961 . S
H744 C728 0.931 . S
H745 C733 0.930 1_545 S
H746 C734 0.956 . S
H747 C734 0.961 . S
H748 C734 0.961 . S
H749 C735 0.958 . S
H750 C735 0.961 . S
H751 C735 0.960 . S
C752 C753 1.391 . S
C752 C754 1.394 . S
C752 H768 0.931 . S
C753 C752 1.391 . S
C753 C757 1.376 . S
C754 C752 1.394 . S
C754 C755 1.369 . S
C754 C758 1.531 . S
C755 C754 1.369 . S
C755 C756 1.410 . S
C755 C763 1.503 . S
C756 C755 1.410 . S
C756 C757 1.392 . S
C756 C759 1.511 . S
C757 C753 1.376 . S
C757 C756 1.392 . S
C757 H769 0.929 . S
C758 C754 1.531 . S
C758 H770 0.960 . S
C758 H771 0.962 . S
C758 H772 0.960 . S
C759 C756 1.511 . S
C759 H773 0.961 . S
C759 H774 0.961 . S
C759 H775 0.961 . S
C760 C761 1.370 . S
C760 C762 1.363 . S
C760 H776 0.931 . S
C761 C760 1.370 . S
C761 C765 1.408 . S
C762 C760 1.363 . S
C762 C763 1.370 . S
C762 C766 1.524 . S
C763 C755 1.503 . S
C763 C762 1.370 . S
C763 C764 1.403 . S
C764 C763 1.403 . S
C764 C765 1.404 . S
C764 C767 1.539 . S
C765 C761 1.408 . S
C765 C764 1.404 . S
C765 H777 0.930 . S
C766 C762 1.524 . S
C766 H778 0.956 . S
C766 H779 0.961 . S
C766 H780 0.961 . S
C767 C764 1.539 . S
C767 H781 0.958 . S
C767 H782 0.961 . S
C767 H783 0.960 . S
H768 C752 0.931 . S
H769 C757 0.929 . S
H770 C758 0.960 . S
H771 C758 0.962 . S
H772 C758 0.960 . S
H773 C759 0.961 . S
H774 C759 0.961 . S
H775 C759 0.961 . S
H776 C760 0.931 . S
H777 C765 0.930 . S
H778 C766 0.956 . S
H779 C766 0.961 . S
H780 C766 0.961 . S
H781 C767 0.958 . S
H782 C767 0.961 . S
H783 C767 0.960 . S
C784 C785 1.391 . S
C784 C786 1.394 . S
C784 H800 0.931 . S
C785 C784 1.391 . S
C785 C789 1.376 . S
C786 C784 1.394 . S
C786 C787 1.369 . S
C786 C790 1.531 . S
C787 C786 1.369 . S
C787 C788 1.410 . S
C787 C795 1.503 . S
C788 C787 1.410 . S
C788 C789 1.392 . S
C788 C791 1.511 . S
C789 C785 1.376 . S
C789 C788 1.392 . S
C789 H801 0.929 . S
C790 C786 1.531 . S
C790 H802 0.960 . S
C790 H803 0.962 . S
C790 H804 0.960 . S
C791 C788 1.511 . S
C791 H805 0.961 . S
C791 H806 0.961 . S
C791 H807 0.961 . S
C792 C793 1.370 . S
C792 C794 1.363 . S
C792 H808 0.931 . S
C793 C792 1.370 . S
C793 C797 1.408 . S
C794 C792 1.363 . S
C794 C795 1.370 . S
C794 C798 1.524 . S
C795 C787 1.503 . S
C795 C794 1.370 . S
C795 C796 1.403 . S
C796 C795 1.403 . S
C796 C797 1.404 . S
C796 C799 1.539 . S
C797 C793 1.408 . S
C797 C796 1.404 . S
C797 H809 0.930 . S
C798 C794 1.524 . S
C798 H810 0.956 . S
C798 H811 0.961 . S
C798 H812 0.961 . S
C799 C796 1.539 . S
C799 H813 0.958 . S
C799 H814 0.961 . S
C799 H815 0.960 . S
H800 C784 0.931 . S
H801 C789 0.929 . S
H802 C790 0.960 . S
H803 C790 0.962 . S
H804 C790 0.960 . S
H805 C791 0.961 . S
H806 C791 0.961 . S
H807 C791 0.961 . S
H808 C792 0.931 . S
H809 C797 0.930 . S
H810 C798 0.956 . S
H811 C798 0.961 . S
H812 C798 0.961 . S
H813 C799 0.958 . S
H814 C799 0.961 . S
H815 C799 0.960 . S
C816 C817 1.391 . S
C816 C818 1.394 . S
C816 H832 0.931 . S
C817 C816 1.391 . S
C817 C821 1.376 . S
C818 C816 1.394 . S
C818 C819 1.369 . S
C818 C822 1.531 . S
C819 C818 1.369 . S
C819 C820 1.410 . S
C819 C827 1.503 . S
C820 C819 1.410 . S
C820 C821 1.392 . S
C820 C823 1.511 . S
C821 C817 1.376 . S
C821 C820 1.392 . S
C821 H833 0.929 . S
C822 C818 1.531 . S
C822 H834 0.960 . S
C822 H835 0.962 . S
C822 H836 0.960 . S
C823 C820 1.511 . S
C823 H837 0.961 . S
C823 H838 0.961 . S
C823 H839 0.961 . S
C824 C825 1.370 . S
C824 C826 1.363 . S
C824 H840 0.931 1_565 S
C825 C824 1.370 . S
C825 C829 1.408 . S
C826 C824 1.363 . S
C826 C827 1.370 . S
C826 C830 1.524 . S
C827 C819 1.503 . S
C827 C826 1.370 . S
C827 C828 1.403 . S
C828 C827 1.403 . S
C828 C829 1.404 . S
C828 C831 1.539 . S
C829 C825 1.408 . S
C829 C828 1.404 . S
C829 H841 0.930 . S
C830 C826 1.524 . S
C830 H842 0.956 . S
C830 H843 0.961 . S
C830 H844 0.961 . S
C831 C828 1.539 . S
C831 H845 0.958 . S
C831 H846 0.961 . S
C831 H847 0.960 . S
H832 C816 0.931 . S
H833 C821 0.929 . S
H834 C822 0.960 . S
H835 C822 0.962 . S
H836 C822 0.960 . S
H837 C823 0.961 . S
H838 C823 0.961 . S
H839 C823 0.961 . S
H840 C824 0.931 1_545 S
H841 C829 0.930 . S
H842 C830 0.956 . S
H843 C830 0.961 . S
H844 C830 0.961 . S
H845 C831 0.958 . S
H846 C831 0.961 . S
H847 C831 0.960 . S
C848 C849 1.391 . S
C848 C850 1.394 . S
C848 H864 0.931 . S
C849 C848 1.391 . S
C849 C853 1.376 . S
C850 C848 1.394 . S
C850 C851 1.369 . S
C850 C854 1.531 . S
C851 C850 1.369 . S
C851 C852 1.410 . S
C851 C859 1.503 . S
C852 C851 1.410 . S
C852 C853 1.392 . S
C852 C855 1.511 . S
C853 C849 1.376 . S
C853 C852 1.392 . S
C853 H865 0.929 . S
C854 C850 1.531 . S
C854 H866 0.960 . S
C854 H867 0.962 . S
C854 H868 0.960 . S
C855 C852 1.511 . S
C855 H869 0.961 . S
C855 H870 0.961 . S
C855 H871 0.961 . S
C856 C857 1.370 . S
C856 C858 1.363 . S
C856 H872 0.931 . S
C857 C856 1.370 . S
C857 C861 1.408 . S
C858 C856 1.363 . S
C858 C859 1.370 . S
C858 C862 1.524 . S
C859 C851 1.503 . S
C859 C858 1.370 . S
C859 C860 1.403 . S
C860 C859 1.403 . S
C860 C861 1.404 . S
C860 C863 1.539 . S
C861 C857 1.408 . S
C861 C860 1.404 . S
C861 H873 0.930 1_545 S
C862 C858 1.524 . S
C862 H874 0.956 . S
C862 H875 0.961 . S
C862 H876 0.961 . S
C863 C860 1.539 . S
C863 H877 0.958 . S
C863 H878 0.961 . S
C863 H879 0.960 . S
H864 C848 0.931 . S
H865 C853 0.929 . S
H866 C854 0.960 . S
H867 C854 0.962 . S
H868 C854 0.960 . S
H869 C855 0.961 . S
H870 C855 0.961 . S
H871 C855 0.961 . S
H872 C856 0.931 . S
H873 C861 0.930 1_565 S
H874 C862 0.956 . S
H875 C862 0.961 . S
H876 C862 0.961 . S
H877 C863 0.958 . S
H878 C863 0.961 . S
H879 C863 0.960 . S
C880 C881 1.391 . S
C880 C882 1.394 . S
C880 H896 0.931 . S
C881 C880 1.391 . S
C881 C885 1.376 . S
C882 C880 1.394 . S
C882 C883 1.369 . S
C882 C886 1.531 . S
C883 C882 1.369 . S
C883 C884 1.410 . S
C883 C891 1.503 . S
C884 C883 1.410 . S
C884 C885 1.392 . S
C884 C887 1.511 . S
C885 C881 1.376 . S
C885 C884 1.392 . S
C885 H897 0.929 . S
C886 C882 1.531 . S
C886 H898 0.960 . S
C886 H899 0.962 . S
C886 H900 0.960 . S
C887 C884 1.511 . S
C887 H901 0.961 . S
C887 H902 0.961 . S
C887 H903 0.961 . S
C888 C889 1.370 . S
C888 C890 1.363 . S
C888 H904 0.931 . S
C889 C888 1.370 . S
C889 C893 1.408 . S
C890 C888 1.363 . S
C890 C891 1.370 . S
C890 C894 1.524 . S
C891 C883 1.503 . S
C891 C890 1.370 . S
C891 C892 1.403 . S
C892 C891 1.403 . S
C892 C893 1.404 . S
C892 C895 1.539 . S
C893 C889 1.408 . S
C893 C892 1.404 . S
C893 H905 0.930 . S
C894 C890 1.524 . S
C894 H906 0.956 . S
C894 H907 0.961 . S
C894 H908 0.961 . S
C895 C892 1.539 . S
C895 H909 0.958 . S
C895 H910 0.961 . S
C895 H911 0.960 . S
H896 C880 0.931 . S
H897 C885 0.929 . S
H898 C886 0.960 . S
H899 C886 0.962 . S
H900 C886 0.960 . S
H901 C887 0.961 . S
H902 C887 0.961 . S
H903 C887 0.961 . S
H904 C888 0.931 . S
H905 C893 0.930 . S
H906 C894 0.956 . S
H907 C894 0.961 . S
H908 C894 0.961 . S
H909 C895 0.958 . S
H910 C895 0.961 . S
H911 C895 0.960 . S
C912 C913 1.391 . S
C912 C914 1.394 . S
C912 H928 0.931 . S
C913 C912 1.391 . S
C913 C917 1.376 . S
C914 C912 1.394 . S
C914 C915 1.369 . S
C914 C918 1.531 . S
C915 C914 1.369 . S
C915 C916 1.410 . S
C915 C923 1.503 . S
C916 C915 1.410 . S
C916 C917 1.392 . S
C916 C919 1.511 . S
C917 C913 1.376 . S
C917 C916 1.392 . S
C917 H929 0.929 . S
C918 C914 1.531 . S
C918 H930 0.960 . S
C918 H931 0.962 . S
C918 H932 0.960 . S
C919 C916 1.511 . S
C919 H933 0.961 . S
C919 H934 0.961 . S
C919 H935 0.961 . S
C920 C921 1.370 . S
C920 C922 1.363 . S
C920 H936 0.931 . S
C921 C920 1.370 . S
C921 C925 1.408 . S
C922 C920 1.363 . S
C922 C923 1.370 . S
C922 C926 1.524 . S
C923 C915 1.503 . S
C923 C922 1.370 . S
C923 C924 1.403 . S
C924 C923 1.403 . S
C924 C925 1.404 . S
C924 C927 1.539 . S
C925 C921 1.408 . S
C925 C924 1.404 . S
C925 H937 0.930 . S
C926 C922 1.524 . S
C926 H938 0.956 . S
C926 H939 0.961 . S
C926 H940 0.961 . S
C927 C924 1.539 . S
C927 H941 0.958 . S
C927 H942 0.961 . S
C927 H943 0.960 . S
H928 C912 0.931 . S
H929 C917 0.929 . S
H930 C918 0.960 . S
H931 C918 0.962 . S
H932 C918 0.960 . S
H933 C919 0.961 . S
H934 C919 0.961 . S
H935 C919 0.961 . S
H936 C920 0.931 . S
H937 C925 0.930 . S
H938 C926 0.956 . S
H939 C926 0.961 . S
H940 C926 0.961 . S
H941 C927 0.958 . S
H942 C927 0.961 . S
H943 C927 0.960 . S
C944 C945 1.391 . S
C944 C946 1.394 . S
C944 H960 0.931 . S
C945 C944 1.391 . S
C945 C949 1.376 . S
C946 C944 1.394 . S
C946 C947 1.369 . S
C946 C950 1.531 . S
C947 C946 1.369 . S
C947 C948 1.410 . S
C947 C955 1.503 . S
C948 C947 1.410 . S
C948 C949 1.392 . S
C948 C951 1.511 . S
C949 C945 1.376 . S
C949 C948 1.392 . S
C949 H961 0.929 1_545 S
C950 C946 1.531 . S
C950 H962 0.960 . S
C950 H963 0.962 . S
C950 H964 0.960 . S
C951 C948 1.511 . S
C951 H965 0.961 . S
C951 H966 0.961 . S
C951 H967 0.961 . S
C952 C953 1.370 . S
C952 C954 1.363 . S
C952 H968 0.931 . S
C953 C952 1.370 . S
C953 C957 1.408 . S
C954 C952 1.363 . S
C954 C955 1.370 . S
C954 C958 1.524 . S
C955 C947 1.503 . S
C955 C954 1.370 . S
C955 C956 1.403 . S
C956 C955 1.403 . S
C956 C957 1.404 . S
C956 C959 1.539 . S
C957 C953 1.408 . S
C957 C956 1.404 . S
C957 H969 0.930 . S
C958 C954 1.524 . S
C958 H970 0.956 . S
C958 H971 0.961 . S
C958 H972 0.961 . S
C959 C956 1.539 . S
C959 H973 0.958 . S
C959 H974 0.961 . S
C959 H975 0.960 . S
H960 C944 0.931 . S
H961 C949 0.929 1_565 S
H962 C950 0.960 . S
H963 C950 0.962 . S
H964 C950 0.960 . S
H965 C951 0.961 . S
H966 C951 0.961 . S
H967 C951 0.961 . S
H968 C952 0.931 . S
H969 C957 0.930 . S
H970 C958 0.956 . S
H971 C958 0.961 . S
H972 C958 0.961 . S
H973 C959 0.958 . S
H974 C959 0.961 . S
H975 C959 0.960 . S
C976 C977 1.391 . S
C976 C978 1.394 . S
C976 H992 0.931 . S
C977 C976 1.391 . S
C977 C981 1.376 . S
C978 C976 1.394 . S
C978 C979 1.369 . S
C978 C982 1.531 . S
C979 C978 1.369 . S
C979 C980 1.410 . S
C979 C987 1.503 . S
C980 C979 1.410 . S
C980 C981 1.392 . S
C980 C983 1.511 . S
C981 C977 1.376 . S
C981 C980 1.392 . S
C981 H993 0.929 . S
C982 C978 1.531 . S
C982 H994 0.960 . S
C982 H995 0.962 . S
C982 H996 0.960 . S
C983 C980 1.511 . S
C983 H997 0.961 . S
C983 H998 0.961 . S
C983 H999 0.961 . S
C984 C985 1.370 . S
C984 C986 1.363 . S
C984 H1000 0.931 . S
C985 C984 1.370 . S
C985 C989 1.408 . S
C986 C984 1.363 . S
C986 C987 1.370 . S
C986 C990 1.524 . S
C987 C979 1.503 . S
C987 C986 1.370 . S
C987 C988 1.403 . S
C988 C987 1.403 . S
C988 C989 1.404 . S
C988 C991 1.539 . S
C989 C985 1.408 . S
C989 C988 1.404 . S
C989 H1001 0.930 . S
C990 C986 1.524 . S
C990 H1002 0.956 . S
C990 H1003 0.961 . S
C990 H1004 0.961 . S
C991 C988 1.539 . S
C991 H1005 0.958 . S
C991 H1006 0.961 . S
C991 H1007 0.960 . S
H992 C976 0.931 . S
H993 C981 0.929 . S
H994 C982 0.960 . S
H995 C982 0.962 . S
H996 C982 0.960 . S
H997 C983 0.961 . S
H998 C983 0.961 . S
H999 C983 0.961 . S
H1000 C984 0.931 . S
H1001 C989 0.930 . S
H1002 C990 0.956 . S
H1003 C990 0.961 . S
H1004 C990 0.961 . S
H1005 C991 0.958 . S
H1006 C991 0.961 . S
H1007 C991 0.960 . S
C1008 C1009 1.391 . S
C1008 C1010 1.394 . S
C1008 H1024 0.931 . S
C1009 C1008 1.391 . S
C1009 C1013 1.376 . S
C1010 C1008 1.394 . S
C1010 C1011 1.369 . S
C1010 C1014 1.531 . S
C1011 C1010 1.369 . S
C1011 C1012 1.410 . S
C1011 C1019 1.503 . S
C1012 C1011 1.410 . S
C1012 C1013 1.392 . S
C1012 C1015 1.511 . S
C1013 C1009 1.376 . S
C1013 C1012 1.392 . S
C1013 H1025 0.929 . S
C1014 C1010 1.531 . S
C1014 H1026 0.960 . S
C1014 H1027 0.962 . S
C1014 H1028 0.960 . S
C1015 C1012 1.511 . S
C1015 H1029 0.961 . S
C1015 H1030 0.961 . S
C1015 H1031 0.961 . S
C1016 C1017 1.370 . S
C1016 C1018 1.363 . S
C1016 H1032 0.931 . S
C1017 C1016 1.370 . S
C1017 C1021 1.408 . S
C1018 C1016 1.363 . S
C1018 C1019 1.370 . S
C1018 C1022 1.524 . S
C1019 C1011 1.503 . S
C1019 C1018 1.370 . S
C1019 C1020 1.403 . S
C1020 C1019 1.403 . S
C1020 C1021 1.404 . S
C1020 C1023 1.539 . S
C1021 C1017 1.408 . S
C1021 C1020 1.404 . S
C1021 H1033 0.930 . S
C1022 C1018 1.524 . S
C1022 H1034 0.956 . S
C1022 H1035 0.961 . S
C1022 H1036 0.961 . S
C1023 C1020 1.539 . S
C1023 H1037 0.958 . S
C1023 H1038 0.961 . S
C1023 H1039 0.960 . S
H1024 C1008 0.931 . S
H1025 C1013 0.929 . S
H1026 C1014 0.960 . S
H1027 C1014 0.962 . S
H1028 C1014 0.960 . S
H1029 C1015 0.961 . S
H1030 C1015 0.961 . S
H1031 C1015 0.961 . S
H1032 C1016 0.931 . S
H1033 C1021 0.930 . S
H1034 C1022 0.956 . S
H1035 C1022 0.961 . S
H1036 C1022 0.961 . S
H1037 C1023 0.958 . S
H1038 C1023 0.961 . S
H1039 C1023 0.960 . S
C1040 C1041 1.391 . S
C1040 C1042 1.394 . S
C1040 H1056 0.931 . S
C1041 C1040 1.391 . S
C1041 C1045 1.376 . S
C1042 C1040 1.394 . S
C1042 C1043 1.369 . S
C1042 C1046 1.531 . S
C1043 C1042 1.369 . S
C1043 C1044 1.410 . S
C1043 C1051 1.503 . S
C1044 C1043 1.410 . S
C1044 C1045 1.392 . S
C1044 C1047 1.511 . S
C1045 C1041 1.376 . S
C1045 C1044 1.392 . S
C1045 H1057 0.929 . S
C1046 C1042 1.531 . S
C1046 H1058 0.960 . S
C1046 H1059 0.962 . S
C1046 H1060 0.960 . S
C1047 C1044 1.511 . S
C1047 H1061 0.961 . S
C1047 H1062 0.961 . S
C1047 H1063 0.961 . S
C1048 C1049 1.370 . S
C1048 C1050 1.363 . S
C1048 H1064 0.931 . S
C1049 C1048 1.370 . S
C1049 C1053 1.408 . S
C1050 C1048 1.363 . S
C1050 C1051 1.370 . S
C1050 C1054 1.524 . S
C1051 C1043 1.503 . S
C1051 C1050 1.370 . S
C1051 C1052 1.403 . S
C1052 C1051 1.403 . S
C1052 C1053 1.404 . S
C1052 C1055 1.539 . S
C1053 C1049 1.408 . S
C1053 C1052 1.404 . S
C1053 H1065 0.930 . S
C1054 C1050 1.524 . S
C1054 H1066 0.956 . S
C1054 H1067 0.961 . S
C1054 H1068 0.961 . S
C1055 C1052 1.539 . S
C1055 H1069 0.958 . S
C1055 H1070 0.961 . S
C1055 H1071 0.960 . S
H1056 C1040 0.931 . S
H1057 C1045 0.929 . S
H1058 C1046 0.960 . S
H1059 C1046 0.962 . S
H1060 C1046 0.960 . S
H1061 C1047 0.961 . S
H1062 C1047 0.961 . S
H1063 C1047 0.961 . S
H1064 C1048 0.931 . S
H1065 C1053 0.930 . S
H1066 C1054 0.956 . S
H1067 C1054 0.961 . S
H1068 C1054 0.961 . S
H1069 C1055 0.958 . S
H1070 C1055 0.961 . S
H1071 C1055 0.960 . S
C1072 C1073 1.391 . S
C1072 C1074 1.394 . S
C1072 H1088 0.931 . S
C1073 C1072 1.391 . S
C1073 C1077 1.376 . S
C1074 C1072 1.394 . S
C1074 C1075 1.369 . S
C1074 C1078 1.531 . S
C1075 C1074 1.369 . S
C1075 C1076 1.410 . S
C1075 C1083 1.503 . S
C1076 C1075 1.410 . S
C1076 C1077 1.392 . S
C1076 C1079 1.511 . S
C1077 C1073 1.376 . S
C1077 C1076 1.392 . S
C1077 H1089 0.929 . S
C1078 C1074 1.531 . S
C1078 H1090 0.960 . S
C1078 H1091 0.962 . S
C1078 H1092 0.960 . S
C1079 C1076 1.511 . S
C1079 H1093 0.961 . S
C1079 H1094 0.961 . S
C1079 H1095 0.961 . S
C1080 C1081 1.370 . S
C1080 C1082 1.363 . S
C1080 H1096 0.931 1_565 S
C1081 C1080 1.370 . S
C1081 C1085 1.408 . S
C1082 C1080 1.363 . S
C1082 C1083 1.370 . S
C1082 C1086 1.524 . S
C1083 C1075 1.503 . S
C1083 C1082 1.370 . S
C1083 C1084 1.403 . S
C1084 C1083 1.403 . S
C1084 C1085 1.404 . S
C1084 C1087 1.539 . S
C1085 C1081 1.408 . S
C1085 C1084 1.404 . S
C1085 H1097 0.930 . S
C1086 C1082 1.524 . S
C1086 H1098 0.956 . S
C1086 H1099 0.961 . S
C1086 H1100 0.961 . S
C1087 C1084 1.539 . S
C1087 H1101 0.958 . S
C1087 H1102 0.961 . S
C1087 H1103 0.960 . S
H1088 C1072 0.931 . S
H1089 C1077 0.929 . S
H1090 C1078 0.960 . S
H1091 C1078 0.962 . S
H1092 C1078 0.960 . S
H1093 C1079 0.961 . S
H1094 C1079 0.961 . S
H1095 C1079 0.961 . S
H1096 C1080 0.931 1_545 S
H1097 C1085 0.930 . S
H1098 C1086 0.956 . S
H1099 C1086 0.961 . S
H1100 C1086 0.961 . S
H1101 C1087 0.958 . S
H1102 C1087 0.961 . S
H1103 C1087 0.960 . S
C1104 C1105 1.391 . S
C1104 C1106 1.394 . S
C1104 H1120 0.931 . S
C1105 C1104 1.391 . S
C1105 C1109 1.376 . S
C1106 C1104 1.394 . S
C1106 C1107 1.369 . S
C1106 C1110 1.531 . S
C1107 C1106 1.369 . S
C1107 C1108 1.410 . S
C1107 C1115 1.503 . S
C1108 C1107 1.410 . S
C1108 C1109 1.392 . S
C1108 C1111 1.511 . S
C1109 C1105 1.376 . S
C1109 C1108 1.392 . S
C1109 H1121 0.929 . S
C1110 C1106 1.531 . S
C1110 H1122 0.960 . S
C1110 H1123 0.962 . S
C1110 H1124 0.960 . S
C1111 C1108 1.511 . S
C1111 H1125 0.961 . S
C1111 H1126 0.961 . S
C1111 H1127 0.961 . S
C1112 C1113 1.370 . S
C1112 C1114 1.363 . S
C1112 H1128 0.931 . S
C1113 C1112 1.370 . S
C1113 C1117 1.408 . S
C1114 C1112 1.363 . S
C1114 C1115 1.370 . S
C1114 C1118 1.524 . S
C1115 C1107 1.503 . S
C1115 C1114 1.370 . S
C1115 C1116 1.403 . S
C1116 C1115 1.403 . S
C1116 C1117 1.404 . S
C1116 C1119 1.539 . S
C1117 C1113 1.408 . S
C1117 C1116 1.404 . S
C1117 H1129 0.930 1_545 S
C1118 C1114 1.524 . S
C1118 H1130 0.956 . S
C1118 H1131 0.961 . S
C1118 H1132 0.961 . S
C1119 C1116 1.539 . S
C1119 H1133 0.958 . S
C1119 H1134 0.961 . S
C1119 H1135 0.960 . S
H1120 C1104 0.931 . S
H1121 C1109 0.929 . S
H1122 C1110 0.960 . S
H1123 C1110 0.962 . S
H1124 C1110 0.960 . S
H1125 C1111 0.961 . S
H1126 C1111 0.961 . S
H1127 C1111 0.961 . S
H1128 C1112 0.931 . S
H1129 C1117 0.930 1_565 S
H1130 C1118 0.956 . S
H1131 C1118 0.961 . S
H1132 C1118 0.961 . S
H1133 C1119 0.958 . S
H1134 C1119 0.961 . S
H1135 C1119 0.960 . S
C1136 C1137 1.391 . S
C1136 C1138 1.394 . S
C1136 H1152 0.931 . S
C1137 C1136 1.391 . S
C1137 C1141 1.376 . S
C1138 C1136 1.394 . S
C1138 C1139 1.369 . S
C1138 C1142 1.531 . S
C1139 C1138 1.369 . S
C1139 C1140 1.410 . S
C1139 C1147 1.503 . S
C1140 C1139 1.410 . S
C1140 C1141 1.392 . S
C1140 C1143 1.511 . S
C1141 C1137 1.376 . S
C1141 C1140 1.392 . S
C1141 H1153 0.929 . S
C1142 C1138 1.531 . S
C1142 H1154 0.960 . S
C1142 H1155 0.962 . S
C1142 H1156 0.960 . S
C1143 C1140 1.511 . S
C1143 H1157 0.961 . S
C1143 H1158 0.961 . S
C1143 H1159 0.961 . S
C1144 C1145 1.370 . S
C1144 C1146 1.363 . S
C1144 H1160 0.931 . S
C1145 C1144 1.370 . S
C1145 C1149 1.408 . S
C1146 C1144 1.363 . S
C1146 C1147 1.370 . S
C1146 C1150 1.524 . S
C1147 C1139 1.503 . S
C1147 C1146 1.370 . S
C1147 C1148 1.403 . S
C1148 C1147 1.403 . S
C1148 C1149 1.404 . S
C1148 C1151 1.539 . S
C1149 C1145 1.408 . S
C1149 C1148 1.404 . S
C1149 H1161 0.930 . S
C1150 C1146 1.524 . S
C1150 H1162 0.956 . S
C1150 H1163 0.961 . S
C1150 H1164 0.961 . S
C1151 C1148 1.539 . S
C1151 H1165 0.958 . S
C1151 H1166 0.961 . S
C1151 H1167 0.960 . S
H1152 C1136 0.931 . S
H1153 C1141 0.929 . S
H1154 C1142 0.960 . S
H1155 C1142 0.962 . S
H1156 C1142 0.960 . S
H1157 C1143 0.961 . S
H1158 C1143 0.961 . S
H1159 C1143 0.961 . S
H1160 C1144 0.931 . S
H1161 C1149 0.930 . S
H1162 C1150 0.956 . S
H1163 C1150 0.961 . S
H1164 C1150 0.961 . S
H1165 C1151 0.958 . S
H1166 C1151 0.961 . S
H1167 C1151 0.960 . S
C1168 C1169 1.391 . S
C1168 C1170 1.394 . S
C1168 H1184 0.931 . S
C1169 C1168 1.391 . S
C1169 C1173 1.376 . S
C1170 C1168 1.394 . S
C1170 C1171 1.369 . S
C1170 C1174 1.531 . S
C1171 C1170 1.369 . S
C1171 C1172 1.410 . S
C1171 C1179 1.503 . S
C1172 C1171 1.410 . S
C1172 C1173 1.392 . S
C1172 C1175 1.511 . S
C1173 C1169 1.376 . S
C1173 C1172 1.392 . S
C1173 H1185 0.929 . S
C1174 C1170 1.531 . S
C1174 H1186 0.960 . S
C1174 H1187 0.962 . S
C1174 H1188 0.960 . S
C1175 C1172 1.511 . S
C1175 H1189 0.961 . S
C1175 H1190 0.961 . S
C1175 H1191 0.961 . S
C1176 C1177 1.370 . S
C1176 C1178 1.363 . S
C1176 H1192 0.931 . S
C1177 C1176 1.370 . S
C1177 C1181 1.408 . S
C1178 C1176 1.363 . S
C1178 C1179 1.370 . S
C1178 C1182 1.524 . S
C1179 C1171 1.503 . S
C1179 C1178 1.370 . S
C1179 C1180 1.403 . S
C1180 C1179 1.403 . S
C1180 C1181 1.404 . S
C1180 C1183 1.539 . S
C1181 C1177 1.408 . S
C1181 C1180 1.404 . S
C1181 H1193 0.930 . S
C1182 C1178 1.524 . S
C1182 H1194 0.956 . S
C1182 H1195 0.961 . S
C1182 H1196 0.961 . S
C1183 C1180 1.539 . S
C1183 H1197 0.958 . S
C1183 H1198 0.961 . S
C1183 H1199 0.960 . S
H1184 C1168 0.931 . S
H1185 C1173 0.929 . S
H1186 C1174 0.960 . S
H1187 C1174 0.962 . S
H1188 C1174 0.960 . S
H1189 C1175 0.961 . S
H1190 C1175 0.961 . S
H1191 C1175 0.961 . S
H1192 C1176 0.931 . S
H1193 C1181 0.930 . S
H1194 C1182 0.956 . S
H1195 C1182 0.961 . S
H1196 C1182 0.961 . S
H1197 C1183 0.958 . S
H1198 C1183 0.961 . S
H1199 C1183 0.960 . S
C1200 C1201 1.391 . S
C1200 C1202 1.394 . S
C1200 H1216 0.931 . S
C1201 C1200 1.391 . S
C1201 C1205 1.376 . S
C1202 C1200 1.394 . S
C1202 C1203 1.369 . S
C1202 C1206 1.531 . S
C1203 C1202 1.369 . S
C1203 C1204 1.410 . S
C1203 C1211 1.503 . S
C1204 C1203 1.410 . S
C1204 C1205 1.392 . S
C1204 C1207 1.511 . S
C1205 C1201 1.376 . S
C1205 C1204 1.392 . S
C1205 H1217 0.929 . S
C1206 C1202 1.531 . S
C1206 H1218 0.960 . S
C1206 H1219 0.962 . S
C1206 H1220 0.960 . S
C1207 C1204 1.511 . S
C1207 H1221 0.961 . S
C1207 H1222 0.961 . S
C1207 H1223 0.961 . S
C1208 C1209 1.370 . S
C1208 C1210 1.363 . S
C1208 H1224 0.931 1_545 S
C1209 C1208 1.370 . S
C1209 C1213 1.408 . S
C1210 C1208 1.363 . S
C1210 C1211 1.370 . S
C1210 C1214 1.524 . S
C1211 C1203 1.503 . S
C1211 C1210 1.370 . S
C1211 C1212 1.403 . S
C1212 C1211 1.403 . S
C1212 C1213 1.404 . S
C1212 C1215 1.539 . S
C1213 C1209 1.408 . S
C1213 C1212 1.404 . S
C1213 H1225 0.930 . S
C1214 C1210 1.524 . S
C1214 H1226 0.956 . S
C1214 H1227 0.961 . S
C1214 H1228 0.961 . S
C1215 C1212 1.539 . S
C1215 H1229 0.958 . S
C1215 H1230 0.961 . S
C1215 H1231 0.960 . S
H1216 C1200 0.931 . S
H1217 C1205 0.929 . S
H1218 C1206 0.960 . S
H1219 C1206 0.962 . S
H1220 C1206 0.960 . S
H1221 C1207 0.961 . S
H1222 C1207 0.961 . S
H1223 C1207 0.961 . S
H1224 C1208 0.931 1_565 S
H1225 C1213 0.930 . S
H1226 C1214 0.956 . S
H1227 C1214 0.961 . S
H1228 C1214 0.961 . S
H1229 C1215 0.958 . S
H1230 C1215 0.961 . S
H1231 C1215 0.960 . S
C209 C185 1.503 . S
C217 C3 1.507 . S
C241 C30 1.505 . S
C249 C4 1.505 . S
C273 C153 1.500 . S
C281 C17 1.508 . S
C305 C16 1.502 . S
C313 C96 1.507 . S
C337 C29 1.504 . S
C345 C159 1.507 . S
C369 C127 1.500 . S
C377 C49 1.508 . S
C401 C44 1.502 . S
C409 C68 1.507 . S
C433 C135 1.504 . S
C441 C55 1.507 . S
C465 C56 1.505 . S
C473 C82 1.506 . S
C497 C205 1.501 . S
C505 C69 1.507 . S
C529 C107 1.502 . S
C537 C81 1.507 . S
C561 C179 1.506 . S
C569 C101 1.505 . S
C593 C108 1.501 . S
C601 C140 1.508 . S
C625 C200 1.503 . S
C633 C122 1.507 . S
C657 C148 1.502 . S
C665 C174 1.507 . S
C689 C186 1.502 . S
C697 C160 1.507 . S
C721 C70 1.570 . S
C729 C10 1.576 1_565 S
C753 C5 1.570 . S
C761 C75 1.575 . S
C785 C18 1.570 . S
C793 C62 1.576 . S
C817 C57 1.573 . S
C825 C23 1.573 1_565 S
C849 C94 1.571 . S
C857 C36 1.576 1_545 S
C881 C95 1.574 . S
C889 C31 1.575 . S
C913 C88 1.573 . S
C921 C42 1.575 . S
C945 C43 1.574 1_545 S
C953 C83 1.575 . S
C977 C172 1.573 . S
C985 C114 1.574 1_565 S
C1009 C109 1.570 . S
C1017 C173 1.576 . S
C1041 C120 1.573 . S
C1049 C166 1.573 . S
C1073 C161 1.573 . S
C1081 C121 1.574 1_565 S
C1105 C198 1.571 . S
C1113 C134 1.576 1_545 S
C1137 C199 1.574 . S
C1145 C133 1.575 . S
C1169 C146 1.572 . S
C1177 C192 1.575 . S
C1201 C187 1.573 . S
C1209 C147 1.573 1_545 S
