# Generated by pormake.
# Topology yfh, (5)-cn, num edge types: 1
# Building blocks:
#     Node 0, Type 0, BuildingBlock: XOMCOT_clean_sbu_0, # of connection points: 5
#     Node 1, Type 0, BuildingBlock: XOMCOT_clean_sbu_0, # of connection points: 5
#     Node 2, Type 0, BuildingBlock: XOMCOT_clean_sbu_0, # of connection points: 5
#     Node 3, Type 0, BuildingBlock: XOMCOT_clean_sbu_0, # of connection points: 5
#     Node 4, Type 0, BuildingBlock: XOMCOT_clean_sbu_0, # of connection points: 5
#     Node 5, Type 0, BuildingBlock: XOMCOT_clean_sbu_0, # of connection points: 5
#     Node 6, Type 0, BuildingBlock: XOMCOT_clean_sbu_0, # of connection points: 5
#     Node 7, Type 0, BuildingBlock: XOMCOT_clean_sbu_0, # of connection points: 5
#     Edge 8, Type (0, 0), BuildingBlock: EZIPEK_clean_linker_0, # of connection points: 2
#     Edge 9, Type (0, 0), BuildingBlock: EZIPEK_clean_linker_0, # of connection points: 2
#     Edge 10, Type (0, 0), BuildingBlock: EZIPEK_clean_linker_0, # of connection points: 2
#     Edge 11, Type (0, 0), BuildingBlock: EZIPEK_clean_linker_0, # of connection points: 2
#     Edge 12, Type (0, 0), BuildingBlock: EZIPEK_clean_linker_0, # of connection points: 2
#     Edge 13, Type (0, 0), BuildingBlock: EZIPEK_clean_linker_0, # of connection points: 2
#     Edge 14, Type (0, 0), BuildingBlock: EZIPEK_clean_linker_0, # of connection points: 2
#     Edge 15, Type (0, 0), BuildingBlock: EZIPEK_clean_linker_0, # of connection points: 2
#     Edge 16, Type (0, 0), BuildingBlock: EZIPEK_clean_linker_0, # of connection points: 2
#     Edge 17, Type (0, 0), BuildingBlock: EZIPEK_clean_linker_0, # of connection points: 2
#     Edge 18, Type (0, 0), BuildingBlock: EZIPEK_clean_linker_0, # of connection points: 2
#     Edge 19, Type (0, 0), BuildingBlock: EZIPEK_clean_linker_0, # of connection points: 2
#     Edge 20, Type (0, 0), BuildingBlock: EZIPEK_clean_linker_0, # of connection points: 2
#     Edge 21, Type (0, 0), BuildingBlock: EZIPEK_clean_linker_0, # of connection points: 2
#     Edge 22, Type (0, 0), BuildingBlock: EZIPEK_clean_linker_0, # of connection points: 2
#     Edge 23, Type (0, 0), BuildingBlock: EZIPEK_clean_linker_0, # of connection points: 2
#     Edge 24, Type (0, 0), BuildingBlock: EZIPEK_clean_linker_0, # of connection points: 2
#     Edge 25, Type (0, 0), BuildingBlock: EZIPEK_clean_linker_0, # of connection points: 2
#     Edge 26, Type (0, 0), BuildingBlock: EZIPEK_clean_linker_0, # of connection points: 2
#     Edge 27, Type (0, 0), BuildingBlock: EZIPEK_clean_linker_0, # of connection points: 2
# Relax obj value: 0.411
# Max RMSD: 0.270
# Mean RMSD: 0.270
data_MOF--net-yfh--node1-XOMCOT_clean_sbu_0--edge1-EZIPEK_clean_linker_0
_symmetry_space_group_name_H-M    P1
_symmetry_Int_Tables_number       1
_symmetry_cell_setting            triclinic
loop_
_symmetry_equiv_pos_as_xyz
'x, y, z'
_cell_length_a     20.509489
_cell_length_b     20.600095
_cell_length_c     47.265007
_cell_angle_alpha  90.163209
_cell_angle_beta   90.122608
_cell_angle_gamma 90.234429
loop_
_atom_site_label
_atom_site_type_symbol
_atom_site_fract_x
_atom_site_fract_y
_atom_site_fract_z
_atom_type_partial_charge
Co0 Co 0.34777 0.04231 0.08121 0.0
C1 C 0.24695 0.0775 0.0398 0.0
C2 C 0.20876 1.01679 0.07281 0.0
C3 C 0.15882 0.03095 0.05434 0.0
N4 N 0.26375 0.04556 0.06344 0.0
N5 N 0.1833 0.06913 0.03385 0.0
H6 H 0.28036 0.1061 0.02719 0.0
H7 H 0.20528 0.98767 0.09175 0.0
C8 C 0.36636 0.89765 0.08595 0.0
O9 O 0.42504 0.9051 0.0753 0.0
N10 N 0.43156 0.0378 0.10061 0.0
C11 C 0.48901 0.06832 0.09566 0.0
C12 C 0.5324 0.05335 0.117 0.0
C13 C 0.44074 1.00629 0.12529 0.0
N14 N 0.50172 1.01419 0.13538 0.0
C15 C 0.42531 0.07107 0.03289 0.0
C16 C 0.3917 0.96515 4e-05 0.0
C17 C 0.43254 1.01314 -0.01121 0.0
C18 C 0.44942 0.0663 0.00554 0.0
C19 C 0.36808 0.97221 0.02769 0.0
N20 N 0.38705 0.02347 0.04434 0.0
H21 H 0.4346 0.11561 0.04408 0.0
H22 H 0.33258 0.93787 0.03505 0.0
H23 H 0.4992 0.10175 0.07882 0.0
H24 H 0.4028 0.97965 0.13618 0.0
O25 O 0.35349 0.13536 0.07886 0.0
O26 O 0.31047 0.08326 0.11498 0.0
O27 O 0.33035 0.94725 0.09027 0.0
C28 C 0.32422 0.13875 0.10302 0.0
H29 H 0.1086 1.01498 0.05581 0.0
H30 H 0.58168 0.07157 0.11942 0.0
H31 H 0.37597 0.92441 -0.01284 0.0
H32 H 0.47903 0.10538 -0.0029 0.0
Co33 Co 0.49873 0.80533 0.33242 0.0
C34 C 0.48531 0.70123 0.29008 0.0
C35 C 0.54275 0.67176 0.32584 0.0
C36 C 0.54031 0.62092 0.30693 0.0
N37 N 0.50877 0.72192 0.31506 0.0
N38 N 0.50395 0.63987 0.28474 0.0
H39 H 0.45599 0.7304 0.27596 0.0
H40 H 0.56787 0.67232 0.34598 0.0
C41 C 0.63893 0.84006 0.34872 0.0
O42 O 0.62653 0.90249 0.348 0.0
N43 N 0.48943 0.88834 0.35145 0.0
C44 C 0.46409 0.94522 0.34244 0.0
C45 C 0.46614 0.98951 0.36439 0.0
C46 C 0.50499 0.89857 0.37883 0.0
N47 N 0.4921 0.95977 0.38702 0.0
C48 C 0.4697 0.87307 0.28157 0.0
C49 C 0.59262 0.87337 0.25789 0.0
C50 C 0.5408 0.90187 0.24313 0.0
C51 C 0.47886 0.90089 0.25517 0.0
C52 C 0.58101 0.84464 0.28434 0.0
N53 N 0.52043 0.84704 0.29646 0.0
H54 H 0.42094 0.87303 0.28996 0.0
H55 H 0.62051 0.81921 0.29438 0.0
H56 H 0.44474 0.95487 0.3217 0.0
H57 H 0.52643 0.86214 0.3924 0.0
O58 O 0.40595 0.79989 0.32695 0.0
O59 O 0.45643 0.76317 0.36479 0.0
O60 O 0.5935 0.79876 0.34396 0.0
C61 C 0.40167 0.7709 0.35109 0.0
H62 H 0.56333 0.574 0.30911 0.0
H63 H 0.45028 0.03954 0.36382 0.0
H64 H 0.64105 0.87219 0.24882 0.0
H65 H 0.43755 0.92171 0.24416 0.0
Co66 Co 0.69966 0.98622 0.58271 0.0
C67 C 0.80435 0.9586 0.54006 0.0
C68 C 0.83652 1.0187 0.57443 0.0
C69 C 0.8883 1.00964 0.55642 0.0
N70 N 0.78338 0.98814 0.56383 0.0
N71 N 0.86765 0.97146 0.5351 0.0
H72 H 0.77574 0.92723 0.52669 0.0
H73 H 0.83743 0.04607 0.59399 0.0
C74 C 0.72738 0.12727 0.57276 0.0
O75 O 0.73547 0.11146 0.54604 0.0
N76 N 0.61826 0.98548 0.60292 0.0
C77 C 0.56189 0.95545 0.59589 0.0
C78 C 0.5169 0.96669 0.61706 0.0
C79 C 0.60743 1.01378 0.62814 0.0
N80 N 0.54621 1.00287 0.63723 0.0
C81 C 0.65033 0.9511 0.5283 0.0
C82 C 0.5766 0.0604 0.51814 0.0
C83 C 0.58109 1.01224 0.49728 0.0
C84 C 0.61714 0.95659 0.50282 0.0
C85 C 0.61111 0.0528 0.54358 0.0
N86 N 0.65133 1.00065 0.54756 0.0
H87 H 0.67428 0.90581 0.53258 0.0
H88 H 0.60517 0.08864 0.56001 0.0
H89 H 0.55418 0.92711 0.57687 0.0
H90 H 0.6438 0.04126 0.63977 0.0
O91 O 0.69866 0.8926 0.58139 0.0
O92 O 0.74376 0.94989 0.61594 0.0
O93 O 0.71045 0.08339 0.59064 0.0
C94 C 0.73064 0.89306 0.60496 0.0
H95 H 0.93723 0.02879 0.55883 0.0
H96 H 0.46714 0.94911 0.61786 0.0
H97 H 0.54674 0.10295 0.51483 0.0
H98 H 0.61914 0.91722 0.48759 0.0
Co99 Co 0.54265 0.23309 0.82911 0.0
C100 C 0.55066 0.33562 0.7845 0.0
C101 C 0.51271 0.3716 0.82357 0.0
C102 C 0.51338 0.42185 0.80442 0.0
N103 N 0.53469 0.31704 0.8109 0.0
N104 N 0.5379 0.39869 0.7801 0.0
H105 H 0.5721 0.30536 0.76855 0.0
H106 H 0.49907 0.37528 0.84549 0.0
C107 C 0.39874 0.25811 0.82549 0.0
O108 O 0.40814 0.27513 0.79906 0.0
N109 N 0.55002 0.15124 0.84829 0.0
C110 C 0.57563 0.09494 0.83889 0.0
C111 C 0.56399 0.04746 0.85887 0.0
C112 C 0.52454 0.13797 0.87378 0.0
N113 N 0.53228 0.07513 0.88072 0.0
C114 C 0.57063 0.18429 0.77385 0.0
C115 C 0.45848 0.11176 0.7662 0.0
C116 C 0.50463 0.11484 0.74443 0.0
C117 C 0.56162 0.15058 0.74867 0.0
C118 C 0.46988 0.14636 0.79135 0.0
N119 N 0.52323 0.18596 0.79411 0.0
H120 H 0.61632 0.20941 0.77685 0.0
H121 H 0.43714 0.13953 0.8089 0.0
H122 H 0.59931 0.08836 0.81868 0.0
H123 H 0.49889 0.1731 0.88665 0.0
O124 O 0.63588 0.23749 0.82482 0.0
O125 O 0.5832 0.27633 0.86169 0.0
O126 O 0.44675 0.2381 0.84057 0.0
C127 C 0.63879 0.26767 0.84885 0.0
H128 H 0.49918 0.47167 0.80822 0.0
H129 H 0.57674 0.99664 0.85736 0.0
H130 H 0.41516 0.08191 0.76401 0.0
H131 H 0.59935 0.1519 0.73265 0.0
Co132 Co 0.80746 0.48712 0.6314 0.0
C133 C 0.69845 0.46896 0.67296 0.0
C134 C 0.66876 0.51569 0.63466 0.0
C135 C 0.61569 0.51261 0.65239 0.0
N136 N 0.72096 0.48931 0.64774 0.0
N137 N 0.63495 0.48304 0.67626 0.0
H138 H 0.72675 0.44549 0.68909 0.0
H139 H 0.66981 0.53742 0.61386 0.0
C140 C 0.77723 0.62755 0.63983 0.0
O141 O 0.76356 0.61168 0.66607 0.0
N142 N 0.89194 0.48621 0.61373 0.0
C143 C 0.94704 0.45721 0.62277 0.0
C144 C 0.99592 0.46927 0.60339 0.0
C145 C 0.90747 0.51487 0.58911 0.0
N146 N 0.9704 0.50501 0.58229 0.0
C147 C 0.85093 0.45482 0.68709 0.0
C148 C 0.9226 0.56601 0.69778 0.0
C149 C 0.91879 0.51777 0.71847 0.0
C150 C 0.88342 0.46131 0.71278 0.0
C151 C 0.88971 0.55705 0.67207 0.0
N152 N 0.85068 0.50384 0.66767 0.0
H153 H 0.82642 0.40946 0.68282 0.0
H154 H 0.89664 0.59243 0.65565 0.0
H155 H 0.95136 0.42924 0.642 0.0
H156 H 0.87338 0.54215 0.57634 0.0
O157 O 0.80805 0.39349 0.63337 0.0
O158 O 0.76863 0.44882 0.59721 0.0
O159 O 0.79793 0.58379 0.62262 0.0
C160 C 0.77968 0.39259 0.60894 0.0
H161 H 0.5674 0.53157 0.64844 0.0
H162 H 0.04589 0.45276 0.60448 0.0
H163 H 0.95168 0.60932 0.70126 0.0
H164 H 0.88133 0.42225 0.72807 0.0
Co165 Co 0.04165 0.34405 0.88759 0.0
C166 C 0.07444 0.24853 0.9315 0.0
C167 C 1.00947 0.20899 0.90006 0.0
C168 C 0.02271 0.16123 0.91953 0.0
N169 N 0.04163 0.26348 0.90776 0.0
N170 N 0.06355 0.18646 0.93903 0.0
H171 H 0.10583 0.28195 0.94291 0.0
H172 H 0.97908 0.20417 0.88144 0.0
C173 C 0.89832 0.36739 0.87562 0.0
O174 O 0.90793 0.43032 0.87753 0.0
N175 N 0.04099 0.4238 0.86584 0.0
C176 C 0.0653 0.48367 0.87145 0.0
C177 C 0.05538 0.52283 0.8482 0.0
C178 C 1.01802 0.42731 0.83916 0.0
N179 N 0.02534 0.48701 0.82821 0.0
C180 C 0.07215 0.42439 0.93474 0.0
C181 C 0.95801 0.40759 0.96478 0.0
C182 C 1.00931 0.44347 0.97682 0.0
C183 C 0.06641 0.45217 0.96138 0.0
C184 C 0.96603 0.37982 0.93784 0.0
N185 N 0.02222 0.38969 0.92282 0.0
H186 H 0.11835 0.42936 0.92418 0.0
H187 H 0.92827 0.34802 0.92993 0.0
H188 H 0.08954 0.49878 0.89058 0.0
H189 H 0.99592 0.38686 0.82797 0.0
O190 O 0.13519 0.3474 0.89022 0.0
O191 O 0.08189 0.3005 0.85514 0.0
O192 O 0.94606 0.32834 0.87893 0.0
C193 C 0.13791 0.31565 0.86661 0.0
H194 H 1.00459 0.1118 0.91932 0.0
H195 H 0.06899 0.5734 0.84607 0.0
H196 H 0.91368 0.39871 0.97658 0.0
H197 H 0.10745 0.47854 0.97032 0.0
Co198 Co 0.24011 0.54398 0.13559 0.0
C199 C 0.34456 0.54708 0.18026 0.0
C200 C 0.37749 0.50872 0.14074 0.0
C201 C 0.42923 0.50863 0.1593 0.0
N202 N 0.32398 0.53191 0.15395 0.0
N203 N 0.40822 0.53398 0.18382 0.0
H204 H 0.31574 0.56955 0.19647 0.0
H205 H 0.37974 0.49581 0.11868 0.0
C206 C 0.25964 0.40043 0.13976 0.0
O207 O 0.27461 0.4104 0.16645 0.0
N208 N 0.15844 0.55509 0.11614 0.0
C209 C 0.10596 0.58947 0.12445 0.0
C210 C 0.05744 0.582 0.10437 0.0
C211 C 0.14191 0.52803 0.09122 0.0
N212 N 0.0807 0.54375 0.08357 0.0
C213 C 0.193 0.57368 0.19077 0.0
C214 C 0.10935 0.46931 0.19676 0.0
C215 C 0.11493 0.51493 0.21868 0.0
C216 C 0.15663 0.56782 0.21535 0.0
C217 C 0.1473 0.47706 0.1723 0.0
N218 N 0.19144 0.52684 0.17025 0.0
H219 H 0.22208 0.61694 0.18827 0.0
H220 H 0.1395 0.44453 0.15469 0.0
H221 H 0.10287 0.61716 0.14387 0.0
H222 H 0.1737 0.49686 0.07903 0.0
O223 O 0.2477 0.63689 0.14014 0.0
O224 O 0.28607 0.58272 0.10339 0.0
O225 O 0.24169 0.44817 0.12416 0.0
C226 C 0.27856 0.63825 0.11634 0.0
H227 H 0.47894 0.49456 0.15479 0.0
H228 H 1.00895 0.60251 0.10499 0.0
H229 H 0.07533 0.42915 0.19832 0.0
H230 H 0.1602 0.60512 0.23151 0.0
Co231 Co 0.99767 0.70362 0.3864 0.0
C232 C 0.97404 0.79864 0.43161 0.0
C233 C 0.03752 0.83665 0.39946 0.0
C234 C 0.02763 0.88445 0.41939 0.0
N235 N 1.0041 0.78315 0.40731 0.0
N236 N 0.9878 0.86004 0.43933 0.0
H237 H 0.94199 0.7663 0.44312 0.0
H238 H 0.06598 0.84097 0.38032 0.0
C239 C 0.13902 0.6746 0.37283 0.0
O240 O 0.12709 0.61205 0.37453 0.0
N241 N 0.99188 0.62469 0.36385 0.0
C242 C 0.96359 0.56656 0.36925 0.0
C243 C 0.97079 0.52674 0.34596 0.0
C244 C 1.01415 0.61967 0.33708 0.0
N245 N 1.00277 0.56043 0.326 0.0
C246 C 0.96957 0.62243 0.43337 0.0
C247 C 0.08558 0.63909 0.46231 0.0
C248 C 0.03472 0.60406 0.4749 0.0
C249 C 0.97669 0.59526 0.46002 0.0
C250 C 0.07635 0.66581 0.43532 0.0
N251 N 1.01919 0.65605 0.42082 0.0
H252 H 0.92226 0.61894 0.42357 0.0
H253 H 0.11376 0.69738 0.42707 0.0
H254 H 0.93864 0.55291 0.38831 0.0
H255 H 0.03916 0.65841 0.32605 0.0
O256 O 0.90462 0.70464 0.39116 0.0
O257 O 0.95552 0.751 0.35548 0.0
O258 O 0.09274 0.71533 0.37614 0.0
C259 C 0.90053 0.73912 0.36841 0.0
H260 H 0.04687 0.93345 0.4191 0.0
H261 H 0.95425 0.47699 0.34384 0.0
H262 H 0.13054 0.64821 0.47373 0.0
H263 H 0.93588 0.56984 0.4695 0.0
C264 C 0.10361 0.14589 0.0142 0.0
C265 C 0.14909 0.09535 0.0101 0.0
C266 C 0.13866 0.10551 0.95888 0.0
C267 C 0.0907 0.15375 0.96297 0.0
N268 N 1.01646 0.20956 -0.0063 0.0
N269 N 0.19839 1.01619 0.97963 0.0
C270 C 0.06978 0.17089 -0.00954 0.0
C271 C 0.16316 0.07181 0.98269 0.0
N272 N 0.09493 0.17157 0.04057 0.0
N273 N 0.1626 0.09401 0.93242 0.0
H274 H 0.21658 0.99048 -0.00309 0.0
H275 H 0.20461 0.99278 0.96027 0.0
H276 H 0.14625 0.11901 0.91461 0.0
H277 H 0.2022 0.06381 0.92851 0.0
H278 H 0.06676 0.21253 0.0445 0.0
H279 H 0.1201 0.15483 0.05829 0.0
H280 H 0.99449 0.21813 0.0132 0.0
H281 H 0.99075 0.22829 0.97651 0.0
C282 C 0.49126 0.60164 0.20797 0.0
C283 C 0.44522 0.55008 0.20862 0.0
C284 C 0.44448 0.55229 0.26024 0.0
C285 C 0.49008 0.60388 0.25954 0.0
N286 N 0.56957 0.66665 0.2343 0.0
N287 N 0.39081 0.46548 0.23423 0.0
C288 C 0.51787 0.62467 0.23379 0.0
C289 C 0.42649 0.52157 0.23454 0.0
N290 N 0.50608 0.63151 0.18304 0.0
N291 N 0.41553 0.53567 0.2852 0.0
H292 H 0.3778 0.44224 0.21537 0.0
H293 H 0.37948 0.43916 0.25236 0.0
H294 H 0.42721 0.55816 0.30435 0.0
H295 H 0.37681 0.50301 0.28665 0.0
H296 H 0.53305 0.67434 0.18179 0.0
H297 H 0.48786 0.61622 0.16357 0.0
H298 H 0.59609 0.67936 0.21637 0.0
H299 H 0.58965 0.68405 0.25318 0.0
C300 C 0.98767 0.87974 0.49047 0.0
C301 C 0.96213 0.89338 0.46337 0.0
C302 C 0.8844 0.9694 0.48378 0.0
C303 C 0.90415 0.94952 0.51111 0.0
N304 N 0.97037 0.88211 0.54113 0.0
N305 N 0.88269 0.94491 0.4336 0.0
C306 C 0.95525 0.90416 0.51471 0.0
C307 C 0.90974 0.93693 0.45979 0.0
N308 N 0.04328 0.8439 0.49276 0.0
N309 N 0.84233 0.02022 0.481 0.0
H310 H 0.90038 0.92136 0.41563 0.0
H311 H 0.84 0.97083 0.43 0.0
H312 H 0.82454 0.04587 0.4984 0.0
H313 H 0.82991 0.04073 0.46162 0.0
H314 H 0.06822 0.83701 0.51172 0.0
H315 H 0.06729 0.82501 0.47513 0.0
H316 H 1.00238 0.84402 0.54492 0.0
H317 H 0.94755 0.89907 0.55934 0.0
C318 C 0.54878 0.42578 0.70268 0.0
C319 C 0.5985 0.47343 0.70172 0.0
C320 C 0.60102 0.47999 0.75323 0.0
C321 C 0.5509 0.43258 0.75427 0.0
N322 N 0.46542 0.37308 0.7309 0.0
N323 N 0.65822 0.55919 0.72461 0.0
C324 C 0.52057 0.41014 0.72915 0.0
C325 C 0.61963 0.50529 0.72664 0.0
N326 N 0.53188 0.39254 0.67872 0.0
N327 N 0.6343 0.49693 0.77721 0.0
H328 H 0.67128 0.57886 0.7051 0.0
H329 H 0.67141 0.5877 0.74196 0.0
H330 H 0.6236 0.47779 0.79704 0.0
H331 H 0.67605 0.52589 0.77707 0.0
H332 H 0.50104 0.35224 0.67869 0.0
H333 H 0.55245 0.40244 0.65904 0.0
H334 H 0.43805 0.35888 0.71334 0.0
H335 H 0.44385 0.36189 0.75028 0.0
C336 C 0.54879 0.02267 0.92721 0.0
C337 C 0.50631 0.04433 0.90554 0.0
C338 C 0.4127 0.0324 0.93693 0.0
C339 C 0.45499 1.01208 0.95898 0.0
N340 N 0.55993 0.97176 0.97327 0.0
N341 N 0.39724 0.05912 0.8879 0.0
C342 C 0.52206 1.00159 0.9534 0.0
C343 C 0.43813 0.04456 0.90978 0.0
N344 N 0.61467 0.0269 0.92347 0.0
N345 N 0.34811 0.04336 0.94134 0.0
H346 H 0.41403 0.06625 0.8673 0.0
H347 H 0.34666 0.06105 0.89026 0.0
H348 H 0.32499 0.03778 0.96081 0.0
H349 H 0.32499 0.03778 0.96081 0.0
H350 H 0.64845 0.01885 0.93953 0.0
H351 H 0.63568 0.04307 0.9047 0.0
H352 H 0.60785 0.95753 0.96967 0.0
H353 H 0.54122 0.95585 -0.00741 0.0
C354 C 0.55682 0.89603 0.19021 0.0
C355 C 0.54887 0.93379 0.21516 0.0
C356 C 0.51925 0.02842 0.18664 0.0
C357 C 0.52604 0.99037 0.16192 0.0
N358 N 0.56942 0.89603 0.1391 0.0
N359 N 0.54109 0.03932 0.23692 0.0
C360 C 0.5512 0.92675 0.16342 0.0
C361 C 0.53647 1.00139 0.21323 0.0
N362 N 0.5653 0.83042 0.19201 0.0
N363 N 0.49363 0.08932 0.18471 0.0
H364 H 0.55452 0.02056 0.25658 0.0
H365 H 0.53775 0.08973 0.23661 0.0
H366 H 0.48185 0.11057 0.16536 0.0
H367 H 0.4805 0.11713 0.20221 0.0
H368 H 0.56399 0.7996 0.17451 0.0
H369 H 0.5695 0.80601 0.2112 0.0
H370 H 0.59363 0.85168 0.13879 0.0
H371 H 0.56466 0.91782 0.11929 0.0
C372 C 0.56653 0.02093 0.41827 0.0
C373 C 0.50685 0.98744 0.41422 0.0
C374 C 0.48694 0.98697 0.46525 0.0
C375 C 0.5484 1.01743 0.4694 0.0
N376 N 0.63952 0.07725 0.45074 0.0
N377 N 0.40398 0.95016 0.43186 0.0
C378 C 0.58557 0.03949 0.44607 0.0
C379 C 0.46476 0.97468 0.4372 0.0
N380 N 0.60642 0.0314 0.39562 0.0
N381 N 0.45172 0.96711 0.4882 0.0
H382 H 0.38767 0.94034 0.41135 0.0
H383 H 0.36833 0.94375 0.44724 0.0
H384 H 0.46572 0.97803 0.50892 0.0
H385 H 0.40997 0.93841 0.48693 0.0
H386 H 0.65395 0.04888 0.39724 0.0
H387 H 0.59284 0.01936 0.37498 0.0
H388 H 0.66631 0.09926 0.43472 0.0
H389 H 0.65449 0.09103 0.47101 0.0
C390 C 0.48285 0.11706 0.69255 0.0
C391 C 0.4963 0.08005 0.71713 0.0
C392 C 0.52181 0.98557 0.68762 0.0
C393 C 0.51924 0.02576 0.66344 0.0
N394 N 0.49605 0.12805 0.64168 0.0
N395 N 0.52863 0.97936 0.73881 0.0
C396 C 0.49834 0.0909 0.66554 0.0
C397 C 0.51448 1.01383 0.71491 0.0
N398 N 0.45585 0.17732 0.6953 0.0
N399 N 0.53218 0.9206 0.68428 0.0
H400 H 0.52228 0.99807 0.75914 0.0
H401 H 0.54961 0.93345 0.73863 0.0
H402 H 0.53815 0.89936 0.66442 0.0
H403 H 0.52945 0.88713 0.70069 0.0
H404 H 0.44052 0.20544 0.67831 0.0
H405 H 0.44389 0.19716 0.71496 0.0
H406 H 0.48822 0.17792 0.64174 0.0
H407 H 0.50481 0.10884 0.62159 0.0
C408 C 0.94101 0.53474 0.79778 0.0
C409 C 1.00374 0.50728 0.80074 0.0
C410 C 1.01723 0.50423 0.74928 0.0
C411 C 0.95153 0.52455 0.74629 0.0
N412 N 0.85072 0.56185 0.76659 0.0
N413 N 0.10293 0.4666 0.78089 0.0
C414 C 0.91364 0.54161 0.77028 0.0
C415 C 0.04266 0.49314 0.77686 0.0
N416 N 0.90779 0.55322 0.82148 0.0
N417 N 0.05462 0.49498 0.7257 0.0
H418 H 0.12305 0.46029 0.80099 0.0
H419 H 0.13219 0.44873 0.76473 0.0
H420 H 0.03679 0.50142 0.70522 0.0
H421 H 0.10423 0.48484 0.72618 0.0
H422 H 0.86369 0.57791 0.82126 0.0
H423 H 0.92642 0.54676 0.84182 0.0
H424 H 0.81763 0.56876 0.78295 0.0
H425 H 0.83051 0.57036 0.74667 0.0
C426 C 1.00899 0.53723 0.0103 0.0
C427 C 1.00757 0.46903 0.00624 0.0
C428 C 0.03343 0.45344 0.05636 0.0
C429 C 0.04709 0.5205 0.05881 0.0
N430 N 0.05155 0.62697 0.03818 0.0
N431 N 0.02137 0.36111 0.02506 0.0
C432 C 0.03465 0.56298 0.03596 0.0
C433 C 1.01925 0.42665 0.02933 0.0
N434 N 0.98669 0.577 -0.01064 0.0
N435 N 0.03461 0.41566 0.08004 0.0
H436 H 1.01082 0.33953 0.00563 0.0
H437 H 0.03757 0.32848 0.04027 0.0
H438 H 0.04475 0.43482 0.10006 0.0
H439 H 1.01968 0.36729 0.08029 0.0
H440 H 0.98149 0.62696 -0.00821 0.0
H441 H 0.96755 0.55883 0.97043 0.0
H442 H 0.05039 0.65914 0.02124 0.0
H443 H 0.0713 0.64697 0.0566 0.0
C444 C 0.10739 0.48526 0.26962 0.0
C445 C 0.07663 0.51057 0.24518 0.0
C446 C 0.98836 0.55432 0.27438 0.0
C447 C 0.02416 0.53746 0.29885 0.0
N448 N 0.11758 0.48886 0.32081 0.0
N449 N 0.98791 0.56818 0.22335 0.0
C450 C 0.08319 0.50244 0.29677 0.0
C451 C 1.01638 0.54392 0.24724 0.0
N452 N 0.16006 0.44537 0.26667 0.0
N453 N 0.92767 0.58045 0.27741 0.0
H454 H 1.006 0.55902 0.20311 0.0
H455 H 0.94802 0.5992 0.22348 0.0
H456 H 0.90703 0.58902 0.29724 0.0
H457 H 0.89606 0.5893 0.26063 0.0
H458 H 0.18189 0.4209 0.28341 0.0
H459 H 0.17869 0.43238 0.24693 0.0
H460 H 0.16451 0.46988 0.32087 0.0
H461 H 0.10035 0.50019 0.34096 0.0
C462 C 0.04047 0.51199 0.50888 0.0
C463 C 0.03799 0.57992 0.50441 0.0
C464 C 1.01209 0.59652 0.55444 0.0
C465 C 1.0025 0.52893 0.55738 0.0
N466 N 1.00483 0.42126 0.53763 0.0
N467 N 1.01902 0.68793 0.5225 0.0
C468 C 1.01719 0.48609 0.53482 0.0
C469 C 0.02442 0.62275 0.52722 0.0
N470 N 0.06429 0.47256 0.48807 0.0
N471 N 1.00914 0.63525 0.57787 0.0
H472 H 0.02857 0.70911 0.50294 0.0
H473 H 1.00127 0.72048 0.53748 0.0
H474 H 1.00046 0.61642 0.598 0.0
H475 H 1.02124 0.6844 0.57777 0.0
H476 H 0.07243 0.4231 0.49074 0.0
H477 H 0.08162 0.49082 0.46891 0.0
H478 H 1.00746 0.38826 0.52096 0.0
H479 H 0.98768 0.40096 0.55637 0.0
C480 C 0.27307 0.73542 0.08442 0.0
C481 C 0.30597 0.70087 0.10598 0.0
C482 C 0.37898 0.79443 0.11382 0.0
C483 C 0.34314 0.831 0.09368 0.0
N484 N 0.24818 0.83959 0.06345 0.0
N485 N 0.38523 0.69953 0.14365 0.0
C486 C 0.28793 0.80245 0.07997 0.0
C487 C 0.3577 0.73094 0.12123 0.0
N488 N 0.22744 0.70409 0.06819 0.0
N489 N 0.4334 0.82056 0.12617 0.0
H490 H 0.37516 0.6513 0.14828 0.0
H491 H 0.41527 0.72209 0.15853 0.0
H492 H 0.44662 0.86905 0.12397 0.0
H493 H 0.46707 0.7936 0.13767 0.0
H494 H 0.20653 0.72401 0.05012 0.0
H495 H 0.2143 0.6557 0.07139 0.0
H496 H 0.2036 0.8236 0.05544 0.0
H497 H 0.25624 0.88861 0.05979 0.0
C498 C 0.77938 0.72577 0.36521 0.0
C499 C 0.83533 0.76423 0.35933 0.0
C500 C 0.7622 0.84896 0.34142 0.0
C501 C 0.70717 0.81576 0.35291 0.0
N502 N 0.66978 0.72862 0.38326 0.0
N503 N 0.8772 0.87099 0.34732 0.0
C504 C 0.7175 0.75579 0.36696 0.0
C505 C 0.82625 0.82832 0.3489 0.0
N506 N 0.78469 0.66017 0.36852 0.0
N507 N 0.7543 0.89784 0.32228 0.0
H508 H 0.92432 0.86002 0.35385 0.0
H509 H 0.87074 0.91983 0.34233 0.0
H510 H 0.70916 0.91089 0.31399 0.0
H511 H 0.79355 0.91946 0.31188 0.0
H512 H 0.74413 0.62996 0.37089 0.0
H513 H 0.82833 0.63544 0.36521 0.0
H514 H 0.67759 0.68714 0.39539 0.0
H515 H 0.62582 0.75179 0.38763 0.0
C516 C 0.79985 0.22718 0.57395 0.0
C517 C 0.73992 0.19629 0.58166 0.0
C518 C 0.70108 0.30031 0.60139 0.0
C519 C 0.76254 0.32911 0.59564 0.0
N520 N 0.87185 0.32081 0.57796 0.0
N521 N 0.63475 0.2028 0.60459 0.0
C522 C 0.812 0.29286 0.58209 0.0
C523 C 0.69093 0.23268 0.59597 0.0
N524 N 0.84579 0.19373 0.55895 0.0
N525 N 0.65181 0.33838 0.61146 0.0
H526 H 0.62255 0.15518 0.59946 0.0
H527 H 0.60127 0.2239 0.61829 0.0
H528 H 0.65784 0.38783 0.61534 0.0
H529 H 0.60373 0.32297 0.61367 0.0
H530 H 0.88524 0.21557 0.5489 0.0
H531 H 0.84391 0.14394 0.55553 0.0
H532 H 0.91343 0.29534 0.57212 0.0
H533 H 0.88078 0.36999 0.58157 0.0
C534 C 0.2788 0.22761 0.82901 0.0
C535 C 0.33239 0.26688 0.83787 0.0
C536 C 0.25561 0.3434 0.85873 0.0
C537 C 0.20294 0.29952 0.85415 0.0
N538 N 0.16973 0.19088 0.84038 0.0
N539 N 0.37036 0.35201 0.86903 0.0
C540 C 0.21572 0.23899 0.84071 0.0
C541 C 0.32041 0.32142 0.8553 0.0
N542 N 0.28756 0.17966 0.80944 0.0
N543 N 0.24417 0.4071 0.86504 0.0
H544 H 0.41738 0.33337 0.86924 0.0
H545 H 0.36292 0.38984 0.88336 0.0
H546 H 0.19756 0.42709 0.86492 0.0
H547 H 0.28146 0.44153 0.86651 0.0
H548 H 0.24887 0.15415 0.8003 0.0
H549 H 0.33278 0.16922 0.80066 0.0
H550 H 0.17946 0.14406 0.83316 0.0
H551 H 0.12446 0.19511 0.8501 0.0
C552 C 0.71017 0.73008 0.63965 0.0
C553 C 0.76762 0.6967 0.63094 0.0
C554 C 0.80516 0.79654 0.60736 0.0
C555 C 0.75013 0.83032 0.61789 0.0
N556 N 0.65843 0.83345 0.6493 0.0
N557 N 0.87609 0.70338 0.61096 0.0
C558 C 0.70555 0.79839 0.63586 0.0
C559 C 0.81688 0.73128 0.61595 0.0
N560 N 0.65788 0.69613 0.64981 0.0
N561 N 0.84584 0.82652 0.58865 0.0
H562 H 0.88746 0.65606 0.61661 0.0
H563 H 0.91612 0.72908 0.6033 0.0
H564 H 0.84216 0.87571 0.58397 0.0
H565 H 0.88092 0.80196 0.5769 0.0
H566 H 0.61266 0.71711 0.65374 0.0
H567 H 0.65687 0.64578 0.65125 0.0
H568 H 0.62856 0.81412 0.66499 0.0
H569 H 0.65405 0.88356 0.64687 0.0
C570 C 0.75972 0.2536 0.85336 0.0
C571 C 0.70346 0.29072 0.85989 0.0
C572 C 0.77538 0.37084 0.88282 0.0
C573 C 0.8311 0.34074 0.8706 0.0
N574 N 0.87107 0.25983 0.83759 0.0
N575 N 0.66088 0.39362 0.87669 0.0
C576 C 0.82197 0.28372 0.85405 0.0
C577 C 0.71187 0.35184 0.87359 0.0
N578 N 0.75427 0.18901 0.84715 0.0
N579 N 0.78225 0.41533 0.9041 0.0
H580 H 0.61411 0.38407 0.86923 0.0
H581 H 0.66702 0.44099 0.8841 0.0
H582 H 0.82707 0.42668 0.91332 0.0
H583 H 0.74252 0.43437 0.91501 0.0
H584 H 0.79479 0.15931 0.84424 0.0
H585 H 0.71021 0.16377 0.84863 0.0
H586 H 0.86412 0.22106 0.82365 0.0
H587 H 0.91565 0.28345 0.83497 0.0
C588 C 0.23095 0.28053 0.13754 0.0
C589 C 0.2692 0.3338 0.1279 0.0
C590 C 0.34879 0.25717 0.1091 0.0
C591 C 0.30652 0.20398 0.11479 0.0
N592 N 0.19819 0.16925 0.12877 0.0
N593 N 0.3538 0.37018 0.09626 0.0
C594 C 0.24497 0.21652 0.12758 0.0
C595 C 0.32465 0.32135 0.11103 0.0
N596 N 0.18102 0.29069 0.15604 0.0
N597 N 0.41295 0.24688 0.10289 0.0
H598 H 0.33327 0.41611 0.09476 0.0
H599 H 0.39228 0.36225 0.08231 0.0
H600 H 0.43417 0.201 0.10372 0.0
H601 H 0.44648 0.28471 0.10067 0.0
H602 H 0.15631 0.25291 0.16606 0.0
H603 H 0.16734 0.33681 0.1628 0.0
H604 H 0.15059 0.17834 0.13531 0.0
H605 H 0.20429 0.12285 0.12048 0.0
C606 C 0.32617 0.68662 0.37377 0.0
C607 C 0.33626 0.74842 0.36116 0.0
C608 C 0.21853 0.75709 0.35321 0.0
C609 C 0.20731 0.69925 0.3688 0.0
N610 N 0.25266 0.62187 0.40201 0.0
N611 N 0.28788 0.85127 0.34866 0.0
C612 C 0.26169 0.66762 0.38153 0.0
C613 C 0.28106 0.78651 0.35408 0.0
N614 N 0.37667 0.6444 0.37724 0.0
N615 N 0.17114 0.78246 0.33621 0.0
H616 H 0.33222 0.87571 0.35107 0.0
H617 H 0.24805 0.88169 0.3454 0.0
H618 H 0.12664 0.75936 0.33246 0.0
H619 H 0.17961 0.82198 0.32296 0.0
H620 H 0.36966 0.59659 0.3838 0.0
H621 H 0.42422 0.65443 0.37094 0.0
H622 H 0.29131 0.60169 0.41329 0.0
H623 H 0.20711 0.61039 0.41035 0.0
loop_
_geom_bond_atom_site_label_1
_geom_bond_atom_site_label_2
_geom_bond_distance
_geom_bond_site_symmetry_2
_ccdc_geom_bond_type
Co0 N4 2.148 . S
Co0 N10 2.128 . S
Co0 N20 2.194 . S
Co0 O25 2.351 . S
Co0 O26 2.155 . S
Co0 O27 2.096 . S
C1 N4 1.301 . S
C1 N5 1.328 . S
C1 H6 0.930 . S
C2 C3 1.333 . S
C2 N4 1.317 . S
C2 H7 0.930 . S
C3 C2 1.333 . S
C3 N5 1.350 . S
C3 H29 0.931 . S
N4 Co0 2.148 . S
N4 C1 1.301 . S
N4 C2 1.317 . S
N5 C1 1.328 . S
N5 C3 1.350 . S
H6 C1 0.930 . S
H7 C2 0.930 . S
C8 O9 1.224 . S
C8 O27 1.247 . S
O9 C8 1.224 . S
N10 Co0 2.128 . S
N10 C11 1.355 . S
N10 C13 1.311 . S
C11 N10 1.355 . S
C11 C12 1.363 . S
C11 H23 0.929 . S
C12 C11 1.363 . S
C12 N14 1.375 . S
C12 H30 0.931 . S
C13 N10 1.311 . S
C13 N14 1.347 . S
C13 H24 0.929 . S
N14 C12 1.375 . S
N14 C13 1.347 . S
C15 C18 1.365 . S
C15 N20 1.328 . S
C15 H21 0.929 . S
C16 C17 1.362 . S
C16 C19 1.378 . S
C16 H31 0.929 . S
C17 C16 1.362 . S
C17 C18 1.366 . S
C18 C15 1.365 . S
C18 C17 1.366 . S
C18 H32 0.930 . S
C19 C16 1.378 . S
C19 N20 1.315 . S
C19 H22 0.930 . S
N20 Co0 2.194 . S
N20 C15 1.328 . S
N20 C19 1.315 . S
H21 C15 0.929 . S
H22 C19 0.930 . S
H23 C11 0.929 . S
H24 C13 0.929 . S
O25 Co0 2.351 . S
O25 C28 1.244 . S
O26 Co0 2.155 . S
O26 C28 1.240 . S
O27 Co0 2.096 . S
O27 C8 1.247 . S
C28 O25 1.244 . S
C28 O26 1.240 . S
H29 C3 0.931 . S
H30 C12 0.931 . S
H31 C16 0.929 . S
H32 C18 0.930 . S
Co33 N37 2.148 . S
Co33 N43 2.128 . S
Co33 N53 2.194 . S
Co33 O58 2.351 . S
Co33 O59 2.155 . S
Co33 O60 2.096 . S
C34 N37 1.301 . S
C34 N38 1.328 . S
C34 H39 0.930 . S
C35 C36 1.333 . S
C35 N37 1.317 . S
C35 H40 0.930 . S
C36 C35 1.333 . S
C36 N38 1.350 . S
C36 H62 0.931 . S
N37 Co33 2.148 . S
N37 C34 1.301 . S
N37 C35 1.317 . S
N38 C34 1.328 . S
N38 C36 1.350 . S
H39 C34 0.930 . S
H40 C35 0.930 . S
C41 O42 1.224 . S
C41 O60 1.247 . S
O42 C41 1.224 . S
N43 Co33 2.128 . S
N43 C44 1.355 . S
N43 C46 1.311 . S
C44 N43 1.355 . S
C44 C45 1.363 1_565 S
C44 H56 0.929 1_565 S
C45 C44 1.363 1_545 S
C45 N47 1.375 1_545 S
C45 H63 0.931 . S
C46 N43 1.311 . S
C46 N47 1.347 . S
C46 H57 0.929 . S
N47 C45 1.375 1_565 S
N47 C46 1.347 . S
C48 C51 1.365 1_565 S
C48 N53 1.328 . S
C48 H54 0.929 . S
C49 C50 1.362 . S
C49 C52 1.378 1_545 S
C49 H64 0.929 . S
C50 C49 1.362 . S
C50 C51 1.366 . S
C51 C48 1.365 1_545 S
C51 C50 1.366 . S
C51 H65 0.930 . S
C52 C49 1.378 1_565 S
C52 N53 1.315 . S
C52 H55 0.930 . S
N53 Co33 2.194 . S
N53 C48 1.328 . S
N53 C52 1.315 . S
H54 C48 0.929 . S
H55 C52 0.930 . S
H56 C44 0.929 1_545 S
H57 C46 0.929 . S
O58 Co33 2.351 . S
O58 C61 1.244 . S
O59 Co33 2.155 . S
O59 C61 1.240 . S
O60 Co33 2.096 . S
O60 C41 1.247 . S
C61 O58 1.244 . S
C61 O59 1.240 . S
H62 C36 0.931 . S
H63 C45 0.931 . S
H64 C49 0.929 . S
H65 C51 0.930 . S
Co66 N70 2.148 . S
Co66 N76 2.128 . S
Co66 N86 2.194 . S
Co66 O91 2.351 . S
Co66 O92 2.155 . S
Co66 O93 2.096 . S
C67 N70 1.301 . S
C67 N71 1.328 . S
C67 H72 0.930 . S
C68 C69 1.333 . S
C68 N70 1.317 . S
C68 H73 0.930 . S
C69 C68 1.333 . S
C69 N71 1.350 . S
C69 H95 0.931 . S
N70 Co66 2.148 . S
N70 C67 1.301 . S
N70 C68 1.317 . S
N71 C67 1.328 . S
N71 C69 1.350 . S
H72 C67 0.930 . S
H73 C68 0.930 . S
C74 O75 1.224 . S
C74 O93 1.247 . S
O75 C74 1.224 . S
N76 Co66 2.128 . S
N76 C77 1.355 . S
N76 C79 1.311 . S
C77 N76 1.355 . S
C77 C78 1.363 . S
C77 H89 0.929 . S
C78 C77 1.363 . S
C78 N80 1.375 . S
C78 H96 0.931 . S
C79 N76 1.311 . S
C79 N80 1.347 . S
C79 H90 0.929 . S
N80 C78 1.375 . S
N80 C79 1.347 . S
C81 C84 1.365 . S
C81 N86 1.328 . S
C81 H87 0.929 . S
C82 C83 1.362 . S
C82 C85 1.378 . S
C82 H97 0.929 . S
C83 C82 1.362 . S
C83 C84 1.366 . S
C84 C81 1.365 . S
C84 C83 1.366 . S
C84 H98 0.930 . S
C85 C82 1.378 . S
C85 N86 1.315 . S
C85 H88 0.930 . S
N86 Co66 2.194 . S
N86 C81 1.328 . S
N86 C85 1.315 . S
H87 C81 0.929 . S
H88 C85 0.930 . S
H89 C77 0.929 . S
H90 C79 0.929 . S
O91 Co66 2.351 . S
O91 C94 1.244 . S
O92 Co66 2.155 . S
O92 C94 1.240 . S
O93 Co66 2.096 . S
O93 C74 1.247 . S
C94 O91 1.244 . S
C94 O92 1.240 . S
H95 C69 0.931 . S
H96 C78 0.931 . S
H97 C82 0.929 . S
H98 C84 0.930 . S
Co99 N103 2.148 . S
Co99 N109 2.128 . S
Co99 N119 2.194 . S
Co99 O124 2.351 . S
Co99 O125 2.155 . S
Co99 O126 2.096 . S
C100 N103 1.301 . S
C100 N104 1.328 . S
C100 H105 0.930 . S
C101 C102 1.333 . S
C101 N103 1.317 . S
C101 H106 0.930 . S
C102 C101 1.333 . S
C102 N104 1.350 . S
C102 H128 0.931 . S
N103 Co99 2.148 . S
N103 C100 1.301 . S
N103 C101 1.317 . S
N104 C100 1.328 . S
N104 C102 1.350 . S
H105 C100 0.930 . S
H106 C101 0.930 . S
C107 O108 1.224 . S
C107 O126 1.247 . S
O108 C107 1.224 . S
N109 Co99 2.128 . S
N109 C110 1.355 . S
N109 C112 1.311 . S
C110 N109 1.355 . S
C110 C111 1.363 1_545 S
C110 H122 0.929 1_545 S
C111 C110 1.363 1_565 S
C111 N113 1.375 1_565 S
C111 H129 0.931 . S
C112 N109 1.311 . S
C112 N113 1.347 . S
C112 H123 0.929 . S
N113 C111 1.375 1_545 S
N113 C112 1.347 . S
C114 C117 1.365 1_545 S
C114 N119 1.328 . S
C114 H120 0.929 . S
C115 C116 1.362 . S
C115 C118 1.378 1_565 S
C115 H130 0.929 . S
C116 C115 1.362 . S
C116 C117 1.366 . S
C117 C114 1.365 1_565 S
C117 C116 1.366 . S
C117 H131 0.930 . S
C118 C115 1.378 1_545 S
C118 N119 1.315 . S
C118 H121 0.930 . S
N119 Co99 2.194 . S
N119 C114 1.328 . S
N119 C118 1.315 . S
H120 C114 0.929 . S
H121 C118 0.930 . S
H122 C110 0.929 1_565 S
H123 C112 0.929 . S
O124 Co99 2.351 . S
O124 C127 1.244 . S
O125 Co99 2.155 . S
O125 C127 1.240 . S
O126 Co99 2.096 . S
O126 C107 1.247 . S
C127 O124 1.244 . S
C127 O125 1.240 . S
H128 C102 0.931 . S
H129 C111 0.931 . S
H130 C115 0.929 . S
H131 C117 0.930 . S
Co132 N136 2.148 . S
Co132 N142 2.128 . S
Co132 N152 2.194 . S
Co132 O157 2.351 . S
Co132 O158 2.155 . S
Co132 O159 2.096 . S
C133 N136 1.301 . S
C133 N137 1.328 . S
C133 H138 0.930 . S
C134 C135 1.333 . S
C134 N136 1.317 . S
C134 H139 0.930 . S
C135 C134 1.333 . S
C135 N137 1.350 . S
C135 H161 0.931 . S
N136 Co132 2.148 . S
N136 C133 1.301 . S
N136 C134 1.317 . S
N137 C133 1.328 . S
N137 C135 1.350 . S
H138 C133 0.930 . S
H139 C134 0.930 . S
C140 O141 1.224 . S
C140 O159 1.247 . S
O141 C140 1.224 . S
N142 Co132 2.128 . S
N142 C143 1.355 . S
N142 C145 1.311 . S
C143 N142 1.355 . S
C143 C144 1.363 1_655 S
C143 H155 0.929 1_655 S
C144 C143 1.363 1_455 S
C144 N146 1.375 1_455 S
C144 H162 0.931 . S
C145 N142 1.311 . S
C145 N146 1.347 . S
C145 H156 0.929 . S
N146 C144 1.375 1_655 S
N146 C145 1.347 . S
C147 C150 1.365 1_655 S
C147 N152 1.328 . S
C147 H153 0.929 . S
C148 C149 1.362 . S
C148 C151 1.378 1_455 S
C148 H163 0.929 . S
C149 C148 1.362 . S
C149 C150 1.366 . S
C150 C147 1.365 1_455 S
C150 C149 1.366 . S
C150 H164 0.930 . S
C151 C148 1.378 1_655 S
C151 N152 1.315 . S
C151 H154 0.930 . S
N152 Co132 2.194 . S
N152 C147 1.328 . S
N152 C151 1.315 . S
H153 C147 0.929 . S
H154 C151 0.930 . S
H155 C143 0.929 1_455 S
H156 C145 0.929 . S
O157 Co132 2.351 . S
O157 C160 1.244 . S
O158 Co132 2.155 . S
O158 C160 1.240 . S
O159 Co132 2.096 . S
O159 C140 1.247 . S
C160 O157 1.244 . S
C160 O158 1.240 . S
H161 C135 0.931 . S
H162 C144 0.931 . S
H163 C148 0.929 . S
H164 C150 0.930 . S
Co165 N169 2.148 . S
Co165 N175 2.128 . S
Co165 N185 2.194 . S
Co165 O190 2.351 . S
Co165 O191 2.155 . S
Co165 O192 2.096 . S
C166 N169 1.301 . S
C166 N170 1.328 . S
C166 H171 0.930 . S
C167 C168 1.333 . S
C167 N169 1.317 . S
C167 H172 0.930 . S
C168 C167 1.333 . S
C168 N170 1.350 . S
C168 H194 0.931 . S
N169 Co165 2.148 . S
N169 C166 1.301 . S
N169 C167 1.317 . S
N170 C166 1.328 . S
N170 C168 1.350 . S
H171 C166 0.930 . S
H172 C167 0.930 . S
C173 O174 1.224 . S
C173 O192 1.247 . S
O174 C173 1.224 . S
N175 Co165 2.128 . S
N175 C176 1.355 . S
N175 C178 1.311 . S
C176 N175 1.355 . S
C176 C177 1.363 . S
C176 H188 0.929 . S
C177 C176 1.363 . S
C177 N179 1.375 . S
C177 H195 0.931 . S
C178 N175 1.311 . S
C178 N179 1.347 . S
C178 H189 0.929 . S
N179 C177 1.375 . S
N179 C178 1.347 . S
C180 C183 1.365 . S
C180 N185 1.328 . S
C180 H186 0.929 . S
C181 C182 1.362 . S
C181 C184 1.378 . S
C181 H196 0.929 . S
C182 C181 1.362 . S
C182 C183 1.366 . S
C183 C180 1.365 . S
C183 C182 1.366 . S
C183 H197 0.930 . S
C184 C181 1.378 . S
C184 N185 1.315 . S
C184 H187 0.930 . S
N185 Co165 2.194 . S
N185 C180 1.328 . S
N185 C184 1.315 . S
H186 C180 0.929 . S
H187 C184 0.930 . S
H188 C176 0.929 . S
H189 C178 0.929 . S
O190 Co165 2.351 . S
O190 C193 1.244 . S
O191 Co165 2.155 . S
O191 C193 1.240 . S
O192 Co165 2.096 . S
O192 C173 1.247 . S
C193 O190 1.244 . S
C193 O191 1.240 . S
H194 C168 0.931 . S
H195 C177 0.931 . S
H196 C181 0.929 . S
H197 C183 0.930 . S
Co198 N202 2.148 . S
Co198 N208 2.128 . S
Co198 N218 2.194 . S
Co198 O223 2.351 . S
Co198 O224 2.155 . S
Co198 O225 2.096 . S
C199 N202 1.301 . S
C199 N203 1.328 . S
C199 H204 0.930 . S
C200 C201 1.333 . S
C200 N202 1.317 . S
C200 H205 0.930 . S
C201 C200 1.333 . S
C201 N203 1.350 . S
C201 H227 0.931 . S
N202 Co198 2.148 . S
N202 C199 1.301 . S
N202 C200 1.317 . S
N203 C199 1.328 . S
N203 C201 1.350 . S
H204 C199 0.930 . S
H205 C200 0.930 . S
C206 O207 1.224 . S
C206 O225 1.247 . S
O207 C206 1.224 . S
N208 Co198 2.128 . S
N208 C209 1.355 . S
N208 C211 1.311 . S
C209 N208 1.355 . S
C209 C210 1.363 1_455 S
C209 H221 0.929 1_455 S
C210 C209 1.363 1_655 S
C210 N212 1.375 1_655 S
C210 H228 0.931 . S
C211 N208 1.311 . S
C211 N212 1.347 . S
C211 H222 0.929 . S
N212 C210 1.375 1_455 S
N212 C211 1.347 . S
C213 C216 1.365 1_455 S
C213 N218 1.328 . S
C213 H219 0.929 . S
C214 C215 1.362 . S
C214 C217 1.378 1_655 S
C214 H229 0.929 . S
C215 C214 1.362 . S
C215 C216 1.366 . S
C216 C213 1.365 1_655 S
C216 C215 1.366 . S
C216 H230 0.930 . S
C217 C214 1.378 1_455 S
C217 N218 1.315 . S
C217 H220 0.930 . S
N218 Co198 2.194 . S
N218 C213 1.328 . S
N218 C217 1.315 . S
H219 C213 0.929 . S
H220 C217 0.930 . S
H221 C209 0.929 1_655 S
H222 C211 0.929 . S
O223 Co198 2.351 . S
O223 C226 1.244 . S
O224 Co198 2.155 . S
O224 C226 1.240 . S
O225 Co198 2.096 . S
O225 C206 1.247 . S
C226 O223 1.244 . S
C226 O224 1.240 . S
H227 C201 0.931 . S
H228 C210 0.931 . S
H229 C214 0.929 . S
H230 C216 0.930 . S
Co231 N235 2.148 . S
Co231 N241 2.128 . S
Co231 N251 2.194 . S
Co231 O256 2.351 . S
Co231 O257 2.155 . S
Co231 O258 2.096 . S
C232 N235 1.301 . S
C232 N236 1.328 . S
C232 H237 0.930 . S
C233 C234 1.333 . S
C233 N235 1.317 . S
C233 H238 0.930 . S
C234 C233 1.333 . S
C234 N236 1.350 . S
C234 H260 0.931 . S
N235 Co231 2.148 . S
N235 C232 1.301 . S
N235 C233 1.317 . S
N236 C232 1.328 . S
N236 C234 1.350 . S
H237 C232 0.930 . S
H238 C233 0.930 . S
C239 O240 1.224 . S
C239 O258 1.247 . S
O240 C239 1.224 . S
N241 Co231 2.128 . S
N241 C242 1.355 . S
N241 C244 1.311 . S
C242 N241 1.355 . S
C242 C243 1.363 . S
C242 H254 0.929 . S
C243 C242 1.363 . S
C243 N245 1.375 . S
C243 H261 0.931 . S
C244 N241 1.311 . S
C244 N245 1.347 . S
C244 H255 0.929 . S
N245 C243 1.375 . S
N245 C244 1.347 . S
C246 C249 1.365 . S
C246 N251 1.328 . S
C246 H252 0.929 . S
C247 C248 1.362 . S
C247 C250 1.378 . S
C247 H262 0.929 . S
C248 C247 1.362 . S
C248 C249 1.366 . S
C249 C246 1.365 . S
C249 C248 1.366 . S
C249 H263 0.930 . S
C250 C247 1.378 . S
C250 N251 1.315 . S
C250 H253 0.930 . S
N251 Co231 2.194 . S
N251 C246 1.328 . S
N251 C250 1.315 . S
H252 C246 0.929 . S
H253 C250 0.930 . S
H254 C242 0.929 . S
H255 C244 0.929 . S
O256 Co231 2.351 . S
O256 C259 1.244 . S
O257 Co231 2.155 . S
O257 C259 1.240 . S
O258 Co231 2.096 . S
O258 C239 1.247 . S
C259 O256 1.244 . S
C259 O257 1.240 . S
H260 C234 0.931 . S
H261 C243 0.931 . S
H262 C247 0.929 . S
H263 C249 0.930 . S
C264 C265 1.363 . S
C264 C270 1.379 1_554 S
C264 N272 1.356 . S
C265 C264 1.363 . S
C265 C271 1.363 . S
C266 C267 1.363 . S
C266 C271 1.379 1_556 S
C266 N273 1.356 . S
C267 C266 1.363 . S
C267 C270 1.363 . S
N268 C270 1.356 . S
N268 H280 0.984 . S
N268 H281 0.985 . S
N269 C271 1.356 . S
N269 H274 0.984 . S
N269 H275 0.985 . S
C270 C264 1.379 1_556 S
C270 C267 1.363 . S
C270 N268 1.356 . S
C271 C265 1.363 . S
C271 C266 1.379 1_554 S
C271 N269 1.356 . S
N272 C264 1.356 . S
N272 H278 0.984 . S
N272 H279 0.984 . S
N273 C266 1.356 . S
N273 H276 0.984 . S
N273 H277 0.985 . S
H274 N269 0.984 . S
H275 N269 0.985 . S
H276 N273 0.984 . S
H277 N273 0.985 . S
H278 N272 0.984 . S
H279 N272 0.984 . S
H280 N268 0.984 . S
H281 N268 0.985 . S
C282 C283 1.363 . S
C282 C288 1.379 . S
C282 N290 1.356 . S
C283 C282 1.363 . S
C283 C289 1.363 . S
C284 C285 1.363 . S
C284 C289 1.379 . S
C284 N291 1.356 . S
C285 C284 1.363 . S
C285 C288 1.363 . S
N286 C288 1.356 . S
N286 H298 0.984 . S
N286 H299 0.985 . S
N287 C289 1.356 . S
N287 H292 0.984 . S
N287 H293 0.985 . S
C288 C282 1.379 . S
C288 C285 1.363 . S
C288 N286 1.356 . S
C289 C283 1.363 . S
C289 C284 1.379 . S
C289 N287 1.356 . S
N290 C282 1.356 . S
N290 H296 0.984 . S
N290 H297 0.984 . S
N291 C284 1.356 . S
N291 H294 0.984 . S
N291 H295 0.985 . S
H292 N287 0.984 . S
H293 N287 0.985 . S
H294 N291 0.984 . S
H295 N291 0.985 . S
H296 N290 0.984 . S
H297 N290 0.984 . S
H298 N286 0.984 . S
H299 N286 0.985 . S
C300 C301 1.363 . S
C300 C306 1.379 . S
C300 N308 1.356 . S
C301 C300 1.363 . S
C301 C307 1.363 . S
C302 C303 1.363 . S
C302 C307 1.379 . S
C302 N309 1.356 . S
C303 C302 1.363 . S
C303 C306 1.363 . S
N304 C306 1.356 . S
N304 H316 0.984 . S
N304 H317 0.985 . S
N305 C307 1.356 . S
N305 H310 0.984 . S
N305 H311 0.985 . S
C306 C300 1.379 . S
C306 C303 1.363 . S
C306 N304 1.356 . S
C307 C301 1.363 . S
C307 C302 1.379 . S
C307 N305 1.356 . S
N308 C300 1.356 . S
N308 H314 0.984 . S
N308 H315 0.984 . S
N309 C302 1.356 . S
N309 H312 0.984 . S
N309 H313 0.985 . S
H310 N305 0.984 . S
H311 N305 0.985 . S
H312 N309 0.984 . S
H313 N309 0.985 . S
H314 N308 0.984 . S
H315 N308 0.984 . S
H316 N304 0.984 . S
H317 N304 0.985 . S
C318 C319 1.363 . S
C318 C324 1.379 . S
C318 N326 1.356 . S
C319 C318 1.363 . S
C319 C325 1.363 . S
C320 C321 1.363 . S
C320 C325 1.379 . S
C320 N327 1.356 . S
C321 C320 1.363 . S
C321 C324 1.363 . S
N322 C324 1.356 . S
N322 H334 0.984 . S
N322 H335 0.985 . S
N323 C325 1.356 . S
N323 H328 0.984 . S
N323 H329 0.985 . S
C324 C318 1.379 . S
C324 C321 1.363 . S
C324 N322 1.356 . S
C325 C319 1.363 . S
C325 C320 1.379 . S
C325 N323 1.356 . S
N326 C318 1.356 . S
N326 H332 0.984 . S
N326 H333 0.984 . S
N327 C320 1.356 . S
N327 H330 0.984 . S
N327 H331 0.985 . S
H328 N323 0.984 . S
H329 N323 0.985 . S
H330 N327 0.984 . S
H331 N327 0.985 . S
H332 N326 0.984 . S
H333 N326 0.984 . S
H334 N322 0.984 . S
H335 N322 0.985 . S
C336 C337 1.363 . S
C336 C342 1.379 1_556 S
C336 N344 1.356 . S
C337 C336 1.363 . S
C337 C343 1.363 . S
C338 C339 1.363 . S
C338 C343 1.379 1_554 S
C338 N345 1.356 . S
C339 C338 1.363 . S
C339 C342 1.363 . S
N340 C342 1.356 . S
N340 H352 0.984 . S
N340 H353 0.985 . S
N341 C343 1.356 . S
N341 H346 0.984 . S
N341 H347 0.985 . S
C342 C336 1.379 1_554 S
C342 C339 1.363 . S
C342 N340 1.356 . S
C343 C337 1.363 . S
C343 C338 1.379 1_556 S
C343 N341 1.356 . S
N344 C336 1.356 . S
N344 H350 0.984 . S
N344 H351 0.984 . S
N345 C338 1.356 . S
N345 H348 0.984 . S
N345 H349 0.985 . S
H346 N341 0.984 . S
H347 N341 0.985 . S
H348 N345 0.984 . S
H349 N345 0.985 . S
H350 N344 0.984 . S
H351 N344 0.984 . S
H352 N340 0.984 . S
H353 N340 0.985 . S
C354 C355 1.363 . S
C354 C360 1.379 . S
C354 N362 1.356 . S
C355 C354 1.363 . S
C355 C361 1.363 . S
C356 C357 1.363 . S
C356 C361 1.379 . S
C356 N363 1.356 . S
C357 C356 1.363 . S
C357 C360 1.363 . S
N358 C360 1.356 . S
N358 H370 0.984 1_545 S
N358 H371 0.985 . S
N359 C361 1.356 . S
N359 H364 0.984 . S
N359 H365 0.985 . S
C360 C354 1.379 . S
C360 C357 1.363 . S
C360 N358 1.356 . S
C361 C355 1.363 . S
C361 C356 1.379 . S
C361 N359 1.356 . S
N362 C354 1.356 . S
N362 H368 0.984 . S
N362 H369 0.984 . S
N363 C356 1.356 . S
N363 H366 0.984 . S
N363 H367 0.985 . S
H364 N359 0.984 . S
H365 N359 0.985 . S
H366 N363 0.984 . S
H367 N363 0.985 . S
H368 N362 0.984 . S
H369 N362 0.984 . S
H370 N358 0.984 1_565 S
H371 N358 0.985 . S
C372 C373 1.363 . S
C372 C378 1.379 . S
C372 N380 1.356 1_565 S
C373 C372 1.363 . S
C373 C379 1.363 . S
C374 C375 1.363 . S
C374 C379 1.379 . S
C374 N381 1.356 . S
C375 C374 1.363 . S
C375 C378 1.363 . S
N376 C378 1.356 . S
N376 H388 0.984 . S
N376 H389 0.985 . S
N377 C379 1.356 . S
N377 H382 0.984 . S
N377 H383 0.985 . S
C378 C372 1.379 . S
C378 C375 1.363 . S
C378 N376 1.356 . S
C379 C373 1.363 . S
C379 C374 1.379 . S
C379 N377 1.356 . S
N380 C372 1.356 1_545 S
N380 H386 0.984 . S
N380 H387 0.984 . S
N381 C374 1.356 . S
N381 H384 0.984 . S
N381 H385 0.985 . S
H382 N377 0.984 . S
H383 N377 0.985 . S
H384 N381 0.984 . S
H385 N381 0.985 . S
H386 N380 0.984 . S
H387 N380 0.984 . S
H388 N376 0.984 . S
H389 N376 0.985 . S
C390 C391 1.363 . S
C390 C396 1.379 . S
C390 N398 1.356 . S
C391 C390 1.363 . S
C391 C397 1.363 . S
C392 C393 1.363 . S
C392 C397 1.379 . S
C392 N399 1.356 . S
C393 C392 1.363 . S
C393 C396 1.363 . S
N394 C396 1.356 . S
N394 H406 0.984 1_565 S
N394 H407 0.985 . S
N395 C397 1.356 . S
N395 H400 0.984 . S
N395 H401 0.985 . S
C396 C390 1.379 . S
C396 C393 1.363 . S
C396 N394 1.356 . S
C397 C391 1.363 . S
C397 C392 1.379 . S
C397 N395 1.356 . S
N398 C390 1.356 . S
N398 H404 0.984 1_565 S
N398 H405 0.984 . S
N399 C392 1.356 . S
N399 H402 0.984 . S
N399 H403 0.985 . S
H400 N395 0.984 . S
H401 N395 0.985 . S
H402 N399 0.984 . S
H403 N399 0.985 . S
H404 N398 0.984 1_545 S
H405 N398 0.984 . S
H406 N394 0.984 1_545 S
H407 N394 0.985 . S
C408 C409 1.363 . S
C408 C414 1.379 . S
C408 N416 1.356 . S
C409 C408 1.363 . S
C409 C415 1.363 . S
C410 C411 1.363 . S
C410 C415 1.379 . S
C410 N417 1.356 . S
C411 C410 1.363 . S
C411 C414 1.363 . S
N412 C414 1.356 . S
N412 H424 0.984 . S
N412 H425 0.985 . S
N413 C415 1.356 . S
N413 H418 0.984 . S
N413 H419 0.985 . S
C414 C408 1.379 . S
C414 C411 1.363 . S
C414 N412 1.356 . S
C415 C409 1.363 . S
C415 C410 1.379 . S
C415 N413 1.356 . S
N416 C408 1.356 . S
N416 H422 0.984 . S
N416 H423 0.984 . S
N417 C410 1.356 . S
N417 H420 0.984 . S
N417 H421 0.985 . S
H418 N413 0.984 . S
H419 N413 0.985 . S
H420 N417 0.984 . S
H421 N417 0.985 . S
H422 N416 0.984 . S
H423 N416 0.984 . S
H424 N412 0.984 . S
H425 N412 0.985 . S
C426 C427 1.363 . S
C426 C432 1.379 1_556 S
C426 N434 1.356 . S
C427 C426 1.363 . S
C427 C433 1.363 . S
C428 C429 1.363 1_556 S
C428 C433 1.379 . S
C428 N435 1.356 1_456 S
C429 C428 1.363 1_554 S
C429 C432 1.363 . S
N430 C432 1.356 . S
N430 H442 0.984 . S
N430 H443 0.985 . S
N431 C433 1.356 . S
N431 H436 0.984 . S
N431 H437 0.985 . S
C432 C426 1.379 1_554 S
C432 C429 1.363 . S
C432 N430 1.356 . S
C433 C427 1.363 . S
C433 C428 1.379 . S
C433 N431 1.356 . S
N434 C426 1.356 . S
N434 H440 0.984 . S
N434 H441 0.984 . S
N435 C428 1.356 1_654 S
N435 H438 0.984 . S
N435 H439 0.985 1_554 S
H436 N431 0.984 . S
H437 N431 0.985 . S
H438 N435 0.984 . S
H439 N435 0.985 1_556 S
H440 N434 0.984 . S
H441 N434 0.984 . S
H442 N430 0.984 . S
H443 N430 0.985 . S
C444 C445 1.363 . S
C444 C450 1.379 . S
C444 N452 1.356 . S
C445 C444 1.363 . S
C445 C451 1.363 . S
C446 C447 1.363 . S
C446 C451 1.379 . S
C446 N453 1.356 . S
C447 C446 1.363 . S
C447 C450 1.363 . S
N448 C450 1.356 . S
N448 H460 0.984 . S
N448 H461 0.985 . S
N449 C451 1.356 . S
N449 H454 0.984 . S
N449 H455 0.985 . S
C450 C444 1.379 . S
C450 C447 1.363 . S
C450 N448 1.356 . S
C451 C445 1.363 . S
C451 C446 1.379 . S
C451 N449 1.356 . S
N452 C444 1.356 . S
N452 H458 0.984 . S
N452 H459 0.984 . S
N453 C446 1.356 . S
N453 H456 0.984 . S
N453 H457 0.985 . S
H454 N449 0.984 . S
H455 N449 0.985 . S
H456 N453 0.984 . S
H457 N453 0.985 . S
H458 N452 0.984 . S
H459 N452 0.984 . S
H460 N448 0.984 . S
H461 N448 0.985 . S
C462 C463 1.363 . S
C462 C468 1.379 . S
C462 N470 1.356 . S
C463 C462 1.363 . S
C463 C469 1.363 . S
C464 C465 1.363 . S
C464 C469 1.379 . S
C464 N471 1.356 1_655 S
C465 C464 1.363 . S
C465 C468 1.363 . S
N466 C468 1.356 . S
N466 H478 0.984 . S
N466 H479 0.985 . S
N467 C469 1.356 . S
N467 H472 0.984 . S
N467 H473 0.985 . S
C468 C462 1.379 . S
C468 C465 1.363 . S
C468 N466 1.356 . S
C469 C463 1.363 . S
C469 C464 1.379 . S
C469 N467 1.356 . S
N470 C462 1.356 . S
N470 H476 0.984 . S
N470 H477 0.984 . S
N471 C464 1.356 1_455 S
N471 H474 0.984 . S
N471 H475 0.985 . S
H472 N467 0.984 . S
H473 N467 0.985 . S
H474 N471 0.984 . S
H475 N471 0.985 . S
H476 N470 0.984 . S
H477 N470 0.984 . S
H478 N466 0.984 . S
H479 N466 0.985 . S
C480 C481 1.363 . S
C480 C486 1.379 . S
C480 N488 1.356 . S
C481 C480 1.363 . S
C481 C487 1.363 . S
C482 C483 1.363 . S
C482 C487 1.379 . S
C482 N489 1.356 1_565 S
C483 C482 1.363 . S
C483 C486 1.363 . S
N484 C486 1.356 . S
N484 H496 0.984 . S
N484 H497 0.985 1_565 S
N485 C487 1.356 . S
N485 H490 0.984 . S
N485 H491 0.985 . S
C486 C480 1.379 . S
C486 C483 1.363 . S
C486 N484 1.356 . S
C487 C481 1.363 . S
C487 C482 1.379 . S
C487 N485 1.356 . S
N488 C480 1.356 . S
N488 H494 0.984 . S
N488 H495 0.984 . S
N489 C482 1.356 1_545 S
N489 H492 0.984 . S
N489 H493 0.985 . S
H490 N485 0.984 . S
H491 N485 0.985 . S
H492 N489 0.984 . S
H493 N489 0.985 . S
H494 N488 0.984 . S
H495 N488 0.984 . S
H496 N484 0.984 . S
H497 N484 0.985 1_545 S
C498 C499 1.363 . S
C498 C504 1.379 . S
C498 N506 1.356 . S
C499 C498 1.363 . S
C499 C505 1.363 . S
C500 C501 1.363 . S
C500 C505 1.379 . S
C500 N507 1.356 . S
C501 C500 1.363 . S
C501 C504 1.363 . S
N502 C504 1.356 . S
N502 H514 0.984 . S
N502 H515 0.985 . S
N503 C505 1.356 . S
N503 H508 0.984 . S
N503 H509 0.985 . S
C504 C498 1.379 . S
C504 C501 1.363 . S
C504 N502 1.356 . S
C505 C499 1.363 . S
C505 C500 1.379 . S
C505 N503 1.356 . S
N506 C498 1.356 . S
N506 H512 0.984 . S
N506 H513 0.984 . S
N507 C500 1.356 . S
N507 H510 0.984 . S
N507 H511 0.985 . S
H508 N503 0.984 . S
H509 N503 0.985 . S
H510 N507 0.984 . S
H511 N507 0.985 . S
H512 N506 0.984 . S
H513 N506 0.984 . S
H514 N502 0.984 . S
H515 N502 0.985 . S
C516 C517 1.363 . S
C516 C522 1.379 . S
C516 N524 1.356 1_545 S
C517 C516 1.363 . S
C517 C523 1.363 . S
C518 C519 1.363 . S
C518 C523 1.379 . S
C518 N525 1.356 . S
C519 C518 1.363 . S
C519 C522 1.363 . S
N520 C522 1.356 . S
N520 H532 0.984 . S
N520 H533 0.985 . S
N521 C523 1.356 . S
N521 H526 0.984 . S
N521 H527 0.985 . S
C522 C516 1.379 . S
C522 C519 1.363 . S
C522 N520 1.356 . S
C523 C517 1.363 . S
C523 C518 1.379 . S
C523 N521 1.356 . S
N524 C516 1.356 1_565 S
N524 H530 0.984 . S
N524 H531 0.984 . S
N525 C518 1.356 . S
N525 H528 0.984 . S
N525 H529 0.985 . S
H526 N521 0.984 . S
H527 N521 0.985 . S
H528 N525 0.984 . S
H529 N525 0.985 . S
H530 N524 0.984 . S
H531 N524 0.984 . S
H532 N520 0.984 . S
H533 N520 0.985 . S
C534 C535 1.363 . S
C534 C540 1.379 . S
C534 N542 1.356 . S
C535 C534 1.363 . S
C535 C541 1.363 . S
C536 C537 1.363 . S
C536 C541 1.379 . S
C536 N543 1.356 . S
C537 C536 1.363 . S
C537 C540 1.363 . S
N538 C540 1.356 . S
N538 H550 0.984 . S
N538 H551 0.985 . S
N539 C541 1.356 . S
N539 H544 0.984 . S
N539 H545 0.985 . S
C540 C534 1.379 . S
C540 C537 1.363 . S
C540 N538 1.356 . S
C541 C535 1.363 . S
C541 C536 1.379 . S
C541 N539 1.356 . S
N542 C534 1.356 . S
N542 H548 0.984 . S
N542 H549 0.984 . S
N543 C536 1.356 . S
N543 H546 0.984 . S
N543 H547 0.985 . S
H544 N539 0.984 . S
H545 N539 0.985 . S
H546 N543 0.984 . S
H547 N543 0.985 . S
H548 N542 0.984 . S
H549 N542 0.984 . S
H550 N538 0.984 . S
H551 N538 0.985 . S
C552 C553 1.363 . S
C552 C558 1.379 . S
C552 N560 1.356 . S
C553 C552 1.363 . S
C553 C559 1.363 . S
C554 C555 1.363 . S
C554 C559 1.379 . S
C554 N561 1.356 . S
C555 C554 1.363 . S
C555 C558 1.363 . S
N556 C558 1.356 . S
N556 H568 0.984 . S
N556 H569 0.985 . S
N557 C559 1.356 . S
N557 H562 0.984 . S
N557 H563 0.985 . S
C558 C552 1.379 . S
C558 C555 1.363 . S
C558 N556 1.356 . S
C559 C553 1.363 . S
C559 C554 1.379 . S
C559 N557 1.356 . S
N560 C552 1.356 . S
N560 H566 0.984 . S
N560 H567 0.984 . S
N561 C554 1.356 . S
N561 H564 0.984 . S
N561 H565 0.985 . S
H562 N557 0.984 . S
H563 N557 0.985 . S
H564 N561 0.984 . S
H565 N561 0.985 . S
H566 N560 0.984 . S
H567 N560 0.984 . S
H568 N556 0.984 . S
H569 N556 0.985 . S
C570 C571 1.363 . S
C570 C576 1.379 . S
C570 N578 1.356 . S
C571 C570 1.363 . S
C571 C577 1.363 . S
C572 C573 1.363 . S
C572 C577 1.379 . S
C572 N579 1.356 . S
C573 C572 1.363 . S
C573 C576 1.363 . S
N574 C576 1.356 1_455 S
N574 H586 0.984 . S
N574 H587 0.985 . S
N575 C577 1.356 . S
N575 H580 0.984 . S
N575 H581 0.985 . S
C576 C570 1.379 . S
C576 C573 1.363 . S
C576 N574 1.356 1_655 S
C577 C571 1.363 . S
C577 C572 1.379 . S
C577 N575 1.356 . S
N578 C570 1.356 . S
N578 H584 0.984 . S
N578 H585 0.984 . S
N579 C572 1.356 . S
N579 H582 0.984 1_655 S
N579 H583 0.985 . S
H580 N575 0.984 . S
H581 N575 0.985 . S
H582 N579 0.984 1_455 S
H583 N579 0.985 . S
H584 N578 0.984 . S
H585 N578 0.984 . S
H586 N574 0.984 . S
H587 N574 0.985 . S
C588 C589 1.363 . S
C588 C594 1.379 . S
C588 N596 1.356 . S
C589 C588 1.363 . S
C589 C595 1.363 . S
C590 C591 1.363 . S
C590 C595 1.379 . S
C590 N597 1.356 . S
C591 C590 1.363 . S
C591 C594 1.363 . S
N592 C594 1.356 . S
N592 H604 0.984 . S
N592 H605 0.985 . S
N593 C595 1.356 . S
N593 H598 0.984 . S
N593 H599 0.985 . S
C594 C588 1.379 . S
C594 C591 1.363 . S
C594 N592 1.356 . S
C595 C589 1.363 . S
C595 C590 1.379 . S
C595 N593 1.356 . S
N596 C588 1.356 . S
N596 H602 0.984 . S
N596 H603 0.984 . S
N597 C590 1.356 . S
N597 H600 0.984 . S
N597 H601 0.985 . S
H598 N593 0.984 . S
H599 N593 0.985 . S
H600 N597 0.984 . S
H601 N597 0.985 . S
H602 N596 0.984 . S
H603 N596 0.984 . S
H604 N592 0.984 . S
H605 N592 0.985 . S
C606 C607 1.363 . S
C606 C612 1.379 . S
C606 N614 1.356 . S
C607 C606 1.363 . S
C607 C613 1.363 . S
C608 C609 1.363 . S
C608 C613 1.379 . S
C608 N615 1.356 1_455 S
C609 C608 1.363 . S
C609 C612 1.363 . S
N610 C612 1.356 . S
N610 H622 0.984 . S
N610 H623 0.985 1_455 S
N611 C613 1.356 . S
N611 H616 0.984 . S
N611 H617 0.985 . S
C612 C606 1.379 . S
C612 C609 1.363 . S
C612 N610 1.356 . S
C613 C607 1.363 . S
C613 C608 1.379 . S
C613 N611 1.356 . S
N614 C606 1.356 . S
N614 H620 0.984 . S
N614 H621 0.984 . S
N615 C608 1.356 1_655 S
N615 H618 0.984 . S
N615 H619 0.985 . S
H616 N611 0.984 . S
H617 N611 0.985 . S
H618 N615 0.984 . S
H619 N615 0.985 . S
H620 N614 0.984 . S
H621 N614 0.984 . S
H622 N610 0.984 . S
H623 N610 0.985 1_655 S
C265 N5 0.533 . S
C267 N170 0.533 . S
C283 N203 0.533 . S
C285 N38 0.533 . S
C301 N236 0.533 . S
C303 N71 0.533 . S
C319 N137 0.533 . S
C321 N104 0.533 . S
C337 N113 1.722 . S
C339 C17 1.586 . S
C355 C50 1.586 . S
C357 N14 1.722 . S
C373 N47 1.722 . S
C375 C83 1.586 . S
C391 C116 1.586 . S
C393 N80 1.722 . S
C409 N179 1.722 . S
C411 C149 1.586 . S
C427 C182 1.586 . S
C429 N212 1.722 . S
C445 C215 1.586 . S
C447 N245 1.722 . S
C463 C248 1.586 . S
C465 N146 1.722 . S
C481 C226 1.954 . S
C483 C8 1.989 1_565 S
C499 C259 1.954 . S
C501 C41 1.989 . S
C517 C74 1.989 1_545 S
C519 C160 1.954 . S
C535 C107 1.989 . S
C537 C193 1.954 . S
C553 C140 1.989 . S
C555 C94 1.954 . S
C571 C127 1.954 . S
C573 C173 1.989 1_655 S
C589 C206 1.989 . S
C591 C28 1.954 . S
C607 C61 1.954 . S
C609 C239 1.989 1_455 S
