# Generated by pormake.
# Topology wjg, (4)-cn, num edge types: 1
# Building blocks:
#     Node 0, Type 0, BuildingBlock: UXUYUI_clean_sbu_0, # of connection points: 4
#     Node 1, Type 0, BuildingBlock: UXUYUI_clean_sbu_0, # of connection points: 4
#     Node 2, Type 0, BuildingBlock: UXUYUI_clean_sbu_0, # of connection points: 4
#     Node 3, Type 0, BuildingBlock: UXUYUI_clean_sbu_0, # of connection points: 4
#     Node 4, Type 0, BuildingBlock: UXUYUI_clean_sbu_0, # of connection points: 4
#     Node 5, Type 0, BuildingBlock: UXUYUI_clean_sbu_0, # of connection points: 4
#     Node 6, Type 0, BuildingBlock: UXUYUI_clean_sbu_0, # of connection points: 4
#     Node 7, Type 0, BuildingBlock: UXUYUI_clean_sbu_0, # of connection points: 4
#     Node 8, Type 0, BuildingBlock: UXUYUI_clean_sbu_0, # of connection points: 4
#     Node 9, Type 0, BuildingBlock: UXUYUI_clean_sbu_0, # of connection points: 4
#     Node 10, Type 0, BuildingBlock: UXUYUI_clean_sbu_0, # of connection points: 4
#     Node 11, Type 0, BuildingBlock: UXUYUI_clean_sbu_0, # of connection points: 4
#     Edge 12, Type (0, 0), BuildingBlock: MIFKUJ_clean_linker_0, # of connection points: 2
#     Edge 13, Type (0, 0), BuildingBlock: MIFKUJ_clean_linker_0, # of connection points: 2
#     Edge 14, Type (0, 0), BuildingBlock: MIFKUJ_clean_linker_0, # of connection points: 2
#     Edge 15, Type (0, 0), BuildingBlock: MIFKUJ_clean_linker_0, # of connection points: 2
#     Edge 16, Type (0, 0), BuildingBlock: MIFKUJ_clean_linker_0, # of connection points: 2
#     Edge 17, Type (0, 0), BuildingBlock: MIFKUJ_clean_linker_0, # of connection points: 2
#     Edge 18, Type (0, 0), BuildingBlock: MIFKUJ_clean_linker_0, # of connection points: 2
#     Edge 19, Type (0, 0), BuildingBlock: MIFKUJ_clean_linker_0, # of connection points: 2
#     Edge 20, Type (0, 0), BuildingBlock: MIFKUJ_clean_linker_0, # of connection points: 2
#     Edge 21, Type (0, 0), BuildingBlock: MIFKUJ_clean_linker_0, # of connection points: 2
#     Edge 22, Type (0, 0), BuildingBlock: MIFKUJ_clean_linker_0, # of connection points: 2
#     Edge 23, Type (0, 0), BuildingBlock: MIFKUJ_clean_linker_0, # of connection points: 2
#     Edge 24, Type (0, 0), BuildingBlock: MIFKUJ_clean_linker_0, # of connection points: 2
#     Edge 25, Type (0, 0), BuildingBlock: MIFKUJ_clean_linker_0, # of connection points: 2
#     Edge 26, Type (0, 0), BuildingBlock: MIFKUJ_clean_linker_0, # of connection points: 2
#     Edge 27, Type (0, 0), BuildingBlock: MIFKUJ_clean_linker_0, # of connection points: 2
#     Edge 28, Type (0, 0), BuildingBlock: MIFKUJ_clean_linker_0, # of connection points: 2
#     Edge 29, Type (0, 0), BuildingBlock: MIFKUJ_clean_linker_0, # of connection points: 2
#     Edge 30, Type (0, 0), BuildingBlock: MIFKUJ_clean_linker_0, # of connection points: 2
#     Edge 31, Type (0, 0), BuildingBlock: MIFKUJ_clean_linker_0, # of connection points: 2
#     Edge 32, Type (0, 0), BuildingBlock: MIFKUJ_clean_linker_0, # of connection points: 2
#     Edge 33, Type (0, 0), BuildingBlock: MIFKUJ_clean_linker_0, # of connection points: 2
#     Edge 34, Type (0, 0), BuildingBlock: MIFKUJ_clean_linker_0, # of connection points: 2
#     Edge 35, Type (0, 0), BuildingBlock: MIFKUJ_clean_linker_0, # of connection points: 2
# Relax obj value: 0.406
# Max RMSD: 0.171
# Mean RMSD: 0.170
data_MOF--net-wjg--node1-UXUYUI_clean_sbu_0--edge1-MIFKUJ_clean_linker_0
_symmetry_space_group_name_H-M    P1
_symmetry_Int_Tables_number       1
_symmetry_cell_setting            triclinic
loop_
_symmetry_equiv_pos_as_xyz
'x, y, z'
_cell_length_a     62.005081
_cell_length_b     61.956107
_cell_length_c     63.181112
_cell_angle_alpha  89.995541
_cell_angle_beta   89.99617
_cell_angle_gamma 120.04803
loop_
_atom_site_label
_atom_site_type_symbol
_atom_site_fract_x
_atom_site_fract_y
_atom_site_fract_z
_atom_type_partial_charge
Li0 Li 0.17687 0.42955 0.31807 0.0
Li1 Li 0.1429 0.39604 0.33625 0.0
Li2 Li 0.16259 0.38654 0.30839 0.0
Li3 Li 0.13689 0.4055 0.30121 0.0
C4 C 0.20097 0.40688 0.33737 0.0
N5 N 0.24823 0.41351 0.34178 0.0
C6 C 0.20815 0.40094 0.35645 0.0
C7 C 0.21782 0.41621 0.32051 0.0
C8 C 0.23214 0.40444 0.35838 0.0
C9 C 0.24163 0.41941 0.32306 0.0
C10 C 0.14904 0.44318 0.34296 0.0
C11 C 0.14368 0.47513 0.35978 0.0
N12 N 0.15785 0.47542 0.37633 0.0
C13 C 0.16358 0.44382 0.36014 0.0
C14 C 0.13902 0.45897 0.34277 0.0
C15 C 0.1678 0.46022 0.37686 0.0
C16 C 0.20941 0.47806 0.30391 0.0
N17 N 0.20509 0.46207 0.32018 0.0
C18 C 0.24116 0.49286 0.33847 0.0
C19 C 0.22032 0.46901 0.33736 0.0
C20 C 0.24628 0.50981 0.32182 0.0
C21 C 0.22999 0.50216 0.3044 0.0
H22 H 0.19683 0.47205 0.29054 0.0
H23 H 0.21643 0.45602 0.35017 0.0
C24 C 0.13634 0.36739 0.37079 0.0
N25 N 0.12924 0.38341 0.36331 0.0
C26 C 0.13144 0.35924 0.39163 0.0
C27 C 0.1105 0.38298 0.39642 0.0
C28 C 0.11572 0.3906 0.37529 0.0
C29 C 0.11917 0.36776 0.40499 0.0
H30 H 0.14702 0.36201 0.36081 0.0
H31 H 0.11011 0.4032 0.36882 0.0
C32 C 0.16825 0.40839 0.26842 0.0
N33 N 0.16338 0.39484 0.22627 0.0
C34 C 0.14988 0.38452 0.26212 0.0
C35 C 0.18412 0.42535 0.25328 0.0
C36 C 0.14772 0.37804 0.24073 0.0
C37 C 0.18138 0.41815 0.23205 0.0
C38 C 0.1042 0.35631 0.32239 0.0
C39 C 0.09812 0.332 0.32768 0.0
C40 C 0.08781 0.36481 0.32758 0.0
C41 C 0.07578 0.31665 0.33827 0.0
C42 C 0.06565 0.34888 0.33816 0.0
N43 N 0.06015 0.32534 0.34326 0.0
C44 C 0.16684 0.34532 0.31576 0.0
C45 C 0.19023 0.36779 0.28572 0.0
C46 C 0.17729 0.33001 0.31511 0.0
N47 N 0.17362 0.3639 0.30138 0.0
C48 C 0.20122 0.35287 0.28448 0.0
C49 C 0.19514 0.33401 0.2996 0.0
H50 H 0.15439 0.34336 0.32851 0.0
H51 H 0.19594 0.38322 0.27489 0.0
C52 C 0.12203 0.43041 0.27309 0.0
N53 N 0.1154 0.4077 0.28142 0.0
C54 C 0.10729 0.43264 0.2575 0.0
C55 C 0.07906 0.38812 0.25978 0.0
C56 C 0.09447 0.38672 0.2751 0.0
C57 C 0.08551 0.41128 0.25072 0.0
H58 H 0.13898 0.44669 0.27833 0.0
H59 H 0.09 0.36884 0.28164 0.0
O60 O 0.17742 0.40326 0.3353 0.0
O61 O 0.14461 0.42739 0.32628 0.0
O62 O 0.17056 0.41544 0.2892 0.0
O63 O 0.12625 0.37188 0.31247 0.0
H64 H 0.19529 0.3937 0.36961 0.0
H65 H 0.21261 0.42092 0.30562 0.0
H66 H 0.23794 0.39993 0.37308 0.0
H67 H 0.25485 0.42657 0.31015 0.0
H68 H 0.13603 0.48746 0.35983 0.0
H69 H 0.17144 0.43173 0.36072 0.0
H70 H 0.12776 0.45874 0.32957 0.0
H71 H 0.17896 0.46085 0.39026 0.0
H72 H 0.25335 0.49777 0.35208 0.0
H73 H 0.23297 0.5147 0.29136 0.0
H74 H 0.13896 0.34797 0.39758 0.0
H75 H 0.10095 0.38992 0.40622 0.0
H76 H 0.1374 0.3711 0.27355 0.0
H77 H 0.19839 0.44392 0.2579 0.0
H78 H 0.13358 0.35965 0.23564 0.0
H79 H 0.19354 0.4311 0.22016 0.0
H80 H 0.11048 0.32504 0.32365 0.0
H81 H 0.09234 0.38365 0.32373 0.0
H82 H 0.07085 0.29781 0.34252 0.0
H83 H 0.05287 0.35527 0.34239 0.0
H84 H 0.17251 0.31616 0.32741 0.0
H85 H 0.21491 0.35658 0.27227 0.0
H86 H 0.11287 0.45078 0.25078 0.0
H87 H 0.06269 0.37116 0.25459 0.0
Li88 Li 0.75681 0.18846 0.63919 0.0
Li89 Li 0.76554 0.16009 0.6596 0.0
Li90 Li 0.79288 0.1851 0.63085 0.0
Li91 Li 0.75122 0.15016 0.62399 0.0
C92 C 0.78778 0.21609 0.66916 0.0
N93 N 0.78936 0.25473 0.6923 0.0
C94 C 0.77977 0.21233 0.69021 0.0
C95 C 0.79674 0.23958 0.65992 0.0
C96 C 0.78072 0.23209 0.70164 0.0
C97 C 0.79731 0.25884 0.67186 0.0
C98 C 0.7094 0.13728 0.64385 0.0
C99 C 0.67503 0.09502 0.64294 0.0
N100 N 0.66126 0.10289 0.63214 0.0
C101 C 0.69489 0.14499 0.63284 0.0
C102 C 0.69939 0.11213 0.64907 0.0
C103 C 0.67058 0.12731 0.62704 0.0
C104 C 0.74666 0.22637 0.62579 0.0
N105 N 0.74359 0.21008 0.6415 0.0
C106 C 0.72507 0.22722 0.664 0.0
C107 C 0.73235 0.20966 0.66007 0.0
C108 C 0.72892 0.24494 0.64843 0.0
C109 C 0.73926 0.24405 0.62892 0.0
H110 H 0.75549 0.22612 0.61113 0.0
H111 H 0.72995 0.19626 0.67215 0.0
C112 C 0.78938 0.15725 0.69548 0.0
N113 N 0.76632 0.14911 0.6873 0.0
C114 C 0.79219 0.15301 0.71663 0.0
C115 C 0.74738 0.13209 0.72068 0.0
C116 C 0.74541 0.13641 0.69925 0.0
C117 C 0.77107 0.1408 0.72962 0.0
H118 H 0.80567 0.16808 0.68575 0.0
H119 H 0.72736 0.1307 0.69239 0.0
C120 C 0.78213 0.19399 0.59369 0.0
N121 N 0.81395 0.21428 0.55959 0.0
C122 C 0.78279 0.17848 0.57796 0.0
C123 C 0.79761 0.21982 0.59208 0.0
C124 C 0.79899 0.1891 0.56083 0.0
C125 C 0.8136 0.22971 0.57473 0.0
C126 C 0.78724 0.13501 0.64732 0.0
C127 C 0.81261 0.14358 0.65028 0.0
C128 C 0.76958 0.11223 0.65617 0.0
C129 C 0.81988 0.12925 0.66211 0.0
C130 C 0.77761 0.09847 0.66793 0.0
N131 N 0.80238 0.10719 0.67063 0.0
C132 C 0.8422 0.2241 0.63333 0.0
C133 C 0.83638 0.19293 0.60854 0.0
C134 C 0.86786 0.23641 0.63022 0.0
N135 N 0.82707 0.20268 0.62273 0.0
C136 C 0.86208 0.20457 0.60504 0.0
C137 C 0.87819 0.22643 0.61622 0.0
H138 H 0.83447 0.23113 0.64489 0.0
H139 H 0.82395 0.1756 0.6006 0.0
C140 C 0.71728 0.12884 0.59069 0.0
N141 N 0.73073 0.1242 0.6051 0.0
C142 C 0.70106 0.11007 0.57697 0.0
C143 C 0.71296 0.08218 0.59315 0.0
C144 C 0.72904 0.10153 0.60648 0.0
C145 C 0.6987 0.08635 0.57818 0.0
H146 H 0.71904 0.14709 0.59002 0.0
H147 H 0.74012 0.09844 0.61794 0.0
O148 O 0.78648 0.19681 0.65752 0.0
O149 O 0.73345 0.15419 0.64914 0.0
O150 O 0.76681 0.18393 0.61082 0.0
O151 O 0.77974 0.14892 0.63598 0.0
H152 H 0.77263 0.19431 0.69764 0.0
H153 H 0.8027 0.24277 0.64357 0.0
H154 H 0.77448 0.2294 0.71792 0.0
H155 H 0.80395 0.27701 0.66484 0.0
H156 H 0.66709 0.07546 0.64673 0.0
H157 H 0.7024 0.16437 0.62857 0.0
H158 H 0.7104 0.10586 0.65755 0.0
H159 H 0.65918 0.13297 0.6184 0.0
H160 H 0.71694 0.22726 0.67917 0.0
H161 H 0.74257 0.25753 0.6166 0.0
H162 H 0.8108 0.16062 0.72306 0.0
H163 H 0.73073 0.12284 0.73032 0.0
H164 H 0.77111 0.15844 0.57906 0.0
H165 H 0.79753 0.23207 0.60425 0.0
H166 H 0.79976 0.17733 0.54856 0.0
H167 H 0.82578 0.24965 0.57333 0.0
H168 H 0.82656 0.16122 0.64372 0.0
H169 H 0.74988 0.10548 0.65436 0.0
H170 H 0.83945 0.13571 0.66459 0.0
H171 H 0.76413 0.08091 0.675 0.0
H172 H 0.87958 0.2529 0.63951 0.0
H173 H 0.86931 0.19629 0.5941 0.0
H174 H 0.69028 0.11397 0.56572 0.0
H175 H 0.71198 0.06427 0.59433 0.0
Li176 Li 0.5907 0.75794 0.99597 0.0
Li177 Li 0.5546 0.7566 0.97719 0.0
Li178 Li 0.58685 0.75169 0.95813 0.0
Li179 Li 0.59653 0.79048 0.97316 0.0
C180 C 0.54677 0.71112 0.99385 0.0
N181 N 0.51304 0.67461 0.02076 0.0
C182 C 0.53707 0.71758 0.01114 0.0
C183 C 0.53935 0.68608 0.99031 0.0
C184 C 0.52001 0.69886 0.02453 0.0
C185 C 0.5223 0.66791 0.00409 0.0
C186 C 0.57841 0.80152 0.0066 0.0
C187 C 0.56668 0.83325 0.00561 0.0
N188 N 0.58402 0.84632 0.0207 0.0
C189 C 0.59599 0.81521 0.02222 0.0
C190 C 0.5636 0.81061 -0.00175 0.0
C191 C 0.59861 0.83785 0.02907 0.0
C192 C 0.62435 0.77512 0.02765 0.0
N193 N 0.60337 0.75382 0.02202 0.0
C194 C 0.59933 0.73731 0.05683 0.0
C195 C 0.5917 0.73437 0.0357 0.0
C196 C 0.61911 0.7604 0.06366 0.0
C197 C 0.63261 0.77887 0.04848 0.0
H198 H 0.63331 0.79018 0.01635 0.0
H199 H 0.57555 0.71725 0.03074 0.0
C200 C 0.50514 0.73077 0.9626 0.0
N201 N 0.52004 0.74553 0.97843 0.0
C202 C 0.47956 0.72209 0.96303 0.0
C203 C 0.48527 0.74396 0.99609 0.0
C204 C 0.5106 0.75191 0.99514 0.0
C205 C 0.4693 0.72886 0.97987 0.0
H206 H 0.51318 0.72572 0.94965 0.0
H207 H 0.52276 0.7632 0.00778 0.0
C208 C 0.63204 0.76412 0.9748 0.0
N209 N 0.66259 0.74351 0.97501 0.0
C210 C 0.6573 0.77876 0.96978 0.0
C211 C 0.62232 0.73895 0.97989 0.0
C212 C 0.67244 0.76801 0.96999 0.0
C213 C 0.63807 0.7289 0.97992 0.0
C214 C 0.5738 0.79055 0.93733 0.0
C215 C 0.59482 0.80342 0.92449 0.0
C216 C 0.55484 0.7965 0.93657 0.0
C217 C 0.59672 0.82237 0.91127 0.0
C218 C 0.55742 0.81554 0.92311 0.0
N219 N 0.57814 0.82799 0.91087 0.0
C220 C 0.57751 0.71084 0.93213 0.0
C221 C 0.61377 0.74929 0.92397 0.0
C222 C 0.58356 0.6986 0.91673 0.0
N223 N 0.5928 0.73562 0.93557 0.0
C224 C 0.62056 0.73784 0.90848 0.0
C225 C 0.60559 0.71209 0.90496 0.0
H226 H 0.56099 0.70052 0.94171 0.0
H227 H 0.62557 0.76896 0.92719 0.0
C228 C 0.64059 0.83408 0.98044 0.0
N229 N 0.61759 0.82608 0.97212 0.0
C230 C 0.65632 0.85921 0.98502 0.0
C231 C 0.62481 0.86779 0.9718 0.0
C232 C 0.60973 0.84243 0.96726 0.0
C233 C 0.64822 0.87631 0.98124 0.0
H234 H 0.6462 0.82074 0.98472 0.0
H235 H 0.5912 0.83573 0.96114 0.0
O236 O 0.5631 0.729 0.98019 0.0
O237 O 0.57589 0.77953 -0.00065 0.0
O238 O 0.61701 0.77446 0.97425 0.0
O239 O 0.57148 0.77183 0.95024 0.0
H240 H 0.5429 0.73683 0.01443 0.0
H241 H 0.5467 0.68074 0.97704 0.0
H242 H 0.51241 0.70362 0.03798 0.0
H243 H 0.5164 0.64846 0.00153 0.0
H244 H 0.55546 0.84055 -0.00084 0.0
H245 H 0.60759 0.80856 0.02895 0.0
H246 H 0.55027 0.8006 0.98585 0.0
H247 H 0.61227 0.84869 0.04104 0.0
H248 H 0.58878 0.72239 0.06797 0.0
H249 H 0.64785 0.79702 0.05293 0.0
H250 H 0.46799 0.71015 0.95036 0.0
H251 H 0.47842 0.75004 0.00923 0.0
H252 H 0.6651 0.79822 0.96564 0.0
H253 H 0.60286 0.72721 0.98375 0.0
H254 H 0.69201 0.77913 0.96611 0.0
H255 H 0.63078 0.70946 0.98382 0.0
H256 H 0.60961 0.79896 0.92489 0.0
H257 H 0.53836 0.78656 0.94631 0.0
H258 H 0.61296 0.83262 0.90135 0.0
H259 H 0.54295 0.82043 0.9224 0.0
H260 H 0.57165 0.67869 0.91458 0.0
H261 H 0.6375 0.74896 0.89953 0.0
H262 H 0.67407 0.86495 0.99257 0.0
H263 H 0.61794 0.88045 0.9686 0.0
Li264 Li 0.83554 0.5832 0.32728 0.0
Li265 Li 0.80396 0.56055 0.30032 0.0
Li266 Li 0.84723 0.58869 0.29104 0.0
Li267 Li 0.8212 0.60498 0.30395 0.0
C268 C 0.83787 0.54291 0.3207 0.0
N269 N 0.84648 0.51409 0.34904 0.0
C270 C 0.81834 0.51965 0.32699 0.0
C271 C 0.86181 0.55144 0.32872 0.0
C272 C 0.82306 0.50537 0.34135 0.0
C273 C 0.86577 0.53662 0.34307 0.0
C274 C 0.78871 0.58782 0.33502 0.0
C275 C 0.75503 0.59675 0.33591 0.0
N276 N 0.76388 0.60904 0.35455 0.0
C277 C 0.79744 0.60053 0.35421 0.0
C278 C 0.76729 0.58586 0.32582 0.0
C279 C 0.78462 0.61111 0.36383 0.0
C280 C 0.86234 0.602 0.36539 0.0
N281 N 0.84319 0.58185 0.35587 0.0
C282 C 0.8253 0.56385 0.38919 0.0
C283 C 0.82534 0.56258 0.36722 0.0
C284 C 0.84361 0.58537 0.39949 0.0
C285 C 0.86299 0.6041 0.38741 0.0
H286 H 0.87587 0.61734 0.35588 0.0
H287 H 0.80984 0.54731 0.35915 0.0
C288 C 0.77515 0.51318 0.28054 0.0
N289 N 0.77491 0.52936 0.29496 0.0
C290 C 0.7543 0.48944 0.27812 0.0
C291 C 0.73351 0.49956 0.30546 0.0
C292 C 0.7547 0.52299 0.30735 0.0
C293 C 0.73316 0.48235 0.2908 0.0
H294 H 0.79175 0.51851 0.27129 0.0
H295 H 0.7553 0.53578 0.31923 0.0
C296 C 0.87871 0.63299 0.30677 0.0
N297 N 0.92555 0.66852 0.29303 0.0
C298 C 0.88179 0.65341 0.29494 0.0
C299 C 0.89946 0.63075 0.3118 0.0
C300 C 0.90563 0.67116 0.28812 0.0
C301 C 0.92297 0.64887 0.30464 0.0
C302 C 0.80245 0.57283 0.26106 0.0
C303 C 0.81185 0.56376 0.24547 0.0
C304 C 0.77764 0.56718 0.26005 0.0
C305 C 0.79618 0.54905 0.22914 0.0
C306 C 0.76256 0.55235 0.2435 0.0
N307 N 0.77206 0.54367 0.22852 0.0
C308 C 0.88448 0.58081 0.27315 0.0
C309 C 0.88002 0.61317 0.2575 0.0
C310 C 0.90422 0.58581 0.2596 0.0
N311 N 0.87308 0.59465 0.27198 0.0
C312 C 0.89984 0.61901 0.24383 0.0
C313 C 0.91225 0.60532 0.24489 0.0
H314 H 0.87834 0.566 0.28467 0.0
H315 H 0.87027 0.62354 0.25673 0.0
C316 C 0.82412 0.64798 0.32032 0.0
N317 N 0.81411 0.63144 0.30412 0.0
C318 C 0.81612 0.66498 0.32427 0.0
C319 C 0.78884 0.64872 0.29391 0.0
C320 C 0.79731 0.6319 0.2906 0.0
C321 C 0.79776 0.66503 0.31132 0.0
H322 H 0.83737 0.64702 0.33087 0.0
H323 H 0.78954 0.61841 0.27795 0.0
O324 O 0.83359 0.55731 0.30683 0.0
O325 O 0.80141 0.57795 0.32499 0.0
O326 O 0.85547 0.61517 0.31324 0.0
O327 O 0.8174 0.58701 0.2773 0.0
H328 H 0.79968 0.51275 0.321 0.0
H329 H 0.87712 0.56943 0.32408 0.0
H330 H 0.8081 0.48738 0.34643 0.0
H331 H 0.88417 0.54305 0.34949 0.0
H332 H 0.73857 0.59555 0.32886 0.0
H333 H 0.81414 0.60262 0.36147 0.0
H334 H 0.76045 0.57644 0.31082 0.0
H335 H 0.79126 0.6211 0.37862 0.0
H336 H 0.80972 0.5492 0.39778 0.0
H337 H 0.87748 0.62092 0.39478 0.0
H338 H 0.7548 0.47672 0.26665 0.0
H339 H 0.71792 0.49466 0.31596 0.0
H340 H 0.86591 0.65537 0.29085 0.0
H341 H 0.89737 0.61507 0.32095 0.0
H342 H 0.90829 0.68698 0.27883 0.0
H343 H 0.93917 0.64728 0.30827 0.0
H344 H 0.83097 0.56787 0.24604 0.0
H345 H 0.77 0.57383 0.2721 0.0
H346 H 0.80318 0.54183 0.21701 0.0
H347 H 0.74327 0.54767 0.24261 0.0
H348 H 0.91338 0.57488 0.26086 0.0
H349 H 0.90528 0.63393 0.23244 0.0
H350 H 0.82367 0.67745 0.3377 0.0
H351 H 0.77453 0.64803 0.28365 0.0
Li352 Li 0.25252 0.85219 0.67144 0.0
Li353 Li 0.25191 0.8173 0.6525 0.0
Li354 Li 0.26164 0.85594 0.63468 0.0
Li355 Li 0.21926 0.82729 0.64611 0.0
C356 C 0.2985 0.86126 0.67274 0.0
N357 N 0.33337 0.88134 0.70479 0.0
C358 C 0.30562 0.84626 0.68376 0.0
C359 C 0.30927 0.88651 0.67788 0.0
C360 C 0.32325 0.85676 0.69994 0.0
C361 C 0.32681 0.8963 0.69418 0.0
C362 C 0.20467 0.80162 0.68141 0.0
C363 C 0.16567 0.76275 0.6827 0.0
N364 N 0.1566 0.77309 0.69651 0.0
C365 C 0.19505 0.81174 0.69586 0.0
C366 C 0.18996 0.77683 0.67496 0.0
C367 C 0.17071 0.79704 0.70328 0.0
C368 C 0.2466 0.88139 0.7021 0.0
N369 N 0.25598 0.86602 0.69863 0.0
C370 C 0.25272 0.85556 0.73522 0.0
C371 C 0.26009 0.85401 0.71473 0.0
C372 C 0.24045 0.86907 0.73891 0.0
C373 C 0.23863 0.88321 0.72235 0.0
H374 H 0.24269 0.88993 0.68885 0.0
H375 H 0.26641 0.84098 0.71131 0.0
C376 C 0.27406 0.78788 0.6418 0.0
N377 N 0.25908 0.79103 0.65564 0.0
C378 C 0.27851 0.76805 0.64431 0.0
C379 C 0.25354 0.75625 0.67614 0.0
C380 C 0.24921 0.77599 0.67278 0.0
C381 C 0.26805 0.75176 0.66163 0.0
H382 H 0.28241 0.80064 0.62871 0.0
H383 H 0.23812 0.77944 0.68398 0.0
C384 C 0.24107 0.8838 0.6386 0.0
N385 N 0.24808 0.92399 0.6145 0.0
C386 C 0.22452 0.88043 0.62224 0.0
C387 C 0.26104 0.9076 0.64286 0.0
C388 C 0.2284 0.901 0.6102 0.0
C389 C 0.26432 0.92768 0.63044 0.0
C390 C 0.24031 0.80449 0.6119 0.0
C391 C 0.2588 0.81258 0.59636 0.0
C392 C 0.22375 0.77897 0.6145 0.0
C393 C 0.26043 0.79497 0.58368 0.0
C394 C 0.22604 0.76195 0.60155 0.0
N395 N 0.24417 0.77024 0.58653 0.0
C396 C 0.30461 0.89609 0.61611 0.0
C397 C 0.26874 0.87647 0.59424 0.0
C398 C 0.31796 0.91324 0.60016 0.0
N399 N 0.28044 0.87835 0.61288 0.0
C400 C 0.28135 0.89318 0.57789 0.0
C401 C 0.30626 0.91195 0.58079 0.0
H402 H 0.31342 0.89704 0.6311 0.0
H403 H 0.24947 0.86213 0.59221 0.0
C404 C 0.17419 0.82545 0.65318 0.0
N405 N 0.18457 0.81419 0.64205 0.0
C406 C 0.14837 0.81406 0.65508 0.0
C407 C 0.14441 0.78059 0.63271 0.0
C408 C 0.17035 0.79264 0.63127 0.0
C409 C 0.13316 0.79089 0.64534 0.0
H410 H 0.18603 0.84247 0.66177 0.0
H411 H 0.1791 0.78414 0.6225 0.0
O412 O 0.28117 0.8513 0.65692 0.0
O413 O 0.22794 0.81615 0.67298 0.0
O414 O 0.23796 0.86381 0.6502 0.0
O415 O 0.23839 0.82145 0.62445 0.0
H416 H 0.29757 0.82671 0.67993 0.0
H417 H 0.30394 0.89836 0.66952 0.0
H418 H 0.32886 0.84536 0.70867 0.0
H419 H 0.33519 0.91578 0.69842 0.0
H420 H 0.15397 0.74366 0.6776 0.0
H421 H 0.206 0.83089 0.70096 0.0
H422 H 0.19705 0.7687 0.66375 0.0
H423 H 0.16297 0.80471 0.71431 0.0
H424 H 0.25399 0.844 0.74746 0.0
H425 H 0.22914 0.89371 0.72463 0.0
H426 H 0.28972 0.76537 0.63263 0.0
H427 H 0.24574 0.74479 0.6901 0.0
H428 H 0.20902 0.86209 0.6187 0.0
H429 H 0.274 0.91048 0.65549 0.0
H430 H 0.21584 0.89867 0.59739 0.0
H431 H 0.2798 0.94619 0.63344 0.0
H432 H 0.27191 0.83221 0.5942 0.0
H433 H 0.20956 0.77234 0.62663 0.0
H434 H 0.27469 0.80097 0.57163 0.0
H435 H 0.21346 0.74215 0.6035 0.0
H436 H 0.33721 0.92731 0.60295 0.0
H437 H 0.2715 0.89176 0.56334 0.0
H438 H 0.14054 0.82255 0.66514 0.0
H439 H 0.13333 0.76295 0.62467 0.0
Li440 Li 0.44913 0.25293 0.98069 0.0
Li441 Li 0.41367 0.24933 7e-05 0.0
Li442 Li 0.40918 0.21728 0.97458 0.0
Li443 Li 0.41718 0.2582 0.96217 0.0
C444 C 0.44461 0.22543 0.0142 0.0
N445 N 0.47985 0.22356 0.03978 0.0
C446 C 0.44915 0.2356 0.03457 0.0
C447 C 0.45792 0.21416 0.00692 0.0
C448 C 0.467 0.23445 0.04726 0.0
C449 C 0.47572 0.21351 0.02004 0.0
C450 C 0.43981 0.30089 0.98771 0.0
C451 C 0.4172 0.3229 0.99201 0.0
N452 N 0.43908 0.34493 0.99147 0.0
C453 C 0.46206 0.32372 0.98718 0.0
C454 C 0.4172 0.30044 0.99013 0.0
C455 C 0.46131 0.3458 0.98912 0.0
C456 C 0.49507 0.25722 0.96898 0.0
N457 N 0.48362 0.26454 0.98323 0.0
C458 C 0.51985 0.28322 0.00511 0.0
C459 C 0.49566 0.27799 0.00069 0.0
C460 C 0.53172 0.27466 0.9913 0.0
C461 C 0.51929 0.26216 0.9727 0.0
H462 H 0.48507 0.24674 0.95515 0.0
H463 H 0.48596 0.28348 0.01175 0.0
C464 C 0.38624 0.2309 0.0361 0.0
N465 N 0.4029 0.25297 0.02719 0.0
C466 C 0.38065 0.22953 0.0575 0.0
C467 C 0.40938 0.27385 0.0604 0.0
C468 C 0.4142 0.27441 0.03871 0.0
C469 C 0.3929 0.25101 0.0701 0.0
H470 H 0.37898 0.21394 0.02705 0.0
H471 H 0.42832 0.29153 0.03155 0.0
C472 C 0.42828 0.2218 0.93743 0.0
N473 N 0.41549 0.18511 0.90721 0.0
C474 C 0.41363 0.2204 0.92009 0.0
C475 C 0.43659 0.20467 0.93931 0.0
C476 C 0.40734 0.20169 0.905 0.0
C477 C 0.42986 0.18621 0.9239 0.0
C478 C 0.36398 0.22355 0.98412 0.0
C479 C 0.3506 0.19955 0.99268 0.0
C480 C 0.35234 0.23778 0.98186 0.0
C481 C 0.32602 0.19042 -0.00075 0.0
C482 C 0.32772 0.22797 0.98859 0.0
N483 N 0.31519 0.2047 0.9971 0.0
C484 C 0.39625 0.16767 0.98193 0.0
C485 C 0.37168 0.17231 0.95555 0.0
C486 C 0.38194 0.14181 0.98059 0.0
N487 N 0.39086 0.18231 0.96962 0.0
C488 C 0.35666 0.14642 0.95383 0.0
C489 C 0.36162 0.13087 0.96664 0.0
H490 H 0.41114 0.17603 0.99334 0.0
H491 H 0.3676 0.18444 0.94619 0.0
C492 C 0.42914 0.29766 0.9336 0.0
N493 N 0.41072 0.27526 0.94074 0.0
C494 C 0.42429 0.31004 0.91746 0.0
C495 C 0.38169 0.27595 0.91642 0.0
C496 C 0.38737 0.26427 0.93253 0.0
C497 C 0.40031 0.29909 0.9086 0.0
H498 H 0.44762 0.30578 0.94034 0.0
H499 H 0.37322 0.24628 0.93837 0.0
O500 O 0.42734 0.22658 0.00142 0.0
O501 O 0.44024 0.27916 0.98549 0.0
O502 O 0.43417 0.23964 0.95262 0.0
O503 O 0.38799 0.23269 0.97725 0.0
H504 H 0.43914 0.24441 0.04057 0.0
H505 H 0.45488 0.2064 0.99114 0.0
H506 H 0.4707 0.24227 0.06304 0.0
H507 H 0.48632 0.20508 0.0145 0.0
H508 H 0.39982 0.32281 0.99393 0.0
H509 H 0.47972 0.32435 0.98525 0.0
H510 H 0.39991 0.28292 0.99075 0.0
H511 H 0.47839 0.36362 0.98874 0.0
H512 H 0.52862 0.2927 0.01972 0.0
H513 H 0.52794 0.25566 0.96143 0.0
H514 H 0.36861 0.21136 0.0644 0.0
H515 H 0.41951 0.29071 0.06968 0.0
H516 H 0.40707 0.23351 0.91835 0.0
H517 H 0.44777 0.20535 0.9527 0.0
H518 H 0.39593 0.20033 0.89154 0.0
H519 H 0.43599 0.17271 0.92526 0.0
H520 H 0.35918 0.18819 0.9946 0.0
H521 H 0.36208 0.25614 0.97482 0.0
H522 H 0.31557 0.17197 0.00608 0.0
H523 H 0.31854 0.23883 0.98698 0.0
H524 H 0.38609 0.13052 0.99106 0.0
H525 H 0.34114 0.13867 0.94287 0.0
H526 H 0.43924 0.32771 0.91172 0.0
H527 H 0.36289 0.267 0.91023 0.0
Li528 Li 0.58943 0.84652 0.36521 0.0
Li529 Li 0.60139 0.81598 0.35207 0.0
Li530 Li 0.59265 0.84114 0.32764 0.0
Li531 Li 0.55909 0.80712 0.34686 0.0
C532 C 0.64078 0.8702 0.33973 0.0
N533 N 0.68327 0.90492 0.31879 0.0
C534 C 0.65933 0.8646 0.33441 0.0
C535 C 0.64401 0.89358 0.33459 0.0
C536 C 0.68063 0.88237 0.32378 0.0
C537 C 0.66557 0.91084 0.32394 0.0
C538 C 0.58316 0.80057 0.39007 0.0
C539 C 0.58476 0.76544 0.40467 0.0
N540 N 0.59802 0.77973 0.42141 0.0
C541 C 0.59674 0.8149 0.40743 0.0
C542 C 0.57702 0.77562 0.38867 0.0
C543 C 0.60408 0.80402 0.42312 0.0
C544 C 0.57318 0.86407 0.39897 0.0
N545 N 0.59327 0.86882 0.38699 0.0
C546 C 0.6191 0.90619 0.40616 0.0
C547 C 0.61597 0.88927 0.39027 0.0
C548 C 0.5987 0.90183 0.41884 0.0
C549 C 0.57551 0.88041 0.41518 0.0
H550 H 0.55537 0.84759 0.39589 0.0
H551 H 0.63163 0.89239 0.38055 0.0
C552 C 0.62194 0.78778 0.33856 0.0
N553 N 0.62248 0.80199 0.35514 0.0
C554 C 0.6385 0.77886 0.3376 0.0
C555 C 0.65593 0.79899 0.37106 0.0
C556 C 0.63897 0.80769 0.37132 0.0
C557 C 0.65608 0.78479 0.35377 0.0
H558 H 0.6092 0.78402 0.32562 0.0
H559 H 0.63954 0.81964 0.38403 0.0
C560 C 0.55975 0.85905 0.33503 0.0
N561 N 0.54956 0.89473 0.31953 0.0
C562 C 0.53893 0.85206 0.32217 0.0
C563 C 0.5752 0.88417 0.34021 0.0
C564 C 0.53414 0.87037 0.31443 0.0
C565 C 0.56979 0.90193 0.33216 0.0
C566 C 0.56617 0.78599 0.31339 0.0
C567 C 0.55928 0.79031 0.29346 0.0
C568 C 0.55666 0.76151 0.32053 0.0
C569 C 0.54281 0.77002 0.28105 0.0
C570 C 0.54018 0.74174 0.30767 0.0
N571 N 0.53365 0.74637 0.28836 0.0
C572 C 0.61981 0.84944 0.29222 0.0
C573 C 0.5946 0.86801 0.28862 0.0
C574 C 0.62756 0.85492 0.27133 0.0
N575 N 0.60345 0.85572 0.3004 0.0
C576 C 0.60142 0.87333 0.2673 0.0
C577 C 0.61774 0.86628 0.2584 0.0
H578 H 0.62576 0.83882 0.30167 0.0
H579 H 0.58134 0.87253 0.29526 0.0
C580 C 0.51571 0.76484 0.36215 0.0
N581 N 0.52528 0.7811 0.34573 0.0
C582 C 0.49162 0.74436 0.36094 0.0
C583 C 0.48752 0.75811 0.32613 0.0
C584 C 0.5116 0.77839 0.32809 0.0
C585 C 0.47731 0.74057 0.3426 0.0
H586 H 0.52692 0.76756 0.37607 0.0
H587 H 0.5197 0.79154 0.31523 0.0
O588 O 0.61964 0.85289 0.34993 0.0
O589 O 0.57598 0.81093 0.37446 0.0
O590 O 0.56459 0.84131 0.34283 0.0
O591 O 0.58205 0.8056 0.32591 0.0
H592 H 0.65725 0.84665 0.33825 0.0
H593 H 0.62996 0.89832 0.33861 0.0
H594 H 0.69505 0.87821 0.31946 0.0
H595 H 0.66821 0.92894 0.31976 0.0
H596 H 0.58026 0.74619 0.40375 0.0
H597 H 0.60168 0.83425 0.40874 0.0
H598 H 0.56659 0.76431 0.37529 0.0
H599 H 0.61466 0.81489 0.43663 0.0
H600 H 0.63737 0.9223 0.40873 0.0
H601 H 0.55935 0.8765 0.4246 0.0
H602 H 0.6378 0.76772 0.32412 0.0
H603 H 0.66936 0.8041 0.38375 0.0
H604 H 0.52663 0.83271 0.31814 0.0
H605 H 0.59114 0.88992 0.35037 0.0
H606 H 0.51816 0.86523 0.30438 0.0
H607 H 0.58166 0.92144 0.336 0.0
H608 H 0.56633 0.8091 0.28769 0.0
H609 H 0.56177 0.75786 0.33593 0.0
H610 H 0.53723 0.77309 0.26563 0.0
H611 H 0.53254 0.72272 0.31306 0.0
H612 H 0.63957 0.84849 0.26492 0.0
H613 H 0.59322 0.88181 0.25766 0.0
H614 H 0.48437 0.73157 0.37417 0.0
H615 H 0.47736 0.75579 0.31158 0.0
Li616 Li 0.78928 0.59451 0.69818 0.0
Li617 Li 0.74883 0.58821 0.70994 0.0
Li618 Li 0.75306 0.55435 0.694 0.0
Li619 Li 0.75723 0.58869 0.67201 0.0
C620 C 0.78502 0.57819 0.73626 0.0
N621 N 0.82246 0.59264 0.76597 0.0
C622 C 0.7884 0.59572 0.75175 0.0
C623 C 0.80056 0.56787 0.73596 0.0
C624 C 0.80745 0.6028 0.76662 0.0
C625 C 0.81942 0.57547 0.75109 0.0
C626 C 0.7825 0.63948 0.68598 0.0
C627 C 0.77571 0.67401 0.67944 0.0
N628 N 0.79925 0.68749 0.67166 0.0
C629 C 0.80672 0.65379 0.67808 0.0
C630 C 0.76693 0.64975 0.68681 0.0
C631 C 0.8148 0.67796 0.67084 0.0
C632 C 0.83835 0.60591 0.69102 0.0
N633 N 0.82434 0.61283 0.70257 0.0
C634 C 0.86097 0.64885 0.71537 0.0
C635 C 0.83504 0.6336 0.71492 0.0
C636 C 0.87585 0.64249 0.70305 0.0
C637 C 0.86421 0.62043 0.69111 0.0
H638 H 0.82944 0.58969 0.68098 0.0
H639 H 0.8234 0.63887 0.72368 0.0
C640 C 0.70956 0.57857 0.73788 0.0
N641 N 0.732 0.59644 0.73033 0.0
C642 C 0.69675 0.58472 0.75262 0.0
C643 C 0.7308 0.62738 0.75191 0.0
C644 C 0.74287 0.62041 0.73715 0.0
C645 C 0.70739 0.60943 0.75977 0.0
H646 H 0.70163 0.55954 0.73246 0.0
H647 H 0.76095 0.6341 0.73113 0.0
C648 C 0.78058 0.55594 0.66114 0.0
N649 N 0.78245 0.51866 0.63858 0.0
C650 C 0.77181 0.55073 0.64032 0.0
C651 C 0.79059 0.54236 0.67038 0.0
C652 C 0.77287 0.53179 0.6292 0.0
C653 C 0.79126 0.52352 0.65876 0.0
C654 C 0.70546 0.56341 0.68567 0.0
C655 C 0.68308 0.54156 0.69 0.0
C656 C 0.70512 0.58492 0.67963 0.0
C657 C 0.66066 0.54166 0.68834 0.0
C658 C 0.68233 0.58428 0.67815 0.0
N659 N 0.66075 0.56284 0.68252 0.0
C660 C 0.7439 0.50808 0.71064 0.0
C661 C 0.72852 0.50664 0.67602 0.0
C662 C 0.73676 0.48287 0.70954 0.0
N663 N 0.74018 0.51947 0.69382 0.0
C664 C 0.72158 0.48157 0.67404 0.0
C665 C 0.72606 0.46939 0.69081 0.0
H666 H 0.7529 0.51871 0.72472 0.0
H667 H 0.72562 0.51622 0.66298 0.0
C668 C 0.77292 0.61555 0.63439 0.0
N669 N 0.75266 0.59684 0.64413 0.0
C670 C 0.77301 0.61867 0.61258 0.0
C671 C 0.73109 0.58342 0.61117 0.0
C672 C 0.73168 0.58123 0.63313 0.0
C673 C 0.7523 0.60183 0.60063 0.0
H674 H 0.78981 0.6267 0.64319 0.0
H675 H 0.71619 0.56584 0.6411 0.0
O676 O 0.76689 0.5715 0.72124 0.0
O677 O 0.77441 0.61591 0.69352 0.0
O678 O 0.77935 0.5742 0.67241 0.0
O679 O 0.72758 0.5637 0.68755 0.0
H680 H 0.77657 0.60391 0.75218 0.0
H681 H 0.79823 0.55433 0.72406 0.0
H682 H 0.81036 0.61643 0.77864 0.0
H683 H 0.83169 0.56776 0.75096 0.0
H684 H 0.76383 0.68215 0.67999 0.0
H685 H 0.81903 0.64618 0.67716 0.0
H686 H 0.74832 0.63925 0.69326 0.0
H687 H 0.83342 0.68913 0.66454 0.0
H688 H 0.86923 0.66569 0.72483 0.0
H689 H 0.87489 0.61507 0.68106 0.0
H690 H 0.67889 0.5703 0.75853 0.0
H691 H 0.73955 0.64668 0.75687 0.0
H692 H 0.76421 0.56111 0.63279 0.0
H693 H 0.79738 0.54603 0.68649 0.0
H694 H 0.76605 0.52751 0.61311 0.0
H695 H 0.79871 0.51271 0.66581 0.0
H696 H 0.68307 0.52475 0.6947 0.0
H697 H 0.72224 0.60184 0.67597 0.0
H698 H 0.64319 0.5249 0.69171 0.0
H699 H 0.6818 0.60081 0.67349 0.0
H700 H 0.74 0.47421 0.72311 0.0
H701 H 0.71374 0.47224 0.65918 0.0
H702 H 0.78998 0.63263 0.60499 0.0
H703 H 0.71491 0.56992 0.60239 0.0
Li704 Li 0.17245 0.78316 0.01267 0.0
Li705 Li 0.14426 0.74346 0.0264 0.0
Li706 Li 0.17966 0.74902 0.00603 0.0
Li707 Li 0.14474 0.75111 0.98921 0.0
C708 C 0.18259 0.77379 0.05363 0.0
N709 N 0.18701 0.79244 0.09411 0.0
C710 C 0.16973 0.78609 0.05935 0.0
C711 C 0.19768 0.77098 0.06849 0.0
C712 C 0.17221 0.79538 0.07989 0.0
C713 C 0.19969 0.78054 0.08888 0.0
C714 C 0.11058 0.75704 0.01196 0.0
C715 C 0.06895 0.72208 0.00801 0.0
N716 N 0.05956 0.73742 0.01168 0.0
C717 C 0.10053 0.77245 0.01564 0.0
C718 C 0.09469 0.73163 0.00806 0.0
C719 C 0.07468 0.76218 0.01545 0.0
C720 C 0.17767 0.82937 0.00442 0.0
N721 N 0.1883 0.81835 0.01553 0.0
C722 C 0.22345 0.85797 0.02389 0.0
C723 C 0.21048 0.832 0.02561 0.0
C724 C 0.21347 0.86985 0.01163 0.0
C725 C 0.18999 0.8552 0.00222 0.0
H726 H 0.16018 0.81794 0.99635 0.0
H727 H 0.21864 0.82269 0.0341 0.0
C728 C 0.12253 0.70402 0.05543 0.0
N729 N 0.12416 0.72595 0.04981 0.0
C730 C 0.10824 0.69075 0.0729 0.0
C731 C 0.09763 0.72298 0.07834 0.0
C732 C 0.11217 0.73562 0.06086 0.0
C733 C 0.09558 0.70026 0.08462 0.0
H734 H 0.13249 0.69695 0.04639 0.0
H735 H 0.11392 0.75319 0.05615 0.0
C736 C 0.20116 0.79511 0.97896 0.0
N737 N 0.24175 0.8402 0.96729 0.0
C738 C 0.19892 0.80929 0.96281 0.0
C739 C 0.22412 0.80379 0.98905 0.0
C740 C 0.21964 0.83207 0.95719 0.0
C741 C 0.24441 0.82663 0.98293 0.0
C742 C 0.14231 0.70444 0.98884 0.0
C743 C 0.15644 0.71202 0.97025 0.0
C744 C 0.12671 0.67904 0.99284 0.0
C745 C 0.15467 0.69402 0.95594 0.0
C746 C 0.12543 0.6616 0.97812 0.0
N747 N 0.13933 0.66939 0.96013 0.0
C748 C 0.20569 0.72438 0.01763 0.0
C749 C 0.21766 0.74541 0.98466 0.0
C750 C 0.22311 0.71652 0.01533 0.0
N751 N 0.20346 0.73867 0.00245 0.0
C752 C 0.23541 0.73817 0.98179 0.0
C753 C 0.2384 0.72356 0.99726 0.0
H754 H 0.19391 0.71912 0.03152 0.0
H755 H 0.21529 0.75652 0.9727 0.0
C756 C 0.1293 0.76957 0.95779 0.0
N757 N 0.12691 0.74748 0.96387 0.0
C758 C 0.12268 0.77253 0.93744 0.0
C759 C 0.10883 0.72911 0.93059 0.0
C760 C 0.11563 0.72697 0.95125 0.0
C761 C 0.11345 0.75246 0.9232 0.0
H762 H 0.13808 0.78544 0.96831 0.0
H763 H 0.11316 0.70935 0.95667 0.0
O764 O 0.18037 0.76429 0.03369 0.0
O765 O 0.1359 0.76702 0.01213 0.0
O766 O 0.18089 0.77316 0.98526 0.0
O767 O 0.14405 0.72158 0.00341 0.0
H768 H 0.15792 0.78842 0.04811 0.0
H769 H 0.20772 0.76146 0.06431 0.0
H770 H 0.16234 0.8049 0.08453 0.0
H771 H 0.2113 0.77849 0.10055 0.0
H772 H 0.05643 0.70246 0.00504 0.0
H773 H 0.1126 0.79217 0.01865 0.0
H774 H 0.10202 0.71936 0.00513 0.0
H775 H 0.06665 0.7739 0.01831 0.0
H776 H 0.24137 0.86857 0.03159 0.0
H777 H 0.18175 0.86346 0.99237 0.0
H778 H 0.10737 0.67345 0.07732 0.0
H779 H 0.08788 0.73081 0.08669 0.0
H780 H 0.18137 0.80289 0.95476 0.0
H781 H 0.22611 0.79325 0.0018 0.0
H782 H 0.21813 0.84333 0.94483 0.0
H783 H 0.26221 0.83366 0.99073 0.0
H784 H 0.16843 0.73156 0.96673 0.0
H785 H 0.11574 0.67287 0.00721 0.0
H786 H 0.16545 0.69963 0.94147 0.0
H787 H 0.11342 0.64188 0.98102 0.0
H788 H 0.22452 0.70501 0.02753 0.0
H789 H 0.247 0.74443 0.96777 0.0
H790 H 0.12687 0.79096 0.93243 0.0
H791 H 0.10146 0.71312 0.92014 0.0
Li792 Li 0.39078 0.18237 0.34864 0.0
Li793 Li 0.40046 0.15193 0.36403 0.0
Li794 Li 0.43226 0.18838 0.34594 0.0
Li795 Li 0.39787 0.15395 0.32655 0.0
C796 C 0.4072 0.19879 0.38668 0.0
N797 N 0.39094 0.22119 0.41539 0.0
C798 C 0.39231 0.18519 0.4038 0.0
C799 C 0.41385 0.2238 0.38417 0.0
C800 C 0.38429 0.19686 0.41816 0.0
C801 C 0.40541 0.23477 0.39885 0.0
C802 C 0.34982 0.12804 0.33755 0.0
C803 C 0.32566 0.08749 0.32145 0.0
N804 N 0.30781 0.09318 0.31618 0.0
C805 C 0.33118 0.13344 0.33205 0.0
C806 C 0.34699 0.10484 0.3323 0.0
C807 C 0.31011 0.11558 0.32122 0.0
C808 C 0.37497 0.21407 0.33302 0.0
N809 N 0.37149 0.19853 0.34946 0.0
C810 C 0.33912 0.20475 0.3634 0.0
C811 C 0.35392 0.19359 0.36452 0.0
C812 C 0.3425 0.22101 0.34658 0.0
C813 C 0.36077 0.22565 0.33133 0.0
H814 H 0.38831 0.217 0.32082 0.0
H815 H 0.35107 0.18064 0.37714 0.0
C816 C 0.41265 0.13644 0.40196 0.0
N817 N 0.39491 0.12989 0.38678 0.0
C818 C 0.40966 0.11961 0.41795 0.0
C819 C 0.3699 0.08998 0.40264 0.0
C820 C 0.37367 0.10736 0.38699 0.0
C821 C 0.38816 0.09591 0.41824 0.0
H822 H 0.42932 0.15459 0.40139 0.0
H823 H 0.35975 0.10279 0.37491 0.0
C824 C 0.42861 0.20833 0.31036 0.0
N825 N 0.46535 0.245 0.28543 0.0
C826 C 0.43655 0.20192 0.2919 0.0
C827 C 0.43926 0.23344 0.31602 0.0
C828 C 0.45516 0.22071 0.27953 0.0
C829 C 0.45785 0.25169 0.30325 0.0
C830 C 0.43301 0.13906 0.35121 0.0
C831 C 0.45481 0.14992 0.36328 0.0
C832 C 0.41935 0.11318 0.34879 0.0
C833 C 0.46244 0.1346 0.37302 0.0
C834 C 0.42755 0.0985 0.35883 0.0
N835 N 0.44874 0.10942 0.37064 0.0
C836 C 0.47576 0.23367 0.35597 0.0
C837 C 0.48037 0.20976 0.3289 0.0
C838 C 0.49961 0.25357 0.35198 0.0
N839 N 0.46646 0.21266 0.34404 0.0
C840 C 0.50435 0.22918 0.3244 0.0
C841 C 0.51394 0.25169 0.33563 0.0
H842 H 0.46428 0.23538 0.36795 0.0
H843 H 0.47233 0.19284 0.31959 0.0
C844 C 0.37252 0.14177 0.28892 0.0
N845 N 0.38939 0.13836 0.29989 0.0
C846 C 0.37 0.13778 0.26723 0.0
C847 C 0.40201 0.12632 0.26846 0.0
C848 C 0.40341 0.12988 0.29039 0.0
C849 C 0.38576 0.13123 0.25662 0.0
H850 H 0.36269 0.14985 0.29665 0.0
H851 H 0.41733 0.12824 0.29945 0.0
O852 O 0.41507 0.18767 0.37235 0.0
O853 O 0.37065 0.14535 0.34806 0.0
O854 O 0.41088 0.19014 0.32305 0.0
O855 O 0.42495 0.1537 0.34195 0.0
H856 H 0.38684 0.16579 0.40592 0.0
H857 H 0.42508 0.23451 0.37086 0.0
H858 H 0.37272 0.18654 0.43146 0.0
H859 H 0.41029 0.25405 0.39703 0.0
H860 H 0.32331 0.06953 0.31718 0.0
H861 H 0.33302 0.15126 0.33596 0.0
H862 H 0.36128 0.10039 0.33631 0.0
H863 H 0.29559 0.11955 0.3168 0.0
H864 H 0.32516 0.20062 0.37544 0.0
H865 H 0.36353 0.2375 0.31779 0.0
H866 H 0.42421 0.12486 0.42965 0.0
H867 H 0.3528 0.07213 0.40257 0.0
H868 H 0.42864 0.18267 0.2872 0.0
H869 H 0.43352 0.23876 0.33035 0.0
H870 H 0.46148 0.21599 0.26524 0.0
H871 H 0.4664 0.27116 0.30757 0.0
H872 H 0.46557 0.16994 0.36532 0.0
H873 H 0.40249 0.10452 0.33941 0.0
H874 H 0.47919 0.14272 0.38253 0.0
H875 H 0.41707 0.07842 0.35724 0.0
H876 H 0.5065 0.2705 0.3612 0.0
H877 H 0.5147 0.22706 0.31154 0.0
H878 H 0.35786 0.14254 0.25859 0.0
H879 H 0.41477 0.12175 0.26068 0.0
Li880 Li 0.2603 0.40759 0.69731 0.0
Li881 Li 0.22241 0.39996 0.68111 0.0
Li882 Li 0.25892 0.4111 0.65981 0.0
Li883 Li 0.25651 0.44328 0.68245 0.0
C884 C 0.23923 0.36034 0.68454 0.0
N885 N 0.23869 0.31859 0.7006 0.0
C886 C 0.2187 0.34272 0.69612 0.0
C887 C 0.25929 0.35653 0.68086 0.0
C888 C 0.21882 0.32178 0.70416 0.0
C889 C 0.25873 0.33538 0.68921 0.0
C890 C 0.21836 0.41526 0.71957 0.0
C891 C 0.1907 0.42679 0.73648 0.0
N892 N 0.178 0.40373 0.74537 0.0
C893 C 0.20507 0.39171 0.72891 0.0
C894 C 0.21114 0.43298 0.72337 0.0
C895 C 0.18469 0.38622 0.74187 0.0
C896 C 0.30133 0.41331 0.72029 0.0
N897 N 0.27607 0.39952 0.7192 0.0
C898 C 0.27496 0.37451 0.7484 0.0
C899 C 0.26276 0.38066 0.73306 0.0
C900 C 0.30106 0.38823 0.74967 0.0
C901 C 0.31428 0.40801 0.73552 0.0
H902 H 0.31149 0.42839 0.70925 0.0
H903 H 0.24271 0.3702 0.73213 0.0
C904 C 0.17974 0.35936 0.66534 0.0
N905 N 0.18702 0.37966 0.67792 0.0
C906 C 0.15494 0.34494 0.65905 0.0
C907 C 0.14536 0.37241 0.67891 0.0
C908 C 0.17042 0.38642 0.68468 0.0
C909 C 0.13737 0.35151 0.66568 0.0
H910 H 0.19344 0.35495 0.65943 0.0
H911 H 0.17667 0.40325 0.69376 0.0
C912 C 0.30565 0.44538 0.66727 0.0
N913 N 0.34786 0.46389 0.64237 0.0
C914 C 0.31705 0.46989 0.65978 0.0
C915 C 0.3159 0.43041 0.66234 0.0
C916 C 0.33834 0.47887 0.64715 0.0
C917 C 0.33718 0.44007 0.64965 0.0
C918 C 0.21682 0.42411 0.648 0.0
C919 C 0.20727 0.40969 0.62972 0.0
C920 C 0.20571 0.43724 0.656 0.0
C921 C 0.18663 0.40858 0.61975 0.0
C922 C 0.18502 0.43555 0.64562 0.0
N923 N 0.176 0.42139 0.62786 0.0
C924 C 0.25178 0.38125 0.62554 0.0
C925 C 0.2772 0.42438 0.61823 0.0
C926 C 0.24612 0.37609 0.60415 0.0
N927 N 0.26594 0.40519 0.63216 0.0
C928 C 0.27255 0.41999 0.59661 0.0
C929 C 0.25526 0.39584 0.58951 0.0
H930 H 0.24235 0.36649 0.63701 0.0
H931 H 0.28754 0.44334 0.62395 0.0
C932 C 0.26858 0.48892 0.70264 0.0
N933 N 0.26539 0.47713 0.68379 0.0
C934 C 0.27357 0.51354 0.70316 0.0
C935 C 0.27321 0.51368 0.66486 0.0
C936 C 0.26777 0.48896 0.66509 0.0
C937 C 0.27581 0.52609 0.68407 0.0
H938 H 0.2668 0.47904 0.71725 0.0
H939 H 0.26518 0.47904 0.65036 0.0
O940 O 0.23953 0.38104 0.67663 0.0
O941 O 0.23848 0.42104 0.70696 0.0
O942 O 0.28474 0.43621 0.67959 0.0
O943 O 0.23685 0.42526 0.65811 0.0
H944 H 0.20294 0.34529 0.69902 0.0
H945 H 0.27514 0.36978 0.67167 0.0
H946 H 0.20314 0.30808 0.71327 0.0
H947 H 0.27422 0.33228 0.6866 0.0
H948 H 0.18486 0.44029 0.73951 0.0
H949 H 0.21021 0.37771 0.72597 0.0
H950 H 0.22097 0.45119 0.7161 0.0
H951 H 0.17417 0.36801 0.74911 0.0
H952 H 0.26411 0.35932 0.75924 0.0
H953 H 0.33444 0.41893 0.73596 0.0
H954 H 0.14984 0.3294 0.64844 0.0
H955 H 0.13248 0.37815 0.68447 0.0
H956 H 0.30958 0.48185 0.66366 0.0
H957 H 0.30747 0.41152 0.66821 0.0
H958 H 0.3473 0.49777 0.64117 0.0
H959 H 0.34524 0.42863 0.64562 0.0
H960 H 0.21565 0.39941 0.62334 0.0
H961 H 0.21278 0.44835 0.67022 0.0
H962 H 0.17909 0.39757 0.60556 0.0
H963 H 0.17611 0.44547 0.6517 0.0
H964 H 0.23251 0.35722 0.59966 0.0
H965 H 0.28056 0.43571 0.58587 0.0
H966 H 0.27558 0.52265 0.71826 0.0
H967 H 0.27458 0.52274 0.64985 0.0
Li968 Li 0.82962 0.21335 0.0383 0.0
Li969 Li 0.85665 0.25802 0.04222 0.0
Li970 Li 0.81347 0.24111 0.03179 0.0
Li971 Li 0.84333 0.23922 0.00791 0.0
C972 C 0.83234 0.23253 0.07893 0.0
N973 N 0.84586 0.22682 0.11931 0.0
C974 C 0.8515 0.22714 0.08189 0.0
C975 C 0.82009 0.23505 0.0965 0.0
C976 C 0.85805 0.22432 0.10244 0.0
C977 C 0.82718 0.23208 0.11679 0.0
C978 C 0.88511 0.24055 0.01658 0.0
C979 C 0.91949 0.27111 0.99576 0.0
N980 N 0.92609 0.25376 0.99111 0.0
C981 C 0.89228 0.22304 0.01167 0.0
C982 C 0.89886 0.26482 0.00863 0.0
C983 C 0.91304 0.23008 -0.00126 0.0
C984 C 0.82602 0.16787 0.0321 0.0
N985 N 0.82013 0.18033 0.04651 0.0
C986 C 0.79318 0.14242 0.06475 0.0
C987 C 0.80453 0.16835 0.06297 0.0
C988 C 0.79792 0.12889 0.04938 0.0
C989 C 0.81515 0.14207 0.03325 0.0
H990 H 0.8377 0.17779 0.01876 0.0
H991 H 0.79958 0.17864 0.07385 0.0
C992 C 0.87673 0.3 0.06812 0.0
N993 N 0.88204 0.28362 0.05845 0.0
C994 C 0.89441 0.31875 0.08109 0.0
C995 C 0.92281 0.30366 0.07345 0.0
C996 C 0.90446 0.28499 0.06091 0.0
C997 C 0.91777 0.32068 0.08383 0.0
H998 H 0.8586 0.29823 0.06596 0.0
H999 H 0.90796 0.27136 0.05343 0.0
C1000 C 0.78829 0.19006 0.01476 0.0
N1001 N 0.74721 0.14267 0.01697 0.0
C1002 C 0.78413 0.17254 -0.00098 0.0
C1003 C 0.77146 0.18353 0.03155 0.0
C1004 C 0.76327 0.14867 0.00043 0.0
C1005 C 0.75083 0.15947 0.03239 0.0
C1006 C 0.83705 0.28147 0.00438 0.0
C1007 C 0.81887 0.26768 0.9892 0.0
C1008 C 0.84773 0.30737 0.005 0.0
C1009 C 0.81179 0.2801 0.9748 0.0
C1010 C 0.84016 0.31911 0.99031 0.0
N1011 N 0.82249 0.30534 0.97565 0.0
C1012 C 0.78603 0.26264 0.04756 0.0
C1013 C 0.76763 0.23538 0.01838 0.0
C1014 C 0.76708 0.26861 0.04745 0.0
N1015 N 0.786 0.24643 0.03306 0.0
C1016 C 0.7484 0.2408 0.01768 0.0
C1017 C 0.74812 0.25786 0.03216 0.0
H1018 H 0.80112 0.27137 0.05887 0.0
H1019 H 0.76824 0.2228 0.00686 0.0
C1020 C 0.8474 0.21509 0.97335 0.0
N1021 N 0.85154 0.23795 0.97918 0.0
C1022 C 0.84874 0.20979 0.95217 0.0
C1023 C 0.86011 0.25221 0.94343 0.0
C1024 C 0.85891 0.2568 0.96492 0.0
C1025 C 0.85425 0.22822 0.93685 0.0
H1026 H 0.84199 0.20065 0.98514 0.0
H1027 H 0.86285 0.27506 0.97004 0.0
O1028 O 0.82567 0.23568 0.05903 0.0
O1029 O 0.86448 0.23391 0.02878 0.0
O1030 O 0.80915 0.21322 0.01415 0.0
O1031 O 0.84393 0.26976 0.01901 0.0
H1032 H 0.86124 0.22513 0.06855 0.0
H1033 H 0.80528 0.23931 0.09445 0.0
H1034 H 0.87283 0.22014 0.10497 0.0
H1035 H 0.81786 0.23399 0.13053 0.0
H1036 H 0.93022 0.28978 0.98941 0.0
H1037 H 0.88197 0.20424 0.01779 0.0
H1038 H 0.89347 0.27856 0.01219 0.0
H1039 H 0.91877 0.21671 0.99477 0.0
H1040 H 0.78005 0.13299 0.07746 0.0
H1041 H 0.81892 0.13247 0.02073 0.0
H1042 H 0.88989 0.33153 0.08893 0.0
H1043 H 0.94047 0.3043 0.07556 0.0
H1044 H 0.79687 0.17724 0.98588 0.0
H1045 H 0.77456 0.19676 0.04401 0.0
H1046 H 0.75987 0.13491 0.9884 0.0
H1047 H 0.73777 0.1541 0.04539 0.0
H1048 H 0.8104 0.24763 0.98845 0.0
H1049 H 0.8617 0.31828 0.01676 0.0
H1050 H 0.79778 0.26967 0.96296 0.0
H1051 H 0.84828 0.33916 0.9906 0.0
H1052 H 0.76766 0.28202 0.05877 0.0
H1053 H 0.73396 0.23183 0.00583 0.0
H1054 H 0.84391 0.19101 0.94772 0.0
H1055 H 0.86466 0.26692 0.93201 0.0
H1056 H 0.26581 0.54078 0.3561 0.0
H1057 H 0.30383 0.58136 0.3576 0.0
H1058 H 0.31497 0.57733 0.29062 0.0
H1059 H 0.27762 0.53614 0.2892 0.0
H1060 H 0.35681 0.5923 0.31039 0.0
H1061 H 0.29501 0.6163 0.31072 0.0
H1062 H 0.25698 0.61618 0.3223 0.0
H1063 H 0.28851 0.64101 0.38412 0.0
H1064 H 0.32662 0.64095 0.37301 0.0
H1065 H 0.43539 0.73691 0.32443 0.0
H1066 H 0.3952 0.69913 0.31866 0.0
H1067 H 0.42215 0.65561 0.35047 0.0
H1068 H 0.46266 0.69297 0.35538 0.0
H1069 H 0.36042 0.66639 0.34406 0.0
H1070 H 0.39853 0.59923 0.32779 0.0
H1071 H 0.43605 0.60094 0.31269 0.0
H1072 H 0.45059 0.66512 0.27589 0.0
H1073 H 0.41297 0.66357 0.29051 0.0
C1074 C 0.27641 0.54843 0.3417 0.0
C1075 C 0.26866 0.53514 0.32253 0.0
C1076 C 0.29799 0.5718 0.34253 0.0
C1077 C 0.31211 0.58254 0.32417 0.0
C1078 C 0.30432 0.56944 0.30498 0.0
C1079 C 0.28282 0.54599 0.30415 0.0
C1080 C 0.33553 0.60697 0.3252 0.0
C1081 C 0.35756 0.60851 0.31769 0.0
C1082 C 0.33647 0.6283 0.33431 0.0
C1083 C 0.3136 0.62842 0.34107 0.0
C1084 C 0.29377 0.62156 0.32684 0.0
C1085 C 0.27221 0.62155 0.33331 0.0
C1086 C 0.27031 0.62853 0.35394 0.0
C1087 C 0.29 0.63559 0.36814 0.0
C1088 C 0.3116 0.63561 0.36176 0.0
C1089 C 0.43283 0.71926 0.33004 0.0
C1090 C 0.45233 0.71797 0.34026 0.0
C1091 C 0.40978 0.69772 0.32689 0.0
C1092 C 0.40578 0.6745 0.33387 0.0
C1093 C 0.42494 0.67327 0.34463 0.0
C1094 C 0.44802 0.69473 0.34767 0.0
C1095 C 0.38171 0.65147 0.32973 0.0
C1096 C 0.3596 0.6502 0.33667 0.0
C1097 C 0.38058 0.63057 0.31957 0.0
C1098 C 0.40304 0.6314 0.31041 0.0
C1099 C 0.40966 0.61363 0.3164 0.0
C1100 C 0.43096 0.61459 0.30793 0.0
C1101 C 0.44573 0.63317 0.29339 0.0
C1102 C 0.43918 0.65078 0.28721 0.0
C1103 C 0.41789 0.64989 0.2956 0.0
H1104 H 0.46223 0.63389 0.28688 0.0
H1105 H 0.2536 0.62852 0.35892 0.0
H1106 H 0.74483 0.2758 0.68237 0.0
H1107 H 0.7382 0.3107 0.68974 0.0
H1108 H 0.69444 0.29463 0.63267 0.0
H1109 H 0.70201 0.26018 0.62483 0.0
H1110 H 0.72371 0.34171 0.63499 0.0
H1111 H 0.66762 0.28197 0.68394 0.0
H1112 H 0.65323 0.25004 0.71197 0.0
H1113 H 0.70624 0.3039 0.75526 0.0
H1114 H 0.72121 0.33608 0.72739 0.0
H1115 H 0.68823 0.43082 0.66841 0.0
H1116 H 0.6831 0.38971 0.6613 0.0
H1117 H 0.74632 0.40723 0.70095 0.0
H1118 H 0.75271 0.44881 0.70715 0.0
H1119 H 0.70034 0.35672 0.70634 0.0
H1120 H 0.75871 0.41439 0.65389 0.0
H1121 H 0.77055 0.44558 0.62544 0.0
H1122 H 0.70834 0.39312 0.58815 0.0
H1123 H 0.69588 0.36176 0.61658 0.0
C1124 C 0.73356 0.27958 0.67154 0.0
C1125 C 0.72374 0.26526 0.65314 0.0
C1126 C 0.72966 0.29944 0.6758 0.0
C1127 C 0.71533 0.305 0.66202 0.0
C1128 C 0.70545 0.29063 0.6436 0.0
C1129 C 0.70974 0.27099 0.63913 0.0
C1130 C 0.71188 0.32664 0.66639 0.0
C1131 C 0.71805 0.34464 0.65048 0.0
C1132 C 0.70465 0.33068 0.68663 0.0
C1133 C 0.69565 0.31141 0.70351 0.0
C1134 C 0.67632 0.28697 0.69939 0.0
C1135 C 0.66805 0.26883 0.71526 0.0
C1136 C 0.67884 0.27493 0.73537 0.0
C1137 C 0.6979 0.29921 0.73967 0.0
C1138 C 0.70626 0.31742 0.72385 0.0
C1139 C 0.70119 0.42608 0.67555 0.0
C1140 C 0.72102 0.44337 0.68827 0.0
C1141 C 0.69803 0.40247 0.67161 0.0
C1142 C 0.71435 0.39558 0.68062 0.0
C1143 C 0.73345 0.41224 0.69401 0.0
C1144 C 0.73694 0.43599 0.69763 0.0
C1145 C 0.71262 0.37163 0.67511 0.0
C1146 C 0.70551 0.35334 0.6908 0.0
C1147 C 0.71854 0.3671 0.65461 0.0
C1148 C 0.72618 0.38586 0.63746 0.0
C1149 C 0.74741 0.4096 0.63972 0.0
C1150 C 0.75426 0.42729 0.62358 0.0
C1151 C 0.74016 0.42136 0.60503 0.0
C1152 C 0.71921 0.3977 0.60255 0.0
C1153 C 0.71225 0.37997 0.61867 0.0
H1154 H 0.7455 0.43508 0.59255 0.0
H1155 H 0.6724 0.26086 0.74764 0.0
H1156 H 0.43892 0.72355 0.94626 0.0
H1157 H 0.39594 0.71456 0.94738 0.0
H1158 H 0.39608 0.70932 0.01547 0.0
H1159 H 0.43839 0.71632 0.01441 0.0
H1160 H 0.35213 0.67712 0.00157 0.0
H1161 H 0.40877 0.76423 0.98916 0.0
H1162 H 0.44229 0.80069 0.97067 0.0
H1163 H 0.39845 0.77994 0.91383 0.0
H1164 H 0.36479 0.74316 0.93193 0.0
H1165 H 0.26842 0.72125 0.028 0.0
H1166 H 0.30336 0.71398 0.02322 0.0
H1167 H 0.28867 0.70413 0.95618 0.0
H1168 H 0.25307 0.7104 0.96085 0.0
H1169 H 0.33777 0.74081 0.96712 0.0
H1170 H 0.27845 0.65555 0.98328 0.0
H1171 H 0.2456 0.62135 0.00428 0.0
H1172 H 0.29532 0.64158 0.05731 0.0
H1173 H 0.32839 0.67616 0.03673 0.0
C1174 C 0.42966 0.71982 0.96146 0.0
C1175 C 0.44238 0.72109 0.98029 0.0
C1176 C 0.40512 0.71498 0.96208 0.0
C1177 C 0.393 0.71194 0.98155 0.0
C1178 C 0.40512 0.71185 0.00026 0.0
C1179 C 0.42949 0.71623 -0.00036 0.0
C1180 C 0.36841 0.71053 0.9826 0.0
C1181 C 0.34904 0.69113 0.99414 0.0
C1182 C 0.36424 0.72864 0.9727 0.0
C1183 C 0.3844 0.7508 0.96182 0.0
C1184 C 0.40636 0.76736 0.97268 0.0
C1185 C 0.42537 0.78809 0.96228 0.0
C1186 C 0.42253 0.79259 0.94107 0.0
C1187 C 0.40064 0.7764 0.93024 0.0
C1188 C 0.38159 0.75562 0.94056 0.0
C1189 C 0.27214 0.71686 0.01231 0.0
C1190 C 0.25802 0.71664 0.99477 0.0
C1191 C 0.29218 0.71279 0.00961 0.0
C1192 C 0.29853 0.70853 0.98935 0.0
C1193 C 0.28405 0.70747 0.97193 0.0
C1194 C 0.26385 0.71126 0.97463 0.0
C1195 C 0.32161 0.70751 0.98614 0.0
C1196 C 0.34076 0.72659 0.97427 0.0
C1197 C 0.32567 0.68943 0.99611 0.0
C1198 C 0.30584 0.66859 0.0085 0.0
C1199 C 0.28233 0.65285 -0.00052 0.0
C1200 C 0.26367 0.63336 0.0113 0.0
C1201 C 0.26835 0.62933 0.03213 0.0
C1202 C 0.29172 0.64474 0.04118 0.0
C1203 C 0.31043 0.66427 0.02943 0.0
H1204 H 0.25389 0.61422 0.04125 0.0
H1205 H 0.43727 0.80865 0.93305 0.0
H1206 H 0.52383 0.29945 0.33098 0.0
H1207 H 0.56261 0.33565 0.31933 0.0
H1208 H 0.59665 0.28993 0.31339 0.0
H1209 H 0.55785 0.25352 0.32552 0.0
H1210 H 0.62714 0.33499 0.33333 0.0
H1211 H 0.57928 0.30666 0.26985 0.0
H1212 H 0.54181 0.29229 0.24769 0.0
H1213 H 0.54473 0.36241 0.25659 0.0
H1214 H 0.58199 0.37707 0.2791 0.0
H1215 H 0.733 0.43817 0.28755 0.0
H1216 H 0.69705 0.39602 0.29024 0.0
H1217 H 0.64826 0.42664 0.29558 0.0
H1218 H 0.68392 0.46869 0.29208 0.0
H1219 H 0.62711 0.38524 0.27214 0.0
H1220 H 0.67006 0.41085 0.33945 0.0
H1221 H 0.70632 0.42545 0.36317 0.0
H1222 H 0.71167 0.36071 0.34807 0.0
H1223 H 0.67562 0.3459 0.32402 0.0
C1224 C 0.53966 0.29714 0.32747 0.0
C1225 C 0.53786 0.27368 0.32926 0.0
C1226 C 0.5617 0.31777 0.32058 0.0
C1227 C 0.58235 0.31536 0.31523 0.0
C1228 C 0.58083 0.2921 0.31733 0.0
C1229 C 0.55868 0.27135 0.32416 0.0
C1230 C 0.60554 0.33739 0.30771 0.0
C1231 C 0.62732 0.34571 0.31967 0.0
C1232 C 0.60557 0.35151 0.29009 0.0
C1233 C 0.58336 0.34291 0.27628 0.0
C1234 C 0.57185 0.31897 0.2672 0.0
C1235 C 0.55065 0.31077 0.25456 0.0
C1236 C 0.54088 0.32641 0.25076 0.0
C1237 C 0.55232 0.35031 0.25955 0.0
C1238 C 0.5735 0.35859 0.27223 0.0
C1239 C 0.71455 0.43589 0.28878 0.0
C1240 C 0.71131 0.45677 0.28983 0.0
C1241 C 0.69406 0.4118 0.29052 0.0
C1242 C 0.67004 0.40823 0.29349 0.0
C1243 C 0.66664 0.42897 0.2934 0.0
C1244 C 0.68706 0.453 0.29159 0.0
C1245 C 0.64857 0.38316 0.29806 0.0
C1246 C 0.62708 0.37428 0.28554 0.0
C1247 C 0.64875 0.36859 0.31526 0.0
C1248 C 0.67036 0.37744 0.32975 0.0
C1249 C 0.6791 0.39984 0.34106 0.0
C1250 C 0.69959 0.40813 0.35458 0.0
C1251 C 0.71135 0.39406 0.35707 0.0
C1252 C 0.70258 0.37162 0.34609 0.0
C1253 C 0.68212 0.36327 0.33252 0.0
H1254 H 0.7272 0.40051 0.36755 0.0
H1255 H 0.52446 0.32002 0.24099 0.0
H1256 H 0.23509 0.70547 0.67736 0.0
H1257 H 0.24177 0.6703 0.68281 0.0
H1258 H 0.31574 0.71281 0.65683 0.0
H1259 H 0.30989 0.74878 0.65235 0.0
H1260 H 0.28258 0.66139 0.63976 0.0
H1261 H 0.31544 0.70651 0.70491 0.0
H1262 H 0.31411 0.72836 0.73707 0.0
H1263 H 0.24928 0.66169 0.75858 0.0
H1264 H 0.25 0.63954 0.72638 0.0
H1265 H 0.31085 0.56666 0.66246 0.0
H1266 H 0.3146 0.60787 0.66015 0.0
H1267 H 0.25187 0.58342 0.70241 0.0
H1268 H 0.24884 0.54263 0.70541 0.0
H1269 H 0.28396 0.62894 0.71127 0.0
H1270 H 0.24686 0.58468 0.64685 0.0
H1271 H 0.244 0.56134 0.61435 0.0
H1272 H 0.3113 0.62396 0.59092 0.0
H1273 H 0.31473 0.64756 0.62344 0.0
C1274 C 0.253 0.70765 0.67315 0.0
C1275 C 0.27201 0.73015 0.66454 0.0
C1276 C 0.25667 0.68742 0.67614 0.0
C1277 C 0.27926 0.68911 0.67031 0.0
C1278 C 0.29817 0.71125 0.6614 0.0
C1279 C 0.29469 0.7317 0.65872 0.0
C1280 C 0.28277 0.66745 0.6733 0.0
C1281 C 0.2834 0.6545 0.65536 0.0
C1282 C 0.28302 0.65821 0.69368 0.0
C1283 C 0.28266 0.67143 0.71314 0.0
C1284 C 0.30078 0.69657 0.71641 0.0
C1285 C 0.30016 0.709 0.73466 0.0
C1286 C 0.28159 0.69644 0.74984 0.0
C1287 C 0.26364 0.67141 0.74681 0.0
C1288 C 0.26417 0.6589 0.72857 0.0
C1289 C 0.29808 0.57027 0.6714 0.0
C1290 C 0.2795 0.55156 0.68404 0.0
C1291 C 0.30013 0.59373 0.67001 0.0
C1292 C 0.28318 0.5986 0.68076 0.0
C1293 C 0.26515 0.58013 0.69396 0.0
C1294 C 0.26341 0.55684 0.69567 0.0
C1295 C 0.28351 0.62252 0.67769 0.0
C1296 C 0.2835 0.63591 0.69562 0.0
C1297 C 0.28327 0.63189 0.65726 0.0
C1298 C 0.28121 0.61777 0.63768 0.0
C1299 C 0.26114 0.5934 0.63483 0.0
C1300 C 0.25941 0.58013 0.61641 0.0
C1301 C 0.2775 0.59113 0.60061 0.0
C1302 C 0.29733 0.61545 0.60319 0.0
C1303 C 0.29918 0.62878 0.62161 0.0
H1304 H 0.27612 0.58083 0.58635 0.0
H1305 H 0.28114 0.7061 0.76396 0.0
H1306 H 0.72933 0.26736 0.99661 0.0
H1307 H 0.69518 0.27606 0.99411 0.0
H1308 H 0.68861 0.27342 0.06217 0.0
H1309 H 0.72238 0.26383 0.06476 0.0
H1310 H 0.64438 0.24664 0.04447 0.0
H1311 H 0.71179 0.32888 0.03607 0.0
H1312 H 0.75153 0.36258 0.02193 0.0
H1313 H 0.71969 0.35024 0.95969 0.0
H1314 H 0.67985 0.3162 0.97338 0.0
H1315 H 0.57234 0.31467 0.00944 0.0
H1316 H 0.61118 0.31696 0.02099 0.0
H1317 H 0.58491 0.24261 0.99725 0.0
H1318 H 0.54588 0.23979 0.98648 0.0
H1319 H 0.64743 0.31421 7e-05 0.0
H1320 H 0.60262 0.21146 0.02923 0.0
H1321 H 0.56317 0.17952 0.04531 0.0
H1322 H 0.551 0.23679 0.0708 0.0
H1323 H 0.59057 0.26908 0.05519 0.0
C1324 C 0.72059 0.26857 0.01106 0.0
C1325 C 0.7284 0.26471 0.03088 0.0
C1326 C 0.70129 0.27387 0.00962 0.0
C1327 C 0.68954 0.27568 0.02797 0.0
C1328 C 0.69752 0.27222 0.04782 0.0
C1329 C 0.71688 0.26689 0.04928 0.0
C1330 C 0.66787 0.27952 0.02613 0.0
C1331 C 0.6451 0.26155 0.03493 0.0
C1332 C 0.66894 0.29932 0.0141 0.0
C1333 C 0.69285 0.31987 0.00576 0.0
C1334 C 0.7133 0.33323 0.01934 0.0
C1335 C 0.73585 0.35242 0.01141 0.0
C1336 C 0.73815 0.35853 0.98992 0.0
C1337 C 0.71788 0.34549 0.97633 0.0
C1338 C 0.6953 0.32626 0.98418 0.0
C1339 C 0.57482 0.29878 0.00679 0.0
C1340 C 0.55602 0.27704 0.99704 0.0
C1341 C 0.59706 0.30018 0.01328 0.0
C1342 C 0.60075 0.27983 0.01025 0.0
C1343 C 0.58228 0.25839 5e-05 0.0
C1344 C 0.56009 0.25694 0.99364 0.0
C1345 C 0.62385 0.28074 0.01765 0.0
C1346 C 0.64684 0.29957 0.00989 0.0
C1347 C 0.62308 0.26202 0.03101 0.0
C1348 C 0.59952 0.2427 0.04091 0.0
C1349 C 0.59163 0.21725 0.03839 0.0
C1350 C 0.56922 0.19908 0.0474 0.0
C1351 C 0.55457 0.20612 0.05903 0.0
C1352 C 0.56234 0.23136 0.06174 0.0
C1353 C 0.58475 0.2496 0.0528 0.0
H1354 H 0.5372 0.19202 0.06595 0.0
H1355 H 0.75562 0.37339 0.98381 0.0
H1356 H 0.1765 0.28443 0.30817 0.0
H1357 H 0.20019 0.26334 0.31525 0.0
H1358 H 0.26855 0.33113 0.3009 0.0
H1359 H 0.2451 0.35245 0.29408 0.0
H1360 H 0.26806 0.28956 0.28492 0.0
H1361 H 0.25098 0.31683 0.35097 0.0
H1362 H 0.22406 0.32005 0.37802 0.0
H1363 H 0.18501 0.24054 0.38607 0.0
H1364 H 0.21146 0.23682 0.3588 0.0
H1365 H 0.35684 0.26891 0.33553 0.0
H1366 H 0.33006 0.28615 0.32699 0.0
H1367 H 0.26518 0.21603 0.34323 0.0
H1368 H 0.29193 0.19856 0.35172 0.0
H1369 H 0.26196 0.25631 0.35753 0.0
H1370 H 0.28065 0.22932 0.29257 0.0
H1371 H 0.30796 0.22643 0.26572 0.0
H1372 H 0.34421 0.30552 0.25566 0.0
H1373 H 0.31736 0.30894 0.2827 0.0
C1374 C 0.19657 0.2948 0.30637 0.0
C1375 C 0.20893 0.32017 0.30072 0.0
C1376 C 0.21005 0.28272 0.3104 0.0
C1377 C 0.23613 0.29581 0.30891 0.0
C1378 C 0.24842 0.32072 0.30215 0.0
C1379 C 0.23496 0.33283 0.29815 0.0
C1380 C 0.25075 0.284 0.3155 0.0
C1381 C 0.2669 0.28248 0.30083 0.0
C1382 C 0.24881 0.27431 0.33616 0.0
C1383 C 0.23301 0.27652 0.35268 0.0
C1384 C 0.23652 0.30001 0.35838 0.0
C1385 C 0.22136 0.30193 0.37377 0.0
C1386 C 0.20279 0.28051 0.38371 0.0
C1387 C 0.19937 0.25712 0.37833 0.0
C1388 C 0.21445 0.25509 0.36291 0.0
C1389 C 0.33687 0.25718 0.33737 0.0
C1390 C 0.32646 0.23229 0.34407 0.0
C1391 C 0.32161 0.26705 0.33248 0.0
C1392 C 0.29563 0.2522 0.33409 0.0
C1393 C 0.2852 0.22775 0.3418 0.0
C1394 C 0.3005 0.21784 0.34673 0.0
C1395 C 0.27943 0.26205 0.32699 0.0
C1396 C 0.26299 0.26321 0.34157 0.0
C1397 C 0.28112 0.27143 0.30624 0.0
C1398 C 0.29713 0.26941 0.2898 0.0
C1399 C 0.29456 0.24612 0.28474 0.0
C1400 C 0.30994 0.24439 0.26948 0.0
C1401 C 0.32784 0.26579 0.25903 0.0
C1402 C 0.33035 0.28896 0.26378 0.0
C1403 C 0.31504 0.29081 0.27907 0.0
H1404 H 0.33974 0.26441 0.24721 0.0
H1405 H 0.19108 0.28203 0.39563 0.0
H1406 H 0.91317 0.27594 0.61389 0.0
H1407 H 0.95824 0.29477 0.61768 0.0
H1408 H 0.95051 0.2216 0.61946 0.0
H1409 H 0.90526 0.20262 0.61629 0.0
H1410 H 0.97747 0.24943 0.65208 0.0
H1411 H 0.97837 0.26057 0.57732 0.0
H1412 H 0.96797 0.2732 0.54358 0.0
H1413 H 0.00436 0.34935 0.56451 0.0
H1414 H 0.01468 0.33713 0.59851 0.0
H1415 H 0.1084 0.30094 0.6601 0.0
H1416 H 0.06559 0.27775 0.6471 0.0
H1417 H 0.06389 0.34631 0.64181 0.0
H1418 H 0.10709 0.36977 0.65375 0.0
H1419 H 0.04229 0.31756 0.60836 0.0
H1420 H 0.03711 0.30591 0.68412 0.0
H1421 H 0.0469 0.2937 0.71837 0.0
H1422 H 0.01789 0.21883 0.69578 0.0
H1423 H 0.00821 0.23068 0.66128 0.0
C1424 C 0.9211 0.26387 0.61483 0.0
C1425 C 0.90566 0.2378 0.6149 0.0
C1426 C 0.94689 0.27465 0.61681 0.0
C1427 C 0.95777 0.25959 0.61875 0.0
C1428 C 0.94249 0.23356 0.61794 0.0
C1429 C 0.91667 0.22275 0.61594 0.0
C1430 C 0.98473 0.27105 0.62354 0.0
C1431 C 0.99171 0.26396 0.64226 0.0
C1432 C 0.00322 0.29043 0.61102 0.0
C1433 C 0.99715 0.29789 0.59054 0.0
C1434 C 0.984 0.27998 0.5748 0.0
C1435 C 0.97815 0.28708 0.55561 0.0
C1436 C 0.98546 0.31205 0.55192 0.0
C1437 C 0.9987 0.33 0.56739 0.0
C1438 C 0.00459 0.32301 0.58661 0.0
C1439 C 0.09903 0.31114 0.65596 0.0
C1440 C 0.11116 0.33723 0.65815 0.0
C1441 C 0.07447 0.29781 0.6487 0.0
C1442 C 0.06141 0.31025 0.64375 0.0
C1443 C 0.07357 0.3363 0.64561 0.0
C1444 C 0.09817 0.34966 0.65271 0.0
C1445 C 0.03493 0.29616 0.63702 0.0
C1446 C 0.02806 0.30279 0.61798 0.0
C1447 C 0.01648 0.27642 0.64929 0.0
C1448 C 0.0222 0.26925 0.67005 0.0
C1449 C 0.03299 0.28689 0.68641 0.0
C1450 C 0.03849 0.28003 0.70587 0.0
C1451 C 0.03309 0.25552 0.70923 0.0
C1452 C 0.0221 0.23781 0.69314 0.0
C1453 C 0.01659 0.24459 0.67364 0.0
H1454 H 0.03736 0.25025 0.72431 0.0
H1455 H 0.9809 0.31751 0.53705 0.0
H1456 H 0.81405 0.09636 0.03905 0.0
H1457 H 0.78819 0.05211 0.03053 0.0
H1458 H 0.72245 0.0544 0.04904 0.0
H1459 H 0.74802 0.09886 0.05696 0.0
H1460 H 0.7233 0.00901 0.06108 0.0
H1461 H 0.73403 0.06131 0.00069 0.0
H1462 H 0.75875 0.09508 0.97534 0.0
H1463 H 0.79768 0.05742 0.95583 0.0
H1464 H 0.77342 0.02357 0.98131 0.0
H1465 H 0.63245 0.90376 0.00328 0.0
H1466 H 0.65804 0.94576 0.01782 0.0
H1467 H 0.72384 0.94925 0.99131 0.0
H1468 H 0.69831 0.90743 0.97646 0.0
H1469 H 0.72297 0.99169 0.98432 0.0
H1470 H 0.7114 0.93834 0.04296 0.0
H1471 H 0.6886 0.90513 0.06924 0.0
H1472 H 0.65285 0.94429 0.09293 0.0
H1473 H 0.67508 0.97754 0.06649 0.0
C1474 C 0.79412 0.08741 0.04156 0.0
C1475 C 0.78309 0.10123 0.04845 0.0
C1476 C 0.77942 0.06211 0.03678 0.0
C1477 C 0.75345 0.05016 0.03896 0.0
C1478 C 0.7425 0.06335 0.04733 0.0
C1479 C 0.75718 0.08875 0.05193 0.0
C1480 C 0.73765 0.02475 0.03041 0.0
C1481 C 0.72292 0.00516 0.04429 0.0
C1482 C 0.73767 0.01984 0.00856 0.0
C1483 C 0.7521 0.04004 0.99307 0.0
C1484 C 0.74801 0.06034 0.99113 0.0
C1485 C 0.76192 0.07948 0.97672 0.0
C1486 C 0.77984 0.07845 0.96404 0.0
C1487 C 0.78382 0.05822 0.96569 0.0
C1488 C 0.76999 0.03904 0.9801 0.0
C1489 C 0.65233 0.91365 0.0003 0.0
C1490 C 0.6634 0.90239 0.98867 0.0
C1491 C 0.66695 0.93749 0.00883 0.0
C1492 C 0.69287 0.95047 0.00587 0.0
C1493 C 0.70388 0.93949 0.99386 0.0
C1494 C 0.68931 0.91562 0.98544 0.0
C1495 C 0.70852 0.97569 0.01497 0.0
C1496 C 0.72325 0.99537 0.00114 0.0
C1497 C 0.70852 0.98056 0.03689 0.0
C1498 C 0.69469 0.96031 0.05253 0.0
C1499 C 0.69843 0.93973 0.05357 0.0
C1500 C 0.68566 0.92092 0.06854 0.0
C1501 C 0.66922 0.92255 0.0827 0.0
C1502 C 0.66553 0.94301 0.08191 0.0
C1503 C 0.67821 0.96185 0.06693 0.0
H1504 H 0.6594 0.90801 0.09431 0.0
H1505 H 0.79058 0.09328 0.95289 0.0
H1506 H 0.68363 0.7884 0.31912 0.0
H1507 H 0.71076 0.77081 0.31418 0.0
H1508 H 0.69834 0.74554 0.37899 0.0
H1509 H 0.67095 0.7632 0.38406 0.0
H1510 H 0.74803 0.76432 0.36529 0.0
H1511 H 0.66521 0.70529 0.34251 0.0
H1512 H 0.62607 0.69148 0.32289 0.0
H1513 H 0.66606 0.70944 0.26405 0.0
H1514 H 0.70552 0.72374 0.28336 0.0
H1515 H 0.78342 0.67194 0.35036 0.0
H1516 H 0.76268 0.69543 0.3593 0.0
H1517 H 0.76578 0.71647 0.29378 0.0
H1518 H 0.78645 0.69283 0.28471 0.0
H1519 H 0.72055 0.69956 0.30938 0.0
H1520 H 0.80353 0.75857 0.33202 0.0
H1521 H 0.84278 0.77292 0.3516 0.0
H1522 H 0.80296 0.75519 0.41051 0.0
H1523 H 0.7634 0.7404 0.39126 0.0
C1524 C 0.68675 0.77919 0.33236 0.0
C1525 C 0.67482 0.77674 0.35187 0.0
C1526 C 0.70231 0.76925 0.32953 0.0
C1527 C 0.70616 0.75649 0.3461 0.0
C1528 C 0.69549 0.75524 0.36599 0.0
C1529 C 0.67989 0.76532 0.36887 0.0
C1530 C 0.71994 0.74313 0.34201 0.0
C1531 C 0.74191 0.74991 0.35328 0.0
C1532 C 0.7121 0.72466 0.32607 0.0
C1533 C 0.68835 0.71578 0.3144 0.0
C1534 C 0.66568 0.70646 0.3254 0.0
C1535 C 0.64344 0.69853 0.31433 0.0
C1536 C 0.64359 0.69963 0.29224 0.0
C1537 C 0.66598 0.70862 0.28117 0.0
C1538 C 0.68829 0.71662 0.29216 0.0
C1539 C 0.78011 0.68197 0.33791 0.0
C1540 C 0.78667 0.68066 0.31683 0.0
C1541 C 0.76824 0.69537 0.34305 0.0
C1542 C 0.76291 0.70794 0.32725 0.0
C1543 C 0.76972 0.70692 0.30623 0.0
C1544 C 0.78148 0.69339 0.30105 0.0
C1545 C 0.74898 0.72096 0.33241 0.0
C1546 C 0.7268 0.71398 0.32138 0.0
C1547 C 0.75668 0.73921 0.34857 0.0
C1548 C 0.78046 0.74815 0.36018 0.0
C1549 C 0.80311 0.75754 0.34914 0.0
C1550 C 0.82542 0.76579 0.36018 0.0
C1551 C 0.82536 0.7649 0.38228 0.0
C1552 C 0.80298 0.75583 0.39339 0.0
C1553 C 0.78061 0.74754 0.38242 0.0
H1554 H 0.84266 0.7713 0.3908 0.0
H1555 H 0.62634 0.69349 0.2837 0.0
H1556 H 0.10489 0.74123 0.65389 0.0
H1557 H 0.06102 0.71799 0.66381 0.0
H1558 H 0.05633 0.78491 0.65824 0.0
H1559 H 0.10037 0.80837 0.64805 0.0
H1560 H 0.03482 0.75972 0.6946 0.0
H1561 H 0.03017 0.74058 0.62105 0.0
H1562 H 0.04106 0.72708 0.58802 0.0
H1563 H 0.01735 0.65506 0.61514 0.0
H1564 H 0.00665 0.66825 0.64847 0.0
H1565 H 0.90075 0.6932 0.69837 0.0
H1566 H 0.94486 0.72032 0.68992 0.0
H1567 H 0.95647 0.65736 0.69402 0.0
H1568 H 0.91246 0.63019 0.70262 0.0
H1569 H 0.97392 0.68256 0.65724 0.0
H1570 H 0.97969 0.70274 0.73137 0.0
H1571 H 0.96868 0.71671 0.76409 0.0
H1572 H 0.98976 0.78732 0.73524 0.0
H1573 H 0.00058 0.77363 0.70223 0.0
C1574 C 0.09444 0.75094 0.65432 0.0
C1575 C 0.10606 0.77661 0.64995 0.0
C1576 C 0.06938 0.73764 0.66012 0.0
C1577 C 0.05536 0.74968 0.66158 0.0
C1578 C 0.06684 0.77529 0.65721 0.0
C1579 C 0.09197 0.78864 0.65139 0.0
C1580 C 0.02886 0.73547 0.6681 0.0
C1581 C 0.02137 0.74307 0.68625 0.0
C1582 C 0.01147 0.71354 0.65739 0.0
C1583 C 0.01781 0.70548 0.63733 0.0
C1584 C 0.02746 0.72192 0.62004 0.0
C1585 C 0.03357 0.71432 0.60124 0.0
C1586 C 0.02995 0.69024 0.59949 0.0
C1587 C 0.02016 0.67371 0.61652 0.0
C1588 C 0.01405 0.68123 0.63536 0.0
C1589 C 0.91284 0.68526 0.69802 0.0
C1590 C 0.90312 0.65953 0.70108 0.0
C1591 C 0.93802 0.70076 0.6931 0.0
C1592 C 0.95391 0.69083 0.6913 0.0
C1593 C 0.94447 0.66536 0.69519 0.0
C1594 C 0.91934 0.64987 0.7001 0.0
C1595 C 0.97997 0.70653 0.68397 0.0
C1596 C 0.98734 0.69925 0.66558 0.0
C1597 C 0.99716 0.72879 0.69441 0.0
C1598 C 0.99069 0.73706 0.71425 0.0
C1599 C 0.98178 0.72117 0.73194 0.0
C1600 C 0.97561 0.72905 0.75055 0.0
C1601 C 0.97845 0.75286 0.75172 0.0
C1602 C 0.98753 0.76886 0.7343 0.0
C1603 C 0.9937 0.76106 0.71564 0.0
H1604 H 0.97367 0.75893 0.76615 0.0
H1605 H 0.03469 0.68439 0.58493 0.0
H1606 H 0.37472 0.09486 0.96674 0.0
H1607 H 0.34735 0.05004 0.97183 0.0
H1608 H 0.28336 0.06013 0.97218 0.0
H1609 H 0.31075 0.10512 0.96748 0.0
H1610 H 0.28378 0.03317 0.00597 0.0
H1611 H 0.29295 0.03154 0.93097 0.0
H1612 H 0.31575 0.04105 0.89715 0.0
H1613 H 0.35297 0.00214 0.91797 0.0
H1614 H 0.33065 0.99269 0.95206 0.0
H1615 H 0.19649 0.90303 0.00958 0.0
H1616 H 0.22003 0.94705 -0.00027 0.0
H1617 H 0.28699 0.94241 0.99466 0.0
H1618 H 0.26336 0.89813 0.00353 0.0
H1619 H 0.28279 0.96655 0.96171 0.0
H1620 H 0.27616 0.97061 0.03727 0.0
H1621 H 0.25427 0.96155 0.07154 0.0
H1622 H 0.21327 0.99634 0.05008 0.0
H1623 H 0.23469 0.00532 0.01556 0.0
C1624 C 0.35479 0.08748 0.96768 0.0
C1625 C 0.34486 0.10347 0.96676 0.0
C1626 C 0.33917 0.06187 0.97045 0.0
C1627 C 0.31332 0.05176 0.97229 0.0
C1628 C 0.30326 0.06758 0.97075 0.0
C1629 C 0.31889 0.09322 0.96788 0.0
C1630 C 0.29708 0.02497 0.97729 0.0
C1631 C 0.28318 0.01855 0.99609 0.0
C1632 C 0.29686 0.00601 0.96468 0.0
C1633 C 0.31026 0.01158 0.94415 0.0
C1634 C 0.30614 0.02518 0.92841 0.0
C1635 C 0.31896 0.03052 0.90918 0.0
C1636 C 0.33584 0.02225 0.90543 0.0
C1637 C 0.3399 0.00855 0.9209 0.0
C1638 C 0.32715 0.00317 0.94017 0.0
C1639 C 0.21621 0.91136 0.00633 0.0
C1640 C 0.22805 0.89707 0.00742 0.0
C1641 C 0.22969 0.93658 0.00087 0.0
C1642 C 0.25532 0.94808 0.99664 0.0
C1643 C 0.26723 0.93393 -0.00211 0.0
C1644 C 0.25375 0.90868 0.00324 0.0
C1645 C 0.26969 0.97475 0.99052 0.0
C1646 C 0.28324 0.98115 0.97151 0.0
C1647 C 0.26969 0.99372 0.003 0.0
C1648 C 0.25684 0.9884 0.02376 0.0
C1649 C 0.26233 0.97615 0.0398 0.0
C1650 C 0.25004 0.97106 0.05928 0.0
C1651 C 0.23234 0.9783 0.06296 0.0
C1652 C 0.22695 0.99071 0.04719 0.0
C1653 C 0.23918 0.99582 0.02767 0.0
H1654 H 0.22284 0.97435 0.07806 0.0
H1655 H 0.34574 0.02641 0.89053 0.0
H1656 H 0.91034 0.32999 0.12441 0.0
H1657 H 0.94193 0.35656 0.1501 0.0
H1658 H 0.99866 0.38013 0.10186 0.0
H1659 H 0.96706 0.35276 0.07628 0.0
H1660 H 0.01266 0.36598 0.1342 0.0
H1661 H 0.98139 0.42125 0.12549 0.0
H1662 H 0.94999 0.43442 0.12271 0.0
H1663 H 0.92662 0.4106 0.18661 0.0
H1664 H 0.95763 0.39694 0.1897 0.0
H1665 H 0.10159 0.43465 0.21264 0.0
H1666 H 0.07585 0.4308 0.18186 0.0
H1667 H 0.00943 0.38661 0.21878 0.0
H1668 H 0.03504 0.39047 0.2496 0.0
H1669 H 0.00549 0.41961 0.1888 0.0
H1670 H 0.03144 0.35714 0.19334 0.0
H1671 H 0.06325 0.34449 0.19606 0.0
H1672 H 0.09728 0.3838 0.13854 0.0
H1673 H 0.06586 0.39702 0.13568 0.0
C1674 C 0.92948 0.34129 0.11921 0.0
C1675 C 0.93635 0.33932 0.09844 0.0
C1676 C 0.94753 0.35659 0.13386 0.0
C1677 C 0.9727 0.37063 0.12789 0.0
C1678 C 0.97938 0.3695 0.10684 0.0
C1679 C 0.96138 0.35387 0.09227 0.0
C1680 C 0.9922 0.38395 0.14417 0.0
C1681 C 0.01142 0.37828 0.14574 0.0
C1682 C 0.99045 0.39969 0.15951 0.0
C1683 C 0.97178 0.40794 0.15778 0.0
C1684 C 0.96945 0.41866 0.13891 0.0
C1685 C 0.95173 0.42624 0.13728 0.0
C1686 C 0.9363 0.42332 0.15446 0.0
C1687 C 0.93859 0.41285 0.17332 0.0
C1688 C 0.95627 0.40523 0.17503 0.0
C1689 C 0.08151 0.42473 0.21433 0.0
C1690 C 0.07023 0.4126 0.23337 0.0
C1691 C 0.06687 0.42253 0.19677 0.0
C1692 C 0.04081 0.40828 0.19808 0.0
C1693 C 0.02952 0.39774 0.21751 0.0
C1694 C 0.04413 0.39975 0.23501 0.0
C1695 C 0.02538 0.40124 0.17875 0.0
C1696 C 0.00696 0.40792 0.17677 0.0
C1697 C 0.02788 0.38657 0.16288 0.0
C1698 C 0.04652 0.37832 0.16444 0.0
C1699 C 0.04583 0.36324 0.18136 0.0
C1700 C 0.06376 0.35595 0.18292 0.0
C1701 C 0.08233 0.3634 0.16752 0.0
C1702 C 0.08293 0.37809 0.15048 0.0
C1703 C 0.06507 0.38549 0.14889 0.0
H1704 H 0.0962 0.35774 0.16875 0.0
H1705 H 0.92259 0.42919 0.15316 0.0
H1706 H 0.69357 0.08987 0.53567 0.0
H1707 H 0.66839 0.05618 0.51104 0.0
H1708 H 0.64108 0.00371 0.56283 0.0
H1709 H 0.66648 0.03742 0.58758 0.0
H1710 H 0.65677 0.98683 0.532 0.0
H1711 H 0.6025 0.01993 0.5364 0.0
H1712 H 0.59031 0.05218 0.53626 0.0
H1713 H 0.61418 0.06998 0.47165 0.0
H1714 H 0.62687 0.03808 0.47148 0.0
H1715 H 0.58199 0.89056 0.45957 0.0
H1716 H 0.59091 0.9198 0.48885 0.0
H1717 H 0.63187 0.98165 0.4463 0.0
H1718 H 0.62277 0.95257 0.41696 0.0
H1719 H 0.60268 0.98995 0.47562 0.0
H1720 H 0.66264 0.96123 0.47404 0.0
H1721 H 0.67484 0.92897 0.47436 0.0
H1722 H 0.63916 0.90274 0.53465 0.0
H1723 H 0.62644 0.93466 0.53453 0.0
C1724 C 0.68184 0.07124 0.54186 0.0
C1725 C 0.68202 0.06624 0.56352 0.0
C1726 C 0.6674 0.052 0.52778 0.0
C1727 C 0.65262 0.02746 0.53513 0.0
C1728 C 0.65233 0.02252 0.55683 0.0
C1729 C 0.66691 0.04174 0.57092 0.0
C1730 C 0.63921 0.00678 0.51988 0.0
C1731 C 0.64445 0.98723 0.52001 0.0
C1732 C 0.62345 0.0075 0.50401 0.0
C1733 C 0.61579 0.02669 0.50399 0.0
C1734 C 0.60533 0.03084 0.52221 0.0
C1735 C 0.59829 0.04904 0.52217 0.0
C1736 C 0.6015 0.06314 0.50397 0.0
C1737 C 0.61171 0.05904 0.48574 0.0
C1738 C 0.61879 0.04087 0.48569 0.0
C1739 C 0.59248 0.9104 0.45641 0.0
C1740 C 0.60192 0.91935 0.43608 0.0
C1741 C 0.59762 0.92704 0.47312 0.0
C1742 C 0.6122 0.95282 0.46971 0.0
C1743 C 0.62057 0.96181 0.44922 0.0
C1744 C 0.61558 0.9452 0.43255 0.0
C1745 C 0.62065 0.97045 0.48767 0.0
C1746 C 0.61456 0.98939 0.48796 0.0
C1747 C 0.63555 0.96917 0.50401 0.0
C1748 C 0.64333 0.95011 0.50415 0.0
C1749 C 0.65722 0.94845 0.48728 0.0
C1750 C 0.66426 0.93025 0.48744 0.0
C1751 C 0.65771 0.91376 0.50448 0.0
C1752 C 0.64417 0.91549 0.52143 0.0
C1753 C 0.63705 0.93363 0.52133 0.0
H1754 H 0.66318 0.89969 0.50458 0.0
H1755 H 0.59605 0.07723 0.50397 0.0
H1756 H 0.57714 0.67642 0.87567 0.0
H1757 H 0.59111 0.65607 0.85025 0.0
H1758 H 0.66593 0.69856 0.87476 0.0
H1759 H 0.65215 0.71884 0.9001 0.0
H1760 H 0.66543 0.69994 0.83241 0.0
H1761 H 0.62851 0.63714 0.88701 0.0
H1762 H 0.59465 0.60799 0.91054 0.0
H1763 H 0.54945 0.56998 0.85652 0.0
H1764 H 0.58295 0.59915 0.83267 0.0
H1765 H 0.72704 0.63973 0.79411 0.0
H1766 H 0.70611 0.65438 0.81797 0.0
H1767 H 0.63701 0.61007 0.78443 0.0
H1768 H 0.65793 0.5954 0.76031 0.0
H1769 H 0.63092 0.60844 0.82832 0.0
H1770 H 0.66907 0.66968 0.77375 0.0
H1771 H 0.70332 0.69848 0.75037 0.0
H1772 H 0.74622 0.73946 0.80445 0.0
H1773 H 0.71238 0.71066 0.82819 0.0
C1774 C 0.59651 0.68124 0.87571 0.0
C1775 C 0.61361 0.69934 0.88974 0.0
C1776 C 0.60445 0.66962 0.86121 0.0
C1777 C 0.62953 0.67578 0.8607 0.0
C1778 C 0.64652 0.69367 0.87482 0.0
C1779 C 0.63865 0.70531 0.88922 0.0
C1780 C 0.63848 0.66419 0.84517 0.0
C1781 C 0.65802 0.67995 0.83165 0.0
C1782 C 0.62823 0.63805 0.84374 0.0
C1783 C 0.60812 0.6205 0.85807 0.0
C1784 C 0.61127 0.62271 0.88016 0.0
C1785 C 0.59216 0.60615 0.89355 0.0
C1786 C 0.56988 0.5872 0.88503 0.0
C1787 C 0.5667 0.58471 0.8631 0.0
C1788 C 0.58574 0.60123 0.84963 0.0
C1789 C 0.7074 0.63312 0.79179 0.0
C1790 C 0.69418 0.61668 0.7752 0.0
C1791 C 0.69546 0.64143 0.80546 0.0
C1792 C 0.67014 0.63357 0.80271 0.0
C1793 C 0.65659 0.61635 0.78674 0.0
C1794 C 0.66854 0.60798 0.77303 0.0
C1795 C 0.65827 0.64429 0.81604 0.0
C1796 C 0.63815 0.6284 0.829 0.0
C1797 C 0.66795 0.67035 0.817 0.0
C1798 C 0.68825 0.68789 0.80276 0.0
C1799 C 0.68588 0.68473 0.78067 0.0
C1800 C 0.70521 0.70107 0.76735 0.0
C1801 C 0.72695 0.72076 0.77592 0.0
C1802 C 0.72938 0.72419 0.79784 0.0
C1803 C 0.71011 0.70788 0.81123 0.0
H1804 H 0.7419 0.73339 0.76559 0.0
H1805 H 0.55511 0.5744 0.89543 0.0
H1806 H 0.09164 0.71972 0.12225 0.0
H1807 H 0.06312 0.69788 0.15128 0.0
H1808 H 0.03655 0.62791 0.11858 0.0
H1809 H 0.06425 0.64989 0.08887 0.0
H1810 H 0.99895 0.63202 0.13173 0.0
H1811 H 0.07203 0.6417 0.16446 0.0
H1812 H 0.11588 0.66334 0.17605 0.0
H1813 H 0.10261 0.71226 0.21505 0.0
H1814 H 0.05876 0.69116 0.20347 0.0
H1815 H 0.92037 0.57327 0.22109 0.0
H1816 H 0.9544 0.58405 0.19589 0.0
H1817 H 0.98575 0.66186 0.21153 0.0
H1818 H 0.95192 0.65121 0.23674 0.0
H1819 H 0.0216 0.64654 0.20781 0.0
H1820 H 0.9506 0.64054 0.16965 0.0
H1821 H 0.9068 0.6187 0.15786 0.0
H1822 H 0.91693 0.56163 0.12903 0.0
H1823 H 0.96074 0.58298 0.14093 0.0
C1824 C 0.07973 0.69968 0.1212 0.0
C1825 C 0.08005 0.68658 0.10316 0.0
C1826 C 0.06369 0.68715 0.13797 0.0
C1827 C 0.04792 0.6612 0.13724 0.0
C1828 C 0.04867 0.64793 0.11952 0.0
C1829 C 0.06463 0.6605 0.10263 0.0
C1830 C 0.0292 0.64844 0.15416 0.0
C1831 C 0.00399 0.63466 0.14836 0.0
C1832 C 0.03572 0.65216 0.17588 0.0
C1833 C 0.0621 0.6649 0.18299 0.0
C1834 C 0.07849 0.65718 0.1754 0.0
C1835 C 0.10335 0.66934 0.18199 0.0
C1836 C 0.11204 0.68919 0.19626 0.0
C1837 C 0.09586 0.69688 0.204 0.0
C1838 C 0.07098 0.6848 0.19745 0.0
C1839 C 0.93473 0.59262 0.21932 0.0
C1840 C 0.93348 0.61147 0.23067 0.0
C1841 C 0.95406 0.59873 0.20493 0.0
C1842 C 0.97244 0.62374 0.20184 0.0
C1843 C 0.97173 0.64246 0.21375 0.0
C1844 C 0.95231 0.6364 0.22796 0.0
C1845 C 0.99159 0.63076 0.18525 0.0
C1846 C 0.01676 0.64345 0.19115 0.0
C1847 C 0.9851 0.62593 0.16362 0.0
C1848 C 0.95882 0.61317 0.15641 0.0
C1849 C 0.94342 0.62322 0.16096 0.0
C1850 C 0.91861 0.61095 0.15423 0.0
C1851 C 0.90906 0.58874 0.14276 0.0
C1852 C 0.92433 0.5788 0.13795 0.0
C1853 C 0.94915 0.59097 0.14468 0.0
H1854 H 0.88985 0.57928 0.13756 0.0
H1855 H 0.13129 0.69858 0.20133 0.0
H1856 H 0.37046 0.04614 0.41294 0.0
H1857 H 0.36098 0.01488 0.44041 0.0
H1858 H 0.3885 0.0724 0.4881 0.0
H1859 H 0.39784 0.10385 0.46068 0.0
H1860 H 0.40241 0.03649 0.49537 0.0
H1861 H 0.32834 0.04014 0.47992 0.0
H1862 H 0.29604 0.03956 0.45677 0.0
H1863 H 0.27479 0.9654 0.43641 0.0
H1864 H 0.30725 0.96569 0.45921 0.0
H1865 H 0.33679 0.9623 0.58507 0.0
H1866 H 0.35564 0.99324 0.55685 0.0
H1867 H 0.32421 0.93463 0.51013 0.0
H1868 H 0.30549 0.90355 0.53826 0.0
H1869 H 0.31354 0.97083 0.50187 0.0
H1870 H 0.38623 0.96622 0.519 0.0
H1871 H 0.41852 0.96693 0.54224 0.0
H1872 H 0.44224 0.04253 0.55982 0.0
H1873 H 0.40984 0.04216 0.53691 0.0
C1874 C 0.3745 0.05214 0.42928 0.0
C1875 C 0.38454 0.07738 0.43471 0.0
C1876 C 0.36922 0.0343 0.44491 0.0
C1877 C 0.37377 0.04135 0.46626 0.0
C1878 C 0.38488 0.06665 0.47168 0.0
C1879 C 0.3902 0.08455 0.45602 0.0
C1880 C 0.36536 0.02211 0.48296 0.0
C1881 C 0.38297 0.02225 0.49698 0.0
C1882 C 0.34005 0.00333 0.48471 0.0
C1883 C 0.3204 0.00304 0.4711 0.0
C1884 C 0.31692 0.02379 0.47037 0.0
C1885 C 0.29856 0.0235 0.45734 0.0
C1886 C 0.28342 0.00249 0.44508 0.0
C1887 C 0.28656 0.98168 0.44589 0.0
C1888 C 0.30493 0.98189 0.45887 0.0
C1889 C 0.33434 0.95596 0.56881 0.0
C1890 C 0.31955 0.93051 0.56386 0.0
C1891 C 0.34511 0.97366 0.55271 0.0
C1892 C 0.34139 0.96619 0.53143 0.0
C1893 C 0.32724 0.94076 0.52647 0.0
C1894 C 0.31647 0.92306 0.54254 0.0
C1895 C 0.35058 0.98501 0.51431 0.0
C1896 C 0.33304 0.9849 0.50023 0.0
C1897 C 0.37592 0.00377 0.51259 0.0
C1898 C 0.39543 0.00407 0.52639 0.0
C1899 C 0.39818 0.98293 0.52796 0.0
C1900 C 0.41654 0.98328 0.54105 0.0
C1901 C 0.43238 0.00474 0.55254 0.0
C1902 C 0.42994 0.02591 0.55093 0.0
C1903 C 0.41159 0.02564 0.53788 0.0
H1904 H 0.44659 0.00499 0.56266 0.0
H1905 H 0.26921 0.0023 0.435 0.0
H1906 H 0.37237 0.27744 0.87333 0.0
H1907 H 0.36094 0.2972 0.84564 0.0
H1908 H 0.40465 0.36862 0.87612 0.0
H1909 H 0.41537 0.3487 0.90449 0.0
H1910 H 0.36028 0.36152 0.86525 0.0
H1911 H 0.42456 0.35543 0.82998 0.0
H1912 H 0.44804 0.3355 0.8174 0.0
H1913 H 0.38503 0.28364 0.78056 0.0
H1914 H 0.36102 0.30303 0.79316 0.0
H1915 H 0.33886 0.41978 0.77583 0.0
H1916 H 0.36083 0.40873 0.80211 0.0
H1917 H 0.3154 0.33113 0.78532 0.0
H1918 H 0.2935 0.34205 0.75898 0.0
H1919 H 0.36657 0.34725 0.78877 0.0
H1920 H 0.30145 0.35129 0.82808 0.0
H1921 H 0.27871 0.37197 0.84075 0.0
H1922 H 0.34549 0.42945 0.86984 0.0
H1923 H 0.36872 0.40927 0.85706 0.0
C1924 C 0.37948 0.29733 0.87422 0.0
C1925 C 0.39466 0.31148 0.89116 0.0
C1926 C 0.3732 0.30867 0.85822 0.0
C1927 C 0.38222 0.33444 0.85867 0.0
C1928 C 0.39761 0.34872 0.87543 0.0
C1929 C 0.40385 0.33735 0.89153 0.0
C1930 C 0.37436 0.34603 0.84217 0.0
C1931 C 0.36216 0.35888 0.84851 0.0
C1932 C 0.37655 0.34231 0.82034 0.0
C1933 C 0.39093 0.3306 0.81264 0.0
C1934 C 0.41564 0.33966 0.81932 0.0
C1935 C 0.42905 0.32848 0.81216 0.0
C1936 C 0.41802 0.30829 0.79822 0.0
C1937 C 0.39355 0.29928 0.79137 0.0
C1938 C 0.38004 0.31038 0.79849 0.0
C1939 C 0.3337 0.4004 0.77769 0.0
C1940 C 0.31443 0.38173 0.76549 0.0
C1941 C 0.34617 0.39413 0.79272 0.0
C1942 C 0.33962 0.36913 0.79564 0.0
C1943 C 0.32069 0.35053 0.78324 0.0
C1944 C 0.30808 0.35675 0.76837 0.0
C1945 C 0.35208 0.36214 0.81194 0.0
C1946 C 0.36512 0.3502 0.80552 0.0
C1947 C 0.35086 0.36687 0.83367 0.0
C1948 C 0.33688 0.37895 0.8414 0.0
C1949 C 0.31133 0.36846 0.83701 0.0
C1950 C 0.29835 0.38007 0.84425 0.0
C1951 C 0.31066 0.40206 0.85604 0.0
C1952 C 0.33599 0.41245 0.86067 0.0
C1953 C 0.34907 0.40093 0.85344 0.0
H1954 H 0.30058 0.41101 0.86163 0.0
H1955 H 0.42843 0.29965 0.7927 0.0
H1956 H 0.131 0.40296 0.43548 0.0
H1957 H 0.14785 0.40278 0.47019 0.0
H1958 H 0.12837 0.32612 0.46143 0.0
H1959 H 0.11065 0.32584 0.42676 0.0
H1960 H 0.13052 0.34156 0.50582 0.0
H1961 H 0.17961 0.36281 0.44235 0.0
H1962 H 0.1938 0.38393 0.40791 0.0
H1963 H 0.22447 0.45519 0.43852 0.0
H1964 H 0.21004 0.43439 0.47319 0.0
H1965 H 0.23667 0.35454 0.56344 0.0
H1966 H 0.20878 0.34556 0.53316 0.0
H1967 H 0.21847 0.41931 0.5374 0.0
H1968 H 0.24489 0.42805 0.56821 0.0
H1969 H 0.22059 0.40158 0.49478 0.0
H1970 H 0.17088 0.37755 0.55938 0.0
H1971 H 0.15535 0.35405 0.59276 0.0
H1972 H 0.12617 0.28504 0.55878 0.0
H1973 H 0.14186 0.30811 0.52522 0.0
C1974 C 0.12897 0.38561 0.44134 0.0
C1975 C 0.12008 0.36458 0.42816 0.0
C1976 C 0.13877 0.38559 0.46119 0.0
C1977 C 0.13992 0.36465 0.46801 0.0
C1978 C 0.12781 0.34251 0.4563 0.0
C1979 C 0.11787 0.34246 0.43644 0.0
C1980 C 0.15826 0.36774 0.48436 0.0
C1981 C 0.15022 0.35445 0.50339 0.0
C1982 C 0.18397 0.38436 0.48096 0.0
C1983 C 0.19357 0.39705 0.46032 0.0
C1984 C 0.18928 0.38298 0.44172 0.0
C1985 C 0.19735 0.3949 0.42216 0.0
C1986 C 0.20997 0.42091 0.421 0.0
C1987 C 0.21466 0.43504 0.43944 0.0
C1988 C 0.20656 0.4232 0.45906 0.0
C1989 C 0.233 0.36893 0.5579 0.0
C1990 C 0.24305 0.392 0.56848 0.0
C1991 C 0.21713 0.36375 0.54057 0.0
C1992 C 0.21147 0.38172 0.53332 0.0
C1993 C 0.22271 0.40526 0.54284 0.0
C1994 C 0.23813 0.41029 0.56036 0.0
C1995 C 0.19286 0.37583 0.5165 0.0
C1996 C 0.20091 0.38857 0.49723 0.0
C1997 C 0.16728 0.35838 0.51963 0.0
C1998 C 0.15782 0.34456 0.53982 0.0
C1999 C 0.16139 0.35738 0.55905 0.0
C2000 C 0.15252 0.34414 0.578 0.0
C2001 C 0.13988 0.3181 0.5779 0.0
C2002 C 0.13602 0.30522 0.55884 0.0
C2003 C 0.14489 0.31836 0.53985 0.0
H2004 H 0.133 0.3079 0.59258 0.0
H2005 H 0.21616 0.43009 0.40582 0.0
H2006 H 0.82743 0.23777 0.90832 0.0
H2007 H 0.81391 0.21913 0.87325 0.0
H2008 H 0.8579 0.1833 0.87957 0.0
H2009 H 0.87146 0.20184 0.91487 0.0
H2010 H 0.85814 0.205 0.83737 0.0
H2011 H 0.80292 0.14904 0.89072 0.0
H2012 H 0.77623 0.13867 0.92235 0.0
H2013 H 0.72897 0.16004 0.88986 0.0
H2014 H 0.75565 0.17096 0.85814 0.0
H2015 H 0.80037 0.12676 0.75093 0.0
H2016 H 0.81369 0.13621 0.7879 0.0
H2017 H 0.76378 0.16502 0.79698 0.0
H2018 H 0.75012 0.1552 0.76022 0.0
H2019 H 0.76764 0.14353 0.83268 0.0
H2020 H 0.82323 0.203 0.78135 0.0
H2021 H 0.8498 0.21584 0.74952 0.0
H2022 H 0.89631 0.19069 0.77784 0.0
H2023 H 0.86971 0.1773 0.80972 0.0
C2024 C 0.83481 0.22652 0.90199 0.0
C2025 C 0.85045 0.22118 0.91426 0.0
C2026 C 0.82692 0.21575 0.88207 0.0
C2027 C 0.83471 0.19965 0.87407 0.0
C2028 C 0.85168 0.19563 0.88561 0.0
C2029 C 0.85935 0.20617 0.90569 0.0
C2030 C 0.82353 0.18562 0.85443 0.0
C2031 C 0.83848 0.19121 0.83637 0.0
C2032 C 0.79778 0.16803 0.85321 0.0
C2033 C 0.78141 0.16101 0.87211 0.0
C2034 C 0.78694 0.15171 0.89037 0.0
C2035 C 0.77181 0.14571 0.90831 0.0
C2036 C 0.75095 0.14875 0.90813 0.0
C2037 C 0.74514 0.15771 0.88998 0.0
C2038 C 0.76026 0.16379 0.87201 0.0
C2039 C 0.79177 0.13446 0.76103 0.0
C2040 C 0.77444 0.14051 0.75273 0.0
C2041 C 0.79941 0.1399 0.78208 0.0
C2042 C 0.79016 0.15188 0.79498 0.0
C2043 C 0.77122 0.15587 0.78725 0.0
C2044 C 0.76338 0.15019 0.76627 0.0
C2045 C 0.80219 0.16299 0.81545 0.0
C2046 C 0.7874 0.15698 0.83369 0.0
C2047 C 0.82806 0.18043 0.81678 0.0
C2048 C 0.84434 0.1889 0.79781 0.0
C2049 C 0.83904 0.20008 0.78073 0.0
C2050 C 0.8541 0.20745 0.76268 0.0
C2051 C 0.8747 0.20403 0.76163 0.0
C2052 C 0.88032 0.19329 0.77866 0.0
C2053 C 0.86526 0.1858 0.79672 0.0
H2054 H 0.88634 0.20974 0.74764 0.0
H2055 H 0.73926 0.14411 0.92204 0.0
H2056 H 0.6613 0.88325 0.23651 0.0
H2057 H 0.66511 0.86959 0.20098 0.0
H2058 H 0.58542 0.83344 0.19326 0.0
H2059 H 0.58152 0.84718 0.22858 0.0
H2060 H 0.60783 0.80178 0.19464 0.0
H2061 H 0.61601 0.87465 0.16045 0.0
H2062 H 0.63383 0.91929 0.15233 0.0
H2063 H 0.70361 0.92474 0.13609 0.0
H2064 H 0.68637 0.8802 0.14448 0.0
H2065 H 0.58281 0.74862 0.09303 0.0
H2066 H 0.58721 0.76874 0.12696 0.0
H2067 H 0.6671 0.80947 0.11951 0.0
H2068 H 0.66287 0.78902 0.08535 0.0
H2069 H 0.6489 0.84025 0.12658 0.0
H2070 H 0.64076 0.7674 0.15919 0.0
H2071 H 0.62283 0.72244 0.16598 0.0
H2072 H 0.55379 0.71698 0.18503 0.0
H2073 H 0.57117 0.76184 0.17807 0.0
C2074 C 0.64476 0.87334 0.22681 0.0
C2075 C 0.6211 0.86609 0.23527 0.0
C2076 C 0.64695 0.86557 0.20657 0.0
C2077 C 0.62551 0.85036 0.19469 0.0
C2078 C 0.60215 0.84523 0.20226 0.0
C2079 C 0.59997 0.85324 0.22237 0.0
C2080 C 0.62686 0.83589 0.17672 0.0
C2081 C 0.61654 0.81012 0.17963 0.0
C2082 C 0.63926 0.84708 0.15763 0.0
C2083 C 0.64999 0.87413 0.15345 0.0
C2084 C 0.63529 0.88544 0.15552 0.0
C2085 C 0.64526 0.91072 0.15077 0.0
C2086 C 0.66987 0.92487 0.14379 0.0
C2087 C 0.68458 0.91378 0.14157 0.0
C2088 C 0.67472 0.88852 0.14633 0.0
C2089 C 0.60142 0.76101 0.09892 0.0
C2090 C 0.6225 0.7673 0.08639 0.0
C2091 C 0.60389 0.77266 0.11834 0.0
C2092 C 0.62748 0.79069 0.12571 0.0
C2093 C 0.64872 0.79572 0.11401 0.0
C2094 C 0.64627 0.78399 0.09455 0.0
C2095 C 0.62943 0.80602 0.14434 0.0
C2096 C 0.64044 0.83194 0.14166 0.0
C2097 C 0.61781 0.79503 0.16375 0.0
C2098 C 0.60724 0.76799 0.16796 0.0
C2099 C 0.62168 0.75659 0.16467 0.0
C2100 C 0.61163 0.73112 0.16858 0.0
C2101 C 0.58717 0.71686 0.1759 0.0
C2102 C 0.57273 0.72805 0.17936 0.0
C2103 C 0.58269 0.75351 0.17546 0.0
H2104 H 0.57943 0.69714 0.17892 0.0
H2105 H 0.67751 0.9444 0.14001 0.0
H2106 H 0.8495 0.62838 0.41665 0.0
H2107 H 0.8344 0.63326 0.45092 0.0
H2108 H 0.8121 0.55717 0.46672 0.0
H2109 H 0.82766 0.55222 0.43252 0.0
H2110 H 0.77372 0.56788 0.46963 0.0
H2111 H 0.85904 0.60364 0.49277 0.0
H2112 H 0.90432 0.63279 0.49099 0.0
H2113 H 0.8921 0.69492 0.49651 0.0
H2114 H 0.84669 0.66614 0.49804 0.0
H2115 H 0.74179 0.56104 0.5773 0.0
H2116 H 0.7558 0.56043 0.54147 0.0
H2117 H 0.78405 0.6396 0.53592 0.0
H2118 H 0.77052 0.64035 0.57224 0.0
H2119 H 0.8188 0.62986 0.5262 0.0
H2120 H 0.73441 0.5956 0.50489 0.0
H2121 H 0.68889 0.5676 0.50592 0.0
H2122 H 0.69844 0.50438 0.49566 0.0
H2123 H 0.74406 0.53195 0.49485 0.0
C2124 C 0.84227 0.61294 0.4277 0.0
C2125 C 0.83971 0.58986 0.42184 0.0
C2126 C 0.83347 0.61573 0.44723 0.0
C2127 C 0.82201 0.59552 0.46123 0.0
C2128 C 0.82075 0.57292 0.456 0.0
C2129 C 0.82966 0.57014 0.4365 0.0
C2130 C 0.80938 0.59727 0.48043 0.0
C2131 C 0.78357 0.58118 0.48219 0.0
C2132 C 0.82214 0.61543 0.49621 0.0
C2133 C 0.84945 0.63274 0.4953 0.0
C2134 C 0.86599 0.62352 0.49341 0.0
C2135 C 0.89168 0.63998 0.49249 0.0
C2136 C 0.90108 0.66569 0.49357 0.0
C2137 C 0.88479 0.675 0.49564 0.0
C2138 C 0.85908 0.65863 0.49655 0.0
C2139 C 0.75013 0.57815 0.56818 0.0
C2140 C 0.75503 0.60075 0.57749 0.0
C2141 C 0.7582 0.5778 0.54766 0.0
C2142 C 0.77091 0.59996 0.53594 0.0
C2143 C 0.77435 0.6223 0.54472 0.0
C2144 C 0.76653 0.6227 0.56537 0.0
C2145 C 0.78305 0.60015 0.51568 0.0
C2146 C 0.8088 0.61665 0.51363 0.0
C2147 C 0.77016 0.58255 0.49949 0.0
C2148 C 0.7427 0.56586 0.49996 0.0
C2149 C 0.72683 0.57571 0.50301 0.0
C2150 C 0.701 0.55991 0.50353 0.0
C2151 C 0.69078 0.53422 0.5009 0.0
C2152 C 0.70638 0.52428 0.4977 0.0
C2153 C 0.73223 0.54 0.49718 0.0
H2154 H 0.67078 0.52203 0.50131 0.0
H2155 H 0.92098 0.6784 0.49286 0.0
H2156 H 0.13124 0.73618 0.89135 0.0
H2157 H 0.14479 0.75551 0.85674 0.0
H2158 H 0.11111 0.80068 0.86857 0.0
H2159 H 0.09727 0.78121 0.90338 0.0
H2160 H 0.12956 0.76642 0.82021 0.0
H2161 H 0.15683 0.86135 0.85845 0.0
H2162 H 0.16302 0.8796 0.89422 0.0
H2163 H 0.18254 0.82659 0.91772 0.0
H2164 H 0.17712 0.80851 0.88204 0.0
H2165 H 0.19164 0.85572 0.74094 0.0
H2166 H 0.16366 0.83695 0.77105 0.0
H2167 H 0.22598 0.84982 0.8102 0.0
H2168 H 0.2542 0.86876 0.78004 0.0
H2169 H 0.19052 0.85604 0.83222 0.0
H2170 H 0.19625 0.79704 0.78768 0.0
H2171 H 0.19454 0.77454 0.75499 0.0
H2172 H 0.11717 0.75158 0.74742 0.0
H2173 H 0.11853 0.77438 0.77991 0.0
C2174 C 0.12564 0.74934 0.88626 0.0
C2175 C 0.11362 0.75755 0.90026 0.0
C2176 C 0.13351 0.76047 0.86644 0.0
C2177 C 0.12951 0.77996 0.86038 0.0
C2178 C 0.11475 0.78595 0.87317 0.0
C2179 C 0.10688 0.77484 0.89303 0.0
C2180 C 0.14427 0.79649 0.84275 0.0
C2181 C 0.14251 0.78612 0.82268 0.0
C2182 C 0.16193 0.82196 0.8463 0.0
C2183 C 0.16622 0.83338 0.86764 0.0
C2184 C 0.1626 0.85372 0.87123 0.0
C2185 C 0.16601 0.86405 0.89149 0.0
C2186 C 0.17311 0.85423 0.90825 0.0
C2187 C 0.17704 0.83419 0.90475 0.0
C2188 C 0.17383 0.82392 0.88451 0.0
C2189 C 0.19954 0.85545 0.75616 0.0
C2190 C 0.22511 0.86375 0.75821 0.0
C2191 C 0.18348 0.8445 0.77328 0.0
C2192 C 0.19275 0.84176 0.79271 0.0
C2193 C 0.21852 0.85179 0.79529 0.0
C2194 C 0.23459 0.86256 0.7781 0.0
C2195 C 0.17542 0.82607 0.80955 0.0
C2196 C 0.17693 0.83656 0.82952 0.0
C2197 C 0.15822 0.80046 0.80613 0.0
C2198 C 0.15757 0.78768 0.78609 0.0
C2199 C 0.17896 0.78753 0.77888 0.0
C2200 C 0.17804 0.77463 0.76044 0.0
C2201 C 0.15574 0.76157 0.7492 0.0
C2202 C 0.13441 0.76167 0.75619 0.0
C2203 C 0.13526 0.7746 0.7746 0.0
H2204 H 0.15498 0.75127 0.73512 0.0
H2205 H 0.17562 0.86216 0.92393 0.0
H2206 H 0.42894 0.16153 0.23634 0.0
H2207 H 0.43229 0.18258 0.20284 0.0
H2208 H 0.3536 0.13444 0.19212 0.0
H2209 H 0.35008 0.11331 0.22579 0.0
H2210 H 0.385 0.15193 0.15373 0.0
H2211 H 0.36602 0.18095 0.21842 0.0
H2212 H 0.37322 0.19412 0.2558 0.0
H2213 H 0.44577 0.25486 0.24005 0.0
H2214 H 0.43918 0.24171 0.20258 0.0
H2215 H 0.3519 0.22366 0.09481 0.0
H2216 H 0.3524 0.20543 0.12897 0.0
H2217 H 0.43219 0.25257 0.13206 0.0
H2218 H 0.43199 0.27039 0.09765 0.0
H2219 H 0.40197 0.23657 0.17417 0.0
H2220 H 0.42084 0.20677 0.10925 0.0
H2221 H 0.41233 0.19428 0.07175 0.0
H2222 H 0.33915 0.13513 0.08819 0.0
H2223 H 0.34707 0.14769 0.12577 0.0
C2224 C 0.41262 0.15449 0.22631 0.0
C2225 C 0.3892 0.13595 0.23365 0.0
C2226 C 0.41454 0.16669 0.20726 0.0
C2227 C 0.39309 0.16032 0.19535 0.0
C2228 C 0.3703 0.1396 0.20121 0.0
C2229 C 0.36832 0.12753 0.22038 0.0
C2230 C 0.3935 0.17787 0.17938 0.0
C2231 C 0.38863 0.17036 0.15819 0.0
C2232 C 0.39834 0.20197 0.1853 0.0
C2233 C 0.40221 0.2102 0.20773 0.0
C2234 C 0.38359 0.19699 0.22295 0.0
C2235 C 0.38755 0.20447 0.24414 0.0
C2236 C 0.40993 0.22533 0.25029 0.0
C2237 C 0.42843 0.23872 0.23525 0.0
C2238 C 0.4246 0.23126 0.21403 0.0
C2239 C 0.36943 0.23087 0.10318 0.0
C2240 C 0.39195 0.24798 0.09337 0.0
C2241 C 0.36967 0.22051 0.12269 0.0
C2242 C 0.39239 0.22739 0.13269 0.0
C2243 C 0.41451 0.24707 0.12448 0.0
C2244 C 0.41432 0.2573 0.10482 0.0
C2245 C 0.39353 0.2106 0.14859 0.0
C2246 C 0.3986 0.21822 0.16973 0.0
C2247 C 0.38888 0.18661 0.14266 0.0
C2248 C 0.38446 0.17829 0.12026 0.0
C2249 C 0.40288 0.19119 0.10484 0.0
C2250 C 0.39817 0.18411 0.08358 0.0
C2251 C 0.37519 0.16395 0.07759 0.0
C2252 C 0.35693 0.15076 0.09286 0.0
C2253 C 0.36152 0.15785 0.11415 0.0
H2254 H 0.37155 0.15852 0.06111 0.0
H2255 H 0.41291 0.23113 0.26669 0.0
loop_
_geom_bond_atom_site_label_1
_geom_bond_atom_site_label_2
_geom_bond_distance
_geom_bond_site_symmetry_2
_ccdc_geom_bond_type
Li0 N17 1.990 . S
Li0 O60 1.956 . S
Li0 O61 1.970 . S
Li0 O62 1.961 . S
Li1 N25 1.990 . S
Li1 O60 1.970 . S
Li1 O61 1.956 . S
Li1 O63 1.961 . S
Li2 N47 1.990 . S
Li2 O60 1.961 . S
Li2 O62 1.956 . S
Li2 O63 1.970 . S
Li3 N53 1.990 . S
Li3 O61 1.961 . S
Li3 O62 1.970 . S
Li3 O63 1.956 . S
C4 C6 1.348 . S
C4 C7 1.356 . S
C4 O60 1.325 . S
N5 C8 1.314 . S
N5 C9 1.279 . S
C6 C4 1.348 . S
C6 C8 1.353 . S
C6 H64 0.929 . S
C7 C4 1.356 . S
C7 C9 1.358 . S
C7 H65 0.930 . S
C8 N5 1.314 . S
C8 C6 1.353 . S
C8 H66 0.930 . S
C9 N5 1.279 . S
C9 C7 1.358 . S
C9 H67 0.930 . S
C10 C13 1.348 . S
C10 C14 1.356 . S
C10 O61 1.325 . S
C11 N12 1.279 . S
C11 C14 1.358 . S
C11 H68 0.930 . S
N12 C11 1.279 . S
N12 C15 1.314 . S
C13 C10 1.348 . S
C13 C15 1.353 . S
C13 H69 0.929 . S
C14 C10 1.356 . S
C14 C11 1.358 . S
C14 H70 0.930 . S
C15 N12 1.314 . S
C15 C13 1.353 . S
C15 H71 0.930 . S
C16 N17 1.314 . S
C16 C21 1.353 . S
C16 H22 0.930 . S
N17 Li0 1.990 . S
N17 C16 1.314 . S
N17 C19 1.279 . S
C18 C19 1.358 . S
C18 C20 1.356 . S
C18 H72 0.930 . S
C19 N17 1.279 . S
C19 C18 1.358 . S
C19 H23 0.930 . S
C20 C18 1.356 . S
C20 C21 1.348 . S
C21 C16 1.353 . S
C21 C20 1.348 . S
C21 H73 0.929 . S
H22 C16 0.930 . S
H23 C19 0.930 . S
C24 N25 1.314 . S
C24 C26 1.353 . S
C24 H30 0.930 . S
N25 Li1 1.990 . S
N25 C24 1.314 . S
N25 C28 1.279 . S
C26 C24 1.353 . S
C26 C29 1.348 . S
C26 H74 0.929 . S
C27 C28 1.358 . S
C27 C29 1.356 . S
C27 H75 0.930 . S
C28 N25 1.279 . S
C28 C27 1.358 . S
C28 H31 0.930 . S
C29 C26 1.348 . S
C29 C27 1.356 . S
H30 C24 0.930 . S
H31 C28 0.930 . S
C32 C34 1.348 . S
C32 C35 1.356 . S
C32 O62 1.325 . S
N33 C36 1.314 . S
N33 C37 1.279 . S
C34 C32 1.348 . S
C34 C36 1.353 . S
C34 H76 0.929 . S
C35 C32 1.356 . S
C35 C37 1.358 . S
C35 H77 0.930 . S
C36 N33 1.314 . S
C36 C34 1.353 . S
C36 H78 0.930 . S
C37 N33 1.279 . S
C37 C35 1.358 . S
C37 H79 0.930 . S
C38 C39 1.348 . S
C38 C40 1.356 . S
C38 O63 1.325 . S
C39 C38 1.348 . S
C39 C41 1.353 . S
C39 H80 0.929 . S
C40 C38 1.356 . S
C40 C42 1.358 . S
C40 H81 0.930 . S
C41 C39 1.353 . S
C41 N43 1.314 . S
C41 H82 0.930 . S
C42 C40 1.358 . S
C42 N43 1.279 . S
C42 H83 0.930 . S
N43 C41 1.314 . S
N43 C42 1.279 . S
C44 C46 1.353 . S
C44 N47 1.314 . S
C44 H50 0.930 . S
C45 N47 1.279 . S
C45 C48 1.358 . S
C45 H51 0.930 . S
C46 C44 1.353 . S
C46 C49 1.348 . S
C46 H84 0.929 . S
N47 Li2 1.990 . S
N47 C44 1.314 . S
N47 C45 1.279 . S
C48 C45 1.358 . S
C48 C49 1.356 . S
C48 H85 0.930 . S
C49 C46 1.348 . S
C49 C48 1.356 . S
H50 C44 0.930 . S
H51 C45 0.930 . S
C52 N53 1.314 . S
C52 C54 1.353 . S
C52 H58 0.930 . S
N53 Li3 1.990 . S
N53 C52 1.314 . S
N53 C56 1.279 . S
C54 C52 1.353 . S
C54 C57 1.348 . S
C54 H86 0.929 . S
C55 C56 1.358 . S
C55 C57 1.356 . S
C55 H87 0.930 . S
C56 N53 1.279 . S
C56 C55 1.358 . S
C56 H59 0.930 . S
C57 C54 1.348 . S
C57 C55 1.356 . S
H58 C52 0.930 . S
H59 C56 0.930 . S
O60 Li0 1.956 . S
O60 Li1 1.970 . S
O60 Li2 1.961 . S
O60 C4 1.325 . S
O61 Li0 1.970 . S
O61 Li1 1.956 . S
O61 Li3 1.961 . S
O61 C10 1.325 . S
O62 Li0 1.961 . S
O62 Li2 1.956 . S
O62 Li3 1.970 . S
O62 C32 1.325 . S
O63 Li1 1.961 . S
O63 Li2 1.970 . S
O63 Li3 1.956 . S
O63 C38 1.325 . S
H64 C6 0.929 . S
H65 C7 0.930 . S
H66 C8 0.930 . S
H67 C9 0.930 . S
H68 C11 0.930 . S
H69 C13 0.929 . S
H70 C14 0.930 . S
H71 C15 0.930 . S
H72 C18 0.930 . S
H73 C21 0.929 . S
H74 C26 0.929 . S
H75 C27 0.930 . S
H76 C34 0.929 . S
H77 C35 0.930 . S
H78 C36 0.930 . S
H79 C37 0.930 . S
H80 C39 0.929 . S
H81 C40 0.930 . S
H82 C41 0.930 . S
H83 C42 0.930 . S
H84 C46 0.929 . S
H85 C48 0.930 . S
H86 C54 0.929 . S
H87 C55 0.930 . S
Li88 N105 1.990 . S
Li88 O148 1.956 . S
Li88 O149 1.970 . S
Li88 O150 1.961 . S
Li89 N113 1.990 . S
Li89 O148 1.970 . S
Li89 O149 1.956 . S
Li89 O151 1.961 . S
Li90 N135 1.990 . S
Li90 O148 1.961 . S
Li90 O150 1.956 . S
Li90 O151 1.970 . S
Li91 N141 1.990 . S
Li91 O149 1.961 . S
Li91 O150 1.970 . S
Li91 O151 1.956 . S
C92 C94 1.348 . S
C92 C95 1.356 . S
C92 O148 1.325 . S
N93 C96 1.314 . S
N93 C97 1.279 . S
C94 C92 1.348 . S
C94 C96 1.353 . S
C94 H152 0.929 . S
C95 C92 1.356 . S
C95 C97 1.358 . S
C95 H153 0.930 . S
C96 N93 1.314 . S
C96 C94 1.353 . S
C96 H154 0.930 . S
C97 N93 1.279 . S
C97 C95 1.358 . S
C97 H155 0.930 . S
C98 C101 1.348 . S
C98 C102 1.356 . S
C98 O149 1.325 . S
C99 N100 1.279 . S
C99 C102 1.358 . S
C99 H156 0.930 . S
N100 C99 1.279 . S
N100 C103 1.314 . S
C101 C98 1.348 . S
C101 C103 1.353 . S
C101 H157 0.929 . S
C102 C98 1.356 . S
C102 C99 1.358 . S
C102 H158 0.930 . S
C103 N100 1.314 . S
C103 C101 1.353 . S
C103 H159 0.930 . S
C104 N105 1.314 . S
C104 C109 1.353 . S
C104 H110 0.930 . S
N105 Li88 1.990 . S
N105 C104 1.314 . S
N105 C107 1.279 . S
C106 C107 1.358 . S
C106 C108 1.356 . S
C106 H160 0.930 . S
C107 N105 1.279 . S
C107 C106 1.358 . S
C107 H111 0.930 . S
C108 C106 1.356 . S
C108 C109 1.348 . S
C109 C104 1.353 . S
C109 C108 1.348 . S
C109 H161 0.929 . S
H110 C104 0.930 . S
H111 C107 0.930 . S
C112 N113 1.314 . S
C112 C114 1.353 . S
C112 H118 0.930 . S
N113 Li89 1.990 . S
N113 C112 1.314 . S
N113 C116 1.279 . S
C114 C112 1.353 . S
C114 C117 1.348 . S
C114 H162 0.929 . S
C115 C116 1.358 . S
C115 C117 1.356 . S
C115 H163 0.930 . S
C116 N113 1.279 . S
C116 C115 1.358 . S
C116 H119 0.930 . S
C117 C114 1.348 . S
C117 C115 1.356 . S
H118 C112 0.930 . S
H119 C116 0.930 . S
C120 C122 1.348 . S
C120 C123 1.356 . S
C120 O150 1.325 . S
N121 C124 1.314 . S
N121 C125 1.279 . S
C122 C120 1.348 . S
C122 C124 1.353 . S
C122 H164 0.929 . S
C123 C120 1.356 . S
C123 C125 1.358 . S
C123 H165 0.930 . S
C124 N121 1.314 . S
C124 C122 1.353 . S
C124 H166 0.930 . S
C125 N121 1.279 . S
C125 C123 1.358 . S
C125 H167 0.930 . S
C126 C127 1.348 . S
C126 C128 1.356 . S
C126 O151 1.325 . S
C127 C126 1.348 . S
C127 C129 1.353 . S
C127 H168 0.929 . S
C128 C126 1.356 . S
C128 C130 1.358 . S
C128 H169 0.930 . S
C129 C127 1.353 . S
C129 N131 1.314 . S
C129 H170 0.930 . S
C130 C128 1.358 . S
C130 N131 1.279 . S
C130 H171 0.930 . S
N131 C129 1.314 . S
N131 C130 1.279 . S
C132 C134 1.353 . S
C132 N135 1.314 . S
C132 H138 0.930 . S
C133 N135 1.279 . S
C133 C136 1.358 . S
C133 H139 0.930 . S
C134 C132 1.353 . S
C134 C137 1.348 . S
C134 H172 0.929 . S
N135 Li90 1.990 . S
N135 C132 1.314 . S
N135 C133 1.279 . S
C136 C133 1.358 . S
C136 C137 1.356 . S
C136 H173 0.930 . S
C137 C134 1.348 . S
C137 C136 1.356 . S
H138 C132 0.930 . S
H139 C133 0.930 . S
C140 N141 1.314 . S
C140 C142 1.353 . S
C140 H146 0.930 . S
N141 Li91 1.990 . S
N141 C140 1.314 . S
N141 C144 1.279 . S
C142 C140 1.353 . S
C142 C145 1.348 . S
C142 H174 0.929 . S
C143 C144 1.358 . S
C143 C145 1.356 . S
C143 H175 0.930 . S
C144 N141 1.279 . S
C144 C143 1.358 . S
C144 H147 0.930 . S
C145 C142 1.348 . S
C145 C143 1.356 . S
H146 C140 0.930 . S
H147 C144 0.930 . S
O148 Li88 1.956 . S
O148 Li89 1.970 . S
O148 Li90 1.961 . S
O148 C92 1.325 . S
O149 Li88 1.970 . S
O149 Li89 1.956 . S
O149 Li91 1.961 . S
O149 C98 1.325 . S
O150 Li88 1.961 . S
O150 Li90 1.956 . S
O150 Li91 1.970 . S
O150 C120 1.325 . S
O151 Li89 1.961 . S
O151 Li90 1.970 . S
O151 Li91 1.956 . S
O151 C126 1.325 . S
H152 C94 0.929 . S
H153 C95 0.930 . S
H154 C96 0.930 . S
H155 C97 0.930 . S
H156 C99 0.930 . S
H157 C101 0.929 . S
H158 C102 0.930 . S
H159 C103 0.930 . S
H160 C106 0.930 . S
H161 C109 0.929 . S
H162 C114 0.929 . S
H163 C115 0.930 . S
H164 C122 0.929 . S
H165 C123 0.930 . S
H166 C124 0.930 . S
H167 C125 0.930 . S
H168 C127 0.929 . S
H169 C128 0.930 . S
H170 C129 0.930 . S
H171 C130 0.930 . S
H172 C134 0.929 . S
H173 C136 0.930 . S
H174 C142 0.929 . S
H175 C143 0.930 . S
Li176 N193 1.990 . S
Li176 O236 1.956 . S
Li176 O237 1.970 . S
Li176 O238 1.961 . S
Li177 N201 1.990 . S
Li177 O236 1.970 1_556 S
Li177 O237 1.956 1_556 S
Li177 O239 1.961 . S
Li178 N223 1.990 . S
Li178 O236 1.961 1_556 S
Li178 O238 1.956 1_556 S
Li178 O239 1.970 . S
Li179 N229 1.990 . S
Li179 O237 1.961 1_556 S
Li179 O238 1.970 1_556 S
Li179 O239 1.956 . S
C180 C182 1.348 . S
C180 C183 1.356 . S
C180 O236 1.325 . S
N181 C184 1.314 . S
N181 C185 1.279 . S
C182 C180 1.348 . S
C182 C184 1.353 . S
C182 H240 0.929 . S
C183 C180 1.356 . S
C183 C185 1.358 . S
C183 H241 0.930 . S
C184 N181 1.314 . S
C184 C182 1.353 . S
C184 H242 0.930 . S
C185 N181 1.279 . S
C185 C183 1.358 . S
C185 H243 0.930 . S
C186 C189 1.348 . S
C186 C190 1.356 . S
C186 O237 1.325 . S
C187 N188 1.279 . S
C187 C190 1.358 . S
C187 H244 0.930 . S
N188 C187 1.279 . S
N188 C191 1.314 . S
C189 C186 1.348 . S
C189 C191 1.353 . S
C189 H245 0.929 . S
C190 C186 1.356 . S
C190 C187 1.358 . S
C190 H246 0.930 . S
C191 N188 1.314 . S
C191 C189 1.353 . S
C191 H247 0.930 . S
C192 N193 1.314 . S
C192 C197 1.353 . S
C192 H198 0.930 . S
N193 Li176 1.990 . S
N193 C192 1.314 . S
N193 C195 1.279 . S
C194 C195 1.358 . S
C194 C196 1.356 . S
C194 H248 0.930 . S
C195 N193 1.279 . S
C195 C194 1.358 . S
C195 H199 0.930 . S
C196 C194 1.356 . S
C196 C197 1.348 . S
C197 C192 1.353 . S
C197 C196 1.348 . S
C197 H249 0.929 . S
H198 C192 0.930 . S
H199 C195 0.930 . S
C200 N201 1.314 . S
C200 C202 1.353 . S
C200 H206 0.930 . S
N201 Li177 1.990 . S
N201 C200 1.314 . S
N201 C204 1.279 1_556 S
C202 C200 1.353 . S
C202 C205 1.348 . S
C202 H250 0.929 . S
C203 C204 1.352 1_556 S
C203 C205 1.395 . S
C203 H251 0.898 1_556 S
C204 N201 1.279 1_554 S
C204 C203 1.352 1_554 S
C204 H207 0.930 . S
C205 C202 1.348 . S
C205 C203 1.395 . S
H206 C200 0.930 . S
H207 C204 0.930 . S
C208 C210 1.348 . S
C208 C211 1.356 . S
C208 O238 1.325 . S
N209 C212 1.314 . S
N209 C213 1.279 . S
C210 C208 1.348 . S
C210 C212 1.353 . S
C210 H252 0.929 1_554 S
C211 C208 1.356 . S
C211 C213 1.358 . S
C211 H253 0.930 . S
C212 N209 1.314 . S
C212 C210 1.353 . S
C212 H254 0.930 . S
C213 N209 1.279 . S
C213 C211 1.358 . S
C213 H255 0.930 . S
C214 C215 1.348 . S
C214 C216 1.356 . S
C214 O239 1.325 . S
C215 C214 1.348 . S
C215 C217 1.353 . S
C215 H256 0.929 . S
C216 C214 1.356 . S
C216 C218 1.358 . S
C216 H257 0.930 . S
C217 C215 1.353 . S
C217 N219 1.314 . S
C217 H258 0.930 . S
C218 C216 1.358 . S
C218 N219 1.279 . S
C218 H259 0.930 . S
N219 C217 1.314 . S
N219 C218 1.279 . S
C220 C222 1.353 . S
C220 N223 1.314 . S
C220 H226 0.930 . S
C221 N223 1.279 . S
C221 C224 1.358 . S
C221 H227 0.930 . S
C222 C220 1.353 . S
C222 C225 1.348 . S
C222 H260 0.929 . S
N223 Li178 1.990 . S
N223 C220 1.314 . S
N223 C221 1.279 . S
C224 C221 1.358 . S
C224 C225 1.356 . S
C224 H261 0.930 . S
C225 C222 1.348 . S
C225 C224 1.356 . S
H226 C220 0.930 . S
H227 C221 0.930 . S
C228 N229 1.314 1_554 S
C228 C230 1.353 . S
C228 H234 0.930 . S
N229 Li179 1.990 . S
N229 C228 1.314 1_556 S
N229 C232 1.279 . S
C230 C228 1.353 . S
C230 C233 1.348 1_554 S
C230 H262 0.929 . S
C231 C232 1.358 . S
C231 C233 1.356 . S
C231 H263 0.930 . S
C232 N229 1.279 . S
C232 C231 1.358 . S
C232 H235 0.930 . S
C233 C230 1.348 1_556 S
C233 C231 1.356 . S
H234 C228 0.930 . S
H235 C232 0.930 . S
O236 Li176 1.956 . S
O236 Li177 1.970 1_554 S
O236 Li178 1.961 1_554 S
O236 C180 1.325 . S
O237 Li176 1.970 . S
O237 Li177 1.956 1_554 S
O237 Li179 1.961 1_554 S
O237 C186 1.325 . S
O238 Li176 1.961 . S
O238 Li178 1.956 1_554 S
O238 Li179 1.970 1_554 S
O238 C208 1.325 . S
O239 Li177 1.961 . S
O239 Li178 1.970 . S
O239 Li179 1.956 . S
O239 C214 1.325 . S
H240 C182 0.929 . S
H241 C183 0.930 . S
H242 C184 0.930 . S
H243 C185 0.930 . S
H244 C187 0.930 . S
H245 C189 0.929 . S
H246 C190 0.930 . S
H247 C191 0.930 . S
H248 C194 0.930 . S
H249 C197 0.929 . S
H250 C202 0.929 . S
H251 C203 0.898 1_554 S
H252 C210 0.929 1_556 S
H253 C211 0.930 . S
H254 C212 0.930 . S
H255 C213 0.930 . S
H256 C215 0.929 . S
H257 C216 0.930 . S
H258 C217 0.930 . S
H259 C218 0.930 . S
H260 C222 0.929 . S
H261 C224 0.930 . S
H262 C230 0.929 . S
H263 C231 0.930 . S
Li264 N281 1.990 . S
Li264 O324 1.956 . S
Li264 O325 1.970 . S
Li264 O326 1.961 . S
Li265 N289 1.990 . S
Li265 O324 1.970 . S
Li265 O325 1.956 . S
Li265 O327 1.961 . S
Li266 N311 1.990 . S
Li266 O324 1.961 . S
Li266 O326 1.956 . S
Li266 O327 1.970 . S
Li267 N317 1.990 . S
Li267 O325 1.961 . S
Li267 O326 1.970 . S
Li267 O327 1.956 . S
C268 C270 1.348 . S
C268 C271 1.356 . S
C268 O324 1.325 . S
N269 C272 1.314 . S
N269 C273 1.279 . S
C270 C268 1.348 . S
C270 C272 1.353 . S
C270 H328 0.929 . S
C271 C268 1.356 . S
C271 C273 1.358 . S
C271 H329 0.930 . S
C272 N269 1.314 . S
C272 C270 1.353 . S
C272 H330 0.930 . S
C273 N269 1.279 . S
C273 C271 1.358 . S
C273 H331 0.930 . S
C274 C277 1.348 . S
C274 C278 1.356 . S
C274 O325 1.325 . S
C275 N276 1.279 . S
C275 C278 1.358 . S
C275 H332 0.930 . S
N276 C275 1.279 . S
N276 C279 1.314 . S
C277 C274 1.348 . S
C277 C279 1.353 . S
C277 H333 0.929 . S
C278 C274 1.356 . S
C278 C275 1.358 . S
C278 H334 0.930 . S
C279 N276 1.314 . S
C279 C277 1.353 . S
C279 H335 0.930 . S
C280 N281 1.314 . S
C280 C285 1.353 . S
C280 H286 0.930 . S
N281 Li264 1.990 . S
N281 C280 1.314 . S
N281 C283 1.279 . S
C282 C283 1.358 . S
C282 C284 1.356 . S
C282 H336 0.930 . S
C283 N281 1.279 . S
C283 C282 1.358 . S
C283 H287 0.930 . S
C284 C282 1.356 . S
C284 C285 1.348 . S
C285 C280 1.353 . S
C285 C284 1.348 . S
C285 H337 0.929 . S
H286 C280 0.930 . S
H287 C283 0.930 . S
C288 N289 1.314 . S
C288 C290 1.353 . S
C288 H294 0.930 . S
N289 Li265 1.990 . S
N289 C288 1.314 . S
N289 C292 1.279 . S
C290 C288 1.353 . S
C290 C293 1.348 . S
C290 H338 0.929 . S
C291 C292 1.358 . S
C291 C293 1.356 . S
C291 H339 0.930 . S
C292 N289 1.279 . S
C292 C291 1.358 . S
C292 H295 0.930 . S
C293 C290 1.348 . S
C293 C291 1.356 . S
H294 C288 0.930 . S
H295 C292 0.930 . S
C296 C298 1.348 . S
C296 C299 1.356 . S
C296 O326 1.325 . S
N297 C300 1.314 . S
N297 C301 1.279 . S
C298 C296 1.348 . S
C298 C300 1.353 . S
C298 H340 0.929 . S
C299 C296 1.356 . S
C299 C301 1.358 . S
C299 H341 0.930 . S
C300 N297 1.314 . S
C300 C298 1.353 . S
C300 H342 0.930 . S
C301 N297 1.279 . S
C301 C299 1.358 . S
C301 H343 0.930 . S
C302 C303 1.348 . S
C302 C304 1.356 . S
C302 O327 1.325 . S
C303 C302 1.348 . S
C303 C305 1.353 . S
C303 H344 0.929 . S
C304 C302 1.356 . S
C304 C306 1.358 . S
C304 H345 0.930 . S
C305 C303 1.353 . S
C305 N307 1.314 . S
C305 H346 0.930 . S
C306 C304 1.358 . S
C306 N307 1.279 . S
C306 H347 0.930 . S
N307 C305 1.314 . S
N307 C306 1.279 . S
C308 C310 1.353 . S
C308 N311 1.314 . S
C308 H314 0.930 . S
C309 N311 1.279 . S
C309 C312 1.358 . S
C309 H315 0.930 . S
C310 C308 1.353 . S
C310 C313 1.348 . S
C310 H348 0.929 . S
N311 Li266 1.990 . S
N311 C308 1.314 . S
N311 C309 1.279 . S
C312 C309 1.358 . S
C312 C313 1.356 . S
C312 H349 0.930 . S
C313 C310 1.348 . S
C313 C312 1.356 . S
H314 C308 0.930 . S
H315 C309 0.930 . S
C316 N317 1.314 . S
C316 C318 1.353 . S
C316 H322 0.930 . S
N317 Li267 1.990 . S
N317 C316 1.314 . S
N317 C320 1.279 . S
C318 C316 1.353 . S
C318 C321 1.348 . S
C318 H350 0.929 . S
C319 C320 1.358 . S
C319 C321 1.356 . S
C319 H351 0.930 . S
C320 N317 1.279 . S
C320 C319 1.358 . S
C320 H323 0.930 . S
C321 C318 1.348 . S
C321 C319 1.356 . S
H322 C316 0.930 . S
H323 C320 0.930 . S
O324 Li264 1.956 . S
O324 Li265 1.970 . S
O324 Li266 1.961 . S
O324 C268 1.325 . S
O325 Li264 1.970 . S
O325 Li265 1.956 . S
O325 Li267 1.961 . S
O325 C274 1.325 . S
O326 Li264 1.961 . S
O326 Li266 1.956 . S
O326 Li267 1.970 . S
O326 C296 1.325 . S
O327 Li265 1.961 . S
O327 Li266 1.970 . S
O327 Li267 1.956 . S
O327 C302 1.325 . S
H328 C270 0.929 . S
H329 C271 0.930 . S
H330 C272 0.930 . S
H331 C273 0.930 . S
H332 C275 0.930 . S
H333 C277 0.929 . S
H334 C278 0.930 . S
H335 C279 0.930 . S
H336 C282 0.930 . S
H337 C285 0.929 . S
H338 C290 0.929 . S
H339 C291 0.930 . S
H340 C298 0.929 . S
H341 C299 0.930 . S
H342 C300 0.930 . S
H343 C301 0.930 . S
H344 C303 0.929 . S
H345 C304 0.930 . S
H346 C305 0.930 . S
H347 C306 0.930 . S
H348 C310 0.929 . S
H349 C312 0.930 . S
H350 C318 0.929 . S
H351 C319 0.930 . S
Li352 N369 1.990 . S
Li352 O412 1.956 . S
Li352 O413 1.970 . S
Li352 O414 1.961 . S
Li353 N377 1.990 . S
Li353 O412 1.970 . S
Li353 O413 1.956 . S
Li353 O415 1.961 . S
Li354 N399 1.990 . S
Li354 O412 1.961 . S
Li354 O414 1.956 . S
Li354 O415 1.970 . S
Li355 N405 1.990 . S
Li355 O413 1.961 . S
Li355 O414 1.970 . S
Li355 O415 1.956 . S
C356 C358 1.348 . S
C356 C359 1.356 . S
C356 O412 1.325 . S
N357 C360 1.314 . S
N357 C361 1.279 . S
C358 C356 1.348 . S
C358 C360 1.353 . S
C358 H416 0.929 . S
C359 C356 1.356 . S
C359 C361 1.358 . S
C359 H417 0.930 . S
C360 N357 1.314 . S
C360 C358 1.353 . S
C360 H418 0.930 . S
C361 N357 1.279 . S
C361 C359 1.358 . S
C361 H419 0.930 . S
C362 C365 1.348 . S
C362 C366 1.356 . S
C362 O413 1.325 . S
C363 N364 1.279 . S
C363 C366 1.358 . S
C363 H420 0.930 . S
N364 C363 1.279 . S
N364 C367 1.314 . S
C365 C362 1.348 . S
C365 C367 1.353 . S
C365 H421 0.929 . S
C366 C362 1.356 . S
C366 C363 1.358 . S
C366 H422 0.930 . S
C367 N364 1.314 . S
C367 C365 1.353 . S
C367 H423 0.930 . S
C368 N369 1.314 . S
C368 C373 1.353 . S
C368 H374 0.930 . S
N369 Li352 1.990 . S
N369 C368 1.314 . S
N369 C371 1.279 . S
C370 C371 1.358 . S
C370 C372 1.356 . S
C370 H424 0.930 . S
C371 N369 1.279 . S
C371 C370 1.358 . S
C371 H375 0.930 . S
C372 C370 1.356 . S
C372 C373 1.348 . S
C373 C368 1.353 . S
C373 C372 1.348 . S
C373 H425 0.929 . S
H374 C368 0.930 . S
H375 C371 0.930 . S
C376 N377 1.314 . S
C376 C378 1.353 . S
C376 H382 0.930 . S
N377 Li353 1.990 . S
N377 C376 1.314 . S
N377 C380 1.279 . S
C378 C376 1.353 . S
C378 C381 1.348 . S
C378 H426 0.929 . S
C379 C380 1.358 . S
C379 C381 1.356 . S
C379 H427 0.930 . S
C380 N377 1.279 . S
C380 C379 1.358 . S
C380 H383 0.930 . S
C381 C378 1.348 . S
C381 C379 1.356 . S
H382 C376 0.930 . S
H383 C380 0.930 . S
C384 C386 1.348 . S
C384 C387 1.356 . S
C384 O414 1.325 . S
N385 C388 1.314 . S
N385 C389 1.279 . S
C386 C384 1.348 . S
C386 C388 1.353 . S
C386 H428 0.929 . S
C387 C384 1.356 . S
C387 C389 1.358 . S
C387 H429 0.930 . S
C388 N385 1.314 . S
C388 C386 1.353 . S
C388 H430 0.930 . S
C389 N385 1.279 . S
C389 C387 1.358 . S
C389 H431 0.930 . S
C390 C391 1.348 . S
C390 C392 1.356 . S
C390 O415 1.325 . S
C391 C390 1.348 . S
C391 C393 1.353 . S
C391 H432 0.929 . S
C392 C390 1.356 . S
C392 C394 1.358 . S
C392 H433 0.930 . S
C393 C391 1.353 . S
C393 N395 1.314 . S
C393 H434 0.930 . S
C394 C392 1.358 . S
C394 N395 1.279 . S
C394 H435 0.930 . S
N395 C393 1.314 . S
N395 C394 1.279 . S
C396 C398 1.353 . S
C396 N399 1.314 . S
C396 H402 0.930 . S
C397 N399 1.279 . S
C397 C400 1.358 . S
C397 H403 0.930 . S
C398 C396 1.353 . S
C398 C401 1.348 . S
C398 H436 0.929 . S
N399 Li354 1.990 . S
N399 C396 1.314 . S
N399 C397 1.279 . S
C400 C397 1.358 . S
C400 C401 1.356 . S
C400 H437 0.930 . S
C401 C398 1.348 . S
C401 C400 1.356 . S
H402 C396 0.930 . S
H403 C397 0.930 . S
C404 N405 1.314 . S
C404 C406 1.353 . S
C404 H410 0.930 . S
N405 Li355 1.990 . S
N405 C404 1.314 . S
N405 C408 1.279 . S
C406 C404 1.353 . S
C406 C409 1.348 . S
C406 H438 0.929 . S
C407 C408 1.358 . S
C407 C409 1.356 . S
C407 H439 0.930 . S
C408 N405 1.279 . S
C408 C407 1.358 . S
C408 H411 0.930 . S
C409 C406 1.348 . S
C409 C407 1.356 . S
H410 C404 0.930 . S
H411 C408 0.930 . S
O412 Li352 1.956 . S
O412 Li353 1.970 . S
O412 Li354 1.961 . S
O412 C356 1.325 . S
O413 Li352 1.970 . S
O413 Li353 1.956 . S
O413 Li355 1.961 . S
O413 C362 1.325 . S
O414 Li352 1.961 . S
O414 Li354 1.956 . S
O414 Li355 1.970 . S
O414 C384 1.325 . S
O415 Li353 1.961 . S
O415 Li354 1.970 . S
O415 Li355 1.956 . S
O415 C390 1.325 . S
H416 C358 0.929 . S
H417 C359 0.930 . S
H418 C360 0.930 . S
H419 C361 0.930 . S
H420 C363 0.930 . S
H421 C365 0.929 . S
H422 C366 0.930 . S
H423 C367 0.930 . S
H424 C370 0.930 . S
H425 C373 0.929 . S
H426 C378 0.929 . S
H427 C379 0.930 . S
H428 C386 0.929 . S
H429 C387 0.930 . S
H430 C388 0.930 . S
H431 C389 0.930 . S
H432 C391 0.929 . S
H433 C392 0.930 . S
H434 C393 0.930 . S
H435 C394 0.930 . S
H436 C398 0.929 . S
H437 C400 0.930 . S
H438 C406 0.929 . S
H439 C407 0.930 . S
Li440 N457 1.990 . S
Li440 O500 1.956 1_556 S
Li440 O501 1.970 1_556 S
Li440 O502 1.961 . S
Li441 N465 1.990 . S
Li441 O500 1.970 . S
Li441 O501 1.956 . S
Li441 O503 1.961 . S
Li442 N487 1.990 . S
Li442 O500 1.961 1_556 S
Li442 O502 1.956 . S
Li442 O503 1.970 1_556 S
Li443 N493 1.990 . S
Li443 O501 1.961 1_556 S
Li443 O502 1.970 . S
Li443 O503 1.956 1_556 S
C444 C446 1.348 . S
C444 C447 1.356 . S
C444 O500 1.325 . S
N445 C448 1.314 . S
N445 C449 1.279 . S
C446 C444 1.348 . S
C446 C448 1.353 . S
C446 H504 0.929 . S
C447 C444 1.356 . S
C447 C449 1.358 . S
C447 H505 0.930 . S
C448 N445 1.314 . S
C448 C446 1.353 . S
C448 H506 0.930 . S
C449 N445 1.279 . S
C449 C447 1.358 . S
C449 H507 0.930 . S
C450 C453 1.348 . S
C450 C454 1.356 . S
C450 O501 1.325 . S
C451 N452 1.279 . S
C451 C454 1.358 . S
C451 H508 0.930 . S
N452 C451 1.279 . S
N452 C455 1.314 . S
C453 C450 1.348 . S
C453 C455 1.353 . S
C453 H509 0.929 . S
C454 C450 1.356 . S
C454 C451 1.358 . S
C454 H510 0.930 . S
C455 N452 1.314 . S
C455 C453 1.353 . S
C455 H511 0.930 . S
C456 N457 1.314 . S
C456 C461 1.353 . S
C456 H462 0.930 . S
N457 Li440 1.990 . S
N457 C456 1.314 . S
N457 C459 1.279 1_556 S
C458 C459 1.352 1_556 S
C458 C460 1.395 . S
C458 H512 0.898 1_556 S
C459 N457 1.279 1_554 S
C459 C458 1.352 1_554 S
C459 H463 0.930 . S
C460 C458 1.395 . S
C460 C461 1.348 . S
C461 C456 1.353 . S
C461 C460 1.348 . S
C461 H513 0.929 . S
H462 C456 0.930 . S
H463 C459 0.930 . S
C464 N465 1.314 . S
C464 C466 1.353 . S
C464 H470 0.930 . S
N465 Li441 1.990 . S
N465 C464 1.314 . S
N465 C468 1.279 . S
C466 C464 1.353 . S
C466 C469 1.348 . S
C466 H514 0.929 . S
C467 C468 1.358 . S
C467 C469 1.356 . S
C467 H515 0.930 . S
C468 N465 1.279 . S
C468 C467 1.358 . S
C468 H471 0.930 . S
C469 C466 1.348 . S
C469 C467 1.356 . S
H470 C464 0.930 . S
H471 C468 0.930 . S
C472 C474 1.348 . S
C472 C475 1.356 . S
C472 O502 1.325 . S
N473 C476 1.314 . S
N473 C477 1.279 . S
C474 C472 1.348 . S
C474 C476 1.353 . S
C474 H516 0.929 . S
C475 C472 1.356 . S
C475 C477 1.358 . S
C475 H517 0.930 . S
C476 N473 1.314 . S
C476 C474 1.353 . S
C476 H518 0.930 . S
C477 N473 1.279 . S
C477 C475 1.358 . S
C477 H519 0.930 . S
C478 C479 1.348 . S
C478 C480 1.356 . S
C478 O503 1.325 . S
C479 C478 1.348 . S
C479 C481 1.353 . S
C479 H520 0.929 1_554 S
C480 C478 1.356 . S
C480 C482 1.358 . S
C480 H521 0.930 . S
C481 C479 1.353 . S
C481 N483 1.314 . S
C481 H522 0.930 . S
C482 C480 1.358 . S
C482 N483 1.279 . S
C482 H523 0.930 . S
N483 C481 1.314 . S
N483 C482 1.279 . S
C484 C486 1.353 . S
C484 N487 1.314 1_554 S
C484 H490 0.930 . S
C485 N487 1.279 . S
C485 C488 1.358 . S
C485 H491 0.930 . S
C486 C484 1.353 . S
C486 C489 1.348 1_554 S
C486 H524 0.929 . S
N487 Li442 1.990 . S
N487 C484 1.314 1_556 S
N487 C485 1.279 . S
C488 C485 1.358 . S
C488 C489 1.356 . S
C488 H525 0.930 . S
C489 C486 1.348 1_556 S
C489 C488 1.356 . S
H490 C484 0.930 . S
H491 C485 0.930 . S
C492 N493 1.314 . S
C492 C494 1.353 . S
C492 H498 0.930 . S
N493 Li443 1.990 . S
N493 C492 1.314 . S
N493 C496 1.279 . S
C494 C492 1.353 . S
C494 C497 1.348 . S
C494 H526 0.929 . S
C495 C496 1.358 . S
C495 C497 1.356 . S
C495 H527 0.930 . S
C496 N493 1.279 . S
C496 C495 1.358 . S
C496 H499 0.930 . S
C497 C494 1.348 . S
C497 C495 1.356 . S
H498 C492 0.930 . S
H499 C496 0.930 . S
O500 Li440 1.956 1_554 S
O500 Li441 1.970 . S
O500 Li442 1.961 1_554 S
O500 C444 1.325 . S
O501 Li440 1.970 1_554 S
O501 Li441 1.956 . S
O501 Li443 1.961 1_554 S
O501 C450 1.325 . S
O502 Li440 1.961 . S
O502 Li442 1.956 . S
O502 Li443 1.970 . S
O502 C472 1.325 . S
O503 Li441 1.961 . S
O503 Li442 1.970 1_554 S
O503 Li443 1.956 1_554 S
O503 C478 1.325 . S
H504 C446 0.929 . S
H505 C447 0.930 . S
H506 C448 0.930 . S
H507 C449 0.930 . S
H508 C451 0.930 . S
H509 C453 0.929 . S
H510 C454 0.930 . S
H511 C455 0.930 . S
H512 C458 0.898 1_554 S
H513 C461 0.929 . S
H514 C466 0.929 . S
H515 C467 0.930 . S
H516 C474 0.929 . S
H517 C475 0.930 . S
H518 C476 0.930 . S
H519 C477 0.930 . S
H520 C479 0.929 1_556 S
H521 C480 0.930 . S
H522 C481 0.930 . S
H523 C482 0.930 . S
H524 C486 0.929 . S
H525 C488 0.930 . S
H526 C494 0.929 . S
H527 C495 0.930 . S
Li528 N545 1.990 . S
Li528 O588 1.956 . S
Li528 O589 1.970 . S
Li528 O590 1.961 . S
Li529 N553 1.990 . S
Li529 O588 1.970 . S
Li529 O589 1.956 . S
Li529 O591 1.961 . S
Li530 N575 1.990 . S
Li530 O588 1.961 . S
Li530 O590 1.956 . S
Li530 O591 1.970 . S
Li531 N581 1.990 . S
Li531 O589 1.961 . S
Li531 O590 1.970 . S
Li531 O591 1.956 . S
C532 C534 1.348 . S
C532 C535 1.356 . S
C532 O588 1.325 . S
N533 C536 1.314 . S
N533 C537 1.279 . S
C534 C532 1.348 . S
C534 C536 1.353 . S
C534 H592 0.929 . S
C535 C532 1.356 . S
C535 C537 1.358 . S
C535 H593 0.930 . S
C536 N533 1.314 . S
C536 C534 1.353 . S
C536 H594 0.930 . S
C537 N533 1.279 . S
C537 C535 1.358 . S
C537 H595 0.930 . S
C538 C541 1.348 . S
C538 C542 1.356 . S
C538 O589 1.325 . S
C539 N540 1.279 . S
C539 C542 1.358 . S
C539 H596 0.930 . S
N540 C539 1.279 . S
N540 C543 1.314 . S
C541 C538 1.348 . S
C541 C543 1.353 . S
C541 H597 0.929 . S
C542 C538 1.356 . S
C542 C539 1.358 . S
C542 H598 0.930 . S
C543 N540 1.314 . S
C543 C541 1.353 . S
C543 H599 0.930 . S
C544 N545 1.314 . S
C544 C549 1.353 . S
C544 H550 0.930 . S
N545 Li528 1.990 . S
N545 C544 1.314 . S
N545 C547 1.279 . S
C546 C547 1.358 . S
C546 C548 1.356 . S
C546 H600 0.930 . S
C547 N545 1.279 . S
C547 C546 1.358 . S
C547 H551 0.930 . S
C548 C546 1.356 . S
C548 C549 1.348 . S
C549 C544 1.353 . S
C549 C548 1.348 . S
C549 H601 0.929 . S
H550 C544 0.930 . S
H551 C547 0.930 . S
C552 N553 1.314 . S
C552 C554 1.353 . S
C552 H558 0.930 . S
N553 Li529 1.990 . S
N553 C552 1.314 . S
N553 C556 1.279 . S
C554 C552 1.353 . S
C554 C557 1.348 . S
C554 H602 0.929 . S
C555 C556 1.358 . S
C555 C557 1.356 . S
C555 H603 0.930 . S
C556 N553 1.279 . S
C556 C555 1.358 . S
C556 H559 0.930 . S
C557 C554 1.348 . S
C557 C555 1.356 . S
H558 C552 0.930 . S
H559 C556 0.930 . S
C560 C562 1.348 . S
C560 C563 1.356 . S
C560 O590 1.325 . S
N561 C564 1.314 . S
N561 C565 1.279 . S
C562 C560 1.348 . S
C562 C564 1.353 . S
C562 H604 0.929 . S
C563 C560 1.356 . S
C563 C565 1.358 . S
C563 H605 0.930 . S
C564 N561 1.314 . S
C564 C562 1.353 . S
C564 H606 0.930 . S
C565 N561 1.279 . S
C565 C563 1.358 . S
C565 H607 0.930 . S
C566 C567 1.348 . S
C566 C568 1.356 . S
C566 O591 1.325 . S
C567 C566 1.348 . S
C567 C569 1.353 . S
C567 H608 0.929 . S
C568 C566 1.356 . S
C568 C570 1.358 . S
C568 H609 0.930 . S
C569 C567 1.353 . S
C569 N571 1.314 . S
C569 H610 0.930 . S
C570 C568 1.358 . S
C570 N571 1.279 . S
C570 H611 0.930 . S
N571 C569 1.314 . S
N571 C570 1.279 . S
C572 C574 1.353 . S
C572 N575 1.314 . S
C572 H578 0.930 . S
C573 N575 1.279 . S
C573 C576 1.358 . S
C573 H579 0.930 . S
C574 C572 1.353 . S
C574 C577 1.348 . S
C574 H612 0.929 . S
N575 Li530 1.990 . S
N575 C572 1.314 . S
N575 C573 1.279 . S
C576 C573 1.358 . S
C576 C577 1.356 . S
C576 H613 0.930 . S
C577 C574 1.348 . S
C577 C576 1.356 . S
H578 C572 0.930 . S
H579 C573 0.930 . S
C580 N581 1.314 . S
C580 C582 1.353 . S
C580 H586 0.930 . S
N581 Li531 1.990 . S
N581 C580 1.314 . S
N581 C584 1.279 . S
C582 C580 1.353 . S
C582 C585 1.348 . S
C582 H614 0.929 . S
C583 C584 1.358 . S
C583 C585 1.356 . S
C583 H615 0.930 . S
C584 N581 1.279 . S
C584 C583 1.358 . S
C584 H587 0.930 . S
C585 C582 1.348 . S
C585 C583 1.356 . S
H586 C580 0.930 . S
H587 C584 0.930 . S
O588 Li528 1.956 . S
O588 Li529 1.970 . S
O588 Li530 1.961 . S
O588 C532 1.325 . S
O589 Li528 1.970 . S
O589 Li529 1.956 . S
O589 Li531 1.961 . S
O589 C538 1.325 . S
O590 Li528 1.961 . S
O590 Li530 1.956 . S
O590 Li531 1.970 . S
O590 C560 1.325 . S
O591 Li529 1.961 . S
O591 Li530 1.970 . S
O591 Li531 1.956 . S
O591 C566 1.325 . S
H592 C534 0.929 . S
H593 C535 0.930 . S
H594 C536 0.930 . S
H595 C537 0.930 . S
H596 C539 0.930 . S
H597 C541 0.929 . S
H598 C542 0.930 . S
H599 C543 0.930 . S
H600 C546 0.930 . S
H601 C549 0.929 . S
H602 C554 0.929 . S
H603 C555 0.930 . S
H604 C562 0.929 . S
H605 C563 0.930 . S
H606 C564 0.930 . S
H607 C565 0.930 . S
H608 C567 0.929 . S
H609 C568 0.930 . S
H610 C569 0.930 . S
H611 C570 0.930 . S
H612 C574 0.929 . S
H613 C576 0.930 . S
H614 C582 0.929 . S
H615 C583 0.930 . S
Li616 N633 1.990 . S
Li616 O676 1.956 . S
Li616 O677 1.970 . S
Li616 O678 1.961 . S
Li617 N641 1.990 . S
Li617 O676 1.970 . S
Li617 O677 1.956 . S
Li617 O679 1.961 . S
Li618 N663 1.990 . S
Li618 O676 1.961 . S
Li618 O678 1.956 . S
Li618 O679 1.970 . S
Li619 N669 1.990 . S
Li619 O677 1.961 . S
Li619 O678 1.970 . S
Li619 O679 1.956 . S
C620 C622 1.348 . S
C620 C623 1.356 . S
C620 O676 1.325 . S
N621 C624 1.314 . S
N621 C625 1.279 . S
C622 C620 1.348 . S
C622 C624 1.353 . S
C622 H680 0.929 . S
C623 C620 1.356 . S
C623 C625 1.358 . S
C623 H681 0.930 . S
C624 N621 1.314 . S
C624 C622 1.353 . S
C624 H682 0.930 . S
C625 N621 1.279 . S
C625 C623 1.358 . S
C625 H683 0.930 . S
C626 C629 1.348 . S
C626 C630 1.356 . S
C626 O677 1.325 . S
C627 N628 1.279 . S
C627 C630 1.358 . S
C627 H684 0.930 . S
N628 C627 1.279 . S
N628 C631 1.314 . S
C629 C626 1.348 . S
C629 C631 1.353 . S
C629 H685 0.929 . S
C630 C626 1.356 . S
C630 C627 1.358 . S
C630 H686 0.930 . S
C631 N628 1.314 . S
C631 C629 1.353 . S
C631 H687 0.930 . S
C632 N633 1.314 . S
C632 C637 1.353 . S
C632 H638 0.930 . S
N633 Li616 1.990 . S
N633 C632 1.314 . S
N633 C635 1.279 . S
C634 C635 1.358 . S
C634 C636 1.356 . S
C634 H688 0.930 . S
C635 N633 1.279 . S
C635 C634 1.358 . S
C635 H639 0.930 . S
C636 C634 1.356 . S
C636 C637 1.348 . S
C637 C632 1.353 . S
C637 C636 1.348 . S
C637 H689 0.929 . S
H638 C632 0.930 . S
H639 C635 0.930 . S
C640 N641 1.314 . S
C640 C642 1.353 . S
C640 H646 0.930 . S
N641 Li617 1.990 . S
N641 C640 1.314 . S
N641 C644 1.279 . S
C642 C640 1.353 . S
C642 C645 1.348 . S
C642 H690 0.929 . S
C643 C644 1.358 . S
C643 C645 1.356 . S
C643 H691 0.930 . S
C644 N641 1.279 . S
C644 C643 1.358 . S
C644 H647 0.930 . S
C645 C642 1.348 . S
C645 C643 1.356 . S
H646 C640 0.930 . S
H647 C644 0.930 . S
C648 C650 1.348 . S
C648 C651 1.356 . S
C648 O678 1.325 . S
N649 C652 1.314 . S
N649 C653 1.279 . S
C650 C648 1.348 . S
C650 C652 1.353 . S
C650 H692 0.929 . S
C651 C648 1.356 . S
C651 C653 1.358 . S
C651 H693 0.930 . S
C652 N649 1.314 . S
C652 C650 1.353 . S
C652 H694 0.930 . S
C653 N649 1.279 . S
C653 C651 1.358 . S
C653 H695 0.930 . S
C654 C655 1.348 . S
C654 C656 1.356 . S
C654 O679 1.325 . S
C655 C654 1.348 . S
C655 C657 1.353 . S
C655 H696 0.929 . S
C656 C654 1.356 . S
C656 C658 1.358 . S
C656 H697 0.930 . S
C657 C655 1.353 . S
C657 N659 1.314 . S
C657 H698 0.930 . S
C658 C656 1.358 . S
C658 N659 1.279 . S
C658 H699 0.930 . S
N659 C657 1.314 . S
N659 C658 1.279 . S
C660 C662 1.353 . S
C660 N663 1.314 . S
C660 H666 0.930 . S
C661 N663 1.279 . S
C661 C664 1.358 . S
C661 H667 0.930 . S
C662 C660 1.353 . S
C662 C665 1.348 . S
C662 H700 0.929 . S
N663 Li618 1.990 . S
N663 C660 1.314 . S
N663 C661 1.279 . S
C664 C661 1.358 . S
C664 C665 1.356 . S
C664 H701 0.930 . S
C665 C662 1.348 . S
C665 C664 1.356 . S
H666 C660 0.930 . S
H667 C661 0.930 . S
C668 N669 1.314 . S
C668 C670 1.353 . S
C668 H674 0.930 . S
N669 Li619 1.990 . S
N669 C668 1.314 . S
N669 C672 1.279 . S
C670 C668 1.353 . S
C670 C673 1.348 . S
C670 H702 0.929 . S
C671 C672 1.358 . S
C671 C673 1.356 . S
C671 H703 0.930 . S
C672 N669 1.279 . S
C672 C671 1.358 . S
C672 H675 0.930 . S
C673 C670 1.348 . S
C673 C671 1.356 . S
H674 C668 0.930 . S
H675 C672 0.930 . S
O676 Li616 1.956 . S
O676 Li617 1.970 . S
O676 Li618 1.961 . S
O676 C620 1.325 . S
O677 Li616 1.970 . S
O677 Li617 1.956 . S
O677 Li619 1.961 . S
O677 C626 1.325 . S
O678 Li616 1.961 . S
O678 Li618 1.956 . S
O678 Li619 1.970 . S
O678 C648 1.325 . S
O679 Li617 1.961 . S
O679 Li618 1.970 . S
O679 Li619 1.956 . S
O679 C654 1.325 . S
H680 C622 0.929 . S
H681 C623 0.930 . S
H682 C624 0.930 . S
H683 C625 0.930 . S
H684 C627 0.930 . S
H685 C629 0.929 . S
H686 C630 0.930 . S
H687 C631 0.930 . S
H688 C634 0.930 . S
H689 C637 0.929 . S
H690 C642 0.929 . S
H691 C643 0.930 . S
H692 C650 0.929 . S
H693 C651 0.930 . S
H694 C652 0.930 . S
H695 C653 0.930 . S
H696 C655 0.929 . S
H697 C656 0.930 . S
H698 C657 0.930 . S
H699 C658 0.930 . S
H700 C662 0.929 . S
H701 C664 0.930 . S
H702 C670 0.929 . S
H703 C671 0.930 . S
Li704 N721 1.990 . S
Li704 O764 1.956 . S
Li704 O765 1.970 1_554 S
Li704 O766 1.961 1_554 S
Li705 N729 1.990 . S
Li705 O764 1.970 . S
Li705 O765 1.956 1_554 S
Li705 O767 1.961 1_554 S
Li706 N751 1.990 . S
Li706 O764 1.961 . S
Li706 O766 1.956 1_554 S
Li706 O767 1.970 1_554 S
Li707 N757 1.990 . S
Li707 O765 1.961 . S
Li707 O766 1.970 . S
Li707 O767 1.956 . S
C708 C710 1.348 . S
C708 C711 1.356 . S
C708 O764 1.325 . S
N709 C712 1.314 . S
N709 C713 1.279 . S
C710 C708 1.348 . S
C710 C712 1.353 . S
C710 H768 0.929 . S
C711 C708 1.356 . S
C711 C713 1.358 . S
C711 H769 0.930 . S
C712 N709 1.314 . S
C712 C710 1.353 . S
C712 H770 0.930 . S
C713 N709 1.279 . S
C713 C711 1.358 . S
C713 H771 0.930 . S
C714 C717 1.348 . S
C714 C718 1.356 . S
C714 O765 1.325 . S
C715 N716 1.279 . S
C715 C718 1.358 . S
C715 H772 0.930 . S
N716 C715 1.279 . S
N716 C719 1.314 . S
C717 C714 1.348 . S
C717 C719 1.353 . S
C717 H773 0.929 1_556 S
C718 C714 1.356 . S
C718 C715 1.358 . S
C718 H774 0.930 . S
C719 N716 1.314 . S
C719 C717 1.353 . S
C719 H775 0.930 . S
C720 N721 1.314 1_556 S
C720 C725 1.353 . S
C720 H726 0.930 . S
N721 Li704 1.990 . S
N721 C720 1.314 1_554 S
N721 C723 1.279 . S
C722 C723 1.358 . S
C722 C724 1.356 . S
C722 H776 0.930 . S
C723 N721 1.279 . S
C723 C722 1.358 . S
C723 H727 0.930 . S
C724 C722 1.356 . S
C724 C725 1.348 1_554 S
C725 C720 1.353 . S
C725 C724 1.348 1_556 S
C725 H777 0.929 . S
H726 C720 0.930 . S
H727 C723 0.930 . S
C728 N729 1.314 . S
C728 C730 1.353 . S
C728 H734 0.930 . S
N729 Li705 1.990 . S
N729 C728 1.314 . S
N729 C732 1.279 . S
C730 C728 1.353 . S
C730 C733 1.348 . S
C730 H778 0.929 . S
C731 C732 1.358 . S
C731 C733 1.356 . S
C731 H779 0.930 . S
C732 N729 1.279 . S
C732 C731 1.358 . S
C732 H735 0.930 . S
C733 C730 1.348 . S
C733 C731 1.356 . S
H734 C728 0.930 . S
H735 C732 0.930 . S
C736 C738 1.348 . S
C736 C739 1.356 . S
C736 O766 1.325 . S
N737 C740 1.314 . S
N737 C741 1.279 . S
C738 C736 1.348 . S
C738 C740 1.353 . S
C738 H780 0.929 . S
C739 C736 1.356 . S
C739 C741 1.358 . S
C739 H781 0.930 . S
C740 N737 1.314 . S
C740 C738 1.353 . S
C740 H782 0.930 . S
C741 N737 1.279 . S
C741 C739 1.358 . S
C741 H783 0.930 . S
C742 C743 1.348 . S
C742 C744 1.356 . S
C742 O767 1.325 . S
C743 C742 1.348 . S
C743 C745 1.353 . S
C743 H784 0.929 . S
C744 C742 1.356 . S
C744 C746 1.358 . S
C744 H785 0.930 . S
C745 C743 1.353 . S
C745 N747 1.314 . S
C745 H786 0.930 . S
C746 C744 1.358 . S
C746 N747 1.279 . S
C746 H787 0.930 . S
N747 C745 1.314 . S
N747 C746 1.279 . S
C748 C750 1.353 . S
C748 N751 1.314 . S
C748 H754 0.930 . S
C749 N751 1.279 1_556 S
C749 C752 1.352 1_556 S
C749 H755 0.930 . S
C750 C748 1.353 . S
C750 C753 1.348 . S
C750 H788 0.929 . S
N751 Li706 1.990 . S
N751 C748 1.314 . S
N751 C749 1.279 1_554 S
C752 C749 1.352 1_554 S
C752 C753 1.395 . S
C752 H789 0.898 1_554 S
C753 C750 1.348 . S
C753 C752 1.395 . S
H754 C748 0.930 . S
H755 C749 0.930 . S
C756 N757 1.314 . S
C756 C758 1.353 . S
C756 H762 0.930 . S
N757 Li707 1.990 . S
N757 C756 1.314 . S
N757 C760 1.279 . S
C758 C756 1.353 . S
C758 C761 1.348 . S
C758 H790 0.929 . S
C759 C760 1.358 . S
C759 C761 1.356 . S
C759 H791 0.930 . S
C760 N757 1.279 . S
C760 C759 1.358 . S
C760 H763 0.930 . S
C761 C758 1.348 . S
C761 C759 1.356 . S
H762 C756 0.930 . S
H763 C760 0.930 . S
O764 Li704 1.956 . S
O764 Li705 1.970 . S
O764 Li706 1.961 . S
O764 C708 1.325 . S
O765 Li704 1.970 1_556 S
O765 Li705 1.956 1_556 S
O765 Li707 1.961 . S
O765 C714 1.325 . S
O766 Li704 1.961 1_556 S
O766 Li706 1.956 1_556 S
O766 Li707 1.970 . S
O766 C736 1.325 . S
O767 Li705 1.961 1_556 S
O767 Li706 1.970 1_556 S
O767 Li707 1.956 . S
O767 C742 1.325 . S
H768 C710 0.929 . S
H769 C711 0.930 . S
H770 C712 0.930 . S
H771 C713 0.930 . S
H772 C715 0.930 . S
H773 C717 0.929 1_554 S
H774 C718 0.930 . S
H775 C719 0.930 . S
H776 C722 0.930 . S
H777 C725 0.929 . S
H778 C730 0.929 . S
H779 C731 0.930 . S
H780 C738 0.929 . S
H781 C739 0.930 . S
H782 C740 0.930 . S
H783 C741 0.930 . S
H784 C743 0.929 . S
H785 C744 0.930 . S
H786 C745 0.930 . S
H787 C746 0.930 . S
H788 C750 0.929 . S
H789 C752 0.898 1_556 S
H790 C758 0.929 . S
H791 C759 0.930 . S
Li792 N809 1.990 . S
Li792 O852 1.956 . S
Li792 O853 1.970 . S
Li792 O854 1.961 . S
Li793 N817 1.990 . S
Li793 O852 1.970 . S
Li793 O853 1.956 . S
Li793 O855 1.961 . S
Li794 N839 1.990 . S
Li794 O852 1.961 . S
Li794 O854 1.956 . S
Li794 O855 1.970 . S
Li795 N845 1.990 . S
Li795 O853 1.961 . S
Li795 O854 1.970 . S
Li795 O855 1.956 . S
C796 C798 1.348 . S
C796 C799 1.356 . S
C796 O852 1.325 . S
N797 C800 1.314 . S
N797 C801 1.279 . S
C798 C796 1.348 . S
C798 C800 1.353 . S
C798 H856 0.929 . S
C799 C796 1.356 . S
C799 C801 1.358 . S
C799 H857 0.930 . S
C800 N797 1.314 . S
C800 C798 1.353 . S
C800 H858 0.930 . S
C801 N797 1.279 . S
C801 C799 1.358 . S
C801 H859 0.930 . S
C802 C805 1.348 . S
C802 C806 1.356 . S
C802 O853 1.325 . S
C803 N804 1.279 . S
C803 C806 1.358 . S
C803 H860 0.930 . S
N804 C803 1.279 . S
N804 C807 1.314 . S
C805 C802 1.348 . S
C805 C807 1.353 . S
C805 H861 0.929 . S
C806 C802 1.356 . S
C806 C803 1.358 . S
C806 H862 0.930 . S
C807 N804 1.314 . S
C807 C805 1.353 . S
C807 H863 0.930 . S
C808 N809 1.314 . S
C808 C813 1.353 . S
C808 H814 0.930 . S
N809 Li792 1.990 . S
N809 C808 1.314 . S
N809 C811 1.279 . S
C810 C811 1.358 . S
C810 C812 1.356 . S
C810 H864 0.930 . S
C811 N809 1.279 . S
C811 C810 1.358 . S
C811 H815 0.930 . S
C812 C810 1.356 . S
C812 C813 1.348 . S
C813 C808 1.353 . S
C813 C812 1.348 . S
C813 H865 0.929 . S
H814 C808 0.930 . S
H815 C811 0.930 . S
C816 N817 1.314 . S
C816 C818 1.353 . S
C816 H822 0.930 . S
N817 Li793 1.990 . S
N817 C816 1.314 . S
N817 C820 1.279 . S
C818 C816 1.353 . S
C818 C821 1.348 . S
C818 H866 0.929 . S
C819 C820 1.358 . S
C819 C821 1.356 . S
C819 H867 0.930 . S
C820 N817 1.279 . S
C820 C819 1.358 . S
C820 H823 0.930 . S
C821 C818 1.348 . S
C821 C819 1.356 . S
H822 C816 0.930 . S
H823 C820 0.930 . S
C824 C826 1.348 . S
C824 C827 1.356 . S
C824 O854 1.325 . S
N825 C828 1.314 . S
N825 C829 1.279 . S
C826 C824 1.348 . S
C826 C828 1.353 . S
C826 H868 0.929 . S
C827 C824 1.356 . S
C827 C829 1.358 . S
C827 H869 0.930 . S
C828 N825 1.314 . S
C828 C826 1.353 . S
C828 H870 0.930 . S
C829 N825 1.279 . S
C829 C827 1.358 . S
C829 H871 0.930 . S
C830 C831 1.348 . S
C830 C832 1.356 . S
C830 O855 1.325 . S
C831 C830 1.348 . S
C831 C833 1.353 . S
C831 H872 0.929 . S
C832 C830 1.356 . S
C832 C834 1.358 . S
C832 H873 0.930 . S
C833 C831 1.353 . S
C833 N835 1.314 . S
C833 H874 0.930 . S
C834 C832 1.358 . S
C834 N835 1.279 . S
C834 H875 0.930 . S
N835 C833 1.314 . S
N835 C834 1.279 . S
C836 C838 1.353 . S
C836 N839 1.314 . S
C836 H842 0.930 . S
C837 N839 1.279 . S
C837 C840 1.358 . S
C837 H843 0.930 . S
C838 C836 1.353 . S
C838 C841 1.348 . S
C838 H876 0.929 . S
N839 Li794 1.990 . S
N839 C836 1.314 . S
N839 C837 1.279 . S
C840 C837 1.358 . S
C840 C841 1.356 . S
C840 H877 0.930 . S
C841 C838 1.348 . S
C841 C840 1.356 . S
H842 C836 0.930 . S
H843 C837 0.930 . S
C844 N845 1.314 . S
C844 C846 1.353 . S
C844 H850 0.930 . S
N845 Li795 1.990 . S
N845 C844 1.314 . S
N845 C848 1.279 . S
C846 C844 1.353 . S
C846 C849 1.348 . S
C846 H878 0.929 . S
C847 C848 1.358 . S
C847 C849 1.356 . S
C847 H879 0.930 . S
C848 N845 1.279 . S
C848 C847 1.358 . S
C848 H851 0.930 . S
C849 C846 1.348 . S
C849 C847 1.356 . S
H850 C844 0.930 . S
H851 C848 0.930 . S
O852 Li792 1.956 . S
O852 Li793 1.970 . S
O852 Li794 1.961 . S
O852 C796 1.325 . S
O853 Li792 1.970 . S
O853 Li793 1.956 . S
O853 Li795 1.961 . S
O853 C802 1.325 . S
O854 Li792 1.961 . S
O854 Li794 1.956 . S
O854 Li795 1.970 . S
O854 C824 1.325 . S
O855 Li793 1.961 . S
O855 Li794 1.970 . S
O855 Li795 1.956 . S
O855 C830 1.325 . S
H856 C798 0.929 . S
H857 C799 0.930 . S
H858 C800 0.930 . S
H859 C801 0.930 . S
H860 C803 0.930 . S
H861 C805 0.929 . S
H862 C806 0.930 . S
H863 C807 0.930 . S
H864 C810 0.930 . S
H865 C813 0.929 . S
H866 C818 0.929 . S
H867 C819 0.930 . S
H868 C826 0.929 . S
H869 C827 0.930 . S
H870 C828 0.930 . S
H871 C829 0.930 . S
H872 C831 0.929 . S
H873 C832 0.930 . S
H874 C833 0.930 . S
H875 C834 0.930 . S
H876 C838 0.929 . S
H877 C840 0.930 . S
H878 C846 0.929 . S
H879 C847 0.930 . S
Li880 N897 1.990 . S
Li880 O940 1.956 . S
Li880 O941 1.970 . S
Li880 O942 1.961 . S
Li881 N905 1.990 . S
Li881 O940 1.970 . S
Li881 O941 1.956 . S
Li881 O943 1.961 . S
Li882 N927 1.990 . S
Li882 O940 1.961 . S
Li882 O942 1.956 . S
Li882 O943 1.970 . S
Li883 N933 1.990 . S
Li883 O941 1.961 . S
Li883 O942 1.970 . S
Li883 O943 1.956 . S
C884 C886 1.348 . S
C884 C887 1.356 . S
C884 O940 1.325 . S
N885 C888 1.314 . S
N885 C889 1.279 . S
C886 C884 1.348 . S
C886 C888 1.353 . S
C886 H944 0.929 . S
C887 C884 1.356 . S
C887 C889 1.358 . S
C887 H945 0.930 . S
C888 N885 1.314 . S
C888 C886 1.353 . S
C888 H946 0.930 . S
C889 N885 1.279 . S
C889 C887 1.358 . S
C889 H947 0.930 . S
C890 C893 1.348 . S
C890 C894 1.356 . S
C890 O941 1.325 . S
C891 N892 1.279 . S
C891 C894 1.358 . S
C891 H948 0.930 . S
N892 C891 1.279 . S
N892 C895 1.314 . S
C893 C890 1.348 . S
C893 C895 1.353 . S
C893 H949 0.929 . S
C894 C890 1.356 . S
C894 C891 1.358 . S
C894 H950 0.930 . S
C895 N892 1.314 . S
C895 C893 1.353 . S
C895 H951 0.930 . S
C896 N897 1.314 . S
C896 C901 1.353 . S
C896 H902 0.930 . S
N897 Li880 1.990 . S
N897 C896 1.314 . S
N897 C899 1.279 . S
C898 C899 1.358 . S
C898 C900 1.356 . S
C898 H952 0.930 . S
C899 N897 1.279 . S
C899 C898 1.358 . S
C899 H903 0.930 . S
C900 C898 1.356 . S
C900 C901 1.348 . S
C901 C896 1.353 . S
C901 C900 1.348 . S
C901 H953 0.929 . S
H902 C896 0.930 . S
H903 C899 0.930 . S
C904 N905 1.314 . S
C904 C906 1.353 . S
C904 H910 0.930 . S
N905 Li881 1.990 . S
N905 C904 1.314 . S
N905 C908 1.279 . S
C906 C904 1.353 . S
C906 C909 1.348 . S
C906 H954 0.929 . S
C907 C908 1.358 . S
C907 C909 1.356 . S
C907 H955 0.930 . S
C908 N905 1.279 . S
C908 C907 1.358 . S
C908 H911 0.930 . S
C909 C906 1.348 . S
C909 C907 1.356 . S
H910 C904 0.930 . S
H911 C908 0.930 . S
C912 C914 1.348 . S
C912 C915 1.356 . S
C912 O942 1.325 . S
N913 C916 1.314 . S
N913 C917 1.279 . S
C914 C912 1.348 . S
C914 C916 1.353 . S
C914 H956 0.929 . S
C915 C912 1.356 . S
C915 C917 1.358 . S
C915 H957 0.930 . S
C916 N913 1.314 . S
C916 C914 1.353 . S
C916 H958 0.930 . S
C917 N913 1.279 . S
C917 C915 1.358 . S
C917 H959 0.930 . S
C918 C919 1.348 . S
C918 C920 1.356 . S
C918 O943 1.325 . S
C919 C918 1.348 . S
C919 C921 1.353 . S
C919 H960 0.929 . S
C920 C918 1.356 . S
C920 C922 1.358 . S
C920 H961 0.930 . S
C921 C919 1.353 . S
C921 N923 1.314 . S
C921 H962 0.930 . S
C922 C920 1.358 . S
C922 N923 1.279 . S
C922 H963 0.930 . S
N923 C921 1.314 . S
N923 C922 1.279 . S
C924 C926 1.353 . S
C924 N927 1.314 . S
C924 H930 0.930 . S
C925 N927 1.279 . S
C925 C928 1.358 . S
C925 H931 0.930 . S
C926 C924 1.353 . S
C926 C929 1.348 . S
C926 H964 0.929 . S
N927 Li882 1.990 . S
N927 C924 1.314 . S
N927 C925 1.279 . S
C928 C925 1.358 . S
C928 C929 1.356 . S
C928 H965 0.930 . S
C929 C926 1.348 . S
C929 C928 1.356 . S
H930 C924 0.930 . S
H931 C925 0.930 . S
C932 N933 1.314 . S
C932 C934 1.353 . S
C932 H938 0.930 . S
N933 Li883 1.990 . S
N933 C932 1.314 . S
N933 C936 1.279 . S
C934 C932 1.353 . S
C934 C937 1.348 . S
C934 H966 0.929 . S
C935 C936 1.358 . S
C935 C937 1.356 . S
C935 H967 0.930 . S
C936 N933 1.279 . S
C936 C935 1.358 . S
C936 H939 0.930 . S
C937 C934 1.348 . S
C937 C935 1.356 . S
H938 C932 0.930 . S
H939 C936 0.930 . S
O940 Li880 1.956 . S
O940 Li881 1.970 . S
O940 Li882 1.961 . S
O940 C884 1.325 . S
O941 Li880 1.970 . S
O941 Li881 1.956 . S
O941 Li883 1.961 . S
O941 C890 1.325 . S
O942 Li880 1.961 . S
O942 Li882 1.956 . S
O942 Li883 1.970 . S
O942 C912 1.325 . S
O943 Li881 1.961 . S
O943 Li882 1.970 . S
O943 Li883 1.956 . S
O943 C918 1.325 . S
H944 C886 0.929 . S
H945 C887 0.930 . S
H946 C888 0.930 . S
H947 C889 0.930 . S
H948 C891 0.930 . S
H949 C893 0.929 . S
H950 C894 0.930 . S
H951 C895 0.930 . S
H952 C898 0.930 . S
H953 C901 0.929 . S
H954 C906 0.929 . S
H955 C907 0.930 . S
H956 C914 0.929 . S
H957 C915 0.930 . S
H958 C916 0.930 . S
H959 C917 0.930 . S
H960 C919 0.929 . S
H961 C920 0.930 . S
H962 C921 0.930 . S
H963 C922 0.930 . S
H964 C926 0.929 . S
H965 C928 0.930 . S
H966 C934 0.929 . S
H967 C935 0.930 . S
Li968 N985 1.990 . S
Li968 O1028 1.956 . S
Li968 O1029 1.970 1_554 S
Li968 O1030 1.961 1_554 S
Li969 N993 1.990 . S
Li969 O1028 1.970 . S
Li969 O1029 1.956 1_554 S
Li969 O1031 1.961 1_554 S
Li970 N1015 1.990 . S
Li970 O1028 1.961 . S
Li970 O1030 1.956 1_554 S
Li970 O1031 1.970 1_554 S
Li971 N1021 1.990 . S
Li971 O1029 1.961 . S
Li971 O1030 1.970 . S
Li971 O1031 1.956 . S
C972 C974 1.348 . S
C972 C975 1.356 . S
C972 O1028 1.325 . S
N973 C976 1.314 . S
N973 C977 1.279 . S
C974 C972 1.348 . S
C974 C976 1.353 . S
C974 H1032 0.929 . S
C975 C972 1.356 . S
C975 C977 1.358 . S
C975 H1033 0.930 . S
C976 N973 1.314 . S
C976 C974 1.353 . S
C976 H1034 0.930 . S
C977 N973 1.279 . S
C977 C975 1.358 . S
C977 H1035 0.930 . S
C978 C981 1.348 . S
C978 C982 1.356 . S
C978 O1029 1.325 . S
C979 N980 1.279 . S
C979 C982 1.358 . S
C979 H1036 0.930 . S
N980 C979 1.279 . S
N980 C983 1.314 . S
C981 C978 1.348 . S
C981 C983 1.353 . S
C981 H1037 0.929 1_556 S
C982 C978 1.356 . S
C982 C979 1.358 . S
C982 H1038 0.930 . S
C983 N980 1.314 . S
C983 C981 1.353 . S
C983 H1039 0.930 . S
C984 N985 1.314 1_556 S
C984 C989 1.353 . S
C984 H990 0.930 . S
N985 Li968 1.990 . S
N985 C984 1.314 1_554 S
N985 C987 1.279 . S
C986 C987 1.358 . S
C986 C988 1.356 . S
C986 H1040 0.930 . S
C987 N985 1.279 . S
C987 C986 1.358 . S
C987 H991 0.930 . S
C988 C986 1.356 . S
C988 C989 1.348 1_554 S
C989 C984 1.353 . S
C989 C988 1.348 1_556 S
C989 H1041 0.929 . S
H990 C984 0.930 . S
H991 C987 0.930 . S
C992 N993 1.314 . S
C992 C994 1.353 . S
C992 H998 0.930 . S
N993 Li969 1.990 . S
N993 C992 1.314 . S
N993 C996 1.279 . S
C994 C992 1.353 . S
C994 C997 1.348 . S
C994 H1042 0.929 . S
C995 C996 1.358 . S
C995 C997 1.356 . S
C995 H1043 0.930 . S
C996 N993 1.279 . S
C996 C995 1.358 . S
C996 H999 0.930 . S
C997 C994 1.348 . S
C997 C995 1.356 . S
H998 C992 0.930 . S
H999 C996 0.930 . S
C1000 C1002 1.348 . S
C1000 C1003 1.356 . S
C1000 O1030 1.325 . S
N1001 C1004 1.314 . S
N1001 C1005 1.279 . S
C1002 C1000 1.348 . S
C1002 C1004 1.353 . S
C1002 H1044 0.929 . S
C1003 C1000 1.356 . S
C1003 C1005 1.358 . S
C1003 H1045 0.930 . S
C1004 N1001 1.314 . S
C1004 C1002 1.353 . S
C1004 H1046 0.930 . S
C1005 N1001 1.279 . S
C1005 C1003 1.358 . S
C1005 H1047 0.930 . S
C1006 C1007 1.348 . S
C1006 C1008 1.356 . S
C1006 O1031 1.325 . S
C1007 C1006 1.348 . S
C1007 C1009 1.353 . S
C1007 H1048 0.929 . S
C1008 C1006 1.356 . S
C1008 C1010 1.358 . S
C1008 H1049 0.930 . S
C1009 C1007 1.353 . S
C1009 N1011 1.314 . S
C1009 H1050 0.930 . S
C1010 C1008 1.358 . S
C1010 N1011 1.279 . S
C1010 H1051 0.930 . S
N1011 C1009 1.314 . S
N1011 C1010 1.279 . S
C1012 C1014 1.353 . S
C1012 N1015 1.314 . S
C1012 H1018 0.930 . S
C1013 N1015 1.279 1_556 S
C1013 C1016 1.352 1_556 S
C1013 H1019 0.930 . S
C1014 C1012 1.353 . S
C1014 C1017 1.348 . S
C1014 H1052 0.929 . S
N1015 Li970 1.990 . S
N1015 C1012 1.314 . S
N1015 C1013 1.279 1_554 S
C1016 C1013 1.352 1_554 S
C1016 C1017 1.395 . S
C1016 H1053 0.898 1_554 S
C1017 C1014 1.348 . S
C1017 C1016 1.395 . S
H1018 C1012 0.930 . S
H1019 C1013 0.930 . S
C1020 N1021 1.314 . S
C1020 C1022 1.353 . S
C1020 H1026 0.930 . S
N1021 Li971 1.990 . S
N1021 C1020 1.314 . S
N1021 C1024 1.279 . S
C1022 C1020 1.353 . S
C1022 C1025 1.348 . S
C1022 H1054 0.929 . S
C1023 C1024 1.358 . S
C1023 C1025 1.356 . S
C1023 H1055 0.930 . S
C1024 N1021 1.279 . S
C1024 C1023 1.358 . S
C1024 H1027 0.930 . S
C1025 C1022 1.348 . S
C1025 C1023 1.356 . S
H1026 C1020 0.930 . S
H1027 C1024 0.930 . S
O1028 Li968 1.956 . S
O1028 Li969 1.970 . S
O1028 Li970 1.961 . S
O1028 C972 1.325 . S
O1029 Li968 1.970 1_556 S
O1029 Li969 1.956 1_556 S
O1029 Li971 1.961 . S
O1029 C978 1.325 . S
O1030 Li968 1.961 1_556 S
O1030 Li970 1.956 1_556 S
O1030 Li971 1.970 . S
O1030 C1000 1.325 . S
O1031 Li969 1.961 1_556 S
O1031 Li970 1.970 1_556 S
O1031 Li971 1.956 . S
O1031 C1006 1.325 . S
H1032 C974 0.929 . S
H1033 C975 0.930 . S
H1034 C976 0.930 . S
H1035 C977 0.930 . S
H1036 C979 0.930 . S
H1037 C981 0.929 1_554 S
H1038 C982 0.930 . S
H1039 C983 0.930 . S
H1040 C986 0.930 . S
H1041 C989 0.929 . S
H1042 C994 0.929 . S
H1043 C995 0.930 . S
H1044 C1002 0.929 . S
H1045 C1003 0.930 . S
H1046 C1004 0.930 . S
H1047 C1005 0.930 . S
H1048 C1007 0.929 . S
H1049 C1008 0.930 . S
H1050 C1009 0.930 . S
H1051 C1010 0.930 . S
H1052 C1014 0.929 . S
H1053 C1016 0.898 1_556 S
H1054 C1022 0.929 . S
H1055 C1023 0.930 . S
H1056 C1074 0.951 . S
H1057 C1076 0.951 . S
H1058 C1078 0.950 . S
H1059 C1079 0.950 . S
H1060 C1081 0.950 . S
H1061 C1084 0.950 . S
H1062 C1085 0.950 . S
H1063 C1087 0.950 . S
H1064 C1088 0.950 . S
H1065 C1089 0.951 . S
H1066 C1091 0.951 . S
H1067 C1093 0.950 . S
H1068 C1094 0.950 . S
H1069 C1096 0.950 . S
H1070 C1099 0.950 . S
H1071 C1100 0.950 . S
H1072 C1102 0.950 . S
H1073 C1103 0.950 . S
C1074 H1056 0.951 . S
C1074 C1075 1.366 . S
C1074 C1076 1.388 . S
C1075 C1074 1.366 . S
C1075 C1079 1.385 . S
C1076 H1057 0.951 . S
C1076 C1074 1.388 . S
C1076 C1077 1.366 . S
C1077 C1076 1.366 . S
C1077 C1078 1.414 . S
C1077 C1080 1.499 . S
C1078 H1058 0.950 . S
C1078 C1077 1.414 . S
C1078 C1079 1.374 . S
C1079 H1059 0.950 . S
C1079 C1075 1.385 . S
C1079 C1078 1.374 . S
C1080 C1077 1.499 . S
C1080 C1081 1.373 . S
C1080 C1082 1.389 . S
C1081 H1060 0.950 . S
C1081 C1080 1.373 . S
C1081 C1097 1.377 . S
C1082 C1080 1.389 . S
C1082 C1083 1.524 . S
C1082 C1096 1.377 . S
C1083 C1082 1.524 . S
C1083 C1084 1.397 . S
C1083 C1088 1.363 . S
C1084 H1061 0.950 . S
C1084 C1083 1.397 . S
C1084 C1085 1.334 . S
C1085 H1062 0.950 . S
C1085 C1084 1.334 . S
C1085 C1086 1.287 . S
C1086 C1085 1.287 . S
C1086 C1087 1.524 . S
C1086 H1105 0.913 . S
C1087 H1063 0.950 . S
C1087 C1086 1.524 . S
C1087 C1088 1.415 . S
C1088 H1064 0.950 . S
C1088 C1083 1.363 . S
C1088 C1087 1.415 . S
C1089 H1065 0.951 . S
C1089 C1090 1.366 . S
C1089 C1091 1.388 . S
C1090 C1089 1.366 . S
C1090 C1094 1.385 . S
C1091 H1066 0.951 . S
C1091 C1089 1.388 . S
C1091 C1092 1.366 . S
C1092 C1091 1.366 . S
C1092 C1093 1.414 . S
C1092 C1095 1.499 . S
C1093 H1067 0.950 . S
C1093 C1092 1.414 . S
C1093 C1094 1.374 . S
C1094 H1068 0.950 . S
C1094 C1090 1.385 . S
C1094 C1093 1.374 . S
C1095 C1092 1.499 . S
C1095 C1096 1.373 . S
C1095 C1097 1.389 . S
C1096 H1069 0.950 . S
C1096 C1082 1.377 . S
C1096 C1095 1.373 . S
C1097 C1081 1.377 . S
C1097 C1095 1.389 . S
C1097 C1098 1.524 . S
C1098 C1097 1.524 . S
C1098 C1099 1.397 . S
C1098 C1103 1.363 . S
C1099 H1070 0.950 . S
C1099 C1098 1.397 . S
C1099 C1100 1.334 . S
C1100 H1071 0.950 . S
C1100 C1099 1.334 . S
C1100 C1101 1.287 . S
C1101 C1100 1.287 . S
C1101 C1102 1.524 . S
C1101 H1104 0.999 . S
C1102 H1072 0.950 . S
C1102 C1101 1.524 . S
C1102 C1103 1.415 . S
C1103 H1073 0.950 . S
C1103 C1098 1.363 . S
C1103 C1102 1.415 . S
H1104 C1101 0.999 . S
H1105 C1086 0.913 . S
H1106 C1124 0.951 . S
H1107 C1126 0.951 . S
H1108 C1128 0.950 . S
H1109 C1129 0.950 . S
H1110 C1131 0.950 . S
H1111 C1134 0.950 . S
H1112 C1135 0.950 . S
H1113 C1137 0.950 . S
H1114 C1138 0.950 . S
H1115 C1139 0.951 . S
H1116 C1141 0.951 . S
H1117 C1143 0.950 . S
H1118 C1144 0.950 . S
H1119 C1146 0.950 . S
H1120 C1149 0.950 . S
H1121 C1150 0.950 . S
H1122 C1152 0.950 . S
H1123 C1153 0.950 . S
C1124 H1106 0.951 . S
C1124 C1125 1.366 . S
C1124 C1126 1.388 . S
C1125 C1124 1.366 . S
C1125 C1129 1.385 . S
C1126 H1107 0.951 . S
C1126 C1124 1.388 . S
C1126 C1127 1.366 . S
C1127 C1126 1.366 . S
C1127 C1128 1.414 . S
C1127 C1130 1.499 . S
C1128 H1108 0.950 . S
C1128 C1127 1.414 . S
C1128 C1129 1.374 . S
C1129 H1109 0.950 . S
C1129 C1125 1.385 . S
C1129 C1128 1.374 . S
C1130 C1127 1.499 . S
C1130 C1131 1.373 . S
C1130 C1132 1.389 . S
C1131 H1110 0.950 . S
C1131 C1130 1.373 . S
C1131 C1147 1.377 . S
C1132 C1130 1.389 . S
C1132 C1133 1.524 . S
C1132 C1146 1.377 . S
C1133 C1132 1.524 . S
C1133 C1134 1.397 . S
C1133 C1138 1.363 . S
C1134 H1111 0.950 . S
C1134 C1133 1.397 . S
C1134 C1135 1.334 . S
C1135 H1112 0.950 . S
C1135 C1134 1.334 . S
C1135 C1136 1.287 . S
C1136 C1135 1.287 . S
C1136 C1137 1.524 . S
C1136 H1155 0.913 . S
C1137 H1113 0.950 . S
C1137 C1136 1.524 . S
C1137 C1138 1.415 . S
C1138 H1114 0.950 . S
C1138 C1133 1.363 . S
C1138 C1137 1.415 . S
C1139 H1115 0.951 . S
C1139 C1140 1.366 . S
C1139 C1141 1.388 . S
C1140 C1139 1.366 . S
C1140 C1144 1.385 . S
C1141 H1116 0.951 . S
C1141 C1139 1.388 . S
C1141 C1142 1.366 . S
C1142 C1141 1.366 . S
C1142 C1143 1.414 . S
C1142 C1145 1.499 . S
C1143 H1117 0.950 . S
C1143 C1142 1.414 . S
C1143 C1144 1.374 . S
C1144 H1118 0.950 . S
C1144 C1140 1.385 . S
C1144 C1143 1.374 . S
C1145 C1142 1.499 . S
C1145 C1146 1.373 . S
C1145 C1147 1.389 . S
C1146 H1119 0.950 . S
C1146 C1132 1.377 . S
C1146 C1145 1.373 . S
C1147 C1131 1.377 . S
C1147 C1145 1.389 . S
C1147 C1148 1.524 . S
C1148 C1147 1.524 . S
C1148 C1149 1.397 . S
C1148 C1153 1.363 . S
C1149 H1120 0.950 . S
C1149 C1148 1.397 . S
C1149 C1150 1.334 . S
C1150 H1121 0.950 . S
C1150 C1149 1.334 . S
C1150 C1151 1.287 . S
C1151 C1150 1.287 . S
C1151 C1152 1.524 . S
C1151 H1154 0.999 . S
C1152 H1122 0.950 . S
C1152 C1151 1.524 . S
C1152 C1153 1.415 . S
C1153 H1123 0.950 . S
C1153 C1148 1.363 . S
C1153 C1152 1.415 . S
H1154 C1151 0.999 . S
H1155 C1136 0.913 . S
H1156 C1174 0.951 . S
H1157 C1176 0.951 . S
H1158 C1178 0.950 . S
H1159 C1179 0.950 . S
H1160 C1181 0.950 . S
H1161 C1184 0.950 . S
H1162 C1185 0.950 . S
H1163 C1187 0.950 . S
H1164 C1188 0.950 . S
H1165 C1189 0.951 . S
H1166 C1191 0.951 . S
H1167 C1193 0.950 . S
H1168 C1194 0.950 . S
H1169 C1196 0.950 . S
H1170 C1199 0.950 . S
H1171 C1200 0.950 . S
H1172 C1202 0.950 . S
H1173 C1203 0.950 . S
C1174 H1156 0.951 . S
C1174 C1175 1.366 . S
C1174 C1176 1.388 . S
C1175 C1174 1.366 . S
C1175 C1179 1.385 1_556 S
C1176 H1157 0.951 . S
C1176 C1174 1.388 . S
C1176 C1177 1.366 . S
C1177 C1176 1.366 . S
C1177 C1178 1.414 1_556 S
C1177 C1180 1.499 . S
C1178 H1158 0.950 . S
C1178 C1177 1.414 1_554 S
C1178 C1179 1.374 . S
C1179 H1159 0.950 . S
C1179 C1175 1.385 1_554 S
C1179 C1178 1.374 . S
C1180 C1177 1.499 . S
C1180 C1181 1.373 1_556 S
C1180 C1182 1.389 . S
C1181 H1160 0.950 . S
C1181 C1180 1.373 1_554 S
C1181 C1197 1.377 . S
C1182 C1180 1.389 . S
C1182 C1183 1.524 . S
C1182 C1196 1.377 . S
C1183 C1182 1.524 . S
C1183 C1184 1.397 . S
C1183 C1188 1.363 . S
C1184 H1161 0.950 . S
C1184 C1183 1.397 . S
C1184 C1185 1.334 . S
C1185 H1162 0.950 . S
C1185 C1184 1.334 . S
C1185 C1186 1.287 . S
C1186 C1185 1.287 . S
C1186 C1187 1.524 . S
C1186 H1205 0.913 . S
C1187 H1163 0.950 . S
C1187 C1186 1.524 . S
C1187 C1188 1.415 . S
C1188 H1164 0.950 . S
C1188 C1183 1.363 . S
C1188 C1187 1.415 . S
C1189 H1165 0.951 . S
C1189 C1190 1.366 . S
C1189 C1191 1.388 . S
C1190 C1189 1.366 . S
C1190 C1194 1.385 1_554 S
C1191 H1166 0.951 . S
C1191 C1189 1.388 . S
C1191 C1192 1.366 . S
C1192 C1191 1.366 . S
C1192 C1193 1.414 1_554 S
C1192 C1195 1.499 . S
C1193 H1167 0.950 . S
C1193 C1192 1.414 1_556 S
C1193 C1194 1.374 . S
C1194 H1168 0.950 . S
C1194 C1190 1.385 1_556 S
C1194 C1193 1.374 . S
C1195 C1192 1.499 . S
C1195 C1196 1.373 1_554 S
C1195 C1197 1.389 . S
C1196 H1169 0.950 . S
C1196 C1182 1.377 . S
C1196 C1195 1.373 1_556 S
C1197 C1181 1.377 . S
C1197 C1195 1.389 . S
C1197 C1198 1.524 . S
C1198 C1197 1.524 . S
C1198 C1199 1.397 . S
C1198 C1203 1.363 . S
C1199 H1170 0.950 . S
C1199 C1198 1.397 . S
C1199 C1200 1.334 . S
C1200 H1171 0.950 . S
C1200 C1199 1.334 . S
C1200 C1201 1.287 . S
C1201 C1200 1.287 . S
C1201 C1202 1.524 . S
C1201 H1204 0.999 . S
C1202 H1172 0.950 . S
C1202 C1201 1.524 . S
C1202 C1203 1.415 . S
C1203 H1173 0.950 . S
C1203 C1198 1.363 . S
C1203 C1202 1.415 . S
H1204 C1201 0.999 . S
H1205 C1186 0.913 . S
H1206 C1224 0.951 . S
H1207 C1226 0.951 . S
H1208 C1228 0.950 . S
H1209 C1229 0.950 . S
H1210 C1231 0.950 . S
H1211 C1234 0.950 . S
H1212 C1235 0.950 . S
H1213 C1237 0.950 . S
H1214 C1238 0.950 . S
H1215 C1239 0.951 . S
H1216 C1241 0.951 . S
H1217 C1243 0.950 . S
H1218 C1244 0.950 . S
H1219 C1246 0.950 . S
H1220 C1249 0.950 . S
H1221 C1250 0.950 . S
H1222 C1252 0.950 . S
H1223 C1253 0.950 . S
C1224 H1206 0.951 . S
C1224 C1225 1.366 . S
C1224 C1226 1.388 . S
C1225 C1224 1.366 . S
C1225 C1229 1.385 . S
C1226 H1207 0.951 . S
C1226 C1224 1.388 . S
C1226 C1227 1.366 . S
C1227 C1226 1.366 . S
C1227 C1228 1.414 . S
C1227 C1230 1.499 . S
C1228 H1208 0.950 . S
C1228 C1227 1.414 . S
C1228 C1229 1.374 . S
C1229 H1209 0.950 . S
C1229 C1225 1.385 . S
C1229 C1228 1.374 . S
C1230 C1227 1.499 . S
C1230 C1231 1.373 . S
C1230 C1232 1.389 . S
C1231 H1210 0.950 . S
C1231 C1230 1.373 . S
C1231 C1247 1.377 . S
C1232 C1230 1.389 . S
C1232 C1233 1.524 . S
C1232 C1246 1.377 . S
C1233 C1232 1.524 . S
C1233 C1234 1.397 . S
C1233 C1238 1.363 . S
C1234 H1211 0.950 . S
C1234 C1233 1.397 . S
C1234 C1235 1.334 . S
C1235 H1212 0.950 . S
C1235 C1234 1.334 . S
C1235 C1236 1.287 . S
C1236 C1235 1.287 . S
C1236 C1237 1.524 . S
C1236 H1255 0.913 . S
C1237 H1213 0.950 . S
C1237 C1236 1.524 . S
C1237 C1238 1.415 . S
C1238 H1214 0.950 . S
C1238 C1233 1.363 . S
C1238 C1237 1.415 . S
C1239 H1215 0.951 . S
C1239 C1240 1.366 . S
C1239 C1241 1.388 . S
C1240 C1239 1.366 . S
C1240 C1244 1.385 . S
C1241 H1216 0.951 . S
C1241 C1239 1.388 . S
C1241 C1242 1.366 . S
C1242 C1241 1.366 . S
C1242 C1243 1.414 . S
C1242 C1245 1.499 . S
C1243 H1217 0.950 . S
C1243 C1242 1.414 . S
C1243 C1244 1.374 . S
C1244 H1218 0.950 . S
C1244 C1240 1.385 . S
C1244 C1243 1.374 . S
C1245 C1242 1.499 . S
C1245 C1246 1.373 . S
C1245 C1247 1.389 . S
C1246 H1219 0.950 . S
C1246 C1232 1.377 . S
C1246 C1245 1.373 . S
C1247 C1231 1.377 . S
C1247 C1245 1.389 . S
C1247 C1248 1.524 . S
C1248 C1247 1.524 . S
C1248 C1249 1.397 . S
C1248 C1253 1.363 . S
C1249 H1220 0.950 . S
C1249 C1248 1.397 . S
C1249 C1250 1.334 . S
C1250 H1221 0.950 . S
C1250 C1249 1.334 . S
C1250 C1251 1.287 . S
C1251 C1250 1.287 . S
C1251 C1252 1.524 . S
C1251 H1254 0.999 . S
C1252 H1222 0.950 . S
C1252 C1251 1.524 . S
C1252 C1253 1.415 . S
C1253 H1223 0.950 . S
C1253 C1248 1.363 . S
C1253 C1252 1.415 . S
H1254 C1251 0.999 . S
H1255 C1236 0.913 . S
H1256 C1274 0.951 . S
H1257 C1276 0.951 . S
H1258 C1278 0.950 . S
H1259 C1279 0.950 . S
H1260 C1281 0.950 . S
H1261 C1284 0.950 . S
H1262 C1285 0.950 . S
H1263 C1287 0.950 . S
H1264 C1288 0.950 . S
H1265 C1289 0.951 . S
H1266 C1291 0.951 . S
H1267 C1293 0.950 . S
H1268 C1294 0.950 . S
H1269 C1296 0.950 . S
H1270 C1299 0.950 . S
H1271 C1300 0.950 . S
H1272 C1302 0.950 . S
H1273 C1303 0.950 . S
C1274 H1256 0.951 . S
C1274 C1275 1.366 . S
C1274 C1276 1.388 . S
C1275 C1274 1.366 . S
C1275 C1279 1.385 . S
C1276 H1257 0.951 . S
C1276 C1274 1.388 . S
C1276 C1277 1.366 . S
C1277 C1276 1.366 . S
C1277 C1278 1.414 . S
C1277 C1280 1.499 . S
C1278 H1258 0.950 . S
C1278 C1277 1.414 . S
C1278 C1279 1.374 . S
C1279 H1259 0.950 . S
C1279 C1275 1.385 . S
C1279 C1278 1.374 . S
C1280 C1277 1.499 . S
C1280 C1281 1.373 . S
C1280 C1282 1.389 . S
C1281 H1260 0.950 . S
C1281 C1280 1.373 . S
C1281 C1297 1.377 . S
C1282 C1280 1.389 . S
C1282 C1283 1.524 . S
C1282 C1296 1.377 . S
C1283 C1282 1.524 . S
C1283 C1284 1.397 . S
C1283 C1288 1.363 . S
C1284 H1261 0.950 . S
C1284 C1283 1.397 . S
C1284 C1285 1.334 . S
C1285 H1262 0.950 . S
C1285 C1284 1.334 . S
C1285 C1286 1.287 . S
C1286 C1285 1.287 . S
C1286 C1287 1.524 . S
C1286 H1305 0.913 . S
C1287 H1263 0.950 . S
C1287 C1286 1.524 . S
C1287 C1288 1.415 . S
C1288 H1264 0.950 . S
C1288 C1283 1.363 . S
C1288 C1287 1.415 . S
C1289 H1265 0.951 . S
C1289 C1290 1.366 . S
C1289 C1291 1.388 . S
C1290 C1289 1.366 . S
C1290 C1294 1.385 . S
C1291 H1266 0.951 . S
C1291 C1289 1.388 . S
C1291 C1292 1.366 . S
C1292 C1291 1.366 . S
C1292 C1293 1.414 . S
C1292 C1295 1.499 . S
C1293 H1267 0.950 . S
C1293 C1292 1.414 . S
C1293 C1294 1.374 . S
C1294 H1268 0.950 . S
C1294 C1290 1.385 . S
C1294 C1293 1.374 . S
C1295 C1292 1.499 . S
C1295 C1296 1.373 . S
C1295 C1297 1.389 . S
C1296 H1269 0.950 . S
C1296 C1282 1.377 . S
C1296 C1295 1.373 . S
C1297 C1281 1.377 . S
C1297 C1295 1.389 . S
C1297 C1298 1.524 . S
C1298 C1297 1.524 . S
C1298 C1299 1.397 . S
C1298 C1303 1.363 . S
C1299 H1270 0.950 . S
C1299 C1298 1.397 . S
C1299 C1300 1.334 . S
C1300 H1271 0.950 . S
C1300 C1299 1.334 . S
C1300 C1301 1.287 . S
C1301 C1300 1.287 . S
C1301 C1302 1.524 . S
C1301 H1304 0.999 . S
C1302 H1272 0.950 . S
C1302 C1301 1.524 . S
C1302 C1303 1.415 . S
C1303 H1273 0.950 . S
C1303 C1298 1.363 . S
C1303 C1302 1.415 . S
H1304 C1301 0.999 . S
H1305 C1286 0.913 . S
H1306 C1324 0.979 . S
H1307 C1326 0.951 . S
H1308 C1328 0.950 . S
H1309 C1329 0.950 . S
H1310 C1331 0.950 . S
H1311 C1334 0.950 . S
H1312 C1335 0.950 . S
H1313 C1337 0.950 . S
H1314 C1338 0.950 . S
H1315 C1339 0.988 . S
H1316 C1341 0.951 . S
H1317 C1343 0.950 . S
H1318 C1344 0.950 . S
H1319 C1346 0.950 . S
H1320 C1349 0.950 . S
H1321 C1350 0.950 . S
H1322 C1352 0.950 . S
H1323 C1353 0.950 . S
C1324 H1306 0.979 . S
C1324 C1325 1.330 1_556 S
C1324 C1326 1.397 . S
C1325 C1324 1.330 1_554 S
C1325 C1329 1.385 . S
C1326 H1307 0.951 . S
C1326 C1324 1.397 . S
C1326 C1327 1.366 1_556 S
C1327 C1326 1.366 1_554 S
C1327 C1328 1.414 . S
C1327 C1330 1.499 . S
C1328 H1308 0.950 . S
C1328 C1327 1.414 . S
C1328 C1329 1.374 . S
C1329 H1309 0.950 . S
C1329 C1325 1.385 . S
C1329 C1328 1.374 . S
C1330 C1327 1.499 . S
C1330 C1331 1.373 . S
C1330 C1332 1.389 1_554 S
C1331 H1310 0.950 . S
C1331 C1330 1.373 . S
C1331 C1347 1.377 . S
C1332 C1330 1.389 1_556 S
C1332 C1333 1.524 . S
C1332 C1346 1.377 . S
C1333 C1332 1.524 . S
C1333 C1334 1.397 . S
C1333 C1338 1.363 . S
C1334 H1311 0.950 . S
C1334 C1333 1.397 . S
C1334 C1335 1.334 . S
C1335 H1312 0.950 . S
C1335 C1334 1.334 . S
C1335 C1336 1.287 . S
C1336 C1335 1.287 . S
C1336 C1337 1.524 . S
C1336 H1355 0.913 . S
C1337 H1313 0.950 . S
C1337 C1336 1.524 . S
C1337 C1338 1.415 . S
C1338 H1314 0.950 . S
C1338 C1333 1.363 . S
C1338 C1337 1.415 . S
C1339 H1315 0.988 . S
C1339 C1340 1.319 1_554 S
C1339 C1341 1.400 . S
C1340 C1339 1.319 1_556 S
C1340 C1344 1.385 . S
C1341 H1316 0.951 . S
C1341 C1339 1.400 . S
C1341 C1342 1.366 1_554 S
C1342 C1341 1.366 1_556 S
C1342 C1343 1.414 . S
C1342 C1345 1.499 . S
C1343 H1317 0.950 . S
C1343 C1342 1.414 . S
C1343 C1344 1.374 . S
C1344 H1318 0.950 . S
C1344 C1340 1.385 . S
C1344 C1343 1.374 . S
C1345 C1342 1.499 . S
C1345 C1346 1.373 . S
C1345 C1347 1.389 1_556 S
C1346 H1319 0.950 . S
C1346 C1332 1.377 . S
C1346 C1345 1.373 . S
C1347 C1331 1.377 . S
C1347 C1345 1.389 1_554 S
C1347 C1348 1.524 . S
C1348 C1347 1.524 . S
C1348 C1349 1.397 . S
C1348 C1353 1.363 . S
C1349 H1320 0.950 . S
C1349 C1348 1.397 . S
C1349 C1350 1.334 . S
C1350 H1321 0.950 . S
C1350 C1349 1.334 . S
C1350 C1351 1.287 . S
C1351 C1350 1.287 . S
C1351 C1352 1.524 . S
C1351 H1354 0.999 . S
C1352 H1322 0.950 . S
C1352 C1351 1.524 . S
C1352 C1353 1.415 . S
C1353 H1323 0.950 . S
C1353 C1348 1.363 . S
C1353 C1352 1.415 . S
H1354 C1351 0.999 . S
H1355 C1336 0.913 . S
H1356 C1374 0.951 . S
H1357 C1376 0.951 . S
H1358 C1378 0.950 . S
H1359 C1379 0.950 . S
H1360 C1381 0.950 . S
H1361 C1384 0.950 . S
H1362 C1385 0.950 . S
H1363 C1387 0.950 . S
H1364 C1388 0.950 . S
H1365 C1389 0.951 . S
H1366 C1391 0.951 . S
H1367 C1393 0.950 . S
H1368 C1394 0.950 . S
H1369 C1396 0.950 . S
H1370 C1399 0.950 . S
H1371 C1400 0.950 . S
H1372 C1402 0.950 . S
H1373 C1403 0.950 . S
C1374 H1356 0.951 . S
C1374 C1375 1.366 . S
C1374 C1376 1.388 . S
C1375 C1374 1.366 . S
C1375 C1379 1.385 . S
C1376 H1357 0.951 . S
C1376 C1374 1.388 . S
C1376 C1377 1.366 . S
C1377 C1376 1.366 . S
C1377 C1378 1.414 . S
C1377 C1380 1.499 . S
C1378 H1358 0.950 . S
C1378 C1377 1.414 . S
C1378 C1379 1.374 . S
C1379 H1359 0.950 . S
C1379 C1375 1.385 . S
C1379 C1378 1.374 . S
C1380 C1377 1.499 . S
C1380 C1381 1.373 . S
C1380 C1382 1.389 . S
C1381 H1360 0.950 . S
C1381 C1380 1.373 . S
C1381 C1397 1.377 . S
C1382 C1380 1.389 . S
C1382 C1383 1.524 . S
C1382 C1396 1.377 . S
C1383 C1382 1.524 . S
C1383 C1384 1.397 . S
C1383 C1388 1.363 . S
C1384 H1361 0.950 . S
C1384 C1383 1.397 . S
C1384 C1385 1.334 . S
C1385 H1362 0.950 . S
C1385 C1384 1.334 . S
C1385 C1386 1.287 . S
C1386 C1385 1.287 . S
C1386 C1387 1.524 . S
C1386 H1405 0.913 . S
C1387 H1363 0.950 . S
C1387 C1386 1.524 . S
C1387 C1388 1.415 . S
C1388 H1364 0.950 . S
C1388 C1383 1.363 . S
C1388 C1387 1.415 . S
C1389 H1365 0.951 . S
C1389 C1390 1.366 . S
C1389 C1391 1.388 . S
C1390 C1389 1.366 . S
C1390 C1394 1.385 . S
C1391 H1366 0.951 . S
C1391 C1389 1.388 . S
C1391 C1392 1.366 . S
C1392 C1391 1.366 . S
C1392 C1393 1.414 . S
C1392 C1395 1.499 . S
C1393 H1367 0.950 . S
C1393 C1392 1.414 . S
C1393 C1394 1.374 . S
C1394 H1368 0.950 . S
C1394 C1390 1.385 . S
C1394 C1393 1.374 . S
C1395 C1392 1.499 . S
C1395 C1396 1.373 . S
C1395 C1397 1.389 . S
C1396 H1369 0.950 . S
C1396 C1382 1.377 . S
C1396 C1395 1.373 . S
C1397 C1381 1.377 . S
C1397 C1395 1.389 . S
C1397 C1398 1.524 . S
C1398 C1397 1.524 . S
C1398 C1399 1.397 . S
C1398 C1403 1.363 . S
C1399 H1370 0.950 . S
C1399 C1398 1.397 . S
C1399 C1400 1.334 . S
C1400 H1371 0.950 . S
C1400 C1399 1.334 . S
C1400 C1401 1.287 . S
C1401 C1400 1.287 . S
C1401 C1402 1.524 . S
C1401 H1404 0.999 . S
C1402 H1372 0.950 . S
C1402 C1401 1.524 . S
C1402 C1403 1.415 . S
C1403 H1373 0.950 . S
C1403 C1398 1.363 . S
C1403 C1402 1.415 . S
H1404 C1401 0.999 . S
H1405 C1386 0.913 . S
H1406 C1424 0.951 . S
H1407 C1426 0.951 . S
H1408 C1428 0.950 . S
H1409 C1429 0.950 . S
H1410 C1431 0.950 . S
H1411 C1434 0.950 . S
H1412 C1435 0.950 . S
H1413 C1437 0.950 . S
H1414 C1438 0.950 . S
H1415 C1439 0.951 . S
H1416 C1441 0.951 . S
H1417 C1443 0.950 . S
H1418 C1444 0.950 . S
H1419 C1446 0.950 . S
H1420 C1449 0.950 . S
H1421 C1450 0.950 . S
H1422 C1452 0.950 . S
H1423 C1453 0.950 . S
C1424 H1406 0.951 . S
C1424 C1425 1.366 . S
C1424 C1426 1.388 . S
C1425 C1424 1.366 . S
C1425 C1429 1.385 . S
C1426 H1407 0.951 . S
C1426 C1424 1.388 . S
C1426 C1427 1.366 . S
C1427 C1426 1.366 . S
C1427 C1428 1.414 . S
C1427 C1430 1.499 . S
C1428 H1408 0.950 . S
C1428 C1427 1.414 . S
C1428 C1429 1.374 . S
C1429 H1409 0.950 . S
C1429 C1425 1.385 . S
C1429 C1428 1.374 . S
C1430 C1427 1.499 . S
C1430 C1431 1.373 . S
C1430 C1432 1.389 . S
C1431 H1410 0.950 . S
C1431 C1430 1.373 . S
C1431 C1447 1.377 1_655 S
C1432 C1430 1.389 . S
C1432 C1433 1.524 . S
C1432 C1446 1.377 1_655 S
C1433 C1432 1.524 . S
C1433 C1434 1.397 . S
C1433 C1438 1.363 . S
C1434 H1411 0.950 . S
C1434 C1433 1.397 . S
C1434 C1435 1.334 . S
C1435 H1412 0.950 . S
C1435 C1434 1.334 . S
C1435 C1436 1.287 . S
C1436 C1435 1.287 . S
C1436 C1437 1.524 . S
C1436 H1455 0.913 . S
C1437 H1413 0.950 . S
C1437 C1436 1.524 . S
C1437 C1438 1.415 . S
C1438 H1414 0.950 . S
C1438 C1433 1.363 . S
C1438 C1437 1.415 . S
C1439 H1415 0.951 . S
C1439 C1440 1.366 . S
C1439 C1441 1.388 . S
C1440 C1439 1.366 . S
C1440 C1444 1.385 . S
C1441 H1416 0.951 . S
C1441 C1439 1.388 . S
C1441 C1442 1.366 . S
C1442 C1441 1.366 . S
C1442 C1443 1.414 . S
C1442 C1445 1.499 . S
C1443 H1417 0.950 . S
C1443 C1442 1.414 . S
C1443 C1444 1.374 . S
C1444 H1418 0.950 . S
C1444 C1440 1.385 . S
C1444 C1443 1.374 . S
C1445 C1442 1.499 . S
C1445 C1446 1.373 . S
C1445 C1447 1.389 . S
C1446 H1419 0.950 . S
C1446 C1432 1.377 1_455 S
C1446 C1445 1.373 . S
C1447 C1431 1.377 1_455 S
C1447 C1445 1.389 . S
C1447 C1448 1.524 . S
C1448 C1447 1.524 . S
C1448 C1449 1.397 . S
C1448 C1453 1.363 . S
C1449 H1420 0.950 . S
C1449 C1448 1.397 . S
C1449 C1450 1.334 . S
C1450 H1421 0.950 . S
C1450 C1449 1.334 . S
C1450 C1451 1.287 . S
C1451 C1450 1.287 . S
C1451 C1452 1.524 . S
C1451 H1454 0.999 . S
C1452 H1422 0.950 . S
C1452 C1451 1.524 . S
C1452 C1453 1.415 . S
C1453 H1423 0.950 . S
C1453 C1448 1.363 . S
C1453 C1452 1.415 . S
H1454 C1451 0.999 . S
H1455 C1436 0.913 . S
H1456 C1474 0.951 1_556 S
H1457 C1476 0.951 . S
H1458 C1478 0.950 . S
H1459 C1479 0.950 . S
H1460 C1481 0.950 . S
H1461 C1484 0.950 . S
H1462 C1485 0.950 . S
H1463 C1487 0.950 . S
H1464 C1488 0.950 . S
H1465 C1489 0.951 1_554 S
H1466 C1491 0.951 . S
H1467 C1493 0.950 . S
H1468 C1494 0.950 . S
H1469 C1496 0.950 . S
H1470 C1499 0.950 . S
H1471 C1500 0.950 . S
H1472 C1502 0.950 . S
H1473 C1503 0.950 . S
C1474 H1456 0.951 1_554 S
C1474 C1475 1.366 . S
C1474 C1476 1.388 1_554 S
C1475 C1474 1.366 . S
C1475 C1479 1.385 . S
C1476 H1457 0.951 . S
C1476 C1474 1.388 1_556 S
C1476 C1477 1.366 1_556 S
C1477 C1476 1.366 1_554 S
C1477 C1478 1.414 . S
C1477 C1480 1.499 . S
C1478 H1458 0.950 . S
C1478 C1477 1.414 . S
C1478 C1479 1.374 . S
C1479 H1459 0.950 . S
C1479 C1475 1.385 . S
C1479 C1478 1.374 . S
C1480 C1477 1.499 . S
C1480 C1481 1.373 . S
C1480 C1482 1.389 1_554 S
C1481 H1460 0.950 . S
C1481 C1480 1.373 . S
C1481 C1497 1.377 1_545 S
C1482 C1480 1.389 1_556 S
C1482 C1483 1.524 . S
C1482 C1496 1.377 1_545 S
C1483 C1482 1.524 . S
C1483 C1484 1.397 . S
C1483 C1488 1.363 . S
C1484 H1461 0.950 . S
C1484 C1483 1.397 . S
C1484 C1485 1.334 . S
C1485 H1462 0.950 . S
C1485 C1484 1.334 . S
C1485 C1486 1.287 . S
C1486 C1485 1.287 . S
C1486 C1487 1.524 . S
C1486 H1505 0.913 . S
C1487 H1463 0.950 . S
C1487 C1486 1.524 . S
C1487 C1488 1.415 . S
C1488 H1464 0.950 . S
C1488 C1483 1.363 . S
C1488 C1487 1.415 . S
C1489 H1465 0.951 1_556 S
C1489 C1490 1.366 . S
C1489 C1491 1.388 1_556 S
C1490 C1489 1.366 . S
C1490 C1494 1.385 . S
C1491 H1466 0.951 . S
C1491 C1489 1.388 1_554 S
C1491 C1492 1.366 1_554 S
C1492 C1491 1.366 1_556 S
C1492 C1493 1.414 . S
C1492 C1495 1.499 . S
C1493 H1467 0.950 . S
C1493 C1492 1.414 . S
C1493 C1494 1.374 . S
C1494 H1468 0.950 . S
C1494 C1490 1.385 . S
C1494 C1493 1.374 . S
C1495 C1492 1.499 . S
C1495 C1496 1.373 . S
C1495 C1497 1.389 1_556 S
C1496 H1469 0.950 . S
C1496 C1482 1.377 1_565 S
C1496 C1495 1.373 . S
C1497 C1481 1.377 1_565 S
C1497 C1495 1.389 1_554 S
C1497 C1498 1.524 . S
C1498 C1497 1.524 . S
C1498 C1499 1.397 . S
C1498 C1503 1.363 . S
C1499 H1470 0.950 . S
C1499 C1498 1.397 . S
C1499 C1500 1.334 . S
C1500 H1471 0.950 . S
C1500 C1499 1.334 . S
C1500 C1501 1.287 . S
C1501 C1500 1.287 . S
C1501 C1502 1.524 . S
C1501 H1504 0.999 . S
C1502 H1472 0.950 . S
C1502 C1501 1.524 . S
C1502 C1503 1.415 . S
C1503 H1473 0.950 . S
C1503 C1498 1.363 . S
C1503 C1502 1.415 . S
H1504 C1501 0.999 . S
H1505 C1486 0.913 . S
H1506 C1524 0.951 . S
H1507 C1526 0.951 . S
H1508 C1528 0.950 . S
H1509 C1529 0.950 . S
H1510 C1531 0.950 . S
H1511 C1534 0.950 . S
H1512 C1535 0.950 . S
H1513 C1537 0.950 . S
H1514 C1538 0.950 . S
H1515 C1539 0.951 . S
H1516 C1541 0.951 . S
H1517 C1543 0.950 . S
H1518 C1544 0.950 . S
H1519 C1546 0.950 . S
H1520 C1549 0.950 . S
H1521 C1550 0.950 . S
H1522 C1552 0.950 . S
H1523 C1553 0.950 . S
C1524 H1506 0.951 . S
C1524 C1525 1.366 . S
C1524 C1526 1.388 . S
C1525 C1524 1.366 . S
C1525 C1529 1.385 . S
C1526 H1507 0.951 . S
C1526 C1524 1.388 . S
C1526 C1527 1.366 . S
C1527 C1526 1.366 . S
C1527 C1528 1.414 . S
C1527 C1530 1.499 . S
C1528 H1508 0.950 . S
C1528 C1527 1.414 . S
C1528 C1529 1.374 . S
C1529 H1509 0.950 . S
C1529 C1525 1.385 . S
C1529 C1528 1.374 . S
C1530 C1527 1.499 . S
C1530 C1531 1.373 . S
C1530 C1532 1.389 . S
C1531 H1510 0.950 . S
C1531 C1530 1.373 . S
C1531 C1547 1.377 . S
C1532 C1530 1.389 . S
C1532 C1533 1.524 . S
C1532 C1546 1.377 . S
C1533 C1532 1.524 . S
C1533 C1534 1.397 . S
C1533 C1538 1.363 . S
C1534 H1511 0.950 . S
C1534 C1533 1.397 . S
C1534 C1535 1.334 . S
C1535 H1512 0.950 . S
C1535 C1534 1.334 . S
C1535 C1536 1.287 . S
C1536 C1535 1.287 . S
C1536 C1537 1.524 . S
C1536 H1555 0.913 . S
C1537 H1513 0.950 . S
C1537 C1536 1.524 . S
C1537 C1538 1.415 . S
C1538 H1514 0.950 . S
C1538 C1533 1.363 . S
C1538 C1537 1.415 . S
C1539 H1515 0.951 . S
C1539 C1540 1.366 . S
C1539 C1541 1.388 . S
C1540 C1539 1.366 . S
C1540 C1544 1.385 . S
C1541 H1516 0.951 . S
C1541 C1539 1.388 . S
C1541 C1542 1.366 . S
C1542 C1541 1.366 . S
C1542 C1543 1.414 . S
C1542 C1545 1.499 . S
C1543 H1517 0.950 . S
C1543 C1542 1.414 . S
C1543 C1544 1.374 . S
C1544 H1518 0.950 . S
C1544 C1540 1.385 . S
C1544 C1543 1.374 . S
C1545 C1542 1.499 . S
C1545 C1546 1.373 . S
C1545 C1547 1.389 . S
C1546 H1519 0.950 . S
C1546 C1532 1.377 . S
C1546 C1545 1.373 . S
C1547 C1531 1.377 . S
C1547 C1545 1.389 . S
C1547 C1548 1.524 . S
C1548 C1547 1.524 . S
C1548 C1549 1.397 . S
C1548 C1553 1.363 . S
C1549 H1520 0.950 . S
C1549 C1548 1.397 . S
C1549 C1550 1.334 . S
C1550 H1521 0.950 . S
C1550 C1549 1.334 . S
C1550 C1551 1.287 . S
C1551 C1550 1.287 . S
C1551 C1552 1.524 . S
C1551 H1554 0.999 . S
C1552 H1522 0.950 . S
C1552 C1551 1.524 . S
C1552 C1553 1.415 . S
C1553 H1523 0.950 . S
C1553 C1548 1.363 . S
C1553 C1552 1.415 . S
H1554 C1551 0.999 . S
H1555 C1536 0.913 . S
H1556 C1574 0.951 . S
H1557 C1576 0.951 . S
H1558 C1578 0.950 . S
H1559 C1579 0.950 . S
H1560 C1581 0.950 . S
H1561 C1584 0.950 . S
H1562 C1585 0.950 . S
H1563 C1587 0.950 . S
H1564 C1588 0.950 1_655 S
H1565 C1589 0.951 . S
H1566 C1591 0.951 . S
H1567 C1593 0.950 . S
H1568 C1594 0.950 . S
H1569 C1596 0.950 . S
H1570 C1599 0.950 . S
H1571 C1600 0.950 . S
H1572 C1602 0.950 . S
H1573 C1603 0.947 1_455 S
C1574 H1556 0.951 . S
C1574 C1575 1.366 . S
C1574 C1576 1.388 . S
C1575 C1574 1.366 . S
C1575 C1579 1.385 . S
C1576 H1557 0.951 . S
C1576 C1574 1.388 . S
C1576 C1577 1.366 . S
C1577 C1576 1.366 . S
C1577 C1578 1.414 . S
C1577 C1580 1.499 . S
C1578 H1558 0.950 . S
C1578 C1577 1.414 . S
C1578 C1579 1.374 . S
C1579 H1559 0.950 . S
C1579 C1575 1.385 . S
C1579 C1578 1.374 . S
C1580 C1577 1.499 . S
C1580 C1581 1.373 . S
C1580 C1582 1.389 . S
C1581 H1560 0.950 . S
C1581 C1580 1.373 . S
C1581 C1597 1.377 1_455 S
C1582 C1580 1.389 . S
C1582 C1583 1.524 . S
C1582 C1596 1.377 1_455 S
C1583 C1582 1.524 . S
C1583 C1584 1.397 . S
C1583 C1588 1.363 . S
C1584 H1561 0.950 . S
C1584 C1583 1.397 . S
C1584 C1585 1.334 . S
C1585 H1562 0.950 . S
C1585 C1584 1.334 . S
C1585 C1586 1.287 . S
C1586 C1585 1.287 . S
C1586 C1587 1.524 . S
C1586 H1605 0.913 . S
C1587 H1563 0.950 . S
C1587 C1586 1.524 . S
C1587 C1588 1.415 . S
C1588 H1564 0.950 1_455 S
C1588 C1583 1.363 . S
C1588 C1587 1.415 . S
C1589 H1565 0.951 . S
C1589 C1590 1.366 . S
C1589 C1591 1.388 . S
C1590 C1589 1.366 . S
C1590 C1594 1.385 . S
C1591 H1566 0.951 . S
C1591 C1589 1.388 . S
C1591 C1592 1.366 . S
C1592 C1591 1.366 . S
C1592 C1593 1.414 . S
C1592 C1595 1.499 . S
C1593 H1567 0.950 . S
C1593 C1592 1.414 . S
C1593 C1594 1.374 . S
C1594 H1568 0.950 . S
C1594 C1590 1.385 . S
C1594 C1593 1.374 . S
C1595 C1592 1.499 . S
C1595 C1596 1.373 . S
C1595 C1597 1.389 . S
C1596 H1569 0.950 . S
C1596 C1582 1.377 1_655 S
C1596 C1595 1.373 . S
C1597 C1581 1.377 1_655 S
C1597 C1595 1.389 . S
C1597 C1598 1.524 . S
C1598 C1597 1.524 . S
C1598 C1599 1.397 . S
C1598 C1603 1.363 . S
C1599 H1570 0.950 . S
C1599 C1598 1.397 . S
C1599 C1600 1.334 . S
C1600 H1571 0.950 . S
C1600 C1599 1.334 . S
C1600 C1601 1.287 . S
C1601 C1600 1.287 . S
C1601 C1602 1.524 . S
C1601 H1604 0.999 . S
C1602 H1572 0.950 . S
C1602 C1601 1.524 . S
C1602 C1603 1.415 . S
C1603 H1573 0.947 1_655 S
C1603 C1598 1.363 . S
C1603 C1602 1.415 . S
H1604 C1601 0.999 . S
H1605 C1586 0.913 . S
H1606 C1624 0.951 . S
H1607 C1626 0.951 . S
H1608 C1628 0.950 . S
H1609 C1629 0.950 . S
H1610 C1631 0.950 . S
H1611 C1634 0.950 . S
H1612 C1635 0.950 . S
H1613 C1637 0.950 . S
H1614 C1638 0.950 . S
H1615 C1639 0.951 . S
H1616 C1641 0.951 . S
H1617 C1643 0.950 . S
H1618 C1644 0.950 . S
H1619 C1646 0.950 . S
H1620 C1649 0.950 . S
H1621 C1650 0.950 . S
H1622 C1652 0.950 . S
H1623 C1653 0.950 . S
C1624 H1606 0.951 . S
C1624 C1625 1.366 . S
C1624 C1626 1.388 . S
C1625 C1624 1.366 . S
C1625 C1629 1.385 . S
C1626 H1607 0.951 . S
C1626 C1624 1.388 . S
C1626 C1627 1.366 . S
C1627 C1626 1.366 . S
C1627 C1628 1.414 . S
C1627 C1630 1.499 . S
C1628 H1608 0.950 . S
C1628 C1627 1.414 . S
C1628 C1629 1.374 . S
C1629 H1609 0.950 . S
C1629 C1625 1.385 . S
C1629 C1628 1.374 . S
C1630 C1627 1.499 . S
C1630 C1631 1.373 1_556 S
C1630 C1632 1.389 . S
C1631 H1610 0.950 . S
C1631 C1630 1.373 1_554 S
C1631 C1647 1.377 1_545 S
C1632 C1630 1.389 . S
C1632 C1633 1.524 . S
C1632 C1646 1.377 1_545 S
C1633 C1632 1.524 . S
C1633 C1634 1.397 . S
C1633 C1638 1.363 . S
C1634 H1611 0.950 . S
C1634 C1633 1.397 . S
C1634 C1635 1.334 . S
C1635 H1612 0.950 . S
C1635 C1634 1.334 . S
C1635 C1636 1.287 . S
C1636 C1635 1.287 . S
C1636 C1637 1.524 . S
C1636 H1655 0.913 . S
C1637 H1613 0.950 . S
C1637 C1636 1.524 . S
C1637 C1638 1.415 . S
C1638 H1614 0.950 . S
C1638 C1633 1.363 . S
C1638 C1637 1.415 . S
C1639 H1615 0.951 . S
C1639 C1640 1.366 . S
C1639 C1641 1.388 . S
C1640 C1639 1.366 . S
C1640 C1644 1.385 . S
C1641 H1616 0.951 . S
C1641 C1639 1.388 . S
C1641 C1642 1.366 . S
C1642 C1641 1.366 . S
C1642 C1643 1.414 . S
C1642 C1645 1.499 . S
C1643 H1617 0.950 . S
C1643 C1642 1.414 . S
C1643 C1644 1.374 . S
C1644 H1618 0.950 . S
C1644 C1640 1.385 . S
C1644 C1643 1.374 . S
C1645 C1642 1.499 . S
C1645 C1646 1.373 1_554 S
C1645 C1647 1.389 . S
C1646 H1619 0.950 . S
C1646 C1632 1.377 1_565 S
C1646 C1645 1.373 1_556 S
C1647 C1631 1.377 1_565 S
C1647 C1645 1.389 . S
C1647 C1648 1.524 . S
C1648 C1647 1.524 . S
C1648 C1649 1.397 . S
C1648 C1653 1.363 . S
C1649 H1620 0.950 . S
C1649 C1648 1.397 . S
C1649 C1650 1.334 . S
C1650 H1621 0.950 . S
C1650 C1649 1.334 . S
C1650 C1651 1.287 . S
C1651 C1650 1.287 . S
C1651 C1652 1.524 . S
C1651 H1654 0.999 . S
C1652 H1622 0.950 . S
C1652 C1651 1.524 . S
C1652 C1653 1.415 . S
C1653 H1623 0.950 . S
C1653 C1648 1.363 . S
C1653 C1652 1.415 . S
H1654 C1651 0.999 . S
H1655 C1636 0.913 . S
H1656 C1674 0.951 . S
H1657 C1676 0.951 . S
H1658 C1678 0.950 . S
H1659 C1679 0.950 . S
H1660 C1681 0.950 . S
H1661 C1684 0.950 . S
H1662 C1685 0.950 . S
H1663 C1687 0.950 . S
H1664 C1688 0.950 . S
H1665 C1689 0.951 . S
H1666 C1691 0.951 . S
H1667 C1693 0.979 . S
H1668 C1694 0.950 . S
H1669 C1696 0.950 . S
H1670 C1699 0.950 . S
H1671 C1700 0.950 . S
H1672 C1702 0.950 . S
H1673 C1703 0.950 . S
C1674 H1656 0.951 . S
C1674 C1675 1.366 . S
C1674 C1676 1.388 . S
C1675 C1674 1.366 . S
C1675 C1679 1.385 . S
C1676 H1657 0.951 . S
C1676 C1674 1.388 . S
C1676 C1677 1.366 . S
C1677 C1676 1.366 . S
C1677 C1678 1.414 . S
C1677 C1680 1.499 . S
C1678 H1658 0.950 . S
C1678 C1677 1.414 . S
C1678 C1679 1.374 . S
C1679 H1659 0.950 . S
C1679 C1675 1.385 . S
C1679 C1678 1.374 . S
C1680 C1677 1.499 . S
C1680 C1681 1.373 1_655 S
C1680 C1682 1.389 . S
C1681 H1660 0.950 . S
C1681 C1680 1.373 1_455 S
C1681 C1697 1.377 . S
C1682 C1680 1.389 . S
C1682 C1683 1.524 . S
C1682 C1696 1.377 . S
C1683 C1682 1.524 . S
C1683 C1684 1.397 . S
C1683 C1688 1.363 . S
C1684 H1661 0.950 . S
C1684 C1683 1.397 . S
C1684 C1685 1.334 . S
C1685 H1662 0.950 . S
C1685 C1684 1.334 . S
C1685 C1686 1.287 . S
C1686 C1685 1.287 . S
C1686 C1687 1.524 . S
C1686 H1705 0.913 . S
C1687 H1663 0.950 . S
C1687 C1686 1.524 . S
C1687 C1688 1.415 . S
C1688 H1664 0.950 . S
C1688 C1683 1.363 . S
C1688 C1687 1.415 . S
C1689 H1665 0.951 . S
C1689 C1690 1.366 . S
C1689 C1691 1.388 . S
C1690 C1689 1.366 . S
C1690 C1694 1.385 . S
C1691 H1666 0.951 . S
C1691 C1689 1.388 . S
C1691 C1692 1.366 . S
C1692 C1691 1.366 . S
C1692 C1693 1.414 . S
C1692 C1695 1.499 . S
C1693 H1667 0.979 . S
C1693 C1692 1.414 . S
C1693 C1694 1.374 . S
C1694 H1668 0.950 . S
C1694 C1690 1.385 . S
C1694 C1693 1.374 . S
C1695 C1692 1.499 . S
C1695 C1696 1.373 1_455 S
C1695 C1697 1.389 . S
C1696 H1669 0.950 . S
C1696 C1682 1.377 . S
C1696 C1695 1.373 1_655 S
C1697 C1681 1.377 . S
C1697 C1695 1.389 . S
C1697 C1698 1.524 . S
C1698 C1697 1.524 . S
C1698 C1699 1.397 . S
C1698 C1703 1.363 . S
C1699 H1670 0.950 . S
C1699 C1698 1.397 . S
C1699 C1700 1.334 . S
C1700 H1671 0.950 . S
C1700 C1699 1.334 . S
C1700 C1701 1.287 . S
C1701 C1700 1.287 . S
C1701 C1702 1.524 . S
C1701 H1704 0.999 . S
C1702 H1672 0.950 . S
C1702 C1701 1.524 . S
C1702 C1703 1.415 . S
C1703 H1673 0.950 . S
C1703 C1698 1.363 . S
C1703 C1702 1.415 . S
H1704 C1701 0.999 . S
H1705 C1686 0.913 . S
H1706 C1724 0.951 . S
H1707 C1726 0.951 . S
H1708 C1728 0.950 . S
H1709 C1729 0.950 . S
H1710 C1731 0.972 . S
H1711 C1734 0.950 . S
H1712 C1735 0.950 . S
H1713 C1737 0.950 . S
H1714 C1738 0.950 . S
H1715 C1739 0.951 . S
H1716 C1741 0.951 . S
H1717 C1743 0.950 . S
H1718 C1744 0.950 . S
H1719 C1746 0.972 . S
H1720 C1749 0.950 . S
H1721 C1750 0.950 . S
H1722 C1752 0.950 . S
H1723 C1753 0.950 . S
C1724 H1706 0.951 . S
C1724 C1725 1.366 . S
C1724 C1726 1.388 . S
C1725 C1724 1.366 . S
C1725 C1729 1.385 . S
C1726 H1707 0.951 . S
C1726 C1724 1.388 . S
C1726 C1727 1.366 . S
C1727 C1726 1.366 . S
C1727 C1728 1.414 . S
C1727 C1730 1.499 . S
C1728 H1708 0.950 . S
C1728 C1727 1.414 . S
C1728 C1729 1.374 . S
C1729 H1709 0.950 . S
C1729 C1725 1.385 . S
C1729 C1728 1.374 . S
C1730 C1727 1.499 . S
C1730 C1731 1.330 1_545 S
C1730 C1732 1.389 . S
C1731 H1710 0.972 . S
C1731 C1730 1.330 1_565 S
C1731 C1747 1.400 . S
C1732 C1730 1.389 . S
C1732 C1733 1.524 . S
C1732 C1746 1.400 . S
C1733 C1732 1.524 . S
C1733 C1734 1.397 . S
C1733 C1738 1.363 . S
C1734 H1711 0.950 . S
C1734 C1733 1.397 . S
C1734 C1735 1.334 . S
C1735 H1712 0.950 . S
C1735 C1734 1.334 . S
C1735 C1736 1.287 . S
C1736 C1735 1.287 . S
C1736 C1737 1.524 . S
C1736 H1755 0.913 . S
C1737 H1713 0.950 . S
C1737 C1736 1.524 . S
C1737 C1738 1.415 . S
C1738 H1714 0.950 . S
C1738 C1733 1.363 . S
C1738 C1737 1.415 . S
C1739 H1715 0.951 . S
C1739 C1740 1.366 . S
C1739 C1741 1.388 . S
C1740 C1739 1.366 . S
C1740 C1744 1.385 . S
C1741 H1716 0.951 . S
C1741 C1739 1.388 . S
C1741 C1742 1.366 . S
C1742 C1741 1.366 . S
C1742 C1743 1.414 . S
C1742 C1745 1.499 . S
C1743 H1717 0.950 . S
C1743 C1742 1.414 . S
C1743 C1744 1.374 . S
C1744 H1718 0.950 . S
C1744 C1740 1.385 . S
C1744 C1743 1.374 . S
C1745 C1742 1.499 . S
C1745 C1746 1.330 1_565 S
C1745 C1747 1.389 . S
C1746 H1719 0.972 . S
C1746 C1732 1.400 . S
C1746 C1745 1.330 1_545 S
C1747 C1731 1.400 . S
C1747 C1745 1.389 . S
C1747 C1748 1.524 . S
C1748 C1747 1.524 . S
C1748 C1749 1.397 . S
C1748 C1753 1.363 . S
C1749 H1720 0.950 . S
C1749 C1748 1.397 . S
C1749 C1750 1.334 . S
C1750 H1721 0.950 . S
C1750 C1749 1.334 . S
C1750 C1751 1.287 . S
C1751 C1750 1.287 . S
C1751 C1752 1.524 . S
C1751 H1754 0.999 . S
C1752 H1722 0.950 . S
C1752 C1751 1.524 . S
C1752 C1753 1.415 . S
C1753 H1723 0.950 . S
C1753 C1748 1.363 . S
C1753 C1752 1.415 . S
H1754 C1751 0.999 . S
H1755 C1736 0.913 . S
H1756 C1774 0.951 . S
H1757 C1776 0.951 . S
H1758 C1778 0.950 . S
H1759 C1779 0.950 . S
H1760 C1781 0.950 . S
H1761 C1784 0.950 . S
H1762 C1785 0.950 . S
H1763 C1787 0.950 . S
H1764 C1788 0.950 . S
H1765 C1789 0.951 . S
H1766 C1791 0.951 . S
H1767 C1793 0.950 . S
H1768 C1794 0.950 . S
H1769 C1796 0.950 . S
H1770 C1799 0.950 . S
H1771 C1800 0.950 . S
H1772 C1802 0.950 . S
H1773 C1803 0.950 . S
C1774 H1756 0.951 . S
C1774 C1775 1.366 . S
C1774 C1776 1.388 . S
C1775 C1774 1.366 . S
C1775 C1779 1.385 . S
C1776 H1757 0.951 . S
C1776 C1774 1.388 . S
C1776 C1777 1.366 . S
C1777 C1776 1.366 . S
C1777 C1778 1.414 . S
C1777 C1780 1.499 . S
C1778 H1758 0.950 . S
C1778 C1777 1.414 . S
C1778 C1779 1.374 . S
C1779 H1759 0.950 . S
C1779 C1775 1.385 . S
C1779 C1778 1.374 . S
C1780 C1777 1.499 . S
C1780 C1781 1.373 . S
C1780 C1782 1.389 . S
C1781 H1760 0.950 . S
C1781 C1780 1.373 . S
C1781 C1797 1.377 . S
C1782 C1780 1.389 . S
C1782 C1783 1.524 . S
C1782 C1796 1.377 . S
C1783 C1782 1.524 . S
C1783 C1784 1.397 . S
C1783 C1788 1.363 . S
C1784 H1761 0.950 . S
C1784 C1783 1.397 . S
C1784 C1785 1.334 . S
C1785 H1762 0.950 . S
C1785 C1784 1.334 . S
C1785 C1786 1.287 . S
C1786 C1785 1.287 . S
C1786 C1787 1.524 . S
C1786 H1805 0.913 . S
C1787 H1763 0.950 . S
C1787 C1786 1.524 . S
C1787 C1788 1.415 . S
C1788 H1764 0.950 . S
C1788 C1783 1.363 . S
C1788 C1787 1.415 . S
C1789 H1765 0.951 . S
C1789 C1790 1.366 . S
C1789 C1791 1.388 . S
C1790 C1789 1.366 . S
C1790 C1794 1.385 . S
C1791 H1766 0.951 . S
C1791 C1789 1.388 . S
C1791 C1792 1.366 . S
C1792 C1791 1.366 . S
C1792 C1793 1.414 . S
C1792 C1795 1.499 . S
C1793 H1767 0.950 . S
C1793 C1792 1.414 . S
C1793 C1794 1.374 . S
C1794 H1768 0.950 . S
C1794 C1790 1.385 . S
C1794 C1793 1.374 . S
C1795 C1792 1.499 . S
C1795 C1796 1.373 . S
C1795 C1797 1.389 . S
C1796 H1769 0.950 . S
C1796 C1782 1.377 . S
C1796 C1795 1.373 . S
C1797 C1781 1.377 . S
C1797 C1795 1.389 . S
C1797 C1798 1.524 . S
C1798 C1797 1.524 . S
C1798 C1799 1.397 . S
C1798 C1803 1.363 . S
C1799 H1770 0.950 . S
C1799 C1798 1.397 . S
C1799 C1800 1.334 . S
C1800 H1771 0.950 . S
C1800 C1799 1.334 . S
C1800 C1801 1.287 . S
C1801 C1800 1.287 . S
C1801 C1802 1.524 . S
C1801 H1804 0.999 . S
C1802 H1772 0.950 . S
C1802 C1801 1.524 . S
C1802 C1803 1.415 . S
C1803 H1773 0.950 . S
C1803 C1798 1.363 . S
C1803 C1802 1.415 . S
H1804 C1801 0.999 . S
H1805 C1786 0.913 . S
H1806 C1824 0.951 . S
H1807 C1826 0.951 . S
H1808 C1828 0.950 . S
H1809 C1829 0.950 . S
H1810 C1831 0.950 . S
H1811 C1834 0.950 . S
H1812 C1835 0.950 . S
H1813 C1837 0.950 . S
H1814 C1838 0.950 . S
H1815 C1839 0.951 . S
H1816 C1841 0.951 . S
H1817 C1843 0.950 . S
H1818 C1844 0.950 . S
H1819 C1846 0.950 . S
H1820 C1849 0.950 . S
H1821 C1850 0.950 . S
H1822 C1852 0.950 . S
H1823 C1853 0.950 . S
C1824 H1806 0.951 . S
C1824 C1825 1.366 . S
C1824 C1826 1.388 . S
C1825 C1824 1.366 . S
C1825 C1829 1.385 . S
C1826 H1807 0.951 . S
C1826 C1824 1.388 . S
C1826 C1827 1.366 . S
C1827 C1826 1.366 . S
C1827 C1828 1.414 . S
C1827 C1830 1.499 . S
C1828 H1808 0.950 . S
C1828 C1827 1.414 . S
C1828 C1829 1.374 . S
C1829 H1809 0.950 . S
C1829 C1825 1.385 . S
C1829 C1828 1.374 . S
C1830 C1827 1.499 . S
C1830 C1831 1.373 1_455 S
C1830 C1832 1.389 . S
C1831 H1810 0.950 . S
C1831 C1830 1.373 1_655 S
C1831 C1847 1.377 . S
C1832 C1830 1.389 . S
C1832 C1833 1.524 . S
C1832 C1846 1.377 . S
C1833 C1832 1.524 . S
C1833 C1834 1.397 . S
C1833 C1838 1.363 . S
C1834 H1811 0.950 . S
C1834 C1833 1.397 . S
C1834 C1835 1.334 . S
C1835 H1812 0.950 . S
C1835 C1834 1.334 . S
C1835 C1836 1.287 . S
C1836 C1835 1.287 . S
C1836 C1837 1.524 . S
C1836 H1855 0.913 . S
C1837 H1813 0.950 . S
C1837 C1836 1.524 . S
C1837 C1838 1.415 . S
C1838 H1814 0.950 . S
C1838 C1833 1.363 . S
C1838 C1837 1.415 . S
C1839 H1815 0.951 . S
C1839 C1840 1.366 . S
C1839 C1841 1.388 . S
C1840 C1839 1.366 . S
C1840 C1844 1.385 . S
C1841 H1816 0.951 . S
C1841 C1839 1.388 . S
C1841 C1842 1.366 . S
C1842 C1841 1.366 . S
C1842 C1843 1.414 . S
C1842 C1845 1.499 . S
C1843 H1817 0.950 . S
C1843 C1842 1.414 . S
C1843 C1844 1.374 . S
C1844 H1818 0.950 . S
C1844 C1840 1.385 . S
C1844 C1843 1.374 . S
C1845 C1842 1.499 . S
C1845 C1846 1.373 1_655 S
C1845 C1847 1.389 . S
C1846 H1819 0.950 . S
C1846 C1832 1.377 . S
C1846 C1845 1.373 1_455 S
C1847 C1831 1.377 . S
C1847 C1845 1.389 . S
C1847 C1848 1.524 . S
C1848 C1847 1.524 . S
C1848 C1849 1.397 . S
C1848 C1853 1.363 . S
C1849 H1820 0.950 . S
C1849 C1848 1.397 . S
C1849 C1850 1.334 . S
C1850 H1821 0.950 . S
C1850 C1849 1.334 . S
C1850 C1851 1.287 . S
C1851 C1850 1.287 . S
C1851 C1852 1.524 . S
C1851 H1854 0.999 . S
C1852 H1822 0.950 . S
C1852 C1851 1.524 . S
C1852 C1853 1.415 . S
C1853 H1823 0.950 . S
C1853 C1848 1.363 . S
C1853 C1852 1.415 . S
H1854 C1851 0.999 . S
H1855 C1836 0.913 . S
H1856 C1874 0.951 . S
H1857 C1876 0.951 . S
H1858 C1878 0.950 . S
H1859 C1879 0.950 . S
H1860 C1881 0.950 . S
H1861 C1884 0.950 . S
H1862 C1885 0.950 . S
H1863 C1887 0.950 . S
H1864 C1888 0.950 . S
H1865 C1889 0.951 . S
H1866 C1891 0.951 . S
H1867 C1893 0.950 . S
H1868 C1894 0.950 . S
H1869 C1896 0.950 . S
H1870 C1899 0.950 . S
H1871 C1900 0.950 . S
H1872 C1902 0.950 . S
H1873 C1903 0.950 . S
C1874 H1856 0.951 . S
C1874 C1875 1.366 . S
C1874 C1876 1.388 . S
C1875 C1874 1.366 . S
C1875 C1879 1.385 . S
C1876 H1857 0.951 . S
C1876 C1874 1.388 . S
C1876 C1877 1.366 . S
C1877 C1876 1.366 . S
C1877 C1878 1.414 . S
C1877 C1880 1.499 . S
C1878 H1858 0.950 . S
C1878 C1877 1.414 . S
C1878 C1879 1.374 . S
C1879 H1859 0.950 . S
C1879 C1875 1.385 . S
C1879 C1878 1.374 . S
C1880 C1877 1.499 . S
C1880 C1881 1.373 . S
C1880 C1882 1.389 1_545 S
C1881 H1860 0.950 . S
C1881 C1880 1.373 . S
C1881 C1897 1.377 . S
C1882 C1880 1.389 1_565 S
C1882 C1883 1.524 . S
C1882 C1896 1.377 . S
C1883 C1882 1.524 . S
C1883 C1884 1.397 1_565 S
C1883 C1888 1.363 . S
C1884 H1861 0.950 . S
C1884 C1883 1.397 1_545 S
C1884 C1885 1.334 . S
C1885 H1862 0.950 . S
C1885 C1884 1.334 . S
C1885 C1886 1.300 . S
C1886 C1885 1.300 . S
C1886 C1887 1.500 1_545 S
C1886 H1905 0.924 . S
C1887 H1863 0.950 . S
C1887 C1886 1.500 1_565 S
C1887 C1888 1.415 . S
C1888 H1864 0.950 . S
C1888 C1883 1.363 . S
C1888 C1887 1.415 . S
C1889 H1865 0.951 . S
C1889 C1890 1.366 . S
C1889 C1891 1.388 . S
C1890 C1889 1.366 . S
C1890 C1894 1.385 . S
C1891 H1866 0.951 . S
C1891 C1889 1.388 . S
C1891 C1892 1.366 . S
C1892 C1891 1.366 . S
C1892 C1893 1.414 . S
C1892 C1895 1.499 . S
C1893 H1867 0.950 . S
C1893 C1892 1.414 . S
C1893 C1894 1.374 . S
C1894 H1868 0.950 . S
C1894 C1890 1.385 . S
C1894 C1893 1.374 . S
C1895 C1892 1.499 . S
C1895 C1896 1.373 . S
C1895 C1897 1.389 1_565 S
C1896 H1869 0.950 . S
C1896 C1882 1.377 . S
C1896 C1895 1.373 . S
C1897 C1881 1.377 . S
C1897 C1895 1.389 1_545 S
C1897 C1898 1.524 . S
C1898 C1897 1.524 . S
C1898 C1899 1.397 1_545 S
C1898 C1903 1.363 . S
C1899 H1870 0.950 . S
C1899 C1898 1.397 1_565 S
C1899 C1900 1.334 . S
C1900 H1871 0.950 . S
C1900 C1899 1.334 . S
C1900 C1901 1.300 . S
C1901 C1900 1.300 . S
C1901 C1902 1.500 1_565 S
C1901 H1904 1.008 1_565 S
C1902 H1872 0.950 . S
C1902 C1901 1.500 1_545 S
C1902 C1903 1.415 . S
C1903 H1873 0.950 . S
C1903 C1898 1.363 . S
C1903 C1902 1.415 . S
H1904 C1901 1.008 1_545 S
H1905 C1886 0.924 . S
H1906 C1924 0.951 . S
H1907 C1926 0.951 . S
H1908 C1928 0.950 . S
H1909 C1929 0.950 . S
H1910 C1931 0.950 . S
H1911 C1934 0.950 . S
H1912 C1935 0.950 . S
H1913 C1937 0.950 . S
H1914 C1938 0.950 . S
H1915 C1939 0.951 . S
H1916 C1941 0.951 . S
H1917 C1943 0.950 . S
H1918 C1944 0.950 . S
H1919 C1946 0.950 . S
H1920 C1949 0.950 . S
H1921 C1950 0.950 . S
H1922 C1952 0.950 . S
H1923 C1953 0.950 . S
C1924 H1906 0.951 . S
C1924 C1925 1.366 . S
C1924 C1926 1.388 . S
C1925 C1924 1.366 . S
C1925 C1929 1.385 . S
C1926 H1907 0.951 . S
C1926 C1924 1.388 . S
C1926 C1927 1.366 . S
C1927 C1926 1.366 . S
C1927 C1928 1.414 . S
C1927 C1930 1.499 . S
C1928 H1908 0.950 . S
C1928 C1927 1.414 . S
C1928 C1929 1.374 . S
C1929 H1909 0.950 . S
C1929 C1925 1.385 . S
C1929 C1928 1.374 . S
C1930 C1927 1.499 . S
C1930 C1931 1.373 . S
C1930 C1932 1.389 . S
C1931 H1910 0.950 . S
C1931 C1930 1.373 . S
C1931 C1947 1.377 . S
C1932 C1930 1.389 . S
C1932 C1933 1.524 . S
C1932 C1946 1.377 . S
C1933 C1932 1.524 . S
C1933 C1934 1.397 . S
C1933 C1938 1.363 . S
C1934 H1911 0.950 . S
C1934 C1933 1.397 . S
C1934 C1935 1.334 . S
C1935 H1912 0.950 . S
C1935 C1934 1.334 . S
C1935 C1936 1.287 . S
C1936 C1935 1.287 . S
C1936 C1937 1.524 . S
C1936 H1955 0.913 . S
C1937 H1913 0.950 . S
C1937 C1936 1.524 . S
C1937 C1938 1.415 . S
C1938 H1914 0.950 . S
C1938 C1933 1.363 . S
C1938 C1937 1.415 . S
C1939 H1915 0.951 . S
C1939 C1940 1.366 . S
C1939 C1941 1.388 . S
C1940 C1939 1.366 . S
C1940 C1944 1.385 . S
C1941 H1916 0.951 . S
C1941 C1939 1.388 . S
C1941 C1942 1.366 . S
C1942 C1941 1.366 . S
C1942 C1943 1.414 . S
C1942 C1945 1.499 . S
C1943 H1917 0.950 . S
C1943 C1942 1.414 . S
C1943 C1944 1.374 . S
C1944 H1918 0.950 . S
C1944 C1940 1.385 . S
C1944 C1943 1.374 . S
C1945 C1942 1.499 . S
C1945 C1946 1.373 . S
C1945 C1947 1.389 . S
C1946 H1919 0.950 . S
C1946 C1932 1.377 . S
C1946 C1945 1.373 . S
C1947 C1931 1.377 . S
C1947 C1945 1.389 . S
C1947 C1948 1.524 . S
C1948 C1947 1.524 . S
C1948 C1949 1.397 . S
C1948 C1953 1.363 . S
C1949 H1920 0.950 . S
C1949 C1948 1.397 . S
C1949 C1950 1.334 . S
C1950 H1921 0.950 . S
C1950 C1949 1.334 . S
C1950 C1951 1.287 . S
C1951 C1950 1.287 . S
C1951 C1952 1.524 . S
C1951 H1954 0.999 . S
C1952 H1922 0.950 . S
C1952 C1951 1.524 . S
C1952 C1953 1.415 . S
C1953 H1923 0.950 . S
C1953 C1948 1.363 . S
C1953 C1952 1.415 . S
H1954 C1951 0.999 . S
H1955 C1936 0.913 . S
H1956 C1974 0.951 . S
H1957 C1976 0.951 . S
H1958 C1978 0.950 . S
H1959 C1979 0.950 . S
H1960 C1981 0.950 . S
H1961 C1984 0.950 . S
H1962 C1985 0.950 . S
H1963 C1987 0.950 . S
H1964 C1988 0.950 . S
H1965 C1989 0.951 . S
H1966 C1991 0.951 . S
H1967 C1993 0.950 . S
H1968 C1994 0.950 . S
H1969 C1996 0.950 . S
H1970 C1999 0.950 . S
H1971 C2000 0.950 . S
H1972 C2002 0.950 . S
H1973 C2003 0.950 . S
C1974 H1956 0.951 . S
C1974 C1975 1.366 . S
C1974 C1976 1.388 . S
C1975 C1974 1.366 . S
C1975 C1979 1.385 . S
C1976 H1957 0.951 . S
C1976 C1974 1.388 . S
C1976 C1977 1.366 . S
C1977 C1976 1.366 . S
C1977 C1978 1.414 . S
C1977 C1980 1.499 . S
C1978 H1958 0.950 . S
C1978 C1977 1.414 . S
C1978 C1979 1.374 . S
C1979 H1959 0.950 . S
C1979 C1975 1.385 . S
C1979 C1978 1.374 . S
C1980 C1977 1.499 . S
C1980 C1981 1.373 . S
C1980 C1982 1.389 . S
C1981 H1960 0.950 . S
C1981 C1980 1.373 . S
C1981 C1997 1.377 . S
C1982 C1980 1.389 . S
C1982 C1983 1.524 . S
C1982 C1996 1.377 . S
C1983 C1982 1.524 . S
C1983 C1984 1.397 . S
C1983 C1988 1.363 . S
C1984 H1961 0.950 . S
C1984 C1983 1.397 . S
C1984 C1985 1.334 . S
C1985 H1962 0.950 . S
C1985 C1984 1.334 . S
C1985 C1986 1.287 . S
C1986 C1985 1.287 . S
C1986 C1987 1.524 . S
C1986 H2005 0.913 . S
C1987 H1963 0.950 . S
C1987 C1986 1.524 . S
C1987 C1988 1.415 . S
C1988 H1964 0.950 . S
C1988 C1983 1.363 . S
C1988 C1987 1.415 . S
C1989 H1965 0.951 . S
C1989 C1990 1.366 . S
C1989 C1991 1.388 . S
C1990 C1989 1.366 . S
C1990 C1994 1.385 . S
C1991 H1966 0.951 . S
C1991 C1989 1.388 . S
C1991 C1992 1.366 . S
C1992 C1991 1.366 . S
C1992 C1993 1.414 . S
C1992 C1995 1.499 . S
C1993 H1967 0.950 . S
C1993 C1992 1.414 . S
C1993 C1994 1.374 . S
C1994 H1968 0.950 . S
C1994 C1990 1.385 . S
C1994 C1993 1.374 . S
C1995 C1992 1.499 . S
C1995 C1996 1.373 . S
C1995 C1997 1.389 . S
C1996 H1969 0.950 . S
C1996 C1982 1.377 . S
C1996 C1995 1.373 . S
C1997 C1981 1.377 . S
C1997 C1995 1.389 . S
C1997 C1998 1.524 . S
C1998 C1997 1.524 . S
C1998 C1999 1.397 . S
C1998 C2003 1.363 . S
C1999 H1970 0.950 . S
C1999 C1998 1.397 . S
C1999 C2000 1.334 . S
C2000 H1971 0.950 . S
C2000 C1999 1.334 . S
C2000 C2001 1.287 . S
C2001 C2000 1.287 . S
C2001 C2002 1.524 . S
C2001 H2004 0.999 . S
C2002 H1972 0.950 . S
C2002 C2001 1.524 . S
C2002 C2003 1.415 . S
C2003 H1973 0.950 . S
C2003 C1998 1.363 . S
C2003 C2002 1.415 . S
H2004 C2001 0.999 . S
H2005 C1986 0.913 . S
H2006 C2024 0.951 . S
H2007 C2026 0.951 . S
H2008 C2028 0.950 . S
H2009 C2029 0.950 . S
H2010 C2031 0.950 . S
H2011 C2034 0.950 . S
H2012 C2035 0.950 . S
H2013 C2037 0.950 . S
H2014 C2038 0.950 . S
H2015 C2039 0.951 . S
H2016 C2041 0.951 . S
H2017 C2043 0.950 . S
H2018 C2044 0.950 . S
H2019 C2046 0.950 . S
H2020 C2049 0.950 . S
H2021 C2050 0.950 . S
H2022 C2052 0.950 . S
H2023 C2053 0.950 . S
C2024 H2006 0.951 . S
C2024 C2025 1.366 . S
C2024 C2026 1.388 . S
C2025 C2024 1.366 . S
C2025 C2029 1.385 . S
C2026 H2007 0.951 . S
C2026 C2024 1.388 . S
C2026 C2027 1.366 . S
C2027 C2026 1.366 . S
C2027 C2028 1.414 . S
C2027 C2030 1.499 . S
C2028 H2008 0.950 . S
C2028 C2027 1.414 . S
C2028 C2029 1.374 . S
C2029 H2009 0.950 . S
C2029 C2025 1.385 . S
C2029 C2028 1.374 . S
C2030 C2027 1.499 . S
C2030 C2031 1.373 . S
C2030 C2032 1.389 . S
C2031 H2010 0.950 . S
C2031 C2030 1.373 . S
C2031 C2047 1.377 . S
C2032 C2030 1.389 . S
C2032 C2033 1.524 . S
C2032 C2046 1.377 . S
C2033 C2032 1.524 . S
C2033 C2034 1.397 . S
C2033 C2038 1.363 . S
C2034 H2011 0.950 . S
C2034 C2033 1.397 . S
C2034 C2035 1.334 . S
C2035 H2012 0.950 . S
C2035 C2034 1.334 . S
C2035 C2036 1.287 . S
C2036 C2035 1.287 . S
C2036 C2037 1.524 . S
C2036 H2055 0.913 . S
C2037 H2013 0.950 . S
C2037 C2036 1.524 . S
C2037 C2038 1.415 . S
C2038 H2014 0.950 . S
C2038 C2033 1.363 . S
C2038 C2037 1.415 . S
C2039 H2015 0.951 . S
C2039 C2040 1.366 . S
C2039 C2041 1.388 . S
C2040 C2039 1.366 . S
C2040 C2044 1.385 . S
C2041 H2016 0.951 . S
C2041 C2039 1.388 . S
C2041 C2042 1.366 . S
C2042 C2041 1.366 . S
C2042 C2043 1.414 . S
C2042 C2045 1.499 . S
C2043 H2017 0.950 . S
C2043 C2042 1.414 . S
C2043 C2044 1.374 . S
C2044 H2018 0.950 . S
C2044 C2040 1.385 . S
C2044 C2043 1.374 . S
C2045 C2042 1.499 . S
C2045 C2046 1.373 . S
C2045 C2047 1.389 . S
C2046 H2019 0.950 . S
C2046 C2032 1.377 . S
C2046 C2045 1.373 . S
C2047 C2031 1.377 . S
C2047 C2045 1.389 . S
C2047 C2048 1.524 . S
C2048 C2047 1.524 . S
C2048 C2049 1.397 . S
C2048 C2053 1.363 . S
C2049 H2020 0.950 . S
C2049 C2048 1.397 . S
C2049 C2050 1.334 . S
C2050 H2021 0.950 . S
C2050 C2049 1.334 . S
C2050 C2051 1.287 . S
C2051 C2050 1.287 . S
C2051 C2052 1.524 . S
C2051 H2054 0.999 . S
C2052 H2022 0.950 . S
C2052 C2051 1.524 . S
C2052 C2053 1.415 . S
C2053 H2023 0.950 . S
C2053 C2048 1.363 . S
C2053 C2052 1.415 . S
H2054 C2051 0.999 . S
H2055 C2036 0.913 . S
H2056 C2074 0.951 . S
H2057 C2076 0.951 . S
H2058 C2078 0.950 . S
H2059 C2079 0.950 . S
H2060 C2081 0.950 . S
H2061 C2084 0.950 . S
H2062 C2085 0.950 . S
H2063 C2087 0.950 . S
H2064 C2088 0.950 . S
H2065 C2089 0.951 . S
H2066 C2091 0.951 . S
H2067 C2093 0.950 . S
H2068 C2094 0.950 . S
H2069 C2096 0.950 . S
H2070 C2099 0.950 . S
H2071 C2100 0.950 . S
H2072 C2102 0.950 . S
H2073 C2103 0.950 . S
C2074 H2056 0.951 . S
C2074 C2075 1.366 . S
C2074 C2076 1.388 . S
C2075 C2074 1.366 . S
C2075 C2079 1.385 . S
C2076 H2057 0.951 . S
C2076 C2074 1.388 . S
C2076 C2077 1.366 . S
C2077 C2076 1.366 . S
C2077 C2078 1.414 . S
C2077 C2080 1.499 . S
C2078 H2058 0.950 . S
C2078 C2077 1.414 . S
C2078 C2079 1.374 . S
C2079 H2059 0.950 . S
C2079 C2075 1.385 . S
C2079 C2078 1.374 . S
C2080 C2077 1.499 . S
C2080 C2081 1.373 . S
C2080 C2082 1.389 . S
C2081 H2060 0.950 . S
C2081 C2080 1.373 . S
C2081 C2097 1.377 . S
C2082 C2080 1.389 . S
C2082 C2083 1.524 . S
C2082 C2096 1.377 . S
C2083 C2082 1.524 . S
C2083 C2084 1.397 . S
C2083 C2088 1.363 . S
C2084 H2061 0.950 . S
C2084 C2083 1.397 . S
C2084 C2085 1.334 . S
C2085 H2062 0.950 . S
C2085 C2084 1.334 . S
C2085 C2086 1.287 . S
C2086 C2085 1.287 . S
C2086 C2087 1.524 . S
C2086 H2105 0.913 . S
C2087 H2063 0.950 . S
C2087 C2086 1.524 . S
C2087 C2088 1.415 . S
C2088 H2064 0.950 . S
C2088 C2083 1.363 . S
C2088 C2087 1.415 . S
C2089 H2065 0.951 . S
C2089 C2090 1.366 . S
C2089 C2091 1.388 . S
C2090 C2089 1.366 . S
C2090 C2094 1.385 . S
C2091 H2066 0.951 . S
C2091 C2089 1.388 . S
C2091 C2092 1.366 . S
C2092 C2091 1.366 . S
C2092 C2093 1.414 . S
C2092 C2095 1.499 . S
C2093 H2067 0.950 . S
C2093 C2092 1.414 . S
C2093 C2094 1.374 . S
C2094 H2068 0.950 . S
C2094 C2090 1.385 . S
C2094 C2093 1.374 . S
C2095 C2092 1.499 . S
C2095 C2096 1.373 . S
C2095 C2097 1.389 . S
C2096 H2069 0.950 . S
C2096 C2082 1.377 . S
C2096 C2095 1.373 . S
C2097 C2081 1.377 . S
C2097 C2095 1.389 . S
C2097 C2098 1.524 . S
C2098 C2097 1.524 . S
C2098 C2099 1.397 . S
C2098 C2103 1.363 . S
C2099 H2070 0.950 . S
C2099 C2098 1.397 . S
C2099 C2100 1.334 . S
C2100 H2071 0.950 . S
C2100 C2099 1.334 . S
C2100 C2101 1.287 . S
C2101 C2100 1.287 . S
C2101 C2102 1.524 . S
C2101 H2104 0.999 . S
C2102 H2072 0.950 . S
C2102 C2101 1.524 . S
C2102 C2103 1.415 . S
C2103 H2073 0.950 . S
C2103 C2098 1.363 . S
C2103 C2102 1.415 . S
H2104 C2101 0.999 . S
H2105 C2086 0.913 . S
H2106 C2124 0.951 . S
H2107 C2126 0.951 . S
H2108 C2128 0.950 . S
H2109 C2129 0.950 . S
H2110 C2131 0.950 . S
H2111 C2134 0.950 . S
H2112 C2135 0.950 . S
H2113 C2137 0.950 . S
H2114 C2138 0.950 . S
H2115 C2139 0.951 . S
H2116 C2141 0.951 . S
H2117 C2143 0.950 . S
H2118 C2144 0.950 . S
H2119 C2146 0.950 . S
H2120 C2149 0.950 . S
H2121 C2150 0.950 . S
H2122 C2152 0.950 . S
H2123 C2153 0.950 . S
C2124 H2106 0.951 . S
C2124 C2125 1.366 . S
C2124 C2126 1.388 . S
C2125 C2124 1.366 . S
C2125 C2129 1.385 . S
C2126 H2107 0.951 . S
C2126 C2124 1.388 . S
C2126 C2127 1.366 . S
C2127 C2126 1.366 . S
C2127 C2128 1.414 . S
C2127 C2130 1.499 . S
C2128 H2108 0.950 . S
C2128 C2127 1.414 . S
C2128 C2129 1.374 . S
C2129 H2109 0.950 . S
C2129 C2125 1.385 . S
C2129 C2128 1.374 . S
C2130 C2127 1.499 . S
C2130 C2131 1.373 . S
C2130 C2132 1.389 . S
C2131 H2110 0.950 . S
C2131 C2130 1.373 . S
C2131 C2147 1.377 . S
C2132 C2130 1.389 . S
C2132 C2133 1.524 . S
C2132 C2146 1.377 . S
C2133 C2132 1.524 . S
C2133 C2134 1.397 . S
C2133 C2138 1.363 . S
C2134 H2111 0.950 . S
C2134 C2133 1.397 . S
C2134 C2135 1.334 . S
C2135 H2112 0.950 . S
C2135 C2134 1.334 . S
C2135 C2136 1.287 . S
C2136 C2135 1.287 . S
C2136 C2137 1.524 . S
C2136 H2155 0.913 . S
C2137 H2113 0.950 . S
C2137 C2136 1.524 . S
C2137 C2138 1.415 . S
C2138 H2114 0.950 . S
C2138 C2133 1.363 . S
C2138 C2137 1.415 . S
C2139 H2115 0.951 . S
C2139 C2140 1.366 . S
C2139 C2141 1.388 . S
C2140 C2139 1.366 . S
C2140 C2144 1.385 . S
C2141 H2116 0.951 . S
C2141 C2139 1.388 . S
C2141 C2142 1.366 . S
C2142 C2141 1.366 . S
C2142 C2143 1.414 . S
C2142 C2145 1.499 . S
C2143 H2117 0.950 . S
C2143 C2142 1.414 . S
C2143 C2144 1.374 . S
C2144 H2118 0.950 . S
C2144 C2140 1.385 . S
C2144 C2143 1.374 . S
C2145 C2142 1.499 . S
C2145 C2146 1.373 . S
C2145 C2147 1.389 . S
C2146 H2119 0.950 . S
C2146 C2132 1.377 . S
C2146 C2145 1.373 . S
C2147 C2131 1.377 . S
C2147 C2145 1.389 . S
C2147 C2148 1.524 . S
C2148 C2147 1.524 . S
C2148 C2149 1.397 . S
C2148 C2153 1.363 . S
C2149 H2120 0.950 . S
C2149 C2148 1.397 . S
C2149 C2150 1.334 . S
C2150 H2121 0.950 . S
C2150 C2149 1.334 . S
C2150 C2151 1.287 . S
C2151 C2150 1.287 . S
C2151 C2152 1.524 . S
C2151 H2154 0.999 . S
C2152 H2122 0.950 . S
C2152 C2151 1.524 . S
C2152 C2153 1.415 . S
C2153 H2123 0.950 . S
C2153 C2148 1.363 . S
C2153 C2152 1.415 . S
H2154 C2151 0.999 . S
H2155 C2136 0.913 . S
H2156 C2174 0.951 . S
H2157 C2176 0.951 . S
H2158 C2178 0.950 . S
H2159 C2179 0.950 . S
H2160 C2181 0.950 . S
H2161 C2184 0.950 . S
H2162 C2185 0.950 . S
H2163 C2187 0.950 . S
H2164 C2188 0.950 . S
H2165 C2189 0.951 . S
H2166 C2191 0.951 . S
H2167 C2193 0.950 . S
H2168 C2194 0.950 . S
H2169 C2196 0.950 . S
H2170 C2199 0.950 . S
H2171 C2200 0.950 . S
H2172 C2202 0.950 . S
H2173 C2203 0.950 . S
C2174 H2156 0.951 . S
C2174 C2175 1.366 . S
C2174 C2176 1.388 . S
C2175 C2174 1.366 . S
C2175 C2179 1.385 . S
C2176 H2157 0.951 . S
C2176 C2174 1.388 . S
C2176 C2177 1.366 . S
C2177 C2176 1.366 . S
C2177 C2178 1.414 . S
C2177 C2180 1.499 . S
C2178 H2158 0.950 . S
C2178 C2177 1.414 . S
C2178 C2179 1.374 . S
C2179 H2159 0.950 . S
C2179 C2175 1.385 . S
C2179 C2178 1.374 . S
C2180 C2177 1.499 . S
C2180 C2181 1.373 . S
C2180 C2182 1.389 . S
C2181 H2160 0.950 . S
C2181 C2180 1.373 . S
C2181 C2197 1.377 . S
C2182 C2180 1.389 . S
C2182 C2183 1.524 . S
C2182 C2196 1.377 . S
C2183 C2182 1.524 . S
C2183 C2184 1.397 . S
C2183 C2188 1.363 . S
C2184 H2161 0.950 . S
C2184 C2183 1.397 . S
C2184 C2185 1.334 . S
C2185 H2162 0.950 . S
C2185 C2184 1.334 . S
C2185 C2186 1.287 . S
C2186 C2185 1.287 . S
C2186 C2187 1.524 . S
C2186 H2205 0.913 . S
C2187 H2163 0.950 . S
C2187 C2186 1.524 . S
C2187 C2188 1.415 . S
C2188 H2164 0.950 . S
C2188 C2183 1.363 . S
C2188 C2187 1.415 . S
C2189 H2165 0.951 . S
C2189 C2190 1.366 . S
C2189 C2191 1.388 . S
C2190 C2189 1.366 . S
C2190 C2194 1.385 . S
C2191 H2166 0.951 . S
C2191 C2189 1.388 . S
C2191 C2192 1.366 . S
C2192 C2191 1.366 . S
C2192 C2193 1.414 . S
C2192 C2195 1.499 . S
C2193 H2167 0.950 . S
C2193 C2192 1.414 . S
C2193 C2194 1.374 . S
C2194 H2168 0.950 . S
C2194 C2190 1.385 . S
C2194 C2193 1.374 . S
C2195 C2192 1.499 . S
C2195 C2196 1.373 . S
C2195 C2197 1.389 . S
C2196 H2169 0.950 . S
C2196 C2182 1.377 . S
C2196 C2195 1.373 . S
C2197 C2181 1.377 . S
C2197 C2195 1.389 . S
C2197 C2198 1.524 . S
C2198 C2197 1.524 . S
C2198 C2199 1.397 . S
C2198 C2203 1.363 . S
C2199 H2170 0.950 . S
C2199 C2198 1.397 . S
C2199 C2200 1.334 . S
C2200 H2171 0.950 . S
C2200 C2199 1.334 . S
C2200 C2201 1.287 . S
C2201 C2200 1.287 . S
C2201 C2202 1.524 . S
C2201 H2204 0.999 . S
C2202 H2172 0.950 . S
C2202 C2201 1.524 . S
C2202 C2203 1.415 . S
C2203 H2173 0.950 . S
C2203 C2198 1.363 . S
C2203 C2202 1.415 . S
H2204 C2201 0.999 . S
H2205 C2186 0.913 . S
H2206 C2224 0.951 . S
H2207 C2226 0.951 . S
H2208 C2228 0.950 . S
H2209 C2229 0.950 . S
H2210 C2231 0.950 . S
H2211 C2234 0.950 . S
H2212 C2235 0.950 . S
H2213 C2237 0.950 . S
H2214 C2238 0.950 . S
H2215 C2239 0.951 . S
H2216 C2241 0.951 . S
H2217 C2243 0.950 . S
H2218 C2244 0.950 . S
H2219 C2246 0.950 . S
H2220 C2249 0.950 . S
H2221 C2250 0.950 . S
H2222 C2252 0.950 . S
H2223 C2253 0.950 . S
C2224 H2206 0.951 . S
C2224 C2225 1.366 . S
C2224 C2226 1.388 . S
C2225 C2224 1.366 . S
C2225 C2229 1.385 . S
C2226 H2207 0.951 . S
C2226 C2224 1.388 . S
C2226 C2227 1.366 . S
C2227 C2226 1.366 . S
C2227 C2228 1.414 . S
C2227 C2230 1.499 . S
C2228 H2208 0.950 . S
C2228 C2227 1.414 . S
C2228 C2229 1.374 . S
C2229 H2209 0.950 . S
C2229 C2225 1.385 . S
C2229 C2228 1.374 . S
C2230 C2227 1.499 . S
C2230 C2231 1.373 . S
C2230 C2232 1.389 . S
C2231 H2210 0.950 . S
C2231 C2230 1.373 . S
C2231 C2247 1.377 . S
C2232 C2230 1.389 . S
C2232 C2233 1.524 . S
C2232 C2246 1.377 . S
C2233 C2232 1.524 . S
C2233 C2234 1.397 . S
C2233 C2238 1.363 . S
C2234 H2211 0.950 . S
C2234 C2233 1.397 . S
C2234 C2235 1.334 . S
C2235 H2212 0.950 . S
C2235 C2234 1.334 . S
C2235 C2236 1.287 . S
C2236 C2235 1.287 . S
C2236 C2237 1.524 . S
C2236 H2255 0.913 . S
C2237 H2213 0.950 . S
C2237 C2236 1.524 . S
C2237 C2238 1.415 . S
C2238 H2214 0.950 . S
C2238 C2233 1.363 . S
C2238 C2237 1.415 . S
C2239 H2215 0.951 . S
C2239 C2240 1.366 . S
C2239 C2241 1.388 . S
C2240 C2239 1.366 . S
C2240 C2244 1.385 . S
C2241 H2216 0.951 . S
C2241 C2239 1.388 . S
C2241 C2242 1.366 . S
C2242 C2241 1.366 . S
C2242 C2243 1.414 . S
C2242 C2245 1.499 . S
C2243 H2217 0.950 . S
C2243 C2242 1.414 . S
C2243 C2244 1.374 . S
C2244 H2218 0.950 . S
C2244 C2240 1.385 . S
C2244 C2243 1.374 . S
C2245 C2242 1.499 . S
C2245 C2246 1.373 . S
C2245 C2247 1.389 . S
C2246 H2219 0.950 . S
C2246 C2232 1.377 . S
C2246 C2245 1.373 . S
C2247 C2231 1.377 . S
C2247 C2245 1.389 . S
C2247 C2248 1.524 . S
C2248 C2247 1.524 . S
C2248 C2249 1.397 . S
C2248 C2253 1.363 . S
C2249 H2220 0.950 . S
C2249 C2248 1.397 . S
C2249 C2250 1.334 . S
C2250 H2221 0.950 . S
C2250 C2249 1.334 . S
C2250 C2251 1.287 . S
C2251 C2250 1.287 . S
C2251 C2252 1.524 . S
C2251 H2254 0.999 . S
C2252 H2222 0.950 . S
C2252 C2251 1.524 . S
C2252 C2253 1.415 . S
C2253 H2223 0.950 . S
C2253 C2248 1.363 . S
C2253 C2252 1.415 . S
H2254 C2251 0.999 . S
H2255 C2236 0.913 . S
C1075 C20 1.294 . S
C1090 C585 1.295 . S
C1125 C108 1.295 . S
C1140 C665 1.294 . S
C1175 C205 1.286 . S
C1190 C753 1.286 . S
C1225 C841 1.295 . S
C1240 C293 1.294 . S
C1275 C381 1.295 . S
C1290 C937 1.295 . S
C1325 C1017 1.286 . S
C1340 C460 1.286 . S
C1375 C49 0.288 . S
C1390 C812 0.286 . S
C1425 C137 0.284 . S
C1440 C909 0.285 . S
C1475 C988 0.296 . S
C1490 C233 0.287 . S
C1525 C557 0.287 . S
C1540 C321 0.286 . S
C1575 C409 0.284 . S
C1590 C636 0.285 . S
C1625 C489 0.293 . S
C1640 C724 0.284 . S
C1675 C997 2.286 . S
C1690 C57 2.281 . S
C1725 C145 2.329 . S
C1740 C548 2.329 . S
C1775 C225 2.286 . S
C1790 C645 2.281 . S
C1825 C733 2.286 . S
C1840 C313 2.281 . S
C1875 C821 2.329 . S
C1890 C401 2.329 . S
C1925 C497 2.287 . S
C1940 C900 2.281 . S
C1975 C29 0.687 . S
C1990 C929 0.686 . S
C2025 C1025 0.678 . S
C2040 C117 0.681 . S
C2075 C577 0.674 . S
C2090 C196 0.679 . S
C2125 C284 0.685 . S
C2140 C673 0.685 . S
C2175 C761 0.677 . S
C2190 C372 0.680 . S
C2225 C849 0.678 . S
C2240 C469 0.682 . S
