# Generated by pormake.
# Topology uon, (4)-cn, num edge types: 1
# Building blocks:
#     Node 0, Type 0, BuildingBlock: NAWXER_clean_sbu_0, # of connection points: 4
#     Node 1, Type 0, BuildingBlock: NAWXER_clean_sbu_0, # of connection points: 4
#     Node 2, Type 0, BuildingBlock: NAWXER_clean_sbu_0, # of connection points: 4
#     Node 3, Type 0, BuildingBlock: NAWXER_clean_sbu_0, # of connection points: 4
#     Node 4, Type 0, BuildingBlock: NAWXER_clean_sbu_0, # of connection points: 4
#     Node 5, Type 0, BuildingBlock: NAWXER_clean_sbu_0, # of connection points: 4
#     Edge 6, Type (0, 0), BuildingBlock: MIFKUJ_clean_linker_0, # of connection points: 2
#     Edge 7, Type (0, 0), BuildingBlock: MIFKUJ_clean_linker_0, # of connection points: 2
#     Edge 8, Type (0, 0), BuildingBlock: MIFKUJ_clean_linker_0, # of connection points: 2
#     Edge 9, Type (0, 0), BuildingBlock: MIFKUJ_clean_linker_0, # of connection points: 2
#     Edge 10, Type (0, 0), BuildingBlock: MIFKUJ_clean_linker_0, # of connection points: 2
#     Edge 11, Type (0, 0), BuildingBlock: MIFKUJ_clean_linker_0, # of connection points: 2
#     Edge 12, Type (0, 0), BuildingBlock: MIFKUJ_clean_linker_0, # of connection points: 2
#     Edge 13, Type (0, 0), BuildingBlock: MIFKUJ_clean_linker_0, # of connection points: 2
#     Edge 14, Type (0, 0), BuildingBlock: MIFKUJ_clean_linker_0, # of connection points: 2
#     Edge 15, Type (0, 0), BuildingBlock: MIFKUJ_clean_linker_0, # of connection points: 2
#     Edge 16, Type (0, 0), BuildingBlock: MIFKUJ_clean_linker_0, # of connection points: 2
#     Edge 17, Type (0, 0), BuildingBlock: MIFKUJ_clean_linker_0, # of connection points: 2
# Relax obj value: 0.135
# Max RMSD: 0.134
# Mean RMSD: 0.134
data_MOF--net-uon--node1-NAWXER_clean_sbu_0--edge1-MIFKUJ_clean_linker_0
_symmetry_space_group_name_H-M    P1
_symmetry_Int_Tables_number       1
_symmetry_cell_setting            triclinic
loop_
_symmetry_equiv_pos_as_xyz
'x, y, z'
_cell_length_a     44.98024
_cell_length_b     45.017248
_cell_length_c     28.427369
_cell_angle_alpha  90.051467
_cell_angle_beta   90.023028
_cell_angle_gamma 120.03361
loop_
_atom_site_label
_atom_site_type_symbol
_atom_site_fract_x
_atom_site_fract_y
_atom_site_fract_z
_atom_type_partial_charge
C0 C 0.18218 0.37521 0.11062 0.0
C1 C 0.27974 0.46986 0.02935 0.0
O2 O 0.2134 0.39068 0.12394 0.0
Zn3 Zn 0.23244 0.42144 0.07048 0.0
O4 O 0.17429 0.38272 0.07073 0.0
Zn5 Zn 0.19894 0.41805 0.01399 0.0
O6 O 0.19327 0.38902 0.96004 0.0
O7 O 0.22924 0.38913 0.01295 0.0
O8 O 0.25137 0.45706 0.00666 0.0
O9 O 0.2807 0.4577 0.06936 0.0
O10 O 0.20766 0.45069 0.0794 0.0
O11 O 0.17624 0.44559 0.0169 0.0
C12 C 0.21401 0.37915 0.97306 0.0
C13 C 0.1872 0.45797 0.0577 0.0
C14 C 0.77498 0.15008 0.37307 0.0
C15 C 0.79506 0.25604 0.29837 0.0
O16 O 0.79342 0.17669 0.3983 0.0
Zn17 Zn 0.81487 0.23099 0.39365 0.0
O18 O 0.76593 0.15356 0.33202 0.0
Zn19 Zn 0.78766 0.20319 0.33254 0.0
O20 O 0.84169 0.22155 0.33045 0.0
O21 O 0.86416 0.24938 0.39656 0.0
O22 O 0.78146 0.22649 0.27942 0.0
O23 O 0.80832 0.26074 0.33959 0.0
O24 O 0.79131 0.23859 0.44553 0.0
O25 O 0.75774 0.21084 0.38519 0.0
C26 C 0.86803 0.23893 0.35673 0.0
C27 C 0.76186 0.22447 0.42603 0.0
C28 C 0.60824 0.85858 0.67496 0.0
C29 C 0.52427 0.75808 0.76196 0.0
O30 O 0.60273 0.83053 0.65569 0.0
Zn31 Zn 0.57094 0.77648 0.66838 0.0
O32 O 0.59316 0.85779 0.71306 0.0
Zn33 Zn 0.5667 0.80845 0.71945 0.0
O34 O 0.6032 0.79235 0.73613 0.0
O35 O 0.60347 0.76076 0.67699 0.0
O36 O 0.53583 0.78949 0.77211 0.0
O37 O 0.53474 0.75012 0.72456 0.0
O38 O 0.54219 0.76233 0.61254 0.0
O39 O 0.5325 0.79519 0.66032 0.0
C40 C 0.61438 0.77387 0.71738 0.0
C41 C 0.52601 0.77805 0.6219 0.0
C42 C 0.77506 0.62325 0.98693 0.0
C43 C 0.79849 0.54427 0.07638 0.0
O44 O 0.79334 0.61356 0.96421 0.0
Zn45 Zn 0.8167 0.58305 0.97592 0.0
O46 O 0.76718 0.61397 0.02946 0.0
Zn47 Zn 0.7887 0.58583 0.03488 0.0
O48 O 0.84264 0.62131 0.0375 0.0
O49 O 0.86607 0.61506 0.97299 0.0
O50 O 0.78263 0.55922 0.09138 0.0
O51 O 0.81216 0.55148 0.03534 0.0
O52 O 0.79387 0.54753 0.92825 0.0
O53 O 0.7599 0.54431 0.9866 0.0
C54 C 0.86937 0.62987 0.01233 0.0
C55 C 0.76461 0.53226 0.94823 0.0
C56 C 0.28299 0.81403 0.34476 0.0
C57 C 0.18212 0.80667 0.26712 0.0
O58 O 0.2825 0.82715 0.30536 0.0
Zn59 Zn 0.23361 0.8125 0.30561 0.0
O60 O 0.2551 0.79683 0.368 0.0
Zn61 Zn 0.20183 0.78067 0.36151 0.0
O62 O 0.18115 0.7309 0.35705 0.0
O63 O 0.21107 0.75864 0.29436 0.0
O64 O 0.17516 0.79059 0.30644 0.0
O65 O 0.21318 0.82386 0.25351 0.0
O66 O 0.22881 0.83971 0.36481 0.0
O67 O 0.19484 0.80141 0.41698 0.0
C68 C 0.19177 0.73037 0.31573 0.0
C69 C 0.21375 0.8326 0.40498 0.0
C70 C 0.46405 0.24091 0.75898 0.0
C71 C 0.37311 0.13787 0.68188 0.0
O72 O 0.45496 0.24684 0.71887 0.0
Zn73 Zn 0.41762 0.21903 0.66443 0.0
O74 O 0.44758 0.21093 0.77662 0.0
Zn75 Zn 0.41632 0.18983 0.72405 0.0
O76 O 0.45319 0.19706 0.67034 0.0
O77 O 0.44859 0.22716 0.61227 0.0
O78 O 0.38493 0.14037 0.7232 0.0
O79 O 0.38313 0.16515 0.65743 0.0
O80 O 0.38859 0.23972 0.66413 0.0
O81 O 0.38467 0.21268 0.7304 0.0
C82 C 0.46323 0.21189 0.63029 0.0
C83 C 0.37638 0.2311 0.70536 0.0
H84 H 0.19723 0.36289 0.87959 0.0
H85 H 0.2197 0.33601 0.82596 0.0
H86 H 0.27483 0.32336 0.94111 0.0
H87 H 0.25288 0.35018 0.99445 0.0
H88 H 0.31629 0.35409 0.8673 0.0
H89 H 0.20354 0.25522 0.89269 0.0
H90 H 0.14022 0.22361 0.89173 0.0
H91 H 0.14077 0.23908 0.74263 0.0
H92 H 0.20414 0.27119 0.74282 0.0
H93 H 0.36263 0.23326 0.79806 0.0
H94 H 0.33067 0.25804 0.83384 0.0
H95 H 0.30872 0.2829 0.69655 0.0
H96 H 0.34161 0.25871 0.66006 0.0
H97 H 0.24969 0.24998 0.76928 0.0
H98 H 0.36133 0.34561 0.74213 0.0
H99 H 0.42459 0.37882 0.74183 0.0
H100 H 0.42594 0.37113 0.89227 0.0
H101 H 0.36262 0.33731 0.8934 0.0
C102 C 0.21368 0.35386 0.89358 0.0
C103 C 0.22339 0.35889 0.94131 0.0
C104 C 0.22651 0.3385 0.86288 0.0
C105 C 0.24909 0.32778 0.87947 0.0
C106 C 0.25767 0.33164 0.9274 0.0
C107 C 0.24497 0.34693 0.95793 0.0
C108 C 0.26561 0.31435 0.84706 0.0
C109 C 0.30164 0.33117 0.84616 0.0
C110 C 0.24662 0.28525 0.81797 0.0
C111 C 0.20856 0.26596 0.81787 0.0
C112 C 0.19016 0.25215 0.85977 0.0
C113 C 0.15426 0.23408 0.85935 0.0
C114 C 0.13648 0.22944 0.81717 0.0
C115 C 0.15457 0.24276 0.77529 0.0
C116 C 0.19048 0.26087 0.77553 0.0
C117 C 0.3508 0.24368 0.77526 0.0
C118 C 0.35473 0.24404 0.72614 0.0
C119 C 0.33257 0.25789 0.79585 0.0
C120 C 0.31741 0.27232 0.76785 0.0
C121 C 0.32021 0.27179 0.7187 0.0
C122 C 0.33908 0.25809 0.69798 0.0
C123 C 0.30016 0.28923 0.79086 0.0
C124 C 0.26419 0.27313 0.79001 0.0
C125 C 0.31912 0.31916 0.81824 0.0
C126 C 0.35722 0.33862 0.81778 0.0
C127 C 0.37511 0.35058 0.7751 0.0
C128 C 0.41098 0.36962 0.77479 0.0
C129 C 0.42926 0.37709 0.81699 0.0
C130 C 0.41173 0.36534 0.8596 0.0
C131 C 0.37584 0.34623 0.8601 0.0
H132 H 0.45702 0.39208 0.81666 0.0
H133 H 0.10868 0.21543 0.81691 0.0
H134 H 0.88474 0.2254 0.27022 0.0
H135 H 0.94154 0.24247 0.23949 0.0
H136 H 0.98685 0.28902 0.37281 0.0
H137 H 0.92978 0.27271 0.40363 0.0
H138 H 0.02163 0.33085 0.30452 0.0
H139 H 0.98308 0.21325 0.33401 0.0
H140 H 0.94332 0.15076 0.33245 0.0
H141 H 0.94728 0.15133 0.18153 0.0
H142 H 0.98669 0.21391 0.18211 0.0
H143 H 0.18363 0.37226 0.20696 0.0
H144 H 0.13397 0.3429 0.25956 0.0
H145 H 0.06748 0.29822 0.1395 0.0
H146 H 0.11674 0.32738 0.08698 0.0
H147 H 0.04832 0.25283 0.2139 0.0
H148 H 0.07605 0.37082 0.18618 0.0
H149 H 0.11342 0.43368 0.18697 0.0
H150 H 0.1296 0.43127 0.3355 0.0
H151 H 0.09205 0.36827 0.33554 0.0
C152 C 0.90668 0.23898 0.2933 0.0
C153 C 0.90263 0.24765 0.33948 0.0
C154 C 0.93924 0.24854 0.27571 0.0
C155 C 0.96857 0.26655 0.304 0.0
C156 C 0.96463 0.27498 0.35034 0.0
C157 C 0.93197 0.2656 0.36794 0.0
C158 C 1.00333 0.27841 0.28388 0.0
C159 C 0.02771 0.31355 0.28579 0.0
C160 C 0.01129 0.25607 0.25869 0.0
C161 C 0.98772 0.21835 0.25812 0.0
C162 C 0.97531 0.2001 0.30046 0.0
C163 C 0.95285 0.16464 0.29976 0.0
C164 C 0.94274 0.14709 0.25692 0.0
C165 C 0.95514 0.16496 0.21469 0.0
C166 C 0.97758 0.20042 0.21519 0.0
C167 C 0.15856 0.35544 0.19188 0.0
C168 C 0.15409 0.35227 0.14279 0.0
C169 C 0.13018 0.3389 0.22195 0.0
C170 C 0.09694 0.31873 0.20341 0.0
C171 C 0.09283 0.31368 0.15461 0.0
C172 C 0.12105 0.33042 0.12461 0.0
C173 C 0.06603 0.30516 0.23393 0.0
C174 C 0.0424 0.26981 0.23376 0.0
C175 C 0.05873 0.32721 0.26084 0.0
C176 C 0.08166 0.3649 0.26076 0.0
C177 C 0.08783 0.3837 0.21891 0.0
C178 C 0.10899 0.41935 0.21923 0.0
C179 C 0.12412 0.43648 0.2612 0.0
C180 C 0.11796 0.41797 0.30299 0.0
C181 C 0.09667 0.38231 0.30289 0.0
H182 H 0.14045 0.46408 0.26147 0.0
H183 H 0.92534 0.11964 0.25645 0.0
H184 H 0.7125 0.09308 0.35769 0.0
H185 H 0.68512 0.04113 0.4065 0.0
H186 H 0.77848 0.07834 0.48661 0.0
H187 H 0.80562 0.13077 0.43915 0.0
H188 H 0.72564 0.9948 0.44765 0.0
H189 H 0.74401 0.09567 0.54708 0.0
H190 H 0.73884 0.14762 0.55308 0.0
H191 H 0.63158 0.08825 0.51904 0.0
H192 H 0.63635 0.03609 0.51203 0.0
H193 H 0.67457 0.88787 0.64578 0.0
H194 H 0.70484 0.93743 0.59354 0.0
H195 H 0.61467 0.94818 0.58827 0.0
H196 H 0.58569 0.9005 0.64362 0.0
H197 H 0.66429 0.00719 0.58472 0.0
H198 H 0.63856 0.90653 0.49832 0.0
H199 H 0.63699 0.8521 0.48075 0.0
H200 H 0.74718 0.90488 0.47624 0.0
H201 H 0.74942 0.95958 0.49441 0.0
C202 C 0.72746 0.08972 0.38485 0.0
C203 C 0.76114 0.11591 0.39476 0.0
C204 C 0.71176 0.06016 0.41275 0.0
C205 C 0.72982 0.05617 0.45014 0.0
C206 C 0.76422 0.08109 0.45785 0.0
C207 C 0.77964 0.11095 0.43076 0.0
C208 C 0.71189 0.02794 0.48425 0.0
C209 C 0.71251 0.99743 0.47799 0.0
C210 C 0.69369 0.03113 0.52251 0.0
C211 C 0.69061 0.06215 0.52864 0.0
C212 C 0.7194 0.09378 0.54062 0.0
C213 C 0.71654 0.12325 0.54422 0.0
C214 C 0.68492 0.12127 0.53632 0.0
C215 C 0.65606 0.08977 0.52507 0.0
C216 C 0.65883 0.06026 0.5213 0.0
C217 C 0.6617 0.90148 0.63422 0.0
C218 C 0.62811 0.89085 0.64893 0.0
C219 C 0.67873 0.92945 0.60382 0.0
C220 C 0.6618 0.94613 0.58563 0.0
C221 C 0.62844 0.93593 0.60159 0.0
C222 C 0.61188 0.90874 0.6333 0.0
C223 C 0.67846 0.97357 0.54931 0.0
C224 C 0.67743 0.00411 0.55477 0.0
C225 C 0.69538 0.96987 0.5094 0.0
C226 C 0.69416 0.93709 0.49815 0.0
C227 C 0.66246 0.90649 0.49385 0.0
C228 C 0.66144 0.8756 0.48376 0.0
C229 C 0.69196 0.87502 0.47749 0.0
C230 C 0.72356 0.90536 0.48116 0.0
C231 C 0.72472 0.93632 0.49131 0.0
H232 H 0.69113 0.85108 0.46971 0.0
H233 H 0.68278 0.14411 0.53899 0.0
H234 H 0.77686 0.63541 0.8929 0.0
H235 H 0.75302 0.66574 0.85089 0.0
H236 H 0.71991 0.68775 0.98225 0.0
H237 H 0.7428 0.65606 0.02472 0.0
H238 H 0.6711 0.66901 0.92065 0.0
H239 H 0.79043 0.75077 0.9183 0.0
H240 H 0.85224 0.77257 0.90637 0.0
H241 H 0.83463 0.74849 0.7592 0.0
H242 H 0.77261 0.72608 0.77034 0.0
H243 H 0.63092 0.78651 0.81049 0.0
H244 H 0.66177 0.7658 0.85866 0.0
H245 H 0.67913 0.72005 0.73613 0.0
H246 H 0.64792 0.74041 0.68749 0.0
H247 H 0.7375 0.7552 0.79765 0.0
H248 H 0.6163 0.6709 0.80429 0.0
H249 H 0.55533 0.65216 0.8186 0.0
H250 H 0.57836 0.68534 0.96232 0.0
H251 H 0.63962 0.70487 0.94863 0.0
C252 C 0.76478 0.6469 0.91308 0.0
C253 C 0.76194 0.64345 0.9623 0.0
C254 C 0.75126 0.66446 0.88891 0.0
C255 C 0.73519 0.6797 0.91333 0.0
C256 C 0.73231 0.67636 0.96257 0.0
C257 C 0.7455 0.65834 0.98684 0.0
C258 C 0.72045 0.69797 0.88699 0.0
C259 C 0.68588 0.68832 0.89443 0.0
C260 C 0.73947 0.72292 0.85219 0.0
C261 C 0.7768 0.73649 0.84525 0.0
C262 C 0.79969 0.74989 0.88344 0.0
C263 C 0.83478 0.7624 0.87681 0.0
C264 C 0.84734 0.76185 0.83207 0.0
C265 C 0.82485 0.74888 0.79384 0.0
C266 C 0.78973 0.73631 0.80028 0.0
C267 C 0.64168 0.77246 0.79352 0.0
C268 C 0.63681 0.76499 0.74507 0.0
C269 C 0.65919 0.76053 0.82123 0.0
C270 C 0.67239 0.7411 0.80105 0.0
C271 C 0.66904 0.73495 0.75237 0.0
C272 C 0.65118 0.74657 0.72465 0.0
C273 C 0.68829 0.72586 0.83107 0.0
C274 C 0.72298 0.7361 0.82425 0.0
C275 C 0.66955 0.70188 0.86688 0.0
C276 C 0.63263 0.68971 0.87528 0.0
C277 C 0.60842 0.67448 0.83884 0.0
C278 C 0.5738 0.66367 0.84685 0.0
C279 C 0.56299 0.66765 0.8913 0.0
C280 C 0.58678 0.68234 0.92788 0.0
C281 C 0.62145 0.69328 0.92002 0.0
H282 H 0.53618 0.65928 0.89743 0.0
H283 H 0.87452 0.77154 0.82701 0.0
H284 H 0.8844 0.65776 0.10019 0.0
H285 H 0.94045 0.6958 0.13422 0.0
H286 H 0.98883 0.69789 0.00228 0.0
H287 H 0.93232 0.6585 0.96811 0.0
H288 H 0.02278 0.68997 0.07143 0.0
H289 H 0.98312 0.76878 0.04386 0.0
H290 H 0.94236 0.7903 0.04571 0.0
H291 H 0.94304 0.78917 0.19673 0.0
H292 H 0.98344 0.76719 0.19582 0.0
H293 H 0.18297 0.81344 0.17117 0.0
H294 H 0.13298 0.7925 0.11897 0.0
H295 H 0.06631 0.76473 0.23966 0.0
H296 H 0.11593 0.78533 0.29187 0.0
H297 H 0.04612 0.79233 0.16561 0.0
H298 H 0.07854 0.70571 0.19153 0.0
H299 H 0.12021 0.68538 0.19081 0.0
H300 H 0.13356 0.70251 0.04183 0.0
H301 H 0.09222 0.72344 0.0418 0.0
C302 C 0.90684 0.66651 0.07805 0.0
C303 C 0.90374 0.65514 0.03123 0.0
C304 C 0.93901 0.68852 0.0976 0.0
C305 C 0.96901 0.70039 0.07068 0.0
C306 C 0.96609 0.68929 0.02375 0.0
C307 C 0.93376 0.66685 0.0042 0.0
C308 C 1.00326 0.72301 0.09264 0.0
C309 C 0.02811 0.71281 0.09102 0.0
C310 C 0.01026 0.7526 0.11901 0.0
C311 C 0.98619 0.76615 0.11974 0.0
C312 C 0.97444 0.77293 0.07747 0.0
C313 C 0.95141 0.78524 0.07835 0.0
C314 C 0.94008 0.79105 0.12131 0.0
C315 C 0.95184 0.78466 0.16348 0.0
C316 C 0.97485 0.77233 0.1628 0.0
C317 C 0.15776 0.80372 0.18656 0.0
C318 C 0.15339 0.80088 0.23567 0.0
C319 C 0.1292 0.79157 0.15669 0.0
C320 C 0.09589 0.77669 0.17545 0.0
C321 C 0.09175 0.77607 0.22441 0.0
C322 C 0.12016 0.7878 0.25422 0.0
C323 C 0.06508 0.75893 0.14474 0.0
C324 C 0.04091 0.76993 0.14501 0.0
C325 C 0.05871 0.73017 0.11707 0.0
C326 C 0.0827 0.7166 0.11677 0.0
C327 C 0.09059 0.70542 0.15868 0.0
C328 C 0.11423 0.6939 0.15844 0.0
C329 C 0.12986 0.69305 0.11638 0.0
C330 C 0.12161 0.70341 0.07442 0.0
C331 C 0.09807 0.7151 0.07451 0.0
H332 H 0.14809 0.68403 0.1162 0.0
H333 H 0.92224 0.80055 0.12192 0.0
H334 H 0.34871 0.12496 0.592 0.0
H335 H 0.31443 0.06971 0.5537 0.0
H336 H 0.31 0.01801 0.68344 0.0
H337 H 0.34544 0.07372 0.72204 0.0
H338 H 0.32384 0.98871 0.6132 0.0
H339 H 0.23838 0.01955 0.63895 0.0
H340 H 0.21261 0.05668 0.63862 0.0
H341 H 0.219 0.06248 0.48791 0.0
H342 H 0.24527 0.02577 0.48734 0.0
H343 H 0.20686 0.82934 0.50099 0.0
H344 H 0.22639 0.87766 0.55597 0.0
H345 H 0.25709 0.94792 0.43916 0.0
H346 H 0.23814 0.89999 0.38415 0.0
H347 H 0.22338 0.9627 0.51276 0.0
H348 H 0.31517 0.93727 0.48984 0.0
H349 H 0.33989 0.89919 0.49067 0.0
H350 H 0.31963 0.88215 0.63871 0.0
H351 H 0.29418 0.91965 0.63856 0.0
C352 C 0.34022 0.10193 0.61273 0.0
C353 C 0.3498 0.10388 0.66026 0.0
C354 C 0.32038 0.07022 0.59072 0.0
C355 C 0.30905 0.03953 0.61575 0.0
C356 C 0.31827 0.04129 0.66338 0.0
C357 C 0.33842 0.07317 0.68547 0.0
C358 C 0.28906 0.00589 0.59115 0.0
C359 C 0.3014 0.98272 0.59215 0.0
C360 C 0.25997 0.99807 0.56304 0.0
C361 C 0.244 0.02005 0.56315 0.0
C362 C 0.2345 0.02892 0.60575 0.0
C363 C 0.21977 0.04987 0.60572 0.0
C364 C 0.21422 0.06197 0.56328 0.0
C365 C 0.22332 0.05308 0.52076 0.0
C366 C 0.23809 0.03216 0.52059 0.0
C367 C 0.21723 0.85503 0.48703 0.0
C368 C 0.22107 0.86087 0.43821 0.0
C369 C 0.22851 0.88259 0.51848 0.0
C370 C 0.2434 0.91638 0.50162 0.0
C371 C 0.24567 0.92206 0.45291 0.0
C372 C 0.23491 0.89464 0.42153 0.0
C373 C 0.2586 0.94613 0.53432 0.0
C374 C 0.24541 0.96852 0.53465 0.0
C375 C 0.28671 0.95311 0.56386 0.0
C376 C 0.30237 0.9309 0.56407 0.0
C377 C 0.3157 0.92515 0.52249 0.0
C378 C 0.32989 0.90372 0.52284 0.0
C379 C 0.33124 0.88818 0.56469 0.0
C380 C 0.31849 0.89414 0.6063 0.0
C381 C 0.30418 0.91547 0.6061 0.0
H382 H 0.34224 0.8716 0.56489 0.0
H383 H 0.20282 0.0782 0.56333 0.0
H384 H 0.18891 0.72043 0.22147 0.0
H385 H 0.17764 0.66869 0.17902 0.0
H386 H 0.16202 0.61522 0.31047 0.0
H387 H 0.17281 0.66713 0.35363 0.0
H388 H 0.21286 0.61569 0.24654 0.0
H389 H 0.09686 0.59202 0.24722 0.0
H390 H 0.04896 0.60281 0.23403 0.0
H391 H 0.06932 0.61246 0.08567 0.0
H392 H 0.11805 0.60276 0.09804 0.0
H393 H 0.17855 0.46064 0.15096 0.0
H394 H 0.17002 0.50238 0.19428 0.0
H395 H 0.16501 0.54854 0.06383 0.0
H396 H 0.17257 0.50561 0.0197 0.0
H397 H 0.12168 0.55046 0.12839 0.0
H398 H 0.23995 0.58181 0.12562 0.0
H399 H 0.28962 0.57317 0.13487 0.0
H400 H 0.2676 0.55311 0.28214 0.0
H401 H 0.21744 0.56108 0.27362 0.0
C402 C 0.1827 0.69757 0.24146 0.0
C403 C 0.18194 0.69785 0.29094 0.0
C404 C 0.17598 0.66797 0.21705 0.0
C405 C 0.16872 0.63813 0.24157 0.0
C406 C 0.16731 0.63801 0.29098 0.0
C407 C 0.17344 0.66758 0.31554 0.0
C408 C 0.16608 0.60845 0.21542 0.0
C409 C 0.19253 0.60094 0.2214 0.0
C410 C 0.14036 0.59041 0.18111 0.0
C411 C 0.11145 0.597 0.17367 0.0
C412 C 0.09151 0.59694 0.21184 0.0
C413 C 0.0641 0.60275 0.20449 0.0
C414 C 0.05607 0.60827 0.15904 0.0
C415 C 0.07548 0.60804 0.12084 0.0
C416 C 0.10308 0.6025 0.12804 0.0
C417 C 0.17514 0.47936 0.13135 0.0
C418 C 0.1767 0.48024 0.08198 0.0
C419 C 0.1703 0.50323 0.15621 0.0
C420 C 0.16777 0.52913 0.13244 0.0
C421 C 0.16714 0.52888 0.08292 0.0
C422 C 0.17145 0.50442 0.05776 0.0
C423 C 0.16835 0.55757 0.15979 0.0
C424 C 0.14182 0.56506 0.15379 0.0
C425 C 0.1944 0.57626 0.19351 0.0
C426 C 0.22475 0.57174 0.19888 0.0
C427 C 0.24556 0.57533 0.15992 0.0
C428 C 0.27381 0.57057 0.16503 0.0
C429 C 0.28171 0.56252 0.20904 0.0
C430 C 0.26142 0.5593 0.24806 0.0
C431 C 0.23309 0.56396 0.24312 0.0
H432 H 0.3036 0.55885 0.21293 0.0
H433 H 0.03488 0.61282 0.15342 0.0
H434 H 0.48332 0.22455 0.5376 0.0
H435 H 0.53463 0.22727 0.5025 0.0
H436 H 0.56315 0.20619 0.63793 0.0
H437 H 0.51201 0.20275 0.67289 0.0
H438 H 0.61764 0.26358 0.58669 0.0
H439 H 0.53059 0.14411 0.56811 0.0
H440 H 0.4745 0.09688 0.54159 0.0
H441 H 0.50004 0.13095 0.39863 0.0
H442 H 0.55613 0.17872 0.42444 0.0
H443 H 0.75048 0.22911 0.52012 0.0
H444 H 0.69988 0.22741 0.55557 0.0
H445 H 0.65689 0.21973 0.41724 0.0
H446 H 0.70635 0.22 0.38217 0.0
H447 H 0.60914 0.17734 0.47057 0.0
H448 H 0.69519 0.29589 0.48519 0.0
H449 H 0.75067 0.34549 0.50875 0.0
H450 H 0.72727 0.31731 0.65399 0.0
H451 H 0.67184 0.2672 0.63123 0.0
C452 C 0.5005 0.22039 0.55974 0.0
C453 C 0.49351 0.21318 0.60787 0.0
C454 C 0.52972 0.22196 0.53972 0.0
C455 C 0.55257 0.21693 0.56776 0.0
C456 C 0.54583 0.21019 0.61581 0.0
C457 C 0.51645 0.20799 0.63558 0.0
C458 C 0.58347 0.21833 0.54723 0.0
C459 C 0.61593 0.24462 0.56157 0.0
C460 C 0.58101 0.19398 0.51382 0.0
C461 C 0.54737 0.16521 0.49827 0.0
C462 C 0.52411 0.14173 0.53108 0.0
C463 C 0.49235 0.11482 0.51617 0.0
C464 C 0.48366 0.11098 0.46847 0.0
C465 C 0.50677 0.13399 0.43558 0.0
C466 C 0.53856 0.16097 0.45032 0.0
C467 C 0.73023 0.22718 0.49745 0.0
C468 C 0.73232 0.22464 0.44845 0.0
C469 C 0.70139 0.22634 0.51764 0.0
C470 C 0.67463 0.2238 0.48905 0.0
C471 C 0.677 0.22152 0.44013 0.0
C472 C 0.70537 0.22174 0.4201 0.0
C473 C 0.64377 0.22289 0.50962 0.0
C474 C 0.61115 0.19654 0.49547 0.0
C475 C 0.64614 0.24757 0.54266 0.0
C476 C 0.67953 0.27757 0.55645 0.0
C477 C 0.70201 0.30008 0.52212 0.0
C478 C 0.73342 0.32832 0.53534 0.0
C479 C 0.74254 0.33448 0.58283 0.0
C480 C 0.72021 0.31245 0.61721 0.0
C481 C 0.68879 0.28414 0.60417 0.0
H482 H 0.76686 0.35637 0.59299 0.0
H483 H 0.45906 0.09012 0.45699 0.0
H484 H 0.48224 0.69055 0.74094 0.0
H485 H 0.44392 0.64449 0.79403 0.0
H486 H 0.47439 0.71671 0.90864 0.0
H487 H 0.51249 0.76331 0.85539 0.0
H488 H 0.4731 0.64951 0.92652 0.0
H489 H 0.40331 0.69613 0.87202 0.0
H490 H 0.37853 0.71657 0.81149 0.0
H491 H 0.33011 0.61742 0.74547 0.0
H492 H 0.35506 0.59653 0.80525 0.0
H493 H 0.33371 0.52528 0.07299 0.0
H494 H 0.37923 0.577 0.0343 0.0
H495 H 0.34026 0.53049 0.89861 0.0
H496 H 0.29451 0.47987 0.93685 0.0
H497 H 0.34739 0.59065 0.89904 0.0
H498 H 0.41814 0.54379 0.94723 0.0
H499 H 0.44475 0.52199 0.00291 0.0
H500 H 0.49258 0.61843 0.07611 0.0
H501 H 0.46584 0.64066 0.02122 0.0
C502 C 0.48074 0.69671 0.77739 0.0
C503 C 0.50019 0.7306 0.79391 0.0
C504 C 0.45891 0.67036 0.80766 0.0
C505 C 0.45644 0.67727 0.85517 0.0
C506 C 0.47609 0.71094 0.87207 0.0
C507 C 0.49756 0.73751 0.84155 0.0
C508 C 0.43237 0.64919 0.8864 0.0
C509 C 0.44553 0.63689 0.92128 0.0
C510 C 0.39659 0.63247 0.87864 0.0
C511 C 0.3813 0.64487 0.84289 0.0
C512 C 0.38762 0.67877 0.84438 0.0
C513 C 0.37349 0.69042 0.81024 0.0
C514 C 0.35282 0.66833 0.7746 0.0
C515 C 0.34615 0.63451 0.77309 0.0
C516 C 0.36025 0.62274 0.80711 0.0
C517 C 0.33539 0.52602 0.03496 0.0
C518 C 0.31051 0.49877 0.00786 0.0
C519 C 0.36137 0.55553 0.01285 0.0
C520 C 0.36313 0.55779 0.96341 0.0
C521 C 0.33927 0.52965 0.9367 0.0
C522 C 0.31317 0.50064 0.95861 0.0
C523 C 0.38793 0.58995 0.93876 0.0
C524 C 0.37488 0.60324 0.90498 0.0
C525 C 0.4238 0.60717 0.94722 0.0
C526 C 0.43959 0.59372 0.98052 0.0
C527 C 0.43402 0.56023 0.97551 0.0
C528 C 0.4492 0.54782 0.00685 0.0
C529 C 0.47023 0.56877 0.04314 0.0
C530 C 0.4762 0.6022 0.04807 0.0
C531 C 0.46105 0.61472 0.01685 0.0
H532 H 0.48199 0.55912 0.06734 0.0
H533 H 0.34191 0.6774 0.7482 0.0
H534 H 0.82276 0.5029 0.04708 0.0
H535 H 0.81978 0.45396 0.08765 0.0
H536 H 0.77268 0.47292 0.20724 0.0
H537 H 0.77519 0.52228 0.16643 0.0
H538 H 0.82866 0.4584 0.22706 0.0
H539 H 0.72228 0.41255 0.14043 0.0
H540 H 0.68889 0.40568 0.06835 0.0
H541 H 0.73992 0.35914 0.99833 0.0
H542 H 0.77409 0.36629 0.06975 0.0
H543 H 0.78544 0.30415 0.34106 0.0
H544 H 0.78288 0.35192 0.3051 0.0
H545 H 0.79964 0.32102 0.16838 0.0
H546 H 0.79987 0.27152 0.20436 0.0
H547 H 0.7571 0.34225 0.15832 0.0
H548 H 0.86572 0.3901 0.23631 0.0
H549 H 0.90557 0.401 0.30225 0.0
H550 H 0.85765 0.4468 0.38168 0.0
H551 H 0.81722 0.43579 0.31641 0.0
C552 C 0.81197 0.497 0.08217 0.0
C553 C 0.79908 0.51651 0.10348 0.0
C554 C 0.8102 0.46888 0.10519 0.0
C555 C 0.79567 0.45967 0.15009 0.0
C556 C 0.78385 0.47966 0.17241 0.0
C557 C 0.7853 0.50777 0.1491 0.0
C558 C 0.79249 0.42871 0.17294 0.0
C559 C 0.81254 0.43286 0.21274 0.0
C560 C 0.77245 0.39574 0.15282 0.0
C561 C 0.75094 0.39018 0.11041 0.0
C562 C 0.72651 0.40099 0.10961 0.0
C563 C 0.70744 0.39705 0.06886 0.0
C564 C 0.71233 0.38204 0.02876 0.0
C565 C 0.73617 0.37077 0.02942 0.0
C566 C 0.75537 0.37472 0.07006 0.0
C567 C 0.7886 0.30758 0.30331 0.0
C568 C 0.79338 0.28453 0.27547 0.0
C569 C 0.78729 0.33501 0.28277 0.0
C570 C 0.79211 0.34084 0.23412 0.0
C571 C 0.79608 0.31727 0.20604 0.0
C572 C 0.79636 0.28911 0.22653 0.0
C573 C 0.79336 0.37169 0.21292 0.0
C574 C 0.77305 0.36762 0.17318 0.0
C575 C 0.81382 0.40496 0.23244 0.0
C576 C 0.83824 0.41183 0.27165 0.0
C577 C 0.86355 0.40231 0.26795 0.0
C578 C 0.88625 0.40853 0.30519 0.0
C579 C 0.88409 0.4245 0.34617 0.0
C580 C 0.85927 0.43439 0.34994 0.0
C581 C 0.83648 0.4282 0.31282 0.0
H582 H 0.90168 0.42928 0.37497 0.0
H583 H 0.69761 0.37912 0.9972 0.0
H584 H 0.33467 0.8102 0.29906 0.0
H585 H 0.38283 0.80742 0.33595 0.0
H586 H 0.35104 0.82353 0.47216 0.0
H587 H 0.30265 0.82527 0.43585 0.0
H588 H 0.42537 0.86163 0.45442 0.0
H589 H 0.32425 0.74658 0.44346 0.0
H590 H 0.27886 0.69809 0.39871 0.0
H591 H 0.35539 0.6909 0.31724 0.0
H592 H 0.40125 0.73977 0.36107 0.0
H593 H 0.48105 0.80076 0.63753 0.0
H594 H 0.44574 0.80915 0.58019 0.0
H595 H 0.48108 0.76776 0.47093 0.0
H596 H 0.51634 0.75864 0.52874 0.0
H597 H 0.41342 0.74591 0.46072 0.0
H598 H 0.51472 0.85297 0.47907 0.0
H599 H 0.56163 0.90145 0.52186 0.0
H600 H 0.48931 0.92583 0.58351 0.0
H601 H 0.44183 0.87708 0.54183 0.0
C602 C 0.33848 0.8138 0.33672 0.0
C603 C 0.315 0.81781 0.36472 0.0
C604 C 0.36583 0.8121 0.35772 0.0
C605 C 0.37035 0.81514 0.40678 0.0
C606 C 0.34803 0.82117 0.43428 0.0
C607 C 0.32037 0.82205 0.41353 0.0
C608 C 0.39637 0.80933 0.43051 0.0
C609 C 0.42287 0.83639 0.45582 0.0
C610 C 0.39368 0.77664 0.43101 0.0
C611 C 0.36613 0.74709 0.40508 0.0
C612 C 0.33138 0.73486 0.41571 0.0
C613 C 0.30558 0.70728 0.39057 0.0
C614 C 0.31423 0.69149 0.35504 0.0
C615 C 0.34872 0.7032 0.34469 0.0
C616 C 0.37463 0.73084 0.36966 0.0
C617 C 0.48118 0.79312 0.60141 0.0
C618 C 0.50177 0.77927 0.58766 0.0
C619 C 0.46108 0.79813 0.56856 0.0
C620 C 0.46139 0.78989 0.521 0.0
C621 C 0.48067 0.77459 0.50738 0.0
C622 C 0.50075 0.76934 0.54046 0.0
C623 C 0.44191 0.798 0.48598 0.0
C624 C 0.41659 0.7714 0.45857 0.0
C625 C 0.44609 0.83132 0.48292 0.0
C626 C 0.47463 0.86117 0.50747 0.0
C627 C 0.50876 0.86853 0.50196 0.0
C628 C 0.53547 0.89607 0.52602 0.0
C629 C 0.52845 0.91667 0.55542 0.0
C630 C 0.49471 0.90984 0.56072 0.0
C631 C 0.46788 0.88226 0.53683 0.0
H632 H 0.54915 0.93796 0.57406 0.0
H633 H 0.29422 0.67013 0.33561 0.0
H634 H 0.48481 0.24533 0.85118 0.0
H635 H 0.53755 0.29161 0.88711 0.0
H636 H 0.56687 0.34414 0.75381 0.0
H637 H 0.51445 0.29874 0.71806 0.0
H638 H 0.62088 0.33952 0.80214 0.0
H639 H 0.5321 0.36899 0.8298 0.0
H640 H 0.47619 0.35707 0.86119 0.0
H641 H 0.50872 0.35105 1.00107 0.0
H642 H 0.5645 0.36166 0.97028 0.0
H643 H 0.75072 0.51007 0.8565 0.0
H644 H 0.70094 0.4572 0.8274 0.0
H645 H 0.66587 0.42738 0.97014 0.0
H646 H 0.71437 0.48067 0.99883 0.0
H647 H 0.6145 0.41647 0.92165 0.0
H648 H 0.70171 0.38758 0.90088 0.0
H649 H 0.75688 0.39411 0.87456 0.0
H650 H 0.72833 0.39443 0.73047 0.0
H651 H 0.67315 0.38841 0.75596 0.0
C652 C 0.50251 0.26679 0.82966 0.0
C653 C 0.49529 0.26852 0.78192 0.0
C654 C 0.53259 0.29311 0.85015 0.0
C655 C 0.55608 0.32122 0.823 0.0
C656 C 0.54915 0.32262 0.77528 0.0
C657 C 0.51899 0.29675 0.75505 0.0
C658 C 0.58741 0.34999 0.8442 0.0
C659 C 0.61962 0.35655 0.8281 0.0
C660 C 0.58562 0.37142 0.8791 0.0
C661 C 0.55233 0.36568 0.89764 0.0
C662 C 0.52724 0.36478 0.86719 0.0
C663 C 0.49557 0.35831 0.88489 0.0
C664 C 0.48889 0.35337 0.93309 0.0
C665 C 0.5139 0.35484 0.96372 0.0
C666 C 0.54552 0.36099 0.94615 0.0
C667 C 0.73242 0.49208 0.8815 0.0
C668 C 0.7362 0.49961 0.92979 0.0
C669 C 0.70407 0.46176 0.86496 0.0
C670 C 0.67959 0.43803 0.89657 0.0
C671 C 0.68407 0.44527 0.94493 0.0
C672 C 0.71187 0.47578 0.96129 0.0
C673 C 0.64844 0.40648 0.87942 0.0
C674 C 0.6161 0.39939 0.89613 0.0
C675 C 0.6502 0.38409 0.84591 0.0
C676 C 0.68342 0.38789 0.83037 0.0
C677 C 0.70731 0.38935 0.86359 0.0
C678 C 0.73857 0.39291 0.84882 0.0
C679 C 0.74615 0.39479 0.80088 0.0
C680 C 0.72245 0.39304 0.7676 0.0
C681 C 0.69116 0.38952 0.78219 0.0
H682 H 0.77036 0.39752 0.78951 0.0
H683 H 0.46436 0.34843 0.94669 0.0
loop_
_geom_bond_atom_site_label_1
_geom_bond_atom_site_label_2
_geom_bond_distance
_geom_bond_site_symmetry_2
_ccdc_geom_bond_type
C0 O2 1.247 . S
C0 O4 1.258 . S
C1 O8 1.247 . S
C1 O9 1.258 1_556 S
O2 C0 1.247 . S
O2 Zn3 2.028 . S
Zn3 O2 2.028 . S
Zn3 O7 2.035 . S
Zn3 O9 2.035 . S
Zn3 O10 2.028 . S
O4 C0 1.258 . S
O4 Zn5 2.035 1_554 S
Zn5 O4 2.035 1_556 S
Zn5 O6 2.028 . S
Zn5 O8 2.028 . S
Zn5 O11 2.035 1_556 S
O6 Zn5 2.028 . S
O6 C12 1.247 . S
O7 Zn3 2.035 . S
O7 C12 1.258 1_554 S
O8 C1 1.247 . S
O8 Zn5 2.028 . S
O9 C1 1.258 1_554 S
O9 Zn3 2.035 . S
O10 Zn3 2.028 . S
O10 C13 1.247 . S
O11 Zn5 2.035 1_554 S
O11 C13 1.258 . S
C12 O6 1.247 . S
C12 O7 1.258 1_556 S
C13 O10 1.247 . S
C13 O11 1.258 . S
C14 O16 1.247 . S
C14 O18 1.258 . S
C15 O22 1.247 . S
C15 O23 1.258 . S
O16 C14 1.247 . S
O16 Zn17 2.028 . S
Zn17 O16 2.028 . S
Zn17 O21 2.035 . S
Zn17 O23 2.035 . S
Zn17 O24 2.028 . S
O18 C14 1.258 . S
O18 Zn19 2.035 . S
Zn19 O18 2.035 . S
Zn19 O20 2.028 . S
Zn19 O22 2.028 . S
Zn19 O25 2.035 . S
O20 Zn19 2.028 . S
O20 C26 1.247 . S
O21 Zn17 2.035 . S
O21 C26 1.258 . S
O22 C15 1.247 . S
O22 Zn19 2.028 . S
O23 C15 1.258 . S
O23 Zn17 2.035 . S
O24 Zn17 2.028 . S
O24 C27 1.247 . S
O25 Zn19 2.035 . S
O25 C27 1.258 . S
C26 O20 1.247 . S
C26 O21 1.258 . S
C27 O24 1.247 . S
C27 O25 1.258 . S
C28 O30 1.247 . S
C28 O32 1.258 . S
C29 O36 1.247 . S
C29 O37 1.258 . S
O30 C28 1.247 . S
O30 Zn31 2.028 . S
Zn31 O30 2.028 . S
Zn31 O35 2.035 . S
Zn31 O37 2.035 . S
Zn31 O38 2.028 . S
O32 C28 1.258 . S
O32 Zn33 2.035 . S
Zn33 O32 2.035 . S
Zn33 O34 2.028 . S
Zn33 O36 2.028 . S
Zn33 O39 2.035 . S
O34 Zn33 2.028 . S
O34 C40 1.247 . S
O35 Zn31 2.035 . S
O35 C40 1.258 . S
O36 C29 1.247 . S
O36 Zn33 2.028 . S
O37 C29 1.258 . S
O37 Zn31 2.035 . S
O38 Zn31 2.028 . S
O38 C41 1.247 . S
O39 Zn33 2.035 . S
O39 C41 1.258 . S
C40 O34 1.247 . S
C40 O35 1.258 . S
C41 O38 1.247 . S
C41 O39 1.258 . S
C42 O44 1.247 . S
C42 O46 1.258 1_556 S
C43 O50 1.247 . S
C43 O51 1.258 . S
O44 C42 1.247 . S
O44 Zn45 2.028 . S
Zn45 O44 2.028 . S
Zn45 O49 2.035 1_556 S
Zn45 O51 2.035 1_556 S
Zn45 O52 2.028 . S
O46 C42 1.258 1_554 S
O46 Zn47 2.035 . S
Zn47 O46 2.035 . S
Zn47 O48 2.028 . S
Zn47 O50 2.028 . S
Zn47 O53 2.035 . S
O48 Zn47 2.028 . S
O48 C54 1.247 . S
O49 Zn45 2.035 1_554 S
O49 C54 1.258 . S
O50 C43 1.247 . S
O50 Zn47 2.028 . S
O51 C43 1.258 . S
O51 Zn45 2.035 1_554 S
O52 Zn45 2.028 . S
O52 C55 1.247 . S
O53 Zn47 2.035 . S
O53 C55 1.258 1_554 S
C54 O48 1.247 . S
C54 O49 1.258 . S
C55 O52 1.247 . S
C55 O53 1.258 1_556 S
C56 O58 1.247 . S
C56 O60 1.258 . S
C57 O64 1.247 . S
C57 O65 1.258 . S
O58 C56 1.247 . S
O58 Zn59 2.028 . S
Zn59 O58 2.028 . S
Zn59 O63 2.035 . S
Zn59 O65 2.035 . S
Zn59 O66 2.028 . S
O60 C56 1.258 . S
O60 Zn61 2.035 . S
Zn61 O60 2.035 . S
Zn61 O62 2.028 . S
Zn61 O64 2.028 . S
Zn61 O67 2.035 . S
O62 Zn61 2.028 . S
O62 C68 1.247 . S
O63 Zn59 2.035 . S
O63 C68 1.258 . S
O64 C57 1.247 . S
O64 Zn61 2.028 . S
O65 C57 1.258 . S
O65 Zn59 2.035 . S
O66 Zn59 2.028 . S
O66 C69 1.247 . S
O67 Zn61 2.035 . S
O67 C69 1.258 . S
C68 O62 1.247 . S
C68 O63 1.258 . S
C69 O66 1.247 . S
C69 O67 1.258 . S
C70 O72 1.247 . S
C70 O74 1.258 . S
C71 O78 1.247 . S
C71 O79 1.258 . S
O72 C70 1.247 . S
O72 Zn73 2.028 . S
Zn73 O72 2.028 . S
Zn73 O77 2.035 . S
Zn73 O79 2.035 . S
Zn73 O80 2.028 . S
O74 C70 1.258 . S
O74 Zn75 2.035 . S
Zn75 O74 2.035 . S
Zn75 O76 2.028 . S
Zn75 O78 2.028 . S
Zn75 O81 2.035 . S
O76 Zn75 2.028 . S
O76 C82 1.247 . S
O77 Zn73 2.035 . S
O77 C82 1.258 . S
O78 C71 1.247 . S
O78 Zn75 2.028 . S
O79 C71 1.258 . S
O79 Zn73 2.035 . S
O80 Zn73 2.028 . S
O80 C83 1.247 . S
O81 Zn75 2.035 . S
O81 C83 1.258 . S
C82 O76 1.247 . S
C82 O77 1.258 . S
C83 O80 1.247 . S
C83 O81 1.258 . S
H84 C102 0.951 . S
H85 C104 0.951 . S
H86 C106 0.950 . S
H87 C107 0.950 1_554 S
H88 C109 0.950 . S
H89 C112 0.950 . S
H90 C113 0.950 . S
H91 C115 0.950 . S
H92 C116 0.950 . S
H93 C117 0.951 . S
H94 C119 0.951 . S
H95 C121 0.950 . S
H96 C122 0.950 . S
H97 C124 0.950 . S
H98 C127 0.950 . S
H99 C128 0.950 . S
H100 C130 0.950 . S
H101 C131 0.950 . S
C102 H84 0.951 . S
C102 C103 1.366 . S
C102 C104 1.388 . S
C103 C102 1.366 . S
C103 C107 1.385 . S
C104 H85 0.951 . S
C104 C102 1.388 . S
C104 C105 1.366 . S
C105 C104 1.366 . S
C105 C106 1.414 . S
C105 C108 1.499 . S
C106 H86 0.950 . S
C106 C105 1.414 . S
C106 C107 1.374 . S
C107 H87 0.950 1_556 S
C107 C103 1.385 . S
C107 C106 1.374 . S
C108 C105 1.499 . S
C108 C109 1.373 . S
C108 C110 1.389 . S
C109 H88 0.950 . S
C109 C108 1.373 . S
C109 C125 1.377 . S
C110 C108 1.389 . S
C110 C111 1.524 . S
C110 C124 1.377 . S
C111 C110 1.524 . S
C111 C112 1.397 . S
C111 C116 1.363 . S
C112 H89 0.950 . S
C112 C111 1.397 . S
C112 C113 1.334 . S
C113 H90 0.950 . S
C113 C112 1.334 . S
C113 C114 1.287 . S
C114 C113 1.287 . S
C114 C115 1.524 . S
C114 H133 0.913 . S
C115 H91 0.950 . S
C115 C114 1.524 . S
C115 C116 1.415 . S
C116 H92 0.950 . S
C116 C111 1.363 . S
C116 C115 1.415 . S
C117 H93 0.951 . S
C117 C118 1.366 . S
C117 C119 1.388 . S
C118 C117 1.366 . S
C118 C122 1.385 . S
C119 H94 0.951 . S
C119 C117 1.388 . S
C119 C120 1.366 . S
C120 C119 1.366 . S
C120 C121 1.414 . S
C120 C123 1.499 . S
C121 H95 0.950 . S
C121 C120 1.414 . S
C121 C122 1.374 . S
C122 H96 0.950 . S
C122 C118 1.385 . S
C122 C121 1.374 . S
C123 C120 1.499 . S
C123 C124 1.373 . S
C123 C125 1.389 . S
C124 H97 0.950 . S
C124 C110 1.377 . S
C124 C123 1.373 . S
C125 C109 1.377 . S
C125 C123 1.389 . S
C125 C126 1.524 . S
C126 C125 1.524 . S
C126 C127 1.397 . S
C126 C131 1.363 . S
C127 H98 0.950 . S
C127 C126 1.397 . S
C127 C128 1.334 . S
C128 H99 0.950 . S
C128 C127 1.334 . S
C128 C129 1.287 . S
C129 C128 1.287 . S
C129 C130 1.524 . S
C129 H132 0.999 . S
C130 H100 0.950 . S
C130 C129 1.524 . S
C130 C131 1.415 . S
C131 H101 0.950 . S
C131 C126 1.363 . S
C131 C130 1.415 . S
H132 C129 0.999 . S
H133 C114 0.913 . S
H134 C152 0.951 . S
H135 C154 0.951 . S
H136 C156 0.950 . S
H137 C157 0.950 . S
H138 C159 0.950 . S
H139 C162 0.950 . S
H140 C163 0.950 . S
H141 C165 0.950 . S
H142 C166 0.950 . S
H143 C167 0.951 . S
H144 C169 0.951 . S
H145 C171 0.950 . S
H146 C172 0.950 . S
H147 C174 0.950 . S
H148 C177 0.950 . S
H149 C178 0.950 . S
H150 C180 0.950 . S
H151 C181 0.950 . S
C152 H134 0.951 . S
C152 C153 1.366 . S
C152 C154 1.388 . S
C153 C152 1.366 . S
C153 C157 1.385 . S
C154 H135 0.951 . S
C154 C152 1.388 . S
C154 C155 1.366 . S
C155 C154 1.366 . S
C155 C156 1.414 . S
C155 C158 1.499 . S
C156 H136 0.950 . S
C156 C155 1.414 . S
C156 C157 1.374 . S
C157 H137 0.950 . S
C157 C153 1.385 . S
C157 C156 1.374 . S
C158 C155 1.499 . S
C158 C159 1.373 . S
C158 C160 1.389 . S
C159 H138 0.950 . S
C159 C158 1.373 . S
C159 C175 1.377 1_655 S
C160 C158 1.389 . S
C160 C161 1.524 . S
C160 C174 1.377 1_655 S
C161 C160 1.524 . S
C161 C162 1.397 . S
C161 C166 1.363 . S
C162 H139 0.950 . S
C162 C161 1.397 . S
C162 C163 1.334 . S
C163 H140 0.950 . S
C163 C162 1.334 . S
C163 C164 1.287 . S
C164 C163 1.287 . S
C164 C165 1.524 . S
C164 H183 0.913 . S
C165 H141 0.950 . S
C165 C164 1.524 . S
C165 C166 1.415 . S
C166 H142 0.950 . S
C166 C161 1.363 . S
C166 C165 1.415 . S
C167 H143 0.951 . S
C167 C168 1.366 . S
C167 C169 1.388 . S
C168 C167 1.366 . S
C168 C172 1.385 . S
C169 H144 0.951 . S
C169 C167 1.388 . S
C169 C170 1.366 . S
C170 C169 1.366 . S
C170 C171 1.414 . S
C170 C173 1.499 . S
C171 H145 0.950 . S
C171 C170 1.414 . S
C171 C172 1.374 . S
C172 H146 0.950 . S
C172 C168 1.385 . S
C172 C171 1.374 . S
C173 C170 1.499 . S
C173 C174 1.373 . S
C173 C175 1.389 . S
C174 H147 0.950 . S
C174 C160 1.377 1_455 S
C174 C173 1.373 . S
C175 C159 1.377 1_455 S
C175 C173 1.389 . S
C175 C176 1.524 . S
C176 C175 1.524 . S
C176 C177 1.397 . S
C176 C181 1.363 . S
C177 H148 0.950 . S
C177 C176 1.397 . S
C177 C178 1.334 . S
C178 H149 0.950 . S
C178 C177 1.334 . S
C178 C179 1.287 . S
C179 C178 1.287 . S
C179 C180 1.524 . S
C179 H182 0.999 . S
C180 H150 0.950 . S
C180 C179 1.524 . S
C180 C181 1.415 . S
C181 H151 0.950 . S
C181 C176 1.363 . S
C181 C180 1.415 . S
H182 C179 0.999 . S
H183 C164 0.913 . S
H184 C202 0.951 . S
H185 C204 0.951 . S
H186 C206 0.950 . S
H187 C207 0.950 . S
H188 C209 0.950 . S
H189 C212 0.950 . S
H190 C213 0.950 . S
H191 C215 0.950 . S
H192 C216 0.950 . S
H193 C217 0.951 . S
H194 C219 0.951 . S
H195 C221 0.950 . S
H196 C222 0.950 . S
H197 C224 0.950 . S
H198 C227 0.950 . S
H199 C228 0.950 . S
H200 C230 0.950 . S
H201 C231 0.950 . S
C202 H184 0.951 . S
C202 C203 1.366 . S
C202 C204 1.388 . S
C203 C202 1.366 . S
C203 C207 1.385 . S
C204 H185 0.951 . S
C204 C202 1.388 . S
C204 C205 1.366 . S
C205 C204 1.366 . S
C205 C206 1.414 . S
C205 C208 1.499 . S
C206 H186 0.950 . S
C206 C205 1.414 . S
C206 C207 1.374 . S
C207 H187 0.950 . S
C207 C203 1.385 . S
C207 C206 1.374 . S
C208 C205 1.499 . S
C208 C209 1.373 . S
C208 C210 1.389 . S
C209 H188 0.950 . S
C209 C208 1.373 . S
C209 C225 1.377 1_545 S
C210 C208 1.389 . S
C210 C211 1.524 . S
C210 C224 1.377 1_545 S
C211 C210 1.524 . S
C211 C212 1.397 . S
C211 C216 1.363 . S
C212 H189 0.950 . S
C212 C211 1.397 . S
C212 C213 1.334 . S
C213 H190 0.950 . S
C213 C212 1.334 . S
C213 C214 1.287 . S
C214 C213 1.287 . S
C214 C215 1.524 . S
C214 H233 0.913 . S
C215 H191 0.950 . S
C215 C214 1.524 . S
C215 C216 1.415 . S
C216 H192 0.950 . S
C216 C211 1.363 . S
C216 C215 1.415 . S
C217 H193 0.951 . S
C217 C218 1.366 . S
C217 C219 1.388 . S
C218 C217 1.366 . S
C218 C222 1.385 . S
C219 H194 0.951 . S
C219 C217 1.388 . S
C219 C220 1.366 . S
C220 C219 1.366 . S
C220 C221 1.414 . S
C220 C223 1.499 . S
C221 H195 0.950 . S
C221 C220 1.414 . S
C221 C222 1.374 . S
C222 H196 0.950 . S
C222 C218 1.385 . S
C222 C221 1.374 . S
C223 C220 1.499 . S
C223 C224 1.373 . S
C223 C225 1.389 . S
C224 H197 0.950 . S
C224 C210 1.377 1_565 S
C224 C223 1.373 . S
C225 C209 1.377 1_565 S
C225 C223 1.389 . S
C225 C226 1.524 . S
C226 C225 1.524 . S
C226 C227 1.397 . S
C226 C231 1.363 . S
C227 H198 0.950 . S
C227 C226 1.397 . S
C227 C228 1.334 . S
C228 H199 0.950 . S
C228 C227 1.334 . S
C228 C229 1.287 . S
C229 C228 1.287 . S
C229 C230 1.524 . S
C229 H232 0.999 . S
C230 H200 0.950 . S
C230 C229 1.524 . S
C230 C231 1.415 . S
C231 H201 0.950 . S
C231 C226 1.363 . S
C231 C230 1.415 . S
H232 C229 0.999 . S
H233 C214 0.913 . S
H234 C252 0.951 . S
H235 C254 0.951 . S
H236 C256 0.950 . S
H237 C257 0.950 1_554 S
H238 C259 0.950 . S
H239 C262 0.950 . S
H240 C263 0.950 . S
H241 C265 0.950 . S
H242 C266 0.950 . S
H243 C267 0.951 . S
H244 C269 0.951 . S
H245 C271 0.950 . S
H246 C272 0.950 . S
H247 C274 0.950 . S
H248 C277 0.950 . S
H249 C278 0.950 . S
H250 C280 0.950 . S
H251 C281 0.950 . S
C252 H234 0.951 . S
C252 C253 1.366 . S
C252 C254 1.388 . S
C253 C252 1.366 . S
C253 C257 1.385 . S
C254 H235 0.951 . S
C254 C252 1.388 . S
C254 C255 1.366 . S
C255 C254 1.366 . S
C255 C256 1.414 . S
C255 C258 1.499 . S
C256 H236 0.950 . S
C256 C255 1.414 . S
C256 C257 1.374 . S
C257 H237 0.950 1_556 S
C257 C253 1.385 . S
C257 C256 1.374 . S
C258 C255 1.499 . S
C258 C259 1.373 . S
C258 C260 1.389 . S
C259 H238 0.950 . S
C259 C258 1.373 . S
C259 C275 1.377 . S
C260 C258 1.389 . S
C260 C261 1.524 . S
C260 C274 1.377 . S
C261 C260 1.524 . S
C261 C262 1.397 . S
C261 C266 1.363 . S
C262 H239 0.950 . S
C262 C261 1.397 . S
C262 C263 1.334 . S
C263 H240 0.950 . S
C263 C262 1.334 . S
C263 C264 1.287 . S
C264 C263 1.287 . S
C264 C265 1.524 . S
C264 H283 0.913 . S
C265 H241 0.950 . S
C265 C264 1.524 . S
C265 C266 1.415 . S
C266 H242 0.950 . S
C266 C261 1.363 . S
C266 C265 1.415 . S
C267 H243 0.951 . S
C267 C268 1.366 . S
C267 C269 1.388 . S
C268 C267 1.366 . S
C268 C272 1.385 . S
C269 H244 0.951 . S
C269 C267 1.388 . S
C269 C270 1.366 . S
C270 C269 1.366 . S
C270 C271 1.414 . S
C270 C273 1.499 . S
C271 H245 0.950 . S
C271 C270 1.414 . S
C271 C272 1.374 . S
C272 H246 0.950 . S
C272 C268 1.385 . S
C272 C271 1.374 . S
C273 C270 1.499 . S
C273 C274 1.373 . S
C273 C275 1.389 . S
C274 H247 0.950 . S
C274 C260 1.377 . S
C274 C273 1.373 . S
C275 C259 1.377 . S
C275 C273 1.389 . S
C275 C276 1.524 . S
C276 C275 1.524 . S
C276 C277 1.397 . S
C276 C281 1.363 . S
C277 H248 0.950 . S
C277 C276 1.397 . S
C277 C278 1.334 . S
C278 H249 0.950 . S
C278 C277 1.334 . S
C278 C279 1.287 . S
C279 C278 1.287 . S
C279 C280 1.524 . S
C279 H282 0.999 . S
C280 H250 0.950 . S
C280 C279 1.524 . S
C280 C281 1.415 . S
C281 H251 0.950 . S
C281 C276 1.363 . S
C281 C280 1.415 . S
H282 C279 0.999 . S
H283 C264 0.913 . S
H284 C302 0.951 . S
H285 C304 0.951 . S
H286 C306 0.950 . S
H287 C307 0.950 . S
H288 C309 0.950 . S
H289 C312 0.950 . S
H290 C313 0.950 . S
H291 C315 0.950 . S
H292 C316 0.950 . S
H293 C317 0.951 . S
H294 C319 0.951 . S
H295 C321 0.950 . S
H296 C322 0.950 . S
H297 C324 0.950 . S
H298 C327 0.950 . S
H299 C328 0.950 . S
H300 C330 0.950 . S
H301 C331 0.950 . S
C302 H284 0.951 . S
C302 C303 1.366 . S
C302 C304 1.388 . S
C303 C302 1.366 . S
C303 C307 1.385 . S
C304 H285 0.951 . S
C304 C302 1.388 . S
C304 C305 1.366 . S
C305 C304 1.366 . S
C305 C306 1.414 . S
C305 C308 1.499 . S
C306 H286 0.950 . S
C306 C305 1.414 . S
C306 C307 1.374 . S
C307 H287 0.950 . S
C307 C303 1.385 . S
C307 C306 1.374 . S
C308 C305 1.499 . S
C308 C309 1.373 . S
C308 C310 1.389 . S
C309 H288 0.950 . S
C309 C308 1.373 . S
C309 C325 1.377 1_655 S
C310 C308 1.389 . S
C310 C311 1.524 . S
C310 C324 1.377 1_655 S
C311 C310 1.524 . S
C311 C312 1.397 . S
C311 C316 1.363 . S
C312 H289 0.950 . S
C312 C311 1.397 . S
C312 C313 1.334 . S
C313 H290 0.950 . S
C313 C312 1.334 . S
C313 C314 1.287 . S
C314 C313 1.287 . S
C314 C315 1.524 . S
C314 H333 0.913 . S
C315 H291 0.950 . S
C315 C314 1.524 . S
C315 C316 1.415 . S
C316 H292 0.950 . S
C316 C311 1.363 . S
C316 C315 1.415 . S
C317 H293 0.951 . S
C317 C318 1.366 . S
C317 C319 1.388 . S
C318 C317 1.366 . S
C318 C322 1.385 . S
C319 H294 0.951 . S
C319 C317 1.388 . S
C319 C320 1.366 . S
C320 C319 1.366 . S
C320 C321 1.414 . S
C320 C323 1.499 . S
C321 H295 0.950 . S
C321 C320 1.414 . S
C321 C322 1.374 . S
C322 H296 0.950 . S
C322 C318 1.385 . S
C322 C321 1.374 . S
C323 C320 1.499 . S
C323 C324 1.373 . S
C323 C325 1.389 . S
C324 H297 0.950 . S
C324 C310 1.377 1_455 S
C324 C323 1.373 . S
C325 C309 1.377 1_455 S
C325 C323 1.389 . S
C325 C326 1.524 . S
C326 C325 1.524 . S
C326 C327 1.397 . S
C326 C331 1.363 . S
C327 H298 0.950 . S
C327 C326 1.397 . S
C327 C328 1.334 . S
C328 H299 0.950 . S
C328 C327 1.334 . S
C328 C329 1.287 . S
C329 C328 1.287 . S
C329 C330 1.524 . S
C329 H332 0.999 . S
C330 H300 0.950 . S
C330 C329 1.524 . S
C330 C331 1.415 . S
C331 H301 0.950 . S
C331 C326 1.363 . S
C331 C330 1.415 . S
H332 C329 0.999 . S
H333 C314 0.913 . S
H334 C352 0.951 . S
H335 C354 0.951 . S
H336 C356 0.950 . S
H337 C357 0.950 . S
H338 C359 0.950 . S
H339 C362 0.950 . S
H340 C363 0.950 . S
H341 C365 0.950 . S
H342 C366 0.950 . S
H343 C367 0.951 . S
H344 C369 0.951 . S
H345 C371 0.950 . S
H346 C372 0.950 . S
H347 C374 0.950 . S
H348 C377 0.950 . S
H349 C378 0.950 . S
H350 C380 0.950 . S
H351 C381 0.950 . S
C352 H334 0.951 . S
C352 C353 1.366 . S
C352 C354 1.388 . S
C353 C352 1.366 . S
C353 C357 1.385 . S
C354 H335 0.951 . S
C354 C352 1.388 . S
C354 C355 1.366 . S
C355 C354 1.366 . S
C355 C356 1.414 . S
C355 C358 1.499 . S
C356 H336 0.950 . S
C356 C355 1.414 . S
C356 C357 1.374 . S
C357 H337 0.950 . S
C357 C353 1.385 . S
C357 C356 1.374 . S
C358 C355 1.499 . S
C358 C359 1.373 . S
C358 C360 1.389 . S
C359 H338 0.950 . S
C359 C358 1.373 . S
C359 C375 1.377 1_545 S
C360 C358 1.389 . S
C360 C361 1.524 . S
C360 C374 1.377 1_545 S
C361 C360 1.524 . S
C361 C362 1.397 . S
C361 C366 1.363 . S
C362 H339 0.950 . S
C362 C361 1.397 . S
C362 C363 1.334 . S
C363 H340 0.950 . S
C363 C362 1.334 . S
C363 C364 1.287 . S
C364 C363 1.287 . S
C364 C365 1.524 . S
C364 H383 0.913 . S
C365 H341 0.950 . S
C365 C364 1.524 . S
C365 C366 1.415 . S
C366 H342 0.950 . S
C366 C361 1.363 . S
C366 C365 1.415 . S
C367 H343 0.951 . S
C367 C368 1.366 . S
C367 C369 1.388 . S
C368 C367 1.366 . S
C368 C372 1.385 . S
C369 H344 0.951 . S
C369 C367 1.388 . S
C369 C370 1.366 . S
C370 C369 1.366 . S
C370 C371 1.414 . S
C370 C373 1.499 . S
C371 H345 0.950 . S
C371 C370 1.414 . S
C371 C372 1.374 . S
C372 H346 0.950 . S
C372 C368 1.385 . S
C372 C371 1.374 . S
C373 C370 1.499 . S
C373 C374 1.373 . S
C373 C375 1.389 . S
C374 H347 0.950 . S
C374 C360 1.377 1_565 S
C374 C373 1.373 . S
C375 C359 1.377 1_565 S
C375 C373 1.389 . S
C375 C376 1.524 . S
C376 C375 1.524 . S
C376 C377 1.397 . S
C376 C381 1.363 . S
C377 H348 0.950 . S
C377 C376 1.397 . S
C377 C378 1.334 . S
C378 H349 0.950 . S
C378 C377 1.334 . S
C378 C379 1.287 . S
C379 C378 1.287 . S
C379 C380 1.524 . S
C379 H382 0.999 . S
C380 H350 0.950 . S
C380 C379 1.524 . S
C380 C381 1.415 . S
C381 H351 0.950 . S
C381 C376 1.363 . S
C381 C380 1.415 . S
H382 C379 0.999 . S
H383 C364 0.913 . S
H384 C402 0.951 . S
H385 C404 0.951 . S
H386 C406 0.950 . S
H387 C407 0.950 . S
H388 C409 0.950 . S
H389 C412 0.950 . S
H390 C413 0.950 . S
H391 C415 0.950 . S
H392 C416 0.950 . S
H393 C417 0.951 . S
H394 C419 0.951 . S
H395 C421 0.950 . S
H396 C422 0.950 . S
H397 C424 0.950 . S
H398 C427 0.950 . S
H399 C428 0.950 . S
H400 C430 0.950 . S
H401 C431 0.950 . S
C402 H384 0.951 . S
C402 C403 1.366 . S
C402 C404 1.388 . S
C403 C402 1.366 . S
C403 C407 1.385 . S
C404 H385 0.951 . S
C404 C402 1.388 . S
C404 C405 1.366 . S
C405 C404 1.366 . S
C405 C406 1.414 . S
C405 C408 1.499 . S
C406 H386 0.950 . S
C406 C405 1.414 . S
C406 C407 1.374 . S
C407 H387 0.950 . S
C407 C403 1.385 . S
C407 C406 1.374 . S
C408 C405 1.499 . S
C408 C409 1.373 . S
C408 C410 1.389 . S
C409 H388 0.950 . S
C409 C408 1.373 . S
C409 C425 1.377 . S
C410 C408 1.389 . S
C410 C411 1.524 . S
C410 C424 1.377 . S
C411 C410 1.524 . S
C411 C412 1.397 . S
C411 C416 1.363 . S
C412 H389 0.950 . S
C412 C411 1.397 . S
C412 C413 1.334 . S
C413 H390 0.950 . S
C413 C412 1.334 . S
C413 C414 1.287 . S
C414 C413 1.287 . S
C414 C415 1.524 . S
C414 H433 0.913 . S
C415 H391 0.950 . S
C415 C414 1.524 . S
C415 C416 1.415 . S
C416 H392 0.950 . S
C416 C411 1.363 . S
C416 C415 1.415 . S
C417 H393 0.951 . S
C417 C418 1.366 . S
C417 C419 1.388 . S
C418 C417 1.366 . S
C418 C422 1.385 . S
C419 H394 0.951 . S
C419 C417 1.388 . S
C419 C420 1.366 . S
C420 C419 1.366 . S
C420 C421 1.414 . S
C420 C423 1.499 . S
C421 H395 0.950 . S
C421 C420 1.414 . S
C421 C422 1.374 . S
C422 H396 0.950 . S
C422 C418 1.385 . S
C422 C421 1.374 . S
C423 C420 1.499 . S
C423 C424 1.373 . S
C423 C425 1.389 . S
C424 H397 0.950 . S
C424 C410 1.377 . S
C424 C423 1.373 . S
C425 C409 1.377 . S
C425 C423 1.389 . S
C425 C426 1.524 . S
C426 C425 1.524 . S
C426 C427 1.397 . S
C426 C431 1.363 . S
C427 H398 0.950 . S
C427 C426 1.397 . S
C427 C428 1.334 . S
C428 H399 0.950 . S
C428 C427 1.334 . S
C428 C429 1.287 . S
C429 C428 1.287 . S
C429 C430 1.524 . S
C429 H432 0.999 . S
C430 H400 0.950 . S
C430 C429 1.524 . S
C430 C431 1.415 . S
C431 H401 0.950 . S
C431 C426 1.363 . S
C431 C430 1.415 . S
H432 C429 0.999 . S
H433 C414 0.913 . S
H434 C452 0.951 . S
H435 C454 0.951 . S
H436 C456 0.950 . S
H437 C457 0.950 . S
H438 C459 0.950 . S
H439 C462 0.950 . S
H440 C463 0.950 . S
H441 C465 0.950 . S
H442 C466 0.950 . S
H443 C467 0.951 . S
H444 C469 0.951 . S
H445 C471 0.950 . S
H446 C472 0.950 . S
H447 C474 0.950 . S
H448 C477 0.950 . S
H449 C478 0.950 . S
H450 C480 0.950 . S
H451 C481 0.950 . S
C452 H434 0.951 . S
C452 C453 1.366 . S
C452 C454 1.388 . S
C453 C452 1.366 . S
C453 C457 1.385 . S
C454 H435 0.951 . S
C454 C452 1.388 . S
C454 C455 1.366 . S
C455 C454 1.366 . S
C455 C456 1.414 . S
C455 C458 1.499 . S
C456 H436 0.950 . S
C456 C455 1.414 . S
C456 C457 1.374 . S
C457 H437 0.950 . S
C457 C453 1.385 . S
C457 C456 1.374 . S
C458 C455 1.499 . S
C458 C459 1.373 . S
C458 C460 1.389 . S
C459 H438 0.950 . S
C459 C458 1.373 . S
C459 C475 1.377 . S
C460 C458 1.389 . S
C460 C461 1.524 . S
C460 C474 1.377 . S
C461 C460 1.524 . S
C461 C462 1.397 . S
C461 C466 1.363 . S
C462 H439 0.950 . S
C462 C461 1.397 . S
C462 C463 1.334 . S
C463 H440 0.950 . S
C463 C462 1.334 . S
C463 C464 1.287 . S
C464 C463 1.287 . S
C464 C465 1.524 . S
C464 H483 0.913 . S
C465 H441 0.950 . S
C465 C464 1.524 . S
C465 C466 1.415 . S
C466 H442 0.950 . S
C466 C461 1.363 . S
C466 C465 1.415 . S
C467 H443 0.951 . S
C467 C468 1.366 . S
C467 C469 1.388 . S
C468 C467 1.366 . S
C468 C472 1.385 . S
C469 H444 0.951 . S
C469 C467 1.388 . S
C469 C470 1.366 . S
C470 C469 1.366 . S
C470 C471 1.414 . S
C470 C473 1.499 . S
C471 H445 0.950 . S
C471 C470 1.414 . S
C471 C472 1.374 . S
C472 H446 0.950 . S
C472 C468 1.385 . S
C472 C471 1.374 . S
C473 C470 1.499 . S
C473 C474 1.373 . S
C473 C475 1.389 . S
C474 H447 0.950 . S
C474 C460 1.377 . S
C474 C473 1.373 . S
C475 C459 1.377 . S
C475 C473 1.389 . S
C475 C476 1.524 . S
C476 C475 1.524 . S
C476 C477 1.397 . S
C476 C481 1.363 . S
C477 H448 0.950 . S
C477 C476 1.397 . S
C477 C478 1.334 . S
C478 H449 0.950 . S
C478 C477 1.334 . S
C478 C479 1.287 . S
C479 C478 1.287 . S
C479 C480 1.524 . S
C479 H482 0.999 . S
C480 H450 0.950 . S
C480 C479 1.524 . S
C480 C481 1.415 . S
C481 H451 0.950 . S
C481 C476 1.363 . S
C481 C480 1.415 . S
H482 C479 0.999 . S
H483 C464 0.913 . S
H484 C502 0.951 . S
H485 C504 0.951 . S
H486 C506 0.950 . S
H487 C507 0.950 . S
H488 C509 0.950 . S
H489 C512 0.950 . S
H490 C513 0.950 . S
H491 C515 0.950 . S
H492 C516 0.950 . S
H493 C517 0.951 1_554 S
H494 C519 0.951 . S
H495 C521 0.950 . S
H496 C522 0.950 . S
H497 C524 0.950 . S
H498 C527 0.950 . S
H499 C528 0.950 . S
H500 C530 0.950 1_554 S
H501 C531 0.950 . S
C502 H484 0.951 . S
C502 C503 1.366 . S
C502 C504 1.388 . S
C503 C502 1.366 . S
C503 C507 1.385 . S
C504 H485 0.951 . S
C504 C502 1.388 . S
C504 C505 1.366 . S
C505 C504 1.366 . S
C505 C506 1.414 . S
C505 C508 1.499 . S
C506 H486 0.950 . S
C506 C505 1.414 . S
C506 C507 1.374 . S
C507 H487 0.950 . S
C507 C503 1.385 . S
C507 C506 1.374 . S
C508 C505 1.499 . S
C508 C509 1.373 . S
C508 C510 1.389 . S
C509 H488 0.950 . S
C509 C508 1.373 . S
C509 C525 1.377 . S
C510 C508 1.389 . S
C510 C511 1.524 . S
C510 C524 1.377 . S
C511 C510 1.524 . S
C511 C512 1.397 . S
C511 C516 1.363 . S
C512 H489 0.950 . S
C512 C511 1.397 . S
C512 C513 1.334 . S
C513 H490 0.950 . S
C513 C512 1.334 . S
C513 C514 1.287 . S
C514 C513 1.287 . S
C514 C515 1.524 . S
C514 H533 0.913 . S
C515 H491 0.950 . S
C515 C514 1.524 . S
C515 C516 1.415 . S
C516 H492 0.950 . S
C516 C511 1.363 . S
C516 C515 1.415 . S
C517 H493 0.951 1_556 S
C517 C518 1.366 . S
C517 C519 1.388 . S
C518 C517 1.366 . S
C518 C522 1.385 . S
C519 H494 0.951 . S
C519 C517 1.388 . S
C519 C520 1.366 . S
C520 C519 1.366 . S
C520 C521 1.414 . S
C520 C523 1.499 . S
C521 H495 0.950 . S
C521 C520 1.414 . S
C521 C522 1.374 . S
C522 H496 0.950 . S
C522 C518 1.385 . S
C522 C521 1.374 . S
C523 C520 1.499 . S
C523 C524 1.373 . S
C523 C525 1.389 . S
C524 H497 0.950 . S
C524 C510 1.377 . S
C524 C523 1.373 . S
C525 C509 1.377 . S
C525 C523 1.389 . S
C525 C526 1.524 . S
C526 C525 1.524 . S
C526 C527 1.397 . S
C526 C531 1.363 . S
C527 H498 0.950 . S
C527 C526 1.397 . S
C527 C528 1.334 . S
C528 H499 0.950 . S
C528 C527 1.334 . S
C528 C529 1.287 . S
C529 C528 1.287 . S
C529 C530 1.524 . S
C529 H532 0.999 . S
C530 H500 0.950 1_556 S
C530 C529 1.524 . S
C530 C531 1.415 . S
C531 H501 0.950 . S
C531 C526 1.363 . S
C531 C530 1.415 . S
H532 C529 0.999 . S
H533 C514 0.913 . S
H534 C552 0.951 . S
H535 C554 0.951 . S
H536 C556 0.950 . S
H537 C557 0.950 . S
H538 C559 0.950 . S
H539 C562 0.950 . S
H540 C563 0.950 . S
H541 C565 0.950 1_556 S
H542 C566 0.950 . S
H543 C567 0.951 . S
H544 C569 0.951 . S
H545 C571 0.950 . S
H546 C572 0.950 . S
H547 C574 0.950 . S
H548 C577 0.950 . S
H549 C578 0.950 . S
H550 C580 0.950 . S
H551 C581 0.950 . S
C552 H534 0.951 . S
C552 C553 1.366 . S
C552 C554 1.388 . S
C553 C552 1.366 . S
C553 C557 1.385 . S
C554 H535 0.951 . S
C554 C552 1.388 . S
C554 C555 1.366 . S
C555 C554 1.366 . S
C555 C556 1.414 . S
C555 C558 1.499 . S
C556 H536 0.950 . S
C556 C555 1.414 . S
C556 C557 1.374 . S
C557 H537 0.950 . S
C557 C553 1.385 . S
C557 C556 1.374 . S
C558 C555 1.499 . S
C558 C559 1.373 . S
C558 C560 1.389 . S
C559 H538 0.950 . S
C559 C558 1.373 . S
C559 C575 1.377 . S
C560 C558 1.389 . S
C560 C561 1.524 . S
C560 C574 1.377 . S
C561 C560 1.524 . S
C561 C562 1.397 . S
C561 C566 1.363 . S
C562 H539 0.950 . S
C562 C561 1.397 . S
C562 C563 1.334 . S
C563 H540 0.950 . S
C563 C562 1.334 . S
C563 C564 1.287 . S
C564 C563 1.287 . S
C564 C565 1.524 . S
C564 H583 0.913 1_554 S
C565 H541 0.950 1_554 S
C565 C564 1.524 . S
C565 C566 1.415 . S
C566 H542 0.950 . S
C566 C561 1.363 . S
C566 C565 1.415 . S
C567 H543 0.951 . S
C567 C568 1.366 . S
C567 C569 1.388 . S
C568 C567 1.366 . S
C568 C572 1.385 . S
C569 H544 0.951 . S
C569 C567 1.388 . S
C569 C570 1.366 . S
C570 C569 1.366 . S
C570 C571 1.414 . S
C570 C573 1.499 . S
C571 H545 0.950 . S
C571 C570 1.414 . S
C571 C572 1.374 . S
C572 H546 0.950 . S
C572 C568 1.385 . S
C572 C571 1.374 . S
C573 C570 1.499 . S
C573 C574 1.373 . S
C573 C575 1.389 . S
C574 H547 0.950 . S
C574 C560 1.377 . S
C574 C573 1.373 . S
C575 C559 1.377 . S
C575 C573 1.389 . S
C575 C576 1.524 . S
C576 C575 1.524 . S
C576 C577 1.397 . S
C576 C581 1.363 . S
C577 H548 0.950 . S
C577 C576 1.397 . S
C577 C578 1.334 . S
C578 H549 0.950 . S
C578 C577 1.334 . S
C578 C579 1.287 . S
C579 C578 1.287 . S
C579 C580 1.524 . S
C579 H582 0.999 . S
C580 H550 0.950 . S
C580 C579 1.524 . S
C580 C581 1.415 . S
C581 H551 0.950 . S
C581 C576 1.363 . S
C581 C580 1.415 . S
H582 C579 0.999 . S
H583 C564 0.913 1_556 S
H584 C602 0.951 . S
H585 C604 0.951 . S
H586 C606 0.950 . S
H587 C607 0.950 . S
H588 C609 0.950 . S
H589 C612 0.950 . S
H590 C613 0.950 . S
H591 C615 0.950 . S
H592 C616 0.950 . S
H593 C617 0.951 . S
H594 C619 0.951 . S
H595 C621 0.950 . S
H596 C622 0.950 . S
H597 C624 0.950 . S
H598 C627 0.950 . S
H599 C628 0.950 . S
H600 C630 0.950 . S
H601 C631 0.950 . S
C602 H584 0.951 . S
C602 C603 1.366 . S
C602 C604 1.388 . S
C603 C602 1.366 . S
C603 C607 1.385 . S
C604 H585 0.951 . S
C604 C602 1.388 . S
C604 C605 1.366 . S
C605 C604 1.366 . S
C605 C606 1.414 . S
C605 C608 1.499 . S
C606 H586 0.950 . S
C606 C605 1.414 . S
C606 C607 1.374 . S
C607 H587 0.950 . S
C607 C603 1.385 . S
C607 C606 1.374 . S
C608 C605 1.499 . S
C608 C609 1.373 . S
C608 C610 1.389 . S
C609 H588 0.950 . S
C609 C608 1.373 . S
C609 C625 1.377 . S
C610 C608 1.389 . S
C610 C611 1.524 . S
C610 C624 1.377 . S
C611 C610 1.524 . S
C611 C612 1.397 . S
C611 C616 1.363 . S
C612 H589 0.950 . S
C612 C611 1.397 . S
C612 C613 1.334 . S
C613 H590 0.950 . S
C613 C612 1.334 . S
C613 C614 1.287 . S
C614 C613 1.287 . S
C614 C615 1.524 . S
C614 H633 0.913 . S
C615 H591 0.950 . S
C615 C614 1.524 . S
C615 C616 1.415 . S
C616 H592 0.950 . S
C616 C611 1.363 . S
C616 C615 1.415 . S
C617 H593 0.951 . S
C617 C618 1.366 . S
C617 C619 1.388 . S
C618 C617 1.366 . S
C618 C622 1.385 . S
C619 H594 0.951 . S
C619 C617 1.388 . S
C619 C620 1.366 . S
C620 C619 1.366 . S
C620 C621 1.414 . S
C620 C623 1.499 . S
C621 H595 0.950 . S
C621 C620 1.414 . S
C621 C622 1.374 . S
C622 H596 0.950 . S
C622 C618 1.385 . S
C622 C621 1.374 . S
C623 C620 1.499 . S
C623 C624 1.373 . S
C623 C625 1.389 . S
C624 H597 0.950 . S
C624 C610 1.377 . S
C624 C623 1.373 . S
C625 C609 1.377 . S
C625 C623 1.389 . S
C625 C626 1.524 . S
C626 C625 1.524 . S
C626 C627 1.397 . S
C626 C631 1.363 . S
C627 H598 0.950 . S
C627 C626 1.397 . S
C627 C628 1.334 . S
C628 H599 0.950 . S
C628 C627 1.334 . S
C628 C629 1.287 . S
C629 C628 1.287 . S
C629 C630 1.524 . S
C629 H632 0.999 . S
C630 H600 0.950 . S
C630 C629 1.524 . S
C630 C631 1.415 . S
C631 H601 0.950 . S
C631 C626 1.363 . S
C631 C630 1.415 . S
H632 C629 0.999 . S
H633 C614 0.913 . S
H634 C652 0.951 . S
H635 C654 0.951 . S
H636 C656 0.950 . S
H637 C657 0.950 . S
H638 C659 0.950 . S
H639 C662 0.950 . S
H640 C663 0.950 . S
H641 C665 0.950 . S
H642 C666 0.950 . S
H643 C667 0.951 . S
H644 C669 0.951 . S
H645 C671 0.950 . S
H646 C672 0.950 1_554 S
H647 C674 0.950 . S
H648 C677 0.950 . S
H649 C678 0.950 . S
H650 C680 0.950 . S
H651 C681 0.950 . S
C652 H634 0.951 . S
C652 C653 1.366 . S
C652 C654 1.388 . S
C653 C652 1.366 . S
C653 C657 1.385 . S
C654 H635 0.951 . S
C654 C652 1.388 . S
C654 C655 1.366 . S
C655 C654 1.366 . S
C655 C656 1.414 . S
C655 C658 1.499 . S
C656 H636 0.950 . S
C656 C655 1.414 . S
C656 C657 1.374 . S
C657 H637 0.950 . S
C657 C653 1.385 . S
C657 C656 1.374 . S
C658 C655 1.499 . S
C658 C659 1.373 . S
C658 C660 1.389 . S
C659 H638 0.950 . S
C659 C658 1.373 . S
C659 C675 1.377 . S
C660 C658 1.389 . S
C660 C661 1.524 . S
C660 C674 1.377 . S
C661 C660 1.524 . S
C661 C662 1.397 . S
C661 C666 1.363 . S
C662 H639 0.950 . S
C662 C661 1.397 . S
C662 C663 1.334 . S
C663 H640 0.950 . S
C663 C662 1.334 . S
C663 C664 1.287 . S
C664 C663 1.287 . S
C664 C665 1.524 . S
C664 H683 0.913 . S
C665 H641 0.950 . S
C665 C664 1.524 . S
C665 C666 1.415 . S
C666 H642 0.950 . S
C666 C661 1.363 . S
C666 C665 1.415 . S
C667 H643 0.951 . S
C667 C668 1.366 . S
C667 C669 1.388 . S
C668 C667 1.366 . S
C668 C672 1.385 . S
C669 H644 0.951 . S
C669 C667 1.388 . S
C669 C670 1.366 . S
C670 C669 1.366 . S
C670 C671 1.414 . S
C670 C673 1.499 . S
C671 H645 0.950 . S
C671 C670 1.414 . S
C671 C672 1.374 . S
C672 H646 0.950 1_556 S
C672 C668 1.385 . S
C672 C671 1.374 . S
C673 C670 1.499 . S
C673 C674 1.373 . S
C673 C675 1.389 . S
C674 H647 0.950 . S
C674 C660 1.377 . S
C674 C673 1.373 . S
C675 C659 1.377 . S
C675 C673 1.389 . S
C675 C676 1.524 . S
C676 C675 1.524 . S
C676 C677 1.397 . S
C676 C681 1.363 . S
C677 H648 0.950 . S
C677 C676 1.397 . S
C677 C678 1.334 . S
C678 H649 0.950 . S
C678 C677 1.334 . S
C678 C679 1.287 . S
C679 C678 1.287 . S
C679 C680 1.524 . S
C679 H682 0.999 . S
C680 H650 0.950 . S
C680 C679 1.524 . S
C680 C681 1.415 . S
C681 H651 0.950 . S
C681 C676 1.363 . S
C681 C680 1.415 . S
H682 C679 0.999 . S
H683 C664 0.913 . S
C103 C12 1.355 . S
C118 C83 1.355 . S
C153 C26 1.355 . S
C168 C0 1.355 . S
C203 C14 1.355 . S
C218 C28 1.355 . S
C253 C42 1.355 . S
C268 C40 1.355 . S
C303 C54 1.355 . S
C318 C57 1.355 . S
C353 C71 1.354 . S
C368 C69 1.355 . S
C403 C68 1.475 . S
C418 C13 1.475 . S
C453 C82 1.475 . S
C468 C27 1.475 . S
C503 C29 1.475 . S
C518 C1 1.475 . S
C553 C43 1.475 . S
C568 C15 1.475 . S
C603 C56 1.476 . S
C618 C41 1.475 . S
C653 C70 1.475 . S
C668 C55 1.475 . S
