# Generated by pormake.
# Topology uol, (4)-cn, num edge types: 1
# Building blocks:
#     Node 0, Type 0, BuildingBlock: GALJAG_clean_sbu_0, # of connection points: 4
#     Node 1, Type 0, BuildingBlock: GALJAG_clean_sbu_0, # of connection points: 4
#     Node 2, Type 0, BuildingBlock: GALJAG_clean_sbu_0, # of connection points: 4
#     Node 3, Type 0, BuildingBlock: GALJAG_clean_sbu_0, # of connection points: 4
#     Node 4, Type 0, BuildingBlock: GALJAG_clean_sbu_0, # of connection points: 4
#     Node 5, Type 0, BuildingBlock: GALJAG_clean_sbu_0, # of connection points: 4
#     Node 6, Type 0, BuildingBlock: GALJAG_clean_sbu_0, # of connection points: 4
#     Node 7, Type 0, BuildingBlock: GALJAG_clean_sbu_0, # of connection points: 4
#     Node 8, Type 0, BuildingBlock: GALJAG_clean_sbu_0, # of connection points: 4
#     Node 9, Type 0, BuildingBlock: GALJAG_clean_sbu_0, # of connection points: 4
#     Node 10, Type 0, BuildingBlock: GALJAG_clean_sbu_0, # of connection points: 4
#     Node 11, Type 0, BuildingBlock: GALJAG_clean_sbu_0, # of connection points: 4
#     Edge 12, Type (0, 0), BuildingBlock: ZUJKAS_clean_linker_0, # of connection points: 2
#     Edge 13, Type (0, 0), BuildingBlock: ZUJKAS_clean_linker_0, # of connection points: 2
#     Edge 14, Type (0, 0), BuildingBlock: ZUJKAS_clean_linker_0, # of connection points: 2
#     Edge 15, Type (0, 0), BuildingBlock: ZUJKAS_clean_linker_0, # of connection points: 2
#     Edge 16, Type (0, 0), BuildingBlock: ZUJKAS_clean_linker_0, # of connection points: 2
#     Edge 17, Type (0, 0), BuildingBlock: ZUJKAS_clean_linker_0, # of connection points: 2
#     Edge 18, Type (0, 0), BuildingBlock: ZUJKAS_clean_linker_0, # of connection points: 2
#     Edge 19, Type (0, 0), BuildingBlock: ZUJKAS_clean_linker_0, # of connection points: 2
#     Edge 20, Type (0, 0), BuildingBlock: ZUJKAS_clean_linker_0, # of connection points: 2
#     Edge 21, Type (0, 0), BuildingBlock: ZUJKAS_clean_linker_0, # of connection points: 2
#     Edge 22, Type (0, 0), BuildingBlock: ZUJKAS_clean_linker_0, # of connection points: 2
#     Edge 23, Type (0, 0), BuildingBlock: ZUJKAS_clean_linker_0, # of connection points: 2
#     Edge 24, Type (0, 0), BuildingBlock: ZUJKAS_clean_linker_0, # of connection points: 2
#     Edge 25, Type (0, 0), BuildingBlock: ZUJKAS_clean_linker_0, # of connection points: 2
#     Edge 26, Type (0, 0), BuildingBlock: ZUJKAS_clean_linker_0, # of connection points: 2
#     Edge 27, Type (0, 0), BuildingBlock: ZUJKAS_clean_linker_0, # of connection points: 2
#     Edge 28, Type (0, 0), BuildingBlock: ZUJKAS_clean_linker_0, # of connection points: 2
#     Edge 29, Type (0, 0), BuildingBlock: ZUJKAS_clean_linker_0, # of connection points: 2
#     Edge 30, Type (0, 0), BuildingBlock: ZUJKAS_clean_linker_0, # of connection points: 2
#     Edge 31, Type (0, 0), BuildingBlock: ZUJKAS_clean_linker_0, # of connection points: 2
#     Edge 32, Type (0, 0), BuildingBlock: ZUJKAS_clean_linker_0, # of connection points: 2
#     Edge 33, Type (0, 0), BuildingBlock: ZUJKAS_clean_linker_0, # of connection points: 2
#     Edge 34, Type (0, 0), BuildingBlock: ZUJKAS_clean_linker_0, # of connection points: 2
#     Edge 35, Type (0, 0), BuildingBlock: ZUJKAS_clean_linker_0, # of connection points: 2
# Relax obj value: 0.122
# Max RMSD: 0.117
# Mean RMSD: 0.117
data_MOF--net-uol--node1-GALJAG_clean_sbu_0--edge1-ZUJKAS_clean_linker_0
_symmetry_space_group_name_H-M    P1
_symmetry_Int_Tables_number       1
_symmetry_cell_setting            triclinic
loop_
_symmetry_equiv_pos_as_xyz
'x, y, z'
_cell_length_a     44.813294
_cell_length_b     44.820902
_cell_length_c     77.563589
_cell_angle_alpha  89.999924
_cell_angle_beta   89.987472
_cell_angle_gamma 120.01206
loop_
_atom_site_label
_atom_site_type_symbol
_atom_site_fract_x
_atom_site_fract_y
_atom_site_fract_z
_atom_type_partial_charge
In0 In 0.17341 0.36813 0.08633 0.0
O1 O 0.11542 0.32919 0.0867 0.0
O2 O 0.13827 0.35928 0.10913 0.0
C3 C 0.18945 0.35184 0.05552 0.0
C4 C 0.18215 0.43195 0.0829 0.0
C5 C 0.20995 0.35016 0.10723 0.0
O6 O 0.15917 0.33658 0.06147 0.0
O7 O 0.21139 0.37558 0.06498 0.0
O8 O 0.22042 0.38106 0.10305 0.0
O9 O 0.18147 0.32851 0.10068 0.0
C10 C 0.11131 0.33615 0.102 0.0
O11 O 0.19699 0.4243 0.09444 0.0
O12 O 0.16335 0.40756 0.07286 0.0
In13 In 0.80347 0.17088 0.25144 0.0
O14 O 0.79224 0.11507 0.25305 0.0
O15 O 0.76827 0.13167 0.27127 0.0
C16 C 0.83531 0.18855 0.2205 0.0
C17 C 0.74945 0.18096 0.24723 0.0
C18 C 0.85635 0.20686 0.27345 0.0
O19 O 0.81826 0.15766 0.2255 0.0
O20 O 0.83572 0.2103 0.23095 0.0
O21 O 0.83403 0.21534 0.2702 0.0
O22 O 0.85202 0.18036 0.2656 0.0
C23 C 0.77246 0.10749 0.2659 0.0
O24 O 0.77163 0.19547 0.25896 0.0
O25 O 0.75478 0.16165 0.23739 0.0
In26 In 0.62916 0.80619 0.41902 0.0
O27 O 0.6743 0.79586 0.42142 0.0
O28 O 0.6309 0.76825 0.43775 0.0
C29 C 0.64466 0.83885 0.38828 0.0
C30 C 0.5644 0.75306 0.41514 0.0
C31 C 0.64705 0.85866 0.44141 0.0
O32 O 0.65534 0.81861 0.3925 0.0
O33 O 0.62586 0.84197 0.39938 0.0
O34 O 0.61634 0.83939 0.43655 0.0
O35 O 0.66848 0.85138 0.43501 0.0
C36 C 0.66037 0.77399 0.43335 0.0
O37 O 0.57315 0.77429 0.42742 0.0
O38 O 0.58819 0.75905 0.40457 0.0
In39 In 0.81966 0.62849 0.58619 0.0
O40 O 0.79467 0.57143 0.59274 0.0
O41 O 0.83275 0.59084 0.57307 0.0
C42 C 0.78122 0.64483 0.60667 0.0
C43 C 0.88096 0.66083 0.60266 0.0
C44 C 0.80351 0.6445 0.55532 0.0
O45 O 0.77322 0.61405 0.60363 0.0
O46 O 0.80843 0.66719 0.59935 0.0
O47 O 0.83349 0.66092 0.56158 0.0
O48 O 0.7821 0.61969 0.56444 0.0
C49 C 0.81185 0.5652 0.58192 0.0
O50 O 0.87732 0.66839 0.58741 0.0
O51 O 0.85392 0.63693 0.60938 0.0
In52 In 0.19146 0.82366 0.7515 0.0
O53 O 0.21675 0.88263 0.75277 0.0
O54 O 0.20811 0.85493 0.77618 0.0
C55 C 0.1602 0.80993 0.72039 0.0
C56 C 0.24721 0.81587 0.74843 0.0
C57 C 0.13611 0.78385 0.77128 0.0
O58 O 0.17018 0.8381 0.72815 0.0
O59 O 0.16683 0.78915 0.7281 0.0
O60 O 0.16085 0.77814 0.76961 0.0
O61 O 0.1392 0.80931 0.76282 0.0
C62 C 0.21935 0.8838 0.76899 0.0
O63 O 0.22119 0.79576 0.75726 0.0
O64 O 0.24484 0.8395 0.74085 0.0
In65 In 0.36632 0.19147 0.92051 0.0
O66 O 0.33064 0.21454 0.92074 0.0
O67 O 0.35135 0.20985 0.94451 0.0
C68 C 0.34955 0.16002 0.88945 0.0
C69 C 0.42909 0.24817 0.91782 0.0
C70 C 0.35417 0.13667 0.94005 0.0
O71 O 0.3287 0.16468 0.89838 0.0
O72 O 0.37912 0.17194 0.89599 0.0
O73 O 0.38421 0.16137 0.93729 0.0
O74 O 0.33052 0.13953 0.93282 0.0
C75 C 0.33247 0.21902 0.93685 0.0
O76 O 0.42258 0.22409 0.92826 0.0
O77 O 0.404 0.24349 0.90851 0.0
In78 In 0.63252 0.82756 0.74607 0.0
O79 O 0.57411 0.79752 0.7438 0.0
O80 O 0.59723 0.8481 0.75429 0.0
C81 C 0.6438 0.7846 0.72618 0.0
C82 C 0.6676 0.88786 0.72892 0.0
C83 C 0.64897 0.81519 0.77776 0.0
O84 O 0.61576 0.78478 0.72589 0.0
O85 O 0.66583 0.80573 0.73657 0.0
O86 O 0.6702 0.83944 0.7683 0.0
O87 O 0.61921 0.7977 0.77143 0.0
C88 C 0.56984 0.82125 0.74986 0.0
O89 O 0.6716 0.88545 0.74487 0.0
O90 O 0.64583 0.86013 0.72182 0.0
In91 In 0.80514 0.63217 0.9125 0.0
O92 O 0.78003 0.66608 0.91224 0.0
O93 O 0.78718 0.64723 0.88841 0.0
C94 C 0.83698 0.64968 0.9434 0.0
C95 C 0.74978 0.56827 0.91535 0.0
C96 C 0.86092 0.64817 0.89298 0.0
O97 O 0.82483 0.66667 0.93631 0.0
O98 O 0.83248 0.62358 0.93506 0.0
O99 O 0.83779 0.6174 0.89584 0.0
O100 O 0.85605 0.67067 0.90015 0.0
C101 C 0.77652 0.66489 0.89607 0.0
O102 O 0.77233 0.57629 0.90381 0.0
O103 O 0.75538 0.59231 0.92563 0.0
In104 In 0.17358 0.80774 0.07912 0.0
O105 O 0.11507 0.78622 0.07848 0.0
O106 O 0.14078 0.79005 0.05491 0.0
C107 C 0.18711 0.83552 0.11103 0.0
C108 C 0.17885 0.75055 0.0808 0.0
C109 C 0.21758 0.86398 0.06077 0.0
O110 O 0.16292 0.83344 0.10184 0.0
O111 O 0.20414 0.82315 0.10424 0.0
O112 O 0.2225 0.8389 0.06309 0.0
O113 O 0.19083 0.8608 0.06786 0.0
C114 C 0.1127 0.78165 0.06237 0.0
O115 O 0.19691 0.7752 0.07072 0.0
O116 O 0.15824 0.75484 0.09016 0.0
In117 In 0.36377 0.16832 0.24606 0.0
O118 O 0.4193 0.19374 0.23659 0.0
O119 O 0.40499 0.159 0.25774 0.0
C120 C 0.34663 0.20717 0.2264 0.0
C121 C 0.33417 0.1059 0.2308 0.0
C122 C 0.34587 0.18128 0.27725 0.0
O123 O 0.37706 0.21813 0.23161 0.0
O124 O 0.32519 0.17707 0.23125 0.0
O125 O 0.32513 0.1565 0.2679 0.0
O126 O 0.3757 0.19902 0.27103 0.0
C127 C 0.42837 0.1788 0.24743 0.0
O128 O 0.33189 0.10919 0.24685 0.0
O129 O 0.35127 0.13383 0.22272 0.0
In130 In 0.19176 0.36579 0.41195 0.0
O131 O 0.22205 0.42231 0.40403 0.0
O132 O 0.24385 0.40515 0.42322 0.0
C133 C 0.13503 0.34919 0.39303 0.0
C134 C 0.22042 0.33321 0.39539 0.0
C135 C 0.1621 0.35015 0.44344 0.0
O136 O 0.15949 0.37983 0.39449 0.0
O137 O 0.13911 0.3272 0.40123 0.0
O138 O 0.16913 0.33015 0.43522 0.0
O139 O 0.17069 0.37829 0.43594 0.0
C140 C 0.24696 0.42984 0.41407 0.0
O141 O 0.21719 0.3322 0.41158 0.0
O142 O 0.20943 0.35062 0.38776 0.0
In143 In 0.83028 0.19549 0.57843 0.0
O144 O 0.80867 0.22766 0.56678 0.0
O145 O 0.8314 0.24143 0.59163 0.0
C146 C 0.7884 0.14656 0.55565 0.0
C147 C 0.89654 0.22229 0.56833 0.0
C148 C 0.81925 0.16385 0.60934 0.0
O149 O 0.78217 0.14458 0.57157 0.0
O150 O 0.81536 0.17362 0.55111 0.0
O151 O 0.84644 0.1731 0.60077 0.0
O152 O 0.79828 0.17128 0.6025 0.0
C153 C 0.81688 0.2479 0.57945 0.0
O154 O 0.87531 0.19035 0.56814 0.0
O155 O 0.88466 0.2405 0.57416 0.0
H156 H 0.14884 0.69779 0.10395 0.0
H157 H 0.15231 0.645 0.10455 0.0
H158 H 0.21646 0.67856 0.05911 0.0
H159 H 0.21395 0.7318 0.05875 0.0
H160 H 0.13075 0.59468 0.08101 0.0
H161 H 0.27155 0.65243 0.09034 0.0
H162 H 0.24978 0.6768 0.09301 0.0
H163 H 0.26094 0.66923 0.0718 0.0
C164 C 0.16392 0.69401 0.09418 0.0
C165 C 0.18129 0.71894 0.08136 0.0
C166 C 0.16586 0.66387 0.09452 0.0
C167 C 0.18511 0.6581 0.08204 0.0
C168 C 0.20222 0.68286 0.06914 0.0
H169 H 0.15726 0.45615 0.05771 0.0
H170 H 0.15897 0.51159 0.05704 0.0
C171 C 0.20057 0.71316 0.06888 0.0
C172 C 0.18608 0.62553 0.08213 0.0
H173 H 0.2405 0.59291 0.08279 0.0
C174 C 0.15474 0.59428 0.08148 0.0
C175 C 0.21739 0.62506 0.08295 0.0
C176 C 0.2518 0.65766 0.08474 0.0
C177 C 0.15382 0.56254 0.08144 0.0
C178 C 0.18517 0.56211 0.08157 0.0
C179 C 0.21652 0.59334 0.08245 0.0
C180 C 0.18594 0.52944 0.08135 0.0
C181 C 0.11923 0.52983 0.08166 0.0
C182 C 0.20187 0.52176 0.09483 0.0
C183 C 0.20142 0.49038 0.0951 0.0
C184 C 0.18493 0.46612 0.0819 0.0
C185 C 0.16988 0.47426 0.06814 0.0
C186 C 0.17062 0.50579 0.0678 0.0
H187 H 0.09851 0.5345 0.0864 0.0
H188 H 0.11244 0.51949 0.06836 0.0
H189 H 0.11982 0.50992 0.08994 0.0
H190 H 0.21402 0.53975 0.10536 0.0
H191 H 0.21327 0.48482 0.10586 0.0
H192 H 0.72922 0.21477 0.26929 0.0
H193 H 0.67579 0.21692 0.26839 0.0
H194 H 0.64699 0.15846 0.2211 0.0
H195 H 0.70004 0.15544 0.22214 0.0
H196 H 0.64893 0.24236 0.24482 0.0
H197 H 0.56455 0.1009 0.2519 0.0
H198 H 0.61054 0.12225 0.25513 0.0
H199 H 0.59297 0.1133 0.23367 0.0
C200 C 0.71157 0.2025 0.25865 0.0
C201 C 0.71861 0.18465 0.24587 0.0
C202 C 0.68109 0.20379 0.25815 0.0
C203 C 0.65714 0.1873 0.24486 0.0
C204 C 0.66475 0.17065 0.23169 0.0
H205 H 0.47982 0.21249 0.22387 0.0
H206 H 0.5361 0.21603 0.22321 0.0
C207 C 0.69514 0.16913 0.23225 0.0
C208 C 0.62392 0.18696 0.24507 0.0
H209 H 0.53683 0.1332 0.24663 0.0
C210 C 0.62438 0.21852 0.24522 0.0
C211 C 0.59199 0.15581 0.24588 0.0
C212 C 0.58984 0.12114 0.24681 0.0
C213 C 0.59373 0.21977 0.24603 0.0
C214 C 0.56178 0.18859 0.24634 0.0
C215 C 0.56135 0.15707 0.24628 0.0
C216 C 0.52837 0.18787 0.24703 0.0
C217 C 0.59592 0.25444 0.247 0.0
C218 C 0.5051 0.17034 0.26046 0.0
C219 C 0.47278 0.16788 0.26074 0.0
C220 C 0.46319 0.18297 0.2476 0.0
C221 C 0.48665 0.20086 0.23426 0.0
C222 C 0.51889 0.20308 0.23391 0.0
H223 H 0.62167 0.27484 0.2515 0.0
H224 H 0.5916 0.26177 0.23396 0.0
H225 H 0.576 0.25366 0.2558 0.0
H226 H 0.51186 0.15832 0.27068 0.0
H227 H 0.45522 0.15391 0.27118 0.0
H228 H 0.51262 0.73028 0.43883 0.0
H229 H 0.45741 0.67638 0.43826 0.0
H230 H 0.48239 0.65256 0.38828 0.0
H231 H 0.53811 0.70604 0.38899 0.0
H232 H 0.40253 0.65061 0.4165 0.0
H233 H 0.46195 0.56776 0.41594 0.0
H234 H 0.48649 0.61344 0.4201 0.0
H235 H 0.47558 0.59775 0.39835 0.0
C236 C 0.50628 0.71364 0.42768 0.0
C237 C 0.52979 0.72218 0.41402 0.0
C238 C 0.47472 0.68287 0.42737 0.0
C239 C 0.46609 0.66013 0.41339 0.0
C240 C 0.48891 0.66932 0.3994 0.0
H241 H 0.26282 0.48435 0.39286 0.0
H242 H 0.31535 0.54078 0.39292 0.0
C243 C 0.52061 0.69998 0.39976 0.0
C244 C 0.43352 0.62655 0.41368 0.0
H245 H 0.40141 0.53965 0.41202 0.0
C246 C 0.40224 0.62633 0.41554 0.0
C247 C 0.43328 0.5949 0.41275 0.0
C248 C 0.46612 0.59333 0.41185 0.0
C249 C 0.37066 0.59528 0.41629 0.0
C250 C 0.37036 0.56367 0.41474 0.0
C251 C 0.40167 0.56392 0.41306 0.0
C252 C 0.33794 0.52993 0.415 0.0
C253 C 0.33807 0.59667 0.41913 0.0
C254 C 0.33349 0.50479 0.42715 0.0
C255 C 0.30371 0.47237 0.42698 0.0
C256 C 0.27783 0.46452 0.41467 0.0
C257 C 0.2822 0.48978 0.40259 0.0
C258 C 0.31212 0.52211 0.40268 0.0
H259 H 0.34354 0.62152 0.42501 0.0
H260 H 0.32531 0.5942 0.40653 0.0
H261 H 0.31981 0.57532 0.4276 0.0
H262 H 0.35316 0.51022 0.43672 0.0
H263 H 0.30107 0.4534 0.43643 0.0
H264 H 0.77214 0.50794 0.60127 0.0
H265 H 0.77025 0.45247 0.60001 0.0
H266 H 0.84226 0.48939 0.55764 0.0
H267 H 0.84478 0.54519 0.55903 0.0
H268 H 0.75242 0.40426 0.57371 0.0
H269 H 0.8893 0.45895 0.59298 0.0
H270 H 0.86683 0.4828 0.59486 0.0
H271 H 0.88311 0.47888 0.5743 0.0
C272 C 0.78747 0.5042 0.59164 0.0
C273 C 0.80886 0.53098 0.58034 0.0
C274 C 0.78631 0.47249 0.59092 0.0
C275 C 0.80655 0.46705 0.57893 0.0
C276 C 0.82699 0.49333 0.56723 0.0
H277 H 0.79253 0.2711 0.55347 0.0
H278 H 0.78805 0.32336 0.55333 0.0
C279 C 0.82828 0.52511 0.56798 0.0
C280 C 0.80681 0.43415 0.57896 0.0
H281 H 0.85943 0.40028 0.58466 0.0
C282 C 0.77578 0.40331 0.57611 0.0
C283 C 0.83725 0.43303 0.58236 0.0
C284 C 0.87097 0.46512 0.58647 0.0
C285 C 0.77444 0.37133 0.57638 0.0
C286 C 0.80508 0.37033 0.5793 0.0
C287 C 0.83602 0.40116 0.5823 0.0
C288 C 0.80574 0.33762 0.57961 0.0
C289 C 0.74015 0.33891 0.5739 0.0
C290 C 0.81755 0.32853 0.59435 0.0
C291 C 0.82045 0.29894 0.59441 0.0
C292 C 0.81164 0.2779 0.5797 0.0
C293 C 0.79929 0.28671 0.56503 0.0
C294 C 0.79654 0.31645 0.56496 0.0
H295 H 0.71826 0.34336 0.57641 0.0
H296 H 0.73809 0.33001 0.56037 0.0
H297 H 0.73767 0.31802 0.58253 0.0
H298 H 0.82489 0.34459 0.60577 0.0
H299 H 0.83006 0.29281 0.6059 0.0
H300 H 0.55457 0.87011 0.76063 0.0
H301 H 0.49802 0.86602 0.76091 0.0
H302 H 0.45126 0.76178 0.74189 0.0
H303 H 0.50776 0.76583 0.74135 0.0
H304 H 0.43148 0.80222 0.72374 0.0
H305 H 0.41755 0.81316 0.79417 0.0
H306 H 0.45699 0.8473 0.78539 0.0
H307 H 0.44914 0.80384 0.78514 0.0
C308 C 0.53219 0.84622 0.75667 0.0
C309 C 0.53555 0.81826 0.751 0.0
C310 C 0.49989 0.84386 0.75692 0.0
C311 C 0.47041 0.81344 0.75163 0.0
C312 C 0.47369 0.78543 0.74609 0.0
H313 H 0.25904 0.7689 0.76483 0.0
H314 H 0.31238 0.76636 0.76496 0.0
C315 C 0.50596 0.78777 0.74581 0.0
C316 C 0.43639 0.81136 0.75113 0.0
H317 H 0.37728 0.81809 0.77608 0.0
C318 C 0.41951 0.80548 0.73519 0.0
C319 C 0.42068 0.81523 0.76612 0.0
C320 C 0.43682 0.81991 0.78371 0.0
C321 C 0.38765 0.80415 0.73378 0.0
C322 C 0.37259 0.80934 0.74866 0.0
C323 C 0.38907 0.81441 0.76466 0.0
C324 C 0.33991 0.80997 0.7479 0.0
C325 C 0.37025 0.79692 0.7164 0.0
C326 C 0.3378 0.83536 0.73827 0.0
C327 C 0.30739 0.83684 0.73815 0.0
C328 C 0.27864 0.81305 0.74774 0.0
C329 C 0.28074 0.78749 0.75726 0.0
C330 C 0.31118 0.78605 0.75739 0.0
H331 H 0.38029 0.78462 0.70747 0.0
H332 H 0.34194 0.7799 0.71767 0.0
H333 H 0.37521 0.82156 0.71052 0.0
H334 H 0.3599 0.85445 0.73111 0.0
H335 H 0.3066 0.85695 0.73077 0.0
H336 H 0.48367 0.26697 0.93934 0.0
H337 H 0.53891 0.32085 0.93911 0.0
H338 H 0.50694 0.3544 0.89419 0.0
H339 H 0.45121 0.30092 0.89463 0.0
H340 H 0.58957 0.34913 0.91522 0.0
H341 H 0.53529 0.43469 0.92672 0.0
H342 H 0.51003 0.38851 0.92905 0.0
H343 H 0.5177 0.40793 0.90801 0.0
C344 C 0.48842 0.28583 0.92941 0.0
C345 C 0.46306 0.2799 0.91708 0.0
C346 C 0.51998 0.31657 0.92929 0.0
C347 C 0.52678 0.3419 0.91683 0.0
C348 C 0.50189 0.33558 0.90418 0.0
H349 H 0.72783 0.51596 0.89201 0.0
H350 H 0.67434 0.46041 0.89274 0.0
C351 C 0.47017 0.30494 0.90438 0.0
C352 C 0.55997 0.37484 0.91711 0.0
H353 H 0.59473 0.46204 0.9195 0.0
C354 C 0.59074 0.37383 0.91622 0.0
C355 C 0.56142 0.40699 0.91871 0.0
C356 C 0.52937 0.4097 0.92086 0.0
C357 C 0.62296 0.40416 0.91661 0.0
C358 C 0.62437 0.43637 0.91752 0.0
C359 C 0.5936 0.43733 0.91866 0.0
C360 C 0.65742 0.46947 0.91734 0.0
C361 C 0.65512 0.40131 0.91641 0.0
C362 C 0.66535 0.49334 0.93074 0.0
C363 C 0.69565 0.5253 0.93023 0.0
C364 C 0.71858 0.53391 0.91631 0.0
C365 C 0.71078 0.50989 0.90298 0.0
C366 C 0.68032 0.47805 0.90343 0.0
H367 H 0.64982 0.37557 0.9209 0.0
H368 H 0.66505 0.40488 0.90302 0.0
H369 H 0.67556 0.42133 0.92467 0.0
H370 H 0.64796 0.4873 0.94156 0.0
H371 H 0.70098 0.54334 0.94067 0.0
H372 H 0.28407 0.18563 0.21178 0.0
H373 H 0.26746 0.21757 0.19234 0.0
H374 H 0.36951 0.3062 0.19618 0.0
H375 H 0.38665 0.27393 0.21546 0.0
H376 H 0.26667 0.27765 0.198 0.0
H377 H 0.35561 0.29341 0.14416 0.0
H378 H 0.34732 0.26405 0.16182 0.0
H379 H 0.37552 0.30952 0.16477 0.0
C380 C 0.30303 0.21191 0.2085 0.0
C381 C 0.33671 0.22725 0.21508 0.0
C382 C 0.29348 0.23014 0.19739 0.0
C383 C 0.31736 0.26409 0.19264 0.0
C384 C 0.35089 0.27978 0.19941 0.0
H385 H 0.2731 0.39127 0.12202 0.0
H386 H 0.30232 0.37423 0.14336 0.0
C387 C 0.36057 0.26142 0.21049 0.0
C388 C 0.30652 0.28267 0.18068 0.0
H389 H 0.31875 0.31613 0.14 0.0
C390 C 0.27827 0.28635 0.18538 0.0
C391 C 0.32179 0.2941 0.16424 0.0
C392 C 0.35157 0.28992 0.15832 0.0
C393 C 0.26422 0.30018 0.1739 0.0
C394 C 0.27867 0.31039 0.15729 0.0
C395 C 0.30781 0.30818 0.15279 0.0
C396 C 0.26204 0.32076 0.144 0.0
C397 C 0.23356 0.30314 0.17948 0.0
C398 C 0.23016 0.29614 0.13715 0.0
C399 C 0.21359 0.30567 0.12496 0.0
C400 C 0.22861 0.34005 0.11943 0.0
C401 C 0.26091 0.36461 0.12608 0.0
C402 C 0.27761 0.35496 0.13823 0.0
H403 H 0.23046 0.30168 0.19372 0.0
H404 H 0.236 0.32775 0.17491 0.0
H405 H 0.20983 0.28168 0.17373 0.0
H406 H 0.21798 0.26954 0.14134 0.0
H407 H 0.18878 0.28617 0.12005 0.0
H408 H 0.86885 0.26227 0.29336 0.0
H409 H 0.91642 0.29352 0.31374 0.0
H410 H 0.95601 0.22601 0.30133 0.0
H411 H 0.90877 0.19481 0.28095 0.0
H412 H 0.93284 0.2657 0.34282 0.0
H413 H 0.04027 0.32368 0.29573 0.0
H414 H 0.99577 0.30654 0.28956 0.0
H415 H 0.01256 0.27805 0.29308 0.0
C416 C 0.88783 0.25425 0.29492 0.0
C417 C 0.88519 0.22618 0.28554 0.0
C418 C 0.91492 0.27209 0.30655 0.0
C419 C 0.93994 0.26235 0.30883 0.0
C420 C 0.9373 0.23432 0.2995 0.0
H421 H 0.0784 0.28558 0.38947 0.0
H422 H 0.03002 0.26828 0.36973 0.0
C423 C 0.9102 0.21642 0.28794 0.0
C424 C 0.96814 0.28047 0.32145 0.0
H425 H 0.05573 0.32361 0.32524 0.0
C426 C 0.95972 0.27876 0.33899 0.0
C427 C 0.00313 0.29788 0.31637 0.0
C428 C 0.01357 0.30201 0.29764 0.0
C429 C 0.98549 0.29261 0.35167 0.0
C430 C 0.02045 0.3082 0.34664 0.0
C431 C 0.02888 0.31137 0.32906 0.0
C432 C 0.04859 0.31945 0.35941 0.0
C433 C 0.97509 0.29011 0.37034 0.0
C434 C 0.07526 0.35391 0.36002 0.0
C435 C 0.10303 0.36389 0.37129 0.0
C436 C 0.10471 0.33942 0.38197 0.0
C437 C 0.07776 0.30502 0.38144 0.0
C438 C 0.04999 0.29513 0.37025 0.0
H439 H 0.94892 0.2868 0.3717 0.0
H440 H 0.97472 0.2674 0.37627 0.0
H441 H 0.99368 0.31342 0.37762 0.0
H442 H 0.07473 0.37299 0.35164 0.0
H443 H 0.1235 0.39055 0.37138 0.0
H444 H 0.79955 0.14309 0.52129 0.0
H445 H 0.76825 0.0936 0.50214 0.0
H446 H 0.69864 0.03653 0.54356 0.0
H447 H 0.73013 0.08577 0.56286 0.0
H448 H 0.72658 0.00129 0.5281 0.0
H449 H 0.67456 0.0521 0.47858 0.0
H450 H 0.72002 0.07928 0.48199 0.0
H451 H 0.69042 0.07292 0.49916 0.0
C452 C 0.77722 0.12021 0.52623 0.0
C453 C 0.7673 0.11826 0.54357 0.0
C454 C 0.75923 0.09202 0.51525 0.0
C455 C 0.73086 0.06153 0.52137 0.0
C456 C 0.72035 0.05989 0.53856 0.0
H457 H 0.60635 0.88151 0.45583 0.0
H458 H 0.62409 0.9297 0.47601 0.0
C459 C 0.73835 0.08803 0.54955 0.0
C460 C 0.7142 0.03043 0.51031 0.0
H461 H 0.67543 0.00051 0.47126 0.0
C462 C 0.71503 0.00099 0.51577 0.0
C463 C 0.69882 0.02995 0.49431 0.0
C464 C 0.69554 0.06014 0.48822 0.0
C465 C 0.70208 0.97153 0.50536 0.0
C466 C 0.68841 0.97174 0.48896 0.0
C467 C 0.68629 0.00062 0.48378 0.0
C468 C 0.67753 0.94272 0.47677 0.0
C469 C 0.70331 0.94049 0.51195 0.0
C470 C 0.70181 0.93448 0.4704 0.0
C471 C 0.69182 0.90713 0.45892 0.0
C472 C 0.65734 0.88757 0.45355 0.0
C473 C 0.63307 0.89606 0.45981 0.0
C474 C 0.64315 0.92356 0.47129 0.0
H475 H 0.70559 0.94088 0.52623 0.0
H476 H 0.67993 0.91621 0.50804 0.0
H477 H 0.72613 0.94047 0.50641 0.0
H478 H 0.72859 0.94936 0.47425 0.0
H479 H 0.71114 0.90133 0.45425 0.0
H480 H 0.72184 0.60147 0.62399 0.0
H481 H 0.68914 0.6175 0.64356 0.0
H482 H 0.7624 0.725 0.63504 0.0
H483 H 0.79482 0.70927 0.61536 0.0
H484 H 0.71146 0.65464 0.67373 0.0
H485 H 0.6707 0.72118 0.62739 0.0
H486 H 0.68707 0.69353 0.6206 0.0
H487 H 0.7163 0.7375 0.62669 0.0
C488 C 0.73076 0.62852 0.62619 0.0
C489 C 0.7608 0.65414 0.61811 0.0
C490 C 0.71208 0.63761 0.63735 0.0
C491 C 0.72302 0.67243 0.6405 0.0
C492 C 0.75303 0.69799 0.63246 0.0
H493 H 0.70224 0.78033 0.72497 0.0
H494 H 0.71634 0.74774 0.70458 0.0
C495 C 0.77166 0.68895 0.62131 0.0
C496 C 0.70436 0.68233 0.65292 0.0
H497 H 0.66917 0.73406 0.6574 0.0
C498 C 0.70172 0.67158 0.67012 0.0
C499 C 0.69109 0.70389 0.64813 0.0
C500 C 0.69108 0.7144 0.62966 0.0
C501 C 0.68794 0.68345 0.68286 0.0
C502 C 0.6771 0.7071 0.67829 0.0
C503 C 0.6779 0.71625 0.66092 0.0
C504 C 0.66719 0.72456 0.69142 0.0
C505 C 0.68553 0.67089 0.70113 0.0
C506 C 0.63502 0.72275 0.69063 0.0
C507 C 0.62696 0.74158 0.70223 0.0
C508 C 0.65109 0.76275 0.71468 0.0
C509 C 0.68306 0.76412 0.71557 0.0
C510 C 0.69107 0.74531 0.70401 0.0
H511 H 0.68401 0.64539 0.7015 0.0
H512 H 0.70897 0.68942 0.70832 0.0
H513 H 0.66267 0.6688 0.70786 0.0
H514 H 0.61635 0.7071 0.68091 0.0
H515 H 0.60215 0.74012 0.70122 0.0
H516 H 0.91376 0.71243 0.88561 0.0
H517 H 0.96065 0.72821 0.86504 0.0
H518 H 0.9221 0.62083 0.85374 0.0
H519 H 0.87478 0.60476 0.87426 0.0
H520 H 0.01216 0.70858 0.86366 0.0
H521 H 0.92609 0.66523 0.80623 0.0
H522 H 0.91206 0.67149 0.82705 0.0
H523 H 0.91572 0.634 0.82309 0.0
C524 C 0.91534 0.69214 0.87882 0.0
C525 C 0.8905 0.65737 0.88145 0.0
C526 C 0.94216 0.7012 0.8671 0.0
C527 C 0.94455 0.6757 0.85774 0.0
C528 C 0.92037 0.64089 0.86067 0.0
H529 H 0.12554 0.73058 0.79245 0.0
H530 H 0.07852 0.70006 0.8132 0.0
C531 C 0.8935 0.63177 0.87244 0.0
C532 C 0.97194 0.68599 0.84462 0.0
H533 H 0.98559 0.68987 0.80117 0.0
C534 C 0.00644 0.7042 0.85 0.0
C535 C 0.96423 0.68042 0.82683 0.0
C536 C 0.92756 0.66195 0.82035 0.0
C537 C 0.03353 0.71769 0.83801 0.0
C538 C 0.02581 0.71243 0.82021 0.0
C539 C 0.99133 0.69359 0.81485 0.0
C540 C 0.05301 0.72884 0.80694 0.0
C541 C 0.0701 0.7387 0.84444 0.0
C542 C 0.05358 0.75433 0.79623 0.0
C543 C 0.08023 0.77165 0.78436 0.0
C544 C 0.10672 0.76368 0.78295 0.0
C545 C 0.10554 0.73736 0.79331 0.0
C546 C 0.07883 0.72003 0.80521 0.0
H547 H 0.07121 0.74556 0.85828 0.0
H548 H 0.0834 0.7236 0.84287 0.0
H549 H 0.08449 0.7628 0.83683 0.0
H550 H 0.03381 0.76141 0.79735 0.0
H551 H 0.08038 0.79173 0.77652 0.0
H552 H 0.27257 0.87355 0.04127 0.0
H553 H 0.30674 0.92124 0.02136 0.0
H554 H 0.24694 0.96873 0.0354 0.0
H555 H 0.21297 0.9215 0.05531 0.0
H556 H 0.28028 0.93911 0.9932 0.0
H557 H 0.34615 0.04912 0.03815 0.0
H558 H 0.3268 0.00483 0.04515 0.0
H559 H 0.30058 0.02436 0.04194 0.0
C560 C 0.26709 0.89445 0.04028 0.0
C561 C 0.24013 0.89385 0.04983 0.0
C562 C 0.28659 0.92161 0.02892 0.0
C563 C 0.27967 0.94872 0.0271 0.0
C564 C 0.2532 0.94845 0.03688 0.0
H565 H 0.29202 0.07959 0.94614 0.0
H566 H 0.27897 0.03306 0.96648 0.0
C567 C 0.23365 0.92131 0.04817 0.0
C568 C 0.29795 0.97591 0.01399 0.0
H569 H 0.34156 0.06317 0.00864 0.0
C570 C 0.29423 0.96624 0.99657 0.0
C571 C 0.31655 0.01123 0.01843 0.0
C572 C 0.32309 0.02303 0.03695 0.0
C573 C 0.30679 0.99105 0.98342 0.0
C574 C 0.32307 0.02635 0.98785 0.0
C575 C 0.32871 0.03605 0.00528 0.0
C576 C 0.33181 0.05341 0.9747 0.0
C577 C 0.30188 0.97927 0.9649 0.0
C578 C 0.36582 0.0805 0.97273 0.0
C579 C 0.37336 0.10724 0.96111 0.0
C580 C 0.34691 0.10744 0.95145 0.0
C581 C 0.31296 0.08008 0.95335 0.0
C582 C 0.30549 0.05336 0.96489 0.0
H583 H 0.299 0.95324 0.96374 0.0
H584 H 0.27806 0.97782 0.95979 0.0
H585 H 0.3239 0.99756 0.95678 0.0
H586 H 0.38642 0.08111 0.98031 0.0
H587 H 0.39974 0.12808 0.95995 0.0
H588 H 0.25368 0.37774 0.04185 0.0
H589 H 0.27055 0.35591 0.01711 0.0
H590 H 0.16403 0.2801 0.00795 0.0
H591 H 0.14699 0.30141 0.03301 0.0
H592 H 0.20363 0.2513 0.00932 0.0
H593 H 0.26505 0.3634 0.96559 0.0
H594 H 0.28283 0.3747 0.98687 0.0
H595 H 0.23808 0.3612 0.98341 0.0
C596 C 0.23377 0.35682 0.0344 0.0
C597 C 0.19903 0.34121 0.03939 0.0
C598 C 0.24343 0.34455 0.02015 0.0
C599 C 0.21851 0.31673 0.01049 0.0
C600 C 0.18365 0.30177 0.01514 0.0
H601 H 0.28936 0.24027 0.92366 0.0
H602 H 0.25729 0.26236 0.93985 0.0
C603 C 0.17397 0.31395 0.02946 0.0
C604 C 0.2294 0.30095 0.99687 0.0
H605 H 0.28241 0.32043 0.96195 0.0
C606 C 0.2203 0.26627 0.99877 0.0
C607 C 0.25074 0.32026 0.98293 0.0
C608 C 0.25942 0.35685 0.97947 0.0
C609 C 0.2337 0.25103 0.98777 0.0
C610 C 0.25732 0.27119 0.97476 0.0
C611 C 0.2647 0.30519 0.97212 0.0
C612 C 0.27663 0.25823 0.96476 0.0
C613 C 0.22302 0.21365 0.99044 0.0
C614 C 0.29855 0.24931 0.9734 0.0
C615 C 0.31678 0.23681 0.96425 0.0
C616 C 0.31364 0.23317 0.94625 0.0
C617 C 0.29216 0.24271 0.93753 0.0
C618 C 0.27387 0.2553 0.94674 0.0
H619 H 0.19756 0.19938 0.99694 0.0
H620 H 0.22169 0.20077 0.978 0.0
H621 H 0.24226 0.212 0.99879 0.0
H622 H 0.30162 0.2521 0.98726 0.0
H623 H 0.33328 0.2299 0.97133 0.0
H624 H 0.87253 0.2532 0.20715 0.0
H625 H 0.9113 0.27129 0.18236 0.0
H626 H 0.88291 0.16559 0.17263 0.0
H627 H 0.84414 0.14725 0.19758 0.0
H628 H 0.95294 0.2091 0.17527 0.0
H629 H 0.89729 0.26393 0.13019 0.0
H630 H 0.90172 0.2806 0.15165 0.0
H631 H 0.87284 0.2355 0.14768 0.0
C632 C 0.87404 0.23372 0.19955 0.0
C633 C 0.8554 0.19882 0.20433 0.0
C634 C 0.89601 0.24408 0.1853 0.0
C635 C 0.89962 0.21974 0.17551 0.0
C636 C 0.88024 0.18473 0.17994 0.0
H637 H 0.04874 0.28621 0.08955 0.0
H638 H 0.99457 0.25422 0.10578 0.0
C639 C 0.85814 0.17431 0.19418 0.0
C640 C 0.92656 0.23146 0.16202 0.0
H641 H 0.95769 0.2828 0.12639 0.0
C642 C 0.95363 0.22465 0.16439 0.0
C643 C 0.92731 0.2515 0.14776 0.0
C644 C 0.89804 0.25804 0.14404 0.0
C645 C 0.9824 0.23904 0.15347 0.0
C646 C 0.98422 0.26101 0.13994 0.0
C647 C 0.95631 0.26621 0.13691 0.0
C648 C 0.01613 0.28089 0.1298 0.0
C649 C 0.01113 0.23146 0.15676 0.0
C650 C 0.04575 0.30679 0.1379 0.0
C651 C 0.07645 0.32509 0.12872 0.0
C652 C 0.07811 0.31779 0.11125 0.0
C653 C 0.0482 0.29229 0.10302 0.0
C654 C 0.01731 0.27405 0.11224 0.0
H655 H 0.00224 0.20778 0.16463 0.0
H656 H 0.02192 0.22835 0.14444 0.0
H657 H 0.03216 0.25333 0.1639 0.0
H658 H 0.04515 0.31268 0.15141 0.0
H659 H 0.09902 0.34465 0.13541 0.0
H660 H 0.78589 0.0549 0.26065 0.0
H661 H 0.76178 0.00039 0.27667 0.0
H662 H 0.6993 0.02955 0.3066 0.0
H663 H 0.72321 0.08382 0.29079 0.0
H664 H 0.76642 0.9963 0.31363 0.0
H665 H 0.631 0.92944 0.29104 0.0
H666 H 0.66561 0.96429 0.27917 0.0
H667 H 0.64662 0.97333 0.29741 0.0
C668 C 0.76667 0.04942 0.2705 0.0
C669 C 0.75641 0.07357 0.2745 0.0
C670 C 0.75298 0.01835 0.27962 0.0
C671 C 0.72845 0.01081 0.29263 0.0
C672 C 0.71772 0.03461 0.29638 0.0
H673 H 0.62744 0.88628 0.37807 0.0
H674 H 0.64798 0.9235 0.35276 0.0
C675 C 0.73158 0.0657 0.28741 0.0
C676 C 0.71587 0.97951 0.30337 0.0
H677 H 0.64198 0.90971 0.31778 0.0
C678 C 0.73934 0.97688 0.31433 0.0
C679 C 0.68054 0.95436 0.3042 0.0
C680 C 0.65449 0.95522 0.29221 0.0
C681 C 0.72807 0.95102 0.32695 0.0
C682 C 0.69245 0.92677 0.32834 0.0
C683 C 0.66925 0.92836 0.31673 0.0
C684 C 0.67837 0.90201 0.34286 0.0
C685 C 0.7541 0.95123 0.33938 0.0
C686 C 0.68805 0.877 0.34551 0.0
C687 C 0.6765 0.85577 0.3601 0.0
C688 C 0.65485 0.85906 0.37214 0.0
C689 C 0.64417 0.88319 0.36906 0.0
C690 C 0.65583 0.90444 0.35457 0.0
H691 H 0.7793 0.97554 0.33863 0.0
H692 H 0.74448 0.94781 0.35284 0.0
H693 H 0.75848 0.92956 0.33627 0.0
H694 H 0.70489 0.87425 0.33644 0.0
H695 H 0.68495 0.83723 0.36209 0.0
H696 H 0.73968 0.61493 0.54087 0.0
H697 H 0.72098 0.63675 0.51675 0.0
H698 H 0.82505 0.72015 0.50978 0.0
H699 H 0.84412 0.69858 0.53403 0.0
H700 H 0.74035 0.71511 0.5187 0.0
H701 H 0.77931 0.67257 0.4595 0.0
H702 H 0.76808 0.6475 0.47914 0.0
H703 H 0.80755 0.68783 0.47799 0.0
C704 C 0.75874 0.63757 0.53403 0.0
C705 C 0.79334 0.65517 0.53939 0.0
C706 C 0.74801 0.64993 0.52025 0.0
C707 C 0.7717 0.67988 0.51151 0.0
C708 C 0.80652 0.69678 0.51632 0.0
H709 H 0.72845 0.79191 0.43174 0.0
H710 H 0.75794 0.76968 0.44991 0.0
C711 C 0.81731 0.68448 0.53017 0.0
C712 C 0.75907 0.69536 0.49874 0.0
H713 H 0.74878 0.7024 0.4556 0.0
C714 C 0.74233 0.71254 0.50489 0.0
C715 C 0.76219 0.69223 0.48081 0.0
C716 C 0.7802 0.67403 0.47381 0.0
C717 C 0.72793 0.72619 0.49355 0.0
C718 C 0.72956 0.72172 0.47558 0.0
C719 C 0.74734 0.7055 0.46938 0.0
C720 C 0.71166 0.73263 0.46324 0.0
C721 C 0.7111 0.74533 0.50094 0.0
C722 C 0.67582 0.71827 0.46432 0.0
C723 C 0.65908 0.73101 0.45413 0.0
C724 C 0.6778 0.75806 0.44248 0.0
C725 C 0.71343 0.77109 0.44065 0.0
C726 C 0.73027 0.75845 0.451 0.0
H727 H 0.72068 0.75507 0.51413 0.0
H728 H 0.7158 0.76745 0.49263 0.0
H729 H 0.68286 0.72757 0.50178 0.0
H730 H 0.66091 0.6978 0.47343 0.0
H731 H 0.63154 0.72019 0.45568 0.0
H732 H 0.13201 0.74899 0.70298 0.0
H733 H 0.09121 0.73071 0.67906 0.0
H734 H 0.10026 0.83115 0.67785 0.0
H735 H 0.14071 0.84944 0.70206 0.0
H736 H 0.03419 0.78022 0.67992 0.0
H737 H 0.09883 0.74972 0.62778 0.0
H738 H 0.09795 0.72868 0.6476 0.0
H739 H 0.12173 0.77501 0.64641 0.0
C740 C 0.12586 0.76742 0.6974 0.0
C741 C 0.13946 0.80061 0.70443 0.0
C742 C 0.10271 0.75701 0.68363 0.0
C743 C 0.09301 0.7797 0.6765 0.0
C744 C 0.10757 0.8133 0.68309 0.0
H745 H 0.94247 0.71495 0.59168 0.0
H746 H 0.99573 0.74697 0.60852 0.0
C747 C 0.13067 0.82371 0.69691 0.0
C748 C 0.06481 0.76702 0.66362 0.0
H749 H 0.03697 0.72345 0.62551 0.0
C750 C 0.03505 0.76832 0.6679 0.0
C751 C 0.06603 0.75181 0.64784 0.0
C752 C 0.09802 0.75152 0.64204 0.0
C753 C 0.00589 0.75334 0.65724 0.0
C754 C 0.00629 0.73608 0.64206 0.0
C755 C 0.0366 0.73628 0.6373 0.0
C756 C 0.97482 0.71616 0.63155 0.0
C757 C 0.97469 0.75572 0.66246 0.0
C758 C 0.94584 0.68784 0.63882 0.0
C759 C 0.91557 0.66961 0.62929 0.0
C760 C 0.91376 0.67923 0.61226 0.0
C761 C 0.94312 0.70703 0.6048 0.0
C762 C 0.9735 0.72531 0.61438 0.0
H763 H 0.9817 0.77766 0.67138 0.0
H764 H 0.96157 0.75877 0.65101 0.0
H765 H 0.95615 0.73169 0.66924 0.0
H766 H 0.94658 0.67997 0.65195 0.0
H767 H 0.89347 0.64817 0.63536 0.0
H768 H 0.28448 0.11961 0.87709 0.0
H769 H 0.2667 0.07884 0.85312 0.0
H770 H 0.37326 0.11339 0.84152 0.0
H771 H 0.39118 0.15336 0.86592 0.0
H772 H 0.27783 0.08236 0.81861 0.0
H773 H 0.3358 0.01222 0.85039 0.0
H774 H 0.33187 0.04574 0.86113 0.0
H775 H 0.36592 0.05659 0.84579 0.0
C776 C 0.30414 0.1188 0.86931 0.0
C777 C 0.33919 0.13927 0.87351 0.0
C778 C 0.29395 0.09553 0.8556 0.0
C779 C 0.31862 0.09251 0.84578 0.0
C780 C 0.35376 0.11464 0.84922 0.0
H781 H 0.25479 0.95021 0.75695 0.0
H782 H 0.28097 0.00334 0.77414 0.0
C783 C 0.36396 0.13758 0.86309 0.0
C784 C 0.30728 0.06462 0.8328 0.0
H785 H 0.30947 0.99131 0.82349 0.0
C786 C 0.28488 0.06253 0.81958 0.0
C787 C 0.3162 0.03855 0.83424 0.0
C788 C 0.33849 0.03808 0.84873 0.0
C789 C 0.27061 0.03471 0.80798 0.0
C790 C 0.27965 0.00876 0.80943 0.0
C791 C 0.30272 0.01135 0.82236 0.0
C792 C 0.26349 0.97717 0.79867 0.0
C793 C 0.24486 0.03262 0.7948 0.0
C794 C 0.2456 0.94488 0.80675 0.0
C795 C 0.23122 0.91469 0.79704 0.0
C796 C 0.23425 0.91612 0.779 0.0
C797 C 0.2519 0.94841 0.77084 0.0
C798 C 0.26666 0.97875 0.78063 0.0
H799 H 0.23479 0.05012 0.79799 0.0
H800 H 0.25755 0.04024 0.782 0.0
H801 H 0.22279 0.00591 0.79378 0.0
H802 H 0.24282 0.94303 0.82065 0.0
H803 H 0.21768 0.8902 0.80369 0.0
H804 H 0.71404 0.83784 0.78959 0.0
H805 H 0.731 0.81475 0.81383 0.0
H806 H 0.62406 0.74843 0.82713 0.0
H807 H 0.60687 0.77047 0.80244 0.0
H808 H 0.72192 0.80935 0.84849 0.0
H809 H 0.65498 0.67951 0.81824 0.0
H810 H 0.66073 0.71741 0.80722 0.0
H811 H 0.62742 0.6967 0.82319 0.0
C812 C 0.69415 0.81867 0.79782 0.0
C813 C 0.65913 0.80553 0.79399 0.0
C814 C 0.70387 0.80554 0.81169 0.0
C815 C 0.67878 0.77927 0.82204 0.0
C816 C 0.64383 0.768 0.81902 0.0
H817 H 0.74391 0.69786 0.9093 0.0
H818 H 0.71783 0.72607 0.89303 0.0
C819 C 0.63405 0.78075 0.80498 0.0
C820 C 0.68935 0.76199 0.83498 0.0
H821 H 0.68333 0.6848 0.84445 0.0
C822 C 0.71331 0.78206 0.84773 0.0
C823 C 0.67835 0.72643 0.8338 0.0
C824 C 0.65421 0.70376 0.8198 0.0
C825 C 0.72724 0.76772 0.85905 0.0
C826 C 0.71628 0.73221 0.8578 0.0
C827 C 0.69154 0.71198 0.84542 0.0
C828 C 0.73229 0.71593 0.868 0.0
C829 C 0.75471 0.79099 0.87167 0.0
C830 C 0.74844 0.70036 0.85934 0.0
C831 C 0.76279 0.6839 0.86853 0.0
C832 C 0.76144 0.68277 0.88662 0.0
C833 C 0.74546 0.69852 0.89536 0.0
C834 C 0.73076 0.71481 0.8861 0.0
H835 H 0.76547 0.81865 0.86844 0.0
H836 H 0.74337 0.78659 0.88478 0.0
H837 H 0.77612 0.78527 0.87199 0.0
H838 H 0.74992 0.70092 0.84538 0.0
H839 H 0.77501 0.67209 0.86143 0.0
H840 H 0.8717 0.62142 0.95876 0.0
H841 H 0.91086 0.644 0.98329 0.0
H842 H 0.88737 0.72582 0.98905 0.0
H843 H 0.84872 0.70379 0.96414 0.0
H844 H 0.95478 0.75052 0.98798 0.0
H845 H 0.89895 0.64315 0.03464 0.0
H846 H 0.90442 0.62871 0.01395 0.0
H847 H 0.87505 0.6449 0.0163 0.0
C848 C 0.87438 0.64386 0.96544 0.0
C849 C 0.85723 0.66091 0.95951 0.0
C850 C 0.89657 0.65658 0.97957 0.0
C851 C 0.90165 0.68629 0.98821 0.0
C852 C 0.88365 0.70272 0.98265 0.0
H853 H 0.04869 0.76364 0.07504 0.0
H854 H 0.99505 0.74254 0.05853 0.0
C855 C 0.8616 0.69012 0.96843 0.0
C856 C 0.92865 0.70224 0.00168 0.0
H857 H 0.9601 0.68383 0.03776 0.0
C858 C 0.95557 0.73612 0.99904 0.0
C859 C 0.9295 0.68374 0.01628 0.0
C860 C 0.9002 0.64825 0.02056 0.0
C861 C 0.98427 0.75121 0.00999 0.0
C862 C 0.98646 0.73164 0.02372 0.0
C863 C 0.95862 0.69858 0.02704 0.0
C864 C 0.01849 0.74414 0.03389 0.0
C865 C 0.0123 0.7878 0.00655 0.0
C866 C 0.04913 0.75132 0.02554 0.0
C867 C 0.0796 0.76333 0.03487 0.0
C868 C 0.08 0.76813 0.05279 0.0
C869 C 0.04914 0.76029 0.06123 0.0
C870 C 0.01854 0.74825 0.05184 0.0
H871 H 0.00213 0.80245 -0.00046 0.0
H872 H 0.02446 0.80155 0.01873 0.0
H873 H 0.03249 0.78752 0.99838 0.0
H874 H 0.04947 0.74752 0.01177 0.0
H875 H 0.10289 0.7689 0.02801 0.0
H876 H 0.22997 0.83378 0.13548 0.0
H877 H 0.2507 0.86876 0.16167 0.0
H878 H 0.18821 0.91448 0.14981 0.0
H879 H 0.16633 0.87852 0.12413 0.0
H880 H 0.28837 0.93454 0.16254 0.0
H881 H 0.1719 0.90221 0.20022 0.0
H882 H 0.17117 0.87598 0.18239 0.0
H883 H 0.1668 0.91336 0.17869 0.0
C884 C 0.22008 0.85073 0.13871 0.0
C885 C 0.19658 0.8535 0.12779 0.0
C886 C 0.23191 0.87068 0.15368 0.0
C887 C 0.22069 0.89397 0.1579 0.0
C888 C 0.19647 0.89599 0.1472 0.0
H889 H 0.33344 0.09484 0.1964 0.0
H890 H 0.30659 0.03997 0.18122 0.0
C891 C 0.18421 0.87565 0.13239 0.0
C892 C 0.23747 0.91924 0.17208 0.0
H893 H 0.22096 0.96013 0.2047 0.0
C894 C 0.27357 0.93954 0.17199 0.0
C895 C 0.21844 0.92552 0.18471 0.0
C896 C 0.17997 0.90278 0.18662 0.0
C897 C 0.29088 0.96737 0.18332 0.0
C898 C 0.27155 0.97581 0.19469 0.0
C899 C 0.23571 0.95406 0.19572 0.0
C900 C 0.28775 0.0088 0.2043 0.0
C901 C 0.32974 0.98796 0.18269 0.0
C902 C 0.28507 0.00957 0.22231 0.0
C903 C 0.3002 0.04114 0.23108 0.0
C904 C 0.318 0.07228 0.2219 0.0
C905 C 0.32019 0.0713 0.20386 0.0
C906 C 0.30504 0.03992 0.19516 0.0
H907 H 0.34065 0.9718 0.17829 0.0
H908 H 0.33787 0.0094 0.17334 0.0
H909 H 0.34083 -0.00099 0.1955 0.0
H910 H 0.2715 0.98581 0.22957 0.0
H911 H 0.29799 0.04118 0.24498 0.0
H912 H 0.38754 0.22561 0.30204 0.0
H913 H 0.37021 0.24682 0.32698 0.0
H914 H 0.26338 0.1815 0.31311 0.0
H915 H 0.28056 0.15922 0.28863 0.0
H916 H 0.33994 0.28299 0.32527 0.0
H917 H 0.25622 0.16751 0.36397 0.0
H918 H 0.28356 0.16702 0.347 0.0
H919 H 0.24178 0.1615 0.34204 0.0
C920 C 0.36034 0.21521 0.30458 0.0
C921 C 0.33538 0.19081 0.29342 0.0
C922 C 0.35045 0.22733 0.31882 0.0
C923 C 0.31545 0.2155 0.32208 0.0
C924 C 0.29047 0.19033 0.31121 0.0
H925 H 0.22546 0.32929 0.36068 0.0
H926 H 0.25092 0.30072 0.34469 0.0
C927 C 0.30033 0.1778 0.29711 0.0
C928 C 0.30529 0.23243 0.33546 0.0
H929 H 0.24771 0.21648 0.36795 0.0
C930 C 0.32021 0.26841 0.33479 0.0
C931 C 0.27991 0.21363 0.34811 0.0
C932 C 0.26476 0.17533 0.35045 0.0
C933 C 0.30924 0.28587 0.34577 0.0
C934 C 0.28192 0.26675 0.35741 0.0
C935 C 0.26826 0.23102 0.3588 0.0
C936 C 0.26585 0.28323 0.36739 0.0
C937 C 0.32681 0.32463 0.34462 0.0
C938 C 0.26472 0.28187 0.38547 0.0
C939 C 0.24982 0.29799 0.3947 0.0
C940 C 0.23575 0.31556 0.38592 0.0
C941 C 0.23639 0.31626 0.36782 0.0
C942 C 0.2511 0.3001 0.35865 0.0
H943 H 0.3535 0.33582 0.33958 0.0
H944 H 0.31224 0.33186 0.33561 0.0
H945 H 0.32782 0.33629 0.35739 0.0
H946 H 0.27572 0.26871 0.39244 0.0
H947 H 0.24952 0.29691 0.40865 0.0
H948 H 0.13094 0.28709 0.45904 0.0
H949 H 0.09237 0.26896 0.48402 0.0
H950 H 0.11122 0.37267 0.48994 0.0
H951 H 0.14908 0.39078 0.46471 0.0
H952 H 0.09879 0.28925 0.5184 0.0
H953 H 0.00737 0.31703 0.48327 0.0
H954 H 0.04296 0.31652 0.47271 0.0
H955 H 0.05009 0.35338 0.48515 0.0
C956 C 0.12716 0.30611 0.46578 0.0
C957 C 0.14262 0.34024 0.4598 0.0
C958 C 0.10517 0.29572 0.48006 0.0
C959 C 0.09839 0.31931 0.4886 0.0
C960 C 0.11549 0.35388 0.48328 0.0
H961 H 0.94402 0.29043 0.56474 0.0
H962 H 0.99698 0.31553 0.54764 0.0
C963 C 0.13722 0.36422 0.46892 0.0
C964 C 0.07185 0.30724 0.50232 0.0
H965 H 0.99397 0.29928 0.51221 0.0
C966 C 0.0759 0.2915 0.5171 0.0
C967 C 0.04189 0.31001 0.50051 0.0
C968 C 0.03504 0.32484 0.4845 0.0
C969 C 0.05083 0.27866 0.53019 0.0
C970 C 0.02096 0.28146 0.52832 0.0
C971 C 0.01711 0.29749 0.51365 0.0
C972 C 0.99233 0.26653 0.54093 0.0
C973 C 0.05651 0.26237 0.54592 0.0
C974 C 0.97254 0.23069 0.54306 0.0
C975 C 0.9422 0.21626 0.55278 0.0
C976 C 0.93113 0.23747 0.56045 0.0
C977 C 0.95189 0.27342 0.55899 0.0
C978 C 0.98215 0.28781 0.54923 0.0
H979 H 0.08404 0.26984 0.54743 0.0
H980 H 0.04786 0.26979 0.55777 0.0
H981 H 0.0412 0.23392 0.54467 0.0
H982 H 0.97963 0.2138 0.53651 0.0
H983 H 0.92666 0.18846 0.55364 0.0
H984 H 0.72186 0.94913 0.74 0.0
H985 H 0.75558 0.00173 0.72296 0.0
H986 H 0.69094 0.95205 0.67884 0.0
H987 H 0.65785 0.89942 0.69558 0.0
H988 H 0.75937 0.98448 0.67093 0.0
H989 H 0.72833 0.07191 0.70784 0.0
H990 H 0.74671 0.05111 0.72016 0.0
H991 H 0.70479 0.02576 0.71067 0.0
C992 C 0.71477 0.94958 0.7267 0.0
C993 C 0.68722 0.92022 0.71912 0.0
C994 C 0.73394 0.97967 0.71701 0.0
C995 C 0.72553 0.98091 0.69969 0.0
C996 C 0.69788 0.95165 0.69219 0.0
H997 H 0.75922 0.13543 0.6274 0.0
H998 H 0.74199 0.09448 0.65118 0.0
C999 C 0.67894 0.92161 0.70178 0.0
C1000 C 0.74576 0.01214 0.68901 0.0
H1001 H 0.7652 0.09563 0.6839 0.0
C1002 C 0.76096 0.00892 0.67383 0.0
C1003 C 0.74764 0.04389 0.69284 0.0
C1004 C 0.73081 0.0485 0.70868 0.0
C1005 C 0.77681 0.03611 0.662 0.0
C1006 C 0.77834 0.06777 0.66569 0.0
C1007 C 0.76423 0.07142 0.68119 0.0
C1008 C 0.79089 0.09588 0.65278 0.0
C1009 C 0.79004 0.02998 0.64523 0.0
C1010 C 0.82453 0.11117 0.64614 0.0
C1011 C 0.83436 0.13437 0.63237 0.0
C1012 C 0.81082 0.14296 0.62521 0.0
C1013 C 0.7779 0.12921 0.63259 0.0
C1014 C 0.76803 0.10586 0.64622 0.0
H1015 H 0.78028 0.00215 0.64288 0.0
H1016 H 0.78241 0.04046 0.63417 0.0
H1017 H 0.81859 0.04325 0.64563 0.0
H1018 H 0.84284 0.1044 0.65128 0.0
H1019 H 0.86001 0.14482 0.62703 0.0
loop_
_geom_bond_atom_site_label_1
_geom_bond_atom_site_label_2
_geom_bond_distance
_geom_bond_site_symmetry_2
_ccdc_geom_bond_type
In0 O1 2.294 . S
In0 O2 2.326 . S
In0 O6 2.266 . S
In0 O7 2.326 . S
In0 O8 2.266 . S
In0 O9 2.326 . S
In0 O11 2.294 . S
In0 O12 2.326 . S
O1 In0 2.294 . S
O1 C10 1.240 . S
O2 In0 2.326 . S
O2 C10 1.252 . S
C3 O6 1.252 . S
C3 O7 1.260 . S
C4 O11 1.240 . S
C4 O12 1.252 . S
C5 O8 1.252 . S
C5 O9 1.260 . S
O6 In0 2.266 . S
O6 C3 1.252 . S
O7 In0 2.326 . S
O7 C3 1.260 . S
O8 In0 2.266 . S
O8 C5 1.252 . S
O9 In0 2.326 . S
O9 C5 1.260 . S
C10 O1 1.240 . S
C10 O2 1.252 . S
O11 In0 2.294 . S
O11 C4 1.240 . S
O12 In0 2.326 . S
O12 C4 1.252 . S
In13 O14 2.294 . S
In13 O15 2.326 . S
In13 O19 2.266 . S
In13 O20 2.326 . S
In13 O21 2.266 . S
In13 O22 2.326 . S
In13 O24 2.294 . S
In13 O25 2.326 . S
O14 In13 2.294 . S
O14 C23 1.240 . S
O15 In13 2.326 . S
O15 C23 1.252 . S
C16 O19 1.252 . S
C16 O20 1.260 . S
C17 O24 1.240 . S
C17 O25 1.252 . S
C18 O21 1.252 . S
C18 O22 1.260 . S
O19 In13 2.266 . S
O19 C16 1.252 . S
O20 In13 2.326 . S
O20 C16 1.260 . S
O21 In13 2.266 . S
O21 C18 1.252 . S
O22 In13 2.326 . S
O22 C18 1.260 . S
C23 O14 1.240 . S
C23 O15 1.252 . S
O24 In13 2.294 . S
O24 C17 1.240 . S
O25 In13 2.326 . S
O25 C17 1.252 . S
In26 O27 2.294 . S
In26 O28 2.326 . S
In26 O32 2.266 . S
In26 O33 2.326 . S
In26 O34 2.266 . S
In26 O35 2.326 . S
In26 O37 2.294 . S
In26 O38 2.326 . S
O27 In26 2.294 . S
O27 C36 1.240 . S
O28 In26 2.326 . S
O28 C36 1.252 . S
C29 O32 1.252 . S
C29 O33 1.260 . S
C30 O37 1.240 . S
C30 O38 1.252 . S
C31 O34 1.252 . S
C31 O35 1.260 . S
O32 In26 2.266 . S
O32 C29 1.252 . S
O33 In26 2.326 . S
O33 C29 1.260 . S
O34 In26 2.266 . S
O34 C31 1.252 . S
O35 In26 2.326 . S
O35 C31 1.260 . S
C36 O27 1.240 . S
C36 O28 1.252 . S
O37 In26 2.294 . S
O37 C30 1.240 . S
O38 In26 2.326 . S
O38 C30 1.252 . S
In39 O40 2.294 . S
In39 O41 2.326 . S
In39 O45 2.266 . S
In39 O46 2.326 . S
In39 O47 2.266 . S
In39 O48 2.326 . S
In39 O50 2.294 . S
In39 O51 2.326 . S
O40 In39 2.294 . S
O40 C49 1.240 . S
O41 In39 2.326 . S
O41 C49 1.252 . S
C42 O45 1.252 . S
C42 O46 1.260 . S
C43 O50 1.240 . S
C43 O51 1.252 . S
C44 O47 1.252 . S
C44 O48 1.260 . S
O45 In39 2.266 . S
O45 C42 1.252 . S
O46 In39 2.326 . S
O46 C42 1.260 . S
O47 In39 2.266 . S
O47 C44 1.252 . S
O48 In39 2.326 . S
O48 C44 1.260 . S
C49 O40 1.240 . S
C49 O41 1.252 . S
O50 In39 2.294 . S
O50 C43 1.240 . S
O51 In39 2.326 . S
O51 C43 1.252 . S
In52 O53 2.294 . S
In52 O54 2.326 . S
In52 O58 2.266 . S
In52 O59 2.326 . S
In52 O60 2.266 . S
In52 O61 2.326 . S
In52 O63 2.294 . S
In52 O64 2.326 . S
O53 In52 2.294 . S
O53 C62 1.240 . S
O54 In52 2.326 . S
O54 C62 1.252 . S
C55 O58 1.252 . S
C55 O59 1.260 . S
C56 O63 1.240 . S
C56 O64 1.252 . S
C57 O60 1.252 . S
C57 O61 1.260 . S
O58 In52 2.266 . S
O58 C55 1.252 . S
O59 In52 2.326 . S
O59 C55 1.260 . S
O60 In52 2.266 . S
O60 C57 1.252 . S
O61 In52 2.326 . S
O61 C57 1.260 . S
C62 O53 1.240 . S
C62 O54 1.252 . S
O63 In52 2.294 . S
O63 C56 1.240 . S
O64 In52 2.326 . S
O64 C56 1.252 . S
In65 O66 2.294 . S
In65 O67 2.326 . S
In65 O71 2.266 . S
In65 O72 2.326 . S
In65 O73 2.266 . S
In65 O74 2.326 . S
In65 O76 2.294 . S
In65 O77 2.326 . S
O66 In65 2.294 . S
O66 C75 1.240 . S
O67 In65 2.326 . S
O67 C75 1.252 . S
C68 O71 1.252 . S
C68 O72 1.260 . S
C69 O76 1.240 . S
C69 O77 1.252 . S
C70 O73 1.252 . S
C70 O74 1.260 . S
O71 In65 2.266 . S
O71 C68 1.252 . S
O72 In65 2.326 . S
O72 C68 1.260 . S
O73 In65 2.266 . S
O73 C70 1.252 . S
O74 In65 2.326 . S
O74 C70 1.260 . S
C75 O66 1.240 . S
C75 O67 1.252 . S
O76 In65 2.294 . S
O76 C69 1.240 . S
O77 In65 2.326 . S
O77 C69 1.252 . S
In78 O79 2.294 . S
In78 O80 2.326 . S
In78 O84 2.266 . S
In78 O85 2.326 . S
In78 O86 2.266 . S
In78 O87 2.326 . S
In78 O89 2.294 . S
In78 O90 2.326 . S
O79 In78 2.294 . S
O79 C88 1.240 . S
O80 In78 2.326 . S
O80 C88 1.252 . S
C81 O84 1.252 . S
C81 O85 1.260 . S
C82 O89 1.240 . S
C82 O90 1.252 . S
C83 O86 1.252 . S
C83 O87 1.260 . S
O84 In78 2.266 . S
O84 C81 1.252 . S
O85 In78 2.326 . S
O85 C81 1.260 . S
O86 In78 2.266 . S
O86 C83 1.252 . S
O87 In78 2.326 . S
O87 C83 1.260 . S
C88 O79 1.240 . S
C88 O80 1.252 . S
O89 In78 2.294 . S
O89 C82 1.240 . S
O90 In78 2.326 . S
O90 C82 1.252 . S
In91 O92 2.294 . S
In91 O93 2.326 . S
In91 O97 2.266 . S
In91 O98 2.326 . S
In91 O99 2.266 . S
In91 O100 2.326 . S
In91 O102 2.294 . S
In91 O103 2.326 . S
O92 In91 2.294 . S
O92 C101 1.240 . S
O93 In91 2.326 . S
O93 C101 1.252 . S
C94 O97 1.252 . S
C94 O98 1.260 . S
C95 O102 1.240 . S
C95 O103 1.252 . S
C96 O99 1.252 . S
C96 O100 1.260 . S
O97 In91 2.266 . S
O97 C94 1.252 . S
O98 In91 2.326 . S
O98 C94 1.260 . S
O99 In91 2.266 . S
O99 C96 1.252 . S
O100 In91 2.326 . S
O100 C96 1.260 . S
C101 O92 1.240 . S
C101 O93 1.252 . S
O102 In91 2.294 . S
O102 C95 1.240 . S
O103 In91 2.326 . S
O103 C95 1.252 . S
In104 O105 2.294 . S
In104 O106 2.326 . S
In104 O110 2.266 . S
In104 O111 2.326 . S
In104 O112 2.266 . S
In104 O113 2.326 . S
In104 O115 2.294 . S
In104 O116 2.326 . S
O105 In104 2.294 . S
O105 C114 1.240 . S
O106 In104 2.326 . S
O106 C114 1.252 . S
C107 O110 1.252 . S
C107 O111 1.260 . S
C108 O115 1.240 . S
C108 O116 1.252 . S
C109 O112 1.252 . S
C109 O113 1.260 . S
O110 In104 2.266 . S
O110 C107 1.252 . S
O111 In104 2.326 . S
O111 C107 1.260 . S
O112 In104 2.266 . S
O112 C109 1.252 . S
O113 In104 2.326 . S
O113 C109 1.260 . S
C114 O105 1.240 . S
C114 O106 1.252 . S
O115 In104 2.294 . S
O115 C108 1.240 . S
O116 In104 2.326 . S
O116 C108 1.252 . S
In117 O118 2.294 . S
In117 O119 2.326 . S
In117 O123 2.266 . S
In117 O124 2.326 . S
In117 O125 2.266 . S
In117 O126 2.326 . S
In117 O128 2.294 . S
In117 O129 2.326 . S
O118 In117 2.294 . S
O118 C127 1.240 . S
O119 In117 2.326 . S
O119 C127 1.252 . S
C120 O123 1.252 . S
C120 O124 1.260 . S
C121 O128 1.240 . S
C121 O129 1.252 . S
C122 O125 1.252 . S
C122 O126 1.260 . S
O123 In117 2.266 . S
O123 C120 1.252 . S
O124 In117 2.326 . S
O124 C120 1.260 . S
O125 In117 2.266 . S
O125 C122 1.252 . S
O126 In117 2.326 . S
O126 C122 1.260 . S
C127 O118 1.240 . S
C127 O119 1.252 . S
O128 In117 2.294 . S
O128 C121 1.240 . S
O129 In117 2.326 . S
O129 C121 1.252 . S
In130 O131 2.294 . S
In130 O132 2.326 . S
In130 O136 2.266 . S
In130 O137 2.326 . S
In130 O138 2.266 . S
In130 O139 2.326 . S
In130 O141 2.294 . S
In130 O142 2.326 . S
O131 In130 2.294 . S
O131 C140 1.240 . S
O132 In130 2.326 . S
O132 C140 1.252 . S
C133 O136 1.252 . S
C133 O137 1.260 . S
C134 O141 1.240 . S
C134 O142 1.252 . S
C135 O138 1.252 . S
C135 O139 1.260 . S
O136 In130 2.266 . S
O136 C133 1.252 . S
O137 In130 2.326 . S
O137 C133 1.260 . S
O138 In130 2.266 . S
O138 C135 1.252 . S
O139 In130 2.326 . S
O139 C135 1.260 . S
C140 O131 1.240 . S
C140 O132 1.252 . S
O141 In130 2.294 . S
O141 C134 1.240 . S
O142 In130 2.326 . S
O142 C134 1.252 . S
In143 O144 2.294 . S
In143 O145 2.326 . S
In143 O149 2.266 . S
In143 O150 2.326 . S
In143 O151 2.266 . S
In143 O152 2.326 . S
In143 O154 2.294 . S
In143 O155 2.326 . S
O144 In143 2.294 . S
O144 C153 1.240 . S
O145 In143 2.326 . S
O145 C153 1.252 . S
C146 O149 1.252 . S
C146 O150 1.260 . S
C147 O154 1.240 . S
C147 O155 1.252 . S
C148 O151 1.252 . S
C148 O152 1.260 . S
O149 In143 2.266 . S
O149 C146 1.252 . S
O150 In143 2.326 . S
O150 C146 1.260 . S
O151 In143 2.266 . S
O151 C148 1.252 . S
O152 In143 2.326 . S
O152 C148 1.260 . S
C153 O144 1.240 . S
C153 O145 1.252 . S
O154 In143 2.294 . S
O154 C147 1.240 . S
O155 In143 2.326 . S
O155 C147 1.252 . S
H156 C164 0.929 . S
H157 C166 0.930 . S
H158 C168 0.930 . S
H159 C171 0.929 . S
H160 C174 0.930 . S
H161 C176 0.960 . S
H162 C176 0.960 . S
H163 C176 0.960 . S
C164 H156 0.929 . S
C164 C165 1.377 . S
C164 C166 1.384 . S
C165 C164 1.377 . S
C165 C171 1.390 . S
C166 H157 0.930 . S
C166 C164 1.384 . S
C166 C167 1.372 . S
C167 C166 1.372 . S
C167 C168 1.400 . S
C167 C172 1.490 . S
C168 H158 0.930 . S
C168 C167 1.400 . S
C168 C171 1.386 . S
H169 C185 0.930 . S
H170 C186 0.931 . S
C171 H159 0.929 . S
C171 C165 1.390 . S
C171 C168 1.386 . S
C172 C167 1.490 . S
C172 C174 1.395 . S
C172 C175 1.403 . S
H173 C179 0.930 . S
C174 H160 0.930 . S
C174 C172 1.395 . S
C174 C177 1.403 . S
C175 C172 1.403 . S
C175 C176 1.524 . S
C175 C179 1.400 . S
C176 H161 0.960 . S
C176 H162 0.960 . S
C176 H163 0.960 . S
C176 C175 1.524 . S
C177 C174 1.403 . S
C177 C178 1.392 . S
C177 C181 1.495 . S
C178 C177 1.392 . S
C178 C179 1.385 . S
C178 C180 1.478 . S
C179 H173 0.930 . S
C179 C175 1.400 . S
C179 C178 1.385 . S
C180 C178 1.478 . S
C180 C182 1.381 . S
C180 C186 1.383 . S
C181 C177 1.495 . S
C181 H187 0.959 . S
C181 H188 0.961 . S
C181 H189 0.960 . S
C182 C180 1.381 . S
C182 C183 1.394 . S
C182 H190 0.930 . S
C183 C182 1.394 . S
C183 C184 1.383 . S
C183 H191 0.929 . S
C184 C183 1.383 . S
C184 C185 1.377 . S
C185 H169 0.930 . S
C185 C184 1.377 . S
C185 C186 1.379 . S
C186 H170 0.931 . S
C186 C180 1.383 . S
C186 C185 1.379 . S
H187 C181 0.959 . S
H188 C181 0.961 . S
H189 C181 0.960 . S
H190 C182 0.930 . S
H191 C183 0.929 . S
H192 C200 0.929 . S
H193 C202 0.930 . S
H194 C204 0.930 . S
H195 C207 0.929 . S
H196 C210 0.930 . S
H197 C212 0.960 . S
H198 C212 0.960 . S
H199 C212 0.960 . S
C200 H192 0.929 . S
C200 C201 1.377 . S
C200 C202 1.384 . S
C201 C200 1.377 . S
C201 C207 1.390 . S
C202 H193 0.930 . S
C202 C200 1.384 . S
C202 C203 1.372 . S
C203 C202 1.372 . S
C203 C204 1.400 . S
C203 C208 1.490 . S
C204 H194 0.930 . S
C204 C203 1.400 . S
C204 C207 1.386 . S
H205 C221 0.930 . S
H206 C222 0.931 . S
C207 H195 0.929 . S
C207 C201 1.390 . S
C207 C204 1.386 . S
C208 C203 1.490 . S
C208 C210 1.395 . S
C208 C211 1.403 . S
H209 C215 0.930 . S
C210 H196 0.930 . S
C210 C208 1.395 . S
C210 C213 1.403 . S
C211 C208 1.403 . S
C211 C212 1.524 . S
C211 C215 1.400 . S
C212 H197 0.960 . S
C212 H198 0.960 . S
C212 H199 0.960 . S
C212 C211 1.524 . S
C213 C210 1.403 . S
C213 C214 1.392 . S
C213 C217 1.495 . S
C214 C213 1.392 . S
C214 C215 1.385 . S
C214 C216 1.478 . S
C215 H209 0.930 . S
C215 C211 1.400 . S
C215 C214 1.385 . S
C216 C214 1.478 . S
C216 C218 1.381 . S
C216 C222 1.383 . S
C217 C213 1.495 . S
C217 H223 0.959 . S
C217 H224 0.961 . S
C217 H225 0.960 . S
C218 C216 1.381 . S
C218 C219 1.394 . S
C218 H226 0.930 . S
C219 C218 1.394 . S
C219 C220 1.383 . S
C219 H227 0.929 . S
C220 C219 1.383 . S
C220 C221 1.377 . S
C221 H205 0.930 . S
C221 C220 1.377 . S
C221 C222 1.379 . S
C222 H206 0.931 . S
C222 C216 1.383 . S
C222 C221 1.379 . S
H223 C217 0.959 . S
H224 C217 0.961 . S
H225 C217 0.960 . S
H226 C218 0.930 . S
H227 C219 0.929 . S
H228 C236 0.929 . S
H229 C238 0.930 . S
H230 C240 0.930 . S
H231 C243 0.929 . S
H232 C246 0.930 . S
H233 C248 0.960 . S
H234 C248 0.960 . S
H235 C248 0.960 . S
C236 H228 0.929 . S
C236 C237 1.377 . S
C236 C238 1.384 . S
C237 C236 1.377 . S
C237 C243 1.390 . S
C238 H229 0.930 . S
C238 C236 1.384 . S
C238 C239 1.372 . S
C239 C238 1.372 . S
C239 C240 1.400 . S
C239 C244 1.490 . S
C240 H230 0.930 . S
C240 C239 1.400 . S
C240 C243 1.386 . S
H241 C257 0.930 . S
H242 C258 0.931 . S
C243 H231 0.929 . S
C243 C237 1.390 . S
C243 C240 1.386 . S
C244 C239 1.490 . S
C244 C246 1.395 . S
C244 C247 1.403 . S
H245 C251 0.930 . S
C246 H232 0.930 . S
C246 C244 1.395 . S
C246 C249 1.403 . S
C247 C244 1.403 . S
C247 C248 1.524 . S
C247 C251 1.400 . S
C248 H233 0.960 . S
C248 H234 0.960 . S
C248 H235 0.960 . S
C248 C247 1.524 . S
C249 C246 1.403 . S
C249 C250 1.392 . S
C249 C253 1.495 . S
C250 C249 1.392 . S
C250 C251 1.385 . S
C250 C252 1.478 . S
C251 H245 0.930 . S
C251 C247 1.400 . S
C251 C250 1.385 . S
C252 C250 1.478 . S
C252 C254 1.381 . S
C252 C258 1.383 . S
C253 C249 1.495 . S
C253 H259 0.959 . S
C253 H260 0.961 . S
C253 H261 0.960 . S
C254 C252 1.381 . S
C254 C255 1.394 . S
C254 H262 0.930 . S
C255 C254 1.394 . S
C255 C256 1.383 . S
C255 H263 0.929 . S
C256 C255 1.383 . S
C256 C257 1.377 . S
C257 H241 0.930 . S
C257 C256 1.377 . S
C257 C258 1.379 . S
C258 H242 0.931 . S
C258 C252 1.383 . S
C258 C257 1.379 . S
H259 C253 0.959 . S
H260 C253 0.961 . S
H261 C253 0.960 . S
H262 C254 0.930 . S
H263 C255 0.929 . S
H264 C272 0.929 . S
H265 C274 0.930 . S
H266 C276 0.930 . S
H267 C279 0.929 . S
H268 C282 0.930 . S
H269 C284 0.960 . S
H270 C284 0.960 . S
H271 C284 0.960 . S
C272 H264 0.929 . S
C272 C273 1.377 . S
C272 C274 1.384 . S
C273 C272 1.377 . S
C273 C279 1.390 . S
C274 H265 0.930 . S
C274 C272 1.384 . S
C274 C275 1.372 . S
C275 C274 1.372 . S
C275 C276 1.400 . S
C275 C280 1.490 . S
C276 H266 0.930 . S
C276 C275 1.400 . S
C276 C279 1.386 . S
H277 C293 0.930 . S
H278 C294 0.931 . S
C279 H267 0.929 . S
C279 C273 1.390 . S
C279 C276 1.386 . S
C280 C275 1.490 . S
C280 C282 1.395 . S
C280 C283 1.403 . S
H281 C287 0.930 . S
C282 H268 0.930 . S
C282 C280 1.395 . S
C282 C285 1.403 . S
C283 C280 1.403 . S
C283 C284 1.524 . S
C283 C287 1.400 . S
C284 H269 0.960 . S
C284 H270 0.960 . S
C284 H271 0.960 . S
C284 C283 1.524 . S
C285 C282 1.403 . S
C285 C286 1.392 . S
C285 C289 1.495 . S
C286 C285 1.392 . S
C286 C287 1.385 . S
C286 C288 1.478 . S
C287 H281 0.930 . S
C287 C283 1.400 . S
C287 C286 1.385 . S
C288 C286 1.478 . S
C288 C290 1.381 . S
C288 C294 1.383 . S
C289 C285 1.495 . S
C289 H295 0.959 . S
C289 H296 0.961 . S
C289 H297 0.960 . S
C290 C288 1.381 . S
C290 C291 1.394 . S
C290 H298 0.930 . S
C291 C290 1.394 . S
C291 C292 1.383 . S
C291 H299 0.929 . S
C292 C291 1.383 . S
C292 C293 1.377 . S
C293 H277 0.930 . S
C293 C292 1.377 . S
C293 C294 1.379 . S
C294 H278 0.931 . S
C294 C288 1.383 . S
C294 C293 1.379 . S
H295 C289 0.959 . S
H296 C289 0.961 . S
H297 C289 0.960 . S
H298 C290 0.930 . S
H299 C291 0.929 . S
H300 C308 0.929 . S
H301 C310 0.930 . S
H302 C312 0.930 . S
H303 C315 0.929 . S
H304 C318 0.930 . S
H305 C320 0.960 . S
H306 C320 0.960 . S
H307 C320 0.960 . S
C308 H300 0.929 . S
C308 C309 1.377 . S
C308 C310 1.384 . S
C309 C308 1.377 . S
C309 C315 1.390 . S
C310 H301 0.930 . S
C310 C308 1.384 . S
C310 C311 1.372 . S
C311 C310 1.372 . S
C311 C312 1.400 . S
C311 C316 1.490 . S
C312 H302 0.930 . S
C312 C311 1.400 . S
C312 C315 1.386 . S
H313 C329 0.930 . S
H314 C330 0.931 . S
C315 H303 0.929 . S
C315 C309 1.390 . S
C315 C312 1.386 . S
C316 C311 1.490 . S
C316 C318 1.395 . S
C316 C319 1.403 . S
H317 C323 0.930 . S
C318 H304 0.930 . S
C318 C316 1.395 . S
C318 C321 1.403 . S
C319 C316 1.403 . S
C319 C320 1.524 . S
C319 C323 1.400 . S
C320 H305 0.960 . S
C320 H306 0.960 . S
C320 H307 0.960 . S
C320 C319 1.524 . S
C321 C318 1.403 . S
C321 C322 1.392 . S
C321 C325 1.495 . S
C322 C321 1.392 . S
C322 C323 1.385 . S
C322 C324 1.478 . S
C323 H317 0.930 . S
C323 C319 1.400 . S
C323 C322 1.385 . S
C324 C322 1.478 . S
C324 C326 1.381 . S
C324 C330 1.383 . S
C325 C321 1.495 . S
C325 H331 0.959 . S
C325 H332 0.961 . S
C325 H333 0.960 . S
C326 C324 1.381 . S
C326 C327 1.394 . S
C326 H334 0.930 . S
C327 C326 1.394 . S
C327 C328 1.383 . S
C327 H335 0.929 . S
C328 C327 1.383 . S
C328 C329 1.377 . S
C329 H313 0.930 . S
C329 C328 1.377 . S
C329 C330 1.379 . S
C330 H314 0.931 . S
C330 C324 1.383 . S
C330 C329 1.379 . S
H331 C325 0.959 . S
H332 C325 0.961 . S
H333 C325 0.960 . S
H334 C326 0.930 . S
H335 C327 0.929 . S
H336 C344 0.929 . S
H337 C346 0.930 . S
H338 C348 0.930 . S
H339 C351 0.929 . S
H340 C354 0.930 . S
H341 C356 0.960 . S
H342 C356 0.960 . S
H343 C356 0.960 . S
C344 H336 0.929 . S
C344 C345 1.377 . S
C344 C346 1.384 . S
C345 C344 1.377 . S
C345 C351 1.390 . S
C346 H337 0.930 . S
C346 C344 1.384 . S
C346 C347 1.372 . S
C347 C346 1.372 . S
C347 C348 1.400 . S
C347 C352 1.490 . S
C348 H338 0.930 . S
C348 C347 1.400 . S
C348 C351 1.386 . S
H349 C365 0.930 . S
H350 C366 0.931 . S
C351 H339 0.929 . S
C351 C345 1.390 . S
C351 C348 1.386 . S
C352 C347 1.490 . S
C352 C354 1.395 . S
C352 C355 1.403 . S
H353 C359 0.930 . S
C354 H340 0.930 . S
C354 C352 1.395 . S
C354 C357 1.403 . S
C355 C352 1.403 . S
C355 C356 1.524 . S
C355 C359 1.400 . S
C356 H341 0.960 . S
C356 H342 0.960 . S
C356 H343 0.960 . S
C356 C355 1.524 . S
C357 C354 1.403 . S
C357 C358 1.392 . S
C357 C361 1.495 . S
C358 C357 1.392 . S
C358 C359 1.385 . S
C358 C360 1.478 . S
C359 H353 0.930 . S
C359 C355 1.400 . S
C359 C358 1.385 . S
C360 C358 1.478 . S
C360 C362 1.381 . S
C360 C366 1.383 . S
C361 C357 1.495 . S
C361 H367 0.959 . S
C361 H368 0.961 . S
C361 H369 0.960 . S
C362 C360 1.381 . S
C362 C363 1.394 . S
C362 H370 0.930 . S
C363 C362 1.394 . S
C363 C364 1.383 . S
C363 H371 0.929 . S
C364 C363 1.383 . S
C364 C365 1.377 . S
C365 H349 0.930 . S
C365 C364 1.377 . S
C365 C366 1.379 . S
C366 H350 0.931 . S
C366 C360 1.383 . S
C366 C365 1.379 . S
H367 C361 0.959 . S
H368 C361 0.961 . S
H369 C361 0.960 . S
H370 C362 0.930 . S
H371 C363 0.929 . S
H372 C380 0.929 . S
H373 C382 0.930 . S
H374 C384 0.930 . S
H375 C387 0.929 . S
H376 C390 0.930 . S
H377 C392 0.960 . S
H378 C392 0.960 . S
H379 C392 0.960 . S
C380 H372 0.929 . S
C380 C381 1.377 . S
C380 C382 1.384 . S
C381 C380 1.377 . S
C381 C387 1.390 . S
C382 H373 0.930 . S
C382 C380 1.384 . S
C382 C383 1.372 . S
C383 C382 1.372 . S
C383 C384 1.400 . S
C383 C388 1.490 . S
C384 H374 0.930 . S
C384 C383 1.400 . S
C384 C387 1.386 . S
H385 C401 0.930 . S
H386 C402 0.931 . S
C387 H375 0.929 . S
C387 C381 1.390 . S
C387 C384 1.386 . S
C388 C383 1.490 . S
C388 C390 1.395 . S
C388 C391 1.403 . S
H389 C395 0.930 . S
C390 H376 0.930 . S
C390 C388 1.395 . S
C390 C393 1.403 . S
C391 C388 1.403 . S
C391 C392 1.524 . S
C391 C395 1.400 . S
C392 H377 0.960 . S
C392 H378 0.960 . S
C392 H379 0.960 . S
C392 C391 1.524 . S
C393 C390 1.403 . S
C393 C394 1.392 . S
C393 C397 1.495 . S
C394 C393 1.392 . S
C394 C395 1.385 . S
C394 C396 1.478 . S
C395 H389 0.930 . S
C395 C391 1.400 . S
C395 C394 1.385 . S
C396 C394 1.478 . S
C396 C398 1.381 . S
C396 C402 1.383 . S
C397 C393 1.495 . S
C397 H403 0.959 . S
C397 H404 0.961 . S
C397 H405 0.960 . S
C398 C396 1.381 . S
C398 C399 1.394 . S
C398 H406 0.930 . S
C399 C398 1.394 . S
C399 C400 1.383 . S
C399 H407 0.929 . S
C400 C399 1.383 . S
C400 C401 1.377 . S
C401 H385 0.930 . S
C401 C400 1.377 . S
C401 C402 1.379 . S
C402 H386 0.931 . S
C402 C396 1.383 . S
C402 C401 1.379 . S
H403 C397 0.959 . S
H404 C397 0.961 . S
H405 C397 0.960 . S
H406 C398 0.930 . S
H407 C399 0.929 . S
H408 C416 0.929 . S
H409 C418 0.930 . S
H410 C420 0.930 . S
H411 C423 0.929 . S
H412 C426 0.930 . S
H413 C428 0.960 . S
H414 C428 0.950 1_655 S
H415 C428 0.960 1_655 S
C416 H408 0.929 . S
C416 C417 1.377 . S
C416 C418 1.384 . S
C417 C416 1.377 . S
C417 C423 1.390 . S
C418 H409 0.930 . S
C418 C416 1.384 . S
C418 C419 1.372 . S
C419 C418 1.372 . S
C419 C420 1.400 . S
C419 C424 1.490 . S
C420 H410 0.930 . S
C420 C419 1.400 . S
C420 C423 1.386 . S
H421 C437 0.930 . S
H422 C438 0.931 . S
C423 H411 0.929 . S
C423 C417 1.390 . S
C423 C420 1.386 . S
C424 C419 1.490 . S
C424 C426 1.395 . S
C424 C427 1.399 . S
H425 C431 0.930 . S
C426 H412 0.930 . S
C426 C424 1.395 . S
C426 C429 1.403 . S
C427 C424 1.399 . S
C427 C428 1.525 1_655 S
C427 C431 1.402 1_655 S
C428 H413 0.960 . S
C428 H414 0.950 1_455 S
C428 H415 0.960 1_455 S
C428 C427 1.525 1_455 S
C429 C426 1.403 . S
C429 C430 1.392 1_655 S
C429 C433 1.495 . S
C430 C429 1.392 1_455 S
C430 C431 1.385 . S
C430 C432 1.478 . S
C431 H425 0.930 . S
C431 C427 1.402 1_455 S
C431 C430 1.385 . S
C432 C430 1.478 . S
C432 C434 1.381 . S
C432 C438 1.383 . S
C433 C429 1.495 . S
C433 H439 0.959 . S
C433 H440 0.962 . S
C433 H441 0.960 1_655 S
C434 C432 1.381 . S
C434 C435 1.394 . S
C434 H442 0.930 . S
C435 C434 1.394 . S
C435 C436 1.383 . S
C435 H443 0.929 . S
C436 C435 1.383 . S
C436 C437 1.377 . S
C437 H421 0.930 . S
C437 C436 1.377 . S
C437 C438 1.379 . S
C438 H422 0.931 . S
C438 C432 1.383 . S
C438 C437 1.379 . S
H439 C433 0.959 . S
H440 C433 0.962 . S
H441 C433 0.960 1_455 S
H442 C434 0.930 . S
H443 C435 0.929 . S
H444 C452 0.929 . S
H445 C454 0.930 . S
H446 C456 0.930 . S
H447 C459 0.929 . S
H448 C462 0.930 . S
H449 C464 0.960 . S
H450 C464 0.960 . S
H451 C464 0.960 . S
C452 H444 0.929 . S
C452 C453 1.377 . S
C452 C454 1.384 . S
C453 C452 1.377 . S
C453 C459 1.390 . S
C454 H445 0.930 . S
C454 C452 1.384 . S
C454 C455 1.372 . S
C455 C454 1.372 . S
C455 C456 1.400 . S
C455 C460 1.490 . S
C456 H446 0.930 . S
C456 C455 1.400 . S
C456 C459 1.386 . S
H457 C473 0.930 . S
H458 C474 0.931 . S
C459 H447 0.929 . S
C459 C453 1.390 . S
C459 C456 1.386 . S
C460 C455 1.490 . S
C460 C462 1.395 . S
C460 C463 1.403 . S
H461 C467 0.930 . S
C462 H448 0.930 . S
C462 C460 1.395 . S
C462 C465 1.403 1_545 S
C463 C460 1.403 . S
C463 C464 1.524 . S
C463 C467 1.400 1_545 S
C464 H449 0.960 . S
C464 H450 0.960 . S
C464 H451 0.960 . S
C464 C463 1.524 . S
C465 C462 1.403 1_565 S
C465 C466 1.392 . S
C465 C469 1.495 . S
C466 C465 1.392 . S
C466 C467 1.385 . S
C466 C468 1.478 . S
C467 H461 0.930 . S
C467 C463 1.400 1_565 S
C467 C466 1.385 . S
C468 C466 1.478 . S
C468 C470 1.381 . S
C468 C474 1.383 . S
C469 C465 1.495 . S
C469 H475 0.959 . S
C469 H476 0.961 . S
C469 H477 0.960 . S
C470 C468 1.381 . S
C470 C471 1.394 . S
C470 H478 0.930 . S
C471 C470 1.394 . S
C471 C472 1.383 . S
C471 H479 0.929 . S
C472 C471 1.383 . S
C472 C473 1.377 . S
C473 H457 0.930 . S
C473 C472 1.377 . S
C473 C474 1.379 . S
C474 H458 0.931 . S
C474 C468 1.383 . S
C474 C473 1.379 . S
H475 C469 0.959 . S
H476 C469 0.961 . S
H477 C469 0.960 . S
H478 C470 0.930 . S
H479 C471 0.929 . S
H480 C488 0.929 . S
H481 C490 0.930 . S
H482 C492 0.930 . S
H483 C495 0.929 . S
H484 C498 0.930 . S
H485 C500 0.960 . S
H486 C500 0.960 . S
H487 C500 0.960 . S
C488 H480 0.929 . S
C488 C489 1.377 . S
C488 C490 1.384 . S
C489 C488 1.377 . S
C489 C495 1.390 . S
C490 H481 0.930 . S
C490 C488 1.384 . S
C490 C491 1.372 . S
C491 C490 1.372 . S
C491 C492 1.400 . S
C491 C496 1.490 . S
C492 H482 0.930 . S
C492 C491 1.400 . S
C492 C495 1.386 . S
H493 C509 0.930 . S
H494 C510 0.931 . S
C495 H483 0.929 . S
C495 C489 1.390 . S
C495 C492 1.386 . S
C496 C491 1.490 . S
C496 C498 1.395 . S
C496 C499 1.403 . S
H497 C503 0.930 . S
C498 H484 0.930 . S
C498 C496 1.395 . S
C498 C501 1.403 . S
C499 C496 1.403 . S
C499 C500 1.524 . S
C499 C503 1.400 . S
C500 H485 0.960 . S
C500 H486 0.960 . S
C500 H487 0.960 . S
C500 C499 1.524 . S
C501 C498 1.403 . S
C501 C502 1.392 . S
C501 C505 1.495 . S
C502 C501 1.392 . S
C502 C503 1.385 . S
C502 C504 1.478 . S
C503 H497 0.930 . S
C503 C499 1.400 . S
C503 C502 1.385 . S
C504 C502 1.478 . S
C504 C506 1.381 . S
C504 C510 1.383 . S
C505 C501 1.495 . S
C505 H511 0.959 . S
C505 H512 0.961 . S
C505 H513 0.960 . S
C506 C504 1.381 . S
C506 C507 1.394 . S
C506 H514 0.930 . S
C507 C506 1.394 . S
C507 C508 1.383 . S
C507 H515 0.929 . S
C508 C507 1.383 . S
C508 C509 1.377 . S
C509 H493 0.930 . S
C509 C508 1.377 . S
C509 C510 1.379 . S
C510 H494 0.931 . S
C510 C504 1.383 . S
C510 C509 1.379 . S
H511 C505 0.959 . S
H512 C505 0.961 . S
H513 C505 0.960 . S
H514 C506 0.930 . S
H515 C507 0.929 . S
H516 C524 0.929 . S
H517 C526 0.930 . S
H518 C528 0.930 . S
H519 C531 0.929 . S
H520 C534 0.929 . S
H521 C536 0.960 . S
H522 C536 0.960 . S
H523 C536 0.960 . S
C524 H516 0.929 . S
C524 C525 1.377 . S
C524 C526 1.384 . S
C525 C524 1.377 . S
C525 C531 1.390 . S
C526 H517 0.930 . S
C526 C524 1.384 . S
C526 C527 1.372 . S
C527 C526 1.372 . S
C527 C528 1.400 . S
C527 C532 1.490 . S
C528 H518 0.930 . S
C528 C527 1.400 . S
C528 C531 1.386 . S
H529 C545 0.930 . S
H530 C546 0.931 . S
C531 H519 0.929 . S
C531 C525 1.390 . S
C531 C528 1.386 . S
C532 C527 1.490 . S
C532 C534 1.398 . S
C532 C535 1.403 . S
H533 C539 0.930 . S
C534 H520 0.929 . S
C534 C532 1.398 . S
C534 C537 1.401 1_655 S
C535 C532 1.403 . S
C535 C536 1.524 . S
C535 C539 1.400 1_655 S
C536 H521 0.960 . S
C536 H522 0.960 . S
C536 H523 0.960 . S
C536 C535 1.524 . S
C537 C534 1.401 1_455 S
C537 C538 1.392 . S
C537 C541 1.495 . S
C538 C537 1.392 . S
C538 C539 1.385 . S
C538 C540 1.478 . S
C539 H533 0.930 . S
C539 C535 1.400 1_455 S
C539 C538 1.385 . S
C540 C538 1.478 . S
C540 C542 1.381 . S
C540 C546 1.383 . S
C541 C537 1.495 . S
C541 H547 0.959 . S
C541 H548 0.961 . S
C541 H549 0.960 . S
C542 C540 1.381 . S
C542 C543 1.394 . S
C542 H550 0.930 . S
C543 C542 1.394 . S
C543 C544 1.383 . S
C543 H551 0.929 . S
C544 C543 1.383 . S
C544 C545 1.377 . S
C545 H529 0.930 . S
C545 C544 1.377 . S
C545 C546 1.379 . S
C546 H530 0.931 . S
C546 C540 1.383 . S
C546 C545 1.379 . S
H547 C541 0.959 . S
H548 C541 0.961 . S
H549 C541 0.960 . S
H550 C542 0.930 . S
H551 C543 0.929 . S
H552 C560 0.929 . S
H553 C562 0.930 . S
H554 C564 0.930 . S
H555 C567 0.929 . S
H556 C570 0.930 . S
H557 C572 0.960 . S
H558 C572 0.946 1_565 S
H559 C572 0.960 1_565 S
C560 H552 0.929 . S
C560 C561 1.377 . S
C560 C562 1.384 . S
C561 C560 1.377 . S
C561 C567 1.390 . S
C562 H553 0.930 . S
C562 C560 1.384 . S
C562 C563 1.372 . S
C563 C562 1.372 . S
C563 C564 1.400 . S
C563 C568 1.490 . S
C564 H554 0.930 . S
C564 C563 1.400 . S
C564 C567 1.386 . S
H565 C581 0.930 . S
H566 C582 0.931 . S
C567 H555 0.929 . S
C567 C561 1.390 . S
C567 C564 1.386 . S
C568 C563 1.490 . S
C568 C570 1.395 1_554 S
C568 C571 1.403 1_565 S
H569 C575 0.930 . S
C570 H556 0.930 . S
C570 C568 1.395 1_556 S
C570 C573 1.403 . S
C571 C568 1.403 1_545 S
C571 C572 1.524 . S
C571 C575 1.400 . S
C572 H557 0.960 . S
C572 H558 0.946 1_545 S
C572 H559 0.960 1_545 S
C572 C571 1.524 . S
C573 C570 1.403 . S
C573 C574 1.392 1_565 S
C573 C577 1.495 . S
C574 C573 1.392 1_545 S
C574 C575 1.385 1_556 S
C574 C576 1.478 . S
C575 H569 0.930 . S
C575 C571 1.400 . S
C575 C574 1.385 1_554 S
C576 C574 1.478 . S
C576 C578 1.381 . S
C576 C582 1.383 . S
C577 C573 1.495 . S
C577 H583 0.959 . S
C577 H584 0.961 . S
C577 H585 0.960 1_565 S
C578 C576 1.381 . S
C578 C579 1.394 . S
C578 H586 0.930 . S
C579 C578 1.394 . S
C579 C580 1.383 . S
C579 H587 0.929 . S
C580 C579 1.383 . S
C580 C581 1.377 . S
C581 H565 0.930 . S
C581 C580 1.377 . S
C581 C582 1.379 . S
C582 H566 0.931 . S
C582 C576 1.383 . S
C582 C581 1.379 . S
H583 C577 0.959 . S
H584 C577 0.961 . S
H585 C577 0.960 1_545 S
H586 C578 0.930 . S
H587 C579 0.929 . S
H588 C596 0.929 . S
H589 C598 0.930 . S
H590 C600 0.930 . S
H591 C603 0.929 . S
H592 C606 0.930 . S
H593 C608 0.895 1_556 S
H594 C608 0.996 . S
H595 C608 0.968 . S
C596 H588 0.929 . S
C596 C597 1.377 . S
C596 C598 1.384 . S
C597 C596 1.377 . S
C597 C603 1.390 . S
C598 H589 0.930 . S
C598 C596 1.384 . S
C598 C599 1.372 . S
C599 C598 1.372 . S
C599 C600 1.400 . S
C599 C604 1.490 . S
C600 H590 0.930 . S
C600 C599 1.400 . S
C600 C603 1.386 . S
H601 C617 0.930 . S
H602 C618 0.931 . S
C603 H591 0.929 . S
C603 C597 1.390 . S
C603 C600 1.386 . S
C604 C599 1.490 . S
C604 C606 1.395 . S
C604 C607 1.403 . S
H605 C611 0.930 . S
C606 H592 0.930 . S
C606 C604 1.395 . S
C606 C609 1.403 . S
C607 C604 1.403 . S
C607 C608 1.551 . S
C607 C611 1.400 1_554 S
C608 H593 0.895 1_554 S
C608 H594 0.996 . S
C608 H595 0.968 . S
C608 C607 1.551 . S
C609 C606 1.403 . S
C609 C610 1.392 . S
C609 C613 1.495 . S
C610 C609 1.392 . S
C610 C611 1.385 1_554 S
C610 C612 1.478 1_554 S
C611 H605 0.930 . S
C611 C607 1.400 1_556 S
C611 C610 1.385 1_556 S
C612 C610 1.478 1_556 S
C612 C614 1.381 . S
C612 C618 1.383 . S
C613 C609 1.495 . S
C613 H619 0.959 . S
C613 H620 0.961 . S
C613 H621 0.960 . S
C614 C612 1.381 . S
C614 C615 1.394 . S
C614 H622 0.930 1_556 S
C615 C614 1.394 . S
C615 C616 1.383 . S
C615 H623 0.929 . S
C616 C615 1.383 . S
C616 C617 1.377 . S
C617 H601 0.930 . S
C617 C616 1.377 . S
C617 C618 1.379 . S
C618 H602 0.931 . S
C618 C612 1.383 . S
C618 C617 1.379 . S
H619 C613 0.959 . S
H620 C613 0.961 . S
H621 C613 0.960 . S
H622 C614 0.930 1_554 S
H623 C615 0.929 . S
H624 C632 0.929 . S
H625 C634 0.930 . S
H626 C636 0.930 . S
H627 C639 0.929 . S
H628 C642 0.930 . S
H629 C644 0.960 . S
H630 C644 0.960 . S
H631 C644 0.960 . S
C632 H624 0.929 . S
C632 C633 1.377 . S
C632 C634 1.384 . S
C633 C632 1.377 . S
C633 C639 1.390 . S
C634 H625 0.930 . S
C634 C632 1.384 . S
C634 C635 1.372 . S
C635 C634 1.372 . S
C635 C636 1.400 . S
C635 C640 1.490 . S
C636 H626 0.930 . S
C636 C635 1.400 . S
C636 C639 1.386 . S
H637 C653 0.930 . S
H638 C654 0.931 . S
C639 H627 0.929 . S
C639 C633 1.390 . S
C639 C636 1.386 . S
C640 C635 1.490 . S
C640 C642 1.395 . S
C640 C643 1.403 . S
H641 C647 0.930 . S
C642 H628 0.930 . S
C642 C640 1.395 . S
C642 C645 1.403 1_655 S
C643 C640 1.403 . S
C643 C644 1.524 . S
C643 C647 1.400 . S
C644 H629 0.960 . S
C644 H630 0.960 . S
C644 H631 0.960 . S
C644 C643 1.524 . S
C645 C642 1.403 1_455 S
C645 C646 1.392 . S
C645 C649 1.495 . S
C646 C645 1.392 . S
C646 C647 1.385 1_455 S
C646 C648 1.478 . S
C647 H641 0.930 . S
C647 C643 1.400 . S
C647 C646 1.385 1_655 S
C648 C646 1.478 . S
C648 C650 1.381 . S
C648 C654 1.383 . S
C649 C645 1.495 . S
C649 H655 0.959 . S
C649 H656 0.961 . S
C649 H657 0.960 . S
C650 C648 1.381 . S
C650 C651 1.394 . S
C650 H658 0.930 . S
C651 C650 1.394 . S
C651 C652 1.383 . S
C651 H659 0.929 . S
C652 C651 1.383 . S
C652 C653 1.377 . S
C653 H637 0.930 . S
C653 C652 1.377 . S
C653 C654 1.379 . S
C654 H638 0.931 . S
C654 C648 1.383 . S
C654 C653 1.379 . S
H655 C649 0.959 . S
H656 C649 0.961 . S
H657 C649 0.960 . S
H658 C650 0.930 . S
H659 C651 0.929 . S
H660 C668 0.929 . S
H661 C670 0.930 . S
H662 C672 0.930 . S
H663 C675 0.929 . S
H664 C678 0.930 . S
H665 C680 0.960 1_565 S
H666 C680 0.960 . S
H667 C680 0.960 . S
C668 H660 0.929 . S
C668 C669 1.377 . S
C668 C670 1.384 . S
C669 C668 1.377 . S
C669 C675 1.390 . S
C670 H661 0.930 . S
C670 C668 1.384 . S
C670 C671 1.372 . S
C671 C670 1.372 . S
C671 C672 1.400 . S
C671 C676 1.490 . S
C672 H662 0.930 . S
C672 C671 1.400 . S
C672 C675 1.386 . S
H673 C689 0.930 . S
H674 C690 0.931 . S
C675 H663 0.929 . S
C675 C669 1.390 . S
C675 C672 1.386 . S
C676 C671 1.490 . S
C676 C678 1.395 1_545 S
C676 C679 1.403 1_545 S
H677 C683 0.930 . S
C678 H664 0.930 . S
C678 C676 1.395 1_565 S
C678 C681 1.403 . S
C679 C676 1.403 1_565 S
C679 C680 1.524 1_565 S
C679 C683 1.400 . S
C680 H665 0.960 1_545 S
C680 H666 0.960 . S
C680 H667 0.960 . S
C680 C679 1.524 1_545 S
C681 C678 1.403 . S
C681 C682 1.392 . S
C681 C685 1.495 . S
C682 C681 1.392 . S
C682 C683 1.385 . S
C682 C684 1.478 . S
C683 H677 0.930 . S
C683 C679 1.400 . S
C683 C682 1.385 . S
C684 C682 1.478 . S
C684 C686 1.381 . S
C684 C690 1.383 . S
C685 C681 1.495 . S
C685 H691 0.959 . S
C685 H692 0.961 . S
C685 H693 0.960 . S
C686 C684 1.381 . S
C686 C687 1.394 . S
C686 H694 0.930 . S
C687 C686 1.394 . S
C687 C688 1.383 . S
C687 H695 0.929 . S
C688 C687 1.383 . S
C688 C689 1.377 . S
C689 H673 0.930 . S
C689 C688 1.377 . S
C689 C690 1.379 . S
C690 H674 0.931 . S
C690 C684 1.383 . S
C690 C689 1.379 . S
H691 C685 0.959 . S
H692 C685 0.961 . S
H693 C685 0.960 . S
H694 C686 0.930 . S
H695 C687 0.929 . S
H696 C704 0.929 . S
H697 C706 0.930 . S
H698 C708 0.930 . S
H699 C711 0.929 . S
H700 C714 0.930 . S
H701 C716 0.960 . S
H702 C716 0.960 . S
H703 C716 0.960 . S
C704 H696 0.929 . S
C704 C705 1.377 . S
C704 C706 1.384 . S
C705 C704 1.377 . S
C705 C711 1.390 . S
C706 H697 0.930 . S
C706 C704 1.384 . S
C706 C707 1.372 . S
C707 C706 1.372 . S
C707 C708 1.400 . S
C707 C712 1.490 . S
C708 H698 0.930 . S
C708 C707 1.400 . S
C708 C711 1.386 . S
H709 C725 0.930 . S
H710 C726 0.931 . S
C711 H699 0.929 . S
C711 C705 1.390 . S
C711 C708 1.386 . S
C712 C707 1.490 . S
C712 C714 1.395 . S
C712 C715 1.403 . S
H713 C719 0.930 . S
C714 H700 0.930 . S
C714 C712 1.395 . S
C714 C717 1.403 . S
C715 C712 1.403 . S
C715 C716 1.524 . S
C715 C719 1.400 . S
C716 H701 0.960 . S
C716 H702 0.960 . S
C716 H703 0.960 . S
C716 C715 1.524 . S
C717 C714 1.403 . S
C717 C718 1.392 . S
C717 C721 1.495 . S
C718 C717 1.392 . S
C718 C719 1.385 . S
C718 C720 1.478 . S
C719 H713 0.930 . S
C719 C715 1.400 . S
C719 C718 1.385 . S
C720 C718 1.478 . S
C720 C722 1.381 . S
C720 C726 1.383 . S
C721 C717 1.495 . S
C721 H727 0.959 . S
C721 H728 0.961 . S
C721 H729 0.960 . S
C722 C720 1.381 . S
C722 C723 1.394 . S
C722 H730 0.930 . S
C723 C722 1.394 . S
C723 C724 1.383 . S
C723 H731 0.929 . S
C724 C723 1.383 . S
C724 C725 1.377 . S
C725 H709 0.930 . S
C725 C724 1.377 . S
C725 C726 1.379 . S
C726 H710 0.931 . S
C726 C720 1.383 . S
C726 C725 1.379 . S
H727 C721 0.959 . S
H728 C721 0.961 . S
H729 C721 0.960 . S
H730 C722 0.930 . S
H731 C723 0.929 . S
H732 C740 0.929 . S
H733 C742 0.930 . S
H734 C744 0.930 . S
H735 C747 0.929 . S
H736 C750 0.930 . S
H737 C752 0.960 . S
H738 C752 0.960 . S
H739 C752 0.960 . S
C740 H732 0.929 . S
C740 C741 1.377 . S
C740 C742 1.384 . S
C741 C740 1.377 . S
C741 C747 1.390 . S
C742 H733 0.930 . S
C742 C740 1.384 . S
C742 C743 1.372 . S
C743 C742 1.372 . S
C743 C744 1.400 . S
C743 C748 1.490 . S
C744 H734 0.930 . S
C744 C743 1.400 . S
C744 C747 1.386 . S
H745 C761 0.930 . S
H746 C762 0.931 . S
C747 H735 0.929 . S
C747 C741 1.390 . S
C747 C744 1.386 . S
C748 C743 1.490 . S
C748 C750 1.395 . S
C748 C751 1.403 . S
H749 C755 0.930 . S
C750 H736 0.930 . S
C750 C748 1.395 . S
C750 C753 1.403 1_455 S
C751 C748 1.403 . S
C751 C752 1.524 . S
C751 C755 1.400 . S
C752 H737 0.960 . S
C752 H738 0.960 . S
C752 H739 0.960 . S
C752 C751 1.524 . S
C753 C750 1.403 1_655 S
C753 C754 1.392 . S
C753 C757 1.495 . S
C754 C753 1.392 . S
C754 C755 1.385 1_655 S
C754 C756 1.478 . S
C755 H749 0.930 . S
C755 C751 1.400 . S
C755 C754 1.385 1_455 S
C756 C754 1.478 . S
C756 C758 1.381 . S
C756 C762 1.383 . S
C757 C753 1.495 . S
C757 H763 0.959 . S
C757 H764 0.961 . S
C757 H765 0.960 . S
C758 C756 1.381 . S
C758 C759 1.394 . S
C758 H766 0.930 . S
C759 C758 1.394 . S
C759 C760 1.383 . S
C759 H767 0.929 . S
C760 C759 1.383 . S
C760 C761 1.377 . S
C761 H745 0.930 . S
C761 C760 1.377 . S
C761 C762 1.379 . S
C762 H746 0.931 . S
C762 C756 1.383 . S
C762 C761 1.379 . S
H763 C757 0.959 . S
H764 C757 0.961 . S
H765 C757 0.960 . S
H766 C758 0.930 . S
H767 C759 0.929 . S
H768 C776 0.929 . S
H769 C778 0.930 . S
H770 C780 0.930 . S
H771 C783 0.929 . S
H772 C786 0.930 . S
H773 C788 0.960 . S
H774 C788 0.960 . S
H775 C788 0.960 . S
C776 H768 0.929 . S
C776 C777 1.377 . S
C776 C778 1.384 . S
C777 C776 1.377 . S
C777 C783 1.390 . S
C778 H769 0.930 . S
C778 C776 1.384 . S
C778 C779 1.372 . S
C779 C778 1.372 . S
C779 C780 1.400 . S
C779 C784 1.490 . S
C780 H770 0.930 . S
C780 C779 1.400 . S
C780 C783 1.386 . S
H781 C797 0.930 . S
H782 C798 0.931 . S
C783 H771 0.929 . S
C783 C777 1.390 . S
C783 C780 1.386 . S
C784 C779 1.490 . S
C784 C786 1.395 . S
C784 C787 1.403 . S
H785 C791 0.951 . S
C786 H772 0.930 . S
C786 C784 1.395 . S
C786 C789 1.403 . S
C787 C784 1.403 . S
C787 C788 1.524 . S
C787 C791 1.386 1_545 S
C788 H773 0.960 . S
C788 H774 0.960 . S
C788 H775 0.960 . S
C788 C787 1.524 . S
C789 C786 1.403 . S
C789 C790 1.392 1_545 S
C789 C793 1.495 . S
C790 C789 1.392 1_565 S
C790 C791 1.379 . S
C790 C792 1.478 . S
C791 H785 0.951 . S
C791 C787 1.386 1_565 S
C791 C790 1.379 . S
C792 C790 1.478 . S
C792 C794 1.381 . S
C792 C798 1.383 . S
C793 C789 1.495 . S
C793 H799 0.959 . S
C793 H800 0.961 . S
C793 H801 0.960 1_545 S
C794 C792 1.381 . S
C794 C795 1.394 . S
C794 H802 0.930 . S
C795 C794 1.394 . S
C795 C796 1.383 . S
C795 H803 0.929 . S
C796 C795 1.383 . S
C796 C797 1.377 . S
C797 H781 0.930 . S
C797 C796 1.377 . S
C797 C798 1.379 . S
C798 H782 0.931 . S
C798 C792 1.383 . S
C798 C797 1.379 . S
H799 C793 0.959 . S
H800 C793 0.961 . S
H801 C793 0.960 1_565 S
H802 C794 0.930 . S
H803 C795 0.929 . S
H804 C812 0.929 . S
H805 C814 0.930 . S
H806 C816 0.930 . S
H807 C819 0.929 . S
H808 C822 0.930 . S
H809 C824 0.960 . S
H810 C824 0.960 . S
H811 C824 0.960 . S
C812 H804 0.929 . S
C812 C813 1.377 . S
C812 C814 1.384 . S
C813 C812 1.377 . S
C813 C819 1.390 . S
C814 H805 0.930 . S
C814 C812 1.384 . S
C814 C815 1.372 . S
C815 C814 1.372 . S
C815 C816 1.400 . S
C815 C820 1.490 . S
C816 H806 0.930 . S
C816 C815 1.400 . S
C816 C819 1.386 . S
H817 C833 0.930 . S
H818 C834 0.931 . S
C819 H807 0.929 . S
C819 C813 1.390 . S
C819 C816 1.386 . S
C820 C815 1.490 . S
C820 C822 1.395 . S
C820 C823 1.403 . S
H821 C827 0.930 . S
C822 H808 0.930 . S
C822 C820 1.395 . S
C822 C825 1.403 . S
C823 C820 1.403 . S
C823 C824 1.524 . S
C823 C827 1.400 . S
C824 H809 0.960 . S
C824 H810 0.960 . S
C824 H811 0.960 . S
C824 C823 1.524 . S
C825 C822 1.403 . S
C825 C826 1.392 . S
C825 C829 1.495 . S
C826 C825 1.392 . S
C826 C827 1.385 . S
C826 C828 1.478 . S
C827 H821 0.930 . S
C827 C823 1.400 . S
C827 C826 1.385 . S
C828 C826 1.478 . S
C828 C830 1.381 . S
C828 C834 1.383 . S
C829 C825 1.495 . S
C829 H835 0.959 . S
C829 H836 0.961 . S
C829 H837 0.960 . S
C830 C828 1.381 . S
C830 C831 1.394 . S
C830 H838 0.930 . S
C831 C830 1.394 . S
C831 C832 1.383 . S
C831 H839 0.929 . S
C832 C831 1.383 . S
C832 C833 1.377 . S
C833 H817 0.930 . S
C833 C832 1.377 . S
C833 C834 1.379 . S
C834 H818 0.931 . S
C834 C828 1.383 . S
C834 C833 1.379 . S
H835 C829 0.959 . S
H836 C829 0.961 . S
H837 C829 0.960 . S
H838 C830 0.930 . S
H839 C831 0.929 . S
H840 C848 0.929 . S
H841 C850 0.930 . S
H842 C852 0.930 . S
H843 C855 0.929 . S
H844 C858 0.930 . S
H845 C860 1.028 . S
H846 C860 0.940 1_556 S
H847 C860 0.947 1_556 S
C848 H840 0.929 . S
C848 C849 1.377 . S
C848 C850 1.384 . S
C849 C848 1.377 . S
C849 C855 1.390 . S
C850 H841 0.930 . S
C850 C848 1.384 . S
C850 C851 1.372 . S
C851 C850 1.372 . S
C851 C852 1.400 . S
C851 C856 1.490 . S
C852 H842 0.930 . S
C852 C851 1.400 . S
C852 C855 1.386 . S
H853 C869 0.930 . S
H854 C870 0.931 . S
C855 H843 0.929 . S
C855 C849 1.390 . S
C855 C852 1.386 . S
C856 C851 1.490 . S
C856 C858 1.395 . S
C856 C859 1.403 . S
H857 C863 0.930 . S
C858 H844 0.930 . S
C858 C856 1.395 . S
C858 C861 1.403 1_655 S
C859 C856 1.403 . S
C859 C860 1.496 1_556 S
C859 C863 1.400 1_556 S
C860 H845 1.028 . S
C860 H846 0.940 1_554 S
C860 H847 0.947 1_554 S
C860 C859 1.496 1_554 S
C861 C858 1.403 1_455 S
C861 C862 1.392 . S
C861 C865 1.495 . S
C862 C861 1.392 . S
C862 C863 1.385 1_456 S
C862 C864 1.478 1_556 S
C863 H857 0.930 . S
C863 C859 1.400 1_554 S
C863 C862 1.385 1_654 S
C864 C862 1.478 1_554 S
C864 C866 1.381 . S
C864 C870 1.383 . S
C865 C861 1.495 . S
C865 H871 0.959 . S
C865 H872 0.961 . S
C865 H873 0.960 . S
C866 C864 1.381 . S
C866 C867 1.394 . S
C866 H874 0.930 . S
C867 C866 1.394 . S
C867 C868 1.383 . S
C867 H875 0.929 . S
C868 C867 1.383 . S
C868 C869 1.377 . S
C869 H853 0.930 . S
C869 C868 1.377 . S
C869 C870 1.379 . S
C870 H854 0.931 . S
C870 C864 1.383 . S
C870 C869 1.379 . S
H871 C865 0.959 . S
H872 C865 0.961 . S
H873 C865 0.960 . S
H874 C866 0.930 . S
H875 C867 0.929 . S
H876 C884 0.929 . S
H877 C886 0.930 . S
H878 C888 0.930 . S
H879 C891 0.929 . S
H880 C894 0.930 . S
H881 C896 0.960 . S
H882 C896 0.960 . S
H883 C896 0.960 . S
C884 H876 0.929 . S
C884 C885 1.377 . S
C884 C886 1.384 . S
C885 C884 1.377 . S
C885 C891 1.390 . S
C886 H877 0.930 . S
C886 C884 1.384 . S
C886 C887 1.372 . S
C887 C886 1.372 . S
C887 C888 1.400 . S
C887 C892 1.490 . S
C888 H878 0.930 . S
C888 C887 1.400 . S
C888 C891 1.386 . S
H889 C905 0.930 . S
H890 C906 0.931 . S
C891 H879 0.929 . S
C891 C885 1.390 . S
C891 C888 1.386 . S
C892 C887 1.490 . S
C892 C894 1.395 . S
C892 C895 1.403 . S
H893 C899 0.918 1_545 S
C894 H880 0.930 . S
C894 C892 1.395 . S
C894 C897 1.403 . S
C895 C892 1.403 . S
C895 C896 1.524 . S
C895 C899 1.400 . S
C896 H881 0.960 . S
C896 H882 0.960 . S
C896 H883 0.960 . S
C896 C895 1.524 . S
C897 C894 1.403 . S
C897 C898 1.392 1_565 S
C897 C901 1.495 1_565 S
C898 C897 1.392 1_545 S
C898 C899 1.385 1_545 S
C898 C900 1.478 . S
C899 H893 0.918 1_565 S
C899 C895 1.400 . S
C899 C898 1.385 1_565 S
C900 C898 1.478 . S
C900 C902 1.381 . S
C900 C906 1.383 . S
C901 C897 1.495 1_545 S
C901 H907 0.959 1_545 S
C901 H908 0.961 . S
C901 H909 0.960 . S
C902 C900 1.381 . S
C902 C903 1.394 . S
C902 H910 0.930 . S
C903 C902 1.394 . S
C903 C904 1.383 . S
C903 H911 0.929 . S
C904 C903 1.383 . S
C904 C905 1.377 . S
C905 H889 0.930 . S
C905 C904 1.377 . S
C905 C906 1.379 . S
C906 H890 0.931 . S
C906 C900 1.383 . S
C906 C905 1.379 . S
H907 C901 0.959 1_565 S
H908 C901 0.961 . S
H909 C901 0.960 . S
H910 C902 0.930 . S
H911 C903 0.929 . S
H912 C920 0.929 . S
H913 C922 0.930 . S
H914 C924 0.930 . S
H915 C927 0.929 . S
H916 C930 0.930 . S
H917 C932 0.960 . S
H918 C932 0.960 . S
H919 C932 0.960 . S
C920 H912 0.929 . S
C920 C921 1.377 . S
C920 C922 1.384 . S
C921 C920 1.377 . S
C921 C927 1.390 . S
C922 H913 0.930 . S
C922 C920 1.384 . S
C922 C923 1.372 . S
C923 C922 1.372 . S
C923 C924 1.400 . S
C923 C928 1.490 . S
C924 H914 0.930 . S
C924 C923 1.400 . S
C924 C927 1.386 . S
H925 C941 0.930 . S
H926 C942 0.931 . S
C927 H915 0.929 . S
C927 C921 1.390 . S
C927 C924 1.386 . S
C928 C923 1.490 . S
C928 C930 1.395 . S
C928 C931 1.403 . S
H929 C935 0.930 . S
C930 H916 0.930 . S
C930 C928 1.395 . S
C930 C933 1.403 . S
C931 C928 1.403 . S
C931 C932 1.524 . S
C931 C935 1.400 . S
C932 H917 0.960 . S
C932 H918 0.960 . S
C932 H919 0.960 . S
C932 C931 1.524 . S
C933 C930 1.403 . S
C933 C934 1.392 . S
C933 C937 1.495 . S
C934 C933 1.392 . S
C934 C935 1.385 . S
C934 C936 1.478 . S
C935 H929 0.930 . S
C935 C931 1.400 . S
C935 C934 1.385 . S
C936 C934 1.478 . S
C936 C938 1.381 . S
C936 C942 1.383 . S
C937 C933 1.495 . S
C937 H943 0.959 . S
C937 H944 0.961 . S
C937 H945 0.960 . S
C938 C936 1.381 . S
C938 C939 1.394 . S
C938 H946 0.930 . S
C939 C938 1.394 . S
C939 C940 1.383 . S
C939 H947 0.929 . S
C940 C939 1.383 . S
C940 C941 1.377 . S
C941 H925 0.930 . S
C941 C940 1.377 . S
C941 C942 1.379 . S
C942 H926 0.931 . S
C942 C936 1.383 . S
C942 C941 1.379 . S
H943 C937 0.959 . S
H944 C937 0.961 . S
H945 C937 0.960 . S
H946 C938 0.930 . S
H947 C939 0.929 . S
H948 C956 0.929 . S
H949 C958 0.930 . S
H950 C960 0.930 . S
H951 C963 0.929 . S
H952 C966 0.930 . S
H953 C968 0.960 1_655 S
H954 C968 0.960 . S
H955 C968 0.960 . S
C956 H948 0.929 . S
C956 C957 1.377 . S
C956 C958 1.384 . S
C957 C956 1.377 . S
C957 C963 1.390 . S
C958 H949 0.930 . S
C958 C956 1.384 . S
C958 C959 1.372 . S
C959 C958 1.372 . S
C959 C960 1.400 . S
C959 C964 1.490 . S
C960 H950 0.930 . S
C960 C959 1.400 . S
C960 C963 1.386 . S
H961 C977 0.930 . S
H962 C978 0.931 . S
C963 H951 0.929 . S
C963 C957 1.390 . S
C963 C960 1.386 . S
C964 C959 1.490 . S
C964 C966 1.395 . S
C964 C967 1.403 . S
H965 C971 0.930 . S
C966 H952 0.930 . S
C966 C964 1.395 . S
C966 C969 1.403 . S
C967 C964 1.403 . S
C967 C968 1.524 . S
C967 C971 1.400 1_455 S
C968 H953 0.960 1_455 S
C968 H954 0.960 . S
C968 H955 0.960 . S
C968 C967 1.524 . S
C969 C966 1.403 . S
C969 C970 1.392 1_455 S
C969 C973 1.495 . S
C970 C969 1.392 1_655 S
C970 C971 1.385 . S
C970 C972 1.478 . S
C971 H965 0.930 . S
C971 C967 1.400 1_655 S
C971 C970 1.385 . S
C972 C970 1.478 . S
C972 C974 1.381 . S
C972 C978 1.383 . S
C973 C969 1.495 . S
C973 H979 0.959 . S
C973 H980 0.961 . S
C973 H981 0.960 . S
C974 C972 1.381 . S
C974 C975 1.394 . S
C974 H982 0.930 . S
C975 C974 1.394 . S
C975 C976 1.383 . S
C975 H983 0.929 . S
C976 C975 1.383 . S
C976 C977 1.377 . S
C977 H961 0.930 . S
C977 C976 1.377 . S
C977 C978 1.379 . S
C978 H962 0.931 . S
C978 C972 1.383 . S
C978 C977 1.379 . S
H979 C973 0.959 . S
H980 C973 0.961 . S
H981 C973 0.960 . S
H982 C974 0.930 . S
H983 C975 0.929 . S
H984 C992 0.929 . S
H985 C994 0.930 . S
H986 C996 0.930 . S
H987 C999 0.929 . S
H988 C1002 0.930 . S
H989 C1004 0.960 . S
H990 C1004 0.960 . S
H991 C1004 0.960 . S
C992 H984 0.929 . S
C992 C993 1.377 . S
C992 C994 1.384 . S
C993 C992 1.377 . S
C993 C999 1.390 . S
C994 H985 0.930 . S
C994 C992 1.384 . S
C994 C995 1.372 . S
C995 C994 1.372 . S
C995 C996 1.400 . S
C995 C1000 1.490 . S
C996 H986 0.930 . S
C996 C995 1.400 . S
C996 C999 1.386 . S
H997 C1013 0.930 . S
H998 C1014 0.931 . S
C999 H987 0.929 . S
C999 C993 1.390 . S
C999 C996 1.386 . S
C1000 C995 1.490 . S
C1000 C1002 1.395 . S
C1000 C1003 1.403 1_565 S
H1001 C1007 0.930 . S
C1002 H988 0.930 . S
C1002 C1000 1.395 . S
C1002 C1005 1.403 1_565 S
C1003 C1000 1.403 1_545 S
C1003 C1004 1.524 . S
C1003 C1007 1.400 . S
C1004 H989 0.960 . S
C1004 H990 0.960 . S
C1004 H991 0.960 . S
C1004 C1003 1.524 . S
C1005 C1002 1.403 1_545 S
C1005 C1006 1.392 . S
C1005 C1009 1.499 . S
C1006 C1005 1.392 . S
C1006 C1007 1.385 . S
C1006 C1008 1.478 . S
C1007 H1001 0.930 . S
C1007 C1003 1.400 . S
C1007 C1006 1.385 . S
C1008 C1006 1.478 . S
C1008 C1010 1.381 . S
C1008 C1014 1.383 . S
C1009 C1005 1.499 . S
C1009 H1015 0.950 1_545 S
C1009 H1016 0.967 . S
C1009 H1017 0.960 . S
C1010 C1008 1.381 . S
C1010 C1011 1.394 . S
C1010 H1018 0.930 . S
C1011 C1010 1.394 . S
C1011 C1012 1.383 . S
C1011 H1019 0.929 . S
C1012 C1011 1.383 . S
C1012 C1013 1.377 . S
C1013 H997 0.930 . S
C1013 C1012 1.377 . S
C1013 C1014 1.379 . S
C1014 H998 0.931 . S
C1014 C1008 1.383 . S
C1014 C1013 1.379 . S
H1015 C1009 0.950 1_565 S
H1016 C1009 0.967 . S
H1017 C1009 0.960 . S
H1018 C1010 0.930 . S
H1019 C1011 0.929 . S
C165 C108 1.165 . S
C184 C4 1.154 . S
C201 C17 1.162 . S
C220 C127 1.166 . S
C237 C30 1.162 . S
C256 C140 1.164 . S
C273 C49 1.162 . S
C292 C153 1.165 . S
C309 C88 1.163 . S
C328 C56 1.169 . S
C345 C69 1.162 . S
C364 C95 1.164 . S
C381 C120 0.852 . S
C400 C5 0.832 . S
C417 C18 0.851 . S
C436 C133 0.854 . S
C453 C146 0.851 . S
C472 C31 0.835 . S
C489 C42 0.847 . S
C508 C81 0.866 . S
C525 C96 0.846 . S
C544 C57 0.862 . S
C561 C109 0.853 . S
C580 C70 0.847 . S
C597 C3 1.578 . S
C616 C75 1.570 . S
C633 C16 1.577 . S
C652 C10 1.570 . S
C669 C23 1.587 . S
C688 C29 1.582 . S
C705 C44 1.579 . S
C724 C36 1.575 . S
C741 C55 1.579 . S
C760 C43 1.574 . S
C777 C68 1.576 . S
C796 C62 1.579 . S
C813 C83 1.576 . S
C832 C101 1.573 . S
C849 C94 1.578 . S
C868 C114 1.572 . S
C885 C107 1.581 . S
C904 C121 1.586 . S
C921 C122 1.581 . S
C940 C134 1.591 . S
C957 C135 1.577 . S
C976 C147 1.587 . S
C993 C82 1.585 . S
C1012 C148 1.563 . S
