# Generated by pormake.
# Topology sra, (4)-cn, num edge types: 1
# Building blocks:
#     Node 0, Type 0, BuildingBlock: KUFVIS_clean_sbu_0, # of connection points: 4
#     Node 1, Type 0, BuildingBlock: KUFVIS_clean_sbu_0, # of connection points: 4
#     Node 2, Type 0, BuildingBlock: KUFVIS_clean_sbu_0, # of connection points: 4
#     Node 3, Type 0, BuildingBlock: KUFVIS_clean_sbu_0, # of connection points: 4
#     Node 4, Type 0, BuildingBlock: KUFVIS_clean_sbu_0, # of connection points: 4
#     Node 5, Type 0, BuildingBlock: KUFVIS_clean_sbu_0, # of connection points: 4
#     Node 6, Type 0, BuildingBlock: KUFVIS_clean_sbu_0, # of connection points: 4
#     Node 7, Type 0, BuildingBlock: KUFVIS_clean_sbu_0, # of connection points: 4
#     Edge 8, Type (0, 0), BuildingBlock: FUNLAD_clean_linker_0, # of connection points: 2
#     Edge 9, Type (0, 0), BuildingBlock: FUNLAD_clean_linker_0, # of connection points: 2
#     Edge 10, Type (0, 0), BuildingBlock: FUNLAD_clean_linker_0, # of connection points: 2
#     Edge 11, Type (0, 0), BuildingBlock: FUNLAD_clean_linker_0, # of connection points: 2
#     Edge 12, Type (0, 0), BuildingBlock: FUNLAD_clean_linker_0, # of connection points: 2
#     Edge 13, Type (0, 0), BuildingBlock: FUNLAD_clean_linker_0, # of connection points: 2
#     Edge 14, Type (0, 0), BuildingBlock: FUNLAD_clean_linker_0, # of connection points: 2
#     Edge 15, Type (0, 0), BuildingBlock: FUNLAD_clean_linker_0, # of connection points: 2
#     Edge 16, Type (0, 0), BuildingBlock: FUNLAD_clean_linker_0, # of connection points: 2
#     Edge 17, Type (0, 0), BuildingBlock: FUNLAD_clean_linker_0, # of connection points: 2
#     Edge 18, Type (0, 0), BuildingBlock: FUNLAD_clean_linker_0, # of connection points: 2
#     Edge 19, Type (0, 0), BuildingBlock: FUNLAD_clean_linker_0, # of connection points: 2
#     Edge 20, Type (0, 0), BuildingBlock: FUNLAD_clean_linker_0, # of connection points: 2
#     Edge 21, Type (0, 0), BuildingBlock: FUNLAD_clean_linker_0, # of connection points: 2
#     Edge 22, Type (0, 0), BuildingBlock: FUNLAD_clean_linker_0, # of connection points: 2
#     Edge 23, Type (0, 0), BuildingBlock: FUNLAD_clean_linker_0, # of connection points: 2
# Relax obj value: 0.055
# Max RMSD: 0.085
# Mean RMSD: 0.085
data_MOF--net-sra--node1-KUFVIS_clean_sbu_0--edge1-FUNLAD_clean_linker_0
_symmetry_space_group_name_H-M    P1
_symmetry_Int_Tables_number       1
_symmetry_cell_setting            triclinic
loop_
_symmetry_equiv_pos_as_xyz
'x, y, z'
_cell_length_a     31.000715
_cell_length_b     61.198001
_cell_length_c     38.653561
_cell_angle_alpha  89.933923
_cell_angle_beta   90.014016
_cell_angle_gamma 90.014448
loop_
_atom_site_label
_atom_site_type_symbol
_atom_site_fract_x
_atom_site_fract_y
_atom_site_fract_z
_atom_type_partial_charge
Mn0 Mn -0.00131 0.11448 0.15276 0.0
Mn1 Mn -0.00335 0.068 0.1997 0.0
C2 C 0.9341 0.10106 0.17365 0.0
C3 C 0.00574 0.15247 0.15147 0.0
C4 C 0.00896 0.06902 0.1216 0.0
O5 O 0.06143 0.11041 0.16706 0.0
O6 O 0.05478 0.08145 0.2029 0.0
C7 C 0.00747 0.08662 0.26984 0.0
N8 N 0.98423 0.0744 0.24706 0.0
C9 C 0.9304 0.0666 0.2902 0.0
C10 C 0.954 0.07892 0.31421 0.0
C11 C 0.99264 0.08902 0.30394 0.0
C12 C 0.94692 0.06467 0.25662 0.0
H13 H 0.03699 0.09457 0.26199 0.0
C14 C 0.0768 0.09689 0.18907 0.0
O15 O 0.01312 0.14078 0.12404 0.0
O16 O 0.99532 0.14203 0.17941 0.0
N17 N 0.94166 0.05373 0.19913 0.0
C18 C 0.92138 0.0436 0.17228 0.0
C19 C 0.88149 0.03331 0.17792 0.0
C20 C 0.86298 0.03346 0.21108 0.0
C21 C 0.88458 0.04386 0.23835 0.0
C22 C 0.92443 0.05367 0.23126 0.0
H23 H 0.9354 0.04345 0.14673 0.0
O24 O 0.9343 0.11461 0.1478 0.0
O25 O 0.97148 0.09592 0.1862 0.0
O26 O 0.00411 0.0896 0.11756 0.0
O27 O 0.00845 0.05966 0.15119 0.0
C28 C 0.86774 0.04523 0.27213 0.0
C29 C 0.89061 0.05661 0.29803 0.0
H30 H 0.9425 0.08094 0.34047 0.0
H31 H 0.01086 0.0987 0.32225 0.0
H32 H 0.86498 0.02535 0.15673 0.0
H33 H 0.832 0.02569 0.21525 0.0
H34 H 0.8369 0.03789 0.27835 0.0
H35 H 0.87699 0.05786 0.32375 0.0
Mn36 Mn 0.01885 0.39298 0.1523 0.0
Mn37 Mn 0.02918 0.43625 0.20573 0.0
C38 C 0.08643 0.40468 0.16914 0.0
C39 C 0.01054 0.35534 0.14504 0.0
C40 C 0.00808 0.44055 0.12927 0.0
O41 O 0.95865 0.39619 0.17261 0.0
O42 O 0.97009 0.4238 0.21008 0.0
C43 C 0.02293 0.41298 0.27273 0.0
N44 N 0.04522 0.42626 0.25081 0.0
C45 C 0.10374 0.42959 0.29141 0.0
C46 C 0.08126 0.41606 0.31451 0.0
C47 C 0.04072 0.4077 0.3051 0.0
C48 C 0.08426 0.4344 0.2596 0.0
H49 H 0.99187 0.40641 0.26553 0.0
C50 C 0.94593 0.40914 0.1964 0.0
O51 O -0.0005 0.36894 0.12075 0.0
O52 O 0.02508 0.36368 0.17354 0.0
N53 N 0.08506 0.44958 0.20438 0.0
C54 C 0.10353 0.46144 0.17845 0.0
C55 C 0.14467 0.47053 0.18339 0.0
C56 C 0.16631 0.46742 0.21494 0.0
C57 C 0.1465 0.45533 0.24137 0.0
C58 C 0.10526 0.44686 0.23509 0.0
H59 H 0.08712 0.46384 0.1541 0.0
O60 O 0.08193 0.393 0.14138 0.0
O61 O 0.05132 0.40907 0.18604 0.0
O62 O 0.00951 0.42018 0.1221 0.0
O63 O 0.01394 0.4481 0.15974 0.0
C64 C 0.16641 0.451 0.27342 0.0
C65 C 0.14508 0.43811 0.2984 0.0
H66 H 0.095 0.41183 0.3394 0.0
H67 H 0.02329 0.39715 0.32271 0.0
H68 H 0.15978 0.47981 0.16285 0.0
H69 H 0.19826 0.47423 0.2185 0.0
H70 H 0.19841 0.45721 0.27891 0.0
H71 H 0.161 0.43461 0.32273 0.0
Mn72 Mn -0.00383 0.88787 0.85334 0.0
Mn73 Mn 0.98761 0.93289 0.80318 0.0
C74 C 0.92973 0.89895 0.83262 0.0
C75 C 0.00564 0.85021 0.85908 0.0
C76 C 0.0017 0.93468 0.88085 0.0
O77 O 0.05791 0.89258 0.83669 0.0
O78 O 0.04738 0.92141 0.80122 0.0
C79 C 0.00163 0.91258 0.73459 0.0
N80 N 0.97644 0.92452 0.75638 0.0
C81 C 0.92204 0.92904 0.71252 0.0
C82 C 0.94751 0.91689 0.68956 0.0
C83 C 0.98744 0.90859 0.70068 0.0
C84 C 0.93795 0.93256 0.74596 0.0
H85 H 0.03227 0.9061 0.74305 0.0
C86 C 0.07138 0.90656 0.81456 0.0
O87 O 0.01379 0.86338 0.88459 0.0
O88 O 0.99366 0.85902 0.83011 0.0
N89 N 0.93083 0.94521 0.80244 0.0
C90 C 0.90912 0.95555 0.82832 0.0
C91 C 0.86805 0.9643 0.82171 0.0
C92 C 0.84984 0.96242 0.78857 0.0
C93 C 0.87292 0.95184 0.76228 0.0
C94 C 0.91386 0.94359 0.77032 0.0
H95 H 0.92292 0.95704 0.85385 0.0
O96 O 0.93202 0.88665 0.85993 0.0
O97 O 0.96617 0.90455 0.81883 0.0
O98 O 0.001 0.91408 0.88604 0.0
O99 O -0.00206 0.94328 0.85087 0.0
C100 C 0.85658 0.9488 0.72861 0.0
C101 C 0.8811 0.93739 0.70376 0.0
H102 H 0.93658 0.91367 0.66344 0.0
H103 H 0.00718 0.89911 0.68316 0.0
H104 H 0.8504 0.97241 0.84216 0.0
H105 H 0.81798 0.969 0.78367 0.0
H106 H 0.82492 0.9549 0.7217 0.0
H107 H 0.86792 0.93488 0.67812 0.0
Mn108 Mn 0.02369 0.60964 0.84649 0.0
Mn109 Mn 0.03308 0.56522 0.79561 0.0
C110 C 0.09101 0.5981 0.8289 0.0
C111 C 0.0136 0.64743 0.84942 0.0
C112 C 0.01492 0.56285 0.87298 0.0
O113 O 0.96268 0.60488 0.82884 0.0
O114 O 0.97372 0.5774 0.79106 0.0
C115 C 0.02546 0.58674 0.72725 0.0
N116 N 0.04822 0.57404 0.74974 0.0
C117 C 0.10624 0.56999 0.70887 0.0
C118 C 0.08324 0.58286 0.68518 0.0
C119 C 0.04271 0.59129 0.69444 0.0
C120 C 0.08726 0.56585 0.7411 0.0
H121 H 0.99447 0.59341 0.73438 0.0
C122 C 0.94955 0.59176 0.80545 0.0
O123 O 0.00485 0.63501 0.87585 0.0
O124 O 0.0272 0.63781 0.82172 0.0
N125 N 0.0891 0.55206 0.79722 0.0
C126 C 0.10815 0.54095 0.8237 0.0
C127 C 0.14939 0.53195 0.81897 0.0
C128 C 0.17054 0.53438 0.78707 0.0
C129 C 0.15014 0.5457 0.76009 0.0
C130 C 0.10881 0.5541 0.76618 0.0
H131 H 0.09214 0.53908 0.84833 0.0
O132 O 0.08716 0.61084 0.8555 0.0
O133 O 0.05541 0.59282 0.81331 0.0
O134 O 0.01723 0.58335 0.87923 0.0
O135 O 0.01882 0.55473 0.84263 0.0
C136 C 0.16957 0.54937 0.72765 0.0
C137 C 0.14766 0.56153 0.70207 0.0
H138 H 0.09658 0.58656 0.65994 0.0
H139 H 0.0249 0.60137 0.67638 0.0
H140 H 0.16494 0.52325 0.83994 0.0
H141 H 0.20257 0.52765 0.78366 0.0
H142 H 0.20162 0.5432 0.72228 0.0
H143 H 0.1632 0.56453 0.67743 0.0
Mn144 Mn 0.50241 0.61714 0.65298 0.0
Mn145 Mn 0.49276 0.57033 0.69862 0.0
C146 C 0.4353 0.60554 0.67103 0.0
C147 C 0.51458 0.65475 0.65289 0.0
C148 C 0.50692 0.57163 0.62077 0.0
O149 O 0.56392 0.61085 0.66823 0.0
O150 O 0.55295 0.58148 0.70238 0.0
C151 C 0.5054 0.58839 0.76892 0.0
N152 N 0.48078 0.57704 0.74594 0.0
C153 C 0.42539 0.57125 0.7886 0.0
C154 C 0.45033 0.58271 0.8128 0.0
C155 C 0.49046 0.59135 0.80289 0.0
C156 C 0.44206 0.5687 0.75518 0.0
H157 H 0.53613 0.59519 0.76134 0.0
C158 C 0.5773 0.59629 0.68933 0.0
O159 O 0.52118 0.64312 0.62527 0.0
O160 O 0.50182 0.64447 0.68035 0.0
N161 N 0.43609 0.55787 0.69768 0.0
C162 C 0.41508 0.54815 0.67081 0.0
C163 C 0.37402 0.53907 0.67622 0.0
C164 C 0.35507 0.53997 0.7092 0.0
C165 C 0.3775 0.54983 0.73654 0.0
C166 C 0.41854 0.55839 0.72969 0.0
H167 H 0.42937 0.54746 0.64538 0.0
O168 O 0.43876 0.61951 0.64594 0.0
O169 O 0.47115 0.59913 0.68518 0.0
O170 O 0.50598 0.5924 0.61732 0.0
O171 O 0.50369 0.56195 0.65001 0.0
C172 C 0.36039 0.55189 0.77014 0.0
C173 C 0.38427 0.56263 0.79613 0.0
H174 H 0.43881 0.58516 0.83897 0.0
H175 H 0.50977 0.60034 0.82136 0.0
H176 H 0.3569 0.5315 0.65498 0.0
H177 H 0.32318 0.53319 0.71317 0.0
H178 H 0.32861 0.54557 0.77614 0.0
H179 H 0.3705 0.5644 0.82173 0.0
Mn180 Mn 0.51437 0.89417 0.65692 0.0
Mn181 Mn 0.52691 0.93969 0.70523 0.0
C182 C 0.58153 0.90382 0.67773 0.0
C183 C 0.50113 0.85675 0.65224 0.0
C184 C 0.51343 0.94066 0.6275 0.0
O185 O 0.4531 0.90068 0.67299 0.0
O186 O 0.46588 0.92996 0.70708 0.0
C187 C 0.51011 0.92085 0.77451 0.0
N188 N 0.53674 0.93176 0.75243 0.0
C189 C 0.5913 0.9353 0.79638 0.0
C190 C 0.56435 0.92421 0.81965 0.0
C191 C 0.52362 0.91692 0.80864 0.0
C192 C 0.57601 0.93883 0.76274 0.0
H193 H 0.47885 0.91514 0.76612 0.0
C194 C 0.44069 0.9155 0.69406 0.0
O195 O 0.49485 0.86987 0.62628 0.0
O196 O 0.51353 0.86551 0.68111 0.0
N197 N 0.58493 0.95043 0.70584 0.0
C198 C 0.60798 0.95972 0.67965 0.0
C199 C 0.64996 0.96732 0.68611 0.0
C200 C 0.66772 0.96539 0.71941 0.0
C201 C 0.64327 0.95591 0.746 0.0
C202 C 0.60148 0.9488 0.7381 0.0
H203 H 0.59454 0.96121 0.65399 0.0
O204 O 0.57832 0.89124 0.65084 0.0
O205 O 0.54555 0.91055 0.69103 0.0
O206 O 0.51234 0.92 0.62321 0.0
O207 O 0.51804 0.94964 0.65709 0.0
C208 C 0.65904 0.95286 0.77985 0.0
C209 C 0.63309 0.94254 0.80502 0.0
H210 H 0.57476 0.92102 0.84593 0.0
H211 H 0.50274 0.90825 0.8264 0.0
H212 H 0.66866 0.97458 0.66544 0.0
H213 H 0.70028 0.97107 0.7242 0.0
H214 H 0.69133 0.95809 0.78667 0.0
H215 H 0.64582 0.93999 0.8308 0.0
Mn216 Mn 0.49832 0.39399 0.346 0.0
Mn217 Mn 0.48407 0.43941 0.29758 0.0
C218 C 0.42994 0.40456 0.32943 0.0
C219 C 0.51011 0.35642 0.35034 0.0
C220 C 0.50226 0.4407 0.37459 0.0
O221 O 0.55846 0.39962 0.32694 0.0
O222 O 0.54505 0.42943 0.29432 0.0
C223 C 0.4974 0.41949 0.22865 0.0
N224 N 0.47208 0.43095 0.25097 0.0
C225 C 0.41564 0.4341 0.20847 0.0
C226 C 0.44125 0.42245 0.18496 0.0
C227 C 0.48227 0.41509 0.19512 0.0
C228 C 0.43253 0.43809 0.24147 0.0
H229 H 0.52885 0.41369 0.2364 0.0
C230 C 0.57046 0.41466 0.30614 0.0
O231 O 0.51946 0.36949 0.37573 0.0
O232 O 0.49545 0.3653 0.32223 0.0
N233 N 0.42645 0.45069 0.29804 0.0
C234 C 0.40501 0.46081 0.3243 0.0
C235 C 0.36311 0.46876 0.3186 0.0
C236 C 0.34378 0.46634 0.28595 0.0
C237 C 0.36666 0.4561 0.25921 0.0
C238 C 0.4085 0.4487 0.26632 0.0
H239 H 0.41962 0.46264 0.34948 0.0
O240 O 0.43521 0.39193 0.35607 0.0
O241 O 0.46477 0.41062 0.3134 0.0
O242 O 0.50446 0.42004 0.37897 0.0
O243 O 0.49499 0.44962 0.34526 0.0
C244 C 0.34928 0.45256 0.226 0.0
C245 C 0.37371 0.44153 0.20067 0.0
H246 H 0.4296 0.41891 0.15914 0.0
H247 H 0.50213 0.40599 0.17718 0.0
H248 H 0.34564 0.47662 0.33938 0.0
H249 H 0.31126 0.47226 0.28177 0.0
H250 H 0.3169 0.45797 0.21983 0.0
H251 H 0.35976 0.43863 0.1754 0.0
Mn252 Mn 0.52208 0.11532 0.34574 0.0
Mn253 Mn 0.52354 0.06799 0.30108 0.0
C254 C 0.58629 0.10174 0.32449 0.0
C255 C 0.51456 0.15328 0.34541 0.0
C256 C 0.51371 0.07036 0.37932 0.0
O257 O 0.45907 0.11081 0.33272 0.0
O258 O 0.46507 0.08113 0.29845 0.0
C259 C 0.51014 0.08538 0.23037 0.0
N260 N 0.5343 0.07363 0.2532 0.0
C261 C 0.58685 0.06534 0.20932 0.0
C262 C 0.56229 0.07715 0.18526 0.0
C263 C 0.52382 0.08726 0.19587 0.0
C264 C 0.57145 0.0639 0.2433 0.0
H265 H 0.48075 0.09333 0.23846 0.0
C266 C 0.44324 0.0968 0.31178 0.0
O267 O 0.50803 0.14202 0.37347 0.0
O268 O 0.5244 0.14243 0.31778 0.0
N269 N 0.57876 0.05396 0.30115 0.0
C270 C 0.60006 0.04435 0.328 0.0
C271 C 0.6399 0.03412 0.32198 0.0
C272 C 0.65733 0.03379 0.28845 0.0
C273 C 0.63469 0.04365 0.26119 0.0
C274 C 0.59493 0.05342 0.26867 0.0
H275 H 0.5869 0.04457 0.35384 0.0
O276 O 0.58654 0.11574 0.34967 0.0
O277 O 0.54869 0.09625 0.31272 0.0
O278 O 0.51794 0.09105 0.3822 0.0
O279 O 0.51358 0.06046 0.35021 0.0
C280 C 0.65042 0.04453 0.22702 0.0
C281 C 0.62654 0.05539 0.20111 0.0
H282 H 0.5729 0.07878 0.15868 0.0
H283 H 0.50486 0.09655 0.17752 0.0
H284 H 0.65722 0.02658 0.34317 0.0
H285 H 0.68828 0.02608 0.28399 0.0
H286 H 0.68115 0.0372 0.2205 0.0
H287 H 0.6393 0.05625 0.17506 0.0
C288 C 0.02721 0.31768 0.16565 0.0
C289 C 0.00876 0.33134 0.14046 0.0
C290 C 0.02708 0.29504 0.16158 0.0
C291 C 0.00773 0.28536 0.13242 0.0
C292 C 0.98982 0.29904 0.10693 0.0
C293 C 0.99025 0.32182 0.1109 0.0
C294 C 0.00672 0.26117 0.12773 0.0
C295 C 0.0082 0.24718 0.15472 0.0
C296 C 0.00761 0.22291 0.15207 0.0
C297 C -0.00055 0.21093 0.18235 0.0
C298 C -0.00072 0.18816 0.18198 0.0
C299 C 0.00748 0.17665 0.15127 0.0
H300 H 0.02373 0.21997 0.09745 0.0
C301 C 0.01612 0.1885 0.12086 0.0
C302 C 0.01628 0.21144 0.12122 0.0
H303 H 0.02268 0.18007 0.09681 0.0
H304 H 0.04246 0.32447 0.18845 0.0
H305 H 0.04297 0.28531 0.18117 0.0
H306 H 0.97517 0.29208 0.084 0.0
H307 H 0.97611 0.33194 0.09089 0.0
H308 H 0.00286 0.25496 0.10164 0.0
H309 H 0.0082 0.25379 0.18077 0.0
H310 H 0.993 0.21923 0.20656 0.0
H311 H 0.99253 0.1796 0.20592 0.0
C312 C 0.99001 0.81279 0.83696 0.0
C313 C 0.00712 0.82617 0.86306 0.0
C314 C 0.98925 0.79013 0.84077 0.0
C315 C 0.00647 0.78014 0.87058 0.0
C316 C 0.02314 0.79354 0.89691 0.0
C317 C 0.02349 0.81634 0.89321 0.0
C318 C 0.0068 0.75591 0.87506 0.0
C319 C 0.00622 0.74207 0.84791 0.0
C320 C 0.00731 0.71779 0.85022 0.0
C321 C 0.01641 0.70619 0.81981 0.0
C322 C 0.0178 0.68346 0.8198 0.0
C323 C 0.00989 0.67155 0.85023 0.0
H324 H 0.99058 0.71418 0.90463 0.0
C325 C 3e-05 0.68298 0.88075 0.0
C326 C -0.0013 0.70594 0.88078 0.0
H327 H 0.99367 0.67423 0.90458 0.0
H328 H 0.97632 0.81984 0.8137 0.0
H329 H 0.97432 0.78064 0.82046 0.0
H330 H 0.03618 0.78636 0.92031 0.0
H331 H 0.03651 0.82625 0.91394 0.0
H332 H 0.0097 0.74953 0.90115 0.0
H333 H 0.00704 0.74883 0.82196 0.0
H334 H 0.02284 0.71476 0.7958 0.0
H335 H 0.02536 0.67523 0.79575 0.0
C336 C 0.51846 0.69107 0.62259 0.0
C337 C 0.51945 0.67878 0.65331 0.0
C338 C 0.51924 0.71398 0.6238 0.0
C339 C 0.52153 0.7249 0.65581 0.0
C340 C 0.52423 0.7125 0.68628 0.0
C341 C 0.52273 0.68973 0.6851 0.0
C342 C 0.5217 0.7491 0.65884 0.0
C343 C 0.50154 0.76259 0.63648 0.0
C344 C 0.49952 0.78674 0.64136 0.0
C345 C 0.49239 0.80026 0.61252 0.0
C346 C 0.49158 0.82303 0.61606 0.0
C347 C 0.49765 0.83274 0.64863 0.0
H348 H 0.50724 0.78679 0.69738 0.0
C349 C 0.50305 0.81922 0.67769 0.0
C350 C 0.5037 0.79651 0.67418 0.0
H351 H 0.50725 0.82618 0.70322 0.0
H352 H 0.51601 0.68303 0.59772 0.0
H353 H 0.51832 0.72301 0.59973 0.0
H354 H 0.52647 0.72047 0.71123 0.0
H355 H 0.52385 0.68071 0.70921 0.0
H356 H 0.5376 0.7558 0.68147 0.0
H357 H 0.48595 0.75586 0.6137 0.0
H358 H 0.48836 0.7932 0.58702 0.0
H359 H 0.48722 0.83301 0.59317 0.0
C360 C 0.49661 0.31893 0.32745 0.0
C361 C 0.5132 0.33238 0.35369 0.0
C362 C 0.49686 0.29623 0.33099 0.0
C363 C 0.51446 0.28631 0.36072 0.0
C364 C 0.53099 0.29979 0.38701 0.0
C365 C 0.53042 0.32259 0.38355 0.0
C366 C 0.5148 0.26211 0.36553 0.0
C367 C 0.51252 0.24795 0.33886 0.0
C368 C 0.51264 0.22369 0.34221 0.0
C369 C 0.52037 0.21133 0.31228 0.0
C370 C 0.52047 0.18856 0.31346 0.0
C371 C 0.51263 0.17745 0.34465 0.0
H372 H 0.49694 0.22141 0.39701 0.0
C373 C 0.50428 0.18968 0.37466 0.0
C374 C 0.50416 0.2126 0.37349 0.0
H375 H 0.49795 0.18157 0.39906 0.0
H376 H 0.48244 0.32594 0.30434 0.0
H377 H 0.48218 0.28669 0.31063 0.0
H378 H 0.54436 0.29267 0.41033 0.0
H379 H 0.54315 0.33252 0.40436 0.0
H380 H 0.51872 0.25599 0.39169 0.0
H381 H 0.51231 0.25431 0.31265 0.0
H382 H 0.52664 0.21932 0.28776 0.0
H383 H 0.52697 0.17968 0.2898 0.0
C384 C 0.38346 0.08881 0.2704 0.0
C385 C 0.3978 0.09919 0.30074 0.0
C386 C 0.34107 0.09132 0.2591 0.0
C387 C 0.31186 0.10413 0.27804 0.0
C388 C 0.32581 0.11423 0.30865 0.0
C389 C 0.36858 0.11203 0.31971 0.0
C390 C 0.26609 0.10582 0.26747 0.0
C391 C 0.25372 0.10562 0.23407 0.0
C392 C 0.2079 0.10426 0.22351 0.0
C393 C 0.19457 0.11376 0.19221 0.0
C394 C 0.15183 0.11165 0.181 0.0
C395 C 0.12202 0.0995 0.20055 0.0
H396 H 0.18755 0.08414 0.26684 0.0
C397 C 0.13566 0.08982 0.2317 0.0
C398 C 0.17803 0.09223 0.24311 0.0
H399 H 0.1136 0.08034 0.24743 0.0
H400 H 0.40504 0.07879 0.25514 0.0
H401 H 0.33101 0.08276 0.23596 0.0
H402 H 0.30365 0.12393 0.3239 0.0
H403 H 0.3786 0.12015 0.34326 0.0
H404 H 0.24202 0.10729 0.28777 0.0
H405 H 0.27787 0.10645 0.21373 0.0
H406 H 0.21723 0.12286 0.17646 0.0
H407 H 0.14236 0.11923 0.15683 0.0
C408 C 0.64325 0.39701 0.29905 0.0
C409 C 0.61603 0.41519 0.29456 0.0
C410 C 0.68596 0.39758 0.28727 0.0
C411 C 0.7023 0.41642 0.27096 0.0
C412 C 0.67533 0.43465 0.26706 0.0
C413 C 0.63264 0.434 0.27842 0.0
C414 C 0.74761 0.41807 0.25882 0.0
C415 C 0.77115 0.40082 0.2483 0.0
C416 C 0.81605 0.40313 0.23533 0.0
C417 C 0.83181 0.38823 0.21081 0.0
C418 C 0.8738 0.39021 0.19786 0.0
C419 C 0.90113 0.40702 0.20956 0.0
H420 H 0.83314 0.43107 0.26717 0.0
C421 C 0.88551 0.42166 0.23465 0.0
C422 C 0.84358 0.41972 0.24742 0.0
H423 H 0.9057 0.43465 0.24463 0.0
H424 H 0.63152 0.38228 0.31144 0.0
H425 H 0.70619 0.38343 0.29153 0.0
H426 H 0.68722 0.44943 0.25489 0.0
H427 H 0.61276 0.44837 0.27473 0.0
H428 H 0.76107 0.43441 0.25655 0.0
H429 H 0.75642 0.38473 0.24717 0.0
H430 H 0.8114 0.37517 0.20133 0.0
H431 H 0.88481 0.37852 0.17881 0.0
C432 C 0.13059 0.91963 0.77591 0.0
C433 C 0.1164 0.90513 0.8018 0.0
C434 C 0.17196 0.91793 0.76218 0.0
C435 C 0.20064 0.90186 0.77424 0.0
C436 C 0.18653 0.88719 0.79984 0.0
C437 C 0.14486 0.88885 0.81363 0.0
C438 C 0.2449 0.89985 0.75985 0.0
C439 C 0.26649 0.91718 0.74713 0.0
C440 C 0.31073 0.91605 0.73274 0.0
C441 C 0.33626 0.93494 0.73381 0.0
C442 C 0.3781 0.93478 0.72067 0.0
C443 C 0.39521 0.91579 0.70557 0.0
H444 H 0.30806 0.88241 0.71492 0.0
C445 C 0.36924 0.897 0.70347 0.0
C446 C 0.32736 0.89709 0.71706 0.0
H447 H 0.38153 0.88211 0.69199 0.0
H448 H 0.10952 0.93218 0.76566 0.0
H449 H 0.18089 0.92902 0.74157 0.0
H450 H 0.20787 0.87451 0.80932 0.0
H451 H 0.13488 0.87727 0.83328 0.0
H452 H 0.26063 0.88401 0.76132 0.0
H453 H 0.25222 0.93335 0.74904 0.0
H454 H 0.32404 0.94983 0.74535 0.0
H455 H 0.3971 0.9496 0.7225 0.0
C456 C 0.63679 0.58531 0.72962 0.0
C457 C 0.62327 0.59661 0.69982 0.0
C458 C 0.68002 0.58562 0.73978 0.0
C459 C 0.71079 0.59714 0.72023 0.0
C460 C 0.69749 0.60815 0.6902 0.0
C461 C 0.65409 0.60811 0.68028 0.0
C462 C 0.75714 0.59713 0.72983 0.0
C463 C 0.7707 0.59629 0.76291 0.0
C464 C 0.81696 0.59563 0.7727 0.0
C465 C 0.82989 0.6047 0.80437 0.0
C466 C 0.87303 0.60374 0.81483 0.0
C467 C 0.90399 0.59323 0.79411 0.0
H468 H 0.83884 0.57752 0.72771 0.0
C469 C 0.8909 0.58395 0.76253 0.0
C470 C 0.8479 0.5852 0.75186 0.0
H471 H 0.9139 0.57572 0.74596 0.0
H472 H 0.61394 0.57626 0.74526 0.0
H473 H 0.68935 0.57645 0.76255 0.0
H474 H 0.72069 0.61696 0.67452 0.0
H475 H 0.64482 0.61686 0.65707 0.0
H476 H 0.7806 0.59875 0.7091 0.0
H477 H 0.74718 0.59696 0.78373 0.0
H478 H 0.80657 0.61263 0.82103 0.0
H479 H 0.88195 0.61093 0.8394 0.0
C480 C 0.66067 0.91057 0.68343 0.0
C481 C 0.62144 0.90398 0.698 0.0
C482 C 0.69809 0.91087 0.70368 0.0
C483 C 0.6968 0.90393 0.7385 0.0
C484 C 0.65754 0.89675 0.75245 0.0
C485 C 0.6203 0.89661 0.73232 0.0
C486 C 0.73517 0.90421 0.76141 0.0
C487 C 0.77585 0.90325 0.74951 0.0
C488 C 0.81416 0.90186 0.7724 0.0
C489 C 0.85229 0.89317 0.75862 0.0
C490 C 0.88957 0.89207 0.77861 0.0
C491 C 0.88965 0.89995 0.81263 0.0
H492 H 0.7856 0.91653 0.81839 0.0
C493 C 0.85146 0.90799 0.8271 0.0
C494 C 0.81401 0.90926 0.80698 0.0
H495 H 0.85099 0.91393 0.85349 0.0
H496 H 0.66207 0.91609 0.65682 0.0
H497 H 0.72747 0.917 0.69214 0.0
H498 H 0.65558 0.89128 0.77908 0.0
H499 H 0.5904 0.89091 0.74372 0.0
H500 H 0.72929 0.90363 0.78907 0.0
H501 H 0.78153 0.90193 0.72188 0.0
H502 H 0.85336 0.88731 0.73219 0.0
H503 H 0.91861 0.88529 0.76731 0.0
C504 C 0.3867 0.60732 0.72173 0.0
C505 C 0.39311 0.60176 0.68699 0.0
C506 C 0.34622 0.60478 0.73695 0.0
C507 C 0.31132 0.59661 0.71752 0.0
C508 C 0.31765 0.59178 0.68234 0.0
C509 C 0.35817 0.59453 0.66709 0.0
C510 C 0.26738 0.59438 0.73237 0.0
C511 C 0.25947 0.59309 0.7666 0.0
C512 C 0.21536 0.59349 0.78156 0.0
C513 C 0.20914 0.58608 0.81564 0.0
C514 C 0.16845 0.58727 0.83114 0.0
C515 C 0.13329 0.59553 0.81252 0.0
H516 H 0.18366 0.60932 0.73787 0.0
C517 C 0.13952 0.6035 0.77893 0.0
C518 C 0.18011 0.6025 0.76352 0.0
H519 H 0.11303 0.6108 0.76474 0.0
H520 H 0.41299 0.61385 0.73705 0.0
H521 H 0.34247 0.60967 0.76364 0.0
H522 H 0.29117 0.58591 0.66659 0.0
H523 H 0.36237 0.59075 0.63993 0.0
H524 H 0.24074 0.59364 0.71418 0.0
H525 H 0.28616 0.59158 0.78462 0.0
H526 H 0.23587 0.57948 0.83038 0.0
H527 H 0.16436 0.58162 0.85751 0.0
C528 C 0.66305 0.08998 0.31963 0.0
C529 C 0.62549 0.09813 0.30423 0.0
C530 C 0.70032 0.08708 0.29979 0.0
C531 C 0.70073 0.09299 0.2645 0.0
C532 C 0.66303 0.10138 0.2495 0.0
C533 C 0.62589 0.10412 0.26925 0.0
C534 C 0.73973 0.09114 0.24249 0.0
C535 C 0.78004 0.09157 0.2553 0.0
C536 C 0.81905 0.09326 0.23328 0.0
C537 C 0.85646 0.10218 0.24798 0.0
C538 C 0.89374 0.10465 0.22831 0.0
C539 C 0.8946 0.09787 0.19373 0.0
H540 H 0.79207 0.07918 0.18623 0.0
C541 C 0.85731 0.08924 0.17857 0.0
C542 C 0.81987 0.08662 0.19834 0.0
H543 H 0.85745 0.08413 0.15174 0.0
H544 H 0.66326 0.08547 0.34674 0.0
H545 H 0.72835 0.08002 0.31216 0.0
H546 H 0.6624 0.1061 0.22247 0.0
H547 H 0.59737 0.11097 0.25717 0.0
H548 H 0.73482 0.09167 0.2147 0.0
H549 H 0.78484 0.09291 0.28303 0.0
H550 H 0.85678 0.10747 0.27473 0.0
H551 H 0.92204 0.11186 0.24018 0.0
C552 C 0.16395 0.41564 0.16702 0.0
C553 C 0.12907 0.4067 0.18519 0.0
C554 C 0.20457 0.41693 0.18267 0.0
C555 C 0.21093 0.40899 0.21644 0.0
C556 C 0.17614 0.39909 0.23383 0.0
C557 C 0.13565 0.39797 0.21828 0.0
C558 C 0.25463 0.4101 0.23203 0.0
C559 C 0.2617 0.4093 0.26643 0.0
C560 C 0.30542 0.40837 0.282 0.0
C561 C 0.31085 0.41449 0.31678 0.0
C562 C 0.35145 0.41332 0.33246 0.0
C563 C 0.38725 0.40633 0.31337 0.0
H564 H 0.33816 0.39452 0.23726 0.0
C565 C 0.38168 0.39936 0.27915 0.0
C566 C 0.3412 0.40036 0.26354 0.0
H567 H 0.40871 0.39301 0.2645 0.0
H568 H 0.1596 0.42191 0.14103 0.0
H569 H 0.23103 0.42421 0.16844 0.0
H570 H 0.17999 0.39184 0.25916 0.0
H571 H 0.10942 0.39014 0.23208 0.0
H572 H 0.28166 0.41201 0.21443 0.0
H573 H 0.23454 0.40968 0.28414 0.0
H574 H 0.28366 0.42028 0.3318 0.0
H575 H 0.35504 0.4182 0.35924 0.0
C576 C 0.02091 0.03235 0.09425 0.0
C577 C 0.01393 0.05496 0.09054 0.0
C578 C 0.02356 0.01879 0.06529 0.0
C579 C 0.01886 0.02745 0.03175 0.0
C580 C 0.01318 0.0501 0.02797 0.0
C581 C 0.0106 0.06371 0.05699 0.0
C582 C 0.02009 0.01349 0.00019 0.0
C583 C 0.01082 0.99192 0.00038 0.0
C584 C 0.01037 0.97782 0.96897 0.0
C585 C 0.01216 0.95504 0.97329 0.0
C586 C 0.01003 0.94104 0.94478 0.0
C587 C 0.00577 0.94949 0.91111 0.0
H588 H 0.00344 0.00367 0.93061 0.0
C589 C 0.0041 0.97231 0.90673 0.0
C590 C 0.00623 0.98631 0.93526 0.0
H591 H 0.00042 0.97945 0.88125 0.0
H592 H 0.02419 0.02501 0.11963 0.0
H593 H 0.02969 1.0016 0.0695 0.0
H594 H 0.00995 0.05729 0.00247 0.0
H595 H 0.0054 0.08104 0.05307 0.0
H596 H 0.02784 0.02158 0.976 0.0
H597 H 0.00279 0.98396 0.02463 0.0
H598 H 0.01504 0.94799 0.99892 0.0
H599 H 0.01132 0.92357 0.94923 0.0
C600 C 0.00681 0.55463 0.93664 0.0
C601 C 0.00918 0.54731 0.90221 0.0
C602 C 0.0039 0.53966 0.96402 0.0
C603 C 0.00311 0.51699 0.95751 0.0
C604 C 0.00498 0.50979 0.92311 0.0
C605 C 0.00781 0.52468 0.89585 0.0
C606 C 0.00285 0.50021 0.98548 0.0
C607 C 0.99067 0.50404 0.0184 0.0
C608 C 0.99304 0.48723 0.04626 0.0
C609 C -0.00345 0.49421 0.0807 0.0
C610 C 0.0007 0.47908 0.1076 0.0
C611 C 0.00107 0.45649 0.10076 0.0
H612 H 0.98764 0.45846 0.01345 0.0
C613 C 0.99605 0.44945 0.06638 0.0
C614 C 0.99193 0.46461 0.03944 0.0
H615 H 0.99569 0.4322 0.06013 0.0
H616 H 0.00806 0.57191 0.94255 0.0
H617 H 0.00362 0.546 0.99011 0.0
H618 H 0.00465 0.49247 0.91723 0.0
H619 H 0.00962 0.51832 0.86976 0.0
H620 H 0.01378 0.48399 0.97832 0.0
H621 H 0.98007 0.52025 0.02585 0.0
H622 H -0.00298 0.51148 0.08682 0.0
H623 H 0.00425 0.48518 0.13373 0.0
C624 C 0.49761 0.47756 0.40278 0.0
C625 C 0.50734 0.45516 0.40514 0.0
C626 C 0.50093 0.49113 0.43172 0.0
C627 C 0.51466 0.48268 0.46382 0.0
C628 C 0.52466 0.46032 0.46603 0.0
C629 C 0.52103 0.44671 0.43714 0.0
C630 C 0.51714 0.49615 0.49594 0.0
C631 C 0.51405 0.51816 0.49679 0.0
C632 C 0.51396 0.5313 0.5293 0.0
C633 C 0.5204 0.554 0.52711 0.0
C634 C 0.51867 0.56712 0.55672 0.0
C635 C 0.51044 0.55782 0.58932 0.0
H636 H 0.49898 0.5048 0.56508 0.0
C637 C 0.5042 0.53509 0.59156 0.0
C638 C 0.5056 0.52202 0.56199 0.0
H639 H 0.49729 0.52734 0.61614 0.0
H640 H 0.48659 0.48463 0.37864 0.0
H641 H 0.49177 0.50805 0.42864 0.0
H642 H 0.53506 0.45324 0.49035 0.0
H643 H 0.52884 0.42956 0.43997 0.0
H644 H 0.52233 0.48727 0.51986 0.0
H645 H 0.5121 0.52727 0.4728 0.0
H646 H 0.52654 0.56168 0.50233 0.0
H647 H 0.52357 0.58456 0.55396 0.0
C648 C 0.51071 0.97795 0.60024 0.0
C649 C 0.50935 0.95507 0.5967 0.0
C650 C 0.50702 0.99158 0.57132 0.0
C651 C 0.50218 0.98264 0.53798 0.0
C652 C 0.50027 0.9598 0.53454 0.0
C653 C 0.50394 0.94618 0.56346 0.0
C654 C 0.49837 0.99635 0.50622 0.0
C655 C 0.51126 0.01739 0.50409 0.0
C656 C 0.50945 0.0306 0.47168 0.0
C657 C 0.511 0.0535 0.47403 0.0
C658 C 0.51147 0.06649 0.4442 0.0
C659 C 0.51069 0.05684 0.4112 0.0
H660 H 0.50872 0.00342 0.43537 0.0
C661 C 0.50889 0.03391 0.40887 0.0
C662 C 0.50847 0.02095 0.43864 0.0
H663 H 0.50871 0.02583 0.38395 0.0
H664 H 0.51449 0.98543 0.62544 0.0
H665 H 0.50736 0.00903 0.5755 0.0
H666 H 0.49626 0.95242 0.50928 0.0
H667 H 0.50256 0.92866 0.55966 0.0
H668 H 0.48517 0.9884 0.4835 0.0
H669 H 0.52415 0.02549 0.52679 0.0
H670 H 0.51213 0.0614 0.49909 0.0
H671 H 0.51303 0.08408 0.44706 0.0
loop_
_geom_bond_atom_site_label_1
_geom_bond_atom_site_label_2
_geom_bond_distance
_geom_bond_site_symmetry_2
_ccdc_geom_bond_type
Mn0 O5 2.095 . S
Mn0 O15 2.162 . S
Mn0 O16 2.297 . S
Mn0 O24 2.385 1_455 S
Mn0 O25 2.209 1_455 S
Mn0 O26 2.094 . S
Mn1 O6 2.121 . S
Mn1 N8 2.257 1_455 S
Mn1 N17 2.282 1_455 S
Mn1 O25 2.215 1_455 S
Mn1 O27 2.117 . S
C2 O24 1.234 . S
C2 O25 1.283 . S
C3 O15 1.281 . S
C3 O16 1.236 . S
C4 O26 1.240 . S
C4 O27 1.264 . S
O5 Mn0 2.095 . S
O5 C14 1.250 . S
O6 Mn1 2.121 . S
O6 C14 1.258 . S
C7 N8 1.326 1_455 S
C7 C11 1.460 . S
C7 H13 0.929 . S
N8 Mn1 2.257 1_655 S
N8 C7 1.326 1_655 S
N8 C12 1.362 . S
C9 C10 1.258 . S
C9 C12 1.431 . S
C9 C29 1.449 . S
C10 C9 1.258 . S
C10 C11 1.477 1_655 S
C10 H30 0.931 . S
C11 C7 1.460 . S
C11 C10 1.477 1_455 S
C11 H31 0.930 . S
C12 N8 1.362 . S
C12 C9 1.431 . S
C12 C22 1.476 . S
H13 C7 0.929 . S
C14 O5 1.250 . S
C14 O6 1.258 . S
O15 Mn0 2.162 . S
O15 C3 1.281 . S
O16 Mn0 2.297 . S
O16 C3 1.236 . S
N17 Mn1 2.282 1_655 S
N17 C18 1.328 . S
N17 C22 1.318 . S
C18 N17 1.328 . S
C18 C19 1.457 . S
C18 H23 0.929 . S
C19 C18 1.457 . S
C19 C20 1.291 . S
C19 H32 0.931 . S
C20 C19 1.291 . S
C20 C21 1.373 . S
C20 H33 0.929 . S
C21 C20 1.373 . S
C21 C22 1.396 . S
C21 C28 1.403 . S
C22 C12 1.476 . S
C22 N17 1.318 . S
C22 C21 1.396 . S
H23 C18 0.929 . S
O24 Mn0 2.385 1_655 S
O24 C2 1.234 . S
O25 Mn0 2.209 1_655 S
O25 Mn1 2.215 1_655 S
O25 C2 1.283 . S
O26 Mn0 2.094 . S
O26 C4 1.240 . S
O27 Mn1 2.117 . S
O27 C4 1.264 . S
C28 C21 1.403 . S
C28 C29 1.399 . S
C28 H34 0.929 . S
C29 C9 1.449 . S
C29 C28 1.399 . S
C29 H35 0.930 . S
H30 C10 0.931 . S
H31 C11 0.930 . S
H32 C19 0.931 . S
H33 C20 0.929 . S
H34 C28 0.929 . S
H35 C29 0.930 . S
Mn36 O41 2.095 1_455 S
Mn36 O51 2.162 . S
Mn36 O52 2.297 . S
Mn36 O60 2.385 . S
Mn36 O61 2.209 . S
Mn36 O62 2.094 . S
Mn37 O42 2.121 1_455 S
Mn37 N44 2.257 . S
Mn37 N53 2.282 . S
Mn37 O61 2.215 . S
Mn37 O63 2.117 . S
C38 O60 1.234 . S
C38 O61 1.283 . S
C39 O51 1.281 . S
C39 O52 1.236 . S
C40 O62 1.240 . S
C40 O63 1.264 . S
O41 Mn36 2.095 1_655 S
O41 C50 1.250 . S
O42 Mn37 2.121 1_655 S
O42 C50 1.258 . S
C43 N44 1.326 . S
C43 C47 1.460 . S
C43 H49 0.929 1_455 S
N44 Mn37 2.257 . S
N44 C43 1.326 . S
N44 C48 1.362 . S
C45 C46 1.258 . S
C45 C48 1.431 . S
C45 C65 1.449 . S
C46 C45 1.258 . S
C46 C47 1.477 . S
C46 H66 0.931 . S
C47 C43 1.460 . S
C47 C46 1.477 . S
C47 H67 0.930 . S
C48 N44 1.362 . S
C48 C45 1.431 . S
C48 C58 1.476 . S
H49 C43 0.929 1_655 S
C50 O41 1.250 . S
C50 O42 1.258 . S
O51 Mn36 2.162 . S
O51 C39 1.281 . S
O52 Mn36 2.297 . S
O52 C39 1.236 . S
N53 Mn37 2.282 . S
N53 C54 1.328 . S
N53 C58 1.318 . S
C54 N53 1.328 . S
C54 C55 1.457 . S
C54 H59 0.929 . S
C55 C54 1.457 . S
C55 C56 1.291 . S
C55 H68 0.931 . S
C56 C55 1.291 . S
C56 C57 1.373 . S
C56 H69 0.929 . S
C57 C56 1.373 . S
C57 C58 1.396 . S
C57 C64 1.403 . S
C58 C48 1.476 . S
C58 N53 1.318 . S
C58 C57 1.396 . S
H59 C54 0.929 . S
O60 Mn36 2.385 . S
O60 C38 1.234 . S
O61 Mn36 2.209 . S
O61 Mn37 2.215 . S
O61 C38 1.283 . S
O62 Mn36 2.094 . S
O62 C40 1.240 . S
O63 Mn37 2.117 . S
O63 C40 1.264 . S
C64 C57 1.403 . S
C64 C65 1.399 . S
C64 H70 0.929 . S
C65 C45 1.449 . S
C65 C64 1.399 . S
C65 H71 0.930 . S
H66 C46 0.931 . S
H67 C47 0.930 . S
H68 C55 0.931 . S
H69 C56 0.929 . S
H70 C64 0.929 . S
H71 C65 0.930 . S
Mn72 O77 2.095 . S
Mn72 O87 2.162 . S
Mn72 O88 2.297 . S
Mn72 O96 2.385 1_455 S
Mn72 O97 2.209 1_455 S
Mn72 O98 2.094 . S
Mn73 O78 2.121 . S
Mn73 N80 2.257 1_455 S
Mn73 N89 2.282 1_455 S
Mn73 O97 2.215 1_455 S
Mn73 O99 2.117 . S
C74 O96 1.234 . S
C74 O97 1.283 . S
C75 O87 1.281 . S
C75 O88 1.236 . S
C76 O98 1.240 . S
C76 O99 1.264 . S
O77 Mn72 2.095 . S
O77 C86 1.250 . S
O78 Mn73 2.121 . S
O78 C86 1.258 . S
C79 N80 1.326 1_455 S
C79 C83 1.460 . S
C79 H85 0.929 . S
N80 Mn73 2.257 1_655 S
N80 C79 1.326 1_655 S
N80 C84 1.362 . S
C81 C82 1.258 . S
C81 C84 1.431 . S
C81 C101 1.449 . S
C82 C81 1.258 . S
C82 C83 1.477 1_655 S
C82 H102 0.931 . S
C83 C79 1.460 . S
C83 C82 1.477 1_455 S
C83 H103 0.930 . S
C84 N80 1.362 . S
C84 C81 1.431 . S
C84 C94 1.476 . S
H85 C79 0.929 . S
C86 O77 1.250 . S
C86 O78 1.258 . S
O87 Mn72 2.162 . S
O87 C75 1.281 . S
O88 Mn72 2.297 . S
O88 C75 1.236 . S
N89 Mn73 2.282 1_655 S
N89 C90 1.328 . S
N89 C94 1.318 . S
C90 N89 1.328 . S
C90 C91 1.457 . S
C90 H95 0.929 . S
C91 C90 1.457 . S
C91 C92 1.291 . S
C91 H104 0.931 . S
C92 C91 1.291 . S
C92 C93 1.373 . S
C92 H105 0.929 . S
C93 C92 1.373 . S
C93 C94 1.396 . S
C93 C100 1.403 . S
C94 C84 1.476 . S
C94 N89 1.318 . S
C94 C93 1.396 . S
H95 C90 0.929 . S
O96 Mn72 2.385 1_655 S
O96 C74 1.234 . S
O97 Mn72 2.209 1_655 S
O97 Mn73 2.215 1_655 S
O97 C74 1.283 . S
O98 Mn72 2.094 . S
O98 C76 1.240 . S
O99 Mn73 2.117 . S
O99 C76 1.264 . S
C100 C93 1.403 . S
C100 C101 1.399 . S
C100 H106 0.929 . S
C101 C81 1.449 . S
C101 C100 1.399 . S
C101 H107 0.930 . S
H102 C82 0.931 . S
H103 C83 0.930 . S
H104 C91 0.931 . S
H105 C92 0.929 . S
H106 C100 0.929 . S
H107 C101 0.930 . S
Mn108 O113 2.095 1_455 S
Mn108 O123 2.162 . S
Mn108 O124 2.297 . S
Mn108 O132 2.385 . S
Mn108 O133 2.209 . S
Mn108 O134 2.094 . S
Mn109 O114 2.121 1_455 S
Mn109 N116 2.257 . S
Mn109 N125 2.282 . S
Mn109 O133 2.215 . S
Mn109 O135 2.117 . S
C110 O132 1.234 . S
C110 O133 1.283 . S
C111 O123 1.281 . S
C111 O124 1.236 . S
C112 O134 1.240 . S
C112 O135 1.264 . S
O113 Mn108 2.095 1_655 S
O113 C122 1.250 . S
O114 Mn109 2.121 1_655 S
O114 C122 1.258 . S
C115 N116 1.326 . S
C115 C119 1.460 . S
C115 H121 0.929 1_455 S
N116 Mn109 2.257 . S
N116 C115 1.326 . S
N116 C120 1.362 . S
C117 C118 1.258 . S
C117 C120 1.431 . S
C117 C137 1.449 . S
C118 C117 1.258 . S
C118 C119 1.477 . S
C118 H138 0.931 . S
C119 C115 1.460 . S
C119 C118 1.477 . S
C119 H139 0.930 . S
C120 N116 1.362 . S
C120 C117 1.431 . S
C120 C130 1.476 . S
H121 C115 0.929 1_655 S
C122 O113 1.250 . S
C122 O114 1.258 . S
O123 Mn108 2.162 . S
O123 C111 1.281 . S
O124 Mn108 2.297 . S
O124 C111 1.236 . S
N125 Mn109 2.282 . S
N125 C126 1.328 . S
N125 C130 1.318 . S
C126 N125 1.328 . S
C126 C127 1.457 . S
C126 H131 0.929 . S
C127 C126 1.457 . S
C127 C128 1.291 . S
C127 H140 0.931 . S
C128 C127 1.291 . S
C128 C129 1.373 . S
C128 H141 0.929 . S
C129 C128 1.373 . S
C129 C130 1.396 . S
C129 C136 1.403 . S
C130 C120 1.476 . S
C130 N125 1.318 . S
C130 C129 1.396 . S
H131 C126 0.929 . S
O132 Mn108 2.385 . S
O132 C110 1.234 . S
O133 Mn108 2.209 . S
O133 Mn109 2.215 . S
O133 C110 1.283 . S
O134 Mn108 2.094 . S
O134 C112 1.240 . S
O135 Mn109 2.117 . S
O135 C112 1.264 . S
C136 C129 1.403 . S
C136 C137 1.399 . S
C136 H142 0.929 . S
C137 C117 1.449 . S
C137 C136 1.399 . S
C137 H143 0.930 . S
H138 C118 0.931 . S
H139 C119 0.930 . S
H140 C127 0.931 . S
H141 C128 0.929 . S
H142 C136 0.929 . S
H143 C137 0.930 . S
Mn144 O149 2.095 . S
Mn144 O159 2.162 . S
Mn144 O160 2.297 . S
Mn144 O168 2.385 . S
Mn144 O169 2.209 . S
Mn144 O170 2.094 . S
Mn145 O150 2.121 . S
Mn145 N152 2.257 . S
Mn145 N161 2.282 . S
Mn145 O169 2.215 . S
Mn145 O171 2.117 . S
C146 O168 1.234 . S
C146 O169 1.283 . S
C147 O159 1.281 . S
C147 O160 1.236 . S
C148 O170 1.240 . S
C148 O171 1.264 . S
O149 Mn144 2.095 . S
O149 C158 1.250 . S
O150 Mn145 2.121 . S
O150 C158 1.258 . S
C151 N152 1.326 . S
C151 C155 1.460 . S
C151 H157 0.929 . S
N152 Mn145 2.257 . S
N152 C151 1.326 . S
N152 C156 1.362 . S
C153 C154 1.258 . S
C153 C156 1.431 . S
C153 C173 1.449 . S
C154 C153 1.258 . S
C154 C155 1.477 . S
C154 H174 0.931 . S
C155 C151 1.460 . S
C155 C154 1.477 . S
C155 H175 0.930 . S
C156 N152 1.362 . S
C156 C153 1.431 . S
C156 C166 1.476 . S
H157 C151 0.929 . S
C158 O149 1.250 . S
C158 O150 1.258 . S
O159 Mn144 2.162 . S
O159 C147 1.281 . S
O160 Mn144 2.297 . S
O160 C147 1.236 . S
N161 Mn145 2.282 . S
N161 C162 1.328 . S
N161 C166 1.318 . S
C162 N161 1.328 . S
C162 C163 1.457 . S
C162 H167 0.929 . S
C163 C162 1.457 . S
C163 C164 1.291 . S
C163 H176 0.931 . S
C164 C163 1.291 . S
C164 C165 1.373 . S
C164 H177 0.929 . S
C165 C164 1.373 . S
C165 C166 1.396 . S
C165 C172 1.403 . S
C166 C156 1.476 . S
C166 N161 1.318 . S
C166 C165 1.396 . S
H167 C162 0.929 . S
O168 Mn144 2.385 . S
O168 C146 1.234 . S
O169 Mn144 2.209 . S
O169 Mn145 2.215 . S
O169 C146 1.283 . S
O170 Mn144 2.094 . S
O170 C148 1.240 . S
O171 Mn145 2.117 . S
O171 C148 1.264 . S
C172 C165 1.403 . S
C172 C173 1.399 . S
C172 H178 0.929 . S
C173 C153 1.449 . S
C173 C172 1.399 . S
C173 H179 0.930 . S
H174 C154 0.931 . S
H175 C155 0.930 . S
H176 C163 0.931 . S
H177 C164 0.929 . S
H178 C172 0.929 . S
H179 C173 0.930 . S
Mn180 O185 2.095 . S
Mn180 O195 2.162 . S
Mn180 O196 2.297 . S
Mn180 O204 2.385 . S
Mn180 O205 2.209 . S
Mn180 O206 2.094 . S
Mn181 O186 2.121 . S
Mn181 N188 2.257 . S
Mn181 N197 2.282 . S
Mn181 O205 2.215 . S
Mn181 O207 2.117 . S
C182 O204 1.234 . S
C182 O205 1.283 . S
C183 O195 1.281 . S
C183 O196 1.236 . S
C184 O206 1.240 . S
C184 O207 1.264 . S
O185 Mn180 2.095 . S
O185 C194 1.250 . S
O186 Mn181 2.121 . S
O186 C194 1.258 . S
C187 N188 1.326 . S
C187 C191 1.460 . S
C187 H193 0.929 . S
N188 Mn181 2.257 . S
N188 C187 1.326 . S
N188 C192 1.362 . S
C189 C190 1.258 . S
C189 C192 1.431 . S
C189 C209 1.449 . S
C190 C189 1.258 . S
C190 C191 1.477 . S
C190 H210 0.931 . S
C191 C187 1.460 . S
C191 C190 1.477 . S
C191 H211 0.930 . S
C192 N188 1.362 . S
C192 C189 1.431 . S
C192 C202 1.476 . S
H193 C187 0.929 . S
C194 O185 1.250 . S
C194 O186 1.258 . S
O195 Mn180 2.162 . S
O195 C183 1.281 . S
O196 Mn180 2.297 . S
O196 C183 1.236 . S
N197 Mn181 2.282 . S
N197 C198 1.328 . S
N197 C202 1.318 . S
C198 N197 1.328 . S
C198 C199 1.457 . S
C198 H203 0.929 . S
C199 C198 1.457 . S
C199 C200 1.291 . S
C199 H212 0.931 . S
C200 C199 1.291 . S
C200 C201 1.373 . S
C200 H213 0.929 . S
C201 C200 1.373 . S
C201 C202 1.396 . S
C201 C208 1.403 . S
C202 C192 1.476 . S
C202 N197 1.318 . S
C202 C201 1.396 . S
H203 C198 0.929 . S
O204 Mn180 2.385 . S
O204 C182 1.234 . S
O205 Mn180 2.209 . S
O205 Mn181 2.215 . S
O205 C182 1.283 . S
O206 Mn180 2.094 . S
O206 C184 1.240 . S
O207 Mn181 2.117 . S
O207 C184 1.264 . S
C208 C201 1.403 . S
C208 C209 1.399 . S
C208 H214 0.929 . S
C209 C189 1.449 . S
C209 C208 1.399 . S
C209 H215 0.930 . S
H210 C190 0.931 . S
H211 C191 0.930 . S
H212 C199 0.931 . S
H213 C200 0.929 . S
H214 C208 0.929 . S
H215 C209 0.930 . S
Mn216 O221 2.095 . S
Mn216 O231 2.162 . S
Mn216 O232 2.297 . S
Mn216 O240 2.385 . S
Mn216 O241 2.209 . S
Mn216 O242 2.094 . S
Mn217 O222 2.121 . S
Mn217 N224 2.257 . S
Mn217 N233 2.282 . S
Mn217 O241 2.215 . S
Mn217 O243 2.117 . S
C218 O240 1.234 . S
C218 O241 1.283 . S
C219 O231 1.281 . S
C219 O232 1.236 . S
C220 O242 1.240 . S
C220 O243 1.264 . S
O221 Mn216 2.095 . S
O221 C230 1.250 . S
O222 Mn217 2.121 . S
O222 C230 1.258 . S
C223 N224 1.326 . S
C223 C227 1.460 . S
C223 H229 0.929 . S
N224 Mn217 2.257 . S
N224 C223 1.326 . S
N224 C228 1.362 . S
C225 C226 1.258 . S
C225 C228 1.431 . S
C225 C245 1.449 . S
C226 C225 1.258 . S
C226 C227 1.477 . S
C226 H246 0.931 . S
C227 C223 1.460 . S
C227 C226 1.477 . S
C227 H247 0.930 . S
C228 N224 1.362 . S
C228 C225 1.431 . S
C228 C238 1.476 . S
H229 C223 0.929 . S
C230 O221 1.250 . S
C230 O222 1.258 . S
O231 Mn216 2.162 . S
O231 C219 1.281 . S
O232 Mn216 2.297 . S
O232 C219 1.236 . S
N233 Mn217 2.282 . S
N233 C234 1.328 . S
N233 C238 1.318 . S
C234 N233 1.328 . S
C234 C235 1.457 . S
C234 H239 0.929 . S
C235 C234 1.457 . S
C235 C236 1.291 . S
C235 H248 0.931 . S
C236 C235 1.291 . S
C236 C237 1.373 . S
C236 H249 0.929 . S
C237 C236 1.373 . S
C237 C238 1.396 . S
C237 C244 1.403 . S
C238 C228 1.476 . S
C238 N233 1.318 . S
C238 C237 1.396 . S
H239 C234 0.929 . S
O240 Mn216 2.385 . S
O240 C218 1.234 . S
O241 Mn216 2.209 . S
O241 Mn217 2.215 . S
O241 C218 1.283 . S
O242 Mn216 2.094 . S
O242 C220 1.240 . S
O243 Mn217 2.117 . S
O243 C220 1.264 . S
C244 C237 1.403 . S
C244 C245 1.399 . S
C244 H250 0.929 . S
C245 C225 1.449 . S
C245 C244 1.399 . S
C245 H251 0.930 . S
H246 C226 0.931 . S
H247 C227 0.930 . S
H248 C235 0.931 . S
H249 C236 0.929 . S
H250 C244 0.929 . S
H251 C245 0.930 . S
Mn252 O257 2.095 . S
Mn252 O267 2.162 . S
Mn252 O268 2.297 . S
Mn252 O276 2.385 . S
Mn252 O277 2.209 . S
Mn252 O278 2.094 . S
Mn253 O258 2.121 . S
Mn253 N260 2.257 . S
Mn253 N269 2.282 . S
Mn253 O277 2.215 . S
Mn253 O279 2.117 . S
C254 O276 1.234 . S
C254 O277 1.283 . S
C255 O267 1.281 . S
C255 O268 1.236 . S
C256 O278 1.240 . S
C256 O279 1.264 . S
O257 Mn252 2.095 . S
O257 C266 1.250 . S
O258 Mn253 2.121 . S
O258 C266 1.258 . S
C259 N260 1.326 . S
C259 C263 1.460 . S
C259 H265 0.929 . S
N260 Mn253 2.257 . S
N260 C259 1.326 . S
N260 C264 1.362 . S
C261 C262 1.258 . S
C261 C264 1.431 . S
C261 C281 1.449 . S
C262 C261 1.258 . S
C262 C263 1.477 . S
C262 H282 0.931 . S
C263 C259 1.460 . S
C263 C262 1.477 . S
C263 H283 0.930 . S
C264 N260 1.362 . S
C264 C261 1.431 . S
C264 C274 1.476 . S
H265 C259 0.929 . S
C266 O257 1.250 . S
C266 O258 1.258 . S
O267 Mn252 2.162 . S
O267 C255 1.281 . S
O268 Mn252 2.297 . S
O268 C255 1.236 . S
N269 Mn253 2.282 . S
N269 C270 1.328 . S
N269 C274 1.318 . S
C270 N269 1.328 . S
C270 C271 1.457 . S
C270 H275 0.929 . S
C271 C270 1.457 . S
C271 C272 1.291 . S
C271 H284 0.931 . S
C272 C271 1.291 . S
C272 C273 1.373 . S
C272 H285 0.929 . S
C273 C272 1.373 . S
C273 C274 1.396 . S
C273 C280 1.403 . S
C274 C264 1.476 . S
C274 N269 1.318 . S
C274 C273 1.396 . S
H275 C270 0.929 . S
O276 Mn252 2.385 . S
O276 C254 1.234 . S
O277 Mn252 2.209 . S
O277 Mn253 2.215 . S
O277 C254 1.283 . S
O278 Mn252 2.094 . S
O278 C256 1.240 . S
O279 Mn253 2.117 . S
O279 C256 1.264 . S
C280 C273 1.403 . S
C280 C281 1.399 . S
C280 H286 0.929 . S
C281 C261 1.449 . S
C281 C280 1.399 . S
C281 H287 0.930 . S
H282 C262 0.931 . S
H283 C263 0.930 . S
H284 C271 0.931 . S
H285 C272 0.929 . S
H286 C280 0.929 . S
H287 C281 0.930 . S
C288 C289 1.386 . S
C288 C290 1.383 . S
C288 H304 0.951 1_455 S
C289 C288 1.386 . S
C289 C293 1.383 . S
C290 C288 1.383 . S
C290 C291 1.402 . S
C290 H305 0.950 1_455 S
C291 C290 1.402 . S
C291 C292 1.375 . S
C291 C294 1.481 . S
C292 C291 1.375 . S
C292 C293 1.367 . S
C292 H306 0.951 . S
C293 C289 1.383 . S
C293 C292 1.367 . S
C293 H307 0.950 . S
C294 C291 1.481 . S
C294 C295 1.297 1_455 S
C294 H308 0.950 . S
C295 C294 1.297 1_655 S
C295 C296 1.479 . S
C295 H309 0.950 . S
C296 C295 1.479 . S
C296 C297 1.375 . S
C296 C302 1.404 1_655 S
C297 C296 1.375 . S
C297 C298 1.369 . S
C297 H310 0.950 . S
C298 C297 1.369 . S
C298 C299 1.392 1_655 S
C298 H311 0.951 . S
C299 C298 1.392 1_455 S
C299 C301 1.384 . S
H300 C302 0.949 . S
C301 C299 1.384 . S
C301 C302 1.385 . S
C301 H303 0.950 . S
C302 C296 1.404 1_455 S
C302 H300 0.949 . S
C302 C301 1.385 . S
H303 C301 0.950 . S
H304 C288 0.951 1_655 S
H305 C290 0.950 1_655 S
H306 C292 0.951 . S
H307 C293 0.950 . S
H308 C294 0.950 . S
H309 C295 0.950 . S
H310 C297 0.950 . S
H311 C298 0.951 . S
C312 C313 1.386 . S
C312 C314 1.383 . S
C312 H328 0.951 . S
C313 C312 1.386 . S
C313 C317 1.383 1_455 S
C314 C312 1.383 . S
C314 C315 1.402 . S
C314 H329 0.951 . S
C315 C314 1.402 . S
C315 C316 1.375 1_455 S
C315 C318 1.480 1_455 S
C316 C315 1.375 1_655 S
C316 C317 1.367 . S
C316 H330 0.951 . S
C317 C313 1.383 1_655 S
C317 C316 1.367 . S
C317 H331 0.950 . S
C318 C315 1.480 1_655 S
C318 C319 1.290 1_655 S
C318 H332 0.959 . S
C319 C318 1.290 1_455 S
C319 C320 1.479 . S
C319 H333 0.950 . S
C320 C319 1.479 . S
C320 C321 1.375 . S
C320 C326 1.404 1_455 S
C321 C320 1.375 . S
C321 C322 1.369 . S
C321 H334 0.950 . S
C322 C321 1.369 . S
C322 C323 1.392 . S
C322 H335 0.951 . S
C323 C322 1.392 . S
C323 C325 1.384 1_455 S
H324 C326 0.949 . S
C325 C323 1.384 1_655 S
C325 C326 1.385 . S
C325 H327 0.950 . S
C326 C320 1.404 1_655 S
C326 H324 0.949 . S
C326 C325 1.385 . S
H327 C325 0.950 . S
H328 C312 0.951 . S
H329 C314 0.951 . S
H330 C316 0.951 . S
H331 C317 0.950 . S
H332 C318 0.959 . S
H333 C319 0.950 . S
H334 C321 0.950 . S
H335 C322 0.951 . S
C336 C337 1.386 . S
C336 C338 1.383 . S
C336 H352 0.951 . S
C337 C336 1.386 . S
C337 C341 1.383 . S
C338 C336 1.383 . S
C338 C339 1.402 . S
C338 H353 0.951 . S
C339 C338 1.402 . S
C339 C340 1.375 . S
C339 C342 1.481 . S
C340 C339 1.375 . S
C340 C341 1.367 . S
C340 H354 0.951 . S
C341 C337 1.383 . S
C341 C340 1.367 . S
C341 H355 0.950 . S
C342 C339 1.481 . S
C342 C343 1.297 . S
C342 H356 0.950 . S
C343 C342 1.297 . S
C343 C344 1.479 . S
C343 H357 0.950 . S
C344 C343 1.479 . S
C344 C345 1.375 . S
C344 C350 1.404 . S
C345 C344 1.375 . S
C345 C346 1.369 . S
C345 H358 0.950 . S
C346 C345 1.369 . S
C346 C347 1.392 . S
C346 H359 0.951 . S
C347 C346 1.392 . S
C347 C349 1.384 . S
H348 C350 0.949 . S
C349 C347 1.384 . S
C349 C350 1.385 . S
C349 H351 0.950 . S
C350 C344 1.404 . S
C350 H348 0.949 . S
C350 C349 1.385 . S
H351 C349 0.950 . S
H352 C336 0.951 . S
H353 C338 0.951 . S
H354 C340 0.951 . S
H355 C341 0.950 . S
H356 C342 0.950 . S
H357 C343 0.950 . S
H358 C345 0.950 . S
H359 C346 0.951 . S
C360 C361 1.386 . S
C360 C362 1.383 . S
C360 H376 0.951 . S
C361 C360 1.386 . S
C361 C365 1.383 . S
C362 C360 1.383 . S
C362 C363 1.402 . S
C362 H377 0.951 . S
C363 C362 1.402 . S
C363 C364 1.375 . S
C363 C366 1.481 . S
C364 C363 1.375 . S
C364 C365 1.367 . S
C364 H378 0.951 . S
C365 C361 1.383 . S
C365 C364 1.367 . S
C365 H379 0.950 . S
C366 C363 1.481 . S
C366 C367 1.297 . S
C366 H380 0.950 . S
C367 C366 1.297 . S
C367 C368 1.479 . S
C367 H381 0.950 . S
C368 C367 1.479 . S
C368 C369 1.375 . S
C368 C374 1.404 . S
C369 C368 1.375 . S
C369 C370 1.369 . S
C369 H382 0.950 . S
C370 C369 1.369 . S
C370 C371 1.392 . S
C370 H383 0.951 . S
C371 C370 1.392 . S
C371 C373 1.384 . S
H372 C374 0.949 . S
C373 C371 1.384 . S
C373 C374 1.385 . S
C373 H375 0.950 . S
C374 C368 1.404 . S
C374 H372 0.949 . S
C374 C373 1.385 . S
H375 C373 0.950 . S
H376 C360 0.951 . S
H377 C362 0.951 . S
H378 C364 0.951 . S
H379 C365 0.950 . S
H380 C366 0.950 . S
H381 C367 0.950 . S
H382 C369 0.950 . S
H383 C370 0.951 . S
C384 C385 1.386 . S
C384 C386 1.383 . S
C384 H400 0.951 . S
C385 C384 1.386 . S
C385 C389 1.383 . S
C386 C384 1.383 . S
C386 C387 1.402 . S
C386 H401 0.951 . S
C387 C386 1.402 . S
C387 C388 1.375 . S
C387 C390 1.481 . S
C388 C387 1.375 . S
C388 C389 1.367 . S
C388 H402 0.951 . S
C389 C385 1.383 . S
C389 C388 1.367 . S
C389 H403 0.950 . S
C390 C387 1.481 . S
C390 C391 1.297 . S
C390 H404 0.950 . S
C391 C390 1.297 . S
C391 C392 1.479 . S
C391 H405 0.950 . S
C392 C391 1.479 . S
C392 C393 1.375 . S
C392 C398 1.404 . S
C393 C392 1.375 . S
C393 C394 1.369 . S
C393 H406 0.950 . S
C394 C393 1.369 . S
C394 C395 1.392 . S
C394 H407 0.951 . S
C395 C394 1.392 . S
C395 C397 1.384 . S
H396 C398 0.949 . S
C397 C395 1.384 . S
C397 C398 1.385 . S
C397 H399 0.950 . S
C398 C392 1.404 . S
C398 H396 0.949 . S
C398 C397 1.385 . S
H399 C397 0.950 . S
H400 C384 0.951 . S
H401 C386 0.951 . S
H402 C388 0.951 . S
H403 C389 0.950 . S
H404 C390 0.950 . S
H405 C391 0.950 . S
H406 C393 0.950 . S
H407 C394 0.951 . S
C408 C409 1.386 . S
C408 C410 1.383 . S
C408 H424 0.951 . S
C409 C408 1.386 . S
C409 C413 1.383 . S
C410 C408 1.383 . S
C410 C411 1.402 . S
C410 H425 0.951 . S
C411 C410 1.402 . S
C411 C412 1.375 . S
C411 C414 1.481 . S
C412 C411 1.375 . S
C412 C413 1.367 . S
C412 H426 0.951 . S
C413 C409 1.383 . S
C413 C412 1.367 . S
C413 H427 0.950 . S
C414 C411 1.481 . S
C414 C415 1.297 . S
C414 H428 0.950 . S
C415 C414 1.297 . S
C415 C416 1.479 . S
C415 H429 0.950 . S
C416 C415 1.479 . S
C416 C417 1.375 . S
C416 C422 1.404 . S
C417 C416 1.375 . S
C417 C418 1.369 . S
C417 H430 0.950 . S
C418 C417 1.369 . S
C418 C419 1.392 . S
C418 H431 0.951 . S
C419 C418 1.392 . S
C419 C421 1.384 . S
H420 C422 0.949 . S
C421 C419 1.384 . S
C421 C422 1.385 . S
C421 H423 0.950 . S
C422 C416 1.404 . S
C422 H420 0.949 . S
C422 C421 1.385 . S
H423 C421 0.950 . S
H424 C408 0.951 . S
H425 C410 0.951 . S
H426 C412 0.951 . S
H427 C413 0.950 . S
H428 C414 0.950 . S
H429 C415 0.950 . S
H430 C417 0.950 . S
H431 C418 0.951 . S
C432 C433 1.386 . S
C432 C434 1.383 . S
C432 H448 0.951 . S
C433 C432 1.386 . S
C433 C437 1.383 . S
C434 C432 1.383 . S
C434 C435 1.402 . S
C434 H449 0.951 . S
C435 C434 1.402 . S
C435 C436 1.375 . S
C435 C438 1.481 . S
C436 C435 1.375 . S
C436 C437 1.367 . S
C436 H450 0.951 . S
C437 C433 1.383 . S
C437 C436 1.367 . S
C437 H451 0.950 . S
C438 C435 1.481 . S
C438 C439 1.297 . S
C438 H452 0.950 . S
C439 C438 1.297 . S
C439 C440 1.479 . S
C439 H453 0.950 . S
C440 C439 1.479 . S
C440 C441 1.375 . S
C440 C446 1.404 . S
C441 C440 1.375 . S
C441 C442 1.369 . S
C441 H454 0.950 . S
C442 C441 1.369 . S
C442 C443 1.392 . S
C442 H455 0.951 . S
C443 C442 1.392 . S
C443 C445 1.384 . S
H444 C446 0.949 . S
C445 C443 1.384 . S
C445 C446 1.385 . S
C445 H447 0.950 . S
C446 C440 1.404 . S
C446 H444 0.949 . S
C446 C445 1.385 . S
H447 C445 0.950 . S
H448 C432 0.951 . S
H449 C434 0.951 . S
H450 C436 0.951 . S
H451 C437 0.950 . S
H452 C438 0.950 . S
H453 C439 0.950 . S
H454 C441 0.950 . S
H455 C442 0.951 . S
C456 C457 1.386 . S
C456 C458 1.383 . S
C456 H472 0.951 . S
C457 C456 1.386 . S
C457 C461 1.383 . S
C458 C456 1.383 . S
C458 C459 1.402 . S
C458 H473 0.951 . S
C459 C458 1.402 . S
C459 C460 1.375 . S
C459 C462 1.481 . S
C460 C459 1.375 . S
C460 C461 1.367 . S
C460 H474 0.951 . S
C461 C457 1.383 . S
C461 C460 1.367 . S
C461 H475 0.950 . S
C462 C459 1.481 . S
C462 C463 1.297 . S
C462 H476 0.950 . S
C463 C462 1.297 . S
C463 C464 1.479 . S
C463 H477 0.950 . S
C464 C463 1.479 . S
C464 C465 1.375 . S
C464 C470 1.404 . S
C465 C464 1.375 . S
C465 C466 1.369 . S
C465 H478 0.950 . S
C466 C465 1.369 . S
C466 C467 1.392 . S
C466 H479 0.951 . S
C467 C466 1.392 . S
C467 C469 1.384 . S
H468 C470 0.949 . S
C469 C467 1.384 . S
C469 C470 1.385 . S
C469 H471 0.950 . S
C470 C464 1.404 . S
C470 H468 0.949 . S
C470 C469 1.385 . S
H471 C469 0.950 . S
H472 C456 0.951 . S
H473 C458 0.951 . S
H474 C460 0.951 . S
H475 C461 0.950 . S
H476 C462 0.950 . S
H477 C463 0.950 . S
H478 C465 0.950 . S
H479 C466 0.951 . S
C480 C481 1.386 . S
C480 C482 1.383 . S
C480 H496 0.951 . S
C481 C480 1.386 . S
C481 C485 1.383 . S
C482 C480 1.383 . S
C482 C483 1.402 . S
C482 H497 0.951 . S
C483 C482 1.402 . S
C483 C484 1.375 . S
C483 C486 1.481 . S
C484 C483 1.375 . S
C484 C485 1.367 . S
C484 H498 0.951 . S
C485 C481 1.383 . S
C485 C484 1.367 . S
C485 H499 0.950 . S
C486 C483 1.481 . S
C486 C487 1.297 . S
C486 H500 0.950 . S
C487 C486 1.297 . S
C487 C488 1.479 . S
C487 H501 0.950 . S
C488 C487 1.479 . S
C488 C489 1.375 . S
C488 C494 1.404 . S
C489 C488 1.375 . S
C489 C490 1.369 . S
C489 H502 0.950 . S
C490 C489 1.369 . S
C490 C491 1.392 . S
C490 H503 0.951 . S
C491 C490 1.392 . S
C491 C493 1.384 . S
H492 C494 0.949 . S
C493 C491 1.384 . S
C493 C494 1.385 . S
C493 H495 0.950 . S
C494 C488 1.404 . S
C494 H492 0.949 . S
C494 C493 1.385 . S
H495 C493 0.950 . S
H496 C480 0.951 . S
H497 C482 0.951 . S
H498 C484 0.951 . S
H499 C485 0.950 . S
H500 C486 0.950 . S
H501 C487 0.950 . S
H502 C489 0.950 . S
H503 C490 0.951 . S
C504 C505 1.386 . S
C504 C506 1.383 . S
C504 H520 0.951 . S
C505 C504 1.386 . S
C505 C509 1.383 . S
C506 C504 1.383 . S
C506 C507 1.402 . S
C506 H521 0.951 . S
C507 C506 1.402 . S
C507 C508 1.375 . S
C507 C510 1.481 . S
C508 C507 1.375 . S
C508 C509 1.367 . S
C508 H522 0.951 . S
C509 C505 1.383 . S
C509 C508 1.367 . S
C509 H523 0.950 . S
C510 C507 1.481 . S
C510 C511 1.297 . S
C510 H524 0.950 . S
C511 C510 1.297 . S
C511 C512 1.479 . S
C511 H525 0.950 . S
C512 C511 1.479 . S
C512 C513 1.375 . S
C512 C518 1.404 . S
C513 C512 1.375 . S
C513 C514 1.369 . S
C513 H526 0.950 . S
C514 C513 1.369 . S
C514 C515 1.392 . S
C514 H527 0.951 . S
C515 C514 1.392 . S
C515 C517 1.384 . S
H516 C518 0.949 . S
C517 C515 1.384 . S
C517 C518 1.385 . S
C517 H519 0.950 . S
C518 C512 1.404 . S
C518 H516 0.949 . S
C518 C517 1.385 . S
H519 C517 0.950 . S
H520 C504 0.951 . S
H521 C506 0.951 . S
H522 C508 0.951 . S
H523 C509 0.950 . S
H524 C510 0.950 . S
H525 C511 0.950 . S
H526 C513 0.950 . S
H527 C514 0.951 . S
C528 C529 1.386 . S
C528 C530 1.383 . S
C528 H544 0.951 . S
C529 C528 1.386 . S
C529 C533 1.383 . S
C530 C528 1.383 . S
C530 C531 1.402 . S
C530 H545 0.951 . S
C531 C530 1.402 . S
C531 C532 1.375 . S
C531 C534 1.481 . S
C532 C531 1.375 . S
C532 C533 1.367 . S
C532 H546 0.951 . S
C533 C529 1.383 . S
C533 C532 1.367 . S
C533 H547 0.950 . S
C534 C531 1.481 . S
C534 C535 1.297 . S
C534 H548 0.950 . S
C535 C534 1.297 . S
C535 C536 1.479 . S
C535 H549 0.950 . S
C536 C535 1.479 . S
C536 C537 1.375 . S
C536 C542 1.404 . S
C537 C536 1.375 . S
C537 C538 1.369 . S
C537 H550 0.950 . S
C538 C537 1.369 . S
C538 C539 1.392 . S
C538 H551 0.951 . S
C539 C538 1.392 . S
C539 C541 1.384 . S
H540 C542 0.949 . S
C541 C539 1.384 . S
C541 C542 1.385 . S
C541 H543 0.950 . S
C542 C536 1.404 . S
C542 H540 0.949 . S
C542 C541 1.385 . S
H543 C541 0.950 . S
H544 C528 0.951 . S
H545 C530 0.951 . S
H546 C532 0.951 . S
H547 C533 0.950 . S
H548 C534 0.950 . S
H549 C535 0.950 . S
H550 C537 0.950 . S
H551 C538 0.951 . S
C552 C553 1.386 . S
C552 C554 1.383 . S
C552 H568 0.951 . S
C553 C552 1.386 . S
C553 C557 1.383 . S
C554 C552 1.383 . S
C554 C555 1.402 . S
C554 H569 0.951 . S
C555 C554 1.402 . S
C555 C556 1.375 . S
C555 C558 1.481 . S
C556 C555 1.375 . S
C556 C557 1.367 . S
C556 H570 0.951 . S
C557 C553 1.383 . S
C557 C556 1.367 . S
C557 H571 0.950 . S
C558 C555 1.481 . S
C558 C559 1.297 . S
C558 H572 0.950 . S
C559 C558 1.297 . S
C559 C560 1.479 . S
C559 H573 0.950 . S
C560 C559 1.479 . S
C560 C561 1.375 . S
C560 C566 1.404 . S
C561 C560 1.375 . S
C561 C562 1.369 . S
C561 H574 0.950 . S
C562 C561 1.369 . S
C562 C563 1.392 . S
C562 H575 0.951 . S
C563 C562 1.392 . S
C563 C565 1.384 . S
H564 C566 0.949 . S
C565 C563 1.384 . S
C565 C566 1.385 . S
C565 H567 0.950 . S
C566 C560 1.404 . S
C566 H564 0.949 . S
C566 C565 1.385 . S
H567 C565 0.950 . S
H568 C552 0.951 . S
H569 C554 0.951 . S
H570 C556 0.951 . S
H571 C557 0.950 . S
H572 C558 0.950 . S
H573 C559 0.950 . S
H574 C561 0.950 . S
H575 C562 0.951 . S
C576 C577 1.386 . S
C576 C578 1.383 . S
C576 H592 0.951 . S
C577 C576 1.386 . S
C577 C581 1.383 . S
C578 C576 1.383 . S
C578 C579 1.402 . S
C578 H593 0.948 1_455 S
C579 C578 1.402 . S
C579 C580 1.375 . S
C579 C582 1.481 1_554 S
C580 C579 1.375 . S
C580 C581 1.367 . S
C580 H594 0.951 1_554 S
C581 C577 1.383 . S
C581 C580 1.367 . S
C581 H595 0.950 . S
C582 C579 1.481 1_556 S
C582 C583 1.297 1_445 S
C582 H596 0.950 . S
C583 C582 1.297 1_665 S
C583 C584 1.479 . S
C583 H597 0.950 1_556 S
C584 C583 1.479 . S
C584 C585 1.375 . S
C584 C590 1.404 . S
C585 C584 1.375 . S
C585 C586 1.369 1_655 S
C585 H598 0.937 1_556 S
C586 C585 1.369 1_455 S
C586 C587 1.392 . S
C586 H599 0.951 . S
C587 C586 1.392 . S
C587 C589 1.384 . S
H588 C590 0.949 . S
C589 C587 1.384 . S
C589 C590 1.385 1_455 S
C589 H591 0.950 . S
C590 C584 1.404 . S
C590 H588 0.949 . S
C590 C589 1.385 1_655 S
H591 C589 0.950 . S
H592 C576 0.951 . S
H593 C578 0.948 1_655 S
H594 C580 0.951 1_556 S
H595 C581 0.950 . S
H596 C582 0.950 . S
H597 C583 0.950 1_554 S
H598 C585 0.937 1_554 S
H599 C586 0.951 . S
C600 C601 1.386 1_655 S
C600 C602 1.383 . S
C600 H616 0.951 . S
C601 C600 1.386 1_455 S
C601 C605 1.383 . S
C602 C600 1.383 . S
C602 C603 1.402 1_655 S
C602 H617 0.951 . S
C603 C602 1.402 1_455 S
C603 C604 1.375 . S
C603 C606 1.481 . S
C604 C603 1.375 . S
C604 C605 1.367 . S
C604 H618 0.951 . S
C605 C601 1.383 . S
C605 C604 1.367 . S
C605 H619 0.950 . S
C606 C603 1.481 . S
C606 C607 1.297 1_456 S
C606 H620 0.950 . S
C607 C606 1.297 1_654 S
C607 C608 1.479 . S
C607 H621 0.950 . S
C608 C607 1.479 . S
C608 C609 1.375 . S
C608 C614 1.404 1_655 S
C609 C608 1.375 . S
C609 C610 1.369 . S
C609 H622 0.950 . S
C610 C609 1.369 . S
C610 C611 1.392 1_655 S
C610 H623 0.951 . S
C611 C610 1.392 1_455 S
C611 C613 1.384 . S
H612 C614 0.949 . S
C613 C611 1.384 . S
C613 C614 1.385 . S
C613 H615 0.950 . S
C614 C608 1.404 1_455 S
C614 H612 0.949 . S
C614 C613 1.385 . S
H615 C613 0.950 . S
H616 C600 0.951 . S
H617 C602 0.951 . S
H618 C604 0.951 . S
H619 C605 0.950 . S
H620 C606 0.950 . S
H621 C607 0.950 . S
H622 C609 0.950 . S
H623 C610 0.951 . S
C624 C625 1.386 . S
C624 C626 1.383 . S
C624 H640 0.951 . S
C625 C624 1.386 . S
C625 C629 1.383 . S
C626 C624 1.383 . S
C626 C627 1.402 . S
C626 H641 0.951 . S
C627 C626 1.402 . S
C627 C628 1.375 . S
C627 C630 1.481 . S
C628 C627 1.375 . S
C628 C629 1.367 . S
C628 H642 0.951 . S
C629 C625 1.383 . S
C629 C628 1.367 . S
C629 H643 0.950 . S
C630 C627 1.481 . S
C630 C631 1.297 . S
C630 H644 0.950 . S
C631 C630 1.297 . S
C631 C632 1.479 . S
C631 H645 0.950 . S
C632 C631 1.479 . S
C632 C633 1.375 . S
C632 C638 1.404 . S
C633 C632 1.375 . S
C633 C634 1.369 . S
C633 H646 0.950 . S
C634 C633 1.369 . S
C634 C635 1.392 . S
C634 H647 0.951 . S
C635 C634 1.392 . S
C635 C637 1.384 . S
H636 C638 0.949 . S
C637 C635 1.384 . S
C637 C638 1.385 . S
C637 H639 0.950 . S
C638 C632 1.404 . S
C638 H636 0.949 . S
C638 C637 1.385 . S
H639 C637 0.950 . S
H640 C624 0.951 . S
H641 C626 0.951 . S
H642 C628 0.951 . S
H643 C629 0.950 . S
H644 C630 0.950 . S
H645 C631 0.950 . S
H646 C633 0.950 . S
H647 C634 0.951 . S
C648 C649 1.386 . S
C648 C650 1.383 . S
C648 H664 0.951 . S
C649 C648 1.386 . S
C649 C653 1.383 . S
C650 C648 1.383 . S
C650 C651 1.402 . S
C650 H665 0.951 . S
C651 C650 1.402 . S
C651 C652 1.375 . S
C651 C654 1.481 . S
C652 C651 1.375 . S
C652 C653 1.367 . S
C652 H666 0.951 . S
C653 C649 1.383 . S
C653 C652 1.367 . S
C653 H667 0.950 . S
C654 C651 1.481 . S
C654 C655 1.297 1_565 S
C654 H668 0.950 . S
C655 C654 1.297 1_545 S
C655 C656 1.479 . S
C655 H669 0.950 . S
C656 C655 1.479 . S
C656 C657 1.375 . S
C656 C662 1.404 . S
C657 C656 1.375 . S
C657 C658 1.369 . S
C657 H670 0.950 . S
C658 C657 1.369 . S
C658 C659 1.392 . S
C658 H671 0.951 . S
C659 C658 1.392 . S
C659 C661 1.384 . S
H660 C662 0.949 . S
C661 C659 1.384 . S
C661 C662 1.385 . S
C661 H663 0.950 . S
C662 C656 1.404 . S
C662 H660 0.949 . S
C662 C661 1.385 . S
H663 C661 0.950 . S
H664 C648 0.951 . S
H665 C650 0.951 . S
H666 C652 0.951 . S
H667 C653 0.950 . S
H668 C654 0.950 . S
H669 C655 0.950 . S
H670 C657 0.950 . S
H671 C658 0.951 . S
C289 C39 1.416 . S
C299 C3 1.418 . S
C313 C75 1.421 . S
C323 C111 1.418 . S
C337 C147 1.411 . S
C347 C183 1.395 . S
C361 C219 1.420 . S
C371 C255 1.419 . S
C385 C266 1.281 . S
C395 C14 1.249 . S
C409 C230 1.270 . S
C419 C50 1.276 . S
C433 C86 1.312 . S
C443 C194 1.292 . S
C457 C158 1.292 . S
C467 C122 1.252 . S
C481 C182 1.463 . S
C491 C74 1.445 . S
C505 C146 1.432 . S
C515 C110 1.408 . S
C529 C254 1.456 . S
C539 C2 1.470 . S
C553 C38 1.449 . S
C563 C218 1.416 . S
C577 C4 1.295 . S
C587 C76 1.273 . S
C601 C112 1.273 . S
C611 C40 1.300 . S
C625 C220 1.277 . S
C635 C148 1.300 . S
C649 C184 1.299 . S
C659 C256 1.259 . S
