# Generated by pormake.
# Topology ecs, (8)-cn, num edge types: 1
# Building blocks:
#     Node 0, Type 0, BuildingBlock: TAGTUT_clean_sbu_1, # of connection points: 8
#     Node 1, Type 0, BuildingBlock: TAGTUT_clean_sbu_1, # of connection points: 8
#     Node 2, Type 0, BuildingBlock: TAGTUT_clean_sbu_1, # of connection points: 8
#     Node 3, Type 0, BuildingBlock: TAGTUT_clean_sbu_1, # of connection points: 8
#     Node 4, Type 0, BuildingBlock: TAGTUT_clean_sbu_1, # of connection points: 8
#     Node 5, Type 0, BuildingBlock: TAGTUT_clean_sbu_1, # of connection points: 8
#     Node 6, Type 0, BuildingBlock: TAGTUT_clean_sbu_1, # of connection points: 8
#     Node 7, Type 0, BuildingBlock: TAGTUT_clean_sbu_1, # of connection points: 8
#     Node 8, Type 0, BuildingBlock: TAGTUT_clean_sbu_1, # of connection points: 8
#     Node 9, Type 0, BuildingBlock: TAGTUT_clean_sbu_1, # of connection points: 8
#     Node 10, Type 0, BuildingBlock: TAGTUT_clean_sbu_1, # of connection points: 8
#     Node 11, Type 0, BuildingBlock: TAGTUT_clean_sbu_1, # of connection points: 8
#     Edge 12, Type (0, 0), BuildingBlock: CIFDUS_clean_linker_0, # of connection points: 2
#     Edge 13, Type (0, 0), BuildingBlock: CIFDUS_clean_linker_0, # of connection points: 2
#     Edge 14, Type (0, 0), BuildingBlock: CIFDUS_clean_linker_0, # of connection points: 2
#     Edge 15, Type (0, 0), BuildingBlock: CIFDUS_clean_linker_0, # of connection points: 2
#     Edge 16, Type (0, 0), BuildingBlock: CIFDUS_clean_linker_0, # of connection points: 2
#     Edge 17, Type (0, 0), BuildingBlock: CIFDUS_clean_linker_0, # of connection points: 2
#     Edge 18, Type (0, 0), BuildingBlock: CIFDUS_clean_linker_0, # of connection points: 2
#     Edge 19, Type (0, 0), BuildingBlock: CIFDUS_clean_linker_0, # of connection points: 2
#     Edge 20, Type (0, 0), BuildingBlock: CIFDUS_clean_linker_0, # of connection points: 2
#     Edge 21, Type (0, 0), BuildingBlock: CIFDUS_clean_linker_0, # of connection points: 2
#     Edge 22, Type (0, 0), BuildingBlock: CIFDUS_clean_linker_0, # of connection points: 2
#     Edge 23, Type (0, 0), BuildingBlock: CIFDUS_clean_linker_0, # of connection points: 2
#     Edge 24, Type (0, 0), BuildingBlock: CIFDUS_clean_linker_0, # of connection points: 2
#     Edge 25, Type (0, 0), BuildingBlock: CIFDUS_clean_linker_0, # of connection points: 2
#     Edge 26, Type (0, 0), BuildingBlock: CIFDUS_clean_linker_0, # of connection points: 2
#     Edge 27, Type (0, 0), BuildingBlock: CIFDUS_clean_linker_0, # of connection points: 2
#     Edge 28, Type (0, 0), BuildingBlock: CIFDUS_clean_linker_0, # of connection points: 2
#     Edge 29, Type (0, 0), BuildingBlock: CIFDUS_clean_linker_0, # of connection points: 2
#     Edge 30, Type (0, 0), BuildingBlock: CIFDUS_clean_linker_0, # of connection points: 2
#     Edge 31, Type (0, 0), BuildingBlock: CIFDUS_clean_linker_0, # of connection points: 2
#     Edge 32, Type (0, 0), BuildingBlock: CIFDUS_clean_linker_0, # of connection points: 2
#     Edge 33, Type (0, 0), BuildingBlock: CIFDUS_clean_linker_0, # of connection points: 2
#     Edge 34, Type (0, 0), BuildingBlock: CIFDUS_clean_linker_0, # of connection points: 2
#     Edge 35, Type (0, 0), BuildingBlock: CIFDUS_clean_linker_0, # of connection points: 2
#     Edge 36, Type (0, 0), BuildingBlock: CIFDUS_clean_linker_0, # of connection points: 2
#     Edge 37, Type (0, 0), BuildingBlock: CIFDUS_clean_linker_0, # of connection points: 2
#     Edge 38, Type (0, 0), BuildingBlock: CIFDUS_clean_linker_0, # of connection points: 2
#     Edge 39, Type (0, 0), BuildingBlock: CIFDUS_clean_linker_0, # of connection points: 2
#     Edge 40, Type (0, 0), BuildingBlock: CIFDUS_clean_linker_0, # of connection points: 2
#     Edge 41, Type (0, 0), BuildingBlock: CIFDUS_clean_linker_0, # of connection points: 2
#     Edge 42, Type (0, 0), BuildingBlock: CIFDUS_clean_linker_0, # of connection points: 2
#     Edge 43, Type (0, 0), BuildingBlock: CIFDUS_clean_linker_0, # of connection points: 2
#     Edge 44, Type (0, 0), BuildingBlock: CIFDUS_clean_linker_0, # of connection points: 2
#     Edge 45, Type (0, 0), BuildingBlock: CIFDUS_clean_linker_0, # of connection points: 2
#     Edge 46, Type (0, 0), BuildingBlock: CIFDUS_clean_linker_0, # of connection points: 2
#     Edge 47, Type (0, 0), BuildingBlock: CIFDUS_clean_linker_0, # of connection points: 2
#     Edge 48, Type (0, 0), BuildingBlock: CIFDUS_clean_linker_0, # of connection points: 2
#     Edge 49, Type (0, 0), BuildingBlock: CIFDUS_clean_linker_0, # of connection points: 2
#     Edge 50, Type (0, 0), BuildingBlock: CIFDUS_clean_linker_0, # of connection points: 2
#     Edge 51, Type (0, 0), BuildingBlock: CIFDUS_clean_linker_0, # of connection points: 2
#     Edge 52, Type (0, 0), BuildingBlock: CIFDUS_clean_linker_0, # of connection points: 2
#     Edge 53, Type (0, 0), BuildingBlock: CIFDUS_clean_linker_0, # of connection points: 2
#     Edge 54, Type (0, 0), BuildingBlock: CIFDUS_clean_linker_0, # of connection points: 2
#     Edge 55, Type (0, 0), BuildingBlock: CIFDUS_clean_linker_0, # of connection points: 2
#     Edge 56, Type (0, 0), BuildingBlock: CIFDUS_clean_linker_0, # of connection points: 2
#     Edge 57, Type (0, 0), BuildingBlock: CIFDUS_clean_linker_0, # of connection points: 2
#     Edge 58, Type (0, 0), BuildingBlock: CIFDUS_clean_linker_0, # of connection points: 2
#     Edge 59, Type (0, 0), BuildingBlock: CIFDUS_clean_linker_0, # of connection points: 2
# Relax obj value: 0.346
# Max RMSD: 0.278
# Mean RMSD: 0.278
data_MOF--net-ecs--node1-TAGTUT_clean_sbu_1--edge1-CIFDUS_clean_linker_0
_symmetry_space_group_name_H-M    P1
_symmetry_Int_Tables_number       1
_symmetry_cell_setting            triclinic
loop_
_symmetry_equiv_pos_as_xyz
'x, y, z'
_cell_length_a     47.429616
_cell_length_b     47.379421
_cell_length_c     24.318579
_cell_angle_alpha  89.993215
_cell_angle_beta   90.137533
_cell_angle_gamma 119.97973
loop_
_atom_site_label
_atom_site_type_symbol
_atom_site_fract_x
_atom_site_fract_y
_atom_site_fract_z
_atom_type_partial_charge
C0 C 0.47272 0.42714 0.08904 0.0
C1 C 0.53532 0.39572 0.05133 0.0
C2 C 0.43629 0.27279 0.09941 0.0
Mg3 Mg 0.51075 0.40717 0.16396 0.0
O4 O 0.47382 0.36653 0.16207 0.0
Mg5 Mg 0.45668 0.3487 0.08604 0.0
Mg6 Mg 0.47743 0.32901 0.19116 0.0
O7 O 0.48186 0.29179 0.21731 0.0
Mg8 Mg 0.45215 0.24735 0.20893 0.0
Mg9 Mg 0.50673 0.30758 0.28686 0.0
C10 C 0.51944 0.38258 0.28414 0.0
C11 C 0.55589 0.35528 0.19527 0.0
O12 O 0.45891 0.39819 0.06864 0.0
O13 O 0.49068 0.43519 0.1322 0.0
O14 O 0.50686 0.37186 0.04046 0.0
O15 O 0.54129 0.41098 0.09665 0.0
O16 O 0.52644 0.40477 0.24753 0.0
O17 O 0.4972 0.35249 0.27684 0.0
C18 C 0.40267 0.3145 0.18413 0.0
O19 O 0.4229 0.30973 0.21295 0.0
O20 O 0.41001 0.32752 0.13607 0.0
O21 O 0.51988 0.26608 0.27573 0.0
O22 O 0.48636 0.23046 0.2121 0.0
O23 O 0.46026 0.2723 0.33636 0.0
C24 C 0.5113 0.24145 0.24358 0.0
O25 O 0.4246 0.23167 0.28244 0.0
O26 O 0.4305 0.24914 0.13185 0.0
C27 C 0.43348 0.24545 0.32923 0.0
O28 O 0.45783 0.30251 0.11027 0.0
O29 O 0.53229 0.35402 0.16732 0.0
O30 O 0.55109 0.3395 0.23973 0.0
C31 C 0.57559 0.05009 0.08968 0.0
C32 C 0.61121 0.14712 0.05952 0.0
C33 C 0.73155 0.16426 0.09586 0.0
Mg34 Mg 0.5989 0.10886 0.16771 0.0
O35 O 0.63779 0.10808 0.16285 0.0
Mg36 Mg 0.65448 0.10909 0.08612 0.0
Mg37 Mg 0.6769 0.14781 0.1914 0.0
O38 O 0.71506 0.18806 0.21878 0.0
Mg39 Mg 0.75914 0.20566 0.20484 0.0
Mg40 Mg 0.70094 0.19564 0.29093 0.0
C41 C 0.62656 0.13612 0.28957 0.0
C42 C 0.65331 0.20213 0.20358 0.0
O43 O 0.60462 0.06308 0.07025 0.0
O44 O 0.56802 0.06224 0.13039 0.0
O45 O 0.63152 0.13781 0.04683 0.0
O46 O 0.5979 0.14126 0.10679 0.0
O47 O 0.60303 0.1234 0.25441 0.0
O48 O 0.65567 0.14261 0.27806 0.0
C49 C 0.68903 0.08602 0.17862 0.0
O50 O 0.69499 0.11095 0.2086 0.0
O51 O 0.67534 0.08133 0.13121 0.0
O52 O 0.74284 0.24965 0.28572 0.0
O53 O 0.77257 0.25579 0.21006 0.0
O54 O 0.7365 0.18221 0.33405 0.0
C55 C 0.76416 0.26768 0.24978 0.0
O56 O 0.77805 0.19508 0.27628 0.0
O57 O 0.75572 0.18259 0.12707 0.0
C58 C 0.76492 0.18651 0.32355 0.0
O59 O 0.70195 0.15564 0.10854 0.0
O60 O 0.65331 0.18006 0.173 0.0
O61 O 0.6692 0.21107 0.24844 0.0
C62 C 0.96498 0.54006 0.0955 0.0
C63 C 0.87111 0.46943 0.06158 0.0
C64 C 0.83586 0.56189 0.0896 0.0
Mg65 Mg 0.9075 0.50128 0.17141 0.0
O66 O 0.90176 0.53698 0.16148 0.0
Mg67 Mg 0.89909 0.54983 0.08372 0.0
Mg68 Mg 0.86049 0.53238 0.1896 0.0
O69 O 0.81906 0.52648 0.21797 0.0
Mg70 Mg 0.79689 0.5481 0.20138 0.0
Mg71 Mg 0.81394 0.50659 0.29146 0.0
C72 C 0.87912 0.50165 0.29239 0.0
C73 C 0.81488 0.45379 0.20869 0.0
O74 O 0.94803 0.55074 0.07112 0.0
O75 O 0.95583 0.52348 0.14009 0.0
O76 O 0.87514 0.49726 0.04715 0.0
O77 O 0.87986 0.46504 0.10911 0.0
O78 O 0.89329 0.49195 0.25829 0.0
O79 O 0.8692 0.52148 0.2787 0.0
C80 C 0.91681 0.60796 0.17382 0.0
O81 O 0.8924 0.58799 0.2035 0.0
O82 O 0.92279 0.5994 0.12705 0.0
O83 O 0.75831 0.48505 0.28343 0.0
O84 O 0.74965 0.50707 0.20778 0.0
O85 O 0.81789 0.55323 0.33198 0.0
C86 C 0.73955 0.48565 0.24586 0.0
O87 O 0.80249 0.57798 0.27005 0.0
O88 O 0.81643 0.56558 0.12144 0.0
C89 C 0.8083 0.57348 0.31949 0.0
O90 O 0.84952 0.54539 0.1044 0.0
O91 O 0.83321 0.47572 0.17405 0.0
O92 O 0.80625 0.46135 0.25304 0.0
C93 C 0.43197 0.4863 0.37987 0.0
C94 C 0.38755 0.53639 0.42939 0.0
C95 C 0.27221 0.43126 0.38058 0.0
Mg96 Mg 0.40289 0.51985 0.31313 0.0
O97 O 0.36665 0.47775 0.31322 0.0
Mg98 Mg 0.35074 0.45809 0.38843 0.0
Mg99 Mg 0.32612 0.47625 0.28746 0.0
O100 O 0.28653 0.477 0.26414 0.0
Mg101 Mg 0.2429 0.44583 0.27453 0.0
Mg102 Mg 0.29992 0.50229 0.19486 0.0
C103 C 0.37563 0.52118 0.19137 0.0
C104 C 0.34629 0.55345 0.28646 0.0
O105 O 0.40376 0.46802 0.40155 0.0
O106 O 0.43673 0.50569 0.33977 0.0
O107 O 0.36836 0.50586 0.43568 0.0
O108 O 0.40227 0.54795 0.38392 0.0
O109 O 0.39856 0.53257 0.22766 0.0
O110 O 0.347 0.49698 0.20136 0.0
C111 C 0.31855 0.40387 0.2904 0.0
O112 O 0.31087 0.42264 0.26346 0.0
O113 O 0.3332 0.4123 0.33711 0.0
O114 O 0.2565 0.51136 0.20758 0.0
O115 O 0.2235 0.47801 0.27372 0.0
O116 O 0.26637 0.45481 0.14644 0.0
C117 C 0.23263 0.50227 0.24125 0.0
O118 O 0.22763 0.41794 0.2015 0.0
O119 O 0.2478 0.42499 0.3497 0.0
C120 C 0.24061 0.42718 0.15437 0.0
O121 O 0.30139 0.45387 0.36896 0.0
O122 O 0.3472 0.5306 0.3132 0.0
O123 O 0.33014 0.54786 0.24213 0.0
C124 C 0.53177 0.95131 0.38412 0.0
C125 C 0.47659 0.85678 0.43499 0.0
C126 C 0.57043 0.83389 0.38445 0.0
Mg127 Mg 0.49249 0.8885 0.31768 0.0
O128 O 0.53325 0.89139 0.31577 0.0
Mg129 Mg 0.55379 0.89373 0.39022 0.0
Mg130 Mg 0.53068 0.85058 0.28881 0.0
O131 O 0.52576 0.80844 0.26505 0.0
Mg132 Mg 0.55437 0.79265 0.27528 0.0
Mg133 Mg 0.50192 0.79979 0.19455 0.0
C134 C 0.48806 0.8597 0.19426 0.0
C135 C 0.45167 0.79918 0.28331 0.0
O136 O 0.54946 0.93995 0.40335 0.0
O137 O 0.51035 0.93691 0.34632 0.0
O138 O 0.50686 0.86668 0.44054 0.0
O139 O 0.46526 0.86089 0.39004 0.0
O140 O 0.47777 0.87186 0.23141 0.0
O141 O 0.51125 0.85359 0.20351 0.0
C142 C 0.60522 0.91216 0.289 0.0
O143 O 0.58484 0.88582 0.26335 0.0
O144 O 0.59875 0.91917 0.33659 0.0
O145 O 0.48784 0.74522 0.20518 0.0
O146 O 0.51992 0.7419 0.27014 0.0
O147 O 0.54963 0.81154 0.14887 0.0
C148 C 0.49537 0.72863 0.23783 0.0
O149 O 0.58443 0.80675 0.20528 0.0
O150 O 0.57407 0.81415 0.35329 0.0
C151 C 0.5767 0.81241 0.15815 0.0
O152 O 0.5522 0.84571 0.37039 0.0
O153 O 0.47531 0.82078 0.31242 0.0
O154 O 0.45672 0.78786 0.23939 0.0
C155 C 0.04772 0.57402 0.37601 0.0
C156 C 0.14289 0.60972 0.41911 0.0
C157 C 0.16942 0.73043 0.37873 0.0
Mg158 Mg 0.10851 0.59714 0.30509 0.0
O159 O 0.10724 0.63613 0.30846 0.0
Mg160 Mg 0.10699 0.65341 0.38405 0.0
Mg161 Mg 0.1476 0.67439 0.28119 0.0
O162 O 0.18907 0.71098 0.25439 0.0
Mg163 Mg 0.21048 0.75527 0.2685 0.0
Mg164 Mg 0.19553 0.6949 0.18304 0.0
C165 C 0.13483 0.62328 0.18254 0.0
C166 C 0.19857 0.64711 0.27367 0.0
O167 O 0.06064 0.60268 0.39769 0.0
O168 O 0.06028 0.56717 0.33514 0.0
O169 O 0.13419 0.63091 0.42742 0.0
O170 O 0.13744 0.59471 0.37318 0.0
O171 O 0.12323 0.59985 0.21787 0.0
O172 O 0.1418 0.65242 0.19502 0.0
C173 C 0.08774 0.68925 0.28763 0.0
O174 O 0.11325 0.6946 0.26031 0.0
O175 O 0.08103 0.67494 0.33467 0.0
O176 O 0.25062 0.73261 0.18758 0.0
O177 O 0.25904 0.764 0.26193 0.0
O178 O 0.18494 0.73269 0.14059 0.0
C179 C 0.26946 0.75273 0.22426 0.0
O180 O 0.1988 0.77439 0.19907 0.0
O181 O 0.19009 0.75331 0.34778 0.0
C182 C 0.18909 0.761 0.15209 0.0
O183 O 0.1551 0.70028 0.36371 0.0
O184 O 0.17752 0.64933 0.30343 0.0
O185 O 0.20773 0.66137 0.22749 0.0
C186 C 0.49582 0.76546 0.73582 0.0
C187 C 0.57715 0.7629 0.65737 0.0
C188 C 0.48914 0.6268 0.69408 0.0
Mg189 Mg 0.55453 0.76028 0.77424 0.0
O190 O 0.52554 0.71589 0.76453 0.0
Mg191 Mg 0.50227 0.70057 0.69349 0.0
Mg192 Mg 0.53024 0.67878 0.78972 0.0
O193 O 0.53264 0.64048 0.81786 0.0
Mg194 Mg 0.49178 0.60251 0.81866 0.0
Mg195 Mg 0.55162 0.65888 0.89315 0.0
C196 C 0.56951 0.73533 0.8846 0.0
C197 C 0.60495 0.69277 0.79467 0.0
O198 O 0.48817 0.74117 0.70344 0.0
O199 O 0.52035 0.77677 0.76818 0.0
O200 O 0.55014 0.73663 0.64811 0.0
O201 O 0.58483 0.77623 0.70455 0.0
O202 O 0.57393 0.75867 0.85261 0.0
O203 O 0.55052 0.70525 0.87143 0.0
C204 C 0.45128 0.65112 0.78154 0.0
O205 O 0.47472 0.65321 0.81124 0.0
O206 O 0.45658 0.66726 0.73732 0.0
O207 O 0.54676 0.6082 0.9096 0.0
O208 O 0.50812 0.57156 0.8526 0.0
O209 O 0.50373 0.6394 0.94031 0.0
C210 C 0.5288 0.57883 0.89181 0.0
O211 O 0.46314 0.60384 0.88779 0.0
O212 O 0.47852 0.60428 0.7312 0.0
C213 C 0.47354 0.61939 0.93284 0.0
O214 O 0.51193 0.65623 0.70398 0.0
O215 O 0.58478 0.69838 0.76758 0.0
O216 O 0.59767 0.67872 0.84187 0.0
C217 C 0.23535 0.72853 0.72942 0.0
C218 C 0.24375 0.81364 0.64998 0.0
C219 C 0.37841 0.8571 0.69633 0.0
Mg220 Mg 0.24329 0.79348 0.76844 0.0
O221 O 0.28728 0.80686 0.76148 0.0
Mg222 Mg 0.30324 0.79815 0.69198 0.0
Mg223 Mg 0.32521 0.84719 0.78942 0.0
O224 O 0.36414 0.88648 0.81954 0.0
Mg225 Mg 0.4016 0.8826 0.8215 0.0
Mg226 Mg 0.34516 0.88723 0.89363 0.0
C227 C 0.26788 0.83162 0.88092 0.0
C228 C 0.31455 0.91007 0.79437 0.0
O229 O 0.26054 0.74457 0.69883 0.0
O230 O 0.22461 0.74236 0.7615 0.0
O231 O 0.26978 0.81214 0.64284 0.0
O232 O 0.22996 0.80898 0.69656 0.0
O233 O 0.24479 0.81433 0.84717 0.0
O234 O 0.29786 0.8411 0.86973 0.0
C235 C 0.34758 0.79194 0.78589 0.0
O236 O 0.34709 0.81452 0.81418 0.0
O237 O 0.333 0.78264 0.73995 0.0
O238 O 0.39553 0.93228 0.91175 0.0
O239 O 0.43271 0.92946 0.8577 0.0
O240 O 0.36434 0.8579 0.94016 0.0
C241 C 0.425 0.94333 0.89543 0.0
O242 O 0.399 0.85087 0.88834 0.0
O243 O 0.40048 0.86861 0.73424 0.0
C244 C 0.38379 0.84686 0.93354 0.0
O245 O 0.34907 0.85103 0.70492 0.0
O246 O 0.30878 0.88464 0.76603 0.0
O247 O 0.32711 0.91516 0.84273 0.0
C248 C 0.26701 0.51745 0.73349 0.0
C249 C 0.19892 0.43064 0.6556 0.0
C250 C 0.13333 0.50948 0.68411 0.0
Mg251 Mg 0.20945 0.45494 0.77516 0.0
O252 O 0.1833 0.47129 0.75321 0.0
Mg253 Mg 0.19384 0.49698 0.68373 0.0
Mg254 Mg 0.14541 0.47142 0.78532 0.0
O255 O 0.10852 0.47424 0.81695 0.0
Mg256 Mg 0.11309 0.51575 0.80949 0.0
Mg257 Mg 0.11197 0.461 0.89462 0.0
C258 C 0.1684 0.43879 0.88389 0.0
C259 C 0.08255 0.3994 0.81041 0.0
O260 O 0.24917 0.51595 0.69258 0.0
O261 O 0.25593 0.49766 0.77382 0.0
O262 O 0.18751 0.44948 0.643 0.0
O263 O 0.20661 0.42753 0.70468 0.0
O264 O 0.18816 0.43513 0.85293 0.0
O265 O 0.1558 0.45621 0.86901 0.0
C266 C 0.19866 0.54927 0.7716 0.0
O267 O 0.17882 0.52666 0.80342 0.0
O268 O 0.2057 0.54314 0.72468 0.0
O269 O 0.06884 0.47008 0.91208 0.0
O270 O 0.06714 0.50218 0.84478 0.0
O271 O 0.14412 0.51179 0.92898 0.0
C272 C 0.05609 0.48562 0.88909 0.0
O273 O 0.14592 0.54939 0.87201 0.0
O274 O 0.12401 0.52285 0.72057 0.0
C275 C 0.15353 0.54143 0.91753 0.0
O276 O 0.13936 0.48648 0.69615 0.0
O277 O 0.1053 0.41562 0.77466 0.0
O278 O 0.08153 0.412 0.85646 0.0
C279 C 0.74353 0.4821 0.74015 0.0
C280 C 0.75436 0.56778 0.82291 0.0
C281 C 0.61462 0.49347 0.78164 0.0
Mg282 Mg 0.74805 0.54574 0.70321 0.0
O283 O 0.70342 0.52255 0.71406 0.0
Mg284 Mg 0.68591 0.49878 0.78408 0.0
Mg285 Mg 0.66939 0.53141 0.68681 0.0
O286 O 0.63493 0.53963 0.65888 0.0
Mg287 Mg 0.59208 0.50704 0.66449 0.0
Mg288 Mg 0.65246 0.55441 0.58252 0.0
C289 C 0.72733 0.56704 0.59417 0.0
C290 C 0.69073 0.60826 0.67955 0.0
O291 O 0.72178 0.4788 0.77514 0.0
O292 O 0.75628 0.50566 0.70591 0.0
O293 O 0.72539 0.54423 0.83213 0.0
O294 O 0.7676 0.57325 0.7757 0.0
O295 O 0.74941 0.56869 0.62668 0.0
O296 O 0.69669 0.54898 0.60465 0.0
C297 C 0.63684 0.45211 0.69051 0.0
O298 O 0.64025 0.47634 0.66185 0.0
O299 O 0.65123 0.45599 0.73633 0.0
O300 O 0.60511 0.55676 0.56598 0.0
O301 O 0.56907 0.53253 0.63449 0.0
O302 O 0.62473 0.50263 0.54271 0.0
C303 C 0.57747 0.54799 0.58883 0.0
O304 O 0.5839 0.47312 0.60029 0.0
O305 O 0.59253 0.48996 0.74707 0.0
C306 C 0.59915 0.47587 0.5558 0.0
O307 O 0.64521 0.51355 0.77323 0.0
O308 O 0.69326 0.5866 0.70826 0.0
O309 O 0.67784 0.60194 0.6312 0.0
C310 C 0.5189 0.26686 0.74484 0.0
C311 C 0.44307 0.19063 0.83558 0.0
C312 C 0.52595 0.1365 0.77728 0.0
Mg313 Mg 0.4566 0.20442 0.71313 0.0
O314 O 0.48342 0.18666 0.71988 0.0
Mg315 Mg 0.51156 0.19606 0.78554 0.0
Mg316 Mg 0.47929 0.14648 0.68956 0.0
O317 O 0.47673 0.10677 0.65784 0.0
Mg318 Mg 0.51706 0.10921 0.65385 0.0
Mg319 Mg 0.45667 0.10754 0.58479 0.0
C320 C 0.43822 0.16616 0.60059 0.0
C321 C 0.40521 0.08465 0.68706 0.0
O322 O 0.52512 0.24989 0.7787 0.0
O323 O 0.49407 0.25424 0.71312 0.0
O324 O 0.46694 0.18511 0.839 0.0
O325 O 0.43223 0.19433 0.78972 0.0
O326 O 0.43429 0.18425 0.63532 0.0
O327 O 0.45641 0.15378 0.61156 0.0
C328 C 0.55704 0.20091 0.68513 0.0
O329 O 0.53264 0.1786 0.65893 0.0
O330 O 0.55419 0.20986 0.73288 0.0
O331 O 0.4616 0.06231 0.56288 0.0
O332 O 0.50039 0.06293 0.61766 0.0
O333 O 0.50493 0.13753 0.53824 0.0
C334 C 0.4795 0.05044 0.57866 0.0
O335 O 0.54589 0.14158 0.58914 0.0
O336 O 0.53364 0.12347 0.738 0.0
C337 C 0.53525 0.14776 0.54527 0.0
O338 O 0.50245 0.14271 0.77253 0.0
O339 O 0.42587 0.10957 0.71559 0.0
O340 O 0.41145 0.07969 0.6377 0.0
C341 C 0.73608 0.24349 0.73073 0.0
C342 C 0.81033 0.24485 0.82612 0.0
C343 C 0.86676 0.38389 0.7808 0.0
Mg344 Mg 0.80179 0.24951 0.70397 0.0
O345 O 0.81604 0.29368 0.71186 0.0
Mg346 Mg 0.80485 0.30926 0.77937 0.0
Mg347 Mg 0.8572 0.33081 0.68595 0.0
O348 O 0.8974 0.36871 0.65739 0.0
Mg349 Mg 0.89701 0.40783 0.65836 0.0
Mg350 Mg 0.89644 0.3507 0.5811 0.0
C351 C 0.84071 0.27355 0.59274 0.0
C352 C 0.91803 0.31655 0.67501 0.0
O353 O 0.7508 0.26821 0.76313 0.0
O354 O 0.7511 0.23253 0.70222 0.0
O355 O 0.81353 0.27327 0.8309 0.0
O356 O 0.8102 0.23252 0.77952 0.0
O357 O 0.82403 0.25059 0.62694 0.0
O358 O 0.85007 0.30362 0.60398 0.0
C359 C 0.80477 0.35756 0.68787 0.0
O360 O 0.82722 0.35611 0.6609 0.0
O361 O 0.79339 0.34164 0.73188 0.0
O362 O 0.94233 0.40166 0.56464 0.0
O363 O 0.94519 0.43737 0.62901 0.0
O364 O 0.86775 0.37067 0.53762 0.0
C365 C 0.95636 0.43031 0.58649 0.0
O366 O 0.86893 0.40976 0.58944 0.0
O367 O 0.88028 0.40582 0.74323 0.0
C368 C 0.8607 0.393 0.54541 0.0
O369 O 0.85971 0.35401 0.77301 0.0
O370 O 0.89405 0.3119 0.70665 0.0
O371 O 0.92253 0.33024 0.62787 0.0
H372 H 0.57661 0.27607 0.23401 0.0
H373 H 0.49538 0.17792 0.23178 0.0
H374 H 0.53206 0.15697 0.21009 0.0
H375 H 0.5878 0.16674 0.1963 0.0
H376 H 0.66859 0.26505 0.19722 0.0
H377 H 0.63149 0.28605 0.21286 0.0
C378 C 0.56706 0.25007 0.22943 0.0
C379 C 0.53355 0.22843 0.23588 0.0
C380 C 0.58809 0.2384 0.21507 0.0
C381 C 0.52123 0.19491 0.22798 0.0
C382 C 0.54213 0.183 0.21507 0.0
C383 C 0.59703 0.19278 0.19733 0.0
C384 C 0.63073 0.21442 0.1939 0.0
C385 C 0.57561 0.20454 0.20837 0.0
C386 C 0.64262 0.24807 0.19822 0.0
C387 C 0.62149 0.26001 0.20816 0.0
H388 H 0.79333 0.40981 0.28999 0.0
H389 H 0.8171 0.41961 0.11727 0.0
H390 H 0.80667 0.36328 0.11589 0.0
H391 H 0.78925 0.31095 0.16467 0.0
H392 H 0.76493 0.30347 0.33727 0.0
H393 H 0.77729 0.35981 0.33764 0.0
C394 C 0.79624 0.39992 0.25156 0.0
C395 C 0.8066 0.41929 0.20377 0.0
C396 C 0.79023 0.36801 0.25136 0.0
C397 C 0.81003 0.40561 0.15484 0.0
C398 C 0.80388 0.37337 0.15413 0.0
C399 C 0.78726 0.32189 0.20256 0.0
C400 C 0.77621 0.30303 0.251 0.0
C401 C 0.79408 0.35439 0.20237 0.0
C402 C 0.77329 0.31737 0.29953 0.0
C403 C 0.78024 0.34954 0.29972 0.0
H404 H 0.68755 0.48612 0.2024 0.0
H405 H 0.7183 0.42279 0.27502 0.0
H406 H 0.66542 0.37527 0.25372 0.0
H407 H 0.60993 0.35219 0.21736 0.0
H408 H 0.57709 0.4174 0.16483 0.0
H409 H 0.63167 0.46328 0.1697 0.0
C410 C 0.68253 0.4619 0.21385 0.0
C411 C 0.70645 0.45787 0.24064 0.0
C412 C 0.65218 0.43488 0.20198 0.0
C413 C 0.69985 0.42647 0.2554 0.0
C414 C 0.66988 0.39929 0.24245 0.0
C415 C 0.61506 0.37635 0.20526 0.0
C416 C 0.58974 0.38091 0.18547 0.0
C417 C 0.64588 0.40325 0.21569 0.0
C418 C 0.59643 0.4125 0.17269 0.0
C419 C 0.62758 0.43912 0.17879 0.0
H420 H 0.16125 0.58209 0.28429 0.0
H421 H 0.2606 0.66087 0.28475 0.0
H422 H 0.27997 0.62213 0.27356 0.0
H423 H 0.26828 0.56675 0.25355 0.0
H424 H 0.16929 0.4872 0.25443 0.0
H425 H 0.14975 0.52537 0.27459 0.0
C426 C 0.18711 0.59051 0.28472 0.0
C427 C 0.20959 0.62406 0.28687 0.0
C428 C 0.19793 0.56814 0.27631 0.0
C429 C 0.24304 0.63501 0.28457 0.0
C430 C 0.25404 0.61295 0.2772 0.0
C431 C 0.24239 0.55786 0.25774 0.0
C432 C 0.22005 0.52456 0.25088 0.0
C433 C 0.23164 0.57966 0.27095 0.0
C434 C 0.18673 0.51295 0.25842 0.0
C435 C 0.17567 0.53468 0.27036 0.0
H436 H 0.41116 0.57979 0.29524 0.0
H437 H 0.33488 0.60394 0.29234 0.0
H438 H 0.37488 0.66096 0.27345 0.0
H439 H 0.43074 0.70248 0.24887 0.0
H440 H 0.50713 0.67835 0.25213 0.0
H441 H 0.46768 0.62218 0.27835 0.0
C442 C 0.40349 0.59776 0.29321 0.0
C443 C 0.37025 0.58786 0.29673 0.0
C444 C 0.42643 0.63005 0.27985 0.0
C445 C 0.36048 0.61124 0.29124 0.0
C446 C 0.38324 0.64364 0.27932 0.0
C447 C 0.43859 0.68472 0.25455 0.0
C448 C 0.47149 0.69404 0.24703 0.0
C449 C 0.41607 0.653 0.27152 0.0
C450 C 0.48173 0.67134 0.25653 0.0
C451 C 0.4593 0.63944 0.27213 0.0
H452 H 0.32248 0.80459 0.26942 0.0
H453 H 0.28973 0.7104 0.19548 0.0
H454 H 0.34143 0.71379 0.21819 0.0
H455 H 0.39642 0.744 0.25699 0.0
H456 H 0.4322 0.84222 0.31279 0.0
H457 H 0.37864 0.83601 0.30373 0.0
C458 C 0.32686 0.78501 0.2578 0.0
C459 C 0.3025 0.75753 0.23029 0.0
C460 C 0.35678 0.78722 0.27038 0.0
C461 C 0.30839 0.73221 0.21558 0.0
C462 C 0.33775 0.73387 0.22931 0.0
C463 C 0.39219 0.76368 0.26877 0.0
C464 C 0.418 0.79272 0.29034 0.0
C465 C 0.36208 0.76122 0.25688 0.0
C466 C 0.41242 0.81849 0.30262 0.0
C467 C 0.38189 0.81541 0.2946 0.0
H468 H 0.43123 0.72712 0.74728 0.0
H469 H 0.50782 0.82758 0.75007 0.0
H470 H 0.46869 0.84442 0.77767 0.0
H471 H 0.41228 0.83041 0.79632 0.0
H472 H 0.33581 0.73002 0.79259 0.0
H473 H 0.37561 0.71288 0.77298 0.0
C474 C 0.43918 0.75274 0.75308 0.0
C475 C 0.47204 0.77626 0.74507 0.0
C476 C 0.41686 0.762 0.77085 0.0
C477 C 0.48243 0.80923 0.7548 0.0
C478 C 0.46019 0.81876 0.77125 0.0
C479 C 0.40457 0.80474 0.79373 0.0
C480 C 0.37133 0.78142 0.79721 0.0
C481 C 0.42736 0.79533 0.77954 0.0
C482 C 0.36143 0.74826 0.79153 0.0
C483 C 0.38407 0.73856 0.7791 0.0
H484 H 0.16203 0.57774 0.77442 0.0
H485 H 0.26076 0.59721 0.78591 0.0
H486 H 0.28113 0.65529 0.77043 0.0
H487 H 0.27055 0.69931 0.74524 0.0
H488 H 0.17183 0.68027 0.7348 0.0
H489 H 0.15136 0.6227 0.75697 0.0
C490 C 0.18792 0.59495 0.77609 0.0
C491 C 0.20995 0.58359 0.78296 0.0
C492 C 0.19928 0.62794 0.765 0.0
C493 C 0.2435 0.60578 0.78232 0.0
C494 C 0.25508 0.63878 0.77243 0.0
C495 C 0.24455 0.68238 0.7471 0.0
C496 C 0.22258 0.69347 0.73683 0.0
C497 C 0.23317 0.64988 0.76183 0.0
C498 C 0.18902 0.67184 0.7414 0.0
C499 C 0.1774 0.63915 0.75464 0.0
H500 H 0.31997 0.51806 0.77584 0.0
H501 H 0.28722 0.57994 0.70419 0.0
H502 H 0.34013 0.62807 0.72326 0.0
H503 H 0.39625 0.6522 0.75777 0.0
H504 H 0.43128 0.58837 0.80898 0.0
H505 H 0.37693 0.54184 0.80462 0.0
C506 C 0.32461 0.5421 0.7641 0.0
C507 C 0.30004 0.54557 0.73837 0.0
C508 C 0.35518 0.56947 0.77405 0.0
C509 C 0.30613 0.57673 0.72315 0.0
C510 C 0.33617 0.60424 0.73468 0.0
C511 C 0.39169 0.62819 0.7696 0.0
C512 C 0.41752 0.62435 0.78921 0.0
C513 C 0.36089 0.60089 0.76017 0.0
C514 C 0.41158 0.59284 0.80103 0.0
C515 C 0.38053 0.56583 0.79562 0.0
H516 H 0.7989 0.48602 0.70168 0.0
H517 H 0.70235 0.41764 0.75906 0.0
H518 H 0.71059 0.3722 0.73514 0.0
H519 H 0.74612 0.35212 0.70187 0.0
H520 H 0.84581 0.42129 0.6641 0.0
H521 H 0.83494 0.46589 0.67135 0.0
C522 C 0.77978 0.46116 0.70925 0.0
C523 C 0.75026 0.45517 0.73266 0.0
C524 C 0.78481 0.43521 0.69611 0.0
C525 C 0.7256 0.42288 0.74221 0.0
C526 C 0.7301 0.39689 0.72778 0.0
C527 C 0.76513 0.37693 0.69335 0.0
C528 C 0.7962 0.38302 0.67751 0.0
C529 C 0.75965 0.4028 0.70478 0.0
C530 C 0.82097 0.41538 0.66946 0.0
C531 C 0.81506 0.44116 0.67668 0.0
H532 H 0.64512 0.40107 0.70408 0.0
H533 H 0.57419 0.42734 0.65447 0.0
H534 H 0.53084 0.37096 0.66289 0.0
H535 H 0.51233 0.31573 0.69901 0.0
H536 H 0.58341 0.29302 0.76462 0.0
H537 H 0.6272 0.34672 0.73882 0.0
C538 C 0.62023 0.39418 0.69349 0.0
C539 C 0.61301 0.4182 0.67661 0.0
C540 C 0.59523 0.36259 0.70454 0.0
C541 C 0.58073 0.4092 0.664 0.0
C542 C 0.55573 0.37703 0.67101 0.0
C543 C 0.5374 0.3227 0.70793 0.0
C544 C 0.54455 0.30069 0.7346 0.0
C545 C 0.56258 0.35388 0.69366 0.0
C546 C 0.57715 0.30983 0.7455 0.0
C547 C 0.60228 0.34034 0.72997 0.0
H548 H 0.58666 0.16571 0.67504 0.0
H549 H 0.6024 0.26322 0.66397 0.0
H550 H 0.66073 0.28564 0.67931 0.0
H551 H 0.70557 0.2772 0.7091 0.0
H552 H 0.68974 0.17963 0.7222 0.0
H553 H 0.63273 0.15723 0.69467 0.0
C554 C 0.60315 0.19179 0.67313 0.0
C555 C 0.59054 0.21284 0.66728 0.0
C556 C 0.63624 0.20438 0.6853 0.0
C557 C 0.61187 0.24666 0.66695 0.0
C558 C 0.64503 0.25943 0.6771 0.0
C559 C 0.68944 0.25104 0.70647 0.0
C560 C 0.70126 0.22994 0.71927 0.0
C561 C 0.65714 0.2385 0.68904 0.0
C562 C 0.68072 0.19616 0.71373 0.0
C563 C 0.64834 0.18343 0.69737 0.0
H564 H 0.47732 0.51754 0.89689 0.0
H565 H 0.57221 0.58037 0.9678 0.0
H566 H 0.56123 0.53989 0.03928 0.0
H567 H 0.52417 0.48789 0.08289 0.0
H568 H 0.42959 0.4247 0.01162 0.0
H569 H 0.44054 0.46511 0.93975 0.0
C570 C 0.49598 0.52219 0.92717 0.0
C571 C 0.52572 0.55191 0.92669 0.0
C572 C 0.48908 0.49938 0.96908 0.0
C573 C 0.54927 0.55762 0.96695 0.0
C574 C 0.54283 0.53469 0.00821 0.0
C575 C 0.50556 0.48323 0.05248 0.0
C576 C 0.47578 0.45361 0.0532 0.0
C577 C 0.51256 0.50587 0.01029 0.0
C578 C 0.45242 0.44755 0.01241 0.0
C579 C 0.45888 0.47042 0.97098 0.0
H580 H 0.515 0.04067 0.0777 0.0
H581 H 0.57797 0.00481 0.02359 0.0
H582 H 0.53771 0.97076 0.95442 0.0
H583 H 0.48557 0.95252 0.90832 0.0
H584 H 0.42265 0.98859 0.96198 0.0
H585 H 0.46276 0.02237 0.0315 0.0
C586 C 0.5196 0.02482 0.05165 0.0
C587 C 0.54915 0.02481 0.0562 0.0
C588 C 0.49694 0.00629 0.0109 0.0
C589 C 0.55518 0.00487 0.02118 0.0
C590 C 0.53238 0.98574 0.9813 0.0
C591 C 0.48087 0.96828 0.93439 0.0
C592 C 0.45135 0.96838 0.92957 0.0
C593 C 0.50348 0.98676 0.97519 0.0
C594 C 0.44535 0.98837 0.96456 0.0
C595 C 0.46807 0.00737 0.00467 0.0
H596 H 0.96501 0.53296 0.98627 0.0
H597 H 0.0187 0.53895 0.13352 0.0
H598 H 0.05005 0.51939 0.08241 0.0
H599 H 0.05943 0.49743 -0.00264 0.0
H600 H 0.00492 0.49072 0.8509 0.0
H601 H 0.97521 0.5124 0.9012 0.0
C602 C 0.98423 0.53093 0.00688 0.0
C603 C 0.98992 0.53777 0.06335 0.0
C604 C 1.00079 0.51815 0.97809 0.0
C605 C 0.01428 0.5342 0.08985 0.0
C606 C 0.03176 0.52253 0.06091 0.0
C607 C 0.04042 0.49993 0.97693 0.0
C608 C 0.03358 0.49173 0.92108 0.0
C609 C 0.02445 0.51348 0.00549 0.0
C610 C 0.00991 0.49625 0.89428 0.0
C611 C 0.99337 0.50907 0.92273 0.0
H612 H 0.44088 0.50203 0.48598 0.0
H613 H 0.48842 0.49065 0.34388 0.0
H614 H 0.54006 0.51439 0.39471 0.0
H615 H 0.57091 0.53767 0.47965 0.0
H616 H 0.52327 0.54961 0.62144 0.0
H617 H 0.47243 0.52803 0.56931 0.0
C618 C 0.4624 0.50393 0.46677 0.0
C619 C 0.46085 0.49349 0.41223 0.0
C620 C 0.49203 0.51895 0.49527 0.0
C621 C 0.48907 0.49757 0.38652 0.0
C622 C 0.51856 0.51163 0.41521 0.0
C623 C 0.54971 0.53654 0.49868 0.0
C624 C 0.55085 0.54549 0.55417 0.0
C625 C 0.52034 0.5227 0.46938 0.0
C626 C 0.52298 0.54319 0.5786 0.0
C627 C 0.49384 0.53032 0.54915 0.0
H628 H 0.4807 0.96147 0.38913 0.0
H629 H 0.57738 0.996 0.45415 0.0
H630 H 0.56804 0.02756 0.52386 0.0
H631 H 0.53165 0.04262 0.56857 0.0
H632 H 0.43491 0.00826 0.5041 0.0
H633 H 0.44468 0.97779 0.43257 0.0
C634 C 0.5001 0.9765 0.41763 0.0
C635 C 0.52982 0.97655 0.41633 0.0
C636 C 0.4941 0.99344 0.45871 0.0
C637 C 0.55442 0.99576 0.45415 0.0
C638 C 0.54892 0.0134 0.49439 0.0
C639 C 0.51235 0.02798 0.53963 0.0
C640 C 0.48233 0.02722 0.54216 0.0
C641 C 0.51856 0.01165 0.49783 0.0
C642 C 0.45801 0.00881 0.50339 0.0
C643 C 0.46376 0.99179 0.46219 0.0
H644 H 0.95559 0.43666 0.47695 0.0
H645 H 0.00794 0.48682 0.62367 0.0
H646 H 0.03813 0.5375 0.57152 0.0
H647 H 0.04817 0.5675 0.48515 0.0
H648 H 0.99633 0.51741 0.3381 0.0
H649 H 0.96591 0.46668 0.39024 0.0
C650 C 0.9743 0.45847 0.49712 0.0
C651 C 0.98016 0.458 0.55371 0.0
C652 C 0.99043 0.48764 0.46747 0.0
C653 C 0.00359 0.48662 0.57987 0.0
C654 C 0.02039 0.51561 0.55031 0.0
C655 C 0.02951 0.54569 0.46489 0.0
C656 C 0.02376 0.54621 0.40829 0.0
C657 C 0.01344 0.51651 0.49445 0.0
C658 C 1.0005 0.51757 0.38195 0.0
C659 C 0.9836 0.48856 0.41151 0.0
H660 H 0.52928 0.3796 0.94234 0.0
H661 H 0.5975 0.4472 0.06079 0.0
H662 H 0.63133 0.48243 0.98692 0.0
H663 H 0.63639 0.49893 0.88875 0.0
H664 H 0.56742 0.43072 0.77186 0.0
H665 H 0.53988 0.39117 0.84424 0.0
C666 C 0.552 0.40152 0.9521 0.0
C667 C 0.56019 0.41096 0.00721 0.0
C668 C 0.57118 0.42218 0.90935 0.0
C669 C 0.59008 0.4394 0.01877 0.0
C670 C 0.6095 0.45983 0.97644 0.0
C671 C 0.6158 0.47515 0.87918 0.0
C672 C 0.60344 0.46827 0.82529 0.0
C673 C 0.59947 0.45231 0.92156 0.0
C674 C 0.57694 0.4371 0.81333 0.0
C675 C 0.56109 0.4143 0.85472 0.0
H676 H 0.63233 0.16238 0.95406 0.0
H677 H 0.55723 0.15433 0.06362 0.0
H678 H 0.52495 0.15424 0.9852 0.0
H679 H 0.51395 0.1468 0.88449 0.0
H680 H 0.58938 0.15315 0.77738 0.0
H681 H 0.62526 0.16381 0.85517 0.0
C682 C 0.60929 0.16144 0.96103 0.0
C683 C 0.59704 0.1576 0.01472 0.0
C684 C 0.59037 0.16042 0.91575 0.0
C685 C 0.56728 0.15696 0.02275 0.0
C686 C 0.54855 0.15659 0.97777 0.0
C687 C 0.53842 0.1511 0.87828 0.0
C688 C 0.5485 0.14829 0.82517 0.0
C689 C 0.55913 0.1567 0.92389 0.0
C690 C 0.58053 0.15435 0.81779 0.0
C691 C 0.60126 0.16055 0.86237 0.0
H692 H 0.86976 0.36896 0.88976 0.0
H693 H 0.84044 0.42274 0.78377 0.0
H694 H 0.83459 0.45093 0.86251 0.0
H695 H 0.84591 0.46666 0.95933 0.0
H696 H 0.87563 0.41392 0.06714 0.0
H697 H 0.87267 0.379 -0.00914 0.0
C698 C 0.86122 0.38616 0.88426 0.0
C699 C 0.85601 0.39402 0.83074 0.0
C700 C 0.85846 0.40302 0.9302 0.0
C701 C 0.84504 0.4165 0.82434 0.0
C702 C 0.84176 0.43279 0.86945 0.0
C703 C 0.85107 0.4471 0.96656 0.0
C704 C 0.86154 0.44348 0.01893 0.0
C705 C 0.84971 0.42727 0.92229 0.0
C706 C 0.86772 0.41761 0.02732 0.0
C707 C 0.86623 0.39764 0.98348 0.0
H708 H 0.42585 0.58316 0.6723 0.0
H709 H 0.5155 0.65258 0.59397 0.0
H710 H 0.49007 0.6342 0.50335 0.0
H711 H 0.44436 0.59359 0.44687 0.0
H712 H 0.35487 0.52435 0.52641 0.0
H713 H 0.37791 0.54812 0.61578 0.0
C714 C 0.43974 0.59446 0.63536 0.0
C715 C 0.47271 0.61871 0.63973 0.0
C716 C 0.42491 0.58388 0.58355 0.0
C717 C 0.49016 0.63369 0.59163 0.0
C718 C 0.47563 0.62313 0.53982 0.0
C719 C 0.42952 0.58434 0.48352 0.0
C720 C 0.39799 0.55694 0.47979 0.0
C721 C 0.44325 0.59763 0.53523 0.0
C722 C 0.37925 0.54525 0.52796 0.0
C723 C 0.39251 0.55865 0.57925 0.0
H724 H 0.42473 0.84106 0.67582 0.0
H725 H 0.35243 0.85641 0.59518 0.0
H726 H 0.37359 0.85268 0.50522 0.0
H727 H 0.41732 0.85236 0.45052 0.0
H728 H 0.48975 0.83764 0.53288 0.0
H729 H 0.46337 0.83308 0.62091 0.0
C730 C 0.41335 0.84325 0.63855 0.0
C731 C 0.38749 0.84971 0.64213 0.0
C732 C 0.42572 0.84123 0.58721 0.0
C733 C 0.37252 0.85169 0.5935 0.0
C734 C 0.38471 0.84967 0.54208 0.0
C735 C 0.42688 0.84732 0.48748 0.0
C736 C 0.45584 0.84585 0.48498 0.0
C737 C 0.41197 0.84545 0.53847 0.0
C738 C 0.46775 0.83925 0.53348 0.0
C739 C 0.45278 0.83682 0.584 0.0
H740 H 0.15859 0.57317 0.65939 0.0
H741 H 0.12544 0.47934 0.5843 0.0
H742 H 0.13051 0.50344 0.49284 0.0
H743 H 0.13745 0.54997 0.4359 0.0
H744 H 0.1704 0.64337 0.51325 0.0
H745 H 0.17313 0.62084 0.60187 0.0
C746 C 0.15281 0.55803 0.62296 0.0
C747 C 0.14101 0.52439 0.62857 0.0
C748 C 0.15582 0.57204 0.57086 0.0
C749 C 0.13436 0.50525 0.581 0.0
C750 C 0.13717 0.51903 0.52876 0.0
C751 C 0.14621 0.56564 0.47179 0.0
C752 C 0.15339 0.5983 0.46785 0.0
C753 C 0.14698 0.55226 0.52328 0.0
C754 C 0.16451 0.61815 0.51502 0.0
C755 C 0.16585 0.60522 0.5659 0.0
H756 H 0.41827 0.58452 0.17077 0.0
H757 H 0.34995 0.49472 0.09064 0.0
H758 H 0.37091 0.51965 0.00058 0.0
H759 H 0.41458 0.56411 0.9465 0.0
H760 H 0.48375 0.65301 0.02867 0.0
H761 H 0.45603 0.63152 0.11589 0.0
C762 C 0.40761 0.57053 0.13354 0.0
C763 C 0.38312 0.53762 0.13726 0.0
C764 C 0.42007 0.58485 0.08228 0.0
C765 C 0.369 0.52003 0.08877 0.0
C766 C 0.38111 0.53424 0.03733 0.0
C767 C 0.42306 0.57916 0.98316 0.0
C768 C 0.4516 0.60995 0.98112 0.0
C769 C 0.40751 0.56625 0.03373 0.0
C770 C 0.46213 0.6291 0.0291 0.0
C771 C 0.44639 0.61676 0.07913 0.0
H772 H 0.43984 0.8448 0.94909 0.0
H773 H 0.35187 0.82687 0.03151 0.0
H774 H 0.37574 0.82634 0.12016 0.0
H775 H 0.4244 0.83968 0.17499 0.0
H776 H 0.51264 0.85801 0.09361 0.0
H777 H 0.48589 0.84968 0.00399 0.0
C778 C 0.42548 0.83977 0.98622 0.0
C779 C 0.39422 0.83637 0.98351 0.0
C780 C 0.43974 0.84044 0.03747 0.0
C781 C 0.37607 0.82988 0.03227 0.0
C782 C 0.38981 0.82986 0.08314 0.0
C783 C 0.43769 0.84157 0.13763 0.0
C784 C 0.47069 0.85025 0.14078 0.0
C785 C 0.42214 0.83667 0.08638 0.0
C786 C 0.48732 0.8517 0.09218 0.0
C787 C 0.47203 0.84698 0.04094 0.0
H788 H 0.1454 0.59379 0.93407 0.0
H789 H 0.18616 0.53927 0.00806 0.0
H790 H 0.18583 0.56183 0.09801 0.0
H791 H 0.16497 0.58924 0.15755 0.0
H792 H 0.12494 0.64449 0.08446 0.0
H793 H 0.1337 0.62931 -0.00766 0.0
C794 C 0.15546 0.58789 0.96943 0.0
C795 C 0.16537 0.56451 0.96441 0.0
C796 C 0.15425 0.60019 0.02153 0.0
C797 C 0.17819 0.55705 0.01084 0.0
C798 C 0.17761 0.5696 0.06248 0.0
C799 C 0.1585 0.59817 0.12132 0.0
C800 C 0.1436 0.6172 0.12742 0.0
C801 C 0.16407 0.58978 0.06868 0.0
C802 C 0.13609 0.62944 0.08047 0.0
C803 C 0.14113 0.6208 0.0279 0.0
H804 H 0.50251 0.36878 0.39219 0.0
H805 H 0.58466 0.42076 0.28449 0.0
H806 H 0.61898 0.45135 0.36178 0.0
H807 H 0.62279 0.47055 0.45643 0.0
H808 H 0.54037 0.41973 0.56465 0.0
H809 H 0.50953 0.38154 0.49163 0.0
C810 C 0.52817 0.38599 0.38619 0.0
C811 C 0.54094 0.39287 0.33279 0.0
C812 C 0.54768 0.40436 0.4309 0.0
C813 C 0.57422 0.41533 0.32529 0.0
C814 C 0.59386 0.43302 0.36945 0.0
C815 C 0.59836 0.45072 0.46446 0.0
C816 C 0.5838 0.44868 0.51561 0.0
C817 C 0.58042 0.42896 0.42196 0.0
C818 C 0.55222 0.42237 0.52544 0.0
C819 C 0.53437 0.40043 0.48356 0.0
H820 H 0.59443 0.15243 0.53254 0.0
H821 H 0.52422 0.16984 0.44842 0.0
H822 H 0.54998 0.17209 0.36063 0.0
H823 H 0.58509 0.15838 0.30727 0.0
H824 H 0.65396 0.13868 0.38989 0.0
H825 H 0.63602 0.14803 0.47914 0.0
C826 C 0.58532 0.1577 0.49527 0.0
C827 C 0.55691 0.16014 0.49689 0.0
C828 C 0.59943 0.15763 0.44465 0.0
C829 C 0.54572 0.16735 0.44823 0.0
C830 C 0.56026 0.16835 0.39794 0.0
C831 C 0.59645 0.15652 0.34482 0.0
C832 C 0.62007 0.14692 0.34244 0.0
C833 C 0.58586 0.16166 0.39552 0.0
C834 C 0.63536 0.14557 0.39102 0.0
C835 C 0.62507 0.15087 0.44192 0.0
H836 H 0.85743 0.43823 0.30876 0.0
H837 H 0.87698 0.52606 0.39349 0.0
H838 H 0.86636 0.49759 0.48212 0.0
H839 H 0.8596 0.44988 0.53454 0.0
H840 H 0.83893 0.36216 0.447 0.0
H841 H 0.84091 0.38829 0.36006 0.0
C842 C 0.85884 0.451 0.3466 0.0
C843 C 0.86865 0.48425 0.34511 0.0
C844 C 0.85231 0.43445 0.39665 0.0
C845 C 0.86981 0.50047 0.39405 0.0
C846 C 0.86374 0.48421 0.44452 0.0
C847 C 0.85437 0.43607 0.49663 0.0
C848 C 0.85006 0.40439 0.49726 0.0
C849 C 0.856 0.45143 0.44634 0.0
C850 C 0.84288 0.38675 0.44775 0.0
C851 C 0.84417 0.40171 0.39785 0.0
H852 H 0.32825 0.35741 0.3379 0.0
H853 H 0.30646 0.38561 0.18168 0.0
H854 H 0.32324 0.35103 0.13411 0.0
H855 H 0.35644 0.32469 0.13655 0.0
H856 H 0.38445 0.30262 0.29277 0.0
H857 H 0.35203 0.3219 0.34046 0.0
C858 C 0.3263 0.35537 0.29346 0.0
C859 C 0.31702 0.37496 0.26337 0.0
C860 C 0.33764 0.33682 0.26627 0.0
C861 C 0.31388 0.37125 0.20596 0.0
C862 C 0.3238 0.35166 0.17867 0.0
C863 C 0.35478 0.32316 0.18103 0.0
C864 C 0.37387 0.31319 0.21101 0.0
C865 C 0.33767 0.33611 0.20829 0.0
C866 C 0.37055 0.31061 0.26851 0.0
C867 C 0.35225 0.322 0.2959 0.0
H868 H 0.65407 0.96878 0.33177 0.0
H869 H 0.61785 0.91752 0.17798 0.0
H870 H 0.64867 0.96869 0.12794 0.0
H871 H 0.6743 0.02832 0.12974 0.0
H872 H 0.70542 0.0796 0.2846 0.0
H873 H 0.68886 0.02825 0.33191 0.0
C874 C 0.65362 0.96854 0.28717 0.0
C875 C 0.63281 0.93928 0.25888 0.0
C876 C 0.67005 0.99833 0.25879 0.0
C877 C 0.63325 0.93953 0.20107 0.0
C878 C 0.65063 0.96896 0.17237 0.0
C879 C 0.67838 0.02853 0.17367 0.0
C880 C 0.69031 0.05792 0.20365 0.0
C881 C 0.66735 0.99866 0.20105 0.0
C882 C 0.69594 0.05751 0.26038 0.0
C883 C 0.68618 0.028 0.28761 0.0
H884 H 0.03151 0.68147 0.33216 0.0
H885 H 0.08388 0.70242 0.17879 0.0
H886 H 0.03369 0.68649 0.12816 0.0
H887 H 0.97407 0.65353 0.1274 0.0
H888 H 0.92152 0.62839 0.28092 0.0
H889 H 0.97247 0.65998 0.33103 0.0
C890 C 0.03223 0.68357 0.2877 0.0
C891 C 0.06137 0.69212 0.25939 0.0
C892 C 0.00296 0.67305 0.25863 0.0
C893 C 0.06184 0.69544 0.20185 0.0
C894 C 0.03298 0.68602 0.17271 0.0
C895 C 0.97353 0.65581 0.17171 0.0
C896 C 0.94393 0.63746 0.20033 0.0
C897 C 0.00315 0.67272 0.20059 0.0
C898 C 0.94383 0.6416 0.25763 0.0
C899 C 0.97312 0.65943 0.28651 0.0
H900 H 0.65222 0.68319 0.83946 0.0
H901 H 0.62265 0.70669 0.68611 0.0
H902 H 0.65646 0.69014 0.63572 0.0
H903 H 0.68184 0.65605 0.63472 0.0
H904 H 0.70526 0.62636 0.78804 0.0
H905 H 0.68751 0.65916 0.83861 0.0
C906 C 0.65384 0.68563 0.79507 0.0
C907 C 0.63394 0.69517 0.7666 0.0
C908 C 0.67192 0.67437 0.76617 0.0
C909 C 0.63716 0.69896 0.70921 0.0
C910 C 0.65633 0.68918 0.68026 0.0
C911 C 0.68408 0.65747 0.67917 0.0
C912 C 0.6938 0.63767 0.7075 0.0
C913 C 0.67193 0.67478 0.70816 0.0
C914 C 0.69734 0.64073 0.76499 0.0
C915 C 0.68681 0.65926 0.79406 0.0
H916 H 0.32681 0.96726 0.84155 0.0
H917 H 0.30345 0.91703 0.68541 0.0
H918 H 0.32317 0.96885 0.63766 0.0
H919 H 0.35866 0.02815 0.64005 0.0
H920 H 0.38798 0.07816 0.79623 0.0
H921 H 0.35377 0.02682 0.84394 0.0
C922 C 0.32515 0.9674 0.79707 0.0
C923 C 0.31452 0.93821 0.76713 0.0
C924 C 0.33827 0.99748 0.76978 0.0
C925 C 0.31188 0.939 0.70964 0.0
C926 C 0.3235 0.96876 0.68222 0.0
C927 C 0.357 0.02812 0.68452 0.0
C928 C 0.37675 0.05702 0.71449 0.0
C929 C 0.33863 0.99822 0.7118 0.0
C930 C 0.37353 0.05639 0.77199 0.0
C931 C 0.35413 0.02689 0.79938 0.0
H932 H 0.93566 0.31222 0.78151 0.0
H933 H 0.96405 0.31361 0.61267 0.0
H934 H 0.02037 0.33552 0.64042 0.0
H935 H 0.06256 0.36824 0.70984 0.0
H936 H 0.03371 0.35979 0.88004 0.0
H937 H 0.97704 0.32602 0.85443 0.0
C938 C 0.95379 0.31575 0.75103 0.0
C939 C 0.94583 0.31305 0.69492 0.0
C940 C 0.98647 0.32803 0.7672 0.0
C941 C 0.96967 0.31683 0.65623 0.0
C942 C 1.00212 0.32959 0.6719 0.0
C943 C 0.04412 0.3579 0.74159 0.0
C944 C 0.05243 0.3683 0.79631 0.0
C945 C 0.01114 0.33763 0.7269 0.0
C946 C 0.02807 0.35355 0.83701 0.0
C947 C 0.99539 0.33414 0.82256 0.0
H948 H 0.39254 0.17962 0.90433 0.0
H949 H 0.4914 0.24922 0.8603 0.0
H950 H 0.49296 0.28778 0.92722 0.0
H951 H 0.47043 0.29781 0.00837 0.0
H952 H 0.37601 0.22506 0.0663 0.0
H953 H 0.36736 0.19268 0.98293 0.0
C954 C 0.41427 0.20316 0.91 0.0
C955 C 0.4422 0.2113 0.87919 0.0
C956 C 0.41547 0.22496 0.95045 0.0
C957 C 0.47004 0.24217 0.88516 0.0
C958 C 0.47084 0.26442 0.92286 0.0
C959 C 0.44737 0.2756 0.00151 0.0
C960 C 0.42416 0.26344 0.04322 0.0
C961 C 0.44417 0.25567 0.95699 0.0
C962 C 0.39431 0.23467 0.0343 0.0
C963 C 0.38968 0.21582 0.98733 0.0
H964 H 0.70453 0.16859 0.00172 0.0
H965 H 0.77945 0.15174 0.06618 0.0
H966 H 0.81075 0.17238 0.98145 0.0
H967 H 0.82263 0.2079 0.89944 0.0
H968 H 0.74882 0.22843 0.84154 0.0
H969 H 0.71155 0.19414 0.91249 0.0
C970 C 0.72689 0.16792 -0.00397 0.0
C971 C 0.74014 0.15952 0.04011 0.0
C972 C 0.74575 0.18196 0.94904 0.0
C973 C 0.76909 0.15859 0.03253 0.0
C974 C 0.78728 0.17096 0.98454 0.0
C975 C 0.79828 0.20439 0.90236 0.0
C976 C 0.78872 0.22141 0.86703 0.0
C977 C 0.77698 0.18499 0.94431 0.0
C978 C 0.75687 0.21623 0.86977 0.0
C979 C 0.73543 0.19643 0.90998 0.0
H980 H 0.81723 0.60396 0.05456 0.0
H981 H 0.85704 0.54503 -0.00383 0.0
H982 H 0.84054 0.54906 0.90226 0.0
H983 H 0.80362 0.5579 0.84295 0.0
H984 H 0.75313 0.60496 0.90814 0.0
H985 H 0.78431 0.6166 -0.00589 0.0
C986 C 0.82286 0.59238 0.02123 0.0
C987 C 0.83744 0.57332 0.03254 0.0
C988 C 0.81049 0.59206 0.96899 0.0
C989 C 0.84556 0.55952 -0.01131 0.0
C990 C 0.83568 0.56144 0.93519 0.0
C991 C 0.80024 0.57155 0.8756 0.0
C992 C 0.77653 0.58093 0.86981 0.0
C993 C 0.81639 0.57586 0.92575 0.0
C994 C 0.77146 0.59782 0.91217 0.0
C995 C 0.78919 0.60431 0.96104 0.0
H996 H 0.30188 0.45841 0.47658 0.0
H997 H 0.22278 0.37093 0.40693 0.0
H998 H 0.1921 0.35988 0.49222 0.0
H999 H 0.18248 0.38339 0.57657 0.0
H1000 H 0.26199 0.47137 0.64426 0.0
H1001 H 0.29756 0.47421 0.57005 0.0
C1002 C 0.27869 0.43609 0.48108 0.0
C1003 C 0.26396 0.41625 0.43529 0.0
C1004 C 0.26056 0.43078 0.52917 0.0
C1005 C 0.23417 0.38703 0.44171 0.0
C1006 C 0.21634 0.38097 0.49009 0.0
C1007 C 0.20772 0.40269 0.57519 0.0
C1008 C 0.21952 0.42772 0.61414 0.0
C1009 C 0.22826 0.40409 0.53238 0.0
C1010 C 0.2524 0.45234 0.61337 0.0
C1011 C 0.27282 0.45388 0.5713 0.0
H1012 H 0.57448 0.81581 0.63402 0.0
H1013 H 0.61208 0.75536 0.57503 0.0
H1014 H 0.62377 0.78282 0.48549 0.0
H1015 H 0.61131 0.81389 0.4207 0.0
H1016 H 0.5602 0.86301 0.47467 0.0
H1017 H 0.56724 0.85179 0.57029 0.0
C1018 C 0.58635 0.80961 0.60194 0.0
C1019 C 0.5928 0.78403 0.61036 0.0
C1020 C 0.59014 0.82336 0.54978 0.0
C1021 C 0.60731 0.77525 0.56891 0.0
C1022 C 0.61371 0.79078 0.51794 0.0
C1023 C 0.60213 0.82273 0.45329 0.0
C1024 C 0.58409 0.83819 0.44048 0.0
C1025 C 0.6034 0.8134 0.5072 0.0
C1026 C 0.57359 0.85054 0.48328 0.0
C1027 C 0.57732 0.84379 0.53791 0.0
H1028 H 0.19276 0.75643 0.62758 0.0
H1029 H 0.24949 0.85413 0.56481 0.0
H1030 H 0.22116 0.83629 0.476 0.0
H1031 H 0.18948 0.79156 0.41326 0.0
H1032 H 0.14345 0.69212 0.47093 0.0
H1033 H 0.1567 0.71182 0.56581 0.0
C1034 C 0.19803 0.77393 0.59477 0.0
C1035 C 0.22271 0.80651 0.60204 0.0
C1036 C 0.18361 0.76292 0.54321 0.0
C1037 C 0.2303 0.82907 0.55964 0.0
C1038 C 0.21425 0.81876 0.50912 0.0
C1039 C 0.18178 0.77403 0.44658 0.0
C1040 C 0.16641 0.74037 0.43498 0.0
C1041 C 0.19218 0.78549 0.49983 0.0
C1042 C 0.15562 0.71809 0.47866 0.0
C1043 C 0.16359 0.7294 0.53279 0.0
H1044 H 0.60978 0.79641 0.92079 0.0
H1045 H 0.55987 0.69612 0.9748 0.0
H1046 H 0.5676 0.71434 0.07041 0.0
H1047 H 0.57498 0.75735 0.13456 0.0
H1048 H 0.61105 0.85526 0.07592 0.0
H1049 H 0.62241 0.83981 0.98586 0.0
C1050 C 0.601 0.77836 0.95335 0.0
C1051 C 0.58315 0.74485 0.94058 0.0
C1052 C 0.60266 0.7889 0.00738 0.0
C1053 C 0.57312 0.72199 0.98335 0.0
C1054 C 0.57727 0.73244 0.03801 0.0
C1055 C 0.58648 0.77548 0.10243 0.0
C1056 C 0.59256 0.80735 0.11108 0.0
C1057 C 0.58996 0.76564 0.05001 0.0
C1058 C 0.60658 0.83072 0.06961 0.0
C1059 C 0.61277 0.82176 0.01833 0.0
H1060 H 0.20652 0.81054 0.91538 0.0
H1061 H 0.30628 0.8608 0.9723 0.0
H1062 H 0.28733 0.85068 0.06736 0.0
H1063 H 0.24394 0.81532 0.13056 0.0
H1064 H 0.14663 0.75326 0.06931 0.0
H1065 H 0.16266 0.78017 0.9795 0.0
C1066 C 0.2243 0.8199 0.94842 0.0
C1067 C 0.25788 0.83547 0.93663 0.0
C1068 C 0.21335 0.81126 0.00228 0.0
C1069 C 0.28037 0.84828 0.98005 0.0
C1070 C 0.2695 0.84222 0.03444 0.0
C1071 C 0.226 0.80869 0.09801 0.0
C1072 C 0.19417 0.78268 0.1059 0.0
C1073 C 0.23623 0.82189 0.04562 0.0
C1074 C 0.17114 0.77344 0.06369 0.0
C1075 C 0.18044 0.78861 0.01249 0.0
H1076 H 0.18532 0.39539 0.91886 0.0
H1077 H 0.14397 0.45326 0.97578 0.0
H1078 H 0.15628 0.44601 0.07073 0.0
H1079 H 0.19099 0.43561 0.13258 0.0
H1080 H 0.24369 0.39016 0.0705 0.0
H1081 H 0.21522 0.38026 0.98194 0.0
C1082 C 0.17842 0.40602 0.95204 0.0
C1083 C 0.16473 0.4258 0.9402 0.0
C1084 C 0.1884 0.40445 0.00537 0.0
C1085 C 0.15488 0.43832 0.98368 0.0
C1086 C 0.16232 0.4345 0.03787 0.0
C1087 C 0.19529 0.42254 0.1 0.0
C1088 C 0.21894 0.41325 0.10728 0.0
C1089 C 0.18094 0.4195 0.04853 0.0
C1090 C 0.22529 0.39711 0.06526 0.0
C1091 C 0.20918 0.39172 0.01487 0.0
H1092 H 0.825 0.61685 0.40562 0.0
H1093 H 0.74413 0.53645 0.32365 0.0
H1094 H 0.70759 0.53193 0.39757 0.0
H1095 H 0.70142 0.54381 0.49349 0.0
H1096 H 0.78152 0.62503 0.57527 0.0
H1097 H 0.8149 0.6374 0.49297 0.0
C1098 C 0.79926 0.599 0.40365 0.0
C1099 C 0.78726 0.57662 0.36025 0.0
C1100 C 0.77812 0.59673 0.4462 0.0
C1101 C 0.75382 0.55369 0.35738 0.0
C1102 C 0.73287 0.55109 0.39951 0.0
C1103 C 0.72556 0.56518 0.49229 0.0
C1104 C 0.73931 0.58293 0.54053 0.0
C1105 C 0.74501 0.57156 0.4453 0.0
C1106 C 0.77063 0.61068 0.53852 0.0
C1107 C 0.78995 0.6175 0.49176 0.0
H1108 H 0.4357 0.19182 0.35103 0.0
H1109 H 0.40253 0.25467 0.41635 0.0
H1110 H 0.39196 0.22689 0.50546 0.0
H1111 H 0.40235 0.1929 0.56725 0.0
H1112 H 0.44727 0.13908 0.50636 0.0
H1113 H 0.44177 0.15388 0.41223 0.0
C1114 C 0.42511 0.19858 0.38446 0.0
C1115 C 0.41938 0.22479 0.37762 0.0
C1116 C 0.42159 0.18424 0.4362 0.0
C1117 C 0.40665 0.23428 0.42103 0.0
C1118 C 0.40088 0.21853 0.47179 0.0
C1119 C 0.41048 0.18378 0.53351 0.0
C1120 C 0.42602 0.16552 0.54416 0.0
C1121 C 0.40978 0.19465 0.48037 0.0
C1122 C 0.43556 0.15339 0.49961 0.0
C1123 C 0.43271 0.16217 0.44579 0.0
H1124 H 0.81598 0.24455 0.34377 0.0
H1125 H 0.76137 0.14729 0.40926 0.0
H1126 H 0.78986 0.1665 0.49756 0.0
H1127 H 0.82079 0.21201 0.55922 0.0
H1128 H 0.86462 0.31079 0.49873 0.0
H1129 H 0.85125 0.29009 0.40453 0.0
C1130 C 0.81128 0.22741 0.37692 0.0
C1131 C 0.7871 0.19451 0.37038 0.0
C1132 C 0.82562 0.23919 0.42841 0.0
C1133 C 0.78022 0.17255 0.41361 0.0
C1134 C 0.79632 0.18365 0.46396 0.0
C1135 C 0.82805 0.22925 0.52554 0.0
C1136 C 0.84293 0.26301 0.53631 0.0
C1137 C 0.81769 0.21715 0.47247 0.0
C1138 C 0.85286 0.28477 0.49186 0.0
C1139 C 0.84488 0.27288 0.43803 0.0
loop_
_geom_bond_atom_site_label_1
_geom_bond_atom_site_label_2
_geom_bond_distance
_geom_bond_site_symmetry_2
_ccdc_geom_bond_type
C0 O12 1.241 . S
C0 O13 1.280 . S
C1 O14 1.277 . S
C1 O15 1.245 1_556 S
C2 O26 1.247 . S
C2 O28 1.289 . S
Mg3 O4 1.926 . S
Mg3 O13 1.984 . S
Mg3 O15 1.988 . S
Mg3 O16 2.061 . S
O4 Mg3 1.926 . S
O4 Mg5 1.986 . S
O4 Mg6 1.917 . S
Mg5 O4 1.986 . S
Mg5 O12 2.042 . S
Mg5 O14 2.041 1_554 S
Mg5 O20 2.038 . S
Mg5 O28 2.238 . S
Mg6 O4 1.917 . S
Mg6 O7 1.917 . S
Mg6 O17 2.106 . S
Mg6 O19 2.079 . S
Mg6 O28 2.106 . S
Mg6 O29 2.079 . S
O7 Mg6 1.917 . S
O7 Mg8 1.926 . S
O7 Mg9 1.986 . S
Mg8 O7 1.926 . S
Mg8 O22 1.984 . S
Mg8 O25 1.988 . S
Mg8 O26 2.061 . S
Mg9 O7 1.986 . S
Mg9 O17 2.238 . S
Mg9 O21 2.042 . S
Mg9 O23 2.041 . S
Mg9 O30 2.038 . S
C10 O16 1.247 . S
C10 O17 1.289 . S
C11 O29 1.245 . S
C11 O30 1.274 . S
O12 C0 1.241 . S
O12 Mg5 2.042 . S
O13 C0 1.280 . S
O13 Mg3 1.984 . S
O14 C1 1.277 . S
O14 Mg5 2.041 1_556 S
O15 C1 1.245 1_554 S
O15 Mg3 1.988 . S
O16 Mg3 2.061 . S
O16 C10 1.247 . S
O17 Mg6 2.106 . S
O17 Mg9 2.238 . S
O17 C10 1.289 . S
C18 O19 1.245 . S
C18 O20 1.274 . S
O19 Mg6 2.079 . S
O19 C18 1.245 . S
O20 Mg5 2.038 . S
O20 C18 1.274 . S
O21 Mg9 2.042 . S
O21 C24 1.241 . S
O22 Mg8 1.984 . S
O22 C24 1.280 . S
O23 Mg9 2.041 . S
O23 C27 1.277 . S
C24 O21 1.241 . S
C24 O22 1.280 . S
O25 Mg8 1.988 . S
O25 C27 1.245 . S
O26 C2 1.247 . S
O26 Mg8 2.061 . S
C27 O23 1.277 . S
C27 O25 1.245 . S
O28 C2 1.289 . S
O28 Mg5 2.238 . S
O28 Mg6 2.106 . S
O29 Mg6 2.079 . S
O29 C11 1.245 . S
O30 Mg9 2.038 . S
O30 C11 1.274 . S
C31 O43 1.241 . S
C31 O44 1.280 . S
C32 O45 1.277 . S
C32 O46 1.245 1_556 S
C33 O57 1.247 . S
C33 O59 1.289 . S
Mg34 O35 1.926 . S
Mg34 O44 1.984 . S
Mg34 O46 1.988 . S
Mg34 O47 2.061 . S
O35 Mg34 1.926 . S
O35 Mg36 1.986 . S
O35 Mg37 1.917 . S
Mg36 O35 1.986 . S
Mg36 O43 2.042 . S
Mg36 O45 2.041 1_554 S
Mg36 O51 2.038 . S
Mg36 O59 2.238 . S
Mg37 O35 1.917 . S
Mg37 O38 1.917 . S
Mg37 O48 2.106 . S
Mg37 O50 2.079 . S
Mg37 O59 2.106 . S
Mg37 O60 2.079 . S
O38 Mg37 1.917 . S
O38 Mg39 1.926 . S
O38 Mg40 1.986 . S
Mg39 O38 1.926 . S
Mg39 O53 1.984 . S
Mg39 O56 1.988 . S
Mg39 O57 2.061 . S
Mg40 O38 1.986 . S
Mg40 O48 2.238 . S
Mg40 O52 2.042 . S
Mg40 O54 2.041 . S
Mg40 O61 2.038 . S
C41 O47 1.247 . S
C41 O48 1.289 . S
C42 O60 1.245 . S
C42 O61 1.274 . S
O43 C31 1.241 . S
O43 Mg36 2.042 . S
O44 C31 1.280 . S
O44 Mg34 1.984 . S
O45 C32 1.277 . S
O45 Mg36 2.041 1_556 S
O46 C32 1.245 1_554 S
O46 Mg34 1.988 . S
O47 Mg34 2.061 . S
O47 C41 1.247 . S
O48 Mg37 2.106 . S
O48 Mg40 2.238 . S
O48 C41 1.289 . S
C49 O50 1.245 . S
C49 O51 1.274 . S
O50 Mg37 2.079 . S
O50 C49 1.245 . S
O51 Mg36 2.038 . S
O51 C49 1.274 . S
O52 Mg40 2.042 . S
O52 C55 1.241 . S
O53 Mg39 1.984 . S
O53 C55 1.280 . S
O54 Mg40 2.041 . S
O54 C58 1.277 . S
C55 O52 1.241 . S
C55 O53 1.280 . S
O56 Mg39 1.988 . S
O56 C58 1.245 . S
O57 C33 1.247 . S
O57 Mg39 2.061 . S
C58 O54 1.277 . S
C58 O56 1.245 . S
O59 C33 1.289 . S
O59 Mg36 2.238 . S
O59 Mg37 2.106 . S
O60 Mg37 2.079 . S
O60 C42 1.245 . S
O61 Mg40 2.038 . S
O61 C42 1.274 . S
C62 O74 1.241 . S
C62 O75 1.280 . S
C63 O76 1.277 . S
C63 O77 1.245 1_556 S
C64 O88 1.247 . S
C64 O90 1.289 . S
Mg65 O66 1.926 . S
Mg65 O75 1.984 . S
Mg65 O77 1.988 . S
Mg65 O78 2.061 . S
O66 Mg65 1.926 . S
O66 Mg67 1.986 . S
O66 Mg68 1.917 . S
Mg67 O66 1.986 . S
Mg67 O74 2.042 . S
Mg67 O76 2.041 1_554 S
Mg67 O82 2.038 . S
Mg67 O90 2.238 . S
Mg68 O66 1.917 . S
Mg68 O69 1.917 . S
Mg68 O79 2.106 . S
Mg68 O81 2.079 . S
Mg68 O90 2.106 . S
Mg68 O91 2.079 . S
O69 Mg68 1.917 . S
O69 Mg70 1.926 . S
O69 Mg71 1.986 . S
Mg70 O69 1.926 . S
Mg70 O84 1.984 . S
Mg70 O87 1.988 . S
Mg70 O88 2.061 . S
Mg71 O69 1.986 . S
Mg71 O79 2.238 . S
Mg71 O83 2.042 . S
Mg71 O85 2.041 . S
Mg71 O92 2.038 . S
C72 O78 1.247 . S
C72 O79 1.289 . S
C73 O91 1.245 . S
C73 O92 1.274 . S
O74 C62 1.241 . S
O74 Mg67 2.042 . S
O75 C62 1.280 . S
O75 Mg65 1.984 . S
O76 C63 1.277 . S
O76 Mg67 2.041 1_556 S
O77 C63 1.245 1_554 S
O77 Mg65 1.988 . S
O78 Mg65 2.061 . S
O78 C72 1.247 . S
O79 Mg68 2.106 . S
O79 Mg71 2.238 . S
O79 C72 1.289 . S
C80 O81 1.245 . S
C80 O82 1.274 . S
O81 Mg68 2.079 . S
O81 C80 1.245 . S
O82 Mg67 2.038 . S
O82 C80 1.274 . S
O83 Mg71 2.042 . S
O83 C86 1.241 . S
O84 Mg70 1.984 . S
O84 C86 1.280 . S
O85 Mg71 2.041 . S
O85 C89 1.277 . S
C86 O83 1.241 . S
C86 O84 1.280 . S
O87 Mg70 1.988 . S
O87 C89 1.245 . S
O88 C64 1.247 . S
O88 Mg70 2.061 . S
C89 O85 1.277 . S
C89 O87 1.245 . S
O90 C64 1.289 . S
O90 Mg67 2.238 . S
O90 Mg68 2.106 . S
O91 Mg68 2.079 . S
O91 C73 1.245 . S
O92 Mg71 2.038 . S
O92 C73 1.274 . S
C93 O105 1.241 . S
C93 O106 1.280 . S
C94 O107 1.277 . S
C94 O108 1.245 . S
C95 O119 1.247 . S
C95 O121 1.289 . S
Mg96 O97 1.926 . S
Mg96 O106 1.984 . S
Mg96 O108 1.988 . S
Mg96 O109 2.061 . S
O97 Mg96 1.926 . S
O97 Mg98 1.986 . S
O97 Mg99 1.917 . S
Mg98 O97 1.986 . S
Mg98 O105 2.042 . S
Mg98 O107 2.041 . S
Mg98 O113 2.038 . S
Mg98 O121 2.238 . S
Mg99 O97 1.917 . S
Mg99 O100 1.917 . S
Mg99 O110 2.106 . S
Mg99 O112 2.079 . S
Mg99 O121 2.106 . S
Mg99 O122 2.079 . S
O100 Mg99 1.917 . S
O100 Mg101 1.926 . S
O100 Mg102 1.986 . S
Mg101 O100 1.926 . S
Mg101 O115 1.984 . S
Mg101 O118 1.988 . S
Mg101 O119 2.061 . S
Mg102 O100 1.986 . S
Mg102 O110 2.238 . S
Mg102 O114 2.042 . S
Mg102 O116 2.041 . S
Mg102 O123 2.038 . S
C103 O109 1.247 . S
C103 O110 1.289 . S
C104 O122 1.245 . S
C104 O123 1.274 . S
O105 C93 1.241 . S
O105 Mg98 2.042 . S
O106 C93 1.280 . S
O106 Mg96 1.984 . S
O107 C94 1.277 . S
O107 Mg98 2.041 . S
O108 C94 1.245 . S
O108 Mg96 1.988 . S
O109 Mg96 2.061 . S
O109 C103 1.247 . S
O110 Mg99 2.106 . S
O110 Mg102 2.238 . S
O110 C103 1.289 . S
C111 O112 1.245 . S
C111 O113 1.274 . S
O112 Mg99 2.079 . S
O112 C111 1.245 . S
O113 Mg98 2.038 . S
O113 C111 1.274 . S
O114 Mg102 2.042 . S
O114 C117 1.241 . S
O115 Mg101 1.984 . S
O115 C117 1.280 . S
O116 Mg102 2.041 . S
O116 C120 1.277 . S
C117 O114 1.241 . S
C117 O115 1.280 . S
O118 Mg101 1.988 . S
O118 C120 1.245 . S
O119 C95 1.247 . S
O119 Mg101 2.061 . S
C120 O116 1.277 . S
C120 O118 1.245 . S
O121 C95 1.289 . S
O121 Mg98 2.238 . S
O121 Mg99 2.106 . S
O122 Mg99 2.079 . S
O122 C104 1.245 . S
O123 Mg102 2.038 . S
O123 C104 1.274 . S
C124 O136 1.241 . S
C124 O137 1.280 . S
C125 O138 1.277 . S
C125 O139 1.245 . S
C126 O150 1.247 . S
C126 O152 1.289 . S
Mg127 O128 1.926 . S
Mg127 O137 1.984 . S
Mg127 O139 1.988 . S
Mg127 O140 2.061 . S
O128 Mg127 1.926 . S
O128 Mg129 1.986 . S
O128 Mg130 1.917 . S
Mg129 O128 1.986 . S
Mg129 O136 2.042 . S
Mg129 O138 2.041 . S
Mg129 O144 2.038 . S
Mg129 O152 2.238 . S
Mg130 O128 1.917 . S
Mg130 O131 1.917 . S
Mg130 O141 2.106 . S
Mg130 O143 2.079 . S
Mg130 O152 2.106 . S
Mg130 O153 2.079 . S
O131 Mg130 1.917 . S
O131 Mg132 1.926 . S
O131 Mg133 1.986 . S
Mg132 O131 1.926 . S
Mg132 O146 1.984 . S
Mg132 O149 1.988 . S
Mg132 O150 2.061 . S
Mg133 O131 1.986 . S
Mg133 O141 2.238 . S
Mg133 O145 2.042 . S
Mg133 O147 2.041 . S
Mg133 O154 2.038 . S
C134 O140 1.247 . S
C134 O141 1.289 . S
C135 O153 1.245 . S
C135 O154 1.274 . S
O136 C124 1.241 . S
O136 Mg129 2.042 . S
O137 C124 1.280 . S
O137 Mg127 1.984 . S
O138 C125 1.277 . S
O138 Mg129 2.041 . S
O139 C125 1.245 . S
O139 Mg127 1.988 . S
O140 Mg127 2.061 . S
O140 C134 1.247 . S
O141 Mg130 2.106 . S
O141 Mg133 2.238 . S
O141 C134 1.289 . S
C142 O143 1.245 . S
C142 O144 1.274 . S
O143 Mg130 2.079 . S
O143 C142 1.245 . S
O144 Mg129 2.038 . S
O144 C142 1.274 . S
O145 Mg133 2.042 . S
O145 C148 1.241 . S
O146 Mg132 1.984 . S
O146 C148 1.280 . S
O147 Mg133 2.041 . S
O147 C151 1.277 . S
C148 O145 1.241 . S
C148 O146 1.280 . S
O149 Mg132 1.988 . S
O149 C151 1.245 . S
O150 C126 1.247 . S
O150 Mg132 2.061 . S
C151 O147 1.277 . S
C151 O149 1.245 . S
O152 C126 1.289 . S
O152 Mg129 2.238 . S
O152 Mg130 2.106 . S
O153 Mg130 2.079 . S
O153 C135 1.245 . S
O154 Mg133 2.038 . S
O154 C135 1.274 . S
C155 O167 1.241 . S
C155 O168 1.280 . S
C156 O169 1.277 . S
C156 O170 1.245 . S
C157 O181 1.247 . S
C157 O183 1.289 . S
Mg158 O159 1.926 . S
Mg158 O168 1.984 . S
Mg158 O170 1.988 . S
Mg158 O171 2.061 . S
O159 Mg158 1.926 . S
O159 Mg160 1.986 . S
O159 Mg161 1.917 . S
Mg160 O159 1.986 . S
Mg160 O167 2.042 . S
Mg160 O169 2.041 . S
Mg160 O175 2.038 . S
Mg160 O183 2.238 . S
Mg161 O159 1.917 . S
Mg161 O162 1.917 . S
Mg161 O172 2.106 . S
Mg161 O174 2.079 . S
Mg161 O183 2.106 . S
Mg161 O184 2.079 . S
O162 Mg161 1.917 . S
O162 Mg163 1.926 . S
O162 Mg164 1.986 . S
Mg163 O162 1.926 . S
Mg163 O177 1.984 . S
Mg163 O180 1.988 . S
Mg163 O181 2.061 . S
Mg164 O162 1.986 . S
Mg164 O172 2.238 . S
Mg164 O176 2.042 . S
Mg164 O178 2.041 . S
Mg164 O185 2.038 . S
C165 O171 1.247 . S
C165 O172 1.289 . S
C166 O184 1.245 . S
C166 O185 1.274 . S
O167 C155 1.241 . S
O167 Mg160 2.042 . S
O168 C155 1.280 . S
O168 Mg158 1.984 . S
O169 C156 1.277 . S
O169 Mg160 2.041 . S
O170 C156 1.245 . S
O170 Mg158 1.988 . S
O171 Mg158 2.061 . S
O171 C165 1.247 . S
O172 Mg161 2.106 . S
O172 Mg164 2.238 . S
O172 C165 1.289 . S
C173 O174 1.245 . S
C173 O175 1.274 . S
O174 Mg161 2.079 . S
O174 C173 1.245 . S
O175 Mg160 2.038 . S
O175 C173 1.274 . S
O176 Mg164 2.042 . S
O176 C179 1.241 . S
O177 Mg163 1.984 . S
O177 C179 1.280 . S
O178 Mg164 2.041 . S
O178 C182 1.277 . S
C179 O176 1.241 . S
C179 O177 1.280 . S
O180 Mg163 1.988 . S
O180 C182 1.245 . S
O181 C157 1.247 . S
O181 Mg163 2.061 . S
C182 O178 1.277 . S
C182 O180 1.245 . S
O183 C157 1.289 . S
O183 Mg160 2.238 . S
O183 Mg161 2.106 . S
O184 Mg161 2.079 . S
O184 C166 1.245 . S
O185 Mg164 2.038 . S
O185 C166 1.274 . S
C186 O198 1.241 . S
C186 O199 1.280 . S
C187 O200 1.277 . S
C187 O201 1.245 . S
C188 O212 1.247 . S
C188 O214 1.289 . S
Mg189 O190 1.926 . S
Mg189 O199 1.984 . S
Mg189 O201 1.988 . S
Mg189 O202 2.061 . S
O190 Mg189 1.926 . S
O190 Mg191 1.986 . S
O190 Mg192 1.917 . S
Mg191 O190 1.986 . S
Mg191 O198 2.042 . S
Mg191 O200 2.041 . S
Mg191 O206 2.038 . S
Mg191 O214 2.238 . S
Mg192 O190 1.917 . S
Mg192 O193 1.917 . S
Mg192 O203 2.106 . S
Mg192 O205 2.079 . S
Mg192 O214 2.106 . S
Mg192 O215 2.079 . S
O193 Mg192 1.917 . S
O193 Mg194 1.926 . S
O193 Mg195 1.986 . S
Mg194 O193 1.926 . S
Mg194 O208 1.984 . S
Mg194 O211 1.988 . S
Mg194 O212 2.061 . S
Mg195 O193 1.986 . S
Mg195 O203 2.238 . S
Mg195 O207 2.042 . S
Mg195 O209 2.041 1_556 S
Mg195 O216 2.038 . S
C196 O202 1.247 . S
C196 O203 1.289 . S
C197 O215 1.245 . S
C197 O216 1.274 . S
O198 C186 1.241 . S
O198 Mg191 2.042 . S
O199 C186 1.280 . S
O199 Mg189 1.984 . S
O200 C187 1.277 . S
O200 Mg191 2.041 . S
O201 C187 1.245 . S
O201 Mg189 1.988 . S
O202 Mg189 2.061 . S
O202 C196 1.247 . S
O203 Mg192 2.106 . S
O203 Mg195 2.238 . S
O203 C196 1.289 . S
C204 O205 1.245 . S
C204 O206 1.274 . S
O205 Mg192 2.079 . S
O205 C204 1.245 . S
O206 Mg191 2.038 . S
O206 C204 1.274 . S
O207 Mg195 2.042 . S
O207 C210 1.241 . S
O208 Mg194 1.984 . S
O208 C210 1.280 . S
O209 Mg195 2.041 1_554 S
O209 C213 1.277 . S
C210 O207 1.241 . S
C210 O208 1.280 . S
O211 Mg194 1.988 . S
O211 C213 1.245 1_556 S
O212 C188 1.247 . S
O212 Mg194 2.061 . S
C213 O209 1.277 . S
C213 O211 1.245 1_554 S
O214 C188 1.289 . S
O214 Mg191 2.238 . S
O214 Mg192 2.106 . S
O215 Mg192 2.079 . S
O215 C197 1.245 . S
O216 Mg195 2.038 . S
O216 C197 1.274 . S
C217 O229 1.241 . S
C217 O230 1.280 . S
C218 O231 1.277 . S
C218 O232 1.245 . S
C219 O243 1.247 . S
C219 O245 1.289 . S
Mg220 O221 1.926 . S
Mg220 O230 1.984 . S
Mg220 O232 1.988 . S
Mg220 O233 2.061 . S
O221 Mg220 1.926 . S
O221 Mg222 1.986 . S
O221 Mg223 1.917 . S
Mg222 O221 1.986 . S
Mg222 O229 2.042 . S
Mg222 O231 2.041 . S
Mg222 O237 2.038 . S
Mg222 O245 2.238 . S
Mg223 O221 1.917 . S
Mg223 O224 1.917 . S
Mg223 O234 2.106 . S
Mg223 O236 2.079 . S
Mg223 O245 2.106 . S
Mg223 O246 2.079 . S
O224 Mg223 1.917 . S
O224 Mg225 1.926 . S
O224 Mg226 1.986 . S
Mg225 O224 1.926 . S
Mg225 O239 1.984 . S
Mg225 O242 1.988 . S
Mg225 O243 2.061 . S
Mg226 O224 1.986 . S
Mg226 O234 2.238 . S
Mg226 O238 2.042 . S
Mg226 O240 2.041 1_556 S
Mg226 O247 2.038 . S
C227 O233 1.247 . S
C227 O234 1.289 . S
C228 O246 1.245 . S
C228 O247 1.274 . S
O229 C217 1.241 . S
O229 Mg222 2.042 . S
O230 C217 1.280 . S
O230 Mg220 1.984 . S
O231 C218 1.277 . S
O231 Mg222 2.041 . S
O232 C218 1.245 . S
O232 Mg220 1.988 . S
O233 Mg220 2.061 . S
O233 C227 1.247 . S
O234 Mg223 2.106 . S
O234 Mg226 2.238 . S
O234 C227 1.289 . S
C235 O236 1.245 . S
C235 O237 1.274 . S
O236 Mg223 2.079 . S
O236 C235 1.245 . S
O237 Mg222 2.038 . S
O237 C235 1.274 . S
O238 Mg226 2.042 . S
O238 C241 1.241 . S
O239 Mg225 1.984 . S
O239 C241 1.280 . S
O240 Mg226 2.041 1_554 S
O240 C244 1.277 . S
C241 O238 1.241 . S
C241 O239 1.280 . S
O242 Mg225 1.988 . S
O242 C244 1.245 1_556 S
O243 C219 1.247 . S
O243 Mg225 2.061 . S
C244 O240 1.277 . S
C244 O242 1.245 1_554 S
O245 C219 1.289 . S
O245 Mg222 2.238 . S
O245 Mg223 2.106 . S
O246 Mg223 2.079 . S
O246 C228 1.245 . S
O247 Mg226 2.038 . S
O247 C228 1.274 . S
C248 O260 1.241 . S
C248 O261 1.280 . S
C249 O262 1.277 . S
C249 O263 1.245 . S
C250 O274 1.247 . S
C250 O276 1.289 . S
Mg251 O252 1.926 . S
Mg251 O261 1.984 . S
Mg251 O263 1.988 . S
Mg251 O264 2.061 . S
O252 Mg251 1.926 . S
O252 Mg253 1.986 . S
O252 Mg254 1.917 . S
Mg253 O252 1.986 . S
Mg253 O260 2.042 . S
Mg253 O262 2.041 . S
Mg253 O268 2.038 . S
Mg253 O276 2.238 . S
Mg254 O252 1.917 . S
Mg254 O255 1.917 . S
Mg254 O265 2.106 . S
Mg254 O267 2.079 . S
Mg254 O276 2.106 . S
Mg254 O277 2.079 . S
O255 Mg254 1.917 . S
O255 Mg256 1.926 . S
O255 Mg257 1.986 . S
Mg256 O255 1.926 . S
Mg256 O270 1.984 . S
Mg256 O273 1.988 . S
Mg256 O274 2.061 . S
Mg257 O255 1.986 . S
Mg257 O265 2.238 . S
Mg257 O269 2.042 . S
Mg257 O271 2.041 1_556 S
Mg257 O278 2.038 . S
C258 O264 1.247 . S
C258 O265 1.289 . S
C259 O277 1.245 . S
C259 O278 1.274 . S
O260 C248 1.241 . S
O260 Mg253 2.042 . S
O261 C248 1.280 . S
O261 Mg251 1.984 . S
O262 C249 1.277 . S
O262 Mg253 2.041 . S
O263 C249 1.245 . S
O263 Mg251 1.988 . S
O264 Mg251 2.061 . S
O264 C258 1.247 . S
O265 Mg254 2.106 . S
O265 Mg257 2.238 . S
O265 C258 1.289 . S
C266 O267 1.245 . S
C266 O268 1.274 . S
O267 Mg254 2.079 . S
O267 C266 1.245 . S
O268 Mg253 2.038 . S
O268 C266 1.274 . S
O269 Mg257 2.042 . S
O269 C272 1.241 . S
O270 Mg256 1.984 . S
O270 C272 1.280 . S
O271 Mg257 2.041 1_554 S
O271 C275 1.277 . S
C272 O269 1.241 . S
C272 O270 1.280 . S
O273 Mg256 1.988 . S
O273 C275 1.245 1_556 S
O274 C250 1.247 . S
O274 Mg256 2.061 . S
C275 O271 1.277 . S
C275 O273 1.245 1_554 S
O276 C250 1.289 . S
O276 Mg253 2.238 . S
O276 Mg254 2.106 . S
O277 Mg254 2.079 . S
O277 C259 1.245 . S
O278 Mg257 2.038 . S
O278 C259 1.274 . S
C279 O291 1.241 . S
C279 O292 1.280 . S
C280 O293 1.277 . S
C280 O294 1.245 . S
C281 O305 1.247 . S
C281 O307 1.289 . S
Mg282 O283 1.926 . S
Mg282 O292 1.984 . S
Mg282 O294 1.988 . S
Mg282 O295 2.061 . S
O283 Mg282 1.926 . S
O283 Mg284 1.986 . S
O283 Mg285 1.917 . S
Mg284 O283 1.986 . S
Mg284 O291 2.042 . S
Mg284 O293 2.041 . S
Mg284 O299 2.038 . S
Mg284 O307 2.238 . S
Mg285 O283 1.917 . S
Mg285 O286 1.917 . S
Mg285 O296 2.106 . S
Mg285 O298 2.079 . S
Mg285 O307 2.106 . S
Mg285 O308 2.079 . S
O286 Mg285 1.917 . S
O286 Mg287 1.926 . S
O286 Mg288 1.986 . S
Mg287 O286 1.926 . S
Mg287 O301 1.984 . S
Mg287 O304 1.988 . S
Mg287 O305 2.061 . S
Mg288 O286 1.986 . S
Mg288 O296 2.238 . S
Mg288 O300 2.042 . S
Mg288 O302 2.041 . S
Mg288 O309 2.038 . S
C289 O295 1.247 . S
C289 O296 1.289 . S
C290 O308 1.245 . S
C290 O309 1.274 . S
O291 C279 1.241 . S
O291 Mg284 2.042 . S
O292 C279 1.280 . S
O292 Mg282 1.984 . S
O293 C280 1.277 . S
O293 Mg284 2.041 . S
O294 C280 1.245 . S
O294 Mg282 1.988 . S
O295 Mg282 2.061 . S
O295 C289 1.247 . S
O296 Mg285 2.106 . S
O296 Mg288 2.238 . S
O296 C289 1.289 . S
C297 O298 1.245 . S
C297 O299 1.274 . S
O298 Mg285 2.079 . S
O298 C297 1.245 . S
O299 Mg284 2.038 . S
O299 C297 1.274 . S
O300 Mg288 2.042 . S
O300 C303 1.241 . S
O301 Mg287 1.984 . S
O301 C303 1.280 . S
O302 Mg288 2.041 . S
O302 C306 1.277 . S
C303 O300 1.241 . S
C303 O301 1.280 . S
O304 Mg287 1.988 . S
O304 C306 1.245 . S
O305 C281 1.247 . S
O305 Mg287 2.061 . S
C306 O302 1.277 . S
C306 O304 1.245 . S
O307 C281 1.289 . S
O307 Mg284 2.238 . S
O307 Mg285 2.106 . S
O308 Mg285 2.079 . S
O308 C290 1.245 . S
O309 Mg288 2.038 . S
O309 C290 1.274 . S
C310 O322 1.241 . S
C310 O323 1.280 . S
C311 O324 1.277 . S
C311 O325 1.245 . S
C312 O336 1.247 . S
C312 O338 1.289 . S
Mg313 O314 1.926 . S
Mg313 O323 1.984 . S
Mg313 O325 1.988 . S
Mg313 O326 2.061 . S
O314 Mg313 1.926 . S
O314 Mg315 1.986 . S
O314 Mg316 1.917 . S
Mg315 O314 1.986 . S
Mg315 O322 2.042 . S
Mg315 O324 2.041 . S
Mg315 O330 2.038 . S
Mg315 O338 2.238 . S
Mg316 O314 1.917 . S
Mg316 O317 1.917 . S
Mg316 O327 2.106 . S
Mg316 O329 2.079 . S
Mg316 O338 2.106 . S
Mg316 O339 2.079 . S
O317 Mg316 1.917 . S
O317 Mg318 1.926 . S
O317 Mg319 1.986 . S
Mg318 O317 1.926 . S
Mg318 O332 1.984 . S
Mg318 O335 1.988 . S
Mg318 O336 2.061 . S
Mg319 O317 1.986 . S
Mg319 O327 2.238 . S
Mg319 O331 2.042 . S
Mg319 O333 2.041 . S
Mg319 O340 2.038 . S
C320 O326 1.247 . S
C320 O327 1.289 . S
C321 O339 1.245 . S
C321 O340 1.274 . S
O322 C310 1.241 . S
O322 Mg315 2.042 . S
O323 C310 1.280 . S
O323 Mg313 1.984 . S
O324 C311 1.277 . S
O324 Mg315 2.041 . S
O325 C311 1.245 . S
O325 Mg313 1.988 . S
O326 Mg313 2.061 . S
O326 C320 1.247 . S
O327 Mg316 2.106 . S
O327 Mg319 2.238 . S
O327 C320 1.289 . S
C328 O329 1.245 . S
C328 O330 1.274 . S
O329 Mg316 2.079 . S
O329 C328 1.245 . S
O330 Mg315 2.038 . S
O330 C328 1.274 . S
O331 Mg319 2.042 . S
O331 C334 1.241 . S
O332 Mg318 1.984 . S
O332 C334 1.280 . S
O333 Mg319 2.041 . S
O333 C337 1.277 . S
C334 O331 1.241 . S
C334 O332 1.280 . S
O335 Mg318 1.988 . S
O335 C337 1.245 . S
O336 C312 1.247 . S
O336 Mg318 2.061 . S
C337 O333 1.277 . S
C337 O335 1.245 . S
O338 C312 1.289 . S
O338 Mg315 2.238 . S
O338 Mg316 2.106 . S
O339 Mg316 2.079 . S
O339 C321 1.245 . S
O340 Mg319 2.038 . S
O340 C321 1.274 . S
C341 O353 1.241 . S
C341 O354 1.280 . S
C342 O355 1.277 . S
C342 O356 1.245 . S
C343 O367 1.247 . S
C343 O369 1.289 . S
Mg344 O345 1.926 . S
Mg344 O354 1.984 . S
Mg344 O356 1.988 . S
Mg344 O357 2.061 . S
O345 Mg344 1.926 . S
O345 Mg346 1.986 . S
O345 Mg347 1.917 . S
Mg346 O345 1.986 . S
Mg346 O353 2.042 . S
Mg346 O355 2.041 . S
Mg346 O361 2.038 . S
Mg346 O369 2.238 . S
Mg347 O345 1.917 . S
Mg347 O348 1.917 . S
Mg347 O358 2.106 . S
Mg347 O360 2.079 . S
Mg347 O369 2.106 . S
Mg347 O370 2.079 . S
O348 Mg347 1.917 . S
O348 Mg349 1.926 . S
O348 Mg350 1.986 . S
Mg349 O348 1.926 . S
Mg349 O363 1.984 . S
Mg349 O366 1.988 . S
Mg349 O367 2.061 . S
Mg350 O348 1.986 . S
Mg350 O358 2.238 . S
Mg350 O362 2.042 . S
Mg350 O364 2.041 . S
Mg350 O371 2.038 . S
C351 O357 1.247 . S
C351 O358 1.289 . S
C352 O370 1.245 . S
C352 O371 1.274 . S
O353 C341 1.241 . S
O353 Mg346 2.042 . S
O354 C341 1.280 . S
O354 Mg344 1.984 . S
O355 C342 1.277 . S
O355 Mg346 2.041 . S
O356 C342 1.245 . S
O356 Mg344 1.988 . S
O357 Mg344 2.061 . S
O357 C351 1.247 . S
O358 Mg347 2.106 . S
O358 Mg350 2.238 . S
O358 C351 1.289 . S
C359 O360 1.245 . S
C359 O361 1.274 . S
O360 Mg347 2.079 . S
O360 C359 1.245 . S
O361 Mg346 2.038 . S
O361 C359 1.274 . S
O362 Mg350 2.042 . S
O362 C365 1.241 . S
O363 Mg349 1.984 . S
O363 C365 1.280 . S
O364 Mg350 2.041 . S
O364 C368 1.277 . S
C365 O362 1.241 . S
C365 O363 1.280 . S
O366 Mg349 1.988 . S
O366 C368 1.245 . S
O367 C343 1.247 . S
O367 Mg349 2.061 . S
C368 O364 1.277 . S
C368 O366 1.245 . S
O369 C343 1.289 . S
O369 Mg346 2.238 . S
O369 Mg347 2.106 . S
O370 Mg347 2.079 . S
O370 C352 1.245 . S
O371 Mg350 2.038 . S
O371 C352 1.274 . S
H372 C378 0.930 . S
H373 C381 0.930 . S
H374 C382 0.930 . S
H375 C383 0.930 . S
H376 C386 0.930 . S
H377 C387 0.930 . S
C378 H372 0.930 . S
C378 C379 1.355 . S
C378 C380 1.415 . S
C379 C378 1.355 . S
C379 C381 1.419 . S
C380 C378 1.415 . S
C380 C385 1.425 . S
C380 C387 1.409 . S
C381 H373 0.930 . S
C381 C379 1.419 . S
C381 C382 1.362 . S
C382 H374 0.930 . S
C382 C381 1.362 . S
C382 C385 1.409 . S
C383 H375 0.930 . S
C383 C384 1.355 . S
C383 C385 1.415 . S
C384 C383 1.355 . S
C384 C386 1.419 . S
C385 C380 1.425 . S
C385 C382 1.409 . S
C385 C383 1.415 . S
C386 H376 0.930 . S
C386 C384 1.419 . S
C386 C387 1.362 . S
C387 H377 0.930 . S
C387 C380 1.409 . S
C387 C386 1.362 . S
H388 C394 0.930 . S
H389 C397 0.930 . S
H390 C398 0.930 . S
H391 C399 0.930 . S
H392 C402 0.930 . S
H393 C403 0.930 . S
C394 H388 0.930 . S
C394 C395 1.355 . S
C394 C396 1.415 . S
C395 C394 1.355 . S
C395 C397 1.419 . S
C396 C394 1.415 . S
C396 C401 1.425 . S
C396 C403 1.409 . S
C397 H389 0.930 . S
C397 C395 1.419 . S
C397 C398 1.362 . S
C398 H390 0.930 . S
C398 C397 1.362 . S
C398 C401 1.409 . S
C399 H391 0.930 . S
C399 C400 1.355 . S
C399 C401 1.415 . S
C400 C399 1.355 . S
C400 C402 1.419 . S
C401 C396 1.425 . S
C401 C398 1.409 . S
C401 C399 1.415 . S
C402 H392 0.930 . S
C402 C400 1.419 . S
C402 C403 1.362 . S
C403 H393 0.930 . S
C403 C396 1.409 . S
C403 C402 1.362 . S
H404 C410 0.930 . S
H405 C413 0.930 . S
H406 C414 0.930 . S
H407 C415 0.930 . S
H408 C418 0.930 . S
H409 C419 0.930 . S
C410 H404 0.930 . S
C410 C411 1.355 . S
C410 C412 1.415 . S
C411 C410 1.355 . S
C411 C413 1.419 . S
C412 C410 1.415 . S
C412 C417 1.425 . S
C412 C419 1.409 . S
C413 H405 0.930 . S
C413 C411 1.419 . S
C413 C414 1.362 . S
C414 H406 0.930 . S
C414 C413 1.362 . S
C414 C417 1.409 . S
C415 H407 0.930 . S
C415 C416 1.355 . S
C415 C417 1.415 . S
C416 C415 1.355 . S
C416 C418 1.419 . S
C417 C412 1.425 . S
C417 C414 1.409 . S
C417 C415 1.415 . S
C418 H408 0.930 . S
C418 C416 1.419 . S
C418 C419 1.362 . S
C419 H409 0.930 . S
C419 C412 1.409 . S
C419 C418 1.362 . S
H420 C426 0.930 . S
H421 C429 0.930 . S
H422 C430 0.930 . S
H423 C431 0.930 . S
H424 C434 0.930 . S
H425 C435 0.930 . S
C426 H420 0.930 . S
C426 C427 1.355 . S
C426 C428 1.415 . S
C427 C426 1.355 . S
C427 C429 1.419 . S
C428 C426 1.415 . S
C428 C433 1.425 . S
C428 C435 1.409 . S
C429 H421 0.930 . S
C429 C427 1.419 . S
C429 C430 1.362 . S
C430 H422 0.930 . S
C430 C429 1.362 . S
C430 C433 1.409 . S
C431 H423 0.930 . S
C431 C432 1.355 . S
C431 C433 1.415 . S
C432 C431 1.355 . S
C432 C434 1.419 . S
C433 C428 1.425 . S
C433 C430 1.409 . S
C433 C431 1.415 . S
C434 H424 0.930 . S
C434 C432 1.419 . S
C434 C435 1.362 . S
C435 H425 0.930 . S
C435 C428 1.409 . S
C435 C434 1.362 . S
H436 C442 0.930 . S
H437 C445 0.930 . S
H438 C446 0.930 . S
H439 C447 0.930 . S
H440 C450 0.930 . S
H441 C451 0.930 . S
C442 H436 0.930 . S
C442 C443 1.355 . S
C442 C444 1.415 . S
C443 C442 1.355 . S
C443 C445 1.419 . S
C444 C442 1.415 . S
C444 C449 1.425 . S
C444 C451 1.409 . S
C445 H437 0.930 . S
C445 C443 1.419 . S
C445 C446 1.362 . S
C446 H438 0.930 . S
C446 C445 1.362 . S
C446 C449 1.409 . S
C447 H439 0.930 . S
C447 C448 1.355 . S
C447 C449 1.415 . S
C448 C447 1.355 . S
C448 C450 1.419 . S
C449 C444 1.425 . S
C449 C446 1.409 . S
C449 C447 1.415 . S
C450 H440 0.930 . S
C450 C448 1.419 . S
C450 C451 1.362 . S
C451 H441 0.930 . S
C451 C444 1.409 . S
C451 C450 1.362 . S
H452 C458 0.930 . S
H453 C461 0.930 . S
H454 C462 0.930 . S
H455 C463 0.930 . S
H456 C466 0.930 . S
H457 C467 0.930 . S
C458 H452 0.930 . S
C458 C459 1.355 . S
C458 C460 1.415 . S
C459 C458 1.355 . S
C459 C461 1.419 . S
C460 C458 1.415 . S
C460 C465 1.425 . S
C460 C467 1.409 . S
C461 H453 0.930 . S
C461 C459 1.419 . S
C461 C462 1.362 . S
C462 H454 0.930 . S
C462 C461 1.362 . S
C462 C465 1.409 . S
C463 H455 0.930 . S
C463 C464 1.355 . S
C463 C465 1.415 . S
C464 C463 1.355 . S
C464 C466 1.419 . S
C465 C460 1.425 . S
C465 C462 1.409 . S
C465 C463 1.415 . S
C466 H456 0.930 . S
C466 C464 1.419 . S
C466 C467 1.362 . S
C467 H457 0.930 . S
C467 C460 1.409 . S
C467 C466 1.362 . S
H468 C474 0.930 . S
H469 C477 0.930 . S
H470 C478 0.930 . S
H471 C479 0.930 . S
H472 C482 0.930 . S
H473 C483 0.930 . S
C474 H468 0.930 . S
C474 C475 1.355 . S
C474 C476 1.415 . S
C475 C474 1.355 . S
C475 C477 1.419 . S
C476 C474 1.415 . S
C476 C481 1.425 . S
C476 C483 1.409 . S
C477 H469 0.930 . S
C477 C475 1.419 . S
C477 C478 1.362 . S
C478 H470 0.930 . S
C478 C477 1.362 . S
C478 C481 1.409 . S
C479 H471 0.930 . S
C479 C480 1.355 . S
C479 C481 1.415 . S
C480 C479 1.355 . S
C480 C482 1.419 . S
C481 C476 1.425 . S
C481 C478 1.409 . S
C481 C479 1.415 . S
C482 H472 0.930 . S
C482 C480 1.419 . S
C482 C483 1.362 . S
C483 H473 0.930 . S
C483 C476 1.409 . S
C483 C482 1.362 . S
H484 C490 0.930 . S
H485 C493 0.930 . S
H486 C494 0.930 . S
H487 C495 0.930 . S
H488 C498 0.930 . S
H489 C499 0.930 . S
C490 H484 0.930 . S
C490 C491 1.355 . S
C490 C492 1.415 . S
C491 C490 1.355 . S
C491 C493 1.419 . S
C492 C490 1.415 . S
C492 C497 1.425 . S
C492 C499 1.409 . S
C493 H485 0.930 . S
C493 C491 1.419 . S
C493 C494 1.362 . S
C494 H486 0.930 . S
C494 C493 1.362 . S
C494 C497 1.409 . S
C495 H487 0.930 . S
C495 C496 1.355 . S
C495 C497 1.415 . S
C496 C495 1.355 . S
C496 C498 1.419 . S
C497 C492 1.425 . S
C497 C494 1.409 . S
C497 C495 1.415 . S
C498 H488 0.930 . S
C498 C496 1.419 . S
C498 C499 1.362 . S
C499 H489 0.930 . S
C499 C492 1.409 . S
C499 C498 1.362 . S
H500 C506 0.930 . S
H501 C509 0.930 . S
H502 C510 0.930 . S
H503 C511 0.930 . S
H504 C514 0.930 . S
H505 C515 0.930 . S
C506 H500 0.930 . S
C506 C507 1.355 . S
C506 C508 1.415 . S
C507 C506 1.355 . S
C507 C509 1.419 . S
C508 C506 1.415 . S
C508 C513 1.425 . S
C508 C515 1.409 . S
C509 H501 0.930 . S
C509 C507 1.419 . S
C509 C510 1.362 . S
C510 H502 0.930 . S
C510 C509 1.362 . S
C510 C513 1.409 . S
C511 H503 0.930 . S
C511 C512 1.355 . S
C511 C513 1.415 . S
C512 C511 1.355 . S
C512 C514 1.419 . S
C513 C508 1.425 . S
C513 C510 1.409 . S
C513 C511 1.415 . S
C514 H504 0.930 . S
C514 C512 1.419 . S
C514 C515 1.362 . S
C515 H505 0.930 . S
C515 C508 1.409 . S
C515 C514 1.362 . S
H516 C522 0.930 . S
H517 C525 0.930 . S
H518 C526 0.930 . S
H519 C527 0.930 . S
H520 C530 0.930 . S
H521 C531 0.930 . S
C522 H516 0.930 . S
C522 C523 1.355 . S
C522 C524 1.415 . S
C523 C522 1.355 . S
C523 C525 1.419 . S
C524 C522 1.415 . S
C524 C529 1.425 . S
C524 C531 1.409 . S
C525 H517 0.930 . S
C525 C523 1.419 . S
C525 C526 1.362 . S
C526 H518 0.930 . S
C526 C525 1.362 . S
C526 C529 1.409 . S
C527 H519 0.930 . S
C527 C528 1.355 . S
C527 C529 1.415 . S
C528 C527 1.355 . S
C528 C530 1.419 . S
C529 C524 1.425 . S
C529 C526 1.409 . S
C529 C527 1.415 . S
C530 H520 0.930 . S
C530 C528 1.419 . S
C530 C531 1.362 . S
C531 H521 0.930 . S
C531 C524 1.409 . S
C531 C530 1.362 . S
H532 C538 0.930 . S
H533 C541 0.930 . S
H534 C542 0.930 . S
H535 C543 0.930 . S
H536 C546 0.930 . S
H537 C547 0.930 . S
C538 H532 0.930 . S
C538 C539 1.355 . S
C538 C540 1.415 . S
C539 C538 1.355 . S
C539 C541 1.419 . S
C540 C538 1.415 . S
C540 C545 1.425 . S
C540 C547 1.409 . S
C541 H533 0.930 . S
C541 C539 1.419 . S
C541 C542 1.362 . S
C542 H534 0.930 . S
C542 C541 1.362 . S
C542 C545 1.409 . S
C543 H535 0.930 . S
C543 C544 1.355 . S
C543 C545 1.415 . S
C544 C543 1.355 . S
C544 C546 1.419 . S
C545 C540 1.425 . S
C545 C542 1.409 . S
C545 C543 1.415 . S
C546 H536 0.930 . S
C546 C544 1.419 . S
C546 C547 1.362 . S
C547 H537 0.930 . S
C547 C540 1.409 . S
C547 C546 1.362 . S
H548 C554 0.930 . S
H549 C557 0.930 . S
H550 C558 0.930 . S
H551 C559 0.930 . S
H552 C562 0.930 . S
H553 C563 0.930 . S
C554 H548 0.930 . S
C554 C555 1.355 . S
C554 C556 1.415 . S
C555 C554 1.355 . S
C555 C557 1.419 . S
C556 C554 1.415 . S
C556 C561 1.425 . S
C556 C563 1.409 . S
C557 H549 0.930 . S
C557 C555 1.419 . S
C557 C558 1.362 . S
C558 H550 0.930 . S
C558 C557 1.362 . S
C558 C561 1.409 . S
C559 H551 0.930 . S
C559 C560 1.355 . S
C559 C561 1.415 . S
C560 C559 1.355 . S
C560 C562 1.419 . S
C561 C556 1.425 . S
C561 C558 1.409 . S
C561 C559 1.415 . S
C562 H552 0.930 . S
C562 C560 1.419 . S
C562 C563 1.362 . S
C563 H553 0.930 . S
C563 C556 1.409 . S
C563 C562 1.362 . S
H564 C570 0.930 . S
H565 C573 0.930 1_554 S
H566 C574 0.930 . S
H567 C575 0.930 . S
H568 C578 0.930 1_556 S
H569 C579 0.930 . S
C570 H564 0.930 . S
C570 C571 1.355 . S
C570 C572 1.415 . S
C571 C570 1.355 . S
C571 C573 1.419 . S
C572 C570 1.415 . S
C572 C577 1.425 1_556 S
C572 C579 1.409 . S
C573 H565 0.930 1_556 S
C573 C571 1.419 . S
C573 C574 1.362 1_556 S
C574 H566 0.930 . S
C574 C573 1.362 1_554 S
C574 C577 1.409 . S
C575 H567 0.930 . S
C575 C576 1.355 . S
C575 C577 1.415 . S
C576 C575 1.355 . S
C576 C578 1.419 . S
C577 C572 1.425 1_554 S
C577 C574 1.409 . S
C577 C575 1.415 . S
C578 H568 0.930 1_554 S
C578 C576 1.419 . S
C578 C579 1.362 1_554 S
C579 H569 0.930 . S
C579 C572 1.409 . S
C579 C578 1.362 1_556 S
H580 C586 0.930 . S
H581 C589 0.930 . S
H582 C590 0.930 1_556 S
H583 C591 0.930 . S
H584 C594 0.930 . S
H585 C595 0.930 1_554 S
C586 H580 0.930 . S
C586 C587 1.355 . S
C586 C588 1.415 . S
C587 C586 1.355 . S
C587 C589 1.419 1_545 S
C588 C586 1.415 . S
C588 C593 1.425 1_544 S
C588 C595 1.409 1_554 S
C589 H581 0.930 . S
C589 C587 1.419 1_565 S
C589 C590 1.362 . S
C590 H582 0.930 1_554 S
C590 C589 1.362 . S
C590 C593 1.409 1_554 S
C591 H583 0.930 . S
C591 C592 1.355 . S
C591 C593 1.415 . S
C592 C591 1.355 . S
C592 C594 1.419 1_565 S
C593 C588 1.425 1_566 S
C593 C590 1.409 1_556 S
C593 C591 1.415 . S
C594 H584 0.930 . S
C594 C592 1.419 1_545 S
C594 C595 1.362 . S
C595 H585 0.930 1_556 S
C595 C588 1.409 1_556 S
C595 C594 1.362 . S
H596 C602 0.930 1_556 S
H597 C605 0.930 . S
H598 C606 0.930 . S
H599 C607 0.930 1_554 S
H600 C610 0.930 . S
H601 C611 0.930 . S
C602 H596 0.930 1_554 S
C602 C603 1.355 . S
C602 C604 1.415 1_654 S
C603 C602 1.355 . S
C603 C605 1.419 . S
C604 C602 1.415 1_456 S
C604 C609 1.425 1_456 S
C604 C611 1.409 . S
C605 H597 0.930 . S
C605 C603 1.419 . S
C605 C606 1.362 . S
C606 H598 0.930 . S
C606 C605 1.362 . S
C606 C609 1.409 . S
C607 H599 0.930 1_556 S
C607 C608 1.355 . S
C607 C609 1.415 1_456 S
C608 C607 1.355 . S
C608 C610 1.419 . S
C609 C604 1.425 1_654 S
C609 C606 1.409 . S
C609 C607 1.415 1_654 S
C610 H600 0.930 . S
C610 C608 1.419 . S
C610 C611 1.362 . S
C611 H601 0.930 . S
C611 C604 1.409 . S
C611 C610 1.362 . S
H612 C618 0.930 . S
H613 C621 0.930 . S
H614 C622 0.930 . S
H615 C623 0.930 . S
H616 C626 0.930 . S
H617 C627 0.930 . S
C618 H612 0.930 . S
C618 C619 1.355 . S
C618 C620 1.415 . S
C619 C618 1.355 . S
C619 C621 1.419 . S
C620 C618 1.415 . S
C620 C625 1.425 . S
C620 C627 1.409 . S
C621 H613 0.930 . S
C621 C619 1.419 . S
C621 C622 1.362 . S
C622 H614 0.930 . S
C622 C621 1.362 . S
C622 C625 1.409 . S
C623 H615 0.930 . S
C623 C624 1.355 . S
C623 C625 1.415 . S
C624 C623 1.355 . S
C624 C626 1.419 . S
C625 C620 1.425 . S
C625 C622 1.409 . S
C625 C623 1.415 . S
C626 H616 0.930 . S
C626 C624 1.419 . S
C626 C627 1.362 . S
C627 H617 0.930 . S
C627 C620 1.409 . S
C627 C626 1.362 . S
H628 C634 0.930 . S
H629 C637 0.930 . S
H630 C638 0.930 . S
H631 C639 0.930 . S
H632 C642 0.930 . S
H633 C643 0.930 . S
C634 H628 0.930 . S
C634 C635 1.355 . S
C634 C636 1.429 . S
C635 C634 1.355 . S
C635 C637 1.419 . S
C636 C634 1.429 . S
C636 C641 1.433 1_565 S
C636 C643 1.391 1_565 S
C637 H629 0.930 . S
C637 C635 1.419 . S
C637 C638 1.362 . S
C638 H630 0.930 . S
C638 C637 1.362 . S
C638 C641 1.391 1_565 S
C639 H631 0.930 . S
C639 C640 1.355 . S
C639 C641 1.429 . S
C640 C639 1.355 . S
C640 C642 1.419 . S
C641 C636 1.433 1_545 S
C641 C638 1.391 1_545 S
C641 C639 1.429 . S
C642 H632 0.930 . S
C642 C640 1.419 . S
C642 C643 1.362 . S
C643 H633 0.930 . S
C643 C636 1.391 1_545 S
C643 C642 1.362 . S
H644 C650 0.930 . S
H645 C653 0.930 . S
H646 C654 0.930 . S
H647 C655 0.930 . S
H648 C658 0.930 . S
H649 C659 0.930 . S
C650 H644 0.930 . S
C650 C651 1.355 . S
C650 C652 1.415 . S
C651 C650 1.355 . S
C651 C653 1.419 1_655 S
C652 C650 1.415 . S
C652 C657 1.425 1_655 S
C652 C659 1.409 . S
C653 H645 0.930 . S
C653 C651 1.419 1_455 S
C653 C654 1.362 . S
C654 H646 0.930 . S
C654 C653 1.362 . S
C654 C657 1.409 . S
C655 H647 0.930 . S
C655 C656 1.355 . S
C655 C657 1.415 . S
C656 C655 1.355 . S
C656 C658 1.419 1_455 S
C657 C652 1.425 1_455 S
C657 C654 1.409 . S
C657 C655 1.415 . S
C658 H648 0.930 . S
C658 C656 1.419 1_655 S
C658 C659 1.362 . S
C659 H649 0.930 . S
C659 C652 1.409 . S
C659 C658 1.362 . S
H660 C666 0.930 . S
H661 C669 0.930 . S
H662 C670 0.930 . S
H663 C671 0.930 . S
H664 C674 0.930 . S
H665 C675 0.930 . S
C666 H660 0.930 . S
C666 C667 1.355 . S
C666 C668 1.415 . S
C667 C666 1.355 . S
C667 C669 1.419 . S
C668 C666 1.415 . S
C668 C673 1.425 . S
C668 C675 1.409 . S
C669 H661 0.930 . S
C669 C667 1.419 . S
C669 C670 1.362 . S
C670 H662 0.930 . S
C670 C669 1.362 . S
C670 C673 1.409 . S
C671 H663 0.930 . S
C671 C672 1.355 . S
C671 C673 1.415 . S
C672 C671 1.355 . S
C672 C674 1.419 . S
C673 C668 1.425 . S
C673 C670 1.409 . S
C673 C671 1.415 . S
C674 H664 0.930 . S
C674 C672 1.419 . S
C674 C675 1.362 . S
C675 H665 0.930 . S
C675 C668 1.409 . S
C675 C674 1.362 . S
H676 C682 0.930 . S
H677 C685 0.950 . S
H678 C686 0.930 . S
H679 C687 0.930 . S
H680 C690 0.930 . S
H681 C691 0.930 . S
C682 H676 0.930 . S
C682 C683 1.355 . S
C682 C684 1.415 . S
C683 C682 1.355 . S
C683 C685 1.419 . S
C684 C682 1.415 . S
C684 C689 1.425 . S
C684 C691 1.409 . S
C685 H677 0.950 . S
C685 C683 1.419 . S
C685 C686 1.362 . S
C686 H678 0.930 . S
C686 C685 1.362 . S
C686 C689 1.409 . S
C687 H679 0.930 . S
C687 C688 1.355 . S
C687 C689 1.415 . S
C688 C687 1.355 . S
C688 C690 1.419 . S
C689 C684 1.425 . S
C689 C686 1.409 . S
C689 C687 1.415 . S
C690 H680 0.930 . S
C690 C688 1.419 . S
C690 C691 1.362 . S
C691 H681 0.930 . S
C691 C684 1.409 . S
C691 C690 1.362 . S
H692 C698 0.930 . S
H693 C701 0.930 . S
H694 C702 0.930 . S
H695 C703 0.930 . S
H696 C706 0.930 . S
H697 C707 0.930 . S
C698 H692 0.930 . S
C698 C699 1.355 . S
C698 C700 1.415 . S
C699 C698 1.355 . S
C699 C701 1.419 . S
C700 C698 1.415 . S
C700 C705 1.425 . S
C700 C707 1.409 . S
C701 H693 0.930 . S
C701 C699 1.419 . S
C701 C702 1.362 . S
C702 H694 0.930 . S
C702 C701 1.362 . S
C702 C705 1.409 . S
C703 H695 0.930 . S
C703 C704 1.355 . S
C703 C705 1.415 . S
C704 C703 1.355 . S
C704 C706 1.419 . S
C705 C700 1.425 . S
C705 C702 1.409 . S
C705 C703 1.415 . S
C706 H696 0.930 . S
C706 C704 1.419 . S
C706 C707 1.362 . S
C707 H697 0.930 . S
C707 C700 1.409 . S
C707 C706 1.362 . S
H708 C714 0.930 . S
H709 C717 0.930 . S
H710 C718 0.930 . S
H711 C719 0.930 . S
H712 C722 0.930 . S
H713 C723 0.930 . S
C714 H708 0.930 . S
C714 C715 1.355 . S
C714 C716 1.415 . S
C715 C714 1.355 . S
C715 C717 1.419 . S
C716 C714 1.415 . S
C716 C721 1.425 . S
C716 C723 1.409 . S
C717 H709 0.930 . S
C717 C715 1.419 . S
C717 C718 1.362 . S
C718 H710 0.930 . S
C718 C717 1.362 . S
C718 C721 1.409 . S
C719 H711 0.930 . S
C719 C720 1.355 . S
C719 C721 1.415 . S
C720 C719 1.355 . S
C720 C722 1.419 . S
C721 C716 1.425 . S
C721 C718 1.409 . S
C721 C719 1.415 . S
C722 H712 0.930 . S
C722 C720 1.419 . S
C722 C723 1.362 . S
C723 H713 0.930 . S
C723 C716 1.409 . S
C723 C722 1.362 . S
H724 C730 0.930 . S
H725 C733 0.930 . S
H726 C734 0.930 . S
H727 C735 0.930 . S
H728 C738 0.930 . S
H729 C739 0.930 . S
C730 H724 0.930 . S
C730 C731 1.355 . S
C730 C732 1.415 . S
C731 C730 1.355 . S
C731 C733 1.419 . S
C732 C730 1.415 . S
C732 C737 1.425 . S
C732 C739 1.409 . S
C733 H725 0.930 . S
C733 C731 1.419 . S
C733 C734 1.362 . S
C734 H726 0.930 . S
C734 C733 1.362 . S
C734 C737 1.409 . S
C735 H727 0.930 . S
C735 C736 1.355 . S
C735 C737 1.415 . S
C736 C735 1.355 . S
C736 C738 1.419 . S
C737 C732 1.425 . S
C737 C734 1.409 . S
C737 C735 1.415 . S
C738 H728 0.930 . S
C738 C736 1.419 . S
C738 C739 1.362 . S
C739 H729 0.930 . S
C739 C732 1.409 . S
C739 C738 1.362 . S
H740 C746 0.930 . S
H741 C749 0.930 . S
H742 C750 0.930 . S
H743 C751 0.930 . S
H744 C754 0.930 . S
H745 C755 0.930 . S
C746 H740 0.930 . S
C746 C747 1.355 . S
C746 C748 1.415 . S
C747 C746 1.355 . S
C747 C749 1.419 . S
C748 C746 1.415 . S
C748 C753 1.425 . S
C748 C755 1.409 . S
C749 H741 0.930 . S
C749 C747 1.419 . S
C749 C750 1.362 . S
C750 H742 0.930 . S
C750 C749 1.362 . S
C750 C753 1.409 . S
C751 H743 0.930 . S
C751 C752 1.355 . S
C751 C753 1.415 . S
C752 C751 1.355 . S
C752 C754 1.419 . S
C753 C748 1.425 . S
C753 C750 1.409 . S
C753 C751 1.415 . S
C754 H744 0.930 . S
C754 C752 1.419 . S
C754 C755 1.362 . S
C755 H745 0.930 . S
C755 C748 1.409 . S
C755 C754 1.362 . S
H756 C762 0.930 . S
H757 C765 0.930 . S
H758 C766 0.930 . S
H759 C767 0.930 . S
H760 C770 0.930 . S
H761 C771 0.930 . S
C762 H756 0.930 . S
C762 C763 1.355 . S
C762 C764 1.415 . S
C763 C762 1.355 . S
C763 C765 1.419 . S
C764 C762 1.415 . S
C764 C769 1.425 . S
C764 C771 1.409 . S
C765 H757 0.930 . S
C765 C763 1.419 . S
C765 C766 1.362 . S
C766 H758 0.930 . S
C766 C765 1.362 . S
C766 C769 1.409 . S
C767 H759 0.930 . S
C767 C768 1.355 . S
C767 C769 1.415 . S
C768 C767 1.355 . S
C768 C770 1.419 . S
C769 C764 1.425 . S
C769 C766 1.409 . S
C769 C767 1.415 . S
C770 H760 0.930 . S
C770 C768 1.419 . S
C770 C771 1.362 . S
C771 H761 0.930 . S
C771 C764 1.409 . S
C771 C770 1.362 . S
H772 C778 0.930 . S
H773 C781 0.930 . S
H774 C782 0.930 . S
H775 C783 0.930 . S
H776 C786 0.930 . S
H777 C787 0.930 . S
C778 H772 0.930 . S
C778 C779 1.355 . S
C778 C780 1.415 . S
C779 C778 1.355 . S
C779 C781 1.419 . S
C780 C778 1.415 . S
C780 C785 1.425 . S
C780 C787 1.409 . S
C781 H773 0.930 . S
C781 C779 1.419 . S
C781 C782 1.362 . S
C782 H774 0.930 . S
C782 C781 1.362 . S
C782 C785 1.409 . S
C783 H775 0.930 . S
C783 C784 1.355 . S
C783 C785 1.415 . S
C784 C783 1.355 . S
C784 C786 1.419 . S
C785 C780 1.425 . S
C785 C782 1.409 . S
C785 C783 1.415 . S
C786 H776 0.930 . S
C786 C784 1.419 . S
C786 C787 1.362 . S
C787 H777 0.930 . S
C787 C780 1.409 . S
C787 C786 1.362 . S
H788 C794 0.930 . S
H789 C797 0.930 . S
H790 C798 0.930 . S
H791 C799 0.930 . S
H792 C802 0.930 . S
H793 C803 0.930 . S
C794 H788 0.930 . S
C794 C795 1.355 . S
C794 C796 1.415 . S
C795 C794 1.355 . S
C795 C797 1.419 . S
C796 C794 1.415 . S
C796 C801 1.425 . S
C796 C803 1.409 . S
C797 H789 0.930 . S
C797 C795 1.419 . S
C797 C798 1.362 . S
C798 H790 0.930 . S
C798 C797 1.362 . S
C798 C801 1.409 . S
C799 H791 0.930 . S
C799 C800 1.355 . S
C799 C801 1.415 . S
C800 C799 1.355 . S
C800 C802 1.419 . S
C801 C796 1.425 . S
C801 C798 1.409 . S
C801 C799 1.415 . S
C802 H792 0.930 . S
C802 C800 1.419 . S
C802 C803 1.362 . S
C803 H793 0.930 . S
C803 C796 1.409 . S
C803 C802 1.362 . S
H804 C810 0.930 . S
H805 C813 0.930 . S
H806 C814 0.930 . S
H807 C815 0.930 . S
H808 C818 0.930 . S
H809 C819 0.930 . S
C810 H804 0.930 . S
C810 C811 1.355 . S
C810 C812 1.415 . S
C811 C810 1.355 . S
C811 C813 1.419 . S
C812 C810 1.415 . S
C812 C817 1.425 . S
C812 C819 1.409 . S
C813 H805 0.930 . S
C813 C811 1.419 . S
C813 C814 1.362 . S
C814 H806 0.930 . S
C814 C813 1.362 . S
C814 C817 1.409 . S
C815 H807 0.930 . S
C815 C816 1.355 . S
C815 C817 1.415 . S
C816 C815 1.355 . S
C816 C818 1.419 . S
C817 C812 1.425 . S
C817 C814 1.409 . S
C817 C815 1.415 . S
C818 H808 0.930 . S
C818 C816 1.419 . S
C818 C819 1.362 . S
C819 H809 0.930 . S
C819 C812 1.409 . S
C819 C818 1.362 . S
H820 C826 0.930 . S
H821 C829 0.930 . S
H822 C830 0.930 . S
H823 C831 0.930 . S
H824 C834 0.930 . S
H825 C835 0.930 . S
C826 H820 0.930 . S
C826 C827 1.355 . S
C826 C828 1.415 . S
C827 C826 1.355 . S
C827 C829 1.419 . S
C828 C826 1.415 . S
C828 C833 1.425 . S
C828 C835 1.409 . S
C829 H821 0.930 . S
C829 C827 1.419 . S
C829 C830 1.362 . S
C830 H822 0.930 . S
C830 C829 1.362 . S
C830 C833 1.409 . S
C831 H823 0.930 . S
C831 C832 1.355 . S
C831 C833 1.415 . S
C832 C831 1.355 . S
C832 C834 1.419 . S
C833 C828 1.425 . S
C833 C830 1.409 . S
C833 C831 1.415 . S
C834 H824 0.930 . S
C834 C832 1.419 . S
C834 C835 1.362 . S
C835 H825 0.930 . S
C835 C828 1.409 . S
C835 C834 1.362 . S
H836 C842 0.930 . S
H837 C845 0.930 . S
H838 C846 0.930 . S
H839 C847 0.930 . S
H840 C850 0.930 . S
H841 C851 0.930 . S
C842 H836 0.930 . S
C842 C843 1.355 . S
C842 C844 1.415 . S
C843 C842 1.355 . S
C843 C845 1.419 . S
C844 C842 1.415 . S
C844 C849 1.425 . S
C844 C851 1.409 . S
C845 H837 0.930 . S
C845 C843 1.419 . S
C845 C846 1.362 . S
C846 H838 0.930 . S
C846 C845 1.362 . S
C846 C849 1.409 . S
C847 H839 0.930 . S
C847 C848 1.355 . S
C847 C849 1.415 . S
C848 C847 1.355 . S
C848 C850 1.419 . S
C849 C844 1.425 . S
C849 C846 1.409 . S
C849 C847 1.415 . S
C850 H840 0.930 . S
C850 C848 1.419 . S
C850 C851 1.362 . S
C851 H841 0.930 . S
C851 C844 1.409 . S
C851 C850 1.362 . S
H852 C858 0.930 . S
H853 C861 0.930 . S
H854 C862 0.930 . S
H855 C863 0.930 . S
H856 C866 0.930 . S
H857 C867 0.930 . S
C858 H852 0.930 . S
C858 C859 1.355 . S
C858 C860 1.415 . S
C859 C858 1.355 . S
C859 C861 1.419 . S
C860 C858 1.415 . S
C860 C865 1.425 . S
C860 C867 1.409 . S
C861 H853 0.930 . S
C861 C859 1.419 . S
C861 C862 1.362 . S
C862 H854 0.930 . S
C862 C861 1.362 . S
C862 C865 1.409 . S
C863 H855 0.930 . S
C863 C864 1.355 . S
C863 C865 1.415 . S
C864 C863 1.355 . S
C864 C866 1.419 . S
C865 C860 1.425 . S
C865 C862 1.409 . S
C865 C863 1.415 . S
C866 H856 0.930 . S
C866 C864 1.419 . S
C866 C867 1.362 . S
C867 H857 0.930 . S
C867 C860 1.409 . S
C867 C866 1.362 . S
H868 C874 0.930 . S
H869 C877 0.930 . S
H870 C878 0.930 . S
H871 C879 0.930 . S
H872 C882 0.930 . S
H873 C883 0.930 . S
C874 H868 0.930 . S
C874 C875 1.355 . S
C874 C876 1.415 . S
C875 C874 1.355 . S
C875 C877 1.419 . S
C876 C874 1.415 . S
C876 C881 1.425 1_565 S
C876 C883 1.409 1_565 S
C877 H869 0.930 . S
C877 C875 1.419 . S
C877 C878 1.362 . S
C878 H870 0.930 . S
C878 C877 1.362 . S
C878 C881 1.409 1_565 S
C879 H871 0.930 . S
C879 C880 1.355 . S
C879 C881 1.415 . S
C880 C879 1.355 . S
C880 C882 1.419 . S
C881 C876 1.425 1_545 S
C881 C878 1.409 1_545 S
C881 C879 1.415 . S
C882 H872 0.930 . S
C882 C880 1.419 . S
C882 C883 1.362 . S
C883 H873 0.930 . S
C883 C876 1.409 1_545 S
C883 C882 1.362 . S
H884 C890 0.930 . S
H885 C893 0.930 . S
H886 C894 0.930 . S
H887 C895 0.930 . S
H888 C898 0.930 . S
H889 C899 0.930 . S
C890 H884 0.930 . S
C890 C891 1.355 . S
C890 C892 1.415 . S
C891 C890 1.355 . S
C891 C893 1.419 . S
C892 C890 1.415 . S
C892 C897 1.425 1_455 S
C892 C899 1.409 1_455 S
C893 H885 0.930 . S
C893 C891 1.419 . S
C893 C894 1.362 . S
C894 H886 0.930 . S
C894 C893 1.362 . S
C894 C897 1.409 1_455 S
C895 H887 0.930 . S
C895 C896 1.355 . S
C895 C897 1.415 . S
C896 C895 1.355 . S
C896 C898 1.419 . S
C897 C892 1.425 1_655 S
C897 C894 1.409 1_655 S
C897 C895 1.415 . S
C898 H888 0.930 . S
C898 C896 1.419 . S
C898 C899 1.362 . S
C899 H889 0.930 . S
C899 C892 1.409 1_655 S
C899 C898 1.362 . S
H900 C906 0.930 . S
H901 C909 0.930 . S
H902 C910 0.930 . S
H903 C911 0.930 . S
H904 C914 0.930 . S
H905 C915 0.930 . S
C906 H900 0.930 . S
C906 C907 1.355 . S
C906 C908 1.415 . S
C907 C906 1.355 . S
C907 C909 1.419 . S
C908 C906 1.415 . S
C908 C913 1.425 . S
C908 C915 1.409 . S
C909 H901 0.930 . S
C909 C907 1.419 . S
C909 C910 1.362 . S
C910 H902 0.930 . S
C910 C909 1.362 . S
C910 C913 1.409 . S
C911 H903 0.930 . S
C911 C912 1.355 . S
C911 C913 1.415 . S
C912 C911 1.355 . S
C912 C914 1.419 . S
C913 C908 1.425 . S
C913 C910 1.409 . S
C913 C911 1.415 . S
C914 H904 0.930 . S
C914 C912 1.419 . S
C914 C915 1.362 . S
C915 H905 0.930 . S
C915 C908 1.409 . S
C915 C914 1.362 . S
H916 C922 0.930 . S
H917 C925 0.930 . S
H918 C926 0.930 . S
H919 C927 0.930 . S
H920 C930 0.930 . S
H921 C931 0.930 . S
C922 H916 0.930 . S
C922 C923 1.355 . S
C922 C924 1.415 1_565 S
C923 C922 1.355 . S
C923 C925 1.419 . S
C924 C922 1.415 1_545 S
C924 C929 1.425 1_545 S
C924 C931 1.409 . S
C925 H917 0.930 . S
C925 C923 1.419 . S
C925 C926 1.362 . S
C926 H918 0.930 . S
C926 C925 1.362 . S
C926 C929 1.409 . S
C927 H919 0.930 . S
C927 C928 1.355 . S
C927 C929 1.415 1_545 S
C928 C927 1.355 . S
C928 C930 1.419 . S
C929 C924 1.425 1_565 S
C929 C926 1.409 . S
C929 C927 1.415 1_565 S
C930 H920 0.930 . S
C930 C928 1.419 . S
C930 C931 1.362 . S
C931 H921 0.930 . S
C931 C924 1.409 . S
C931 C930 1.362 . S
H932 C938 0.930 . S
H933 C941 0.930 . S
H934 C942 0.930 . S
H935 C943 0.930 . S
H936 C946 0.930 . S
H937 C947 0.930 . S
C938 H932 0.930 . S
C938 C939 1.355 . S
C938 C940 1.415 . S
C939 C938 1.355 . S
C939 C941 1.419 . S
C940 C938 1.415 . S
C940 C945 1.425 1_655 S
C940 C947 1.409 . S
C941 H933 0.930 . S
C941 C939 1.419 . S
C941 C942 1.362 1_655 S
C942 H934 0.930 . S
C942 C941 1.362 1_455 S
C942 C945 1.409 . S
C943 H935 0.930 . S
C943 C944 1.355 . S
C943 C945 1.415 . S
C944 C943 1.355 . S
C944 C946 1.419 . S
C945 C940 1.425 1_455 S
C945 C942 1.409 . S
C945 C943 1.415 . S
C946 H936 0.930 . S
C946 C944 1.419 . S
C946 C947 1.362 1_455 S
C947 H937 0.930 . S
C947 C940 1.409 . S
C947 C946 1.362 1_655 S
H948 C954 0.930 . S
H949 C957 0.930 . S
H950 C958 0.930 . S
H951 C959 0.930 . S
H952 C962 0.930 1_554 S
H953 C963 0.930 . S
C954 H948 0.930 . S
C954 C955 1.355 . S
C954 C956 1.415 . S
C955 C954 1.355 . S
C955 C957 1.419 . S
C956 C954 1.415 . S
C956 C961 1.425 . S
C956 C963 1.409 . S
C957 H949 0.930 . S
C957 C955 1.419 . S
C957 C958 1.362 . S
C958 H950 0.930 . S
C958 C957 1.362 . S
C958 C961 1.409 . S
C959 H951 0.930 . S
C959 C960 1.355 . S
C959 C961 1.415 . S
C960 C959 1.355 . S
C960 C962 1.419 . S
C961 C956 1.425 . S
C961 C958 1.409 . S
C961 C959 1.415 . S
C962 H952 0.930 1_556 S
C962 C960 1.419 . S
C962 C963 1.362 . S
C963 H953 0.930 . S
C963 C956 1.409 . S
C963 C962 1.362 . S
H964 C970 0.930 . S
H965 C973 0.946 . S
H966 C974 0.930 . S
H967 C975 0.930 . S
H968 C978 0.930 . S
H969 C979 0.930 . S
C970 H964 0.930 . S
C970 C971 1.355 . S
C970 C972 1.415 . S
C971 C970 1.355 . S
C971 C973 1.413 1_556 S
C972 C970 1.415 . S
C972 C977 1.425 . S
C972 C979 1.409 . S
C973 H965 0.946 . S
C973 C971 1.413 1_554 S
C973 C974 1.352 1_554 S
C974 H966 0.930 . S
C974 C973 1.352 1_556 S
C974 C977 1.409 . S
C975 H967 0.930 . S
C975 C976 1.355 . S
C975 C977 1.415 . S
C976 C975 1.355 . S
C976 C978 1.419 . S
C977 C972 1.425 . S
C977 C974 1.409 . S
C977 C975 1.415 . S
C978 H968 0.930 . S
C978 C976 1.419 . S
C978 C979 1.362 . S
C979 H969 0.930 . S
C979 C972 1.409 . S
C979 C978 1.362 . S
H980 C986 0.930 . S
H981 C989 0.930 . S
H982 C990 0.930 . S
H983 C991 0.930 . S
H984 C994 0.930 . S
H985 C995 0.930 . S
C986 H980 0.930 . S
C986 C987 1.355 . S
C986 C988 1.415 . S
C987 C986 1.355 . S
C987 C989 1.419 . S
C988 C986 1.415 . S
C988 C993 1.425 . S
C988 C995 1.409 . S
C989 H981 0.930 . S
C989 C987 1.419 . S
C989 C990 1.362 . S
C990 H982 0.930 . S
C990 C989 1.362 . S
C990 C993 1.409 . S
C991 H983 0.930 . S
C991 C992 1.355 . S
C991 C993 1.415 . S
C992 C991 1.355 . S
C992 C994 1.419 . S
C993 C988 1.425 . S
C993 C990 1.409 . S
C993 C991 1.415 . S
C994 H984 0.930 . S
C994 C992 1.419 . S
C994 C995 1.362 . S
C995 H985 0.930 . S
C995 C988 1.409 . S
C995 C994 1.362 . S
H996 C1002 0.930 . S
H997 C1005 0.930 . S
H998 C1006 0.930 . S
H999 C1007 0.930 . S
H1000 C1010 0.930 . S
H1001 C1011 0.930 . S
C1002 H996 0.930 . S
C1002 C1003 1.355 . S
C1002 C1004 1.415 . S
C1003 C1002 1.355 . S
C1003 C1005 1.419 . S
C1004 C1002 1.415 . S
C1004 C1009 1.425 . S
C1004 C1011 1.409 . S
C1005 H997 0.930 . S
C1005 C1003 1.419 . S
C1005 C1006 1.362 . S
C1006 H998 0.930 . S
C1006 C1005 1.362 . S
C1006 C1009 1.409 . S
C1007 H999 0.930 . S
C1007 C1008 1.355 . S
C1007 C1009 1.415 . S
C1008 C1007 1.355 . S
C1008 C1010 1.419 . S
C1009 C1004 1.425 . S
C1009 C1006 1.409 . S
C1009 C1007 1.415 . S
C1010 H1000 0.930 . S
C1010 C1008 1.419 . S
C1010 C1011 1.362 . S
C1011 H1001 0.930 . S
C1011 C1004 1.409 . S
C1011 C1010 1.362 . S
H1012 C1018 0.930 . S
H1013 C1021 0.930 . S
H1014 C1022 0.930 . S
H1015 C1023 0.930 . S
H1016 C1026 0.930 . S
H1017 C1027 0.930 . S
C1018 H1012 0.930 . S
C1018 C1019 1.355 . S
C1018 C1020 1.415 . S
C1019 C1018 1.355 . S
C1019 C1021 1.419 . S
C1020 C1018 1.415 . S
C1020 C1025 1.425 . S
C1020 C1027 1.409 . S
C1021 H1013 0.930 . S
C1021 C1019 1.419 . S
C1021 C1022 1.362 . S
C1022 H1014 0.930 . S
C1022 C1021 1.362 . S
C1022 C1025 1.409 . S
C1023 H1015 0.930 . S
C1023 C1024 1.355 . S
C1023 C1025 1.415 . S
C1024 C1023 1.355 . S
C1024 C1026 1.419 . S
C1025 C1020 1.425 . S
C1025 C1022 1.409 . S
C1025 C1023 1.415 . S
C1026 H1016 0.930 . S
C1026 C1024 1.419 . S
C1026 C1027 1.362 . S
C1027 H1017 0.930 . S
C1027 C1020 1.409 . S
C1027 C1026 1.362 . S
H1028 C1034 0.930 . S
H1029 C1037 0.930 . S
H1030 C1038 0.930 . S
H1031 C1039 0.930 . S
H1032 C1042 0.930 . S
H1033 C1043 0.930 . S
C1034 H1028 0.930 . S
C1034 C1035 1.355 . S
C1034 C1036 1.415 . S
C1035 C1034 1.355 . S
C1035 C1037 1.419 . S
C1036 C1034 1.415 . S
C1036 C1041 1.425 . S
C1036 C1043 1.409 . S
C1037 H1029 0.930 . S
C1037 C1035 1.419 . S
C1037 C1038 1.362 . S
C1038 H1030 0.930 . S
C1038 C1037 1.362 . S
C1038 C1041 1.409 . S
C1039 H1031 0.930 . S
C1039 C1040 1.355 . S
C1039 C1041 1.415 . S
C1040 C1039 1.355 . S
C1040 C1042 1.419 . S
C1041 C1036 1.425 . S
C1041 C1038 1.409 . S
C1041 C1039 1.415 . S
C1042 H1032 0.930 . S
C1042 C1040 1.419 . S
C1042 C1043 1.362 . S
C1043 H1033 0.930 . S
C1043 C1036 1.409 . S
C1043 C1042 1.362 . S
H1044 C1050 0.930 . S
H1045 C1053 0.930 1_556 S
H1046 C1054 0.930 . S
H1047 C1055 0.930 . S
H1048 C1058 0.930 . S
H1049 C1059 0.930 . S
C1050 H1044 0.930 . S
C1050 C1051 1.355 . S
C1050 C1052 1.415 . S
C1051 C1050 1.355 . S
C1051 C1053 1.419 . S
C1052 C1050 1.415 . S
C1052 C1057 1.425 . S
C1052 C1059 1.409 . S
C1053 H1045 0.930 1_554 S
C1053 C1051 1.419 . S
C1053 C1054 1.362 . S
C1054 H1046 0.930 . S
C1054 C1053 1.362 . S
C1054 C1057 1.409 . S
C1055 H1047 0.930 . S
C1055 C1056 1.355 . S
C1055 C1057 1.415 . S
C1056 C1055 1.355 . S
C1056 C1058 1.419 . S
C1057 C1052 1.425 . S
C1057 C1054 1.409 . S
C1057 C1055 1.415 . S
C1058 H1048 0.930 . S
C1058 C1056 1.419 . S
C1058 C1059 1.362 . S
C1059 H1049 0.930 . S
C1059 C1052 1.409 . S
C1059 C1058 1.362 . S
H1060 C1066 0.930 . S
H1061 C1069 0.930 . S
H1062 C1070 0.930 . S
H1063 C1071 0.930 . S
H1064 C1074 0.930 . S
H1065 C1075 0.930 . S
C1066 H1060 0.930 . S
C1066 C1067 1.355 . S
C1066 C1068 1.415 . S
C1067 C1066 1.355 . S
C1067 C1069 1.419 . S
C1068 C1066 1.415 . S
C1068 C1073 1.425 . S
C1068 C1075 1.409 . S
C1069 H1061 0.930 . S
C1069 C1067 1.419 . S
C1069 C1070 1.362 . S
C1070 H1062 0.930 . S
C1070 C1069 1.362 . S
C1070 C1073 1.409 . S
C1071 H1063 0.930 . S
C1071 C1072 1.355 . S
C1071 C1073 1.415 . S
C1072 C1071 1.355 . S
C1072 C1074 1.419 . S
C1073 C1068 1.425 . S
C1073 C1070 1.409 . S
C1073 C1071 1.415 . S
C1074 H1064 0.930 . S
C1074 C1072 1.419 . S
C1074 C1075 1.362 . S
C1075 H1065 0.930 . S
C1075 C1068 1.409 . S
C1075 C1074 1.362 . S
H1076 C1082 0.930 . S
H1077 C1085 0.930 1_556 S
H1078 C1086 0.930 . S
H1079 C1087 0.930 . S
H1080 C1090 0.930 . S
H1081 C1091 0.930 . S
C1082 H1076 0.930 . S
C1082 C1083 1.355 . S
C1082 C1084 1.415 . S
C1083 C1082 1.355 . S
C1083 C1085 1.419 . S
C1084 C1082 1.415 . S
C1084 C1089 1.425 . S
C1084 C1091 1.409 . S
C1085 H1077 0.930 1_554 S
C1085 C1083 1.419 . S
C1085 C1086 1.362 . S
C1086 H1078 0.930 . S
C1086 C1085 1.362 . S
C1086 C1089 1.409 . S
C1087 H1079 0.930 . S
C1087 C1088 1.355 . S
C1087 C1089 1.415 . S
C1088 C1087 1.355 . S
C1088 C1090 1.419 . S
C1089 C1084 1.425 . S
C1089 C1086 1.409 . S
C1089 C1087 1.415 . S
C1090 H1080 0.930 . S
C1090 C1088 1.419 . S
C1090 C1091 1.362 . S
C1091 H1081 0.930 . S
C1091 C1084 1.409 . S
C1091 C1090 1.362 . S
H1092 C1098 0.930 . S
H1093 C1101 0.930 . S
H1094 C1102 0.930 . S
H1095 C1103 0.930 . S
H1096 C1106 0.930 . S
H1097 C1107 0.930 . S
C1098 H1092 0.930 . S
C1098 C1099 1.355 . S
C1098 C1100 1.415 . S
C1099 C1098 1.355 . S
C1099 C1101 1.419 . S
C1100 C1098 1.415 . S
C1100 C1105 1.425 . S
C1100 C1107 1.409 . S
C1101 H1093 0.930 . S
C1101 C1099 1.419 . S
C1101 C1102 1.362 . S
C1102 H1094 0.930 . S
C1102 C1101 1.362 . S
C1102 C1105 1.409 . S
C1103 H1095 0.930 . S
C1103 C1104 1.355 . S
C1103 C1105 1.415 . S
C1104 C1103 1.355 . S
C1104 C1106 1.419 . S
C1105 C1100 1.425 . S
C1105 C1102 1.409 . S
C1105 C1103 1.415 . S
C1106 H1096 0.930 . S
C1106 C1104 1.419 . S
C1106 C1107 1.362 . S
C1107 H1097 0.930 . S
C1107 C1100 1.409 . S
C1107 C1106 1.362 . S
H1108 C1114 0.930 . S
H1109 C1117 0.930 . S
H1110 C1118 0.930 . S
H1111 C1119 0.930 . S
H1112 C1122 0.930 . S
H1113 C1123 0.930 . S
C1114 H1108 0.930 . S
C1114 C1115 1.355 . S
C1114 C1116 1.415 . S
C1115 C1114 1.355 . S
C1115 C1117 1.419 . S
C1116 C1114 1.415 . S
C1116 C1121 1.425 . S
C1116 C1123 1.409 . S
C1117 H1109 0.930 . S
C1117 C1115 1.419 . S
C1117 C1118 1.362 . S
C1118 H1110 0.930 . S
C1118 C1117 1.362 . S
C1118 C1121 1.409 . S
C1119 H1111 0.930 . S
C1119 C1120 1.355 . S
C1119 C1121 1.415 . S
C1120 C1119 1.355 . S
C1120 C1122 1.419 . S
C1121 C1116 1.425 . S
C1121 C1118 1.409 . S
C1121 C1119 1.415 . S
C1122 H1112 0.930 . S
C1122 C1120 1.419 . S
C1122 C1123 1.362 . S
C1123 H1113 0.930 . S
C1123 C1116 1.409 . S
C1123 C1122 1.362 . S
H1124 C1130 0.930 . S
H1125 C1133 0.930 . S
H1126 C1134 0.930 . S
H1127 C1135 0.930 . S
H1128 C1138 0.930 . S
H1129 C1139 0.930 . S
C1130 H1124 0.930 . S
C1130 C1131 1.355 . S
C1130 C1132 1.415 . S
C1131 C1130 1.355 . S
C1131 C1133 1.419 . S
C1132 C1130 1.415 . S
C1132 C1137 1.425 . S
C1132 C1139 1.409 . S
C1133 H1125 0.930 . S
C1133 C1131 1.419 . S
C1133 C1134 1.362 . S
C1134 H1126 0.930 . S
C1134 C1133 1.362 . S
C1134 C1137 1.409 . S
C1135 H1127 0.930 . S
C1135 C1136 1.355 . S
C1135 C1137 1.415 . S
C1136 C1135 1.355 . S
C1136 C1138 1.419 . S
C1137 C1132 1.425 . S
C1137 C1134 1.409 . S
C1137 C1135 1.415 . S
C1138 H1128 0.930 . S
C1138 C1136 1.419 . S
C1138 C1139 1.362 . S
C1139 H1129 0.930 . S
C1139 C1132 1.409 . S
C1139 C1138 1.362 . S
C379 C24 1.466 . S
C384 C42 1.267 . S
C395 C73 1.293 . S
C400 C55 1.440 . S
C411 C86 1.425 . S
C416 C11 1.213 . S
C427 C166 1.316 . S
C432 C117 1.454 . S
C443 C104 1.315 . S
C448 C148 1.460 . S
C459 C179 1.436 . S
C464 C135 1.281 . S
C475 C186 1.466 . S
C480 C235 1.284 . S
C491 C266 1.178 . S
C496 C217 1.443 . S
C507 C248 1.436 . S
C512 C204 1.170 . S
C523 C279 1.430 . S
C528 C359 1.172 . S
C539 C297 1.287 . S
C544 C310 1.437 . S
C555 C328 1.175 . S
C560 C341 1.429 . S
C571 C210 1.160 . S
C576 C0 1.160 . S
C587 C31 1.304 . S
C592 C241 1.304 . S
C603 C62 1.196 . S
C608 C272 1.196 . S
C619 C93 1.309 . S
C624 C303 1.309 . S
C635 C124 1.237 . S
C640 C334 1.237 . S
C651 C365 1.292 . S
C656 C155 1.292 . S
C667 C1 1.100 . S
C672 C281 1.057 . S
C683 C32 1.114 . S
C688 C312 1.064 . S
C699 C343 1.075 . S
C704 C63 1.092 . S
C715 C188 1.144 . S
C720 C94 1.135 . S
C731 C219 1.113 . S
C736 C125 1.107 . S
C747 C250 1.132 . S
C752 C156 1.151 . S
C763 C103 1.070 . S
C768 C213 1.091 . S
C779 C244 1.105 . S
C784 C134 1.109 . S
C795 C275 1.134 . S
C800 C165 1.090 . S
C811 C10 1.069 . S
C816 C306 1.119 . S
C827 C337 1.106 . S
C832 C41 1.112 . S
C843 C72 1.113 . S
C848 C368 1.107 . S
C859 C111 2.361 . S
C864 C18 2.332 . S
C875 C142 2.310 . S
C880 C49 2.360 . S
C891 C173 2.362 . S
C896 C80 2.329 . S
C907 C197 2.308 . S
C912 C290 2.354 . S
C923 C228 2.358 . S
C928 C321 2.338 . S
C939 C352 2.315 . S
C944 C259 2.335 . S
C955 C311 1.441 . S
C960 C2 1.625 1_556 S
C971 C33 1.631 1_556 S
C976 C342 1.443 . S
C987 C64 1.672 1_556 S
C992 C280 1.505 . S
C1003 C95 1.644 . S
C1008 C249 1.457 . S
C1019 C187 1.456 . S
C1024 C126 1.643 . S
C1035 C218 1.519 . S
C1040 C157 1.679 . S
C1051 C196 1.645 1_554 S
C1056 C151 1.511 . S
C1067 C227 1.673 1_554 S
C1072 C182 1.551 . S
C1083 C258 1.645 1_554 S
C1088 C120 1.512 . S
C1099 C89 1.441 . S
C1104 C289 1.624 . S
C1115 C27 1.557 . S
C1120 C320 1.686 . S
C1131 C58 1.558 . S
C1136 C351 1.684 . S
