# Generated by pormake.
# Topology ftb, (5)-cn, num edge types: 1
# Building blocks:
#     Node 0, Type 0, BuildingBlock: XOMCOT_clean_sbu_0, # of connection points: 5
#     Node 1, Type 0, BuildingBlock: XOMCOT_clean_sbu_0, # of connection points: 5
#     Node 2, Type 0, BuildingBlock: XOMCOT_clean_sbu_0, # of connection points: 5
#     Node 3, Type 0, BuildingBlock: XOMCOT_clean_sbu_0, # of connection points: 5
#     Node 4, Type 0, BuildingBlock: XOMCOT_clean_sbu_0, # of connection points: 5
#     Node 5, Type 0, BuildingBlock: XOMCOT_clean_sbu_0, # of connection points: 5
#     Node 6, Type 0, BuildingBlock: XOMCOT_clean_sbu_0, # of connection points: 5
#     Node 7, Type 0, BuildingBlock: XOMCOT_clean_sbu_0, # of connection points: 5
#     Edge 8, Type (0, 0), BuildingBlock: UVAHIK_clean_linker_0, # of connection points: 2
#     Edge 9, Type (0, 0), BuildingBlock: UVAHIK_clean_linker_0, # of connection points: 2
#     Edge 10, Type (0, 0), BuildingBlock: UVAHIK_clean_linker_0, # of connection points: 2
#     Edge 11, Type (0, 0), BuildingBlock: UVAHIK_clean_linker_0, # of connection points: 2
#     Edge 12, Type (0, 0), BuildingBlock: UVAHIK_clean_linker_0, # of connection points: 2
#     Edge 13, Type (0, 0), BuildingBlock: UVAHIK_clean_linker_0, # of connection points: 2
#     Edge 14, Type (0, 0), BuildingBlock: UVAHIK_clean_linker_0, # of connection points: 2
#     Edge 15, Type (0, 0), BuildingBlock: UVAHIK_clean_linker_0, # of connection points: 2
#     Edge 16, Type (0, 0), BuildingBlock: UVAHIK_clean_linker_0, # of connection points: 2
#     Edge 17, Type (0, 0), BuildingBlock: UVAHIK_clean_linker_0, # of connection points: 2
#     Edge 18, Type (0, 0), BuildingBlock: UVAHIK_clean_linker_0, # of connection points: 2
#     Edge 19, Type (0, 0), BuildingBlock: UVAHIK_clean_linker_0, # of connection points: 2
#     Edge 20, Type (0, 0), BuildingBlock: UVAHIK_clean_linker_0, # of connection points: 2
#     Edge 21, Type (0, 0), BuildingBlock: UVAHIK_clean_linker_0, # of connection points: 2
#     Edge 22, Type (0, 0), BuildingBlock: UVAHIK_clean_linker_0, # of connection points: 2
#     Edge 23, Type (0, 0), BuildingBlock: UVAHIK_clean_linker_0, # of connection points: 2
#     Edge 24, Type (0, 0), BuildingBlock: UVAHIK_clean_linker_0, # of connection points: 2
#     Edge 25, Type (0, 0), BuildingBlock: UVAHIK_clean_linker_0, # of connection points: 2
#     Edge 26, Type (0, 0), BuildingBlock: UVAHIK_clean_linker_0, # of connection points: 2
#     Edge 27, Type (0, 0), BuildingBlock: UVAHIK_clean_linker_0, # of connection points: 2
# Relax obj value: 0.126
# Max RMSD: 0.202
# Mean RMSD: 0.202
data_MOF--net-ftb--node1-XOMCOT_clean_sbu_0--edge1-UVAHIK_clean_linker_0
_symmetry_space_group_name_H-M    P1
_symmetry_Int_Tables_number       1
_symmetry_cell_setting            triclinic
loop_
_symmetry_equiv_pos_as_xyz
'x, y, z'
_cell_length_a     69.298944
_cell_length_b     26.459035
_cell_length_c     35.514266
_cell_angle_alpha  90.010996
_cell_angle_beta   92.228706
_cell_angle_gamma 89.75706
loop_
_atom_site_label
_atom_site_type_symbol
_atom_site_fract_x
_atom_site_fract_y
_atom_site_fract_z
_atom_type_partial_charge
Co0 Co 0.32667 0.98204 1.01733 0.0
C1 C 0.32486 0.92231 0.94654 0.0
C2 C 0.30896 0.99202 0.94166 0.0
C3 C 0.30717 0.96675 0.90788 0.0
N4 N 0.3201 0.96431 0.96574 0.0
N5 N 0.31718 0.92292 0.91088 0.0
H6 H 0.3338 0.89223 0.9584 0.0
H7 H 0.30235 0.02784 0.94839 0.0
C8 C 0.33973 0.0902 1.01362 0.0
O9 O 0.35382 0.08123 0.03856 0.0
N10 N 0.33264 0.00049 0.06968 0.0
C11 C 0.34273 0.97393 0.0963 0.0
C12 C 0.34215 -0.00091 0.13005 0.0
C13 C 0.32544 0.04059 0.08831 0.0
N14 N 0.33132 0.04114 0.12508 0.0
C15 C 0.36193 0.92523 0.02416 0.0
C16 C 0.38391 0.98867 0.98159 0.0
C17 C 0.39304 0.94973 1.00227 0.0
C18 C 0.38172 0.91654 0.02254 0.0
C19 C 0.36406 0.99642 0.98455 0.0
N20 N 0.35367 0.9674 1.00826 0.0
H21 H 0.35335 0.8985 0.03905 0.0
H22 H 0.35721 0.02614 0.96805 0.0
H23 H 0.34962 0.93791 0.09253 0.0
H24 H 0.31585 0.06842 0.07523 0.0
O25 O 0.31847 0.91625 0.03396 0.0
O26 O 0.29965 0.98418 0.02767 0.0
O27 O 0.32885 0.05452 1.00142 0.0
C28 C 0.30149 0.93684 0.03685 0.0
H29 H 0.29875 0.97924 0.88331 0.0
H30 H 0.34928 0.9872 0.15624 0.0
H31 H 0.39213 0.01404 0.9645 0.0
H32 H 0.38818 0.88461 0.03748 0.0
Co33 Co 0.66589 0.99406 0.02063 0.0
C34 C 0.66956 0.93178 0.09179 0.0
C35 C 0.69247 0.98505 0.08603 0.0
C36 C 0.69559 0.95944 0.11934 0.0
N37 N 0.67606 0.96819 0.06878 0.0
N38 N 0.68119 0.92587 0.12303 0.0
H39 H 0.65679 0.9097 0.08603 0.0
H40 H 0.70139 0.01487 0.07539 0.0
C41 C 0.66295 0.07804 0.07597 0.0
O42 O 0.65642 0.04578 0.10049 0.0
N43 N 0.65645 0.01998 0.97259 0.0
C44 C 0.64338 -0.0022 0.94902 0.0
C45 C 0.64134 0.0265 0.91685 0.0
C46 C 0.66233 0.06162 0.95446 0.0
N47 N 0.65331 0.06655 0.92014 0.0
C48 C 0.63247 0.9332 0.03129 0.0
C49 C 0.60683 0.01229 0.03984 0.0
C50 C 0.59978 0.96293 0.03769 0.0
C51 C 0.6128 0.923 0.03349 0.0
C52 C 0.62653 0.02094 0.03664 0.0
N53 N 0.63923 0.98161 0.03334 0.0
H54 H 0.6422 0.90213 0.0264 0.0
H55 H 0.63121 0.05955 0.03445 0.0
H56 H 0.63603 0.96278 0.95455 0.0
H57 H 0.67339 0.08677 0.96575 0.0
O58 O 0.67184 0.93031 0.99687 0.0
O59 O 0.69185 0.99525 1.00334 0.0
O60 O 0.66588 0.06432 0.04217 0.0
C61 C 0.68882 0.94935 0.99164 0.0
H62 H 0.70737 0.96603 0.13962 0.0
H63 H 0.63174 0.01829 0.89291 0.0
H64 H 0.59705 0.04418 0.04168 0.0
H65 H 0.60774 0.88441 0.03097 0.0
Co66 Co 0.32558 0.48062 0.51811 0.0
C67 C 0.32372 0.41968 0.44778 0.0
C68 C 0.30715 0.48834 0.44298 0.0
C69 C 0.30543 0.4628 0.40931 0.0
N70 N 0.31868 0.46148 0.46694 0.0
N71 N 0.31587 0.41967 0.41226 0.0
H72 H 0.33305 0.3903 0.4595 0.0
H73 H 0.30031 0.52388 0.44967 0.0
C74 C 0.33803 0.58941 0.51214 0.0
O75 O 0.35189 0.58287 0.53802 0.0
N76 N 0.33191 0.5005 0.57001 0.0
C77 C 0.34247 0.47493 0.59651 0.0
C78 C 0.34198 0.50055 0.63009 0.0
C79 C 0.32457 0.54052 0.58853 0.0
N80 N 0.33076 0.54192 0.62512 0.0
C81 C 0.36082 0.42358 0.52442 0.0
C82 C 0.3827 0.48686 0.48155 0.0
C83 C 0.39187 0.44777 0.50203 0.0
C84 C 0.38059 0.41468 0.52247 0.0
C85 C 0.36288 0.4948 0.48482 0.0
N86 N 0.35253 0.46579 0.50861 0.0
H87 H 0.35229 0.39708 0.53965 0.0
H88 H 0.35604 0.52457 0.46839 0.0
H89 H 0.34963 0.43927 0.59281 0.0
H90 H 0.31467 0.56768 0.57551 0.0
O91 O 0.3175 0.41529 0.53601 0.0
O92 O 0.29865 0.48305 0.52909 0.0
O93 O 0.32754 0.55253 0.50078 0.0
C94 C 0.30053 0.43596 0.53893 0.0
H95 H 0.29682 0.4747 0.3848 0.0
H96 H 0.34944 0.48946 0.65614 0.0
H97 H 0.39088 0.51224 0.46439 0.0
H98 H 0.38706 0.38271 0.53733 0.0
Co99 Co 0.66524 0.51097 0.53057 0.0
C100 C 0.6664 0.44852 0.60147 0.0
C101 C 0.68882 0.50403 0.60042 0.0
C102 C 0.69089 0.47743 0.63356 0.0
N103 N 0.67331 0.48648 0.58041 0.0
N104 N 0.67681 0.44251 0.6342 0.0
H105 H 0.65409 0.42568 0.59346 0.0
H106 H 0.69803 0.53425 0.59141 0.0
C107 C 0.6605 0.59729 0.58349 0.0
O108 O 0.65311 0.56623 0.60787 0.0
N109 N 0.6578 0.53518 0.48086 0.0
C110 C 0.64591 0.51148 0.45577 0.0
C111 C 0.64407 0.54052 0.42375 0.0
C112 C 0.66329 0.57798 0.46371 0.0
N113 N 0.65499 0.58226 0.42873 0.0
C114 C 0.63096 0.45151 0.53656 0.0
C115 C 0.60556 0.53189 0.54011 0.0
C116 C 0.59804 0.48289 0.53691 0.0
C117 C 0.6111 0.4423 0.53559 0.0
C118 C 0.62543 0.53947 0.54009 0.0
N119 N 0.638 0.49958 0.5392 0.0
H120 H 0.64067 0.41992 0.5333 0.0
H121 H 0.63042 0.57784 0.53852 0.0
H122 H 0.63914 0.47537 0.46031 0.0
H123 H 0.67301 0.60543 0.47661 0.0
O124 O 0.67213 0.44626 0.50921 0.0
O125 O 0.6919 0.51136 0.51756 0.0
O126 O 0.66458 0.58201 0.5506 0.0
C127 C 0.68937 0.46501 0.5065 0.0
H128 H 0.70218 0.48266 0.65511 0.0
H129 H 0.63569 0.53107 0.39838 0.0
H130 H 0.59619 0.56464 0.54139 0.0
H131 H 0.6061 0.40383 0.53201 0.0
Co132 Co 0.8263 0.99027 0.52112 0.0
C133 C 0.82244 0.92601 0.45239 0.0
C134 C 0.80246 0.98829 0.45164 0.0
C135 C 0.79987 0.96179 0.41855 0.0
N136 N 0.81666 0.96608 0.4727 0.0
N137 N 0.81248 0.92273 0.41894 0.0
H138 H 0.8339 0.90044 0.4615 0.0
H139 H 0.79458 0.02167 0.45978 0.0
C140 C 0.83453 0.10149 0.50841 0.0
O141 O 0.84841 0.10265 0.53464 0.0
N142 N 0.83551 0.0151 0.57008 0.0
C143 C 0.85052 -0.00212 0.59182 0.0
C144 C 0.85129 0.02437 0.6251 0.0
C145 C 0.82711 0.05117 0.591 0.0
N146 N 0.8366 0.05795 0.62461 0.0
C147 C 0.86065 0.93012 0.51836 0.0
C148 C 0.88254 -0.00232 0.47925 0.0
C149 C 0.89145 0.95394 0.49414 0.0
C150 C 0.87998 0.91899 0.51258 0.0
C151 C 0.86304 0.00704 0.48527 0.0
N152 N 0.85265 0.97508 0.50683 0.0
H153 H 0.85236 0.9032 0.5337 0.0
H154 H 0.85662 0.04025 0.47262 0.0
H155 H 0.86024 0.9678 0.58478 0.0
H156 H 0.81428 0.07185 0.58174 0.0
O157 O 0.81968 0.92671 0.54438 0.0
O158 O 0.80022 0.99309 0.53774 0.0
O159 O 0.82624 0.06012 0.49917 0.0
C160 C 0.80285 0.94705 0.54948 0.0
H161 H 0.78939 0.97047 0.39607 0.0
H162 H 0.86204 0.01951 0.64776 0.0
H163 H 0.89065 0.02547 0.46412 0.0
H164 H 0.88596 0.88369 0.52325 0.0
Co165 Co 0.16533 0.99515 0.53052 0.0
C166 C 0.16498 0.93725 0.6035 0.0
C167 C 0.18462 -0.00045 0.60521 0.0
C168 C 0.18623 0.97464 0.63916 0.0
N169 N 0.17103 0.97681 0.58295 0.0
N170 N 0.1739 0.93536 0.63805 0.0
H171 H 0.15459 0.90973 0.59361 0.0
H172 H 0.19309 0.03167 0.59695 0.0
C173 C 0.15707 0.08768 0.57532 0.0
O174 O 0.14843 0.05962 0.60005 0.0
N175 N 0.16034 0.01341 0.47843 0.0
C176 C 0.15054 0.98567 0.4524 0.0
C177 C 0.14977 0.01187 0.41894 0.0
C178 C 0.16552 0.05596 0.46055 0.0
N179 N 0.15921 0.0561 0.42397 0.0
C180 C 0.13066 0.93651 0.53628 0.0
C181 C 0.10539 0.01651 0.52453 0.0
C182 C 0.09796 0.96763 0.527 0.0
C183 C 0.1108 0.92729 0.53346 0.0
C184 C 0.12524 0.0241 0.52795 0.0
N185 N 0.1377 0.9846 0.53468 0.0
H186 H 0.1404 0.90459 0.53755 0.0
H187 H 0.13051 0.06157 0.52262 0.0
H188 H 0.1442 0.94915 0.45754 0.0
H189 H 0.17385 0.08585 0.47404 0.0
O190 O 0.17329 0.92824 0.51514 0.0
O191 O 0.19256 0.99462 0.5223 0.0
O192 O 0.16348 0.06819 0.54536 0.0
C193 C 0.1906 0.94713 0.51379 0.0
H194 H 0.19622 0.98368 0.66234 0.0
H195 H 0.14245 -0.00049 0.39312 0.0
H196 H 0.09594 0.04856 0.51879 0.0
H197 H 0.10562 0.88874 0.53421 0.0
Co198 Co 0.82508 0.48982 0.02173 0.0
C199 C 0.8227 0.42856 0.95008 0.0
C200 C 0.79971 0.48243 0.95429 0.0
C201 C 0.79698 0.45628 0.92109 0.0
N202 N 0.81597 0.46559 0.9724 0.0
N203 N 0.81143 0.42237 0.91845 0.0
H204 H 0.8355 0.40652 0.95633 0.0
H205 H 0.79041 0.51183 0.96468 0.0
C206 C 0.82745 0.57725 0.96933 0.0
O207 O 0.83476 0.54697 0.9442 0.0
N208 N 0.83348 0.51369 0.07099 0.0
C209 C 0.8463 0.49035 0.09462 0.0
C210 C 0.84768 0.51716 0.12772 0.0
C211 C 0.82711 0.55421 0.09002 0.0
N212 N 0.83556 0.55722 0.12497 0.0
C213 C 0.85992 0.43357 1.01025 0.0
C214 C 0.88396 0.51648 1.00855 0.0
C215 C 0.89217 0.46804 1.00878 0.0
C216 C 0.87988 0.42616 1.00894 0.0
C217 C 0.86403 0.52218 1.00999 0.0
N218 N 0.85213 0.48111 1.01012 0.0
H219 H 0.85082 0.40095 1.01339 0.0
H220 H 0.85846 0.55986 1.01361 0.0
H221 H 0.85392 0.4558 0.08841 0.0
H222 H 0.81613 0.57995 0.07889 0.0
O223 O 0.81992 0.4242 0.0433 0.0
O224 O 0.79894 0.48766 0.03764 0.0
O225 O 0.82411 0.56122 1.00236 0.0
C226 C 0.80259 0.44157 0.04836 0.0
H227 H 0.78502 0.46115 0.90088 0.0
H228 H 0.85696 0.50775 0.15194 0.0
H229 H 0.89291 0.54993 1.00878 0.0
H230 H 0.88565 0.38807 1.01022 0.0
Co231 Co 0.16626 0.49316 0.02963 0.0
C232 C 0.16713 0.43598 0.10285 0.0
C233 C 0.18694 0.49792 0.10307 0.0
C234 C 0.18897 0.47335 0.13713 0.0
N235 N 0.17298 0.47518 0.08172 0.0
N236 N 0.17654 0.43432 0.13693 0.0
H237 H 0.15651 0.40863 0.09372 0.0
H238 H 0.1953 0.52991 0.09418 0.0
C239 C 0.15867 0.58568 0.075 0.0
O240 O 0.15073 0.55751 0.10058 0.0
N241 N 0.16021 0.51113 0.97784 0.0
C242 C 0.14995 0.48341 0.95247 0.0
C243 C 0.14863 0.50961 0.91899 0.0
C244 C 0.16509 0.55363 0.95958 0.0
N245 N 0.15817 0.5538 0.9234 0.0
C246 C 0.1321 0.4332 0.03793 0.0
C247 C 0.10625 0.51294 0.03422 0.0
C248 C 0.09917 0.46387 0.03831 0.0
C249 C 0.11233 0.42352 0.03965 0.0
C250 C 0.12603 0.52081 0.03226 0.0
N251 N 0.13884 0.48155 0.03603 0.0
H252 H 0.14195 0.40155 0.03708 0.0
H253 H 0.13082 0.55847 0.02604 0.0
H254 H 0.14372 0.44689 0.95804 0.0
H255 H 0.17369 0.58344 0.97249 0.0
O256 O 0.17425 0.42637 1.01409 0.0
O257 O 0.19328 0.49347 0.01949 0.0
O258 O 0.16437 0.56625 0.04443 0.0
C259 C 0.19143 0.4457 1.0118 0.0
H260 H 0.19926 0.48253 0.1598 0.0
H261 H 0.14089 0.49727 0.89361 0.0
H262 H 0.09651 0.54494 0.03107 0.0
H263 H 0.1074 0.38487 0.0417 0.0
C264 C 0.31556 0.39499 0.34504 0.0
C265 C 0.3178 0.38178 0.38334 0.0
C266 C 0.31663 0.3583 0.31689 0.0
C267 C 0.31179 0.22102 0.30062 0.0
H268 H 0.33819 0.24982 0.20879 0.0
C269 C 0.32869 0.06658 0.19176 0.0
C270 C 0.32752 0.079 0.15322 0.0
C271 C 0.3265 0.10368 0.21926 0.0
C272 C 0.33051 0.24139 0.234 0.0
H273 H 0.32313 0.31935 0.42191 0.0
H274 H 0.32529 0.25525 0.37269 0.0
H275 H 0.33716 0.31369 0.25816 0.0
H276 H 0.32254 0.14037 0.11355 0.0
H277 H 0.31841 0.20515 0.16158 0.0
H278 H 0.30515 0.14871 0.27651 0.0
C279 C 0.32247 0.29409 0.36452 0.0
C280 C 0.32996 0.278 0.26239 0.0
C281 C 0.32145 0.33092 0.39274 0.0
C282 C 0.32351 0.12939 0.1429 0.0
C283 C 0.32134 0.16664 0.17048 0.0
C284 C 0.3123 0.18445 0.27222 0.0
C285 C 0.31998 0.30733 0.32624 0.0
C286 C 0.32065 0.26822 0.29611 0.0
C287 C 0.32303 0.15431 0.20904 0.0
C288 C 0.32174 0.19406 0.2386 0.0
H289 H 0.313 0.43384 0.3367 0.0
H290 H 0.31449 0.36983 0.28776 0.0
H291 H 0.30419 0.21255 0.32593 0.0
H292 H 0.33145 0.02811 0.20084 0.0
H293 H 0.32805 0.0928 0.24862 0.0
C294 C 0.69447 0.87859 0.1785 0.0
C295 C 0.67868 0.89193 0.15437 0.0
C296 C 0.69203 0.8471 0.20952 0.0
C297 C 0.65452 0.79793 0.27166 0.0
H298 H 0.69391 0.69856 0.29903 0.0
C299 C 0.64243 0.63422 0.37549 0.0
C300 C 0.65751 0.62181 0.40149 0.0
C301 C 0.64511 0.67009 0.34737 0.0
C302 C 0.68291 0.72657 0.29204 0.0
H303 H 0.64784 0.882 0.1443 0.0
H304 H 0.64371 0.82577 0.19754 0.0
H305 H 0.69825 0.7537 0.24507 0.0
H306 H 0.68716 0.63794 0.41878 0.0
H307 H 0.69193 0.70082 0.36941 0.0
H308 H 0.63901 0.76979 0.31823 0.0
C309 C 0.65797 0.84054 0.19286 0.0
C310 C 0.68538 0.75824 0.26109 0.0
C311 C 0.66039 0.87232 0.16192 0.0
C312 C 0.67525 0.64694 0.39927 0.0
C313 C 0.67802 0.68254 0.37083 0.0
C314 C 0.652 0.76599 0.30244 0.0
C315 C 0.67375 0.82769 0.21718 0.0
C316 C 0.67118 0.79423 0.25039 0.0
C317 C 0.66302 0.69417 0.34437 0.0
C318 C 0.66612 0.72982 0.31287 0.0
H319 H 0.70883 0.89228 0.17347 0.0
H320 H 0.70449 0.83856 0.22779 0.0
H321 H 0.64346 0.82581 0.26476 0.0
H322 H 0.62853 0.61591 0.37677 0.0
H323 H 0.63332 0.67793 0.32729 0.0
C324 C 0.32839 0.56799 0.69171 0.0
C325 C 0.32694 0.57995 0.6531 0.0
C326 C 0.32625 0.60536 0.71903 0.0
C327 C 0.33021 0.74308 0.73284 0.0
H328 H 0.30432 0.71537 0.82544 0.0
C329 C 0.31648 0.89787 0.84369 0.0
C330 C 0.31877 0.88479 0.88201 0.0
C331 C 0.31724 0.86097 0.81562 0.0
C332 C 0.3118 0.72354 0.79994 0.0
H333 H 0.32146 0.6407 0.61313 0.0
H334 H 0.31748 0.706 0.66087 0.0
H335 H 0.30499 0.65102 0.77633 0.0
H336 H 0.32382 0.82231 0.92067 0.0
H337 H 0.32549 0.75793 0.87163 0.0
H338 H 0.33711 0.8155 0.75652 0.0
C339 C 0.32058 0.66764 0.66994 0.0
C340 C 0.31214 0.68667 0.77172 0.0
C341 C 0.32267 0.63011 0.64254 0.0
C342 C 0.32213 0.83382 0.89149 0.0
C343 C 0.32285 0.79682 0.86336 0.0
C344 C 0.32987 0.77995 0.76106 0.0
C345 C 0.32257 0.65579 0.70855 0.0
C346 C 0.32143 0.69588 0.73788 0.0
C347 C 0.32032 0.80992 0.82506 0.0
C348 C 0.32072 0.77059 0.79504 0.0
H349 H 0.33135 0.52968 0.70095 0.0
H350 H 0.32801 0.59486 0.74844 0.0
H351 H 0.33777 0.75117 0.70743 0.0
H352 H 0.31414 0.93677 0.83525 0.0
H353 H 0.31507 0.87243 0.78648 0.0
C354 C 0.67981 0.41626 0.70102 0.0
C355 C 0.67393 0.40581 0.66348 0.0
C356 C 0.67759 0.38028 0.72932 0.0
C357 C 0.67242 0.24328 0.74373 0.0
H358 H 0.65398 0.28211 0.84136 0.0
C359 C 0.65165 0.09547 0.85381 0.0
C360 C 0.65625 0.10503 0.89207 0.0
C361 C 0.65419 0.13262 0.82656 0.0
C362 C 0.65941 0.27072 0.81444 0.0
H363 H 0.66104 0.3492 0.62636 0.0
H364 H 0.657 0.28648 0.67581 0.0
H365 H 0.65728 0.34608 0.79254 0.0
H366 H 0.66719 0.16166 0.93147 0.0
H367 H 0.67205 0.22622 0.88373 0.0
H368 H 0.67471 0.16809 0.76554 0.0
C369 C 0.66346 0.3225 0.68327 0.0
C370 C 0.66125 0.30739 0.78643 0.0
C371 C 0.66558 0.35863 0.65499 0.0
C372 C 0.66363 0.15277 0.9023 0.0
C373 C 0.66621 0.19001 0.87494 0.0
C374 C 0.67067 0.2067 0.77175 0.0
C375 C 0.66952 0.33283 0.72074 0.0
C376 C 0.66767 0.29403 0.75067 0.0
C377 C 0.66149 0.18038 0.83671 0.0
C378 C 0.66402 0.21985 0.8074 0.0
H379 H 0.68608 0.45242 0.7086 0.0
H380 H 0.68253 0.38931 0.75783 0.0
H381 H 0.67775 0.23191 0.71672 0.0
H382 H 0.64621 0.05907 0.84465 0.0
H383 H 0.65016 0.124 0.7975 0.0
C384 C 0.82309 0.14002 0.6451 0.0
C385 C 0.83248 0.094 0.65378 0.0
C386 C 0.82024 0.17608 0.67328 0.0
C387 C 0.83978 0.21484 0.7671 0.0
H388 H 0.79175 0.28942 0.77342 0.0
C389 C 0.82365 0.34041 0.89519 0.0
C390 C 0.81396 0.38648 0.88838 0.0
C391 C 0.82575 0.30533 0.86614 0.0
C392 C 0.80535 0.26938 0.77179 0.0
H393 H 0.84538 0.04902 0.69927 0.0
H394 H 0.84048 0.11164 0.74809 0.0
H395 H 0.79536 0.22728 0.72331 0.0
H396 H 0.79928 0.43215 0.84533 0.0
H397 H 0.80304 0.37124 0.79468 0.0
H398 H 0.84985 0.2569 0.81535 0.0
C399 C 0.83568 0.12039 0.71943 0.0
C400 C 0.8074 0.23373 0.74307 0.0
C401 C 0.83849 0.08443 0.69139 0.0
C402 C 0.80654 0.39673 0.85173 0.0
C403 C 0.80868 0.36173 0.82266 0.0
C404 C 0.83776 0.25052 0.79571 0.0
C405 C 0.82675 0.16691 0.71069 0.0
C406 C 0.8246 0.20579 0.74055 0.0
C407 C 0.81828 0.31551 0.82949 0.0
C408 C 0.82049 0.27807 0.79858 0.0
H409 H 0.81846 0.14884 0.61639 0.0
H410 H 0.81342 0.21171 0.66557 0.0
H411 H 0.85335 0.19465 0.76556 0.0
H412 H 0.82928 0.33092 0.92315 0.0
H413 H 0.83295 0.2698 0.87259 0.0
C414 C 0.16426 0.64312 0.90589 0.0
C415 C 0.16018 0.59288 0.89533 0.0
C416 C 0.1657 0.68097 0.87857 0.0
C417 C 0.15077 0.71128 0.78007 0.0
H418 H 0.19171 0.81055 0.78761 0.0
C419 C 0.16605 0.84826 0.65796 0.0
C420 C 0.1716 0.89794 0.66714 0.0
C421 C 0.16441 0.81175 0.68616 0.0
C422 C 0.18002 0.78357 0.78529 0.0
H423 H 0.15502 0.54329 0.8473 0.0
H424 H 0.15734 0.6091 0.80002 0.0
H425 H 0.18942 0.74609 0.83632 0.0
H426 H 0.17926 0.94838 0.71337 0.0
H427 H 0.17621 0.88504 0.76254 0.0
H428 H 0.14126 0.74877 0.72925 0.0
C429 C 0.15913 0.61937 0.82948 0.0
C430 C 0.17874 0.74655 0.81324 0.0
C431 C 0.15778 0.58155 0.8567 0.0
C432 C 0.17525 0.91031 0.70526 0.0
C433 C 0.17353 0.87389 0.73347 0.0
C434 C 0.152 0.7484 0.75223 0.0
C435 C 0.16301 0.66959 0.84004 0.0
C436 C 0.16416 0.70978 0.81085 0.0
C437 C 0.16819 0.82402 0.72431 0.0
C438 C 0.16669 0.78493 0.75435 0.0
H439 H 0.16597 0.65354 0.93528 0.0
H440 H 0.16853 0.71939 0.88768 0.0
H441 H 0.13917 0.68401 0.77768 0.0
H442 H 0.16341 0.83719 0.62889 0.0
H443 H 0.16056 0.77358 0.67793 0.0
C444 C 0.822 0.83742 0.39731 0.0
C445 C 0.81492 0.88625 0.38924 0.0
C446 C 0.82392 0.80191 0.36844 0.0
C447 C 0.82804 0.79094 0.26519 0.0
H448 H 0.81193 0.65271 0.28108 0.0
C449 C 0.82535 0.6429 0.1448 0.0
C450 C 0.83214 0.5941 0.15398 0.0
C451 C 0.82262 0.67884 0.1731 0.0
C452 C 0.81668 0.69103 0.27628 0.0
H453 H 0.8048 0.93631 0.34423 0.0
H454 H 0.80791 0.87441 0.29415 0.0
H455 H 0.80905 0.71454 0.33147 0.0
H456 H 0.8408 0.54465 0.20045 0.0
H457 H 0.83653 0.60725 0.24933 0.0
H458 H 0.83581 0.76739 0.21011 0.0
C459 C 0.81204 0.86354 0.32275 0.0
C460 C 0.81505 0.72646 0.30521 0.0
C461 C 0.81005 0.89888 0.35157 0.0
C462 C 0.83585 0.58199 0.19216 0.0
C463 C 0.83314 0.6178 0.22035 0.0
C464 C 0.82973 0.75547 0.23628 0.0
C465 C 0.81893 0.81456 0.33081 0.0
C466 C 0.82075 0.77681 0.30006 0.0
C467 C 0.82656 0.66675 0.21124 0.0
C468 C 0.82414 0.705 0.2415 0.0
H469 H 0.82576 0.82634 0.426 0.0
H470 H 0.82946 0.76464 0.37556 0.0
H471 H 0.83278 0.82929 0.26046 0.0
H472 H 0.82246 0.65364 0.11572 0.0
H473 H 0.81734 0.71605 0.16509 0.0
C474 C 0.15967 0.08381 0.35737 0.0
C475 C 0.16162 0.09517 0.39605 0.0
C476 C 0.16124 0.12163 0.33023 0.0
C477 C 0.18086 0.24853 0.31415 0.0
H478 H 0.14356 0.25061 0.22987 0.0
C479 C 0.17826 0.41047 0.20437 0.0
C480 C 0.1744 0.39746 0.16644 0.0
C481 C 0.17646 0.37467 0.233 0.0
C482 C 0.15425 0.25028 0.25293 0.0
H483 H 0.16697 0.15586 0.4362 0.0
H484 H 0.16999 0.22174 0.3887 0.0
H485 H 0.14119 0.18643 0.27862 0.0
H486 H 0.16589 0.33622 0.1289 0.0
H487 H 0.16294 0.27367 0.17863 0.0
H488 H 0.19412 0.31189 0.28821 0.0
C489 C 0.16728 0.18329 0.37953 0.0
C490 C 0.15286 0.21351 0.28094 0.0
C491 C 0.16558 0.14542 0.40678 0.0
C492 C 0.16866 0.34776 0.15784 0.0
C493 C 0.16696 0.31187 0.18643 0.0
C494 C 0.18234 0.28518 0.28597 0.0
C495 C 0.16494 0.17187 0.34094 0.0
C496 C 0.1662 0.21201 0.31179 0.0
C497 C 0.17084 0.32481 0.22443 0.0
C498 C 0.1691 0.28641 0.25488 0.0
H499 H 0.15705 0.04555 0.34783 0.0
H500 H 0.15974 0.11138 0.30074 0.0
H501 H 0.19149 0.24806 0.33734 0.0
H502 H 0.18244 0.44859 0.212 0.0
H503 H 0.17924 0.38632 0.26193 0.0
C504 C 0.56728 0.97213 0.06486 0.0
C505 C 0.57878 0.95406 0.03615 0.0
C506 C 0.54721 0.96749 0.06177 0.0
C507 C 0.5073 0.90474 1.00534 0.0
H508 H 0.47706 0.01396 0.04629 0.0
C509 C 0.42524 0.94429 0.9725 0.0
C510 C 0.4143 0.94567 1.00495 0.0
C511 C 0.44542 0.9422 0.97578 0.0
C512 C 0.48538 0.98323 0.03481 0.0
H513 H 0.57862 0.91706 0.98181 0.0
H514 H 0.54357 0.91085 0.97539 0.0
H515 H 0.51212 0.01614 0.05331 0.0
H516 H 0.41563 0.94652 0.06601 0.0
H517 H 0.45092 0.94438 0.07165 0.0
H518 H 0.48024 0.87333 0.98551 0.0
C519 C 0.54989 0.92698 1.001 0.0
C520 C 0.50547 0.98408 0.03911 0.0
C521 C 0.56998 0.93066 1.00452 0.0
C522 C 0.42378 0.94501 0.04061 0.0
C523 C 0.44389 0.94403 0.04385 0.0
C524 C 0.48718 0.90451 1.00036 0.0
C525 C 0.5382 0.94585 0.02941 0.0
C526 C 0.51673 0.94464 0.02473 0.0
C527 C 0.45485 0.94272 1.0115 0.0
C528 C 0.47611 0.94356 1.01533 0.0
H529 H 0.57384 0.99012 0.08958 0.0
H530 H 0.5388 0.98128 0.08471 0.0
H531 H 0.51538 0.87328 0.99437 0.0
H532 H 0.41819 0.94476 0.94475 0.0
H533 H 0.45368 0.94141 0.9505 0.0
C534 C 0.42402 0.44406 0.47184 0.0
C535 C 0.41315 0.44368 0.50442 0.0
C536 C 0.44422 0.44315 0.47487 0.0
C537 C 0.48682 0.41015 0.498 0.0
H538 H 0.50971 0.52377 0.55231 0.0
C539 C 0.56811 0.43126 0.5471 0.0
C540 C 0.5768 0.47479 0.53258 0.0
C541 C 0.54814 0.42413 0.54277 0.0
C542 C 0.50346 0.4918 0.53724 0.0
H543 H 0.41468 0.44215 0.56548 0.0
H544 H 0.44998 0.44203 0.5707 0.0
H545 H 0.4745 0.51615 0.54641 0.0
H546 H 0.57109 0.54383 0.50067 0.0
H547 H 0.5363 0.53243 0.49521 0.0
H548 H 0.51591 0.38539 0.48953 0.0
C549 C 0.44288 0.44212 0.54297 0.0
C550 C 0.48342 0.48742 0.53393 0.0
C551 C 0.42276 0.44196 0.53996 0.0
C552 C 0.56499 0.51064 0.51337 0.0
C553 C 0.54506 0.50398 0.50979 0.0
C554 C 0.50693 0.41395 0.50206 0.0
C555 C 0.45375 0.44304 0.5105 0.0
C556 C 0.47496 0.44678 0.51409 0.0
C557 C 0.5365 0.46077 0.52447 0.0
C558 C 0.51535 0.45505 0.52145 0.0
H559 H 0.41689 0.44535 0.44416 0.0
H560 H 0.45239 0.44416 0.4495 0.0
H561 H 0.48053 0.37847 0.48269 0.0
H562 H 0.57664 0.40306 0.56237 0.0
H563 H 0.54173 0.39063 0.55448 0.0
C564 C 0.06649 0.92968 0.54485 0.0
C565 C 0.07707 0.95886 0.51998 0.0
C566 C 0.04653 0.92407 0.53896 0.0
C567 C 0.00476 0.98594 0.48914 0.0
H568 H 0.97809 0.863 0.51514 0.0
C569 C 0.92284 0.96241 0.46118 0.0
C570 C 0.91269 0.94623 0.49249 0.0
C571 C 0.94299 0.95916 0.46142 0.0
C572 C 0.98539 0.89755 0.50779 0.0
H573 H 0.07542 0.00265 0.46841 0.0
H574 H 0.0408 0.99183 0.45748 0.0
H575 H 0.01331 0.86613 0.52137 0.0
H576 H 0.91591 0.9131 0.54839 0.0
H577 H 0.9509 0.90645 0.54828 0.0
H578 H 0.97685 0.01723 0.47549 0.0
C579 C 0.04766 0.97469 0.48227 0.0
C580 C 0.00553 0.89948 0.51154 0.0
C581 C 0.0675 0.98078 0.48842 0.0
C582 C 0.92315 0.92509 0.52345 0.0
C583 C 0.94324 0.92138 0.52351 0.0
C584 C 0.98468 0.98381 0.48505 0.0
C585 C 0.03684 0.94704 0.5078 0.0
C586 C 0.01547 0.94387 0.50255 0.0
C587 C 0.95338 0.93919 0.4928 0.0
C588 C 0.97477 0.93979 0.49464 0.0
H589 H 0.07357 0.91251 0.56943 0.0
H590 H 0.03865 0.90298 0.55944 0.0
H591 H 0.01184 0.02112 0.48269 0.0
H592 H 0.91527 0.97803 0.43658 0.0
H593 H 0.95047 0.97264 0.43718 0.0
C594 C 0.92431 0.49306 0.03689 0.0
C595 C 0.91345 0.46181 1.01219 0.0
C596 C 0.94434 0.48874 0.03983 0.0
C597 C 0.98537 0.40438 0.0228 0.0
H598 H 0.01393 0.53016 0.02528 0.0
C599 C 0.0691 0.4181 1.0164 0.0
C600 C 0.07807 0.45546 0.03904 0.0
C601 C 0.04894 0.41451 1.01388 0.0
C602 C 0.00618 0.49469 0.02508 0.0
H603 H 0.91504 0.40044 0.97197 0.0
H604 H 0.95033 0.39291 0.97708 0.0
H605 H 0.97892 0.53218 0.01834 0.0
H606 H 0.07315 0.51596 0.0787 0.0
H607 H 0.03808 0.50944 0.07465 0.0
H608 H 0.01283 0.36702 0.0296 0.0
C609 C 0.94321 0.42067 0.99421 0.0
C610 C 0.98611 0.49585 0.02103 0.0
C611 C 0.92306 0.42503 0.99124 0.0
C612 C 0.06659 0.48743 0.0605 0.0
C613 C 0.04653 0.48377 0.05809 0.0
C614 C 0.00555 0.40321 0.02689 0.0
C615 C 0.95405 0.45302 1.01819 0.0
C616 C 0.97545 0.45082 0.02036 0.0
C617 C 0.03746 0.44819 0.03401 0.0
C618 C 0.01612 0.44845 0.0286 0.0
H619 H 0.91731 0.52079 0.05425 0.0
H620 H 0.95225 0.51337 0.05924 0.0
H621 H 0.97751 0.36908 0.02255 0.0
H622 H 0.0776 0.39317 0.99935 0.0
H623 H 0.04236 0.38685 0.99499 0.0
C624 C 0.20829 0.36221 1.01073 0.0
C625 C 0.20851 0.41451 1.0043 0.0
C626 C 0.22527 0.33387 1.00864 0.0
C627 C 0.27301 0.32852 0.96961 0.0
H628 H 0.28603 0.2456 0.05711 0.0
C629 C 0.33445 0.17902 0.03426 0.0
C630 C 0.33314 0.14224 1.0058 0.0
C631 C 0.32293 0.2225 0.03165 0.0
C632 C 0.28278 0.26922 0.03275 0.0
H633 H 0.22629 0.47788 0.98877 0.0
H634 H 0.25589 0.42787 0.98412 0.0
H635 H 0.257 0.29813 0.05633 0.0
H636 H 0.32073 0.12454 0.95044 0.0
H637 H 0.30105 0.20094 0.94546 0.0
H638 H 0.29845 0.29782 0.94545 0.0
C639 C 0.24265 0.40907 0.9912 0.0
C640 C 0.26604 0.29867 0.03211 0.0
C641 C 0.22575 0.43757 0.99394 0.0
C642 C 0.32192 0.1523 0.97284 0.0
C643 C 0.31069 0.19609 0.96995 0.0
C644 C 0.28964 0.29832 0.96998 0.0
C645 C 0.24264 0.35724 0.99946 0.0
C646 C 0.26086 0.32796 1.00035 0.0
C647 C 0.3103 0.23016 1.00021 0.0
C648 C 0.29454 0.26798 1.00143 0.0
H649 H 0.19521 0.34356 0.01893 0.0
H650 H 0.2249 0.29378 1.01477 0.0
H651 H 0.26929 0.35095 0.94484 0.0
H652 H 0.34297 0.17214 0.05998 0.0
H653 H 0.32299 0.24852 0.05522 0.0
C654 C 0.81797 0.6656 0.98425 0.0
C655 C 0.81936 0.62654 0.95773 0.0
C656 C 0.80658 0.7081 0.97601 0.0
C657 C 0.76132 0.73338 0.93631 0.0
H658 H 0.77332 0.87616 0.94166 0.0
C659 C 0.70037 0.87854 0.95164 0.0
C660 C 0.70445 0.91926 0.97585 0.0
C661 C 0.71533 0.84811 0.93896 0.0
C662 C 0.76966 0.83645 0.94046 0.0
H663 H 0.8108 0.60204 0.90128 0.0
H664 H 0.79019 0.67579 0.88752 0.0
H665 H 0.79948 0.81416 0.9391 0.0
H666 H 0.7272 0.96089 1.00546 0.0
H667 H 0.75308 0.90641 0.98563 0.0
H668 H 0.73183 0.75412 0.94135 0.0
C669 C 0.79833 0.67392 0.91416 0.0
C670 C 0.78466 0.80117 0.9385 0.0
C671 C 0.81014 0.63198 0.92202 0.0
C672 C 0.72369 0.92984 0.98653 0.0
C673 C 0.73859 0.89871 0.97477 0.0
C674 C 0.74636 0.7684 0.93931 0.0
C675 C 0.79609 0.7115 0.94151 0.0
C676 C 0.78057 0.74942 0.93707 0.0
C677 C 0.73463 0.85689 0.9512 0.0
C678 C 0.75032 0.82045 0.94238 0.0
H679 H 0.8249 0.66205 1.01202 0.0
H680 H 0.80484 0.7365 0.99762 0.0
H681 H 0.75791 0.69344 0.93577 0.0
H682 H 0.68561 0.87006 0.94268 0.0
H683 H 0.71167 0.8172 0.92007 0.0
C684 C 0.16684 0.67295 0.05586 0.0
C685 C 0.16538 0.63682 0.08452 0.0
C686 C 0.17815 0.71591 0.06183 0.0
C687 C 0.2236 0.73886 0.10095 0.0
H688 H 0.21491 0.88131 0.08123 0.0
C689 C 0.28785 0.86993 0.07722 0.0
C690 C 0.28502 0.90826 0.05035 0.0
C691 C 0.27208 0.84334 0.09033 0.0
C692 C 0.21765 0.84157 0.08639 0.0
H693 H 0.17335 0.61849 0.14254 0.0
H694 H 0.19381 0.69295 0.15246 0.0
H695 H 0.18736 0.82536 0.08877 0.0
H696 H 0.26379 0.94924 1.01593 0.0
H697 H 0.23645 0.90065 0.0364 0.0
H698 H 0.25352 0.75285 0.09497 0.0
C699 C 0.18581 0.68856 0.12585 0.0
C700 C 0.20185 0.80987 0.09126 0.0
C701 C 0.17407 0.64621 0.12019 0.0
C702 C 0.26627 0.91982 0.03681 0.0
C703 C 0.25056 0.89227 0.049 0.0
C704 C 0.23934 0.7701 0.09505 0.0
C705 C 0.18849 0.72257 0.09621 0.0
C706 C 0.20475 0.75819 0.09798 0.0
C707 C 0.25322 0.85348 0.0759 0.0
C708 C 0.23659 0.82175 0.08683 0.0
H709 H 0.16033 0.66622 0.02808 0.0
H710 H 0.18022 0.74146 0.0385 0.0
H711 H 0.2261 0.69881 0.10542 0.0
H712 H 0.30222 0.86105 0.08851 0.0
H713 H 0.27477 0.81477 0.11172 0.0
C714 C 0.67186 0.16736 0.06398 0.0
C715 C 0.67119 0.12635 0.08895 0.0
C716 C 0.6837 0.20864 0.07256 0.0
C717 C 0.73039 0.22744 0.10807 0.0
H718 H 0.71972 0.37127 0.10524 0.0
C719 C 0.79188 0.36889 0.08736 0.0
C720 C 0.78735 0.41023 0.06393 0.0
C721 C 0.77716 0.33878 0.10106 0.0
C722 C 0.72299 0.33124 0.10573 0.0
H723 H 0.68143 0.09721 0.1432 0.0
H724 H 0.70278 0.16884 0.15746 0.0
H725 H 0.69312 0.31163 0.11019 0.0
H726 H 0.76407 0.45291 0.03645 0.0
H727 H 0.7386 0.39912 0.05808 0.0
H728 H 0.75983 0.24572 0.09994 0.0
C729 C 0.69377 0.16943 0.13184 0.0
C730 C 0.70776 0.2973 0.10909 0.0
C731 C 0.68153 0.12871 0.12373 0.0
C732 C 0.76794 0.42139 0.05473 0.0
C733 C 0.75329 0.39071 0.06758 0.0
C734 C 0.74555 0.26117 0.10371 0.0
C735 C 0.69536 0.20884 0.10576 0.0
C736 C 0.71135 0.24519 0.10949 0.0
C737 C 0.75765 0.34871 0.09076 0.0
C738 C 0.74201 0.31354 0.10138 0.0
H739 H 0.66409 0.16615 0.03693 0.0
H740 H 0.6849 0.23848 0.0519 0.0
H741 H 0.7334 0.18721 0.1078 0.0
H742 H 0.80677 0.35995 0.09518 0.0
H743 H 0.78114 0.30749 0.11943 0.0
C744 C 0.22519 0.93952 0.49762 0.0
C745 C 0.2075 0.91617 0.5045 0.0
C746 C 0.2416 0.9105 0.49113 0.0
C747 C 0.2575 0.78017 0.46803 0.0
H748 H 0.30582 0.82238 0.51685 0.0
C749 C 0.32202 0.64797 0.46614 0.0
C750 C 0.33133 0.64042 0.5015 0.0
C751 C 0.3104 0.69046 0.45956 0.0
C752 C 0.29246 0.81003 0.50302 0.0
H753 H 0.19298 0.84429 0.50946 0.0
H754 H 0.2217 0.79344 0.49914 0.0
H755 H 0.27747 0.87672 0.51961 0.0
H756 H 0.33739 0.67326 0.55647 0.0
H757 H 0.31648 0.74645 0.54576 0.0
H758 H 0.27196 0.71209 0.45366 0.0
C759 C 0.22287 0.83419 0.49789 0.0
C760 C 0.27623 0.84148 0.50422 0.0
C761 C 0.20641 0.86327 0.50402 0.0
C762 C 0.33036 0.67834 0.52894 0.0
C763 C 0.31836 0.72038 0.52269 0.0
C764 C 0.27364 0.74858 0.46716 0.0
C765 C 0.24072 0.85746 0.4917 0.0
C766 C 0.25844 0.82642 0.48739 0.0
C767 C 0.30745 0.72553 0.48856 0.0
C768 C 0.29126 0.76262 0.48523 0.0
H769 H 0.22642 0.98032 0.49753 0.0
H770 H 0.255 0.92968 0.48582 0.0
H771 H 0.24416 0.76776 0.45416 0.0
H772 H 0.32272 0.61934 0.4444 0.0
H773 H 0.30278 0.69408 0.43249 0.0
C774 C 0.7028 0.38994 0.47343 0.0
C775 C 0.70578 0.43425 0.49444 0.0
C776 C 0.71845 0.3592 0.46461 0.0
C777 C 0.77279 0.35306 0.46926 0.0
H778 H 0.76309 0.20926 0.47563 0.0
C779 C 0.82765 0.19433 0.51305 0.0
C780 C 0.82589 0.14865 0.49305 0.0
C781 C 0.81534 0.23499 0.5039 0.0
C782 C 0.76598 0.24932 0.4732 0.0
H783 H 0.72737 0.48188 0.52219 0.0
H784 H 0.75444 0.42732 0.50875 0.0
H785 H 0.73626 0.26803 0.47765 0.0
H786 H 0.81153 0.11169 0.44515 0.0
H787 H 0.79003 0.18228 0.42968 0.0
H788 H 0.80287 0.33336 0.46758 0.0
C789 C 0.74025 0.41679 0.49767 0.0
C790 C 0.75056 0.28318 0.47413 0.0
C791 C 0.72467 0.448 0.5057 0.0
C792 C 0.81302 0.14613 0.4615 0.0
C793 C 0.8007 0.18647 0.45257 0.0
C794 C 0.78831 0.31902 0.46913 0.0
C795 C 0.73736 0.37151 0.47749 0.0
C796 C 0.75372 0.33561 0.47263 0.0
C797 C 0.80114 0.23029 0.47477 0.0
C798 C 0.785 0.2669 0.47139 0.0
H799 H 0.68836 0.37884 0.46408 0.0
H800 H 0.71564 0.32537 0.4482 0.0
H801 H 0.77581 0.39305 0.46728 0.0
H802 H 0.83741 0.19735 0.53751 0.0
H803 H 0.81589 0.26847 0.52147 0.0
C804 C 0.16552 0.17515 0.55733 0.0
C805 C 0.16383 0.13851 0.58556 0.0
C806 C 0.17696 0.21773 0.56392 0.0
C807 C 0.2224 0.23904 0.60356 0.0
H808 H 0.2141 0.38194 0.58515 0.0
C809 C 0.28695 0.36917 0.5796 0.0
C810 C 0.28408 0.40769 0.55288 0.0
C811 C 0.27118 0.34281 0.59297 0.0
C812 C 0.21673 0.34207 0.58997 0.0
H813 H 0.17159 0.11877 0.6434 0.0
H814 H 0.19231 0.19256 0.6544 0.0
H815 H 0.1864 0.32639 0.59232 0.0
H816 H 0.26277 0.4492 0.51902 0.0
H817 H 0.23543 0.40111 0.53995 0.0
H818 H 0.25235 0.25258 0.59755 0.0
C819 C 0.18435 0.1889 0.62767 0.0
C820 C 0.20084 0.31059 0.59463 0.0
C821 C 0.17247 0.14695 0.62141 0.0
C822 C 0.26529 0.41967 0.53979 0.0
C823 C 0.24958 0.39239 0.55225 0.0
C824 C 0.23822 0.27008 0.59787 0.0
C825 C 0.18723 0.22346 0.59847 0.0
C826 C 0.2036 0.25875 0.60079 0.0
C827 C 0.25227 0.3534 0.57897 0.0
C828 C 0.23561 0.32189 0.59005 0.0
H829 H 0.15908 0.16908 0.5294 0.0
H830 H 0.17918 0.24368 0.5409 0.0
H831 H 0.22479 0.19887 0.60763 0.0
H832 H 0.30134 0.35992 0.59054 0.0
H833 H 0.2739 0.31403 0.61418 0.0
C834 C 0.66956 0.68615 0.57048 0.0
C835 C 0.66841 0.6461 0.59617 0.0
C836 C 0.68141 0.72747 0.57888 0.0
C837 C 0.72779 0.74481 0.61609 0.0
H838 H 0.71866 0.88902 0.60789 0.0
C839 C 0.79101 0.87887 0.59135 0.0
C840 C 0.78711 0.91894 0.56637 0.0
C841 C 0.77585 0.85141 0.60612 0.0
C842 C 0.72152 0.84884 0.6099 0.0
H843 H 0.67769 0.61881 0.65152 0.0
H844 H 0.69909 0.69044 0.66553 0.0
H845 H 0.69138 0.83178 0.61388 0.0
H846 H 0.76452 0.96235 0.53738 0.0
H847 H 0.73823 0.91285 0.56081 0.0
H848 H 0.75747 0.76023 0.60831 0.0
C849 C 0.69043 0.69033 0.63946 0.0
C850 C 0.70588 0.81631 0.61386 0.0
C851 C 0.67816 0.64961 0.63148 0.0
C852 C 0.76789 0.9317 0.55681 0.0
C853 C 0.75277 0.90352 0.5707 0.0
C854 C 0.74334 0.77705 0.6111 0.0
C855 C 0.6926 0.72861 0.61265 0.0
C856 C 0.70891 0.76402 0.61616 0.0
C857 C 0.7565 0.8626 0.59531 0.0
C858 C 0.74038 0.82945 0.60679 0.0
H859 H 0.66224 0.68401 0.543 0.0
H860 H 0.68307 0.75639 0.55765 0.0
H861 H 0.73038 0.7044 0.61726 0.0
H862 H 0.80575 0.86882 0.59951 0.0
H863 H 0.77936 0.82105 0.62565 0.0
loop_
_geom_bond_atom_site_label_1
_geom_bond_atom_site_label_2
_geom_bond_distance
_geom_bond_site_symmetry_2
_ccdc_geom_bond_type
Co0 N4 2.148 1_554 S
Co0 N10 2.128 1_565 S
Co0 N20 2.194 . S
Co0 O25 2.351 . S
Co0 O26 2.155 . S
Co0 O27 2.096 1_564 S
C1 N4 1.301 . S
C1 N5 1.328 . S
C1 H6 0.930 . S
C2 C3 1.333 1_545 S
C2 N4 1.317 1_545 S
C2 H7 0.930 . S
C3 C2 1.333 1_565 S
C3 N5 1.350 . S
C3 H29 0.931 . S
N4 Co0 2.148 1_556 S
N4 C1 1.301 . S
N4 C2 1.317 1_565 S
N5 C1 1.328 . S
N5 C3 1.350 . S
H6 C1 0.930 . S
H7 C2 0.930 . S
C8 O9 1.224 . S
C8 O27 1.247 . S
O9 C8 1.224 . S
N10 Co0 2.128 1_545 S
N10 C11 1.355 . S
N10 C13 1.311 . S
C11 N10 1.355 . S
C11 C12 1.363 . S
C11 H23 0.929 1_545 S
C12 C11 1.363 . S
C12 N14 1.375 . S
C12 H30 0.931 . S
C13 N10 1.311 . S
C13 N14 1.347 . S
C13 H24 0.929 . S
N14 C12 1.375 . S
N14 C13 1.347 . S
C15 C18 1.365 . S
C15 N20 1.328 . S
C15 H21 0.929 . S
C16 C17 1.362 1_556 S
C16 C19 1.378 . S
C16 H31 0.929 . S
C17 C16 1.362 1_554 S
C17 C18 1.366 1_545 S
C18 C15 1.365 . S
C18 C17 1.366 1_565 S
C18 H32 0.930 . S
C19 C16 1.378 . S
C19 N20 1.315 1_546 S
C19 H22 0.930 . S
N20 Co0 2.194 . S
N20 C15 1.328 . S
N20 C19 1.315 1_564 S
H21 C15 0.929 . S
H22 C19 0.930 . S
H23 C11 0.929 1_565 S
H24 C13 0.929 . S
O25 Co0 2.351 . S
O25 C28 1.244 . S
O26 Co0 2.155 . S
O26 C28 1.240 . S
O27 Co0 2.096 1_546 S
O27 C8 1.247 . S
C28 O25 1.244 . S
C28 O26 1.240 . S
H29 C3 0.931 . S
H30 C12 0.931 . S
H31 C16 0.929 . S
H32 C18 0.930 . S
Co33 N37 2.148 . S
Co33 N43 2.128 1_564 S
Co33 N53 2.194 . S
Co33 O58 2.351 1_554 S
Co33 O59 2.155 1_554 S
Co33 O60 2.096 1_565 S
C34 N37 1.301 . S
C34 N38 1.328 . S
C34 H39 0.930 . S
C35 C36 1.333 1_545 S
C35 N37 1.317 1_545 S
C35 H40 0.930 . S
C36 C35 1.333 1_565 S
C36 N38 1.350 . S
C36 H62 0.931 . S
N37 Co33 2.148 . S
N37 C34 1.301 . S
N37 C35 1.317 1_565 S
N38 C34 1.328 . S
N38 C36 1.350 . S
H39 C34 0.930 . S
H40 C35 0.930 . S
C41 O42 1.224 . S
C41 O60 1.247 . S
O42 C41 1.224 . S
N43 Co33 2.128 1_546 S
N43 C44 1.355 . S
N43 C46 1.311 . S
C44 N43 1.355 . S
C44 C45 1.363 . S
C44 H56 0.929 1_545 S
C45 C44 1.363 . S
C45 N47 1.375 . S
C45 H63 0.931 . S
C46 N43 1.311 . S
C46 N47 1.347 . S
C46 H57 0.929 . S
N47 C45 1.375 . S
N47 C46 1.347 . S
C48 C51 1.365 . S
C48 N53 1.328 . S
C48 H54 0.929 . S
C49 C50 1.362 . S
C49 C52 1.378 . S
C49 H64 0.929 . S
C50 C49 1.362 . S
C50 C51 1.366 1_545 S
C51 C48 1.365 . S
C51 C50 1.366 1_565 S
C51 H65 0.930 . S
C52 C49 1.378 . S
C52 N53 1.315 1_545 S
C52 H55 0.930 . S
N53 Co33 2.194 . S
N53 C48 1.328 . S
N53 C52 1.315 1_565 S
H54 C48 0.929 . S
H55 C52 0.930 . S
H56 C44 0.929 1_565 S
H57 C46 0.929 . S
O58 Co33 2.351 1_556 S
O58 C61 1.244 . S
O59 Co33 2.155 1_556 S
O59 C61 1.240 . S
O60 Co33 2.096 1_545 S
O60 C41 1.247 . S
C61 O58 1.244 . S
C61 O59 1.240 . S
H62 C36 0.931 . S
H63 C45 0.931 . S
H64 C49 0.929 . S
H65 C51 0.930 . S
Co66 N70 2.148 . S
Co66 N76 2.128 . S
Co66 N86 2.194 . S
Co66 O91 2.351 . S
Co66 O92 2.155 . S
Co66 O93 2.096 . S
C67 N70 1.301 . S
C67 N71 1.328 . S
C67 H72 0.930 . S
C68 C69 1.333 . S
C68 N70 1.317 . S
C68 H73 0.930 . S
C69 C68 1.333 . S
C69 N71 1.350 . S
C69 H95 0.931 . S
N70 Co66 2.148 . S
N70 C67 1.301 . S
N70 C68 1.317 . S
N71 C67 1.328 . S
N71 C69 1.350 . S
H72 C67 0.930 . S
H73 C68 0.930 . S
C74 O75 1.224 . S
C74 O93 1.247 . S
O75 C74 1.224 . S
N76 Co66 2.128 . S
N76 C77 1.355 . S
N76 C79 1.311 . S
C77 N76 1.355 . S
C77 C78 1.363 . S
C77 H89 0.929 . S
C78 C77 1.363 . S
C78 N80 1.375 . S
C78 H96 0.931 . S
C79 N76 1.311 . S
C79 N80 1.347 . S
C79 H90 0.929 . S
N80 C78 1.375 . S
N80 C79 1.347 . S
C81 C84 1.365 . S
C81 N86 1.328 . S
C81 H87 0.929 . S
C82 C83 1.362 . S
C82 C85 1.378 . S
C82 H97 0.929 . S
C83 C82 1.362 . S
C83 C84 1.366 . S
C84 C81 1.365 . S
C84 C83 1.366 . S
C84 H98 0.930 . S
C85 C82 1.378 . S
C85 N86 1.315 . S
C85 H88 0.930 . S
N86 Co66 2.194 . S
N86 C81 1.328 . S
N86 C85 1.315 . S
H87 C81 0.929 . S
H88 C85 0.930 . S
H89 C77 0.929 . S
H90 C79 0.929 . S
O91 Co66 2.351 . S
O91 C94 1.244 . S
O92 Co66 2.155 . S
O92 C94 1.240 . S
O93 Co66 2.096 . S
O93 C74 1.247 . S
C94 O91 1.244 . S
C94 O92 1.240 . S
H95 C69 0.931 . S
H96 C78 0.931 . S
H97 C82 0.929 . S
H98 C84 0.930 . S
Co99 N103 2.148 . S
Co99 N109 2.128 . S
Co99 N119 2.194 . S
Co99 O124 2.351 . S
Co99 O125 2.155 . S
Co99 O126 2.096 . S
C100 N103 1.301 . S
C100 N104 1.328 . S
C100 H105 0.930 . S
C101 C102 1.333 . S
C101 N103 1.317 . S
C101 H106 0.930 . S
C102 C101 1.333 . S
C102 N104 1.350 . S
C102 H128 0.931 . S
N103 Co99 2.148 . S
N103 C100 1.301 . S
N103 C101 1.317 . S
N104 C100 1.328 . S
N104 C102 1.350 . S
H105 C100 0.930 . S
H106 C101 0.930 . S
C107 O108 1.224 . S
C107 O126 1.247 . S
O108 C107 1.224 . S
N109 Co99 2.128 . S
N109 C110 1.355 . S
N109 C112 1.311 . S
C110 N109 1.355 . S
C110 C111 1.363 . S
C110 H122 0.929 . S
C111 C110 1.363 . S
C111 N113 1.375 . S
C111 H129 0.931 . S
C112 N109 1.311 . S
C112 N113 1.347 . S
C112 H123 0.929 . S
N113 C111 1.375 . S
N113 C112 1.347 . S
C114 C117 1.365 . S
C114 N119 1.328 . S
C114 H120 0.929 . S
C115 C116 1.362 . S
C115 C118 1.378 . S
C115 H130 0.929 . S
C116 C115 1.362 . S
C116 C117 1.366 . S
C117 C114 1.365 . S
C117 C116 1.366 . S
C117 H131 0.930 . S
C118 C115 1.378 . S
C118 N119 1.315 . S
C118 H121 0.930 . S
N119 Co99 2.194 . S
N119 C114 1.328 . S
N119 C118 1.315 . S
H120 C114 0.929 . S
H121 C118 0.930 . S
H122 C110 0.929 . S
H123 C112 0.929 . S
O124 Co99 2.351 . S
O124 C127 1.244 . S
O125 Co99 2.155 . S
O125 C127 1.240 . S
O126 Co99 2.096 . S
O126 C107 1.247 . S
C127 O124 1.244 . S
C127 O125 1.240 . S
H128 C102 0.931 . S
H129 C111 0.931 . S
H130 C115 0.929 . S
H131 C117 0.930 . S
Co132 N136 2.148 . S
Co132 N142 2.128 1_565 S
Co132 N152 2.194 . S
Co132 O157 2.351 . S
Co132 O158 2.155 . S
Co132 O159 2.096 1_565 S
C133 N136 1.301 . S
C133 N137 1.328 . S
C133 H138 0.930 . S
C134 C135 1.333 1_545 S
C134 N136 1.317 1_545 S
C134 H139 0.930 . S
C135 C134 1.333 1_565 S
C135 N137 1.350 . S
C135 H161 0.931 . S
N136 Co132 2.148 . S
N136 C133 1.301 . S
N136 C134 1.317 1_565 S
N137 C133 1.328 . S
N137 C135 1.350 . S
H138 C133 0.930 . S
H139 C134 0.930 . S
C140 O141 1.224 . S
C140 O159 1.247 . S
O141 C140 1.224 . S
N142 Co132 2.128 1_545 S
N142 C143 1.355 . S
N142 C145 1.311 . S
C143 N142 1.355 . S
C143 C144 1.363 . S
C143 H155 0.929 1_545 S
C144 C143 1.363 . S
C144 N146 1.375 . S
C144 H162 0.931 . S
C145 N142 1.311 . S
C145 N146 1.347 . S
C145 H156 0.929 . S
N146 C144 1.375 . S
N146 C145 1.347 . S
C147 C150 1.365 . S
C147 N152 1.328 . S
C147 H153 0.929 . S
C148 C149 1.362 . S
C148 C151 1.378 . S
C148 H163 0.929 . S
C149 C148 1.362 . S
C149 C150 1.366 1_545 S
C150 C147 1.365 . S
C150 C149 1.366 1_565 S
C150 H164 0.930 . S
C151 C148 1.378 . S
C151 N152 1.315 1_545 S
C151 H154 0.930 . S
N152 Co132 2.194 . S
N152 C147 1.328 . S
N152 C151 1.315 1_565 S
H153 C147 0.929 . S
H154 C151 0.930 . S
H155 C143 0.929 1_565 S
H156 C145 0.929 . S
O157 Co132 2.351 . S
O157 C160 1.244 . S
O158 Co132 2.155 . S
O158 C160 1.240 . S
O159 Co132 2.096 1_545 S
O159 C140 1.247 . S
C160 O157 1.244 . S
C160 O158 1.240 . S
H161 C135 0.931 . S
H162 C144 0.931 . S
H163 C148 0.929 . S
H164 C150 0.930 . S
Co165 N169 2.148 . S
Co165 N175 2.128 1_565 S
Co165 N185 2.194 . S
Co165 O190 2.351 . S
Co165 O191 2.155 . S
Co165 O192 2.096 1_565 S
C166 N169 1.301 . S
C166 N170 1.328 . S
C166 H171 0.930 . S
C167 C168 1.333 1_545 S
C167 N169 1.317 1_545 S
C167 H172 0.930 . S
C168 C167 1.333 1_565 S
C168 N170 1.350 . S
C168 H194 0.931 . S
N169 Co165 2.148 . S
N169 C166 1.301 . S
N169 C167 1.317 1_565 S
N170 C166 1.328 . S
N170 C168 1.350 . S
H171 C166 0.930 . S
H172 C167 0.930 . S
C173 O174 1.224 . S
C173 O192 1.247 . S
O174 C173 1.224 . S
N175 Co165 2.128 1_545 S
N175 C176 1.355 . S
N175 C178 1.311 . S
C176 N175 1.355 . S
C176 C177 1.363 . S
C176 H188 0.929 1_545 S
C177 C176 1.363 . S
C177 N179 1.375 . S
C177 H195 0.931 . S
C178 N175 1.311 . S
C178 N179 1.347 . S
C178 H189 0.929 . S
N179 C177 1.375 . S
N179 C178 1.347 . S
C180 C183 1.365 . S
C180 N185 1.328 . S
C180 H186 0.929 . S
C181 C182 1.362 . S
C181 C184 1.378 . S
C181 H196 0.929 . S
C182 C181 1.362 . S
C182 C183 1.366 1_545 S
C183 C180 1.365 . S
C183 C182 1.366 1_565 S
C183 H197 0.930 . S
C184 C181 1.378 . S
C184 N185 1.315 1_545 S
C184 H187 0.930 . S
N185 Co165 2.194 . S
N185 C180 1.328 . S
N185 C184 1.315 1_565 S
H186 C180 0.929 . S
H187 C184 0.930 . S
H188 C176 0.929 1_565 S
H189 C178 0.929 . S
O190 Co165 2.351 . S
O190 C193 1.244 . S
O191 Co165 2.155 . S
O191 C193 1.240 . S
O192 Co165 2.096 1_545 S
O192 C173 1.247 . S
C193 O190 1.244 . S
C193 O191 1.240 . S
H194 C168 0.931 . S
H195 C177 0.931 . S
H196 C181 0.929 . S
H197 C183 0.930 . S
Co198 N202 2.148 1_554 S
Co198 N208 2.128 . S
Co198 N218 2.194 . S
Co198 O223 2.351 . S
Co198 O224 2.155 . S
Co198 O225 2.096 1_554 S
C199 N202 1.301 . S
C199 N203 1.328 . S
C199 H204 0.930 . S
C200 C201 1.333 . S
C200 N202 1.317 . S
C200 H205 0.930 . S
C201 C200 1.333 . S
C201 N203 1.350 . S
C201 H227 0.931 . S
N202 Co198 2.148 1_556 S
N202 C199 1.301 . S
N202 C200 1.317 . S
N203 C199 1.328 . S
N203 C201 1.350 . S
H204 C199 0.930 . S
H205 C200 0.930 . S
C206 O207 1.224 . S
C206 O225 1.247 . S
O207 C206 1.224 . S
N208 Co198 2.128 . S
N208 C209 1.355 . S
N208 C211 1.311 . S
C209 N208 1.355 . S
C209 C210 1.363 . S
C209 H221 0.929 . S
C210 C209 1.363 . S
C210 N212 1.375 . S
C210 H228 0.931 . S
C211 N208 1.311 . S
C211 N212 1.347 . S
C211 H222 0.929 . S
N212 C210 1.375 . S
N212 C211 1.347 . S
C213 C216 1.365 . S
C213 N218 1.328 . S
C213 H219 0.929 . S
C214 C215 1.362 1_556 S
C214 C217 1.378 . S
C214 H229 0.929 . S
C215 C214 1.362 1_554 S
C215 C216 1.366 . S
C216 C213 1.365 . S
C216 C215 1.366 . S
C216 H230 0.930 . S
C217 C214 1.378 . S
C217 N218 1.315 1_556 S
C217 H220 0.930 . S
N218 Co198 2.194 . S
N218 C213 1.328 . S
N218 C217 1.315 1_554 S
H219 C213 0.929 . S
H220 C217 0.930 . S
H221 C209 0.929 . S
H222 C211 0.929 . S
O223 Co198 2.351 . S
O223 C226 1.244 . S
O224 Co198 2.155 . S
O224 C226 1.240 . S
O225 Co198 2.096 1_556 S
O225 C206 1.247 . S
C226 O223 1.244 . S
C226 O224 1.240 . S
H227 C201 0.931 . S
H228 C210 0.931 . S
H229 C214 0.929 . S
H230 C216 0.930 . S
Co231 N235 2.148 . S
Co231 N241 2.128 1_554 S
Co231 N251 2.194 . S
Co231 O256 2.351 1_554 S
Co231 O257 2.155 1_554 S
Co231 O258 2.096 . S
C232 N235 1.301 . S
C232 N236 1.328 . S
C232 H237 0.930 . S
C233 C234 1.333 . S
C233 N235 1.317 . S
C233 H238 0.930 . S
C234 C233 1.333 . S
C234 N236 1.350 . S
C234 H260 0.931 . S
N235 Co231 2.148 . S
N235 C232 1.301 . S
N235 C233 1.317 . S
N236 C232 1.328 . S
N236 C234 1.350 . S
H237 C232 0.930 . S
H238 C233 0.930 . S
C239 O240 1.224 . S
C239 O258 1.247 . S
O240 C239 1.224 . S
N241 Co231 2.128 1_556 S
N241 C242 1.355 . S
N241 C244 1.311 . S
C242 N241 1.355 . S
C242 C243 1.363 . S
C242 H254 0.929 . S
C243 C242 1.363 . S
C243 N245 1.375 . S
C243 H261 0.931 . S
C244 N241 1.311 . S
C244 N245 1.347 . S
C244 H255 0.929 . S
N245 C243 1.375 . S
N245 C244 1.347 . S
C246 C249 1.365 . S
C246 N251 1.328 . S
C246 H252 0.929 . S
C247 C248 1.362 . S
C247 C250 1.378 . S
C247 H262 0.929 . S
C248 C247 1.362 . S
C248 C249 1.366 . S
C249 C246 1.365 . S
C249 C248 1.366 . S
C249 H263 0.930 . S
C250 C247 1.378 . S
C250 N251 1.315 . S
C250 H253 0.930 . S
N251 Co231 2.194 . S
N251 C246 1.328 . S
N251 C250 1.315 . S
H252 C246 0.929 . S
H253 C250 0.930 . S
H254 C242 0.929 . S
H255 C244 0.929 . S
O256 Co231 2.351 1_556 S
O256 C259 1.244 . S
O257 Co231 2.155 1_556 S
O257 C259 1.240 . S
O258 Co231 2.096 . S
O258 C239 1.247 . S
C259 O256 1.244 . S
C259 O257 1.240 . S
H260 C234 0.931 . S
H261 C243 0.931 . S
H262 C247 0.929 . S
H263 C249 0.930 . S
C264 C265 1.349 . S
C264 C266 1.327 . S
C264 H289 0.950 . S
C265 C264 1.349 . S
C265 C281 1.349 . S
C266 C264 1.327 . S
C266 C285 1.429 . S
C266 H290 0.950 . S
C267 C284 1.574 . S
C267 C286 1.368 . S
C267 H291 0.949 . S
H268 C272 0.949 . S
C269 C270 1.349 . S
C269 C271 1.327 . S
C269 H292 0.950 . S
C270 C269 1.349 . S
C270 C282 1.349 . S
C271 C269 1.327 . S
C271 C287 1.429 . S
C271 H293 0.950 . S
C272 H268 0.949 . S
C272 C280 1.574 . S
C272 C288 1.368 . S
H273 C281 0.950 . S
H274 C279 0.950 . S
H275 C280 0.949 . S
H276 C282 0.950 . S
H277 C283 0.950 . S
H278 C284 0.949 . S
C279 H274 0.950 . S
C279 C281 1.327 . S
C279 C285 1.429 . S
C280 C272 1.574 . S
C280 H275 0.949 . S
C280 C286 1.368 . S
C281 C265 1.349 . S
C281 H273 0.950 . S
C281 C279 1.327 . S
C282 C270 1.349 . S
C282 H276 0.950 . S
C282 C283 1.327 . S
C283 H277 0.950 . S
C283 C282 1.327 . S
C283 C287 1.429 . S
C284 C267 1.574 . S
C284 H278 0.949 . S
C284 C288 1.368 . S
C285 C266 1.429 . S
C285 C279 1.429 . S
C285 C286 1.523 . S
C286 C267 1.368 . S
C286 C280 1.368 . S
C286 C285 1.523 . S
C287 C271 1.429 . S
C287 C283 1.429 . S
C287 C288 1.523 . S
C288 C272 1.368 . S
C288 C284 1.368 . S
C288 C287 1.523 . S
H289 C264 0.950 . S
H290 C266 0.950 . S
H291 C267 0.949 . S
H292 C269 0.950 . S
H293 C271 0.950 . S
C294 C295 1.349 . S
C294 C296 1.327 . S
C294 H319 0.950 . S
C295 C294 1.349 . S
C295 C311 1.349 . S
C296 C294 1.327 . S
C296 C315 1.429 . S
C296 H320 0.950 . S
C297 C314 1.574 . S
C297 C316 1.368 . S
C297 H321 0.949 . S
H298 C302 0.949 . S
C299 C300 1.349 . S
C299 C301 1.327 . S
C299 H322 0.950 . S
C300 C299 1.349 . S
C300 C312 1.349 . S
C301 C299 1.327 . S
C301 C317 1.429 . S
C301 H323 0.950 . S
C302 H298 0.949 . S
C302 C310 1.574 . S
C302 C318 1.368 . S
H303 C311 0.950 . S
H304 C309 0.950 . S
H305 C310 0.949 . S
H306 C312 0.950 . S
H307 C313 0.950 . S
H308 C314 0.949 . S
C309 H304 0.950 . S
C309 C311 1.327 . S
C309 C315 1.429 . S
C310 C302 1.574 . S
C310 H305 0.949 . S
C310 C316 1.368 . S
C311 C295 1.349 . S
C311 H303 0.950 . S
C311 C309 1.327 . S
C312 C300 1.349 . S
C312 H306 0.950 . S
C312 C313 1.327 . S
C313 H307 0.950 . S
C313 C312 1.327 . S
C313 C317 1.429 . S
C314 C297 1.574 . S
C314 H308 0.949 . S
C314 C318 1.368 . S
C315 C296 1.429 . S
C315 C309 1.429 . S
C315 C316 1.523 . S
C316 C297 1.368 . S
C316 C310 1.368 . S
C316 C315 1.523 . S
C317 C301 1.429 . S
C317 C313 1.429 . S
C317 C318 1.523 . S
C318 C302 1.368 . S
C318 C314 1.368 . S
C318 C317 1.523 . S
H319 C294 0.950 . S
H320 C296 0.950 . S
H321 C297 0.949 . S
H322 C299 0.950 . S
H323 C301 0.950 . S
C324 C325 1.349 . S
C324 C326 1.327 . S
C324 H349 0.950 . S
C325 C324 1.349 . S
C325 C341 1.349 . S
C326 C324 1.327 . S
C326 C345 1.429 . S
C326 H350 0.950 . S
C327 C344 1.574 . S
C327 C346 1.368 . S
C327 H351 0.949 . S
H328 C332 0.949 . S
C329 C330 1.349 . S
C329 C331 1.327 . S
C329 H352 0.950 . S
C330 C329 1.349 . S
C330 C342 1.349 . S
C331 C329 1.327 . S
C331 C347 1.429 . S
C331 H353 0.950 . S
C332 H328 0.949 . S
C332 C340 1.574 . S
C332 C348 1.368 . S
H333 C341 0.950 . S
H334 C339 0.950 . S
H335 C340 0.949 . S
H336 C342 0.950 . S
H337 C343 0.950 . S
H338 C344 0.949 . S
C339 H334 0.950 . S
C339 C341 1.327 . S
C339 C345 1.429 . S
C340 C332 1.574 . S
C340 H335 0.949 . S
C340 C346 1.368 . S
C341 C325 1.349 . S
C341 H333 0.950 . S
C341 C339 1.327 . S
C342 C330 1.349 . S
C342 H336 0.950 . S
C342 C343 1.327 . S
C343 H337 0.950 . S
C343 C342 1.327 . S
C343 C347 1.429 . S
C344 C327 1.574 . S
C344 H338 0.949 . S
C344 C348 1.368 . S
C345 C326 1.429 . S
C345 C339 1.429 . S
C345 C346 1.523 . S
C346 C327 1.368 . S
C346 C340 1.368 . S
C346 C345 1.523 . S
C347 C331 1.429 . S
C347 C343 1.429 . S
C347 C348 1.523 . S
C348 C332 1.368 . S
C348 C344 1.368 . S
C348 C347 1.523 . S
H349 C324 0.950 . S
H350 C326 0.950 . S
H351 C327 0.949 . S
H352 C329 0.950 . S
H353 C331 0.950 . S
C354 C355 1.349 . S
C354 C356 1.327 . S
C354 H379 0.950 . S
C355 C354 1.349 . S
C355 C371 1.349 . S
C356 C354 1.327 . S
C356 C375 1.429 . S
C356 H380 0.950 . S
C357 C374 1.574 . S
C357 C376 1.368 . S
C357 H381 0.949 . S
H358 C362 0.949 . S
C359 C360 1.349 . S
C359 C361 1.327 . S
C359 H382 0.950 . S
C360 C359 1.349 . S
C360 C372 1.349 . S
C361 C359 1.327 . S
C361 C377 1.429 . S
C361 H383 0.950 . S
C362 H358 0.949 . S
C362 C370 1.574 . S
C362 C378 1.368 . S
H363 C371 0.950 . S
H364 C369 0.950 . S
H365 C370 0.949 . S
H366 C372 0.950 . S
H367 C373 0.950 . S
H368 C374 0.949 . S
C369 H364 0.950 . S
C369 C371 1.327 . S
C369 C375 1.429 . S
C370 C362 1.574 . S
C370 H365 0.949 . S
C370 C376 1.368 . S
C371 C355 1.349 . S
C371 H363 0.950 . S
C371 C369 1.327 . S
C372 C360 1.349 . S
C372 H366 0.950 . S
C372 C373 1.327 . S
C373 H367 0.950 . S
C373 C372 1.327 . S
C373 C377 1.429 . S
C374 C357 1.574 . S
C374 H368 0.949 . S
C374 C378 1.368 . S
C375 C356 1.429 . S
C375 C369 1.429 . S
C375 C376 1.523 . S
C376 C357 1.368 . S
C376 C370 1.368 . S
C376 C375 1.523 . S
C377 C361 1.429 . S
C377 C373 1.429 . S
C377 C378 1.523 . S
C378 C362 1.368 . S
C378 C374 1.368 . S
C378 C377 1.523 . S
H379 C354 0.950 . S
H380 C356 0.950 . S
H381 C357 0.949 . S
H382 C359 0.950 . S
H383 C361 0.950 . S
C384 C385 1.349 . S
C384 C386 1.327 . S
C384 H409 0.950 . S
C385 C384 1.349 . S
C385 C401 1.349 . S
C386 C384 1.327 . S
C386 C405 1.429 . S
C386 H410 0.950 . S
C387 C404 1.574 . S
C387 C406 1.368 . S
C387 H411 0.949 . S
H388 C392 0.949 . S
C389 C390 1.349 . S
C389 C391 1.327 . S
C389 H412 0.950 . S
C390 C389 1.349 . S
C390 C402 1.349 . S
C391 C389 1.327 . S
C391 C407 1.429 . S
C391 H413 0.950 . S
C392 H388 0.949 . S
C392 C400 1.574 . S
C392 C408 1.368 . S
H393 C401 0.950 . S
H394 C399 0.950 . S
H395 C400 0.949 . S
H396 C402 0.950 . S
H397 C403 0.950 . S
H398 C404 0.949 . S
C399 H394 0.950 . S
C399 C401 1.327 . S
C399 C405 1.429 . S
C400 C392 1.574 . S
C400 H395 0.949 . S
C400 C406 1.368 . S
C401 C385 1.349 . S
C401 H393 0.950 . S
C401 C399 1.327 . S
C402 C390 1.349 . S
C402 H396 0.950 . S
C402 C403 1.327 . S
C403 H397 0.950 . S
C403 C402 1.327 . S
C403 C407 1.429 . S
C404 C387 1.574 . S
C404 H398 0.949 . S
C404 C408 1.368 . S
C405 C386 1.429 . S
C405 C399 1.429 . S
C405 C406 1.523 . S
C406 C387 1.368 . S
C406 C400 1.368 . S
C406 C405 1.523 . S
C407 C391 1.429 . S
C407 C403 1.429 . S
C407 C408 1.523 . S
C408 C392 1.368 . S
C408 C404 1.368 . S
C408 C407 1.523 . S
H409 C384 0.950 . S
H410 C386 0.950 . S
H411 C387 0.949 . S
H412 C389 0.950 . S
H413 C391 0.950 . S
C414 C415 1.349 . S
C414 C416 1.327 . S
C414 H439 0.950 . S
C415 C414 1.349 . S
C415 C431 1.349 . S
C416 C414 1.327 . S
C416 C435 1.429 . S
C416 H440 0.950 . S
C417 C434 1.574 . S
C417 C436 1.368 . S
C417 H441 0.949 . S
H418 C422 0.949 . S
C419 C420 1.349 . S
C419 C421 1.327 . S
C419 H442 0.950 . S
C420 C419 1.349 . S
C420 C432 1.349 . S
C421 C419 1.327 . S
C421 C437 1.429 . S
C421 H443 0.950 . S
C422 H418 0.949 . S
C422 C430 1.574 . S
C422 C438 1.368 . S
H423 C431 0.950 . S
H424 C429 0.950 . S
H425 C430 0.949 . S
H426 C432 0.950 . S
H427 C433 0.950 . S
H428 C434 0.949 . S
C429 H424 0.950 . S
C429 C431 1.327 . S
C429 C435 1.429 . S
C430 C422 1.574 . S
C430 H425 0.949 . S
C430 C436 1.368 . S
C431 C415 1.349 . S
C431 H423 0.950 . S
C431 C429 1.327 . S
C432 C420 1.349 . S
C432 H426 0.950 . S
C432 C433 1.327 . S
C433 H427 0.950 . S
C433 C432 1.327 . S
C433 C437 1.429 . S
C434 C417 1.574 . S
C434 H428 0.949 . S
C434 C438 1.368 . S
C435 C416 1.429 . S
C435 C429 1.429 . S
C435 C436 1.523 . S
C436 C417 1.368 . S
C436 C430 1.368 . S
C436 C435 1.523 . S
C437 C421 1.429 . S
C437 C433 1.429 . S
C437 C438 1.523 . S
C438 C422 1.368 . S
C438 C434 1.368 . S
C438 C437 1.523 . S
H439 C414 0.950 . S
H440 C416 0.950 . S
H441 C417 0.949 . S
H442 C419 0.950 . S
H443 C421 0.950 . S
C444 C445 1.349 . S
C444 C446 1.327 . S
C444 H469 0.950 . S
C445 C444 1.349 . S
C445 C461 1.349 . S
C446 C444 1.327 . S
C446 C465 1.429 . S
C446 H470 0.950 . S
C447 C464 1.574 . S
C447 C466 1.368 . S
C447 H471 0.949 . S
H448 C452 0.949 . S
C449 C450 1.349 . S
C449 C451 1.327 . S
C449 H472 0.950 . S
C450 C449 1.349 . S
C450 C462 1.349 . S
C451 C449 1.327 . S
C451 C467 1.429 . S
C451 H473 0.950 . S
C452 H448 0.949 . S
C452 C460 1.574 . S
C452 C468 1.368 . S
H453 C461 0.950 . S
H454 C459 0.950 . S
H455 C460 0.949 . S
H456 C462 0.950 . S
H457 C463 0.950 . S
H458 C464 0.949 . S
C459 H454 0.950 . S
C459 C461 1.327 . S
C459 C465 1.429 . S
C460 C452 1.574 . S
C460 H455 0.949 . S
C460 C466 1.368 . S
C461 C445 1.349 . S
C461 H453 0.950 . S
C461 C459 1.327 . S
C462 C450 1.349 . S
C462 H456 0.950 . S
C462 C463 1.327 . S
C463 H457 0.950 . S
C463 C462 1.327 . S
C463 C467 1.429 . S
C464 C447 1.574 . S
C464 H458 0.949 . S
C464 C468 1.368 . S
C465 C446 1.429 . S
C465 C459 1.429 . S
C465 C466 1.523 . S
C466 C447 1.368 . S
C466 C460 1.368 . S
C466 C465 1.523 . S
C467 C451 1.429 . S
C467 C463 1.429 . S
C467 C468 1.523 . S
C468 C452 1.368 . S
C468 C464 1.368 . S
C468 C467 1.523 . S
H469 C444 0.950 . S
H470 C446 0.950 . S
H471 C447 0.949 . S
H472 C449 0.950 . S
H473 C451 0.950 . S
C474 C475 1.349 . S
C474 C476 1.327 . S
C474 H499 0.950 . S
C475 C474 1.349 . S
C475 C491 1.349 . S
C476 C474 1.327 . S
C476 C495 1.429 . S
C476 H500 0.950 . S
C477 C494 1.574 . S
C477 C496 1.368 . S
C477 H501 0.949 . S
H478 C482 0.949 . S
C479 C480 1.349 . S
C479 C481 1.327 . S
C479 H502 0.950 . S
C480 C479 1.349 . S
C480 C492 1.349 . S
C481 C479 1.327 . S
C481 C497 1.429 . S
C481 H503 0.950 . S
C482 H478 0.949 . S
C482 C490 1.574 . S
C482 C498 1.368 . S
H483 C491 0.950 . S
H484 C489 0.950 . S
H485 C490 0.949 . S
H486 C492 0.950 . S
H487 C493 0.950 . S
H488 C494 0.949 . S
C489 H484 0.950 . S
C489 C491 1.327 . S
C489 C495 1.429 . S
C490 C482 1.574 . S
C490 H485 0.949 . S
C490 C496 1.368 . S
C491 C475 1.349 . S
C491 H483 0.950 . S
C491 C489 1.327 . S
C492 C480 1.349 . S
C492 H486 0.950 . S
C492 C493 1.327 . S
C493 H487 0.950 . S
C493 C492 1.327 . S
C493 C497 1.429 . S
C494 C477 1.574 . S
C494 H488 0.949 . S
C494 C498 1.368 . S
C495 C476 1.429 . S
C495 C489 1.429 . S
C495 C496 1.523 . S
C496 C477 1.368 . S
C496 C490 1.368 . S
C496 C495 1.523 . S
C497 C481 1.429 . S
C497 C493 1.429 . S
C497 C498 1.523 . S
C498 C482 1.368 . S
C498 C494 1.368 . S
C498 C497 1.523 . S
H499 C474 0.950 . S
H500 C476 0.950 . S
H501 C477 0.949 . S
H502 C479 0.950 . S
H503 C481 0.950 . S
C504 C505 1.349 . S
C504 C506 1.327 . S
C504 H529 0.950 . S
C505 C504 1.349 . S
C505 C521 1.349 1_544 S
C506 C504 1.327 . S
C506 C525 1.429 . S
C506 H530 0.950 . S
C507 C524 1.574 . S
C507 C526 1.368 1_566 S
C507 H531 0.949 . S
H508 C512 0.949 . S
C509 C510 1.349 1_566 S
C509 C511 1.327 . S
C509 H532 0.950 . S
C510 C509 1.349 1_544 S
C510 C522 1.349 . S
C511 C509 1.327 . S
C511 C527 1.429 1_566 S
C511 H533 0.950 . S
C512 H508 0.949 . S
C512 C520 1.574 . S
C512 C528 1.368 . S
H513 C521 0.950 . S
H514 C519 0.950 . S
H515 C520 0.949 . S
H516 C522 0.950 . S
H517 C523 0.950 . S
H518 C524 0.949 . S
C519 H514 0.950 . S
C519 C521 1.327 . S
C519 C525 1.429 1_566 S
C520 C512 1.574 . S
C520 H515 0.949 . S
C520 C526 1.368 . S
C521 C505 1.349 1_566 S
C521 H513 0.950 . S
C521 C519 1.327 . S
C522 C510 1.349 . S
C522 H516 0.950 . S
C522 C523 1.327 . S
C523 H517 0.950 . S
C523 C522 1.327 . S
C523 C527 1.429 . S
C524 C507 1.574 . S
C524 H518 0.949 . S
C524 C528 1.368 1_566 S
C525 C506 1.429 . S
C525 C519 1.429 1_544 S
C525 C526 1.523 . S
C526 C507 1.368 1_544 S
C526 C520 1.368 . S
C526 C525 1.523 . S
C527 C511 1.429 1_544 S
C527 C523 1.429 . S
C527 C528 1.523 . S
C528 C512 1.368 . S
C528 C524 1.368 1_544 S
C528 C527 1.523 . S
H529 C504 0.950 . S
H530 C506 0.950 . S
H531 C507 0.949 . S
H532 C509 0.950 . S
H533 C511 0.950 . S
C534 C535 1.349 . S
C534 C536 1.327 . S
C534 H559 0.950 . S
C535 C534 1.349 . S
C535 C551 1.349 . S
C536 C534 1.327 . S
C536 C555 1.429 . S
C536 H560 0.950 . S
C537 C554 1.574 . S
C537 C556 1.368 . S
C537 H561 0.949 . S
H538 C542 0.949 . S
C539 C540 1.349 . S
C539 C541 1.327 . S
C539 H562 0.950 . S
C540 C539 1.349 . S
C540 C552 1.349 . S
C541 C539 1.327 . S
C541 C557 1.429 . S
C541 H563 0.950 . S
C542 H538 0.949 . S
C542 C550 1.574 . S
C542 C558 1.368 . S
H543 C551 0.950 . S
H544 C549 0.950 . S
H545 C550 0.949 . S
H546 C552 0.950 . S
H547 C553 0.950 . S
H548 C554 0.949 . S
C549 H544 0.950 . S
C549 C551 1.327 . S
C549 C555 1.429 . S
C550 C542 1.574 . S
C550 H545 0.949 . S
C550 C556 1.368 . S
C551 C535 1.349 . S
C551 H543 0.950 . S
C551 C549 1.327 . S
C552 C540 1.349 . S
C552 H546 0.950 . S
C552 C553 1.327 . S
C553 H547 0.950 . S
C553 C552 1.327 . S
C553 C557 1.429 . S
C554 C537 1.574 . S
C554 H548 0.949 . S
C554 C558 1.368 . S
C555 C536 1.429 . S
C555 C549 1.429 . S
C555 C556 1.523 . S
C556 C537 1.368 . S
C556 C550 1.368 . S
C556 C555 1.523 . S
C557 C541 1.429 . S
C557 C553 1.429 . S
C557 C558 1.523 . S
C558 C542 1.368 . S
C558 C554 1.368 . S
C558 C557 1.523 . S
H559 C534 0.950 . S
H560 C536 0.950 . S
H561 C537 0.949 . S
H562 C539 0.950 . S
H563 C541 0.950 . S
C564 C565 1.349 1_565 S
C564 C566 1.327 . S
C564 H589 0.950 . S
C565 C564 1.349 1_545 S
C565 C581 1.349 . S
C566 C564 1.327 . S
C566 C585 1.429 1_565 S
C566 H590 0.950 . S
C567 C584 1.574 1_455 S
C567 C586 1.368 . S
C567 H591 0.949 . S
H568 C572 0.949 . S
C569 C570 1.349 . S
C569 C571 1.327 . S
C569 H592 0.950 . S
C570 C569 1.349 . S
C570 C582 1.349 1_545 S
C571 C569 1.327 . S
C571 C587 1.429 . S
C571 H593 0.950 . S
C572 H568 0.949 . S
C572 C580 1.574 1_655 S
C572 C588 1.368 1_565 S
H573 C581 0.950 . S
H574 C579 0.950 . S
H575 C580 0.949 . S
H576 C582 0.950 . S
H577 C583 0.950 . S
H578 C584 0.949 . S
C579 H574 0.950 . S
C579 C581 1.327 . S
C579 C585 1.429 . S
C580 C572 1.574 1_455 S
C580 H575 0.949 . S
C580 C586 1.368 1_565 S
C581 C565 1.349 . S
C581 H573 0.950 . S
C581 C579 1.327 . S
C582 C570 1.349 1_565 S
C582 H576 0.950 . S
C582 C583 1.327 . S
C583 H577 0.950 . S
C583 C582 1.327 . S
C583 C587 1.429 1_565 S
C584 C567 1.574 1_655 S
C584 H578 0.949 . S
C584 C588 1.368 . S
C585 C566 1.429 1_545 S
C585 C579 1.429 . S
C585 C586 1.523 . S
C586 C567 1.368 . S
C586 C580 1.368 1_545 S
C586 C585 1.523 . S
C587 C571 1.429 . S
C587 C583 1.429 1_545 S
C587 C588 1.523 . S
C588 C572 1.368 1_545 S
C588 C584 1.368 . S
C588 C587 1.523 . S
H589 C564 0.950 . S
H590 C566 0.950 . S
H591 C567 0.949 . S
H592 C569 0.950 . S
H593 C571 0.950 . S
C594 C595 1.349 . S
C594 C596 1.327 . S
C594 H619 0.950 . S
C595 C594 1.349 . S
C595 C611 1.349 1_554 S
C596 C594 1.327 . S
C596 C615 1.429 . S
C596 H620 0.950 . S
C597 C614 1.574 1_655 S
C597 C616 1.368 1_556 S
C597 H621 0.949 . S
H598 C602 0.949 . S
C599 C600 1.349 1_556 S
C599 C601 1.327 . S
C599 H622 0.950 . S
C600 C599 1.349 1_554 S
C600 C612 1.349 . S
C601 C599 1.327 . S
C601 C617 1.429 1_556 S
C601 H623 0.950 . S
C602 H598 0.949 . S
C602 C610 1.574 1_455 S
C602 C618 1.368 . S
H603 C611 0.950 . S
H604 C609 0.950 . S
H605 C610 0.949 . S
H606 C612 0.950 . S
H607 C613 0.950 . S
H608 C614 0.949 . S
C609 H604 0.950 . S
C609 C611 1.327 . S
C609 C615 1.429 1_556 S
C610 C602 1.574 1_655 S
C610 H605 0.949 . S
C610 C616 1.368 . S
C611 C595 1.349 1_556 S
C611 H603 0.950 . S
C611 C609 1.327 . S
C612 C600 1.349 . S
C612 H606 0.950 . S
C612 C613 1.327 . S
C613 H607 0.950 . S
C613 C612 1.327 . S
C613 C617 1.429 . S
C614 C597 1.574 1_455 S
C614 H608 0.949 . S
C614 C618 1.368 1_556 S
C615 C596 1.429 . S
C615 C609 1.429 1_554 S
C615 C616 1.523 . S
C616 C597 1.368 1_554 S
C616 C610 1.368 . S
C616 C615 1.523 . S
C617 C601 1.429 1_554 S
C617 C613 1.429 . S
C617 C618 1.523 . S
C618 C602 1.368 . S
C618 C614 1.368 1_554 S
C618 C617 1.523 . S
H619 C594 0.950 . S
H620 C596 0.950 . S
H621 C597 0.949 . S
H622 C599 0.950 . S
H623 C601 0.950 . S
C624 C625 1.349 1_554 S
C624 C626 1.327 . S
C624 H649 0.950 . S
C625 C624 1.349 1_556 S
C625 C641 1.349 . S
C626 C624 1.327 . S
C626 C645 1.429 1_554 S
C626 H650 0.950 . S
C627 C644 1.574 . S
C627 C646 1.368 . S
C627 H651 0.949 . S
H628 C632 0.949 . S
C629 C630 1.349 . S
C629 C631 1.327 . S
C629 H652 0.950 . S
C630 C629 1.349 . S
C630 C642 1.349 1_556 S
C631 C629 1.327 . S
C631 C647 1.429 . S
C631 H653 0.950 . S
C632 H628 0.949 . S
C632 C640 1.574 . S
C632 C648 1.368 1_554 S
H633 C641 0.950 . S
H634 C639 0.950 . S
H635 C640 0.949 . S
H636 C642 0.950 . S
H637 C643 0.950 . S
H638 C644 0.949 . S
C639 H634 0.950 . S
C639 C641 1.327 . S
C639 C645 1.429 . S
C640 C632 1.574 . S
C640 H635 0.949 . S
C640 C646 1.368 1_554 S
C641 C625 1.349 . S
C641 H633 0.950 . S
C641 C639 1.327 . S
C642 C630 1.349 1_554 S
C642 H636 0.950 . S
C642 C643 1.327 . S
C643 H637 0.950 . S
C643 C642 1.327 . S
C643 C647 1.429 1_554 S
C644 C627 1.574 . S
C644 H638 0.949 . S
C644 C648 1.368 . S
C645 C626 1.429 1_556 S
C645 C639 1.429 . S
C645 C646 1.523 . S
C646 C627 1.368 . S
C646 C640 1.368 1_556 S
C646 C645 1.523 . S
C647 C631 1.429 . S
C647 C643 1.429 1_556 S
C647 C648 1.523 . S
C648 C632 1.368 1_556 S
C648 C644 1.368 . S
C648 C647 1.523 . S
H649 C624 0.950 . S
H650 C626 0.950 . S
H651 C627 0.949 . S
H652 C629 0.950 . S
H653 C631 0.950 . S
C654 C655 1.349 1_554 S
C654 C656 1.327 . S
C654 H679 0.950 . S
C655 C654 1.349 1_556 S
C655 C671 1.349 . S
C656 C654 1.327 . S
C656 C675 1.429 1_554 S
C656 H680 0.950 . S
C657 C674 1.574 . S
C657 C676 1.368 . S
C657 H681 0.949 . S
H658 C662 0.949 . S
C659 C660 1.349 . S
C659 C661 1.327 . S
C659 H682 0.950 . S
C660 C659 1.349 . S
C660 C672 1.349 1_556 S
C661 C659 1.327 . S
C661 C677 1.429 . S
C661 H683 0.950 . S
C662 H658 0.949 . S
C662 C670 1.574 . S
C662 C678 1.368 1_554 S
H663 C671 0.950 . S
H664 C669 0.950 . S
H665 C670 0.949 . S
H666 C672 0.950 . S
H667 C673 0.950 . S
H668 C674 0.949 . S
C669 H664 0.950 . S
C669 C671 1.327 . S
C669 C675 1.429 . S
C670 C662 1.574 . S
C670 H665 0.949 . S
C670 C676 1.368 1_554 S
C671 C655 1.349 . S
C671 H663 0.950 . S
C671 C669 1.327 . S
C672 C660 1.349 1_554 S
C672 H666 0.950 . S
C672 C673 1.327 . S
C673 H667 0.950 . S
C673 C672 1.327 . S
C673 C677 1.429 1_554 S
C674 C657 1.574 . S
C674 H668 0.949 . S
C674 C678 1.368 . S
C675 C656 1.429 1_556 S
C675 C669 1.429 . S
C675 C676 1.523 . S
C676 C657 1.368 . S
C676 C670 1.368 1_556 S
C676 C675 1.523 . S
C677 C661 1.429 . S
C677 C673 1.429 1_556 S
C677 C678 1.523 . S
C678 C662 1.368 1_556 S
C678 C674 1.368 . S
C678 C677 1.523 . S
H679 C654 0.950 . S
H680 C656 0.950 . S
H681 C657 0.949 . S
H682 C659 0.950 . S
H683 C661 0.950 . S
C684 C685 1.349 . S
C684 C686 1.327 . S
C684 H709 0.950 1_554 S
C685 C684 1.349 . S
C685 C701 1.349 . S
C686 C684 1.327 . S
C686 C705 1.429 . S
C686 H710 0.950 1_554 S
C687 C704 1.574 . S
C687 C706 1.368 . S
C687 H711 0.949 . S
H688 C692 0.949 . S
C689 C690 1.349 . S
C689 C691 1.327 . S
C689 H712 0.950 . S
C690 C689 1.349 . S
C690 C702 1.361 . S
C691 C689 1.327 . S
C691 C707 1.429 . S
C691 H713 0.950 . S
C692 H688 0.949 . S
C692 C700 1.573 1_556 S
C692 C708 1.369 1_556 S
H693 C701 0.950 . S
H694 C699 0.950 . S
H695 C700 0.941 1_556 S
H696 C702 0.937 1_556 S
H697 C703 0.943 1_556 S
H698 C704 0.949 . S
C699 H694 0.950 . S
C699 C701 1.327 . S
C699 C705 1.429 . S
C700 C692 1.573 1_554 S
C700 H695 0.941 1_554 S
C700 C706 1.378 . S
C701 C685 1.349 . S
C701 H693 0.950 . S
C701 C699 1.327 . S
C702 C690 1.361 . S
C702 H696 0.937 1_554 S
C702 C703 1.327 . S
C703 H697 0.943 1_554 S
C703 C702 1.327 . S
C703 C707 1.436 . S
C704 C687 1.574 . S
C704 H698 0.949 . S
C704 C708 1.368 . S
C705 C686 1.429 . S
C705 C699 1.429 . S
C705 C706 1.523 . S
C706 C687 1.368 . S
C706 C700 1.378 . S
C706 C705 1.523 . S
C707 C691 1.429 . S
C707 C703 1.436 . S
C707 C708 1.523 . S
C708 C692 1.369 1_554 S
C708 C704 1.368 . S
C708 C707 1.523 . S
H709 C684 0.950 1_556 S
H710 C686 0.950 1_556 S
H711 C687 0.949 . S
H712 C689 0.950 . S
H713 C691 0.950 . S
C714 C715 1.349 . S
C714 C716 1.327 . S
C714 H739 0.950 1_554 S
C715 C714 1.349 . S
C715 C731 1.349 . S
C716 C714 1.327 . S
C716 C735 1.429 . S
C716 H740 0.950 1_554 S
C717 C734 1.574 . S
C717 C736 1.368 . S
C717 H741 0.949 . S
H718 C722 0.945 1_556 S
C719 C720 1.349 . S
C719 C721 1.327 . S
C719 H742 0.950 . S
C720 C719 1.349 . S
C720 C732 1.369 . S
C721 C719 1.327 . S
C721 C737 1.429 . S
C721 H743 0.950 . S
C722 H718 0.945 1_554 S
C722 C730 1.573 . S
C722 C738 1.373 . S
H723 C731 0.950 . S
H724 C729 0.950 . S
H725 C730 0.933 1_556 S
H726 C732 0.928 1_556 S
H727 C733 0.935 1_556 S
H728 C734 0.949 . S
C729 H724 0.950 . S
C729 C731 1.327 . S
C729 C735 1.429 . S
C730 C722 1.573 . S
C730 H725 0.933 1_554 S
C730 C736 1.388 . S
C731 C715 1.349 . S
C731 H723 0.950 . S
C731 C729 1.327 . S
C732 C720 1.369 . S
C732 H726 0.928 1_554 S
C732 C733 1.327 . S
C733 H727 0.935 1_554 S
C733 C732 1.327 . S
C733 C737 1.444 . S
C734 C717 1.574 . S
C734 H728 0.949 . S
C734 C738 1.368 . S
C735 C716 1.429 . S
C735 C729 1.429 . S
C735 C736 1.523 . S
C736 C717 1.368 . S
C736 C730 1.388 . S
C736 C735 1.523 . S
C737 C721 1.429 . S
C737 C733 1.444 . S
C737 C738 1.523 . S
C738 C722 1.373 . S
C738 C734 1.368 . S
C738 C737 1.523 . S
H739 C714 0.950 1_556 S
H740 C716 0.950 1_556 S
H741 C717 0.949 . S
H742 C719 0.950 . S
H743 C721 0.950 . S
C744 C745 1.349 . S
C744 C746 1.327 . S
C744 H769 0.950 . S
C745 C744 1.349 . S
C745 C761 1.349 . S
C746 C744 1.327 . S
C746 C765 1.429 . S
C746 H770 0.950 . S
C747 C764 1.574 . S
C747 C766 1.368 . S
C747 H771 0.949 . S
H748 C752 0.949 . S
C749 C750 1.349 . S
C749 C751 1.327 . S
C749 H772 0.950 . S
C750 C749 1.349 . S
C750 C762 1.349 . S
C751 C749 1.327 . S
C751 C767 1.429 . S
C751 H773 0.950 . S
C752 H748 0.949 . S
C752 C760 1.574 . S
C752 C768 1.368 . S
H753 C761 0.950 . S
H754 C759 0.950 . S
H755 C760 0.949 . S
H756 C762 0.950 . S
H757 C763 0.950 . S
H758 C764 0.949 . S
C759 H754 0.950 . S
C759 C761 1.327 . S
C759 C765 1.429 . S
C760 C752 1.574 . S
C760 H755 0.949 . S
C760 C766 1.368 . S
C761 C745 1.349 . S
C761 H753 0.950 . S
C761 C759 1.327 . S
C762 C750 1.349 . S
C762 H756 0.950 . S
C762 C763 1.327 . S
C763 H757 0.950 . S
C763 C762 1.327 . S
C763 C767 1.429 . S
C764 C747 1.574 . S
C764 H758 0.949 . S
C764 C768 1.368 . S
C765 C746 1.429 . S
C765 C759 1.429 . S
C765 C766 1.523 . S
C766 C747 1.368 . S
C766 C760 1.368 . S
C766 C765 1.523 . S
C767 C751 1.429 . S
C767 C763 1.429 . S
C767 C768 1.523 . S
C768 C752 1.368 . S
C768 C764 1.368 . S
C768 C767 1.523 . S
H769 C744 0.950 . S
H770 C746 0.950 . S
H771 C747 0.949 . S
H772 C749 0.950 . S
H773 C751 0.950 . S
C774 C775 1.349 . S
C774 C776 1.327 . S
C774 H799 0.950 . S
C775 C774 1.349 . S
C775 C791 1.349 . S
C776 C774 1.327 . S
C776 C795 1.429 . S
C776 H800 0.950 . S
C777 C794 1.574 . S
C777 C796 1.368 . S
C777 H801 0.949 . S
H778 C782 0.949 . S
C779 C780 1.349 . S
C779 C781 1.327 . S
C779 H802 0.950 . S
C780 C779 1.349 . S
C780 C792 1.349 . S
C781 C779 1.327 . S
C781 C797 1.429 . S
C781 H803 0.950 . S
C782 H778 0.949 . S
C782 C790 1.574 . S
C782 C798 1.368 . S
H783 C791 0.950 . S
H784 C789 0.950 . S
H785 C790 0.949 . S
H786 C792 0.950 . S
H787 C793 0.950 . S
H788 C794 0.949 . S
C789 H784 0.950 . S
C789 C791 1.327 . S
C789 C795 1.429 . S
C790 C782 1.574 . S
C790 H785 0.949 . S
C790 C796 1.368 . S
C791 C775 1.349 . S
C791 H783 0.950 . S
C791 C789 1.327 . S
C792 C780 1.349 . S
C792 H786 0.950 . S
C792 C793 1.327 . S
C793 H787 0.950 . S
C793 C792 1.327 . S
C793 C797 1.429 . S
C794 C777 1.574 . S
C794 H788 0.949 . S
C794 C798 1.368 . S
C795 C776 1.429 . S
C795 C789 1.429 . S
C795 C796 1.523 . S
C796 C777 1.368 . S
C796 C790 1.368 . S
C796 C795 1.523 . S
C797 C781 1.429 . S
C797 C793 1.429 . S
C797 C798 1.523 . S
C798 C782 1.368 . S
C798 C794 1.368 . S
C798 C797 1.523 . S
H799 C774 0.950 . S
H800 C776 0.950 . S
H801 C777 0.949 . S
H802 C779 0.950 . S
H803 C781 0.950 . S
C804 C805 1.349 . S
C804 C806 1.327 . S
C804 H829 0.950 . S
C805 C804 1.349 . S
C805 C821 1.349 . S
C806 C804 1.327 . S
C806 C825 1.429 . S
C806 H830 0.950 . S
C807 C824 1.574 . S
C807 C826 1.368 . S
C807 H831 0.949 . S
H808 C812 0.949 . S
C809 C810 1.349 . S
C809 C811 1.327 . S
C809 H832 0.950 . S
C810 C809 1.349 . S
C810 C822 1.349 . S
C811 C809 1.327 . S
C811 C827 1.429 . S
C811 H833 0.950 . S
C812 H808 0.949 . S
C812 C820 1.574 . S
C812 C828 1.368 . S
H813 C821 0.950 . S
H814 C819 0.950 . S
H815 C820 0.949 . S
H816 C822 0.950 . S
H817 C823 0.950 . S
H818 C824 0.949 . S
C819 H814 0.950 . S
C819 C821 1.327 . S
C819 C825 1.429 . S
C820 C812 1.574 . S
C820 H815 0.949 . S
C820 C826 1.368 . S
C821 C805 1.349 . S
C821 H813 0.950 . S
C821 C819 1.327 . S
C822 C810 1.349 . S
C822 H816 0.950 . S
C822 C823 1.327 . S
C823 H817 0.950 . S
C823 C822 1.327 . S
C823 C827 1.429 . S
C824 C807 1.574 . S
C824 H818 0.949 . S
C824 C828 1.368 . S
C825 C806 1.429 . S
C825 C819 1.429 . S
C825 C826 1.523 . S
C826 C807 1.368 . S
C826 C820 1.368 . S
C826 C825 1.523 . S
C827 C811 1.429 . S
C827 C823 1.429 . S
C827 C828 1.523 . S
C828 C812 1.368 . S
C828 C824 1.368 . S
C828 C827 1.523 . S
H829 C804 0.950 . S
H830 C806 0.950 . S
H831 C807 0.949 . S
H832 C809 0.950 . S
H833 C811 0.950 . S
C834 C835 1.349 . S
C834 C836 1.327 . S
C834 H859 0.950 . S
C835 C834 1.349 . S
C835 C851 1.349 . S
C836 C834 1.327 . S
C836 C855 1.429 . S
C836 H860 0.950 . S
C837 C854 1.574 . S
C837 C856 1.368 . S
C837 H861 0.949 . S
H838 C842 0.949 . S
C839 C840 1.349 . S
C839 C841 1.327 . S
C839 H862 0.950 . S
C840 C839 1.349 . S
C840 C852 1.349 . S
C841 C839 1.327 . S
C841 C857 1.429 . S
C841 H863 0.950 . S
C842 H838 0.949 . S
C842 C850 1.574 . S
C842 C858 1.368 . S
H843 C851 0.950 . S
H844 C849 0.950 . S
H845 C850 0.949 . S
H846 C852 0.950 . S
H847 C853 0.950 . S
H848 C854 0.949 . S
C849 H844 0.950 . S
C849 C851 1.327 . S
C849 C855 1.429 . S
C850 C842 1.574 . S
C850 H845 0.949 . S
C850 C856 1.368 . S
C851 C835 1.349 . S
C851 H843 0.950 . S
C851 C849 1.327 . S
C852 C840 1.349 . S
C852 H846 0.950 . S
C852 C853 1.327 . S
C853 H847 0.950 . S
C853 C852 1.327 . S
C853 C857 1.429 . S
C854 C837 1.574 . S
C854 H848 0.949 . S
C854 C858 1.368 . S
C855 C836 1.429 . S
C855 C849 1.429 . S
C855 C856 1.523 . S
C856 C837 1.368 . S
C856 C850 1.368 . S
C856 C855 1.523 . S
C857 C841 1.429 . S
C857 C853 1.429 . S
C857 C858 1.523 . S
C858 C842 1.368 . S
C858 C854 1.368 . S
C858 C857 1.523 . S
H859 C834 0.950 . S
H860 C836 0.950 . S
H861 C837 0.949 . S
H862 C839 0.950 . S
H863 C841 0.950 . S
C265 N71 1.579 . S
C270 N14 1.575 . S
C295 N38 1.579 . S
C300 N113 1.574 . S
C325 N80 1.575 . S
C330 N5 1.579 . S
C355 N104 1.579 . S
C360 N47 1.575 . S
C385 N146 1.574 . S
C390 N203 1.579 . S
C415 N245 1.575 . S
C420 N170 1.579 . S
C445 N137 1.579 . S
C450 N212 1.575 . S
C475 N179 1.574 . S
C480 N236 1.579 . S
C505 C50 1.364 . S
C510 C17 1.364 . S
C535 C83 1.364 . S
C540 C116 1.364 . S
C565 C182 1.364 . S
C570 C149 1.364 . S
C595 C215 1.364 . S
C600 C248 1.364 . S
C625 C259 0.442 . S
C630 C8 0.432 . S
C655 C206 0.431 . S
C660 C61 0.442 . S
C685 C239 0.432 . S
C690 C28 0.442 . S
C715 C41 0.432 . S
C720 C226 0.442 . S
C745 C193 0.442 . S
C750 C74 0.431 . S
C775 C127 0.442 . S
C780 C140 0.431 . S
C805 C173 0.431 . S
C810 C94 0.442 . S
C835 C107 0.431 . S
C840 C160 0.442 . S
