# Generated by pormake.
# Topology wmc, (6)-cn, num edge types: 1
# Building blocks:
#     Node 0, Type 0, BuildingBlock: UKALOJ_clean_sbu_0, # of connection points: 6
#     Node 1, Type 0, BuildingBlock: UKALOJ_clean_sbu_0, # of connection points: 6
#     Node 2, Type 0, BuildingBlock: UKALOJ_clean_sbu_0, # of connection points: 6
#     Node 3, Type 0, BuildingBlock: UKALOJ_clean_sbu_0, # of connection points: 6
#     Node 4, Type 0, BuildingBlock: UKALOJ_clean_sbu_0, # of connection points: 6
#     Node 5, Type 0, BuildingBlock: UKALOJ_clean_sbu_0, # of connection points: 6
#     Node 6, Type 0, BuildingBlock: UKALOJ_clean_sbu_0, # of connection points: 6
#     Node 7, Type 0, BuildingBlock: UKALOJ_clean_sbu_0, # of connection points: 6
#     Node 8, Type 0, BuildingBlock: UKALOJ_clean_sbu_0, # of connection points: 6
#     Node 9, Type 0, BuildingBlock: UKALOJ_clean_sbu_0, # of connection points: 6
#     Node 10, Type 0, BuildingBlock: UKALOJ_clean_sbu_0, # of connection points: 6
#     Node 11, Type 0, BuildingBlock: UKALOJ_clean_sbu_0, # of connection points: 6
#     Node 12, Type 0, BuildingBlock: UKALOJ_clean_sbu_0, # of connection points: 6
#     Node 13, Type 0, BuildingBlock: UKALOJ_clean_sbu_0, # of connection points: 6
#     Node 14, Type 0, BuildingBlock: UKALOJ_clean_sbu_0, # of connection points: 6
#     Node 15, Type 0, BuildingBlock: UKALOJ_clean_sbu_0, # of connection points: 6
#     Node 16, Type 0, BuildingBlock: UKALOJ_clean_sbu_0, # of connection points: 6
#     Node 17, Type 0, BuildingBlock: UKALOJ_clean_sbu_0, # of connection points: 6
#     Edge 18, Type (0, 0), BuildingBlock: ZUJKAS_clean_linker_0, # of connection points: 2
#     Edge 19, Type (0, 0), BuildingBlock: ZUJKAS_clean_linker_0, # of connection points: 2
#     Edge 20, Type (0, 0), BuildingBlock: ZUJKAS_clean_linker_0, # of connection points: 2
#     Edge 21, Type (0, 0), BuildingBlock: ZUJKAS_clean_linker_0, # of connection points: 2
#     Edge 22, Type (0, 0), BuildingBlock: ZUJKAS_clean_linker_0, # of connection points: 2
#     Edge 23, Type (0, 0), BuildingBlock: ZUJKAS_clean_linker_0, # of connection points: 2
#     Edge 24, Type (0, 0), BuildingBlock: ZUJKAS_clean_linker_0, # of connection points: 2
#     Edge 25, Type (0, 0), BuildingBlock: ZUJKAS_clean_linker_0, # of connection points: 2
#     Edge 26, Type (0, 0), BuildingBlock: ZUJKAS_clean_linker_0, # of connection points: 2
#     Edge 27, Type (0, 0), BuildingBlock: ZUJKAS_clean_linker_0, # of connection points: 2
#     Edge 28, Type (0, 0), BuildingBlock: ZUJKAS_clean_linker_0, # of connection points: 2
#     Edge 29, Type (0, 0), BuildingBlock: ZUJKAS_clean_linker_0, # of connection points: 2
#     Edge 30, Type (0, 0), BuildingBlock: ZUJKAS_clean_linker_0, # of connection points: 2
#     Edge 31, Type (0, 0), BuildingBlock: ZUJKAS_clean_linker_0, # of connection points: 2
#     Edge 32, Type (0, 0), BuildingBlock: ZUJKAS_clean_linker_0, # of connection points: 2
#     Edge 33, Type (0, 0), BuildingBlock: ZUJKAS_clean_linker_0, # of connection points: 2
#     Edge 34, Type (0, 0), BuildingBlock: ZUJKAS_clean_linker_0, # of connection points: 2
#     Edge 35, Type (0, 0), BuildingBlock: ZUJKAS_clean_linker_0, # of connection points: 2
#     Edge 36, Type (0, 0), BuildingBlock: ZUJKAS_clean_linker_0, # of connection points: 2
#     Edge 37, Type (0, 0), BuildingBlock: ZUJKAS_clean_linker_0, # of connection points: 2
#     Edge 38, Type (0, 0), BuildingBlock: ZUJKAS_clean_linker_0, # of connection points: 2
#     Edge 39, Type (0, 0), BuildingBlock: ZUJKAS_clean_linker_0, # of connection points: 2
#     Edge 40, Type (0, 0), BuildingBlock: ZUJKAS_clean_linker_0, # of connection points: 2
#     Edge 41, Type (0, 0), BuildingBlock: ZUJKAS_clean_linker_0, # of connection points: 2
#     Edge 42, Type (0, 0), BuildingBlock: ZUJKAS_clean_linker_0, # of connection points: 2
#     Edge 43, Type (0, 0), BuildingBlock: ZUJKAS_clean_linker_0, # of connection points: 2
#     Edge 44, Type (0, 0), BuildingBlock: ZUJKAS_clean_linker_0, # of connection points: 2
#     Edge 45, Type (0, 0), BuildingBlock: ZUJKAS_clean_linker_0, # of connection points: 2
#     Edge 46, Type (0, 0), BuildingBlock: ZUJKAS_clean_linker_0, # of connection points: 2
#     Edge 47, Type (0, 0), BuildingBlock: ZUJKAS_clean_linker_0, # of connection points: 2
#     Edge 48, Type (0, 0), BuildingBlock: ZUJKAS_clean_linker_0, # of connection points: 2
#     Edge 49, Type (0, 0), BuildingBlock: ZUJKAS_clean_linker_0, # of connection points: 2
#     Edge 50, Type (0, 0), BuildingBlock: ZUJKAS_clean_linker_0, # of connection points: 2
#     Edge 51, Type (0, 0), BuildingBlock: ZUJKAS_clean_linker_0, # of connection points: 2
#     Edge 52, Type (0, 0), BuildingBlock: ZUJKAS_clean_linker_0, # of connection points: 2
#     Edge 53, Type (0, 0), BuildingBlock: ZUJKAS_clean_linker_0, # of connection points: 2
#     Edge 54, Type (0, 0), BuildingBlock: ZUJKAS_clean_linker_0, # of connection points: 2
#     Edge 55, Type (0, 0), BuildingBlock: ZUJKAS_clean_linker_0, # of connection points: 2
#     Edge 56, Type (0, 0), BuildingBlock: ZUJKAS_clean_linker_0, # of connection points: 2
#     Edge 57, Type (0, 0), BuildingBlock: ZUJKAS_clean_linker_0, # of connection points: 2
#     Edge 58, Type (0, 0), BuildingBlock: ZUJKAS_clean_linker_0, # of connection points: 2
#     Edge 59, Type (0, 0), BuildingBlock: ZUJKAS_clean_linker_0, # of connection points: 2
#     Edge 60, Type (0, 0), BuildingBlock: ZUJKAS_clean_linker_0, # of connection points: 2
#     Edge 61, Type (0, 0), BuildingBlock: ZUJKAS_clean_linker_0, # of connection points: 2
#     Edge 62, Type (0, 0), BuildingBlock: ZUJKAS_clean_linker_0, # of connection points: 2
#     Edge 63, Type (0, 0), BuildingBlock: ZUJKAS_clean_linker_0, # of connection points: 2
#     Edge 64, Type (0, 0), BuildingBlock: ZUJKAS_clean_linker_0, # of connection points: 2
#     Edge 65, Type (0, 0), BuildingBlock: ZUJKAS_clean_linker_0, # of connection points: 2
#     Edge 66, Type (0, 0), BuildingBlock: ZUJKAS_clean_linker_0, # of connection points: 2
#     Edge 67, Type (0, 0), BuildingBlock: ZUJKAS_clean_linker_0, # of connection points: 2
#     Edge 68, Type (0, 0), BuildingBlock: ZUJKAS_clean_linker_0, # of connection points: 2
#     Edge 69, Type (0, 0), BuildingBlock: ZUJKAS_clean_linker_0, # of connection points: 2
#     Edge 70, Type (0, 0), BuildingBlock: ZUJKAS_clean_linker_0, # of connection points: 2
#     Edge 71, Type (0, 0), BuildingBlock: ZUJKAS_clean_linker_0, # of connection points: 2
# Relax obj value: 0.381
# Max RMSD: 0.229
# Mean RMSD: 0.229
data_MOF--net-wmc--node1-UKALOJ_clean_sbu_0--edge1-ZUJKAS_clean_linker_0
_symmetry_space_group_name_H-M    P1
_symmetry_Int_Tables_number       1
_symmetry_cell_setting            triclinic
loop_
_symmetry_equiv_pos_as_xyz
'x, y, z'
_cell_length_a     65.007757
_cell_length_b     65.018747
_cell_length_c     37.359759
_cell_angle_alpha  90.045711
_cell_angle_beta   89.903217
_cell_angle_gamma 120.02898
loop_
_atom_site_label
_atom_site_type_symbol
_atom_site_fract_x
_atom_site_fract_y
_atom_site_fract_z
_atom_type_partial_charge
Zn0 Zn 0.59636 0.10603 0.0026 0.0
O1 O 0.5725 0.12008 -0.00159 0.0
C2 C 0.61475 0.12508 0.92913 0.0
Zn3 Zn 0.62639 0.14371 0.00249 0.0
C4 C 0.58071 0.14236 0.99638 0.0
O5 O 0.60294 0.15628 0.9973 0.0
C6 C 0.64377 0.10932 0.01025 0.0
O7 O 0.62233 0.14337 0.05947 0.0
O8 O 0.59302 0.10627 0.05807 0.0
N9 N 0.65375 0.17813 0.00313 0.0
C10 C 0.67584 0.18902 0.01714 0.0
C11 C 0.67169 0.21532 0.98929 0.0
N12 N 0.65127 0.19454 0.98587 0.0
N13 N 0.68746 0.21235 0.00864 0.0
C14 C 0.54667 0.06369 0.98067 0.0
C15 C 0.54411 0.03434 0.00969 0.0
N16 N 0.56717 0.0718 -0.00075 0.0
N17 N 0.5655 0.05346 0.0172 0.0
N18 N 0.5318 0.04032 0.98706 0.0
H19 H 0.5319 0.08586 0.96885 0.0
H20 H 0.53037 0.06706 0.93239 0.0
H21 H 0.55807 0.09305 0.94349 0.0
C22 C 0.5416 0.07826 0.95476 0.0
C23 C 0.68541 0.17712 0.04068 0.0
H24 H 0.6709 0.16286 0.05666 0.0
H25 H 0.69924 0.19013 0.05899 0.0
H26 H 0.69352 0.16904 0.02371 0.0
O27 O 0.64989 0.13105 0.00707 0.0
O28 O 0.62173 0.0935 0.00934 0.0
C29 C 0.60633 0.12505 0.07572 0.0
O30 O 0.60014 0.10664 0.94636 0.0
O31 O 0.62903 0.14369 0.94627 0.0
Zn32 Zn 0.90759 0.49113 0.01866 0.0
O33 O 0.89201 0.45285 0.01335 0.0
C34 C 0.89005 0.4906 0.94501 0.0
Zn35 Zn 0.87062 0.48524 0.01824 0.0
C36 C 0.86955 0.4395 0.01518 0.0
O37 O 0.85662 0.4489 0.01748 0.0
C38 C 0.90643 0.5365 0.0249 0.0
O39 O 0.87048 0.48381 0.07513 0.0
O40 O 0.9058 0.48685 0.07422 0.0
N41 N 0.8367 0.47975 0.01693 0.0
C42 C 0.82645 0.49232 0.02799 0.0
C43 C 0.80039 0.46245 -0.00129 0.0
N44 N 0.82039 0.46117 -0.001 0.0
N45 N 0.80366 0.48182 0.01668 0.0
C46 C 0.94945 0.48249 0.99785 0.0
C47 C 0.97858 0.50829 0.02841 0.0
N48 N 0.94142 0.49486 0.01679 0.0
N49 N 0.95963 0.51089 0.03571 0.0
N50 N 0.97265 0.49042 0.00492 0.0
H51 H 0.92031 0.46545 0.96007 0.0
H52 H 0.92736 0.44592 0.98398 0.0
H53 H 0.94642 0.46405 0.94835 0.0
C54 C 0.93505 0.46355 0.97091 0.0
C55 C 0.83944 0.51582 0.04676 0.0
H56 H 0.85264 0.51594 0.06567 0.0
H57 H 0.8272 0.52 0.06149 0.0
H58 H 0.84898 0.53001 0.02659 0.0
O59 O 0.88472 0.52165 0.01935 0.0
O60 O 0.92145 0.52929 0.02658 0.0
C61 C 0.88773 0.48403 0.09167 0.0
O62 O 0.90854 0.49524 0.96268 0.0
O63 O 0.87109 0.48568 0.96169 0.0
Zn64 Zn 0.5237 0.41867 0.00014 0.0
O65 O 0.56177 0.4423 0.99554 0.0
C66 C 0.5243 0.40021 0.92685 0.0
Zn67 Zn 0.53138 0.38872 0.00055 0.0
C68 C 0.57589 0.43411 0.99447 0.0
O69 O 0.56751 0.41188 0.99593 0.0
C70 C 0.47946 0.37158 0.00815 0.0
O71 O 0.53479 0.39253 0.05748 0.0
O72 O 0.5275 0.42215 0.0556 0.0
N73 N 0.53794 0.36105 0.0012 0.0
C74 C 0.52643 0.33887 0.01499 0.0
C75 C 0.55544 0.34202 0.98396 0.0
N76 N 0.55601 0.36294 0.98218 0.0
N77 N 0.53708 0.32657 0.00436 0.0
C78 C 0.53126 0.46836 0.97809 0.0
C79 C 0.5046 0.47105 0.00741 0.0
N80 N 0.51888 0.44793 0.99686 0.0
N81 N 0.5023 0.44968 0.01501 0.0
N82 N 0.52281 0.48326 0.98453 0.0
H83 H 0.54899 0.45677 0.94076 0.0
H84 H 0.56815 0.48299 0.96582 0.0
H85 H 0.55078 0.48449 0.92954 0.0
C86 C 0.55077 0.47329 0.95194 0.0
C87 C 0.50367 0.32882 0.03577 0.0
H88 H 0.50381 0.34268 0.05326 0.0
H89 H 0.50056 0.31343 0.05233 0.0
H90 H 0.48865 0.32265 0.01673 0.0
O91 O 0.49509 0.36551 0.00474 0.0
O92 O 0.48571 0.3936 0.00737 0.0
C93 C 0.53272 0.40875 0.07346 0.0
O94 O 0.52022 0.41472 0.94387 0.0
O95 O 0.52903 0.3863 0.9442 0.0
Zn96 Zn 0.90649 0.41903 0.5158 0.0
O97 O 0.89249 0.44301 0.51109 0.0
C98 C 0.88493 0.40089 0.44465 0.0
Zn99 Zn 0.86897 0.38937 0.52003 0.0
C100 C 0.87051 0.43524 0.51666 0.0
O101 O 0.85676 0.41325 0.52176 0.0
C102 C 0.90316 0.3716 0.52213 0.0
O103 O 0.87189 0.39179 0.57668 0.0
O104 O 0.90746 0.42339 0.57141 0.0
N105 N 0.83441 0.36216 0.52284 0.0
C106 C 0.82396 0.3394 0.53416 0.0
C107 C 0.79668 0.34502 0.51322 0.0
N108 N 0.81738 0.36555 0.50995 0.0
N109 N 0.80028 0.32826 0.52823 0.0
C110 C 0.94878 0.46814 0.49066 0.0
C111 C 0.97821 0.47152 0.52037 0.0
N112 N 0.94077 0.44811 0.5105 0.0
N113 N 0.95916 0.45032 0.52888 0.0
N114 N 0.9722 0.48326 0.49664 0.0
H115 H 0.91889 0.45572 0.45427 0.0
H116 H 0.92669 0.48274 0.47732 0.0
H117 H 0.94491 0.48277 0.44093 0.0
C118 C 0.93398 0.47245 0.46417 0.0
C119 C 0.83669 0.32864 0.55284 0.0
H120 H 0.85149 0.34223 0.5692 0.0
H121 H 0.82435 0.31373 0.57034 0.0
H122 H 0.84415 0.32169 0.53257 0.0
O123 O 0.88145 0.36556 0.51879 0.0
O124 O 0.91893 0.39365 0.52267 0.0
C125 C 0.89018 0.40903 0.59103 0.0
O126 O 0.90462 0.41399 0.46018 0.0
O127 O 0.86646 0.38841 0.46341 0.0
Zn128 Zn 0.59487 0.49128 0.49715 0.0
O129 O 0.57048 0.45376 0.48933 0.0
C130 C 0.61512 0.49416 0.42437 0.0
Zn131 Zn 0.62379 0.48211 0.49705 0.0
C132 C 0.57801 0.43932 0.48451 0.0
O133 O 0.6001 0.44689 0.48535 0.0
C134 C 0.64217 0.53357 0.51255 0.0
O135 O 0.61739 0.47416 0.55275 0.0
O136 O 0.59037 0.48516 0.55242 0.0
N137 N 0.65063 0.47436 0.49593 0.0
C138 C 0.6722 0.48392 0.51151 0.0
C139 C 0.66907 0.4569 0.47583 0.0
N140 N 0.64877 0.45758 0.47386 0.0
N141 N 0.68419 0.47334 0.4991 0.0
C142 C 0.54589 0.48552 0.47531 0.0
C143 C 0.5429 0.51089 0.50758 0.0
N144 N 0.56612 0.49704 0.49477 0.0
N145 N 0.56418 0.51283 0.51474 0.0
N146 N 0.53094 0.49369 0.48315 0.0
H147 H 0.53124 0.44919 0.45944 0.0
H148 H 0.53019 0.46811 0.42528 0.0
H149 H 0.55775 0.46931 0.43563 0.0
C150 C 0.54115 0.46712 0.44722 0.0
C151 C 0.68078 0.50252 0.54014 0.0
H152 H 0.6656 0.50069 0.55621 0.0
H153 H 0.69362 0.50111 0.55804 0.0
H154 H 0.68976 0.52036 0.5275 0.0
O155 O 0.64749 0.51739 0.50915 0.0
O156 O 0.62074 0.5287 0.50749 0.0
C157 C 0.60192 0.47719 0.56928 0.0
O158 O 0.59978 0.49694 0.44144 0.0
O159 O 0.62883 0.48907 0.44153 0.0
Zn160 Zn 0.53269 0.14523 0.50268 0.0
O161 O 0.53695 0.14634 0.55954 0.0
C162 C 0.48085 0.11106 0.51304 0.0
Zn163 Zn 0.52471 0.10749 0.50328 0.0
C164 C 0.53529 0.12836 0.57589 0.0
O165 O 0.5299 0.10953 0.55846 0.0
C166 C 0.52416 0.12481 0.42958 0.0
O167 O 0.56258 0.12131 0.49684 0.0
O168 O 0.56874 0.15766 0.49686 0.0
N169 N 0.51965 0.07326 0.50253 0.0
C170 C 0.52752 0.06275 0.4792 0.0
C171 C 0.51157 0.03887 0.52287 0.0
N172 N 0.50972 0.0583 0.52959 0.0
N173 N 0.52258 0.04114 0.49129 0.0
C174 C 0.52861 0.19092 0.51408 0.0
C175 C 0.55729 0.21558 0.48133 0.0
N176 N 0.53975 0.17963 0.5012 0.0
N177 N 0.55763 0.19508 0.48112 0.0
N178 N 0.53927 0.21349 0.50178 0.0
H179 H 0.50628 0.16572 0.55394 0.0
H180 H 0.50353 0.19196 0.55148 0.0
H181 H 0.49083 0.16992 0.51716 0.0
C182 C 0.50613 0.17907 0.53564 0.0
C183 C 0.54153 0.07417 0.44586 0.0
H184 H 0.55526 0.06904 0.44154 0.0
H185 H 0.52933 0.06785 0.42258 0.0
H186 H 0.55028 0.09371 0.44682 0.0
O187 O 0.51995 0.10636 0.4471 0.0
O188 O 0.52944 0.1438 0.44641 0.0
C189 C 0.57685 0.1436 0.49507 0.0
O190 O 0.49649 0.13262 0.50814 0.0
O191 O 0.48694 0.09516 0.5125 0.0
Zn192 Zn 0.26114 0.44182 0.33897 0.0
O193 O 0.23644 0.45515 0.33892 0.0
C194 C 0.27837 0.46605 0.26886 0.0
Zn195 Zn 0.29027 0.47947 0.34502 0.0
C196 C 0.24393 0.47698 0.34549 0.0
O197 O 0.26599 0.49102 0.34947 0.0
C198 C 0.30909 0.44612 0.34169 0.0
O199 O 0.28812 0.47464 0.40143 0.0
O200 O 0.25755 0.4386 0.39464 0.0
N201 N 0.3172 0.51395 0.34988 0.0
C202 C 0.33981 0.52401 0.3617 0.0
C203 C 0.33458 0.5519 0.34243 0.0
N204 N 0.31402 0.53135 0.33806 0.0
N205 N 0.35111 0.54781 0.3571 0.0
C206 C 0.21428 0.39877 0.30872 0.0
C207 C 0.20771 0.37087 0.34494 0.0
N208 N 0.23266 0.40752 0.33212 0.0
N209 N 0.22849 0.39006 0.35449 0.0
N210 N 0.1984 0.37575 0.31614 0.0
H211 H 0.19212 0.408 0.27766 0.0
H212 H 0.21691 0.40942 0.25401 0.0
H213 H 0.22173 0.43234 0.28494 0.0
C214 C 0.2111 0.41308 0.27998 0.0
C215 C 0.3503 0.51074 0.37956 0.0
H216 H 0.33643 0.4953 0.39461 0.0
H217 H 0.36474 0.52249 0.39815 0.0
H218 H 0.35785 0.50415 0.35888 0.0
O219 O 0.31456 0.46775 0.34093 0.0
O220 O 0.28719 0.42993 0.3416 0.0
C221 C 0.27156 0.4555 0.41503 0.0
O222 O 0.26525 0.4459 0.28318 0.0
O223 O 0.29106 0.48388 0.28867 0.0
Zn224 Zn 0.57276 0.82259 0.33735 0.0
O225 O 0.55845 0.78469 0.33151 0.0
C226 C 0.55621 0.82317 0.2628 0.0
Zn227 Zn 0.53515 0.81501 0.33465 0.0
C228 C 0.5362 0.77058 0.32875 0.0
O229 O 0.52227 0.77887 0.32936 0.0
C230 C 0.56967 0.8667 0.34481 0.0
O231 O 0.53377 0.81106 0.39144 0.0
O232 O 0.57054 0.81787 0.39269 0.0
N233 N 0.50095 0.80845 0.33304 0.0
C234 C 0.48993 0.81972 0.3464 0.0
C235 C 0.46415 0.7897 0.31711 0.0
N236 N 0.48486 0.78983 0.3149 0.0
N237 N 0.46683 0.80831 0.33661 0.0
C238 C 0.61536 0.81501 0.31777 0.0
C239 C 0.64388 0.84072 0.34936 0.0
N240 N 0.60692 0.8272 0.33624 0.0
N241 N 0.62476 0.84319 0.3558 0.0
N242 N 0.63843 0.82298 0.32581 0.0
H243 H 0.59313 0.77846 0.30347 0.0
H244 H 0.61331 0.79648 0.26871 0.0
H245 H 0.58724 0.79838 0.27831 0.0
C246 C 0.60147 0.79615 0.2904 0.0
C247 C 0.50143 0.84095 0.37054 0.0
H248 H 0.51519 0.84038 0.38732 0.0
H249 H 0.48807 0.84176 0.38811 0.0
H250 H 0.5101 0.85732 0.35401 0.0
O251 O 0.54811 0.85123 0.33945 0.0
O252 O 0.58542 0.8604 0.34562 0.0
C253 C 0.55138 0.8128 0.40898 0.0
O254 O 0.57418 0.82713 0.28133 0.0
O255 O 0.53688 0.81802 0.27852 0.0
Zn256 Zn 0.19037 0.75334 0.3385 0.0
O257 O 0.22789 0.77643 0.32911 0.0
C258 C 0.18608 0.73377 0.26485 0.0
Zn259 Zn 0.19723 0.72282 0.33657 0.0
C260 C 0.24162 0.76797 0.32495 0.0
O261 O 0.23307 0.74571 0.32644 0.0
C262 C 0.14636 0.70664 0.35246 0.0
O263 O 0.20448 0.72751 0.39268 0.0
O264 O 0.19745 0.75732 0.39339 0.0
N265 N 0.20353 0.69504 0.33409 0.0
C266 C 0.19329 0.67325 0.34913 0.0
C267 C 0.22044 0.67609 0.31394 0.0
N268 N 0.22037 0.69671 0.31229 0.0
N269 N 0.20355 0.66097 0.33671 0.0
C270 C 0.19777 0.80319 0.31764 0.0
C271 C 0.17339 0.80712 0.35101 0.0
N272 N 0.18608 0.78306 0.33735 0.0
N273 N 0.17091 0.78559 0.35801 0.0
N274 N 0.19032 0.81866 0.32599 0.0
H275 H 0.2337 0.81682 0.30037 0.0
H276 H 0.21463 0.81843 0.26705 0.0
H277 H 0.21269 0.79051 0.27708 0.0
C278 C 0.21557 0.80732 0.2888 0.0
C279 C 0.17429 0.6647 0.37719 0.0
H280 H 0.17613 0.67981 0.39343 0.0
H281 H 0.17515 0.6515 0.39501 0.0
H282 H 0.15664 0.65613 0.36399 0.0
O283 O 0.16127 0.69984 0.34688 0.0
O284 O 0.15295 0.72873 0.35041 0.0
C285 C 0.20349 0.744 0.40973 0.0
O286 O 0.18361 0.74887 0.28308 0.0
O287 O 0.19104 0.71955 0.28079 0.0
Zn288 Zn 0.53411 0.72077 0.83939 0.0
O289 O 0.53709 0.72257 0.89609 0.0
C290 C 0.56855 0.70338 0.83958 0.0
Zn291 Zn 0.57152 0.75084 0.83602 0.0
C292 C 0.55552 0.73933 0.91092 0.0
O293 O 0.57288 0.75392 0.8917 0.0
C294 C 0.54982 0.73369 0.76433 0.0
O295 O 0.55726 0.77475 0.83425 0.0
O296 O 0.52158 0.74428 0.84216 0.0
N297 N 0.6057 0.78001 0.83134 0.0
C298 C 0.61354 0.80067 0.81325 0.0
C299 C 0.64327 0.80303 0.84081 0.0
N300 N 0.62428 0.78157 0.84838 0.0
N301 N 0.63701 0.81552 0.81904 0.0
C302 C 0.48951 0.67084 0.85441 0.0
C303 C 0.46196 0.67582 0.83291 0.0
N304 N 0.49974 0.69336 0.84214 0.0
N305 N 0.48255 0.69637 0.82888 0.0
N306 N 0.46581 0.65945 0.84876 0.0
H307 H 0.51757 0.67453 0.88912 0.0
H308 H 0.49041 0.64612 0.89205 0.0
H309 H 0.50963 0.65304 0.85375 0.0
C310 C 0.5025 0.66055 0.87365 0.0
C311 C 0.59857 0.80587 0.78845 0.0
H312 H 0.5913 0.81558 0.80336 0.0
H313 H 0.60939 0.81716 0.76581 0.0
H314 H 0.58351 0.78945 0.77758 0.0
O315 O 0.56934 0.74717 0.78005 0.0
O316 O 0.53151 0.72032 0.78288 0.0
C317 C 0.53513 0.76649 0.83917 0.0
O318 O 0.54677 0.69721 0.83708 0.0
O319 O 0.58421 0.72547 0.84027 0.0
Zn320 Zn 0.26213 0.8233 0.83746 0.0
O321 O 0.23775 0.78535 0.83345 0.0
C322 C 0.28066 0.81913 0.76684 0.0
Zn323 Zn 0.29123 0.8148 0.84288 0.0
C324 C 0.24515 0.77087 0.83923 0.0
O325 O 0.26708 0.77879 0.84441 0.0
C326 C 0.30981 0.86701 0.84398 0.0
O327 O 0.28817 0.81532 0.89951 0.0
O328 O 0.25738 0.82045 0.89311 0.0
N329 N 0.31823 0.80732 0.84655 0.0
C330 C 0.34082 0.8197 0.85852 0.0
C331 C 0.33583 0.78718 0.83687 0.0
N332 N 0.31521 0.78711 0.83323 0.0
N333 N 0.35224 0.80748 0.8525 0.0
C334 C 0.2134 0.81693 0.81214 0.0
C335 C 0.211 0.84424 0.83997 0.0
N336 N 0.23361 0.82911 0.83145 0.0
N337 N 0.23203 0.84609 0.84865 0.0
N338 N 0.19881 0.82591 0.81732 0.0
H339 H 0.22494 0.79829 0.77658 0.0
H340 H 0.19812 0.77986 0.80098 0.0
H341 H 0.19775 0.79714 0.76369 0.0
C342 C 0.20841 0.79705 0.78678 0.0
C343 C 0.35117 0.84297 0.87787 0.0
H344 H 0.33725 0.84402 0.89362 0.0
H345 H 0.36566 0.84529 0.89606 0.0
H346 H 0.35867 0.85765 0.85806 0.0
O347 O 0.31539 0.85097 0.84172 0.0
O348 O 0.28789 0.86118 0.8437 0.0
C349 C 0.27109 0.81695 0.91326 0.0
O350 O 0.26735 0.82577 0.78163 0.0
O351 O 0.29289 0.81325 0.78632 0.0
Zn352 Zn 0.19769 0.4777 0.83687 0.0
O353 O 0.20362 0.48153 0.89325 0.0
C354 C 0.14614 0.44412 0.85151 0.0
Zn355 Zn 0.18974 0.44008 0.84205 0.0
C356 C 0.20196 0.46437 0.91197 0.0
O357 O 0.19602 0.44457 0.89708 0.0
C358 C 0.18711 0.45384 0.76662 0.0
O359 O 0.22744 0.45374 0.83444 0.0
O360 O 0.2336 0.48993 0.82913 0.0
N361 N 0.18521 0.40594 0.84389 0.0
C362 C 0.19296 0.39511 0.82091 0.0
C363 C 0.17836 0.37236 0.86609 0.0
N364 N 0.17614 0.39169 0.87192 0.0
N365 N 0.18875 0.37399 0.83414 0.0
C366 C 0.19434 0.52393 0.84466 0.0
C367 C 0.22174 0.54696 0.80871 0.0
N368 N 0.20451 0.5118 0.83148 0.0
N369 N 0.2215 0.52618 0.80921 0.0
N370 N 0.20479 0.54605 0.83055 0.0
H371 H 0.17645 0.50125 0.88972 0.0
H372 H 0.17644 0.52908 0.88947 0.0
H373 H 0.15761 0.50557 0.85916 0.0
C374 C 0.17519 0.51447 0.87255 0.0
C375 C 0.20621 0.40579 0.78669 0.0
H376 H 0.22005 0.40082 0.78228 0.0
H377 H 0.19355 0.39872 0.76401 0.0
H378 H 0.21478 0.42531 0.78639 0.0
O379 O 0.18366 0.43644 0.7862 0.0
O380 O 0.19272 0.4736 0.78117 0.0
C381 C 0.24166 0.4758 0.82956 0.0
O382 O 0.16168 0.46543 0.84443 0.0
O383 O 0.15218 0.42815 0.85235 0.0
Zn384 Zn 0.93058 0.77684 0.66613 0.0
O385 O 0.90621 0.79025 0.66159 0.0
C386 C 0.95003 0.80138 0.59764 0.0
Zn387 Zn 0.9593 0.8142 0.67485 0.0
C388 C 0.91312 0.81175 0.66962 0.0
O389 O 0.93475 0.82558 0.67723 0.0
C390 C 0.97829 0.78102 0.6739 0.0
O391 O 0.95558 0.80891 0.73123 0.0
O392 O 0.92443 0.77368 0.72124 0.0
N393 N 0.98592 0.84873 0.6807 0.0
C394 C 1.00834 0.85901 0.6934 0.0
C395 C 1.00309 0.88662 0.67295 0.0
N396 N 0.98273 0.86596 0.66816 0.0
N397 N 0.01953 0.8828 0.68861 0.0
C398 C 0.88235 0.73478 0.63831 0.0
C399 C 0.8795 0.70472 0.66553 0.0
N400 N 0.90233 0.74254 0.6581 0.0
N401 N 0.90048 0.72375 0.67489 0.0
N402 N 0.86762 0.71116 0.64281 0.0
H403 H 0.89442 0.76529 0.60339 0.0
H404 H 0.86747 0.75693 0.62745 0.0
H405 H 0.86714 0.73948 0.58987 0.0
C406 C 0.87772 0.75001 0.6132 0.0
C407 C 0.01866 0.84591 0.71225 0.0
H408 H 1.00459 0.83044 0.72699 0.0
H409 H 0.03273 0.85777 0.73127 0.0
H410 H 0.02664 0.83936 0.69221 0.0
O411 O 0.98381 0.80267 0.67275 0.0
O412 O 0.9564 0.76486 0.67273 0.0
C413 C 0.93778 0.78994 0.74303 0.0
O414 O 0.93702 0.78087 0.61095 0.0
O415 O 0.96153 0.81899 0.61841 0.0
Zn416 Zn 0.2435 0.15941 0.6765 0.0
O417 O 0.22826 0.12136 0.66965 0.0
C418 C 0.22879 0.1611 0.60153 0.0
Zn419 Zn 0.20624 0.15269 0.67288 0.0
C420 C 0.20593 0.1077 0.6667 0.0
O421 O 0.19245 0.11653 0.66737 0.0
C422 C 0.24143 0.20412 0.68452 0.0
O423 O 0.20354 0.1483 0.7297 0.0
O424 O 0.23988 0.15391 0.73171 0.0
N425 N 0.1726 0.14736 0.66854 0.0
C426 C 0.15993 0.15564 0.6858 0.0
C427 C 0.13916 0.13497 0.64159 0.0
N428 N 0.15955 0.13444 0.64128 0.0
N429 N 0.13888 0.14819 0.66916 0.0
C430 C 0.2856 0.15074 0.65804 0.0
C431 C 0.31411 0.17586 0.69028 0.0
N432 N 0.27732 0.16302 0.67668 0.0
N433 N 0.29515 0.17863 0.69665 0.0
N434 N 0.30855 0.15829 0.66636 0.0
H435 H 0.2577 0.13479 0.61808 0.0
H436 H 0.26313 0.11442 0.64283 0.0
H437 H 0.28362 0.13264 0.60854 0.0
C438 C 0.27173 0.13225 0.63019 0.0
C439 C 0.16862 0.17173 0.71774 0.0
H440 H 0.16003 0.16117 0.74215 0.0
H441 H 0.16377 0.18578 0.71536 0.0
H442 H 0.18804 0.17991 0.72116 0.0
O443 O 0.21992 0.18903 0.67798 0.0
O444 O 0.25685 0.19738 0.68589 0.0
C445 C 0.22071 0.1493 0.7476 0.0
O446 O 0.24643 0.16479 0.62062 0.0
O447 O 0.20935 0.15608 0.6167 0.0
Zn448 Zn 0.85549 0.0849 0.67255 0.0
O449 O 0.89361 0.10805 0.66769 0.0
C450 C 0.85453 0.06985 0.59671 0.0
Zn451 Zn 0.86225 0.0545 0.66753 0.0
C452 C 0.90724 0.09946 0.66335 0.0
O453 O 0.8984 0.07715 0.66191 0.0
C454 C 0.81074 0.03804 0.6788 0.0
O455 O 0.86688 0.05551 0.72435 0.0
O456 O 0.86002 0.08535 0.72793 0.0
N457 N 0.86752 0.02629 0.66167 0.0
C458 C 0.85674 1.00416 0.67553 0.0
C459 C 0.88048 1.0056 0.63482 0.0
N460 N 0.88234 0.02714 0.63656 0.0
N461 N 0.86453 0.9909 0.65896 0.0
C462 C 0.86028 0.13394 0.65313 0.0
C463 C 0.84446 0.14121 0.6977 0.0
N464 N 0.85181 0.11488 0.67519 0.0
N465 N 0.84199 0.11951 0.70286 0.0
N466 N 0.85576 0.15058 0.66654 0.0
H467 H 0.88844 0.1561 0.61651 0.0
H468 H 0.86248 0.13217 0.59628 0.0
H469 H 0.883 0.1262 0.61972 0.0
C470 C 0.87448 0.13721 0.61972 0.0
C471 C 0.83726 0.995 0.70286 0.0
H472 H 0.83866 0.00965 0.71976 0.0
H473 H 0.83783 0.98138 0.72001 0.0
H474 H 0.81988 0.9865 0.68889 0.0
O475 O 0.82593 0.03166 0.67288 0.0
O476 O 0.81745 0.06018 0.68008 0.0
C477 C 0.86519 0.07101 0.74307 0.0
O478 O 0.85126 0.08398 0.61617 0.0
O479 O 0.85875 0.05481 0.61154 0.0
Zn480 Zn 0.20332 0.05708 0.17821 0.0
O481 O 0.20652 0.05915 0.23492 0.0
C482 C 0.2372 0.03894 0.17815 0.0
Zn483 Zn 0.24085 0.08672 0.17397 0.0
C484 C 0.22522 0.07577 0.24934 0.0
O485 O 0.24255 0.08997 0.22972 0.0
C486 C 0.21861 0.06953 0.10264 0.0
O487 O 0.22702 0.11106 0.17241 0.0
O488 O 0.19119 0.08089 0.1808 0.0
N489 N 0.27508 0.1157 0.16916 0.0
C490 C 0.2842 0.13416 0.14587 0.0
C491 C 0.31077 0.14173 0.18512 0.0
N492 N 0.29171 0.1205 0.19344 0.0
N493 N 0.30659 0.15067 0.15524 0.0
C494 C 0.15859 0.0077 0.19468 0.0
C495 C 0.13126 0.01224 0.17124 0.0
N496 N 0.16893 0.02995 0.18129 0.0
N497 N 0.15189 0.0327 0.16682 0.0
N498 N 0.13493 0.99619 0.18854 0.0
H499 H 0.18673 0.0122 0.22999 0.0
H500 H 0.15935 0.98417 0.23472 0.0
H501 H 0.17831 0.98949 0.19651 0.0
C502 C 0.17146 0.99785 0.21537 0.0
C503 C 0.27075 0.13694 0.11539 0.0
H504 H 0.27562 0.15582 0.11234 0.0
H505 H 0.27555 0.13125 0.09026 0.0
H506 H 0.25135 0.12608 0.11901 0.0
O507 O 0.23833 0.08296 0.11792 0.0
O508 O 0.20046 0.05638 0.12163 0.0
C509 C 0.20494 0.10305 0.1775 0.0
O510 O 0.2155 0.03313 0.17611 0.0
O511 O 0.25314 0.06095 0.17819 0.0
Zn512 Zn 0.92975 0.1568 0.16909 0.0
O513 O 0.90517 0.11871 0.16821 0.0
C514 C 0.94569 0.15019 0.09787 0.0
Zn515 Zn 0.9588 0.14813 0.17365 0.0
C516 C 0.91266 0.10428 0.17397 0.0
O517 O 0.93472 0.11223 0.17766 0.0
C518 C 0.97757 0.20048 0.17148 0.0
O519 O 0.95753 0.1502 0.23046 0.0
O520 O 0.92701 0.15583 0.22498 0.0
N521 N 0.986 0.14089 0.1762 0.0
C522 C 0.0087 0.15348 0.18765 0.0
C523 C 1.00377 0.12097 0.16605 0.0
N524 N 0.98301 0.12069 0.1629 0.0
N525 N 0.02023 0.1414 0.18132 0.0
C526 C 0.88221 0.1529 0.1423 0.0
C527 C 0.87521 0.17203 0.18219 0.0
N528 N 0.90096 0.16226 0.16501 0.0
N529 N 0.89651 0.17418 0.18968 0.0
N530 N 0.86589 0.15884 0.15246 0.0
H531 H 0.85997 0.12274 0.10894 0.0
H532 H 0.88453 0.14706 0.08655 0.0
H533 H 0.88963 0.12782 0.11489 0.0
C534 C 0.87895 0.13658 0.11168 0.0
C535 C 0.01909 0.17684 0.20677 0.0
H536 H 1.0052 0.17809 0.22227 0.0
H537 H 0.03349 0.17915 0.22515 0.0
H538 H 0.02675 0.19143 0.18684 0.0
O539 O 0.98289 0.18422 0.16995 0.0
O540 O 0.9557 0.19485 0.17215 0.0
C541 C 0.94109 0.15269 0.24477 0.0
O542 O 0.93292 0.15737 0.11299 0.0
O543 O 0.95859 0.14495 0.11699 0.0
Zn544 Zn 0.86471 0.81104 0.17117 0.0
O545 O 0.86897 0.81535 0.22801 0.0
C546 C 0.81332 0.7767 0.18208 0.0
Zn547 Zn 0.85828 0.77411 0.17972 0.0
C548 C 0.86644 0.79851 0.24839 0.0
O549 O 0.86098 0.77844 0.23496 0.0
C550 C 0.85884 0.78732 0.10223 0.0
O551 O 0.89626 0.78862 0.17772 0.0
O552 O 0.90097 0.82379 0.16642 0.0
N553 N 0.85375 0.73996 0.18392 0.0
C554 C 0.86215 0.72886 0.1628 0.0
C555 C 0.84436 0.70568 0.20648 0.0
N556 N 0.84272 0.72545 0.2111 0.0
N557 N 0.85636 0.70733 0.17616 0.0
C558 C 0.86041 0.85679 0.17725 0.0
C559 C 0.88839 0.88027 0.14247 0.0
N560 N 0.87102 0.84493 0.16466 0.0
N561 N 0.88836 0.85958 0.14308 0.0
N562 N 0.87095 0.87901 0.16352 0.0
H563 H 0.84158 0.83356 0.22142 0.0
H564 H 0.84155 0.86137 0.22128 0.0
H565 H 0.82339 0.83822 0.19002 0.0
C566 C 0.84069 0.84697 0.20424 0.0
C567 C 0.87745 0.7396 0.1304 0.0
H568 H 0.88972 0.73258 0.12647 0.0
H569 H 0.86587 0.73499 0.10649 0.0
H570 H 0.88812 0.75908 0.1327 0.0
O571 O 0.85645 0.77093 0.12329 0.0
O572 O 0.86139 0.80654 0.11501 0.0
C573 C 0.9099 0.81057 0.17108 0.0
O574 O 0.82853 0.79824 0.17582 0.0
O575 O 0.82008 0.76132 0.1843 0.0
H576 H 0.53774 0.12683 0.02976 0.0
H577 H 0.51764 0.15017 0.03814 0.0
H578 H 0.56921 0.20474 0.96891 0.0
H579 H 0.58938 0.18196 0.96103 0.0
H580 H 0.56431 0.21605 0.04718 0.0
H581 H 0.48143 0.1751 0.96584 0.0
H582 H 0.49043 0.157 0.99051 0.0
H583 H 0.50675 0.17278 0.95152 0.0
C584 C 0.54424 0.14346 0.01551 0.0
C585 C 0.56516 0.15277 0.995 0.0
C586 C 0.53282 0.15675 0.02037 0.0
C587 C 0.54207 0.17916 0.00421 0.0
C588 C 0.56186 0.18748 0.98159 0.0
H589 H 0.53147 0.29599 0.95232 0.0
H590 H 0.52663 0.25644 0.95952 0.0
C591 C 0.57335 0.17447 0.97713 0.0
C592 C 0.53368 0.19573 0.01405 0.0
H593 H 0.49481 0.21368 0.98852 0.0
C594 C 0.54878 0.21536 0.0352 0.0
C595 C 0.51348 0.19459 -0.00181 0.0
C596 C 0.49694 0.17377 0.97521 0.0
C597 C 0.54535 0.23489 0.03861 0.0
C598 C 0.52579 0.23443 0.02112 0.0
C599 C 0.50969 0.21396 0.00205 0.0
C600 C 0.5242 0.25631 0.01735 0.0
C601 C 0.56388 0.25659 0.05831 0.0
C602 C 0.52369 0.26912 0.04736 0.0
C603 C 0.52697 0.29198 0.04321 0.0
C604 C 0.53004 0.30199 0.00895 0.0
C605 C 0.52902 0.28853 0.97894 0.0
C606 C 0.5261 0.26591 0.98307 0.0
H607 H 0.58 0.25546 0.06449 0.0
H608 H 0.56936 0.27292 0.04232 0.0
H609 H 0.55634 0.25836 0.08402 0.0
H610 H 0.52195 0.26194 0.07404 0.0
H611 H 0.52837 0.30228 0.0668 0.0
H612 H 0.70087 0.25618 0.03191 0.0
H613 H 0.74155 0.28947 0.03745 0.0
H614 H 0.76883 0.24372 0.00646 0.0
H615 H 0.72786 0.21023 0.0008 0.0
H616 H 0.78317 0.29301 0.07954 0.0
H617 H 0.79447 0.30079 0.93114 0.0
H618 H 0.76519 0.28543 0.95093 0.0
H619 H 0.78385 0.27245 0.95278 0.0
C620 C 0.71559 0.25319 0.02692 0.0
C621 C 0.71134 0.2307 0.01634 0.0
C622 C 0.73875 0.27212 0.03011 0.0
C623 C 0.75813 0.26901 0.02228 0.0
C624 C 0.75406 0.24641 0.01265 0.0
H625 H 0.88802 0.41046 -0.00202 0.0
H626 H 0.86711 0.36666 0.00142 0.0
C627 C 0.73075 0.22731 0.00974 0.0
C628 C 0.78222 0.29016 0.02209 0.0
H629 H 0.82016 0.33411 0.96553 0.0
C630 C 0.79178 0.30168 0.05468 0.0
C631 C 0.79349 0.30133 0.98962 0.0
C632 C 0.78386 0.28951 0.95398 0.0
C633 C 0.81108 0.32497 0.05548 0.0
C634 C 0.82068 0.33708 0.0229 0.0
C635 C 0.81272 0.32474 0.99045 0.0
C636 C 0.8344 0.36333 0.0218 0.0
C637 C 0.81987 0.33713 0.09113 0.0
C638 C 0.82277 0.37571 0.03147 0.0
C639 C 0.83436 0.40032 0.02908 0.0
C640 C 0.85801 0.4133 0.01702 0.0
C641 C 0.86984 0.40095 0.00743 0.0
C642 C 0.85797 0.37601 0.00943 0.0
H643 H 0.81665 0.32406 0.11264 0.0
H644 H 0.83915 0.35039 0.09006 0.0
H645 H 0.81012 0.34652 0.09826 0.0
H646 H 0.80445 0.36623 0.04047 0.0
H647 H 0.82468 0.40917 0.03689 0.0
H648 H 0.60813 0.42342 0.96829 0.0
H649 H 0.65089 0.44488 0.97825 0.0
H650 H 0.64571 0.50105 0.0312 0.0
H651 H 0.60241 0.47954 0.02096 0.0
H652 H 0.68927 0.51268 0.97785 0.0
H653 H 0.6722 0.45013 0.08979 0.0
H654 H 0.6559 0.43631 0.04961 0.0
H655 H 0.65006 0.45686 0.07348 0.0
C656 C 0.61609 0.44058 0.98139 0.0
C657 C 0.60194 0.44971 0.99421 0.0
C658 C 0.64052 0.4528 0.98704 0.0
C659 C 0.6513 0.47432 0.00585 0.0
C660 C 0.63759 0.48441 0.01667 0.0
H661 H 0.78735 0.49292 0.07621 0.0
H662 H 0.75379 0.50021 0.07924 0.0
C663 C 0.61295 0.47217 0.01072 0.0
C664 C 0.67638 0.48449 0.01669 0.0
H665 H 0.71105 0.46852 0.06366 0.0
C666 C 0.6942 0.50353 0.9973 0.0
C667 C 0.68274 0.47287 0.04262 0.0
C668 C 0.66425 0.45303 0.06537 0.0
C669 C 0.71819 0.50989 0.00104 0.0
C670 C 0.72425 0.49636 0.02399 0.0
C671 C 0.70656 0.47881 0.04577 0.0
C672 C 0.74759 0.49738 0.02201 0.0
C673 C 0.73665 0.5305 0.97949 0.0
C674 C 0.75558 0.49377 0.98892 0.0
C675 C 0.77491 0.49006 0.98724 0.0
C676 C 0.78659 0.48968 0.01854 0.0
C677 C 0.77915 0.49396 0.05161 0.0
C678 C 0.75986 0.4979 0.05332 0.0
H679 H 0.73164 0.54443 0.97643 0.0
H680 H 0.75448 0.53855 0.99208 0.0
H681 H 0.73765 0.52424 0.95225 0.0
H682 H 0.74601 0.49235 0.96451 0.0
H683 H 0.78016 0.48642 0.96154 0.0
H684 H 0.72418 0.5167 0.50529 0.0
H685 H 0.76523 0.52443 0.50927 0.0
H686 H 0.73917 0.44905 0.50864 0.0
H687 H 0.6983 0.44127 0.50556 0.0
H688 H 0.78592 0.50207 0.56352 0.0
H689 H 0.78746 0.48192 0.41958 0.0
H690 H 0.76811 0.49191 0.43761 0.0
H691 H 0.7606 0.46145 0.44267 0.0
C692 C 0.72721 0.50182 0.50719 0.0
C693 C 0.70805 0.47834 0.50576 0.0
C694 C 0.75063 0.50627 0.50901 0.0
C695 C 0.75511 0.48729 0.50892 0.0
C696 C 0.73601 0.46391 0.50846 0.0
H697 H 0.83432 0.42932 0.55863 0.0
H698 H 0.81326 0.45137 0.55748 0.0
C699 C 0.71273 0.45949 0.50681 0.0
C700 C 0.77957 0.4913 0.50827 0.0
H701 H 0.81449 0.47717 0.45784 0.0
C702 C 0.79262 0.49735 0.54017 0.0
C703 C 0.78846 0.4856 0.47758 0.0
C704 C 0.77557 0.48006 0.44226 0.0
C705 C 0.81316 0.49548 0.5431 0.0
C706 C 0.82047 0.48705 0.51353 0.0
C707 C 0.80883 0.48349 0.4806 0.0
C708 C 0.83632 0.47698 0.51806 0.0
C709 C 0.82603 0.50118 0.57843 0.0
C710 C 0.8564 0.48401 0.49619 0.0
C711 C 0.86864 0.47131 0.49688 0.0
C712 C 0.86048 0.45113 0.51875 0.0
C713 C 0.84092 0.44474 0.54136 0.0
C714 C 0.82902 0.45753 0.54106 0.0
H715 H 0.82459 0.5154 0.59269 0.0
H716 H 0.81776 0.48511 0.59565 0.0
H717 H 0.84511 0.50688 0.57479 0.0
H718 H 0.86209 0.49877 0.47783 0.0
H719 H 0.8836 0.47647 0.47906 0.0
H720 H 0.53286 0.23633 0.44735 0.0
H721 H 0.52742 0.27085 0.45113 0.0
H722 H 0.52439 0.26519 0.56634 0.0
H723 H 0.53139 0.23147 0.56247 0.0
H724 H 0.49508 0.28166 0.47851 0.0
H725 H 0.58117 0.33011 0.55146 0.0
H726 H 0.57097 0.30131 0.53179 0.0
H727 H 0.55842 0.30399 0.57327 0.0
C728 C 0.53069 0.24231 0.4734 0.0
C729 C 0.53227 0.23117 0.50457 0.0
C730 C 0.52742 0.2619 0.47558 0.0
C731 C 0.52575 0.27078 0.50903 0.0
C732 C 0.52594 0.25882 0.54025 0.0
H733 H 0.53662 0.41198 0.52119 0.0
H734 H 0.51707 0.36859 0.52906 0.0
C735 C 0.52954 0.23934 0.53805 0.0
C736 C 0.52662 0.29401 0.51063 0.0
H737 H 0.56361 0.35203 0.53329 0.0
C738 C 0.50978 0.29698 0.49113 0.0
C739 C 0.54597 0.31404 0.52687 0.0
C740 C 0.56528 0.31237 0.5468 0.0
C741 C 0.51249 0.31963 0.48595 0.0
C742 C 0.53235 0.33958 0.50084 0.0
C743 C 0.54832 0.3365 0.52212 0.0
C744 C 0.53928 0.36408 0.49036 0.0
C745 C 0.49506 0.32242 0.46288 0.0
C746 C 0.55753 0.37553 0.46514 0.0
C747 C 0.56878 0.40007 0.46095 0.0
C748 C 0.5618 0.41355 0.48168 0.0
C749 C 0.54209 0.40188 0.50462 0.0
C750 C 0.531 0.37719 0.50922 0.0
H751 H 0.47955 0.30502 0.45534 0.0
H752 H 0.48865 0.33312 0.47721 0.0
H753 H 0.50412 0.33219 0.43808 0.0
H754 H 0.56419 0.36566 0.45051 0.0
H755 H 0.58394 0.4087 0.44313 0.0
H756 H 0.60834 0.18467 0.46308 0.0
H757 H 0.65137 0.20604 0.46924 0.0
H758 H 0.64748 0.1479 0.53027 0.0
H759 H 0.60391 0.12615 0.52393 0.0
H760 H 0.67153 0.19188 0.56513 0.0
H761 H 0.70659 0.20061 0.42811 0.0
H762 H 0.68303 0.20737 0.42918 0.0
H763 H 0.67686 0.17786 0.44038 0.0
C764 C 0.61667 0.17612 0.47699 0.0
C765 C 0.60283 0.15378 0.49306 0.0
C766 C 0.6413 0.18829 0.48029 0.0
C767 C 0.6527 0.17847 0.49984 0.0
C768 C 0.63904 0.15567 0.51472 0.0
H769 H 0.80309 0.28931 0.51023 0.0
H770 H 0.77004 0.2481 0.50912 0.0
C771 C 0.61422 0.14324 0.51097 0.0
C772 C 0.67826 0.19372 0.50838 0.0
H773 H 0.7304 0.23374 0.4686 0.0
C774 C 0.68465 0.20054 0.54415 0.0
C775 C 0.69552 0.20476 0.48117 0.0
C776 C 0.6902 0.19706 0.4426 0.0
C777 C 0.70709 0.21974 0.55294 0.0
C778 C 0.72334 0.23257 0.5252 0.0
C779 C 0.71783 0.22417 0.48988 0.0
C780 C 0.74431 0.25646 0.53129 0.0
C781 C 0.71275 0.22678 0.59169 0.0
C782 C 0.74089 0.27478 0.54438 0.0
C783 C 0.75967 0.29817 0.54509 0.0
C784 C 0.7823 0.30377 0.53283 0.0
C785 C 0.78599 0.28537 0.5208 0.0
C786 C 0.76709 0.26188 0.51989 0.0
H787 H 0.70327 0.2111 0.60953 0.0
H788 H 0.73212 0.23538 0.59693 0.0
H789 H 0.70671 0.23951 0.59871 0.0
H790 H 0.72337 0.2712 0.55235 0.0
H791 H 0.75638 0.31212 0.554 0.0
H792 H 0.23523 0.64656 0.34532 0.0
H793 H 0.22713 0.60559 0.34865 0.0
H794 H 0.15185 0.57996 0.34527 0.0
H795 H 0.15995 0.62116 0.34122 0.0
H796 H 0.17676 0.55971 0.40233 0.0
H797 H 0.19162 0.55723 0.25631 0.0
H798 H 0.21159 0.58463 0.27863 0.0
H799 H 0.18058 0.57537 0.27566 0.0
C800 C 0.21696 0.6322 0.34581 0.0
C801 C 0.19824 0.63703 0.34354 0.0
C802 C 0.21236 0.60887 0.34767 0.0
C803 C 0.18893 0.58988 0.34709 0.0
C804 C 0.17004 0.59449 0.34591 0.0
H805 H 0.20108 0.46266 0.31205 0.0
H806 H 0.17797 0.48335 0.3139 0.0
C807 C 0.17468 0.61798 0.34399 0.0
C808 C 0.18489 0.56542 0.34609 0.0
H809 H 0.19751 0.53048 0.29306 0.0
C810 C 0.18052 0.55282 0.37825 0.0
C811 C 0.18941 0.55634 0.31455 0.0
C812 C 0.19339 0.56895 0.27917 0.0
C813 C 0.18288 0.53253 0.38031 0.0
C814 C 0.19018 0.52507 0.3496 0.0
C815 C 0.19203 0.53624 0.31667 0.0
C816 C 0.20095 0.50972 0.35249 0.0
C817 C 0.17896 0.52013 0.41585 0.0
C818 C 0.22135 0.51763 0.37357 0.0
C819 C 0.23457 0.5062 0.37213 0.0
C820 C 0.22771 0.48652 0.34963 0.0
C821 C 0.20664 0.47775 0.32972 0.0
C822 C 0.19348 0.48951 0.33079 0.0
H823 H 0.16512 0.52135 0.43168 0.0
H824 H 0.17356 0.50112 0.41235 0.0
H825 H 0.1957 0.52895 0.4315 0.0
H826 H 0.22784 0.53351 0.38978 0.0
H827 H 0.25067 0.51327 0.38793 0.0
H828 H 0.55367 0.74338 0.35708 0.0
H829 H 0.53202 0.69976 0.36277 0.0
H830 H 0.47374 0.69616 0.30255 0.0
H831 H 0.49497 0.7392 0.29705 0.0
H832 H 0.48782 0.67518 0.3976 0.0
H833 H 0.47977 0.64162 0.2598 0.0
H834 H 0.50246 0.6712 0.27273 0.0
H835 H 0.47302 0.66518 0.26142 0.0
C836 C 0.53653 0.73313 0.34424 0.0
C837 C 0.52591 0.74459 0.32676 0.0
C838 C 0.52418 0.70829 0.34758 0.0
C839 C 0.5014 0.6947 0.3327 0.0
C840 C 0.49148 0.70618 0.3136 0.0
H841 H 0.36754 0.59133 0.38455 0.0
H842 H 0.40866 0.62399 0.384 0.0
C843 C 0.50357 0.73083 0.31071 0.0
C844 C 0.48624 0.66906 0.34071 0.0
H845 H 0.44632 0.61747 0.29976 0.0
C846 C 0.47925 0.66229 0.37633 0.0
C847 C 0.47533 0.65211 0.31311 0.0
C848 C 0.48325 0.65786 0.27466 0.0
C849 C 0.45994 0.63981 0.38462 0.0
C850 C 0.44719 0.62392 0.35651 0.0
C851 C 0.45581 0.62977 0.32133 0.0
C852 C 0.42316 0.60305 0.36207 0.0
C853 C 0.45268 0.63374 0.42325 0.0
C854 C 0.41754 0.5804 0.34981 0.0
C855 C 0.39395 0.56173 0.35003 0.0
C856 C 0.37564 0.5655 0.36229 0.0
C857 C 0.38141 0.58797 0.37544 0.0
C858 C 0.40492 0.60654 0.37539 0.0
H859 H 0.46832 0.64284 0.44124 0.0
H860 H 0.44012 0.63994 0.43053 0.0
H861 H 0.44383 0.61429 0.42799 0.0
H862 H 0.43127 0.57742 0.33885 0.0
H863 H 0.38989 0.54478 0.33872 0.0
H864 H 0.42195 0.77793 0.35571 0.0
H865 H 0.38883 0.78569 0.3572 0.0
H866 H 0.43682 0.85933 0.33175 0.0
H867 H 0.47009 0.85142 0.32981 0.0
H868 H 0.38079 0.81986 0.39642 0.0
H869 H 0.38728 0.83294 0.24839 0.0
H870 H 0.40209 0.81947 0.27104 0.0
H871 H 0.41314 0.85075 0.27542 0.0
C872 C 0.42544 0.79584 0.35113 0.0
C873 C 0.4485 0.81409 0.34294 0.0
C874 C 0.4066 0.8003 0.35207 0.0
C875 C 0.41037 0.82305 0.34439 0.0
C876 C 0.43356 0.84164 0.33764 0.0
H877 H 0.26966 0.81407 0.34769 0.0
H878 H 0.31337 0.83607 0.35112 0.0
C879 C 0.45254 0.83717 0.3369 0.0
C880 C 0.38943 0.82616 0.34045 0.0
H881 H 0.35202 0.82578 0.27612 0.0
C882 C 0.37474 0.82193 0.37034 0.0
C883 C 0.38167 0.8288 0.3063 0.0
C884 C 0.39672 0.83317 0.27329 0.0
C885 C 0.35169 0.81834 0.36657 0.0
C886 C 0.34326 0.81915 0.33201 0.0
C887 C 0.35865 0.82532 0.30256 0.0
C888 C 0.31751 0.8086 0.3251 0.0
C889 C 0.33577 0.8116 0.39905 0.0
C890 C 0.30558 0.78644 0.30807 0.0
C891 C 0.28089 0.77394 0.30624 0.0
C892 C 0.26757 0.78342 0.32115 0.0
C893 C 0.27953 0.80638 0.33596 0.0
C894 C 0.30442 0.81888 0.33812 0.0
H895 H 0.3447 0.81048 0.42369 0.0
H896 H 0.33023 0.82501 0.40345 0.0
H897 H 0.31946 0.79416 0.39466 0.0
H898 H 0.31536 0.77822 0.29783 0.0
H899 H 0.27217 0.75636 0.29439 0.0
H900 H 0.55085 0.81169 0.81264 0.0
H901 H 0.53057 0.83507 0.8186 0.0
H902 H 0.47598 0.77909 0.88255 0.0
H903 H 0.49571 0.75601 0.87667 0.0
H904 H 0.48257 0.81831 0.79568 0.0
H905 H 0.49161 0.83902 0.93983 0.0
H906 H 0.51165 0.8321 0.91605 0.0
H907 H 0.48356 0.80864 0.93249 0.0
C908 C 0.53473 0.80467 0.82838 0.0
C909 C 0.52477 0.782 0.84399 0.0
C910 C 0.52321 0.81799 0.83179 0.0
C911 C 0.50203 0.80899 0.85162 0.0
C912 C 0.49257 0.78665 0.86786 0.0
H913 H 0.36854 0.7803 0.87975 0.0
H914 H 0.40988 0.78922 0.88075 0.0
C915 C 0.50376 0.77333 0.86408 0.0
C916 C 0.4878 0.82101 0.85272 0.0
H917 H 0.45411 0.83135 0.91215 0.0
C918 C 0.47698 0.82218 0.82094 0.0
C919 C 0.48062 0.82613 0.8857 0.0
C920 C 0.49269 0.82665 0.92039 0.0
C921 C 0.45726 0.82556 0.82177 0.0
C922 C 0.44842 0.82796 0.85519 0.0
C923 C 0.46081 0.82929 0.88659 0.0
C924 C 0.42421 0.82449 0.85847 0.0
C925 C 0.44459 0.82423 0.7873 0.0
C926 C 0.41873 0.84161 0.84637 0.0
C927 C 0.39509 0.83654 0.84603 0.0
C928 C 0.37673 0.8143 0.85773 0.0
C929 C 0.38244 0.79758 0.87086 0.0
C930 C 0.40598 0.80269 0.87147 0.0
H931 H 0.4534 0.82162 0.76362 0.0
H932 H 0.42596 0.80934 0.78857 0.0
H933 H 0.44406 0.84089 0.78353 0.0
H934 H 0.43259 0.85851 0.83617 0.0
H935 H 0.39103 0.84949 0.83499 0.0
H936 H 0.16132 0.54271 0.83453 0.0
H937 H 0.15352 0.57603 0.83609 0.0
H938 H 0.2289 0.62547 0.83544 0.0
H939 H 0.23674 0.59241 0.83484 0.0
H940 H 0.17563 0.61981 0.88902 0.0
H941 H 0.19654 0.63978 0.74489 0.0
H942 H 0.18638 0.61064 0.76379 0.0
H943 H 0.21687 0.6336 0.7687 0.0
C944 C 0.17617 0.56066 0.83585 0.0
C945 C 0.19968 0.56502 0.83521 0.0
C946 C 0.17169 0.57963 0.83629 0.0
C947 C 0.19066 0.60311 0.83555 0.0
C948 C 0.21405 0.60744 0.83572 0.0
H949 H 0.25018 0.74046 0.88199 0.0
H950 H 0.22735 0.69735 0.88157 0.0
C951 C 0.21851 0.5886 0.83546 0.0
C952 C 0.18667 0.62355 0.83391 0.0
H953 H 0.20168 0.67222 0.78219 0.0
C954 C 0.18057 0.63099 0.86539 0.0
C955 C 0.19267 0.63783 0.80288 0.0
C956 C 0.19828 0.63 0.76798 0.0
C957 C 0.18276 0.65356 0.86759 0.0
C958 C 0.19156 0.66901 0.83775 0.0
C959 C 0.19509 0.66046 0.80517 0.0
C960 C 0.20212 0.69503 0.84175 0.0
C961 C 0.17707 0.66125 0.90253 0.0
C962 C 0.19557 0.70821 0.81941 0.0
C963 C 0.20871 0.73315 0.81968 0.0
C964 C 0.22887 0.74502 0.84161 0.0
C965 C 0.2348 0.73175 0.86467 0.0
C966 C 0.22156 0.70708 0.86478 0.0
H967 H 0.16261 0.64583 0.91693 0.0
H968 H 0.19304 0.669 0.91991 0.0
H969 H 0.17169 0.67481 0.89829 0.0
H970 H 0.18082 0.69921 0.80102 0.0
H971 H 0.20391 0.74303 0.80152 0.0
H972 H 0.27297 0.51593 0.79503 0.0
H973 H 0.31609 0.53685 0.79925 0.0
H974 H 0.31247 0.47994 0.86326 0.0
H975 H 0.26881 0.45864 0.85894 0.0
H976 H 0.33774 0.52466 0.89538 0.0
H977 H 0.36989 0.5293 0.75736 0.0
H978 H 0.34667 0.53657 0.75852 0.0
H979 H 0.34028 0.50723 0.77133 0.0
C980 C 0.28134 0.50754 0.80924 0.0
C981 C 0.26757 0.48571 0.82674 0.0
C982 C 0.30603 0.51944 0.8114 0.0
C983 C 0.31754 0.50984 0.8312 0.0
C984 C 0.30392 0.48752 0.84752 0.0
H985 H 0.46832 0.62005 0.83306 0.0
H986 H 0.43526 0.57882 0.83482 0.0
C987 C 0.27905 0.47536 0.84494 0.0
C988 C 0.3433 0.52496 0.83845 0.0
H989 H 0.39478 0.56344 0.79565 0.0
C990 C 0.35046 0.53263 0.87372 0.0
C991 C 0.36004 0.53508 0.81036 0.0
C992 C 0.35386 0.5264 0.77232 0.0
C993 C 0.37316 0.55187 0.88109 0.0
C994 C 0.38888 0.56384 0.8524 0.0
C995 C 0.38261 0.55453 0.81765 0.0
C996 C 0.40996 0.58785 0.8568 0.0
C997 C 0.37964 0.55992 0.91933 0.0
C998 C 0.40677 0.60653 0.86882 0.0
C999 C 0.42554 0.62991 0.86785 0.0
C1000 C 0.44792 0.63513 0.85497 0.0
C1001 C 0.45141 0.61641 0.84404 0.0
C1002 C 0.43252 0.59292 0.84479 0.0
H1003 H 0.37045 0.54473 0.93813 0.0
H1004 H 0.39911 0.56853 0.92372 0.0
H1005 H 0.37386 0.57292 0.92584 0.0
H1006 H 0.38941 0.60319 0.87724 0.0
H1007 H 0.42241 0.64411 0.87597 0.0
H1008 H 0.84094 0.95707 0.61002 0.0
H1009 H 0.83356 0.91616 0.6116 0.0
H1010 H 0.86557 0.92929 0.71646 0.0
H1011 H 0.8719 0.96976 0.71514 0.0
H1012 H 0.86724 0.90642 0.61149 0.0
H1013 H 0.81315 0.86297 0.73093 0.0
H1014 H 0.81586 0.88998 0.71284 0.0
H1015 H 0.83793 0.8911 0.74328 0.0
C1016 C 0.84558 0.95075 0.63378 0.0
C1017 C 0.8567 0.96616 0.66263 0.0
C1018 C 0.84141 0.9275 0.63472 0.0
C1019 C 0.84866 0.91943 0.66437 0.0
C1020 C 0.85906 0.93471 0.69379 0.0
H1021 H 0.91681 0.84715 0.71166 0.0
H1022 H 0.89362 0.86711 0.70867 0.0
C1023 C 0.86286 0.95786 0.69302 0.0
C1024 C 0.84899 0.89677 0.66226 0.0
H1025 H 0.84083 0.84946 0.71263 0.0
C1026 C 0.86074 0.89353 0.63306 0.0
C1027 C 0.8404 0.87981 0.69024 0.0
C1028 C 0.8259 0.88104 0.72084 0.0
C1029 C 0.86599 0.87509 0.63262 0.0
C1030 C 0.85927 0.85946 0.66213 0.0
C1031 C 0.84599 0.86155 0.69008 0.0
C1032 C 0.86992 0.84424 0.66739 0.0
C1033 C 0.88039 0.8736 0.60203 0.0
C1034 C 0.86378 0.82429 0.64578 0.0
C1035 C 0.87703 0.81267 0.64756 0.0
C1036 C 0.89669 0.82117 0.67061 0.0
C1037 C 0.90192 0.84039 0.69335 0.0
C1038 C 0.88858 0.85171 0.69189 0.0
H1039 H 0.88514 0.88786 0.58189 0.0
H1040 H 0.89701 0.8749 0.61236 0.0
H1041 H 0.8701 0.85617 0.58844 0.0
H1042 H 0.84939 0.81832 0.62668 0.0
H1043 H 0.87271 0.79794 0.62969 0.0
H1044 H 0.16307 0.07694 0.63864 0.0
H1045 H 0.14127 0.0339 0.64402 0.0
H1046 H 0.20151 0.03589 0.69574 0.0
H1047 H 0.22369 0.07955 0.6905 0.0
H1048 H 0.15051 0.99717 0.62215 0.0
H1049 H 0.14644 1.00493 0.77038 0.0
H1050 H 0.15551 0.03025 0.74142 0.0
H1051 H 0.17503 0.01862 0.74871 0.0
C1052 C 0.17189 0.06826 0.65067 0.0
C1053 C 0.19497 0.08161 0.66456 0.0
C1054 C 0.15942 0.04363 0.65361 0.0
C1055 C 0.16964 0.03174 0.6707 0.0
C1056 C 0.19324 0.04481 0.6828 0.0
H1057 H 0.05903 0.8799 0.6743 0.0
H1058 H 0.1002 0.91294 0.67486 0.0
C1059 C 0.20591 0.06967 0.67959 0.0
C1060 C 0.15432 0.00603 0.6781 0.0
H1061 H 0.11913 0.96872 0.74423 0.0
C1062 C 0.14409 0.99062 0.64892 0.0
C1063 C 0.14595 0.99771 0.71309 0.0
C1064 C 0.15614 0.01364 0.74534 0.0
C1065 C 0.12441 0.96776 0.65342 0.0
C1066 C 0.11498 0.96002 0.68818 0.0
C1067 C 0.12644 0.97472 0.71767 0.0
C1068 C 0.09111 0.9389 0.6936 0.0
C1069 C 0.11262 0.95292 0.62063 0.0
C1070 C 0.07255 0.9423 0.70559 0.0
C1071 C 0.0492 0.92345 0.70581 0.0
C1072 C 0.04391 0.90077 0.69435 0.0
C1073 C 0.06263 0.89705 0.6841 0.0
C1074 C 0.08611 0.91598 0.68392 0.0
H1075 H 0.12038 0.96286 0.59539 0.0
H1076 H 0.1148 0.93705 0.62067 0.0
H1077 H 0.09329 0.94668 0.62082 0.0
H1078 H 0.07598 0.95984 0.7131 0.0
H1079 H 0.03506 0.92675 0.71365 0.0
H1080 H 0.93509 0.14115 0.6995 0.0
H1081 H 0.97834 0.16014 0.70866 0.0
H1082 H 0.98087 0.11004 0.63563 0.0
H1083 H 0.93805 0.09095 0.62695 0.0
H1084 H 0.99744 0.11111 0.70856 0.0
H1085 H 0.0393 0.20003 0.64311 0.0
H1086 H 0.01325 0.19041 0.67067 0.0
H1087 H 0.0108 0.17606 0.62866 0.0
C1088 C 0.94508 0.13475 0.68461 0.0
C1089 C 0.93331 0.11453 0.66271 0.0
C1090 C 0.96971 0.14554 0.68992 0.0
C1091 C 0.9827 0.13638 0.67292 0.0
C1092 C 0.97112 0.1173 0.64908 0.0
H1093 H 0.11475 0.15716 0.61951 0.0
H1094 H 0.07875 0.15938 0.62841 0.0
C1095 C 0.94668 0.10644 0.64411 0.0
C1096 C 1.00765 0.14434 0.68254 0.0
H1097 H 0.06484 0.18695 0.6646 0.0
C1098 C 0.01227 0.12789 0.69966 0.0
C1099 C 0.02677 0.16625 0.67089 0.0
C1100 C 0.02251 0.18432 0.6522 0.0
C1101 C 0.03546 0.13194 0.70312 0.0
C1102 C 0.05467 0.15342 0.68993 0.0
C1103 C 0.05012 0.17058 0.67489 0.0
C1104 C 0.07878 0.15648 0.68612 0.0
C1105 C 0.03891 0.11234 0.71827 0.0
C1106 C 0.0913 0.15494 0.71569 0.0
C1107 C 0.11174 0.15321 0.71053 0.0
C1108 C 0.12022 0.15353 0.67577 0.0
C1109 C 0.10852 0.15672 0.64655 0.0
C1110 C 0.08806 0.1582 0.65165 0.0
H1111 H 0.02185 0.09537 0.72116 0.0
H1112 H 0.05088 0.10911 0.7009 0.0
H1113 H 0.04713 0.11761 0.74517 0.0
H1114 H 0.08464 0.15392 0.74259 0.0
H1115 H 0.12001 0.15027 0.73352 0.0
H1116 H 0.22014 0.14739 0.14803 0.0
H1117 H 0.19943 0.17048 0.15173 0.0
H1118 H 0.14627 0.11656 0.22008 0.0
H1119 H 0.16644 0.09379 0.21644 0.0
H1120 H 0.15177 0.15259 0.1291 0.0
H1121 H 0.16019 0.17754 0.27145 0.0
H1122 H 0.18045 0.17009 0.24956 0.0
H1123 H 0.15243 0.14705 0.26697 0.0
C1124 C 0.20428 0.14083 0.16432 0.0
C1125 C 0.19478 0.11875 0.18173 0.0
C1126 C 0.19251 0.15398 0.16643 0.0
C1127 C 0.17156 0.14543 0.18675 0.0
C1128 C 0.16269 0.12381 0.20498 0.0
H1129 H 0.03673 0.11436 0.20852 0.0
H1130 H 0.0782 0.1237 0.21039 0.0
C1131 C 0.17412 0.11065 0.2025 0.0
C1132 C 0.15683 0.15694 0.1861 0.0
H1133 H 0.12223 0.16789 0.24285 0.0
C1134 C 0.14594 0.15696 0.15371 0.0
C1135 C 0.14931 0.16273 0.21823 0.0
C1136 C 0.16144 0.1646 0.25344 0.0
C1137 C 0.12592 0.15984 0.15325 0.0
C1138 C 0.11678 0.16286 0.18597 0.0
C1139 C 0.12916 0.16533 0.21784 0.0
C1140 C 0.09239 0.15899 0.18826 0.0
C1141 C 0.11328 0.15737 0.11832 0.0
C1142 C 0.08678 0.17596 0.17584 0.0
C1143 C 0.06307 0.17065 0.17502 0.0
C1144 C 0.04476 0.14832 0.18652 0.0
C1145 C 0.05058 0.13171 0.19977 0.0
C1146 C 0.07419 0.13705 0.20088 0.0
H1147 H 0.12267 0.15502 0.0952 0.0
H1148 H 0.09498 0.14185 0.11964 0.0
H1149 H 0.11176 0.17342 0.11364 0.0
H1150 H 0.10063 0.19294 0.16587 0.0
H1151 H 0.05895 0.18353 0.16388 0.0
H1152 H 0.8275 0.87579 0.16583 0.0
H1153 H 0.8198 0.90916 0.16914 0.0
H1154 H 0.89518 0.95835 0.173 0.0
H1155 H 0.90291 0.92522 0.17059 0.0
H1156 H 0.84466 0.9537 0.22679 0.0
H1157 H 0.86048 0.97251 0.08124 0.0
H1158 H 0.84911 0.94309 0.09987 0.0
H1159 H 0.88015 0.96464 0.10341 0.0
C1160 C 0.84235 0.89367 0.16845 0.0
C1161 C 0.86583 0.89795 0.16861 0.0
C1162 C 0.83793 0.91267 0.16994 0.0
C1163 C 0.85695 0.93611 0.17117 0.0
C1164 C 0.8803 0.94034 0.17195 0.0
H1165 H 0.91937 0.07419 0.21506 0.0
H1166 H 0.89644 0.03109 0.21572 0.0
C1167 C 0.88469 0.92146 0.17058 0.0
C1168 C 0.85311 0.95665 0.17063 0.0
H1169 H 0.86634 1.00485 0.11882 0.0
C1170 C 0.84862 0.9646 0.20299 0.0
C1171 C 0.85791 0.97059 0.13944 0.0
C1172 C 0.86201 0.96227 0.10385 0.0
C1173 C 0.85114 0.9873 0.20563 0.0
C1174 C 0.85869 1.00238 0.1753 0.0
C1175 C 0.86067 0.99336 0.14213 0.0
C1176 C 0.86957 0.02847 0.17886 0.0
C1177 C 0.84715 0.99551 0.24139 0.0
C1178 C 0.86213 0.04149 0.15783 0.0
C1179 C 0.87533 0.06643 0.15749 0.0
C1180 C 0.89641 0.07847 0.17744 0.0
C1181 C 0.90326 0.06536 0.19926 0.0
C1182 C 0.88999 0.04069 0.2 0.0
H1183 H 0.8333 0.98033 0.25699 0.0
H1184 H 0.86387 1.00334 0.25708 0.0
H1185 H 0.84176 0.00913 0.23823 0.0
H1186 H 0.84659 0.03235 0.14091 0.0
H1187 H 0.86978 0.07618 0.14032 0.0
H1188 H 0.13795 0.95631 0.179 0.0
H1189 H 0.10494 0.91518 0.18234 0.0
H1190 H 0.05776 0.94061 0.21417 0.0
H1191 H 0.0908 0.9815 0.21199 0.0
H1192 H 0.04882 0.89889 0.25004 0.0
H1193 H 0.05537 0.8918 0.10214 0.0
H1194 H 0.08099 0.89832 0.12864 0.0
H1195 H 0.0715 0.91985 0.12516 0.0
C1196 C 0.12073 0.95302 0.18796 0.0
C1197 C 0.1169 0.97204 0.19561 0.0
C1198 C 0.10182 0.92955 0.18939 0.0
C1199 C 0.07885 0.92486 0.1981 0.0
C1200 C 0.07535 0.9438 0.20747 0.0
H1201 H 0.94157 0.85258 0.14116 0.0
H1202 H 0.98451 0.87409 0.14788 0.0
C1203 C 0.09416 0.96713 0.2061 0.0
C1204 C 0.05776 0.90083 0.19422 0.0
H1205 H 0.02066 0.86318 0.13008 0.0
C1206 C 0.04288 0.89061 0.22402 0.0
C1207 C 0.05012 0.89014 0.16016 0.0
C1208 C 0.06518 0.90054 0.12706 0.0
C1209 C 0.01977 0.87119 0.22021 0.0
C1210 C 0.01153 0.86164 0.18572 0.0
C1211 C 0.02714 0.87053 0.15646 0.0
C1212 C 0.98582 0.84647 0.17832 0.0
C1213 C 1.00365 0.86241 0.2525 0.0
C1214 C 0.97231 0.82341 0.19231 0.0
C1215 C 0.94751 0.81092 0.18842 0.0
C1216 C 0.93603 0.82148 0.17074 0.0
C1217 C 0.94984 0.84403 0.15523 0.0
C1218 C 0.97443 0.85633 0.15892 0.0
H1219 H 0.01235 0.87295 0.27692 0.0
H1220 H 0.98724 0.8632 0.24736 0.0
H1221 H 0.99833 0.8436 0.25779 0.0
H1222 H 0.98084 0.8154 0.20705 0.0
H1223 H 0.93729 0.79354 0.2006 0.0
H1224 H 0.54392 0.16362 0.38571 0.0
H1225 H 0.55645 0.16511 0.32357 0.0
H1226 H 0.52445 0.08885 0.32269 0.0
H1227 H 0.51169 0.08713 0.38473 0.0
H1228 H 0.58759 0.14723 0.30474 0.0
H1229 H 0.50397 0.10459 0.22603 0.0
H1230 H 0.50599 0.1171 0.26998 0.0
H1231 H 0.50378 0.08856 0.26532 0.0
C1232 C 0.53893 0.14709 0.37202 0.0
C1233 C 0.52694 0.12524 0.39025 0.0
C1234 C 0.54623 0.14801 0.33657 0.0
C1235 C 0.54137 0.12711 0.31862 0.0
C1236 C 0.52816 0.10516 0.33599 0.0
H1237 H 0.5792 0.08792 0.12003 0.0
H1238 H 0.56535 0.08968 0.1801 0.0
C1239 C 0.52095 0.10422 0.37149 0.0
C1240 C 0.55215 0.12837 0.28322 0.0
H1241 H 0.5388 0.11014 0.19653 0.0
C1242 C 0.57699 0.13934 0.28093 0.0
C1243 C 0.5382 0.11792 0.25244 0.0
C1244 C 0.5115 0.10653 0.25331 0.0
C1245 C 0.58828 0.1395 0.24878 0.0
C1246 C 0.57432 0.12884 0.218 0.0
C1247 C 0.54947 0.11822 0.22022 0.0
C1248 C 0.58494 0.12806 0.18325 0.0
C1249 C 0.61493 0.15033 0.24842 0.0
C1250 C 0.60102 0.14906 0.1654 0.0
C1251 C 0.60922 0.14811 0.13113 0.0
C1252 C 0.60116 0.12613 0.11399 0.0
C1253 C 0.58571 0.10513 0.13248 0.0
C1254 C 0.5777 0.1061 0.16676 0.0
H1255 H 0.62217 0.15189 0.27584 0.0
H1256 H 0.62032 0.13964 0.23181 0.0
H1257 H 0.62315 0.16846 0.23684 0.0
H1258 H 0.6065 0.16622 0.17735 0.0
H1259 H 0.62091 0.1646 0.11742 0.0
H1260 H 0.92118 0.42271 0.39666 0.0
H1261 H 0.91865 0.43522 0.33603 0.0
H1262 H 0.84226 0.39894 0.34432 0.0
H1263 H 0.84455 0.38596 0.40496 0.0
H1264 H 0.85949 0.39558 0.27581 0.0
H1265 H 0.90242 0.4885 0.32493 0.0
H1266 H 0.91935 0.47413 0.33373 0.0
H1267 H 0.89085 0.46329 0.35473 0.0
C1268 C 0.90379 0.41691 0.38533 0.0
C1269 C 0.88307 0.40359 0.40575 0.0
C1270 C 0.9024 0.42424 0.3508 0.0
C1271 C 0.88032 0.41857 0.33624 0.0
C1272 C 0.85948 0.4037 0.35535 0.0
H1273 H 0.84792 0.46493 0.13386 0.0
H1274 H 0.84409 0.44958 0.19493 0.0
C1275 C 0.86083 0.39622 0.38991 0.0
C1276 C 0.87921 0.42943 0.30211 0.0
H1277 H 0.89843 0.4831 0.26169 0.0
C1278 C 0.86775 0.41468 0.27272 0.0
C1279 C 0.8898 0.45437 0.29845 0.0
C1280 C 0.9011 0.47101 0.32971 0.0
C1281 C 0.86759 0.42432 0.23919 0.0
C1282 C 0.87894 0.44928 0.23529 0.0
C1283 C 0.88978 0.46398 0.2649 0.0
C1284 C 0.8813 0.46047 0.20004 0.0
C1285 C 0.85609 0.40787 0.20782 0.0
C1286 C 0.90365 0.47244 0.18353 0.0
C1287 C 0.90591 0.48122 0.14884 0.0
C1288 C 0.88586 0.47831 0.13018 0.0
C1289 C 0.86368 0.46746 0.14758 0.0
C1290 C 0.86142 0.45853 0.18229 0.0
H1291 H 0.85104 0.38923 0.2142 0.0
H1292 H 0.83981 0.40821 0.19998 0.0
H1293 H 0.8683 0.41388 0.18443 0.0
H1294 H 0.9192 0.47423 0.19701 0.0
H1295 H 0.92325 0.48959 0.13623 0.0
H1296 H 0.63702 0.47736 0.38032 0.0
H1297 H 0.62667 0.46474 0.31809 0.0
H1298 H 0.57881 0.49256 0.3173 0.0
H1299 H 0.58893 0.50518 0.37948 0.0
H1300 H 0.5774 0.43128 0.30076 0.0
H1301 H 0.61451 0.5138 0.2196 0.0
H1302 H 0.62601 0.51278 0.26317 0.0
H1303 H 0.59896 0.51373 0.25949 0.0
C1304 C 0.62487 0.4815 0.3666 0.0
C1305 C 0.61371 0.49219 0.38492 0.0
C1306 C 0.61889 0.47415 0.3311 0.0
C1307 C 0.602 0.47773 0.31321 0.0
C1308 C 0.59209 0.48988 0.33057 0.0
H1309 H 0.52229 0.43552 0.11784 0.0
H1310 H 0.53868 0.45033 0.1772 0.0
C1311 C 0.5979 0.49707 0.36612 0.0
C1312 C 0.59256 0.46635 0.27816 0.0
H1313 H 0.58569 0.47809 0.1915 0.0
C1314 C 0.5794 0.44144 0.2767 0.0
C1315 C 0.59509 0.47974 0.24708 0.0
C1316 C 0.60956 0.5065 0.24715 0.0
C1317 C 0.56796 0.42952 0.24512 0.0
C1318 C 0.57025 0.44292 0.21405 0.0
C1319 C 0.58386 0.46784 0.2154 0.0
C1320 C 0.55834 0.43162 0.17992 0.0
C1321 C 0.55283 0.40279 0.24574 0.0
C1322 C 0.56346 0.41566 0.16212 0.0
C1323 C 0.55382 0.40687 0.12832 0.0
C1324 C 0.53925 0.41424 0.11155 0.0
C1325 C 0.53348 0.42953 0.13004 0.0
C1326 C 0.54292 0.4381 0.16389 0.0
H1327 H 0.54776 0.39587 0.27346 0.0
H1328 H 0.53638 0.39668 0.22978 0.0
H1329 H 0.56303 0.39494 0.23395 0.0
H1330 H 0.57567 0.41076 0.17369 0.0
H1331 H 0.55882 0.39535 0.11456 0.0
H1332 H 0.85146 0.47114 0.90062 0.0
H1333 H 0.85019 0.45794 0.83885 0.0
H1334 H 0.92624 0.48829 0.83946 0.0
H1335 H 0.92779 0.50146 0.90122 0.0
H1336 H 0.90001 0.49426 0.7721 0.0
H1337 H 0.86891 0.40269 0.82293 0.0
H1338 H 0.855 0.41876 0.83981 0.0
H1339 H 0.88536 0.42861 0.85078 0.0
C1340 C 0.868 0.47554 0.88736 0.0
C1341 C 0.88972 0.4872 0.90589 0.0
C1342 C 0.86719 0.46787 0.85218 0.0
C1343 C 0.88808 0.47195 0.83502 0.0
C1344 C 0.90995 0.48496 0.85249 0.0
H1345 H 0.92797 0.44015 0.63133 0.0
H1346 H 0.92686 0.45433 0.69146 0.0
C1347 C 0.91078 0.49249 0.88772 0.0
C1348 C 0.88704 0.46111 0.79994 0.0
H1349 H 0.87481 0.40875 0.76083 0.0
C1350 C 0.89443 0.47557 0.76948 0.0
C1351 C 0.87965 0.43671 0.79692 0.0
C1352 C 0.87184 0.42066 0.82926 0.0
C1353 C 0.89463 0.46621 0.73574 0.0
C1354 C 0.88789 0.4419 0.73279 0.0
C1355 C 0.88011 0.42738 0.76327 0.0
C1356 C 0.88895 0.43135 0.69824 0.0
C1357 C 0.90174 0.48234 0.70351 0.0
C1358 C 0.86826 0.41266 0.68318 0.0
C1359 C 0.86888 0.40422 0.649 0.0
C1360 C 0.89023 0.41443 0.62942 0.0
C1361 C 0.91119 0.43211 0.64559 0.0
C1362 C 0.91057 0.44038 0.6798 0.0
H1363 H 0.89979 0.49812 0.70863 0.0
H1364 H 0.92067 0.48878 0.6971 0.0
H1365 H 0.89089 0.47278 0.67977 0.0
H1366 H 0.85145 0.40528 0.69723 0.0
H1367 H 0.85244 0.39059 0.63726 0.0
H1368 H 0.61559 0.45095 0.60981 0.0
H1369 H 0.60084 0.43415 0.66935 0.0
H1370 H 0.55948 0.46924 0.6732 0.0
H1371 H 0.57369 0.4857 0.61368 0.0
H1372 H 0.60319 0.45496 0.73485 0.0
H1373 H 0.5095 0.40029 0.69157 0.0
H1374 H 0.53383 0.41429 0.66019 0.0
H1375 H 0.52196 0.43117 0.68088 0.0
C1376 C 0.60351 0.45526 0.62349 0.0
C1377 C 0.59562 0.46947 0.60688 0.0
C1378 C 0.59505 0.44557 0.65741 0.0
C1379 C 0.57857 0.44994 0.67521 0.0
C1380 C 0.57162 0.46507 0.65945 0.0
H1381 H 0.51475 0.42743 0.88178 0.0
H1382 H 0.52661 0.43652 0.81905 0.0
C1383 C 0.57994 0.47463 0.62554 0.0
C1384 C 0.56863 0.4388 0.71033 0.0
H1385 H 0.51632 0.4047 0.75478 0.0
C1386 C 0.58424 0.44372 0.73914 0.0
C1387 C 0.54387 0.42402 0.71576 0.0
C1388 C 0.52633 0.41691 0.68538 0.0
C1389 C 0.57566 0.43507 0.77359 0.0
C1390 C 0.55088 0.42098 0.77918 0.0
C1391 C 0.5353 0.41557 0.75028 0.0
C1392 C 0.5409 0.41287 0.81536 0.0
C1393 C 0.59306 0.44172 0.80409 0.0
C1394 C 0.54417 0.39584 0.83345 0.0
C1395 C 0.53727 0.39045 0.86924 0.0
C1396 C 0.52709 0.40214 0.88749 0.0
C1397 C 0.52257 0.41815 0.86854 0.0
C1398 C 0.52936 0.4234 0.83272 0.0
H1399 H 0.61131 0.45559 0.79627 0.0
H1400 H 0.58726 0.4483 0.82725 0.0
H1401 H 0.59366 0.42575 0.81296 0.0
H1402 H 0.55284 0.38737 0.82025 0.0
H1403 H 0.54101 0.37805 0.88305 0.0
H1404 H 0.63977 0.16297 0.88428 0.0
H1405 H 0.62929 0.16679 0.82262 0.0
H1406 H 0.57285 0.09378 0.82424 0.0
H1407 H 0.58315 0.08962 0.88559 0.0
H1408 H 0.61871 0.13129 0.75526 0.0
H1409 H 0.5454 0.14323 0.80915 0.0
H1410 H 0.57173 0.15053 0.83481 0.0
H1411 H 0.54937 0.12005 0.8284 0.0
C1412 C 0.62553 0.14754 0.87122 0.0
C1413 C 0.61217 0.12604 0.88996 0.0
C1414 C 0.61954 0.1498 0.83609 0.0
C1415 C 0.60014 0.13065 0.81935 0.0
C1416 C 0.58779 0.10877 0.83702 0.0
H1417 H 0.53307 0.09284 0.61717 0.0
H1418 H 0.54986 0.09625 0.67658 0.0
C1419 C 0.59378 0.10643 0.87201 0.0
C1420 C 0.59152 0.13382 0.78448 0.0
H1421 H 0.54634 0.1385 0.7464 0.0
C1422 C 0.60307 0.13314 0.75322 0.0
C1423 C 0.57125 0.13643 0.7822 0.0
C1424 C 0.55869 0.13777 0.81535 0.0
C1425 C 0.59421 0.13406 0.71941 0.0
C1426 C 0.57329 0.13559 0.71711 0.0
C1427 C 0.56233 0.13727 0.74841 0.0
C1428 C 0.56164 0.1336 0.68243 0.0
C1429 C 0.60693 0.13294 0.68632 0.0
C1430 C 0.56195 0.15336 0.66678 0.0
C1431 C 0.55233 0.15152 0.63262 0.0
C1432 C 0.54217 0.12984 0.61391 0.0
C1433 C 0.54087 0.10985 0.63068 0.0
C1434 C 0.55054 0.11174 0.66458 0.0
H1435 H 0.62528 0.13687 0.69237 0.0
H1436 H 0.59698 0.11481 0.67472 0.0
H1437 H 0.60776 0.14567 0.66578 0.0
H1438 H 0.57031 0.17032 0.68046 0.0
H1439 H 0.55361 0.16723 0.62042 0.0
H1440 H 0.24172 0.41597 0.45345 0.0
H1441 H 0.2266 0.41478 0.51385 0.0
H1442 H 0.27323 0.49037 0.52398 0.0
H1443 H 0.28861 0.49182 0.46357 0.0
H1444 H 0.25351 0.43524 0.58487 0.0
H1445 H 0.20054 0.47457 0.5327 0.0
H1446 H 0.21136 0.45964 0.50402 0.0
H1447 H 0.2315 0.48885 0.52058 0.0
C1448 C 0.24915 0.43228 0.46879 0.0
C1449 C 0.26622 0.45403 0.45366 0.0
C1450 C 0.24046 0.43154 0.50322 0.0
C1451 C 0.24858 0.45253 0.52289 0.0
C1452 C 0.26665 0.47405 0.50887 0.0
H1453 H 0.20705 0.49049 0.71895 0.0
H1454 H 0.21972 0.48888 0.65802 0.0
C1455 C 0.2755 0.47479 0.4745 0.0
C1456 C 0.237 0.45211 0.55705 0.0
H1457 H 0.19847 0.46712 0.59474 0.0
C1458 C 0.24143 0.44213 0.58716 0.0
C1459 C 0.22128 0.46113 0.55959 0.0
C1460 C 0.21567 0.47156 0.52754 0.0
C1461 C 0.23088 0.4414 0.62027 0.0
C1462 C 0.21498 0.45028 0.62285 0.0
C1463 C 0.2105 0.46016 0.59257 0.0
C1464 C 0.2039 0.45063 0.65729 0.0
C1465 C 0.23747 0.43183 0.6524 0.0
C1466 C 0.1896 0.42953 0.6762 0.0
C1467 C 0.18237 0.43038 0.71113 0.0
C1468 C 0.18917 0.45235 0.72747 0.0
C1469 C 0.20157 0.47328 0.70719 0.0
C1470 C 0.20893 0.47241 0.67238 0.0
H1471 H 0.25409 0.43131 0.64781 0.0
H1472 H 0.23984 0.44278 0.67653 0.0
H1473 H 0.22302 0.41343 0.65791 0.0
H1474 H 0.18491 0.41248 0.66454 0.0
H1475 H 0.17249 0.41394 0.72589 0.0
H1476 H 0.51065 0.79013 0.44898 0.0
H1477 H 0.5069 0.77562 0.5106 0.0
H1478 H 0.58298 0.80679 0.51677 0.0
H1479 H 0.58694 0.8213 0.45552 0.0
H1480 H 0.52437 0.74415 0.53337 0.0
H1481 H 0.56433 0.82861 0.60988 0.0
H1482 H 0.55284 0.82591 0.56506 0.0
H1483 H 0.58159 0.82896 0.57202 0.0
C1484 C 0.5266 0.79428 0.46373 0.0
C1485 C 0.54909 0.80684 0.44743 0.0
C1486 C 0.5244 0.78589 0.4988 0.0
C1487 C 0.54467 0.79029 0.51814 0.0
C1488 C 0.56716 0.80349 0.50236 0.0
H1489 H 0.58595 0.75782 0.7169 0.0
H1490 H 0.5827 0.7688 0.65562 0.0
C1491 C 0.56937 0.8117 0.46733 0.0
C1492 C 0.54251 0.77987 0.55399 0.0
H1493 H 0.56045 0.79469 0.64046 0.0
C1494 C 0.53194 0.7551 0.55697 0.0
C1495 C 0.55249 0.79429 0.5845 0.0
C1496 C 0.56328 0.82092 0.58292 0.0
C1497 C 0.53204 0.74441 0.58957 0.0
C1498 C 0.54265 0.75893 0.61987 0.0
C1499 C 0.55253 0.78363 0.61704 0.0
C1500 C 0.54427 0.74914 0.65478 0.0
C1501 C 0.52166 0.71784 0.59098 0.0
C1502 C 0.52371 0.73383 0.67417 0.0
C1503 C 0.5255 0.72732 0.70919 0.0
C1504 C 0.54789 0.7363 0.72542 0.0
C1505 C 0.56844 0.75063 0.7052 0.0
C1506 C 0.56663 0.757 0.67022 0.0
H1507 H 0.51931 0.71001 0.56381 0.0
H1508 H 0.53315 0.71316 0.60689 0.0
H1509 H 0.50397 0.70962 0.60408 0.0
H1510 H 0.50628 0.72788 0.66292 0.0
H1511 H 0.50934 0.7164 0.72416 0.0
H1512 H 0.25805 0.83187 0.71772 0.0
H1513 H 0.24962 0.81914 0.65532 0.0
H1514 H 0.29072 0.78405 0.66506 0.0
H1515 H 0.29933 0.79671 0.72768 0.0
H1516 H 0.28177 0.82463 0.59461 0.0
H1517 H 0.22096 0.73113 0.63737 0.0
H1518 H 0.23016 0.75593 0.66754 0.0
H1519 H 0.25057 0.74611 0.65548 0.0
C1520 C 0.2657 0.82183 0.70646 0.0
C1521 C 0.27923 0.81517 0.72773 0.0
C1522 C 0.26083 0.81456 0.67082 0.0
C1523 C 0.26926 0.80039 0.65591 0.0
C1524 C 0.28385 0.79477 0.67635 0.0
H1525 H 0.22599 0.72574 0.44975 0.0
H1526 H 0.24353 0.73882 0.50937 0.0
C1527 C 0.28886 0.80215 0.71202 0.0
C1528 C 0.26148 0.79042 0.61967 0.0
H1529 H 0.2234 0.73923 0.57572 0.0
C1530 C 0.26919 0.80594 0.59036 0.0
C1531 C 0.24514 0.766 0.61437 0.0
C1532 C 0.23603 0.74873 0.64527 0.0
C1533 C 0.26064 0.79773 0.55578 0.0
C1534 C 0.24351 0.77349 0.55068 0.0
C1535 C 0.23644 0.75781 0.57981 0.0
C1536 C 0.2318 0.76444 0.51567 0.0
C1537 C 0.26998 0.81511 0.52505 0.0
C1538 C 0.21865 0.77386 0.50021 0.0
C1539 C 0.20866 0.76647 0.46635 0.0
C1540 C 0.21142 0.74932 0.44737 0.0
C1541 C 0.22358 0.739 0.46368 0.0
C1542 C 0.23368 0.74651 0.49763 0.0
H1543 H 0.28767 0.83066 0.53127 0.0
H1544 H 0.27149 0.80653 0.50024 0.0
H1545 H 0.25755 0.82179 0.51985 0.0
H1546 H 0.21643 0.78724 0.51416 0.0
H1547 H 0.1992 0.77462 0.45473 0.0
H1548 H 0.51757 0.72142 0.95666 0.0
H1549 H 0.51702 0.73547 0.01736 0.0
H1550 H 0.59286 0.78229 0.01276 0.0
H1551 H 0.59366 0.76852 0.95214 0.0
H1552 H 0.57021 0.75338 0.08152 0.0
H1553 H 0.53246 0.80787 0.02951 0.0
H1554 H 0.51876 0.77724 0.0158 0.0
H1555 H 0.5483 0.79795 0.00108 0.0
C1556 C 0.5342 0.7343 0.96887 0.0
C1557 C 0.55564 0.74402 0.94957 0.0
C1558 C 0.53381 0.7424 0.00338 0.0
C1559 C 0.55485 0.76011 0.01906 0.0
C1560 C 0.57646 0.7687 0.00084 0.0
H1561 H 0.59494 0.83542 0.22053 0.0
H1562 H 0.5947 0.82191 0.15941 0.0
C1563 C 0.57686 0.76079 0.96628 0.0
C1564 C 0.55428 0.77079 0.05356 0.0
H1565 H 0.53987 0.80969 0.09146 0.0
C1566 C 0.56356 0.76566 0.08385 0.0
C1567 C 0.54554 0.78673 0.05618 0.0
C1568 C 0.53578 0.79298 0.02397 0.0
C1569 C 0.56415 0.77598 0.11706 0.0
C1570 C 0.55589 0.79238 0.11959 0.0
C1571 C 0.54638 0.7973 0.08929 0.0
C1572 C 0.55646 0.80407 0.15382 0.0
C1573 C 0.57316 0.76884 0.14925 0.0
C1574 C 0.53521 0.80004 0.16973 0.0
C1575 C 0.53531 0.80811 0.20442 0.0
C1576 C 0.55669 0.82022 0.2237 0.0
C1577 C 0.57816 0.82594 0.2065 0.0
C1578 C 0.57804 0.81804 0.17172 0.0
H1579 H 0.57274 0.75173 0.14479 0.0
H1580 H 0.59185 0.78267 0.15454 0.0
H1581 H 0.56245 0.76709 0.17344 0.0
H1582 H 0.5184 0.78952 0.15611 0.0
H1583 H 0.51848 0.80346 0.2169 0.0
H1584 H 0.28777 0.79644 0.96021 0.0
H1585 H 0.27155 0.78025 0.0194 0.0
H1586 H 0.22415 0.80846 0.01177 0.0
H1587 H 0.23986 0.82425 0.9524 0.0
H1588 H 0.26747 0.79965 0.08286 0.0
H1589 H 0.17842 0.73781 0.02696 0.0
H1590 H 0.20438 0.75406 -0.00087 0.0
H1591 H 0.18884 0.76838 0.01627 0.0
C1592 C 0.27419 0.79956 0.9714 0.0
C1593 C 0.2649 0.81139 0.95147 0.0
C1594 C 0.26486 0.79019 0.00512 0.0
C1595 C 0.24617 0.79256 0.01942 0.0
C1596 C 0.23806 0.80581 0.00069 0.0
H1597 H 0.17553 0.76148 0.22254 0.0
H1598 H 0.18821 0.77306 0.16059 0.0
C1599 C 0.24723 0.81502 0.96692 0.0
C1600 C 0.23473 0.7807 0.05349 0.0
H1601 H 0.18127 0.74082 0.09059 0.0
C1602 C 0.24868 0.78667 0.08451 0.0
C1603 C 0.21021 0.76358 0.05545 0.0
C1604 C 0.19461 0.75537 0.02262 0.0
C1605 C 0.23861 0.77649 0.11768 0.0
C1606 C 0.21403 0.75989 0.11971 0.0
C1607 C 0.2001 0.75363 0.08873 0.0
C1608 C 0.20257 0.74962 0.15432 0.0
C1609 C 0.25412 0.78384 0.15058 0.0
C1610 C 0.20551 0.73181 0.17045 0.0
C1611 C 0.19812 0.72498 0.20575 0.0
C1612 C 0.1879 0.73607 0.22545 0.0
C1613 C 0.18338 0.75263 0.20815 0.0
C1614 C 0.19065 0.75932 0.1728 0.0
H1615 H 0.27244 0.79849 0.145 0.0
H1616 H 0.24622 0.78962 0.17195 0.0
H1617 H 0.25513 0.76838 0.16098 0.0
H1618 H 0.21462 0.72411 0.15636 0.0
H1619 H 0.20191 0.71222 0.21828 0.0
H1620 H 0.22433 0.50605 0.94995 0.0
H1621 H 0.23932 0.51142 0.01151 0.0
H1622 H 0.2102 0.43577 0.02128 0.0
H1623 H 0.19514 0.43019 0.96022 0.0
H1624 H 0.20175 0.4589 0.08133 0.0
H1625 H 0.29677 0.50238 0.03959 0.0
H1626 H 0.2792 0.51454 0.02256 0.0
H1627 H 0.27274 0.48548 0.00875 0.0
C1628 C 0.22089 0.49055 0.96539 0.0
C1629 C 0.20869 0.46771 0.95017 0.0
C1630 C 0.2296 0.49368 0.00039 0.0
C1631 C 0.22615 0.47401 0.02058 0.0
C1632 C 0.21315 0.45116 0.00597 0.0
H1633 H 0.25674 0.43127 0.21874 0.0
H1634 H 0.24595 0.43573 0.15788 0.0
C1635 C 0.20456 0.44803 0.97107 0.0
C1636 C 0.23635 0.4769 0.05676 0.0
H1637 H 0.2885 0.49458 0.10104 0.0
C1638 C 0.22072 0.46692 0.08575 0.0
C1639 C 0.26111 0.48744 0.06228 0.0
C1640 C 0.27854 0.49799 0.03173 0.0
C1641 C 0.22917 0.46668 0.12011 0.0
C1642 C 0.25385 0.47626 0.12537 0.0
C1643 C 0.26959 0.48711 0.09672 0.0
C1644 C 0.26331 0.47407 0.16019 0.0
C1645 C 0.21159 0.45595 0.15048 0.0
C1646 C 0.27779 0.49427 0.18077 0.0
C1647 C 0.28415 0.49181 0.21559 0.0
C1648 C 0.27608 0.46908 0.23017 0.0
C1649 C 0.26299 0.449 0.20845 0.0
C1650 C 0.25671 0.45149 0.17374 0.0
H1651 H 0.19457 0.45531 0.14428 0.0
H1652 H 0.20767 0.43747 0.15515 0.0
H1653 H 0.21893 0.46616 0.17561 0.0
H1654 H 0.28321 0.51185 0.17054 0.0
H1655 H 0.29427 0.50761 0.23166 0.0
H1656 H 0.96338 0.81819 0.79952 0.0
H1657 H 0.94914 0.81665 0.86087 0.0
H1658 H 0.88112 0.75685 0.83223 0.0
H1659 H 0.89541 0.75756 0.7719 0.0
H1660 H 0.91391 0.82285 0.8839 0.0
H1661 H 0.89387 0.73251 0.92207 0.0
H1662 H 0.91058 0.74714 0.88236 0.0
H1663 H 0.87857 0.73203 0.88197 0.0
C1664 C 0.94557 0.80442 0.80661 0.0
C1665 C 0.93063 0.78785 0.78099 0.0
C1666 C 0.93741 0.80364 0.84155 0.0
C1667 C 0.91417 0.7864 0.85128 0.0
C1668 C 0.89932 0.76985 0.82571 0.0
H1669 H 0.84211 0.7996 0.04314 0.0
H1670 H 0.85359 0.79913 0.98032 0.0
C1671 C 0.90755 0.77036 0.7911 0.0
C1672 C 0.90496 0.78623 0.88765 0.0
H1673 H 0.87699 0.75022 0.95896 0.0
C1674 C 0.90601 0.80704 0.9005 0.0
C1675 C 0.89474 0.76561 0.9093 0.0
C1676 C 0.89459 0.74316 0.89836 0.0
C1677 C 0.89717 0.80782 0.93449 0.0
C1678 C 0.88624 0.78695 0.95561 0.0
C1679 C 0.88506 0.76612 0.94256 0.0
C1680 C 0.87814 0.78674 0.99279 0.0
C1681 C 0.90037 0.83116 0.94782 0.0
C1682 C 0.88747 0.77924 0.02033 0.0
C1683 C 0.88044 0.77885 0.05555 0.0
C1684 C 0.86399 0.78603 0.06424 0.0
C1685 C 0.85463 0.79372 0.03691 0.0
C1686 C 0.86138 0.7937 0.00122 0.0
H1687 H 0.91422 0.84645 0.93239 0.0
H1688 H 0.8834 0.83117 0.94477 0.0
H1689 H 0.90538 0.83386 0.97656 0.0
H1690 H 0.90062 0.77408 0.01465 0.0
H1691 H 0.88876 0.77391 0.07616 0.0
H1692 H 0.1796 0.12692 0.78696 0.0
H1693 H 0.17523 0.11222 0.84863 0.0
H1694 H 0.25116 0.14241 0.85591 0.0
H1695 H 0.25571 0.15711 0.79475 0.0
H1696 H 0.19146 0.08018 0.87229 0.0
H1697 H 0.23307 0.16471 0.94851 0.0
H1698 H 0.22204 0.16233 0.90345 0.0
H1699 H 0.25046 0.16473 0.91109 0.0
C1700 C 0.19538 0.13081 0.80199 0.0
C1701 C 0.218 0.14316 0.78603 0.0
C1702 C 0.19284 0.12231 0.83707 0.0
C1703 C 0.21289 0.1264 0.85678 0.0
C1704 C 0.2355 0.13937 0.84128 0.0
H1705 H 0.25426 0.09231 0.05394 0.0
H1706 H 0.25062 0.10347 0.99291 0.0
C1707 C 0.23804 0.14768 0.80627 0.0
C1708 C 0.21042 0.11593 0.89272 0.0
H1709 H 0.22909 0.13062 0.97897 0.0
C1710 C 0.19934 0.09112 0.89582 0.0
C1711 C 0.2208 0.13032 0.92317 0.0
C1712 C 0.23208 0.157 0.92158 0.0
C1713 C 0.19936 0.08035 0.92839 0.0
C1714 C 0.21047 0.09483 0.95855 0.0
C1715 C 0.2208 0.11958 0.95566 0.0
C1716 C 0.21219 0.08495 0.99334 0.0
C1717 C 0.18841 0.05371 0.92993 0.0
C1718 C 0.19174 0.07022 0.01338 0.0
C1719 C 0.19376 0.06368 0.04829 0.0
C1720 C 0.21628 0.07203 0.06377 0.0
C1721 C 0.23667 0.0857 0.04287 0.0
C1722 C 0.23463 0.09214 0.00802 0.0
H1723 H 0.18537 0.04572 0.90279 0.0
H1724 H 0.1999 0.04873 0.94521 0.0
H1725 H 0.171 0.04594 0.94382 0.0
H1726 H 0.17427 0.06476 0.00272 0.0
H1727 H 0.17771 0.05327 0.06379 0.0
H1728 H 0.85702 0.09745 0.79135 0.0
H1729 H 0.87225 0.10766 0.85224 0.0
H1730 H 0.90307 0.0626 0.84291 0.0
H1731 H 0.88793 0.05228 0.78148 0.0
H1732 H 0.8656 0.07804 0.91332 0.0
H1733 H 0.95986 0.12974 0.86811 0.0
H1734 H 0.93525 0.12126 0.83788 0.0
H1735 H 0.94265 0.09954 0.85278 0.0
C1736 C 0.86679 0.08945 0.8023 0.0
C1737 C 0.87142 0.07419 0.78149 0.0
C1738 C 0.87549 0.09533 0.83712 0.0
C1739 C 0.8891 0.0862 0.85176 0.0
C1740 C 0.89289 0.0701 0.83178 0.0
H1741 H 0.96128 0.12468 0.05949 0.0
H1742 H 0.94896 0.10866 -0.00102 0.0
C1743 C 0.88406 0.06408 0.79686 0.0
C1744 C 0.89981 0.09436 0.88756 0.0
H1745 H 0.95257 0.12995 0.92981 0.0
C1746 C 0.88462 0.0892 0.91703 0.0
C1747 C 0.92465 0.1089 0.89219 0.0
C1748 C 0.94165 0.1154 0.86113 0.0
C1749 C 0.89356 0.09856 0.95098 0.0
C1750 C 0.9183 0.11386 0.95535 0.0
C1751 C 0.93361 0.11835 0.92621 0.0
C1752 C 0.92833 0.12591 0.98983 0.0
C1753 C 0.87643 0.09207 0.9819 0.0
C1754 C 0.92176 0.1418 0.00387 0.0
C1755 C 0.92877 0.15101 0.03828 0.0
C1756 C 0.9426 0.14455 0.05922 0.0
C1757 C 0.95061 0.12998 0.04406 0.0
C1758 C 0.94351 0.12073 0.00957 0.0
H1759 H 0.85937 0.07553 0.97645 0.0
H1760 H 0.88418 0.08964 0.00691 0.0
H1761 H 0.87247 0.10662 0.98634 0.0
H1762 H 0.91048 0.14643 0.98865 0.0
H1763 H 0.92254 0.1624 0.04898 0.0
H1764 H 0.18776 0.05897 0.29592 0.0
H1765 H 0.18819 0.07355 0.35661 0.0
H1766 H 0.2642 0.11888 0.35032 0.0
H1767 H 0.26401 0.1046 0.28968 0.0
H1768 H 0.24087 0.08981 0.41996 0.0
H1769 H 0.20658 0.14734 0.3681 0.0
H1770 H 0.19209 0.11674 0.35401 0.0
H1771 H 0.22191 0.13681 0.33971 0.0
C1772 C 0.20463 0.07163 0.30775 0.0
C1773 C 0.22584 0.08078 0.28797 0.0
C1774 C 0.20481 0.08002 0.34227 0.0
C1775 C 0.22619 0.09746 0.35749 0.0
C1776 C 0.24754 0.1055 0.33877 0.0
H1777 H 0.26766 0.17172 0.56039 0.0
H1778 H 0.26748 0.15821 0.49927 0.0
C1779 C 0.24737 0.09729 0.30421 0.0
C1780 C 0.22625 0.10846 0.39202 0.0
H1781 H 0.21397 0.14886 0.43001 0.0
C1782 C 0.23498 0.1027 0.42231 0.0
C1783 C 0.2185 0.1252 0.39467 0.0
C1784 C 0.20932 0.13209 0.36246 0.0
C1785 C 0.23596 0.11314 0.45559 0.0
C1786 C 0.22865 0.1303 0.45818 0.0
C1787 C 0.21975 0.13589 0.42782 0.0
C1788 C 0.22943 0.14198 0.49255 0.0
C1789 C 0.24426 0.10526 0.48778 0.0
C1790 C 0.20836 0.13889 0.50787 0.0
C1791 C 0.20845 0.14698 0.54254 0.0
C1792 C 0.22963 0.15819 0.56244 0.0
C1793 C 0.25102 0.16296 0.54587 0.0
C1794 C 0.25092 0.15504 0.5111 0.0
H1795 H 0.24308 0.08782 0.48321 0.0
H1796 H 0.26311 0.11851 0.49331 0.0
H1797 H 0.23361 0.10386 0.51189 0.0
H1798 H 0.19163 0.12909 0.49378 0.0
H1799 H 0.19168 0.14306 0.55449 0.0
H1800 H 0.95674 0.13126 0.2918 0.0
H1801 H 0.94112 0.11685 0.35194 0.0
H1802 H 0.89798 0.14994 0.34509 0.0
H1803 H 0.91306 0.16396 0.28481 0.0
H1804 H 0.93935 0.13793 0.41562 0.0
H1805 H 0.84876 0.08024 0.36117 0.0
H1806 H 0.87472 0.09489 0.33293 0.0
H1807 H 0.86112 0.11108 0.35023 0.0
C1808 C 0.9443 0.13588 0.30339 0.0
C1809 C 0.9359 0.14848 0.28343 0.0
C1810 C 0.9353 0.12753 0.33766 0.0
C1811 C 0.91788 0.13174 0.35245 0.0
C1812 C 0.91089 0.1459 0.33369 0.0
H1813 H 0.84403 0.09809 0.55526 0.0
H1814 H 0.85812 0.11166 0.49425 0.0
C1815 C 0.91969 0.15407 0.29939 0.0
C1816 C 0.90628 0.12054 0.38678 0.0
H1817 H 0.85233 0.08278 0.42456 0.0
C1818 C 0.92036 0.1258 0.41756 0.0
C1819 C 0.88149 0.10456 0.38912 0.0
C1820 C 0.86565 0.09714 0.35656 0.0
C1821 C 0.9102 0.1159 0.45083 0.0
C1822 C 0.88542 0.10025 0.45319 0.0
C1823 C 0.87133 0.09487 0.42249 0.0
C1824 C 0.87395 0.08952 0.48764 0.0
C1825 C 0.92593 0.12245 0.48343 0.0
C1826 C 0.87731 0.07183 0.50323 0.0
C1827 C 0.86922 0.06396 0.53794 0.0
C1828 C 0.8578 0.07384 0.55766 0.0
C1829 C 0.853 0.09035 0.54092 0.0
C1830 C 0.86101 0.09812 0.50611 0.0
H1831 H 0.94414 0.13742 0.47808 0.0
H1832 H 0.91809 0.12741 0.50593 0.0
H1833 H 0.9273 0.10685 0.49205 0.0
H1834 H 0.88707 0.06486 0.4891 0.0
H1835 H 0.8732 0.05122 0.55 0.0
H1836 H 0.85614 0.76525 0.29994 0.0
H1837 H 0.87168 0.77182 0.3607 0.0
H1838 H 0.9064 0.8476 0.34463 0.0
H1839 H 0.89095 0.84117 0.28328 0.0
H1840 H 0.93664 0.83096 0.36924 0.0
H1841 H 0.85523 0.79538 0.45203 0.0
H1842 H 0.85267 0.77539 0.41691 0.0
H1843 H 0.85608 0.80386 0.40578 0.0
C1844 C 0.86666 0.78334 0.3095 0.0
C1845 C 0.87237 0.8027 0.2868 0.0
C1846 C 0.87544 0.78706 0.34432 0.0
C1847 C 0.89002 0.81019 0.3572 0.0
C1848 C 0.89506 0.82962 0.33515 0.0
H1849 H 0.96647 0.84357 0.56197 0.0
H1850 H 0.95475 0.84882 0.50191 0.0
C1851 C 0.88612 0.82591 0.30023 0.0
C1852 C 0.90157 0.81367 0.39246 0.0
H1853 H 0.88934 0.79693 0.47989 0.0
C1854 C 0.9264 0.82398 0.39365 0.0
C1855 C 0.88813 0.80454 0.42413 0.0
C1856 C 0.86157 0.79438 0.42479 0.0
C1857 C 0.938 0.82411 0.4254 0.0
C1858 C 0.92436 0.8138 0.45654 0.0
C1859 C 0.89969 0.80455 0.45573 0.0
C1860 C 0.93493 0.81124 0.48999 0.0
C1861 C 0.96453 0.83414 0.42512 0.0
C1862 C 0.92821 0.78843 0.50259 0.0
C1863 C 0.93484 0.78535 0.53673 0.0
C1864 C 0.94819 0.80506 0.55902 0.0
C1865 C 0.95628 0.82803 0.54539 0.0
C1866 C 0.94958 0.83109 0.51112 0.0
H1867 H 0.97205 0.83849 0.39763 0.0
H1868 H 0.97316 0.85062 0.44141 0.0
H1869 H 0.96903 0.82131 0.43731 0.0
H1870 H 0.91692 0.77292 0.48655 0.0
H1871 H 0.92835 0.76742 0.54637 0.0
H1872 H 0.3532 0.88963 0.81298 0.0
H1873 H 0.38908 0.92344 0.83734 0.0
H1874 H 0.34722 0.93213 0.91915 0.0
H1875 H 0.311 0.89819 0.89449 0.0
H1876 H 0.40342 0.97329 0.85662 0.0
H1877 H 0.39454 0.91483 0.97148 0.0
H1878 H 0.37866 0.9032 0.93002 0.0
H1879 H 0.36925 0.918 0.96092 0.0
C1880 C 0.3515 0.89933 0.8353 0.0
C1881 C 0.32927 0.89141 0.85165 0.0
C1882 C 0.37206 0.91857 0.84935 0.0
C1883 C 0.3709 0.93011 0.88035 0.0
C1884 C 0.34852 0.92336 0.8953 0.0
H1885 H 0.49555 0.0496 0.98129 0.0
H1886 H 0.45614 0.02374 0.95571 0.0
C1887 C 0.3278 0.90419 0.88093 0.0
C1888 C 0.39334 0.94738 0.89861 0.0
H1889 H 0.42855 0.95282 0.97011 0.0
C1890 C 0.40881 0.96899 0.88167 0.0
C1891 C 0.40057 0.94149 0.9309 0.0
C1892 C 0.38505 0.91808 0.94946 0.0
C1893 C 0.4313 0.98484 0.89613 0.0
C1894 C 0.4385 0.97896 0.92848 0.0
C1895 C 0.42298 0.95738 0.94545 0.0
C1896 C 0.46236 0.99466 0.94451 0.0
C1897 C 0.44752 0.0074 0.87607 0.0
C1898 C 0.47882 0.98673 0.94771 0.0
C1899 C 0.50149 1.00163 0.96199 0.0
C1900 C 0.50818 0.02477 0.97332 0.0
C1901 C 0.49134 0.0323 0.97136 0.0
C1902 C 0.46873 0.01746 0.95695 0.0
H1903 H 0.44145 0.00694 0.84814 0.0
H1904 H 0.44787 0.02266 0.88996 0.0
H1905 H 0.46595 0.01054 0.87541 0.0
H1906 H 0.47424 0.96912 0.93862 0.0
H1907 H 0.514 0.99527 0.96358 0.0
H1908 H 0.01821 0.5179 0.98358 0.0
H1909 H 0.04448 0.50467 0.95791 0.0
H1910 H 0.98896 0.43172 0.96955 0.0
H1911 H 0.96293 0.44488 0.9958 0.0
H1912 H 0.06005 0.47438 0.98687 0.0
H1913 H 1.00747 0.43649 0.86266 0.0
H1914 H 1.00345 0.45655 0.89141 0.0
H1915 H 0.99118 0.42594 0.90387 0.0
C1916 C 0.01166 0.49906 0.98064 0.0
C1917 C 0.98823 0.48248 0.99066 0.0
C1918 C 0.02665 0.4915 0.96596 0.0
C1919 C 0.01856 0.46719 0.96101 0.0
C1920 C 0.99542 0.45057 0.97212 0.0
H1921 H 0.11704 0.41501 0.90512 0.0
H1922 H 0.08347 0.41686 0.93246 0.0
C1923 C 0.98047 0.45812 0.98691 0.0
C1924 C 0.03439 0.4593 0.94444 0.0
H1925 H 0.04094 0.43184 0.87062 0.0
C1926 C 0.05578 0.46491 0.9616 0.0
C1927 C 0.02892 0.44708 0.9113 0.0
C1928 C 1.00662 0.44128 0.89097 0.0
C1929 C 0.07189 0.45884 0.94644 0.0
C1930 C 0.06643 0.44661 0.91332 0.0
C1931 C 0.04496 0.44085 0.89627 0.0
C1932 C 0.08399 0.44212 0.89422 0.0
C1933 C 0.09511 0.46636 0.9653 0.0
C1934 C 0.09461 0.4547 0.8627 0.0
C1935 C 0.11359 0.45359 0.84711 0.0
C1936 C 0.12227 0.43964 0.86238 0.0
C1937 C 0.11052 0.42562 0.89244 0.0
C1938 C 0.09156 0.42694 0.90834 0.0
H1939 H 0.09824 0.47885 0.98769 0.0
H1940 H 0.09493 0.45044 0.97637 0.0
H1941 H 0.11019 0.47501 0.94619 0.0
H1942 H 0.08908 0.46646 0.85122 0.0
H1943 H 0.12236 0.46471 0.82409 0.0
H1944 H 0.54841 0.65997 0.80879 0.0
H1945 H 0.54721 0.62455 0.83331 0.0
H1946 H 0.59796 0.66738 0.91411 0.0
H1947 H 0.59935 0.70313 0.88933 0.0
H1948 H 0.58311 0.61088 0.85229 0.0
H1949 H 0.53396 0.61999 0.96778 0.0
H1950 H 0.53789 0.63563 0.92615 0.0
H1951 H 0.56229 0.64535 0.95668 0.0
C1952 C 0.56005 0.66199 0.8309 0.0
C1953 C 0.57411 0.68434 0.84699 0.0
C1954 C 0.55923 0.6417 0.84502 0.0
C1955 C 0.57221 0.64325 0.87584 0.0
C1956 C 0.58768 0.66578 0.89042 0.0
H1957 H 0.56832 0.5195 0.97787 0.0
H1958 H 0.5817 0.55877 0.95185 0.0
C1959 C 0.58872 0.68623 0.87597 0.0
C1960 C 0.56741 0.62104 0.89443 0.0
H1961 H 0.53827 0.5862 0.96669 0.0
C1962 C 0.5736 0.6056 0.87754 0.0
C1963 C 0.55452 0.61395 0.92699 0.0
C1964 C 0.54657 0.62943 0.94553 0.0
C1965 C 0.56719 0.58324 0.89229 0.0
C1966 C 0.55432 0.57617 0.92489 0.0
C1967 C 0.54824 0.59168 0.94184 0.0
C1968 C 0.54629 0.55242 0.94116 0.0
C1969 C 0.57353 0.56701 0.87227 0.0
C1970 C 0.52192 0.53595 0.94478 0.0
C1971 C 0.51426 0.51337 0.95933 0.0
C1972 C 0.5308 0.50679 0.9705 0.0
C1973 C 0.55517 0.52364 0.96809 0.0
C1974 C 0.56283 0.54616 0.95342 0.0
H1975 H 0.57899 0.57295 0.84424 0.0
H1976 H 0.58855 0.5668 0.886 0.0
H1977 H 0.55827 0.54854 0.87193 0.0
H1978 H 0.50881 0.54044 0.93583 0.0
H1979 H 0.49539 0.50085 0.96126 0.0
H1980 H 0.96234 0.51876 0.4835 0.0
H1981 H 0.98848 0.55728 0.45608 0.0
H1982 H 0.0453 0.54123 0.45407 0.0
H1983 H 0.01846 0.50177 0.47888 0.0
H1984 H 0.02671 0.59432 0.47627 0.0
H1985 H 0.04976 0.56265 0.35368 0.0
H1986 H 0.02671 0.54269 0.38382 0.0
H1987 H 0.05742 0.55223 0.39302 0.0
C1988 C 0.98008 0.52298 0.47596 0.0
C1989 C 0.98791 0.50661 0.48181 0.0
C1990 C 0.99523 0.54531 0.46082 0.0
C1991 C 0.0188 0.5521 0.45178 0.0
C1992 C 0.027 0.53622 0.45933 0.0
H1993 H 0.13512 0.6957 0.42172 0.0
H1994 H 0.10211 0.65895 0.44541 0.0
C1995 C 0.01172 0.51373 0.47395 0.0
C1996 C 0.03486 0.57599 0.43555 0.0
H1997 H 0.07427 0.60392 0.36726 0.0
C1998 C 0.03691 0.59635 0.45222 0.0
C1999 C 0.0479 0.57887 0.40365 0.0
C2000 C 0.04514 0.55792 0.3823 0.0
C2001 C 0.052 0.61932 0.43861 0.0
C2002 C 0.06621 0.62228 0.40806 0.0
C2003 C 0.06365 0.60189 0.39083 0.0
C2004 C 0.08453 0.64621 0.3943 0.0
C2005 C 0.05217 0.6401 0.45692 0.0
C2006 C 0.08601 0.65161 0.35752 0.0
C2007 C 0.10519 0.67261 0.3439 0.0
C2008 C 0.123 0.68883 0.36686 0.0
C2009 C 0.12106 0.68396 0.4037 0.0
C2010 C 0.10215 0.66285 0.41725 0.0
H2011 H 0.03483 0.63462 0.47005 0.0
H2012 H 0.06597 0.64703 0.4781 0.0
H2013 H 0.05605 0.65466 0.43779 0.0
H2014 H 0.07285 0.63908 0.33909 0.0
H2015 H 0.10677 0.67555 0.31525 0.0
H2016 H 0.49495 0.44831 0.47471 0.0
H2017 H 0.45571 0.43524 0.44888 0.0
H2018 H 0.47345 0.50826 0.43716 0.0
H2019 H 0.51304 0.5214 0.46247 0.0
H2020 H 0.42751 0.47778 0.46676 0.0
H2021 H 0.4421 0.44024 0.34192 0.0
H2022 H 0.4481 0.42973 0.38288 0.0
H2023 H 0.46621 0.46039 0.3705 0.0
C2024 C 0.49068 0.46158 0.46594 0.0
C2025 C 0.50737 0.48592 0.46948 0.0
C2026 C 0.46818 0.45408 0.45137 0.0
C2027 C 0.46178 0.47075 0.4403 0.0
C2028 C 0.47806 0.49506 0.44515 0.0
H2029 H 0.35244 0.46789 0.31044 0.0
H2030 H 0.38854 0.47003 0.33395 0.0
C2031 C 0.50063 0.50257 0.45963 0.0
C2032 C 0.43806 0.46285 0.42398 0.0
H2033 H 0.40367 0.43483 0.35083 0.0
C2034 C 0.42224 0.46826 0.44154 0.0
C2035 C 0.43125 0.45056 0.3909 0.0
C2036 C 0.44782 0.44501 0.37018 0.0
C2037 C 0.39986 0.46178 0.42691 0.0
C2038 C 0.39299 0.44938 0.39396 0.0
C2039 C 0.40879 0.44395 0.37638 0.0
C2040 C 0.37052 0.44419 0.37583 0.0
C2041 C 0.38399 0.46894 0.44619 0.0
C2042 C 0.34818 0.42796 0.39035 0.0
C2043 C 0.32736 0.42638 0.37645 0.0
C2044 C 0.32868 0.44119 0.34809 0.0
C2045 C 0.35087 0.45606 0.33203 0.0
C2046 C 0.37154 0.45743 0.3456 0.0
H2047 H 0.39325 0.48131 0.46873 0.0
H2048 H 0.37744 0.47759 0.42735 0.0
H2049 H 0.3683 0.45285 0.45708 0.0
H2050 H 0.34699 0.41747 0.41358 0.0
H2051 H 0.31059 0.41514 0.38981 0.0
H2052 H 0.59358 0.89364 0.40302 0.0
H2053 H 0.58925 0.92637 0.42779 0.0
H2054 H 0.55132 0.92599 0.333 0.0
H2055 H 0.55493 0.89298 0.30893 0.0
H2056 H 0.59895 0.972 0.40829 0.0
H2057 H 0.50184 0.90939 0.41076 0.0
H2058 H 0.52303 0.89986 0.40157 0.0
H2059 H 0.51436 0.91314 0.36681 0.0
C2060 C 0.58517 0.90122 0.38695 0.0
C2061 C 0.57472 0.8909 0.35397 0.0
C2062 C 0.58245 0.91974 0.40127 0.0
C2063 C 0.56932 0.92818 0.38273 0.0
C2064 C 0.56095 0.91938 0.34827 0.0
H2065 H 0.51626 0.0249 0.42308 0.0
H2066 H 0.52873 0.99803 0.39748 0.0
C2067 C 0.56335 0.90075 0.33426 0.0
C2068 C 0.56261 0.94464 0.40022 0.0
H2069 H 0.51446 0.94985 0.42355 0.0
C2070 C 0.58049 0.96711 0.41183 0.0
C2071 C 0.53847 0.93819 0.40525 0.0
C2072 C 0.51832 0.91375 0.3958 0.0
C2073 C 0.57488 0.98351 0.4272 0.0
C2074 C 0.55077 0.97725 0.43126 0.0
C2075 C 0.53292 0.95471 0.42013 0.0
C2076 C 0.54364 0.99386 0.44683 0.0
C2077 C 0.59473 0.00766 0.43827 0.0
C2078 C 0.54748 1.00013 0.4832 0.0
C2079 C 0.54026 0.01539 0.49784 0.0
C2080 C 0.52931 0.02487 0.47631 0.0
C2081 C 0.52516 0.01829 0.44005 0.0
C2082 C 0.53217 1.00287 0.42549 0.0
H2083 H 0.61221 0.0113 0.42764 0.0
H2084 H 0.59119 0.02179 0.42884 0.0
H2085 H 0.5958 0.0086 0.46792 0.0
H2086 H 0.55591 0.99308 0.50033 0.0
H2087 H 0.54355 0.0201 0.52589 0.0
H2088 H 0.187 0.36937 0.24521 0.0
H2089 H 0.14777 0.34349 0.21907 0.0
H2090 H 0.11875 0.31919 0.32451 0.0
H2091 H 0.1579 0.34559 0.35084 0.0
H2092 H 0.10653 0.28239 0.27382 0.0
H2093 H 0.08824 0.35151 0.22121 0.0
H2094 H 0.11653 0.35502 0.2086 0.0
H2095 H 0.11058 0.35774 0.25481 0.0
C2096 C 0.17217 0.35903 0.2629 0.0
C2097 C 0.17545 0.36011 0.30023 0.0
C2098 C 0.14974 0.34412 0.2479 0.0
C2099 C 0.13014 0.32977 0.26985 0.0
C2100 C 0.13351 0.3303 0.30704 0.0
H2101 H 0.97962 0.23428 0.21787 0.0
H2102 H 0.01638 0.26835 0.24105 0.0
C2103 C 0.1559 0.34531 0.32205 0.0
C2104 C 0.1064 0.31338 0.25396 0.0
H2105 H 0.06166 0.31162 0.20328 0.0
C2106 C 0.09668 0.28882 0.25861 0.0
C2107 C 0.09342 0.32174 0.23428 0.0
C2108 C 0.10255 0.34794 0.22959 0.0
C2109 C 0.07473 0.27242 0.24337 0.0
C2110 C 0.06208 0.28074 0.22286 0.0
C2111 C 0.07143 0.30529 0.21889 0.0
C2112 C 0.03961 0.26382 0.20438 0.0
C2113 C 0.06522 0.24619 0.24899 0.0
C2114 C 0.04042 0.25087 0.17496 0.0
C2115 C 0.01958 0.23166 0.16164 0.0
C2116 C 0.99743 0.22499 0.17737 0.0
C2117 C 0.99636 0.23925 0.2048 0.0
C2118 C 0.01737 0.25856 0.21828 0.0
H2119 H 0.07483 0.24275 0.27061 0.0
H2120 H 0.046 0.23702 0.25572 0.0
H2121 H 0.06725 0.23826 0.22385 0.0
H2122 H 0.05735 0.25469 0.16372 0.0
H2123 H 0.02097 0.22092 0.14062 0.0
H2124 H 0.6285 0.77734 0.31732 0.0
H2125 H 0.65481 0.7639 0.29307 0.0
H2126 H 0.71099 0.8367 0.28287 0.0
H2127 H 0.68441 0.85022 0.30635 0.0
H2128 H 0.67836 0.77506 0.22515 0.0
H2129 H 0.74216 0.80419 0.3381 0.0
H2130 H 0.71313 0.80132 0.34204 0.0
H2131 H 0.73696 0.82693 0.3206 0.0
C2132 C 0.64629 0.7905 0.3093 0.0
C2133 C 0.65417 0.8149 0.31282 0.0
C2134 C 0.66141 0.78278 0.29578 0.0
C2135 C 0.68493 0.79925 0.28621 0.0
C2136 C 0.69301 0.82362 0.29042 0.0
H2137 H 0.78879 0.79552 0.1514 0.0
H2138 H 0.75459 0.79652 0.17633 0.0
C2139 C 0.67783 0.83135 0.30375 0.0
C2140 C 0.7008 0.79098 0.27107 0.0
H2141 H 0.75354 0.79246 0.28464 0.0
C2142 C 0.69469 0.77868 0.23832 0.0
C2143 C 0.72195 0.79535 0.28844 0.0
C2144 C 0.72891 0.80747 0.32441 0.0
C2145 C 0.70962 0.77155 0.22184 0.0
C2146 C 0.73131 0.7769 0.23843 0.0
C2147 C 0.73694 0.78835 0.27186 0.0
C2148 C 0.74936 0.77273 0.22027 0.0
C2149 C 0.70216 0.75851 0.18663 0.0
C2150 C 0.75759 0.75855 0.2361 0.0
C2151 C 0.77709 0.75767 0.22146 0.0
C2152 C 0.78891 0.77134 0.19117 0.0
C2153 C 0.77984 0.78451 0.17444 0.0
C2154 C 0.76027 0.78514 0.18874 0.0
H2155 H 0.68263 0.74977 0.18273 0.0
H2156 H 0.71087 0.77138 0.16446 0.0
H2157 H 0.70762 0.74486 0.18482 0.0
H2158 H 0.74956 0.74895 0.2606 0.0
H2159 H 0.78401 0.74782 0.23541 0.0
H2160 H 0.1629 0.83716 0.30665 0.0
H2161 H 0.17619 0.8766 0.28062 0.0
H2162 H 0.24903 0.89308 0.28871 0.0
H2163 H 0.23581 0.85395 0.31518 0.0
H2164 H 0.20735 0.92246 0.30807 0.0
H2165 H 0.24272 0.90609 0.18237 0.0
H2166 H 0.22305 0.88239 0.212 0.0
H2167 H 0.25395 0.90058 0.22298 0.0
C2168 C 0.18173 0.84926 0.30287 0.0
C2169 C 0.19825 0.84218 0.31191 0.0
C2170 C 0.18932 0.87175 0.28797 0.0
C2171 C 0.2136 0.88764 0.28188 0.0
C2172 C 0.23018 0.88092 0.29214 0.0
H2173 H 0.26809 0.03838 0.22751 0.0
H2174 H 0.26617 1.00247 0.25271 0.0
C2175 C 0.2226 0.85848 0.3071 0.0
C2176 C 0.22155 0.91126 0.26507 0.0
H2177 H 0.24865 0.94474 0.19067 0.0
C2178 C 0.21652 0.92739 0.28253 0.0
C2179 C 0.23337 0.91766 0.23157 0.0
C2180 C 0.23846 0.90075 0.21088 0.0
C2181 C 0.22288 0.94962 0.26737 0.0
C2182 C 0.23481 0.95606 0.23397 0.0
C2183 C 0.2399 0.93998 0.21654 0.0
C2184 C 0.23975 0.9783 0.2152 0.0
C2185 C 0.216 0.96573 0.28657 0.0
C2186 C 0.22662 0.9768 0.1846 0.0
C2187 C 0.22778 0.99719 0.17018 0.0
C2188 C 0.24235 0.01962 0.18575 0.0
C2189 C 0.25707 0.02142 0.21453 0.0
C2190 C 0.2557 1.00087 0.22926 0.0
H2191 H 0.20368 0.95664 0.30926 0.0
H2192 H 0.23222 0.98135 0.29726 0.0
H2193 H 0.2074 0.97235 0.26777 0.0
H2194 H 0.21424 0.95964 0.17323 0.0
H2195 H 0.21604 0.99522 0.14826 0.0
H2196 H 0.78569 0.99521 0.6469 0.0
H2197 H 0.75148 0.95981 0.67143 0.0
H2198 H 0.74763 1.00147 0.75827 0.0
H2199 H 0.78206 0.03725 0.73341 0.0
H2200 H 0.75171 0.96128 0.77952 0.0
H2201 H 0.67955 0.93513 0.6803 0.0
H2202 H 0.70757 0.94206 0.6608 0.0
H2203 H 0.70463 0.96497 0.6831 0.0
C2204 C 0.77696 0.99703 0.67043 0.0
C2205 C 0.78634 0.01908 0.68794 0.0
C2206 C 0.75741 0.97674 0.6845 0.0
C2207 C 0.74684 0.97793 0.71661 0.0
C2208 C 0.75539 1.00016 0.7333 0.0
H2209 H 0.62725 0.85158 0.81422 0.0
H2210 H 0.65319 0.89157 0.79057 0.0
C2211 C 0.77487 0.02065 0.71888 0.0
C2212 C 0.72888 0.95552 0.7344 0.0
H2213 H 0.67554 0.90484 0.72097 0.0
C2214 C 0.7349 0.94909 0.76698 0.0
C2215 C 0.70693 0.93957 0.71809 0.0
C2216 C 0.69913 0.94582 0.6838 0.0
C2217 C 0.72001 0.92684 0.78291 0.0
C2218 C 0.69857 0.91046 0.76575 0.0
C2219 C 0.69209 0.91726 0.73394 0.0
C2220 C 0.68283 0.88609 0.78013 0.0
C2221 C 0.7274 0.92096 0.81792 0.0
C2222 C 0.69076 0.86958 0.78203 0.0
C2223 C 0.67575 0.84652 0.79494 0.0
C2224 C 0.65243 0.83939 0.80592 0.0
C2225 C 0.64471 0.85612 0.80461 0.0
C2226 C 0.65965 0.87911 0.79148 0.0
H2227 H 0.74106 0.93718 0.83184 0.0
H2228 H 0.71187 0.91126 0.83599 0.0
H2229 H 0.73506 0.90935 0.81267 0.0
H2230 H 0.70849 0.87446 0.77312 0.0
H2231 H 0.68223 0.8341 0.79586 0.0
H2232 H 0.97899 0.74968 0.72226 0.0
H2233 H 0.01495 0.75121 0.74651 0.0
H2234 H 0.05766 0.80412 0.668 0.0
H2235 H 0.02205 0.80283 0.64411 0.0
H2236 H 0.07113 0.76693 0.68499 0.0
H2237 H 0.06244 0.81535 0.80185 0.0
H2238 H 0.03693 0.78742 0.78963 0.0
H2239 H 0.04723 0.8124 0.76011 0.0
C2240 C 0.99593 0.76087 0.7093 0.0
C2241 C 0.99773 0.776 0.68113 0.0
C2242 C 0.01649 0.76196 0.72343 0.0
C2243 C 0.03901 0.77799 0.70928 0.0
C2244 C 0.04051 0.79164 0.67932 0.0
H2245 H 0.18188 0.85367 0.793 0.0
H2246 H 0.14239 0.84065 0.76756 0.0
C2247 C 0.02012 0.79078 0.66556 0.0
C2248 C 0.06125 0.78259 0.72754 0.0
H2249 H 0.09638 0.81132 0.79962 0.0
C2250 C 0.07654 0.77634 0.71029 0.0
C2251 C 0.06848 0.79532 0.76017 0.0
C2252 C 0.05308 0.80322 0.77912 0.0
C2253 C 0.0989 0.78255 0.72478 0.0
C2254 C 0.10615 0.79532 0.75742 0.0
C2255 C 0.09078 0.80146 0.77472 0.0
C2256 C 0.12991 0.80311 0.77344 0.0
C2257 C 0.11497 0.77611 0.7045 0.0
C2258 C 0.13586 0.7864 0.78594 0.0
C2259 C 0.15832 0.79383 0.80065 0.0
C2260 C 0.17543 0.81814 0.80281 0.0
C2261 C 0.16917 0.83485 0.79125 0.0
C2262 C 0.14665 0.82742 0.7767 0.0
H2263 H 0.10882 0.77052 0.67659 0.0
H2264 H 0.13344 0.79136 0.70379 0.0
H2265 H 0.11529 0.76116 0.71829 0.0
H2266 H 0.12304 0.76759 0.78462 0.0
H2267 H 0.16216 0.78055 0.8108 0.0
H2268 H 0.22704 0.2311 0.64991 0.0
H2269 H 0.22304 0.2635 0.67545 0.0
H2270 H 0.26018 0.26212 0.77014 0.0
H2271 H 0.26477 0.22995 0.74396 0.0
H2272 H 0.19691 0.25651 0.73463 0.0
H2273 H 0.28732 0.33304 0.75777 0.0
H2274 H 0.28186 0.30876 0.72838 0.0
H2275 H 0.28255 0.30545 0.77605 0.0
C2276 C 0.23535 0.23848 0.67546 0.0
C2277 C 0.24658 0.22827 0.69466 0.0
C2278 C 0.23282 0.25684 0.69026 0.0
C2279 C 0.24125 0.26537 0.72482 0.0
C2280 C 0.25389 0.25626 0.74318 0.0
H2281 H 0.2109 0.35408 0.86881 0.0
H2282 H 0.22381 0.32739 0.8435 0.0
C2283 C 0.25667 0.23795 0.72811 0.0
C2284 C 0.2341 0.28141 0.7428 0.0
H2285 H 0.25513 0.33538 0.78381 0.0
C2286 C 0.20972 0.27381 0.74519 0.0
C2287 C 0.25068 0.3039 0.75707 0.0
C2288 C 0.27708 0.31343 0.75449 0.0
C2289 C 0.2015 0.28795 0.76118 0.0
C2290 C 0.21805 0.31057 0.77492 0.0
C2291 C 0.24243 0.31807 0.77321 0.0
C2292 C 0.21032 0.3268 0.79039 0.0
C2293 C 0.17506 0.27837 0.76364 0.0
C2294 C 0.19843 0.33537 0.76906 0.0
C2295 C 0.19103 0.35052 0.7835 0.0
C2296 C 0.19554 0.35763 0.81953 0.0
C2297 C 0.20721 0.34886 0.84099 0.0
C2298 C 0.21471 0.33376 0.82648 0.0
H2299 H 0.16484 0.25874 0.76063 0.0
H2300 H 0.17025 0.28317 0.78962 0.0
H2301 H 0.16957 0.2862 0.74188 0.0
H2302 H 0.19496 0.33042 0.7411 0.0
H2303 H 0.18169 0.35661 0.76653 0.0
H2304 H 0.66259 0.57856 0.48308 0.0
H2305 H 0.69951 0.61376 0.50382 0.0
H2306 H 0.70113 0.57405 0.59518 0.0
H2307 H 0.66452 0.53943 0.57491 0.0
H2308 H 0.7145 0.62015 0.61283 0.0
H2309 H 0.76377 0.61652 0.49335 0.0
H2310 H 0.73844 0.6199 0.48454 0.0
H2311 H 0.73427 0.59292 0.50436 0.0
C2312 C 0.67052 0.57773 0.50811 0.0
C2313 C 0.66068 0.55642 0.52759 0.0
C2314 C 0.69177 0.59767 0.5197 0.0
C2315 C 0.70337 0.59645 0.5508 0.0
C2316 C 0.69264 0.57551 0.57114 0.0
H2317 H 0.84997 0.66652 0.61771 0.0
H2318 H 0.80977 0.64005 0.59463 0.0
C2319 C 0.67166 0.55574 0.55958 0.0
C2320 C 0.7273 0.61609 0.56168 0.0
H2321 H 0.78594 0.64487 0.53736 0.0
C2322 C 0.73009 0.6258 0.59615 0.0
C2323 C 0.74774 0.6231 0.54022 0.0
C2324 C 0.74609 0.6125 0.50366 0.0
C2325 C 0.75268 0.64192 0.60997 0.0
C2326 C 0.77312 0.64898 0.58848 0.0
C2327 C 0.7703 0.63958 0.55378 0.0
C2328 C 0.79764 0.6653 0.60203 0.0
C2329 C 0.75446 0.65041 0.64805 0.0
C2330 C 0.80433 0.68834 0.61376 0.0
C2331 C 0.8272 0.70335 0.62719 0.0
C2332 C 0.84409 0.69587 0.6285 0.0
C2333 C 0.83738 0.67281 0.61675 0.0
C2334 C 0.81447 0.65775 0.60344 0.0
H2335 H 0.73815 0.63873 0.66368 0.0
H2336 H 0.76993 0.65118 0.66191 0.0
H2337 H 0.75684 0.66854 0.64794 0.0
H2338 H 0.79184 0.69474 0.61264 0.0
H2339 H 0.83147 0.72065 0.63716 0.0
H2340 H 0.29833 0.11266 0.65635 0.0
H2341 H 0.32436 0.09928 0.63071 0.0
H2342 H 0.38087 0.17204 0.62211 0.0
H2343 H 0.35459 0.1855 0.64703 0.0
H2344 H 0.34733 0.11092 0.56277 0.0
H2345 H 0.41228 0.13874 0.674 0.0
H2346 H 0.38343 0.13614 0.67907 0.0
H2347 H 0.40721 0.16181 0.65765 0.0
C2348 C 0.31616 0.12583 0.64846 0.0
C2349 C 0.3242 0.15021 0.65283 0.0
C2350 C 0.33111 0.11814 0.63412 0.0
C2351 C 0.35463 0.13461 0.62454 0.0
C2352 C 0.3629 0.15895 0.62965 0.0
H2353 H 0.45643 0.13062 0.48443 0.0
H2354 H 0.42293 0.13213 0.51119 0.0
C2355 C 0.34788 0.16665 0.64382 0.0
C2356 C 0.37029 0.12637 0.60831 0.0
H2357 H 0.42303 0.12744 0.61951 0.0
C2358 C 0.36378 0.11436 0.57534 0.0
C2359 C 0.3916 0.13051 0.62487 0.0
C2360 C 0.39901 0.14231 0.66101 0.0
C2361 C 0.37845 0.10725 0.55789 0.0
C2362 C 0.40028 0.11234 0.57369 0.0
C2363 C 0.40633 0.12353 0.60731 0.0
C2364 C 0.418 0.10807 0.55458 0.0
C2365 C 0.37052 0.09447 0.52252 0.0
C2366 C 0.42619 0.0936 0.5695 0.0
C2367 C 0.44528 0.09243 0.5538 0.0
C2368 C 0.45674 0.10609 0.52333 0.0
C2369 C 0.44773 0.11961 0.50758 0.0
C2370 C 0.42857 0.12054 0.52293 0.0
H2371 H 0.35096 0.08589 0.51915 0.0
H2372 H 0.37906 0.10748 0.50047 0.0
H2373 H 0.37581 0.08073 0.51995 0.0
H2374 H 0.41843 0.08394 0.59406 0.0
H2375 H 0.45218 0.08233 0.56702 0.0
H2376 H 0.93194 0.37076 0.57477 0.0
H2377 H 0.93018 0.33485 0.5996 0.0
H2378 H 0.88284 0.29302 0.51468 0.0
H2379 H 0.88426 0.32858 0.49029 0.0
H2380 H 0.88297 0.29448 0.62025 0.0
H2381 H 0.9309 0.26795 0.52447 0.0
H2382 H 0.93703 0.29822 0.52851 0.0
H2383 H 0.91119 0.27665 0.50472 0.0
C2384 C 0.92204 0.35408 0.56058 0.0
C2385 C 0.9085 0.3525 0.53032 0.0
C2386 C 0.92081 0.33353 0.57499 0.0
C2387 C 0.90645 0.31124 0.5589 0.0
C2388 C 0.89429 0.31001 0.52727 0.0
H2389 H 0.84854 0.16159 0.5997 0.0
H2390 H 0.86191 0.20137 0.57544 0.0
C2391 C 0.8952 0.33038 0.51326 0.0
C2392 C 0.9016 0.2889 0.57713 0.0
H2393 H 0.90533 0.23868 0.5663 0.0
C2394 C 0.88816 0.2824 0.60882 0.0
C2395 C 0.90803 0.27302 0.56184 0.0
C2396 C 0.92274 0.27929 0.52814 0.0
C2397 C 0.88023 0.2601 0.62493 0.0
C2398 C 0.88653 0.24406 0.60953 0.0
C2399 C 0.90045 0.25086 0.57821 0.0
C2400 C 0.87825 0.21989 0.62472 0.0
C2401 C 0.86422 0.25357 0.65729 0.0
C2402 C 0.88293 0.21687 0.66052 0.0
C2403 C 0.87505 0.19408 0.67443 0.0
C2404 C 0.86285 0.1739 0.65263 0.0
C2405 C 0.85821 0.17689 0.61688 0.0
C2406 C 0.86583 0.19962 0.60307 0.0
H2407 H 0.85559 0.26459 0.65924 0.0
H2408 H 0.85014 0.23458 0.65659 0.0
H2409 H 0.87496 0.25668 0.68185 0.0
H2410 H 0.89295 0.23214 0.67762 0.0
H2411 H 0.87899 0.19221 0.70198 0.0
H2412 H 0.33071 0.19217 0.19078 0.0
H2413 H 0.35606 0.23181 0.1651 0.0
H2414 H 0.34349 0.20103 0.05947 0.0
H2415 H 0.31794 0.16151 0.0852 0.0
H2416 H 0.39639 0.24982 0.12844 0.0
H2417 H 0.32935 0.25358 0.04189 0.0
H2418 H 0.3214 0.23101 0.07567 0.0
H2419 H 0.33227 0.22809 0.03269 0.0
C2420 C 0.33334 0.19396 0.16208 0.0
C2421 C 0.32195 0.17385 0.13992 0.0
C2422 C 0.34776 0.2166 0.14738 0.0
C2423 C 0.35126 0.21964 0.11016 0.0
C2424 C 0.34044 0.1994 0.08809 0.0
H2425 H 0.45502 0.32858 0.97651 0.0
H2426 H 0.42112 0.29297 0.00157 0.0
C2427 C 0.32587 0.17677 0.10279 0.0
C2428 C 0.36705 0.24377 0.09469 0.0
H2429 H 0.37004 0.28296 0.03076 0.0
C2430 C 0.39046 0.25715 0.10746 0.0
C2431 C 0.35942 0.25354 0.0673 0.0
C2432 C 0.33417 0.24092 0.05384 0.0
C2433 C 0.40656 0.27948 0.09283 0.0
C2434 C 0.39913 0.28884 0.06477 0.0
C2435 C 0.37567 0.27577 0.05236 0.0
C2436 C 0.41627 0.31122 0.04628 0.0
C2437 C 0.43175 0.29269 0.10658 0.0
C2438 C 0.42411 0.33354 0.06222 0.0
C2439 C 0.44331 0.35411 0.04748 0.0
C2440 C 0.45505 0.35252 0.01689 0.0
C2441 C 0.4461 0.33038 -0.00018 0.0
C2442 C 0.42682 0.30998 0.01422 0.0
H2443 H 0.43516 0.2824 0.1271 0.0
H2444 H 0.44443 0.29685 0.08408 0.0
H2445 H 0.43538 0.30981 0.11858 0.0
H2446 H 0.41624 0.33484 0.08708 0.0
H2447 H 0.45017 0.37082 0.06164 0.0
H2448 H 0.85439 0.16067 0.08333 0.0
H2449 H 0.81453 0.14703 0.05904 0.0
H2450 H 0.7847 0.12491 0.16476 0.0
H2451 H 0.82464 0.13924 0.18901 0.0
H2452 H 0.7754 0.10462 0.05587 0.0
H2453 H 0.7555 0.16379 0.1374 0.0
H2454 H 0.78475 0.1672 0.13558 0.0
H2455 H 0.76227 0.14516 0.16435 0.0
C2456 C 0.83927 0.15287 0.10125 0.0
C2457 C 0.84253 0.15096 0.13801 0.0
C2458 C 0.8165 0.14509 0.08743 0.0
C2459 C 0.79649 0.13523 0.11007 0.0
C2460 C 0.79978 0.13302 0.14678 0.0
H2461 H 0.64523 0.08223 0.06511 0.0
H2462 H 0.68145 0.08438 0.08946 0.0
C2463 C 0.82258 0.1411 0.16064 0.0
C2464 C 0.77228 0.12718 0.09521 0.0
H2465 H 0.72367 0.13416 0.10346 0.0
C2466 C 0.76413 0.1111 0.06635 0.0
C2467 C 0.75744 0.13562 0.10869 0.0
C2468 C 0.7655 0.15407 0.13795 0.0
C2469 C 0.74172 0.10334 0.05071 0.0
C2470 C 0.72697 0.11172 0.06433 0.0
C2471 C 0.73487 0.12745 0.09345 0.0
C2472 C 0.70433 0.10637 0.04664 0.0
C2473 C 0.73393 0.08635 0.01956 0.0
C2474 C 0.70507 0.11744 0.01409 0.0
C2475 C 0.68455 0.11635 0.0004 0.0
C2476 C 0.66276 0.10389 0.01868 0.0
C2477 C 0.66163 0.09141 0.04999 0.0
C2478 C 0.68235 0.09285 0.06409 0.0
H2479 H 0.74516 0.07801 0.01652 0.0
H2480 H 0.71511 0.07216 0.02288 0.0
H2481 H 0.73523 0.09613 0.99455 0.0
H2482 H 0.72184 0.12822 0.00044 0.0
H2483 H 0.686 0.12653 0.97661 0.0
H2484 H 0.92964 0.56171 0.0846 0.0
H2485 H 0.9248 0.59359 0.11145 0.0
H2486 H 0.88931 0.59668 0.01596 0.0
H2487 H 0.89354 0.56456 0.98965 0.0
H2488 H 0.93449 0.64028 0.09472 0.0
H2489 H 0.83774 0.57591 0.09248 0.0
H2490 H 0.85969 0.56732 0.08356 0.0
H2491 H 0.85138 0.58109 0.04913 0.0
C2492 C 0.9218 0.56997 0.06877 0.0
C2493 C 0.91214 0.5608 0.03491 0.0
C2494 C 0.91875 0.58798 0.08431 0.0
C2495 C 0.90605 0.59706 0.06614 0.0
C2496 C 0.89863 0.58958 0.03088 0.0
H2497 H 0.84933 0.68982 0.10891 0.0
H2498 H 0.86214 0.66308 0.08399 0.0
C2499 C 0.90142 0.57148 0.01559 0.0
C2500 C 0.89856 0.61257 0.08482 0.0
H2501 H 0.84926 0.61565 0.10833 0.0
C2502 C 0.91587 0.63484 0.09794 0.0
C2503 C 0.87421 0.60538 0.08943 0.0
C2504 C 0.85466 0.58103 0.07826 0.0
C2505 C 0.90948 0.65042 0.11428 0.0
C2506 C 0.88516 0.64347 0.11789 0.0
C2507 C 0.86789 0.62104 0.10537 0.0
C2508 C 0.87722 0.65946 0.13354 0.0
C2509 C 0.92878 0.67451 0.12665 0.0
C2510 C 0.8809 0.66589 0.1699 0.0
C2511 C 0.87344 0.68108 0.18418 0.0
C2512 C 0.8624 0.69028 0.16227 0.0
C2513 C 0.85817 0.6833 0.12617 0.0
C2514 C 0.86543 0.668 0.11199 0.0
H2515 H 0.94653 0.67885 0.11626 0.0
H2516 H 0.9249 0.68855 0.11795 0.0
H2517 H 0.92949 0.67477 0.15633 0.0
H2518 H 0.88956 0.65918 0.18721 0.0
H2519 H 0.87681 0.68614 0.2121 0.0
loop_
_geom_bond_atom_site_label_1
_geom_bond_atom_site_label_2
_geom_bond_distance
_geom_bond_site_symmetry_2
_ccdc_geom_bond_type
Zn0 O1 2.055 . S
Zn0 O8 2.046 . S
Zn0 N16 2.036 . S
Zn0 O28 2.053 . S
Zn0 O30 2.066 1_554 S
O1 Zn0 2.055 . S
O1 C4 1.259 . S
C2 O30 1.256 . S
C2 O31 1.244 . S
Zn3 O5 2.046 . S
Zn3 O7 2.055 . S
Zn3 N9 2.036 . S
Zn3 O27 2.066 . S
Zn3 O31 2.053 1_554 S
C4 O1 1.259 . S
C4 O5 1.254 . S
O5 Zn3 2.046 . S
O5 C4 1.254 . S
C6 O27 1.256 . S
C6 O28 1.244 . S
O7 Zn3 2.055 . S
O7 C29 1.259 . S
O8 Zn0 2.046 . S
O8 C29 1.254 . S
N9 Zn3 2.036 . S
N9 C10 1.298 . S
N9 N12 1.398 1_554 S
C10 N9 1.298 . S
C10 N13 1.367 . S
C10 C23 1.481 . S
C11 N12 1.299 . S
C11 N13 1.379 1_556 S
N12 N9 1.398 1_556 S
N12 C11 1.299 . S
N13 C10 1.367 . S
N13 C11 1.379 1_554 S
C14 N16 1.298 1_556 S
C14 N18 1.367 . S
C14 C22 1.481 . S
C15 N17 1.299 . S
C15 N18 1.379 1_554 S
N16 Zn0 2.036 . S
N16 C14 1.298 1_554 S
N16 N17 1.398 . S
N17 C15 1.299 . S
N17 N16 1.398 . S
N18 C14 1.367 . S
N18 C15 1.379 1_556 S
H19 C22 0.980 . S
H20 C22 0.981 . S
H21 C22 0.981 . S
C22 C14 1.481 . S
C22 H19 0.980 . S
C22 H20 0.981 . S
C22 H21 0.981 . S
C23 C10 1.481 . S
C23 H24 0.980 . S
C23 H25 0.981 . S
C23 H26 0.981 . S
H24 C23 0.980 . S
H25 C23 0.981 . S
H26 C23 0.981 . S
O27 Zn3 2.066 . S
O27 C6 1.256 . S
O28 Zn0 2.053 . S
O28 C6 1.244 . S
C29 O7 1.259 . S
C29 O8 1.254 . S
O30 Zn0 2.066 1_556 S
O30 C2 1.256 . S
O31 C2 1.244 . S
O31 Zn3 2.053 1_556 S
Zn32 O33 2.055 . S
Zn32 O40 2.046 . S
Zn32 N48 2.036 . S
Zn32 O60 2.053 . S
Zn32 O62 2.066 1_554 S
O33 Zn32 2.055 . S
O33 C36 1.259 . S
C34 O62 1.256 . S
C34 O63 1.244 . S
Zn35 O37 2.046 . S
Zn35 O39 2.055 . S
Zn35 N41 2.036 . S
Zn35 O59 2.066 . S
Zn35 O63 2.053 1_554 S
C36 O33 1.259 . S
C36 O37 1.254 . S
O37 Zn35 2.046 . S
O37 C36 1.254 . S
C38 O59 1.256 . S
C38 O60 1.244 . S
O39 Zn35 2.055 . S
O39 C61 1.259 . S
O40 Zn32 2.046 . S
O40 C61 1.254 . S
N41 Zn35 2.036 . S
N41 C42 1.298 . S
N41 N44 1.398 1_554 S
C42 N41 1.298 . S
C42 N45 1.367 . S
C42 C55 1.481 . S
C43 N44 1.299 . S
C43 N45 1.379 1_556 S
N44 N41 1.398 1_556 S
N44 C43 1.299 . S
N45 C42 1.367 . S
N45 C43 1.379 1_554 S
C46 N48 1.298 1_556 S
C46 N50 1.367 . S
C46 C54 1.481 . S
C47 N49 1.299 . S
C47 N50 1.379 1_554 S
N48 Zn32 2.036 . S
N48 C46 1.298 1_554 S
N48 N49 1.398 . S
N49 C47 1.299 . S
N49 N48 1.398 . S
N50 C46 1.367 . S
N50 C47 1.379 1_556 S
H51 C54 0.980 . S
H52 C54 0.981 . S
H53 C54 0.981 . S
C54 C46 1.481 . S
C54 H51 0.980 . S
C54 H52 0.981 . S
C54 H53 0.981 . S
C55 C42 1.481 . S
C55 H56 0.980 . S
C55 H57 0.981 . S
C55 H58 0.981 . S
H56 C55 0.980 . S
H57 C55 0.981 . S
H58 C55 0.981 . S
O59 Zn35 2.066 . S
O59 C38 1.256 . S
O60 Zn32 2.053 . S
O60 C38 1.244 . S
C61 O39 1.259 . S
C61 O40 1.254 . S
O62 Zn32 2.066 1_556 S
O62 C34 1.256 . S
O63 C34 1.244 . S
O63 Zn35 2.053 1_556 S
Zn64 O65 2.055 . S
Zn64 O72 2.046 . S
Zn64 N80 2.036 . S
Zn64 O92 2.053 . S
Zn64 O94 2.066 1_554 S
O65 Zn64 2.055 . S
O65 C68 1.259 . S
C66 O94 1.256 . S
C66 O95 1.244 . S
Zn67 O69 2.046 . S
Zn67 O71 2.055 . S
Zn67 N73 2.036 . S
Zn67 O91 2.066 . S
Zn67 O95 2.053 1_554 S
C68 O65 1.259 . S
C68 O69 1.254 . S
O69 Zn67 2.046 . S
O69 C68 1.254 . S
C70 O91 1.256 . S
C70 O92 1.244 . S
O71 Zn67 2.055 . S
O71 C93 1.259 . S
O72 Zn64 2.046 . S
O72 C93 1.254 . S
N73 Zn67 2.036 . S
N73 C74 1.298 . S
N73 N76 1.398 1_554 S
C74 N73 1.298 . S
C74 N77 1.367 . S
C74 C87 1.481 . S
C75 N76 1.299 . S
C75 N77 1.379 1_556 S
N76 N73 1.398 1_556 S
N76 C75 1.299 . S
N77 C74 1.367 . S
N77 C75 1.379 1_554 S
C78 N80 1.298 1_556 S
C78 N82 1.367 . S
C78 C86 1.481 . S
C79 N81 1.299 . S
C79 N82 1.379 1_554 S
N80 Zn64 2.036 . S
N80 C78 1.298 1_554 S
N80 N81 1.398 . S
N81 C79 1.299 . S
N81 N80 1.398 . S
N82 C78 1.367 . S
N82 C79 1.379 1_556 S
H83 C86 0.980 . S
H84 C86 0.981 . S
H85 C86 0.981 . S
C86 C78 1.481 . S
C86 H83 0.980 . S
C86 H84 0.981 . S
C86 H85 0.981 . S
C87 C74 1.481 . S
C87 H88 0.980 . S
C87 H89 0.981 . S
C87 H90 0.981 . S
H88 C87 0.980 . S
H89 C87 0.981 . S
H90 C87 0.981 . S
O91 Zn67 2.066 . S
O91 C70 1.256 . S
O92 Zn64 2.053 . S
O92 C70 1.244 . S
C93 O71 1.259 . S
C93 O72 1.254 . S
O94 Zn64 2.066 1_556 S
O94 C66 1.256 . S
O95 C66 1.244 . S
O95 Zn67 2.053 1_556 S
Zn96 O97 2.055 . S
Zn96 O104 2.046 . S
Zn96 N112 2.036 . S
Zn96 O124 2.053 . S
Zn96 O126 2.066 . S
O97 Zn96 2.055 . S
O97 C100 1.259 . S
C98 O126 1.256 . S
C98 O127 1.244 . S
Zn99 O101 2.046 . S
Zn99 O103 2.055 . S
Zn99 N105 2.036 . S
Zn99 O123 2.066 . S
Zn99 O127 2.053 . S
C100 O97 1.259 . S
C100 O101 1.254 . S
O101 Zn99 2.046 . S
O101 C100 1.254 . S
C102 O123 1.256 . S
C102 O124 1.244 . S
O103 Zn99 2.055 . S
O103 C125 1.259 . S
O104 Zn96 2.046 . S
O104 C125 1.254 . S
N105 Zn99 2.036 . S
N105 C106 1.298 . S
N105 N108 1.398 . S
C106 N105 1.298 . S
C106 N109 1.367 . S
C106 C119 1.481 . S
C107 N108 1.299 . S
C107 N109 1.379 . S
N108 N105 1.398 . S
N108 C107 1.299 . S
N109 C106 1.367 . S
N109 C107 1.379 . S
C110 N112 1.298 . S
C110 N114 1.367 . S
C110 C118 1.481 . S
C111 N113 1.299 . S
C111 N114 1.379 . S
N112 Zn96 2.036 . S
N112 C110 1.298 . S
N112 N113 1.398 . S
N113 C111 1.299 . S
N113 N112 1.398 . S
N114 C110 1.367 . S
N114 C111 1.379 . S
H115 C118 0.980 . S
H116 C118 0.981 . S
H117 C118 0.981 . S
C118 C110 1.481 . S
C118 H115 0.980 . S
C118 H116 0.981 . S
C118 H117 0.981 . S
C119 C106 1.481 . S
C119 H120 0.980 . S
C119 H121 0.981 . S
C119 H122 0.981 . S
H120 C119 0.980 . S
H121 C119 0.981 . S
H122 C119 0.981 . S
O123 Zn99 2.066 . S
O123 C102 1.256 . S
O124 Zn96 2.053 . S
O124 C102 1.244 . S
C125 O103 1.259 . S
C125 O104 1.254 . S
O126 Zn96 2.066 . S
O126 C98 1.256 . S
O127 C98 1.244 . S
O127 Zn99 2.053 . S
Zn128 O129 2.055 . S
Zn128 O136 2.046 . S
Zn128 N144 2.036 . S
Zn128 O156 2.053 . S
Zn128 O158 2.066 . S
O129 Zn128 2.055 . S
O129 C132 1.259 . S
C130 O158 1.256 . S
C130 O159 1.244 . S
Zn131 O133 2.046 . S
Zn131 O135 2.055 . S
Zn131 N137 2.036 . S
Zn131 O155 2.066 . S
Zn131 O159 2.053 . S
C132 O129 1.259 . S
C132 O133 1.254 . S
O133 Zn131 2.046 . S
O133 C132 1.254 . S
C134 O155 1.256 . S
C134 O156 1.244 . S
O135 Zn131 2.055 . S
O135 C157 1.259 . S
O136 Zn128 2.046 . S
O136 C157 1.254 . S
N137 Zn131 2.036 . S
N137 C138 1.298 . S
N137 N140 1.398 . S
C138 N137 1.298 . S
C138 N141 1.367 . S
C138 C151 1.481 . S
C139 N140 1.299 . S
C139 N141 1.379 . S
N140 N137 1.398 . S
N140 C139 1.299 . S
N141 C138 1.367 . S
N141 C139 1.379 . S
C142 N144 1.298 . S
C142 N146 1.367 . S
C142 C150 1.481 . S
C143 N145 1.299 . S
C143 N146 1.379 . S
N144 Zn128 2.036 . S
N144 C142 1.298 . S
N144 N145 1.398 . S
N145 C143 1.299 . S
N145 N144 1.398 . S
N146 C142 1.367 . S
N146 C143 1.379 . S
H147 C150 0.980 . S
H148 C150 0.981 . S
H149 C150 0.981 . S
C150 C142 1.481 . S
C150 H147 0.980 . S
C150 H148 0.981 . S
C150 H149 0.981 . S
C151 C138 1.481 . S
C151 H152 0.980 . S
C151 H153 0.981 . S
C151 H154 0.981 . S
H152 C151 0.980 . S
H153 C151 0.981 . S
H154 C151 0.981 . S
O155 Zn131 2.066 . S
O155 C134 1.256 . S
O156 Zn128 2.053 . S
O156 C134 1.244 . S
C157 O135 1.259 . S
C157 O136 1.254 . S
O158 Zn128 2.066 . S
O158 C130 1.256 . S
O159 C130 1.244 . S
O159 Zn131 2.053 . S
Zn160 O161 2.055 . S
Zn160 O168 2.046 . S
Zn160 N176 2.036 . S
Zn160 O188 2.053 . S
Zn160 O190 2.066 . S
O161 Zn160 2.055 . S
O161 C164 1.259 . S
C162 O190 1.256 . S
C162 O191 1.244 . S
Zn163 O165 2.046 . S
Zn163 O167 2.055 . S
Zn163 N169 2.036 . S
Zn163 O187 2.066 . S
Zn163 O191 2.053 . S
C164 O161 1.259 . S
C164 O165 1.254 . S
O165 Zn163 2.046 . S
O165 C164 1.254 . S
C166 O187 1.256 . S
C166 O188 1.244 . S
O167 Zn163 2.055 . S
O167 C189 1.259 . S
O168 Zn160 2.046 . S
O168 C189 1.254 . S
N169 Zn163 2.036 . S
N169 C170 1.298 . S
N169 N172 1.398 . S
C170 N169 1.298 . S
C170 N173 1.367 . S
C170 C183 1.481 . S
C171 N172 1.299 . S
C171 N173 1.379 . S
N172 N169 1.398 . S
N172 C171 1.299 . S
N173 C170 1.367 . S
N173 C171 1.379 . S
C174 N176 1.298 . S
C174 N178 1.367 . S
C174 C182 1.481 . S
C175 N177 1.299 . S
C175 N178 1.379 . S
N176 Zn160 2.036 . S
N176 C174 1.298 . S
N176 N177 1.398 . S
N177 C175 1.299 . S
N177 N176 1.398 . S
N178 C174 1.367 . S
N178 C175 1.379 . S
H179 C182 0.980 . S
H180 C182 0.981 . S
H181 C182 0.981 . S
C182 C174 1.481 . S
C182 H179 0.980 . S
C182 H180 0.981 . S
C182 H181 0.981 . S
C183 C170 1.481 . S
C183 H184 0.980 . S
C183 H185 0.981 . S
C183 H186 0.981 . S
H184 C183 0.980 . S
H185 C183 0.981 . S
H186 C183 0.981 . S
O187 Zn163 2.066 . S
O187 C166 1.256 . S
O188 Zn160 2.053 . S
O188 C166 1.244 . S
C189 O167 1.259 . S
C189 O168 1.254 . S
O190 Zn160 2.066 . S
O190 C162 1.256 . S
O191 C162 1.244 . S
O191 Zn163 2.053 . S
Zn192 O193 2.055 . S
Zn192 O200 2.046 . S
Zn192 N208 2.036 . S
Zn192 O220 2.053 . S
Zn192 O222 2.066 . S
O193 Zn192 2.055 . S
O193 C196 1.259 . S
C194 O222 1.256 . S
C194 O223 1.244 . S
Zn195 O197 2.046 . S
Zn195 O199 2.055 . S
Zn195 N201 2.036 . S
Zn195 O219 2.066 . S
Zn195 O223 2.053 . S
C196 O193 1.259 . S
C196 O197 1.254 . S
O197 Zn195 2.046 . S
O197 C196 1.254 . S
C198 O219 1.256 . S
C198 O220 1.244 . S
O199 Zn195 2.055 . S
O199 C221 1.259 . S
O200 Zn192 2.046 . S
O200 C221 1.254 . S
N201 Zn195 2.036 . S
N201 C202 1.298 . S
N201 N204 1.398 . S
C202 N201 1.298 . S
C202 N205 1.367 . S
C202 C215 1.481 . S
C203 N204 1.299 . S
C203 N205 1.379 . S
N204 N201 1.398 . S
N204 C203 1.299 . S
N205 C202 1.367 . S
N205 C203 1.379 . S
C206 N208 1.298 . S
C206 N210 1.367 . S
C206 C214 1.481 . S
C207 N209 1.299 . S
C207 N210 1.379 . S
N208 Zn192 2.036 . S
N208 C206 1.298 . S
N208 N209 1.398 . S
N209 C207 1.299 . S
N209 N208 1.398 . S
N210 C206 1.367 . S
N210 C207 1.379 . S
H211 C214 0.980 . S
H212 C214 0.981 . S
H213 C214 0.981 . S
C214 C206 1.481 . S
C214 H211 0.980 . S
C214 H212 0.981 . S
C214 H213 0.981 . S
C215 C202 1.481 . S
C215 H216 0.980 . S
C215 H217 0.981 . S
C215 H218 0.981 . S
H216 C215 0.980 . S
H217 C215 0.981 . S
H218 C215 0.981 . S
O219 Zn195 2.066 . S
O219 C198 1.256 . S
O220 Zn192 2.053 . S
O220 C198 1.244 . S
C221 O199 1.259 . S
C221 O200 1.254 . S
O222 Zn192 2.066 . S
O222 C194 1.256 . S
O223 C194 1.244 . S
O223 Zn195 2.053 . S
Zn224 O225 2.055 . S
Zn224 O232 2.046 . S
Zn224 N240 2.036 . S
Zn224 O252 2.053 . S
Zn224 O254 2.066 . S
O225 Zn224 2.055 . S
O225 C228 1.259 . S
C226 O254 1.256 . S
C226 O255 1.244 . S
Zn227 O229 2.046 . S
Zn227 O231 2.055 . S
Zn227 N233 2.036 . S
Zn227 O251 2.066 . S
Zn227 O255 2.053 . S
C228 O225 1.259 . S
C228 O229 1.254 . S
O229 Zn227 2.046 . S
O229 C228 1.254 . S
C230 O251 1.256 . S
C230 O252 1.244 . S
O231 Zn227 2.055 . S
O231 C253 1.259 . S
O232 Zn224 2.046 . S
O232 C253 1.254 . S
N233 Zn227 2.036 . S
N233 C234 1.298 . S
N233 N236 1.398 . S
C234 N233 1.298 . S
C234 N237 1.367 . S
C234 C247 1.481 . S
C235 N236 1.299 . S
C235 N237 1.379 . S
N236 N233 1.398 . S
N236 C235 1.299 . S
N237 C234 1.367 . S
N237 C235 1.379 . S
C238 N240 1.298 . S
C238 N242 1.367 . S
C238 C246 1.481 . S
C239 N241 1.299 . S
C239 N242 1.379 . S
N240 Zn224 2.036 . S
N240 C238 1.298 . S
N240 N241 1.398 . S
N241 C239 1.299 . S
N241 N240 1.398 . S
N242 C238 1.367 . S
N242 C239 1.379 . S
H243 C246 0.980 . S
H244 C246 0.981 . S
H245 C246 0.981 . S
C246 C238 1.481 . S
C246 H243 0.980 . S
C246 H244 0.981 . S
C246 H245 0.981 . S
C247 C234 1.481 . S
C247 H248 0.980 . S
C247 H249 0.981 . S
C247 H250 0.981 . S
H248 C247 0.980 . S
H249 C247 0.981 . S
H250 C247 0.981 . S
O251 Zn227 2.066 . S
O251 C230 1.256 . S
O252 Zn224 2.053 . S
O252 C230 1.244 . S
C253 O231 1.259 . S
C253 O232 1.254 . S
O254 Zn224 2.066 . S
O254 C226 1.256 . S
O255 C226 1.244 . S
O255 Zn227 2.053 . S
Zn256 O257 2.055 . S
Zn256 O264 2.046 . S
Zn256 N272 2.036 . S
Zn256 O284 2.053 . S
Zn256 O286 2.066 . S
O257 Zn256 2.055 . S
O257 C260 1.259 . S
C258 O286 1.256 . S
C258 O287 1.244 . S
Zn259 O261 2.046 . S
Zn259 O263 2.055 . S
Zn259 N265 2.036 . S
Zn259 O283 2.066 . S
Zn259 O287 2.053 . S
C260 O257 1.259 . S
C260 O261 1.254 . S
O261 Zn259 2.046 . S
O261 C260 1.254 . S
C262 O283 1.256 . S
C262 O284 1.244 . S
O263 Zn259 2.055 . S
O263 C285 1.259 . S
O264 Zn256 2.046 . S
O264 C285 1.254 . S
N265 Zn259 2.036 . S
N265 C266 1.298 . S
N265 N268 1.398 . S
C266 N265 1.298 . S
C266 N269 1.367 . S
C266 C279 1.481 . S
C267 N268 1.299 . S
C267 N269 1.379 . S
N268 N265 1.398 . S
N268 C267 1.299 . S
N269 C266 1.367 . S
N269 C267 1.379 . S
C270 N272 1.298 . S
C270 N274 1.367 . S
C270 C278 1.481 . S
C271 N273 1.299 . S
C271 N274 1.379 . S
N272 Zn256 2.036 . S
N272 C270 1.298 . S
N272 N273 1.398 . S
N273 C271 1.299 . S
N273 N272 1.398 . S
N274 C270 1.367 . S
N274 C271 1.379 . S
H275 C278 0.980 . S
H276 C278 0.981 . S
H277 C278 0.981 . S
C278 C270 1.481 . S
C278 H275 0.980 . S
C278 H276 0.981 . S
C278 H277 0.981 . S
C279 C266 1.481 . S
C279 H280 0.980 . S
C279 H281 0.981 . S
C279 H282 0.981 . S
H280 C279 0.980 . S
H281 C279 0.981 . S
H282 C279 0.981 . S
O283 Zn259 2.066 . S
O283 C262 1.256 . S
O284 Zn256 2.053 . S
O284 C262 1.244 . S
C285 O263 1.259 . S
C285 O264 1.254 . S
O286 Zn256 2.066 . S
O286 C258 1.256 . S
O287 C258 1.244 . S
O287 Zn259 2.053 . S
Zn288 O289 2.055 . S
Zn288 O296 2.046 . S
Zn288 N304 2.036 . S
Zn288 O316 2.053 . S
Zn288 O318 2.066 . S
O289 Zn288 2.055 . S
O289 C292 1.259 . S
C290 O318 1.256 . S
C290 O319 1.244 . S
Zn291 O293 2.046 . S
Zn291 O295 2.055 . S
Zn291 N297 2.036 . S
Zn291 O315 2.066 . S
Zn291 O319 2.053 . S
C292 O289 1.259 . S
C292 O293 1.254 . S
O293 Zn291 2.046 . S
O293 C292 1.254 . S
C294 O315 1.256 . S
C294 O316 1.244 . S
O295 Zn291 2.055 . S
O295 C317 1.259 . S
O296 Zn288 2.046 . S
O296 C317 1.254 . S
N297 Zn291 2.036 . S
N297 C298 1.298 . S
N297 N300 1.398 . S
C298 N297 1.298 . S
C298 N301 1.367 . S
C298 C311 1.481 . S
C299 N300 1.299 . S
C299 N301 1.379 . S
N300 N297 1.398 . S
N300 C299 1.299 . S
N301 C298 1.367 . S
N301 C299 1.379 . S
C302 N304 1.298 . S
C302 N306 1.367 . S
C302 C310 1.481 . S
C303 N305 1.299 . S
C303 N306 1.379 . S
N304 Zn288 2.036 . S
N304 C302 1.298 . S
N304 N305 1.398 . S
N305 C303 1.299 . S
N305 N304 1.398 . S
N306 C302 1.367 . S
N306 C303 1.379 . S
H307 C310 0.980 . S
H308 C310 0.981 . S
H309 C310 0.981 . S
C310 C302 1.481 . S
C310 H307 0.980 . S
C310 H308 0.981 . S
C310 H309 0.981 . S
C311 C298 1.481 . S
C311 H312 0.980 . S
C311 H313 0.981 . S
C311 H314 0.981 . S
H312 C311 0.980 . S
H313 C311 0.981 . S
H314 C311 0.981 . S
O315 Zn291 2.066 . S
O315 C294 1.256 . S
O316 Zn288 2.053 . S
O316 C294 1.244 . S
C317 O295 1.259 . S
C317 O296 1.254 . S
O318 Zn288 2.066 . S
O318 C290 1.256 . S
O319 C290 1.244 . S
O319 Zn291 2.053 . S
Zn320 O321 2.055 . S
Zn320 O328 2.046 . S
Zn320 N336 2.036 . S
Zn320 O348 2.053 . S
Zn320 O350 2.066 . S
O321 Zn320 2.055 . S
O321 C324 1.259 . S
C322 O350 1.256 . S
C322 O351 1.244 . S
Zn323 O325 2.046 . S
Zn323 O327 2.055 . S
Zn323 N329 2.036 . S
Zn323 O347 2.066 . S
Zn323 O351 2.053 . S
C324 O321 1.259 . S
C324 O325 1.254 . S
O325 Zn323 2.046 . S
O325 C324 1.254 . S
C326 O347 1.256 . S
C326 O348 1.244 . S
O327 Zn323 2.055 . S
O327 C349 1.259 . S
O328 Zn320 2.046 . S
O328 C349 1.254 . S
N329 Zn323 2.036 . S
N329 C330 1.298 . S
N329 N332 1.398 . S
C330 N329 1.298 . S
C330 N333 1.367 . S
C330 C343 1.481 . S
C331 N332 1.299 . S
C331 N333 1.379 . S
N332 N329 1.398 . S
N332 C331 1.299 . S
N333 C330 1.367 . S
N333 C331 1.379 . S
C334 N336 1.298 . S
C334 N338 1.367 . S
C334 C342 1.481 . S
C335 N337 1.299 . S
C335 N338 1.379 . S
N336 Zn320 2.036 . S
N336 C334 1.298 . S
N336 N337 1.398 . S
N337 C335 1.299 . S
N337 N336 1.398 . S
N338 C334 1.367 . S
N338 C335 1.379 . S
H339 C342 0.980 . S
H340 C342 0.981 . S
H341 C342 0.981 . S
C342 C334 1.481 . S
C342 H339 0.980 . S
C342 H340 0.981 . S
C342 H341 0.981 . S
C343 C330 1.481 . S
C343 H344 0.980 . S
C343 H345 0.981 . S
C343 H346 0.981 . S
H344 C343 0.980 . S
H345 C343 0.981 . S
H346 C343 0.981 . S
O347 Zn323 2.066 . S
O347 C326 1.256 . S
O348 Zn320 2.053 . S
O348 C326 1.244 . S
C349 O327 1.259 . S
C349 O328 1.254 . S
O350 Zn320 2.066 . S
O350 C322 1.256 . S
O351 C322 1.244 . S
O351 Zn323 2.053 . S
Zn352 O353 2.055 . S
Zn352 O360 2.046 . S
Zn352 N368 2.036 . S
Zn352 O380 2.053 . S
Zn352 O382 2.066 . S
O353 Zn352 2.055 . S
O353 C356 1.259 . S
C354 O382 1.256 . S
C354 O383 1.244 . S
Zn355 O357 2.046 . S
Zn355 O359 2.055 . S
Zn355 N361 2.036 . S
Zn355 O379 2.066 . S
Zn355 O383 2.053 . S
C356 O353 1.259 . S
C356 O357 1.254 . S
O357 Zn355 2.046 . S
O357 C356 1.254 . S
C358 O379 1.256 . S
C358 O380 1.244 . S
O359 Zn355 2.055 . S
O359 C381 1.259 . S
O360 Zn352 2.046 . S
O360 C381 1.254 . S
N361 Zn355 2.036 . S
N361 C362 1.298 . S
N361 N364 1.398 . S
C362 N361 1.298 . S
C362 N365 1.367 . S
C362 C375 1.481 . S
C363 N364 1.299 . S
C363 N365 1.379 . S
N364 N361 1.398 . S
N364 C363 1.299 . S
N365 C362 1.367 . S
N365 C363 1.379 . S
C366 N368 1.298 . S
C366 N370 1.367 . S
C366 C374 1.481 . S
C367 N369 1.299 . S
C367 N370 1.379 . S
N368 Zn352 2.036 . S
N368 C366 1.298 . S
N368 N369 1.398 . S
N369 C367 1.299 . S
N369 N368 1.398 . S
N370 C366 1.367 . S
N370 C367 1.379 . S
H371 C374 0.980 . S
H372 C374 0.981 . S
H373 C374 0.981 . S
C374 C366 1.481 . S
C374 H371 0.980 . S
C374 H372 0.981 . S
C374 H373 0.981 . S
C375 C362 1.481 . S
C375 H376 0.980 . S
C375 H377 0.981 . S
C375 H378 0.981 . S
H376 C375 0.980 . S
H377 C375 0.981 . S
H378 C375 0.981 . S
O379 Zn355 2.066 . S
O379 C358 1.256 . S
O380 Zn352 2.053 . S
O380 C358 1.244 . S
C381 O359 1.259 . S
C381 O360 1.254 . S
O382 Zn352 2.066 . S
O382 C354 1.256 . S
O383 C354 1.244 . S
O383 Zn355 2.053 . S
Zn384 O385 2.055 . S
Zn384 O392 2.046 . S
Zn384 N400 2.036 . S
Zn384 O412 2.053 . S
Zn384 O414 2.066 . S
O385 Zn384 2.055 . S
O385 C388 1.259 . S
C386 O414 1.256 . S
C386 O415 1.244 . S
Zn387 O389 2.046 . S
Zn387 O391 2.055 . S
Zn387 N393 2.036 . S
Zn387 O411 2.066 . S
Zn387 O415 2.053 . S
C388 O385 1.259 . S
C388 O389 1.254 . S
O389 Zn387 2.046 . S
O389 C388 1.254 . S
C390 O411 1.256 . S
C390 O412 1.244 . S
O391 Zn387 2.055 . S
O391 C413 1.259 . S
O392 Zn384 2.046 . S
O392 C413 1.254 . S
N393 Zn387 2.036 . S
N393 C394 1.298 . S
N393 N396 1.398 . S
C394 N393 1.298 . S
C394 N397 1.367 1_655 S
C394 C407 1.481 . S
C395 N396 1.299 1_455 S
C395 N397 1.379 . S
N396 N393 1.398 . S
N396 C395 1.299 1_655 S
N397 C394 1.367 1_455 S
N397 C395 1.379 . S
C398 N400 1.298 . S
C398 N402 1.367 . S
C398 C406 1.481 . S
C399 N401 1.299 . S
C399 N402 1.379 . S
N400 Zn384 2.036 . S
N400 C398 1.298 . S
N400 N401 1.398 . S
N401 C399 1.299 . S
N401 N400 1.398 . S
N402 C398 1.367 . S
N402 C399 1.379 . S
H403 C406 0.980 . S
H404 C406 0.981 . S
H405 C406 0.981 . S
C406 C398 1.481 . S
C406 H403 0.980 . S
C406 H404 0.981 . S
C406 H405 0.981 . S
C407 C394 1.481 . S
C407 H408 0.980 . S
C407 H409 0.981 1_655 S
C407 H410 0.981 1_655 S
H408 C407 0.980 . S
H409 C407 0.981 1_455 S
H410 C407 0.981 1_455 S
O411 Zn387 2.066 . S
O411 C390 1.256 . S
O412 Zn384 2.053 . S
O412 C390 1.244 . S
C413 O391 1.259 . S
C413 O392 1.254 . S
O414 Zn384 2.066 . S
O414 C386 1.256 . S
O415 C386 1.244 . S
O415 Zn387 2.053 . S
Zn416 O417 2.055 . S
Zn416 O424 2.046 . S
Zn416 N432 2.036 . S
Zn416 O444 2.053 . S
Zn416 O446 2.066 . S
O417 Zn416 2.055 . S
O417 C420 1.259 . S
C418 O446 1.256 . S
C418 O447 1.244 . S
Zn419 O421 2.046 . S
Zn419 O423 2.055 . S
Zn419 N425 2.036 . S
Zn419 O443 2.066 . S
Zn419 O447 2.053 . S
C420 O417 1.259 . S
C420 O421 1.254 . S
O421 Zn419 2.046 . S
O421 C420 1.254 . S
C422 O443 1.256 . S
C422 O444 1.244 . S
O423 Zn419 2.055 . S
O423 C445 1.259 . S
O424 Zn416 2.046 . S
O424 C445 1.254 . S
N425 Zn419 2.036 . S
N425 C426 1.298 . S
N425 N428 1.398 . S
C426 N425 1.298 . S
C426 N429 1.367 . S
C426 C439 1.481 . S
C427 N428 1.299 . S
C427 N429 1.379 . S
N428 N425 1.398 . S
N428 C427 1.299 . S
N429 C426 1.367 . S
N429 C427 1.379 . S
C430 N432 1.298 . S
C430 N434 1.367 . S
C430 C438 1.481 . S
C431 N433 1.299 . S
C431 N434 1.379 . S
N432 Zn416 2.036 . S
N432 C430 1.298 . S
N432 N433 1.398 . S
N433 C431 1.299 . S
N433 N432 1.398 . S
N434 C430 1.367 . S
N434 C431 1.379 . S
H435 C438 0.980 . S
H436 C438 0.981 . S
H437 C438 0.981 . S
C438 C430 1.481 . S
C438 H435 0.980 . S
C438 H436 0.981 . S
C438 H437 0.981 . S
C439 C426 1.481 . S
C439 H440 0.980 . S
C439 H441 0.981 . S
C439 H442 0.981 . S
H440 C439 0.980 . S
H441 C439 0.981 . S
H442 C439 0.981 . S
O443 Zn419 2.066 . S
O443 C422 1.256 . S
O444 Zn416 2.053 . S
O444 C422 1.244 . S
C445 O423 1.259 . S
C445 O424 1.254 . S
O446 Zn416 2.066 . S
O446 C418 1.256 . S
O447 C418 1.244 . S
O447 Zn419 2.053 . S
Zn448 O449 2.055 . S
Zn448 O456 2.046 . S
Zn448 N464 2.036 . S
Zn448 O476 2.053 . S
Zn448 O478 2.066 . S
O449 Zn448 2.055 . S
O449 C452 1.259 . S
C450 O478 1.256 . S
C450 O479 1.244 . S
Zn451 O453 2.046 . S
Zn451 O455 2.055 . S
Zn451 N457 2.036 . S
Zn451 O475 2.066 . S
Zn451 O479 2.053 . S
C452 O449 1.259 . S
C452 O453 1.254 . S
O453 Zn451 2.046 . S
O453 C452 1.254 . S
C454 O475 1.256 . S
C454 O476 1.244 . S
O455 Zn451 2.055 . S
O455 C477 1.259 . S
O456 Zn448 2.046 . S
O456 C477 1.254 . S
N457 Zn451 2.036 . S
N457 C458 1.298 . S
N457 N460 1.398 . S
C458 N457 1.298 . S
C458 N461 1.367 1_545 S
C458 C471 1.481 . S
C459 N460 1.299 1_565 S
C459 N461 1.379 . S
N460 N457 1.398 . S
N460 C459 1.299 1_545 S
N461 C458 1.367 1_565 S
N461 C459 1.379 . S
C462 N464 1.298 . S
C462 N466 1.367 . S
C462 C470 1.481 . S
C463 N465 1.299 . S
C463 N466 1.379 . S
N464 Zn448 2.036 . S
N464 C462 1.298 . S
N464 N465 1.398 . S
N465 C463 1.299 . S
N465 N464 1.398 . S
N466 C462 1.367 . S
N466 C463 1.379 . S
H467 C470 0.980 . S
H468 C470 0.981 . S
H469 C470 0.981 . S
C470 C462 1.481 . S
C470 H467 0.980 . S
C470 H468 0.981 . S
C470 H469 0.981 . S
C471 C458 1.481 . S
C471 H472 0.980 . S
C471 H473 0.981 1_545 S
C471 H474 0.981 1_545 S
H472 C471 0.980 . S
H473 C471 0.981 1_565 S
H474 C471 0.981 1_565 S
O475 Zn451 2.066 . S
O475 C454 1.256 . S
O476 Zn448 2.053 . S
O476 C454 1.244 . S
C477 O455 1.259 . S
C477 O456 1.254 . S
O478 Zn448 2.066 . S
O478 C450 1.256 . S
O479 C450 1.244 . S
O479 Zn451 2.053 . S
Zn480 O481 2.055 . S
Zn480 O488 2.046 . S
Zn480 N496 2.036 . S
Zn480 O508 2.053 . S
Zn480 O510 2.066 . S
O481 Zn480 2.055 . S
O481 C484 1.259 . S
C482 O510 1.256 . S
C482 O511 1.244 . S
Zn483 O485 2.046 . S
Zn483 O487 2.055 . S
Zn483 N489 2.036 . S
Zn483 O507 2.066 . S
Zn483 O511 2.053 . S
C484 O481 1.259 . S
C484 O485 1.254 . S
O485 Zn483 2.046 . S
O485 C484 1.254 . S
C486 O507 1.256 . S
C486 O508 1.244 . S
O487 Zn483 2.055 . S
O487 C509 1.259 . S
O488 Zn480 2.046 . S
O488 C509 1.254 . S
N489 Zn483 2.036 . S
N489 C490 1.298 . S
N489 N492 1.398 . S
C490 N489 1.298 . S
C490 N493 1.367 . S
C490 C503 1.481 . S
C491 N492 1.299 . S
C491 N493 1.379 . S
N492 N489 1.398 . S
N492 C491 1.299 . S
N493 C490 1.367 . S
N493 C491 1.379 . S
C494 N496 1.298 . S
C494 N498 1.367 1_545 S
C494 C502 1.481 . S
C495 N497 1.299 1_565 S
C495 N498 1.379 . S
N496 Zn480 2.036 . S
N496 C494 1.298 . S
N496 N497 1.398 . S
N497 C495 1.299 1_545 S
N497 N496 1.398 . S
N498 C494 1.367 1_565 S
N498 C495 1.379 . S
H499 C502 0.980 . S
H500 C502 0.981 1_565 S
H501 C502 0.981 1_565 S
C502 C494 1.481 . S
C502 H499 0.980 . S
C502 H500 0.981 1_545 S
C502 H501 0.981 1_545 S
C503 C490 1.481 . S
C503 H504 0.980 . S
C503 H505 0.981 . S
C503 H506 0.981 . S
H504 C503 0.980 . S
H505 C503 0.981 . S
H506 C503 0.981 . S
O507 Zn483 2.066 . S
O507 C486 1.256 . S
O508 Zn480 2.053 . S
O508 C486 1.244 . S
C509 O487 1.259 . S
C509 O488 1.254 . S
O510 Zn480 2.066 . S
O510 C482 1.256 . S
O511 C482 1.244 . S
O511 Zn483 2.053 . S
Zn512 O513 2.055 . S
Zn512 O520 2.046 . S
Zn512 N528 2.036 . S
Zn512 O540 2.053 . S
Zn512 O542 2.066 . S
O513 Zn512 2.055 . S
O513 C516 1.259 . S
C514 O542 1.256 . S
C514 O543 1.244 . S
Zn515 O517 2.046 . S
Zn515 O519 2.055 . S
Zn515 N521 2.036 . S
Zn515 O539 2.066 . S
Zn515 O543 2.053 . S
C516 O513 1.259 . S
C516 O517 1.254 . S
O517 Zn515 2.046 . S
O517 C516 1.254 . S
C518 O539 1.256 . S
C518 O540 1.244 . S
O519 Zn515 2.055 . S
O519 C541 1.259 . S
O520 Zn512 2.046 . S
O520 C541 1.254 . S
N521 Zn515 2.036 . S
N521 C522 1.298 . S
N521 N524 1.398 . S
C522 N521 1.298 . S
C522 N525 1.367 1_655 S
C522 C535 1.481 . S
C523 N524 1.299 1_455 S
C523 N525 1.379 . S
N524 N521 1.398 . S
N524 C523 1.299 1_655 S
N525 C522 1.367 1_455 S
N525 C523 1.379 . S
C526 N528 1.298 . S
C526 N530 1.367 . S
C526 C534 1.481 . S
C527 N529 1.299 . S
C527 N530 1.379 . S
N528 Zn512 2.036 . S
N528 C526 1.298 . S
N528 N529 1.398 . S
N529 C527 1.299 . S
N529 N528 1.398 . S
N530 C526 1.367 . S
N530 C527 1.379 . S
H531 C534 0.980 . S
H532 C534 0.981 . S
H533 C534 0.981 . S
C534 C526 1.481 . S
C534 H531 0.980 . S
C534 H532 0.981 . S
C534 H533 0.981 . S
C535 C522 1.481 . S
C535 H536 0.980 . S
C535 H537 0.981 1_655 S
C535 H538 0.981 1_655 S
H536 C535 0.980 . S
H537 C535 0.981 1_455 S
H538 C535 0.981 1_455 S
O539 Zn515 2.066 . S
O539 C518 1.256 . S
O540 Zn512 2.053 . S
O540 C518 1.244 . S
C541 O519 1.259 . S
C541 O520 1.254 . S
O542 Zn512 2.066 . S
O542 C514 1.256 . S
O543 C514 1.244 . S
O543 Zn515 2.053 . S
Zn544 O545 2.055 . S
Zn544 O552 2.046 . S
Zn544 N560 2.036 . S
Zn544 O572 2.053 . S
Zn544 O574 2.066 . S
O545 Zn544 2.055 . S
O545 C548 1.259 . S
C546 O574 1.256 . S
C546 O575 1.244 . S
Zn547 O549 2.046 . S
Zn547 O551 2.055 . S
Zn547 N553 2.036 . S
Zn547 O571 2.066 . S
Zn547 O575 2.053 . S
C548 O545 1.259 . S
C548 O549 1.254 . S
O549 Zn547 2.046 . S
O549 C548 1.254 . S
C550 O571 1.256 . S
C550 O572 1.244 . S
O551 Zn547 2.055 . S
O551 C573 1.259 . S
O552 Zn544 2.046 . S
O552 C573 1.254 . S
N553 Zn547 2.036 . S
N553 C554 1.298 . S
N553 N556 1.398 . S
C554 N553 1.298 . S
C554 N557 1.367 . S
C554 C567 1.481 . S
C555 N556 1.299 . S
C555 N557 1.379 . S
N556 N553 1.398 . S
N556 C555 1.299 . S
N557 C554 1.367 . S
N557 C555 1.379 . S
C558 N560 1.298 . S
C558 N562 1.367 . S
C558 C566 1.481 . S
C559 N561 1.299 . S
C559 N562 1.379 . S
N560 Zn544 2.036 . S
N560 C558 1.298 . S
N560 N561 1.398 . S
N561 C559 1.299 . S
N561 N560 1.398 . S
N562 C558 1.367 . S
N562 C559 1.379 . S
H563 C566 0.980 . S
H564 C566 0.981 . S
H565 C566 0.981 . S
C566 C558 1.481 . S
C566 H563 0.980 . S
C566 H564 0.981 . S
C566 H565 0.981 . S
C567 C554 1.481 . S
C567 H568 0.980 . S
C567 H569 0.981 . S
C567 H570 0.981 . S
H568 C567 0.980 . S
H569 C567 0.981 . S
H570 C567 0.981 . S
O571 Zn547 2.066 . S
O571 C550 1.256 . S
O572 Zn544 2.053 . S
O572 C550 1.244 . S
C573 O551 1.259 . S
C573 O552 1.254 . S
O574 Zn544 2.066 . S
O574 C546 1.256 . S
O575 C546 1.244 . S
O575 Zn547 2.053 . S
H576 C584 0.929 . S
H577 C586 0.930 . S
H578 C588 0.930 . S
H579 C591 0.929 . S
H580 C594 0.930 . S
H581 C596 0.960 . S
H582 C596 0.960 . S
H583 C596 0.960 1_556 S
C584 H576 0.929 . S
C584 C585 1.377 1_554 S
C584 C586 1.384 . S
C585 C584 1.377 1_556 S
C585 C591 1.390 . S
C586 H577 0.930 . S
C586 C584 1.384 . S
C586 C587 1.372 . S
C587 C586 1.372 . S
C587 C588 1.400 1_554 S
C587 C592 1.490 . S
C588 H578 0.930 . S
C588 C587 1.400 1_556 S
C588 C591 1.386 . S
H589 C605 0.930 . S
H590 C606 0.931 . S
C591 H579 0.929 . S
C591 C585 1.390 . S
C591 C588 1.386 . S
C592 C587 1.490 . S
C592 C594 1.395 . S
C592 C595 1.403 . S
H593 C599 0.930 . S
C594 H580 0.930 . S
C594 C592 1.395 . S
C594 C597 1.403 . S
C595 C592 1.403 . S
C595 C596 1.524 . S
C595 C599 1.400 . S
C596 H581 0.960 . S
C596 H582 0.960 . S
C596 H583 0.960 1_554 S
C596 C595 1.524 . S
C597 C594 1.403 . S
C597 C598 1.392 . S
C597 C601 1.495 . S
C598 C597 1.392 . S
C598 C599 1.385 . S
C598 C600 1.478 . S
C599 H593 0.930 . S
C599 C595 1.400 . S
C599 C598 1.385 . S
C600 C598 1.478 . S
C600 C602 1.381 . S
C600 C606 1.383 1_554 S
C601 C597 1.495 . S
C601 H607 0.959 . S
C601 H608 0.961 1_554 S
C601 H609 0.960 . S
C602 C600 1.381 . S
C602 C603 1.394 . S
C602 H610 0.930 . S
C603 C602 1.394 . S
C603 C604 1.383 . S
C603 H611 0.929 . S
C604 C603 1.383 . S
C604 C605 1.377 1_554 S
C605 H589 0.930 . S
C605 C604 1.377 1_556 S
C605 C606 1.379 . S
C606 H590 0.931 . S
C606 C600 1.383 1_556 S
C606 C605 1.379 . S
H607 C601 0.959 . S
H608 C601 0.961 1_556 S
H609 C601 0.960 . S
H610 C602 0.930 . S
H611 C603 0.929 . S
H612 C620 0.929 . S
H613 C622 0.930 . S
H614 C624 0.930 . S
H615 C627 0.929 . S
H616 C630 0.930 . S
H617 C632 0.960 . S
H618 C632 0.960 . S
H619 C632 0.960 . S
C620 H612 0.929 . S
C620 C621 1.377 . S
C620 C622 1.384 . S
C621 C620 1.377 . S
C621 C627 1.390 1_554 S
C622 H613 0.930 . S
C622 C620 1.384 . S
C622 C623 1.372 . S
C623 C622 1.372 . S
C623 C624 1.400 1_554 S
C623 C628 1.490 . S
C624 H614 0.930 . S
C624 C623 1.400 1_556 S
C624 C627 1.386 . S
H625 C641 0.930 . S
H626 C642 0.931 . S
C627 H615 0.929 . S
C627 C621 1.390 1_556 S
C627 C624 1.386 . S
C628 C623 1.490 . S
C628 C630 1.395 . S
C628 C631 1.403 1_554 S
H629 C635 0.930 . S
C630 H616 0.930 . S
C630 C628 1.395 . S
C630 C633 1.403 . S
C631 C628 1.403 1_556 S
C631 C632 1.524 . S
C631 C635 1.400 . S
C632 H617 0.960 . S
C632 H618 0.960 . S
C632 H619 0.960 . S
C632 C631 1.524 . S
C633 C630 1.403 . S
C633 C634 1.392 . S
C633 C637 1.495 . S
C634 C633 1.392 . S
C634 C635 1.385 1_554 S
C634 C636 1.478 . S
C635 H629 0.930 . S
C635 C631 1.400 . S
C635 C634 1.385 1_556 S
C636 C634 1.478 . S
C636 C638 1.381 . S
C636 C642 1.383 1_554 S
C637 C633 1.495 . S
C637 H643 0.959 . S
C637 H644 0.961 . S
C637 H645 0.960 . S
C638 C636 1.381 . S
C638 C639 1.394 . S
C638 H646 0.930 . S
C639 C638 1.394 . S
C639 C640 1.383 1_554 S
C639 H647 0.929 . S
C640 C639 1.383 1_556 S
C640 C641 1.377 . S
C641 H625 0.930 . S
C641 C640 1.377 . S
C641 C642 1.379 . S
C642 H626 0.931 . S
C642 C636 1.383 1_556 S
C642 C641 1.379 . S
H643 C637 0.959 . S
H644 C637 0.961 . S
H645 C637 0.960 . S
H646 C638 0.930 . S
H647 C639 0.929 . S
H648 C656 0.929 . S
H649 C658 0.930 . S
H650 C660 0.930 . S
H651 C663 0.929 . S
H652 C666 0.930 1_556 S
H653 C668 0.960 . S
H654 C668 0.960 1_556 S
H655 C668 0.960 . S
C656 H648 0.929 . S
C656 C657 1.377 . S
C656 C658 1.384 . S
C657 C656 1.377 . S
C657 C663 1.390 1_556 S
C658 H649 0.930 . S
C658 C656 1.384 . S
C658 C659 1.396 . S
C659 C658 1.396 . S
C659 C660 1.378 1_556 S
C659 C664 1.488 1_556 S
C660 H650 0.930 . S
C660 C659 1.378 1_554 S
C660 C663 1.386 . S
H661 C677 0.930 . S
H662 C678 0.931 . S
C663 H651 0.929 . S
C663 C657 1.390 1_554 S
C663 C660 1.386 . S
C664 C659 1.488 1_554 S
C664 C666 1.395 . S
C664 C667 1.403 . S
H665 C671 0.930 . S
C666 H652 0.930 1_554 S
C666 C664 1.395 . S
C666 C669 1.403 . S
C667 C664 1.403 . S
C667 C668 1.524 . S
C667 C671 1.400 . S
C668 H653 0.960 . S
C668 H654 0.960 1_554 S
C668 H655 0.960 . S
C668 C667 1.524 . S
C669 C666 1.403 . S
C669 C670 1.392 . S
C669 C673 1.495 . S
C670 C669 1.392 . S
C670 C671 1.385 . S
C670 C672 1.478 . S
C671 H665 0.930 . S
C671 C667 1.400 . S
C671 C670 1.385 . S
C672 C670 1.478 . S
C672 C674 1.381 1_554 S
C672 C678 1.383 . S
C673 C669 1.495 . S
C673 H679 0.960 . S
C673 H680 0.961 . S
C673 H681 0.960 1_554 S
C674 C672 1.381 1_556 S
C674 C675 1.394 . S
C674 H682 0.930 . S
C675 C674 1.394 . S
C675 C676 1.383 1_556 S
C675 H683 0.929 . S
C676 C675 1.383 1_554 S
C676 C677 1.377 . S
C677 H661 0.930 . S
C677 C676 1.377 . S
C677 C678 1.379 . S
C678 H662 0.931 . S
C678 C672 1.383 . S
C678 C677 1.379 . S
H679 C673 0.960 . S
H680 C673 0.961 . S
H681 C673 0.960 1_556 S
H682 C674 0.930 . S
H683 C675 0.929 . S
H684 C692 0.929 . S
H685 C694 0.930 . S
H686 C696 0.930 . S
H687 C699 0.929 . S
H688 C702 0.930 . S
H689 C704 0.960 . S
H690 C704 0.960 . S
H691 C704 0.960 . S
C692 H684 0.929 . S
C692 C693 1.377 . S
C692 C694 1.384 . S
C693 C692 1.377 . S
C693 C699 1.390 . S
C694 H685 0.930 . S
C694 C692 1.384 . S
C694 C695 1.372 . S
C695 C694 1.372 . S
C695 C696 1.400 . S
C695 C700 1.490 . S
C696 H686 0.930 . S
C696 C695 1.400 . S
C696 C699 1.386 . S
H697 C713 0.930 . S
H698 C714 0.931 . S
C699 H687 0.929 . S
C699 C693 1.390 . S
C699 C696 1.386 . S
C700 C695 1.490 . S
C700 C702 1.395 . S
C700 C703 1.403 . S
H701 C707 0.930 . S
C702 H688 0.930 . S
C702 C700 1.395 . S
C702 C705 1.403 . S
C703 C700 1.403 . S
C703 C704 1.524 . S
C703 C707 1.400 . S
C704 H689 0.960 . S
C704 H690 0.960 . S
C704 H691 0.960 . S
C704 C703 1.524 . S
C705 C702 1.403 . S
C705 C706 1.392 . S
C705 C709 1.495 . S
C706 C705 1.392 . S
C706 C707 1.385 . S
C706 C708 1.478 . S
C707 H701 0.930 . S
C707 C703 1.400 . S
C707 C706 1.385 . S
C708 C706 1.478 . S
C708 C710 1.381 . S
C708 C714 1.383 . S
C709 C705 1.495 . S
C709 H715 0.959 . S
C709 H716 0.961 . S
C709 H717 0.960 . S
C710 C708 1.381 . S
C710 C711 1.394 . S
C710 H718 0.930 . S
C711 C710 1.394 . S
C711 C712 1.383 . S
C711 H719 0.929 . S
C712 C711 1.383 . S
C712 C713 1.377 . S
C713 H697 0.930 . S
C713 C712 1.377 . S
C713 C714 1.379 . S
C714 H698 0.931 . S
C714 C708 1.383 . S
C714 C713 1.379 . S
H715 C709 0.959 . S
H716 C709 0.961 . S
H717 C709 0.960 . S
H718 C710 0.930 . S
H719 C711 0.929 . S
H720 C728 0.929 . S
H721 C730 0.930 . S
H722 C732 0.930 . S
H723 C735 0.929 . S
H724 C738 0.930 . S
H725 C740 0.960 . S
H726 C740 0.960 . S
H727 C740 0.960 . S
C728 H720 0.929 . S
C728 C729 1.377 . S
C728 C730 1.384 . S
C729 C728 1.377 . S
C729 C735 1.390 . S
C730 H721 0.930 . S
C730 C728 1.384 . S
C730 C731 1.372 . S
C731 C730 1.372 . S
C731 C732 1.400 . S
C731 C736 1.490 . S
C732 H722 0.930 . S
C732 C731 1.400 . S
C732 C735 1.386 . S
H733 C749 0.930 . S
H734 C750 0.931 . S
C735 H723 0.929 . S
C735 C729 1.390 . S
C735 C732 1.386 . S
C736 C731 1.490 . S
C736 C738 1.395 . S
C736 C739 1.403 . S
H737 C743 0.930 . S
C738 H724 0.930 . S
C738 C736 1.395 . S
C738 C741 1.403 . S
C739 C736 1.403 . S
C739 C740 1.524 . S
C739 C743 1.400 . S
C740 H725 0.960 . S
C740 H726 0.960 . S
C740 H727 0.960 . S
C740 C739 1.524 . S
C741 C738 1.403 . S
C741 C742 1.392 . S
C741 C745 1.495 . S
C742 C741 1.392 . S
C742 C743 1.385 . S
C742 C744 1.478 . S
C743 H737 0.930 . S
C743 C739 1.400 . S
C743 C742 1.385 . S
C744 C742 1.478 . S
C744 C746 1.381 . S
C744 C750 1.383 . S
C745 C741 1.495 . S
C745 H751 0.959 . S
C745 H752 0.961 . S
C745 H753 0.960 . S
C746 C744 1.381 . S
C746 C747 1.394 . S
C746 H754 0.930 . S
C747 C746 1.394 . S
C747 C748 1.383 . S
C747 H755 0.929 . S
C748 C747 1.383 . S
C748 C749 1.377 . S
C749 H733 0.930 . S
C749 C748 1.377 . S
C749 C750 1.379 . S
C750 H734 0.931 . S
C750 C744 1.383 . S
C750 C749 1.379 . S
H751 C745 0.959 . S
H752 C745 0.961 . S
H753 C745 0.960 . S
H754 C746 0.930 . S
H755 C747 0.929 . S
H756 C764 0.929 . S
H757 C766 0.930 . S
H758 C768 0.930 . S
H759 C771 0.929 . S
H760 C774 0.930 . S
H761 C776 0.960 . S
H762 C776 0.960 . S
H763 C776 0.960 . S
C764 H756 0.929 . S
C764 C765 1.377 . S
C764 C766 1.384 . S
C765 C764 1.377 . S
C765 C771 1.390 . S
C766 H757 0.930 . S
C766 C764 1.384 . S
C766 C767 1.372 . S
C767 C766 1.372 . S
C767 C768 1.400 . S
C767 C772 1.490 . S
C768 H758 0.930 . S
C768 C767 1.400 . S
C768 C771 1.386 . S
H769 C785 0.930 . S
H770 C786 0.931 . S
C771 H759 0.929 . S
C771 C765 1.390 . S
C771 C768 1.386 . S
C772 C767 1.490 . S
C772 C774 1.395 . S
C772 C775 1.403 . S
H773 C779 0.930 . S
C774 H760 0.930 . S
C774 C772 1.395 . S
C774 C777 1.403 . S
C775 C772 1.403 . S
C775 C776 1.524 . S
C775 C779 1.400 . S
C776 H761 0.960 . S
C776 H762 0.960 . S
C776 H763 0.960 . S
C776 C775 1.524 . S
C777 C774 1.403 . S
C777 C778 1.392 . S
C777 C781 1.495 . S
C778 C777 1.392 . S
C778 C779 1.385 . S
C778 C780 1.478 . S
C779 H773 0.930 . S
C779 C775 1.400 . S
C779 C778 1.385 . S
C780 C778 1.478 . S
C780 C782 1.381 . S
C780 C786 1.383 . S
C781 C777 1.495 . S
C781 H787 0.959 . S
C781 H788 0.961 . S
C781 H789 0.960 . S
C782 C780 1.381 . S
C782 C783 1.394 . S
C782 H790 0.930 . S
C783 C782 1.394 . S
C783 C784 1.383 . S
C783 H791 0.929 . S
C784 C783 1.383 . S
C784 C785 1.377 . S
C785 H769 0.930 . S
C785 C784 1.377 . S
C785 C786 1.379 . S
C786 H770 0.931 . S
C786 C780 1.383 . S
C786 C785 1.379 . S
H787 C781 0.959 . S
H788 C781 0.961 . S
H789 C781 0.960 . S
H790 C782 0.930 . S
H791 C783 0.929 . S
H792 C800 0.929 . S
H793 C802 0.930 . S
H794 C804 0.930 . S
H795 C807 0.929 . S
H796 C810 0.930 . S
H797 C812 0.960 . S
H798 C812 0.960 . S
H799 C812 0.960 . S
C800 H792 0.929 . S
C800 C801 1.377 . S
C800 C802 1.384 . S
C801 C800 1.377 . S
C801 C807 1.390 . S
C802 H793 0.930 . S
C802 C800 1.384 . S
C802 C803 1.372 . S
C803 C802 1.372 . S
C803 C804 1.400 . S
C803 C808 1.490 . S
C804 H794 0.930 . S
C804 C803 1.400 . S
C804 C807 1.386 . S
H805 C821 0.930 . S
H806 C822 0.931 . S
C807 H795 0.929 . S
C807 C801 1.390 . S
C807 C804 1.386 . S
C808 C803 1.490 . S
C808 C810 1.395 . S
C808 C811 1.403 . S
H809 C815 0.930 . S
C810 H796 0.930 . S
C810 C808 1.395 . S
C810 C813 1.403 . S
C811 C808 1.403 . S
C811 C812 1.524 . S
C811 C815 1.400 . S
C812 H797 0.960 . S
C812 H798 0.960 . S
C812 H799 0.960 . S
C812 C811 1.524 . S
C813 C810 1.403 . S
C813 C814 1.392 . S
C813 C817 1.495 . S
C814 C813 1.392 . S
C814 C815 1.385 . S
C814 C816 1.478 . S
C815 H809 0.930 . S
C815 C811 1.400 . S
C815 C814 1.385 . S
C816 C814 1.478 . S
C816 C818 1.381 . S
C816 C822 1.383 . S
C817 C813 1.495 . S
C817 H823 0.959 . S
C817 H824 0.961 . S
C817 H825 0.960 . S
C818 C816 1.381 . S
C818 C819 1.394 . S
C818 H826 0.930 . S
C819 C818 1.394 . S
C819 C820 1.383 . S
C819 H827 0.929 . S
C820 C819 1.383 . S
C820 C821 1.377 . S
C821 H805 0.930 . S
C821 C820 1.377 . S
C821 C822 1.379 . S
C822 H806 0.931 . S
C822 C816 1.383 . S
C822 C821 1.379 . S
H823 C817 0.959 . S
H824 C817 0.961 . S
H825 C817 0.960 . S
H826 C818 0.930 . S
H827 C819 0.929 . S
H828 C836 0.929 . S
H829 C838 0.930 . S
H830 C840 0.930 . S
H831 C843 0.929 . S
H832 C846 0.930 . S
H833 C848 0.960 . S
H834 C848 0.960 . S
H835 C848 0.960 . S
C836 H828 0.929 . S
C836 C837 1.377 . S
C836 C838 1.384 . S
C837 C836 1.377 . S
C837 C843 1.390 . S
C838 H829 0.930 . S
C838 C836 1.384 . S
C838 C839 1.372 . S
C839 C838 1.372 . S
C839 C840 1.400 . S
C839 C844 1.490 . S
C840 H830 0.930 . S
C840 C839 1.400 . S
C840 C843 1.386 . S
H841 C857 0.930 . S
H842 C858 0.931 . S
C843 H831 0.929 . S
C843 C837 1.390 . S
C843 C840 1.386 . S
C844 C839 1.490 . S
C844 C846 1.395 . S
C844 C847 1.403 . S
H845 C851 0.930 . S
C846 H832 0.930 . S
C846 C844 1.395 . S
C846 C849 1.403 . S
C847 C844 1.403 . S
C847 C848 1.524 . S
C847 C851 1.400 . S
C848 H833 0.960 . S
C848 H834 0.960 . S
C848 H835 0.960 . S
C848 C847 1.524 . S
C849 C846 1.403 . S
C849 C850 1.392 . S
C849 C853 1.495 . S
C850 C849 1.392 . S
C850 C851 1.385 . S
C850 C852 1.478 . S
C851 H845 0.930 . S
C851 C847 1.400 . S
C851 C850 1.385 . S
C852 C850 1.478 . S
C852 C854 1.381 . S
C852 C858 1.383 . S
C853 C849 1.495 . S
C853 H859 0.959 . S
C853 H860 0.961 . S
C853 H861 0.960 . S
C854 C852 1.381 . S
C854 C855 1.394 . S
C854 H862 0.930 . S
C855 C854 1.394 . S
C855 C856 1.383 . S
C855 H863 0.929 . S
C856 C855 1.383 . S
C856 C857 1.377 . S
C857 H841 0.930 . S
C857 C856 1.377 . S
C857 C858 1.379 . S
C858 H842 0.931 . S
C858 C852 1.383 . S
C858 C857 1.379 . S
H859 C853 0.959 . S
H860 C853 0.961 . S
H861 C853 0.960 . S
H862 C854 0.930 . S
H863 C855 0.929 . S
H864 C872 0.929 . S
H865 C874 0.930 . S
H866 C876 0.930 . S
H867 C879 0.929 . S
H868 C882 0.930 . S
H869 C884 0.960 . S
H870 C884 0.960 . S
H871 C884 0.960 . S
C872 H864 0.929 . S
C872 C873 1.377 . S
C872 C874 1.384 . S
C873 C872 1.377 . S
C873 C879 1.390 . S
C874 H865 0.930 . S
C874 C872 1.384 . S
C874 C875 1.372 . S
C875 C874 1.372 . S
C875 C876 1.400 . S
C875 C880 1.490 . S
C876 H866 0.930 . S
C876 C875 1.400 . S
C876 C879 1.386 . S
H877 C893 0.930 . S
H878 C894 0.931 . S
C879 H867 0.929 . S
C879 C873 1.390 . S
C879 C876 1.386 . S
C880 C875 1.490 . S
C880 C882 1.395 . S
C880 C883 1.403 . S
H881 C887 0.930 . S
C882 H868 0.930 . S
C882 C880 1.395 . S
C882 C885 1.403 . S
C883 C880 1.403 . S
C883 C884 1.524 . S
C883 C887 1.400 . S
C884 H869 0.960 . S
C884 H870 0.960 . S
C884 H871 0.960 . S
C884 C883 1.524 . S
C885 C882 1.403 . S
C885 C886 1.392 . S
C885 C889 1.495 . S
C886 C885 1.392 . S
C886 C887 1.385 . S
C886 C888 1.478 . S
C887 H881 0.930 . S
C887 C883 1.400 . S
C887 C886 1.385 . S
C888 C886 1.478 . S
C888 C890 1.381 . S
C888 C894 1.383 . S
C889 C885 1.495 . S
C889 H895 0.959 . S
C889 H896 0.961 . S
C889 H897 0.960 . S
C890 C888 1.381 . S
C890 C891 1.394 . S
C890 H898 0.930 . S
C891 C890 1.394 . S
C891 C892 1.383 . S
C891 H899 0.929 . S
C892 C891 1.383 . S
C892 C893 1.377 . S
C893 H877 0.930 . S
C893 C892 1.377 . S
C893 C894 1.379 . S
C894 H878 0.931 . S
C894 C888 1.383 . S
C894 C893 1.379 . S
H895 C889 0.959 . S
H896 C889 0.961 . S
H897 C889 0.960 . S
H898 C890 0.930 . S
H899 C891 0.929 . S
H900 C908 0.929 . S
H901 C910 0.930 . S
H902 C912 0.930 . S
H903 C915 0.929 . S
H904 C918 0.930 . S
H905 C920 0.960 . S
H906 C920 0.960 . S
H907 C920 0.960 . S
C908 H900 0.929 . S
C908 C909 1.377 . S
C908 C910 1.384 . S
C909 C908 1.377 . S
C909 C915 1.390 . S
C910 H901 0.930 . S
C910 C908 1.384 . S
C910 C911 1.372 . S
C911 C910 1.372 . S
C911 C912 1.400 . S
C911 C916 1.490 . S
C912 H902 0.930 . S
C912 C911 1.400 . S
C912 C915 1.386 . S
H913 C929 0.930 . S
H914 C930 0.931 . S
C915 H903 0.929 . S
C915 C909 1.390 . S
C915 C912 1.386 . S
C916 C911 1.490 . S
C916 C918 1.395 . S
C916 C919 1.403 . S
H917 C923 0.930 . S
C918 H904 0.930 . S
C918 C916 1.395 . S
C918 C921 1.403 . S
C919 C916 1.403 . S
C919 C920 1.524 . S
C919 C923 1.400 . S
C920 H905 0.960 . S
C920 H906 0.960 . S
C920 H907 0.960 . S
C920 C919 1.524 . S
C921 C918 1.403 . S
C921 C922 1.392 . S
C921 C925 1.495 . S
C922 C921 1.392 . S
C922 C923 1.385 . S
C922 C924 1.478 . S
C923 H917 0.930 . S
C923 C919 1.400 . S
C923 C922 1.385 . S
C924 C922 1.478 . S
C924 C926 1.381 . S
C924 C930 1.383 . S
C925 C921 1.495 . S
C925 H931 0.959 . S
C925 H932 0.961 . S
C925 H933 0.960 . S
C926 C924 1.381 . S
C926 C927 1.394 . S
C926 H934 0.930 . S
C927 C926 1.394 . S
C927 C928 1.383 . S
C927 H935 0.929 . S
C928 C927 1.383 . S
C928 C929 1.377 . S
C929 H913 0.930 . S
C929 C928 1.377 . S
C929 C930 1.379 . S
C930 H914 0.931 . S
C930 C924 1.383 . S
C930 C929 1.379 . S
H931 C925 0.959 . S
H932 C925 0.961 . S
H933 C925 0.960 . S
H934 C926 0.930 . S
H935 C927 0.929 . S
H936 C944 0.929 . S
H937 C946 0.930 . S
H938 C948 0.930 . S
H939 C951 0.929 . S
H940 C954 0.930 . S
H941 C956 0.960 . S
H942 C956 0.960 . S
H943 C956 0.960 . S
C944 H936 0.929 . S
C944 C945 1.377 . S
C944 C946 1.384 . S
C945 C944 1.377 . S
C945 C951 1.390 . S
C946 H937 0.930 . S
C946 C944 1.384 . S
C946 C947 1.372 . S
C947 C946 1.372 . S
C947 C948 1.400 . S
C947 C952 1.490 . S
C948 H938 0.930 . S
C948 C947 1.400 . S
C948 C951 1.386 . S
H949 C965 0.930 . S
H950 C966 0.931 . S
C951 H939 0.929 . S
C951 C945 1.390 . S
C951 C948 1.386 . S
C952 C947 1.490 . S
C952 C954 1.395 . S
C952 C955 1.403 . S
H953 C959 0.930 . S
C954 H940 0.930 . S
C954 C952 1.395 . S
C954 C957 1.403 . S
C955 C952 1.403 . S
C955 C956 1.524 . S
C955 C959 1.400 . S
C956 H941 0.960 . S
C956 H942 0.960 . S
C956 H943 0.960 . S
C956 C955 1.524 . S
C957 C954 1.403 . S
C957 C958 1.392 . S
C957 C961 1.495 . S
C958 C957 1.392 . S
C958 C959 1.385 . S
C958 C960 1.478 . S
C959 H953 0.930 . S
C959 C955 1.400 . S
C959 C958 1.385 . S
C960 C958 1.478 . S
C960 C962 1.381 . S
C960 C966 1.383 . S
C961 C957 1.495 . S
C961 H967 0.959 . S
C961 H968 0.961 . S
C961 H969 0.960 . S
C962 C960 1.381 . S
C962 C963 1.394 . S
C962 H970 0.930 . S
C963 C962 1.394 . S
C963 C964 1.383 . S
C963 H971 0.929 . S
C964 C963 1.383 . S
C964 C965 1.377 . S
C965 H949 0.930 . S
C965 C964 1.377 . S
C965 C966 1.379 . S
C966 H950 0.931 . S
C966 C960 1.383 . S
C966 C965 1.379 . S
H967 C961 0.959 . S
H968 C961 0.961 . S
H969 C961 0.960 . S
H970 C962 0.930 . S
H971 C963 0.929 . S
H972 C980 0.929 . S
H973 C982 0.930 . S
H974 C984 0.930 . S
H975 C987 0.929 . S
H976 C990 0.930 . S
H977 C992 0.960 . S
H978 C992 0.960 . S
H979 C992 0.960 . S
C980 H972 0.929 . S
C980 C981 1.377 . S
C980 C982 1.384 . S
C981 C980 1.377 . S
C981 C987 1.390 . S
C982 H973 0.930 . S
C982 C980 1.384 . S
C982 C983 1.372 . S
C983 C982 1.372 . S
C983 C984 1.400 . S
C983 C988 1.490 . S
C984 H974 0.930 . S
C984 C983 1.400 . S
C984 C987 1.386 . S
H985 C1001 0.930 . S
H986 C1002 0.931 . S
C987 H975 0.929 . S
C987 C981 1.390 . S
C987 C984 1.386 . S
C988 C983 1.490 . S
C988 C990 1.395 . S
C988 C991 1.403 . S
H989 C995 0.930 . S
C990 H976 0.930 . S
C990 C988 1.395 . S
C990 C993 1.403 . S
C991 C988 1.403 . S
C991 C992 1.524 . S
C991 C995 1.400 . S
C992 H977 0.960 . S
C992 H978 0.960 . S
C992 H979 0.960 . S
C992 C991 1.524 . S
C993 C990 1.403 . S
C993 C994 1.392 . S
C993 C997 1.495 . S
C994 C993 1.392 . S
C994 C995 1.385 . S
C994 C996 1.478 . S
C995 H989 0.930 . S
C995 C991 1.400 . S
C995 C994 1.385 . S
C996 C994 1.478 . S
C996 C998 1.381 . S
C996 C1002 1.383 . S
C997 C993 1.495 . S
C997 H1003 0.959 . S
C997 H1004 0.961 . S
C997 H1005 0.960 . S
C998 C996 1.381 . S
C998 C999 1.394 . S
C998 H1006 0.930 . S
C999 C998 1.394 . S
C999 C1000 1.383 . S
C999 H1007 0.929 . S
C1000 C999 1.383 . S
C1000 C1001 1.377 . S
C1001 H985 0.930 . S
C1001 C1000 1.377 . S
C1001 C1002 1.379 . S
C1002 H986 0.931 . S
C1002 C996 1.383 . S
C1002 C1001 1.379 . S
H1003 C997 0.959 . S
H1004 C997 0.961 . S
H1005 C997 0.960 . S
H1006 C998 0.930 . S
H1007 C999 0.929 . S
H1008 C1016 0.929 . S
H1009 C1018 0.930 . S
H1010 C1020 0.930 . S
H1011 C1023 0.929 . S
H1012 C1026 0.930 . S
H1013 C1028 0.960 . S
H1014 C1028 0.960 . S
H1015 C1028 0.960 . S
C1016 H1008 0.929 . S
C1016 C1017 1.377 . S
C1016 C1018 1.384 . S
C1017 C1016 1.377 . S
C1017 C1023 1.390 . S
C1018 H1009 0.930 . S
C1018 C1016 1.384 . S
C1018 C1019 1.372 . S
C1019 C1018 1.372 . S
C1019 C1020 1.400 . S
C1019 C1024 1.490 . S
C1020 H1010 0.930 . S
C1020 C1019 1.400 . S
C1020 C1023 1.386 . S
H1021 C1037 0.930 . S
H1022 C1038 0.931 . S
C1023 H1011 0.929 . S
C1023 C1017 1.390 . S
C1023 C1020 1.386 . S
C1024 C1019 1.490 . S
C1024 C1026 1.395 . S
C1024 C1027 1.403 . S
H1025 C1031 0.930 . S
C1026 H1012 0.930 . S
C1026 C1024 1.395 . S
C1026 C1029 1.403 . S
C1027 C1024 1.403 . S
C1027 C1028 1.524 . S
C1027 C1031 1.400 . S
C1028 H1013 0.960 . S
C1028 H1014 0.960 . S
C1028 H1015 0.960 . S
C1028 C1027 1.524 . S
C1029 C1026 1.403 . S
C1029 C1030 1.392 . S
C1029 C1033 1.495 . S
C1030 C1029 1.392 . S
C1030 C1031 1.385 . S
C1030 C1032 1.478 . S
C1031 H1025 0.930 . S
C1031 C1027 1.400 . S
C1031 C1030 1.385 . S
C1032 C1030 1.478 . S
C1032 C1034 1.381 . S
C1032 C1038 1.383 . S
C1033 C1029 1.495 . S
C1033 H1039 0.959 . S
C1033 H1040 0.961 . S
C1033 H1041 0.960 . S
C1034 C1032 1.381 . S
C1034 C1035 1.394 . S
C1034 H1042 0.930 . S
C1035 C1034 1.394 . S
C1035 C1036 1.383 . S
C1035 H1043 0.929 . S
C1036 C1035 1.383 . S
C1036 C1037 1.377 . S
C1037 H1021 0.930 . S
C1037 C1036 1.377 . S
C1037 C1038 1.379 . S
C1038 H1022 0.931 . S
C1038 C1032 1.383 . S
C1038 C1037 1.379 . S
H1039 C1033 0.959 . S
H1040 C1033 0.961 . S
H1041 C1033 0.960 . S
H1042 C1034 0.930 . S
H1043 C1035 0.929 . S
H1044 C1052 0.929 . S
H1045 C1054 0.930 . S
H1046 C1056 0.930 . S
H1047 C1059 0.929 . S
H1048 C1062 0.930 1_545 S
H1049 C1064 0.960 . S
H1050 C1064 0.960 1_545 S
H1051 C1064 0.960 1_545 S
C1052 H1044 0.929 . S
C1052 C1053 1.377 . S
C1052 C1054 1.384 . S
C1053 C1052 1.377 . S
C1053 C1059 1.390 . S
C1054 H1045 0.930 . S
C1054 C1052 1.384 . S
C1054 C1055 1.372 . S
C1055 C1054 1.372 . S
C1055 C1056 1.400 . S
C1055 C1060 1.490 . S
C1056 H1046 0.930 . S
C1056 C1055 1.400 . S
C1056 C1059 1.386 . S
H1057 C1073 0.930 . S
H1058 C1074 0.931 . S
C1059 H1047 0.929 . S
C1059 C1053 1.390 . S
C1059 C1056 1.386 . S
C1060 C1055 1.490 . S
C1060 C1062 1.395 1_545 S
C1060 C1063 1.403 1_545 S
H1061 C1067 0.930 . S
C1062 H1048 0.930 1_565 S
C1062 C1060 1.395 1_565 S
C1062 C1065 1.403 . S
C1063 C1060 1.403 1_565 S
C1063 C1064 1.524 . S
C1063 C1067 1.400 . S
C1064 H1049 0.960 . S
C1064 H1050 0.960 1_565 S
C1064 H1051 0.960 1_565 S
C1064 C1063 1.524 . S
C1065 C1062 1.403 . S
C1065 C1066 1.392 . S
C1065 C1069 1.495 . S
C1066 C1065 1.392 . S
C1066 C1067 1.385 . S
C1066 C1068 1.478 . S
C1067 H1061 0.930 . S
C1067 C1063 1.400 . S
C1067 C1066 1.385 . S
C1068 C1066 1.478 . S
C1068 C1070 1.381 . S
C1068 C1074 1.383 . S
C1069 C1065 1.495 . S
C1069 H1075 0.959 . S
C1069 H1076 0.961 . S
C1069 H1077 0.960 . S
C1070 C1068 1.381 . S
C1070 C1071 1.394 . S
C1070 H1078 0.930 . S
C1071 C1070 1.394 . S
C1071 C1072 1.383 . S
C1071 H1079 0.929 . S
C1072 C1071 1.383 . S
C1072 C1073 1.377 . S
C1073 H1057 0.930 . S
C1073 C1072 1.377 . S
C1073 C1074 1.379 . S
C1074 H1058 0.931 . S
C1074 C1068 1.383 . S
C1074 C1073 1.379 . S
H1075 C1069 0.959 . S
H1076 C1069 0.961 . S
H1077 C1069 0.960 . S
H1078 C1070 0.930 . S
H1079 C1071 0.929 . S
H1080 C1088 0.929 . S
H1081 C1090 0.930 . S
H1082 C1092 0.930 . S
H1083 C1095 0.929 . S
H1084 C1098 0.930 . S
H1085 C1100 0.960 . S
H1086 C1100 0.960 . S
H1087 C1100 0.960 . S
C1088 H1080 0.929 . S
C1088 C1089 1.377 . S
C1088 C1090 1.384 . S
C1089 C1088 1.377 . S
C1089 C1095 1.390 . S
C1090 H1081 0.930 . S
C1090 C1088 1.384 . S
C1090 C1091 1.372 . S
C1091 C1090 1.372 . S
C1091 C1092 1.400 . S
C1091 C1096 1.490 . S
C1092 H1082 0.930 . S
C1092 C1091 1.400 . S
C1092 C1095 1.386 . S
H1093 C1109 0.930 . S
H1094 C1110 0.931 . S
C1095 H1083 0.929 . S
C1095 C1089 1.390 . S
C1095 C1092 1.386 . S
C1096 C1091 1.490 . S
C1096 C1098 1.395 . S
C1096 C1099 1.403 1_655 S
H1097 C1103 0.930 . S
C1098 H1084 0.930 . S
C1098 C1096 1.395 . S
C1098 C1101 1.403 1_655 S
C1099 C1096 1.403 1_455 S
C1099 C1100 1.524 . S
C1099 C1103 1.400 . S
C1100 H1085 0.960 . S
C1100 H1086 0.960 . S
C1100 H1087 0.960 . S
C1100 C1099 1.524 . S
C1101 C1098 1.403 1_455 S
C1101 C1102 1.392 . S
C1101 C1105 1.495 . S
C1102 C1101 1.392 . S
C1102 C1103 1.385 . S
C1102 C1104 1.478 . S
C1103 H1097 0.930 . S
C1103 C1099 1.400 . S
C1103 C1102 1.385 . S
C1104 C1102 1.478 . S
C1104 C1106 1.381 . S
C1104 C1110 1.383 . S
C1105 C1101 1.495 . S
C1105 H1111 0.959 . S
C1105 H1112 0.961 . S
C1105 H1113 0.960 . S
C1106 C1104 1.381 . S
C1106 C1107 1.394 . S
C1106 H1114 0.930 . S
C1107 C1106 1.394 . S
C1107 C1108 1.383 . S
C1107 H1115 0.929 . S
C1108 C1107 1.383 . S
C1108 C1109 1.377 . S
C1109 H1093 0.930 . S
C1109 C1108 1.377 . S
C1109 C1110 1.379 . S
C1110 H1094 0.931 . S
C1110 C1104 1.383 . S
C1110 C1109 1.379 . S
H1111 C1105 0.959 . S
H1112 C1105 0.961 . S
H1113 C1105 0.960 . S
H1114 C1106 0.930 . S
H1115 C1107 0.929 . S
H1116 C1124 0.929 . S
H1117 C1126 0.930 . S
H1118 C1128 0.930 . S
H1119 C1131 0.929 . S
H1120 C1134 0.930 . S
H1121 C1136 0.960 . S
H1122 C1136 0.960 . S
H1123 C1136 0.960 . S
C1124 H1116 0.929 . S
C1124 C1125 1.377 . S
C1124 C1126 1.384 . S
C1125 C1124 1.377 . S
C1125 C1131 1.390 . S
C1126 H1117 0.930 . S
C1126 C1124 1.384 . S
C1126 C1127 1.372 . S
C1127 C1126 1.372 . S
C1127 C1128 1.400 . S
C1127 C1132 1.490 . S
C1128 H1118 0.930 . S
C1128 C1127 1.400 . S
C1128 C1131 1.386 . S
H1129 C1145 0.930 . S
H1130 C1146 0.931 . S
C1131 H1119 0.929 . S
C1131 C1125 1.390 . S
C1131 C1128 1.386 . S
C1132 C1127 1.490 . S
C1132 C1134 1.395 . S
C1132 C1135 1.403 . S
H1133 C1139 0.930 . S
C1134 H1120 0.930 . S
C1134 C1132 1.395 . S
C1134 C1137 1.403 . S
C1135 C1132 1.403 . S
C1135 C1136 1.524 . S
C1135 C1139 1.400 . S
C1136 H1121 0.960 . S
C1136 H1122 0.960 . S
C1136 H1123 0.960 . S
C1136 C1135 1.524 . S
C1137 C1134 1.403 . S
C1137 C1138 1.392 . S
C1137 C1141 1.495 . S
C1138 C1137 1.392 . S
C1138 C1139 1.385 . S
C1138 C1140 1.478 . S
C1139 H1133 0.930 . S
C1139 C1135 1.400 . S
C1139 C1138 1.385 . S
C1140 C1138 1.478 . S
C1140 C1142 1.381 . S
C1140 C1146 1.383 . S
C1141 C1137 1.495 . S
C1141 H1147 0.959 . S
C1141 H1148 0.961 . S
C1141 H1149 0.960 . S
C1142 C1140 1.381 . S
C1142 C1143 1.394 . S
C1142 H1150 0.930 . S
C1143 C1142 1.394 . S
C1143 C1144 1.383 . S
C1143 H1151 0.929 . S
C1144 C1143 1.383 . S
C1144 C1145 1.377 . S
C1145 H1129 0.930 . S
C1145 C1144 1.377 . S
C1145 C1146 1.379 . S
C1146 H1130 0.931 . S
C1146 C1140 1.383 . S
C1146 C1145 1.379 . S
H1147 C1141 0.959 . S
H1148 C1141 0.961 . S
H1149 C1141 0.960 . S
H1150 C1142 0.930 . S
H1151 C1143 0.929 . S
H1152 C1160 0.929 . S
H1153 C1162 0.930 . S
H1154 C1164 0.930 . S
H1155 C1167 0.929 . S
H1156 C1170 0.930 . S
H1157 C1172 0.960 . S
H1158 C1172 0.960 . S
H1159 C1172 0.960 . S
C1160 H1152 0.929 . S
C1160 C1161 1.377 . S
C1160 C1162 1.384 . S
C1161 C1160 1.377 . S
C1161 C1167 1.390 . S
C1162 H1153 0.930 . S
C1162 C1160 1.384 . S
C1162 C1163 1.372 . S
C1163 C1162 1.372 . S
C1163 C1164 1.400 . S
C1163 C1168 1.490 . S
C1164 H1154 0.930 . S
C1164 C1163 1.400 . S
C1164 C1167 1.386 . S
H1165 C1181 0.930 . S
H1166 C1182 0.931 . S
C1167 H1155 0.929 . S
C1167 C1161 1.390 . S
C1167 C1164 1.386 . S
C1168 C1163 1.490 . S
C1168 C1170 1.395 . S
C1168 C1171 1.403 . S
H1169 C1175 0.948 . S
C1170 H1156 0.930 . S
C1170 C1168 1.395 . S
C1170 C1173 1.403 . S
C1171 C1168 1.403 . S
C1171 C1172 1.524 . S
C1171 C1175 1.360 1_565 S
C1172 H1157 0.960 . S
C1172 H1158 0.960 . S
C1172 H1159 0.960 . S
C1172 C1171 1.524 . S
C1173 C1170 1.403 . S
C1173 C1174 1.392 1_565 S
C1173 C1177 1.495 . S
C1174 C1173 1.392 1_545 S
C1174 C1175 1.410 . S
C1174 C1176 1.478 . S
C1175 H1169 0.948 . S
C1175 C1171 1.360 1_545 S
C1175 C1174 1.410 . S
C1176 C1174 1.478 . S
C1176 C1178 1.381 . S
C1176 C1182 1.383 . S
C1177 C1173 1.495 . S
C1177 H1183 0.959 . S
C1177 H1184 0.961 . S
C1177 H1185 0.960 . S
C1178 C1176 1.381 . S
C1178 C1179 1.394 . S
C1178 H1186 0.930 . S
C1179 C1178 1.394 . S
C1179 C1180 1.383 . S
C1179 H1187 0.929 . S
C1180 C1179 1.383 . S
C1180 C1181 1.377 . S
C1181 H1165 0.930 . S
C1181 C1180 1.377 . S
C1181 C1182 1.379 . S
C1182 H1166 0.931 . S
C1182 C1176 1.383 . S
C1182 C1181 1.379 . S
H1183 C1177 0.959 . S
H1184 C1177 0.961 . S
H1185 C1177 0.960 . S
H1186 C1178 0.930 . S
H1187 C1179 0.929 . S
H1188 C1196 0.929 . S
H1189 C1198 0.930 . S
H1190 C1200 0.930 . S
H1191 C1203 0.929 . S
H1192 C1206 0.930 . S
H1193 C1208 0.960 . S
H1194 C1208 0.960 . S
H1195 C1208 0.960 . S
C1196 H1188 0.929 . S
C1196 C1197 1.377 . S
C1196 C1198 1.384 . S
C1197 C1196 1.377 . S
C1197 C1203 1.390 . S
C1198 H1189 0.930 . S
C1198 C1196 1.384 . S
C1198 C1199 1.372 . S
C1199 C1198 1.372 . S
C1199 C1200 1.400 . S
C1199 C1204 1.490 . S
C1200 H1190 0.930 . S
C1200 C1199 1.400 . S
C1200 C1203 1.386 . S
H1201 C1217 0.930 . S
H1202 C1218 0.931 . S
C1203 H1191 0.929 . S
C1203 C1197 1.390 . S
C1203 C1200 1.386 . S
C1204 C1199 1.490 . S
C1204 C1206 1.395 . S
C1204 C1207 1.403 . S
H1205 C1211 0.963 . S
C1206 H1192 0.930 . S
C1206 C1204 1.395 . S
C1206 C1209 1.403 . S
C1207 C1204 1.403 . S
C1207 C1208 1.524 . S
C1207 C1211 1.381 1_455 S
C1208 H1193 0.960 . S
C1208 H1194 0.960 . S
C1208 H1195 0.960 . S
C1208 C1207 1.524 . S
C1209 C1206 1.403 . S
C1209 C1210 1.392 1_455 S
C1209 C1213 1.495 . S
C1210 C1209 1.392 1_655 S
C1210 C1211 1.373 . S
C1210 C1212 1.478 . S
C1211 H1205 0.963 . S
C1211 C1207 1.381 1_655 S
C1211 C1210 1.373 . S
C1212 C1210 1.478 . S
C1212 C1214 1.381 . S
C1212 C1218 1.383 . S
C1213 C1209 1.495 . S
C1213 H1219 0.959 . S
C1213 H1220 0.961 . S
C1213 H1221 0.960 . S
C1214 C1212 1.381 . S
C1214 C1215 1.394 . S
C1214 H1222 0.930 . S
C1215 C1214 1.394 . S
C1215 C1216 1.383 . S
C1215 H1223 0.929 . S
C1216 C1215 1.383 . S
C1216 C1217 1.377 . S
C1217 H1201 0.930 . S
C1217 C1216 1.377 . S
C1217 C1218 1.379 . S
C1218 H1202 0.931 . S
C1218 C1212 1.383 . S
C1218 C1217 1.379 . S
H1219 C1213 0.959 . S
H1220 C1213 0.961 . S
H1221 C1213 0.960 . S
H1222 C1214 0.930 . S
H1223 C1215 0.929 . S
H1224 C1232 0.929 . S
H1225 C1234 0.930 . S
H1226 C1236 0.930 . S
H1227 C1239 0.929 . S
H1228 C1242 0.930 . S
H1229 C1244 0.960 . S
H1230 C1244 0.960 . S
H1231 C1244 0.960 . S
C1232 H1224 0.929 . S
C1232 C1233 1.377 . S
C1232 C1234 1.384 . S
C1233 C1232 1.377 . S
C1233 C1239 1.390 . S
C1234 H1225 0.930 . S
C1234 C1232 1.384 . S
C1234 C1235 1.372 . S
C1235 C1234 1.372 . S
C1235 C1236 1.400 . S
C1235 C1240 1.490 . S
C1236 H1226 0.930 . S
C1236 C1235 1.400 . S
C1236 C1239 1.386 . S
H1237 C1253 0.930 . S
H1238 C1254 0.931 . S
C1239 H1227 0.929 . S
C1239 C1233 1.390 . S
C1239 C1236 1.386 . S
C1240 C1235 1.490 . S
C1240 C1242 1.395 . S
C1240 C1243 1.403 . S
H1241 C1247 0.930 . S
C1242 H1228 0.930 . S
C1242 C1240 1.395 . S
C1242 C1245 1.403 . S
C1243 C1240 1.403 . S
C1243 C1244 1.524 . S
C1243 C1247 1.400 . S
C1244 H1229 0.960 . S
C1244 H1230 0.960 . S
C1244 H1231 0.960 . S
C1244 C1243 1.524 . S
C1245 C1242 1.403 . S
C1245 C1246 1.392 . S
C1245 C1249 1.495 . S
C1246 C1245 1.392 . S
C1246 C1247 1.385 . S
C1246 C1248 1.478 . S
C1247 H1241 0.930 . S
C1247 C1243 1.400 . S
C1247 C1246 1.385 . S
C1248 C1246 1.478 . S
C1248 C1250 1.381 . S
C1248 C1254 1.383 . S
C1249 C1245 1.495 . S
C1249 H1255 0.959 . S
C1249 H1256 0.961 . S
C1249 H1257 0.960 . S
C1250 C1248 1.381 . S
C1250 C1251 1.394 . S
C1250 H1258 0.930 . S
C1251 C1250 1.394 . S
C1251 C1252 1.383 . S
C1251 H1259 0.929 . S
C1252 C1251 1.383 . S
C1252 C1253 1.377 . S
C1253 H1237 0.930 . S
C1253 C1252 1.377 . S
C1253 C1254 1.379 . S
C1254 H1238 0.931 . S
C1254 C1248 1.383 . S
C1254 C1253 1.379 . S
H1255 C1249 0.959 . S
H1256 C1249 0.961 . S
H1257 C1249 0.960 . S
H1258 C1250 0.930 . S
H1259 C1251 0.929 . S
H1260 C1268 0.929 . S
H1261 C1270 0.930 . S
H1262 C1272 0.930 . S
H1263 C1275 0.929 . S
H1264 C1278 0.930 . S
H1265 C1280 0.960 . S
H1266 C1280 0.960 . S
H1267 C1280 0.960 . S
C1268 H1260 0.929 . S
C1268 C1269 1.377 . S
C1268 C1270 1.384 . S
C1269 C1268 1.377 . S
C1269 C1275 1.390 . S
C1270 H1261 0.930 . S
C1270 C1268 1.384 . S
C1270 C1271 1.372 . S
C1271 C1270 1.372 . S
C1271 C1272 1.400 . S
C1271 C1276 1.490 . S
C1272 H1262 0.930 . S
C1272 C1271 1.400 . S
C1272 C1275 1.386 . S
H1273 C1289 0.930 . S
H1274 C1290 0.931 . S
C1275 H1263 0.929 . S
C1275 C1269 1.390 . S
C1275 C1272 1.386 . S
C1276 C1271 1.490 . S
C1276 C1278 1.395 . S
C1276 C1279 1.403 . S
H1277 C1283 0.930 . S
C1278 H1264 0.930 . S
C1278 C1276 1.395 . S
C1278 C1281 1.403 . S
C1279 C1276 1.403 . S
C1279 C1280 1.524 . S
C1279 C1283 1.400 . S
C1280 H1265 0.960 . S
C1280 H1266 0.960 . S
C1280 H1267 0.960 . S
C1280 C1279 1.524 . S
C1281 C1278 1.403 . S
C1281 C1282 1.392 . S
C1281 C1285 1.495 . S
C1282 C1281 1.392 . S
C1282 C1283 1.385 . S
C1282 C1284 1.478 . S
C1283 H1277 0.930 . S
C1283 C1279 1.400 . S
C1283 C1282 1.385 . S
C1284 C1282 1.478 . S
C1284 C1286 1.381 . S
C1284 C1290 1.383 . S
C1285 C1281 1.495 . S
C1285 H1291 0.959 . S
C1285 H1292 0.961 . S
C1285 H1293 0.960 . S
C1286 C1284 1.381 . S
C1286 C1287 1.394 . S
C1286 H1294 0.930 . S
C1287 C1286 1.394 . S
C1287 C1288 1.383 . S
C1287 H1295 0.929 . S
C1288 C1287 1.383 . S
C1288 C1289 1.377 . S
C1289 H1273 0.930 . S
C1289 C1288 1.377 . S
C1289 C1290 1.379 . S
C1290 H1274 0.931 . S
C1290 C1284 1.383 . S
C1290 C1289 1.379 . S
H1291 C1285 0.959 . S
H1292 C1285 0.961 . S
H1293 C1285 0.960 . S
H1294 C1286 0.930 . S
H1295 C1287 0.929 . S
H1296 C1304 0.929 . S
H1297 C1306 0.930 . S
H1298 C1308 0.930 . S
H1299 C1311 0.929 . S
H1300 C1314 0.930 . S
H1301 C1316 0.960 . S
H1302 C1316 0.960 . S
H1303 C1316 0.960 . S
C1304 H1296 0.929 . S
C1304 C1305 1.377 . S
C1304 C1306 1.384 . S
C1305 C1304 1.377 . S
C1305 C1311 1.390 . S
C1306 H1297 0.930 . S
C1306 C1304 1.384 . S
C1306 C1307 1.372 . S
C1307 C1306 1.372 . S
C1307 C1308 1.400 . S
C1307 C1312 1.490 . S
C1308 H1298 0.930 . S
C1308 C1307 1.400 . S
C1308 C1311 1.386 . S
H1309 C1325 0.930 . S
H1310 C1326 0.931 . S
C1311 H1299 0.929 . S
C1311 C1305 1.390 . S
C1311 C1308 1.386 . S
C1312 C1307 1.490 . S
C1312 C1314 1.395 . S
C1312 C1315 1.403 . S
H1313 C1319 0.930 . S
C1314 H1300 0.930 . S
C1314 C1312 1.395 . S
C1314 C1317 1.403 . S
C1315 C1312 1.403 . S
C1315 C1316 1.524 . S
C1315 C1319 1.400 . S
C1316 H1301 0.960 . S
C1316 H1302 0.960 . S
C1316 H1303 0.960 . S
C1316 C1315 1.524 . S
C1317 C1314 1.403 . S
C1317 C1318 1.392 . S
C1317 C1321 1.495 . S
C1318 C1317 1.392 . S
C1318 C1319 1.385 . S
C1318 C1320 1.478 . S
C1319 H1313 0.930 . S
C1319 C1315 1.400 . S
C1319 C1318 1.385 . S
C1320 C1318 1.478 . S
C1320 C1322 1.381 . S
C1320 C1326 1.383 . S
C1321 C1317 1.495 . S
C1321 H1327 0.959 . S
C1321 H1328 0.961 . S
C1321 H1329 0.960 . S
C1322 C1320 1.381 . S
C1322 C1323 1.394 . S
C1322 H1330 0.930 . S
C1323 C1322 1.394 . S
C1323 C1324 1.383 . S
C1323 H1331 0.929 . S
C1324 C1323 1.383 . S
C1324 C1325 1.377 . S
C1325 H1309 0.930 . S
C1325 C1324 1.377 . S
C1325 C1326 1.379 . S
C1326 H1310 0.931 . S
C1326 C1320 1.383 . S
C1326 C1325 1.379 . S
H1327 C1321 0.959 . S
H1328 C1321 0.961 . S
H1329 C1321 0.960 . S
H1330 C1322 0.930 . S
H1331 C1323 0.929 . S
H1332 C1340 0.929 . S
H1333 C1342 0.930 . S
H1334 C1344 0.930 . S
H1335 C1347 0.929 . S
H1336 C1350 0.930 . S
H1337 C1352 0.960 . S
H1338 C1352 0.960 . S
H1339 C1352 0.960 . S
C1340 H1332 0.929 . S
C1340 C1341 1.377 . S
C1340 C1342 1.384 . S
C1341 C1340 1.377 . S
C1341 C1347 1.390 . S
C1342 H1333 0.930 . S
C1342 C1340 1.384 . S
C1342 C1343 1.372 . S
C1343 C1342 1.372 . S
C1343 C1344 1.400 . S
C1343 C1348 1.490 . S
C1344 H1334 0.930 . S
C1344 C1343 1.400 . S
C1344 C1347 1.386 . S
H1345 C1361 0.930 . S
H1346 C1362 0.931 . S
C1347 H1335 0.929 . S
C1347 C1341 1.390 . S
C1347 C1344 1.386 . S
C1348 C1343 1.490 . S
C1348 C1350 1.395 . S
C1348 C1351 1.403 . S
H1349 C1355 0.930 . S
C1350 H1336 0.930 . S
C1350 C1348 1.395 . S
C1350 C1353 1.403 . S
C1351 C1348 1.403 . S
C1351 C1352 1.524 . S
C1351 C1355 1.400 . S
C1352 H1337 0.960 . S
C1352 H1338 0.960 . S
C1352 H1339 0.960 . S
C1352 C1351 1.524 . S
C1353 C1350 1.403 . S
C1353 C1354 1.392 . S
C1353 C1357 1.495 . S
C1354 C1353 1.392 . S
C1354 C1355 1.385 . S
C1354 C1356 1.478 . S
C1355 H1349 0.930 . S
C1355 C1351 1.400 . S
C1355 C1354 1.385 . S
C1356 C1354 1.478 . S
C1356 C1358 1.381 . S
C1356 C1362 1.383 . S
C1357 C1353 1.495 . S
C1357 H1363 0.959 . S
C1357 H1364 0.961 . S
C1357 H1365 0.960 . S
C1358 C1356 1.381 . S
C1358 C1359 1.394 . S
C1358 H1366 0.930 . S
C1359 C1358 1.394 . S
C1359 C1360 1.383 . S
C1359 H1367 0.929 . S
C1360 C1359 1.383 . S
C1360 C1361 1.377 . S
C1361 H1345 0.930 . S
C1361 C1360 1.377 . S
C1361 C1362 1.379 . S
C1362 H1346 0.931 . S
C1362 C1356 1.383 . S
C1362 C1361 1.379 . S
H1363 C1357 0.959 . S
H1364 C1357 0.961 . S
H1365 C1357 0.960 . S
H1366 C1358 0.930 . S
H1367 C1359 0.929 . S
H1368 C1376 0.929 . S
H1369 C1378 0.930 . S
H1370 C1380 0.930 . S
H1371 C1383 0.929 . S
H1372 C1386 0.930 . S
H1373 C1388 0.960 . S
H1374 C1388 0.960 . S
H1375 C1388 0.960 . S
C1376 H1368 0.929 . S
C1376 C1377 1.377 . S
C1376 C1378 1.384 . S
C1377 C1376 1.377 . S
C1377 C1383 1.390 . S
C1378 H1369 0.930 . S
C1378 C1376 1.384 . S
C1378 C1379 1.372 . S
C1379 C1378 1.372 . S
C1379 C1380 1.400 . S
C1379 C1384 1.490 . S
C1380 H1370 0.930 . S
C1380 C1379 1.400 . S
C1380 C1383 1.386 . S
H1381 C1397 0.930 . S
H1382 C1398 0.931 . S
C1383 H1371 0.929 . S
C1383 C1377 1.390 . S
C1383 C1380 1.386 . S
C1384 C1379 1.490 . S
C1384 C1386 1.395 . S
C1384 C1387 1.403 . S
H1385 C1391 0.930 . S
C1386 H1372 0.930 . S
C1386 C1384 1.395 . S
C1386 C1389 1.403 . S
C1387 C1384 1.403 . S
C1387 C1388 1.524 . S
C1387 C1391 1.400 . S
C1388 H1373 0.960 . S
C1388 H1374 0.960 . S
C1388 H1375 0.960 . S
C1388 C1387 1.524 . S
C1389 C1386 1.403 . S
C1389 C1390 1.392 . S
C1389 C1393 1.495 . S
C1390 C1389 1.392 . S
C1390 C1391 1.385 . S
C1390 C1392 1.478 . S
C1391 H1385 0.930 . S
C1391 C1387 1.400 . S
C1391 C1390 1.385 . S
C1392 C1390 1.478 . S
C1392 C1394 1.381 . S
C1392 C1398 1.383 . S
C1393 C1389 1.495 . S
C1393 H1399 0.959 . S
C1393 H1400 0.961 . S
C1393 H1401 0.960 . S
C1394 C1392 1.381 . S
C1394 C1395 1.394 . S
C1394 H1402 0.930 . S
C1395 C1394 1.394 . S
C1395 C1396 1.383 . S
C1395 H1403 0.929 . S
C1396 C1395 1.383 . S
C1396 C1397 1.377 . S
C1397 H1381 0.930 . S
C1397 C1396 1.377 . S
C1397 C1398 1.379 . S
C1398 H1382 0.931 . S
C1398 C1392 1.383 . S
C1398 C1397 1.379 . S
H1399 C1393 0.959 . S
H1400 C1393 0.961 . S
H1401 C1393 0.960 . S
H1402 C1394 0.930 . S
H1403 C1395 0.929 . S
H1404 C1412 0.929 . S
H1405 C1414 0.930 . S
H1406 C1416 0.930 . S
H1407 C1419 0.929 . S
H1408 C1422 0.930 . S
H1409 C1424 0.960 . S
H1410 C1424 0.960 . S
H1411 C1424 0.960 . S
C1412 H1404 0.929 . S
C1412 C1413 1.377 . S
C1412 C1414 1.384 . S
C1413 C1412 1.377 . S
C1413 C1419 1.390 . S
C1414 H1405 0.930 . S
C1414 C1412 1.384 . S
C1414 C1415 1.372 . S
C1415 C1414 1.372 . S
C1415 C1416 1.400 . S
C1415 C1420 1.490 . S
C1416 H1406 0.930 . S
C1416 C1415 1.400 . S
C1416 C1419 1.386 . S
H1417 C1433 0.930 . S
H1418 C1434 0.931 . S
C1419 H1407 0.929 . S
C1419 C1413 1.390 . S
C1419 C1416 1.386 . S
C1420 C1415 1.490 . S
C1420 C1422 1.395 . S
C1420 C1423 1.403 . S
H1421 C1427 0.930 . S
C1422 H1408 0.930 . S
C1422 C1420 1.395 . S
C1422 C1425 1.403 . S
C1423 C1420 1.403 . S
C1423 C1424 1.524 . S
C1423 C1427 1.400 . S
C1424 H1409 0.960 . S
C1424 H1410 0.960 . S
C1424 H1411 0.960 . S
C1424 C1423 1.524 . S
C1425 C1422 1.403 . S
C1425 C1426 1.392 . S
C1425 C1429 1.495 . S
C1426 C1425 1.392 . S
C1426 C1427 1.385 . S
C1426 C1428 1.478 . S
C1427 H1421 0.930 . S
C1427 C1423 1.400 . S
C1427 C1426 1.385 . S
C1428 C1426 1.478 . S
C1428 C1430 1.381 . S
C1428 C1434 1.383 . S
C1429 C1425 1.495 . S
C1429 H1435 0.959 . S
C1429 H1436 0.961 . S
C1429 H1437 0.960 . S
C1430 C1428 1.381 . S
C1430 C1431 1.394 . S
C1430 H1438 0.930 . S
C1431 C1430 1.394 . S
C1431 C1432 1.383 . S
C1431 H1439 0.929 . S
C1432 C1431 1.383 . S
C1432 C1433 1.377 . S
C1433 H1417 0.930 . S
C1433 C1432 1.377 . S
C1433 C1434 1.379 . S
C1434 H1418 0.931 . S
C1434 C1428 1.383 . S
C1434 C1433 1.379 . S
H1435 C1429 0.959 . S
H1436 C1429 0.961 . S
H1437 C1429 0.960 . S
H1438 C1430 0.930 . S
H1439 C1431 0.929 . S
H1440 C1448 0.929 . S
H1441 C1450 0.930 . S
H1442 C1452 0.930 . S
H1443 C1455 0.929 . S
H1444 C1458 0.930 . S
H1445 C1460 0.960 . S
H1446 C1460 0.960 . S
H1447 C1460 0.960 . S
C1448 H1440 0.929 . S
C1448 C1449 1.377 . S
C1448 C1450 1.384 . S
C1449 C1448 1.377 . S
C1449 C1455 1.390 . S
C1450 H1441 0.930 . S
C1450 C1448 1.384 . S
C1450 C1451 1.372 . S
C1451 C1450 1.372 . S
C1451 C1452 1.400 . S
C1451 C1456 1.490 . S
C1452 H1442 0.930 . S
C1452 C1451 1.400 . S
C1452 C1455 1.386 . S
H1453 C1469 0.930 . S
H1454 C1470 0.931 . S
C1455 H1443 0.929 . S
C1455 C1449 1.390 . S
C1455 C1452 1.386 . S
C1456 C1451 1.490 . S
C1456 C1458 1.395 . S
C1456 C1459 1.403 . S
H1457 C1463 0.930 . S
C1458 H1444 0.930 . S
C1458 C1456 1.395 . S
C1458 C1461 1.403 . S
C1459 C1456 1.403 . S
C1459 C1460 1.524 . S
C1459 C1463 1.400 . S
C1460 H1445 0.960 . S
C1460 H1446 0.960 . S
C1460 H1447 0.960 . S
C1460 C1459 1.524 . S
C1461 C1458 1.403 . S
C1461 C1462 1.392 . S
C1461 C1465 1.495 . S
C1462 C1461 1.392 . S
C1462 C1463 1.385 . S
C1462 C1464 1.478 . S
C1463 H1457 0.930 . S
C1463 C1459 1.400 . S
C1463 C1462 1.385 . S
C1464 C1462 1.478 . S
C1464 C1466 1.381 . S
C1464 C1470 1.383 . S
C1465 C1461 1.495 . S
C1465 H1471 0.959 . S
C1465 H1472 0.961 . S
C1465 H1473 0.960 . S
C1466 C1464 1.381 . S
C1466 C1467 1.394 . S
C1466 H1474 0.930 . S
C1467 C1466 1.394 . S
C1467 C1468 1.383 . S
C1467 H1475 0.929 . S
C1468 C1467 1.383 . S
C1468 C1469 1.377 . S
C1469 H1453 0.930 . S
C1469 C1468 1.377 . S
C1469 C1470 1.379 . S
C1470 H1454 0.931 . S
C1470 C1464 1.383 . S
C1470 C1469 1.379 . S
H1471 C1465 0.959 . S
H1472 C1465 0.961 . S
H1473 C1465 0.960 . S
H1474 C1466 0.930 . S
H1475 C1467 0.929 . S
H1476 C1484 0.929 . S
H1477 C1486 0.930 . S
H1478 C1488 0.930 . S
H1479 C1491 0.929 . S
H1480 C1494 0.930 . S
H1481 C1496 0.960 . S
H1482 C1496 0.960 . S
H1483 C1496 0.960 . S
C1484 H1476 0.929 . S
C1484 C1485 1.377 . S
C1484 C1486 1.384 . S
C1485 C1484 1.377 . S
C1485 C1491 1.390 . S
C1486 H1477 0.930 . S
C1486 C1484 1.384 . S
C1486 C1487 1.372 . S
C1487 C1486 1.372 . S
C1487 C1488 1.400 . S
C1487 C1492 1.490 . S
C1488 H1478 0.930 . S
C1488 C1487 1.400 . S
C1488 C1491 1.386 . S
H1489 C1505 0.930 . S
H1490 C1506 0.931 . S
C1491 H1479 0.929 . S
C1491 C1485 1.390 . S
C1491 C1488 1.386 . S
C1492 C1487 1.490 . S
C1492 C1494 1.395 . S
C1492 C1495 1.403 . S
H1493 C1499 0.930 . S
C1494 H1480 0.930 . S
C1494 C1492 1.395 . S
C1494 C1497 1.403 . S
C1495 C1492 1.403 . S
C1495 C1496 1.524 . S
C1495 C1499 1.400 . S
C1496 H1481 0.960 . S
C1496 H1482 0.960 . S
C1496 H1483 0.960 . S
C1496 C1495 1.524 . S
C1497 C1494 1.403 . S
C1497 C1498 1.392 . S
C1497 C1501 1.495 . S
C1498 C1497 1.392 . S
C1498 C1499 1.385 . S
C1498 C1500 1.478 . S
C1499 H1493 0.930 . S
C1499 C1495 1.400 . S
C1499 C1498 1.385 . S
C1500 C1498 1.478 . S
C1500 C1502 1.381 . S
C1500 C1506 1.383 . S
C1501 C1497 1.495 . S
C1501 H1507 0.959 . S
C1501 H1508 0.961 . S
C1501 H1509 0.960 . S
C1502 C1500 1.381 . S
C1502 C1503 1.394 . S
C1502 H1510 0.930 . S
C1503 C1502 1.394 . S
C1503 C1504 1.383 . S
C1503 H1511 0.929 . S
C1504 C1503 1.383 . S
C1504 C1505 1.377 . S
C1505 H1489 0.930 . S
C1505 C1504 1.377 . S
C1505 C1506 1.379 . S
C1506 H1490 0.931 . S
C1506 C1500 1.383 . S
C1506 C1505 1.379 . S
H1507 C1501 0.959 . S
H1508 C1501 0.961 . S
H1509 C1501 0.960 . S
H1510 C1502 0.930 . S
H1511 C1503 0.929 . S
H1512 C1520 0.929 . S
H1513 C1522 0.930 . S
H1514 C1524 0.930 . S
H1515 C1527 0.929 . S
H1516 C1530 0.930 . S
H1517 C1532 0.960 . S
H1518 C1532 0.960 . S
H1519 C1532 0.960 . S
C1520 H1512 0.929 . S
C1520 C1521 1.377 . S
C1520 C1522 1.384 . S
C1521 C1520 1.377 . S
C1521 C1527 1.390 . S
C1522 H1513 0.930 . S
C1522 C1520 1.384 . S
C1522 C1523 1.372 . S
C1523 C1522 1.372 . S
C1523 C1524 1.400 . S
C1523 C1528 1.490 . S
C1524 H1514 0.930 . S
C1524 C1523 1.400 . S
C1524 C1527 1.386 . S
H1525 C1541 0.930 . S
H1526 C1542 0.931 . S
C1527 H1515 0.929 . S
C1527 C1521 1.390 . S
C1527 C1524 1.386 . S
C1528 C1523 1.490 . S
C1528 C1530 1.395 . S
C1528 C1531 1.403 . S
H1529 C1535 0.930 . S
C1530 H1516 0.930 . S
C1530 C1528 1.395 . S
C1530 C1533 1.403 . S
C1531 C1528 1.403 . S
C1531 C1532 1.524 . S
C1531 C1535 1.400 . S
C1532 H1517 0.960 . S
C1532 H1518 0.960 . S
C1532 H1519 0.960 . S
C1532 C1531 1.524 . S
C1533 C1530 1.403 . S
C1533 C1534 1.392 . S
C1533 C1537 1.495 . S
C1534 C1533 1.392 . S
C1534 C1535 1.385 . S
C1534 C1536 1.478 . S
C1535 H1529 0.930 . S
C1535 C1531 1.400 . S
C1535 C1534 1.385 . S
C1536 C1534 1.478 . S
C1536 C1538 1.381 . S
C1536 C1542 1.383 . S
C1537 C1533 1.495 . S
C1537 H1543 0.959 . S
C1537 H1544 0.961 . S
C1537 H1545 0.960 . S
C1538 C1536 1.381 . S
C1538 C1539 1.394 . S
C1538 H1546 0.930 . S
C1539 C1538 1.394 . S
C1539 C1540 1.383 . S
C1539 H1547 0.929 . S
C1540 C1539 1.383 . S
C1540 C1541 1.377 . S
C1541 H1525 0.930 . S
C1541 C1540 1.377 . S
C1541 C1542 1.379 . S
C1542 H1526 0.931 . S
C1542 C1536 1.383 . S
C1542 C1541 1.379 . S
H1543 C1537 0.959 . S
H1544 C1537 0.961 . S
H1545 C1537 0.960 . S
H1546 C1538 0.930 . S
H1547 C1539 0.929 . S
H1548 C1556 0.929 . S
H1549 C1558 0.930 . S
H1550 C1560 0.928 1_554 S
H1551 C1563 0.929 . S
H1552 C1566 0.930 . S
H1553 C1568 0.960 . S
H1554 C1568 0.960 . S
H1555 C1568 0.960 . S
C1556 H1548 0.929 . S
C1556 C1557 1.377 . S
C1556 C1558 1.384 1_556 S
C1557 C1556 1.377 . S
C1557 C1563 1.390 . S
C1558 H1549 0.930 . S
C1558 C1556 1.384 1_554 S
C1558 C1559 1.372 . S
C1559 C1558 1.372 . S
C1559 C1560 1.400 1_554 S
C1559 C1564 1.490 . S
C1560 H1550 0.928 1_556 S
C1560 C1559 1.400 1_556 S
C1560 C1563 1.386 . S
H1561 C1577 0.930 . S
H1562 C1578 0.931 . S
C1563 H1551 0.929 . S
C1563 C1557 1.390 . S
C1563 C1560 1.386 . S
C1564 C1559 1.490 . S
C1564 C1566 1.395 . S
C1564 C1567 1.403 . S
H1565 C1571 0.930 . S
C1566 H1552 0.930 . S
C1566 C1564 1.395 . S
C1566 C1569 1.403 . S
C1567 C1564 1.403 . S
C1567 C1568 1.524 . S
C1567 C1571 1.400 . S
C1568 H1553 0.960 . S
C1568 H1554 0.960 . S
C1568 H1555 0.960 . S
C1568 C1567 1.524 . S
C1569 C1566 1.403 . S
C1569 C1570 1.392 . S
C1569 C1573 1.495 . S
C1570 C1569 1.392 . S
C1570 C1571 1.385 . S
C1570 C1572 1.478 . S
C1571 H1565 0.930 . S
C1571 C1567 1.400 . S
C1571 C1570 1.385 . S
C1572 C1570 1.478 . S
C1572 C1574 1.381 . S
C1572 C1578 1.383 . S
C1573 C1569 1.495 . S
C1573 H1579 0.959 . S
C1573 H1580 0.961 . S
C1573 H1581 0.960 . S
C1574 C1572 1.381 . S
C1574 C1575 1.394 . S
C1574 H1582 0.930 . S
C1575 C1574 1.394 . S
C1575 C1576 1.383 . S
C1575 H1583 0.929 . S
C1576 C1575 1.383 . S
C1576 C1577 1.377 . S
C1577 H1561 0.930 . S
C1577 C1576 1.377 . S
C1577 C1578 1.379 . S
C1578 H1562 0.931 . S
C1578 C1572 1.383 . S
C1578 C1577 1.379 . S
H1579 C1573 0.959 . S
H1580 C1573 0.961 . S
H1581 C1573 0.960 . S
H1582 C1574 0.930 . S
H1583 C1575 0.929 . S
H1584 C1592 0.929 . S
H1585 C1594 0.930 . S
H1586 C1596 0.930 . S
H1587 C1599 0.929 . S
H1588 C1602 0.930 . S
H1589 C1604 0.960 . S
H1590 C1604 0.960 . S
H1591 C1604 0.960 . S
C1592 H1584 0.929 . S
C1592 C1593 1.377 . S
C1592 C1594 1.384 1_556 S
C1593 C1592 1.377 . S
C1593 C1599 1.390 . S
C1594 H1585 0.930 . S
C1594 C1592 1.384 1_554 S
C1594 C1595 1.372 . S
C1595 C1594 1.372 . S
C1595 C1596 1.400 . S
C1595 C1600 1.490 . S
C1596 H1586 0.930 . S
C1596 C1595 1.400 . S
C1596 C1599 1.386 1_554 S
H1597 C1613 0.930 . S
H1598 C1614 0.931 . S
C1599 H1587 0.929 . S
C1599 C1593 1.390 . S
C1599 C1596 1.386 1_556 S
C1600 C1595 1.490 . S
C1600 C1602 1.395 . S
C1600 C1603 1.403 . S
H1601 C1607 0.930 . S
C1602 H1588 0.930 . S
C1602 C1600 1.395 . S
C1602 C1605 1.403 . S
C1603 C1600 1.403 . S
C1603 C1604 1.524 . S
C1603 C1607 1.400 . S
C1604 H1589 0.960 . S
C1604 H1590 0.960 . S
C1604 H1591 0.960 . S
C1604 C1603 1.524 . S
C1605 C1602 1.403 . S
C1605 C1606 1.392 . S
C1605 C1609 1.495 . S
C1606 C1605 1.392 . S
C1606 C1607 1.385 . S
C1606 C1608 1.478 . S
C1607 H1601 0.930 . S
C1607 C1603 1.400 . S
C1607 C1606 1.385 . S
C1608 C1606 1.478 . S
C1608 C1610 1.381 . S
C1608 C1614 1.383 . S
C1609 C1605 1.495 . S
C1609 H1615 0.959 . S
C1609 H1616 0.961 . S
C1609 H1617 0.960 . S
C1610 C1608 1.381 . S
C1610 C1611 1.394 . S
C1610 H1618 0.930 . S
C1611 C1610 1.394 . S
C1611 C1612 1.383 . S
C1611 H1619 0.929 . S
C1612 C1611 1.383 . S
C1612 C1613 1.377 . S
C1613 H1597 0.930 . S
C1613 C1612 1.377 . S
C1613 C1614 1.379 . S
C1614 H1598 0.931 . S
C1614 C1608 1.383 . S
C1614 C1613 1.379 . S
H1615 C1609 0.959 . S
H1616 C1609 0.961 . S
H1617 C1609 0.960 . S
H1618 C1610 0.930 . S
H1619 C1611 0.929 . S
H1620 C1628 0.929 . S
H1621 C1630 0.930 . S
H1622 C1632 0.931 . S
H1623 C1635 0.929 . S
H1624 C1638 0.930 . S
H1625 C1640 0.960 . S
H1626 C1640 0.960 . S
H1627 C1640 0.960 . S
C1628 H1620 0.929 . S
C1628 C1629 1.377 . S
C1628 C1630 1.384 1_556 S
C1629 C1628 1.377 . S
C1629 C1635 1.390 . S
C1630 H1621 0.930 . S
C1630 C1628 1.384 1_554 S
C1630 C1631 1.372 . S
C1631 C1630 1.372 . S
C1631 C1632 1.400 1_554 S
C1631 C1636 1.490 . S
C1632 H1622 0.931 . S
C1632 C1631 1.400 1_556 S
C1632 C1635 1.386 . S
H1633 C1649 0.930 . S
H1634 C1650 0.931 . S
C1635 H1623 0.929 . S
C1635 C1629 1.390 . S
C1635 C1632 1.386 . S
C1636 C1631 1.490 . S
C1636 C1638 1.395 . S
C1636 C1639 1.403 . S
H1637 C1643 0.930 . S
C1638 H1624 0.930 . S
C1638 C1636 1.395 . S
C1638 C1641 1.403 . S
C1639 C1636 1.403 . S
C1639 C1640 1.524 . S
C1639 C1643 1.400 . S
C1640 H1625 0.960 . S
C1640 H1626 0.960 . S
C1640 H1627 0.960 . S
C1640 C1639 1.524 . S
C1641 C1638 1.403 . S
C1641 C1642 1.392 . S
C1641 C1645 1.495 . S
C1642 C1641 1.392 . S
C1642 C1643 1.385 . S
C1642 C1644 1.478 . S
C1643 H1637 0.930 . S
C1643 C1639 1.400 . S
C1643 C1642 1.385 . S
C1644 C1642 1.478 . S
C1644 C1646 1.381 . S
C1644 C1650 1.383 . S
C1645 C1641 1.495 . S
C1645 H1651 0.959 . S
C1645 H1652 0.961 . S
C1645 H1653 0.960 . S
C1646 C1644 1.381 . S
C1646 C1647 1.394 . S
C1646 H1654 0.930 . S
C1647 C1646 1.394 . S
C1647 C1648 1.383 . S
C1647 H1655 0.929 . S
C1648 C1647 1.383 . S
C1648 C1649 1.377 . S
C1649 H1633 0.930 . S
C1649 C1648 1.377 . S
C1649 C1650 1.379 . S
C1650 H1634 0.931 . S
C1650 C1644 1.383 . S
C1650 C1649 1.379 . S
H1651 C1645 0.959 . S
H1652 C1645 0.961 . S
H1653 C1645 0.960 . S
H1654 C1646 0.930 . S
H1655 C1647 0.929 . S
H1656 C1664 0.929 . S
H1657 C1666 0.930 . S
H1658 C1668 0.930 . S
H1659 C1671 0.929 . S
H1660 C1674 0.930 . S
H1661 C1676 0.960 . S
H1662 C1676 0.960 . S
H1663 C1676 0.960 . S
C1664 H1656 0.929 . S
C1664 C1665 1.377 . S
C1664 C1666 1.384 . S
C1665 C1664 1.377 . S
C1665 C1671 1.390 . S
C1666 H1657 0.930 . S
C1666 C1664 1.384 . S
C1666 C1667 1.372 . S
C1667 C1666 1.372 . S
C1667 C1668 1.400 . S
C1667 C1672 1.490 . S
C1668 H1658 0.930 . S
C1668 C1667 1.400 . S
C1668 C1671 1.386 . S
H1669 C1685 0.930 . S
H1670 C1686 0.931 1_556 S
C1671 H1659 0.929 . S
C1671 C1665 1.390 . S
C1671 C1668 1.386 . S
C1672 C1667 1.490 . S
C1672 C1674 1.395 . S
C1672 C1675 1.403 . S
H1673 C1679 0.930 . S
C1674 H1660 0.930 . S
C1674 C1672 1.395 . S
C1674 C1677 1.403 . S
C1675 C1672 1.403 . S
C1675 C1676 1.524 . S
C1675 C1679 1.400 . S
C1676 H1661 0.960 . S
C1676 H1662 0.960 . S
C1676 H1663 0.960 . S
C1676 C1675 1.524 . S
C1677 C1674 1.403 . S
C1677 C1678 1.392 . S
C1677 C1681 1.495 . S
C1678 C1677 1.392 . S
C1678 C1679 1.385 . S
C1678 C1680 1.478 1_556 S
C1679 H1673 0.930 . S
C1679 C1675 1.400 . S
C1679 C1678 1.385 . S
C1680 C1678 1.478 1_554 S
C1680 C1682 1.381 . S
C1680 C1686 1.383 . S
C1681 C1677 1.495 . S
C1681 H1687 0.959 . S
C1681 H1688 0.961 . S
C1681 H1689 0.960 . S
C1682 C1680 1.381 . S
C1682 C1683 1.394 . S
C1682 H1690 0.930 . S
C1683 C1682 1.394 . S
C1683 C1684 1.383 . S
C1683 H1691 0.929 . S
C1684 C1683 1.383 . S
C1684 C1685 1.377 . S
C1685 H1669 0.930 . S
C1685 C1684 1.377 . S
C1685 C1686 1.379 . S
C1686 H1670 0.931 1_554 S
C1686 C1680 1.383 . S
C1686 C1685 1.379 . S
H1687 C1681 0.959 . S
H1688 C1681 0.961 . S
H1689 C1681 0.960 . S
H1690 C1682 0.930 . S
H1691 C1683 0.929 . S
H1692 C1700 0.929 . S
H1693 C1702 0.930 . S
H1694 C1704 0.930 . S
H1695 C1707 0.929 . S
H1696 C1710 0.930 . S
H1697 C1712 0.960 . S
H1698 C1712 0.960 . S
H1699 C1712 0.960 . S
C1700 H1692 0.929 . S
C1700 C1701 1.377 . S
C1700 C1702 1.384 . S
C1701 C1700 1.377 . S
C1701 C1707 1.390 . S
C1702 H1693 0.930 . S
C1702 C1700 1.384 . S
C1702 C1703 1.372 . S
C1703 C1702 1.372 . S
C1703 C1704 1.400 . S
C1703 C1708 1.490 . S
C1704 H1694 0.930 . S
C1704 C1703 1.400 . S
C1704 C1707 1.386 . S
H1705 C1721 0.930 . S
H1706 C1722 0.931 1_556 S
C1707 H1695 0.929 . S
C1707 C1701 1.390 . S
C1707 C1704 1.386 . S
C1708 C1703 1.490 . S
C1708 C1710 1.395 . S
C1708 C1711 1.403 . S
H1709 C1715 0.930 . S
C1710 H1696 0.930 . S
C1710 C1708 1.395 . S
C1710 C1713 1.403 . S
C1711 C1708 1.403 . S
C1711 C1712 1.524 . S
C1711 C1715 1.400 . S
C1712 H1697 0.960 . S
C1712 H1698 0.960 . S
C1712 H1699 0.960 . S
C1712 C1711 1.524 . S
C1713 C1710 1.403 . S
C1713 C1714 1.392 . S
C1713 C1717 1.495 . S
C1714 C1713 1.392 . S
C1714 C1715 1.385 . S
C1714 C1716 1.475 1_556 S
C1715 H1709 0.930 . S
C1715 C1711 1.400 . S
C1715 C1714 1.385 . S
C1716 C1714 1.475 1_554 S
C1716 C1718 1.383 . S
C1716 C1722 1.384 . S
C1717 C1713 1.495 . S
C1717 H1723 0.959 . S
C1717 H1724 0.961 . S
C1717 H1725 0.960 . S
C1718 C1716 1.383 . S
C1718 C1719 1.394 . S
C1718 H1726 0.930 . S
C1719 C1718 1.394 . S
C1719 C1720 1.383 . S
C1719 H1727 0.929 . S
C1720 C1719 1.383 . S
C1720 C1721 1.377 . S
C1721 H1705 0.930 . S
C1721 C1720 1.377 . S
C1721 C1722 1.379 . S
C1722 H1706 0.931 1_554 S
C1722 C1716 1.384 . S
C1722 C1721 1.379 . S
H1723 C1717 0.959 . S
H1724 C1717 0.961 . S
H1725 C1717 0.960 . S
H1726 C1718 0.930 . S
H1727 C1719 0.929 . S
H1728 C1736 0.929 . S
H1729 C1738 0.930 . S
H1730 C1740 0.930 . S
H1731 C1743 0.929 . S
H1732 C1746 0.930 . S
H1733 C1748 0.960 . S
H1734 C1748 0.960 . S
H1735 C1748 0.960 . S
C1736 H1728 0.929 . S
C1736 C1737 1.377 . S
C1736 C1738 1.384 . S
C1737 C1736 1.377 . S
C1737 C1743 1.390 . S
C1738 H1729 0.930 . S
C1738 C1736 1.384 . S
C1738 C1739 1.372 . S
C1739 C1738 1.372 . S
C1739 C1740 1.400 . S
C1739 C1744 1.490 . S
C1740 H1730 0.930 . S
C1740 C1739 1.400 . S
C1740 C1743 1.386 . S
H1741 C1757 0.930 . S
H1742 C1758 0.931 . S
C1743 H1731 0.929 . S
C1743 C1737 1.390 . S
C1743 C1740 1.386 . S
C1744 C1739 1.490 . S
C1744 C1746 1.395 . S
C1744 C1747 1.403 . S
H1745 C1751 0.930 . S
C1746 H1732 0.930 . S
C1746 C1744 1.395 . S
C1746 C1749 1.403 . S
C1747 C1744 1.403 . S
C1747 C1748 1.524 . S
C1747 C1751 1.400 . S
C1748 H1733 0.960 . S
C1748 H1734 0.960 . S
C1748 H1735 0.960 . S
C1748 C1747 1.524 . S
C1749 C1746 1.403 . S
C1749 C1750 1.392 . S
C1749 C1753 1.495 . S
C1750 C1749 1.392 . S
C1750 C1751 1.385 . S
C1750 C1752 1.478 1_556 S
C1751 H1745 0.930 . S
C1751 C1747 1.400 . S
C1751 C1750 1.385 . S
C1752 C1750 1.478 1_554 S
C1752 C1754 1.381 . S
C1752 C1758 1.383 . S
C1753 C1749 1.495 . S
C1753 H1759 0.959 . S
C1753 H1760 0.961 . S
C1753 H1761 0.960 . S
C1754 C1752 1.381 . S
C1754 C1755 1.394 . S
C1754 H1762 0.930 1_554 S
C1755 C1754 1.394 . S
C1755 C1756 1.383 . S
C1755 H1763 0.929 . S
C1756 C1755 1.383 . S
C1756 C1757 1.377 . S
C1757 H1741 0.930 . S
C1757 C1756 1.377 . S
C1757 C1758 1.379 . S
C1758 H1742 0.931 . S
C1758 C1752 1.383 . S
C1758 C1757 1.379 . S
H1759 C1753 0.959 . S
H1760 C1753 0.961 . S
H1761 C1753 0.960 . S
H1762 C1754 0.930 1_556 S
H1763 C1755 0.929 . S
H1764 C1772 0.929 . S
H1765 C1774 0.930 . S
H1766 C1776 0.930 . S
H1767 C1779 0.929 . S
H1768 C1782 0.930 . S
H1769 C1784 0.960 . S
H1770 C1784 0.960 . S
H1771 C1784 0.960 . S
C1772 H1764 0.929 . S
C1772 C1773 1.377 . S
C1772 C1774 1.384 . S
C1773 C1772 1.377 . S
C1773 C1779 1.390 . S
C1774 H1765 0.930 . S
C1774 C1772 1.384 . S
C1774 C1775 1.372 . S
C1775 C1774 1.372 . S
C1775 C1776 1.400 . S
C1775 C1780 1.490 . S
C1776 H1766 0.930 . S
C1776 C1775 1.400 . S
C1776 C1779 1.386 . S
H1777 C1793 0.930 . S
H1778 C1794 0.931 . S
C1779 H1767 0.929 . S
C1779 C1773 1.390 . S
C1779 C1776 1.386 . S
C1780 C1775 1.490 . S
C1780 C1782 1.395 . S
C1780 C1783 1.403 . S
H1781 C1787 0.930 . S
C1782 H1768 0.930 . S
C1782 C1780 1.395 . S
C1782 C1785 1.403 . S
C1783 C1780 1.403 . S
C1783 C1784 1.524 . S
C1783 C1787 1.400 . S
C1784 H1769 0.960 . S
C1784 H1770 0.960 . S
C1784 H1771 0.960 . S
C1784 C1783 1.524 . S
C1785 C1782 1.403 . S
C1785 C1786 1.392 . S
C1785 C1789 1.495 . S
C1786 C1785 1.392 . S
C1786 C1787 1.385 . S
C1786 C1788 1.478 . S
C1787 H1781 0.930 . S
C1787 C1783 1.400 . S
C1787 C1786 1.385 . S
C1788 C1786 1.478 . S
C1788 C1790 1.381 . S
C1788 C1794 1.383 . S
C1789 C1785 1.495 . S
C1789 H1795 0.959 . S
C1789 H1796 0.961 . S
C1789 H1797 0.960 . S
C1790 C1788 1.381 . S
C1790 C1791 1.394 . S
C1790 H1798 0.930 . S
C1791 C1790 1.394 . S
C1791 C1792 1.383 . S
C1791 H1799 0.929 . S
C1792 C1791 1.383 . S
C1792 C1793 1.377 . S
C1793 H1777 0.930 . S
C1793 C1792 1.377 . S
C1793 C1794 1.379 . S
C1794 H1778 0.931 . S
C1794 C1788 1.383 . S
C1794 C1793 1.379 . S
H1795 C1789 0.959 . S
H1796 C1789 0.961 . S
H1797 C1789 0.960 . S
H1798 C1790 0.930 . S
H1799 C1791 0.929 . S
H1800 C1808 0.929 . S
H1801 C1810 0.930 . S
H1802 C1812 0.930 . S
H1803 C1815 0.929 . S
H1804 C1818 0.930 . S
H1805 C1820 0.960 . S
H1806 C1820 0.960 . S
H1807 C1820 0.960 . S
C1808 H1800 0.929 . S
C1808 C1809 1.377 . S
C1808 C1810 1.384 . S
C1809 C1808 1.377 . S
C1809 C1815 1.390 . S
C1810 H1801 0.930 . S
C1810 C1808 1.384 . S
C1810 C1811 1.372 . S
C1811 C1810 1.372 . S
C1811 C1812 1.400 . S
C1811 C1816 1.490 . S
C1812 H1802 0.930 . S
C1812 C1811 1.400 . S
C1812 C1815 1.386 . S
H1813 C1829 0.930 . S
H1814 C1830 0.931 . S
C1815 H1803 0.929 . S
C1815 C1809 1.390 . S
C1815 C1812 1.386 . S
C1816 C1811 1.490 . S
C1816 C1818 1.395 . S
C1816 C1819 1.403 . S
H1817 C1823 0.930 . S
C1818 H1804 0.930 . S
C1818 C1816 1.395 . S
C1818 C1821 1.403 . S
C1819 C1816 1.403 . S
C1819 C1820 1.524 . S
C1819 C1823 1.400 . S
C1820 H1805 0.960 . S
C1820 H1806 0.960 . S
C1820 H1807 0.960 . S
C1820 C1819 1.524 . S
C1821 C1818 1.403 . S
C1821 C1822 1.392 . S
C1821 C1825 1.495 . S
C1822 C1821 1.392 . S
C1822 C1823 1.385 . S
C1822 C1824 1.478 . S
C1823 H1817 0.930 . S
C1823 C1819 1.400 . S
C1823 C1822 1.385 . S
C1824 C1822 1.478 . S
C1824 C1826 1.381 . S
C1824 C1830 1.383 . S
C1825 C1821 1.495 . S
C1825 H1831 0.959 . S
C1825 H1832 0.961 . S
C1825 H1833 0.960 . S
C1826 C1824 1.381 . S
C1826 C1827 1.394 . S
C1826 H1834 0.930 . S
C1827 C1826 1.394 . S
C1827 C1828 1.383 . S
C1827 H1835 0.929 . S
C1828 C1827 1.383 . S
C1828 C1829 1.377 . S
C1829 H1813 0.930 . S
C1829 C1828 1.377 . S
C1829 C1830 1.379 . S
C1830 H1814 0.931 . S
C1830 C1824 1.383 . S
C1830 C1829 1.379 . S
H1831 C1825 0.959 . S
H1832 C1825 0.961 . S
H1833 C1825 0.960 . S
H1834 C1826 0.930 . S
H1835 C1827 0.929 . S
H1836 C1844 0.929 . S
H1837 C1846 0.930 . S
H1838 C1848 0.930 . S
H1839 C1851 0.929 . S
H1840 C1854 0.930 . S
H1841 C1856 0.960 . S
H1842 C1856 0.960 . S
H1843 C1856 0.960 . S
C1844 H1836 0.929 . S
C1844 C1845 1.377 . S
C1844 C1846 1.384 . S
C1845 C1844 1.377 . S
C1845 C1851 1.390 . S
C1846 H1837 0.930 . S
C1846 C1844 1.384 . S
C1846 C1847 1.372 . S
C1847 C1846 1.372 . S
C1847 C1848 1.400 . S
C1847 C1852 1.490 . S
C1848 H1838 0.930 . S
C1848 C1847 1.400 . S
C1848 C1851 1.386 . S
H1849 C1865 0.930 . S
H1850 C1866 0.931 . S
C1851 H1839 0.929 . S
C1851 C1845 1.390 . S
C1851 C1848 1.386 . S
C1852 C1847 1.490 . S
C1852 C1854 1.395 . S
C1852 C1855 1.403 . S
H1853 C1859 0.930 . S
C1854 H1840 0.930 . S
C1854 C1852 1.395 . S
C1854 C1857 1.403 . S
C1855 C1852 1.403 . S
C1855 C1856 1.524 . S
C1855 C1859 1.400 . S
C1856 H1841 0.960 . S
C1856 H1842 0.960 . S
C1856 H1843 0.960 . S
C1856 C1855 1.524 . S
C1857 C1854 1.403 . S
C1857 C1858 1.392 . S
C1857 C1861 1.495 . S
C1858 C1857 1.392 . S
C1858 C1859 1.385 . S
C1858 C1860 1.478 . S
C1859 H1853 0.930 . S
C1859 C1855 1.400 . S
C1859 C1858 1.385 . S
C1860 C1858 1.478 . S
C1860 C1862 1.381 . S
C1860 C1866 1.383 . S
C1861 C1857 1.495 . S
C1861 H1867 0.959 . S
C1861 H1868 0.961 . S
C1861 H1869 0.960 . S
C1862 C1860 1.381 . S
C1862 C1863 1.394 . S
C1862 H1870 0.930 . S
C1863 C1862 1.394 . S
C1863 C1864 1.383 . S
C1863 H1871 0.929 . S
C1864 C1863 1.383 . S
C1864 C1865 1.377 . S
C1865 H1849 0.930 . S
C1865 C1864 1.377 . S
C1865 C1866 1.379 . S
C1866 H1850 0.931 . S
C1866 C1860 1.383 . S
C1866 C1865 1.379 . S
H1867 C1861 0.959 . S
H1868 C1861 0.961 . S
H1869 C1861 0.960 . S
H1870 C1862 0.930 . S
H1871 C1863 0.929 . S
H1872 C1880 0.929 . S
H1873 C1882 0.930 . S
H1874 C1884 0.930 . S
H1875 C1887 0.929 . S
H1876 C1890 0.930 . S
H1877 C1892 0.960 . S
H1878 C1892 0.960 . S
H1879 C1892 0.960 . S
C1880 H1872 0.929 . S
C1880 C1881 1.377 . S
C1880 C1882 1.384 . S
C1881 C1880 1.377 . S
C1881 C1887 1.390 . S
C1882 H1873 0.930 . S
C1882 C1880 1.384 . S
C1882 C1883 1.372 . S
C1883 C1882 1.372 . S
C1883 C1884 1.400 . S
C1883 C1888 1.490 . S
C1884 H1874 0.930 . S
C1884 C1883 1.400 . S
C1884 C1887 1.386 . S
H1885 C1901 0.930 . S
H1886 C1902 0.931 . S
C1887 H1875 0.929 . S
C1887 C1881 1.390 . S
C1887 C1884 1.386 . S
C1888 C1883 1.490 . S
C1888 C1890 1.395 . S
C1888 C1891 1.403 . S
H1889 C1895 0.930 . S
C1890 H1876 0.930 . S
C1890 C1888 1.395 . S
C1890 C1893 1.403 . S
C1891 C1888 1.403 . S
C1891 C1892 1.524 . S
C1891 C1895 1.400 . S
C1892 H1877 0.960 . S
C1892 H1878 0.960 . S
C1892 H1879 0.960 . S
C1892 C1891 1.524 . S
C1893 C1890 1.403 . S
C1893 C1894 1.392 . S
C1893 C1897 1.495 . S
C1894 C1893 1.392 . S
C1894 C1895 1.385 . S
C1894 C1896 1.478 . S
C1895 H1889 0.930 . S
C1895 C1891 1.400 . S
C1895 C1894 1.385 . S
C1896 C1894 1.478 . S
C1896 C1898 1.381 . S
C1896 C1902 1.383 . S
C1897 C1893 1.495 . S
C1897 H1903 0.959 . S
C1897 H1904 0.961 . S
C1897 H1905 0.960 . S
C1898 C1896 1.381 . S
C1898 C1899 1.394 1_565 S
C1898 H1906 0.930 . S
C1899 C1898 1.394 1_545 S
C1899 C1900 1.383 . S
C1899 H1907 0.929 . S
C1900 C1899 1.383 . S
C1900 C1901 1.377 . S
C1901 H1885 0.930 . S
C1901 C1900 1.377 . S
C1901 C1902 1.379 1_545 S
C1902 H1886 0.931 . S
C1902 C1896 1.383 . S
C1902 C1901 1.379 1_565 S
H1903 C1897 0.959 . S
H1904 C1897 0.961 . S
H1905 C1897 0.960 . S
H1906 C1898 0.930 . S
H1907 C1899 0.929 . S
H1908 C1916 0.911 . S
H1909 C1918 0.930 . S
H1910 C1920 0.930 . S
H1911 C1923 0.929 . S
H1912 C1926 0.930 . S
H1913 C1928 0.960 . S
H1914 C1928 0.960 . S
H1915 C1928 0.960 . S
C1916 H1908 0.911 . S
C1916 C1917 1.355 1_455 S
C1916 C1918 1.426 . S
C1917 C1916 1.355 1_655 S
C1917 C1923 1.390 . S
C1918 H1909 0.930 . S
C1918 C1916 1.426 . S
C1918 C1919 1.372 . S
C1919 C1918 1.372 . S
C1919 C1920 1.400 1_455 S
C1919 C1924 1.490 . S
C1920 H1910 0.930 . S
C1920 C1919 1.400 1_655 S
C1920 C1923 1.386 . S
H1921 C1937 0.930 . S
H1922 C1938 0.931 . S
C1923 H1911 0.929 . S
C1923 C1917 1.390 . S
C1923 C1920 1.386 . S
C1924 C1919 1.490 . S
C1924 C1926 1.395 . S
C1924 C1927 1.403 . S
H1925 C1931 0.930 . S
C1926 H1912 0.930 . S
C1926 C1924 1.395 . S
C1926 C1929 1.403 . S
C1927 C1924 1.403 . S
C1927 C1928 1.524 . S
C1927 C1931 1.400 . S
C1928 H1913 0.960 . S
C1928 H1914 0.960 . S
C1928 H1915 0.960 . S
C1928 C1927 1.524 . S
C1929 C1926 1.403 . S
C1929 C1930 1.392 . S
C1929 C1933 1.495 . S
C1930 C1929 1.392 . S
C1930 C1931 1.385 . S
C1930 C1932 1.478 . S
C1931 H1925 0.930 . S
C1931 C1927 1.400 . S
C1931 C1930 1.385 . S
C1932 C1930 1.478 . S
C1932 C1934 1.381 . S
C1932 C1938 1.383 . S
C1933 C1929 1.495 . S
C1933 H1939 0.959 . S
C1933 H1940 0.961 . S
C1933 H1941 0.960 . S
C1934 C1932 1.381 . S
C1934 C1935 1.394 . S
C1934 H1942 0.930 . S
C1935 C1934 1.394 . S
C1935 C1936 1.383 . S
C1935 H1943 0.929 . S
C1936 C1935 1.383 . S
C1936 C1937 1.377 . S
C1937 H1921 0.930 . S
C1937 C1936 1.377 . S
C1937 C1938 1.379 . S
C1938 H1922 0.931 . S
C1938 C1932 1.383 . S
C1938 C1937 1.379 . S
H1939 C1933 0.959 . S
H1940 C1933 0.961 . S
H1941 C1933 0.960 . S
H1942 C1934 0.930 . S
H1943 C1935 0.929 . S
H1944 C1952 0.929 . S
H1945 C1954 0.930 . S
H1946 C1956 0.930 . S
H1947 C1959 0.929 . S
H1948 C1962 0.930 . S
H1949 C1964 0.960 . S
H1950 C1964 0.960 . S
H1951 C1964 0.960 . S
C1952 H1944 0.929 . S
C1952 C1953 1.377 . S
C1952 C1954 1.384 . S
C1953 C1952 1.377 . S
C1953 C1959 1.390 . S
C1954 H1945 0.930 . S
C1954 C1952 1.384 . S
C1954 C1955 1.372 . S
C1955 C1954 1.372 . S
C1955 C1956 1.400 . S
C1955 C1960 1.490 . S
C1956 H1946 0.930 . S
C1956 C1955 1.400 . S
C1956 C1959 1.386 . S
H1957 C1973 0.930 . S
H1958 C1974 0.931 . S
C1959 H1947 0.929 . S
C1959 C1953 1.390 . S
C1959 C1956 1.386 . S
C1960 C1955 1.490 . S
C1960 C1962 1.395 . S
C1960 C1963 1.403 . S
H1961 C1967 0.930 . S
C1962 H1948 0.930 . S
C1962 C1960 1.395 . S
C1962 C1965 1.403 . S
C1963 C1960 1.403 . S
C1963 C1964 1.524 . S
C1963 C1967 1.400 . S
C1964 H1949 0.960 . S
C1964 H1950 0.960 . S
C1964 H1951 0.960 . S
C1964 C1963 1.524 . S
C1965 C1962 1.403 . S
C1965 C1966 1.392 . S
C1965 C1969 1.495 . S
C1966 C1965 1.392 . S
C1966 C1967 1.385 . S
C1966 C1968 1.478 . S
C1967 H1961 0.930 . S
C1967 C1963 1.400 . S
C1967 C1966 1.385 . S
C1968 C1966 1.478 . S
C1968 C1970 1.381 . S
C1968 C1974 1.383 . S
C1969 C1965 1.495 . S
C1969 H1975 0.959 . S
C1969 H1976 0.961 . S
C1969 H1977 0.960 . S
C1970 C1968 1.381 . S
C1970 C1971 1.394 . S
C1970 H1978 0.930 . S
C1971 C1970 1.394 . S
C1971 C1972 1.383 . S
C1971 H1979 0.929 . S
C1972 C1971 1.383 . S
C1972 C1973 1.377 . S
C1973 H1957 0.930 . S
C1973 C1972 1.377 . S
C1973 C1974 1.379 . S
C1974 H1958 0.931 . S
C1974 C1968 1.383 . S
C1974 C1973 1.379 . S
H1975 C1969 0.959 . S
H1976 C1969 0.961 . S
H1977 C1969 0.960 . S
H1978 C1970 0.930 . S
H1979 C1971 0.929 . S
H1980 C1988 0.929 . S
H1981 C1990 0.930 . S
H1982 C1992 0.930 . S
H1983 C1995 0.929 . S
H1984 C1998 0.930 . S
H1985 C2000 0.960 . S
H1986 C2000 0.960 . S
H1987 C2000 0.960 . S
C1988 H1980 0.929 . S
C1988 C1989 1.377 . S
C1988 C1990 1.384 . S
C1989 C1988 1.377 . S
C1989 C1995 1.390 1_655 S
C1990 H1981 0.930 . S
C1990 C1988 1.384 . S
C1990 C1991 1.372 1_655 S
C1991 C1990 1.372 1_455 S
C1991 C1992 1.400 . S
C1991 C1996 1.490 . S
C1992 H1982 0.930 . S
C1992 C1991 1.400 . S
C1992 C1995 1.386 . S
H1993 C2009 0.930 . S
H1994 C2010 0.931 . S
C1995 H1983 0.929 . S
C1995 C1989 1.390 1_455 S
C1995 C1992 1.386 . S
C1996 C1991 1.490 . S
C1996 C1998 1.395 . S
C1996 C1999 1.403 . S
H1997 C2003 0.930 . S
C1998 H1984 0.930 . S
C1998 C1996 1.395 . S
C1998 C2001 1.403 . S
C1999 C1996 1.403 . S
C1999 C2000 1.524 . S
C1999 C2003 1.400 . S
C2000 H1985 0.960 . S
C2000 H1986 0.960 . S
C2000 H1987 0.960 . S
C2000 C1999 1.524 . S
C2001 C1998 1.403 . S
C2001 C2002 1.392 . S
C2001 C2005 1.495 . S
C2002 C2001 1.392 . S
C2002 C2003 1.385 . S
C2002 C2004 1.478 . S
C2003 H1997 0.930 . S
C2003 C1999 1.400 . S
C2003 C2002 1.385 . S
C2004 C2002 1.478 . S
C2004 C2006 1.381 . S
C2004 C2010 1.383 . S
C2005 C2001 1.495 . S
C2005 H2011 0.959 . S
C2005 H2012 0.961 . S
C2005 H2013 0.960 . S
C2006 C2004 1.381 . S
C2006 C2007 1.394 . S
C2006 H2014 0.930 . S
C2007 C2006 1.394 . S
C2007 C2008 1.383 . S
C2007 H2015 0.929 . S
C2008 C2007 1.383 . S
C2008 C2009 1.377 . S
C2009 H1993 0.930 . S
C2009 C2008 1.377 . S
C2009 C2010 1.379 . S
C2010 H1994 0.931 . S
C2010 C2004 1.383 . S
C2010 C2009 1.379 . S
H2011 C2005 0.959 . S
H2012 C2005 0.961 . S
H2013 C2005 0.960 . S
H2014 C2006 0.930 . S
H2015 C2007 0.929 . S
H2016 C2024 0.929 . S
H2017 C2026 0.930 . S
H2018 C2028 0.930 . S
H2019 C2031 0.929 . S
H2020 C2034 0.930 . S
H2021 C2036 0.960 . S
H2022 C2036 0.960 . S
H2023 C2036 0.960 . S
C2024 H2016 0.929 . S
C2024 C2025 1.377 . S
C2024 C2026 1.384 . S
C2025 C2024 1.377 . S
C2025 C2031 1.390 . S
C2026 H2017 0.930 . S
C2026 C2024 1.384 . S
C2026 C2027 1.372 . S
C2027 C2026 1.372 . S
C2027 C2028 1.400 . S
C2027 C2032 1.490 . S
C2028 H2018 0.930 . S
C2028 C2027 1.400 . S
C2028 C2031 1.386 . S
H2029 C2045 0.930 . S
H2030 C2046 0.931 . S
C2031 H2019 0.929 . S
C2031 C2025 1.390 . S
C2031 C2028 1.386 . S
C2032 C2027 1.490 . S
C2032 C2034 1.395 . S
C2032 C2035 1.403 . S
H2033 C2039 0.930 . S
C2034 H2020 0.930 . S
C2034 C2032 1.395 . S
C2034 C2037 1.403 . S
C2035 C2032 1.403 . S
C2035 C2036 1.524 . S
C2035 C2039 1.400 . S
C2036 H2021 0.960 . S
C2036 H2022 0.960 . S
C2036 H2023 0.960 . S
C2036 C2035 1.524 . S
C2037 C2034 1.403 . S
C2037 C2038 1.392 . S
C2037 C2041 1.495 . S
C2038 C2037 1.392 . S
C2038 C2039 1.385 . S
C2038 C2040 1.478 . S
C2039 H2033 0.930 . S
C2039 C2035 1.400 . S
C2039 C2038 1.385 . S
C2040 C2038 1.478 . S
C2040 C2042 1.381 . S
C2040 C2046 1.383 . S
C2041 C2037 1.495 . S
C2041 H2047 0.959 . S
C2041 H2048 0.961 . S
C2041 H2049 0.960 . S
C2042 C2040 1.381 . S
C2042 C2043 1.394 . S
C2042 H2050 0.930 . S
C2043 C2042 1.394 . S
C2043 C2044 1.383 . S
C2043 H2051 0.929 . S
C2044 C2043 1.383 . S
C2044 C2045 1.377 . S
C2045 H2029 0.930 . S
C2045 C2044 1.377 . S
C2045 C2046 1.379 . S
C2046 H2030 0.931 . S
C2046 C2040 1.383 . S
C2046 C2045 1.379 . S
H2047 C2041 0.959 . S
H2048 C2041 0.961 . S
H2049 C2041 0.960 . S
H2050 C2042 0.930 . S
H2051 C2043 0.929 . S
H2052 C2060 0.929 . S
H2053 C2062 0.930 . S
H2054 C2064 0.930 . S
H2055 C2067 0.929 . S
H2056 C2070 0.930 . S
H2057 C2072 0.960 . S
H2058 C2072 0.960 . S
H2059 C2072 0.960 . S
C2060 H2052 0.929 . S
C2060 C2061 1.377 . S
C2060 C2062 1.384 . S
C2061 C2060 1.377 . S
C2061 C2067 1.390 . S
C2062 H2053 0.930 . S
C2062 C2060 1.384 . S
C2062 C2063 1.372 . S
C2063 C2062 1.372 . S
C2063 C2064 1.400 . S
C2063 C2068 1.490 . S
C2064 H2054 0.930 . S
C2064 C2063 1.400 . S
C2064 C2067 1.386 . S
H2065 C2081 0.930 . S
H2066 C2082 0.931 . S
C2067 H2055 0.929 . S
C2067 C2061 1.390 . S
C2067 C2064 1.386 . S
C2068 C2063 1.490 . S
C2068 C2070 1.395 . S
C2068 C2071 1.403 . S
H2069 C2075 0.930 . S
C2070 H2056 0.930 . S
C2070 C2068 1.395 . S
C2070 C2073 1.403 . S
C2071 C2068 1.403 . S
C2071 C2072 1.524 . S
C2071 C2075 1.400 . S
C2072 H2057 0.960 . S
C2072 H2058 0.960 . S
C2072 H2059 0.960 . S
C2072 C2071 1.524 . S
C2073 C2070 1.403 . S
C2073 C2074 1.392 . S
C2073 C2077 1.495 . S
C2074 C2073 1.392 . S
C2074 C2075 1.385 . S
C2074 C2076 1.478 . S
C2075 H2069 0.930 . S
C2075 C2071 1.400 . S
C2075 C2074 1.385 . S
C2076 C2074 1.478 . S
C2076 C2078 1.381 . S
C2076 C2082 1.383 . S
C2077 C2073 1.495 . S
C2077 H2083 0.959 . S
C2077 H2084 0.977 . S
C2077 H2085 0.960 . S
C2078 C2076 1.381 . S
C2078 C2079 1.394 1_565 S
C2078 H2086 0.930 . S
C2079 C2078 1.394 1_545 S
C2079 C2080 1.383 . S
C2079 H2087 0.929 . S
C2080 C2079 1.383 . S
C2080 C2081 1.377 . S
C2081 H2065 0.930 . S
C2081 C2080 1.377 . S
C2081 C2082 1.379 1_545 S
C2082 H2066 0.931 . S
C2082 C2076 1.383 . S
C2082 C2081 1.379 1_565 S
H2083 C2077 0.959 . S
H2084 C2077 0.977 . S
H2085 C2077 0.960 . S
H2086 C2078 0.930 . S
H2087 C2079 0.929 . S
H2088 C2096 0.929 . S
H2089 C2098 0.930 . S
H2090 C2100 0.930 . S
H2091 C2103 0.929 . S
H2092 C2106 0.930 . S
H2093 C2108 0.960 . S
H2094 C2108 0.960 . S
H2095 C2108 0.960 . S
C2096 H2088 0.929 . S
C2096 C2097 1.377 . S
C2096 C2098 1.384 . S
C2097 C2096 1.377 . S
C2097 C2103 1.390 . S
C2098 H2089 0.930 . S
C2098 C2096 1.384 . S
C2098 C2099 1.372 . S
C2099 C2098 1.372 . S
C2099 C2100 1.400 . S
C2099 C2104 1.490 . S
C2100 H2090 0.930 . S
C2100 C2099 1.400 . S
C2100 C2103 1.386 . S
H2101 C2117 0.930 . S
H2102 C2118 0.931 . S
C2103 H2091 0.929 . S
C2103 C2097 1.390 . S
C2103 C2100 1.386 . S
C2104 C2099 1.490 . S
C2104 C2106 1.395 . S
C2104 C2107 1.403 . S
H2105 C2111 0.930 . S
C2106 H2092 0.930 . S
C2106 C2104 1.395 . S
C2106 C2109 1.403 . S
C2107 C2104 1.403 . S
C2107 C2108 1.524 . S
C2107 C2111 1.400 . S
C2108 H2093 0.960 . S
C2108 H2094 0.960 . S
C2108 H2095 0.960 . S
C2108 C2107 1.524 . S
C2109 C2106 1.403 . S
C2109 C2110 1.392 . S
C2109 C2113 1.495 . S
C2110 C2109 1.392 . S
C2110 C2111 1.385 . S
C2110 C2112 1.478 . S
C2111 H2105 0.930 . S
C2111 C2107 1.400 . S
C2111 C2110 1.385 . S
C2112 C2110 1.478 . S
C2112 C2114 1.381 . S
C2112 C2118 1.383 . S
C2113 C2109 1.495 . S
C2113 H2119 0.959 . S
C2113 H2120 0.961 . S
C2113 H2121 0.960 . S
C2114 C2112 1.381 . S
C2114 C2115 1.394 . S
C2114 H2122 0.930 . S
C2115 C2114 1.394 . S
C2115 C2116 1.383 1_455 S
C2115 H2123 0.929 . S
C2116 C2115 1.383 1_655 S
C2116 C2117 1.377 . S
C2117 H2101 0.930 . S
C2117 C2116 1.377 . S
C2117 C2118 1.379 1_655 S
C2118 H2102 0.931 . S
C2118 C2112 1.383 . S
C2118 C2117 1.379 1_455 S
H2119 C2113 0.959 . S
H2120 C2113 0.961 . S
H2121 C2113 0.960 . S
H2122 C2114 0.930 . S
H2123 C2115 0.929 . S
H2124 C2132 0.929 . S
H2125 C2134 0.930 . S
H2126 C2136 0.930 . S
H2127 C2139 0.929 . S
H2128 C2142 0.930 . S
H2129 C2144 0.960 . S
H2130 C2144 0.960 . S
H2131 C2144 0.960 . S
C2132 H2124 0.929 . S
C2132 C2133 1.377 . S
C2132 C2134 1.384 . S
C2133 C2132 1.377 . S
C2133 C2139 1.390 . S
C2134 H2125 0.930 . S
C2134 C2132 1.384 . S
C2134 C2135 1.372 . S
C2135 C2134 1.372 . S
C2135 C2136 1.400 . S
C2135 C2140 1.490 . S
C2136 H2126 0.930 . S
C2136 C2135 1.400 . S
C2136 C2139 1.386 . S
H2137 C2153 0.930 . S
H2138 C2154 0.931 . S
C2139 H2127 0.929 . S
C2139 C2133 1.390 . S
C2139 C2136 1.386 . S
C2140 C2135 1.490 . S
C2140 C2142 1.395 . S
C2140 C2143 1.403 . S
H2141 C2147 0.930 . S
C2142 H2128 0.930 . S
C2142 C2140 1.395 . S
C2142 C2145 1.403 . S
C2143 C2140 1.403 . S
C2143 C2144 1.524 . S
C2143 C2147 1.400 . S
C2144 H2129 0.960 . S
C2144 H2130 0.960 . S
C2144 H2131 0.960 . S
C2144 C2143 1.524 . S
C2145 C2142 1.403 . S
C2145 C2146 1.392 . S
C2145 C2149 1.495 . S
C2146 C2145 1.392 . S
C2146 C2147 1.385 . S
C2146 C2148 1.478 . S
C2147 H2141 0.930 . S
C2147 C2143 1.400 . S
C2147 C2146 1.385 . S
C2148 C2146 1.478 . S
C2148 C2150 1.381 . S
C2148 C2154 1.383 . S
C2149 C2145 1.495 . S
C2149 H2155 0.959 . S
C2149 H2156 0.961 . S
C2149 H2157 0.960 . S
C2150 C2148 1.381 . S
C2150 C2151 1.394 . S
C2150 H2158 0.930 . S
C2151 C2150 1.394 . S
C2151 C2152 1.383 . S
C2151 H2159 0.929 . S
C2152 C2151 1.383 . S
C2152 C2153 1.377 . S
C2153 H2137 0.930 . S
C2153 C2152 1.377 . S
C2153 C2154 1.379 . S
C2154 H2138 0.931 . S
C2154 C2148 1.383 . S
C2154 C2153 1.379 . S
H2155 C2149 0.959 . S
H2156 C2149 0.961 . S
H2157 C2149 0.960 . S
H2158 C2150 0.930 . S
H2159 C2151 0.929 . S
H2160 C2168 0.929 . S
H2161 C2170 0.930 . S
H2162 C2172 0.930 . S
H2163 C2175 0.929 . S
H2164 C2178 0.930 . S
H2165 C2180 0.960 . S
H2166 C2180 0.960 . S
H2167 C2180 0.960 . S
C2168 H2160 0.929 . S
C2168 C2169 1.377 . S
C2168 C2170 1.384 . S
C2169 C2168 1.377 . S
C2169 C2175 1.390 . S
C2170 H2161 0.930 . S
C2170 C2168 1.384 . S
C2170 C2171 1.372 . S
C2171 C2170 1.372 . S
C2171 C2172 1.400 . S
C2171 C2176 1.490 . S
C2172 H2162 0.930 . S
C2172 C2171 1.400 . S
C2172 C2175 1.386 . S
H2173 C2189 0.930 . S
H2174 C2190 0.931 . S
C2175 H2163 0.929 . S
C2175 C2169 1.390 . S
C2175 C2172 1.386 . S
C2176 C2171 1.490 . S
C2176 C2178 1.395 . S
C2176 C2179 1.403 . S
H2177 C2183 0.930 . S
C2178 H2164 0.930 . S
C2178 C2176 1.395 . S
C2178 C2181 1.403 . S
C2179 C2176 1.403 . S
C2179 C2180 1.524 . S
C2179 C2183 1.400 . S
C2180 H2165 0.960 . S
C2180 H2166 0.960 . S
C2180 H2167 0.960 . S
C2180 C2179 1.524 . S
C2181 C2178 1.403 . S
C2181 C2182 1.392 . S
C2181 C2185 1.495 . S
C2182 C2181 1.392 . S
C2182 C2183 1.385 . S
C2182 C2184 1.478 . S
C2183 H2177 0.930 . S
C2183 C2179 1.400 . S
C2183 C2182 1.385 . S
C2184 C2182 1.478 . S
C2184 C2186 1.381 . S
C2184 C2190 1.383 . S
C2185 C2181 1.495 . S
C2185 H2191 0.959 . S
C2185 H2192 0.961 . S
C2185 H2193 0.960 . S
C2186 C2184 1.381 . S
C2186 C2187 1.394 . S
C2186 H2194 0.930 . S
C2187 C2186 1.394 . S
C2187 C2188 1.383 1_565 S
C2187 H2195 0.929 . S
C2188 C2187 1.383 1_545 S
C2188 C2189 1.377 . S
C2189 H2173 0.930 . S
C2189 C2188 1.377 . S
C2189 C2190 1.379 1_545 S
C2190 H2174 0.931 . S
C2190 C2184 1.383 . S
C2190 C2189 1.379 1_565 S
H2191 C2185 0.959 . S
H2192 C2185 0.961 . S
H2193 C2185 0.960 . S
H2194 C2186 0.930 . S
H2195 C2187 0.929 . S
H2196 C2204 0.929 . S
H2197 C2206 0.930 . S
H2198 C2208 0.930 . S
H2199 C2211 0.929 . S
H2200 C2214 0.930 . S
H2201 C2216 0.960 . S
H2202 C2216 0.960 . S
H2203 C2216 0.960 . S
C2204 H2196 0.929 . S
C2204 C2205 1.377 1_565 S
C2204 C2206 1.384 . S
C2205 C2204 1.377 1_545 S
C2205 C2211 1.390 . S
C2206 H2197 0.930 . S
C2206 C2204 1.384 . S
C2206 C2207 1.372 . S
C2207 C2206 1.372 . S
C2207 C2208 1.400 . S
C2207 C2212 1.490 . S
C2208 H2198 0.930 . S
C2208 C2207 1.400 . S
C2208 C2211 1.386 1_565 S
H2209 C2225 0.930 . S
H2210 C2226 0.931 . S
C2211 H2199 0.929 . S
C2211 C2205 1.390 . S
C2211 C2208 1.386 1_545 S
C2212 C2207 1.490 . S
C2212 C2214 1.395 . S
C2212 C2215 1.403 . S
H2213 C2219 0.930 . S
C2214 H2200 0.930 . S
C2214 C2212 1.395 . S
C2214 C2217 1.403 . S
C2215 C2212 1.403 . S
C2215 C2216 1.524 . S
C2215 C2219 1.400 . S
C2216 H2201 0.960 . S
C2216 H2202 0.960 . S
C2216 H2203 0.960 . S
C2216 C2215 1.524 . S
C2217 C2214 1.403 . S
C2217 C2218 1.392 . S
C2217 C2221 1.495 . S
C2218 C2217 1.392 . S
C2218 C2219 1.385 . S
C2218 C2220 1.478 . S
C2219 H2213 0.930 . S
C2219 C2215 1.400 . S
C2219 C2218 1.385 . S
C2220 C2218 1.478 . S
C2220 C2222 1.381 . S
C2220 C2226 1.383 . S
C2221 C2217 1.495 . S
C2221 H2227 0.959 . S
C2221 H2228 0.961 . S
C2221 H2229 0.960 . S
C2222 C2220 1.381 . S
C2222 C2223 1.394 . S
C2222 H2230 0.930 . S
C2223 C2222 1.394 . S
C2223 C2224 1.383 . S
C2223 H2231 0.929 . S
C2224 C2223 1.383 . S
C2224 C2225 1.377 . S
C2225 H2209 0.930 . S
C2225 C2224 1.377 . S
C2225 C2226 1.379 . S
C2226 H2210 0.931 . S
C2226 C2220 1.383 . S
C2226 C2225 1.379 . S
H2227 C2221 0.959 . S
H2228 C2221 0.961 . S
H2229 C2221 0.960 . S
H2230 C2222 0.930 . S
H2231 C2223 0.929 . S
H2232 C2240 0.929 . S
H2233 C2242 0.930 . S
H2234 C2244 0.930 . S
H2235 C2247 0.929 . S
H2236 C2250 0.930 . S
H2237 C2252 0.960 . S
H2238 C2252 0.960 . S
H2239 C2252 0.960 . S
C2240 H2232 0.929 . S
C2240 C2241 1.377 . S
C2240 C2242 1.384 1_655 S
C2241 C2240 1.377 . S
C2241 C2247 1.390 1_655 S
C2242 H2233 0.930 . S
C2242 C2240 1.384 1_455 S
C2242 C2243 1.372 . S
C2243 C2242 1.372 . S
C2243 C2244 1.400 . S
C2243 C2248 1.490 . S
C2244 H2234 0.930 . S
C2244 C2243 1.400 . S
C2244 C2247 1.386 . S
H2245 C2261 0.930 . S
H2246 C2262 0.931 . S
C2247 H2235 0.929 . S
C2247 C2241 1.390 1_455 S
C2247 C2244 1.386 . S
C2248 C2243 1.490 . S
C2248 C2250 1.395 . S
C2248 C2251 1.403 . S
H2249 C2255 0.930 . S
C2250 H2236 0.930 . S
C2250 C2248 1.395 . S
C2250 C2253 1.403 . S
C2251 C2248 1.403 . S
C2251 C2252 1.524 . S
C2251 C2255 1.400 . S
C2252 H2237 0.960 . S
C2252 H2238 0.960 . S
C2252 H2239 0.960 . S
C2252 C2251 1.524 . S
C2253 C2250 1.403 . S
C2253 C2254 1.392 . S
C2253 C2257 1.495 . S
C2254 C2253 1.392 . S
C2254 C2255 1.385 . S
C2254 C2256 1.478 . S
C2255 H2249 0.930 . S
C2255 C2251 1.400 . S
C2255 C2254 1.385 . S
C2256 C2254 1.478 . S
C2256 C2258 1.381 . S
C2256 C2262 1.383 . S
C2257 C2253 1.495 . S
C2257 H2263 0.959 . S
C2257 H2264 0.961 . S
C2257 H2265 0.960 . S
C2258 C2256 1.381 . S
C2258 C2259 1.394 . S
C2258 H2266 0.930 . S
C2259 C2258 1.394 . S
C2259 C2260 1.383 . S
C2259 H2267 0.929 . S
C2260 C2259 1.383 . S
C2260 C2261 1.377 . S
C2261 H2245 0.930 . S
C2261 C2260 1.377 . S
C2261 C2262 1.379 . S
C2262 H2246 0.931 . S
C2262 C2256 1.383 . S
C2262 C2261 1.379 . S
H2263 C2257 0.959 . S
H2264 C2257 0.961 . S
H2265 C2257 0.960 . S
H2266 C2258 0.930 . S
H2267 C2259 0.929 . S
H2268 C2276 0.929 . S
H2269 C2278 0.930 . S
H2270 C2280 0.930 . S
H2271 C2283 0.929 . S
H2272 C2286 0.930 . S
H2273 C2288 0.960 . S
H2274 C2288 0.960 . S
H2275 C2288 0.960 . S
C2276 H2268 0.929 . S
C2276 C2277 1.377 . S
C2276 C2278 1.384 . S
C2277 C2276 1.377 . S
C2277 C2283 1.390 . S
C2278 H2269 0.930 . S
C2278 C2276 1.384 . S
C2278 C2279 1.372 . S
C2279 C2278 1.372 . S
C2279 C2280 1.400 . S
C2279 C2284 1.490 . S
C2280 H2270 0.930 . S
C2280 C2279 1.400 . S
C2280 C2283 1.386 . S
H2281 C2297 0.930 . S
H2282 C2298 0.931 . S
C2283 H2271 0.929 . S
C2283 C2277 1.390 . S
C2283 C2280 1.386 . S
C2284 C2279 1.490 . S
C2284 C2286 1.395 . S
C2284 C2287 1.403 . S
H2285 C2291 0.930 . S
C2286 H2272 0.930 . S
C2286 C2284 1.395 . S
C2286 C2289 1.403 . S
C2287 C2284 1.403 . S
C2287 C2288 1.524 . S
C2287 C2291 1.400 . S
C2288 H2273 0.960 . S
C2288 H2274 0.960 . S
C2288 H2275 0.960 . S
C2288 C2287 1.524 . S
C2289 C2286 1.403 . S
C2289 C2290 1.392 . S
C2289 C2293 1.495 . S
C2290 C2289 1.392 . S
C2290 C2291 1.385 . S
C2290 C2292 1.478 . S
C2291 H2285 0.930 . S
C2291 C2287 1.400 . S
C2291 C2290 1.385 . S
C2292 C2290 1.478 . S
C2292 C2294 1.381 . S
C2292 C2298 1.383 . S
C2293 C2289 1.495 . S
C2293 H2299 0.959 . S
C2293 H2300 0.961 . S
C2293 H2301 0.960 . S
C2294 C2292 1.381 . S
C2294 C2295 1.394 . S
C2294 H2302 0.930 . S
C2295 C2294 1.394 . S
C2295 C2296 1.383 . S
C2295 H2303 0.929 . S
C2296 C2295 1.383 . S
C2296 C2297 1.377 . S
C2297 H2281 0.930 . S
C2297 C2296 1.377 . S
C2297 C2298 1.379 . S
C2298 H2282 0.931 . S
C2298 C2292 1.383 . S
C2298 C2297 1.379 . S
H2299 C2293 0.959 . S
H2300 C2293 0.961 . S
H2301 C2293 0.960 . S
H2302 C2294 0.930 . S
H2303 C2295 0.929 . S
H2304 C2312 0.929 . S
H2305 C2314 0.930 . S
H2306 C2316 0.930 . S
H2307 C2319 0.929 . S
H2308 C2322 0.930 . S
H2309 C2324 0.960 . S
H2310 C2324 0.960 . S
H2311 C2324 0.960 . S
C2312 H2304 0.929 . S
C2312 C2313 1.377 . S
C2312 C2314 1.384 . S
C2313 C2312 1.377 . S
C2313 C2319 1.390 . S
C2314 H2305 0.930 . S
C2314 C2312 1.384 . S
C2314 C2315 1.372 . S
C2315 C2314 1.372 . S
C2315 C2316 1.400 . S
C2315 C2320 1.490 . S
C2316 H2306 0.930 . S
C2316 C2315 1.400 . S
C2316 C2319 1.386 . S
H2317 C2333 0.930 . S
H2318 C2334 0.931 . S
C2319 H2307 0.929 . S
C2319 C2313 1.390 . S
C2319 C2316 1.386 . S
C2320 C2315 1.490 . S
C2320 C2322 1.395 . S
C2320 C2323 1.403 . S
H2321 C2327 0.930 . S
C2322 H2308 0.930 . S
C2322 C2320 1.395 . S
C2322 C2325 1.403 . S
C2323 C2320 1.403 . S
C2323 C2324 1.524 . S
C2323 C2327 1.400 . S
C2324 H2309 0.960 . S
C2324 H2310 0.960 . S
C2324 H2311 0.960 . S
C2324 C2323 1.524 . S
C2325 C2322 1.403 . S
C2325 C2326 1.392 . S
C2325 C2329 1.495 . S
C2326 C2325 1.392 . S
C2326 C2327 1.385 . S
C2326 C2328 1.478 . S
C2327 H2321 0.930 . S
C2327 C2323 1.400 . S
C2327 C2326 1.385 . S
C2328 C2326 1.478 . S
C2328 C2330 1.381 . S
C2328 C2334 1.383 . S
C2329 C2325 1.495 . S
C2329 H2335 0.959 . S
C2329 H2336 0.961 . S
C2329 H2337 0.960 . S
C2330 C2328 1.381 . S
C2330 C2331 1.394 . S
C2330 H2338 0.930 . S
C2331 C2330 1.394 . S
C2331 C2332 1.383 . S
C2331 H2339 0.929 . S
C2332 C2331 1.383 . S
C2332 C2333 1.377 . S
C2333 H2317 0.930 . S
C2333 C2332 1.377 . S
C2333 C2334 1.379 . S
C2334 H2318 0.931 . S
C2334 C2328 1.383 . S
C2334 C2333 1.379 . S
H2335 C2329 0.959 . S
H2336 C2329 0.961 . S
H2337 C2329 0.960 . S
H2338 C2330 0.930 . S
H2339 C2331 0.929 . S
H2340 C2348 0.929 . S
H2341 C2350 0.930 . S
H2342 C2352 0.930 . S
H2343 C2355 0.929 . S
H2344 C2358 0.930 . S
H2345 C2360 0.960 . S
H2346 C2360 0.960 . S
H2347 C2360 0.960 . S
C2348 H2340 0.929 . S
C2348 C2349 1.377 . S
C2348 C2350 1.384 . S
C2349 C2348 1.377 . S
C2349 C2355 1.390 . S
C2350 H2341 0.930 . S
C2350 C2348 1.384 . S
C2350 C2351 1.372 . S
C2351 C2350 1.372 . S
C2351 C2352 1.400 . S
C2351 C2356 1.490 . S
C2352 H2342 0.930 . S
C2352 C2351 1.400 . S
C2352 C2355 1.386 . S
H2353 C2369 0.930 . S
H2354 C2370 0.931 . S
C2355 H2343 0.929 . S
C2355 C2349 1.390 . S
C2355 C2352 1.386 . S
C2356 C2351 1.490 . S
C2356 C2358 1.395 . S
C2356 C2359 1.403 . S
H2357 C2363 0.930 . S
C2358 H2344 0.930 . S
C2358 C2356 1.395 . S
C2358 C2361 1.403 . S
C2359 C2356 1.403 . S
C2359 C2360 1.524 . S
C2359 C2363 1.400 . S
C2360 H2345 0.960 . S
C2360 H2346 0.960 . S
C2360 H2347 0.960 . S
C2360 C2359 1.524 . S
C2361 C2358 1.403 . S
C2361 C2362 1.392 . S
C2361 C2365 1.495 . S
C2362 C2361 1.392 . S
C2362 C2363 1.385 . S
C2362 C2364 1.478 . S
C2363 H2357 0.930 . S
C2363 C2359 1.400 . S
C2363 C2362 1.385 . S
C2364 C2362 1.478 . S
C2364 C2366 1.381 . S
C2364 C2370 1.383 . S
C2365 C2361 1.495 . S
C2365 H2371 0.959 . S
C2365 H2372 0.961 . S
C2365 H2373 0.960 . S
C2366 C2364 1.381 . S
C2366 C2367 1.394 . S
C2366 H2374 0.930 . S
C2367 C2366 1.394 . S
C2367 C2368 1.383 . S
C2367 H2375 0.929 . S
C2368 C2367 1.383 . S
C2368 C2369 1.377 . S
C2369 H2353 0.930 . S
C2369 C2368 1.377 . S
C2369 C2370 1.379 . S
C2370 H2354 0.931 . S
C2370 C2364 1.383 . S
C2370 C2369 1.379 . S
H2371 C2365 0.959 . S
H2372 C2365 0.961 . S
H2373 C2365 0.960 . S
H2374 C2366 0.930 . S
H2375 C2367 0.929 . S
H2376 C2384 0.929 . S
H2377 C2386 0.930 . S
H2378 C2388 0.930 . S
H2379 C2391 0.929 . S
H2380 C2394 0.930 . S
H2381 C2396 0.960 . S
H2382 C2396 0.960 . S
H2383 C2396 0.960 . S
C2384 H2376 0.929 . S
C2384 C2385 1.377 . S
C2384 C2386 1.384 . S
C2385 C2384 1.377 . S
C2385 C2391 1.390 . S
C2386 H2377 0.930 . S
C2386 C2384 1.384 . S
C2386 C2387 1.372 . S
C2387 C2386 1.372 . S
C2387 C2388 1.400 . S
C2387 C2392 1.490 . S
C2388 H2378 0.930 . S
C2388 C2387 1.400 . S
C2388 C2391 1.386 . S
H2389 C2405 0.930 . S
H2390 C2406 0.931 . S
C2391 H2379 0.929 . S
C2391 C2385 1.390 . S
C2391 C2388 1.386 . S
C2392 C2387 1.490 . S
C2392 C2394 1.395 . S
C2392 C2395 1.403 . S
H2393 C2399 0.930 . S
C2394 H2380 0.930 . S
C2394 C2392 1.395 . S
C2394 C2397 1.403 . S
C2395 C2392 1.403 . S
C2395 C2396 1.524 . S
C2395 C2399 1.400 . S
C2396 H2381 0.960 . S
C2396 H2382 0.960 . S
C2396 H2383 0.960 . S
C2396 C2395 1.524 . S
C2397 C2394 1.403 . S
C2397 C2398 1.392 . S
C2397 C2401 1.495 . S
C2398 C2397 1.392 . S
C2398 C2399 1.385 . S
C2398 C2400 1.478 . S
C2399 H2393 0.930 . S
C2399 C2395 1.400 . S
C2399 C2398 1.385 . S
C2400 C2398 1.478 . S
C2400 C2402 1.381 . S
C2400 C2406 1.383 . S
C2401 C2397 1.495 . S
C2401 H2407 0.959 . S
C2401 H2408 0.961 . S
C2401 H2409 0.960 . S
C2402 C2400 1.381 . S
C2402 C2403 1.394 . S
C2402 H2410 0.930 . S
C2403 C2402 1.394 . S
C2403 C2404 1.383 . S
C2403 H2411 0.929 . S
C2404 C2403 1.383 . S
C2404 C2405 1.377 . S
C2405 H2389 0.930 . S
C2405 C2404 1.377 . S
C2405 C2406 1.379 . S
C2406 H2390 0.931 . S
C2406 C2400 1.383 . S
C2406 C2405 1.379 . S
H2407 C2401 0.959 . S
H2408 C2401 0.961 . S
H2409 C2401 0.960 . S
H2410 C2402 0.930 . S
H2411 C2403 0.929 . S
H2412 C2420 0.929 . S
H2413 C2422 0.930 . S
H2414 C2424 0.930 . S
H2415 C2427 0.929 . S
H2416 C2430 0.930 . S
H2417 C2432 0.960 . S
H2418 C2432 0.960 . S
H2419 C2432 0.960 . S
C2420 H2412 0.929 . S
C2420 C2421 1.377 . S
C2420 C2422 1.384 . S
C2421 C2420 1.377 . S
C2421 C2427 1.390 . S
C2422 H2413 0.930 . S
C2422 C2420 1.384 . S
C2422 C2423 1.372 . S
C2423 C2422 1.372 . S
C2423 C2424 1.400 . S
C2423 C2428 1.490 . S
C2424 H2414 0.930 . S
C2424 C2423 1.400 . S
C2424 C2427 1.386 . S
H2425 C2441 0.930 1_556 S
H2426 C2442 0.931 . S
C2427 H2415 0.929 . S
C2427 C2421 1.390 . S
C2427 C2424 1.386 . S
C2428 C2423 1.490 . S
C2428 C2430 1.395 . S
C2428 C2431 1.403 . S
H2429 C2435 0.930 . S
C2430 H2416 0.930 . S
C2430 C2428 1.395 . S
C2430 C2433 1.403 . S
C2431 C2428 1.403 . S
C2431 C2432 1.524 . S
C2431 C2435 1.400 . S
C2432 H2417 0.960 . S
C2432 H2418 0.960 . S
C2432 H2419 0.960 . S
C2432 C2431 1.524 . S
C2433 C2430 1.403 . S
C2433 C2434 1.392 . S
C2433 C2437 1.495 . S
C2434 C2433 1.392 . S
C2434 C2435 1.385 . S
C2434 C2436 1.478 . S
C2435 H2429 0.930 . S
C2435 C2431 1.400 . S
C2435 C2434 1.385 . S
C2436 C2434 1.478 . S
C2436 C2438 1.381 . S
C2436 C2442 1.383 . S
C2437 C2433 1.495 . S
C2437 H2443 0.959 . S
C2437 H2444 0.961 . S
C2437 H2445 0.960 . S
C2438 C2436 1.381 . S
C2438 C2439 1.394 . S
C2438 H2446 0.930 . S
C2439 C2438 1.394 . S
C2439 C2440 1.383 . S
C2439 H2447 0.929 . S
C2440 C2439 1.383 . S
C2440 C2441 1.377 . S
C2441 H2425 0.930 1_554 S
C2441 C2440 1.377 . S
C2441 C2442 1.379 . S
C2442 H2426 0.931 . S
C2442 C2436 1.383 . S
C2442 C2441 1.379 . S
H2443 C2437 0.959 . S
H2444 C2437 0.961 . S
H2445 C2437 0.960 . S
H2446 C2438 0.930 . S
H2447 C2439 0.929 . S
H2448 C2456 0.929 . S
H2449 C2458 0.930 . S
H2450 C2460 0.930 . S
H2451 C2463 0.929 . S
H2452 C2466 0.930 . S
H2453 C2468 0.960 . S
H2454 C2468 0.960 . S
H2455 C2468 0.960 . S
C2456 H2448 0.929 . S
C2456 C2457 1.377 . S
C2456 C2458 1.384 . S
C2457 C2456 1.377 . S
C2457 C2463 1.390 . S
C2458 H2449 0.930 . S
C2458 C2456 1.384 . S
C2458 C2459 1.372 . S
C2459 C2458 1.372 . S
C2459 C2460 1.400 . S
C2459 C2464 1.490 . S
C2460 H2450 0.930 . S
C2460 C2459 1.400 . S
C2460 C2463 1.386 . S
H2461 C2477 0.930 . S
H2462 C2478 0.931 . S
C2463 H2451 0.929 . S
C2463 C2457 1.390 . S
C2463 C2460 1.386 . S
C2464 C2459 1.490 . S
C2464 C2466 1.395 . S
C2464 C2467 1.403 . S
H2465 C2471 0.930 . S
C2466 H2452 0.930 . S
C2466 C2464 1.395 . S
C2466 C2469 1.403 . S
C2467 C2464 1.403 . S
C2467 C2468 1.524 . S
C2467 C2471 1.400 . S
C2468 H2453 0.960 . S
C2468 H2454 0.960 . S
C2468 H2455 0.960 . S
C2468 C2467 1.524 . S
C2469 C2466 1.403 . S
C2469 C2470 1.392 . S
C2469 C2473 1.495 . S
C2470 C2469 1.392 . S
C2470 C2471 1.385 . S
C2470 C2472 1.478 . S
C2471 H2465 0.930 . S
C2471 C2467 1.400 . S
C2471 C2470 1.385 . S
C2472 C2470 1.478 . S
C2472 C2474 1.381 . S
C2472 C2478 1.383 . S
C2473 C2469 1.495 . S
C2473 H2479 0.959 . S
C2473 H2480 0.961 . S
C2473 H2481 0.960 1_554 S
C2474 C2472 1.381 . S
C2474 C2475 1.394 . S
C2474 H2482 0.930 . S
C2475 C2474 1.394 . S
C2475 C2476 1.383 . S
C2475 H2483 0.929 1_554 S
C2476 C2475 1.383 . S
C2476 C2477 1.377 . S
C2477 H2461 0.930 . S
C2477 C2476 1.377 . S
C2477 C2478 1.379 . S
C2478 H2462 0.931 . S
C2478 C2472 1.383 . S
C2478 C2477 1.379 . S
H2479 C2473 0.959 . S
H2480 C2473 0.961 . S
H2481 C2473 0.960 1_556 S
H2482 C2474 0.930 . S
H2483 C2475 0.929 1_556 S
H2484 C2492 0.929 . S
H2485 C2494 0.930 . S
H2486 C2496 0.930 . S
H2487 C2499 0.929 1_556 S
H2488 C2502 0.930 . S
H2489 C2504 0.960 . S
H2490 C2504 0.960 . S
H2491 C2504 0.960 . S
C2492 H2484 0.929 . S
C2492 C2493 1.377 . S
C2492 C2494 1.384 . S
C2493 C2492 1.377 . S
C2493 C2499 1.390 . S
C2494 H2485 0.930 . S
C2494 C2492 1.384 . S
C2494 C2495 1.372 . S
C2495 C2494 1.372 . S
C2495 C2496 1.400 . S
C2495 C2500 1.490 . S
C2496 H2486 0.930 . S
C2496 C2495 1.400 . S
C2496 C2499 1.386 . S
H2497 C2513 0.930 . S
H2498 C2514 0.931 . S
C2499 H2487 0.929 1_554 S
C2499 C2493 1.390 . S
C2499 C2496 1.386 . S
C2500 C2495 1.490 . S
C2500 C2502 1.395 . S
C2500 C2503 1.403 . S
H2501 C2507 0.930 . S
C2502 H2488 0.930 . S
C2502 C2500 1.395 . S
C2502 C2505 1.403 . S
C2503 C2500 1.403 . S
C2503 C2504 1.524 . S
C2503 C2507 1.400 . S
C2504 H2489 0.960 . S
C2504 H2490 0.960 . S
C2504 H2491 0.960 . S
C2504 C2503 1.524 . S
C2505 C2502 1.403 . S
C2505 C2506 1.392 . S
C2505 C2509 1.495 . S
C2506 C2505 1.392 . S
C2506 C2507 1.385 . S
C2506 C2508 1.478 . S
C2507 H2501 0.930 . S
C2507 C2503 1.400 . S
C2507 C2506 1.385 . S
C2508 C2506 1.478 . S
C2508 C2510 1.381 . S
C2508 C2514 1.383 . S
C2509 C2505 1.495 . S
C2509 H2515 0.959 . S
C2509 H2516 0.961 . S
C2509 H2517 0.960 . S
C2510 C2508 1.381 . S
C2510 C2511 1.394 . S
C2510 H2518 0.930 . S
C2511 C2510 1.394 . S
C2511 C2512 1.383 . S
C2511 H2519 0.929 . S
C2512 C2511 1.383 . S
C2512 C2513 1.377 . S
C2513 H2497 0.930 . S
C2513 C2512 1.377 . S
C2513 C2514 1.379 . S
C2514 H2498 0.931 . S
C2514 C2508 1.383 . S
C2514 C2513 1.379 . S
H2515 C2509 0.959 . S
H2516 C2509 0.961 . S
H2517 C2509 0.960 . S
H2518 C2510 0.930 . S
H2519 C2511 0.929 . S
C585 C4 0.495 1_556 S
C604 N77 0.456 . S
C621 N13 0.515 . S
C640 C36 0.519 1_556 S
C657 C68 0.503 1_556 S
C676 N45 0.594 . S
C693 N141 0.511 . S
C712 C100 0.534 . S
C729 N178 0.504 . S
C748 C132 0.580 . S
C765 C189 0.502 . S
C784 N109 0.549 . S
C801 N269 0.516 . S
C820 C196 0.522 . S
C837 C228 0.517 . S
C856 N205 0.608 . S
C873 N237 0.504 . S
C892 C260 0.434 . S
C909 C317 0.517 . S
C928 N333 0.433 . S
C945 N370 0.507 . S
C964 C324 0.555 . S
C981 C381 0.514 . S
C1000 N306 0.481 . S
C1017 N461 0.532 . S
C1036 C388 0.489 . S
C1053 C420 0.482 . S
C1072 N397 0.433 . S
C1089 C452 0.491 . S
C1108 N429 0.444 . S
C1125 C509 0.518 . S
C1144 N525 0.438 . S
C1161 N562 0.509 . S
C1180 C516 0.547 . S
C1197 N498 0.509 . S
C1216 C573 0.545 . S
C1233 C166 1.350 . S
C1252 C29 1.339 . S
C1269 C98 1.348 . S
C1288 C61 1.310 . S
C1305 C130 1.349 . S
C1324 C93 1.321 . S
C1341 C34 1.346 . S
C1360 C125 1.298 . S
C1377 C157 1.320 . S
C1396 C66 1.340 . S
C1413 C2 1.346 . S
C1432 C164 1.299 . S
C1449 C221 1.320 . S
C1468 C358 1.330 . S
C1485 C253 1.328 . S
C1504 C294 1.358 . S
C1521 C322 1.344 . S
C1540 C285 1.297 . S
C1557 C292 1.325 . S
C1576 C226 1.331 . S
C1593 C349 1.320 . S
C1612 C258 1.331 . S
C1629 C356 1.326 . S
C1648 C194 1.332 . S
C1665 C413 1.329 . S
C1684 C550 1.342 . S
C1701 C445 1.329 . S
C1720 C486 1.356 . S
C1737 C477 1.320 . S
C1756 C514 1.336 . S
C1773 C484 1.328 . S
C1792 C418 1.336 . S
C1809 C541 1.322 . S
C1828 C450 1.329 . S
C1845 C548 1.325 . S
C1864 C386 1.357 . S
C1881 C326 1.932 . S
C1900 N18 1.992 . S
C1917 N50 1.988 . S
C1936 C354 1.920 . S
C1953 C290 1.933 . S
C1972 N82 1.988 . S
C1989 N114 1.989 . S
C2008 C262 1.942 . S
C2025 N146 1.989 . S
C2044 C198 1.927 . S
C2061 C230 1.934 . S
C2080 N173 1.988 . S
C2097 N210 1.989 . S
C2116 C518 1.913 . S
C2133 N242 1.986 . S
C2152 C546 1.951 . S
C2169 N274 1.988 . S
C2188 C482 1.920 . S
C2205 C454 1.937 . S
C2224 N301 1.976 . S
C2241 C390 1.938 . S
C2260 N338 1.991 . S
C2277 C422 1.938 . S
C2296 N365 1.979 . S
C2313 C134 1.938 . S
C2332 N402 1.982 . S
C2349 N434 1.987 . S
C2368 C162 1.941 . S
C2385 C102 1.940 . S
C2404 N466 1.975 . S
C2421 N493 1.988 . S
C2440 C70 1.918 . S
C2457 N530 1.987 . S
C2476 C6 1.947 . S
C2493 C38 1.934 . S
C2512 N557 1.989 . S
