# Generated by pormake.
# Topology bsn, (6)-cn, num edge types: 1
# Building blocks:
#     Node 0, Type 0, BuildingBlock: UKALOJ_clean_sbu_0, # of connection points: 6
#     Node 1, Type 0, BuildingBlock: UKALOJ_clean_sbu_0, # of connection points: 6
#     Node 2, Type 0, BuildingBlock: UKALOJ_clean_sbu_0, # of connection points: 6
#     Node 3, Type 0, BuildingBlock: UKALOJ_clean_sbu_0, # of connection points: 6
#     Edge 4, Type (0, 0), BuildingBlock: UVAHIK_clean_linker_0, # of connection points: 2
#     Edge 5, Type (0, 0), BuildingBlock: UVAHIK_clean_linker_0, # of connection points: 2
#     Edge 6, Type (0, 0), BuildingBlock: UVAHIK_clean_linker_0, # of connection points: 2
#     Edge 7, Type (0, 0), BuildingBlock: UVAHIK_clean_linker_0, # of connection points: 2
#     Edge 8, Type (0, 0), BuildingBlock: UVAHIK_clean_linker_0, # of connection points: 2
#     Edge 9, Type (0, 0), BuildingBlock: UVAHIK_clean_linker_0, # of connection points: 2
#     Edge 10, Type (0, 0), BuildingBlock: UVAHIK_clean_linker_0, # of connection points: 2
#     Edge 11, Type (0, 0), BuildingBlock: UVAHIK_clean_linker_0, # of connection points: 2
#     Edge 12, Type (0, 0), BuildingBlock: UVAHIK_clean_linker_0, # of connection points: 2
#     Edge 13, Type (0, 0), BuildingBlock: UVAHIK_clean_linker_0, # of connection points: 2
#     Edge 14, Type (0, 0), BuildingBlock: UVAHIK_clean_linker_0, # of connection points: 2
#     Edge 15, Type (0, 0), BuildingBlock: UVAHIK_clean_linker_0, # of connection points: 2
# Relax obj value: 0.162
# Max RMSD: 0.167
# Mean RMSD: 0.156
data_MOF--net-bsn--node1-UKALOJ_clean_sbu_0--edge1-UVAHIK_clean_linker_0
_symmetry_space_group_name_H-M    P1
_symmetry_Int_Tables_number       1
_symmetry_cell_setting            triclinic
loop_
_symmetry_equiv_pos_as_xyz
'x, y, z'
_cell_length_a     39.848869
_cell_length_b     45.212538
_cell_length_c     19.088973
_cell_angle_alpha  89.841566
_cell_angle_beta   97.114295
_cell_angle_gamma 90.13741
loop_
_atom_site_label
_atom_site_type_symbol
_atom_site_fract_x
_atom_site_fract_y
_atom_site_fract_z
_atom_type_partial_charge
Zn0 Zn 0.03793 0.29731 0.34953 0.0
O1 O 0.98561 0.30133 0.3586 0.0
C2 C 0.05365 0.28012 0.49476 0.0
Zn3 Zn 0.03655 0.24735 0.35881 0.0
C4 C 0.96873 0.27771 0.3648 0.0
O5 O 0.98391 0.25287 0.36763 0.0
C6 C 0.10563 0.26695 0.34141 0.0
O7 O 0.02444 0.24113 0.25128 0.0
O8 O 0.02546 0.28978 0.24192 0.0
N9 N 0.03204 0.20244 0.38044 0.0
C10 C 0.04017 0.17678 0.35018 0.0
C11 C 0.01919 0.16548 0.44403 0.0
N12 N 0.01892 0.19515 0.43852 0.0
N13 N 0.03233 0.15316 0.38929 0.0
C14 C 0.03069 0.36726 0.3591 0.0
C15 C 0.06415 0.38115 0.28665 0.0
N16 N 0.0427 0.3425 0.33114 0.0
N17 N 0.06334 0.35137 0.28597 0.0
N18 N 0.04383 0.39188 0.33199 0.0
H19 H 1.00856 0.34573 0.44365 0.0
H20 H 0.98131 0.37081 0.39055 0.0
H21 H 1.01451 0.38532 0.4536 0.0
C22 C 1.00765 0.36718 0.41542 0.0
C23 C 0.05719 0.17517 0.28467 0.0
H24 H 0.03774 0.17155 0.23864 0.0
H25 H 0.07525 0.15644 0.28796 0.0
H26 H 0.0706 0.19612 0.27608 0.0
O27 O 0.08897 0.24333 0.34912 0.0
O28 O 0.09045 0.29177 0.33963 0.0
C29 C 0.02079 0.26441 0.2137 0.0
O30 O 0.05022 0.3034 0.45736 0.0
O31 O 0.04892 0.2549 0.46617 0.0
Zn32 Zn 1.004 0.77214 0.38405 0.0
O33 O 1.00335 0.72449 0.39096 0.0
C34 C 0.03204 0.77743 0.53126 0.0
Zn35 Zn 0.06034 0.77118 0.39786 0.0
C36 C 0.03082 0.70983 0.39828 0.0
O37 O 0.05876 0.72385 0.40305 0.0
C38 C 0.03378 0.83343 0.3811 0.0
O39 O 0.05982 0.76941 0.28874 0.0
O40 O 1.00414 0.76935 0.27731 0.0
N41 N 0.11213 0.76976 0.41318 0.0
C42 C 0.13423 0.78174 0.46463 0.0
C43 C 0.16234 0.75357 0.40429 0.0
N44 N 0.12969 0.7524 0.37545 0.0
N45 N 0.16576 0.77166 0.4607 0.0
C46 C 0.92984 0.76244 0.41208 0.0
C47 C 0.90253 0.79009 0.33442 0.0
N48 N 0.95231 0.77353 0.37152 0.0
N49 N 0.93523 0.79046 0.32285 0.0
N50 N 0.89847 0.77246 0.38976 0.0
H51 H 0.96403 0.73418 0.47933 0.0
H52 H 0.91999 0.72737 0.48377 0.0
H53 H 0.93955 0.75974 0.52461 0.0
C54 C 0.93905 0.74482 0.47842 0.0
C55 C 0.12537 0.80421 0.51708 0.0
H56 H 0.10299 0.8173 0.49596 0.0
H57 H 0.14698 0.81943 0.53174 0.0
H58 H 0.11966 0.79277 0.5656 0.0
O59 O 0.06104 0.81854 0.39075 0.0
O60 O 1.00564 0.81969 0.376 0.0
C61 C 0.03153 0.76973 0.24989 0.0
O62 O 1.0045 0.77672 0.49069 0.0
O63 O 0.05978 0.77377 0.50658 0.0
Zn64 Zn 0.55713 0.79818 0.82926 0.0
O65 O 0.50593 0.8011 0.84696 0.0
C66 C 0.57556 0.77068 0.96849 0.0
Zn67 Zn 0.55326 0.74899 0.82548 0.0
C68 C 0.48826 0.77776 0.84879 0.0
O69 O 0.50225 0.75275 0.84381 0.0
C70 C 0.62098 0.76954 0.79775 0.0
O71 O 0.53769 0.75185 0.71738 0.0
O72 O 0.54134 0.80037 0.72151 0.0
N73 N 0.54738 0.70396 0.82243 0.0
C74 C 0.56322 0.6824 0.86271 0.0
C75 C 0.52094 0.66268 0.80078 0.0
N76 N 0.52128 0.69159 0.78356 0.0
N77 N 0.54685 0.65633 0.85082 0.0
C78 C 0.54978 0.86329 0.87666 0.0
C79 C 0.58098 0.88656 0.81199 0.0
N80 N 0.56189 0.84326 0.83393 0.0
N81 N 0.58117 0.85779 0.79366 0.0
N82 N 0.56128 0.89063 0.86363 0.0
H83 H 0.5015 0.86001 0.91393 0.0
H84 H 0.53539 0.87016 -0.01928 0.0
H85 H 0.53095 0.83255 0.95034 0.0
C86 C 0.52843 0.85593 0.93389 0.0
C87 C 0.59559 0.68659 0.91081 0.0
H88 H 0.61057 0.66586 0.91483 0.0
H89 H 0.58985 0.69251 0.96426 0.0
H90 H 0.61089 0.70464 0.89164 0.0
O91 O 0.60397 0.74601 0.80365 0.0
O92 O 0.60769 0.79446 0.80793 0.0
C93 C 0.53464 0.7768 0.6865 0.0
O94 O 0.57335 0.79536 0.9367 0.0
O95 O 0.56842 0.7471 0.93403 0.0
Zn96 Zn 0.53595 0.24692 0.29211 0.0
O97 O 0.54807 0.2499 0.39999 0.0
C98 C 0.4661 0.26897 0.3029 0.0
Zn99 Zn 0.53334 0.29621 0.28612 0.0
C100 C 0.55117 0.27489 0.43021 0.0
O101 O 0.54513 0.29851 0.39484 0.0
C102 C 0.51966 0.26814 0.14748 0.0
O103 O 0.58625 0.29776 0.27781 0.0
O104 O 0.58845 0.24935 0.28192 0.0
N105 N 0.53037 0.34142 0.27948 0.0
C106 C 0.53889 0.3603 0.22969 0.0
C107 C 0.51789 0.386 0.3069 0.0
N108 N 0.5174 0.35745 0.32747 0.0
N109 N 0.53102 0.38836 0.24537 0.0
C110 C 0.52492 0.18068 0.25359 0.0
C111 C 0.56387 0.15967 0.32246 0.0
N112 N 0.53987 0.20172 0.2968 0.0
N113 N 0.56386 0.18854 0.34 0.0
N114 N 0.5398 0.15419 0.26801 0.0
H115 H 0.4791 0.20409 0.21522 0.0
H116 H 0.47924 0.16536 0.19199 0.0
H117 H 0.50344 0.19154 0.14813 0.0
C118 C 0.49485 0.18574 0.19942 0.0
C119 C 0.55646 0.35153 0.16778 0.0
H120 H 0.57089 0.33082 0.17809 0.0
H121 H 0.57394 0.36928 0.15467 0.0
H122 H 0.53734 0.34793 0.12128 0.0
O123 O 0.52156 0.29314 0.17746 0.0
O124 O 0.52487 0.24482 0.18393 0.0
C125 C 0.60342 0.27407 0.27828 0.0
O126 O 0.48336 0.24528 0.30363 0.0
O127 O 0.48075 0.29372 0.29644 0.0
C128 C 0.06919 0.44133 0.35452 0.0
C129 C 0.04055 0.42287 0.34888 0.0
C130 C 0.06646 0.47175 0.36607 0.0
C131 C 1.00577 0.53396 0.34363 0.0
H132 H 0.07548 0.57492 0.46643 0.0
C133 C 0.99983 0.66086 0.39474 0.0
C134 C 0.03043 0.67678 0.39899 0.0
C135 C 0.99963 0.62978 0.39308 0.0
C136 C 0.05594 0.56398 0.43126 0.0
H137 H 0.98626 0.42225 0.34912 0.0
H138 H 0.98135 0.47551 0.37014 0.0
H139 H 0.07746 0.52129 0.45633 0.0
H140 H 0.08487 0.67212 0.40503 0.0
H141 H 0.08452 0.61834 0.40121 0.0
H142 H 0.98455 0.57673 0.31761 0.0
C143 C 1.00609 0.46631 0.36601 0.0
C144 C 0.05704 0.53309 0.4256 0.0
C145 C 1.00892 0.43569 0.35498 0.0
C146 C 0.0608 0.66073 0.40211 0.0
C147 C 0.06059 0.62972 0.40034 0.0
C148 C 1.00472 0.56493 0.34909 0.0
C149 C 0.03487 0.4848 0.37156 0.0
C150 C 0.03222 0.51761 0.38108 0.0
C151 C 0.03002 0.6137 0.39562 0.0
C152 C 0.03003 0.58048 0.39238 0.0
H153 H 0.09385 0.43215 0.34951 0.0
H154 H 0.08912 0.48518 0.36886 0.0
H155 H 0.9864 0.52293 0.3082 0.0
H156 H 0.97594 0.67241 0.39243 0.0
H157 H 0.97559 0.61837 0.39037 0.0
C158 C 0.67152 0.79464 0.75893 0.0
C159 C 0.65404 0.76834 0.77014 0.0
C160 C 0.69954 0.79429 0.72175 0.0
C161 C 0.76329 0.74627 0.65447 0.0
H162 H 0.76176 0.80666 0.50936 0.0
C163 C 0.85462 0.74424 0.44164 0.0
C164 C 0.86932 0.77138 0.42684 0.0
C165 C 0.82808 0.74322 0.48314 0.0
C166 C 0.76279 0.78984 0.55007 0.0
H167 H 0.65359 0.72079 0.75486 0.0
H168 H 0.70258 0.72023 0.68979 0.0
H169 H 0.71806 0.80615 0.58781 0.0
H170 H 0.86768 0.8187 0.44127 0.0
H171 H 0.82136 0.81718 0.51405 0.0
H172 H 0.80814 0.73001 0.61664 0.0
C173 C 0.69458 0.74111 0.70986 0.0
C174 C 0.73778 0.78958 0.59516 0.0
C175 C 0.66647 0.74145 0.74708 0.0
C176 C 0.85644 0.79758 0.45195 0.0
C177 C 0.82998 0.79663 0.49345 0.0
C178 C 0.78842 0.74657 0.6094 0.0
C179 C 0.71076 0.76765 0.69499 0.0
C180 C 0.73781 0.76789 0.64807 0.0
C181 C 0.81573 0.76941 0.51024 0.0
C182 C 0.78851 0.76844 0.55683 0.0
H183 H 0.66278 0.81573 0.7764 0.0
H184 H 0.71194 0.81502 0.71242 0.0
H185 H 0.76409 0.72939 0.69502 0.0
H186 H 0.86391 0.72387 0.4215 0.0
H187 H 0.81722 0.72196 0.49396 0.0
C188 C 0.52586 0.41589 0.13253 0.0
C189 C 0.53458 0.41516 0.20609 0.0
C190 C 0.5295 0.44189 0.09454 0.0
C191 C 0.53299 0.5225 0.11318 0.0
H192 H 0.57317 0.5203 0.93827 0.0
C193 C 0.54441 0.60189 0.85567 0.0
C194 C 0.55085 0.62907 0.89013 0.0
C195 C 0.54475 0.57554 0.89439 0.0
C196 C 0.56157 0.52126 -0.0134 0.0
H197 H 0.55256 0.4412 0.29802 0.0
H198 H 0.55868 0.48701 0.23172 0.0
H199 H 0.56868 0.47485 0.00588 0.0
H200 H 0.56132 0.64997 -0.0074 0.0
H201 H 0.56384 0.60421 0.05969 0.0
H202 H 0.52509 0.56864 0.0935 0.0
C203 C 0.54938 0.46733 0.20335 0.0
C204 C 0.55907 0.49523 0.02538 0.0
C205 C 0.54596 0.44121 0.24126 0.0
C206 C 0.55776 0.62937 0.9641 0.0
C207 C 0.55837 0.60309 0.00276 0.0
C208 C 0.53525 0.54846 0.07421 0.0
C209 C 0.54138 0.46788 0.1295 0.0
C210 C 0.54471 0.49559 0.08903 0.0
C211 C 0.55138 0.57587 0.96856 0.0
C212 C 0.54957 0.5482 0.01041 0.0
H213 H 0.5156 0.39651 0.10443 0.0
H214 H 0.52235 0.44183 0.03791 0.0
H215 H 0.52133 0.52338 0.16147 0.0
H216 H 0.53848 0.60116 0.79879 0.0
H217 H 0.53874 0.55506 0.8663 0.0
C218 C 0.9138 0.30571 0.35496 0.0
C219 C 0.93138 0.27874 0.36334 0.0
C220 C 0.87836 0.30625 0.34753 0.0
C221 C 0.80318 0.26067 0.37529 0.0
H222 H 0.75604 0.31294 0.23488 0.0
C223 C 0.66001 0.24913 0.28791 0.0
C224 C 0.64081 0.27526 0.28053 0.0
C225 C 0.69537 0.25026 0.29691 0.0
C226 C 0.76879 0.29842 0.2748 0.0
H227 H 0.92532 0.2312 0.37189 0.0
H228 H 0.86385 0.23212 0.35847 0.0
H229 H 0.81772 0.314 0.25608 0.0
H230 H 0.64391 0.32309 0.27473 0.0
H231 H 0.70563 0.32505 0.29047 0.0
H232 H 0.75433 0.24493 0.39368 0.0
C233 C 0.87733 0.25295 0.35839 0.0
C234 C 0.80419 0.29907 0.28712 0.0
C235 C 0.91268 0.25241 0.36581 0.0
C236 C 0.65788 0.30252 0.28018 0.0
C237 C 0.6933 0.30365 0.28901 0.0
C238 C 0.76785 0.25997 0.36287 0.0
C239 C 0.85964 0.27983 0.3484 0.0
C240 C 0.82188 0.28007 0.33726 0.0
C241 C 0.7125 0.27755 0.29863 0.0
C242 C 0.75017 0.27869 0.31215 0.0
H243 H 0.92737 0.32643 0.35291 0.0
H244 H 0.86563 0.32739 0.34099 0.0
H245 H 0.81585 0.24609 0.4152 0.0
H246 H 0.64776 0.22772 0.28825 0.0
H247 H 0.70933 0.22969 0.30285 0.0
C248 C 0.41249 0.24055 0.31307 0.0
C249 C 0.42918 0.26779 0.30791 0.0
C250 C 0.37753 0.23952 0.31601 0.0
C251 C 0.29945 0.28385 0.27284 0.0
H252 H 0.26154 0.22953 0.39968 0.0
C253 C 0.16069 0.2922 0.32848 0.0
C254 C 0.14246 0.26589 0.33543 0.0
C255 C 0.19542 0.29151 0.32377 0.0
C256 C 0.27163 0.24457 0.36326 0.0
H257 H 0.42204 0.31534 0.30249 0.0
H258 H 0.36135 0.31354 0.30823 0.0
H259 H 0.32246 0.23009 0.39473 0.0
H260 H 0.14667 0.21813 0.34247 0.0
H261 H 0.20732 0.21691 0.33358 0.0
H262 H 0.24874 0.29839 0.24138 0.0
C263 C 0.37515 0.29292 0.30905 0.0
C264 C 0.30661 0.24491 0.36047 0.0
C265 C 0.41007 0.29395 0.30623 0.0
C266 C 0.15991 0.23883 0.33733 0.0
C267 C 0.19474 0.23814 0.33264 0.0
C268 C 0.26452 0.2835 0.27557 0.0
C269 C 0.35836 0.26569 0.31366 0.0
C270 C 0.32102 0.26472 0.31558 0.0
C271 C 0.21297 0.2645 0.32579 0.0
C272 C 0.25013 0.26402 0.3212 0.0
H273 H 0.42637 0.21995 0.31424 0.0
H274 H 0.36543 0.21815 0.31882 0.0
H275 H 0.30952 0.29899 0.2366 0.0
H276 H 0.14818 0.31347 0.32709 0.0
H277 H 0.20864 0.31228 0.31967 0.0
C278 C 0.43492 0.80742 0.83385 0.0
C279 C 0.45096 0.77975 0.84219 0.0
C280 C 0.40054 0.80925 0.80851 0.0
C281 C 0.32192 0.76493 0.76151 0.0
H282 H 0.30738 0.82005 0.60465 0.0
C283 C 0.22703 0.78066 0.48604 0.0
C284 C 0.19571 0.77548 0.51012 0.0
C285 C 0.2563 0.78366 0.53412 0.0
C286 C 0.31105 0.80449 0.64815 0.0
H287 H 0.44273 0.73229 0.8377 0.0
H288 H 0.38311 0.73548 0.79312 0.0
H289 H 0.36068 0.82092 0.68204 0.0
H290 H 0.17061 0.7676 0.60279 0.0
H291 H 0.2213 0.77381 0.68691 0.0
H292 H 0.27288 0.74754 0.72535 0.0
C293 C 0.3969 0.75581 0.80601 0.0
C294 C 0.34141 0.8053 0.6933 0.0
C295 C 0.43122 0.75397 0.83145 0.0
C296 C 0.19422 0.77274 0.58297 0.0
C297 C 0.22338 0.77577 0.63105 0.0
C298 C 0.29155 0.7641 0.71625 0.0
C299 C 0.38156 0.78346 0.79112 0.0
C300 C 0.34747 0.78517 0.74977 0.0
C301 C 0.25479 0.78124 0.60725 0.0
C302 C 0.28603 0.78352 0.65827 0.0
H303 H 0.44932 0.82772 0.84232 0.0
H304 H 0.38923 0.83089 0.79918 0.0
H305 H 0.32569 0.74928 0.8048 0.0
H306 H 0.22876 0.78242 0.43001 0.0
H307 H 0.28021 0.78729 0.51393 0.0
C308 C 0.58533 0.93573 0.92182 0.0
C309 C 0.55715 0.91779 0.90062 0.0
C310 C 0.58188 0.96149 0.96051 0.0
C311 C 0.56436 1.02296 0.00729 0.0
H312 H 0.50681 1.02214 0.157 0.0
C313 C 0.53601 0.12925 0.15264 0.0
C314 C 0.53705 0.12764 0.22635 0.0
C315 C 0.53637 0.10357 0.11244 0.0
C316 C 0.52311 1.02266 0.11563 0.0
H317 H 0.50297 0.91355 0.89908 0.0
H318 H 0.49677 0.95856 0.96706 0.0
H319 H 0.51208 0.97756 0.08718 0.0
H320 H 0.53997 0.09808 0.31604 0.0
H321 H 0.54092 0.05279 0.24574 0.0
H322 H 0.57603 0.06775 0.03653 0.0
C323 C 0.52172 0.95231 0.95554 0.0
C324 C 0.52584 0.99723 0.07512 0.0
C325 C 0.52522 0.92654 0.91678 0.0
C326 C 0.5386 0.09978 0.25916 0.0
C327 C 0.53899 0.07397 0.21889 0.0
C328 C 0.56159 0.04834 0.04764 0.0
C329 C 0.55006 0.96996 -0.02169 0.0
C330 C 0.54658 0.99709 0.02059 0.0
C331 C 0.53829 0.07562 0.14507 0.0
C332 C 0.54093 0.04851 0.10226 0.0
H333 H 0.61018 0.92938 0.90987 0.0
H334 H 0.60427 0.97443 -0.02226 0.0
H335 H 0.58029 1.02368 0.96529 0.0
H336 H 0.53623 0.15039 0.12612 0.0
H337 H 0.53559 0.10564 0.05572 0.0
C338 C 0.06607 0.88145 0.38034 0.0
C339 C 0.03493 0.8664 0.37617 0.0
C340 C 0.06729 0.91242 0.37645 0.0
C341 C 1.01465 0.97911 0.32265 0.0
H342 H 0.08506 1.02017 0.44322 0.0
C343 C 0.02979 0.10761 0.31516 0.0
C344 C 0.03721 0.12168 0.38091 0.0
C345 C 0.03132 0.07659 0.30997 0.0
C346 C 0.06509 1.00916 0.40931 0.0
H347 H 0.98056 0.87248 0.36431 0.0
H348 H 0.98268 0.92638 0.35864 0.0
H349 H 0.08312 0.96641 0.44441 0.0
H350 H 0.0521 0.11414 0.49238 0.0
H351 H 0.0546 0.06054 0.48377 0.0
H352 H 0.99601 1.02203 0.28936 0.0
C353 C 1.00625 0.91424 0.3638 0.0
C354 C 0.06421 0.97815 0.40937 0.0
C355 C 1.00502 0.88323 0.36757 0.0
C356 C 0.04653 0.10402 0.44089 0.0
C357 C 0.04816 0.0732 0.43578 0.0
C358 C 1.01553 1.01019 0.32261 0.0
C359 C 0.03742 0.92937 0.36845 0.0
C360 C 0.03883 0.96258 0.36648 0.0
C361 C 0.04031 0.0589 0.37041 0.0
C362 C 0.04057 0.02571 0.36653 0.0
H363 H 0.08965 0.86931 0.38665 0.0
H364 H 0.09179 0.92306 0.37915 0.0
H365 H 0.99495 0.96804 0.28813 0.0
H366 H 0.02166 0.12041 0.26821 0.0
H367 H 0.02526 0.06646 0.25862 0.0
C368 C 1.00417 0.28777 0.09747 0.0
C369 C 1.01421 0.26239 0.13693 0.0
C370 C 1.00505 0.28809 0.02506 0.0
C371 C 0.05719 0.25656 0.90548 0.0
H372 H 0.99675 0.29698 0.76165 0.0
C373 C 0.06954 0.25641 0.6107 0.0
C374 C 0.05955 0.2819 0.5716 0.0
C375 C 0.0676 0.25557 0.68271 0.0
C376 C 1.01406 0.28612 0.80183 0.0
H377 H 0.02941 0.21646 0.13179 0.0
H378 H 0.03105 0.21709 0.00431 0.0
H379 H 0.97886 0.28812 0.87763 0.0
H380 H 0.04324 0.32749 0.57716 0.0
H381 H 0.03992 0.326 0.70407 0.0
H382 H 0.09246 0.25468 0.82991 0.0
C383 C 0.02297 0.23677 0.02979 0.0
C384 C 1.00365 0.28072 0.86752 0.0
C385 C 0.0219 0.23639 0.10237 0.0
C386 C 0.0508 0.30751 0.60634 0.0
C387 C 0.0487 0.30662 0.67855 0.0
C388 C 0.06761 0.26198 0.83985 0.0
C389 C 1.01608 0.26304 -0.00855 0.0
C390 C 0.02517 0.26592 0.91972 0.0
C391 C 0.0556 0.2802 0.71634 0.0
C392 C 0.04614 0.27684 0.78769 0.0
H393 H 0.99759 0.30795 0.12301 0.0
H394 H 0.99966 0.30861 -0.00351 0.0
H395 H 0.07453 0.24575 0.9457 0.0
H396 H 0.07685 0.2365 0.585 0.0
H397 H 0.07304 0.23494 0.71081 0.0
C398 C 0.06003 0.78154 0.6543 0.0
C399 C 0.03186 0.78658 0.60421 0.0
C400 C 0.05984 0.7913 0.72319 0.0
C401 C 0.99938 0.80026 0.84345 0.0
H402 H 0.07763 0.82501 0.97132 0.0
C403 C 1.00078 0.78927 0.13968 0.0
C404 C 0.03016 0.77633 0.17488 0.0
C405 C 1.00044 0.79976 0.07142 0.0
C406 C 0.05558 0.81824 0.93599 0.0
H407 H 0.98236 0.80721 0.58452 0.0
H408 H 0.98203 0.82403 0.70526 0.0
H409 H 0.07856 0.82938 0.84379 0.0
H410 H 0.08204 0.76384 0.16695 0.0
H411 H 0.08076 0.78051 0.04495 0.0
H412 H 0.97722 0.78705 0.93418 0.0
C413 C 1.00402 0.8124 0.69142 0.0
C414 C 0.05605 0.82091 0.86352 0.0
C415 C 1.00407 0.80243 0.62287 0.0
C416 C 0.05905 0.77354 0.14044 0.0
C417 C 0.05849 0.78359 0.07139 0.0
C418 C 0.99899 0.79742 0.9155 0.0
C419 C 0.03155 0.80629 0.74234 0.0
C420 C 0.02845 0.81079 0.81701 0.0
C421 C 0.0292 0.7969 0.03663 0.0
C422 C 0.02759 0.80527 0.96214 0.0
H423 H 0.08173 0.76943 0.64078 0.0
H424 H 0.08107 0.78581 0.76215 0.0
H425 H 0.97796 0.79191 0.80853 0.0
H426 H 0.97834 0.79229 0.16561 0.0
H427 H 0.97767 0.81019 0.04592 0.0
C428 C 0.57624 0.7436 0.08205 0.0
C429 C 0.58112 0.77 0.04579 0.0
C430 C 0.57304 0.74423 0.15371 0.0
C431 C 0.58176 0.79053 0.3129 0.0
H432 H 0.5 0.74949 0.34981 0.0
C433 C 0.53056 0.80518 0.5742 0.0
C434 C 0.52781 0.77813 0.60939 0.0
C435 C 0.53227 0.80557 0.50191 0.0
C436 C 0.52283 0.76102 0.34003 0.0
H437 H 0.59021 0.81725 0.05705 0.0
H438 H 0.58419 0.81834 0.18208 0.0
H439 H 0.5195 0.74531 0.23408 0.0
H440 H 0.52051 0.73077 0.59598 0.0
H441 H 0.52374 0.73151 0.46971 0.0
H442 H 0.58511 0.80617 0.41894 0.0
C443 C 0.58281 0.79721 0.15522 0.0
C444 C 0.5342 0.7584 0.27436 0.0
C445 C 0.58611 0.79658 0.0836 0.0
C446 C 0.52314 0.75189 0.57024 0.0
C447 C 0.52478 0.75231 0.49794 0.0
C448 C 0.57035 0.79319 0.37853 0.0
C449 C 0.57463 0.77126 0.18984 0.0
C450 C 0.56386 0.77298 0.26052 0.0
C451 C 0.53105 0.77897 0.46409 0.0
C452 C 0.54088 0.77837 0.39257 0.0
H453 H 0.57247 0.72277 0.05443 0.0
H454 H 0.56747 0.72385 0.17997 0.0
H455 H 0.60474 0.80189 0.30337 0.0
H456 H 0.53369 0.82582 0.60301 0.0
H457 H 0.53646 0.82644 0.47628 0.0
C458 C 0.57297 0.2509 0.54321 0.0
C459 C 0.56039 0.27622 0.5064 0.0
C460 C 0.57612 0.25038 0.61636 0.0
C461 C 0.56842 0.2942 0.7755 0.0
H462 H 0.5134 0.22766 0.82229 0.0
C463 C 0.50852 0.29189 0.02989 0.0
C464 C 0.51653 0.26646 0.07072 0.0
C465 C 0.51345 0.29224 0.95916 0.0
C466 C 0.52897 0.24618 0.80996 0.0
H467 H 0.54507 0.32192 0.516 0.0
H468 H 0.54954 0.3207 0.64416 0.0
H469 H 0.53218 0.23043 0.70603 0.0
H470 H 0.53284 0.22066 0.06893 0.0
H471 H 0.54114 0.22128 0.94534 0.0
H472 H 0.5646 0.31014 0.87941 0.0
C473 C 0.55723 0.3014 0.61669 0.0
C474 C 0.54005 0.24762 0.74402 0.0
C475 C 0.55433 0.30199 0.54346 0.0
C476 C 0.52639 0.24055 0.03858 0.0
C477 C 0.53125 0.2409 0.96792 0.0
C478 C 0.55734 0.29273 0.84161 0.0
C479 C 0.56641 0.27508 0.65312 0.0
C480 C 0.55953 0.27178 0.72616 0.0
C481 C 0.52622 0.26711 0.9288 0.0
C482 C 0.53721 0.26889 0.85873 0.0
H483 H 0.57872 0.231 0.51554 0.0
H484 H 0.58386 0.23006 0.64393 0.0
H485 H 0.58343 0.31299 0.76249 0.0
H486 H 0.50018 0.31193 0.05336 0.0
H487 H 0.5087 0.31247 0.92902 0.0
loop_
_geom_bond_atom_site_label_1
_geom_bond_atom_site_label_2
_geom_bond_distance
_geom_bond_site_symmetry_2
_ccdc_geom_bond_type
Zn0 O1 2.055 1_455 S
Zn0 O8 2.046 . S
Zn0 N16 2.036 . S
Zn0 O28 2.053 . S
Zn0 O30 2.066 . S
O1 Zn0 2.055 1_655 S
O1 C4 1.259 . S
C2 O30 1.256 . S
C2 O31 1.244 . S
Zn3 O5 2.046 1_455 S
Zn3 O7 2.055 . S
Zn3 N9 2.036 . S
Zn3 O27 2.066 . S
Zn3 O31 2.053 . S
C4 O1 1.259 . S
C4 O5 1.254 . S
O5 Zn3 2.046 1_655 S
O5 C4 1.254 . S
C6 O27 1.256 . S
C6 O28 1.244 . S
O7 Zn3 2.055 . S
O7 C29 1.259 . S
O8 Zn0 2.046 . S
O8 C29 1.254 . S
N9 Zn3 2.036 . S
N9 C10 1.298 . S
N9 N12 1.398 . S
C10 N9 1.298 . S
C10 N13 1.367 . S
C10 C23 1.481 . S
C11 N12 1.299 . S
C11 N13 1.379 . S
N12 N9 1.398 . S
N12 C11 1.299 . S
N13 C10 1.367 . S
N13 C11 1.379 . S
C14 N16 1.298 . S
C14 N18 1.367 . S
C14 C22 1.481 1_455 S
C15 N17 1.299 . S
C15 N18 1.379 . S
N16 Zn0 2.036 . S
N16 C14 1.298 . S
N16 N17 1.398 . S
N17 C15 1.299 . S
N17 N16 1.398 . S
N18 C14 1.367 . S
N18 C15 1.379 . S
H19 C22 0.980 . S
H20 C22 0.981 . S
H21 C22 0.981 . S
C22 C14 1.481 1_655 S
C22 H19 0.980 . S
C22 H20 0.981 . S
C22 H21 0.981 . S
C23 C10 1.481 . S
C23 H24 0.980 . S
C23 H25 0.981 . S
C23 H26 0.981 . S
H24 C23 0.980 . S
H25 C23 0.981 . S
H26 C23 0.981 . S
O27 Zn3 2.066 . S
O27 C6 1.256 . S
O28 Zn0 2.053 . S
O28 C6 1.244 . S
C29 O7 1.259 . S
C29 O8 1.254 . S
O30 Zn0 2.066 . S
O30 C2 1.256 . S
O31 C2 1.244 . S
O31 Zn3 2.053 . S
Zn32 O33 2.055 . S
Zn32 O40 2.046 . S
Zn32 N48 2.036 . S
Zn32 O60 2.053 . S
Zn32 O62 2.066 . S
O33 Zn32 2.055 . S
O33 C36 1.259 1_655 S
C34 O62 1.256 1_455 S
C34 O63 1.244 . S
Zn35 O37 2.046 . S
Zn35 O39 2.055 . S
Zn35 N41 2.036 . S
Zn35 O59 2.066 . S
Zn35 O63 2.053 . S
C36 O33 1.259 1_455 S
C36 O37 1.254 . S
O37 Zn35 2.046 . S
O37 C36 1.254 . S
C38 O59 1.256 . S
C38 O60 1.244 1_455 S
O39 Zn35 2.055 . S
O39 C61 1.259 . S
O40 Zn32 2.046 . S
O40 C61 1.254 1_655 S
N41 Zn35 2.036 . S
N41 C42 1.298 . S
N41 N44 1.398 . S
C42 N41 1.298 . S
C42 N45 1.367 . S
C42 C55 1.481 . S
C43 N44 1.299 . S
C43 N45 1.379 . S
N44 N41 1.398 . S
N44 C43 1.299 . S
N45 C42 1.367 . S
N45 C43 1.379 . S
C46 N48 1.298 . S
C46 N50 1.367 . S
C46 C54 1.481 . S
C47 N49 1.299 . S
C47 N50 1.379 . S
N48 Zn32 2.036 . S
N48 C46 1.298 . S
N48 N49 1.398 . S
N49 C47 1.299 . S
N49 N48 1.398 . S
N50 C46 1.367 . S
N50 C47 1.379 . S
H51 C54 0.980 . S
H52 C54 0.981 . S
H53 C54 0.981 . S
C54 C46 1.481 . S
C54 H51 0.980 . S
C54 H52 0.981 . S
C54 H53 0.981 . S
C55 C42 1.481 . S
C55 H56 0.980 . S
C55 H57 0.981 . S
C55 H58 0.981 . S
H56 C55 0.980 . S
H57 C55 0.981 . S
H58 C55 0.981 . S
O59 Zn35 2.066 . S
O59 C38 1.256 . S
O60 Zn32 2.053 . S
O60 C38 1.244 1_655 S
C61 O39 1.259 . S
C61 O40 1.254 1_455 S
O62 Zn32 2.066 . S
O62 C34 1.256 1_655 S
O63 C34 1.244 . S
O63 Zn35 2.053 . S
Zn64 O65 2.055 . S
Zn64 O72 2.046 . S
Zn64 N80 2.036 . S
Zn64 O92 2.053 . S
Zn64 O94 2.066 . S
O65 Zn64 2.055 . S
O65 C68 1.259 . S
C66 O94 1.260 . S
C66 O95 1.248 . S
Zn67 O69 2.046 . S
Zn67 O71 2.055 . S
Zn67 N73 2.036 . S
Zn67 O91 2.066 . S
Zn67 O95 2.053 . S
C68 O65 1.259 . S
C68 O69 1.254 . S
O69 Zn67 2.046 . S
O69 C68 1.254 . S
C70 O91 1.256 . S
C70 O92 1.244 . S
O71 Zn67 2.055 . S
O71 C93 1.259 . S
O72 Zn64 2.046 . S
O72 C93 1.254 . S
N73 Zn67 2.036 . S
N73 C74 1.298 . S
N73 N76 1.398 . S
C74 N73 1.298 . S
C74 N77 1.367 . S
C74 C87 1.481 . S
C75 N76 1.299 . S
C75 N77 1.379 . S
N76 N73 1.398 . S
N76 C75 1.299 . S
N77 C74 1.367 . S
N77 C75 1.379 . S
C78 N80 1.298 . S
C78 N82 1.367 . S
C78 C86 1.481 . S
C79 N81 1.299 . S
C79 N82 1.379 . S
N80 Zn64 2.036 . S
N80 C78 1.298 . S
N80 N81 1.398 . S
N81 C79 1.299 . S
N81 N80 1.398 . S
N82 C78 1.367 . S
N82 C79 1.379 . S
H83 C86 0.980 . S
H84 C86 0.981 . S
H85 C86 0.981 . S
C86 C78 1.481 . S
C86 H83 0.980 . S
C86 H84 0.981 . S
C86 H85 0.981 . S
C87 C74 1.481 . S
C87 H88 0.980 . S
C87 H89 0.981 . S
C87 H90 0.981 . S
H88 C87 0.980 . S
H89 C87 0.981 . S
H90 C87 0.981 . S
O91 Zn67 2.066 . S
O91 C70 1.256 . S
O92 Zn64 2.053 . S
O92 C70 1.244 . S
C93 O71 1.259 . S
C93 O72 1.254 . S
O94 Zn64 2.066 . S
O94 C66 1.260 . S
O95 C66 1.248 . S
O95 Zn67 2.053 . S
Zn96 O97 2.055 . S
Zn96 O104 2.046 . S
Zn96 N112 2.036 . S
Zn96 O124 2.053 . S
Zn96 O126 2.066 . S
O97 Zn96 2.055 . S
O97 C100 1.259 . S
C98 O126 1.256 . S
C98 O127 1.244 . S
Zn99 O101 2.046 . S
Zn99 O103 2.055 . S
Zn99 N105 2.036 . S
Zn99 O123 2.066 . S
Zn99 O127 2.053 . S
C100 O97 1.259 . S
C100 O101 1.254 . S
O101 Zn99 2.046 . S
O101 C100 1.254 . S
C102 O123 1.256 . S
C102 O124 1.244 . S
O103 Zn99 2.055 . S
O103 C125 1.259 . S
O104 Zn96 2.046 . S
O104 C125 1.254 . S
N105 Zn99 2.036 . S
N105 C106 1.298 . S
N105 N108 1.398 . S
C106 N105 1.298 . S
C106 N109 1.367 . S
C106 C119 1.481 . S
C107 N108 1.299 . S
C107 N109 1.379 . S
N108 N105 1.398 . S
N108 C107 1.299 . S
N109 C106 1.367 . S
N109 C107 1.379 . S
C110 N112 1.298 . S
C110 N114 1.367 . S
C110 C118 1.481 . S
C111 N113 1.299 . S
C111 N114 1.379 . S
N112 Zn96 2.036 . S
N112 C110 1.298 . S
N112 N113 1.398 . S
N113 C111 1.299 . S
N113 N112 1.398 . S
N114 C110 1.367 . S
N114 C111 1.379 . S
H115 C118 0.980 . S
H116 C118 0.981 . S
H117 C118 0.981 . S
C118 C110 1.481 . S
C118 H115 0.980 . S
C118 H116 0.981 . S
C118 H117 0.981 . S
C119 C106 1.481 . S
C119 H120 0.980 . S
C119 H121 0.981 . S
C119 H122 0.981 . S
H120 C119 0.980 . S
H121 C119 0.981 . S
H122 C119 0.981 . S
O123 Zn99 2.066 . S
O123 C102 1.256 . S
O124 Zn96 2.053 . S
O124 C102 1.244 . S
C125 O103 1.259 . S
C125 O104 1.254 . S
O126 Zn96 2.066 . S
O126 C98 1.256 . S
O127 C98 1.244 . S
O127 Zn99 2.053 . S
C128 C129 1.349 . S
C128 C130 1.327 . S
C128 H153 0.950 . S
C129 C128 1.349 . S
C129 C145 1.365 . S
C130 C128 1.327 . S
C130 C149 1.429 . S
C130 H154 0.950 . S
C131 C148 1.574 . S
C131 C150 1.368 1_655 S
C131 H155 0.949 . S
H132 C136 0.949 . S
C133 C134 1.349 1_655 S
C133 C135 1.327 . S
C133 H156 0.950 . S
C134 C133 1.349 1_455 S
C134 C146 1.349 . S
C135 C133 1.327 . S
C135 C151 1.429 1_655 S
C135 H157 0.950 . S
C136 H132 0.949 . S
C136 C144 1.574 . S
C136 C152 1.368 . S
H137 C145 0.936 1_655 S
H138 C143 0.950 . S
H139 C144 0.949 . S
H140 C146 0.950 . S
H141 C147 0.950 . S
H142 C148 0.949 . S
C143 H138 0.950 . S
C143 C145 1.325 1_655 S
C143 C149 1.429 1_655 S
C144 C136 1.574 . S
C144 H139 0.949 . S
C144 C150 1.368 . S
C145 C129 1.365 . S
C145 H137 0.936 1_455 S
C145 C143 1.325 1_455 S
C146 C134 1.349 . S
C146 H140 0.950 . S
C146 C147 1.327 . S
C147 H141 0.950 . S
C147 C146 1.327 . S
C147 C151 1.429 . S
C148 C131 1.574 . S
C148 H142 0.949 . S
C148 C152 1.368 1_655 S
C149 C130 1.429 . S
C149 C143 1.429 1_455 S
C149 C150 1.523 . S
C150 C131 1.368 1_455 S
C150 C144 1.368 . S
C150 C149 1.523 . S
C151 C135 1.429 1_455 S
C151 C147 1.429 . S
C151 C152 1.523 . S
C152 C136 1.368 . S
C152 C148 1.368 1_455 S
C152 C151 1.523 . S
H153 C128 0.950 . S
H154 C130 0.950 . S
H155 C131 0.949 . S
H156 C133 0.950 . S
H157 C135 0.950 . S
C158 C159 1.349 . S
C158 C160 1.327 . S
C158 H183 0.950 . S
C159 C158 1.349 . S
C159 C175 1.349 . S
C160 C158 1.327 . S
C160 C179 1.429 . S
C160 H184 0.950 . S
C161 C178 1.574 . S
C161 C180 1.368 . S
C161 H185 0.949 . S
H162 C166 0.949 . S
C163 C164 1.349 . S
C163 C165 1.327 . S
C163 H186 0.950 . S
C164 C163 1.349 . S
C164 C176 1.349 . S
C165 C163 1.327 . S
C165 C181 1.429 . S
C165 H187 0.950 . S
C166 H162 0.949 . S
C166 C174 1.574 . S
C166 C182 1.368 . S
H167 C175 0.950 . S
H168 C173 0.950 . S
H169 C174 0.949 . S
H170 C176 0.950 . S
H171 C177 0.950 . S
H172 C178 0.949 . S
C173 H168 0.950 . S
C173 C175 1.327 . S
C173 C179 1.429 . S
C174 C166 1.574 . S
C174 H169 0.949 . S
C174 C180 1.368 . S
C175 C159 1.349 . S
C175 H167 0.950 . S
C175 C173 1.327 . S
C176 C164 1.349 . S
C176 H170 0.950 . S
C176 C177 1.327 . S
C177 H171 0.950 . S
C177 C176 1.327 . S
C177 C181 1.429 . S
C178 C161 1.574 . S
C178 H172 0.949 . S
C178 C182 1.368 . S
C179 C160 1.429 . S
C179 C173 1.429 . S
C179 C180 1.523 . S
C180 C161 1.368 . S
C180 C174 1.368 . S
C180 C179 1.523 . S
C181 C165 1.429 . S
C181 C177 1.429 . S
C181 C182 1.523 . S
C182 C166 1.368 . S
C182 C178 1.368 . S
C182 C181 1.523 . S
H183 C158 0.950 . S
H184 C160 0.950 . S
H185 C161 0.949 . S
H186 C163 0.950 . S
H187 C165 0.950 . S
C188 C189 1.349 . S
C188 C190 1.327 . S
C188 H213 0.950 . S
C189 C188 1.349 . S
C189 C205 1.349 . S
C190 C188 1.327 . S
C190 C209 1.429 . S
C190 H214 0.950 1_554 S
C191 C208 1.574 . S
C191 C210 1.368 . S
C191 H215 0.949 . S
H192 C196 0.949 . S
C193 C194 1.349 . S
C193 C195 1.327 . S
C193 H216 0.950 . S
C194 C193 1.349 . S
C194 C206 1.349 . S
C195 C193 1.327 . S
C195 C211 1.429 . S
C195 H217 0.950 . S
C196 H192 0.949 . S
C196 C204 1.574 . S
C196 C212 1.368 . S
H197 C205 0.950 . S
H198 C203 0.950 . S
H199 C204 0.949 . S
H200 C206 0.950 . S
H201 C207 0.950 . S
H202 C208 0.949 . S
C203 H198 0.950 . S
C203 C205 1.327 . S
C203 C209 1.429 . S
C204 C196 1.574 . S
C204 H199 0.949 . S
C204 C210 1.368 1_556 S
C205 C189 1.349 . S
C205 H197 0.950 . S
C205 C203 1.327 . S
C206 C194 1.349 . S
C206 H200 0.950 . S
C206 C207 1.327 . S
C207 H201 0.950 . S
C207 C206 1.327 . S
C207 C211 1.429 . S
C208 C191 1.574 . S
C208 H202 0.949 . S
C208 C212 1.368 1_554 S
C209 C190 1.429 . S
C209 C203 1.429 . S
C209 C210 1.523 . S
C210 C191 1.368 . S
C210 C204 1.368 1_554 S
C210 C209 1.523 . S
C211 C195 1.429 . S
C211 C207 1.429 . S
C211 C212 1.523 . S
C212 C196 1.368 . S
C212 C208 1.368 1_556 S
C212 C211 1.523 . S
H213 C188 0.950 . S
H214 C190 0.950 1_556 S
H215 C191 0.949 . S
H216 C193 0.950 . S
H217 C195 0.950 . S
C218 C219 1.349 . S
C218 C220 1.327 . S
C218 H243 0.950 . S
C219 C218 1.349 . S
C219 C235 1.349 . S
C220 C218 1.327 . S
C220 C239 1.429 . S
C220 H244 0.950 . S
C221 C238 1.574 . S
C221 C240 1.368 . S
C221 H245 0.949 . S
H222 C226 0.949 . S
C223 C224 1.349 . S
C223 C225 1.327 . S
C223 H246 0.950 . S
C224 C223 1.349 . S
C224 C236 1.349 . S
C225 C223 1.327 . S
C225 C241 1.429 . S
C225 H247 0.950 . S
C226 H222 0.949 . S
C226 C234 1.574 . S
C226 C242 1.368 . S
H227 C235 0.950 . S
H228 C233 0.950 . S
H229 C234 0.949 . S
H230 C236 0.950 . S
H231 C237 0.950 . S
H232 C238 0.949 . S
C233 H228 0.950 . S
C233 C235 1.327 . S
C233 C239 1.429 . S
C234 C226 1.574 . S
C234 H229 0.949 . S
C234 C240 1.368 . S
C235 C219 1.349 . S
C235 H227 0.950 . S
C235 C233 1.327 . S
C236 C224 1.349 . S
C236 H230 0.950 . S
C236 C237 1.327 . S
C237 H231 0.950 . S
C237 C236 1.327 . S
C237 C241 1.429 . S
C238 C221 1.574 . S
C238 H232 0.949 . S
C238 C242 1.368 . S
C239 C220 1.429 . S
C239 C233 1.429 . S
C239 C240 1.523 . S
C240 C221 1.368 . S
C240 C234 1.368 . S
C240 C239 1.523 . S
C241 C225 1.429 . S
C241 C237 1.429 . S
C241 C242 1.523 . S
C242 C226 1.368 . S
C242 C238 1.368 . S
C242 C241 1.523 . S
H243 C218 0.950 . S
H244 C220 0.950 . S
H245 C221 0.949 . S
H246 C223 0.950 . S
H247 C225 0.950 . S
C248 C249 1.349 . S
C248 C250 1.327 . S
C248 H273 0.950 . S
C249 C248 1.349 . S
C249 C265 1.349 . S
C250 C248 1.327 . S
C250 C269 1.429 . S
C250 H274 0.950 . S
C251 C268 1.574 . S
C251 C270 1.368 . S
C251 H275 0.949 . S
H252 C256 0.949 . S
C253 C254 1.349 . S
C253 C255 1.327 . S
C253 H276 0.950 . S
C254 C253 1.349 . S
C254 C266 1.349 . S
C255 C253 1.327 . S
C255 C271 1.429 . S
C255 H277 0.950 . S
C256 H252 0.949 . S
C256 C264 1.574 . S
C256 C272 1.368 . S
H257 C265 0.950 . S
H258 C263 0.950 . S
H259 C264 0.949 . S
H260 C266 0.950 . S
H261 C267 0.950 . S
H262 C268 0.949 . S
C263 H258 0.950 . S
C263 C265 1.327 . S
C263 C269 1.429 . S
C264 C256 1.574 . S
C264 H259 0.949 . S
C264 C270 1.368 . S
C265 C249 1.349 . S
C265 H257 0.950 . S
C265 C263 1.327 . S
C266 C254 1.349 . S
C266 H260 0.950 . S
C266 C267 1.327 . S
C267 H261 0.950 . S
C267 C266 1.327 . S
C267 C271 1.429 . S
C268 C251 1.574 . S
C268 H262 0.949 . S
C268 C272 1.368 . S
C269 C250 1.429 . S
C269 C263 1.429 . S
C269 C270 1.523 . S
C270 C251 1.368 . S
C270 C264 1.368 . S
C270 C269 1.523 . S
C271 C255 1.429 . S
C271 C267 1.429 . S
C271 C272 1.523 . S
C272 C256 1.368 . S
C272 C268 1.368 . S
C272 C271 1.523 . S
H273 C248 0.950 . S
H274 C250 0.950 . S
H275 C251 0.949 . S
H276 C253 0.950 . S
H277 C255 0.950 . S
C278 C279 1.349 . S
C278 C280 1.327 . S
C278 H303 0.950 . S
C279 C278 1.349 . S
C279 C295 1.349 . S
C280 C278 1.327 . S
C280 C299 1.429 . S
C280 H304 0.950 . S
C281 C298 1.574 . S
C281 C300 1.368 . S
C281 H305 0.949 . S
H282 C286 0.949 . S
C283 C284 1.349 . S
C283 C285 1.327 . S
C283 H306 0.950 . S
C284 C283 1.349 . S
C284 C296 1.349 . S
C285 C283 1.327 . S
C285 C301 1.429 . S
C285 H307 0.950 . S
C286 H282 0.949 . S
C286 C294 1.574 . S
C286 C302 1.368 . S
H287 C295 0.950 . S
H288 C293 0.950 . S
H289 C294 0.949 . S
H290 C296 0.950 . S
H291 C297 0.950 . S
H292 C298 0.949 . S
C293 H288 0.950 . S
C293 C295 1.327 . S
C293 C299 1.429 . S
C294 C286 1.574 . S
C294 H289 0.949 . S
C294 C300 1.368 . S
C295 C279 1.349 . S
C295 H287 0.950 . S
C295 C293 1.327 . S
C296 C284 1.349 . S
C296 H290 0.950 . S
C296 C297 1.327 . S
C297 H291 0.950 . S
C297 C296 1.327 . S
C297 C301 1.429 . S
C298 C281 1.574 . S
C298 H292 0.949 . S
C298 C302 1.368 . S
C299 C280 1.429 . S
C299 C293 1.429 . S
C299 C300 1.523 . S
C300 C281 1.368 . S
C300 C294 1.368 . S
C300 C299 1.523 . S
C301 C285 1.429 . S
C301 C297 1.429 . S
C301 C302 1.523 . S
C302 C286 1.368 . S
C302 C298 1.368 . S
C302 C301 1.523 . S
H303 C278 0.950 . S
H304 C280 0.950 . S
H305 C281 0.949 . S
H306 C283 0.950 . S
H307 C285 0.950 . S
C308 C309 1.349 . S
C308 C310 1.327 1_556 S
C308 H333 0.950 1_556 S
C309 C308 1.349 . S
C309 C325 1.349 . S
C310 C308 1.327 1_554 S
C310 C329 1.429 1_554 S
C310 H334 0.950 . S
C311 C328 1.574 1_565 S
C311 C330 1.368 1_556 S
C311 H335 0.949 . S
H312 C316 0.949 . S
C313 C314 1.349 . S
C313 C315 1.327 . S
C313 H336 0.950 . S
C314 C313 1.349 . S
C314 C326 1.349 . S
C315 C313 1.327 . S
C315 C331 1.429 . S
C315 H337 0.950 . S
C316 H312 0.949 . S
C316 C324 1.574 1_545 S
C316 C332 1.368 . S
H317 C325 0.950 . S
H318 C323 0.950 . S
H319 C324 0.949 . S
H320 C326 0.950 . S
H321 C327 0.950 . S
H322 C328 0.949 . S
C323 H318 0.950 . S
C323 C325 1.327 . S
C323 C329 1.429 . S
C324 C316 1.574 1_565 S
C324 H319 0.949 . S
C324 C330 1.368 . S
C325 C309 1.349 . S
C325 H317 0.950 . S
C325 C323 1.327 . S
C326 C314 1.349 . S
C326 H320 0.950 . S
C326 C327 1.327 . S
C327 H321 0.950 . S
C327 C326 1.327 . S
C327 C331 1.429 . S
C328 C311 1.574 1_545 S
C328 H322 0.949 . S
C328 C332 1.368 1_556 S
C329 C310 1.429 1_556 S
C329 C323 1.429 . S
C329 C330 1.523 1_556 S
C330 C311 1.368 1_554 S
C330 C324 1.368 . S
C330 C329 1.523 1_554 S
C331 C315 1.429 . S
C331 C327 1.429 . S
C331 C332 1.523 . S
C332 C316 1.368 . S
C332 C328 1.368 1_554 S
C332 C331 1.523 . S
H333 C308 0.950 1_554 S
H334 C310 0.950 . S
H335 C311 0.949 . S
H336 C313 0.950 . S
H337 C315 0.950 . S
C338 C339 1.349 . S
C338 C340 1.327 . S
C338 H363 0.950 . S
C339 C338 1.349 . S
C339 C355 1.349 . S
C340 C338 1.327 . S
C340 C359 1.429 . S
C340 H364 0.950 . S
C341 C358 1.574 . S
C341 C360 1.368 . S
C341 H365 0.949 1_455 S
H342 C346 0.949 . S
C343 C344 1.349 . S
C343 C345 1.327 . S
C343 H366 0.950 . S
C344 C343 1.349 . S
C344 C356 1.349 . S
C345 C343 1.327 . S
C345 C361 1.429 . S
C345 H367 0.950 . S
C346 H342 0.949 . S
C346 C354 1.574 . S
C346 C362 1.368 . S
H347 C355 0.950 1_655 S
H348 C353 0.950 1_655 S
H349 C354 0.949 . S
H350 C356 0.950 . S
H351 C357 0.950 . S
H352 C358 0.949 . S
C353 H348 0.950 1_455 S
C353 C355 1.327 . S
C353 C359 1.429 . S
C354 C346 1.574 . S
C354 H349 0.949 . S
C354 C360 1.368 . S
C355 C339 1.349 . S
C355 H347 0.950 1_455 S
C355 C353 1.327 . S
C356 C344 1.349 . S
C356 H350 0.950 . S
C356 C357 1.327 . S
C357 H351 0.950 . S
C357 C356 1.327 . S
C357 C361 1.429 . S
C358 C341 1.574 . S
C358 H352 0.949 . S
C358 C362 1.368 . S
C359 C340 1.429 . S
C359 C353 1.429 . S
C359 C360 1.523 . S
C360 C341 1.368 . S
C360 C354 1.368 . S
C360 C359 1.523 . S
C361 C345 1.429 . S
C361 C357 1.429 . S
C361 C362 1.523 1_545 S
C362 C346 1.368 . S
C362 C358 1.368 . S
C362 C361 1.523 1_565 S
H363 C338 0.950 . S
H364 C340 0.950 . S
H365 C341 0.949 1_655 S
H366 C343 0.950 . S
H367 C345 0.950 . S
C368 C369 1.349 . S
C368 C370 1.327 . S
C368 H393 0.950 . S
C369 C368 1.349 . S
C369 C385 1.349 . S
C370 C368 1.327 . S
C370 C389 1.429 . S
C370 H394 0.950 . S
C371 C388 1.574 . S
C371 C390 1.368 . S
C371 H395 0.932 1_455 S
H372 C376 0.949 . S
C373 C374 1.349 . S
C373 C375 1.327 . S
C373 H396 0.950 1_455 S
C374 C373 1.349 . S
C374 C386 1.349 . S
C375 C373 1.327 . S
C375 C391 1.429 . S
C375 H397 0.950 1_455 S
C376 H372 0.949 . S
C376 C384 1.574 . S
C376 C392 1.368 . S
H377 C385 0.950 . S
H378 C383 0.949 1_655 S
H379 C384 0.949 . S
H380 C386 0.950 . S
H381 C387 0.950 . S
H382 C388 0.949 1_655 S
C383 H378 0.949 1_455 S
C383 C385 1.327 . S
C383 C389 1.429 . S
C384 C376 1.574 . S
C384 H379 0.949 . S
C384 C390 1.368 . S
C385 C369 1.349 . S
C385 H377 0.950 . S
C385 C383 1.327 . S
C386 C374 1.349 . S
C386 H380 0.950 . S
C386 C387 1.327 . S
C387 H381 0.950 . S
C387 C386 1.327 . S
C387 C391 1.429 . S
C388 C371 1.574 . S
C388 H382 0.949 1_455 S
C388 C392 1.368 . S
C389 C370 1.429 . S
C389 C383 1.429 . S
C389 C390 1.523 1_554 S
C390 C371 1.368 . S
C390 C384 1.368 . S
C390 C389 1.523 1_556 S
C391 C375 1.429 . S
C391 C387 1.429 . S
C391 C392 1.523 . S
C392 C376 1.368 . S
C392 C388 1.368 . S
C392 C391 1.523 . S
H393 C368 0.950 . S
H394 C370 0.950 . S
H395 C371 0.932 1_655 S
H396 C373 0.950 1_655 S
H397 C375 0.950 1_655 S
C398 C399 1.349 . S
C398 C400 1.327 . S
C398 H423 0.950 . S
C399 C398 1.349 . S
C399 C415 1.349 1_455 S
C400 C398 1.327 . S
C400 C419 1.429 . S
C400 H424 0.950 . S
C401 C418 1.574 . S
C401 C420 1.368 1_655 S
C401 H425 0.949 . S
H402 C406 0.949 . S
C403 C404 1.349 1_655 S
C403 C405 1.327 . S
C403 H426 0.950 . S
C404 C403 1.349 1_455 S
C404 C416 1.349 . S
C405 C403 1.327 . S
C405 C421 1.429 1_655 S
C405 H427 0.950 . S
C406 H402 0.949 . S
C406 C414 1.574 . S
C406 C422 1.368 . S
H407 C415 0.950 . S
H408 C413 0.950 . S
H409 C414 0.949 . S
H410 C416 0.950 . S
H411 C417 0.950 . S
H412 C418 0.949 . S
C413 H408 0.950 . S
C413 C415 1.327 . S
C413 C419 1.429 1_655 S
C414 C406 1.574 . S
C414 H409 0.949 . S
C414 C420 1.368 . S
C415 C399 1.349 1_655 S
C415 H407 0.950 . S
C415 C413 1.327 . S
C416 C404 1.349 . S
C416 H410 0.950 . S
C416 C417 1.327 . S
C417 H411 0.950 . S
C417 C416 1.327 . S
C417 C421 1.429 . S
C418 C401 1.574 . S
C418 H412 0.949 . S
C418 C422 1.368 1_655 S
C419 C400 1.429 . S
C419 C413 1.429 1_455 S
C419 C420 1.523 1_556 S
C420 C401 1.368 1_455 S
C420 C414 1.368 . S
C420 C419 1.523 1_554 S
C421 C405 1.429 1_455 S
C421 C417 1.429 . S
C421 C422 1.523 . S
C422 C406 1.368 . S
C422 C418 1.368 1_455 S
C422 C421 1.523 . S
H423 C398 0.950 . S
H424 C400 0.950 . S
H425 C401 0.949 . S
H426 C403 0.950 . S
H427 C405 0.950 . S
C428 C429 1.349 . S
C428 C430 1.327 . S
C428 H453 0.950 . S
C429 C428 1.349 . S
C429 C445 1.349 . S
C430 C428 1.327 . S
C430 C449 1.429 . S
C430 H454 0.950 . S
C431 C448 1.574 . S
C431 C450 1.368 . S
C431 H455 0.949 . S
H432 C436 0.949 . S
C433 C434 1.349 . S
C433 C435 1.327 . S
C433 H456 0.950 . S
C434 C433 1.349 . S
C434 C446 1.349 . S
C435 C433 1.327 . S
C435 C451 1.429 . S
C435 H457 0.950 . S
C436 H432 0.949 . S
C436 C444 1.574 . S
C436 C452 1.368 . S
H437 C445 0.950 . S
H438 C443 0.950 . S
H439 C444 0.949 . S
H440 C446 0.950 . S
H441 C447 0.950 . S
H442 C448 0.949 . S
C443 H438 0.950 . S
C443 C445 1.327 . S
C443 C449 1.429 . S
C444 C436 1.574 . S
C444 H439 0.949 . S
C444 C450 1.368 . S
C445 C429 1.349 . S
C445 H437 0.950 . S
C445 C443 1.327 . S
C446 C434 1.349 . S
C446 H440 0.950 . S
C446 C447 1.327 . S
C447 H441 0.950 . S
C447 C446 1.327 . S
C447 C451 1.429 . S
C448 C431 1.574 . S
C448 H442 0.949 . S
C448 C452 1.368 . S
C449 C430 1.429 . S
C449 C443 1.429 . S
C449 C450 1.523 . S
C450 C431 1.368 . S
C450 C444 1.368 . S
C450 C449 1.523 . S
C451 C435 1.429 . S
C451 C447 1.429 . S
C451 C452 1.523 . S
C452 C436 1.368 . S
C452 C448 1.368 . S
C452 C451 1.523 . S
H453 C428 0.950 . S
H454 C430 0.950 . S
H455 C431 0.949 . S
H456 C433 0.950 . S
H457 C435 0.950 . S
C458 C459 1.349 . S
C458 C460 1.327 . S
C458 H483 0.950 . S
C459 C458 1.349 . S
C459 C475 1.349 . S
C460 C458 1.327 . S
C460 C479 1.429 . S
C460 H484 0.950 . S
C461 C478 1.574 . S
C461 C480 1.368 . S
C461 H485 0.949 . S
H462 C466 0.949 . S
C463 C464 1.349 . S
C463 C465 1.327 . S
C463 H486 0.950 . S
C464 C463 1.349 . S
C464 C476 1.349 . S
C465 C463 1.327 . S
C465 C481 1.429 . S
C465 H487 0.950 . S
C466 H462 0.949 . S
C466 C474 1.574 . S
C466 C482 1.368 . S
H467 C475 0.950 . S
H468 C473 0.950 . S
H469 C474 0.949 . S
H470 C476 0.950 . S
H471 C477 0.950 . S
H472 C478 0.949 . S
C473 H468 0.950 . S
C473 C475 1.327 . S
C473 C479 1.429 . S
C474 C466 1.574 . S
C474 H469 0.949 . S
C474 C480 1.368 . S
C475 C459 1.349 . S
C475 H467 0.950 . S
C475 C473 1.327 . S
C476 C464 1.349 . S
C476 H470 0.950 . S
C476 C477 1.327 . S
C477 H471 0.950 . S
C477 C476 1.327 . S
C477 C481 1.429 . S
C478 C461 1.574 . S
C478 H472 0.949 . S
C478 C482 1.368 . S
C479 C460 1.429 . S
C479 C473 1.429 . S
C479 C480 1.523 . S
C480 C461 1.368 . S
C480 C474 1.368 . S
C480 C479 1.523 . S
C481 C465 1.429 . S
C481 C477 1.429 . S
C481 C482 1.523 . S
C482 C466 1.368 . S
C482 C478 1.368 . S
C482 C481 1.523 . S
H483 C458 0.950 . S
H484 C460 0.950 . S
H485 C461 0.949 . S
H486 C463 0.950 . S
H487 C465 0.950 . S
C129 N18 2.331 . S
C134 C36 2.294 . S
C159 C70 1.400 . S
C164 N50 1.397 . S
C189 N109 1.234 . S
C194 N77 1.141 . S
C219 C4 2.071 . S
C224 C125 2.070 . S
C249 C98 2.770 . S
C254 C6 2.769 . S
C279 C68 0.820 . S
C284 N45 0.810 . S
C309 N82 1.078 . S
C314 N114 1.004 . S
C339 C38 2.591 . S
C344 N13 2.435 . S
C369 C29 0.872 . S
C374 C2 0.873 . S
C399 C34 0.880 . S
C404 C61 0.878 . S
C429 C66 0.866 1_554 S
C434 C93 0.872 . S
C459 C100 0.872 . S
C464 C102 0.874 1_556 S
