# Generated by pormake.
# Topology unp, (4)-cn, num edge types: 1
# Building blocks:
#     Node 0, Type 0, BuildingBlock: GALJAG_clean_sbu_0, # of connection points: 4
#     Node 1, Type 0, BuildingBlock: GALJAG_clean_sbu_0, # of connection points: 4
#     Node 2, Type 0, BuildingBlock: GALJAG_clean_sbu_0, # of connection points: 4
#     Node 3, Type 0, BuildingBlock: GALJAG_clean_sbu_0, # of connection points: 4
#     Node 4, Type 0, BuildingBlock: GALJAG_clean_sbu_0, # of connection points: 4
#     Node 5, Type 0, BuildingBlock: GALJAG_clean_sbu_0, # of connection points: 4
#     Node 6, Type 0, BuildingBlock: GALJAG_clean_sbu_0, # of connection points: 4
#     Node 7, Type 0, BuildingBlock: GALJAG_clean_sbu_0, # of connection points: 4
#     Node 8, Type 0, BuildingBlock: GALJAG_clean_sbu_0, # of connection points: 4
#     Node 9, Type 0, BuildingBlock: GALJAG_clean_sbu_0, # of connection points: 4
#     Node 10, Type 0, BuildingBlock: GALJAG_clean_sbu_0, # of connection points: 4
#     Node 11, Type 0, BuildingBlock: GALJAG_clean_sbu_0, # of connection points: 4
#     Node 12, Type 0, BuildingBlock: GALJAG_clean_sbu_0, # of connection points: 4
#     Node 13, Type 0, BuildingBlock: GALJAG_clean_sbu_0, # of connection points: 4
#     Node 14, Type 0, BuildingBlock: GALJAG_clean_sbu_0, # of connection points: 4
#     Node 15, Type 0, BuildingBlock: GALJAG_clean_sbu_0, # of connection points: 4
#     Node 16, Type 0, BuildingBlock: GALJAG_clean_sbu_0, # of connection points: 4
#     Node 17, Type 0, BuildingBlock: GALJAG_clean_sbu_0, # of connection points: 4
#     Edge 18, Type (0, 0), BuildingBlock: XUDNAN_clean_linker_2, # of connection points: 2
#     Edge 19, Type (0, 0), BuildingBlock: XUDNAN_clean_linker_2, # of connection points: 2
#     Edge 20, Type (0, 0), BuildingBlock: XUDNAN_clean_linker_2, # of connection points: 2
#     Edge 21, Type (0, 0), BuildingBlock: XUDNAN_clean_linker_2, # of connection points: 2
#     Edge 22, Type (0, 0), BuildingBlock: XUDNAN_clean_linker_2, # of connection points: 2
#     Edge 23, Type (0, 0), BuildingBlock: XUDNAN_clean_linker_2, # of connection points: 2
#     Edge 24, Type (0, 0), BuildingBlock: XUDNAN_clean_linker_2, # of connection points: 2
#     Edge 25, Type (0, 0), BuildingBlock: XUDNAN_clean_linker_2, # of connection points: 2
#     Edge 26, Type (0, 0), BuildingBlock: XUDNAN_clean_linker_2, # of connection points: 2
#     Edge 27, Type (0, 0), BuildingBlock: XUDNAN_clean_linker_2, # of connection points: 2
#     Edge 28, Type (0, 0), BuildingBlock: XUDNAN_clean_linker_2, # of connection points: 2
#     Edge 29, Type (0, 0), BuildingBlock: XUDNAN_clean_linker_2, # of connection points: 2
#     Edge 30, Type (0, 0), BuildingBlock: XUDNAN_clean_linker_2, # of connection points: 2
#     Edge 31, Type (0, 0), BuildingBlock: XUDNAN_clean_linker_2, # of connection points: 2
#     Edge 32, Type (0, 0), BuildingBlock: XUDNAN_clean_linker_2, # of connection points: 2
#     Edge 33, Type (0, 0), BuildingBlock: XUDNAN_clean_linker_2, # of connection points: 2
#     Edge 34, Type (0, 0), BuildingBlock: XUDNAN_clean_linker_2, # of connection points: 2
#     Edge 35, Type (0, 0), BuildingBlock: XUDNAN_clean_linker_2, # of connection points: 2
#     Edge 36, Type (0, 0), BuildingBlock: XUDNAN_clean_linker_2, # of connection points: 2
#     Edge 37, Type (0, 0), BuildingBlock: XUDNAN_clean_linker_2, # of connection points: 2
#     Edge 38, Type (0, 0), BuildingBlock: XUDNAN_clean_linker_2, # of connection points: 2
#     Edge 39, Type (0, 0), BuildingBlock: XUDNAN_clean_linker_2, # of connection points: 2
#     Edge 40, Type (0, 0), BuildingBlock: XUDNAN_clean_linker_2, # of connection points: 2
#     Edge 41, Type (0, 0), BuildingBlock: XUDNAN_clean_linker_2, # of connection points: 2
#     Edge 42, Type (0, 0), BuildingBlock: XUDNAN_clean_linker_2, # of connection points: 2
#     Edge 43, Type (0, 0), BuildingBlock: XUDNAN_clean_linker_2, # of connection points: 2
#     Edge 44, Type (0, 0), BuildingBlock: XUDNAN_clean_linker_2, # of connection points: 2
#     Edge 45, Type (0, 0), BuildingBlock: XUDNAN_clean_linker_2, # of connection points: 2
#     Edge 46, Type (0, 0), BuildingBlock: XUDNAN_clean_linker_2, # of connection points: 2
#     Edge 47, Type (0, 0), BuildingBlock: XUDNAN_clean_linker_2, # of connection points: 2
#     Edge 48, Type (0, 0), BuildingBlock: XUDNAN_clean_linker_2, # of connection points: 2
#     Edge 49, Type (0, 0), BuildingBlock: XUDNAN_clean_linker_2, # of connection points: 2
#     Edge 50, Type (0, 0), BuildingBlock: XUDNAN_clean_linker_2, # of connection points: 2
#     Edge 51, Type (0, 0), BuildingBlock: XUDNAN_clean_linker_2, # of connection points: 2
#     Edge 52, Type (0, 0), BuildingBlock: XUDNAN_clean_linker_2, # of connection points: 2
#     Edge 53, Type (0, 0), BuildingBlock: XUDNAN_clean_linker_2, # of connection points: 2
# Relax obj value: 0.397
# Max RMSD: 0.139
# Mean RMSD: 0.139
data_MOF--net-unp--node1-GALJAG_clean_sbu_0--edge1-XUDNAN_clean_linker_2
_symmetry_space_group_name_H-M    P1
_symmetry_Int_Tables_number       1
_symmetry_cell_setting            triclinic
loop_
_symmetry_equiv_pos_as_xyz
'x, y, z'
_cell_length_a     49.715291
_cell_length_b     49.728593
_cell_length_c     42.578443
_cell_angle_alpha  90.04397
_cell_angle_beta   89.988303
_cell_angle_gamma 119.95463
loop_
_atom_site_label
_atom_site_type_symbol
_atom_site_fract_x
_atom_site_fract_y
_atom_site_fract_z
_atom_type_partial_charge
In0 In 0.17599 0.16564 0.15001 0.0
O1 O 0.21366 0.21498 0.16497 0.0
O2 O 0.22705 0.18309 0.14819 0.0
C3 C 0.12116 0.15906 0.16759 0.0
C4 C 0.17214 0.17328 0.08819 0.0
C5 C 0.17106 0.11477 0.17758 0.0
O6 O 0.14522 0.17434 0.18433 0.0
O7 O 0.12533 0.1481 0.14256 0.0
O8 O 0.17758 0.12071 0.14885 0.0
O9 O 0.16738 0.13462 0.19254 0.0
C10 C 0.23555 0.21031 0.15707 0.0
O11 O 0.16884 0.1483 0.09953 0.0
O12 O 0.1771 0.1941 0.10809 0.0
In13 In 0.83896 0.99582 0.1714 0.0
O14 O 0.7932 0.99223 0.18802 0.0
O15 O 0.82888 0.03524 0.17033 0.0
C16 C 0.8356 0.94552 0.19979 0.0
C17 C 0.8258 0.98083 0.11048 0.0
C18 C 0.89793 0.04089 0.18244 0.0
O19 O 0.83684 0.96769 0.21541 0.0
O20 O 0.83477 0.94841 0.17054 0.0
O21 O 0.88764 0.03033 0.15544 0.0
O22 O 0.87836 0.02871 0.20435 0.0
C23 C 0.80146 0.01981 0.18031 0.0
O24 O 0.8533 0.99538 0.12076 0.0
O25 O 0.80495 0.97328 0.13107 0.0
In26 In 0.0046 0.85032 0.18274 0.0
O27 O -0.00152 0.86445 0.13332 0.0
O28 O 0.04002 0.86393 0.14354 0.0
C29 C 0.95273 0.84721 0.20567 0.0
C30 C 0.99131 0.79076 0.18257 0.0
C31 C 0.05109 0.90049 0.21083 0.0
O32 O 0.95921 0.84958 0.17678 0.0
O33 O 0.97234 0.84579 0.22349 0.0
O34 O 0.05252 0.87617 0.20594 0.0
O35 O 0.02588 0.89879 0.20282 0.0
C36 C 0.02417 0.86851 0.12343 0.0
O37 O 0.00786 0.80932 0.20395 0.0
O38 O 0.98118 0.80214 0.16265 0.0
In39 In 0.1599 0.15897 0.79614 0.0
O40 O 0.21219 0.19257 0.79251 0.0
O41 O 0.1817 0.20643 0.77334 0.0
C42 C 0.16299 0.10926 0.77544 0.0
C43 C 0.16167 0.16904 0.85834 0.0
C44 C 0.10063 0.14361 0.78405 0.0
O45 O 0.1547 0.12419 0.7578 0.0
O46 O 0.17124 0.12053 0.80258 0.0
O47 O 0.10994 0.14034 0.81049 0.0
O48 O 0.12125 0.15446 0.76297 0.0
C49 C 0.20923 0.21407 0.78043 0.0
O50 O 0.16217 0.18796 0.8383 0.0
O51 O 0.15989 0.14471 0.84701 0.0
In52 In 0.83043 0.97084 0.81805 0.0
O53 O 0.8002 0.96273 0.86092 0.0
O54 O 0.84757 0.9764 0.86881 0.0
C55 C 0.84077 0.923 0.8072 0.0
C56 C 0.77831 0.96359 0.79131 0.0
C57 C 0.87935 0.02541 0.79976 0.0
O58 O 0.82003 0.92094 0.82563 0.0
O59 O 0.8559 0.94893 0.79385 0.0
O60 O 0.85997 0.00633 0.78046 0.0
O61 O 0.87314 0.01755 0.82813 0.0
C62 C 0.82145 0.96894 0.88062 0.0
O63 O 0.79339 0.98444 0.81139 0.0
O64 O 0.79052 0.94762 0.78344 0.0
In65 In 0.02274 0.83951 0.83542 0.0
O66 O 0.05155 0.85099 0.87995 0.0
O67 O 0.01019 0.85347 0.88212 0.0
C68 C 0.06275 0.89201 0.80526 0.0
C69 C 0.03224 0.79062 0.8317 0.0
C70 C 0.96662 0.82888 0.81605 0.0
O71 O 0.05792 0.89065 0.83444 0.0
O72 O 0.04708 0.86666 0.79068 0.0
O73 O 0.99072 0.84296 0.7994 0.0
O74 O 0.97052 0.81873 0.84178 0.0
C75 C 0.03376 0.85645 0.8964 0.0
O76 O 0.00603 0.78723 0.83822 0.0
O77 O 0.05238 0.81787 0.82444 0.0
In78 In 0.81844 0.4932 0.52525 0.0
O79 O 0.853 0.54157 0.54433 0.0
O80 O 0.86803 0.50869 0.53883 0.0
C81 C 0.76268 0.48808 0.53672 0.0
C82 C 0.82723 0.50804 0.4639 0.0
C83 C 0.80804 0.43716 0.54408 0.0
O84 O 0.78296 0.49625 0.55807 0.0
O85 O 0.77097 0.4833 0.51038 0.0
O86 O 0.81602 0.44715 0.51642 0.0
O87 O 0.80572 0.45574 0.56263 0.0
C88 C 0.8752 0.53611 0.54568 0.0
O89 O 0.81892 0.48098 0.4736 0.0
O90 O 0.83115 0.5274 0.48513 0.0
In91 In 0.48629 0.33252 0.49188 0.0
O92 O 0.43871 0.32794 0.50422 0.0
O93 O 0.47162 0.36678 0.47791 0.0
C94 C 0.48307 0.28142 0.51816 0.0
C95 C 0.48338 0.31845 0.43083 0.0
C96 C 0.54127 0.37797 0.51377 0.0
O97 O 0.48131 0.30155 0.53479 0.0
O98 O 0.48494 0.28668 0.48918 0.0
O99 O 0.53673 0.36903 0.48557 0.0
O100 O 0.51778 0.36414 0.53134 0.0
C101 C 0.44465 0.3521 0.48901 0.0
O102 O 0.50812 0.33911 0.44363 0.0
O103 O 0.46035 0.30458 0.44905 0.0
In104 In 0.64552 0.17043 0.5008 0.0
O105 O 0.64913 0.12756 0.51543 0.0
O106 O 0.61356 0.12206 0.48385 0.0
C107 C 0.6937 0.21913 0.52869 0.0
C108 C 0.66768 0.18143 0.44204 0.0
C109 C 0.59751 0.17685 0.52089 0.0
O110 O 0.67857 0.19346 0.54291 0.0
O111 O 0.68441 0.2197 0.50134 0.0
O112 O 0.60518 0.17871 0.4924 0.0
O113 O 0.61382 0.17127 0.53958 0.0
C114 C 0.62717 0.10974 0.49738 0.0
O115 O 0.64474 0.18433 0.45011 0.0
O116 O 0.6798 0.17381 0.46385 0.0
In117 In 0.83692 0.51865 0.17115 0.0
O118 O 0.82484 0.49771 0.22051 0.0
O119 O 0.84593 0.54669 0.21583 0.0
C120 C 0.78169 0.51123 0.15116 0.0
C121 C 0.89015 0.57005 0.15496 0.0
C122 C 0.83929 0.46782 0.15387 0.0
O123 O 0.79605 0.52756 0.17453 0.0
O124 O 0.7954 0.49912 0.13736 0.0
O125 O 0.84348 0.48874 0.13443 0.0
O126 O 0.83513 0.47327 0.18186 0.0
C127 C 0.8352 0.52365 0.23403 0.0
O128 O 0.88951 0.54944 0.17264 0.0
O129 O 0.86416 0.56352 0.14355 0.0
In130 In 0.51097 0.33486 0.14076 0.0
O131 O 0.47999 0.30604 0.18094 0.0
O132 O 0.52557 0.34205 0.19232 0.0
C133 C 0.52546 0.29207 0.12121 0.0
C134 C 0.45722 0.33065 0.12141 0.0
C135 C 0.5618 0.39029 0.12827 0.0
O136 O 0.51944 0.30775 0.10202 0.0
O137 O 0.52415 0.2981 0.14974 0.0
O138 O 0.55355 0.3667 0.11125 0.0
O139 O 0.54366 0.38632 0.1507 0.0
C140 C 0.49977 0.32048 0.2021 0.0
O141 O 0.47734 0.35356 0.13672 0.0
O142 O 0.46556 0.31148 0.11351 0.0
In143 In 0.69094 0.18745 0.15098 0.0
O144 O 0.67222 0.18761 0.19973 0.0
O145 O 0.7144 0.18649 0.19641 0.0
C146 C 0.73595 0.24631 0.13904 0.0
C147 C 0.6972 0.13772 0.13813 0.0
C148 C 0.64037 0.18555 0.12519 0.0
O149 O 0.72299 0.23726 0.16533 0.0
O150 O 0.72617 0.22561 0.11806 0.0
O151 O 0.66405 0.19151 0.10916 0.0
O152 O 0.6417 0.17889 0.15347 0.0
C153 C 0.69415 0.1869 0.21398 0.0
O154 O 0.67216 0.13502 0.1483 0.0
O155 O 0.71789 0.16519 0.13213 0.0
In156 In 0.49607 0.81923 0.8295 0.0
O157 O 0.54411 0.8634 0.83602 0.0
O158 O 0.5404 0.82562 0.80927 0.0
C159 C 0.45677 0.82789 0.866 0.0
C160 C 0.47889 0.82694 0.77212 0.0
C161 C 0.48357 0.7628 0.84948 0.0
O162 O 0.48195 0.8313 0.87693 0.0
O163 O 0.45251 0.82133 0.83724 0.0
O164 O 0.47849 0.76807 0.82177 0.0
O165 O 0.49493 0.78606 0.8675 0.0
C166 C 0.55746 0.85298 0.81862 0.0
O167 O 0.47362 0.80075 0.78201 0.0
O168 O 0.49211 0.84903 0.79155 0.0
In169 In 0.18794 0.67746 0.87302 0.0
O170 O 0.13562 0.65768 0.87986 0.0
O171 O 0.16636 0.70083 0.90088 0.0
C172 C 0.1841 0.62182 0.88189 0.0
C173 C 0.19047 0.69179 0.81154 0.0
C174 C 0.2441 0.72139 0.89391 0.0
O175 O 0.20028 0.64493 0.89924 0.0
O176 O 0.16882 0.62641 0.86109 0.0
O177 O 0.23594 0.71849 0.86551 0.0
O178 O 0.22388 0.70178 0.91233 0.0
C179 C 0.13868 0.68112 0.89435 0.0
O180 O 0.1821 0.7039 0.83257 0.0
O181 O 0.19812 0.67262 0.82148 0.0
In182 In 0.32836 0.49018 0.8342 0.0
O183 O 0.3384 0.4513 0.84872 0.0
O184 O 0.29226 0.43974 0.83789 0.0
C185 C 0.37816 0.54236 0.85504 0.0
C186 C 0.34127 0.4932 0.77266 0.0
C187 C 0.28175 0.49985 0.85136 0.0
O188 O 0.36239 0.51998 0.87355 0.0
O189 O 0.36898 0.53769 0.82699 0.0
O190 O 0.28408 0.49115 0.82415 0.0
O191 O 0.30287 0.50346 0.8703 0.0
C192 C 0.3107 0.43012 0.84419 0.0
O193 O 0.32124 0.49929 0.78352 0.0
O194 O 0.35479 0.48559 0.79291 0.0
In195 In 0.47773 0.83741 0.48247 0.0
O196 O 0.52617 0.87629 0.49514 0.0
O197 O 0.50897 0.87744 0.44989 0.0
C198 C 0.48659 0.79184 0.45972 0.0
C199 C 0.46726 0.83769 0.54456 0.0
C200 C 0.42164 0.82693 0.46249 0.0
O201 O 0.48016 0.80834 0.44218 0.0
O202 O 0.48999 0.79943 0.48835 0.0
O203 O 0.44433 0.85389 0.46644 0.0
O204 O 0.42741 0.80544 0.46802 0.0
C205 C 0.53056 0.89076 0.4697 0.0
O206 O 0.47013 0.81642 0.5316 0.0
O207 O 0.46931 0.85846 0.52617 0.0
In208 In 0.16135 0.67651 0.52165 0.0
O209 O 0.17613 0.67036 0.57052 0.0
O210 O 0.1647 0.70587 0.56419 0.0
C211 C 0.17611 0.63305 0.50626 0.0
C212 C 0.09941 0.654 0.51904 0.0
C213 C 0.20406 0.7241 0.48642 0.0
O214 O 0.18623 0.6497 0.53062 0.0
O215 O 0.15804 0.63806 0.48953 0.0
O216 O 0.18842 0.69683 0.4761 0.0
O217 O 0.19692 0.72778 0.51379 0.0
C218 C 0.17329 0.69189 0.58282 0.0
O219 O 0.11849 0.68003 0.50751 0.0
O220 O 0.11153 0.63922 0.53036 0.0
In221 In 0.34583 0.52074 0.48321 0.0
O222 O 0.33106 0.51436 0.53394 0.0
O223 O 0.37596 0.52086 0.52376 0.0
C224 C 0.39297 0.57384 0.45947 0.0
C225 C 0.33995 0.46642 0.46354 0.0
C226 C 0.29726 0.53055 0.47874 0.0
O227 O 0.39275 0.56482 0.48715 0.0
O228 O 0.36981 0.55547 0.44316 0.0
O229 O 0.30016 0.51244 0.45996 0.0
O230 O 0.31854 0.54316 0.49882 0.0
C231 C 0.35581 0.51646 0.54434 0.0
O232 O 0.32563 0.46844 0.48695 0.0
O233 O 0.3556 0.49143 0.44863 0.0
H234 H 0.40853 0.27682 0.10045 0.0
H235 H 0.43169 0.36516 0.14268 0.0
H236 H 0.37605 0.34535 0.15392 0.0
H237 H 0.33082 0.25694 0.06822 0.0
H238 H 0.31532 0.21658 0.07791 0.0
H239 H 0.3557 0.24021 0.06764 0.0
H240 H 0.37081 0.22473 0.12008 0.0
H241 H 0.33064 0.20184 0.13098 0.0
H242 H 0.35748 0.23231 0.15664 0.0
H243 H 0.31792 0.31275 0.16658 0.0
H244 H 0.26333 0.27158 0.17646 0.0
H245 H 0.28131 0.20497 0.12889 0.0
C246 C 0.40184 0.29248 0.1109 0.0
C247 C 0.42435 0.3226 0.1204 0.0
C248 C 0.41471 0.34209 0.13481 0.0
C249 C 0.38319 0.33098 0.14145 0.0
C250 C 0.36173 0.3004 0.13345 0.0
C251 C 0.37073 0.28163 0.11807 0.0
C252 C 0.34414 0.24879 0.11486 0.0
C253 C 0.33601 0.24014 0.08009 0.0
C254 C 0.35121 0.22558 0.13165 0.0
C255 C 0.31895 0.2517 0.13154 0.0
C256 C 0.32916 0.28162 0.14178 0.0
C257 C 0.30966 0.2893 0.1584 0.0
C258 C 0.27884 0.2658 0.16414 0.0
C259 C 0.26822 0.23508 0.15372 0.0
C260 C 0.28874 0.22816 0.13744 0.0
H261 H 0.81464 0.07618 0.15822 0.0
H262 H 0.73939 0.99047 0.19593 0.0
H263 H 0.70267 0.00953 0.18538 0.0
H264 H 0.78934 0.12732 0.18793 0.0
H265 H 0.80198 0.1515 0.15341 0.0
H266 H 0.82148 0.13085 0.16508 0.0
H267 H 0.81112 0.10557 0.10981 0.0
H268 H 0.79091 0.12559 0.09824 0.0
H269 H 0.77184 0.08389 0.09539 0.0
H270 H 0.67456 0.03898 0.17043 0.0
H271 H 0.65861 0.07734 0.1564 0.0
H272 H 0.75269 0.14163 0.12623 0.0
C273 C 0.79051 0.06148 0.16466 0.0
C274 C 0.77984 0.03194 0.17809 0.0
C275 C 0.74804 0.01333 0.18586 0.0
C276 C 0.72703 0.02385 0.17972 0.0
C277 C 0.73828 0.05285 0.1656 0.0
C278 C 0.76936 0.0714 0.1584 0.0
C279 C 0.7759 0.10158 0.14342 0.0
C280 C 0.7985 0.12945 0.16368 0.0
C281 C 0.78816 0.10429 0.10972 0.0
C282 C 0.74369 0.09742 0.14357 0.0
C283 C 0.72218 0.06916 0.1563 0.0
C284 C 0.69118 0.06104 0.16021 0.0
C285 C 0.68228 0.08287 0.15198 0.0
C286 C 0.70437 0.11233 0.13998 0.0
C287 C 0.73516 0.11914 0.13488 0.0
H288 H 0.8958 0.61876 0.12073 0.0
H289 H 0.94335 0.59349 0.18983 0.0
H290 H 0.97942 0.64892 0.20067 0.0
H291 H 0.96667 0.6939 0.094 0.0
H292 H 0.94339 0.71219 0.08989 0.0
H293 H 0.92651 0.67119 0.08251 0.0
H294 H 0.8833 0.66025 0.12297 0.0
H295 H 0.90038 0.70095 0.13118 0.0
H296 H 0.89391 0.6742 0.16269 0.0
H297 H 0.0026 0.70616 0.21197 0.0
H298 H 0.01494 0.76082 0.21781 0.0
H299 H 0.95218 0.74773 0.14104 0.0
C300 C 0.91469 0.62492 0.13708 0.0
C301 C 0.91686 0.60192 0.15437 0.0
C302 C 0.94147 0.6108 0.17608 0.0
C303 C 0.96201 0.64225 0.1825 0.0
C304 C 0.95791 0.66441 0.16656 0.0
C305 C 0.93534 0.65612 0.14368 0.0
C306 C 0.93344 0.6839 0.13229 0.0
C307 C 0.94309 0.6907 0.09761 0.0
C308 C 0.90083 0.67954 0.13763 0.0
C309 C 0.95722 0.70875 0.1535 0.0
C310 C 0.97142 0.6973 0.1729 0.0
C311 C 0.99221 0.71558 0.19634 0.0
C312 C -0.00112 0.74644 0.19971 0.0
C313 C 0.98461 0.75845 0.17981 0.0
C314 C 0.96373 0.7393 0.15639 0.0
H315 H 0.25626 0.38571 0.82003 0.0
H316 H 0.34479 0.40091 0.85488 0.0
H317 H 0.33073 0.34764 0.83785 0.0
H318 H 0.20989 0.30539 0.83995 0.0
H319 H 0.18687 0.29659 0.80474 0.0
H320 H 0.20403 0.33477 0.82168 0.0
H321 H 0.23063 0.35817 0.76827 0.0
H322 H 0.21429 0.31993 0.75148 0.0
H323 H 0.2557 0.34579 0.75082 0.0
H324 H 0.30524 0.29147 0.81723 0.0
H325 H 0.27017 0.23795 0.79821 0.0
H326 H 0.20188 0.26403 0.77254 0.0
C327 C 0.2726 0.37779 0.82467 0.0
C328 C 0.30146 0.39726 0.83916 0.0
C329 C 0.32236 0.38613 0.84417 0.0
C330 C 0.31468 0.35609 0.83431 0.0
C331 C 0.28634 0.33791 0.81903 0.0
C332 C 0.26569 0.34848 0.81438 0.0
C333 C 0.23704 0.32518 0.79692 0.0
C334 C 0.20774 0.31487 0.81703 0.0
C335 C 0.23428 0.33805 0.76498 0.0
C336 C 0.24433 0.29938 0.79285 0.0
C337 C 0.27281 0.30695 0.8057 0.0
C338 C 0.28312 0.28552 0.80674 0.0
C339 C 0.26319 0.25526 0.79564 0.0
C340 C 0.23348 0.24696 0.78352 0.0
C341 C 0.22468 0.26977 0.781 0.0
H342 H 0.73795 0.97418 0.82491 0.0
H343 H 0.74559 0.92898 0.74101 0.0
H344 H 0.68866 0.90138 0.73509 0.0
H345 H 0.67862 0.91101 0.85644 0.0
H346 H 0.658 0.92872 0.87342 0.0
H347 H 0.69913 0.95155 0.86697 0.0
H348 H 0.69165 0.99069 0.83335 0.0
H349 H 0.6504 0.96838 0.84029 0.0
H350 H 0.66505 0.97687 0.80066 0.0
H351 H 0.63277 0.87103 0.74432 0.0
H352 H 0.57989 0.84194 0.76553 0.0
H353 H 0.60674 0.90579 0.84421 0.0
C354 C 0.72767 0.95969 0.80442 0.0
C355 C 0.74602 0.95396 0.78309 0.0
C356 C 0.73185 0.93389 0.7573 0.0
C357 C 0.69957 0.91816 0.75378 0.0
C358 C 0.68193 0.92287 0.77624 0.0
C359 C 0.69539 0.9435 0.80083 0.0
C360 C 0.67107 0.94096 0.82409 0.0
C361 C 0.67708 0.93255 0.85716 0.0
C362 C 0.66945 0.97101 0.82461 0.0
C363 C 0.64207 0.9145 0.80962 0.0
C364 C 0.64895 0.90484 0.78179 0.0
C365 C 0.62691 0.87885 0.76561 0.0
C366 C 0.59702 0.86229 0.77809 0.0
C367 C 0.5893 0.87171 0.80649 0.0
C368 C 0.61199 0.89843 0.82224 0.0
H369 H 0.14723 0.73899 0.89864 0.0
H370 H 0.07583 0.64295 0.88558 0.0
H371 H 0.03855 0.66005 0.87037 0.0
H372 H 0.0975 0.77117 0.92404 0.0
H373 H 0.12039 0.80598 0.90149 0.0
H374 H 0.13834 0.78548 0.91809 0.0
H375 H 0.15825 0.78229 0.86269 0.0
H376 H 0.13954 0.80179 0.84569 0.0
H377 H 0.13078 0.76422 0.83115 0.0
H378 H 0.01053 0.68911 0.85208 0.0
H379 H 0.99535 0.72684 0.83257 0.0
H380 H 0.08848 0.80222 0.85127 0.0
C381 C 0.12339 0.72141 0.89398 0.0
C382 C 0.11419 0.68962 0.89394 0.0
C383 C 0.08311 0.66742 0.88636 0.0
C384 C 0.06189 0.67695 0.87751 0.0
C385 C 0.07235 0.70871 0.87597 0.0
C386 C 0.10243 0.73052 0.88414 0.0
C387 C 0.10955 0.7631 0.87672 0.0
C388 C 0.11686 0.78257 0.90688 0.0
C389 C 0.13609 0.77874 0.85264 0.0
C390 C 0.07897 0.75634 0.8627 0.0
C391 C 0.05745 0.72499 0.86296 0.0
C392 C 0.02729 0.71369 0.85169 0.0
C393 C 0.01893 0.73514 0.84045 0.0
C394 C 0.04099 0.76723 0.83976 0.0
C395 C 0.07136 0.77772 0.85073 0.0
H396 H 0.92469 0.52822 0.55613 0.0
H397 H 0.89954 0.59892 0.53975 0.0
H398 H 0.95502 0.63801 0.53234 0.0
H399 H -0.00074 0.57904 0.59719 0.0
H400 H 0.01742 0.55926 0.5793 0.0
H401 H 0.97636 0.53845 0.58733 0.0
H402 H 0.96578 0.52195 0.52883 0.0
H403 H 0.00668 0.54332 0.52042 0.0
H404 H 0.98036 0.55136 0.49873 0.0
H405 H 0.0128 0.66752 0.51971 0.0
H406 H 0.0686 0.68637 0.50991 0.0
H407 H 0.05467 0.59582 0.53526 0.0
C408 C 0.93092 0.55213 0.55196 0.0
C409 C 0.90794 0.56065 0.54867 0.0
C410 C 0.9169 0.59205 0.54278 0.0
C411 C 0.9483 0.61433 0.5383 0.0
C412 C 0.97031 0.60479 0.54021 0.0
C413 C 0.96201 0.57455 0.54761 0.0
C414 C 0.98967 0.56968 0.54685 0.0
C415 C 0.99606 0.56111 0.57962 0.0
C416 C 0.98534 0.54513 0.52224 0.0
C417 C 0.01476 0.60169 0.53713 0.0
C418 C 0.00327 0.6217 0.53334 0.0
C419 C 0.02211 0.65216 0.52307 0.0
C420 C 0.05365 0.66258 0.51728 0.0
C421 C 0.06586 0.64254 0.5219 0.0
C422 C 0.04601 0.61171 0.53169 0.0
H423 H 0.33779 0.42625 0.50786 0.0
H424 H 0.35449 0.44819 0.40879 0.0
H425 H 0.37388 0.41137 0.40348 0.0
H426 H 0.40542 0.42995 0.52176 0.0
H427 H 0.39243 0.39913 0.55023 0.0
H428 H 0.37125 0.41933 0.54505 0.0
H429 H 0.32091 0.36749 0.53363 0.0
H430 H 0.34184 0.34689 0.53929 0.0
H431 H 0.32079 0.3421 0.50331 0.0
H432 H 0.40133 0.38255 0.41076 0.0
H433 H 0.43499 0.36282 0.42974 0.0
H434 H 0.40258 0.35974 0.52486 0.0
C435 C 0.34399 0.42199 0.48475 0.0
C436 C 0.34405 0.43941 0.45851 0.0
C437 C 0.35379 0.43458 0.42895 0.0
C438 C 0.36477 0.41368 0.42577 0.0
C439 C 0.36597 0.39801 0.45243 0.0
C440 C 0.35564 0.40169 0.48138 0.0
C441 C 0.36437 0.38641 0.50723 0.0
C442 C 0.38457 0.41012 0.53253 0.0
C443 C 0.33524 0.35909 0.52171 0.0
C444 C 0.38278 0.37512 0.48856 0.0
C445 C 0.38271 0.38147 0.45689 0.0
C446 C 0.40089 0.37668 0.4353 0.0
C447 C 0.42007 0.3657 0.44633 0.0
C448 C 0.42097 0.35957 0.47862 0.0
C449 C 0.40155 0.36354 0.49996 0.0
H450 H 0.62191 0.06133 0.53372 0.0
H451 H 0.61869 0.08927 0.43804 0.0
H452 H 0.60418 0.037 0.41914 0.0
H453 H 0.6475 0.00261 0.51407 0.0
H454 H 0.6225 0.97612 0.5438 0.0
H455 H 0.63964 0.01742 0.54945 0.0
H456 H 0.585 0.01067 0.5582 0.0
H457 H 0.56785 0.96952 0.55281 0.0
H458 H 0.55545 0.99112 0.52871 0.0
H459 H 0.58166 0.98119 0.41123 0.0
H460 H 0.54935 0.9243 0.41549 0.0
H461 H 0.56617 0.93064 0.51589 0.0
C462 C 0.61907 0.05649 0.50877 0.0
C463 C 0.62151 0.07911 0.48725 0.0
C464 C 0.61682 0.07204 0.45483 0.0
C465 C 0.60891 0.04255 0.44382 0.0
C466 C 0.60572 0.0203 0.46555 0.0
C467 C 0.61059 0.02677 0.49738 0.0
C468 C 0.60105 0.9974 0.51602 0.0
C469 C 0.62937 0.99846 0.53176 0.0
C470 C 0.57584 0.99186 0.54034 0.0
C471 C 0.58838 0.97341 0.48991 0.0
C472 C 0.59217 0.98727 0.4609 0.0
C473 C 0.5792 0.96998 0.43366 0.0
C474 C 0.56086 0.9377 0.43627 0.0
C475 C 0.5556 0.92315 0.46591 0.0
C476 C 0.57053 0.94114 0.49281 0.0
H477 H 0.07212 0.14168 0.12915 0.0
H478 H 0.09889 0.15758 0.2272 0.0
H479 H 0.04343 0.13411 0.24232 0.0
H480 H 0.0035 0.1535 0.13514 0.0
H481 H 0.98226 0.12316 0.10684 0.0
H482 H 0.02394 0.14634 0.10423 0.0
H483 H 0.02771 0.09621 0.10541 0.0
H484 H 0.98624 0.07294 0.10848 0.0
H485 H 0.01059 0.06949 0.13768 0.0
H486 H 0.9843 0.1011 0.24627 0.0
H487 H 0.92811 0.06426 0.23864 0.0
H488 H 0.94184 0.07085 0.13775 0.0
C489 C 0.06641 0.14113 0.15378 0.0
C490 C 0.08964 0.15151 0.17705 0.0
C491 C 0.08135 0.15011 0.20904 0.0
C492 C 0.04994 0.13673 0.21778 0.0
C493 C 0.0274 0.12544 0.19416 0.0
C494 C 0.03543 0.12806 0.16276 0.0
C495 C 0.00722 0.11173 0.14186 0.0
C496 C 0.00404 0.13508 0.12078 0.0
C497 C 0.00801 0.08608 0.12223 0.0
C498 C 0.98196 0.09826 0.16636 0.0
C499 C 0.99381 0.10666 0.19641 0.0
C500 C 0.97477 0.09492 0.22281 0.0
C501 C 0.94294 0.07396 0.21828 0.0
C502 C 0.93068 0.06482 0.18761 0.0
C503 C 0.95047 0.07759 0.16148 0.0
H504 H 0.8307 0.8954 0.16971 0.0
H505 H 0.85425 0.94224 0.25974 0.0
H506 H 0.87683 0.91015 0.27657 0.0
H507 H 0.81987 0.81681 0.19809 0.0
H508 H 0.83775 0.81367 0.16249 0.0
H509 H 0.81445 0.83217 0.16181 0.0
H510 H 0.86053 0.88122 0.13727 0.0
H511 H 0.88396 0.8632 0.13818 0.0
H512 H 0.89739 0.90006 0.15739 0.0
H513 H 0.90822 0.88338 0.27819 0.0
H514 H 0.94519 0.86569 0.26415 0.0
H515 H 0.90235 0.83768 0.17245 0.0
C516 C 0.83927 0.89784 0.19353 0.0
C517 C 0.84064 0.92113 0.21349 0.0
C518 C 0.85262 0.92421 0.24423 0.0
C519 C 0.86548 0.90603 0.25397 0.0
C520 C 0.86575 0.88467 0.23282 0.0
C521 C 0.85242 0.88017 0.20333 0.0
C522 C 0.86043 0.86031 0.18283 0.0
C523 C 0.83139 0.82887 0.17591 0.0
C524 C 0.87655 0.87723 0.15216 0.0
C525 C 0.88244 0.85647 0.20434 0.0
C526 C 0.88441 0.86965 0.2335 0.0
C527 C 0.90618 0.87221 0.25579 0.0
C528 C 0.92711 0.8621 0.24765 0.0
C529 C 0.92643 0.85027 0.21726 0.0
C530 C 0.90304 0.84631 0.19597 0.0
H531 H 0.12406 0.07925 0.21706 0.0
H532 H 0.20137 0.08265 0.16684 0.0
H533 H 0.18451 0.02885 0.18348 0.0
H534 H 0.11528 0.02166 0.2812 0.0
H535 H 0.07358 0.00265 0.27835 0.0
H536 H 0.09678 0.04382 0.27137 0.0
H537 H 0.07091 0.03672 0.2168 0.0
H538 H 0.04772 0.99581 0.22367 0.0
H539 H 0.07194 0.00972 0.18921 0.0
H540 H 0.15487 0.97291 0.1975 0.0
H541 H 0.11187 0.91872 0.20006 0.0
H542 H 0.05121 0.9504 0.23679 0.0
C543 C 0.13817 0.06904 0.21091 0.0
C544 C 0.16439 0.08506 0.19148 0.0
C545 C 0.18151 0.07071 0.18226 0.0
C546 C 0.17221 0.0403 0.1918 0.0
C547 C 0.1455 0.02454 0.21015 0.0
C548 C 0.12855 0.03839 0.21937 0.0
C549 C 0.09745 0.01485 0.23301 0.0
C550 C 0.09568 0.02113 0.26807 0.0
C551 C 0.07045 0.01424 0.21455 0.0
C552 C 0.09873 0.98535 0.22829 0.0
C553 C 0.12717 0.99155 0.21641 0.0
C554 C 0.13276 0.9678 0.20738 0.0
C555 C 0.10824 0.93705 0.20904 0.0
C556 C 0.07839 0.93057 0.21876 0.0
C557 C 0.07401 0.95486 0.22974 0.0
H558 H 0.11045 0.94235 0.83235 0.0
H559 H 0.06169 0.90876 0.74402 0.0
H560 H 0.09155 0.96183 0.72189 0.0
H561 H 0.10759 0.0078 0.83628 0.0
H562 H 0.14544 0.0319 0.85332 0.0
H563 H 0.12568 0.99072 0.85926 0.0
H564 H 0.17278 0.98844 0.83618 0.0
H565 H 0.19281 0.02986 0.83016 0.0
H566 H 0.18715 0.00424 0.79772 0.0
H567 H 0.11813 0.01983 0.714 0.0
H568 H 0.13918 0.07624 0.72085 0.0
H569 H 0.1724 0.07111 0.81352 0.0
C570 C 0.10682 0.94601 0.808 0.0
C571 C 0.08392 0.92168 0.7898 0.0
C572 C 0.07945 0.92718 0.75818 0.0
C573 C 0.09634 0.95721 0.74545 0.0
C574 C 0.11804 0.9811 0.7645 0.0
C575 C 0.12369 0.97559 0.79496 0.0
C576 C 0.14532 0.00539 0.81195 0.0
C577 C 0.13008 0.00916 0.84193 0.0
C578 C 0.17636 0.00708 0.81943 0.0
C579 C 0.14932 0.02877 0.7871 0.0
C580 C 0.13398 0.01444 0.75962 0.0
C581 C 0.13101 0.03133 0.73502 0.0
C582 C 0.14304 0.06337 0.73909 0.0
C583 C 0.15763 0.07803 0.76762 0.0
C584 C 0.16192 0.06066 0.79121 0.0
H585 H 0.05709 0.13153 0.82847 0.0
H586 H 0.07012 0.13373 0.72765 0.0
H587 H 0.01346 0.11141 0.72 0.0
H588 H 0.99258 0.06082 0.83231 0.0
H589 H 0.97361 0.07001 0.86312 0.0
H590 H 0.01515 0.09134 0.86002 0.0
H591 H 0.01412 0.14291 0.85706 0.0
H592 H 0.97237 0.12162 0.86014 0.0
H593 H 0.99076 0.14759 0.82758 0.0
H594 H 0.95494 0.08065 0.72425 0.0
H595 H 0.90063 0.04444 0.73981 0.0
H596 H 0.92679 0.06429 0.83783 0.0
C597 C 0.04813 0.12806 0.80473 0.0
C598 C 0.06783 0.13428 0.77863 0.0
C599 C 0.05533 0.12926 0.74794 0.0
C600 C 0.02324 0.1167 0.74341 0.0
C601 C 0.00426 0.10995 0.76982 0.0
C602 C 0.0164 0.11586 0.79988 0.0
C603 C 0.99115 0.10375 0.82451 0.0
C604 C 0.99325 0.08008 0.84623 0.0
C605 C 0.99216 0.13057 0.84343 0.0
C606 C 0.96277 0.08845 0.80372 0.0
C607 C 0.97066 0.09273 0.77222 0.0
C608 C 0.94845 0.07781 0.74879 0.0
C609 C 0.91765 0.05728 0.75784 0.0
C610 C 0.90952 0.05178 0.79002 0.0
C611 C 0.9322 0.06847 0.81305 0.0
H612 H 0.96004 0.86671 0.77463 0.0
H613 H 0.90965 0.79461 0.84353 0.0
H614 H 0.86594 0.80485 0.84055 0.0
H615 H 0.94473 0.9186 0.8068 0.0
H616 H 0.94102 0.93591 0.77107 0.0
H617 H 0.96413 0.91742 0.77147 0.0
H618 H 0.93162 0.88134 0.7258 0.0
H619 H 0.90853 0.90005 0.72494 0.0
H620 H 0.88999 0.85853 0.72942 0.0
H621 H 0.83304 0.82958 0.83822 0.0
H622 H 0.81399 0.8669 0.83716 0.0
H623 H 0.88673 0.92419 0.77116 0.0
C624 C 0.93918 0.85208 0.78794 0.0
C625 C 0.93795 0.82958 0.80897 0.0
C626 C 0.91082 0.8117 0.82698 0.0
C627 C 0.88588 0.81732 0.82537 0.0
C628 C 0.88846 0.84086 0.8056 0.0
C629 C 0.91437 0.85779 0.78696 0.0
C630 C 0.91381 0.88499 0.77167 0.0
C631 C 0.94261 0.91604 0.78083 0.0
C632 C 0.9108 0.88097 0.73583 0.0
C633 C 0.88452 0.88179 0.786 0.0
C634 C 0.86977 0.85573 0.80485 0.0
C635 C 0.84396 0.84963 0.82296 0.0
C636 C 0.83336 0.871 0.82229 0.0
C637 C 0.84883 0.89832 0.80397 0.0
C638 C 0.87418 0.90326 0.78502 0.0
H639 H 0.72127 0.48111 0.49196 0.0
H640 H 0.73129 0.4779 0.59277 0.0
H641 H 0.67451 0.45602 0.59903 0.0
H642 H 0.65471 0.49692 0.49258 0.0
H643 H 0.63762 0.47231 0.45879 0.0
H644 H 0.67922 0.49372 0.46337 0.0
H645 H 0.68063 0.44248 0.45835 0.0
H646 H 0.63919 0.42092 0.45413 0.0
H647 H 0.65761 0.41086 0.48475 0.0
H648 H 0.6156 0.42621 0.59279 0.0
H649 H 0.56137 0.39236 0.57491 0.0
H650 H 0.5915 0.41519 0.47821 0.0
C651 C 0.71169 0.47678 0.51548 0.0
C652 C 0.73055 0.48127 0.54191 0.0
C653 C 0.71719 0.47495 0.57226 0.0
C654 C 0.68499 0.4625 0.57598 0.0
C655 C 0.66678 0.45702 0.54915 0.0
C656 C 0.67986 0.46442 0.5195 0.0
C657 C 0.65543 0.45319 0.49407 0.0
C658 C 0.65683 0.48068 0.47615 0.0
C659 C 0.6584 0.43052 0.47153 0.0
C660 C 0.62644 0.43687 0.51381 0.0
C661 C 0.63323 0.43977 0.54556 0.0
C662 C 0.61004 0.42436 0.56803 0.0
C663 C 0.57933 0.40516 0.55769 0.0
C664 C 0.57234 0.40127 0.5252 0.0
C665 C 0.59614 0.41792 0.50321 0.0
H666 H 0.48018 0.23363 0.48545 0.0
H667 H 0.50055 0.27543 0.57799 0.0
H668 H 0.52381 0.24331 0.59287 0.0
H669 H 0.46947 0.15459 0.50842 0.0
H670 H 0.48872 0.15378 0.47285 0.0
H671 H 0.46553 0.17239 0.47317 0.0
H672 H 0.51264 0.22287 0.45223 0.0
H673 H 0.53606 0.20478 0.45232 0.0
H674 H 0.54862 0.24029 0.4739 0.0
H675 H 0.55469 0.21536 0.59334 0.0
H676 H 0.58983 0.19531 0.57934 0.0
H677 H 0.55122 0.17471 0.4854 0.0
C678 C 0.48824 0.23499 0.50935 0.0
C679 C 0.48839 0.25678 0.53067 0.0
C680 C 0.49975 0.25847 0.56149 0.0
C681 C 0.51308 0.24034 0.57007 0.0
C682 C 0.51447 0.22052 0.54764 0.0
C683 C 0.50188 0.21748 0.51798 0.0
C684 C 0.51065 0.19896 0.49634 0.0
C685 C 0.48187 0.16809 0.48717 0.0
C686 C 0.52803 0.21787 0.46701 0.0
C687 C 0.53178 0.19366 0.51771 0.0
C688 C 0.53302 0.20535 0.54752 0.0
C689 C 0.5533 0.20551 0.57031 0.0
C690 C 0.57319 0.19412 0.56217 0.0
C691 C 0.57309 0.18346 0.53132 0.0
C692 C 0.55155 0.18251 0.50923 0.0
H693 H 0.81001 0.39383 0.50694 0.0
H694 H 0.7847 0.40779 0.60044 0.0
H695 H 0.76182 0.35169 0.61128 0.0
H696 H 0.74302 0.33026 0.49038 0.0
H697 H 0.75875 0.31051 0.46799 0.0
H698 H 0.77995 0.352 0.47081 0.0
H699 H 0.82765 0.35002 0.49259 0.0
H700 H 0.80641 0.30826 0.48986 0.0
H701 H 0.82335 0.3268 0.52674 0.0
H702 H 0.73295 0.29318 0.60799 0.0
H703 H 0.6991 0.23906 0.58972 0.0
H704 H 0.74298 0.26412 0.49837 0.0
C705 C 0.80066 0.38528 0.5301 0.0
C706 C 0.79923 0.40508 0.55289 0.0
C707 C 0.78624 0.39298 0.58271 0.0
C708 C 0.77332 0.36117 0.58912 0.0
C709 C 0.77397 0.34195 0.56558 0.0
C710 C 0.78761 0.35372 0.53672 0.0
C711 C 0.78133 0.32811 0.51369 0.0
C712 C 0.76476 0.33036 0.48401 0.0
C713 C 0.81149 0.32831 0.50524 0.0
C714 C 0.76027 0.30007 0.53331 0.0
C715 C 0.75702 0.30829 0.56353 0.0
C716 C 0.73595 0.2864 0.58468 0.0
C717 C 0.7169 0.25571 0.57422 0.0
C718 C 0.71878 0.24765 0.54279 0.0
C719 C 0.74154 0.26977 0.52267 0.0
H720 H 0.76671 0.28999 0.18344 0.0
H721 H 0.75754 0.27644 0.08259 0.0
H722 H 0.79179 0.33307 0.07485 0.0
H723 H 0.7598 0.35416 0.18585 0.0
H724 H 0.78729 0.37342 0.21712 0.0
H725 H 0.76741 0.33188 0.21423 0.0
H726 H 0.82019 0.33317 0.21277 0.0
H727 H 0.84033 0.37491 0.21571 0.0
H728 H 0.84876 0.35651 0.18371 0.0
H729 H 0.81955 0.39174 0.07886 0.0
H730 H 0.83765 0.4462 0.0941 0.0
H731 H 0.82906 0.42017 0.19231 0.0
C732 C 0.77257 0.29882 0.15969 0.0
C733 C 0.75959 0.279 0.13359 0.0
C734 C 0.76751 0.29134 0.10288 0.0
C735 C 0.78697 0.32341 0.0983 0.0
C736 C 0.79865 0.34253 0.12469 0.0
C737 C 0.79198 0.33052 0.1548 0.0
C738 C 0.80445 0.35584 0.17934 0.0
C739 C 0.77817 0.35369 0.20033 0.0
C740 C 0.82996 0.35506 0.19904 0.0
C741 C 0.81778 0.3841 0.15844 0.0
C742 C 0.81482 0.37613 0.12698 0.0
C743 C 0.82266 0.3983 0.1034 0.0
C744 C 0.83292 0.42916 0.11226 0.0
C745 C 0.8349 0.43735 0.14437 0.0
C746 C 0.82822 0.41467 0.16758 0.0
H747 H 0.74192 0.4676 0.10965 0.0
H748 H 0.74949 0.53767 0.17543 0.0
H749 H 0.69382 0.51988 0.16821 0.0
H750 H 0.67961 0.46723 0.05772 0.0
H751 H 0.66101 0.42574 0.05282 0.0
H752 H 0.70255 0.44836 0.05759 0.0
H753 H 0.69924 0.4139 0.10474 0.0
H754 H 0.65787 0.39133 0.10018 0.0
H755 H 0.67423 0.40953 0.13736 0.0
H756 H 0.63651 0.48859 0.162 0.0
H757 H 0.58217 0.44612 0.15744 0.0
H758 H 0.61147 0.39665 0.09506 0.0
C759 C 0.73208 0.47993 0.12161 0.0
C760 C 0.74998 0.50414 0.14289 0.0
C761 C 0.73619 0.51919 0.15884 0.0
C762 C 0.70462 0.50933 0.15477 0.0
C763 C 0.68726 0.48459 0.13447 0.0
C764 C 0.70057 0.47026 0.11791 0.0
C765 C 0.6762 0.44167 0.10088 0.0
C766 C 0.68008 0.44603 0.06513 0.0
C767 C 0.67693 0.4124 0.11145 0.0
C768 C 0.64699 0.44116 0.11189 0.0
C769 C 0.65388 0.46648 0.13072 0.0
C770 C 0.63079 0.46913 0.14662 0.0
C771 C 0.6 0.44488 0.14394 0.0
C772 C 0.59265 0.41836 0.12559 0.0
C773 C 0.61634 0.41705 0.10856 0.0
H774 H 0.52797 0.24891 0.15798 0.0
H775 H 0.54613 0.28583 0.06332 0.0
H776 H 0.56991 0.25368 0.05045 0.0
H777 H 0.59654 0.25221 0.16978 0.0
H778 H 0.58176 0.21692 0.19223 0.0
H779 H 0.56092 0.23775 0.19169 0.0
H780 H 0.51156 0.18835 0.17218 0.0
H781 H 0.53236 0.16727 0.17266 0.0
H782 H 0.51343 0.1689 0.1372 0.0
H783 H 0.60027 0.22541 0.05148 0.0
H784 H 0.63366 0.20359 0.06612 0.0
H785 H 0.59344 0.18368 0.15945 0.0
C786 C 0.53614 0.24955 0.13426 0.0
C787 C 0.53524 0.26975 0.1116 0.0
C788 C 0.54641 0.27026 0.08092 0.0
C789 C 0.55987 0.25203 0.07342 0.0
C790 C 0.56132 0.23303 0.0967 0.0
C791 C 0.5493 0.23137 0.12639 0.0
C792 C 0.55654 0.21191 0.14829 0.0
C793 C 0.57504 0.23084 0.17716 0.0
C794 C 0.52669 0.18235 0.15815 0.0
C795 C 0.57612 0.20435 0.1269 0.0
C796 C 0.57822 0.21621 0.09705 0.0
C797 C 0.59811 0.21528 0.07449 0.0
C798 C 0.61699 0.20285 0.08299 0.0
C799 C 0.61589 0.19169 0.11382 0.0
C800 C 0.59432 0.19143 0.13551 0.0
H801 H 0.28401 0.77301 0.86207 0.0
H802 H 0.2757 0.7215 0.94693 0.0
H803 H 0.33195 0.75545 0.95691 0.0
H804 H 0.34742 0.77639 0.83513 0.0
H805 H 0.36512 0.81483 0.81853 0.0
H806 H 0.32389 0.79289 0.82337 0.0
H807 H 0.32563 0.83758 0.85639 0.0
H808 H 0.36722 0.85973 0.85172 0.0
H809 H 0.35038 0.8518 0.89047 0.0
H810 H 0.38992 0.78595 0.95028 0.0
H811 H 0.44221 0.8076 0.92678 0.0
H812 H 0.41243 0.84006 0.84708 0.0
C813 C 0.29386 0.76965 0.88338 0.0
C814 C 0.27571 0.74478 0.90375 0.0
C815 C 0.28927 0.7407 0.93121 0.0
C816 C 0.32117 0.75997 0.93708 0.0
C817 C 0.33887 0.78354 0.91564 0.0
C818 C 0.32544 0.7887 0.88955 0.0
C819 C 0.34963 0.81195 0.86743 0.0
C820 C 0.34632 0.79816 0.83421 0.0
C821 C 0.34812 0.84205 0.86647 0.0
C822 C 0.37886 0.81708 0.88364 0.0
C823 C 0.3724 0.80142 0.91198 0.0
C824 C 0.39538 0.79913 0.92869 0.0
C825 C 0.42511 0.81164 0.9153 0.0
C826 C 0.43119 0.82567 0.88532 0.0
C827 C 0.40836 0.82994 0.87034 0.0
H828 H 0.28417 0.54027 0.8962 0.0
H829 H 0.2256 0.47792 0.82299 0.0
H830 H 0.18807 0.49609 0.83089 0.0
H831 H 0.22018 0.53823 0.94642 0.0
H832 H 0.24331 0.5791 0.95494 0.0
H833 H 0.26185 0.55626 0.94882 0.0
H834 H 0.29602 0.59419 0.90507 0.0
H835 H 0.27764 0.61702 0.91102 0.0
H836 H 0.2776 0.60186 0.87254 0.0
H837 H 0.16168 0.52646 0.84024 0.0
H838 H 0.14984 0.56859 0.84832 0.0
H839 H 0.22591 0.61242 0.91474 0.0
C840 C 0.26284 0.52965 0.88274 0.0
C841 C 0.25745 0.50742 0.85933 0.0
C842 C 0.22993 0.49481 0.84124 0.0
C843 C 0.20842 0.50485 0.8457 0.0
C844 C 0.21482 0.52756 0.8683 0.0
C845 C 0.24136 0.53981 0.88658 0.0
C846 C 0.24507 0.56711 0.90582 0.0
C847 C 0.24244 0.55972 0.9411 0.0
C848 C 0.27589 0.59678 0.89813 0.0
C849 C 0.21735 0.56924 0.89434 0.0
C850 C 0.19977 0.54571 0.87331 0.0
C851 C 0.17483 0.54459 0.85718 0.0
C852 C 0.1683 0.56864 0.86189 0.0
C853 C 0.18681 0.59359 0.88233 0.0
C854 C 0.21096 0.59328 0.8995 0.0
H855 H 0.4789 0.71635 0.81271 0.0
H856 H 0.47009 0.73872 0.90912 0.0
H857 H 0.4503 0.68381 0.9242 0.0
H858 H 0.41171 0.64846 0.80819 0.0
H859 H 0.42601 0.62856 0.78396 0.0
H860 H 0.44454 0.67008 0.78264 0.0
H861 H 0.49731 0.67423 0.79647 0.0
H862 H 0.47878 0.63249 0.79796 0.0
H863 H 0.50055 0.65542 0.83127 0.0
H864 H 0.42236 0.62472 0.926 0.0
H865 H 0.38981 0.56855 0.91416 0.0
H866 H 0.42049 0.58657 0.81732 0.0
C867 C 0.47356 0.70982 0.83715 0.0
C868 C 0.4759 0.73152 0.85978 0.0
C869 C 0.46861 0.7223 0.89152 0.0
C870 C 0.45746 0.69123 0.90026 0.0
C871 C 0.45459 0.67007 0.87709 0.0
C872 C 0.46298 0.67923 0.84625 0.0
C873 C 0.45511 0.65194 0.82507 0.0
C874 C 0.43303 0.64964 0.79844 0.0
C875 C 0.48471 0.65363 0.81193 0.0
C876 C 0.43917 0.62571 0.84831 0.0
C877 C 0.43948 0.63642 0.87837 0.0
C878 C 0.42274 0.61608 0.90277 0.0
C879 C 0.40441 0.58422 0.89592 0.0
C880 C 0.40289 0.57335 0.8649 0.0
C881 C 0.42156 0.59424 0.84135 0.0
H882 H 0.49374 0.75028 0.49504 0.0
H883 H 0.47234 0.76658 0.40072 0.0
H884 H 0.45574 0.71233 0.38667 0.0
H885 H 0.51638 0.68913 0.4734 0.0
H886 H 0.49808 0.66771 0.50864 0.0
H887 H 0.51645 0.70947 0.50849 0.0
H888 H 0.46517 0.70541 0.52797 0.0
H889 H 0.44662 0.66389 0.52786 0.0
H890 H 0.43008 0.68292 0.5056 0.0
H891 H 0.42987 0.65456 0.38687 0.0
H892 H 0.39874 0.59906 0.4009 0.0
H893 H 0.43749 0.62022 0.49485 0.0
C894 C 0.48692 0.74282 0.47102 0.0
C895 C 0.48446 0.76261 0.44892 0.0
C896 C 0.47468 0.75185 0.41793 0.0
C897 C 0.46525 0.72106 0.40973 0.0
C898 C 0.46619 0.70152 0.43266 0.0
C899 C 0.47734 0.71217 0.46257 0.0
C900 C 0.47166 0.68574 0.48427 0.0
C901 C 0.50248 0.68816 0.49428 0.0
C902 C 0.45222 0.68443 0.51308 0.0
C903 C 0.45361 0.65839 0.46259 0.0
C904 C 0.45131 0.66792 0.43269 0.0
C905 C 0.43231 0.64679 0.40987 0.0
C906 C 0.41462 0.61532 0.41806 0.0
C907 C 0.41596 0.60537 0.44886 0.0
C908 C 0.43654 0.62708 0.47092 0.0
H909 H 0.2427 0.71301 0.45139 0.0
H910 H 0.23186 0.78723 0.491 0.0
H911 H 0.28632 0.82496 0.47729 0.0
H912 H 0.30973 0.73442 0.4865 0.0
H913 H 0.32764 0.72375 0.45583 0.0
H914 H 0.28614 0.70458 0.45856 0.0
H915 H 0.28269 0.72005 0.40125 0.0
H916 H 0.3244 0.73904 0.39812 0.0
H917 H 0.30457 0.76022 0.38964 0.0
H918 H 0.34361 0.85241 0.46881 0.0
H919 H 0.39877 0.86631 0.47024 0.0
H920 H 0.37297 0.773 0.44092 0.0
C921 C 0.25135 0.73748 0.45553 0.0
C922 C 0.23302 0.74749 0.4714 0.0
C923 C 0.24547 0.77936 0.47818 0.0
C924 C 0.27633 0.80089 0.47042 0.0
C925 C 0.29444 0.79004 0.45624 0.0
C926 C 0.28233 0.75899 0.44885 0.0
C927 C 0.30769 0.75204 0.43978 0.0
C928 C 0.30779 0.72727 0.46147 0.0
C929 C 0.30465 0.74227 0.40513 0.0
C930 C 0.33606 0.78357 0.44493 0.0
C931 C 0.32794 0.80546 0.45326 0.0
C932 C 0.35024 0.83562 0.46169 0.0
C933 C 0.3815 0.84332 0.46246 0.0
C934 C 0.38998 0.82069 0.45565 0.0
C935 C 0.36705 0.79078 0.44595 0.0
H936 H 0.2811 0.55666 0.52513 0.0
H937 H 0.2566 0.52108 0.43019 0.0
H938 H 0.21822 0.53922 0.42815 0.0
H939 H 0.20281 0.53892 0.55008 0.0
H940 H 0.21829 0.57386 0.57328 0.0
H941 H 0.24054 0.55461 0.56802 0.0
H942 H 0.2866 0.60569 0.54652 0.0
H943 H 0.2645 0.62501 0.55152 0.0
H944 H 0.28038 0.62468 0.51355 0.0
H945 H 0.18669 0.56688 0.43537 0.0
H946 H 0.1649 0.60016 0.45115 0.0
H947 H 0.21109 0.61649 0.54131 0.0
C948 C 0.2673 0.55216 0.50404 0.0
C949 C 0.27174 0.53755 0.47778 0.0
C950 C 0.25331 0.5321 0.45062 0.0
C951 C 0.23154 0.54234 0.4493 0.0
C952 C 0.22833 0.55747 0.4755 0.0
C953 C 0.24557 0.56198 0.50246 0.0
C954 C 0.23955 0.58043 0.5268 0.0
C955 C 0.22439 0.56078 0.55629 0.0
C956 C 0.26953 0.61074 0.53505 0.0
C957 C 0.21703 0.58671 0.50903 0.0
C958 C 0.21042 0.57303 0.47962 0.0
C959 C 0.19138 0.57727 0.45851 0.0
C960 C 0.17914 0.5962 0.46764 0.0
C961 C 0.18628 0.61079 0.49747 0.0
C962 C 0.20507 0.6055 0.51843 0.0
H963 H 0.16439 0.13313 0.04039 0.0
H964 H 0.17594 0.22407 0.05953 0.0
H965 H 0.1736 0.23247 0.00271 0.0
H966 H 0.21137 0.15475 0.9712 0.0
H967 H 0.18701 0.11874 0.95095 0.0
H968 H 0.18873 0.11949 0.99321 0.0
H969 H 0.12894 0.09509 0.99588 0.0
H970 H 0.12702 0.09424 0.95362 0.0
H971 H 0.1107 0.11364 0.97565 0.0
H972 H 0.17069 0.23131 0.9441 0.0
H973 H 0.16782 0.22081 0.88716 0.0
H974 H 0.15856 0.13079 0.90614 0.0
C975 C 0.1663 0.15474 0.03261 0.0
C976 C 0.17029 0.17795 0.05428 0.0
C977 C 0.17284 0.20599 0.04326 0.0
C978 C 0.17152 0.21096 0.01107 0.0
C979 C 0.16766 0.18767 0.9903 0.0
C980 C 0.16509 0.16012 0.00057 0.0
C981 C 0.16159 0.13908 0.97328 0.0
C982 C 0.1888 0.13265 0.9721 0.0
C983 C 0.13019 0.10872 0.9747 0.0
C984 C 0.16275 0.15919 0.94608 0.0
C985 C 0.16615 0.18707 0.95643 0.0
C986 C 0.16797 0.20955 0.93568 0.0
C987 C 0.16631 0.20337 0.90343 0.0
C988 C 0.16296 0.175 0.89234 0.0
C989 C 0.16111 0.15267 0.91399 0.0
H990 H 0.86429 0.98608 0.92801 0.0
H991 H 0.7659 0.94813 0.91017 0.0
H992 H 0.75607 0.94516 0.96723 0.0
H993 H 0.85615 0.9404 0.99728 0.0
H994 H 0.88876 0.97169 0.01721 0.0
H995 H 0.88801 0.96994 0.97493 0.0
H996 H 0.89561 0.02539 0.97235 0.0
H997 H 0.89647 0.02735 0.01459 0.0
H998 H 0.86898 0.03377 0.99303 0.0
H999 H 0.75693 0.94677 0.02597 0.0
H1000 H 0.76876 0.95489 0.08268 0.0
H1001 H 0.86666 0.99262 0.06227 0.0
C1002 C 0.84068 0.97702 0.93614 0.0
C1003 C 0.81583 0.96724 0.91475 0.0
C1004 C 0.78527 0.95572 0.92622 0.0
C1005 C 0.77944 0.95387 0.95855 0.0
C1006 C 0.80443 0.96369 0.97905 0.0
C1007 C 0.83446 0.97516 0.96835 0.0
C1008 C 0.85726 0.98502 0.99536 0.0
C1009 C 0.87349 0.9656 0.99624 0.0
C1010 C 0.88097 0.01996 0.99373 0.0
C1011 C 0.83536 0.9775 0.02288 0.0
C1012 C 0.80497 0.965 0.01296 0.0
C1013 C 0.78062 0.95648 0.03406 0.0
C1014 C 0.78756 0.96113 0.06619 0.0
C1015 C 0.81859 0.97434 0.0768 0.0
C1016 C 0.84271 0.98241 0.05482 0.0
H1017 H 0.99424 0.85871 0.93977 0.0
H1018 H 0.08722 0.87296 0.92834 0.0
H1019 H 0.09694 0.88408 0.98496 0.0
H1020 H 0.0131 0.91771 0.00228 0.0
H1021 H 0.9772 0.89367 0.02281 0.0
H1022 H 0.97887 0.89089 0.98071 0.0
H1023 H 0.95815 0.83179 0.98543 0.0
H1024 H 0.9564 0.83438 0.02743 0.0
H1025 H 0.97834 0.81822 0.01018 0.0
H1026 H 0.09491 0.88834 0.0429 0.0
H1027 H 0.08069 0.88396 0.09894 0.0
H1028 H 0.98895 0.86675 0.07323 0.0
C1029 C 0.01685 0.86483 0.94912 0.0
C1030 C 0.04006 0.86518 0.92976 0.0
C1031 C 0.06916 0.87266 0.94283 0.0
C1032 C 0.07496 0.87916 0.9749 0.0
C1033 C 0.05144 0.87816 0.99351 0.0
C1034 C 0.02296 0.8712 0.98116 0.0
C1035 C 0.00076 0.86894 0.00675 0.0
C1036 C 0.99197 0.89432 0.0029 0.0
C1037 C 0.97171 0.8364 0.00748 0.0
C1038 C 0.0209 0.87473 0.03546 0.0
C1039 C 0.05019 0.88045 0.02723 0.0
C1040 C 0.07223 0.88437 0.04967 0.0
C1041 C 0.06392 0.88177 0.08141 0.0
C1042 C 0.03381 0.87521 0.09032 0.0
C1043 C 0.0123 0.8723 0.06705 0.0
H1044 H 0.81785 0.47822 0.2788 0.0
H1045 H 0.85359 0.57705 0.26687 0.0
H1046 H 0.85563 0.58367 0.32439 0.0
H1047 H 0.76974 0.4683 0.34634 0.0
H1048 H 0.77792 0.44073 0.3652 0.0
H1049 H 0.77886 0.44363 0.32301 0.0
H1050 H 0.83512 0.45324 0.32278 0.0
H1051 H 0.8344 0.45049 0.36499 0.0
H1052 H 0.8645 0.4846 0.34582 0.0
H1053 H 0.85401 0.5798 0.38278 0.0
H1054 H 0.84857 0.56557 0.43886 0.0
H1055 H 0.81452 0.46936 0.41323 0.0
C1056 C 0.82596 0.50121 0.28833 0.0
C1057 C 0.8355 0.52713 0.26844 0.0
C1058 C 0.84614 0.55688 0.28172 0.0
C1059 C 0.8474 0.56088 0.31434 0.0
C1060 C 0.83801 0.53492 0.33331 0.0
C1061 C 0.82748 0.50565 0.32088 0.0
C1062 C 0.81901 0.48171 0.3466 0.0
C1063 C 0.78432 0.45715 0.3452 0.0
C1064 C 0.83949 0.46663 0.34494 0.0
C1065 C 0.82644 0.50213 0.37539 0.0
C1066 C 0.83733 0.53272 0.36715 0.0
C1067 C 0.84553 0.55593 0.38957 0.0
C1068 C 0.84237 0.54762 0.42133 0.0
C1069 C 0.83118 0.5164 0.43033 0.0
C1070 C 0.82325 0.49343 0.40701 0.0
H1071 H 0.53729 0.35058 0.25227 0.0
H1072 H 0.44649 0.27383 0.22753 0.0
H1073 H 0.43364 0.26287 0.28376 0.0
H1074 H 0.54939 0.31448 0.32187 0.0
H1075 H 0.56817 0.35045 0.34349 0.0
H1076 H 0.57109 0.3508 0.30129 0.0
H1077 H 0.54922 0.38837 0.29799 0.0
H1078 H 0.54618 0.38808 0.34012 0.0
H1079 H 0.51245 0.37761 0.31619 0.0
H1080 H 0.42936 0.2624 0.34225 0.0
H1081 H 0.43404 0.27236 0.39937 0.0
H1082 H 0.52771 0.34921 0.38601 0.0
C1083 C 0.51487 0.33122 0.25871 0.0
C1084 C 0.49289 0.31298 0.23564 0.0
C1085 C 0.46368 0.28804 0.2449 0.0
C1086 C 0.45619 0.28159 0.27674 0.0
C1087 C 0.47824 0.30024 0.29894 0.0
C1088 C 0.50702 0.32447 0.29038 0.0
C1089 C 0.52595 0.34185 0.31886 0.0
C1090 C 0.55539 0.33922 0.32153 0.0
C1091 C 0.5339 0.37599 0.31824 0.0
C1092 C 0.50308 0.32395 0.34473 0.0
C1093 C 0.47578 0.29992 0.33275 0.0
C1094 C 0.45072 0.28094 0.35197 0.0
C1095 C 0.45358 0.2868 0.38433 0.0
C1096 C 0.48127 0.31145 0.39702 0.0
C1097 C 0.50638 0.33002 0.37695 0.0
H1098 H 0.64039 0.18921 0.38972 0.0
H1099 H 0.71933 0.18128 0.42063 0.0
H1100 H 0.73583 0.18377 0.36549 0.0
H1101 H 0.62277 0.14107 0.32309 0.0
H1102 H 0.61171 0.16354 0.29866 0.0
H1103 H 0.60738 0.16359 0.34063 0.0
H1104 H 0.64099 0.2236 0.34144 0.0
H1105 H 0.64525 0.22377 0.29941 0.0
H1106 H 0.67918 0.24212 0.32414 0.0
H1107 H 0.74229 0.18457 0.30711 0.0
H1108 H 0.73851 0.18405 0.24925 0.0
H1109 H 0.65489 0.19065 0.25651 0.0
C1110 C 0.6614 0.18847 0.3849 0.0
C1111 C 0.6787 0.18521 0.40936 0.0
C1112 C 0.70582 0.18387 0.40217 0.0
C1113 C 0.71538 0.18529 0.37096 0.0
C1114 C 0.69753 0.18801 0.34733 0.0
C1115 C 0.67117 0.18969 0.3539 0.0
C1116 C 0.65541 0.19124 0.32411 0.0
C1117 C 0.62237 0.16319 0.32148 0.0
C1118 C 0.65521 0.22202 0.32217 0.0
C1119 C 0.67681 0.18979 0.29976 0.0
C1120 C 0.70106 0.18813 0.31364 0.0
C1121 C 0.72351 0.18604 0.29595 0.0
C1122 C 0.72113 0.1857 0.26315 0.0
C1123 C 0.69641 0.1873 0.24849 0.0
C1124 C 0.67405 0.18942 0.2671 0.0
H1125 H 0.46021 0.79467 0.58872 0.0
H1126 H 0.46736 0.88477 0.57761 0.0
H1127 H 0.46633 0.88977 0.63522 0.0
H1128 H 0.40873 0.77036 0.65838 0.0
H1129 H 0.42761 0.75115 0.67594 0.0
H1130 H 0.42582 0.75334 0.6338 0.0
H1131 H 0.48573 0.77903 0.63075 0.0
H1132 H 0.48771 0.777 0.67279 0.0
H1133 H 0.5096 0.81379 0.6531 0.0
H1134 H 0.4704 0.88757 0.69363 0.0
H1135 H 0.47744 0.87737 0.74897 0.0
H1136 H 0.4658 0.78799 0.7221 0.0
C1137 C 0.46099 0.81519 0.59842 0.0
C1138 C 0.46379 0.83931 0.57878 0.0
C1139 C 0.46504 0.86594 0.59228 0.0
C1140 C 0.46444 0.86899 0.62495 0.0
C1141 C 0.4622 0.84502 0.64371 0.0
C1142 C 0.46018 0.81849 0.63096 0.0
C1143 C 0.4596 0.79689 0.65632 0.0
C1144 C 0.42859 0.76611 0.65609 0.0
C1145 C 0.48731 0.79138 0.65304 0.0
C1146 C 0.46259 0.81586 0.68527 0.0
C1147 C 0.46387 0.84346 0.67751 0.0
C1148 C 0.46886 0.86579 0.70008 0.0
C1149 C 0.47291 0.85986 0.73139 0.0
C1150 C 0.47184 0.83179 0.73974 0.0
C1151 C 0.46613 0.80938 0.71642 0.0
H1152 H 0.19011 0.66355 0.62745 0.0
H1153 H 0.16744 0.73653 0.61441 0.0
H1154 H 0.17279 0.74674 0.67152 0.0
H1155 H 0.14814 0.63349 0.69733 0.0
H1156 H 0.17596 0.62506 0.71524 0.0
H1157 H 0.17292 0.62523 0.67314 0.0
H1158 H 0.23153 0.66576 0.6692 0.0
H1159 H 0.23479 0.66566 0.71135 0.0
H1160 H 0.24688 0.70161 0.69085 0.0
H1161 H 0.17681 0.74639 0.73007 0.0
H1162 H 0.17986 0.736 0.78626 0.0
H1163 H 0.20042 0.66354 0.76114 0.0
C1164 C 0.18669 0.68196 0.63657 0.0
C1165 C 0.17843 0.69932 0.61658 0.0
C1166 C 0.17387 0.72303 0.62936 0.0
C1167 C 0.1769 0.72902 0.66172 0.0
C1168 C 0.18467 0.7112 0.68086 0.0
C1169 C 0.18966 0.68826 0.66877 0.0
C1170 C 0.1964 0.67152 0.69458 0.0
C1171 C 0.17189 0.63677 0.6951 0.0
C1172 C 0.22936 0.67645 0.69129 0.0
C1173 C 0.19374 0.68818 0.72314 0.0
C1174 C 0.18716 0.71112 0.71468 0.0
C1175 C 0.1823 0.72874 0.73699 0.0
C1176 C 0.18401 0.72262 0.76881 0.0
C1177 C 0.19052 0.69908 0.77798 0.0
C1178 C 0.19573 0.68189 0.75479 0.0
H1179 H 0.32095 0.51864 0.59222 0.0
H1180 H 0.40044 0.50751 0.5723 0.0
H1181 H 0.4058 0.50041 0.62913 0.0
H1182 H 0.35081 0.56188 0.66426 0.0
H1183 H 0.31322 0.54393 0.68283 0.0
H1184 H 0.31625 0.54847 0.6408 0.0
H1185 H 0.27891 0.48934 0.63399 0.0
H1186 H 0.27587 0.48458 0.67598 0.0
H1187 H 0.28808 0.46235 0.65261 0.0
H1188 H 0.40083 0.49263 0.68811 0.0
H1189 H 0.38763 0.48731 0.74466 0.0
H1190 H 0.31216 0.5049 0.72486 0.0
C1191 C 0.33956 0.5148 0.59979 0.0
C1192 C 0.36025 0.51352 0.57803 0.0
C1193 C 0.38442 0.50864 0.58876 0.0
C1194 C 0.38757 0.50453 0.6209 0.0
C1195 C 0.36653 0.50567 0.64176 0.0
C1196 C 0.34317 0.51095 0.63162 0.0
C1197 C 0.32362 0.5113 0.6586 0.0
C1198 C 0.32615 0.5433 0.66181 0.0
C1199 C 0.28961 0.48534 0.65507 0.0
C1200 C 0.33935 0.50498 0.6856 0.0
C1201 C 0.36402 0.50175 0.6755 0.0
C1202 C 0.38167 0.49529 0.6963 0.0
C1203 C 0.37397 0.49223 0.7283 0.0
C1204 C 0.34894 0.49577 0.73902 0.0
C1205 C 0.33149 0.50219 0.71733 0.0
loop_
_geom_bond_atom_site_label_1
_geom_bond_atom_site_label_2
_geom_bond_distance
_geom_bond_site_symmetry_2
_ccdc_geom_bond_type
In0 O1 2.294 . S
In0 O2 2.326 . S
In0 O6 2.266 . S
In0 O7 2.326 . S
In0 O8 2.266 . S
In0 O9 2.326 . S
In0 O11 2.294 . S
In0 O12 2.326 . S
O1 In0 2.294 . S
O1 C10 1.240 . S
O2 In0 2.326 . S
O2 C10 1.252 . S
C3 O6 1.252 . S
C3 O7 1.260 . S
C4 O11 1.240 . S
C4 O12 1.252 . S
C5 O8 1.252 . S
C5 O9 1.260 . S
O6 In0 2.266 . S
O6 C3 1.252 . S
O7 In0 2.326 . S
O7 C3 1.260 . S
O8 In0 2.266 . S
O8 C5 1.252 . S
O9 In0 2.326 . S
O9 C5 1.260 . S
C10 O1 1.240 . S
C10 O2 1.252 . S
O11 In0 2.294 . S
O11 C4 1.240 . S
O12 In0 2.326 . S
O12 C4 1.252 . S
In13 O14 2.294 . S
In13 O15 2.326 . S
In13 O19 2.266 1_545 S
In13 O20 2.326 1_545 S
In13 O21 2.266 . S
In13 O22 2.326 . S
In13 O24 2.294 . S
In13 O25 2.326 1_545 S
O14 In13 2.294 . S
O14 C23 1.240 . S
O15 In13 2.326 . S
O15 C23 1.252 . S
C16 O19 1.252 . S
C16 O20 1.260 . S
C17 O24 1.247 . S
C17 O25 1.246 1_545 S
C18 O21 1.252 . S
C18 O22 1.260 . S
O19 In13 2.266 1_565 S
O19 C16 1.252 . S
O20 In13 2.326 1_565 S
O20 C16 1.260 . S
O21 In13 2.266 . S
O21 C18 1.252 . S
O22 In13 2.326 . S
O22 C18 1.260 . S
C23 O14 1.240 . S
C23 O15 1.252 . S
O24 In13 2.294 . S
O24 C17 1.247 . S
O25 In13 2.326 1_565 S
O25 C17 1.246 1_565 S
In26 O27 2.294 . S
In26 O28 2.326 1_655 S
In26 O32 2.266 . S
In26 O33 2.326 . S
In26 O34 2.266 1_655 S
In26 O35 2.326 1_655 S
In26 O37 2.294 . S
In26 O38 2.326 . S
O27 In26 2.294 . S
O27 C36 1.240 1_655 S
O28 In26 2.326 1_455 S
O28 C36 1.252 . S
C29 O32 1.252 . S
C29 O33 1.260 . S
C30 O37 1.240 . S
C30 O38 1.252 . S
C31 O34 1.252 . S
C31 O35 1.260 . S
O32 In26 2.266 . S
O32 C29 1.252 . S
O33 In26 2.326 . S
O33 C29 1.260 . S
O34 In26 2.266 1_455 S
O34 C31 1.252 . S
O35 In26 2.326 1_455 S
O35 C31 1.260 . S
C36 O27 1.240 1_455 S
C36 O28 1.252 . S
O37 In26 2.294 . S
O37 C30 1.240 . S
O38 In26 2.326 . S
O38 C30 1.252 . S
In39 O40 2.294 . S
In39 O41 2.326 . S
In39 O45 2.266 . S
In39 O46 2.326 . S
In39 O47 2.266 . S
In39 O48 2.326 . S
In39 O50 2.294 . S
In39 O51 2.326 . S
O40 In39 2.294 . S
O40 C49 1.240 . S
O41 In39 2.326 . S
O41 C49 1.252 . S
C42 O45 1.252 . S
C42 O46 1.260 . S
C43 O50 1.240 . S
C43 O51 1.252 . S
C44 O47 1.252 . S
C44 O48 1.260 . S
O45 In39 2.266 . S
O45 C42 1.252 . S
O46 In39 2.326 . S
O46 C42 1.260 . S
O47 In39 2.266 . S
O47 C44 1.252 . S
O48 In39 2.326 . S
O48 C44 1.260 . S
C49 O40 1.240 . S
C49 O41 1.252 . S
O50 In39 2.294 . S
O50 C43 1.240 . S
O51 In39 2.326 . S
O51 C43 1.252 . S
In52 O53 2.294 . S
In52 O54 2.326 1_565 S
In52 O58 2.266 . S
In52 O59 2.326 . S
In52 O60 2.266 1_565 S
In52 O61 2.326 1_565 S
In52 O63 2.294 . S
In52 O64 2.326 . S
O53 In52 2.294 . S
O53 C62 1.240 1_565 S
O54 In52 2.326 1_545 S
O54 C62 1.252 . S
C55 O58 1.252 . S
C55 O59 1.260 . S
C56 O63 1.240 . S
C56 O64 1.252 . S
C57 O60 1.252 . S
C57 O61 1.260 . S
O58 In52 2.266 . S
O58 C55 1.252 . S
O59 In52 2.326 . S
O59 C55 1.260 . S
O60 In52 2.266 1_545 S
O60 C57 1.252 . S
O61 In52 2.326 1_545 S
O61 C57 1.260 . S
C62 O53 1.240 1_545 S
C62 O54 1.252 . S
O63 In52 2.294 . S
O63 C56 1.240 . S
O64 In52 2.326 . S
O64 C56 1.252 . S
In65 O66 2.294 . S
In65 O67 2.326 1_455 S
In65 O71 2.266 . S
In65 O72 2.326 . S
In65 O73 2.266 1_455 S
In65 O74 2.326 1_455 S
In65 O76 2.294 . S
In65 O77 2.326 . S
O66 In65 2.294 . S
O66 C75 1.245 . S
O67 In65 2.326 1_655 S
O67 C75 1.247 1_655 S
C68 O71 1.252 . S
C68 O72 1.260 . S
C69 O76 1.240 . S
C69 O77 1.252 . S
C70 O73 1.252 . S
C70 O74 1.260 . S
O71 In65 2.266 . S
O71 C68 1.252 . S
O72 In65 2.326 . S
O72 C68 1.260 . S
O73 In65 2.266 1_655 S
O73 C70 1.252 . S
O74 In65 2.326 1_655 S
O74 C70 1.260 . S
C75 O66 1.245 . S
C75 O67 1.247 1_455 S
O76 In65 2.294 . S
O76 C69 1.240 . S
O77 In65 2.326 . S
O77 C69 1.252 . S
In78 O79 2.294 . S
In78 O80 2.326 . S
In78 O84 2.266 . S
In78 O85 2.326 . S
In78 O86 2.266 . S
In78 O87 2.326 . S
In78 O89 2.294 . S
In78 O90 2.326 . S
O79 In78 2.294 . S
O79 C88 1.240 . S
O80 In78 2.326 . S
O80 C88 1.252 . S
C81 O84 1.252 . S
C81 O85 1.260 . S
C82 O89 1.240 . S
C82 O90 1.252 . S
C83 O86 1.252 . S
C83 O87 1.260 . S
O84 In78 2.266 . S
O84 C81 1.252 . S
O85 In78 2.326 . S
O85 C81 1.260 . S
O86 In78 2.266 . S
O86 C83 1.252 . S
O87 In78 2.326 . S
O87 C83 1.260 . S
C88 O79 1.240 . S
C88 O80 1.252 . S
O89 In78 2.294 . S
O89 C82 1.240 . S
O90 In78 2.326 . S
O90 C82 1.252 . S
In91 O92 2.294 . S
In91 O93 2.326 . S
In91 O97 2.266 . S
In91 O98 2.326 . S
In91 O99 2.266 . S
In91 O100 2.326 . S
In91 O102 2.294 . S
In91 O103 2.326 . S
O92 In91 2.294 . S
O92 C101 1.240 . S
O93 In91 2.326 . S
O93 C101 1.252 . S
C94 O97 1.252 . S
C94 O98 1.260 . S
C95 O102 1.240 . S
C95 O103 1.252 . S
C96 O99 1.252 . S
C96 O100 1.260 . S
O97 In91 2.266 . S
O97 C94 1.252 . S
O98 In91 2.326 . S
O98 C94 1.260 . S
O99 In91 2.266 . S
O99 C96 1.252 . S
O100 In91 2.326 . S
O100 C96 1.260 . S
C101 O92 1.240 . S
C101 O93 1.252 . S
O102 In91 2.294 . S
O102 C95 1.240 . S
O103 In91 2.326 . S
O103 C95 1.252 . S
In104 O105 2.294 . S
In104 O106 2.326 . S
In104 O110 2.266 . S
In104 O111 2.326 . S
In104 O112 2.266 . S
In104 O113 2.326 . S
In104 O115 2.294 . S
In104 O116 2.326 . S
O105 In104 2.294 . S
O105 C114 1.240 . S
O106 In104 2.326 . S
O106 C114 1.252 . S
C107 O110 1.252 . S
C107 O111 1.260 . S
C108 O115 1.240 . S
C108 O116 1.252 . S
C109 O112 1.252 . S
C109 O113 1.260 . S
O110 In104 2.266 . S
O110 C107 1.252 . S
O111 In104 2.326 . S
O111 C107 1.260 . S
O112 In104 2.266 . S
O112 C109 1.252 . S
O113 In104 2.326 . S
O113 C109 1.260 . S
C114 O105 1.240 . S
C114 O106 1.252 . S
O115 In104 2.294 . S
O115 C108 1.240 . S
O116 In104 2.326 . S
O116 C108 1.252 . S
In117 O118 2.294 . S
In117 O119 2.326 . S
In117 O123 2.266 . S
In117 O124 2.326 . S
In117 O125 2.266 . S
In117 O126 2.326 . S
In117 O128 2.294 . S
In117 O129 2.326 . S
O118 In117 2.294 . S
O118 C127 1.240 . S
O119 In117 2.326 . S
O119 C127 1.252 . S
C120 O123 1.252 . S
C120 O124 1.260 . S
C121 O128 1.240 . S
C121 O129 1.252 . S
C122 O125 1.252 . S
C122 O126 1.260 . S
O123 In117 2.266 . S
O123 C120 1.252 . S
O124 In117 2.326 . S
O124 C120 1.260 . S
O125 In117 2.266 . S
O125 C122 1.252 . S
O126 In117 2.326 . S
O126 C122 1.260 . S
C127 O118 1.240 . S
C127 O119 1.252 . S
O128 In117 2.294 . S
O128 C121 1.240 . S
O129 In117 2.326 . S
O129 C121 1.252 . S
In130 O131 2.294 . S
In130 O132 2.326 . S
In130 O136 2.266 . S
In130 O137 2.326 . S
In130 O138 2.266 . S
In130 O139 2.326 . S
In130 O141 2.294 . S
In130 O142 2.326 . S
O131 In130 2.294 . S
O131 C140 1.240 . S
O132 In130 2.326 . S
O132 C140 1.252 . S
C133 O136 1.252 . S
C133 O137 1.260 . S
C134 O141 1.240 . S
C134 O142 1.252 . S
C135 O138 1.252 . S
C135 O139 1.260 . S
O136 In130 2.266 . S
O136 C133 1.252 . S
O137 In130 2.326 . S
O137 C133 1.260 . S
O138 In130 2.266 . S
O138 C135 1.252 . S
O139 In130 2.326 . S
O139 C135 1.260 . S
C140 O131 1.240 . S
C140 O132 1.252 . S
O141 In130 2.294 . S
O141 C134 1.240 . S
O142 In130 2.326 . S
O142 C134 1.252 . S
In143 O144 2.294 . S
In143 O145 2.326 . S
In143 O149 2.266 . S
In143 O150 2.326 . S
In143 O151 2.266 . S
In143 O152 2.326 . S
In143 O154 2.294 . S
In143 O155 2.326 . S
O144 In143 2.294 . S
O144 C153 1.240 . S
O145 In143 2.326 . S
O145 C153 1.252 . S
C146 O149 1.252 . S
C146 O150 1.260 . S
C147 O154 1.240 . S
C147 O155 1.252 . S
C148 O151 1.252 . S
C148 O152 1.260 . S
O149 In143 2.266 . S
O149 C146 1.252 . S
O150 In143 2.326 . S
O150 C146 1.260 . S
O151 In143 2.266 . S
O151 C148 1.252 . S
O152 In143 2.326 . S
O152 C148 1.260 . S
C153 O144 1.240 . S
C153 O145 1.252 . S
O154 In143 2.294 . S
O154 C147 1.240 . S
O155 In143 2.326 . S
O155 C147 1.252 . S
In156 O157 2.294 . S
In156 O158 2.326 . S
In156 O162 2.266 . S
In156 O163 2.326 . S
In156 O164 2.266 . S
In156 O165 2.326 . S
In156 O167 2.294 . S
In156 O168 2.326 . S
O157 In156 2.294 . S
O157 C166 1.240 . S
O158 In156 2.326 . S
O158 C166 1.252 . S
C159 O162 1.252 . S
C159 O163 1.260 . S
C160 O167 1.240 . S
C160 O168 1.252 . S
C161 O164 1.252 . S
C161 O165 1.260 . S
O162 In156 2.266 . S
O162 C159 1.252 . S
O163 In156 2.326 . S
O163 C159 1.260 . S
O164 In156 2.266 . S
O164 C161 1.252 . S
O165 In156 2.326 . S
O165 C161 1.260 . S
C166 O157 1.240 . S
C166 O158 1.252 . S
O167 In156 2.294 . S
O167 C160 1.240 . S
O168 In156 2.326 . S
O168 C160 1.252 . S
In169 O170 2.294 . S
In169 O171 2.326 . S
In169 O175 2.266 . S
In169 O176 2.326 . S
In169 O177 2.266 . S
In169 O178 2.326 . S
In169 O180 2.294 . S
In169 O181 2.326 . S
O170 In169 2.294 . S
O170 C179 1.240 . S
O171 In169 2.326 . S
O171 C179 1.252 . S
C172 O175 1.252 . S
C172 O176 1.260 . S
C173 O180 1.240 . S
C173 O181 1.252 . S
C174 O177 1.252 . S
C174 O178 1.260 . S
O175 In169 2.266 . S
O175 C172 1.252 . S
O176 In169 2.326 . S
O176 C172 1.260 . S
O177 In169 2.266 . S
O177 C174 1.252 . S
O178 In169 2.326 . S
O178 C174 1.260 . S
C179 O170 1.240 . S
C179 O171 1.252 . S
O180 In169 2.294 . S
O180 C173 1.240 . S
O181 In169 2.326 . S
O181 C173 1.252 . S
In182 O183 2.294 . S
In182 O184 2.326 . S
In182 O188 2.266 . S
In182 O189 2.326 . S
In182 O190 2.266 . S
In182 O191 2.326 . S
In182 O193 2.294 . S
In182 O194 2.326 . S
O183 In182 2.294 . S
O183 C192 1.240 . S
O184 In182 2.326 . S
O184 C192 1.252 . S
C185 O188 1.252 . S
C185 O189 1.260 . S
C186 O193 1.240 . S
C186 O194 1.252 . S
C187 O190 1.252 . S
C187 O191 1.260 . S
O188 In182 2.266 . S
O188 C185 1.252 . S
O189 In182 2.326 . S
O189 C185 1.260 . S
O190 In182 2.266 . S
O190 C187 1.252 . S
O191 In182 2.326 . S
O191 C187 1.260 . S
C192 O183 1.240 . S
C192 O184 1.252 . S
O193 In182 2.294 . S
O193 C186 1.240 . S
O194 In182 2.326 . S
O194 C186 1.252 . S
In195 O196 2.294 . S
In195 O197 2.326 . S
In195 O201 2.266 . S
In195 O202 2.326 . S
In195 O203 2.266 . S
In195 O204 2.326 . S
In195 O206 2.294 . S
In195 O207 2.326 . S
O196 In195 2.294 . S
O196 C205 1.240 . S
O197 In195 2.326 . S
O197 C205 1.252 . S
C198 O201 1.252 . S
C198 O202 1.260 . S
C199 O206 1.240 . S
C199 O207 1.252 . S
C200 O203 1.252 . S
C200 O204 1.260 . S
O201 In195 2.266 . S
O201 C198 1.252 . S
O202 In195 2.326 . S
O202 C198 1.260 . S
O203 In195 2.266 . S
O203 C200 1.252 . S
O204 In195 2.326 . S
O204 C200 1.260 . S
C205 O196 1.240 . S
C205 O197 1.252 . S
O206 In195 2.294 . S
O206 C199 1.240 . S
O207 In195 2.326 . S
O207 C199 1.252 . S
In208 O209 2.294 . S
In208 O210 2.326 . S
In208 O214 2.266 . S
In208 O215 2.326 . S
In208 O216 2.266 . S
In208 O217 2.326 . S
In208 O219 2.294 . S
In208 O220 2.326 . S
O209 In208 2.294 . S
O209 C218 1.240 . S
O210 In208 2.326 . S
O210 C218 1.252 . S
C211 O214 1.252 . S
C211 O215 1.260 . S
C212 O219 1.240 . S
C212 O220 1.252 . S
C213 O216 1.252 . S
C213 O217 1.260 . S
O214 In208 2.266 . S
O214 C211 1.252 . S
O215 In208 2.326 . S
O215 C211 1.260 . S
O216 In208 2.266 . S
O216 C213 1.252 . S
O217 In208 2.326 . S
O217 C213 1.260 . S
C218 O209 1.240 . S
C218 O210 1.252 . S
O219 In208 2.294 . S
O219 C212 1.240 . S
O220 In208 2.326 . S
O220 C212 1.252 . S
In221 O222 2.294 . S
In221 O223 2.326 . S
In221 O227 2.266 . S
In221 O228 2.326 . S
In221 O229 2.266 . S
In221 O230 2.326 . S
In221 O232 2.294 . S
In221 O233 2.326 . S
O222 In221 2.294 . S
O222 C231 1.240 . S
O223 In221 2.326 . S
O223 C231 1.252 . S
C224 O227 1.252 . S
C224 O228 1.260 . S
C225 O232 1.240 . S
C225 O233 1.252 . S
C226 O229 1.252 . S
C226 O230 1.260 . S
O227 In221 2.266 . S
O227 C224 1.252 . S
O228 In221 2.326 . S
O228 C224 1.260 . S
O229 In221 2.266 . S
O229 C226 1.252 . S
O230 In221 2.326 . S
O230 C226 1.260 . S
C231 O222 1.240 . S
C231 O223 1.252 . S
O232 In221 2.294 . S
O232 C225 1.240 . S
O233 In221 2.326 . S
O233 C225 1.252 . S
H234 C246 0.930 . S
H235 C248 0.930 . S
H236 C249 0.930 . S
H237 C253 0.959 . S
H238 C253 0.959 . S
H239 C253 0.961 . S
H240 C254 0.960 . S
H241 C254 0.961 . S
H242 C254 0.959 . S
H243 C257 0.929 . S
H244 C258 0.931 . S
H245 C260 0.930 . S
C246 H234 0.930 . S
C246 C247 1.399 . S
C246 C251 1.399 . S
C247 C246 1.399 . S
C247 C248 1.376 . S
C248 H235 0.930 . S
C248 C247 1.376 . S
C248 C249 1.388 . S
C249 H236 0.930 . S
C249 C248 1.388 . S
C249 C250 1.390 . S
C250 C249 1.390 . S
C250 C251 1.394 . S
C250 C256 1.465 . S
C251 C246 1.399 . S
C251 C250 1.394 . S
C251 C252 1.516 . S
C252 C251 1.516 . S
C252 C253 1.502 . S
C252 C254 1.561 . S
C252 C255 1.526 . S
C253 H237 0.959 . S
C253 H238 0.959 . S
C253 H239 0.961 . S
C253 C252 1.502 . S
C254 H240 0.960 . S
C254 H241 0.961 . S
C254 H242 0.959 . S
C254 C252 1.561 . S
C255 C252 1.526 . S
C255 C256 1.396 . S
C255 C260 1.390 . S
C256 C250 1.465 . S
C256 C255 1.396 . S
C256 C257 1.399 . S
C257 H243 0.929 . S
C257 C256 1.399 . S
C257 C258 1.385 . S
C258 H244 0.931 . S
C258 C257 1.385 . S
C258 C259 1.389 . S
C259 C258 1.389 . S
C259 C260 1.387 . S
C260 H245 0.930 . S
C260 C255 1.390 . S
C260 C259 1.387 . S
H261 C273 0.930 . S
H262 C275 0.930 . S
H263 C276 0.930 . S
H264 C280 0.959 . S
H265 C280 0.959 . S
H266 C280 0.961 . S
H267 C281 0.960 . S
H268 C281 0.961 . S
H269 C281 0.959 . S
H270 C284 0.929 . S
H271 C285 0.931 . S
H272 C287 0.930 . S
C273 H261 0.930 . S
C273 C274 1.399 . S
C273 C278 1.399 . S
C274 C273 1.399 . S
C274 C275 1.376 . S
C275 H262 0.930 . S
C275 C274 1.376 . S
C275 C276 1.388 . S
C276 H263 0.930 . S
C276 C275 1.388 . S
C276 C277 1.390 . S
C277 C276 1.390 . S
C277 C278 1.394 . S
C277 C283 1.465 . S
C278 C273 1.399 . S
C278 C277 1.394 . S
C278 C279 1.516 . S
C279 C278 1.516 . S
C279 C280 1.502 . S
C279 C281 1.561 . S
C279 C282 1.526 . S
C280 H264 0.959 . S
C280 H265 0.959 . S
C280 H266 0.961 . S
C280 C279 1.502 . S
C281 H267 0.960 . S
C281 H268 0.961 . S
C281 H269 0.959 . S
C281 C279 1.561 . S
C282 C279 1.526 . S
C282 C283 1.396 . S
C282 C287 1.390 . S
C283 C277 1.465 . S
C283 C282 1.396 . S
C283 C284 1.399 . S
C284 H270 0.929 . S
C284 C283 1.399 . S
C284 C285 1.385 . S
C285 H271 0.931 . S
C285 C284 1.385 . S
C285 C286 1.389 . S
C286 C285 1.389 . S
C286 C287 1.387 . S
C287 H272 0.930 . S
C287 C282 1.390 . S
C287 C286 1.387 . S
H288 C300 0.930 . S
H289 C302 0.930 . S
H290 C303 0.930 . S
H291 C307 0.959 . S
H292 C307 0.959 . S
H293 C307 0.961 . S
H294 C308 0.960 . S
H295 C308 0.961 . S
H296 C308 0.959 . S
H297 C311 0.929 . S
H298 C312 0.931 . S
H299 C314 0.930 . S
C300 H288 0.930 . S
C300 C301 1.399 . S
C300 C305 1.399 . S
C301 C300 1.399 . S
C301 C302 1.376 . S
C302 H289 0.930 . S
C302 C301 1.376 . S
C302 C303 1.388 . S
C303 H290 0.930 . S
C303 C302 1.388 . S
C303 C304 1.390 . S
C304 C303 1.390 . S
C304 C305 1.394 . S
C304 C310 1.465 . S
C305 C300 1.399 . S
C305 C304 1.394 . S
C305 C306 1.516 . S
C306 C305 1.516 . S
C306 C307 1.502 . S
C306 C308 1.561 . S
C306 C309 1.526 . S
C307 H291 0.959 . S
C307 H292 0.959 . S
C307 H293 0.961 . S
C307 C306 1.502 . S
C308 H294 0.960 . S
C308 H295 0.961 . S
C308 H296 0.959 . S
C308 C306 1.561 . S
C309 C306 1.526 . S
C309 C310 1.396 . S
C309 C314 1.390 . S
C310 C304 1.465 . S
C310 C309 1.396 . S
C310 C311 1.399 . S
C311 H297 0.929 . S
C311 C310 1.399 . S
C311 C312 1.385 . S
C312 H298 0.931 . S
C312 C311 1.385 . S
C312 C313 1.389 . S
C313 C312 1.389 . S
C313 C314 1.387 . S
C314 H299 0.930 . S
C314 C309 1.390 . S
C314 C313 1.387 . S
H315 C327 0.930 . S
H316 C329 0.930 . S
H317 C330 0.930 . S
H318 C334 0.959 . S
H319 C334 0.959 . S
H320 C334 0.961 . S
H321 C335 0.960 . S
H322 C335 0.961 . S
H323 C335 0.959 . S
H324 C338 0.929 . S
H325 C339 0.931 . S
H326 C341 0.930 . S
C327 H315 0.930 . S
C327 C328 1.399 . S
C327 C332 1.399 . S
C328 C327 1.399 . S
C328 C329 1.376 . S
C329 H316 0.930 . S
C329 C328 1.376 . S
C329 C330 1.388 . S
C330 H317 0.930 . S
C330 C329 1.388 . S
C330 C331 1.390 . S
C331 C330 1.390 . S
C331 C332 1.394 . S
C331 C337 1.465 . S
C332 C327 1.399 . S
C332 C331 1.394 . S
C332 C333 1.516 . S
C333 C332 1.516 . S
C333 C334 1.502 . S
C333 C335 1.561 . S
C333 C336 1.526 . S
C334 H318 0.959 . S
C334 H319 0.959 . S
C334 H320 0.961 . S
C334 C333 1.502 . S
C335 H321 0.960 . S
C335 H322 0.961 . S
C335 H323 0.959 . S
C335 C333 1.561 . S
C336 C333 1.526 . S
C336 C337 1.396 . S
C336 C341 1.390 . S
C337 C331 1.465 . S
C337 C336 1.396 . S
C337 C338 1.399 . S
C338 H324 0.929 . S
C338 C337 1.399 . S
C338 C339 1.385 . S
C339 H325 0.931 . S
C339 C338 1.385 . S
C339 C340 1.389 . S
C340 C339 1.389 . S
C340 C341 1.387 . S
C341 H326 0.930 . S
C341 C336 1.390 . S
C341 C340 1.387 . S
H342 C354 0.930 . S
H343 C356 0.930 . S
H344 C357 0.930 . S
H345 C361 0.959 . S
H346 C361 0.959 . S
H347 C361 0.961 . S
H348 C362 0.960 . S
H349 C362 0.961 . S
H350 C362 0.959 . S
H351 C365 0.929 . S
H352 C366 0.931 . S
H353 C368 0.930 . S
C354 H342 0.930 . S
C354 C355 1.399 . S
C354 C359 1.399 . S
C355 C354 1.399 . S
C355 C356 1.376 . S
C356 H343 0.930 . S
C356 C355 1.376 . S
C356 C357 1.388 . S
C357 H344 0.930 . S
C357 C356 1.388 . S
C357 C358 1.390 . S
C358 C357 1.390 . S
C358 C359 1.394 . S
C358 C364 1.465 . S
C359 C354 1.399 . S
C359 C358 1.394 . S
C359 C360 1.516 . S
C360 C359 1.516 . S
C360 C361 1.502 . S
C360 C362 1.561 . S
C360 C363 1.526 . S
C361 H345 0.959 . S
C361 H346 0.959 . S
C361 H347 0.961 . S
C361 C360 1.502 . S
C362 H348 0.960 . S
C362 H349 0.961 . S
C362 H350 0.959 . S
C362 C360 1.561 . S
C363 C360 1.526 . S
C363 C364 1.396 . S
C363 C368 1.390 . S
C364 C358 1.465 . S
C364 C363 1.396 . S
C364 C365 1.399 . S
C365 H351 0.929 . S
C365 C364 1.399 . S
C365 C366 1.385 . S
C366 H352 0.931 . S
C366 C365 1.385 . S
C366 C367 1.389 . S
C367 C366 1.389 . S
C367 C368 1.387 . S
C368 H353 0.930 . S
C368 C363 1.390 . S
C368 C367 1.387 . S
H369 C381 0.930 . S
H370 C383 0.930 . S
H371 C384 0.930 . S
H372 C388 0.959 . S
H373 C388 0.959 . S
H374 C388 0.961 . S
H375 C389 0.960 . S
H376 C389 0.961 . S
H377 C389 0.959 . S
H378 C392 0.929 . S
H379 C393 0.931 . S
H380 C395 0.930 . S
C381 H369 0.930 . S
C381 C382 1.399 . S
C381 C386 1.399 . S
C382 C381 1.399 . S
C382 C383 1.376 . S
C383 H370 0.930 . S
C383 C382 1.376 . S
C383 C384 1.388 . S
C384 H371 0.930 . S
C384 C383 1.388 . S
C384 C385 1.390 . S
C385 C384 1.390 . S
C385 C386 1.394 . S
C385 C391 1.465 . S
C386 C381 1.399 . S
C386 C385 1.394 . S
C386 C387 1.516 . S
C387 C386 1.516 . S
C387 C388 1.502 . S
C387 C389 1.561 . S
C387 C390 1.526 . S
C388 H372 0.959 . S
C388 H373 0.959 . S
C388 H374 0.961 . S
C388 C387 1.502 . S
C389 H375 0.960 . S
C389 H376 0.961 . S
C389 H377 0.959 . S
C389 C387 1.561 . S
C390 C387 1.526 . S
C390 C391 1.396 . S
C390 C395 1.390 . S
C391 C385 1.465 . S
C391 C390 1.396 . S
C391 C392 1.399 . S
C392 H378 0.929 . S
C392 C391 1.399 . S
C392 C393 1.385 . S
C393 H379 0.931 . S
C393 C392 1.385 . S
C393 C394 1.389 . S
C394 C393 1.389 . S
C394 C395 1.387 . S
C395 H380 0.930 . S
C395 C390 1.390 . S
C395 C394 1.387 . S
H396 C408 0.930 . S
H397 C410 0.930 . S
H398 C411 0.930 . S
H399 C415 0.961 . S
H400 C415 0.959 1_455 S
H401 C415 0.961 . S
H402 C416 0.960 . S
H403 C416 0.961 . S
H404 C416 0.959 . S
H405 C419 0.929 . S
H406 C420 0.931 . S
H407 C422 0.930 . S
C408 H396 0.930 . S
C408 C409 1.399 . S
C408 C413 1.399 . S
C409 C408 1.399 . S
C409 C410 1.376 . S
C410 H397 0.930 . S
C410 C409 1.376 . S
C410 C411 1.388 . S
C411 H398 0.930 . S
C411 C410 1.388 . S
C411 C412 1.390 . S
C412 C411 1.390 . S
C412 C413 1.394 . S
C412 C418 1.465 1_655 S
C413 C408 1.399 . S
C413 C412 1.394 . S
C413 C414 1.516 . S
C414 C413 1.516 . S
C414 C415 1.502 . S
C414 C416 1.561 . S
C414 C417 1.526 1_655 S
C415 H399 0.961 . S
C415 H400 0.959 1_655 S
C415 H401 0.961 . S
C415 C414 1.502 . S
C416 H402 0.960 . S
C416 H403 0.961 . S
C416 H404 0.959 . S
C416 C414 1.561 . S
C417 C414 1.526 1_455 S
C417 C418 1.396 . S
C417 C422 1.390 . S
C418 C412 1.465 1_455 S
C418 C417 1.396 . S
C418 C419 1.399 . S
C419 H405 0.929 . S
C419 C418 1.399 . S
C419 C420 1.385 . S
C420 H406 0.931 . S
C420 C419 1.385 . S
C420 C421 1.389 . S
C421 C420 1.389 . S
C421 C422 1.387 . S
C422 H407 0.930 . S
C422 C417 1.390 . S
C422 C421 1.387 . S
H423 C435 0.930 . S
H424 C437 0.930 . S
H425 C438 0.930 . S
H426 C442 0.959 . S
H427 C442 0.959 . S
H428 C442 0.961 . S
H429 C443 0.960 . S
H430 C443 0.961 . S
H431 C443 0.959 . S
H432 C446 0.929 . S
H433 C447 0.931 . S
H434 C449 0.930 . S
C435 H423 0.930 . S
C435 C436 1.399 . S
C435 C440 1.399 . S
C436 C435 1.399 . S
C436 C437 1.376 . S
C437 H424 0.930 . S
C437 C436 1.376 . S
C437 C438 1.388 . S
C438 H425 0.930 . S
C438 C437 1.388 . S
C438 C439 1.390 . S
C439 C438 1.390 . S
C439 C440 1.394 . S
C439 C445 1.465 . S
C440 C435 1.399 . S
C440 C439 1.394 . S
C440 C441 1.516 . S
C441 C440 1.516 . S
C441 C442 1.502 . S
C441 C443 1.561 . S
C441 C444 1.526 . S
C442 H426 0.959 . S
C442 H427 0.959 . S
C442 H428 0.961 . S
C442 C441 1.502 . S
C443 H429 0.960 . S
C443 H430 0.961 . S
C443 H431 0.959 . S
C443 C441 1.561 . S
C444 C441 1.526 . S
C444 C445 1.396 . S
C444 C449 1.390 . S
C445 C439 1.465 . S
C445 C444 1.396 . S
C445 C446 1.399 . S
C446 H432 0.929 . S
C446 C445 1.399 . S
C446 C447 1.385 . S
C447 H433 0.931 . S
C447 C446 1.385 . S
C447 C448 1.389 . S
C448 C447 1.389 . S
C448 C449 1.387 . S
C449 H434 0.930 . S
C449 C444 1.390 . S
C449 C448 1.387 . S
H450 C462 0.930 . S
H451 C464 0.930 . S
H452 C465 0.930 . S
H453 C469 0.961 . S
H454 C469 0.952 1_565 S
H455 C469 0.964 . S
H456 C470 0.960 1_545 S
H457 C470 0.961 . S
H458 C470 0.959 . S
H459 C473 0.929 . S
H460 C474 0.931 . S
H461 C476 0.930 . S
C462 H450 0.930 . S
C462 C463 1.399 . S
C462 C467 1.399 . S
C463 C462 1.399 . S
C463 C464 1.376 . S
C464 H451 0.930 . S
C464 C463 1.376 . S
C464 C465 1.388 . S
C465 H452 0.930 . S
C465 C464 1.388 . S
C465 C466 1.390 . S
C466 C465 1.390 . S
C466 C467 1.394 . S
C466 C472 1.465 1_545 S
C467 C462 1.399 . S
C467 C466 1.394 . S
C467 C468 1.516 1_545 S
C468 C467 1.516 1_565 S
C468 C469 1.505 1_565 S
C468 C470 1.561 . S
C468 C471 1.526 . S
C469 H453 0.961 . S
C469 H454 0.952 1_545 S
C469 H455 0.964 . S
C469 C468 1.505 1_545 S
C470 H456 0.960 1_565 S
C470 H457 0.961 . S
C470 H458 0.959 . S
C470 C468 1.561 . S
C471 C468 1.526 . S
C471 C472 1.396 . S
C471 C476 1.390 . S
C472 C466 1.465 1_565 S
C472 C471 1.396 . S
C472 C473 1.399 . S
C473 H459 0.929 . S
C473 C472 1.399 . S
C473 C474 1.385 . S
C474 H460 0.931 . S
C474 C473 1.385 . S
C474 C475 1.389 . S
C475 C474 1.389 . S
C475 C476 1.387 . S
C476 H461 0.930 . S
C476 C471 1.390 . S
C476 C475 1.387 . S
H477 C489 0.930 . S
H478 C491 0.930 . S
H479 C492 0.930 . S
H480 C496 0.959 . S
H481 C496 0.959 1_655 S
H482 C496 0.961 . S
H483 C497 0.960 . S
H484 C497 0.961 1_655 S
H485 C497 0.959 . S
H486 C500 0.929 . S
H487 C501 0.931 . S
H488 C503 0.930 . S
C489 H477 0.930 . S
C489 C490 1.399 . S
C489 C494 1.399 . S
C490 C489 1.399 . S
C490 C491 1.376 . S
C491 H478 0.930 . S
C491 C490 1.376 . S
C491 C492 1.388 . S
C492 H479 0.930 . S
C492 C491 1.388 . S
C492 C493 1.390 . S
C493 C492 1.390 . S
C493 C494 1.394 . S
C493 C499 1.465 1_455 S
C494 C489 1.399 . S
C494 C493 1.394 . S
C494 C495 1.516 . S
C495 C494 1.516 . S
C495 C496 1.502 . S
C495 C497 1.561 . S
C495 C498 1.526 1_455 S
C496 H480 0.959 . S
C496 H481 0.959 1_455 S
C496 H482 0.961 . S
C496 C495 1.502 . S
C497 H483 0.960 . S
C497 H484 0.961 1_455 S
C497 H485 0.959 . S
C497 C495 1.561 . S
C498 C495 1.526 1_655 S
C498 C499 1.396 . S
C498 C503 1.390 . S
C499 C493 1.465 1_655 S
C499 C498 1.396 . S
C499 C500 1.399 . S
C500 H486 0.929 . S
C500 C499 1.399 . S
C500 C501 1.385 . S
C501 H487 0.931 . S
C501 C500 1.385 . S
C501 C502 1.389 . S
C502 C501 1.389 . S
C502 C503 1.387 . S
C503 H488 0.930 . S
C503 C498 1.390 . S
C503 C502 1.387 . S
H504 C516 0.930 . S
H505 C518 0.930 . S
H506 C519 0.930 . S
H507 C523 0.959 . S
H508 C523 0.959 . S
H509 C523 0.961 . S
H510 C524 0.960 . S
H511 C524 0.961 . S
H512 C524 0.959 . S
H513 C527 0.929 . S
H514 C528 0.931 . S
H515 C530 0.930 . S
C516 H504 0.930 . S
C516 C517 1.399 . S
C516 C521 1.399 . S
C517 C516 1.399 . S
C517 C518 1.376 . S
C518 H505 0.930 . S
C518 C517 1.376 . S
C518 C519 1.388 . S
C519 H506 0.930 . S
C519 C518 1.388 . S
C519 C520 1.390 . S
C520 C519 1.390 . S
C520 C521 1.394 . S
C520 C526 1.465 . S
C521 C516 1.399 . S
C521 C520 1.394 . S
C521 C522 1.516 . S
C522 C521 1.516 . S
C522 C523 1.502 . S
C522 C524 1.561 . S
C522 C525 1.526 . S
C523 H507 0.959 . S
C523 H508 0.959 . S
C523 H509 0.961 . S
C523 C522 1.502 . S
C524 H510 0.960 . S
C524 H511 0.961 . S
C524 H512 0.959 . S
C524 C522 1.561 . S
C525 C522 1.526 . S
C525 C526 1.396 . S
C525 C530 1.390 . S
C526 C520 1.465 . S
C526 C525 1.396 . S
C526 C527 1.399 . S
C527 H513 0.929 . S
C527 C526 1.399 . S
C527 C528 1.385 . S
C528 H514 0.931 . S
C528 C527 1.385 . S
C528 C529 1.389 . S
C529 C528 1.389 . S
C529 C530 1.387 . S
C530 H515 0.930 . S
C530 C525 1.390 . S
C530 C529 1.387 . S
H531 C543 0.930 . S
H532 C545 0.930 . S
H533 C546 0.930 . S
H534 C550 0.959 . S
H535 C550 0.959 . S
H536 C550 0.961 1_545 S
H537 C551 0.960 1_545 S
H538 C551 0.961 . S
H539 C551 0.959 . S
H540 C554 0.929 . S
H541 C555 0.931 . S
H542 C557 0.930 . S
C543 H531 0.930 . S
C543 C544 1.399 . S
C543 C548 1.399 . S
C544 C543 1.399 . S
C544 C545 1.376 . S
C545 H532 0.930 . S
C545 C544 1.376 . S
C545 C546 1.388 . S
C546 H533 0.930 . S
C546 C545 1.388 . S
C546 C547 1.390 . S
C547 C546 1.390 . S
C547 C548 1.394 . S
C547 C553 1.465 1_545 S
C548 C543 1.399 . S
C548 C547 1.394 . S
C548 C549 1.516 1_545 S
C549 C548 1.516 1_565 S
C549 C550 1.502 . S
C549 C551 1.561 . S
C549 C552 1.526 . S
C550 H534 0.959 . S
C550 H535 0.959 . S
C550 H536 0.961 1_565 S
C550 C549 1.502 . S
C551 H537 0.960 1_565 S
C551 H538 0.961 . S
C551 H539 0.959 . S
C551 C549 1.561 . S
C552 C549 1.526 . S
C552 C553 1.396 . S
C552 C557 1.390 . S
C553 C547 1.465 1_565 S
C553 C552 1.396 . S
C553 C554 1.399 . S
C554 H540 0.929 . S
C554 C553 1.399 . S
C554 C555 1.385 . S
C555 H541 0.931 . S
C555 C554 1.385 . S
C555 C556 1.389 . S
C556 C555 1.389 . S
C556 C557 1.387 . S
C557 H542 0.930 . S
C557 C552 1.390 . S
C557 C556 1.387 . S
H558 C570 0.930 . S
H559 C572 0.930 . S
H560 C573 0.930 . S
H561 C577 0.959 . S
H562 C577 0.959 . S
H563 C577 0.961 1_565 S
H564 C578 0.960 1_565 S
H565 C578 0.961 . S
H566 C578 0.959 . S
H567 C581 0.929 . S
H568 C582 0.931 . S
H569 C584 0.930 . S
C570 H558 0.930 . S
C570 C571 1.399 . S
C570 C575 1.399 . S
C571 C570 1.399 . S
C571 C572 1.376 . S
C572 H559 0.930 . S
C572 C571 1.376 . S
C572 C573 1.388 . S
C573 H560 0.930 . S
C573 C572 1.388 . S
C573 C574 1.390 . S
C574 C573 1.390 . S
C574 C575 1.394 . S
C574 C580 1.465 1_565 S
C575 C570 1.399 . S
C575 C574 1.394 . S
C575 C576 1.516 1_565 S
C576 C575 1.516 1_545 S
C576 C577 1.502 . S
C576 C578 1.561 . S
C576 C579 1.526 . S
C577 H561 0.959 . S
C577 H562 0.959 . S
C577 H563 0.961 1_545 S
C577 C576 1.502 . S
C578 H564 0.960 1_545 S
C578 H565 0.961 . S
C578 H566 0.959 . S
C578 C576 1.561 . S
C579 C576 1.526 . S
C579 C580 1.396 . S
C579 C584 1.390 . S
C580 C574 1.465 1_545 S
C580 C579 1.396 . S
C580 C581 1.399 . S
C581 H567 0.929 . S
C581 C580 1.399 . S
C581 C582 1.385 . S
C582 H568 0.931 . S
C582 C581 1.385 . S
C582 C583 1.389 . S
C583 C582 1.389 . S
C583 C584 1.387 . S
C584 H569 0.930 . S
C584 C579 1.390 . S
C584 C583 1.387 . S
H585 C597 0.930 . S
H586 C599 0.930 . S
H587 C600 0.930 . S
H588 C604 0.955 . S
H589 C604 0.983 . S
H590 C604 0.949 1_455 S
H591 C605 0.960 1_455 S
H592 C605 0.961 . S
H593 C605 0.959 . S
H594 C608 0.929 . S
H595 C609 0.931 . S
H596 C611 0.930 . S
C597 H585 0.930 . S
C597 C598 1.399 . S
C597 C602 1.399 . S
C598 C597 1.399 . S
C598 C599 1.376 . S
C599 H586 0.930 . S
C599 C598 1.376 . S
C599 C600 1.388 . S
C600 H587 0.930 . S
C600 C599 1.388 . S
C600 C601 1.390 . S
C601 C600 1.390 . S
C601 C602 1.394 . S
C601 C607 1.465 1_455 S
C602 C597 1.399 . S
C602 C601 1.394 . S
C602 C603 1.516 1_455 S
C603 C602 1.516 1_655 S
C603 C604 1.494 . S
C603 C605 1.561 . S
C603 C606 1.526 . S
C604 H588 0.955 . S
C604 H589 0.983 . S
C604 H590 0.949 1_655 S
C604 C603 1.494 . S
C605 H591 0.960 1_655 S
C605 H592 0.961 . S
C605 H593 0.959 . S
C605 C603 1.561 . S
C606 C603 1.526 . S
C606 C607 1.396 . S
C606 C611 1.390 . S
C607 C601 1.465 1_655 S
C607 C606 1.396 . S
C607 C608 1.399 . S
C608 H594 0.929 . S
C608 C607 1.399 . S
C608 C609 1.385 . S
C609 H595 0.931 . S
C609 C608 1.385 . S
C609 C610 1.389 . S
C610 C609 1.389 . S
C610 C611 1.387 . S
C611 H596 0.930 . S
C611 C606 1.390 . S
C611 C610 1.387 . S
H612 C624 0.930 . S
H613 C626 0.930 . S
H614 C627 0.930 . S
H615 C631 0.959 . S
H616 C631 0.959 . S
H617 C631 0.961 . S
H618 C632 0.960 . S
H619 C632 0.961 . S
H620 C632 0.959 . S
H621 C635 0.929 . S
H622 C636 0.931 . S
H623 C638 0.930 . S
C624 H612 0.930 . S
C624 C625 1.399 . S
C624 C629 1.399 . S
C625 C624 1.399 . S
C625 C626 1.376 . S
C626 H613 0.930 . S
C626 C625 1.376 . S
C626 C627 1.388 . S
C627 H614 0.930 . S
C627 C626 1.388 . S
C627 C628 1.390 . S
C628 C627 1.390 . S
C628 C629 1.394 . S
C628 C634 1.465 . S
C629 C624 1.399 . S
C629 C628 1.394 . S
C629 C630 1.516 . S
C630 C629 1.516 . S
C630 C631 1.502 . S
C630 C632 1.561 . S
C630 C633 1.526 . S
C631 H615 0.959 . S
C631 H616 0.959 . S
C631 H617 0.961 . S
C631 C630 1.502 . S
C632 H618 0.960 . S
C632 H619 0.961 . S
C632 H620 0.959 . S
C632 C630 1.561 . S
C633 C630 1.526 . S
C633 C634 1.396 . S
C633 C638 1.390 . S
C634 C628 1.465 . S
C634 C633 1.396 . S
C634 C635 1.399 . S
C635 H621 0.929 . S
C635 C634 1.399 . S
C635 C636 1.385 . S
C636 H622 0.931 . S
C636 C635 1.385 . S
C636 C637 1.389 . S
C637 C636 1.389 . S
C637 C638 1.387 . S
C638 H623 0.930 . S
C638 C633 1.390 . S
C638 C637 1.387 . S
H639 C651 0.930 . S
H640 C653 0.930 . S
H641 C654 0.930 . S
H642 C658 0.959 . S
H643 C658 0.959 . S
H644 C658 0.961 . S
H645 C659 0.960 . S
H646 C659 0.961 . S
H647 C659 0.959 . S
H648 C662 0.929 . S
H649 C663 0.931 . S
H650 C665 0.930 . S
C651 H639 0.930 . S
C651 C652 1.399 . S
C651 C656 1.399 . S
C652 C651 1.399 . S
C652 C653 1.376 . S
C653 H640 0.930 . S
C653 C652 1.376 . S
C653 C654 1.388 . S
C654 H641 0.930 . S
C654 C653 1.388 . S
C654 C655 1.390 . S
C655 C654 1.390 . S
C655 C656 1.394 . S
C655 C661 1.465 . S
C656 C651 1.399 . S
C656 C655 1.394 . S
C656 C657 1.516 . S
C657 C656 1.516 . S
C657 C658 1.502 . S
C657 C659 1.561 . S
C657 C660 1.526 . S
C658 H642 0.959 . S
C658 H643 0.959 . S
C658 H644 0.961 . S
C658 C657 1.502 . S
C659 H645 0.960 . S
C659 H646 0.961 . S
C659 H647 0.959 . S
C659 C657 1.561 . S
C660 C657 1.526 . S
C660 C661 1.396 . S
C660 C665 1.390 . S
C661 C655 1.465 . S
C661 C660 1.396 . S
C661 C662 1.399 . S
C662 H648 0.929 . S
C662 C661 1.399 . S
C662 C663 1.385 . S
C663 H649 0.931 . S
C663 C662 1.385 . S
C663 C664 1.389 . S
C664 C663 1.389 . S
C664 C665 1.387 . S
C665 H650 0.930 . S
C665 C660 1.390 . S
C665 C664 1.387 . S
H666 C678 0.930 . S
H667 C680 0.930 . S
H668 C681 0.930 . S
H669 C685 0.959 . S
H670 C685 0.959 . S
H671 C685 0.961 . S
H672 C686 0.960 . S
H673 C686 0.961 . S
H674 C686 0.959 . S
H675 C689 0.929 . S
H676 C690 0.931 . S
H677 C692 0.930 . S
C678 H666 0.930 . S
C678 C679 1.399 . S
C678 C683 1.399 . S
C679 C678 1.399 . S
C679 C680 1.376 . S
C680 H667 0.930 . S
C680 C679 1.376 . S
C680 C681 1.388 . S
C681 H668 0.930 . S
C681 C680 1.388 . S
C681 C682 1.390 . S
C682 C681 1.390 . S
C682 C683 1.394 . S
C682 C688 1.465 . S
C683 C678 1.399 . S
C683 C682 1.394 . S
C683 C684 1.516 . S
C684 C683 1.516 . S
C684 C685 1.502 . S
C684 C686 1.561 . S
C684 C687 1.526 . S
C685 H669 0.959 . S
C685 H670 0.959 . S
C685 H671 0.961 . S
C685 C684 1.502 . S
C686 H672 0.960 . S
C686 H673 0.961 . S
C686 H674 0.959 . S
C686 C684 1.561 . S
C687 C684 1.526 . S
C687 C688 1.396 . S
C687 C692 1.390 . S
C688 C682 1.465 . S
C688 C687 1.396 . S
C688 C689 1.399 . S
C689 H675 0.929 . S
C689 C688 1.399 . S
C689 C690 1.385 . S
C690 H676 0.931 . S
C690 C689 1.385 . S
C690 C691 1.389 . S
C691 C690 1.389 . S
C691 C692 1.387 . S
C692 H677 0.930 . S
C692 C687 1.390 . S
C692 C691 1.387 . S
H693 C705 0.930 . S
H694 C707 0.930 . S
H695 C708 0.930 . S
H696 C712 0.959 . S
H697 C712 0.959 . S
H698 C712 0.961 . S
H699 C713 0.960 . S
H700 C713 0.961 . S
H701 C713 0.959 . S
H702 C716 0.929 . S
H703 C717 0.931 . S
H704 C719 0.930 . S
C705 H693 0.930 . S
C705 C706 1.399 . S
C705 C710 1.399 . S
C706 C705 1.399 . S
C706 C707 1.376 . S
C707 H694 0.930 . S
C707 C706 1.376 . S
C707 C708 1.388 . S
C708 H695 0.930 . S
C708 C707 1.388 . S
C708 C709 1.390 . S
C709 C708 1.390 . S
C709 C710 1.394 . S
C709 C715 1.465 . S
C710 C705 1.399 . S
C710 C709 1.394 . S
C710 C711 1.516 . S
C711 C710 1.516 . S
C711 C712 1.502 . S
C711 C713 1.561 . S
C711 C714 1.526 . S
C712 H696 0.959 . S
C712 H697 0.959 . S
C712 H698 0.961 . S
C712 C711 1.502 . S
C713 H699 0.960 . S
C713 H700 0.961 . S
C713 H701 0.959 . S
C713 C711 1.561 . S
C714 C711 1.526 . S
C714 C715 1.396 . S
C714 C719 1.390 . S
C715 C709 1.465 . S
C715 C714 1.396 . S
C715 C716 1.399 . S
C716 H702 0.929 . S
C716 C715 1.399 . S
C716 C717 1.385 . S
C717 H703 0.931 . S
C717 C716 1.385 . S
C717 C718 1.389 . S
C718 C717 1.389 . S
C718 C719 1.387 . S
C719 H704 0.930 . S
C719 C714 1.390 . S
C719 C718 1.387 . S
H720 C732 0.930 . S
H721 C734 0.930 . S
H722 C735 0.930 . S
H723 C739 0.959 . S
H724 C739 0.959 . S
H725 C739 0.961 . S
H726 C740 0.960 . S
H727 C740 0.961 . S
H728 C740 0.959 . S
H729 C743 0.929 . S
H730 C744 0.931 . S
H731 C746 0.930 . S
C732 H720 0.930 . S
C732 C733 1.399 . S
C732 C737 1.399 . S
C733 C732 1.399 . S
C733 C734 1.376 . S
C734 H721 0.930 . S
C734 C733 1.376 . S
C734 C735 1.388 . S
C735 H722 0.930 . S
C735 C734 1.388 . S
C735 C736 1.390 . S
C736 C735 1.390 . S
C736 C737 1.394 . S
C736 C742 1.465 . S
C737 C732 1.399 . S
C737 C736 1.394 . S
C737 C738 1.516 . S
C738 C737 1.516 . S
C738 C739 1.502 . S
C738 C740 1.561 . S
C738 C741 1.526 . S
C739 H723 0.959 . S
C739 H724 0.959 . S
C739 H725 0.961 . S
C739 C738 1.502 . S
C740 H726 0.960 . S
C740 H727 0.961 . S
C740 H728 0.959 . S
C740 C738 1.561 . S
C741 C738 1.526 . S
C741 C742 1.396 . S
C741 C746 1.390 . S
C742 C736 1.465 . S
C742 C741 1.396 . S
C742 C743 1.399 . S
C743 H729 0.929 . S
C743 C742 1.399 . S
C743 C744 1.385 . S
C744 H730 0.931 . S
C744 C743 1.385 . S
C744 C745 1.389 . S
C745 C744 1.389 . S
C745 C746 1.387 . S
C746 H731 0.930 . S
C746 C741 1.390 . S
C746 C745 1.387 . S
H747 C759 0.930 . S
H748 C761 0.930 . S
H749 C762 0.930 . S
H750 C766 0.959 . S
H751 C766 0.959 . S
H752 C766 0.961 . S
H753 C767 0.960 . S
H754 C767 0.961 . S
H755 C767 0.959 . S
H756 C770 0.929 . S
H757 C771 0.931 . S
H758 C773 0.930 . S
C759 H747 0.930 . S
C759 C760 1.399 . S
C759 C764 1.399 . S
C760 C759 1.399 . S
C760 C761 1.376 . S
C761 H748 0.930 . S
C761 C760 1.376 . S
C761 C762 1.388 . S
C762 H749 0.930 . S
C762 C761 1.388 . S
C762 C763 1.390 . S
C763 C762 1.390 . S
C763 C764 1.394 . S
C763 C769 1.465 . S
C764 C759 1.399 . S
C764 C763 1.394 . S
C764 C765 1.516 . S
C765 C764 1.516 . S
C765 C766 1.502 . S
C765 C767 1.561 . S
C765 C768 1.526 . S
C766 H750 0.959 . S
C766 H751 0.959 . S
C766 H752 0.961 . S
C766 C765 1.502 . S
C767 H753 0.960 . S
C767 H754 0.961 . S
C767 H755 0.959 . S
C767 C765 1.561 . S
C768 C765 1.526 . S
C768 C769 1.396 . S
C768 C773 1.390 . S
C769 C763 1.465 . S
C769 C768 1.396 . S
C769 C770 1.399 . S
C770 H756 0.929 . S
C770 C769 1.399 . S
C770 C771 1.385 . S
C771 H757 0.931 . S
C771 C770 1.385 . S
C771 C772 1.389 . S
C772 C771 1.389 . S
C772 C773 1.387 . S
C773 H758 0.930 . S
C773 C768 1.390 . S
C773 C772 1.387 . S
H774 C786 0.930 . S
H775 C788 0.930 . S
H776 C789 0.930 . S
H777 C793 0.959 . S
H778 C793 0.959 . S
H779 C793 0.961 . S
H780 C794 0.960 . S
H781 C794 0.961 . S
H782 C794 0.959 . S
H783 C797 0.929 . S
H784 C798 0.931 . S
H785 C800 0.930 . S
C786 H774 0.930 . S
C786 C787 1.399 . S
C786 C791 1.399 . S
C787 C786 1.399 . S
C787 C788 1.376 . S
C788 H775 0.930 . S
C788 C787 1.376 . S
C788 C789 1.388 . S
C789 H776 0.930 . S
C789 C788 1.388 . S
C789 C790 1.390 . S
C790 C789 1.390 . S
C790 C791 1.394 . S
C790 C796 1.465 . S
C791 C786 1.399 . S
C791 C790 1.394 . S
C791 C792 1.516 . S
C792 C791 1.516 . S
C792 C793 1.502 . S
C792 C794 1.561 . S
C792 C795 1.526 . S
C793 H777 0.959 . S
C793 H778 0.959 . S
C793 H779 0.961 . S
C793 C792 1.502 . S
C794 H780 0.960 . S
C794 H781 0.961 . S
C794 H782 0.959 . S
C794 C792 1.561 . S
C795 C792 1.526 . S
C795 C796 1.396 . S
C795 C800 1.390 . S
C796 C790 1.465 . S
C796 C795 1.396 . S
C796 C797 1.399 . S
C797 H783 0.929 . S
C797 C796 1.399 . S
C797 C798 1.385 . S
C798 H784 0.931 . S
C798 C797 1.385 . S
C798 C799 1.389 . S
C799 C798 1.389 . S
C799 C800 1.387 . S
C800 H785 0.930 . S
C800 C795 1.390 . S
C800 C799 1.387 . S
H801 C813 0.930 . S
H802 C815 0.930 . S
H803 C816 0.930 . S
H804 C820 0.959 . S
H805 C820 0.959 . S
H806 C820 0.961 . S
H807 C821 0.960 . S
H808 C821 0.961 . S
H809 C821 0.959 . S
H810 C824 0.929 . S
H811 C825 0.931 . S
H812 C827 0.930 . S
C813 H801 0.930 . S
C813 C814 1.399 . S
C813 C818 1.399 . S
C814 C813 1.399 . S
C814 C815 1.376 . S
C815 H802 0.930 . S
C815 C814 1.376 . S
C815 C816 1.388 . S
C816 H803 0.930 . S
C816 C815 1.388 . S
C816 C817 1.390 . S
C817 C816 1.390 . S
C817 C818 1.394 . S
C817 C823 1.465 . S
C818 C813 1.399 . S
C818 C817 1.394 . S
C818 C819 1.516 . S
C819 C818 1.516 . S
C819 C820 1.502 . S
C819 C821 1.561 . S
C819 C822 1.526 . S
C820 H804 0.959 . S
C820 H805 0.959 . S
C820 H806 0.961 . S
C820 C819 1.502 . S
C821 H807 0.960 . S
C821 H808 0.961 . S
C821 H809 0.959 . S
C821 C819 1.561 . S
C822 C819 1.526 . S
C822 C823 1.396 . S
C822 C827 1.390 . S
C823 C817 1.465 . S
C823 C822 1.396 . S
C823 C824 1.399 . S
C824 H810 0.929 . S
C824 C823 1.399 . S
C824 C825 1.385 . S
C825 H811 0.931 . S
C825 C824 1.385 . S
C825 C826 1.389 . S
C826 C825 1.389 . S
C826 C827 1.387 . S
C827 H812 0.930 . S
C827 C822 1.390 . S
C827 C826 1.387 . S
H828 C840 0.930 . S
H829 C842 0.930 . S
H830 C843 0.930 . S
H831 C847 0.959 . S
H832 C847 0.959 . S
H833 C847 0.961 . S
H834 C848 0.960 . S
H835 C848 0.961 . S
H836 C848 0.959 . S
H837 C851 0.929 . S
H838 C852 0.931 . S
H839 C854 0.930 . S
C840 H828 0.930 . S
C840 C841 1.399 . S
C840 C845 1.399 . S
C841 C840 1.399 . S
C841 C842 1.376 . S
C842 H829 0.930 . S
C842 C841 1.376 . S
C842 C843 1.388 . S
C843 H830 0.930 . S
C843 C842 1.388 . S
C843 C844 1.390 . S
C844 C843 1.390 . S
C844 C845 1.394 . S
C844 C850 1.465 . S
C845 C840 1.399 . S
C845 C844 1.394 . S
C845 C846 1.516 . S
C846 C845 1.516 . S
C846 C847 1.502 . S
C846 C848 1.561 . S
C846 C849 1.526 . S
C847 H831 0.959 . S
C847 H832 0.959 . S
C847 H833 0.961 . S
C847 C846 1.502 . S
C848 H834 0.960 . S
C848 H835 0.961 . S
C848 H836 0.959 . S
C848 C846 1.561 . S
C849 C846 1.526 . S
C849 C850 1.396 . S
C849 C854 1.390 . S
C850 C844 1.465 . S
C850 C849 1.396 . S
C850 C851 1.399 . S
C851 H837 0.929 . S
C851 C850 1.399 . S
C851 C852 1.385 . S
C852 H838 0.931 . S
C852 C851 1.385 . S
C852 C853 1.389 . S
C853 C852 1.389 . S
C853 C854 1.387 . S
C854 H839 0.930 . S
C854 C849 1.390 . S
C854 C853 1.387 . S
H855 C867 0.930 . S
H856 C869 0.930 . S
H857 C870 0.930 . S
H858 C874 0.959 . S
H859 C874 0.959 . S
H860 C874 0.961 . S
H861 C875 0.960 . S
H862 C875 0.961 . S
H863 C875 0.959 . S
H864 C878 0.929 . S
H865 C879 0.931 . S
H866 C881 0.930 . S
C867 H855 0.930 . S
C867 C868 1.399 . S
C867 C872 1.399 . S
C868 C867 1.399 . S
C868 C869 1.376 . S
C869 H856 0.930 . S
C869 C868 1.376 . S
C869 C870 1.388 . S
C870 H857 0.930 . S
C870 C869 1.388 . S
C870 C871 1.390 . S
C871 C870 1.390 . S
C871 C872 1.394 . S
C871 C877 1.465 . S
C872 C867 1.399 . S
C872 C871 1.394 . S
C872 C873 1.516 . S
C873 C872 1.516 . S
C873 C874 1.502 . S
C873 C875 1.561 . S
C873 C876 1.526 . S
C874 H858 0.959 . S
C874 H859 0.959 . S
C874 H860 0.961 . S
C874 C873 1.502 . S
C875 H861 0.960 . S
C875 H862 0.961 . S
C875 H863 0.959 . S
C875 C873 1.561 . S
C876 C873 1.526 . S
C876 C877 1.396 . S
C876 C881 1.390 . S
C877 C871 1.465 . S
C877 C876 1.396 . S
C877 C878 1.399 . S
C878 H864 0.929 . S
C878 C877 1.399 . S
C878 C879 1.385 . S
C879 H865 0.931 . S
C879 C878 1.385 . S
C879 C880 1.389 . S
C880 C879 1.389 . S
C880 C881 1.387 . S
C881 H866 0.930 . S
C881 C876 1.390 . S
C881 C880 1.387 . S
H882 C894 0.930 . S
H883 C896 0.930 . S
H884 C897 0.930 . S
H885 C901 0.959 . S
H886 C901 0.959 . S
H887 C901 0.961 . S
H888 C902 0.960 . S
H889 C902 0.961 . S
H890 C902 0.959 . S
H891 C905 0.929 . S
H892 C906 0.931 . S
H893 C908 0.930 . S
C894 H882 0.930 . S
C894 C895 1.399 . S
C894 C899 1.399 . S
C895 C894 1.399 . S
C895 C896 1.376 . S
C896 H883 0.930 . S
C896 C895 1.376 . S
C896 C897 1.388 . S
C897 H884 0.930 . S
C897 C896 1.388 . S
C897 C898 1.390 . S
C898 C897 1.390 . S
C898 C899 1.394 . S
C898 C904 1.465 . S
C899 C894 1.399 . S
C899 C898 1.394 . S
C899 C900 1.516 . S
C900 C899 1.516 . S
C900 C901 1.502 . S
C900 C902 1.561 . S
C900 C903 1.526 . S
C901 H885 0.959 . S
C901 H886 0.959 . S
C901 H887 0.961 . S
C901 C900 1.502 . S
C902 H888 0.960 . S
C902 H889 0.961 . S
C902 H890 0.959 . S
C902 C900 1.561 . S
C903 C900 1.526 . S
C903 C904 1.396 . S
C903 C908 1.390 . S
C904 C898 1.465 . S
C904 C903 1.396 . S
C904 C905 1.399 . S
C905 H891 0.929 . S
C905 C904 1.399 . S
C905 C906 1.385 . S
C906 H892 0.931 . S
C906 C905 1.385 . S
C906 C907 1.389 . S
C907 C906 1.389 . S
C907 C908 1.387 . S
C908 H893 0.930 . S
C908 C903 1.390 . S
C908 C907 1.387 . S
H909 C921 0.930 . S
H910 C923 0.930 . S
H911 C924 0.930 . S
H912 C928 0.959 . S
H913 C928 0.959 . S
H914 C928 0.961 . S
H915 C929 0.960 . S
H916 C929 0.961 . S
H917 C929 0.959 . S
H918 C932 0.929 . S
H919 C933 0.931 . S
H920 C935 0.930 . S
C921 H909 0.930 . S
C921 C922 1.399 . S
C921 C926 1.399 . S
C922 C921 1.399 . S
C922 C923 1.376 . S
C923 H910 0.930 . S
C923 C922 1.376 . S
C923 C924 1.388 . S
C924 H911 0.930 . S
C924 C923 1.388 . S
C924 C925 1.390 . S
C925 C924 1.390 . S
C925 C926 1.394 . S
C925 C931 1.465 . S
C926 C921 1.399 . S
C926 C925 1.394 . S
C926 C927 1.516 . S
C927 C926 1.516 . S
C927 C928 1.502 . S
C927 C929 1.561 . S
C927 C930 1.526 . S
C928 H912 0.959 . S
C928 H913 0.959 . S
C928 H914 0.961 . S
C928 C927 1.502 . S
C929 H915 0.960 . S
C929 H916 0.961 . S
C929 H917 0.959 . S
C929 C927 1.561 . S
C930 C927 1.526 . S
C930 C931 1.396 . S
C930 C935 1.390 . S
C931 C925 1.465 . S
C931 C930 1.396 . S
C931 C932 1.399 . S
C932 H918 0.929 . S
C932 C931 1.399 . S
C932 C933 1.385 . S
C933 H919 0.931 . S
C933 C932 1.385 . S
C933 C934 1.389 . S
C934 C933 1.389 . S
C934 C935 1.387 . S
C935 H920 0.930 . S
C935 C930 1.390 . S
C935 C934 1.387 . S
H936 C948 0.930 . S
H937 C950 0.930 . S
H938 C951 0.930 . S
H939 C955 0.959 . S
H940 C955 0.959 . S
H941 C955 0.961 . S
H942 C956 0.960 . S
H943 C956 0.961 . S
H944 C956 0.959 . S
H945 C959 0.929 . S
H946 C960 0.931 . S
H947 C962 0.930 . S
C948 H936 0.930 . S
C948 C949 1.399 . S
C948 C953 1.399 . S
C949 C948 1.399 . S
C949 C950 1.376 . S
C950 H937 0.930 . S
C950 C949 1.376 . S
C950 C951 1.388 . S
C951 H938 0.930 . S
C951 C950 1.388 . S
C951 C952 1.390 . S
C952 C951 1.390 . S
C952 C953 1.394 . S
C952 C958 1.465 . S
C953 C948 1.399 . S
C953 C952 1.394 . S
C953 C954 1.516 . S
C954 C953 1.516 . S
C954 C955 1.502 . S
C954 C956 1.561 . S
C954 C957 1.526 . S
C955 H939 0.959 . S
C955 H940 0.959 . S
C955 H941 0.961 . S
C955 C954 1.502 . S
C956 H942 0.960 . S
C956 H943 0.961 . S
C956 H944 0.959 . S
C956 C954 1.561 . S
C957 C954 1.526 . S
C957 C958 1.396 . S
C957 C962 1.390 . S
C958 C952 1.465 . S
C958 C957 1.396 . S
C958 C959 1.399 . S
C959 H945 0.929 . S
C959 C958 1.399 . S
C959 C960 1.385 . S
C960 H946 0.931 . S
C960 C959 1.385 . S
C960 C961 1.389 . S
C961 C960 1.389 . S
C961 C962 1.387 . S
C962 H947 0.930 . S
C962 C957 1.390 . S
C962 C961 1.387 . S
H963 C975 0.930 . S
H964 C977 0.930 . S
H965 C978 0.930 . S
H966 C982 0.959 1_556 S
H967 C982 0.959 1_556 S
H968 C982 0.961 . S
H969 C983 0.960 . S
H970 C983 0.961 1_556 S
H971 C983 0.959 . S
H972 C986 0.929 . S
H973 C987 0.931 . S
H974 C989 0.930 . S
C975 H963 0.930 . S
C975 C976 1.399 . S
C975 C980 1.399 . S
C976 C975 1.399 . S
C976 C977 1.376 . S
C977 H964 0.930 . S
C977 C976 1.376 . S
C977 C978 1.388 . S
C978 H965 0.930 . S
C978 C977 1.388 . S
C978 C979 1.390 . S
C979 C978 1.390 . S
C979 C980 1.394 . S
C979 C985 1.465 1_554 S
C980 C975 1.399 . S
C980 C979 1.394 . S
C980 C981 1.516 . S
C981 C980 1.516 . S
C981 C982 1.502 . S
C981 C983 1.561 . S
C981 C984 1.526 1_554 S
C982 H966 0.959 1_554 S
C982 H967 0.959 1_554 S
C982 H968 0.961 . S
C982 C981 1.502 . S
C983 H969 0.960 . S
C983 H970 0.961 1_554 S
C983 H971 0.959 . S
C983 C981 1.561 . S
C984 C981 1.526 1_556 S
C984 C985 1.396 . S
C984 C989 1.390 . S
C985 C979 1.465 1_556 S
C985 C984 1.396 . S
C985 C986 1.399 . S
C986 H972 0.929 . S
C986 C985 1.399 . S
C986 C987 1.385 . S
C987 H973 0.931 . S
C987 C986 1.385 . S
C987 C988 1.389 . S
C988 C987 1.389 . S
C988 C989 1.387 . S
C989 H974 0.930 . S
C989 C984 1.390 . S
C989 C988 1.387 . S
H990 C1002 0.930 . S
H991 C1004 0.930 . S
H992 C1005 0.930 . S
H993 C1009 0.959 . S
H994 C1009 0.959 . S
H995 C1009 0.961 1_556 S
H996 C1010 0.960 1_556 S
H997 C1010 0.961 . S
H998 C1010 0.959 . S
H999 C1013 0.929 . S
H1000 C1014 0.931 . S
H1001 C1016 0.930 . S
C1002 H990 0.930 . S
C1002 C1003 1.399 . S
C1002 C1007 1.399 . S
C1003 C1002 1.399 . S
C1003 C1004 1.376 1_545 S
C1004 H991 0.930 . S
C1004 C1003 1.376 1_565 S
C1004 C1005 1.388 . S
C1005 H992 0.930 . S
C1005 C1004 1.388 . S
C1005 C1006 1.390 . S
C1006 C1005 1.390 . S
C1006 C1007 1.394 1_565 S
C1006 C1012 1.465 1_556 S
C1007 C1002 1.399 . S
C1007 C1006 1.394 1_545 S
C1007 C1008 1.516 1_556 S
C1008 C1007 1.516 1_554 S
C1008 C1009 1.502 . S
C1008 C1010 1.561 . S
C1008 C1011 1.526 . S
C1009 H993 0.959 . S
C1009 H994 0.959 . S
C1009 H995 0.961 1_554 S
C1009 C1008 1.502 . S
C1010 H996 0.960 1_554 S
C1010 H997 0.961 . S
C1010 H998 0.959 . S
C1010 C1008 1.561 . S
C1011 C1008 1.526 . S
C1011 C1012 1.396 1_545 S
C1011 C1016 1.390 . S
C1012 C1006 1.465 1_554 S
C1012 C1011 1.396 1_565 S
C1012 C1013 1.399 . S
C1013 H999 0.929 . S
C1013 C1012 1.399 . S
C1013 C1014 1.385 . S
C1014 H1000 0.931 . S
C1014 C1013 1.385 . S
C1014 C1015 1.389 . S
C1015 C1014 1.389 . S
C1015 C1016 1.387 1_565 S
C1016 H1001 0.930 . S
C1016 C1011 1.390 . S
C1016 C1015 1.387 1_545 S
H1017 C1029 0.930 . S
H1018 C1031 0.930 . S
H1019 C1032 0.930 . S
H1020 C1036 0.959 . S
H1021 C1036 0.959 . S
H1022 C1036 0.961 1_556 S
H1023 C1037 0.960 1_556 S
H1024 C1037 0.961 . S
H1025 C1037 0.959 1_455 S
H1026 C1040 0.929 . S
H1027 C1041 0.931 . S
H1028 C1043 0.930 . S
C1029 H1017 0.930 . S
C1029 C1030 1.399 1_655 S
C1029 C1034 1.399 . S
C1030 C1029 1.399 1_455 S
C1030 C1031 1.376 . S
C1031 H1018 0.930 . S
C1031 C1030 1.376 . S
C1031 C1032 1.388 . S
C1032 H1019 0.930 . S
C1032 C1031 1.388 . S
C1032 C1033 1.390 . S
C1033 C1032 1.390 . S
C1033 C1034 1.394 1_455 S
C1033 C1039 1.465 1_556 S
C1034 C1029 1.399 . S
C1034 C1033 1.394 1_655 S
C1034 C1035 1.516 1_556 S
C1035 C1034 1.516 1_554 S
C1035 C1036 1.502 . S
C1035 C1037 1.561 . S
C1035 C1038 1.526 . S
C1036 H1020 0.959 . S
C1036 H1021 0.959 . S
C1036 H1022 0.961 1_554 S
C1036 C1035 1.502 . S
C1037 H1023 0.960 1_554 S
C1037 H1024 0.961 . S
C1037 H1025 0.959 1_655 S
C1037 C1035 1.561 . S
C1038 C1035 1.526 . S
C1038 C1039 1.396 1_655 S
C1038 C1043 1.390 . S
C1039 C1033 1.465 1_554 S
C1039 C1038 1.396 1_455 S
C1039 C1040 1.399 . S
C1040 H1026 0.929 . S
C1040 C1039 1.399 . S
C1040 C1041 1.385 . S
C1041 H1027 0.931 . S
C1041 C1040 1.385 . S
C1041 C1042 1.389 . S
C1042 C1041 1.389 . S
C1042 C1043 1.387 1_455 S
C1043 H1028 0.930 . S
C1043 C1038 1.390 . S
C1043 C1042 1.387 1_655 S
H1044 C1056 0.930 . S
H1045 C1058 0.930 . S
H1046 C1059 0.930 . S
H1047 C1063 0.959 . S
H1048 C1063 0.959 . S
H1049 C1063 0.961 . S
H1050 C1064 0.960 . S
H1051 C1064 0.961 . S
H1052 C1064 0.959 . S
H1053 C1067 0.929 . S
H1054 C1068 0.931 . S
H1055 C1070 0.930 . S
C1056 H1044 0.930 . S
C1056 C1057 1.399 . S
C1056 C1061 1.399 . S
C1057 C1056 1.399 . S
C1057 C1058 1.376 . S
C1058 H1045 0.930 . S
C1058 C1057 1.376 . S
C1058 C1059 1.388 . S
C1059 H1046 0.930 . S
C1059 C1058 1.388 . S
C1059 C1060 1.390 . S
C1060 C1059 1.390 . S
C1060 C1061 1.394 . S
C1060 C1066 1.465 . S
C1061 C1056 1.399 . S
C1061 C1060 1.394 . S
C1061 C1062 1.516 . S
C1062 C1061 1.516 . S
C1062 C1063 1.502 . S
C1062 C1064 1.561 . S
C1062 C1065 1.526 . S
C1063 H1047 0.959 . S
C1063 H1048 0.959 . S
C1063 H1049 0.961 . S
C1063 C1062 1.502 . S
C1064 H1050 0.960 . S
C1064 H1051 0.961 . S
C1064 H1052 0.959 . S
C1064 C1062 1.561 . S
C1065 C1062 1.526 . S
C1065 C1066 1.396 . S
C1065 C1070 1.390 . S
C1066 C1060 1.465 . S
C1066 C1065 1.396 . S
C1066 C1067 1.399 . S
C1067 H1053 0.929 . S
C1067 C1066 1.399 . S
C1067 C1068 1.385 . S
C1068 H1054 0.931 . S
C1068 C1067 1.385 . S
C1068 C1069 1.389 . S
C1069 C1068 1.389 . S
C1069 C1070 1.387 . S
C1070 H1055 0.930 . S
C1070 C1065 1.390 . S
C1070 C1069 1.387 . S
H1071 C1083 0.930 . S
H1072 C1085 0.930 . S
H1073 C1086 0.930 . S
H1074 C1090 0.959 . S
H1075 C1090 0.959 . S
H1076 C1090 0.961 . S
H1077 C1091 0.960 . S
H1078 C1091 0.961 . S
H1079 C1091 0.959 . S
H1080 C1094 0.929 . S
H1081 C1095 0.931 . S
H1082 C1097 0.930 . S
C1083 H1071 0.930 . S
C1083 C1084 1.399 . S
C1083 C1088 1.399 . S
C1084 C1083 1.399 . S
C1084 C1085 1.376 . S
C1085 H1072 0.930 . S
C1085 C1084 1.376 . S
C1085 C1086 1.388 . S
C1086 H1073 0.930 . S
C1086 C1085 1.388 . S
C1086 C1087 1.390 . S
C1087 C1086 1.390 . S
C1087 C1088 1.394 . S
C1087 C1093 1.465 . S
C1088 C1083 1.399 . S
C1088 C1087 1.394 . S
C1088 C1089 1.516 . S
C1089 C1088 1.516 . S
C1089 C1090 1.502 . S
C1089 C1091 1.561 . S
C1089 C1092 1.526 . S
C1090 H1074 0.959 . S
C1090 H1075 0.959 . S
C1090 H1076 0.961 . S
C1090 C1089 1.502 . S
C1091 H1077 0.960 . S
C1091 H1078 0.961 . S
C1091 H1079 0.959 . S
C1091 C1089 1.561 . S
C1092 C1089 1.526 . S
C1092 C1093 1.396 . S
C1092 C1097 1.390 . S
C1093 C1087 1.465 . S
C1093 C1092 1.396 . S
C1093 C1094 1.399 . S
C1094 H1080 0.929 . S
C1094 C1093 1.399 . S
C1094 C1095 1.385 . S
C1095 H1081 0.931 . S
C1095 C1094 1.385 . S
C1095 C1096 1.389 . S
C1096 C1095 1.389 . S
C1096 C1097 1.387 . S
C1097 H1082 0.930 . S
C1097 C1092 1.390 . S
C1097 C1096 1.387 . S
H1098 C1110 0.930 . S
H1099 C1112 0.930 . S
H1100 C1113 0.930 . S
H1101 C1117 0.959 . S
H1102 C1117 0.959 . S
H1103 C1117 0.961 . S
H1104 C1118 0.960 . S
H1105 C1118 0.961 . S
H1106 C1118 0.959 . S
H1107 C1121 0.929 . S
H1108 C1122 0.931 . S
H1109 C1124 0.930 . S
C1110 H1098 0.930 . S
C1110 C1111 1.399 . S
C1110 C1115 1.399 . S
C1111 C1110 1.399 . S
C1111 C1112 1.376 . S
C1112 H1099 0.930 . S
C1112 C1111 1.376 . S
C1112 C1113 1.388 . S
C1113 H1100 0.930 . S
C1113 C1112 1.388 . S
C1113 C1114 1.390 . S
C1114 C1113 1.390 . S
C1114 C1115 1.394 . S
C1114 C1120 1.465 . S
C1115 C1110 1.399 . S
C1115 C1114 1.394 . S
C1115 C1116 1.516 . S
C1116 C1115 1.516 . S
C1116 C1117 1.502 . S
C1116 C1118 1.561 . S
C1116 C1119 1.526 . S
C1117 H1101 0.959 . S
C1117 H1102 0.959 . S
C1117 H1103 0.961 . S
C1117 C1116 1.502 . S
C1118 H1104 0.960 . S
C1118 H1105 0.961 . S
C1118 H1106 0.959 . S
C1118 C1116 1.561 . S
C1119 C1116 1.526 . S
C1119 C1120 1.396 . S
C1119 C1124 1.390 . S
C1120 C1114 1.465 . S
C1120 C1119 1.396 . S
C1120 C1121 1.399 . S
C1121 H1107 0.929 . S
C1121 C1120 1.399 . S
C1121 C1122 1.385 . S
C1122 H1108 0.931 . S
C1122 C1121 1.385 . S
C1122 C1123 1.389 . S
C1123 C1122 1.389 . S
C1123 C1124 1.387 . S
C1124 H1109 0.930 . S
C1124 C1119 1.390 . S
C1124 C1123 1.387 . S
H1125 C1137 0.930 . S
H1126 C1139 0.930 . S
H1127 C1140 0.930 . S
H1128 C1144 0.959 . S
H1129 C1144 0.959 . S
H1130 C1144 0.961 . S
H1131 C1145 0.960 . S
H1132 C1145 0.961 . S
H1133 C1145 0.959 . S
H1134 C1148 0.929 . S
H1135 C1149 0.931 . S
H1136 C1151 0.930 . S
C1137 H1125 0.930 . S
C1137 C1138 1.399 . S
C1137 C1142 1.399 . S
C1138 C1137 1.399 . S
C1138 C1139 1.376 . S
C1139 H1126 0.930 . S
C1139 C1138 1.376 . S
C1139 C1140 1.388 . S
C1140 H1127 0.930 . S
C1140 C1139 1.388 . S
C1140 C1141 1.390 . S
C1141 C1140 1.390 . S
C1141 C1142 1.394 . S
C1141 C1147 1.465 . S
C1142 C1137 1.399 . S
C1142 C1141 1.394 . S
C1142 C1143 1.516 . S
C1143 C1142 1.516 . S
C1143 C1144 1.502 . S
C1143 C1145 1.561 . S
C1143 C1146 1.526 . S
C1144 H1128 0.959 . S
C1144 H1129 0.959 . S
C1144 H1130 0.961 . S
C1144 C1143 1.502 . S
C1145 H1131 0.960 . S
C1145 H1132 0.961 . S
C1145 H1133 0.959 . S
C1145 C1143 1.561 . S
C1146 C1143 1.526 . S
C1146 C1147 1.396 . S
C1146 C1151 1.390 . S
C1147 C1141 1.465 . S
C1147 C1146 1.396 . S
C1147 C1148 1.399 . S
C1148 H1134 0.929 . S
C1148 C1147 1.399 . S
C1148 C1149 1.385 . S
C1149 H1135 0.931 . S
C1149 C1148 1.385 . S
C1149 C1150 1.389 . S
C1150 C1149 1.389 . S
C1150 C1151 1.387 . S
C1151 H1136 0.930 . S
C1151 C1146 1.390 . S
C1151 C1150 1.387 . S
H1152 C1164 0.930 . S
H1153 C1166 0.930 . S
H1154 C1167 0.930 . S
H1155 C1171 0.959 . S
H1156 C1171 0.959 . S
H1157 C1171 0.961 . S
H1158 C1172 0.960 . S
H1159 C1172 0.961 . S
H1160 C1172 0.959 . S
H1161 C1175 0.929 . S
H1162 C1176 0.931 . S
H1163 C1178 0.930 . S
C1164 H1152 0.930 . S
C1164 C1165 1.399 . S
C1164 C1169 1.399 . S
C1165 C1164 1.399 . S
C1165 C1166 1.376 . S
C1166 H1153 0.930 . S
C1166 C1165 1.376 . S
C1166 C1167 1.388 . S
C1167 H1154 0.930 . S
C1167 C1166 1.388 . S
C1167 C1168 1.390 . S
C1168 C1167 1.390 . S
C1168 C1169 1.394 . S
C1168 C1174 1.465 . S
C1169 C1164 1.399 . S
C1169 C1168 1.394 . S
C1169 C1170 1.516 . S
C1170 C1169 1.516 . S
C1170 C1171 1.502 . S
C1170 C1172 1.561 . S
C1170 C1173 1.526 . S
C1171 H1155 0.959 . S
C1171 H1156 0.959 . S
C1171 H1157 0.961 . S
C1171 C1170 1.502 . S
C1172 H1158 0.960 . S
C1172 H1159 0.961 . S
C1172 H1160 0.959 . S
C1172 C1170 1.561 . S
C1173 C1170 1.526 . S
C1173 C1174 1.396 . S
C1173 C1178 1.390 . S
C1174 C1168 1.465 . S
C1174 C1173 1.396 . S
C1174 C1175 1.399 . S
C1175 H1161 0.929 . S
C1175 C1174 1.399 . S
C1175 C1176 1.385 . S
C1176 H1162 0.931 . S
C1176 C1175 1.385 . S
C1176 C1177 1.389 . S
C1177 C1176 1.389 . S
C1177 C1178 1.387 . S
C1178 H1163 0.930 . S
C1178 C1173 1.390 . S
C1178 C1177 1.387 . S
H1179 C1191 0.930 . S
H1180 C1193 0.930 . S
H1181 C1194 0.930 . S
H1182 C1198 0.959 . S
H1183 C1198 0.959 . S
H1184 C1198 0.961 . S
H1185 C1199 0.960 . S
H1186 C1199 0.961 . S
H1187 C1199 0.959 . S
H1188 C1202 0.929 . S
H1189 C1203 0.931 . S
H1190 C1205 0.930 . S
C1191 H1179 0.930 . S
C1191 C1192 1.399 . S
C1191 C1196 1.399 . S
C1192 C1191 1.399 . S
C1192 C1193 1.376 . S
C1193 H1180 0.930 . S
C1193 C1192 1.376 . S
C1193 C1194 1.388 . S
C1194 H1181 0.930 . S
C1194 C1193 1.388 . S
C1194 C1195 1.390 . S
C1195 C1194 1.390 . S
C1195 C1196 1.394 . S
C1195 C1201 1.465 . S
C1196 C1191 1.399 . S
C1196 C1195 1.394 . S
C1196 C1197 1.516 . S
C1197 C1196 1.516 . S
C1197 C1198 1.502 . S
C1197 C1199 1.561 . S
C1197 C1200 1.526 . S
C1198 H1182 0.959 . S
C1198 H1183 0.959 . S
C1198 H1184 0.961 . S
C1198 C1197 1.502 . S
C1199 H1185 0.960 . S
C1199 H1186 0.961 . S
C1199 H1187 0.959 . S
C1199 C1197 1.561 . S
C1200 C1197 1.526 . S
C1200 C1201 1.396 . S
C1200 C1205 1.390 . S
C1201 C1195 1.465 . S
C1201 C1200 1.396 . S
C1201 C1202 1.399 . S
C1202 H1188 0.929 . S
C1202 C1201 1.399 . S
C1202 C1203 1.385 . S
C1203 H1189 0.931 . S
C1203 C1202 1.385 . S
C1203 C1204 1.389 . S
C1204 C1203 1.389 . S
C1204 C1205 1.387 . S
C1205 H1190 0.930 . S
C1205 C1200 1.390 . S
C1205 C1204 1.387 . S
C247 C134 1.320 . S
C259 C10 1.281 . S
C274 C23 1.337 . S
C286 C147 1.263 . S
C301 C121 1.257 . S
C313 C30 1.337 . S
C328 C192 1.338 . S
C340 C49 1.262 . S
C355 C56 1.293 . S
C367 C166 1.302 . S
C382 C179 1.262 . S
C394 C69 1.336 . S
C409 C88 1.330 . S
C421 C212 1.270 . S
C436 C225 1.341 . S
C448 C101 1.254 . S
C463 C114 1.289 . S
C475 C205 1.305 . S
C490 C3 1.242 . S
C502 C18 1.290 . S
C517 C16 1.217 . S
C529 C29 1.268 . S
C544 C5 1.226 . S
C556 C31 1.218 . S
C571 C68 1.245 . S
C583 C42 1.207 . S
C598 C44 1.267 . S
C610 C57 1.217 . S
C625 C70 1.271 . S
C637 C55 1.247 . S
C652 C81 1.268 . S
C664 C96 1.302 . S
C679 C94 1.240 . S
C691 C109 1.289 . S
C706 C83 1.299 . S
C718 C107 1.292 . S
C733 C146 1.299 . S
C745 C122 1.293 . S
C760 C120 1.226 . S
C772 C135 1.219 . S
C787 C133 1.234 . S
C799 C148 1.208 . S
C814 C174 1.302 . S
C826 C159 1.267 . S
C841 C187 1.226 . S
C853 C172 1.217 . S
C868 C161 1.299 . S
C880 C185 1.292 . S
C895 C198 1.237 . S
C907 C224 1.286 . S
C922 C213 1.228 . S
C934 C200 1.226 . S
C949 C226 1.258 . S
C961 C211 1.298 . S
C976 C4 1.711 . S
C988 C43 1.694 . S
C1003 C62 1.721 . S
C1015 C17 1.742 1_565 S
C1030 C75 1.698 . S
C1042 C36 1.724 . S
C1057 C127 1.741 . S
C1069 C82 1.737 . S
C1084 C140 1.719 . S
C1096 C95 1.742 . S
C1111 C108 1.741 . S
C1123 C153 1.736 . S
C1138 C199 1.741 . S
C1150 C160 1.736 . S
C1165 C218 1.715 . S
C1177 C173 1.694 . S
C1192 C231 1.738 . S
C1204 C186 1.711 . S
