# Generated by pormake.
# Topology kag, (6)-cn, num edge types: 1
# Building blocks:
#     Node 0, Type 0, BuildingBlock: BETDIP_clean_sbu_0, # of connection points: 6
#     Node 1, Type 0, BuildingBlock: BETDIP_clean_sbu_0, # of connection points: 6
#     Node 2, Type 0, BuildingBlock: BETDIP_clean_sbu_0, # of connection points: 6
#     Edge 3, Type (0, 0), BuildingBlock: MIFKUJ_clean_linker_0, # of connection points: 2
#     Edge 4, Type (0, 0), BuildingBlock: MIFKUJ_clean_linker_0, # of connection points: 2
#     Edge 5, Type (0, 0), BuildingBlock: MIFKUJ_clean_linker_0, # of connection points: 2
#     Edge 6, Type (0, 0), BuildingBlock: MIFKUJ_clean_linker_0, # of connection points: 2
#     Edge 7, Type (0, 0), BuildingBlock: MIFKUJ_clean_linker_0, # of connection points: 2
#     Edge 8, Type (0, 0), BuildingBlock: MIFKUJ_clean_linker_0, # of connection points: 2
#     Edge 9, Type (0, 0), BuildingBlock: MIFKUJ_clean_linker_0, # of connection points: 2
#     Edge 10, Type (0, 0), BuildingBlock: MIFKUJ_clean_linker_0, # of connection points: 2
#     Edge 11, Type (0, 0), BuildingBlock: MIFKUJ_clean_linker_0, # of connection points: 2
# Relax obj value: 0.013
# Max RMSD: 0.069
# Mean RMSD: 0.060
data_MOF--net-kag--node1-BETDIP_clean_sbu_0--edge1-MIFKUJ_clean_linker_0
_symmetry_space_group_name_H-M    P1
_symmetry_Int_Tables_number       1
_symmetry_cell_setting            triclinic
loop_
_symmetry_equiv_pos_as_xyz
'x, y, z'
_cell_length_a     50.135543
_cell_length_b     50.052436
_cell_length_c     18.984425
_cell_angle_alpha  92.273301
_cell_angle_beta   91.928979
_cell_angle_gamma 120.11641
loop_
_atom_site_label
_atom_site_type_symbol
_atom_site_fract_x
_atom_site_fract_y
_atom_site_fract_z
_atom_type_partial_charge
Tb0 Tb 1.01061 0.48608 0.01483 0.0
Tb1 Tb 0.04511 0.55371 0.99449 0.0
C2 C 0.97552 0.43291 0.05685 0.0
C3 C 0.94296 0.40708 0.04697 0.0
C4 C 0.91969 0.40675 0.08702 0.0
C5 C 0.88981 0.38084 0.08248 0.0
C6 C 0.88248 0.35454 0.03813 0.0
C7 C 0.90562 0.35522 0.99699 0.0
C8 C 0.93545 0.38106 1.00158 0.0
C9 C 1.02193 0.50005 0.88164 0.0
C10 C 0.97326 0.52194 0.99256 0.0
C11 C 0.07919 0.60663 0.95002 0.0
C12 C 0.1117 0.63193 0.95221 0.0
C13 C 0.12117 0.65226 0.8977 0.0
C14 C 0.151 0.67798 0.90042 0.0
C15 C 0.17215 0.68408 0.95797 0.0
C16 C 0.16286 0.66308 0.01173 0.0
C17 C 0.13287 0.63724 0.00892 0.0
C18 C 0.03313 0.53949 0.12736 0.0
C19 C 0.08246 0.51808 0.01884 0.0
O20 O 0.98083 0.45865 0.09041 0.0
O21 O 0.99287 0.43812 1.00332 0.0
O22 O 1.01465 0.51386 0.92732 0.0
O23 O 1.02037 0.47604 0.90866 0.0
O24 O 0.97348 0.49745 0.01601 0.0
O25 O 0.99863 0.54558 0.97077 0.0
O26 O 0.07219 0.58076 0.91458 0.0
O27 O 0.06518 0.60186 0.00896 0.0
O28 O 0.04076 0.5259 0.08197 0.0
O29 O 0.03488 0.56363 0.10045 0.0
O30 O 0.0821 0.5421 0.99285 0.0
O31 O 0.05715 0.49491 0.04223 0.0
H32 H 0.92471 0.42619 0.12325 0.0
H33 H 0.87274 0.38106 0.11561 0.0
H34 H 0.90076 0.33563 0.96145 0.0
H35 H 0.95285 0.38037 0.97049 0.0
H36 H 0.10523 0.64852 0.85335 0.0
H37 H 0.15746 0.69321 0.85737 0.0
H38 H 0.17843 0.66709 0.05701 0.0
H39 H 0.12605 0.62181 0.05161 0.0
Tb40 Tb 0.54398 1.00219 0.01936 0.0
Tb41 Tb 0.51114 0.03695 0.99442 0.0
C42 C 0.56263 0.96712 0.06437 0.0
C43 C 0.55556 0.93467 0.05719 0.0
C44 C 0.57326 0.92598 0.09863 0.0
C45 C 0.5689 0.89613 0.09004 0.0
C46 C 0.5467 0.87416 0.03957 0.0
C47 C 0.52838 0.88274 0.99915 0.0
C48 C 0.53285 0.91278 0.00773 0.0
C49 C 0.54138 1.01537 0.88639 0.0
C50 C 0.4705 0.96515 0.98773 0.0
C51 C 0.49318 0.07254 0.94942 0.0
C52 C 0.50157 0.10547 0.95515 0.0
C53 C 0.49154 0.117 0.90051 0.0
C54 C 0.4965 0.14715 0.90673 0.0
C55 C 0.51157 0.16658 0.96801 0.0
C56 C 0.52254 0.15526 0.02189 0.0
C57 C 0.51756 0.125 0.01555 0.0
C58 C 0.51359 0.02347 0.1272 0.0
C59 C 0.58457 0.07395 0.02669 0.0
O60 O 0.54309 0.97271 0.09658 0.0
O61 O 0.57261 0.98311 0.00877 0.0
O62 O 0.5201 1.00716 0.92852 0.0
O63 O 0.56404 1.01397 0.91688 0.0
O64 O 0.49522 0.96515 0.01478 0.0
O65 O 0.47242 0.99071 0.9652 0.0
O66 O 0.51143 0.06558 0.91556 0.0
O67 O 0.48359 0.05719 1.0061 0.0
O68 O 0.53495 0.03195 0.08521 0.0
O69 O 0.49081 0.02468 0.09656 0.0
O70 O 0.55988 0.07409 1.00002 0.0
O71 O 0.58268 0.04834 0.04863 0.0
H72 H 0.59087 0.94249 0.13717 0.0
H73 H 0.58301 0.89027 0.12308 0.0
H74 H 0.51119 0.86653 0.95956 0.0
H75 H 0.51899 0.91908 0.97501 0.0
H76 H 0.47926 0.10241 0.85334 0.0
H77 H 0.48828 0.15515 0.8635 0.0
H78 H 0.53407 0.16941 0.07 0.0
H79 H 0.52556 0.11662 0.05846 0.0
Tb80 Tb 0.49353 0.50296 0.01589 0.0
Tb81 Tb 0.56165 0.53653 1.00323 0.0
C82 C 0.43963 0.48484 0.05444 0.0
C83 C 0.41521 0.49333 0.0525 0.0
C84 C 0.39849 0.48985 0.11258 0.0
C85 C 0.37314 0.49445 0.11059 0.0
C86 C 0.36369 0.50254 0.04817 0.0
C87 C 0.38115 0.50701 0.98852 0.0
C88 C 0.40662 0.50246 0.99065 0.0
C89 C 0.51064 0.50465 0.88505 0.0
C90 C 0.52988 0.57644 1.00108 0.0
C91 C 0.61563 0.55466 0.9655 0.0
C92 C 0.64128 0.54801 0.97359 0.0
C93 C 0.63826 0.51958 0.9496 0.0
C94 C 0.66391 0.5153 0.95275 0.0
C95 C 0.69314 0.53936 0.9797 0.0
C96 C 0.69571 0.56738 1.00537 0.0
C97 C 0.6702 0.57165 1.00207 0.0
C98 C 0.54446 0.53471 0.13414 0.0
C99 C 0.5253 0.46296 0.01736 0.0
O100 O 0.46468 0.50238 0.09492 0.0
O101 O 0.44566 0.47585 0.99446 0.0
O102 O 0.52325 0.52637 0.93263 0.0
O103 O 0.48631 0.48189 0.9089 0.0
O104 O 0.50475 0.55164 0.02026 0.0
O105 O 0.55416 0.5748 0.98165 0.0
O106 O 0.59052 0.53471 0.92769 0.0
O107 O 0.60951 0.56609 0.02172 0.0
O108 O 0.53197 0.5131 0.08635 0.0
O109 O 0.56886 0.55744 0.11049 0.0
O110 O 0.55085 0.48805 1.00105 0.0
O111 O 0.50042 0.46404 0.034 0.0
H112 H 0.40464 0.48285 0.16091 0.0
H113 H 0.36078 0.49143 0.15804 0.0
H114 H 0.37455 0.51301 0.93936 0.0
H115 H 0.41908 0.50533 0.94341 0.0
H116 H 0.61628 0.50087 0.9272 0.0
H117 H 0.66102 0.49346 0.93212 0.0
H118 H 0.71757 0.58622 0.02789 0.0
H119 H 0.67324 0.59379 0.02087 0.0
H120 H 1.02442 0.5486 0.8129 0.0
H121 H 1.02679 0.55561 0.68567 0.0
H122 H 1.02317 0.46814 0.6491 0.0
H123 H 1.02267 0.46211 0.77605 0.0
H124 H 0.06084 0.50445 0.56653 0.0
H125 H 0.95846 0.48076 0.61771 0.0
H126 H 0.91927 0.48725 0.67902 0.0
H127 H 0.95676 0.57881 0.60687 0.0
H128 H 0.99644 0.57301 0.54587 0.0
H129 H 0.02758 0.48931 0.19408 0.0
H130 H 1.0234 0.48099 0.3206 0.0
H131 H 0.03061 0.56996 0.36043 0.0
H132 H 0.03272 0.57729 0.23389 0.0
H133 H 0.99072 0.5322 0.44092 0.0
H134 H 0.09358 0.55302 0.38703 0.0
H135 H 0.12858 0.54187 0.31992 0.0
H136 H 0.08609 0.45047 0.39502 0.0
H137 H 0.0505 0.46089 0.46154 0.0
C138 C 1.02437 0.53103 0.77766 0.0
C139 C 1.02338 0.50482 0.80467 0.0
C140 C 1.0254 0.53486 0.70464 0.0
C141 C 1.02459 0.51214 0.65674 0.0
C142 C 1.02385 0.4861 0.6842 0.0
C143 C 1.02342 0.48259 0.75707 0.0
C144 C 1.02463 0.5153 0.57831 0.0
C145 C 0.04522 0.51022 0.53922 0.0
C146 C 1.00459 0.52312 0.54173 0.0
C147 C 0.98059 0.52656 0.57781 0.0
C148 C 0.95845 0.50235 0.61528 0.0
C149 C 0.93615 0.50589 0.64993 0.0
C150 C 0.93558 0.53346 0.647 0.0
C151 C 0.95726 0.55749 0.60919 0.0
C152 C 0.97964 0.55408 0.57451 0.0
C153 C 0.02801 0.50694 0.22986 0.0
C154 C 0.03054 0.53397 0.2039 0.0
C155 C 1.02593 0.50234 0.30248 0.0
C156 C 1.02739 0.52515 0.35112 0.0
C157 C 0.0295 0.55196 0.3247 0.0
C158 C 0.03086 0.55622 0.25212 0.0
C159 C 1.02702 0.52152 0.42935 0.0
C160 C 1.00637 0.52653 0.46838 0.0
C161 C 0.0467 0.5132 0.46574 0.0
C162 C 0.06923 0.50765 0.42876 0.0
C163 C 0.09172 0.53056 0.3892 0.0
C164 C 0.11162 0.52434 0.35116 0.0
C165 C 0.10946 0.49543 0.35301 0.0
C166 C 0.08767 0.47282 0.39352 0.0
C167 C 0.06765 0.47887 0.43142 0.0
H168 H 0.1246 0.49047 0.323 0.0
H169 H 0.91831 0.53617 0.67391 0.0
H170 H 0.4694 1.0087 0.22125 0.0
H171 H 0.47424 1.00726 0.34929 0.0
H172 H 0.56954 0.03176 0.33688 0.0
H173 H 0.56456 0.0327 0.20777 0.0
H174 H 0.54165 0.98802 0.42924 0.0
H175 H 0.54938 0.08568 0.39116 0.0
H176 H 0.53312 0.12062 0.34258 0.0
H177 H 0.44909 0.07535 0.45036 0.0
H178 H 0.46466 0.03984 0.49881 0.0
H179 H 0.58554 0.03017 0.79228 0.0
H180 H 0.58066 0.03162 0.66425 0.0
H181 H 0.48535 1.00706 0.6768 0.0
H182 H 0.49037 1.00612 0.8059 0.0
H183 H 0.51323 0.05082 0.58438 0.0
H184 H 0.50545 0.95315 0.62241 0.0
H185 H 0.52168 0.91818 0.67098 0.0
H186 H 0.60574 0.96344 0.56332 0.0
H187 H 0.59021 0.99898 0.51487 0.0
C188 C 0.49139 1.0137 0.24569 0.0
C189 C 0.51668 0.02107 0.20444 0.0
C190 C 0.49418 1.01302 0.3191 0.0
C191 C 0.52244 0.02001 0.35333 0.0
C192 C 0.54754 0.02647 0.31195 0.0
C193 C 0.54471 0.02705 0.23818 0.0
C194 C 0.52566 0.02069 0.43214 0.0
C195 C 0.53586 1.00211 0.46309 0.0
C196 C 0.51739 0.03846 0.47677 0.0
C197 C 0.50807 0.05992 0.44809 0.0
C198 C 0.52734 0.08303 0.4041 0.0
C199 C 0.51826 0.10296 0.37665 0.0
C200 C 0.49006 0.10016 0.39324 0.0
C201 C 0.47091 0.07747 0.43749 0.0
C202 C 0.47986 0.05746 0.46501 0.0
C203 C 0.56354 0.02516 0.76787 0.0
C204 C 0.53826 1.01777 0.80916 0.0
C205 C 0.56073 0.02584 0.69447 0.0
C206 C 0.53246 1.01884 0.66028 0.0
C207 C 0.50737 1.01237 0.7017 0.0
C208 C 0.51022 1.01179 0.77546 0.0
C209 C 0.52922 1.01815 0.58147 0.0
C210 C 0.51901 0.03672 0.55053 0.0
C211 C 0.53748 1.00038 0.53685 0.0
C212 C 0.54679 0.97891 0.56554 0.0
C213 C 0.5275 0.95579 0.6095 0.0
C214 C 0.53656 0.93584 0.63695 0.0
C215 C 0.56476 0.93864 0.62038 0.0
C216 C 0.58392 0.96133 0.57617 0.0
C217 C 0.57499 0.98136 0.54864 0.0
H218 H 0.57173 0.92318 0.6417 0.0
H219 H 0.48307 0.11561 0.37192 0.0
H220 H 0.55254 0.55588 0.8195 0.0
H221 H 0.55863 0.56108 0.69202 0.0
H222 H 0.48707 0.46565 0.65119 0.0
H223 H 0.48121 0.46032 0.77803 0.0
H224 H 0.53316 0.47902 0.56746 0.0
H225 H 0.47306 0.52551 0.63215 0.0
H226 H 0.46163 0.56153 0.69868 0.0
H227 H 0.54165 0.63894 0.62244 0.0
H228 H 0.55393 0.60337 0.55665 0.0
H229 H 0.50256 0.48338 0.19949 0.0
H230 H 0.49639 0.47812 0.32695 0.0
H231 H 0.56789 0.57356 0.36805 0.0
H232 H 0.57379 0.57896 0.24126 0.0
H233 H 0.52177 0.56014 0.45155 0.0
H234 H 0.5824 0.51402 0.38857 0.0
H235 H 0.59386 0.47825 0.32102 0.0
H236 H 0.51293 0.40049 0.39315 0.0
H237 H 0.50073 0.43583 0.46037 0.0
C238 C 0.5383 0.536 0.78325 0.0
C239 C 0.51625 0.50775 0.80874 0.0
C240 C 0.54167 0.53901 0.71037 0.0
C241 C 0.52299 0.51387 0.6616 0.0
C242 C 0.5017 0.48542 0.68742 0.0
C243 C 0.49831 0.48243 0.76005 0.0
C244 C 0.52506 0.51714 0.58372 0.0
C245 C 0.53031 0.49656 0.54211 0.0
C246 C 0.52191 0.54034 0.55034 0.0
C247 C 0.51461 0.56176 0.5901 0.0
C248 C 0.48839 0.55021 0.63014 0.0
C249 C 0.48174 0.57055 0.66768 0.0
C250 C 0.50095 0.6025 0.66499 0.0
C251 C 0.52684 0.61418 0.62467 0.0
C252 C 0.53366 0.59395 0.58728 0.0
C253 C 0.51676 0.50325 0.23579 0.0
C254 C 0.5388 0.53152 0.21041 0.0
C255 C 0.51336 0.50021 0.30867 0.0
C256 C 0.53199 0.52534 0.3575 0.0
C257 C 0.55329 0.55381 0.33177 0.0
C258 C 0.5567 0.55683 0.25917 0.0
C259 C 0.52988 0.52204 0.43536 0.0
C260 C 0.52462 0.54262 0.47695 0.0
C261 C 0.53306 0.49888 0.46874 0.0
C262 C 0.54048 0.47758 0.4289 0.0
C263 C 0.56692 0.4893 0.38961 0.0
C264 C 0.57357 0.4691 0.35144 0.0
C265 C 0.55409 0.43712 0.35262 0.0
C266 C 0.52797 0.42527 0.39219 0.0
C267 C 0.52118 0.44537 0.43037 0.0
H268 H 0.55927 0.42152 0.32301 0.0
H269 H 0.49573 0.61821 0.694 0.0
H270 H 0.09542 0.47858 0.08922 0.0
H271 H 0.144 0.47801 0.09585 0.0
H272 H 0.18523 0.55635 0.96711 0.0
H273 H 0.13683 0.55717 0.96041 0.0
H274 H 0.19783 0.5121 0.92175 0.0
H275 H 0.20466 0.56562 0.1404 0.0
H276 H 0.19025 0.57604 0.25686 0.0
H277 H 0.18763 0.495 0.33179 0.0
H278 H 0.2015 0.48375 0.21532 0.0
H279 H 0.35351 0.54446 0.97932 0.0
H280 H 0.30664 0.54818 0.97391 0.0
H281 H 0.26247 0.47076 0.10449 0.0
H282 H 0.30894 0.46659 0.1094 0.0
H283 H 0.25232 0.51641 0.14856 0.0
H284 H 0.24474 0.46292 0.92578 0.0
H285 H 0.2626 0.45561 0.81099 0.0
H286 H 0.26871 0.53945 0.74477 0.0
H287 H 0.25128 0.54748 0.8596 0.0
C288 C 0.11483 0.49576 0.06244 0.0
C289 C 0.11211 0.51792 0.02426 0.0
C290 C 0.14269 0.49549 0.06655 0.0
C291 C 0.16844 0.51725 0.0323 0.0
C292 C 0.16575 0.53931 0.99398 0.0
C293 C 0.13802 0.5398 0.99041 0.0
C294 C 0.19792 0.51656 0.03507 0.0
C295 C 0.20994 0.51346 0.9714 0.0
C296 C 0.21359 0.5178 0.09973 0.0
C297 C 0.20384 0.52367 0.16883 0.0
C298 C 0.2006 0.54976 0.18136 0.0
C299 C 0.19267 0.5559 0.24748 0.0
C300 C 0.18818 0.53627 0.30174 0.0
C301 C 0.19125 0.51025 0.28977 0.0
C302 C 0.19911 0.50396 0.22368 0.0
C303 C 0.33376 0.52801 0.00638 0.0
C304 C 0.33522 0.50525 0.04494 0.0
C305 C 0.30692 0.53021 1.00332 0.0
C306 C 0.28081 0.50961 0.03838 0.0
C307 C 0.28227 0.48703 0.07721 0.0
C308 C 0.30903 0.48478 0.08022 0.0
C309 C 0.25203 0.51163 0.03535 0.0
C310 C 0.24015 0.515 0.09895 0.0
C311 C 0.2366 0.51079 0.97066 0.0
C312 C 0.24702 0.50597 0.90156 0.0
C313 C 0.25013 0.47993 0.88696 0.0
C314 C 0.26013 0.47563 0.82185 0.0
C315 C 0.26687 0.4971 0.77069 0.0
C316 C 0.26353 0.52287 0.78448 0.0
C317 C 0.25357 0.52729 0.84955 0.0
H318 H 0.2746 0.49373 0.72031 0.0
H319 H 0.18226 0.54119 0.35305 0.0
H320 H 0.59519 0.1332 0.026 0.0
H321 H 0.64498 0.18131 0.03165 0.0
H322 H 0.69206 0.12916 0.04333 0.0
H323 H 0.64229 0.08108 0.04103 0.0
H324 H 0.72154 0.17754 0.1274 0.0
H325 H 0.68239 0.16167 0.88556 0.0
H326 H 0.64409 0.15256 0.78882 0.0
H327 H 0.64766 0.23762 0.85263 0.0
H328 H 0.68571 0.24705 0.95031 0.0
H329 H 0.86838 0.29395 0.03184 0.0
H330 H 0.81758 0.24741 0.03083 0.0
H331 H 0.77486 0.30365 0.04288 0.0
H332 H 0.82568 0.35046 0.04142 0.0
H333 H 0.74301 0.25441 0.94859 0.0
H334 H 0.7844 0.27032 0.18889 0.0
H335 H 0.82347 0.27867 0.28294 0.0
H336 H 0.81663 0.19223 0.21749 0.0
H337 H 0.77781 0.18356 0.12243 0.0
C338 C 0.61616 0.13198 0.03006 0.0
C339 C 0.61476 0.10327 0.0328 0.0
C340 C 0.64468 0.15956 0.0328 0.0
C341 C 0.67249 0.15902 0.03633 0.0
C342 C 0.67106 0.13034 0.04043 0.0
C343 C 0.64255 0.1028 0.03905 0.0
C344 C 0.70302 0.18821 0.03564 0.0
C345 C 0.72627 0.1941 0.08765 0.0
C346 C 0.70926 0.21035 0.98482 0.0
C347 C 0.68668 0.20492 0.92561 0.0
C348 C 0.67487 0.17834 0.87917 0.0
C349 C 0.65323 0.17313 0.82416 0.0
C350 C 0.64339 0.19446 0.81469 0.0
C351 C 0.65527 0.22111 0.86007 0.0
C352 C 0.6769 0.22641 0.91522 0.0
C353 C 0.84821 0.29651 0.03338 0.0
C354 C 0.85126 0.32609 0.03671 0.0
C355 C 0.81913 0.26981 0.0336 0.0
C356 C 0.79234 0.27195 0.03779 0.0
C357 C 0.79518 0.30137 0.03998 0.0
C358 C 0.82431 0.32815 0.03972 0.0
C359 C 0.76143 0.2435 0.03994 0.0
C360 C 0.73816 0.23781 0.98829 0.0
C361 C 0.75527 0.22138 0.0906 0.0
C362 C 0.77838 0.22642 0.14819 0.0
C363 C 0.79137 0.25319 0.19428 0.0
C364 C 0.81345 0.25797 0.2478 0.0
C365 C 0.82257 0.23603 0.25609 0.0
C366 C 0.80956 0.20921 0.21098 0.0
C367 C 0.78749 0.20434 0.15733 0.0
H368 H 0.83968 0.23977 0.29753 0.0
H369 H 0.62662 0.19038 0.77211 0.0
H370 H 0.49328 0.81751 0.01684 0.0
H371 H 0.48833 0.76627 1.00316 0.0
H372 H 0.58746 0.80845 0.02544 0.0
H373 H 0.5926 0.85961 0.03723 0.0
H374 H 0.56356 0.76309 0.92131 0.0
H375 H 0.54176 0.7743 0.16347 0.0
H376 H 0.51392 0.78354 0.25729 0.0
H377 H 0.42851 0.70535 0.17295 0.0
H378 H 0.4558 0.69588 0.07807 0.0
H379 H 0.58013 0.63463 0.99736 0.0
H380 H 0.58109 0.68392 0.99887 0.0
H381 H 0.48164 0.63548 1.00039 0.0
H382 H 0.48071 0.58618 1.00202 0.0
H383 H 0.50291 0.68303 0.08686 0.0
H384 H 0.52391 0.6693 0.84881 0.0
H385 H 0.55078 0.65944 0.75382 0.0
H386 H 0.63564 0.74148 0.82484 0.0
H387 H 0.60945 0.75152 0.92136 0.0
C388 C 0.51404 0.81591 0.01811 0.0
C389 C 0.54333 0.84279 0.02883 0.0
C390 C 0.51117 0.78654 0.01086 0.0
C391 C 0.53751 0.78335 0.01418 0.0
C392 C 0.56676 0.81019 0.02299 0.0
C393 C 0.56964 0.83948 0.0304 0.0
C394 C 0.53483 0.75219 0.00964 0.0
C395 C 0.55053 0.74567 0.95792 0.0
C396 C 0.51712 0.72903 0.05599 0.0
C397 C 0.50076 0.73458 0.11329 0.0
C398 C 0.51701 0.75921 0.16466 0.0
C399 C 0.50133 0.76447 0.21807 0.0
C400 C 0.46945 0.7451 0.22097 0.0
C401 C 0.45319 0.72037 0.17058 0.0
C402 C 0.46875 0.71503 0.11702 0.0
C403 C 0.55844 0.63443 0.99762 0.0
C404 C 0.53034 0.60638 0.99925 0.0
C405 C 0.55898 0.66271 0.99812 0.0
C406 C 0.53138 0.66365 0.99842 0.0
C407 C 0.50329 0.63558 1.00005 0.0
C408 C 0.50278 0.60732 1.00077 0.0
C409 C 0.53187 0.69385 0.99875 0.0
C410 C 0.51578 0.70025 0.04974 0.0
C411 C 0.549 0.7168 0.95123 0.0
C412 C 0.56475 0.71102 0.89272 0.0
C413 C 0.54834 0.68514 0.84448 0.0
C414 C 0.56345 0.67953 0.79031 0.0
C415 C 0.59488 0.6998 0.78326 0.0
C416 C 0.61129 0.72578 0.83037 0.0
C417 C 0.59632 0.73145 0.88484 0.0
H418 H 0.60652 0.69539 0.74124 0.0
H419 H 0.45736 0.74921 0.26234 0.0
H420 H 0.96389 0.56924 0.95577 0.0
H421 H 0.9156 0.57026 0.95324 0.0
H422 H 0.86726 0.47675 0.01841 0.0
H423 H 0.91542 0.47544 0.0208 0.0
H424 H 0.83376 0.4851 0.91423 0.0
H425 H 0.88615 0.53638 0.13619 0.0
H426 H 0.92978 0.57446 0.21602 0.0
H427 H 0.92888 0.64882 0.11279 0.0
H428 H 0.88552 0.61116 0.03158 0.0
H429 H 0.69782 0.48814 0.00818 0.0
H430 H 0.74415 0.48339 0.00979 0.0
H431 H 0.79816 0.57777 0.95267 0.0
H432 H 0.75213 0.58265 0.95047 0.0
H433 H 0.82804 0.56723 0.05631 0.0
H434 H 0.77623 0.51563 0.83235 0.0
H435 H 0.7321 0.47735 0.75393 0.0
H436 H 0.73145 0.40334 0.86223 0.0
H437 H 0.77534 0.44123 0.94197 0.0
C438 C 0.943 0.54882 0.96936 0.0
C439 C 0.94369 0.52231 0.98877 0.0
C440 C 0.91537 0.54948 0.96813 0.0
C441 C 0.88774 0.52369 0.98636 0.0
C442 C 0.88821 0.49696 1.00421 0.0
C443 C 0.91587 0.49631 1.00578 0.0
C444 C 0.85856 0.52485 0.98784 0.0
C445 C 0.83239 0.50282 0.94603 0.0
C446 C 0.85676 0.54821 0.02845 0.0
C447 C 0.88278 0.57094 0.07733 0.0
C448 C 0.89542 0.56085 0.13012 0.0
C449 C 0.92008 0.58236 0.17569 0.0
C450 C 0.93215 0.61404 0.16936 0.0
C451 C 0.91954 0.62427 0.11755 0.0
C452 C 0.8949 0.60285 0.07177 0.0
C453 C 0.71949 0.50781 0.99531 0.0
C454 C 0.72112 0.53585 0.97958 0.0
C455 C 0.74603 0.50507 0.99635 0.0
C456 C 0.77477 0.53019 0.98103 0.0
C457 C 0.77639 0.5581 0.96515 0.0
C458 C 0.74996 0.56087 0.96417 0.0
C459 C 0.80329 0.5277 0.98203 0.0
C460 C 0.82935 0.54948 0.02451 0.0
C461 C 0.80494 0.50409 0.94209 0.0
C462 C 0.77886 0.48127 0.89357 0.0
C463 C 0.76654 0.4912 0.83974 0.0
C464 C 0.74159 0.46957 0.79501 0.0
C465 C 0.72891 0.43793 0.80323 0.0
C466 C 0.74126 0.42785 0.85601 0.0
C467 C 0.76619 0.44939 0.90094 0.0
H468 H 0.70957 0.42123 0.7686 0.0
H469 H 0.95123 0.63066 0.20471 0.0
H470 H 0.22815 0.69078 1.00273 0.0
H471 H 0.27911 0.73772 0.0078 0.0
H472 H 0.23781 0.789 0.92799 0.0
H473 H 0.18694 0.74235 0.92309 0.0
H474 H 0.28851 0.8028 0.86151 0.0
H475 H 0.26202 0.79614 0.10354 0.0
H476 H 0.24611 0.77132 0.21615 0.0
H477 H 0.32657 0.76181 0.23062 0.0
H478 H 0.34276 0.78621 0.11754 0.0
H479 H 0.41389 0.95584 0.94073 0.0
H480 H 0.36409 0.90769 0.93513 0.0
H481 H 0.40866 0.85947 0.01518 0.0
H482 H 0.45847 0.90759 0.02201 0.0
H483 H 0.35705 0.84331 0.08063 0.0
H484 H 0.38411 0.85114 0.83946 0.0
H485 H 0.40011 0.8765 0.72749 0.0
H486 H 0.31856 0.88409 0.71165 0.0
H487 H 0.30227 0.85915 0.82409 0.0
C488 C 0.22987 0.7121 0.98689 0.0
C489 C 0.20335 0.71265 0.96228 0.0
C490 C 0.25907 0.73897 0.98973 0.0
C491 C 0.26239 0.76706 0.96868 0.0
C492 C 0.23596 0.76764 0.94417 0.0
C493 C 0.20684 0.74085 0.94119 0.0
C494 C 0.29333 0.79584 0.97139 0.0
C495 C 0.30332 0.81183 0.90969 0.0
C496 C 0.3131 0.80736 0.03371 0.0
C497 C 0.30342 0.79269 0.1017 0.0
C498 C 0.27619 0.78852 0.13044 0.0
C499 C 0.26714 0.77457 0.19441 0.0
C500 C 0.28527 0.76491 0.23041 0.0
C501 C 0.31253 0.76925 0.20261 0.0
C502 C 0.32166 0.78316 0.13861 0.0
C503 C 0.41318 0.93499 0.95681 0.0
C504 C 0.4403 0.93568 0.98162 0.0
C505 C 0.38464 0.90739 0.95338 0.0
C506 C 0.38256 0.87976 0.97406 0.0
C507 C 0.40959 0.88041 0.99891 0.0
C508 C 0.43813 0.908 1.00252 0.0
C509 C 0.35217 0.85033 0.97083 0.0
C510 C 0.34229 0.83422 0.0324 0.0
C511 C 0.33248 0.8387 0.9084 0.0
C512 C 0.34212 0.85353 0.84054 0.0
C513 C 0.3697 0.85842 0.81236 0.0
C514 C 0.3788 0.87269 0.74877 0.0
C515 C 0.3604 0.88197 0.71256 0.0
C516 C 0.33281 0.87692 0.73979 0.0
C517 C 0.32361 0.86269 0.80342 0.0
H518 H 0.36749 0.89302 0.66334 0.0
H519 H 0.27824 0.75413 0.27995 0.0
H520 H 0.57357 0.45399 0.05111 0.0
H521 H 0.57325 0.40497 0.05133 0.0
H522 H 0.47656 0.35587 0.98149 0.0
H523 H 0.47642 0.40471 0.98666 0.0
H524 H 0.48366 0.32325 0.06721 0.0
H525 H 0.54305 0.37525 0.86945 0.0
H526 H 0.5856 0.4188 0.81371 0.0
H527 H 0.65203 0.41066 0.94589 0.0
H528 H 0.60986 0.36728 1.00301 0.0
H529 H 0.46915 0.18334 0.92832 0.0
H530 H 0.47389 0.23423 0.94118 0.0
H531 H 0.56517 0.27205 0.04149 0.0
H532 H 0.56099 0.22115 0.02672 0.0
H533 H 0.56359 0.3109 0.94741 0.0
H534 H 0.50347 0.25657 0.13904 0.0
H535 H 0.46059 0.21319 0.19423 0.0
H536 H 0.39492 0.22564 0.07011 0.0
H537 H 0.4374 0.26885 0.01346 0.0
C538 C 0.55223 0.43267 0.03616 0.0
C539 C 0.52502 0.43319 0.01869 0.0
C540 C 0.5521 0.40459 0.03558 0.0
C541 C 0.52507 0.37643 0.01449 0.0
C542 C 0.4978 0.37705 0.99785 0.0
C543 C 0.49771 0.40503 1.00066 0.0
C544 C 0.52492 0.34633 0.00997 0.0
C545 C 0.50096 0.3206 0.04001 0.0
C546 C 0.54795 0.34268 0.97656 0.0
C547 C 0.57329 0.3682 0.9409 0.0
C548 C 0.56673 0.38281 0.88675 0.0
C549 C 0.59078 0.40747 0.85495 0.0
C550 C 0.62149 0.41754 0.87638 0.0
C551 C 0.62823 0.40285 0.92941 0.0
C552 C 0.60427 0.37821 0.96145 0.0
C553 C 0.49044 0.20247 0.95242 0.0
C554 C 0.51471 0.19796 0.97633 0.0
C555 C 0.49298 0.2316 0.96045 0.0
C556 C 0.51974 0.25705 0.99315 0.0
C557 C 0.54422 0.25281 0.01634 0.0
C558 C 0.54169 0.22359 0.00837 0.0
C559 C 0.52195 0.28791 1.00306 0.0
C560 C 0.54633 0.31371 0.9744 0.0
C561 C 0.4992 0.29162 0.03718 0.0
C562 C 0.47362 0.26579 0.07161 0.0
C563 C 0.47988 0.24993 0.12318 0.0
C564 C 0.45565 0.22539 0.15477 0.0
C565 C 0.42505 0.21662 0.13559 0.0
C566 C 0.41863 0.23244 0.08489 0.0
C567 C 0.44277 0.25698 0.05308 0.0
H568 H 0.40632 0.19761 0.16009 0.0
H569 H 0.64007 0.43668 0.85184 0.0
loop_
_geom_bond_atom_site_label_1
_geom_bond_atom_site_label_2
_geom_bond_distance
_geom_bond_site_symmetry_2
_ccdc_geom_bond_type
Tb0 C2 2.809 . S
Tb0 O20 2.484 1_556 S
Tb0 O21 2.440 . S
Tb0 O22 2.658 1_655 S
Tb0 O23 2.409 . S
Tb0 O24 2.378 . S
Tb0 O28 2.325 1_556 S
Tb0 O31 2.341 1_655 S
Tb1 C11 2.809 . S
Tb1 O22 2.325 1_554 S
Tb1 O25 2.341 1_455 S
Tb1 O26 2.484 1_554 S
Tb1 O27 2.440 . S
Tb1 O28 2.658 1_455 S
Tb1 O29 2.409 . S
Tb1 O30 2.378 . S
C2 Tb0 2.809 . S
C2 C3 1.514 1_556 S
C2 O20 1.248 1_556 S
C2 O21 1.266 . S
C3 C2 1.514 1_554 S
C3 C4 1.359 . S
C3 C8 1.348 1_554 S
C4 C3 1.359 . S
C4 C5 1.380 . S
C4 H32 0.929 . S
C5 C4 1.380 . S
C5 C6 1.347 . S
C5 H33 0.931 . S
C6 C5 1.347 . S
C6 C7 1.369 1_554 S
C7 C6 1.369 1_556 S
C7 C8 1.408 . S
C7 H34 0.930 . S
C8 C3 1.348 1_556 S
C8 C7 1.408 . S
C8 H35 0.930 . S
C9 O22 1.281 1_655 S
C9 O23 1.254 . S
C10 O24 1.236 . S
C10 O25 1.266 1_556 S
C11 Tb1 2.809 . S
C11 C12 1.512 1_554 S
C11 O26 1.248 1_554 S
C11 O27 1.266 . S
C12 C11 1.512 1_556 S
C12 C13 1.373 . S
C12 C17 1.336 1_556 S
C13 C12 1.373 . S
C13 C14 1.380 . S
C13 H36 0.929 . S
C14 C13 1.380 . S
C14 C15 1.347 . S
C14 H37 0.931 . S
C15 C14 1.347 . S
C15 C16 1.369 1_556 S
C16 C15 1.369 1_554 S
C16 C17 1.408 . S
C16 H38 0.930 . S
C17 C12 1.336 1_554 S
C17 C16 1.408 . S
C17 H39 0.930 . S
C18 O28 1.281 1_455 S
C18 O29 1.254 . S
C19 O30 1.236 . S
C19 O31 1.266 1_554 S
O20 Tb0 2.484 1_554 S
O20 C2 1.248 1_554 S
O21 Tb0 2.440 . S
O21 C2 1.266 . S
O22 Tb0 2.658 1_455 S
O22 Tb1 2.325 1_556 S
O22 C9 1.281 1_455 S
O23 Tb0 2.409 . S
O23 C9 1.254 . S
O24 Tb0 2.378 . S
O24 C10 1.236 . S
O25 Tb1 2.341 1_655 S
O25 C10 1.266 1_554 S
O26 Tb1 2.484 1_556 S
O26 C11 1.248 1_556 S
O27 Tb1 2.440 . S
O27 C11 1.266 . S
O28 Tb0 2.325 1_554 S
O28 Tb1 2.658 1_655 S
O28 C18 1.281 1_655 S
O29 Tb1 2.409 . S
O29 C18 1.254 . S
O30 Tb1 2.378 . S
O30 C19 1.236 . S
O31 Tb0 2.341 1_455 S
O31 C19 1.266 1_556 S
H32 C4 0.929 . S
H33 C5 0.931 . S
H34 C7 0.930 . S
H35 C8 0.930 . S
H36 C13 0.929 . S
H37 C14 0.931 . S
H38 C16 0.930 . S
H39 C17 0.930 . S
Tb40 C42 2.809 1_556 S
Tb40 O60 2.484 1_556 S
Tb40 O61 2.440 . S
Tb40 O62 2.658 1_565 S
Tb40 O63 2.409 . S
Tb40 O64 2.378 . S
Tb40 O68 2.325 1_556 S
Tb40 O71 2.341 1_566 S
Tb41 C51 2.809 1_554 S
Tb41 O62 2.325 1_554 S
Tb41 O65 2.341 1_544 S
Tb41 O66 2.484 1_554 S
Tb41 O67 2.440 . S
Tb41 O68 2.658 1_545 S
Tb41 O69 2.409 . S
Tb41 O70 2.378 . S
C42 Tb40 2.809 1_554 S
C42 C43 1.514 . S
C42 O60 1.248 . S
C42 O61 1.266 1_554 S
C43 C42 1.514 . S
C43 C44 1.359 . S
C43 C48 1.348 1_554 S
C44 C43 1.359 . S
C44 C45 1.380 . S
C44 H72 0.929 . S
C45 C44 1.380 . S
C45 C46 1.347 . S
C45 H73 0.931 . S
C46 C45 1.347 . S
C46 C47 1.369 1_554 S
C47 C46 1.369 1_556 S
C47 C48 1.408 . S
C47 H74 0.930 . S
C48 C43 1.348 1_556 S
C48 C47 1.408 . S
C48 H75 0.930 . S
C49 O62 1.281 1_565 S
C49 O63 1.254 . S
C50 O64 1.236 . S
C50 O65 1.266 . S
C51 Tb41 2.809 1_556 S
C51 C52 1.514 . S
C51 O66 1.248 . S
C51 O67 1.266 1_556 S
C52 C51 1.514 . S
C52 C53 1.359 . S
C52 C57 1.348 1_556 S
C53 C52 1.359 . S
C53 C54 1.380 . S
C53 H76 0.929 . S
C54 C53 1.380 . S
C54 C55 1.347 . S
C54 H77 0.931 . S
C55 C54 1.347 . S
C55 C56 1.369 1_556 S
C56 C55 1.369 1_554 S
C56 C57 1.408 . S
C56 H78 0.930 . S
C57 C52 1.348 1_554 S
C57 C56 1.408 . S
C57 H79 0.930 . S
C58 O68 1.281 1_545 S
C58 O69 1.254 . S
C59 O70 1.236 . S
C59 O71 1.266 . S
O60 Tb40 2.484 1_554 S
O60 C42 1.248 . S
O61 Tb40 2.440 . S
O61 C42 1.266 1_556 S
O62 Tb40 2.658 1_545 S
O62 Tb41 2.325 1_556 S
O62 C49 1.281 1_545 S
O63 Tb40 2.409 . S
O63 C49 1.254 . S
O64 Tb40 2.378 . S
O64 C50 1.236 . S
O65 Tb41 2.341 1_566 S
O65 C50 1.266 . S
O66 Tb41 2.484 1_556 S
O66 C51 1.248 . S
O67 Tb41 2.440 . S
O67 C51 1.266 1_554 S
O68 Tb40 2.325 1_554 S
O68 Tb41 2.658 1_565 S
O68 C58 1.281 1_565 S
O69 Tb41 2.409 . S
O69 C58 1.254 . S
O70 Tb41 2.378 . S
O70 C59 1.236 . S
O71 Tb40 2.341 1_544 S
O71 C59 1.266 . S
H72 C44 0.929 . S
H73 C45 0.931 . S
H74 C47 0.930 . S
H75 C48 0.930 . S
H76 C53 0.929 . S
H77 C54 0.931 . S
H78 C56 0.930 . S
H79 C57 0.930 . S
Tb80 C82 2.809 . S
Tb80 O100 2.484 1_556 S
Tb80 O101 2.440 . S
Tb80 O102 2.658 . S
Tb80 O103 2.409 . S
Tb80 O104 2.378 . S
Tb80 O108 2.325 1_556 S
Tb80 O111 2.341 . S
Tb81 C91 2.809 . S
Tb81 O102 2.325 1_554 S
Tb81 O105 2.341 . S
Tb81 O106 2.484 1_554 S
Tb81 O107 2.440 . S
Tb81 O108 2.658 . S
Tb81 O109 2.409 . S
Tb81 O110 2.378 . S
C82 Tb80 2.809 . S
C82 C83 1.514 1_556 S
C82 O100 1.248 1_556 S
C82 O101 1.266 . S
C83 C82 1.514 1_554 S
C83 C84 1.359 . S
C83 C88 1.348 1_554 S
C84 C83 1.359 . S
C84 C85 1.380 . S
C84 H112 0.929 . S
C85 C84 1.380 . S
C85 C86 1.347 . S
C85 H113 0.931 . S
C86 C85 1.347 . S
C86 C87 1.369 1_554 S
C87 C86 1.369 1_556 S
C87 C88 1.408 . S
C87 H114 0.930 . S
C88 C83 1.348 1_556 S
C88 C87 1.408 . S
C88 H115 0.930 . S
C89 O102 1.281 . S
C89 O103 1.254 . S
C90 O104 1.236 . S
C90 O105 1.266 1_556 S
C91 Tb81 2.809 . S
C91 C92 1.514 1_554 S
C91 O106 1.248 1_554 S
C91 O107 1.266 . S
C92 C91 1.514 1_556 S
C92 C93 1.359 . S
C92 C97 1.348 1_556 S
C93 C92 1.359 . S
C93 C94 1.380 . S
C93 H116 0.929 . S
C94 C93 1.380 . S
C94 C95 1.347 . S
C94 H117 0.931 . S
C95 C94 1.347 . S
C95 C96 1.369 1_556 S
C96 C95 1.369 1_554 S
C96 C97 1.408 . S
C96 H118 0.930 . S
C97 C92 1.348 1_554 S
C97 C96 1.408 . S
C97 H119 0.930 . S
C98 O108 1.281 . S
C98 O109 1.254 . S
C99 O110 1.236 . S
C99 O111 1.266 1_554 S
O100 Tb80 2.484 1_554 S
O100 C82 1.248 1_554 S
O101 Tb80 2.440 . S
O101 C82 1.266 . S
O102 Tb80 2.658 . S
O102 Tb81 2.325 1_556 S
O102 C89 1.281 . S
O103 Tb80 2.409 . S
O103 C89 1.254 . S
O104 Tb80 2.378 . S
O104 C90 1.236 . S
O105 Tb81 2.341 . S
O105 C90 1.266 1_554 S
O106 Tb81 2.484 1_556 S
O106 C91 1.248 1_556 S
O107 Tb81 2.440 . S
O107 C91 1.266 . S
O108 Tb80 2.325 1_554 S
O108 Tb81 2.658 . S
O108 C98 1.281 . S
O109 Tb81 2.409 . S
O109 C98 1.254 . S
O110 Tb81 2.378 . S
O110 C99 1.236 . S
O111 Tb80 2.341 . S
O111 C99 1.266 1_556 S
H112 C84 0.929 . S
H113 C85 0.931 . S
H114 C87 0.930 . S
H115 C88 0.930 . S
H116 C93 0.929 . S
H117 C94 0.931 . S
H118 C96 0.930 . S
H119 C97 0.930 . S
H120 C138 0.951 . S
H121 C140 0.951 . S
H122 C142 0.950 . S
H123 C143 0.950 . S
H124 C145 0.950 . S
H125 C148 0.950 . S
H126 C149 0.950 . S
H127 C151 0.950 . S
H128 C152 0.950 . S
H129 C153 0.951 . S
H130 C155 0.951 . S
H131 C157 0.950 . S
H132 C158 0.950 . S
H133 C160 0.950 . S
H134 C163 0.950 . S
H135 C164 0.950 . S
H136 C166 0.950 . S
H137 C167 0.950 . S
C138 H120 0.951 . S
C138 C139 1.365 . S
C138 C140 1.388 . S
C139 C138 1.365 . S
C139 C143 1.385 1_455 S
C140 H121 0.951 . S
C140 C138 1.388 . S
C140 C141 1.352 1_455 S
C141 C140 1.352 1_655 S
C141 C142 1.428 . S
C141 C144 1.498 . S
C142 H122 0.950 . S
C142 C141 1.428 . S
C142 C143 1.374 . S
C143 H123 0.950 . S
C143 C139 1.385 1_655 S
C143 C142 1.374 . S
C144 C141 1.498 . S
C144 C145 1.373 . S
C144 C146 1.389 1_655 S
C145 H124 0.950 . S
C145 C144 1.373 . S
C145 C161 1.377 . S
C146 C144 1.389 1_455 S
C146 C147 1.524 . S
C146 C160 1.377 . S
C147 C146 1.524 . S
C147 C148 1.397 1_455 S
C147 C152 1.363 . S
C148 H125 0.950 . S
C148 C147 1.397 1_655 S
C148 C149 1.334 . S
C149 H126 0.950 . S
C149 C148 1.334 . S
C149 C150 1.287 1_655 S
C150 C149 1.287 1_455 S
C150 C151 1.524 . S
C150 H169 0.913 . S
C151 H127 0.950 . S
C151 C150 1.524 . S
C151 C152 1.415 . S
C152 H128 0.950 . S
C152 C147 1.363 . S
C152 C151 1.415 . S
C153 H129 0.951 . S
C153 C154 1.365 1_655 S
C153 C155 1.388 . S
C154 C153 1.365 1_455 S
C154 C158 1.385 . S
C155 H130 0.951 . S
C155 C153 1.388 . S
C155 C156 1.347 1_655 S
C156 C155 1.347 1_455 S
C156 C157 1.433 . S
C156 C159 1.498 . S
C157 H131 0.950 . S
C157 C156 1.433 . S
C157 C158 1.374 . S
C158 H132 0.950 . S
C158 C154 1.385 . S
C158 C157 1.374 . S
C159 C156 1.498 . S
C159 C160 1.373 . S
C159 C161 1.389 1_455 S
C160 H133 0.950 . S
C160 C146 1.377 . S
C160 C159 1.373 . S
C161 C145 1.377 . S
C161 C159 1.389 1_655 S
C161 C162 1.524 . S
C162 C161 1.524 . S
C162 C163 1.397 1_655 S
C162 C167 1.363 . S
C163 H134 0.950 . S
C163 C162 1.397 1_455 S
C163 C164 1.334 . S
C164 H135 0.950 . S
C164 C163 1.334 . S
C164 C165 1.287 1_455 S
C165 C164 1.287 1_655 S
C165 C166 1.524 . S
C165 H168 0.999 . S
C166 H136 0.950 . S
C166 C165 1.524 . S
C166 C167 1.415 . S
C167 H137 0.950 . S
C167 C162 1.363 . S
C167 C166 1.415 . S
H168 C165 0.999 . S
H169 C150 0.913 . S
H170 C188 0.951 . S
H171 C190 0.951 . S
H172 C192 0.950 . S
H173 C193 0.950 . S
H174 C195 0.950 . S
H175 C198 0.950 . S
H176 C199 0.950 . S
H177 C201 0.950 . S
H178 C202 0.950 . S
H179 C203 0.951 . S
H180 C205 0.951 . S
H181 C207 0.950 . S
H182 C208 0.950 . S
H183 C210 0.950 . S
H184 C213 0.950 . S
H185 C214 0.950 . S
H186 C216 0.950 . S
H187 C217 0.950 . S
C188 H170 0.951 . S
C188 C189 1.368 1_565 S
C188 C190 1.388 . S
C189 C188 1.368 1_545 S
C189 C193 1.382 . S
C190 H171 0.951 . S
C190 C188 1.388 . S
C190 C191 1.366 1_565 S
C191 C190 1.366 1_545 S
C191 C192 1.414 . S
C191 C194 1.499 . S
C192 H172 0.950 . S
C192 C191 1.414 . S
C192 C193 1.374 . S
C193 H173 0.950 . S
C193 C189 1.382 . S
C193 C192 1.374 . S
C194 C191 1.499 . S
C194 C195 1.373 1_545 S
C194 C196 1.389 . S
C195 H174 0.950 . S
C195 C194 1.373 1_565 S
C195 C211 1.377 . S
C196 C194 1.389 . S
C196 C197 1.524 . S
C196 C210 1.377 . S
C197 C196 1.524 . S
C197 C198 1.397 . S
C197 C202 1.363 . S
C198 H175 0.950 . S
C198 C197 1.397 . S
C198 C199 1.334 . S
C199 H176 0.950 . S
C199 C198 1.334 . S
C199 C200 1.287 . S
C200 C199 1.287 . S
C200 C201 1.524 . S
C200 H219 0.913 . S
C201 H177 0.950 . S
C201 C200 1.524 . S
C201 C202 1.415 . S
C202 H178 0.950 . S
C202 C197 1.363 . S
C202 C201 1.415 . S
C203 H179 0.951 . S
C203 C204 1.364 . S
C203 C205 1.388 . S
C204 C203 1.364 . S
C204 C208 1.386 1_545 S
C205 H180 0.951 . S
C205 C203 1.388 . S
C205 C206 1.366 1_545 S
C206 C205 1.366 1_565 S
C206 C207 1.414 . S
C206 C209 1.499 . S
C207 H181 0.950 . S
C207 C206 1.414 . S
C207 C208 1.374 . S
C208 H182 0.950 . S
C208 C204 1.386 1_565 S
C208 C207 1.374 . S
C209 C206 1.499 . S
C209 C210 1.373 1_565 S
C209 C211 1.389 . S
C210 H183 0.950 . S
C210 C196 1.377 . S
C210 C209 1.373 1_545 S
C211 C195 1.377 . S
C211 C209 1.389 . S
C211 C212 1.524 . S
C212 C211 1.524 . S
C212 C213 1.397 . S
C212 C217 1.363 . S
C213 H184 0.950 . S
C213 C212 1.397 . S
C213 C214 1.334 . S
C214 H185 0.950 . S
C214 C213 1.334 . S
C214 C215 1.287 . S
C215 C214 1.287 . S
C215 C216 1.524 . S
C215 H218 0.999 . S
C216 H186 0.950 . S
C216 C215 1.524 . S
C216 C217 1.415 . S
C217 H187 0.950 . S
C217 C212 1.363 . S
C217 C216 1.415 . S
H218 C215 0.999 . S
H219 C200 0.913 . S
H220 C238 0.951 . S
H221 C240 0.951 . S
H222 C242 0.950 . S
H223 C243 0.950 . S
H224 C245 0.950 . S
H225 C248 0.950 . S
H226 C249 0.950 . S
H227 C251 0.950 . S
H228 C252 0.950 . S
H229 C253 0.951 . S
H230 C255 0.951 . S
H231 C257 0.950 . S
H232 C258 0.950 . S
H233 C260 0.950 . S
H234 C263 0.950 . S
H235 C264 0.950 . S
H236 C266 0.950 . S
H237 C267 0.950 . S
C238 H220 0.951 . S
C238 C239 1.366 . S
C238 C240 1.388 . S
C239 C238 1.366 . S
C239 C243 1.385 . S
C240 H221 0.951 . S
C240 C238 1.388 . S
C240 C241 1.366 . S
C241 C240 1.366 . S
C241 C242 1.414 . S
C241 C244 1.499 . S
C242 H222 0.950 . S
C242 C241 1.414 . S
C242 C243 1.374 . S
C243 H223 0.950 . S
C243 C239 1.385 . S
C243 C242 1.374 . S
C244 C241 1.499 . S
C244 C245 1.373 . S
C244 C246 1.389 . S
C245 H224 0.950 . S
C245 C244 1.373 . S
C245 C261 1.377 . S
C246 C244 1.389 . S
C246 C247 1.524 . S
C246 C260 1.377 . S
C247 C246 1.524 . S
C247 C248 1.397 . S
C247 C252 1.363 . S
C248 H225 0.950 . S
C248 C247 1.397 . S
C248 C249 1.334 . S
C249 H226 0.950 . S
C249 C248 1.334 . S
C249 C250 1.287 . S
C250 C249 1.287 . S
C250 C251 1.524 . S
C250 H269 0.913 . S
C251 H227 0.950 . S
C251 C250 1.524 . S
C251 C252 1.415 . S
C252 H228 0.950 . S
C252 C247 1.363 . S
C252 C251 1.415 . S
C253 H229 0.951 . S
C253 C254 1.366 . S
C253 C255 1.388 . S
C254 C253 1.366 . S
C254 C258 1.385 . S
C255 H230 0.951 . S
C255 C253 1.388 . S
C255 C256 1.366 . S
C256 C255 1.366 . S
C256 C257 1.414 . S
C256 C259 1.499 . S
C257 H231 0.950 . S
C257 C256 1.414 . S
C257 C258 1.374 . S
C258 H232 0.950 . S
C258 C254 1.385 . S
C258 C257 1.374 . S
C259 C256 1.499 . S
C259 C260 1.373 . S
C259 C261 1.389 . S
C260 H233 0.950 . S
C260 C246 1.377 . S
C260 C259 1.373 . S
C261 C245 1.377 . S
C261 C259 1.389 . S
C261 C262 1.524 . S
C262 C261 1.524 . S
C262 C263 1.397 . S
C262 C267 1.363 . S
C263 H234 0.950 . S
C263 C262 1.397 . S
C263 C264 1.334 . S
C264 H235 0.950 . S
C264 C263 1.334 . S
C264 C265 1.287 . S
C265 C264 1.287 . S
C265 C266 1.524 . S
C265 H268 0.999 . S
C266 H236 0.950 . S
C266 C265 1.524 . S
C266 C267 1.415 . S
C267 H237 0.950 . S
C267 C262 1.363 . S
C267 C266 1.415 . S
H268 C265 0.999 . S
H269 C250 0.913 . S
H270 C288 0.951 . S
H271 C290 0.951 . S
H272 C292 0.950 . S
H273 C293 0.950 . S
H274 C295 0.950 . S
H275 C298 0.950 . S
H276 C299 0.950 . S
H277 C301 0.950 . S
H278 C302 0.950 . S
H279 C303 0.951 . S
H280 C305 0.951 . S
H281 C307 0.950 . S
H282 C308 0.950 . S
H283 C310 0.950 . S
H284 C313 0.950 . S
H285 C314 0.950 . S
H286 C316 0.950 . S
H287 C317 0.950 . S
C288 H270 0.951 . S
C288 C289 1.366 . S
C288 C290 1.388 . S
C289 C288 1.366 . S
C289 C293 1.385 1_554 S
C290 H271 0.951 . S
C290 C288 1.388 . S
C290 C291 1.366 . S
C291 C290 1.366 . S
C291 C292 1.414 1_554 S
C291 C294 1.499 . S
C292 H272 0.950 . S
C292 C291 1.414 1_556 S
C292 C293 1.374 . S
C293 H273 0.950 . S
C293 C289 1.385 1_556 S
C293 C292 1.374 . S
C294 C291 1.499 . S
C294 C295 1.373 1_554 S
C294 C296 1.389 . S
C295 H274 0.950 . S
C295 C294 1.373 1_556 S
C295 C311 1.377 . S
C296 C294 1.389 . S
C296 C297 1.524 . S
C296 C310 1.377 . S
C297 C296 1.524 . S
C297 C298 1.397 . S
C297 C302 1.363 . S
C298 H275 0.950 . S
C298 C297 1.397 . S
C298 C299 1.334 . S
C299 H276 0.950 . S
C299 C298 1.334 . S
C299 C300 1.287 . S
C300 C299 1.287 . S
C300 C301 1.524 . S
C300 H319 0.913 . S
C301 H277 0.950 . S
C301 C300 1.524 . S
C301 C302 1.415 . S
C302 H278 0.950 . S
C302 C297 1.363 . S
C302 C301 1.415 . S
C303 H279 0.951 . S
C303 C304 1.366 1_556 S
C303 C305 1.388 . S
C304 C303 1.366 1_554 S
C304 C308 1.385 . S
C305 H280 0.951 . S
C305 C303 1.388 . S
C305 C306 1.366 1_556 S
C306 C305 1.366 1_554 S
C306 C307 1.414 . S
C306 C309 1.499 . S
C307 H281 0.950 . S
C307 C306 1.414 . S
C307 C308 1.374 . S
C308 H282 0.950 . S
C308 C304 1.385 . S
C308 C307 1.374 . S
C309 C306 1.499 . S
C309 C310 1.373 . S
C309 C311 1.389 1_554 S
C310 H283 0.950 . S
C310 C296 1.377 . S
C310 C309 1.373 . S
C311 C295 1.377 . S
C311 C309 1.389 1_556 S
C311 C312 1.524 . S
C312 C311 1.524 . S
C312 C313 1.397 . S
C312 C317 1.363 . S
C313 H284 0.950 . S
C313 C312 1.397 . S
C313 C314 1.334 . S
C314 H285 0.950 . S
C314 C313 1.334 . S
C314 C315 1.287 . S
C315 C314 1.287 . S
C315 C316 1.524 . S
C315 H318 0.999 . S
C316 H286 0.950 . S
C316 C315 1.524 . S
C316 C317 1.415 . S
C317 H287 0.950 . S
C317 C312 1.363 . S
C317 C316 1.415 . S
H318 C315 0.999 . S
H319 C300 0.913 . S
H320 C338 0.951 . S
H321 C340 0.951 . S
H322 C342 0.950 . S
H323 C343 0.950 . S
H324 C345 0.950 . S
H325 C348 0.950 . S
H326 C349 0.950 . S
H327 C351 0.950 . S
H328 C352 0.950 1_554 S
H329 C353 0.951 . S
H330 C355 0.951 . S
H331 C357 0.950 . S
H332 C358 0.950 . S
H333 C360 0.950 . S
H334 C363 0.950 . S
H335 C364 0.950 . S
H336 C366 0.950 . S
H337 C367 0.950 . S
C338 H320 0.951 . S
C338 C339 1.366 . S
C338 C340 1.388 . S
C339 C338 1.366 . S
C339 C343 1.385 1_554 S
C340 H321 0.951 . S
C340 C338 1.388 . S
C340 C341 1.366 . S
C341 C340 1.366 . S
C341 C342 1.414 1_554 S
C341 C344 1.499 . S
C342 H322 0.950 . S
C342 C341 1.414 1_556 S
C342 C343 1.374 . S
C343 H323 0.950 . S
C343 C339 1.385 1_556 S
C343 C342 1.374 . S
C344 C341 1.499 . S
C344 C345 1.373 . S
C344 C346 1.389 1_554 S
C345 H324 0.950 . S
C345 C344 1.373 . S
C345 C361 1.377 . S
C346 C344 1.389 1_556 S
C346 C347 1.524 . S
C346 C360 1.377 . S
C347 C346 1.524 . S
C347 C348 1.397 . S
C347 C352 1.363 . S
C348 H325 0.950 . S
C348 C347 1.397 . S
C348 C349 1.334 . S
C349 H326 0.950 . S
C349 C348 1.334 . S
C349 C350 1.287 . S
C350 C349 1.287 . S
C350 C351 1.524 . S
C350 H369 0.913 . S
C351 H327 0.950 . S
C351 C350 1.524 . S
C351 C352 1.415 . S
C352 H328 0.950 1_556 S
C352 C347 1.363 . S
C352 C351 1.415 . S
C353 H329 0.951 . S
C353 C354 1.366 1_556 S
C353 C355 1.388 . S
C354 C353 1.366 1_554 S
C354 C358 1.385 . S
C355 H330 0.951 . S
C355 C353 1.388 . S
C355 C356 1.366 1_556 S
C356 C355 1.366 1_554 S
C356 C357 1.414 . S
C356 C359 1.499 . S
C357 H331 0.950 . S
C357 C356 1.414 . S
C357 C358 1.374 . S
C358 H332 0.950 . S
C358 C354 1.385 . S
C358 C357 1.374 . S
C359 C356 1.499 . S
C359 C360 1.373 1_554 S
C359 C361 1.389 . S
C360 H333 0.950 . S
C360 C346 1.377 . S
C360 C359 1.373 1_556 S
C361 C345 1.377 . S
C361 C359 1.389 . S
C361 C362 1.524 . S
C362 C361 1.524 . S
C362 C363 1.397 . S
C362 C367 1.363 . S
C363 H334 0.950 . S
C363 C362 1.397 . S
C363 C364 1.334 . S
C364 H335 0.950 . S
C364 C363 1.334 . S
C364 C365 1.287 . S
C365 C364 1.287 . S
C365 C366 1.524 . S
C365 H368 0.999 . S
C366 H336 0.950 . S
C366 C365 1.524 . S
C366 C367 1.415 . S
C367 H337 0.950 . S
C367 C362 1.363 . S
C367 C366 1.415 . S
H368 C365 0.999 . S
H369 C350 0.913 . S
H370 C388 0.951 . S
H371 C390 0.951 . S
H372 C392 0.950 . S
H373 C393 0.950 . S
H374 C395 0.950 . S
H375 C398 0.950 . S
H376 C399 0.950 . S
H377 C401 0.950 . S
H378 C402 0.950 1_556 S
H379 C403 0.951 . S
H380 C405 0.951 . S
H381 C407 0.950 . S
H382 C408 0.950 . S
H383 C410 0.950 . S
H384 C413 0.950 . S
H385 C414 0.950 . S
H386 C416 0.950 . S
H387 C417 0.950 1_554 S
C388 H370 0.951 . S
C388 C389 1.366 1_556 S
C388 C390 1.388 . S
C389 C388 1.366 1_554 S
C389 C393 1.385 . S
C390 H371 0.951 . S
C390 C388 1.388 . S
C390 C391 1.366 1_556 S
C391 C390 1.366 1_554 S
C391 C392 1.414 . S
C391 C394 1.499 . S
C392 H372 0.950 . S
C392 C391 1.414 . S
C392 C393 1.374 . S
C393 H373 0.950 . S
C393 C389 1.385 . S
C393 C392 1.374 . S
C394 C391 1.499 . S
C394 C395 1.373 1_554 S
C394 C396 1.389 . S
C395 H374 0.950 . S
C395 C394 1.373 1_556 S
C395 C411 1.377 . S
C396 C394 1.389 . S
C396 C397 1.524 . S
C396 C410 1.377 . S
C397 C396 1.524 . S
C397 C398 1.397 . S
C397 C402 1.363 . S
C398 H375 0.950 . S
C398 C397 1.397 . S
C398 C399 1.334 . S
C399 H376 0.950 . S
C399 C398 1.334 . S
C399 C400 1.287 . S
C400 C399 1.287 . S
C400 C401 1.524 . S
C400 H419 0.913 . S
C401 H377 0.950 . S
C401 C400 1.524 . S
C401 C402 1.415 . S
C402 H378 0.950 1_554 S
C402 C397 1.363 . S
C402 C401 1.415 . S
C403 H379 0.951 . S
C403 C404 1.366 . S
C403 C405 1.388 . S
C404 C403 1.366 . S
C404 C408 1.385 1_554 S
C405 H380 0.951 . S
C405 C403 1.388 . S
C405 C406 1.366 . S
C406 C405 1.366 . S
C406 C407 1.414 1_554 S
C406 C409 1.499 . S
C407 H381 0.950 . S
C407 C406 1.414 1_556 S
C407 C408 1.374 . S
C408 H382 0.950 . S
C408 C404 1.385 1_556 S
C408 C407 1.374 . S
C409 C406 1.499 . S
C409 C410 1.373 . S
C409 C411 1.389 1_554 S
C410 H383 0.950 . S
C410 C396 1.377 . S
C410 C409 1.373 . S
C411 C395 1.377 . S
C411 C409 1.389 1_556 S
C411 C412 1.524 . S
C412 C411 1.524 . S
C412 C413 1.397 . S
C412 C417 1.363 . S
C413 H384 0.950 . S
C413 C412 1.397 . S
C413 C414 1.334 . S
C414 H385 0.950 . S
C414 C413 1.334 . S
C414 C415 1.287 . S
C415 C414 1.287 . S
C415 C416 1.524 . S
C415 H418 0.999 . S
C416 H386 0.950 . S
C416 C415 1.524 . S
C416 C417 1.415 . S
C417 H387 0.950 1_556 S
C417 C412 1.363 . S
C417 C416 1.415 . S
H418 C415 0.999 . S
H419 C400 0.913 . S
H420 C438 0.951 . S
H421 C440 0.951 . S
H422 C442 0.950 . S
H423 C443 0.950 . S
H424 C445 0.950 . S
H425 C448 0.950 . S
H426 C449 0.950 . S
H427 C451 0.950 . S
H428 C452 0.950 . S
H429 C453 0.951 . S
H430 C455 0.951 . S
H431 C457 0.950 . S
H432 C458 0.950 . S
H433 C460 0.950 . S
H434 C463 0.950 . S
H435 C464 0.950 . S
H436 C466 0.950 . S
H437 C467 0.950 . S
C438 H420 0.951 . S
C438 C439 1.366 . S
C438 C440 1.388 . S
C439 C438 1.366 . S
C439 C443 1.385 1_556 S
C440 H421 0.951 . S
C440 C438 1.388 . S
C440 C441 1.366 . S
C441 C440 1.366 . S
C441 C442 1.414 1_556 S
C441 C444 1.499 . S
C442 H422 0.950 . S
C442 C441 1.414 1_554 S
C442 C443 1.374 . S
C443 H423 0.950 . S
C443 C439 1.385 1_554 S
C443 C442 1.374 . S
C444 C441 1.499 . S
C444 C445 1.373 . S
C444 C446 1.389 1_556 S
C445 H424 0.950 . S
C445 C444 1.373 . S
C445 C461 1.377 . S
C446 C444 1.389 1_554 S
C446 C447 1.524 . S
C446 C460 1.377 . S
C447 C446 1.524 . S
C447 C448 1.397 . S
C447 C452 1.363 . S
C448 H425 0.950 . S
C448 C447 1.397 . S
C448 C449 1.334 . S
C449 H426 0.950 . S
C449 C448 1.334 . S
C449 C450 1.287 . S
C450 C449 1.287 . S
C450 C451 1.524 . S
C450 H469 0.913 . S
C451 H427 0.950 . S
C451 C450 1.524 . S
C451 C452 1.415 . S
C452 H428 0.950 . S
C452 C447 1.363 . S
C452 C451 1.415 . S
C453 H429 0.951 . S
C453 C454 1.366 . S
C453 C455 1.388 . S
C454 C453 1.366 . S
C454 C458 1.385 . S
C455 H430 0.951 . S
C455 C453 1.388 . S
C455 C456 1.366 . S
C456 C455 1.366 . S
C456 C457 1.414 . S
C456 C459 1.499 . S
C457 H431 0.950 . S
C457 C456 1.414 . S
C457 C458 1.374 . S
C458 H432 0.950 . S
C458 C454 1.385 . S
C458 C457 1.374 . S
C459 C456 1.499 . S
C459 C460 1.373 1_556 S
C459 C461 1.389 . S
C460 H433 0.950 . S
C460 C446 1.377 . S
C460 C459 1.373 1_554 S
C461 C445 1.377 . S
C461 C459 1.389 . S
C461 C462 1.524 . S
C462 C461 1.524 . S
C462 C463 1.397 . S
C462 C467 1.363 . S
C463 H434 0.950 . S
C463 C462 1.397 . S
C463 C464 1.334 . S
C464 H435 0.950 . S
C464 C463 1.334 . S
C464 C465 1.287 . S
C465 C464 1.287 . S
C465 C466 1.524 . S
C465 H468 0.999 . S
C466 H436 0.950 . S
C466 C465 1.524 . S
C466 C467 1.415 . S
C467 H437 0.950 . S
C467 C462 1.363 . S
C467 C466 1.415 . S
H468 C465 0.999 . S
H469 C450 0.913 . S
H470 C488 0.951 . S
H471 C490 0.951 . S
H472 C492 0.950 . S
H473 C493 0.950 . S
H474 C495 0.950 . S
H475 C498 0.950 . S
H476 C499 0.950 . S
H477 C501 0.950 . S
H478 C502 0.950 . S
H479 C503 0.951 . S
H480 C505 0.951 . S
H481 C507 0.950 . S
H482 C508 0.950 . S
H483 C510 0.950 . S
H484 C513 0.950 . S
H485 C514 0.950 . S
H486 C516 0.950 . S
H487 C517 0.950 . S
C488 H470 0.951 . S
C488 C489 1.366 1_554 S
C488 C490 1.388 . S
C489 C488 1.366 1_556 S
C489 C493 1.385 . S
C490 H471 0.951 . S
C490 C488 1.388 . S
C490 C491 1.366 1_554 S
C491 C490 1.366 1_556 S
C491 C492 1.414 . S
C491 C494 1.499 . S
C492 H472 0.950 . S
C492 C491 1.414 . S
C492 C493 1.374 . S
C493 H473 0.950 . S
C493 C489 1.385 . S
C493 C492 1.374 . S
C494 C491 1.499 . S
C494 C495 1.373 . S
C494 C496 1.389 1_556 S
C495 H474 0.950 . S
C495 C494 1.373 . S
C495 C511 1.377 . S
C496 C494 1.389 1_554 S
C496 C497 1.524 . S
C496 C510 1.377 . S
C497 C496 1.524 . S
C497 C498 1.397 . S
C497 C502 1.363 . S
C498 H475 0.950 . S
C498 C497 1.397 . S
C498 C499 1.334 . S
C499 H476 0.950 . S
C499 C498 1.334 . S
C499 C500 1.287 . S
C500 C499 1.287 . S
C500 C501 1.524 . S
C500 H519 0.913 . S
C501 H477 0.950 . S
C501 C500 1.524 . S
C501 C502 1.415 . S
C502 H478 0.950 . S
C502 C497 1.363 . S
C502 C501 1.415 . S
C503 H479 0.951 . S
C503 C504 1.366 . S
C503 C505 1.388 . S
C504 C503 1.366 . S
C504 C508 1.385 1_556 S
C505 H480 0.951 . S
C505 C503 1.388 . S
C505 C506 1.366 . S
C506 C505 1.366 . S
C506 C507 1.414 1_556 S
C506 C509 1.499 . S
C507 H481 0.950 . S
C507 C506 1.414 1_554 S
C507 C508 1.374 . S
C508 H482 0.950 . S
C508 C504 1.385 1_554 S
C508 C507 1.374 . S
C509 C506 1.499 . S
C509 C510 1.373 1_556 S
C509 C511 1.389 . S
C510 H483 0.950 . S
C510 C496 1.377 . S
C510 C509 1.373 1_554 S
C511 C495 1.377 . S
C511 C509 1.389 . S
C511 C512 1.524 . S
C512 C511 1.524 . S
C512 C513 1.397 . S
C512 C517 1.363 . S
C513 H484 0.950 . S
C513 C512 1.397 . S
C513 C514 1.334 . S
C514 H485 0.950 . S
C514 C513 1.334 . S
C514 C515 1.287 . S
C515 C514 1.287 . S
C515 C516 1.524 . S
C515 H518 0.999 . S
C516 H486 0.950 . S
C516 C515 1.524 . S
C516 C517 1.415 . S
C517 H487 0.950 . S
C517 C512 1.363 . S
C517 C516 1.415 . S
H518 C515 0.999 . S
H519 C500 0.913 . S
H520 C538 0.951 . S
H521 C540 0.951 . S
H522 C542 0.950 . S
H523 C543 0.950 . S
H524 C545 0.950 . S
H525 C548 0.950 . S
H526 C549 0.950 . S
H527 C551 0.950 . S
H528 C552 0.950 . S
H529 C553 0.951 . S
H530 C555 0.951 . S
H531 C557 0.950 . S
H532 C558 0.950 . S
H533 C560 0.952 . S
H534 C563 0.950 . S
H535 C564 0.950 . S
H536 C566 0.950 . S
H537 C567 0.950 . S
C538 H520 0.951 . S
C538 C539 1.366 1_554 S
C538 C540 1.388 . S
C539 C538 1.366 1_556 S
C539 C543 1.385 . S
C540 H521 0.951 . S
C540 C538 1.388 . S
C540 C541 1.366 1_554 S
C541 C540 1.366 1_556 S
C541 C542 1.414 . S
C541 C544 1.499 . S
C542 H522 0.950 . S
C542 C541 1.414 . S
C542 C543 1.374 . S
C543 H523 0.950 . S
C543 C539 1.385 . S
C543 C542 1.374 . S
C544 C541 1.499 . S
C544 C545 1.373 . S
C544 C546 1.389 . S
C545 H524 0.950 . S
C545 C544 1.373 . S
C545 C561 1.377 . S
C546 C544 1.389 . S
C546 C547 1.524 1_556 S
C546 C560 1.376 1_556 S
C547 C546 1.524 1_554 S
C547 C548 1.397 1_554 S
C547 C552 1.363 . S
C548 H525 0.950 . S
C548 C547 1.397 1_556 S
C548 C549 1.334 . S
C549 H526 0.950 . S
C549 C548 1.334 . S
C549 C550 1.287 1_556 S
C550 C549 1.287 1_554 S
C550 C551 1.524 . S
C550 H569 0.913 . S
C551 H527 0.950 . S
C551 C550 1.524 . S
C551 C552 1.415 . S
C552 H528 0.950 . S
C552 C547 1.363 . S
C552 C551 1.415 . S
C553 H529 0.951 . S
C553 C554 1.366 . S
C553 C555 1.388 . S
C554 C553 1.366 . S
C554 C558 1.385 1_556 S
C555 H530 0.951 . S
C555 C553 1.388 . S
C555 C556 1.366 . S
C556 C555 1.366 . S
C556 C557 1.414 1_556 S
C556 C559 1.499 . S
C557 H531 0.950 . S
C557 C556 1.414 1_554 S
C557 C558 1.374 . S
C558 H532 0.950 . S
C558 C554 1.385 1_554 S
C558 C557 1.374 . S
C559 C556 1.499 . S
C559 C560 1.372 1_556 S
C559 C561 1.389 . S
C560 H533 0.952 . S
C560 C546 1.376 1_554 S
C560 C559 1.372 1_554 S
C561 C545 1.377 . S
C561 C559 1.389 . S
C561 C562 1.524 . S
C562 C561 1.524 . S
C562 C563 1.397 1_556 S
C562 C567 1.363 . S
C563 H534 0.950 . S
C563 C562 1.397 1_554 S
C563 C564 1.334 . S
C564 H535 0.950 . S
C564 C563 1.334 . S
C564 C565 1.287 1_554 S
C565 C564 1.287 1_556 S
C565 C566 1.524 . S
C565 H568 0.999 . S
C566 H536 0.950 . S
C566 C565 1.524 . S
C566 C567 1.415 . S
C567 H537 0.950 . S
C567 C562 1.363 . S
C567 C566 1.415 . S
H568 C565 0.999 . S
H569 C550 0.913 . S
C139 C9 1.445 1_455 S
C154 C18 1.445 . S
C189 C58 1.446 . S
C204 C49 1.442 1_545 S
C239 C89 1.447 . S
C254 C98 1.447 . S
C289 C19 1.679 . S
C304 C86 1.682 . S
C339 C59 1.681 . S
C354 C6 1.687 . S
C389 C46 1.690 . S
C404 C90 1.686 1_554 S
C439 C10 1.678 . S
C454 C95 1.688 . S
C489 C15 1.685 . S
C504 C50 1.680 . S
C539 C99 1.686 1_556 S
C554 C55 1.690 . S
