# Generated by pormake.
# Topology wjh, (4)-cn, num edge types: 1
# Building blocks:
#     Node 0, Type 0, BuildingBlock: TATPOV_clean_sbu_0, # of connection points: 4
#     Node 1, Type 0, BuildingBlock: TATPOV_clean_sbu_0, # of connection points: 4
#     Node 2, Type 0, BuildingBlock: TATPOV_clean_sbu_0, # of connection points: 4
#     Node 3, Type 0, BuildingBlock: TATPOV_clean_sbu_0, # of connection points: 4
#     Node 4, Type 0, BuildingBlock: TATPOV_clean_sbu_0, # of connection points: 4
#     Node 5, Type 0, BuildingBlock: TATPOV_clean_sbu_0, # of connection points: 4
#     Node 6, Type 0, BuildingBlock: TATPOV_clean_sbu_0, # of connection points: 4
#     Node 7, Type 0, BuildingBlock: TATPOV_clean_sbu_0, # of connection points: 4
#     Node 8, Type 0, BuildingBlock: TATPOV_clean_sbu_0, # of connection points: 4
#     Node 9, Type 0, BuildingBlock: TATPOV_clean_sbu_0, # of connection points: 4
#     Node 10, Type 0, BuildingBlock: TATPOV_clean_sbu_0, # of connection points: 4
#     Node 11, Type 0, BuildingBlock: TATPOV_clean_sbu_0, # of connection points: 4
#     Edge 12, Type (0, 0), BuildingBlock: XUDNAN_clean_linker_2, # of connection points: 2
#     Edge 13, Type (0, 0), BuildingBlock: XUDNAN_clean_linker_2, # of connection points: 2
#     Edge 14, Type (0, 0), BuildingBlock: XUDNAN_clean_linker_2, # of connection points: 2
#     Edge 15, Type (0, 0), BuildingBlock: XUDNAN_clean_linker_2, # of connection points: 2
#     Edge 16, Type (0, 0), BuildingBlock: XUDNAN_clean_linker_2, # of connection points: 2
#     Edge 17, Type (0, 0), BuildingBlock: XUDNAN_clean_linker_2, # of connection points: 2
#     Edge 18, Type (0, 0), BuildingBlock: XUDNAN_clean_linker_2, # of connection points: 2
#     Edge 19, Type (0, 0), BuildingBlock: XUDNAN_clean_linker_2, # of connection points: 2
#     Edge 20, Type (0, 0), BuildingBlock: XUDNAN_clean_linker_2, # of connection points: 2
#     Edge 21, Type (0, 0), BuildingBlock: XUDNAN_clean_linker_2, # of connection points: 2
#     Edge 22, Type (0, 0), BuildingBlock: XUDNAN_clean_linker_2, # of connection points: 2
#     Edge 23, Type (0, 0), BuildingBlock: XUDNAN_clean_linker_2, # of connection points: 2
#     Edge 24, Type (0, 0), BuildingBlock: XUDNAN_clean_linker_2, # of connection points: 2
#     Edge 25, Type (0, 0), BuildingBlock: XUDNAN_clean_linker_2, # of connection points: 2
#     Edge 26, Type (0, 0), BuildingBlock: XUDNAN_clean_linker_2, # of connection points: 2
#     Edge 27, Type (0, 0), BuildingBlock: XUDNAN_clean_linker_2, # of connection points: 2
#     Edge 28, Type (0, 0), BuildingBlock: XUDNAN_clean_linker_2, # of connection points: 2
#     Edge 29, Type (0, 0), BuildingBlock: XUDNAN_clean_linker_2, # of connection points: 2
#     Edge 30, Type (0, 0), BuildingBlock: XUDNAN_clean_linker_2, # of connection points: 2
#     Edge 31, Type (0, 0), BuildingBlock: XUDNAN_clean_linker_2, # of connection points: 2
#     Edge 32, Type (0, 0), BuildingBlock: XUDNAN_clean_linker_2, # of connection points: 2
#     Edge 33, Type (0, 0), BuildingBlock: XUDNAN_clean_linker_2, # of connection points: 2
#     Edge 34, Type (0, 0), BuildingBlock: XUDNAN_clean_linker_2, # of connection points: 2
#     Edge 35, Type (0, 0), BuildingBlock: XUDNAN_clean_linker_2, # of connection points: 2
# Relax obj value: 0.160
# Max RMSD: 0.152
# Mean RMSD: 0.152
data_MOF--net-wjh--node1-TATPOV_clean_sbu_0--edge1-XUDNAN_clean_linker_2
_symmetry_space_group_name_H-M    P1
_symmetry_Int_Tables_number       1
_symmetry_cell_setting            triclinic
loop_
_symmetry_equiv_pos_as_xyz
'x, y, z'
_cell_length_a     61.238735
_cell_length_b     61.17948
_cell_length_c     24.98984
_cell_angle_alpha  90.09635
_cell_angle_beta   89.959511
_cell_angle_gamma 120.08097
loop_
_atom_site_label
_atom_site_type_symbol
_atom_site_fract_x
_atom_site_fract_y
_atom_site_fract_z
_atom_type_partial_charge
Zn0 Zn 0.51583 0.13566 0.18952 0.0
Zn1 Zn 0.53983 0.13931 0.10243 0.0
O2 O 0.54668 0.17623 0.1158 0.0
O3 O 0.5309 0.17255 0.19679 0.0
O4 O 0.55681 0.1403 0.03081 0.0
O5 O 0.48151 0.11421 0.15886 0.0
O6 O 0.50258 0.11045 0.09146 0.0
C7 C 0.54309 0.18618 0.15753 0.0
C8 C 0.55249 0.12124 0.20538 0.0
O9 O 0.55849 0.12941 0.15759 0.0
O10 O 0.53322 0.11998 0.22701 0.0
C11 C 0.55626 0.15323 0.99151 0.0
O12 O 0.54485 0.16642 0.99772 0.0
C13 C 0.48173 0.10369 0.11552 0.0
Zn14 Zn 0.30091 0.4019 0.23796 0.0
Zn15 Zn 0.33495 0.44492 0.19502 0.0
O16 O 0.30057 0.44338 0.20021 0.0
O17 O 0.27052 0.40506 0.2206 0.0
O18 O 0.35601 0.47359 0.14269 0.0
O19 O 0.31134 0.37959 0.19935 0.0
O20 O 0.34179 0.41664 0.17292 0.0
C21 C 0.27739 0.42782 0.21 0.0
C22 C 0.33984 0.44056 0.31061 0.0
O23 O 0.34956 0.45425 0.26922 0.0
O24 O 0.31992 0.4191 0.30705 0.0
C25 C 0.34758 0.4715 0.09521 0.0
O26 O 0.32577 0.45158 0.0832 0.0
C27 C 0.33245 0.39283 0.17666 0.0
Zn28 Zn 0.85582 0.35806 0.50059 0.0
Zn29 Zn 0.83212 0.35927 0.41839 0.0
O30 O 0.81686 0.32044 0.42938 0.0
O31 O 0.84468 0.32194 0.48744 0.0
O32 O 0.81959 0.36584 0.3477 0.0
O33 O 0.89041 0.38442 0.48053 0.0
O34 O 0.8709 0.37961 0.404 0.0
C35 C 0.82567 0.30927 0.45784 0.0
C36 C 0.81999 0.3725 0.52756 0.0
O37 O 0.81805 0.373 0.4768 0.0
O38 O 0.83465 0.36587 0.54799 0.0
C39 C 0.79724 0.36034 0.33538 0.0
O40 O 0.77885 0.3476 0.36955 0.0
C41 C 0.89131 0.38898 0.4311 0.0
Zn42 Zn 0.4859 0.84467 0.60725 0.0
Zn43 Zn 0.46431 0.84649 0.52299 0.0
O44 O 0.45419 0.80822 0.53303 0.0
O45 O 0.47037 0.808 0.61135 0.0
O46 O 0.44796 0.84697 0.45172 0.0
O47 O 0.52086 0.86535 0.58103 0.0
O48 O 0.50234 0.87483 0.51713 0.0
C49 C 0.45717 0.79611 0.57138 0.0
C50 C 0.45277 0.86361 0.62734 0.0
O51 O 0.44698 0.85771 0.57834 0.0
O52 O 0.47005 0.86098 0.64864 0.0
C53 C 0.4247 0.83063 0.44596 0.0
O54 O 0.41308 0.81476 0.48534 0.0
C55 C 0.52235 0.87901 0.54185 0.0
Zn56 Zn 0.67134 0.59063 0.78856 0.0
Zn57 Zn 0.65026 0.55169 0.72478 0.0
O58 O 0.68738 0.56017 0.73823 0.0
O59 O 0.70631 0.59749 0.77712 0.0
O60 O 0.63652 0.52466 0.66496 0.0
O61 O 0.6582 0.61071 0.75452 0.0
O62 O 0.64168 0.57886 0.6977 0.0
C63 C 0.70721 0.57878 0.75829 0.0
C64 C 0.63449 0.54418 0.84043 0.0
O65 O 0.63055 0.53466 0.79348 0.0
O66 O 0.65107 0.5671 0.84794 0.0
C67 C 0.61822 0.52118 0.63478 0.0
O68 O 0.60725 0.53462 0.64332 0.0
C69 C 0.6452 0.60027 0.71334 0.0
Zn70 Zn 0.11879 0.65324 0.93292 0.0
Zn71 Zn 0.12439 0.62726 0.8634 0.0
O72 O 0.14961 0.66581 0.85162 0.0
O73 O 0.13427 0.68624 0.89518 0.0
O74 O 0.1292 0.60992 0.79805 0.0
O75 O 0.08194 0.63132 0.94048 0.0
O76 O 0.08508 0.61121 0.87049 0.0
C77 C 0.15101 0.68666 0.86496 0.0
C78 C 0.14464 0.62839 0.97247 0.0
O79 O 0.13761 0.61667 0.9279 0.0
O80 O 0.14066 0.64641 0.98228 0.0
C81 C 0.15103 0.61335 0.78731 0.0
O82 O 0.16989 0.62791 0.81912 0.0
C83 C 0.07162 0.61396 0.90604 0.0
Zn84 Zn 0.84844 0.51304 0.84383 0.0
Zn85 Zn 0.83155 0.48541 0.92092 0.0
O86 O 0.81526 0.50845 0.92145 0.0
O87 O 0.84362 0.54033 0.8744 0.0
O88 O 0.82116 0.46455 0.98992 0.0
O89 O 0.88275 0.51732 0.84253 0.0
O90 O 0.87103 0.50319 0.92424 0.0
C91 C 0.82396 0.53075 0.90287 0.0
C92 C 0.81098 0.46455 0.81237 0.0
O93 O 0.81542 0.45954 0.85931 0.0
O94 O 0.82119 0.48725 0.79707 0.0
C95 C 0.79883 0.44711 1.00084 0.0
O96 O 0.78058 0.44238 0.96695 0.0
C97 C 0.8883 0.51329 0.88869 0.0
Zn98 Zn 0.32147 0.89562 0.97135 0.0
Zn99 Zn 0.34853 0.88077 0.02486 0.0
O100 O 0.31335 0.84989 1.00676 0.0
O101 O 0.2886 0.8631 0.97456 0.0
O102 O 0.36341 0.86881 0.08401 0.0
O103 O 0.32921 0.92582 0.01617 0.0
O104 O 0.35569 0.91568 0.05194 0.0
C105 C 0.292 0.84513 0.98812 0.0
C106 C 0.36378 0.89479 0.91325 0.0
O107 O 0.36862 0.88725 0.95685 0.0
O108 O 0.34572 0.89936 0.91086 0.0
C109 C 0.3482 0.85418 0.11953 0.0
O110 O 0.32418 0.84713 0.11529 0.0
C111 C 0.34755 0.9311 0.04699 0.0
Zn112 Zn 0.50891 0.36081 0.1253 0.0
Zn113 Zn 0.5293 0.38388 0.21547 0.0
O114 O 0.53759 0.35448 0.20803 0.0
O115 O 0.5225 0.3378 0.12902 0.0
O116 O 0.54556 0.40066 0.28735 0.0
O117 O 0.47404 0.34959 0.15022 0.0
O118 O 0.49136 0.37411 0.22057 0.0
C119 C 0.53434 0.33863 0.171 0.0
C120 C 0.54462 0.41282 0.10961 0.0
O121 O 0.5478 0.41228 0.15995 0.0
O122 O 0.52838 0.39318 0.08541 0.0
C123 C 0.54321 0.41822 0.30925 0.0
O124 O 0.52915 0.42597 0.28561 0.0
C125 C 0.47191 0.35977 0.19239 0.0
Zn126 Zn 0.11177 0.46717 0.27878 0.0
Zn127 Zn 0.12286 0.49507 0.36239 0.0
O128 O 0.14618 0.47916 0.36099 0.0
O129 O 0.12968 0.44908 0.30035 0.0
O130 O 0.12959 0.51386 0.4337 0.0
O131 O 0.07485 0.45161 0.28527 0.0
O132 O 0.08345 0.47289 0.36078 0.0
C133 C 0.14628 0.46106 0.33552 0.0
C134 C 0.13804 0.52038 0.25496 0.0
O135 O 0.13563 0.52269 0.30501 0.0
O136 O 0.1303 0.49871 0.23481 0.0
C137 C 0.15169 0.52703 0.45293 0.0
O138 O 0.17084 0.52839 0.42626 0.0
C139 C 0.0674 0.45767 0.32685 0.0
Zn140 Zn 0.68567 0.09421 0.55725 0.0
Zn141 Zn 0.65677 0.10439 0.60916 0.0
O142 O 0.69352 0.13574 0.60752 0.0
O143 O 0.71883 0.12285 0.57727 0.0
O144 O 0.63862 0.11208 0.6691 0.0
O145 O 0.67504 0.05991 0.58323 0.0
O146 O 0.6458 0.06617 0.61875 0.0
C147 C 0.71569 0.14038 0.59512 0.0
C148 C 0.64974 0.10249 0.49327 0.0
O149 O 0.64164 0.10553 0.53809 0.0
O150 O 0.66786 0.09801 0.49169 0.0
C151 C 0.63537 0.13103 0.66586 0.0
O152 O 0.64343 0.14525 0.62287 0.0
C153 C 0.65424 0.05138 0.60731 0.0
Zn154 Zn 0.46152 0.60887 0.57768 0.0
Zn155 Zn 0.44901 0.59683 0.67195 0.0
O156 O 0.43683 0.62264 0.65431 0.0
O157 O 0.44032 0.62436 0.56659 0.0
O158 O 0.43971 0.58652 0.75044 0.0
O159 O 0.49824 0.62983 0.58974 0.0
O160 O 0.4881 0.61152 0.66857 0.0
C161 C 0.43314 0.63004 0.60906 0.0
C162 C 0.43356 0.55676 0.58478 0.0
O163 O 0.42954 0.56253 0.63137 0.0
O164 O 0.44885 0.5739 0.55381 0.0
C165 C 0.41766 0.56893 0.7632 0.0
O166 O 0.40055 0.55837 0.72544 0.0
C167 C 0.50487 0.62479 0.63371 0.0
H168 H 0.54775 0.11043 0.31177 0.0
H169 H 0.59479 0.11959 0.17385 0.0
H170 H 0.62406 0.11368 0.23237 0.0
H171 H 0.59705 0.14555 0.40063 0.0
H172 H 0.58159 0.12597 0.45792 0.0
H173 H 0.56308 0.12814 0.40453 0.0
H174 H 0.53928 0.07945 0.39323 0.0
H175 H 0.55755 0.07708 0.44702 0.0
H176 H 0.55697 0.06353 0.38257 0.0
H177 H 0.64913 0.10905 0.30725 0.0
H178 H 0.6683 0.10636 0.39201 0.0
H179 H 0.60511 0.10201 0.48018 0.0
C180 C 0.56393 0.11075 0.29342 0.0
C181 C 0.56892 0.11532 0.23811 0.0
C182 C 0.59055 0.11598 0.21608 0.0
C183 C 0.60724 0.11265 0.24898 0.0
C184 C 0.60196 0.10874 0.30359 0.0
C185 C 0.58079 0.10774 0.32554 0.0
C186 C 0.58007 0.10487 0.3857 0.0
C187 C 0.58048 0.12748 0.41382 0.0
C188 C 0.55711 0.07973 0.40313 0.0
C189 C 0.60439 0.10478 0.39448 0.0
C190 C 0.61664 0.10676 0.34666 0.0
C191 C 0.63965 0.10736 0.34487 0.0
C192 C 0.65037 0.10585 0.39324 0.0
C193 C 0.63818 0.10402 0.44269 0.0
C194 C 0.61491 0.10349 0.44308 0.0
H195 H 0.38932 0.47283 0.33222 0.0
H196 H 0.31608 0.42938 0.40753 0.0
H197 H 0.33478 0.44872 0.49488 0.0
H198 H 0.42732 0.47208 0.45186 0.0
H199 H 0.45215 0.50375 0.43716 0.0
H200 H 0.43393 0.48278 0.38347 0.0
H201 H 0.42244 0.51584 0.3496 0.0
H202 H 0.44066 0.53681 0.40268 0.0
H203 H 0.4079 0.52768 0.39509 0.0
H204 H 0.35954 0.47919 0.56846 0.0
H205 H 0.38804 0.51764 0.62026 0.0
H206 H 0.44558 0.53842 0.49851 0.0
C207 C 0.3774 0.46697 0.36742 0.0
C208 C 0.35136 0.44982 0.36342 0.0
C209 C 0.33618 0.44249 0.41006 0.0
C210 C 0.34665 0.45325 0.45982 0.0
C211 C 0.3724 0.47069 0.4623 0.0
C212 C 0.38764 0.47712 0.41737 0.0
C213 C 0.41409 0.49812 0.42909 0.0
C214 C 0.43299 0.4886 0.42518 0.0
C215 C 0.42168 0.52094 0.39196 0.0
C216 C 0.41085 0.50392 0.48635 0.0
C217 C 0.38689 0.48759 0.50547 0.0
C218 C 0.3786 0.49163 0.55465 0.0
C219 C 0.39488 0.51348 0.58387 0.0
C220 C 0.41892 0.53094 0.56322 0.0
C221 C 0.42733 0.52529 0.51539 0.0
H222 H 0.80696 0.41825 0.80757 0.0
H223 H 0.7858 0.4671 0.72528 0.0
H224 H 0.77486 0.44031 0.645 0.0
H225 H 0.84013 0.4144 0.71303 0.0
H226 H 0.83205 0.38185 0.71956 0.0
H227 H 0.82893 0.39813 0.77598 0.0
H228 H 0.7818 0.36408 0.78578 0.0
H229 H 0.78483 0.34725 0.72957 0.0
H230 H 0.7609 0.35618 0.72923 0.0
H231 H 0.77885 0.4173 0.56799 0.0
H232 H 0.79544 0.39862 0.50316 0.0
H233 H 0.81386 0.36439 0.6344 0.0
C234 C 0.79859 0.42234 0.77368 0.0
C235 C 0.79716 0.44458 0.77242 0.0
C236 C 0.78698 0.45002 0.72689 0.0
C237 C 0.78058 0.43482 0.68116 0.0
C238 C 0.78419 0.4141 0.68183 0.0
C239 C 0.79242 0.40745 0.72744 0.0
C240 C 0.79934 0.38747 0.71509 0.0
C241 C 0.82672 0.39601 0.73185 0.0
C242 C 0.78059 0.36225 0.74147 0.0
C243 C 0.79627 0.38594 0.65492 0.0
C244 C 0.78664 0.40069 0.63653 0.0
C245 C 0.78559 0.40499 0.58191 0.0
C246 C 0.79519 0.39446 0.54534 0.0
C247 C 0.80605 0.38022 0.56385 0.0
C248 C 0.8056 0.37517 0.61907 0.0
H249 H 0.45526 0.86888 0.73548 0.0
H250 H 0.41905 0.87831 0.59512 0.0
H251 H 0.39533 0.89195 0.6535 0.0
H252 H 0.4018 0.8418 0.81614 0.0
H253 H 0.41843 0.85659 0.87709 0.0
H254 H 0.43445 0.85053 0.82384 0.0
H255 H 0.46892 0.8979 0.82253 0.0
H256 H 0.45295 0.90415 0.87583 0.0
H257 H 0.45985 0.92154 0.81403 0.0
H258 H 0.3739 0.90194 0.72794 0.0
H259 H 0.35427 0.90476 0.81184 0.0
H260 H 0.40419 0.88747 0.90258 0.0
C261 C 0.44267 0.8742 0.7167 0.0
C262 C 0.4391 0.87272 0.66072 0.0
C263 C 0.42209 0.8794 0.63796 0.0
C264 C 0.40868 0.88727 0.67074 0.0
C265 C 0.41256 0.8883 0.72593 0.0
C266 C 0.4291 0.88185 0.74865 0.0
C267 C 0.42846 0.88249 0.80906 0.0
C268 C 0.42029 0.8563 0.8329 0.0
C269 C 0.45407 0.90273 0.83168 0.0
C270 C 0.40852 0.88978 0.81706 0.0
C271 C 0.39987 0.89347 0.7687 0.0
C272 C 0.38066 0.8993 0.76602 0.0
C273 C 0.36966 0.90086 0.81396 0.0
C274 C 0.3777 0.8963 0.86384 0.0
C275 C 0.39772 0.89118 0.8652 0.0
H276 H 0.54839 0.41717 1.00104 0.0
H277 H 0.57482 0.46109 0.14758 0.0
H278 H 0.59908 0.49996 0.09389 0.0
H279 H 0.60614 0.4509 0.92914 0.0
H280 H 0.591 0.44846 0.86581 0.0
H281 H 0.57514 0.42446 0.9159 0.0
H282 H 0.53684 0.43158 0.91202 0.0
H283 H 0.55266 0.45572 0.86211 0.0
H284 H 0.54164 0.46282 0.923 0.0
H285 H 0.62034 0.53363 0.02429 0.0
H286 H 0.63951 0.55976 0.9444 0.0
H287 H 0.5996 0.49334 0.84334 0.0
C288 C 0.55916 0.43496 0.02201 0.0
C289 C 0.55964 0.43617 0.07852 0.0
C290 C 0.57422 0.45977 0.10433 0.0
C291 C 0.58794 0.48191 0.07419 0.0
C292 C 0.58689 0.47998 0.01851 0.0
C293 C 0.57302 0.45709 0.99271 0.0
C294 C 0.57573 0.45995 0.93253 0.0
C295 C 0.58772 0.44507 0.90951 0.0
C296 C 0.55019 0.45205 0.90586 0.0
C297 C 0.59344 0.48811 0.92837 0.0
C298 C 0.59946 0.49931 0.9784 0.0
C299 C 0.61576 0.52508 0.98493 0.0
C300 C 0.62652 0.53975 0.93917 0.0
C301 C 0.62109 0.52858 0.88747 0.0
C302 C 0.60406 0.50245 0.88217 0.0
H303 H 0.13943 0.51987 0.14619 0.0
H304 H 0.15897 0.57054 0.28218 0.0
H305 H 0.17135 0.60634 0.22026 0.0
H306 H 0.18816 0.56604 0.05015 0.0
H307 H 0.16618 0.55336 0.99523 0.0
H308 H 0.16443 0.53303 0.04923 0.0
H309 H 0.11749 0.51971 0.06455 0.0
H310 H 0.1191 0.53991 0.01089 0.0
H311 H 0.1092 0.54373 0.07651 0.0
H312 H 0.17483 0.63472 0.14555 0.0
H313 H 0.16673 0.65295 0.06551 0.0
H314 H 0.14396 0.58338 0.97831 0.0
C315 C 0.14704 0.5386 0.1631 0.0
C316 C 0.14836 0.54246 0.21902 0.0
C317 C 0.15791 0.56719 0.23945 0.0
C318 C 0.16515 0.58764 0.20456 0.0
C319 C 0.16288 0.583 0.14956 0.0
C320 C 0.15411 0.55906 0.12898 0.0
C321 C 0.14994 0.55828 0.06916 0.0
C322 C 0.16828 0.55233 0.03918 0.0
C323 C 0.1223 0.53931 0.05448 0.0
C324 C 0.15632 0.58522 0.05963 0.0
C325 C 0.16445 0.59936 0.10621 0.0
C326 C 0.16899 0.62401 0.10865 0.0
C327 C 0.16422 0.63415 0.06296 0.0
C328 C 0.15468 0.61952 0.01569 0.0
C329 C 0.15164 0.59513 0.01354 0.0
H330 H 0.53303 0.30623 0.0945 0.0
H331 H 0.55648 0.32997 0.25844 0.0
H332 H 0.56857 0.29709 0.26678 0.0
H333 H 0.50378 0.24275 0.11692 0.0
H334 H 0.51297 0.23471 0.0547 0.0
H335 H 0.51039 0.26264 0.05898 0.0
H336 H 0.55658 0.28974 0.02628 0.0
H337 H 0.55934 0.2618 0.02203 0.0
H338 H 0.58152 0.28837 0.06161 0.0
H339 H 0.57192 0.2581 0.2613 0.0
H340 H 0.56514 0.21544 0.24408 0.0
H341 H 0.54016 0.21742 0.08296 0.0
C342 C 0.54119 0.30494 0.13196 0.0
C343 C 0.54381 0.32071 0.17593 0.0
C344 C 0.55438 0.31818 0.22422 0.0
C345 C 0.56141 0.29965 0.22916 0.0
C346 C 0.55805 0.2841 0.18523 0.0
C347 C 0.5483 0.28668 0.13745 0.0
C348 C 0.54408 0.26607 0.09803 0.0
C349 C 0.51615 0.25064 0.08122 0.0
C350 C 0.56142 0.27717 0.04909 0.0
C351 C 0.5518 0.25062 0.13196 0.0
C352 C 0.56027 0.26165 0.18178 0.0
C353 C 0.56591 0.24963 0.22211 0.0
C354 C 0.56199 0.22541 0.21196 0.0
C355 C 0.55253 0.21347 0.16192 0.0
C356 C 0.54818 0.22655 0.12084 0.0
H357 H 0.22561 0.40133 0.22099 0.0
H358 H 0.29109 0.47661 0.23308 0.0
H359 H 0.2651 0.49166 0.27712 0.0
H360 H 0.18103 0.42327 0.19114 0.0
H361 H 0.15578 0.39774 0.22776 0.0
H362 H 0.17978 0.39329 0.19661 0.0
H363 H 0.18865 0.37953 0.28833 0.0
H364 H 0.16529 0.38485 0.32007 0.0
H365 H 0.19725 0.40067 0.34477 0.0
H366 H 0.23306 0.49779 0.32706 0.0
H367 H 0.19463 0.49765 0.35726 0.0
H368 H 0.14931 0.41937 0.30778 0.0
C369 C 0.23435 0.4211 0.23186 0.0
C370 C 0.26043 0.43772 0.22368 0.0
C371 C 0.27113 0.46348 0.23851 0.0
C372 C 0.25661 0.47217 0.2643 0.0
C373 C 0.23129 0.45502 0.27418 0.0
C374 C 0.22001 0.43026 0.25676 0.0
C375 C 0.19208 0.41613 0.2698 0.0
C376 C 0.17623 0.40709 0.21827 0.0
C377 C 0.18544 0.39398 0.30801 0.0
C378 C 0.18951 0.43681 0.29739 0.0
C379 C 0.21249 0.45891 0.30068 0.0
C380 C 0.21491 0.48065 0.32439 0.0
C381 C 0.193 0.48029 0.34217 0.0
C382 C 0.169 0.45849 0.33499 0.0
C383 C 0.16743 0.43623 0.31421 0.0
H384 H 0.71182 0.182 0.57169 0.0
H385 H 0.76606 0.15705 0.59632 0.0
H386 H 0.79951 0.19682 0.5571 0.0
H387 H 0.73354 0.20893 0.44648 0.0
H388 H 0.72908 0.23566 0.45582 0.0
H389 H 0.70964 0.20679 0.49186 0.0
H390 H 0.72301 0.23064 0.5824 0.0
H391 H 0.7417 0.25974 0.54655 0.0
H392 H 0.75609 0.2503 0.59755 0.0
H393 H 0.82598 0.23697 0.50838 0.0
H394 H 0.84619 0.27932 0.4674 0.0
H395 H 0.77484 0.27817 0.4715 0.0
C396 C 0.73095 0.18536 0.57085 0.0
C397 C 0.73644 0.16656 0.58755 0.0
C398 C 0.76154 0.17133 0.58423 0.0
C399 C 0.78059 0.19372 0.5615 0.0
C400 C 0.7742 0.21114 0.54228 0.0
C401 C 0.75019 0.20758 0.54781 0.0
C402 C 0.74829 0.22908 0.52238 0.0
C403 C 0.72899 0.21953 0.47642 0.0
C404 C 0.74191 0.24329 0.56475 0.0
C405 C 0.77496 0.24515 0.50142 0.0
C406 C 0.78948 0.23428 0.51308 0.0
C407 C 0.81485 0.24571 0.49907 0.0
C408 C 0.82608 0.26959 0.47523 0.0
C409 C 0.81195 0.28172 0.46546 0.0
C410 C 0.78586 0.26897 0.47702 0.0
H411 H 0.45893 0.76687 0.65107 0.0
H412 H 0.42885 0.76231 0.49157 0.0
H413 H 0.41141 0.71594 0.49223 0.0
H414 H 0.48043 0.72587 0.63011 0.0
H415 H 0.47314 0.71227 0.6962 0.0
H416 H 0.47916 0.74385 0.68606 0.0
H417 H 0.4358 0.73142 0.7285 0.0
H418 H 0.42954 0.69959 0.73823 0.0
H419 H 0.4075 0.70517 0.70143 0.0
H420 H 0.40278 0.67164 0.50572 0.0
H421 H 0.40644 0.63427 0.52706 0.0
H422 H 0.44179 0.66804 0.67842 0.0
C423 C 0.44828 0.75618 0.61646 0.0
C424 C 0.44526 0.76824 0.57115 0.0
C425 C 0.43137 0.75347 0.52671 0.0
C426 C 0.42125 0.72713 0.52698 0.0
C427 C 0.42494 0.71595 0.57224 0.0
C428 C 0.43812 0.73009 0.61617 0.0
C429 C 0.44205 0.7143 0.65742 0.0
C430 C 0.47036 0.72468 0.668 0.0
C431 C 0.42787 0.71252 0.70948 0.0
C432 C 0.43014 0.68916 0.62876 0.0
C433 C 0.41983 0.69034 0.58023 0.0
C434 C 0.41027 0.67034 0.54404 0.0
C435 C 0.41241 0.64918 0.55656 0.0
C436 C 0.42413 0.64824 0.6047 0.0
C437 C 0.43205 0.66797 0.64222 0.0
H438 H 0.70826 0.53523 0.77677 0.0
H439 H 0.75538 0.61688 0.77578 0.0
H440 H 0.78915 0.6134 0.82188 0.0
H441 H 0.72468 0.52593 0.906 0.0
H442 H 0.72484 0.49722 0.89062 0.0
H443 H 0.70498 0.50555 0.85304 0.0
H444 H 0.72554 0.50323 0.76406 0.0
H445 H 0.74473 0.49392 0.80121 0.0
H446 H 0.75941 0.52091 0.75744 0.0
H447 H 0.81695 0.60127 0.87135 0.0
H448 H 0.83961 0.58081 0.90863 0.0
H449 H 0.77366 0.50725 0.88197 0.0
C450 C 0.72601 0.55233 0.78458 0.0
C451 C 0.72933 0.57634 0.77216 0.0
C452 C 0.75257 0.5983 0.78448 0.0
C453 C 0.77173 0.59652 0.81117 0.0
C454 C 0.7673 0.57265 0.82553 0.0
C455 C 0.74524 0.55091 0.8118 0.0
C456 C 0.74515 0.52761 0.83264 0.0
C457 C 0.72363 0.51324 0.87296 0.0
C458 C 0.74363 0.51041 0.78607 0.0
C459 C 0.77065 0.53967 0.86004 0.0
C460 C 0.78303 0.56569 0.85575 0.0
C461 C 0.8074 0.58093 0.87533 0.0
C462 C 0.82001 0.56919 0.89706 0.0
C463 C 0.80815 0.54254 0.89934 0.0
C464 C 0.78282 0.52767 0.88257 0.0
H465 H 0.15987 0.73475 0.88067 0.0
H466 H 0.1975 0.69216 0.84646 0.0
H467 H 0.23805 0.72867 0.87399 0.0
H468 H 0.21465 0.79847 0.83917 0.0
H469 H 0.20739 0.81413 0.89151 0.0
H470 H 0.18241 0.78624 0.86012 0.0
H471 H 0.16832 0.76563 0.95358 0.0
H472 H 0.1938 0.79296 0.98516 0.0
H473 H 0.19049 0.76227 0.99524 0.0
H474 H 0.27231 0.76604 0.92279 0.0
H475 H 0.30077 0.80632 0.96819 0.0
H476 H 0.24156 0.82565 0.96686 0.0
C477 C 0.17681 0.7335 0.87663 0.0
C478 C 0.17545 0.71055 0.8615 0.0
C479 C 0.19802 0.70956 0.8574 0.0
C480 C 0.22116 0.73014 0.87359 0.0
C481 C 0.22147 0.75174 0.89243 0.0
C482 C 0.2001 0.75396 0.89203 0.0
C483 C 0.20533 0.77884 0.91641 0.0
C484 C 0.20228 0.7954 0.87428 0.0
C485 C 0.18848 0.77465 0.9655 0.0
C486 C 0.23267 0.78978 0.93255 0.0
C487 C 0.24157 0.77377 0.91872 0.0
C488 C 0.26574 0.77901 0.93267 0.0
C489 C 0.28165 0.80178 0.95923 0.0
C490 C 0.2734 0.81916 0.97103 0.0
C491 C 0.24842 0.81278 0.95823 0.0
H492 H 0.62098 0.10948 0.76679 0.0
H493 H 0.62185 0.16728 0.66466 0.0
H494 H 0.60205 0.17893 0.73649 0.0
H495 H 0.56085 0.0904 0.83042 0.0
H496 H 0.57069 0.08575 0.89531 0.0
H497 H 0.58475 0.08154 0.8357 0.0
H498 H 0.62914 0.1141 0.87103 0.0
H499 H 0.61521 0.11845 0.93069 0.0
H500 H 0.63563 0.14527 0.88977 0.0
H501 H 0.582 0.18445 0.81845 0.0
H502 H 0.56331 0.18381 0.90611 0.0
H503 H 0.57573 0.12315 0.95773 0.0
C504 C 0.61693 0.12452 0.75948 0.0
C505 C 0.623 0.13741 0.70976 0.0
C506 C 0.61746 0.15708 0.70215 0.0
C507 C 0.60617 0.16387 0.7428 0.0
C508 C 0.60053 0.15091 0.79122 0.0
C509 C 0.60572 0.13168 0.79993 0.0
C510 C 0.59789 0.12106 0.85614 0.0
C511 C 0.57732 0.09302 0.85426 0.0
C512 C 0.62084 0.12496 0.88883 0.0
C513 C 0.58749 0.13733 0.87747 0.0
C514 C 0.58917 0.15435 0.83914 0.0
C515 C 0.58061 0.17122 0.84882 0.0
C516 C 0.56999 0.17069 0.89888 0.0
C517 C 0.56803 0.15348 0.93911 0.0
C518 C 0.57703 0.13663 0.92806 0.0
H519 H 0.37357 0.52886 0.80005 0.0
H520 H 0.44789 0.58673 0.85285 0.0
H521 H 0.43784 0.56919 0.94463 0.0
H522 H 0.33963 0.52692 0.92053 0.0
H523 H 0.31897 0.49319 0.91713 0.0
H524 H 0.3318 0.51109 0.85661 0.0
H525 H 0.35023 0.4825 0.83096 0.0
H526 H 0.33749 0.46455 0.89139 0.0
H527 H 0.37074 0.47887 0.87729 0.0
H528 H 0.41954 0.54402 0.03111 0.0
H529 H 0.39507 0.51358 0.10289 0.0
H530 H 0.33323 0.47237 0.99175 0.0
C531 C 0.38772 0.53806 0.83089 0.0
C532 C 0.41153 0.55929 0.81908 0.0
C533 C 0.4295 0.57051 0.8608 0.0
C534 C 0.42395 0.56067 0.91311 0.0
C535 C 0.40033 0.53957 0.92318 0.0
C536 C 0.38253 0.52845 0.88309 0.0
C537 C 0.35884 0.50554 0.9036 0.0
C538 C 0.33596 0.50943 0.89921 0.0
C539 C 0.35406 0.48145 0.87406 0.0
C540 C 0.36607 0.50533 0.96145 0.0
C541 C 0.39001 0.52514 0.97222 0.0
C542 C 0.40074 0.5285 0.02302 0.0
C543 C 0.3867 0.51111 0.0636 0.0
C544 C 0.36219 0.49053 0.05316 0.0
C545 C 0.35187 0.48785 1.0013 0.0
H546 H 0.83293 0.44727 0.07342 0.0
H547 H 0.75269 0.41174 0.04024 0.0
H548 H 0.7436 0.38544 0.1211 0.0
H549 H 0.83193 0.39125 0.12112 0.0
H550 H 0.85534 0.40761 0.17226 0.0
H551 H 0.8556 0.42397 0.11219 0.0
H552 H 0.85343 0.45826 0.16911 0.0
H553 H 0.85325 0.44205 0.22934 0.0
H554 H 0.82834 0.44898 0.21717 0.0
H555 H 0.74313 0.36323 0.20671 0.0
H556 H 0.75143 0.34661 0.28959 0.0
H557 H 0.83197 0.39565 0.26593 0.0
C558 C 0.81343 0.43404 0.08322 0.0
C559 C 0.79352 0.43169 0.05034 0.0
C560 C 0.7683 0.41397 0.06462 0.0
C561 C 0.76292 0.3989 0.11056 0.0
C562 C 0.78296 0.40161 0.1419 0.0
C563 C 0.80772 0.41871 0.1288 0.0
C564 C 0.82578 0.41775 0.16906 0.0
C565 C 0.84319 0.40966 0.14203 0.0
C566 C 0.8411 0.44328 0.19788 0.0
C567 C 0.80732 0.39751 0.20686 0.0
C568 C 0.78271 0.3885 0.19058 0.0
C569 C 0.76235 0.37009 0.2197 0.0
C570 C 0.76725 0.36075 0.26679 0.0
C571 C 0.79233 0.36967 0.28432 0.0
C572 C 0.81257 0.38822 0.25351 0.0
H573 H 0.44065 0.86283 0.3579 0.0
H574 H 0.37611 0.79554 0.42249 0.0
H575 H 0.35104 0.79329 0.34381 0.0
H576 H 0.40592 0.89026 0.30432 0.0
H577 H 0.42481 0.90254 0.24475 0.0
H578 H 0.43858 0.89839 0.30477 0.0
H579 H 0.45201 0.8704 0.2527 0.0
H580 H 0.43825 0.87446 0.19248 0.0
H581 H 0.42858 0.84315 0.21662 0.0
H582 H 0.3319 0.79915 0.26205 0.0
H583 H 0.31966 0.81283 0.18049 0.0
H584 H 0.39605 0.87601 0.16493 0.0
C585 C 0.42133 0.8475 0.35519 0.0
C586 C 0.41043 0.82934 0.39667 0.0
C587 C 0.38499 0.80971 0.39158 0.0
C588 C 0.37054 0.8082 0.34685 0.0
C589 C 0.3817 0.8264 0.30705 0.0
C590 C 0.4065 0.84567 0.31045 0.0
C591 C 0.4134 0.86318 0.26239 0.0
C592 C 0.42113 0.89019 0.28013 0.0
C593 C 0.4343 0.86277 0.22907 0.0
C594 C 0.38847 0.85092 0.23216 0.0
C595 C 0.37055 0.82967 0.2588 0.0
C596 C 0.34581 0.81563 0.24054 0.0
C597 C 0.33903 0.82361 0.19414 0.0
C598 C 0.35687 0.8454 0.16605 0.0
C599 C 0.38206 0.85906 0.18505 0.0
H600 H 0.58327 0.51371 0.55744 0.0
H601 H 0.63383 0.48733 0.60841 0.0
H602 H 0.61975 0.45757 0.53187 0.0
H603 H 0.53231 0.45358 0.5126 0.0
H604 H 0.52463 0.46688 0.45635 0.0
H605 H 0.53835 0.48558 0.51566 0.0
H606 H 0.57446 0.52019 0.45871 0.0
H607 H 0.56086 0.50161 0.39923 0.0
H608 H 0.59314 0.51187 0.4167 0.0
H609 H 0.59987 0.43054 0.4483 0.0
H610 H 0.57694 0.40963 0.36514 0.0
H611 H 0.54005 0.45445 0.36879 0.0
C612 C 0.59135 0.50161 0.55283 0.0
C613 C 0.60965 0.50287 0.58932 0.0
C614 C 0.61979 0.48676 0.58123 0.0
C615 C 0.61187 0.46976 0.53781 0.0
C616 C 0.59384 0.46908 0.50259 0.0
C617 C 0.58377 0.48467 0.50966 0.0
C618 C 0.56504 0.4807 0.46573 0.0
C619 C 0.53851 0.47111 0.48899 0.0
C620 C 0.57391 0.50504 0.43317 0.0
C621 C 0.56609 0.46045 0.43266 0.0
C622 C 0.58274 0.4539 0.4546 0.0
C623 C 0.58681 0.43557 0.43089 0.0
C624 C 0.57365 0.42376 0.38359 0.0
C625 C 0.55663 0.43032 0.36014 0.0
C626 C 0.55289 0.44893 0.38542 0.0
H627 H 0.11709 0.53206 0.51546 0.0
H628 H 0.19622 0.55359 0.50711 0.0
H629 H 0.20416 0.57718 0.59165 0.0
H630 H 0.12709 0.59121 0.56787 0.0
H631 H 0.09987 0.57704 0.61109 0.0
H632 H 0.10005 0.56124 0.55035 0.0
H633 H 0.09032 0.52136 0.60472 0.0
H634 H 0.0901 0.53704 0.66564 0.0
H635 H 0.11068 0.52404 0.65947 0.0
H636 H 0.20392 0.59882 0.67635 0.0
H637 H 0.19562 0.61748 0.75565 0.0
H638 H 0.11667 0.58255 0.71034 0.0
C639 C 0.13607 0.54165 0.53151 0.0
C640 C 0.15603 0.54089 0.50444 0.0
C641 C 0.1806 0.55384 0.52684 0.0
C642 C 0.18532 0.56731 0.57498 0.0
C643 C 0.16531 0.56775 0.60047 0.0
C644 C 0.14116 0.55531 0.57963 0.0
C645 C 0.12316 0.5592 0.61492 0.0
C646 C 0.11188 0.573 0.58422 0.0
C647 C 0.10233 0.5339 0.63753 0.0
C648 C 0.14099 0.5758 0.65872 0.0
C649 C 0.16519 0.58042 0.64952 0.0
C650 C 0.18504 0.59532 0.68401 0.0
C651 C 0.1801 0.60586 0.72905 0.0
C652 C 0.15549 0.60155 0.73949 0.0
C653 C 0.13569 0.58622 0.70367 0.0
H654 H 0.47696 0.05935 0.08161 0.0
H655 H 0.43397 0.09628 0.11714 0.0
H656 H 0.39418 0.05557 0.10554 0.0
H657 H 0.4335 0.01303 0.98444 0.0
H658 H 0.43899 0.98855 0.00925 0.0
H659 H 0.46351 0.02115 0.01384 0.0
H660 H 0.46634 0.01569 0.11602 0.0
H661 H 0.44137 0.98327 0.11195 0.0
H662 H 0.43848 0.00482 0.15674 0.0
H663 H 0.35914 0.01038 0.09115 0.0
H664 H 0.33182 0.96447 0.07446 0.0
H665 H 0.39838 0.95709 0.05886 0.0
C666 C 0.45915 0.05898 0.08515 0.0
C667 C 0.45837 0.08093 0.09886 0.0
C668 C 0.43479 0.07963 0.10559 0.0
C669 C 0.41217 0.05662 0.09942 0.0
C670 C 0.41357 0.03508 0.08769 0.0
C671 C 0.43647 0.03608 0.08065 0.0
C672 C 0.43293 0.01003 0.07198 0.0
C673 C 0.44281 0.00808 0.01658 0.0
C674 C 0.44553 0.00306 0.11686 0.0
C675 C 0.40449 -0.00578 0.07502 0.0
C676 C 0.3936 0.00897 0.08359 0.0
C677 C 0.36746 -0.0014 0.08499 0.0
C678 C 0.35211 0.97254 0.07587 0.0
C679 C 0.363 0.95721 0.06666 0.0
C680 C 0.3895 0.9682 0.06745 0.0
H681 H 0.46416 0.39911 0.20904 0.0
H682 H 0.42525 0.31783 0.18977 0.0
H683 H 0.38451 0.31698 0.18167 0.0
H684 H 0.41361 0.40376 0.28063 0.0
H685 H 0.42033 0.43204 0.24497 0.0
H686 H 0.44524 0.42524 0.25793 0.0
H687 H 0.45512 0.42906 0.15635 0.0
H688 H 0.4297 0.43501 0.14287 0.0
H689 H 0.43057 0.40924 0.10987 0.0
H690 H 0.34824 0.32564 0.17118 0.0
H691 H 0.3195 0.34305 0.16318 0.0
H692 H 0.38366 0.41887 0.17892 0.0
C693 C 0.44689 0.38107 0.20549 0.0
C694 C 0.44757 0.35844 0.2017 0.0
C695 C 0.42486 0.33526 0.19415 0.0
C696 C 0.40173 0.33464 0.18904 0.0
C697 C 0.40181 0.35745 0.19049 0.0
C698 C 0.4238 0.38022 0.19882 0.0
C699 C 0.41921 0.40223 0.19425 0.0
C700 C 0.42493 0.41666 0.24762 0.0
C701 C 0.43456 0.41992 0.14808 0.0
C702 C 0.39127 0.38834 0.18189 0.0
C703 C 0.38144 0.36252 0.18038 0.0
C704 C 0.35576 0.34586 0.17194 0.0
C705 C 0.33961 0.35588 0.16692 0.0
C706 C 0.34934 0.3823 0.16932 0.0
C707 C 0.37562 0.39861 0.17541 0.0
H708 H 0.04094 0.45423 0.41889 0.0
H709 H 0.03243 0.44079 0.24748 0.0
H710 H 0.98712 0.42619 0.25468 0.0
H711 H 0.98384 0.39916 0.45381 0.0
H712 H 0.97655 0.41355 0.50876 0.0
H713 H 0.00887 0.42535 0.48958 0.0
H714 H 0.01488 0.47014 0.47797 0.0
H715 H 0.98245 0.45839 0.49672 0.0
H716 H -0.00586 0.47461 0.43396 0.0
H717 H 0.94267 0.4116 0.27992 0.0
H718 H 0.90102 0.39375 0.32348 0.0
H719 H 0.93773 0.41508 0.47877 0.0
C720 C 0.02954 0.44843 0.38292 0.0
C721 C 0.04021 0.44869 0.33268 0.0
C722 C 0.02464 0.44063 0.28651 0.0
C723 C -0.00109 0.43251 0.29003 0.0
C724 C 0.98893 0.43241 0.34004 0.0
C725 C 0.00364 0.43989 0.38579 0.0
C726 C 0.9877 0.43597 0.43508 0.0
C727 C -0.01066 0.4174 0.47408 0.0
C728 C -0.00475 0.46129 0.46254 0.0
C729 C 0.96177 0.42465 0.40985 0.0
C730 C 0.96298 0.42324 0.35489 0.0
C731 C 0.94142 0.41271 0.32294 0.0
C732 C 0.91786 0.40267 0.34802 0.0
C733 C 0.91612 0.40297 0.40447 0.0
C734 C 0.93844 0.41463 0.4355 0.0
H735 H 0.52776 0.92563 0.53334 0.0
H736 H 0.56991 0.88627 0.54447 0.0
H737 H 0.60864 0.92655 0.56553 0.0
H738 H 0.57996 0.98686 0.47998 0.0
H739 H 0.56982 0.00474 0.51978 0.0
H740 H 0.54703 0.9737 0.49609 0.0
H741 H 0.53206 0.96054 0.59382 0.0
H742 H 0.5555 0.99116 0.61809 0.0
H743 H 0.55446 0.96314 0.64381 0.0
H744 H 0.64154 0.97015 0.59404 0.0
H745 H 0.66785 0.0154 0.61707 0.0
H746 H 0.60319 0.02543 0.59435 0.0
C747 C 0.54544 0.92576 0.53745 0.0
C748 C 0.54612 0.90306 0.53589 0.0
C749 C 0.56927 0.90365 0.54424 0.0
C750 C 0.59124 0.92636 0.55682 0.0
C751 C 0.58959 0.94819 0.56146 0.0
C752 C 0.56741 0.94819 0.55115 0.0
C753 C 0.5702 0.97377 0.56289 0.0
C754 C 0.56655 0.98546 0.51164 0.0
C755 C 0.55197 0.97203 0.60729 0.0
C756 C 0.59731 0.98805 0.58194 0.0
C757 C 0.60818 0.97298 0.58064 0.0
C758 C 0.63326 0.98216 0.59518 0.0
C759 C 0.64796 0.00776 0.60881 0.0
C760 C 0.63744 0.02376 0.60843 0.0
C761 C 0.61158 0.01351 0.59648 0.0
H762 H 0.61181 0.60732 0.76868 0.0
H763 H 0.64245 0.61349 0.60962 0.0
H764 H 0.6137 0.62791 0.57513 0.0
H765 H 0.54961 0.57903 0.72657 0.0
H766 H 0.53972 0.59351 0.77663 0.0
H767 H 0.56578 0.5886 0.78995 0.0
H768 H 0.59423 0.63633 0.81064 0.0
H769 H 0.56821 0.6414 0.79702 0.0
H770 H 0.59757 0.65934 0.76148 0.0
H771 H 0.58028 0.63932 0.55821 0.0
H772 H 0.54026 0.63947 0.5549 0.0
H773 H 0.5285 0.6212 0.72415 0.0
C774 C 0.61287 0.61241 0.72685 0.0
C775 C 0.6296 0.61007 0.69174 0.0
C776 C 0.62993 0.61568 0.63691 0.0
C777 C 0.61384 0.624 0.6173 0.0
C778 C 0.5974 0.62604 0.65309 0.0
C779 C 0.59651 0.61996 0.70655 0.0
C780 C 0.5747 0.61997 0.73508 0.0
C781 C 0.55637 0.59372 0.75839 0.0
C782 C 0.58426 0.64049 0.77863 0.0
C783 C 0.56297 0.62642 0.68904 0.0
C784 C 0.57685 0.63068 0.64257 0.0
C785 C 0.56933 0.63613 0.59434 0.0
C786 C 0.54655 0.63623 0.59303 0.0
C787 C 0.53115 0.63023 0.63935 0.0
C788 C 0.5399 0.62598 0.68825 0.0
H789 H 0.03571 0.58887 0.82753 0.0
H790 H 0.04655 0.59763 0.99944 0.0
H791 H 0.00128 0.56812 0.01354 0.0
H792 H 0.97903 0.58999 0.82717 0.0
H793 H 0.96424 0.56715 0.77423 0.0
H794 H -0.00192 0.58603 0.77731 0.0
H795 H 0.00126 0.54535 0.77775 0.0
H796 H 0.96734 0.52633 0.77492 0.0
H797 H 0.98448 0.52156 0.82789 0.0
H798 H 0.9548 0.54028 0.00992 0.0
H799 H 0.90938 0.51891 0.9881 0.0
H800 H 0.92785 0.52942 0.81883 0.0
C801 C 0.02853 0.58413 0.86799 0.0
C802 C 0.04456 0.5954 0.91238 0.0
C803 C 0.0345 0.58925 0.96485 0.0
C804 C 0.00887 0.57234 0.97335 0.0
C805 C -0.0066 0.5618 0.92894 0.0
C806 C 0.00273 0.56755 0.87725 0.0
C807 C 0.98149 0.55564 0.83676 0.0
C808 C 0.98067 0.57591 0.80184 0.0
C809 C 0.98379 0.53605 0.8023 0.0
C810 C 0.95889 0.54302 0.87388 0.0
C811 C 0.96624 0.54631 0.92685 0.0
C812 C 0.94875 0.53734 0.96856 0.0
C813 C 0.923 0.5252 0.95581 0.0
C814 C 0.91506 0.52254 0.90186 0.0
C815 C 0.93331 0.5311 0.8605 0.0
loop_
_geom_bond_atom_site_label_1
_geom_bond_atom_site_label_2
_geom_bond_distance
_geom_bond_site_symmetry_2
_ccdc_geom_bond_type
Zn0 O3 2.031 . S
Zn0 O5 2.049 . S
Zn0 O10 2.067 . S
Zn1 O2 1.962 . S
Zn1 O4 1.986 1_554 S
Zn1 O6 1.996 . S
Zn1 O9 1.943 . S
O2 Zn1 1.962 . S
O2 C7 1.254 . S
O3 Zn0 2.031 . S
O3 C7 1.269 . S
O4 Zn1 1.986 1_556 S
O4 C11 1.262 . S
O5 Zn0 2.049 . S
O5 C13 1.260 . S
O6 Zn1 1.996 . S
O6 C13 1.257 . S
C7 O2 1.254 . S
C7 O3 1.269 . S
C8 O9 1.249 . S
C8 O10 1.270 . S
O9 Zn1 1.943 . S
O9 C8 1.249 . S
O10 Zn0 2.067 . S
O10 C8 1.270 . S
C11 O4 1.262 . S
C11 O12 1.232 . S
O12 C11 1.232 . S
C13 O5 1.260 . S
C13 O6 1.257 . S
Zn14 O17 2.031 . S
Zn14 O19 2.049 . S
Zn14 O24 2.067 . S
Zn15 O16 1.962 . S
Zn15 O18 1.986 . S
Zn15 O20 1.996 . S
Zn15 O23 1.943 . S
O16 Zn15 1.962 . S
O16 C21 1.254 . S
O17 Zn14 2.031 . S
O17 C21 1.269 . S
O18 Zn15 1.986 . S
O18 C25 1.262 . S
O19 Zn14 2.049 . S
O19 C27 1.260 . S
O20 Zn15 1.996 . S
O20 C27 1.257 . S
C21 O16 1.254 . S
C21 O17 1.269 . S
C22 O23 1.249 . S
C22 O24 1.270 . S
O23 Zn15 1.943 . S
O23 C22 1.249 . S
O24 Zn14 2.067 . S
O24 C22 1.270 . S
C25 O18 1.262 . S
C25 O26 1.232 . S
O26 C25 1.232 . S
C27 O19 1.260 . S
C27 O20 1.257 . S
Zn28 O31 2.031 . S
Zn28 O33 2.049 . S
Zn28 O38 2.067 . S
Zn29 O30 1.962 . S
Zn29 O32 1.986 . S
Zn29 O34 1.996 . S
Zn29 O37 1.943 . S
O30 Zn29 1.962 . S
O30 C35 1.254 . S
O31 Zn28 2.031 . S
O31 C35 1.269 . S
O32 Zn29 1.986 . S
O32 C39 1.262 . S
O33 Zn28 2.049 . S
O33 C41 1.260 . S
O34 Zn29 1.996 . S
O34 C41 1.257 . S
C35 O30 1.254 . S
C35 O31 1.269 . S
C36 O37 1.249 . S
C36 O38 1.270 . S
O37 Zn29 1.943 . S
O37 C36 1.249 . S
O38 Zn28 2.067 . S
O38 C36 1.270 . S
C39 O32 1.262 . S
C39 O40 1.232 . S
O40 C39 1.232 . S
C41 O33 1.260 . S
C41 O34 1.257 . S
Zn42 O45 2.031 . S
Zn42 O47 2.049 . S
Zn42 O52 2.067 . S
Zn43 O44 1.962 . S
Zn43 O46 1.986 . S
Zn43 O48 1.996 . S
Zn43 O51 1.943 . S
O44 Zn43 1.962 . S
O44 C49 1.254 . S
O45 Zn42 2.031 . S
O45 C49 1.269 . S
O46 Zn43 1.986 . S
O46 C53 1.262 . S
O47 Zn42 2.049 . S
O47 C55 1.260 . S
O48 Zn43 1.996 . S
O48 C55 1.257 . S
C49 O44 1.254 . S
C49 O45 1.269 . S
C50 O51 1.249 . S
C50 O52 1.270 . S
O51 Zn43 1.943 . S
O51 C50 1.249 . S
O52 Zn42 2.067 . S
O52 C50 1.270 . S
C53 O46 1.262 . S
C53 O54 1.232 . S
O54 C53 1.232 . S
C55 O47 1.260 . S
C55 O48 1.257 . S
Zn56 O59 2.031 . S
Zn56 O61 2.049 . S
Zn56 O66 2.067 . S
Zn57 O58 1.962 . S
Zn57 O60 1.986 . S
Zn57 O62 1.996 . S
Zn57 O65 1.943 . S
O58 Zn57 1.962 . S
O58 C63 1.254 . S
O59 Zn56 2.031 . S
O59 C63 1.269 . S
O60 Zn57 1.986 . S
O60 C67 1.262 . S
O61 Zn56 2.049 . S
O61 C69 1.260 . S
O62 Zn57 1.996 . S
O62 C69 1.257 . S
C63 O58 1.254 . S
C63 O59 1.269 . S
C64 O65 1.249 . S
C64 O66 1.270 . S
O65 Zn57 1.943 . S
O65 C64 1.249 . S
O66 Zn56 2.067 . S
O66 C64 1.270 . S
C67 O60 1.262 . S
C67 O68 1.232 . S
O68 C67 1.232 . S
C69 O61 1.260 . S
C69 O62 1.257 . S
Zn70 O73 2.031 . S
Zn70 O75 2.049 . S
Zn70 O80 2.067 . S
Zn71 O72 1.962 . S
Zn71 O74 1.986 . S
Zn71 O76 1.996 . S
Zn71 O79 1.943 . S
O72 Zn71 1.962 . S
O72 C77 1.254 . S
O73 Zn70 2.031 . S
O73 C77 1.269 . S
O74 Zn71 1.986 . S
O74 C81 1.262 . S
O75 Zn70 2.049 . S
O75 C83 1.260 . S
O76 Zn71 1.996 . S
O76 C83 1.257 . S
C77 O72 1.254 . S
C77 O73 1.269 . S
C78 O79 1.249 . S
C78 O80 1.270 . S
O79 Zn71 1.943 . S
O79 C78 1.249 . S
O80 Zn70 2.067 . S
O80 C78 1.270 . S
C81 O74 1.262 . S
C81 O82 1.232 . S
O82 C81 1.232 . S
C83 O75 1.260 . S
C83 O76 1.257 . S
Zn84 O87 2.031 . S
Zn84 O89 2.049 . S
Zn84 O94 2.067 . S
Zn85 O86 1.962 . S
Zn85 O88 1.986 . S
Zn85 O90 1.996 . S
Zn85 O93 1.943 . S
O86 Zn85 1.962 . S
O86 C91 1.254 . S
O87 Zn84 2.031 . S
O87 C91 1.269 . S
O88 Zn85 1.986 . S
O88 C95 1.262 . S
O89 Zn84 2.049 . S
O89 C97 1.260 . S
O90 Zn85 1.996 . S
O90 C97 1.257 . S
C91 O86 1.254 . S
C91 O87 1.269 . S
C92 O93 1.249 . S
C92 O94 1.270 . S
O93 Zn85 1.943 . S
O93 C92 1.249 . S
O94 Zn84 2.067 . S
O94 C92 1.270 . S
C95 O88 1.262 . S
C95 O96 1.232 . S
O96 C95 1.232 . S
C97 O89 1.260 . S
C97 O90 1.257 . S
Zn98 O101 2.031 . S
Zn98 O103 2.049 . S
Zn98 O108 2.067 . S
Zn99 O100 1.962 . S
Zn99 O102 1.986 . S
Zn99 O104 1.996 . S
Zn99 O107 1.943 1_554 S
O100 Zn99 1.962 . S
O100 C105 1.254 . S
O101 Zn98 2.031 . S
O101 C105 1.269 1_556 S
O102 Zn99 1.986 . S
O102 C109 1.262 . S
O103 Zn98 2.049 . S
O103 C111 1.260 1_556 S
O104 Zn99 1.996 . S
O104 C111 1.257 . S
C105 O100 1.254 . S
C105 O101 1.269 1_554 S
C106 O107 1.249 . S
C106 O108 1.270 . S
O107 Zn99 1.943 1_556 S
O107 C106 1.249 . S
O108 Zn98 2.067 . S
O108 C106 1.270 . S
C109 O102 1.262 . S
C109 O110 1.232 . S
O110 C109 1.232 . S
C111 O103 1.260 1_554 S
C111 O104 1.257 . S
Zn112 O115 2.031 . S
Zn112 O117 2.049 . S
Zn112 O122 2.067 . S
Zn113 O114 1.962 . S
Zn113 O116 1.986 . S
Zn113 O118 1.996 . S
Zn113 O121 1.943 . S
O114 Zn113 1.962 . S
O114 C119 1.254 . S
O115 Zn112 2.031 . S
O115 C119 1.269 . S
O116 Zn113 1.986 . S
O116 C123 1.262 . S
O117 Zn112 2.049 . S
O117 C125 1.260 . S
O118 Zn113 1.996 . S
O118 C125 1.257 . S
C119 O114 1.254 . S
C119 O115 1.269 . S
C120 O121 1.249 . S
C120 O122 1.270 . S
O121 Zn113 1.943 . S
O121 C120 1.249 . S
O122 Zn112 2.067 . S
O122 C120 1.270 . S
C123 O116 1.262 . S
C123 O124 1.232 . S
O124 C123 1.232 . S
C125 O117 1.260 . S
C125 O118 1.257 . S
Zn126 O129 2.031 . S
Zn126 O131 2.049 . S
Zn126 O136 2.067 . S
Zn127 O128 1.962 . S
Zn127 O130 1.986 . S
Zn127 O132 1.996 . S
Zn127 O135 1.943 . S
O128 Zn127 1.962 . S
O128 C133 1.254 . S
O129 Zn126 2.031 . S
O129 C133 1.269 . S
O130 Zn127 1.986 . S
O130 C137 1.262 . S
O131 Zn126 2.049 . S
O131 C139 1.260 . S
O132 Zn127 1.996 . S
O132 C139 1.257 . S
C133 O128 1.254 . S
C133 O129 1.269 . S
C134 O135 1.249 . S
C134 O136 1.270 . S
O135 Zn127 1.943 . S
O135 C134 1.249 . S
O136 Zn126 2.067 . S
O136 C134 1.270 . S
C137 O130 1.262 . S
C137 O138 1.232 . S
O138 C137 1.232 . S
C139 O131 1.260 . S
C139 O132 1.257 . S
Zn140 O143 2.031 . S
Zn140 O145 2.049 . S
Zn140 O150 2.067 . S
Zn141 O142 1.962 . S
Zn141 O144 1.986 . S
Zn141 O146 1.996 . S
Zn141 O149 1.943 . S
O142 Zn141 1.962 . S
O142 C147 1.254 . S
O143 Zn140 2.031 . S
O143 C147 1.269 . S
O144 Zn141 1.986 . S
O144 C151 1.262 . S
O145 Zn140 2.049 . S
O145 C153 1.260 . S
O146 Zn141 1.996 . S
O146 C153 1.257 . S
C147 O142 1.254 . S
C147 O143 1.269 . S
C148 O149 1.249 . S
C148 O150 1.270 . S
O149 Zn141 1.943 . S
O149 C148 1.249 . S
O150 Zn140 2.067 . S
O150 C148 1.270 . S
C151 O144 1.262 . S
C151 O152 1.232 . S
O152 C151 1.232 . S
C153 O145 1.260 . S
C153 O146 1.257 . S
Zn154 O157 2.031 . S
Zn154 O159 2.049 . S
Zn154 O164 2.067 . S
Zn155 O156 1.962 . S
Zn155 O158 1.986 . S
Zn155 O160 1.996 . S
Zn155 O163 1.943 . S
O156 Zn155 1.962 . S
O156 C161 1.254 . S
O157 Zn154 2.031 . S
O157 C161 1.269 . S
O158 Zn155 1.986 . S
O158 C165 1.262 . S
O159 Zn154 2.049 . S
O159 C167 1.260 . S
O160 Zn155 1.996 . S
O160 C167 1.257 . S
C161 O156 1.254 . S
C161 O157 1.269 . S
C162 O163 1.249 . S
C162 O164 1.270 . S
O163 Zn155 1.943 . S
O163 C162 1.249 . S
O164 Zn154 2.067 . S
O164 C162 1.270 . S
C165 O158 1.262 . S
C165 O166 1.232 . S
O166 C165 1.232 . S
C167 O159 1.260 . S
C167 O160 1.257 . S
H168 C180 0.930 . S
H169 C182 0.930 . S
H170 C183 0.930 . S
H171 C187 0.959 . S
H172 C187 0.959 . S
H173 C187 0.961 . S
H174 C188 0.960 . S
H175 C188 0.961 . S
H176 C188 0.959 . S
H177 C191 0.929 . S
H178 C192 0.931 . S
H179 C194 0.930 . S
C180 H168 0.930 . S
C180 C181 1.399 . S
C180 C185 1.399 . S
C181 C180 1.399 . S
C181 C182 1.376 . S
C182 H169 0.930 . S
C182 C181 1.376 . S
C182 C183 1.388 . S
C183 H170 0.930 . S
C183 C182 1.388 . S
C183 C184 1.390 . S
C184 C183 1.390 . S
C184 C185 1.394 . S
C184 C190 1.465 . S
C185 C180 1.399 . S
C185 C184 1.394 . S
C185 C186 1.516 . S
C186 C185 1.516 . S
C186 C187 1.502 . S
C186 C188 1.561 . S
C186 C189 1.526 . S
C187 H171 0.959 . S
C187 H172 0.959 . S
C187 H173 0.961 . S
C187 C186 1.502 . S
C188 H174 0.960 . S
C188 H175 0.961 . S
C188 H176 0.959 . S
C188 C186 1.561 . S
C189 C186 1.526 . S
C189 C190 1.396 . S
C189 C194 1.390 . S
C190 C184 1.465 . S
C190 C189 1.396 . S
C190 C191 1.399 . S
C191 H177 0.929 . S
C191 C190 1.399 . S
C191 C192 1.385 . S
C192 H178 0.931 . S
C192 C191 1.385 . S
C192 C193 1.389 . S
C193 C192 1.389 . S
C193 C194 1.387 . S
C194 H179 0.930 . S
C194 C189 1.390 . S
C194 C193 1.387 . S
H195 C207 0.930 . S
H196 C209 0.930 . S
H197 C210 0.930 . S
H198 C214 0.959 . S
H199 C214 0.959 . S
H200 C214 0.961 . S
H201 C215 0.960 . S
H202 C215 0.961 . S
H203 C215 0.959 . S
H204 C218 0.929 . S
H205 C219 0.931 . S
H206 C221 0.930 . S
C207 H195 0.930 . S
C207 C208 1.399 . S
C207 C212 1.399 . S
C208 C207 1.399 . S
C208 C209 1.376 . S
C209 H196 0.930 . S
C209 C208 1.376 . S
C209 C210 1.388 . S
C210 H197 0.930 . S
C210 C209 1.388 . S
C210 C211 1.390 . S
C211 C210 1.390 . S
C211 C212 1.394 . S
C211 C217 1.465 . S
C212 C207 1.399 . S
C212 C211 1.394 . S
C212 C213 1.516 . S
C213 C212 1.516 . S
C213 C214 1.502 . S
C213 C215 1.561 . S
C213 C216 1.526 . S
C214 H198 0.959 . S
C214 H199 0.959 . S
C214 H200 0.961 . S
C214 C213 1.502 . S
C215 H201 0.960 . S
C215 H202 0.961 . S
C215 H203 0.959 . S
C215 C213 1.561 . S
C216 C213 1.526 . S
C216 C217 1.396 . S
C216 C221 1.390 . S
C217 C211 1.465 . S
C217 C216 1.396 . S
C217 C218 1.399 . S
C218 H204 0.929 . S
C218 C217 1.399 . S
C218 C219 1.385 . S
C219 H205 0.931 . S
C219 C218 1.385 . S
C219 C220 1.389 . S
C220 C219 1.389 . S
C220 C221 1.387 . S
C221 H206 0.930 . S
C221 C216 1.390 . S
C221 C220 1.387 . S
H222 C234 0.930 . S
H223 C236 0.930 . S
H224 C237 0.930 . S
H225 C241 0.959 . S
H226 C241 0.959 . S
H227 C241 0.961 . S
H228 C242 0.960 . S
H229 C242 0.961 . S
H230 C242 0.959 . S
H231 C245 0.929 . S
H232 C246 0.931 . S
H233 C248 0.930 . S
C234 H222 0.930 . S
C234 C235 1.399 . S
C234 C239 1.399 . S
C235 C234 1.399 . S
C235 C236 1.376 . S
C236 H223 0.930 . S
C236 C235 1.376 . S
C236 C237 1.388 . S
C237 H224 0.930 . S
C237 C236 1.388 . S
C237 C238 1.390 . S
C238 C237 1.390 . S
C238 C239 1.394 . S
C238 C244 1.465 . S
C239 C234 1.399 . S
C239 C238 1.394 . S
C239 C240 1.516 . S
C240 C239 1.516 . S
C240 C241 1.502 . S
C240 C242 1.561 . S
C240 C243 1.526 . S
C241 H225 0.959 . S
C241 H226 0.959 . S
C241 H227 0.961 . S
C241 C240 1.502 . S
C242 H228 0.960 . S
C242 H229 0.961 . S
C242 H230 0.959 . S
C242 C240 1.561 . S
C243 C240 1.526 . S
C243 C244 1.396 . S
C243 C248 1.390 . S
C244 C238 1.465 . S
C244 C243 1.396 . S
C244 C245 1.399 . S
C245 H231 0.929 . S
C245 C244 1.399 . S
C245 C246 1.385 . S
C246 H232 0.931 . S
C246 C245 1.385 . S
C246 C247 1.389 . S
C247 C246 1.389 . S
C247 C248 1.387 . S
C248 H233 0.930 . S
C248 C243 1.390 . S
C248 C247 1.387 . S
H249 C261 0.930 . S
H250 C263 0.930 . S
H251 C264 0.930 . S
H252 C268 0.959 . S
H253 C268 0.959 . S
H254 C268 0.961 . S
H255 C269 0.960 . S
H256 C269 0.961 . S
H257 C269 0.959 . S
H258 C272 0.929 . S
H259 C273 0.931 . S
H260 C275 0.930 . S
C261 H249 0.930 . S
C261 C262 1.399 . S
C261 C266 1.399 . S
C262 C261 1.399 . S
C262 C263 1.376 . S
C263 H250 0.930 . S
C263 C262 1.376 . S
C263 C264 1.388 . S
C264 H251 0.930 . S
C264 C263 1.388 . S
C264 C265 1.390 . S
C265 C264 1.390 . S
C265 C266 1.394 . S
C265 C271 1.465 . S
C266 C261 1.399 . S
C266 C265 1.394 . S
C266 C267 1.516 . S
C267 C266 1.516 . S
C267 C268 1.502 . S
C267 C269 1.561 . S
C267 C270 1.526 . S
C268 H252 0.959 . S
C268 H253 0.959 . S
C268 H254 0.961 . S
C268 C267 1.502 . S
C269 H255 0.960 . S
C269 H256 0.961 . S
C269 H257 0.959 . S
C269 C267 1.561 . S
C270 C267 1.526 . S
C270 C271 1.396 . S
C270 C275 1.390 . S
C271 C265 1.465 . S
C271 C270 1.396 . S
C271 C272 1.399 . S
C272 H258 0.929 . S
C272 C271 1.399 . S
C272 C273 1.385 . S
C273 H259 0.931 . S
C273 C272 1.385 . S
C273 C274 1.389 . S
C274 C273 1.389 . S
C274 C275 1.387 . S
C275 H260 0.930 . S
C275 C270 1.390 . S
C275 C274 1.387 . S
H276 C288 0.930 . S
H277 C290 0.930 . S
H278 C291 0.930 . S
H279 C295 0.959 . S
H280 C295 0.959 . S
H281 C295 0.961 . S
H282 C296 0.960 . S
H283 C296 0.961 . S
H284 C296 0.959 . S
H285 C299 0.929 . S
H286 C300 0.931 . S
H287 C302 0.930 . S
C288 H276 0.930 . S
C288 C289 1.399 . S
C288 C293 1.399 1_554 S
C289 C288 1.399 . S
C289 C290 1.376 . S
C290 H277 0.930 . S
C290 C289 1.376 . S
C290 C291 1.388 . S
C291 H278 0.930 . S
C291 C290 1.388 . S
C291 C292 1.390 1_554 S
C292 C291 1.390 1_556 S
C292 C293 1.394 . S
C292 C298 1.465 . S
C293 C288 1.399 1_556 S
C293 C292 1.394 . S
C293 C294 1.516 . S
C294 C293 1.516 . S
C294 C295 1.502 . S
C294 C296 1.561 . S
C294 C297 1.526 . S
C295 H279 0.959 . S
C295 H280 0.959 . S
C295 H281 0.961 . S
C295 C294 1.502 . S
C296 H282 0.960 . S
C296 H283 0.961 . S
C296 H284 0.959 . S
C296 C294 1.561 . S
C297 C294 1.526 . S
C297 C298 1.396 . S
C297 C302 1.390 . S
C298 C292 1.465 . S
C298 C297 1.396 . S
C298 C299 1.399 . S
C299 H285 0.929 . S
C299 C298 1.399 . S
C299 C300 1.385 . S
C300 H286 0.931 . S
C300 C299 1.385 . S
C300 C301 1.389 . S
C301 C300 1.389 . S
C301 C302 1.387 . S
C302 H287 0.930 . S
C302 C297 1.390 . S
C302 C301 1.387 . S
H303 C315 0.930 . S
H304 C317 0.930 . S
H305 C318 0.930 . S
H306 C322 0.959 . S
H307 C322 0.959 . S
H308 C322 0.961 . S
H309 C323 0.960 . S
H310 C323 0.961 . S
H311 C323 0.959 . S
H312 C326 0.929 . S
H313 C327 0.931 . S
H314 C329 0.930 1_556 S
C315 H303 0.930 . S
C315 C316 1.399 . S
C315 C320 1.399 . S
C316 C315 1.399 . S
C316 C317 1.376 . S
C317 H304 0.930 . S
C317 C316 1.376 . S
C317 C318 1.388 . S
C318 H305 0.930 . S
C318 C317 1.388 . S
C318 C319 1.390 . S
C319 C318 1.390 . S
C319 C320 1.394 . S
C319 C325 1.465 . S
C320 C315 1.399 . S
C320 C319 1.394 . S
C320 C321 1.516 . S
C321 C320 1.516 . S
C321 C322 1.502 . S
C321 C323 1.561 . S
C321 C324 1.526 . S
C322 H306 0.959 . S
C322 H307 0.959 . S
C322 H308 0.961 . S
C322 C321 1.502 . S
C323 H309 0.960 . S
C323 H310 0.961 . S
C323 H311 0.959 . S
C323 C321 1.561 . S
C324 C321 1.526 . S
C324 C325 1.396 . S
C324 C329 1.390 . S
C325 C319 1.465 . S
C325 C324 1.396 . S
C325 C326 1.399 . S
C326 H312 0.929 . S
C326 C325 1.399 . S
C326 C327 1.385 . S
C327 H313 0.931 . S
C327 C326 1.385 . S
C327 C328 1.389 . S
C328 C327 1.389 . S
C328 C329 1.387 . S
C329 H314 0.930 1_554 S
C329 C324 1.390 . S
C329 C328 1.387 . S
H330 C342 0.930 . S
H331 C344 0.930 . S
H332 C345 0.930 . S
H333 C349 0.959 . S
H334 C349 0.959 . S
H335 C349 0.961 . S
H336 C350 0.960 . S
H337 C350 0.961 . S
H338 C350 0.959 . S
H339 C353 0.929 . S
H340 C354 0.931 . S
H341 C356 0.930 . S
C342 H330 0.930 . S
C342 C343 1.399 . S
C342 C347 1.399 . S
C343 C342 1.399 . S
C343 C344 1.376 . S
C344 H331 0.930 . S
C344 C343 1.376 . S
C344 C345 1.388 . S
C345 H332 0.930 . S
C345 C344 1.388 . S
C345 C346 1.390 . S
C346 C345 1.390 . S
C346 C347 1.394 . S
C346 C352 1.465 . S
C347 C342 1.399 . S
C347 C346 1.394 . S
C347 C348 1.516 . S
C348 C347 1.516 . S
C348 C349 1.502 . S
C348 C350 1.561 . S
C348 C351 1.526 . S
C349 H333 0.959 . S
C349 H334 0.959 . S
C349 H335 0.961 . S
C349 C348 1.502 . S
C350 H336 0.960 . S
C350 H337 0.961 . S
C350 H338 0.959 . S
C350 C348 1.561 . S
C351 C348 1.526 . S
C351 C352 1.396 . S
C351 C356 1.390 . S
C352 C346 1.465 . S
C352 C351 1.396 . S
C352 C353 1.399 . S
C353 H339 0.929 . S
C353 C352 1.399 . S
C353 C354 1.385 . S
C354 H340 0.931 . S
C354 C353 1.385 . S
C354 C355 1.389 . S
C355 C354 1.389 . S
C355 C356 1.387 . S
C356 H341 0.930 . S
C356 C351 1.390 . S
C356 C355 1.387 . S
H357 C369 0.930 . S
H358 C371 0.930 . S
H359 C372 0.930 . S
H360 C376 0.959 . S
H361 C376 0.959 . S
H362 C376 0.961 . S
H363 C377 0.960 . S
H364 C377 0.961 . S
H365 C377 0.959 . S
H366 C380 0.929 . S
H367 C381 0.931 . S
H368 C383 0.930 . S
C369 H357 0.930 . S
C369 C370 1.399 . S
C369 C374 1.399 . S
C370 C369 1.399 . S
C370 C371 1.376 . S
C371 H358 0.930 . S
C371 C370 1.376 . S
C371 C372 1.388 . S
C372 H359 0.930 . S
C372 C371 1.388 . S
C372 C373 1.390 . S
C373 C372 1.390 . S
C373 C374 1.394 . S
C373 C379 1.465 . S
C374 C369 1.399 . S
C374 C373 1.394 . S
C374 C375 1.516 . S
C375 C374 1.516 . S
C375 C376 1.502 . S
C375 C377 1.561 . S
C375 C378 1.526 . S
C376 H360 0.959 . S
C376 H361 0.959 . S
C376 H362 0.961 . S
C376 C375 1.502 . S
C377 H363 0.960 . S
C377 H364 0.961 . S
C377 H365 0.959 . S
C377 C375 1.561 . S
C378 C375 1.526 . S
C378 C379 1.396 . S
C378 C383 1.390 . S
C379 C373 1.465 . S
C379 C378 1.396 . S
C379 C380 1.399 . S
C380 H366 0.929 . S
C380 C379 1.399 . S
C380 C381 1.385 . S
C381 H367 0.931 . S
C381 C380 1.385 . S
C381 C382 1.389 . S
C382 C381 1.389 . S
C382 C383 1.387 . S
C383 H368 0.930 . S
C383 C378 1.390 . S
C383 C382 1.387 . S
H384 C396 0.930 . S
H385 C398 0.930 . S
H386 C399 0.930 . S
H387 C403 0.959 . S
H388 C403 0.959 . S
H389 C403 0.961 . S
H390 C404 0.960 . S
H391 C404 0.961 . S
H392 C404 0.959 . S
H393 C407 0.929 . S
H394 C408 0.931 . S
H395 C410 0.930 . S
C396 H384 0.930 . S
C396 C397 1.399 . S
C396 C401 1.399 . S
C397 C396 1.399 . S
C397 C398 1.376 . S
C398 H385 0.930 . S
C398 C397 1.376 . S
C398 C399 1.388 . S
C399 H386 0.930 . S
C399 C398 1.388 . S
C399 C400 1.390 . S
C400 C399 1.390 . S
C400 C401 1.394 . S
C400 C406 1.465 . S
C401 C396 1.399 . S
C401 C400 1.394 . S
C401 C402 1.516 . S
C402 C401 1.516 . S
C402 C403 1.502 . S
C402 C404 1.561 . S
C402 C405 1.526 . S
C403 H387 0.959 . S
C403 H388 0.959 . S
C403 H389 0.961 . S
C403 C402 1.502 . S
C404 H390 0.960 . S
C404 H391 0.961 . S
C404 H392 0.959 . S
C404 C402 1.561 . S
C405 C402 1.526 . S
C405 C406 1.396 . S
C405 C410 1.390 . S
C406 C400 1.465 . S
C406 C405 1.396 . S
C406 C407 1.399 . S
C407 H393 0.929 . S
C407 C406 1.399 . S
C407 C408 1.385 . S
C408 H394 0.931 . S
C408 C407 1.385 . S
C408 C409 1.389 . S
C409 C408 1.389 . S
C409 C410 1.387 . S
C410 H395 0.930 . S
C410 C405 1.390 . S
C410 C409 1.387 . S
H411 C423 0.930 . S
H412 C425 0.930 . S
H413 C426 0.930 . S
H414 C430 0.959 . S
H415 C430 0.959 . S
H416 C430 0.961 . S
H417 C431 0.960 . S
H418 C431 0.961 . S
H419 C431 0.959 . S
H420 C434 0.929 . S
H421 C435 0.931 . S
H422 C437 0.930 . S
C423 H411 0.930 . S
C423 C424 1.399 . S
C423 C428 1.399 . S
C424 C423 1.399 . S
C424 C425 1.376 . S
C425 H412 0.930 . S
C425 C424 1.376 . S
C425 C426 1.388 . S
C426 H413 0.930 . S
C426 C425 1.388 . S
C426 C427 1.390 . S
C427 C426 1.390 . S
C427 C428 1.394 . S
C427 C433 1.465 . S
C428 C423 1.399 . S
C428 C427 1.394 . S
C428 C429 1.516 . S
C429 C428 1.516 . S
C429 C430 1.502 . S
C429 C431 1.561 . S
C429 C432 1.526 . S
C430 H414 0.959 . S
C430 H415 0.959 . S
C430 H416 0.961 . S
C430 C429 1.502 . S
C431 H417 0.960 . S
C431 H418 0.961 . S
C431 H419 0.959 . S
C431 C429 1.561 . S
C432 C429 1.526 . S
C432 C433 1.396 . S
C432 C437 1.390 . S
C433 C427 1.465 . S
C433 C432 1.396 . S
C433 C434 1.399 . S
C434 H420 0.929 . S
C434 C433 1.399 . S
C434 C435 1.385 . S
C435 H421 0.931 . S
C435 C434 1.385 . S
C435 C436 1.389 . S
C436 C435 1.389 . S
C436 C437 1.387 . S
C437 H422 0.930 . S
C437 C432 1.390 . S
C437 C436 1.387 . S
H438 C450 0.930 . S
H439 C452 0.930 . S
H440 C453 0.930 . S
H441 C457 0.959 . S
H442 C457 0.959 . S
H443 C457 0.961 . S
H444 C458 0.960 . S
H445 C458 0.961 . S
H446 C458 0.959 . S
H447 C461 0.929 . S
H448 C462 0.931 . S
H449 C464 0.930 . S
C450 H438 0.930 . S
C450 C451 1.399 . S
C450 C455 1.399 . S
C451 C450 1.399 . S
C451 C452 1.376 . S
C452 H439 0.930 . S
C452 C451 1.376 . S
C452 C453 1.388 . S
C453 H440 0.930 . S
C453 C452 1.388 . S
C453 C454 1.390 . S
C454 C453 1.390 . S
C454 C455 1.394 . S
C454 C460 1.465 . S
C455 C450 1.399 . S
C455 C454 1.394 . S
C455 C456 1.516 . S
C456 C455 1.516 . S
C456 C457 1.502 . S
C456 C458 1.561 . S
C456 C459 1.526 . S
C457 H441 0.959 . S
C457 H442 0.959 . S
C457 H443 0.961 . S
C457 C456 1.502 . S
C458 H444 0.960 . S
C458 H445 0.961 . S
C458 H446 0.959 . S
C458 C456 1.561 . S
C459 C456 1.526 . S
C459 C460 1.396 . S
C459 C464 1.390 . S
C460 C454 1.465 . S
C460 C459 1.396 . S
C460 C461 1.399 . S
C461 H447 0.929 . S
C461 C460 1.399 . S
C461 C462 1.385 . S
C462 H448 0.931 . S
C462 C461 1.385 . S
C462 C463 1.389 . S
C463 C462 1.389 . S
C463 C464 1.387 . S
C464 H449 0.930 . S
C464 C459 1.390 . S
C464 C463 1.387 . S
H465 C477 0.930 . S
H466 C479 0.930 . S
H467 C480 0.930 . S
H468 C484 0.959 . S
H469 C484 0.959 . S
H470 C484 0.961 . S
H471 C485 0.960 . S
H472 C485 0.961 . S
H473 C485 0.959 . S
H474 C488 0.929 . S
H475 C489 0.931 . S
H476 C491 0.930 . S
C477 H465 0.930 . S
C477 C478 1.399 . S
C477 C482 1.399 . S
C478 C477 1.399 . S
C478 C479 1.376 . S
C479 H466 0.930 . S
C479 C478 1.376 . S
C479 C480 1.388 . S
C480 H467 0.930 . S
C480 C479 1.388 . S
C480 C481 1.390 . S
C481 C480 1.390 . S
C481 C482 1.394 . S
C481 C487 1.465 . S
C482 C477 1.399 . S
C482 C481 1.394 . S
C482 C483 1.516 1_556 S
C483 C482 1.516 1_554 S
C483 C484 1.502 . S
C483 C485 1.561 . S
C483 C486 1.526 1_554 S
C484 H468 0.959 . S
C484 H469 0.959 . S
C484 H470 0.961 . S
C484 C483 1.502 . S
C485 H471 0.960 . S
C485 H472 0.961 . S
C485 H473 0.959 . S
C485 C483 1.561 . S
C486 C483 1.526 1_556 S
C486 C487 1.396 . S
C486 C491 1.390 1_556 S
C487 C481 1.465 . S
C487 C486 1.396 . S
C487 C488 1.399 . S
C488 H474 0.929 . S
C488 C487 1.399 . S
C488 C489 1.385 . S
C489 H475 0.931 . S
C489 C488 1.385 . S
C489 C490 1.389 . S
C490 C489 1.389 . S
C490 C491 1.387 1_556 S
C491 H476 0.930 . S
C491 C486 1.390 1_554 S
C491 C490 1.387 1_554 S
H492 C504 0.930 . S
H493 C506 0.930 . S
H494 C507 0.930 . S
H495 C511 0.959 . S
H496 C511 0.959 . S
H497 C511 0.961 . S
H498 C512 0.960 . S
H499 C512 0.961 . S
H500 C512 0.959 . S
H501 C515 0.929 . S
H502 C516 0.931 . S
H503 C518 0.930 . S
C504 H492 0.930 . S
C504 C505 1.399 . S
C504 C509 1.399 . S
C505 C504 1.399 . S
C505 C506 1.376 . S
C506 H493 0.930 . S
C506 C505 1.376 . S
C506 C507 1.388 . S
C507 H494 0.930 . S
C507 C506 1.388 . S
C507 C508 1.390 . S
C508 C507 1.390 . S
C508 C509 1.394 . S
C508 C514 1.465 . S
C509 C504 1.399 . S
C509 C508 1.394 . S
C509 C510 1.516 . S
C510 C509 1.516 . S
C510 C511 1.502 . S
C510 C512 1.561 . S
C510 C513 1.526 . S
C511 H495 0.959 . S
C511 H496 0.959 . S
C511 H497 0.961 . S
C511 C510 1.502 . S
C512 H498 0.960 . S
C512 H499 0.961 . S
C512 H500 0.959 . S
C512 C510 1.561 . S
C513 C510 1.526 . S
C513 C514 1.396 . S
C513 C518 1.390 . S
C514 C508 1.465 . S
C514 C513 1.396 . S
C514 C515 1.399 . S
C515 H501 0.929 . S
C515 C514 1.399 . S
C515 C516 1.385 . S
C516 H502 0.931 . S
C516 C515 1.385 . S
C516 C517 1.389 . S
C517 C516 1.389 . S
C517 C518 1.387 . S
C518 H503 0.930 . S
C518 C513 1.390 . S
C518 C517 1.387 . S
H519 C531 0.930 . S
H520 C533 0.930 . S
H521 C534 0.930 . S
H522 C538 0.959 . S
H523 C538 0.959 . S
H524 C538 0.961 . S
H525 C539 0.965 . S
H526 C539 0.950 1_554 S
H527 C539 0.963 . S
H528 C542 0.929 . S
H529 C543 0.931 . S
H530 C545 0.930 . S
C531 H519 0.930 . S
C531 C532 1.399 . S
C531 C536 1.399 . S
C532 C531 1.399 . S
C532 C533 1.376 . S
C533 H520 0.930 . S
C533 C532 1.376 . S
C533 C534 1.388 . S
C534 H521 0.930 . S
C534 C533 1.388 . S
C534 C535 1.390 . S
C535 C534 1.390 . S
C535 C536 1.394 . S
C535 C541 1.465 . S
C536 C531 1.399 . S
C536 C535 1.394 . S
C536 C537 1.516 . S
C537 C536 1.516 . S
C537 C538 1.502 1_556 S
C537 C539 1.563 . S
C537 C540 1.526 1_556 S
C538 H522 0.959 . S
C538 H523 0.959 . S
C538 H524 0.961 . S
C538 C537 1.502 1_554 S
C539 H525 0.965 . S
C539 H526 0.950 1_556 S
C539 H527 0.963 . S
C539 C537 1.563 . S
C540 C537 1.526 1_554 S
C540 C541 1.396 1_554 S
C540 C545 1.390 . S
C541 C535 1.465 . S
C541 C540 1.396 1_556 S
C541 C542 1.399 . S
C542 H528 0.929 . S
C542 C541 1.399 . S
C542 C543 1.385 1_556 S
C543 H529 0.931 . S
C543 C542 1.385 1_554 S
C543 C544 1.389 . S
C544 C543 1.389 . S
C544 C545 1.387 . S
C545 H530 0.930 . S
C545 C540 1.390 . S
C545 C544 1.387 . S
H546 C558 0.930 . S
H547 C560 0.930 1_556 S
H548 C561 0.930 . S
H549 C565 0.959 . S
H550 C565 0.959 . S
H551 C565 0.961 . S
H552 C566 0.960 . S
H553 C566 0.961 . S
H554 C566 0.959 . S
H555 C569 0.929 . S
H556 C570 0.931 . S
H557 C572 0.930 . S
C558 H546 0.930 . S
C558 C559 1.399 . S
C558 C563 1.399 . S
C559 C558 1.399 . S
C559 C560 1.376 . S
C560 H547 0.930 1_554 S
C560 C559 1.376 . S
C560 C561 1.388 . S
C561 H548 0.930 . S
C561 C560 1.388 . S
C561 C562 1.390 . S
C562 C561 1.390 . S
C562 C563 1.394 . S
C562 C568 1.465 . S
C563 C558 1.399 . S
C563 C562 1.394 . S
C563 C564 1.516 . S
C564 C563 1.516 . S
C564 C565 1.502 . S
C564 C566 1.561 . S
C564 C567 1.526 . S
C565 H549 0.959 . S
C565 H550 0.959 . S
C565 H551 0.961 . S
C565 C564 1.502 . S
C566 H552 0.960 . S
C566 H553 0.961 . S
C566 H554 0.959 . S
C566 C564 1.561 . S
C567 C564 1.526 . S
C567 C568 1.396 . S
C567 C572 1.390 . S
C568 C562 1.465 . S
C568 C567 1.396 . S
C568 C569 1.399 . S
C569 H555 0.929 . S
C569 C568 1.399 . S
C569 C570 1.385 . S
C570 H556 0.931 . S
C570 C569 1.385 . S
C570 C571 1.389 . S
C571 C570 1.389 . S
C571 C572 1.387 . S
C572 H557 0.930 . S
C572 C567 1.390 . S
C572 C571 1.387 . S
H573 C585 0.930 . S
H574 C587 0.930 . S
H575 C588 0.930 . S
H576 C592 0.959 . S
H577 C592 0.959 . S
H578 C592 0.961 . S
H579 C593 0.960 . S
H580 C593 0.961 . S
H581 C593 0.959 . S
H582 C596 0.929 . S
H583 C597 0.931 . S
H584 C599 0.930 . S
C585 H573 0.930 . S
C585 C586 1.399 . S
C585 C590 1.399 . S
C586 C585 1.399 . S
C586 C587 1.376 . S
C587 H574 0.930 . S
C587 C586 1.376 . S
C587 C588 1.388 . S
C588 H575 0.930 . S
C588 C587 1.388 . S
C588 C589 1.390 . S
C589 C588 1.390 . S
C589 C590 1.394 . S
C589 C595 1.465 . S
C590 C585 1.399 . S
C590 C589 1.394 . S
C590 C591 1.516 . S
C591 C590 1.516 . S
C591 C592 1.502 . S
C591 C593 1.561 . S
C591 C594 1.526 . S
C592 H576 0.959 . S
C592 H577 0.959 . S
C592 H578 0.961 . S
C592 C591 1.502 . S
C593 H579 0.960 . S
C593 H580 0.961 . S
C593 H581 0.959 . S
C593 C591 1.561 . S
C594 C591 1.526 . S
C594 C595 1.396 . S
C594 C599 1.390 . S
C595 C589 1.465 . S
C595 C594 1.396 . S
C595 C596 1.399 . S
C596 H582 0.929 . S
C596 C595 1.399 . S
C596 C597 1.385 . S
C597 H583 0.931 . S
C597 C596 1.385 . S
C597 C598 1.389 . S
C598 C597 1.389 . S
C598 C599 1.387 . S
C599 H584 0.930 . S
C599 C594 1.390 . S
C599 C598 1.387 . S
H600 C612 0.930 . S
H601 C614 0.930 . S
H602 C615 0.930 . S
H603 C619 0.959 . S
H604 C619 0.959 . S
H605 C619 0.961 . S
H606 C620 0.960 . S
H607 C620 0.961 . S
H608 C620 0.959 . S
H609 C623 0.929 . S
H610 C624 0.931 . S
H611 C626 0.930 . S
C612 H600 0.930 . S
C612 C613 1.399 . S
C612 C617 1.399 . S
C613 C612 1.399 . S
C613 C614 1.376 . S
C614 H601 0.930 . S
C614 C613 1.376 . S
C614 C615 1.388 . S
C615 H602 0.930 . S
C615 C614 1.388 . S
C615 C616 1.390 . S
C616 C615 1.390 . S
C616 C617 1.394 . S
C616 C622 1.465 . S
C617 C612 1.399 . S
C617 C616 1.394 . S
C617 C618 1.516 . S
C618 C617 1.516 . S
C618 C619 1.502 . S
C618 C620 1.561 . S
C618 C621 1.526 . S
C619 H603 0.959 . S
C619 H604 0.959 . S
C619 H605 0.961 . S
C619 C618 1.502 . S
C620 H606 0.960 . S
C620 H607 0.961 . S
C620 H608 0.959 . S
C620 C618 1.561 . S
C621 C618 1.526 . S
C621 C622 1.396 . S
C621 C626 1.390 . S
C622 C616 1.465 . S
C622 C621 1.396 . S
C622 C623 1.399 . S
C623 H609 0.929 . S
C623 C622 1.399 . S
C623 C624 1.385 . S
C624 H610 0.931 . S
C624 C623 1.385 . S
C624 C625 1.389 . S
C625 C624 1.389 . S
C625 C626 1.387 . S
C626 H611 0.930 . S
C626 C621 1.390 . S
C626 C625 1.387 . S
H627 C639 0.930 . S
H628 C641 0.930 . S
H629 C642 0.930 . S
H630 C646 0.959 . S
H631 C646 0.959 . S
H632 C646 0.961 . S
H633 C647 0.960 . S
H634 C647 0.961 . S
H635 C647 0.959 . S
H636 C650 0.929 . S
H637 C651 0.931 . S
H638 C653 0.930 . S
C639 H627 0.930 . S
C639 C640 1.399 . S
C639 C644 1.399 . S
C640 C639 1.399 . S
C640 C641 1.376 . S
C641 H628 0.930 . S
C641 C640 1.376 . S
C641 C642 1.388 . S
C642 H629 0.930 . S
C642 C641 1.388 . S
C642 C643 1.390 . S
C643 C642 1.390 . S
C643 C644 1.394 . S
C643 C649 1.465 . S
C644 C639 1.399 . S
C644 C643 1.394 . S
C644 C645 1.516 . S
C645 C644 1.516 . S
C645 C646 1.502 . S
C645 C647 1.561 . S
C645 C648 1.526 . S
C646 H630 0.959 . S
C646 H631 0.959 . S
C646 H632 0.961 . S
C646 C645 1.502 . S
C647 H633 0.960 . S
C647 H634 0.961 . S
C647 H635 0.959 . S
C647 C645 1.561 . S
C648 C645 1.526 . S
C648 C649 1.396 . S
C648 C653 1.390 . S
C649 C643 1.465 . S
C649 C648 1.396 . S
C649 C650 1.399 . S
C650 H636 0.929 . S
C650 C649 1.399 . S
C650 C651 1.385 . S
C651 H637 0.931 . S
C651 C650 1.385 . S
C651 C652 1.389 . S
C652 C651 1.389 . S
C652 C653 1.387 . S
C653 H638 0.930 . S
C653 C648 1.390 . S
C653 C652 1.387 . S
H654 C666 0.930 . S
H655 C668 0.930 . S
H656 C669 0.930 . S
H657 C673 0.959 . S
H658 C673 0.959 . S
H659 C673 0.961 1_545 S
H660 C674 0.960 1_545 S
H661 C674 0.961 . S
H662 C674 0.959 . S
H663 C677 0.929 . S
H664 C678 0.931 . S
H665 C680 0.930 . S
C666 H654 0.930 . S
C666 C667 1.399 . S
C666 C671 1.399 . S
C667 C666 1.399 . S
C667 C668 1.376 1_554 S
C668 H655 0.930 . S
C668 C667 1.376 1_556 S
C668 C669 1.388 . S
C669 H656 0.930 . S
C669 C668 1.388 . S
C669 C670 1.390 1_556 S
C670 C669 1.390 1_554 S
C670 C671 1.394 . S
C670 C676 1.465 1_545 S
C671 C666 1.399 . S
C671 C670 1.394 . S
C671 C672 1.516 1_545 S
C672 C671 1.516 1_565 S
C672 C673 1.502 . S
C672 C674 1.561 . S
C672 C675 1.526 . S
C673 H657 0.959 . S
C673 H658 0.959 . S
C673 H659 0.961 1_565 S
C673 C672 1.502 . S
C674 H660 0.960 1_565 S
C674 H661 0.961 . S
C674 H662 0.959 . S
C674 C672 1.561 . S
C675 C672 1.526 . S
C675 C676 1.396 . S
C675 C680 1.390 . S
C676 C670 1.465 1_565 S
C676 C675 1.396 . S
C676 C677 1.399 1_554 S
C677 H663 0.929 . S
C677 C676 1.399 1_556 S
C677 C678 1.385 . S
C678 H664 0.931 . S
C678 C677 1.385 . S
C678 C679 1.389 1_556 S
C679 C678 1.389 1_554 S
C679 C680 1.387 . S
C680 H665 0.930 . S
C680 C675 1.390 . S
C680 C679 1.387 . S
H681 C693 0.930 . S
H682 C695 0.930 . S
H683 C696 0.930 . S
H684 C700 0.959 . S
H685 C700 0.959 . S
H686 C700 0.961 . S
H687 C701 0.960 . S
H688 C701 0.961 . S
H689 C701 0.959 . S
H690 C704 0.929 . S
H691 C705 0.931 . S
H692 C707 0.930 . S
C693 H681 0.930 . S
C693 C694 1.399 . S
C693 C698 1.399 . S
C694 C693 1.399 . S
C694 C695 1.376 . S
C695 H682 0.930 . S
C695 C694 1.376 . S
C695 C696 1.388 . S
C696 H683 0.930 . S
C696 C695 1.388 . S
C696 C697 1.390 . S
C697 C696 1.390 . S
C697 C698 1.394 . S
C697 C703 1.465 . S
C698 C693 1.399 . S
C698 C697 1.394 . S
C698 C699 1.516 . S
C699 C698 1.516 . S
C699 C700 1.502 . S
C699 C701 1.561 . S
C699 C702 1.526 . S
C700 H684 0.959 . S
C700 H685 0.959 . S
C700 H686 0.961 . S
C700 C699 1.502 . S
C701 H687 0.960 . S
C701 H688 0.961 . S
C701 H689 0.959 . S
C701 C699 1.561 . S
C702 C699 1.526 . S
C702 C703 1.396 . S
C702 C707 1.390 . S
C703 C697 1.465 . S
C703 C702 1.396 . S
C703 C704 1.399 . S
C704 H690 0.929 . S
C704 C703 1.399 . S
C704 C705 1.385 . S
C705 H691 0.931 . S
C705 C704 1.385 . S
C705 C706 1.389 . S
C706 C705 1.389 . S
C706 C707 1.387 . S
C707 H692 0.930 . S
C707 C702 1.390 . S
C707 C706 1.387 . S
H708 C720 0.930 . S
H709 C722 0.930 . S
H710 C723 0.930 . S
H711 C727 0.960 . S
H712 C727 0.959 1_655 S
H713 C727 0.961 . S
H714 C728 0.960 . S
H715 C728 0.961 1_655 S
H716 C728 0.966 . S
H717 C731 0.929 . S
H718 C732 0.931 . S
H719 C734 0.930 . S
C720 H708 0.930 . S
C720 C721 1.399 . S
C720 C725 1.399 . S
C721 C720 1.399 . S
C721 C722 1.376 . S
C722 H709 0.930 . S
C722 C721 1.376 . S
C722 C723 1.388 . S
C723 H710 0.930 . S
C723 C722 1.388 . S
C723 C724 1.390 . S
C724 C723 1.390 . S
C724 C725 1.394 . S
C724 C730 1.465 1_455 S
C725 C720 1.399 . S
C725 C724 1.394 . S
C725 C726 1.516 . S
C726 C725 1.516 . S
C726 C727 1.502 . S
C726 C728 1.561 . S
C726 C729 1.526 1_455 S
C727 H711 0.960 . S
C727 H712 0.959 1_455 S
C727 H713 0.961 . S
C727 C726 1.502 . S
C728 H714 0.960 . S
C728 H715 0.961 1_455 S
C728 H716 0.966 . S
C728 C726 1.561 . S
C729 C726 1.526 1_655 S
C729 C730 1.396 . S
C729 C734 1.390 . S
C730 C724 1.465 1_655 S
C730 C729 1.396 . S
C730 C731 1.399 . S
C731 H717 0.929 . S
C731 C730 1.399 . S
C731 C732 1.385 . S
C732 H718 0.931 . S
C732 C731 1.385 . S
C732 C733 1.389 . S
C733 C732 1.389 . S
C733 C734 1.387 . S
C734 H719 0.930 . S
C734 C729 1.390 . S
C734 C733 1.387 . S
H735 C747 0.930 . S
H736 C749 0.930 . S
H737 C750 0.930 . S
H738 C754 0.961 . S
H739 C754 0.962 . S
H740 C754 0.953 1_565 S
H741 C755 0.960 . S
H742 C755 0.961 1_545 S
H743 C755 0.959 . S
H744 C758 0.929 . S
H745 C759 0.931 . S
H746 C761 0.930 . S
C747 H735 0.930 . S
C747 C748 1.399 . S
C747 C752 1.399 . S
C748 C747 1.399 . S
C748 C749 1.376 . S
C749 H736 0.930 . S
C749 C748 1.376 . S
C749 C750 1.388 . S
C750 H737 0.930 . S
C750 C749 1.388 . S
C750 C751 1.390 . S
C751 C750 1.390 . S
C751 C752 1.394 . S
C751 C757 1.465 1_565 S
C752 C747 1.399 . S
C752 C751 1.394 . S
C752 C753 1.533 . S
C753 C752 1.533 . S
C753 C754 1.525 1_565 S
C753 C755 1.564 . S
C753 C756 1.484 1_565 S
C754 H738 0.961 . S
C754 H739 0.962 . S
C754 H740 0.953 1_545 S
C754 C753 1.525 1_545 S
C755 H741 0.960 . S
C755 H742 0.961 1_565 S
C755 H743 0.959 . S
C755 C753 1.564 . S
C756 C753 1.484 1_545 S
C756 C757 1.396 . S
C756 C761 1.390 . S
C757 C751 1.465 1_545 S
C757 C756 1.396 . S
C757 C758 1.399 . S
C758 H744 0.929 . S
C758 C757 1.399 . S
C758 C759 1.385 . S
C759 H745 0.931 . S
C759 C758 1.385 . S
C759 C760 1.389 . S
C760 C759 1.389 . S
C760 C761 1.387 . S
C761 H746 0.930 . S
C761 C756 1.390 . S
C761 C760 1.387 . S
H762 C774 0.930 . S
H763 C776 0.930 . S
H764 C777 0.930 . S
H765 C781 0.959 . S
H766 C781 0.959 . S
H767 C781 0.961 . S
H768 C782 0.960 . S
H769 C782 0.961 . S
H770 C782 0.959 . S
H771 C785 0.929 . S
H772 C786 0.931 . S
H773 C788 0.930 . S
C774 H762 0.930 . S
C774 C775 1.399 . S
C774 C779 1.399 . S
C775 C774 1.399 . S
C775 C776 1.376 . S
C776 H763 0.930 . S
C776 C775 1.376 . S
C776 C777 1.388 . S
C777 H764 0.930 . S
C777 C776 1.388 . S
C777 C778 1.390 . S
C778 C777 1.390 . S
C778 C779 1.394 . S
C778 C784 1.465 . S
C779 C774 1.399 . S
C779 C778 1.394 . S
C779 C780 1.516 . S
C780 C779 1.516 . S
C780 C781 1.502 . S
C780 C782 1.561 . S
C780 C783 1.526 . S
C781 H765 0.959 . S
C781 H766 0.959 . S
C781 H767 0.961 . S
C781 C780 1.502 . S
C782 H768 0.960 . S
C782 H769 0.961 . S
C782 H770 0.959 . S
C782 C780 1.561 . S
C783 C780 1.526 . S
C783 C784 1.396 . S
C783 C788 1.390 . S
C784 C778 1.465 . S
C784 C783 1.396 . S
C784 C785 1.399 . S
C785 H771 0.929 . S
C785 C784 1.399 . S
C785 C786 1.385 . S
C786 H772 0.931 . S
C786 C785 1.385 . S
C786 C787 1.389 . S
C787 C786 1.389 . S
C787 C788 1.387 . S
C788 H773 0.930 . S
C788 C783 1.390 . S
C788 C787 1.387 . S
H789 C801 0.930 . S
H790 C803 0.930 . S
H791 C804 0.930 . S
H792 C808 0.959 . S
H793 C808 0.959 . S
H794 C808 0.961 1_455 S
H795 C809 0.968 1_455 S
H796 C809 0.961 . S
H797 C809 0.959 . S
H798 C812 0.929 . S
H799 C813 0.931 . S
H800 C815 0.930 . S
C801 H789 0.930 . S
C801 C802 1.399 . S
C801 C806 1.399 . S
C802 C801 1.399 . S
C802 C803 1.376 . S
C803 H790 0.930 . S
C803 C802 1.376 . S
C803 C804 1.388 . S
C804 H791 0.930 . S
C804 C803 1.388 . S
C804 C805 1.390 . S
C805 C804 1.390 . S
C805 C806 1.394 . S
C805 C811 1.465 1_455 S
C806 C801 1.399 . S
C806 C805 1.394 . S
C806 C807 1.516 1_455 S
C807 C806 1.516 1_655 S
C807 C808 1.502 . S
C807 C809 1.561 . S
C807 C810 1.526 . S
C808 H792 0.959 . S
C808 H793 0.959 . S
C808 H794 0.961 1_655 S
C808 C807 1.502 . S
C809 H795 0.968 1_655 S
C809 H796 0.961 . S
C809 H797 0.959 . S
C809 C807 1.561 . S
C810 C807 1.526 . S
C810 C811 1.396 . S
C810 C815 1.390 . S
C811 C805 1.465 1_655 S
C811 C810 1.396 . S
C811 C812 1.399 . S
C812 H798 0.929 . S
C812 C811 1.399 . S
C812 C813 1.385 . S
C813 H799 0.931 . S
C813 C812 1.385 . S
C813 C814 1.389 . S
C814 C813 1.389 . S
C814 C815 1.387 . S
C815 H800 0.930 . S
C815 C810 1.390 . S
C815 C814 1.387 . S
C181 C8 1.606 . S
C193 C148 1.599 . S
C208 C22 1.563 . S
C220 C162 1.588 . S
C235 C92 1.543 . S
C247 C36 1.563 . S
C262 C50 1.541 . S
C274 C106 1.541 . S
C289 C120 1.596 . S
C301 C64 1.573 . S
C316 C134 1.561 . S
C328 C78 1.543 1_554 S
C343 C119 1.095 . S
C355 C7 1.066 . S
C370 C21 1.046 . S
C382 C133 1.082 . S
C397 C147 1.059 . S
C409 C35 1.099 . S
C424 C49 1.088 . S
C436 C161 1.044 . S
C451 C63 1.095 . S
C463 C91 1.068 . S
C478 C77 1.091 . S
C490 C105 1.044 1_556 S
C505 C151 1.394 . S
C517 C11 1.395 . S
C532 C165 1.395 . S
C544 C25 1.394 . S
C559 C95 1.395 1_554 S
C571 C39 1.395 . S
C586 C53 1.395 . S
C598 C109 1.395 . S
C613 C67 1.394 . S
C625 C123 1.395 . S
C640 C137 1.395 . S
C652 C81 1.395 . S
C667 C13 1.222 . S
C679 C111 1.147 . S
C694 C125 1.155 . S
C706 C27 1.199 . S
C721 C139 1.160 . S
C733 C41 1.237 . S
C748 C55 1.203 . S
C760 C153 1.217 . S
C775 C69 1.182 . S
C787 C167 1.170 . S
C802 C83 1.197 . S
C814 C97 1.158 . S
