# Generated by pormake.
# Topology uot, (4)-cn, num edge types: 1
# Building blocks:
#     Node 0, Type 0, BuildingBlock: CEKHIL_clean_sbu_0, # of connection points: 4
#     Node 1, Type 0, BuildingBlock: CEKHIL_clean_sbu_0, # of connection points: 4
#     Node 2, Type 0, BuildingBlock: CEKHIL_clean_sbu_0, # of connection points: 4
#     Node 3, Type 0, BuildingBlock: CEKHIL_clean_sbu_0, # of connection points: 4
#     Node 4, Type 0, BuildingBlock: CEKHIL_clean_sbu_0, # of connection points: 4
#     Node 5, Type 0, BuildingBlock: CEKHIL_clean_sbu_0, # of connection points: 4
#     Node 6, Type 0, BuildingBlock: CEKHIL_clean_sbu_0, # of connection points: 4
#     Node 7, Type 0, BuildingBlock: CEKHIL_clean_sbu_0, # of connection points: 4
#     Node 8, Type 0, BuildingBlock: CEKHIL_clean_sbu_0, # of connection points: 4
#     Node 9, Type 0, BuildingBlock: CEKHIL_clean_sbu_0, # of connection points: 4
#     Node 10, Type 0, BuildingBlock: CEKHIL_clean_sbu_0, # of connection points: 4
#     Node 11, Type 0, BuildingBlock: CEKHIL_clean_sbu_0, # of connection points: 4
#     Node 12, Type 0, BuildingBlock: CEKHIL_clean_sbu_0, # of connection points: 4
#     Node 13, Type 0, BuildingBlock: CEKHIL_clean_sbu_0, # of connection points: 4
#     Node 14, Type 0, BuildingBlock: CEKHIL_clean_sbu_0, # of connection points: 4
#     Node 15, Type 0, BuildingBlock: CEKHIL_clean_sbu_0, # of connection points: 4
#     Edge 16, Type (0, 0), BuildingBlock: AJUNOK_clean_linker_0, # of connection points: 2
#     Edge 17, Type (0, 0), BuildingBlock: AJUNOK_clean_linker_0, # of connection points: 2
#     Edge 18, Type (0, 0), BuildingBlock: AJUNOK_clean_linker_0, # of connection points: 2
#     Edge 19, Type (0, 0), BuildingBlock: AJUNOK_clean_linker_0, # of connection points: 2
#     Edge 20, Type (0, 0), BuildingBlock: AJUNOK_clean_linker_0, # of connection points: 2
#     Edge 21, Type (0, 0), BuildingBlock: AJUNOK_clean_linker_0, # of connection points: 2
#     Edge 22, Type (0, 0), BuildingBlock: AJUNOK_clean_linker_0, # of connection points: 2
#     Edge 23, Type (0, 0), BuildingBlock: AJUNOK_clean_linker_0, # of connection points: 2
#     Edge 24, Type (0, 0), BuildingBlock: AJUNOK_clean_linker_0, # of connection points: 2
#     Edge 25, Type (0, 0), BuildingBlock: AJUNOK_clean_linker_0, # of connection points: 2
#     Edge 26, Type (0, 0), BuildingBlock: AJUNOK_clean_linker_0, # of connection points: 2
#     Edge 27, Type (0, 0), BuildingBlock: AJUNOK_clean_linker_0, # of connection points: 2
#     Edge 28, Type (0, 0), BuildingBlock: AJUNOK_clean_linker_0, # of connection points: 2
#     Edge 29, Type (0, 0), BuildingBlock: AJUNOK_clean_linker_0, # of connection points: 2
#     Edge 30, Type (0, 0), BuildingBlock: AJUNOK_clean_linker_0, # of connection points: 2
#     Edge 31, Type (0, 0), BuildingBlock: AJUNOK_clean_linker_0, # of connection points: 2
#     Edge 32, Type (0, 0), BuildingBlock: AJUNOK_clean_linker_0, # of connection points: 2
#     Edge 33, Type (0, 0), BuildingBlock: AJUNOK_clean_linker_0, # of connection points: 2
#     Edge 34, Type (0, 0), BuildingBlock: AJUNOK_clean_linker_0, # of connection points: 2
#     Edge 35, Type (0, 0), BuildingBlock: AJUNOK_clean_linker_0, # of connection points: 2
#     Edge 36, Type (0, 0), BuildingBlock: AJUNOK_clean_linker_0, # of connection points: 2
#     Edge 37, Type (0, 0), BuildingBlock: AJUNOK_clean_linker_0, # of connection points: 2
#     Edge 38, Type (0, 0), BuildingBlock: AJUNOK_clean_linker_0, # of connection points: 2
#     Edge 39, Type (0, 0), BuildingBlock: AJUNOK_clean_linker_0, # of connection points: 2
#     Edge 40, Type (0, 0), BuildingBlock: AJUNOK_clean_linker_0, # of connection points: 2
#     Edge 41, Type (0, 0), BuildingBlock: AJUNOK_clean_linker_0, # of connection points: 2
#     Edge 42, Type (0, 0), BuildingBlock: AJUNOK_clean_linker_0, # of connection points: 2
#     Edge 43, Type (0, 0), BuildingBlock: AJUNOK_clean_linker_0, # of connection points: 2
#     Edge 44, Type (0, 0), BuildingBlock: AJUNOK_clean_linker_0, # of connection points: 2
#     Edge 45, Type (0, 0), BuildingBlock: AJUNOK_clean_linker_0, # of connection points: 2
#     Edge 46, Type (0, 0), BuildingBlock: AJUNOK_clean_linker_0, # of connection points: 2
#     Edge 47, Type (0, 0), BuildingBlock: AJUNOK_clean_linker_0, # of connection points: 2
# Relax obj value: 0.066
# Max RMSD: 0.083
# Mean RMSD: 0.083
data_MOF--net-uot--node1-CEKHIL_clean_sbu_0--edge1-AJUNOK_clean_linker_0
_symmetry_space_group_name_H-M    P1
_symmetry_Int_Tables_number       1
_symmetry_cell_setting            triclinic
loop_
_symmetry_equiv_pos_as_xyz
'x, y, z'
_cell_length_a     32.617647
_cell_length_b     32.619271
_cell_length_c     29.661467
_cell_angle_alpha  90.052323
_cell_angle_beta   90.000662
_cell_angle_gamma 90.003981
loop_
_atom_site_label
_atom_site_type_symbol
_atom_site_fract_x
_atom_site_fract_y
_atom_site_fract_z
_atom_type_partial_charge
Co0 Co 0.18657 0.40681 0.33694 0.0
O1 O 0.20979 0.36119 0.36917 0.0
O2 O 0.24576 0.40613 0.32991 0.0
C3 C 0.1354 0.37084 0.30324 0.0
O4 O 0.1736 0.45709 0.29848 0.0
Co5 Co 0.0961 0.43548 0.3518 0.0
O6 O 0.10522 0.46582 0.29486 0.0
C7 C 0.1627 0.46341 0.41362 0.0
C8 C 0.2453 0.37302 0.35433 0.0
C9 C 0.14146 0.47468 0.28226 0.0
O10 O 0.19043 0.44313 0.39214 0.0
O11 O 0.1245 0.46262 0.40364 0.0
O12 O 0.17217 0.37071 0.28643 0.0
O13 O 0.13176 0.3895 0.34132 0.0
Co14 Co 0.40466 0.8207 0.65883 0.0
O15 O 0.3573 0.79532 0.63286 0.0
O16 O 0.40238 0.76323 0.67593 0.0
C17 C 0.37298 0.87774 0.68493 0.0
O18 O 0.45674 0.83819 0.69181 0.0
Co19 Co 0.43348 0.9044 0.61796 0.0
O20 O 0.47601 0.90029 0.66545 0.0
C21 C 0.4495 0.82756 0.56947 0.0
C22 C 0.36875 0.76164 0.65233 0.0
C23 C 0.4809 0.86948 0.69135 0.0
O24 O 0.43823 0.80641 0.60381 0.0
O25 O 0.44562 0.86648 0.56667 0.0
O26 O 0.37142 0.84378 0.70769 0.0
O27 O 0.38908 0.87459 0.64538 0.0
Co28 Co 0.8217 0.5968 0.33012 0.0
O29 O 0.79804 0.6467 0.35183 0.0
O30 O 0.76303 0.59745 0.31787 0.0
C31 C 0.87609 0.62561 0.29498 0.0
O32 O 0.83728 0.54149 0.30281 0.0
Co33 Co 0.90851 0.57308 0.36657 0.0
O34 O 0.90163 0.52575 0.32523 0.0
C35 C 0.83572 0.56245 0.4239 0.0
C36 C 0.76313 0.63344 0.33695 0.0
C37 C 0.86888 0.51773 0.30345 0.0
O38 O 0.81194 0.56961 0.39029 0.0
O39 O 0.87468 0.56693 0.42256 0.0
O40 O 0.84059 0.62401 0.27525 0.0
O41 O 0.87619 0.61428 0.33661 0.0
Co42 Co 0.59653 0.18639 0.6632 0.0
O43 O 0.64608 0.20884 0.63865 0.0
O44 O 0.59756 0.24559 0.67148 0.0
C45 C 0.62659 0.13403 0.7008 0.0
O46 O 0.54191 0.17294 0.69348 0.0
Co47 Co 0.57077 0.09756 0.63542 0.0
O48 O 0.52475 0.10735 0.67773 0.0
C49 C 0.56092 0.16597 0.57162 0.0
C50 C 0.63326 0.2445 0.65183 0.0
C51 C 0.51797 0.14164 0.69696 0.0
O52 O 0.56817 0.19234 0.6029 0.0
O53 O 0.5652 0.12726 0.57671 0.0
O54 O 0.62518 0.17043 0.71852 0.0
O55 O 0.61365 0.13161 0.65985 0.0
Co56 Co 0.1892 0.59674 0.66255 0.0
O57 O 0.21166 0.64599 0.63769 0.0
O58 O 0.24851 0.59668 0.66904 0.0
C59 C 0.13883 0.62746 0.70262 0.0
O60 O 0.17576 0.5423 0.69287 0.0
Co61 Co 0.09865 0.5725 0.64004 0.0
O62 O 0.10714 0.53345 0.69041 0.0
C63 C 0.16471 0.55921 0.57308 0.0
C64 C 0.24733 0.63275 0.6503 0.0
C65 C 0.14273 0.52326 0.70413 0.0
O66 O 0.19263 0.5685 0.60199 0.0
O67 O 0.12621 0.56276 0.58061 0.0
O68 O 0.17584 0.62541 0.71853 0.0
O69 O 0.13464 0.61491 0.66166 0.0
Co70 Co 0.59945 0.81588 0.33593 0.0
O71 O 0.6474 0.79117 0.36138 0.0
O72 O 0.60218 0.7583 0.31914 0.0
C73 C 0.63065 0.87279 0.30875 0.0
O74 O 0.54696 0.83238 0.30325 0.0
Co75 Co 0.56979 0.90053 0.37381 0.0
O76 O 0.53248 0.89819 0.32111 0.0
C77 C 0.55468 0.82459 0.42493 0.0
C78 C 0.63637 0.75737 0.34179 0.0
C79 C 0.52587 0.86552 0.29868 0.0
O80 O 0.56661 0.80231 0.39165 0.0
O81 O 0.55758 0.86369 0.42596 0.0
O82 O 0.63198 0.83856 0.2864 0.0
O83 O 0.61478 0.8701 0.34845 0.0
Co84 Co 0.81639 0.40688 0.65568 0.0
O85 O 0.79154 0.36087 0.62585 0.0
O86 O 0.75808 0.40491 0.66889 0.0
C87 C 0.87073 0.37211 0.6841 0.0
O88 O 0.8322 0.45713 0.69307 0.0
Co89 Co 0.90452 0.43669 0.62984 0.0
O90 O 0.90064 0.46567 0.68839 0.0
C91 C 0.83231 0.4624 0.57565 0.0
C92 C 0.7573 0.37156 0.64478 0.0
C93 C 0.86598 0.47401 0.70587 0.0
O94 O 0.80703 0.4432 0.60143 0.0
O95 O 0.87132 0.4616 0.58029 0.0
O96 O 0.83539 0.37107 0.70423 0.0
O97 O 0.87085 0.39049 0.64565 0.0
Co98 Co 0.40792 0.1928 0.33746 0.0
O99 O 0.36161 0.21486 0.36936 0.0
O100 O 0.40698 0.25224 0.33237 0.0
C101 C 0.37286 0.14298 0.30068 0.0
O102 O 0.459 0.18029 0.29977 0.0
Co103 Co 0.4351 0.10172 0.3518 0.0
O104 O 0.46642 0.11168 0.29568 0.0
C105 C 0.46349 0.16732 0.41444 0.0
C106 C 0.37324 0.25078 0.35578 0.0
C107 C 0.47613 0.14784 0.28356 0.0
O108 O 0.44325 0.19532 0.39345 0.0
O109 O 0.46253 0.12921 0.40406 0.0
O110 O 0.37312 0.18029 0.28557 0.0
O111 O 0.39005 0.13797 0.33943 0.0
Co112 Co 0.68524 0.90484 0.83402 0.0
O113 O 0.7044 0.85278 0.85437 0.0
O114 O 0.74399 0.89923 0.82225 0.0
C115 C 0.62955 0.88045 0.79739 0.0
O116 O 0.67391 0.96145 0.80733 0.0
Co117 Co 0.59951 0.93406 0.86911 0.0
O118 O 0.60957 0.98016 0.82711 0.0
C119 C 0.67188 0.93852 0.92825 0.0
C120 C 0.74017 0.86242 0.83884 0.0
C121 C 0.64322 0.98641 0.80633 0.0
O122 O 0.69601 0.93016 0.89518 0.0
O123 O 0.63276 0.9367 0.9257 0.0
O124 O 0.66529 0.8801 0.77818 0.0
O125 O 0.62956 0.89116 0.83923 0.0
Co126 Co 0.90726 0.3123 0.1651 0.0
O127 O 0.85669 0.29244 0.14039 0.0
O128 O 0.90343 0.25317 0.17282 0.0
C129 C 0.88022 0.36585 0.20331 0.0
O130 O 0.96258 0.32308 0.19522 0.0
Co131 Co 0.9369 0.40015 0.13777 0.0
O132 O 0.98098 0.38882 0.18203 0.0
C133 C 0.94436 0.33125 0.07395 0.0
C134 C 0.86798 0.25609 0.15282 0.0
C135 C 0.98695 0.35389 0.20009 0.0
O136 O 0.93521 0.3052 0.10484 0.0
O137 O 0.94216 0.37013 0.07917 0.0
O138 O 0.8796 0.32929 0.22062 0.0
O139 O 0.89278 0.36784 0.1622 0.0
Co140 Co 0.31395 0.09993 0.83186 0.0
O141 O 0.29114 0.14737 0.86095 0.0
O142 O 0.25528 0.10234 0.82155 0.0
C143 C 0.36769 0.13255 0.79946 0.0
O144 O 0.32713 0.04807 0.79611 0.0
Co145 Co 0.40208 0.06897 0.85492 0.0
O146 O 0.39539 0.03785 0.798 0.0
C147 C 0.33108 0.04526 0.91229 0.0
C148 C 0.25592 0.13627 0.84465 0.0
C149 C 0.35985 0.02963 0.78271 0.0
O150 O 0.30574 0.06575 0.88789 0.0
O151 O 0.36985 0.04423 0.90555 0.0
O152 O 0.3317 0.13336 0.78078 0.0
O153 O 0.36911 0.11565 0.83872 0.0
Co154 Co 0.10393 0.6864 0.16035 0.0
O155 O 0.15252 0.71038 0.13527 0.0
O156 O 0.10826 0.74375 0.17807 0.0
C157 C 0.13359 0.62817 0.18646 0.0
O158 O 0.05093 0.67041 0.1926 0.0
Co159 Co 0.0732 0.60358 0.11853 0.0
O160 O 0.03008 0.60912 0.1652 0.0
C161 C 0.05824 0.68116 0.07106 0.0
C162 C 0.1424 0.74424 0.15528 0.0
C163 C 0.02574 0.63993 0.19127 0.0
O164 O 0.07092 0.70197 0.10517 0.0
O165 O 0.06116 0.64217 0.06796 0.0
O166 O 0.13596 0.66199 0.20942 0.0
O167 O 0.11801 0.63204 0.14675 0.0
Co168 Co 0.68359 0.09476 0.15938 0.0
O169 O 0.70674 0.141 0.12823 0.0
O170 O 0.74168 0.09918 0.17246 0.0
C171 C 0.62764 0.12846 0.18628 0.0
O172 O 0.67062 0.04463 0.19793 0.0
Co173 Co 0.59699 0.05962 0.13638 0.0
O174 O 0.60315 0.0305 0.19445 0.0
C175 C 0.67018 0.03472 0.0828 0.0
C176 C 0.74142 0.13168 0.1471 0.0
C177 C 0.63865 0.02485 0.21108 0.0
O178 O 0.69454 0.05745 0.10615 0.0
O179 O 0.63135 0.03305 0.08878 0.0
O180 O 0.66274 0.13124 0.20674 0.0
O181 O 0.62832 0.10833 0.14886 0.0
Co182 Co 0.09226 0.31851 0.8351 0.0
O183 O 0.1394 0.29572 0.86482 0.0
O184 O 0.09549 0.26009 0.82371 0.0
C185 C 0.1251 0.37317 0.80456 0.0
O186 O 0.04101 0.33142 0.79827 0.0
Co187 Co 0.06007 0.40632 0.85926 0.0
O188 O 0.02393 0.39804 0.80657 0.0
C189 C 0.03719 0.33465 0.91566 0.0
C190 C 0.12908 0.26072 0.84734 0.0
C191 C 0.01898 0.36295 0.78858 0.0
O192 O 0.05706 0.3094 0.89039 0.0
O193 O 0.03677 0.37352 0.90992 0.0
O194 O 0.12688 0.33745 0.78529 0.0
O195 O 0.10703 0.37368 0.84321 0.0
Co196 Co 0.32111 0.91511 0.16141 0.0
O197 O 0.30094 0.86381 0.13866 0.0
O198 O 0.26308 0.90914 0.17515 0.0
C199 C 0.37874 0.88969 0.19398 0.0
O200 O 0.33215 0.97068 0.19096 0.0
Co201 Co 0.40414 0.94867 0.12488 0.0
O202 O 0.39401 0.99379 0.16803 0.0
C203 C 0.33097 0.95132 0.06801 0.0
C204 C 0.26551 0.87359 0.15535 0.0
C205 C 0.36118 0.99752 0.19093 0.0
O206 O 0.30799 0.943 0.10206 0.0
O207 O 0.37009 0.94969 0.06909 0.0
O208 O 0.34366 0.88753 0.21456 0.0
O209 O 0.37694 0.90293 0.15307 0.0
Co210 Co 0.91022 0.68208 0.83768 0.0
O211 O 0.85908 0.70231 0.85986 0.0
O212 O 0.90292 0.73937 0.82031 0.0
C213 C 0.88505 0.62258 0.80891 0.0
O214 O 0.96551 0.66964 0.80842 0.0
Co215 Co 0.94359 0.60155 0.88104 0.0
O216 O 0.98843 0.60957 0.83686 0.0
C217 C 0.95018 0.67898 0.93033 0.0
C218 C 0.86737 0.73671 0.84013 0.0
C219 C 0.99232 0.64069 0.81121 0.0
O220 O 0.93936 0.69908 0.89501 0.0
O221 O 0.94864 0.63992 0.93324 0.0
O222 O 0.88218 0.65657 0.78644 0.0
O223 O 0.89851 0.62665 0.84959 0.0
C224 C 0.3151 0.34891 0.33008 0.0
C225 C 0.2823 0.34716 0.36094 0.0
C226 C 0.34645 0.31924 0.33057 0.0
C227 C 0.34604 0.28686 0.36193 0.0
H228 H 0.31531 0.37182 0.30367 0.0
H229 H 0.36964 0.32026 0.30444 0.0
S230 S 0.27155 0.27335 0.45533 0.0
N231 N 0.25473 0.31389 0.42768 0.0
N232 N 0.31334 0.25842 0.42858 0.0
C233 C 0.31531 0.28689 0.39521 0.0
C234 C 0.28352 0.31696 0.39471 0.0
C235 C 0.31098 0.72406 0.61667 0.0
C236 C 0.34292 0.72436 0.64854 0.0
C237 C 0.28189 0.69267 0.6158 0.0
C238 C 0.28344 0.66003 0.64662 0.0
H239 H 0.30739 0.7491 0.59303 0.0
H240 H 0.25696 0.69492 0.59176 0.0
S241 S 0.3632 0.64384 0.73397 0.0
N242 N 0.3764 0.68736 0.70948 0.0
N243 N 0.3214 0.628 0.70775 0.0
C244 C 0.31669 0.65832 0.67681 0.0
C245 C 0.34649 0.69059 0.67781 0.0
C246 C 0.69584 0.72082 0.37506 0.0
C247 C 0.66366 0.72102 0.34352 0.0
C248 C 0.72645 0.69094 0.37383 0.0
C249 C 0.72629 0.65974 0.34111 0.0
H250 H 0.69835 0.74485 0.40015 0.0
H251 H 0.75126 0.69317 0.39801 0.0
S252 S 0.64692 0.64392 0.25328 0.0
N253 N 0.63174 0.68548 0.28046 0.0
N254 N 0.68961 0.62889 0.27831 0.0
C255 C 0.69302 0.65787 0.311 0.0
C256 C 0.66162 0.68862 0.31217 0.0
C257 C 0.69282 0.27889 0.61567 0.0
C258 C 0.65992 0.28104 0.64624 0.0
C259 C 0.72261 0.30967 0.61374 0.0
C260 C 0.72105 0.34399 0.64245 0.0
H261 H 0.69646 0.25246 0.59389 0.0
H262 H 0.74799 0.30556 0.59061 0.0
S263 S 0.63907 0.36636 0.72578 0.0
N264 N 0.62565 0.32187 0.70356 0.0
N265 N 0.68196 0.37989 0.70017 0.0
C266 C 0.68701 0.34785 0.67142 0.0
C267 C 0.65639 0.31635 0.67325 0.0
C268 C 0.81495 0.84158 0.83379 0.0
C269 C 0.77317 0.83099 0.83739 0.0
C270 C 0.84577 0.81113 0.83392 0.0
C271 C 0.83565 0.76927 0.83775 0.0
H272 H 0.8239 0.87349 0.83166 0.0
H273 H 0.87759 0.82043 0.83196 0.0
S274 S 0.73067 0.72525 0.84108 0.0
N275 N 0.72354 0.77526 0.84007 0.0
N276 N 0.78079 0.71887 0.84046 0.0
C277 C 0.79396 0.75845 0.8395 0.0
C278 C 0.76291 0.78908 0.83929 0.0
C279 C 0.80947 0.15738 0.17528 0.0
C280 C 0.77746 0.15932 0.14339 0.0
C281 C 0.84032 0.18753 0.1767 0.0
C282 C 0.84009 0.22068 0.14639 0.0
H283 H 0.80964 0.13358 0.20071 0.0
H284 H 0.86317 0.18602 0.20316 0.0
S285 S 0.76742 0.23593 0.05157 0.0
N286 N 0.75073 0.19428 0.07723 0.0
N287 N 0.80828 0.25073 0.08008 0.0
C288 C 0.80994 0.22132 0.11248 0.0
C289 C 0.77875 0.1907 0.11093 0.0
C290 C 0.19137 0.2274 0.8793 0.0
C291 C 0.15693 0.22483 0.8509 0.0
C292 C 0.22201 0.1974 0.87857 0.0
C293 C 0.21963 0.16342 0.84945 0.0
H294 H 0.19561 0.25362 0.90124 0.0
H295 H 0.24854 0.20177 0.90003 0.0
S296 S 0.13372 0.13984 0.77154 0.0
N297 N 0.12055 0.18371 0.79529 0.0
N298 N 0.17829 0.12717 0.79398 0.0
C299 C 0.18418 0.15904 0.82278 0.0
C300 C 0.15281 0.18978 0.8235 0.0
C301 C 0.2348 0.80916 0.12561 0.0
C302 C 0.23085 0.84404 0.15317 0.0
C303 C 0.20526 0.77812 0.12562 0.0
C304 C 0.17027 0.78031 0.15329 0.0
H305 H 0.2615 0.80519 0.10431 0.0
H306 H 0.21058 0.75167 0.10432 0.0
S307 S 0.14364 0.86644 0.22976 0.0
N308 N 0.18794 0.88011 0.20731 0.0
N309 N 0.13219 0.82145 0.20743 0.0
C310 C 0.16492 0.81575 0.17982 0.0
C311 C 0.19521 0.84766 0.17973 0.0
C312 C 0.12196 0.51541 0.21465 0.0
C313 C 0.14619 0.51113 0.25348 0.0
C314 C 0.12007 0.5528 0.19149 0.0
C315 C 0.14116 0.58763 0.20731 0.0
H316 H 0.10337 0.49001 0.20294 0.0
H317 H 0.10023 0.55479 0.16236 0.0
S318 S 0.21027 0.59162 0.30656 0.0
N319 N 0.1935 0.54385 0.30548 0.0
N320 N 0.18884 0.61465 0.26293 0.0
C321 C 0.16663 0.58327 0.24527 0.0
C322 C 0.16939 0.54486 0.26812 0.0
C323 C 0.55561 0.8809 0.69943 0.0
C324 C 0.51825 0.86921 0.71925 0.0
C325 C 0.59162 0.88329 0.72485 0.0
C326 C 0.59141 0.87498 0.77131 0.0
H327 H 0.55701 0.88838 0.66385 0.0
H328 H 0.61956 0.89283 0.70815 0.0
S329 S 0.5015 0.84276 0.83921 0.0
N330 N 0.48316 0.84829 0.78763 0.0
N331 N 0.55083 0.854 0.83614 0.0
C332 C 0.5543 0.86299 0.79158 0.0
C333 C 0.51769 0.85967 0.76535 0.0
C334 C 0.86052 0.43971 0.2092 0.0
C335 C 0.87336 0.40326 0.23038 0.0
C336 C 0.85705 0.47655 0.23347 0.0
C337 C 0.86743 0.47823 0.27936 0.0
H338 H 0.85359 0.43987 0.17347 0.0
H339 H 0.84789 0.50415 0.21586 0.0
S340 S 0.90162 0.39146 0.35077 0.0
N341 N 0.895 0.37104 0.30033 0.0
N342 N 0.88968 0.44042 0.34551 0.0
C343 C 0.87954 0.44193 0.30107 0.0
C344 C 0.88219 0.40434 0.2767 0.0
C345 C 0.44219 0.13641 0.70179 0.0
C346 C 0.47971 0.14524 0.72296 0.0
C347 C 0.4056 0.13471 0.72647 0.0
C348 C 0.4055 0.14065 0.77344 0.0
H349 H 0.44127 0.12994 0.66595 0.0
H350 H 0.37758 0.12671 0.70894 0.0
S351 S 0.4958 0.16562 0.84444 0.0
N352 N 0.51462 0.16157 0.7929 0.0
N353 N 0.44603 0.15702 0.83992 0.0
C354 C 0.44278 0.15039 0.79483 0.0
C355 C 0.47989 0.15306 0.76942 0.0
C356 C 0.12704 0.48607 0.77474 0.0
C357 C 0.14547 0.48631 0.73207 0.0
C358 C 0.12273 0.4495 0.79894 0.0
C359 C 0.13552 0.41169 0.78067 0.0
H360 H 0.11483 0.51417 0.78891 0.0
H361 H 0.10773 0.45088 0.83145 0.0
S362 S 0.18759 0.39699 0.67053 0.0
N363 N 0.1787 0.44679 0.67322 0.0
N364 N 0.16964 0.37751 0.71801 0.0
C365 C 0.1554 0.41193 0.73853 0.0
C366 C 0.16052 0.44942 0.71434 0.0
C367 C 0.41732 0.85627 0.25679 0.0
C368 C 0.4179 0.88002 0.21714 0.0
C369 C 0.45324 0.8492 0.28162 0.0
C370 C 0.49078 0.86604 0.26787 0.0
H371 H 0.38876 0.84371 0.26928 0.0
H372 H 0.4513 0.83205 0.31283 0.0
S373 S 0.50988 0.92917 0.16654 0.0
N374 N 0.4604 0.91858 0.16451 0.0
N375 N 0.52723 0.90653 0.21249 0.0
C376 C 0.49222 0.8889 0.22803 0.0
C377 C 0.45592 0.89548 0.20221 0.0
C378 C 0.84375 0.54449 0.72577 0.0
C379 C 0.86482 0.50857 0.73762 0.0
C380 C 0.84959 0.58093 0.7501 0.0
C381 C 0.87602 0.58243 0.78763 0.0
H382 H 0.82459 0.54508 0.69592 0.0
H383 H 0.8341 0.60839 0.73866 0.0
S384 S 0.93528 0.49492 0.83423 0.0
N385 N 0.91138 0.47566 0.78995 0.0
N386 N 0.92094 0.54341 0.8372 0.0
C387 C 0.89525 0.54585 0.80131 0.0
C388 C 0.89008 0.50908 0.77582 0.0
C389 C 0.55116 0.1246 0.19068 0.0
C390 C 0.58832 0.14 0.20812 0.0
C391 C 0.51411 0.12963 0.21392 0.0
C392 C 0.51254 0.15155 0.25458 0.0
H393 H 0.55076 0.10676 0.15992 0.0
H394 H 0.48675 0.11495 0.20089 0.0
S395 S 0.5997 0.20199 0.31238 0.0
N396 N 0.62039 0.18068 0.26723 0.0
N397 N 0.55025 0.19125 0.31001 0.0
C398 C 0.5487 0.16958 0.27089 0.0
C399 C 0.58673 0.1636 0.24785 0.0
C400 C 0.635 0.06185 0.80019 0.0
C401 C 0.64589 0.02445 0.77986 0.0
C402 C 0.63081 0.09769 0.77461 0.0
C403 C 0.63629 0.09708 0.7276 0.0
H404 H 0.62862 0.06314 0.83603 0.0
H405 H 0.62134 0.12557 0.79152 0.0
S406 S 0.66638 0.00696 0.65863 0.0
N407 N 0.66377 0.98907 0.71065 0.0
N408 N 0.65486 0.0562 0.66202 0.0
C409 C 0.6483 0.06004 0.70707 0.0
C410 C 0.65342 0.02374 0.73335 0.0
C411 C 0.05986 0.3589 0.2983 0.0
C412 C 0.09853 0.35897 0.27696 0.0
C413 C 0.02353 0.35417 0.27352 0.0
C414 C 0.02468 0.34925 0.2266 0.0
H415 H 0.05744 0.36423 0.33426 0.0
H416 H 0.99435 0.35653 0.29082 0.0
S417 S 0.11727 0.34383 0.15463 0.0
N418 N 0.13536 0.35072 0.20612 0.0
N419 N 0.06687 0.34232 0.15974 0.0
C420 C 0.06289 0.34722 0.20503 0.0
C421 C 0.09994 0.3518 0.23019 0.0
C422 C 0.3823 0.99008 0.71553 0.0
C423 C 0.35641 0.99362 0.75312 0.0
C424 C 0.38546 0.95305 0.69182 0.0
C425 C 0.36403 0.91788 0.70597 0.0
H426 H 0.40119 0.01576 0.70528 0.0
H427 H 0.40654 0.95161 0.66374 0.0
S428 S 0.29046 0.91213 0.8011 0.0
N429 N 0.30689 0.96004 0.80178 0.0
N430 N 0.31412 0.88977 0.75841 0.0
C431 C 0.33689 0.92152 0.74257 0.0
C432 C 0.33277 0.95961 0.76587 0.0
C433 C 0.91424 0.62844 0.22239 0.0
C434 C 0.91428 0.63338 0.26948 0.0
C435 C 0.95049 0.63173 0.19749 0.0
C436 C 0.98799 0.641 0.2185 0.0
H437 H 0.88628 0.62052 0.20472 0.0
H438 H 0.94925 0.62641 0.16142 0.0
S439 S 0.00442 0.65942 0.34033 0.0
N440 N 0.95488 0.64953 0.33603 0.0
N441 N 0.023 0.6568 0.28857 0.0
C442 C 0.98836 0.64773 0.2652 0.0
C443 C 0.95148 0.64356 0.29085 0.0
C444 C 0.62287 0.98598 0.28101 0.0
C445 C 0.64386 0.98871 0.2399 0.0
C446 C 0.62113 0.94884 0.30467 0.0
C447 C 0.63882 0.91282 0.28699 0.0
H448 H 0.6067 0.01239 0.29424 0.0
H449 H 0.60401 0.94813 0.33586 0.0
S450 S 0.69883 0.90497 0.18105 0.0
N451 N 0.6847 0.95354 0.1835 0.0
N452 N 0.68011 0.88318 0.2269 0.0
C453 C 0.66115 0.9157 0.24656 0.0
C454 C 0.66388 0.95381 0.2232 0.0
C455 C 0.9082 0.35494 0.75503 0.0
C456 C 0.90933 0.36282 0.7084 0.0
C457 C 0.94436 0.35271 0.78037 0.0
C458 C 0.9828 0.3578 0.7599 0.0
H459 H 0.8792 0.35243 0.77258 0.0
H460 H 0.94218 0.34867 0.81657 0.0
S461 S 0.0033 0.37511 0.63883 0.0
N462 N 0.95282 0.37241 0.64236 0.0
N463 N 0.02062 0.36861 0.69067 0.0
C464 C 0.98473 0.36359 0.71325 0.0
C465 C 0.94797 0.36587 0.68728 0.0
C466 C 0.35526 0.06886 0.29122 0.0
C467 C 0.36312 0.10741 0.27158 0.0
C468 C 0.35175 0.03337 0.26464 0.0
C469 C 0.35685 0.03528 0.21772 0.0
H470 H 0.35307 0.0659 0.32752 0.0
H471 H 0.34732 0.00405 0.28107 0.0
S472 S 0.37519 0.12855 0.14939 0.0
N473 N 0.37321 0.14538 0.20186 0.0
N474 N 0.36773 0.07856 0.15229 0.0
C475 C 0.36308 0.07368 0.19752 0.0
C476 C 0.36587 0.10985 0.22436 0.0
C477 C 0.06482 0.64583 0.71171 0.0
C478 C 0.10284 0.63594 0.7315 0.0
C479 C 0.02919 0.6498 0.73796 0.0
C480 C 0.03041 0.64312 0.78468 0.0
H481 H 0.06238 0.64967 0.67552 0.0
H482 H 1.0003 0.65615 0.7214 0.0
S483 S 0.1223 0.61903 0.85335 0.0
N484 N 0.13966 0.62193 0.80116 0.0
N485 N 0.07267 0.6285 0.85015 0.0
C486 C 0.06835 0.6346 0.80504 0.0
C487 C 0.10464 0.63126 0.77856 0.0
C488 C 0.1564 0.55426 0.49064 0.0
C489 C 0.17614 0.5404 0.52977 0.0
C490 C 0.1556 0.53028 0.45166 0.0
C491 C 0.17425 0.49143 0.45048 0.0
H492 H 0.139 0.58257 0.49116 0.0
H493 H 0.1379 0.54109 0.4231 0.0
S494 S 0.23388 0.44323 0.54246 0.0
N495 N 0.21823 0.48733 0.56391 0.0
N496 N 0.21656 0.4419 0.49008 0.0
C497 C 0.19724 0.47872 0.48795 0.0
C498 C 0.19818 0.50337 0.52787 0.0
C499 C 0.54476 0.80745 0.50517 0.0
C500 C 0.52989 0.80636 0.46081 0.0
C501 C 0.51762 0.80801 0.54177 0.0
C502 C 0.47501 0.80842 0.53476 0.0
H503 H 0.57717 0.8121 0.51143 0.0
H504 H 0.52995 0.81298 0.57528 0.0
S505 S 0.42124 0.80034 0.42536 0.0
N506 N 0.47043 0.8003 0.41203 0.0
N507 N 0.41931 0.80295 0.48097 0.0
C508 C 0.45997 0.80323 0.49092 0.0
C509 C 0.48758 0.80174 0.45376 0.0
C510 C 0.80649 0.50078 0.46035 0.0
C511 C 0.81924 0.54189 0.46397 0.0
C512 C 0.80564 0.47519 0.49843 0.0
C513 C 0.81696 0.49043 0.54092 0.0
H514 H 0.80144 0.48726 0.42743 0.0
H515 H 0.80004 0.44271 0.49388 0.0
S516 S 0.84513 0.59742 0.56897 0.0
N517 N 0.83801 0.59778 0.51381 0.0
N518 N 0.83544 0.55005 0.5855 0.0
C519 C 0.82518 0.53246 0.5455 0.0
C520 C 0.82659 0.55821 0.50688 0.0
C521 C 0.47844 0.1976 0.4904 0.0
C522 C 0.49221 0.1787 0.4506 0.0
C523 C 0.50323 0.19785 0.52925 0.0
C524 C 0.5422 0.17922 0.52897 0.0
H525 H 0.44732 0.20903 0.49262 0.0
H526 H 0.4904 0.2092 0.56056 0.0
S527 S 0.59482 0.1334 0.43051 0.0
N528 N 0.54929 0.14692 0.41124 0.0
N529 N 0.59547 0.14711 0.48413 0.0
C530 C 0.5576 0.16414 0.48812 0.0
C531 C 0.53264 0.16396 0.44887 0.0
C532 C 0.67448 0.96563 0.04979 0.0
C533 C 0.68649 0.007 0.04805 0.0
C534 C 0.67521 0.94105 0.01118 0.0
C535 C 0.68828 0.957 0.96969 0.0
H536 H 0.66072 0.95333 0.08018 0.0
H537 H 0.66171 0.91072 0.01282 0.0
S538 S 0.72882 0.06144 0.94909 0.0
N539 N 0.71664 0.06137 0.00319 0.0
N540 N 0.7184 0.01488 0.93022 0.0
C541 C 0.70488 0.99679 0.96869 0.0
C542 C 0.7039 0.02198 0.00812 0.0
C543 C 0.96939 0.33259 0.95164 0.0
C544 C 0.0104 0.31933 0.95166 0.0
C545 C 0.94591 0.33167 0.99099 0.0
C546 C 0.96259 0.31713 0.03148 0.0
H547 H 0.95655 0.34711 0.92196 0.0
H548 H 0.91578 0.3457 0.99065 0.0
S549 S 0.06659 0.27395 0.04777 0.0
N550 N 0.06534 0.2872 0.994 0.0
N551 N 0.02083 0.28505 0.06841 0.0
C552 C 1.00207 0.29982 0.0309 0.0
C553 C 0.02617 0.301 0.9907 0.0
C554 C 0.30196 0.03504 0.98922 0.0
C555 C 0.3156 0.01844 0.94818 0.0
C556 C 0.30082 0.01071 0.02833 0.0
C557 C 0.31342 0.96944 0.02709 0.0
H558 H 0.29613 0.06764 0.99208 0.0
H559 H 0.2946 0.02541 0.06039 0.0
S560 S 0.34411 0.9104 0.92601 0.0
N561 N 0.33582 0.95731 0.90714 0.0
N562 N 0.334 0.91185 0.98056 0.0
C563 C 0.32254 0.95169 0.98527 0.0
C564 C 0.32363 0.97624 0.94571 0.0
C565 C 0.01642 0.70475 0.95746 0.0
C566 C 0.97424 0.69941 0.96554 0.0
C567 C 0.0446 0.70468 0.99319 0.0
C568 C 0.03114 0.70049 0.03787 0.0
H569 H 0.02812 0.70364 0.92327 0.0
H570 H 0.07707 0.70355 0.98553 0.0
S571 S 0.92357 0.69294 0.07685 0.0
N572 N 0.92012 0.69487 0.0213 0.0
N573 N 0.97293 0.69673 0.08867 0.0
C574 C 0.9888 0.70055 0.04651 0.0
C575 C 0.96026 0.69951 0.01017 0.0
loop_
_geom_bond_atom_site_label_1
_geom_bond_atom_site_label_2
_geom_bond_distance
_geom_bond_site_symmetry_2
_ccdc_geom_bond_type
Co0 O1 2.216 . S
Co0 O2 2.091 . S
Co0 O4 2.004 . S
Co0 O10 2.021 . S
Co0 O12 2.137 . S
Co0 O13 2.244 . S
O1 Co0 2.216 . S
O1 C8 1.247 . S
O2 Co0 2.091 . S
O2 C8 1.261 . S
C3 O12 1.247 . S
C3 O13 1.272 . S
O4 Co0 2.004 . S
O4 C9 1.259 . S
Co5 O6 2.061 . S
Co5 O11 2.052 . S
Co5 O13 2.135 . S
O6 Co5 2.061 . S
O6 C9 1.235 . S
C7 O10 1.238 . S
C7 O11 1.241 . S
C8 O1 1.247 . S
C8 O2 1.261 . S
C9 O4 1.259 . S
C9 O6 1.235 . S
O10 Co0 2.021 . S
O10 C7 1.238 . S
O11 Co5 2.052 . S
O11 C7 1.241 . S
O12 Co0 2.137 . S
O12 C3 1.247 . S
O13 Co0 2.244 . S
O13 C3 1.272 . S
O13 Co5 2.135 . S
Co14 O15 2.216 . S
Co14 O16 2.091 . S
Co14 O18 2.004 . S
Co14 O24 2.021 . S
Co14 O26 2.137 . S
Co14 O27 2.244 . S
O15 Co14 2.216 . S
O15 C22 1.247 . S
O16 Co14 2.091 . S
O16 C22 1.261 . S
C17 O26 1.247 . S
C17 O27 1.272 . S
O18 Co14 2.004 . S
O18 C23 1.259 . S
Co19 O20 2.061 . S
Co19 O25 2.052 . S
Co19 O27 2.135 . S
O20 Co19 2.061 . S
O20 C23 1.235 . S
C21 O24 1.238 . S
C21 O25 1.241 . S
C22 O15 1.247 . S
C22 O16 1.261 . S
C23 O18 1.259 . S
C23 O20 1.235 . S
O24 Co14 2.021 . S
O24 C21 1.238 . S
O25 Co19 2.052 . S
O25 C21 1.241 . S
O26 Co14 2.137 . S
O26 C17 1.247 . S
O27 Co14 2.244 . S
O27 C17 1.272 . S
O27 Co19 2.135 . S
Co28 O29 2.216 . S
Co28 O30 2.091 . S
Co28 O32 2.004 . S
Co28 O38 2.021 . S
Co28 O40 2.137 . S
Co28 O41 2.244 . S
O29 Co28 2.216 . S
O29 C36 1.247 . S
O30 Co28 2.091 . S
O30 C36 1.261 . S
C31 O40 1.247 . S
C31 O41 1.272 . S
O32 Co28 2.004 . S
O32 C37 1.259 . S
Co33 O34 2.061 . S
Co33 O39 2.052 . S
Co33 O41 2.135 . S
O34 Co33 2.061 . S
O34 C37 1.235 . S
C35 O38 1.238 . S
C35 O39 1.241 . S
C36 O29 1.247 . S
C36 O30 1.261 . S
C37 O32 1.259 . S
C37 O34 1.235 . S
O38 Co28 2.021 . S
O38 C35 1.238 . S
O39 Co33 2.052 . S
O39 C35 1.241 . S
O40 Co28 2.137 . S
O40 C31 1.247 . S
O41 Co28 2.244 . S
O41 C31 1.272 . S
O41 Co33 2.135 . S
Co42 O43 2.216 . S
Co42 O44 2.091 . S
Co42 O46 2.004 . S
Co42 O52 2.021 . S
Co42 O54 2.137 . S
Co42 O55 2.244 . S
O43 Co42 2.216 . S
O43 C50 1.247 . S
O44 Co42 2.091 . S
O44 C50 1.261 . S
C45 O54 1.247 . S
C45 O55 1.272 . S
O46 Co42 2.004 . S
O46 C51 1.259 . S
Co47 O48 2.061 . S
Co47 O53 2.052 . S
Co47 O55 2.135 . S
O48 Co47 2.061 . S
O48 C51 1.235 . S
C49 O52 1.238 . S
C49 O53 1.241 . S
C50 O43 1.247 . S
C50 O44 1.261 . S
C51 O46 1.259 . S
C51 O48 1.235 . S
O52 Co42 2.021 . S
O52 C49 1.238 . S
O53 Co47 2.052 . S
O53 C49 1.241 . S
O54 Co42 2.137 . S
O54 C45 1.247 . S
O55 Co42 2.244 . S
O55 C45 1.272 . S
O55 Co47 2.135 . S
Co56 O57 2.216 . S
Co56 O58 2.091 . S
Co56 O60 2.004 . S
Co56 O66 2.021 . S
Co56 O68 2.137 . S
Co56 O69 2.244 . S
O57 Co56 2.216 . S
O57 C64 1.247 . S
O58 Co56 2.091 . S
O58 C64 1.261 . S
C59 O68 1.247 . S
C59 O69 1.272 . S
O60 Co56 2.004 . S
O60 C65 1.259 . S
Co61 O62 2.061 . S
Co61 O67 2.052 . S
Co61 O69 2.135 . S
O62 Co61 2.061 . S
O62 C65 1.235 . S
C63 O66 1.238 . S
C63 O67 1.241 . S
C64 O57 1.247 . S
C64 O58 1.261 . S
C65 O60 1.259 . S
C65 O62 1.235 . S
O66 Co56 2.021 . S
O66 C63 1.238 . S
O67 Co61 2.052 . S
O67 C63 1.241 . S
O68 Co56 2.137 . S
O68 C59 1.247 . S
O69 Co56 2.244 . S
O69 C59 1.272 . S
O69 Co61 2.135 . S
Co70 O71 2.216 . S
Co70 O72 2.091 . S
Co70 O74 2.004 . S
Co70 O80 2.021 . S
Co70 O82 2.137 . S
Co70 O83 2.244 . S
O71 Co70 2.216 . S
O71 C78 1.247 . S
O72 Co70 2.091 . S
O72 C78 1.261 . S
C73 O82 1.247 . S
C73 O83 1.272 . S
O74 Co70 2.004 . S
O74 C79 1.259 . S
Co75 O76 2.061 . S
Co75 O81 2.052 . S
Co75 O83 2.135 . S
O76 Co75 2.061 . S
O76 C79 1.235 . S
C77 O80 1.238 . S
C77 O81 1.241 . S
C78 O71 1.247 . S
C78 O72 1.261 . S
C79 O74 1.259 . S
C79 O76 1.235 . S
O80 Co70 2.021 . S
O80 C77 1.238 . S
O81 Co75 2.052 . S
O81 C77 1.241 . S
O82 Co70 2.137 . S
O82 C73 1.247 . S
O83 Co70 2.244 . S
O83 C73 1.272 . S
O83 Co75 2.135 . S
Co84 O85 2.216 . S
Co84 O86 2.091 . S
Co84 O88 2.004 . S
Co84 O94 2.021 . S
Co84 O96 2.137 . S
Co84 O97 2.244 . S
O85 Co84 2.216 . S
O85 C92 1.247 . S
O86 Co84 2.091 . S
O86 C92 1.261 . S
C87 O96 1.247 . S
C87 O97 1.272 . S
O88 Co84 2.004 . S
O88 C93 1.259 . S
Co89 O90 2.061 . S
Co89 O95 2.052 . S
Co89 O97 2.135 . S
O90 Co89 2.061 . S
O90 C93 1.235 . S
C91 O94 1.238 . S
C91 O95 1.241 . S
C92 O85 1.247 . S
C92 O86 1.261 . S
C93 O88 1.259 . S
C93 O90 1.235 . S
O94 Co84 2.021 . S
O94 C91 1.238 . S
O95 Co89 2.052 . S
O95 C91 1.241 . S
O96 Co84 2.137 . S
O96 C87 1.247 . S
O97 Co84 2.244 . S
O97 C87 1.272 . S
O97 Co89 2.135 . S
Co98 O99 2.216 . S
Co98 O100 2.091 . S
Co98 O102 2.004 . S
Co98 O108 2.021 . S
Co98 O110 2.137 . S
Co98 O111 2.244 . S
O99 Co98 2.216 . S
O99 C106 1.247 . S
O100 Co98 2.091 . S
O100 C106 1.261 . S
C101 O110 1.247 . S
C101 O111 1.272 . S
O102 Co98 2.004 . S
O102 C107 1.259 . S
Co103 O104 2.061 . S
Co103 O109 2.052 . S
Co103 O111 2.135 . S
O104 Co103 2.061 . S
O104 C107 1.235 . S
C105 O108 1.238 . S
C105 O109 1.241 . S
C106 O99 1.247 . S
C106 O100 1.261 . S
C107 O102 1.259 . S
C107 O104 1.235 . S
O108 Co98 2.021 . S
O108 C105 1.238 . S
O109 Co103 2.052 . S
O109 C105 1.241 . S
O110 Co98 2.137 . S
O110 C101 1.247 . S
O111 Co98 2.244 . S
O111 C101 1.272 . S
O111 Co103 2.135 . S
Co112 O113 2.216 . S
Co112 O114 2.091 . S
Co112 O116 2.004 . S
Co112 O122 2.021 . S
Co112 O124 2.137 . S
Co112 O125 2.244 . S
O113 Co112 2.216 . S
O113 C120 1.247 . S
O114 Co112 2.091 . S
O114 C120 1.261 . S
C115 O124 1.247 . S
C115 O125 1.272 . S
O116 Co112 2.004 . S
O116 C121 1.259 1_565 S
Co117 O118 2.061 1_565 S
Co117 O123 2.052 . S
Co117 O125 2.135 . S
O118 Co117 2.061 1_545 S
O118 C121 1.235 . S
C119 O122 1.238 . S
C119 O123 1.241 . S
C120 O113 1.247 . S
C120 O114 1.261 . S
C121 O116 1.259 1_545 S
C121 O118 1.235 . S
O122 Co112 2.021 . S
O122 C119 1.238 . S
O123 Co117 2.052 . S
O123 C119 1.241 . S
O124 Co112 2.137 . S
O124 C115 1.247 . S
O125 Co112 2.244 . S
O125 C115 1.272 . S
O125 Co117 2.135 . S
Co126 O127 2.216 . S
Co126 O128 2.091 . S
Co126 O130 2.004 . S
Co126 O136 2.021 . S
Co126 O138 2.137 . S
Co126 O139 2.244 . S
O127 Co126 2.216 . S
O127 C134 1.247 . S
O128 Co126 2.091 . S
O128 C134 1.261 . S
C129 O138 1.247 . S
C129 O139 1.272 . S
O130 Co126 2.004 . S
O130 C135 1.259 1_655 S
Co131 O132 2.061 1_655 S
Co131 O137 2.052 . S
Co131 O139 2.135 . S
O132 Co131 2.061 1_455 S
O132 C135 1.235 . S
C133 O136 1.238 . S
C133 O137 1.241 . S
C134 O127 1.247 . S
C134 O128 1.261 . S
C135 O130 1.259 1_455 S
C135 O132 1.235 . S
O136 Co126 2.021 . S
O136 C133 1.238 . S
O137 Co131 2.052 . S
O137 C133 1.241 . S
O138 Co126 2.137 . S
O138 C129 1.247 . S
O139 Co126 2.244 . S
O139 C129 1.272 . S
O139 Co131 2.135 . S
Co140 O141 2.216 . S
Co140 O142 2.091 . S
Co140 O144 2.004 . S
Co140 O150 2.021 . S
Co140 O152 2.137 . S
Co140 O153 2.244 . S
O141 Co140 2.216 . S
O141 C148 1.247 . S
O142 Co140 2.091 . S
O142 C148 1.261 . S
C143 O152 1.247 . S
C143 O153 1.272 . S
O144 Co140 2.004 . S
O144 C149 1.259 1_545 S
Co145 O146 2.061 1_545 S
Co145 O151 2.052 . S
Co145 O153 2.135 . S
O146 Co145 2.061 1_565 S
O146 C149 1.235 . S
C147 O150 1.238 . S
C147 O151 1.241 . S
C148 O141 1.247 . S
C148 O142 1.261 . S
C149 O144 1.259 1_565 S
C149 O146 1.235 . S
O150 Co140 2.021 . S
O150 C147 1.238 . S
O151 Co145 2.052 . S
O151 C147 1.241 . S
O152 Co140 2.137 . S
O152 C143 1.247 . S
O153 Co140 2.244 . S
O153 C143 1.272 . S
O153 Co145 2.135 . S
Co154 O155 2.216 . S
Co154 O156 2.091 . S
Co154 O158 2.004 . S
Co154 O164 2.021 . S
Co154 O166 2.137 . S
Co154 O167 2.244 . S
O155 Co154 2.216 . S
O155 C162 1.247 . S
O156 Co154 2.091 . S
O156 C162 1.261 . S
C157 O166 1.247 . S
C157 O167 1.272 . S
O158 Co154 2.004 . S
O158 C163 1.259 1_455 S
Co159 O160 2.061 1_455 S
Co159 O165 2.052 . S
Co159 O167 2.135 . S
O160 Co159 2.061 1_655 S
O160 C163 1.235 . S
C161 O164 1.238 . S
C161 O165 1.241 . S
C162 O155 1.247 . S
C162 O156 1.261 . S
C163 O158 1.259 1_655 S
C163 O160 1.235 . S
O164 Co154 2.021 . S
O164 C161 1.238 . S
O165 Co159 2.052 . S
O165 C161 1.241 . S
O166 Co154 2.137 . S
O166 C157 1.247 . S
O167 Co154 2.244 . S
O167 C157 1.272 . S
O167 Co159 2.135 . S
Co168 O169 2.216 . S
Co168 O170 2.091 . S
Co168 O172 2.004 . S
Co168 O178 2.021 . S
Co168 O180 2.137 . S
Co168 O181 2.244 . S
O169 Co168 2.216 . S
O169 C176 1.247 . S
O170 Co168 2.091 . S
O170 C176 1.261 . S
C171 O180 1.247 . S
C171 O181 1.272 . S
O172 Co168 2.004 . S
O172 C177 1.259 1_545 S
Co173 O174 2.061 1_545 S
Co173 O179 2.052 . S
Co173 O181 2.135 . S
O174 Co173 2.061 1_565 S
O174 C177 1.235 . S
C175 O178 1.238 . S
C175 O179 1.241 . S
C176 O169 1.247 . S
C176 O170 1.261 . S
C177 O172 1.259 1_565 S
C177 O174 1.235 . S
O178 Co168 2.021 . S
O178 C175 1.238 . S
O179 Co173 2.052 . S
O179 C175 1.241 . S
O180 Co168 2.137 . S
O180 C171 1.247 . S
O181 Co168 2.244 . S
O181 C171 1.272 . S
O181 Co173 2.135 . S
Co182 O183 2.216 . S
Co182 O184 2.091 . S
Co182 O186 2.004 . S
Co182 O192 2.021 . S
Co182 O194 2.137 . S
Co182 O195 2.244 . S
O183 Co182 2.216 . S
O183 C190 1.247 . S
O184 Co182 2.091 . S
O184 C190 1.261 . S
C185 O194 1.247 . S
C185 O195 1.272 . S
O186 Co182 2.004 . S
O186 C191 1.259 1_455 S
Co187 O188 2.061 1_455 S
Co187 O193 2.052 . S
Co187 O195 2.135 . S
O188 Co187 2.061 1_655 S
O188 C191 1.235 . S
C189 O192 1.238 . S
C189 O193 1.241 . S
C190 O183 1.247 . S
C190 O184 1.261 . S
C191 O186 1.259 1_655 S
C191 O188 1.235 . S
O192 Co182 2.021 . S
O192 C189 1.238 . S
O193 Co187 2.052 . S
O193 C189 1.241 . S
O194 Co182 2.137 . S
O194 C185 1.247 . S
O195 Co182 2.244 . S
O195 C185 1.272 . S
O195 Co187 2.135 . S
Co196 O197 2.216 . S
Co196 O198 2.091 . S
Co196 O200 2.004 . S
Co196 O206 2.021 . S
Co196 O208 2.137 . S
Co196 O209 2.244 . S
O197 Co196 2.216 . S
O197 C204 1.247 . S
O198 Co196 2.091 . S
O198 C204 1.261 . S
C199 O208 1.247 . S
C199 O209 1.272 . S
O200 Co196 2.004 . S
O200 C205 1.259 1_565 S
Co201 O202 2.061 1_565 S
Co201 O207 2.052 . S
Co201 O209 2.135 . S
O202 Co201 2.061 1_545 S
O202 C205 1.235 . S
C203 O206 1.238 . S
C203 O207 1.241 . S
C204 O197 1.247 . S
C204 O198 1.261 . S
C205 O200 1.259 1_545 S
C205 O202 1.235 . S
O206 Co196 2.021 . S
O206 C203 1.238 . S
O207 Co201 2.052 . S
O207 C203 1.241 . S
O208 Co196 2.137 . S
O208 C199 1.247 . S
O209 Co196 2.244 . S
O209 C199 1.272 . S
O209 Co201 2.135 . S
Co210 O211 2.216 . S
Co210 O212 2.091 . S
Co210 O214 2.004 . S
Co210 O220 2.021 . S
Co210 O222 2.137 . S
Co210 O223 2.244 . S
O211 Co210 2.216 . S
O211 C218 1.247 . S
O212 Co210 2.091 . S
O212 C218 1.261 . S
C213 O222 1.247 . S
C213 O223 1.272 . S
O214 Co210 2.004 . S
O214 C219 1.259 1_655 S
Co215 O216 2.061 1_655 S
Co215 O221 2.052 . S
Co215 O223 2.135 . S
O216 Co215 2.061 1_455 S
O216 C219 1.235 . S
C217 O220 1.238 . S
C217 O221 1.241 . S
C218 O211 1.247 . S
C218 O212 1.261 . S
C219 O214 1.259 1_455 S
C219 O216 1.235 . S
O220 Co210 2.021 . S
O220 C217 1.238 . S
O221 Co215 2.052 . S
O221 C217 1.241 . S
O222 Co210 2.137 . S
O222 C213 1.247 . S
O223 Co210 2.244 . S
O223 C213 1.272 . S
O223 Co215 2.135 . S
C224 C225 1.369 . S
C224 C226 1.419 . S
C224 H228 0.930 . S
C225 C224 1.369 . S
C225 C234 1.429 . S
C226 C224 1.419 . S
C226 C227 1.363 . S
C226 H229 0.929 . S
C227 C226 1.363 . S
C227 C233 1.428 . S
H228 C224 0.930 . S
H229 C226 0.929 . S
S230 N231 1.613 . S
S230 N232 1.610 . S
N231 S230 1.613 . S
N231 C234 1.350 . S
N232 S230 1.610 . S
N232 C233 1.351 . S
C233 C227 1.428 . S
C233 N232 1.351 . S
C233 C234 1.434 . S
C234 C225 1.429 . S
C234 N231 1.350 . S
C234 C233 1.434 . S
C235 C236 1.369 . S
C235 C237 1.419 . S
C235 H239 0.930 . S
C236 C235 1.369 . S
C236 C245 1.429 . S
C237 C235 1.419 . S
C237 C238 1.363 . S
C237 H240 0.929 . S
C238 C237 1.363 . S
C238 C244 1.428 . S
H239 C235 0.930 . S
H240 C237 0.929 . S
S241 N242 1.613 . S
S241 N243 1.610 . S
N242 S241 1.613 . S
N242 C245 1.350 . S
N243 S241 1.610 . S
N243 C244 1.351 . S
C244 C238 1.428 . S
C244 N243 1.351 . S
C244 C245 1.434 . S
C245 C236 1.429 . S
C245 N242 1.350 . S
C245 C244 1.434 . S
C246 C247 1.369 . S
C246 C248 1.419 . S
C246 H250 0.930 . S
C247 C246 1.369 . S
C247 C256 1.429 . S
C248 C246 1.419 . S
C248 C249 1.363 . S
C248 H251 0.929 . S
C249 C248 1.363 . S
C249 C255 1.428 . S
H250 C246 0.930 . S
H251 C248 0.929 . S
S252 N253 1.613 . S
S252 N254 1.610 . S
N253 S252 1.613 . S
N253 C256 1.350 . S
N254 S252 1.610 . S
N254 C255 1.351 . S
C255 C249 1.428 . S
C255 N254 1.351 . S
C255 C256 1.434 . S
C256 C247 1.429 . S
C256 N253 1.350 . S
C256 C255 1.434 . S
C257 C258 1.369 . S
C257 C259 1.419 . S
C257 H261 0.930 . S
C258 C257 1.369 . S
C258 C267 1.429 . S
C259 C257 1.419 . S
C259 C260 1.363 . S
C259 H262 0.929 . S
C260 C259 1.363 . S
C260 C266 1.428 . S
H261 C257 0.930 . S
H262 C259 0.929 . S
S263 N264 1.613 . S
S263 N265 1.610 . S
N264 S263 1.613 . S
N264 C267 1.350 . S
N265 S263 1.610 . S
N265 C266 1.351 . S
C266 C260 1.428 . S
C266 N265 1.351 . S
C266 C267 1.434 . S
C267 C258 1.429 . S
C267 N264 1.350 . S
C267 C266 1.434 . S
C268 C269 1.369 . S
C268 C270 1.419 . S
C268 H272 0.930 . S
C269 C268 1.369 . S
C269 C278 1.429 . S
C270 C268 1.419 . S
C270 C271 1.363 . S
C270 H273 0.929 . S
C271 C270 1.363 . S
C271 C277 1.428 . S
H272 C268 0.930 . S
H273 C270 0.929 . S
S274 N275 1.613 . S
S274 N276 1.610 . S
N275 S274 1.613 . S
N275 C278 1.350 . S
N276 S274 1.610 . S
N276 C277 1.351 . S
C277 C271 1.428 . S
C277 N276 1.351 . S
C277 C278 1.434 . S
C278 C269 1.429 . S
C278 N275 1.350 . S
C278 C277 1.434 . S
C279 C280 1.369 . S
C279 C281 1.419 . S
C279 H283 0.930 . S
C280 C279 1.369 . S
C280 C289 1.429 . S
C281 C279 1.419 . S
C281 C282 1.363 . S
C281 H284 0.929 . S
C282 C281 1.363 . S
C282 C288 1.428 . S
H283 C279 0.930 . S
H284 C281 0.929 . S
S285 N286 1.613 . S
S285 N287 1.610 . S
N286 S285 1.613 . S
N286 C289 1.350 . S
N287 S285 1.610 . S
N287 C288 1.351 . S
C288 C282 1.428 . S
C288 N287 1.351 . S
C288 C289 1.434 . S
C289 C280 1.429 . S
C289 N286 1.350 . S
C289 C288 1.434 . S
C290 C291 1.369 . S
C290 C292 1.419 . S
C290 H294 0.930 . S
C291 C290 1.369 . S
C291 C300 1.429 . S
C292 C290 1.419 . S
C292 C293 1.363 . S
C292 H295 0.929 . S
C293 C292 1.363 . S
C293 C299 1.428 . S
H294 C290 0.930 . S
H295 C292 0.929 . S
S296 N297 1.613 . S
S296 N298 1.610 . S
N297 S296 1.613 . S
N297 C300 1.350 . S
N298 S296 1.610 . S
N298 C299 1.351 . S
C299 C293 1.428 . S
C299 N298 1.351 . S
C299 C300 1.434 . S
C300 C291 1.429 . S
C300 N297 1.350 . S
C300 C299 1.434 . S
C301 C302 1.369 . S
C301 C303 1.419 . S
C301 H305 0.930 . S
C302 C301 1.369 . S
C302 C311 1.429 . S
C303 C301 1.419 . S
C303 C304 1.363 . S
C303 H306 0.929 . S
C304 C303 1.363 . S
C304 C310 1.428 . S
H305 C301 0.930 . S
H306 C303 0.929 . S
S307 N308 1.613 . S
S307 N309 1.610 . S
N308 S307 1.613 . S
N308 C311 1.350 . S
N309 S307 1.610 . S
N309 C310 1.351 . S
C310 C304 1.428 . S
C310 N309 1.351 . S
C310 C311 1.434 . S
C311 C302 1.429 . S
C311 N308 1.350 . S
C311 C310 1.434 . S
C312 C313 1.369 . S
C312 C314 1.419 . S
C312 H316 0.930 . S
C313 C312 1.369 . S
C313 C322 1.429 . S
C314 C312 1.419 . S
C314 C315 1.363 . S
C314 H317 0.929 . S
C315 C314 1.363 . S
C315 C321 1.428 . S
H316 C312 0.930 . S
H317 C314 0.929 . S
S318 N319 1.613 . S
S318 N320 1.610 . S
N319 S318 1.613 . S
N319 C322 1.350 . S
N320 S318 1.610 . S
N320 C321 1.351 . S
C321 C315 1.428 . S
C321 N320 1.351 . S
C321 C322 1.434 . S
C322 C313 1.429 . S
C322 N319 1.350 . S
C322 C321 1.434 . S
C323 C324 1.369 . S
C323 C325 1.419 . S
C323 H327 0.930 . S
C324 C323 1.369 . S
C324 C333 1.429 . S
C325 C323 1.419 . S
C325 C326 1.363 . S
C325 H328 0.929 . S
C326 C325 1.363 . S
C326 C332 1.428 . S
H327 C323 0.930 . S
H328 C325 0.929 . S
S329 N330 1.613 . S
S329 N331 1.610 . S
N330 S329 1.613 . S
N330 C333 1.350 . S
N331 S329 1.610 . S
N331 C332 1.351 . S
C332 C326 1.428 . S
C332 N331 1.351 . S
C332 C333 1.434 . S
C333 C324 1.429 . S
C333 N330 1.350 . S
C333 C332 1.434 . S
C334 C335 1.369 . S
C334 C336 1.419 . S
C334 H338 0.930 . S
C335 C334 1.369 . S
C335 C344 1.429 . S
C336 C334 1.419 . S
C336 C337 1.363 . S
C336 H339 0.929 . S
C337 C336 1.363 . S
C337 C343 1.428 . S
H338 C334 0.930 . S
H339 C336 0.929 . S
S340 N341 1.613 . S
S340 N342 1.610 . S
N341 S340 1.613 . S
N341 C344 1.350 . S
N342 S340 1.610 . S
N342 C343 1.351 . S
C343 C337 1.428 . S
C343 N342 1.351 . S
C343 C344 1.434 . S
C344 C335 1.429 . S
C344 N341 1.350 . S
C344 C343 1.434 . S
C345 C346 1.369 . S
C345 C347 1.419 . S
C345 H349 0.930 . S
C346 C345 1.369 . S
C346 C355 1.429 . S
C347 C345 1.419 . S
C347 C348 1.363 . S
C347 H350 0.929 . S
C348 C347 1.363 . S
C348 C354 1.428 . S
H349 C345 0.930 . S
H350 C347 0.929 . S
S351 N352 1.613 . S
S351 N353 1.610 . S
N352 S351 1.613 . S
N352 C355 1.350 . S
N353 S351 1.610 . S
N353 C354 1.351 . S
C354 C348 1.428 . S
C354 N353 1.351 . S
C354 C355 1.434 . S
C355 C346 1.429 . S
C355 N352 1.350 . S
C355 C354 1.434 . S
C356 C357 1.369 . S
C356 C358 1.419 . S
C356 H360 0.930 . S
C357 C356 1.369 . S
C357 C366 1.429 . S
C358 C356 1.419 . S
C358 C359 1.363 . S
C358 H361 0.929 . S
C359 C358 1.363 . S
C359 C365 1.428 . S
H360 C356 0.930 . S
H361 C358 0.929 . S
S362 N363 1.613 . S
S362 N364 1.610 . S
N363 S362 1.613 . S
N363 C366 1.350 . S
N364 S362 1.610 . S
N364 C365 1.351 . S
C365 C359 1.428 . S
C365 N364 1.351 . S
C365 C366 1.434 . S
C366 C357 1.429 . S
C366 N363 1.350 . S
C366 C365 1.434 . S
C367 C368 1.369 . S
C367 C369 1.419 . S
C367 H371 0.930 . S
C368 C367 1.369 . S
C368 C377 1.429 . S
C369 C367 1.419 . S
C369 C370 1.363 . S
C369 H372 0.929 . S
C370 C369 1.363 . S
C370 C376 1.428 . S
H371 C367 0.930 . S
H372 C369 0.929 . S
S373 N374 1.613 . S
S373 N375 1.610 . S
N374 S373 1.613 . S
N374 C377 1.350 . S
N375 S373 1.610 . S
N375 C376 1.351 . S
C376 C370 1.428 . S
C376 N375 1.351 . S
C376 C377 1.434 . S
C377 C368 1.429 . S
C377 N374 1.350 . S
C377 C376 1.434 . S
C378 C379 1.369 . S
C378 C380 1.419 . S
C378 H382 0.930 . S
C379 C378 1.369 . S
C379 C388 1.429 . S
C380 C378 1.419 . S
C380 C381 1.363 . S
C380 H383 0.929 . S
C381 C380 1.363 . S
C381 C387 1.428 . S
H382 C378 0.930 . S
H383 C380 0.929 . S
S384 N385 1.613 . S
S384 N386 1.610 . S
N385 S384 1.613 . S
N385 C388 1.350 . S
N386 S384 1.610 . S
N386 C387 1.351 . S
C387 C381 1.428 . S
C387 N386 1.351 . S
C387 C388 1.434 . S
C388 C379 1.429 . S
C388 N385 1.350 . S
C388 C387 1.434 . S
C389 C390 1.369 . S
C389 C391 1.419 . S
C389 H393 0.930 . S
C390 C389 1.369 . S
C390 C399 1.429 . S
C391 C389 1.419 . S
C391 C392 1.363 . S
C391 H394 0.929 . S
C392 C391 1.363 . S
C392 C398 1.428 . S
H393 C389 0.930 . S
H394 C391 0.929 . S
S395 N396 1.613 . S
S395 N397 1.610 . S
N396 S395 1.613 . S
N396 C399 1.350 . S
N397 S395 1.610 . S
N397 C398 1.351 . S
C398 C392 1.428 . S
C398 N397 1.351 . S
C398 C399 1.434 . S
C399 C390 1.429 . S
C399 N396 1.350 . S
C399 C398 1.434 . S
C400 C401 1.369 . S
C400 C402 1.419 . S
C400 H404 0.930 . S
C401 C400 1.369 . S
C401 C410 1.429 . S
C402 C400 1.419 . S
C402 C403 1.363 . S
C402 H405 0.929 . S
C403 C402 1.363 . S
C403 C409 1.428 . S
H404 C400 0.930 . S
H405 C402 0.929 . S
S406 N407 1.613 . S
S406 N408 1.610 . S
N407 S406 1.613 . S
N407 C410 1.350 . S
N408 S406 1.610 . S
N408 C409 1.351 . S
C409 C403 1.428 . S
C409 N408 1.351 . S
C409 C410 1.434 . S
C410 C401 1.429 . S
C410 N407 1.350 . S
C410 C409 1.434 . S
C411 C412 1.369 . S
C411 C413 1.419 . S
C411 H415 0.930 . S
C412 C411 1.369 . S
C412 C421 1.429 . S
C413 C411 1.419 . S
C413 C414 1.363 . S
C413 H416 0.929 . S
C414 C413 1.363 . S
C414 C420 1.428 . S
H415 C411 0.930 . S
H416 C413 0.929 . S
S417 N418 1.613 . S
S417 N419 1.610 . S
N418 S417 1.613 . S
N418 C421 1.350 . S
N419 S417 1.610 . S
N419 C420 1.351 . S
C420 C414 1.428 . S
C420 N419 1.351 . S
C420 C421 1.434 . S
C421 C412 1.429 . S
C421 N418 1.350 . S
C421 C420 1.434 . S
C422 C423 1.369 . S
C422 C424 1.419 . S
C422 H426 0.930 . S
C423 C422 1.369 . S
C423 C432 1.429 . S
C424 C422 1.419 . S
C424 C425 1.363 . S
C424 H427 0.929 . S
C425 C424 1.363 . S
C425 C431 1.428 . S
H426 C422 0.930 . S
H427 C424 0.929 . S
S428 N429 1.613 . S
S428 N430 1.610 . S
N429 S428 1.613 . S
N429 C432 1.350 . S
N430 S428 1.610 . S
N430 C431 1.351 . S
C431 C425 1.428 . S
C431 N430 1.351 . S
C431 C432 1.434 . S
C432 C423 1.429 . S
C432 N429 1.350 . S
C432 C431 1.434 . S
C433 C434 1.369 . S
C433 C435 1.419 . S
C433 H437 0.930 . S
C434 C433 1.369 . S
C434 C443 1.429 . S
C435 C433 1.419 . S
C435 C436 1.363 . S
C435 H438 0.929 . S
C436 C435 1.363 . S
C436 C442 1.428 . S
H437 C433 0.930 . S
H438 C435 0.929 . S
S439 N440 1.613 . S
S439 N441 1.610 . S
N440 S439 1.613 . S
N440 C443 1.350 . S
N441 S439 1.610 . S
N441 C442 1.351 . S
C442 C436 1.428 . S
C442 N441 1.351 . S
C442 C443 1.434 . S
C443 C434 1.429 . S
C443 N440 1.350 . S
C443 C442 1.434 . S
C444 C445 1.369 . S
C444 C446 1.419 . S
C444 H448 0.930 . S
C445 C444 1.369 . S
C445 C454 1.429 . S
C446 C444 1.419 . S
C446 C447 1.363 . S
C446 H449 0.929 . S
C447 C446 1.363 . S
C447 C453 1.428 . S
H448 C444 0.930 . S
H449 C446 0.929 . S
S450 N451 1.613 . S
S450 N452 1.610 . S
N451 S450 1.613 . S
N451 C454 1.350 . S
N452 S450 1.610 . S
N452 C453 1.351 . S
C453 C447 1.428 . S
C453 N452 1.351 . S
C453 C454 1.434 . S
C454 C445 1.429 . S
C454 N451 1.350 . S
C454 C453 1.434 . S
C455 C456 1.369 . S
C455 C457 1.419 . S
C455 H459 0.930 . S
C456 C455 1.369 . S
C456 C465 1.429 . S
C457 C455 1.419 . S
C457 C458 1.363 . S
C457 H460 0.929 . S
C458 C457 1.363 . S
C458 C464 1.428 . S
H459 C455 0.930 . S
H460 C457 0.929 . S
S461 N462 1.613 . S
S461 N463 1.610 . S
N462 S461 1.613 . S
N462 C465 1.350 . S
N463 S461 1.610 . S
N463 C464 1.351 . S
C464 C458 1.428 . S
C464 N463 1.351 . S
C464 C465 1.434 . S
C465 C456 1.429 . S
C465 N462 1.350 . S
C465 C464 1.434 . S
C466 C467 1.369 . S
C466 C468 1.419 . S
C466 H470 0.930 . S
C467 C466 1.369 . S
C467 C476 1.429 . S
C468 C466 1.419 . S
C468 C469 1.363 . S
C468 H471 0.929 . S
C469 C468 1.363 . S
C469 C475 1.428 . S
H470 C466 0.930 . S
H471 C468 0.929 . S
S472 N473 1.613 . S
S472 N474 1.610 . S
N473 S472 1.613 . S
N473 C476 1.350 . S
N474 S472 1.610 . S
N474 C475 1.351 . S
C475 C469 1.428 . S
C475 N474 1.351 . S
C475 C476 1.434 . S
C476 C467 1.429 . S
C476 N473 1.350 . S
C476 C475 1.434 . S
C477 C478 1.369 . S
C477 C479 1.419 . S
C477 H481 0.930 . S
C478 C477 1.369 . S
C478 C487 1.429 . S
C479 C477 1.419 . S
C479 C480 1.363 . S
C479 H482 0.929 . S
C480 C479 1.363 . S
C480 C486 1.428 . S
H481 C477 0.930 . S
H482 C479 0.929 . S
S483 N484 1.613 . S
S483 N485 1.610 . S
N484 S483 1.613 . S
N484 C487 1.350 . S
N485 S483 1.610 . S
N485 C486 1.351 . S
C486 C480 1.428 . S
C486 N485 1.351 . S
C486 C487 1.434 . S
C487 C478 1.429 . S
C487 N484 1.350 . S
C487 C486 1.434 . S
C488 C489 1.369 . S
C488 C490 1.419 . S
C488 H492 0.930 . S
C489 C488 1.369 . S
C489 C498 1.429 . S
C490 C488 1.419 . S
C490 C491 1.363 . S
C490 H493 0.929 . S
C491 C490 1.363 . S
C491 C497 1.428 . S
H492 C488 0.930 . S
H493 C490 0.929 . S
S494 N495 1.613 . S
S494 N496 1.610 . S
N495 S494 1.613 . S
N495 C498 1.350 . S
N496 S494 1.610 . S
N496 C497 1.351 . S
C497 C491 1.428 . S
C497 N496 1.351 . S
C497 C498 1.434 . S
C498 C489 1.429 . S
C498 N495 1.350 . S
C498 C497 1.434 . S
C499 C500 1.369 . S
C499 C501 1.419 . S
C499 H503 0.930 . S
C500 C499 1.369 . S
C500 C509 1.429 . S
C501 C499 1.419 . S
C501 C502 1.363 . S
C501 H504 0.929 . S
C502 C501 1.363 . S
C502 C508 1.428 . S
H503 C499 0.930 . S
H504 C501 0.929 . S
S505 N506 1.613 . S
S505 N507 1.610 . S
N506 S505 1.613 . S
N506 C509 1.350 . S
N507 S505 1.610 . S
N507 C508 1.351 . S
C508 C502 1.428 . S
C508 N507 1.351 . S
C508 C509 1.434 . S
C509 C500 1.429 . S
C509 N506 1.350 . S
C509 C508 1.434 . S
C510 C511 1.369 . S
C510 C512 1.419 . S
C510 H514 0.930 . S
C511 C510 1.369 . S
C511 C520 1.429 . S
C512 C510 1.419 . S
C512 C513 1.363 . S
C512 H515 0.929 . S
C513 C512 1.363 . S
C513 C519 1.428 . S
H514 C510 0.930 . S
H515 C512 0.929 . S
S516 N517 1.613 . S
S516 N518 1.610 . S
N517 S516 1.613 . S
N517 C520 1.350 . S
N518 S516 1.610 . S
N518 C519 1.351 . S
C519 C513 1.428 . S
C519 N518 1.351 . S
C519 C520 1.434 . S
C520 C511 1.429 . S
C520 N517 1.350 . S
C520 C519 1.434 . S
C521 C522 1.369 . S
C521 C523 1.419 . S
C521 H525 0.930 . S
C522 C521 1.369 . S
C522 C531 1.429 . S
C523 C521 1.419 . S
C523 C524 1.363 . S
C523 H526 0.929 . S
C524 C523 1.363 . S
C524 C530 1.428 . S
H525 C521 0.930 . S
H526 C523 0.929 . S
S527 N528 1.613 . S
S527 N529 1.610 . S
N528 S527 1.613 . S
N528 C531 1.350 . S
N529 S527 1.610 . S
N529 C530 1.351 . S
C530 C524 1.428 . S
C530 N529 1.351 . S
C530 C531 1.434 . S
C531 C522 1.429 . S
C531 N528 1.350 . S
C531 C530 1.434 . S
C532 C533 1.363 1_565 S
C532 C534 1.424 1_554 S
C532 H536 0.931 . S
C533 C532 1.363 1_545 S
C533 C542 1.429 . S
C534 C532 1.424 1_556 S
C534 C535 1.363 . S
C534 H537 0.929 . S
C535 C534 1.363 . S
C535 C541 1.424 1_565 S
H536 C532 0.931 . S
H537 C534 0.929 . S
S538 N539 1.613 1_556 S
S538 N540 1.610 . S
N539 S538 1.613 1_554 S
N539 C542 1.350 . S
N540 S538 1.610 . S
N540 C541 1.351 . S
C541 C535 1.424 1_545 S
C541 N540 1.351 . S
C541 C542 1.438 1_556 S
C542 C533 1.429 . S
C542 N539 1.350 . S
C542 C541 1.438 1_554 S
C543 C544 1.369 1_655 S
C543 C545 1.419 1_556 S
C543 H547 0.930 . S
C544 C543 1.369 1_455 S
C544 C553 1.429 . S
C545 C543 1.419 1_554 S
C545 C546 1.363 . S
C545 H548 0.929 . S
C546 C545 1.363 . S
C546 C552 1.428 1_655 S
H547 C543 0.930 . S
H548 C545 0.929 . S
S549 N550 1.613 1_554 S
S549 N551 1.610 . S
N550 S549 1.613 1_556 S
N550 C553 1.350 . S
N551 S549 1.610 . S
N551 C552 1.351 . S
C552 C546 1.428 1_455 S
C552 N551 1.351 . S
C552 C553 1.434 1_554 S
C553 C544 1.429 . S
C553 N550 1.350 . S
C553 C552 1.434 1_556 S
C554 C555 1.369 . S
C554 C556 1.419 1_556 S
C554 H558 0.930 . S
C555 C554 1.369 . S
C555 C564 1.429 1_545 S
C556 C554 1.419 1_554 S
C556 C557 1.363 1_545 S
C556 H559 0.929 . S
C557 C556 1.363 1_565 S
C557 C563 1.428 . S
H558 C554 0.930 . S
H559 C556 0.929 . S
S560 N561 1.613 . S
S560 N562 1.610 1_556 S
N561 S560 1.613 . S
N561 C564 1.350 . S
N562 S560 1.610 1_554 S
N562 C563 1.351 . S
C563 C557 1.428 . S
C563 N562 1.351 . S
C563 C564 1.434 1_554 S
C564 C555 1.429 1_565 S
C564 N561 1.350 . S
C564 C563 1.434 1_556 S
C565 C566 1.369 . S
C565 C567 1.419 1_656 S
C565 H569 0.930 . S
C566 C565 1.369 . S
C566 C575 1.429 . S
C567 C565 1.419 1_454 S
C567 C568 1.363 . S
C567 H570 0.929 . S
C568 C567 1.363 . S
C568 C574 1.428 . S
H569 C565 0.930 . S
H570 C567 0.929 . S
S571 N572 1.599 1_554 S
S571 N573 1.624 1_655 S
N572 S571 1.599 1_556 S
N572 C575 1.350 . S
N573 S571 1.624 1_455 S
N573 C574 1.351 . S
C574 C568 1.428 . S
C574 N573 1.351 . S
C574 C575 1.434 1_454 S
C575 C566 1.429 . S
C575 N572 1.350 . S
C575 C574 1.434 1_656 S
C225 C8 1.339 . S
C227 C106 1.338 . S
C236 C22 1.339 . S
C238 C64 1.339 . S
C247 C78 1.339 . S
C249 C36 1.339 . S
C258 C50 1.339 . S
C260 C92 1.339 . S
C269 C120 1.336 . S
C271 C218 1.337 . S
C280 C176 1.338 . S
C282 C134 1.338 . S
C291 C190 1.339 . S
C293 C148 1.339 . S
C302 C204 1.339 . S
C304 C162 1.339 . S
C313 C9 1.384 . S
C315 C157 1.461 . S
C324 C23 1.382 . S
C326 C115 1.462 . S
C335 C129 1.461 . S
C337 C37 1.379 . S
C346 C51 1.385 . S
C348 C143 1.461 . S
C357 C65 1.384 . S
C359 C185 1.461 . S
C368 C199 1.462 . S
C370 C79 1.377 . S
C379 C93 1.376 . S
C381 C213 1.462 . S
C390 C171 1.461 . S
C392 C107 1.381 . S
C401 C121 1.382 . S
C403 C45 1.462 . S
C412 C3 1.461 . S
C414 C135 1.382 . S
C423 C149 1.385 . S
C425 C17 1.461 . S
C434 C31 1.461 . S
C436 C163 1.386 . S
C445 C177 1.385 . S
C447 C73 1.461 . S
C456 C87 1.462 . S
C458 C191 1.378 . S
C467 C101 1.461 . S
C469 C205 1.381 . S
C478 C59 1.461 . S
C480 C219 1.384 . S
C489 C63 1.563 . S
C491 C7 1.562 . S
C500 C77 1.560 . S
C502 C21 1.561 . S
C511 C35 1.558 . S
C513 C91 1.558 . S
C522 C105 1.555 . S
C524 C49 1.556 . S
C533 C175 1.555 . S
C535 C119 1.556 . S
C544 C189 1.561 . S
C546 C133 1.559 . S
C555 C147 1.558 . S
C557 C203 1.559 . S
C566 C217 1.556 . S
C568 C161 1.556 . S
