# Generated by pormake.
# Topology smm, (6)-cn, num edge types: 1
# Building blocks:
#     Node 0, Type 0, BuildingBlock: UKALOJ_clean_sbu_0, # of connection points: 6
#     Node 1, Type 0, BuildingBlock: UKALOJ_clean_sbu_0, # of connection points: 6
#     Node 2, Type 0, BuildingBlock: UKALOJ_clean_sbu_0, # of connection points: 6
#     Node 3, Type 0, BuildingBlock: UKALOJ_clean_sbu_0, # of connection points: 6
#     Node 4, Type 0, BuildingBlock: UKALOJ_clean_sbu_0, # of connection points: 6
#     Node 5, Type 0, BuildingBlock: UKALOJ_clean_sbu_0, # of connection points: 6
#     Node 6, Type 0, BuildingBlock: UKALOJ_clean_sbu_0, # of connection points: 6
#     Node 7, Type 0, BuildingBlock: UKALOJ_clean_sbu_0, # of connection points: 6
#     Node 8, Type 0, BuildingBlock: UKALOJ_clean_sbu_0, # of connection points: 6
#     Edge 9, Type (0, 0), BuildingBlock: UVAHIK_clean_linker_0, # of connection points: 2
#     Edge 10, Type (0, 0), BuildingBlock: UVAHIK_clean_linker_0, # of connection points: 2
#     Edge 11, Type (0, 0), BuildingBlock: UVAHIK_clean_linker_0, # of connection points: 2
#     Edge 12, Type (0, 0), BuildingBlock: UVAHIK_clean_linker_0, # of connection points: 2
#     Edge 13, Type (0, 0), BuildingBlock: UVAHIK_clean_linker_0, # of connection points: 2
#     Edge 14, Type (0, 0), BuildingBlock: UVAHIK_clean_linker_0, # of connection points: 2
#     Edge 15, Type (0, 0), BuildingBlock: UVAHIK_clean_linker_0, # of connection points: 2
#     Edge 16, Type (0, 0), BuildingBlock: UVAHIK_clean_linker_0, # of connection points: 2
#     Edge 17, Type (0, 0), BuildingBlock: UVAHIK_clean_linker_0, # of connection points: 2
#     Edge 18, Type (0, 0), BuildingBlock: UVAHIK_clean_linker_0, # of connection points: 2
#     Edge 19, Type (0, 0), BuildingBlock: UVAHIK_clean_linker_0, # of connection points: 2
#     Edge 20, Type (0, 0), BuildingBlock: UVAHIK_clean_linker_0, # of connection points: 2
#     Edge 21, Type (0, 0), BuildingBlock: UVAHIK_clean_linker_0, # of connection points: 2
#     Edge 22, Type (0, 0), BuildingBlock: UVAHIK_clean_linker_0, # of connection points: 2
#     Edge 23, Type (0, 0), BuildingBlock: UVAHIK_clean_linker_0, # of connection points: 2
#     Edge 24, Type (0, 0), BuildingBlock: UVAHIK_clean_linker_0, # of connection points: 2
#     Edge 25, Type (0, 0), BuildingBlock: UVAHIK_clean_linker_0, # of connection points: 2
#     Edge 26, Type (0, 0), BuildingBlock: UVAHIK_clean_linker_0, # of connection points: 2
#     Edge 27, Type (0, 0), BuildingBlock: UVAHIK_clean_linker_0, # of connection points: 2
#     Edge 28, Type (0, 0), BuildingBlock: UVAHIK_clean_linker_0, # of connection points: 2
#     Edge 29, Type (0, 0), BuildingBlock: UVAHIK_clean_linker_0, # of connection points: 2
#     Edge 30, Type (0, 0), BuildingBlock: UVAHIK_clean_linker_0, # of connection points: 2
#     Edge 31, Type (0, 0), BuildingBlock: UVAHIK_clean_linker_0, # of connection points: 2
#     Edge 32, Type (0, 0), BuildingBlock: UVAHIK_clean_linker_0, # of connection points: 2
#     Edge 33, Type (0, 0), BuildingBlock: UVAHIK_clean_linker_0, # of connection points: 2
#     Edge 34, Type (0, 0), BuildingBlock: UVAHIK_clean_linker_0, # of connection points: 2
#     Edge 35, Type (0, 0), BuildingBlock: UVAHIK_clean_linker_0, # of connection points: 2
# Relax obj value: 0.293
# Max RMSD: 0.260
# Mean RMSD: 0.246
data_MOF--net-smm--node1-UKALOJ_clean_sbu_0--edge1-UVAHIK_clean_linker_0
_symmetry_space_group_name_H-M    P1
_symmetry_Int_Tables_number       1
_symmetry_cell_setting            triclinic
loop_
_symmetry_equiv_pos_as_xyz
'x, y, z'
_cell_length_a     63.066202
_cell_length_b     61.972045
_cell_length_c     24.032347
_cell_angle_alpha  92.947729
_cell_angle_beta   92.825178
_cell_angle_gamma 119.97503
loop_
_atom_site_label
_atom_site_type_symbol
_atom_site_fract_x
_atom_site_fract_y
_atom_site_fract_z
_atom_type_partial_charge
Zn0 Zn 0.00563 0.20134 0.08917 0.0
O1 O 0.98226 0.16361 0.11064 0.0
C2 C 0.03313 0.18152 0.03802 0.0
Zn3 Zn 0.98976 0.18838 0.00192 0.0
C4 C 0.96598 0.14761 0.07399 0.0
O5 O 0.96459 0.15383 0.02527 0.0
C6 C 0.02847 0.2419 0.01323 0.0
O7 O 0.96318 0.20002 0.00818 0.0
O8 O 0.97679 0.20838 0.09714 0.0
N9 N 0.97814 0.17436 0.9208 0.0
C10 C 0.97836 0.18535 0.87386 0.0
C11 C 0.9691 0.14796 0.84907 0.0
N12 N 0.9721 0.15102 0.90535 0.0
N13 N 0.97306 0.16931 0.82832 0.0
C14 C 0.01776 0.20257 0.21577 0.0
C15 C 0.02568 0.23911 0.24498 0.0
N16 N 0.01694 0.2142 0.17066 0.0
N17 N 0.02211 0.237 0.1888 0.0
N18 N 0.02296 0.2177 0.26291 0.0
H19 H 0.99477 0.16281 0.21418 0.0
H20 H 0.02465 0.17502 0.25049 0.0
H21 H 0.02121 0.17279 0.1749 0.0
C22 C 0.01452 0.17685 0.21364 0.0
C23 C 0.98303 0.21147 0.87257 0.0
H24 H 0.97687 0.21692 0.91045 0.0
H25 H 0.97331 0.21314 0.83472 0.0
H26 H 0.003 0.22441 0.87122 0.0
O27 O 0.0148 0.22346 0.97807 0.0
O28 O 0.02867 0.23862 0.06504 0.0
C29 C 0.96188 0.20707 0.05795 0.0
O30 O 0.03398 0.19406 0.08224 0.0
O31 O 0.01666 0.1764 -0.00154 0.0
Zn32 Zn 0.82272 0.84148 0.09203 0.0
O33 O 0.78831 0.83996 0.07177 0.0
C34 C 0.79821 0.786 0.07702 0.0
Zn35 Zn 0.82353 0.82769 0.0054 0.0
C36 C 0.77936 0.83284 0.02112 0.0
O37 O 0.79049 0.82659 0.9871 0.0
C38 C 0.8675 0.83723 0.07192 0.0
O39 O 0.84399 0.86625 0.98618 0.0
O40 O 0.84146 0.87793 0.07227 0.0
N41 N 0.82291 0.81548 0.92462 0.0
C42 C 0.81722 0.82197 0.87584 0.0
C43 C 0.82756 0.79473 0.85601 0.0
N44 N 0.82927 0.7985 0.91222 0.0
N45 N 0.81979 0.80907 0.83248 0.0
C46 C 0.81029 0.84435 0.21473 0.0
C47 C 0.84216 0.87783 0.24969 0.0
N48 N 0.82472 0.8544 0.17294 0.0
N49 N 0.84441 0.87533 0.19466 0.0
N50 N 0.82095 0.85856 0.26346 0.0
H51 H 0.77665 0.81886 0.16471 0.0
H52 H 0.77347 0.82205 0.23871 0.0
H53 H 0.78757 0.80481 0.21353 0.0
C54 C 0.78546 0.82124 0.20736 0.0
C55 C 0.81124 0.84238 0.86983 0.0
H56 H 0.81174 0.85187 0.91037 0.0
H57 H 0.79269 0.83448 0.84786 0.0
H58 H 0.82446 0.85636 0.84352 0.0
O59 O 0.85629 0.82879 0.02372 0.0
O60 O 0.8577 0.8437 0.10946 0.0
C61 C 0.84888 0.88347 0.02434 0.0
O62 O 0.80404 0.80447 0.11216 0.0
O63 O 0.80403 0.78977 0.02703 0.0
Zn64 Zn 0.16386 0.01144 0.9366 0.0
O65 O 0.20283 0.03808 0.94293 0.0
C66 C 0.17875 0.97346 0.93021 0.0
Zn67 Zn 0.16799 0.00071 0.01988 0.0
C68 C 0.2143 0.04313 0.99123 0.0
O69 O 0.20334 0.03085 0.03136 0.0
C70 C 0.11753 0.9689 0.96997 0.0
O71 O 0.15387 0.02363 0.05342 0.0
O72 O 0.15792 0.03896 0.97186 0.0
N73 N 0.17183 0.99022 0.09701 0.0
C74 C 0.17782 0.00259 0.14827 0.0
C75 C 0.16785 0.96484 0.15913 0.0
N76 N 0.16587 0.96683 0.1038 0.0
N77 N 0.17552 0.98707 0.18785 0.0
C78 C 0.16982 0.02202 0.81184 0.0
C79 C 0.14093 0.0296 0.79263 0.0
N80 N 0.15907 0.02125 0.85939 0.0
N81 N 0.14129 0.02619 0.84748 0.0
N82 N 0.15878 0.02728 0.76947 0.0
H83 H 0.20001 0.01816 0.84595 0.0
H84 H 0.20182 0.02559 0.77439 0.0
H85 H 0.18007 0.99474 0.79096 0.0
C86 C 0.18914 0.01488 0.80566 0.0
C87 C 0.1832 0.02896 0.15978 0.0
H88 H 0.19114 0.04004 0.12395 0.0
H89 H 0.19615 0.03836 0.19748 0.0
H90 H 0.16583 0.02863 0.16737 0.0
O91 O 0.13262 0.97052 0.009 0.0
O92 O 0.12503 0.98473 0.93342 0.0
C93 C 0.15306 0.03925 0.02228 0.0
O94 O 0.16963 0.98375 0.90105 0.0
O95 O 0.18186 0.97811 0.98319 0.0
Zn96 Zn 0.62451 0.50732 0.2557 0.0
O97 O 0.64677 0.49254 0.22462 0.0
C98 C 0.59257 0.45657 0.28908 0.0
Zn99 Zn 0.63665 0.50338 0.34035 0.0
C100 C 0.6594 0.48745 0.25865 0.0
O101 O 0.65901 0.49111 0.31072 0.0
C102 C 0.60154 0.52233 0.34142 0.0
O103 O 0.66679 0.5413 0.34486 0.0
O104 O 0.65413 0.54335 0.25953 0.0
N105 N 0.64608 0.49925 0.41903 0.0
C106 C 0.64806 0.51195 0.46794 0.0
C107 C 0.65221 0.48092 0.48653 0.0
N108 N 0.64884 0.48008 0.43052 0.0
N109 N 0.65163 0.50065 0.51094 0.0
C110 C 0.62625 0.51449 0.13037 0.0
C111 C 0.58968 0.50568 0.10534 0.0
N112 N 0.61407 0.51011 0.17667 0.0
N113 N 0.5914 0.50481 0.16123 0.0
N114 N 0.61128 0.51152 0.08511 0.0
H115 H 0.6636 0.53307 0.1691 0.0
H116 H 0.66106 0.53434 0.0946 0.0
H117 H 0.65497 0.50575 0.12326 0.0
C118 C 0.653 0.5225 0.12948 0.0
C119 C 0.64742 0.53587 0.47347 0.0
H120 H 0.6545 0.54672 0.43697 0.0
H121 H 0.6585 0.54758 0.51196 0.0
H122 H 0.62819 0.53154 0.47593 0.0
O123 O 0.61344 0.51497 0.37101 0.0
O124 O 0.60273 0.52199 0.28872 0.0
C125 C 0.66944 0.55336 0.30204 0.0
O126 O 0.59472 0.47077 0.25098 0.0
O127 O 0.60744 0.4655 0.33288 0.0
Zn128 Zn 0.51112 0.17059 0.2589 0.0
O129 O 0.47154 0.1508 0.24956 0.0
C130 C 0.51073 0.12205 0.25896 0.0
Zn131 Zn 0.51253 0.15561 0.17448 0.0
C132 C 0.46135 0.13863 0.20241 0.0
O133 O 0.47462 0.13791 0.16532 0.0
C134 C 0.56245 0.18815 0.22558 0.0
O135 O 0.5144 0.18911 0.14534 0.0
O136 O 0.51056 0.20085 0.23011 0.0
N137 N 0.51155 0.14222 0.09482 0.0
C138 C 0.52031 0.15436 0.04904 0.0
C139 C 0.49825 0.11556 0.02221 0.0
N140 N 0.49803 0.11808 0.07819 0.0
N141 N 0.51201 0.1381 0.00299 0.0
C142 C 0.50298 0.17181 0.38415 0.0
C143 C 0.52565 0.21049 0.41152 0.0
N144 N 0.51213 0.18398 0.33861 0.0
N145 N 0.52604 0.20805 0.35557 0.0
N146 N 0.51139 0.18797 0.43037 0.0
H147 H 0.4742 0.13664 0.34273 0.0
H148 H 0.47272 0.14056 0.41722 0.0
H149 H 0.49542 0.13433 0.391 0.0
C150 C 0.48521 0.14428 0.38347 0.0
C151 C 0.53764 0.18198 0.04941 0.0
H152 H 0.52699 0.19168 0.04426 0.0
H153 H 0.54948 0.18603 0.01424 0.0
H154 H 0.5494 0.18957 0.08929 0.0
O155 O 0.55047 0.17329 0.18284 0.0
O156 O 0.55082 0.19093 0.26463 0.0
C157 C 0.51239 0.20445 0.17885 0.0
O158 O 0.51166 0.13998 0.28889 0.0
O159 O 0.51022 0.12259 0.20605 0.0
Zn160 Zn 0.85414 0.38039 0.36378 0.0
O161 O 0.87344 0.35997 0.3615 0.0
C162 C 0.90155 0.42946 0.38396 0.0
Zn163 Zn 0.86911 0.39795 0.28595 0.0
C164 C 0.88548 0.36228 0.31903 0.0
O165 O 0.88646 0.37704 0.28335 0.0
C166 C 0.83668 0.41497 0.32393 0.0
O167 O 0.83595 0.36627 0.24359 0.0
O168 O 0.82437 0.34953 0.32282 0.0
N169 N 0.88266 0.41088 0.21169 0.0
C170 C 0.87149 0.40864 0.16067 0.0
C171 C 0.90972 0.42416 0.1515 0.0
N172 N 0.90644 0.42082 0.20599 0.0
N173 N 0.8881 0.41678 0.12214 0.0
C174 C 0.85314 0.37131 0.48917 0.0
C175 C 0.81538 0.35666 0.50233 0.0
N176 N 0.84105 0.36821 0.43891 0.0
N177 N 0.81755 0.35892 0.4471 0.0
N178 N 0.8375 0.36453 0.52974 0.0
H179 H 0.8867 0.375 0.46072 0.0
H180 H 0.88358 0.37141 0.53446 0.0
H181 H 0.89066 0.40049 0.50717 0.0
C182 C 0.88002 0.37992 0.49825 0.0
C183 C 0.84418 0.39613 0.14801 0.0
H184 H 0.83673 0.37592 0.13626 0.0
H185 H 0.83925 0.40399 0.11269 0.0
H186 H 0.83538 0.39834 0.18495 0.0
O187 O 0.85176 0.41865 0.2876 0.0
O188 O 0.83397 0.40003 0.36108 0.0
C189 C 0.82067 0.34855 0.27031 0.0
O190 O 0.88412 0.41182 0.40608 0.0
O191 O 0.90131 0.4288 0.33091 0.0
Zn192 Zn 0.35917 0.88598 0.66339 0.0
O193 O 0.32925 0.85088 0.68866 0.0
C194 C 0.37784 0.85468 0.62143 0.0
Zn195 Zn 0.34119 0.86929 0.57835 0.0
C196 C 0.3119 0.83443 0.65425 0.0
O197 O 0.31179 0.83821 0.60308 0.0
C198 C 0.38859 0.91911 0.58209 0.0
O199 O 0.31969 0.88768 0.58071 0.0
O200 O 0.33712 0.90178 0.66602 0.0
N201 N 0.32937 0.85595 0.49667 0.0
C202 C 0.3321 0.86828 0.45058 0.0
C203 C 0.31821 0.82998 0.4232 0.0
N204 N 0.32054 0.8321 0.4796 0.0
N205 N 0.32551 0.85248 0.40404 0.0
C206 C 0.36888 0.88778 0.79158 0.0
C207 C 0.38306 0.92627 0.81744 0.0
N208 N 0.37133 0.89968 0.74492 0.0
N209 N 0.38038 0.92366 0.76105 0.0
N210 N 0.37581 0.90397 0.83756 0.0
H211 H 0.34029 0.84997 0.79476 0.0
H212 H 0.3692 0.85722 0.82964 0.0
H213 H 0.36485 0.85336 0.75408 0.0
C214 C 0.36044 0.86051 0.79235 0.0
C215 C 0.34028 0.89557 0.45088 0.0
H216 H 0.33602 0.90245 0.48969 0.0
H217 H 0.33125 0.89892 0.4142 0.0
H218 H 0.36038 0.9065 0.44811 0.0
O219 O 0.37144 0.90057 0.55217 0.0
O220 O 0.38835 0.91969 0.63505 0.0
C221 C 0.32205 0.90009 0.62682 0.0
O222 O 0.3813 0.8705 0.66147 0.0
O223 O 0.36197 0.85001 0.58075 0.0
Zn224 Zn 0.15952 0.53119 0.78139 0.0
O225 O 0.12545 0.53138 0.76733 0.0
C226 C 0.1342 0.47584 0.77018 0.0
Zn227 Zn 0.15731 0.51661 0.69421 0.0
C228 C 0.11527 0.52415 0.7176 0.0
O229 O 0.12471 0.51652 0.6819 0.0
C230 C 0.20209 0.52431 0.75254 0.0
O231 O 0.17628 0.55466 0.67094 0.0
O232 O 0.17859 0.5673 0.75895 0.0
N233 N 0.1523 0.50255 0.61379 0.0
C234 C 0.16509 0.51231 0.56961 0.0
C235 C 0.13241 0.47857 0.53915 0.0
N236 N 0.13212 0.48145 0.59497 0.0
N237 N 0.15288 0.49775 0.52226 0.0
C238 C 0.15202 0.5368 0.90612 0.0
C239 C 0.1857 0.56961 0.93577 0.0
N240 N 0.16491 0.54567 0.86166 0.0
N241 N 0.18572 0.56623 0.88 0.0
N242 N 0.16475 0.55132 0.95314 0.0
H243 H 0.11663 0.51142 0.8623 0.0
H244 H 0.11636 0.51643 0.93717 0.0
H245 H 0.12841 0.49763 0.90988 0.0
C246 C 0.12679 0.51433 0.90351 0.0
C247 C 0.18993 0.53549 0.57301 0.0
H248 H 0.20049 0.53779 0.61326 0.0
H249 H 0.18774 0.55209 0.57008 0.0
H250 H 0.20042 0.53469 0.538 0.0
O251 O 0.18987 0.5168 0.70529 0.0
O252 O 0.19387 0.53142 0.79261 0.0
C253 C 0.18346 0.57238 0.70928 0.0
O254 O 0.14062 0.49457 0.80495 0.0
O255 O 0.13871 0.47925 0.71938 0.0
Zn256 Zn 0.50122 0.67535 0.77485 0.0
O257 O 0.48173 0.69361 0.80469 0.0
C258 C 0.45481 0.64185 0.71063 0.0
Zn259 Zn 0.50076 0.68996 0.69331 0.0
C260 C 0.47999 0.70903 0.77453 0.0
O261 O 0.48801 0.7121 0.72667 0.0
C262 C 0.52022 0.65526 0.68898 0.0
O263 O 0.53777 0.72068 0.71122 0.0
O264 O 0.53461 0.70792 0.79571 0.0
N265 N 0.49775 0.70115 0.6163 0.0
C266 C 0.5096 0.70305 0.57 0.0
C267 C 0.47921 0.70786 0.54742 0.0
N268 N 0.47907 0.70446 0.60229 0.0
N269 N 0.49828 0.70722 0.5262 0.0
C270 C 0.50956 0.67552 0.90357 0.0
C271 C 0.49618 0.63692 0.91303 0.0
N272 N 0.50265 0.6634 0.8519 0.0
N273 N 0.49448 0.63945 0.8579 0.0
N274 N 0.50581 0.65933 0.94256 0.0
H275 H 0.51395 0.71092 0.88102 0.0
H276 H 0.53886 0.71299 0.92468 0.0
H277 H 0.51066 0.70591 0.95402 0.0
C278 C 0.51857 0.70285 0.91623 0.0
C279 C 0.53072 0.69847 0.5666 0.0
H280 H 0.54164 0.70367 0.60761 0.0
H281 H 0.54291 0.70937 0.53474 0.0
H282 H 0.52349 0.67835 0.55431 0.0
O283 O 0.51279 0.66703 0.6599 0.0
O284 O 0.51965 0.6566 0.7419 0.0
C285 C 0.54646 0.72395 0.7619 0.0
O286 O 0.46781 0.64315 0.75394 0.0
O287 O 0.46354 0.65938 0.67819 0.0
C288 C 0.03102 0.27262 0.94829 0.0
C289 C 0.04204 0.26695 0.99294 0.0
C290 C 0.04374 0.2952 0.92467 0.0
C291 C 0.09349 0.35972 0.9507 0.0
H292 H 0.0863 0.35768 0.78881 0.0
C293 C 0.12716 0.4322 0.76498 0.0
C294 C 0.1233 0.4507 0.79049 0.0
C295 C 0.11953 0.40965 0.78922 0.0
C296 C 0.08879 0.35861 0.83395 0.0
H297 H 0.07459 0.28107 0.05038 0.0
H298 H 0.09717 0.32131 0.00899 0.0
H299 H 0.07009 0.31878 0.83377 0.0
H300 H 0.10688 0.45943 0.85869 0.0
H301 H 0.0935 0.42029 0.90071 0.0
H302 H 0.112 0.39959 0.95086 0.0
C303 C 0.07865 0.30785 0.99188 0.0
C304 C 0.07933 0.33633 0.85976 0.0
C305 C 0.06579 0.28496 0.01559 0.0
C306 C 0.11075 0.44583 0.83908 0.0
C307 C 0.10315 0.42341 0.86323 0.0
C308 C 0.10293 0.38204 0.92486 0.0
C309 C 0.06784 0.31291 0.94538 0.0
C310 C 0.08101 0.33663 0.91843 0.0
C311 C 0.10786 0.40525 0.83926 0.0
C312 C 0.10014 0.3817 0.86626 0.0
H313 H 0.01233 0.25963 0.93182 0.0
H314 H 0.03455 0.29889 0.89031 0.0
H315 H 0.09502 0.36053 -0.00405 0.0
H316 H 0.1369 0.43552 0.7276 0.0
H317 H 0.1234 0.39599 0.76969 0.0
C318 C 0.74002 0.83298 0.03575 0.0
C319 C 0.7564 0.83177 -8e-05 0.0
C320 C 0.71751 0.82981 0.0136 0.0
C321 C 0.68309 0.82655 0.87891 0.0
H322 H 0.62687 0.77546 0.94523 0.0
C323 C 0.5909 0.75545 0.75571 0.0
C324 C 0.56956 0.74636 0.78403 0.0
C325 C 0.61365 0.77324 0.7834 0.0
C326 C 0.64228 0.79015 0.92663 0.0
H327 H 0.76251 0.82754 0.91288 0.0
H328 H 0.72388 0.82191 0.87501 0.0
H329 H 0.66736 0.7942 0.99494 0.0
H330 H 0.55455 0.75045 0.86042 0.0
H331 H 0.59394 0.78167 0.9081 0.0
H332 H 0.658 0.82135 0.80904 0.0
C333 C 0.7282 0.82555 0.9199 0.0
C334 C 0.66553 0.80097 0.95536 0.0
C335 C 0.75036 0.8285 0.94184 0.0
C336 C 0.5709 0.75684 0.8382 0.0
C337 C 0.59343 0.77467 0.86552 0.0
C338 C 0.65982 0.81561 0.84998 0.0
C339 C 0.71126 0.82568 0.95535 0.0
C340 C 0.68632 0.81863 0.93096 0.0
C341 C 0.61518 0.78223 0.83944 0.0
C342 C 0.63928 0.79675 0.87284 0.0
H343 H 0.74422 0.83557 0.08067 0.0
H344 H 0.70482 0.83008 0.042 0.0
H345 H 0.69874 0.84046 0.85942 0.0
H346 H 0.59024 0.74756 0.71394 0.0
H347 H 0.63013 0.77866 0.76225 0.0
C348 C 0.1773 0.94699 0.84709 0.0
C349 C 0.1879 0.95865 0.90085 0.0
C350 C 0.18853 0.93716 0.81385 0.0
C351 C 0.23901 0.92209 0.81577 0.0
H352 H 0.23957 0.93532 0.65946 0.0
C353 C 0.3138 0.92909 0.6836 0.0
C354 C 0.30578 0.91007 0.6398 0.0
C355 C 0.29711 0.93401 0.70891 0.0
C356 C 0.23929 0.93127 0.70283 0.0
H357 H 0.21798 0.9683 0.96298 0.0
H358 H 0.23809 0.95181 0.90461 0.0
H359 H 0.21423 0.94399 0.72016 0.0
H360 H 0.27436 0.88288 0.58471 0.0
H361 H 0.24496 0.89215 0.62856 0.0
H362 H 0.26521 0.91076 0.7987 0.0
C363 C 0.22077 0.94965 0.8883 0.0
C364 C 0.2247 0.93608 0.73771 0.0
C365 C 0.20927 0.95913 0.92195 0.0
C366 C 0.28105 0.89775 0.61809 0.0
C367 C 0.26424 0.90289 0.6434 0.0
C368 C 0.25384 0.9177 0.78115 0.0
C369 C 0.21089 0.93915 0.83318 0.0
C370 C 0.22466 0.9319 0.79492 0.0
C371 C 0.27208 0.92025 0.6906 0.0
C372 C 0.25438 0.92261 0.7247 0.0
H373 H 0.16071 0.94624 0.82991 0.0
H374 H 0.17998 0.92862 0.77236 0.0
H375 H 0.23909 0.91809 0.85909 0.0
H376 H 0.33279 0.93904 0.70094 0.0
H377 H 0.30359 0.94775 0.74472 0.0
C378 C 0.42445 0.11164 0.13707 0.0
C379 C 0.43472 0.12728 0.18701 0.0
C380 C 0.40059 0.10397 0.11601 0.0
C381 C 0.35309 0.12197 0.12161 0.0
H382 H 0.31272 0.05704 0.03915 0.0
C383 C 0.24936 0.07556 0.0537 0.0
C384 C 0.24065 0.06135 0.00175 0.0
C385 C 0.27425 0.08753 0.07197 0.0
C386 C 0.32397 0.0754 0.06123 0.0
H387 H 0.4275 0.1461 0.25564 0.0
H388 H 0.38513 0.13197 0.21947 0.0
H389 H 0.35198 0.06733 0.08655 0.0
H390 H 0.25105 0.04978 0.92636 0.0
H391 H 0.29488 0.0706 0.95864 0.0
H392 H 0.32432 0.12947 0.09761 0.0
C393 C 0.39594 0.12618 0.19599 0.0
C394 C 0.34644 0.08129 0.08866 0.0
C395 C 0.42006 0.134 0.21712 0.0
C396 C 0.25744 0.06088 0.96631 0.0
C397 C 0.28238 0.07253 0.98503 0.0
C398 C 0.33037 0.11592 0.09466 0.0
C399 C 0.38613 0.11148 0.14453 0.0
C400 C 0.36141 0.10471 0.11886 0.0
C401 C 0.29079 0.08511 0.03895 0.0
C402 C 0.3157 0.09263 0.06391 0.0
H403 H 0.43521 0.10604 0.11279 0.0
H404 H 0.39389 0.09298 0.07599 0.0
H405 H 0.36428 0.14032 0.14373 0.0
H406 H 0.23665 0.07606 0.08179 0.0
H407 H 0.28018 0.09698 0.11373 0.0
C408 C 0.88534 0.32183 0.32471 0.0
C409 C 0.89532 0.34567 0.30498 0.0
C410 C 0.89018 0.30397 0.29958 0.0
C411 C 0.9033 0.2876 0.16313 0.0
H412 H 0.92597 0.24812 0.23832 0.0
C413 C 0.94545 0.23587 0.04886 0.0
C414 C 0.94442 0.21514 0.07209 0.0
C415 C 0.93484 0.24849 0.07477 0.0
C416 C 0.91905 0.25852 0.21654 0.0
H417 H 0.91993 0.37026 0.24734 0.0
H418 H 0.92825 0.33927 0.20402 0.0
H419 H 0.91808 0.27714 0.2934 0.0
H420 H 0.93 0.1899 0.13703 0.0
H421 H 0.91019 0.21086 0.18027 0.0
H422 H 0.90408 0.26909 0.08633 0.0
C423 C 0.91636 0.33418 0.23788 0.0
C424 C 0.91472 0.27526 0.24828 0.0
C425 C 0.91172 0.35195 0.26307 0.0
C426 C 0.93087 0.20585 0.11837 0.0
C427 C 0.9199 0.21812 0.14361 0.0
C428 C 0.9073 0.27064 0.13141 0.0
C429 C 0.9049 0.30977 0.25435 0.0
C430 C 0.90737 0.29035 0.22175 0.0
C431 C 0.92282 0.24034 0.12392 0.0
C432 C 0.91573 0.25624 0.15759 0.0
H433 H 0.87254 0.31644 0.35671 0.0
H434 H 0.88129 0.28527 0.31322 0.0
H435 H 0.89722 0.29877 0.14174 0.0
H436 H 0.95625 0.24359 0.01382 0.0
H437 H 0.93766 0.26562 0.05853 0.0
C438 C 0.79093 0.74233 0.07686 0.0
C439 C 0.78552 0.76067 0.09608 0.0
C440 C 0.78149 0.71975 0.10198 0.0
C441 C 0.75741 0.69339 0.23457 0.0
H442 H 0.72936 0.62913 0.14873 0.0
C443 C 0.69084 0.59953 0.31922 0.0
C444 C 0.69082 0.57805 0.29805 0.0
C445 C 0.70699 0.62276 0.30051 0.0
C446 C 0.7376 0.64695 0.17351 0.0
H447 H 0.76436 0.76902 0.15252 0.0
H448 H 0.74795 0.72991 0.19617 0.0
H449 H 0.74755 0.66725 0.10064 0.0
H450 H 0.70805 0.56366 0.24362 0.0
H451 H 0.73689 0.60429 0.21235 0.0
H452 H 0.74702 0.6731 0.30735 0.0
C453 C 0.76011 0.73316 0.16331 0.0
C454 C 0.74794 0.66878 0.14583 0.0
C455 C 0.76949 0.75555 0.13832 0.0
C456 C 0.70814 0.58019 0.26106 0.0
C457 C 0.72434 0.60335 0.2426 0.0
C458 C 0.74711 0.67158 0.26228 0.0
C459 C 0.76649 0.71527 0.14649 0.0
C460 C 0.75749 0.69219 0.17596 0.0
C461 C 0.72321 0.6247 0.26019 0.0
C462 C 0.7367 0.64807 0.23198 0.0
H463 H 0.8033 0.74589 0.04435 0.0
H464 H 0.78662 0.70624 0.08797 0.0
H465 H 0.76509 0.71124 0.25905 0.0
H466 H 0.67715 0.59807 0.34672 0.0
H467 H 0.70548 0.63879 0.31452 0.0
C468 C 0.09224 0.53144 0.64233 0.0
C469 C 0.09374 0.52588 0.69779 0.0
C470 C 0.07069 0.52908 0.61781 0.0
C471 C 0.00477 0.4913 0.62702 0.0
H472 H 0.00343 0.52685 0.49975 0.0
C473 C 0.91816 0.45317 0.4773 0.0
C474 C 0.92202 0.44951 0.42128 0.0
C475 C 0.93785 0.46862 0.51623 0.0
C476 C 0.0035 0.51685 0.53535 0.0
H477 H 0.07456 0.5153 0.7727 0.0
H478 H 0.03629 0.5111 0.72956 0.0
H479 H 0.04039 0.54456 0.56449 0.0
H480 H 0.94929 0.46081 0.36107 0.0
H481 H 0.98401 0.48813 0.42948 0.0
H482 H 0.96809 0.46335 0.59717 0.0
C483 C 0.0519 0.51707 0.70494 0.0
C484 C 0.02463 0.52694 0.57248 0.0
C485 C 0.07377 0.51962 0.72981 0.0
C486 C 0.94581 0.46324 0.40396 0.0
C487 C 0.96562 0.47887 0.44311 0.0
C488 C 0.98356 0.4814 0.59035 0.0
C489 C 0.04993 0.52104 0.64803 0.0
C490 C 0.02588 0.51375 0.61741 0.0
C491 C 0.96188 0.48097 0.49999 0.0
C492 C 0.98302 0.49363 0.54305 0.0
H493 H 0.1075 0.53659 0.61682 0.0
H494 H 0.06993 0.53198 0.57388 0.0
H495 H 0.00509 0.48044 0.6606 0.0
H496 H 0.89992 0.44331 0.49166 0.0
H497 H 0.93437 0.47024 0.55951 0.0
C498 C 0.54714 0.63623 0.6792 0.0
C499 C 0.52724 0.63872 0.65928 0.0
C500 C 0.55456 0.62214 0.64654 0.0
C501 C 0.53281 0.57103 0.53766 0.0
H502 H 0.59821 0.60477 0.48631 0.0
C503 C 0.57677 0.52196 0.41855 0.0
C504 C 0.588 0.53253 0.37025 0.0
C505 C 0.56775 0.53383 0.45275 0.0
C506 C 0.57988 0.59522 0.50027 0.0
H507 H 0.49886 0.62778 0.59144 0.0
H508 H 0.51125 0.60265 0.53589 0.0
H509 H 0.58645 0.627 0.55437 0.0
H510 H 0.59825 0.56342 0.31899 0.0
H511 H 0.58275 0.58463 0.37989 0.0
H512 H 0.52626 0.53919 0.48405 0.0
C513 C 0.52134 0.61178 0.57592 0.0
C514 C 0.57331 0.60777 0.5396 0.0
C515 C 0.51435 0.62623 0.60763 0.0
C516 C 0.58933 0.55477 0.35559 0.0
C517 C 0.58076 0.56699 0.39064 0.0
C518 C 0.53953 0.55834 0.49921 0.0
C519 C 0.54168 0.6099 0.59459 0.0
C520 C 0.54964 0.59584 0.55814 0.0
C521 C 0.57028 0.55677 0.43996 0.0
C522 C 0.56301 0.57042 0.4797 0.0
H523 H 0.55739 0.64582 0.71877 0.0
H524 H 0.57033 0.62086 0.66161 0.0
H525 H 0.51441 0.56154 0.55123 0.0
H526 H 0.57572 0.5049 0.43088 0.0
H527 H 0.55984 0.52565 0.49063 0.0
C528 C 0.49532 0.07602 0.25929 0.0
C529 C 0.50782 0.10015 0.28694 0.0
C530 C 0.48772 0.05508 0.28989 0.0
C531 C 0.49151 0.03554 0.43441 0.0
H532 H 0.42467 0.98341 0.3878 0.0
C533 C 0.42225 0.9639 0.5778 0.0
C534 C 0.40819 0.9392 0.5534 0.0
C535 C 0.43833 0.98295 0.54609 0.0
C536 C 0.44344 0.99772 0.40112 0.0
H537 H 0.5246 0.12143 0.36698 0.0
H538 H 0.51063 0.08537 0.42019 0.0
H539 H 0.44637 0.01684 0.32812 0.0
H540 H 0.40165 0.91471 0.47867 0.0
H541 H 0.42912 0.94772 0.42384 0.0
H542 H 0.48775 0.01668 0.50904 0.0
C543 C 0.50669 0.08221 0.37521 0.0
C544 C 0.45602 0.01681 0.3666 0.0
C545 C 0.51448 0.10301 0.34466 0.0
C546 C 0.41167 0.93368 0.49825 0.0
C547 C 0.42747 0.95255 0.46677 0.0
C548 C 0.47871 0.01657 0.46942 0.0
C549 C 0.49234 0.05793 0.34866 0.0
C550 C 0.48018 0.03615 0.38286 0.0
C551 C 0.44045 0.97746 0.48973 0.0
C552 C 0.45452 0.99755 0.45313 0.0
H553 H 0.4901 0.07326 0.21476 0.0
H554 H 0.47731 0.03665 0.26773 0.0
H555 H 0.5102 0.04987 0.44809 0.0
H556 H 0.42002 0.96865 0.62028 0.0
H557 H 0.44819 0.00207 0.56473 0.0
C558 C 0.15477 0.07991 0.01771 0.0
C559 C 0.1455 0.0571 0.04194 0.0
C560 C 0.14482 0.09524 0.02729 0.0
C561 C 0.1257 0.12876 0.06884 0.0
H562 H 0.05478 0.09395 0.0397 0.0
C563 C 0.06862 0.17831 0.07815 0.0
C564 C 0.04921 0.17054 0.03635 0.0
C565 C 0.08161 0.1656 0.08232 0.0
C566 C 0.0746 0.10392 0.04768 0.0
H567 H 0.11945 0.03293 0.09747 0.0
H568 H 0.10162 0.05982 0.11392 0.0
H569 H 0.07577 0.06997 0.04787 0.0
H570 H 0.0288 0.14386 0.96493 0.0
H571 H 0.05171 0.12171 0.97198 0.0
H572 H 0.12461 0.1627 0.06719 0.0
C573 C 0.11667 0.06575 0.08753 0.0
C574 C 0.08657 0.0902 0.05326 0.0
C575 C 0.12697 0.0505 0.07856 0.0
C576 C 0.04371 0.15036 -0.00257 0.0
C577 C 0.05663 0.13751 0.00188 0.0
C578 C 0.11372 0.14248 0.06363 0.0
C579 C 0.12515 0.08797 0.06082 0.0
C580 C 0.11228 0.10248 0.06297 0.0
C581 C 0.07541 0.14474 0.04501 0.0
C582 C 0.08809 0.1302 0.05208 0.0
H583 H 0.16913 0.08545 0.98941 0.0
H584 H 0.15162 0.1121 0.00576 0.0
H585 H 0.14553 0.13871 0.07648 0.0
H586 H 0.0733 0.19378 0.10888 0.0
H587 H 0.09591 0.17156 0.11611 0.0
C588 C 0.85608 0.92222 0.98245 0.0
C589 C 0.86456 0.90994 0.01645 0.0
C590 C 0.86797 0.94838 0.98763 0.0
C591 C 0.90561 0.00055 0.09475 0.0
H592 H 0.91278 0.04204 0.9738 0.0
C593 C 0.96012 0.10929 0.11674 0.0
C594 C 0.95069 0.1211 0.08367 0.0
C595 C 0.9485 0.08315 0.11279 0.0
C596 C 0.91061 0.03062 0.00811 0.0
H597 H 0.89263 0.91467 0.07939 0.0
H598 H 0.91403 0.96023 0.08681 0.0
H599 H 0.8967 0.99739 0.95268 0.0
H600 H 0.9206 0.11519 0.02519 0.0
H601 H 0.90007 0.06977 0.01947 0.0
H602 H 0.91967 0.03388 0.15012 0.0
C603 C 0.89794 0.94994 0.05738 0.0
C604 C 0.90146 0.00508 -0.00406 0.0
C605 C 0.88594 0.92393 0.0526 0.0
C606 C 0.92836 0.10649 0.05073 0.0
C607 C 0.91675 0.08052 0.047 0.0
C608 C 0.91484 0.02613 0.1069 0.0
C609 C 0.88848 0.96244 0.0268 0.0
C610 C 0.89885 0.98974 0.03911 0.0
C611 C 0.9273 0.0686 0.07591 0.0
C612 C 0.91731 0.0414 0.06373 0.0
H613 H 0.83931 0.91163 0.9551 0.0
H614 H 0.86018 0.95745 0.96361 0.0
H615 H 0.90335 0.98917 0.12916 0.0
H616 H 0.97744 0.12017 0.14206 0.0
H617 H 0.95701 0.07443 0.13567 0.0
C618 C 0.90191 0.83195 0.0423 0.0
C619 C 0.89338 0.84361 0.07936 0.0
C620 C 0.92696 0.84255 0.03642 0.0
C621 C 0.9809 0.9049 0.04663 0.0
H622 H 0.01491 0.86937 0.00763 0.0
C623 C 0.0728 0.95374 0.94682 0.0
C624 C 0.09131 0.95023 0.9719 0.0
C625 C 0.04833 0.93852 0.95827 0.0
C626 C 0.00568 0.87957 0.01857 0.0
H627 H 0.9044 0.8741 0.14326 0.0
H628 H 0.94839 0.8925 0.13362 0.0
H629 H 0.97419 0.84669 0.04173 0.0
H630 H 0.09858 0.92703 0.02526 0.0
H631 H 0.05617 0.90069 0.04502 0.0
H632 H 0.01242 0.93781 0.02408 0.0
C633 C 0.93561 0.8754 0.10839 0.0
C634 C 0.98235 0.86657 0.03797 0.0
C635 C 0.91047 0.86468 0.11449 0.0
C636 C 0.08472 0.93028 0.00552 0.0
C637 C 0.06037 0.91507 0.01668 0.0
C638 C 0.00418 0.91788 0.02719 0.0
C639 C 0.94398 0.86507 0.06741 0.0
C640 C 0.96967 0.87908 0.05205 0.0
C641 C 0.042 0.91948 0.99458 0.0
C642 C 0.01679 0.90535 0.01272 0.0
H643 H 0.8891 0.81563 0.01482 0.0
H644 H 0.93275 0.83413 0.00446 0.0
H645 H 0.97144 0.91502 0.05611 0.0
H646 H 0.07736 0.969 0.92084 0.0
H647 H 0.03446 0.94208 0.93991 0.0
C648 C 0.67042 0.45483 0.26523 0.0
C649 C 0.67353 0.47598 0.23997 0.0
C650 C 0.68736 0.44689 0.26008 0.0
C651 C 0.75266 0.47432 0.2479 0.0
H652 H 0.7372 0.40555 0.25309 0.0
C653 C 0.82562 0.44416 0.28083 0.0
C654 C 0.82026 0.42539 0.31735 0.0
C655 C 0.80825 0.45098 0.266 0.0
C656 C 0.74176 0.42485 0.25201 0.0
H657 H 0.69564 0.50469 0.18676 0.0
H658 H 0.72576 0.49078 0.17754 0.0
H659 H 0.7047 0.41438 0.22597 0.0
H660 H 0.79294 0.39987 0.369 0.0
H661 H 0.76256 0.41193 0.34328 0.0
H662 H 0.78968 0.48474 0.27488 0.0
C663 C 0.71014 0.48035 0.20136 0.0
C664 C 0.72321 0.4299 0.2361 0.0
C665 C 0.69288 0.48816 0.20606 0.0
C666 C 0.79764 0.41445 0.34096 0.0
C667 C 0.78015 0.42113 0.3257 0.0
C668 C 0.77126 0.46925 0.26347 0.0
C669 C 0.70797 0.46015 0.23003 0.0
C670 C 0.72831 0.4547 0.23544 0.0
C671 C 0.78509 0.43901 0.28702 0.0
C672 C 0.76583 0.44448 0.26715 0.0
H673 H 0.65561 0.4453 0.29182 0.0
H674 H 0.68523 0.43148 0.28323 0.0
H675 H 0.75713 0.49364 0.2486 0.0
H676 H 0.84293 0.45294 0.26195 0.0
H677 H 0.81254 0.46481 0.23613 0.0
C678 C 0.58011 0.41277 0.30842 0.0
C679 C 0.57638 0.42926 0.27698 0.0
C680 C 0.5696 0.38764 0.28878 0.0
C681 C 0.52281 0.33697 0.18939 0.0
H682 H 0.5696 0.31365 0.19389 0.0
C683 C 0.53268 0.24398 0.1317 0.0
C684 C 0.51328 0.22715 0.16098 0.0
C685 C 0.53778 0.2687 0.13054 0.0
C686 C 0.55642 0.31999 0.19123 0.0
H687 H 0.5569 0.43186 0.20292 0.0
H688 H 0.53828 0.38785 0.1692 0.0
H689 H 0.58275 0.35637 0.22919 0.0
H690 H 0.48252 0.22174 0.20678 0.0
H691 H 0.49103 0.26447 0.2039 0.0
H692 H 0.49632 0.30027 0.15249 0.0
C693 C 0.54955 0.39444 0.20862 0.0
C694 C 0.56384 0.34432 0.21243 0.0
C695 C 0.56021 0.41963 0.22804 0.0
C696 C 0.49758 0.23449 0.18389 0.0
C697 C 0.50243 0.25895 0.18207 0.0
C698 C 0.5153 0.31249 0.16853 0.0
C699 C 0.55498 0.37847 0.23763 0.0
C700 C 0.547 0.3529 0.21285 0.0
C701 C 0.52332 0.27665 0.15801 0.0
C702 C 0.53194 0.30362 0.17018 0.0
H703 H 0.59245 0.41956 0.34628 0.0
H704 H 0.57365 0.37556 0.31258 0.0
H705 H 0.5095 0.34316 0.18891 0.0
H706 H 0.54511 0.2387 0.11415 0.0
H707 H 0.55388 0.28195 0.11123 0.0
C708 C 0.60365 0.22087 0.27196 0.0
C709 C 0.58957 0.20289 0.22739 0.0
C710 C 0.62917 0.23557 0.2712 0.0
C711 C 0.68372 0.25313 0.27291 0.0
H712 H 0.71148 0.27994 0.1348 0.0
C713 C 0.78708 0.30458 0.26399 0.0
C714 C 0.79714 0.32822 0.24353 0.0
C715 C 0.76213 0.28724 0.25315 0.0
C716 C 0.70398 0.27259 0.17362 0.0
H717 H 0.5913 0.18604 0.1474 0.0
H718 H 0.63559 0.21138 0.14663 0.0
H719 H 0.66688 0.25483 0.1369 0.0
H720 H 0.7897 0.35172 0.19203 0.0
H721 H 0.74574 0.32139 0.1733 0.0
H722 H 0.72061 0.27127 0.3101 0.0
C723 C 0.62696 0.21442 0.1817 0.0
C724 C 0.67848 0.25808 0.17479 0.0
C725 C 0.60155 0.19974 0.18247 0.0
C726 C 0.78235 0.33346 0.2077 0.0
C727 C 0.75719 0.31614 0.1973 0.0
C728 C 0.70914 0.26752 0.2717 0.0
C729 C 0.64106 0.2326 0.22583 0.0
C730 C 0.66809 0.24822 0.22451 0.0
C731 C 0.74666 0.29337 0.22233 0.0
C732 C 0.71959 0.27737 0.22205 0.0
H733 H 0.59496 0.22383 0.30699 0.0
H734 H 0.63954 0.24959 0.30567 0.0
H735 H 0.67632 0.24563 0.3117 0.0
H736 H 0.79821 0.30012 0.29155 0.0
H737 H 0.7547 0.26958 0.27166 0.0
C738 C 0.47971 0.74743 0.80441 0.0
C739 C 0.4665 0.72159 0.7899 0.0
C740 C 0.46876 0.76185 0.79491 0.0
C741 C 0.41046 0.75941 0.74433 0.0
H742 H 0.45535 0.81718 0.66996 0.0
C743 C 0.37729 0.81407 0.61225 0.0
C744 C 0.39009 0.83992 0.6275 0.0
C745 C 0.3866 0.79916 0.63112 0.0
C746 C 0.44262 0.80118 0.69078 0.0
H747 H 0.43128 0.69014 0.75801 0.0
H748 H 0.41208 0.71517 0.74094 0.0
H749 H 0.47043 0.79274 0.71551 0.0
H750 H 0.42319 0.87073 0.67105 0.0
H751 H 0.43971 0.84494 0.70255 0.0
H752 H 0.38256 0.7678 0.71823 0.0
C753 C 0.43066 0.72444 0.76067 0.0
C754 C 0.4513 0.7873 0.71753 0.0
C755 C 0.44156 0.71001 0.77086 0.0
C756 C 0.41305 0.85084 0.65846 0.0
C757 C 0.42248 0.83607 0.67656 0.0
C758 C 0.40174 0.77326 0.71718 0.0
C759 C 0.44461 0.75068 0.76948 0.0
C760 C 0.43538 0.76629 0.74486 0.0
C761 C 0.40899 0.81 0.66466 0.0
C762 C 0.41778 0.79431 0.69026 0.0
H763 H 0.49911 0.75673 0.81813 0.0
H764 H 0.4798 0.78196 0.80356 0.0
H765 H 0.39773 0.74341 0.76511 0.0
H766 H 0.35939 0.80519 0.58908 0.0
H767 H 0.37598 0.77912 0.62087 0.0
C768 C 0.19255 0.60761 0.64948 0.0
C769 C 0.19751 0.59889 0.69836 0.0
C770 C 0.20353 0.6334 0.64469 0.0
C771 C 0.23365 0.69347 0.73509 0.0
H772 H 0.25417 0.72336 0.59568 0.0
C773 C 0.29931 0.7992 0.71569 0.0
C774 C 0.29382 0.8095 0.67032 0.0
C775 C 0.2849 0.77363 0.72209 0.0
C776 C 0.24824 0.7152 0.63479 0.0
H777 H 0.21902 0.60987 0.7785 0.0
H778 H 0.23889 0.65442 0.76918 0.0
H779 H 0.2355 0.67819 0.59764 0.0
H780 H 0.26783 0.80159 0.5988 0.0
H781 H 0.24283 0.75713 0.61008 0.0
H782 H 0.24719 0.73068 0.77243 0.0
C783 C 0.2258 0.64172 0.73558 0.0
C784 C 0.23751 0.68932 0.63589 0.0
C785 C 0.21461 0.61616 0.74068 0.0
C786 C 0.27266 0.79416 0.63398 0.0
C787 C 0.25841 0.76868 0.64014 0.0
C788 C 0.24464 0.71936 0.73408 0.0
C789 C 0.21985 0.65075 0.68842 0.0
C790 C 0.23031 0.67814 0.68619 0.0
C791 C 0.2649 0.75801 0.68301 0.0
C792 C 0.25214 0.73048 0.68399 0.0
H793 H 0.17932 0.5946 0.61643 0.0
H794 H 0.19851 0.63971 0.60776 0.0
H795 H 0.22776 0.68547 0.77435 0.0
H796 H 0.31565 0.81039 0.7438 0.0
H797 H 0.29033 0.76582 0.75548 0.0
C798 C 0.41153 0.62433 0.66975 0.0
C799 C 0.42888 0.62168 0.70301 0.0
C800 C 0.38643 0.60779 0.6722 0.0
C801 C 0.34507 0.56904 0.77264 0.0
H802 H 0.29531 0.54834 0.64884 0.0
C803 C 0.24521 0.54506 0.79682 0.0
C804 C 0.22674 0.52713 0.75765 0.0
C805 C 0.26971 0.55151 0.79283 0.0
C806 C 0.30896 0.5536 0.68381 0.0
H807 H 0.43376 0.59843 0.76089 0.0
H808 H 0.39005 0.56945 0.76441 0.0
H809 H 0.33846 0.56833 0.63068 0.0
H810 H 0.2189 0.5001 0.68727 0.0
H811 H 0.26144 0.51097 0.68114 0.0
H812 H 0.31556 0.55466 0.82586 0.0
C813 C 0.39576 0.5846 0.73761 0.0
C814 C 0.33367 0.56529 0.67339 0.0
C815 C 0.42078 0.60113 0.7353 0.0
C816 C 0.23284 0.51427 0.71757 0.0
C817 C 0.25721 0.52058 0.71382 0.0
C818 C 0.32034 0.5574 0.78309 0.0
C819 C 0.37832 0.58831 0.70776 0.0
C820 C 0.35201 0.5735 0.71776 0.0
C821 C 0.276 0.53999 0.74985 0.0
C822 C 0.30205 0.54991 0.73887 0.0
H823 H 0.41724 0.64003 0.64461 0.0
H824 H 0.3734 0.61119 0.64886 0.0
H825 H 0.3588 0.57543 0.80784 0.0
H826 H 0.24101 0.5553 0.828 0.0
H827 H 0.28381 0.56661 0.82113 0.0
C828 C 0.96058 0.15783 0.72772 0.0
C829 C 0.97703 0.17475 0.77127 0.0
C830 C 0.96553 0.16221 0.67208 0.0
C831 C 0.00258 0.21204 0.58284 0.0
H832 H 0.99409 0.15736 0.48032 0.0
C833 C 0.03673 0.22825 0.36302 0.0
C834 C 0.0202 0.21132 0.31959 0.0
C835 C 0.03253 0.22326 0.41868 0.0
C836 C -0.00361 0.17276 0.5084 0.0
H837 H 0.01223 0.20858 0.79128 0.0
H838 H 0.02064 0.21661 0.69462 0.0
H839 H 0.98312 0.14969 0.57622 0.0
H840 H 0.98587 0.17652 0.29988 0.0
H841 H 0.97863 0.16758 0.39662 0.0
H842 H 0.0157 0.2351 0.5151 0.0
C843 C 0.00356 0.20038 0.70313 0.0
C844 C 0.99002 0.16835 0.56314 0.0
C845 C -0.00137 0.19593 0.75849 0.0
C846 C -0.00054 0.18931 0.33252 0.0
C847 C 0.99523 0.18431 0.38797 0.0
C848 C 0.0089 0.21645 0.52813 0.0
C849 C 0.98713 0.18353 0.65937 0.0
C850 C 0.99307 0.18795 0.60085 0.0
C851 C 0.01155 0.20136 0.43164 0.0
C852 C 0.00587 0.19686 0.49035 0.0
H853 H 0.94402 0.1412 0.73693 0.0
H854 H 0.95252 0.14896 0.63906 0.0
H855 H 0.00487 0.22744 0.61092 0.0
H856 H 0.05266 0.24546 0.35372 0.0
H857 H 0.04552 0.23665 0.45154 0.0
C858 C 0.83707 0.81898 0.74185 0.0
C859 C 0.81705 0.81157 0.77411 0.0
C860 C 0.83513 0.82377 0.68626 0.0
C861 C 0.79096 0.81097 0.56644 0.0
H862 H 0.84426 0.8716 0.51712 0.0
C863 C 0.80691 0.82861 0.3356 0.0
C864 C 0.81475 0.85277 0.31959 0.0
C865 C 0.80396 0.82372 0.3915 0.0
C866 C 0.82909 0.85478 0.53049 0.0
H867 H 0.779 0.80178 0.77389 0.0
H868 H 0.77544 0.81017 0.67635 0.0
H869 H 0.84599 0.86213 0.61396 0.0
H870 H 0.82571 0.89074 0.34919 0.0
H871 H 0.82072 0.88228 0.44773 0.0
H872 H 0.77421 0.80351 0.48267 0.0
C873 C 0.79269 0.81253 0.69396 0.0
C874 C 0.83024 0.8492 0.58565 0.0
C875 C 0.79473 0.80793 0.74964 0.0
C876 C 0.81936 0.87192 0.36058 0.0
C877 C 0.81661 0.86709 0.41672 0.0
C878 C 0.7899 0.81647 0.5111 0.0
C879 C 0.81301 0.82091 0.66204 0.0
C880 C 0.81133 0.82711 0.60397 0.0
C881 C 0.80923 0.84301 0.43275 0.0
C882 C 0.80907 0.83831 0.49249 0.0
H883 H 0.85438 0.82181 0.76029 0.0
H884 H 0.85095 0.82983 0.66228 0.0
H885 H 0.77616 0.79379 0.57948 0.0
H886 H 0.8044 0.81377 0.30558 0.0
H887 H 0.79882 0.80513 0.40279 0.0
C888 C 0.18385 0.04071 0.68916 0.0
C889 C 0.16132 0.02546 0.7108 0.0
C890 C 0.18637 0.03802 0.63217 0.0
C891 C 0.15021 0.01255 0.49524 0.0
H892 H 0.20759 0.01086 0.44994 0.0
C893 C 0.15387 0.97697 0.273 0.0
C894 C 0.17545 0.99119 0.247 0.0
C895 C 0.15306 0.98191 0.32989 0.0
C896 C 0.1916 0.01157 0.46194 0.0
H897 H 0.12363 0.99614 0.69083 0.0
H898 H 0.12785 0.99119 0.59114 0.0
H899 H 0.2044 0.01904 0.5488 0.0
H900 H 0.21348 0.02059 0.25954 0.0
H901 H 0.21217 0.0296 0.35957 0.0
H902 H 0.13728 0.00484 0.40859 0.0
C903 C 0.14359 0.00532 0.61777 0.0
C904 C 0.18979 0.0163 0.51848 0.0
C905 C 0.14114 0.00804 0.67465 0.0
C906 C 0.19656 0.00978 0.27896 0.0
C907 C 0.19582 0.01472 0.33602 0.0
C908 C 0.152 0.00779 0.43883 0.0
C909 C 0.16629 0.02016 0.59594 0.0
C910 C 0.16894 0.01658 0.53575 0.0
C911 C 0.17393 0.00107 0.36185 0.0
C912 C 0.17258 0.00698 0.42164 0.0
H913 H 0.19944 0.05468 0.71642 0.0
H914 H 0.20396 0.05001 0.6164 0.0
H915 H 0.13413 0.0131 0.50712 0.0
H916 H 0.13748 0.96246 0.24884 0.0
H917 H 0.13608 0.97076 0.34884 0.0
C918 C 0.66583 0.50162 0.60861 0.0
C919 C 0.65088 0.50532 0.56964 0.0
C920 C 0.66371 0.50419 0.66579 0.0
C921 C 0.64363 0.5325 0.77095 0.0
H922 H 0.62533 0.47329 0.84927 0.0
C923 C 0.60802 0.52277 0.98973 0.0
C924 C 0.61579 0.51109 0.02739 0.0
C925 C 0.613 0.52274 0.93374 0.0
C926 C 0.63086 0.49017 0.82846 0.0
H927 H 0.62101 0.51308 0.5598 0.0
H928 H 0.61833 0.51897 0.65939 0.0
H929 H 0.63552 0.47382 0.7528 0.0
H930 H 0.63292 0.48849 0.03577 0.0
H931 H 0.64314 0.48982 0.93969 0.0
H932 H 0.63948 0.54914 0.84665 0.0
C933 C 0.63199 0.51461 0.6457 0.0
C934 C 0.63665 0.4904 0.77328 0.0
C935 C 0.63376 0.51155 0.58873 0.0
C936 C 0.62776 0.49861 0.00805 0.0
C937 C 0.63309 0.49891 0.95261 0.0
C938 C 0.63827 0.53248 0.82656 0.0
C939 C 0.64674 0.51068 0.68452 0.0
C940 C 0.64287 0.51147 0.74412 0.0
C941 C 0.62584 0.51102 0.91477 0.0
C942 C 0.63165 0.51122 0.8558 0.0
H943 H 0.67886 0.49643 0.59466 0.0
H944 H 0.67511 0.5009 0.69534 0.0
H945 H 0.64839 0.54893 0.74887 0.0
H946 H 0.59838 0.53212 0.00387 0.0
H947 H 0.60666 0.53175 0.90536 0.0
C948 C 0.51559 0.16419 0.50447 0.0
C949 C 0.51032 0.18248 0.48768 0.0
C950 C 0.51537 0.15925 0.56035 0.0
C951 C 0.52175 0.18745 0.70235 0.0
H952 H 0.49212 0.11888 0.74103 0.0
C953 C 0.50727 0.16154 0.92878 0.0
C954 C 0.51275 0.1434 0.94556 0.0
C955 C 0.50724 0.16633 0.87285 0.0
C956 C 0.50072 0.13811 0.73079 0.0
H957 H 0.50161 0.21062 0.51557 0.0
H958 H 0.50101 0.20193 0.61423 0.0
H959 H 0.49074 0.12727 0.64326 0.0
H960 H 0.52156 0.11534 0.91755 0.0
H961 H 0.52171 0.12378 0.81878 0.0
H962 H 0.53173 0.19829 0.78986 0.0
C963 C 0.50519 0.19132 0.584 0.0
C964 C 0.49988 0.14292 0.6749 0.0
C965 C 0.50541 0.19623 0.52784 0.0
C966 C 0.5176 0.12962 0.9053 0.0
C967 C 0.51756 0.13439 0.84908 0.0
C968 C 0.52258 0.18264 0.75823 0.0
C969 C 0.51013 0.17272 0.60071 0.0
C970 C 0.51041 0.16764 0.66013 0.0
C971 C 0.51244 0.15287 0.83241 0.0
C972 C 0.51207 0.15793 0.77299 0.0
H973 H 0.52055 0.15417 0.47458 0.0
H974 H 0.51988 0.14529 0.57215 0.0
H975 H 0.53037 0.20669 0.69211 0.0
H976 H 0.50237 0.17159 0.95876 0.0
H977 H 0.5026 0.18021 0.86107 0.0
C978 C 0.86301 0.39136 0.61363 0.0
C979 C 0.84295 0.36876 0.58942 0.0
C980 C 0.86787 0.39591 0.67153 0.0
C981 C 0.83894 0.38009 0.80215 0.0
H982 H 0.90546 0.40583 0.86824 0.0
C983 C 0.87064 0.42148 0.03243 0.0
C984 C 0.88374 0.41239 0.06239 0.0
C985 C 0.86547 0.41593 0.97452 0.0
C986 C 0.88679 0.39858 0.85035 0.0
H987 H 0.81151 0.3338 0.60657 0.0
H988 H 0.81982 0.34189 0.70876 0.0
H989 H 0.89631 0.39543 0.76724 0.0
H990 H 0.90265 0.39144 0.05593 0.0
H991 H 0.89408 0.3821 0.95445 0.0
H992 H 0.8295 0.38344 0.88538 0.0
C993 C 0.83201 0.35583 0.68257 0.0
C994 C 0.88159 0.39277 0.79264 0.0
C995 C 0.82731 0.35115 0.62439 0.0
C996 C 0.89245 0.39856 0.03346 0.0
C997 C 0.88755 0.39324 0.97562 0.0
C998 C 0.84421 0.3862 0.85988 0.0
C999 C 0.85245 0.37821 0.70658 0.0
C1000 C 0.85764 0.38349 0.768 0.0
C1001 C 0.87378 0.40165 0.94567 0.0
C1002 C 0.86819 0.39549 0.88448 0.0
H1003 H 0.87456 0.40588 0.58797 0.0
H1004 H 0.88338 0.41359 0.68897 0.0
H1005 H 0.82037 0.37316 0.78407 0.0
H1006 H 0.8645 0.4329 0.05381 0.0
H1007 H 0.85522 0.42303 0.9522 0.0
C1008 C 0.31209 0.84385 0.30344 0.0
C1009 C 0.32997 0.85838 0.3473 0.0
C1010 C 0.31693 0.84898 0.248 0.0
C1011 C 0.35842 0.89858 0.16226 0.0
H1012 H 0.33829 0.84344 0.0493 0.0
C1013 C 0.38962 0.9132 0.93804 0.0
C1014 C 0.37152 0.89855 0.89462 0.0
C1015 C 0.38499 0.90837 0.99373 0.0
C1016 C 0.34385 0.85903 0.08029 0.0
H1017 H 0.36741 0.8885 0.36782 0.0
H1018 H 0.37583 0.89775 0.2715 0.0
H1019 H 0.32856 0.83484 0.14547 0.0
H1020 H 0.33392 0.86864 0.87515 0.0
H1021 H 0.32588 0.8599 0.97182 0.0
H1022 H 0.37372 0.92277 0.097 0.0
C1023 C 0.35778 0.88294 0.27971 0.0
C1024 C 0.33821 0.8541 0.13532 0.0
C1025 C 0.35292 0.87779 0.33491 0.0
C1026 C 0.34856 0.87941 0.9077 0.0
C1027 C 0.34392 0.87455 0.9631 0.0
C1028 C 0.36407 0.90351 0.1072 0.0
C1029 C 0.33986 0.8686 0.23559 0.0
C1030 C 0.34542 0.87382 0.1769 0.0
C1031 C 0.36208 0.88892 0.00676 0.0
C1032 C 0.35679 0.88379 0.0656 0.0
H1033 H 0.29439 0.82861 0.31225 0.0
H1034 H 0.3027 0.83768 0.2149 0.0
H1035 H 0.36396 0.91417 0.19324 0.0
H1036 H 0.40732 0.92825 0.9287 0.0
H1037 H 0.39937 0.91971 0.0265 0.0
C1038 C 0.16531 0.56421 0.05176 0.0
C1039 C 0.16093 0.54552 0.00992 0.0
C1040 C 0.16395 0.55912 0.10782 0.0
C1041 C 0.14013 0.50733 0.19899 0.0
H1042 H 0.19277 0.5557 0.30603 0.0
C1043 C 0.15267 0.48511 0.42362 0.0
C1044 C 0.15682 0.50369 0.46556 0.0
C1045 C 0.15415 0.49029 0.36763 0.0
C1046 C 0.17788 0.5421 0.27662 0.0
H1047 H 0.15303 0.50741 0.99346 0.0
H1048 H 0.15015 0.4983 0.0908 0.0
H1049 H 0.19187 0.56497 0.2088 0.0
H1050 H 0.16456 0.54175 0.48216 0.0
H1051 H 0.16763 0.551 0.38489 0.0
H1052 H 0.12616 0.48446 0.26679 0.0
C1053 C 0.15385 0.51662 0.08051 0.0
C1054 C 0.17729 0.54746 0.22115 0.0
C1055 C 0.15526 0.52174 0.02473 0.0
C1056 C 0.16243 0.52748 0.45085 0.0
C1057 C 0.16397 0.53269 0.39512 0.0
C1058 C 0.14073 0.50197 0.25445 0.0
C1059 C 0.15839 0.53531 0.12263 0.0
C1060 C 0.15842 0.53011 0.18186 0.0
C1061 C 0.15961 0.51409 0.35294 0.0
C1062 C 0.1596 0.51931 0.29374 0.0
H1063 H 0.17006 0.58276 0.04096 0.0
H1064 H 0.16742 0.57383 0.13956 0.0
H1065 H 0.12524 0.49374 0.1696 0.0
H1066 H 0.148 0.46657 0.43429 0.0
H1067 H 0.15082 0.47565 0.33584 0.0
C1068 C 0.48082 0.6844 0.43416 0.0
C1069 C 0.5006 0.70387 0.46781 0.0
C1070 C 0.48276 0.68057 0.37745 0.0
C1071 C 0.52765 0.69367 0.27313 0.0
H1072 H 0.47109 0.67482 0.16864 0.0
C1073 C 0.52844 0.68391 0.03137 0.0
C1074 C 0.50748 0.66366 0.00231 0.0
C1075 C 0.52897 0.68923 0.08885 0.0
C1076 C 0.48696 0.67983 0.19736 0.0
H1077 H 0.5376 0.73513 0.46918 0.0
H1078 H 0.54117 0.72859 0.36913 0.0
H1079 H 0.46949 0.68443 0.26723 0.0
H1080 H 0.47129 0.6323 0.01038 0.0
H1081 H 0.47219 0.64132 0.11095 0.0
H1082 H 0.54509 0.68909 0.20273 0.0
C1083 C 0.52431 0.71596 0.38686 0.0
C1084 C 0.48605 0.68535 0.25385 0.0
C1085 C 0.52232 0.71974 0.44386 0.0
C1086 C 0.48756 0.6481 0.03198 0.0
C1087 C 0.48802 0.65343 0.08928 0.0
C1088 C 0.52858 0.68821 0.21639 0.0
C1089 C 0.5045 0.69631 0.35305 0.0
C1090 C 0.50624 0.69201 0.29254 0.0
C1091 C 0.50853 0.67432 0.11813 0.0
C1092 C 0.50811 0.68091 0.17809 0.0
H1093 H 0.46397 0.67191 0.45215 0.0
H1094 H 0.46731 0.66502 0.35288 0.0
H1095 H 0.54343 0.69853 0.30198 0.0
H1096 H 0.54425 0.69577 0.00948 0.0
H1097 H 0.54505 0.70541 0.10999 0.0
loop_
_geom_bond_atom_site_label_1
_geom_bond_atom_site_label_2
_geom_bond_distance
_geom_bond_site_symmetry_2
_ccdc_geom_bond_type
Zn0 O1 2.055 1_455 S
Zn0 O8 2.046 1_455 S
Zn0 N16 2.036 . S
Zn0 O28 2.053 . S
Zn0 O30 2.066 . S
O1 Zn0 2.055 1_655 S
O1 C4 1.259 . S
C2 O30 1.256 . S
C2 O31 1.244 1_554 S
Zn3 O5 2.046 1_455 S
Zn3 O7 2.055 1_455 S
Zn3 N9 2.037 1_455 S
Zn3 O27 2.066 . S
Zn3 O31 2.053 . S
C4 O1 1.259 . S
C4 O5 1.254 1_554 S
O5 Zn3 2.046 1_655 S
O5 C4 1.254 1_556 S
C6 O27 1.256 1_554 S
C6 O28 1.244 . S
O7 Zn3 2.055 1_655 S
O7 C29 1.259 1_556 S
O8 Zn0 2.046 1_655 S
O8 C29 1.254 . S
N9 Zn3 2.037 1_655 S
N9 C10 1.315 . S
N9 N12 1.373 1_655 S
C10 N9 1.315 . S
C10 N13 1.366 . S
C10 C23 1.481 . S
C11 N12 1.299 . S
C11 N13 1.381 1_455 S
N12 N9 1.373 1_455 S
N12 C11 1.299 . S
N13 C10 1.366 . S
N13 C11 1.381 1_655 S
C14 N16 1.298 . S
C14 N18 1.367 . S
C14 C22 1.481 . S
C15 N17 1.299 . S
C15 N18 1.379 . S
N16 Zn0 2.036 . S
N16 C14 1.298 . S
N16 N17 1.398 . S
N17 C15 1.299 . S
N17 N16 1.398 . S
N18 C14 1.367 . S
N18 C15 1.379 . S
H19 C22 0.980 . S
H20 C22 0.981 . S
H21 C22 0.981 . S
C22 C14 1.481 . S
C22 H19 0.980 . S
C22 H20 0.981 . S
C22 H21 0.981 . S
C23 C10 1.481 . S
C23 H24 0.980 . S
C23 H25 0.981 . S
C23 H26 0.981 . S
H24 C23 0.980 . S
H25 C23 0.981 . S
H26 C23 0.981 . S
O27 Zn3 2.066 . S
O27 C6 1.256 1_556 S
O28 Zn0 2.053 . S
O28 C6 1.244 . S
C29 O7 1.259 1_554 S
C29 O8 1.254 . S
O30 Zn0 2.066 . S
O30 C2 1.256 . S
O31 C2 1.244 1_556 S
O31 Zn3 2.053 . S
Zn32 O33 2.055 . S
Zn32 O40 2.046 . S
Zn32 N48 2.036 . S
Zn32 O60 2.053 . S
Zn32 O62 2.066 . S
O33 Zn32 2.055 . S
O33 C36 1.259 . S
C34 O62 1.256 . S
C34 O63 1.244 . S
Zn35 O37 2.046 . S
Zn35 O39 2.055 . S
Zn35 N41 2.036 . S
Zn35 O59 2.066 . S
Zn35 O63 2.053 1_556 S
C36 O33 1.259 . S
C36 O37 1.254 1_554 S
O37 Zn35 2.046 . S
O37 C36 1.254 1_556 S
C38 O59 1.256 1_554 S
C38 O60 1.244 . S
O39 Zn35 2.055 . S
O39 C61 1.259 1_556 S
O40 Zn32 2.046 . S
O40 C61 1.254 . S
N41 Zn35 2.036 . S
N41 C42 1.298 . S
N41 N44 1.398 . S
C42 N41 1.298 . S
C42 N45 1.367 . S
C42 C55 1.481 . S
C43 N44 1.299 . S
C43 N45 1.379 . S
N44 N41 1.398 . S
N44 C43 1.299 . S
N45 C42 1.367 . S
N45 C43 1.379 . S
C46 N48 1.298 . S
C46 N50 1.367 . S
C46 C54 1.481 . S
C47 N49 1.299 . S
C47 N50 1.379 . S
N48 Zn32 2.036 . S
N48 C46 1.298 . S
N48 N49 1.398 . S
N49 C47 1.299 . S
N49 N48 1.398 . S
N50 C46 1.367 . S
N50 C47 1.379 . S
H51 C54 0.980 . S
H52 C54 0.981 . S
H53 C54 0.981 . S
C54 C46 1.481 . S
C54 H51 0.980 . S
C54 H52 0.981 . S
C54 H53 0.981 . S
C55 C42 1.481 . S
C55 H56 0.980 . S
C55 H57 0.981 . S
C55 H58 0.981 . S
H56 C55 0.980 . S
H57 C55 0.981 . S
H58 C55 0.981 . S
O59 Zn35 2.066 . S
O59 C38 1.256 1_556 S
O60 Zn32 2.053 . S
O60 C38 1.244 . S
C61 O39 1.259 1_554 S
C61 O40 1.254 . S
O62 Zn32 2.066 . S
O62 C34 1.256 . S
O63 C34 1.244 . S
O63 Zn35 2.053 1_554 S
Zn64 O65 2.055 . S
Zn64 O72 2.046 . S
Zn64 N80 2.036 . S
Zn64 O92 2.053 1_545 S
Zn64 O94 2.066 1_545 S
O65 Zn64 2.055 . S
O65 C68 1.259 1_556 S
C66 O94 1.256 . S
C66 O95 1.244 1_556 S
Zn67 O69 2.046 . S
Zn67 O71 2.055 . S
Zn67 N73 2.036 . S
Zn67 O91 2.066 1_545 S
Zn67 O95 2.053 1_545 S
C68 O65 1.259 1_554 S
C68 O69 1.254 . S
O69 Zn67 2.046 . S
O69 C68 1.254 . S
C70 O91 1.256 1_556 S
C70 O92 1.244 . S
O71 Zn67 2.055 . S
O71 C93 1.259 . S
O72 Zn64 2.046 . S
O72 C93 1.254 1_556 S
N73 Zn67 2.036 . S
N73 C74 1.298 . S
N73 N76 1.398 1_545 S
C74 N73 1.298 . S
C74 N77 1.367 1_545 S
C74 C87 1.481 . S
C75 N76 1.299 . S
C75 N77 1.379 . S
N76 N73 1.398 1_565 S
N76 C75 1.299 . S
N77 C74 1.367 1_565 S
N77 C75 1.379 . S
C78 N80 1.298 . S
C78 N82 1.367 . S
C78 C86 1.481 . S
C79 N81 1.299 . S
C79 N82 1.379 . S
N80 Zn64 2.036 . S
N80 C78 1.298 . S
N80 N81 1.398 . S
N81 C79 1.299 . S
N81 N80 1.398 . S
N82 C78 1.367 . S
N82 C79 1.379 . S
H83 C86 0.980 . S
H84 C86 0.981 . S
H85 C86 0.981 . S
C86 C78 1.481 . S
C86 H83 0.980 . S
C86 H84 0.981 . S
C86 H85 0.981 . S
C87 C74 1.481 . S
C87 H88 0.980 . S
C87 H89 0.981 . S
C87 H90 0.981 . S
H88 C87 0.980 . S
H89 C87 0.981 . S
H90 C87 0.981 . S
O91 Zn67 2.066 1_565 S
O91 C70 1.256 1_554 S
O92 Zn64 2.053 1_565 S
O92 C70 1.244 . S
C93 O71 1.259 . S
C93 O72 1.254 1_554 S
O94 Zn64 2.066 1_565 S
O94 C66 1.256 . S
O95 C66 1.244 1_554 S
O95 Zn67 2.053 1_565 S
Zn96 O97 2.055 . S
Zn96 O104 2.046 . S
Zn96 N112 2.036 . S
Zn96 O124 2.053 . S
Zn96 O126 2.066 . S
O97 Zn96 2.055 . S
O97 C100 1.259 . S
C98 O126 1.256 . S
C98 O127 1.244 . S
Zn99 O101 2.046 . S
Zn99 O103 2.055 . S
Zn99 N105 2.036 . S
Zn99 O123 2.066 . S
Zn99 O127 2.053 . S
C100 O97 1.259 . S
C100 O101 1.254 . S
O101 Zn99 2.046 . S
O101 C100 1.254 . S
C102 O123 1.256 . S
C102 O124 1.244 . S
O103 Zn99 2.055 . S
O103 C125 1.259 . S
O104 Zn96 2.046 . S
O104 C125 1.254 . S
N105 Zn99 2.036 . S
N105 C106 1.298 . S
N105 N108 1.398 . S
C106 N105 1.298 . S
C106 N109 1.367 . S
C106 C119 1.481 . S
C107 N108 1.299 . S
C107 N109 1.379 . S
N108 N105 1.398 . S
N108 C107 1.299 . S
N109 C106 1.367 . S
N109 C107 1.379 . S
C110 N112 1.298 . S
C110 N114 1.367 . S
C110 C118 1.481 . S
C111 N113 1.299 . S
C111 N114 1.379 . S
N112 Zn96 2.036 . S
N112 C110 1.298 . S
N112 N113 1.398 . S
N113 C111 1.299 . S
N113 N112 1.398 . S
N114 C110 1.367 . S
N114 C111 1.379 . S
H115 C118 0.980 . S
H116 C118 0.981 . S
H117 C118 0.981 . S
C118 C110 1.481 . S
C118 H115 0.980 . S
C118 H116 0.981 . S
C118 H117 0.981 . S
C119 C106 1.481 . S
C119 H120 0.980 . S
C119 H121 0.981 . S
C119 H122 0.981 . S
H120 C119 0.980 . S
H121 C119 0.981 . S
H122 C119 0.981 . S
O123 Zn99 2.066 . S
O123 C102 1.256 . S
O124 Zn96 2.053 . S
O124 C102 1.244 . S
C125 O103 1.259 . S
C125 O104 1.254 . S
O126 Zn96 2.066 . S
O126 C98 1.256 . S
O127 C98 1.244 . S
O127 Zn99 2.053 . S
Zn128 O129 2.055 . S
Zn128 O136 2.046 . S
Zn128 N144 2.036 . S
Zn128 O156 2.053 . S
Zn128 O158 2.066 . S
O129 Zn128 2.055 . S
O129 C132 1.259 . S
C130 O158 1.256 . S
C130 O159 1.244 . S
Zn131 O133 2.046 . S
Zn131 O135 2.055 . S
Zn131 N137 2.036 . S
Zn131 O155 2.066 . S
Zn131 O159 2.053 . S
C132 O129 1.259 . S
C132 O133 1.254 . S
O133 Zn131 2.046 . S
O133 C132 1.254 . S
C134 O155 1.256 . S
C134 O156 1.244 . S
O135 Zn131 2.055 . S
O135 C157 1.259 . S
O136 Zn128 2.046 . S
O136 C157 1.254 . S
N137 Zn131 2.036 . S
N137 C138 1.298 . S
N137 N140 1.398 . S
C138 N137 1.298 . S
C138 N141 1.367 . S
C138 C151 1.481 . S
C139 N140 1.299 . S
C139 N141 1.379 . S
N140 N137 1.398 . S
N140 C139 1.299 . S
N141 C138 1.367 . S
N141 C139 1.379 . S
C142 N144 1.298 . S
C142 N146 1.367 . S
C142 C150 1.481 . S
C143 N145 1.299 . S
C143 N146 1.379 . S
N144 Zn128 2.036 . S
N144 C142 1.298 . S
N144 N145 1.398 . S
N145 C143 1.299 . S
N145 N144 1.398 . S
N146 C142 1.367 . S
N146 C143 1.379 . S
H147 C150 0.980 . S
H148 C150 0.981 . S
H149 C150 0.981 . S
C150 C142 1.481 . S
C150 H147 0.980 . S
C150 H148 0.981 . S
C150 H149 0.981 . S
C151 C138 1.481 . S
C151 H152 0.980 . S
C151 H153 0.981 . S
C151 H154 0.981 . S
H152 C151 0.980 . S
H153 C151 0.981 . S
H154 C151 0.981 . S
O155 Zn131 2.066 . S
O155 C134 1.256 . S
O156 Zn128 2.053 . S
O156 C134 1.244 . S
C157 O135 1.259 . S
C157 O136 1.254 . S
O158 Zn128 2.066 . S
O158 C130 1.256 . S
O159 C130 1.244 . S
O159 Zn131 2.053 . S
Zn160 O161 2.055 . S
Zn160 O168 2.046 . S
Zn160 N176 2.036 . S
Zn160 O188 2.053 . S
Zn160 O190 2.066 . S
O161 Zn160 2.055 . S
O161 C164 1.259 . S
C162 O190 1.256 . S
C162 O191 1.244 . S
Zn163 O165 2.046 . S
Zn163 O167 2.055 . S
Zn163 N169 2.036 . S
Zn163 O187 2.066 . S
Zn163 O191 2.053 . S
C164 O161 1.259 . S
C164 O165 1.254 . S
O165 Zn163 2.046 . S
O165 C164 1.254 . S
C166 O187 1.256 . S
C166 O188 1.244 . S
O167 Zn163 2.055 . S
O167 C189 1.259 . S
O168 Zn160 2.046 . S
O168 C189 1.254 . S
N169 Zn163 2.036 . S
N169 C170 1.298 . S
N169 N172 1.398 . S
C170 N169 1.298 . S
C170 N173 1.367 . S
C170 C183 1.481 . S
C171 N172 1.299 . S
C171 N173 1.379 . S
N172 N169 1.398 . S
N172 C171 1.299 . S
N173 C170 1.367 . S
N173 C171 1.379 . S
C174 N176 1.298 . S
C174 N178 1.367 . S
C174 C182 1.481 . S
C175 N177 1.299 . S
C175 N178 1.379 . S
N176 Zn160 2.036 . S
N176 C174 1.298 . S
N176 N177 1.398 . S
N177 C175 1.299 . S
N177 N176 1.398 . S
N178 C174 1.367 . S
N178 C175 1.379 . S
H179 C182 0.980 . S
H180 C182 0.981 . S
H181 C182 0.981 . S
C182 C174 1.481 . S
C182 H179 0.980 . S
C182 H180 0.981 . S
C182 H181 0.981 . S
C183 C170 1.481 . S
C183 H184 0.980 . S
C183 H185 0.981 . S
C183 H186 0.981 . S
H184 C183 0.980 . S
H185 C183 0.981 . S
H186 C183 0.981 . S
O187 Zn163 2.066 . S
O187 C166 1.256 . S
O188 Zn160 2.053 . S
O188 C166 1.244 . S
C189 O167 1.259 . S
C189 O168 1.254 . S
O190 Zn160 2.066 . S
O190 C162 1.256 . S
O191 C162 1.244 . S
O191 Zn163 2.053 . S
Zn192 O193 2.055 . S
Zn192 O200 2.046 . S
Zn192 N208 2.036 . S
Zn192 O220 2.053 . S
Zn192 O222 2.066 . S
O193 Zn192 2.055 . S
O193 C196 1.259 . S
C194 O222 1.256 . S
C194 O223 1.244 . S
Zn195 O197 2.046 . S
Zn195 O199 2.055 . S
Zn195 N201 2.036 . S
Zn195 O219 2.066 . S
Zn195 O223 2.053 . S
C196 O193 1.259 . S
C196 O197 1.254 . S
O197 Zn195 2.046 . S
O197 C196 1.254 . S
C198 O219 1.256 . S
C198 O220 1.244 . S
O199 Zn195 2.055 . S
O199 C221 1.259 . S
O200 Zn192 2.046 . S
O200 C221 1.254 . S
N201 Zn195 2.036 . S
N201 C202 1.298 . S
N201 N204 1.398 . S
C202 N201 1.298 . S
C202 N205 1.367 . S
C202 C215 1.481 . S
C203 N204 1.299 . S
C203 N205 1.379 . S
N204 N201 1.398 . S
N204 C203 1.299 . S
N205 C202 1.367 . S
N205 C203 1.379 . S
C206 N208 1.298 . S
C206 N210 1.367 . S
C206 C214 1.481 . S
C207 N209 1.299 . S
C207 N210 1.379 . S
N208 Zn192 2.036 . S
N208 C206 1.298 . S
N208 N209 1.398 . S
N209 C207 1.299 . S
N209 N208 1.398 . S
N210 C206 1.367 . S
N210 C207 1.379 . S
H211 C214 0.980 . S
H212 C214 0.981 . S
H213 C214 0.981 . S
C214 C206 1.481 . S
C214 H211 0.980 . S
C214 H212 0.981 . S
C214 H213 0.981 . S
C215 C202 1.481 . S
C215 H216 0.980 . S
C215 H217 0.981 . S
C215 H218 0.981 . S
H216 C215 0.980 . S
H217 C215 0.981 . S
H218 C215 0.981 . S
O219 Zn195 2.066 . S
O219 C198 1.256 . S
O220 Zn192 2.053 . S
O220 C198 1.244 . S
C221 O199 1.259 . S
C221 O200 1.254 . S
O222 Zn192 2.066 . S
O222 C194 1.256 . S
O223 C194 1.244 . S
O223 Zn195 2.053 . S
Zn224 O225 2.055 . S
Zn224 O232 2.046 . S
Zn224 N240 2.036 . S
Zn224 O252 2.053 . S
Zn224 O254 2.066 . S
O225 Zn224 2.055 . S
O225 C228 1.259 . S
C226 O254 1.256 . S
C226 O255 1.244 . S
Zn227 O229 2.046 . S
Zn227 O231 2.055 . S
Zn227 N233 2.036 . S
Zn227 O251 2.066 . S
Zn227 O255 2.053 . S
C228 O225 1.259 . S
C228 O229 1.254 . S
O229 Zn227 2.046 . S
O229 C228 1.254 . S
C230 O251 1.256 . S
C230 O252 1.244 . S
O231 Zn227 2.055 . S
O231 C253 1.259 . S
O232 Zn224 2.046 . S
O232 C253 1.254 . S
N233 Zn227 2.036 . S
N233 C234 1.298 . S
N233 N236 1.398 . S
C234 N233 1.298 . S
C234 N237 1.367 . S
C234 C247 1.481 . S
C235 N236 1.299 . S
C235 N237 1.379 . S
N236 N233 1.398 . S
N236 C235 1.299 . S
N237 C234 1.367 . S
N237 C235 1.379 . S
C238 N240 1.298 . S
C238 N242 1.367 . S
C238 C246 1.481 . S
C239 N241 1.299 . S
C239 N242 1.379 . S
N240 Zn224 2.036 . S
N240 C238 1.298 . S
N240 N241 1.398 . S
N241 C239 1.299 . S
N241 N240 1.398 . S
N242 C238 1.367 . S
N242 C239 1.379 . S
H243 C246 0.980 . S
H244 C246 0.981 . S
H245 C246 0.981 . S
C246 C238 1.481 . S
C246 H243 0.980 . S
C246 H244 0.981 . S
C246 H245 0.981 . S
C247 C234 1.481 . S
C247 H248 0.980 . S
C247 H249 0.981 . S
C247 H250 0.981 . S
H248 C247 0.980 . S
H249 C247 0.981 . S
H250 C247 0.981 . S
O251 Zn227 2.066 . S
O251 C230 1.256 . S
O252 Zn224 2.053 . S
O252 C230 1.244 . S
C253 O231 1.259 . S
C253 O232 1.254 . S
O254 Zn224 2.066 . S
O254 C226 1.256 . S
O255 C226 1.244 . S
O255 Zn227 2.053 . S
Zn256 O257 2.055 . S
Zn256 O264 2.046 . S
Zn256 N272 2.036 . S
Zn256 O284 2.053 . S
Zn256 O286 2.066 . S
O257 Zn256 2.055 . S
O257 C260 1.259 . S
C258 O286 1.256 . S
C258 O287 1.244 . S
Zn259 O261 2.046 . S
Zn259 O263 2.055 . S
Zn259 N265 2.036 . S
Zn259 O283 2.066 . S
Zn259 O287 2.053 . S
C260 O257 1.259 . S
C260 O261 1.254 . S
O261 Zn259 2.046 . S
O261 C260 1.254 . S
C262 O283 1.256 . S
C262 O284 1.244 . S
O263 Zn259 2.055 . S
O263 C285 1.259 . S
O264 Zn256 2.046 . S
O264 C285 1.254 . S
N265 Zn259 2.036 . S
N265 C266 1.298 . S
N265 N268 1.398 . S
C266 N265 1.298 . S
C266 N269 1.367 . S
C266 C279 1.481 . S
C267 N268 1.299 . S
C267 N269 1.379 . S
N268 N265 1.398 . S
N268 C267 1.299 . S
N269 C266 1.367 . S
N269 C267 1.379 . S
C270 N272 1.298 . S
C270 N274 1.367 . S
C270 C278 1.481 . S
C271 N273 1.299 . S
C271 N274 1.379 . S
N272 Zn256 2.036 . S
N272 C270 1.298 . S
N272 N273 1.398 . S
N273 C271 1.299 . S
N273 N272 1.398 . S
N274 C270 1.367 . S
N274 C271 1.379 . S
H275 C278 0.980 . S
H276 C278 0.981 . S
H277 C278 0.981 . S
C278 C270 1.481 . S
C278 H275 0.980 . S
C278 H276 0.981 . S
C278 H277 0.981 . S
C279 C266 1.481 . S
C279 H280 0.980 . S
C279 H281 0.981 . S
C279 H282 0.981 . S
H280 C279 0.980 . S
H281 C279 0.981 . S
H282 C279 0.981 . S
O283 Zn259 2.066 . S
O283 C262 1.256 . S
O284 Zn256 2.053 . S
O284 C262 1.244 . S
C285 O263 1.259 . S
C285 O264 1.254 . S
O286 Zn256 2.066 . S
O286 C258 1.256 . S
O287 C258 1.244 . S
O287 Zn259 2.053 . S
C288 C289 1.349 . S
C288 C290 1.327 . S
C288 H313 0.950 . S
C289 C288 1.349 . S
C289 C305 1.349 . S
C290 C288 1.327 . S
C290 C309 1.429 . S
C290 H314 0.950 . S
C291 C308 1.574 . S
C291 C310 1.368 . S
C291 H315 0.949 . S
H292 C296 0.949 . S
C293 C294 1.349 . S
C293 C295 1.327 . S
C293 H316 0.950 . S
C294 C293 1.349 . S
C294 C306 1.349 . S
C295 C293 1.327 . S
C295 C311 1.429 . S
C295 H317 0.950 . S
C296 H292 0.949 . S
C296 C304 1.574 . S
C296 C312 1.368 . S
H297 C305 0.950 1_554 S
H298 C303 0.950 . S
H299 C304 0.949 . S
H300 C306 0.950 . S
H301 C307 0.950 . S
H302 C308 0.949 . S
C303 H298 0.950 . S
C303 C305 1.327 . S
C303 C309 1.429 . S
C304 C296 1.574 . S
C304 H299 0.949 . S
C304 C310 1.368 . S
C305 C289 1.349 . S
C305 H297 0.950 1_556 S
C305 C303 1.327 . S
C306 C294 1.349 . S
C306 H300 0.950 . S
C306 C307 1.327 . S
C307 H301 0.950 . S
C307 C306 1.327 . S
C307 C311 1.429 . S
C308 C291 1.574 . S
C308 H302 0.949 . S
C308 C312 1.368 . S
C309 C290 1.429 . S
C309 C303 1.429 . S
C309 C310 1.523 . S
C310 C291 1.368 . S
C310 C304 1.368 . S
C310 C309 1.523 . S
C311 C295 1.429 . S
C311 C307 1.429 . S
C311 C312 1.523 . S
C312 C296 1.368 . S
C312 C308 1.368 . S
C312 C311 1.523 . S
H313 C288 0.950 . S
H314 C290 0.950 . S
H315 C291 0.949 . S
H316 C293 0.950 . S
H317 C295 0.950 . S
C318 C319 1.349 . S
C318 C320 1.320 1_554 S
C318 H343 0.950 . S
C319 C318 1.349 . S
C319 C335 1.349 1_554 S
C320 C318 1.320 1_556 S
C320 C339 1.443 . S
C320 H344 0.942 1_556 S
C321 C338 1.574 . S
C321 C340 1.368 . S
C321 H345 0.949 . S
H322 C326 0.949 . S
C323 C324 1.349 . S
C323 C325 1.327 . S
C323 H346 0.950 . S
C324 C323 1.349 . S
C324 C336 1.349 . S
C325 C323 1.327 . S
C325 C341 1.429 . S
C325 H347 0.950 . S
C326 H322 0.949 . S
C326 C334 1.574 . S
C326 C342 1.368 . S
H327 C335 0.950 . S
H328 C333 0.950 . S
H329 C334 0.949 . S
H330 C336 0.950 . S
H331 C337 0.950 . S
H332 C338 0.949 . S
C333 H328 0.950 . S
C333 C335 1.327 . S
C333 C339 1.429 . S
C334 C326 1.574 . S
C334 H329 0.949 . S
C334 C340 1.368 . S
C335 C319 1.349 1_556 S
C335 H327 0.950 . S
C335 C333 1.327 . S
C336 C324 1.349 . S
C336 H330 0.950 . S
C336 C337 1.327 . S
C337 H331 0.950 . S
C337 C336 1.327 . S
C337 C341 1.429 . S
C338 C321 1.574 . S
C338 H332 0.949 . S
C338 C342 1.368 . S
C339 C320 1.443 . S
C339 C333 1.429 . S
C339 C340 1.523 . S
C340 C321 1.368 . S
C340 C334 1.368 . S
C340 C339 1.523 . S
C341 C325 1.429 . S
C341 C337 1.429 . S
C341 C342 1.523 . S
C342 C326 1.368 . S
C342 C338 1.368 . S
C342 C341 1.523 . S
H343 C318 0.950 . S
H344 C320 0.942 1_554 S
H345 C321 0.949 . S
H346 C323 0.950 . S
H347 C325 0.950 . S
C348 C349 1.349 . S
C348 C350 1.327 . S
C348 H373 0.950 . S
C349 C348 1.349 . S
C349 C365 1.349 . S
C350 C348 1.327 . S
C350 C369 1.429 . S
C350 H374 0.950 . S
C351 C368 1.574 . S
C351 C370 1.368 . S
C351 H375 0.949 . S
H352 C356 0.949 . S
C353 C354 1.349 . S
C353 C355 1.327 . S
C353 H376 0.950 . S
C354 C353 1.349 . S
C354 C366 1.349 . S
C355 C353 1.327 . S
C355 C371 1.429 . S
C355 H377 0.950 . S
C356 H352 0.949 . S
C356 C364 1.574 . S
C356 C372 1.368 . S
H357 C365 0.950 1_554 S
H358 C363 0.950 . S
H359 C364 0.949 . S
H360 C366 0.950 . S
H361 C367 0.950 . S
H362 C368 0.949 . S
C363 H358 0.950 . S
C363 C365 1.327 . S
C363 C369 1.429 . S
C364 C356 1.574 . S
C364 H359 0.949 . S
C364 C370 1.368 . S
C365 C349 1.349 . S
C365 H357 0.950 1_556 S
C365 C363 1.327 . S
C366 C354 1.349 . S
C366 H360 0.950 . S
C366 C367 1.327 . S
C367 H361 0.950 . S
C367 C366 1.327 . S
C367 C371 1.429 . S
C368 C351 1.574 . S
C368 H362 0.949 . S
C368 C372 1.368 . S
C369 C350 1.429 . S
C369 C363 1.429 . S
C369 C370 1.523 . S
C370 C351 1.368 . S
C370 C364 1.368 . S
C370 C369 1.523 . S
C371 C355 1.429 . S
C371 C367 1.429 . S
C371 C372 1.523 . S
C372 C356 1.368 . S
C372 C368 1.368 . S
C372 C371 1.523 . S
H373 C348 0.950 . S
H374 C350 0.950 . S
H375 C351 0.949 . S
H376 C353 0.950 . S
H377 C355 0.950 . S
C378 C379 1.349 . S
C378 C380 1.327 . S
C378 H403 0.950 . S
C379 C378 1.349 . S
C379 C395 1.349 . S
C380 C378 1.327 . S
C380 C399 1.429 . S
C380 H404 0.950 . S
C381 C398 1.574 . S
C381 C400 1.368 . S
C381 H405 0.949 . S
H382 C386 0.949 . S
C383 C384 1.349 . S
C383 C385 1.327 . S
C383 H406 0.950 . S
C384 C383 1.349 . S
C384 C396 1.351 . S
C385 C383 1.327 . S
C385 C401 1.429 . S
C385 H407 0.950 . S
C386 H382 0.949 . S
C386 C394 1.574 . S
C386 C402 1.368 . S
H387 C395 0.950 . S
H388 C393 0.950 . S
H389 C394 0.949 . S
H390 C396 0.946 1_556 S
H391 C397 0.950 . S
H392 C398 0.949 . S
C393 H388 0.950 . S
C393 C395 1.327 . S
C393 C399 1.429 . S
C394 C386 1.574 . S
C394 H389 0.949 . S
C394 C400 1.368 . S
C395 C379 1.349 . S
C395 H387 0.950 . S
C395 C393 1.327 . S
C396 C384 1.351 . S
C396 H390 0.946 1_554 S
C396 C397 1.328 . S
C397 H391 0.950 . S
C397 C396 1.328 . S
C397 C401 1.429 . S
C398 C381 1.574 . S
C398 H392 0.949 . S
C398 C402 1.368 . S
C399 C380 1.429 . S
C399 C393 1.429 . S
C399 C400 1.523 . S
C400 C381 1.368 . S
C400 C394 1.368 . S
C400 C399 1.523 . S
C401 C385 1.429 . S
C401 C397 1.429 . S
C401 C402 1.523 . S
C402 C386 1.368 . S
C402 C398 1.368 . S
C402 C401 1.523 . S
H403 C378 0.950 . S
H404 C380 0.950 . S
H405 C381 0.949 . S
H406 C383 0.950 . S
H407 C385 0.950 . S
C408 C409 1.349 . S
C408 C410 1.327 . S
C408 H433 0.950 . S
C409 C408 1.349 . S
C409 C425 1.349 . S
C410 C408 1.327 . S
C410 C429 1.429 . S
C410 H434 0.950 . S
C411 C428 1.574 . S
C411 C430 1.368 . S
C411 H435 0.949 . S
H412 C416 0.949 . S
C413 C414 1.349 . S
C413 C415 1.327 . S
C413 H436 0.950 . S
C414 C413 1.349 . S
C414 C426 1.349 . S
C415 C413 1.327 . S
C415 C431 1.429 . S
C415 H437 0.950 . S
C416 H412 0.949 . S
C416 C424 1.574 . S
C416 C432 1.368 . S
H417 C425 0.950 . S
H418 C423 0.950 . S
H419 C424 0.949 . S
H420 C426 0.950 . S
H421 C427 0.950 . S
H422 C428 0.949 . S
C423 H418 0.950 . S
C423 C425 1.327 . S
C423 C429 1.429 . S
C424 C416 1.574 . S
C424 H419 0.949 . S
C424 C430 1.368 . S
C425 C409 1.349 . S
C425 H417 0.950 . S
C425 C423 1.327 . S
C426 C414 1.349 . S
C426 H420 0.950 . S
C426 C427 1.327 . S
C427 H421 0.950 . S
C427 C426 1.327 . S
C427 C431 1.429 . S
C428 C411 1.574 . S
C428 H422 0.949 . S
C428 C432 1.368 . S
C429 C410 1.429 . S
C429 C423 1.429 . S
C429 C430 1.523 . S
C430 C411 1.368 . S
C430 C424 1.368 . S
C430 C429 1.523 . S
C431 C415 1.429 . S
C431 C427 1.429 . S
C431 C432 1.523 . S
C432 C416 1.368 . S
C432 C428 1.368 . S
C432 C431 1.523 . S
H433 C408 0.950 . S
H434 C410 0.950 . S
H435 C411 0.949 . S
H436 C413 0.950 . S
H437 C415 0.950 . S
C438 C439 1.349 . S
C438 C440 1.327 . S
C438 H463 0.950 . S
C439 C438 1.349 . S
C439 C455 1.349 . S
C440 C438 1.327 . S
C440 C459 1.429 . S
C440 H464 0.950 . S
C441 C458 1.574 . S
C441 C460 1.368 . S
C441 H465 0.949 . S
H442 C446 0.949 . S
C443 C444 1.349 . S
C443 C445 1.327 . S
C443 H466 0.950 . S
C444 C443 1.349 . S
C444 C456 1.349 . S
C445 C443 1.327 . S
C445 C461 1.429 . S
C445 H467 0.950 . S
C446 H442 0.949 . S
C446 C454 1.574 . S
C446 C462 1.368 . S
H447 C455 0.950 . S
H448 C453 0.950 . S
H449 C454 0.949 . S
H450 C456 0.950 . S
H451 C457 0.950 . S
H452 C458 0.949 . S
C453 H448 0.950 . S
C453 C455 1.327 . S
C453 C459 1.429 . S
C454 C446 1.574 . S
C454 H449 0.949 . S
C454 C460 1.368 . S
C455 C439 1.349 . S
C455 H447 0.950 . S
C455 C453 1.327 . S
C456 C444 1.349 . S
C456 H450 0.950 . S
C456 C457 1.327 . S
C457 H451 0.950 . S
C457 C456 1.327 . S
C457 C461 1.429 . S
C458 C441 1.574 . S
C458 H452 0.949 . S
C458 C462 1.368 . S
C459 C440 1.429 . S
C459 C453 1.429 . S
C459 C460 1.523 . S
C460 C441 1.368 . S
C460 C454 1.368 . S
C460 C459 1.523 . S
C461 C445 1.429 . S
C461 C457 1.429 . S
C461 C462 1.523 . S
C462 C446 1.368 . S
C462 C458 1.368 . S
C462 C461 1.523 . S
H463 C438 0.950 . S
H464 C440 0.950 . S
H465 C441 0.949 . S
H466 C443 0.950 . S
H467 C445 0.950 . S
C468 C469 1.349 . S
C468 C470 1.327 . S
C468 H493 0.950 . S
C469 C468 1.349 . S
C469 C485 1.349 . S
C470 C468 1.327 . S
C470 C489 1.429 . S
C470 H494 0.950 . S
C471 C488 1.574 1_455 S
C471 C490 1.368 . S
C471 H495 0.949 . S
H472 C476 0.949 . S
C473 C474 1.349 . S
C473 C475 1.327 . S
C473 H496 0.950 . S
C474 C473 1.349 . S
C474 C486 1.349 . S
C475 C473 1.327 . S
C475 C491 1.429 . S
C475 H497 0.950 . S
C476 H472 0.949 . S
C476 C484 1.574 . S
C476 C492 1.368 1_455 S
H477 C485 0.950 . S
H478 C483 0.950 . S
H479 C484 0.949 . S
H480 C486 0.950 . S
H481 C487 0.950 . S
H482 C488 0.949 . S
C483 H478 0.950 . S
C483 C485 1.327 . S
C483 C489 1.429 . S
C484 C476 1.574 . S
C484 H479 0.949 . S
C484 C490 1.368 . S
C485 C469 1.349 . S
C485 H477 0.950 . S
C485 C483 1.327 . S
C486 C474 1.349 . S
C486 H480 0.950 . S
C486 C487 1.327 . S
C487 H481 0.950 . S
C487 C486 1.327 . S
C487 C491 1.429 . S
C488 C471 1.574 1_655 S
C488 H482 0.949 . S
C488 C492 1.368 . S
C489 C470 1.429 . S
C489 C483 1.429 . S
C489 C490 1.523 . S
C490 C471 1.368 . S
C490 C484 1.368 . S
C490 C489 1.523 . S
C491 C475 1.429 . S
C491 C487 1.429 . S
C491 C492 1.523 . S
C492 C476 1.368 1_655 S
C492 C488 1.368 . S
C492 C491 1.523 . S
H493 C468 0.950 . S
H494 C470 0.950 . S
H495 C471 0.949 . S
H496 C473 0.950 . S
H497 C475 0.950 . S
C498 C499 1.349 . S
C498 C500 1.327 . S
C498 H523 0.950 . S
C499 C498 1.349 . S
C499 C515 1.349 . S
C500 C498 1.327 . S
C500 C519 1.429 . S
C500 H524 0.950 . S
C501 C518 1.574 . S
C501 C520 1.368 . S
C501 H525 0.949 . S
H502 C506 0.949 . S
C503 C504 1.349 . S
C503 C505 1.327 . S
C503 H526 0.950 . S
C504 C503 1.349 . S
C504 C516 1.349 . S
C505 C503 1.327 . S
C505 C521 1.429 . S
C505 H527 0.950 . S
C506 H502 0.949 . S
C506 C514 1.574 . S
C506 C522 1.368 . S
H507 C515 0.950 . S
H508 C513 0.950 . S
H509 C514 0.949 . S
H510 C516 0.950 . S
H511 C517 0.950 . S
H512 C518 0.949 . S
C513 H508 0.950 . S
C513 C515 1.327 . S
C513 C519 1.429 . S
C514 C506 1.574 . S
C514 H509 0.949 . S
C514 C520 1.368 . S
C515 C499 1.349 . S
C515 H507 0.950 . S
C515 C513 1.327 . S
C516 C504 1.349 . S
C516 H510 0.950 . S
C516 C517 1.327 . S
C517 H511 0.950 . S
C517 C516 1.327 . S
C517 C521 1.429 . S
C518 C501 1.574 . S
C518 H512 0.949 . S
C518 C522 1.368 . S
C519 C500 1.429 . S
C519 C513 1.429 . S
C519 C520 1.523 . S
C520 C501 1.368 . S
C520 C514 1.368 . S
C520 C519 1.523 . S
C521 C505 1.429 . S
C521 C517 1.429 . S
C521 C522 1.523 . S
C522 C506 1.368 . S
C522 C518 1.368 . S
C522 C521 1.523 . S
H523 C498 0.950 . S
H524 C500 0.950 . S
H525 C501 0.949 . S
H526 C503 0.950 . S
H527 C505 0.950 . S
C528 C529 1.349 . S
C528 C530 1.327 . S
C528 H553 0.950 . S
C529 C528 1.349 . S
C529 C545 1.349 . S
C530 C528 1.327 . S
C530 C549 1.429 . S
C530 H554 0.950 . S
C531 C548 1.574 . S
C531 C550 1.368 . S
C531 H555 0.949 . S
H532 C536 0.949 . S
C533 C534 1.349 . S
C533 C535 1.327 . S
C533 H556 0.950 . S
C534 C533 1.349 . S
C534 C546 1.349 . S
C535 C533 1.327 . S
C535 C551 1.429 . S
C535 H557 0.950 . S
C536 H532 0.949 . S
C536 C544 1.574 1_565 S
C536 C552 1.368 1_565 S
H537 C545 0.950 . S
H538 C543 0.950 . S
H539 C544 0.949 . S
H540 C546 0.950 . S
H541 C547 0.950 . S
H542 C548 0.949 . S
C543 H538 0.950 . S
C543 C545 1.327 . S
C543 C549 1.429 . S
C544 C536 1.574 1_545 S
C544 H539 0.949 . S
C544 C550 1.368 . S
C545 C529 1.349 . S
C545 H537 0.950 . S
C545 C543 1.327 . S
C546 C534 1.349 . S
C546 H540 0.950 . S
C546 C547 1.327 . S
C547 H541 0.950 . S
C547 C546 1.327 . S
C547 C551 1.429 . S
C548 C531 1.574 . S
C548 H542 0.949 . S
C548 C552 1.368 . S
C549 C530 1.429 . S
C549 C543 1.429 . S
C549 C550 1.523 . S
C550 C531 1.368 . S
C550 C544 1.368 . S
C550 C549 1.523 . S
C551 C535 1.429 . S
C551 C547 1.429 . S
C551 C552 1.523 1_565 S
C552 C536 1.368 1_545 S
C552 C548 1.368 . S
C552 C551 1.523 1_545 S
H553 C528 0.950 . S
H554 C530 0.950 . S
H555 C531 0.949 . S
H556 C533 0.950 . S
H557 C535 0.950 . S
C558 C559 1.349 1_556 S
C558 C560 1.327 . S
C558 H583 0.950 . S
C559 C558 1.349 1_554 S
C559 C575 1.349 . S
C560 C558 1.327 . S
C560 C579 1.429 1_556 S
C560 H584 0.950 . S
C561 C578 1.574 . S
C561 C580 1.368 . S
C561 H585 0.949 . S
H562 C566 0.949 . S
C563 C564 1.349 . S
C563 C565 1.327 . S
C563 H586 0.950 . S
C564 C563 1.349 . S
C564 C576 1.349 1_554 S
C565 C563 1.327 . S
C565 C581 1.429 . S
C565 H587 0.950 . S
C566 H562 0.949 . S
C566 C574 1.574 . S
C566 C582 1.368 1_556 S
H567 C575 0.950 . S
H568 C573 0.950 . S
H569 C574 0.949 . S
H570 C576 0.950 . S
H571 C577 0.950 . S
H572 C578 0.949 . S
C573 H568 0.950 . S
C573 C575 1.327 . S
C573 C579 1.429 . S
C574 C566 1.574 . S
C574 H569 0.949 . S
C574 C580 1.368 1_556 S
C575 C559 1.349 . S
C575 H567 0.950 . S
C575 C573 1.327 . S
C576 C564 1.349 1_556 S
C576 H570 0.950 . S
C576 C577 1.327 . S
C577 H571 0.950 . S
C577 C576 1.327 . S
C577 C581 1.429 1_556 S
C578 C561 1.574 . S
C578 H572 0.949 . S
C578 C582 1.368 . S
C579 C560 1.429 1_554 S
C579 C573 1.429 . S
C579 C580 1.523 . S
C580 C561 1.368 . S
C580 C574 1.368 1_554 S
C580 C579 1.523 . S
C581 C565 1.429 . S
C581 C577 1.429 1_554 S
C581 C582 1.523 . S
C582 C566 1.368 1_554 S
C582 C578 1.368 . S
C582 C581 1.523 . S
H583 C558 0.950 . S
H584 C560 0.950 . S
H585 C561 0.949 . S
H586 C563 0.950 . S
H587 C565 0.950 . S
C588 C589 1.349 1_556 S
C588 C590 1.327 . S
C588 H613 0.950 . S
C589 C588 1.349 1_554 S
C589 C605 1.349 . S
C590 C588 1.327 . S
C590 C609 1.429 1_556 S
C590 H614 0.950 . S
C591 C608 1.574 . S
C591 C610 1.368 . S
C591 H615 0.949 . S
H592 C596 0.949 . S
C593 C594 1.349 . S
C593 C595 1.327 . S
C593 H616 0.950 . S
C594 C593 1.349 . S
C594 C606 1.349 . S
C595 C593 1.327 . S
C595 C611 1.429 . S
C595 H617 0.950 . S
C596 H592 0.949 . S
C596 C604 1.574 . S
C596 C612 1.368 1_556 S
H597 C605 0.950 . S
H598 C603 0.950 . S
H599 C604 0.959 . S
H600 C606 0.950 1_556 S
H601 C607 0.950 1_556 S
H602 C608 0.949 . S
C603 H598 0.950 . S
C603 C605 1.327 . S
C603 C609 1.429 . S
C604 C596 1.574 . S
C604 H599 0.959 . S
C604 C610 1.368 1_556 S
C605 C589 1.349 . S
C605 H597 0.950 . S
C605 C603 1.327 . S
C606 C594 1.349 . S
C606 H600 0.950 1_554 S
C606 C607 1.327 . S
C607 H601 0.950 1_554 S
C607 C606 1.327 . S
C607 C611 1.429 . S
C608 C591 1.574 . S
C608 H602 0.949 . S
C608 C612 1.368 . S
C609 C590 1.429 1_554 S
C609 C603 1.429 . S
C609 C610 1.523 1_565 S
C610 C591 1.368 . S
C610 C604 1.368 1_554 S
C610 C609 1.523 1_545 S
C611 C595 1.429 . S
C611 C607 1.429 . S
C611 C612 1.523 . S
C612 C596 1.368 1_554 S
C612 C608 1.368 . S
C612 C611 1.523 . S
H613 C588 0.950 . S
H614 C590 0.950 . S
H615 C591 0.949 . S
H616 C593 0.950 . S
H617 C595 0.950 . S
C618 C619 1.349 . S
C618 C620 1.327 . S
C618 H643 0.950 . S
C619 C618 1.349 . S
C619 C635 1.349 . S
C620 C618 1.327 . S
C620 C639 1.429 . S
C620 H644 0.950 . S
C621 C638 1.574 1_655 S
C621 C640 1.368 . S
C621 H645 0.949 . S
H622 C626 0.949 . S
C623 C624 1.349 . S
C623 C625 1.327 . S
C623 H646 0.950 1_565 S
C624 C623 1.349 . S
C624 C636 1.349 1_556 S
C625 C623 1.327 . S
C625 C641 1.429 1_556 S
C625 H647 0.950 . S
C626 H622 0.949 . S
C626 C634 1.574 1_455 S
C626 C642 1.368 . S
H627 C635 0.950 . S
H628 C633 0.950 . S
H629 C634 0.949 . S
H630 C636 0.950 . S
H631 C637 0.950 . S
H632 C638 0.949 1_556 S
C633 H628 0.950 . S
C633 C635 1.327 . S
C633 C639 1.429 . S
C634 C626 1.574 1_655 S
C634 H629 0.949 . S
C634 C640 1.368 . S
C635 C619 1.349 . S
C635 H627 0.950 . S
C635 C633 1.327 . S
C636 C624 1.349 1_554 S
C636 H630 0.950 . S
C636 C637 1.327 . S
C637 H631 0.950 . S
C637 C636 1.327 . S
C637 C641 1.429 . S
C638 C621 1.574 1_455 S
C638 H632 0.949 1_554 S
C638 C642 1.368 . S
C639 C620 1.429 . S
C639 C633 1.429 . S
C639 C640 1.523 . S
C640 C621 1.368 . S
C640 C634 1.368 . S
C640 C639 1.523 . S
C641 C625 1.429 1_554 S
C641 C637 1.429 . S
C641 C642 1.523 . S
C642 C626 1.368 . S
C642 C638 1.368 . S
C642 C641 1.523 . S
H643 C618 0.950 . S
H644 C620 0.950 . S
H645 C621 0.949 . S
H646 C623 0.950 1_545 S
H647 C625 0.950 . S
C648 C649 1.349 . S
C648 C650 1.327 . S
C648 H673 0.950 . S
C649 C648 1.349 . S
C649 C665 1.349 . S
C650 C648 1.327 . S
C650 C669 1.429 . S
C650 H674 0.950 . S
C651 C668 1.574 . S
C651 C670 1.368 . S
C651 H675 0.949 . S
H652 C656 0.949 . S
C653 C654 1.349 . S
C653 C655 1.327 . S
C653 H676 0.950 . S
C654 C653 1.349 . S
C654 C666 1.349 . S
C655 C653 1.327 . S
C655 C671 1.429 . S
C655 H677 0.950 . S
C656 H652 0.949 . S
C656 C664 1.574 . S
C656 C672 1.368 . S
H657 C665 0.950 . S
H658 C663 0.950 . S
H659 C664 0.949 . S
H660 C666 0.950 . S
H661 C667 0.950 . S
H662 C668 0.949 . S
C663 H658 0.950 . S
C663 C665 1.327 . S
C663 C669 1.429 . S
C664 C656 1.574 . S
C664 H659 0.949 . S
C664 C670 1.368 . S
C665 C649 1.349 . S
C665 H657 0.950 . S
C665 C663 1.327 . S
C666 C654 1.349 . S
C666 H660 0.950 . S
C666 C667 1.327 . S
C667 H661 0.950 . S
C667 C666 1.327 . S
C667 C671 1.429 . S
C668 C651 1.574 . S
C668 H662 0.949 . S
C668 C672 1.368 . S
C669 C650 1.429 . S
C669 C663 1.429 . S
C669 C670 1.523 . S
C670 C651 1.368 . S
C670 C664 1.368 . S
C670 C669 1.523 . S
C671 C655 1.429 . S
C671 C667 1.429 . S
C671 C672 1.523 . S
C672 C656 1.368 . S
C672 C668 1.368 . S
C672 C671 1.523 . S
H673 C648 0.950 . S
H674 C650 0.950 . S
H675 C651 0.949 . S
H676 C653 0.950 . S
H677 C655 0.950 . S
C678 C679 1.349 . S
C678 C680 1.327 . S
C678 H703 0.950 . S
C679 C678 1.349 . S
C679 C695 1.349 . S
C680 C678 1.327 . S
C680 C699 1.429 . S
C680 H704 0.950 . S
C681 C698 1.574 . S
C681 C700 1.368 . S
C681 H705 0.949 . S
H682 C686 0.949 . S
C683 C684 1.349 . S
C683 C685 1.327 . S
C683 H706 0.950 . S
C684 C683 1.349 . S
C684 C696 1.349 . S
C685 C683 1.327 . S
C685 C701 1.429 . S
C685 H707 0.950 . S
C686 H682 0.949 . S
C686 C694 1.574 . S
C686 C702 1.368 . S
H687 C695 0.950 . S
H688 C693 0.950 . S
H689 C694 0.949 . S
H690 C696 0.950 . S
H691 C697 0.950 . S
H692 C698 0.949 . S
C693 H688 0.950 . S
C693 C695 1.327 . S
C693 C699 1.429 . S
C694 C686 1.574 . S
C694 H689 0.949 . S
C694 C700 1.368 . S
C695 C679 1.349 . S
C695 H687 0.950 . S
C695 C693 1.327 . S
C696 C684 1.349 . S
C696 H690 0.950 . S
C696 C697 1.327 . S
C697 H691 0.950 . S
C697 C696 1.327 . S
C697 C701 1.429 . S
C698 C681 1.574 . S
C698 H692 0.949 . S
C698 C702 1.368 . S
C699 C680 1.429 . S
C699 C693 1.429 . S
C699 C700 1.523 . S
C700 C681 1.368 . S
C700 C694 1.368 . S
C700 C699 1.523 . S
C701 C685 1.429 . S
C701 C697 1.429 . S
C701 C702 1.523 . S
C702 C686 1.368 . S
C702 C698 1.368 . S
C702 C701 1.523 . S
H703 C678 0.950 . S
H704 C680 0.950 . S
H705 C681 0.949 . S
H706 C683 0.950 . S
H707 C685 0.950 . S
C708 C709 1.349 . S
C708 C710 1.327 . S
C708 H733 0.950 . S
C709 C708 1.349 . S
C709 C725 1.349 . S
C710 C708 1.327 . S
C710 C729 1.429 . S
C710 H734 0.950 . S
C711 C728 1.574 . S
C711 C730 1.368 . S
C711 H735 0.949 . S
H712 C716 0.949 . S
C713 C714 1.349 . S
C713 C715 1.327 . S
C713 H736 0.950 . S
C714 C713 1.349 . S
C714 C726 1.349 . S
C715 C713 1.327 . S
C715 C731 1.429 . S
C715 H737 0.950 . S
C716 H712 0.949 . S
C716 C724 1.574 . S
C716 C732 1.368 . S
H717 C725 0.950 . S
H718 C723 0.950 . S
H719 C724 0.949 . S
H720 C726 0.950 . S
H721 C727 0.950 . S
H722 C728 0.949 . S
C723 H718 0.950 . S
C723 C725 1.327 . S
C723 C729 1.429 . S
C724 C716 1.574 . S
C724 H719 0.949 . S
C724 C730 1.368 . S
C725 C709 1.349 . S
C725 H717 0.950 . S
C725 C723 1.327 . S
C726 C714 1.349 . S
C726 H720 0.950 . S
C726 C727 1.327 . S
C727 H721 0.950 . S
C727 C726 1.327 . S
C727 C731 1.429 . S
C728 C711 1.574 . S
C728 H722 0.949 . S
C728 C732 1.368 . S
C729 C710 1.429 . S
C729 C723 1.429 . S
C729 C730 1.523 . S
C730 C711 1.368 . S
C730 C724 1.368 . S
C730 C729 1.523 . S
C731 C715 1.429 . S
C731 C727 1.429 . S
C731 C732 1.523 . S
C732 C716 1.368 . S
C732 C728 1.368 . S
C732 C731 1.523 . S
H733 C708 0.950 . S
H734 C710 0.950 . S
H735 C711 0.949 . S
H736 C713 0.950 . S
H737 C715 0.950 . S
C738 C739 1.349 . S
C738 C740 1.327 . S
C738 H763 0.950 . S
C739 C738 1.349 . S
C739 C755 1.349 . S
C740 C738 1.327 . S
C740 C759 1.429 . S
C740 H764 0.950 . S
C741 C758 1.574 . S
C741 C760 1.368 . S
C741 H765 0.949 . S
H742 C746 0.949 . S
C743 C744 1.349 . S
C743 C745 1.327 . S
C743 H766 0.950 . S
C744 C743 1.349 . S
C744 C756 1.349 . S
C745 C743 1.327 . S
C745 C761 1.429 . S
C745 H767 0.950 . S
C746 H742 0.949 . S
C746 C754 1.574 . S
C746 C762 1.368 . S
H747 C755 0.950 . S
H748 C753 0.950 . S
H749 C754 0.949 . S
H750 C756 0.950 . S
H751 C757 0.950 . S
H752 C758 0.949 . S
C753 H748 0.950 . S
C753 C755 1.327 . S
C753 C759 1.429 . S
C754 C746 1.574 . S
C754 H749 0.949 . S
C754 C760 1.368 . S
C755 C739 1.349 . S
C755 H747 0.950 . S
C755 C753 1.327 . S
C756 C744 1.349 . S
C756 H750 0.950 . S
C756 C757 1.327 . S
C757 H751 0.950 . S
C757 C756 1.327 . S
C757 C761 1.429 . S
C758 C741 1.574 . S
C758 H752 0.949 . S
C758 C762 1.368 . S
C759 C740 1.429 . S
C759 C753 1.429 . S
C759 C760 1.523 . S
C760 C741 1.368 . S
C760 C754 1.368 . S
C760 C759 1.523 . S
C761 C745 1.429 . S
C761 C757 1.429 . S
C761 C762 1.523 . S
C762 C746 1.368 . S
C762 C758 1.368 . S
C762 C761 1.523 . S
H763 C738 0.950 . S
H764 C740 0.950 . S
H765 C741 0.949 . S
H766 C743 0.950 . S
H767 C745 0.950 . S
C768 C769 1.349 . S
C768 C770 1.327 . S
C768 H793 0.950 . S
C769 C768 1.349 . S
C769 C785 1.349 . S
C770 C768 1.327 . S
C770 C789 1.429 . S
C770 H794 0.950 . S
C771 C788 1.574 . S
C771 C790 1.368 . S
C771 H795 0.949 . S
H772 C776 0.949 . S
C773 C774 1.349 . S
C773 C775 1.327 . S
C773 H796 0.950 . S
C774 C773 1.349 . S
C774 C786 1.349 . S
C775 C773 1.327 . S
C775 C791 1.429 . S
C775 H797 0.950 . S
C776 H772 0.949 . S
C776 C784 1.574 . S
C776 C792 1.368 . S
H777 C785 0.950 . S
H778 C783 0.950 . S
H779 C784 0.949 . S
H780 C786 0.950 . S
H781 C787 0.950 . S
H782 C788 0.949 . S
C783 H778 0.950 . S
C783 C785 1.327 . S
C783 C789 1.429 . S
C784 C776 1.574 . S
C784 H779 0.949 . S
C784 C790 1.368 . S
C785 C769 1.349 . S
C785 H777 0.950 . S
C785 C783 1.327 . S
C786 C774 1.349 . S
C786 H780 0.950 . S
C786 C787 1.327 . S
C787 H781 0.950 . S
C787 C786 1.327 . S
C787 C791 1.429 . S
C788 C771 1.574 . S
C788 H782 0.949 . S
C788 C792 1.368 . S
C789 C770 1.429 . S
C789 C783 1.429 . S
C789 C790 1.523 . S
C790 C771 1.368 . S
C790 C784 1.368 . S
C790 C789 1.523 . S
C791 C775 1.429 . S
C791 C787 1.429 . S
C791 C792 1.523 . S
C792 C776 1.368 . S
C792 C788 1.368 . S
C792 C791 1.523 . S
H793 C768 0.950 . S
H794 C770 0.950 . S
H795 C771 0.949 . S
H796 C773 0.950 . S
H797 C775 0.950 . S
C798 C799 1.349 . S
C798 C800 1.327 . S
C798 H823 0.950 . S
C799 C798 1.349 . S
C799 C815 1.349 . S
C800 C798 1.327 . S
C800 C819 1.429 . S
C800 H824 0.950 . S
C801 C818 1.574 . S
C801 C820 1.368 . S
C801 H825 0.949 . S
H802 C806 0.949 . S
C803 C804 1.349 . S
C803 C805 1.327 . S
C803 H826 0.950 . S
C804 C803 1.349 . S
C804 C816 1.349 . S
C805 C803 1.327 . S
C805 C821 1.429 . S
C805 H827 0.950 . S
C806 H802 0.949 . S
C806 C814 1.574 . S
C806 C822 1.368 . S
H807 C815 0.950 . S
H808 C813 0.950 . S
H809 C814 0.949 . S
H810 C816 0.950 . S
H811 C817 0.950 . S
H812 C818 0.949 . S
C813 H808 0.950 . S
C813 C815 1.327 . S
C813 C819 1.429 . S
C814 C806 1.574 . S
C814 H809 0.949 . S
C814 C820 1.368 . S
C815 C799 1.349 . S
C815 H807 0.950 . S
C815 C813 1.327 . S
C816 C804 1.349 . S
C816 H810 0.950 . S
C816 C817 1.327 . S
C817 H811 0.950 . S
C817 C816 1.327 . S
C817 C821 1.429 . S
C818 C801 1.574 . S
C818 H812 0.949 . S
C818 C822 1.368 . S
C819 C800 1.429 . S
C819 C813 1.429 . S
C819 C820 1.523 . S
C820 C801 1.368 . S
C820 C814 1.368 . S
C820 C819 1.523 . S
C821 C805 1.429 . S
C821 C817 1.429 . S
C821 C822 1.523 . S
C822 C806 1.368 . S
C822 C818 1.368 . S
C822 C821 1.523 . S
H823 C798 0.950 . S
H824 C800 0.950 . S
H825 C801 0.949 . S
H826 C803 0.950 . S
H827 C805 0.950 . S
C828 C829 1.349 1_655 S
C828 C830 1.327 . S
C828 H853 0.950 . S
C829 C828 1.349 1_455 S
C829 C845 1.348 . S
C830 C828 1.327 . S
C830 C849 1.429 1_655 S
C830 H854 0.950 . S
C831 C848 1.574 . S
C831 C850 1.368 . S
C831 H855 0.949 . S
H832 C836 0.949 1_655 S
C833 C834 1.349 . S
C833 C835 1.327 . S
C833 H856 0.950 . S
C834 C833 1.349 . S
C834 C846 1.349 . S
C835 C833 1.327 . S
C835 C851 1.429 . S
C835 H857 0.950 . S
C836 H832 0.949 1_455 S
C836 C844 1.574 1_455 S
C836 C852 1.368 . S
H837 C845 0.950 . S
H838 C843 0.950 . S
H839 C844 0.949 . S
H840 C846 0.950 . S
H841 C847 0.950 1_655 S
H842 C848 0.949 . S
C843 H838 0.950 . S
C843 C845 1.327 . S
C843 C849 1.429 . S
C844 C836 1.574 1_655 S
C844 H839 0.949 . S
C844 C850 1.368 1_655 S
C845 C829 1.348 . S
C845 H837 0.950 . S
C845 C843 1.327 . S
C846 C834 1.349 . S
C846 H840 0.950 . S
C846 C847 1.327 . S
C847 H841 0.950 1_455 S
C847 C846 1.327 . S
C847 C851 1.429 . S
C848 C831 1.574 . S
C848 H842 0.949 . S
C848 C852 1.368 . S
C849 C830 1.429 1_455 S
C849 C843 1.429 . S
C849 C850 1.523 . S
C850 C831 1.368 . S
C850 C844 1.368 1_455 S
C850 C849 1.523 . S
C851 C835 1.429 . S
C851 C847 1.429 . S
C851 C852 1.523 . S
C852 C836 1.368 . S
C852 C848 1.368 . S
C852 C851 1.523 . S
H853 C828 0.950 . S
H854 C830 0.950 . S
H855 C831 0.949 . S
H856 C833 0.950 . S
H857 C835 0.950 . S
C858 C859 1.349 . S
C858 C860 1.327 . S
C858 H883 0.950 . S
C859 C858 1.349 . S
C859 C875 1.349 . S
C860 C858 1.327 . S
C860 C879 1.429 . S
C860 H884 0.950 . S
C861 C878 1.574 . S
C861 C880 1.368 . S
C861 H885 0.949 . S
H862 C866 0.949 . S
C863 C864 1.349 . S
C863 C865 1.327 . S
C863 H886 0.950 . S
C864 C863 1.349 . S
C864 C876 1.349 . S
C865 C863 1.327 . S
C865 C881 1.429 . S
C865 H887 0.950 . S
C866 H862 0.949 . S
C866 C874 1.574 . S
C866 C882 1.368 . S
H867 C875 0.950 . S
H868 C873 0.950 . S
H869 C874 0.949 . S
H870 C876 0.950 . S
H871 C877 0.950 . S
H872 C878 0.949 . S
C873 H868 0.950 . S
C873 C875 1.327 . S
C873 C879 1.429 . S
C874 C866 1.574 . S
C874 H869 0.949 . S
C874 C880 1.368 . S
C875 C859 1.349 . S
C875 H867 0.950 . S
C875 C873 1.327 . S
C876 C864 1.349 . S
C876 H870 0.950 . S
C876 C877 1.327 . S
C877 H871 0.950 . S
C877 C876 1.327 . S
C877 C881 1.429 . S
C878 C861 1.574 . S
C878 H872 0.949 . S
C878 C882 1.368 . S
C879 C860 1.429 . S
C879 C873 1.429 . S
C879 C880 1.523 . S
C880 C861 1.368 . S
C880 C874 1.368 . S
C880 C879 1.523 . S
C881 C865 1.429 . S
C881 C877 1.429 . S
C881 C882 1.523 . S
C882 C866 1.368 . S
C882 C878 1.368 . S
C882 C881 1.523 . S
H883 C858 0.950 . S
H884 C860 0.950 . S
H885 C861 0.949 . S
H886 C863 0.950 . S
H887 C865 0.950 . S
C888 C889 1.349 . S
C888 C890 1.327 . S
C888 H913 0.950 . S
C889 C888 1.349 . S
C889 C905 1.349 . S
C890 C888 1.327 . S
C890 C909 1.429 . S
C890 H914 0.950 . S
C891 C908 1.574 . S
C891 C910 1.368 1_565 S
C891 H915 0.949 . S
H892 C896 0.949 . S
C893 C894 1.349 . S
C893 C895 1.327 . S
C893 H916 0.950 . S
C894 C893 1.349 . S
C894 C906 1.349 1_565 S
C895 C893 1.327 . S
C895 C911 1.429 . S
C895 H917 0.950 . S
C896 H892 0.949 . S
C896 C904 1.574 . S
C896 C912 1.368 . S
H897 C905 0.950 1_565 S
H898 C903 0.950 . S
H899 C904 0.949 . S
H900 C906 0.950 . S
H901 C907 0.950 . S
H902 C908 0.949 . S
C903 H898 0.950 . S
C903 C905 1.327 1_565 S
C903 C909 1.429 1_565 S
C904 C896 1.574 . S
C904 H899 0.949 . S
C904 C910 1.368 . S
C905 C889 1.349 . S
C905 H897 0.950 1_545 S
C905 C903 1.327 1_545 S
C906 C894 1.349 1_545 S
C906 H900 0.950 . S
C906 C907 1.327 . S
C907 H901 0.950 . S
C907 C906 1.327 . S
C907 C911 1.429 1_545 S
C908 C891 1.574 . S
C908 H902 0.949 . S
C908 C912 1.368 1_565 S
C909 C890 1.429 . S
C909 C903 1.429 1_545 S
C909 C910 1.523 . S
C910 C891 1.368 1_545 S
C910 C904 1.368 . S
C910 C909 1.523 . S
C911 C895 1.429 . S
C911 C907 1.429 1_565 S
C911 C912 1.523 1_565 S
C912 C896 1.368 . S
C912 C908 1.368 1_545 S
C912 C911 1.523 1_545 S
H913 C888 0.950 . S
H914 C890 0.950 . S
H915 C891 0.949 . S
H916 C893 0.950 . S
H917 C895 0.950 . S
C918 C919 1.349 . S
C918 C920 1.327 . S
C918 H943 0.950 . S
C919 C918 1.349 . S
C919 C935 1.349 . S
C920 C918 1.327 . S
C920 C939 1.429 . S
C920 H944 0.950 . S
C921 C938 1.574 . S
C921 C940 1.368 . S
C921 H945 0.949 . S
H922 C926 0.949 . S
C923 C924 1.349 . S
C923 C925 1.327 1_554 S
C923 H946 0.950 . S
C924 C923 1.349 . S
C924 C936 1.349 . S
C925 C923 1.327 1_556 S
C925 C941 1.429 . S
C925 H947 0.950 . S
C926 H922 0.949 . S
C926 C934 1.574 . S
C926 C942 1.368 . S
H927 C935 0.950 . S
H928 C933 0.950 . S
H929 C934 0.949 . S
H930 C936 0.950 . S
H931 C937 0.950 . S
H932 C938 0.949 . S
C933 H928 0.950 . S
C933 C935 1.327 . S
C933 C939 1.429 . S
C934 C926 1.574 . S
C934 H929 0.949 . S
C934 C940 1.368 . S
C935 C919 1.349 . S
C935 H927 0.950 . S
C935 C933 1.327 . S
C936 C924 1.349 . S
C936 H930 0.950 . S
C936 C937 1.327 1_554 S
C937 H931 0.950 . S
C937 C936 1.327 1_556 S
C937 C941 1.429 . S
C938 C921 1.574 . S
C938 H932 0.949 . S
C938 C942 1.368 . S
C939 C920 1.429 . S
C939 C933 1.429 . S
C939 C940 1.523 . S
C940 C921 1.368 . S
C940 C934 1.368 . S
C940 C939 1.523 . S
C941 C925 1.429 . S
C941 C937 1.429 . S
C941 C942 1.523 . S
C942 C926 1.368 . S
C942 C938 1.368 . S
C942 C941 1.523 . S
H943 C918 0.950 . S
H944 C920 0.950 . S
H945 C921 0.949 . S
H946 C923 0.950 . S
H947 C925 0.950 . S
C948 C949 1.349 . S
C948 C950 1.327 . S
C948 H973 0.950 . S
C949 C948 1.349 . S
C949 C965 1.349 . S
C950 C948 1.327 . S
C950 C969 1.429 . S
C950 H974 0.950 . S
C951 C968 1.574 . S
C951 C970 1.368 . S
C951 H975 0.949 . S
H952 C956 0.949 . S
C953 C954 1.349 1_556 S
C953 C955 1.327 . S
C953 H976 0.950 1_556 S
C954 C953 1.349 1_554 S
C954 C966 1.349 1_554 S
C955 C953 1.327 . S
C955 C971 1.429 . S
C955 H977 0.950 . S
C956 H952 0.949 . S
C956 C964 1.574 . S
C956 C972 1.368 . S
H957 C965 0.950 . S
H958 C963 0.950 . S
H959 C964 0.949 . S
H960 C966 0.950 . S
H961 C967 0.950 . S
H962 C968 0.949 . S
C963 H958 0.950 . S
C963 C965 1.327 . S
C963 C969 1.429 . S
C964 C956 1.574 . S
C964 H959 0.949 . S
C964 C970 1.368 . S
C965 C949 1.349 . S
C965 H957 0.950 . S
C965 C963 1.327 . S
C966 C954 1.349 1_556 S
C966 H960 0.950 . S
C966 C967 1.327 . S
C967 H961 0.950 . S
C967 C966 1.327 . S
C967 C971 1.429 . S
C968 C951 1.574 . S
C968 H962 0.949 . S
C968 C972 1.368 . S
C969 C950 1.429 . S
C969 C963 1.429 . S
C969 C970 1.523 . S
C970 C951 1.368 . S
C970 C964 1.368 . S
C970 C969 1.523 . S
C971 C955 1.429 . S
C971 C967 1.429 . S
C971 C972 1.523 . S
C972 C956 1.368 . S
C972 C968 1.368 . S
C972 C971 1.523 . S
H973 C948 0.950 . S
H974 C950 0.950 . S
H975 C951 0.949 . S
H976 C953 0.950 1_554 S
H977 C955 0.950 . S
C978 C979 1.349 . S
C978 C980 1.327 . S
C978 H1003 0.950 . S
C979 C978 1.349 . S
C979 C995 1.349 . S
C980 C978 1.327 . S
C980 C999 1.429 . S
C980 H1004 0.950 . S
C981 C998 1.574 . S
C981 C1000 1.368 . S
C981 H1005 0.949 . S
H982 C986 0.949 . S
C983 C984 1.349 . S
C983 C985 1.327 1_554 S
C983 H1006 0.950 . S
C984 C983 1.349 . S
C984 C996 1.349 . S
C985 C983 1.327 1_556 S
C985 C1001 1.429 . S
C985 H1007 0.950 . S
C986 H982 0.949 . S
C986 C994 1.574 . S
C986 C1002 1.368 . S
H987 C995 0.950 . S
H988 C993 0.950 . S
H989 C994 0.949 . S
H990 C996 0.950 . S
H991 C997 0.950 . S
H992 C998 0.949 . S
C993 H988 0.950 . S
C993 C995 1.327 . S
C993 C999 1.429 . S
C994 C986 1.574 . S
C994 H989 0.949 . S
C994 C1000 1.368 . S
C995 C979 1.349 . S
C995 H987 0.950 . S
C995 C993 1.327 . S
C996 C984 1.349 . S
C996 H990 0.950 . S
C996 C997 1.327 1_554 S
C997 H991 0.950 . S
C997 C996 1.327 1_556 S
C997 C1001 1.429 . S
C998 C981 1.574 . S
C998 H992 0.949 . S
C998 C1002 1.368 . S
C999 C980 1.429 . S
C999 C993 1.429 . S
C999 C1000 1.523 . S
C1000 C981 1.368 . S
C1000 C994 1.368 . S
C1000 C999 1.523 . S
C1001 C985 1.429 . S
C1001 C997 1.429 . S
C1001 C1002 1.523 . S
C1002 C986 1.368 . S
C1002 C998 1.368 . S
C1002 C1001 1.523 . S
H1003 C978 0.950 . S
H1004 C980 0.950 . S
H1005 C981 0.949 . S
H1006 C983 0.950 . S
H1007 C985 0.950 . S
C1008 C1009 1.349 . S
C1008 C1010 1.327 . S
C1008 H1033 0.950 . S
C1009 C1008 1.349 . S
C1009 C1025 1.349 . S
C1010 C1008 1.327 . S
C1010 C1029 1.429 . S
C1010 H1034 0.950 . S
C1011 C1028 1.574 . S
C1011 C1030 1.368 . S
C1011 H1035 0.949 . S
H1012 C1016 0.949 . S
C1013 C1014 1.349 . S
C1013 C1015 1.327 1_556 S
C1013 H1036 0.950 . S
C1014 C1013 1.349 . S
C1014 C1026 1.349 . S
C1015 C1013 1.327 1_554 S
C1015 C1031 1.429 . S
C1015 H1037 0.950 . S
C1016 H1012 0.949 . S
C1016 C1024 1.574 . S
C1016 C1032 1.368 . S
H1017 C1025 0.950 . S
H1018 C1023 0.950 . S
H1019 C1024 0.949 . S
H1020 C1026 0.950 . S
H1021 C1027 0.950 . S
H1022 C1028 0.949 . S
C1023 H1018 0.950 . S
C1023 C1025 1.327 . S
C1023 C1029 1.429 . S
C1024 C1016 1.574 . S
C1024 H1019 0.949 . S
C1024 C1030 1.368 . S
C1025 C1009 1.349 . S
C1025 H1017 0.950 . S
C1025 C1023 1.327 . S
C1026 C1014 1.349 . S
C1026 H1020 0.950 . S
C1026 C1027 1.327 1_556 S
C1027 H1021 0.950 . S
C1027 C1026 1.327 1_554 S
C1027 C1031 1.429 . S
C1028 C1011 1.574 . S
C1028 H1022 0.949 . S
C1028 C1032 1.368 . S
C1029 C1010 1.429 . S
C1029 C1023 1.429 . S
C1029 C1030 1.523 . S
C1030 C1011 1.368 . S
C1030 C1024 1.368 . S
C1030 C1029 1.523 . S
C1031 C1015 1.429 . S
C1031 C1027 1.429 . S
C1031 C1032 1.523 . S
C1032 C1016 1.368 . S
C1032 C1028 1.368 . S
C1032 C1031 1.523 . S
H1033 C1008 0.950 . S
H1034 C1010 0.950 . S
H1035 C1011 0.949 . S
H1036 C1013 0.950 . S
H1037 C1015 0.950 . S
C1038 C1039 1.349 1_554 S
C1038 C1040 1.327 . S
C1038 H1063 0.947 1_554 S
C1039 C1038 1.349 1_556 S
C1039 C1055 1.349 . S
C1040 C1038 1.327 . S
C1040 C1059 1.429 . S
C1040 H1064 0.950 . S
C1041 C1058 1.574 . S
C1041 C1060 1.368 . S
C1041 H1065 0.949 . S
H1042 C1046 0.949 . S
C1043 C1044 1.349 . S
C1043 C1045 1.327 . S
C1043 H1066 0.950 . S
C1044 C1043 1.349 . S
C1044 C1056 1.349 . S
C1045 C1043 1.327 . S
C1045 C1061 1.429 . S
C1045 H1067 0.950 . S
C1046 H1042 0.949 . S
C1046 C1054 1.574 . S
C1046 C1062 1.368 . S
H1047 C1055 0.950 . S
H1048 C1053 0.950 . S
H1049 C1054 0.949 . S
H1050 C1056 0.950 . S
H1051 C1057 0.950 . S
H1052 C1058 0.949 . S
C1053 H1048 0.950 . S
C1053 C1055 1.327 1_554 S
C1053 C1059 1.429 . S
C1054 C1046 1.574 . S
C1054 H1049 0.949 . S
C1054 C1060 1.368 . S
C1055 C1039 1.349 . S
C1055 H1047 0.950 . S
C1055 C1053 1.327 1_556 S
C1056 C1044 1.349 . S
C1056 H1050 0.950 . S
C1056 C1057 1.327 . S
C1057 H1051 0.950 . S
C1057 C1056 1.327 . S
C1057 C1061 1.429 . S
C1058 C1041 1.574 . S
C1058 H1052 0.949 . S
C1058 C1062 1.368 . S
C1059 C1040 1.429 . S
C1059 C1053 1.429 . S
C1059 C1060 1.523 . S
C1060 C1041 1.368 . S
C1060 C1054 1.368 . S
C1060 C1059 1.523 . S
C1061 C1045 1.429 . S
C1061 C1057 1.429 . S
C1061 C1062 1.523 . S
C1062 C1046 1.368 . S
C1062 C1058 1.368 . S
C1062 C1061 1.523 . S
H1063 C1038 0.947 1_556 S
H1064 C1040 0.950 . S
H1065 C1041 0.949 . S
H1066 C1043 0.950 . S
H1067 C1045 0.950 . S
C1068 C1069 1.349 . S
C1068 C1070 1.327 . S
C1068 H1093 0.950 . S
C1069 C1068 1.349 . S
C1069 C1085 1.349 . S
C1070 C1068 1.327 . S
C1070 C1089 1.429 . S
C1070 H1094 0.950 . S
C1071 C1088 1.574 . S
C1071 C1090 1.368 . S
C1071 H1095 0.949 . S
H1072 C1076 0.949 . S
C1073 C1074 1.349 . S
C1073 C1075 1.327 1_556 S
C1073 H1096 0.950 . S
C1074 C1073 1.349 . S
C1074 C1086 1.349 . S
C1075 C1073 1.327 1_554 S
C1075 C1091 1.429 . S
C1075 H1097 0.950 . S
C1076 H1072 0.949 . S
C1076 C1084 1.574 . S
C1076 C1092 1.368 . S
H1077 C1085 0.950 . S
H1078 C1083 0.950 . S
H1079 C1084 0.949 . S
H1080 C1086 0.950 . S
H1081 C1087 0.950 . S
H1082 C1088 0.949 . S
C1083 H1078 0.950 . S
C1083 C1085 1.327 . S
C1083 C1089 1.429 . S
C1084 C1076 1.574 . S
C1084 H1079 0.949 . S
C1084 C1090 1.368 . S
C1085 C1069 1.349 . S
C1085 H1077 0.950 . S
C1085 C1083 1.327 . S
C1086 C1074 1.349 . S
C1086 H1080 0.950 . S
C1086 C1087 1.327 1_556 S
C1087 H1081 0.950 . S
C1087 C1086 1.327 1_554 S
C1087 C1091 1.429 . S
C1088 C1071 1.574 . S
C1088 H1082 0.949 . S
C1088 C1092 1.368 . S
C1089 C1070 1.429 . S
C1089 C1083 1.429 . S
C1089 C1090 1.523 . S
C1090 C1071 1.368 . S
C1090 C1084 1.368 . S
C1090 C1089 1.523 . S
C1091 C1075 1.429 . S
C1091 C1087 1.429 . S
C1091 C1092 1.523 . S
C1092 C1076 1.368 . S
C1092 C1088 1.368 . S
C1092 C1091 1.523 . S
H1093 C1068 0.950 . S
H1094 C1070 0.950 . S
H1095 C1071 0.949 . S
H1096 C1073 0.950 . S
H1097 C1075 0.950 . S
C289 C6 1.737 1_556 S
C294 C226 1.742 . S
C319 C36 1.454 . S
C324 C285 1.457 . S
C349 C66 1.613 . S
C354 C221 1.596 . S
C379 C132 1.260 . S
C384 C68 1.258 . S
C409 C164 1.433 . S
C414 C29 1.433 . S
C439 C34 1.618 . S
C444 C125 1.602 . S
C469 C228 1.605 . S
C474 C162 1.622 . S
C499 C262 1.774 . S
C504 C102 1.774 . S
C529 C130 1.961 . S
C534 C198 1.971 . S
C559 C93 1.183 . S
C564 C2 1.182 . S
C589 C61 1.154 . S
C594 C4 1.153 . S
C619 C38 1.180 . S
C624 C70 1.180 . S
C649 C100 1.193 . S
C654 C166 1.193 . S
C679 C98 1.227 . S
C684 C157 1.226 . S
C709 C134 1.199 . S
C714 C189 1.197 . S
C739 C260 1.215 . S
C744 C194 1.218 . S
C769 C253 1.188 . S
C774 C196 1.188 . S
C799 C258 1.208 . S
C804 C230 1.208 . S
C829 N13 0.950 1_455 S
C834 N18 0.937 . S
C859 N45 0.855 . S
C864 N50 0.862 . S
C889 N82 0.825 . S
C894 N77 0.822 . S
C919 N109 0.952 . S
C924 N114 0.938 . S
C949 N146 0.889 . S
C954 N141 0.881 . S
C979 N178 0.885 . S
C984 N173 0.877 . S
C1009 N205 0.977 . S
C1014 N210 0.960 . S
C1039 N242 0.931 . S
C1044 N237 0.919 . S
C1069 N269 0.856 . S
C1074 N274 0.850 . S
