# Generated by pormake.
# Topology umr, (4)-cn, num edge types: 1
# Building blocks:
#     Node 0, Type 0, BuildingBlock: QUQFOY_clean_sbu_3, # of connection points: 4
#     Node 1, Type 0, BuildingBlock: QUQFOY_clean_sbu_3, # of connection points: 4
#     Node 2, Type 0, BuildingBlock: QUQFOY_clean_sbu_3, # of connection points: 4
#     Node 3, Type 0, BuildingBlock: QUQFOY_clean_sbu_3, # of connection points: 4
#     Node 4, Type 0, BuildingBlock: QUQFOY_clean_sbu_3, # of connection points: 4
#     Node 5, Type 0, BuildingBlock: QUQFOY_clean_sbu_3, # of connection points: 4
#     Node 6, Type 0, BuildingBlock: QUQFOY_clean_sbu_3, # of connection points: 4
#     Node 7, Type 0, BuildingBlock: QUQFOY_clean_sbu_3, # of connection points: 4
#     Node 8, Type 0, BuildingBlock: QUQFOY_clean_sbu_3, # of connection points: 4
#     Node 9, Type 0, BuildingBlock: QUQFOY_clean_sbu_3, # of connection points: 4
#     Node 10, Type 0, BuildingBlock: QUQFOY_clean_sbu_3, # of connection points: 4
#     Node 11, Type 0, BuildingBlock: QUQFOY_clean_sbu_3, # of connection points: 4
#     Node 12, Type 0, BuildingBlock: QUQFOY_clean_sbu_3, # of connection points: 4
#     Node 13, Type 0, BuildingBlock: QUQFOY_clean_sbu_3, # of connection points: 4
#     Node 14, Type 0, BuildingBlock: QUQFOY_clean_sbu_3, # of connection points: 4
#     Node 15, Type 0, BuildingBlock: QUQFOY_clean_sbu_3, # of connection points: 4
#     Node 16, Type 0, BuildingBlock: QUQFOY_clean_sbu_3, # of connection points: 4
#     Node 17, Type 0, BuildingBlock: QUQFOY_clean_sbu_3, # of connection points: 4
#     Node 18, Type 0, BuildingBlock: QUQFOY_clean_sbu_3, # of connection points: 4
#     Node 19, Type 0, BuildingBlock: QUQFOY_clean_sbu_3, # of connection points: 4
#     Node 20, Type 0, BuildingBlock: QUQFOY_clean_sbu_3, # of connection points: 4
#     Node 21, Type 0, BuildingBlock: QUQFOY_clean_sbu_3, # of connection points: 4
#     Node 22, Type 0, BuildingBlock: QUQFOY_clean_sbu_3, # of connection points: 4
#     Node 23, Type 0, BuildingBlock: QUQFOY_clean_sbu_3, # of connection points: 4
#     Node 24, Type 0, BuildingBlock: QUQFOY_clean_sbu_3, # of connection points: 4
#     Node 25, Type 0, BuildingBlock: QUQFOY_clean_sbu_3, # of connection points: 4
#     Node 26, Type 0, BuildingBlock: QUQFOY_clean_sbu_3, # of connection points: 4
#     Node 27, Type 0, BuildingBlock: QUQFOY_clean_sbu_3, # of connection points: 4
#     Node 28, Type 0, BuildingBlock: QUQFOY_clean_sbu_3, # of connection points: 4
#     Node 29, Type 0, BuildingBlock: QUQFOY_clean_sbu_3, # of connection points: 4
#     Node 30, Type 0, BuildingBlock: QUQFOY_clean_sbu_3, # of connection points: 4
#     Node 31, Type 0, BuildingBlock: QUQFOY_clean_sbu_3, # of connection points: 4
#     Edge 32, Type (0, 0), BuildingBlock: AJUNOK_clean_linker_0, # of connection points: 2
#     Edge 33, Type (0, 0), BuildingBlock: AJUNOK_clean_linker_0, # of connection points: 2
#     Edge 34, Type (0, 0), BuildingBlock: AJUNOK_clean_linker_0, # of connection points: 2
#     Edge 35, Type (0, 0), BuildingBlock: AJUNOK_clean_linker_0, # of connection points: 2
#     Edge 36, Type (0, 0), BuildingBlock: AJUNOK_clean_linker_0, # of connection points: 2
#     Edge 37, Type (0, 0), BuildingBlock: AJUNOK_clean_linker_0, # of connection points: 2
#     Edge 38, Type (0, 0), BuildingBlock: AJUNOK_clean_linker_0, # of connection points: 2
#     Edge 39, Type (0, 0), BuildingBlock: AJUNOK_clean_linker_0, # of connection points: 2
#     Edge 40, Type (0, 0), BuildingBlock: AJUNOK_clean_linker_0, # of connection points: 2
#     Edge 41, Type (0, 0), BuildingBlock: AJUNOK_clean_linker_0, # of connection points: 2
#     Edge 42, Type (0, 0), BuildingBlock: AJUNOK_clean_linker_0, # of connection points: 2
#     Edge 43, Type (0, 0), BuildingBlock: AJUNOK_clean_linker_0, # of connection points: 2
#     Edge 44, Type (0, 0), BuildingBlock: AJUNOK_clean_linker_0, # of connection points: 2
#     Edge 45, Type (0, 0), BuildingBlock: AJUNOK_clean_linker_0, # of connection points: 2
#     Edge 46, Type (0, 0), BuildingBlock: AJUNOK_clean_linker_0, # of connection points: 2
#     Edge 47, Type (0, 0), BuildingBlock: AJUNOK_clean_linker_0, # of connection points: 2
#     Edge 48, Type (0, 0), BuildingBlock: AJUNOK_clean_linker_0, # of connection points: 2
#     Edge 49, Type (0, 0), BuildingBlock: AJUNOK_clean_linker_0, # of connection points: 2
#     Edge 50, Type (0, 0), BuildingBlock: AJUNOK_clean_linker_0, # of connection points: 2
#     Edge 51, Type (0, 0), BuildingBlock: AJUNOK_clean_linker_0, # of connection points: 2
#     Edge 52, Type (0, 0), BuildingBlock: AJUNOK_clean_linker_0, # of connection points: 2
#     Edge 53, Type (0, 0), BuildingBlock: AJUNOK_clean_linker_0, # of connection points: 2
#     Edge 54, Type (0, 0), BuildingBlock: AJUNOK_clean_linker_0, # of connection points: 2
#     Edge 55, Type (0, 0), BuildingBlock: AJUNOK_clean_linker_0, # of connection points: 2
#     Edge 56, Type (0, 0), BuildingBlock: AJUNOK_clean_linker_0, # of connection points: 2
#     Edge 57, Type (0, 0), BuildingBlock: AJUNOK_clean_linker_0, # of connection points: 2
#     Edge 58, Type (0, 0), BuildingBlock: AJUNOK_clean_linker_0, # of connection points: 2
#     Edge 59, Type (0, 0), BuildingBlock: AJUNOK_clean_linker_0, # of connection points: 2
#     Edge 60, Type (0, 0), BuildingBlock: AJUNOK_clean_linker_0, # of connection points: 2
#     Edge 61, Type (0, 0), BuildingBlock: AJUNOK_clean_linker_0, # of connection points: 2
#     Edge 62, Type (0, 0), BuildingBlock: AJUNOK_clean_linker_0, # of connection points: 2
#     Edge 63, Type (0, 0), BuildingBlock: AJUNOK_clean_linker_0, # of connection points: 2
#     Edge 64, Type (0, 0), BuildingBlock: AJUNOK_clean_linker_0, # of connection points: 2
#     Edge 65, Type (0, 0), BuildingBlock: AJUNOK_clean_linker_0, # of connection points: 2
#     Edge 66, Type (0, 0), BuildingBlock: AJUNOK_clean_linker_0, # of connection points: 2
#     Edge 67, Type (0, 0), BuildingBlock: AJUNOK_clean_linker_0, # of connection points: 2
#     Edge 68, Type (0, 0), BuildingBlock: AJUNOK_clean_linker_0, # of connection points: 2
#     Edge 69, Type (0, 0), BuildingBlock: AJUNOK_clean_linker_0, # of connection points: 2
#     Edge 70, Type (0, 0), BuildingBlock: AJUNOK_clean_linker_0, # of connection points: 2
#     Edge 71, Type (0, 0), BuildingBlock: AJUNOK_clean_linker_0, # of connection points: 2
#     Edge 72, Type (0, 0), BuildingBlock: AJUNOK_clean_linker_0, # of connection points: 2
#     Edge 73, Type (0, 0), BuildingBlock: AJUNOK_clean_linker_0, # of connection points: 2
#     Edge 74, Type (0, 0), BuildingBlock: AJUNOK_clean_linker_0, # of connection points: 2
#     Edge 75, Type (0, 0), BuildingBlock: AJUNOK_clean_linker_0, # of connection points: 2
#     Edge 76, Type (0, 0), BuildingBlock: AJUNOK_clean_linker_0, # of connection points: 2
#     Edge 77, Type (0, 0), BuildingBlock: AJUNOK_clean_linker_0, # of connection points: 2
#     Edge 78, Type (0, 0), BuildingBlock: AJUNOK_clean_linker_0, # of connection points: 2
#     Edge 79, Type (0, 0), BuildingBlock: AJUNOK_clean_linker_0, # of connection points: 2
#     Edge 80, Type (0, 0), BuildingBlock: AJUNOK_clean_linker_0, # of connection points: 2
#     Edge 81, Type (0, 0), BuildingBlock: AJUNOK_clean_linker_0, # of connection points: 2
#     Edge 82, Type (0, 0), BuildingBlock: AJUNOK_clean_linker_0, # of connection points: 2
#     Edge 83, Type (0, 0), BuildingBlock: AJUNOK_clean_linker_0, # of connection points: 2
#     Edge 84, Type (0, 0), BuildingBlock: AJUNOK_clean_linker_0, # of connection points: 2
#     Edge 85, Type (0, 0), BuildingBlock: AJUNOK_clean_linker_0, # of connection points: 2
#     Edge 86, Type (0, 0), BuildingBlock: AJUNOK_clean_linker_0, # of connection points: 2
#     Edge 87, Type (0, 0), BuildingBlock: AJUNOK_clean_linker_0, # of connection points: 2
#     Edge 88, Type (0, 0), BuildingBlock: AJUNOK_clean_linker_0, # of connection points: 2
#     Edge 89, Type (0, 0), BuildingBlock: AJUNOK_clean_linker_0, # of connection points: 2
#     Edge 90, Type (0, 0), BuildingBlock: AJUNOK_clean_linker_0, # of connection points: 2
#     Edge 91, Type (0, 0), BuildingBlock: AJUNOK_clean_linker_0, # of connection points: 2
#     Edge 92, Type (0, 0), BuildingBlock: AJUNOK_clean_linker_0, # of connection points: 2
#     Edge 93, Type (0, 0), BuildingBlock: AJUNOK_clean_linker_0, # of connection points: 2
#     Edge 94, Type (0, 0), BuildingBlock: AJUNOK_clean_linker_0, # of connection points: 2
#     Edge 95, Type (0, 0), BuildingBlock: AJUNOK_clean_linker_0, # of connection points: 2
# Relax obj value: 0.086
# Max RMSD: 0.108
# Mean RMSD: 0.108
data_MOF--net-umr--node1-QUQFOY_clean_sbu_3--edge1-AJUNOK_clean_linker_0
_symmetry_space_group_name_H-M    P1
_symmetry_Int_Tables_number       1
_symmetry_cell_setting            triclinic
loop_
_symmetry_equiv_pos_as_xyz
'x, y, z'
_cell_length_a     64.444523
_cell_length_b     64.415326
_cell_length_c     20.245779
_cell_angle_alpha  90.138783
_cell_angle_beta   90.23004
_cell_angle_gamma 90.002581
loop_
_atom_site_label
_atom_site_type_symbol
_atom_site_fract_x
_atom_site_fract_y
_atom_site_fract_z
_atom_type_partial_charge
C0 C 0.15889 0.24503 0.0351 0.0
O1 O 0.1701 0.23566 0.07721 0.0
Cd2 Cd 0.18401 0.2527 0.17165 0.0
O3 O 0.15324 0.26377 0.04505 0.0
Cd4 Cd 0.15783 0.29134 0.12939 0.0
C5 C 0.20724 0.28938 0.07602 0.0
O6 O 0.15429 0.26858 0.22149 0.0
O7 O 0.1678 0.29823 0.24532 0.0
O8 O 0.12238 0.3036 0.11426 0.0
C9 C 0.15947 0.28156 0.26541 0.0
O10 O 0.20997 0.27425 0.11544 0.0
C11 C 0.12734 0.32271 0.1141 0.0
O12 O 0.18962 0.29799 0.07036 0.0
O13 O 0.14655 0.32692 0.11786 0.0
C14 C -0.00173 0.90974 0.27528 0.0
O15 O 0.00788 0.92082 0.31737 0.0
Cd16 Cd 0.99143 0.93433 0.41339 0.0
O17 O 0.97947 0.9044 0.28512 0.0
Cd18 Cd 0.95211 0.90914 0.36914 0.0
C19 C 0.95393 0.95957 0.32474 0.0
O20 O 0.97481 0.90487 0.46205 0.0
O21 O 0.94521 0.91845 0.48531 0.0
O22 O 0.9396 0.87367 0.35252 0.0
C23 C 0.96188 0.91015 0.50576 0.0
O24 O 0.96951 0.96128 0.36329 0.0
C25 C 0.92055 0.87881 0.35116 0.0
O26 O 0.94523 0.9421 0.31554 0.0
O27 O 0.91654 0.89806 0.35507 0.0
C28 C 0.32701 0.7461 0.54286 0.0
O29 O 0.31962 0.75763 0.58792 0.0
Cd30 Cd 0.30472 0.74188 0.68237 0.0
O31 O 0.32889 0.72658 0.55184 0.0
Cd32 Cd 0.3241 0.69899 0.63559 0.0
C33 C 0.27492 0.70702 0.59022 0.0
O34 O 0.33162 0.7208 0.72812 0.0
O35 O 0.31491 0.69279 0.75165 0.0
O36 O 0.35909 0.68722 0.61495 0.0
C37 C 0.32521 0.70838 0.7718 0.0
O38 O 0.27673 0.72357 0.62433 0.0
C39 C 0.35482 0.66799 0.61561 0.0
O40 O 0.29007 0.69445 0.58542 0.0
O41 O 0.33579 0.66315 0.62149 0.0
C42 C 0.48387 0.08144 0.77747 0.0
O43 O 0.47213 0.07488 0.82306 0.0
Cd44 Cd 0.48806 0.05921 0.9161 0.0
O45 O 0.50346 0.08248 0.78626 0.0
Cd46 Cd 0.53125 0.0775 0.86957 0.0
C47 C 0.52201 0.02898 0.82191 0.0
O48 O 0.51 0.08538 0.96257 0.0
O49 O 0.53772 0.06815 -0.01421 0.0
O50 O 0.5433 0.11244 0.8479 0.0
C51 C 0.52229 0.07855 0.00621 0.0
O52 O 0.50532 0.03142 0.85455 0.0
C53 C 0.56245 0.10783 0.84767 0.0
O54 O 0.53549 0.04337 0.8195 0.0
O55 O 0.56701 0.08874 0.85408 0.0
C56 C 0.1621 0.74788 0.42043 0.0
O57 O 0.16884 0.75919 0.37399 0.0
Cd58 Cd 0.18504 0.74138 0.28599 0.0
O59 O 0.1603 0.72828 0.41232 0.0
Cd60 Cd 0.16379 0.69982 0.32958 0.0
C61 C 0.21082 0.70634 0.38982 0.0
O62 O 0.15772 0.7215 0.23634 0.0
O63 O 0.17386 0.693 0.21414 0.0
O64 O 0.12817 0.68988 0.34973 0.0
C65 C 0.16394 0.70872 0.19326 0.0
O66 O 0.20976 0.72344 0.35859 0.0
C67 C 0.13159 0.67047 0.34944 0.0
O68 O 0.19631 0.69307 0.38589 0.0
O69 O 0.15035 0.66476 0.34314 0.0
C70 C 0.48764 0.90584 0.68063 0.0
O71 O 0.47561 0.912 0.6349 0.0
Cd72 Cd 0.49084 0.92821 0.54197 0.0
O73 O 0.50725 0.90556 0.67221 0.0
Cd74 Cd 0.53478 0.91175 0.58952 0.0
C75 C 0.52353 0.95989 0.63665 0.0
O76 O 0.51379 0.90288 0.49634 0.0
O77 O 0.54072 0.92126 0.47328 0.0
O78 O 0.54822 0.87732 0.61185 0.0
C79 C 0.52575 0.91012 0.4528 0.0
O80 O 0.50697 0.95674 0.60354 0.0
C81 C 0.56719 0.88262 0.61168 0.0
O82 O 0.5376 0.94607 0.63959 0.0
O83 O 0.57103 0.90184 0.60486 0.0
C84 C 0.31965 0.23969 0.92948 0.0
O85 O 0.3081 0.23052 0.88769 0.0
Cd86 Cd 0.29503 0.2475 0.79198 0.0
O87 O 0.32571 0.25828 0.91948 0.0
Cd88 Cd 0.32181 0.28589 0.83543 0.0
C89 C 0.2716 0.28581 0.88188 0.0
O90 O 0.32527 0.26275 0.74354 0.0
O91 O 0.31306 0.29287 0.71888 0.0
O92 O 0.35757 0.29737 0.85167 0.0
C93 C 0.32083 0.27585 0.69932 0.0
O94 O 0.26916 0.27024 0.84375 0.0
C95 C 0.35307 0.31659 0.85193 0.0
O96 O 0.28937 0.294 0.88965 0.0
O97 O 0.33397 0.32123 0.84793 0.0
C98 C -0.00155 0.07369 0.18429 0.0
O99 O 0.00794 0.06251 0.14242 0.0
Cd100 Cd 0.99076 0.04946 0.04677 0.0
O101 O 0.97983 0.07952 0.17344 0.0
Cd102 Cd 0.95237 0.07614 0.08845 0.0
C103 C 0.95286 0.02632 0.13841 0.0
O104 O 0.97551 0.07971 -0.00235 0.0
O105 O 0.94577 0.06668 0.9718 0.0
O106 O 0.94191 0.11217 0.10511 0.0
C107 C 0.96259 0.075 0.95298 0.0
O108 O 0.96826 0.0237 0.10008 0.0
C109 C 0.92259 0.10825 0.10471 0.0
O110 O 0.9445 0.04404 0.14498 0.0
O111 O 0.91736 0.0893 0.09975 0.0
C112 C 0.81952 0.74615 0.92832 0.0
O113 O 0.80752 0.75488 0.887 0.0
Cd114 Cd 0.79443 0.73694 0.79287 0.0
O115 O 0.8262 0.72779 0.91779 0.0
Cd116 Cd 0.82308 0.6999 0.83411 0.0
C117 C 0.77364 0.69866 0.88819 0.0
O118 O 0.82508 0.72304 0.74256 0.0
O119 O 0.81395 0.69247 0.71771 0.0
O120 O 0.85945 0.69062 0.84923 0.0
C121 C 0.82104 0.70978 0.69825 0.0
O122 O 0.77001 0.71374 0.84931 0.0
C123 C 0.85611 0.67118 0.84997 0.0
O124 O 0.79174 0.69106 0.89329 0.0
O125 O 0.83731 0.66536 0.8464 0.0
C126 C 0.99204 0.07207 0.68444 0.0
O127 O 0.98292 0.06023 0.64333 0.0
Cd128 Cd 0.00047 0.04728 0.54867 0.0
O129 O 0.01047 0.07838 0.67363 0.0
Cd130 Cd 0.03807 0.07522 0.58979 0.0
C131 C 0.03921 0.02548 0.64123 0.0
O132 O 0.01449 0.07801 0.49924 0.0
O133 O 0.04467 0.06633 0.47272 0.0
O134 O 0.04689 0.11166 0.60649 0.0
C135 C 0.02746 0.07404 0.45435 0.0
O136 O 0.0238 0.02237 0.60292 0.0
C137 C 0.06638 0.10873 0.60579 0.0
O138 O 0.04709 0.04345 0.64737 0.0
O139 O 0.07253 0.09005 0.60076 0.0
C140 C 0.66082 0.23774 0.42662 0.0
O141 O 0.66906 0.22662 0.38202 0.0
Cd142 Cd 0.683 0.24247 0.28624 0.0
O143 O 0.65786 0.25711 0.41734 0.0
Cd144 Cd 0.66186 0.28458 0.33265 0.0
C145 C 0.71182 0.27859 0.37514 0.0
O146 O 0.65487 0.2621 0.24124 0.0
O147 O 0.67024 0.29067 0.21569 0.0
O148 O 0.62676 0.29604 0.35433 0.0
C149 C 0.66057 0.27454 0.19668 0.0
O150 O 0.7109 0.26204 0.3407 0.0
C151 C 0.63086 0.31531 0.3533 0.0
O152 O 0.69592 0.29013 0.38143 0.0
O153 O 0.64981 0.3203 0.34635 0.0
C154 C 0.49782 0.91127 0.18228 0.0
O155 O 0.50669 0.92315 0.14112 0.0
Cd156 Cd 0.48903 0.93561 0.04565 0.0
O157 O 0.47941 0.90478 0.17171 0.0
Cd158 Cd 0.45165 0.90799 0.08836 0.0
C159 C 0.45112 0.95813 0.13797 0.0
O160 O 0.47492 0.90447 -0.00235 0.0
O161 O 0.44448 0.91548 0.9708 0.0
O162 O 0.44171 0.87202 0.10797 0.0
C163 C 0.46171 0.90783 0.95269 0.0
O164 O 0.46622 0.96121 0.09889 0.0
C165 C 0.42235 0.87577 0.10819 0.0
O166 O 0.4434 0.94014 0.14475 0.0
O167 O 0.41692 0.89462 0.1019 0.0
C168 C 0.82615 0.23689 0.53627 0.0
O169 O 0.81744 0.22623 0.58089 0.0
Cd170 Cd 0.80175 0.24373 0.67076 0.0
O171 O 0.82941 0.25627 0.54496 0.0
Cd172 Cd 0.82541 0.28443 0.62798 0.0
C173 C 0.77721 0.27974 0.56975 0.0
O174 O 0.82964 0.26247 0.7217 0.0
O175 O 0.81475 0.2917 0.74258 0.0
O176 O 0.86118 0.29533 0.6123 0.0
C177 C 0.82348 0.27542 0.76437 0.0
O178 O 0.77659 0.26309 0.6034 0.0
C179 C 0.857 0.31459 0.61086 0.0
O180 O 0.79328 0.29112 0.56961 0.0
O181 O 0.83797 0.3196 0.6143 0.0
C182 C 0.49441 0.07483 0.27595 0.0
O183 O 0.50432 0.06407 0.31802 0.0
Cd184 Cd 0.48772 0.05098 0.41415 0.0
O185 O 0.47553 0.07978 0.28587 0.0
Cd186 Cd 0.44806 0.0754 0.36909 0.0
C187 C 0.45046 0.02483 0.3259 0.0
O188 O 0.47117 0.08106 0.45998 0.0
O189 O 0.44149 0.06829 0.48686 0.0
O190 O 0.43731 0.11088 0.34743 0.0
C191 C 0.45823 0.07706 0.50489 0.0
O192 O 0.46628 0.02371 0.36362 0.0
C193 C 0.418 0.107 0.34858 0.0
O194 O 0.44117 0.04201 0.31712 0.0
O195 O 0.41278 0.08812 0.35576 0.0
C196 C 0.66183 0.74593 0.03476 0.0
O197 O 0.67337 0.75485 0.07711 0.0
Cd198 Cd 0.68622 0.73805 0.17311 0.0
O199 O 0.65545 0.7274 0.04433 0.0
Cd200 Cd 0.65939 0.69998 0.1297 0.0
C201 C 0.70968 0.69988 0.08333 0.0
O202 O 0.65572 0.72331 0.22119 0.0
O203 O 0.66837 0.69349 0.24668 0.0
O204 O 0.62379 0.68768 0.11454 0.0
C205 C 0.66035 0.71044 0.26584 0.0
O206 O 0.71223 0.71526 0.12214 0.0
C207 C 0.62872 0.66856 0.11517 0.0
O208 O 0.69183 0.69191 0.0751 0.0
O209 O 0.64793 0.66438 0.1189 0.0
C210 C 0.99142 0.91223 0.77582 0.0
O211 O 0.98245 0.92348 0.81861 0.0
Cd212 Cd -0.00017 0.9353 0.91548 0.0
O213 O 0.00992 0.90582 0.78562 0.0
Cd214 Cd 0.03753 0.90855 0.8706 0.0
C215 C 0.03834 0.95921 0.82849 0.0
O216 O 0.01442 0.90427 0.96159 0.0
O217 O 0.04442 0.91643 -0.01167 0.0
O218 O 0.0476 0.87255 0.85106 0.0
C219 C 0.02749 0.90821 0.00653 0.0
O220 O 0.02292 0.96147 0.86698 0.0
C221 C 0.06696 0.87625 0.85154 0.0
O222 O 0.0462 0.94138 0.81875 0.0
O223 O 0.07239 0.89511 0.8576 0.0
C224 C 0.66188 0.7404 0.53529 0.0
O225 O 0.67275 0.73091 0.57801 0.0
Cd226 Cd 0.68613 0.74739 0.67412 0.0
O227 O 0.65641 0.75923 0.54488 0.0
Cd228 Cd 0.66088 0.78669 0.63014 0.0
C229 C 0.71114 0.78459 0.58429 0.0
O230 O 0.65618 0.76357 0.72125 0.0
O231 O 0.66956 0.79306 0.74752 0.0
O232 O 0.6257 0.79953 0.61253 0.0
C233 C 0.6611 0.7763 0.76622 0.0
O234 O 0.71294 0.769 0.62248 0.0
C235 C 0.63088 0.81858 0.61307 0.0
O236 O 0.69372 0.79348 0.5765 0.0
O237 O 0.65011 0.82254 0.61831 0.0
C238 C 0.49857 0.40359 0.7822 0.0
O239 O 0.5102 0.41044 0.82807 0.0
Cd240 Cd 0.49492 0.42503 0.92363 0.0
O241 O 0.479 0.40205 0.79052 0.0
Cd242 Cd 0.4516 0.40708 0.87494 0.0
C243 C 0.46091 0.4564 0.83394 0.0
O244 O 0.47355 0.39791 0.96575 0.0
O245 O 0.44595 0.41467 -0.00722 0.0
O246 O 0.43758 0.37289 0.84998 0.0
C247 C 0.46151 0.40399 0.01092 0.0
O248 O 0.47756 0.45381 0.8671 0.0
C249 C 0.41872 0.3786 0.85159 0.0
O250 O 0.4477 0.44182 0.82888 0.0
O251 O 0.41534 0.39784 0.8602 0.0
C252 C 0.82135 0.24693 0.03472 0.0
O253 O 0.80975 0.25562 0.0771 0.0
Cd254 Cd 0.79771 0.23778 0.17243 0.0
O255 O 0.82807 0.22854 0.04423 0.0
Cd256 Cd 0.82552 0.20055 0.12714 0.0
C257 C 0.7751 0.19918 0.08113 0.0
O258 O 0.82859 0.22335 0.22025 0.0
O259 O 0.81753 0.1927 0.24349 0.0
O260 O 0.86172 0.19094 0.10933 0.0
C261 C 0.82479 0.20988 0.26384 0.0
O262 O 0.77232 0.21443 0.12024 0.0
C263 C 0.85817 0.17154 0.10778 0.0
O264 O 0.7931 0.19164 0.0726 0.0
O265 O 0.83933 0.16593 0.11202 0.0
C266 C 0.98671 0.58471 0.28753 0.0
O267 O 0.97466 0.57883 0.33326 0.0
Cd268 Cd 0.99023 0.56218 0.42521 0.0
O269 O 0.00632 0.58484 0.29634 0.0
Cd270 Cd 0.03413 0.57902 0.3789 0.0
C271 C 0.02298 0.53142 0.32789 0.0
O272 O 0.01326 0.58731 0.47226 0.0
O273 O 0.0405 0.5692 0.4946 0.0
O274 O 0.0466 0.61366 0.35708 0.0
C275 C 0.02541 0.58001 0.51552 0.0
O276 O 0.00637 0.5344 0.36053 0.0
C277 C 0.06569 0.60885 0.35653 0.0
O278 O 0.03719 0.54511 0.32701 0.0
O279 O 0.07009 0.58972 0.36299 0.0
C280 C 0.66349 0.2448 0.928 0.0
O281 O 0.67549 0.25384 0.88762 0.0
Cd282 Cd 0.68884 0.2364 0.79338 0.0
O283 O 0.65721 0.22634 0.91679 0.0
Cd284 Cd 0.66096 0.19879 0.83237 0.0
C285 C 0.71049 0.19796 0.88679 0.0
O286 O 0.65805 0.22259 0.74278 0.0
O287 O 0.66958 0.19245 0.71497 0.0
O288 O 0.62482 0.18922 0.84811 0.0
C289 C 0.66187 0.20971 0.69732 0.0
O290 O 0.71374 0.21335 0.84891 0.0
C291 C 0.62813 0.16978 0.84662 0.0
O292 O 0.69253 0.19 0.89135 0.0
O293 O 0.6469 0.16399 0.84163 0.0
C294 C 0.98363 0.41072 0.18125 0.0
O295 O 0.97188 0.41771 0.136 0.0
Cd296 Cd 0.98753 0.43338 0.04273 0.0
O297 O 0.0032 0.40959 0.17274 0.0
Cd298 Cd 0.03087 0.41528 0.09029 0.0
C299 C 0.02125 0.46385 0.13726 0.0
O300 O 0.00948 0.40706 -0.00257 0.0
O301 O 0.03718 0.42431 0.97425 0.0
O302 O 0.04415 0.38074 0.11258 0.0
C303 C 0.02186 0.41363 0.95395 0.0
O304 O 0.0046 0.4615 0.10394 0.0
C305 C 0.06311 0.38612 0.11296 0.0
O306 O 0.03464 0.44939 0.14024 0.0
O307 O 0.06691 0.40534 0.1063 0.0
C308 C 0.8219 0.73857 0.42817 0.0
O309 O 0.81024 0.72969 0.38607 0.0
Cd310 Cd 0.79692 0.74732 0.29215 0.0
O311 O 0.82835 0.75705 0.41844 0.0
Cd312 Cd 0.82478 0.78486 0.33482 0.0
C313 C 0.77535 0.78479 0.38909 0.0
O314 O 0.82716 0.76208 0.24202 0.0
O315 O 0.81458 0.79219 0.21933 0.0
O316 O 0.8607 0.79639 0.3493 0.0
C317 C 0.82223 0.77525 0.19856 0.0
O318 O 0.77189 0.76987 0.3492 0.0
C319 C 0.85602 0.81557 0.35045 0.0
O320 O 0.79335 0.79259 0.39469 0.0
O321 O 0.83686 0.82005 0.34735 0.0
C322 C 0.49695 0.57877 0.68863 0.0
O323 O 0.50878 0.57197 0.6435 0.0
Cd324 Cd 0.493 0.55527 0.55199 0.0
O325 O 0.47733 0.57936 0.68005 0.0
Cd326 Cd 0.44945 0.57316 0.59753 0.0
C327 C 0.45962 0.52529 0.6489 0.0
O328 O 0.47096 0.58116 0.50514 0.0
O329 O 0.44319 0.56414 0.48069 0.0
O330 O 0.43768 0.60806 0.61962 0.0
C331 C 0.45874 0.57449 0.46097 0.0
O332 O 0.47631 0.52799 0.61653 0.0
C333 C 0.41845 0.60387 0.61796 0.0
O334 O 0.44561 0.5392 0.64962 0.0
O335 O 0.41355 0.58488 0.61084 0.0
C336 C 0.32119 0.24761 0.42827 0.0
O337 O 0.31041 0.25724 0.38562 0.0
Cd338 Cd 0.29651 0.23975 0.29212 0.0
O339 O 0.32651 0.22877 0.41843 0.0
Cd340 Cd 0.3225 0.20108 0.33441 0.0
C341 C 0.27338 0.20324 0.3897 0.0
O342 O 0.32633 0.22383 0.24284 0.0
O343 O 0.31233 0.19442 0.21825 0.0
O344 O 0.35838 0.19043 0.3498 0.0
C345 C 0.32124 0.21088 0.19875 0.0
O346 O 0.27081 0.21852 0.35077 0.0
C347 C 0.35442 0.1711 0.34957 0.0
O348 O 0.29086 0.19428 0.39462 0.0
O349 O 0.33544 0.1659 0.34574 0.0
C350 C 0.48509 0.57793 0.18878 0.0
O351 O 0.47374 0.57148 0.14166 0.0
Cd352 Cd 0.48973 0.557 0.04734 0.0
O353 O 0.50469 0.57968 0.18137 0.0
Cd354 Cd 0.53246 0.57556 0.09748 0.0
C355 C 0.5238 0.5263 0.13946 0.0
O356 O 0.51078 0.58444 0.0058 0.0
O357 O 0.53856 0.56785 0.97971 0.0
O358 O 0.54565 0.61013 0.12224 0.0
C359 C 0.52302 0.57845 0.96106 0.0
O360 O 0.50719 0.52871 0.10601 0.0
C361 C 0.56465 0.60491 0.12063 0.0
O362 O 0.53696 0.54094 0.14411 0.0
O363 O 0.56849 0.58573 0.11252 0.0
C364 C 0.16547 0.73628 0.92305 0.0
O365 O 0.1773 0.72735 0.88183 0.0
Cd366 Cd 0.19043 0.74514 0.78784 0.0
O367 O 0.15927 0.75482 0.91314 0.0
Cd368 Cd 0.16303 0.7828 0.83088 0.0
C369 C 0.21299 0.78316 0.88164 0.0
O370 O 0.16023 0.76014 0.73725 0.0
O371 O 0.17205 0.79062 0.71531 0.0
O372 O 0.12686 0.79287 0.8465 0.0
C373 C 0.16457 0.77362 0.69419 0.0
O374 O 0.21581 0.76791 0.84257 0.0
C375 C 0.13065 0.81223 0.8483 0.0
O376 O 0.19507 0.79107 0.88864 0.0
O377 O 0.14958 0.81761 0.84507 0.0
C378 C -0.0044 0.41346 0.68194 0.0
O379 O 0.00522 0.42445 0.64005 0.0
Cd380 Cd 0.98753 0.43814 0.54653 0.0
O381 O 0.97679 0.40817 0.67185 0.0
Cd382 Cd 0.94884 0.41195 0.58952 0.0
C383 C 0.95087 0.4614 0.64368 0.0
O384 O 0.97159 0.40803 0.49801 0.0
O385 O 0.94159 0.42061 0.47297 0.0
O386 O 0.93907 0.376 0.60803 0.0
C387 C 0.95838 0.41227 0.45379 0.0
O388 O 0.96623 0.46384 0.60518 0.0
C389 C 0.91967 0.37954 0.60807 0.0
O390 O 0.94192 0.44392 0.64869 0.0
O391 O 0.91404 0.39836 0.60261 0.0
C392 C 0.32309 0.73679 0.04164 0.0
O393 O 0.31099 0.72793 0.08212 0.0
Cd394 Cd 0.29782 0.74585 0.17584 0.0
O395 O 0.32952 0.75521 0.05246 0.0
Cd396 Cd 0.32594 0.78303 0.13557 0.0
C397 C 0.27641 0.78384 0.0805 0.0
O398 O 0.32877 0.75961 0.22616 0.0
O399 O 0.3177 0.79004 0.25279 0.0
O400 O 0.36206 0.79279 0.11809 0.0
C401 C 0.32524 0.77277 0.27108 0.0
O402 O 0.27292 0.76865 0.119 0.0
C403 C 0.35843 0.81218 0.118 0.0
O404 O 0.29444 0.79164 0.07625 0.0
O405 O 0.33961 0.81772 0.12354 0.0
C406 C -0.00178 0.57696 0.78592 0.0
O407 O 0.00813 0.56629 0.82823 0.0
Cd408 Cd 0.99139 0.55329 0.9242 0.0
O409 O 0.97932 0.5819 0.79562 0.0
Cd410 Cd 0.95177 0.57771 0.87862 0.0
C411 C 0.95414 0.52702 0.83601 0.0
O412 O 0.97483 0.58351 0.96963 0.0
O413 O 0.94498 0.57114 -0.00352 0.0
O414 O 0.94055 0.61305 0.85553 0.0
C415 C 0.96179 0.57976 0.01449 0.0
O416 O 0.97016 0.52595 0.87289 0.0
C417 C 0.92132 0.60878 0.85592 0.0
O418 O 0.94471 0.54417 0.82818 0.0
O419 O 0.91644 0.58984 0.86371 0.0
C420 C 0.16049 0.25273 0.53552 0.0
O421 O 0.17124 0.26217 0.57884 0.0
Cd422 Cd 0.18426 0.24517 0.67439 0.0
O423 O 0.15491 0.23393 0.54455 0.0
Cd424 Cd 0.1584 0.20615 0.62832 0.0
C425 C 0.2089 0.20742 0.58418 0.0
O426 O 0.1541 0.22908 0.72038 0.0
O427 O 0.16646 0.19906 0.74543 0.0
O428 O 0.12278 0.19457 0.60919 0.0
C429 C 0.15853 0.21604 0.76478 0.0
O430 O 0.21067 0.22323 0.62168 0.0
C431 C 0.12736 0.17538 0.60833 0.0
O432 O 0.19144 0.19855 0.57651 0.0
O433 O 0.14646 0.1708 0.61345 0.0
C434 C 0.48814 0.40391 0.28297 0.0
O435 O 0.47625 0.41061 0.32807 0.0
Cd436 Cd 0.49174 0.42699 0.4204 0.0
O437 O 0.50776 0.40332 0.29177 0.0
Cd438 Cd 0.53549 0.40944 0.3751 0.0
C439 C 0.52512 0.45751 0.32519 0.0
O440 O 0.51353 0.40057 0.46507 0.0
O441 O 0.54092 0.41751 0.49355 0.0
O442 O 0.54758 0.37474 0.35113 0.0
C443 C 0.52533 0.40679 0.5109 0.0
O444 O 0.50838 0.4546 0.3571 0.0
C445 C 0.56677 0.37901 0.3541 0.0
O446 O 0.53922 0.44369 0.32445 0.0
O447 O 0.57154 0.39799 0.36271 0.0
C448 C 0.2595 0.29541 -0.0055 0.0
C449 C 0.25471 0.29145 0.92762 0.0
C450 C 0.24393 0.29589 0.04268 0.0
C451 C 0.22302 0.29322 0.02513 0.0
H452 H 0.27552 0.2966 0.01054 0.0
H453 H 0.24831 0.29754 0.09415 0.0
S454 S 0.20215 0.28412 0.85645 0.0
N455 N 0.22751 0.28585 0.84616 0.0
N456 N 0.19813 0.28766 0.9362 0.0
C457 C 0.2179 0.29067 0.95797 0.0
C458 C 0.23378 0.28957 0.90926 0.0
C459 C 0.94569 0.97308 0.21262 0.0
C460 C 0.94882 0.97703 0.28044 0.0
C461 C 0.94577 0.98927 0.16641 0.0
C462 C 0.9482 0.00996 0.18684 0.0
H463 H 0.94475 0.95726 0.19452 0.0
H464 H 0.94481 0.98553 0.11428 0.0
S465 S 0.95503 0.02866 0.35904 0.0
N466 N 0.9533 0.00317 0.36589 0.0
N467 N 0.9525 0.03371 0.27947 0.0
C468 C 0.94985 0.01423 0.25486 0.0
C469 C 0.9504 -0.00228 0.30162 0.0
C470 C 0.24145 0.68958 0.4451 0.0
C471 C 0.22591 0.7048 0.44418 0.0
C472 C 0.25662 0.68951 0.49525 0.0
C473 C 0.25651 0.70451 0.54635 0.0
H474 H 0.24236 0.67824 0.40562 0.0
H475 H 0.26899 0.67818 0.49218 0.0
S476 S 0.21647 0.74539 0.57059 0.0
N477 N 0.20967 0.73365 0.50129 0.0
N478 N 0.23763 0.73335 0.59624 0.0
C479 C 0.23997 0.71882 0.54797 0.0
C480 C 0.22483 0.71903 0.4966 0.0
C481 C 0.50514 0.00203 0.75237 0.0
C482 C 0.52358 0.01088 0.77693 0.0
C483 C 0.50549 0.98616 0.7054 0.0
C484 C 0.52431 0.97807 0.68157 0.0
H485 H 0.49015 0.0077 0.76844 0.0
H486 H 0.49077 0.97988 0.68877 0.0
S487 S 0.57705 -0.00443 0.73023 0.0
N488 N 0.56129 0.01054 0.77351 0.0
N489 N 0.56197 0.97997 0.68637 0.0
C490 C 0.54295 0.98657 0.70599 0.0
C491 C 0.54258 0.00316 0.7532 0.0
C492 C 0.72163 0.69112 0.96989 0.0
C493 C 0.7265 0.69441 0.03706 0.0
C494 C 0.73715 0.69117 0.92148 0.0
C495 C 0.75808 0.69373 0.93895 0.0
H496 H 0.70559 0.69014 0.95391 0.0
H497 H 0.73267 0.69014 0.86994 0.0
S498 S 0.77915 0.70084 0.10837 0.0
N499 N 0.7538 0.69903 0.11875 0.0
N500 N 0.78308 0.6982 0.02822 0.0
C501 C 0.76329 0.69544 0.00634 0.0
C502 C 0.74746 0.69601 0.05535 0.0
C503 C 0.04669 0.9724 0.7163 0.0
C504 C 0.04393 0.97649 0.78412 0.0
C505 C 0.04655 0.98852 0.66981 0.0
C506 C 0.04443 0.00928 0.68988 0.0
H507 H 0.04726 0.95655 0.69838 0.0
H508 H 0.04711 0.98466 0.61773 0.0
S509 S 0.03895 0.02835 0.86202 0.0
N510 N 0.04038 0.00284 0.86924 0.0
N511 N 0.04108 0.03323 0.78228 0.0
C512 C 0.04333 0.01368 0.7579 0.0
C513 C 0.04284 -0.00275 0.80499 0.0
C514 C 0.72838 0.29422 0.476 0.0
C515 C 0.73026 0.28216 0.4179 0.0
C516 C 0.74396 0.29416 0.52476 0.0
C517 C 0.76194 0.28224 0.51644 0.0
H518 H 0.71428 0.30282 0.48578 0.0
H519 H 0.7416 0.30281 0.57005 0.0
S520 S 0.77585 0.25007 0.37128 0.0
N521 N 0.75269 0.25952 0.35318 0.0
N522 N 0.7818 0.25955 0.44479 0.0
C523 C 0.76464 0.27118 0.45736 0.0
C524 C 0.74886 0.27115 0.40794 0.0
C525 C 0.44224 -0.00526 0.1677 0.0
C526 C 0.44626 0.97425 0.18725 0.0
C527 C 0.44163 0.01088 0.21439 0.0
C528 C 0.44579 0.00711 0.28174 0.0
H529 H 0.44038 -0.00158 0.11582 0.0
H530 H 0.43944 0.02661 0.19683 0.0
S531 S 0.45648 0.95594 0.35791 0.0
N532 N 0.45331 0.9508 0.27855 0.0
N533 N 0.45308 0.98124 0.36575 0.0
C534 C 0.44901 0.98655 0.30206 0.0
C535 C 0.44903 0.97007 0.25489 0.0
C536 C 0.72349 0.79326 0.47132 0.0
C537 C 0.72821 0.78935 0.53823 0.0
C538 C 0.739 0.79288 0.4229 0.0
C539 C 0.7598 0.78935 0.44019 0.0
H540 H 0.70752 0.7951 0.45547 0.0
H541 H 0.73462 0.79456 0.37147 0.0
S542 S 0.78051 0.77996 0.60878 0.0
N543 N 0.75526 0.78283 0.61939 0.0
N544 N 0.78455 0.78303 0.52889 0.0
C545 C 0.7649 0.78682 0.50734 0.0
C546 C 0.74906 0.7866 0.5563 0.0
C547 C 0.47761 0.48488 0.7711 0.0
C548 C 0.45923 0.47492 0.79083 0.0
C549 C 0.47737 0.50071 0.7242 0.0
C550 C 0.45872 0.50766 0.69559 0.0
H551 H 0.49253 0.48002 0.79048 0.0
H552 H 0.49205 0.50774 0.71092 0.0
S553 S 0.40609 0.48756 0.73202 0.0
N554 N 0.42167 0.47342 0.77881 0.0
N555 N 0.42121 0.50393 0.69185 0.0
C556 C 0.44009 0.49833 0.71593 0.0
C557 C 0.44035 0.48177 0.76307 0.0
C558 C 0.74725 0.19099 0.91906 0.0
C559 C 0.72633 0.1929 0.93697 0.0
C560 C 0.76296 0.19091 0.96726 0.0
C561 C 0.75827 0.19352 0.03472 0.0
H562 H 0.75156 0.19053 0.8674 0.0
H563 H 0.77895 0.1905 0.95102 0.0
S564 S 0.70575 0.19797 0.10719 0.0
N565 N 0.70158 0.19593 0.02689 0.0
N566 N 0.73118 0.19673 0.1171 0.0
C567 C 0.73734 0.19441 0.05338 0.0
C568 C 0.72134 0.19387 0.00454 0.0
C569 C 0.00448 0.49108 0.2056 0.0
C570 C 0.02288 0.48186 0.18265 0.0
C571 C 0.00485 0.50652 0.25402 0.0
C572 C 0.02366 0.51378 0.28095 0.0
H573 H 0.9895 0.48597 0.18735 0.0
H574 H 0.99017 0.51309 0.26951 0.0
S575 S 0.07631 0.49529 0.23675 0.0
N576 N 0.06056 0.48115 0.19034 0.0
N577 N 0.06127 0.51092 0.28024 0.0
C578 C 0.04226 0.50503 0.25781 0.0
C579 C 0.04187 0.48888 0.20909 0.0
C580 C 0.23728 0.19498 0.42578 0.0
C581 C 0.25788 0.19993 0.44175 0.0
C582 C 0.22174 0.19564 0.47414 0.0
C583 C 0.2262 0.20203 0.5394 0.0
H584 H 0.23304 0.19132 0.37524 0.0
H585 H 0.20589 0.19254 0.45905 0.0
S586 S 0.27806 0.21614 0.60576 0.0
N587 N 0.28225 0.21047 0.52734 0.0
N588 N 0.25297 0.21252 0.61759 0.0
C589 C 0.24694 0.20631 0.55624 0.0
C590 C 0.2628 0.20509 0.50748 0.0
C591 C 0.50731 0.48242 0.25096 0.0
C592 C 0.52601 0.47527 0.27887 0.0
C593 C 0.50706 0.49821 0.20391 0.0
C594 C 0.52547 0.50794 0.18329 0.0
H595 H 0.49262 0.47553 0.26476 0.0
H596 H 0.49212 0.50319 0.185 0.0
S597 S 0.57867 0.49492 0.24046 0.0
N598 N 0.56356 0.47871 0.28129 0.0
N599 N 0.56306 0.50916 0.19408 0.0
C600 C 0.54436 0.50099 0.21058 0.0
C601 C 0.54465 0.48446 0.25787 0.0
C602 C 0.23981 0.79075 0.04585 0.0
C603 C 0.26085 0.78879 0.02931 0.0
C604 C 0.22442 0.79099 -0.0034 0.0
C605 C 0.22955 0.78849 0.92942 0.0
H606 H 0.23517 0.7912 0.09721 0.0
H607 H 0.20832 0.79149 0.01173 0.0
S608 S 0.28249 0.78378 0.86039 0.0
N609 N 0.28615 0.78569 0.94096 0.0
N610 N 0.25714 0.78519 0.84884 0.0
C611 C 0.25058 0.78746 0.91216 0.0
C612 C 0.26626 0.78784 0.96206 0.0
C613 C 0.94155 0.49738 0.67933 0.0
C614 C 0.94748 0.47707 0.69544 0.0
C615 C 0.94199 0.51318 0.72722 0.0
C616 C 0.94909 0.50929 0.79208 0.0
H617 H 0.93729 0.50121 0.629 0.0
H618 H 0.93812 0.52882 0.71197 0.0
S619 S 0.96582 0.45832 0.85857 0.0
N620 N 0.95969 0.45353 0.78072 0.0
N621 N 0.96129 0.48331 0.87008 0.0
C622 C 0.95435 0.48881 0.80909 0.0
C623 C 0.95338 0.47268 0.76083 0.0
C624 C 0.14777 0.24798 0.91761 0.0
C625 C 0.15552 0.23557 0.96915 0.0
C626 C 0.1483 0.24119 0.85213 0.0
C627 C 0.15653 0.22166 0.83529 0.0
H628 H 0.14213 0.26354 0.92721 0.0
H629 H 0.14277 0.25169 0.81423 0.0
S630 S 0.17597 0.18187 0.95237 0.0
N631 N 0.16961 0.20179 -0.0004 0.0
N632 N 0.17056 0.18903 0.87599 0.0
C633 C 0.16306 0.20848 0.88653 0.0
C634 C 0.16254 0.21541 0.95355 0.0
C635 C 0.03243 0.91724 0.12565 0.0
C636 C 0.02187 0.90588 0.07671 0.0
C637 C 0.02551 0.91727 0.19113 0.0
C638 C 0.00781 0.9059 0.20997 0.0
H639 H 0.04552 0.92695 0.11283 0.0
H640 H 0.0335 0.92716 0.22631 0.0
S641 S 0.97718 0.87046 0.10248 0.0
N642 N -0.00533 0.8807 0.05293 0.0
N643 N 0.98169 0.8807 0.17593 0.0
C644 C -0.00184 0.89317 0.16241 0.0
C645 C 0.00516 0.8932 0.09577 0.0
C646 C 0.31987 0.77308 0.45735 0.0
C647 C 0.33012 0.75466 0.47595 0.0
C648 C 0.31894 0.7793 0.39115 0.0
C649 C 0.32822 0.76731 0.34129 0.0
H650 H 0.31153 0.78222 0.49355 0.0
H651 H 0.31017 0.7931 0.37877 0.0
S652 S 0.36009 0.71984 0.36555 0.0
N653 N 0.35199 0.72602 0.44028 0.0
N654 N 0.3503 0.73767 0.31598 0.0
C655 C 0.33978 0.74969 0.35983 0.0
C656 C 0.34074 0.74339 0.42714 0.0
C657 C 0.45713 0.07366 0.69156 0.0
C658 C 0.47542 0.08416 0.71017 0.0
C659 C 0.45123 0.07202 0.62512 0.0
C660 C 0.46338 0.08085 0.57504 0.0
H661 H 0.44792 0.06559 0.72804 0.0
H662 H 0.43753 0.06303 0.61286 0.0
S663 S 0.51057 0.11321 0.59903 0.0
N664 N 0.5041 0.10582 0.67416 0.0
N665 N 0.49301 0.10287 0.54933 0.0
C666 C 0.48083 0.09274 0.59347 0.0
C667 C 0.48683 0.09438 0.66104 0.0
C668 C 0.15302 0.74988 0.60426 0.0
C669 C 0.16222 0.7688 0.62312 0.0
C670 C 0.15178 0.74393 0.53802 0.0
C671 C 0.1597 0.75663 0.48769 0.0
H672 H 0.14715 0.73923 0.64105 0.0
H673 H 0.14524 0.72884 0.52658 0.0
S674 S 0.18358 0.8087 0.51042 0.0
N675 N 0.17799 0.801 0.58597 0.0
N676 N 0.17576 0.78982 0.461 0.0
C677 C 0.16793 0.77616 0.50548 0.0
C678 C 0.16921 0.78222 0.57329 0.0
C679 C 0.45457 0.91322 0.83247 0.0
C680 C 0.46705 0.90465 0.8825 0.0
C681 C 0.46059 0.91219 0.76615 0.0
C682 C 0.47931 0.90256 0.74765 0.0
H683 H 0.44049 0.92155 0.84474 0.0
H684 H 0.45106 0.92003 0.72976 0.0
S685 S 0.5156 0.87447 0.85853 0.0
N686 N 0.49758 0.88379 0.90812 0.0
N687 N 0.50888 0.88197 0.78356 0.0
C688 C 0.49113 0.8926 0.79665 0.0
C689 C 0.48501 0.89363 0.86408 0.0
C690 C 0.31078 0.21322 0.01488 0.0
C691 C 0.32328 0.23 -0.00529 0.0
C692 C 0.31083 0.20641 0.08053 0.0
C693 C 0.32334 0.21619 0.12826 0.0
H694 H 0.30003 0.20595 0.98067 0.0
H695 H 0.30028 0.19411 0.0945 0.0
S696 S 0.36179 0.25804 0.09849 0.0
N697 N 0.35062 0.25421 0.02599 0.0
N698 N 0.35068 0.24146 0.14931 0.0
C699 C 0.33707 0.23187 0.10777 0.0
C700 C 0.33707 0.23875 0.04098 0.0
C701 C 0.03238 0.06539 0.33502 0.0
C702 C 0.02169 0.07641 0.38417 0.0
C703 C 0.02555 0.06569 0.26926 0.0
C704 C 0.00781 0.07708 0.25035 0.0
H705 H 0.04556 0.05575 0.34778 0.0
H706 H 0.03367 0.05609 0.23379 0.0
S707 S 0.97663 0.11149 0.35887 0.0
N708 N -0.00584 0.10112 0.40842 0.0
N709 N 0.98137 0.10176 0.28499 0.0
C710 C -0.00205 0.08938 0.29836 0.0
C711 C 0.00485 0.089 0.36525 0.0
C712 C 0.83253 0.74405 0.044 0.0
C713 C 0.82304 0.75582 -0.00611 0.0
C714 C 0.83264 0.75085 0.10947 0.0
C715 C 0.82336 0.76976 0.12775 0.0
H716 H 0.83916 0.72896 0.03339 0.0
H717 H 0.8396 0.74083 0.14631 0.0
S718 S 0.79895 0.80786 0.0144 0.0
N719 N 0.80593 0.78842 0.96606 0.0
N720 N 0.80624 0.80121 0.0897 0.0
C721 C 0.81498 0.78238 0.07778 0.0
C722 C 0.81481 0.77541 0.01074 0.0
C723 C 0.95817 0.06456 0.83483 0.0
C724 C 0.96829 0.07672 0.88273 0.0
C725 C 0.96514 0.06415 0.76941 0.0
C726 C 0.98245 0.07596 0.74962 0.0
H727 H 0.94538 0.05455 0.84847 0.0
H728 H 0.95751 0.05371 0.73507 0.0
S729 S 0.0119 0.11324 0.85414 0.0
N730 N -0.0053 0.1029 0.90445 0.0
N731 N 0.00776 0.10223 0.7816 0.0
C732 C 0.99168 0.08938 0.79612 0.0
C733 C 0.98463 0.08971 0.86267 0.0
C734 C 0.66815 0.21055 0.5114 0.0
C735 C 0.65774 0.22894 0.49329 0.0
C736 C 0.66884 0.20398 0.57726 0.0
C737 C 0.65918 0.21556 0.62731 0.0
H738 H 0.67672 0.20168 0.47511 0.0
H739 H 0.67771 0.1902 0.58927 0.0
S740 S 0.6269 0.26281 0.60429 0.0
N741 N 0.63539 0.25714 0.5296 0.0
N742 N 0.63667 0.24482 0.65327 0.0
C743 C 0.64752 0.23316 0.60924 0.0
C744 C 0.64679 0.23983 0.54225 0.0
C745 C 0.52355 0.921 0.26944 0.0
C746 C 0.50747 0.90781 0.24767 0.0
C747 C 0.53006 0.92106 0.33547 0.0
C748 C 0.5207 0.90795 0.382 0.0
H749 H 0.53044 0.93219 0.23623 0.0
H750 H 0.54182 0.93212 0.3506 0.0
S751 S 0.48066 0.86783 0.34777 0.0
N752 N 0.48433 0.87936 0.27607 0.0
N753 N 0.49654 0.87947 0.40016 0.0
C754 C 0.50573 0.89359 0.3599 0.0
C755 C 0.49914 0.89351 0.2927 0.0
C756 C 0.83554 0.23438 0.35266 0.0
C757 C 0.82714 0.21501 0.33468 0.0
C758 C 0.83654 0.24067 0.41861 0.0
C759 C 0.82911 0.22789 0.46953 0.0
H760 H 0.8409 0.24514 0.31536 0.0
H761 H 0.84237 0.2561 0.42922 0.0
S762 S 0.80805 0.1745 0.44932 0.0
N763 N 0.8131 0.1822 0.37336 0.0
N764 N 0.81489 0.19399 0.49783 0.0
C765 C 0.82186 0.20789 0.45265 0.0
C766 C 0.82085 0.20149 0.38513 0.0
C767 C 0.52061 0.06683 0.18909 0.0
C768 C 0.50376 0.07895 0.21077 0.0
C769 C 0.52715 0.06743 0.12329 0.0
C770 C 0.51708 0.08017 0.07694 0.0
H771 H 0.52813 0.05595 0.22214 0.0
H772 H 0.53957 0.05715 0.10815 0.0
S773 S 0.47472 0.11771 0.11144 0.0
N774 N 0.479 0.10609 0.18276 0.0
N775 N 0.4913 0.10725 0.05912 0.0
C776 C 0.50127 0.09352 0.0991 0.0
C777 C 0.49462 0.09291 0.16604 0.0
C778 C 0.64996 0.74398 0.91761 0.0
C779 C 0.65857 0.75577 0.96942 0.0
C780 C 0.65031 0.75113 0.85256 0.0
C781 C 0.65924 0.7704 0.83649 0.0
H782 H 0.64371 0.72864 0.9266 0.0
H783 H 0.64408 0.74109 0.81433 0.0
S784 S 0.68106 0.80871 0.9549 0.0
N785 N 0.67422 0.78881 0.00116 0.0
N786 N 0.67485 0.80219 0.87845 0.0
C787 C 0.66665 0.78301 0.88816 0.0
C788 C 0.6663 0.77572 0.9547 0.0
C789 C 0.98613 0.89909 0.5947 0.0
C790 C 0.96744 0.90883 0.57652 0.0
C791 C -0.00693 0.89915 0.66009 0.0
C792 C 0.98165 0.90903 0.71018 0.0
H793 H -0.00411 0.89182 0.55783 0.0
H794 H 0.00798 0.8921 0.67069 0.0
S795 S 0.93022 0.9344 0.68991 0.0
N796 N 0.93653 0.92681 0.6147 0.0
N797 N 0.94956 0.92701 0.7381 0.0
C798 C 0.96224 0.91771 0.69344 0.0
C799 C 0.95515 0.91761 0.62651 0.0
C800 C 0.65023 0.74291 0.41808 0.0
C801 C 0.65839 0.73076 0.46961 0.0
C802 C 0.6504 0.73585 0.35283 0.0
C803 C 0.65869 0.71632 0.33625 0.0
H804 H 0.64447 0.75843 0.42749 0.0
H805 H 0.64453 0.74614 0.31486 0.0
S806 S 0.67916 0.67714 0.45364 0.0
N807 N 0.67294 0.6972 0.50046 0.0
N808 N 0.67323 0.68397 0.37734 0.0
C809 C 0.66565 0.7034 0.38758 0.0
C810 C 0.66548 0.7106 0.45435 0.0
C811 C 0.52524 0.41179 0.6973 0.0
C812 C 0.50719 0.40088 0.71527 0.0
C813 C 0.53142 0.4131 0.63124 0.0
C814 C 0.51983 0.40346 0.58087 0.0
H815 H 0.53407 0.42036 0.73392 0.0
H816 H 0.54493 0.42236 0.61946 0.0
S817 S 0.4733 0.37014 0.60349 0.0
N818 N 0.47922 0.37826 0.67859 0.0
N819 N 0.49085 0.38051 0.55445 0.0
C820 C 0.50258 0.39128 0.59878 0.0
C821 C 0.49627 0.39003 0.66599 0.0
C822 C 0.83561 0.25249 0.85508 0.0
C823 C 0.8247 0.27035 0.83542 0.0
C824 C 0.83558 0.24586 0.92063 0.0
C825 C 0.82454 0.25676 0.96943 0.0
H826 H 0.84383 0.2431 0.81922 0.0
H827 H 0.84358 0.23153 0.93232 0.0
S828 S 0.79575 0.30619 0.94522 0.0
N829 N 0.80433 0.30011 0.87094 0.0
N830 N 0.80414 0.28764 -0.0053 0.0
C831 C 0.81467 0.27546 0.95133 0.0
C832 C 0.81475 0.28225 0.88421 0.0
C833 C 0.95995 0.57741 0.20128 0.0
C834 C 0.97845 0.58749 0.22 0.0
C835 C 0.95424 0.57558 0.13472 0.0
C836 C 0.96682 0.5838 0.08462 0.0
H837 H 0.9504 0.56977 0.23783 0.0
H838 H 0.94034 0.56691 0.12243 0.0
S839 S 0.01481 0.61494 0.10869 0.0
N840 N 0.00786 0.60815 0.18396 0.0
N841 N -0.00285 0.60484 0.05888 0.0
C842 C 0.98452 0.5953 0.10307 0.0
C843 C 0.99032 0.59713 0.17078 0.0
C844 C 0.67099 0.27877 0.07884 0.0
C845 C 0.65871 0.2688 0.1263 0.0
C846 C 0.67139 0.27175 0.01339 0.0
C847 C 0.65949 0.25451 -0.00695 0.0
H848 H 0.6811 0.29149 0.09285 0.0
H849 H 0.68193 0.27928 0.9795 0.0
S850 S 0.62186 0.22545 0.09599 0.0
N851 N 0.63227 0.24262 0.14685 0.0
N852 N 0.63299 0.22943 0.02386 0.0
C853 C 0.64594 0.24543 0.03898 0.0
C854 C 0.64557 0.25256 0.10563 0.0
C855 C 0.95129 0.41892 0.3342 0.0
C856 C 0.96334 0.40925 0.38327 0.0
C857 C 0.95712 0.418 0.26769 0.0
C858 C 0.9752 0.4074 0.24807 0.0
H859 H 0.93778 0.428 0.34743 0.0
H860 H 0.94803 0.42668 0.23209 0.0
S861 S 0.00989 0.37633 0.35595 0.0
N862 N 0.99257 0.38638 0.40664 0.0
N863 N 0.0035 0.38478 0.28172 0.0
C864 C 0.98646 0.39638 0.29602 0.0
C865 C 0.98055 0.39729 0.36364 0.0
C866 C 0.83204 0.73451 0.61119 0.0
C867 C 0.82315 0.71528 0.62777 0.0
C868 C 0.83293 0.74121 0.54579 0.0
C869 C 0.82485 0.72902 0.49404 0.0
H870 H 0.8379 0.74485 0.64922 0.0
H871 H 0.83913 0.75656 0.53641 0.0
S872 S 0.80243 0.67612 0.51018 0.0
N873 N 0.808 0.68315 0.58669 0.0
N874 N 0.80957 0.69575 0.46317 0.0
C875 C 0.81708 0.70915 0.5094 0.0
C876 C 0.81622 0.70229 0.57638 0.0
C877 C 0.52978 0.57165 0.84156 0.0
C878 C 0.51778 0.58135 0.89054 0.0
C879 C 0.52376 0.57224 0.77511 0.0
C880 C 0.50547 0.58249 0.75538 0.0
H881 H 0.54347 0.56281 0.8548 0.0
H882 H 0.53287 0.56356 0.73969 0.0
S883 S 0.47056 0.61334 0.86273 0.0
N884 N 0.48822 0.60382 0.91355 0.0
N885 N 0.47687 0.60473 0.78865 0.0
C886 C 0.49417 0.59351 0.80313 0.0
C887 C 0.50033 0.593 0.87074 0.0
C888 C 0.3318 0.24424 0.54604 0.0
C889 C 0.32435 0.25687 0.49458 0.0
C890 C 0.33105 0.25083 0.61168 0.0
C891 C 0.3229 0.27036 0.62875 0.0
H892 H 0.33739 0.22868 0.53621 0.0
H893 H 0.33637 0.24018 0.64945 0.0
S894 S 0.30418 0.31064 0.51217 0.0
N895 N 0.31058 0.29082 0.46459 0.0
N896 N 0.30924 0.30321 0.58853 0.0
C897 C 0.31664 0.28374 0.57769 0.0
C898 C 0.31738 0.27701 0.51049 0.0
C899 C 0.48271 0.58645 0.37296 0.0
C900 C 0.46373 0.57722 0.39038 0.0
C901 C 0.48886 0.58786 0.30708 0.0
C902 C 0.47624 0.58016 0.25579 0.0
H903 H 0.49332 0.59209 0.41058 0.0
H904 H 0.50401 0.59433 0.29668 0.0
S905 S 0.42376 0.55699 0.27464 0.0
N906 N 0.4314 0.56208 0.35088 0.0
N907 N 0.44288 0.56471 0.22658 0.0
C908 C 0.45658 0.57208 0.27217 0.0
C909 C 0.45037 0.57056 0.33958 0.0
C910 C 0.17494 0.70404 0.07597 0.0
C911 C 0.16178 0.71347 0.12231 0.0
C912 C 0.17496 0.71047 0.00994 0.0
C913 C 0.1618 0.72654 -0.01196 0.0
H914 H 0.18602 0.69234 0.09134 0.0
H915 H 0.18623 0.70359 0.97691 0.0
S916 S 0.1215 0.75323 0.08742 0.0
N917 N 0.13315 0.73748 0.13998 0.0
N918 N 0.13318 0.74954 0.01595 0.0
C919 C 0.14737 0.73484 0.0328 0.0
C920 C 0.14739 0.72833 0.09996 0.0
C921 C 0.02136 0.42272 0.76944 0.0
C922 C 0.00485 0.41003 0.74788 0.0
C923 C 0.02738 0.4232 0.83591 0.0
C924 C 0.01712 0.41102 0.88307 0.0
H925 H 0.02893 0.43327 0.73564 0.0
H926 H 0.03952 0.43388 0.85076 0.0
S927 S 0.97556 0.37238 0.84997 0.0
N928 N 0.98027 0.38296 0.77742 0.0
N929 N 0.99158 0.38385 0.90232 0.0
C930 C 0.00169 0.3971 0.86133 0.0
C931 C -0.00442 0.39659 0.79371 0.0
C932 C 0.3142 0.71058 0.95502 0.0
C933 C 0.3269 0.72708 0.97655 0.0
C934 C 0.31437 0.70394 0.88915 0.0
C935 C 0.32723 0.71358 0.84253 0.0
H936 H 0.30319 0.70343 -0.01175 0.0
H937 H 0.30365 0.69184 0.87417 0.0
S938 S 0.36621 0.75476 0.87621 0.0
N939 N 0.35474 0.75092 0.94787 0.0
N940 N 0.35504 0.73846 0.82409 0.0
C941 C 0.34115 0.72897 0.86444 0.0
C942 C 0.34102 0.7357 0.93148 0.0
C943 C 0.02404 0.5684 0.69849 0.0
C944 C 0.00755 0.58092 0.72063 0.0
C945 C 0.03039 0.56881 0.63247 0.0
C946 C 0.02047 0.58177 0.58641 0.0
H947 H 0.03137 0.55733 0.73135 0.0
H948 H 0.0425 0.55823 0.61696 0.0
S949 S 0.97916 0.62036 0.6222 0.0
N950 N 0.98338 0.60864 0.69339 0.0
N951 N -0.00468 0.60949 0.56937 0.0
C952 C 0.00507 0.59552 0.60904 0.0
C953 C -0.00138 0.59509 0.67618 0.0
C954 C 0.1485 0.25718 0.35357 0.0
C955 C 0.1578 0.27614 0.33607 0.0
C956 C 0.1482 0.25044 0.419 0.0
C957 C 0.15725 0.26233 0.46983 0.0
H958 H 0.14189 0.24707 0.31618 0.0
H959 H 0.1416 0.23532 0.42909 0.0
S960 S 0.18091 0.31463 0.4514 0.0
N961 N 0.17427 0.30781 0.37555 0.0
N962 N 0.17378 0.29516 0.49909 0.0
C963 C 0.16537 0.28201 0.45371 0.0
C964 C 0.16566 0.28889 0.38671 0.0
C965 C 0.46113 0.41013 0.1969 0.0
C966 C 0.47965 0.40021 0.21618 0.0
C967 C 0.45495 0.41065 0.13059 0.0
C968 C 0.467 0.40119 0.08128 0.0
H969 H 0.45191 0.41859 0.23259 0.0
H970 H 0.44105 0.41922 0.11776 0.0
S971 S 0.51493 0.37014 0.1078 0.0
N972 N 0.50861 0.37857 0.18208 0.0
N973 N 0.49696 0.37934 0.05745 0.0
C974 C 0.48473 0.38989 0.10061 0.0
C975 C 0.49106 0.38945 0.16809 0.0
C976 C 0.09025 0.33393 0.11446 0.0
C977 C 0.1114 0.33927 0.11311 0.0
C978 C 0.07482 0.34919 0.11601 0.0
C979 C 0.07989 0.37045 0.11613 0.0
H980 H 0.0855 0.3178 0.11451 0.0
H981 H 0.05876 0.34423 0.11637 0.0
S982 S 0.13302 0.39275 0.11393 0.0
N983 N 0.13667 0.3674 0.11276 0.0
N984 N 0.10764 0.39608 0.11556 0.0
C985 C 0.10099 0.37605 0.11525 0.0
C986 C 0.11674 0.36048 0.11369 0.0
C987 C 0.89328 0.82655 0.35113 0.0
C988 C 0.87213 0.83199 0.35187 0.0
C989 C 0.90881 0.84177 0.34975 0.0
C990 C 0.90381 0.86304 0.34903 0.0
H991 H 0.89794 0.81039 0.35137 0.0
H992 H 0.92486 0.83678 0.34969 0.0
S993 S 0.85073 0.88556 0.3501 0.0
N994 N 0.847 0.86023 0.35156 0.0
N995 N 0.87612 0.88876 0.34883 0.0
C996 C 0.88271 0.86871 0.34954 0.0
C997 C 0.86691 0.85322 0.35106 0.0
C998 C 0.36604 0.6308 0.61449 0.0
C999 C 0.37133 0.65199 0.61429 0.0
C1000 C 0.38134 0.61536 0.61686 0.0
C1001 C 0.40256 0.62049 0.61948 0.0
H1002 H 0.34992 0.62603 0.613 0.0
H1003 H 0.37647 0.59926 0.61635 0.0
S1004 S 0.4247 0.67376 0.62054 0.0
N1005 N 0.39937 0.67732 0.61706 0.0
N1006 N 0.42807 0.64838 0.62189 0.0
C1007 C 0.40808 0.64165 0.61956 0.0
C1008 C 0.3925 0.65736 0.61676 0.0
C1009 C 0.61557 0.13312 0.8474 0.0
C1010 C 0.61098 0.15448 0.8475 0.0
C1011 C 0.59978 0.1182 0.84607 0.0
C1012 C 0.57875 0.12402 0.84461 0.0
H1013 H 0.63151 0.12779 0.84841 0.0
H1014 H 0.60417 0.10197 0.84673 0.0
S1015 S 0.55837 0.17797 0.84308 0.0
N1016 N 0.58382 0.18073 0.84523 0.0
N1017 N 0.55414 0.15271 0.8426 0.0
C1018 C 0.57391 0.14534 0.84414 0.0
C1019 C 0.59001 0.16055 0.84572 0.0
C1020 C 0.1031 0.61896 0.35222 0.0
C1021 C 0.0821 0.62489 0.3527 0.0
C1022 C 0.11897 0.6338 0.35207 0.0
C1023 C 0.11448 0.65518 0.35262 0.0
H1024 H 0.10739 0.6027 0.35226 0.0
H1025 H 0.13489 0.62842 0.35136 0.0
S1026 S 0.06195 0.67894 0.354 0.0
N1027 N 0.05762 0.6537 0.35362 0.0
N1028 N 0.08742 0.68156 0.35355 0.0
C1029 C 0.09353 0.66136 0.35313 0.0
C1030 C 0.07735 0.64623 0.35301 0.0
C1031 C 0.59392 0.8302 0.6138 0.0
C1032 C 0.61511 0.83532 0.61157 0.0
C1033 C 0.57864 0.84562 0.61535 0.0
C1034 C 0.58389 0.86682 0.61453 0.0
H1035 H 0.58901 0.81412 0.61472 0.0
H1036 H 0.56254 0.84079 0.61656 0.0
S1037 S 0.63721 0.88859 0.60909 0.0
N1038 N 0.64063 0.8632 0.60892 0.0
N1039 N 0.61187 0.89218 0.61164 0.0
C1040 C 0.60504 0.87221 0.61252 0.0
C1041 C 0.62064 0.85648 0.61102 0.0
C1042 C 0.40619 0.34191 0.84801 0.0
C1043 C 0.40159 0.36327 0.84882 0.0
C1044 C 0.39042 0.32698 0.85008 0.0
C1045 C 0.3694 0.33278 0.85287 0.0
H1046 H 0.42213 0.3366 0.84652 0.0
H1047 H 0.39481 0.31075 0.84919 0.0
S1048 S 0.34899 0.38673 0.85518 0.0
N1049 N 0.37442 0.3895 0.85201 0.0
N1050 N 0.34479 0.36146 0.85578 0.0
C1051 C 0.36455 0.3541 0.85332 0.0
C1052 C 0.38063 0.36933 0.85125 0.0
C1053 C 0.8701 0.13473 0.10447 0.0
C1054 C 0.87509 0.15599 0.10499 0.0
C1055 C 0.88557 0.11952 0.10525 0.0
C1056 C 0.90672 0.12489 0.10663 0.0
H1057 H 0.85406 0.12969 0.10383 0.0
H1058 H 0.88082 0.10339 0.1046 0.0
S1059 S 0.92818 0.1784 0.10816 0.0
N1060 N 0.90278 0.18169 0.10677 0.0
N1061 N 0.93192 0.15305 0.10816 0.0
C1062 C 0.912 0.1461 0.10703 0.0
C1063 C 0.89619 0.16165 0.10614 0.0
C1064 C 0.86848 0.63454 0.85539 0.0
C1065 C 0.87321 0.65583 0.852 0.0
C1066 C 0.88414 0.61951 0.85532 0.0
C1067 C 0.90519 0.62511 0.85173 0.0
H1068 H 0.85252 0.62934 0.85822 0.0
H1069 H 0.87962 0.60335 0.85865 0.0
S1070 S 0.92593 0.67879 0.84045 0.0
N1071 N 0.90052 0.68179 0.84386 0.0
N1072 N 0.92999 0.65351 0.8437 0.0
C1073 C 0.91019 0.64635 0.84773 0.0
C1074 C 0.8942 0.66171 0.84796 0.0
C1075 C 0.11742 0.13796 0.60544 0.0
C1076 C 0.1113 0.15893 0.60547 0.0
C1077 C 0.10278 0.12194 0.60637 0.0
C1078 C 0.08137 0.12617 0.60745 0.0
H1079 H 0.1337 0.13379 0.60511 0.0
H1080 H 0.10837 0.10608 0.60613 0.0
S1081 S 0.05709 0.17847 0.60749 0.0
N1082 N 0.08228 0.18311 0.60631 0.0
N1083 N 0.05472 0.15296 0.60803 0.0
C1084 C 0.07497 0.14708 0.6073 0.0
C1085 C 0.08993 0.16345 0.60622 0.0
C1086 C 0.60395 0.36777 0.35202 0.0
C1087 C 0.58277 0.36249 0.35218 0.0
C1088 C 0.61938 0.35244 0.35349 0.0
C1089 C 0.61425 0.33121 0.3556 0.0
H1090 H 0.60872 0.3839 0.35081 0.0
H1091 H 0.63546 0.35732 0.35268 0.0
S1092 S 0.561 0.3091 0.35809 0.0
N1093 N 0.55745 0.33445 0.35525 0.0
N1094 N 0.58638 0.30571 0.3584 0.0
C1095 C 0.59311 0.3257 0.35622 0.0
C1096 C 0.5774 0.34131 0.35431 0.0
C1097 C 0.3701 0.84902 0.11408 0.0
C1098 C 0.37523 0.8278 0.11444 0.0
C1099 C 0.38548 0.86431 0.11302 0.0
C1100 C 0.40665 0.85906 0.11237 0.0
H1101 H 0.35404 0.85397 0.11474 0.0
H1102 H 0.38063 0.88041 0.11245 0.0
S1103 S 0.42845 0.80569 0.11317 0.0
N1104 N 0.40307 0.80225 0.11425 0.0
N1105 N 0.43203 0.83106 0.11225 0.0
C1106 C 0.41208 0.83789 0.1129 0.0
C1107 C 0.39636 0.82225 0.11384 0.0
C1108 C 0.88294 0.36737 0.6091 0.0
C1109 C 0.90422 0.36255 0.61061 0.0
C1110 C 0.86787 0.35174 0.60824 0.0
C1111 C 0.87345 0.33063 0.60878 0.0
H1112 H 0.87778 0.38337 0.60826 0.0
H1113 H 0.8517 0.35633 0.60737 0.0
S1114 S 0.92711 0.30964 0.61278 0.0
N1115 N 0.93016 0.33508 0.6127 0.0
N1116 N 0.90181 0.30568 0.61108 0.0
C1117 C 0.89469 0.32554 0.6103 0.0
C1118 C 0.91007 0.34149 0.6113 0.0
C1119 C 0.3658 0.13407 0.35234 0.0
C1120 C 0.37107 0.15525 0.35022 0.0
C1121 C 0.38106 0.11864 0.35046 0.0
C1122 C 0.40224 0.12372 0.34621 0.0
H1123 H 0.34972 0.12929 0.35549 0.0
H1124 H 0.37615 0.10257 0.35287 0.0
S1125 S 0.42433 0.17691 0.33791 0.0
N1126 N 0.39903 0.18055 0.34274 0.0
N1127 N 0.42773 0.15152 0.33911 0.0
C1128 C 0.40777 0.14485 0.34354 0.0
C1129 C 0.3922 0.16061 0.34567 0.0
C1130 C 0.59164 0.65724 0.11889 0.0
C1131 C 0.61279 0.65196 0.11567 0.0
C1132 C 0.57626 0.64192 0.12232 0.0
C1133 C 0.58139 0.62068 0.12248 0.0
H1134 H 0.58685 0.67336 0.11904 0.0
H1135 H 0.56019 0.64684 0.12398 0.0
S1136 S 0.63455 0.59854 0.11572 0.0
N1137 N 0.6381 0.6239 0.11357 0.0
N1138 N 0.60921 0.59515 0.1199 0.0
C1139 C 0.6025 0.61516 0.11974 0.0
C1140 C 0.61818 0.63077 0.11628 0.0
C1141 C 0.10385 0.86457 0.84993 0.0
C1142 C 0.08264 0.85944 0.8489 0.0
C1143 C 0.11915 0.84918 0.8507 0.0
C1144 C 0.11391 0.82798 0.85051 0.0
H1145 H 0.10878 0.88065 0.85045 0.0
H1146 H 0.13524 0.85404 0.85118 0.0
S1147 S 0.06057 0.80617 0.84808 0.0
N1148 N 0.05712 0.83157 0.84784 0.0
N1149 N 0.08593 0.8026 0.84922 0.0
C1150 C 0.09275 0.82256 0.84951 0.0
C1151 C 0.07711 0.83829 0.84862 0.0
loop_
_geom_bond_atom_site_label_1
_geom_bond_atom_site_label_2
_geom_bond_distance
_geom_bond_site_symmetry_2
_ccdc_geom_bond_type
C0 O1 1.306 . S
C0 O3 1.160 . S
O1 C0 1.306 . S
O1 Cd2 2.228 1_556 S
Cd2 O1 2.228 1_554 S
Cd2 O6 2.273 . S
Cd2 O10 2.277 . S
O3 C0 1.160 . S
O3 Cd4 2.203 1_556 S
Cd4 O3 2.203 1_554 S
Cd4 O6 2.411 . S
Cd4 O7 2.333 . S
Cd4 O8 2.352 . S
Cd4 O12 2.277 . S
Cd4 O13 2.356 . S
C5 O10 1.209 . S
C5 O12 1.226 . S
O6 Cd2 2.273 . S
O6 Cd4 2.411 . S
O6 C9 1.320 . S
O7 Cd4 2.333 . S
O7 C9 1.214 . S
O8 Cd4 2.352 . S
O8 C11 1.258 . S
C9 O6 1.320 . S
C9 O7 1.214 . S
O10 Cd2 2.277 . S
O10 C5 1.209 . S
C11 O8 1.258 . S
C11 O13 1.282 . S
O12 Cd4 2.277 . S
O12 C5 1.226 . S
O13 Cd4 2.356 . S
O13 C11 1.282 . S
C14 O15 1.335 . S
C14 O17 1.160 . S
O15 C14 1.335 . S
O15 Cd16 2.217 1_655 S
Cd16 O15 2.217 1_455 S
Cd16 O20 2.273 1_455 S
Cd16 O24 2.277 1_455 S
O17 C14 1.160 . S
O17 Cd18 2.203 . S
Cd18 O17 2.203 . S
Cd18 O20 2.411 . S
Cd18 O21 2.333 . S
Cd18 O22 2.352 . S
Cd18 O26 2.277 . S
Cd18 O27 2.356 . S
C19 O24 1.209 . S
C19 O26 1.226 . S
O20 Cd16 2.273 1_655 S
O20 Cd18 2.411 . S
O20 C23 1.320 . S
O21 Cd18 2.333 . S
O21 C23 1.214 . S
O22 Cd18 2.352 . S
O22 C25 1.258 . S
C23 O20 1.320 . S
C23 O21 1.214 . S
O24 Cd16 2.277 1_655 S
O24 C19 1.209 . S
C25 O22 1.258 . S
C25 O27 1.282 . S
O26 Cd18 2.277 . S
O26 C19 1.226 . S
O27 Cd18 2.356 . S
O27 C25 1.282 . S
C28 O29 1.306 . S
C28 O31 1.160 . S
O29 C28 1.306 . S
O29 Cd30 2.228 . S
Cd30 O29 2.228 . S
Cd30 O34 2.273 . S
Cd30 O38 2.277 . S
O31 C28 1.160 . S
O31 Cd32 2.203 . S
Cd32 O31 2.203 . S
Cd32 O34 2.411 . S
Cd32 O35 2.333 . S
Cd32 O36 2.352 . S
Cd32 O40 2.277 . S
Cd32 O41 2.356 . S
C33 O38 1.209 . S
C33 O40 1.226 . S
O34 Cd30 2.273 . S
O34 Cd32 2.411 . S
O34 C37 1.320 . S
O35 Cd32 2.333 . S
O35 C37 1.214 . S
O36 Cd32 2.352 . S
O36 C39 1.258 . S
C37 O34 1.320 . S
C37 O35 1.214 . S
O38 Cd30 2.277 . S
O38 C33 1.209 . S
C39 O36 1.258 . S
C39 O41 1.282 . S
O40 Cd32 2.277 . S
O40 C33 1.226 . S
O41 Cd32 2.356 . S
O41 C39 1.282 . S
C42 O43 1.306 . S
C42 O45 1.160 . S
O43 C42 1.306 . S
O43 Cd44 2.228 . S
Cd44 O43 2.228 . S
Cd44 O48 2.273 . S
Cd44 O52 2.277 . S
O45 C42 1.160 . S
O45 Cd46 2.203 . S
Cd46 O45 2.203 . S
Cd46 O48 2.411 . S
Cd46 O49 2.333 . S
Cd46 O50 2.352 . S
Cd46 O54 2.277 . S
Cd46 O55 2.356 . S
C47 O52 1.209 . S
C47 O54 1.226 . S
O48 Cd44 2.273 . S
O48 Cd46 2.411 . S
O48 C51 1.320 . S
O49 Cd46 2.333 . S
O49 C51 1.214 . S
O50 Cd46 2.352 . S
O50 C53 1.258 . S
C51 O48 1.320 . S
C51 O49 1.214 . S
O52 Cd44 2.277 . S
O52 C47 1.209 . S
C53 O50 1.258 . S
C53 O55 1.282 . S
O54 Cd46 2.277 . S
O54 C47 1.226 . S
O55 Cd46 2.356 . S
O55 C53 1.282 . S
C56 O57 1.306 . S
C56 O59 1.160 . S
O57 C56 1.306 . S
O57 Cd58 2.228 . S
Cd58 O57 2.228 . S
Cd58 O62 2.273 . S
Cd58 O66 2.277 . S
O59 C56 1.160 . S
O59 Cd60 2.203 . S
Cd60 O59 2.203 . S
Cd60 O62 2.411 . S
Cd60 O63 2.333 . S
Cd60 O64 2.352 . S
Cd60 O68 2.277 . S
Cd60 O69 2.356 . S
C61 O66 1.209 . S
C61 O68 1.226 . S
O62 Cd58 2.273 . S
O62 Cd60 2.411 . S
O62 C65 1.320 . S
O63 Cd60 2.333 . S
O63 C65 1.214 . S
O64 Cd60 2.352 . S
O64 C67 1.258 . S
C65 O62 1.320 . S
C65 O63 1.214 . S
O66 Cd58 2.277 . S
O66 C61 1.209 . S
C67 O64 1.258 . S
C67 O69 1.282 . S
O68 Cd60 2.277 . S
O68 C61 1.226 . S
O69 Cd60 2.356 . S
O69 C67 1.282 . S
C70 O71 1.306 . S
C70 O73 1.160 . S
O71 C70 1.306 . S
O71 Cd72 2.228 . S
Cd72 O71 2.228 . S
Cd72 O76 2.273 . S
Cd72 O80 2.277 . S
O73 C70 1.160 . S
O73 Cd74 2.203 . S
Cd74 O73 2.203 . S
Cd74 O76 2.411 . S
Cd74 O77 2.333 . S
Cd74 O78 2.352 . S
Cd74 O82 2.277 . S
Cd74 O83 2.356 . S
C75 O80 1.209 . S
C75 O82 1.226 . S
O76 Cd72 2.273 . S
O76 Cd74 2.411 . S
O76 C79 1.320 . S
O77 Cd74 2.333 . S
O77 C79 1.214 . S
O78 Cd74 2.352 . S
O78 C81 1.258 . S
C79 O76 1.320 . S
C79 O77 1.214 . S
O80 Cd72 2.277 . S
O80 C75 1.209 . S
C81 O78 1.258 . S
C81 O83 1.282 . S
O82 Cd74 2.277 . S
O82 C75 1.226 . S
O83 Cd74 2.356 . S
O83 C81 1.282 . S
C84 O85 1.306 . S
C84 O87 1.160 . S
O85 C84 1.306 . S
O85 Cd86 2.228 1_554 S
Cd86 O85 2.228 1_556 S
Cd86 O90 2.273 . S
Cd86 O94 2.277 . S
O87 C84 1.160 . S
O87 Cd88 2.203 1_554 S
Cd88 O87 2.203 1_556 S
Cd88 O90 2.411 . S
Cd88 O91 2.333 . S
Cd88 O92 2.352 . S
Cd88 O96 2.277 . S
Cd88 O97 2.356 . S
C89 O94 1.209 . S
C89 O96 1.226 . S
O90 Cd86 2.273 . S
O90 Cd88 2.411 . S
O90 C93 1.320 . S
O91 Cd88 2.333 . S
O91 C93 1.214 . S
O92 Cd88 2.352 . S
O92 C95 1.258 . S
C93 O90 1.320 . S
C93 O91 1.214 . S
O94 Cd86 2.277 . S
O94 C89 1.209 . S
C95 O92 1.258 . S
C95 O97 1.282 . S
O96 Cd88 2.277 . S
O96 C89 1.226 . S
O97 Cd88 2.356 . S
O97 C95 1.282 . S
C98 O99 1.335 . S
C98 O101 1.160 . S
O99 C98 1.335 . S
O99 Cd100 2.217 1_655 S
Cd100 O99 2.217 1_455 S
Cd100 O104 2.273 1_455 S
Cd100 O108 2.277 1_455 S
O101 C98 1.160 . S
O101 Cd102 2.203 . S
Cd102 O101 2.203 . S
Cd102 O104 2.411 . S
Cd102 O105 2.333 . S
Cd102 O106 2.352 . S
Cd102 O110 2.277 . S
Cd102 O111 2.356 . S
C103 O108 1.209 . S
C103 O110 1.226 . S
O104 Cd100 2.273 1_655 S
O104 Cd102 2.411 . S
O104 C107 1.320 . S
O105 Cd102 2.333 . S
O105 C107 1.214 . S
O106 Cd102 2.352 . S
O106 C109 1.258 . S
C107 O104 1.320 . S
C107 O105 1.214 . S
O108 Cd100 2.277 1_655 S
O108 C103 1.209 . S
C109 O106 1.258 . S
C109 O111 1.282 . S
O110 Cd102 2.277 . S
O110 C103 1.226 . S
O111 Cd102 2.356 . S
O111 C109 1.282 . S
C112 O113 1.306 . S
C112 O115 1.160 . S
O113 C112 1.306 . S
O113 Cd114 2.228 1_554 S
Cd114 O113 2.228 1_556 S
Cd114 O118 2.273 . S
Cd114 O122 2.277 . S
O115 C112 1.160 . S
O115 Cd116 2.203 1_554 S
Cd116 O115 2.203 1_556 S
Cd116 O118 2.411 . S
Cd116 O119 2.333 . S
Cd116 O120 2.352 . S
Cd116 O124 2.277 . S
Cd116 O125 2.356 . S
C117 O122 1.209 . S
C117 O124 1.226 . S
O118 Cd114 2.273 . S
O118 Cd116 2.411 . S
O118 C121 1.320 . S
O119 Cd116 2.333 . S
O119 C121 1.214 . S
O120 Cd116 2.352 . S
O120 C123 1.258 . S
C121 O118 1.320 . S
C121 O119 1.214 . S
O122 Cd114 2.277 . S
O122 C117 1.209 . S
C123 O120 1.258 . S
C123 O125 1.282 . S
O124 Cd116 2.277 . S
O124 C117 1.226 . S
O125 Cd116 2.356 . S
O125 C123 1.282 . S
C126 O127 1.335 . S
C126 O129 1.160 . S
O127 C126 1.335 . S
O127 Cd128 2.217 1_455 S
Cd128 O127 2.217 1_655 S
Cd128 O132 2.273 1_655 S
Cd128 O136 2.277 1_655 S
O129 C126 1.160 . S
O129 Cd130 2.203 . S
Cd130 O129 2.203 . S
Cd130 O132 2.411 . S
Cd130 O133 2.333 . S
Cd130 O134 2.352 . S
Cd130 O138 2.277 . S
Cd130 O139 2.356 . S
C131 O136 1.209 . S
C131 O138 1.226 . S
O132 Cd128 2.273 1_455 S
O132 Cd130 2.411 . S
O132 C135 1.320 . S
O133 Cd130 2.333 . S
O133 C135 1.214 . S
O134 Cd130 2.352 . S
O134 C137 1.258 . S
C135 O132 1.320 . S
C135 O133 1.214 . S
O136 Cd128 2.277 1_455 S
O136 C131 1.209 . S
C137 O134 1.258 . S
C137 O139 1.282 . S
O138 Cd130 2.277 . S
O138 C131 1.226 . S
O139 Cd130 2.356 . S
O139 C137 1.282 . S
C140 O141 1.306 . S
C140 O143 1.160 . S
O141 C140 1.306 . S
O141 Cd142 2.228 . S
Cd142 O141 2.228 . S
Cd142 O146 2.273 . S
Cd142 O150 2.277 . S
O143 C140 1.160 . S
O143 Cd144 2.203 . S
Cd144 O143 2.203 . S
Cd144 O146 2.411 . S
Cd144 O147 2.333 . S
Cd144 O148 2.352 . S
Cd144 O152 2.277 . S
Cd144 O153 2.356 . S
C145 O150 1.209 . S
C145 O152 1.226 . S
O146 Cd142 2.273 . S
O146 Cd144 2.411 . S
O146 C149 1.320 . S
O147 Cd144 2.333 . S
O147 C149 1.214 . S
O148 Cd144 2.352 . S
O148 C151 1.258 . S
C149 O146 1.320 . S
C149 O147 1.214 . S
O150 Cd142 2.277 . S
O150 C145 1.209 . S
C151 O148 1.258 . S
C151 O153 1.282 . S
O152 Cd144 2.277 . S
O152 C145 1.226 . S
O153 Cd144 2.356 . S
O153 C151 1.282 . S
C154 O155 1.306 . S
C154 O157 1.160 . S
O155 C154 1.306 . S
O155 Cd156 2.228 . S
Cd156 O155 2.228 . S
Cd156 O160 2.273 . S
Cd156 O164 2.277 . S
O157 C154 1.160 . S
O157 Cd158 2.203 . S
Cd158 O157 2.203 . S
Cd158 O160 2.411 . S
Cd158 O161 2.333 . S
Cd158 O162 2.352 . S
Cd158 O166 2.277 . S
Cd158 O167 2.356 . S
C159 O164 1.209 . S
C159 O166 1.226 . S
O160 Cd156 2.273 . S
O160 Cd158 2.411 . S
O160 C163 1.320 . S
O161 Cd158 2.333 . S
O161 C163 1.214 . S
O162 Cd158 2.352 . S
O162 C165 1.258 . S
C163 O160 1.320 . S
C163 O161 1.214 . S
O164 Cd156 2.277 . S
O164 C159 1.209 . S
C165 O162 1.258 . S
C165 O167 1.282 . S
O166 Cd158 2.277 . S
O166 C159 1.226 . S
O167 Cd158 2.356 . S
O167 C165 1.282 . S
C168 O169 1.306 . S
C168 O171 1.160 . S
O169 C168 1.306 . S
O169 Cd170 2.228 . S
Cd170 O169 2.228 . S
Cd170 O174 2.273 . S
Cd170 O178 2.277 . S
O171 C168 1.160 . S
O171 Cd172 2.203 . S
Cd172 O171 2.203 . S
Cd172 O174 2.411 . S
Cd172 O175 2.333 . S
Cd172 O176 2.352 . S
Cd172 O180 2.277 . S
Cd172 O181 2.356 . S
C173 O178 1.209 . S
C173 O180 1.226 . S
O174 Cd170 2.273 . S
O174 Cd172 2.411 . S
O174 C177 1.320 . S
O175 Cd172 2.333 . S
O175 C177 1.214 . S
O176 Cd172 2.352 . S
O176 C179 1.258 . S
C177 O174 1.320 . S
C177 O175 1.214 . S
O178 Cd170 2.277 . S
O178 C173 1.209 . S
C179 O176 1.258 . S
C179 O181 1.282 . S
O180 Cd172 2.277 . S
O180 C173 1.226 . S
O181 Cd172 2.356 . S
O181 C179 1.282 . S
C182 O183 1.306 . S
C182 O185 1.160 . S
O183 C182 1.306 . S
O183 Cd184 2.228 . S
Cd184 O183 2.228 . S
Cd184 O188 2.273 . S
Cd184 O192 2.277 . S
O185 C182 1.160 . S
O185 Cd186 2.203 . S
Cd186 O185 2.203 . S
Cd186 O188 2.411 . S
Cd186 O189 2.333 . S
Cd186 O190 2.352 . S
Cd186 O194 2.277 . S
Cd186 O195 2.356 . S
C187 O192 1.209 . S
C187 O194 1.226 . S
O188 Cd184 2.273 . S
O188 Cd186 2.411 . S
O188 C191 1.320 . S
O189 Cd186 2.333 . S
O189 C191 1.214 . S
O190 Cd186 2.352 . S
O190 C193 1.258 . S
C191 O188 1.320 . S
C191 O189 1.214 . S
O192 Cd184 2.277 . S
O192 C187 1.209 . S
C193 O190 1.258 . S
C193 O195 1.282 . S
O194 Cd186 2.277 . S
O194 C187 1.226 . S
O195 Cd186 2.356 . S
O195 C193 1.282 . S
C196 O197 1.306 . S
C196 O199 1.160 . S
O197 C196 1.306 . S
O197 Cd198 2.228 1_556 S
Cd198 O197 2.228 1_554 S
Cd198 O202 2.273 . S
Cd198 O206 2.277 . S
O199 C196 1.160 . S
O199 Cd200 2.203 1_556 S
Cd200 O199 2.203 1_554 S
Cd200 O202 2.411 . S
Cd200 O203 2.333 . S
Cd200 O204 2.352 . S
Cd200 O208 2.277 . S
Cd200 O209 2.356 . S
C201 O206 1.209 . S
C201 O208 1.226 . S
O202 Cd198 2.273 . S
O202 Cd200 2.411 . S
O202 C205 1.320 . S
O203 Cd200 2.333 . S
O203 C205 1.214 . S
O204 Cd200 2.352 . S
O204 C207 1.258 . S
C205 O202 1.320 . S
C205 O203 1.214 . S
O206 Cd198 2.277 . S
O206 C201 1.209 . S
C207 O204 1.258 . S
C207 O209 1.282 . S
O208 Cd200 2.277 . S
O208 C201 1.226 . S
O209 Cd200 2.356 . S
O209 C207 1.282 . S
C210 O211 1.335 . S
C210 O213 1.160 . S
O211 C210 1.335 . S
O211 Cd212 2.217 1_455 S
Cd212 O211 2.217 1_655 S
Cd212 O216 2.273 1_655 S
Cd212 O220 2.277 1_655 S
O213 C210 1.160 . S
O213 Cd214 2.203 . S
Cd214 O213 2.203 . S
Cd214 O216 2.411 . S
Cd214 O217 2.333 . S
Cd214 O218 2.352 . S
Cd214 O222 2.277 . S
Cd214 O223 2.356 . S
C215 O220 1.209 . S
C215 O222 1.226 . S
O216 Cd212 2.273 1_455 S
O216 Cd214 2.411 . S
O216 C219 1.320 . S
O217 Cd214 2.333 . S
O217 C219 1.214 . S
O218 Cd214 2.352 . S
O218 C221 1.258 . S
C219 O216 1.320 . S
C219 O217 1.214 . S
O220 Cd212 2.277 1_455 S
O220 C215 1.209 . S
C221 O218 1.258 . S
C221 O223 1.282 . S
O222 Cd214 2.277 . S
O222 C215 1.226 . S
O223 Cd214 2.356 . S
O223 C221 1.282 . S
C224 O225 1.306 . S
C224 O227 1.160 . S
O225 C224 1.306 . S
O225 Cd226 2.228 . S
Cd226 O225 2.228 . S
Cd226 O230 2.273 . S
Cd226 O234 2.277 . S
O227 C224 1.160 . S
O227 Cd228 2.203 . S
Cd228 O227 2.203 . S
Cd228 O230 2.411 . S
Cd228 O231 2.333 . S
Cd228 O232 2.352 . S
Cd228 O236 2.277 . S
Cd228 O237 2.356 . S
C229 O234 1.209 . S
C229 O236 1.226 . S
O230 Cd226 2.273 . S
O230 Cd228 2.411 . S
O230 C233 1.320 . S
O231 Cd228 2.333 . S
O231 C233 1.214 . S
O232 Cd228 2.352 . S
O232 C235 1.258 . S
C233 O230 1.320 . S
C233 O231 1.214 . S
O234 Cd226 2.277 . S
O234 C229 1.209 . S
C235 O232 1.258 . S
C235 O237 1.282 . S
O236 Cd228 2.277 . S
O236 C229 1.226 . S
O237 Cd228 2.356 . S
O237 C235 1.282 . S
C238 O239 1.306 . S
C238 O241 1.160 . S
O239 C238 1.306 . S
O239 Cd240 2.228 . S
Cd240 O239 2.228 . S
Cd240 O244 2.273 . S
Cd240 O248 2.277 . S
O241 C238 1.160 . S
O241 Cd242 2.203 . S
Cd242 O241 2.203 . S
Cd242 O244 2.411 . S
Cd242 O245 2.333 . S
Cd242 O246 2.352 . S
Cd242 O250 2.277 . S
Cd242 O251 2.356 . S
C243 O248 1.209 . S
C243 O250 1.226 . S
O244 Cd240 2.273 . S
O244 Cd242 2.411 . S
O244 C247 1.320 . S
O245 Cd242 2.333 . S
O245 C247 1.214 . S
O246 Cd242 2.352 . S
O246 C249 1.258 . S
C247 O244 1.320 . S
C247 O245 1.214 . S
O248 Cd240 2.277 . S
O248 C243 1.209 . S
C249 O246 1.258 . S
C249 O251 1.282 . S
O250 Cd242 2.277 . S
O250 C243 1.226 . S
O251 Cd242 2.356 . S
O251 C249 1.282 . S
C252 O253 1.306 . S
C252 O255 1.160 . S
O253 C252 1.306 . S
O253 Cd254 2.228 1_556 S
Cd254 O253 2.228 1_554 S
Cd254 O258 2.273 . S
Cd254 O262 2.277 . S
O255 C252 1.160 . S
O255 Cd256 2.203 1_556 S
Cd256 O255 2.203 1_554 S
Cd256 O258 2.411 . S
Cd256 O259 2.333 . S
Cd256 O260 2.352 . S
Cd256 O264 2.277 . S
Cd256 O265 2.356 . S
C257 O262 1.209 . S
C257 O264 1.226 . S
O258 Cd254 2.273 . S
O258 Cd256 2.411 . S
O258 C261 1.320 . S
O259 Cd256 2.333 . S
O259 C261 1.214 . S
O260 Cd256 2.352 . S
O260 C263 1.258 . S
C261 O258 1.320 . S
C261 O259 1.214 . S
O262 Cd254 2.277 . S
O262 C257 1.209 . S
C263 O260 1.258 . S
C263 O265 1.282 . S
O264 Cd256 2.277 . S
O264 C257 1.226 . S
O265 Cd256 2.356 . S
O265 C263 1.282 . S
C266 O267 1.335 . S
C266 O269 1.160 . S
O267 C266 1.335 . S
O267 Cd268 2.217 1_455 S
Cd268 O267 2.217 1_655 S
Cd268 O272 2.273 1_655 S
Cd268 O276 2.277 1_655 S
O269 C266 1.160 . S
O269 Cd270 2.203 . S
Cd270 O269 2.203 . S
Cd270 O272 2.411 . S
Cd270 O273 2.333 . S
Cd270 O274 2.352 . S
Cd270 O278 2.277 . S
Cd270 O279 2.356 . S
C271 O276 1.209 . S
C271 O278 1.226 . S
O272 Cd268 2.273 1_455 S
O272 Cd270 2.411 . S
O272 C275 1.320 . S
O273 Cd270 2.333 . S
O273 C275 1.214 . S
O274 Cd270 2.352 . S
O274 C277 1.258 . S
C275 O272 1.320 . S
C275 O273 1.214 . S
O276 Cd268 2.277 1_455 S
O276 C271 1.209 . S
C277 O274 1.258 . S
C277 O279 1.282 . S
O278 Cd270 2.277 . S
O278 C271 1.226 . S
O279 Cd270 2.356 . S
O279 C277 1.282 . S
C280 O281 1.306 . S
C280 O283 1.160 . S
O281 C280 1.306 . S
O281 Cd282 2.228 1_554 S
Cd282 O281 2.228 1_556 S
Cd282 O286 2.273 . S
Cd282 O290 2.277 . S
O283 C280 1.160 . S
O283 Cd284 2.203 1_554 S
Cd284 O283 2.203 1_556 S
Cd284 O286 2.411 . S
Cd284 O287 2.333 . S
Cd284 O288 2.352 . S
Cd284 O292 2.277 . S
Cd284 O293 2.356 . S
C285 O290 1.209 . S
C285 O292 1.226 . S
O286 Cd282 2.273 . S
O286 Cd284 2.411 . S
O286 C289 1.320 . S
O287 Cd284 2.333 . S
O287 C289 1.214 . S
O288 Cd284 2.352 . S
O288 C291 1.258 . S
C289 O286 1.320 . S
C289 O287 1.214 . S
O290 Cd282 2.277 . S
O290 C285 1.209 . S
C291 O288 1.258 . S
C291 O293 1.282 . S
O292 Cd284 2.277 . S
O292 C285 1.226 . S
O293 Cd284 2.356 . S
O293 C291 1.282 . S
C294 O295 1.335 . S
C294 O297 1.160 . S
O295 C294 1.335 . S
O295 Cd296 2.217 1_455 S
Cd296 O295 2.217 1_655 S
Cd296 O300 2.273 1_655 S
Cd296 O304 2.277 1_655 S
O297 C294 1.160 . S
O297 Cd298 2.203 . S
Cd298 O297 2.203 . S
Cd298 O300 2.411 . S
Cd298 O301 2.333 . S
Cd298 O302 2.352 . S
Cd298 O306 2.277 . S
Cd298 O307 2.356 . S
C299 O304 1.209 . S
C299 O306 1.226 . S
O300 Cd296 2.273 1_455 S
O300 Cd298 2.411 . S
O300 C303 1.320 . S
O301 Cd298 2.333 . S
O301 C303 1.214 . S
O302 Cd298 2.352 . S
O302 C305 1.258 . S
C303 O300 1.320 . S
C303 O301 1.214 . S
O304 Cd296 2.277 1_455 S
O304 C299 1.209 . S
C305 O302 1.258 . S
C305 O307 1.282 . S
O306 Cd298 2.277 . S
O306 C299 1.226 . S
O307 Cd298 2.356 . S
O307 C305 1.282 . S
C308 O309 1.306 . S
C308 O311 1.160 . S
O309 C308 1.306 . S
O309 Cd310 2.228 . S
Cd310 O309 2.228 . S
Cd310 O314 2.273 . S
Cd310 O318 2.277 . S
O311 C308 1.160 . S
O311 Cd312 2.203 . S
Cd312 O311 2.203 . S
Cd312 O314 2.411 . S
Cd312 O315 2.333 . S
Cd312 O316 2.352 . S
Cd312 O320 2.277 . S
Cd312 O321 2.356 . S
C313 O318 1.209 . S
C313 O320 1.226 . S
O314 Cd310 2.273 . S
O314 Cd312 2.411 . S
O314 C317 1.320 . S
O315 Cd312 2.333 . S
O315 C317 1.214 . S
O316 Cd312 2.352 . S
O316 C319 1.258 . S
C317 O314 1.320 . S
C317 O315 1.214 . S
O318 Cd310 2.277 . S
O318 C313 1.209 . S
C319 O316 1.258 . S
C319 O321 1.282 . S
O320 Cd312 2.277 . S
O320 C313 1.226 . S
O321 Cd312 2.356 . S
O321 C319 1.282 . S
C322 O323 1.306 . S
C322 O325 1.160 . S
O323 C322 1.306 . S
O323 Cd324 2.228 . S
Cd324 O323 2.228 . S
Cd324 O328 2.273 . S
Cd324 O332 2.277 . S
O325 C322 1.160 . S
O325 Cd326 2.203 . S
Cd326 O325 2.203 . S
Cd326 O328 2.411 . S
Cd326 O329 2.333 . S
Cd326 O330 2.352 . S
Cd326 O334 2.277 . S
Cd326 O335 2.356 . S
C327 O332 1.209 . S
C327 O334 1.226 . S
O328 Cd324 2.273 . S
O328 Cd326 2.411 . S
O328 C331 1.320 . S
O329 Cd326 2.333 . S
O329 C331 1.214 . S
O330 Cd326 2.352 . S
O330 C333 1.258 . S
C331 O328 1.320 . S
C331 O329 1.214 . S
O332 Cd324 2.277 . S
O332 C327 1.209 . S
C333 O330 1.258 . S
C333 O335 1.282 . S
O334 Cd326 2.277 . S
O334 C327 1.226 . S
O335 Cd326 2.356 . S
O335 C333 1.282 . S
C336 O337 1.306 . S
C336 O339 1.160 . S
O337 C336 1.306 . S
O337 Cd338 2.228 . S
Cd338 O337 2.228 . S
Cd338 O342 2.273 . S
Cd338 O346 2.277 . S
O339 C336 1.160 . S
O339 Cd340 2.203 . S
Cd340 O339 2.203 . S
Cd340 O342 2.411 . S
Cd340 O343 2.333 . S
Cd340 O344 2.352 . S
Cd340 O348 2.277 . S
Cd340 O349 2.356 . S
C341 O346 1.209 . S
C341 O348 1.226 . S
O342 Cd338 2.273 . S
O342 Cd340 2.411 . S
O342 C345 1.320 . S
O343 Cd340 2.333 . S
O343 C345 1.214 . S
O344 Cd340 2.352 . S
O344 C347 1.258 . S
C345 O342 1.320 . S
C345 O343 1.214 . S
O346 Cd338 2.277 . S
O346 C341 1.209 . S
C347 O344 1.258 . S
C347 O349 1.282 . S
O348 Cd340 2.277 . S
O348 C341 1.226 . S
O349 Cd340 2.356 . S
O349 C347 1.282 . S
C350 O351 1.306 . S
C350 O353 1.160 . S
O351 C350 1.306 . S
O351 Cd352 2.228 . S
Cd352 O351 2.228 . S
Cd352 O356 2.273 . S
Cd352 O360 2.277 . S
O353 C350 1.160 . S
O353 Cd354 2.203 . S
Cd354 O353 2.203 . S
Cd354 O356 2.411 . S
Cd354 O357 2.333 . S
Cd354 O358 2.352 . S
Cd354 O362 2.277 . S
Cd354 O363 2.356 . S
C355 O360 1.209 . S
C355 O362 1.226 . S
O356 Cd352 2.273 . S
O356 Cd354 2.411 . S
O356 C359 1.320 . S
O357 Cd354 2.333 . S
O357 C359 1.214 . S
O358 Cd354 2.352 . S
O358 C361 1.258 . S
C359 O356 1.320 . S
C359 O357 1.214 . S
O360 Cd352 2.277 . S
O360 C355 1.209 . S
C361 O358 1.258 . S
C361 O363 1.282 . S
O362 Cd354 2.277 . S
O362 C355 1.226 . S
O363 Cd354 2.356 . S
O363 C361 1.282 . S
C364 O365 1.306 . S
C364 O367 1.160 . S
O365 C364 1.306 . S
O365 Cd366 2.228 1_554 S
Cd366 O365 2.228 1_556 S
Cd366 O370 2.273 . S
Cd366 O374 2.277 . S
O367 C364 1.160 . S
O367 Cd368 2.203 1_554 S
Cd368 O367 2.203 1_556 S
Cd368 O370 2.411 . S
Cd368 O371 2.333 . S
Cd368 O372 2.352 . S
Cd368 O376 2.277 . S
Cd368 O377 2.356 . S
C369 O374 1.209 . S
C369 O376 1.226 . S
O370 Cd366 2.273 . S
O370 Cd368 2.411 . S
O370 C373 1.320 . S
O371 Cd368 2.333 . S
O371 C373 1.214 . S
O372 Cd368 2.352 . S
O372 C375 1.258 . S
C373 O370 1.320 . S
C373 O371 1.214 . S
O374 Cd366 2.277 . S
O374 C369 1.209 . S
C375 O372 1.258 . S
C375 O377 1.282 . S
O376 Cd368 2.277 . S
O376 C369 1.226 . S
O377 Cd368 2.356 . S
O377 C375 1.282 . S
C378 O379 1.335 . S
C378 O381 1.160 . S
O379 C378 1.335 . S
O379 Cd380 2.217 1_655 S
Cd380 O379 2.217 1_455 S
Cd380 O384 2.273 1_455 S
Cd380 O388 2.277 1_455 S
O381 C378 1.160 . S
O381 Cd382 2.203 . S
Cd382 O381 2.203 . S
Cd382 O384 2.411 . S
Cd382 O385 2.333 . S
Cd382 O386 2.352 . S
Cd382 O390 2.277 . S
Cd382 O391 2.356 . S
C383 O388 1.209 . S
C383 O390 1.226 . S
O384 Cd380 2.273 1_655 S
O384 Cd382 2.411 . S
O384 C387 1.320 . S
O385 Cd382 2.333 . S
O385 C387 1.214 . S
O386 Cd382 2.352 . S
O386 C389 1.258 . S
C387 O384 1.320 . S
C387 O385 1.214 . S
O388 Cd380 2.277 1_655 S
O388 C383 1.209 . S
C389 O386 1.258 . S
C389 O391 1.282 . S
O390 Cd382 2.277 . S
O390 C383 1.226 . S
O391 Cd382 2.356 . S
O391 C389 1.282 . S
C392 O393 1.306 . S
C392 O395 1.160 . S
O393 C392 1.306 . S
O393 Cd394 2.228 1_556 S
Cd394 O393 2.228 1_554 S
Cd394 O398 2.273 . S
Cd394 O402 2.277 . S
O395 C392 1.160 . S
O395 Cd396 2.203 1_556 S
Cd396 O395 2.203 1_554 S
Cd396 O398 2.411 . S
Cd396 O399 2.333 . S
Cd396 O400 2.352 . S
Cd396 O404 2.277 . S
Cd396 O405 2.356 . S
C397 O402 1.209 . S
C397 O404 1.226 . S
O398 Cd394 2.273 . S
O398 Cd396 2.411 . S
O398 C401 1.320 . S
O399 Cd396 2.333 . S
O399 C401 1.214 . S
O400 Cd396 2.352 . S
O400 C403 1.258 . S
C401 O398 1.320 . S
C401 O399 1.214 . S
O402 Cd394 2.277 . S
O402 C397 1.209 . S
C403 O400 1.258 . S
C403 O405 1.282 . S
O404 Cd396 2.277 . S
O404 C397 1.226 . S
O405 Cd396 2.356 . S
O405 C403 1.282 . S
C406 O407 1.335 . S
C406 O409 1.160 . S
O407 C406 1.335 . S
O407 Cd408 2.217 1_655 S
Cd408 O407 2.217 1_455 S
Cd408 O412 2.273 1_455 S
Cd408 O416 2.277 1_455 S
O409 C406 1.160 . S
O409 Cd410 2.203 . S
Cd410 O409 2.203 . S
Cd410 O412 2.411 . S
Cd410 O413 2.333 . S
Cd410 O414 2.352 . S
Cd410 O418 2.277 . S
Cd410 O419 2.356 . S
C411 O416 1.209 . S
C411 O418 1.226 . S
O412 Cd408 2.273 1_655 S
O412 Cd410 2.411 . S
O412 C415 1.320 . S
O413 Cd410 2.333 . S
O413 C415 1.214 . S
O414 Cd410 2.352 . S
O414 C417 1.258 . S
C415 O412 1.320 . S
C415 O413 1.214 . S
O416 Cd408 2.277 1_655 S
O416 C411 1.209 . S
C417 O414 1.258 . S
C417 O419 1.282 . S
O418 Cd410 2.277 . S
O418 C411 1.226 . S
O419 Cd410 2.356 . S
O419 C417 1.282 . S
C420 O421 1.306 . S
C420 O423 1.160 . S
O421 C420 1.306 . S
O421 Cd422 2.228 . S
Cd422 O421 2.228 . S
Cd422 O426 2.273 . S
Cd422 O430 2.277 . S
O423 C420 1.160 . S
O423 Cd424 2.203 . S
Cd424 O423 2.203 . S
Cd424 O426 2.411 . S
Cd424 O427 2.333 . S
Cd424 O428 2.352 . S
Cd424 O432 2.277 . S
Cd424 O433 2.356 . S
C425 O430 1.209 . S
C425 O432 1.226 . S
O426 Cd422 2.273 . S
O426 Cd424 2.411 . S
O426 C429 1.320 . S
O427 Cd424 2.333 . S
O427 C429 1.214 . S
O428 Cd424 2.352 . S
O428 C431 1.258 . S
C429 O426 1.320 . S
C429 O427 1.214 . S
O430 Cd422 2.277 . S
O430 C425 1.209 . S
C431 O428 1.258 . S
C431 O433 1.282 . S
O432 Cd424 2.277 . S
O432 C425 1.226 . S
O433 Cd424 2.356 . S
O433 C431 1.282 . S
C434 O435 1.306 . S
C434 O437 1.160 . S
O435 C434 1.306 . S
O435 Cd436 2.228 . S
Cd436 O435 2.228 . S
Cd436 O440 2.273 . S
Cd436 O444 2.277 . S
O437 C434 1.160 . S
O437 Cd438 2.203 . S
Cd438 O437 2.203 . S
Cd438 O440 2.411 . S
Cd438 O441 2.333 . S
Cd438 O442 2.352 . S
Cd438 O446 2.277 . S
Cd438 O447 2.356 . S
C439 O444 1.209 . S
C439 O446 1.226 . S
O440 Cd436 2.273 . S
O440 Cd438 2.411 . S
O440 C443 1.320 . S
O441 Cd438 2.333 . S
O441 C443 1.214 . S
O442 Cd438 2.352 . S
O442 C445 1.258 . S
C443 O440 1.320 . S
C443 O441 1.214 . S
O444 Cd436 2.277 . S
O444 C439 1.209 . S
C445 O442 1.258 . S
C445 O447 1.282 . S
O446 Cd438 2.277 . S
O446 C439 1.226 . S
O447 Cd438 2.356 . S
O447 C445 1.282 . S
C448 C449 1.369 1_554 S
C448 C450 1.419 . S
C448 H452 0.930 . S
C449 C448 1.369 1_556 S
C449 C458 1.429 . S
C450 C448 1.419 . S
C450 C451 1.363 . S
C450 H453 0.929 . S
C451 C450 1.363 . S
C451 C457 1.428 1_554 S
H452 C448 0.930 . S
H453 C450 0.929 . S
S454 N455 1.613 . S
S454 N456 1.610 . S
N455 S454 1.613 . S
N455 C458 1.350 . S
N456 S454 1.610 . S
N456 C457 1.351 . S
C457 C451 1.428 1_556 S
C457 N456 1.351 . S
C457 C458 1.434 . S
C458 C449 1.429 . S
C458 N455 1.350 . S
C458 C457 1.434 . S
C459 C460 1.369 . S
C459 C461 1.419 1_565 S
C459 H463 0.930 . S
C460 C459 1.369 . S
C460 C469 1.429 . S
C461 C459 1.419 1_545 S
C461 C462 1.363 . S
C461 H464 0.929 . S
C462 C461 1.363 . S
C462 C468 1.428 . S
H463 C459 0.930 . S
H464 C461 0.929 . S
S465 N466 1.613 1_545 S
S465 N467 1.610 . S
N466 S465 1.613 1_565 S
N466 C469 1.350 . S
N467 S465 1.610 . S
N467 C468 1.351 . S
C468 C462 1.428 . S
C468 N467 1.351 . S
C468 C469 1.434 1_545 S
C469 C460 1.429 . S
C469 N466 1.350 . S
C469 C468 1.434 1_565 S
C470 C471 1.369 . S
C470 C472 1.419 . S
C470 H474 0.930 . S
C471 C470 1.369 . S
C471 C480 1.429 . S
C472 C470 1.419 . S
C472 C473 1.363 . S
C472 H475 0.929 . S
C473 C472 1.363 . S
C473 C479 1.428 . S
H474 C470 0.930 . S
H475 C472 0.929 . S
S476 N477 1.613 . S
S476 N478 1.610 . S
N477 S476 1.613 . S
N477 C480 1.350 . S
N478 S476 1.610 . S
N478 C479 1.351 . S
C479 C473 1.428 . S
C479 N478 1.351 . S
C479 C480 1.434 . S
C480 C471 1.429 . S
C480 N477 1.350 . S
C480 C479 1.434 . S
C481 C482 1.369 . S
C481 C483 1.419 1_545 S
C481 H485 0.930 . S
C482 C481 1.369 . S
C482 C491 1.429 . S
C483 C481 1.419 1_565 S
C483 C484 1.363 . S
C483 H486 0.929 . S
C484 C483 1.363 . S
C484 C490 1.428 . S
H485 C481 0.930 . S
H486 C483 0.929 . S
S487 N488 1.580 1_565 S
S487 N489 1.644 . S
N488 S487 1.580 1_545 S
N488 C491 1.350 . S
N489 S487 1.644 . S
N489 C490 1.351 . S
C490 C484 1.428 . S
C490 N489 1.351 . S
C490 C491 1.434 1_565 S
C491 C482 1.429 . S
C491 N488 1.350 . S
C491 C490 1.434 1_545 S
C492 C493 1.369 1_556 S
C492 C494 1.419 . S
C492 H496 0.930 . S
C493 C492 1.369 1_554 S
C493 C502 1.429 . S
C494 C492 1.419 . S
C494 C495 1.363 . S
C494 H497 0.929 . S
C495 C494 1.363 . S
C495 C501 1.428 1_556 S
H496 C492 0.930 . S
H497 C494 0.929 . S
S498 N499 1.613 . S
S498 N500 1.610 . S
N499 S498 1.613 . S
N499 C502 1.350 . S
N500 S498 1.610 . S
N500 C501 1.351 . S
C501 C495 1.428 1_554 S
C501 N500 1.351 . S
C501 C502 1.434 . S
C502 C493 1.429 . S
C502 N499 1.350 . S
C502 C501 1.434 . S
C503 C504 1.369 . S
C503 C505 1.419 1_565 S
C503 H507 0.930 . S
C504 C503 1.369 . S
C504 C513 1.429 . S
C505 C503 1.419 1_545 S
C505 C506 1.363 . S
C505 H508 0.929 . S
C506 C505 1.363 . S
C506 C512 1.428 . S
H507 C503 0.930 . S
H508 C505 0.929 . S
S509 N510 1.613 1_545 S
S509 N511 1.610 . S
N510 S509 1.613 1_565 S
N510 C513 1.350 . S
N511 S509 1.610 . S
N511 C512 1.351 . S
C512 C506 1.428 . S
C512 N511 1.351 . S
C512 C513 1.434 1_545 S
C513 C504 1.429 . S
C513 N510 1.350 . S
C513 C512 1.434 1_565 S
C514 C515 1.369 . S
C514 C516 1.419 . S
C514 H518 0.930 . S
C515 C514 1.369 . S
C515 C524 1.429 . S
C516 C514 1.419 . S
C516 C517 1.363 . S
C516 H519 0.929 . S
C517 C516 1.363 . S
C517 C523 1.428 . S
H518 C514 0.930 . S
H519 C516 0.929 . S
S520 N521 1.613 . S
S520 N522 1.610 . S
N521 S520 1.613 . S
N521 C524 1.350 . S
N522 S520 1.610 . S
N522 C523 1.351 . S
C523 C517 1.428 . S
C523 N522 1.351 . S
C523 C524 1.434 . S
C524 C515 1.429 . S
C524 N521 1.350 . S
C524 C523 1.434 . S
C525 C526 1.369 . S
C525 C527 1.419 1_565 S
C525 H529 0.930 . S
C526 C525 1.369 . S
C526 C535 1.429 . S
C527 C525 1.419 1_545 S
C527 C528 1.363 . S
C527 H530 0.929 . S
C528 C527 1.363 . S
C528 C534 1.428 . S
H529 C525 0.930 . S
H530 C527 0.929 . S
S531 N532 1.613 . S
S531 N533 1.610 1_565 S
N532 S531 1.613 . S
N532 C535 1.350 . S
N533 S531 1.610 1_545 S
N533 C534 1.351 . S
C534 C528 1.428 . S
C534 N533 1.351 . S
C534 C535 1.434 1_545 S
C535 C526 1.429 . S
C535 N532 1.350 . S
C535 C534 1.434 1_565 S
C536 C537 1.369 . S
C536 C538 1.419 . S
C536 H540 0.930 . S
C537 C536 1.369 . S
C537 C546 1.429 . S
C538 C536 1.419 . S
C538 C539 1.363 . S
C538 H541 0.929 . S
C539 C538 1.363 . S
C539 C545 1.428 . S
H540 C536 0.930 . S
H541 C538 0.929 . S
S542 N543 1.613 . S
S542 N544 1.610 . S
N543 S542 1.613 . S
N543 C546 1.350 . S
N544 S542 1.610 . S
N544 C545 1.351 . S
C545 C539 1.428 . S
C545 N544 1.351 . S
C545 C546 1.434 . S
C546 C537 1.429 . S
C546 N543 1.350 . S
C546 C545 1.434 . S
C547 C548 1.369 . S
C547 C549 1.419 . S
C547 H551 0.930 . S
C548 C547 1.369 . S
C548 C557 1.429 . S
C549 C547 1.419 . S
C549 C550 1.363 . S
C549 H552 0.929 . S
C550 C549 1.363 . S
C550 C556 1.428 . S
H551 C547 0.930 . S
H552 C549 0.929 . S
S553 N554 1.613 . S
S553 N555 1.610 . S
N554 S553 1.613 . S
N554 C557 1.350 . S
N555 S553 1.610 . S
N555 C556 1.351 . S
C556 C550 1.428 . S
C556 N555 1.351 . S
C556 C557 1.434 . S
C557 C548 1.429 . S
C557 N554 1.350 . S
C557 C556 1.434 . S
C558 C559 1.369 . S
C558 C560 1.419 . S
C558 H562 0.930 . S
C559 C558 1.369 . S
C559 C568 1.429 1_556 S
C560 C558 1.419 . S
C560 C561 1.363 1_556 S
C560 H563 0.929 . S
C561 C560 1.363 1_554 S
C561 C567 1.428 . S
H562 C558 0.930 . S
H563 C560 0.929 . S
S564 N565 1.613 . S
S564 N566 1.610 . S
N565 S564 1.613 . S
N565 C568 1.350 . S
N566 S564 1.610 . S
N566 C567 1.351 . S
C567 C561 1.428 . S
C567 N566 1.351 . S
C567 C568 1.434 . S
C568 C559 1.429 1_554 S
C568 N565 1.350 . S
C568 C567 1.434 . S
C569 C570 1.369 . S
C569 C571 1.419 . S
C569 H573 0.930 . S
C570 C569 1.369 . S
C570 C579 1.429 . S
C571 C569 1.419 . S
C571 C572 1.363 . S
C571 H574 0.929 . S
C572 C571 1.363 . S
C572 C578 1.428 . S
H573 C569 0.930 . S
H574 C571 0.929 . S
S575 N576 1.613 . S
S575 N577 1.610 . S
N576 S575 1.613 . S
N576 C579 1.350 . S
N577 S575 1.610 . S
N577 C578 1.351 . S
C578 C572 1.428 . S
C578 N577 1.351 . S
C578 C579 1.434 . S
C579 C570 1.429 . S
C579 N576 1.350 . S
C579 C578 1.434 . S
C580 C581 1.369 . S
C580 C582 1.419 . S
C580 H584 0.930 . S
C581 C580 1.369 . S
C581 C590 1.429 . S
C582 C580 1.419 . S
C582 C583 1.363 . S
C582 H585 0.929 . S
C583 C582 1.363 . S
C583 C589 1.428 . S
H584 C580 0.930 . S
H585 C582 0.929 . S
S586 N587 1.613 . S
S586 N588 1.610 . S
N587 S586 1.613 . S
N587 C590 1.350 . S
N588 S586 1.610 . S
N588 C589 1.351 . S
C589 C583 1.428 . S
C589 N588 1.351 . S
C589 C590 1.434 . S
C590 C581 1.429 . S
C590 N587 1.350 . S
C590 C589 1.434 . S
C591 C592 1.369 . S
C591 C593 1.419 . S
C591 H595 0.930 . S
C592 C591 1.369 . S
C592 C601 1.429 . S
C593 C591 1.419 . S
C593 C594 1.363 . S
C593 H596 0.929 . S
C594 C593 1.363 . S
C594 C600 1.428 . S
H595 C591 0.930 . S
H596 C593 0.929 . S
S597 N598 1.613 . S
S597 N599 1.610 . S
N598 S597 1.613 . S
N598 C601 1.350 . S
N599 S597 1.610 . S
N599 C600 1.351 . S
C600 C594 1.428 . S
C600 N599 1.351 . S
C600 C601 1.434 . S
C601 C592 1.429 . S
C601 N598 1.350 . S
C601 C600 1.434 . S
C602 C603 1.369 . S
C602 C604 1.419 . S
C602 H606 0.930 . S
C603 C602 1.369 . S
C603 C612 1.429 1_554 S
C604 C602 1.419 . S
C604 C605 1.363 1_554 S
C604 H607 0.929 . S
C605 C604 1.363 1_556 S
C605 C611 1.428 . S
H606 C602 0.930 . S
H607 C604 0.929 . S
S608 N609 1.613 . S
S608 N610 1.610 . S
N609 S608 1.613 . S
N609 C612 1.350 . S
N610 S608 1.610 . S
N610 C611 1.351 . S
C611 C605 1.428 . S
C611 N610 1.351 . S
C611 C612 1.434 . S
C612 C603 1.429 1_556 S
C612 N609 1.350 . S
C612 C611 1.434 . S
C613 C614 1.369 . S
C613 C615 1.419 . S
C613 H617 0.930 . S
C614 C613 1.369 . S
C614 C623 1.429 . S
C615 C613 1.419 . S
C615 C616 1.363 . S
C615 H618 0.929 . S
C616 C615 1.363 . S
C616 C622 1.428 . S
H617 C613 0.930 . S
H618 C615 0.929 . S
S619 N620 1.613 1_455 S
S619 N621 1.610 1_455 S
N620 S619 1.613 1_655 S
N620 C623 1.350 . S
N621 S619 1.610 1_655 S
N621 C622 1.351 . S
C622 C616 1.428 . S
C622 N621 1.351 . S
C622 C623 1.434 . S
C623 C614 1.429 . S
C623 N620 1.350 . S
C623 C622 1.434 . S
C624 C625 1.369 . S
C624 C626 1.419 . S
C624 H628 0.930 . S
C625 C624 1.369 . S
C625 C634 1.429 . S
C626 C624 1.419 . S
C626 C627 1.363 . S
C626 H629 0.929 . S
C627 C626 1.363 . S
C627 C633 1.428 . S
H628 C624 0.930 . S
H629 C626 0.929 . S
S630 N631 1.613 . S
S630 N632 1.610 . S
N631 S630 1.613 . S
N631 C634 1.350 . S
N632 S630 1.610 . S
N632 C633 1.351 . S
C633 C627 1.428 . S
C633 N632 1.351 . S
C633 C634 1.434 . S
C634 C625 1.429 . S
C634 N631 1.350 . S
C634 C633 1.434 . S
C635 C636 1.369 1_554 S
C635 C637 1.419 . S
C635 H639 0.930 . S
C636 C635 1.369 1_556 S
C636 C645 1.429 1_455 S
C637 C635 1.419 . S
C637 C638 1.363 1_455 S
C637 H640 0.929 . S
C638 C637 1.363 1_655 S
C638 C644 1.428 . S
H639 C635 0.930 . S
H640 C637 0.929 . S
S641 N642 1.613 . S
S641 N643 1.610 1_556 S
N642 S641 1.613 . S
N642 C645 1.350 . S
N643 S641 1.610 1_554 S
N643 C644 1.351 . S
C644 C638 1.428 . S
C644 N643 1.351 . S
C644 C645 1.434 1_554 S
C645 C636 1.429 1_655 S
C645 N642 1.350 . S
C645 C644 1.434 1_556 S
C646 C647 1.369 . S
C646 C648 1.419 . S
C646 H650 0.930 . S
C647 C646 1.369 . S
C647 C656 1.429 . S
C648 C646 1.419 . S
C648 C649 1.363 . S
C648 H651 0.929 . S
C649 C648 1.363 . S
C649 C655 1.428 . S
H650 C646 0.930 . S
H651 C648 0.929 . S
S652 N653 1.613 . S
S652 N654 1.610 . S
N653 S652 1.613 . S
N653 C656 1.350 . S
N654 S652 1.610 . S
N654 C655 1.351 . S
C655 C649 1.428 . S
C655 N654 1.351 . S
C655 C656 1.434 . S
C656 C647 1.429 . S
C656 N653 1.350 . S
C656 C655 1.434 . S
C657 C658 1.369 . S
C657 C659 1.419 . S
C657 H661 0.930 . S
C658 C657 1.369 . S
C658 C667 1.429 . S
C659 C657 1.419 . S
C659 C660 1.363 . S
C659 H662 0.929 . S
C660 C659 1.363 . S
C660 C666 1.428 . S
H661 C657 0.930 . S
H662 C659 0.929 . S
S663 N664 1.613 . S
S663 N665 1.610 . S
N664 S663 1.613 . S
N664 C667 1.350 . S
N665 S663 1.610 . S
N665 C666 1.351 . S
C666 C660 1.428 . S
C666 N665 1.351 . S
C666 C667 1.434 . S
C667 C658 1.429 . S
C667 N664 1.350 . S
C667 C666 1.434 . S
C668 C669 1.369 . S
C668 C670 1.419 . S
C668 H672 0.930 . S
C669 C668 1.369 . S
C669 C678 1.429 . S
C670 C668 1.419 . S
C670 C671 1.363 . S
C670 H673 0.929 . S
C671 C670 1.363 . S
C671 C677 1.428 . S
H672 C668 0.930 . S
H673 C670 0.929 . S
S674 N675 1.613 . S
S674 N676 1.610 . S
N675 S674 1.613 . S
N675 C678 1.350 . S
N676 S674 1.610 . S
N676 C677 1.351 . S
C677 C671 1.428 . S
C677 N676 1.351 . S
C677 C678 1.434 . S
C678 C669 1.429 . S
C678 N675 1.350 . S
C678 C677 1.434 . S
C679 C680 1.369 1_556 S
C679 C681 1.419 . S
C679 H683 0.930 . S
C680 C679 1.369 1_554 S
C680 C689 1.429 1_554 S
C681 C679 1.419 . S
C681 C682 1.363 . S
C681 H684 0.929 . S
C682 C681 1.363 . S
C682 C688 1.428 . S
H683 C679 0.930 . S
H684 C681 0.929 . S
S685 N686 1.613 1_556 S
S685 N687 1.610 . S
N686 S685 1.613 1_554 S
N686 C689 1.350 1_554 S
N687 S685 1.610 . S
N687 C688 1.351 . S
C688 C682 1.428 . S
C688 N687 1.351 . S
C688 C689 1.434 . S
C689 C680 1.429 1_556 S
C689 N686 1.350 1_556 S
C689 C688 1.434 . S
C690 C691 1.369 . S
C690 C692 1.419 . S
C690 H694 0.930 . S
C691 C690 1.369 . S
C691 C700 1.429 . S
C692 C690 1.419 . S
C692 C693 1.363 . S
C692 H695 0.929 . S
C693 C692 1.363 . S
C693 C699 1.428 . S
H694 C690 0.930 . S
H695 C692 0.929 . S
S696 N697 1.613 . S
S696 N698 1.610 . S
N697 S696 1.613 . S
N697 C700 1.350 . S
N698 S696 1.610 . S
N698 C699 1.351 . S
C699 C693 1.428 . S
C699 N698 1.351 . S
C699 C700 1.434 . S
C700 C691 1.429 . S
C700 N697 1.350 . S
C700 C699 1.434 . S
C701 C702 1.369 . S
C701 C703 1.419 . S
C701 H705 0.930 . S
C702 C701 1.369 . S
C702 C711 1.429 1_455 S
C703 C701 1.419 . S
C703 C704 1.363 1_455 S
C703 H706 0.929 . S
C704 C703 1.363 1_655 S
C704 C710 1.428 . S
H705 C701 0.930 . S
H706 C703 0.929 . S
S707 N708 1.613 . S
S707 N709 1.610 . S
N708 S707 1.613 . S
N708 C711 1.350 . S
N709 S707 1.610 . S
N709 C710 1.351 . S
C710 C704 1.428 . S
C710 N709 1.351 . S
C710 C711 1.434 . S
C711 C702 1.429 1_655 S
C711 N708 1.350 . S
C711 C710 1.434 . S
C712 C713 1.369 . S
C712 C714 1.419 . S
C712 H716 0.930 . S
C713 C712 1.369 . S
C713 C722 1.429 . S
C714 C712 1.419 . S
C714 C715 1.363 . S
C714 H717 0.929 . S
C715 C714 1.363 . S
C715 C721 1.428 . S
H716 C712 0.930 . S
H717 C714 0.929 . S
S718 N719 1.613 . S
S718 N720 1.610 . S
N719 S718 1.613 . S
N719 C722 1.350 . S
N720 S718 1.610 . S
N720 C721 1.351 . S
C721 C715 1.428 . S
C721 N720 1.351 . S
C721 C722 1.434 . S
C722 C713 1.429 . S
C722 N719 1.350 . S
C722 C721 1.434 . S
C723 C724 1.369 1_556 S
C723 C725 1.419 . S
C723 H727 0.930 . S
C724 C723 1.369 1_554 S
C724 C733 1.429 1_655 S
C725 C723 1.419 . S
C725 C726 1.363 1_655 S
C725 H728 0.929 . S
C726 C725 1.363 1_455 S
C726 C732 1.428 . S
H727 C723 0.930 . S
H728 C725 0.929 . S
S729 N730 1.613 . S
S729 N731 1.610 1_554 S
N730 S729 1.613 . S
N730 C733 1.350 . S
N731 S729 1.610 1_556 S
N731 C732 1.351 . S
C732 C726 1.428 . S
C732 N731 1.351 . S
C732 C733 1.434 1_556 S
C733 C724 1.429 1_455 S
C733 N730 1.350 . S
C733 C732 1.434 1_554 S
C734 C735 1.369 . S
C734 C736 1.419 . S
C734 H738 0.930 . S
C735 C734 1.369 . S
C735 C744 1.429 . S
C736 C734 1.419 . S
C736 C737 1.363 . S
C736 H739 0.929 . S
C737 C736 1.363 . S
C737 C743 1.428 . S
H738 C734 0.930 . S
H739 C736 0.929 . S
S740 N741 1.613 . S
S740 N742 1.610 . S
N741 S740 1.613 . S
N741 C744 1.350 . S
N742 S740 1.610 . S
N742 C743 1.351 . S
C743 C737 1.428 . S
C743 N742 1.351 . S
C743 C744 1.434 . S
C744 C735 1.429 . S
C744 N741 1.350 . S
C744 C743 1.434 . S
C745 C746 1.369 . S
C745 C747 1.419 . S
C745 H749 0.930 . S
C746 C745 1.369 . S
C746 C755 1.429 . S
C747 C745 1.419 . S
C747 C748 1.363 . S
C747 H750 0.929 . S
C748 C747 1.363 . S
C748 C754 1.428 . S
H749 C745 0.930 . S
H750 C747 0.929 . S
S751 N752 1.613 . S
S751 N753 1.610 . S
N752 S751 1.613 . S
N752 C755 1.350 . S
N753 S751 1.610 . S
N753 C754 1.351 . S
C754 C748 1.428 . S
C754 N753 1.351 . S
C754 C755 1.434 . S
C755 C746 1.429 . S
C755 N752 1.350 . S
C755 C754 1.434 . S
C756 C757 1.369 . S
C756 C758 1.419 . S
C756 H760 0.930 . S
C757 C756 1.369 . S
C757 C766 1.429 . S
C758 C756 1.419 . S
C758 C759 1.363 . S
C758 H761 0.929 . S
C759 C758 1.363 . S
C759 C765 1.428 . S
H760 C756 0.930 . S
H761 C758 0.929 . S
S762 N763 1.613 . S
S762 N764 1.610 . S
N763 S762 1.613 . S
N763 C766 1.350 . S
N764 S762 1.610 . S
N764 C765 1.351 . S
C765 C759 1.428 . S
C765 N764 1.351 . S
C765 C766 1.434 . S
C766 C757 1.429 . S
C766 N763 1.350 . S
C766 C765 1.434 . S
C767 C768 1.369 . S
C767 C769 1.419 . S
C767 H771 0.930 . S
C768 C767 1.369 . S
C768 C777 1.429 . S
C769 C767 1.419 . S
C769 C770 1.363 1_554 S
C769 H772 0.929 1_554 S
C770 C769 1.363 1_556 S
C770 C776 1.428 1_556 S
H771 C767 0.930 . S
H772 C769 0.929 1_556 S
S773 N774 1.613 . S
S773 N775 1.610 . S
N774 S773 1.613 . S
N774 C777 1.350 . S
N775 S773 1.610 . S
N775 C776 1.351 . S
C776 C770 1.428 1_554 S
C776 N775 1.351 . S
C776 C777 1.434 . S
C777 C768 1.429 . S
C777 N774 1.350 . S
C777 C776 1.434 . S
C778 C779 1.369 . S
C778 C780 1.419 . S
C778 H782 0.930 . S
C779 C778 1.369 . S
C779 C788 1.429 . S
C780 C778 1.419 . S
C780 C781 1.363 . S
C780 H783 0.929 . S
C781 C780 1.363 . S
C781 C787 1.428 . S
H782 C778 0.930 . S
H783 C780 0.929 . S
S784 N785 1.613 . S
S784 N786 1.610 . S
N785 S784 1.613 . S
N785 C788 1.350 . S
N786 S784 1.610 . S
N786 C787 1.351 . S
C787 C781 1.428 . S
C787 N786 1.351 . S
C787 C788 1.434 . S
C788 C779 1.429 . S
C788 N785 1.350 . S
C788 C787 1.434 . S
C789 C790 1.369 . S
C789 C791 1.419 1_655 S
C789 H793 0.930 . S
C790 C789 1.369 . S
C790 C799 1.429 . S
C791 C789 1.419 1_455 S
C791 C792 1.363 . S
C791 H794 0.929 . S
C792 C791 1.363 . S
C792 C798 1.428 . S
H793 C789 0.930 . S
H794 C791 0.929 . S
S795 N796 1.613 . S
S795 N797 1.610 1_655 S
N796 S795 1.613 . S
N796 C799 1.350 . S
N797 S795 1.610 1_455 S
N797 C798 1.351 . S
C798 C792 1.428 . S
C798 N797 1.351 . S
C798 C799 1.434 1_455 S
C799 C790 1.429 . S
C799 N796 1.350 . S
C799 C798 1.434 1_655 S
C800 C801 1.369 . S
C800 C802 1.419 . S
C800 H804 0.930 . S
C801 C800 1.369 . S
C801 C810 1.429 . S
C802 C800 1.419 . S
C802 C803 1.363 . S
C802 H805 0.929 . S
C803 C802 1.363 . S
C803 C809 1.428 . S
H804 C800 0.930 . S
H805 C802 0.929 . S
S806 N807 1.613 . S
S806 N808 1.610 . S
N807 S806 1.613 . S
N807 C810 1.350 . S
N808 S806 1.610 . S
N808 C809 1.351 . S
C809 C803 1.428 . S
C809 N808 1.351 . S
C809 C810 1.434 . S
C810 C801 1.429 . S
C810 N807 1.350 . S
C810 C809 1.434 . S
C811 C812 1.369 . S
C811 C813 1.419 . S
C811 H815 0.930 . S
C812 C811 1.369 . S
C812 C821 1.429 . S
C813 C811 1.419 . S
C813 C814 1.363 . S
C813 H816 0.929 . S
C814 C813 1.363 . S
C814 C820 1.428 . S
H815 C811 0.930 . S
H816 C813 0.929 . S
S817 N818 1.613 . S
S817 N819 1.610 . S
N818 S817 1.613 . S
N818 C821 1.350 . S
N819 S817 1.610 . S
N819 C820 1.351 . S
C820 C814 1.428 . S
C820 N819 1.351 . S
C820 C821 1.434 . S
C821 C812 1.429 . S
C821 N818 1.350 . S
C821 C820 1.434 . S
C822 C823 1.369 . S
C822 C824 1.419 . S
C822 H826 0.930 . S
C823 C822 1.369 . S
C823 C832 1.429 . S
C824 C822 1.419 . S
C824 C825 1.363 . S
C824 H827 0.929 . S
C825 C824 1.363 . S
C825 C831 1.428 . S
H826 C822 0.930 . S
H827 C824 0.929 . S
S828 N829 1.613 . S
S828 N830 1.610 . S
N829 S828 1.613 . S
N829 C832 1.350 . S
N830 S828 1.610 . S
N830 C831 1.351 . S
C831 C825 1.428 . S
C831 N830 1.351 . S
C831 C832 1.434 . S
C832 C823 1.429 . S
C832 N829 1.350 . S
C832 C831 1.434 . S
C833 C834 1.369 1_655 S
C833 C835 1.419 . S
C833 H837 0.930 . S
C834 C833 1.369 1_455 S
C834 C843 1.429 . S
C835 C833 1.419 . S
C835 C836 1.363 1_554 S
C835 H838 0.929 . S
C836 C835 1.363 1_556 S
C836 C842 1.430 1_655 S
H837 C833 0.930 . S
H838 C835 0.929 . S
S839 N840 1.613 1_556 S
S839 N841 1.610 . S
N840 S839 1.613 1_554 S
N840 C843 1.350 . S
N841 S839 1.610 . S
N841 C842 1.360 . S
C842 C836 1.430 1_455 S
C842 N841 1.360 . S
C842 C843 1.423 1_556 S
C843 C834 1.429 . S
C843 N840 1.350 . S
C843 C842 1.423 1_554 S
C844 C845 1.369 . S
C844 C846 1.419 . S
C844 H848 0.930 . S
C845 C844 1.369 . S
C845 C854 1.429 . S
C846 C844 1.419 . S
C846 C847 1.363 . S
C846 H849 0.929 . S
C847 C846 1.363 . S
C847 C853 1.428 . S
H848 C844 0.930 . S
H849 C846 0.929 . S
S850 N851 1.613 . S
S850 N852 1.610 . S
N851 S850 1.613 . S
N851 C854 1.350 . S
N852 S850 1.610 . S
N852 C853 1.351 . S
C853 C847 1.428 . S
C853 N852 1.351 . S
C853 C854 1.434 . S
C854 C845 1.429 . S
C854 N851 1.350 . S
C854 C853 1.434 . S
C855 C856 1.369 . S
C855 C857 1.419 1_655 S
C855 H859 0.930 . S
C856 C855 1.369 . S
C856 C865 1.429 . S
C857 C855 1.419 1_455 S
C857 C858 1.363 . S
C857 H860 0.929 . S
C858 C857 1.363 . S
C858 C864 1.428 . S
H859 C855 0.930 . S
H860 C857 0.929 . S
S861 N862 1.613 . S
S861 N863 1.610 1_655 S
N862 S861 1.613 . S
N862 C865 1.350 . S
N863 S861 1.610 1_455 S
N863 C864 1.351 . S
C864 C858 1.428 . S
C864 N863 1.351 . S
C864 C865 1.434 1_455 S
C865 C856 1.429 . S
C865 N862 1.350 . S
C865 C864 1.434 1_655 S
C866 C867 1.369 . S
C866 C868 1.419 . S
C866 H870 0.930 . S
C867 C866 1.369 . S
C867 C876 1.429 . S
C868 C866 1.419 . S
C868 C869 1.363 . S
C868 H871 0.929 . S
C869 C868 1.363 . S
C869 C875 1.428 . S
H870 C866 0.930 . S
H871 C868 0.929 . S
S872 N873 1.613 . S
S872 N874 1.610 . S
N873 S872 1.613 . S
N873 C876 1.350 . S
N874 S872 1.610 . S
N874 C875 1.351 . S
C875 C869 1.428 . S
C875 N874 1.351 . S
C875 C876 1.434 . S
C876 C867 1.429 . S
C876 N873 1.350 . S
C876 C875 1.434 . S
C877 C878 1.369 1_556 S
C877 C879 1.419 . S
C877 H881 0.930 . S
C878 C877 1.369 1_554 S
C878 C887 1.429 1_554 S
C879 C877 1.419 . S
C879 C880 1.363 . S
C879 H882 0.929 . S
C880 C879 1.363 . S
C880 C886 1.428 . S
H881 C877 0.930 . S
H882 C879 0.929 . S
S883 N884 1.613 1_556 S
S883 N885 1.610 . S
N884 S883 1.613 1_554 S
N884 C887 1.350 1_554 S
N885 S883 1.610 . S
N885 C886 1.351 . S
C886 C880 1.428 . S
C886 N885 1.351 . S
C886 C887 1.434 . S
C887 C878 1.429 1_556 S
C887 N884 1.350 1_556 S
C887 C886 1.434 . S
C888 C889 1.369 . S
C888 C890 1.419 . S
C888 H892 0.930 . S
C889 C888 1.369 . S
C889 C898 1.429 . S
C890 C888 1.419 . S
C890 C891 1.363 . S
C890 H893 0.929 . S
C891 C890 1.363 . S
C891 C897 1.428 . S
H892 C888 0.930 . S
H893 C890 0.929 . S
S894 N895 1.613 . S
S894 N896 1.610 . S
N895 S894 1.613 . S
N895 C898 1.350 . S
N896 S894 1.610 . S
N896 C897 1.351 . S
C897 C891 1.428 . S
C897 N896 1.351 . S
C897 C898 1.434 . S
C898 C889 1.429 . S
C898 N895 1.350 . S
C898 C897 1.434 . S
C899 C900 1.369 . S
C899 C901 1.419 . S
C899 H903 0.930 . S
C900 C899 1.369 . S
C900 C909 1.429 . S
C901 C899 1.419 . S
C901 C902 1.363 . S
C901 H904 0.929 . S
C902 C901 1.363 . S
C902 C908 1.428 . S
H903 C899 0.930 . S
H904 C901 0.929 . S
S905 N906 1.613 . S
S905 N907 1.610 . S
N906 S905 1.613 . S
N906 C909 1.350 . S
N907 S905 1.610 . S
N907 C908 1.351 . S
C908 C902 1.428 . S
C908 N907 1.351 . S
C908 C909 1.434 . S
C909 C900 1.429 . S
C909 N906 1.350 . S
C909 C908 1.434 . S
C910 C911 1.369 . S
C910 C912 1.419 . S
C910 H914 0.930 . S
C911 C910 1.369 . S
C911 C920 1.429 . S
C912 C910 1.419 . S
C912 C913 1.363 . S
C912 H915 0.929 . S
C913 C912 1.363 . S
C913 C919 1.428 . S
H914 C910 0.930 . S
H915 C912 0.929 . S
S916 N917 1.613 . S
S916 N918 1.610 . S
N917 S916 1.613 . S
N917 C920 1.350 . S
N918 S916 1.610 . S
N918 C919 1.351 . S
C919 C913 1.428 . S
C919 N918 1.351 . S
C919 C920 1.434 . S
C920 C911 1.429 . S
C920 N917 1.350 . S
C920 C919 1.434 . S
C921 C922 1.369 1_455 S
C921 C923 1.419 . S
C921 H925 0.930 . S
C922 C921 1.369 1_655 S
C922 C931 1.429 . S
C923 C921 1.419 . S
C923 C924 1.363 1_556 S
C923 H926 0.929 . S
C924 C923 1.363 1_554 S
C924 C930 1.428 1_454 S
H925 C921 0.930 . S
H926 C923 0.929 . S
S927 N928 1.613 . S
S927 N929 1.610 1_556 S
N928 S927 1.613 . S
N928 C931 1.350 . S
N929 S927 1.610 1_554 S
N929 C930 1.351 1_554 S
C930 C924 1.428 1_656 S
C930 N929 1.351 1_556 S
C930 C931 1.434 . S
C931 C922 1.429 . S
C931 N928 1.350 . S
C931 C930 1.434 . S
C932 C933 1.369 . S
C932 C934 1.419 . S
C932 H936 0.930 . S
C933 C932 1.369 . S
C933 C942 1.429 . S
C934 C932 1.419 . S
C934 C935 1.363 . S
C934 H937 0.929 . S
C935 C934 1.363 . S
C935 C941 1.428 . S
H936 C932 0.930 . S
H937 C934 0.929 . S
S938 N939 1.613 . S
S938 N940 1.610 . S
N939 S938 1.613 . S
N939 C942 1.350 . S
N940 S938 1.610 . S
N940 C941 1.351 . S
C941 C935 1.428 . S
C941 N940 1.351 . S
C941 C942 1.434 . S
C942 C933 1.429 . S
C942 N939 1.350 . S
C942 C941 1.434 . S
C943 C944 1.369 . S
C943 C945 1.419 . S
C943 H947 0.930 . S
C944 C943 1.369 . S
C944 C953 1.429 1_655 S
C945 C943 1.419 . S
C945 C946 1.363 1_655 S
C945 H948 0.929 . S
C946 C945 1.363 1_455 S
C946 C952 1.428 . S
H947 C943 0.930 . S
H948 C945 0.929 . S
S949 N950 1.613 . S
S949 N951 1.610 . S
N950 S949 1.613 . S
N950 C953 1.350 . S
N951 S949 1.610 . S
N951 C952 1.351 . S
C952 C946 1.428 . S
C952 N951 1.351 . S
C952 C953 1.434 . S
C953 C944 1.429 1_455 S
C953 N950 1.350 . S
C953 C952 1.434 . S
C954 C955 1.369 . S
C954 C956 1.419 . S
C954 H958 0.930 . S
C955 C954 1.369 . S
C955 C964 1.429 . S
C956 C954 1.419 . S
C956 C957 1.363 . S
C956 H959 0.929 . S
C957 C956 1.363 . S
C957 C963 1.428 . S
H958 C954 0.930 . S
H959 C956 0.929 . S
S960 N961 1.613 . S
S960 N962 1.610 . S
N961 S960 1.613 . S
N961 C964 1.350 . S
N962 S960 1.610 . S
N962 C963 1.351 . S
C963 C957 1.428 . S
C963 N962 1.351 . S
C963 C964 1.434 . S
C964 C955 1.429 . S
C964 N961 1.350 . S
C964 C963 1.434 . S
C965 C966 1.369 . S
C965 C967 1.419 . S
C965 H969 0.930 . S
C966 C965 1.369 . S
C966 C975 1.429 . S
C967 C965 1.419 . S
C967 C968 1.363 1_554 S
C967 H970 0.929 . S
C968 C967 1.363 1_556 S
C968 C974 1.428 1_556 S
H969 C965 0.930 . S
H970 C967 0.929 . S
S971 N972 1.613 . S
S971 N973 1.612 . S
N972 S971 1.613 . S
N972 C975 1.350 . S
N973 S971 1.612 . S
N973 C974 1.352 . S
C974 C968 1.428 1_554 S
C974 N973 1.352 . S
C974 C975 1.434 . S
C975 C966 1.429 . S
C975 N972 1.350 . S
C975 C974 1.434 . S
C976 C977 1.369 . S
C976 C978 1.419 . S
C976 H980 0.930 . S
C977 C976 1.369 . S
C977 C986 1.429 . S
C978 C976 1.419 . S
C978 C979 1.363 . S
C978 H981 0.929 . S
C979 C978 1.363 . S
C979 C985 1.428 . S
H980 C976 0.930 . S
H981 C978 0.929 . S
S982 N983 1.613 . S
S982 N984 1.610 . S
N983 S982 1.613 . S
N983 C986 1.350 . S
N984 S982 1.610 . S
N984 C985 1.351 . S
C985 C979 1.428 . S
C985 N984 1.351 . S
C985 C986 1.434 . S
C986 C977 1.429 . S
C986 N983 1.350 . S
C986 C985 1.434 . S
C987 C988 1.369 . S
C987 C989 1.419 . S
C987 H991 0.930 . S
C988 C987 1.369 . S
C988 C997 1.429 . S
C989 C987 1.419 . S
C989 C990 1.363 . S
C989 H992 0.929 . S
C990 C989 1.363 . S
C990 C996 1.428 . S
H991 C987 0.930 . S
H992 C989 0.929 . S
S993 N994 1.613 . S
S993 N995 1.610 . S
N994 S993 1.613 . S
N994 C997 1.350 . S
N995 S993 1.610 . S
N995 C996 1.351 . S
C996 C990 1.428 . S
C996 N995 1.351 . S
C996 C997 1.434 . S
C997 C988 1.429 . S
C997 N994 1.350 . S
C997 C996 1.434 . S
C998 C999 1.369 . S
C998 C1000 1.419 . S
C998 H1002 0.930 . S
C999 C998 1.369 . S
C999 C1008 1.429 . S
C1000 C998 1.419 . S
C1000 C1001 1.363 . S
C1000 H1003 0.929 . S
C1001 C1000 1.363 . S
C1001 C1007 1.428 . S
H1002 C998 0.930 . S
H1003 C1000 0.929 . S
S1004 N1005 1.613 . S
S1004 N1006 1.610 . S
N1005 S1004 1.613 . S
N1005 C1008 1.350 . S
N1006 S1004 1.610 . S
N1006 C1007 1.351 . S
C1007 C1001 1.428 . S
C1007 N1006 1.351 . S
C1007 C1008 1.434 . S
C1008 C999 1.429 . S
C1008 N1005 1.350 . S
C1008 C1007 1.434 . S
C1009 C1010 1.369 . S
C1009 C1011 1.419 . S
C1009 H1013 0.930 . S
C1010 C1009 1.369 . S
C1010 C1019 1.429 . S
C1011 C1009 1.419 . S
C1011 C1012 1.363 . S
C1011 H1014 0.929 . S
C1012 C1011 1.363 . S
C1012 C1018 1.428 . S
H1013 C1009 0.930 . S
H1014 C1011 0.929 . S
S1015 N1016 1.613 . S
S1015 N1017 1.610 . S
N1016 S1015 1.613 . S
N1016 C1019 1.350 . S
N1017 S1015 1.610 . S
N1017 C1018 1.351 . S
C1018 C1012 1.428 . S
C1018 N1017 1.351 . S
C1018 C1019 1.434 . S
C1019 C1010 1.429 . S
C1019 N1016 1.350 . S
C1019 C1018 1.434 . S
C1020 C1021 1.369 . S
C1020 C1022 1.419 . S
C1020 H1024 0.930 . S
C1021 C1020 1.369 . S
C1021 C1030 1.429 . S
C1022 C1020 1.419 . S
C1022 C1023 1.363 . S
C1022 H1025 0.929 . S
C1023 C1022 1.363 . S
C1023 C1029 1.428 . S
H1024 C1020 0.930 . S
H1025 C1022 0.929 . S
S1026 N1027 1.613 . S
S1026 N1028 1.610 . S
N1027 S1026 1.613 . S
N1027 C1030 1.350 . S
N1028 S1026 1.610 . S
N1028 C1029 1.351 . S
C1029 C1023 1.428 . S
C1029 N1028 1.351 . S
C1029 C1030 1.434 . S
C1030 C1021 1.429 . S
C1030 N1027 1.350 . S
C1030 C1029 1.434 . S
C1031 C1032 1.369 . S
C1031 C1033 1.419 . S
C1031 H1035 0.930 . S
C1032 C1031 1.369 . S
C1032 C1041 1.429 . S
C1033 C1031 1.419 . S
C1033 C1034 1.363 . S
C1033 H1036 0.929 . S
C1034 C1033 1.363 . S
C1034 C1040 1.428 . S
H1035 C1031 0.930 . S
H1036 C1033 0.929 . S
S1037 N1038 1.613 . S
S1037 N1039 1.610 . S
N1038 S1037 1.613 . S
N1038 C1041 1.350 . S
N1039 S1037 1.610 . S
N1039 C1040 1.351 . S
C1040 C1034 1.428 . S
C1040 N1039 1.351 . S
C1040 C1041 1.434 . S
C1041 C1032 1.429 . S
C1041 N1038 1.350 . S
C1041 C1040 1.434 . S
C1042 C1043 1.369 . S
C1042 C1044 1.419 . S
C1042 H1046 0.930 . S
C1043 C1042 1.369 . S
C1043 C1052 1.429 . S
C1044 C1042 1.419 . S
C1044 C1045 1.363 . S
C1044 H1047 0.929 . S
C1045 C1044 1.363 . S
C1045 C1051 1.428 . S
H1046 C1042 0.930 . S
H1047 C1044 0.929 . S
S1048 N1049 1.613 . S
S1048 N1050 1.610 . S
N1049 S1048 1.613 . S
N1049 C1052 1.350 . S
N1050 S1048 1.610 . S
N1050 C1051 1.351 . S
C1051 C1045 1.428 . S
C1051 N1050 1.351 . S
C1051 C1052 1.434 . S
C1052 C1043 1.429 . S
C1052 N1049 1.350 . S
C1052 C1051 1.434 . S
C1053 C1054 1.369 . S
C1053 C1055 1.419 . S
C1053 H1057 0.930 . S
C1054 C1053 1.369 . S
C1054 C1063 1.429 . S
C1055 C1053 1.419 . S
C1055 C1056 1.363 . S
C1055 H1058 0.929 . S
C1056 C1055 1.363 . S
C1056 C1062 1.428 . S
H1057 C1053 0.930 . S
H1058 C1055 0.929 . S
S1059 N1060 1.613 . S
S1059 N1061 1.610 . S
N1060 S1059 1.613 . S
N1060 C1063 1.350 . S
N1061 S1059 1.610 . S
N1061 C1062 1.351 . S
C1062 C1056 1.428 . S
C1062 N1061 1.351 . S
C1062 C1063 1.434 . S
C1063 C1054 1.429 . S
C1063 N1060 1.350 . S
C1063 C1062 1.434 . S
C1064 C1065 1.369 . S
C1064 C1066 1.419 . S
C1064 H1068 0.930 . S
C1065 C1064 1.369 . S
C1065 C1074 1.429 . S
C1066 C1064 1.419 . S
C1066 C1067 1.363 . S
C1066 H1069 0.929 . S
C1067 C1066 1.363 . S
C1067 C1073 1.428 . S
H1068 C1064 0.930 . S
H1069 C1066 0.929 . S
S1070 N1071 1.613 . S
S1070 N1072 1.610 . S
N1071 S1070 1.613 . S
N1071 C1074 1.350 . S
N1072 S1070 1.610 . S
N1072 C1073 1.351 . S
C1073 C1067 1.428 . S
C1073 N1072 1.351 . S
C1073 C1074 1.434 . S
C1074 C1065 1.429 . S
C1074 N1071 1.350 . S
C1074 C1073 1.434 . S
C1075 C1076 1.369 . S
C1075 C1077 1.419 . S
C1075 H1079 0.930 . S
C1076 C1075 1.369 . S
C1076 C1085 1.429 . S
C1077 C1075 1.419 . S
C1077 C1078 1.363 . S
C1077 H1080 0.929 . S
C1078 C1077 1.363 . S
C1078 C1084 1.428 . S
H1079 C1075 0.930 . S
H1080 C1077 0.929 . S
S1081 N1082 1.613 . S
S1081 N1083 1.610 . S
N1082 S1081 1.613 . S
N1082 C1085 1.350 . S
N1083 S1081 1.610 . S
N1083 C1084 1.351 . S
C1084 C1078 1.428 . S
C1084 N1083 1.351 . S
C1084 C1085 1.434 . S
C1085 C1076 1.429 . S
C1085 N1082 1.350 . S
C1085 C1084 1.434 . S
C1086 C1087 1.369 . S
C1086 C1088 1.419 . S
C1086 H1090 0.930 . S
C1087 C1086 1.369 . S
C1087 C1096 1.429 . S
C1088 C1086 1.419 . S
C1088 C1089 1.363 . S
C1088 H1091 0.929 . S
C1089 C1088 1.363 . S
C1089 C1095 1.428 . S
H1090 C1086 0.930 . S
H1091 C1088 0.929 . S
S1092 N1093 1.613 . S
S1092 N1094 1.610 . S
N1093 S1092 1.613 . S
N1093 C1096 1.350 . S
N1094 S1092 1.610 . S
N1094 C1095 1.351 . S
C1095 C1089 1.428 . S
C1095 N1094 1.351 . S
C1095 C1096 1.434 . S
C1096 C1087 1.429 . S
C1096 N1093 1.350 . S
C1096 C1095 1.434 . S
C1097 C1098 1.369 . S
C1097 C1099 1.419 . S
C1097 H1101 0.930 . S
C1098 C1097 1.369 . S
C1098 C1107 1.429 . S
C1099 C1097 1.419 . S
C1099 C1100 1.363 . S
C1099 H1102 0.929 . S
C1100 C1099 1.363 . S
C1100 C1106 1.428 . S
H1101 C1097 0.930 . S
H1102 C1099 0.929 . S
S1103 N1104 1.613 . S
S1103 N1105 1.610 . S
N1104 S1103 1.613 . S
N1104 C1107 1.350 . S
N1105 S1103 1.610 . S
N1105 C1106 1.351 . S
C1106 C1100 1.428 . S
C1106 N1105 1.351 . S
C1106 C1107 1.434 . S
C1107 C1098 1.429 . S
C1107 N1104 1.350 . S
C1107 C1106 1.434 . S
C1108 C1109 1.369 . S
C1108 C1110 1.419 . S
C1108 H1112 0.930 . S
C1109 C1108 1.369 . S
C1109 C1118 1.429 . S
C1110 C1108 1.419 . S
C1110 C1111 1.363 . S
C1110 H1113 0.929 . S
C1111 C1110 1.363 . S
C1111 C1117 1.428 . S
H1112 C1108 0.930 . S
H1113 C1110 0.929 . S
S1114 N1115 1.613 . S
S1114 N1116 1.610 . S
N1115 S1114 1.613 . S
N1115 C1118 1.350 . S
N1116 S1114 1.610 . S
N1116 C1117 1.351 . S
C1117 C1111 1.428 . S
C1117 N1116 1.351 . S
C1117 C1118 1.434 . S
C1118 C1109 1.429 . S
C1118 N1115 1.350 . S
C1118 C1117 1.434 . S
C1119 C1120 1.369 . S
C1119 C1121 1.419 . S
C1119 H1123 0.930 . S
C1120 C1119 1.369 . S
C1120 C1129 1.429 . S
C1121 C1119 1.419 . S
C1121 C1122 1.363 . S
C1121 H1124 0.929 . S
C1122 C1121 1.363 . S
C1122 C1128 1.428 . S
H1123 C1119 0.930 . S
H1124 C1121 0.929 . S
S1125 N1126 1.613 . S
S1125 N1127 1.610 . S
N1126 S1125 1.613 . S
N1126 C1129 1.350 . S
N1127 S1125 1.610 . S
N1127 C1128 1.351 . S
C1128 C1122 1.428 . S
C1128 N1127 1.351 . S
C1128 C1129 1.434 . S
C1129 C1120 1.429 . S
C1129 N1126 1.350 . S
C1129 C1128 1.434 . S
C1130 C1131 1.369 . S
C1130 C1132 1.419 . S
C1130 H1134 0.930 . S
C1131 C1130 1.369 . S
C1131 C1140 1.429 . S
C1132 C1130 1.419 . S
C1132 C1133 1.363 . S
C1132 H1135 0.929 . S
C1133 C1132 1.363 . S
C1133 C1139 1.428 . S
H1134 C1130 0.930 . S
H1135 C1132 0.929 . S
S1136 N1137 1.613 . S
S1136 N1138 1.610 . S
N1137 S1136 1.613 . S
N1137 C1140 1.350 . S
N1138 S1136 1.610 . S
N1138 C1139 1.351 . S
C1139 C1133 1.428 . S
C1139 N1138 1.351 . S
C1139 C1140 1.434 . S
C1140 C1131 1.429 . S
C1140 N1137 1.350 . S
C1140 C1139 1.434 . S
C1141 C1142 1.369 . S
C1141 C1143 1.419 . S
C1141 H1145 0.930 . S
C1142 C1141 1.369 . S
C1142 C1151 1.429 . S
C1143 C1141 1.419 . S
C1143 C1144 1.363 . S
C1143 H1146 0.929 . S
C1144 C1143 1.363 . S
C1144 C1150 1.428 . S
H1145 C1141 0.930 . S
H1146 C1143 0.929 . S
S1147 N1148 1.613 . S
S1147 N1149 1.610 . S
N1148 S1147 1.613 . S
N1148 C1151 1.350 . S
N1149 S1147 1.610 . S
N1149 C1150 1.351 . S
C1150 C1144 1.428 . S
C1150 N1149 1.351 . S
C1150 C1151 1.434 . S
C1151 C1142 1.429 . S
C1151 N1148 1.350 . S
C1151 C1150 1.434 . S
C449 C89 1.498 . S
C451 C5 1.495 . S
C460 C19 1.498 . S
C462 C103 1.494 . S
C471 C61 1.495 . S
C473 C33 1.495 . S
C482 C47 1.496 . S
C484 C75 1.497 . S
C493 C201 1.498 . S
C495 C117 1.495 . S
C504 C215 1.497 . S
C506 C131 1.494 . S
C515 C145 1.496 . S
C517 C173 1.494 . S
C526 C159 1.494 . S
C528 C187 1.497 . S
C537 C229 1.498 . S
C539 C313 1.495 . S
C548 C243 1.497 . S
C550 C327 1.497 . S
C559 C285 1.494 . S
C561 C257 1.497 . S
C570 C299 1.494 . S
C572 C271 1.498 . S
C581 C341 1.494 . S
C583 C425 1.498 . S
C592 C439 1.498 . S
C594 C355 1.495 . S
C603 C397 1.495 . S
C605 C369 1.498 . S
C614 C383 1.496 . S
C616 C411 1.495 . S
C625 C0 1.303 . S
C627 C429 1.342 . S
C636 C219 1.341 . S
C638 C14 1.309 . S
C647 C28 1.307 . S
C649 C401 1.342 . S
C658 C42 1.303 . S
C660 C191 1.342 . S
C669 C373 1.339 . S
C671 C56 1.304 . S
C680 C163 1.342 . S
C682 C70 1.304 . S
C691 C84 1.305 . S
C693 C345 1.342 . S
C702 C135 1.342 . S
C704 C98 1.306 . S
C713 C112 1.304 . S
C715 C317 1.339 . S
C724 C107 1.340 . S
C726 C126 1.310 . S
C735 C140 1.307 . S
C737 C289 1.342 . S
C746 C154 1.302 . S
C748 C79 1.342 . S
C757 C261 1.339 . S
C759 C168 1.305 . S
C768 C182 1.302 . S
C770 C51 1.341 . S
C779 C196 1.309 . S
C781 C233 1.338 . S
C790 C23 1.342 . S
C792 C210 1.303 . S
C801 C224 1.303 . S
C803 C205 1.342 . S
C812 C238 1.308 . S
C814 C443 1.342 . S
C823 C177 1.341 . S
C825 C252 1.303 . S
C834 C266 1.312 . S
C836 C415 1.340 . S
C845 C149 1.340 . S
C847 C280 1.311 . S
C856 C387 1.339 . S
C858 C294 1.310 . S
C867 C121 1.339 . S
C869 C308 1.304 . S
C878 C359 1.342 . S
C880 C322 1.304 . S
C889 C336 1.303 . S
C891 C93 1.340 . S
C900 C331 1.342 . S
C902 C350 1.303 . S
C911 C65 1.341 . S
C913 C364 1.308 . S
C922 C378 1.303 . S
C924 C303 1.342 . S
C933 C392 1.312 . S
C935 C37 1.339 . S
C944 C406 1.311 . S
C946 C275 1.339 . S
C955 C9 1.338 . S
C957 C420 1.307 . S
C966 C434 1.302 . S
C968 C247 1.341 . S
C977 C11 1.440 . S
C979 C305 1.444 . S
C988 C319 1.439 . S
C990 C25 1.444 . S
C999 C39 1.444 . S
C1001 C333 1.442 . S
C1010 C291 1.442 . S
C1012 C53 1.444 . S
C1021 C277 1.440 . S
C1023 C67 1.444 . S
C1032 C235 1.439 . S
C1034 C81 1.443 . S
C1043 C249 1.440 . S
C1045 C95 1.442 . S
C1054 C263 1.440 . S
C1056 C109 1.444 . S
C1065 C123 1.439 . S
C1067 C417 1.444 . S
C1076 C431 1.442 . S
C1078 C137 1.443 . S
C1087 C445 1.439 . S
C1089 C151 1.444 . S
C1098 C403 1.439 . S
C1100 C165 1.444 . S
C1109 C389 1.439 . S
C1111 C179 1.444 . S
C1120 C347 1.439 . S
C1122 C193 1.444 . S
C1131 C207 1.441 . S
C1133 C361 1.442 . S
C1142 C221 1.441 . S
C1144 C375 1.444 . S
