# Generated by pormake.
# Topology npo, (4)-cn, num edge types: 1
# Building blocks:
#     Node 0, Type 0, BuildingBlock: CEKHIL_clean_sbu_0, # of connection points: 4
#     Node 1, Type 0, BuildingBlock: CEKHIL_clean_sbu_0, # of connection points: 4
#     Node 2, Type 0, BuildingBlock: CEKHIL_clean_sbu_0, # of connection points: 4
#     Node 3, Type 0, BuildingBlock: CEKHIL_clean_sbu_0, # of connection points: 4
#     Node 4, Type 0, BuildingBlock: CEKHIL_clean_sbu_0, # of connection points: 4
#     Node 5, Type 0, BuildingBlock: CEKHIL_clean_sbu_0, # of connection points: 4
#     Edge 6, Type (0, 0), BuildingBlock: FUNLAD_clean_linker_1, # of connection points: 2
#     Edge 7, Type (0, 0), BuildingBlock: FUNLAD_clean_linker_1, # of connection points: 2
#     Edge 8, Type (0, 0), BuildingBlock: FUNLAD_clean_linker_1, # of connection points: 2
#     Edge 9, Type (0, 0), BuildingBlock: FUNLAD_clean_linker_1, # of connection points: 2
#     Edge 10, Type (0, 0), BuildingBlock: FUNLAD_clean_linker_1, # of connection points: 2
#     Edge 11, Type (0, 0), BuildingBlock: FUNLAD_clean_linker_1, # of connection points: 2
#     Edge 12, Type (0, 0), BuildingBlock: FUNLAD_clean_linker_1, # of connection points: 2
#     Edge 13, Type (0, 0), BuildingBlock: FUNLAD_clean_linker_1, # of connection points: 2
#     Edge 14, Type (0, 0), BuildingBlock: FUNLAD_clean_linker_1, # of connection points: 2
#     Edge 15, Type (0, 0), BuildingBlock: FUNLAD_clean_linker_1, # of connection points: 2
#     Edge 16, Type (0, 0), BuildingBlock: FUNLAD_clean_linker_1, # of connection points: 2
#     Edge 17, Type (0, 0), BuildingBlock: FUNLAD_clean_linker_1, # of connection points: 2
# Relax obj value: 0.296
# Max RMSD: 0.247
# Mean RMSD: 0.243
data_MOF--net-npo--node1-CEKHIL_clean_sbu_0--edge1-FUNLAD_clean_linker_1
_symmetry_space_group_name_H-M    P1
_symmetry_Int_Tables_number       1
_symmetry_cell_setting            triclinic
loop_
_symmetry_equiv_pos_as_xyz
'x, y, z'
_cell_length_a     46.150308
_cell_length_b     45.175086
_cell_length_c     24.475445
_cell_angle_alpha  91.380132
_cell_angle_beta   90.055124
_cell_angle_gamma 120.79886
loop_
_atom_site_label
_atom_site_type_symbol
_atom_site_fract_x
_atom_site_fract_y
_atom_site_fract_z
_atom_type_partial_charge
Co0 Co 0.54582 0.11034 0.27486 0.0
O1 O 0.50823 0.07047 0.30572 0.0
O2 O 0.56216 0.08729 0.31952 0.0
C3 C 0.5285 0.14768 0.29353 0.0
O4 O 0.59115 0.1504 0.25299 0.0
Co5 Co 0.5367 0.14786 0.17689 0.0
O6 O 0.58377 0.18413 0.19527 0.0
C7 C 0.53628 0.08285 0.1579 0.0
C8 C 0.5306 0.06582 0.3298 0.0
C9 C 0.60237 0.17809 0.22578 0.0
O10 O 0.54432 0.08251 0.20811 0.0
O11 O 0.52961 0.10495 0.1392 0.0
O12 O 0.54331 0.1402 0.3313 0.0
O13 O 0.52137 0.12969 0.24855 0.0
Co14 Co 0.4423 0.56169 0.74095 0.0
O15 O 0.4848 0.5724 0.70952 0.0
O16 O 0.43467 0.52807 0.6844 0.0
C17 C 0.45018 0.61473 0.73927 0.0
O18 O 0.39299 0.54359 0.75991 0.0
Co19 Co 0.43767 0.5938 0.85204 0.0
O20 O 0.39094 0.57737 0.82697 0.0
C21 C 0.45732 0.5411 0.84961 0.0
C22 C 0.46705 0.5459 0.67703 0.0
C23 C 0.37686 0.55445 0.78897 0.0
O24 O 0.44858 0.53399 0.79877 0.0
O25 O 0.45717 0.56568 0.87647 0.0
O26 O 0.44023 0.59522 0.6953 0.0
O27 O 0.45828 0.60307 0.78063 0.0
Co28 Co 0.88016 0.42487 0.24344 0.0
O29 O 0.92066 0.43116 0.27712 0.0
O30 O 0.90346 0.46892 0.28194 0.0
C31 C 0.8456 0.37134 0.27249 0.0
O32 O 0.8389 0.42638 0.21689 0.0
Co33 Co 0.84232 0.36803 0.1527 0.0
O34 O 0.80809 0.38195 0.1576 0.0
C35 C 0.90645 0.4306 0.12823 0.0
C36 C 0.92488 0.45999 0.29705 0.0
C37 C 0.81265 0.40799 0.18606 0.0
O38 O 0.90531 0.44518 0.17347 0.0
O39 O 0.88577 0.39894 0.11549 0.0
O40 O 0.85405 0.39775 0.3048 0.0
O41 O 0.86096 0.37781 0.22629 0.0
Co42 Co 0.4417 0.88193 0.73391 0.0
O43 O 0.44383 0.91332 0.68037 0.0
O44 O 0.48509 0.90335 0.6995 0.0
C45 C 0.39051 0.83723 0.71081 0.0
O46 O 0.44819 0.85059 0.7836 0.0
Co47 Co 0.38678 0.85471 0.82414 0.0
O48 O 0.40075 0.81999 0.83153 0.0
C49 C 0.44541 0.92508 0.83323 0.0
C50 C 0.47396 0.91922 0.67036 0.0
C51 C 0.42907 0.8255 0.81427 0.0
O52 O 0.4596 0.91918 0.79267 0.0
O53 O 0.41523 0.90424 0.84817 0.0
O54 O 0.41666 0.84289 0.68278 0.0
O55 O 0.39553 0.86082 0.74677 0.0
Co56 Co 0.54614 0.42583 0.23538 0.0
O57 O 0.50887 0.42616 0.20082 0.0
O58 O 0.56282 0.46189 0.18255 0.0
C59 C 0.52434 0.36887 0.2268 0.0
O60 O 0.59143 0.43193 0.25958 0.0
Co61 Co 0.53765 0.38609 0.34195 0.0
O62 O 0.58271 0.39377 0.32438 0.0
C63 C 0.53808 0.45184 0.34634 0.0
C64 C 0.53125 0.45104 0.17194 0.0
C65 C 0.60156 0.41599 0.29007 0.0
O66 O 0.54678 0.45755 0.29592 0.0
O67 O 0.53118 0.42408 0.37009 0.0
O68 O 0.54016 0.38852 0.18624 0.0
O69 O 0.52002 0.38361 0.26912 0.0
Co70 Co 0.10786 0.57795 0.75648 0.0
O71 O 0.07774 0.59008 0.79165 0.0
O72 O 0.08001 0.5432 0.80753 0.0
C73 C 0.15427 0.6303 0.76591 0.0
O74 O 0.13667 0.55755 0.73362 0.0
Co75 Co 0.14761 0.61192 0.65149 0.0
O76 O 0.17561 0.59262 0.67446 0.0
C77 C 0.07451 0.56081 0.64407 0.0
C78 C 0.06714 0.56227 0.81922 0.0
C79 C 0.1644 0.56811 0.70787 0.0
O80 O 0.07393 0.55315 0.69465 0.0
O81 O 0.10067 0.58491 0.62129 0.0
O82 O 0.14445 0.60939 0.80646 0.0
O83 O 0.1349 0.6201 0.72321 0.0
H84 H 0.5448 0.19977 0.32644 0.0
C85 C 0.52896 0.18041 0.29561 0.0
H86 H 0.498 0.16848 0.22556 0.0
H87 H 0.53191 0.32291 0.32961 0.0
H88 H 0.50621 0.29393 0.41344 0.0
H89 H 0.48441 0.23168 0.42165 0.0
H90 H 0.48944 0.19853 0.34682 0.0
C91 C 0.51336 0.18789 0.25666 0.0
C92 C 0.52088 0.2237 0.24921 0.0
C93 C 0.51529 0.24189 0.29193 0.0
C94 C 0.52522 0.27698 0.28556 0.0
C95 C 0.52264 0.29559 0.33085 0.0
C96 C 0.50826 0.27935 0.37946 0.0
C97 C 0.49618 0.24438 0.38419 0.0
C98 C 0.49955 0.22573 0.34106 0.0
H99 H 0.49318 0.3138 0.24325 0.0
C100 C 0.5178 0.33379 0.22966 0.0
H101 H 0.56793 0.34794 0.21288 0.0
H102 H 0.53575 0.19671 0.15897 0.0
H103 H 0.56014 0.22555 0.07485 0.0
H104 H 0.574 0.28538 0.06206 0.0
H105 H 0.56378 0.31665 0.13372 0.0
C106 C 0.54306 0.32751 0.22464 0.0
C107 C 0.53764 0.29277 0.23463 0.0
C108 C 0.54342 0.27476 0.19204 0.0
C109 C 0.5351 0.24019 0.19931 0.0
C110 C 0.54146 0.22293 0.15606 0.0
C111 C 0.55544 0.23921 0.1073 0.0
C112 C 0.56323 0.27286 0.10009 0.0
C113 C 0.55721 0.29051 0.14168 0.0
H114 H 0.33381 0.53325 0.73095 0.0
C115 C 0.34195 0.54361 0.77232 0.0
H116 H 0.33099 0.56208 0.84438 0.0
H117 H 0.25401 0.62672 0.73876 0.0
H118 H 0.30309 0.67627 0.78012 0.0
H119 H 0.34901 0.67086 0.82007 0.0
H120 H 0.34632 0.61603 0.81968 0.0
C121 C 0.32257 0.55147 0.80321 0.0
C122 C 0.29424 0.55393 0.77891 0.0
C123 C 0.29671 0.58661 0.77866 0.0
C124 C 0.27063 0.58996 0.75412 0.0
C125 C 0.27336 0.62273 0.75572 0.0
C126 C 0.30134 0.65144 0.77954 0.0
C127 C 0.32721 0.64839 0.80215 0.0
C128 C 0.32516 0.61654 0.80177 0.0
H129 H 0.17799 0.53633 0.7566 0.0
C130 C 0.18574 0.55376 0.72265 0.0
H131 H 0.22484 0.5841 0.66859 0.0
H132 H 0.27926 0.4869 0.77856 0.0
H133 H 0.23103 0.43769 0.73408 0.0
H134 H 0.18808 0.44449 0.68526 0.0
H135 H 0.19276 0.50043 0.68148 0.0
C136 C 0.21641 0.56561 0.70109 0.0
C137 C 0.24248 0.56088 0.72868 0.0
C138 C 0.23988 0.52822 0.72908 0.0
C139 C 0.26544 0.52459 0.75523 0.0
C140 C 0.26134 0.49138 0.75736 0.0
C141 C 0.23365 0.46287 0.73234 0.0
C142 C 0.2094 0.46668 0.705 0.0
C143 C 0.21233 0.4989 0.70331 0.0
H144 H 0.64713 0.22777 0.20679 0.0
C145 C 0.63831 0.20447 0.22998 0.0
H146 H 0.65227 0.17807 0.28473 0.0
H147 H 0.80514 0.26861 0.20898 0.0
H148 H 0.79089 0.21144 0.17669 0.0
H149 H 0.73293 0.16192 0.18449 0.0
H150 H 0.68896 0.16926 0.22515 0.0
C151 C 0.66011 0.20135 0.26212 0.0
C152 C 0.69585 0.22957 0.2656 0.0
C153 C 0.72116 0.22473 0.24207 0.0
C154 C 0.75438 0.25334 0.23684 0.0
C155 C 0.77932 0.24786 0.21322 0.0
C156 C 0.77151 0.21515 0.19466 0.0
C157 C 0.73889 0.18727 0.19909 0.0
C158 C 0.71388 0.19184 0.22244 0.0
H159 H 0.80787 0.33269 0.32641 0.0
C160 C 0.81596 0.33787 0.28425 0.0
H161 H 0.80356 0.32185 0.20163 0.0
H162 H 0.65494 0.24537 0.32438 0.0
H163 H 0.66827 0.30242 0.35577 0.0
H164 H 0.72389 0.35342 0.33788 0.0
H165 H 0.7663 0.34773 0.28927 0.0
C166 C 0.79583 0.3168 0.2439 0.0
C167 C 0.76198 0.28669 0.25471 0.0
C168 C 0.73676 0.29126 0.28012 0.0
C169 C 0.70403 0.26231 0.28741 0.0
C170 C 0.67977 0.26686 0.31582 0.0
C171 C 0.68716 0.29939 0.3344 0.0
C172 C 0.71852 0.32803 0.32465 0.0
C173 C 0.74294 0.32426 0.29725 0.0
H174 H 0.46554 0.80828 0.82103 0.0
C175 C 0.43893 0.79998 0.82359 0.0
H176 H 0.38896 0.75736 0.8226 0.0
H177 H 0.48896 0.70673 0.71032 0.0
H178 H 0.49793 0.74707 0.63951 0.0
H179 H 0.47138 0.78256 0.64481 0.0
H180 H 0.43712 0.77899 0.72205 0.0
C181 C 0.41575 0.76622 0.82199 0.0
C182 C 0.42592 0.74022 0.81341 0.0
C183 C 0.44332 0.74058 0.76536 0.0
C184 C 0.45588 0.71787 0.75967 0.0
C185 C 0.47668 0.72158 0.71466 0.0
C186 C 0.48234 0.7449 0.67397 0.0
C187 C 0.46759 0.76503 0.67713 0.0
C188 C 0.44828 0.763 0.72213 0.0
H189 H 0.43151 0.64821 0.71303 0.0
C190 C 0.44553 0.64435 0.74497 0.0
H191 H 0.46993 0.66088 0.822 0.0
H192 H 0.39242 0.73227 0.90914 0.0
H193 H 0.3778 0.68751 0.97482 0.0
H194 H 0.39398 0.6437 0.95997 0.0
H195 H 0.42552 0.64484 0.88026 0.0
C196 C 0.45655 0.66525 0.78958 0.0
C197 C 0.44746 0.69208 0.79871 0.0
C198 C 0.4286 0.69062 0.84542 0.0
C199 C 0.4184 0.71521 0.85326 0.0
C200 C 0.40041 0.7139 0.90089 0.0
C201 C 0.39181 0.68832 0.93888 0.0
C202 C 0.40095 0.66369 0.93054 0.0
C203 C 0.41915 0.66471 0.88453 0.0
H204 H 0.64402 0.40989 0.31408 0.0
C205 C 0.63581 0.42165 0.28422 0.0
H206 H 0.64776 0.44817 0.20984 0.0
H207 H 0.80352 0.49405 0.2377 0.0
H208 H 0.80688 0.54913 0.25106 0.0
H209 H 0.75525 0.55248 0.25629 0.0
H210 H 0.69986 0.50072 0.24785 0.0
C211 C 0.6552 0.43634 0.24069 0.0
C212 C 0.68641 0.43476 0.23254 0.0
C213 C 0.71854 0.46515 0.23747 0.0
C214 C 0.74832 0.46313 0.23505 0.0
C215 C 0.78008 0.49399 0.23987 0.0
C216 C 0.78238 0.5258 0.24744 0.0
C217 C 0.7533 0.52769 0.25035 0.0
C218 C 0.72168 0.49781 0.24549 0.0
H219 H 0.76897 0.40706 0.14808 0.0
C220 C 0.7855 0.41601 0.18397 0.0
H221 H 0.79323 0.43734 0.26402 0.0
H222 H 0.62905 0.37236 0.21133 0.0
H223 H 0.62506 0.3169 0.20115 0.0
H224 H 0.67614 0.31253 0.20512 0.0
H225 H 0.73121 0.36342 0.21819 0.0
C226 C 0.7773 0.42876 0.22747 0.0
C227 C 0.74592 0.43068 0.22774 0.0
C228 C 0.71361 0.40021 0.22198 0.0
C229 C 0.68396 0.40244 0.22275 0.0
C230 C 0.65221 0.37194 0.2138 0.0
C231 C 0.64957 0.33994 0.20736 0.0
C232 C 0.67831 0.33751 0.20932 0.0
C233 C 0.70994 0.36713 0.2165 0.0
H234 H 0.36044 0.78161 0.69018 0.0
C235 C 0.3601 0.80274 0.71174 0.0
H236 H 0.33362 0.81788 0.76437 0.0
H237 H 0.22134 0.65656 0.67724 0.0
H238 H 0.23413 0.67695 0.58448 0.0
H239 H 0.2778 0.73724 0.56726 0.0
H240 H 0.30953 0.77677 0.64218 0.0
C241 C 0.33339 0.79672 0.74188 0.0
C242 C 0.30483 0.76123 0.75125 0.0
C243 C 0.28516 0.73933 0.7068 0.0
C244 C 0.25817 0.70553 0.71684 0.0
C245 C 0.24068 0.6831 0.67177 0.0
C246 C 0.24799 0.69442 0.61841 0.0
C247 C 0.27269 0.72827 0.60872 0.0
C248 C 0.29104 0.75061 0.65222 0.0
H249 H 0.18893 0.68299 0.74128 0.0
C250 C 0.18726 0.66189 0.76428 0.0
H251 H 0.21452 0.64234 0.80364 0.0
H252 H 0.3381 0.79576 0.84609 0.0
H253 H 0.32489 0.77442 0.93787 0.0
H254 H 0.27645 0.71644 0.95474 0.0
H255 H 0.24118 0.67947 0.87957 0.0
C256 C 0.21558 0.66363 0.78209 0.0
C257 C 0.24883 0.69483 0.77129 0.0
C258 C 0.26927 0.71592 0.81548 0.0
C259 C 0.29722 0.74927 0.80556 0.0
C260 C 0.31688 0.77006 0.85082 0.0
C261 C 0.30945 0.75817 0.9039 0.0
C262 C 0.28216 0.72556 0.91341 0.0
C263 C 0.26209 0.70464 0.8699 0.0
H264 H 0.45188 0.96423 0.89415 0.0
C265 C 0.46548 0.95513 0.86932 0.0
H266 H 0.51166 0.95604 0.8601 0.0
H267 H 0.57182 0.09783 0.00703 0.0
H268 H 0.59998 0.12116 0.92126 0.0
H269 H 0.5883 0.08311 0.83988 0.0
H270 H 0.54856 0.02131 0.84406 0.0
C271 C 0.49773 0.96586 0.8821 0.0
C272 C 0.51249 0.98698 0.93283 0.0
C273 C 0.53597 0.02255 0.92981 0.0
C274 C 0.54223 0.04438 0.97643 0.0
C275 C 0.56567 0.08012 0.97244 0.0
C276 C 0.58209 0.09379 0.92357 0.0
C277 C 0.57553 0.07236 0.87775 0.0
C278 C 0.55267 0.03708 0.88057 0.0
H279 H 0.54477 0.0405 0.13244 0.0
C280 C 0.53564 0.0571 0.11909 0.0
H281 H 0.516 0.0716 0.05388 0.0
H282 H 0.47495 0.91861 0.9552 0.0
H283 H 0.44703 0.89424 0.04075 0.0
H284 H 0.45279 0.93212 0.11952 0.0
H285 H 0.48693 0.99405 0.11392 0.0
C286 C 0.52422 0.05432 0.06761 0.0
C287 C 0.52445 0.03041 0.02541 0.0
C288 C 0.50346 0.99418 0.02985 0.0
C289 C 0.49856 0.97239 0.98374 0.0
C290 C 0.47842 0.93622 0.98881 0.0
C291 C 0.46242 0.92195 0.03759 0.0
C292 C 0.46577 0.94328 0.08197 0.0
C293 C 0.48581 0.97896 0.07829 0.0
H294 H 0.52646 0.49362 0.35623 0.0
C295 C 0.53261 0.47679 0.37792 0.0
H296 H 0.53648 0.45796 0.45384 0.0
H297 H 0.51358 0.58176 0.55106 0.0
H298 H 0.56627 0.62259 0.5087 0.0
H299 H 0.59536 0.60245 0.44712 0.0
H300 H 0.57155 0.54137 0.42665 0.0
C301 C 0.53055 0.47516 0.43272 0.0
C302 C 0.51235 0.48856 0.46513 0.0
C303 C 0.52712 0.52419 0.47768 0.0
C304 C 0.51107 0.53567 0.51505 0.0
C305 C 0.52547 0.57153 0.52494 0.0
C306 C 0.55555 0.59525 0.50051 0.0
C307 C 0.57189 0.58392 0.46571 0.0
C308 C 0.55795 0.54881 0.45426 0.0
H309 H 0.50928 0.54461 0.63718 0.0
C310 C 0.483 0.53732 0.63241 0.0
H311 H 0.44004 0.51557 0.58076 0.0
H312 H 0.47478 0.41897 0.44302 0.0
H313 H 0.42191 0.37817 0.48448 0.0
H314 H 0.39565 0.39758 0.55314 0.0
H315 H 0.4219 0.45783 0.58032 0.0
C316 C 0.46612 0.5222 0.58558 0.0
C317 C 0.48109 0.51126 0.54142 0.0
C318 C 0.46538 0.4758 0.52638 0.0
C319 C 0.48089 0.46451 0.48783 0.0
C320 C 0.4645 0.42894 0.47303 0.0
C321 C 0.43404 0.40521 0.49632 0.0
C322 C 0.41923 0.41615 0.53487 0.0
C323 C 0.43461 0.45093 0.55 0.0
H324 H 0.03815 0.57413 0.87837 0.0
C325 C 0.04378 0.55452 0.865 0.0
H326 H 0.03777 0.50599 0.87963 0.0
H327 H 0.00652 0.49123 0.12683 0.0
H328 H 0.06125 0.49563 0.12458 0.0
H329 H 0.09467 0.51193 0.04034 0.0
H330 H 0.07358 0.52362 0.95786 0.0
C331 C 0.03125 0.52507 0.89225 0.0
C332 C 0.01242 0.51926 0.94421 0.0
C333 C 0.02565 0.51344 0.99256 0.0
C334 C 0.00665 0.50444 0.04137 0.0
C335 C 0.01999 0.498 0.08868 0.0
C336 C 0.05138 0.50058 0.088 0.0
C337 C 0.07018 0.50975 0.04056 0.0
C338 C 0.05767 0.51623 0.99337 0.0
H339 H 0.93369 0.43595 0.05239 0.0
C340 C 0.93199 0.45045 0.08717 0.0
H341 H 0.95043 0.50062 0.12157 0.0
H342 H 0.97826 0.52712 0.85879 0.0
H343 H 0.92523 0.52576 0.86366 0.0
H344 H 0.8946 0.51427 0.95045 0.0
H345 H 0.91683 0.50353 0.03288 0.0
C346 C 0.95177 0.48489 0.08854 0.0
C347 C 0.9747 0.50162 0.04203 0.0
C348 C 0.96247 0.50971 0.99505 0.0
C349 C 0.98088 0.51772 0.94559 0.0
C350 C 0.96642 0.52268 0.89817 0.0
C351 C 0.93571 0.52159 0.90024 0.0
C352 C 0.91841 0.515 0.94905 0.0
C353 C 0.93138 0.50884 0.99595 0.0
H354 H 0.49341 0.02338 0.37897 0.0
C355 C 0.52021 0.03909 0.37068 0.0
H356 H 0.56945 0.05244 0.39497 0.0
H357 H 0.52193 0.01231 0.639 0.0
H358 H 0.5632 0.07338 0.64871 0.0
H359 H 0.5903 0.10799 0.56776 0.0
H360 H 0.57633 0.08177 0.47673 0.0
C361 C 0.54254 0.03593 0.40139 0.0
C362 C 0.53095 0.0139 0.45009 0.0
C363 C 0.54017 0.0296 0.50311 0.0
C364 C 0.52462 0.00967 0.5498 0.0
C365 C 0.53326 0.02615 0.60219 0.0
C366 C 0.55684 0.06122 0.60834 0.0
C367 C 0.57208 0.08071 0.56277 0.0
C368 C 0.56384 0.06528 0.51068 0.0
H369 H 0.51996 0.94742 0.62125 0.0
C370 C 0.49425 0.94182 0.62624 0.0
H371 H 0.45485 0.94734 0.59394 0.0
H372 H 0.51293 0.9748 0.35529 0.0
H373 H 0.47243 0.91339 0.34575 0.0
H374 H 0.4441 0.87915 0.42651 0.0
H375 H 0.45634 0.90603 0.5173 0.0
C376 C 0.481 0.95405 0.59082 0.0
C377 C 0.50016 0.97416 0.54321 0.0
C378 C 0.49244 0.95808 0.49053 0.0
C379 C 0.50822 0.9779 0.44392 0.0
C380 C 0.50081 0.96107 0.39186 0.0
C381 C 0.47783 0.92582 0.38588 0.0
C382 C 0.46192 0.90654 0.43136 0.0
C383 C 0.4691 0.92231 0.4832 0.0
H384 H 0.47541 0.50413 0.85447 0.0
C385 C 0.47002 0.52137 0.87814 0.0
H386 H 0.47228 0.54423 0.95547 0.0
H387 H 0.49359 0.41935 0.04073 0.0
H388 H 0.4403 0.37859 0.99602 0.0
H389 H 0.41091 0.39882 0.93704 0.0
H390 H 0.435 0.4597 0.92126 0.0
C391 C 0.47694 0.52631 0.93221 0.0
C392 C 0.49553 0.51261 0.96184 0.0
C393 C 0.48033 0.47695 0.9719 0.0
C394 C 0.49634 0.46542 0.00828 0.0
C395 C 0.48164 0.42957 0.01557 0.0
C396 C 0.45123 0.40591 0.98981 0.0
C397 C 0.43475 0.41729 0.95645 0.0
C398 C 0.44896 0.45237 0.94755 0.0
H399 H 0.495 0.46015 0.12849 0.0
C400 C 0.52047 0.46457 0.12728 0.0
H401 H 0.56477 0.48291 0.08111 0.0
H402 H 0.53425 0.58173 0.94374 0.0
H403 H 0.58795 0.62217 0.98747 0.0
H404 H 0.61398 0.60253 0.05458 0.0
H405 H 0.58665 0.54232 0.078 0.0
C406 C 0.53944 0.47877 0.08316 0.0
C407 C 0.52636 0.48972 0.03689 0.0
C408 C 0.5428 0.52496 0.02362 0.0
C409 C 0.52746 0.53636 0.98576 0.0
C410 C 0.54444 0.57176 0.9731 0.0
C411 C 0.57534 0.59523 0.9977 0.0
C412 C 0.59002 0.58416 0.03541 0.0
C413 C 0.57403 0.54949 0.04849 0.0
H414 H 0.01962 0.52455 0.62936 0.0
C415 C 0.04348 0.54161 0.61001 0.0
H416 H 0.06852 0.56352 0.53657 0.0
H417 H 0.9296 0.43553 0.42495 0.0
H418 H 0.94032 0.39641 0.47525 0.0
H419 H 0.98614 0.4186 0.54445 0.0
H420 H 0.0208 0.47984 0.56483 0.0
C421 C 0.04467 0.54598 0.55559 0.0
C422 C 0.01446 0.53124 0.51904 0.0
C423 C 0.99536 0.49538 0.50646 0.0
C424 C 0.97025 0.48274 0.46432 0.0
C425 C 0.95014 0.44666 0.45456 0.0
C426 C 0.95584 0.42389 0.48346 0.0
C427 C 0.98154 0.43638 0.52257 0.0
C428 C 0.00119 0.47167 0.53404 0.0
H429 H 0.97186 0.4755 0.34252 0.0
C430 C 0.95007 0.47867 0.34069 0.0
H431 H 0.92134 0.49614 0.38255 0.0
H432 H 0.04293 0.60064 0.53874 0.0
H433 H 0.03194 0.63961 0.48845 0.0
H434 H 0.99069 0.61799 0.41192 0.0
H435 H 0.96001 0.55725 0.38549 0.0
C436 C 0.94361 0.49375 0.3831 0.0
C437 C 0.96582 0.50617 0.43274 0.0
C438 C 0.98337 0.54166 0.44765 0.0
C439 C 0.00755 0.55417 0.4911 0.0
C440 C 0.02475 0.58983 0.50532 0.0
C441 C 0.01858 0.61246 0.47697 0.0
C442 C 0.99532 0.60028 0.43395 0.0
C443 C 0.97787 0.56534 0.41921 0.0
loop_
_geom_bond_atom_site_label_1
_geom_bond_atom_site_label_2
_geom_bond_distance
_geom_bond_site_symmetry_2
_ccdc_geom_bond_type
Co0 O1 2.216 . S
Co0 O2 2.091 . S
Co0 O4 2.004 . S
Co0 O10 2.021 . S
Co0 O12 2.137 . S
Co0 O13 2.244 . S
O1 Co0 2.216 . S
O1 C8 1.247 . S
O2 Co0 2.091 . S
O2 C8 1.261 . S
C3 O12 1.247 . S
C3 O13 1.272 . S
O4 Co0 2.004 . S
O4 C9 1.259 . S
Co5 O6 2.061 . S
Co5 O11 2.052 . S
Co5 O13 2.135 . S
O6 Co5 2.061 . S
O6 C9 1.235 . S
C7 O10 1.238 . S
C7 O11 1.241 . S
C8 O1 1.247 . S
C8 O2 1.261 . S
C9 O4 1.259 . S
C9 O6 1.235 . S
O10 Co0 2.021 . S
O10 C7 1.238 . S
O11 Co5 2.052 . S
O11 C7 1.241 . S
O12 Co0 2.137 . S
O12 C3 1.247 . S
O13 Co0 2.244 . S
O13 C3 1.272 . S
O13 Co5 2.135 . S
Co14 O15 2.216 . S
Co14 O16 2.091 . S
Co14 O18 2.004 . S
Co14 O24 2.021 . S
Co14 O26 2.137 . S
Co14 O27 2.244 . S
O15 Co14 2.216 . S
O15 C22 1.247 . S
O16 Co14 2.091 . S
O16 C22 1.261 . S
C17 O26 1.247 . S
C17 O27 1.272 . S
O18 Co14 2.004 . S
O18 C23 1.259 . S
Co19 O20 2.061 . S
Co19 O25 2.052 . S
Co19 O27 2.135 . S
O20 Co19 2.061 . S
O20 C23 1.235 . S
C21 O24 1.238 . S
C21 O25 1.241 . S
C22 O15 1.247 . S
C22 O16 1.261 . S
C23 O18 1.259 . S
C23 O20 1.235 . S
O24 Co14 2.021 . S
O24 C21 1.238 . S
O25 Co19 2.052 . S
O25 C21 1.241 . S
O26 Co14 2.137 . S
O26 C17 1.247 . S
O27 Co14 2.244 . S
O27 C17 1.272 . S
O27 Co19 2.135 . S
Co28 O29 2.216 . S
Co28 O30 2.091 . S
Co28 O32 2.004 . S
Co28 O38 2.021 . S
Co28 O40 2.137 . S
Co28 O41 2.244 . S
O29 Co28 2.216 . S
O29 C36 1.247 . S
O30 Co28 2.091 . S
O30 C36 1.261 . S
C31 O40 1.247 . S
C31 O41 1.272 . S
O32 Co28 2.004 . S
O32 C37 1.259 . S
Co33 O34 2.061 . S
Co33 O39 2.052 . S
Co33 O41 2.135 . S
O34 Co33 2.061 . S
O34 C37 1.235 . S
C35 O38 1.238 . S
C35 O39 1.241 . S
C36 O29 1.247 . S
C36 O30 1.261 . S
C37 O32 1.259 . S
C37 O34 1.235 . S
O38 Co28 2.021 . S
O38 C35 1.238 . S
O39 Co33 2.052 . S
O39 C35 1.241 . S
O40 Co28 2.137 . S
O40 C31 1.247 . S
O41 Co28 2.244 . S
O41 C31 1.272 . S
O41 Co33 2.135 . S
Co42 O43 2.216 . S
Co42 O44 2.091 . S
Co42 O46 2.004 . S
Co42 O52 2.021 . S
Co42 O54 2.137 . S
Co42 O55 2.244 . S
O43 Co42 2.216 . S
O43 C50 1.247 . S
O44 Co42 2.091 . S
O44 C50 1.261 . S
C45 O54 1.247 . S
C45 O55 1.272 . S
O46 Co42 2.004 . S
O46 C51 1.259 . S
Co47 O48 2.061 . S
Co47 O53 2.052 . S
Co47 O55 2.135 . S
O48 Co47 2.061 . S
O48 C51 1.235 . S
C49 O52 1.238 . S
C49 O53 1.241 . S
C50 O43 1.247 . S
C50 O44 1.261 . S
C51 O46 1.259 . S
C51 O48 1.235 . S
O52 Co42 2.021 . S
O52 C49 1.238 . S
O53 Co47 2.052 . S
O53 C49 1.241 . S
O54 Co42 2.137 . S
O54 C45 1.247 . S
O55 Co42 2.244 . S
O55 C45 1.272 . S
O55 Co47 2.135 . S
Co56 O57 2.216 . S
Co56 O58 2.091 . S
Co56 O60 2.004 . S
Co56 O66 2.021 . S
Co56 O68 2.137 . S
Co56 O69 2.244 . S
O57 Co56 2.216 . S
O57 C64 1.247 . S
O58 Co56 2.091 . S
O58 C64 1.261 . S
C59 O68 1.247 . S
C59 O69 1.272 . S
O60 Co56 2.004 . S
O60 C65 1.259 . S
Co61 O62 2.061 . S
Co61 O67 2.052 . S
Co61 O69 2.135 . S
O62 Co61 2.061 . S
O62 C65 1.235 . S
C63 O66 1.238 . S
C63 O67 1.241 . S
C64 O57 1.247 . S
C64 O58 1.261 . S
C65 O60 1.259 . S
C65 O62 1.235 . S
O66 Co56 2.021 . S
O66 C63 1.238 . S
O67 Co61 2.052 . S
O67 C63 1.241 . S
O68 Co56 2.137 . S
O68 C59 1.247 . S
O69 Co56 2.244 . S
O69 C59 1.272 . S
O69 Co61 2.135 . S
Co70 O71 2.216 . S
Co70 O72 2.091 . S
Co70 O74 2.004 . S
Co70 O80 2.021 . S
Co70 O82 2.137 . S
Co70 O83 2.244 . S
O71 Co70 2.216 . S
O71 C78 1.247 . S
O72 Co70 2.091 . S
O72 C78 1.261 . S
C73 O82 1.247 . S
C73 O83 1.272 . S
O74 Co70 2.004 . S
O74 C79 1.259 . S
Co75 O76 2.061 . S
Co75 O81 2.052 . S
Co75 O83 2.135 . S
O76 Co75 2.061 . S
O76 C79 1.235 . S
C77 O80 1.238 . S
C77 O81 1.241 . S
C78 O71 1.247 . S
C78 O72 1.261 . S
C79 O74 1.259 . S
C79 O76 1.235 . S
O80 Co70 2.021 . S
O80 C77 1.238 . S
O81 Co75 2.052 . S
O81 C77 1.241 . S
O82 Co70 2.137 . S
O82 C73 1.247 . S
O83 Co70 2.244 . S
O83 C73 1.272 . S
O83 Co75 2.135 . S
H84 C85 0.951 . S
C85 H84 0.951 . S
C85 C91 1.265 . S
H86 C91 0.950 . S
H87 C95 0.949 . S
H88 C96 0.950 . S
H89 C97 0.951 . S
H90 C98 0.951 . S
C91 C85 1.265 . S
C91 H86 0.950 . S
C91 C92 1.478 . S
C92 C91 1.478 . S
C92 C93 1.397 . S
C92 C109 1.394 . S
C93 C92 1.397 . S
C93 C94 1.438 . S
C93 C98 1.429 . S
C94 C93 1.438 . S
C94 C95 1.428 . S
C94 C107 1.394 . S
C95 H87 0.949 . S
C95 C94 1.428 . S
C95 C96 1.345 . S
C96 H88 0.950 . S
C96 C95 1.345 . S
C96 C97 1.424 . S
C97 H89 0.951 . S
C97 C96 1.424 . S
C97 C98 1.347 . S
C98 H90 0.951 . S
C98 C93 1.429 . S
C98 C97 1.347 . S
H99 C100 0.951 . S
C100 H99 0.951 . S
C100 C106 1.265 . S
H101 C106 0.950 . S
H102 C110 0.949 . S
H103 C111 0.950 . S
H104 C112 0.951 . S
H105 C113 0.951 . S
C106 C100 1.265 . S
C106 H101 0.950 . S
C106 C107 1.478 . S
C107 C94 1.394 . S
C107 C106 1.478 . S
C107 C108 1.397 . S
C108 C107 1.397 . S
C108 C109 1.438 . S
C108 C113 1.429 . S
C109 C92 1.394 . S
C109 C108 1.438 . S
C109 C110 1.428 . S
C110 H102 0.949 . S
C110 C109 1.428 . S
C110 C111 1.345 . S
C111 H103 0.950 . S
C111 C110 1.345 . S
C111 C112 1.424 . S
C112 H104 0.951 . S
C112 C111 1.424 . S
C112 C113 1.347 . S
C113 H105 0.951 . S
C113 C108 1.429 . S
C113 C112 1.347 . S
H114 C115 0.951 . S
C115 H114 0.951 . S
C115 C121 1.265 . S
H116 C121 0.950 . S
H117 C125 0.949 . S
H118 C126 0.950 . S
H119 C127 0.951 . S
H120 C128 0.951 . S
C121 C115 1.265 . S
C121 H116 0.950 . S
C121 C122 1.478 . S
C122 C121 1.478 . S
C122 C123 1.397 . S
C122 C139 1.394 . S
C123 C122 1.397 . S
C123 C124 1.438 . S
C123 C128 1.429 . S
C124 C123 1.438 . S
C124 C125 1.428 . S
C124 C137 1.394 . S
C125 H117 0.949 . S
C125 C124 1.428 . S
C125 C126 1.345 . S
C126 H118 0.950 . S
C126 C125 1.345 . S
C126 C127 1.424 . S
C127 H119 0.951 . S
C127 C126 1.424 . S
C127 C128 1.347 . S
C128 H120 0.951 . S
C128 C123 1.429 . S
C128 C127 1.347 . S
H129 C130 0.951 . S
C130 H129 0.951 . S
C130 C136 1.265 . S
H131 C136 0.950 . S
H132 C140 0.949 . S
H133 C141 0.950 . S
H134 C142 0.951 . S
H135 C143 0.951 . S
C136 C130 1.265 . S
C136 H131 0.950 . S
C136 C137 1.478 . S
C137 C124 1.394 . S
C137 C136 1.478 . S
C137 C138 1.397 . S
C138 C137 1.397 . S
C138 C139 1.438 . S
C138 C143 1.429 . S
C139 C122 1.394 . S
C139 C138 1.438 . S
C139 C140 1.428 . S
C140 H132 0.949 . S
C140 C139 1.428 . S
C140 C141 1.345 . S
C141 H133 0.950 . S
C141 C140 1.345 . S
C141 C142 1.424 . S
C142 H134 0.951 . S
C142 C141 1.424 . S
C142 C143 1.347 . S
C143 H135 0.951 . S
C143 C138 1.429 . S
C143 C142 1.347 . S
H144 C145 0.951 . S
C145 H144 0.951 . S
C145 C151 1.265 . S
H146 C151 0.950 . S
H147 C155 0.949 . S
H148 C156 0.950 . S
H149 C157 0.951 . S
H150 C158 0.951 . S
C151 C145 1.265 . S
C151 H146 0.950 . S
C151 C152 1.478 . S
C152 C151 1.478 . S
C152 C153 1.397 . S
C152 C169 1.394 . S
C153 C152 1.397 . S
C153 C154 1.438 . S
C153 C158 1.429 . S
C154 C153 1.438 . S
C154 C155 1.428 . S
C154 C167 1.394 . S
C155 H147 0.949 . S
C155 C154 1.428 . S
C155 C156 1.345 . S
C156 H148 0.950 . S
C156 C155 1.345 . S
C156 C157 1.424 . S
C157 H149 0.951 . S
C157 C156 1.424 . S
C157 C158 1.347 . S
C158 H150 0.951 . S
C158 C153 1.429 . S
C158 C157 1.347 . S
H159 C160 0.951 . S
C160 H159 0.951 . S
C160 C166 1.265 . S
H161 C166 0.950 . S
H162 C170 0.949 . S
H163 C171 0.950 . S
H164 C172 0.951 . S
H165 C173 0.951 . S
C166 C160 1.265 . S
C166 H161 0.950 . S
C166 C167 1.478 . S
C167 C154 1.394 . S
C167 C166 1.478 . S
C167 C168 1.397 . S
C168 C167 1.397 . S
C168 C169 1.438 . S
C168 C173 1.429 . S
C169 C152 1.394 . S
C169 C168 1.438 . S
C169 C170 1.428 . S
C170 H162 0.949 . S
C170 C169 1.428 . S
C170 C171 1.345 . S
C171 H163 0.950 . S
C171 C170 1.345 . S
C171 C172 1.424 . S
C172 H164 0.951 . S
C172 C171 1.424 . S
C172 C173 1.347 . S
C173 H165 0.951 . S
C173 C168 1.429 . S
C173 C172 1.347 . S
H174 C175 0.951 . S
C175 H174 0.951 . S
C175 C181 1.265 . S
H176 C181 0.950 . S
H177 C185 0.949 . S
H178 C186 0.950 . S
H179 C187 0.951 . S
H180 C188 0.951 . S
C181 C175 1.265 . S
C181 H176 0.950 . S
C181 C182 1.478 . S
C182 C181 1.478 . S
C182 C183 1.397 . S
C182 C199 1.394 . S
C183 C182 1.397 . S
C183 C184 1.438 . S
C183 C188 1.429 . S
C184 C183 1.438 . S
C184 C185 1.428 . S
C184 C197 1.394 . S
C185 H177 0.949 . S
C185 C184 1.428 . S
C185 C186 1.345 . S
C186 H178 0.950 . S
C186 C185 1.345 . S
C186 C187 1.424 . S
C187 H179 0.951 . S
C187 C186 1.424 . S
C187 C188 1.347 . S
C188 H180 0.951 . S
C188 C183 1.429 . S
C188 C187 1.347 . S
H189 C190 0.951 . S
C190 H189 0.951 . S
C190 C196 1.265 . S
H191 C196 0.950 . S
H192 C200 0.949 . S
H193 C201 0.950 . S
H194 C202 0.951 . S
H195 C203 0.951 . S
C196 C190 1.265 . S
C196 H191 0.950 . S
C196 C197 1.478 . S
C197 C184 1.394 . S
C197 C196 1.478 . S
C197 C198 1.397 . S
C198 C197 1.397 . S
C198 C199 1.438 . S
C198 C203 1.429 . S
C199 C182 1.394 . S
C199 C198 1.438 . S
C199 C200 1.428 . S
C200 H192 0.949 . S
C200 C199 1.428 . S
C200 C201 1.345 . S
C201 H193 0.950 . S
C201 C200 1.345 . S
C201 C202 1.424 . S
C202 H194 0.951 . S
C202 C201 1.424 . S
C202 C203 1.347 . S
C203 H195 0.951 . S
C203 C198 1.429 . S
C203 C202 1.347 . S
H204 C205 0.951 . S
C205 H204 0.951 . S
C205 C211 1.265 . S
H206 C211 0.950 . S
H207 C215 0.949 . S
H208 C216 0.950 . S
H209 C217 0.951 . S
H210 C218 0.951 . S
C211 C205 1.265 . S
C211 H206 0.950 . S
C211 C212 1.478 . S
C212 C211 1.478 . S
C212 C213 1.397 . S
C212 C229 1.394 . S
C213 C212 1.397 . S
C213 C214 1.438 . S
C213 C218 1.429 . S
C214 C213 1.438 . S
C214 C215 1.428 . S
C214 C227 1.394 . S
C215 H207 0.949 . S
C215 C214 1.428 . S
C215 C216 1.345 . S
C216 H208 0.950 . S
C216 C215 1.345 . S
C216 C217 1.424 . S
C217 H209 0.951 . S
C217 C216 1.424 . S
C217 C218 1.347 . S
C218 H210 0.951 . S
C218 C213 1.429 . S
C218 C217 1.347 . S
H219 C220 0.951 . S
C220 H219 0.951 . S
C220 C226 1.265 . S
H221 C226 0.950 . S
H222 C230 0.949 . S
H223 C231 0.950 . S
H224 C232 0.951 . S
H225 C233 0.951 . S
C226 C220 1.265 . S
C226 H221 0.950 . S
C226 C227 1.478 . S
C227 C214 1.394 . S
C227 C226 1.478 . S
C227 C228 1.397 . S
C228 C227 1.397 . S
C228 C229 1.438 . S
C228 C233 1.429 . S
C229 C212 1.394 . S
C229 C228 1.438 . S
C229 C230 1.428 . S
C230 H222 0.949 . S
C230 C229 1.428 . S
C230 C231 1.345 . S
C231 H223 0.950 . S
C231 C230 1.345 . S
C231 C232 1.424 . S
C232 H224 0.951 . S
C232 C231 1.424 . S
C232 C233 1.347 . S
C233 H225 0.951 . S
C233 C228 1.429 . S
C233 C232 1.347 . S
H234 C235 0.951 . S
C235 H234 0.951 . S
C235 C241 1.265 . S
H236 C241 0.950 . S
H237 C245 0.949 . S
H238 C246 0.950 . S
H239 C247 0.951 . S
H240 C248 0.951 . S
C241 C235 1.265 . S
C241 H236 0.950 . S
C241 C242 1.478 . S
C242 C241 1.478 . S
C242 C243 1.397 . S
C242 C259 1.394 . S
C243 C242 1.397 . S
C243 C244 1.438 . S
C243 C248 1.429 . S
C244 C243 1.438 . S
C244 C245 1.428 . S
C244 C257 1.394 . S
C245 H237 0.949 . S
C245 C244 1.428 . S
C245 C246 1.345 . S
C246 H238 0.950 . S
C246 C245 1.345 . S
C246 C247 1.424 . S
C247 H239 0.951 . S
C247 C246 1.424 . S
C247 C248 1.347 . S
C248 H240 0.951 . S
C248 C243 1.429 . S
C248 C247 1.347 . S
H249 C250 0.951 . S
C250 H249 0.951 . S
C250 C256 1.265 . S
H251 C256 0.950 . S
H252 C260 0.949 . S
H253 C261 0.950 . S
H254 C262 0.951 . S
H255 C263 0.951 . S
C256 C250 1.265 . S
C256 H251 0.950 . S
C256 C257 1.478 . S
C257 C244 1.394 . S
C257 C256 1.478 . S
C257 C258 1.397 . S
C258 C257 1.397 . S
C258 C259 1.438 . S
C258 C263 1.429 . S
C259 C242 1.394 . S
C259 C258 1.438 . S
C259 C260 1.428 . S
C260 H252 0.949 . S
C260 C259 1.428 . S
C260 C261 1.345 . S
C261 H253 0.950 . S
C261 C260 1.345 . S
C261 C262 1.424 . S
C262 H254 0.951 . S
C262 C261 1.424 . S
C262 C263 1.347 . S
C263 H255 0.951 . S
C263 C258 1.429 . S
C263 C262 1.347 . S
H264 C265 0.951 . S
C265 H264 0.951 . S
C265 C271 1.265 . S
H266 C271 0.950 . S
H267 C275 0.949 1_554 S
H268 C276 0.950 . S
H269 C277 0.951 . S
H270 C278 0.951 . S
C271 C265 1.265 . S
C271 H266 0.950 . S
C271 C272 1.478 . S
C272 C271 1.478 . S
C272 C273 1.397 1_565 S
C272 C289 1.396 . S
C273 C272 1.397 1_545 S
C273 C274 1.436 1_556 S
C273 C278 1.429 . S
C274 C273 1.436 1_554 S
C274 C275 1.428 1_554 S
C274 C287 1.396 . S
C275 H267 0.949 1_556 S
C275 C274 1.428 1_556 S
C275 C276 1.345 . S
C276 H268 0.950 . S
C276 C275 1.345 . S
C276 C277 1.424 . S
C277 H269 0.951 . S
C277 C276 1.424 . S
C277 C278 1.347 . S
C278 H270 0.951 . S
C278 C273 1.429 . S
C278 C277 1.347 . S
H279 C280 0.951 . S
C280 H279 0.951 . S
C280 C286 1.265 . S
H281 C286 0.950 . S
H282 C290 0.949 1_556 S
H283 C291 0.950 . S
H284 C292 0.951 . S
H285 C293 0.951 . S
C286 C280 1.265 . S
C286 H281 0.950 . S
C286 C287 1.478 . S
C287 C274 1.396 . S
C287 C286 1.478 . S
C287 C288 1.397 1_545 S
C288 C287 1.397 1_565 S
C288 C289 1.436 1_554 S
C288 C293 1.429 . S
C289 C272 1.396 . S
C289 C288 1.436 1_556 S
C289 C290 1.428 1_556 S
C290 H282 0.949 1_554 S
C290 C289 1.428 1_554 S
C290 C291 1.345 . S
C291 H283 0.950 . S
C291 C290 1.345 . S
C291 C292 1.424 . S
C292 H284 0.951 . S
C292 C291 1.424 . S
C292 C293 1.347 . S
C293 H285 0.951 . S
C293 C288 1.429 . S
C293 C292 1.347 . S
H294 C295 0.951 . S
C295 H294 0.951 . S
C295 C301 1.265 . S
H296 C301 0.950 . S
H297 C305 0.949 . S
H298 C306 0.950 . S
H299 C307 0.951 . S
H300 C308 0.951 . S
C301 C295 1.265 . S
C301 H296 0.950 . S
C301 C302 1.478 . S
C302 C301 1.478 . S
C302 C303 1.397 . S
C302 C319 1.394 . S
C303 C302 1.397 . S
C303 C304 1.438 . S
C303 C308 1.429 . S
C304 C303 1.438 . S
C304 C305 1.428 . S
C304 C317 1.394 . S
C305 H297 0.949 . S
C305 C304 1.428 . S
C305 C306 1.345 . S
C306 H298 0.950 . S
C306 C305 1.345 . S
C306 C307 1.424 . S
C307 H299 0.951 . S
C307 C306 1.424 . S
C307 C308 1.347 . S
C308 H300 0.951 . S
C308 C303 1.429 . S
C308 C307 1.347 . S
H309 C310 0.951 . S
C310 H309 0.951 . S
C310 C316 1.265 . S
H311 C316 0.950 . S
H312 C320 0.949 . S
H313 C321 0.950 . S
H314 C322 0.951 . S
H315 C323 0.951 . S
C316 C310 1.265 . S
C316 H311 0.950 . S
C316 C317 1.478 . S
C317 C304 1.394 . S
C317 C316 1.478 . S
C317 C318 1.397 . S
C318 C317 1.397 . S
C318 C319 1.438 . S
C318 C323 1.429 . S
C319 C302 1.394 . S
C319 C318 1.438 . S
C319 C320 1.428 . S
C320 H312 0.949 . S
C320 C319 1.428 . S
C320 C321 1.345 . S
C321 H313 0.950 . S
C321 C320 1.345 . S
C321 C322 1.424 . S
C322 H314 0.951 . S
C322 C321 1.424 . S
C322 C323 1.347 . S
C323 H315 0.951 . S
C323 C318 1.429 . S
C323 C322 1.347 . S
H324 C325 0.951 . S
C325 H324 0.951 . S
C325 C331 1.265 . S
H326 C331 0.950 . S
H327 C335 0.949 . S
H328 C336 0.950 . S
H329 C337 0.951 . S
H330 C338 0.945 1_455 S
C331 C325 1.265 . S
C331 H326 0.950 . S
C331 C332 1.478 . S
C332 C331 1.478 . S
C332 C333 1.399 1_455 S
C332 C349 1.394 . S
C333 C332 1.399 1_655 S
C333 C334 1.451 1_556 S
C333 C338 1.421 . S
C334 C333 1.451 1_554 S
C334 C335 1.428 . S
C334 C347 1.394 . S
C335 H327 0.949 . S
C335 C334 1.428 . S
C335 C336 1.345 . S
C336 H328 0.950 . S
C336 C335 1.345 . S
C336 C337 1.424 1_554 S
C337 H329 0.951 . S
C337 C336 1.424 1_556 S
C337 C338 1.346 . S
C338 H330 0.945 1_655 S
C338 C333 1.421 . S
C338 C337 1.346 . S
H339 C340 0.951 . S
C340 H339 0.951 . S
C340 C346 1.265 . S
H341 C346 0.950 . S
H342 C350 0.949 . S
H343 C351 0.950 . S
H344 C352 0.951 . S
H345 C353 0.951 . S
C346 C340 1.265 . S
C346 H341 0.950 . S
C346 C347 1.478 . S
C347 C334 1.394 . S
C347 C346 1.478 . S
C347 C348 1.397 . S
C348 C347 1.397 . S
C348 C349 1.438 1_654 S
C348 C353 1.429 . S
C349 C332 1.394 . S
C349 C348 1.438 1_456 S
C349 C350 1.428 . S
C350 H342 0.949 . S
C350 C349 1.428 . S
C350 C351 1.345 . S
C351 H343 0.950 . S
C351 C350 1.345 . S
C351 C352 1.424 1_556 S
C352 H344 0.951 . S
C352 C351 1.424 1_554 S
C352 C353 1.347 1_455 S
C353 H345 0.951 . S
C353 C348 1.429 . S
C353 C352 1.347 1_655 S
H354 C355 0.951 . S
C355 H354 0.951 . S
C355 C361 1.265 . S
H356 C361 0.950 . S
H357 C365 0.949 . S
H358 C366 0.950 . S
H359 C367 0.951 . S
H360 C368 0.951 . S
C361 C355 1.265 . S
C361 H356 0.950 . S
C361 C362 1.478 . S
C362 C361 1.478 . S
C362 C363 1.397 . S
C362 C379 1.394 1_545 S
C363 C362 1.397 . S
C363 C364 1.438 . S
C363 C368 1.429 . S
C364 C363 1.438 . S
C364 C365 1.428 . S
C364 C377 1.394 1_545 S
C365 H357 0.949 . S
C365 C364 1.428 . S
C365 C366 1.345 . S
C366 H358 0.950 . S
C366 C365 1.345 . S
C366 C367 1.424 . S
C367 H359 0.951 . S
C367 C366 1.424 . S
C367 C368 1.347 . S
C368 H360 0.951 . S
C368 C363 1.429 . S
C368 C367 1.347 . S
H369 C370 0.951 . S
C370 H369 0.951 . S
C370 C376 1.265 . S
H371 C376 0.950 . S
H372 C380 0.949 . S
H373 C381 0.950 . S
H374 C382 0.951 . S
H375 C383 0.951 . S
C376 C370 1.265 . S
C376 H371 0.950 . S
C376 C377 1.478 . S
C377 C364 1.394 1_565 S
C377 C376 1.478 . S
C377 C378 1.397 . S
C378 C377 1.397 . S
C378 C379 1.438 . S
C378 C383 1.429 . S
C379 C362 1.394 1_565 S
C379 C378 1.438 . S
C379 C380 1.428 . S
C380 H372 0.949 . S
C380 C379 1.428 . S
C380 C381 1.345 . S
C381 H373 0.950 . S
C381 C380 1.345 . S
C381 C382 1.424 . S
C382 H374 0.951 . S
C382 C381 1.424 . S
C382 C383 1.347 . S
C383 H375 0.951 . S
C383 C378 1.429 . S
C383 C382 1.347 . S
H384 C385 0.951 . S
C385 H384 0.951 . S
C385 C391 1.265 . S
H386 C391 0.950 . S
H387 C395 0.949 . S
H388 C396 0.950 1_554 S
H389 C397 0.951 . S
H390 C398 0.951 . S
C391 C385 1.265 . S
C391 H386 0.950 . S
C391 C392 1.478 . S
C392 C391 1.478 . S
C392 C393 1.397 . S
C392 C409 1.394 . S
C393 C392 1.397 . S
C393 C394 1.438 1_556 S
C393 C398 1.429 . S
C394 C393 1.438 1_554 S
C394 C395 1.428 . S
C394 C407 1.394 . S
C395 H387 0.949 . S
C395 C394 1.428 . S
C395 C396 1.345 1_554 S
C396 H388 0.950 1_556 S
C396 C395 1.345 1_556 S
C396 C397 1.424 . S
C397 H389 0.951 . S
C397 C396 1.424 . S
C397 C398 1.347 . S
C398 H390 0.951 . S
C398 C393 1.429 . S
C398 C397 1.347 . S
H399 C400 0.951 . S
C400 H399 0.951 . S
C400 C406 1.265 . S
H401 C406 0.950 . S
H402 C410 0.949 . S
H403 C411 0.950 . S
H404 C412 0.951 . S
H405 C413 0.951 . S
C406 C400 1.265 . S
C406 H401 0.950 . S
C406 C407 1.478 . S
C407 C394 1.394 . S
C407 C406 1.478 . S
C407 C408 1.397 . S
C408 C407 1.397 . S
C408 C409 1.438 1_554 S
C408 C413 1.429 . S
C409 C392 1.394 . S
C409 C408 1.438 1_556 S
C409 C410 1.428 . S
C410 H402 0.949 . S
C410 C409 1.428 . S
C410 C411 1.345 . S
C411 H403 0.950 . S
C411 C410 1.345 . S
C411 C412 1.424 1_556 S
C412 H404 0.951 . S
C412 C411 1.424 1_554 S
C412 C413 1.347 . S
C413 H405 0.951 . S
C413 C408 1.429 . S
C413 C412 1.347 . S
H414 C415 0.951 . S
C415 H414 0.951 . S
C415 C421 1.265 . S
H416 C421 0.950 . S
H417 C425 0.949 . S
H418 C426 0.950 . S
H419 C427 0.951 . S
H420 C428 0.951 . S
C421 C415 1.265 . S
C421 H416 0.950 . S
C421 C422 1.478 . S
C422 C421 1.478 . S
C422 C423 1.397 . S
C422 C439 1.394 . S
C423 C422 1.397 . S
C423 C424 1.438 1_455 S
C423 C428 1.429 . S
C424 C423 1.438 1_655 S
C424 C425 1.428 . S
C424 C437 1.394 . S
C425 H417 0.949 . S
C425 C424 1.428 . S
C425 C426 1.345 . S
C426 H418 0.950 . S
C426 C425 1.345 . S
C426 C427 1.424 . S
C427 H419 0.951 . S
C427 C426 1.424 . S
C427 C428 1.347 1_655 S
C428 H420 0.951 . S
C428 C423 1.429 . S
C428 C427 1.347 1_455 S
H429 C430 0.951 . S
C430 H429 0.951 . S
C430 C436 1.265 . S
H431 C436 0.950 . S
H432 C440 0.949 . S
H433 C441 0.950 . S
H434 C442 0.951 . S
H435 C443 0.951 . S
C436 C430 1.265 . S
C436 H431 0.950 . S
C436 C437 1.478 . S
C437 C424 1.394 . S
C437 C436 1.478 . S
C437 C438 1.399 . S
C438 C437 1.399 . S
C438 C439 1.426 1_655 S
C438 C443 1.439 . S
C439 C422 1.394 . S
C439 C438 1.426 1_455 S
C439 C440 1.428 . S
C440 H432 0.949 . S
C440 C439 1.428 . S
C440 C441 1.345 . S
C441 H433 0.950 . S
C441 C440 1.345 . S
C441 C442 1.424 . S
C442 H434 0.951 . S
C442 C441 1.424 . S
C442 C443 1.347 1_455 S
C443 H435 0.951 . S
C443 C438 1.439 . S
C443 C442 1.347 1_655 S
C85 C3 1.017 . S
C100 C59 1.099 . S
C115 C23 0.962 . S
C130 C79 1.038 . S
C145 C9 0.977 . S
C160 C31 1.093 . S
C175 C51 1.100 . S
C190 C17 1.014 . S
C205 C65 1.017 . S
C220 C37 1.037 . S
C235 C45 1.021 . S
C250 C73 1.103 . S
C265 C49 1.323 . S
C280 C7 1.358 . S
C295 C63 1.373 . S
C310 C22 1.397 . S
C325 C78 1.366 . S
C340 C35 1.301 . S
C355 C8 1.419 . S
C370 C50 1.389 . S
C385 C21 1.370 . S
C400 C64 1.397 . S
C415 C77 1.369 . S
C430 C36 1.397 . S
