# Generated by pormake.
# Topology wkj, (6)-cn, num edge types: 1
# Building blocks:
#     Node 0, Type 0, BuildingBlock: VOLQOD_clean_sbu_1, # of connection points: 6
#     Node 1, Type 0, BuildingBlock: VOLQOD_clean_sbu_1, # of connection points: 6
#     Node 2, Type 0, BuildingBlock: VOLQOD_clean_sbu_1, # of connection points: 6
#     Node 3, Type 0, BuildingBlock: VOLQOD_clean_sbu_1, # of connection points: 6
#     Node 4, Type 0, BuildingBlock: VOLQOD_clean_sbu_1, # of connection points: 6
#     Node 5, Type 0, BuildingBlock: VOLQOD_clean_sbu_1, # of connection points: 6
#     Node 6, Type 0, BuildingBlock: VOLQOD_clean_sbu_1, # of connection points: 6
#     Node 7, Type 0, BuildingBlock: VOLQOD_clean_sbu_1, # of connection points: 6
#     Node 8, Type 0, BuildingBlock: VOLQOD_clean_sbu_1, # of connection points: 6
#     Node 9, Type 0, BuildingBlock: VOLQOD_clean_sbu_1, # of connection points: 6
#     Node 10, Type 0, BuildingBlock: VOLQOD_clean_sbu_1, # of connection points: 6
#     Node 11, Type 0, BuildingBlock: VOLQOD_clean_sbu_1, # of connection points: 6
#     Edge 12, Type (0, 0), BuildingBlock: KIFKEQ_clean_linker_1, # of connection points: 2
#     Edge 13, Type (0, 0), BuildingBlock: KIFKEQ_clean_linker_1, # of connection points: 2
#     Edge 14, Type (0, 0), BuildingBlock: KIFKEQ_clean_linker_1, # of connection points: 2
#     Edge 15, Type (0, 0), BuildingBlock: KIFKEQ_clean_linker_1, # of connection points: 2
#     Edge 16, Type (0, 0), BuildingBlock: KIFKEQ_clean_linker_1, # of connection points: 2
#     Edge 17, Type (0, 0), BuildingBlock: KIFKEQ_clean_linker_1, # of connection points: 2
#     Edge 18, Type (0, 0), BuildingBlock: KIFKEQ_clean_linker_1, # of connection points: 2
#     Edge 19, Type (0, 0), BuildingBlock: KIFKEQ_clean_linker_1, # of connection points: 2
#     Edge 20, Type (0, 0), BuildingBlock: KIFKEQ_clean_linker_1, # of connection points: 2
#     Edge 21, Type (0, 0), BuildingBlock: KIFKEQ_clean_linker_1, # of connection points: 2
#     Edge 22, Type (0, 0), BuildingBlock: KIFKEQ_clean_linker_1, # of connection points: 2
#     Edge 23, Type (0, 0), BuildingBlock: KIFKEQ_clean_linker_1, # of connection points: 2
#     Edge 24, Type (0, 0), BuildingBlock: KIFKEQ_clean_linker_1, # of connection points: 2
#     Edge 25, Type (0, 0), BuildingBlock: KIFKEQ_clean_linker_1, # of connection points: 2
#     Edge 26, Type (0, 0), BuildingBlock: KIFKEQ_clean_linker_1, # of connection points: 2
#     Edge 27, Type (0, 0), BuildingBlock: KIFKEQ_clean_linker_1, # of connection points: 2
#     Edge 28, Type (0, 0), BuildingBlock: KIFKEQ_clean_linker_1, # of connection points: 2
#     Edge 29, Type (0, 0), BuildingBlock: KIFKEQ_clean_linker_1, # of connection points: 2
#     Edge 30, Type (0, 0), BuildingBlock: KIFKEQ_clean_linker_1, # of connection points: 2
#     Edge 31, Type (0, 0), BuildingBlock: KIFKEQ_clean_linker_1, # of connection points: 2
#     Edge 32, Type (0, 0), BuildingBlock: KIFKEQ_clean_linker_1, # of connection points: 2
#     Edge 33, Type (0, 0), BuildingBlock: KIFKEQ_clean_linker_1, # of connection points: 2
#     Edge 34, Type (0, 0), BuildingBlock: KIFKEQ_clean_linker_1, # of connection points: 2
#     Edge 35, Type (0, 0), BuildingBlock: KIFKEQ_clean_linker_1, # of connection points: 2
#     Edge 36, Type (0, 0), BuildingBlock: KIFKEQ_clean_linker_1, # of connection points: 2
#     Edge 37, Type (0, 0), BuildingBlock: KIFKEQ_clean_linker_1, # of connection points: 2
#     Edge 38, Type (0, 0), BuildingBlock: KIFKEQ_clean_linker_1, # of connection points: 2
#     Edge 39, Type (0, 0), BuildingBlock: KIFKEQ_clean_linker_1, # of connection points: 2
#     Edge 40, Type (0, 0), BuildingBlock: KIFKEQ_clean_linker_1, # of connection points: 2
#     Edge 41, Type (0, 0), BuildingBlock: KIFKEQ_clean_linker_1, # of connection points: 2
#     Edge 42, Type (0, 0), BuildingBlock: KIFKEQ_clean_linker_1, # of connection points: 2
#     Edge 43, Type (0, 0), BuildingBlock: KIFKEQ_clean_linker_1, # of connection points: 2
#     Edge 44, Type (0, 0), BuildingBlock: KIFKEQ_clean_linker_1, # of connection points: 2
#     Edge 45, Type (0, 0), BuildingBlock: KIFKEQ_clean_linker_1, # of connection points: 2
#     Edge 46, Type (0, 0), BuildingBlock: KIFKEQ_clean_linker_1, # of connection points: 2
#     Edge 47, Type (0, 0), BuildingBlock: KIFKEQ_clean_linker_1, # of connection points: 2
# Relax obj value: 0.767
# Max RMSD: 0.281
# Mean RMSD: 0.281
data_MOF--net-wkj--node1-VOLQOD_clean_sbu_1--edge1-KIFKEQ_clean_linker_1
_symmetry_space_group_name_H-M    P1
_symmetry_Int_Tables_number       1
_symmetry_cell_setting            triclinic
loop_
_symmetry_equiv_pos_as_xyz
'x, y, z'
_cell_length_a     57.273431
_cell_length_b     57.151254
_cell_length_c     24.796042
_cell_angle_alpha  90.077885
_cell_angle_beta   90.029921
_cell_angle_gamma 119.81495
loop_
_atom_site_label
_atom_site_type_symbol
_atom_site_fract_x
_atom_site_fract_y
_atom_site_fract_z
_atom_type_partial_charge
O0 O 0.35595 0.01903 0.32747 0.0
Zn1 Zn 0.37967 0.03446 0.26385 0.0
O2 O 0.39823 0.07282 0.26694 0.0
Zn3 Zn 0.43635 0.08741 0.2635 0.0
Zn4 Zn 0.39089 0.08435 0.33539 0.0
Zn5 Zn 0.38775 0.08638 0.20512 0.0
O6 O 0.45486 0.11926 0.21452 0.0
O7 O 0.42063 0.11248 0.16218 0.0
O8 O 0.40572 0.02113 0.25505 0.0
O9 O 0.44216 0.05927 0.23089 0.0
O10 O 0.45367 0.09538 0.3367 0.0
O11 O 0.42125 0.09272 0.38946 0.0
O12 O 0.39167 0.11902 0.31501 0.0
O13 O 0.35746 0.02057 0.19774 0.0
O14 O 0.37018 0.10584 0.23708 0.0
O15 O 0.36392 0.05658 0.15228 0.0
C16 C 0.34756 0.02853 0.36435 0.0
C17 C 0.4458 0.12455 0.17217 0.0
C18 C 0.44496 0.09634 0.38338 0.0
C19 C 0.42901 0.0337 0.23381 0.0
C20 C 0.38365 0.12448 0.27111 0.0
C21 C 0.35379 0.0311 0.15587 0.0
O22 O 0.3571 0.05395 0.37022 0.0
O23 O 0.38177 0.41618 0.66511 0.0
Zn24 Zn 0.37798 0.43242 0.59573 0.0
O25 O 0.34314 0.42878 0.59208 0.0
Zn26 Zn 0.3442 0.46256 0.57896 0.0
Zn27 Zn 0.3243 0.41541 0.65902 0.0
Zn28 Zn 0.32539 0.40798 0.52951 0.0
O29 O 0.32029 0.46184 0.51966 0.0
O30 O 0.32726 0.43365 0.4709 0.0
O31 O 0.40538 0.47138 0.58446 0.0
O32 O 0.38025 0.48813 0.55242 0.0
O33 O 0.34084 0.47957 0.6462 0.0
O34 O 0.33121 0.44785 0.70742 0.0
O35 O 0.28471 0.39243 0.63709 0.0
O36 O 0.38344 0.41182 0.53507 0.0
O37 O 0.28739 0.38395 0.54988 0.0
O38 O 0.34309 0.38829 0.49771 0.0
C39 C 0.36451 0.39989 0.6989 0.0
C40 C 0.3229 0.45342 0.47383 0.0
C41 C 0.3374 0.472 0.69512 0.0
C42 C 0.40284 0.49005 0.56191 0.0
C43 C 0.2736 0.38109 0.59225 0.0
C44 C 0.36765 0.39431 0.50113 0.0
O45 O 0.34014 0.39505 0.69859 0.0
O46 O 0.95302 0.36464 0.97371 0.0
Zn47 Zn 0.93941 0.36273 0.89885 0.0
O48 O 0.90162 0.34767 0.89825 0.0
Zn49 Zn 0.89157 0.37438 0.88534 0.0
Zn50 Zn 0.88734 0.33221 0.96682 0.0
Zn51 Zn 0.88833 0.32441 0.83592 0.0
O52 O 0.85846 0.35964 0.84045 0.0
O53 O 0.87142 0.33903 0.78214 0.0
O54 O 0.95565 0.39705 0.85688 0.0
O55 O 0.92022 0.40192 0.83878 0.0
O56 O 0.88556 0.38993 0.95368 0.0
O57 O 0.87703 0.35617 0.00913 0.0
O58 O 0.85418 0.29648 0.95043 0.0
O59 O 0.95092 0.3407 0.85697 0.0
O60 O 0.85829 0.28969 0.86271 0.0
O61 O 0.91759 0.3197 0.79853 0.0
C62 C 0.94165 0.34871 0.01323 0.0
C63 C 0.8574 0.35013 0.79358 0.0
C64 C 0.87857 0.37885 0.99987 0.0
C65 C 0.94467 0.40838 0.83123 0.0
C66 C 0.84576 0.2822 0.90746 0.0
C67 C 0.94139 0.32671 0.81445 0.0
O68 O 0.91638 0.33186 0.0136 0.0
O69 O 0.59786 0.96434 0.3433 0.0
Zn70 Zn 0.58746 0.95337 0.2673 0.0
O71 O 0.57446 0.91576 0.25985 0.0
Zn72 Zn 0.5366 0.89565 0.24284 0.0
Zn73 Zn 0.57967 0.90089 0.3262 0.0
Zn74 Zn 0.59076 0.91134 0.1956 0.0
O75 O 0.52789 0.87116 0.1799 0.0
O76 O 0.56381 0.89894 0.1332 0.0
O77 O 0.55937 0.96173 0.24195 0.0
O78 O 0.52528 0.92144 0.21996 0.0
O79 O 0.51363 0.87534 0.3051 0.0
O80 O 0.54378 0.87944 0.36587 0.0
O81 O 0.59176 0.87412 0.30196 0.0
O82 O 0.61969 0.97551 0.22128 0.0
O83 O 0.59864 0.88231 0.21339 0.0
O84 O 0.62339 0.94563 0.17048 0.0
C85 C 0.60503 0.95502 0.38266 0.0
C86 C 0.53914 0.88061 0.13485 0.0
C87 C 0.51939 0.8709 0.35202 0.0
C88 C 0.53603 0.94691 0.22204 0.0
C89 C 0.59763 0.86883 0.25519 0.0
C90 C 0.63158 0.96997 0.18438 0.0
O91 O 0.60272 0.93152 0.38045 0.0
O92 O 0.64166 0.62569 0.65624 0.0
Zn93 Zn 0.63871 0.60995 0.5834 0.0
O94 O 0.64961 0.58279 0.58173 0.0
Zn95 Zn 0.61999 0.54619 0.57288 0.0
Zn96 Zn 0.66908 0.58592 0.6481 0.0
Zn97 Zn 0.67053 0.59179 0.51659 0.0
O98 O 0.62565 0.52718 0.5103 0.0
O99 O 0.6619 0.55948 0.47018 0.0
O100 O 0.6009 0.59186 0.56275 0.0
O101 O 0.58683 0.54808 0.5542 0.0
O102 O 0.61576 0.52331 0.63814 0.0
O103 O 0.65359 0.54878 0.68395 0.0
O104 O 0.70855 0.60081 0.62628 0.0
O105 O 0.65407 0.63863 0.52637 0.0
O106 O 0.70864 0.60934 0.5382 0.0
O107 O 0.66199 0.61444 0.46788 0.0
C108 C 0.65129 0.62327 0.7007 0.0
C109 C 0.64299 0.53512 0.47271 0.0
C110 C 0.63167 0.5265 0.67703 0.0
C111 C 0.5829 0.56811 0.55053 0.0
C112 C 0.72098 0.61003 0.58148 0.0
C113 C 0.65655 0.63299 0.47786 0.0
O114 O 0.66292 0.60915 0.70405 0.0
O115 O 0.0372 0.61288 0.97137 0.0
Zn116 Zn 0.05288 0.61759 0.89773 0.0
O117 O 0.09066 0.63253 0.90121 0.0
Zn118 Zn 0.10089 0.60585 0.89168 0.0
Zn119 Zn 0.10317 0.64894 0.97027 0.0
Zn120 Zn 0.10422 0.6545 0.8379 0.0
O121 O 0.1347 0.61985 0.84952 0.0
O122 O 0.12368 0.64082 0.78847 0.0
O123 O 0.03822 0.58445 0.85236 0.0
O124 O 0.07319 0.5778 0.84387 0.0
O125 O 0.10654 0.592 0.96206 0.0
O126 O 0.1159 0.62719 0.01455 0.0
O127 O 0.13343 0.68702 0.95557 0.0
O128 O 0.04229 0.64086 0.85679 0.0
O129 O 0.13085 0.69051 0.86591 0.0
O130 O 0.07465 0.6564 0.79565 0.0
C131 C 0.04696 0.62864 0.01184 0.0
C132 C 0.13701 0.62931 0.80227 0.0
C133 C 0.11431 0.6043 0.00709 0.0
C134 C 0.0495 0.57234 0.83093 0.0
C135 C 0.14112 0.70056 0.91171 0.0
C136 C 0.05156 0.65184 0.81139 0.0
O137 O 0.07188 0.64666 0.01386 0.0
O138 O 0.93593 0.56624 0.3756 0.0
Zn139 Zn 0.918 0.5507 0.44554 0.0
O140 O 0.8817 0.52315 0.43591 0.0
Zn141 Zn 0.87857 0.48844 0.43282 0.0
Zn142 Zn 0.86927 0.53114 0.37003 0.0
Zn143 Zn 0.86522 0.52408 0.50246 0.0
O144 O 0.84826 0.46115 0.47736 0.0
O145 O 0.84802 0.48798 0.54152 0.0
O146 O 0.93622 0.53463 0.48605 0.0
O147 O 0.91079 0.49073 0.46944 0.0
O148 O 0.87259 0.47495 0.35694 0.0
O149 O 0.85634 0.49904 0.31757 0.0
O150 O 0.84208 0.54274 0.39248 0.0
O151 O 0.92148 0.5805 0.49248 0.0
O152 O 0.8382 0.53418 0.48139 0.0
O153 O 0.89209 0.55359 0.55289 0.0
C154 C 0.92602 0.57072 0.33358 0.0
C155 C 0.84132 0.46443 0.52419 0.0
C156 C 0.86183 0.47987 0.3167 0.0
C157 C 0.93094 0.51042 0.49228 0.0
C158 C 0.83166 0.54193 0.43868 0.0
C159 C 0.91227 0.57631 0.54022 0.0
O160 O 0.90067 0.56102 0.32862 0.0
O161 O 0.35879 0.93028 0.67006 0.0
Zn162 Zn 0.38227 0.9308 0.7289 0.0
O163 O 0.38027 0.8952 0.73492 0.0
Zn164 Zn 0.41498 0.89797 0.7194 0.0
Zn165 Zn 0.35335 0.86955 0.68321 0.0
Zn166 Zn 0.37186 0.88416 0.8094 0.0
O167 O 0.4329 0.8922 0.78473 0.0
O168 O 0.40074 0.87955 0.84623 0.0
O169 O 0.42071 0.96033 0.71678 0.0
O170 O 0.43523 0.93441 0.6869 0.0
O171 O 0.41181 0.87175 0.66404 0.0
O172 O 0.37019 0.85362 0.63163 0.0
O173 O 0.32263 0.83984 0.72663 0.0
O174 O 0.36869 0.94049 0.79508 0.0
O175 O 0.33846 0.84954 0.81056 0.0
O176 O 0.36311 0.90879 0.85349 0.0
C177 C 0.34201 0.91256 0.63793 0.0
C178 C 0.42389 0.88377 0.83193 0.0
C179 C 0.39365 0.85613 0.63137 0.0
C180 C 0.43826 0.95296 0.71893 0.0
C181 C 0.3203 0.83464 0.77713 0.0
C182 C 0.36208 0.92993 0.84162 0.0
O183 O 0.33787 0.88845 0.63724 0.0
O184 O 0.43804 0.33358 0.02333 0.0
Zn185 Zn 0.46528 0.36471 0.06664 0.0
O186 O 0.50016 0.36712 0.06895 0.0
Zn187 Zn 0.52912 0.40327 0.05685 0.0
Zn188 Zn 0.49888 0.34363 0.01077 0.0
Zn189 Zn 0.50417 0.35671 0.13999 0.0
O190 O 0.5509 0.42032 0.12457 0.0
O191 O 0.53893 0.38389 0.17488 0.0
O192 O 0.46968 0.39564 0.02422 0.0
O193 O 0.51374 0.42446 0.0227 0.0
O194 O 0.554 0.40398 1.00008 0.0
O195 O 0.53179 0.3637 0.96085 0.0
O196 O 0.49333 0.30871 0.04628 0.0
O197 O 0.45013 0.36458 0.13974 0.0
O198 O 0.49996 0.32029 0.13356 0.0
O199 O 0.47566 0.35479 0.19129 0.0
C200 C 0.44355 0.33141 0.9746 0.0
C201 C 0.5537 0.40913 0.16668 0.0
C202 C 0.55179 0.38776 0.9627 0.0
C203 C 0.48974 0.41767 0.00903 0.0
C204 C 0.49479 0.30317 0.09587 0.0
C205 C 0.45617 0.35936 0.18584 0.0
O206 O 0.46714 0.33622 0.9623 0.0
O207 O 0.05562 0.42128 0.37 0.0
Zn208 Zn 0.07222 0.43552 0.44182 0.0
O209 O 0.10997 0.45876 0.43733 0.0
Zn210 Zn 0.11904 0.49576 0.43876 0.0
Zn211 Zn 0.12246 0.45107 0.37111 0.0
Zn212 Zn 0.12377 0.45374 0.50424 0.0
O213 O 0.15094 0.51842 0.48506 0.0
O214 O 0.1405 0.48821 0.54967 0.0
O215 O 0.05722 0.45518 0.48121 0.0
O216 O 0.0895 0.49817 0.47645 0.0
O217 O 0.12607 0.5111 0.36451 0.0
O218 O 0.13701 0.48388 0.32046 0.0
O219 O 0.14865 0.43789 0.39265 0.0
O220 O 0.06252 0.40373 0.48756 0.0
O221 O 0.15092 0.44403 0.48241 0.0
O222 O 0.09517 0.42192 0.54808 0.0
C223 C 0.06564 0.41523 0.33016 0.0
C224 C 0.1523 0.51274 0.53411 0.0
C225 C 0.13451 0.50493 0.32229 0.0
C226 C 0.06668 0.47989 0.49336 0.0
C227 C 0.15816 0.43735 0.43918 0.0
C228 C 0.07234 0.40272 0.53279 0.0
O229 O 0.09068 0.42282 0.32786 0.0
O230 O 0.60625 0.05136 0.75493 0.0
Zn231 Zn 0.60333 0.06717 0.82525 0.0
O232 O 0.59835 0.09759 0.81455 0.0
Zn233 Zn 0.56146 0.0882 0.8186 0.0
Zn234 Zn 0.6133 0.1131 0.74514 0.0
Zn235 Zn 0.61488 0.1196 0.87681 0.0
O236 O 0.55618 0.1151 0.86159 0.0
O237 O 0.5907 0.12981 0.91781 0.0
O238 O 0.57282 0.04038 0.86979 0.0
O239 O 0.54273 0.05408 0.86217 0.0
O240 O 0.5466 0.08716 0.74396 0.0
O241 O 0.58431 0.1154 0.70043 0.0
O242 O 0.64735 0.14952 0.75869 0.0
O243 O 0.63606 0.07661 0.86952 0.0
O244 O 0.64499 0.15259 0.84813 0.0
O245 O 0.63089 0.10326 0.9272 0.0
C246 C 0.61605 0.0631 0.71021 0.0
C247 C 0.56865 0.12831 0.90343 0.0
C248 C 0.55857 0.10168 0.70284 0.0
C249 C 0.55031 0.03832 0.88205 0.0
C250 C 0.65637 0.16229 0.80319 0.0
C251 C 0.64105 0.08853 0.91492 0.0
O252 O 0.62198 0.08757 0.70243 0.0
O253 O 0.53853 0.62501 0.03194 0.0
Zn254 Zn 0.50703 0.60293 0.0797 0.0
O255 O 0.48255 0.61675 0.08264 0.0
Zn256 Zn 0.44614 0.58892 0.06946 0.0
Zn257 Zn 0.49128 0.64233 0.02382 0.0
Zn258 Zn 0.48251 0.62956 0.15429 0.0
O259 O 0.42531 0.57304 0.13647 0.0
O260 O 0.44782 0.60539 0.19638 0.0
O261 O 0.48847 0.56805 0.03977 0.0
O262 O 0.44678 0.56039 0.02517 0.0
O263 O 0.42625 0.60227 0.02562 0.0
O264 O 0.45944 0.62653 0.96959 0.0
O265 O 0.50148 0.67824 0.06033 0.0
O266 O 0.52316 0.6029 0.15248 0.0
O267 O 0.49141 0.66787 0.14761 0.0
O268 O 0.51281 0.63025 0.19706 0.0
C269 C 0.54159 0.64011 0.9919 0.0
C270 C 0.42764 0.58261 0.1837 0.0
C271 C 0.4343 0.61113 0.97841 0.0
C272 C 0.46542 0.55488 0.01749 0.0
C273 C 0.50025 0.68495 0.10917 0.0
C274 C 0.52594 0.61771 0.1933 0.0
O275 O 0.52426 0.64733 0.98143 0.0
H276 H 0.43649 0.15889 0.29225 0.0
H277 H 0.36992 0.15023 0.19551 0.0
H278 H 0.46698 0.19889 0.24238 0.0
H279 H 0.4003 0.1917 0.14749 0.0
H280 H 0.461 0.25612 0.04229 0.0
H281 H 0.43537 0.21158 0.08358 0.0
H282 H 0.47985 0.24352 0.23203 0.0
H283 H 0.50619 0.28698 0.18999 0.0
C284 C 0.42816 0.16614 0.2616 0.0
C285 C 0.40062 0.15173 0.24864 0.0
C286 C 0.44577 0.18908 0.23258 0.0
C287 C 0.43625 0.19869 0.19068 0.0
C288 C 0.40852 0.18464 0.17866 0.0
C289 C 0.39097 0.16122 0.20693 0.0
C290 C 0.46597 0.25323 0.08298 0.0
C291 C 0.48537 0.27513 0.1131 0.0
C292 C 0.45091 0.22786 0.1071 0.0
C293 C 0.45494 0.22403 0.16174 0.0
C294 C 0.47606 0.24545 0.18995 0.0
C295 C 0.49121 0.27055 0.16578 0.0
H296 H 0.2409 0.39339 0.65145 0.0
H297 H 0.24158 0.34952 0.50998 0.0
H298 H 0.20783 0.40209 0.60851 0.0
H299 H 0.20915 0.35907 0.46645 0.0
H300 H 0.14677 0.38656 0.41277 0.0
H301 H 0.16624 0.36195 0.4581 0.0
H302 H 0.2257 0.43622 0.53306 0.0
H303 H 0.20612 0.46036 0.48863 0.0
C304 C 0.23301 0.38436 0.61242 0.0
C305 C 0.24487 0.37201 0.58292 0.0
C306 C 0.21437 0.38975 0.58741 0.0
C307 C 0.20726 0.38257 0.5331 0.0
C308 C 0.21486 0.36544 0.50785 0.0
C309 C 0.23335 0.35986 0.53304 0.0
C310 C 0.16471 0.39766 0.43715 0.0
C311 C 0.17525 0.42532 0.44696 0.0
C312 C 0.17546 0.38354 0.46387 0.0
C313 C 0.19669 0.39701 0.5008 0.0
C314 C 0.20862 0.42512 0.5065 0.0
C315 C 0.19793 0.4391 0.48002 0.0
H316 H 0.80457 0.28734 0.94357 0.0
H317 H 0.82345 0.2335 0.85645 0.0
H318 H 0.75934 0.26397 0.90856 0.0
H319 H 0.77693 0.20774 0.8255 0.0
H320 H 0.70028 0.17759 0.73778 0.0
H321 H 0.74682 0.20794 0.76488 0.0
H322 H 0.71822 0.22869 0.90898 0.0
H323 H 0.6727 0.20105 0.87892 0.0
C324 C 0.79847 0.26941 0.91933 0.0
C325 C 0.81727 0.26188 0.90337 0.0
C326 C 0.77245 0.25602 0.89866 0.0
C327 C 0.76423 0.234 0.86329 0.0
C328 C 0.78262 0.22515 0.85096 0.0
C329 C 0.80906 0.23931 0.86999 0.0
C330 C 0.70419 0.18978 0.77374 0.0
C331 C 0.68298 0.18665 0.80678 0.0
C332 C 0.73083 0.2066 0.79024 0.0
C333 C 0.73652 0.22006 0.84041 0.0
C334 C 0.71509 0.21889 0.87019 0.0
C335 C 0.68874 0.20285 0.85296 0.0
H336 H 0.54926 0.72246 0.07305 0.0
H337 H 0.48662 0.7106 0.18473 0.0
H338 H 0.57984 0.76511 0.11614 0.0
H339 H 0.51631 0.75433 0.2255 0.0
H340 H 0.57377 0.82332 0.31804 0.0
H341 H 0.5526 0.77763 0.28226 0.0
H342 H 0.59221 0.80889 0.12925 0.0
H343 H 0.61488 0.85379 0.16646 0.0
C344 C 0.54171 0.72962 0.10544 0.0
C345 C 0.51547 0.71351 0.12505 0.0
C346 C 0.55934 0.75403 0.13063 0.0
C347 C 0.55089 0.76324 0.1752 0.0
C348 C 0.52403 0.74763 0.1927 0.0
C349 C 0.50668 0.72286 0.16846 0.0
C350 C 0.57901 0.82024 0.27771 0.0
C351 C 0.59532 0.84229 0.24452 0.0
C352 C 0.56628 0.79405 0.25656 0.0
C353 C 0.56941 0.78955 0.20176 0.0
C354 C 0.5888 0.81127 0.1713 0.0
C355 C 0.60195 0.83725 0.19281 0.0
H356 H 0.75644 0.63842 0.50157 0.0
H357 H 0.74703 0.59039 0.64289 0.0
H358 H 0.78661 0.62471 0.46243 0.0
H359 H 0.77835 0.57774 0.60485 0.0
H360 H 0.78411 0.52009 0.48998 0.0
H361 H 0.76486 0.54503 0.53237 0.0
H362 H 0.82516 0.61825 0.45581 0.0
H363 H 0.84382 0.59273 0.41181 0.0
C364 C 0.76195 0.62606 0.52556 0.0
C365 C 0.74843 0.61443 0.57414 0.0
C366 C 0.7792 0.61812 0.50293 0.0
C367 C 0.78362 0.59898 0.52935 0.0
C368 C 0.7742 0.59155 0.58251 0.0
C369 C 0.75668 0.59924 0.60487 0.0
C370 C 0.79255 0.5413 0.48069 0.0
C371 C 0.8151 0.55448 0.44721 0.0
C372 C 0.78206 0.55578 0.50607 0.0
C373 C 0.79421 0.58384 0.49918 0.0
C374 C 0.81558 0.59671 0.46241 0.0
C375 C 0.82594 0.58207 0.43646 0.0
H376 H 0.27234 0.80304 0.72483 0.0
H377 H 0.31009 0.81921 0.8821 0.0
H378 H 0.22879 0.774 0.76682 0.0
H379 H 0.26675 0.79166 0.92383 0.0
H380 H 0.18707 0.71379 0.9657 0.0
H381 H 0.2318 0.74692 0.93501 0.0
H382 H 0.19668 0.77824 0.82184 0.0
H383 H 0.15189 0.74414 0.85111 0.0
C384 C 0.27141 0.80024 0.76813 0.0
C385 C 0.29465 0.81356 0.8 0.0
C386 C 0.24643 0.78403 0.79236 0.0
C387 C 0.24426 0.78107 0.84886 0.0
C388 C 0.26767 0.79348 0.88031 0.0
C389 C 0.29257 0.80934 0.85617 0.0
C390 C 0.18901 0.72853 0.93598 0.0
C391 C 0.16622 0.7264 0.91035 0.0
C392 C 0.21463 0.74738 0.91793 0.0
C393 C 0.2177 0.7646 0.87468 0.0
C394 C 0.19488 0.76456 0.85382 0.0
C395 C 0.1693 0.74546 0.87129 0.0
H396 H 0.57666 0.13902 0.01107 0.0
H397 H 0.53107 0.14241 0.87564 0.0
H398 H 0.54943 0.14859 0.07199 0.0
H399 H 0.50467 0.15375 0.93625 0.0
H400 H 0.43639 0.11947 0.06408 0.0
H401 H 0.46983 0.12969 0.99503 0.0
H402 H 0.53306 0.17411 0.11146 0.0
H403 H 0.49921 0.16223 0.18158 0.0
C404 C 0.56135 0.1427 0.99414 0.0
C405 C 0.5557 0.13947 0.93869 0.0
C406 C 0.54574 0.14846 0.02915 0.0
C407 C 0.52439 0.15165 0.00946 0.0
C408 C 0.52035 0.15069 0.95327 0.0
C409 C 0.5356 0.14435 0.91838 0.0
C410 C 0.45739 0.13222 0.07466 0.0
C411 C 0.46517 0.13945 0.12858 0.0
C412 C 0.47677 0.13817 0.03477 0.0
C413 C 0.50439 0.15202 0.04772 0.0
C414 C 0.51204 0.16246 0.1003 0.0
C415 C 0.49263 0.15598 0.14046 0.0
H416 H 0.3796 0.53684 0.16626 0.0
H417 H 0.42913 0.59025 0.29355 0.0
H418 H 0.34828 0.50614 0.23291 0.0
H419 H 0.39781 0.55915 0.3605 0.0
H420 H 0.32994 0.44288 0.36936 0.0
H421 H 0.35129 0.47568 0.29755 0.0
H422 H 0.35184 0.53756 0.39858 0.0
H423 H 0.33064 0.50477 0.47086 0.0
C424 C 0.38373 0.5422 0.20849 0.0
C425 C 0.40713 0.56591 0.22454 0.0
C426 C 0.36575 0.5245 0.2467 0.0
C427 C 0.37064 0.53002 0.30202 0.0
C428 C 0.3933 0.5544 0.31813 0.0
C429 C 0.41135 0.57218 0.27978 0.0
C430 C 0.3339 0.46328 0.37585 0.0
C431 C 0.3288 0.47118 0.42617 0.0
C432 C 0.34617 0.48215 0.33458 0.0
C433 C 0.35367 0.50937 0.34265 0.0
C434 C 0.34675 0.51685 0.39149 0.0
C435 C 0.3343 0.49793 0.43269 0.0
H436 H 0.8195 0.3654 0.80579 0.0
H437 H 0.86502 0.35102 0.68442 0.0
H438 H 0.80543 0.38695 0.7386 0.0
H439 H 0.85147 0.3731 0.61751 0.0
H440 H 0.82345 0.41136 0.50054 0.0
H441 H 0.81801 0.37641 0.56376 0.0
H442 H 0.83076 0.43047 0.69668 0.0
H443 H 0.83567 0.46514 0.63374 0.0
C444 C 0.82605 0.36632 0.76448 0.0
C445 C 0.84374 0.35687 0.75061 0.0
C446 C 0.81808 0.37882 0.72603 0.0
C447 C 0.8277 0.38225 0.67287 0.0
C448 C 0.84351 0.3707 0.65798 0.0
C449 C 0.85136 0.35805 0.69643 0.0
C450 C 0.82431 0.41554 0.54334 0.0
C451 C 0.83049 0.44128 0.562 0.0
C452 C 0.82138 0.39553 0.57956 0.0
C453 C 0.82451 0.40077 0.63524 0.0
C454 C 0.8281 0.42561 0.65409 0.0
C455 C 0.83098 0.44561 0.61788 0.0
H456 H 0.47833 0.90245 0.82928 0.0
H457 H 0.40692 0.85312 0.92277 0.0
H458 H 0.50593 0.89918 0.89999 0.0
H459 H 0.43381 0.84687 0.99025 0.0
H460 H 0.48742 0.86915 0.13528 0.0
H461 H 0.46027 0.86787 0.06032 0.0
H462 H 0.52343 0.87839 0.95009 0.0
H463 H 0.55178 0.88215 0.02716 0.0
C464 C 0.4685 0.89072 0.86483 0.0
C465 C 0.44055 0.87906 0.87147 0.0
C466 C 0.48433 0.88835 0.9052 0.0
C467 C 0.47243 0.87325 0.95224 0.0
C468 C 0.44413 0.85979 0.95634 0.0
C469 C 0.42852 0.86311 0.91715 0.0
C470 C 0.49541 0.87072 0.09501 0.0
C471 C 0.5217 0.8755 0.08716 0.0
C472 C 0.47964 0.86982 0.05146 0.0
C473 C 0.48923 0.87275 0.99819 0.0
C474 C 0.5153 0.87651 0.99023 0.0
C475 C 0.53152 0.87831 0.03433 0.0
H476 H 0.6011 0.45691 0.15683 0.0
H477 H 0.54777 0.39963 0.27422 0.0
H478 H 0.62929 0.48624 0.22939 0.0
H479 H 0.5742 0.42947 0.34648 0.0
H480 H 0.62576 0.48126 0.47625 0.0
H481 H 0.61044 0.44981 0.4007 0.0
H482 H 0.63118 0.5163 0.29118 0.0
H483 H 0.64866 0.54754 0.36636 0.0
C484 C 0.59546 0.45063 0.19824 0.0
C485 C 0.57228 0.42603 0.20989 0.0
C486 C 0.61146 0.46754 0.24004 0.0
C487 C 0.60414 0.46063 0.2945 0.0
C488 C 0.58118 0.43554 0.30562 0.0
C489 C 0.56572 0.41837 0.26395 0.0
C490 C 0.62769 0.48905 0.43569 0.0
C491 C 0.63832 0.51674 0.42703 0.0
C492 C 0.61854 0.47102 0.39225 0.0
C493 C 0.61873 0.48016 0.33931 0.0
C494 C 0.63081 0.50819 0.33076 0.0
C495 C 0.64081 0.52626 0.37404 0.0
H496 H 0.1336 0.6308 0.69214 0.0
H497 H 0.17099 0.60944 0.81963 0.0
H498 H 0.14639 0.60713 0.62727 0.0
H499 H 0.18405 0.58607 0.75461 0.0
H500 H 0.15082 0.50878 0.64436 0.0
H501 H 0.15585 0.54329 0.70833 0.0
H502 H 0.18081 0.60157 0.57943 0.0
H503 H 0.17556 0.567 0.51516 0.0
C504 C 0.14534 0.62186 0.70607 0.0
C505 C 0.15086 0.62165 0.76123 0.0
C506 C 0.15272 0.60828 0.66882 0.0
C507 C 0.16586 0.59428 0.68595 0.0
C508 C 0.17348 0.59617 0.74032 0.0
C509 C 0.1661 0.60972 0.77751 0.0
C510 C 0.15815 0.52911 0.62978 0.0
C511 C 0.16233 0.53492 0.57441 0.0
C512 C 0.1611 0.54899 0.66656 0.0
C513 C 0.16833 0.57512 0.64884 0.0
C514 C 0.17474 0.58151 0.5942 0.0
C515 C 0.17188 0.56168 0.55744 0.0
H516 H 0.38129 0.98364 0.85416 0.0
H517 H 0.32518 0.90631 0.92207 0.0
H518 H 0.37137 0.00622 0.92601 0.0
H519 H 0.31338 0.92861 0.99199 0.0
H520 H 0.33348 0.97681 0.14968 0.0
H521 H 0.33021 0.95132 0.07007 0.0
H522 H 0.34481 0.01946 0.97063 0.0
H523 H 0.35022 0.04588 0.0517 0.0
C524 C 0.36634 0.97148 0.884 0.0
C525 C 0.35429 0.94328 0.88312 0.0
C526 C 0.36033 0.98441 0.92504 0.0
C527 C 0.34156 0.96942 0.96556 0.0
C528 C 0.32847 0.94102 0.96268 0.0
C529 C 0.33511 0.92813 0.92247 0.0
C530 C 0.33549 0.98632 0.11088 0.0
C531 C 0.3429 0.01372 0.10733 0.0
C532 C 0.3334 0.97148 0.06468 0.0
C533 C 0.33799 0.98339 0.01331 0.0
C534 C 0.34219 0.00984 0.00947 0.0
C535 C 0.34485 0.02494 0.056 0.0
H536 H 0.46528 0.35259 0.29186 0.0
H537 H 0.41284 0.36729 0.18944 0.0
H538 H 0.44216 0.35624 0.37132 0.0
H539 H 0.39015 0.3714 0.26873 0.0
H540 H 0.41951 0.40434 0.49248 0.0
H541 H 0.43921 0.39212 0.41835 0.0
H542 H 0.3609 0.347 0.34386 0.0
H543 H 0.34119 0.35961 0.41754 0.0
C544 C 0.44874 0.35643 0.28619 0.0
C545 C 0.44103 0.35977 0.23414 0.0
C546 C 0.43557 0.35865 0.33181 0.0
C547 C 0.41432 0.36417 0.32648 0.0
C548 C 0.40617 0.36677 0.27438 0.0
C549 C 0.41935 0.36461 0.22882 0.0
C550 C 0.40637 0.39145 0.46079 0.0
C551 C 0.37877 0.38321 0.46084 0.0
C552 C 0.41769 0.38434 0.4183 0.0
C553 C 0.4017 0.36881 0.3748 0.0
C554 C 0.37387 0.35939 0.37625 0.0
C555 C 0.36254 0.36647 0.41877 0.0
H556 H 0.08589 0.38709 0.62752 0.0
H557 H 0.01848 0.36918 0.52358 0.0
H558 H 0.05493 0.35666 0.69545 0.0
H559 H 0.98777 0.3411 0.59183 0.0
H560 H 0.93129 0.29934 0.71777 0.0
H561 H 0.96445 0.30681 0.64857 0.0
H562 H 0.02812 0.35873 0.75861 0.0
H563 H -0.00448 0.34913 0.82802 0.0
C564 C 0.06451 0.3765 0.61903 0.0
C565 C 0.0547 0.38099 0.57057 0.0
C566 C 0.04661 0.35919 0.65819 0.0
C567 C 0.01848 0.34673 0.65046 0.0
C568 C 0.00903 0.34979 0.60004 0.0
C569 C 0.02686 0.36637 0.56058 0.0
C570 C 0.95246 0.31152 0.72754 0.0
C571 C 0.96062 0.32429 0.77792 0.0
C572 C 0.97159 0.31622 0.68756 0.0
C573 C -0.00081 0.33454 0.69653 0.0
C574 C 0.00732 0.34465 0.7491 0.0
C575 C 0.98834 0.33928 0.78934 0.0
H576 H 0.66169 0.0235 0.20985 0.0
H577 H 0.64341 0.96704 0.07902 0.0
H578 H 0.67827 0.06048 0.14545 0.0
H579 H 0.65853 0.00346 0.01474 0.0
H580 H 0.67274 0.06568 0.90017 0.0
H581 H 0.68553 0.04354 0.96855 0.0
H582 H 0.65153 0.07134 0.09174 0.0
H583 H 0.64006 0.09434 0.02395 0.0
C584 C 0.66202 0.01909 0.16743 0.0
C585 C 0.65056 0.99228 0.14937 0.0
C586 C 0.67127 0.04026 0.13041 0.0
C587 C 0.66876 0.03495 0.07465 0.0
C588 C 0.66075 0.00853 0.0572 0.0
C589 C 0.65195 0.98744 0.09427 0.0
C590 C 0.66877 0.0677 0.94213 0.0
C591 C 0.65481 0.08122 0.95657 0.0
C592 C 0.67599 0.05489 0.98135 0.0
C593 C 0.66897 0.05494 0.03571 0.0
C594 C 0.65748 0.07083 0.05053 0.0
C595 C 0.65065 0.08397 0.01142 0.0
H596 H 0.66399 0.63177 0.36925 0.0
H597 H 0.61994 0.65012 0.4872 0.0
H598 H 0.63406 0.63108 0.29855 0.0
H599 H 0.58942 0.64832 0.41732 0.0
H600 H 0.54449 0.65543 0.27385 0.0
H601 H 0.58007 0.66527 0.3387 0.0
H602 H 0.58905 0.60005 0.27326 0.0
H603 H 0.55414 0.59089 0.20694 0.0
C604 C 0.64836 0.63637 0.37986 0.0
C605 C 0.64437 0.64095 0.43391 0.0
C606 C 0.63089 0.63551 0.33948 0.0
C607 C 0.60883 0.63893 0.35228 0.0
C608 C 0.60619 0.64569 0.40568 0.0
C609 C 0.62387 0.64688 0.44593 0.0
C610 C 0.55397 0.64309 0.27336 0.0
C611 C 0.54634 0.62228 0.23518 0.0
C612 C 0.57443 0.64876 0.31069 0.0
C613 C 0.58768 0.63363 0.31121 0.0
C614 C 0.57981 0.61259 0.27338 0.0
C615 C 0.5595 0.60708 0.23568 0.0
H616 H 0.00292 0.64789 0.83327 0.0
H617 H 0.05703 0.65886 0.70201 0.0
H618 H 0.96691 0.63749 0.76884 0.0
H619 H 0.02096 0.64795 0.63784 0.0
H620 H 0.95411 0.62767 0.52665 0.0
H621 H 0.98763 0.6554 0.59381 0.0
H622 H 0.94163 0.5968 0.71649 0.0
H623 H 0.90791 0.56941 0.64972 0.0
C624 C 0.00736 0.64879 0.79061 0.0
C625 C 0.03274 0.65368 0.77284 0.0
C626 C 0.98664 0.64265 0.75371 0.0
C627 C 0.99083 0.64125 0.69825 0.0
C628 C 0.01697 0.64889 0.68023 0.0
C629 C 0.03774 0.65513 0.71714 0.0
C630 C 0.95077 0.62105 0.56826 0.0
C631 C 0.92855 0.59605 0.58263 0.0
C632 C 0.97008 0.63691 0.60669 0.0
C633 C 0.96763 0.62813 0.66035 0.0
C634 C 0.94416 0.60434 0.67562 0.0
C635 C 0.92479 0.58851 0.6372 0.0
H636 H 0.47133 0.05217 0.16494 0.0
H637 H 0.41414 0.98109 0.25228 0.0
H638 H 0.49592 0.0294 0.13871 0.0
H639 H 0.43908 0.95858 0.22686 0.0
H640 H 0.48611 0.92156 0.17609 0.0
H641 H 0.45785 0.94125 0.1566 0.0
H642 H 0.52286 0.01966 0.20352 0.0
H643 H 0.55117 0.00024 0.22245 0.0
C644 C 0.46386 0.03158 0.17804 0.0
C645 C 0.44139 0.01861 0.21213 0.0
C646 C 0.4778 0.01855 0.16262 0.0
C647 C 0.46956 0.99249 0.18139 0.0
C648 C 0.44573 0.97866 0.2115 0.0
C649 C 0.43166 0.99164 0.22666 0.0
C650 C 0.49451 0.94309 0.18136 0.0
C651 C 0.52055 0.9593 0.20242 0.0
C652 C 0.47837 0.9543 0.16989 0.0
C653 C 0.48813 0.98181 0.17911 0.0
C654 C 0.51492 -0.00162 0.19561 0.0
C655 C 0.53103 0.9872 0.20717 0.0
H656 H 0.41936 0.49766 0.45903 0.0
H657 H 0.43915 0.53335 0.6177 0.0
H658 H 0.46545 0.52838 0.4291 0.0
H659 H 0.48481 0.56447 0.58791 0.0
H660 H 0.54199 0.52281 0.50496 0.0
H661 H 0.49777 0.51541 0.48063 0.0
H662 H 0.5224 0.59799 0.52156 0.0
H663 H 0.56689 0.60569 0.54551 0.0
C664 C 0.43335 0.51304 0.48649 0.0
C665 C 0.42659 0.51312 0.54071 0.0
C666 C 0.45942 0.53069 0.46927 0.0
C667 C 0.47854 0.54836 0.50647 0.0
C668 C 0.47035 0.55106 0.55844 0.0
C669 C 0.44446 0.5331 0.57584 0.0
C670 C 0.53817 0.53953 0.50776 0.0
C671 C 0.55739 0.5644 0.52937 0.0
C672 C 0.51309 0.53552 0.49257 0.0
C673 C 0.50686 0.55621 0.49953 0.0
C674 C 0.52693 0.58187 0.5158 0.0
C675 C 0.55212 0.58599 0.53046 0.0
H676 H 0.92601 0.42903 0.75366 0.0
H677 H -0.00142 0.43237 0.81288 0.0
H678 H 0.953 0.4693 0.69992 0.0
H679 H 0.02531 0.4726 0.76132 0.0
H680 H 0.07026 0.55119 0.7589 0.0
H681 H 0.04461 0.51059 0.70487 0.0
H682 H 0.97102 0.50871 0.75227 0.0
H683 H -0.00352 0.5493 0.80403 0.0
C684 C 0.94772 0.43822 0.75477 0.0
C685 C 0.96039 0.42896 0.79061 0.0
C686 C 0.96314 0.46096 0.7232 0.0
C687 C 0.99126 0.47532 0.72929 0.0
C688 C 0.00367 0.46283 0.75688 0.0
C689 C 0.98832 0.43995 0.78777 0.0
C690 C 0.04858 0.54226 0.75678 0.0
C691 C 0.03502 0.55193 0.78909 0.0
C692 C 0.03397 0.51935 0.72499 0.0
C693 C 0.00572 0.5052 0.72781 0.0
C694 C -0.00726 0.51825 0.75085 0.0
C695 C 0.00731 0.54134 0.78188 0.0
H696 H 0.06991 0.52885 0.50318 0.0
H697 H 0.02929 0.44786 0.56708 0.0
H698 H 0.03687 0.53749 0.54526 0.0
H699 H -0.00347 0.4568 0.61131 0.0
H700 H 0.97039 0.54585 0.56014 0.0
H701 H 0.00467 0.53928 0.60446 0.0
H702 H 0.96403 0.45632 0.55009 0.0
H703 H 0.92977 0.46267 0.50748 0.0
C704 C 0.05435 0.51319 0.52773 0.0
C705 C 0.05095 0.4872 0.52908 0.0
C706 C 0.03562 0.51826 0.55294 0.0
C707 C 0.0133 0.4973 0.57959 0.0
C708 C 0.01296 0.47294 0.58925 0.0
C709 C 0.03141 0.46771 0.56322 0.0
C710 C 0.96858 0.52607 0.55866 0.0
C711 C 0.94843 0.50517 0.52754 0.0
C712 C 0.98796 0.52224 0.58477 0.0
C713 C 0.98774 0.49771 0.57883 0.0
C714 C 0.96516 0.47569 0.555 0.0
C715 C 0.94571 0.47944 0.52935 0.0
H716 H 0.41441 0.94886 0.81692 0.0
H717 H 0.48412 0.95311 0.74203 0.0
H718 H 0.43257 0.94946 0.90575 0.0
H719 H 0.50361 0.95581 0.82951 0.0
H720 H 0.55273 0.99302 0.9113 0.0
H721 H 0.51245 0.94946 0.9242 0.0
H722 H 0.46586 0.98858 0.9479 0.0
H723 H 0.50546 0.03213 0.93441 0.0
C724 C 0.43349 0.94965 0.8196 0.0
C725 C 0.44818 0.95167 0.77287 0.0
C726 C 0.44388 0.94974 0.87052 0.0
C727 C 0.46993 0.95342 0.87573 0.0
C728 C 0.48354 0.95314 0.82829 0.0
C729 C 0.47269 0.95214 0.7776 0.0
C730 C 0.53404 0.99247 0.92111 0.0
C731 C 0.53133 0.01551 0.91549 0.0
C732 C 0.51097 0.96748 0.92986 0.0
C733 C 0.48584 0.96614 0.92555 0.0
C734 C 0.4849 0.98918 0.94242 0.0
C735 C 0.50755 0.0143 0.93366 0.0
H736 H 0.49647 0.55995 0.93193 0.0
H737 H 0.42437 0.50324 0.0157 0.0
H738 H 0.49725 0.52297 0.88435 0.0
H739 H 0.42583 0.46615 0.97119 0.0
H740 H 0.52484 0.46983 0.98271 0.0
H741 H 0.51368 0.50136 0.94252 0.0
H742 H 0.43247 0.43676 0.91217 0.0
H743 H 0.4437 0.40505 0.95381 0.0
C744 C 0.48041 0.53949 0.93889 0.0
C745 C 0.46114 0.53389 0.97904 0.0
C746 C 0.48065 0.51841 0.91134 0.0
C747 C 0.46258 0.49168 0.92632 0.0
C748 C 0.44048 0.48649 0.95938 0.0
C749 C 0.43979 0.50766 0.98575 0.0
C750 C 0.5048 0.46224 0.96638 0.0
C751 C 0.48471 0.43545 0.97428 0.0
C752 C 0.49841 0.48024 0.94218 0.0
C753 C 0.47177 0.47169 0.9258 0.0
C754 C 0.4529 0.44403 0.92593 0.0
C755 C 0.45925 0.42601 0.95052 0.0
H756 H 0.32001 0.94364 0.66089 0.0
H757 H 0.33337 0.90181 0.53026 0.0
H758 H 0.30726 0.96759 0.59673 0.0
H759 H 0.32209 0.9267 0.46552 0.0
H760 H 0.34855 0.03809 0.47204 0.0
H761 H 0.33527 0.00403 0.54149 0.0
H762 H 0.29509 0.94139 0.42166 0.0
H763 H 0.30952 0.97577 0.3518 0.0
C764 C 0.31962 0.93919 0.61829 0.0
C765 C 0.32799 0.92124 0.6002 0.0
C766 C 0.31249 0.95302 0.58152 0.0
C767 C 0.31427 0.94968 0.52581 0.0
C768 C 0.32026 0.92976 0.50805 0.0
C769 C 0.32687 0.9155 0.54506 0.0
C770 C 0.33587 0.01712 0.46087 0.0
C771 C 0.33055 0.00954 0.40651 0.0
C772 C 0.3282 -0.00258 0.50079 0.0
C773 C 0.31475 0.9698 0.48701 0.0
C774 C 0.30618 0.96242 0.43345 0.0
C775 C 0.31418 0.98212 0.3935 0.0
H776 H 0.44982 0.33067 0.86507 0.0
H777 H 0.39743 0.33429 0.9861 0.0
H778 H 0.42768 0.34318 0.79623 0.0
H779 H 0.37592 0.34756 0.9176 0.0
H780 H 0.41509 0.40752 0.71326 0.0
H781 H 0.42999 0.38542 0.77664 0.0
H782 H 0.34884 0.33816 0.83684 0.0
H783 H 0.33386 0.3609 0.77369 0.0
C784 C 0.4332 0.33352 0.87691 0.0
C785 C 0.42569 0.33174 0.93137 0.0
C786 C 0.4207 0.34103 0.83747 0.0
C787 C 0.40043 0.34704 0.8515 0.0
C788 C 0.39141 0.34309 0.9052 0.0
C789 C 0.40381 0.33544 0.94461 0.0
C790 C 0.40029 0.39238 0.7398 0.0
C791 C 0.37322 0.38607 0.73823 0.0
C792 C 0.40884 0.37945 0.77592 0.0
C793 C 0.39059 0.3597 0.81153 0.0
C794 C 0.36347 0.35333 0.81014 0.0
C795 C 0.35487 0.36636 0.77387 0.0
H796 H -0.00774 0.35617 0.01458 0.0
H797 H 0.92844 0.34827 0.11861 0.0
H798 H 0.02196 0.36675 0.0921 0.0
H799 H 0.95851 0.36098 0.1959 0.0
H800 H 0.01339 0.37522 0.3343 0.0
H801 H 0.98292 0.35326 0.25887 0.0
H802 H 0.0473 0.40214 0.14788 0.0
H803 H 0.07795 0.42227 0.22346 0.0
C804 C 0.98463 0.35661 0.05433 0.0
C805 C 0.95816 0.35144 0.06086 0.0
C806 C 0.00172 0.363 0.0988 0.0
C807 C -0.007 0.3653 0.15064 0.0
C808 C 0.96604 0.35907 0.15711 0.0
C809 C 0.94872 0.35187 0.11275 0.0
C810 C 0.02099 0.38082 0.29358 0.0
C811 C 0.04794 0.40039 0.28452 0.0
C812 C 0.00349 0.36845 0.25023 0.0
C813 C 0.01235 0.37599 0.19678 0.0
C814 C 0.03964 0.39523 0.18806 0.0
C815 C 0.0573 0.407 0.23143 0.0
H816 H 0.59164 0.00833 0.69879 0.0
H817 H 0.64854 0.08275 0.62144 0.0
H818 H 0.59422 0.98285 0.62259 0.0
H819 H 0.65236 0.05732 0.54644 0.0
H820 H 0.62062 0.00811 0.39183 0.0
H821 H 0.62693 0.03392 0.47274 0.0
H822 H 0.61715 0.96661 0.56906 0.0
H823 H 0.60934 0.93992 0.48669 0.0
C824 C 0.60511 0.01925 0.66589 0.0
C825 C 0.61959 0.04762 0.66586 0.0
C826 C 0.60679 0.00458 0.62224 0.0
C827 C 0.62332 0.01787 0.57768 0.0
C828 C 0.63885 0.04627 0.57916 0.0
C829 C 0.63678 0.06094 0.62234 0.0
C830 C 0.62008 -0.00126 0.43011 0.0
C831 C 0.61409 0.97171 0.43257 0.0
C832 C 0.62402 0.01379 0.47692 0.0
C833 C 0.62244 0.00249 0.52801 0.0
C834 C 0.61803 0.9759 0.53054 0.0
C835 C 0.61388 0.96065 0.4833 0.0
H836 H 0.54571 0.65464 0.88551 0.0
H837 H 0.58763 0.63833 0.01161 0.0
H838 H 0.57772 0.65575 0.81963 0.0
H839 H 0.62034 0.64048 0.94623 0.0
H840 H 0.64399 0.6035 0.8036 0.0
H841 H 0.62182 0.61301 0.87728 0.0
H842 H 0.62107 0.67608 0.78249 0.0
H843 H 0.64221 0.66568 0.70819 0.0
C844 C 0.56223 0.65209 0.89945 0.0
C845 C 0.56392 0.64617 0.95378 0.0
C846 C 0.58074 0.65278 0.86161 0.0
C847 C 0.60164 0.64791 0.87724 0.0
C848 C 0.60424 0.6437 0.93228 0.0
C849 C 0.58557 0.6427 0.96994 0.0
C850 C 0.63979 0.61989 0.79911 0.0
C851 C 0.64469 0.63367 0.74988 0.0
C852 C 0.62699 0.6254 0.84144 0.0
C853 C 0.61909 0.64506 0.83577 0.0
C854 C 0.62608 0.66029 0.78798 0.0
C855 C 0.63852 0.65455 0.74551 0.0
H856 H 0.06006 0.65599 0.10833 0.0
H857 H -0.00686 0.59306 0.01988 0.0
H858 H 0.03081 0.64732 0.18624 0.0
H859 H 0.96433 0.58404 0.09773 0.0
H860 H 0.91251 0.58136 0.23402 0.0
H861 H 0.94189 0.60043 0.15596 0.0
H862 H 0.00972 0.61148 0.25167 0.0
H863 H 0.98068 0.5932 0.32978 0.0
C864 C 0.03912 0.64046 0.10532 0.0
C865 C 0.02904 0.62507 0.05797 0.0
C866 C 0.02239 0.63542 0.15004 0.0
C867 C -0.00476 0.61492 0.14832 0.0
C868 C 0.985 0.60023 0.1003 0.0
C869 C 0.00167 0.60526 0.05571 0.0
C870 C 0.93377 0.5883 0.23865 0.0
C871 C 0.94415 0.58545 0.28805 0.0
C872 C 0.95059 0.59908 0.19381 0.0
C873 C 0.97811 0.60722 0.1974 0.0
C874 C 0.9887 0.60567 0.24753 0.0
C875 C 0.97194 0.59496 0.29231 0.0
H876 H 0.43319 0.09677 0.49103 0.0
H877 H 0.49596 0.10374 0.38435 0.0
H878 H 0.46082 0.09983 0.56877 0.0
H879 H 0.52311 0.10608 0.4616 0.0
H880 H 0.57607 0.13221 0.61062 0.0
H881 H 0.54914 0.13326 0.53553 0.0
H882 H 0.47683 0.07364 0.61522 0.0
H883 H 0.50366 0.0731 0.69088 0.0
C884 C 0.4529 0.09908 0.48406 0.0
C885 C 0.46226 0.10001 0.43122 0.0
C886 C 0.46869 0.10062 0.52871 0.0
C887 C 0.49426 0.10312 0.52171 0.0
C888 C 0.50375 0.10455 0.46882 0.0
C889 C 0.48803 0.10305 0.42432 0.0
C890 C 0.55443 0.11936 0.61227 0.0
C891 C 0.54214 0.10252 0.65696 0.0
C892 C 0.53893 0.11987 0.56898 0.0
C893 C 0.51071 0.10349 0.569 0.0
C894 C 0.49842 0.08683 0.61395 0.0
C895 C 0.5139 0.08638 0.6573 0.0
H896 H 0.33837 0.46691 0.80575 0.0
H897 H 0.35458 0.52554 0.68039 0.0
H898 H 0.35835 0.50345 0.87219 0.0
H899 H 0.37468 0.56173 0.74651 0.0
H900 H 0.44549 0.61361 0.86979 0.0
H901 H 0.41776 0.58068 0.80119 0.0
H902 H 0.35331 0.54105 0.91624 0.0
H903 H 0.38064 0.57402 0.98455 0.0
C904 C 0.34564 0.48743 0.79244 0.0
C905 C 0.34492 0.49312 0.73751 0.0
C906 C 0.35712 0.5084 0.83052 0.0
C907 C 0.36836 0.53554 0.81446 0.0
C908 C 0.36653 0.54111 0.76006 0.0
C909 C 0.35481 0.52022 0.72221 0.0
C910 C 0.42511 0.59846 0.88007 0.0
C911 C 0.41552 0.59647 0.93304 0.0
C912 C 0.40923 0.57946 0.84076 0.0
C913 C 0.3835 0.55793 0.85363 0.0
C914 C 0.37321 0.55707 0.90537 0.0
C915 C 0.38889 0.57621 0.94438 0.0
H916 H 0.88081 0.37161 0.10785 0.0
H917 H 0.86407 0.41789 0.99254 0.0
H918 H 0.8736 0.39531 0.18124 0.0
H919 H 0.85519 0.44075 0.06629 0.0
H920 H 0.8725 0.49779 0.21259 0.0
H921 H 0.87448 0.47289 0.13421 0.0
H922 H 0.8429 0.40056 0.23109 0.0
H923 H 0.84284 0.42607 0.3096 0.0
C924 C 0.8751 0.38658 0.09819 0.0
C925 C 0.873 0.39282 0.04431 0.0
C926 C 0.8707 0.4001 0.14047 0.0
C927 C 0.86346 0.41993 0.13025 0.0
C928 C 0.86105 0.42594 0.0761 0.0
C929 C 0.866 0.41272 0.03368 0.0
C930 C 0.86554 0.47645 0.21658 0.0
C931 C 0.85765 0.46386 0.2671 0.0
C932 C 0.86665 0.46208 0.17164 0.0
C933 C 0.85938 0.43466 0.1761 0.0
C934 C 0.84962 0.42179 0.22611 0.0
C935 C 0.84919 0.4363 0.27113 0.0
H936 H 0.52379 0.87122 0.46198 0.0
H937 H 0.46518 0.84252 0.33318 0.0
H938 H 0.48794 0.85829 0.52749 0.0
H939 H 0.42909 0.82865 0.3989 0.0
H940 H 0.42303 0.83127 0.64341 0.0
H941 H 0.44982 0.82556 0.57382 0.0
H942 H 0.41294 0.85157 0.4535 0.0
H943 H 0.3853 0.85595 0.52316 0.0
C944 C 0.50317 0.86142 0.44773 0.0
C945 C 0.49743 0.85825 0.3923 0.0
C946 C 0.48248 0.85382 0.4854 0.0
C947 C 0.45546 0.84258 0.46862 0.0
C948 C 0.44962 0.83772 0.41331 0.0
C949 C 0.47035 0.84556 0.37562 0.0
C950 C 0.41988 0.83462 0.60168 0.0
C951 C 0.40217 0.84408 0.58854 0.0
C952 C 0.43552 0.83175 0.56186 0.0
C953 C 0.43421 0.83886 0.50813 0.0
C954 C 0.41452 0.84581 0.49432 0.0
C955 C 0.39852 0.84824 0.5342 0.0
H956 H 0.60182 0.47252 0.65617 0.0
H957 H 0.64446 0.52914 0.78404 0.0
H958 H 0.58756 0.43522 0.71905 0.0
H959 H 0.62872 0.49223 0.8481 0.0
H960 H 0.60538 0.42478 0.95938 0.0
H961 H 0.62869 0.45596 0.88579 0.0
H962 H 0.55777 0.41271 0.7859 0.0
H963 H 0.53565 0.38065 0.85816 0.0
C964 C 0.60803 0.47698 0.69796 0.0
C965 C 0.62416 0.50381 0.71517 0.0
C966 C 0.59969 0.45554 0.73433 0.0
C967 C 0.60662 0.46031 0.78941 0.0
C968 C 0.62327 0.48731 0.80616 0.0
C969 C 0.63217 0.50868 0.76943 0.0
C970 C 0.59534 0.42131 0.92072 0.0
C971 C 0.56876 0.40014 0.91447 0.0
C972 C 0.60846 0.43959 0.87871 0.0
C973 C 0.59501 0.4377 0.82984 0.0
C974 C 0.56915 0.41508 0.82233 0.0
C975 C 0.55634 0.3964 0.8639 0.0
H976 H 0.15365 0.55896 0.31621 0.0
H977 H 0.12303 0.4873 0.21805 0.0
H978 H 0.15291 0.58455 0.23853 0.0
H979 H 0.12052 0.51227 0.14079 0.0
H980 H 0.11396 0.61324 0.11527 0.0
H981 H 0.12231 0.59032 0.18882 0.0
H982 H 0.1397 0.54417 0.07349 0.0
H983 H 0.1297 0.56611 1.00008 0.0
C984 C 0.14698 0.54876 0.2777 0.0
C985 C 0.13845 0.52117 0.27315 0.0
C986 C 0.14617 0.56333 0.23318 0.0
C987 C 0.13608 0.55052 0.18314 0.0
C988 C 0.12869 0.52309 0.17818 0.0
C989 C 0.13011 0.50866 0.22255 0.0
C990 C 0.11969 0.59828 0.10567 0.0
C991 C 0.12104 0.59143 0.05183 0.0
C992 C 0.12473 0.5852 0.14796 0.0
C993 C 0.13184 0.56526 0.13761 0.0
C994 C 0.13381 0.55894 0.08347 0.0
C995 C 0.12823 0.57167 0.0412 0.0
loop_
_geom_bond_atom_site_label_1
_geom_bond_atom_site_label_2
_geom_bond_distance
_geom_bond_site_symmetry_2
_ccdc_geom_bond_type
O0 Zn1 1.953 . S
O0 C16 1.225 . S
Zn1 O0 1.953 . S
Zn1 O2 1.949 . S
Zn1 O8 1.919 . S
Zn1 O13 1.924 . S
O2 Zn1 1.949 . S
O2 Zn3 1.923 . S
O2 Zn4 1.950 . S
O2 Zn5 1.945 . S
Zn3 O2 1.923 . S
Zn3 O6 1.933 . S
Zn3 O9 1.941 . S
Zn3 O10 1.965 . S
Zn4 O2 1.950 . S
Zn4 O11 1.938 . S
Zn4 O12 1.906 . S
Zn4 O22 1.953 . S
Zn5 O2 1.945 . S
Zn5 O7 1.932 . S
Zn5 O14 1.977 . S
Zn5 O15 1.910 . S
O6 Zn3 1.933 . S
O6 C17 1.226 . S
O7 Zn5 1.932 . S
O7 C17 1.307 . S
O8 Zn1 1.919 . S
O8 C19 1.253 . S
O9 Zn3 1.941 . S
O9 C19 1.283 . S
O10 Zn3 1.965 . S
O10 C18 1.303 . S
O11 Zn4 1.938 . S
O11 C18 1.247 . S
O12 Zn4 1.906 . S
O12 C20 1.304 . S
O13 Zn1 1.924 . S
O13 C21 1.311 . S
O14 Zn5 1.977 . S
O14 C20 1.272 . S
O15 Zn5 1.910 . S
O15 C21 1.231 . S
C16 O0 1.225 . S
C16 O22 1.298 . S
C17 O6 1.226 . S
C17 O7 1.307 . S
C18 O10 1.303 . S
C18 O11 1.247 . S
C19 O8 1.253 . S
C19 O9 1.283 . S
C20 O12 1.304 . S
C20 O14 1.272 . S
C21 O13 1.311 . S
C21 O15 1.231 . S
O22 Zn4 1.953 . S
O22 C16 1.298 . S
O23 Zn24 1.953 . S
O23 C39 1.225 . S
Zn24 O23 1.953 . S
Zn24 O25 1.949 . S
Zn24 O31 1.919 . S
Zn24 O36 1.924 . S
O25 Zn24 1.949 . S
O25 Zn26 1.923 . S
O25 Zn27 1.950 . S
O25 Zn28 1.945 . S
Zn26 O25 1.923 . S
Zn26 O29 1.933 . S
Zn26 O32 1.941 . S
Zn26 O33 1.965 . S
Zn27 O25 1.950 . S
Zn27 O34 1.938 . S
Zn27 O35 1.906 . S
Zn27 O45 1.953 . S
Zn28 O25 1.945 . S
Zn28 O30 1.932 . S
Zn28 O37 1.977 . S
Zn28 O38 1.910 . S
O29 Zn26 1.933 . S
O29 C40 1.226 . S
O30 Zn28 1.932 . S
O30 C40 1.307 . S
O31 Zn24 1.919 . S
O31 C42 1.253 . S
O32 Zn26 1.941 . S
O32 C42 1.283 . S
O33 Zn26 1.965 . S
O33 C41 1.303 . S
O34 Zn27 1.938 . S
O34 C41 1.247 . S
O35 Zn27 1.906 . S
O35 C43 1.304 . S
O36 Zn24 1.924 . S
O36 C44 1.311 . S
O37 Zn28 1.977 . S
O37 C43 1.272 . S
O38 Zn28 1.910 . S
O38 C44 1.231 . S
C39 O23 1.225 . S
C39 O45 1.298 . S
C40 O29 1.226 . S
C40 O30 1.307 . S
C41 O33 1.303 . S
C41 O34 1.247 . S
C42 O31 1.253 . S
C42 O32 1.283 . S
C43 O35 1.304 . S
C43 O37 1.272 . S
C44 O36 1.311 . S
C44 O38 1.231 . S
O45 Zn27 1.953 . S
O45 C39 1.298 . S
O46 Zn47 1.953 . S
O46 C62 1.225 1_556 S
Zn47 O46 1.953 . S
Zn47 O48 1.949 . S
Zn47 O54 1.919 . S
Zn47 O59 1.924 . S
O48 Zn47 1.949 . S
O48 Zn49 1.923 . S
O48 Zn50 1.950 . S
O48 Zn51 1.945 . S
Zn49 O48 1.923 . S
Zn49 O52 1.933 . S
Zn49 O55 1.941 . S
Zn49 O56 1.965 . S
Zn50 O48 1.950 . S
Zn50 O57 1.938 1_556 S
Zn50 O58 1.906 . S
Zn50 O68 1.953 1_556 S
Zn51 O48 1.945 . S
Zn51 O53 1.932 . S
Zn51 O60 1.977 . S
Zn51 O61 1.910 . S
O52 Zn49 1.933 . S
O52 C63 1.226 . S
O53 Zn51 1.932 . S
O53 C63 1.307 . S
O54 Zn47 1.919 . S
O54 C65 1.253 . S
O55 Zn49 1.941 . S
O55 C65 1.283 . S
O56 Zn49 1.965 . S
O56 C64 1.303 1_556 S
O57 Zn50 1.938 1_554 S
O57 C64 1.247 . S
O58 Zn50 1.906 . S
O58 C66 1.304 . S
O59 Zn47 1.924 . S
O59 C67 1.311 . S
O60 Zn51 1.977 . S
O60 C66 1.272 . S
O61 Zn51 1.910 . S
O61 C67 1.231 . S
C62 O46 1.225 1_554 S
C62 O68 1.298 . S
C63 O52 1.226 . S
C63 O53 1.307 . S
C64 O56 1.303 1_554 S
C64 O57 1.247 . S
C65 O54 1.253 . S
C65 O55 1.283 . S
C66 O58 1.304 . S
C66 O60 1.272 . S
C67 O59 1.311 . S
C67 O61 1.231 . S
O68 Zn50 1.953 1_554 S
O68 C62 1.298 . S
O69 Zn70 1.953 . S
O69 C85 1.225 . S
Zn70 O69 1.953 . S
Zn70 O71 1.949 . S
Zn70 O77 1.919 . S
Zn70 O82 1.924 . S
O71 Zn70 1.949 . S
O71 Zn72 1.923 . S
O71 Zn73 1.950 . S
O71 Zn74 1.945 . S
Zn72 O71 1.923 . S
Zn72 O75 1.933 . S
Zn72 O78 1.941 . S
Zn72 O79 1.965 . S
Zn73 O71 1.950 . S
Zn73 O80 1.938 . S
Zn73 O81 1.906 . S
Zn73 O91 1.953 . S
Zn74 O71 1.945 . S
Zn74 O76 1.932 . S
Zn74 O83 1.977 . S
Zn74 O84 1.910 . S
O75 Zn72 1.933 . S
O75 C86 1.226 . S
O76 Zn74 1.932 . S
O76 C86 1.307 . S
O77 Zn70 1.919 . S
O77 C88 1.253 . S
O78 Zn72 1.941 . S
O78 C88 1.283 . S
O79 Zn72 1.965 . S
O79 C87 1.303 . S
O80 Zn73 1.938 . S
O80 C87 1.247 . S
O81 Zn73 1.906 . S
O81 C89 1.304 . S
O82 Zn70 1.924 . S
O82 C90 1.311 . S
O83 Zn74 1.977 . S
O83 C89 1.272 . S
O84 Zn74 1.910 . S
O84 C90 1.231 . S
C85 O69 1.225 . S
C85 O91 1.298 . S
C86 O75 1.226 . S
C86 O76 1.307 . S
C87 O79 1.303 . S
C87 O80 1.247 . S
C88 O77 1.253 . S
C88 O78 1.283 . S
C89 O81 1.304 . S
C89 O83 1.272 . S
C90 O82 1.311 . S
C90 O84 1.231 . S
O91 Zn73 1.953 . S
O91 C85 1.298 . S
O92 Zn93 1.953 . S
O92 C108 1.225 . S
Zn93 O92 1.953 . S
Zn93 O94 1.949 . S
Zn93 O100 1.919 . S
Zn93 O105 1.924 . S
O94 Zn93 1.949 . S
O94 Zn95 1.923 . S
O94 Zn96 1.950 . S
O94 Zn97 1.945 . S
Zn95 O94 1.923 . S
Zn95 O98 1.933 . S
Zn95 O101 1.941 . S
Zn95 O102 1.965 . S
Zn96 O94 1.950 . S
Zn96 O103 1.938 . S
Zn96 O104 1.906 . S
Zn96 O114 1.953 . S
Zn97 O94 1.945 . S
Zn97 O99 1.932 . S
Zn97 O106 1.977 . S
Zn97 O107 1.910 . S
O98 Zn95 1.933 . S
O98 C109 1.226 . S
O99 Zn97 1.932 . S
O99 C109 1.307 . S
O100 Zn93 1.919 . S
O100 C111 1.253 . S
O101 Zn95 1.941 . S
O101 C111 1.283 . S
O102 Zn95 1.965 . S
O102 C110 1.303 . S
O103 Zn96 1.938 . S
O103 C110 1.247 . S
O104 Zn96 1.906 . S
O104 C112 1.304 . S
O105 Zn93 1.924 . S
O105 C113 1.311 . S
O106 Zn97 1.977 . S
O106 C112 1.272 . S
O107 Zn97 1.910 . S
O107 C113 1.231 . S
C108 O92 1.225 . S
C108 O114 1.298 . S
C109 O98 1.226 . S
C109 O99 1.307 . S
C110 O102 1.303 . S
C110 O103 1.247 . S
C111 O100 1.253 . S
C111 O101 1.283 . S
C112 O104 1.304 . S
C112 O106 1.272 . S
C113 O105 1.311 . S
C113 O107 1.231 . S
O114 Zn96 1.953 . S
O114 C108 1.298 . S
O115 Zn116 1.953 . S
O115 C131 1.225 1_556 S
Zn116 O115 1.953 . S
Zn116 O117 1.949 . S
Zn116 O123 1.919 . S
Zn116 O128 1.924 . S
O117 Zn116 1.949 . S
O117 Zn118 1.923 . S
O117 Zn119 1.950 . S
O117 Zn120 1.945 . S
Zn118 O117 1.923 . S
Zn118 O121 1.933 . S
Zn118 O124 1.941 . S
Zn118 O125 1.965 . S
Zn119 O117 1.950 . S
Zn119 O126 1.938 1_556 S
Zn119 O127 1.906 . S
Zn119 O137 1.953 1_556 S
Zn120 O117 1.945 . S
Zn120 O122 1.932 . S
Zn120 O129 1.977 . S
Zn120 O130 1.910 . S
O121 Zn118 1.933 . S
O121 C132 1.226 . S
O122 Zn120 1.932 . S
O122 C132 1.307 . S
O123 Zn116 1.919 . S
O123 C134 1.253 . S
O124 Zn118 1.941 . S
O124 C134 1.283 . S
O125 Zn118 1.965 . S
O125 C133 1.303 1_556 S
O126 Zn119 1.938 1_554 S
O126 C133 1.247 . S
O127 Zn119 1.906 . S
O127 C135 1.304 . S
O128 Zn116 1.924 . S
O128 C136 1.311 . S
O129 Zn120 1.977 . S
O129 C135 1.272 . S
O130 Zn120 1.910 . S
O130 C136 1.231 . S
C131 O115 1.225 1_554 S
C131 O137 1.298 . S
C132 O121 1.226 . S
C132 O122 1.307 . S
C133 O125 1.303 1_554 S
C133 O126 1.247 . S
C134 O123 1.253 . S
C134 O124 1.283 . S
C135 O127 1.304 . S
C135 O129 1.272 . S
C136 O128 1.311 . S
C136 O130 1.231 . S
O137 Zn119 1.953 1_554 S
O137 C131 1.298 . S
O138 Zn139 1.953 . S
O138 C154 1.225 . S
Zn139 O138 1.953 . S
Zn139 O140 1.949 . S
Zn139 O146 1.919 . S
Zn139 O151 1.924 . S
O140 Zn139 1.949 . S
O140 Zn141 1.923 . S
O140 Zn142 1.950 . S
O140 Zn143 1.945 . S
Zn141 O140 1.923 . S
Zn141 O144 1.933 . S
Zn141 O147 1.941 . S
Zn141 O148 1.965 . S
Zn142 O140 1.950 . S
Zn142 O149 1.938 . S
Zn142 O150 1.906 . S
Zn142 O160 1.953 . S
Zn143 O140 1.945 . S
Zn143 O145 1.932 . S
Zn143 O152 1.977 . S
Zn143 O153 1.910 . S
O144 Zn141 1.933 . S
O144 C155 1.226 . S
O145 Zn143 1.932 . S
O145 C155 1.307 . S
O146 Zn139 1.919 . S
O146 C157 1.253 . S
O147 Zn141 1.941 . S
O147 C157 1.283 . S
O148 Zn141 1.965 . S
O148 C156 1.303 . S
O149 Zn142 1.938 . S
O149 C156 1.247 . S
O150 Zn142 1.906 . S
O150 C158 1.304 . S
O151 Zn139 1.924 . S
O151 C159 1.311 . S
O152 Zn143 1.977 . S
O152 C158 1.272 . S
O153 Zn143 1.910 . S
O153 C159 1.231 . S
C154 O138 1.225 . S
C154 O160 1.298 . S
C155 O144 1.226 . S
C155 O145 1.307 . S
C156 O148 1.303 . S
C156 O149 1.247 . S
C157 O146 1.253 . S
C157 O147 1.283 . S
C158 O150 1.304 . S
C158 O152 1.272 . S
C159 O151 1.311 . S
C159 O153 1.231 . S
O160 Zn142 1.953 . S
O160 C154 1.298 . S
O161 Zn162 1.953 . S
O161 C177 1.225 . S
Zn162 O161 1.953 . S
Zn162 O163 1.949 . S
Zn162 O169 1.919 . S
Zn162 O174 1.924 . S
O163 Zn162 1.949 . S
O163 Zn164 1.923 . S
O163 Zn165 1.950 . S
O163 Zn166 1.945 . S
Zn164 O163 1.923 . S
Zn164 O167 1.933 . S
Zn164 O170 1.941 . S
Zn164 O171 1.965 . S
Zn165 O163 1.950 . S
Zn165 O172 1.938 . S
Zn165 O173 1.906 . S
Zn165 O183 1.953 . S
Zn166 O163 1.945 . S
Zn166 O168 1.932 . S
Zn166 O175 1.977 . S
Zn166 O176 1.910 . S
O167 Zn164 1.933 . S
O167 C178 1.226 . S
O168 Zn166 1.932 . S
O168 C178 1.307 . S
O169 Zn162 1.919 . S
O169 C180 1.253 . S
O170 Zn164 1.941 . S
O170 C180 1.283 . S
O171 Zn164 1.965 . S
O171 C179 1.303 . S
O172 Zn165 1.938 . S
O172 C179 1.247 . S
O173 Zn165 1.906 . S
O173 C181 1.304 . S
O174 Zn162 1.924 . S
O174 C182 1.311 . S
O175 Zn166 1.977 . S
O175 C181 1.272 . S
O176 Zn166 1.910 . S
O176 C182 1.231 . S
C177 O161 1.225 . S
C177 O183 1.298 . S
C178 O167 1.226 . S
C178 O168 1.307 . S
C179 O171 1.303 . S
C179 O172 1.247 . S
C180 O169 1.253 . S
C180 O170 1.283 . S
C181 O173 1.304 . S
C181 O175 1.272 . S
C182 O174 1.311 . S
C182 O176 1.231 . S
O183 Zn165 1.953 . S
O183 C177 1.298 . S
O184 Zn185 1.953 . S
O184 C200 1.225 1_554 S
Zn185 O184 1.953 . S
Zn185 O186 1.949 . S
Zn185 O192 1.919 . S
Zn185 O197 1.924 . S
O186 Zn185 1.949 . S
O186 Zn187 1.923 . S
O186 Zn188 1.950 . S
O186 Zn189 1.945 . S
Zn187 O186 1.923 . S
Zn187 O190 1.933 . S
Zn187 O193 1.941 . S
Zn187 O194 1.965 . S
Zn188 O186 1.950 . S
Zn188 O195 1.938 1_554 S
Zn188 O196 1.906 . S
Zn188 O206 1.953 1_554 S
Zn189 O186 1.945 . S
Zn189 O191 1.932 . S
Zn189 O198 1.977 . S
Zn189 O199 1.910 . S
O190 Zn187 1.933 . S
O190 C201 1.226 . S
O191 Zn189 1.932 . S
O191 C201 1.307 . S
O192 Zn185 1.919 . S
O192 C203 1.253 . S
O193 Zn187 1.941 . S
O193 C203 1.283 . S
O194 Zn187 1.965 . S
O194 C202 1.303 1_554 S
O195 Zn188 1.938 1_556 S
O195 C202 1.247 . S
O196 Zn188 1.906 . S
O196 C204 1.304 . S
O197 Zn185 1.924 . S
O197 C205 1.311 . S
O198 Zn189 1.977 . S
O198 C204 1.272 . S
O199 Zn189 1.910 . S
O199 C205 1.231 . S
C200 O184 1.225 1_556 S
C200 O206 1.298 . S
C201 O190 1.226 . S
C201 O191 1.307 . S
C202 O194 1.303 1_556 S
C202 O195 1.247 . S
C203 O192 1.253 . S
C203 O193 1.283 . S
C204 O196 1.304 . S
C204 O198 1.272 . S
C205 O197 1.311 . S
C205 O199 1.231 . S
O206 Zn188 1.953 1_556 S
O206 C200 1.298 . S
O207 Zn208 1.953 . S
O207 C223 1.225 . S
Zn208 O207 1.953 . S
Zn208 O209 1.949 . S
Zn208 O215 1.919 . S
Zn208 O220 1.924 . S
O209 Zn208 1.949 . S
O209 Zn210 1.923 . S
O209 Zn211 1.950 . S
O209 Zn212 1.945 . S
Zn210 O209 1.923 . S
Zn210 O213 1.933 . S
Zn210 O216 1.941 . S
Zn210 O217 1.965 . S
Zn211 O209 1.950 . S
Zn211 O218 1.938 . S
Zn211 O219 1.906 . S
Zn211 O229 1.953 . S
Zn212 O209 1.945 . S
Zn212 O214 1.932 . S
Zn212 O221 1.977 . S
Zn212 O222 1.910 . S
O213 Zn210 1.933 . S
O213 C224 1.226 . S
O214 Zn212 1.932 . S
O214 C224 1.307 . S
O215 Zn208 1.919 . S
O215 C226 1.253 . S
O216 Zn210 1.941 . S
O216 C226 1.283 . S
O217 Zn210 1.965 . S
O217 C225 1.303 . S
O218 Zn211 1.938 . S
O218 C225 1.247 . S
O219 Zn211 1.906 . S
O219 C227 1.304 . S
O220 Zn208 1.924 . S
O220 C228 1.311 . S
O221 Zn212 1.977 . S
O221 C227 1.272 . S
O222 Zn212 1.910 . S
O222 C228 1.231 . S
C223 O207 1.225 . S
C223 O229 1.298 . S
C224 O213 1.226 . S
C224 O214 1.307 . S
C225 O217 1.303 . S
C225 O218 1.247 . S
C226 O215 1.253 . S
C226 O216 1.283 . S
C227 O219 1.304 . S
C227 O221 1.272 . S
C228 O220 1.311 . S
C228 O222 1.231 . S
O229 Zn211 1.953 . S
O229 C223 1.298 . S
O230 Zn231 1.953 . S
O230 C246 1.225 . S
Zn231 O230 1.953 . S
Zn231 O232 1.949 . S
Zn231 O238 1.919 . S
Zn231 O243 1.924 . S
O232 Zn231 1.949 . S
O232 Zn233 1.923 . S
O232 Zn234 1.950 . S
O232 Zn235 1.945 . S
Zn233 O232 1.923 . S
Zn233 O236 1.933 . S
Zn233 O239 1.941 . S
Zn233 O240 1.965 . S
Zn234 O232 1.950 . S
Zn234 O241 1.938 . S
Zn234 O242 1.906 . S
Zn234 O252 1.953 . S
Zn235 O232 1.945 . S
Zn235 O237 1.932 . S
Zn235 O244 1.977 . S
Zn235 O245 1.910 . S
O236 Zn233 1.933 . S
O236 C247 1.226 . S
O237 Zn235 1.932 . S
O237 C247 1.307 . S
O238 Zn231 1.919 . S
O238 C249 1.253 . S
O239 Zn233 1.941 . S
O239 C249 1.283 . S
O240 Zn233 1.965 . S
O240 C248 1.303 . S
O241 Zn234 1.938 . S
O241 C248 1.247 . S
O242 Zn234 1.906 . S
O242 C250 1.304 . S
O243 Zn231 1.924 . S
O243 C251 1.311 . S
O244 Zn235 1.977 . S
O244 C250 1.272 . S
O245 Zn235 1.910 . S
O245 C251 1.231 . S
C246 O230 1.225 . S
C246 O252 1.298 . S
C247 O236 1.226 . S
C247 O237 1.307 . S
C248 O240 1.303 . S
C248 O241 1.247 . S
C249 O238 1.253 . S
C249 O239 1.283 . S
C250 O242 1.304 . S
C250 O244 1.272 . S
C251 O243 1.311 . S
C251 O245 1.231 . S
O252 Zn234 1.953 . S
O252 C246 1.298 . S
O253 Zn254 1.953 . S
O253 C269 1.225 1_554 S
Zn254 O253 1.953 . S
Zn254 O255 1.949 . S
Zn254 O261 1.919 . S
Zn254 O266 1.924 . S
O255 Zn254 1.949 . S
O255 Zn256 1.923 . S
O255 Zn257 1.950 . S
O255 Zn258 1.945 . S
Zn256 O255 1.923 . S
Zn256 O259 1.933 . S
Zn256 O262 1.941 . S
Zn256 O263 1.965 . S
Zn257 O255 1.950 . S
Zn257 O264 1.938 1_554 S
Zn257 O265 1.906 . S
Zn257 O275 1.953 1_554 S
Zn258 O255 1.945 . S
Zn258 O260 1.932 . S
Zn258 O267 1.977 . S
Zn258 O268 1.910 . S
O259 Zn256 1.933 . S
O259 C270 1.226 . S
O260 Zn258 1.932 . S
O260 C270 1.307 . S
O261 Zn254 1.919 . S
O261 C272 1.253 . S
O262 Zn256 1.941 . S
O262 C272 1.283 . S
O263 Zn256 1.965 . S
O263 C271 1.303 1_554 S
O264 Zn257 1.938 1_556 S
O264 C271 1.247 . S
O265 Zn257 1.906 . S
O265 C273 1.304 . S
O266 Zn254 1.924 . S
O266 C274 1.311 . S
O267 Zn258 1.977 . S
O267 C273 1.272 . S
O268 Zn258 1.910 . S
O268 C274 1.231 . S
C269 O253 1.225 1_556 S
C269 O275 1.298 . S
C270 O259 1.226 . S
C270 O260 1.307 . S
C271 O263 1.303 1_556 S
C271 O264 1.247 . S
C272 O261 1.253 . S
C272 O262 1.283 . S
C273 O265 1.304 . S
C273 O267 1.272 . S
C274 O266 1.311 . S
C274 O268 1.231 . S
O275 Zn257 1.953 1_556 S
O275 C269 1.298 . S
H276 C284 0.950 . S
H277 C289 0.950 . S
H278 C286 0.950 . S
H279 C288 0.950 . S
H280 C290 0.950 . S
H281 C292 0.950 . S
H282 C294 0.950 . S
H283 C295 0.950 . S
C284 H276 0.950 . S
C284 C285 1.386 . S
C284 C286 1.391 . S
C285 C284 1.386 . S
C285 C289 1.393 . S
C286 H278 0.950 . S
C286 C284 1.391 . S
C286 C287 1.400 . S
C287 C286 1.400 . S
C287 C288 1.398 . S
C287 C293 1.491 . S
C288 H279 0.950 . S
C288 C287 1.398 . S
C288 C289 1.391 . S
C289 H277 0.950 . S
C289 C285 1.393 . S
C289 C288 1.391 . S
C290 H280 0.950 . S
C290 C291 1.386 . S
C290 C292 1.391 . S
C291 C290 1.386 . S
C291 C295 1.393 . S
C292 H281 0.950 . S
C292 C290 1.391 . S
C292 C293 1.400 . S
C293 C287 1.491 . S
C293 C292 1.400 . S
C293 C294 1.398 . S
C294 H282 0.950 . S
C294 C293 1.398 . S
C294 C295 1.391 . S
C295 H283 0.950 . S
C295 C291 1.393 . S
C295 C294 1.391 . S
H296 C304 0.950 . S
H297 C309 0.950 . S
H298 C306 0.950 . S
H299 C308 0.950 . S
H300 C310 0.950 . S
H301 C312 0.950 . S
H302 C314 0.950 . S
H303 C315 0.950 . S
C304 H296 0.950 . S
C304 C305 1.386 . S
C304 C306 1.391 . S
C305 C304 1.386 . S
C305 C309 1.393 . S
C306 H298 0.950 . S
C306 C304 1.391 . S
C306 C307 1.400 . S
C307 C306 1.400 . S
C307 C308 1.398 . S
C307 C313 1.491 . S
C308 H299 0.950 . S
C308 C307 1.398 . S
C308 C309 1.391 . S
C309 H297 0.950 . S
C309 C305 1.393 . S
C309 C308 1.391 . S
C310 H300 0.950 . S
C310 C311 1.386 . S
C310 C312 1.391 . S
C311 C310 1.386 . S
C311 C315 1.393 . S
C312 H301 0.950 . S
C312 C310 1.391 . S
C312 C313 1.400 . S
C313 C307 1.491 . S
C313 C312 1.400 . S
C313 C314 1.398 . S
C314 H302 0.950 . S
C314 C313 1.398 . S
C314 C315 1.391 . S
C315 H303 0.950 . S
C315 C311 1.393 . S
C315 C314 1.391 . S
H316 C324 0.950 . S
H317 C329 0.950 . S
H318 C326 0.950 . S
H319 C328 0.950 . S
H320 C330 0.950 . S
H321 C332 0.950 . S
H322 C334 0.950 . S
H323 C335 0.950 . S
C324 H316 0.950 . S
C324 C325 1.386 . S
C324 C326 1.391 . S
C325 C324 1.386 . S
C325 C329 1.393 . S
C326 H318 0.950 . S
C326 C324 1.391 . S
C326 C327 1.400 . S
C327 C326 1.400 . S
C327 C328 1.398 . S
C327 C333 1.491 . S
C328 H319 0.950 . S
C328 C327 1.398 . S
C328 C329 1.391 . S
C329 H317 0.950 . S
C329 C325 1.393 . S
C329 C328 1.391 . S
C330 H320 0.950 . S
C330 C331 1.386 . S
C330 C332 1.391 . S
C331 C330 1.386 . S
C331 C335 1.393 . S
C332 H321 0.950 . S
C332 C330 1.391 . S
C332 C333 1.400 . S
C333 C327 1.491 . S
C333 C332 1.400 . S
C333 C334 1.398 . S
C334 H322 0.950 . S
C334 C333 1.398 . S
C334 C335 1.391 . S
C335 H323 0.950 . S
C335 C331 1.393 . S
C335 C334 1.391 . S
H336 C344 0.950 . S
H337 C349 0.950 . S
H338 C346 0.950 . S
H339 C348 0.950 . S
H340 C350 0.950 . S
H341 C352 0.950 . S
H342 C354 0.950 . S
H343 C355 0.950 . S
C344 H336 0.950 . S
C344 C345 1.386 . S
C344 C346 1.391 . S
C345 C344 1.386 . S
C345 C349 1.393 . S
C346 H338 0.950 . S
C346 C344 1.391 . S
C346 C347 1.400 . S
C347 C346 1.400 . S
C347 C348 1.398 . S
C347 C353 1.491 . S
C348 H339 0.950 . S
C348 C347 1.398 . S
C348 C349 1.391 . S
C349 H337 0.950 . S
C349 C345 1.393 . S
C349 C348 1.391 . S
C350 H340 0.950 . S
C350 C351 1.386 . S
C350 C352 1.391 . S
C351 C350 1.386 . S
C351 C355 1.393 . S
C352 H341 0.950 . S
C352 C350 1.391 . S
C352 C353 1.400 . S
C353 C347 1.491 . S
C353 C352 1.400 . S
C353 C354 1.398 . S
C354 H342 0.950 . S
C354 C353 1.398 . S
C354 C355 1.391 . S
C355 H343 0.950 . S
C355 C351 1.393 . S
C355 C354 1.391 . S
H356 C364 0.950 . S
H357 C369 0.950 . S
H358 C366 0.950 . S
H359 C368 0.950 . S
H360 C370 0.950 . S
H361 C372 0.950 . S
H362 C374 0.950 . S
H363 C375 0.950 . S
C364 H356 0.950 . S
C364 C365 1.386 . S
C364 C366 1.391 . S
C365 C364 1.386 . S
C365 C369 1.393 . S
C366 H358 0.950 . S
C366 C364 1.391 . S
C366 C367 1.400 . S
C367 C366 1.400 . S
C367 C368 1.398 . S
C367 C373 1.491 . S
C368 H359 0.950 . S
C368 C367 1.398 . S
C368 C369 1.391 . S
C369 H357 0.950 . S
C369 C365 1.393 . S
C369 C368 1.391 . S
C370 H360 0.950 . S
C370 C371 1.386 . S
C370 C372 1.391 . S
C371 C370 1.386 . S
C371 C375 1.393 . S
C372 H361 0.950 . S
C372 C370 1.391 . S
C372 C373 1.400 . S
C373 C367 1.491 . S
C373 C372 1.400 . S
C373 C374 1.398 . S
C374 H362 0.950 . S
C374 C373 1.398 . S
C374 C375 1.391 . S
C375 H363 0.950 . S
C375 C371 1.393 . S
C375 C374 1.391 . S
H376 C384 0.950 . S
H377 C389 0.950 . S
H378 C386 0.950 . S
H379 C388 0.950 . S
H380 C390 0.950 . S
H381 C392 0.950 . S
H382 C394 0.950 . S
H383 C395 0.950 . S
C384 H376 0.950 . S
C384 C385 1.386 . S
C384 C386 1.391 . S
C385 C384 1.386 . S
C385 C389 1.393 . S
C386 H378 0.950 . S
C386 C384 1.391 . S
C386 C387 1.400 . S
C387 C386 1.400 . S
C387 C388 1.398 . S
C387 C393 1.491 . S
C388 H379 0.950 . S
C388 C387 1.398 . S
C388 C389 1.391 . S
C389 H377 0.950 . S
C389 C385 1.393 . S
C389 C388 1.391 . S
C390 H380 0.950 . S
C390 C391 1.386 . S
C390 C392 1.391 . S
C391 C390 1.386 . S
C391 C395 1.393 . S
C392 H381 0.950 . S
C392 C390 1.391 . S
C392 C393 1.400 . S
C393 C387 1.491 . S
C393 C392 1.400 . S
C393 C394 1.398 . S
C394 H382 0.950 . S
C394 C393 1.398 . S
C394 C395 1.391 . S
C395 H383 0.950 . S
C395 C391 1.393 . S
C395 C394 1.391 . S
H396 C404 0.950 . S
H397 C409 0.950 . S
H398 C406 0.950 1_554 S
H399 C408 0.950 . S
H400 C410 0.950 . S
H401 C412 0.950 1_556 S
H402 C414 0.950 . S
H403 C415 0.950 . S
C404 H396 0.950 . S
C404 C405 1.386 . S
C404 C406 1.391 . S
C405 C404 1.386 . S
C405 C409 1.393 . S
C406 H398 0.950 1_556 S
C406 C404 1.391 . S
C406 C407 1.400 . S
C407 C406 1.400 . S
C407 C408 1.398 . S
C407 C413 1.491 1_556 S
C408 H399 0.950 . S
C408 C407 1.398 . S
C408 C409 1.391 . S
C409 H397 0.950 . S
C409 C405 1.393 . S
C409 C408 1.391 . S
C410 H400 0.950 . S
C410 C411 1.386 . S
C410 C412 1.391 . S
C411 C410 1.386 . S
C411 C415 1.393 . S
C412 H401 0.950 1_554 S
C412 C410 1.391 . S
C412 C413 1.400 . S
C413 C407 1.491 1_554 S
C413 C412 1.400 . S
C413 C414 1.398 . S
C414 H402 0.950 . S
C414 C413 1.398 . S
C414 C415 1.391 . S
C415 H403 0.950 . S
C415 C411 1.393 . S
C415 C414 1.391 . S
H416 C424 0.950 . S
H417 C429 0.950 . S
H418 C426 0.950 . S
H419 C428 0.950 . S
H420 C430 0.950 . S
H421 C432 0.950 . S
H422 C434 0.950 . S
H423 C435 0.950 . S
C424 H416 0.950 . S
C424 C425 1.386 . S
C424 C426 1.391 . S
C425 C424 1.386 . S
C425 C429 1.393 . S
C426 H418 0.950 . S
C426 C424 1.391 . S
C426 C427 1.400 . S
C427 C426 1.400 . S
C427 C428 1.398 . S
C427 C433 1.491 . S
C428 H419 0.950 . S
C428 C427 1.398 . S
C428 C429 1.391 . S
C429 H417 0.950 . S
C429 C425 1.393 . S
C429 C428 1.391 . S
C430 H420 0.950 . S
C430 C431 1.386 . S
C430 C432 1.391 . S
C431 C430 1.386 . S
C431 C435 1.393 . S
C432 H421 0.950 . S
C432 C430 1.391 . S
C432 C433 1.400 . S
C433 C427 1.491 . S
C433 C432 1.400 . S
C433 C434 1.398 . S
C434 H422 0.950 . S
C434 C433 1.398 . S
C434 C435 1.391 . S
C435 H423 0.950 . S
C435 C431 1.393 . S
C435 C434 1.391 . S
H436 C444 0.950 . S
H437 C449 0.950 . S
H438 C446 0.950 . S
H439 C448 0.950 . S
H440 C450 0.950 . S
H441 C452 0.950 . S
H442 C454 0.950 . S
H443 C455 0.950 . S
C444 H436 0.950 . S
C444 C445 1.386 . S
C444 C446 1.391 . S
C445 C444 1.386 . S
C445 C449 1.393 . S
C446 H438 0.950 . S
C446 C444 1.391 . S
C446 C447 1.400 . S
C447 C446 1.400 . S
C447 C448 1.398 . S
C447 C453 1.491 . S
C448 H439 0.950 . S
C448 C447 1.398 . S
C448 C449 1.391 . S
C449 H437 0.950 . S
C449 C445 1.393 . S
C449 C448 1.391 . S
C450 H440 0.950 . S
C450 C451 1.386 . S
C450 C452 1.391 . S
C451 C450 1.386 . S
C451 C455 1.393 . S
C452 H441 0.950 . S
C452 C450 1.391 . S
C452 C453 1.400 . S
C453 C447 1.491 . S
C453 C452 1.400 . S
C453 C454 1.398 . S
C454 H442 0.950 . S
C454 C453 1.398 . S
C454 C455 1.391 . S
C455 H443 0.950 . S
C455 C451 1.393 . S
C455 C454 1.391 . S
H456 C464 0.950 . S
H457 C469 0.950 . S
H458 C466 0.950 . S
H459 C468 0.950 1_554 S
H460 C470 0.950 . S
H461 C472 0.950 . S
H462 C474 0.950 1_556 S
H463 C475 0.950 . S
C464 H456 0.950 . S
C464 C465 1.386 . S
C464 C466 1.391 . S
C465 C464 1.386 . S
C465 C469 1.393 . S
C466 H458 0.950 . S
C466 C464 1.391 . S
C466 C467 1.400 . S
C467 C466 1.400 . S
C467 C468 1.398 . S
C467 C473 1.491 1_556 S
C468 H459 0.950 1_556 S
C468 C467 1.398 . S
C468 C469 1.391 . S
C469 H457 0.950 . S
C469 C465 1.393 . S
C469 C468 1.391 . S
C470 H460 0.950 . S
C470 C471 1.386 . S
C470 C472 1.391 . S
C471 C470 1.386 . S
C471 C475 1.393 . S
C472 H461 0.950 . S
C472 C470 1.391 . S
C472 C473 1.400 . S
C473 C467 1.491 1_554 S
C473 C472 1.400 . S
C473 C474 1.398 . S
C474 H462 0.950 1_554 S
C474 C473 1.398 . S
C474 C475 1.391 . S
C475 H463 0.950 . S
C475 C471 1.393 . S
C475 C474 1.391 . S
H476 C484 0.950 . S
H477 C489 0.950 . S
H478 C486 0.950 . S
H479 C488 0.950 . S
H480 C490 0.950 . S
H481 C492 0.950 . S
H482 C494 0.950 . S
H483 C495 0.950 . S
C484 H476 0.950 . S
C484 C485 1.386 . S
C484 C486 1.391 . S
C485 C484 1.386 . S
C485 C489 1.393 . S
C486 H478 0.950 . S
C486 C484 1.391 . S
C486 C487 1.400 . S
C487 C486 1.400 . S
C487 C488 1.398 . S
C487 C493 1.491 . S
C488 H479 0.950 . S
C488 C487 1.398 . S
C488 C489 1.391 . S
C489 H477 0.950 . S
C489 C485 1.393 . S
C489 C488 1.391 . S
C490 H480 0.950 . S
C490 C491 1.386 . S
C490 C492 1.391 . S
C491 C490 1.386 . S
C491 C495 1.393 . S
C492 H481 0.950 . S
C492 C490 1.391 . S
C492 C493 1.400 . S
C493 C487 1.491 . S
C493 C492 1.400 . S
C493 C494 1.398 . S
C494 H482 0.950 . S
C494 C493 1.398 . S
C494 C495 1.391 . S
C495 H483 0.950 . S
C495 C491 1.393 . S
C495 C494 1.391 . S
H496 C504 0.950 . S
H497 C509 0.950 . S
H498 C506 0.950 . S
H499 C508 0.950 . S
H500 C510 0.950 . S
H501 C512 0.950 . S
H502 C514 0.950 . S
H503 C515 0.950 . S
C504 H496 0.950 . S
C504 C505 1.386 . S
C504 C506 1.391 . S
C505 C504 1.386 . S
C505 C509 1.393 . S
C506 H498 0.950 . S
C506 C504 1.391 . S
C506 C507 1.400 . S
C507 C506 1.400 . S
C507 C508 1.398 . S
C507 C513 1.491 . S
C508 H499 0.950 . S
C508 C507 1.398 . S
C508 C509 1.391 . S
C509 H497 0.950 . S
C509 C505 1.393 . S
C509 C508 1.391 . S
C510 H500 0.950 . S
C510 C511 1.386 . S
C510 C512 1.391 . S
C511 C510 1.386 . S
C511 C515 1.393 . S
C512 H501 0.950 . S
C512 C510 1.391 . S
C512 C513 1.400 . S
C513 C507 1.491 . S
C513 C512 1.400 . S
C513 C514 1.398 . S
C514 H502 0.950 . S
C514 C513 1.398 . S
C514 C515 1.391 . S
C515 H503 0.950 . S
C515 C511 1.393 . S
C515 C514 1.391 . S
H516 C524 0.950 . S
H517 C529 0.950 . S
H518 C526 0.950 . S
H519 C528 0.950 1_554 S
H520 C530 0.950 . S
H521 C532 0.950 . S
H522 C534 0.950 1_556 S
H523 C535 0.950 . S
C524 H516 0.950 . S
C524 C525 1.386 . S
C524 C526 1.391 1_565 S
C525 C524 1.386 . S
C525 C529 1.393 . S
C526 H518 0.950 . S
C526 C524 1.391 1_545 S
C526 C527 1.400 1_545 S
C527 C526 1.400 1_565 S
C527 C528 1.398 . S
C527 C533 1.491 1_566 S
C528 H519 0.950 1_556 S
C528 C527 1.398 . S
C528 C529 1.391 . S
C529 H517 0.950 . S
C529 C525 1.393 . S
C529 C528 1.391 . S
C530 H520 0.950 . S
C530 C531 1.386 . S
C530 C532 1.391 1_545 S
C531 C530 1.386 . S
C531 C535 1.393 . S
C532 H521 0.950 . S
C532 C530 1.391 1_565 S
C532 C533 1.400 1_565 S
C533 C527 1.491 1_544 S
C533 C532 1.400 1_545 S
C533 C534 1.398 . S
C534 H522 0.950 1_554 S
C534 C533 1.398 . S
C534 C535 1.391 . S
C535 H523 0.950 . S
C535 C531 1.393 . S
C535 C534 1.391 . S
H536 C544 0.950 . S
H537 C549 0.950 . S
H538 C546 0.950 . S
H539 C548 0.950 . S
H540 C550 0.950 . S
H541 C552 0.950 . S
H542 C554 0.950 . S
H543 C555 0.950 . S
C544 H536 0.950 . S
C544 C545 1.386 . S
C544 C546 1.391 . S
C545 C544 1.386 . S
C545 C549 1.393 . S
C546 H538 0.950 . S
C546 C544 1.391 . S
C546 C547 1.400 . S
C547 C546 1.400 . S
C547 C548 1.398 . S
C547 C553 1.491 . S
C548 H539 0.950 . S
C548 C547 1.398 . S
C548 C549 1.391 . S
C549 H537 0.950 . S
C549 C545 1.393 . S
C549 C548 1.391 . S
C550 H540 0.950 . S
C550 C551 1.386 . S
C550 C552 1.391 . S
C551 C550 1.386 . S
C551 C555 1.393 . S
C552 H541 0.950 . S
C552 C550 1.391 . S
C552 C553 1.400 . S
C553 C547 1.491 . S
C553 C552 1.400 . S
C553 C554 1.398 . S
C554 H542 0.950 . S
C554 C553 1.398 . S
C554 C555 1.391 . S
C555 H543 0.950 . S
C555 C551 1.393 . S
C555 C554 1.391 . S
H556 C564 0.950 . S
H557 C569 0.950 . S
H558 C566 0.950 . S
H559 C568 0.950 . S
H560 C570 0.950 . S
H561 C572 0.950 . S
H562 C574 0.950 . S
H563 C575 0.950 . S
C564 H556 0.950 . S
C564 C565 1.386 . S
C564 C566 1.391 . S
C565 C564 1.386 . S
C565 C569 1.393 . S
C566 H558 0.950 . S
C566 C564 1.391 . S
C566 C567 1.400 . S
C567 C566 1.400 . S
C567 C568 1.398 1_455 S
C567 C573 1.491 1_455 S
C568 H559 0.950 . S
C568 C567 1.398 1_655 S
C568 C569 1.391 1_655 S
C569 H557 0.950 . S
C569 C565 1.393 . S
C569 C568 1.391 1_455 S
C570 H560 0.950 . S
C570 C571 1.386 . S
C570 C572 1.391 . S
C571 C570 1.386 . S
C571 C575 1.393 . S
C572 H561 0.950 . S
C572 C570 1.391 . S
C572 C573 1.400 . S
C573 C567 1.491 1_655 S
C573 C572 1.400 . S
C573 C574 1.398 1_655 S
C574 H562 0.950 . S
C574 C573 1.398 1_455 S
C574 C575 1.391 1_455 S
C575 H563 0.950 . S
C575 C571 1.393 . S
C575 C574 1.391 1_655 S
H576 C584 0.950 . S
H577 C589 0.950 . S
H578 C586 0.950 1_545 S
H579 C588 0.950 . S
H580 C590 0.950 . S
H581 C592 0.950 1_565 S
H582 C594 0.950 . S
H583 C595 0.950 . S
C584 H576 0.950 . S
C584 C585 1.386 . S
C584 C586 1.391 . S
C585 C584 1.386 . S
C585 C589 1.393 . S
C586 H578 0.950 1_565 S
C586 C584 1.391 . S
C586 C587 1.400 . S
C587 C586 1.400 . S
C587 C588 1.398 . S
C587 C593 1.491 1_564 S
C588 H579 0.950 . S
C588 C587 1.398 . S
C588 C589 1.391 . S
C589 H577 0.950 . S
C589 C585 1.393 . S
C589 C588 1.391 . S
C590 H580 0.950 . S
C590 C591 1.386 . S
C590 C592 1.391 . S
C591 C590 1.386 . S
C591 C595 1.393 . S
C592 H581 0.950 1_545 S
C592 C590 1.391 . S
C592 C593 1.400 . S
C593 C587 1.491 1_546 S
C593 C592 1.400 . S
C593 C594 1.398 . S
C594 H582 0.950 . S
C594 C593 1.398 . S
C594 C595 1.391 . S
C595 H583 0.950 . S
C595 C591 1.393 . S
C595 C594 1.391 . S
H596 C604 0.950 . S
H597 C609 0.950 . S
H598 C606 0.950 . S
H599 C608 0.950 . S
H600 C610 0.950 . S
H601 C612 0.950 . S
H602 C614 0.950 . S
H603 C615 0.950 . S
C604 H596 0.950 . S
C604 C605 1.386 . S
C604 C606 1.391 . S
C605 C604 1.386 . S
C605 C609 1.393 . S
C606 H598 0.950 . S
C606 C604 1.391 . S
C606 C607 1.400 . S
C607 C606 1.400 . S
C607 C608 1.398 . S
C607 C613 1.491 . S
C608 H599 0.950 . S
C608 C607 1.398 . S
C608 C609 1.391 . S
C609 H597 0.950 . S
C609 C605 1.393 . S
C609 C608 1.391 . S
C610 H600 0.950 . S
C610 C611 1.386 . S
C610 C612 1.391 . S
C611 C610 1.386 . S
C611 C615 1.393 . S
C612 H601 0.950 . S
C612 C610 1.391 . S
C612 C613 1.400 . S
C613 C607 1.491 . S
C613 C612 1.400 . S
C613 C614 1.398 . S
C614 H602 0.950 . S
C614 C613 1.398 . S
C614 C615 1.391 . S
C615 H603 0.950 . S
C615 C611 1.393 . S
C615 C614 1.391 . S
H616 C624 0.950 . S
H617 C629 0.950 . S
H618 C626 0.950 . S
H619 C628 0.950 . S
H620 C630 0.950 . S
H621 C632 0.950 . S
H622 C634 0.950 . S
H623 C635 0.950 . S
C624 H616 0.950 . S
C624 C625 1.386 . S
C624 C626 1.391 1_455 S
C625 C624 1.386 . S
C625 C629 1.393 . S
C626 H618 0.950 . S
C626 C624 1.391 1_655 S
C626 C627 1.400 1_655 S
C627 C626 1.400 1_455 S
C627 C628 1.398 . S
C627 C633 1.491 1_455 S
C628 H619 0.950 . S
C628 C627 1.398 . S
C628 C629 1.391 . S
C629 H617 0.950 . S
C629 C625 1.393 . S
C629 C628 1.391 . S
C630 H620 0.950 . S
C630 C631 1.386 . S
C630 C632 1.391 1_655 S
C631 C630 1.386 . S
C631 C635 1.393 . S
C632 H621 0.950 . S
C632 C630 1.391 1_455 S
C632 C633 1.400 1_455 S
C633 C627 1.491 1_655 S
C633 C632 1.400 1_655 S
C633 C634 1.398 . S
C634 H622 0.950 . S
C634 C633 1.398 . S
C634 C635 1.391 . S
C635 H623 0.950 . S
C635 C631 1.393 . S
C635 C634 1.391 . S
H636 C644 0.950 . S
H637 C649 0.950 . S
H638 C646 0.950 . S
H639 C648 0.950 1_565 S
H640 C650 0.950 . S
H641 C652 0.950 . S
H642 C654 0.950 1_545 S
H643 C655 0.950 . S
C644 H636 0.950 . S
C644 C645 1.386 . S
C644 C646 1.391 . S
C645 C644 1.386 . S
C645 C649 1.393 . S
C646 H638 0.950 . S
C646 C644 1.391 . S
C646 C647 1.400 . S
C647 C646 1.400 . S
C647 C648 1.398 . S
C647 C653 1.491 1_545 S
C648 H639 0.950 1_545 S
C648 C647 1.398 . S
C648 C649 1.391 . S
C649 H637 0.950 . S
C649 C645 1.393 . S
C649 C648 1.391 . S
C650 H640 0.950 . S
C650 C651 1.386 . S
C650 C652 1.391 . S
C651 C650 1.386 . S
C651 C655 1.393 . S
C652 H641 0.950 . S
C652 C650 1.391 . S
C652 C653 1.400 . S
C653 C647 1.491 1_565 S
C653 C652 1.400 . S
C653 C654 1.398 . S
C654 H642 0.950 1_565 S
C654 C653 1.398 . S
C654 C655 1.391 . S
C655 H643 0.950 . S
C655 C651 1.393 . S
C655 C654 1.391 . S
H656 C664 0.950 . S
H657 C669 0.950 . S
H658 C666 0.950 . S
H659 C668 0.950 . S
H660 C670 0.950 . S
H661 C672 0.950 . S
H662 C674 0.950 . S
H663 C675 0.950 . S
C664 H656 0.950 . S
C664 C665 1.386 . S
C664 C666 1.391 . S
C665 C664 1.386 . S
C665 C669 1.393 . S
C666 H658 0.950 . S
C666 C664 1.391 . S
C666 C667 1.400 . S
C667 C666 1.400 . S
C667 C668 1.398 . S
C667 C673 1.491 . S
C668 H659 0.950 . S
C668 C667 1.398 . S
C668 C669 1.391 . S
C669 H657 0.950 . S
C669 C665 1.393 . S
C669 C668 1.391 . S
C670 H660 0.950 . S
C670 C671 1.386 . S
C670 C672 1.391 . S
C671 C670 1.386 . S
C671 C675 1.393 . S
C672 H661 0.950 . S
C672 C670 1.391 . S
C672 C673 1.400 . S
C673 C667 1.491 . S
C673 C672 1.400 . S
C673 C674 1.398 . S
C674 H662 0.950 . S
C674 C673 1.398 . S
C674 C675 1.391 . S
C675 H663 0.950 . S
C675 C671 1.393 . S
C675 C674 1.391 . S
H676 C684 0.950 . S
H677 C689 0.950 . S
H678 C686 0.950 . S
H679 C688 0.950 1_455 S
H680 C690 0.950 . S
H681 C692 0.950 . S
H682 C694 0.950 1_655 S
H683 C695 0.950 . S
C684 H676 0.950 . S
C684 C685 1.386 . S
C684 C686 1.391 . S
C685 C684 1.386 . S
C685 C689 1.393 . S
C686 H678 0.950 . S
C686 C684 1.391 . S
C686 C687 1.400 . S
C687 C686 1.400 . S
C687 C688 1.398 . S
C687 C693 1.491 1_655 S
C688 H679 0.950 1_655 S
C688 C687 1.398 . S
C688 C689 1.391 . S
C689 H677 0.950 . S
C689 C685 1.393 . S
C689 C688 1.391 . S
C690 H680 0.950 . S
C690 C691 1.386 . S
C690 C692 1.391 . S
C691 C690 1.386 . S
C691 C695 1.393 . S
C692 H681 0.950 . S
C692 C690 1.391 . S
C692 C693 1.400 . S
C693 C687 1.491 1_455 S
C693 C692 1.400 . S
C693 C694 1.398 . S
C694 H682 0.950 1_455 S
C694 C693 1.398 . S
C694 C695 1.391 . S
C695 H683 0.950 . S
C695 C691 1.393 . S
C695 C694 1.391 . S
H696 C704 0.950 . S
H697 C709 0.950 . S
H698 C706 0.950 . S
H699 C708 0.950 . S
H700 C710 0.950 . S
H701 C712 0.950 . S
H702 C714 0.950 . S
H703 C715 0.950 . S
C704 H696 0.950 . S
C704 C705 1.386 . S
C704 C706 1.391 . S
C705 C704 1.386 . S
C705 C709 1.393 . S
C706 H698 0.950 . S
C706 C704 1.391 . S
C706 C707 1.400 . S
C707 C706 1.400 . S
C707 C708 1.398 . S
C707 C713 1.491 1_455 S
C708 H699 0.950 . S
C708 C707 1.398 . S
C708 C709 1.391 . S
C709 H697 0.950 . S
C709 C705 1.393 . S
C709 C708 1.391 . S
C710 H700 0.950 . S
C710 C711 1.386 . S
C710 C712 1.391 . S
C711 C710 1.386 . S
C711 C715 1.393 . S
C712 H701 0.950 . S
C712 C710 1.391 . S
C712 C713 1.400 . S
C713 C707 1.491 1_655 S
C713 C712 1.400 . S
C713 C714 1.398 . S
C714 H702 0.950 . S
C714 C713 1.398 . S
C714 C715 1.391 . S
C715 H703 0.950 . S
C715 C711 1.393 . S
C715 C714 1.391 . S
H716 C724 0.950 . S
H717 C729 0.950 . S
H718 C726 0.950 1_545 S
H719 C728 0.950 . S
H720 C730 0.950 . S
H721 C732 0.950 1_565 S
H722 C734 0.950 . S
H723 C735 0.950 . S
C724 H716 0.950 . S
C724 C725 1.386 . S
C724 C726 1.391 . S
C725 C724 1.386 . S
C725 C729 1.393 . S
C726 H718 0.950 1_565 S
C726 C724 1.391 . S
C726 C727 1.400 . S
C727 C726 1.400 . S
C727 C728 1.398 . S
C727 C733 1.491 1_565 S
C728 H719 0.950 . S
C728 C727 1.398 . S
C728 C729 1.391 . S
C729 H717 0.950 . S
C729 C725 1.393 . S
C729 C728 1.391 . S
C730 H720 0.950 . S
C730 C731 1.386 . S
C730 C732 1.391 . S
C731 C730 1.386 . S
C731 C735 1.393 . S
C732 H721 0.950 1_545 S
C732 C730 1.391 . S
C732 C733 1.400 . S
C733 C727 1.491 1_545 S
C733 C732 1.400 . S
C733 C734 1.398 . S
C734 H722 0.950 . S
C734 C733 1.398 . S
C734 C735 1.391 . S
C735 H723 0.950 . S
C735 C731 1.393 . S
C735 C734 1.391 . S
H736 C744 0.950 . S
H737 C749 0.950 . S
H738 C746 0.950 . S
H739 C748 0.950 . S
H740 C750 0.950 . S
H741 C752 0.950 . S
H742 C754 0.950 . S
H743 C755 0.950 . S
C744 H736 0.950 . S
C744 C745 1.386 . S
C744 C746 1.391 . S
C745 C744 1.386 . S
C745 C749 1.393 . S
C746 H738 0.950 . S
C746 C744 1.391 . S
C746 C747 1.400 . S
C747 C746 1.400 . S
C747 C748 1.398 . S
C747 C753 1.491 . S
C748 H739 0.950 . S
C748 C747 1.398 . S
C748 C749 1.391 . S
C749 H737 0.950 . S
C749 C745 1.393 . S
C749 C748 1.391 . S
C750 H740 0.950 . S
C750 C751 1.386 . S
C750 C752 1.391 . S
C751 C750 1.386 . S
C751 C755 1.393 . S
C752 H741 0.950 . S
C752 C750 1.391 . S
C752 C753 1.400 . S
C753 C747 1.491 . S
C753 C752 1.400 . S
C753 C754 1.398 . S
C754 H742 0.950 . S
C754 C753 1.398 . S
C754 C755 1.391 . S
C755 H743 0.950 . S
C755 C751 1.393 . S
C755 C754 1.391 . S
H756 C764 0.950 . S
H757 C769 0.950 . S
H758 C766 0.950 . S
H759 C768 0.950 . S
H760 C770 0.950 . S
H761 C772 0.950 . S
H762 C774 0.950 . S
H763 C775 0.950 . S
C764 H756 0.950 . S
C764 C765 1.386 . S
C764 C766 1.391 . S
C765 C764 1.386 . S
C765 C769 1.393 . S
C766 H758 0.950 . S
C766 C764 1.391 . S
C766 C767 1.400 . S
C767 C766 1.400 . S
C767 C768 1.398 . S
C767 C773 1.491 1_565 S
C768 H759 0.950 . S
C768 C767 1.398 . S
C768 C769 1.391 . S
C769 H757 0.950 . S
C769 C765 1.393 . S
C769 C768 1.391 . S
C770 H760 0.950 . S
C770 C771 1.386 . S
C770 C772 1.391 . S
C771 C770 1.386 . S
C771 C775 1.393 . S
C772 H761 0.950 . S
C772 C770 1.391 . S
C772 C773 1.400 . S
C773 C767 1.491 1_545 S
C773 C772 1.400 . S
C773 C774 1.398 . S
C774 H762 0.950 . S
C774 C773 1.398 . S
C774 C775 1.391 . S
C775 H763 0.950 . S
C775 C771 1.393 . S
C775 C774 1.391 . S
H776 C784 0.950 . S
H777 C789 0.950 . S
H778 C786 0.950 . S
H779 C788 0.950 . S
H780 C790 0.950 . S
H781 C792 0.950 . S
H782 C794 0.950 . S
H783 C795 0.950 . S
C784 H776 0.950 . S
C784 C785 1.386 . S
C784 C786 1.391 . S
C785 C784 1.386 . S
C785 C789 1.393 . S
C786 H778 0.950 . S
C786 C784 1.391 . S
C786 C787 1.400 . S
C787 C786 1.400 . S
C787 C788 1.398 . S
C787 C793 1.491 . S
C788 H779 0.950 . S
C788 C787 1.398 . S
C788 C789 1.391 . S
C789 H777 0.950 . S
C789 C785 1.393 . S
C789 C788 1.391 . S
C790 H780 0.950 . S
C790 C791 1.386 . S
C790 C792 1.391 . S
C791 C790 1.386 . S
C791 C795 1.393 . S
C792 H781 0.950 . S
C792 C790 1.391 . S
C792 C793 1.400 . S
C793 C787 1.491 . S
C793 C792 1.400 . S
C793 C794 1.398 . S
C794 H782 0.950 . S
C794 C793 1.398 . S
C794 C795 1.391 . S
C795 H783 0.950 . S
C795 C791 1.393 . S
C795 C794 1.391 . S
H796 C804 0.950 . S
H797 C809 0.950 . S
H798 C806 0.945 . S
H799 C808 0.950 . S
H800 C810 0.950 . S
H801 C812 0.954 1_655 S
H802 C814 0.950 . S
H803 C815 0.950 . S
C804 H796 0.950 . S
C804 C805 1.386 . S
C804 C806 1.394 1_655 S
C805 C804 1.386 . S
C805 C809 1.393 . S
C806 H798 0.945 . S
C806 C804 1.394 1_455 S
C806 C807 1.402 1_455 S
C807 C806 1.402 1_655 S
C807 C808 1.398 . S
C807 C813 1.491 1_655 S
C808 H799 0.950 . S
C808 C807 1.398 . S
C808 C809 1.391 . S
C809 H797 0.950 . S
C809 C805 1.393 . S
C809 C808 1.391 . S
C810 H800 0.950 . S
C810 C811 1.386 . S
C810 C812 1.389 . S
C811 C810 1.386 . S
C811 C815 1.393 . S
C812 H801 0.954 1_455 S
C812 C810 1.389 . S
C812 C813 1.399 . S
C813 C807 1.491 1_455 S
C813 C812 1.399 . S
C813 C814 1.398 . S
C814 H802 0.950 . S
C814 C813 1.398 . S
C814 C815 1.391 . S
C815 H803 0.950 . S
C815 C811 1.393 . S
C815 C814 1.391 . S
H816 C824 0.950 . S
H817 C829 0.950 . S
H818 C826 0.950 . S
H819 C828 0.950 . S
H820 C830 0.950 . S
H821 C832 0.950 . S
H822 C834 0.950 . S
H823 C835 0.950 . S
C824 H816 0.950 . S
C824 C825 1.386 . S
C824 C826 1.391 . S
C825 C824 1.386 . S
C825 C829 1.393 . S
C826 H818 0.950 . S
C826 C824 1.391 . S
C826 C827 1.400 . S
C827 C826 1.400 . S
C827 C828 1.398 . S
C827 C833 1.491 1_545 S
C828 H819 0.950 . S
C828 C827 1.398 . S
C828 C829 1.391 . S
C829 H817 0.950 . S
C829 C825 1.393 . S
C829 C828 1.391 . S
C830 H820 0.950 . S
C830 C831 1.386 . S
C830 C832 1.391 . S
C831 C830 1.386 . S
C831 C835 1.393 . S
C832 H821 0.950 . S
C832 C830 1.391 . S
C832 C833 1.400 . S
C833 C827 1.491 1_565 S
C833 C832 1.400 . S
C833 C834 1.398 . S
C834 H822 0.950 . S
C834 C833 1.398 . S
C834 C835 1.391 . S
C835 H823 0.950 . S
C835 C831 1.393 . S
C835 C834 1.391 . S
H836 C844 0.950 . S
H837 C849 0.950 . S
H838 C846 0.950 . S
H839 C848 0.950 . S
H840 C850 0.950 . S
H841 C852 0.950 . S
H842 C854 0.950 . S
H843 C855 0.950 . S
C844 H836 0.950 . S
C844 C845 1.386 . S
C844 C846 1.391 . S
C845 C844 1.386 . S
C845 C849 1.393 . S
C846 H838 0.950 . S
C846 C844 1.391 . S
C846 C847 1.400 . S
C847 C846 1.400 . S
C847 C848 1.398 . S
C847 C853 1.491 . S
C848 H839 0.950 . S
C848 C847 1.398 . S
C848 C849 1.391 . S
C849 H837 0.950 . S
C849 C845 1.393 . S
C849 C848 1.391 . S
C850 H840 0.950 . S
C850 C851 1.386 . S
C850 C852 1.391 . S
C851 C850 1.386 . S
C851 C855 1.393 . S
C852 H841 0.950 . S
C852 C850 1.391 . S
C852 C853 1.400 . S
C853 C847 1.491 . S
C853 C852 1.400 . S
C853 C854 1.398 . S
C854 H842 0.950 . S
C854 C853 1.398 . S
C854 C855 1.391 . S
C855 H843 0.950 . S
C855 C851 1.393 . S
C855 C854 1.391 . S
H856 C864 0.950 . S
H857 C869 0.950 . S
H858 C866 0.950 . S
H859 C868 0.950 1_655 S
H860 C870 0.950 . S
H861 C872 0.950 . S
H862 C874 0.950 1_455 S
H863 C875 0.950 . S
C864 H856 0.950 . S
C864 C865 1.386 . S
C864 C866 1.391 . S
C865 C864 1.386 . S
C865 C869 1.393 . S
C866 H858 0.950 . S
C866 C864 1.391 . S
C866 C867 1.400 . S
C867 C866 1.400 . S
C867 C868 1.398 . S
C867 C873 1.491 1_455 S
C868 H859 0.950 1_455 S
C868 C867 1.398 . S
C868 C869 1.391 . S
C869 H857 0.950 . S
C869 C865 1.393 . S
C869 C868 1.391 . S
C870 H860 0.950 . S
C870 C871 1.386 . S
C870 C872 1.391 . S
C871 C870 1.386 . S
C871 C875 1.393 . S
C872 H861 0.950 . S
C872 C870 1.391 . S
C872 C873 1.400 . S
C873 C867 1.491 1_655 S
C873 C872 1.400 . S
C873 C874 1.398 . S
C874 H862 0.950 1_655 S
C874 C873 1.398 . S
C874 C875 1.391 . S
C875 H863 0.950 . S
C875 C871 1.393 . S
C875 C874 1.391 . S
H876 C884 0.950 . S
H877 C889 0.950 . S
H878 C886 0.950 . S
H879 C888 0.950 . S
H880 C890 0.950 . S
H881 C892 0.950 . S
H882 C894 0.950 . S
H883 C895 0.950 . S
C884 H876 0.950 . S
C884 C885 1.386 . S
C884 C886 1.391 . S
C885 C884 1.386 . S
C885 C889 1.393 . S
C886 H878 0.950 . S
C886 C884 1.391 . S
C886 C887 1.400 . S
C887 C886 1.400 . S
C887 C888 1.398 . S
C887 C893 1.491 . S
C888 H879 0.950 . S
C888 C887 1.398 . S
C888 C889 1.391 . S
C889 H877 0.950 . S
C889 C885 1.393 . S
C889 C888 1.391 . S
C890 H880 0.950 . S
C890 C891 1.386 . S
C890 C892 1.391 . S
C891 C890 1.386 . S
C891 C895 1.393 . S
C892 H881 0.950 . S
C892 C890 1.391 . S
C892 C893 1.400 . S
C893 C887 1.491 . S
C893 C892 1.400 . S
C893 C894 1.398 . S
C894 H882 0.950 . S
C894 C893 1.398 . S
C894 C895 1.391 . S
C895 H883 0.950 . S
C895 C891 1.393 . S
C895 C894 1.391 . S
H896 C904 0.950 . S
H897 C909 0.950 . S
H898 C906 0.950 . S
H899 C908 0.950 . S
H900 C910 0.950 . S
H901 C912 0.950 . S
H902 C914 0.950 . S
H903 C915 0.950 . S
C904 H896 0.950 . S
C904 C905 1.386 . S
C904 C906 1.391 . S
C905 C904 1.386 . S
C905 C909 1.393 . S
C906 H898 0.950 . S
C906 C904 1.391 . S
C906 C907 1.400 . S
C907 C906 1.400 . S
C907 C908 1.398 . S
C907 C913 1.491 . S
C908 H899 0.950 . S
C908 C907 1.398 . S
C908 C909 1.391 . S
C909 H897 0.950 . S
C909 C905 1.393 . S
C909 C908 1.391 . S
C910 H900 0.950 . S
C910 C911 1.386 . S
C910 C912 1.391 . S
C911 C910 1.386 . S
C911 C915 1.393 . S
C912 H901 0.950 . S
C912 C910 1.391 . S
C912 C913 1.400 . S
C913 C907 1.491 . S
C913 C912 1.400 . S
C913 C914 1.398 . S
C914 H902 0.950 . S
C914 C913 1.398 . S
C914 C915 1.391 . S
C915 H903 0.950 . S
C915 C911 1.393 . S
C915 C914 1.391 . S
H916 C924 0.950 . S
H917 C929 0.950 . S
H918 C926 0.950 . S
H919 C928 0.950 . S
H920 C930 0.950 . S
H921 C932 0.950 . S
H922 C934 0.950 . S
H923 C935 0.950 . S
C924 H916 0.950 . S
C924 C925 1.386 . S
C924 C926 1.391 . S
C925 C924 1.386 . S
C925 C929 1.393 . S
C926 H918 0.950 . S
C926 C924 1.391 . S
C926 C927 1.400 . S
C927 C926 1.400 . S
C927 C928 1.398 . S
C927 C933 1.491 . S
C928 H919 0.950 . S
C928 C927 1.398 . S
C928 C929 1.391 . S
C929 H917 0.950 . S
C929 C925 1.393 . S
C929 C928 1.391 . S
C930 H920 0.950 . S
C930 C931 1.386 . S
C930 C932 1.391 . S
C931 C930 1.386 . S
C931 C935 1.393 . S
C932 H921 0.950 . S
C932 C930 1.391 . S
C932 C933 1.400 . S
C933 C927 1.491 . S
C933 C932 1.400 . S
C933 C934 1.398 . S
C934 H922 0.950 . S
C934 C933 1.398 . S
C934 C935 1.391 . S
C935 H923 0.950 . S
C935 C931 1.393 . S
C935 C934 1.391 . S
H936 C944 0.950 . S
H937 C949 0.950 . S
H938 C946 0.950 . S
H939 C948 0.950 . S
H940 C950 0.950 . S
H941 C952 0.950 . S
H942 C954 0.950 . S
H943 C955 0.950 . S
C944 H936 0.950 . S
C944 C945 1.386 . S
C944 C946 1.391 . S
C945 C944 1.386 . S
C945 C949 1.393 . S
C946 H938 0.950 . S
C946 C944 1.391 . S
C946 C947 1.400 . S
C947 C946 1.400 . S
C947 C948 1.398 . S
C947 C953 1.491 . S
C948 H939 0.950 . S
C948 C947 1.398 . S
C948 C949 1.391 . S
C949 H937 0.950 . S
C949 C945 1.393 . S
C949 C948 1.391 . S
C950 H940 0.950 . S
C950 C951 1.386 . S
C950 C952 1.391 . S
C951 C950 1.386 . S
C951 C955 1.393 . S
C952 H941 0.950 . S
C952 C950 1.391 . S
C952 C953 1.400 . S
C953 C947 1.491 . S
C953 C952 1.400 . S
C953 C954 1.398 . S
C954 H942 0.950 . S
C954 C953 1.398 . S
C954 C955 1.391 . S
C955 H943 0.950 . S
C955 C951 1.393 . S
C955 C954 1.391 . S
H956 C964 0.950 . S
H957 C969 0.950 . S
H958 C966 0.950 . S
H959 C968 0.950 . S
H960 C970 0.950 . S
H961 C972 0.950 . S
H962 C974 0.950 . S
H963 C975 0.950 . S
C964 H956 0.950 . S
C964 C965 1.386 . S
C964 C966 1.391 . S
C965 C964 1.386 . S
C965 C969 1.393 . S
C966 H958 0.950 . S
C966 C964 1.391 . S
C966 C967 1.400 . S
C967 C966 1.400 . S
C967 C968 1.398 . S
C967 C973 1.491 . S
C968 H959 0.950 . S
C968 C967 1.398 . S
C968 C969 1.391 . S
C969 H957 0.950 . S
C969 C965 1.393 . S
C969 C968 1.391 . S
C970 H960 0.950 . S
C970 C971 1.386 . S
C970 C972 1.391 . S
C971 C970 1.386 . S
C971 C975 1.393 . S
C972 H961 0.950 . S
C972 C970 1.391 . S
C972 C973 1.400 . S
C973 C967 1.491 . S
C973 C972 1.400 . S
C973 C974 1.398 . S
C974 H962 0.950 . S
C974 C973 1.398 . S
C974 C975 1.391 . S
C975 H963 0.950 . S
C975 C971 1.393 . S
C975 C974 1.391 . S
H976 C984 0.950 . S
H977 C989 0.950 . S
H978 C986 0.950 . S
H979 C988 0.950 . S
H980 C990 0.950 . S
H981 C992 0.950 . S
H982 C994 0.950 . S
H983 C995 0.950 . S
C984 H976 0.950 . S
C984 C985 1.386 . S
C984 C986 1.391 . S
C985 C984 1.386 . S
C985 C989 1.393 . S
C986 H978 0.950 . S
C986 C984 1.391 . S
C986 C987 1.400 . S
C987 C986 1.400 . S
C987 C988 1.398 . S
C987 C993 1.491 . S
C988 H979 0.950 . S
C988 C987 1.398 . S
C988 C989 1.391 . S
C989 H977 0.950 . S
C989 C985 1.393 . S
C989 C988 1.391 . S
C990 H980 0.950 . S
C990 C991 1.386 . S
C990 C992 1.391 . S
C991 C990 1.386 . S
C991 C995 1.393 . S
C992 H981 0.950 . S
C992 C990 1.391 . S
C992 C993 1.400 . S
C993 C987 1.491 . S
C993 C992 1.400 . S
C993 C994 1.398 . S
C994 H982 0.950 . S
C994 C993 1.398 . S
C994 C995 1.391 . S
C995 H983 0.950 . S
C995 C991 1.393 . S
C995 C994 1.391 . S
C285 C20 0.805 . S
C291 C204 0.788 . S
C305 C43 0.798 . S
C311 C227 0.788 . S
C325 C66 0.806 . S
C331 C250 0.789 . S
C345 C273 0.811 . S
C351 C89 0.798 . S
C365 C112 0.809 . S
C371 C158 0.804 . S
C385 C181 0.803 . S
C391 C135 0.810 . S
C405 C247 1.072 . S
C411 C17 1.046 . S
C425 C270 1.058 . S
C431 C40 1.055 . S
C445 C63 1.050 . S
C451 C155 1.072 . S
C465 C178 1.050 . S
C471 C86 1.072 . S
C485 C201 1.048 . S
C491 C109 1.073 . S
C505 C132 1.073 . S
C511 C224 1.048 . S
C525 C182 1.342 . S
C531 C21 1.299 . S
C545 C205 1.309 . S
C551 C44 1.319 . S
C565 C228 1.299 . S
C571 C67 1.342 . S
C585 C90 1.324 . S
C591 C251 1.304 . S
C605 C113 1.301 . S
C611 C274 1.343 . S
C625 C136 1.343 . S
C631 C159 1.301 . S
C645 C19 0.348 . S
C651 C88 0.387 . S
C665 C42 0.389 . S
C671 C111 0.413 . S
C685 C65 0.372 . S
C691 C134 0.421 . S
C705 C226 0.358 . S
C711 C157 0.373 . S
C725 C180 0.422 . S
C731 C249 0.361 . S
C745 C272 0.357 . S
C751 C203 0.375 . S
C765 C177 1.470 . S
C771 C16 1.468 . S
C785 C200 1.477 . S
C791 C39 1.462 . S
C805 C62 1.458 . S
C811 C223 1.487 . S
C825 C246 1.467 . S
C831 C85 1.471 . S
C845 C269 1.487 . S
C851 C108 1.460 . S
C865 C131 1.484 . S
C871 C154 1.466 . S
C885 C18 1.547 . S
C891 C248 1.547 . S
C905 C41 1.553 . S
C911 C271 1.554 . S
C925 C64 1.555 . S
C931 C156 1.557 . S
C945 C87 1.547 . S
C951 C179 1.547 . S
C965 C110 1.551 . S
C971 C202 1.550 . S
C985 C225 1.559 . S
C991 C133 1.560 . S
