# Generated by pormake.
# Topology snp, (6)-cn, num edge types: 1
# Building blocks:
#     Node 0, Type 0, BuildingBlock: INOVEN_clean_sbu_0, # of connection points: 6
#     Node 1, Type 0, BuildingBlock: INOVEN_clean_sbu_0, # of connection points: 6
#     Node 2, Type 0, BuildingBlock: INOVEN_clean_sbu_0, # of connection points: 6
#     Node 3, Type 0, BuildingBlock: INOVEN_clean_sbu_0, # of connection points: 6
#     Edge 4, Type (0, 0), BuildingBlock: XIVTED_clean_linker_0, # of connection points: 2
#     Edge 5, Type (0, 0), BuildingBlock: XIVTED_clean_linker_0, # of connection points: 2
#     Edge 6, Type (0, 0), BuildingBlock: XIVTED_clean_linker_0, # of connection points: 2
#     Edge 7, Type (0, 0), BuildingBlock: XIVTED_clean_linker_0, # of connection points: 2
#     Edge 8, Type (0, 0), BuildingBlock: XIVTED_clean_linker_0, # of connection points: 2
#     Edge 9, Type (0, 0), BuildingBlock: XIVTED_clean_linker_0, # of connection points: 2
#     Edge 10, Type (0, 0), BuildingBlock: XIVTED_clean_linker_0, # of connection points: 2
#     Edge 11, Type (0, 0), BuildingBlock: XIVTED_clean_linker_0, # of connection points: 2
#     Edge 12, Type (0, 0), BuildingBlock: XIVTED_clean_linker_0, # of connection points: 2
#     Edge 13, Type (0, 0), BuildingBlock: XIVTED_clean_linker_0, # of connection points: 2
#     Edge 14, Type (0, 0), BuildingBlock: XIVTED_clean_linker_0, # of connection points: 2
#     Edge 15, Type (0, 0), BuildingBlock: XIVTED_clean_linker_0, # of connection points: 2
# Relax obj value: 0.201
# Max RMSD: 0.222
# Mean RMSD: 0.213
data_MOF--net-snp--node1-INOVEN_clean_sbu_0--edge1-XIVTED_clean_linker_0
_symmetry_space_group_name_H-M    P1
_symmetry_Int_Tables_number       1
_symmetry_cell_setting            triclinic
loop_
_symmetry_equiv_pos_as_xyz
'x, y, z'
_cell_length_a     25.822297
_cell_length_b     25.932904
_cell_length_c     35.984735
_cell_angle_alpha  85.13386
_cell_angle_beta   104.52865
_cell_angle_gamma 96.211728
loop_
_atom_site_label
_atom_site_type_symbol
_atom_site_fract_x
_atom_site_fract_y
_atom_site_fract_z
_atom_type_partial_charge
Gd0 Gd 0.24439 0.10768 0.13581 0.0
Gd1 Gd 0.26684 0.02151 0.08727 0.0
C2 C 0.23685 -0.01306 0.16711 0.0
C3 C 0.20878 0.16434 0.17861 0.0
C4 C 0.20748 0.17009 0.21904 0.0
C5 C 0.25453 0.17507 0.24882 0.0
C6 C 0.1578 0.1731 0.2276 0.0
C7 C 0.20202 0.1878 0.29476 0.0
C8 C 0.15504 0.18182 0.2649 0.0
C9 C 0.25181 0.18382 0.28623 0.0
C10 C 0.34785 0.0866 0.14679 0.0
C11 C 0.25882 0.14282 0.05197 0.0
C12 C 0.30637 0.96635 0.04642 0.0
C13 C 0.29182 0.9578 1.00502 0.0
C14 C 0.24564 -0.02226 0.9812 0.0
C15 C 0.32111 0.92633 0.98962 0.0
C16 C 0.2558 0.93158 0.92761 0.0
C17 C 0.30342 0.91354 0.95111 0.0
C18 C 0.2277 0.96463 0.94291 0.0
C19 C 0.16243 0.03626 0.07549 0.0
O20 O 0.21912 0.03313 0.16555 0.0
O21 O 0.26664 -0.02401 0.14409 0.0
O22 O 0.25438 0.17599 0.16883 0.0
O23 O 0.18129 0.12358 0.16214 0.0
O24 O 0.33425 0.13267 0.14898 0.0
O25 O 0.30736 0.05472 0.1417 0.0
O26 O 0.27904 0.0977 0.05204 0.0
O27 O 0.23588 0.15271 0.07929 0.0
O28 O 0.26976 0.94773 0.06461 0.0
O29 O 0.32737 0.01305 0.05627 0.0
O30 O 0.17939 -0.00686 0.06957 0.0
O31 O 0.20144 0.07049 0.08234 0.0
H32 H 0.29345 0.17271 0.24318 0.0
H33 H 0.12094 0.16963 0.20514 0.0
H34 H 0.11603 0.1853 0.27002 0.0
H35 H 0.28879 0.18739 0.3085 0.0
H36 H 0.22254 0.00221 0.99259 0.0
H37 H 0.35672 0.91043 1.00765 0.0
H38 H 0.32573 0.88779 0.9402 0.0
H39 H 0.19131 -0.0203 0.9254 0.0
Gd40 Gd 0.9818 0.26314 0.73591 0.0
Gd41 Gd 0.08501 0.288 0.70694 0.0
C42 C 0.09908 0.29109 0.79573 0.0
C43 C 0.91069 0.23033 0.77393 0.0
C44 C 0.9053 0.22719 0.81402 0.0
C45 C 0.86256 0.24935 0.82232 0.0
C46 C 0.94132 0.2017 0.84397 0.0
C47 C 0.89069 0.2192 0.88973 0.0
C48 C 0.93396 0.19757 0.88135 0.0
C49 C 0.85542 0.24561 0.85975 0.0
C50 C -0.00096 0.36054 0.70813 0.0
C51 C 0.97024 0.24839 0.6473 0.0
C52 C 0.15107 0.321 0.66486 0.0
C53 C 0.15651 0.30633 0.62723 0.0
C54 C 0.13767 0.25647 0.6144 0.0
C55 C 0.17998 0.34236 0.60358 0.0
C56 C 0.16632 0.27867 0.55479 0.0
C57 C 0.18487 0.32874 0.56778 0.0
C58 C 0.1426 0.24277 0.57869 0.0
C59 C 0.06668 0.1884 0.7324 0.0
O60 O 0.04943 0.2683 0.78995 0.0
O61 O 0.12033 0.31048 0.76715 0.0
O62 O 0.91338 0.27696 0.75716 0.0
O63 O 0.94325 0.20013 0.76561 0.0
O64 O 0.9517 0.33565 0.70297 0.0
O65 O 0.03445 0.33398 0.72905 0.0
O66 O 0.01986 0.27117 0.6527 0.0
O67 O 0.94714 0.23628 0.6762 0.0
O68 O 0.16178 0.28584 0.69338 0.0
O69 O 0.10821 0.34417 0.66429 0.0
O70 O 0.1142 0.21267 0.73597 0.0
O71 O 0.03243 0.21769 0.71354 0.0
H72 H 0.83438 0.26938 0.79971 0.0
H73 H 0.9748 0.18434 0.83851 0.0
H74 H 0.96152 0.17621 0.90345 0.0
H75 H 0.82221 0.26349 0.86512 0.0
H76 H 0.11915 0.228 0.63207 0.0
H77 H 0.1944 0.38117 0.61275 0.0
H78 H 0.20252 0.35779 0.55005 0.0
H79 H 0.1284 0.20371 0.57008 0.0
Gd80 Gd 0.79297 0.04512 0.21773 0.0
Gd81 Gd 0.81549 0.95889 0.16927 0.0
C82 C 0.80023 0.92402 0.25279 0.0
C83 C 0.75545 0.10057 0.25947 0.0
C84 C 0.77431 0.11329 0.30035 0.0
C85 C 0.82776 0.13301 0.31524 0.0
C86 C 0.73952 0.10484 0.32507 0.0
C87 C 0.81157 0.13532 0.37894 0.0
C88 C 0.75794 0.11569 0.36401 0.0
C89 C 0.84596 0.1442 0.35384 0.0
C90 C 0.89751 0.03097 0.22938 0.0
C91 C 0.82151 0.07947 0.13753 0.0
C92 C 0.85086 0.90177 0.12656 0.0
C93 C 0.85407 0.89622 0.08645 0.0
C94 C 0.80801 0.89017 0.05594 0.0
C95 C 0.9046 0.89375 0.07906 0.0
C96 C 0.86317 0.87738 1.01171 0.0
C97 C 0.90915 0.88448 0.04227 0.0
C98 C 0.81253 0.88091 1.01903 0.0
C99 C 0.71187 -0.02087 0.15929 0.0
O100 O 0.77899 0.96872 0.25202 0.0
O101 O 0.82418 0.91426 0.22598 0.0
O102 O 0.78614 0.12018 0.23686 0.0
O103 O 0.73678 0.0523 0.25279 0.0
O104 O 0.88027 0.07385 0.23537 0.0
O105 O 0.85879 -0.00358 0.22261 0.0
O106 O 0.83983 0.03355 0.1391 0.0
O107 O 0.79166 0.09003 0.16059 0.0
O108 O 0.8042 0.89161 0.13499 0.0
O109 O 0.87926 0.9413 0.14419 0.0
O110 O 0.72574 0.93309 0.15731 0.0
O111 O 0.75213 0.01123 0.16368 0.0
H112 H 0.85584 0.13986 0.2971 0.0
H113 H 0.69821 0.08944 0.31435 0.0
H114 H 0.73038 0.10789 0.38247 0.0
H115 H 0.88713 0.16034 0.36386 0.0
H116 H 0.76845 0.89197 0.06064 0.0
H117 H 0.94076 0.89792 0.10208 0.0
H118 H 0.94878 0.88138 0.03815 0.0
H119 H 0.77623 0.87652 0.99621 0.0
Gd120 Gd 0.98111 0.77795 0.60134 0.0
Gd121 Gd 0.08012 0.81434 0.5699 0.0
C122 C 0.09679 0.81338 0.66052 0.0
C123 C 0.9186 0.73729 0.64414 0.0
C124 C 0.91377 0.75062 0.68227 0.0
C125 C 0.93533 0.79919 0.69652 0.0
C126 C 0.88727 0.7153 0.70455 0.0
C127 C 0.90273 0.7775 0.75464 0.0
C128 C 0.88183 0.72853 0.74034 0.0
C129 C 0.92978 0.81252 0.73217 0.0
C130 C -0.00423 0.88166 0.58606 0.0
C131 C 0.96189 0.78548 0.51132 0.0
C132 C 0.14717 0.85979 0.53209 0.0
C133 C 0.15586 0.85942 0.49326 0.0
C134 C 0.20099 0.8879 0.48451 0.0
C135 C 0.1196 0.83096 0.46482 0.0
C136 C 0.17281 0.86093 0.41862 0.0
C137 C 0.12789 0.8318 0.42778 0.0
C138 C 0.20947 0.88864 0.44757 0.0
C139 C 0.06671 0.71224 0.58795 0.0
O140 O 0.04985 0.78512 0.65498 0.0
O141 O 0.11494 0.83541 0.63114 0.0
O142 O 0.90427 0.77223 0.61599 0.0
O143 O 0.9631 0.71784 0.64342 0.0
O144 O 0.94921 0.85537 0.58125 0.0
O145 O 0.03146 0.8514 0.59985 0.0
O146 O 0.01076 0.81005 0.5168 0.0
O147 O 0.94286 0.76218 0.53991 0.0
O148 O 0.15579 0.81701 0.55382 0.0
O149 O 0.1039 0.88003 0.53456 0.0
O150 O 0.11352 0.73811 0.59284 0.0
O151 O 0.03012 0.74056 0.57181 0.0
H152 H 0.95612 0.82709 0.67986 0.0
H153 H 0.87064 0.6775 0.69424 0.0
H154 H 0.86161 0.70007 0.75693 0.0
H155 H 0.94588 0.85078 0.74172 0.0
H156 H 0.22943 0.91004 0.50617 0.0
H157 H 0.08482 0.80833 0.47124 0.0
H158 H 0.09914 0.80963 0.40633 0.0
H159 H 0.24399 0.9121 0.44142 0.0
H160 H 0.94517 0.94747 0.21747 0.0
H161 H 0.11603 0.1203 0.088 0.0
H162 H 0.95728 0.11505 0.20749 0.0
H163 H 0.10126 0.95266 0.09647 0.0
H164 H 0.05409 0.11945 0.1296 0.0
H165 H 0.00699 0.94859 0.17576 0.0
C166 C 0.96179 -0.01558 0.20704 0.0
C167 C 0.9451 0.03106 0.21459 0.0
C168 C 0.06402 0.08284 0.12203 0.0
C169 C 0.01427 0.03293 0.16684 0.0
C170 C 0.09878 0.08341 0.09805 0.0
C171 C 0.11477 0.03662 0.09013 0.0
C172 C 0.0455 0.03506 0.13777 0.0
C173 C 0.09067 -0.01033 0.10276 0.0
C174 C -0.00353 -0.01486 0.18299 0.0
C175 C 0.96844 0.07813 0.2015 0.0
N176 N 0.05772 -0.00995 0.12659 0.0
N177 N 0.00137 0.07789 0.17764 0.0
H178 H 0.08941 0.94196 0.60446 0.0
H179 H 0.97138 0.12983 0.71912 0.0
H180 H 0.92082 0.93771 0.60149 0.0
H181 H 0.14079 0.12189 0.7306 0.0
H182 H 0.952 0.05375 0.68099 0.0
H183 H 0.10846 0.01013 0.64982 0.0
C184 C 0.05626 0.95662 0.61252 0.0
C185 C 0.00369 0.93387 0.59986 0.0
C186 C 0.99348 0.06797 0.6925 0.0
C187 C 0.02514 0.01013 0.65242 0.0
C188 C 0.00457 0.11076 0.71483 0.0
C189 C 0.05756 0.13284 0.72677 0.0
C190 C 0.03585 0.04767 0.68233 0.0
C191 C 0.09925 0.10659 0.72107 0.0
C192 C 0.06722 -0.00535 0.63898 0.0
C193 C 0.96201 0.9541 0.61087 0.0
N194 N 0.08741 0.06594 0.69822 0.0
N195 N 0.97377 -0.00924 0.6371 0.0
H196 H 0.61808 0.91566 0.15001 0.0
H197 H 0.4418 0.14981 0.1566 0.0
H198 H 0.6834 0.07497 0.1651 0.0
H199 H 0.37648 -0.00961 0.14225 0.0
H200 H 0.53125 0.12317 0.16002 0.0
H201 H 0.52873 0.94208 0.1473 0.0
C202 C 0.6135 0.9561 0.15274 0.0
C203 C 0.65781 -0.00678 0.15768 0.0
C204 C 0.49729 0.09404 0.15614 0.0
C205 C 0.55655 0.02375 0.15467 0.0
C206 C 0.44641 0.10929 0.15422 0.0
C207 C 0.40204 0.07223 0.14917 0.0
C208 C 0.50344 0.04144 0.15296 0.0
C209 C 0.40983 0.02018 0.14619 0.0
C210 C 0.56268 -0.02878 0.15121 0.0
C211 C 0.65008 0.04515 0.16114 0.0
N212 N 0.45957 0.00631 0.14811 0.0
N213 N 0.6004 0.05889 0.15956 0.0
H214 H 0.09546 0.41797 0.71707 0.0
H215 H 0.97114 0.65382 0.57818 0.0
H216 H 0.92805 0.41811 0.6576 0.0
H217 H 0.14041 0.65007 0.63112 0.0
H218 H 0.95483 0.56644 0.6062 0.0
H219 H 0.11329 0.50274 0.68531 0.0
C220 C 0.06254 0.43599 0.69728 0.0
C221 C 0.01028 0.41146 0.6898 0.0
C222 C -0.00441 0.58455 0.61155 0.0
C223 C 0.03011 0.50782 0.65363 0.0
C224 C 0.00487 0.63431 0.59557 0.0
C225 C 0.0571 0.65882 0.60263 0.0
C226 C 0.03894 0.55946 0.63477 0.0
C227 C 0.09953 0.63222 0.62516 0.0
C228 C 0.07268 0.48419 0.67915 0.0
C229 C 0.96889 0.43606 0.6641 0.0
N230 N 0.08948 0.58384 0.64067 0.0
N231 N 0.9797 0.4831 0.64692 0.0
H232 H 0.09551 0.21664 0.50256 0.0
H233 H 0.27098 0.25298 0.34553 0.0
H234 H 0.24927 0.30696 0.51938 0.0
H235 H 0.12579 0.14976 0.33429 0.0
H236 H 0.26343 0.27373 0.40885 0.0
H237 H 0.10538 0.19269 0.44067 0.0
C238 C 0.13156 0.23124 0.49348 0.0
C239 C 0.17163 0.26397 0.51659 0.0
C240 C 0.23328 0.24643 0.39258 0.0
C241 C 0.1828 0.23705 0.44495 0.0
C242 C 0.23775 0.23422 0.35641 0.0
C243 C 0.19896 0.19949 0.3342 0.0
C244 C 0.18959 0.22396 0.4069 0.0
C245 C 0.1563 0.17734 0.34988 0.0
C246 C 0.13701 0.21771 0.4579 0.0
C247 C 0.21688 0.28231 0.50256 0.0
N248 N 0.15274 0.19 0.38508 0.0
N249 N 0.22117 0.26867 0.46778 0.0
H250 H 0.96578 0.2196 0.95918 0.0
H251 H 0.75254 0.14143 0.08681 0.0
H252 H 0.79433 0.20338 0.91076 0.0
H253 H 0.91579 0.10032 0.11774 0.0
H254 H 0.76982 0.18803 1.0278 0.0
H255 H 0.9499 0.19884 1.02306 0.0
C256 C 0.92478 0.21186 0.96186 0.0
C257 C 0.88142 0.21237 0.92923 0.0
C258 C 0.80207 0.16971 0.04806 0.0
C259 C 0.86302 0.18973 1.00265 0.0
C260 C 0.79237 0.14367 0.08177 0.0
C261 C 0.83292 0.11722 0.10702 0.0
C262 C 0.85281 0.16974 0.04022 0.0
C263 C 0.8836 0.12037 0.09899 0.0
C264 C 0.91578 0.20042 0.99843 0.0
C265 C 0.82911 0.20364 0.93492 0.0
N266 N 0.89206 0.14588 0.06628 0.0
N267 N 0.82138 0.19224 0.97087 0.0
H268 H 0.99004 0.7733 0.44505 0.0
H269 H 0.76429 0.93232 0.31779 0.0
H270 H 0.85636 0.80483 0.48853 0.0
H271 H 0.85323 0.836 0.26871 0.0
H272 H 0.7933 0.8843 0.37996 0.0
H273 H 0.93836 0.79397 0.37968 0.0
C274 C 0.94933 0.78367 0.44064 0.0
C275 C 0.92733 0.78752 0.472 0.0
C276 C 0.80542 0.87305 0.35531 0.0
C277 C 0.86843 0.8126 0.39754 0.0
C278 C 0.78893 0.90046 0.3198 0.0
C279 C 0.80713 0.88888 0.28806 0.0
C280 C 0.84099 0.8345 0.35914 0.0
C281 C 0.83878 0.84694 0.29242 0.0
C282 C 0.91977 0.79536 0.40337 0.0
C283 C 0.87445 0.80112 0.46491 0.0
N284 N 0.85558 0.82203 0.32745 0.0
N285 N 0.84708 0.81436 0.42839 0.0
H286 H 0.19628 0.86625 0.68618 0.0
H287 H 0.15222 0.8966 0.89469 0.0
H288 H 0.05999 0.79248 0.72563 0.0
H289 H 0.30868 0.9251 0.87072 0.0
H290 H 0.11569 0.866 0.83018 0.0
H291 H 0.23688 0.89437 0.75141 0.0
C292 C 0.17511 0.85556 0.70854 0.0
C293 C 0.12465 0.82683 0.70031 0.0
C294 C 0.15806 0.87885 0.83898 0.0
C295 C 0.17044 0.85964 0.77471 0.0
C296 C 0.17885 0.89675 0.87572 0.0
C297 C 0.23357 0.91364 0.88808 0.0
C298 C 0.19199 0.87824 0.81406 0.0
C299 C 0.26633 0.91217 0.86241 0.0
C300 C 0.1983 0.87167 0.74573 0.0
C301 C 0.099 0.81435 0.73047 0.0
N302 N 0.24498 0.89507 0.8265 0.0
N303 N 0.12194 0.83116 0.76612 0.0
H304 H 0.94163 0.91478 0.97394 0.0
H305 H 0.8163 0.7523 0.78703 0.0
H306 H 0.79637 0.81128 0.96036 0.0
H307 H 0.97344 0.83674 0.8091 0.0
H308 H 0.80606 0.77699 0.84866 0.0
H309 H 0.95123 0.89076 0.91196 0.0
C310 C 0.91177 0.88686 0.9581 0.0
C311 C 0.86818 0.86496 0.97284 0.0
C312 C 0.84279 0.79012 0.84002 0.0
C313 C 0.87875 0.83764 0.90109 0.0
C314 C 0.8489 0.7757 0.80483 0.0
C315 C 0.89594 0.79222 0.79249 0.0
C316 C 0.88383 0.8216 0.8633 0.0
C317 C 0.9361 0.82353 0.81682 0.0
C318 C 0.91721 0.87332 0.92251 0.0
C319 C 0.8303 0.82981 0.95024 0.0
N320 N 0.92911 0.83714 0.85087 0.0
N321 N 0.83652 0.81725 0.91568 0.0
H322 H 0.30511 0.92465 0.21831 0.0
H323 H 0.09575 0.8709 0.35115 0.0
H324 H 0.14263 0.96783 0.18706 0.0
H325 H 0.26623 0.86055 0.3948 0.0
H326 H 0.10903 0.8862 0.28627 0.0
H327 H 0.28801 0.88095 0.27826 0.0
C328 C 0.26542 0.92338 0.22347 0.0
C329 C 0.22511 0.94968 0.19783 0.0
C330 C 0.14354 0.88006 0.30997 0.0
C331 C 0.20549 0.90079 0.26594 0.0
C332 C 0.13592 0.87097 0.34708 0.0
C333 C 0.17999 0.86493 0.37864 0.0
C334 C 0.19564 0.88323 0.30415 0.0
C335 C 0.23121 0.86603 0.37142 0.0
C336 C 0.25582 0.89902 0.25777 0.0
C337 C 0.17467 0.94787 0.20608 0.0
N338 N 0.23771 0.87547 0.33499 0.0
N339 N 0.16641 0.92426 0.23943 0.0
H340 H 0.06914 0.29841 0.86221 0.0
H341 H 0.29247 0.1351 0.98587 0.0
H342 H 0.20513 0.27374 0.81878 0.0
H343 H 0.20765 0.23189 0.03799 0.0
H344 H 0.26375 0.18548 0.92462 0.0
H345 H 0.12021 0.2748 0.92726 0.0
C346 C 0.11027 0.2892 0.86658 0.0
C347 C 0.13313 0.28817 0.83526 0.0
C348 C 0.2525 0.19624 0.94976 0.0
C349 C 0.19108 0.25938 0.90926 0.0
C350 C 0.26881 0.1675 0.98472 0.0
C351 C 0.25175 0.17864 1.01705 0.0
C352 C 0.21819 0.23564 0.94707 0.0
C353 C 0.22123 0.22126 1.01379 0.0
C354 C 0.1394 0.27569 0.90366 0.0
C355 C 0.18636 0.27546 0.84233 0.0
N356 N 0.20453 0.24746 0.97928 0.0
N357 N 0.21324 0.26035 0.87857 0.0
H358 H 0.91132 0.12129 0.42587 0.0
H359 H 0.86244 0.22136 0.6167 0.0
H360 H 0.75912 0.17493 0.42705 0.0
H361 H 0.01704 0.23456 0.58943 0.0
H362 H 0.82081 0.19038 0.55213 0.0
H363 H 0.94758 0.14741 0.49142 0.0
C364 C 0.88544 0.13875 0.43974 0.0
C365 C 0.83222 0.14683 0.42032 0.0
C366 C 0.86381 0.20024 0.56047 0.0
C367 C 0.87355 0.17572 0.49621 0.0
C368 C 0.88756 0.21781 0.59722 0.0
C369 C 0.94326 0.23093 0.60842 0.0
C370 C 0.89626 0.19466 0.53527 0.0
C371 C 0.97394 0.22546 0.58204 0.0
C372 C 0.90621 0.15341 0.47733 0.0
C373 C 0.80029 0.16784 0.4407 0.0
N374 N 0.95013 0.20746 0.54692 0.0
N375 N 0.82149 0.18173 0.47752 0.0
loop_
_geom_bond_atom_site_label_1
_geom_bond_atom_site_label_2
_geom_bond_distance
_geom_bond_site_symmetry_2
_ccdc_geom_bond_type
Gd0 C3 2.818 . S
Gd0 O20 2.377 . S
Gd0 O22 2.448 . S
Gd0 O23 2.506 . S
Gd0 O24 2.435 . S
Gd0 O25 2.717 . S
Gd0 O27 2.395 . S
Gd0 O31 2.327 . S
Gd1 C12 2.816 . S
Gd1 O21 2.395 . S
Gd1 O25 2.327 . S
Gd1 O26 2.377 . S
Gd1 O28 2.448 1_545 S
Gd1 O29 2.506 . S
Gd1 O30 2.435 . S
Gd1 O31 2.717 . S
C2 O20 1.240 . S
C2 O21 1.240 . S
C3 Gd0 2.818 . S
C3 C4 1.510 . S
C3 O22 1.249 . S
C3 O23 1.252 . S
C4 C3 1.510 . S
C4 C5 1.404 . S
C4 C6 1.352 . S
C5 C4 1.404 . S
C5 C9 1.389 . S
C5 H32 0.930 . S
C6 C4 1.352 . S
C6 C8 1.374 . S
C6 H33 0.931 . S
C7 C8 1.359 . S
C7 C9 1.364 . S
C8 C6 1.374 . S
C8 C7 1.359 . S
C8 H34 0.931 . S
C9 C5 1.389 . S
C9 C7 1.364 . S
C9 H35 0.931 . S
C10 O24 1.256 . S
C10 O25 1.257 . S
C11 O26 1.240 . S
C11 O27 1.240 . S
C12 Gd1 2.816 . S
C12 C13 1.512 1_544 S
C12 O28 1.248 1_545 S
C12 O29 1.251 . S
C13 C12 1.512 1_566 S
C13 C14 1.404 . S
C13 C15 1.353 . S
C14 C13 1.404 . S
C14 C18 1.389 . S
C14 H36 0.930 . S
C15 C13 1.353 . S
C15 C17 1.377 . S
C15 H37 0.926 1_565 S
C16 C17 1.359 . S
C16 C18 1.364 . S
C17 C15 1.377 . S
C17 C16 1.359 . S
C17 H38 0.931 . S
C18 C14 1.389 . S
C18 C16 1.364 . S
C18 H39 0.931 . S
C19 O30 1.256 . S
C19 O31 1.257 . S
O20 Gd0 2.377 . S
O20 C2 1.240 . S
O21 Gd1 2.395 . S
O21 C2 1.240 . S
O22 Gd0 2.448 . S
O22 C3 1.249 . S
O23 Gd0 2.506 . S
O23 C3 1.252 . S
O24 Gd0 2.435 . S
O24 C10 1.256 . S
O25 Gd0 2.717 . S
O25 Gd1 2.327 . S
O25 C10 1.257 . S
O26 Gd1 2.377 . S
O26 C11 1.240 . S
O27 Gd0 2.395 . S
O27 C11 1.240 . S
O28 Gd1 2.448 1_565 S
O28 C12 1.248 1_565 S
O29 Gd1 2.506 . S
O29 C12 1.251 . S
O30 Gd1 2.435 . S
O30 C19 1.256 . S
O31 Gd0 2.327 . S
O31 Gd1 2.717 . S
O31 C19 1.257 . S
H32 C5 0.930 . S
H33 C6 0.931 . S
H34 C8 0.931 . S
H35 C9 0.931 . S
H36 C14 0.930 . S
H37 C15 0.926 1_545 S
H38 C17 0.931 . S
H39 C18 0.931 . S
Gd40 C43 2.818 . S
Gd40 O60 2.377 1_655 S
Gd40 O62 2.448 . S
Gd40 O63 2.506 . S
Gd40 O64 2.435 . S
Gd40 O65 2.717 1_655 S
Gd40 O67 2.395 . S
Gd40 O71 2.327 1_655 S
Gd41 C52 2.818 . S
Gd41 O61 2.395 . S
Gd41 O65 2.327 . S
Gd41 O66 2.377 . S
Gd41 O68 2.448 . S
Gd41 O69 2.506 . S
Gd41 O70 2.435 . S
Gd41 O71 2.717 . S
C42 O60 1.240 . S
C42 O61 1.240 . S
C43 Gd40 2.818 . S
C43 C44 1.510 . S
C43 O62 1.249 . S
C43 O63 1.252 . S
C44 C43 1.510 . S
C44 C45 1.404 . S
C44 C46 1.352 . S
C45 C44 1.404 . S
C45 C49 1.389 . S
C45 H72 0.930 . S
C46 C44 1.352 . S
C46 C48 1.374 . S
C46 H73 0.931 . S
C47 C48 1.359 . S
C47 C49 1.364 . S
C48 C46 1.374 . S
C48 C47 1.359 . S
C48 H74 0.931 . S
C49 C45 1.389 . S
C49 C47 1.364 . S
C49 H75 0.931 . S
C50 O64 1.256 1_455 S
C50 O65 1.257 . S
C51 O66 1.240 1_655 S
C51 O67 1.240 . S
C52 Gd41 2.818 . S
C52 C53 1.510 . S
C52 O68 1.249 . S
C52 O69 1.252 . S
C53 C52 1.510 . S
C53 C54 1.404 . S
C53 C55 1.352 . S
C54 C53 1.404 . S
C54 C58 1.389 . S
C54 H76 0.930 . S
C55 C53 1.352 . S
C55 C57 1.374 . S
C55 H77 0.931 . S
C56 C57 1.359 . S
C56 C58 1.364 . S
C57 C55 1.374 . S
C57 C56 1.359 . S
C57 H78 0.931 . S
C58 C54 1.389 . S
C58 C56 1.364 . S
C58 H79 0.931 . S
C59 O70 1.256 . S
C59 O71 1.257 . S
O60 Gd40 2.377 1_455 S
O60 C42 1.240 . S
O61 Gd41 2.395 . S
O61 C42 1.240 . S
O62 Gd40 2.448 . S
O62 C43 1.249 . S
O63 Gd40 2.506 . S
O63 C43 1.252 . S
O64 Gd40 2.435 . S
O64 C50 1.256 1_655 S
O65 Gd40 2.717 1_455 S
O65 Gd41 2.327 . S
O65 C50 1.257 . S
O66 Gd41 2.377 . S
O66 C51 1.240 1_455 S
O67 Gd40 2.395 . S
O67 C51 1.240 . S
O68 Gd41 2.448 . S
O68 C52 1.249 . S
O69 Gd41 2.506 . S
O69 C52 1.252 . S
O70 Gd41 2.435 . S
O70 C59 1.256 . S
O71 Gd40 2.327 1_455 S
O71 Gd41 2.717 . S
O71 C59 1.257 . S
H72 C45 0.930 . S
H73 C46 0.931 . S
H74 C48 0.931 . S
H75 C49 0.931 . S
H76 C54 0.930 . S
H77 C55 0.931 . S
H78 C57 0.931 . S
H79 C58 0.931 . S
Gd80 C83 2.818 . S
Gd80 O100 2.377 . S
Gd80 O102 2.448 . S
Gd80 O103 2.506 . S
Gd80 O104 2.435 . S
Gd80 O105 2.717 . S
Gd80 O107 2.395 . S
Gd80 O111 2.327 . S
Gd81 C92 2.818 . S
Gd81 O101 2.395 . S
Gd81 O105 2.327 1_565 S
Gd81 O106 2.377 1_565 S
Gd81 O108 2.448 . S
Gd81 O109 2.506 . S
Gd81 O110 2.435 . S
Gd81 O111 2.717 1_565 S
C82 O100 1.240 1_565 S
C82 O101 1.240 . S
C83 Gd80 2.818 . S
C83 C84 1.510 . S
C83 O102 1.249 . S
C83 O103 1.252 . S
C84 C83 1.510 . S
C84 C85 1.404 . S
C84 C86 1.352 . S
C85 C84 1.404 . S
C85 C89 1.389 . S
C85 H112 0.930 . S
C86 C84 1.352 . S
C86 C88 1.374 . S
C86 H113 0.931 . S
C87 C88 1.359 . S
C87 C89 1.364 . S
C88 C86 1.374 . S
C88 C87 1.359 . S
C88 H114 0.931 . S
C89 C85 1.389 . S
C89 C87 1.364 . S
C89 H115 0.931 . S
C90 O104 1.256 . S
C90 O105 1.257 . S
C91 O106 1.240 . S
C91 O107 1.240 . S
C92 Gd81 2.818 . S
C92 C93 1.510 . S
C92 O108 1.249 . S
C92 O109 1.252 . S
C93 C92 1.510 . S
C93 C94 1.404 . S
C93 C95 1.352 . S
C94 C93 1.404 . S
C94 C98 1.389 1_554 S
C94 H116 0.930 . S
C95 C93 1.352 . S
C95 C97 1.374 1_554 S
C95 H117 0.931 . S
C96 C97 1.359 . S
C96 C98 1.364 . S
C97 C95 1.374 1_556 S
C97 C96 1.359 . S
C97 H118 0.931 . S
C98 C94 1.389 1_556 S
C98 C96 1.364 . S
C98 H119 0.931 . S
C99 O110 1.256 1_545 S
C99 O111 1.257 . S
O100 Gd80 2.377 . S
O100 C82 1.240 1_545 S
O101 Gd81 2.395 . S
O101 C82 1.240 . S
O102 Gd80 2.448 . S
O102 C83 1.249 . S
O103 Gd80 2.506 . S
O103 C83 1.252 . S
O104 Gd80 2.435 . S
O104 C90 1.256 . S
O105 Gd80 2.717 . S
O105 Gd81 2.327 1_545 S
O105 C90 1.257 . S
O106 Gd81 2.377 1_545 S
O106 C91 1.240 . S
O107 Gd80 2.395 . S
O107 C91 1.240 . S
O108 Gd81 2.448 . S
O108 C92 1.249 . S
O109 Gd81 2.506 . S
O109 C92 1.252 . S
O110 Gd81 2.435 . S
O110 C99 1.256 1_565 S
O111 Gd80 2.327 . S
O111 Gd81 2.717 1_545 S
O111 C99 1.257 . S
H112 C85 0.930 . S
H113 C86 0.931 . S
H114 C88 0.931 . S
H115 C89 0.931 . S
H116 C94 0.930 . S
H117 C95 0.931 . S
H118 C97 0.931 . S
H119 C98 0.931 . S
Gd120 C123 2.818 . S
Gd120 O140 2.377 1_655 S
Gd120 O142 2.448 . S
Gd120 O143 2.506 . S
Gd120 O144 2.435 . S
Gd120 O145 2.717 1_655 S
Gd120 O147 2.395 . S
Gd120 O151 2.327 1_655 S
Gd121 C132 2.818 . S
Gd121 O141 2.395 . S
Gd121 O145 2.327 . S
Gd121 O146 2.377 . S
Gd121 O148 2.448 . S
Gd121 O149 2.506 . S
Gd121 O150 2.435 . S
Gd121 O151 2.717 . S
C122 O140 1.240 . S
C122 O141 1.240 . S
C123 Gd120 2.818 . S
C123 C124 1.510 . S
C123 O142 1.249 . S
C123 O143 1.252 . S
C124 C123 1.510 . S
C124 C125 1.404 . S
C124 C126 1.352 . S
C125 C124 1.404 . S
C125 C129 1.389 . S
C125 H152 0.930 . S
C126 C124 1.352 . S
C126 C128 1.374 . S
C126 H153 0.931 . S
C127 C128 1.359 . S
C127 C129 1.364 . S
C128 C126 1.374 . S
C128 C127 1.359 . S
C128 H154 0.931 . S
C129 C125 1.389 . S
C129 C127 1.364 . S
C129 H155 0.931 . S
C130 O144 1.256 1_455 S
C130 O145 1.257 . S
C131 O146 1.240 1_655 S
C131 O147 1.240 . S
C132 Gd121 2.818 . S
C132 C133 1.510 . S
C132 O148 1.249 . S
C132 O149 1.252 . S
C133 C132 1.510 . S
C133 C134 1.404 . S
C133 C135 1.352 . S
C134 C133 1.404 . S
C134 C138 1.389 . S
C134 H156 0.930 . S
C135 C133 1.352 . S
C135 C137 1.374 . S
C135 H157 0.931 . S
C136 C137 1.359 . S
C136 C138 1.364 . S
C137 C135 1.374 . S
C137 C136 1.359 . S
C137 H158 0.931 . S
C138 C134 1.389 . S
C138 C136 1.364 . S
C138 H159 0.931 . S
C139 O150 1.256 . S
C139 O151 1.257 . S
O140 Gd120 2.377 1_455 S
O140 C122 1.240 . S
O141 Gd121 2.395 . S
O141 C122 1.240 . S
O142 Gd120 2.448 . S
O142 C123 1.249 . S
O143 Gd120 2.506 . S
O143 C123 1.252 . S
O144 Gd120 2.435 . S
O144 C130 1.256 1_655 S
O145 Gd120 2.717 1_455 S
O145 Gd121 2.327 . S
O145 C130 1.257 . S
O146 Gd121 2.377 . S
O146 C131 1.240 1_455 S
O147 Gd120 2.395 . S
O147 C131 1.240 . S
O148 Gd121 2.448 . S
O148 C132 1.249 . S
O149 Gd121 2.506 . S
O149 C132 1.252 . S
O150 Gd121 2.435 . S
O150 C139 1.256 . S
O151 Gd120 2.327 1_455 S
O151 Gd121 2.717 . S
O151 C139 1.257 . S
H152 C125 0.930 . S
H153 C126 0.931 . S
H154 C128 0.931 . S
H155 C129 0.931 . S
H156 C134 0.930 . S
H157 C135 0.931 . S
H158 C137 0.931 . S
H159 C138 0.931 . S
H160 C166 0.930 . S
H161 C170 0.930 . S
H162 C175 0.929 . S
H163 C173 0.929 . S
H164 C168 0.929 . S
H165 C174 0.929 . S
C166 H160 0.930 . S
C166 C167 1.367 . S
C166 C174 1.378 . S
C167 C166 1.367 . S
C167 C175 1.433 . S
C168 H164 0.929 . S
C168 C170 1.378 . S
C168 C172 1.350 . S
C169 C172 1.463 . S
C169 C174 1.350 1_455 S
C169 N177 1.427 . S
C170 H161 0.930 . S
C170 C168 1.378 . S
C170 C171 1.367 . S
C171 C170 1.367 . S
C171 C173 1.433 . S
C172 C168 1.350 . S
C172 C169 1.463 . S
C172 N176 1.427 . S
C173 H163 0.929 . S
C173 C171 1.433 . S
C173 N176 1.384 . S
C174 H165 0.929 . S
C174 C166 1.378 . S
C174 C169 1.350 1_655 S
C175 H162 0.929 . S
C175 C167 1.433 . S
C175 N177 1.384 1_655 S
N176 C172 1.427 . S
N176 C173 1.384 . S
N177 C169 1.427 . S
N177 C175 1.384 1_455 S
H178 C184 0.930 . S
H179 C188 0.930 . S
H180 C193 0.929 . S
H181 C191 0.929 . S
H182 C186 0.929 . S
H183 C192 0.929 . S
C184 H178 0.930 . S
C184 C185 1.367 . S
C184 C192 1.378 . S
C185 C184 1.367 . S
C185 C193 1.433 1_565 S
C186 H182 0.929 . S
C186 C188 1.378 . S
C186 C190 1.350 . S
C187 C190 1.463 . S
C187 C192 1.350 1_545 S
C187 N195 1.427 . S
C188 H179 0.930 . S
C188 C186 1.378 . S
C188 C189 1.367 . S
C189 C188 1.367 . S
C189 C191 1.433 . S
C190 C186 1.350 . S
C190 C187 1.463 . S
C190 N194 1.427 . S
C191 H181 0.929 . S
C191 C189 1.433 . S
C191 N194 1.384 . S
C192 H183 0.929 . S
C192 C184 1.378 . S
C192 C187 1.350 1_565 S
C193 H180 0.929 . S
C193 C185 1.433 1_545 S
C193 N195 1.384 . S
N194 C190 1.427 . S
N194 C191 1.384 . S
N195 C187 1.427 . S
N195 C193 1.384 . S
H196 C202 0.930 . S
H197 C206 0.930 . S
H198 C211 0.929 . S
H199 C209 0.929 . S
H200 C204 0.929 . S
H201 C210 0.929 1_565 S
C202 H196 0.930 . S
C202 C203 1.367 1_565 S
C202 C210 1.378 1_565 S
C203 C202 1.367 1_545 S
C203 C211 1.433 . S
C204 H200 0.929 . S
C204 C206 1.378 . S
C204 C208 1.350 . S
C205 C208 1.463 . S
C205 C210 1.350 . S
C205 N213 1.427 . S
C206 H197 0.930 . S
C206 C204 1.378 . S
C206 C207 1.367 . S
C207 C206 1.367 . S
C207 C209 1.433 . S
C208 C204 1.350 . S
C208 C205 1.463 . S
C208 N212 1.427 . S
C209 H199 0.929 . S
C209 C207 1.433 . S
C209 N212 1.384 . S
C210 H201 0.929 1_545 S
C210 C202 1.378 1_545 S
C210 C205 1.350 . S
C211 H198 0.929 . S
C211 C203 1.433 . S
C211 N213 1.384 . S
N212 C208 1.427 . S
N212 C209 1.384 . S
N213 C205 1.427 . S
N213 C211 1.384 . S
H214 C220 0.930 . S
H215 C224 0.930 1_655 S
H216 C229 0.930 . S
H217 C227 0.929 . S
H218 C222 0.929 1_655 S
H219 C228 0.929 . S
C220 H214 0.930 . S
C220 C221 1.367 . S
C220 C228 1.378 . S
C221 C220 1.367 . S
C221 C229 1.432 1_455 S
C222 H218 0.929 1_455 S
C222 C224 1.378 . S
C222 C226 1.350 . S
C223 C226 1.463 . S
C223 C228 1.350 . S
C223 N231 1.434 . S
C224 H215 0.930 1_455 S
C224 C222 1.378 . S
C224 C225 1.367 . S
C225 C224 1.367 . S
C225 C227 1.433 . S
C226 C222 1.350 . S
C226 C223 1.463 . S
C226 N230 1.427 . S
C227 H217 0.929 . S
C227 C225 1.433 . S
C227 N230 1.384 . S
C228 H219 0.929 . S
C228 C220 1.378 . S
C228 C223 1.350 . S
C229 H216 0.930 . S
C229 C221 1.432 1_655 S
C229 N231 1.384 1_655 S
N230 C226 1.427 . S
N230 C227 1.384 . S
N231 C223 1.434 . S
N231 C229 1.384 1_455 S
H232 C238 0.930 . S
H233 C242 0.930 . S
H234 C247 0.929 . S
H235 C245 0.929 . S
H236 C240 0.929 . S
H237 C246 0.929 . S
C238 H232 0.930 . S
C238 C239 1.367 . S
C238 C246 1.378 . S
C239 C238 1.367 . S
C239 C247 1.433 . S
C240 H236 0.929 . S
C240 C242 1.378 . S
C240 C244 1.350 . S
C241 C244 1.463 . S
C241 C246 1.350 . S
C241 N249 1.427 . S
C242 H233 0.930 . S
C242 C240 1.378 . S
C242 C243 1.367 . S
C243 C242 1.367 . S
C243 C245 1.433 . S
C244 C240 1.350 . S
C244 C241 1.463 . S
C244 N248 1.427 . S
C245 H235 0.929 . S
C245 C243 1.433 . S
C245 N248 1.384 . S
C246 H237 0.929 . S
C246 C238 1.378 . S
C246 C241 1.350 . S
C247 H234 0.929 . S
C247 C239 1.433 . S
C247 N249 1.384 . S
N248 C244 1.427 . S
N248 C245 1.384 . S
N249 C241 1.427 . S
N249 C247 1.384 . S
H250 C256 0.930 . S
H251 C260 0.930 . S
H252 C265 0.929 . S
H253 C263 0.929 . S
H254 C258 0.929 . S
H255 C264 0.929 . S
C256 H250 0.930 . S
C256 C257 1.367 . S
C256 C264 1.378 . S
C257 C256 1.367 . S
C257 C265 1.433 . S
C258 H254 0.929 . S
C258 C260 1.378 1_556 S
C258 C262 1.350 . S
C259 C262 1.463 . S
C259 C264 1.350 . S
C259 N267 1.427 . S
C260 H251 0.930 . S
C260 C258 1.378 1_554 S
C260 C261 1.367 . S
C261 C260 1.367 . S
C261 C263 1.433 . S
C262 C258 1.350 . S
C262 C259 1.463 . S
C262 N266 1.427 1_556 S
C263 H253 0.929 . S
C263 C261 1.433 . S
C263 N266 1.384 . S
C264 H255 0.929 . S
C264 C256 1.378 . S
C264 C259 1.350 . S
C265 H252 0.929 . S
C265 C257 1.433 . S
C265 N267 1.384 . S
N266 C262 1.427 1_554 S
N266 C263 1.384 . S
N267 C259 1.427 . S
N267 C265 1.384 . S
H268 C274 0.930 . S
H269 C278 0.930 1_545 S
H270 C283 0.929 . S
H271 C281 0.929 . S
H272 C276 0.929 . S
H273 C282 0.929 . S
C274 H268 0.930 . S
C274 C275 1.367 . S
C274 C282 1.378 . S
C275 C274 1.367 . S
C275 C283 1.433 . S
C276 H272 0.929 . S
C276 C278 1.378 . S
C276 C280 1.350 . S
C277 C280 1.463 . S
C277 C282 1.350 . S
C277 N285 1.427 . S
C278 H269 0.930 1_565 S
C278 C276 1.378 . S
C278 C279 1.367 . S
C279 C278 1.367 . S
C279 C281 1.433 . S
C280 C276 1.350 . S
C280 C277 1.463 . S
C280 N284 1.427 . S
C281 H271 0.929 . S
C281 C279 1.433 . S
C281 N284 1.384 . S
C282 H273 0.929 . S
C282 C274 1.378 . S
C282 C277 1.350 . S
C283 H270 0.929 . S
C283 C275 1.433 . S
C283 N285 1.384 . S
N284 C280 1.427 . S
N284 C281 1.384 . S
N285 C277 1.427 . S
N285 C283 1.384 . S
H286 C292 0.930 . S
H287 C296 0.930 . S
H288 C301 0.929 . S
H289 C299 0.929 . S
H290 C294 0.929 . S
H291 C300 0.929 . S
C292 H286 0.930 . S
C292 C293 1.367 . S
C292 C300 1.378 . S
C293 C292 1.367 . S
C293 C301 1.433 . S
C294 H290 0.929 . S
C294 C296 1.378 . S
C294 C298 1.350 . S
C295 C298 1.463 . S
C295 C300 1.350 . S
C295 N303 1.427 . S
C296 H287 0.930 . S
C296 C294 1.378 . S
C296 C297 1.367 . S
C297 C296 1.367 . S
C297 C299 1.433 . S
C298 C294 1.350 . S
C298 C295 1.463 . S
C298 N302 1.427 . S
C299 H289 0.929 . S
C299 C297 1.433 . S
C299 N302 1.384 . S
C300 H291 0.929 . S
C300 C292 1.378 . S
C300 C295 1.350 . S
C301 H288 0.929 . S
C301 C293 1.433 . S
C301 N303 1.384 . S
N302 C298 1.427 . S
N302 C299 1.384 . S
N303 C295 1.427 . S
N303 C301 1.384 . S
H304 C310 0.930 . S
H305 C314 0.930 . S
H306 C319 0.929 . S
H307 C317 0.929 . S
H308 C312 0.929 . S
H309 C318 0.929 . S
C310 H304 0.930 . S
C310 C311 1.367 . S
C310 C318 1.378 . S
C311 C310 1.367 . S
C311 C319 1.433 . S
C312 H308 0.929 . S
C312 C314 1.378 . S
C312 C316 1.350 . S
C313 C316 1.463 . S
C313 C318 1.350 . S
C313 N321 1.427 . S
C314 H305 0.930 . S
C314 C312 1.378 . S
C314 C315 1.367 . S
C315 C314 1.367 . S
C315 C317 1.433 . S
C316 C312 1.350 . S
C316 C313 1.463 . S
C316 N320 1.427 . S
C317 H307 0.929 . S
C317 C315 1.433 . S
C317 N320 1.384 . S
C318 H309 0.929 . S
C318 C310 1.378 . S
C318 C313 1.350 . S
C319 H306 0.929 . S
C319 C311 1.433 . S
C319 N321 1.384 . S
N320 C316 1.427 . S
N320 C317 1.384 . S
N321 C313 1.427 . S
N321 C319 1.384 . S
H322 C328 0.930 . S
H323 C332 0.930 . S
H324 C337 0.929 . S
H325 C335 0.929 . S
H326 C330 0.929 1_545 S
H327 C336 0.929 . S
C328 H322 0.930 . S
C328 C329 1.367 1_565 S
C328 C336 1.378 . S
C329 C328 1.367 1_545 S
C329 C337 1.433 . S
C330 H326 0.929 1_565 S
C330 C332 1.378 . S
C330 C334 1.350 . S
C331 C334 1.463 . S
C331 C336 1.350 . S
C331 N339 1.427 1_565 S
C332 H323 0.930 . S
C332 C330 1.378 . S
C332 C333 1.367 . S
C333 C332 1.367 . S
C333 C335 1.433 . S
C334 C330 1.350 . S
C334 C331 1.463 . S
C334 N338 1.427 . S
C335 H325 0.929 . S
C335 C333 1.433 . S
C335 N338 1.384 . S
C336 H327 0.929 . S
C336 C328 1.378 . S
C336 C331 1.350 . S
C337 H324 0.929 . S
C337 C329 1.433 . S
C337 N339 1.384 . S
N338 C334 1.427 . S
N338 C335 1.384 . S
N339 C331 1.427 1_545 S
N339 C337 1.384 . S
H340 C346 0.930 . S
H341 C350 0.930 . S
H342 C355 0.929 . S
H343 C353 0.929 . S
H344 C348 0.929 . S
H345 C354 0.929 . S
C346 H340 0.930 . S
C346 C347 1.367 . S
C346 C354 1.378 . S
C347 C346 1.367 . S
C347 C355 1.433 . S
C348 H344 0.929 . S
C348 C350 1.378 . S
C348 C352 1.350 . S
C349 C352 1.463 . S
C349 C354 1.350 . S
C349 N357 1.427 . S
C350 H341 0.930 . S
C350 C348 1.378 . S
C350 C351 1.367 . S
C351 C350 1.367 . S
C351 C353 1.433 . S
C352 C348 1.350 . S
C352 C349 1.463 . S
C352 N356 1.427 . S
C353 H343 0.929 . S
C353 C351 1.433 . S
C353 N356 1.384 . S
C354 H345 0.929 . S
C354 C346 1.378 . S
C354 C349 1.350 . S
C355 H342 0.929 . S
C355 C347 1.433 . S
C355 N357 1.384 . S
N356 C352 1.427 . S
N356 C353 1.384 . S
N357 C349 1.427 . S
N357 C355 1.384 . S
H358 C364 0.930 . S
H359 C368 0.930 . S
H360 C373 0.929 . S
H361 C371 0.929 1_455 S
H362 C366 0.929 . S
H363 C372 0.929 . S
C364 H358 0.930 . S
C364 C365 1.367 . S
C364 C372 1.378 . S
C365 C364 1.367 . S
C365 C373 1.433 . S
C366 H362 0.929 . S
C366 C368 1.378 . S
C366 C370 1.350 . S
C367 C370 1.463 . S
C367 C372 1.350 . S
C367 N375 1.427 . S
C368 H359 0.930 . S
C368 C366 1.378 . S
C368 C369 1.367 . S
C369 C368 1.367 . S
C369 C371 1.433 . S
C370 C366 1.350 . S
C370 C367 1.463 . S
C370 N374 1.427 . S
C371 H361 0.929 1_655 S
C371 C369 1.433 . S
C371 N374 1.384 . S
C372 H363 0.929 . S
C372 C364 1.378 . S
C372 C367 1.350 . S
C373 H360 0.929 . S
C373 C365 1.433 . S
C373 N375 1.384 . S
N374 C370 1.427 . S
N374 C371 1.384 . S
N375 C367 1.427 . S
N375 C373 1.384 . S
C167 C90 0.511 . S
C171 C19 0.511 . S
C185 C130 0.657 . S
C189 C59 0.657 . S
C203 C99 1.113 . S
C207 C10 1.113 . S
C221 C50 1.060 . S
C225 C139 1.060 . S
C239 C56 1.047 . S
C243 C7 1.053 . S
C257 C47 1.712 . S
C261 C91 1.741 . S
C275 C131 2.148 . S
C279 C82 2.094 . S
C293 C122 1.323 . S
C297 C16 1.346 . S
C311 C96 1.038 . S
C315 C127 1.058 . S
C329 C2 1.740 . S
C333 C136 1.712 . S
C347 C42 2.147 . S
C351 C11 2.098 1_556 S
C365 C87 1.343 . S
C369 C51 1.330 . S
