# Generated by pormake.
# Topology som, (6)-cn, num edge types: 1
# Building blocks:
#     Node 0, Type 0, BuildingBlock: JUFBIX_clean_sbu_0, # of connection points: 6
#     Node 1, Type 0, BuildingBlock: JUFBIX_clean_sbu_0, # of connection points: 6
#     Node 2, Type 0, BuildingBlock: JUFBIX_clean_sbu_0, # of connection points: 6
#     Node 3, Type 0, BuildingBlock: JUFBIX_clean_sbu_0, # of connection points: 6
#     Node 4, Type 0, BuildingBlock: JUFBIX_clean_sbu_0, # of connection points: 6
#     Node 5, Type 0, BuildingBlock: JUFBIX_clean_sbu_0, # of connection points: 6
#     Node 6, Type 0, BuildingBlock: JUFBIX_clean_sbu_0, # of connection points: 6
#     Node 7, Type 0, BuildingBlock: JUFBIX_clean_sbu_0, # of connection points: 6
#     Node 8, Type 0, BuildingBlock: JUFBIX_clean_sbu_0, # of connection points: 6
#     Node 9, Type 0, BuildingBlock: JUFBIX_clean_sbu_0, # of connection points: 6
#     Node 10, Type 0, BuildingBlock: JUFBIX_clean_sbu_0, # of connection points: 6
#     Node 11, Type 0, BuildingBlock: JUFBIX_clean_sbu_0, # of connection points: 6
#     Node 12, Type 0, BuildingBlock: JUFBIX_clean_sbu_0, # of connection points: 6
#     Node 13, Type 0, BuildingBlock: JUFBIX_clean_sbu_0, # of connection points: 6
#     Node 14, Type 0, BuildingBlock: JUFBIX_clean_sbu_0, # of connection points: 6
#     Node 15, Type 0, BuildingBlock: JUFBIX_clean_sbu_0, # of connection points: 6
#     Node 16, Type 0, BuildingBlock: JUFBIX_clean_sbu_0, # of connection points: 6
#     Node 17, Type 0, BuildingBlock: JUFBIX_clean_sbu_0, # of connection points: 6
#     Node 18, Type 0, BuildingBlock: JUFBIX_clean_sbu_0, # of connection points: 6
#     Node 19, Type 0, BuildingBlock: JUFBIX_clean_sbu_0, # of connection points: 6
#     Node 20, Type 0, BuildingBlock: JUFBIX_clean_sbu_0, # of connection points: 6
#     Node 21, Type 0, BuildingBlock: JUFBIX_clean_sbu_0, # of connection points: 6
#     Node 22, Type 0, BuildingBlock: JUFBIX_clean_sbu_0, # of connection points: 6
#     Node 23, Type 0, BuildingBlock: JUFBIX_clean_sbu_0, # of connection points: 6
#     Node 24, Type 0, BuildingBlock: JUFBIX_clean_sbu_0, # of connection points: 6
#     Node 25, Type 0, BuildingBlock: JUFBIX_clean_sbu_0, # of connection points: 6
#     Node 26, Type 0, BuildingBlock: JUFBIX_clean_sbu_0, # of connection points: 6
#     Node 27, Type 0, BuildingBlock: JUFBIX_clean_sbu_0, # of connection points: 6
#     Node 28, Type 0, BuildingBlock: JUFBIX_clean_sbu_0, # of connection points: 6
#     Node 29, Type 0, BuildingBlock: JUFBIX_clean_sbu_0, # of connection points: 6
#     Node 30, Type 0, BuildingBlock: JUFBIX_clean_sbu_0, # of connection points: 6
#     Node 31, Type 0, BuildingBlock: JUFBIX_clean_sbu_0, # of connection points: 6
#     Edge 32, Type (0, 0), None
#     Edge 33, Type (0, 0), None
#     Edge 34, Type (0, 0), None
#     Edge 35, Type (0, 0), None
#     Edge 36, Type (0, 0), None
#     Edge 37, Type (0, 0), None
#     Edge 38, Type (0, 0), None
#     Edge 39, Type (0, 0), None
#     Edge 40, Type (0, 0), None
#     Edge 41, Type (0, 0), None
#     Edge 42, Type (0, 0), None
#     Edge 43, Type (0, 0), None
#     Edge 44, Type (0, 0), None
#     Edge 45, Type (0, 0), None
#     Edge 46, Type (0, 0), None
#     Edge 47, Type (0, 0), None
#     Edge 48, Type (0, 0), None
#     Edge 49, Type (0, 0), None
#     Edge 50, Type (0, 0), None
#     Edge 51, Type (0, 0), None
#     Edge 52, Type (0, 0), None
#     Edge 53, Type (0, 0), None
#     Edge 54, Type (0, 0), None
#     Edge 55, Type (0, 0), None
#     Edge 56, Type (0, 0), None
#     Edge 57, Type (0, 0), None
#     Edge 58, Type (0, 0), None
#     Edge 59, Type (0, 0), None
#     Edge 60, Type (0, 0), None
#     Edge 61, Type (0, 0), None
#     Edge 62, Type (0, 0), None
#     Edge 63, Type (0, 0), None
#     Edge 64, Type (0, 0), None
#     Edge 65, Type (0, 0), None
#     Edge 66, Type (0, 0), None
#     Edge 67, Type (0, 0), None
#     Edge 68, Type (0, 0), None
#     Edge 69, Type (0, 0), None
#     Edge 70, Type (0, 0), None
#     Edge 71, Type (0, 0), None
#     Edge 72, Type (0, 0), None
#     Edge 73, Type (0, 0), None
#     Edge 74, Type (0, 0), None
#     Edge 75, Type (0, 0), None
#     Edge 76, Type (0, 0), None
#     Edge 77, Type (0, 0), None
#     Edge 78, Type (0, 0), None
#     Edge 79, Type (0, 0), None
#     Edge 80, Type (0, 0), None
#     Edge 81, Type (0, 0), None
#     Edge 82, Type (0, 0), None
#     Edge 83, Type (0, 0), None
#     Edge 84, Type (0, 0), None
#     Edge 85, Type (0, 0), None
#     Edge 86, Type (0, 0), None
#     Edge 87, Type (0, 0), None
#     Edge 88, Type (0, 0), None
#     Edge 89, Type (0, 0), None
#     Edge 90, Type (0, 0), None
#     Edge 91, Type (0, 0), None
#     Edge 92, Type (0, 0), None
#     Edge 93, Type (0, 0), None
#     Edge 94, Type (0, 0), None
#     Edge 95, Type (0, 0), None
#     Edge 96, Type (0, 0), None
#     Edge 97, Type (0, 0), None
#     Edge 98, Type (0, 0), None
#     Edge 99, Type (0, 0), None
#     Edge 100, Type (0, 0), None
#     Edge 101, Type (0, 0), None
#     Edge 102, Type (0, 0), None
#     Edge 103, Type (0, 0), None
#     Edge 104, Type (0, 0), None
#     Edge 105, Type (0, 0), None
#     Edge 106, Type (0, 0), None
#     Edge 107, Type (0, 0), None
#     Edge 108, Type (0, 0), None
#     Edge 109, Type (0, 0), None
#     Edge 110, Type (0, 0), None
#     Edge 111, Type (0, 0), None
#     Edge 112, Type (0, 0), None
#     Edge 113, Type (0, 0), None
#     Edge 114, Type (0, 0), None
#     Edge 115, Type (0, 0), None
#     Edge 116, Type (0, 0), None
#     Edge 117, Type (0, 0), None
#     Edge 118, Type (0, 0), None
#     Edge 119, Type (0, 0), None
#     Edge 120, Type (0, 0), None
#     Edge 121, Type (0, 0), None
#     Edge 122, Type (0, 0), None
#     Edge 123, Type (0, 0), None
#     Edge 124, Type (0, 0), None
#     Edge 125, Type (0, 0), None
#     Edge 126, Type (0, 0), None
#     Edge 127, Type (0, 0), None
# Relax obj value: 0.008
# Max RMSD: 0.054
# Mean RMSD: 0.053
data_MOF--net-som--node1-JUFBIX_clean_sbu_0--edge1-none
_symmetry_space_group_name_H-M    P1
_symmetry_Int_Tables_number       1
_symmetry_cell_setting            triclinic
loop_
_symmetry_equiv_pos_as_xyz
'x, y, z'
_cell_length_a     6.4993082
_cell_length_b     45.657539
_cell_length_c     51.632995
_cell_angle_alpha  90.003295
_cell_angle_beta   90.514411
_cell_angle_gamma 90.000999
loop_
_atom_site_label
_atom_site_type_symbol
_atom_site_fract_x
_atom_site_fract_y
_atom_site_fract_z
_atom_type_partial_charge
Co0 Co 0.06091 0.56104 0.07875 0.0
C1 C 0.02724 0.5439 0.0283 0.0
Co2 Co 0.06169 0.5126 0.0753 0.0
C3 C 0.15132 0.62307 0.0723 0.0
C4 C 0.93977 0.61442 0.10292 0.0
N5 N 0.05387 0.60109 0.08457 0.0
N6 N 0.10131 0.64943 0.08234 0.0
C7 C 0.96859 0.64421 0.1016 0.0
H8 H 0.25518 0.61974 0.05632 0.0
H9 H 0.84096 0.60314 0.11641 0.0
C10 C 0.10895 0.53062 0.12546 0.0
N11 N 0.05556 0.47225 0.07066 0.0
C12 C 0.92037 0.45343 0.08139 0.0
C13 C 0.17069 0.45562 0.05473 0.0
N14 N 0.94546 0.42589 0.07259 0.0
C15 C 0.10333 0.42697 0.05589 0.0
C16 C 0.44953 0.53702 0.07606 0.0
O17 O 0.08535 0.55529 0.11458 0.0
O18 O 0.08918 0.50732 0.11218 0.0
O19 O 0.35252 0.513 0.07367 0.0
O20 O 0.35254 0.56116 0.07735 0.0
O21 O 0.0386 0.51849 0.03849 0.0
H22 H 0.29227 0.46392 0.04258 0.0
H23 H 0.80345 0.45996 0.095 0.0
O24 O 0.0403 0.56651 0.04257 0.0
O25 O 0.76995 0.56063 0.08005 0.0
O26 O 0.76969 0.51278 0.0769 0.0
C27 C 0.6725 0.53678 0.07788 0.0
H28 H 0.89825 0.66058 0.11381 0.0
H29 H 0.1628 0.40868 0.04495 0.0
Co30 Co 0.21007 0.76571 0.07576 0.0
C31 C 0.24444 0.79467 0.02819 0.0
Co32 Co 0.21151 0.81428 0.07791 0.0
C33 C 0.11563 0.70356 0.08318 0.0
C34 C 0.34792 0.71162 0.0549 0.0
N35 N 0.22012 0.72535 0.07151 0.0
N36 N 0.1743 0.67701 0.07434 0.0
C37 C 0.31995 0.6819 0.05656 0.0
H38 H 1.0002 0.70716 0.09781 0.0
H39 H 0.4565 0.72257 0.04244 0.0
C40 C 0.16528 0.78575 0.12549 0.0
N41 N 0.21537 0.85482 0.08123 0.0
C42 C 0.3551 0.87338 0.07104 0.0
C43 C 0.0914 0.87194 0.09564 0.0
N44 N 0.32397 0.90122 0.07873 0.0
C45 C 0.15794 0.90058 0.09414 0.0
C46 C 0.82239 0.78994 0.0757 0.0
O47 O 0.1857 0.76209 0.11266 0.0
O48 O 0.18876 0.81029 0.11423 0.0
O49 O 0.91987 0.81408 0.07607 0.0
O50 O 0.91872 0.76579 0.07385 0.0
O51 O 0.23111 0.81789 0.04157 0.0
H52 H 0.96372 0.864 0.10696 0.0
H53 H 0.4797 0.86644 0.05872 0.0
O54 O 0.22976 0.76992 0.03917 0.0
O55 O 0.50184 0.76599 0.07777 0.0
O56 O 0.5032 0.81393 0.07977 0.0
C57 C 0.59975 0.78995 0.07802 0.0
H58 H 0.40157 0.66532 0.04577 0.0
H59 H 0.09107 0.91923 0.10387 0.0
Co60 Co 0.06404 0.76571 0.20274 0.0
C61 C 0.02968 0.79467 0.25032 0.0
Co62 Co 0.06262 0.81428 0.2006 0.0
C63 C 0.15853 0.70356 0.19533 0.0
C64 C 0.92614 0.71163 0.2236 0.0
N65 N 0.05398 0.72535 0.20699 0.0
N66 N 0.09986 0.67701 0.20418 0.0
C67 C 0.95414 0.6819 0.22194 0.0
H68 H 0.27399 0.70716 0.18071 0.0
H69 H 0.81751 0.72257 0.23606 0.0
C70 C 0.10884 0.78575 0.15302 0.0
N71 N 0.05876 0.85482 0.19729 0.0
C72 C 0.91903 0.87338 0.20748 0.0
C73 C 0.18276 0.87194 0.18288 0.0
N74 N 0.95016 0.90122 0.19979 0.0
C75 C 0.11622 0.90058 0.18437 0.0
C76 C 0.45173 0.78994 0.20281 0.0
O77 O 0.08842 0.76209 0.16585 0.0
O78 O 0.08536 0.81029 0.16428 0.0
O79 O 0.35425 0.81408 0.20244 0.0
O80 O 0.3554 0.76579 0.20466 0.0
O81 O 0.04302 0.81789 0.23695 0.0
H82 H 0.31045 0.864 0.17156 0.0
H83 H 0.7944 0.86644 0.21979 0.0
O84 O 0.04435 0.76993 0.23934 0.0
O85 O 0.77228 0.76599 0.20073 0.0
O86 O 0.77092 0.81393 0.19874 0.0
C87 C 0.67437 0.78995 0.20049 0.0
H88 H 0.87248 0.66532 0.23273 0.0
H89 H 0.1831 0.91923 0.17465 0.0
Co90 Co 0.21323 0.56104 0.19976 0.0
C91 C 0.2469 0.5439 0.25021 0.0
Co92 Co 0.21245 0.5126 0.20321 0.0
C93 C 0.12282 0.62307 0.20621 0.0
C94 C 0.33442 0.61442 0.1756 0.0
N95 N 0.22029 0.60109 0.19394 0.0
N96 N 0.17284 0.64943 0.19618 0.0
C97 C 0.3056 0.6442 0.17692 0.0
H98 H 0.01894 0.61974 0.2222 0.0
H99 H 0.43325 0.60314 0.16211 0.0
C100 C 0.16519 0.53062 0.15305 0.0
N101 N 0.21856 0.47225 0.20785 0.0
C102 C 0.35377 0.45343 0.19712 0.0
C103 C 0.1034 0.45562 0.22377 0.0
N104 N 0.32867 0.42589 0.20592 0.0
C105 C 0.17077 0.42697 0.22261 0.0
C106 C 0.82462 0.53702 0.20245 0.0
O107 O 0.1888 0.55529 0.16394 0.0
O108 O 0.18496 0.50732 0.16633 0.0
O109 O 0.92162 0.513 0.20484 0.0
O110 O 0.92161 0.56116 0.20116 0.0
O111 O 0.23553 0.51849 0.24002 0.0
H112 H 0.9818 0.46392 0.23592 0.0
H113 H 0.47073 0.45996 0.18352 0.0
O114 O 0.23385 0.56652 0.23595 0.0
O115 O 0.5042 0.56063 0.19847 0.0
O116 O 0.50445 0.51278 0.20161 0.0
C117 C 0.60165 0.53678 0.20063 0.0
H118 H 0.37597 0.66057 0.16471 0.0
H119 H 0.11128 0.40868 0.23356 0.0
Co120 Co 0.96246 0.57839 0.95321 0.0
C121 C 0.9152 0.56037 0.90305 0.0
Co122 Co 0.96324 0.52995 0.94976 0.0
C123 C 0.10378 0.63757 0.94712 0.0
C124 C 0.85346 0.63537 0.97378 0.0
N125 N 0.96859 0.61874 0.95785 0.0
N126 N 0.07869 0.66511 0.95592 0.0
C127 C 0.92083 0.66402 0.97262 0.0
H128 H 0.22071 0.63103 0.93352 0.0
H129 H 0.73188 0.62708 0.98593 0.0
C130 C 0.99691 0.5471 1.00021 0.0
N131 N 0.97028 0.4899 0.94394 0.0
C132 C 0.87283 0.46792 0.95621 0.0
C133 C 0.08438 0.47657 0.92559 0.0
N134 N 0.92284 0.44157 0.94617 0.0
C135 C 0.05556 0.44679 0.92691 0.0
C136 C 0.35165 0.55421 0.95063 0.0
O137 O 0.98555 0.5725 0.99002 0.0
O138 O 0.98386 0.52448 0.98595 0.0
O139 O 0.25421 0.53036 0.94846 0.0
O140 O 0.25446 0.57821 0.95161 0.0
O141 O 0.9388 0.53571 0.91394 0.0
H142 H 0.18319 0.48785 0.9121 0.0
H143 H 0.76897 0.47125 0.9722 0.0
O144 O 0.93497 0.58367 0.91633 0.0
O145 O 0.67164 0.57799 0.95484 0.0
O146 O 0.67161 0.52983 0.95116 0.0
C147 C 0.57463 0.55398 0.95245 0.0
H148 H 0.86135 0.68232 0.98357 0.0
H149 H 0.12591 0.43042 0.9147 0.0
Co150 Co 0.81264 0.27671 0.9506 0.0
C151 C 0.85887 0.30524 0.90302 0.0
Co152 Co 0.81408 0.32529 0.95275 0.0
C153 C 0.66906 0.21762 0.95748 0.0
C154 C 0.93275 0.21906 0.93288 0.0
N155 N 0.80878 0.23617 0.94729 0.0
N156 N 0.70018 0.18977 0.94979 0.0
C157 C 0.86622 0.19041 0.93437 0.0
H158 H 0.54445 0.22455 0.9698 0.0
H159 H 0.06043 0.227 0.92155 0.0
C160 C 0.77971 0.29632 1.00032 0.0
N161 N 0.80403 0.36564 0.957 0.0
C162 C 0.90852 0.38743 0.94533 0.0
C163 C 0.67623 0.37937 0.97361 0.0
N164 N 0.84985 0.41399 0.95418 0.0
C165 C 0.70421 0.40909 0.97195 0.0
C166 C 0.4244 0.30105 0.95049 0.0
O167 O 0.79304 0.2731 0.98694 0.0
O168 O 0.79439 0.32107 0.98934 0.0
O169 O 0.52231 0.32501 0.95074 0.0
O170 O 0.52095 0.27706 0.94874 0.0
O171 O 0.83845 0.3289 0.91585 0.0
H172 H 0.56765 0.36842 0.98608 0.0
H173 H 0.02395 0.38383 0.9307 0.0
O174 O 0.83539 0.2807 0.91428 0.0
O175 O 0.10428 0.27691 0.95244 0.0
O176 O 0.10543 0.3252 0.95466 0.0
C177 C 0.20176 0.30105 0.95281 0.0
H178 H 0.93308 0.17176 0.92464 0.0
H179 H 0.62258 0.42568 0.98274 0.0
Co180 Co 0.96154 0.27671 0.82791 0.0
C181 C 0.91531 0.30524 0.87549 0.0
Co182 Co 0.96011 0.32529 0.82577 0.0
C183 C 0.10513 0.21762 0.82104 0.0
C184 C 0.8414 0.21906 0.84563 0.0
N185 N 0.96539 0.23617 0.83122 0.0
N186 N 0.07399 0.18977 0.82873 0.0
C187 C 0.90793 0.19041 0.84414 0.0
H188 H 0.22975 0.22455 0.80872 0.0
H189 H 0.7137 0.227 0.85695 0.0
C190 C 0.99447 0.29632 0.7782 0.0
N191 N 0.97017 0.36564 0.82152 0.0
C192 C 0.86563 0.38743 0.83318 0.0
C193 C 0.09802 0.37937 0.80492 0.0
N194 N 0.92429 0.41399 0.82433 0.0
C195 C 0.07001 0.40909 0.80657 0.0
C196 C 0.34978 0.30105 0.82802 0.0
O197 O 0.98114 0.2731 0.79157 0.0
O198 O 0.9798 0.32107 0.78918 0.0
O199 O 0.25188 0.325 0.82778 0.0
O200 O 0.25323 0.27706 0.82977 0.0
O201 O 0.93574 0.3289 0.86266 0.0
H202 H 0.20664 0.36842 0.79245 0.0
H203 H 0.75016 0.38384 0.8478 0.0
O204 O 0.93879 0.2807 0.86423 0.0
O205 O 0.6699 0.27691 0.82607 0.0
O206 O 0.66876 0.3252 0.82385 0.0
C207 C 0.57242 0.30105 0.8257 0.0
H208 H 0.84105 0.17176 0.85387 0.0
H209 H 0.15168 0.42567 0.79579 0.0
Co210 Co 0.81171 0.57839 0.82531 0.0
C211 C 0.85896 0.56037 0.87546 0.0
Co212 Co 0.81092 0.52995 0.82875 0.0
C213 C 0.67038 0.63757 0.83139 0.0
C214 C 0.92075 0.63537 0.80474 0.0
N215 N 0.80559 0.61874 0.82066 0.0
N216 N 0.69549 0.66511 0.82259 0.0
C217 C 0.85339 0.66402 0.8059 0.0
H218 H 0.55343 0.63104 0.84499 0.0
H219 H 0.04235 0.62707 0.79259 0.0
C220 C 0.77725 0.5471 0.7783 0.0
N221 N 0.80386 0.4899 0.83457 0.0
C222 C 0.90133 0.46792 0.8223 0.0
C223 C 0.68973 0.47658 0.85292 0.0
N224 N 0.85131 0.44157 0.83234 0.0
C225 C 0.71856 0.44679 0.85159 0.0
C226 C 0.42251 0.55421 0.82788 0.0
O227 O 0.78862 0.5725 0.78849 0.0
O228 O 0.7903 0.52448 0.79256 0.0
O229 O 0.51995 0.53036 0.83005 0.0
O230 O 0.51971 0.57821 0.82691 0.0
O231 O 0.83535 0.53571 0.86457 0.0
H232 H 0.5909 0.48785 0.8664 0.0
H233 H 1.00522 0.47125 0.80632 0.0
O234 O 0.8392 0.58367 0.86219 0.0
O235 O 0.10253 0.57799 0.82367 0.0
O236 O 0.10254 0.52983 0.82735 0.0
C237 C 0.19954 0.55398 0.82606 0.0
H238 H 0.91288 0.68231 0.79495 0.0
H239 H 0.64819 0.43042 0.8638 0.0
Co240 Co 0.06092 0.06104 0.57875 0.0
C241 C 0.02724 1.0439 0.5283 0.0
Co242 Co 0.0617 1.0126 0.5753 0.0
C243 C 0.15133 0.12307 0.5723 0.0
C244 C 0.93978 0.11442 0.60292 0.0
N245 N 0.05388 0.10109 0.58458 0.0
N246 N 0.10133 0.14942 0.58234 0.0
C247 C 0.96861 0.14421 0.6016 0.0
H248 H 0.2552 0.11974 0.55632 0.0
H249 H 0.84097 0.10314 0.61641 0.0
C250 C 0.10896 1.03062 0.62546 0.0
N251 N 0.05557 0.97225 0.57066 0.0
C252 C 0.92038 0.95343 0.58139 0.0
C253 C 0.1707 0.95562 0.55473 0.0
N254 N 0.94547 0.92589 0.57259 0.0
C255 C 0.10334 0.92697 0.55589 0.0
C256 C 0.44954 1.03702 0.57606 0.0
O257 O 0.08536 0.05529 0.61457 0.0
O258 O 0.08919 1.00732 0.61218 0.0
O259 O 0.35253 1.013 0.57367 0.0
O260 O 0.35255 0.06116 0.57735 0.0
O261 O 0.03861 1.01849 0.53849 0.0
H262 H 0.29228 0.96392 0.54258 0.0
H263 H 0.80346 0.95996 0.595 0.0
O264 O 0.0403 0.06651 0.54257 0.0
O265 O 0.76996 0.06063 0.58005 0.0
O266 O 0.7697 1.01278 0.5769 0.0
C267 C 0.67251 1.03678 0.57788 0.0
H268 H 0.89826 0.16058 0.61381 0.0
H269 H 0.1628 0.90868 0.54494 0.0
Co270 Co 0.21009 0.26571 0.57577 0.0
C271 C 0.24445 0.29467 0.52819 0.0
Co272 Co 0.21153 0.31428 0.57791 0.0
C273 C 0.11565 0.20356 0.58318 0.0
C274 C 0.34794 0.21162 0.5549 0.0
N275 N 0.22014 0.22535 0.57151 0.0
N276 N 0.17432 0.17701 0.57434 0.0
C277 C 0.31996 0.1819 0.55656 0.0
H278 H 1.00022 0.20716 0.59781 0.0
H279 H 0.45652 0.22257 0.54244 0.0
C280 C 0.16531 0.28575 0.62549 0.0
N281 N 0.21539 0.35482 0.58123 0.0
C282 C 0.35511 0.37338 0.57104 0.0
C283 C 0.09143 0.37194 0.59564 0.0
N284 N 0.32399 0.40122 0.57873 0.0
C285 C 0.15796 0.40058 0.59414 0.0
C286 C 0.82241 0.28994 0.5757 0.0
O287 O 0.18572 0.26209 0.61266 0.0
O288 O 0.18878 0.31029 0.61423 0.0
O289 O 0.91989 0.31408 0.57607 0.0
O290 O 0.91874 0.26579 0.57385 0.0
O291 O 0.23113 0.31789 0.54157 0.0
H292 H 0.96375 0.364 0.60696 0.0
H293 H 0.47972 0.36644 0.55872 0.0
O294 O 0.22978 0.26992 0.53917 0.0
O295 O 0.50186 0.26599 0.57777 0.0
O296 O 0.50322 0.31393 0.57977 0.0
C297 C 0.59977 0.28995 0.57802 0.0
H298 H 0.40159 0.16532 0.54578 0.0
H299 H 0.09109 0.41923 0.60387 0.0
Co300 Co 0.06408 0.26571 0.70274 0.0
C301 C 0.02972 0.29467 0.75032 0.0
Co302 Co 0.06265 0.31428 0.7006 0.0
C303 C 0.15856 0.20356 0.69533 0.0
C304 C 0.92618 0.21163 0.7236 0.0
N305 N 0.05402 0.22535 0.70699 0.0
N306 N 0.0999 0.17701 0.70418 0.0
C307 C 0.95418 0.1819 0.72195 0.0
H308 H 0.27402 0.20716 0.68071 0.0
H309 H 0.81755 0.22257 0.73606 0.0
C310 C 0.10887 0.28575 0.65302 0.0
N311 N 0.0588 0.35482 0.69729 0.0
C312 C 0.91906 0.37338 0.70748 0.0
C313 C 0.1828 0.37194 0.68288 0.0
N314 N 0.95019 0.40122 0.69979 0.0
C315 C 0.11626 0.40058 0.68437 0.0
C316 C 0.45177 0.28994 0.70281 0.0
O317 O 0.08845 0.26209 0.66585 0.0
O318 O 0.0854 0.31029 0.66428 0.0
O319 O 0.35429 0.31408 0.70244 0.0
O320 O 0.35543 0.26579 0.70466 0.0
O321 O 0.04305 0.31789 0.73695 0.0
H322 H 0.31049 0.364 0.67156 0.0
H323 H 0.79443 0.36644 0.71979 0.0
O324 O 0.04439 0.26992 0.73934 0.0
O325 O 0.77231 0.26599 0.70074 0.0
O326 O 0.77096 0.31393 0.69875 0.0
C327 C 0.67441 0.28995 0.70049 0.0
H328 H 0.87252 0.16532 0.73273 0.0
H329 H 0.18314 0.41923 0.67465 0.0
Co330 Co 0.21326 0.06104 0.69976 0.0
C331 C 0.24693 1.0439 0.75021 0.0
Co332 Co 0.21247 1.0126 0.70321 0.0
C333 C 0.12285 0.12307 0.70621 0.0
C334 C 0.33444 0.11442 0.6756 0.0
N335 N 0.22032 0.10109 0.69394 0.0
N336 N 0.17287 0.14942 0.69618 0.0
C337 C 0.30562 0.1442 0.67692 0.0
H338 H 0.01897 0.11974 0.7222 0.0
H339 H 0.43327 0.10314 0.66211 0.0
C340 C 0.16521 1.03062 0.65305 0.0
N341 N 0.21859 0.97225 0.70785 0.0
C342 C 0.3538 0.95343 0.69712 0.0
C343 C 0.10343 0.95562 0.72377 0.0
N344 N 0.32869 0.92589 0.70592 0.0
C345 C 0.17079 0.92697 0.72261 0.0
C346 C 0.82464 1.03702 0.70245 0.0
O347 O 0.18882 0.05529 0.66394 0.0
O348 O 0.18498 1.00732 0.66633 0.0
O349 O 0.92165 1.013 0.70484 0.0
O350 O 0.92163 0.06116 0.70116 0.0
O351 O 0.23556 1.01849 0.74002 0.0
H352 H 0.98183 0.96392 0.73592 0.0
H353 H 0.47075 0.95996 0.68352 0.0
O354 O 0.23388 0.06651 0.73595 0.0
O355 O 0.50423 0.06063 0.69846 0.0
O356 O 0.50447 1.01278 0.70161 0.0
C357 C 0.60167 1.03678 0.70063 0.0
H358 H 0.37599 0.16057 0.66471 0.0
H359 H 0.1113 0.90868 0.73356 0.0
Co360 Co 0.96245 0.07839 0.45321 0.0
C361 C 0.91519 0.06037 0.40305 0.0
Co362 Co 0.96323 1.02995 0.44976 0.0
C363 C 0.10377 0.13757 0.44712 0.0
C364 C 0.85345 0.13537 0.47378 0.0
N365 N 0.96858 0.11874 0.45785 0.0
N366 N 0.07868 0.16511 0.45592 0.0
C367 C 0.92082 0.16402 0.47262 0.0
H368 H 0.2207 0.13103 0.43352 0.0
H369 H 0.73188 0.12708 0.48593 0.0
C370 C 0.99691 0.0471 0.50021 0.0
N371 N 0.97027 0.9899 0.44394 0.0
C372 C 0.87282 0.96792 0.45621 0.0
C373 C 0.08437 0.97657 0.42559 0.0
N374 N 0.92283 0.94157 0.44617 0.0
C375 C 0.05555 0.94679 0.42691 0.0
C376 C 0.35164 0.05421 0.45063 0.0
O377 O 0.98554 0.0725 0.49002 0.0
O378 O 0.98385 1.02448 0.48595 0.0
O379 O 0.2542 1.03036 0.44846 0.0
O380 O 0.25445 0.07821 0.45161 0.0
O381 O 0.93879 1.03571 0.41394 0.0
H382 H 0.18318 0.98785 0.4121 0.0
H383 H 0.76896 0.97126 0.4722 0.0
O384 O 0.93496 0.08367 0.41633 0.0
O385 O 0.67163 0.07799 0.45484 0.0
O386 O 0.6716 1.02983 0.45116 0.0
C387 C 0.57462 0.05398 0.45245 0.0
H388 H 0.86135 0.18232 0.48357 0.0
H389 H 0.12589 0.93042 0.4147 0.0
Co390 Co 0.81262 0.77671 0.4506 0.0
C391 C 0.85885 0.80525 0.40302 0.0
Co392 Co 0.81406 0.82529 0.45275 0.0
C393 C 0.66904 0.71762 0.45747 0.0
C394 C 0.93273 0.71906 0.43287 0.0
N395 N 0.80876 0.73617 0.44728 0.0
N396 N 0.70016 0.68977 0.44978 0.0
C397 C 0.86619 0.69041 0.43437 0.0
H398 H 0.54444 0.72455 0.4698 0.0
H399 H 0.0604 0.727 0.42155 0.0
C400 C 0.7797 0.79632 0.50032 0.0
N401 N 0.80401 0.86564 0.457 0.0
C402 C 0.9085 0.88743 0.44533 0.0
C403 C 0.67621 0.87937 0.47361 0.0
N404 N 0.84984 0.91399 0.45417 0.0
C405 C 0.70419 0.9091 0.47195 0.0
C406 C 0.42438 0.80105 0.45049 0.0
O407 O 0.79303 0.7731 0.48694 0.0
O408 O 0.79438 0.82107 0.48934 0.0
O409 O 0.5223 0.82501 0.45074 0.0
O410 O 0.52093 0.77706 0.44874 0.0
O411 O 0.83843 0.8289 0.41585 0.0
H412 H 0.56763 0.86842 0.48607 0.0
H413 H 0.02393 0.88384 0.4307 0.0
O414 O 0.83537 0.7807 0.41428 0.0
O415 O 0.10426 0.77691 0.45244 0.0
O416 O 0.10542 0.8252 0.45466 0.0
C417 C 0.20174 0.80105 0.45281 0.0
H418 H 0.93306 0.67176 0.42464 0.0
H419 H 0.62256 0.92568 0.48274 0.0
Co420 Co 0.9615 0.77671 0.32791 0.0
C421 C 0.91528 0.80525 0.37549 0.0
Co422 Co 0.96008 0.82529 0.32577 0.0
C423 C 0.10509 0.71762 0.32104 0.0
C424 C 0.84136 0.71906 0.34563 0.0
N425 N 0.96535 0.73617 0.33122 0.0
N426 N 0.07396 0.68977 0.32873 0.0
C427 C 0.9079 0.69041 0.34414 0.0
H428 H 0.22972 0.72455 0.30872 0.0
H429 H 0.71366 0.727 0.35695 0.0
C430 C 0.99443 0.79632 0.27819 0.0
N431 N 0.97013 0.86564 0.32152 0.0
C432 C 0.86559 0.88743 0.33318 0.0
C433 C 0.09798 0.87937 0.30491 0.0
N434 N 0.92426 0.91399 0.32433 0.0
C435 C 0.06997 0.90909 0.30657 0.0
C436 C 0.34975 0.80105 0.32802 0.0
O437 O 0.9811 0.7731 0.29156 0.0
O438 O 0.97976 0.82107 0.28917 0.0
O439 O 0.25184 0.82501 0.32778 0.0
O440 O 0.25319 0.77706 0.32977 0.0
O441 O 0.9357 0.82891 0.36266 0.0
H442 H 0.2066 0.86842 0.29245 0.0
H443 H 0.75013 0.88384 0.3478 0.0
O444 O 0.93876 0.7807 0.36423 0.0
O445 O 0.66987 0.77691 0.32607 0.0
O446 O 0.66872 0.8252 0.32385 0.0
C447 C 0.57239 0.80105 0.3257 0.0
H448 H 0.84102 0.67176 0.35386 0.0
H449 H 0.15164 0.92567 0.29578 0.0
Co450 Co 0.81168 0.07839 0.32531 0.0
C451 C 0.85894 0.06037 0.37546 0.0
Co452 Co 0.81089 1.02995 0.32875 0.0
C453 C 0.67035 0.13757 0.33139 0.0
C454 C 0.92072 0.13537 0.30474 0.0
N455 N 0.80557 0.11874 0.32066 0.0
N456 N 0.69546 0.16511 0.32259 0.0
C457 C 0.85336 0.16402 0.3059 0.0
H458 H 0.5534 0.13104 0.34499 0.0
H459 H 0.04232 0.12707 0.29259 0.0
C460 C 0.77722 0.0471 0.2783 0.0
N461 N 0.80384 0.9899 0.33457 0.0
C462 C 0.9013 0.96792 0.3223 0.0
C463 C 0.68971 0.97658 0.35292 0.0
N464 N 0.85128 0.94157 0.33233 0.0
C465 C 0.71853 0.94679 0.35159 0.0
C466 C 0.42248 0.05421 0.32788 0.0
O467 O 0.78859 0.0725 0.2885 0.0
O468 O 0.79027 1.02448 0.29256 0.0
O469 O 0.51992 1.03036 0.33005 0.0
O470 O 0.51968 0.07821 0.32691 0.0
O471 O 0.83533 1.03571 0.36457 0.0
H472 H 0.59088 0.98785 0.3664 0.0
H473 H 1.00518 0.97125 0.30632 0.0
O474 O 0.83917 0.08367 0.36219 0.0
O475 O 0.10251 0.07799 0.32367 0.0
O476 O 0.10252 1.02983 0.32735 0.0
C477 C 0.19951 0.05398 0.32607 0.0
H478 H 0.91285 0.18231 0.29495 0.0
H479 H 0.64816 0.93042 0.3638 0.0
Co480 Co 0.56092 0.56104 0.57875 0.0
C481 C 0.52725 0.5439 0.5283 0.0
Co482 Co 0.56171 0.5126 0.5753 0.0
C483 C 0.65133 0.62307 0.5723 0.0
C484 C 0.43979 0.61442 0.60292 0.0
N485 N 0.55389 0.60109 0.58458 0.0
N486 N 0.60133 0.64943 0.58234 0.0
C487 C 0.46862 0.64421 0.6016 0.0
H488 H 0.75518 0.61974 0.55632 0.0
H489 H 0.34099 0.60314 0.61641 0.0
C490 C 0.60896 0.53062 0.62546 0.0
N491 N 0.55557 0.47225 0.57066 0.0
C492 C 0.42029 0.45343 0.58137 0.0
C493 C 0.67076 0.45562 0.55474 0.0
N494 N 0.44536 0.42589 0.57257 0.0
C495 C 0.60335 0.42697 0.55589 0.0
C496 C 0.94954 0.53702 0.57606 0.0
O497 O 0.58536 0.55529 0.61457 0.0
O498 O 0.58919 0.50732 0.61218 0.0
O499 O 0.85253 0.513 0.57367 0.0
O500 O 0.85255 0.56116 0.57735 0.0
O501 O 0.53862 0.51849 0.53849 0.0
H502 H 0.79242 0.46391 0.5426 0.0
H503 H 0.30333 0.45996 0.59498 0.0
O504 O 0.5403 0.56652 0.54256 0.0
O505 O 0.26995 0.56063 0.58005 0.0
O506 O 0.2697 0.51278 0.5769 0.0
C507 C 0.17251 0.53678 0.57788 0.0
H508 H 0.39828 0.66058 0.61381 0.0
H509 H 0.66287 0.40868 0.54495 0.0
Co510 Co 0.71009 0.76571 0.57576 0.0
C511 C 0.74445 0.79467 0.52819 0.0
Co512 Co 0.71152 0.81428 0.57791 0.0
C513 C 0.61565 0.70356 0.58318 0.0
C514 C 0.84792 0.71162 0.5549 0.0
N515 N 0.72013 0.72535 0.57151 0.0
N516 N 0.67431 0.67701 0.57434 0.0
C517 C 0.81995 0.6819 0.55656 0.0
H518 H 0.50023 0.70716 0.59781 0.0
H519 H 0.9565 0.72257 0.54243 0.0
C520 C 0.6653 0.78575 0.62549 0.0
N521 N 0.71539 0.85482 0.58123 0.0
C522 C 0.85517 0.87337 0.57105 0.0
C523 C 0.5914 0.87194 0.59563 0.0
N524 N 0.82408 0.90122 0.57874 0.0
C525 C 0.65798 0.90058 0.59415 0.0
C526 C 0.3224 0.78994 0.5757 0.0
O527 O 0.68572 0.76209 0.61266 0.0
O528 O 0.68877 0.81029 0.61423 0.0
O529 O 0.41989 0.81408 0.57607 0.0
O530 O 0.41874 0.76579 0.57385 0.0
O531 O 0.73112 0.81789 0.54157 0.0
H532 H 0.46367 0.864 0.60695 0.0
H533 H 0.97981 0.86644 0.55873 0.0
O534 O 0.72977 0.76992 0.53917 0.0
O535 O 1.00185 0.76599 0.57777 0.0
O536 O 1.00322 0.81393 0.57977 0.0
C537 C 0.09976 0.78995 0.57802 0.0
H538 H 0.90157 0.66532 0.54577 0.0
H539 H 0.59109 0.91924 0.60387 0.0
Co540 Co 0.56407 0.76571 0.70274 0.0
C541 C 0.52971 0.79467 0.75032 0.0
Co542 Co 0.56265 0.81428 0.7006 0.0
C543 C 0.65855 0.70356 0.69533 0.0
C544 C 0.42618 0.71163 0.7236 0.0
N545 N 0.55402 0.72535 0.70699 0.0
N546 N 0.59989 0.67701 0.70418 0.0
C547 C 0.45418 0.6819 0.72194 0.0
H548 H 0.77401 0.70716 0.68071 0.0
H549 H 0.31756 0.72257 0.73606 0.0
C550 C 0.60887 0.78575 0.65302 0.0
N551 N 0.55879 0.85482 0.69729 0.0
C552 C 0.41899 0.87337 0.70747 0.0
C553 C 0.68282 0.87194 0.68289 0.0
N554 N 0.4501 0.90122 0.69977 0.0
C555 C 0.61623 0.90058 0.68437 0.0
C556 C 0.95176 0.78994 0.70281 0.0
O557 O 0.58844 0.76209 0.66585 0.0
O558 O 0.5854 0.81029 0.66428 0.0
O559 O 0.85429 0.81408 0.70244 0.0
O560 O 0.85542 0.76579 0.70466 0.0
O561 O 0.54305 0.81789 0.73695 0.0
H562 H 0.81056 0.864 0.67158 0.0
H563 H 0.29434 0.86644 0.71978 0.0
O564 O 0.54439 0.76992 0.73934 0.0
O565 O 0.27231 0.76599 0.70073 0.0
O566 O 0.27096 0.81393 0.69874 0.0
C567 C 0.1744 0.78995 0.70049 0.0
H568 H 0.37252 0.66532 0.73273 0.0
H569 H 0.68313 0.91923 0.67465 0.0
Co570 Co 0.71326 0.56104 0.69976 0.0
C571 C 0.74692 0.5439 0.75021 0.0
Co572 Co 0.71247 0.5126 0.70321 0.0
C573 C 0.62285 0.62307 0.70621 0.0
C574 C 0.83443 0.61442 0.67559 0.0
N575 N 0.72031 0.60109 0.69394 0.0
N576 N 0.67286 0.64942 0.69618 0.0
C577 C 0.80561 0.6442 0.67692 0.0
H578 H 0.51897 0.61974 0.7222 0.0
H579 H 0.93326 0.60314 0.66211 0.0
C580 C 0.66521 0.53062 0.65305 0.0
N581 N 0.71859 0.47225 0.70785 0.0
C582 C 0.85389 0.45343 0.69713 0.0
C583 C 0.60337 0.45562 0.72376 0.0
N584 N 0.8288 0.42589 0.70594 0.0
C585 C 0.67078 0.42697 0.72261 0.0
C586 C 0.32464 0.53702 0.70245 0.0
O587 O 0.68882 0.55528 0.66394 0.0
O588 O 0.68498 0.50732 0.66633 0.0
O589 O 0.42164 0.513 0.70484 0.0
O590 O 0.42163 0.56116 0.70116 0.0
O591 O 0.73555 0.51849 0.74002 0.0
H592 H 0.48168 0.46391 0.7359 0.0
H593 H 0.97089 0.45996 0.68354 0.0
O594 O 0.73388 0.56652 0.73595 0.0
O595 O 1.00423 0.56063 0.69846 0.0
O596 O 1.00447 0.51278 0.70161 0.0
C597 C 0.10167 0.53678 0.70063 0.0
H598 H 0.87598 0.66057 0.66471 0.0
H599 H 0.61124 0.40868 0.73355 0.0
Co600 Co 0.46245 0.57839 0.45321 0.0
C601 C 0.41519 0.56037 0.40305 0.0
Co602 Co 0.46323 0.52995 0.44976 0.0
C603 C 0.60386 0.63756 0.44714 0.0
C604 C 0.3534 0.63538 0.47377 0.0
N605 N 0.46859 0.61874 0.45786 0.0
N606 N 0.57879 0.6651 0.45594 0.0
C607 C 0.42081 0.66403 0.47262 0.0
H608 H 0.72083 0.63103 0.43354 0.0
H609 H 0.23173 0.62708 0.48591 0.0
C610 C 0.49691 0.5471 0.50021 0.0
N611 N 0.47027 0.4899 0.44394 0.0
C612 C 0.37282 0.46792 0.45621 0.0
C613 C 0.58436 0.47657 0.42559 0.0
N614 N 0.42283 0.44157 0.44617 0.0
C615 C 0.55554 0.44679 0.42691 0.0
C616 C 0.85164 0.55421 0.45063 0.0
O617 O 0.48554 0.5725 0.49002 0.0
O618 O 0.48385 0.52448 0.48595 0.0
O619 O 0.7542 0.53036 0.44846 0.0
O620 O 0.75445 0.57821 0.45161 0.0
O621 O 0.43879 0.53571 0.41394 0.0
H622 H 0.68317 0.48785 0.4121 0.0
H623 H 0.26897 0.47125 0.4722 0.0
O624 O 0.43496 0.58367 0.41633 0.0
O625 O 0.17162 0.57799 0.45484 0.0
O626 O 0.1716 0.52983 0.45116 0.0
C627 C 0.07461 0.55398 0.45245 0.0
H628 H 0.36128 0.68232 0.48356 0.0
H629 H 0.62588 0.43042 0.4147 0.0
Co630 Co 0.31263 0.27671 0.4506 0.0
C631 C 0.35885 0.30525 0.40302 0.0
Co632 Co 0.31406 0.32529 0.45275 0.0
C633 C 0.16898 0.21762 0.45746 0.0
C634 C 0.43276 0.21906 0.43288 0.0
N635 N 0.30876 0.23617 0.44728 0.0
N636 N 0.20007 0.18978 0.44977 0.0
C637 C 0.36618 0.19041 0.43436 0.0
H638 H 0.04435 0.22456 0.46978 0.0
H639 H 0.56049 0.22699 0.42156 0.0
C640 C 0.2797 0.29632 0.50032 0.0
N641 N 0.30402 0.36564 0.457 0.0
C642 C 0.40851 0.38743 0.44533 0.0
C643 C 0.17623 0.37937 0.47361 0.0
N644 N 0.34984 0.41399 0.45418 0.0
C645 C 0.20421 0.40909 0.47195 0.0
C646 C 0.92439 0.30105 0.45049 0.0
O647 O 0.29303 0.2731 0.48694 0.0
O648 O 0.29438 0.32107 0.48934 0.0
O649 O 0.0223 0.32501 0.45074 0.0
O650 O 0.02094 0.27706 0.44874 0.0
O651 O 0.33843 0.3289 0.41585 0.0
H652 H 0.06765 0.36842 0.48608 0.0
H653 H 0.52393 0.38384 0.4307 0.0
O654 O 0.33538 0.2807 0.41428 0.0
O655 O 0.60427 0.27691 0.45244 0.0
O656 O 0.60542 0.3252 0.45466 0.0
C657 C 0.70175 0.30105 0.45281 0.0
H658 H 0.43306 0.17176 0.42464 0.0
H659 H 0.12258 0.42568 0.48274 0.0
Co660 Co 0.4615 0.27671 0.32791 0.0
C661 C 0.41529 0.30525 0.37549 0.0
Co662 Co 0.46008 0.32529 0.32577 0.0
C663 C 0.60516 0.21762 0.32105 0.0
C664 C 0.34134 0.21906 0.34562 0.0
N665 N 0.46536 0.23617 0.33122 0.0
N666 N 0.57405 0.18978 0.32874 0.0
C667 C 0.40792 0.19041 0.34414 0.0
H668 H 0.72982 0.22455 0.30873 0.0
H669 H 0.21359 0.22699 0.35694 0.0
C670 C 0.49444 0.29632 0.27819 0.0
N671 N 0.47014 0.36564 0.32152 0.0
C672 C 0.3656 0.38743 0.33318 0.0
C673 C 0.59798 0.37937 0.30491 0.0
N674 N 0.42426 0.41399 0.32433 0.0
C675 C 0.56998 0.40909 0.30657 0.0
C676 C 0.84975 0.30105 0.32802 0.0
O677 O 0.48111 0.2731 0.29157 0.0
O678 O 0.47977 0.32107 0.28918 0.0
O679 O 0.75185 0.32501 0.32778 0.0
O680 O 0.7532 0.27706 0.32977 0.0
O681 O 0.43571 0.32891 0.36266 0.0
H682 H 0.7066 0.36842 0.29245 0.0
H683 H 0.25014 0.38384 0.3478 0.0
O684 O 0.43876 0.2807 0.36423 0.0
O685 O 0.16987 0.27691 0.32607 0.0
O686 O 0.16873 0.3252 0.32385 0.0
C687 C 0.07239 0.30105 0.3257 0.0
H688 H 0.34102 0.17176 0.35386 0.0
H689 H 0.65163 0.42567 0.29578 0.0
Co690 Co 0.31169 0.57839 0.32531 0.0
C691 C 0.35894 0.56037 0.37546 0.0
Co692 Co 0.31089 0.52995 0.32875 0.0
C693 C 0.17027 0.63756 0.33138 0.0
C694 C 0.42078 0.63537 0.30475 0.0
N695 N 0.30556 0.61874 0.32066 0.0
N696 N 0.19535 0.6651 0.32257 0.0
C697 C 0.35337 0.66402 0.3059 0.0
H698 H 0.05327 0.63103 0.34497 0.0
H699 H 0.54247 0.62708 0.29262 0.0
C700 C 0.27723 0.5471 0.2783 0.0
N701 N 0.30384 0.4899 0.33457 0.0
C702 C 0.4013 0.46792 0.3223 0.0
C703 C 0.18972 0.47658 0.35292 0.0
N704 N 0.35129 0.44157 0.33234 0.0
C705 C 0.21854 0.44679 0.35159 0.0
C706 C 0.92248 0.55421 0.32788 0.0
O707 O 0.2886 0.5725 0.2885 0.0
O708 O 0.29027 0.52448 0.29256 0.0
O709 O 0.01992 0.53036 0.33005 0.0
O710 O 0.01969 0.57821 0.32691 0.0
O711 O 0.33533 0.53571 0.36457 0.0
H712 H 0.09089 0.48785 0.3664 0.0
H713 H 0.50518 0.47125 0.30632 0.0
O714 O 0.33917 0.58367 0.36219 0.0
O715 O 0.60251 0.57799 0.32367 0.0
O716 O 0.60252 0.52983 0.32735 0.0
C717 C 0.69951 0.55398 0.32607 0.0
H718 H 0.41292 0.68232 0.29496 0.0
H719 H 0.14818 0.43042 0.3638 0.0
Co720 Co 0.56091 0.06104 0.07875 0.0
C721 C 0.52724 1.0439 0.0283 0.0
Co722 Co 0.56169 1.0126 0.0753 0.0
C723 C 0.65132 0.12307 0.0723 0.0
C724 C 0.43978 0.11442 0.10292 0.0
N725 N 0.55387 0.10109 0.08458 0.0
N726 N 0.60132 0.14943 0.08234 0.0
C727 C 0.4686 0.14421 0.1016 0.0
H728 H 0.75518 0.11974 0.05632 0.0
H729 H 0.34097 0.10314 0.11641 0.0
C730 C 0.60895 1.03062 0.12546 0.0
N731 N 0.55555 0.97225 0.07066 0.0
C732 C 0.42028 0.95343 0.08137 0.0
C733 C 0.67075 0.95562 0.05474 0.0
N734 N 0.44535 0.92589 0.07257 0.0
C735 C 0.60334 0.92697 0.05589 0.0
C736 C 0.94953 1.03702 0.07606 0.0
O737 O 0.58535 0.05529 0.11457 0.0
O738 O 0.58918 1.00732 0.11218 0.0
O739 O 0.85252 1.013 0.07367 0.0
O740 O 0.85254 0.06116 0.07735 0.0
O741 O 0.53861 1.01849 0.03849 0.0
H742 H 0.79242 0.96391 0.0426 0.0
H743 H 0.30331 0.95996 0.09497 0.0
O744 O 0.54029 0.06652 0.04257 0.0
O745 O 0.26994 0.06063 0.08005 0.0
O746 O 0.26969 1.01278 0.0769 0.0
C747 C 0.1725 1.03678 0.07788 0.0
H748 H 0.39826 0.16058 0.11381 0.0
H749 H 0.66286 0.90868 0.04495 0.0
Co750 Co 0.71008 0.26571 0.07577 0.0
C751 C 0.74445 0.29467 0.02819 0.0
Co752 Co 0.71151 0.31428 0.07791 0.0
C753 C 0.61564 0.20356 0.08318 0.0
C754 C 0.84792 0.21162 0.0549 0.0
N755 N 0.72013 0.22535 0.07151 0.0
N756 N 0.6743 0.17701 0.07434 0.0
C757 C 0.81994 0.1819 0.05656 0.0
H758 H 0.50021 0.20716 0.09781 0.0
H759 H 0.9565 0.22257 0.04244 0.0
C760 C 0.66529 0.28575 0.12549 0.0
N761 N 0.71539 0.35482 0.08123 0.0
C762 C 0.85517 0.37337 0.07105 0.0
C763 C 0.59139 0.37194 0.09563 0.0
N764 N 0.82407 0.40122 0.07874 0.0
C765 C 0.65797 0.40058 0.09415 0.0
C766 C 0.3224 0.28994 0.0757 0.0
O767 O 0.68571 0.26209 0.11266 0.0
O768 O 0.68876 0.31029 0.11423 0.0
O769 O 0.41988 0.31408 0.07607 0.0
O770 O 0.41873 0.26579 0.07385 0.0
O771 O 0.73112 0.31789 0.04157 0.0
H772 H 0.46366 0.364 0.10695 0.0
H773 H 0.9798 0.36644 0.05873 0.0
O774 O 0.72977 0.26992 0.03917 0.0
O775 O 1.00185 0.26599 0.07777 0.0
O776 O 1.00321 0.31393 0.07977 0.0
C777 C 0.09976 0.28995 0.07802 0.0
H778 H 0.90157 0.16532 0.04577 0.0
H779 H 0.59108 0.41924 0.10387 0.0
Co780 Co 0.56405 0.26571 0.20274 0.0
C781 C 0.52969 0.29467 0.25032 0.0
Co782 Co 0.56263 0.31428 0.2006 0.0
C783 C 0.65853 0.20356 0.19533 0.0
C784 C 0.42615 0.21163 0.2236 0.0
N785 N 0.55399 0.22535 0.20699 0.0
N786 N 0.59987 0.17701 0.20418 0.0
C787 C 0.45415 0.1819 0.22195 0.0
H788 H 0.77399 0.20716 0.18071 0.0
H789 H 0.31753 0.22257 0.23606 0.0
C790 C 0.60885 0.28575 0.15302 0.0
N791 N 0.55877 0.35482 0.19729 0.0
C792 C 0.41897 0.37338 0.20747 0.0
C793 C 0.68279 0.37194 0.18289 0.0
N794 N 0.45007 0.40122 0.19977 0.0
C795 C 0.61621 0.40058 0.18437 0.0
C796 C 0.95174 0.28994 0.20281 0.0
O797 O 0.58842 0.26209 0.16585 0.0
O798 O 0.58538 0.31029 0.16428 0.0
O799 O 0.85426 0.31408 0.20244 0.0
O800 O 0.8554 0.26579 0.20466 0.0
O801 O 0.54302 0.31789 0.23695 0.0
H802 H 0.81054 0.364 0.17158 0.0
H803 H 0.29431 0.36644 0.21978 0.0
O804 O 0.54436 0.26993 0.23934 0.0
O805 O 0.27228 0.26599 0.20073 0.0
O806 O 0.27093 0.31393 0.19874 0.0
C807 C 0.17438 0.28995 0.20049 0.0
H808 H 0.37249 0.16532 0.23273 0.0
H809 H 0.68311 0.41923 0.17465 0.0
Co810 Co 0.71323 0.06105 0.19976 0.0
C811 C 0.7469 1.0439 0.25021 0.0
Co812 Co 0.71244 1.0126 0.20321 0.0
C813 C 0.62282 0.12307 0.20621 0.0
C814 C 0.83441 0.11442 0.17559 0.0
N815 N 0.72028 0.10109 0.19394 0.0
N816 N 0.67284 0.14943 0.19618 0.0
C817 C 0.80558 0.1442 0.17692 0.0
H818 H 0.51895 0.11974 0.2222 0.0
H819 H 0.93323 0.10314 0.16211 0.0
C820 C 0.66519 1.03062 0.15305 0.0
N821 N 0.71856 0.97225 0.20785 0.0
C822 C 0.85386 0.95343 0.19713 0.0
C823 C 0.60334 0.95562 0.22376 0.0
N824 N 0.82877 0.92589 0.20594 0.0
C825 C 0.67076 0.92697 0.22261 0.0
C826 C 0.32461 1.03702 0.20245 0.0
O827 O 0.6888 0.05529 0.16394 0.0
O828 O 0.68495 1.00732 0.16633 0.0
O829 O 0.42161 1.013 0.20484 0.0
O830 O 0.42161 0.06117 0.20116 0.0
O831 O 0.73552 1.01849 0.24002 0.0
H832 H 0.48166 0.96391 0.2359 0.0
H833 H 0.97085 0.95996 0.18354 0.0
O834 O 0.73385 0.06652 0.23595 0.0
O835 O 1.0042 0.06063 0.19846 0.0
O836 O 1.00444 1.01278 0.20161 0.0
C837 C 0.10164 1.03678 0.20063 0.0
H838 H 0.87595 0.16057 0.16471 0.0
H839 H 0.61121 0.90868 0.23355 0.0
Co840 Co 0.46246 0.07839 0.95321 0.0
C841 C 0.41521 0.06037 0.90305 0.0
Co842 Co 0.46324 1.02995 0.94976 0.0
C843 C 0.60388 0.13756 0.94714 0.0
C844 C 0.35341 0.13538 0.97377 0.0
N845 N 0.4686 0.11874 0.95785 0.0
N846 N 0.57881 0.1651 0.95594 0.0
C847 C 0.42082 0.16403 0.97262 0.0
H848 H 0.72085 0.13103 0.93354 0.0
H849 H 0.23174 0.12708 0.98591 0.0
C850 C 0.49691 0.0471 1.00021 0.0
N851 N 0.47028 0.9899 0.94394 0.0
C852 C 0.37283 0.96792 0.95621 0.0
C853 C 0.58438 0.97657 0.92559 0.0
N854 N 0.42284 0.94157 0.94617 0.0
C855 C 0.55555 0.94679 0.92691 0.0
C856 C 0.85166 0.05421 0.95063 0.0
O857 O 0.48554 0.0725 0.99002 0.0
O858 O 0.48386 1.02448 0.98595 0.0
O859 O 0.75421 1.03036 0.94846 0.0
O860 O 0.75446 0.07821 0.95161 0.0
O861 O 0.43881 1.03571 0.91394 0.0
H862 H 0.68318 0.98785 0.9121 0.0
H863 H 0.26898 0.97125 0.9722 0.0
O864 O 0.43498 0.08367 0.91633 0.0
O865 O 0.17164 0.07799 0.95484 0.0
O866 O 0.17162 1.02983 0.95116 0.0
C867 C 0.07463 0.05398 0.95245 0.0
H868 H 0.36129 0.18232 0.98356 0.0
H869 H 0.62589 0.93042 0.9147 0.0
Co870 Co 0.31264 0.77671 0.9506 0.0
C871 C 0.35887 0.80525 0.90302 0.0
Co872 Co 0.31407 0.82529 0.95275 0.0
C873 C 0.16899 0.71762 0.95746 0.0
C874 C 0.43277 0.71906 0.93288 0.0
N875 N 0.30877 0.73617 0.94728 0.0
N876 N 0.20008 0.68978 0.94977 0.0
C877 C 0.36619 0.69041 0.93436 0.0
H878 H 0.04435 0.72456 0.96978 0.0
H879 H 0.5605 0.72699 0.92156 0.0
C880 C 0.2797 0.79632 1.00032 0.0
N881 N 0.30403 0.86564 0.957 0.0
C882 C 0.40851 0.88743 0.94533 0.0
C883 C 0.17623 0.87937 0.97361 0.0
N884 N 0.34985 0.91399 0.95418 0.0
C885 C 0.20421 0.90909 0.97195 0.0
C886 C 0.92439 0.80105 0.95049 0.0
O887 O 0.29303 0.7731 0.98694 0.0
O888 O 0.29438 0.82107 0.98934 0.0
O889 O 0.02231 0.82501 0.95074 0.0
O890 O 0.02094 0.77706 0.94874 0.0
O891 O 0.33844 0.8289 0.91585 0.0
H892 H 0.06765 0.86842 0.98608 0.0
H893 H 0.52394 0.88383 0.9307 0.0
O894 O 0.33539 0.7807 0.91428 0.0
O895 O 0.60427 0.77691 0.95244 0.0
O896 O 0.60542 0.8252 0.95466 0.0
C897 C 0.70176 0.80105 0.95281 0.0
H898 H 0.43307 0.67176 0.92464 0.0
H899 H 0.12258 0.92568 0.98274 0.0
Co900 Co 0.46153 0.77671 0.82791 0.0
C901 C 0.41531 0.80525 0.87549 0.0
Co902 Co 0.46011 0.82529 0.82577 0.0
C903 C 0.60519 0.71762 0.82105 0.0
C904 C 0.34136 0.71906 0.84562 0.0
N905 N 0.46539 0.73617 0.83122 0.0
N906 N 0.57408 0.68978 0.82874 0.0
C907 C 0.40795 0.69041 0.84414 0.0
H908 H 0.72984 0.72455 0.80873 0.0
H909 H 0.21362 0.72699 0.85694 0.0
C910 C 0.49447 0.79632 0.77819 0.0
N911 N 0.47016 0.86564 0.82152 0.0
C912 C 0.36563 0.88743 0.83318 0.0
C913 C 0.598 0.87937 0.80491 0.0
N914 N 0.42429 0.91399 0.82433 0.0
C915 C 0.57 0.90909 0.80657 0.0
C916 C 0.84978 0.80105 0.82802 0.0
O917 O 0.48113 0.7731 0.79157 0.0
O918 O 0.47979 0.82107 0.78918 0.0
O919 O 0.75187 0.82501 0.82778 0.0
O920 O 0.75322 0.77706 0.82977 0.0
O921 O 0.43573 0.8289 0.86266 0.0
H922 H 0.70662 0.86842 0.79245 0.0
H923 H 0.25017 0.88384 0.8478 0.0
O924 O 0.43878 0.7807 0.86423 0.0
O925 O 0.16989 0.77691 0.82607 0.0
O926 O 0.16875 0.8252 0.82385 0.0
C927 C 0.07242 0.80105 0.8257 0.0
H928 H 0.34105 0.67176 0.85386 0.0
H929 H 0.65166 0.92567 0.79578 0.0
Co930 Co 0.31172 0.07839 0.82531 0.0
C931 C 0.35896 0.06037 0.87546 0.0
Co932 Co 0.31092 1.02995 0.82875 0.0
C933 C 0.1703 0.13756 0.83138 0.0
C934 C 0.42081 0.13537 0.80475 0.0
N935 N 0.30559 0.11874 0.82066 0.0
N936 N 0.19538 0.1651 0.82258 0.0
C937 C 0.3534 0.16402 0.8059 0.0
H938 H 0.0533 0.13103 0.84497 0.0
H939 H 0.5425 0.12708 0.79261 0.0
C940 C 0.27726 0.0471 0.7783 0.0
N941 N 0.30387 0.9899 0.83457 0.0
C942 C 0.40133 0.96792 0.8223 0.0
C943 C 0.18975 0.97658 0.85292 0.0
N944 N 0.35132 0.94157 0.83234 0.0
C945 C 0.21857 0.94679 0.85159 0.0
C946 C 0.92251 0.05421 0.82788 0.0
O947 O 0.28863 0.0725 0.7885 0.0
O948 O 0.2903 1.02448 0.79256 0.0
O949 O 0.01995 1.03036 0.83005 0.0
O950 O 0.01971 0.07821 0.82691 0.0
O951 O 0.33536 1.03571 0.86457 0.0
H952 H 0.09092 0.98785 0.8664 0.0
H953 H 0.50521 0.97125 0.80632 0.0
O954 O 0.3392 0.08367 0.86219 0.0
O955 O 0.60254 0.07799 0.82367 0.0
O956 O 0.60255 1.02983 0.82735 0.0
C957 C 0.69954 0.05398 0.82607 0.0
H958 H 0.41294 0.18232 0.79496 0.0
H959 H 0.14821 0.93042 0.8638 0.0
loop_
_geom_bond_atom_site_label_1
_geom_bond_atom_site_label_2
_geom_bond_distance
_geom_bond_site_symmetry_2
_ccdc_geom_bond_type
Co0 N5 2.057 . S
Co0 O17 2.021 . S
Co0 O20 2.062 . S
Co0 O24 2.117 . S
Co0 O25 2.020 1_455 S
C1 O21 1.260 . S
C1 O24 1.259 . S
Co2 N11 2.057 . S
Co2 O18 2.117 . S
Co2 O19 2.020 . S
Co2 O21 2.021 . S
Co2 O26 2.062 1_455 S
C3 N5 1.316 . S
C3 N6 1.347 . S
C3 H8 0.931 . S
C4 N5 1.375 . S
C4 C7 1.350 . S
C4 H9 0.930 1_455 S
N5 Co0 2.057 . S
N5 C3 1.316 . S
N5 C4 1.375 . S
N6 C3 1.347 . S
N6 C7 1.373 . S
C7 C4 1.350 . S
C7 N6 1.373 . S
C7 H28 0.931 . S
H8 C3 0.931 . S
H9 C4 0.930 1_655 S
C10 O17 1.259 . S
C10 O18 1.258 . S
N11 Co2 2.057 . S
N11 C12 1.316 1_455 S
N11 C13 1.375 . S
C12 N11 1.316 1_655 S
C12 N14 1.347 . S
C12 H23 0.931 . S
C13 N11 1.375 . S
C13 C15 1.350 1_455 S
C13 H22 0.930 . S
N14 C12 1.347 . S
N14 C15 1.373 . S
C15 C13 1.350 1_655 S
C15 N14 1.373 . S
C15 H29 0.931 . S
C16 O19 1.256 . S
C16 O20 1.255 . S
O17 Co0 2.021 . S
O17 C10 1.259 . S
O18 Co2 2.117 . S
O18 C10 1.258 . S
O19 Co2 2.020 . S
O19 C16 1.256 . S
O20 Co0 2.062 . S
O20 C16 1.255 . S
O21 C1 1.260 . S
O21 Co2 2.021 . S
H22 C13 0.930 . S
H23 C12 0.931 . S
O24 Co0 2.117 . S
O24 C1 1.259 . S
O25 Co0 2.020 1_655 S
O25 C27 1.256 . S
O26 Co2 2.062 1_655 S
O26 C27 1.255 . S
C27 O25 1.256 . S
C27 O26 1.255 . S
H28 C7 0.931 . S
H29 C15 0.931 . S
Co30 N35 2.057 . S
Co30 O47 2.021 . S
Co30 O50 2.062 1_455 S
Co30 O54 2.117 . S
Co30 O55 2.020 . S
C31 O51 1.259 . S
C31 O54 1.258 . S
Co32 N41 2.057 . S
Co32 O48 2.117 . S
Co32 O49 2.020 1_455 S
Co32 O51 2.021 . S
Co32 O56 2.062 . S
C33 N35 1.316 . S
C33 N36 1.347 . S
C33 H38 0.931 . S
C34 N35 1.375 . S
C34 C37 1.350 . S
C34 H39 0.930 . S
N35 Co30 2.057 . S
N35 C33 1.316 . S
N35 C34 1.375 . S
N36 C33 1.347 . S
N36 C37 1.373 . S
C37 C34 1.350 . S
C37 N36 1.373 . S
C37 H58 0.931 . S
H38 C33 0.931 . S
H39 C34 0.930 . S
C40 O47 1.259 . S
C40 O48 1.258 . S
N41 Co32 2.057 . S
N41 C42 1.316 . S
N41 C43 1.375 . S
C42 N41 1.316 . S
C42 N44 1.347 . S
C42 H53 0.931 . S
C43 N41 1.375 . S
C43 C45 1.350 . S
C43 H52 0.930 . S
N44 C42 1.347 . S
N44 C45 1.373 . S
C45 C43 1.350 . S
C45 N44 1.373 . S
C45 H59 0.931 . S
C46 O49 1.256 . S
C46 O50 1.255 . S
O47 Co30 2.021 . S
O47 C40 1.259 . S
O48 Co32 2.117 . S
O48 C40 1.258 . S
O49 Co32 2.020 1_655 S
O49 C46 1.256 . S
O50 Co30 2.062 1_655 S
O50 C46 1.255 . S
O51 C31 1.259 . S
O51 Co32 2.021 . S
H52 C43 0.930 . S
H53 C42 0.931 . S
O54 Co30 2.117 . S
O54 C31 1.258 . S
O55 Co30 2.020 . S
O55 C57 1.256 . S
O56 Co32 2.062 . S
O56 C57 1.255 . S
C57 O55 1.256 . S
C57 O56 1.255 . S
H58 C37 0.931 . S
H59 C45 0.931 . S
Co60 N65 2.057 . S
Co60 O77 2.021 . S
Co60 O80 2.062 . S
Co60 O84 2.117 . S
Co60 O85 2.020 1_455 S
C61 O81 1.259 . S
C61 O84 1.258 . S
Co62 N71 2.057 . S
Co62 O78 2.117 . S
Co62 O79 2.020 . S
Co62 O81 2.021 . S
Co62 O86 2.062 1_455 S
C63 N65 1.316 . S
C63 N66 1.347 . S
C63 H68 0.931 . S
C64 N65 1.375 . S
C64 C67 1.350 . S
C64 H69 0.930 1_455 S
N65 Co60 2.057 . S
N65 C63 1.316 . S
N65 C64 1.375 . S
N66 C63 1.347 . S
N66 C67 1.373 . S
C67 C64 1.350 . S
C67 N66 1.373 . S
C67 H88 0.931 . S
H68 C63 0.931 . S
H69 C64 0.930 1_655 S
C70 O77 1.259 . S
C70 O78 1.258 . S
N71 Co62 2.057 . S
N71 C72 1.316 1_455 S
N71 C73 1.375 . S
C72 N71 1.316 1_655 S
C72 N74 1.347 . S
C72 H83 0.931 . S
C73 N71 1.375 . S
C73 C75 1.350 1_455 S
C73 H82 0.930 . S
N74 C72 1.347 . S
N74 C75 1.373 . S
C75 C73 1.350 1_655 S
C75 N74 1.373 . S
C75 H89 0.931 . S
C76 O79 1.256 . S
C76 O80 1.255 . S
O77 Co60 2.021 . S
O77 C70 1.259 . S
O78 Co62 2.117 . S
O78 C70 1.258 . S
O79 Co62 2.020 . S
O79 C76 1.256 . S
O80 Co60 2.062 . S
O80 C76 1.255 . S
O81 C61 1.259 . S
O81 Co62 2.021 . S
H82 C73 0.930 . S
H83 C72 0.931 . S
O84 Co60 2.117 . S
O84 C61 1.258 . S
O85 Co60 2.020 1_655 S
O85 C87 1.256 . S
O86 Co62 2.062 1_655 S
O86 C87 1.255 . S
C87 O85 1.256 . S
C87 O86 1.255 . S
H88 C67 0.931 . S
H89 C75 0.931 . S
Co90 N95 2.057 . S
Co90 O107 2.021 . S
Co90 O110 2.062 1_455 S
Co90 O114 2.117 . S
Co90 O115 2.020 . S
C91 O111 1.259 . S
C91 O114 1.258 . S
Co92 N101 2.057 . S
Co92 O108 2.117 . S
Co92 O109 2.020 1_455 S
Co92 O111 2.021 . S
Co92 O116 2.062 . S
C93 N95 1.316 . S
C93 N96 1.347 . S
C93 H98 0.931 . S
C94 N95 1.375 . S
C94 C97 1.350 . S
C94 H99 0.930 . S
N95 Co90 2.057 . S
N95 C93 1.316 . S
N95 C94 1.375 . S
N96 C93 1.347 . S
N96 C97 1.373 . S
C97 C94 1.350 . S
C97 N96 1.373 . S
C97 H118 0.931 . S
H98 C93 0.931 . S
H99 C94 0.930 . S
C100 O107 1.259 . S
C100 O108 1.258 . S
N101 Co92 2.057 . S
N101 C102 1.316 . S
N101 C103 1.375 . S
C102 N101 1.316 . S
C102 N104 1.347 . S
C102 H113 0.931 . S
C103 N101 1.375 . S
C103 C105 1.350 . S
C103 H112 0.930 . S
N104 C102 1.347 . S
N104 C105 1.373 . S
C105 C103 1.350 . S
C105 N104 1.373 . S
C105 H119 0.931 . S
C106 O109 1.256 . S
C106 O110 1.255 . S
O107 Co90 2.021 . S
O107 C100 1.259 . S
O108 Co92 2.117 . S
O108 C100 1.258 . S
O109 Co92 2.020 1_655 S
O109 C106 1.256 . S
O110 Co90 2.062 1_655 S
O110 C106 1.255 . S
O111 C91 1.259 . S
O111 Co92 2.021 . S
H112 C103 0.930 . S
H113 C102 0.931 . S
O114 Co90 2.117 . S
O114 C91 1.258 . S
O115 Co90 2.020 . S
O115 C117 1.256 . S
O116 Co92 2.062 . S
O116 C117 1.255 . S
C117 O115 1.256 . S
C117 O116 1.255 . S
H118 C97 0.931 . S
H119 C105 0.931 . S
Co120 N125 2.057 . S
Co120 O137 2.021 . S
Co120 O140 2.062 1_655 S
Co120 O144 2.117 . S
Co120 O145 2.020 . S
C121 O141 1.259 . S
C121 O144 1.258 . S
Co122 N131 2.057 . S
Co122 O138 2.117 . S
Co122 O139 2.020 1_655 S
Co122 O141 2.021 . S
Co122 O146 2.062 . S
C123 N125 1.316 1_455 S
C123 N126 1.347 . S
C123 H128 0.931 . S
C124 N125 1.375 . S
C124 C127 1.350 1_655 S
C124 H129 0.930 . S
N125 Co120 2.057 . S
N125 C123 1.316 1_655 S
N125 C124 1.375 . S
N126 C123 1.347 . S
N126 C127 1.373 . S
C127 C124 1.350 1_455 S
C127 N126 1.373 . S
C127 H148 0.931 . S
H128 C123 0.931 . S
H129 C124 0.930 . S
C130 O137 1.260 . S
C130 O138 1.259 . S
N131 Co122 2.057 . S
N131 C132 1.316 . S
N131 C133 1.375 . S
C132 N131 1.316 . S
C132 N134 1.347 . S
C132 H143 0.931 . S
C133 N131 1.375 . S
C133 C135 1.350 . S
C133 H142 0.930 1_655 S
N134 C132 1.347 . S
N134 C135 1.373 . S
C135 C133 1.350 . S
C135 N134 1.373 . S
C135 H149 0.931 . S
C136 O139 1.256 . S
C136 O140 1.255 . S
O137 Co120 2.021 . S
O137 C130 1.260 . S
O138 Co122 2.117 . S
O138 C130 1.259 . S
O139 Co122 2.020 1_455 S
O139 C136 1.256 . S
O140 Co120 2.062 1_455 S
O140 C136 1.255 . S
O141 C121 1.259 . S
O141 Co122 2.021 . S
H142 C133 0.930 1_455 S
H143 C132 0.931 . S
O144 Co120 2.117 . S
O144 C121 1.258 . S
O145 Co120 2.020 . S
O145 C147 1.256 . S
O146 Co122 2.062 . S
O146 C147 1.255 . S
C147 O145 1.256 . S
C147 O146 1.255 . S
H148 C127 0.931 . S
H149 C135 0.931 . S
Co150 N155 2.057 . S
Co150 O167 2.021 . S
Co150 O170 2.062 . S
Co150 O174 2.117 . S
Co150 O175 2.020 1_655 S
C151 O171 1.259 . S
C151 O174 1.258 . S
Co152 N161 2.057 . S
Co152 O168 2.117 . S
Co152 O169 2.020 . S
Co152 O171 2.021 . S
Co152 O176 2.062 1_655 S
C153 N155 1.316 . S
C153 N156 1.347 . S
C153 H158 0.931 . S
C154 N155 1.375 . S
C154 C157 1.350 . S
C154 H159 0.930 . S
N155 Co150 2.057 . S
N155 C153 1.316 . S
N155 C154 1.375 . S
N156 C153 1.347 . S
N156 C157 1.373 . S
C157 C154 1.350 . S
C157 N156 1.373 . S
C157 H178 0.931 . S
H158 C153 0.931 . S
H159 C154 0.930 . S
C160 O167 1.259 . S
C160 O168 1.258 . S
N161 Co152 2.057 . S
N161 C162 1.316 . S
N161 C163 1.375 . S
C162 N161 1.316 . S
C162 N164 1.347 . S
C162 H173 0.931 . S
C163 N161 1.375 . S
C163 C165 1.350 . S
C163 H172 0.930 . S
N164 C162 1.347 . S
N164 C165 1.373 . S
C165 C163 1.350 . S
C165 N164 1.373 . S
C165 H179 0.931 . S
C166 O169 1.256 . S
C166 O170 1.255 . S
O167 Co150 2.021 . S
O167 C160 1.259 . S
O168 Co152 2.117 . S
O168 C160 1.258 . S
O169 Co152 2.020 . S
O169 C166 1.256 . S
O170 Co150 2.062 . S
O170 C166 1.255 . S
O171 C151 1.259 . S
O171 Co152 2.021 . S
H172 C163 0.930 . S
H173 C162 0.931 . S
O174 Co150 2.117 . S
O174 C151 1.258 . S
O175 Co150 2.020 1_455 S
O175 C177 1.256 . S
O176 Co152 2.062 1_455 S
O176 C177 1.255 . S
C177 O175 1.256 . S
C177 O176 1.255 . S
H178 C157 0.931 . S
H179 C165 0.931 . S
Co180 N185 2.057 . S
Co180 O197 2.021 . S
Co180 O200 2.062 1_655 S
Co180 O204 2.117 . S
Co180 O205 2.020 . S
C181 O201 1.259 . S
C181 O204 1.258 . S
Co182 N191 2.057 . S
Co182 O198 2.117 . S
Co182 O199 2.020 1_655 S
Co182 O201 2.021 . S
Co182 O206 2.062 . S
C183 N185 1.316 1_455 S
C183 N186 1.347 . S
C183 H188 0.931 . S
C184 N185 1.375 . S
C184 C187 1.350 1_655 S
C184 H189 0.930 . S
N185 Co180 2.057 . S
N185 C183 1.316 1_655 S
N185 C184 1.375 . S
N186 C183 1.347 . S
N186 C187 1.373 . S
C187 C184 1.350 1_455 S
C187 N186 1.373 . S
C187 H208 0.931 . S
H188 C183 0.931 . S
H189 C184 0.930 . S
C190 O197 1.259 . S
C190 O198 1.258 . S
N191 Co182 2.057 . S
N191 C192 1.316 . S
N191 C193 1.375 . S
C192 N191 1.316 . S
C192 N194 1.347 . S
C192 H203 0.931 . S
C193 N191 1.375 . S
C193 C195 1.350 . S
C193 H202 0.930 1_655 S
N194 C192 1.347 . S
N194 C195 1.373 . S
C195 C193 1.350 . S
C195 N194 1.373 . S
C195 H209 0.931 . S
C196 O199 1.256 . S
C196 O200 1.255 . S
O197 Co180 2.021 . S
O197 C190 1.259 . S
O198 Co182 2.117 . S
O198 C190 1.258 . S
O199 Co182 2.020 1_455 S
O199 C196 1.256 . S
O200 Co180 2.062 1_455 S
O200 C196 1.255 . S
O201 C181 1.259 . S
O201 Co182 2.021 . S
H202 C193 0.930 1_455 S
H203 C192 0.931 . S
O204 Co180 2.117 . S
O204 C181 1.258 . S
O205 Co180 2.020 . S
O205 C207 1.256 . S
O206 Co182 2.062 . S
O206 C207 1.255 . S
C207 O205 1.256 . S
C207 O206 1.255 . S
H208 C187 0.931 . S
H209 C195 0.931 . S
Co210 N215 2.057 . S
Co210 O227 2.021 . S
Co210 O230 2.062 . S
Co210 O234 2.117 . S
Co210 O235 2.020 1_655 S
C211 O231 1.259 . S
C211 O234 1.258 . S
Co212 N221 2.057 . S
Co212 O228 2.117 . S
Co212 O229 2.020 . S
Co212 O231 2.021 . S
Co212 O236 2.062 1_655 S
C213 N215 1.316 . S
C213 N216 1.347 . S
C213 H218 0.931 . S
C214 N215 1.375 . S
C214 C217 1.350 . S
C214 H219 0.930 . S
N215 Co210 2.057 . S
N215 C213 1.316 . S
N215 C214 1.375 . S
N216 C213 1.347 . S
N216 C217 1.373 . S
C217 C214 1.350 . S
C217 N216 1.373 . S
C217 H238 0.931 . S
H218 C213 0.931 . S
H219 C214 0.930 . S
C220 O227 1.259 . S
C220 O228 1.258 . S
N221 Co212 2.057 . S
N221 C222 1.316 . S
N221 C223 1.375 . S
C222 N221 1.316 . S
C222 N224 1.347 . S
C222 H233 0.931 . S
C223 N221 1.375 . S
C223 C225 1.350 . S
C223 H232 0.930 . S
N224 C222 1.347 . S
N224 C225 1.373 . S
C225 C223 1.350 . S
C225 N224 1.373 . S
C225 H239 0.931 . S
C226 O229 1.256 . S
C226 O230 1.255 . S
O227 Co210 2.021 . S
O227 C220 1.259 . S
O228 Co212 2.117 . S
O228 C220 1.258 . S
O229 Co212 2.020 . S
O229 C226 1.256 . S
O230 Co210 2.062 . S
O230 C226 1.255 . S
O231 C211 1.259 . S
O231 Co212 2.021 . S
H232 C223 0.930 . S
H233 C222 0.931 . S
O234 Co210 2.117 . S
O234 C211 1.258 . S
O235 Co210 2.020 1_455 S
O235 C237 1.256 . S
O236 Co212 2.062 1_455 S
O236 C237 1.255 . S
C237 O235 1.256 . S
C237 O236 1.255 . S
H238 C217 0.931 . S
H239 C225 0.931 . S
Co240 N245 2.057 . S
Co240 O257 2.021 . S
Co240 O260 2.062 . S
Co240 O264 2.117 . S
Co240 O265 2.020 1_455 S
C241 O261 1.259 . S
C241 O264 1.258 1_565 S
Co242 N251 2.057 . S
Co242 O258 2.117 . S
Co242 O259 2.020 . S
Co242 O261 2.021 . S
Co242 O266 2.062 1_455 S
C243 N245 1.316 . S
C243 N246 1.347 . S
C243 H248 0.931 . S
C244 N245 1.375 . S
C244 C247 1.350 . S
C244 H249 0.930 1_455 S
N245 Co240 2.057 . S
N245 C243 1.316 . S
N245 C244 1.375 . S
N246 C243 1.347 . S
N246 C247 1.373 . S
C247 C244 1.350 . S
C247 N246 1.373 . S
C247 H268 0.931 . S
H248 C243 0.931 . S
H249 C244 0.930 1_655 S
C250 O257 1.259 . S
C250 O258 1.258 1_545 S
N251 Co242 2.057 . S
N251 C252 1.316 1_455 S
N251 C253 1.375 . S
C252 N251 1.316 1_655 S
C252 N254 1.347 . S
C252 H263 0.931 . S
C253 N251 1.375 . S
C253 C255 1.350 1_455 S
C253 H262 0.930 . S
N254 C252 1.347 . S
N254 C255 1.373 . S
C255 C253 1.350 1_655 S
C255 N254 1.373 . S
C255 H269 0.931 . S
C256 O259 1.250 1_545 S
C256 O260 1.260 . S
O257 Co240 2.021 . S
O257 C250 1.259 . S
O258 Co242 2.117 . S
O258 C250 1.258 1_565 S
O259 Co242 2.020 . S
O259 C256 1.250 1_565 S
O260 Co240 2.062 . S
O260 C256 1.260 . S
O261 C241 1.259 . S
O261 Co242 2.021 . S
H262 C253 0.930 . S
H263 C252 0.931 . S
O264 Co240 2.117 . S
O264 C241 1.258 1_545 S
O265 Co240 2.020 1_655 S
O265 C267 1.242 1_545 S
O266 Co242 2.062 1_655 S
O266 C267 1.268 . S
C267 O265 1.242 1_565 S
C267 O266 1.268 . S
H268 C247 0.931 . S
H269 C255 0.931 . S
Co270 N275 2.057 . S
Co270 O287 2.021 . S
Co270 O290 2.062 1_455 S
Co270 O294 2.117 . S
Co270 O295 2.020 . S
C271 O291 1.259 . S
C271 O294 1.258 . S
Co272 N281 2.057 . S
Co272 O288 2.117 . S
Co272 O289 2.020 1_455 S
Co272 O291 2.021 . S
Co272 O296 2.062 . S
C273 N275 1.316 . S
C273 N276 1.347 . S
C273 H278 0.931 . S
C274 N275 1.375 . S
C274 C277 1.350 . S
C274 H279 0.930 . S
N275 Co270 2.057 . S
N275 C273 1.316 . S
N275 C274 1.375 . S
N276 C273 1.347 . S
N276 C277 1.373 . S
C277 C274 1.350 . S
C277 N276 1.373 . S
C277 H298 0.931 . S
H278 C273 0.931 . S
H279 C274 0.930 . S
C280 O287 1.259 . S
C280 O288 1.258 . S
N281 Co272 2.057 . S
N281 C282 1.316 . S
N281 C283 1.375 . S
C282 N281 1.316 . S
C282 N284 1.347 . S
C282 H293 0.931 . S
C283 N281 1.375 . S
C283 C285 1.350 . S
C283 H292 0.930 . S
N284 C282 1.347 . S
N284 C285 1.373 . S
C285 C283 1.350 . S
C285 N284 1.373 . S
C285 H299 0.931 . S
C286 O289 1.256 . S
C286 O290 1.255 . S
O287 Co270 2.021 . S
O287 C280 1.259 . S
O288 Co272 2.117 . S
O288 C280 1.258 . S
O289 Co272 2.020 1_655 S
O289 C286 1.256 . S
O290 Co270 2.062 1_655 S
O290 C286 1.255 . S
O291 C271 1.259 . S
O291 Co272 2.021 . S
H292 C283 0.930 . S
H293 C282 0.931 . S
O294 Co270 2.117 . S
O294 C271 1.258 . S
O295 Co270 2.020 . S
O295 C297 1.256 . S
O296 Co272 2.062 . S
O296 C297 1.255 . S
C297 O295 1.256 . S
C297 O296 1.255 . S
H298 C277 0.931 . S
H299 C285 0.931 . S
Co300 N305 2.057 . S
Co300 O317 2.021 . S
Co300 O320 2.062 . S
Co300 O324 2.117 . S
Co300 O325 2.020 1_455 S
C301 O321 1.259 . S
C301 O324 1.258 . S
Co302 N311 2.057 . S
Co302 O318 2.117 . S
Co302 O319 2.020 . S
Co302 O321 2.021 . S
Co302 O326 2.062 1_455 S
C303 N305 1.316 . S
C303 N306 1.347 . S
C303 H308 0.931 . S
C304 N305 1.375 . S
C304 C307 1.350 . S
C304 H309 0.930 1_455 S
N305 Co300 2.057 . S
N305 C303 1.316 . S
N305 C304 1.375 . S
N306 C303 1.347 . S
N306 C307 1.373 . S
C307 C304 1.350 . S
C307 N306 1.373 . S
C307 H328 0.931 . S
H308 C303 0.931 . S
H309 C304 0.930 1_655 S
C310 O317 1.259 . S
C310 O318 1.258 . S
N311 Co302 2.057 . S
N311 C312 1.316 1_455 S
N311 C313 1.375 . S
C312 N311 1.316 1_655 S
C312 N314 1.347 . S
C312 H323 0.931 . S
C313 N311 1.375 . S
C313 C315 1.350 1_455 S
C313 H322 0.930 . S
N314 C312 1.347 . S
N314 C315 1.373 . S
C315 C313 1.350 1_655 S
C315 N314 1.373 . S
C315 H329 0.931 . S
C316 O319 1.256 . S
C316 O320 1.255 . S
O317 Co300 2.021 . S
O317 C310 1.259 . S
O318 Co302 2.117 . S
O318 C310 1.258 . S
O319 Co302 2.020 . S
O319 C316 1.256 . S
O320 Co300 2.062 . S
O320 C316 1.255 . S
O321 C301 1.259 . S
O321 Co302 2.021 . S
H322 C313 0.930 . S
H323 C312 0.931 . S
O324 Co300 2.117 . S
O324 C301 1.258 . S
O325 Co300 2.020 1_655 S
O325 C327 1.256 . S
O326 Co302 2.062 1_655 S
O326 C327 1.255 . S
C327 O325 1.256 . S
C327 O326 1.255 . S
H328 C307 0.931 . S
H329 C315 0.931 . S
Co330 N335 2.057 . S
Co330 O347 2.021 . S
Co330 O350 2.062 1_455 S
Co330 O354 2.117 . S
Co330 O355 2.020 . S
C331 O351 1.259 . S
C331 O354 1.258 1_565 S
Co332 N341 2.057 . S
Co332 O348 2.117 . S
Co332 O349 2.020 1_455 S
Co332 O351 2.021 . S
Co332 O356 2.062 . S
C333 N335 1.316 . S
C333 N336 1.347 . S
C333 H338 0.931 . S
C334 N335 1.375 . S
C334 C337 1.350 . S
C334 H339 0.930 . S
N335 Co330 2.057 . S
N335 C333 1.316 . S
N335 C334 1.375 . S
N336 C333 1.347 . S
N336 C337 1.373 . S
C337 C334 1.350 . S
C337 N336 1.373 . S
C337 H358 0.931 . S
H338 C333 0.931 . S
H339 C334 0.930 . S
C340 O347 1.259 . S
C340 O348 1.258 1_545 S
N341 Co332 2.057 . S
N341 C342 1.316 . S
N341 C343 1.375 . S
C342 N341 1.316 . S
C342 N344 1.347 . S
C342 H353 0.931 . S
C343 N341 1.375 . S
C343 C345 1.350 . S
C343 H352 0.930 . S
N344 C342 1.347 . S
N344 C345 1.373 . S
C345 C343 1.350 . S
C345 N344 1.373 . S
C345 H359 0.931 . S
C346 O349 1.250 1_545 S
C346 O350 1.260 . S
O347 Co330 2.021 . S
O347 C340 1.259 . S
O348 Co332 2.117 . S
O348 C340 1.258 1_565 S
O349 Co332 2.020 1_655 S
O349 C346 1.250 1_565 S
O350 Co330 2.062 1_655 S
O350 C346 1.260 . S
O351 C331 1.259 . S
O351 Co332 2.021 . S
H352 C343 0.930 . S
H353 C342 0.931 . S
O354 Co330 2.117 . S
O354 C331 1.258 1_545 S
O355 Co330 2.020 . S
O355 C357 1.242 1_545 S
O356 Co332 2.062 . S
O356 C357 1.268 . S
C357 O355 1.242 1_565 S
C357 O356 1.268 . S
H358 C337 0.931 . S
H359 C345 0.931 . S
Co360 N365 2.057 . S
Co360 O377 2.021 . S
Co360 O380 2.062 1_655 S
Co360 O384 2.117 . S
Co360 O385 2.020 . S
C361 O381 1.259 . S
C361 O384 1.258 1_565 S
Co362 N371 2.057 . S
Co362 O378 2.117 . S
Co362 O379 2.020 1_655 S
Co362 O381 2.021 . S
Co362 O386 2.062 . S
C363 N365 1.316 1_455 S
C363 N366 1.347 . S
C363 H368 0.931 . S
C364 N365 1.375 . S
C364 C367 1.350 1_655 S
C364 H369 0.930 . S
N365 Co360 2.057 . S
N365 C363 1.316 1_655 S
N365 C364 1.375 . S
N366 C363 1.347 . S
N366 C367 1.373 . S
C367 C364 1.350 1_455 S
C367 N366 1.373 . S
C367 H388 0.931 . S
H368 C363 0.931 . S
H369 C364 0.930 . S
C370 O377 1.259 . S
C370 O378 1.258 1_545 S
N371 Co362 2.057 . S
N371 C372 1.316 . S
N371 C373 1.375 . S
C372 N371 1.316 . S
C372 N374 1.347 . S
C372 H383 0.931 . S
C373 N371 1.375 . S
C373 C375 1.350 . S
C373 H382 0.930 1_655 S
N374 C372 1.347 . S
N374 C375 1.373 . S
C375 C373 1.350 . S
C375 N374 1.373 . S
C375 H389 0.931 . S
C376 O379 1.242 1_545 S
C376 O380 1.268 . S
O377 Co360 2.021 . S
O377 C370 1.259 . S
O378 Co362 2.117 . S
O378 C370 1.258 1_565 S
O379 Co362 2.020 1_455 S
O379 C376 1.242 1_565 S
O380 Co360 2.062 1_455 S
O380 C376 1.268 . S
O381 C361 1.259 . S
O381 Co362 2.021 . S
H382 C373 0.930 1_455 S
H383 C372 0.931 . S
O384 Co360 2.117 . S
O384 C361 1.258 1_545 S
O385 Co360 2.020 . S
O385 C387 1.250 1_545 S
O386 Co362 2.062 . S
O386 C387 1.260 . S
C387 O385 1.250 1_565 S
C387 O386 1.260 . S
H388 C367 0.931 . S
H389 C375 0.931 . S
Co390 N395 2.057 . S
Co390 O407 2.021 . S
Co390 O410 2.062 . S
Co390 O414 2.117 . S
Co390 O415 2.020 1_655 S
C391 O411 1.259 . S
C391 O414 1.258 . S
Co392 N401 2.057 . S
Co392 O408 2.117 . S
Co392 O409 2.020 . S
Co392 O411 2.021 . S
Co392 O416 2.062 1_655 S
C393 N395 1.316 . S
C393 N396 1.347 . S
C393 H398 0.931 . S
C394 N395 1.375 . S
C394 C397 1.350 . S
C394 H399 0.930 . S
N395 Co390 2.057 . S
N395 C393 1.316 . S
N395 C394 1.375 . S
N396 C393 1.347 . S
N396 C397 1.373 . S
C397 C394 1.350 . S
C397 N396 1.373 . S
C397 H418 0.931 . S
H398 C393 0.931 . S
H399 C394 0.930 . S
C400 O407 1.259 . S
C400 O408 1.258 . S
N401 Co392 2.057 . S
N401 C402 1.316 . S
N401 C403 1.375 . S
C402 N401 1.316 . S
C402 N404 1.347 . S
C402 H413 0.931 . S
C403 N401 1.375 . S
C403 C405 1.350 . S
C403 H412 0.930 . S
N404 C402 1.347 . S
N404 C405 1.373 . S
C405 C403 1.350 . S
C405 N404 1.373 . S
C405 H419 0.931 . S
C406 O409 1.256 . S
C406 O410 1.255 . S
O407 Co390 2.021 . S
O407 C400 1.259 . S
O408 Co392 2.117 . S
O408 C400 1.258 . S
O409 Co392 2.020 . S
O409 C406 1.256 . S
O410 Co390 2.062 . S
O410 C406 1.255 . S
O411 C391 1.259 . S
O411 Co392 2.021 . S
H412 C403 0.930 . S
H413 C402 0.931 . S
O414 Co390 2.117 . S
O414 C391 1.258 . S
O415 Co390 2.020 1_455 S
O415 C417 1.256 . S
O416 Co392 2.062 1_455 S
O416 C417 1.255 . S
C417 O415 1.256 . S
C417 O416 1.255 . S
H418 C397 0.931 . S
H419 C405 0.931 . S
Co420 N425 2.057 . S
Co420 O437 2.021 . S
Co420 O440 2.062 1_655 S
Co420 O444 2.117 . S
Co420 O445 2.020 . S
C421 O441 1.259 . S
C421 O444 1.258 . S
Co422 N431 2.057 . S
Co422 O438 2.117 . S
Co422 O439 2.020 1_655 S
Co422 O441 2.021 . S
Co422 O446 2.062 . S
C423 N425 1.316 1_455 S
C423 N426 1.347 . S
C423 H428 0.931 . S
C424 N425 1.375 . S
C424 C427 1.350 1_655 S
C424 H429 0.930 . S
N425 Co420 2.057 . S
N425 C423 1.316 1_655 S
N425 C424 1.375 . S
N426 C423 1.347 . S
N426 C427 1.373 . S
C427 C424 1.350 1_455 S
C427 N426 1.373 . S
C427 H448 0.931 . S
H428 C423 0.931 . S
H429 C424 0.930 . S
C430 O437 1.259 . S
C430 O438 1.258 . S
N431 Co422 2.057 . S
N431 C432 1.316 . S
N431 C433 1.375 . S
C432 N431 1.316 . S
C432 N434 1.347 . S
C432 H443 0.931 . S
C433 N431 1.375 . S
C433 C435 1.350 . S
C433 H442 0.930 1_655 S
N434 C432 1.347 . S
N434 C435 1.373 . S
C435 C433 1.350 . S
C435 N434 1.373 . S
C435 H449 0.931 . S
C436 O439 1.256 . S
C436 O440 1.255 . S
O437 Co420 2.021 . S
O437 C430 1.259 . S
O438 Co422 2.117 . S
O438 C430 1.258 . S
O439 Co422 2.020 1_455 S
O439 C436 1.256 . S
O440 Co420 2.062 1_455 S
O440 C436 1.255 . S
O441 C421 1.259 . S
O441 Co422 2.021 . S
H442 C433 0.930 1_455 S
H443 C432 0.931 . S
O444 Co420 2.117 . S
O444 C421 1.258 . S
O445 Co420 2.020 . S
O445 C447 1.256 . S
O446 Co422 2.062 . S
O446 C447 1.255 . S
C447 O445 1.256 . S
C447 O446 1.255 . S
H448 C427 0.931 . S
H449 C435 0.931 . S
Co450 N455 2.057 . S
Co450 O467 2.021 . S
Co450 O470 2.062 . S
Co450 O474 2.117 . S
Co450 O475 2.020 1_655 S
C451 O471 1.259 . S
C451 O474 1.258 1_565 S
Co452 N461 2.057 . S
Co452 O468 2.117 . S
Co452 O469 2.020 . S
Co452 O471 2.021 . S
Co452 O476 2.062 1_655 S
C453 N455 1.316 . S
C453 N456 1.347 . S
C453 H458 0.931 . S
C454 N455 1.375 . S
C454 C457 1.350 . S
C454 H459 0.930 . S
N455 Co450 2.057 . S
N455 C453 1.316 . S
N455 C454 1.375 . S
N456 C453 1.347 . S
N456 C457 1.373 . S
C457 C454 1.350 . S
C457 N456 1.373 . S
C457 H478 0.931 . S
H458 C453 0.931 . S
H459 C454 0.930 . S
C460 O467 1.259 . S
C460 O468 1.258 1_545 S
N461 Co452 2.057 . S
N461 C462 1.316 . S
N461 C463 1.375 . S
C462 N461 1.316 . S
C462 N464 1.347 . S
C462 H473 0.931 . S
C463 N461 1.375 . S
C463 C465 1.350 . S
C463 H472 0.930 . S
N464 C462 1.347 . S
N464 C465 1.373 . S
C465 C463 1.350 . S
C465 N464 1.373 . S
C465 H479 0.931 . S
C466 O469 1.242 1_545 S
C466 O470 1.268 . S
O467 Co450 2.021 . S
O467 C460 1.259 . S
O468 Co452 2.117 . S
O468 C460 1.258 1_565 S
O469 Co452 2.020 . S
O469 C466 1.242 1_565 S
O470 Co450 2.062 . S
O470 C466 1.268 . S
O471 C451 1.259 . S
O471 Co452 2.021 . S
H472 C463 0.930 . S
H473 C462 0.931 . S
O474 Co450 2.117 . S
O474 C451 1.258 1_545 S
O475 Co450 2.020 1_455 S
O475 C477 1.250 1_545 S
O476 Co452 2.062 1_455 S
O476 C477 1.260 . S
C477 O475 1.250 1_565 S
C477 O476 1.260 . S
H478 C457 0.931 . S
H479 C465 0.931 . S
Co480 N485 2.057 . S
Co480 O497 2.021 . S
Co480 O500 2.062 . S
Co480 O504 2.117 . S
Co480 O505 2.020 . S
C481 O501 1.259 . S
C481 O504 1.258 . S
Co482 N491 2.057 . S
Co482 O498 2.117 . S
Co482 O499 2.020 . S
Co482 O501 2.021 . S
Co482 O506 2.062 . S
C483 N485 1.316 . S
C483 N486 1.347 . S
C483 H488 0.931 . S
C484 N485 1.375 . S
C484 C487 1.350 . S
C484 H489 0.930 . S
N485 Co480 2.057 . S
N485 C483 1.316 . S
N485 C484 1.375 . S
N486 C483 1.347 . S
N486 C487 1.373 . S
C487 C484 1.350 . S
C487 N486 1.373 . S
C487 H508 0.931 . S
H488 C483 0.931 . S
H489 C484 0.930 . S
C490 O497 1.259 . S
C490 O498 1.258 . S
N491 Co482 2.057 . S
N491 C492 1.316 . S
N491 C493 1.375 . S
C492 N491 1.316 . S
C492 N494 1.347 . S
C492 H503 0.931 . S
C493 N491 1.375 . S
C493 C495 1.350 . S
C493 H502 0.930 . S
N494 C492 1.347 . S
N494 C495 1.373 . S
C495 C493 1.350 . S
C495 N494 1.373 . S
C495 H509 0.931 . S
C496 O499 1.256 . S
C496 O500 1.255 . S
O497 Co480 2.021 . S
O497 C490 1.259 . S
O498 Co482 2.117 . S
O498 C490 1.258 . S
O499 Co482 2.020 . S
O499 C496 1.256 . S
O500 Co480 2.062 . S
O500 C496 1.255 . S
O501 C481 1.259 . S
O501 Co482 2.021 . S
H502 C493 0.930 . S
H503 C492 0.931 . S
O504 Co480 2.117 . S
O504 C481 1.258 . S
O505 Co480 2.020 . S
O505 C507 1.256 . S
O506 Co482 2.062 . S
O506 C507 1.255 . S
C507 O505 1.256 . S
C507 O506 1.255 . S
H508 C487 0.931 . S
H509 C495 0.931 . S
Co510 N515 2.057 . S
Co510 O527 2.021 . S
Co510 O530 2.062 . S
Co510 O534 2.117 . S
Co510 O535 2.020 1_655 S
C511 O531 1.259 . S
C511 O534 1.258 . S
Co512 N521 2.057 . S
Co512 O528 2.117 . S
Co512 O529 2.020 . S
Co512 O531 2.021 . S
Co512 O536 2.062 1_655 S
C513 N515 1.316 . S
C513 N516 1.347 . S
C513 H518 0.931 . S
C514 N515 1.375 . S
C514 C517 1.350 . S
C514 H519 0.930 . S
N515 Co510 2.057 . S
N515 C513 1.316 . S
N515 C514 1.375 . S
N516 C513 1.347 . S
N516 C517 1.373 . S
C517 C514 1.350 . S
C517 N516 1.373 . S
C517 H538 0.931 . S
H518 C513 0.931 . S
H519 C514 0.930 . S
C520 O527 1.259 . S
C520 O528 1.258 . S
N521 Co512 2.057 . S
N521 C522 1.316 . S
N521 C523 1.375 . S
C522 N521 1.316 . S
C522 N524 1.347 . S
C522 H533 0.931 . S
C523 N521 1.375 . S
C523 C525 1.350 . S
C523 H532 0.930 . S
N524 C522 1.347 . S
N524 C525 1.373 . S
C525 C523 1.350 . S
C525 N524 1.373 . S
C525 H539 0.931 . S
C526 O529 1.256 . S
C526 O530 1.255 . S
O527 Co510 2.021 . S
O527 C520 1.259 . S
O528 Co512 2.117 . S
O528 C520 1.258 . S
O529 Co512 2.020 . S
O529 C526 1.256 . S
O530 Co510 2.062 . S
O530 C526 1.255 . S
O531 C511 1.259 . S
O531 Co512 2.021 . S
H532 C523 0.930 . S
H533 C522 0.931 . S
O534 Co510 2.117 . S
O534 C511 1.258 . S
O535 Co510 2.020 1_455 S
O535 C537 1.256 . S
O536 Co512 2.062 1_455 S
O536 C537 1.255 . S
C537 O535 1.256 . S
C537 O536 1.255 . S
H538 C517 0.931 . S
H539 C525 0.931 . S
Co540 N545 2.057 . S
Co540 O557 2.021 . S
Co540 O560 2.062 . S
Co540 O564 2.117 . S
Co540 O565 2.020 . S
C541 O561 1.259 . S
C541 O564 1.258 . S
Co542 N551 2.057 . S
Co542 O558 2.117 . S
Co542 O559 2.020 . S
Co542 O561 2.021 . S
Co542 O566 2.062 . S
C543 N545 1.316 . S
C543 N546 1.347 . S
C543 H548 0.931 . S
C544 N545 1.375 . S
C544 C547 1.350 . S
C544 H549 0.930 . S
N545 Co540 2.057 . S
N545 C543 1.316 . S
N545 C544 1.375 . S
N546 C543 1.347 . S
N546 C547 1.373 . S
C547 C544 1.350 . S
C547 N546 1.373 . S
C547 H568 0.931 . S
H548 C543 0.931 . S
H549 C544 0.930 . S
C550 O557 1.259 . S
C550 O558 1.258 . S
N551 Co542 2.057 . S
N551 C552 1.316 . S
N551 C553 1.375 . S
C552 N551 1.316 . S
C552 N554 1.347 . S
C552 H563 0.931 . S
C553 N551 1.375 . S
C553 C555 1.350 . S
C553 H562 0.930 . S
N554 C552 1.347 . S
N554 C555 1.373 . S
C555 C553 1.350 . S
C555 N554 1.373 . S
C555 H569 0.931 . S
C556 O559 1.256 . S
C556 O560 1.255 . S
O557 Co540 2.021 . S
O557 C550 1.259 . S
O558 Co542 2.117 . S
O558 C550 1.258 . S
O559 Co542 2.020 . S
O559 C556 1.256 . S
O560 Co540 2.062 . S
O560 C556 1.255 . S
O561 C541 1.259 . S
O561 Co542 2.021 . S
H562 C553 0.930 . S
H563 C552 0.931 . S
O564 Co540 2.117 . S
O564 C541 1.258 . S
O565 Co540 2.020 . S
O565 C567 1.256 . S
O566 Co542 2.062 . S
O566 C567 1.255 . S
C567 O565 1.256 . S
C567 O566 1.255 . S
H568 C547 0.931 . S
H569 C555 0.931 . S
Co570 N575 2.057 . S
Co570 O587 2.021 . S
Co570 O590 2.062 . S
Co570 O594 2.117 . S
Co570 O595 2.020 1_655 S
C571 O591 1.259 . S
C571 O594 1.258 . S
Co572 N581 2.057 . S
Co572 O588 2.117 . S
Co572 O589 2.020 . S
Co572 O591 2.021 . S
Co572 O596 2.062 1_655 S
C573 N575 1.316 . S
C573 N576 1.347 . S
C573 H578 0.931 . S
C574 N575 1.375 . S
C574 C577 1.350 . S
C574 H579 0.930 . S
N575 Co570 2.057 . S
N575 C573 1.316 . S
N575 C574 1.375 . S
N576 C573 1.347 . S
N576 C577 1.373 . S
C577 C574 1.350 . S
C577 N576 1.373 . S
C577 H598 0.931 . S
H578 C573 0.931 . S
H579 C574 0.930 . S
C580 O587 1.259 . S
C580 O588 1.258 . S
N581 Co572 2.057 . S
N581 C582 1.316 . S
N581 C583 1.375 . S
C582 N581 1.316 . S
C582 N584 1.347 . S
C582 H593 0.931 . S
C583 N581 1.375 . S
C583 C585 1.350 . S
C583 H592 0.930 . S
N584 C582 1.347 . S
N584 C585 1.373 . S
C585 C583 1.350 . S
C585 N584 1.373 . S
C585 H599 0.931 . S
C586 O589 1.256 . S
C586 O590 1.255 . S
O587 Co570 2.021 . S
O587 C580 1.259 . S
O588 Co572 2.117 . S
O588 C580 1.258 . S
O589 Co572 2.020 . S
O589 C586 1.256 . S
O590 Co570 2.062 . S
O590 C586 1.255 . S
O591 C571 1.259 . S
O591 Co572 2.021 . S
H592 C583 0.930 . S
H593 C582 0.931 . S
O594 Co570 2.117 . S
O594 C571 1.258 . S
O595 Co570 2.020 1_455 S
O595 C597 1.256 . S
O596 Co572 2.062 1_455 S
O596 C597 1.255 . S
C597 O595 1.256 . S
C597 O596 1.255 . S
H598 C577 0.931 . S
H599 C585 0.931 . S
Co600 N605 2.057 . S
Co600 O617 2.021 . S
Co600 O620 2.062 . S
Co600 O624 2.117 . S
Co600 O625 2.020 . S
C601 O621 1.259 . S
C601 O624 1.258 . S
Co602 N611 2.057 . S
Co602 O618 2.117 . S
Co602 O619 2.020 . S
Co602 O621 2.021 . S
Co602 O626 2.062 . S
C603 N605 1.316 . S
C603 N606 1.347 . S
C603 H608 0.931 . S
C604 N605 1.375 . S
C604 C607 1.350 . S
C604 H609 0.930 . S
N605 Co600 2.057 . S
N605 C603 1.316 . S
N605 C604 1.375 . S
N606 C603 1.347 . S
N606 C607 1.373 . S
C607 C604 1.350 . S
C607 N606 1.373 . S
C607 H628 0.931 . S
H608 C603 0.931 . S
H609 C604 0.930 . S
C610 O617 1.259 . S
C610 O618 1.258 . S
N611 Co602 2.057 . S
N611 C612 1.316 . S
N611 C613 1.375 . S
C612 N611 1.316 . S
C612 N614 1.347 . S
C612 H623 0.931 . S
C613 N611 1.375 . S
C613 C615 1.350 . S
C613 H622 0.930 . S
N614 C612 1.347 . S
N614 C615 1.373 . S
C615 C613 1.350 . S
C615 N614 1.373 . S
C615 H629 0.931 . S
C616 O619 1.256 . S
C616 O620 1.255 . S
O617 Co600 2.021 . S
O617 C610 1.259 . S
O618 Co602 2.117 . S
O618 C610 1.258 . S
O619 Co602 2.020 . S
O619 C616 1.256 . S
O620 Co600 2.062 . S
O620 C616 1.255 . S
O621 C601 1.259 . S
O621 Co602 2.021 . S
H622 C613 0.930 . S
H623 C612 0.931 . S
O624 Co600 2.117 . S
O624 C601 1.258 . S
O625 Co600 2.020 . S
O625 C627 1.256 . S
O626 Co602 2.062 . S
O626 C627 1.255 . S
C627 O625 1.256 . S
C627 O626 1.255 . S
H628 C607 0.931 . S
H629 C615 0.931 . S
Co630 N635 2.057 . S
Co630 O647 2.021 . S
Co630 O650 2.062 1_455 S
Co630 O654 2.117 . S
Co630 O655 2.020 . S
C631 O651 1.259 . S
C631 O654 1.258 . S
Co632 N641 2.057 . S
Co632 O648 2.117 . S
Co632 O649 2.020 1_455 S
Co632 O651 2.021 . S
Co632 O656 2.062 . S
C633 N635 1.316 . S
C633 N636 1.347 . S
C633 H638 0.931 . S
C634 N635 1.375 . S
C634 C637 1.350 . S
C634 H639 0.930 . S
N635 Co630 2.057 . S
N635 C633 1.316 . S
N635 C634 1.375 . S
N636 C633 1.347 . S
N636 C637 1.373 . S
C637 C634 1.350 . S
C637 N636 1.373 . S
C637 H658 0.931 . S
H638 C633 0.931 . S
H639 C634 0.930 . S
C640 O647 1.259 . S
C640 O648 1.258 . S
N641 Co632 2.057 . S
N641 C642 1.316 . S
N641 C643 1.375 . S
C642 N641 1.316 . S
C642 N644 1.347 . S
C642 H653 0.931 . S
C643 N641 1.375 . S
C643 C645 1.350 . S
C643 H652 0.930 . S
N644 C642 1.347 . S
N644 C645 1.373 . S
C645 C643 1.350 . S
C645 N644 1.373 . S
C645 H659 0.931 . S
C646 O649 1.256 . S
C646 O650 1.255 . S
O647 Co630 2.021 . S
O647 C640 1.259 . S
O648 Co632 2.117 . S
O648 C640 1.258 . S
O649 Co632 2.020 1_655 S
O649 C646 1.256 . S
O650 Co630 2.062 1_655 S
O650 C646 1.255 . S
O651 C631 1.259 . S
O651 Co632 2.021 . S
H652 C643 0.930 . S
H653 C642 0.931 . S
O654 Co630 2.117 . S
O654 C631 1.258 . S
O655 Co630 2.020 . S
O655 C657 1.256 . S
O656 Co632 2.062 . S
O656 C657 1.255 . S
C657 O655 1.256 . S
C657 O656 1.255 . S
H658 C637 0.931 . S
H659 C645 0.931 . S
Co660 N665 2.057 . S
Co660 O677 2.021 . S
Co660 O680 2.062 . S
Co660 O684 2.117 . S
Co660 O685 2.020 . S
C661 O681 1.259 . S
C661 O684 1.258 . S
Co662 N671 2.057 . S
Co662 O678 2.117 . S
Co662 O679 2.020 . S
Co662 O681 2.021 . S
Co662 O686 2.062 . S
C663 N665 1.316 . S
C663 N666 1.347 . S
C663 H668 0.931 . S
C664 N665 1.375 . S
C664 C667 1.350 . S
C664 H669 0.930 . S
N665 Co660 2.057 . S
N665 C663 1.316 . S
N665 C664 1.375 . S
N666 C663 1.347 . S
N666 C667 1.373 . S
C667 C664 1.350 . S
C667 N666 1.373 . S
C667 H688 0.931 . S
H668 C663 0.931 . S
H669 C664 0.930 . S
C670 O677 1.259 . S
C670 O678 1.258 . S
N671 Co662 2.057 . S
N671 C672 1.316 . S
N671 C673 1.375 . S
C672 N671 1.316 . S
C672 N674 1.347 . S
C672 H683 0.931 . S
C673 N671 1.375 . S
C673 C675 1.350 . S
C673 H682 0.930 . S
N674 C672 1.347 . S
N674 C675 1.373 . S
C675 C673 1.350 . S
C675 N674 1.373 . S
C675 H689 0.931 . S
C676 O679 1.256 . S
C676 O680 1.255 . S
O677 Co660 2.021 . S
O677 C670 1.259 . S
O678 Co662 2.117 . S
O678 C670 1.258 . S
O679 Co662 2.020 . S
O679 C676 1.256 . S
O680 Co660 2.062 . S
O680 C676 1.255 . S
O681 C661 1.259 . S
O681 Co662 2.021 . S
H682 C673 0.930 . S
H683 C672 0.931 . S
O684 Co660 2.117 . S
O684 C661 1.258 . S
O685 Co660 2.020 . S
O685 C687 1.256 . S
O686 Co662 2.062 . S
O686 C687 1.255 . S
C687 O685 1.256 . S
C687 O686 1.255 . S
H688 C667 0.931 . S
H689 C675 0.931 . S
Co690 N695 2.057 . S
Co690 O707 2.021 . S
Co690 O710 2.062 1_455 S
Co690 O714 2.117 . S
Co690 O715 2.020 . S
C691 O711 1.259 . S
C691 O714 1.258 . S
Co692 N701 2.057 . S
Co692 O708 2.117 . S
Co692 O709 2.020 1_455 S
Co692 O711 2.021 . S
Co692 O716 2.062 . S
C693 N695 1.316 . S
C693 N696 1.347 . S
C693 H698 0.931 . S
C694 N695 1.375 . S
C694 C697 1.350 . S
C694 H699 0.930 . S
N695 Co690 2.057 . S
N695 C693 1.316 . S
N695 C694 1.375 . S
N696 C693 1.347 . S
N696 C697 1.373 . S
C697 C694 1.350 . S
C697 N696 1.373 . S
C697 H718 0.931 . S
H698 C693 0.931 . S
H699 C694 0.930 . S
C700 O707 1.259 . S
C700 O708 1.258 . S
N701 Co692 2.057 . S
N701 C702 1.316 . S
N701 C703 1.375 . S
C702 N701 1.316 . S
C702 N704 1.347 . S
C702 H713 0.931 . S
C703 N701 1.375 . S
C703 C705 1.350 . S
C703 H712 0.930 . S
N704 C702 1.347 . S
N704 C705 1.373 . S
C705 C703 1.350 . S
C705 N704 1.373 . S
C705 H719 0.931 . S
C706 O709 1.256 . S
C706 O710 1.255 . S
O707 Co690 2.021 . S
O707 C700 1.259 . S
O708 Co692 2.117 . S
O708 C700 1.258 . S
O709 Co692 2.020 1_655 S
O709 C706 1.256 . S
O710 Co690 2.062 1_655 S
O710 C706 1.255 . S
O711 C691 1.259 . S
O711 Co692 2.021 . S
H712 C703 0.930 . S
H713 C702 0.931 . S
O714 Co690 2.117 . S
O714 C691 1.258 . S
O715 Co690 2.020 . S
O715 C717 1.256 . S
O716 Co692 2.062 . S
O716 C717 1.255 . S
C717 O715 1.256 . S
C717 O716 1.255 . S
H718 C697 0.931 . S
H719 C705 0.931 . S
Co720 N725 2.057 . S
Co720 O737 2.021 . S
Co720 O740 2.062 . S
Co720 O744 2.117 . S
Co720 O745 2.020 . S
C721 O741 1.259 . S
C721 O744 1.258 1_565 S
Co722 N731 2.057 . S
Co722 O738 2.117 . S
Co722 O739 2.020 . S
Co722 O741 2.021 . S
Co722 O746 2.062 . S
C723 N725 1.316 . S
C723 N726 1.347 . S
C723 H728 0.931 . S
C724 N725 1.375 . S
C724 C727 1.350 . S
C724 H729 0.930 . S
N725 Co720 2.057 . S
N725 C723 1.316 . S
N725 C724 1.375 . S
N726 C723 1.347 . S
N726 C727 1.373 . S
C727 C724 1.350 . S
C727 N726 1.373 . S
C727 H748 0.931 . S
H728 C723 0.931 . S
H729 C724 0.930 . S
C730 O737 1.259 . S
C730 O738 1.258 1_545 S
N731 Co722 2.057 . S
N731 C732 1.316 . S
N731 C733 1.375 . S
C732 N731 1.316 . S
C732 N734 1.347 . S
C732 H743 0.931 . S
C733 N731 1.375 . S
C733 C735 1.350 . S
C733 H742 0.930 . S
N734 C732 1.347 . S
N734 C735 1.373 . S
C735 C733 1.350 . S
C735 N734 1.373 . S
C735 H749 0.931 . S
C736 O739 1.251 1_545 S
C736 O740 1.260 . S
O737 Co720 2.021 . S
O737 C730 1.259 . S
O738 Co722 2.117 . S
O738 C730 1.258 1_565 S
O739 Co722 2.020 . S
O739 C736 1.251 1_565 S
O740 Co720 2.062 . S
O740 C736 1.260 . S
O741 C721 1.259 . S
O741 Co722 2.021 . S
H742 C733 0.930 . S
H743 C732 0.931 . S
O744 Co720 2.117 . S
O744 C721 1.258 1_545 S
O745 Co720 2.020 . S
O745 C747 1.242 1_545 S
O746 Co722 2.062 . S
O746 C747 1.268 . S
C747 O745 1.242 1_565 S
C747 O746 1.268 . S
H748 C727 0.931 . S
H749 C735 0.931 . S
Co750 N755 2.057 . S
Co750 O767 2.021 . S
Co750 O770 2.062 . S
Co750 O774 2.117 . S
Co750 O775 2.020 1_655 S
C751 O771 1.259 . S
C751 O774 1.258 . S
Co752 N761 2.057 . S
Co752 O768 2.117 . S
Co752 O769 2.020 . S
Co752 O771 2.021 . S
Co752 O776 2.062 1_655 S
C753 N755 1.316 . S
C753 N756 1.347 . S
C753 H758 0.931 . S
C754 N755 1.375 . S
C754 C757 1.350 . S
C754 H759 0.930 . S
N755 Co750 2.057 . S
N755 C753 1.316 . S
N755 C754 1.375 . S
N756 C753 1.347 . S
N756 C757 1.373 . S
C757 C754 1.350 . S
C757 N756 1.373 . S
C757 H778 0.931 . S
H758 C753 0.931 . S
H759 C754 0.930 . S
C760 O767 1.259 . S
C760 O768 1.258 . S
N761 Co752 2.057 . S
N761 C762 1.316 . S
N761 C763 1.375 . S
C762 N761 1.316 . S
C762 N764 1.347 . S
C762 H773 0.931 . S
C763 N761 1.375 . S
C763 C765 1.350 . S
C763 H772 0.930 . S
N764 C762 1.347 . S
N764 C765 1.373 . S
C765 C763 1.350 . S
C765 N764 1.373 . S
C765 H779 0.931 . S
C766 O769 1.256 . S
C766 O770 1.255 . S
O767 Co750 2.021 . S
O767 C760 1.259 . S
O768 Co752 2.117 . S
O768 C760 1.258 . S
O769 Co752 2.020 . S
O769 C766 1.256 . S
O770 Co750 2.062 . S
O770 C766 1.255 . S
O771 C751 1.259 . S
O771 Co752 2.021 . S
H772 C763 0.930 . S
H773 C762 0.931 . S
O774 Co750 2.117 . S
O774 C751 1.258 . S
O775 Co750 2.020 1_455 S
O775 C777 1.256 . S
O776 Co752 2.062 1_455 S
O776 C777 1.255 . S
C777 O775 1.256 . S
C777 O776 1.255 . S
H778 C757 0.931 . S
H779 C765 0.931 . S
Co780 N785 2.057 . S
Co780 O797 2.021 . S
Co780 O800 2.062 . S
Co780 O804 2.117 . S
Co780 O805 2.020 . S
C781 O801 1.259 . S
C781 O804 1.258 . S
Co782 N791 2.057 . S
Co782 O798 2.117 . S
Co782 O799 2.020 . S
Co782 O801 2.021 . S
Co782 O806 2.062 . S
C783 N785 1.316 . S
C783 N786 1.347 . S
C783 H788 0.931 . S
C784 N785 1.375 . S
C784 C787 1.350 . S
C784 H789 0.930 . S
N785 Co780 2.057 . S
N785 C783 1.316 . S
N785 C784 1.375 . S
N786 C783 1.347 . S
N786 C787 1.373 . S
C787 C784 1.350 . S
C787 N786 1.373 . S
C787 H808 0.931 . S
H788 C783 0.931 . S
H789 C784 0.930 . S
C790 O797 1.259 . S
C790 O798 1.258 . S
N791 Co782 2.057 . S
N791 C792 1.316 . S
N791 C793 1.375 . S
C792 N791 1.316 . S
C792 N794 1.347 . S
C792 H803 0.931 . S
C793 N791 1.375 . S
C793 C795 1.350 . S
C793 H802 0.930 . S
N794 C792 1.347 . S
N794 C795 1.373 . S
C795 C793 1.350 . S
C795 N794 1.373 . S
C795 H809 0.931 . S
C796 O799 1.256 . S
C796 O800 1.255 . S
O797 Co780 2.021 . S
O797 C790 1.259 . S
O798 Co782 2.117 . S
O798 C790 1.258 . S
O799 Co782 2.020 . S
O799 C796 1.256 . S
O800 Co780 2.062 . S
O800 C796 1.255 . S
O801 C781 1.259 . S
O801 Co782 2.021 . S
H802 C793 0.930 . S
H803 C792 0.931 . S
O804 Co780 2.117 . S
O804 C781 1.258 . S
O805 Co780 2.020 . S
O805 C807 1.256 . S
O806 Co782 2.062 . S
O806 C807 1.255 . S
C807 O805 1.256 . S
C807 O806 1.255 . S
H808 C787 0.931 . S
H809 C795 0.931 . S
Co810 N815 2.057 . S
Co810 O827 2.021 . S
Co810 O830 2.062 . S
Co810 O834 2.117 . S
Co810 O835 2.020 1_655 S
C811 O831 1.259 . S
C811 O834 1.258 1_565 S
Co812 N821 2.057 . S
Co812 O828 2.117 . S
Co812 O829 2.020 . S
Co812 O831 2.021 . S
Co812 O836 2.062 1_655 S
C813 N815 1.316 . S
C813 N816 1.347 . S
C813 H818 0.931 . S
C814 N815 1.375 . S
C814 C817 1.350 . S
C814 H819 0.930 . S
N815 Co810 2.057 . S
N815 C813 1.316 . S
N815 C814 1.375 . S
N816 C813 1.347 . S
N816 C817 1.373 . S
C817 C814 1.350 . S
C817 N816 1.373 . S
C817 H838 0.931 . S
H818 C813 0.931 . S
H819 C814 0.930 . S
C820 O827 1.259 . S
C820 O828 1.258 1_545 S
N821 Co812 2.057 . S
N821 C822 1.316 . S
N821 C823 1.375 . S
C822 N821 1.316 . S
C822 N824 1.347 . S
C822 H833 0.931 . S
C823 N821 1.375 . S
C823 C825 1.350 . S
C823 H832 0.930 . S
N824 C822 1.347 . S
N824 C825 1.373 . S
C825 C823 1.350 . S
C825 N824 1.373 . S
C825 H839 0.931 . S
C826 O829 1.250 1_545 S
C826 O830 1.260 . S
O827 Co810 2.021 . S
O827 C820 1.259 . S
O828 Co812 2.117 . S
O828 C820 1.258 1_565 S
O829 Co812 2.020 . S
O829 C826 1.250 1_565 S
O830 Co810 2.062 . S
O830 C826 1.260 . S
O831 C811 1.259 . S
O831 Co812 2.021 . S
H832 C823 0.930 . S
H833 C822 0.931 . S
O834 Co810 2.117 . S
O834 C811 1.258 1_545 S
O835 Co810 2.020 1_455 S
O835 C837 1.242 1_545 S
O836 Co812 2.062 1_455 S
O836 C837 1.268 . S
C837 O835 1.242 1_565 S
C837 O836 1.268 . S
H838 C817 0.931 . S
H839 C825 0.931 . S
Co840 N845 2.057 . S
Co840 O857 2.021 . S
Co840 O860 2.062 . S
Co840 O864 2.117 . S
Co840 O865 2.020 . S
C841 O861 1.259 . S
C841 O864 1.258 1_565 S
Co842 N851 2.057 . S
Co842 O858 2.117 . S
Co842 O859 2.020 . S
Co842 O861 2.021 . S
Co842 O866 2.062 . S
C843 N845 1.316 . S
C843 N846 1.347 . S
C843 H848 0.931 . S
C844 N845 1.375 . S
C844 C847 1.350 . S
C844 H849 0.930 . S
N845 Co840 2.057 . S
N845 C843 1.316 . S
N845 C844 1.375 . S
N846 C843 1.347 . S
N846 C847 1.373 . S
C847 C844 1.350 . S
C847 N846 1.373 . S
C847 H868 0.931 . S
H848 C843 0.931 . S
H849 C844 0.930 . S
C850 O857 1.259 . S
C850 O858 1.258 1_545 S
N851 Co842 2.057 . S
N851 C852 1.316 . S
N851 C853 1.375 . S
C852 N851 1.316 . S
C852 N854 1.347 . S
C852 H863 0.931 . S
C853 N851 1.375 . S
C853 C855 1.350 . S
C853 H862 0.930 . S
N854 C852 1.347 . S
N854 C855 1.373 . S
C855 C853 1.350 . S
C855 N854 1.373 . S
C855 H869 0.931 . S
C856 O859 1.242 1_545 S
C856 O860 1.268 . S
O857 Co840 2.021 . S
O857 C850 1.259 . S
O858 Co842 2.117 . S
O858 C850 1.258 1_565 S
O859 Co842 2.020 . S
O859 C856 1.242 1_565 S
O860 Co840 2.062 . S
O860 C856 1.268 . S
O861 C841 1.259 . S
O861 Co842 2.021 . S
H862 C853 0.930 . S
H863 C852 0.931 . S
O864 Co840 2.117 . S
O864 C841 1.258 1_545 S
O865 Co840 2.020 . S
O865 C867 1.251 1_545 S
O866 Co842 2.062 . S
O866 C867 1.260 . S
C867 O865 1.251 1_565 S
C867 O866 1.260 . S
H868 C847 0.931 . S
H869 C855 0.931 . S
Co870 N875 2.057 . S
Co870 O887 2.021 . S
Co870 O890 2.062 1_455 S
Co870 O894 2.117 . S
Co870 O895 2.020 . S
C871 O891 1.259 . S
C871 O894 1.258 . S
Co872 N881 2.057 . S
Co872 O888 2.117 . S
Co872 O889 2.020 1_455 S
Co872 O891 2.021 . S
Co872 O896 2.062 . S
C873 N875 1.316 . S
C873 N876 1.347 . S
C873 H878 0.931 . S
C874 N875 1.375 . S
C874 C877 1.350 . S
C874 H879 0.930 . S
N875 Co870 2.057 . S
N875 C873 1.316 . S
N875 C874 1.375 . S
N876 C873 1.347 . S
N876 C877 1.373 . S
C877 C874 1.350 . S
C877 N876 1.373 . S
C877 H898 0.931 . S
H878 C873 0.931 . S
H879 C874 0.930 . S
C880 O887 1.259 . S
C880 O888 1.258 . S
N881 Co872 2.057 . S
N881 C882 1.316 . S
N881 C883 1.375 . S
C882 N881 1.316 . S
C882 N884 1.347 . S
C882 H893 0.931 . S
C883 N881 1.375 . S
C883 C885 1.350 . S
C883 H892 0.930 . S
N884 C882 1.347 . S
N884 C885 1.373 . S
C885 C883 1.350 . S
C885 N884 1.373 . S
C885 H899 0.931 . S
C886 O889 1.256 . S
C886 O890 1.255 . S
O887 Co870 2.021 . S
O887 C880 1.259 . S
O888 Co872 2.117 . S
O888 C880 1.258 . S
O889 Co872 2.020 1_655 S
O889 C886 1.256 . S
O890 Co870 2.062 1_655 S
O890 C886 1.255 . S
O891 C871 1.259 . S
O891 Co872 2.021 . S
H892 C883 0.930 . S
H893 C882 0.931 . S
O894 Co870 2.117 . S
O894 C871 1.258 . S
O895 Co870 2.020 . S
O895 C897 1.256 . S
O896 Co872 2.062 . S
O896 C897 1.255 . S
C897 O895 1.256 . S
C897 O896 1.255 . S
H898 C877 0.931 . S
H899 C885 0.931 . S
Co900 N905 2.057 . S
Co900 O917 2.021 . S
Co900 O920 2.062 . S
Co900 O924 2.117 . S
Co900 O925 2.020 . S
C901 O921 1.259 . S
C901 O924 1.258 . S
Co902 N911 2.057 . S
Co902 O918 2.117 . S
Co902 O919 2.020 . S
Co902 O921 2.021 . S
Co902 O926 2.062 . S
C903 N905 1.316 . S
C903 N906 1.347 . S
C903 H908 0.931 . S
C904 N905 1.375 . S
C904 C907 1.350 . S
C904 H909 0.930 . S
N905 Co900 2.057 . S
N905 C903 1.316 . S
N905 C904 1.375 . S
N906 C903 1.347 . S
N906 C907 1.373 . S
C907 C904 1.350 . S
C907 N906 1.373 . S
C907 H928 0.931 . S
H908 C903 0.931 . S
H909 C904 0.930 . S
C910 O917 1.259 . S
C910 O918 1.258 . S
N911 Co902 2.057 . S
N911 C912 1.316 . S
N911 C913 1.375 . S
C912 N911 1.316 . S
C912 N914 1.347 . S
C912 H923 0.931 . S
C913 N911 1.375 . S
C913 C915 1.350 . S
C913 H922 0.930 . S
N914 C912 1.347 . S
N914 C915 1.373 . S
C915 C913 1.350 . S
C915 N914 1.373 . S
C915 H929 0.931 . S
C916 O919 1.256 . S
C916 O920 1.255 . S
O917 Co900 2.021 . S
O917 C910 1.259 . S
O918 Co902 2.117 . S
O918 C910 1.258 . S
O919 Co902 2.020 . S
O919 C916 1.256 . S
O920 Co900 2.062 . S
O920 C916 1.255 . S
O921 C901 1.259 . S
O921 Co902 2.021 . S
H922 C913 0.930 . S
H923 C912 0.931 . S
O924 Co900 2.117 . S
O924 C901 1.258 . S
O925 Co900 2.020 . S
O925 C927 1.256 . S
O926 Co902 2.062 . S
O926 C927 1.255 . S
C927 O925 1.256 . S
C927 O926 1.255 . S
H928 C907 0.931 . S
H929 C915 0.931 . S
Co930 N935 2.057 . S
Co930 O947 2.021 . S
Co930 O950 2.062 1_455 S
Co930 O954 2.117 . S
Co930 O955 2.020 . S
C931 O951 1.259 . S
C931 O954 1.258 1_565 S
Co932 N941 2.057 . S
Co932 O948 2.117 . S
Co932 O949 2.020 1_455 S
Co932 O951 2.021 . S
Co932 O956 2.062 . S
C933 N935 1.316 . S
C933 N936 1.347 . S
C933 H938 0.931 . S
C934 N935 1.375 . S
C934 C937 1.350 . S
C934 H939 0.930 . S
N935 Co930 2.057 . S
N935 C933 1.316 . S
N935 C934 1.375 . S
N936 C933 1.347 . S
N936 C937 1.373 . S
C937 C934 1.350 . S
C937 N936 1.373 . S
C937 H958 0.931 . S
H938 C933 0.931 . S
H939 C934 0.930 . S
C940 O947 1.259 . S
C940 O948 1.258 1_545 S
N941 Co932 2.057 . S
N941 C942 1.316 . S
N941 C943 1.375 . S
C942 N941 1.316 . S
C942 N944 1.347 . S
C942 H953 0.931 . S
C943 N941 1.375 . S
C943 C945 1.350 . S
C943 H952 0.930 . S
N944 C942 1.347 . S
N944 C945 1.373 . S
C945 C943 1.350 . S
C945 N944 1.373 . S
C945 H959 0.931 . S
C946 O949 1.242 1_545 S
C946 O950 1.268 . S
O947 Co930 2.021 . S
O947 C940 1.259 . S
O948 Co932 2.117 . S
O948 C940 1.258 1_565 S
O949 Co932 2.020 1_655 S
O949 C946 1.242 1_565 S
O950 Co930 2.062 1_655 S
O950 C946 1.268 . S
O951 C931 1.259 . S
O951 Co932 2.021 . S
H952 C943 0.930 . S
H953 C942 0.931 . S
O954 Co930 2.117 . S
O954 C931 1.258 1_545 S
O955 Co930 2.020 . S
O955 C957 1.250 1_545 S
O956 Co932 2.062 . S
O956 C957 1.260 . S
C957 O955 1.250 1_565 S
C957 O956 1.260 . S
H958 C937 0.931 . S
H959 C945 0.931 . S
N14 N764 1.544 . S
N734 N44 1.538 . S
N824 N74 1.537 . S
N104 N794 1.545 . S
N126 N876 1.544 . S
N156 N846 1.538 . S
N186 N936 1.537 . S
N906 N216 1.545 . S
N254 N524 1.537 . S
N284 N494 1.545 . S
N314 N584 1.544 . S
N554 N344 1.538 . S
N366 N636 1.537 . S
N396 N606 1.545 . S
N696 N426 1.544 . S
N456 N666 1.538 . S
C10 C100 1.647 . S
C40 C70 1.649 . S
C211 C121 1.647 . S
C181 C151 1.649 . S
C250 C340 1.647 . S
C280 C310 1.647 . S
C361 C451 1.647 . S
C421 C391 1.647 . S
C490 C580 1.649 . S
C520 C550 1.648 . S
C691 C601 1.649 . S
C631 C661 1.648 . S
C820 C730 1.645 . S
C760 C790 1.648 . S
C931 C841 1.645 . S
C901 C871 1.648 . S
N36 N6 1.293 . S
N66 N96 1.292 . S
N164 N134 1.293 . S
N224 N194 1.292 . S
N246 N276 1.301 . S
N306 N336 1.302 . S
N404 N374 1.301 . S
N434 N464 1.302 . S
N486 N516 1.292 . S
N576 N546 1.292 . S
N614 N644 1.292 . S
N674 N704 1.292 . S
N726 N756 1.302 . S
N786 N816 1.302 . S
N884 N854 1.302 . S
N914 N944 1.302 . S
C27 C16 1.482 . S
C57 C46 1.482 . S
C87 C76 1.482 . S
C106 C117 1.482 . S
C147 C136 1.482 . S
C166 C177 1.482 . S
C207 C196 1.482 . S
C237 C226 1.482 . S
C256 C267 1.482 1_545 S
C297 C286 1.482 . S
C327 C316 1.482 . S
C346 C357 1.482 1_545 S
C387 C376 1.482 1_565 S
C406 C417 1.482 . S
C436 C447 1.482 . S
C477 C466 1.482 1_565 S
C507 C496 1.482 1_455 S
C526 C537 1.481 . S
C556 C567 1.482 1_655 S
C597 C586 1.482 . S
C616 C627 1.482 1_655 S
C646 C657 1.481 . S
C687 C676 1.482 1_455 S
C706 C717 1.482 . S
C736 C747 1.482 1_645 S
C777 C766 1.482 . S
C796 C807 1.482 1_655 S
C826 C837 1.481 1_545 S
C856 C867 1.482 1_645 S
C886 C897 1.482 . S
C927 C916 1.482 1_455 S
C957 C946 1.481 1_565 S
C1 C130 1.528 1_454 S
C880 C31 1.527 1_556 S
C430 C61 1.527 1_655 S
C91 C700 1.529 . S
C160 C751 1.527 1_556 S
C190 C301 1.527 1_655 S
C220 C571 1.529 . S
C241 C370 1.532 1_465 S
C640 C271 1.527 . S
C940 C331 1.531 1_545 S
C400 C511 1.527 . S
C811 C460 1.531 1_565 S
C481 C610 1.529 . S
C910 C541 1.527 . S
C670 C781 1.527 . S
C721 C850 1.531 1_564 S
