# Generated by pormake.
# Topology unl, (4)-cn, num edge types: 1
# Building blocks:
#     Node 0, Type 0, BuildingBlock: KUFVIS_clean_sbu_0, # of connection points: 4
#     Node 1, Type 0, BuildingBlock: KUFVIS_clean_sbu_0, # of connection points: 4
#     Node 2, Type 0, BuildingBlock: KUFVIS_clean_sbu_0, # of connection points: 4
#     Node 3, Type 0, BuildingBlock: KUFVIS_clean_sbu_0, # of connection points: 4
#     Node 4, Type 0, BuildingBlock: KUFVIS_clean_sbu_0, # of connection points: 4
#     Node 5, Type 0, BuildingBlock: KUFVIS_clean_sbu_0, # of connection points: 4
#     Node 6, Type 0, BuildingBlock: KUFVIS_clean_sbu_0, # of connection points: 4
#     Node 7, Type 0, BuildingBlock: KUFVIS_clean_sbu_0, # of connection points: 4
#     Node 8, Type 0, BuildingBlock: KUFVIS_clean_sbu_0, # of connection points: 4
#     Node 9, Type 0, BuildingBlock: KUFVIS_clean_sbu_0, # of connection points: 4
#     Node 10, Type 0, BuildingBlock: KUFVIS_clean_sbu_0, # of connection points: 4
#     Node 11, Type 0, BuildingBlock: KUFVIS_clean_sbu_0, # of connection points: 4
#     Node 12, Type 0, BuildingBlock: KUFVIS_clean_sbu_0, # of connection points: 4
#     Node 13, Type 0, BuildingBlock: KUFVIS_clean_sbu_0, # of connection points: 4
#     Node 14, Type 0, BuildingBlock: KUFVIS_clean_sbu_0, # of connection points: 4
#     Node 15, Type 0, BuildingBlock: KUFVIS_clean_sbu_0, # of connection points: 4
#     Node 16, Type 0, BuildingBlock: KUFVIS_clean_sbu_0, # of connection points: 4
#     Node 17, Type 0, BuildingBlock: KUFVIS_clean_sbu_0, # of connection points: 4
#     Node 18, Type 0, BuildingBlock: KUFVIS_clean_sbu_0, # of connection points: 4
#     Node 19, Type 0, BuildingBlock: KUFVIS_clean_sbu_0, # of connection points: 4
#     Node 20, Type 0, BuildingBlock: KUFVIS_clean_sbu_0, # of connection points: 4
#     Node 21, Type 0, BuildingBlock: KUFVIS_clean_sbu_0, # of connection points: 4
#     Node 22, Type 0, BuildingBlock: KUFVIS_clean_sbu_0, # of connection points: 4
#     Node 23, Type 0, BuildingBlock: KUFVIS_clean_sbu_0, # of connection points: 4
#     Node 24, Type 0, BuildingBlock: KUFVIS_clean_sbu_0, # of connection points: 4
#     Node 25, Type 0, BuildingBlock: KUFVIS_clean_sbu_0, # of connection points: 4
#     Node 26, Type 0, BuildingBlock: KUFVIS_clean_sbu_0, # of connection points: 4
#     Node 27, Type 0, BuildingBlock: KUFVIS_clean_sbu_0, # of connection points: 4
#     Node 28, Type 0, BuildingBlock: KUFVIS_clean_sbu_0, # of connection points: 4
#     Node 29, Type 0, BuildingBlock: KUFVIS_clean_sbu_0, # of connection points: 4
#     Node 30, Type 0, BuildingBlock: KUFVIS_clean_sbu_0, # of connection points: 4
#     Node 31, Type 0, BuildingBlock: KUFVIS_clean_sbu_0, # of connection points: 4
#     Node 32, Type 0, BuildingBlock: KUFVIS_clean_sbu_0, # of connection points: 4
#     Node 33, Type 0, BuildingBlock: KUFVIS_clean_sbu_0, # of connection points: 4
#     Node 34, Type 0, BuildingBlock: KUFVIS_clean_sbu_0, # of connection points: 4
#     Node 35, Type 0, BuildingBlock: KUFVIS_clean_sbu_0, # of connection points: 4
#     Edge 36, Type (0, 0), BuildingBlock: UVAHIK_clean_linker_0, # of connection points: 2
#     Edge 37, Type (0, 0), BuildingBlock: UVAHIK_clean_linker_0, # of connection points: 2
#     Edge 38, Type (0, 0), BuildingBlock: UVAHIK_clean_linker_0, # of connection points: 2
#     Edge 39, Type (0, 0), BuildingBlock: UVAHIK_clean_linker_0, # of connection points: 2
#     Edge 40, Type (0, 0), BuildingBlock: UVAHIK_clean_linker_0, # of connection points: 2
#     Edge 41, Type (0, 0), BuildingBlock: UVAHIK_clean_linker_0, # of connection points: 2
#     Edge 42, Type (0, 0), BuildingBlock: UVAHIK_clean_linker_0, # of connection points: 2
#     Edge 43, Type (0, 0), BuildingBlock: UVAHIK_clean_linker_0, # of connection points: 2
#     Edge 44, Type (0, 0), BuildingBlock: UVAHIK_clean_linker_0, # of connection points: 2
#     Edge 45, Type (0, 0), BuildingBlock: UVAHIK_clean_linker_0, # of connection points: 2
#     Edge 46, Type (0, 0), BuildingBlock: UVAHIK_clean_linker_0, # of connection points: 2
#     Edge 47, Type (0, 0), BuildingBlock: UVAHIK_clean_linker_0, # of connection points: 2
#     Edge 48, Type (0, 0), BuildingBlock: UVAHIK_clean_linker_0, # of connection points: 2
#     Edge 49, Type (0, 0), BuildingBlock: UVAHIK_clean_linker_0, # of connection points: 2
#     Edge 50, Type (0, 0), BuildingBlock: UVAHIK_clean_linker_0, # of connection points: 2
#     Edge 51, Type (0, 0), BuildingBlock: UVAHIK_clean_linker_0, # of connection points: 2
#     Edge 52, Type (0, 0), BuildingBlock: UVAHIK_clean_linker_0, # of connection points: 2
#     Edge 53, Type (0, 0), BuildingBlock: UVAHIK_clean_linker_0, # of connection points: 2
#     Edge 54, Type (0, 0), BuildingBlock: UVAHIK_clean_linker_0, # of connection points: 2
#     Edge 55, Type (0, 0), BuildingBlock: UVAHIK_clean_linker_0, # of connection points: 2
#     Edge 56, Type (0, 0), BuildingBlock: UVAHIK_clean_linker_0, # of connection points: 2
#     Edge 57, Type (0, 0), BuildingBlock: UVAHIK_clean_linker_0, # of connection points: 2
#     Edge 58, Type (0, 0), BuildingBlock: UVAHIK_clean_linker_0, # of connection points: 2
#     Edge 59, Type (0, 0), BuildingBlock: UVAHIK_clean_linker_0, # of connection points: 2
#     Edge 60, Type (0, 0), BuildingBlock: UVAHIK_clean_linker_0, # of connection points: 2
#     Edge 61, Type (0, 0), BuildingBlock: UVAHIK_clean_linker_0, # of connection points: 2
#     Edge 62, Type (0, 0), BuildingBlock: UVAHIK_clean_linker_0, # of connection points: 2
#     Edge 63, Type (0, 0), BuildingBlock: UVAHIK_clean_linker_0, # of connection points: 2
#     Edge 64, Type (0, 0), BuildingBlock: UVAHIK_clean_linker_0, # of connection points: 2
#     Edge 65, Type (0, 0), BuildingBlock: UVAHIK_clean_linker_0, # of connection points: 2
#     Edge 66, Type (0, 0), BuildingBlock: UVAHIK_clean_linker_0, # of connection points: 2
#     Edge 67, Type (0, 0), BuildingBlock: UVAHIK_clean_linker_0, # of connection points: 2
#     Edge 68, Type (0, 0), BuildingBlock: UVAHIK_clean_linker_0, # of connection points: 2
#     Edge 69, Type (0, 0), BuildingBlock: UVAHIK_clean_linker_0, # of connection points: 2
#     Edge 70, Type (0, 0), BuildingBlock: UVAHIK_clean_linker_0, # of connection points: 2
#     Edge 71, Type (0, 0), BuildingBlock: UVAHIK_clean_linker_0, # of connection points: 2
#     Edge 72, Type (0, 0), BuildingBlock: UVAHIK_clean_linker_0, # of connection points: 2
#     Edge 73, Type (0, 0), BuildingBlock: UVAHIK_clean_linker_0, # of connection points: 2
#     Edge 74, Type (0, 0), BuildingBlock: UVAHIK_clean_linker_0, # of connection points: 2
#     Edge 75, Type (0, 0), BuildingBlock: UVAHIK_clean_linker_0, # of connection points: 2
#     Edge 76, Type (0, 0), BuildingBlock: UVAHIK_clean_linker_0, # of connection points: 2
#     Edge 77, Type (0, 0), BuildingBlock: UVAHIK_clean_linker_0, # of connection points: 2
#     Edge 78, Type (0, 0), BuildingBlock: UVAHIK_clean_linker_0, # of connection points: 2
#     Edge 79, Type (0, 0), BuildingBlock: UVAHIK_clean_linker_0, # of connection points: 2
#     Edge 80, Type (0, 0), BuildingBlock: UVAHIK_clean_linker_0, # of connection points: 2
#     Edge 81, Type (0, 0), BuildingBlock: UVAHIK_clean_linker_0, # of connection points: 2
#     Edge 82, Type (0, 0), BuildingBlock: UVAHIK_clean_linker_0, # of connection points: 2
#     Edge 83, Type (0, 0), BuildingBlock: UVAHIK_clean_linker_0, # of connection points: 2
#     Edge 84, Type (0, 0), BuildingBlock: UVAHIK_clean_linker_0, # of connection points: 2
#     Edge 85, Type (0, 0), BuildingBlock: UVAHIK_clean_linker_0, # of connection points: 2
#     Edge 86, Type (0, 0), BuildingBlock: UVAHIK_clean_linker_0, # of connection points: 2
#     Edge 87, Type (0, 0), BuildingBlock: UVAHIK_clean_linker_0, # of connection points: 2
#     Edge 88, Type (0, 0), BuildingBlock: UVAHIK_clean_linker_0, # of connection points: 2
#     Edge 89, Type (0, 0), BuildingBlock: UVAHIK_clean_linker_0, # of connection points: 2
#     Edge 90, Type (0, 0), BuildingBlock: UVAHIK_clean_linker_0, # of connection points: 2
#     Edge 91, Type (0, 0), BuildingBlock: UVAHIK_clean_linker_0, # of connection points: 2
#     Edge 92, Type (0, 0), BuildingBlock: UVAHIK_clean_linker_0, # of connection points: 2
#     Edge 93, Type (0, 0), BuildingBlock: UVAHIK_clean_linker_0, # of connection points: 2
#     Edge 94, Type (0, 0), BuildingBlock: UVAHIK_clean_linker_0, # of connection points: 2
#     Edge 95, Type (0, 0), BuildingBlock: UVAHIK_clean_linker_0, # of connection points: 2
#     Edge 96, Type (0, 0), BuildingBlock: UVAHIK_clean_linker_0, # of connection points: 2
#     Edge 97, Type (0, 0), BuildingBlock: UVAHIK_clean_linker_0, # of connection points: 2
#     Edge 98, Type (0, 0), BuildingBlock: UVAHIK_clean_linker_0, # of connection points: 2
#     Edge 99, Type (0, 0), BuildingBlock: UVAHIK_clean_linker_0, # of connection points: 2
#     Edge 100, Type (0, 0), BuildingBlock: UVAHIK_clean_linker_0, # of connection points: 2
#     Edge 101, Type (0, 0), BuildingBlock: UVAHIK_clean_linker_0, # of connection points: 2
#     Edge 102, Type (0, 0), BuildingBlock: UVAHIK_clean_linker_0, # of connection points: 2
#     Edge 103, Type (0, 0), BuildingBlock: UVAHIK_clean_linker_0, # of connection points: 2
#     Edge 104, Type (0, 0), BuildingBlock: UVAHIK_clean_linker_0, # of connection points: 2
#     Edge 105, Type (0, 0), BuildingBlock: UVAHIK_clean_linker_0, # of connection points: 2
#     Edge 106, Type (0, 0), BuildingBlock: UVAHIK_clean_linker_0, # of connection points: 2
#     Edge 107, Type (0, 0), BuildingBlock: UVAHIK_clean_linker_0, # of connection points: 2
# Relax obj value: 0.072
# Max RMSD: 0.161
# Mean RMSD: 0.161
data_MOF--net-unl--node1-KUFVIS_clean_sbu_0--edge1-UVAHIK_clean_linker_0
_symmetry_space_group_name_H-M    P1
_symmetry_Int_Tables_number       1
_symmetry_cell_setting            triclinic
loop_
_symmetry_equiv_pos_as_xyz
'x, y, z'
_cell_length_a     83.949717
_cell_length_b     83.932902
_cell_length_c     52.318876
_cell_angle_alpha  89.976235
_cell_angle_beta   90.039231
_cell_angle_gamma 120.01933
loop_
_atom_site_label
_atom_site_type_symbol
_atom_site_fract_x
_atom_site_fract_y
_atom_site_fract_z
_atom_type_partial_charge
Mn0 Mn 0.20911 0.1224 0.11447 0.0
Mn1 Mn 0.16392 0.10365 0.12794 0.0
C2 C 0.19975 0.13611 0.14428 0.0
C3 C 0.23738 0.12452 0.12204 0.0
C4 C 0.18172 0.12599 0.08013 0.0
O5 O 0.19792 0.0967 0.09925 0.0
O6 O 0.16853 0.0848 0.11218 0.0
C7 C 0.16087 0.0776 0.16837 0.0
N8 N 0.15872 0.0919 0.16059 0.0
C9 C 0.14649 0.09341 0.20152 0.0
C10 C 0.14846 0.07863 0.20994 0.0
C11 C 0.15572 0.07072 0.19331 0.0
C12 C 0.15179 0.09964 0.17644 0.0
H13 H 0.16648 0.07153 0.15564 0.0
C14 C 0.18139 0.08341 0.10105 0.0
O15 O 0.23383 0.12965 0.10036 0.0
O16 O 0.22418 0.11729 0.13867 0.0
N17 N 0.15739 0.12029 0.14332 0.0
C18 C 0.15729 0.13507 0.13268 0.0
C19 C 0.15089 0.14486 0.14705 0.0
C20 C 0.14449 0.13926 0.17208 0.0
C21 C 0.14449 0.12387 0.1825 0.0
C22 C 0.15093 0.11458 0.16721 0.0
H23 H 0.16217 0.13942 0.11343 0.0
O24 O 0.21571 0.14543 0.13344 0.0
O25 O 0.18984 0.1189 0.13772 0.0
O26 O 0.19824 0.13034 0.08541 0.0
O27 O 0.16795 0.11573 0.09429 0.0
C28 C 0.13876 0.11763 0.20766 0.0
C29 C 0.13979 0.10244 0.21718 0.0
H30 H 0.14459 0.07333 0.22919 0.0
H31 H 0.15736 0.05936 0.19971 0.0
H32 H 0.15094 0.15673 0.13888 0.0
H33 H 0.13973 0.14695 0.1832 0.0
H34 H 0.13382 0.12461 0.21998 0.0
H35 H 0.1356 0.09794 0.23667 0.0
Mn36 Mn 0.8683 0.08382 0.11189 0.0
Mn37 Mn 0.8899 0.05973 0.12327 0.0
C38 C 0.85588 0.05976 0.14046 0.0
C39 C 0.86386 0.1084 0.12117 0.0
C40 C 0.86743 0.05502 0.07553 0.0
O41 O 0.89392 0.10034 0.09733 0.0
O42 O 0.90763 0.0842 0.10883 0.0
C43 C 0.91486 0.08258 0.16476 0.0
N44 N 0.90139 0.06594 0.15611 0.0
C45 C 0.9007 0.0514 0.19607 0.0
C46 C 0.91465 0.06836 0.20536 0.0
C47 C 0.92173 0.08403 0.18965 0.0
C48 C 0.89446 0.05079 0.17107 0.0
H49 H 0.92029 0.09465 0.15274 0.0
C50 C 0.90798 0.0983 0.09873 0.0
O51 O 0.85937 0.10029 0.09905 0.0
O52 O 0.87172 0.10278 0.13732 0.0
N53 N 0.8744 0.03575 0.13734 0.0
C54 C 0.86026 0.02069 0.12601 0.0
C55 C 0.85126 0.00399 0.13947 0.0
C56 C 0.857 0.00289 0.16432 0.0
C57 C 0.87174 0.01851 0.17545 0.0
C58 C 0.88025 0.03476 0.16105 0.0
H59 H 0.85579 0.02145 0.10692 0.0
O60 O 0.84565 0.06555 0.13018 0.0
O61 O 0.87316 0.06839 0.13402 0.0
O62 O 0.86186 0.06612 0.08171 0.0
O63 O 0.87825 0.05207 0.08932 0.0
C64 C 0.87803 0.01872 0.20049 0.0
C65 C 0.89248 0.03516 0.21081 0.0
H66 H 0.91992 0.06956 0.2246 0.0
H67 H 0.93243 0.09718 0.19673 0.0
H68 H 0.83988 0.992 0.13076 0.0
H69 H 0.8499 0.99004 0.17474 0.0
H70 H 0.87165 0.00639 0.21213 0.0
H71 H 0.89701 0.03521 0.23021 0.0
Mn72 Mn 0.91167 0.78513 0.11431 0.0
Mn73 Mn 0.93147 0.83033 0.12806 0.0
C74 C 0.93613 0.79837 0.14234 0.0
C75 C 0.88901 0.75495 0.12284 0.0
C76 C 0.93796 0.81556 0.07855 0.0
O77 O 0.89311 0.79207 0.10089 0.0
O78 O 0.90616 0.82125 0.11518 0.0
C79 C 0.908 0.82792 0.17176 0.0
N80 N 0.92499 0.83337 0.16197 0.0
C81 C 0.93952 0.84687 0.20207 0.0
C82 C 0.92219 0.84149 0.21257 0.0
C83 C 0.90636 0.83192 0.19736 0.0
C84 C 0.94029 0.84243 0.17648 0.0
H85 H 0.89581 0.82057 0.16011 0.0
C86 C 0.89308 0.80714 0.10413 0.0
O87 O 0.89698 0.75962 0.10063 0.0
O88 O 0.89372 0.76794 0.13956 0.0
N89 N 0.95608 0.84108 0.14077 0.0
C90 C 0.97171 0.84501 0.12784 0.0
C91 C 0.98879 0.85462 0.14027 0.0
C92 C 0.98964 0.86027 0.16574 0.0
C93 C 0.97338 0.85619 0.17861 0.0
C94 C 0.95678 0.84672 0.16516 0.0
H95 H 0.97118 0.84088 0.10817 0.0
O96 O 0.93164 0.78278 0.13154 0.0
O97 O 0.92586 0.80545 0.13698 0.0
O98 O 0.92876 0.7985 0.08423 0.0
O99 O 0.93921 0.8284 0.09304 0.0
C100 C 0.97298 0.86111 0.20425 0.0
C101 C 0.95605 0.85633 0.21603 0.0
H102 H 0.92086 0.84455 0.2323 0.0
H103 H 0.89293 0.82766 0.20535 0.0
H104 H 0.00128 0.85774 0.1302 0.0
H105 H 0.00286 0.86777 0.17517 0.0
H106 H 0.98559 0.86845 0.21517 0.0
H107 H 0.9559 0.86 0.23584 0.0
Mn108 Mn 0.12735 0.21201 0.3848 0.0
Mn109 Mn 0.1088 0.16652 0.37356 0.0
C110 C 0.14086 0.202 0.35553 0.0
C111 C 0.1291 0.23997 0.37588 0.0
C112 C 0.13134 0.18564 0.42074 0.0
O113 O 0.10174 0.20099 0.4003 0.0
O114 O 0.08987 0.17136 0.38848 0.0
C115 C 0.0825 0.16211 0.33268 0.0
N116 N 0.09694 0.16036 0.34096 0.0
C117 C 0.09843 0.14708 0.30091 0.0
C118 C 0.08351 0.14863 0.292 0.0
C119 C 0.07554 0.15622 0.30793 0.0
C120 C 0.10472 0.15311 0.32578 0.0
H121 H 0.07638 0.16796 0.34488 0.0
C122 C 0.08846 0.18441 0.39893 0.0
O123 O 0.13451 0.23699 0.39774 0.0
O124 O 0.12188 0.2264 0.35981 0.0
N125 N 0.12557 0.15986 0.35902 0.0
C126 C 0.14051 0.16029 0.36999 0.0
C127 C 0.15038 0.15366 0.35629 0.0
C128 C 0.14471 0.14652 0.33157 0.0
C129 C 0.12918 0.14603 0.32078 0.0
C130 C 0.11981 0.15272 0.33542 0.0
H131 H 0.14491 0.16573 0.389 0.0
O132 O 0.15023 0.21823 0.3656 0.0
O133 O 0.12376 0.1922 0.36258 0.0
O134 O 0.13566 0.202 0.41448 0.0
O135 O 0.12096 0.17148 0.40728 0.0
C136 C 0.12287 0.13955 0.29588 0.0
C137 C 0.10752 0.1401 0.28593 0.0
H138 H 0.07815 0.14419 0.27288 0.0
H139 H 0.06408 0.15754 0.30114 0.0
H140 H 0.16237 0.1541 0.36474 0.0
H141 H 0.15246 0.14157 0.32097 0.0
H142 H 0.1299 0.1344 0.28405 0.0
H143 H 0.10297 0.13535 0.26662 0.0
Mn144 Mn 0.78401 0.90992 0.38049 0.0
Mn145 Mn 0.82956 0.93564 0.36863 0.0
C146 C 0.79441 0.93301 0.35049 0.0
C147 C 0.75549 0.88418 0.37245 0.0
C148 C 0.81116 0.94073 0.4153 0.0
O149 O 0.79441 0.89495 0.39665 0.0
O150 O 0.82411 0.91203 0.38486 0.0
C151 C 0.83286 0.91224 0.32913 0.0
N152 N 0.83522 0.92883 0.33651 0.0
C153 C 0.8486 0.94243 0.29593 0.0
C154 C 0.84643 0.92551 0.28793 0.0
C155 C 0.83848 0.91034 0.30458 0.0
C156 C 0.84281 0.94351 0.32064 0.0
H157 H 0.82674 0.90055 0.34187 0.0
C158 C 0.81086 0.89789 0.39565 0.0
O159 O 0.75898 0.89296 0.39402 0.0
O160 O 0.76889 0.88978 0.35619 0.0
N161 N 0.83689 0.9589 0.35291 0.0
C162 C 0.83708 0.97395 0.36305 0.0
C163 C 0.84412 0.99017 0.34856 0.0
C164 C 0.85106 0.99082 0.32392 0.0
C165 C 0.85094 0.97524 0.31402 0.0
C166 C 0.84385 0.95949 0.32941 0.0
H167 H 0.83179 0.97354 0.382 0.0
O168 O 0.7783 0.92671 0.36074 0.0
O169 O 0.80388 0.92539 0.35774 0.0
O170 O 0.79469 0.92873 0.40952 0.0
O171 O 0.82514 0.94397 0.40179 0.0
C172 C 0.85718 0.97458 0.28926 0.0
C173 C 0.85598 0.95817 0.2802 0.0
H174 H 0.85066 0.92396 0.26898 0.0
H175 H 0.83668 0.89721 0.2985 0.0
H176 H 0.84415 0.00213 0.35632 0.0
H177 H 0.8563 0.00329 0.31269 0.0
H178 H 0.86264 0.98651 0.27687 0.0
H179 H 0.86057 0.95775 0.261 0.0
Mn180 Mn 0.08286 0.87537 0.38505 0.0
Mn181 Mn 0.05822 0.89605 0.37162 0.0
C182 C 0.05972 0.86271 0.35508 0.0
C183 C 0.10831 0.87204 0.37774 0.0
C184 C 0.05238 0.8731 0.4192 0.0
O185 O 0.09828 0.90086 0.40059 0.0
O186 O 0.08196 0.91405 0.38769 0.0
C187 C 0.08237 0.92152 0.33146 0.0
N188 N 0.06554 0.90773 0.33898 0.0
C189 C 0.05262 0.90657 0.29749 0.0
C190 C 0.06978 0.92083 0.28932 0.0
C191 C 0.08473 0.9283 0.30637 0.0
C192 C 0.05111 0.90035 0.32268 0.0
H193 H 0.09389 0.92726 0.3445 0.0
C194 C 0.09584 0.91467 0.39889 0.0
O195 O 0.09943 0.86702 0.39927 0.0
O196 O 0.10287 0.87973 0.36104 0.0
N197 N 0.03489 0.88034 0.35593 0.0
C198 C 0.01931 0.8665 0.36672 0.0
C199 C 0.0031 0.85751 0.35217 0.0
C200 C 0.00301 0.86296 0.32681 0.0
C201 C 0.01911 0.87746 0.31628 0.0
C202 C 0.03482 0.88598 0.33175 0.0
H203 H 0.01927 0.86231 0.38625 0.0
O204 O 0.06567 0.85272 0.3657 0.0
O205 O 0.06777 0.8799 0.36189 0.0
O206 O 0.06406 0.86811 0.41386 0.0
O207 O 0.04953 0.88393 0.40521 0.0
C208 C 0.02022 0.8837 0.291 0.0
C209 C 0.03699 0.89817 0.28155 0.0
H210 H 0.07167 0.92609 0.26999 0.0
H211 H 0.09804 0.93925 0.30018 0.0
H212 H 0.99071 0.84637 0.36047 0.0
H213 H 0.99052 0.85589 0.31558 0.0
H214 H 0.00831 0.87734 0.27856 0.0
H215 H 0.03773 0.90269 0.26197 0.0
Mn216 Mn 0.78591 0.8717 0.88564 0.0
Mn217 Mn 0.83165 0.89237 0.87523 0.0
C218 C 0.79713 0.85921 0.85665 0.0
C219 C 0.75755 0.86887 0.87635 0.0
C220 C 0.81286 0.86926 0.9221 0.0
O221 O 0.79569 0.89711 0.90122 0.0
O222 O 0.82553 0.91054 0.88973 0.0
C223 C 0.83516 0.91814 0.83409 0.0
N224 N 0.83763 0.9042 0.84262 0.0
C225 C 0.85162 0.90336 0.80288 0.0
C226 C 0.84933 0.9178 0.79372 0.0
C227 C 0.84103 0.92518 0.80938 0.0
C228 C 0.84559 0.89698 0.82772 0.0
H229 H 0.82874 0.92381 0.84606 0.0
C230 C 0.8119 0.91103 0.89995 0.0
O231 O 0.7606 0.86349 0.89818 0.0
O232 O 0.77118 0.87649 0.86042 0.0
N233 N 0.8395 0.87639 0.86111 0.0
C234 C 0.83962 0.86176 0.87221 0.0
C235 C 0.84689 0.85238 0.85872 0.0
C236 C 0.85409 0.85822 0.83407 0.0
C237 C 0.85401 0.87343 0.82316 0.0
C238 C 0.84669 0.88231 0.83757 0.0
H239 H 0.8341 0.8572 0.89115 0.0
O240 O 0.78087 0.84921 0.86639 0.0
O241 O 0.80622 0.87635 0.86381 0.0
O242 O 0.79633 0.86394 0.91548 0.0
O243 O 0.82692 0.88033 0.909 0.0
C244 C 0.8605 0.87986 0.79829 0.0
C245 C 0.85929 0.8948 0.78816 0.0
H246 H 0.85374 0.9232 0.77462 0.0
H247 H 0.83913 0.93626 0.80239 0.0
H248 H 0.84688 0.84063 0.86726 0.0
H249 H 0.8595 0.85082 0.82362 0.0
H250 H 0.86615 0.87321 0.78664 0.0
H251 H 0.86405 0.89943 0.76888 0.0
Mn252 Mn 0.11732 0.91222 0.87943 0.0
Mn253 Mn 0.09812 0.93813 0.86518 0.0
C254 C 0.13146 0.93583 0.85043 0.0
C255 C 0.12005 0.88642 0.87165 0.0
C256 C 0.11907 0.94209 0.91427 0.0
O257 O 0.09129 0.89714 0.89335 0.0
O258 O 0.07906 0.91415 0.87948 0.0
C259 C 0.07366 0.91589 0.82291 0.0
N260 N 0.08747 0.93225 0.83181 0.0
C261 C 0.08997 0.94699 0.79136 0.0
C262 C 0.07568 0.93032 0.78179 0.0
C263 C 0.06753 0.9147 0.79762 0.0
C264 C 0.09543 0.94736 0.81674 0.0
H265 H 0.0674 0.90386 0.83503 0.0
C266 C 0.07777 0.89997 0.89072 0.0
O267 O 0.12458 0.89474 0.89363 0.0
O268 O 0.1131 0.89255 0.85481 0.0
N269 N 0.11495 0.96177 0.8512 0.0
C270 C 0.12933 0.97645 0.86285 0.0
C271 C 0.13939 0.99302 0.84933 0.0
C272 C 0.13447 0.99439 0.8241 0.0
C273 C 0.11949 0.97918 0.81262 0.0
C274 C 0.10991 0.96305 0.82708 0.0
H275 H 0.13316 0.97548 0.88225 0.0
O276 O 0.14071 0.92924 0.86164 0.0
O277 O 0.11408 0.92815 0.85614 0.0
O278 O 0.12421 0.93051 0.90902 0.0
O279 O 0.10893 0.94546 0.89963 0.0
C280 C 0.11398 0.97923 0.78719 0.0
C281 C 0.09924 0.96314 0.77656 0.0
H282 H 0.07098 0.92932 0.76226 0.0
H283 H 0.05656 0.90177 0.79033 0.0
H284 H 0.15096 0.00469 0.85831 0.0
H285 H 0.1424 0.00713 0.81364 0.0
H286 H 0.12119 0.99147 0.7755 0.0
H287 H 0.09533 0.96326 0.75686 0.0
Mn288 Mn 0.08026 0.20562 0.88378 0.0
Mn289 Mn 0.05676 0.15949 0.87586 0.0
C290 C 0.05619 0.19253 0.85515 0.0
C291 C 0.10457 0.2346 0.87348 0.0
C292 C 0.05099 0.17876 0.92084 0.0
O293 O 0.09715 0.19765 0.90022 0.0
O294 O 0.08095 0.16727 0.89203 0.0
C295 C 0.08104 0.15658 0.83743 0.0
N296 N 0.06404 0.15323 0.84461 0.0
C297 C 0.05054 0.13682 0.80559 0.0
C298 C 0.06788 0.14 0.79782 0.0
C299 C 0.0832 0.14999 0.81377 0.0
C300 C 0.04924 0.14376 0.82934 0.0
H301 H 0.09283 0.1642 0.84969 0.0
C302 C 0.09507 0.18152 0.90107 0.0
O303 O 0.09621 0.23142 0.89535 0.0
O304 O 0.0993 0.22074 0.85807 0.0
N305 N 0.03307 0.14981 0.8603 0.0
C306 C 0.01754 0.14881 0.87001 0.0
C307 C 0.00106 0.13971 0.85605 0.0
C308 C 0.00066 0.1315 0.83249 0.0
C309 C 0.01677 0.13252 0.82302 0.0
C310 C 0.03279 0.14179 0.83776 0.0
H311 H 0.01775 0.15496 0.88822 0.0
O312 O 0.0618 0.20888 0.86415 0.0
O313 O 0.0651 0.18437 0.86271 0.0
O314 O 0.06244 0.19517 0.91397 0.0
O315 O 0.04806 0.1645 0.90826 0.0
C316 C 0.01765 0.12495 0.79939 0.0
C317 C 0.03454 0.1272 0.7906 0.0
H318 H 0.0696 0.13494 0.77959 0.0
H319 H 0.09664 0.15256 0.80787 0.0
H320 H 0.98869 0.13898 0.86347 0.0
H321 H 0.98792 0.12452 0.82177 0.0
H322 H 0.00546 0.11753 0.78767 0.0
H323 H 0.03509 0.12157 0.77221 0.0
Mn324 Mn 0.87157 0.78571 0.61473 0.0
Mn325 Mn 0.89272 0.83107 0.62841 0.0
C326 C 0.85894 0.79626 0.64459 0.0
C327 C 0.8681 0.75684 0.6224 0.0
C328 C 0.87039 0.8143 0.58018 0.0
O329 O 0.89716 0.79566 0.59965 0.0
O330 O 0.91078 0.82505 0.61333 0.0
C331 C 0.91756 0.83253 0.66964 0.0
N332 N 0.90401 0.83568 0.66134 0.0
C333 C 0.90297 0.8486 0.70194 0.0
C334 C 0.91701 0.8456 0.71088 0.0
C335 C 0.9243 0.83749 0.69467 0.0
C336 C 0.89687 0.84345 0.67678 0.0
H337 H 0.92316 0.82627 0.65723 0.0
C338 C 0.91118 0.81173 0.60195 0.0
O339 O 0.86313 0.76064 0.60076 0.0
O340 O 0.87571 0.77002 0.63901 0.0
N341 N 0.87687 0.83886 0.64314 0.0
C342 C 0.86264 0.83977 0.63209 0.0
C343 C 0.85342 0.847 0.64604 0.0
C344 C 0.85903 0.85339 0.67109 0.0
C345 C 0.87385 0.85251 0.68195 0.0
C346 C 0.88258 0.84525 0.66707 0.0
H347 H 0.8583 0.83491 0.61283 0.0
O348 O 0.84889 0.7804 0.63376 0.0
O349 O 0.87618 0.80534 0.63795 0.0
O350 O 0.86463 0.79745 0.58557 0.0
O351 O 0.88129 0.82773 0.59443 0.0
C352 C 0.88001 0.85814 0.70716 0.0
C353 C 0.89455 0.85616 0.71716 0.0
H354 H 0.92218 0.84932 0.73022 0.0
H355 H 0.93507 0.83505 0.70148 0.0
H356 H 0.84199 0.84762 0.63754 0.0
H357 H 0.85177 0.85879 0.68188 0.0
H358 H 0.87346 0.86371 0.71917 0.0
H359 H 0.89897 0.86027 0.7367 0.0
Mn360 Mn 0.21452 0.0883 0.61408 0.0
Mn361 Mn 0.16928 0.06638 0.62868 0.0
C362 C 0.20304 0.06488 0.64363 0.0
C363 C 0.24431 0.11226 0.62127 0.0
C364 C 0.18449 0.05954 0.57993 0.0
O365 O 0.20598 0.10535 0.59978 0.0
O366 O 0.17663 0.09085 0.61368 0.0
C367 C 0.17005 0.0907 0.67019 0.0
N368 N 0.16567 0.07363 0.66179 0.0
C369 C 0.15254 0.06012 0.70252 0.0
C370 C 0.1568 0.07754 0.71156 0.0
C371 C 0.16563 0.0929 0.69534 0.0
C372 C 0.15721 0.05877 0.67725 0.0
H373 H 0.17686 0.10252 0.65776 0.0
C374 C 0.19033 0.10424 0.60234 0.0
O375 O 0.23964 0.10364 0.59952 0.0
O376 O 0.23147 0.10751 0.63825 0.0
N377 N 0.16017 0.04248 0.64338 0.0
C378 C 0.15804 0.02687 0.63219 0.0
C379 C 0.14995 0.01035 0.64613 0.0
C380 C 0.14395 0.01001 0.67129 0.0
C381 C 0.14607 0.02619 0.68228 0.0
C382 C 0.15415 0.04223 0.66741 0.0
H383 H 0.16259 0.02704 0.61285 0.0
O384 O 0.21857 0.06982 0.63234 0.0
O385 O 0.19481 0.07402 0.63767 0.0
O386 O 0.20152 0.07 0.5849 0.0
O387 O 0.17151 0.05772 0.59457 0.0
C388 C 0.1409 0.02715 0.7076 0.0
C389 C 0.14417 0.04411 0.71773 0.0
H390 H 0.1535 0.07931 0.73099 0.0
H391 H 0.16904 0.10639 0.70223 0.0
H392 H 0.14838 0.99792 0.63753 0.0
H393 H 0.13788 0.99728 0.68207 0.0
H394 H 0.13472 0.015 0.7196 0.0
H395 H 0.14041 0.04473 0.73735 0.0
Mn396 Mn 0.9114 0.12217 0.61001 0.0
Mn397 Mn 0.9326 0.09792 0.62273 0.0
C398 C 0.93421 0.1326 0.64061 0.0
C399 C 0.88722 0.1276 0.61747 0.0
C400 C 0.94055 0.12194 0.57572 0.0
O401 O 0.89453 0.09724 0.5936 0.0
O402 O 0.90834 0.08155 0.60673 0.0
C403 C 0.90755 0.07292 0.66256 0.0
N404 N 0.92476 0.08586 0.65503 0.0
C405 C 0.93766 0.08429 0.69539 0.0
C406 C 0.92008 0.07087 0.70356 0.0
C407 C 0.90495 0.06522 0.6871 0.0
C408 C 0.93939 0.09151 0.67077 0.0
H409 H 0.89591 0.0685 0.64991 0.0
C410 C 0.89531 0.08247 0.59532 0.0
O411 O 0.89643 0.13262 0.5962 0.0
O412 O 0.89169 0.11892 0.63388 0.0
N413 N 0.95627 0.11202 0.63832 0.0
C414 C 0.97211 0.1258 0.62803 0.0
C415 C 0.98844 0.13344 0.64236 0.0
C416 C 0.98838 0.12665 0.66692 0.0
C417 C 0.97197 0.11229 0.67696 0.0
C418 C 0.95611 0.10528 0.66185 0.0
H419 H 0.97227 0.13098 0.60908 0.0
O420 O 0.92963 0.14379 0.63028 0.0
O421 O 0.92504 0.11556 0.63312 0.0
O422 O 0.93028 0.12861 0.58135 0.0
O423 O 0.94186 0.11003 0.58939 0.0
C424 C 0.97067 0.1048 0.70148 0.0
C425 C 0.95351 0.09091 0.71077 0.0
H426 H 0.91802 0.06489 0.72247 0.0
H427 H 0.89133 0.05491 0.6933 0.0
H428 H 0.00106 0.14451 0.63446 0.0
H429 H 0.001 0.13261 0.67795 0.0
H430 H 0.98275 0.10982 0.7135 0.0
H431 H 0.95264 0.08551 0.72985 0.0
Mn432 Mn 0.87816 0.45775 0.44708 0.0
Mn433 Mn 0.83344 0.42856 0.46047 0.0
C434 C 0.86345 0.46593 0.47686 0.0
C435 C 0.90886 0.46698 0.45489 0.0
C436 C 0.8464 0.45292 0.41328 0.0
O437 O 0.87339 0.43373 0.43101 0.0
O438 O 0.84436 0.41487 0.44415 0.0
C439 C 0.83885 0.40668 0.50031 0.0
N440 N 0.83178 0.41745 0.49298 0.0
C441 C 0.81868 0.41524 0.53463 0.0
C442 C 0.82572 0.40402 0.54259 0.0
C443 C 0.83589 0.39976 0.52537 0.0
C444 C 0.82213 0.42177 0.50945 0.0
H445 H 0.84672 0.40342 0.48715 0.0
C446 C 0.85909 0.41785 0.43275 0.0
O447 O 0.90382 0.47095 0.43342 0.0
O448 O 0.89603 0.45728 0.47123 0.0
N449 N 0.8208 0.43962 0.47638 0.0
C450 C 0.81482 0.45049 0.46561 0.0
C451 C 0.80435 0.45594 0.48027 0.0
C452 C 0.79992 0.44995 0.50569 0.0
C453 C 0.80581 0.43839 0.51613 0.0
C454 C 0.81609 0.4333 0.50055 0.0
H455 H 0.81807 0.45503 0.44603 0.0
O456 O 0.87872 0.47835 0.46663 0.0
O457 O 0.85761 0.44898 0.47009 0.0
O458 O 0.8636 0.46135 0.41837 0.0
O459 O 0.83418 0.44005 0.42718 0.0
C460 C 0.80197 0.43178 0.54143 0.0
C461 C 0.8085 0.42031 0.55072 0.0
H462 H 0.82347 0.39866 0.5619 0.0
H463 H 0.84144 0.39117 0.53141 0.0
H464 H 0.79975 0.46476 0.47201 0.0
H465 H 0.79198 0.45432 0.51701 0.0
H466 H 0.79412 0.43554 0.55397 0.0
H467 H 0.80561 0.41546 0.57029 0.0
Mn468 Mn 0.53422 0.4182 0.43957 0.0
Mn469 Mn 0.5626 0.40107 0.4483 0.0
C470 C 0.52565 0.39381 0.46702 0.0
C471 C 0.52581 0.43978 0.45069 0.0
C472 C 0.53826 0.39314 0.40149 0.0
O473 O 0.55837 0.43774 0.42402 0.0
O474 O 0.57694 0.42676 0.43552 0.0
C475 C 0.5852 0.42502 0.49076 0.0
N476 N 0.57406 0.40787 0.4811 0.0
C477 C 0.57748 0.39366 0.51903 0.0
C478 C 0.58914 0.41116 0.52931 0.0
C479 C 0.59294 0.42691 0.51516 0.0
C480 C 0.57016 0.39264 0.49464 0.0
H481 H 0.58815 0.43714 0.47992 0.0
C482 C 0.57418 0.43913 0.42569 0.0
O483 O 0.52155 0.43177 0.42848 0.0
O484 O 0.53538 0.43563 0.46592 0.0
N485 N 0.55078 0.37634 0.46084 0.0
C486 C 0.53829 0.36053 0.44893 0.0
C487 C 0.53239 0.34354 0.46103 0.0
C488 C 0.53962 0.34296 0.48502 0.0
C489 C 0.55264 0.3594 0.49675 0.0
C490 C 0.55793 0.37592 0.48383 0.0
H491 H 0.5328 0.36088 0.4304 0.0
O492 O 0.51349 0.39757 0.45811 0.0
O493 O 0.54266 0.40489 0.46038 0.0
O494 O 0.52977 0.40137 0.4089 0.0
O495 O 0.55119 0.39297 0.41419 0.0
C496 C 0.56036 0.36007 0.52093 0.0
C497 C 0.57266 0.37719 0.53214 0.0
H498 H 0.59512 0.41267 0.54813 0.0
H499 H 0.60184 0.44046 0.52302 0.0
H500 H 0.52233 0.33091 0.45185 0.0
H501 H 0.53498 0.32983 0.49433 0.0
H502 H 0.55676 0.34752 0.53121 0.0
H503 H 0.57822 0.37753 0.55095 0.0
Mn504 Mn 0.57672 0.12066 0.44873 0.0
Mn505 Mn 0.59471 0.16559 0.46338 0.0
C506 C 0.59878 0.13355 0.48011 0.0
C507 C 0.55386 0.09021 0.45491 0.0
C508 C 0.6059 0.15208 0.41664 0.0
O509 O 0.55904 0.12731 0.43177 0.0
O510 O 0.57089 0.15654 0.44529 0.0
C511 C 0.56683 0.16203 0.50105 0.0
N512 N 0.58471 0.16792 0.495 0.0
C513 C 0.59492 0.18137 0.53664 0.0
C514 C 0.57663 0.17555 0.54328 0.0
C515 C 0.56253 0.16579 0.52543 0.0
C516 C 0.59837 0.17722 0.51207 0.0
H517 H 0.55597 0.15454 0.48735 0.0
C518 C 0.55875 0.14233 0.43325 0.0
O519 O 0.56346 0.09533 0.43397 0.0
O520 O 0.5571 0.10288 0.4716 0.0
N521 N 0.61777 0.17642 0.48099 0.0
C522 C 0.63455 0.18025 0.47199 0.0
C523 C 0.6501 0.18957 0.48773 0.0
C524 C 0.64829 0.19509 0.51239 0.0
C525 C 0.63091 0.1912 0.52112 0.0
C526 C 0.61592 0.18189 0.50456 0.0
H527 H 0.63604 0.17615 0.45299 0.0
O528 O 0.59535 0.11829 0.46921 0.0
O529 O 0.58878 0.14061 0.47287 0.0
O530 O 0.596 0.13486 0.42104 0.0
O531 O 0.60605 0.16453 0.43089 0.0
C532 C 0.62783 0.19593 0.54572 0.0
C533 C 0.60984 0.19093 0.55353 0.0
H534 H 0.57325 0.1784 0.56208 0.0
H535 H 0.54837 0.16118 0.53045 0.0
H536 H 0.66346 0.19253 0.48086 0.0
H537 H 0.66031 0.20223 0.52448 0.0
H538 H 0.63916 0.20323 0.55891 0.0
H539 H 0.60761 0.19441 0.57262 0.0
Mn540 Mn 0.78696 0.53985 0.71456 0.0
Mn541 Mn 0.75925 0.49458 0.70252 0.0
C542 C 0.79559 0.52539 0.68489 0.0
C543 C 0.79531 0.57027 0.70612 0.0
C544 C 0.78442 0.50907 0.74877 0.0
O545 O 0.76283 0.53446 0.73081 0.0
O546 O 0.74515 0.5047 0.71984 0.0
C547 C 0.73532 0.49829 0.66423 0.0
N548 N 0.74695 0.49204 0.67075 0.0
C549 C 0.74401 0.47864 0.62913 0.0
C550 C 0.73192 0.48483 0.62201 0.0
C551 C 0.7276 0.49474 0.63962 0.0
C552 C 0.75133 0.48265 0.65389 0.0
H553 H 0.73201 0.50595 0.67768 0.0
C554 C 0.74744 0.51949 0.73031 0.0
O555 O 0.79958 0.56563 0.72768 0.0
O556 O 0.78572 0.55716 0.69005 0.0
N557 N 0.77072 0.48267 0.68571 0.0
C558 C 0.78254 0.4776 0.69562 0.0
C559 C 0.78801 0.46732 0.6806 0.0
C560 C 0.78114 0.46221 0.65566 0.0
C561 C 0.76885 0.46742 0.64596 0.0
C562 C 0.76369 0.47744 0.66195 0.0
H563 H 0.78781 0.4814 0.71481 0.0
O564 O 0.80774 0.5409 0.69487 0.0
O565 O 0.77862 0.51905 0.69192 0.0
O566 O 0.79144 0.52617 0.74367 0.0
O567 O 0.77204 0.49624 0.735 0.0
C568 C 0.76153 0.46307 0.62104 0.0
C569 C 0.74919 0.46877 0.61259 0.0
H570 H 0.72593 0.48213 0.60305 0.0
H571 H 0.71833 0.49963 0.63424 0.0
H572 H 0.79748 0.46331 0.68824 0.0
H573 H 0.78532 0.45419 0.64419 0.0
H574 H 0.76538 0.45546 0.60818 0.0
H575 H 0.74376 0.46547 0.59333 0.0
Mn576 Mn 0.46106 0.24621 0.70772 0.0
Mn577 Mn 0.50639 0.27115 0.69401 0.0
C578 C 0.47113 0.26773 0.67541 0.0
C579 C 0.43208 0.22053 0.7019 0.0
C580 C 0.48895 0.28 0.73822 0.0
O581 O 0.47115 0.23161 0.72554 0.0
O582 O 0.50105 0.24959 0.71568 0.0
C583 C 0.50848 0.24328 0.66175 0.0
N584 N 0.51135 0.26063 0.66486 0.0
C585 C 0.52518 0.26967 0.62324 0.0
C586 C 0.52248 0.25193 0.61963 0.0
C587 C 0.51401 0.23865 0.63893 0.0
C588 C 0.51928 0.27344 0.6463 0.0
H589 H 0.50207 0.23306 0.67658 0.0
C590 C 0.48789 0.2355 0.72662 0.0
O591 O 0.43617 0.23036 0.72259 0.0
O592 O 0.44514 0.22506 0.68533 0.0
N593 N 0.51401 0.29245 0.67308 0.0
C594 C 0.51496 0.3087 0.67916 0.0
C595 C 0.5227 0.32333 0.66163 0.0
C596 C 0.52972 0.32124 0.63829 0.0
C597 C 0.52887 0.30449 0.63264 0.0
C598 C 0.52091 0.29038 0.6508 0.0
H599 H 0.50974 0.31043 0.69716 0.0
O600 O 0.45538 0.26228 0.68632 0.0
O601 O 0.48058 0.26023 0.68338 0.0
O602 O 0.47271 0.26641 0.73507 0.0
O603 O 0.50248 0.28316 0.72376 0.0
C604 C 0.53541 0.30118 0.6096 0.0
C605 C 0.53343 0.28374 0.60481 0.0
H606 H 0.52677 0.24833 0.60209 0.0
H607 H 0.51182 0.22491 0.63626 0.0
H608 H 0.52332 0.3362 0.66613 0.0
H609 H 0.53565 0.33254 0.6248 0.0
H610 H 0.54183 0.31189 0.59531 0.0
H611 H 0.53827 0.28129 0.58686 0.0
Mn612 Mn 0.74607 0.19877 0.7211 0.0
Mn613 Mn 0.72234 0.22134 0.71677 0.0
C614 C 0.72127 0.18823 0.69375 0.0
C615 C 0.77019 0.19445 0.70844 0.0
C616 C 0.71868 0.19647 0.76114 0.0
O617 O 0.76336 0.22362 0.73752 0.0
O618 O 0.74737 0.23816 0.73009 0.0
C619 C 0.74384 0.24814 0.67621 0.0
N620 N 0.72748 0.23435 0.68513 0.0
C621 C 0.71142 0.23621 0.64816 0.0
C622 C 0.72809 0.25049 0.63861 0.0
C623 C 0.74437 0.25643 0.65266 0.0
C624 C 0.71175 0.22844 0.67169 0.0
H625 H 0.75637 0.25278 0.68701 0.0
C626 C 0.76165 0.23792 0.73819 0.0
O627 O 0.76242 0.18894 0.73062 0.0
O628 O 0.76442 0.20311 0.69402 0.0
N629 N 0.69785 0.20666 0.70393 0.0
C630 C 0.68315 0.19201 0.71508 0.0
C631 C 0.6659 0.18398 0.70302 0.0
C632 C 0.66389 0.19126 0.67984 0.0
C633 C 0.67917 0.20647 0.6689 0.0
C634 C 0.69603 0.21384 0.68173 0.0
H635 H 0.68458 0.18645 0.73298 0.0
O636 O 0.727 0.17727 0.70144 0.0
O637 O 0.73037 0.20507 0.70198 0.0
O638 O 0.72922 0.19094 0.75233 0.0
O639 O 0.71573 0.20822 0.74983 0.0
C640 C 0.67839 0.21447 0.64561 0.0
C641 C 0.69453 0.22925 0.63515 0.0
H642 H 0.72856 0.25693 0.62046 0.0
H643 H 0.7573 0.26741 0.64537 0.0
H644 H 0.65417 0.17225 0.71159 0.0
H645 H 0.65057 0.185 0.67056 0.0
H646 H 0.66551 0.20918 0.63537 0.0
H647 H 0.69381 0.23504 0.61697 0.0
Mn648 Mn 0.45321 0.20668 0.21182 0.0
Mn649 Mn 0.49796 0.22767 0.19475 0.0
C650 C 0.46286 0.19368 0.18124 0.0
C651 C 0.42378 0.20219 0.20619 0.0
C652 C 0.48318 0.20501 0.24312 0.0
O653 O 0.46321 0.23243 0.22629 0.0
O654 O 0.49251 0.24523 0.21274 0.0
C655 C 0.49687 0.25308 0.15645 0.0
N656 N 0.50066 0.23955 0.16258 0.0
C657 C 0.511 0.2392 0.1198 0.0
C658 C 0.50731 0.2532 0.11307 0.0
C659 C 0.50015 0.26013 0.13146 0.0
C660 C 0.50734 0.23264 0.14496 0.0
H661 H 0.49137 0.25844 0.17053 0.0
C662 C 0.4795 0.24609 0.22427 0.0
O663 O 0.4286 0.19795 0.22762 0.0
O664 O 0.43634 0.20989 0.18876 0.0
N665 N 0.50549 0.21257 0.17704 0.0
C666 C 0.50841 0.19915 0.18666 0.0
C667 C 0.51563 0.19083 0.17073 0.0
C668 C 0.52002 0.19658 0.14522 0.0
C669 C 0.51731 0.21071 0.13593 0.0
C670 C 0.51014 0.21854 0.15271 0.0
H671 H 0.50517 0.19475 0.20629 0.0
O672 O 0.44752 0.1837 0.19327 0.0
O673 O 0.47196 0.21106 0.18704 0.0
O674 O 0.4664 0.20067 0.23995 0.0
O675 O 0.49605 0.21519 0.22756 0.0
C676 C 0.52142 0.21733 0.11065 0.0
C677 C 0.51812 0.23146 0.10253 0.0
H678 H 0.50986 0.2587 0.09383 0.0
H679 H 0.4972 0.27089 0.12638 0.0
H680 H 0.51777 0.18 0.1781 0.0
H681 H 0.52547 0.19005 0.13294 0.0
H682 H 0.52698 0.21155 0.09724 0.0
H683 H 0.52114 0.23628 0.08297 0.0
Mn684 Mn 0.78924 0.24691 0.2156 0.0
Mn685 Mn 0.77066 0.27351 0.20173 0.0
C686 C 0.8016 0.26838 0.18339 0.0
C687 C 0.7909 0.22032 0.20982 0.0
C688 C 0.79633 0.28086 0.24649 0.0
O689 O 0.76445 0.23338 0.23334 0.0
O690 O 0.75323 0.25181 0.2224 0.0
C691 C 0.74093 0.24724 0.16763 0.0
N692 N 0.75584 0.26419 0.17171 0.0
C693 C 0.7533 0.27433 0.12965 0.0
C694 C 0.73784 0.25702 0.12505 0.0
C695 C 0.73166 0.2434 0.1441 0.0
C696 C 0.76196 0.27735 0.15346 0.0
H697 H 0.73615 0.23675 0.18223 0.0
C698 C 0.75184 0.23762 0.23372 0.0
O699 O 0.79705 0.23009 0.23052 0.0
O700 O 0.78291 0.22549 0.19321 0.0
N701 N 0.78567 0.29507 0.18184 0.0
C702 C 0.80118 0.31081 0.18896 0.0
C703 C 0.80929 0.32573 0.17192 0.0
C704 C 0.80125 0.3244 0.14789 0.0
C705 C 0.78514 0.30818 0.14113 0.0
C706 C 0.77762 0.2938 0.15897 0.0
H707 H 0.80739 0.31194 0.20744 0.0
O708 O 0.81129 0.26215 0.19422 0.0
O709 O 0.78475 0.26166 0.19137 0.0
O710 O 0.79872 0.26716 0.24289 0.0
O711 O 0.78606 0.28437 0.23231 0.0
C712 C 0.77647 0.30555 0.1172 0.0
C713 C 0.7606 0.28862 0.11143 0.0
H714 H 0.73068 0.25399 0.10691 0.0
H715 H 0.71979 0.22999 0.14065 0.0
H716 H 0.82173 0.3382 0.17727 0.0
H717 H 0.80764 0.33587 0.1347 0.0
H718 H 0.78204 0.31637 0.10295 0.0
H719 H 0.75419 0.28668 0.09284 0.0
Mn720 Mn 0.74786 0.54137 0.21599 0.0
Mn721 Mn 0.72024 0.4957 0.2067 0.0
C722 C 0.72567 0.5309 0.18449 0.0
C723 C 0.77451 0.5692 0.20789 0.0
C724 C 0.71383 0.51661 0.24852 0.0
O725 O 0.76164 0.53085 0.23497 0.0
O726 O 0.7416 0.50082 0.22866 0.0
C727 C 0.74661 0.48997 0.17608 0.0
N728 N 0.7297 0.4883 0.17876 0.0
C729 C 0.71942 0.47205 0.13886 0.0
C730 C 0.73669 0.47351 0.13572 0.0
C731 C 0.75037 0.48259 0.15436 0.0
C732 C 0.71653 0.47981 0.16079 0.0
H733 H 0.75712 0.49683 0.19044 0.0
C734 C 0.75645 0.51389 0.23823 0.0
O735 O 0.76513 0.56658 0.22874 0.0
O736 O 0.76888 0.55535 0.19239 0.0
N737 N 0.69891 0.48809 0.1858 0.0
C738 C 0.68322 0.48845 0.19125 0.0
C739 C 0.66824 0.48013 0.17435 0.0
C740 C 0.6694 0.47123 0.1523 0.0
C741 C 0.68562 0.47087 0.14722 0.0
C742 C 0.70012 0.47944 0.16472 0.0
H743 H 0.68222 0.49516 0.20824 0.0
O744 O 0.73227 0.54729 0.19388 0.0
O745 O 0.73241 0.52101 0.19345 0.0
O746 O 0.72824 0.5321 0.24426 0.0
O747 O 0.70928 0.50219 0.23525 0.0
C748 C 0.68804 0.46251 0.12535 0.0
C749 C 0.70498 0.46324 0.12106 0.0
H750 H 0.73962 0.46777 0.11904 0.0
H751 H 0.76375 0.48382 0.15204 0.0
H752 H 0.65579 0.48051 0.17837 0.0
H753 H 0.65779 0.46481 0.13935 0.0
H754 H 0.67703 0.45564 0.11157 0.0
H755 H 0.70676 0.45698 0.10401 0.0
Mn756 Mn 0.53829 0.11672 0.94729 0.0
Mn757 Mn 0.56309 0.16191 0.96124 0.0
C758 C 0.52613 0.12974 0.97386 0.0
C759 C 0.53102 0.08675 0.95664 0.0
C760 C 0.54297 0.14709 0.91094 0.0
O761 O 0.5641 0.12382 0.93549 0.0
O762 O 0.57983 0.15307 0.94959 0.0
C763 C 0.58304 0.15947 0.00637 0.0
N764 N 0.5717 0.16486 0.99569 0.0
C765 C 0.56905 0.17764 0.03556 0.0
C766 C 0.5808 0.17233 0.04696 0.0
C767 C 0.58779 0.16317 0.03231 0.0
C768 C 0.56477 0.17354 0.00966 0.0
H769 H 0.58839 0.15238 0.99517 0.0
C770 C 0.57909 0.13894 0.93904 0.0
O771 O 0.52806 0.09115 0.93401 0.0
O772 O 0.53874 0.09985 0.97331 0.0
N773 N 0.54878 0.17247 0.97277 0.0
C774 C 0.53749 0.17651 0.95891 0.0
C775 C 0.5295 0.18586 0.97065 0.0
C776 C 0.53332 0.19111 0.99641 0.0
C777 C 0.54508 0.18692 0.01024 0.0
C778 C 0.55283 0.1778 0.99742 0.0
H779 H 0.53464 0.17268 0.93904 0.0
O780 O 0.51544 0.11408 0.96292 0.0
O781 O 0.54365 0.13698 0.96957 0.0
O782 O 0.53516 0.13 0.91651 0.0
O783 O 0.55421 0.15994 0.92578 0.0
C784 C 0.54938 0.19141 0.03623 0.0
C785 C 0.56127 0.18667 0.04892 0.0
H786 H 0.58449 0.17514 0.06696 0.0
H787 H 0.5968 0.15896 0.041 0.0
H788 H 0.52047 0.18907 0.95985 0.0
H789 H 0.5272 0.1984 0.00532 0.0
H790 H 0.54351 0.19838 0.0467 0.0
H791 H 0.56432 0.19002 0.06898 0.0
Mn792 Mn 0.87858 0.41574 0.94085 0.0
Mn793 Mn 0.83272 0.39214 0.95093 0.0
C794 C 0.86652 0.39251 0.97065 0.0
C795 C 0.90744 0.44069 0.94973 0.0
C796 C 0.85122 0.38595 0.90521 0.0
O797 O 0.86965 0.43163 0.92371 0.0
O798 O 0.83977 0.41637 0.93525 0.0
C799 C 0.83018 0.4159 0.99059 0.0
N800 N 0.82702 0.39906 0.98293 0.0
C801 C 0.81257 0.38538 0.023 0.0
C802 C 0.81556 0.40256 0.03126 0.0
C803 C 0.82444 0.41789 0.015 0.0
C804 C 0.81852 0.38422 -0.00157 0.0
H805 H 0.83706 0.42772 0.97817 0.0
C806 C 0.85368 0.42995 0.92457 0.0
O807 O 0.90409 0.43182 0.92824 0.0
O808 O 0.89378 0.43559 0.96543 0.0
N809 N 0.82388 0.36843 0.96614 0.0
C810 C 0.82291 0.35307 0.95579 0.0
C811 C 0.81486 0.33663 0.9699 0.0
C812 C 0.80773 0.33609 0.99436 0.0
C813 C 0.80864 0.352 0.00446 0.0
C814 C 0.81671 0.36796 0.98945 0.0
H815 H 0.82835 0.35338 0.93699 0.0
O816 O 0.88278 0.39819 0.96127 0.0
O817 O 0.85795 0.40093 0.96281 0.0
O818 O 0.86778 0.39702 0.91182 0.0
O819 O 0.83721 0.38371 0.91783 0.0
C820 C 0.80223 0.35275 0.02906 0.0
C821 C 0.80423 0.36944 0.03834 0.0
H822 H 0.81123 0.40417 0.05012 0.0
H823 H 0.82688 0.43121 0.0213 0.0
H824 H 0.81422 0.32441 0.96197 0.0
H825 H 0.80171 0.32344 0.00529 0.0
H826 H 0.79602 0.34066 0.04117 0.0
H827 H 0.79949 0.36992 0.05743 0.0
Mn828 Mn 0.57552 0.45695 0.94565 0.0
Mn829 Mn 0.59684 0.4327 0.95818 0.0
C830 C 0.59811 0.46726 0.97641 0.0
C831 C 0.55157 0.46276 0.95263 0.0
C832 C 0.6067 0.45867 0.91318 0.0
O833 O 0.55877 0.43249 0.9285 0.0
O834 O 0.57378 0.41743 0.93853 0.0
C835 C 0.56879 0.40552 0.99336 0.0
N836 N 0.58656 0.41858 0.98854 0.0
C837 C 0.59631 0.41401 0.02979 0.0
C838 C 0.57814 0.40042 0.03515 0.0
C839 C 0.56431 0.39622 0.01689 0.0
C840 C 0.59993 0.42287 0.00606 0.0
H841 H 0.55813 0.40222 0.97934 0.0
C842 C 0.56044 0.41822 0.92792 0.0
O843 O 0.56098 0.46774 0.93152 0.0
O844 O 0.55561 0.45375 0.96908 0.0
N845 N 0.61933 0.44522 0.97708 0.0
C846 C 0.63604 0.4591 0.96928 0.0
C847 C 0.65134 0.46516 0.98549 0.0
C848 C 0.64937 0.45668 0.00933 0.0
C849 C 0.63209 0.44225 0.01681 0.0
C850 C 0.61735 0.43679 -0.00016 0.0
H851 H 0.63767 0.46558 0.9509 0.0
O852 O 0.59347 0.47837 0.96602 0.0
O853 O 0.58896 0.4501 0.96914 0.0
O854 O 0.59473 0.4635 0.9174 0.0
O855 O 0.60855 0.44721 0.92716 0.0
C856 C 0.62885 0.43321 0.04056 0.0
C857 C 0.61096 0.41919 0.04711 0.0
H858 H 0.57463 0.3932 0.05326 0.0
H859 H 0.55023 0.3858 0.02092 0.0
H860 H 0.66462 0.47631 0.97959 0.0
H861 H 0.6612 0.46141 0.02178 0.0
H862 H 0.63998 0.43707 0.05405 0.0
H863 H 0.6086 0.41253 0.06557 0.0
Mn864 Mn 0.54226 0.79203 0.78121 0.0
Mn865 Mn 0.49695 0.76675 0.79424 0.0
C866 C 0.52897 0.80321 0.80907 0.0
C867 C 0.57223 0.79917 0.79011 0.0
C868 C 0.51218 0.78846 0.74517 0.0
O869 O 0.53531 0.76658 0.76777 0.0
O870 O 0.50594 0.75046 0.78127 0.0
C871 C 0.49896 0.7453 0.83778 0.0
N872 N 0.49368 0.75699 0.82806 0.0
C873 C 0.48029 0.75809 0.86821 0.0
C874 C 0.4855 0.74597 0.87862 0.0
C875 C 0.49492 0.7396 0.86336 0.0
C876 C 0.48476 0.76334 0.84263 0.0
H877 H 0.50623 0.7404 0.8261 0.0
C878 C 0.52017 0.7515 0.77063 0.0
O879 O 0.56782 0.80273 0.76787 0.0
O880 O 0.55912 0.79094 0.80668 0.0
N881 N 0.48629 0.78067 0.80702 0.0
C882 C 0.48248 0.79249 0.79414 0.0
C883 C 0.47295 0.80002 0.80661 0.0
C884 C 0.46731 0.79521 0.83207 0.0
C885 C 0.47129 0.78293 0.8449 0.0
C886 C 0.48064 0.7757 0.83139 0.0
H887 H 0.48661 0.79611 0.77449 0.0
O888 O 0.54466 0.81431 0.79851 0.0
O889 O 0.52183 0.78587 0.80357 0.0
O890 O 0.52919 0.79607 0.75102 0.0
O891 O 0.49919 0.77677 0.75939 0.0
C892 C 0.46639 0.77761 0.87055 0.0
C893 C 0.471 0.7653 0.88224 0.0
H894 H 0.48241 0.74155 0.89834 0.0
H895 H 0.49905 0.7303 0.87129 0.0
H896 H 0.46991 0.80947 0.79658 0.0
H897 H 0.45988 0.80098 0.84153 0.0
H898 H 0.4592 0.783 0.88152 0.0
H899 H 0.46734 0.76147 0.90206 0.0
Mn900 Mn 0.20563 0.75594 0.77818 0.0
Mn901 Mn 0.2285 0.73358 0.79292 0.0
C902 C 0.19312 0.73209 0.80701 0.0
C903 C 0.1999 0.7799 0.7858 0.0
C904 C 0.20695 0.72732 0.74378 0.0
O905 O 0.2314 0.77304 0.76456 0.0
O906 O 0.24586 0.7581 0.77822 0.0
C907 C 0.25178 0.75764 0.83484 0.0
N908 N 0.23908 0.74064 0.82622 0.0
C909 C 0.2381 0.72694 0.86704 0.0
C910 C 0.25126 0.74429 0.87631 0.0
C911 C 0.25809 0.75971 0.86015 0.0
C912 C 0.23239 0.72572 0.84161 0.0
H913 H 0.25701 0.76951 0.82247 0.0
C914 C 0.24581 0.7717 0.76713 0.0
O915 O 0.19618 0.77162 0.76379 0.0
O916 O 0.20775 0.77484 0.80275 0.0
N917 N 0.2135 0.70962 0.80732 0.0
C918 C 0.20014 0.69407 0.79584 0.0
C919 C 0.19148 0.6775 0.80965 0.0
C920 C 0.19677 0.67705 0.835 0.0
C921 C 0.21074 0.69316 0.84628 0.0
C922 C 0.21895 0.70925 0.83152 0.0
H923 H 0.19603 0.69433 0.77636 0.0
O924 O 0.1828 0.73734 0.79564 0.0
O925 O 0.2106 0.74124 0.80164 0.0
O926 O 0.20057 0.73797 0.74864 0.0
O927 O 0.2178 0.72516 0.75864 0.0
C928 C 0.21653 0.694 0.87177 0.0
C929 C 0.23018 0.71089 0.88216 0.0
H930 H 0.2561 0.74597 0.89586 0.0
H931 H 0.26818 0.77316 0.86721 0.0
H932 H 0.1807 0.66512 0.80081 0.0
H933 H 0.18992 0.66429 0.84568 0.0
H934 H 0.21036 0.68181 0.88369 0.0
H935 H 0.23432 0.71141 0.9019 0.0
Mn936 Mn 0.24092 0.45037 0.77997 0.0
Mn937 Mn 0.26225 0.49577 0.79341 0.0
C938 C 0.26391 0.46239 0.81025 0.0
C939 C 0.2168 0.42067 0.78715 0.0
C940 C 0.26985 0.48 0.74571 0.0
O941 O 0.22413 0.45865 0.76401 0.0
O942 O 0.2377 0.48791 0.77825 0.0
C943 C 0.23774 0.49534 0.83436 0.0
N944 N 0.25486 0.49979 0.82618 0.0
C945 C 0.26824 0.51366 0.86666 0.0
C946 C 0.25076 0.50935 0.87546 0.0
C947 C 0.23544 0.5001 0.85926 0.0
C948 C 0.26969 0.50863 0.84163 0.0
H949 H 0.22593 0.4882 0.82196 0.0
C950 C 0.22472 0.47406 0.76658 0.0
O951 O 0.22588 0.4251 0.76576 0.0
O952 O 0.22128 0.43367 0.8038 0.0
N953 N 0.28615 0.50533 0.8083 0.0
C954 C 0.30185 0.50746 0.79741 0.0
C955 C 0.31835 0.51594 0.8114 0.0
C956 C 0.31858 0.52231 0.8363 0.0
C957 C 0.30231 0.52017 0.84698 0.0
C958 C 0.2863 0.51169 0.83208 0.0
H959 H 0.30178 0.50265 0.77826 0.0
O960 O 0.25914 0.44667 0.79965 0.0
O961 O 0.25478 0.47044 0.80328 0.0
O962 O 0.25965 0.46304 0.75131 0.0
O963 O 0.27113 0.49314 0.75956 0.0
C964 C 0.30124 0.5257 0.87205 0.0
C965 C 0.28421 0.52241 0.88189 0.0
H966 H 0.24891 0.51291 0.8947 0.0
H967 H 0.22189 0.49665 0.86597 0.0
H968 H 0.33085 0.51753 0.80304 0.0
H969 H 0.33129 0.52867 0.84713 0.0
H970 H 0.31337 0.53219 0.88407 0.0
H971 H 0.28351 0.52646 0.90133 0.0
Mn972 Mn 0.45031 0.87151 0.05081 0.0
Mn973 Mn 0.42891 0.82653 0.03521 0.0
C974 C 0.46342 0.86119 0.02136 0.0
C975 C 0.45432 0.90062 0.04359 0.0
C976 C 0.45021 0.84192 0.0846 0.0
O977 O 0.42445 0.86163 0.06493 0.0
O978 O 0.41079 0.83261 0.04985 0.0
C979 C 0.40569 0.82712 0.99306 0.0
N980 N 0.41875 0.82333 0.00166 0.0
C981 C 0.42128 0.81234 0.96024 0.0
C982 C 0.40778 0.81603 0.95096 0.0
C983 C 0.39999 0.8235 0.96743 0.0
C984 C 0.42644 0.81629 0.98593 0.0
H985 H 0.39971 0.8329 0.00566 0.0
C986 C 0.41033 0.84575 0.06167 0.0
O987 O 0.45875 0.89645 0.06539 0.0
O988 O 0.44692 0.88768 0.02662 0.0
N989 N 0.44474 0.81862 0.02076 0.0
C990 C 0.45778 0.8161 0.03262 0.0
C991 C 0.46697 0.80879 0.01877 0.0
C992 C 0.46252 0.80395 0.99298 0.0
C993 C 0.44883 0.80636 0.98131 0.0
C994 C 0.44006 0.8136 0.99612 0.0
H995 H 0.46118 0.81969 0.05248 0.0
O996 O 0.47337 0.87687 0.03267 0.0
O997 O 0.44605 0.8523 0.02717 0.0
O998 O 0.45626 0.85892 0.07983 0.0
O999 O 0.43944 0.82882 0.06973 0.0
C1000 C 0.44364 0.80198 0.95553 0.0
C1001 C 0.42994 0.80506 0.94496 0.0
H1002 H 0.40335 0.81326 0.93121 0.0
H1003 H 0.38962 0.82645 0.96038 0.0
H1004 H 0.47747 0.80691 0.02794 0.0
H1005 H 0.46974 0.79844 0.9823 0.0
H1006 H 0.45022 0.79642 0.94357 0.0
H1007 H 0.42624 0.80186 0.92502 0.0
Mn1008 Mn 0.12056 0.58095 0.04482 0.0
Mn1009 Mn 0.1656 0.60776 0.0304 0.0
C1010 C 0.12944 0.60355 0.01427 0.0
C1011 C 0.09228 0.5546 0.03808 0.0
C1012 C 0.148 0.61334 0.07758 0.0
O1013 O 0.1319 0.56669 0.06011 0.0
O1014 O 0.16139 0.58504 0.04828 0.0
C1015 C 0.1686 0.58323 0.99246 0.0
N1016 N 0.17073 0.59994 -0.0013 0.0
C1017 C 0.1831 0.61216 0.95715 0.0
C1018 C 0.18114 0.59512 0.95032 0.0
C1019 C 0.17381 0.58058 0.96803 0.0
C1020 C 0.1777 0.614 0.98178 0.0
H1021 H 0.16296 0.57202 0.00602 0.0
C1022 C 0.14864 0.57055 0.05911 0.0
O1023 O 0.096 0.56356 0.05954 0.0
O1024 O 0.1053 0.56045 0.02119 0.0
N1025 N 0.17194 0.63023 0.01296 0.0
C1026 C 0.17201 0.64547 0.02206 0.0
C1027 C 0.17855 0.66114 0.00649 0.0
C1028 C 0.18514 0.66106 0.98185 0.0
C1029 C 0.18514 0.6453 0.97301 0.0
C1030 C 0.17855 0.63012 0.98945 0.0
H1031 H 0.16696 0.64563 0.04098 0.0
O1032 O 0.11368 0.59705 0.0256 0.0
O1033 O 0.13956 0.59648 0.02085 0.0
O1034 O 0.13171 0.60009 0.07352 0.0
O1035 O 0.16156 0.61716 0.06281 0.0
C1036 C 0.19099 0.64388 0.9483 0.0
C1037 C 0.18992 0.62731 0.94036 0.0
H1038 H 0.18509 0.59299 0.93148 0.0
H1039 H 0.17218 0.56736 0.96286 0.0
H1040 H 0.17845 0.67324 0.01343 0.0
H1041 H 0.19 0.67311 0.9698 0.0
H1042 H 0.19604 0.65535 0.93511 0.0
H1043 H 0.1942 0.62629 0.92119 0.0
Mn1044 Mn 0.41611 0.54163 0.04801 0.0
Mn1045 Mn 0.39131 0.56275 0.03878 0.0
C1046 C 0.39264 0.52992 0.01852 0.0
C1047 C 0.44143 0.53845 0.0389 0.0
C1048 C 0.38634 0.53832 0.08438 0.0
O1049 O 0.43163 0.56655 0.06502 0.0
O1050 O 0.41554 0.58044 0.05402 0.0
C1051 C 0.41411 0.58945 -0.00114 0.0
N1052 N 0.39755 0.57542 0.00679 0.0
C1053 C 0.38312 0.57587 0.96725 0.0
C1054 C 0.39999 0.59042 0.95872 0.0
C1055 C 0.41556 0.5972 0.97457 0.0
C1056 C 0.38249 0.56876 0.99168 0.0
H1057 H 0.42611 0.59467 0.01098 0.0
C1058 C 0.42946 0.58056 0.06432 0.0
O1059 O 0.4327 0.53284 0.06046 0.0
O1060 O 0.43596 0.5467 0.02317 0.0
N1061 N 0.36756 0.54732 0.02401 0.0
C1062 C 0.3526 0.53254 0.03448 0.0
C1063 C 0.33602 0.52372 0.0207 0.0
C1064 C 0.33494 0.5303 0.99645 0.0
C1065 C 0.35043 0.54568 0.98621 0.0
C1066 C 0.36656 0.55396 0.00089 0.0
H1067 H 0.35334 0.52743 0.05312 0.0
O1068 O 0.39878 0.51967 0.02773 0.0
O1069 O 0.40071 0.54691 0.02638 0.0
O1070 O 0.39765 0.53327 0.07734 0.0
O1071 O 0.38352 0.5498 0.07197 0.0
C1072 C 0.35065 0.55284 0.96177 0.0
C1073 C 0.36699 0.56791 0.95228 0.0
H1074 H 0.40119 0.59637 0.93995 0.0
H1075 H 0.42865 0.60836 0.96807 0.0
H1076 H 0.32413 0.51185 0.02872 0.0
H1077 H 0.32218 0.52334 0.98576 0.0
H1078 H 0.33842 0.54667 0.94993 0.0
H1079 H 0.36706 0.57311 0.9333 0.0
Mn1080 Mn 0.12453 0.54436 0.54555 0.0
Mn1081 Mn 0.17009 0.56527 0.5334 0.0
C1082 C 0.13544 0.53217 0.5154 0.0
C1083 C 0.09571 0.54092 0.53768 0.0
C1084 C 0.15234 0.54095 0.57962 0.0
O1085 O 0.13412 0.56955 0.56175 0.0
O1086 O 0.164 0.58244 0.55114 0.0
C1087 C 0.17224 0.59267 0.49585 0.0
N1088 N 0.17535 0.57871 0.50213 0.0
C1089 C 0.19022 0.5812 0.46185 0.0
C1090 C 0.18726 0.59567 0.45497 0.0
C1091 C 0.17815 0.60136 0.47201 0.0
C1092 C 0.18392 0.57299 0.48578 0.0
H1093 H 0.16534 0.59714 0.50898 0.0
C1094 C 0.15055 0.5831 0.56156 0.0
O1095 O 0.09936 0.53563 0.55915 0.0
O1096 O 0.10903 0.54886 0.52133 0.0
N1097 N 0.17832 0.55058 0.51625 0.0
C1098 C 0.1793 0.53587 0.52533 0.0
C1099 C 0.18772 0.52825 0.51042 0.0
C1100 C 0.19534 0.53603 0.48659 0.0
C1101 C 0.19428 0.55125 0.47772 0.0
C1102 C 0.18569 0.55822 0.4934 0.0
H1103 H 0.1737 0.53001 0.54381 0.0
O1104 O 0.11946 0.52205 0.52584 0.0
O1105 O 0.14452 0.54934 0.52247 0.0
O1106 O 0.13581 0.53681 0.57467 0.0
O1107 O 0.16602 0.55155 0.56555 0.0
C1108 C 0.20125 0.55968 0.45386 0.0
C1109 C 0.19908 0.57453 0.44584 0.0
H1110 H 0.19184 0.60244 0.43663 0.0
H1111 H 0.17576 0.61247 0.46682 0.0
H1112 H 0.18847 0.5165 0.51737 0.0
H1113 H 0.20191 0.53016 0.47523 0.0
H1114 H 0.20814 0.55473 0.4414 0.0
H1115 H 0.20424 0.5807 0.42728 0.0
Mn1116 Mn 0.45654 0.58044 0.55737 0.0
Mn1117 Mn 0.43846 0.60803 0.54855 0.0
C1118 C 0.46999 0.60435 0.52873 0.0
C1119 C 0.45764 0.55406 0.5473 0.0
C1120 C 0.46158 0.61054 0.59457 0.0
O1121 O 0.4311 0.56589 0.57327 0.0
O1122 O 0.41947 0.5842 0.5634 0.0
C1123 C 0.41137 0.58686 0.50811 0.0
N1124 N 0.4261 0.60284 0.51635 0.0
C1125 C 0.42735 0.61809 0.47681 0.0
C1126 C 0.41211 0.60182 0.46795 0.0
C1127 C 0.40412 0.58613 0.48366 0.0
C1128 C 0.43391 0.61801 0.50139 0.0
H1129 H 0.40524 0.57476 0.52011 0.0
C1130 C 0.41799 0.56945 0.57297 0.0
O1131 O 0.46343 0.56221 0.56924 0.0
O1132 O 0.4505 0.56081 0.53174 0.0
N1133 N 0.45528 0.63155 0.53419 0.0
C1134 C 0.47054 0.6458 0.54501 0.0
C1135 C 0.4805 0.66237 0.53145 0.0
C1136 C 0.4746 0.66418 0.50705 0.0
C1137 C 0.45874 0.64941 0.49644 0.0
C1138 C 0.44929 0.63327 0.51092 0.0
H1139 H 0.47514 0.64449 0.56376 0.0
O1140 O 0.47927 0.59712 0.53797 0.0
O1141 O 0.45297 0.59715 0.53618 0.0
O1142 O 0.46547 0.59836 0.5875 0.0
O1143 O 0.45118 0.61473 0.58191 0.0
C1144 C 0.45217 0.64991 0.47183 0.0
C1145 C 0.4365 0.63425 0.46201 0.0
H1146 H 0.40654 0.60117 0.44905 0.0
H1147 H 0.39242 0.5735 0.47691 0.0
H1148 H 0.49274 0.6737 0.53976 0.0
H1149 H 0.48243 0.67691 0.49654 0.0
H1150 H 0.45924 0.66216 0.46014 0.0
H1151 H 0.43175 0.63472 0.44292 0.0
Mn1152 Mn 0.41584 0.87582 0.54826 0.0
Mn1153 Mn 0.38889 0.83019 0.53794 0.0
C1154 C 0.39256 0.86546 0.51848 0.0
C1155 C 0.44203 0.90385 0.53941 0.0
C1156 C 0.38522 0.84988 0.58422 0.0
O1157 O 0.43035 0.86498 0.56465 0.0
O1158 O 0.41252 0.8352 0.55347 0.0
C1159 C 0.41097 0.82515 0.49807 0.0
N1160 N 0.39475 0.82353 0.50586 0.0
C1161 C 0.38008 0.80937 0.4661 0.0
C1162 C 0.39661 0.81079 0.45768 0.0
C1163 C 0.41212 0.81877 0.47371 0.0
C1164 C 0.37975 0.81592 0.49058 0.0
H1165 H 0.42292 0.83128 0.51035 0.0
C1166 C 0.42696 0.84835 0.56385 0.0
O1167 O 0.43343 0.90089 0.56106 0.0
O1168 O 0.43595 0.89018 0.5235 0.0
N1169 N 0.36554 0.82334 0.52288 0.0
C1170 C 0.351 0.82401 0.53327 0.0
C1171 C 0.33454 0.81708 0.51937 0.0
C1172 C 0.33312 0.80937 0.49506 0.0
C1173 C 0.3482 0.80866 0.48488 0.0
C1174 C 0.36422 0.81569 0.49968 0.0
H1175 H 0.35199 0.82987 0.55198 0.0
O1176 O 0.39928 0.88178 0.52821 0.0
O1177 O 0.39979 0.85575 0.52622 0.0
O1178 O 0.39732 0.86614 0.5777 0.0
O1179 O 0.38146 0.83556 0.57118 0.0
C1180 C 0.3481 0.80164 0.46038 0.0
C1181 C 0.36404 0.80202 0.45098 0.0
H1182 H 0.39758 0.80596 0.43887 0.0
H1183 H 0.42494 0.81999 0.46731 0.0
H1184 H 0.32297 0.8177 0.52735 0.0
H1185 H 0.32045 0.80418 0.48431 0.0
H1186 H 0.33594 0.79621 0.44844 0.0
H1187 H 0.36389 0.79685 0.43196 0.0
Mn1188 Mn 0.2046 0.45359 0.27477 0.0
Mn1189 Mn 0.22859 0.49913 0.28687 0.0
C1190 C 0.19319 0.46634 0.30323 0.0
C1191 C 0.19866 0.42402 0.28406 0.0
C1192 C 0.20647 0.48273 0.2384 0.0
O1193 O 0.23007 0.46139 0.26054 0.0
O1194 O 0.24543 0.49096 0.27346 0.0
C1195 C 0.2519 0.49941 0.32952 0.0
N1196 N 0.23934 0.50364 0.32015 0.0
C1197 C 0.23959 0.51881 0.35928 0.0
C1198 C 0.2526 0.51469 0.36934 0.0
C1199 C 0.25871 0.50487 0.35443 0.0
C1200 C 0.23323 0.51292 0.3344 0.0
H1201 H 0.25669 0.49195 0.31804 0.0
C1202 C 0.24484 0.47691 0.26289 0.0
O1203 O 0.19449 0.42795 0.26191 0.0
O1204 O 0.20686 0.4374 0.30026 0.0
N1205 N 0.21398 0.5089 0.30001 0.0
C1206 C 0.2006 0.51079 0.28803 0.0
C1207 C 0.19252 0.51973 0.3007 0.0
C1208 C 0.19849 0.52688 0.32535 0.0
C1209 C 0.21243 0.52496 0.33715 0.0
C1210 C 0.21988 0.51581 0.32367 0.0
H1211 H 0.19608 0.50546 0.269 0.0
O1212 O 0.18231 0.45051 0.29285 0.0
O1213 O 0.21047 0.47405 0.29704 0.0
O1214 O 0.19937 0.46581 0.24452 0.0
O1215 O 0.2179 0.49601 0.25242 0.0
C1216 C 0.21912 0.53161 0.36186 0.0
C1217 C 0.23258 0.5284 0.37301 0.0
H1218 H 0.25791 0.5189 0.38853 0.0
H1219 H 0.26871 0.50158 0.36209 0.0
H1220 H 0.18177 0.52116 0.29146 0.0
H1221 H 0.19221 0.53375 0.33508 0.0
H1222 H 0.21378 0.53893 0.37263 0.0
H1223 H 0.23732 0.53325 0.39223 0.0
Mn1224 Mn 0.53911 0.7507 0.28542 0.0
Mn1225 Mn 0.49456 0.72624 0.30338 0.0
C1226 C 0.53032 0.72839 0.31641 0.0
C1227 C 0.5684 0.77607 0.29032 0.0
C1228 C 0.50915 0.71882 0.25449 0.0
O1229 O 0.52841 0.76586 0.27109 0.0
O1230 O 0.49933 0.74912 0.2855 0.0
C1231 C 0.49496 0.75216 0.34205 0.0
N1232 N 0.49153 0.73501 0.33568 0.0
C1233 C 0.48086 0.72375 0.37817 0.0
C1234 C 0.48416 0.74128 0.38516 0.0
C1235 C 0.49129 0.75556 0.36703 0.0
C1236 C 0.48475 0.72119 0.35299 0.0
H1237 H 0.50046 0.76316 0.32816 0.0
C1238 C 0.51204 0.76295 0.27344 0.0
O1239 O 0.56344 0.76687 0.26903 0.0
O1240 O 0.55602 0.77112 0.30804 0.0
N1241 N 0.48773 0.70368 0.32089 0.0
C1242 C 0.4861 0.68782 0.31139 0.0
C1243 C 0.47951 0.67228 0.32724 0.0
C1244 C 0.47444 0.67314 0.35257 0.0
C1245 C 0.47597 0.68953 0.3618 0.0
C1246 C 0.48253 0.70453 0.34507 0.0
H1247 H 0.4899 0.68706 0.29191 0.0
O1248 O 0.54551 0.73392 0.30388 0.0
O1249 O 0.52077 0.73624 0.31072 0.0
O1250 O 0.52595 0.73128 0.25747 0.0
O1251 O 0.49646 0.71599 0.2704 0.0
C1252 C 0.47163 0.69169 0.38711 0.0
C1253 C 0.47413 0.70881 0.39531 0.0
H1254 H 0.48141 0.74397 0.40442 0.0
H1255 H 0.49396 0.76914 0.37231 0.0
H1256 H 0.47837 0.65968 0.31998 0.0
H1257 H 0.46951 0.66117 0.3648 0.0
H1258 H 0.46665 0.68036 0.40053 0.0
H1259 H 0.471 0.71038 0.41491 0.0
Mn1260 Mn 0.24046 0.78871 0.28146 0.0
Mn1261 Mn 0.26077 0.76341 0.29273 0.0
C1262 C 0.26438 0.79924 0.31003 0.0
C1263 C 0.21734 0.79534 0.29058 0.0
C1264 C 0.2678 0.78678 0.24524 0.0
O1265 O 0.22251 0.76377 0.26635 0.0
O1266 O 0.23579 0.74731 0.27825 0.0
C1267 C 0.2366 0.73968 0.33421 0.0
N1268 N 0.25371 0.75205 0.32558 0.0
C1269 C 0.26747 0.75141 0.36565 0.0
C1270 C 0.25001 0.73856 0.37493 0.0
C1271 C 0.23451 0.7327 0.35915 0.0
C1272 C 0.26872 0.7578 0.34059 0.0
H1273 H 0.22466 0.73519 0.32216 0.0
C1274 C 0.22271 0.74869 0.26778 0.0
O1275 O 0.22567 0.79959 0.26861 0.0
O1276 O 0.22195 0.78662 0.3067 0.0
N1277 N 0.28502 0.77714 0.30679 0.0
C1278 C 0.30072 0.79037 0.29545 0.0
C1279 C 0.3174 0.79815 0.30899 0.0
C1280 C 0.31781 0.79212 0.3339 0.0
C1281 C 0.30153 0.77831 0.34503 0.0
C1282 C 0.28533 0.77099 0.33057 0.0
H1283 H 0.30049 0.79506 0.27631 0.0
O1284 O 0.25975 0.81048 0.30001 0.0
O1285 O 0.2545 0.78199 0.30357 0.0
O1286 O 0.25811 0.79397 0.25155 0.0
O1287 O 0.26918 0.77485 0.25877 0.0
C1288 C 0.30065 0.77183 0.37014 0.0
C1289 C 0.28363 0.75841 0.38045 0.0
H1290 H 0.24832 0.73323 0.3942 0.0
H1291 H 0.22097 0.72286 0.36622 0.0
H1292 H 0.3299 0.80881 0.30027 0.0
H1293 H 0.33066 0.79831 0.34439 0.0
H1294 H 0.31294 0.7773 0.38183 0.0
H1295 H 0.28309 0.75374 0.3999 0.0
C1296 C 0.15772 0.05162 0.08759 0.0
C1297 C 0.17623 0.06581 0.08791 0.0
C1298 C 0.15215 0.03617 0.07221 0.0
C1299 C 0.16598 0.00808 0.03567 0.0
H1300 H 0.12758 0.00242 0.98901 0.0
C1301 C 0.14364 0.96025 0.94646 0.0
C1302 C 0.12536 0.95267 0.9382 0.0
C1303 C 0.15007 0.97246 0.96718 0.0
C1304 C 0.13801 0.00344 0.00218 0.0
H1305 H 0.2036 0.07411 0.07371 0.0
H1306 H 0.19371 0.04684 0.04689 0.0
H1307 H 0.13853 0.02609 0.02159 0.0
H1308 H 0.09909 0.95063 0.94602 0.0
H1309 H 0.10987 0.97095 0.98289 0.0
H1310 H 0.16522 0.98514 0.01648 0.0
C1311 C 0.18361 0.0479 0.05852 0.0
C1312 C 0.14436 0.01713 0.02076 0.0
C1313 C 0.18922 0.06352 0.07379 0.0
C1314 C 0.11333 0.95654 0.95184 0.0
C1315 C 0.11959 0.96833 0.97283 0.0
C1316 C 0.15938 0.99408 0.01724 0.0
C1317 C 0.16493 0.03442 0.05699 0.0
C1318 C 0.15835 0.01958 0.0377 0.0
C1319 C 0.1382 0.97701 0.98023 0.0
C1320 C 0.14525 0.99156 0.00029 0.0
H1321 H 0.14732 0.05274 0.09839 0.0
H1322 H 0.13768 0.02583 0.07154 0.0
H1323 H 0.17681 0.00974 0.04856 0.0
H1324 H 0.15318 0.95751 0.93609 0.0
H1325 H 0.16449 0.97893 0.97217 0.0
C1326 C 0.9404 0.10913 0.08533 0.0
C1327 C 0.92548 0.11228 0.08679 0.0
C1328 C 0.95624 0.1211 0.07182 0.0
C1329 C 0.97136 0.15468 0.01917 0.0
H1330 H 0.01856 0.15922 0.03536 0.0
C1331 C 0.03457 0.18865 0.95129 0.0
C1332 C 0.04 0.17592 0.94415 0.0
C1333 C 0.02268 0.18495 0.97201 0.0
C1334 C 0.00551 0.15823 0.03077 0.0
H1335 H 0.91603 0.13121 0.07635 0.0
H1336 H 0.94397 0.15242 0.05319 0.0
H1337 H 0.99385 0.14618 0.06689 0.0
H1338 H 0.038 0.14984 0.95364 0.0
H1339 H 0.0177 0.14368 0.99024 0.0
H1340 H 0.98316 0.16664 0.98289 0.0
C1341 C 0.94318 0.14037 0.06202 0.0
C1342 C 0.9913 0.15064 0.0487 0.0
C1343 C 0.92719 0.12826 0.07542 0.0
C1344 C 0.03397 0.15984 0.95868 0.0
C1345 C 0.02247 0.15638 0.97969 0.0
C1346 C 0.9857 0.16257 0.00141 0.0
C1347 C 0.95775 0.13672 0.0596 0.0
C1348 C 0.9738 0.14806 0.04272 0.0
C1349 C 0.01646 0.16873 0.98625 0.0
C1350 C 0.00266 0.16377 0.00673 0.0
H1351 H 0.93966 0.09701 0.09383 0.0
H1352 H 0.96695 0.11757 0.07006 0.0
H1353 H 0.95808 0.15278 0.01373 0.0
H1354 H 0.03894 0.20109 0.94029 0.0
H1355 H 0.01816 0.19463 0.97673 0.0
C1356 C 0.83057 0.87347 0.96197 0.0
C1357 C 0.81621 0.8618 0.94563 0.0
C1358 C 0.83545 0.86629 0.9826 0.0
C1359 C 0.82181 0.82332 0.02032 0.0
H1360 H 0.87437 0.84829 0.03289 0.0
C1361 C 0.86632 0.79701 0.07394 0.0
C1362 C 0.8783 0.80948 0.09236 0.0
C1363 C 0.85516 0.80144 0.05912 0.0
C1364 C 0.85964 0.84125 0.02967 0.0
H1365 H 0.79527 0.83359 0.93821 0.0
H1366 H 0.80438 0.82077 0.97354 0.0
H1367 H 0.86232 0.86019 0.00068 0.0
H1368 H 0.88646 0.83547 0.11143 0.0
H1369 H 0.86736 0.84321 0.08525 0.0
H1370 H 0.81964 0.80379 0.04879 0.0
C1371 C 0.81154 0.83555 0.97105 0.0
C1372 C 0.85266 0.84815 0.01136 0.0
C1373 C 0.80633 0.84285 0.95074 0.0
C1374 C 0.87768 0.82567 0.09713 0.0
C1375 C 0.8667 0.83012 0.08223 0.0
C1376 C 0.82893 0.81618 0.0384 0.0
C1377 C 0.82649 0.84716 0.98688 0.0
C1378 C 0.83362 0.83946 0.00659 0.0
C1379 C 0.8559 0.81839 0.06251 0.0
C1380 C 0.84788 0.82526 0.04335 0.0
H1381 H 0.83823 0.88817 0.95852 0.0
H1382 H 0.84657 0.87577 0.99485 0.0
H1383 H 0.80708 0.8163 0.01732 0.0
H1384 H 0.86639 0.7844 0.06985 0.0
H1385 H 0.84694 0.79224 0.04389 0.0
C1386 C 0.95589 0.11655 0.53885 0.0
C1387 C 0.95221 0.12863 0.55273 0.0
C1388 C 0.96862 0.12306 0.51897 0.0
C1389 C -0.00241 0.16383 0.47771 0.0
H1390 H 0.02802 0.14114 0.47528 0.0
C1391 C 0.06849 0.19257 0.42545 0.0
C1392 C 0.07075 0.17948 0.41152 0.0
C1393 C 0.05254 0.18715 0.43991 0.0
C1394 C 0.01953 0.1475 0.47557 0.0
H1395 H 0.95838 0.15686 0.55625 0.0
H1396 H 0.98134 0.16851 0.52206 0.0
H1397 H 0.00305 0.13016 0.50586 0.0
H1398 H 0.05736 0.15064 0.40054 0.0
H1399 H 0.02989 0.14133 0.42594 0.0
H1400 H 0.01491 0.18171 0.44784 0.0
C1401 C 0.97405 0.1539 0.52608 0.0
C1402 C 0.00511 0.14114 0.493 0.0
C1403 C 0.96095 0.14726 0.5457 0.0
C1404 C 0.05628 0.1611 0.41125 0.0
C1405 C 0.04051 0.15571 0.42581 0.0
C1406 C 0.01229 0.1704 0.46042 0.0
C1407 C 0.97838 0.14192 0.5129 0.0
C1408 C 0.99378 0.14904 0.49415 0.0
C1409 C 0.0387 0.16857 0.44081 0.0
C1410 C 0.02324 0.16212 0.45907 0.0
H1411 H 0.94911 0.10206 0.54367 0.0
H1412 H 0.97111 0.11331 0.50872 0.0
H1413 H 0.98911 0.17019 0.47796 0.0
H1414 H 0.07929 0.20686 0.42596 0.0
H1415 H 0.05145 0.19731 0.45138 0.0
C1416 C 0.83377 0.88893 0.40984 0.0
C1417 C 0.81544 0.88514 0.40918 0.0
C1418 C 0.83881 0.87866 0.42533 0.0
C1419 C 0.82346 0.83619 0.46129 0.0
H1420 H 0.86271 0.86769 0.50774 0.0
C1421 C 0.84548 0.80878 0.54896 0.0
C1422 C 0.86397 0.81891 0.5566 0.0
C1423 C 0.83906 0.81502 0.52875 0.0
C1424 C 0.85201 0.85862 0.49463 0.0
H1425 H 0.7878 0.86663 0.42303 0.0
H1426 H 0.79673 0.84853 0.45006 0.0
H1427 H 0.85226 0.88134 0.47584 0.0
H1428 H 0.89054 0.84257 0.5481 0.0
H1429 H 0.87971 0.8529 0.51214 0.0
H1430 H 0.82346 0.81341 0.47987 0.0
C1431 C 0.80712 0.8596 0.43858 0.0
C1432 C 0.84594 0.86649 0.47644 0.0
C1433 C 0.80205 0.87001 0.42319 0.0
C1434 C 0.87615 0.83467 0.54278 0.0
C1435 C 0.86987 0.84066 0.52232 0.0
C1436 C 0.82975 0.82824 0.47934 0.0
C1437 C 0.82564 0.86424 0.44036 0.0
C1438 C 0.83169 0.8554 0.45953 0.0
C1439 C 0.85112 0.83134 0.51561 0.0
C1440 C 0.84421 0.8394 0.49616 0.0
H1441 H 0.84446 0.9003 0.39913 0.0
H1442 H 0.85315 0.88236 0.42615 0.0
H1443 H 0.81243 0.82736 0.44841 0.0
H1444 H 0.83582 0.79662 0.55947 0.0
H1445 H 0.82453 0.80752 0.52423 0.0
C1446 C 0.10529 0.94672 0.41272 0.0
C1447 C 0.10888 0.93204 0.41205 0.0
C1448 C 0.11592 0.96214 0.42783 0.0
C1449 C 0.15911 0.98939 0.46203 0.0
H1450 H 0.12889 0.99797 0.50979 0.0
C1451 C 0.1889 0.03966 0.54837 0.0
C1452 C 0.17912 0.04825 0.55655 0.0
C1453 C 0.18205 0.0268 0.52843 0.0
C1454 C 0.1376 0.9961 0.4963 0.0
H1455 H 0.12737 0.92276 0.42545 0.0
H1456 H 0.14613 0.95002 0.45177 0.0
H1457 H 0.11437 0.97349 0.47853 0.0
H1458 H 0.15541 0.05134 0.54928 0.0
H1459 H 0.14401 0.0298 0.51377 0.0
H1460 H 0.18239 0.01231 0.47955 0.0
C1461 C 0.13493 0.94935 0.44062 0.0
C1462 C 0.12923 0.98195 0.47849 0.0
C1463 C 0.12414 0.93374 0.42565 0.0
C1464 C 0.16307 0.04468 0.54354 0.0
C1465 C 0.15646 0.03219 0.52334 0.0
C1466 C 0.16755 0.00383 0.47969 0.0
C1467 C 0.13053 0.96339 0.44241 0.0
C1468 C 0.13986 0.9785 0.46114 0.0
C1469 C 0.16547 0.02256 0.51611 0.0
C1470 C 0.15686 0.00742 0.49698 0.0
H1471 H 0.0938 0.94605 0.40235 0.0
H1472 H 0.1124 0.97291 0.42868 0.0
H1473 H 0.16757 0.98695 0.44878 0.0
H1474 H 0.20128 0.04214 0.55825 0.0
H1475 H 0.18932 0.01961 0.52353 0.0
C1476 C 0.87147 0.03865 0.03861 0.0
C1477 C 0.86058 0.04437 0.05166 0.0
C1478 C 0.86454 0.02717 0.01735 0.0
C1479 C 0.82242 0.99008 0.99308 0.0
H1480 H 0.85059 0.99689 0.93126 0.0
C1481 C 0.80099 0.93085 0.92088 0.0
C1482 C 0.81548 0.92856 0.91178 0.0
C1483 C 0.80465 0.94699 0.93363 0.0
C1484 C 0.84256 0.99472 0.94844 0.0
H1485 H 0.83407 0.04292 0.05244 0.0
H1486 H 0.82169 0.02223 0.01549 0.0
H1487 H 0.86079 0.0221 0.96183 0.0
H1488 H 0.8452 0.94174 0.90839 0.0
H1489 H 0.85154 0.96938 0.93114 0.0
H1490 H 0.8049 0.96236 0.9808 0.0
C1491 C 0.83568 0.02693 0.02162 0.0
C1492 C 0.84835 0.00921 0.96581 0.0
C1493 C 0.84277 0.03878 0.04263 0.0
C1494 C 0.83366 0.94299 0.91506 0.0
C1495 C 0.83731 0.959 0.92797 0.0
C1496 C 0.81676 0.97548 0.9759 0.0
C1497 C 0.84646 0.02089 0.00899 0.0
C1498 C 0.83861 0.00684 0.98859 0.0
C1499 C 0.82289 0.96114 0.93773 0.0
C1500 C 0.8271 0.97744 0.95375 0.0
H1501 H 0.88527 0.04282 0.0451 0.0
H1502 H 0.87306 0.02255 0.00811 0.0
H1503 H 0.81477 0.98788 0.01065 0.0
H1504 H 0.78681 0.92008 0.91846 0.0
H1505 H 0.79319 0.94828 0.94055 0.0
C1506 C 0.95166 0.83705 0.04174 0.0
C1507 C 0.94852 0.82103 0.05449 0.0
C1508 C 0.96309 0.84333 0.02036 0.0
C1509 C 0.98871 0.83087 0.97331 0.0
H1510 H 0.01956 0.88392 0.96947 0.0
C1511 C 0.05771 0.87169 0.91687 0.0
C1512 C 0.06004 0.88719 0.90326 0.0
C1513 C 0.04202 0.8614 0.93188 0.0
C1514 C 0.0109 0.86908 0.97013 0.0
H1515 H 0.95447 0.79872 0.05459 0.0
H1516 H 0.97518 0.81012 0.01795 0.0
H1517 H 0.99631 0.87044 0.00253 0.0
H1518 H 0.04697 0.90313 0.89338 0.0
H1519 H 0.01991 0.88536 0.91979 0.0
H1520 H 0.00429 0.8298 0.94142 0.0
C1521 C 0.96839 0.81758 0.02389 0.0
C1522 C -0.00255 0.8613 0.989 0.0
C1523 C 0.95659 0.81107 0.04499 0.0
C1524 C 0.0458 0.89143 0.90376 0.0
C1525 C 0.03028 0.88128 0.91893 0.0
C1526 C 0.00246 0.8387 0.95462 0.0
C1527 C 0.97209 0.83402 0.0116 0.0
C1528 C 0.98609 0.84209 0.99085 0.0
C1529 C 0.0285 0.86653 0.93369 0.0
C1530 C 0.01359 0.85789 0.95284 0.0
H1531 H 0.94539 0.84485 0.04847 0.0
H1532 H 0.9651 0.8557 0.01098 0.0
H1533 H 0.98012 0.81604 0.97392 0.0
H1534 H 0.06832 0.86795 0.9168 0.0
H1535 H 0.04094 0.85007 0.94316 0.0
C1536 C 0.12529 0.1935 0.92429 0.0
C1537 C 0.10921 0.17869 0.91397 0.0
C1538 C 0.13783 0.19033 0.93793 0.0
C1539 C 0.14936 0.15357 0.95265 0.0
H1540 H 0.16697 0.17967 0.01688 0.0
C1541 C 0.16152 0.12309 0.04348 0.0
C1542 C 0.17813 0.1335 0.05675 0.0
C1543 C 0.15732 0.13051 0.02243 0.0
C1544 C 0.16244 0.17252 -0.00123 0.0
H1545 H 0.09406 0.14897 0.90934 0.0
H1546 H 0.11535 0.1435 0.93346 0.0
H1547 H 0.15181 0.18962 0.98615 0.0
H1548 H 0.20348 0.15975 0.05839 0.0
H1549 H 0.19573 0.17305 0.02186 0.0
H1550 H 0.1588 0.13565 0.96632 0.0
C1551 C 0.11865 0.15761 0.93066 0.0
C1552 C 0.1538 0.17823 0.9811 0.0
C1553 C 0.10626 0.16076 0.91697 0.0
C1554 C 0.19063 0.15141 0.04834 0.0
C1555 C 0.18621 0.15903 0.02759 0.0
C1556 C 0.1577 0.1477 0.97049 0.0
C1557 C 0.13451 0.1723 0.94158 0.0
C1558 C 0.14659 0.16842 0.95819 0.0
C1559 C 0.16947 0.14863 0.01458 0.0
C1560 C 0.16383 0.15681 0.99398 0.0
H1561 H 0.12807 0.2075 0.92221 0.0
H1562 H 0.15 0.20199 0.94583 0.0
H1563 H 0.14444 0.146 0.93491 0.0
H1564 H 0.15167 0.10924 0.04954 0.0
H1565 H 0.14425 0.12231 0.01283 0.0
C1566 C 0.9429 0.83408 0.5868 0.0
C1567 C 0.92863 0.81576 0.58939 0.0
C1568 C 0.95856 0.83833 0.57258 0.0
C1569 C 0.9737 0.8195 0.52031 0.0
H1570 H 0.02023 0.86402 0.53295 0.0
C1571 C 0.03634 0.84794 0.45141 0.0
C1572 C 0.0411 0.86557 0.44244 0.0
C1573 C 0.02456 0.84034 0.47236 0.0
C1574 C 0.00735 0.85147 0.52935 0.0
H1575 H 0.92017 0.7874 0.58028 0.0
H1576 H 0.94785 0.79479 0.55601 0.0
H1577 H 0.99626 0.85261 0.56558 0.0
H1578 H 0.03787 0.88932 0.44881 0.0
H1579 H 0.01772 0.87622 0.48589 0.0
H1580 H 0.98501 0.8185 0.484 0.0
C1581 C 0.94666 0.80593 0.56441 0.0
C1582 C 0.99356 0.84498 0.5479 0.0
C1583 C 0.93083 0.80168 0.57845 0.0
C1584 C 0.03437 0.87569 0.45528 0.0
C1585 C 0.02296 0.86826 0.47654 0.0
C1586 C 0.98765 0.82582 0.50197 0.0
C1587 C 0.96055 0.82436 0.56081 0.0
C1588 C 0.97629 0.8293 0.54323 0.0
C1589 C 0.01776 0.85044 0.48502 0.0
C1590 C 0.00433 0.84217 0.50603 0.0
H1591 H 0.94172 0.84532 0.59488 0.0
H1592 H 0.96871 0.8527 0.56992 0.0
H1593 H 0.96057 0.80752 0.51583 0.0
H1594 H 0.04126 0.83981 0.44176 0.0
H1595 H 0.02066 0.82655 0.47859 0.0
C1596 C 0.15701 0.19556 0.45236 0.0
C1597 C 0.13907 0.18274 0.44444 0.0
C1598 C 0.16486 0.19178 0.47345 0.0
C1599 C 0.15451 0.16493 0.53202 0.0
H1600 H 0.19629 0.15883 0.51644 0.0
C1601 C 0.16927 0.11562 0.58851 0.0
C1602 C 0.1872 0.11841 0.59015 0.0
C1603 C 0.16571 0.12767 0.57462 0.0
C1604 C 0.18496 0.16091 0.52149 0.0
H1605 H 0.11499 0.1564 0.45287 0.0
H1606 H 0.12849 0.15011 0.49017 0.0
H1607 H 0.18567 0.17288 0.48498 0.0
H1608 H 0.21568 0.1368 0.57967 0.0
H1609 H 0.20954 0.15821 0.55595 0.0
H1610 H 0.15359 0.15294 0.5684 0.0
C1611 C 0.13652 0.16294 0.47993 0.0
C1612 C 0.17886 0.1689 0.50337 0.0
C1613 C 0.12886 0.16648 0.45854 0.0
C1614 C 0.20167 0.13413 0.5786 0.0
C1615 C 0.19812 0.14635 0.56487 0.0
C1616 C 0.1608 0.15727 0.55033 0.0
C1617 C 0.15468 0.17538 0.48728 0.0
C1618 C 0.16319 0.17036 0.50816 0.0
C1619 C 0.18002 0.14304 0.56221 0.0
C1620 C 0.17564 0.15444 0.54491 0.0
H1621 H 0.1652 0.20814 0.44168 0.0
H1622 H 0.17892 0.20152 0.47879 0.0
H1623 H 0.14248 0.16609 0.53617 0.0
H1624 H 0.15773 0.10367 0.59709 0.0
H1625 H 0.15155 0.12438 0.5727 0.0
C1626 C 0.86586 0.06502 0.57019 0.0
C1627 C 0.88106 0.06558 0.58239 0.0
C1628 C 0.85343 0.04945 0.55623 0.0
C1629 C 0.84058 0.00052 0.543 0.0
H1630 H 0.82657 0.01005 0.47657 0.0
C1631 C 0.83068 0.95794 0.45256 0.0
C1632 C 0.81444 0.95196 0.43845 0.0
C1633 C 0.83455 0.96964 0.47345 0.0
C1634 C 0.8301 0.00715 0.49525 0.0
H1635 H 0.89472 0.04988 0.59009 0.0
H1636 H 0.87369 0.02335 0.56537 0.0
H1637 H 0.84115 0.03498 0.50761 0.0
H1638 H 0.78943 0.95337 0.4351 0.0
H1639 H 0.79664 0.97456 0.47132 0.0
H1640 H 0.83079 0.97301 0.52962 0.0
C1641 C 0.87094 0.03461 0.56695 0.0
C1642 C 0.83839 0.0214 0.51312 0.0
C1643 C 0.88319 0.05001 0.58102 0.0
C1644 C 0.80199 0.95769 0.44582 0.0
C1645 C 0.8061 0.96981 0.46639 0.0
C1646 C 0.83263 0.98641 0.52496 0.0
C1647 C 0.85602 0.03417 0.55407 0.0
C1648 C 0.8443 0.01841 0.53693 0.0
C1649 C 0.82246 0.9759 0.48026 0.0
C1650 C 0.82778 0.98976 0.50073 0.0
H1651 H 0.86371 0.0767 0.57101 0.0
H1652 H 0.84196 0.04951 0.54686 0.0
H1653 H 0.84445 0.99755 0.56137 0.0
H1654 H 0.84048 0.95369 0.44729 0.0
H1655 H 0.84734 0.97432 0.48375 0.0
C1656 C 0.81641 0.29006 0.28575 0.0
C1657 C 0.80643 0.29388 0.26752 0.0
C1658 C 0.82619 0.30274 0.30516 0.0
C1659 C 0.83435 0.32749 0.3527 0.0
H1660 H 0.86039 0.37941 0.33553 0.0
C1661 C 0.8435 0.38437 0.42164 0.0
C1662 C 0.85874 0.4022 0.4191 0.0
C1663 C 0.84147 0.37018 0.40565 0.0
C1664 C 0.85355 0.36499 0.34072 0.0
H1665 H 0.79896 0.31409 0.25553 0.0
H1666 H 0.8159 0.33596 0.28914 0.0
H1667 H 0.84856 0.35658 0.30157 0.0
H1668 H 0.88463 0.41864 0.39921 0.0
H1669 H 0.8811 0.39377 0.37137 0.0
H1670 H 0.83891 0.33596 0.39194 0.0
C1671 C 0.81633 0.32329 0.28832 0.0
C1672 C 0.84657 0.35191 0.32123 0.0
C1673 C 0.80647 0.31063 0.26916 0.0
C1674 C 0.87262 0.40514 0.40152 0.0
C1675 C 0.87057 0.3909 0.38548 0.0
C1676 C 0.84131 0.3406 0.37227 0.0
C1677 C 0.82634 0.31953 0.30648 0.0
C1678 C 0.83635 0.33306 0.32703 0.0
C1679 C 0.85464 0.37345 0.38674 0.0
C1680 C 0.85047 0.35951 0.36648 0.0
H1681 H 0.81667 0.2773 0.28506 0.0
H1682 H 0.83379 0.2995 0.31895 0.0
H1683 H 0.82653 0.31304 0.35772 0.0
H1684 H 0.83263 0.38153 0.43518 0.0
H1685 H 0.82896 0.35696 0.40705 0.0
C1686 C 0.60777 0.46191 0.42439 0.0
C1687 C 0.59012 0.45516 0.41403 0.0
C1688 C 0.62327 0.47498 0.41115 0.0
C1689 C 0.63838 0.50421 0.35172 0.0
H1690 H 0.67692 0.49153 0.35266 0.0
C1691 C 0.68304 0.50094 0.26956 0.0
C1692 C 0.70153 0.51511 0.26975 0.0
C1693 C 0.67142 0.49888 0.28984 0.0
C1694 C 0.66647 0.4955 0.35263 0.0
H1695 H 0.57468 0.45743 0.38247 0.0
H1696 H 0.60165 0.47942 0.35863 0.0
H1697 H 0.65263 0.47834 0.38448 0.0
H1698 H 0.72227 0.53834 0.29133 0.0
H1699 H 0.70183 0.53417 0.32752 0.0
H1700 H 0.65166 0.52001 0.31809 0.0
C1701 C 0.60368 0.47521 0.37734 0.0
C1702 C 0.65253 0.48804 0.37092 0.0
C1703 C 0.58815 0.46248 0.39092 0.0
C1704 C 0.70807 0.52736 0.29059 0.0
C1705 C 0.69645 0.52504 0.31121 0.0
C1706 C 0.65222 0.51143 0.33315 0.0
C1707 C 0.6215 0.48117 0.38687 0.0
C1708 C 0.63795 0.49182 0.37028 0.0
C1709 C 0.67809 0.51074 0.31089 0.0
C1710 C 0.66606 0.50675 0.33321 0.0
H1711 H 0.60963 0.45666 0.44239 0.0
H1712 H 0.63669 0.47964 0.41953 0.0
H1713 H 0.62765 0.50776 0.35089 0.0
H1714 H 0.67752 0.4913 0.25384 0.0
H1715 H 0.6573 0.48765 0.28946 0.0
C1716 C 0.53425 0.13133 0.39946 0.0
C1717 C 0.54467 0.14418 0.41852 0.0
C1718 C 0.52332 0.13477 0.38273 0.0
C1719 C 0.51699 0.15443 0.33871 0.0
H1720 H 0.49 0.17923 0.35652 0.0
C1721 C 0.50565 0.19925 0.26706 0.0
C1722 C 0.48795 0.19709 0.26518 0.0
C1723 C 0.50994 0.19084 0.28674 0.0
C1724 C 0.49732 0.17213 0.35128 0.0
H1725 H 0.55052 0.16994 0.43626 0.0
H1726 H 0.5316 0.17592 0.40704 0.0
H1727 H 0.50063 0.16658 0.39034 0.0
H1728 H 0.46105 0.18472 0.28312 0.0
H1729 H 0.46873 0.17016 0.3178 0.0
H1730 H 0.51408 0.16032 0.29976 0.0
C1731 C 0.53186 0.16321 0.40499 0.0
C1732 C 0.50348 0.16499 0.37061 0.0
C1733 C 0.54285 0.15984 0.42163 0.0
C1734 C 0.4748 0.18665 0.28393 0.0
C1735 C 0.47918 0.17834 0.30382 0.0
C1736 C 0.51095 0.16166 0.31946 0.0
C1737 C 0.52248 0.15103 0.38482 0.0
C1738 C 0.51369 0.15637 0.36453 0.0
C1739 C 0.49672 0.18014 0.30517 0.0
C1740 C 0.50141 0.17093 0.32557 0.0
H1741 H 0.53523 0.11907 0.39661 0.0
H1742 H 0.51602 0.125 0.36758 0.0
H1743 H 0.52498 0.14806 0.33337 0.0
H1744 H 0.51618 0.20722 0.25308 0.0
H1745 H 0.52368 0.19274 0.28756 0.0
C1746 C 0.61757 0.47865 0.87387 0.0
C1747 C 0.61985 0.46747 0.89185 0.0
C1748 C 0.63064 0.4876 0.8546 0.0
C1749 C 0.65564 0.49413 0.80749 0.0
H1750 H 0.70705 0.5177 0.82718 0.0
C1751 C 0.71388 0.50324 0.74089 0.0
C1752 C 0.73158 0.51859 0.74402 0.0
C1753 C 0.6994 0.50088 0.75652 0.0
C1754 C 0.69279 0.51152 0.82134 0.0
H1755 H 0.6376 0.45676 0.90333 0.0
H1756 H 0.66027 0.47242 0.87003 0.0
H1757 H 0.68333 0.50583 0.86002 0.0
H1758 H 0.74759 0.54419 0.76476 0.0
H1759 H 0.72223 0.53998 0.79215 0.0
H1760 H 0.66514 0.49927 0.7687 0.0
C1761 C 0.64846 0.47437 0.87094 0.0
C1762 C 0.67921 0.50454 0.84015 0.0
C1763 C 0.63536 0.46528 0.88992 0.0
C1764 C 0.73417 0.53214 0.76197 0.0
C1765 C 0.71967 0.52971 0.77773 0.0
C1766 C 0.66925 0.501 0.78859 0.0
C1767 C 0.64632 0.48572 0.85323 0.0
C1768 C 0.66052 0.49533 0.83338 0.0
C1769 C 0.7023 0.51377 0.77569 0.0
C1770 C 0.68795 0.50934 0.79534 0.0
H1771 H 0.60576 0.4806 0.87476 0.0
H1772 H 0.62868 0.49626 0.8411 0.0
H1773 H 0.64131 0.48708 0.80179 0.0
H1774 H 0.71135 0.49264 0.72704 0.0
H1775 H 0.68622 0.48838 0.75459 0.0
C1776 C 0.47913 0.20744 0.75372 0.0
C1777 C 0.49274 0.22367 0.74195 0.0
C1778 C 0.4841 0.19713 0.76949 0.0
C1779 C 0.5214 0.20366 0.81134 0.0
H1780 H 0.50122 0.15086 0.80756 0.0
C1781 C 0.55042 0.16935 0.87525 0.0
C1782 C 0.53784 0.15273 0.88705 0.0
C1783 C 0.54489 0.1763 0.85505 0.0
C1784 C 0.50685 0.16559 0.80902 0.0
H1785 H 0.52225 0.2413 0.73683 0.0
H1786 H 0.53074 0.22349 0.76441 0.0
H1787 H 0.49082 0.16607 0.77728 0.0
H1788 H 0.50981 0.12992 0.88631 0.0
H1789 H 0.49992 0.14237 0.85149 0.0
H1790 H 0.53696 0.2034 0.84334 0.0
C1791 C 0.51627 0.21882 0.76154 0.0
C1792 C 0.5009 0.17426 0.79168 0.0
C1793 C 0.51135 0.22899 0.74568 0.0
C1794 C 0.51983 0.14272 0.87743 0.0
C1795 C 0.51418 0.14986 0.85745 0.0
C1796 C 0.52715 0.19504 0.82877 0.0
C1797 C 0.50274 0.20299 0.77393 0.0
C1798 C 0.50831 0.19341 0.79256 0.0
C1799 C 0.52653 0.16702 0.84653 0.0
C1800 C 0.52015 0.17592 0.8277 0.0
H1801 H 0.46467 0.20289 0.75115 0.0
H1802 H 0.47342 0.18497 0.77891 0.0
H1803 H 0.52706 0.21841 0.81274 0.0
H1804 H 0.56446 0.17723 0.88209 0.0
H1805 H 0.55494 0.18926 0.84658 0.0
C1806 C 0.83187 0.36854 0.86788 0.0
C1807 C 0.84787 0.37433 0.88247 0.0
C1808 C 0.82778 0.35622 0.84772 0.0
C1809 C 0.83134 0.31726 0.82981 0.0
H1810 H 0.81529 0.32394 0.76317 0.0
C1811 C 0.79226 0.25606 0.76053 0.0
C1812 C 0.77655 0.25517 0.7495 0.0
C1813 C 0.80548 0.27217 0.77272 0.0
C1814 C 0.81969 0.32182 0.7817 0.0
H1815 H 0.87229 0.37201 0.88731 0.0
H1816 H 0.86471 0.34981 0.85239 0.0
H1817 H 0.83014 0.34995 0.79252 0.0
H1818 H 0.76286 0.27086 0.74185 0.0
H1819 H 0.78533 0.29836 0.76345 0.0
H1820 H 0.81965 0.28885 0.81997 0.0
C1821 C 0.8556 0.35516 0.85637 0.0
C1822 C 0.82829 0.33674 0.79837 0.0
C1823 C 0.85993 0.36786 0.8762 0.0
C1824 C 0.77471 0.27092 0.75018 0.0
C1825 C 0.78779 0.28688 0.76238 0.0
C1826 C 0.82244 0.30222 0.81329 0.0
C1827 C 0.83941 0.34915 0.84213 0.0
C1828 C 0.83365 0.33444 0.82284 0.0
C1829 C 0.80324 0.28769 0.7741 0.0
C1830 C 0.81589 0.30418 0.7894 0.0
H1831 H 0.82237 0.37334 0.8723 0.0
H1832 H 0.81511 0.35162 0.83715 0.0
H1833 H 0.83528 0.31516 0.84869 0.0
H1834 H 0.79418 0.24423 0.76022 0.0
H1835 H 0.81732 0.27239 0.78135 0.0
C1836 C 0.54482 0.37978 0.36319 0.0
C1837 C 0.53215 0.38207 0.37791 0.0
C1838 C 0.53883 0.36733 0.34292 0.0
C1839 C 0.49799 0.33637 0.30276 0.0
H1840 H 0.52362 0.30878 0.29831 0.0
C1841 C 0.4711 0.26545 0.25176 0.0
C1842 C 0.48416 0.26368 0.23705 0.0
C1843 C 0.47632 0.28145 0.26602 0.0
C1844 C 0.51644 0.31649 0.29913 0.0
H1845 H 0.50337 0.37371 0.38247 0.0
H1846 H 0.49273 0.35134 0.34768 0.0
H1847 H 0.5341 0.33395 0.32849 0.0
H1848 H 0.5127 0.2779 0.22457 0.0
H1849 H 0.52167 0.30547 0.24957 0.0
H1850 H 0.47982 0.31805 0.27391 0.0
C1851 C 0.50736 0.35949 0.35129 0.0
C1852 C 0.52251 0.33103 0.31634 0.0
C1853 C 0.51343 0.37227 0.37128 0.0
C1854 C 0.50228 0.27861 0.23591 0.0
C1855 C 0.50748 0.29445 0.25024 0.0
C1856 C 0.49174 0.32157 0.28571 0.0
C1857 C 0.51995 0.3565 0.3373 0.0
C1858 C 0.51347 0.34128 0.31832 0.0
C1859 C 0.49469 0.29584 0.26592 0.0
C1860 C 0.50101 0.31159 0.28368 0.0
H1861 H 0.55937 0.38736 0.36771 0.0
H1862 H 0.549 0.36586 0.33209 0.0
H1863 H 0.49076 0.34403 0.30361 0.0
H1864 H 0.45701 0.25428 0.25297 0.0
H1865 H 0.46621 0.2822 0.27803 0.0
C1866 C 0.72245 0.23237 0.25343 0.0
C1867 C 0.73504 0.22623 0.24906 0.0
C1868 C 0.70748 0.22269 0.26968 0.0
C1869 C 0.67723 0.1784 0.29993 0.0
H1870 H 0.67275 0.20835 0.35269 0.0
C1871 C 0.626 0.14783 0.3851 0.0
C1872 C 0.61844 0.15831 0.39443 0.0
C1873 C 0.63943 0.15488 0.36591 0.0
C1874 C 0.67354 0.19978 0.33786 0.0
H1875 H 0.74113 0.2045 0.25748 0.0
H1876 H 0.71467 0.18744 0.2858 0.0
H1877 H 0.69733 0.22262 0.32146 0.0
H1878 H 0.61807 0.18379 0.3899 0.0
H1879 H 0.64079 0.19573 0.35594 0.0
H1880 H 0.65315 0.15558 0.31608 0.0
C1881 C 0.71661 0.19986 0.27663 0.0
C1882 C 0.68772 0.20798 0.32004 0.0
C1883 C 0.73178 0.20968 0.26052 0.0
C1884 C 0.62387 0.17552 0.38338 0.0
C1885 C 0.63701 0.18241 0.36401 0.0
C1886 C 0.66282 0.17018 0.31764 0.0
C1887 C 0.70458 0.20653 0.28177 0.0
C1888 C 0.68964 0.19742 0.30082 0.0
C1889 C 0.64536 0.17244 0.3555 0.0
C1890 C 0.66072 0.18083 0.33671 0.0
H1891 H 0.72441 0.24498 0.24487 0.0
H1892 H 0.69826 0.228 0.27309 0.0
H1893 H 0.67842 0.16998 0.28521 0.0
H1894 H 0.62212 0.13453 0.39335 0.0
H1895 H 0.64563 0.14686 0.35995 0.0
C1896 C 0.82224 0.44751 0.38109 0.0
C1897 C 0.83982 0.45913 0.39127 0.0
C1898 C 0.81483 0.45401 0.36277 0.0
C1899 C 0.82555 0.49216 0.31743 0.0
H1900 H 0.7739 0.47601 0.32763 0.0
C1901 C 0.78505 0.52203 0.26374 0.0
C1902 C 0.76775 0.50872 0.25423 0.0
C1903 C 0.79517 0.51684 0.27955 0.0
C1904 C 0.7883 0.48056 0.32444 0.0
H1905 H 0.86375 0.4865 0.38939 0.0
H1906 H 0.8506 0.49801 0.35766 0.0
H1907 H 0.78923 0.46515 0.35624 0.0
H1908 H 0.74777 0.47944 0.25355 0.0
H1909 H 0.76528 0.47058 0.28107 0.0
H1910 H 0.82446 0.50784 0.28569 0.0
C1911 C 0.84266 0.48377 0.36362 0.0
C1912 C 0.79709 0.47426 0.34074 0.0
C1913 C 0.85019 0.47718 0.38182 0.0
C1914 C 0.76098 0.49013 0.26056 0.0
C1915 C 0.77097 0.48501 0.27645 0.0
C1916 C 0.81674 0.49861 0.30115 0.0
C1917 C 0.82469 0.47238 0.35439 0.0
C1918 C 0.81574 0.47972 0.33723 0.0
C1919 C 0.78806 0.4983 0.28634 0.0
C1920 C 0.79795 0.49262 0.30431 0.0
H1921 H 0.814 0.43345 0.38771 0.0
H1922 H 0.80116 0.4447 0.35554 0.0
H1923 H 0.83991 0.4966 0.31414 0.0
H1924 H 0.79071 0.53645 0.25916 0.0
H1925 H 0.80831 0.52736 0.287 0.0
C1926 C 0.61253 0.15834 0.92875 0.0
C1927 C 0.59644 0.14098 0.92864 0.0
C1928 C 0.62822 0.16117 0.91577 0.0
C1929 C 0.64098 0.14208 0.86134 0.0
H1930 H 0.68963 0.18224 0.87824 0.0
C1931 C 0.70257 0.16986 0.7912 0.0
C1932 C 0.70863 0.18834 0.78511 0.0
C1933 C 0.69124 0.16166 0.81244 0.0
C1934 C 0.67616 0.17084 0.87346 0.0
H1935 H 0.5848 0.11261 0.91638 0.0
H1936 H 0.61245 0.11745 0.89425 0.0
H1937 H 0.66523 0.17107 0.91023 0.0
H1938 H 0.70848 0.21299 0.79705 0.0
H1939 H 0.68916 0.19881 0.83453 0.0
H1940 H 0.65204 0.1421 0.82442 0.0
C1941 C 0.6127 0.12902 0.90378 0.0
C1942 C 0.66213 0.16451 0.89165 0.0
C1943 C 0.59687 0.12621 0.91661 0.0
C1944 C 0.70394 0.19871 0.80127 0.0
C1945 C 0.69301 0.19064 0.82278 0.0
C1946 C 0.65512 0.14819 0.84332 0.0
C1947 C 0.6284 0.14668 0.90254 0.0
C1948 C 0.64414 0.15061 0.88544 0.0
C1949 C 0.68624 0.17196 0.82823 0.0
C1950 C 0.67261 0.16309 0.84892 0.0
H1951 H 0.6128 0.17006 0.93785 0.0
H1952 H 0.63985 0.17503 0.915 0.0
H1953 H 0.62733 0.1315 0.85567 0.0
H1954 H 0.7059 0.16154 0.77895 0.0
H1955 H 0.6861 0.14721 0.81627 0.0
C1956 C 0.83475 0.44487 0.91641 0.0
C1957 C 0.85053 0.44364 0.91109 0.0
C1958 C 0.8303 0.45584 0.90137 0.0
C1959 C 0.83477 0.47096 0.83582 0.0
H1960 H 0.8137 0.50016 0.85988 0.0
C1961 C 0.7872 0.48507 0.77362 0.0
C1962 C 0.79196 0.5036 0.77058 0.0
C1963 C 0.79574 0.48002 0.7922 0.0
C1964 C 0.8197 0.49217 0.85295 0.0
H1965 H 0.87455 0.4538 0.88667 0.0
H1966 H 0.86658 0.47278 0.86015 0.0
H1967 H 0.82758 0.4885 0.89058 0.0
H1968 H 0.80882 0.53118 0.78578 0.0
H1969 H 0.82346 0.52212 0.81881 0.0
H1970 H 0.82634 0.47402 0.7984 0.0
C1971 C 0.8577 0.46521 0.876 0.0
C1972 C 0.82755 0.48546 0.87045 0.0
C1973 C 0.86228 0.45441 0.89125 0.0
C1974 C 0.80488 0.51681 0.78748 0.0
C1975 C 0.81325 0.51166 0.8064 0.0
C1976 C 0.8267 0.47742 0.81845 0.0
C1977 C 0.84142 0.46566 0.88052 0.0
C1978 C 0.83497 0.47461 0.86206 0.0
C1979 C 0.80905 0.49328 0.80848 0.0
C1980 C 0.81884 0.48782 0.82688 0.0
H1981 H 0.82549 0.43687 0.93171 0.0
H1982 H 0.81762 0.45583 0.90521 0.0
H1983 H 0.84018 0.46246 0.82883 0.0
H1984 H 0.77724 0.47446 0.76115 0.0
H1985 H 0.79207 0.4657 0.7937 0.0
C1986 C 0.53484 0.40349 0.89578 0.0
C1987 C 0.54702 0.40208 0.91287 0.0
C1988 C 0.524 0.38902 0.87914 0.0
C1989 C 0.50753 0.33978 0.86496 0.0
H1990 H 0.51249 0.35559 0.79432 0.0
C1991 C 0.50884 0.3102 0.75979 0.0
C1992 C 0.49239 0.29316 0.75926 0.0
C1993 C 0.5122 0.32284 0.77924 0.0
C1994 C 0.51089 0.35096 0.81397 0.0
H1995 H 0.55633 0.3838 0.92708 0.0
H1996 H 0.53757 0.35872 0.898 0.0
H1997 H 0.5235 0.37844 0.82835 0.0
H1998 H 0.46658 0.27605 0.77902 0.0
H1999 H 0.47268 0.2982 0.8134 0.0
H2000 H 0.4956 0.31229 0.85032 0.0
C2001 C 0.53635 0.37098 0.89747 0.0
C2002 C 0.51701 0.36403 0.83349 0.0
C2003 C 0.54725 0.38545 0.914 0.0
C2004 C 0.47939 0.28905 0.77882 0.0
C2005 C 0.48287 0.30168 0.79853 0.0
C2006 C 0.50128 0.32666 0.84539 0.0
C2007 C 0.525 0.3728 0.87936 0.0
C2008 C 0.51586 0.35864 0.85917 0.0
C2009 C 0.49929 0.31874 0.79881 0.0
C2010 C 0.5034 0.3322 0.81968 0.0
H2011 H 0.53422 0.41605 0.89449 0.0
H2012 H 0.5152 0.39073 0.86559 0.0
H2013 H 0.50631 0.3352 0.88459 0.0
H2014 H 0.51919 0.31389 0.74509 0.0
H2015 H 0.52511 0.33576 0.77918 0.0
C2016 C 0.4883 0.62636 0.62446 0.0
C2017 C 0.47001 0.62096 0.61815 0.0
C2018 C 0.49686 0.63803 0.64529 0.0
C2019 C 0.48895 0.6544 0.70557 0.0
H2020 H 0.5275 0.70327 0.68633 0.0
C2021 C 0.50107 0.7181 0.76003 0.0
C2022 C 0.51828 0.73434 0.75966 0.0
C2023 C 0.49837 0.70246 0.74704 0.0
C2024 C 0.51716 0.68962 0.69239 0.0
H2025 H 0.44604 0.62269 0.62917 0.0
H2026 H 0.46081 0.64252 0.6661 0.0
H2027 H 0.51667 0.67819 0.65555 0.0
H2028 H 0.54654 0.74641 0.74674 0.0
H2029 H 0.54193 0.71883 0.72451 0.0
H2030 H 0.48917 0.66565 0.74227 0.0
C2031 C 0.46855 0.63792 0.65478 0.0
C2032 C 0.51093 0.67528 0.67465 0.0
C2033 C 0.46016 0.62669 0.63363 0.0
C2034 C 0.53304 0.73419 0.7472 0.0
C2035 C 0.53037 0.7184 0.73434 0.0
C2036 C 0.49542 0.66862 0.72349 0.0
C2037 C 0.48706 0.64397 0.66047 0.0
C2038 C 0.49628 0.65778 0.68081 0.0
C2039 C 0.51286 0.70248 0.73354 0.0
C2040 C 0.509 0.68662 0.71673 0.0
H2041 H 0.4962 0.62222 0.61265 0.0
H2042 H 0.51119 0.64265 0.64932 0.0
H2043 H 0.47772 0.64092 0.71073 0.0
H2044 H 0.48935 0.7176 0.76947 0.0
H2045 H 0.4846 0.69066 0.74658 0.0
C2046 C 0.36972 0.86037 0.61539 0.0
C2047 C 0.37458 0.8473 0.6078 0.0
C2048 C 0.35825 0.85699 0.63655 0.0
C2049 C 0.34208 0.83105 0.69585 0.0
H2050 H 0.29427 0.82529 0.6807 0.0
C2051 C 0.27827 0.78287 0.75359 0.0
C2052 C 0.2632 0.78579 0.75507 0.0
C2053 C 0.29386 0.79472 0.73955 0.0
C2054 C 0.30767 0.8273 0.68563 0.0
H2055 H 0.37201 0.82092 0.61689 0.0
H2056 H 0.35251 0.81533 0.6543 0.0
H2057 H 0.31862 0.83866 0.64875 0.0
H2058 H 0.2533 0.80427 0.74424 0.0
H2059 H 0.28084 0.82534 0.72026 0.0
H2060 H 0.3313 0.81965 0.73259 0.0
C2061 C 0.35737 0.82804 0.64373 0.0
C2062 C 0.32159 0.83489 0.66722 0.0
C2063 C 0.36841 0.83118 0.62228 0.0
C2064 C 0.26457 0.8015 0.7433 0.0
C2065 C 0.28033 0.81352 0.72941 0.0
C2066 C 0.3283 0.82379 0.71444 0.0
C2067 C 0.35195 0.84075 0.6508 0.0
C2068 C 0.33866 0.83619 0.67187 0.0
C2069 C 0.295 0.81002 0.72682 0.0
C2070 C 0.31066 0.82109 0.70919 0.0
H2071 H 0.37421 0.87286 0.60443 0.0
H2072 H 0.35416 0.86694 0.64166 0.0
H2073 H 0.35523 0.8321 0.6999 0.0
H2074 H 0.27777 0.77093 0.76237 0.0
H2075 H 0.30465 0.7913 0.73771 0.0
C2076 C 0.17438 0.53881 0.60961 0.0
C2077 C 0.1561 0.53298 0.60259 0.0
C2078 C 0.17824 0.53127 0.6308 0.0
C2079 C 0.18293 0.52116 0.68425 0.0
H2080 H 0.15863 0.46823 0.69283 0.0
C2081 C 0.20745 0.49098 0.76201 0.0
C2082 C 0.21058 0.47684 0.75381 0.0
C2083 C 0.19658 0.49585 0.74752 0.0
C2084 C 0.1655 0.48304 0.69073 0.0
H2085 H 0.1275 0.51451 0.6125 0.0
H2086 H 0.13435 0.50126 0.64976 0.0
H2087 H 0.1483 0.48131 0.65925 0.0
H2088 H 0.20373 0.45587 0.72494 0.0
H2089 H 0.18519 0.46472 0.6992 0.0
H2090 H 0.20074 0.52306 0.71457 0.0
C2091 C 0.14563 0.51171 0.63865 0.0
C2092 C 0.15947 0.49052 0.67167 0.0
C2093 C 0.14174 0.51937 0.6174 0.0
C2094 C 0.20157 0.46683 0.73175 0.0
C2095 C 0.19087 0.47187 0.71704 0.0
C2096 C 0.18894 0.51373 0.7032 0.0
C2097 C 0.16395 0.51766 0.64559 0.0
C2098 C 0.16847 0.50966 0.66782 0.0
C2099 C 0.18881 0.48689 0.72429 0.0
C2100 C 0.18059 0.49456 0.70634 0.0
H2101 H 0.18583 0.5492 0.59868 0.0
H2102 H 0.19249 0.53591 0.63535 0.0
H2103 H 0.18997 0.53598 0.68199 0.0
H2104 H 0.21395 0.49875 0.77918 0.0
H2105 H 0.19487 0.50716 0.75403 0.0
C2106 C 0.39145 0.85455 0.08946 0.0
C2107 C 0.39273 0.84151 0.07401 0.0
C2108 C 0.37569 0.84942 0.10421 0.0
C2109 C 0.34224 0.80966 0.13835 0.0
H2110 H 0.31352 0.83396 0.14543 0.0
C2111 C 0.28142 0.7805 0.20707 0.0
C2112 C 0.27871 0.79299 0.22157 0.0
C2113 C 0.29331 0.78657 0.18618 0.0
C2114 C 0.32153 0.82714 0.14389 0.0
H2115 H 0.37779 0.81323 0.06046 0.0
H2116 H 0.35065 0.80439 0.08644 0.0
H2117 H 0.33836 0.84517 0.1138 0.0
H2118 H 0.28581 0.82148 0.22533 0.0
H2119 H 0.30736 0.83234 0.18953 0.0
H2120 H 0.32643 0.79225 0.16898 0.0
C2121 C 0.36186 0.81849 0.08722 0.0
C2122 C 0.33566 0.83353 0.12571 0.0
C2123 C 0.37745 0.82361 0.07235 0.0
C2124 C 0.28762 0.81157 0.21431 0.0
C2125 C 0.2999 0.81775 0.19372 0.0
C2126 C 0.32843 0.80351 0.15673 0.0
C2127 C 0.36107 0.83117 0.10385 0.0
C2128 C 0.346 0.82471 0.1227 0.0
C2129 C 0.30322 0.80537 0.17973 0.0
C2130 C 0.31776 0.81203 0.15968 0.0
H2131 H 0.40289 0.86848 0.09107 0.0
H2132 H 0.37537 0.85942 0.11696 0.0
H2133 H 0.35029 0.80287 0.13673 0.0
H2134 H 0.27449 0.76604 0.21209 0.0
H2135 H 0.295 0.7765 0.1754 0.0
C2136 C 0.14081 0.54226 0.08499 0.0
C2137 C 0.15395 0.5582 0.07215 0.0
C2138 C 0.14627 0.53171 0.09931 0.0
C2139 C 0.18565 0.53793 0.13595 0.0
H2140 H 0.16193 0.48468 0.13689 0.0
C2141 C 0.21364 0.50317 0.2007 0.0
C2142 C 0.20081 0.48767 0.21442 0.0
C2143 C 0.20802 0.50971 0.18012 0.0
C2144 C 0.16859 0.49955 0.137 0.0
H2145 H 0.18304 0.5749 0.06318 0.0
H2146 H 0.19244 0.55662 0.08825 0.0
H2147 H 0.15142 0.49986 0.10675 0.0
H2148 H 0.17221 0.46631 0.21685 0.0
H2149 H 0.16215 0.47816 0.18138 0.0
H2150 H 0.2023 0.5379 0.16664 0.0
C2151 C 0.17796 0.5524 0.08741 0.0
C2152 C 0.1626 0.50821 0.11971 0.0
C2153 C 0.17253 0.56285 0.07301 0.0
C2154 C 0.18237 0.47825 0.20643 0.0
C2155 C 0.17665 0.48504 0.18609 0.0
C2156 C 0.19147 0.52934 0.15334 0.0
C2157 C 0.16496 0.53699 0.10116 0.0
C2158 C 0.17117 0.52749 0.11898 0.0
C2159 C 0.18935 0.50119 0.17318 0.0
C2160 C 0.18312 0.51004 0.15404 0.0
H2161 H 0.12636 0.5382 0.08462 0.0
H2162 H 0.13598 0.51992 0.10982 0.0
H2163 H 0.19224 0.55281 0.1362 0.0
H2164 H 0.22799 0.51051 0.20629 0.0
H2165 H 0.2183 0.52181 0.17013 0.0
C2166 C 0.48533 0.69331 0.22777 0.0
C2167 C 0.50385 0.7068 0.2316 0.0
C2168 C 0.48007 0.68187 0.20643 0.0
C2169 C 0.49693 0.66244 0.15795 0.0
H2170 H 0.45092 0.65054 0.12492 0.0
C2171 C 0.44379 0.61438 0.07205 0.0
C2172 C 0.44301 0.59761 0.07754 0.0
C2173 C 0.45453 0.62994 0.08693 0.0
C2174 C 0.46397 0.6539 0.13353 0.0
H2175 H 0.5314 0.71868 0.21587 0.0
H2176 H 0.52208 0.69856 0.17836 0.0
H2177 H 0.46317 0.67377 0.15819 0.0
H2178 H 0.45379 0.58432 0.10198 0.0
H2179 H 0.47217 0.61136 0.12841 0.0
H2180 H 0.4976 0.6424 0.13325 0.0
C2181 C 0.51171 0.69691 0.19209 0.0
C2182 C 0.47087 0.66707 0.15288 0.0
C2183 C 0.51701 0.70847 0.21351 0.0
C2184 C 0.45408 0.59704 0.09726 0.0
C2185 C 0.4647 0.61259 0.11235 0.0
C2186 C 0.49001 0.64921 0.13849 0.0
C2187 C 0.49314 0.68357 0.18828 0.0
C2188 C 0.48717 0.67117 0.16575 0.0
C2189 C 0.46458 0.62906 0.10786 0.0
C2190 C 0.47325 0.64454 0.12639 0.0
H2191 H 0.47479 0.69148 0.2413 0.0
H2192 H 0.46571 0.67148 0.20433 0.0
H2193 H 0.50951 0.66528 0.16756 0.0
H2194 H 0.43566 0.61536 0.0567 0.0
H2195 H 0.45448 0.64253 0.08254 0.0
C2196 C 0.14107 0.6019 0.58844 0.0
C2197 C 0.15482 0.60021 0.57538 0.0
C2198 C 0.14576 0.6173 0.60382 0.0
C2199 C 0.18333 0.64892 0.64358 0.0
H2200 H 0.16221 0.68076 0.64263 0.0
C2201 C 0.21326 0.712 0.7078 0.0
C2202 C 0.201 0.7161 0.72036 0.0
C2203 C 0.20723 0.69942 0.68772 0.0
C2204 C 0.16809 0.67186 0.64333 0.0
H2205 H 0.18412 0.614 0.56709 0.0
H2206 H 0.19213 0.64046 0.5941 0.0
H2207 H 0.15154 0.65538 0.61187 0.0
H2208 H 0.173 0.71087 0.72129 0.0
H2209 H 0.16215 0.68821 0.6867 0.0
H2210 H 0.19936 0.6646 0.67534 0.0
C2211 C 0.1778 0.62986 0.59252 0.0
C2212 C 0.16201 0.6574 0.62569 0.0
C2213 C 0.17316 0.61466 0.57704 0.0
C2214 C 0.18273 0.70799 0.71176 0.0
C2215 C 0.17656 0.69505 0.69193 0.0
C2216 C 0.18919 0.66309 0.66134 0.0
C2217 C 0.16424 0.63111 0.60652 0.0
C2218 C 0.16981 0.646 0.6255 0.0
C2219 C 0.18865 0.69025 0.68014 0.0
C2220 C 0.18189 0.67497 0.66124 0.0
H2221 H 0.12681 0.59109 0.58748 0.0
H2222 H 0.13507 0.618 0.61451 0.0
H2223 H 0.18929 0.64007 0.64413 0.0
H2224 H 0.22749 0.71828 0.71386 0.0
H2225 H 0.21709 0.69657 0.67855 0.0
C2226 C 0.28773 0.50213 0.71089 0.0
C2227 C 0.2815 0.48496 0.72262 0.0
C2228 C 0.29996 0.50759 0.69039 0.0
C2229 C 0.33726 0.50253 0.66584 0.0
H2230 H 0.33245 0.52688 0.60576 0.0
C2231 C 0.39684 0.53893 0.59365 0.0
C2232 C 0.40028 0.55627 0.58518 0.0
C2233 C 0.38055 0.52711 0.60662 0.0
C2234 C 0.33407 0.52021 0.62248 0.0
H2235 H 0.28294 0.45987 0.72176 0.0
H2236 H 0.30478 0.46968 0.68613 0.0
H2237 H 0.30683 0.51184 0.63566 0.0
H2238 H 0.38899 0.57456 0.58326 0.0
H2239 H 0.36108 0.55436 0.60636 0.0
H2240 H 0.36482 0.51177 0.65367 0.0
C2241 C 0.29997 0.47877 0.69275 0.0
C2242 C 0.31935 0.51152 0.63948 0.0
C2243 C 0.28744 0.47315 0.71302 0.0
C2244 C 0.38684 0.5613 0.58941 0.0
C2245 C 0.37068 0.54959 0.60253 0.0
C2246 C 0.35209 0.51144 0.64901 0.0
C2247 C 0.30646 0.49612 0.68144 0.0
C2248 C 0.32096 0.50296 0.66161 0.0
C2249 C 0.36738 0.53243 0.61157 0.0
C2250 C 0.35084 0.52081 0.62746 0.0
H2251 H 0.28334 0.5115 0.71781 0.0
H2252 H 0.3049 0.52111 0.68217 0.0
H2253 H 0.3389 0.49617 0.6829 0.0
H2254 H 0.40682 0.53454 0.59052 0.0
H2255 H 0.37835 0.51388 0.61297 0.0
C2256 C 0.51705 0.81256 0.71303 0.0
C2257 C 0.5069 0.79428 0.72157 0.0
C2258 C 0.51047 0.81869 0.69294 0.0
C2259 C 0.46631 0.80596 0.66079 0.0
H2260 H 0.49718 0.84484 0.61341 0.0
C2261 C 0.43537 0.82495 0.5775 0.0
C2262 C 0.43957 0.84343 0.57701 0.0
C2263 C 0.44558 0.81961 0.59253 0.0
C2264 C 0.48847 0.83401 0.62662 0.0
H2265 H 0.48271 0.76773 0.71472 0.0
H2266 H 0.47171 0.77807 0.67892 0.0
H2267 H 0.51131 0.83347 0.64401 0.0
H2268 H 0.45872 0.87096 0.59063 0.0
H2269 H 0.47676 0.86147 0.61684 0.0
H2270 H 0.44351 0.80626 0.64311 0.0
C2271 C 0.4843 0.78797 0.68834 0.0
C2272 C 0.49651 0.82752 0.64418 0.0
C2273 C 0.49067 0.78196 0.70872 0.0
C2274 C 0.45502 0.85661 0.59069 0.0
C2275 C 0.46539 0.85123 0.60561 0.0
C2276 C 0.45832 0.81222 0.64306 0.0
C2277 C 0.49375 0.80655 0.68076 0.0
C2278 C 0.4855 0.81336 0.66148 0.0
C2279 C 0.46037 0.83259 0.60721 0.0
C2280 C 0.46929 0.82626 0.6258 0.0
H2281 H 0.52956 0.82237 0.72275 0.0
H2282 H 0.51806 0.83311 0.68782 0.0
H2283 H 0.45738 0.79548 0.67426 0.0
H2284 H 0.42373 0.8144 0.56702 0.0
H2285 H 0.4416 0.80518 0.59323 0.0
C2286 C 0.2779 0.49706 0.2513 0.0
C2287 C 0.26209 0.4795 0.2513 0.0
C2288 C 0.29353 0.5004 0.2377 0.0
C2289 C 0.30665 0.48243 0.18234 0.0
H2290 H 0.35498 0.52304 0.19958 0.0
C2291 C 0.36972 0.51163 0.1141 0.0
C2292 C 0.37528 0.52993 0.10754 0.0
C2293 C 0.35788 0.50319 0.13477 0.0
C2294 C 0.3416 0.51153 0.1947 0.0
H2295 H 0.25086 0.45132 0.2384 0.0
H2296 H 0.27845 0.45706 0.21513 0.0
H2297 H 0.33061 0.51112 0.23165 0.0
H2298 H 0.3735 0.55398 0.11796 0.0
H2299 H 0.35329 0.53939 0.15462 0.0
H2300 H 0.31784 0.48304 0.14528 0.0
C2301 C 0.27851 0.46838 0.22512 0.0
C2302 C 0.32759 0.50477 0.21293 0.0
C2303 C 0.26272 0.46506 0.23859 0.0
C2304 C 0.36938 0.53985 0.12257 0.0
C2305 C 0.35794 0.53156 0.14358 0.0
C2306 C 0.3208 0.48896 0.16428 0.0
C2307 C 0.29394 0.48623 0.22396 0.0
C2308 C 0.30971 0.49068 0.20663 0.0
C2309 C 0.35185 0.51309 0.14957 0.0
C2310 C 0.33816 0.504 0.17005 0.0
H2311 H 0.27803 0.50855 0.26091 0.0
H2312 H 0.30492 0.51439 0.23699 0.0
H2313 H 0.29308 0.47171 0.17662 0.0
H2314 H 0.37397 0.50364 0.10269 0.0
H2315 H 0.35326 0.48889 0.13905 0.0
C2316 C 0.48819 0.77042 0.25863 0.0
C2317 C 0.50679 0.77512 0.25973 0.0
C2318 C 0.4826 0.78002 0.24268 0.0
C2319 C 0.49598 0.82185 0.20656 0.0
H2320 H 0.45958 0.78899 0.15773 0.0
C2321 C 0.47433 0.84786 0.11735 0.0
C2322 C 0.45634 0.83688 0.10811 0.0
C2323 C 0.48067 0.84183 0.13789 0.0
C2324 C 0.46944 0.7984 0.17148 0.0
H2325 H 0.53428 0.79457 0.24629 0.0
H2326 H 0.52438 0.81155 0.21858 0.0
H2327 H 0.4704 0.77646 0.19082 0.0
H2328 H 0.43047 0.81169 0.11401 0.0
H2329 H 0.44106 0.80164 0.15055 0.0
H2330 H 0.4947 0.84381 0.18759 0.0
C2331 C 0.51422 0.80027 0.23001 0.0
C2332 C 0.47573 0.79118 0.19034 0.0
C2333 C 0.51983 0.7905 0.24579 0.0
C2334 C 0.4445 0.82028 0.12054 0.0
C2335 C 0.45066 0.81447 0.14137 0.0
C2336 C 0.48942 0.82911 0.18788 0.0
C2337 C 0.49548 0.7947 0.22774 0.0
C2338 C 0.48901 0.80279 0.20806 0.0
C2339 C 0.46899 0.82486 0.14985 0.0
C2340 C 0.476 0.81744 0.17011 0.0
H2341 H 0.47774 0.75878 0.26921 0.0
H2342 H 0.46809 0.7756 0.24141 0.0
H2343 H 0.50624 0.83105 0.22009 0.0
H2344 H 0.48377 0.86068 0.10797 0.0
H2345 H 0.4949 0.85015 0.14368 0.0
C2346 C 0.19512 0.73365 0.23895 0.0
C2347 C 0.20795 0.73223 0.25469 0.0
C2348 C 0.18331 0.71902 0.22318 0.0
C2349 C 0.16633 0.66973 0.20791 0.0
H2350 H 0.17038 0.6864 0.13783 0.0
C2351 C 0.16803 0.64236 0.10159 0.0
C2352 C 0.15143 0.62552 0.09989 0.0
C2353 C 0.17123 0.65434 0.12186 0.0
C2354 C 0.16899 0.68154 0.15733 0.0
H2355 H 0.21722 0.71367 0.26783 0.0
H2356 H 0.19684 0.68834 0.24016 0.0
H2357 H 0.18149 0.7088 0.17238 0.0
H2358 H 0.12529 0.60795 0.11861 0.0
H2359 H 0.13116 0.62895 0.15455 0.0
H2360 H 0.15456 0.64246 0.19244 0.0
C2361 C 0.19585 0.70072 0.24002 0.0
C2362 C 0.17517 0.69433 0.17717 0.0
C2363 C 0.20768 0.71535 0.25575 0.0
C2364 C 0.1382 0.62083 0.1193 0.0
C2365 C 0.14154 0.6328 0.13987 0.0
C2366 C 0.16 0.65687 0.18799 0.0
C2367 C 0.18403 0.70264 0.22288 0.0
C2368 C 0.17443 0.68865 0.20263 0.0
C2369 C 0.15802 0.64976 0.14113 0.0
C2370 C 0.16185 0.66276 0.16248 0.0
H2371 H 0.19479 0.74637 0.23782 0.0
H2372 H 0.17414 0.72079 0.21045 0.0
H2373 H 0.16544 0.66493 0.22736 0.0
H2374 H 0.17857 0.64647 0.08708 0.0
H2375 H 0.18419 0.66719 0.12258 0.0
C2376 C 0.1388 0.19188 0.3106 0.0
C2377 C 0.14844 0.19707 0.33375 0.0
C2378 C 0.1458 0.18697 0.28982 0.0
C2379 C 0.17907 0.17147 0.27495 0.0
H2380 H 0.16866 0.17902 0.20523 0.0
C2381 C 0.197 0.16159 0.16369 0.0
C2382 C 0.19523 0.14415 0.16593 0.0
C2383 C 0.19288 0.16935 0.18442 0.0
C2384 C 0.17198 0.17704 0.22455 0.0
H2385 H 0.17374 0.20334 0.3529 0.0
H2386 H 0.18635 0.19511 0.3164 0.0
H2387 H 0.15929 0.19142 0.24023 0.0
H2388 H 0.18995 0.12198 0.19186 0.0
H2389 H 0.18191 0.13501 0.22789 0.0
H2390 H 0.19247 0.15778 0.25922 0.0
C2391 C 0.17296 0.19392 0.31453 0.0
C2392 C 0.16631 0.1839 0.24469 0.0
C2393 C 0.16585 0.19873 0.33536 0.0
C2394 C 0.19059 0.13512 0.18955 0.0
C2395 C 0.18635 0.14278 0.21027 0.0
C2396 C 0.18503 0.16488 0.25478 0.0
C2397 C 0.16282 0.18758 0.29167 0.0
C2398 C 0.16964 0.18107 0.27016 0.0
C2399 C 0.18711 0.15985 0.20783 0.0
C2400 C 0.18144 0.16747 0.22932 0.0
H2401 H 0.12564 0.19127 0.30876 0.0
H2402 H 0.13753 0.18209 0.27265 0.0
H2403 H 0.18162 0.16874 0.2943 0.0
H2404 H 0.20122 0.16903 0.14576 0.0
H2405 H 0.1942 0.18277 0.18206 0.0
C2406 C 0.80478 0.94128 0.30559 0.0
C2407 C 0.79962 0.94567 0.3288 0.0
C2408 C 0.80975 0.95332 0.28488 0.0
C2409 C 0.82462 0.00216 0.27029 0.0
H2410 H 0.81709 0.98455 0.20043 0.0
C2411 C 0.85793 0.05143 0.18529 0.0
C2412 C 0.84868 0.04679 0.16182 0.0
C2413 C 0.85117 0.03916 0.20576 0.0
C2414 C 0.81905 0.98974 0.2198 0.0
H2415 H 0.79342 0.96468 0.34811 0.0
H2416 H 0.80159 0.98561 0.3118 0.0
H2417 H 0.80559 0.96258 0.23528 0.0
H2418 H 0.82423 0.02691 0.14176 0.0
H2419 H 0.81196 0.00551 0.17769 0.0
H2420 H 0.83717 0.02929 0.25482 0.0
C2421 C 0.80284 0.97345 0.3098 0.0
C2422 C 0.81274 0.9771 0.23987 0.0
C2423 C 0.79804 0.96146 0.33054 0.0
C2424 C 0.83186 0.03038 0.15954 0.0
C2425 C 0.82496 0.01814 0.18007 0.0
C2426 C 0.83058 0.01479 0.25022 0.0
C2427 C 0.80917 0.96975 0.28687 0.0
C2428 C 0.81549 0.98314 0.2654 0.0
C2429 C 0.83472 0.02221 0.2033 0.0
C2430 C 0.82796 0.00876 0.2247 0.0
H2431 H 0.80527 0.92868 0.30361 0.0
H2432 H 0.81458 0.94996 0.26765 0.0
H2433 H 0.82737 0.00739 0.28967 0.0
H2434 H 0.87057 0.06444 0.18767 0.0
H2435 H 0.85916 0.04281 0.22321 0.0
C2436 C 0.94407 0.8066 0.18789 0.0
C2437 C 0.94961 0.80514 0.16314 0.0
C2438 C 0.95655 0.81208 0.20813 0.0
C2439 C 0.98652 0.80996 0.24393 0.0
H2440 H 0.02341 0.86161 0.24885 0.0
C2441 C 0.03025 0.83977 0.33497 0.0
C2442 C 0.04756 0.85559 0.33287 0.0
C2443 C 0.01876 0.833 0.31363 0.0
C2444 C 0.01349 0.84707 0.2477 0.0
H2445 H 0.97192 0.80721 0.13999 0.0
H2446 H 0.99414 0.81757 0.1755 0.0
H2447 H 0.00278 0.85064 0.21239 0.0
H2448 H 0.06749 0.87571 0.3069 0.0
H2449 H 0.04806 0.86338 0.26924 0.0
H2450 H -0.00242 0.80596 0.27847 0.0
C2451 C 0.98018 0.8145 0.17909 0.0
C2452 C 0.00156 0.84088 0.22684 0.0
C2453 C 0.96758 0.80867 0.15892 0.0
C2454 C 0.05385 0.86384 0.30896 0.0
C2455 C 0.04263 0.85678 0.28746 0.0
C2456 C -0.00126 0.81602 0.26454 0.0
C2457 C 0.97469 0.81618 0.20377 0.0
C2458 C 0.98788 0.82238 0.22503 0.0
C2459 C 0.02474 0.84148 0.28955 0.0
C2460 C 0.01226 0.83474 0.26694 0.0
H2461 H 0.93008 0.80342 0.19156 0.0
H2462 H 0.95213 0.81331 0.22712 0.0
H2463 H 0.97606 0.79556 0.24266 0.0
H2464 H 0.02538 0.83304 0.35329 0.0
H2465 H 0.00505 0.82141 0.3163 0.0
C2466 C 0.83473 0.80082 0.66463 0.0
C2467 C 0.85165 0.80142 0.66646 0.0
C2468 C 0.82781 0.80573 0.68557 0.0
C2469 C 0.83394 0.81435 0.75586 0.0
H2470 H 0.80867 0.84142 0.74189 0.0
C2471 C 0.80159 0.83483 0.83697 0.0
C2472 C 0.8028 0.85204 0.83518 0.0
C2473 C 0.80661 0.82782 0.81625 0.0
C2474 C 0.81591 0.8341 0.74622 0.0
H2475 H 0.87364 0.80538 0.6919 0.0
H2476 H 0.86221 0.81488 0.72818 0.0
H2477 H 0.81988 0.83106 0.70665 0.0
H2478 H 0.80817 0.87461 0.80998 0.0
H2479 H 0.81789 0.863 0.77413 0.0
H2480 H 0.83112 0.81853 0.79545 0.0
C2481 C 0.85415 0.81073 0.71078 0.0
C2482 C 0.82204 0.82781 0.72591 0.0
C2483 C 0.86094 0.80565 0.68989 0.0
C2484 C 0.80794 0.86165 0.812 0.0
C2485 C 0.81315 0.85478 0.79135 0.0
C2486 C 0.82817 0.82099 0.77618 0.0
C2487 C 0.83766 0.81118 0.70875 0.0
C2488 C 0.83103 0.81775 0.73045 0.0
C2489 C 0.81277 0.83787 0.7933 0.0
C2490 C 0.81896 0.83085 0.77163 0.0
H2491 H 0.82706 0.79692 0.64687 0.0
H2492 H 0.81476 0.80528 0.68351 0.0
H2493 H 0.84061 0.80648 0.76019 0.0
H2494 H 0.79701 0.82694 0.85451 0.0
H2495 H 0.80555 0.81449 0.81823 0.0
C2496 C 0.19702 0.0352 0.66232 0.0
C2497 C 0.19731 0.05193 0.66502 0.0
C2498 C 0.19158 0.02287 0.68274 0.0
C2499 C 0.18217 0.01901 0.75305 0.0
H2500 H 0.154 0.96711 0.73654 0.0
C2501 C 0.15726 0.96445 0.83234 0.0
C2502 C 0.1399 0.94881 0.8293 0.0
C2503 C 0.16542 0.97672 0.81208 0.0
C2504 C 0.16161 0.98154 0.7416 0.0
H2505 H 0.19451 0.07012 0.69152 0.0
H2506 H 0.18394 0.04832 0.72683 0.0
H2507 H 0.1656 0.98953 0.7024 0.0
H2508 H 0.11831 0.93235 0.80237 0.0
H2509 H 0.13183 0.95417 0.76731 0.0
H2510 H 0.17686 0.01111 0.79223 0.0
C2511 C 0.18782 0.04447 0.70917 0.0
C2512 C 0.16864 0.99446 0.72191 0.0
C2513 C 0.19349 0.05684 0.68882 0.0
C2514 C 0.13135 0.94485 0.80533 0.0
C2515 C 0.13934 0.95719 0.78514 0.0
C2516 C 0.17471 0.00612 0.77274 0.0
C2517 C 0.18642 0.02713 0.70626 0.0
C2518 C 0.17913 0.01338 0.72734 0.0
C2519 C 0.15636 0.97348 0.78835 0.0
C2520 C 0.16441 0.98719 0.76731 0.0
H2521 H 0.20063 0.03151 0.64428 0.0
H2522 H 0.19138 0.00999 0.67998 0.0
H2523 H 0.19036 0.0334 0.75812 0.0
H2524 H 0.16437 0.96733 0.85052 0.0
H2525 H 0.17883 0.98871 0.81509 0.0
C2526 C 0.96349 0.15481 0.66193 0.0
C2527 C 0.94639 0.13858 0.66292 0.0
C2528 C 0.97477 0.16088 0.68355 0.0
C2529 C 0.98283 0.14427 0.74452 0.0
H2530 H 0.01088 0.19615 0.76165 0.0
C2531 C 0.04665 0.17948 0.81148 0.0
C2532 C 0.04275 0.18566 0.83424 0.0
C2533 C 0.03424 0.17374 0.79113 0.0
C2534 C 0.00309 0.18164 0.75696 0.0
H2535 H 0.92677 0.11682 0.68739 0.0
H2536 H 0.94646 0.12732 0.72529 0.0
H2537 H 0.98998 0.18611 0.72482 0.0
H2538 H 0.02383 0.19228 0.85309 0.0
H2539 H 0.00217 0.18256 0.81702 0.0
H2540 H 0.99618 0.13993 0.77645 0.0
C2541 C 0.95149 0.13504 0.70768 0.0
C2542 C 0.99126 0.1759 0.7359 0.0
C2543 C 0.94027 0.12898 0.68605 0.0
C2544 C 0.02681 0.18706 0.83589 0.0
C2545 C 0.01452 0.18159 0.81538 0.0
C2546 C 0.99489 0.15005 0.76525 0.0
C2547 C 0.96893 0.151 0.70662 0.0
C2548 C 0.98109 0.15714 0.72936 0.0
C2549 C 0.01812 0.17477 0.79301 0.0
C2550 C 0.00511 0.16875 0.77152 0.0
H2551 H 0.96824 0.1626 0.64433 0.0
H2552 H 0.98817 0.17315 0.68208 0.0
H2553 H 0.97511 0.12974 0.74017 0.0
H2554 H 0.05933 0.17917 0.80943 0.0
H2555 H 0.0373 0.1687 0.77383 0.0
C2556 C 0.79324 0.5161 0.63946 0.0
C2557 C 0.80092 0.51765 0.66377 0.0
C2558 C 0.79932 0.51004 0.6188 0.0
C2559 C 0.82874 0.51137 0.58032 0.0
H2560 H 0.82201 0.46218 0.58016 0.0
C2561 C 0.84979 0.48405 0.49342 0.0
C2562 C 0.85532 0.47108 0.49764 0.0
C2563 C 0.84251 0.48939 0.51342 0.0
C2564 C 0.82431 0.47607 0.57998 0.0
H2565 H 0.82134 0.51505 0.68574 0.0
H2566 H 0.83154 0.50366 0.64963 0.0
H2567 H 0.81069 0.4722 0.61596 0.0
H2568 H 0.85947 0.45476 0.52598 0.0
H2569 H 0.84779 0.46479 0.56142 0.0
H2570 H 0.84342 0.51592 0.54536 0.0
C2571 C 0.82079 0.50703 0.64666 0.0
C2572 C 0.81761 0.48167 0.6004 0.0
C2573 C 0.815 0.5135 0.66717 0.0
C2574 C 0.85461 0.46432 0.52231 0.0
C2575 C 0.84783 0.47003 0.54251 0.0
C2576 C 0.83589 0.50597 0.5602 0.0
C2577 C 0.81304 0.50537 0.62237 0.0
C2578 C 0.81972 0.49931 0.60061 0.0
C2579 C 0.84142 0.48246 0.53829 0.0
C2580 C 0.83374 0.48821 0.55969 0.0
H2581 H 0.78271 0.51979 0.63642 0.0
H2582 H 0.79329 0.50892 0.60011 0.0
H2583 H 0.83067 0.52513 0.58037 0.0
H2584 H 0.85062 0.48965 0.47448 0.0
H2585 H 0.83748 0.49872 0.50919 0.0
C2586 C 0.48138 0.2745 0.63013 0.0
C2587 C 0.47601 0.27948 0.65271 0.0
C2588 C 0.48562 0.28553 0.60838 0.0
C2589 C 0.47798 0.32008 0.57698 0.0
H2590 H 0.52586 0.33705 0.54634 0.0
C2591 C 0.50433 0.36222 0.48264 0.0
C2592 C 0.52013 0.37943 0.48645 0.0
C2593 C 0.49811 0.34892 0.50189 0.0
C2594 C 0.51246 0.33233 0.55468 0.0
H2595 H 0.46916 0.29872 0.66998 0.0
H2596 H 0.47654 0.3181 0.63184 0.0
H2597 H 0.51572 0.31501 0.58156 0.0
H2598 H 0.5409 0.39698 0.51376 0.0
H2599 H 0.53058 0.37331 0.54714 0.0
H2600 H 0.47472 0.33736 0.54972 0.0
C2601 C 0.47783 0.3059 0.63107 0.0
C2602 C 0.50663 0.3197 0.57471 0.0
C2603 C 0.47375 0.29494 0.65286 0.0
C2604 C 0.52925 0.38344 0.51004 0.0
C2605 C 0.52325 0.37005 0.52912 0.0
C2606 C 0.48368 0.33244 0.55654 0.0
C2607 C 0.48403 0.30142 0.60876 0.0
C2608 C 0.48948 0.3137 0.58631 0.0
C2609 C 0.50762 0.35274 0.52516 0.0
C2610 C 0.50107 0.33884 0.54557 0.0
H2611 H 0.48237 0.26213 0.62937 0.0
H2612 H 0.49014 0.28167 0.59128 0.0
H2613 H 0.46464 0.31554 0.58553 0.0
H2614 H 0.49682 0.35908 0.46477 0.0
H2615 H 0.48595 0.33566 0.4986 0.0
C2616 C 0.60544 0.14341 0.52556 0.0
C2617 C 0.61133 0.14021 0.50202 0.0
C2618 C 0.61703 0.14857 0.54685 0.0
C2619 C 0.64976 0.14226 0.57953 0.0
H2620 H 0.67427 0.19288 0.60276 0.0
C2621 C 0.69141 0.16592 0.67366 0.0
C2622 C 0.70806 0.18263 0.67265 0.0
C2623 C 0.67918 0.16041 0.65307 0.0
C2624 C 0.66744 0.17868 0.59666 0.0
H2625 H 0.63304 0.13833 0.48243 0.0
H2626 H 0.65327 0.14707 0.51998 0.0
H2627 H 0.65306 0.18359 0.56666 0.0
H2628 H 0.7259 0.20595 0.64894 0.0
H2629 H 0.70452 0.19648 0.61294 0.0
H2630 H 0.66404 0.13723 0.60956 0.0
C2631 C 0.63997 0.14615 0.52166 0.0
C2632 C 0.65531 0.17341 0.57605 0.0
C2633 C 0.6285 0.14126 0.50031 0.0
C2634 C 0.71276 0.19336 0.65042 0.0
C2635 C 0.70057 0.1879 0.62986 0.0
C2636 C 0.66163 0.14744 0.6005 0.0
C2637 C 0.63432 0.14992 0.54496 0.0
C2638 C 0.64651 0.15522 0.5673 0.0
C2639 C 0.6836 0.17142 0.63103 0.0
C2640 C 0.67065 0.16574 0.60921 0.0
H2641 H 0.59186 0.14179 0.52751 0.0
H2642 H 0.61243 0.15127 0.56483 0.0
H2643 H 0.6431 0.12815 0.57285 0.0
H2644 H 0.68776 0.15729 0.69052 0.0
H2645 H 0.66617 0.14767 0.65452 0.0
C2646 C 0.50443 0.13995 0.98802 0.0
C2647 C 0.51867 0.13639 0.99373 0.0
C2648 C 0.49679 0.14549 0.00734 0.0
C2649 C 0.48438 0.14035 0.0724 0.0
H2650 H 0.49547 0.19103 0.07409 0.0
C2651 C 0.46929 0.17058 0.16166 0.0
C2652 C 0.46728 0.18606 0.15904 0.0
C2653 C 0.47376 0.16352 0.14046 0.0
C2654 C 0.49185 0.17673 0.07385 0.0
H2655 H 0.53523 0.1343 0.02384 0.0
H2656 H 0.52147 0.1436 0.05793 0.0
H2657 H 0.50643 0.18039 0.03882 0.0
H2658 H 0.46607 0.2051 0.13239 0.0
H2659 H 0.47261 0.19214 0.09496 0.0
H2660 H 0.4691 0.13621 0.1067 0.0
C2661 C 0.51667 0.14265 0.03846 0.0
C2662 C 0.49832 0.17074 0.05363 0.0
C2663 C 0.52459 0.13751 0.01906 0.0
C2664 C 0.46828 0.19353 0.13479 0.0
C2665 C 0.47213 0.18612 0.11342 0.0
C2666 C 0.47749 0.14619 0.09236 0.0
C2667 C 0.50283 0.14678 0.03264 0.0
C2668 C 0.4949 0.15264 0.05304 0.0
C2669 C 0.47546 0.17131 0.11602 0.0
C2670 C 0.48145 0.16459 0.09368 0.0
H2671 H 0.49947 0.13872 0.9686 0.0
H2672 H 0.48605 0.14858 0.00263 0.0
H2673 H 0.48148 0.12624 0.07204 0.0
H2674 H 0.46817 0.16445 0.18028 0.0
H2675 H 0.47647 0.15235 0.14355 0.0
C2676 C 0.86049 0.36303 0.99001 0.0
C2677 C 0.86012 0.37948 0.99195 0.0
C2678 C 0.85485 0.35081 0.01056 0.0
C2679 C 0.84621 0.34796 0.0805 0.0
H2680 H 0.81856 0.2956 0.06652 0.0
C2681 C 0.82667 0.29566 0.16168 0.0
C2682 C 0.80897 0.28026 0.16092 0.0
C2683 C 0.83369 0.30714 0.14041 0.0
C2684 C 0.8261 0.31017 0.07081 0.0
H2685 H 0.85554 0.39717 0.01723 0.0
H2686 H 0.84492 0.37557 0.05293 0.0
H2687 H 0.82865 0.31732 0.03124 0.0
H2688 H 0.78555 0.26326 0.13688 0.0
H2689 H 0.79734 0.28365 0.0999 0.0
H2690 H 0.84275 0.34091 0.12006 0.0
C2691 C 0.84941 0.3719 0.03565 0.0
C2692 C 0.83215 0.32265 0.05052 0.0
C2693 C 0.85516 0.38414 0.01512 0.0
C2694 C 0.79894 0.27559 0.13808 0.0
C2695 C 0.80587 0.28711 0.11681 0.0
C2696 C 0.83991 0.33551 0.10077 0.0
C2697 C 0.84898 0.35497 0.03353 0.0
C2698 C 0.84239 0.3417 0.05511 0.0
C2699 C 0.82315 0.30329 0.11794 0.0
C2700 C 0.82989 0.31645 0.09621 0.0
H2701 H 0.86489 0.35954 0.97247 0.0
H2702 H 0.85522 0.33817 0.00848 0.0
H2703 H 0.85422 0.36251 0.0848 0.0
H2704 H 0.83488 0.29907 0.17894 0.0
H2705 H 0.84731 0.3191 0.1417 0.0
C2706 C 0.62791 0.49089 0.99468 0.0
C2707 C 0.61151 0.47403 0.99734 0.0
C2708 C 0.6404 0.498 0.0149 0.0
C2709 C 0.65616 0.48416 0.07 0.0
H2710 H 0.67557 0.53414 0.09447 0.0
C2711 C 0.71679 0.51806 0.14058 0.0
C2712 C 0.71325 0.52544 0.16243 0.0
C2713 C 0.70494 0.51289 0.1196 0.0
C2714 C 0.67027 0.52018 0.08774 0.0
H2715 H 0.59429 0.45224 0.02361 0.0
H2716 H 0.61654 0.46431 0.05891 0.0
H2717 H 0.65291 0.52255 0.05967 0.0
H2718 H 0.69584 0.53495 0.17889 0.0
H2719 H 0.67502 0.52592 0.14211 0.0
H2720 H 0.67381 0.4819 0.09731 0.0
C2721 C 0.61987 0.4718 0.04102 0.0
C2722 C 0.6574 0.5136 0.06788 0.0
C2723 C 0.60728 0.46482 0.02086 0.0
C2724 C 0.6985 0.52883 0.16239 0.0
C2725 C 0.68671 0.52379 0.14136 0.0
C2726 C 0.66934 0.49088 0.08933 0.0
C2727 C 0.63656 0.48839 0.0381 0.0
C2728 C 0.65015 0.49547 0.05903 0.0
C2729 C 0.68965 0.51549 0.11998 0.0
C2730 C 0.67638 0.50886 0.09858 0.0
H2731 H 0.63116 0.49843 0.97684 0.0
H2732 H 0.65318 0.51082 0.01227 0.0
H2733 H 0.65082 0.47019 0.06342 0.0
H2734 H 0.72861 0.51612 0.13985 0.0
H2735 H 0.70766 0.50678 0.10316 0.0
C2736 C 0.46353 0.85555 0.97504 0.0
C2737 C 0.47087 0.8564 -0.00066 0.0
C2738 C 0.47087 0.85157 0.95372 0.0
C2739 C 0.5109 0.84662 0.93252 0.0
H2740 H 0.47727 0.81895 0.87774 0.0
C2741 C 0.51867 0.82426 0.82586 0.0
C2742 C 0.52224 0.80983 0.82994 0.0
C2743 C 0.51284 0.83093 0.84612 0.0
C2744 C 0.48675 0.82668 0.89292 0.0
H2745 H 0.49213 0.85498 0.02075 0.0
H2746 H 0.50416 0.84653 0.984 0.0
H2747 H 0.46606 0.82839 0.91409 0.0
H2748 H 0.52406 0.79196 0.85818 0.0
H2749 H 0.51426 0.804 0.89393 0.0
H2750 H 0.53126 0.84374 0.91145 0.0
C2751 C 0.49311 0.84942 0.9809 0.0
C2752 C 0.48044 0.8323 0.91373 0.0
C2753 C 0.4861 0.85399 0.00208 0.0
C2754 C 0.52086 0.80277 0.85464 0.0
C2755 C 0.51544 0.80971 0.87499 0.0
C2756 C 0.51705 0.84054 0.91195 0.0
C2757 C 0.4855 0.848 0.95639 0.0
C2758 C 0.49241 0.84236 0.9339 0.0
C2759 C 0.51126 0.82371 0.87076 0.0
C2760 C 0.50499 0.83055 0.89208 0.0
H2761 H 0.45214 0.85805 0.97254 0.0
H2762 H 0.46499 0.85129 0.93521 0.0
H2763 H 0.52072 0.85471 0.94721 0.0
H2764 H 0.52006 0.83009 0.80696 0.0
H2765 H 0.50971 0.8418 0.84263 0.0
C2766 C 0.19354 0.72318 0.85209 0.0
C2767 C 0.18541 0.71873 0.82785 0.0
C2768 C 0.18608 0.71056 0.87208 0.0
C2769 C 0.15398 0.66071 0.88388 0.0
H2770 H 0.15943 0.67728 0.95409 0.0
C2771 C 0.1388 0.61158 0.969 0.0
C2772 C 0.13363 0.61581 0.99231 0.0
C2773 C 0.1433 0.62353 0.94826 0.0
C2774 C 0.15742 0.67232 0.9346 0.0
H2775 H 0.16215 0.69879 0.80581 0.0
H2776 H 0.14863 0.67681 0.84084 0.0
H2777 H 0.17018 0.69966 0.91989 0.0
H2778 H 0.1266 0.63421 0.01168 0.0
H2779 H 0.13388 0.65492 0.9753 0.0
H2780 H 0.14027 0.63331 0.89853 0.0
C2781 C 0.16134 0.68955 0.84426 0.0
C2782 C 0.16397 0.68525 0.91491 0.0
C2783 C 0.16896 0.70213 0.82424 0.0
C2784 C 0.13129 0.63116 0.99404 0.0
C2785 C 0.13559 0.64303 0.97326 0.0
C2786 C 0.14702 0.64775 0.90354 0.0
C2787 C 0.17001 0.69344 0.86833 0.0
C2788 C 0.16248 0.67964 0.88929 0.0
C2789 C 0.14223 0.63969 0.95034 0.0
C2790 C 0.14877 0.65338 0.9292 0.0
H2791 H 0.20582 0.73634 0.85547 0.0
H2792 H 0.19326 0.71408 0.89021 0.0
H2793 H 0.15288 0.65583 0.86445 0.0
H2794 H 0.13982 0.59928 0.96702 0.0
H2795 H 0.14836 0.62041 0.93105 0.0
C2796 C 0.3834 0.53274 0.97441 0.0
C2797 C 0.37941 0.52296 0.99742 0.0
C2798 C 0.37093 0.52596 0.95414 0.0
C2799 C 0.32191 0.49158 0.9401 0.0
H2800 H 0.33903 0.502 0.87006 0.0
C2801 C 0.2717 0.47274 0.85526 0.0
C2802 C 0.27681 0.4687 0.83175 0.0
C2803 C 0.284 0.47884 0.87574 0.0
C2804 C 0.33397 0.49866 0.88947 0.0
H2805 H 0.36052 0.49767 0.01673 0.0
H2806 H 0.33891 0.48539 0.98114 0.0
H2807 H 0.3612 0.51308 0.9046 0.0
H2808 H 0.2976 0.46562 0.81166 0.0
H2809 H 0.31902 0.47572 0.84757 0.0
H2810 H 0.29474 0.47618 0.92494 0.0
C2811 C 0.35107 0.49879 0.97903 0.0
C2812 C 0.34673 0.50537 0.90939 0.0
C2813 C 0.36348 0.5057 -0.00064 0.0
C2814 C 0.29374 0.46936 0.82947 0.0
C2815 C 0.30601 0.47528 0.84999 0.0
C2816 C 0.30917 0.48451 0.92016 0.0
C2817 C 0.35446 0.50898 0.95629 0.0
C2818 C 0.34088 0.50191 0.935 0.0
C2819 C 0.30148 0.48052 0.87324 0.0
C2820 C 0.31502 0.48794 0.89456 0.0
H2821 H 0.39608 0.54573 0.97223 0.0
H2822 H 0.37405 0.53429 0.93708 0.0
H2823 H 0.3168 0.48897 0.95953 0.0
H2824 H 0.2583 0.47149 0.85764 0.0
H2825 H 0.27996 0.48276 0.89321 0.0
C2826 C 0.13862 0.50714 0.49512 0.0
C2827 C 0.14086 0.52485 0.49375 0.0
C2828 C 0.14298 0.49977 0.47412 0.0
C2829 C 0.17399 0.51123 0.42379 0.0
H2830 H 0.13801 0.46957 0.38436 0.0
C2831 C 0.19566 0.47621 0.34835 0.0
C2832 C 0.18662 0.47263 0.32476 0.0
C2833 C 0.18916 0.48156 0.36926 0.0
C2834 C 0.14818 0.48125 0.39519 0.0
H2835 H 0.14755 0.54801 0.46898 0.0
H2836 H 0.1562 0.53552 0.43252 0.0
H2837 H 0.12792 0.48104 0.42052 0.0
H2838 H 0.16308 0.47037 0.3046 0.0
H2839 H 0.15172 0.48007 0.34119 0.0
H2840 H 0.19433 0.51123 0.39952 0.0
C2841 C 0.15127 0.5275 0.44991 0.0
C2842 C 0.14241 0.4877 0.41583 0.0
C2843 C 0.14661 0.53472 0.47077 0.0
C2844 C 0.17044 0.47351 0.32259 0.0
C2845 C 0.16391 0.47889 0.34352 0.0
C2846 C 0.17979 0.50457 0.40365 0.0
C2847 C 0.14953 0.51002 0.45154 0.0
C2848 C 0.15532 0.50285 0.43005 0.0
C2849 C 0.17331 0.48313 0.367 0.0
C2850 C 0.16697 0.48966 0.38891 0.0
H2851 H 0.13371 0.49913 0.51252 0.0
H2852 H 0.14156 0.48625 0.47563 0.0
H2853 H 0.18411 0.52282 0.43465 0.0
H2854 H 0.20775 0.47484 0.35062 0.0
H2855 H 0.19649 0.48438 0.38724 0.0
C2856 C 0.4952 0.63264 0.50888 0.0
C2857 C 0.47755 0.61721 0.50729 0.0
C2858 C 0.50248 0.6447 0.48821 0.0
C2859 C 0.49591 0.6484 0.4185 0.0
H2860 H 0.52452 0.70068 0.43255 0.0
C2861 C 0.52733 0.70023 0.33645 0.0
C2862 C 0.5264 0.71636 0.33859 0.0
C2863 C 0.52339 0.68865 0.35752 0.0
C2864 C 0.51641 0.68615 0.42824 0.0
H2865 H 0.45437 0.60099 0.48247 0.0
H2866 H 0.46655 0.62236 0.44668 0.0
H2867 H 0.5127 0.67903 0.46784 0.0
H2868 H 0.52308 0.73447 0.36466 0.0
H2869 H 0.5153 0.71396 0.40131 0.0
H2870 H 0.49851 0.65551 0.379 0.0
C2871 C 0.4749 0.62537 0.46372 0.0
C2872 C 0.50988 0.67368 0.44853 0.0
C2873 C 0.46773 0.61329 0.48434 0.0
C2874 C 0.52301 0.7216 0.36245 0.0
C2875 C 0.51893 0.70999 0.38352 0.0
C2876 C 0.50214 0.66087 0.39825 0.0
C2877 C 0.49228 0.64137 0.4655 0.0
C2878 C 0.49956 0.65464 0.44391 0.0
C2879 C 0.5186 0.69313 0.38115 0.0
C2880 C 0.5125 0.67991 0.40282 0.0
H2881 H 0.50322 0.63551 0.52625 0.0
H2882 H 0.51612 0.65658 0.49003 0.0
H2883 H 0.48823 0.63384 0.41415 0.0
H2884 H 0.53063 0.69635 0.31831 0.0
H2885 H 0.52394 0.67612 0.35517 0.0
C2886 C 0.3645 0.86199 0.49731 0.0
C2887 C 0.38019 0.86022 0.49645 0.0
C2888 C 0.35256 0.85658 0.47641 0.0
C2889 C 0.34863 0.84348 0.40744 0.0
H2890 H 0.29652 0.81969 0.42261 0.0
C2891 C 0.29488 0.82201 0.32736 0.0
C2892 C 0.27799 0.80582 0.33064 0.0
C2893 C 0.30749 0.82902 0.34742 0.0
C2894 C 0.311 0.82603 0.41798 0.0
H2895 H 0.39717 0.85372 0.47254 0.0
H2896 H 0.37604 0.8434 0.43645 0.0
H2897 H 0.31858 0.83133 0.45729 0.0
H2898 H 0.2601 0.7851 0.3577 0.0
H2899 H 0.28244 0.79659 0.3925 0.0
H2900 H 0.341 0.83706 0.36828 0.0
C2901 C 0.37268 0.84884 0.45304 0.0
C2902 C 0.32372 0.83309 0.43792 0.0
C2903 C 0.38464 0.8544 0.47386 0.0
C2904 C 0.27344 0.79718 0.35454 0.0
C2905 C 0.28612 0.80402 0.37457 0.0
C2906 C 0.33589 0.83606 0.38755 0.0
C2907 C 0.35623 0.84943 0.45425 0.0
C2908 C 0.34272 0.84205 0.43291 0.0
C2909 C 0.30337 0.82 0.37123 0.0
C2910 C 0.31691 0.82739 0.39252 0.0
H2911 H 0.36123 0.8671 0.51437 0.0
H2912 H 0.3404 0.85789 0.47775 0.0
H2913 H 0.36312 0.85044 0.40272 0.0
H2914 H 0.29833 0.82922 0.30922 0.0
H2915 H 0.32035 0.84166 0.34431 0.0
C2916 C 0.25966 0.12383 0.15303 0.0
C2917 C 0.25621 0.12894 0.12898 0.0
C2918 C 0.27768 0.13062 0.16155 0.0
C2919 C 0.32639 0.15424 0.14065 0.0
H2920 H 0.33598 0.1726 0.2103 0.0
C2921 C 0.39991 0.20095 0.17661 0.0
C2922 C 0.40442 0.19636 0.20031 0.0
C2923 C 0.38161 0.19296 0.16883 0.0
C2924 C 0.33349 0.16739 0.19091 0.0
H2925 H 0.26892 0.14437 0.09443 0.0
H2926 H 0.30038 0.15632 0.10933 0.0
H2927 H 0.30449 0.15667 0.19414 0.0
H2928 H 0.39323 0.18056 0.23506 0.0
H2929 H 0.36114 0.16657 0.22146 0.0
H2930 H 0.35541 0.16513 0.13735 0.0
C2931 C 0.28917 0.14697 0.12158 0.0
C2932 C 0.31545 0.1582 0.18166 0.0
C2933 C 0.27113 0.14015 0.11303 0.0
C2934 C 0.39018 0.1844 0.21672 0.0
C2935 C 0.37181 0.17638 0.20892 0.0
C2936 C 0.34441 0.16347 0.14988 0.0
C2937 C 0.29264 0.14269 0.14621 0.0
C2938 C 0.31171 0.1516 0.15637 0.0
C2939 C 0.36739 0.18019 0.18458 0.0
C2940 C 0.34817 0.17026 0.17504 0.0
H2941 H 0.24844 0.11513 0.16572 0.0
H2942 H 0.2799 0.12675 0.1804 0.0
H2943 H 0.32395 0.1491 0.12122 0.0
H2944 H 0.41057 0.21023 0.16359 0.0
H2945 H 0.37861 0.19648 0.15022 0.0
C2946 C 0.80622 0.20206 0.21997 0.0
C2947 C 0.79505 0.20561 0.20369 0.0
C2948 C 0.81284 0.19054 0.21204 0.0
C2949 C 0.80714 0.15594 0.16329 0.0
H2950 H 0.85917 0.175 0.17541 0.0
C2951 C 0.8469 0.12538 0.11317 0.0
C2952 C 0.85836 0.12188 0.12892 0.0
C2953 C 0.83953 0.13603 0.12212 0.0
C2954 C 0.8446 0.16942 0.17205 0.0
H2955 H 0.78115 0.19902 0.16698 0.0
H2956 H 0.79274 0.17905 0.15314 0.0
H2957 H 0.84427 0.19113 0.19298 0.0
H2958 H 0.87176 0.12746 0.16594 0.0
H2959 H 0.85895 0.14601 0.1815 0.0
H2960 H 0.80753 0.1343 0.14221 0.0
C2961 C 0.79635 0.18506 0.17206 0.0
C2962 C 0.83603 0.1786 0.18222 0.0
C2963 C 0.78974 0.19657 0.17998 0.0
C2964 C 0.86298 0.12992 0.15332 0.0
C2965 C 0.85567 0.1406 0.16223 0.0
C2966 C 0.81572 0.14677 0.15309 0.0
C2967 C 0.8084 0.18234 0.1877 0.0
C2968 C 0.81721 0.17199 0.17793 0.0
C2969 C 0.84354 0.14344 0.14695 0.0
C2970 C 0.83456 0.15344 0.15731 0.0
H2971 H 0.8105 0.20877 0.23839 0.0
H2972 H 0.82181 0.18841 0.22473 0.0
H2973 H 0.79258 0.15038 0.15987 0.0
H2974 H 0.84309 0.11938 0.09426 0.0
H2975 H 0.83047 0.13824 0.10974 0.0
C2976 C 0.79419 0.60291 0.21642 0.0
C2977 C 0.78955 0.58767 0.20063 0.0
C2978 C 0.80642 0.62072 0.20789 0.0
C2979 C 0.8232 0.64688 0.14811 0.0
H2980 H 0.85814 0.68547 0.19268 0.0
C2981 C 0.87349 0.72118 0.11319 0.0
C2982 C 0.8764 0.73554 0.12981 0.0
C2983 C 0.86319 0.70284 0.12115 0.0
C2984 C 0.84831 0.67488 0.18006 0.0
H2985 H 0.79485 0.57906 0.16404 0.0
H2986 H 0.81636 0.61014 0.14928 0.0
H2987 H 0.84087 0.65395 0.20845 0.0
H2988 H 0.87018 0.74192 0.1674 0.0
H2989 H 0.85203 0.71003 0.18107 0.0
H2990 H 0.83051 0.66786 0.1198 0.0
C2991 C 0.81029 0.60834 0.16808 0.0
C2992 C 0.83846 0.65682 0.18909 0.0
C2993 C 0.79808 0.59053 0.17663 0.0
C2994 C 0.86828 0.73118 0.15417 0.0
C2995 C 0.85801 0.7129 0.16211 0.0
C2996 C 0.83306 0.66496 0.13907 0.0
C2997 C 0.81426 0.62366 0.18337 0.0
C2998 C 0.82566 0.64264 0.1733 0.0
C2999 C 0.85562 0.69853 0.14588 0.0
C3000 C 0.84558 0.67919 0.15505 0.0
H3001 H 0.78783 0.60116 0.235 0.0
H3002 H 0.80908 0.63222 0.22007 0.0
H3003 H 0.81323 0.63632 0.13558 0.0
H3004 H 0.87962 0.72411 0.09433 0.0
H3005 H 0.86166 0.69208 0.10824 0.0
C3006 C 0.1975 0.40139 0.31599 0.0
C3007 C 0.19291 0.40493 0.29163 0.0
C3008 C 0.19046 0.38337 0.32456 0.0
C3009 C 0.15164 0.33657 0.31435 0.0
H3010 H 0.18112 0.32248 0.35532 0.0
C3011 C 0.12803 0.2615 0.34385 0.0
C3012 C 0.13306 0.25855 0.36827 0.0
C3013 C 0.13425 0.27934 0.33496 0.0
C3014 C 0.17263 0.32627 0.34421 0.0
H3015 H 0.17786 0.39234 0.25678 0.0
H3016 H 0.16572 0.36073 0.27166 0.0
H3017 H 0.19516 0.35338 0.33745 0.0
H3018 H 0.14768 0.27193 0.40307 0.0
H3019 H 0.15837 0.30311 0.38764 0.0
H3020 H 0.12912 0.30937 0.32106 0.0
C3021 C 0.17455 0.37195 0.28426 0.0
C3022 C 0.1807 0.34396 0.33388 0.0
C3023 C 0.18163 0.39004 0.27566 0.0
C3024 C 0.14363 0.27376 0.38413 0.0
C3025 C 0.14988 0.29162 0.37521 0.0
C3026 C 0.14357 0.31884 0.32465 0.0
C3027 C 0.17868 0.36843 0.30897 0.0
C3028 C 0.17028 0.34934 0.31893 0.0
C3029 C 0.14565 0.29461 0.35029 0.0
C3030 C 0.15397 0.31353 0.33979 0.0
H3031 H 0.20613 0.41257 0.3288 0.0
H3032 H 0.19376 0.38116 0.34378 0.0
H3033 H 0.14316 0.34038 0.30325 0.0
H3034 H 0.1199 0.25005 0.33117 0.0
H3035 H 0.13082 0.28118 0.31563 0.0
C3036 C 0.59251 0.79895 0.31944 0.0
C3037 C 0.58779 0.78981 0.29578 0.0
C3038 C 0.61089 0.80936 0.32684 0.0
C3039 C 0.65886 0.832 0.30399 0.0
H3040 H 0.66888 0.82289 0.37325 0.0
C3041 C 0.73299 0.86184 0.34099 0.0
C3042 C 0.73657 0.87011 0.36526 0.0
C3043 C 0.71491 0.85084 0.33248 0.0
C3044 C 0.66631 0.8257 0.35394 0.0
H3045 H 0.59868 0.78529 0.26067 0.0
H3046 H 0.63089 0.80357 0.27364 0.0
H3047 H 0.63731 0.8076 0.35761 0.0
H3048 H 0.72403 0.87261 0.40012 0.0
H3049 H 0.69251 0.85352 0.38525 0.0
H3050 H 0.68786 0.85025 0.3004 0.0
C3051 C 0.62033 0.80266 0.28644 0.0
C3052 C 0.64822 0.81699 0.34499 0.0
C3053 C 0.60189 0.79221 0.27901 0.0
C3054 C 0.72172 0.86639 0.38135 0.0
C3055 C 0.70364 0.85541 0.37282 0.0
C3056 C 0.67697 0.84078 0.31297 0.0
C3057 C 0.62497 0.81087 0.31076 0.0
C3058 C 0.64427 0.82014 0.31999 0.0
C3059 C 0.70003 0.84788 0.34806 0.0
C3060 C 0.68089 0.83781 0.33811 0.0
H3061 H 0.58197 0.79749 0.33273 0.0
H3062 H 0.61406 0.81588 0.34547 0.0
H3063 H 0.65623 0.8348 0.2847 0.0
H3064 H 0.74414 0.86438 0.32818 0.0
H3065 H 0.71258 0.84494 0.3135 0.0
C3066 C 0.19626 0.7973 0.32237 0.0
C3067 C 0.20448 0.80168 0.29808 0.0
C3068 C 0.18589 0.80504 0.33091 0.0
C3069 C 0.18044 0.84537 0.32078 0.0
H3070 H 0.13594 0.81738 0.36058 0.0
C3071 C 0.13112 0.87208 0.34715 0.0
C3072 C 0.12252 0.86728 0.37119 0.0
C3073 C 0.14236 0.86517 0.33916 0.0
C3074 C 0.1485 0.82545 0.34982 0.0
H3075 H 0.20769 0.81704 0.26327 0.0
H3076 H 0.18931 0.83039 0.27809 0.0
H3077 H 0.15178 0.80209 0.34339 0.0
H3078 H 0.11977 0.85237 0.40629 0.0
H3079 H 0.1396 0.84047 0.39243 0.0
H3080 H 0.17707 0.86871 0.32713 0.0
C3081 C 0.19117 0.8212 0.29067 0.0
C3082 C 0.15753 0.81667 0.33988 0.0
C3083 C 0.20155 0.81343 0.2821 0.0
C3084 C 0.12616 0.85625 0.38763 0.0
C3085 C 0.13738 0.84931 0.3796 0.0
C3086 C 0.17139 0.85415 0.33071 0.0
C3087 C 0.1835 0.81732 0.31535 0.0
C3088 C 0.17359 0.82653 0.32525 0.0
C3089 C 0.14521 0.85332 0.35503 0.0
C3090 C 0.15532 0.84428 0.34534 0.0
H3091 H 0.19829 0.78832 0.33516 0.0
H3092 H 0.1803 0.80189 0.35009 0.0
H3093 H 0.19297 0.85342 0.30996 0.0
H3094 H 0.1286 0.88057 0.33405 0.0
H3095 H 0.1481 0.86843 0.32007 0.0
C3096 C 0.73604 0.8702 0.84456 0.0
C3097 C 0.73897 0.86489 0.8688 0.0
C3098 C 0.71823 0.86443 0.83595 0.0
C3099 C 0.66994 0.84466 0.85703 0.0
H3100 H 0.65872 0.82543 0.78788 0.0
C3101 C 0.59557 0.80146 0.82162 0.0
C3102 C 0.59151 0.80552 0.79725 0.0
C3103 C 0.61376 0.809 0.8297 0.0
C3104 C 0.66168 0.83094 0.80712 0.0
H3105 H 0.72559 0.85005 0.90345 0.0
H3106 H 0.69447 0.83989 0.88838 0.0
H3107 H 0.69018 0.83919 0.80382 0.0
H3108 H 0.60333 0.82021 0.7619 0.0
H3109 H 0.63523 0.83347 0.77608 0.0
H3110 H 0.64142 0.83626 0.86041 0.0
C3111 C 0.70595 0.84861 0.87608 0.0
C3112 C 0.6797 0.83886 0.81624 0.0
C3113 C 0.72378 0.85438 0.8847 0.0
C3114 C 0.60604 0.81679 0.78077 0.0
C3115 C 0.6243 0.82436 0.78887 0.0
C3116 C 0.65193 0.83673 0.84792 0.0
C3117 C 0.70297 0.85325 0.8514 0.0
C3118 C 0.684 0.84569 0.84136 0.0
C3119 C 0.62832 0.8208 0.81361 0.0
C3120 C 0.64757 0.82964 0.82294 0.0
H3121 H 0.74748 0.87838 0.8319 0.0
H3122 H 0.7164 0.86851 0.81703 0.0
H3123 H 0.67286 0.85004 0.87633 0.0
H3124 H 0.58468 0.79273 0.83473 0.0
H3125 H 0.61643 0.80569 0.84866 0.0
C3126 C 0.18187 0.79561 0.77617 0.0
C3127 C 0.19353 0.79288 0.7926 0.0
C3128 C 0.17363 0.80565 0.78438 0.0
C3129 C 0.15981 0.81896 0.8438 0.0
H3130 H 0.15386 0.85295 0.80016 0.0
C3131 C 0.13581 0.86842 0.8809 0.0
C3132 C 0.12477 0.87222 0.86471 0.0
C3133 C 0.14287 0.85739 0.87243 0.0
C3134 C 0.15516 0.84328 0.81247 0.0
H3135 H 0.20651 0.79936 0.82996 0.0
H3136 H 0.1924 0.81707 0.84406 0.0
H3137 H 0.16996 0.8376 0.78398 0.0
H3138 H 0.11149 0.86651 0.82759 0.0
H3139 H 0.12353 0.84702 0.81302 0.0
H3140 H 0.14507 0.82467 0.87231 0.0
C3141 C 0.18928 0.81113 0.82508 0.0
C3142 C 0.16444 0.83454 0.8032 0.0
C3143 C 0.1975 0.80112 0.81689 0.0
C3144 C 0.12007 0.86394 0.84046 0.0
C3145 C 0.12709 0.8529 0.83202 0.0
C3146 C 0.15051 0.82768 0.85305 0.0
C3147 C 0.17691 0.81313 0.80916 0.0
C3148 C 0.16697 0.82238 0.81882 0.0
C3149 C 0.13899 0.84993 0.84762 0.0
C3150 C 0.14814 0.84 0.83753 0.0
H3151 H 0.1785 0.78937 0.75737 0.0
H3152 H 0.16411 0.8069 0.7717 0.0
H3153 H 0.16121 0.80937 0.85614 0.0
H3154 H 0.13971 0.87465 0.89967 0.0
H3155 H 0.15207 0.85544 0.88488 0.0
C3156 C 0.1943 0.39713 0.81729 0.0
C3157 C 0.20321 0.40139 0.79347 0.0
C3158 C 0.18313 0.37885 0.82477 0.0
C3159 C 0.1761 0.33259 0.81277 0.0
H3160 H 0.13156 0.31692 0.85211 0.0
C3161 C 0.12603 0.25672 0.84087 0.0
C3162 C 0.11813 0.25348 0.86536 0.0
C3163 C 0.13698 0.27469 0.8319 0.0
C3164 C 0.14408 0.32115 0.84139 0.0
H3165 H 0.20683 0.38984 0.75837 0.0
H3166 H 0.18705 0.35782 0.77131 0.0
H3167 H 0.14829 0.3482 0.83544 0.0
H3168 H 0.11617 0.26651 0.90007 0.0
H3169 H 0.13544 0.29787 0.8845 0.0
H3170 H 0.17182 0.30547 0.81875 0.0
C3171 C 0.18897 0.36866 0.78437 0.0
C3172 C 0.15364 0.33905 0.83178 0.0
C3173 C 0.20016 0.38698 0.77687 0.0
C3174 C 0.12201 0.26856 0.88108 0.0
C3175 C 0.13291 0.28651 0.87209 0.0
C3176 C 0.16649 0.31464 0.82234 0.0
C3177 C 0.18058 0.3644 0.80859 0.0
C3178 C 0.16984 0.34503 0.81751 0.0
C3179 C 0.1402 0.28977 0.84721 0.0
C3180 C 0.15046 0.30878 0.83693 0.0
H3181 H 0.1964 0.40791 0.83056 0.0
H3182 H 0.17704 0.37607 0.84366 0.0
H3183 H 0.18868 0.33684 0.80219 0.0
H3184 H 0.12327 0.24538 0.82828 0.0
H3185 H 0.14232 0.27674 0.8126 0.0
C3186 C 0.8523 0.72303 0.61326 0.0
C3187 C 0.86367 0.73796 0.62911 0.0
C3188 C 0.8461 0.70498 0.6214 0.0
C3189 C 0.83737 0.67824 0.68078 0.0
H3190 H 0.83154 0.63939 0.63499 0.0
C3191 C 0.8145 0.6041 0.71495 0.0
C3192 C 0.80218 0.58968 0.69906 0.0
C3193 C 0.8223 0.6224 0.70687 0.0
C3194 C 0.83292 0.65007 0.64795 0.0
H3195 H 0.87825 0.74576 0.6653 0.0
H3196 H 0.86769 0.71436 0.67926 0.0
H3197 H 0.84561 0.67093 0.61929 0.0
H3198 H 0.78786 0.58314 0.66266 0.0
H3199 H 0.80126 0.61495 0.64878 0.0
H3200 H 0.8246 0.65735 0.70941 0.0
C3201 C 0.86323 0.71654 0.66081 0.0
C3202 C 0.841 0.66813 0.63896 0.0
C3203 C 0.86939 0.73454 0.65271 0.0
C3204 C 0.79739 0.59393 0.67531 0.0
C3205 C 0.80518 0.61216 0.66725 0.0
C3206 C 0.82931 0.66017 0.68979 0.0
C3207 C 0.85117 0.70154 0.64552 0.0
C3208 C 0.84324 0.68242 0.65523 0.0
C3209 C 0.81795 0.62658 0.68273 0.0
C3210 C 0.82688 0.64587 0.67343 0.0
H3211 H 0.84761 0.72523 0.595 0.0
H3212 H 0.83672 0.69373 0.60922 0.0
H3213 H 0.8386 0.68887 0.69372 0.0
H3214 H 0.8185 0.60125 0.73333 0.0
H3215 H 0.83217 0.63321 0.71919 0.0
C3216 C 0.26818 0.13418 0.65163 0.0
C3217 C 0.26371 0.12537 0.62772 0.0
C3218 C 0.28649 0.1445 0.65944 0.0
C3219 C 0.33459 0.16743 0.63647 0.0
H3220 H 0.34502 0.16003 0.70636 0.0
C3221 C 0.40882 0.1971 0.67228 0.0
C3222 C 0.41294 0.20641 0.6958 0.0
C3223 C 0.39059 0.18605 0.66448 0.0
C3224 C 0.34232 0.16234 0.68686 0.0
H3225 H 0.27497 0.1211 0.5928 0.0
H3226 H 0.30699 0.13908 0.60648 0.0
H3227 H 0.31334 0.14426 0.691 0.0
H3228 H 0.40115 0.21068 0.73019 0.0
H3229 H 0.36928 0.1914 0.71656 0.0
H3230 H 0.36357 0.18553 0.63235 0.0
C3231 C 0.29633 0.1381 0.61914 0.0
C3232 C 0.32417 0.15336 0.67807 0.0
C3233 C 0.27798 0.12778 0.6113 0.0
C3234 C 0.39842 0.20366 0.71198 0.0
C3235 C 0.38016 0.19258 0.70417 0.0
C3236 C 0.35274 0.17639 0.64526 0.0
C3237 C 0.30076 0.14622 0.64354 0.0
C3238 C 0.32008 0.15586 0.65281 0.0
C3239 C 0.37606 0.18406 0.68004 0.0
C3240 C 0.35681 0.17397 0.67057 0.0
H3241 H 0.2575 0.13267 0.66468 0.0
H3242 H 0.28946 0.15092 0.67812 0.0
H3243 H 0.33189 0.16981 0.61701 0.0
H3244 H 0.4197 0.19886 0.65943 0.0
H3245 H 0.38786 0.17936 0.64601 0.0
C3246 C 0.86409 0.12753 0.64745 0.0
C3247 C 0.87327 0.13279 0.62385 0.0
C3248 C 0.85232 0.1339 0.65489 0.0
C3249 C 0.84337 0.17199 0.6436 0.0
H3250 H 0.79895 0.14107 0.68218 0.0
C3251 C 0.79127 0.1947 0.6744 0.0
C3252 C 0.7838 0.18956 0.69907 0.0
C3253 C 0.8025 0.1883 0.66447 0.0
C3254 C 0.81141 0.14992 0.67164 0.0
H3255 H 0.87682 0.14835 0.58914 0.0
H3256 H 0.85597 0.15931 0.60204 0.0
H3257 H 0.81679 0.12793 0.66489 0.0
H3258 H 0.78281 0.17428 0.73306 0.0
H3259 H 0.8025 0.16324 0.71581 0.0
H3260 H 0.83791 0.19399 0.65042 0.0
C3261 C 0.85814 0.15048 0.61493 0.0
C3262 C 0.82162 0.14239 0.66169 0.0
C3263 C 0.86995 0.14408 0.60746 0.0
C3264 C 0.7883 0.17844 0.71395 0.0
C3265 C 0.79946 0.17199 0.704 0.0
C3266 C 0.8331 0.17952 0.65349 0.0
C3267 C 0.84939 0.14566 0.63891 0.0
C3268 C 0.83783 0.15338 0.64781 0.0
C3269 C 0.8064 0.17657 0.67899 0.0
C3270 C 0.81714 0.16861 0.66788 0.0
H3271 H 0.86638 0.11888 0.66055 0.0
H3272 H 0.846 0.1301 0.67361 0.0
H3273 H 0.85593 0.18089 0.63329 0.0
H3274 H 0.78803 0.20324 0.66246 0.0
H3275 H 0.80759 0.192 0.64511 0.0
C3276 C 0.06196 0.52505 0.54688 0.0
C3277 C 0.07681 0.53634 0.53087 0.0
C3278 C 0.04389 0.51853 0.53871 0.0
C3279 C 0.01516 0.52521 0.4911 0.0
H3280 H 0.982 0.47303 0.50173 0.0
C3281 C 0.94261 0.48635 0.44535 0.0
C3282 C 0.92838 0.47405 0.4615 0.0
C3283 C 0.961 0.49405 0.45294 0.0
C3284 C 0.99102 0.48765 0.4988 0.0
H3285 H 0.08441 0.55044 0.49432 0.0
H3286 H 0.05288 0.53905 0.4801 0.0
H3287 H 0.0133 0.48732 0.51812 0.0
H3288 H 0.92226 0.4599 0.49801 0.0
H3289 H 0.95412 0.47336 0.51124 0.0
H3290 H 0.99279 0.52552 0.47188 0.0
C3291 C 0.05519 0.53526 0.49896 0.0
C3292 C 0.00894 0.49585 0.50827 0.0
C3293 C 0.07326 0.54173 0.50709 0.0
C3294 C 0.9329 0.4693 0.48506 0.0
C3295 C 0.9512 0.47695 0.49262 0.0
C3296 C -0.00283 0.517 0.48169 0.0
C3297 C 0.04031 0.52321 0.51441 0.0
C3298 C 0.02119 0.51473 0.50465 0.0
C3299 C 0.96548 0.48954 0.47678 0.0
C3300 C 0.98487 0.49815 0.48557 0.0
H3301 H 0.06426 0.5207 0.56534 0.0
H3302 H 0.03269 0.50951 0.55122 0.0
H3303 H 0.02426 0.53981 0.48814 0.0
H3304 H 0.93954 0.49029 0.42708 0.0
H3305 H 0.97172 0.50355 0.44018 0.0
C3306 C 0.47119 0.53388 0.55474 0.0
C3307 C 0.46102 0.53917 0.53914 0.0
C3308 C 0.47693 0.52198 0.54541 0.0
C3309 C 0.46986 0.48874 0.4942 0.0
H3310 H 0.52139 0.50513 0.50624 0.0
C3311 C 0.50749 0.45557 0.44371 0.0
C3312 C 0.51916 0.45219 0.4592 0.0
C3313 C 0.50017 0.46623 0.45287 0.0
C3314 C 0.50693 0.50024 0.50291 0.0
H3315 H 0.44793 0.53532 0.50211 0.0
H3316 H 0.45795 0.51454 0.48585 0.0
H3317 H 0.50783 0.52222 0.52468 0.0
H3318 H 0.53254 0.45755 0.49624 0.0
H3319 H 0.51971 0.4759 0.51219 0.0
H3320 H 0.46898 0.46669 0.47246 0.0
C3321 C 0.46148 0.51956 0.50527 0.0
C3322 C 0.49915 0.51001 0.51354 0.0
C3323 C 0.45579 0.53151 0.51458 0.0
C3324 C 0.52365 0.45996 0.48377 0.0
C3325 C 0.51635 0.47056 0.4929 0.0
C3326 C 0.47764 0.4789 0.48361 0.0
C3327 C 0.47255 0.5151 0.52034 0.0
C3328 C 0.48052 0.50433 0.5094 0.0
C3329 C 0.50442 0.47372 0.47766 0.0
C3330 C 0.49625 0.48451 0.48795 0.0
H3331 H 0.47537 0.53948 0.5738 0.0
H3332 H 0.48517 0.51849 0.55761 0.0
H3333 H 0.45544 0.48399 0.49079 0.0
H3334 H 0.50378 0.44976 0.4247 0.0
H3335 H 0.4912 0.46862 0.44055 0.0
C3336 C 0.53902 0.05657 0.4444 0.0
C3337 C 0.54091 0.07066 0.46081 0.0
C3338 C 0.52821 0.0381 0.4516 0.0
C3339 C 0.49193 0.0076 0.49751 0.0
H3340 H 0.51134 0.97484 0.48623 0.0
C3341 C 0.46065 0.93766 0.54759 0.0
C3342 C 0.45648 0.92252 0.53182 0.0
C3343 C 0.47191 0.95558 0.53869 0.0
C3344 C 0.50571 0.98381 0.48936 0.0
H3345 H 0.53256 0.07645 0.49727 0.0
H3346 H 0.514 0.04447 0.50986 0.0
H3347 H 0.52799 0.00628 0.46968 0.0
H3348 H 0.46172 0.91426 0.49493 0.0
H3349 H 0.48149 0.9456 0.47945 0.0
H3350 H 0.46981 0.98526 0.51745 0.0
C3351 C 0.52061 0.04755 0.49132 0.0
C3352 C 0.51517 0.00178 0.47977 0.0
C3353 C 0.53136 0.06593 0.48414 0.0
C3354 C 0.46467 0.92565 0.50753 0.0
C3355 C 0.47601 0.94359 0.49867 0.0
C3356 C 0.48256 0.98973 0.5072 0.0
C3357 C 0.51908 0.0334 0.47532 0.0
C3358 C 0.50847 0.01393 0.48394 0.0
C3359 C 0.4793 0.95873 0.51388 0.0
C3360 C 0.48942 0.97769 0.50343 0.0
H3361 H 0.54623 0.0598 0.4263 0.0
H3362 H 0.5271 0.02751 0.43869 0.0
H3363 H 0.48619 0.01647 0.50064 0.0
H3364 H 0.45461 0.93572 0.56644 0.0
H3365 H 0.47449 0.96699 0.55101 0.0
C3366 C 0.52868 0.06359 0.9885 0.0
C3367 C 0.52448 0.06749 0.96412 0.0
C3368 C 0.52085 0.04547 0.99705 0.0
C3369 C 0.49699 0.99707 0.9756 0.0
H3370 H 0.47907 0.98732 0.04545 0.0
C3371 C 0.45396 0.92331 0.0132 0.0
C3372 C 0.45923 0.91964 0.03699 0.0
C3373 C 0.4608 0.94138 0.00495 0.0
C3374 C 0.48413 0.98985 0.02598 0.0
H3375 H 0.50925 0.05543 0.9292 0.0
H3376 H 0.49544 0.02368 0.9442 0.0
H3377 H 0.49404 0.01872 0.02903 0.0
H3378 H 0.47508 0.93203 0.07136 0.0
H3379 H 0.48711 0.96371 0.05691 0.0
H3380 H 0.4871 0.96821 0.97256 0.0
C3381 C 0.50491 0.03466 0.95664 0.0
C3382 C 0.49274 0.00783 0.01657 0.0
C3383 C 0.5128 0.05284 0.94805 0.0
C3384 C 0.47074 0.93444 0.05296 0.0
C3385 C 0.47761 0.95257 0.04468 0.0
C3386 C 0.48835 0.97909 0.98499 0.0
C3387 C 0.50859 0.03081 0.98143 0.0
C3388 C 0.49934 0.01166 0.9913 0.0
C3389 C 0.47308 0.9562 0.0203 0.0
C3390 C 0.48184 0.97528 0.01029 0.0
H3391 H 0.53773 0.07457 0.00129 0.0
H3392 H 0.52429 0.04295 0.01601 0.0
H3393 H 0.50213 -0.00041 0.95617 0.0
H3394 H 0.44499 0.9122 0.00052 0.0
H3395 H 0.45675 0.94374 0.98631 0.0
C3396 C 0.92965 0.46293 0.98149 0.0
C3397 C 0.92634 0.45449 0.95737 0.0
C3398 C 0.94762 0.47394 0.99035 0.0
C3399 C 0.99628 0.49949 0.96994 0.0
H3400 H 0.00583 0.49152 0.04001 0.0
C3401 C 0.06996 0.53095 0.00792 0.0
C3402 C 0.07345 0.53995 0.03163 0.0
C3403 C 0.05193 0.51945 -0.00033 0.0
C3404 C 0.00335 0.49399 0.02048 0.0
H3405 H 0.93927 0.45159 0.92318 0.0
H3406 H 0.97064 0.47078 0.93868 0.0
H3407 H 0.97449 0.47486 0.02332 0.0
H3408 H 0.06083 0.54313 0.06594 0.0
H3409 H 0.02929 0.52304 0.05148 0.0
H3410 H 0.02511 0.5186 0.96708 0.0
C3411 C 0.95936 0.46897 0.9507 0.0
C3412 C 0.9854 0.48451 0.01093 0.0
C3413 C 0.94137 0.45795 0.94183 0.0
C3414 C 0.05857 0.53636 0.04758 0.0
C3415 C 0.0405 0.52484 0.0393 0.0
C3416 C 0.01421 0.50894 0.97948 0.0
C3417 C 0.96266 0.47676 0.97529 0.0
C3418 C 0.98167 0.48716 0.98555 0.0
C3419 C 0.037 0.5167 0.01494 0.0
C3420 C 0.01795 0.50628 0.00483 0.0
H3421 H 0.91835 0.46058 0.99389 0.0
H3422 H 0.94973 0.48005 0.00918 0.0
H3423 H 0.99382 0.50201 0.95043 0.0
H3424 H 0.08114 0.53333 0.99525 0.0
H3425 H 0.04968 0.51304 0.98104 0.0
C3426 C 0.52921 0.46401 0.98273 0.0
C3427 C 0.53819 0.46868 0.95897 0.0
C3428 C 0.5184 0.47148 0.99036 0.0
C3429 C 0.51277 0.51162 0.97893 0.0
H3430 H 0.46805 0.48345 0.01821 0.0
C3431 C 0.46348 0.53837 0.00687 0.0
C3432 C 0.45543 0.53364 0.03126 0.0
C3433 C 0.47448 0.53138 -0.00192 0.0
C3434 C 0.48064 0.49155 0.00752 0.0
H3435 H 0.54226 0.48421 0.92407 0.0
H3436 H 0.52307 0.49704 0.93724 0.0
H3437 H 0.48404 0.46826 0.00125 0.0
H3438 H 0.45343 0.51874 0.06613 0.0
H3439 H 0.47277 0.50669 0.05086 0.0
H3440 H 0.50925 0.5349 0.98517 0.0
C3441 C 0.52469 0.48786 0.95016 0.0
C3442 C 0.48977 0.48284 -0.00226 0.0
C3443 C 0.53554 0.48038 0.94252 0.0
C3444 C 0.45936 0.52257 0.04719 0.0
C3445 C 0.47031 0.51554 0.03838 0.0
C3446 C 0.50358 0.52033 0.98865 0.0
C3447 C 0.51629 0.48375 0.97436 0.0
C3448 C 0.50601 0.49279 0.98348 0.0
C3449 C 0.47758 0.51948 0.0135 0.0
C3450 C 0.4875 0.51041 0.00322 0.0
H3451 H 0.53102 0.45506 0.99588 0.0
H3452 H 0.51228 0.46817 0.00922 0.0
H3453 H 0.52541 0.51974 0.96836 0.0
H3454 H 0.4607 0.54688 0.99415 0.0
H3455 H 0.47985 0.53461 0.9788 0.0
loop_
_geom_bond_atom_site_label_1
_geom_bond_atom_site_label_2
_geom_bond_distance
_geom_bond_site_symmetry_2
_ccdc_geom_bond_type
Mn0 O5 2.095 . S
Mn0 O15 2.162 . S
Mn0 O16 2.297 . S
Mn0 O24 2.385 . S
Mn0 O25 2.209 . S
Mn0 O26 2.094 . S
Mn1 O6 2.121 . S
Mn1 N8 2.257 . S
Mn1 N17 2.282 . S
Mn1 O25 2.215 . S
Mn1 O27 2.117 . S
C2 O24 1.234 . S
C2 O25 1.283 . S
C3 O15 1.281 . S
C3 O16 1.236 . S
C4 O26 1.240 . S
C4 O27 1.264 . S
O5 Mn0 2.095 . S
O5 C14 1.250 . S
O6 Mn1 2.121 . S
O6 C14 1.258 . S
C7 N8 1.326 . S
C7 C11 1.460 . S
C7 H13 0.929 . S
N8 Mn1 2.257 . S
N8 C7 1.326 . S
N8 C12 1.362 . S
C9 C10 1.258 . S
C9 C12 1.431 . S
C9 C29 1.449 . S
C10 C9 1.258 . S
C10 C11 1.477 . S
C10 H30 0.931 . S
C11 C7 1.460 . S
C11 C10 1.477 . S
C11 H31 0.930 . S
C12 N8 1.362 . S
C12 C9 1.431 . S
C12 C22 1.476 . S
H13 C7 0.929 . S
C14 O5 1.250 . S
C14 O6 1.258 . S
O15 Mn0 2.162 . S
O15 C3 1.281 . S
O16 Mn0 2.297 . S
O16 C3 1.236 . S
N17 Mn1 2.282 . S
N17 C18 1.328 . S
N17 C22 1.318 . S
C18 N17 1.328 . S
C18 C19 1.457 . S
C18 H23 0.929 . S
C19 C18 1.457 . S
C19 C20 1.291 . S
C19 H32 0.931 . S
C20 C19 1.291 . S
C20 C21 1.373 . S
C20 H33 0.929 . S
C21 C20 1.373 . S
C21 C22 1.396 . S
C21 C28 1.403 . S
C22 C12 1.476 . S
C22 N17 1.318 . S
C22 C21 1.396 . S
H23 C18 0.929 . S
O24 Mn0 2.385 . S
O24 C2 1.234 . S
O25 Mn0 2.209 . S
O25 Mn1 2.215 . S
O25 C2 1.283 . S
O26 Mn0 2.094 . S
O26 C4 1.240 . S
O27 Mn1 2.117 . S
O27 C4 1.264 . S
C28 C21 1.403 . S
C28 C29 1.399 . S
C28 H34 0.929 . S
C29 C9 1.449 . S
C29 C28 1.399 . S
C29 H35 0.930 . S
H30 C10 0.931 . S
H31 C11 0.930 . S
H32 C19 0.931 . S
H33 C20 0.929 . S
H34 C28 0.929 . S
H35 C29 0.930 . S
Mn36 O41 2.095 . S
Mn36 O51 2.162 . S
Mn36 O52 2.297 . S
Mn36 O60 2.385 . S
Mn36 O61 2.209 . S
Mn36 O62 2.094 . S
Mn37 O42 2.121 . S
Mn37 N44 2.257 . S
Mn37 N53 2.282 . S
Mn37 O61 2.215 . S
Mn37 O63 2.117 . S
C38 O60 1.234 . S
C38 O61 1.283 . S
C39 O51 1.281 . S
C39 O52 1.236 . S
C40 O62 1.240 . S
C40 O63 1.264 . S
O41 Mn36 2.095 . S
O41 C50 1.250 . S
O42 Mn37 2.121 . S
O42 C50 1.258 . S
C43 N44 1.326 . S
C43 C47 1.460 . S
C43 H49 0.929 . S
N44 Mn37 2.257 . S
N44 C43 1.326 . S
N44 C48 1.362 . S
C45 C46 1.258 . S
C45 C48 1.431 . S
C45 C65 1.449 . S
C46 C45 1.258 . S
C46 C47 1.477 . S
C46 H66 0.931 . S
C47 C43 1.460 . S
C47 C46 1.477 . S
C47 H67 0.930 . S
C48 N44 1.362 . S
C48 C45 1.431 . S
C48 C58 1.476 . S
H49 C43 0.929 . S
C50 O41 1.250 . S
C50 O42 1.258 . S
O51 Mn36 2.162 . S
O51 C39 1.281 . S
O52 Mn36 2.297 . S
O52 C39 1.236 . S
N53 Mn37 2.282 . S
N53 C54 1.328 . S
N53 C58 1.318 . S
C54 N53 1.328 . S
C54 C55 1.457 1_545 S
C54 H59 0.929 . S
C55 C54 1.457 1_565 S
C55 C56 1.291 . S
C55 H68 0.931 . S
C56 C55 1.291 . S
C56 C57 1.373 1_565 S
C56 H69 0.929 . S
C57 C56 1.373 1_545 S
C57 C58 1.396 . S
C57 C64 1.403 . S
C58 C48 1.476 . S
C58 N53 1.318 . S
C58 C57 1.396 . S
H59 C54 0.929 . S
O60 Mn36 2.385 . S
O60 C38 1.234 . S
O61 Mn36 2.209 . S
O61 Mn37 2.215 . S
O61 C38 1.283 . S
O62 Mn36 2.094 . S
O62 C40 1.240 . S
O63 Mn37 2.117 . S
O63 C40 1.264 . S
C64 C57 1.403 . S
C64 C65 1.399 . S
C64 H70 0.929 1_545 S
C65 C45 1.449 . S
C65 C64 1.399 . S
C65 H71 0.930 . S
H66 C46 0.931 . S
H67 C47 0.930 . S
H68 C55 0.931 . S
H69 C56 0.929 . S
H70 C64 0.929 1_565 S
H71 C65 0.930 . S
Mn72 O77 2.095 . S
Mn72 O87 2.162 . S
Mn72 O88 2.297 . S
Mn72 O96 2.385 . S
Mn72 O97 2.209 . S
Mn72 O98 2.094 . S
Mn73 O78 2.121 . S
Mn73 N80 2.257 . S
Mn73 N89 2.282 . S
Mn73 O97 2.215 . S
Mn73 O99 2.117 . S
C74 O96 1.234 . S
C74 O97 1.283 . S
C75 O87 1.281 . S
C75 O88 1.236 . S
C76 O98 1.240 . S
C76 O99 1.264 . S
O77 Mn72 2.095 . S
O77 C86 1.250 . S
O78 Mn73 2.121 . S
O78 C86 1.258 . S
C79 N80 1.326 . S
C79 C83 1.460 . S
C79 H85 0.929 . S
N80 Mn73 2.257 . S
N80 C79 1.326 . S
N80 C84 1.362 . S
C81 C82 1.258 . S
C81 C84 1.431 . S
C81 C101 1.449 . S
C82 C81 1.258 . S
C82 C83 1.477 . S
C82 H102 0.931 . S
C83 C79 1.460 . S
C83 C82 1.477 . S
C83 H103 0.930 . S
C84 N80 1.362 . S
C84 C81 1.431 . S
C84 C94 1.476 . S
H85 C79 0.929 . S
C86 O77 1.250 . S
C86 O78 1.258 . S
O87 Mn72 2.162 . S
O87 C75 1.281 . S
O88 Mn72 2.297 . S
O88 C75 1.236 . S
N89 Mn73 2.282 . S
N89 C90 1.328 . S
N89 C94 1.318 . S
C90 N89 1.328 . S
C90 C91 1.457 1_655 S
C90 H95 0.929 . S
C91 C90 1.457 1_455 S
C91 C92 1.291 . S
C91 H104 0.931 . S
C92 C91 1.291 . S
C92 C93 1.373 1_455 S
C92 H105 0.929 . S
C93 C92 1.373 1_655 S
C93 C94 1.396 . S
C93 C100 1.403 . S
C94 C84 1.476 . S
C94 N89 1.318 . S
C94 C93 1.396 . S
H95 C90 0.929 . S
O96 Mn72 2.385 . S
O96 C74 1.234 . S
O97 Mn72 2.209 . S
O97 Mn73 2.215 . S
O97 C74 1.283 . S
O98 Mn72 2.094 . S
O98 C76 1.240 . S
O99 Mn73 2.117 . S
O99 C76 1.264 . S
C100 C93 1.403 . S
C100 C101 1.399 . S
C100 H106 0.929 1_655 S
C101 C81 1.449 . S
C101 C100 1.399 . S
C101 H107 0.930 . S
H102 C82 0.931 . S
H103 C83 0.930 . S
H104 C91 0.931 . S
H105 C92 0.929 . S
H106 C100 0.929 1_455 S
H107 C101 0.930 . S
Mn108 O113 2.095 . S
Mn108 O123 2.162 . S
Mn108 O124 2.297 . S
Mn108 O132 2.385 . S
Mn108 O133 2.209 . S
Mn108 O134 2.094 . S
Mn109 O114 2.121 . S
Mn109 N116 2.257 . S
Mn109 N125 2.282 . S
Mn109 O133 2.215 . S
Mn109 O135 2.117 . S
C110 O132 1.234 . S
C110 O133 1.283 . S
C111 O123 1.281 . S
C111 O124 1.236 . S
C112 O134 1.240 . S
C112 O135 1.264 . S
O113 Mn108 2.095 . S
O113 C122 1.250 . S
O114 Mn109 2.121 . S
O114 C122 1.258 . S
C115 N116 1.326 . S
C115 C119 1.460 . S
C115 H121 0.929 . S
N116 Mn109 2.257 . S
N116 C115 1.326 . S
N116 C120 1.362 . S
C117 C118 1.258 . S
C117 C120 1.431 . S
C117 C137 1.449 . S
C118 C117 1.258 . S
C118 C119 1.477 . S
C118 H138 0.931 . S
C119 C115 1.460 . S
C119 C118 1.477 . S
C119 H139 0.930 . S
C120 N116 1.362 . S
C120 C117 1.431 . S
C120 C130 1.476 . S
H121 C115 0.929 . S
C122 O113 1.250 . S
C122 O114 1.258 . S
O123 Mn108 2.162 . S
O123 C111 1.281 . S
O124 Mn108 2.297 . S
O124 C111 1.236 . S
N125 Mn109 2.282 . S
N125 C126 1.328 . S
N125 C130 1.318 . S
C126 N125 1.328 . S
C126 C127 1.457 . S
C126 H131 0.929 . S
C127 C126 1.457 . S
C127 C128 1.291 . S
C127 H140 0.931 . S
C128 C127 1.291 . S
C128 C129 1.373 . S
C128 H141 0.929 . S
C129 C128 1.373 . S
C129 C130 1.396 . S
C129 C136 1.403 . S
C130 C120 1.476 . S
C130 N125 1.318 . S
C130 C129 1.396 . S
H131 C126 0.929 . S
O132 Mn108 2.385 . S
O132 C110 1.234 . S
O133 Mn108 2.209 . S
O133 Mn109 2.215 . S
O133 C110 1.283 . S
O134 Mn108 2.094 . S
O134 C112 1.240 . S
O135 Mn109 2.117 . S
O135 C112 1.264 . S
C136 C129 1.403 . S
C136 C137 1.399 . S
C136 H142 0.929 . S
C137 C117 1.449 . S
C137 C136 1.399 . S
C137 H143 0.930 . S
H138 C118 0.931 . S
H139 C119 0.930 . S
H140 C127 0.931 . S
H141 C128 0.929 . S
H142 C136 0.929 . S
H143 C137 0.930 . S
Mn144 O149 2.095 . S
Mn144 O159 2.162 . S
Mn144 O160 2.297 . S
Mn144 O168 2.385 . S
Mn144 O169 2.209 . S
Mn144 O170 2.094 . S
Mn145 O150 2.121 . S
Mn145 N152 2.257 . S
Mn145 N161 2.282 . S
Mn145 O169 2.215 . S
Mn145 O171 2.117 . S
C146 O168 1.234 . S
C146 O169 1.283 . S
C147 O159 1.281 . S
C147 O160 1.236 . S
C148 O170 1.240 . S
C148 O171 1.264 . S
O149 Mn144 2.095 . S
O149 C158 1.250 . S
O150 Mn145 2.121 . S
O150 C158 1.258 . S
C151 N152 1.326 . S
C151 C155 1.460 . S
C151 H157 0.929 . S
N152 Mn145 2.257 . S
N152 C151 1.326 . S
N152 C156 1.362 . S
C153 C154 1.258 . S
C153 C156 1.431 . S
C153 C173 1.449 . S
C154 C153 1.258 . S
C154 C155 1.477 . S
C154 H174 0.931 . S
C155 C151 1.460 . S
C155 C154 1.477 . S
C155 H175 0.930 . S
C156 N152 1.362 . S
C156 C153 1.431 . S
C156 C166 1.476 . S
H157 C151 0.929 . S
C158 O149 1.250 . S
C158 O150 1.258 . S
O159 Mn144 2.162 . S
O159 C147 1.281 . S
O160 Mn144 2.297 . S
O160 C147 1.236 . S
N161 Mn145 2.282 . S
N161 C162 1.328 . S
N161 C166 1.318 . S
C162 N161 1.328 . S
C162 C163 1.457 1_565 S
C162 H167 0.929 . S
C163 C162 1.457 1_545 S
C163 C164 1.291 . S
C163 H176 0.931 . S
C164 C163 1.291 . S
C164 C165 1.373 1_545 S
C164 H177 0.929 . S
C165 C164 1.373 1_565 S
C165 C166 1.396 . S
C165 C172 1.403 . S
C166 C156 1.476 . S
C166 N161 1.318 . S
C166 C165 1.396 . S
H167 C162 0.929 . S
O168 Mn144 2.385 . S
O168 C146 1.234 . S
O169 Mn144 2.209 . S
O169 Mn145 2.215 . S
O169 C146 1.283 . S
O170 Mn144 2.094 . S
O170 C148 1.240 . S
O171 Mn145 2.117 . S
O171 C148 1.264 . S
C172 C165 1.403 . S
C172 C173 1.399 . S
C172 H178 0.929 1_565 S
C173 C153 1.449 . S
C173 C172 1.399 . S
C173 H179 0.930 . S
H174 C154 0.931 . S
H175 C155 0.930 . S
H176 C163 0.931 . S
H177 C164 0.929 . S
H178 C172 0.929 1_545 S
H179 C173 0.930 . S
Mn180 O185 2.095 . S
Mn180 O195 2.162 . S
Mn180 O196 2.297 . S
Mn180 O204 2.385 . S
Mn180 O205 2.209 . S
Mn180 O206 2.094 . S
Mn181 O186 2.121 . S
Mn181 N188 2.257 . S
Mn181 N197 2.282 . S
Mn181 O205 2.215 . S
Mn181 O207 2.117 . S
C182 O204 1.234 . S
C182 O205 1.283 . S
C183 O195 1.281 . S
C183 O196 1.236 . S
C184 O206 1.240 . S
C184 O207 1.264 . S
O185 Mn180 2.095 . S
O185 C194 1.250 . S
O186 Mn181 2.121 . S
O186 C194 1.258 . S
C187 N188 1.326 . S
C187 C191 1.460 . S
C187 H193 0.929 . S
N188 Mn181 2.257 . S
N188 C187 1.326 . S
N188 C192 1.362 . S
C189 C190 1.258 . S
C189 C192 1.431 . S
C189 C209 1.449 . S
C190 C189 1.258 . S
C190 C191 1.477 . S
C190 H210 0.931 . S
C191 C187 1.460 . S
C191 C190 1.477 . S
C191 H211 0.930 . S
C192 N188 1.362 . S
C192 C189 1.431 . S
C192 C202 1.476 . S
H193 C187 0.929 . S
C194 O185 1.250 . S
C194 O186 1.258 . S
O195 Mn180 2.162 . S
O195 C183 1.281 . S
O196 Mn180 2.297 . S
O196 C183 1.236 . S
N197 Mn181 2.282 . S
N197 C198 1.328 . S
N197 C202 1.318 . S
C198 N197 1.328 . S
C198 C199 1.457 1_455 S
C198 H203 0.929 . S
C199 C198 1.457 1_655 S
C199 C200 1.291 . S
C199 H212 0.931 . S
C200 C199 1.291 . S
C200 C201 1.373 1_655 S
C200 H213 0.929 . S
C201 C200 1.373 1_455 S
C201 C202 1.396 . S
C201 C208 1.403 . S
C202 C192 1.476 . S
C202 N197 1.318 . S
C202 C201 1.396 . S
H203 C198 0.929 . S
O204 Mn180 2.385 . S
O204 C182 1.234 . S
O205 Mn180 2.209 . S
O205 Mn181 2.215 . S
O205 C182 1.283 . S
O206 Mn180 2.094 . S
O206 C184 1.240 . S
O207 Mn181 2.117 . S
O207 C184 1.264 . S
C208 C201 1.403 . S
C208 C209 1.399 . S
C208 H214 0.929 1_455 S
C209 C189 1.449 . S
C209 C208 1.399 . S
C209 H215 0.930 . S
H210 C190 0.931 . S
H211 C191 0.930 . S
H212 C199 0.931 . S
H213 C200 0.929 . S
H214 C208 0.929 1_655 S
H215 C209 0.930 . S
Mn216 O221 2.095 . S
Mn216 O231 2.162 . S
Mn216 O232 2.297 . S
Mn216 O240 2.385 . S
Mn216 O241 2.209 . S
Mn216 O242 2.094 . S
Mn217 O222 2.121 . S
Mn217 N224 2.257 . S
Mn217 N233 2.282 . S
Mn217 O241 2.215 . S
Mn217 O243 2.117 . S
C218 O240 1.234 . S
C218 O241 1.283 . S
C219 O231 1.281 . S
C219 O232 1.236 . S
C220 O242 1.240 . S
C220 O243 1.264 . S
O221 Mn216 2.095 . S
O221 C230 1.250 . S
O222 Mn217 2.121 . S
O222 C230 1.258 . S
C223 N224 1.326 . S
C223 C227 1.460 . S
C223 H229 0.929 . S
N224 Mn217 2.257 . S
N224 C223 1.326 . S
N224 C228 1.362 . S
C225 C226 1.258 . S
C225 C228 1.431 . S
C225 C245 1.449 . S
C226 C225 1.258 . S
C226 C227 1.477 . S
C226 H246 0.931 . S
C227 C223 1.460 . S
C227 C226 1.477 . S
C227 H247 0.930 . S
C228 N224 1.362 . S
C228 C225 1.431 . S
C228 C238 1.476 . S
H229 C223 0.929 . S
C230 O221 1.250 . S
C230 O222 1.258 . S
O231 Mn216 2.162 . S
O231 C219 1.281 . S
O232 Mn216 2.297 . S
O232 C219 1.236 . S
N233 Mn217 2.282 . S
N233 C234 1.328 . S
N233 C238 1.318 . S
C234 N233 1.328 . S
C234 C235 1.457 . S
C234 H239 0.929 . S
C235 C234 1.457 . S
C235 C236 1.291 . S
C235 H248 0.931 . S
C236 C235 1.291 . S
C236 C237 1.373 . S
C236 H249 0.929 . S
C237 C236 1.373 . S
C237 C238 1.396 . S
C237 C244 1.403 . S
C238 C228 1.476 . S
C238 N233 1.318 . S
C238 C237 1.396 . S
H239 C234 0.929 . S
O240 Mn216 2.385 . S
O240 C218 1.234 . S
O241 Mn216 2.209 . S
O241 Mn217 2.215 . S
O241 C218 1.283 . S
O242 Mn216 2.094 . S
O242 C220 1.240 . S
O243 Mn217 2.117 . S
O243 C220 1.264 . S
C244 C237 1.403 . S
C244 C245 1.399 . S
C244 H250 0.929 . S
C245 C225 1.449 . S
C245 C244 1.399 . S
C245 H251 0.930 . S
H246 C226 0.931 . S
H247 C227 0.930 . S
H248 C235 0.931 . S
H249 C236 0.929 . S
H250 C244 0.929 . S
H251 C245 0.930 . S
Mn252 O257 2.095 . S
Mn252 O267 2.162 . S
Mn252 O268 2.297 . S
Mn252 O276 2.385 . S
Mn252 O277 2.209 . S
Mn252 O278 2.094 . S
Mn253 O258 2.121 . S
Mn253 N260 2.257 . S
Mn253 N269 2.282 . S
Mn253 O277 2.215 . S
Mn253 O279 2.117 . S
C254 O276 1.234 . S
C254 O277 1.283 . S
C255 O267 1.281 . S
C255 O268 1.236 . S
C256 O278 1.240 . S
C256 O279 1.264 . S
O257 Mn252 2.095 . S
O257 C266 1.250 . S
O258 Mn253 2.121 . S
O258 C266 1.258 . S
C259 N260 1.326 . S
C259 C263 1.460 . S
C259 H265 0.929 . S
N260 Mn253 2.257 . S
N260 C259 1.326 . S
N260 C264 1.362 . S
C261 C262 1.258 . S
C261 C264 1.431 . S
C261 C281 1.449 . S
C262 C261 1.258 . S
C262 C263 1.477 . S
C262 H282 0.931 . S
C263 C259 1.460 . S
C263 C262 1.477 . S
C263 H283 0.930 . S
C264 N260 1.362 . S
C264 C261 1.431 . S
C264 C274 1.476 . S
H265 C259 0.929 . S
C266 O257 1.250 . S
C266 O258 1.258 . S
O267 Mn252 2.162 . S
O267 C255 1.281 . S
O268 Mn252 2.297 . S
O268 C255 1.236 . S
N269 Mn253 2.282 . S
N269 C270 1.328 . S
N269 C274 1.318 . S
C270 N269 1.328 . S
C270 C271 1.457 1_565 S
C270 H275 0.929 . S
C271 C270 1.457 1_545 S
C271 C272 1.291 . S
C271 H284 0.931 . S
C272 C271 1.291 . S
C272 C273 1.373 1_545 S
C272 H285 0.929 . S
C273 C272 1.373 1_565 S
C273 C274 1.396 . S
C273 C280 1.403 . S
C274 C264 1.476 . S
C274 N269 1.318 . S
C274 C273 1.396 . S
H275 C270 0.929 . S
O276 Mn252 2.385 . S
O276 C254 1.234 . S
O277 Mn252 2.209 . S
O277 Mn253 2.215 . S
O277 C254 1.283 . S
O278 Mn252 2.094 . S
O278 C256 1.240 . S
O279 Mn253 2.117 . S
O279 C256 1.264 . S
C280 C273 1.403 . S
C280 C281 1.399 . S
C280 H286 0.929 1_565 S
C281 C261 1.449 . S
C281 C280 1.399 . S
C281 H287 0.930 . S
H282 C262 0.931 . S
H283 C263 0.930 . S
H284 C271 0.931 . S
H285 C272 0.929 . S
H286 C280 0.929 1_545 S
H287 C281 0.930 . S
Mn288 O293 2.095 . S
Mn288 O303 2.162 . S
Mn288 O304 2.297 . S
Mn288 O312 2.385 . S
Mn288 O313 2.209 . S
Mn288 O314 2.094 . S
Mn289 O294 2.121 . S
Mn289 N296 2.257 . S
Mn289 N305 2.282 . S
Mn289 O313 2.215 . S
Mn289 O315 2.117 . S
C290 O312 1.234 . S
C290 O313 1.283 . S
C291 O303 1.281 . S
C291 O304 1.236 . S
C292 O314 1.240 . S
C292 O315 1.264 . S
O293 Mn288 2.095 . S
O293 C302 1.250 . S
O294 Mn289 2.121 . S
O294 C302 1.258 . S
C295 N296 1.326 . S
C295 C299 1.460 . S
C295 H301 0.929 . S
N296 Mn289 2.257 . S
N296 C295 1.326 . S
N296 C300 1.362 . S
C297 C298 1.258 . S
C297 C300 1.431 . S
C297 C317 1.449 . S
C298 C297 1.258 . S
C298 C299 1.477 . S
C298 H318 0.931 . S
C299 C295 1.460 . S
C299 C298 1.477 . S
C299 H319 0.930 . S
C300 N296 1.362 . S
C300 C297 1.431 . S
C300 C310 1.476 . S
H301 C295 0.929 . S
C302 O293 1.250 . S
C302 O294 1.258 . S
O303 Mn288 2.162 . S
O303 C291 1.281 . S
O304 Mn288 2.297 . S
O304 C291 1.236 . S
N305 Mn289 2.282 . S
N305 C306 1.328 . S
N305 C310 1.318 . S
C306 N305 1.328 . S
C306 C307 1.457 1_455 S
C306 H311 0.929 . S
C307 C306 1.457 1_655 S
C307 C308 1.291 . S
C307 H320 0.931 . S
C308 C307 1.291 . S
C308 C309 1.373 1_655 S
C308 H321 0.929 . S
C309 C308 1.373 1_455 S
C309 C310 1.396 . S
C309 C316 1.403 . S
C310 C300 1.476 . S
C310 N305 1.318 . S
C310 C309 1.396 . S
H311 C306 0.929 . S
O312 Mn288 2.385 . S
O312 C290 1.234 . S
O313 Mn288 2.209 . S
O313 Mn289 2.215 . S
O313 C290 1.283 . S
O314 Mn288 2.094 . S
O314 C292 1.240 . S
O315 Mn289 2.117 . S
O315 C292 1.264 . S
C316 C309 1.403 . S
C316 C317 1.399 . S
C316 H322 0.929 1_455 S
C317 C297 1.449 . S
C317 C316 1.399 . S
C317 H323 0.930 . S
H318 C298 0.931 . S
H319 C299 0.930 . S
H320 C307 0.931 . S
H321 C308 0.929 . S
H322 C316 0.929 1_655 S
H323 C317 0.930 . S
Mn324 O329 2.095 . S
Mn324 O339 2.162 . S
Mn324 O340 2.297 . S
Mn324 O348 2.385 . S
Mn324 O349 2.209 . S
Mn324 O350 2.094 . S
Mn325 O330 2.121 . S
Mn325 N332 2.257 . S
Mn325 N341 2.282 . S
Mn325 O349 2.215 . S
Mn325 O351 2.117 . S
C326 O348 1.234 . S
C326 O349 1.283 . S
C327 O339 1.281 . S
C327 O340 1.236 . S
C328 O350 1.240 . S
C328 O351 1.264 . S
O329 Mn324 2.095 . S
O329 C338 1.250 . S
O330 Mn325 2.121 . S
O330 C338 1.258 . S
C331 N332 1.326 . S
C331 C335 1.460 . S
C331 H337 0.929 . S
N332 Mn325 2.257 . S
N332 C331 1.326 . S
N332 C336 1.362 . S
C333 C334 1.258 . S
C333 C336 1.431 . S
C333 C353 1.449 . S
C334 C333 1.258 . S
C334 C335 1.477 . S
C334 H354 0.931 . S
C335 C331 1.460 . S
C335 C334 1.477 . S
C335 H355 0.930 . S
C336 N332 1.362 . S
C336 C333 1.431 . S
C336 C346 1.476 . S
H337 C331 0.929 . S
C338 O329 1.250 . S
C338 O330 1.258 . S
O339 Mn324 2.162 . S
O339 C327 1.281 . S
O340 Mn324 2.297 . S
O340 C327 1.236 . S
N341 Mn325 2.282 . S
N341 C342 1.328 . S
N341 C346 1.318 . S
C342 N341 1.328 . S
C342 C343 1.457 . S
C342 H347 0.929 . S
C343 C342 1.457 . S
C343 C344 1.291 . S
C343 H356 0.931 . S
C344 C343 1.291 . S
C344 C345 1.373 . S
C344 H357 0.929 . S
C345 C344 1.373 . S
C345 C346 1.396 . S
C345 C352 1.403 . S
C346 C336 1.476 . S
C346 N341 1.318 . S
C346 C345 1.396 . S
H347 C342 0.929 . S
O348 Mn324 2.385 . S
O348 C326 1.234 . S
O349 Mn324 2.209 . S
O349 Mn325 2.215 . S
O349 C326 1.283 . S
O350 Mn324 2.094 . S
O350 C328 1.240 . S
O351 Mn325 2.117 . S
O351 C328 1.264 . S
C352 C345 1.403 . S
C352 C353 1.399 . S
C352 H358 0.929 . S
C353 C333 1.449 . S
C353 C352 1.399 . S
C353 H359 0.930 . S
H354 C334 0.931 . S
H355 C335 0.930 . S
H356 C343 0.931 . S
H357 C344 0.929 . S
H358 C352 0.929 . S
H359 C353 0.930 . S
Mn360 O365 2.095 . S
Mn360 O375 2.162 . S
Mn360 O376 2.297 . S
Mn360 O384 2.385 . S
Mn360 O385 2.209 . S
Mn360 O386 2.094 . S
Mn361 O366 2.121 . S
Mn361 N368 2.257 . S
Mn361 N377 2.282 . S
Mn361 O385 2.215 . S
Mn361 O387 2.117 . S
C362 O384 1.234 . S
C362 O385 1.283 . S
C363 O375 1.281 . S
C363 O376 1.236 . S
C364 O386 1.240 . S
C364 O387 1.264 . S
O365 Mn360 2.095 . S
O365 C374 1.250 . S
O366 Mn361 2.121 . S
O366 C374 1.258 . S
C367 N368 1.326 . S
C367 C371 1.460 . S
C367 H373 0.929 . S
N368 Mn361 2.257 . S
N368 C367 1.326 . S
N368 C372 1.362 . S
C369 C370 1.258 . S
C369 C372 1.431 . S
C369 C389 1.449 . S
C370 C369 1.258 . S
C370 C371 1.477 . S
C370 H390 0.931 . S
C371 C367 1.460 . S
C371 C370 1.477 . S
C371 H391 0.930 . S
C372 N368 1.362 . S
C372 C369 1.431 . S
C372 C382 1.476 . S
H373 C367 0.929 . S
C374 O365 1.250 . S
C374 O366 1.258 . S
O375 Mn360 2.162 . S
O375 C363 1.281 . S
O376 Mn360 2.297 . S
O376 C363 1.236 . S
N377 Mn361 2.282 . S
N377 C378 1.328 . S
N377 C382 1.318 . S
C378 N377 1.328 . S
C378 C379 1.457 1_545 S
C378 H383 0.929 . S
C379 C378 1.457 1_565 S
C379 C380 1.291 . S
C379 H392 0.931 . S
C380 C379 1.291 . S
C380 C381 1.373 1_565 S
C380 H393 0.929 . S
C381 C380 1.373 1_545 S
C381 C382 1.396 . S
C381 C388 1.403 . S
C382 C372 1.476 . S
C382 N377 1.318 . S
C382 C381 1.396 . S
H383 C378 0.929 . S
O384 Mn360 2.385 . S
O384 C362 1.234 . S
O385 Mn360 2.209 . S
O385 Mn361 2.215 . S
O385 C362 1.283 . S
O386 Mn360 2.094 . S
O386 C364 1.240 . S
O387 Mn361 2.117 . S
O387 C364 1.264 . S
C388 C381 1.403 . S
C388 C389 1.399 . S
C388 H394 0.929 1_545 S
C389 C369 1.449 . S
C389 C388 1.399 . S
C389 H395 0.930 . S
H390 C370 0.931 . S
H391 C371 0.930 . S
H392 C379 0.931 . S
H393 C380 0.929 . S
H394 C388 0.929 1_565 S
H395 C389 0.930 . S
Mn396 O401 2.095 . S
Mn396 O411 2.162 . S
Mn396 O412 2.297 . S
Mn396 O420 2.385 . S
Mn396 O421 2.209 . S
Mn396 O422 2.094 . S
Mn397 O402 2.121 . S
Mn397 N404 2.257 . S
Mn397 N413 2.282 . S
Mn397 O421 2.215 . S
Mn397 O423 2.117 . S
C398 O420 1.234 . S
C398 O421 1.283 . S
C399 O411 1.281 . S
C399 O412 1.236 . S
C400 O422 1.240 . S
C400 O423 1.264 . S
O401 Mn396 2.095 . S
O401 C410 1.250 . S
O402 Mn397 2.121 . S
O402 C410 1.258 . S
C403 N404 1.326 . S
C403 C407 1.460 . S
C403 H409 0.929 . S
N404 Mn397 2.257 . S
N404 C403 1.326 . S
N404 C408 1.362 . S
C405 C406 1.258 . S
C405 C408 1.431 . S
C405 C425 1.449 . S
C406 C405 1.258 . S
C406 C407 1.477 . S
C406 H426 0.931 . S
C407 C403 1.460 . S
C407 C406 1.477 . S
C407 H427 0.930 . S
C408 N404 1.362 . S
C408 C405 1.431 . S
C408 C418 1.476 . S
H409 C403 0.929 . S
C410 O401 1.250 . S
C410 O402 1.258 . S
O411 Mn396 2.162 . S
O411 C399 1.281 . S
O412 Mn396 2.297 . S
O412 C399 1.236 . S
N413 Mn397 2.282 . S
N413 C414 1.328 . S
N413 C418 1.318 . S
C414 N413 1.328 . S
C414 C415 1.457 1_655 S
C414 H419 0.929 . S
C415 C414 1.457 1_455 S
C415 C416 1.291 . S
C415 H428 0.931 . S
C416 C415 1.291 . S
C416 C417 1.373 1_455 S
C416 H429 0.929 . S
C417 C416 1.373 1_655 S
C417 C418 1.396 . S
C417 C424 1.403 . S
C418 C408 1.476 . S
C418 N413 1.318 . S
C418 C417 1.396 . S
H419 C414 0.929 . S
O420 Mn396 2.385 . S
O420 C398 1.234 . S
O421 Mn396 2.209 . S
O421 Mn397 2.215 . S
O421 C398 1.283 . S
O422 Mn396 2.094 . S
O422 C400 1.240 . S
O423 Mn397 2.117 . S
O423 C400 1.264 . S
C424 C417 1.403 . S
C424 C425 1.399 . S
C424 H430 0.929 1_655 S
C425 C405 1.449 . S
C425 C424 1.399 . S
C425 H431 0.930 . S
H426 C406 0.931 . S
H427 C407 0.930 . S
H428 C415 0.931 . S
H429 C416 0.929 . S
H430 C424 0.929 1_455 S
H431 C425 0.930 . S
Mn432 O437 2.095 . S
Mn432 O447 2.162 . S
Mn432 O448 2.297 . S
Mn432 O456 2.385 . S
Mn432 O457 2.209 . S
Mn432 O458 2.094 . S
Mn433 O438 2.121 . S
Mn433 N440 2.257 . S
Mn433 N449 2.282 . S
Mn433 O457 2.215 . S
Mn433 O459 2.117 . S
C434 O456 1.234 . S
C434 O457 1.283 . S
C435 O447 1.281 . S
C435 O448 1.236 . S
C436 O458 1.240 . S
C436 O459 1.264 . S
O437 Mn432 2.095 . S
O437 C446 1.250 . S
O438 Mn433 2.121 . S
O438 C446 1.258 . S
C439 N440 1.326 . S
C439 C443 1.460 . S
C439 H445 0.929 . S
N440 Mn433 2.257 . S
N440 C439 1.326 . S
N440 C444 1.362 . S
C441 C442 1.258 . S
C441 C444 1.431 . S
C441 C461 1.449 . S
C442 C441 1.258 . S
C442 C443 1.477 . S
C442 H462 0.931 . S
C443 C439 1.460 . S
C443 C442 1.477 . S
C443 H463 0.930 . S
C444 N440 1.362 . S
C444 C441 1.431 . S
C444 C454 1.476 . S
H445 C439 0.929 . S
C446 O437 1.250 . S
C446 O438 1.258 . S
O447 Mn432 2.162 . S
O447 C435 1.281 . S
O448 Mn432 2.297 . S
O448 C435 1.236 . S
N449 Mn433 2.282 . S
N449 C450 1.328 . S
N449 C454 1.318 . S
C450 N449 1.328 . S
C450 C451 1.457 . S
C450 H455 0.929 . S
C451 C450 1.457 . S
C451 C452 1.291 . S
C451 H464 0.931 . S
C452 C451 1.291 . S
C452 C453 1.373 . S
C452 H465 0.929 . S
C453 C452 1.373 . S
C453 C454 1.396 . S
C453 C460 1.403 . S
C454 C444 1.476 . S
C454 N449 1.318 . S
C454 C453 1.396 . S
H455 C450 0.929 . S
O456 Mn432 2.385 . S
O456 C434 1.234 . S
O457 Mn432 2.209 . S
O457 Mn433 2.215 . S
O457 C434 1.283 . S
O458 Mn432 2.094 . S
O458 C436 1.240 . S
O459 Mn433 2.117 . S
O459 C436 1.264 . S
C460 C453 1.403 . S
C460 C461 1.399 . S
C460 H466 0.929 . S
C461 C441 1.449 . S
C461 C460 1.399 . S
C461 H467 0.930 . S
H462 C442 0.931 . S
H463 C443 0.930 . S
H464 C451 0.931 . S
H465 C452 0.929 . S
H466 C460 0.929 . S
H467 C461 0.930 . S
Mn468 O473 2.095 . S
Mn468 O483 2.162 . S
Mn468 O484 2.297 . S
Mn468 O492 2.385 . S
Mn468 O493 2.209 . S
Mn468 O494 2.094 . S
Mn469 O474 2.121 . S
Mn469 N476 2.257 . S
Mn469 N485 2.282 . S
Mn469 O493 2.215 . S
Mn469 O495 2.117 . S
C470 O492 1.234 . S
C470 O493 1.283 . S
C471 O483 1.281 . S
C471 O484 1.236 . S
C472 O494 1.240 . S
C472 O495 1.264 . S
O473 Mn468 2.095 . S
O473 C482 1.250 . S
O474 Mn469 2.121 . S
O474 C482 1.258 . S
C475 N476 1.326 . S
C475 C479 1.460 . S
C475 H481 0.929 . S
N476 Mn469 2.257 . S
N476 C475 1.326 . S
N476 C480 1.362 . S
C477 C478 1.258 . S
C477 C480 1.431 . S
C477 C497 1.449 . S
C478 C477 1.258 . S
C478 C479 1.477 . S
C478 H498 0.931 . S
C479 C475 1.460 . S
C479 C478 1.477 . S
C479 H499 0.930 . S
C480 N476 1.362 . S
C480 C477 1.431 . S
C480 C490 1.476 . S
H481 C475 0.929 . S
C482 O473 1.250 . S
C482 O474 1.258 . S
O483 Mn468 2.162 . S
O483 C471 1.281 . S
O484 Mn468 2.297 . S
O484 C471 1.236 . S
N485 Mn469 2.282 . S
N485 C486 1.328 . S
N485 C490 1.318 . S
C486 N485 1.328 . S
C486 C487 1.457 . S
C486 H491 0.929 . S
C487 C486 1.457 . S
C487 C488 1.291 . S
C487 H500 0.931 . S
C488 C487 1.291 . S
C488 C489 1.373 . S
C488 H501 0.929 . S
C489 C488 1.373 . S
C489 C490 1.396 . S
C489 C496 1.403 . S
C490 C480 1.476 . S
C490 N485 1.318 . S
C490 C489 1.396 . S
H491 C486 0.929 . S
O492 Mn468 2.385 . S
O492 C470 1.234 . S
O493 Mn468 2.209 . S
O493 Mn469 2.215 . S
O493 C470 1.283 . S
O494 Mn468 2.094 . S
O494 C472 1.240 . S
O495 Mn469 2.117 . S
O495 C472 1.264 . S
C496 C489 1.403 . S
C496 C497 1.399 . S
C496 H502 0.929 . S
C497 C477 1.449 . S
C497 C496 1.399 . S
C497 H503 0.930 . S
H498 C478 0.931 . S
H499 C479 0.930 . S
H500 C487 0.931 . S
H501 C488 0.929 . S
H502 C496 0.929 . S
H503 C497 0.930 . S
Mn504 O509 2.095 . S
Mn504 O519 2.162 . S
Mn504 O520 2.297 . S
Mn504 O528 2.385 . S
Mn504 O529 2.209 . S
Mn504 O530 2.094 . S
Mn505 O510 2.121 . S
Mn505 N512 2.257 . S
Mn505 N521 2.282 . S
Mn505 O529 2.215 . S
Mn505 O531 2.117 . S
C506 O528 1.234 . S
C506 O529 1.283 . S
C507 O519 1.281 . S
C507 O520 1.236 . S
C508 O530 1.240 . S
C508 O531 1.264 . S
O509 Mn504 2.095 . S
O509 C518 1.250 . S
O510 Mn505 2.121 . S
O510 C518 1.258 . S
C511 N512 1.326 . S
C511 C515 1.460 . S
C511 H517 0.929 . S
N512 Mn505 2.257 . S
N512 C511 1.326 . S
N512 C516 1.362 . S
C513 C514 1.258 . S
C513 C516 1.431 . S
C513 C533 1.449 . S
C514 C513 1.258 . S
C514 C515 1.477 . S
C514 H534 0.931 . S
C515 C511 1.460 . S
C515 C514 1.477 . S
C515 H535 0.930 . S
C516 N512 1.362 . S
C516 C513 1.431 . S
C516 C526 1.476 . S
H517 C511 0.929 . S
C518 O509 1.250 . S
C518 O510 1.258 . S
O519 Mn504 2.162 . S
O519 C507 1.281 . S
O520 Mn504 2.297 . S
O520 C507 1.236 . S
N521 Mn505 2.282 . S
N521 C522 1.328 . S
N521 C526 1.318 . S
C522 N521 1.328 . S
C522 C523 1.457 . S
C522 H527 0.929 . S
C523 C522 1.457 . S
C523 C524 1.291 . S
C523 H536 0.931 . S
C524 C523 1.291 . S
C524 C525 1.373 . S
C524 H537 0.929 . S
C525 C524 1.373 . S
C525 C526 1.396 . S
C525 C532 1.403 . S
C526 C516 1.476 . S
C526 N521 1.318 . S
C526 C525 1.396 . S
H527 C522 0.929 . S
O528 Mn504 2.385 . S
O528 C506 1.234 . S
O529 Mn504 2.209 . S
O529 Mn505 2.215 . S
O529 C506 1.283 . S
O530 Mn504 2.094 . S
O530 C508 1.240 . S
O531 Mn505 2.117 . S
O531 C508 1.264 . S
C532 C525 1.403 . S
C532 C533 1.399 . S
C532 H538 0.929 . S
C533 C513 1.449 . S
C533 C532 1.399 . S
C533 H539 0.930 . S
H534 C514 0.931 . S
H535 C515 0.930 . S
H536 C523 0.931 . S
H537 C524 0.929 . S
H538 C532 0.929 . S
H539 C533 0.930 . S
Mn540 O545 2.095 . S
Mn540 O555 2.162 . S
Mn540 O556 2.297 . S
Mn540 O564 2.385 . S
Mn540 O565 2.209 . S
Mn540 O566 2.094 . S
Mn541 O546 2.121 . S
Mn541 N548 2.257 . S
Mn541 N557 2.282 . S
Mn541 O565 2.215 . S
Mn541 O567 2.117 . S
C542 O564 1.234 . S
C542 O565 1.283 . S
C543 O555 1.281 . S
C543 O556 1.236 . S
C544 O566 1.240 . S
C544 O567 1.264 . S
O545 Mn540 2.095 . S
O545 C554 1.250 . S
O546 Mn541 2.121 . S
O546 C554 1.258 . S
C547 N548 1.326 . S
C547 C551 1.460 . S
C547 H553 0.929 . S
N548 Mn541 2.257 . S
N548 C547 1.326 . S
N548 C552 1.362 . S
C549 C550 1.258 . S
C549 C552 1.431 . S
C549 C569 1.449 . S
C550 C549 1.258 . S
C550 C551 1.477 . S
C550 H570 0.931 . S
C551 C547 1.460 . S
C551 C550 1.477 . S
C551 H571 0.930 . S
C552 N548 1.362 . S
C552 C549 1.431 . S
C552 C562 1.476 . S
H553 C547 0.929 . S
C554 O545 1.250 . S
C554 O546 1.258 . S
O555 Mn540 2.162 . S
O555 C543 1.281 . S
O556 Mn540 2.297 . S
O556 C543 1.236 . S
N557 Mn541 2.282 . S
N557 C558 1.328 . S
N557 C562 1.318 . S
C558 N557 1.328 . S
C558 C559 1.457 . S
C558 H563 0.929 . S
C559 C558 1.457 . S
C559 C560 1.291 . S
C559 H572 0.931 . S
C560 C559 1.291 . S
C560 C561 1.373 . S
C560 H573 0.929 . S
C561 C560 1.373 . S
C561 C562 1.396 . S
C561 C568 1.403 . S
C562 C552 1.476 . S
C562 N557 1.318 . S
C562 C561 1.396 . S
H563 C558 0.929 . S
O564 Mn540 2.385 . S
O564 C542 1.234 . S
O565 Mn540 2.209 . S
O565 Mn541 2.215 . S
O565 C542 1.283 . S
O566 Mn540 2.094 . S
O566 C544 1.240 . S
O567 Mn541 2.117 . S
O567 C544 1.264 . S
C568 C561 1.403 . S
C568 C569 1.399 . S
C568 H574 0.929 . S
C569 C549 1.449 . S
C569 C568 1.399 . S
C569 H575 0.930 . S
H570 C550 0.931 . S
H571 C551 0.930 . S
H572 C559 0.931 . S
H573 C560 0.929 . S
H574 C568 0.929 . S
H575 C569 0.930 . S
Mn576 O581 2.095 . S
Mn576 O591 2.162 . S
Mn576 O592 2.297 . S
Mn576 O600 2.385 . S
Mn576 O601 2.209 . S
Mn576 O602 2.094 . S
Mn577 O582 2.121 . S
Mn577 N584 2.257 . S
Mn577 N593 2.282 . S
Mn577 O601 2.215 . S
Mn577 O603 2.117 . S
C578 O600 1.234 . S
C578 O601 1.283 . S
C579 O591 1.281 . S
C579 O592 1.236 . S
C580 O602 1.240 . S
C580 O603 1.264 . S
O581 Mn576 2.095 . S
O581 C590 1.250 . S
O582 Mn577 2.121 . S
O582 C590 1.258 . S
C583 N584 1.326 . S
C583 C587 1.460 . S
C583 H589 0.929 . S
N584 Mn577 2.257 . S
N584 C583 1.326 . S
N584 C588 1.362 . S
C585 C586 1.258 . S
C585 C588 1.431 . S
C585 C605 1.449 . S
C586 C585 1.258 . S
C586 C587 1.477 . S
C586 H606 0.931 . S
C587 C583 1.460 . S
C587 C586 1.477 . S
C587 H607 0.930 . S
C588 N584 1.362 . S
C588 C585 1.431 . S
C588 C598 1.476 . S
H589 C583 0.929 . S
C590 O581 1.250 . S
C590 O582 1.258 . S
O591 Mn576 2.162 . S
O591 C579 1.281 . S
O592 Mn576 2.297 . S
O592 C579 1.236 . S
N593 Mn577 2.282 . S
N593 C594 1.328 . S
N593 C598 1.318 . S
C594 N593 1.328 . S
C594 C595 1.457 . S
C594 H599 0.929 . S
C595 C594 1.457 . S
C595 C596 1.291 . S
C595 H608 0.931 . S
C596 C595 1.291 . S
C596 C597 1.373 . S
C596 H609 0.929 . S
C597 C596 1.373 . S
C597 C598 1.396 . S
C597 C604 1.403 . S
C598 C588 1.476 . S
C598 N593 1.318 . S
C598 C597 1.396 . S
H599 C594 0.929 . S
O600 Mn576 2.385 . S
O600 C578 1.234 . S
O601 Mn576 2.209 . S
O601 Mn577 2.215 . S
O601 C578 1.283 . S
O602 Mn576 2.094 . S
O602 C580 1.240 . S
O603 Mn577 2.117 . S
O603 C580 1.264 . S
C604 C597 1.403 . S
C604 C605 1.399 . S
C604 H610 0.929 . S
C605 C585 1.449 . S
C605 C604 1.399 . S
C605 H611 0.930 . S
H606 C586 0.931 . S
H607 C587 0.930 . S
H608 C595 0.931 . S
H609 C596 0.929 . S
H610 C604 0.929 . S
H611 C605 0.930 . S
Mn612 O617 2.095 . S
Mn612 O627 2.162 . S
Mn612 O628 2.297 . S
Mn612 O636 2.385 . S
Mn612 O637 2.209 . S
Mn612 O638 2.094 . S
Mn613 O618 2.121 . S
Mn613 N620 2.257 . S
Mn613 N629 2.282 . S
Mn613 O637 2.215 . S
Mn613 O639 2.117 . S
C614 O636 1.234 . S
C614 O637 1.283 . S
C615 O627 1.281 . S
C615 O628 1.236 . S
C616 O638 1.240 . S
C616 O639 1.264 . S
O617 Mn612 2.095 . S
O617 C626 1.250 . S
O618 Mn613 2.121 . S
O618 C626 1.258 . S
C619 N620 1.326 . S
C619 C623 1.460 . S
C619 H625 0.929 . S
N620 Mn613 2.257 . S
N620 C619 1.326 . S
N620 C624 1.362 . S
C621 C622 1.258 . S
C621 C624 1.431 . S
C621 C641 1.449 . S
C622 C621 1.258 . S
C622 C623 1.477 . S
C622 H642 0.931 . S
C623 C619 1.460 . S
C623 C622 1.477 . S
C623 H643 0.930 . S
C624 N620 1.362 . S
C624 C621 1.431 . S
C624 C634 1.476 . S
H625 C619 0.929 . S
C626 O617 1.250 . S
C626 O618 1.258 . S
O627 Mn612 2.162 . S
O627 C615 1.281 . S
O628 Mn612 2.297 . S
O628 C615 1.236 . S
N629 Mn613 2.282 . S
N629 C630 1.328 . S
N629 C634 1.318 . S
C630 N629 1.328 . S
C630 C631 1.457 . S
C630 H635 0.929 . S
C631 C630 1.457 . S
C631 C632 1.291 . S
C631 H644 0.931 . S
C632 C631 1.291 . S
C632 C633 1.373 . S
C632 H645 0.929 . S
C633 C632 1.373 . S
C633 C634 1.396 . S
C633 C640 1.403 . S
C634 C624 1.476 . S
C634 N629 1.318 . S
C634 C633 1.396 . S
H635 C630 0.929 . S
O636 Mn612 2.385 . S
O636 C614 1.234 . S
O637 Mn612 2.209 . S
O637 Mn613 2.215 . S
O637 C614 1.283 . S
O638 Mn612 2.094 . S
O638 C616 1.240 . S
O639 Mn613 2.117 . S
O639 C616 1.264 . S
C640 C633 1.403 . S
C640 C641 1.399 . S
C640 H646 0.929 . S
C641 C621 1.449 . S
C641 C640 1.399 . S
C641 H647 0.930 . S
H642 C622 0.931 . S
H643 C623 0.930 . S
H644 C631 0.931 . S
H645 C632 0.929 . S
H646 C640 0.929 . S
H647 C641 0.930 . S
Mn648 O653 2.095 . S
Mn648 O663 2.162 . S
Mn648 O664 2.297 . S
Mn648 O672 2.385 . S
Mn648 O673 2.209 . S
Mn648 O674 2.094 . S
Mn649 O654 2.121 . S
Mn649 N656 2.257 . S
Mn649 N665 2.282 . S
Mn649 O673 2.215 . S
Mn649 O675 2.117 . S
C650 O672 1.234 . S
C650 O673 1.283 . S
C651 O663 1.281 . S
C651 O664 1.236 . S
C652 O674 1.240 . S
C652 O675 1.264 . S
O653 Mn648 2.095 . S
O653 C662 1.250 . S
O654 Mn649 2.121 . S
O654 C662 1.258 . S
C655 N656 1.326 . S
C655 C659 1.460 . S
C655 H661 0.929 . S
N656 Mn649 2.257 . S
N656 C655 1.326 . S
N656 C660 1.362 . S
C657 C658 1.258 . S
C657 C660 1.431 . S
C657 C677 1.449 . S
C658 C657 1.258 . S
C658 C659 1.477 . S
C658 H678 0.931 . S
C659 C655 1.460 . S
C659 C658 1.477 . S
C659 H679 0.930 . S
C660 N656 1.362 . S
C660 C657 1.431 . S
C660 C670 1.476 . S
H661 C655 0.929 . S
C662 O653 1.250 . S
C662 O654 1.258 . S
O663 Mn648 2.162 . S
O663 C651 1.281 . S
O664 Mn648 2.297 . S
O664 C651 1.236 . S
N665 Mn649 2.282 . S
N665 C666 1.328 . S
N665 C670 1.318 . S
C666 N665 1.328 . S
C666 C667 1.457 . S
C666 H671 0.929 . S
C667 C666 1.457 . S
C667 C668 1.291 . S
C667 H680 0.931 . S
C668 C667 1.291 . S
C668 C669 1.373 . S
C668 H681 0.929 . S
C669 C668 1.373 . S
C669 C670 1.396 . S
C669 C676 1.403 . S
C670 C660 1.476 . S
C670 N665 1.318 . S
C670 C669 1.396 . S
H671 C666 0.929 . S
O672 Mn648 2.385 . S
O672 C650 1.234 . S
O673 Mn648 2.209 . S
O673 Mn649 2.215 . S
O673 C650 1.283 . S
O674 Mn648 2.094 . S
O674 C652 1.240 . S
O675 Mn649 2.117 . S
O675 C652 1.264 . S
C676 C669 1.403 . S
C676 C677 1.399 . S
C676 H682 0.929 . S
C677 C657 1.449 . S
C677 C676 1.399 . S
C677 H683 0.930 . S
H678 C658 0.931 . S
H679 C659 0.930 . S
H680 C667 0.931 . S
H681 C668 0.929 . S
H682 C676 0.929 . S
H683 C677 0.930 . S
Mn684 O689 2.095 . S
Mn684 O699 2.162 . S
Mn684 O700 2.297 . S
Mn684 O708 2.385 . S
Mn684 O709 2.209 . S
Mn684 O710 2.094 . S
Mn685 O690 2.121 . S
Mn685 N692 2.257 . S
Mn685 N701 2.282 . S
Mn685 O709 2.215 . S
Mn685 O711 2.117 . S
C686 O708 1.234 . S
C686 O709 1.283 . S
C687 O699 1.281 . S
C687 O700 1.236 . S
C688 O710 1.240 . S
C688 O711 1.264 . S
O689 Mn684 2.095 . S
O689 C698 1.250 . S
O690 Mn685 2.121 . S
O690 C698 1.258 . S
C691 N692 1.326 . S
C691 C695 1.460 . S
C691 H697 0.929 . S
N692 Mn685 2.257 . S
N692 C691 1.326 . S
N692 C696 1.362 . S
C693 C694 1.258 . S
C693 C696 1.431 . S
C693 C713 1.449 . S
C694 C693 1.258 . S
C694 C695 1.477 . S
C694 H714 0.931 . S
C695 C691 1.460 . S
C695 C694 1.477 . S
C695 H715 0.930 . S
C696 N692 1.362 . S
C696 C693 1.431 . S
C696 C706 1.476 . S
H697 C691 0.929 . S
C698 O689 1.250 . S
C698 O690 1.258 . S
O699 Mn684 2.162 . S
O699 C687 1.281 . S
O700 Mn684 2.297 . S
O700 C687 1.236 . S
N701 Mn685 2.282 . S
N701 C702 1.328 . S
N701 C706 1.318 . S
C702 N701 1.328 . S
C702 C703 1.457 . S
C702 H707 0.929 . S
C703 C702 1.457 . S
C703 C704 1.291 . S
C703 H716 0.931 . S
C704 C703 1.291 . S
C704 C705 1.373 . S
C704 H717 0.929 . S
C705 C704 1.373 . S
C705 C706 1.396 . S
C705 C712 1.403 . S
C706 C696 1.476 . S
C706 N701 1.318 . S
C706 C705 1.396 . S
H707 C702 0.929 . S
O708 Mn684 2.385 . S
O708 C686 1.234 . S
O709 Mn684 2.209 . S
O709 Mn685 2.215 . S
O709 C686 1.283 . S
O710 Mn684 2.094 . S
O710 C688 1.240 . S
O711 Mn685 2.117 . S
O711 C688 1.264 . S
C712 C705 1.403 . S
C712 C713 1.399 . S
C712 H718 0.929 . S
C713 C693 1.449 . S
C713 C712 1.399 . S
C713 H719 0.930 . S
H714 C694 0.931 . S
H715 C695 0.930 . S
H716 C703 0.931 . S
H717 C704 0.929 . S
H718 C712 0.929 . S
H719 C713 0.930 . S
Mn720 O725 2.095 . S
Mn720 O735 2.162 . S
Mn720 O736 2.297 . S
Mn720 O744 2.385 . S
Mn720 O745 2.209 . S
Mn720 O746 2.094 . S
Mn721 O726 2.121 . S
Mn721 N728 2.257 . S
Mn721 N737 2.282 . S
Mn721 O745 2.215 . S
Mn721 O747 2.117 . S
C722 O744 1.234 . S
C722 O745 1.283 . S
C723 O735 1.281 . S
C723 O736 1.236 . S
C724 O746 1.240 . S
C724 O747 1.264 . S
O725 Mn720 2.095 . S
O725 C734 1.250 . S
O726 Mn721 2.121 . S
O726 C734 1.258 . S
C727 N728 1.326 . S
C727 C731 1.460 . S
C727 H733 0.929 . S
N728 Mn721 2.257 . S
N728 C727 1.326 . S
N728 C732 1.362 . S
C729 C730 1.258 . S
C729 C732 1.431 . S
C729 C749 1.449 . S
C730 C729 1.258 . S
C730 C731 1.477 . S
C730 H750 0.931 . S
C731 C727 1.460 . S
C731 C730 1.477 . S
C731 H751 0.930 . S
C732 N728 1.362 . S
C732 C729 1.431 . S
C732 C742 1.476 . S
H733 C727 0.929 . S
C734 O725 1.250 . S
C734 O726 1.258 . S
O735 Mn720 2.162 . S
O735 C723 1.281 . S
O736 Mn720 2.297 . S
O736 C723 1.236 . S
N737 Mn721 2.282 . S
N737 C738 1.328 . S
N737 C742 1.318 . S
C738 N737 1.328 . S
C738 C739 1.457 . S
C738 H743 0.929 . S
C739 C738 1.457 . S
C739 C740 1.291 . S
C739 H752 0.931 . S
C740 C739 1.291 . S
C740 C741 1.373 . S
C740 H753 0.929 . S
C741 C740 1.373 . S
C741 C742 1.396 . S
C741 C748 1.403 . S
C742 C732 1.476 . S
C742 N737 1.318 . S
C742 C741 1.396 . S
H743 C738 0.929 . S
O744 Mn720 2.385 . S
O744 C722 1.234 . S
O745 Mn720 2.209 . S
O745 Mn721 2.215 . S
O745 C722 1.283 . S
O746 Mn720 2.094 . S
O746 C724 1.240 . S
O747 Mn721 2.117 . S
O747 C724 1.264 . S
C748 C741 1.403 . S
C748 C749 1.399 . S
C748 H754 0.929 . S
C749 C729 1.449 . S
C749 C748 1.399 . S
C749 H755 0.930 . S
H750 C730 0.931 . S
H751 C731 0.930 . S
H752 C739 0.931 . S
H753 C740 0.929 . S
H754 C748 0.929 . S
H755 C749 0.930 . S
Mn756 O761 2.095 . S
Mn756 O771 2.162 . S
Mn756 O772 2.297 . S
Mn756 O780 2.385 . S
Mn756 O781 2.209 . S
Mn756 O782 2.094 . S
Mn757 O762 2.121 . S
Mn757 N764 2.257 . S
Mn757 N773 2.282 . S
Mn757 O781 2.215 . S
Mn757 O783 2.117 . S
C758 O780 1.234 . S
C758 O781 1.283 . S
C759 O771 1.281 . S
C759 O772 1.236 . S
C760 O782 1.240 . S
C760 O783 1.264 . S
O761 Mn756 2.095 . S
O761 C770 1.250 . S
O762 Mn757 2.121 . S
O762 C770 1.258 . S
C763 N764 1.326 . S
C763 C767 1.460 . S
C763 H769 0.929 . S
N764 Mn757 2.257 . S
N764 C763 1.326 . S
N764 C768 1.362 . S
C765 C766 1.258 . S
C765 C768 1.431 1_554 S
C765 C785 1.449 . S
C766 C765 1.258 . S
C766 C767 1.477 1_554 S
C766 H786 0.931 . S
C767 C763 1.460 . S
C767 C766 1.477 1_556 S
C767 H787 0.930 . S
C768 N764 1.362 . S
C768 C765 1.431 1_556 S
C768 C778 1.476 . S
H769 C763 0.929 . S
C770 O761 1.250 . S
C770 O762 1.258 . S
O771 Mn756 2.162 . S
O771 C759 1.281 . S
O772 Mn756 2.297 . S
O772 C759 1.236 . S
N773 Mn757 2.282 . S
N773 C774 1.328 . S
N773 C778 1.318 . S
C774 N773 1.328 . S
C774 C775 1.457 . S
C774 H779 0.929 . S
C775 C774 1.457 . S
C775 C776 1.291 . S
C775 H788 0.931 . S
C776 C775 1.291 . S
C776 C777 1.373 . S
C776 H789 0.929 1_556 S
C777 C776 1.373 . S
C777 C778 1.396 . S
C777 C784 1.403 1_556 S
C778 C768 1.476 . S
C778 N773 1.318 . S
C778 C777 1.396 . S
H779 C774 0.929 . S
O780 Mn756 2.385 . S
O780 C758 1.234 . S
O781 Mn756 2.209 . S
O781 Mn757 2.215 . S
O781 C758 1.283 . S
O782 Mn756 2.094 . S
O782 C760 1.240 . S
O783 Mn757 2.117 . S
O783 C760 1.264 . S
C784 C777 1.403 1_554 S
C784 C785 1.399 . S
C784 H790 0.929 . S
C785 C765 1.449 . S
C785 C784 1.399 . S
C785 H791 0.930 . S
H786 C766 0.931 . S
H787 C767 0.930 . S
H788 C775 0.931 . S
H789 C776 0.929 1_554 S
H790 C784 0.929 . S
H791 C785 0.930 . S
Mn792 O797 2.095 . S
Mn792 O807 2.162 . S
Mn792 O808 2.297 . S
Mn792 O816 2.385 . S
Mn792 O817 2.209 . S
Mn792 O818 2.094 . S
Mn793 O798 2.121 . S
Mn793 N800 2.257 . S
Mn793 N809 2.282 . S
Mn793 O817 2.215 . S
Mn793 O819 2.117 . S
C794 O816 1.234 . S
C794 O817 1.283 . S
C795 O807 1.281 . S
C795 O808 1.236 . S
C796 O818 1.240 . S
C796 O819 1.264 . S
O797 Mn792 2.095 . S
O797 C806 1.250 . S
O798 Mn793 2.121 . S
O798 C806 1.258 . S
C799 N800 1.326 . S
C799 C803 1.460 . S
C799 H805 0.929 . S
N800 Mn793 2.257 . S
N800 C799 1.326 . S
N800 C804 1.362 . S
C801 C802 1.258 . S
C801 C804 1.431 1_554 S
C801 C821 1.449 . S
C802 C801 1.258 . S
C802 C803 1.477 1_554 S
C802 H822 0.931 . S
C803 C799 1.460 . S
C803 C802 1.477 1_556 S
C803 H823 0.930 . S
C804 N800 1.362 . S
C804 C801 1.431 1_556 S
C804 C814 1.476 . S
H805 C799 0.929 . S
C806 O797 1.250 . S
C806 O798 1.258 . S
O807 Mn792 2.162 . S
O807 C795 1.281 . S
O808 Mn792 2.297 . S
O808 C795 1.236 . S
N809 Mn793 2.282 . S
N809 C810 1.328 . S
N809 C814 1.318 . S
C810 N809 1.328 . S
C810 C811 1.457 . S
C810 H815 0.929 . S
C811 C810 1.457 . S
C811 C812 1.291 . S
C811 H824 0.931 . S
C812 C811 1.291 . S
C812 C813 1.373 . S
C812 H825 0.929 1_556 S
C813 C812 1.373 . S
C813 C814 1.396 . S
C813 C820 1.403 1_556 S
C814 C804 1.476 . S
C814 N809 1.318 . S
C814 C813 1.396 . S
H815 C810 0.929 . S
O816 Mn792 2.385 . S
O816 C794 1.234 . S
O817 Mn792 2.209 . S
O817 Mn793 2.215 . S
O817 C794 1.283 . S
O818 Mn792 2.094 . S
O818 C796 1.240 . S
O819 Mn793 2.117 . S
O819 C796 1.264 . S
C820 C813 1.403 1_554 S
C820 C821 1.399 . S
C820 H826 0.929 . S
C821 C801 1.449 . S
C821 C820 1.399 . S
C821 H827 0.930 . S
H822 C802 0.931 . S
H823 C803 0.930 . S
H824 C811 0.931 . S
H825 C812 0.929 1_554 S
H826 C820 0.929 . S
H827 C821 0.930 . S
Mn828 O833 2.095 . S
Mn828 O843 2.162 . S
Mn828 O844 2.297 . S
Mn828 O852 2.385 . S
Mn828 O853 2.209 . S
Mn828 O854 2.094 . S
Mn829 O834 2.121 . S
Mn829 N836 2.257 . S
Mn829 N845 2.282 . S
Mn829 O853 2.215 . S
Mn829 O855 2.117 . S
C830 O852 1.234 . S
C830 O853 1.283 . S
C831 O843 1.281 . S
C831 O844 1.236 . S
C832 O854 1.240 . S
C832 O855 1.264 . S
O833 Mn828 2.095 . S
O833 C842 1.250 . S
O834 Mn829 2.121 . S
O834 C842 1.258 . S
C835 N836 1.326 . S
C835 C839 1.460 . S
C835 H841 0.929 . S
N836 Mn829 2.257 . S
N836 C835 1.326 . S
N836 C840 1.362 . S
C837 C838 1.258 . S
C837 C840 1.431 1_554 S
C837 C857 1.449 . S
C838 C837 1.258 . S
C838 C839 1.477 1_554 S
C838 H858 0.931 . S
C839 C835 1.460 . S
C839 C838 1.477 1_556 S
C839 H859 0.930 . S
C840 N836 1.362 . S
C840 C837 1.431 1_556 S
C840 C850 1.476 . S
H841 C835 0.929 . S
C842 O833 1.250 . S
C842 O834 1.258 . S
O843 Mn828 2.162 . S
O843 C831 1.281 . S
O844 Mn828 2.297 . S
O844 C831 1.236 . S
N845 Mn829 2.282 . S
N845 C846 1.328 . S
N845 C850 1.318 . S
C846 N845 1.328 . S
C846 C847 1.457 . S
C846 H851 0.929 . S
C847 C846 1.457 . S
C847 C848 1.291 . S
C847 H860 0.931 . S
C848 C847 1.291 . S
C848 C849 1.373 . S
C848 H861 0.929 1_556 S
C849 C848 1.373 . S
C849 C850 1.396 . S
C849 C856 1.403 1_556 S
C850 C840 1.476 . S
C850 N845 1.318 . S
C850 C849 1.396 . S
H851 C846 0.929 . S
O852 Mn828 2.385 . S
O852 C830 1.234 . S
O853 Mn828 2.209 . S
O853 Mn829 2.215 . S
O853 C830 1.283 . S
O854 Mn828 2.094 . S
O854 C832 1.240 . S
O855 Mn829 2.117 . S
O855 C832 1.264 . S
C856 C849 1.403 1_554 S
C856 C857 1.399 . S
C856 H862 0.929 . S
C857 C837 1.449 . S
C857 C856 1.399 . S
C857 H863 0.930 . S
H858 C838 0.931 . S
H859 C839 0.930 . S
H860 C847 0.931 . S
H861 C848 0.929 1_554 S
H862 C856 0.929 . S
H863 C857 0.930 . S
Mn864 O869 2.095 . S
Mn864 O879 2.162 . S
Mn864 O880 2.297 . S
Mn864 O888 2.385 . S
Mn864 O889 2.209 . S
Mn864 O890 2.094 . S
Mn865 O870 2.121 . S
Mn865 N872 2.257 . S
Mn865 N881 2.282 . S
Mn865 O889 2.215 . S
Mn865 O891 2.117 . S
C866 O888 1.234 . S
C866 O889 1.283 . S
C867 O879 1.281 . S
C867 O880 1.236 . S
C868 O890 1.240 . S
C868 O891 1.264 . S
O869 Mn864 2.095 . S
O869 C878 1.250 . S
O870 Mn865 2.121 . S
O870 C878 1.258 . S
C871 N872 1.326 . S
C871 C875 1.460 . S
C871 H877 0.929 . S
N872 Mn865 2.257 . S
N872 C871 1.326 . S
N872 C876 1.362 . S
C873 C874 1.258 . S
C873 C876 1.431 . S
C873 C893 1.449 . S
C874 C873 1.258 . S
C874 C875 1.477 . S
C874 H894 0.931 . S
C875 C871 1.460 . S
C875 C874 1.477 . S
C875 H895 0.930 . S
C876 N872 1.362 . S
C876 C873 1.431 . S
C876 C886 1.476 . S
H877 C871 0.929 . S
C878 O869 1.250 . S
C878 O870 1.258 . S
O879 Mn864 2.162 . S
O879 C867 1.281 . S
O880 Mn864 2.297 . S
O880 C867 1.236 . S
N881 Mn865 2.282 . S
N881 C882 1.328 . S
N881 C886 1.318 . S
C882 N881 1.328 . S
C882 C883 1.457 . S
C882 H887 0.929 . S
C883 C882 1.457 . S
C883 C884 1.291 . S
C883 H896 0.931 . S
C884 C883 1.291 . S
C884 C885 1.373 . S
C884 H897 0.929 . S
C885 C884 1.373 . S
C885 C886 1.396 . S
C885 C892 1.403 . S
C886 C876 1.476 . S
C886 N881 1.318 . S
C886 C885 1.396 . S
H887 C882 0.929 . S
O888 Mn864 2.385 . S
O888 C866 1.234 . S
O889 Mn864 2.209 . S
O889 Mn865 2.215 . S
O889 C866 1.283 . S
O890 Mn864 2.094 . S
O890 C868 1.240 . S
O891 Mn865 2.117 . S
O891 C868 1.264 . S
C892 C885 1.403 . S
C892 C893 1.399 . S
C892 H898 0.929 . S
C893 C873 1.449 . S
C893 C892 1.399 . S
C893 H899 0.930 . S
H894 C874 0.931 . S
H895 C875 0.930 . S
H896 C883 0.931 . S
H897 C884 0.929 . S
H898 C892 0.929 . S
H899 C893 0.930 . S
Mn900 O905 2.095 . S
Mn900 O915 2.162 . S
Mn900 O916 2.297 . S
Mn900 O924 2.385 . S
Mn900 O925 2.209 . S
Mn900 O926 2.094 . S
Mn901 O906 2.121 . S
Mn901 N908 2.257 . S
Mn901 N917 2.282 . S
Mn901 O925 2.215 . S
Mn901 O927 2.117 . S
C902 O924 1.234 . S
C902 O925 1.283 . S
C903 O915 1.281 . S
C903 O916 1.236 . S
C904 O926 1.240 . S
C904 O927 1.264 . S
O905 Mn900 2.095 . S
O905 C914 1.250 . S
O906 Mn901 2.121 . S
O906 C914 1.258 . S
C907 N908 1.326 . S
C907 C911 1.460 . S
C907 H913 0.929 . S
N908 Mn901 2.257 . S
N908 C907 1.326 . S
N908 C912 1.362 . S
C909 C910 1.258 . S
C909 C912 1.431 . S
C909 C929 1.449 . S
C910 C909 1.258 . S
C910 C911 1.477 . S
C910 H930 0.931 . S
C911 C907 1.460 . S
C911 C910 1.477 . S
C911 H931 0.930 . S
C912 N908 1.362 . S
C912 C909 1.431 . S
C912 C922 1.476 . S
H913 C907 0.929 . S
C914 O905 1.250 . S
C914 O906 1.258 . S
O915 Mn900 2.162 . S
O915 C903 1.281 . S
O916 Mn900 2.297 . S
O916 C903 1.236 . S
N917 Mn901 2.282 . S
N917 C918 1.328 . S
N917 C922 1.318 . S
C918 N917 1.328 . S
C918 C919 1.457 . S
C918 H923 0.929 . S
C919 C918 1.457 . S
C919 C920 1.291 . S
C919 H932 0.931 . S
C920 C919 1.291 . S
C920 C921 1.373 . S
C920 H933 0.929 . S
C921 C920 1.373 . S
C921 C922 1.396 . S
C921 C928 1.403 . S
C922 C912 1.476 . S
C922 N917 1.318 . S
C922 C921 1.396 . S
H923 C918 0.929 . S
O924 Mn900 2.385 . S
O924 C902 1.234 . S
O925 Mn900 2.209 . S
O925 Mn901 2.215 . S
O925 C902 1.283 . S
O926 Mn900 2.094 . S
O926 C904 1.240 . S
O927 Mn901 2.117 . S
O927 C904 1.264 . S
C928 C921 1.403 . S
C928 C929 1.399 . S
C928 H934 0.929 . S
C929 C909 1.449 . S
C929 C928 1.399 . S
C929 H935 0.930 . S
H930 C910 0.931 . S
H931 C911 0.930 . S
H932 C919 0.931 . S
H933 C920 0.929 . S
H934 C928 0.929 . S
H935 C929 0.930 . S
Mn936 O941 2.095 . S
Mn936 O951 2.162 . S
Mn936 O952 2.297 . S
Mn936 O960 2.385 . S
Mn936 O961 2.209 . S
Mn936 O962 2.094 . S
Mn937 O942 2.121 . S
Mn937 N944 2.257 . S
Mn937 N953 2.282 . S
Mn937 O961 2.215 . S
Mn937 O963 2.117 . S
C938 O960 1.234 . S
C938 O961 1.283 . S
C939 O951 1.281 . S
C939 O952 1.236 . S
C940 O962 1.240 . S
C940 O963 1.264 . S
O941 Mn936 2.095 . S
O941 C950 1.250 . S
O942 Mn937 2.121 . S
O942 C950 1.258 . S
C943 N944 1.326 . S
C943 C947 1.460 . S
C943 H949 0.929 . S
N944 Mn937 2.257 . S
N944 C943 1.326 . S
N944 C948 1.362 . S
C945 C946 1.258 . S
C945 C948 1.431 . S
C945 C965 1.449 . S
C946 C945 1.258 . S
C946 C947 1.477 . S
C946 H966 0.931 . S
C947 C943 1.460 . S
C947 C946 1.477 . S
C947 H967 0.930 . S
C948 N944 1.362 . S
C948 C945 1.431 . S
C948 C958 1.476 . S
H949 C943 0.929 . S
C950 O941 1.250 . S
C950 O942 1.258 . S
O951 Mn936 2.162 . S
O951 C939 1.281 . S
O952 Mn936 2.297 . S
O952 C939 1.236 . S
N953 Mn937 2.282 . S
N953 C954 1.328 . S
N953 C958 1.318 . S
C954 N953 1.328 . S
C954 C955 1.457 . S
C954 H959 0.929 . S
C955 C954 1.457 . S
C955 C956 1.291 . S
C955 H968 0.931 . S
C956 C955 1.291 . S
C956 C957 1.373 . S
C956 H969 0.929 . S
C957 C956 1.373 . S
C957 C958 1.396 . S
C957 C964 1.403 . S
C958 C948 1.476 . S
C958 N953 1.318 . S
C958 C957 1.396 . S
H959 C954 0.929 . S
O960 Mn936 2.385 . S
O960 C938 1.234 . S
O961 Mn936 2.209 . S
O961 Mn937 2.215 . S
O961 C938 1.283 . S
O962 Mn936 2.094 . S
O962 C940 1.240 . S
O963 Mn937 2.117 . S
O963 C940 1.264 . S
C964 C957 1.403 . S
C964 C965 1.399 . S
C964 H970 0.929 . S
C965 C945 1.449 . S
C965 C964 1.399 . S
C965 H971 0.930 . S
H966 C946 0.931 . S
H967 C947 0.930 . S
H968 C955 0.931 . S
H969 C956 0.929 . S
H970 C964 0.929 . S
H971 C965 0.930 . S
Mn972 O977 2.095 . S
Mn972 O987 2.162 . S
Mn972 O988 2.297 . S
Mn972 O996 2.385 . S
Mn972 O997 2.209 . S
Mn972 O998 2.094 . S
Mn973 O978 2.121 . S
Mn973 N980 2.257 . S
Mn973 N989 2.282 . S
Mn973 O997 2.215 . S
Mn973 O999 2.117 . S
C974 O996 1.234 . S
C974 O997 1.283 . S
C975 O987 1.281 . S
C975 O988 1.236 . S
C976 O998 1.240 . S
C976 O999 1.264 . S
O977 Mn972 2.095 . S
O977 C986 1.250 . S
O978 Mn973 2.121 . S
O978 C986 1.258 . S
C979 N980 1.326 . S
C979 C983 1.460 . S
C979 H985 0.929 . S
N980 Mn973 2.257 . S
N980 C979 1.326 . S
N980 C984 1.362 . S
C981 C982 1.258 . S
C981 C984 1.431 1_556 S
C981 C1001 1.449 . S
C982 C981 1.258 . S
C982 C983 1.477 1_556 S
C982 H1002 0.931 . S
C983 C979 1.460 . S
C983 C982 1.477 1_554 S
C983 H1003 0.930 . S
C984 N980 1.362 . S
C984 C981 1.431 1_554 S
C984 C994 1.476 . S
H985 C979 0.929 . S
C986 O977 1.250 . S
C986 O978 1.258 . S
O987 Mn972 2.162 . S
O987 C975 1.281 . S
O988 Mn972 2.297 . S
O988 C975 1.236 . S
N989 Mn973 2.282 . S
N989 C990 1.328 . S
N989 C994 1.318 . S
C990 N989 1.328 . S
C990 C991 1.457 . S
C990 H995 0.929 . S
C991 C990 1.457 . S
C991 C992 1.291 . S
C991 H1004 0.931 . S
C992 C991 1.291 . S
C992 C993 1.373 . S
C992 H1005 0.929 1_554 S
C993 C992 1.373 . S
C993 C994 1.396 . S
C993 C1000 1.403 1_554 S
C994 C984 1.476 . S
C994 N989 1.318 . S
C994 C993 1.396 . S
H995 C990 0.929 . S
O996 Mn972 2.385 . S
O996 C974 1.234 . S
O997 Mn972 2.209 . S
O997 Mn973 2.215 . S
O997 C974 1.283 . S
O998 Mn972 2.094 . S
O998 C976 1.240 . S
O999 Mn973 2.117 . S
O999 C976 1.264 . S
C1000 C993 1.403 1_556 S
C1000 C1001 1.399 . S
C1000 H1006 0.929 . S
C1001 C981 1.449 . S
C1001 C1000 1.399 . S
C1001 H1007 0.930 . S
H1002 C982 0.931 . S
H1003 C983 0.930 . S
H1004 C991 0.931 . S
H1005 C992 0.929 1_556 S
H1006 C1000 0.929 . S
H1007 C1001 0.930 . S
Mn1008 O1013 2.095 . S
Mn1008 O1023 2.162 . S
Mn1008 O1024 2.297 . S
Mn1008 O1032 2.385 . S
Mn1008 O1033 2.209 . S
Mn1008 O1034 2.094 . S
Mn1009 O1014 2.121 . S
Mn1009 N1016 2.257 . S
Mn1009 N1025 2.282 . S
Mn1009 O1033 2.215 . S
Mn1009 O1035 2.117 . S
C1010 O1032 1.234 . S
C1010 O1033 1.283 . S
C1011 O1023 1.281 . S
C1011 O1024 1.236 . S
C1012 O1034 1.240 . S
C1012 O1035 1.264 . S
O1013 Mn1008 2.095 . S
O1013 C1022 1.250 . S
O1014 Mn1009 2.121 . S
O1014 C1022 1.258 . S
C1015 N1016 1.326 . S
C1015 C1019 1.460 . S
C1015 H1021 0.929 . S
N1016 Mn1009 2.257 . S
N1016 C1015 1.326 . S
N1016 C1020 1.362 . S
C1017 C1018 1.258 . S
C1017 C1020 1.431 1_556 S
C1017 C1037 1.449 . S
C1018 C1017 1.258 . S
C1018 C1019 1.477 1_556 S
C1018 H1038 0.931 . S
C1019 C1015 1.460 . S
C1019 C1018 1.477 1_554 S
C1019 H1039 0.930 . S
C1020 N1016 1.362 . S
C1020 C1017 1.431 1_554 S
C1020 C1030 1.476 . S
H1021 C1015 0.929 . S
C1022 O1013 1.250 . S
C1022 O1014 1.258 . S
O1023 Mn1008 2.162 . S
O1023 C1011 1.281 . S
O1024 Mn1008 2.297 . S
O1024 C1011 1.236 . S
N1025 Mn1009 2.282 . S
N1025 C1026 1.328 . S
N1025 C1030 1.318 . S
C1026 N1025 1.328 . S
C1026 C1027 1.457 . S
C1026 H1031 0.929 . S
C1027 C1026 1.457 . S
C1027 C1028 1.291 . S
C1027 H1040 0.931 . S
C1028 C1027 1.291 . S
C1028 C1029 1.373 . S
C1028 H1041 0.929 1_554 S
C1029 C1028 1.373 . S
C1029 C1030 1.396 . S
C1029 C1036 1.403 1_554 S
C1030 C1020 1.476 . S
C1030 N1025 1.318 . S
C1030 C1029 1.396 . S
H1031 C1026 0.929 . S
O1032 Mn1008 2.385 . S
O1032 C1010 1.234 . S
O1033 Mn1008 2.209 . S
O1033 Mn1009 2.215 . S
O1033 C1010 1.283 . S
O1034 Mn1008 2.094 . S
O1034 C1012 1.240 . S
O1035 Mn1009 2.117 . S
O1035 C1012 1.264 . S
C1036 C1029 1.403 1_556 S
C1036 C1037 1.399 . S
C1036 H1042 0.929 . S
C1037 C1017 1.449 . S
C1037 C1036 1.399 . S
C1037 H1043 0.930 . S
H1038 C1018 0.931 . S
H1039 C1019 0.930 . S
H1040 C1027 0.931 . S
H1041 C1028 0.929 1_556 S
H1042 C1036 0.929 . S
H1043 C1037 0.930 . S
Mn1044 O1049 2.095 . S
Mn1044 O1059 2.162 . S
Mn1044 O1060 2.297 . S
Mn1044 O1068 2.385 . S
Mn1044 O1069 2.209 . S
Mn1044 O1070 2.094 . S
Mn1045 O1050 2.121 . S
Mn1045 N1052 2.257 . S
Mn1045 N1061 2.282 . S
Mn1045 O1069 2.215 . S
Mn1045 O1071 2.117 . S
C1046 O1068 1.234 . S
C1046 O1069 1.283 . S
C1047 O1059 1.281 . S
C1047 O1060 1.236 . S
C1048 O1070 1.240 . S
C1048 O1071 1.264 . S
O1049 Mn1044 2.095 . S
O1049 C1058 1.250 . S
O1050 Mn1045 2.121 . S
O1050 C1058 1.258 . S
C1051 N1052 1.326 . S
C1051 C1055 1.460 . S
C1051 H1057 0.929 . S
N1052 Mn1045 2.257 . S
N1052 C1051 1.326 . S
N1052 C1056 1.362 . S
C1053 C1054 1.258 . S
C1053 C1056 1.431 1_556 S
C1053 C1073 1.449 . S
C1054 C1053 1.258 . S
C1054 C1055 1.477 1_556 S
C1054 H1074 0.931 . S
C1055 C1051 1.460 . S
C1055 C1054 1.477 1_554 S
C1055 H1075 0.930 . S
C1056 N1052 1.362 . S
C1056 C1053 1.431 1_554 S
C1056 C1066 1.476 . S
H1057 C1051 0.929 . S
C1058 O1049 1.250 . S
C1058 O1050 1.258 . S
O1059 Mn1044 2.162 . S
O1059 C1047 1.281 . S
O1060 Mn1044 2.297 . S
O1060 C1047 1.236 . S
N1061 Mn1045 2.282 . S
N1061 C1062 1.328 . S
N1061 C1066 1.318 . S
C1062 N1061 1.328 . S
C1062 C1063 1.457 . S
C1062 H1067 0.929 . S
C1063 C1062 1.457 . S
C1063 C1064 1.291 . S
C1063 H1076 0.931 . S
C1064 C1063 1.291 . S
C1064 C1065 1.373 . S
C1064 H1077 0.929 1_554 S
C1065 C1064 1.373 . S
C1065 C1066 1.396 . S
C1065 C1072 1.403 1_554 S
C1066 C1056 1.476 . S
C1066 N1061 1.318 . S
C1066 C1065 1.396 . S
H1067 C1062 0.929 . S
O1068 Mn1044 2.385 . S
O1068 C1046 1.234 . S
O1069 Mn1044 2.209 . S
O1069 Mn1045 2.215 . S
O1069 C1046 1.283 . S
O1070 Mn1044 2.094 . S
O1070 C1048 1.240 . S
O1071 Mn1045 2.117 . S
O1071 C1048 1.264 . S
C1072 C1065 1.403 1_556 S
C1072 C1073 1.399 . S
C1072 H1078 0.929 . S
C1073 C1053 1.449 . S
C1073 C1072 1.399 . S
C1073 H1079 0.930 . S
H1074 C1054 0.931 . S
H1075 C1055 0.930 . S
H1076 C1063 0.931 . S
H1077 C1064 0.929 1_556 S
H1078 C1072 0.929 . S
H1079 C1073 0.930 . S
Mn1080 O1085 2.095 . S
Mn1080 O1095 2.162 . S
Mn1080 O1096 2.297 . S
Mn1080 O1104 2.385 . S
Mn1080 O1105 2.209 . S
Mn1080 O1106 2.094 . S
Mn1081 O1086 2.121 . S
Mn1081 N1088 2.257 . S
Mn1081 N1097 2.282 . S
Mn1081 O1105 2.215 . S
Mn1081 O1107 2.117 . S
C1082 O1104 1.234 . S
C1082 O1105 1.283 . S
C1083 O1095 1.281 . S
C1083 O1096 1.236 . S
C1084 O1106 1.240 . S
C1084 O1107 1.264 . S
O1085 Mn1080 2.095 . S
O1085 C1094 1.250 . S
O1086 Mn1081 2.121 . S
O1086 C1094 1.258 . S
C1087 N1088 1.326 . S
C1087 C1091 1.460 . S
C1087 H1093 0.929 . S
N1088 Mn1081 2.257 . S
N1088 C1087 1.326 . S
N1088 C1092 1.362 . S
C1089 C1090 1.258 . S
C1089 C1092 1.431 . S
C1089 C1109 1.449 . S
C1090 C1089 1.258 . S
C1090 C1091 1.477 . S
C1090 H1110 0.931 . S
C1091 C1087 1.460 . S
C1091 C1090 1.477 . S
C1091 H1111 0.930 . S
C1092 N1088 1.362 . S
C1092 C1089 1.431 . S
C1092 C1102 1.476 . S
H1093 C1087 0.929 . S
C1094 O1085 1.250 . S
C1094 O1086 1.258 . S
O1095 Mn1080 2.162 . S
O1095 C1083 1.281 . S
O1096 Mn1080 2.297 . S
O1096 C1083 1.236 . S
N1097 Mn1081 2.282 . S
N1097 C1098 1.328 . S
N1097 C1102 1.318 . S
C1098 N1097 1.328 . S
C1098 C1099 1.457 . S
C1098 H1103 0.929 . S
C1099 C1098 1.457 . S
C1099 C1100 1.291 . S
C1099 H1112 0.931 . S
C1100 C1099 1.291 . S
C1100 C1101 1.373 . S
C1100 H1113 0.929 . S
C1101 C1100 1.373 . S
C1101 C1102 1.396 . S
C1101 C1108 1.403 . S
C1102 C1092 1.476 . S
C1102 N1097 1.318 . S
C1102 C1101 1.396 . S
H1103 C1098 0.929 . S
O1104 Mn1080 2.385 . S
O1104 C1082 1.234 . S
O1105 Mn1080 2.209 . S
O1105 Mn1081 2.215 . S
O1105 C1082 1.283 . S
O1106 Mn1080 2.094 . S
O1106 C1084 1.240 . S
O1107 Mn1081 2.117 . S
O1107 C1084 1.264 . S
C1108 C1101 1.403 . S
C1108 C1109 1.399 . S
C1108 H1114 0.929 . S
C1109 C1089 1.449 . S
C1109 C1108 1.399 . S
C1109 H1115 0.930 . S
H1110 C1090 0.931 . S
H1111 C1091 0.930 . S
H1112 C1099 0.931 . S
H1113 C1100 0.929 . S
H1114 C1108 0.929 . S
H1115 C1109 0.930 . S
Mn1116 O1121 2.095 . S
Mn1116 O1131 2.162 . S
Mn1116 O1132 2.297 . S
Mn1116 O1140 2.385 . S
Mn1116 O1141 2.209 . S
Mn1116 O1142 2.094 . S
Mn1117 O1122 2.121 . S
Mn1117 N1124 2.257 . S
Mn1117 N1133 2.282 . S
Mn1117 O1141 2.215 . S
Mn1117 O1143 2.117 . S
C1118 O1140 1.234 . S
C1118 O1141 1.283 . S
C1119 O1131 1.281 . S
C1119 O1132 1.236 . S
C1120 O1142 1.240 . S
C1120 O1143 1.264 . S
O1121 Mn1116 2.095 . S
O1121 C1130 1.250 . S
O1122 Mn1117 2.121 . S
O1122 C1130 1.258 . S
C1123 N1124 1.326 . S
C1123 C1127 1.460 . S
C1123 H1129 0.929 . S
N1124 Mn1117 2.257 . S
N1124 C1123 1.326 . S
N1124 C1128 1.362 . S
C1125 C1126 1.258 . S
C1125 C1128 1.431 . S
C1125 C1145 1.449 . S
C1126 C1125 1.258 . S
C1126 C1127 1.477 . S
C1126 H1146 0.931 . S
C1127 C1123 1.460 . S
C1127 C1126 1.477 . S
C1127 H1147 0.930 . S
C1128 N1124 1.362 . S
C1128 C1125 1.431 . S
C1128 C1138 1.476 . S
H1129 C1123 0.929 . S
C1130 O1121 1.250 . S
C1130 O1122 1.258 . S
O1131 Mn1116 2.162 . S
O1131 C1119 1.281 . S
O1132 Mn1116 2.297 . S
O1132 C1119 1.236 . S
N1133 Mn1117 2.282 . S
N1133 C1134 1.328 . S
N1133 C1138 1.318 . S
C1134 N1133 1.328 . S
C1134 C1135 1.457 . S
C1134 H1139 0.929 . S
C1135 C1134 1.457 . S
C1135 C1136 1.291 . S
C1135 H1148 0.931 . S
C1136 C1135 1.291 . S
C1136 C1137 1.373 . S
C1136 H1149 0.929 . S
C1137 C1136 1.373 . S
C1137 C1138 1.396 . S
C1137 C1144 1.403 . S
C1138 C1128 1.476 . S
C1138 N1133 1.318 . S
C1138 C1137 1.396 . S
H1139 C1134 0.929 . S
O1140 Mn1116 2.385 . S
O1140 C1118 1.234 . S
O1141 Mn1116 2.209 . S
O1141 Mn1117 2.215 . S
O1141 C1118 1.283 . S
O1142 Mn1116 2.094 . S
O1142 C1120 1.240 . S
O1143 Mn1117 2.117 . S
O1143 C1120 1.264 . S
C1144 C1137 1.403 . S
C1144 C1145 1.399 . S
C1144 H1150 0.929 . S
C1145 C1125 1.449 . S
C1145 C1144 1.399 . S
C1145 H1151 0.930 . S
H1146 C1126 0.931 . S
H1147 C1127 0.930 . S
H1148 C1135 0.931 . S
H1149 C1136 0.929 . S
H1150 C1144 0.929 . S
H1151 C1145 0.930 . S
Mn1152 O1157 2.095 . S
Mn1152 O1167 2.162 . S
Mn1152 O1168 2.297 . S
Mn1152 O1176 2.385 . S
Mn1152 O1177 2.209 . S
Mn1152 O1178 2.094 . S
Mn1153 O1158 2.121 . S
Mn1153 N1160 2.257 . S
Mn1153 N1169 2.282 . S
Mn1153 O1177 2.215 . S
Mn1153 O1179 2.117 . S
C1154 O1176 1.234 . S
C1154 O1177 1.283 . S
C1155 O1167 1.281 . S
C1155 O1168 1.236 . S
C1156 O1178 1.240 . S
C1156 O1179 1.264 . S
O1157 Mn1152 2.095 . S
O1157 C1166 1.250 . S
O1158 Mn1153 2.121 . S
O1158 C1166 1.258 . S
C1159 N1160 1.326 . S
C1159 C1163 1.460 . S
C1159 H1165 0.929 . S
N1160 Mn1153 2.257 . S
N1160 C1159 1.326 . S
N1160 C1164 1.362 . S
C1161 C1162 1.258 . S
C1161 C1164 1.431 . S
C1161 C1181 1.449 . S
C1162 C1161 1.258 . S
C1162 C1163 1.477 . S
C1162 H1182 0.931 . S
C1163 C1159 1.460 . S
C1163 C1162 1.477 . S
C1163 H1183 0.930 . S
C1164 N1160 1.362 . S
C1164 C1161 1.431 . S
C1164 C1174 1.476 . S
H1165 C1159 0.929 . S
C1166 O1157 1.250 . S
C1166 O1158 1.258 . S
O1167 Mn1152 2.162 . S
O1167 C1155 1.281 . S
O1168 Mn1152 2.297 . S
O1168 C1155 1.236 . S
N1169 Mn1153 2.282 . S
N1169 C1170 1.328 . S
N1169 C1174 1.318 . S
C1170 N1169 1.328 . S
C1170 C1171 1.457 . S
C1170 H1175 0.929 . S
C1171 C1170 1.457 . S
C1171 C1172 1.291 . S
C1171 H1184 0.931 . S
C1172 C1171 1.291 . S
C1172 C1173 1.373 . S
C1172 H1185 0.929 . S
C1173 C1172 1.373 . S
C1173 C1174 1.396 . S
C1173 C1180 1.403 . S
C1174 C1164 1.476 . S
C1174 N1169 1.318 . S
C1174 C1173 1.396 . S
H1175 C1170 0.929 . S
O1176 Mn1152 2.385 . S
O1176 C1154 1.234 . S
O1177 Mn1152 2.209 . S
O1177 Mn1153 2.215 . S
O1177 C1154 1.283 . S
O1178 Mn1152 2.094 . S
O1178 C1156 1.240 . S
O1179 Mn1153 2.117 . S
O1179 C1156 1.264 . S
C1180 C1173 1.403 . S
C1180 C1181 1.399 . S
C1180 H1186 0.929 . S
C1181 C1161 1.449 . S
C1181 C1180 1.399 . S
C1181 H1187 0.930 . S
H1182 C1162 0.931 . S
H1183 C1163 0.930 . S
H1184 C1171 0.931 . S
H1185 C1172 0.929 . S
H1186 C1180 0.929 . S
H1187 C1181 0.930 . S
Mn1188 O1193 2.095 . S
Mn1188 O1203 2.162 . S
Mn1188 O1204 2.297 . S
Mn1188 O1212 2.385 . S
Mn1188 O1213 2.209 . S
Mn1188 O1214 2.094 . S
Mn1189 O1194 2.121 . S
Mn1189 N1196 2.257 . S
Mn1189 N1205 2.282 . S
Mn1189 O1213 2.215 . S
Mn1189 O1215 2.117 . S
C1190 O1212 1.234 . S
C1190 O1213 1.283 . S
C1191 O1203 1.281 . S
C1191 O1204 1.236 . S
C1192 O1214 1.240 . S
C1192 O1215 1.264 . S
O1193 Mn1188 2.095 . S
O1193 C1202 1.250 . S
O1194 Mn1189 2.121 . S
O1194 C1202 1.258 . S
C1195 N1196 1.326 . S
C1195 C1199 1.460 . S
C1195 H1201 0.929 . S
N1196 Mn1189 2.257 . S
N1196 C1195 1.326 . S
N1196 C1200 1.362 . S
C1197 C1198 1.258 . S
C1197 C1200 1.431 . S
C1197 C1217 1.449 . S
C1198 C1197 1.258 . S
C1198 C1199 1.477 . S
C1198 H1218 0.931 . S
C1199 C1195 1.460 . S
C1199 C1198 1.477 . S
C1199 H1219 0.930 . S
C1200 N1196 1.362 . S
C1200 C1197 1.431 . S
C1200 C1210 1.476 . S
H1201 C1195 0.929 . S
C1202 O1193 1.250 . S
C1202 O1194 1.258 . S
O1203 Mn1188 2.162 . S
O1203 C1191 1.281 . S
O1204 Mn1188 2.297 . S
O1204 C1191 1.236 . S
N1205 Mn1189 2.282 . S
N1205 C1206 1.328 . S
N1205 C1210 1.318 . S
C1206 N1205 1.328 . S
C1206 C1207 1.457 . S
C1206 H1211 0.929 . S
C1207 C1206 1.457 . S
C1207 C1208 1.291 . S
C1207 H1220 0.931 . S
C1208 C1207 1.291 . S
C1208 C1209 1.373 . S
C1208 H1221 0.929 . S
C1209 C1208 1.373 . S
C1209 C1210 1.396 . S
C1209 C1216 1.403 . S
C1210 C1200 1.476 . S
C1210 N1205 1.318 . S
C1210 C1209 1.396 . S
H1211 C1206 0.929 . S
O1212 Mn1188 2.385 . S
O1212 C1190 1.234 . S
O1213 Mn1188 2.209 . S
O1213 Mn1189 2.215 . S
O1213 C1190 1.283 . S
O1214 Mn1188 2.094 . S
O1214 C1192 1.240 . S
O1215 Mn1189 2.117 . S
O1215 C1192 1.264 . S
C1216 C1209 1.403 . S
C1216 C1217 1.399 . S
C1216 H1222 0.929 . S
C1217 C1197 1.449 . S
C1217 C1216 1.399 . S
C1217 H1223 0.930 . S
H1218 C1198 0.931 . S
H1219 C1199 0.930 . S
H1220 C1207 0.931 . S
H1221 C1208 0.929 . S
H1222 C1216 0.929 . S
H1223 C1217 0.930 . S
Mn1224 O1229 2.095 . S
Mn1224 O1239 2.162 . S
Mn1224 O1240 2.297 . S
Mn1224 O1248 2.385 . S
Mn1224 O1249 2.209 . S
Mn1224 O1250 2.094 . S
Mn1225 O1230 2.121 . S
Mn1225 N1232 2.257 . S
Mn1225 N1241 2.282 . S
Mn1225 O1249 2.215 . S
Mn1225 O1251 2.117 . S
C1226 O1248 1.234 . S
C1226 O1249 1.283 . S
C1227 O1239 1.281 . S
C1227 O1240 1.236 . S
C1228 O1250 1.240 . S
C1228 O1251 1.264 . S
O1229 Mn1224 2.095 . S
O1229 C1238 1.250 . S
O1230 Mn1225 2.121 . S
O1230 C1238 1.258 . S
C1231 N1232 1.326 . S
C1231 C1235 1.460 . S
C1231 H1237 0.929 . S
N1232 Mn1225 2.257 . S
N1232 C1231 1.326 . S
N1232 C1236 1.362 . S
C1233 C1234 1.258 . S
C1233 C1236 1.431 . S
C1233 C1253 1.449 . S
C1234 C1233 1.258 . S
C1234 C1235 1.477 . S
C1234 H1254 0.931 . S
C1235 C1231 1.460 . S
C1235 C1234 1.477 . S
C1235 H1255 0.930 . S
C1236 N1232 1.362 . S
C1236 C1233 1.431 . S
C1236 C1246 1.476 . S
H1237 C1231 0.929 . S
C1238 O1229 1.250 . S
C1238 O1230 1.258 . S
O1239 Mn1224 2.162 . S
O1239 C1227 1.281 . S
O1240 Mn1224 2.297 . S
O1240 C1227 1.236 . S
N1241 Mn1225 2.282 . S
N1241 C1242 1.328 . S
N1241 C1246 1.318 . S
C1242 N1241 1.328 . S
C1242 C1243 1.457 . S
C1242 H1247 0.929 . S
C1243 C1242 1.457 . S
C1243 C1244 1.291 . S
C1243 H1256 0.931 . S
C1244 C1243 1.291 . S
C1244 C1245 1.373 . S
C1244 H1257 0.929 . S
C1245 C1244 1.373 . S
C1245 C1246 1.396 . S
C1245 C1252 1.403 . S
C1246 C1236 1.476 . S
C1246 N1241 1.318 . S
C1246 C1245 1.396 . S
H1247 C1242 0.929 . S
O1248 Mn1224 2.385 . S
O1248 C1226 1.234 . S
O1249 Mn1224 2.209 . S
O1249 Mn1225 2.215 . S
O1249 C1226 1.283 . S
O1250 Mn1224 2.094 . S
O1250 C1228 1.240 . S
O1251 Mn1225 2.117 . S
O1251 C1228 1.264 . S
C1252 C1245 1.403 . S
C1252 C1253 1.399 . S
C1252 H1258 0.929 . S
C1253 C1233 1.449 . S
C1253 C1252 1.399 . S
C1253 H1259 0.930 . S
H1254 C1234 0.931 . S
H1255 C1235 0.930 . S
H1256 C1243 0.931 . S
H1257 C1244 0.929 . S
H1258 C1252 0.929 . S
H1259 C1253 0.930 . S
Mn1260 O1265 2.095 . S
Mn1260 O1275 2.162 . S
Mn1260 O1276 2.297 . S
Mn1260 O1284 2.385 . S
Mn1260 O1285 2.209 . S
Mn1260 O1286 2.094 . S
Mn1261 O1266 2.121 . S
Mn1261 N1268 2.257 . S
Mn1261 N1277 2.282 . S
Mn1261 O1285 2.215 . S
Mn1261 O1287 2.117 . S
C1262 O1284 1.234 . S
C1262 O1285 1.283 . S
C1263 O1275 1.281 . S
C1263 O1276 1.236 . S
C1264 O1286 1.240 . S
C1264 O1287 1.264 . S
O1265 Mn1260 2.095 . S
O1265 C1274 1.250 . S
O1266 Mn1261 2.121 . S
O1266 C1274 1.258 . S
C1267 N1268 1.326 . S
C1267 C1271 1.460 . S
C1267 H1273 0.929 . S
N1268 Mn1261 2.257 . S
N1268 C1267 1.326 . S
N1268 C1272 1.362 . S
C1269 C1270 1.258 . S
C1269 C1272 1.431 . S
C1269 C1289 1.449 . S
C1270 C1269 1.258 . S
C1270 C1271 1.477 . S
C1270 H1290 0.931 . S
C1271 C1267 1.460 . S
C1271 C1270 1.477 . S
C1271 H1291 0.930 . S
C1272 N1268 1.362 . S
C1272 C1269 1.431 . S
C1272 C1282 1.476 . S
H1273 C1267 0.929 . S
C1274 O1265 1.250 . S
C1274 O1266 1.258 . S
O1275 Mn1260 2.162 . S
O1275 C1263 1.281 . S
O1276 Mn1260 2.297 . S
O1276 C1263 1.236 . S
N1277 Mn1261 2.282 . S
N1277 C1278 1.328 . S
N1277 C1282 1.318 . S
C1278 N1277 1.328 . S
C1278 C1279 1.457 . S
C1278 H1283 0.929 . S
C1279 C1278 1.457 . S
C1279 C1280 1.291 . S
C1279 H1292 0.931 . S
C1280 C1279 1.291 . S
C1280 C1281 1.373 . S
C1280 H1293 0.929 . S
C1281 C1280 1.373 . S
C1281 C1282 1.396 . S
C1281 C1288 1.403 . S
C1282 C1272 1.476 . S
C1282 N1277 1.318 . S
C1282 C1281 1.396 . S
H1283 C1278 0.929 . S
O1284 Mn1260 2.385 . S
O1284 C1262 1.234 . S
O1285 Mn1260 2.209 . S
O1285 Mn1261 2.215 . S
O1285 C1262 1.283 . S
O1286 Mn1260 2.094 . S
O1286 C1264 1.240 . S
O1287 Mn1261 2.117 . S
O1287 C1264 1.264 . S
C1288 C1281 1.403 . S
C1288 C1289 1.399 . S
C1288 H1294 0.929 . S
C1289 C1269 1.449 . S
C1289 C1288 1.399 . S
C1289 H1295 0.930 . S
H1290 C1270 0.931 . S
H1291 C1271 0.930 . S
H1292 C1279 0.931 . S
H1293 C1280 0.929 . S
H1294 C1288 0.929 . S
H1295 C1289 0.930 . S
C1296 C1297 1.349 . S
C1296 C1298 1.327 . S
C1296 H1321 0.950 . S
C1297 C1296 1.349 . S
C1297 C1313 1.349 . S
C1298 C1296 1.327 . S
C1298 C1317 1.429 . S
C1298 H1322 0.950 . S
C1299 C1316 1.574 1_554 S
C1299 C1318 1.368 . S
C1299 H1323 0.949 . S
H1300 C1304 0.949 . S
C1301 C1302 1.349 . S
C1301 C1303 1.327 1_565 S
C1301 H1324 0.950 . S
C1302 C1301 1.349 . S
C1302 C1314 1.349 . S
C1303 C1301 1.327 1_545 S
C1303 C1319 1.415 . S
C1303 H1325 0.950 . S
C1304 H1300 0.949 . S
C1304 C1312 1.574 . S
C1304 C1320 1.368 1_554 S
H1305 C1313 0.950 . S
H1306 C1311 0.950 . S
H1307 C1312 0.949 . S
H1308 C1314 0.950 . S
H1309 C1315 0.950 . S
H1310 C1316 0.949 . S
C1311 H1306 0.950 . S
C1311 C1313 1.327 . S
C1311 C1317 1.429 . S
C1312 C1304 1.574 . S
C1312 H1307 0.949 . S
C1312 C1318 1.368 . S
C1313 C1297 1.349 . S
C1313 H1305 0.950 . S
C1313 C1311 1.327 . S
C1314 C1302 1.349 . S
C1314 H1308 0.950 . S
C1314 C1315 1.327 . S
C1315 H1309 0.950 . S
C1315 C1314 1.327 . S
C1315 C1319 1.406 1_565 S
C1316 C1299 1.574 1_556 S
C1316 H1310 0.949 . S
C1316 C1320 1.368 . S
C1317 C1298 1.429 . S
C1317 C1311 1.429 . S
C1317 C1318 1.523 . S
C1318 C1299 1.368 . S
C1318 C1312 1.368 . S
C1318 C1317 1.523 . S
C1319 C1303 1.415 . S
C1319 C1315 1.406 1_545 S
C1319 C1320 1.557 . S
C1320 C1304 1.368 1_556 S
C1320 C1316 1.368 . S
C1320 C1319 1.557 . S
H1321 C1296 0.950 . S
H1322 C1298 0.950 . S
H1323 C1299 0.949 . S
H1324 C1301 0.950 . S
H1325 C1303 0.950 . S
C1326 C1327 1.349 . S
C1326 C1328 1.327 . S
C1326 H1351 0.950 . S
C1327 C1326 1.349 . S
C1327 C1343 1.349 . S
C1328 C1326 1.327 . S
C1328 C1347 1.429 . S
C1328 H1352 0.950 . S
C1329 C1346 1.574 . S
C1329 C1348 1.368 1_556 S
C1329 H1353 0.949 . S
H1330 C1334 0.949 . S
C1331 C1332 1.349 . S
C1331 C1333 1.286 1_455 S
C1331 H1354 0.950 . S
C1332 C1331 1.349 . S
C1332 C1344 1.349 . S
C1333 C1331 1.286 1_655 S
C1333 C1349 1.430 . S
C1333 H1355 0.991 . S
C1334 H1330 0.949 . S
C1334 C1342 1.574 . S
C1334 C1350 1.368 1_554 S
H1335 C1343 0.950 . S
H1336 C1341 0.950 . S
H1337 C1342 0.949 . S
H1338 C1344 0.950 . S
H1339 C1345 0.950 1_554 S
H1340 C1346 0.949 . S
C1341 H1336 0.950 . S
C1341 C1343 1.327 . S
C1341 C1347 1.429 . S
C1342 C1334 1.574 . S
C1342 H1337 0.949 . S
C1342 C1348 1.368 . S
C1343 C1327 1.349 . S
C1343 H1335 0.950 . S
C1343 C1341 1.327 . S
C1344 C1332 1.349 . S
C1344 H1338 0.950 . S
C1344 C1345 1.327 . S
C1345 H1339 0.950 1_556 S
C1345 C1344 1.327 . S
C1345 C1349 1.403 1_455 S
C1346 C1329 1.574 . S
C1346 H1340 0.949 . S
C1346 C1350 1.368 . S
C1347 C1328 1.429 . S
C1347 C1341 1.429 . S
C1347 C1348 1.523 . S
C1348 C1329 1.368 1_554 S
C1348 C1342 1.368 . S
C1348 C1347 1.523 . S
C1349 C1333 1.430 . S
C1349 C1345 1.403 1_655 S
C1349 C1350 1.549 . S
C1350 C1334 1.368 1_556 S
C1350 C1346 1.368 . S
C1350 C1349 1.549 . S
H1351 C1326 0.950 . S
H1352 C1328 0.950 . S
H1353 C1329 0.949 . S
H1354 C1331 0.950 . S
H1355 C1333 0.991 . S
C1356 C1357 1.349 . S
C1356 C1358 1.327 . S
C1356 H1381 0.950 . S
C1357 C1356 1.349 . S
C1357 C1373 1.349 . S
C1358 C1356 1.327 . S
C1358 C1377 1.429 . S
C1358 H1382 0.950 . S
C1359 C1376 1.574 1_556 S
C1359 C1378 1.368 . S
C1359 H1383 0.949 . S
H1360 C1364 0.949 . S
C1361 C1362 1.349 . S
C1361 C1363 1.327 . S
C1361 H1384 0.950 . S
C1362 C1361 1.349 . S
C1362 C1374 1.349 . S
C1363 C1361 1.327 . S
C1363 C1379 1.429 . S
C1363 H1385 0.950 . S
C1364 H1360 0.949 . S
C1364 C1372 1.574 . S
C1364 C1380 1.368 . S
H1365 C1373 0.950 . S
H1366 C1371 0.950 . S
H1367 C1372 0.949 . S
H1368 C1374 0.950 . S
H1369 C1375 0.950 . S
H1370 C1376 0.949 . S
C1371 H1366 0.950 . S
C1371 C1373 1.327 . S
C1371 C1377 1.429 . S
C1372 C1364 1.574 . S
C1372 H1367 0.949 . S
C1372 C1378 1.368 1_554 S
C1373 C1357 1.349 . S
C1373 H1365 0.950 . S
C1373 C1371 1.327 . S
C1374 C1362 1.349 . S
C1374 H1368 0.950 . S
C1374 C1375 1.327 . S
C1375 H1369 0.950 . S
C1375 C1374 1.327 . S
C1375 C1379 1.429 . S
C1376 C1359 1.574 1_554 S
C1376 H1370 0.949 . S
C1376 C1380 1.368 . S
C1377 C1358 1.429 . S
C1377 C1371 1.429 . S
C1377 C1378 1.523 . S
C1378 C1359 1.368 . S
C1378 C1372 1.368 1_556 S
C1378 C1377 1.523 . S
C1379 C1363 1.429 . S
C1379 C1375 1.429 . S
C1379 C1380 1.523 . S
C1380 C1364 1.368 . S
C1380 C1376 1.368 . S
C1380 C1379 1.523 . S
H1381 C1356 0.950 . S
H1382 C1358 0.950 . S
H1383 C1359 0.949 . S
H1384 C1361 0.950 . S
H1385 C1363 0.950 . S
C1386 C1387 1.349 . S
C1386 C1388 1.327 . S
C1386 H1411 0.950 . S
C1387 C1386 1.349 . S
C1387 C1403 1.349 . S
C1388 C1386 1.327 . S
C1388 C1407 1.402 1_655 S
C1388 H1412 0.950 . S
C1389 C1406 1.574 . S
C1389 C1408 1.368 . S
C1389 H1413 0.949 . S
H1390 C1394 0.949 . S
C1391 C1392 1.349 . S
C1391 C1393 1.327 . S
C1391 H1414 0.950 . S
C1392 C1391 1.349 . S
C1392 C1404 1.349 . S
C1393 C1391 1.327 . S
C1393 C1409 1.429 . S
C1393 H1415 0.950 . S
C1394 H1390 0.949 . S
C1394 C1402 1.574 . S
C1394 C1410 1.368 . S
H1395 C1403 0.950 . S
H1396 C1401 0.950 . S
H1397 C1402 0.987 . S
H1398 C1404 0.950 . S
H1399 C1405 0.950 . S
H1400 C1406 0.949 . S
C1401 H1396 0.950 . S
C1401 C1403 1.327 1_455 S
C1401 C1407 1.419 . S
C1402 C1394 1.574 . S
C1402 H1397 0.987 . S
C1402 C1408 1.368 . S
C1403 C1387 1.349 . S
C1403 H1395 0.950 . S
C1403 C1401 1.327 1_655 S
C1404 C1392 1.349 . S
C1404 H1398 0.950 . S
C1404 C1405 1.327 . S
C1405 H1399 0.950 . S
C1405 C1404 1.327 . S
C1405 C1409 1.429 . S
C1406 C1389 1.574 . S
C1406 H1400 0.949 . S
C1406 C1410 1.368 . S
C1407 C1388 1.402 1_455 S
C1407 C1401 1.419 . S
C1407 C1408 1.557 . S
C1408 C1389 1.368 . S
C1408 C1402 1.368 . S
C1408 C1407 1.557 . S
C1409 C1393 1.429 . S
C1409 C1405 1.429 . S
C1409 C1410 1.523 . S
C1410 C1394 1.368 . S
C1410 C1406 1.368 . S
C1410 C1409 1.523 . S
H1411 C1386 0.950 . S
H1412 C1388 0.950 . S
H1413 C1389 0.949 . S
H1414 C1391 0.950 . S
H1415 C1393 0.950 . S
C1416 C1417 1.349 . S
C1416 C1418 1.327 . S
C1416 H1441 0.950 . S
C1417 C1416 1.349 . S
C1417 C1433 1.349 . S
C1418 C1416 1.327 . S
C1418 C1437 1.429 . S
C1418 H1442 0.950 . S
C1419 C1436 1.574 . S
C1419 C1438 1.368 . S
C1419 H1443 0.949 . S
H1420 C1424 0.949 . S
C1421 C1422 1.349 . S
C1421 C1423 1.327 . S
C1421 H1444 0.950 . S
C1422 C1421 1.349 . S
C1422 C1434 1.349 . S
C1423 C1421 1.327 . S
C1423 C1439 1.429 . S
C1423 H1445 0.950 . S
C1424 H1420 0.949 . S
C1424 C1432 1.574 . S
C1424 C1440 1.368 . S
H1425 C1433 0.950 . S
H1426 C1431 0.950 . S
H1427 C1432 0.949 . S
H1428 C1434 0.950 . S
H1429 C1435 0.950 . S
H1430 C1436 0.949 . S
C1431 H1426 0.950 . S
C1431 C1433 1.327 . S
C1431 C1437 1.429 . S
C1432 C1424 1.574 . S
C1432 H1427 0.949 . S
C1432 C1438 1.368 . S
C1433 C1417 1.349 . S
C1433 H1425 0.950 . S
C1433 C1431 1.327 . S
C1434 C1422 1.349 . S
C1434 H1428 0.950 . S
C1434 C1435 1.327 . S
C1435 H1429 0.950 . S
C1435 C1434 1.327 . S
C1435 C1439 1.429 . S
C1436 C1419 1.574 . S
C1436 H1430 0.949 . S
C1436 C1440 1.368 . S
C1437 C1418 1.429 . S
C1437 C1431 1.429 . S
C1437 C1438 1.523 . S
C1438 C1419 1.368 . S
C1438 C1432 1.368 . S
C1438 C1437 1.523 . S
C1439 C1423 1.429 . S
C1439 C1435 1.429 . S
C1439 C1440 1.523 . S
C1440 C1424 1.368 . S
C1440 C1436 1.368 . S
C1440 C1439 1.523 . S
H1441 C1416 0.950 . S
H1442 C1418 0.950 . S
H1443 C1419 0.949 . S
H1444 C1421 0.950 . S
H1445 C1423 0.950 . S
C1446 C1447 1.349 . S
C1446 C1448 1.327 . S
C1446 H1471 0.950 . S
C1447 C1446 1.349 . S
C1447 C1463 1.349 . S
C1448 C1446 1.327 . S
C1448 C1467 1.429 . S
C1448 H1472 0.950 . S
C1449 C1466 1.574 . S
C1449 C1468 1.368 . S
C1449 H1473 0.949 . S
H1450 C1454 0.949 . S
C1451 C1452 1.349 . S
C1451 C1453 1.327 . S
C1451 H1474 0.950 . S
C1452 C1451 1.349 . S
C1452 C1464 1.349 . S
C1453 C1451 1.327 . S
C1453 C1469 1.443 1_545 S
C1453 H1475 0.950 1_545 S
C1454 H1450 0.949 . S
C1454 C1462 1.574 . S
C1454 C1470 1.368 . S
H1455 C1463 0.950 . S
H1456 C1461 0.950 . S
H1457 C1462 0.949 . S
H1458 C1464 0.950 . S
H1459 C1465 0.950 . S
H1460 C1466 0.949 . S
C1461 H1456 0.950 . S
C1461 C1463 1.327 . S
C1461 C1467 1.429 . S
C1462 C1454 1.574 . S
C1462 H1457 0.949 . S
C1462 C1468 1.368 . S
C1463 C1447 1.349 . S
C1463 H1455 0.950 . S
C1463 C1461 1.327 . S
C1464 C1452 1.349 . S
C1464 H1458 0.950 . S
C1464 C1465 1.327 . S
C1465 H1459 0.950 . S
C1465 C1464 1.327 . S
C1465 C1469 1.386 1_545 S
C1466 C1449 1.574 . S
C1466 H1460 0.949 . S
C1466 C1470 1.368 . S
C1467 C1448 1.429 . S
C1467 C1461 1.429 . S
C1467 C1468 1.523 . S
C1468 C1449 1.368 . S
C1468 C1462 1.368 . S
C1468 C1467 1.523 . S
C1469 C1453 1.443 1_565 S
C1469 C1465 1.386 1_565 S
C1469 C1470 1.549 . S
C1470 C1454 1.368 . S
C1470 C1466 1.368 . S
C1470 C1469 1.549 . S
H1471 C1446 0.950 . S
H1472 C1448 0.950 . S
H1473 C1449 0.949 . S
H1474 C1451 0.950 . S
H1475 C1453 0.950 1_565 S
C1476 C1477 1.349 . S
C1476 C1478 1.327 . S
C1476 H1501 0.950 . S
C1477 C1476 1.349 . S
C1477 C1493 1.349 . S
C1478 C1476 1.327 . S
C1478 C1497 1.397 1_545 S
C1478 H1502 0.950 1_554 S
C1479 C1496 1.572 1_554 S
C1479 C1498 1.368 . S
C1479 H1503 0.949 . S
H1480 C1484 0.949 . S
C1481 C1482 1.349 . S
C1481 C1483 1.327 . S
C1481 H1504 0.950 . S
C1482 C1481 1.349 . S
C1482 C1494 1.349 . S
C1483 C1481 1.327 . S
C1483 C1499 1.429 . S
C1483 H1505 0.950 . S
C1484 H1480 0.949 . S
C1484 C1492 1.574 . S
C1484 C1500 1.368 . S
H1485 C1493 0.950 . S
H1486 C1491 0.950 . S
H1487 C1492 0.944 . S
H1488 C1494 0.950 . S
H1489 C1495 0.950 . S
H1490 C1496 0.948 1_554 S
C1491 H1486 0.950 . S
C1491 C1493 1.327 1_565 S
C1491 C1497 1.424 . S
C1492 C1484 1.574 . S
C1492 H1487 0.944 . S
C1492 C1498 1.368 1_556 S
C1493 C1477 1.349 . S
C1493 H1485 0.950 . S
C1493 C1491 1.327 1_545 S
C1494 C1482 1.349 . S
C1494 H1488 0.950 . S
C1494 C1495 1.327 . S
C1495 H1489 0.950 . S
C1495 C1494 1.327 . S
C1495 C1499 1.429 . S
C1496 C1479 1.572 1_556 S
C1496 H1490 0.948 1_556 S
C1496 C1500 1.371 . S
C1497 C1478 1.397 1_565 S
C1497 C1491 1.424 . S
C1497 C1498 1.557 . S
C1498 C1479 1.368 . S
C1498 C1492 1.368 1_554 S
C1498 C1497 1.557 . S
C1499 C1483 1.429 . S
C1499 C1495 1.429 . S
C1499 C1500 1.523 . S
C1500 C1484 1.368 . S
C1500 C1496 1.371 . S
C1500 C1499 1.523 . S
H1501 C1476 0.950 . S
H1502 C1478 0.950 1_556 S
H1503 C1479 0.949 . S
H1504 C1481 0.950 . S
H1505 C1483 0.950 . S
C1506 C1507 1.349 . S
C1506 C1508 1.327 . S
C1506 H1531 0.950 . S
C1507 C1506 1.349 . S
C1507 C1523 1.349 . S
C1508 C1506 1.327 . S
C1508 C1527 1.385 1_655 S
C1508 H1532 0.950 . S
C1509 C1526 1.574 1_554 S
C1509 C1528 1.368 . S
C1509 H1533 0.949 . S
H1510 C1514 0.949 . S
C1511 C1512 1.349 . S
C1511 C1513 1.327 . S
C1511 H1534 0.950 . S
C1512 C1511 1.349 . S
C1512 C1524 1.349 . S
C1513 C1511 1.327 . S
C1513 C1529 1.429 . S
C1513 H1535 0.950 . S
C1514 H1510 0.949 . S
C1514 C1522 1.574 . S
C1514 C1530 1.368 . S
H1515 C1523 0.950 . S
H1516 C1521 0.943 1_455 S
H1517 C1522 0.949 . S
H1518 C1524 0.950 . S
H1519 C1525 0.950 . S
H1520 C1526 0.949 . S
C1521 H1516 0.943 1_655 S
C1521 C1523 1.331 . S
C1521 C1527 1.447 1_655 S
C1522 C1514 1.574 . S
C1522 H1517 0.949 . S
C1522 C1528 1.368 1_556 S
C1523 C1507 1.349 . S
C1523 H1515 0.950 . S
C1523 C1521 1.331 . S
C1524 C1512 1.349 . S
C1524 H1518 0.950 . S
C1524 C1525 1.327 . S
C1525 H1519 0.950 . S
C1525 C1524 1.327 . S
C1525 C1529 1.429 . S
C1526 C1509 1.574 1_556 S
C1526 H1520 0.949 . S
C1526 C1530 1.368 . S
C1527 C1508 1.385 1_455 S
C1527 C1521 1.447 1_455 S
C1527 C1528 1.549 . S
C1528 C1509 1.368 . S
C1528 C1522 1.368 1_554 S
C1528 C1527 1.549 . S
C1529 C1513 1.429 . S
C1529 C1525 1.429 . S
C1529 C1530 1.523 . S
C1530 C1514 1.368 . S
C1530 C1526 1.368 . S
C1530 C1529 1.523 . S
H1531 C1506 0.950 . S
H1532 C1508 0.950 . S
H1533 C1509 0.949 . S
H1534 C1511 0.950 . S
H1535 C1513 0.950 . S
C1536 C1537 1.349 . S
C1536 C1538 1.327 . S
C1536 H1561 0.950 . S
C1537 C1536 1.349 . S
C1537 C1553 1.349 . S
C1538 C1536 1.327 . S
C1538 C1557 1.429 . S
C1538 H1562 0.950 . S
C1539 C1556 1.574 1_556 S
C1539 C1558 1.368 . S
C1539 H1563 0.949 . S
H1540 C1544 0.949 . S
C1541 C1542 1.349 . S
C1541 C1543 1.327 . S
C1541 H1564 0.950 . S
C1542 C1541 1.349 . S
C1542 C1554 1.349 . S
C1543 C1541 1.327 . S
C1543 C1559 1.429 . S
C1543 H1565 0.950 . S
C1544 H1540 0.949 . S
C1544 C1552 1.574 . S
C1544 C1560 1.368 1_556 S
H1545 C1553 0.950 . S
H1546 C1551 0.950 . S
H1547 C1552 0.949 . S
H1548 C1554 0.950 . S
H1549 C1555 0.950 . S
H1550 C1556 0.949 . S
C1551 H1546 0.950 . S
C1551 C1553 1.327 . S
C1551 C1557 1.429 . S
C1552 C1544 1.574 . S
C1552 H1547 0.949 . S
C1552 C1558 1.368 . S
C1553 C1537 1.349 . S
C1553 H1545 0.950 . S
C1553 C1551 1.327 . S
C1554 C1542 1.349 . S
C1554 H1548 0.950 . S
C1554 C1555 1.327 . S
C1555 H1549 0.950 . S
C1555 C1554 1.327 . S
C1555 C1559 1.429 . S
C1556 C1539 1.574 1_554 S
C1556 H1550 0.949 . S
C1556 C1560 1.368 . S
C1557 C1538 1.429 . S
C1557 C1551 1.429 . S
C1557 C1558 1.523 . S
C1558 C1539 1.368 . S
C1558 C1552 1.368 . S
C1558 C1557 1.523 . S
C1559 C1543 1.429 . S
C1559 C1555 1.429 . S
C1559 C1560 1.523 . S
C1560 C1544 1.368 1_554 S
C1560 C1556 1.368 . S
C1560 C1559 1.523 . S
H1561 C1536 0.950 . S
H1562 C1538 0.950 . S
H1563 C1539 0.949 . S
H1564 C1541 0.950 . S
H1565 C1543 0.950 . S
C1566 C1567 1.349 . S
C1566 C1568 1.327 . S
C1566 H1591 0.950 . S
C1567 C1566 1.349 . S
C1567 C1583 1.349 . S
C1568 C1566 1.327 . S
C1568 C1587 1.429 . S
C1568 H1592 0.950 . S
C1569 C1586 1.574 . S
C1569 C1588 1.368 . S
C1569 H1593 0.949 . S
H1570 C1574 0.949 . S
C1571 C1572 1.349 . S
C1571 C1573 1.327 1_455 S
C1571 H1594 0.950 . S
C1572 C1571 1.349 . S
C1572 C1584 1.349 . S
C1573 C1571 1.327 1_655 S
C1573 C1589 1.431 . S
C1573 H1595 0.950 . S
C1574 H1570 0.949 . S
C1574 C1582 1.574 . S
C1574 C1590 1.368 . S
H1575 C1583 0.950 . S
H1576 C1581 0.950 . S
H1577 C1582 0.949 . S
H1578 C1584 0.950 . S
H1579 C1585 0.950 . S
H1580 C1586 0.949 . S
C1581 H1576 0.950 . S
C1581 C1583 1.327 . S
C1581 C1587 1.429 . S
C1582 C1574 1.574 . S
C1582 H1577 0.949 . S
C1582 C1588 1.368 . S
C1583 C1567 1.349 . S
C1583 H1575 0.950 . S
C1583 C1581 1.327 . S
C1584 C1572 1.349 . S
C1584 H1578 0.950 . S
C1584 C1585 1.327 . S
C1585 H1579 0.950 . S
C1585 C1584 1.327 . S
C1585 C1589 1.390 1_455 S
C1586 C1569 1.574 . S
C1586 H1580 0.949 . S
C1586 C1590 1.368 . S
C1587 C1568 1.429 . S
C1587 C1581 1.429 . S
C1587 C1588 1.523 . S
C1588 C1569 1.368 . S
C1588 C1582 1.368 . S
C1588 C1587 1.523 . S
C1589 C1573 1.431 . S
C1589 C1585 1.390 1_655 S
C1589 C1590 1.557 . S
C1590 C1574 1.368 . S
C1590 C1586 1.368 . S
C1590 C1589 1.557 . S
H1591 C1566 0.950 . S
H1592 C1568 0.950 . S
H1593 C1569 0.949 . S
H1594 C1571 0.950 . S
H1595 C1573 0.950 . S
C1596 C1597 1.349 . S
C1596 C1598 1.327 . S
C1596 H1621 0.950 . S
C1597 C1596 1.349 . S
C1597 C1613 1.349 . S
C1598 C1596 1.327 . S
C1598 C1617 1.429 . S
C1598 H1622 0.950 . S
C1599 C1616 1.574 . S
C1599 C1618 1.368 . S
C1599 H1623 0.949 . S
H1600 C1604 0.949 . S
C1601 C1602 1.349 . S
C1601 C1603 1.327 . S
C1601 H1624 0.950 . S
C1602 C1601 1.349 . S
C1602 C1614 1.349 . S
C1603 C1601 1.327 . S
C1603 C1619 1.429 . S
C1603 H1625 0.950 . S
C1604 H1600 0.949 . S
C1604 C1612 1.574 . S
C1604 C1620 1.368 . S
H1605 C1613 0.950 . S
H1606 C1611 0.950 . S
H1607 C1612 0.949 . S
H1608 C1614 0.950 . S
H1609 C1615 0.950 . S
H1610 C1616 0.949 . S
C1611 H1606 0.950 . S
C1611 C1613 1.327 . S
C1611 C1617 1.429 . S
C1612 C1604 1.574 . S
C1612 H1607 0.949 . S
C1612 C1618 1.368 . S
C1613 C1597 1.349 . S
C1613 H1605 0.950 . S
C1613 C1611 1.327 . S
C1614 C1602 1.349 . S
C1614 H1608 0.950 . S
C1614 C1615 1.327 . S
C1615 H1609 0.950 . S
C1615 C1614 1.327 . S
C1615 C1619 1.429 . S
C1616 C1599 1.574 . S
C1616 H1610 0.949 . S
C1616 C1620 1.368 . S
C1617 C1598 1.429 . S
C1617 C1611 1.429 . S
C1617 C1618 1.523 . S
C1618 C1599 1.368 . S
C1618 C1612 1.368 . S
C1618 C1617 1.523 . S
C1619 C1603 1.429 . S
C1619 C1615 1.429 . S
C1619 C1620 1.523 . S
C1620 C1604 1.368 . S
C1620 C1616 1.368 . S
C1620 C1619 1.523 . S
H1621 C1596 0.950 . S
H1622 C1598 0.950 . S
H1623 C1599 0.949 . S
H1624 C1601 0.950 . S
H1625 C1603 0.950 . S
C1626 C1627 1.349 . S
C1626 C1628 1.327 . S
C1626 H1651 0.950 . S
C1627 C1626 1.349 . S
C1627 C1643 1.349 . S
C1628 C1626 1.327 . S
C1628 C1647 1.429 . S
C1628 H1652 0.950 . S
C1629 C1646 1.574 . S
C1629 C1648 1.368 . S
C1629 H1653 0.949 . S
H1630 C1634 0.949 . S
C1631 C1632 1.349 . S
C1631 C1633 1.327 . S
C1631 H1654 0.950 . S
C1632 C1631 1.349 . S
C1632 C1644 1.349 . S
C1633 C1631 1.327 . S
C1633 C1649 1.413 1_565 S
C1633 H1655 0.950 1_565 S
C1634 H1630 0.949 . S
C1634 C1642 1.574 . S
C1634 C1650 1.368 . S
H1635 C1643 0.950 . S
H1636 C1641 0.950 . S
H1637 C1642 0.949 . S
H1638 C1644 0.950 . S
H1639 C1645 0.950 . S
H1640 C1646 0.949 . S
C1641 H1636 0.950 . S
C1641 C1643 1.327 . S
C1641 C1647 1.429 . S
C1642 C1634 1.574 . S
C1642 H1637 0.949 . S
C1642 C1648 1.368 . S
C1643 C1627 1.349 . S
C1643 H1635 0.950 . S
C1643 C1641 1.327 . S
C1644 C1632 1.349 . S
C1644 H1638 0.950 . S
C1644 C1645 1.327 . S
C1645 H1639 0.950 . S
C1645 C1644 1.327 . S
C1645 C1649 1.417 1_565 S
C1646 C1629 1.574 . S
C1646 H1640 0.949 . S
C1646 C1650 1.368 . S
C1647 C1628 1.429 . S
C1647 C1641 1.429 . S
C1647 C1648 1.523 . S
C1648 C1629 1.368 . S
C1648 C1642 1.368 . S
C1648 C1647 1.523 . S
C1649 C1633 1.413 1_545 S
C1649 C1645 1.417 1_545 S
C1649 C1650 1.549 . S
C1650 C1634 1.368 . S
C1650 C1646 1.368 . S
C1650 C1649 1.549 . S
H1651 C1626 0.950 . S
H1652 C1628 0.950 . S
H1653 C1629 0.949 . S
H1654 C1631 0.950 . S
H1655 C1633 0.950 1_545 S
C1656 C1657 1.349 . S
C1656 C1658 1.327 . S
C1656 H1681 0.950 . S
C1657 C1656 1.349 . S
C1657 C1673 1.349 . S
C1658 C1656 1.327 . S
C1658 C1677 1.429 . S
C1658 H1682 0.950 . S
C1659 C1676 1.574 . S
C1659 C1678 1.368 . S
C1659 H1683 0.949 . S
H1660 C1664 0.949 . S
C1661 C1662 1.349 . S
C1661 C1663 1.327 . S
C1661 H1684 0.950 . S
C1662 C1661 1.349 . S
C1662 C1674 1.349 . S
C1663 C1661 1.327 . S
C1663 C1679 1.429 . S
C1663 H1685 0.950 . S
C1664 H1660 0.949 . S
C1664 C1672 1.574 . S
C1664 C1680 1.368 . S
H1665 C1673 0.950 . S
H1666 C1671 0.950 . S
H1667 C1672 0.949 . S
H1668 C1674 0.950 . S
H1669 C1675 0.950 . S
H1670 C1676 0.949 . S
C1671 H1666 0.950 . S
C1671 C1673 1.327 . S
C1671 C1677 1.429 . S
C1672 C1664 1.574 . S
C1672 H1667 0.949 . S
C1672 C1678 1.368 . S
C1673 C1657 1.349 . S
C1673 H1665 0.950 . S
C1673 C1671 1.327 . S
C1674 C1662 1.349 . S
C1674 H1668 0.950 . S
C1674 C1675 1.327 . S
C1675 H1669 0.950 . S
C1675 C1674 1.327 . S
C1675 C1679 1.429 . S
C1676 C1659 1.574 . S
C1676 H1670 0.949 . S
C1676 C1680 1.368 . S
C1677 C1658 1.429 . S
C1677 C1671 1.429 . S
C1677 C1678 1.523 . S
C1678 C1659 1.368 . S
C1678 C1672 1.368 . S
C1678 C1677 1.523 . S
C1679 C1663 1.429 . S
C1679 C1675 1.429 . S
C1679 C1680 1.523 . S
C1680 C1664 1.368 . S
C1680 C1676 1.368 . S
C1680 C1679 1.523 . S
H1681 C1656 0.950 . S
H1682 C1658 0.950 . S
H1683 C1659 0.949 . S
H1684 C1661 0.950 . S
H1685 C1663 0.950 . S
C1686 C1687 1.349 . S
C1686 C1688 1.327 . S
C1686 H1711 0.950 . S
C1687 C1686 1.349 . S
C1687 C1703 1.349 . S
C1688 C1686 1.327 . S
C1688 C1707 1.429 . S
C1688 H1712 0.950 . S
C1689 C1706 1.574 . S
C1689 C1708 1.368 . S
C1689 H1713 0.949 . S
H1690 C1694 0.949 . S
C1691 C1692 1.349 . S
C1691 C1693 1.327 . S
C1691 H1714 0.950 . S
C1692 C1691 1.349 . S
C1692 C1704 1.349 . S
C1693 C1691 1.327 . S
C1693 C1709 1.429 . S
C1693 H1715 0.950 . S
C1694 H1690 0.949 . S
C1694 C1702 1.574 . S
C1694 C1710 1.368 . S
H1695 C1703 0.950 . S
H1696 C1701 0.950 . S
H1697 C1702 0.949 . S
H1698 C1704 0.950 . S
H1699 C1705 0.950 . S
H1700 C1706 0.949 . S
C1701 H1696 0.950 . S
C1701 C1703 1.327 . S
C1701 C1707 1.429 . S
C1702 C1694 1.574 . S
C1702 H1697 0.949 . S
C1702 C1708 1.368 . S
C1703 C1687 1.349 . S
C1703 H1695 0.950 . S
C1703 C1701 1.327 . S
C1704 C1692 1.349 . S
C1704 H1698 0.950 . S
C1704 C1705 1.327 . S
C1705 H1699 0.950 . S
C1705 C1704 1.327 . S
C1705 C1709 1.429 . S
C1706 C1689 1.574 . S
C1706 H1700 0.949 . S
C1706 C1710 1.368 . S
C1707 C1688 1.429 . S
C1707 C1701 1.429 . S
C1707 C1708 1.523 . S
C1708 C1689 1.368 . S
C1708 C1702 1.368 . S
C1708 C1707 1.523 . S
C1709 C1693 1.429 . S
C1709 C1705 1.429 . S
C1709 C1710 1.523 . S
C1710 C1694 1.368 . S
C1710 C1706 1.368 . S
C1710 C1709 1.523 . S
H1711 C1686 0.950 . S
H1712 C1688 0.950 . S
H1713 C1689 0.949 . S
H1714 C1691 0.950 . S
H1715 C1693 0.950 . S
C1716 C1717 1.349 . S
C1716 C1718 1.327 . S
C1716 H1741 0.950 . S
C1717 C1716 1.349 . S
C1717 C1733 1.349 . S
C1718 C1716 1.327 . S
C1718 C1737 1.429 . S
C1718 H1742 0.950 . S
C1719 C1736 1.574 . S
C1719 C1738 1.368 . S
C1719 H1743 0.949 . S
H1720 C1724 0.949 . S
C1721 C1722 1.349 . S
C1721 C1723 1.327 . S
C1721 H1744 0.950 . S
C1722 C1721 1.349 . S
C1722 C1734 1.349 . S
C1723 C1721 1.327 . S
C1723 C1739 1.429 . S
C1723 H1745 0.950 . S
C1724 H1720 0.949 . S
C1724 C1732 1.574 . S
C1724 C1740 1.368 . S
H1725 C1733 0.950 . S
H1726 C1731 0.950 . S
H1727 C1732 0.949 . S
H1728 C1734 0.950 . S
H1729 C1735 0.950 . S
H1730 C1736 0.949 . S
C1731 H1726 0.950 . S
C1731 C1733 1.327 . S
C1731 C1737 1.429 . S
C1732 C1724 1.574 . S
C1732 H1727 0.949 . S
C1732 C1738 1.368 . S
C1733 C1717 1.349 . S
C1733 H1725 0.950 . S
C1733 C1731 1.327 . S
C1734 C1722 1.349 . S
C1734 H1728 0.950 . S
C1734 C1735 1.327 . S
C1735 H1729 0.950 . S
C1735 C1734 1.327 . S
C1735 C1739 1.429 . S
C1736 C1719 1.574 . S
C1736 H1730 0.949 . S
C1736 C1740 1.368 . S
C1737 C1718 1.429 . S
C1737 C1731 1.429 . S
C1737 C1738 1.523 . S
C1738 C1719 1.368 . S
C1738 C1732 1.368 . S
C1738 C1737 1.523 . S
C1739 C1723 1.429 . S
C1739 C1735 1.429 . S
C1739 C1740 1.523 . S
C1740 C1724 1.368 . S
C1740 C1736 1.368 . S
C1740 C1739 1.523 . S
H1741 C1716 0.950 . S
H1742 C1718 0.950 . S
H1743 C1719 0.949 . S
H1744 C1721 0.950 . S
H1745 C1723 0.950 . S
C1746 C1747 1.349 . S
C1746 C1748 1.327 . S
C1746 H1771 0.950 . S
C1747 C1746 1.349 . S
C1747 C1763 1.349 . S
C1748 C1746 1.327 . S
C1748 C1767 1.429 . S
C1748 H1772 0.950 . S
C1749 C1766 1.574 . S
C1749 C1768 1.368 . S
C1749 H1773 0.949 . S
H1750 C1754 0.949 . S
C1751 C1752 1.349 . S
C1751 C1753 1.327 . S
C1751 H1774 0.950 . S
C1752 C1751 1.349 . S
C1752 C1764 1.349 . S
C1753 C1751 1.327 . S
C1753 C1769 1.429 . S
C1753 H1775 0.950 . S
C1754 H1750 0.949 . S
C1754 C1762 1.574 . S
C1754 C1770 1.368 . S
H1755 C1763 0.950 . S
H1756 C1761 0.950 . S
H1757 C1762 0.949 . S
H1758 C1764 0.950 . S
H1759 C1765 0.950 . S
H1760 C1766 0.949 . S
C1761 H1756 0.950 . S
C1761 C1763 1.327 . S
C1761 C1767 1.429 . S
C1762 C1754 1.574 . S
C1762 H1757 0.949 . S
C1762 C1768 1.368 . S
C1763 C1747 1.349 . S
C1763 H1755 0.950 . S
C1763 C1761 1.327 . S
C1764 C1752 1.349 . S
C1764 H1758 0.950 . S
C1764 C1765 1.327 . S
C1765 H1759 0.950 . S
C1765 C1764 1.327 . S
C1765 C1769 1.429 . S
C1766 C1749 1.574 . S
C1766 H1760 0.949 . S
C1766 C1770 1.368 . S
C1767 C1748 1.429 . S
C1767 C1761 1.429 . S
C1767 C1768 1.523 . S
C1768 C1749 1.368 . S
C1768 C1762 1.368 . S
C1768 C1767 1.523 . S
C1769 C1753 1.429 . S
C1769 C1765 1.429 . S
C1769 C1770 1.523 . S
C1770 C1754 1.368 . S
C1770 C1766 1.368 . S
C1770 C1769 1.523 . S
H1771 C1746 0.950 . S
H1772 C1748 0.950 . S
H1773 C1749 0.949 . S
H1774 C1751 0.950 . S
H1775 C1753 0.950 . S
C1776 C1777 1.349 . S
C1776 C1778 1.327 . S
C1776 H1801 0.950 . S
C1777 C1776 1.349 . S
C1777 C1793 1.349 . S
C1778 C1776 1.327 . S
C1778 C1797 1.429 . S
C1778 H1802 0.950 . S
C1779 C1796 1.574 . S
C1779 C1798 1.368 . S
C1779 H1803 0.949 . S
H1780 C1784 0.949 . S
C1781 C1782 1.349 . S
C1781 C1783 1.327 . S
C1781 H1804 0.950 . S
C1782 C1781 1.349 . S
C1782 C1794 1.349 . S
C1783 C1781 1.327 . S
C1783 C1799 1.429 . S
C1783 H1805 0.950 . S
C1784 H1780 0.949 . S
C1784 C1792 1.574 . S
C1784 C1800 1.368 . S
H1785 C1793 0.950 . S
H1786 C1791 0.950 . S
H1787 C1792 0.949 . S
H1788 C1794 0.950 . S
H1789 C1795 0.950 . S
H1790 C1796 0.949 . S
C1791 H1786 0.950 . S
C1791 C1793 1.327 . S
C1791 C1797 1.429 . S
C1792 C1784 1.574 . S
C1792 H1787 0.949 . S
C1792 C1798 1.368 . S
C1793 C1777 1.349 . S
C1793 H1785 0.950 . S
C1793 C1791 1.327 . S
C1794 C1782 1.349 . S
C1794 H1788 0.950 . S
C1794 C1795 1.327 . S
C1795 H1789 0.950 . S
C1795 C1794 1.327 . S
C1795 C1799 1.429 . S
C1796 C1779 1.574 . S
C1796 H1790 0.949 . S
C1796 C1800 1.368 . S
C1797 C1778 1.429 . S
C1797 C1791 1.429 . S
C1797 C1798 1.523 . S
C1798 C1779 1.368 . S
C1798 C1792 1.368 . S
C1798 C1797 1.523 . S
C1799 C1783 1.429 . S
C1799 C1795 1.429 . S
C1799 C1800 1.523 . S
C1800 C1784 1.368 . S
C1800 C1796 1.368 . S
C1800 C1799 1.523 . S
H1801 C1776 0.950 . S
H1802 C1778 0.950 . S
H1803 C1779 0.949 . S
H1804 C1781 0.950 . S
H1805 C1783 0.950 . S
C1806 C1807 1.349 . S
C1806 C1808 1.327 . S
C1806 H1831 0.950 . S
C1807 C1806 1.349 . S
C1807 C1823 1.349 . S
C1808 C1806 1.327 . S
C1808 C1827 1.429 . S
C1808 H1832 0.950 . S
C1809 C1826 1.574 . S
C1809 C1828 1.368 . S
C1809 H1833 0.949 . S
H1810 C1814 0.949 . S
C1811 C1812 1.349 . S
C1811 C1813 1.327 . S
C1811 H1834 0.950 . S
C1812 C1811 1.349 . S
C1812 C1824 1.349 . S
C1813 C1811 1.327 . S
C1813 C1829 1.429 . S
C1813 H1835 0.950 . S
C1814 H1810 0.949 . S
C1814 C1822 1.574 . S
C1814 C1830 1.368 . S
H1815 C1823 0.950 . S
H1816 C1821 0.950 . S
H1817 C1822 0.949 . S
H1818 C1824 0.950 . S
H1819 C1825 0.950 . S
H1820 C1826 0.949 . S
C1821 H1816 0.950 . S
C1821 C1823 1.327 . S
C1821 C1827 1.429 . S
C1822 C1814 1.574 . S
C1822 H1817 0.949 . S
C1822 C1828 1.368 . S
C1823 C1807 1.349 . S
C1823 H1815 0.950 . S
C1823 C1821 1.327 . S
C1824 C1812 1.349 . S
C1824 H1818 0.950 . S
C1824 C1825 1.327 . S
C1825 H1819 0.950 . S
C1825 C1824 1.327 . S
C1825 C1829 1.429 . S
C1826 C1809 1.574 . S
C1826 H1820 0.949 . S
C1826 C1830 1.368 . S
C1827 C1808 1.429 . S
C1827 C1821 1.429 . S
C1827 C1828 1.523 . S
C1828 C1809 1.368 . S
C1828 C1822 1.368 . S
C1828 C1827 1.523 . S
C1829 C1813 1.429 . S
C1829 C1825 1.429 . S
C1829 C1830 1.523 . S
C1830 C1814 1.368 . S
C1830 C1826 1.368 . S
C1830 C1829 1.523 . S
H1831 C1806 0.950 . S
H1832 C1808 0.950 . S
H1833 C1809 0.949 . S
H1834 C1811 0.950 . S
H1835 C1813 0.950 . S
C1836 C1837 1.349 . S
C1836 C1838 1.327 . S
C1836 H1861 0.950 . S
C1837 C1836 1.349 . S
C1837 C1853 1.349 . S
C1838 C1836 1.327 . S
C1838 C1857 1.429 . S
C1838 H1862 0.950 . S
C1839 C1856 1.574 . S
C1839 C1858 1.368 . S
C1839 H1863 0.949 . S
H1840 C1844 0.949 . S
C1841 C1842 1.349 . S
C1841 C1843 1.327 . S
C1841 H1864 0.950 . S
C1842 C1841 1.349 . S
C1842 C1854 1.349 . S
C1843 C1841 1.327 . S
C1843 C1859 1.429 . S
C1843 H1865 0.950 . S
C1844 H1840 0.949 . S
C1844 C1852 1.574 . S
C1844 C1860 1.368 . S
H1845 C1853 0.950 . S
H1846 C1851 0.950 . S
H1847 C1852 0.949 . S
H1848 C1854 0.950 . S
H1849 C1855 0.950 . S
H1850 C1856 0.949 . S
C1851 H1846 0.950 . S
C1851 C1853 1.327 . S
C1851 C1857 1.429 . S
C1852 C1844 1.574 . S
C1852 H1847 0.949 . S
C1852 C1858 1.368 . S
C1853 C1837 1.349 . S
C1853 H1845 0.950 . S
C1853 C1851 1.327 . S
C1854 C1842 1.349 . S
C1854 H1848 0.950 . S
C1854 C1855 1.327 . S
C1855 H1849 0.950 . S
C1855 C1854 1.327 . S
C1855 C1859 1.429 . S
C1856 C1839 1.574 . S
C1856 H1850 0.949 . S
C1856 C1860 1.368 . S
C1857 C1838 1.429 . S
C1857 C1851 1.429 . S
C1857 C1858 1.523 . S
C1858 C1839 1.368 . S
C1858 C1852 1.368 . S
C1858 C1857 1.523 . S
C1859 C1843 1.429 . S
C1859 C1855 1.429 . S
C1859 C1860 1.523 . S
C1860 C1844 1.368 . S
C1860 C1856 1.368 . S
C1860 C1859 1.523 . S
H1861 C1836 0.950 . S
H1862 C1838 0.950 . S
H1863 C1839 0.949 . S
H1864 C1841 0.950 . S
H1865 C1843 0.950 . S
C1866 C1867 1.349 . S
C1866 C1868 1.327 . S
C1866 H1891 0.950 . S
C1867 C1866 1.349 . S
C1867 C1883 1.349 . S
C1868 C1866 1.327 . S
C1868 C1887 1.429 . S
C1868 H1892 0.950 . S
C1869 C1886 1.574 . S
C1869 C1888 1.368 . S
C1869 H1893 0.949 . S
H1870 C1874 0.949 . S
C1871 C1872 1.349 . S
C1871 C1873 1.327 . S
C1871 H1894 0.950 . S
C1872 C1871 1.349 . S
C1872 C1884 1.349 . S
C1873 C1871 1.327 . S
C1873 C1889 1.429 . S
C1873 H1895 0.950 . S
C1874 H1870 0.949 . S
C1874 C1882 1.574 . S
C1874 C1890 1.368 . S
H1875 C1883 0.950 . S
H1876 C1881 0.950 . S
H1877 C1882 0.949 . S
H1878 C1884 0.950 . S
H1879 C1885 0.950 . S
H1880 C1886 0.949 . S
C1881 H1876 0.950 . S
C1881 C1883 1.327 . S
C1881 C1887 1.429 . S
C1882 C1874 1.574 . S
C1882 H1877 0.949 . S
C1882 C1888 1.368 . S
C1883 C1867 1.349 . S
C1883 H1875 0.950 . S
C1883 C1881 1.327 . S
C1884 C1872 1.349 . S
C1884 H1878 0.950 . S
C1884 C1885 1.327 . S
C1885 H1879 0.950 . S
C1885 C1884 1.327 . S
C1885 C1889 1.429 . S
C1886 C1869 1.574 . S
C1886 H1880 0.949 . S
C1886 C1890 1.368 . S
C1887 C1868 1.429 . S
C1887 C1881 1.429 . S
C1887 C1888 1.523 . S
C1888 C1869 1.368 . S
C1888 C1882 1.368 . S
C1888 C1887 1.523 . S
C1889 C1873 1.429 . S
C1889 C1885 1.429 . S
C1889 C1890 1.523 . S
C1890 C1874 1.368 . S
C1890 C1886 1.368 . S
C1890 C1889 1.523 . S
H1891 C1866 0.950 . S
H1892 C1868 0.950 . S
H1893 C1869 0.949 . S
H1894 C1871 0.950 . S
H1895 C1873 0.950 . S
C1896 C1897 1.349 . S
C1896 C1898 1.327 . S
C1896 H1921 0.950 . S
C1897 C1896 1.349 . S
C1897 C1913 1.349 . S
C1898 C1896 1.327 . S
C1898 C1917 1.429 . S
C1898 H1922 0.950 . S
C1899 C1916 1.574 . S
C1899 C1918 1.368 . S
C1899 H1923 0.949 . S
H1900 C1904 0.949 . S
C1901 C1902 1.349 . S
C1901 C1903 1.327 . S
C1901 H1924 0.950 . S
C1902 C1901 1.349 . S
C1902 C1914 1.349 . S
C1903 C1901 1.327 . S
C1903 C1919 1.429 . S
C1903 H1925 0.950 . S
C1904 H1900 0.949 . S
C1904 C1912 1.574 . S
C1904 C1920 1.368 . S
H1905 C1913 0.950 . S
H1906 C1911 0.950 . S
H1907 C1912 0.949 . S
H1908 C1914 0.950 . S
H1909 C1915 0.950 . S
H1910 C1916 0.949 . S
C1911 H1906 0.950 . S
C1911 C1913 1.327 . S
C1911 C1917 1.429 . S
C1912 C1904 1.574 . S
C1912 H1907 0.949 . S
C1912 C1918 1.368 . S
C1913 C1897 1.349 . S
C1913 H1905 0.950 . S
C1913 C1911 1.327 . S
C1914 C1902 1.349 . S
C1914 H1908 0.950 . S
C1914 C1915 1.327 . S
C1915 H1909 0.950 . S
C1915 C1914 1.327 . S
C1915 C1919 1.429 . S
C1916 C1899 1.574 . S
C1916 H1910 0.949 . S
C1916 C1920 1.368 . S
C1917 C1898 1.429 . S
C1917 C1911 1.429 . S
C1917 C1918 1.523 . S
C1918 C1899 1.368 . S
C1918 C1912 1.368 . S
C1918 C1917 1.523 . S
C1919 C1903 1.429 . S
C1919 C1915 1.429 . S
C1919 C1920 1.523 . S
C1920 C1904 1.368 . S
C1920 C1916 1.368 . S
C1920 C1919 1.523 . S
H1921 C1896 0.950 . S
H1922 C1898 0.950 . S
H1923 C1899 0.949 . S
H1924 C1901 0.950 . S
H1925 C1903 0.950 . S
C1926 C1927 1.349 . S
C1926 C1928 1.327 . S
C1926 H1951 0.950 . S
C1927 C1926 1.349 . S
C1927 C1943 1.349 . S
C1928 C1926 1.327 . S
C1928 C1947 1.429 . S
C1928 H1952 0.950 . S
C1929 C1946 1.574 . S
C1929 C1948 1.368 . S
C1929 H1953 0.949 . S
H1930 C1934 0.949 . S
C1931 C1932 1.349 . S
C1931 C1933 1.327 . S
C1931 H1954 0.950 . S
C1932 C1931 1.349 . S
C1932 C1944 1.349 . S
C1933 C1931 1.327 . S
C1933 C1949 1.429 . S
C1933 H1955 0.950 . S
C1934 H1930 0.949 . S
C1934 C1942 1.574 . S
C1934 C1950 1.368 . S
H1935 C1943 0.950 . S
H1936 C1941 0.950 . S
H1937 C1942 0.949 . S
H1938 C1944 0.950 . S
H1939 C1945 0.950 . S
H1940 C1946 0.949 . S
C1941 H1936 0.950 . S
C1941 C1943 1.327 . S
C1941 C1947 1.429 . S
C1942 C1934 1.574 . S
C1942 H1937 0.949 . S
C1942 C1948 1.368 . S
C1943 C1927 1.349 . S
C1943 H1935 0.950 . S
C1943 C1941 1.327 . S
C1944 C1932 1.349 . S
C1944 H1938 0.950 . S
C1944 C1945 1.327 . S
C1945 H1939 0.950 . S
C1945 C1944 1.327 . S
C1945 C1949 1.429 . S
C1946 C1929 1.574 . S
C1946 H1940 0.949 . S
C1946 C1950 1.368 . S
C1947 C1928 1.429 . S
C1947 C1941 1.429 . S
C1947 C1948 1.523 . S
C1948 C1929 1.368 . S
C1948 C1942 1.368 . S
C1948 C1947 1.523 . S
C1949 C1933 1.429 . S
C1949 C1945 1.429 . S
C1949 C1950 1.523 . S
C1950 C1934 1.368 . S
C1950 C1946 1.368 . S
C1950 C1949 1.523 . S
H1951 C1926 0.950 . S
H1952 C1928 0.950 . S
H1953 C1929 0.949 . S
H1954 C1931 0.950 . S
H1955 C1933 0.950 . S
C1956 C1957 1.349 . S
C1956 C1958 1.327 . S
C1956 H1981 0.950 . S
C1957 C1956 1.349 . S
C1957 C1973 1.349 . S
C1958 C1956 1.327 . S
C1958 C1977 1.429 . S
C1958 H1982 0.950 . S
C1959 C1976 1.574 . S
C1959 C1978 1.368 . S
C1959 H1983 0.949 . S
H1960 C1964 0.949 . S
C1961 C1962 1.349 . S
C1961 C1963 1.327 . S
C1961 H1984 0.950 . S
C1962 C1961 1.349 . S
C1962 C1974 1.349 . S
C1963 C1961 1.327 . S
C1963 C1979 1.429 . S
C1963 H1985 0.950 . S
C1964 H1960 0.949 . S
C1964 C1972 1.574 . S
C1964 C1980 1.368 . S
H1965 C1973 0.950 . S
H1966 C1971 0.950 . S
H1967 C1972 0.949 . S
H1968 C1974 0.950 . S
H1969 C1975 0.950 . S
H1970 C1976 0.949 . S
C1971 H1966 0.950 . S
C1971 C1973 1.327 . S
C1971 C1977 1.429 . S
C1972 C1964 1.574 . S
C1972 H1967 0.949 . S
C1972 C1978 1.368 . S
C1973 C1957 1.349 . S
C1973 H1965 0.950 . S
C1973 C1971 1.327 . S
C1974 C1962 1.349 . S
C1974 H1968 0.950 . S
C1974 C1975 1.327 . S
C1975 H1969 0.950 . S
C1975 C1974 1.327 . S
C1975 C1979 1.429 . S
C1976 C1959 1.574 . S
C1976 H1970 0.949 . S
C1976 C1980 1.368 . S
C1977 C1958 1.429 . S
C1977 C1971 1.429 . S
C1977 C1978 1.523 . S
C1978 C1959 1.368 . S
C1978 C1972 1.368 . S
C1978 C1977 1.523 . S
C1979 C1963 1.429 . S
C1979 C1975 1.429 . S
C1979 C1980 1.523 . S
C1980 C1964 1.368 . S
C1980 C1976 1.368 . S
C1980 C1979 1.523 . S
H1981 C1956 0.950 . S
H1982 C1958 0.950 . S
H1983 C1959 0.949 . S
H1984 C1961 0.950 . S
H1985 C1963 0.950 . S
C1986 C1987 1.349 . S
C1986 C1988 1.327 . S
C1986 H2011 0.950 . S
C1987 C1986 1.349 . S
C1987 C2003 1.349 . S
C1988 C1986 1.327 . S
C1988 C2007 1.429 . S
C1988 H2012 0.950 . S
C1989 C2006 1.574 . S
C1989 C2008 1.368 . S
C1989 H2013 0.949 . S
H1990 C1994 0.949 . S
C1991 C1992 1.349 . S
C1991 C1993 1.327 . S
C1991 H2014 0.950 . S
C1992 C1991 1.349 . S
C1992 C2004 1.349 . S
C1993 C1991 1.327 . S
C1993 C2009 1.429 . S
C1993 H2015 0.950 . S
C1994 H1990 0.949 . S
C1994 C2002 1.574 . S
C1994 C2010 1.368 . S
H1995 C2003 0.950 . S
H1996 C2001 0.950 . S
H1997 C2002 0.949 . S
H1998 C2004 0.950 . S
H1999 C2005 0.950 . S
H2000 C2006 0.949 . S
C2001 H1996 0.950 . S
C2001 C2003 1.327 . S
C2001 C2007 1.429 . S
C2002 C1994 1.574 . S
C2002 H1997 0.949 . S
C2002 C2008 1.368 . S
C2003 C1987 1.349 . S
C2003 H1995 0.950 . S
C2003 C2001 1.327 . S
C2004 C1992 1.349 . S
C2004 H1998 0.950 . S
C2004 C2005 1.327 . S
C2005 H1999 0.950 . S
C2005 C2004 1.327 . S
C2005 C2009 1.429 . S
C2006 C1989 1.574 . S
C2006 H2000 0.949 . S
C2006 C2010 1.368 . S
C2007 C1988 1.429 . S
C2007 C2001 1.429 . S
C2007 C2008 1.523 . S
C2008 C1989 1.368 . S
C2008 C2002 1.368 . S
C2008 C2007 1.523 . S
C2009 C1993 1.429 . S
C2009 C2005 1.429 . S
C2009 C2010 1.523 . S
C2010 C1994 1.368 . S
C2010 C2006 1.368 . S
C2010 C2009 1.523 . S
H2011 C1986 0.950 . S
H2012 C1988 0.950 . S
H2013 C1989 0.949 . S
H2014 C1991 0.950 . S
H2015 C1993 0.950 . S
C2016 C2017 1.349 . S
C2016 C2018 1.327 . S
C2016 H2041 0.950 . S
C2017 C2016 1.349 . S
C2017 C2033 1.349 . S
C2018 C2016 1.327 . S
C2018 C2037 1.429 . S
C2018 H2042 0.950 . S
C2019 C2036 1.574 . S
C2019 C2038 1.368 . S
C2019 H2043 0.949 . S
H2020 C2024 0.949 . S
C2021 C2022 1.349 . S
C2021 C2023 1.327 . S
C2021 H2044 0.950 . S
C2022 C2021 1.349 . S
C2022 C2034 1.349 . S
C2023 C2021 1.327 . S
C2023 C2039 1.429 . S
C2023 H2045 0.950 . S
C2024 H2020 0.949 . S
C2024 C2032 1.574 . S
C2024 C2040 1.368 . S
H2025 C2033 0.950 . S
H2026 C2031 0.950 . S
H2027 C2032 0.949 . S
H2028 C2034 0.950 . S
H2029 C2035 0.950 . S
H2030 C2036 0.949 . S
C2031 H2026 0.950 . S
C2031 C2033 1.327 . S
C2031 C2037 1.429 . S
C2032 C2024 1.574 . S
C2032 H2027 0.949 . S
C2032 C2038 1.368 . S
C2033 C2017 1.349 . S
C2033 H2025 0.950 . S
C2033 C2031 1.327 . S
C2034 C2022 1.349 . S
C2034 H2028 0.950 . S
C2034 C2035 1.327 . S
C2035 H2029 0.950 . S
C2035 C2034 1.327 . S
C2035 C2039 1.429 . S
C2036 C2019 1.574 . S
C2036 H2030 0.949 . S
C2036 C2040 1.368 . S
C2037 C2018 1.429 . S
C2037 C2031 1.429 . S
C2037 C2038 1.523 . S
C2038 C2019 1.368 . S
C2038 C2032 1.368 . S
C2038 C2037 1.523 . S
C2039 C2023 1.429 . S
C2039 C2035 1.429 . S
C2039 C2040 1.523 . S
C2040 C2024 1.368 . S
C2040 C2036 1.368 . S
C2040 C2039 1.523 . S
H2041 C2016 0.950 . S
H2042 C2018 0.950 . S
H2043 C2019 0.949 . S
H2044 C2021 0.950 . S
H2045 C2023 0.950 . S
C2046 C2047 1.349 . S
C2046 C2048 1.327 . S
C2046 H2071 0.950 . S
C2047 C2046 1.349 . S
C2047 C2063 1.349 . S
C2048 C2046 1.327 . S
C2048 C2067 1.429 . S
C2048 H2072 0.950 . S
C2049 C2066 1.574 . S
C2049 C2068 1.368 . S
C2049 H2073 0.949 . S
H2050 C2054 0.949 . S
C2051 C2052 1.349 . S
C2051 C2053 1.327 . S
C2051 H2074 0.950 . S
C2052 C2051 1.349 . S
C2052 C2064 1.349 . S
C2053 C2051 1.327 . S
C2053 C2069 1.429 . S
C2053 H2075 0.950 . S
C2054 H2050 0.949 . S
C2054 C2062 1.574 . S
C2054 C2070 1.368 . S
H2055 C2063 0.950 . S
H2056 C2061 0.950 . S
H2057 C2062 0.949 . S
H2058 C2064 0.950 . S
H2059 C2065 0.950 . S
H2060 C2066 0.949 . S
C2061 H2056 0.950 . S
C2061 C2063 1.327 . S
C2061 C2067 1.429 . S
C2062 C2054 1.574 . S
C2062 H2057 0.949 . S
C2062 C2068 1.368 . S
C2063 C2047 1.349 . S
C2063 H2055 0.950 . S
C2063 C2061 1.327 . S
C2064 C2052 1.349 . S
C2064 H2058 0.950 . S
C2064 C2065 1.327 . S
C2065 H2059 0.950 . S
C2065 C2064 1.327 . S
C2065 C2069 1.429 . S
C2066 C2049 1.574 . S
C2066 H2060 0.949 . S
C2066 C2070 1.368 . S
C2067 C2048 1.429 . S
C2067 C2061 1.429 . S
C2067 C2068 1.523 . S
C2068 C2049 1.368 . S
C2068 C2062 1.368 . S
C2068 C2067 1.523 . S
C2069 C2053 1.429 . S
C2069 C2065 1.429 . S
C2069 C2070 1.523 . S
C2070 C2054 1.368 . S
C2070 C2066 1.368 . S
C2070 C2069 1.523 . S
H2071 C2046 0.950 . S
H2072 C2048 0.950 . S
H2073 C2049 0.949 . S
H2074 C2051 0.950 . S
H2075 C2053 0.950 . S
C2076 C2077 1.349 . S
C2076 C2078 1.327 . S
C2076 H2101 0.950 . S
C2077 C2076 1.349 . S
C2077 C2093 1.349 . S
C2078 C2076 1.327 . S
C2078 C2097 1.429 . S
C2078 H2102 0.950 . S
C2079 C2096 1.574 . S
C2079 C2098 1.368 . S
C2079 H2103 0.949 . S
H2080 C2084 0.949 . S
C2081 C2082 1.349 . S
C2081 C2083 1.327 . S
C2081 H2104 0.950 . S
C2082 C2081 1.349 . S
C2082 C2094 1.349 . S
C2083 C2081 1.327 . S
C2083 C2099 1.429 . S
C2083 H2105 0.950 . S
C2084 H2080 0.949 . S
C2084 C2092 1.574 . S
C2084 C2100 1.368 . S
H2085 C2093 0.950 . S
H2086 C2091 0.950 . S
H2087 C2092 0.949 . S
H2088 C2094 0.950 . S
H2089 C2095 0.950 . S
H2090 C2096 0.949 . S
C2091 H2086 0.950 . S
C2091 C2093 1.327 . S
C2091 C2097 1.429 . S
C2092 C2084 1.574 . S
C2092 H2087 0.949 . S
C2092 C2098 1.368 . S
C2093 C2077 1.349 . S
C2093 H2085 0.950 . S
C2093 C2091 1.327 . S
C2094 C2082 1.349 . S
C2094 H2088 0.950 . S
C2094 C2095 1.327 . S
C2095 H2089 0.950 . S
C2095 C2094 1.327 . S
C2095 C2099 1.429 . S
C2096 C2079 1.574 . S
C2096 H2090 0.949 . S
C2096 C2100 1.368 . S
C2097 C2078 1.429 . S
C2097 C2091 1.429 . S
C2097 C2098 1.523 . S
C2098 C2079 1.368 . S
C2098 C2092 1.368 . S
C2098 C2097 1.523 . S
C2099 C2083 1.429 . S
C2099 C2095 1.429 . S
C2099 C2100 1.523 . S
C2100 C2084 1.368 . S
C2100 C2096 1.368 . S
C2100 C2099 1.523 . S
H2101 C2076 0.950 . S
H2102 C2078 0.950 . S
H2103 C2079 0.949 . S
H2104 C2081 0.950 . S
H2105 C2083 0.950 . S
C2106 C2107 1.349 . S
C2106 C2108 1.327 . S
C2106 H2131 0.950 . S
C2107 C2106 1.349 . S
C2107 C2123 1.349 . S
C2108 C2106 1.327 . S
C2108 C2127 1.429 . S
C2108 H2132 0.950 . S
C2109 C2126 1.574 . S
C2109 C2128 1.368 . S
C2109 H2133 0.949 . S
H2110 C2114 0.949 . S
C2111 C2112 1.349 . S
C2111 C2113 1.327 . S
C2111 H2134 0.950 . S
C2112 C2111 1.349 . S
C2112 C2124 1.349 . S
C2113 C2111 1.327 . S
C2113 C2129 1.429 . S
C2113 H2135 0.950 . S
C2114 H2110 0.949 . S
C2114 C2122 1.574 . S
C2114 C2130 1.368 . S
H2115 C2123 0.950 . S
H2116 C2121 0.950 . S
H2117 C2122 0.949 . S
H2118 C2124 0.950 . S
H2119 C2125 0.950 . S
H2120 C2126 0.949 . S
C2121 H2116 0.950 . S
C2121 C2123 1.327 . S
C2121 C2127 1.429 . S
C2122 C2114 1.574 . S
C2122 H2117 0.949 . S
C2122 C2128 1.368 . S
C2123 C2107 1.349 . S
C2123 H2115 0.950 . S
C2123 C2121 1.327 . S
C2124 C2112 1.349 . S
C2124 H2118 0.950 . S
C2124 C2125 1.327 . S
C2125 H2119 0.950 . S
C2125 C2124 1.327 . S
C2125 C2129 1.429 . S
C2126 C2109 1.574 . S
C2126 H2120 0.949 . S
C2126 C2130 1.368 . S
C2127 C2108 1.429 . S
C2127 C2121 1.429 . S
C2127 C2128 1.523 . S
C2128 C2109 1.368 . S
C2128 C2122 1.368 . S
C2128 C2127 1.523 . S
C2129 C2113 1.429 . S
C2129 C2125 1.429 . S
C2129 C2130 1.523 . S
C2130 C2114 1.368 . S
C2130 C2126 1.368 . S
C2130 C2129 1.523 . S
H2131 C2106 0.950 . S
H2132 C2108 0.950 . S
H2133 C2109 0.949 . S
H2134 C2111 0.950 . S
H2135 C2113 0.950 . S
C2136 C2137 1.349 . S
C2136 C2138 1.327 . S
C2136 H2161 0.950 . S
C2137 C2136 1.349 . S
C2137 C2153 1.349 . S
C2138 C2136 1.327 . S
C2138 C2157 1.429 . S
C2138 H2162 0.950 . S
C2139 C2156 1.574 . S
C2139 C2158 1.368 . S
C2139 H2163 0.949 . S
H2140 C2144 0.949 . S
C2141 C2142 1.349 . S
C2141 C2143 1.327 . S
C2141 H2164 0.950 . S
C2142 C2141 1.349 . S
C2142 C2154 1.349 . S
C2143 C2141 1.327 . S
C2143 C2159 1.429 . S
C2143 H2165 0.950 . S
C2144 H2140 0.949 . S
C2144 C2152 1.574 . S
C2144 C2160 1.368 . S
H2145 C2153 0.950 . S
H2146 C2151 0.950 . S
H2147 C2152 0.949 . S
H2148 C2154 0.950 . S
H2149 C2155 0.950 . S
H2150 C2156 0.949 . S
C2151 H2146 0.950 . S
C2151 C2153 1.327 . S
C2151 C2157 1.429 . S
C2152 C2144 1.574 . S
C2152 H2147 0.949 . S
C2152 C2158 1.368 . S
C2153 C2137 1.349 . S
C2153 H2145 0.950 . S
C2153 C2151 1.327 . S
C2154 C2142 1.349 . S
C2154 H2148 0.950 . S
C2154 C2155 1.327 . S
C2155 H2149 0.950 . S
C2155 C2154 1.327 . S
C2155 C2159 1.429 . S
C2156 C2139 1.574 . S
C2156 H2150 0.949 . S
C2156 C2160 1.368 . S
C2157 C2138 1.429 . S
C2157 C2151 1.429 . S
C2157 C2158 1.523 . S
C2158 C2139 1.368 . S
C2158 C2152 1.368 . S
C2158 C2157 1.523 . S
C2159 C2143 1.429 . S
C2159 C2155 1.429 . S
C2159 C2160 1.523 . S
C2160 C2144 1.368 . S
C2160 C2156 1.368 . S
C2160 C2159 1.523 . S
H2161 C2136 0.950 . S
H2162 C2138 0.950 . S
H2163 C2139 0.949 . S
H2164 C2141 0.950 . S
H2165 C2143 0.950 . S
C2166 C2167 1.349 . S
C2166 C2168 1.327 . S
C2166 H2191 0.950 . S
C2167 C2166 1.349 . S
C2167 C2183 1.349 . S
C2168 C2166 1.327 . S
C2168 C2187 1.429 . S
C2168 H2192 0.950 . S
C2169 C2186 1.574 . S
C2169 C2188 1.368 . S
C2169 H2193 0.949 . S
H2170 C2174 0.949 . S
C2171 C2172 1.349 . S
C2171 C2173 1.327 . S
C2171 H2194 0.950 . S
C2172 C2171 1.349 . S
C2172 C2184 1.349 . S
C2173 C2171 1.327 . S
C2173 C2189 1.429 . S
C2173 H2195 0.950 . S
C2174 H2170 0.949 . S
C2174 C2182 1.574 . S
C2174 C2190 1.368 . S
H2175 C2183 0.950 . S
H2176 C2181 0.950 . S
H2177 C2182 0.949 . S
H2178 C2184 0.950 . S
H2179 C2185 0.950 . S
H2180 C2186 0.949 . S
C2181 H2176 0.950 . S
C2181 C2183 1.327 . S
C2181 C2187 1.429 . S
C2182 C2174 1.574 . S
C2182 H2177 0.949 . S
C2182 C2188 1.368 . S
C2183 C2167 1.349 . S
C2183 H2175 0.950 . S
C2183 C2181 1.327 . S
C2184 C2172 1.349 . S
C2184 H2178 0.950 . S
C2184 C2185 1.327 . S
C2185 H2179 0.950 . S
C2185 C2184 1.327 . S
C2185 C2189 1.429 . S
C2186 C2169 1.574 . S
C2186 H2180 0.949 . S
C2186 C2190 1.368 . S
C2187 C2168 1.429 . S
C2187 C2181 1.429 . S
C2187 C2188 1.523 . S
C2188 C2169 1.368 . S
C2188 C2182 1.368 . S
C2188 C2187 1.523 . S
C2189 C2173 1.429 . S
C2189 C2185 1.429 . S
C2189 C2190 1.523 . S
C2190 C2174 1.368 . S
C2190 C2186 1.368 . S
C2190 C2189 1.523 . S
H2191 C2166 0.950 . S
H2192 C2168 0.950 . S
H2193 C2169 0.949 . S
H2194 C2171 0.950 . S
H2195 C2173 0.950 . S
C2196 C2197 1.349 . S
C2196 C2198 1.327 . S
C2196 H2221 0.950 . S
C2197 C2196 1.349 . S
C2197 C2213 1.349 . S
C2198 C2196 1.327 . S
C2198 C2217 1.429 . S
C2198 H2222 0.950 . S
C2199 C2216 1.574 . S
C2199 C2218 1.368 . S
C2199 H2223 0.949 . S
H2200 C2204 0.949 . S
C2201 C2202 1.349 . S
C2201 C2203 1.327 . S
C2201 H2224 0.950 . S
C2202 C2201 1.349 . S
C2202 C2214 1.349 . S
C2203 C2201 1.327 . S
C2203 C2219 1.429 . S
C2203 H2225 0.950 . S
C2204 H2200 0.949 . S
C2204 C2212 1.574 . S
C2204 C2220 1.368 . S
H2205 C2213 0.950 . S
H2206 C2211 0.950 . S
H2207 C2212 0.949 . S
H2208 C2214 0.950 . S
H2209 C2215 0.950 . S
H2210 C2216 0.949 . S
C2211 H2206 0.950 . S
C2211 C2213 1.327 . S
C2211 C2217 1.429 . S
C2212 C2204 1.574 . S
C2212 H2207 0.949 . S
C2212 C2218 1.368 . S
C2213 C2197 1.349 . S
C2213 H2205 0.950 . S
C2213 C2211 1.327 . S
C2214 C2202 1.349 . S
C2214 H2208 0.950 . S
C2214 C2215 1.327 . S
C2215 H2209 0.950 . S
C2215 C2214 1.327 . S
C2215 C2219 1.429 . S
C2216 C2199 1.574 . S
C2216 H2210 0.949 . S
C2216 C2220 1.368 . S
C2217 C2198 1.429 . S
C2217 C2211 1.429 . S
C2217 C2218 1.523 . S
C2218 C2199 1.368 . S
C2218 C2212 1.368 . S
C2218 C2217 1.523 . S
C2219 C2203 1.429 . S
C2219 C2215 1.429 . S
C2219 C2220 1.523 . S
C2220 C2204 1.368 . S
C2220 C2216 1.368 . S
C2220 C2219 1.523 . S
H2221 C2196 0.950 . S
H2222 C2198 0.950 . S
H2223 C2199 0.949 . S
H2224 C2201 0.950 . S
H2225 C2203 0.950 . S
C2226 C2227 1.349 . S
C2226 C2228 1.327 . S
C2226 H2251 0.950 . S
C2227 C2226 1.349 . S
C2227 C2243 1.349 . S
C2228 C2226 1.327 . S
C2228 C2247 1.429 . S
C2228 H2252 0.950 . S
C2229 C2246 1.574 . S
C2229 C2248 1.368 . S
C2229 H2253 0.949 . S
H2230 C2234 0.949 . S
C2231 C2232 1.349 . S
C2231 C2233 1.327 . S
C2231 H2254 0.950 . S
C2232 C2231 1.349 . S
C2232 C2244 1.349 . S
C2233 C2231 1.327 . S
C2233 C2249 1.429 . S
C2233 H2255 0.950 . S
C2234 H2230 0.949 . S
C2234 C2242 1.574 . S
C2234 C2250 1.368 . S
H2235 C2243 0.950 . S
H2236 C2241 0.950 . S
H2237 C2242 0.949 . S
H2238 C2244 0.950 . S
H2239 C2245 0.950 . S
H2240 C2246 0.949 . S
C2241 H2236 0.950 . S
C2241 C2243 1.327 . S
C2241 C2247 1.429 . S
C2242 C2234 1.574 . S
C2242 H2237 0.949 . S
C2242 C2248 1.368 . S
C2243 C2227 1.349 . S
C2243 H2235 0.950 . S
C2243 C2241 1.327 . S
C2244 C2232 1.349 . S
C2244 H2238 0.950 . S
C2244 C2245 1.327 . S
C2245 H2239 0.950 . S
C2245 C2244 1.327 . S
C2245 C2249 1.429 . S
C2246 C2229 1.574 . S
C2246 H2240 0.949 . S
C2246 C2250 1.368 . S
C2247 C2228 1.429 . S
C2247 C2241 1.429 . S
C2247 C2248 1.523 . S
C2248 C2229 1.368 . S
C2248 C2242 1.368 . S
C2248 C2247 1.523 . S
C2249 C2233 1.429 . S
C2249 C2245 1.429 . S
C2249 C2250 1.523 . S
C2250 C2234 1.368 . S
C2250 C2246 1.368 . S
C2250 C2249 1.523 . S
H2251 C2226 0.950 . S
H2252 C2228 0.950 . S
H2253 C2229 0.949 . S
H2254 C2231 0.950 . S
H2255 C2233 0.950 . S
C2256 C2257 1.349 . S
C2256 C2258 1.327 . S
C2256 H2281 0.950 . S
C2257 C2256 1.349 . S
C2257 C2273 1.349 . S
C2258 C2256 1.327 . S
C2258 C2277 1.429 . S
C2258 H2282 0.950 . S
C2259 C2276 1.574 . S
C2259 C2278 1.368 . S
C2259 H2283 0.949 . S
H2260 C2264 0.949 . S
C2261 C2262 1.349 . S
C2261 C2263 1.327 . S
C2261 H2284 0.950 . S
C2262 C2261 1.349 . S
C2262 C2274 1.349 . S
C2263 C2261 1.327 . S
C2263 C2279 1.429 . S
C2263 H2285 0.950 . S
C2264 H2260 0.949 . S
C2264 C2272 1.574 . S
C2264 C2280 1.368 . S
H2265 C2273 0.950 . S
H2266 C2271 0.950 . S
H2267 C2272 0.949 . S
H2268 C2274 0.950 . S
H2269 C2275 0.950 . S
H2270 C2276 0.949 . S
C2271 H2266 0.950 . S
C2271 C2273 1.327 . S
C2271 C2277 1.429 . S
C2272 C2264 1.574 . S
C2272 H2267 0.949 . S
C2272 C2278 1.368 . S
C2273 C2257 1.349 . S
C2273 H2265 0.950 . S
C2273 C2271 1.327 . S
C2274 C2262 1.349 . S
C2274 H2268 0.950 . S
C2274 C2275 1.327 . S
C2275 H2269 0.950 . S
C2275 C2274 1.327 . S
C2275 C2279 1.429 . S
C2276 C2259 1.574 . S
C2276 H2270 0.949 . S
C2276 C2280 1.368 . S
C2277 C2258 1.429 . S
C2277 C2271 1.429 . S
C2277 C2278 1.523 . S
C2278 C2259 1.368 . S
C2278 C2272 1.368 . S
C2278 C2277 1.523 . S
C2279 C2263 1.429 . S
C2279 C2275 1.429 . S
C2279 C2280 1.523 . S
C2280 C2264 1.368 . S
C2280 C2276 1.368 . S
C2280 C2279 1.523 . S
H2281 C2256 0.950 . S
H2282 C2258 0.950 . S
H2283 C2259 0.949 . S
H2284 C2261 0.950 . S
H2285 C2263 0.950 . S
C2286 C2287 1.349 . S
C2286 C2288 1.327 . S
C2286 H2311 0.950 . S
C2287 C2286 1.349 . S
C2287 C2303 1.349 . S
C2288 C2286 1.327 . S
C2288 C2307 1.429 . S
C2288 H2312 0.950 . S
C2289 C2306 1.574 . S
C2289 C2308 1.368 . S
C2289 H2313 0.949 . S
H2290 C2294 0.949 . S
C2291 C2292 1.349 . S
C2291 C2293 1.327 . S
C2291 H2314 0.950 . S
C2292 C2291 1.349 . S
C2292 C2304 1.349 . S
C2293 C2291 1.327 . S
C2293 C2309 1.429 . S
C2293 H2315 0.950 . S
C2294 H2290 0.949 . S
C2294 C2302 1.574 . S
C2294 C2310 1.368 . S
H2295 C2303 0.950 . S
H2296 C2301 0.950 . S
H2297 C2302 0.949 . S
H2298 C2304 0.950 . S
H2299 C2305 0.950 . S
H2300 C2306 0.949 . S
C2301 H2296 0.950 . S
C2301 C2303 1.327 . S
C2301 C2307 1.429 . S
C2302 C2294 1.574 . S
C2302 H2297 0.949 . S
C2302 C2308 1.368 . S
C2303 C2287 1.349 . S
C2303 H2295 0.950 . S
C2303 C2301 1.327 . S
C2304 C2292 1.349 . S
C2304 H2298 0.950 . S
C2304 C2305 1.327 . S
C2305 H2299 0.950 . S
C2305 C2304 1.327 . S
C2305 C2309 1.429 . S
C2306 C2289 1.574 . S
C2306 H2300 0.949 . S
C2306 C2310 1.368 . S
C2307 C2288 1.429 . S
C2307 C2301 1.429 . S
C2307 C2308 1.523 . S
C2308 C2289 1.368 . S
C2308 C2302 1.368 . S
C2308 C2307 1.523 . S
C2309 C2293 1.429 . S
C2309 C2305 1.429 . S
C2309 C2310 1.523 . S
C2310 C2294 1.368 . S
C2310 C2306 1.368 . S
C2310 C2309 1.523 . S
H2311 C2286 0.950 . S
H2312 C2288 0.950 . S
H2313 C2289 0.949 . S
H2314 C2291 0.950 . S
H2315 C2293 0.950 . S
C2316 C2317 1.349 . S
C2316 C2318 1.327 . S
C2316 H2341 0.950 . S
C2317 C2316 1.349 . S
C2317 C2333 1.349 . S
C2318 C2316 1.327 . S
C2318 C2337 1.429 . S
C2318 H2342 0.950 . S
C2319 C2336 1.574 . S
C2319 C2338 1.368 . S
C2319 H2343 0.949 . S
H2320 C2324 0.949 . S
C2321 C2322 1.349 . S
C2321 C2323 1.327 . S
C2321 H2344 0.950 . S
C2322 C2321 1.349 . S
C2322 C2334 1.349 . S
C2323 C2321 1.327 . S
C2323 C2339 1.429 . S
C2323 H2345 0.950 . S
C2324 H2320 0.949 . S
C2324 C2332 1.574 . S
C2324 C2340 1.368 . S
H2325 C2333 0.950 . S
H2326 C2331 0.950 . S
H2327 C2332 0.949 . S
H2328 C2334 0.950 . S
H2329 C2335 0.950 . S
H2330 C2336 0.949 . S
C2331 H2326 0.950 . S
C2331 C2333 1.327 . S
C2331 C2337 1.429 . S
C2332 C2324 1.574 . S
C2332 H2327 0.949 . S
C2332 C2338 1.368 . S
C2333 C2317 1.349 . S
C2333 H2325 0.950 . S
C2333 C2331 1.327 . S
C2334 C2322 1.349 . S
C2334 H2328 0.950 . S
C2334 C2335 1.327 . S
C2335 H2329 0.950 . S
C2335 C2334 1.327 . S
C2335 C2339 1.429 . S
C2336 C2319 1.574 . S
C2336 H2330 0.949 . S
C2336 C2340 1.368 . S
C2337 C2318 1.429 . S
C2337 C2331 1.429 . S
C2337 C2338 1.523 . S
C2338 C2319 1.368 . S
C2338 C2332 1.368 . S
C2338 C2337 1.523 . S
C2339 C2323 1.429 . S
C2339 C2335 1.429 . S
C2339 C2340 1.523 . S
C2340 C2324 1.368 . S
C2340 C2336 1.368 . S
C2340 C2339 1.523 . S
H2341 C2316 0.950 . S
H2342 C2318 0.950 . S
H2343 C2319 0.949 . S
H2344 C2321 0.950 . S
H2345 C2323 0.950 . S
C2346 C2347 1.349 . S
C2346 C2348 1.327 . S
C2346 H2371 0.950 . S
C2347 C2346 1.349 . S
C2347 C2363 1.349 . S
C2348 C2346 1.327 . S
C2348 C2367 1.429 . S
C2348 H2372 0.950 . S
C2349 C2366 1.574 . S
C2349 C2368 1.368 . S
C2349 H2373 0.949 . S
H2350 C2354 0.949 . S
C2351 C2352 1.349 . S
C2351 C2353 1.327 . S
C2351 H2374 0.950 . S
C2352 C2351 1.349 . S
C2352 C2364 1.349 . S
C2353 C2351 1.327 . S
C2353 C2369 1.429 . S
C2353 H2375 0.950 . S
C2354 H2350 0.949 . S
C2354 C2362 1.574 . S
C2354 C2370 1.368 . S
H2355 C2363 0.950 . S
H2356 C2361 0.950 . S
H2357 C2362 0.949 . S
H2358 C2364 0.950 . S
H2359 C2365 0.950 . S
H2360 C2366 0.949 . S
C2361 H2356 0.950 . S
C2361 C2363 1.327 . S
C2361 C2367 1.429 . S
C2362 C2354 1.574 . S
C2362 H2357 0.949 . S
C2362 C2368 1.368 . S
C2363 C2347 1.349 . S
C2363 H2355 0.950 . S
C2363 C2361 1.327 . S
C2364 C2352 1.349 . S
C2364 H2358 0.950 . S
C2364 C2365 1.327 . S
C2365 H2359 0.950 . S
C2365 C2364 1.327 . S
C2365 C2369 1.429 . S
C2366 C2349 1.574 . S
C2366 H2360 0.949 . S
C2366 C2370 1.368 . S
C2367 C2348 1.429 . S
C2367 C2361 1.429 . S
C2367 C2368 1.523 . S
C2368 C2349 1.368 . S
C2368 C2362 1.368 . S
C2368 C2367 1.523 . S
C2369 C2353 1.429 . S
C2369 C2365 1.429 . S
C2369 C2370 1.523 . S
C2370 C2354 1.368 . S
C2370 C2366 1.368 . S
C2370 C2369 1.523 . S
H2371 C2346 0.950 . S
H2372 C2348 0.950 . S
H2373 C2349 0.949 . S
H2374 C2351 0.950 . S
H2375 C2353 0.950 . S
C2376 C2377 1.349 . S
C2376 C2378 1.327 . S
C2376 H2401 0.950 . S
C2377 C2376 1.349 . S
C2377 C2393 1.349 . S
C2378 C2376 1.327 . S
C2378 C2397 1.429 . S
C2378 H2402 0.950 . S
C2379 C2396 1.574 . S
C2379 C2398 1.368 . S
C2379 H2403 0.949 . S
H2380 C2384 0.949 . S
C2381 C2382 1.349 . S
C2381 C2383 1.327 . S
C2381 H2404 0.950 . S
C2382 C2381 1.349 . S
C2382 C2394 1.349 . S
C2383 C2381 1.327 . S
C2383 C2399 1.429 . S
C2383 H2405 0.950 . S
C2384 H2380 0.949 . S
C2384 C2392 1.574 . S
C2384 C2400 1.368 . S
H2385 C2393 0.950 . S
H2386 C2391 0.950 . S
H2387 C2392 0.949 . S
H2388 C2394 0.950 . S
H2389 C2395 0.950 . S
H2390 C2396 0.949 . S
C2391 H2386 0.950 . S
C2391 C2393 1.327 . S
C2391 C2397 1.429 . S
C2392 C2384 1.574 . S
C2392 H2387 0.949 . S
C2392 C2398 1.368 . S
C2393 C2377 1.349 . S
C2393 H2385 0.950 . S
C2393 C2391 1.327 . S
C2394 C2382 1.349 . S
C2394 H2388 0.950 . S
C2394 C2395 1.327 . S
C2395 H2389 0.950 . S
C2395 C2394 1.327 . S
C2395 C2399 1.429 . S
C2396 C2379 1.574 . S
C2396 H2390 0.949 . S
C2396 C2400 1.368 . S
C2397 C2378 1.429 . S
C2397 C2391 1.429 . S
C2397 C2398 1.523 . S
C2398 C2379 1.368 . S
C2398 C2392 1.368 . S
C2398 C2397 1.523 . S
C2399 C2383 1.429 . S
C2399 C2395 1.429 . S
C2399 C2400 1.523 . S
C2400 C2384 1.368 . S
C2400 C2396 1.368 . S
C2400 C2399 1.523 . S
H2401 C2376 0.950 . S
H2402 C2378 0.950 . S
H2403 C2379 0.949 . S
H2404 C2381 0.950 . S
H2405 C2383 0.950 . S
C2406 C2407 1.349 . S
C2406 C2408 1.327 . S
C2406 H2431 0.950 . S
C2407 C2406 1.349 . S
C2407 C2423 1.349 . S
C2408 C2406 1.327 . S
C2408 C2427 1.429 . S
C2408 H2432 0.950 . S
C2409 C2426 1.574 . S
C2409 C2428 1.368 1_545 S
C2409 H2433 0.949 . S
H2410 C2414 0.949 . S
C2411 C2412 1.349 . S
C2411 C2413 1.327 . S
C2411 H2434 0.950 . S
C2412 C2411 1.349 . S
C2412 C2424 1.349 . S
C2413 C2411 1.327 . S
C2413 C2429 1.429 . S
C2413 H2435 0.950 . S
C2414 H2410 0.949 . S
C2414 C2422 1.574 . S
C2414 C2430 1.368 1_565 S
H2415 C2423 0.950 . S
H2416 C2421 0.950 . S
H2417 C2422 0.949 . S
H2418 C2424 0.950 . S
H2419 C2425 0.950 . S
H2420 C2426 0.949 . S
C2421 H2416 0.950 . S
C2421 C2423 1.327 . S
C2421 C2427 1.429 . S
C2422 C2414 1.574 . S
C2422 H2417 0.949 . S
C2422 C2428 1.368 . S
C2423 C2407 1.349 . S
C2423 H2415 0.950 . S
C2423 C2421 1.327 . S
C2424 C2412 1.349 . S
C2424 H2418 0.950 . S
C2424 C2425 1.327 . S
C2425 H2419 0.950 . S
C2425 C2424 1.327 . S
C2425 C2429 1.429 . S
C2426 C2409 1.574 . S
C2426 H2420 0.949 . S
C2426 C2430 1.368 . S
C2427 C2408 1.429 . S
C2427 C2421 1.429 . S
C2427 C2428 1.523 . S
C2428 C2409 1.368 1_565 S
C2428 C2422 1.368 . S
C2428 C2427 1.523 . S
C2429 C2413 1.429 . S
C2429 C2425 1.429 . S
C2429 C2430 1.523 . S
C2430 C2414 1.368 1_545 S
C2430 C2426 1.368 . S
C2430 C2429 1.523 . S
H2431 C2406 0.950 . S
H2432 C2408 0.950 . S
H2433 C2409 0.949 . S
H2434 C2411 0.950 . S
H2435 C2413 0.950 . S
C2436 C2437 1.349 . S
C2436 C2438 1.327 . S
C2436 H2461 0.950 . S
C2437 C2436 1.349 . S
C2437 C2453 1.349 . S
C2438 C2436 1.327 . S
C2438 C2457 1.429 . S
C2438 H2462 0.950 . S
C2439 C2456 1.574 1_655 S
C2439 C2458 1.368 . S
C2439 H2463 0.949 . S
H2440 C2444 0.949 . S
C2441 C2442 1.349 . S
C2441 C2443 1.327 . S
C2441 H2464 0.950 . S
C2442 C2441 1.349 . S
C2442 C2454 1.349 . S
C2443 C2441 1.327 . S
C2443 C2459 1.429 . S
C2443 H2465 0.950 . S
C2444 H2440 0.949 . S
C2444 C2452 1.574 1_455 S
C2444 C2460 1.368 . S
H2445 C2453 0.950 . S
H2446 C2451 0.950 . S
H2447 C2452 0.949 . S
H2448 C2454 0.950 . S
H2449 C2455 0.950 . S
H2450 C2456 0.949 . S
C2451 H2446 0.950 . S
C2451 C2453 1.327 . S
C2451 C2457 1.429 . S
C2452 C2444 1.574 1_655 S
C2452 H2447 0.949 . S
C2452 C2458 1.368 . S
C2453 C2437 1.349 . S
C2453 H2445 0.950 . S
C2453 C2451 1.327 . S
C2454 C2442 1.349 . S
C2454 H2448 0.950 . S
C2454 C2455 1.327 . S
C2455 H2449 0.950 . S
C2455 C2454 1.327 . S
C2455 C2459 1.429 . S
C2456 C2439 1.574 1_455 S
C2456 H2450 0.949 . S
C2456 C2460 1.368 . S
C2457 C2438 1.429 . S
C2457 C2451 1.429 . S
C2457 C2458 1.523 . S
C2458 C2439 1.368 . S
C2458 C2452 1.368 . S
C2458 C2457 1.523 . S
C2459 C2443 1.429 . S
C2459 C2455 1.429 . S
C2459 C2460 1.523 . S
C2460 C2444 1.368 . S
C2460 C2456 1.368 . S
C2460 C2459 1.523 . S
H2461 C2436 0.950 . S
H2462 C2438 0.950 . S
H2463 C2439 0.949 . S
H2464 C2441 0.950 . S
H2465 C2443 0.950 . S
C2466 C2467 1.349 . S
C2466 C2468 1.327 . S
C2466 H2491 0.950 . S
C2467 C2466 1.349 . S
C2467 C2483 1.349 . S
C2468 C2466 1.327 . S
C2468 C2487 1.429 . S
C2468 H2492 0.950 . S
C2469 C2486 1.574 . S
C2469 C2488 1.368 . S
C2469 H2493 0.949 . S
H2470 C2474 0.949 . S
C2471 C2472 1.349 . S
C2471 C2473 1.327 . S
C2471 H2494 0.950 . S
C2472 C2471 1.349 . S
C2472 C2484 1.349 . S
C2473 C2471 1.327 . S
C2473 C2489 1.429 . S
C2473 H2495 0.950 . S
C2474 H2470 0.949 . S
C2474 C2482 1.574 . S
C2474 C2490 1.368 . S
H2475 C2483 0.950 . S
H2476 C2481 0.950 . S
H2477 C2482 0.949 . S
H2478 C2484 0.950 . S
H2479 C2485 0.950 . S
H2480 C2486 0.949 . S
C2481 H2476 0.950 . S
C2481 C2483 1.327 . S
C2481 C2487 1.429 . S
C2482 C2474 1.574 . S
C2482 H2477 0.949 . S
C2482 C2488 1.368 . S
C2483 C2467 1.349 . S
C2483 H2475 0.950 . S
C2483 C2481 1.327 . S
C2484 C2472 1.349 . S
C2484 H2478 0.950 . S
C2484 C2485 1.327 . S
C2485 H2479 0.950 . S
C2485 C2484 1.327 . S
C2485 C2489 1.429 . S
C2486 C2469 1.574 . S
C2486 H2480 0.949 . S
C2486 C2490 1.368 . S
C2487 C2468 1.429 . S
C2487 C2481 1.429 . S
C2487 C2488 1.523 . S
C2488 C2469 1.368 . S
C2488 C2482 1.368 . S
C2488 C2487 1.523 . S
C2489 C2473 1.429 . S
C2489 C2485 1.429 . S
C2489 C2490 1.523 . S
C2490 C2474 1.368 . S
C2490 C2486 1.368 . S
C2490 C2489 1.523 . S
H2491 C2466 0.950 . S
H2492 C2468 0.950 . S
H2493 C2469 0.949 . S
H2494 C2471 0.950 . S
H2495 C2473 0.950 . S
C2496 C2497 1.349 . S
C2496 C2498 1.327 . S
C2496 H2521 0.950 . S
C2497 C2496 1.349 . S
C2497 C2513 1.349 . S
C2498 C2496 1.327 . S
C2498 C2517 1.429 . S
C2498 H2522 0.950 . S
C2499 C2516 1.574 . S
C2499 C2518 1.368 . S
C2499 H2523 0.949 . S
H2500 C2504 0.949 . S
C2501 C2502 1.349 . S
C2501 C2503 1.327 . S
C2501 H2524 0.950 . S
C2502 C2501 1.349 . S
C2502 C2514 1.349 . S
C2503 C2501 1.327 . S
C2503 C2519 1.429 . S
C2503 H2525 0.950 . S
C2504 H2500 0.949 . S
C2504 C2512 1.574 . S
C2504 C2520 1.368 . S
H2505 C2513 0.950 . S
H2506 C2511 0.950 . S
H2507 C2512 0.949 . S
H2508 C2514 0.950 . S
H2509 C2515 0.950 . S
H2510 C2516 0.949 . S
C2511 H2506 0.950 . S
C2511 C2513 1.327 . S
C2511 C2517 1.429 . S
C2512 C2504 1.574 . S
C2512 H2507 0.949 . S
C2512 C2518 1.368 1_565 S
C2513 C2497 1.349 . S
C2513 H2505 0.950 . S
C2513 C2511 1.327 . S
C2514 C2502 1.349 . S
C2514 H2508 0.950 . S
C2514 C2515 1.327 . S
C2515 H2509 0.950 . S
C2515 C2514 1.327 . S
C2515 C2519 1.429 . S
C2516 C2499 1.574 . S
C2516 H2510 0.949 . S
C2516 C2520 1.368 1_545 S
C2517 C2498 1.429 . S
C2517 C2511 1.429 . S
C2517 C2518 1.523 . S
C2518 C2499 1.368 . S
C2518 C2512 1.368 1_545 S
C2518 C2517 1.523 . S
C2519 C2503 1.429 . S
C2519 C2515 1.429 . S
C2519 C2520 1.523 . S
C2520 C2504 1.368 . S
C2520 C2516 1.368 1_565 S
C2520 C2519 1.523 . S
H2521 C2496 0.950 . S
H2522 C2498 0.950 . S
H2523 C2499 0.949 . S
H2524 C2501 0.950 . S
H2525 C2503 0.950 . S
C2526 C2527 1.349 . S
C2526 C2528 1.327 . S
C2526 H2551 0.950 . S
C2527 C2526 1.349 . S
C2527 C2543 1.349 . S
C2528 C2526 1.327 . S
C2528 C2547 1.429 . S
C2528 H2552 0.950 . S
C2529 C2546 1.574 1_655 S
C2529 C2548 1.368 . S
C2529 H2553 0.949 . S
H2530 C2534 0.949 . S
C2531 C2532 1.349 . S
C2531 C2533 1.327 . S
C2531 H2554 0.950 . S
C2532 C2531 1.349 . S
C2532 C2544 1.349 . S
C2533 C2531 1.327 . S
C2533 C2549 1.429 . S
C2533 H2555 0.950 . S
C2534 H2530 0.949 . S
C2534 C2542 1.574 1_455 S
C2534 C2550 1.368 . S
H2535 C2543 0.950 . S
H2536 C2541 0.950 . S
H2537 C2542 0.949 . S
H2538 C2544 0.950 . S
H2539 C2545 0.950 . S
H2540 C2546 0.949 . S
C2541 H2536 0.950 . S
C2541 C2543 1.327 . S
C2541 C2547 1.429 . S
C2542 C2534 1.574 1_655 S
C2542 H2537 0.949 . S
C2542 C2548 1.368 . S
C2543 C2527 1.349 . S
C2543 H2535 0.950 . S
C2543 C2541 1.327 . S
C2544 C2532 1.349 . S
C2544 H2538 0.950 . S
C2544 C2545 1.327 . S
C2545 H2539 0.950 . S
C2545 C2544 1.327 . S
C2545 C2549 1.429 . S
C2546 C2529 1.574 1_455 S
C2546 H2540 0.949 . S
C2546 C2550 1.368 . S
C2547 C2528 1.429 . S
C2547 C2541 1.429 . S
C2547 C2548 1.523 . S
C2548 C2529 1.368 . S
C2548 C2542 1.368 . S
C2548 C2547 1.523 . S
C2549 C2533 1.429 . S
C2549 C2545 1.429 . S
C2549 C2550 1.523 . S
C2550 C2534 1.368 . S
C2550 C2546 1.368 . S
C2550 C2549 1.523 . S
H2551 C2526 0.950 . S
H2552 C2528 0.950 . S
H2553 C2529 0.949 . S
H2554 C2531 0.950 . S
H2555 C2533 0.950 . S
C2556 C2557 1.349 . S
C2556 C2558 1.327 . S
C2556 H2581 0.950 . S
C2557 C2556 1.349 . S
C2557 C2573 1.349 . S
C2558 C2556 1.327 . S
C2558 C2577 1.429 . S
C2558 H2582 0.950 . S
C2559 C2576 1.574 . S
C2559 C2578 1.368 . S
C2559 H2583 0.949 . S
H2560 C2564 0.949 . S
C2561 C2562 1.349 . S
C2561 C2563 1.327 . S
C2561 H2584 0.950 . S
C2562 C2561 1.349 . S
C2562 C2574 1.349 . S
C2563 C2561 1.327 . S
C2563 C2579 1.429 . S
C2563 H2585 0.950 . S
C2564 H2560 0.949 . S
C2564 C2572 1.574 . S
C2564 C2580 1.368 . S
H2565 C2573 0.950 . S
H2566 C2571 0.950 . S
H2567 C2572 0.949 . S
H2568 C2574 0.950 . S
H2569 C2575 0.950 . S
H2570 C2576 0.949 . S
C2571 H2566 0.950 . S
C2571 C2573 1.327 . S
C2571 C2577 1.429 . S
C2572 C2564 1.574 . S
C2572 H2567 0.949 . S
C2572 C2578 1.368 . S
C2573 C2557 1.349 . S
C2573 H2565 0.950 . S
C2573 C2571 1.327 . S
C2574 C2562 1.349 . S
C2574 H2568 0.950 . S
C2574 C2575 1.327 . S
C2575 H2569 0.950 . S
C2575 C2574 1.327 . S
C2575 C2579 1.429 . S
C2576 C2559 1.574 . S
C2576 H2570 0.949 . S
C2576 C2580 1.368 . S
C2577 C2558 1.429 . S
C2577 C2571 1.429 . S
C2577 C2578 1.523 . S
C2578 C2559 1.368 . S
C2578 C2572 1.368 . S
C2578 C2577 1.523 . S
C2579 C2563 1.429 . S
C2579 C2575 1.429 . S
C2579 C2580 1.523 . S
C2580 C2564 1.368 . S
C2580 C2576 1.368 . S
C2580 C2579 1.523 . S
H2581 C2556 0.950 . S
H2582 C2558 0.950 . S
H2583 C2559 0.949 . S
H2584 C2561 0.950 . S
H2585 C2563 0.950 . S
C2586 C2587 1.349 . S
C2586 C2588 1.327 . S
C2586 H2611 0.950 . S
C2587 C2586 1.349 . S
C2587 C2603 1.349 . S
C2588 C2586 1.327 . S
C2588 C2607 1.429 . S
C2588 H2612 0.950 . S
C2589 C2606 1.574 . S
C2589 C2608 1.368 . S
C2589 H2613 0.949 . S
H2590 C2594 0.949 . S
C2591 C2592 1.349 . S
C2591 C2593 1.327 . S
C2591 H2614 0.950 . S
C2592 C2591 1.349 . S
C2592 C2604 1.349 . S
C2593 C2591 1.327 . S
C2593 C2609 1.429 . S
C2593 H2615 0.950 . S
C2594 H2590 0.949 . S
C2594 C2602 1.574 . S
C2594 C2610 1.368 . S
H2595 C2603 0.950 . S
H2596 C2601 0.950 . S
H2597 C2602 0.949 . S
H2598 C2604 0.950 . S
H2599 C2605 0.950 . S
H2600 C2606 0.949 . S
C2601 H2596 0.950 . S
C2601 C2603 1.327 . S
C2601 C2607 1.429 . S
C2602 C2594 1.574 . S
C2602 H2597 0.949 . S
C2602 C2608 1.368 . S
C2603 C2587 1.349 . S
C2603 H2595 0.950 . S
C2603 C2601 1.327 . S
C2604 C2592 1.349 . S
C2604 H2598 0.950 . S
C2604 C2605 1.327 . S
C2605 H2599 0.950 . S
C2605 C2604 1.327 . S
C2605 C2609 1.429 . S
C2606 C2589 1.574 . S
C2606 H2600 0.949 . S
C2606 C2610 1.368 . S
C2607 C2588 1.429 . S
C2607 C2601 1.429 . S
C2607 C2608 1.523 . S
C2608 C2589 1.368 . S
C2608 C2602 1.368 . S
C2608 C2607 1.523 . S
C2609 C2593 1.429 . S
C2609 C2605 1.429 . S
C2609 C2610 1.523 . S
C2610 C2594 1.368 . S
C2610 C2606 1.368 . S
C2610 C2609 1.523 . S
H2611 C2586 0.950 . S
H2612 C2588 0.950 . S
H2613 C2589 0.949 . S
H2614 C2591 0.950 . S
H2615 C2593 0.950 . S
C2616 C2617 1.349 . S
C2616 C2618 1.327 . S
C2616 H2641 0.950 . S
C2617 C2616 1.349 . S
C2617 C2633 1.349 . S
C2618 C2616 1.327 . S
C2618 C2637 1.429 . S
C2618 H2642 0.950 . S
C2619 C2636 1.574 . S
C2619 C2638 1.368 . S
C2619 H2643 0.949 . S
H2620 C2624 0.949 . S
C2621 C2622 1.349 . S
C2621 C2623 1.327 . S
C2621 H2644 0.950 . S
C2622 C2621 1.349 . S
C2622 C2634 1.349 . S
C2623 C2621 1.327 . S
C2623 C2639 1.429 . S
C2623 H2645 0.950 . S
C2624 H2620 0.949 . S
C2624 C2632 1.574 . S
C2624 C2640 1.368 . S
H2625 C2633 0.950 . S
H2626 C2631 0.950 . S
H2627 C2632 0.949 . S
H2628 C2634 0.950 . S
H2629 C2635 0.950 . S
H2630 C2636 0.949 . S
C2631 H2626 0.950 . S
C2631 C2633 1.327 . S
C2631 C2637 1.429 . S
C2632 C2624 1.574 . S
C2632 H2627 0.949 . S
C2632 C2638 1.368 . S
C2633 C2617 1.349 . S
C2633 H2625 0.950 . S
C2633 C2631 1.327 . S
C2634 C2622 1.349 . S
C2634 H2628 0.950 . S
C2634 C2635 1.327 . S
C2635 H2629 0.950 . S
C2635 C2634 1.327 . S
C2635 C2639 1.429 . S
C2636 C2619 1.574 . S
C2636 H2630 0.949 . S
C2636 C2640 1.368 . S
C2637 C2618 1.429 . S
C2637 C2631 1.429 . S
C2637 C2638 1.523 . S
C2638 C2619 1.368 . S
C2638 C2632 1.368 . S
C2638 C2637 1.523 . S
C2639 C2623 1.429 . S
C2639 C2635 1.429 . S
C2639 C2640 1.523 . S
C2640 C2624 1.368 . S
C2640 C2636 1.368 . S
C2640 C2639 1.523 . S
H2641 C2616 0.950 . S
H2642 C2618 0.950 . S
H2643 C2619 0.949 . S
H2644 C2621 0.950 . S
H2645 C2623 0.950 . S
C2646 C2647 1.349 . S
C2646 C2648 1.327 1_556 S
C2646 H2671 0.950 . S
C2647 C2646 1.349 . S
C2647 C2663 1.349 1_556 S
C2648 C2646 1.327 1_554 S
C2648 C2667 1.429 . S
C2648 H2672 0.950 . S
C2649 C2666 1.574 . S
C2649 C2668 1.368 . S
C2649 H2673 0.949 . S
H2650 C2654 0.949 . S
C2651 C2652 1.349 . S
C2651 C2653 1.327 . S
C2651 H2674 0.950 . S
C2652 C2651 1.349 . S
C2652 C2664 1.349 . S
C2653 C2651 1.327 . S
C2653 C2669 1.429 . S
C2653 H2675 0.950 . S
C2654 H2650 0.949 . S
C2654 C2662 1.574 . S
C2654 C2670 1.368 . S
H2655 C2663 0.950 . S
H2656 C2661 0.950 . S
H2657 C2662 0.949 . S
H2658 C2664 0.950 . S
H2659 C2665 0.950 . S
H2660 C2666 0.949 . S
C2661 H2656 0.950 . S
C2661 C2663 1.327 . S
C2661 C2667 1.429 . S
C2662 C2654 1.574 . S
C2662 H2657 0.949 . S
C2662 C2668 1.368 . S
C2663 C2647 1.349 1_554 S
C2663 H2655 0.950 . S
C2663 C2661 1.327 . S
C2664 C2652 1.349 . S
C2664 H2658 0.950 . S
C2664 C2665 1.327 . S
C2665 H2659 0.950 . S
C2665 C2664 1.327 . S
C2665 C2669 1.429 . S
C2666 C2649 1.574 . S
C2666 H2660 0.949 . S
C2666 C2670 1.368 . S
C2667 C2648 1.429 . S
C2667 C2661 1.429 . S
C2667 C2668 1.523 . S
C2668 C2649 1.368 . S
C2668 C2662 1.368 . S
C2668 C2667 1.523 . S
C2669 C2653 1.429 . S
C2669 C2665 1.429 . S
C2669 C2670 1.523 . S
C2670 C2654 1.368 . S
C2670 C2666 1.368 . S
C2670 C2669 1.523 . S
H2671 C2646 0.950 . S
H2672 C2648 0.950 . S
H2673 C2649 0.949 . S
H2674 C2651 0.950 . S
H2675 C2653 0.950 . S
C2676 C2677 1.349 . S
C2676 C2678 1.327 1_556 S
C2676 H2701 0.950 . S
C2677 C2676 1.349 . S
C2677 C2693 1.349 1_556 S
C2678 C2676 1.327 1_554 S
C2678 C2697 1.429 . S
C2678 H2702 0.950 . S
C2679 C2696 1.574 . S
C2679 C2698 1.368 . S
C2679 H2703 0.949 . S
H2680 C2684 0.949 . S
C2681 C2682 1.349 . S
C2681 C2683 1.327 . S
C2681 H2704 0.950 . S
C2682 C2681 1.349 . S
C2682 C2694 1.349 . S
C2683 C2681 1.327 . S
C2683 C2699 1.429 . S
C2683 H2705 0.950 . S
C2684 H2680 0.949 . S
C2684 C2692 1.574 . S
C2684 C2700 1.368 . S
H2685 C2693 0.950 . S
H2686 C2691 0.950 . S
H2687 C2692 0.949 . S
H2688 C2694 0.950 . S
H2689 C2695 0.950 . S
H2690 C2696 0.949 . S
C2691 H2686 0.950 . S
C2691 C2693 1.327 . S
C2691 C2697 1.429 . S
C2692 C2684 1.574 . S
C2692 H2687 0.949 . S
C2692 C2698 1.368 . S
C2693 C2677 1.349 1_554 S
C2693 H2685 0.950 . S
C2693 C2691 1.327 . S
C2694 C2682 1.349 . S
C2694 H2688 0.950 . S
C2694 C2695 1.327 . S
C2695 H2689 0.950 . S
C2695 C2694 1.327 . S
C2695 C2699 1.429 . S
C2696 C2679 1.574 . S
C2696 H2690 0.949 . S
C2696 C2700 1.368 . S
C2697 C2678 1.429 . S
C2697 C2691 1.429 . S
C2697 C2698 1.523 . S
C2698 C2679 1.368 . S
C2698 C2692 1.368 . S
C2698 C2697 1.523 . S
C2699 C2683 1.429 . S
C2699 C2695 1.429 . S
C2699 C2700 1.523 . S
C2700 C2684 1.368 . S
C2700 C2696 1.368 . S
C2700 C2699 1.523 . S
H2701 C2676 0.950 . S
H2702 C2678 0.950 . S
H2703 C2679 0.949 . S
H2704 C2681 0.950 . S
H2705 C2683 0.950 . S
C2706 C2707 1.349 1_554 S
C2706 C2708 1.327 . S
C2706 H2731 0.946 1_554 S
C2707 C2706 1.349 1_556 S
C2707 C2723 1.349 1_556 S
C2708 C2706 1.327 . S
C2708 C2727 1.429 . S
C2708 H2732 0.950 . S
C2709 C2726 1.574 . S
C2709 C2728 1.368 . S
C2709 H2733 0.949 . S
H2710 C2714 0.949 . S
C2711 C2712 1.349 . S
C2711 C2713 1.327 . S
C2711 H2734 0.950 . S
C2712 C2711 1.349 . S
C2712 C2724 1.349 . S
C2713 C2711 1.327 . S
C2713 C2729 1.429 . S
C2713 H2735 0.950 . S
C2714 H2710 0.949 . S
C2714 C2722 1.574 . S
C2714 C2730 1.368 . S
H2715 C2723 0.950 . S
H2716 C2721 0.950 . S
H2717 C2722 0.949 . S
H2718 C2724 0.950 . S
H2719 C2725 0.950 . S
H2720 C2726 0.949 . S
C2721 H2716 0.950 . S
C2721 C2723 1.327 . S
C2721 C2727 1.429 . S
C2722 C2714 1.574 . S
C2722 H2717 0.949 . S
C2722 C2728 1.368 . S
C2723 C2707 1.349 1_554 S
C2723 H2715 0.950 . S
C2723 C2721 1.327 . S
C2724 C2712 1.349 . S
C2724 H2718 0.950 . S
C2724 C2725 1.327 . S
C2725 H2719 0.950 . S
C2725 C2724 1.327 . S
C2725 C2729 1.429 . S
C2726 C2709 1.574 . S
C2726 H2720 0.949 . S
C2726 C2730 1.368 . S
C2727 C2708 1.429 . S
C2727 C2721 1.429 . S
C2727 C2728 1.523 . S
C2728 C2709 1.368 . S
C2728 C2722 1.368 . S
C2728 C2727 1.523 . S
C2729 C2713 1.429 . S
C2729 C2725 1.429 . S
C2729 C2730 1.523 . S
C2730 C2714 1.368 . S
C2730 C2726 1.368 . S
C2730 C2729 1.523 . S
H2731 C2706 0.946 1_556 S
H2732 C2708 0.950 . S
H2733 C2709 0.949 . S
H2734 C2711 0.950 . S
H2735 C2713 0.950 . S
C2736 C2737 1.349 1_556 S
C2736 C2738 1.327 . S
C2736 H2761 0.950 1_556 S
C2737 C2736 1.349 1_554 S
C2737 C2753 1.349 1_554 S
C2738 C2736 1.327 . S
C2738 C2757 1.429 . S
C2738 H2762 0.950 . S
C2739 C2756 1.574 . S
C2739 C2758 1.368 . S
C2739 H2763 0.949 . S
H2740 C2744 0.949 . S
C2741 C2742 1.349 . S
C2741 C2743 1.327 . S
C2741 H2764 0.950 . S
C2742 C2741 1.349 . S
C2742 C2754 1.349 . S
C2743 C2741 1.327 . S
C2743 C2759 1.429 . S
C2743 H2765 0.950 . S
C2744 H2740 0.949 . S
C2744 C2752 1.574 . S
C2744 C2760 1.368 . S
H2745 C2753 0.950 . S
H2746 C2751 0.950 . S
H2747 C2752 0.949 . S
H2748 C2754 0.950 . S
H2749 C2755 0.950 . S
H2750 C2756 0.949 . S
C2751 H2746 0.950 . S
C2751 C2753 1.327 . S
C2751 C2757 1.429 . S
C2752 C2744 1.574 . S
C2752 H2747 0.949 . S
C2752 C2758 1.368 . S
C2753 C2737 1.349 1_556 S
C2753 H2745 0.950 . S
C2753 C2751 1.327 . S
C2754 C2742 1.349 . S
C2754 H2748 0.950 . S
C2754 C2755 1.327 . S
C2755 H2749 0.950 . S
C2755 C2754 1.327 . S
C2755 C2759 1.429 . S
C2756 C2739 1.574 . S
C2756 H2750 0.949 . S
C2756 C2760 1.368 . S
C2757 C2738 1.429 . S
C2757 C2751 1.429 . S
C2757 C2758 1.523 . S
C2758 C2739 1.368 . S
C2758 C2752 1.368 . S
C2758 C2757 1.523 . S
C2759 C2743 1.429 . S
C2759 C2755 1.429 . S
C2759 C2760 1.523 . S
C2760 C2744 1.368 . S
C2760 C2756 1.368 . S
C2760 C2759 1.523 . S
H2761 C2736 0.950 1_554 S
H2762 C2738 0.950 . S
H2763 C2739 0.949 . S
H2764 C2741 0.950 . S
H2765 C2743 0.950 . S
C2766 C2767 1.349 . S
C2766 C2768 1.327 . S
C2766 H2791 0.950 . S
C2767 C2766 1.349 . S
C2767 C2783 1.349 . S
C2768 C2766 1.327 . S
C2768 C2787 1.429 . S
C2768 H2792 0.950 . S
C2769 C2786 1.574 . S
C2769 C2788 1.368 . S
C2769 H2793 0.949 . S
H2770 C2774 0.949 . S
C2771 C2772 1.349 1_556 S
C2771 C2773 1.327 . S
C2771 H2794 0.950 . S
C2772 C2771 1.349 1_554 S
C2772 C2784 1.349 . S
C2773 C2771 1.327 . S
C2773 C2789 1.429 . S
C2773 H2795 0.950 . S
C2774 H2770 0.949 . S
C2774 C2782 1.574 . S
C2774 C2790 1.368 . S
H2775 C2783 0.950 . S
H2776 C2781 0.950 . S
H2777 C2782 0.949 . S
H2778 C2784 0.950 . S
H2779 C2785 0.950 . S
H2780 C2786 0.949 . S
C2781 H2776 0.950 . S
C2781 C2783 1.327 . S
C2781 C2787 1.429 . S
C2782 C2774 1.574 . S
C2782 H2777 0.949 . S
C2782 C2788 1.368 . S
C2783 C2767 1.349 . S
C2783 H2775 0.950 . S
C2783 C2781 1.327 . S
C2784 C2772 1.349 . S
C2784 H2778 0.950 . S
C2784 C2785 1.327 1_554 S
C2785 H2779 0.950 . S
C2785 C2784 1.327 1_556 S
C2785 C2789 1.429 . S
C2786 C2769 1.574 . S
C2786 H2780 0.949 . S
C2786 C2790 1.368 . S
C2787 C2768 1.429 . S
C2787 C2781 1.429 . S
C2787 C2788 1.523 . S
C2788 C2769 1.368 . S
C2788 C2782 1.368 . S
C2788 C2787 1.523 . S
C2789 C2773 1.429 . S
C2789 C2785 1.429 . S
C2789 C2790 1.523 . S
C2790 C2774 1.368 . S
C2790 C2786 1.368 . S
C2790 C2789 1.523 . S
H2791 C2766 0.950 . S
H2792 C2768 0.950 . S
H2793 C2769 0.949 . S
H2794 C2771 0.950 . S
H2795 C2773 0.950 . S
C2796 C2797 1.349 1_556 S
C2796 C2798 1.327 . S
C2796 H2821 0.950 . S
C2797 C2796 1.349 1_554 S
C2797 C2813 1.349 . S
C2798 C2796 1.327 . S
C2798 C2817 1.429 . S
C2798 H2822 0.950 . S
C2799 C2816 1.574 . S
C2799 C2818 1.368 . S
C2799 H2823 0.949 . S
H2800 C2804 0.949 . S
C2801 C2802 1.349 . S
C2801 C2803 1.327 . S
C2801 H2824 0.950 . S
C2802 C2801 1.349 . S
C2802 C2814 1.349 . S
C2803 C2801 1.327 . S
C2803 C2819 1.429 . S
C2803 H2825 0.950 . S
C2804 H2800 0.949 . S
C2804 C2812 1.574 . S
C2804 C2820 1.368 . S
H2805 C2813 0.950 . S
H2806 C2811 0.950 . S
H2807 C2812 0.949 . S
H2808 C2814 0.950 . S
H2809 C2815 0.950 . S
H2810 C2816 0.949 . S
C2811 H2806 0.950 . S
C2811 C2813 1.327 1_556 S
C2811 C2817 1.429 . S
C2812 C2804 1.574 . S
C2812 H2807 0.949 . S
C2812 C2818 1.368 . S
C2813 C2797 1.349 . S
C2813 H2805 0.950 . S
C2813 C2811 1.327 1_554 S
C2814 C2802 1.349 . S
C2814 H2808 0.950 . S
C2814 C2815 1.327 . S
C2815 H2809 0.950 . S
C2815 C2814 1.327 . S
C2815 C2819 1.429 . S
C2816 C2799 1.574 . S
C2816 H2810 0.949 . S
C2816 C2820 1.368 . S
C2817 C2798 1.429 . S
C2817 C2811 1.429 . S
C2817 C2818 1.523 . S
C2818 C2799 1.368 . S
C2818 C2812 1.368 . S
C2818 C2817 1.523 . S
C2819 C2803 1.429 . S
C2819 C2815 1.429 . S
C2819 C2820 1.523 . S
C2820 C2804 1.368 . S
C2820 C2816 1.368 . S
C2820 C2819 1.523 . S
H2821 C2796 0.950 . S
H2822 C2798 0.950 . S
H2823 C2799 0.949 . S
H2824 C2801 0.950 . S
H2825 C2803 0.950 . S
C2826 C2827 1.349 . S
C2826 C2828 1.327 . S
C2826 H2851 0.950 . S
C2827 C2826 1.349 . S
C2827 C2843 1.349 . S
C2828 C2826 1.327 . S
C2828 C2847 1.429 . S
C2828 H2852 0.950 . S
C2829 C2846 1.574 . S
C2829 C2848 1.368 . S
C2829 H2853 0.949 . S
H2830 C2834 0.949 . S
C2831 C2832 1.349 . S
C2831 C2833 1.327 . S
C2831 H2854 0.950 . S
C2832 C2831 1.349 . S
C2832 C2844 1.349 . S
C2833 C2831 1.327 . S
C2833 C2849 1.429 . S
C2833 H2855 0.950 . S
C2834 H2830 0.949 . S
C2834 C2842 1.574 . S
C2834 C2850 1.368 . S
H2835 C2843 0.950 . S
H2836 C2841 0.950 . S
H2837 C2842 0.949 . S
H2838 C2844 0.950 . S
H2839 C2845 0.950 . S
H2840 C2846 0.949 . S
C2841 H2836 0.950 . S
C2841 C2843 1.327 . S
C2841 C2847 1.429 . S
C2842 C2834 1.574 . S
C2842 H2837 0.949 . S
C2842 C2848 1.368 . S
C2843 C2827 1.349 . S
C2843 H2835 0.950 . S
C2843 C2841 1.327 . S
C2844 C2832 1.349 . S
C2844 H2838 0.950 . S
C2844 C2845 1.327 . S
C2845 H2839 0.950 . S
C2845 C2844 1.327 . S
C2845 C2849 1.429 . S
C2846 C2829 1.574 . S
C2846 H2840 0.949 . S
C2846 C2850 1.368 . S
C2847 C2828 1.429 . S
C2847 C2841 1.429 . S
C2847 C2848 1.523 . S
C2848 C2829 1.368 . S
C2848 C2842 1.368 . S
C2848 C2847 1.523 . S
C2849 C2833 1.429 . S
C2849 C2845 1.429 . S
C2849 C2850 1.523 . S
C2850 C2834 1.368 . S
C2850 C2846 1.368 . S
C2850 C2849 1.523 . S
H2851 C2826 0.950 . S
H2852 C2828 0.950 . S
H2853 C2829 0.949 . S
H2854 C2831 0.950 . S
H2855 C2833 0.950 . S
C2856 C2857 1.349 . S
C2856 C2858 1.327 . S
C2856 H2881 0.950 . S
C2857 C2856 1.349 . S
C2857 C2873 1.349 . S
C2858 C2856 1.327 . S
C2858 C2877 1.429 . S
C2858 H2882 0.950 . S
C2859 C2876 1.574 . S
C2859 C2878 1.368 . S
C2859 H2883 0.949 . S
H2860 C2864 0.949 . S
C2861 C2862 1.349 . S
C2861 C2863 1.327 . S
C2861 H2884 0.950 . S
C2862 C2861 1.349 . S
C2862 C2874 1.349 . S
C2863 C2861 1.327 . S
C2863 C2879 1.429 . S
C2863 H2885 0.950 . S
C2864 H2860 0.949 . S
C2864 C2872 1.574 . S
C2864 C2880 1.368 . S
H2865 C2873 0.950 . S
H2866 C2871 0.950 . S
H2867 C2872 0.949 . S
H2868 C2874 0.950 . S
H2869 C2875 0.950 . S
H2870 C2876 0.949 . S
C2871 H2866 0.950 . S
C2871 C2873 1.327 . S
C2871 C2877 1.429 . S
C2872 C2864 1.574 . S
C2872 H2867 0.949 . S
C2872 C2878 1.368 . S
C2873 C2857 1.349 . S
C2873 H2865 0.950 . S
C2873 C2871 1.327 . S
C2874 C2862 1.349 . S
C2874 H2868 0.950 . S
C2874 C2875 1.327 . S
C2875 H2869 0.950 . S
C2875 C2874 1.327 . S
C2875 C2879 1.429 . S
C2876 C2859 1.574 . S
C2876 H2870 0.949 . S
C2876 C2880 1.368 . S
C2877 C2858 1.429 . S
C2877 C2871 1.429 . S
C2877 C2878 1.523 . S
C2878 C2859 1.368 . S
C2878 C2872 1.368 . S
C2878 C2877 1.523 . S
C2879 C2863 1.429 . S
C2879 C2875 1.429 . S
C2879 C2880 1.523 . S
C2880 C2864 1.368 . S
C2880 C2876 1.368 . S
C2880 C2879 1.523 . S
H2881 C2856 0.950 . S
H2882 C2858 0.950 . S
H2883 C2859 0.949 . S
H2884 C2861 0.950 . S
H2885 C2863 0.950 . S
C2886 C2887 1.349 . S
C2886 C2888 1.327 . S
C2886 H2911 0.950 . S
C2887 C2886 1.349 . S
C2887 C2903 1.349 . S
C2888 C2886 1.327 . S
C2888 C2907 1.429 . S
C2888 H2912 0.950 . S
C2889 C2906 1.574 . S
C2889 C2908 1.368 . S
C2889 H2913 0.949 . S
H2890 C2894 0.949 . S
C2891 C2892 1.349 . S
C2891 C2893 1.327 . S
C2891 H2914 0.950 . S
C2892 C2891 1.349 . S
C2892 C2904 1.349 . S
C2893 C2891 1.327 . S
C2893 C2909 1.429 . S
C2893 H2915 0.950 . S
C2894 H2890 0.949 . S
C2894 C2902 1.574 . S
C2894 C2910 1.368 . S
H2895 C2903 0.950 . S
H2896 C2901 0.950 . S
H2897 C2902 0.949 . S
H2898 C2904 0.950 . S
H2899 C2905 0.950 . S
H2900 C2906 0.949 . S
C2901 H2896 0.950 . S
C2901 C2903 1.327 . S
C2901 C2907 1.429 . S
C2902 C2894 1.574 . S
C2902 H2897 0.949 . S
C2902 C2908 1.368 . S
C2903 C2887 1.349 . S
C2903 H2895 0.950 . S
C2903 C2901 1.327 . S
C2904 C2892 1.349 . S
C2904 H2898 0.950 . S
C2904 C2905 1.327 . S
C2905 H2899 0.950 . S
C2905 C2904 1.327 . S
C2905 C2909 1.429 . S
C2906 C2889 1.574 . S
C2906 H2900 0.949 . S
C2906 C2910 1.368 . S
C2907 C2888 1.429 . S
C2907 C2901 1.429 . S
C2907 C2908 1.523 . S
C2908 C2889 1.368 . S
C2908 C2902 1.368 . S
C2908 C2907 1.523 . S
C2909 C2893 1.429 . S
C2909 C2905 1.429 . S
C2909 C2910 1.523 . S
C2910 C2894 1.368 . S
C2910 C2906 1.368 . S
C2910 C2909 1.523 . S
H2911 C2886 0.950 . S
H2912 C2888 0.950 . S
H2913 C2889 0.949 . S
H2914 C2891 0.950 . S
H2915 C2893 0.950 . S
C2916 C2917 1.349 . S
C2916 C2918 1.327 . S
C2916 H2941 0.950 . S
C2917 C2916 1.349 . S
C2917 C2933 1.349 . S
C2918 C2916 1.327 . S
C2918 C2937 1.429 . S
C2918 H2942 0.950 . S
C2919 C2936 1.574 . S
C2919 C2938 1.368 . S
C2919 H2943 0.949 . S
H2920 C2924 0.949 . S
C2921 C2922 1.349 . S
C2921 C2923 1.327 . S
C2921 H2944 0.950 . S
C2922 C2921 1.349 . S
C2922 C2934 1.349 . S
C2923 C2921 1.327 . S
C2923 C2939 1.429 . S
C2923 H2945 0.950 . S
C2924 H2920 0.949 . S
C2924 C2932 1.574 . S
C2924 C2940 1.368 . S
H2925 C2933 0.950 . S
H2926 C2931 0.950 . S
H2927 C2932 0.949 . S
H2928 C2934 0.950 . S
H2929 C2935 0.950 . S
H2930 C2936 0.949 . S
C2931 H2926 0.950 . S
C2931 C2933 1.327 . S
C2931 C2937 1.429 . S
C2932 C2924 1.574 . S
C2932 H2927 0.949 . S
C2932 C2938 1.368 . S
C2933 C2917 1.349 . S
C2933 H2925 0.950 . S
C2933 C2931 1.327 . S
C2934 C2922 1.349 . S
C2934 H2928 0.950 . S
C2934 C2935 1.327 . S
C2935 H2929 0.950 . S
C2935 C2934 1.327 . S
C2935 C2939 1.429 . S
C2936 C2919 1.574 . S
C2936 H2930 0.949 . S
C2936 C2940 1.368 . S
C2937 C2918 1.429 . S
C2937 C2931 1.429 . S
C2937 C2938 1.523 . S
C2938 C2919 1.368 . S
C2938 C2932 1.368 . S
C2938 C2937 1.523 . S
C2939 C2923 1.429 . S
C2939 C2935 1.429 . S
C2939 C2940 1.523 . S
C2940 C2924 1.368 . S
C2940 C2936 1.368 . S
C2940 C2939 1.523 . S
H2941 C2916 0.950 . S
H2942 C2918 0.950 . S
H2943 C2919 0.949 . S
H2944 C2921 0.950 . S
H2945 C2923 0.950 . S
C2946 C2947 1.349 . S
C2946 C2948 1.327 . S
C2946 H2971 0.950 . S
C2947 C2946 1.349 . S
C2947 C2963 1.349 . S
C2948 C2946 1.327 . S
C2948 C2967 1.429 . S
C2948 H2972 0.950 . S
C2949 C2966 1.574 . S
C2949 C2968 1.368 . S
C2949 H2973 0.949 . S
H2950 C2954 0.949 . S
C2951 C2952 1.349 . S
C2951 C2953 1.327 . S
C2951 H2974 0.950 . S
C2952 C2951 1.349 . S
C2952 C2964 1.349 . S
C2953 C2951 1.327 . S
C2953 C2969 1.429 . S
C2953 H2975 0.950 . S
C2954 H2950 0.949 . S
C2954 C2962 1.574 . S
C2954 C2970 1.368 . S
H2955 C2963 0.950 . S
H2956 C2961 0.950 . S
H2957 C2962 0.949 . S
H2958 C2964 0.950 . S
H2959 C2965 0.950 . S
H2960 C2966 0.949 . S
C2961 H2956 0.950 . S
C2961 C2963 1.327 . S
C2961 C2967 1.429 . S
C2962 C2954 1.574 . S
C2962 H2957 0.949 . S
C2962 C2968 1.368 . S
C2963 C2947 1.349 . S
C2963 H2955 0.950 . S
C2963 C2961 1.327 . S
C2964 C2952 1.349 . S
C2964 H2958 0.950 . S
C2964 C2965 1.327 . S
C2965 H2959 0.950 . S
C2965 C2964 1.327 . S
C2965 C2969 1.429 . S
C2966 C2949 1.574 . S
C2966 H2960 0.949 . S
C2966 C2970 1.368 . S
C2967 C2948 1.429 . S
C2967 C2961 1.429 . S
C2967 C2968 1.523 . S
C2968 C2949 1.368 . S
C2968 C2962 1.368 . S
C2968 C2967 1.523 . S
C2969 C2953 1.429 . S
C2969 C2965 1.429 . S
C2969 C2970 1.523 . S
C2970 C2954 1.368 . S
C2970 C2966 1.368 . S
C2970 C2969 1.523 . S
H2971 C2946 0.950 . S
H2972 C2948 0.950 . S
H2973 C2949 0.949 . S
H2974 C2951 0.950 . S
H2975 C2953 0.950 . S
C2976 C2977 1.349 . S
C2976 C2978 1.327 . S
C2976 H3001 0.950 . S
C2977 C2976 1.349 . S
C2977 C2993 1.349 . S
C2978 C2976 1.327 . S
C2978 C2997 1.429 . S
C2978 H3002 0.950 . S
C2979 C2996 1.574 . S
C2979 C2998 1.368 . S
C2979 H3003 0.949 . S
H2980 C2984 0.949 . S
C2981 C2982 1.349 . S
C2981 C2983 1.327 . S
C2981 H3004 0.950 . S
C2982 C2981 1.349 . S
C2982 C2994 1.349 . S
C2983 C2981 1.327 . S
C2983 C2999 1.429 . S
C2983 H3005 0.950 . S
C2984 H2980 0.949 . S
C2984 C2992 1.574 . S
C2984 C3000 1.368 . S
H2985 C2993 0.950 . S
H2986 C2991 0.950 . S
H2987 C2992 0.949 . S
H2988 C2994 0.950 . S
H2989 C2995 0.950 . S
H2990 C2996 0.949 . S
C2991 H2986 0.950 . S
C2991 C2993 1.327 . S
C2991 C2997 1.429 . S
C2992 C2984 1.574 . S
C2992 H2987 0.949 . S
C2992 C2998 1.368 . S
C2993 C2977 1.349 . S
C2993 H2985 0.950 . S
C2993 C2991 1.327 . S
C2994 C2982 1.349 . S
C2994 H2988 0.950 . S
C2994 C2995 1.327 . S
C2995 H2989 0.950 . S
C2995 C2994 1.327 . S
C2995 C2999 1.429 . S
C2996 C2979 1.574 . S
C2996 H2990 0.949 . S
C2996 C3000 1.368 . S
C2997 C2978 1.429 . S
C2997 C2991 1.429 . S
C2997 C2998 1.523 . S
C2998 C2979 1.368 . S
C2998 C2992 1.368 . S
C2998 C2997 1.523 . S
C2999 C2983 1.429 . S
C2999 C2995 1.429 . S
C2999 C3000 1.523 . S
C3000 C2984 1.368 . S
C3000 C2996 1.368 . S
C3000 C2999 1.523 . S
H3001 C2976 0.950 . S
H3002 C2978 0.950 . S
H3003 C2979 0.949 . S
H3004 C2981 0.950 . S
H3005 C2983 0.950 . S
C3006 C3007 1.349 . S
C3006 C3008 1.327 . S
C3006 H3031 0.950 . S
C3007 C3006 1.349 . S
C3007 C3023 1.349 . S
C3008 C3006 1.327 . S
C3008 C3027 1.429 . S
C3008 H3032 0.950 . S
C3009 C3026 1.574 . S
C3009 C3028 1.368 . S
C3009 H3033 0.949 . S
H3010 C3014 0.949 . S
C3011 C3012 1.349 . S
C3011 C3013 1.327 . S
C3011 H3034 0.950 . S
C3012 C3011 1.349 . S
C3012 C3024 1.349 . S
C3013 C3011 1.327 . S
C3013 C3029 1.429 . S
C3013 H3035 0.950 . S
C3014 H3010 0.949 . S
C3014 C3022 1.574 . S
C3014 C3030 1.368 . S
H3015 C3023 0.950 . S
H3016 C3021 0.950 . S
H3017 C3022 0.949 . S
H3018 C3024 0.950 . S
H3019 C3025 0.950 . S
H3020 C3026 0.949 . S
C3021 H3016 0.950 . S
C3021 C3023 1.327 . S
C3021 C3027 1.429 . S
C3022 C3014 1.574 . S
C3022 H3017 0.949 . S
C3022 C3028 1.368 . S
C3023 C3007 1.349 . S
C3023 H3015 0.950 . S
C3023 C3021 1.327 . S
C3024 C3012 1.349 . S
C3024 H3018 0.950 . S
C3024 C3025 1.327 . S
C3025 H3019 0.950 . S
C3025 C3024 1.327 . S
C3025 C3029 1.429 . S
C3026 C3009 1.574 . S
C3026 H3020 0.949 . S
C3026 C3030 1.368 . S
C3027 C3008 1.429 . S
C3027 C3021 1.429 . S
C3027 C3028 1.523 . S
C3028 C3009 1.368 . S
C3028 C3022 1.368 . S
C3028 C3027 1.523 . S
C3029 C3013 1.429 . S
C3029 C3025 1.429 . S
C3029 C3030 1.523 . S
C3030 C3014 1.368 . S
C3030 C3026 1.368 . S
C3030 C3029 1.523 . S
H3031 C3006 0.950 . S
H3032 C3008 0.950 . S
H3033 C3009 0.949 . S
H3034 C3011 0.950 . S
H3035 C3013 0.950 . S
C3036 C3037 1.349 . S
C3036 C3038 1.327 . S
C3036 H3061 0.950 . S
C3037 C3036 1.349 . S
C3037 C3053 1.349 . S
C3038 C3036 1.327 . S
C3038 C3057 1.429 . S
C3038 H3062 0.950 . S
C3039 C3056 1.574 . S
C3039 C3058 1.368 . S
C3039 H3063 0.949 . S
H3040 C3044 0.949 . S
C3041 C3042 1.349 . S
C3041 C3043 1.327 . S
C3041 H3064 0.950 . S
C3042 C3041 1.349 . S
C3042 C3054 1.349 . S
C3043 C3041 1.327 . S
C3043 C3059 1.429 . S
C3043 H3065 0.950 . S
C3044 H3040 0.949 . S
C3044 C3052 1.574 . S
C3044 C3060 1.368 . S
H3045 C3053 0.950 . S
H3046 C3051 0.950 . S
H3047 C3052 0.949 . S
H3048 C3054 0.950 . S
H3049 C3055 0.950 . S
H3050 C3056 0.949 . S
C3051 H3046 0.950 . S
C3051 C3053 1.327 . S
C3051 C3057 1.429 . S
C3052 C3044 1.574 . S
C3052 H3047 0.949 . S
C3052 C3058 1.368 . S
C3053 C3037 1.349 . S
C3053 H3045 0.950 . S
C3053 C3051 1.327 . S
C3054 C3042 1.349 . S
C3054 H3048 0.950 . S
C3054 C3055 1.327 . S
C3055 H3049 0.950 . S
C3055 C3054 1.327 . S
C3055 C3059 1.429 . S
C3056 C3039 1.574 . S
C3056 H3050 0.949 . S
C3056 C3060 1.368 . S
C3057 C3038 1.429 . S
C3057 C3051 1.429 . S
C3057 C3058 1.523 . S
C3058 C3039 1.368 . S
C3058 C3052 1.368 . S
C3058 C3057 1.523 . S
C3059 C3043 1.429 . S
C3059 C3055 1.429 . S
C3059 C3060 1.523 . S
C3060 C3044 1.368 . S
C3060 C3056 1.368 . S
C3060 C3059 1.523 . S
H3061 C3036 0.950 . S
H3062 C3038 0.950 . S
H3063 C3039 0.949 . S
H3064 C3041 0.950 . S
H3065 C3043 0.950 . S
C3066 C3067 1.349 . S
C3066 C3068 1.327 . S
C3066 H3091 0.950 . S
C3067 C3066 1.349 . S
C3067 C3083 1.349 . S
C3068 C3066 1.327 . S
C3068 C3087 1.429 . S
C3068 H3092 0.950 . S
C3069 C3086 1.574 . S
C3069 C3088 1.368 . S
C3069 H3093 0.949 . S
H3070 C3074 0.949 . S
C3071 C3072 1.349 . S
C3071 C3073 1.327 . S
C3071 H3094 0.950 . S
C3072 C3071 1.349 . S
C3072 C3084 1.349 . S
C3073 C3071 1.327 . S
C3073 C3089 1.429 . S
C3073 H3095 0.950 . S
C3074 H3070 0.949 . S
C3074 C3082 1.574 . S
C3074 C3090 1.368 . S
H3075 C3083 0.950 . S
H3076 C3081 0.950 . S
H3077 C3082 0.949 . S
H3078 C3084 0.950 . S
H3079 C3085 0.950 . S
H3080 C3086 0.949 . S
C3081 H3076 0.950 . S
C3081 C3083 1.327 . S
C3081 C3087 1.429 . S
C3082 C3074 1.574 . S
C3082 H3077 0.949 . S
C3082 C3088 1.368 . S
C3083 C3067 1.349 . S
C3083 H3075 0.950 . S
C3083 C3081 1.327 . S
C3084 C3072 1.349 . S
C3084 H3078 0.950 . S
C3084 C3085 1.327 . S
C3085 H3079 0.950 . S
C3085 C3084 1.327 . S
C3085 C3089 1.429 . S
C3086 C3069 1.574 . S
C3086 H3080 0.949 . S
C3086 C3090 1.368 . S
C3087 C3068 1.429 . S
C3087 C3081 1.429 . S
C3087 C3088 1.523 . S
C3088 C3069 1.368 . S
C3088 C3082 1.368 . S
C3088 C3087 1.523 . S
C3089 C3073 1.429 . S
C3089 C3085 1.429 . S
C3089 C3090 1.523 . S
C3090 C3074 1.368 . S
C3090 C3086 1.368 . S
C3090 C3089 1.523 . S
H3091 C3066 0.950 . S
H3092 C3068 0.950 . S
H3093 C3069 0.949 . S
H3094 C3071 0.950 . S
H3095 C3073 0.950 . S
C3096 C3097 1.349 . S
C3096 C3098 1.327 . S
C3096 H3121 0.950 . S
C3097 C3096 1.349 . S
C3097 C3113 1.349 . S
C3098 C3096 1.327 . S
C3098 C3117 1.429 . S
C3098 H3122 0.950 . S
C3099 C3116 1.574 . S
C3099 C3118 1.368 . S
C3099 H3123 0.949 . S
H3100 C3104 0.949 . S
C3101 C3102 1.349 . S
C3101 C3103 1.327 . S
C3101 H3124 0.950 . S
C3102 C3101 1.349 . S
C3102 C3114 1.349 . S
C3103 C3101 1.327 . S
C3103 C3119 1.429 . S
C3103 H3125 0.950 . S
C3104 H3100 0.949 . S
C3104 C3112 1.574 . S
C3104 C3120 1.368 . S
H3105 C3113 0.950 . S
H3106 C3111 0.950 . S
H3107 C3112 0.949 . S
H3108 C3114 0.950 . S
H3109 C3115 0.950 . S
H3110 C3116 0.949 . S
C3111 H3106 0.950 . S
C3111 C3113 1.327 . S
C3111 C3117 1.429 . S
C3112 C3104 1.574 . S
C3112 H3107 0.949 . S
C3112 C3118 1.368 . S
C3113 C3097 1.349 . S
C3113 H3105 0.950 . S
C3113 C3111 1.327 . S
C3114 C3102 1.349 . S
C3114 H3108 0.950 . S
C3114 C3115 1.327 . S
C3115 H3109 0.950 . S
C3115 C3114 1.327 . S
C3115 C3119 1.429 . S
C3116 C3099 1.574 . S
C3116 H3110 0.949 . S
C3116 C3120 1.368 . S
C3117 C3098 1.429 . S
C3117 C3111 1.429 . S
C3117 C3118 1.523 . S
C3118 C3099 1.368 . S
C3118 C3112 1.368 . S
C3118 C3117 1.523 . S
C3119 C3103 1.429 . S
C3119 C3115 1.429 . S
C3119 C3120 1.523 . S
C3120 C3104 1.368 . S
C3120 C3116 1.368 . S
C3120 C3119 1.523 . S
H3121 C3096 0.950 . S
H3122 C3098 0.950 . S
H3123 C3099 0.949 . S
H3124 C3101 0.950 . S
H3125 C3103 0.950 . S
C3126 C3127 1.349 . S
C3126 C3128 1.327 . S
C3126 H3151 0.950 . S
C3127 C3126 1.349 . S
C3127 C3143 1.349 . S
C3128 C3126 1.327 . S
C3128 C3147 1.429 . S
C3128 H3152 0.950 . S
C3129 C3146 1.574 . S
C3129 C3148 1.368 . S
C3129 H3153 0.949 . S
H3130 C3134 0.949 . S
C3131 C3132 1.349 . S
C3131 C3133 1.327 . S
C3131 H3154 0.950 . S
C3132 C3131 1.349 . S
C3132 C3144 1.349 . S
C3133 C3131 1.327 . S
C3133 C3149 1.429 . S
C3133 H3155 0.950 . S
C3134 H3130 0.949 . S
C3134 C3142 1.574 . S
C3134 C3150 1.368 . S
H3135 C3143 0.950 . S
H3136 C3141 0.950 . S
H3137 C3142 0.949 . S
H3138 C3144 0.950 . S
H3139 C3145 0.950 . S
H3140 C3146 0.949 . S
C3141 H3136 0.950 . S
C3141 C3143 1.327 . S
C3141 C3147 1.429 . S
C3142 C3134 1.574 . S
C3142 H3137 0.949 . S
C3142 C3148 1.368 . S
C3143 C3127 1.349 . S
C3143 H3135 0.950 . S
C3143 C3141 1.327 . S
C3144 C3132 1.349 . S
C3144 H3138 0.950 . S
C3144 C3145 1.327 . S
C3145 H3139 0.950 . S
C3145 C3144 1.327 . S
C3145 C3149 1.429 . S
C3146 C3129 1.574 . S
C3146 H3140 0.949 . S
C3146 C3150 1.368 . S
C3147 C3128 1.429 . S
C3147 C3141 1.429 . S
C3147 C3148 1.523 . S
C3148 C3129 1.368 . S
C3148 C3142 1.368 . S
C3148 C3147 1.523 . S
C3149 C3133 1.429 . S
C3149 C3145 1.429 . S
C3149 C3150 1.523 . S
C3150 C3134 1.368 . S
C3150 C3146 1.368 . S
C3150 C3149 1.523 . S
H3151 C3126 0.950 . S
H3152 C3128 0.950 . S
H3153 C3129 0.949 . S
H3154 C3131 0.950 . S
H3155 C3133 0.950 . S
C3156 C3157 1.349 . S
C3156 C3158 1.327 . S
C3156 H3181 0.950 . S
C3157 C3156 1.349 . S
C3157 C3173 1.349 . S
C3158 C3156 1.327 . S
C3158 C3177 1.429 . S
C3158 H3182 0.950 . S
C3159 C3176 1.574 . S
C3159 C3178 1.368 . S
C3159 H3183 0.949 . S
H3160 C3164 0.949 . S
C3161 C3162 1.349 . S
C3161 C3163 1.327 . S
C3161 H3184 0.950 . S
C3162 C3161 1.349 . S
C3162 C3174 1.349 . S
C3163 C3161 1.327 . S
C3163 C3179 1.429 . S
C3163 H3185 0.950 . S
C3164 H3160 0.949 . S
C3164 C3172 1.574 . S
C3164 C3180 1.368 . S
H3165 C3173 0.950 . S
H3166 C3171 0.950 . S
H3167 C3172 0.949 . S
H3168 C3174 0.950 . S
H3169 C3175 0.950 . S
H3170 C3176 0.949 . S
C3171 H3166 0.950 . S
C3171 C3173 1.327 . S
C3171 C3177 1.429 . S
C3172 C3164 1.574 . S
C3172 H3167 0.949 . S
C3172 C3178 1.368 . S
C3173 C3157 1.349 . S
C3173 H3165 0.950 . S
C3173 C3171 1.327 . S
C3174 C3162 1.349 . S
C3174 H3168 0.950 . S
C3174 C3175 1.327 . S
C3175 H3169 0.950 . S
C3175 C3174 1.327 . S
C3175 C3179 1.429 . S
C3176 C3159 1.574 . S
C3176 H3170 0.949 . S
C3176 C3180 1.368 . S
C3177 C3158 1.429 . S
C3177 C3171 1.429 . S
C3177 C3178 1.523 . S
C3178 C3159 1.368 . S
C3178 C3172 1.368 . S
C3178 C3177 1.523 . S
C3179 C3163 1.429 . S
C3179 C3175 1.429 . S
C3179 C3180 1.523 . S
C3180 C3164 1.368 . S
C3180 C3176 1.368 . S
C3180 C3179 1.523 . S
H3181 C3156 0.950 . S
H3182 C3158 0.950 . S
H3183 C3159 0.949 . S
H3184 C3161 0.950 . S
H3185 C3163 0.950 . S
C3186 C3187 1.349 . S
C3186 C3188 1.327 . S
C3186 H3211 0.950 . S
C3187 C3186 1.349 . S
C3187 C3203 1.349 . S
C3188 C3186 1.327 . S
C3188 C3207 1.429 . S
C3188 H3212 0.950 . S
C3189 C3206 1.574 . S
C3189 C3208 1.368 . S
C3189 H3213 0.949 . S
H3190 C3194 0.949 . S
C3191 C3192 1.349 . S
C3191 C3193 1.327 . S
C3191 H3214 0.950 . S
C3192 C3191 1.349 . S
C3192 C3204 1.349 . S
C3193 C3191 1.327 . S
C3193 C3209 1.429 . S
C3193 H3215 0.950 . S
C3194 H3190 0.949 . S
C3194 C3202 1.574 . S
C3194 C3210 1.368 . S
H3195 C3203 0.950 . S
H3196 C3201 0.950 . S
H3197 C3202 0.949 . S
H3198 C3204 0.950 . S
H3199 C3205 0.950 . S
H3200 C3206 0.949 . S
C3201 H3196 0.950 . S
C3201 C3203 1.327 . S
C3201 C3207 1.429 . S
C3202 C3194 1.574 . S
C3202 H3197 0.949 . S
C3202 C3208 1.368 . S
C3203 C3187 1.349 . S
C3203 H3195 0.950 . S
C3203 C3201 1.327 . S
C3204 C3192 1.349 . S
C3204 H3198 0.950 . S
C3204 C3205 1.327 . S
C3205 H3199 0.950 . S
C3205 C3204 1.327 . S
C3205 C3209 1.429 . S
C3206 C3189 1.574 . S
C3206 H3200 0.949 . S
C3206 C3210 1.368 . S
C3207 C3188 1.429 . S
C3207 C3201 1.429 . S
C3207 C3208 1.523 . S
C3208 C3189 1.368 . S
C3208 C3202 1.368 . S
C3208 C3207 1.523 . S
C3209 C3193 1.429 . S
C3209 C3205 1.429 . S
C3209 C3210 1.523 . S
C3210 C3194 1.368 . S
C3210 C3206 1.368 . S
C3210 C3209 1.523 . S
H3211 C3186 0.950 . S
H3212 C3188 0.950 . S
H3213 C3189 0.949 . S
H3214 C3191 0.950 . S
H3215 C3193 0.950 . S
C3216 C3217 1.349 . S
C3216 C3218 1.327 . S
C3216 H3241 0.950 . S
C3217 C3216 1.349 . S
C3217 C3233 1.349 . S
C3218 C3216 1.327 . S
C3218 C3237 1.429 . S
C3218 H3242 0.950 . S
C3219 C3236 1.574 . S
C3219 C3238 1.368 . S
C3219 H3243 0.949 . S
H3220 C3224 0.949 . S
C3221 C3222 1.349 . S
C3221 C3223 1.327 . S
C3221 H3244 0.950 . S
C3222 C3221 1.349 . S
C3222 C3234 1.349 . S
C3223 C3221 1.327 . S
C3223 C3239 1.429 . S
C3223 H3245 0.950 . S
C3224 H3220 0.949 . S
C3224 C3232 1.574 . S
C3224 C3240 1.368 . S
H3225 C3233 0.950 . S
H3226 C3231 0.950 . S
H3227 C3232 0.949 . S
H3228 C3234 0.950 . S
H3229 C3235 0.950 . S
H3230 C3236 0.949 . S
C3231 H3226 0.950 . S
C3231 C3233 1.327 . S
C3231 C3237 1.429 . S
C3232 C3224 1.574 . S
C3232 H3227 0.949 . S
C3232 C3238 1.368 . S
C3233 C3217 1.349 . S
C3233 H3225 0.950 . S
C3233 C3231 1.327 . S
C3234 C3222 1.349 . S
C3234 H3228 0.950 . S
C3234 C3235 1.327 . S
C3235 H3229 0.950 . S
C3235 C3234 1.327 . S
C3235 C3239 1.429 . S
C3236 C3219 1.574 . S
C3236 H3230 0.949 . S
C3236 C3240 1.368 . S
C3237 C3218 1.429 . S
C3237 C3231 1.429 . S
C3237 C3238 1.523 . S
C3238 C3219 1.368 . S
C3238 C3232 1.368 . S
C3238 C3237 1.523 . S
C3239 C3223 1.429 . S
C3239 C3235 1.429 . S
C3239 C3240 1.523 . S
C3240 C3224 1.368 . S
C3240 C3236 1.368 . S
C3240 C3239 1.523 . S
H3241 C3216 0.950 . S
H3242 C3218 0.950 . S
H3243 C3219 0.949 . S
H3244 C3221 0.950 . S
H3245 C3223 0.950 . S
C3246 C3247 1.349 . S
C3246 C3248 1.327 . S
C3246 H3271 0.950 . S
C3247 C3246 1.349 . S
C3247 C3263 1.349 . S
C3248 C3246 1.327 . S
C3248 C3267 1.429 . S
C3248 H3272 0.950 . S
C3249 C3266 1.574 . S
C3249 C3268 1.368 . S
C3249 H3273 0.949 . S
H3250 C3254 0.949 . S
C3251 C3252 1.349 . S
C3251 C3253 1.327 . S
C3251 H3274 0.950 . S
C3252 C3251 1.349 . S
C3252 C3264 1.349 . S
C3253 C3251 1.327 . S
C3253 C3269 1.429 . S
C3253 H3275 0.950 . S
C3254 H3250 0.949 . S
C3254 C3262 1.574 . S
C3254 C3270 1.368 . S
H3255 C3263 0.950 . S
H3256 C3261 0.950 . S
H3257 C3262 0.949 . S
H3258 C3264 0.950 . S
H3259 C3265 0.950 . S
H3260 C3266 0.949 . S
C3261 H3256 0.950 . S
C3261 C3263 1.327 . S
C3261 C3267 1.429 . S
C3262 C3254 1.574 . S
C3262 H3257 0.949 . S
C3262 C3268 1.368 . S
C3263 C3247 1.349 . S
C3263 H3255 0.950 . S
C3263 C3261 1.327 . S
C3264 C3252 1.349 . S
C3264 H3258 0.950 . S
C3264 C3265 1.327 . S
C3265 H3259 0.950 . S
C3265 C3264 1.327 . S
C3265 C3269 1.429 . S
C3266 C3249 1.574 . S
C3266 H3260 0.949 . S
C3266 C3270 1.368 . S
C3267 C3248 1.429 . S
C3267 C3261 1.429 . S
C3267 C3268 1.523 . S
C3268 C3249 1.368 . S
C3268 C3262 1.368 . S
C3268 C3267 1.523 . S
C3269 C3253 1.429 . S
C3269 C3265 1.429 . S
C3269 C3270 1.523 . S
C3270 C3254 1.368 . S
C3270 C3266 1.368 . S
C3270 C3269 1.523 . S
H3271 C3246 0.950 . S
H3272 C3248 0.950 . S
H3273 C3249 0.949 . S
H3274 C3251 0.950 . S
H3275 C3253 0.950 . S
C3276 C3277 1.349 . S
C3276 C3278 1.327 . S
C3276 H3301 0.950 . S
C3277 C3276 1.349 . S
C3277 C3293 1.349 . S
C3278 C3276 1.327 . S
C3278 C3297 1.429 . S
C3278 H3302 0.950 . S
C3279 C3296 1.534 1_455 S
C3279 C3298 1.368 . S
C3279 H3303 0.949 . S
H3280 C3284 0.949 . S
C3281 C3282 1.349 . S
C3281 C3283 1.327 . S
C3281 H3304 0.950 . S
C3282 C3281 1.349 . S
C3282 C3294 1.349 . S
C3283 C3281 1.327 . S
C3283 C3299 1.429 . S
C3283 H3305 0.950 . S
C3284 H3280 0.949 . S
C3284 C3292 1.534 1_655 S
C3284 C3300 1.368 . S
H3285 C3293 0.950 . S
H3286 C3291 0.950 . S
H3287 C3292 0.965 . S
H3288 C3294 0.950 . S
H3289 C3295 0.950 . S
H3290 C3296 0.965 . S
C3291 H3286 0.950 . S
C3291 C3293 1.327 . S
C3291 C3297 1.429 . S
C3292 C3284 1.534 1_455 S
C3292 H3287 0.965 . S
C3292 C3298 1.391 . S
C3293 C3277 1.349 . S
C3293 H3285 0.950 . S
C3293 C3291 1.327 . S
C3294 C3282 1.349 . S
C3294 H3288 0.950 . S
C3294 C3295 1.327 . S
C3295 H3289 0.950 . S
C3295 C3294 1.327 . S
C3295 C3299 1.429 . S
C3296 C3279 1.534 1_655 S
C3296 H3290 0.965 . S
C3296 C3300 1.391 . S
C3297 C3278 1.429 . S
C3297 C3291 1.429 . S
C3297 C3298 1.523 . S
C3298 C3279 1.368 . S
C3298 C3292 1.391 . S
C3298 C3297 1.523 . S
C3299 C3283 1.429 . S
C3299 C3295 1.429 . S
C3299 C3300 1.523 . S
C3300 C3284 1.368 . S
C3300 C3296 1.391 . S
C3300 C3299 1.523 . S
H3301 C3276 0.950 . S
H3302 C3278 0.950 . S
H3303 C3279 0.949 . S
H3304 C3281 0.950 . S
H3305 C3283 0.950 . S
C3306 C3307 1.349 . S
C3306 C3308 1.327 . S
C3306 H3331 0.950 . S
C3307 C3306 1.349 . S
C3307 C3323 1.349 . S
C3308 C3306 1.327 . S
C3308 C3327 1.429 . S
C3308 H3332 0.950 . S
C3309 C3326 1.574 . S
C3309 C3328 1.368 . S
C3309 H3333 0.949 . S
H3310 C3314 0.949 . S
C3311 C3312 1.349 . S
C3311 C3313 1.327 . S
C3311 H3334 0.950 . S
C3312 C3311 1.349 . S
C3312 C3324 1.349 . S
C3313 C3311 1.327 . S
C3313 C3329 1.429 . S
C3313 H3335 0.950 . S
C3314 H3310 0.949 . S
C3314 C3322 1.574 . S
C3314 C3330 1.368 . S
H3315 C3323 0.950 . S
H3316 C3321 0.950 . S
H3317 C3322 0.949 . S
H3318 C3324 0.950 . S
H3319 C3325 0.950 . S
H3320 C3326 0.949 . S
C3321 H3316 0.950 . S
C3321 C3323 1.327 . S
C3321 C3327 1.429 . S
C3322 C3314 1.574 . S
C3322 H3317 0.949 . S
C3322 C3328 1.368 . S
C3323 C3307 1.349 . S
C3323 H3315 0.950 . S
C3323 C3321 1.327 . S
C3324 C3312 1.349 . S
C3324 H3318 0.950 . S
C3324 C3325 1.327 . S
C3325 H3319 0.950 . S
C3325 C3324 1.327 . S
C3325 C3329 1.429 . S
C3326 C3309 1.574 . S
C3326 H3320 0.949 . S
C3326 C3330 1.368 . S
C3327 C3308 1.429 . S
C3327 C3321 1.429 . S
C3327 C3328 1.523 . S
C3328 C3309 1.368 . S
C3328 C3322 1.368 . S
C3328 C3327 1.523 . S
C3329 C3313 1.429 . S
C3329 C3325 1.429 . S
C3329 C3330 1.523 . S
C3330 C3314 1.368 . S
C3330 C3326 1.368 . S
C3330 C3329 1.523 . S
H3331 C3306 0.950 . S
H3332 C3308 0.950 . S
H3333 C3309 0.949 . S
H3334 C3311 0.950 . S
H3335 C3313 0.950 . S
C3336 C3337 1.349 . S
C3336 C3338 1.327 . S
C3336 H3361 0.950 . S
C3337 C3336 1.349 . S
C3337 C3353 1.349 . S
C3338 C3336 1.327 . S
C3338 C3357 1.429 . S
C3338 H3362 0.950 . S
C3339 C3356 1.542 1_545 S
C3339 C3358 1.368 . S
C3339 H3363 0.949 . S
H3340 C3344 0.949 . S
C3341 C3342 1.349 . S
C3341 C3343 1.327 . S
C3341 H3364 0.950 . S
C3342 C3341 1.349 . S
C3342 C3354 1.349 . S
C3343 C3341 1.327 . S
C3343 C3359 1.429 . S
C3343 H3365 0.950 . S
C3344 H3340 0.949 . S
C3344 C3352 1.542 1_565 S
C3344 C3360 1.368 . S
H3345 C3353 0.950 . S
H3346 C3351 0.950 . S
H3347 C3352 0.933 . S
H3348 C3354 0.950 . S
H3349 C3355 0.950 . S
H3350 C3356 0.933 . S
C3351 H3346 0.950 . S
C3351 C3353 1.327 . S
C3351 C3357 1.429 . S
C3352 C3344 1.542 1_545 S
C3352 H3347 0.933 . S
C3352 C3358 1.421 . S
C3353 C3337 1.349 . S
C3353 H3345 0.950 . S
C3353 C3351 1.327 . S
C3354 C3342 1.349 . S
C3354 H3348 0.950 . S
C3354 C3355 1.327 . S
C3355 H3349 0.950 . S
C3355 C3354 1.327 . S
C3355 C3359 1.429 . S
C3356 C3339 1.542 1_565 S
C3356 H3350 0.933 . S
C3356 C3360 1.421 . S
C3357 C3338 1.429 . S
C3357 C3351 1.429 . S
C3357 C3358 1.523 . S
C3358 C3339 1.368 . S
C3358 C3352 1.421 . S
C3358 C3357 1.523 . S
C3359 C3343 1.429 . S
C3359 C3355 1.429 . S
C3359 C3360 1.523 . S
C3360 C3344 1.368 . S
C3360 C3356 1.421 . S
C3360 C3359 1.523 . S
H3361 C3336 0.950 . S
H3362 C3338 0.950 . S
H3363 C3339 0.949 . S
H3364 C3341 0.950 . S
H3365 C3343 0.950 . S
C3366 C3367 1.349 . S
C3366 C3368 1.327 . S
C3366 H3391 0.950 . S
C3367 C3366 1.349 . S
C3367 C3383 1.349 . S
C3368 C3366 1.327 . S
C3368 C3387 1.429 . S
C3368 H3392 0.950 1_556 S
C3369 C3386 1.574 1_545 S
C3369 C3388 1.368 . S
C3369 H3393 0.949 . S
H3370 C3374 0.949 . S
C3371 C3372 1.349 . S
C3371 C3373 1.327 . S
C3371 H3394 0.950 . S
C3372 C3371 1.349 . S
C3372 C3384 1.349 . S
C3373 C3371 1.327 . S
C3373 C3389 1.429 . S
C3373 H3395 0.950 1_554 S
C3374 H3370 0.949 . S
C3374 C3382 1.574 1_565 S
C3374 C3390 1.368 . S
H3375 C3383 0.950 . S
H3376 C3381 0.950 . S
H3377 C3382 0.949 . S
H3378 C3384 0.950 . S
H3379 C3385 0.950 . S
H3380 C3386 0.949 . S
C3381 H3376 0.950 . S
C3381 C3383 1.327 . S
C3381 C3387 1.429 . S
C3382 C3374 1.574 1_545 S
C3382 H3377 0.949 . S
C3382 C3388 1.368 1_554 S
C3383 C3367 1.349 . S
C3383 H3375 0.950 . S
C3383 C3381 1.327 . S
C3384 C3372 1.349 . S
C3384 H3378 0.950 . S
C3384 C3385 1.327 . S
C3385 H3379 0.950 . S
C3385 C3384 1.327 . S
C3385 C3389 1.429 . S
C3386 C3369 1.574 1_565 S
C3386 H3380 0.949 . S
C3386 C3390 1.368 1_556 S
C3387 C3368 1.429 . S
C3387 C3381 1.429 . S
C3387 C3388 1.523 . S
C3388 C3369 1.368 . S
C3388 C3382 1.368 1_556 S
C3388 C3387 1.523 . S
C3389 C3373 1.429 . S
C3389 C3385 1.429 . S
C3389 C3390 1.523 . S
C3390 C3374 1.368 . S
C3390 C3386 1.368 1_554 S
C3390 C3389 1.523 . S
H3391 C3366 0.950 . S
H3392 C3368 0.950 1_554 S
H3393 C3369 0.949 . S
H3394 C3371 0.950 . S
H3395 C3373 0.950 1_556 S
C3396 C3397 1.349 . S
C3396 C3398 1.327 . S
C3396 H3421 0.950 . S
C3397 C3396 1.349 . S
C3397 C3413 1.349 . S
C3398 C3396 1.327 . S
C3398 C3417 1.429 . S
C3398 H3422 0.950 1_556 S
C3399 C3416 1.574 1_655 S
C3399 C3418 1.368 . S
C3399 H3423 0.949 . S
H3400 C3404 0.949 . S
C3401 C3402 1.349 . S
C3401 C3403 1.327 . S
C3401 H3424 0.950 . S
C3402 C3401 1.349 . S
C3402 C3414 1.349 . S
C3403 C3401 1.327 . S
C3403 C3419 1.429 . S
C3403 H3425 0.950 1_554 S
C3404 H3400 0.949 . S
C3404 C3412 1.574 1_455 S
C3404 C3420 1.368 . S
H3405 C3413 0.950 . S
H3406 C3411 0.950 . S
H3407 C3412 0.949 . S
H3408 C3414 0.950 . S
H3409 C3415 0.950 . S
H3410 C3416 0.949 . S
C3411 H3406 0.950 . S
C3411 C3413 1.327 . S
C3411 C3417 1.429 . S
C3412 C3404 1.574 1_655 S
C3412 H3407 0.949 . S
C3412 C3418 1.368 1_554 S
C3413 C3397 1.349 . S
C3413 H3405 0.950 . S
C3413 C3411 1.327 . S
C3414 C3402 1.349 . S
C3414 H3408 0.950 . S
C3414 C3415 1.327 . S
C3415 H3409 0.950 . S
C3415 C3414 1.327 . S
C3415 C3419 1.429 . S
C3416 C3399 1.574 1_455 S
C3416 H3410 0.949 . S
C3416 C3420 1.368 1_556 S
C3417 C3398 1.429 . S
C3417 C3411 1.429 . S
C3417 C3418 1.523 . S
C3418 C3399 1.368 . S
C3418 C3412 1.368 1_556 S
C3418 C3417 1.523 . S
C3419 C3403 1.429 . S
C3419 C3415 1.429 . S
C3419 C3420 1.523 . S
C3420 C3404 1.368 . S
C3420 C3416 1.368 1_554 S
C3420 C3419 1.523 . S
H3421 C3396 0.950 . S
H3422 C3398 0.950 1_554 S
H3423 C3399 0.949 . S
H3424 C3401 0.950 . S
H3425 C3403 0.950 1_556 S
C3426 C3427 1.349 . S
C3426 C3428 1.327 . S
C3426 H3451 0.950 . S
C3427 C3426 1.349 . S
C3427 C3443 1.349 . S
C3428 C3426 1.327 . S
C3428 C3447 1.429 . S
C3428 H3452 0.950 . S
C3429 C3446 1.574 . S
C3429 C3448 1.368 . S
C3429 H3453 0.949 . S
H3430 C3434 0.949 . S
C3431 C3432 1.349 . S
C3431 C3433 1.327 . S
C3431 H3454 0.950 . S
C3432 C3431 1.349 . S
C3432 C3444 1.349 . S
C3433 C3431 1.327 . S
C3433 C3449 1.429 . S
C3433 H3455 0.950 . S
C3434 H3430 0.949 . S
C3434 C3442 1.574 . S
C3434 C3450 1.368 . S
H3435 C3443 0.950 . S
H3436 C3441 0.950 . S
H3437 C3442 0.949 . S
H3438 C3444 0.950 . S
H3439 C3445 0.950 . S
H3440 C3446 0.949 . S
C3441 H3436 0.950 . S
C3441 C3443 1.327 . S
C3441 C3447 1.429 . S
C3442 C3434 1.574 . S
C3442 H3437 0.949 . S
C3442 C3448 1.368 1_554 S
C3443 C3427 1.349 . S
C3443 H3435 0.950 . S
C3443 C3441 1.327 . S
C3444 C3432 1.349 . S
C3444 H3438 0.950 . S
C3444 C3445 1.327 . S
C3445 H3439 0.950 . S
C3445 C3444 1.327 . S
C3445 C3449 1.429 . S
C3446 C3429 1.574 . S
C3446 H3440 0.949 . S
C3446 C3450 1.368 1_556 S
C3447 C3428 1.429 . S
C3447 C3441 1.429 . S
C3447 C3448 1.523 . S
C3448 C3429 1.368 . S
C3448 C3442 1.368 1_556 S
C3448 C3447 1.523 . S
C3449 C3433 1.429 . S
C3449 C3445 1.429 . S
C3449 C3450 1.523 . S
C3450 C3434 1.368 . S
C3450 C3446 1.368 1_554 S
C3450 C3449 1.523 . S
H3451 C3426 0.950 . S
H3452 C3428 0.950 . S
H3453 C3429 0.949 . S
H3454 C3431 0.950 . S
H3455 C3433 0.950 . S
C1297 C14 1.105 . S
C1302 C256 1.114 . S
C1327 C50 1.105 . S
C1332 C292 1.114 . S
C1357 C220 1.114 . S
C1362 C86 1.104 . S
C1387 C400 1.114 . S
C1392 C122 1.105 . S
C1417 C158 1.104 . S
C1422 C328 1.113 . S
C1447 C194 1.105 . S
C1452 C364 1.114 . S
C1477 C40 1.114 . S
C1482 C230 1.105 . S
C1507 C76 1.114 . S
C1512 C266 1.105 . S
C1537 C302 1.104 . S
C1542 C4 1.114 . S
C1567 C338 1.105 . S
C1572 C184 1.114 . S
C1597 C112 1.113 . S
C1602 C374 1.104 . S
C1627 C410 1.105 . S
C1632 C148 1.114 . S
C1657 C688 1.114 . S
C1662 C446 1.105 . S
C1687 C482 1.105 . S
C1692 C724 1.114 . S
C1717 C518 1.105 . S
C1722 C652 1.114 . S
C1747 C832 1.114 . S
C1752 C554 1.105 . S
C1777 C590 1.104 . S
C1782 C760 1.114 . S
C1807 C796 1.114 . S
C1812 C626 1.105 . S
C1837 C472 1.114 . S
C1842 C662 1.105 . S
C1867 C698 1.105 . S
C1872 C508 1.114 . S
C1897 C436 1.113 . S
C1902 C734 1.104 . S
C1927 C770 1.105 . S
C1932 C616 1.114 . S
C1957 C806 1.105 . S
C1962 C544 1.114 . S
C1987 C842 1.105 . S
C1992 C580 1.114 . S
C2017 C1120 1.114 . S
C2022 C878 1.105 . S
C2047 C1156 1.114 . S
C2052 C914 1.105 . S
C2077 C1084 1.113 . S
C2082 C950 1.104 . S
C2107 C986 1.105 . S
C2112 C1264 1.114 . S
C2137 C1022 1.105 . S
C2142 C1192 1.114 . S
C2167 C1228 1.114 . S
C2172 C1058 1.105 . S
C2197 C1094 1.105 . S
C2202 C904 1.114 . S
C2227 C940 1.114 . S
C2232 C1130 1.105 . S
C2257 C868 1.114 . S
C2262 C1166 1.105 . S
C2287 C1202 1.105 . S
C2292 C1048 1.114 . S
C2317 C1238 1.104 . S
C2322 C976 1.114 . S
C2347 C1274 1.105 . S
C2352 C1012 1.114 . S
C2377 C110 1.315 . S
C2382 C2 1.315 . S
C2407 C146 1.315 . S
C2412 C38 1.315 . S
C2437 C74 1.315 . S
C2442 C182 1.315 . S
C2467 C326 1.315 . S
C2472 C218 1.315 . S
C2497 C362 1.315 . S
C2502 C254 1.315 . S
C2527 C398 1.315 . S
C2532 C290 1.315 . S
C2557 C542 1.315 . S
C2562 C434 1.315 . S
C2587 C578 1.315 . S
C2592 C470 1.315 . S
C2617 C506 1.315 . S
C2622 C614 1.315 . S
C2647 C758 1.315 . S
C2652 C650 1.315 . S
C2677 C794 1.315 . S
C2682 C686 1.315 . S
C2707 C830 1.315 . S
C2712 C722 1.315 . S
C2737 C974 1.315 . S
C2742 C866 1.315 . S
C2767 C902 1.315 . S
C2772 C1010 1.315 . S
C2797 C1046 1.315 . S
C2802 C938 1.315 . S
C2827 C1082 1.315 . S
C2832 C1190 1.315 . S
C2857 C1118 1.315 . S
C2862 C1226 1.315 . S
C2887 C1154 1.315 . S
C2892 C1262 1.315 . S
C2917 C3 1.384 . S
C2922 C651 1.384 . S
C2947 C687 1.384 . S
C2952 C39 1.384 . S
C2977 C723 1.384 . S
C2982 C75 1.384 . S
C3007 C1191 1.384 . S
C3012 C111 1.384 . S
C3037 C1227 1.384 . S
C3042 C147 1.384 . S
C3067 C1263 1.384 . S
C3072 C183 1.384 . S
C3097 C219 1.384 . S
C3102 C867 1.384 . S
C3127 C903 1.384 . S
C3132 C255 1.384 . S
C3157 C939 1.384 . S
C3162 C291 1.384 . S
C3187 C327 1.384 . S
C3192 C543 1.384 . S
C3217 C363 1.384 . S
C3222 C579 1.384 . S
C3247 C399 1.384 . S
C3252 C615 1.384 . S
C3277 C1083 1.384 . S
C3282 C435 1.384 . S
C3307 C1119 1.384 . S
C3312 C471 1.384 . S
C3337 C507 1.384 . S
C3342 C1155 1.384 . S
C3367 C759 1.384 . S
C3372 C975 1.384 . S
C3397 C795 1.384 . S
C3402 C1011 1.384 . S
C3427 C831 1.384 . S
C3432 C1047 1.384 . S
