# Generated by pormake.
# Topology smm, (6)-cn, num edge types: 1
# Building blocks:
#     Node 0, Type 0, BuildingBlock: GEDQOX_clean_sbu_0, # of connection points: 6
#     Node 1, Type 0, BuildingBlock: GEDQOX_clean_sbu_0, # of connection points: 6
#     Node 2, Type 0, BuildingBlock: GEDQOX_clean_sbu_0, # of connection points: 6
#     Node 3, Type 0, BuildingBlock: GEDQOX_clean_sbu_0, # of connection points: 6
#     Node 4, Type 0, BuildingBlock: GEDQOX_clean_sbu_0, # of connection points: 6
#     Node 5, Type 0, BuildingBlock: GEDQOX_clean_sbu_0, # of connection points: 6
#     Node 6, Type 0, BuildingBlock: GEDQOX_clean_sbu_0, # of connection points: 6
#     Node 7, Type 0, BuildingBlock: GEDQOX_clean_sbu_0, # of connection points: 6
#     Node 8, Type 0, BuildingBlock: GEDQOX_clean_sbu_0, # of connection points: 6
#     Edge 9, Type (0, 0), BuildingBlock: KIFKEQ_clean_linker_1, # of connection points: 2
#     Edge 10, Type (0, 0), BuildingBlock: KIFKEQ_clean_linker_1, # of connection points: 2
#     Edge 11, Type (0, 0), BuildingBlock: KIFKEQ_clean_linker_1, # of connection points: 2
#     Edge 12, Type (0, 0), BuildingBlock: KIFKEQ_clean_linker_1, # of connection points: 2
#     Edge 13, Type (0, 0), BuildingBlock: KIFKEQ_clean_linker_1, # of connection points: 2
#     Edge 14, Type (0, 0), BuildingBlock: KIFKEQ_clean_linker_1, # of connection points: 2
#     Edge 15, Type (0, 0), BuildingBlock: KIFKEQ_clean_linker_1, # of connection points: 2
#     Edge 16, Type (0, 0), BuildingBlock: KIFKEQ_clean_linker_1, # of connection points: 2
#     Edge 17, Type (0, 0), BuildingBlock: KIFKEQ_clean_linker_1, # of connection points: 2
#     Edge 18, Type (0, 0), BuildingBlock: KIFKEQ_clean_linker_1, # of connection points: 2
#     Edge 19, Type (0, 0), BuildingBlock: KIFKEQ_clean_linker_1, # of connection points: 2
#     Edge 20, Type (0, 0), BuildingBlock: KIFKEQ_clean_linker_1, # of connection points: 2
#     Edge 21, Type (0, 0), BuildingBlock: KIFKEQ_clean_linker_1, # of connection points: 2
#     Edge 22, Type (0, 0), BuildingBlock: KIFKEQ_clean_linker_1, # of connection points: 2
#     Edge 23, Type (0, 0), BuildingBlock: KIFKEQ_clean_linker_1, # of connection points: 2
#     Edge 24, Type (0, 0), BuildingBlock: KIFKEQ_clean_linker_1, # of connection points: 2
#     Edge 25, Type (0, 0), BuildingBlock: KIFKEQ_clean_linker_1, # of connection points: 2
#     Edge 26, Type (0, 0), BuildingBlock: KIFKEQ_clean_linker_1, # of connection points: 2
#     Edge 27, Type (0, 0), BuildingBlock: KIFKEQ_clean_linker_1, # of connection points: 2
#     Edge 28, Type (0, 0), BuildingBlock: KIFKEQ_clean_linker_1, # of connection points: 2
#     Edge 29, Type (0, 0), BuildingBlock: KIFKEQ_clean_linker_1, # of connection points: 2
#     Edge 30, Type (0, 0), BuildingBlock: KIFKEQ_clean_linker_1, # of connection points: 2
#     Edge 31, Type (0, 0), BuildingBlock: KIFKEQ_clean_linker_1, # of connection points: 2
#     Edge 32, Type (0, 0), BuildingBlock: KIFKEQ_clean_linker_1, # of connection points: 2
#     Edge 33, Type (0, 0), BuildingBlock: KIFKEQ_clean_linker_1, # of connection points: 2
#     Edge 34, Type (0, 0), BuildingBlock: KIFKEQ_clean_linker_1, # of connection points: 2
#     Edge 35, Type (0, 0), BuildingBlock: KIFKEQ_clean_linker_1, # of connection points: 2
# Relax obj value: 0.052
# Max RMSD: 0.132
# Mean RMSD: 0.132
data_MOF--net-smm--node1-GEDQOX_clean_sbu_0--edge1-KIFKEQ_clean_linker_1
_symmetry_space_group_name_H-M    P1
_symmetry_Int_Tables_number       1
_symmetry_cell_setting            triclinic
loop_
_symmetry_equiv_pos_as_xyz
'x, y, z'
_cell_length_a     70.796702
_cell_length_b     70.892037
_cell_length_c     14.773781
_cell_angle_alpha  89.935162
_cell_angle_beta   89.870526
_cell_angle_gamma 120.08309
loop_
_atom_site_label
_atom_site_type_symbol
_atom_site_fract_x
_atom_site_fract_y
_atom_site_fract_z
_atom_type_partial_charge
Nd0 Nd 0.08058 0.23544 0.00349 0.0
Nd1 Nd 1.0395 0.19297 0.97102 0.0
C2 C 0.1119 0.27543 0.04669 0.0
C3 C 0.12089 0.29747 0.00696 0.0
C4 C 0.1324 0.31594 0.06158 0.0
C5 C 0.1412 0.33693 0.02464 0.0
C6 C 0.13873 0.33992 0.93199 0.0
C7 C 0.12713 0.32129 0.87746 0.0
C8 C 0.11826 0.30031 0.9146 0.0
C9 C 0.07166 0.22535 0.82335 0.0
C10 C 1.03326 0.23392 0.00315 0.0
C11 C 1.00853 0.15418 0.91308 0.0
C12 C 1.00111 0.13072 0.9241 0.0
C13 C 0.99059 0.11641 0.85203 0.0
C14 C 0.98203 0.09392 0.86267 0.0
C15 C 0.98374 0.0852 0.94593 0.0
C16 C 0.99467 0.09968 0.01766 0.0
C17 C 1.00331 0.1222 0.0068 0.0
C18 C 0.04779 0.20332 0.15069 0.0
C19 C 0.0863 0.19358 -0.00472 0.0
O20 O 0.09211 0.26642 0.07966 0.0
O21 O 0.1153 0.26164 0.00106 0.0
O22 O 0.09098 0.23479 0.85764 0.0
O23 O 0.05759 0.22255 0.8823 0.0
O24 O 0.05318 0.24298 0.03675 0.0
O25 O 1.02512 0.21556 0.95685 0.0
O26 O 1.02678 0.16621 0.86896 0.0
O27 O 1.00639 0.16416 -0.01677 0.0
O28 O 1.02846 0.19375 0.11571 0.0
O29 O 0.0621 0.20595 0.09303 0.0
O30 O 0.06676 0.18405 0.95733 0.0
O31 O 0.09412 0.21276 0.03487 0.0
H32 H 0.13466 0.31415 0.13293 0.0
H33 H 0.15022 0.35083 0.06858 0.0
H34 H 0.12462 0.32291 0.80625 0.0
H35 H 0.10932 0.28627 0.87116 0.0
H36 H 0.98861 0.12259 0.78778 0.0
H37 H 0.97354 0.08331 0.80623 0.0
H38 H 0.9966 0.09362 0.08227 0.0
H39 H 1.01146 0.13292 0.06341 0.0
Nd40 Nd 0.86827 0.87301 0.01367 0.0
Nd41 Nd 0.91056 0.87393 -0.01847 0.0
C42 C 0.82819 0.86469 0.05352 0.0
C43 C 0.806 0.85148 0.01382 0.0
C44 C 0.79576 0.82865 0.00673 0.0
C45 C 0.77496 0.81661 0.96799 0.0
C46 C 0.7639 0.82707 0.93487 0.0
C47 C 0.7742 0.84991 0.94206 0.0
C48 C 0.79492 0.86192 -0.01868 0.0
C49 C 0.87873 0.87419 0.83386 0.0
C50 C 0.86907 0.82689 0.01524 0.0
C51 C 0.94933 0.8815 0.92335 0.0
C52 C 0.97287 0.89763 0.93278 0.0
C53 C 0.98708 0.90112 0.86022 0.0
C54 C 1.00963 0.91509 0.8695 0.0
C55 C 1.01853 0.92586 0.95187 0.0
C56 C 1.00415 0.92262 0.02406 0.0
C57 C 0.98157 0.9087 0.01456 0.0
C58 C 0.89996 0.87186 0.16092 0.0
C59 C 0.91052 0.92039 0.00587 0.0
O60 O 0.83719 0.85436 0.09063 0.0
O61 O 0.84217 0.88168 0.00691 0.0
O62 O 0.86969 0.88443 0.86819 0.0
O63 O 0.88113 0.86269 0.89274 0.0
O64 O 0.86002 0.83791 0.04701 0.0
O65 O 0.88769 0.8369 0.96987 0.0
O66 O 0.93726 0.88741 0.87827 0.0
O67 O 0.9394 0.86979 -0.00525 0.0
O68 O 0.9094 0.86197 0.12595 0.0
O69 O 0.8976 0.88369 0.10341 0.0
O70 O 0.91993 0.91025 0.96813 0.0
O71 O 0.89123 0.90916 0.04542 0.0
H72 H 0.80383 0.82004 0.0306 0.0
H73 H 0.76767 0.79909 0.96277 0.0
H74 H 0.7661 0.85851 0.91847 0.0
H75 H 0.80234 0.87947 -0.01384 0.0
H76 H 0.98076 0.89269 0.79667 0.0
H77 H 1.02014 0.91696 0.81274 0.0
H78 H 1.01035 0.93086 0.088 0.0
H79 H 0.97095 0.90636 0.07154 0.0
Nd80 Nd 0.23126 1.02363 0.01305 0.0
Nd81 Nd 0.23013 0.06474 -0.02002 0.0
C82 C 0.23976 0.99213 0.05468 0.0
C83 C 0.25247 0.98324 0.01124 0.0
C84 C 0.2541 0.96632 0.05279 0.0
C85 C 0.26577 0.95752 0.01099 0.0
C86 C 0.27608 0.96546 0.92655 0.0
C87 C 0.27439 0.9825 0.88535 0.0
C88 C 0.26271 0.99127 0.92722 0.0
C89 C 0.23041 0.03276 0.83279 0.0
C90 C 0.27722 0.07078 0.01514 0.0
C91 C 0.22263 0.0958 0.92048 0.0
C92 C 0.20654 0.10322 0.92929 0.0
C93 C 0.20316 0.1138 0.85613 0.0
C94 C 0.18923 0.1224 0.86472 0.0
C95 C 0.17836 0.12067 0.94697 0.0
C96 C 0.18148 0.10967 0.01977 0.0
C97 C 0.19538 0.10099 0.01097 0.0
C98 C 0.23201 0.05641 0.15978 0.0
C99 C 0.1837 1.01806 0.00495 0.0
O100 O 0.25089 1.01194 0.08645 0.0
O101 O 0.22227 0.9888 0.01171 0.0
O102 O 0.22029 1.01345 0.86733 0.0
O103 O 0.2417 0.04673 0.89165 0.0
O104 O 0.26613 0.0508 0.04822 0.0
O105 O 0.26725 0.0791 0.9682 0.0
O106 O 0.21669 0.07771 0.87617 0.0
O107 O 0.23428 0.09772 -0.00804 0.0
O108 O 0.24183 0.07572 0.12442 0.0
O109 O 0.22032 0.04211 0.10245 0.0
O110 O 0.19382 0.0376 0.96681 0.0
O111 O 0.19498 1.01017 0.04472 0.0
H112 H 0.24633 0.95989 0.11765 0.0
H113 H 0.26695 0.94467 0.04552 0.0
H114 H 0.28183 0.98888 0.81999 0.0
H115 H 0.26155 1.00426 0.89373 0.0
H116 H 0.21167 0.11581 0.79265 0.0
H117 H 0.18745 0.13094 0.80751 0.0
H118 H 0.17316 0.10773 0.08365 0.0
H119 H 0.19762 0.09281 0.06839 0.0
Nd120 Nd 0.74596 0.57017 0.35951 0.0
Nd121 Nd 0.70526 0.52731 0.3283 0.0
C122 C 0.77711 0.6105 0.39937 0.0
C123 C 0.78634 0.63218 0.35574 0.0
C124 C 0.79709 0.65114 0.40817 0.0
C125 C 0.80607 0.67178 0.3676 0.0
C126 C 0.80454 0.67393 0.27342 0.0
C127 C 0.79371 0.65481 0.22111 0.0
C128 C 0.78465 0.63418 0.26184 0.0
C129 C 0.73699 0.55965 0.17986 0.0
C130 C 0.69833 0.5679 0.36166 0.0
C131 C 0.67466 0.48836 0.27001 0.0
C132 C 0.66758 0.46488 0.27771 0.0
C133 C 0.65752 0.45112 0.20358 0.0
C134 C 0.6491 0.42858 0.21107 0.0
C135 C 0.65047 0.41922 0.29319 0.0
C136 C 0.66098 0.43316 0.36697 0.0
C137 C 0.66947 0.45574 0.35927 0.0
C138 C 0.71341 0.53807 0.5077 0.0
C139 C 0.75244 0.52879 0.35493 0.0
O140 O 0.75715 0.60179 0.43024 0.0
O141 O 0.78072 0.5963 0.35839 0.0
O142 O 0.75632 0.56926 0.21397 0.0
O143 O 0.72291 0.5568 0.23877 0.0
O144 O 0.71841 0.57736 0.39364 0.0
O145 O 0.69015 0.54934 0.31667 0.0
O146 O 0.69256 0.50089 0.2246 0.0
O147 O 0.67267 0.49783 0.34227 0.0
O148 O 0.69407 0.52811 0.47275 0.0
O149 O 0.72778 0.54081 0.45023 0.0
O150 O 0.73295 0.51888 0.3165 0.0
O151 O 0.75988 0.548 0.39375 0.0
H152 H 0.79862 0.65 0.48064 0.0
H153 H 0.81448 0.68607 0.41002 0.0
H154 H 0.79192 0.65577 0.14875 0.0
H155 H 0.7763 0.61976 0.21996 0.0
H156 H 0.65575 0.45777 0.14016 0.0
H157 H 0.64093 0.41842 0.1531 0.0
H158 H 0.66265 0.42662 0.43081 0.0
H159 H 0.67724 0.466 0.41748 0.0
Nd160 Nd 0.53504 0.20634 0.34114 0.0
Nd161 Nd 0.57749 0.20766 0.30773 0.0
C162 C 0.49495 0.19771 0.38348 0.0
C163 C 0.47309 0.18511 0.34179 0.0
C164 C 0.45428 0.17791 0.39509 0.0
C165 C 0.43348 0.16606 0.35636 0.0
C166 C 0.43099 0.16115 0.26318 0.0
C167 C 0.44995 0.16845 0.20997 0.0
C168 C 0.47076 0.18023 0.24889 0.0
C169 C 0.54517 0.20739 0.16084 0.0
C170 C 0.53636 0.16055 0.34346 0.0
C171 C 0.61591 0.21474 0.24682 0.0
C172 C 0.63956 0.23035 0.25452 0.0
C173 C 0.65382 0.23026 0.18876 0.0
C174 C 0.67644 0.24363 0.19793 0.0
C175 C 0.68537 0.25743 0.27336 0.0
C176 C 0.67093 0.25782 0.33828 0.0
C177 C 0.64826 0.24441 0.32897 0.0
C178 C 0.56716 0.20559 0.48763 0.0
C179 C 0.57722 0.25396 0.33348 0.0
O180 O 0.5036 0.18653 0.41497 0.0
O181 O 0.50915 0.21524 0.34031 0.0
O182 O 0.53586 0.21738 0.19524 0.0
O183 O 0.54787 0.19612 0.21984 0.0
O184 O 0.52738 0.17151 0.37671 0.0
O185 O 0.55467 0.17063 0.2962 0.0
O186 O 0.60397 0.22114 0.20366 0.0
O187 O 0.60619 0.20323 0.31888 0.0
O188 O 0.57681 0.19593 0.45238 0.0
O189 O 0.56452 0.21725 0.43016 0.0
O190 O 0.58679 0.244 0.29536 0.0
O191 O 0.55791 0.24254 0.37277 0.0
H192 H 0.45569 0.18151 0.46683 0.0
H193 H 0.41932 0.16097 0.39937 0.0
H194 H 0.44873 0.16475 0.1384 0.0
H195 H 0.48505 0.1855 0.20643 0.0
H196 H 0.64745 0.21955 0.13075 0.0
H197 H 0.68694 0.24315 0.1457 0.0
H198 H 0.67714 0.26807 0.3976 0.0
H199 H 0.63754 0.2447 0.38073 0.0
Nd200 Nd 0.89999 0.35875 0.3352 0.0
Nd201 Nd 0.89414 0.39837 0.3316 0.0
C202 C 0.9017 0.32224 0.34531 0.0
C203 C 0.91533 0.31374 0.30636 0.0
C204 C 0.92125 0.30125 0.36031 0.0
C205 C 0.93375 0.29272 0.32426 0.0
C206 C 0.94057 0.29641 0.23307 0.0
C207 C 0.93464 0.30901 0.17919 0.0
C208 C 0.92224 0.31765 0.21545 0.0
C209 C 0.90834 0.37921 0.16992 0.0
C210 C 0.94329 0.40525 0.36731 0.0
C211 C 0.89228 0.43439 0.30288 0.0
C212 C 0.87638 0.4422 0.3092 0.0
C213 C 0.87426 0.45376 0.23653 0.0
C214 C 0.86013 0.4622 0.24246 0.0
C215 C 0.84784 0.45937 0.32158 0.0
C216 C 0.84982 0.44755 0.39402 0.0
C217 C 0.86387 0.43901 0.38784 0.0
C218 C 0.88687 0.37863 0.49836 0.0
C219 C 0.85037 0.35169 0.32568 0.0
O220 O 0.9109 0.33792 0.40479 0.0
O221 O 0.8891 0.32511 0.28924 0.0
O222 O 0.91991 0.37161 0.20493 0.0
O223 O 0.89284 0.37579 0.22198 0.0
O224 O 0.93383 0.38417 0.38429 0.0
O225 O 0.93202 0.41397 0.33347 0.0
O226 O 0.88927 0.42042 0.23888 0.0
O227 O 0.89885 0.43008 0.37874 0.0
O228 O 0.87522 0.38652 0.46602 0.0
O229 O 0.90178 0.38171 0.44365 0.0
O230 O 0.85921 0.37217 0.29938 0.0
O231 O 0.8626 0.34376 0.35634 0.0
H232 H 0.91609 0.29796 0.43044 0.0
H233 H 0.9378 0.28293 0.36761 0.0
H234 H 0.93983 0.31246 0.10916 0.0
H235 H 0.91806 0.32736 0.17227 0.0
H236 H 0.88378 0.45654 0.17535 0.0
H237 H 0.85924 0.4714 0.18569 0.0
H238 H 0.8404 0.44478 0.45547 0.0
H239 H 0.86503 0.43005 0.44495 0.0
Nd240 Nd 0.41404 0.90379 0.68287 0.0
Nd241 Nd 0.37295 0.86128 0.65207 0.0
C242 C 0.44555 0.94398 0.72266 0.0
C243 C 0.45447 0.96555 0.67868 0.0
C244 C 0.47168 0.9841 0.71888 0.0
C245 C 0.48056 1.00454 0.67651 0.0
C246 C 0.4724 1.00687 0.5928 0.0
C247 C 0.45506 0.98813 0.55295 0.0
C248 C 0.44622 0.96771 0.5954 0.0
C249 C 0.40499 0.89324 0.50329 0.0
C250 C 0.36683 0.90232 0.68296 0.0
C251 C 0.34161 0.82237 0.59713 0.0
C252 C 0.33321 0.79871 0.61151 0.0
C253 C 0.34539 0.78873 0.58772 0.0
C254 C 0.33657 0.76618 0.59928 0.0
C255 C 0.31541 0.75313 0.6352 0.0
C256 C 0.30338 0.76324 0.65936 0.0
C257 C 0.31213 0.78569 0.64736 0.0
C258 C 0.38136 0.87204 0.83125 0.0
C259 C 0.41969 0.86186 0.67697 0.0
O260 O 0.42572 0.93526 0.75494 0.0
O261 O 0.4489 0.9298 0.67999 0.0
O262 O 0.42432 0.90267 0.53743 0.0
O263 O 0.39096 0.89062 0.56205 0.0
O264 O 0.38673 0.91138 0.71674 0.0
O265 O 0.35873 0.88397 0.63664 0.0
O266 O 0.36009 0.83387 0.55365 0.0
O267 O 0.33938 0.83301 0.66448 0.0
O268 O 0.36201 0.86236 0.79653 0.0
O269 O 0.39563 0.87455 0.77373 0.0
O270 O 0.40014 0.85223 0.6391 0.0
O271 O 0.42752 0.88113 0.71578 0.0
H272 H 0.47829 0.9828 0.78313 0.0
H273 H 0.49364 1.01857 0.71004 0.0
H274 H 0.44851 0.98916 0.48818 0.0
H275 H 0.433 0.95356 0.56291 0.0
H276 H 0.3617 0.79828 0.55991 0.0
H277 H 0.34638 0.75899 0.58071 0.0
H278 H 0.28694 0.75372 0.68586 0.0
H279 H 0.30228 0.79288 0.66544 0.0
Nd280 Nd 0.20065 0.54058 0.6961 0.0
Nd281 Nd 0.24312 0.54198 0.66266 0.0
C282 C 0.16061 0.53198 0.73958 0.0
C283 C 0.13882 0.51936 0.69762 0.0
C284 C 0.12013 0.51584 0.74489 0.0
C285 C 0.09945 0.50425 0.70479 0.0
C286 C 0.09701 0.4959 0.61633 0.0
C287 C 0.11589 0.49946 0.56941 0.0
C288 C 0.13654 0.51103 0.60964 0.0
C289 C 0.21074 0.54169 0.51574 0.0
C290 C 0.20204 0.4948 0.69649 0.0
C291 C 0.28187 0.54976 0.60337 0.0
C292 C 0.30539 0.56592 0.6128 0.0
C293 C 0.31957 0.56955 0.54002 0.0
C294 C 0.34211 0.5836 0.54917 0.0
C295 C 0.35101 0.59433 0.63163 0.0
C296 C 0.33665 0.59094 0.70405 0.0
C297 C 0.31408 0.57694 0.69468 0.0
C298 C 0.23273 0.53988 0.84253 0.0
C299 C 0.24271 0.58819 0.68702 0.0
O300 O 0.16933 0.52082 0.77057 0.0
O301 O 0.17473 0.54947 0.69602 0.0
O302 O 0.20131 0.55156 0.5502 0.0
O303 O 0.21351 0.53045 0.57465 0.0
O304 O 0.19304 0.5057 0.73025 0.0
O305 O 0.22041 0.50498 0.64963 0.0
O306 O 0.26974 0.55575 0.55916 0.0
O307 O 0.27202 0.53788 0.67449 0.0
O308 O 0.2423 0.53015 0.80727 0.0
O309 O 0.23014 0.55156 0.78504 0.0
O310 O 0.25224 0.57819 0.64913 0.0
O311 O 0.22346 0.57683 0.72679 0.0
H312 H 0.12152 0.52209 0.81293 0.0
H313 H 0.08534 0.50158 0.74369 0.0
H314 H 0.11478 0.49357 0.50094 0.0
H315 H 0.15078 0.51362 0.57179 0.0
H316 H 0.31325 0.56116 0.47638 0.0
H317 H 0.35261 0.58558 0.49224 0.0
H318 H 0.34284 0.59915 0.76807 0.0
H319 H 0.30346 0.5745 0.7518 0.0
Nd320 Nd 0.56354 0.69118 0.68755 0.0
Nd321 Nd 0.56279 0.73259 0.65542 0.0
C322 C 0.57146 0.65924 0.72743 0.0
C323 C 0.58455 0.65014 0.68775 0.0
C324 C 0.60736 0.66281 0.678 0.0
C325 C 0.61928 0.65392 0.63928 0.0
C326 C 0.60871 0.63217 0.60882 0.0
C327 C 0.58589 0.61956 0.61855 0.0
C328 C 0.574 0.62841 0.6578 0.0
C329 C 0.56239 0.70045 0.50778 0.0
C330 C 0.60987 0.73811 0.68765 0.0
C331 C 0.55586 0.76406 0.59628 0.0
C332 C 0.53996 0.77172 0.60343 0.0
C333 C 0.54147 0.78768 0.54306 0.0
C334 C 0.52779 0.79653 0.55252 0.0
C335 C 0.51225 0.78964 0.62288 0.0
C336 C 0.51041 0.77317 0.68206 0.0
C337 C 0.52416 0.76432 0.67249 0.0
C338 C 0.56492 0.72412 0.83473 0.0
C339 C 0.51616 0.68618 0.68141 0.0
O340 O 0.58193 0.67858 0.76438 0.0
O341 O 0.55457 0.65634 0.68083 0.0
O342 O 0.55207 0.68114 0.5423 0.0
O343 O 0.57394 0.71434 0.56644 0.0
O344 O 0.59885 0.71798 0.71922 0.0
O345 O 0.59984 0.74675 0.64324 0.0
O346 O 0.54999 0.74609 0.55126 0.0
O347 O 0.56681 0.7655 0.6694 0.0
O348 O 0.57489 0.74345 0.79948 0.0
O349 O 0.553 0.7099 0.77755 0.0
O350 O 0.52634 0.70573 0.64335 0.0
O351 O 0.52739 0.67813 0.72043 0.0
H352 H 0.61604 0.67966 0.69976 0.0
H353 H 0.63679 0.66421 0.63201 0.0
H354 H 0.57721 0.6027 0.597 0.0
H355 H 0.55646 0.61822 0.66466 0.0
H356 H 0.55353 0.7936 0.48923 0.0
H357 H 0.52944 0.80885 0.50462 0.0
H358 H 0.49878 0.76755 0.73737 0.0
H359 H 0.52275 0.75203 0.72003 0.0
H360 H 0.13917 0.37546 0.00757 0.0
H361 H 0.1593 0.35536 0.76767 0.0
H362 H 0.1544 0.41205 0.94541 0.0
H363 H 0.17396 0.39194 0.7039 0.0
H364 H 0.21868 0.4674 0.66897 0.0
H365 H 0.2034 0.42978 0.72223 0.0
H366 H 0.14726 0.43123 0.82835 0.0
H367 H 0.16255 0.46864 0.77684 0.0
C368 C 0.14689 0.37883 0.94157 0.0
C369 C 0.14798 0.36235 0.89289 0.0
C370 C 0.15542 0.39981 0.90529 0.0
C371 C 0.16534 0.40502 0.81915 0.0
C372 C 0.16658 0.38861 0.77058 0.0
C373 C 0.15795 0.36754 0.80681 0.0
C374 C 0.20296 0.45959 0.70276 0.0
C375 C 0.19196 0.47118 0.71899 0.0
C376 C 0.19417 0.43799 0.73326 0.0
C377 C 0.17419 0.42748 0.78081 0.0
C378 C 0.1629 0.43888 0.79395 0.0
C379 C 0.17164 0.46037 0.76365 0.0
H380 H 0.74779 0.83685 0.78361 0.0
H381 H 0.72952 0.78818 -0.00701 0.0
H382 H 0.71157 0.81576 0.71661 0.0
H383 H 0.69329 0.7673 0.92727 0.0
H384 H 0.63674 0.7237 0.74929 0.0
H385 H 0.67405 0.74514 0.80289 0.0
H386 H 0.67379 0.80437 0.73617 0.0
H387 H 0.63647 0.78273 0.67976 0.0
C388 C 0.736 0.82173 0.81584 0.0
C389 C 0.74168 0.81422 0.89368 0.0
C390 C 0.71516 0.80962 0.7774 0.0
C391 C 0.69936 0.78967 0.81588 0.0
C392 C 0.70506 0.78228 0.89415 0.0
C393 C 0.7259 0.79432 0.9322 0.0
C394 C 0.64468 0.7413 0.74506 0.0
C395 C 0.63349 0.75145 0.71034 0.0
C396 C 0.6661 0.75366 0.77673 0.0
C397 C 0.67701 0.77659 0.77551 0.0
C398 C 0.66608 0.78677 0.73782 0.0
C399 C 0.64461 0.77435 0.70543 0.0
H400 H 0.26603 0.92261 0.91949 0.0
H401 H 0.3148 0.98721 0.83271 0.0
H402 H 0.28738 0.90777 0.85265 0.0
H403 H 0.3357 0.97227 0.76301 0.0
H404 H 0.38008 0.94211 0.75861 0.0
H405 H 0.35774 0.95708 0.81068 0.0
H406 H 0.30004 0.9002 0.71077 0.0
H407 H 0.32252 0.88493 0.65968 0.0
C408 C 0.28128 0.93367 0.88604 0.0
C409 C 0.28869 0.95618 0.88223 0.0
C410 C 0.2934 0.9251 0.84654 0.0
C411 C 0.31334 0.93878 0.80233 0.0
C412 C 0.32056 0.96123 0.79728 0.0
C413 C 0.30843 0.96979 0.83656 0.0
C414 C 0.36265 0.93281 0.74679 0.0
C415 C 0.35314 0.91224 0.70493 0.0
C416 C 0.34981 0.9415 0.77637 0.0
C417 C 0.32701 0.92988 0.76531 0.0
C418 C 0.31751 0.90951 0.72146 0.0
C419 C 0.33042 0.90083 0.69135 0.0
H420 H 0.41658 0.16728 0.09853 0.0
H421 H 0.39484 0.12569 0.33478 0.0
H422 H 0.38032 0.14575 0.03158 0.0
H423 H 0.35857 0.10471 0.26945 0.0
H424 H 0.303 0.05712 0.09503 0.0
H425 H 0.34014 0.07902 0.14955 0.0
H426 H 0.34226 0.13715 0.04742 0.0
H427 H 0.30487 0.11502 -0.00881 0.0
C428 C 0.40411 0.15354 0.13621 0.0
C429 C 0.40874 0.14825 0.2222 0.0
C430 C 0.38322 0.14132 0.09814 0.0
C431 C 0.36645 0.12338 0.14472 0.0
C432 C 0.3711 0.11819 0.23081 0.0
C433 C 0.3919 0.13043 0.26892 0.0
C434 C 0.31136 0.07455 0.08333 0.0
C435 C 0.30079 0.08427 0.03896 0.0
C436 C 0.3327 0.08717 0.11537 0.0
C437 C 0.3442 0.10995 0.10432 0.0
C438 C 0.33397 0.11965 0.05693 0.0
C439 C 0.3125 0.10696 0.02468 0.0
H440 H 0.97449 0.29453 0.31318 0.0
H441 H 0.93707 0.27767 0.06617 0.0
H442 H 0.9962 0.27956 0.25223 0.0
H443 H 0.95927 0.26316 0.00397 0.0
H444 H 0.98941 0.21783 0.97035 0.0
H445 H 0.96684 0.23296 0.02213 0.0
H446 H 1.02381 0.28781 0.13795 0.0
H447 H 1.04617 0.27271 0.08764 0.0
C448 C 0.97083 0.28758 0.24588 0.0
C449 C 0.95397 0.28733 0.19481 0.0
C450 C 0.98348 0.27919 0.21038 0.0
C451 C 0.97963 0.27022 0.12277 0.0
C452 C 0.96265 0.26981 0.0718 0.0
C453 C 0.95005 0.27834 0.10719 0.0
C454 C 0.99714 0.23323 0.00598 0.0
C455 C 1.01962 0.24393 0.02516 0.0
C456 C 0.9842 0.24194 0.03562 0.0
C457 C 0.99342 0.26151 0.08537 0.0
C458 C 1.01602 0.2725 0.10165 0.0
C459 C 1.0289 0.26386 0.07206 0.0
H460 H 0.88623 0.79961 -0.00061 0.0
H461 H 0.8286 0.80077 0.08742 0.0
H462 H 0.87062 0.76235 0.05765 0.0
H463 H 0.813 0.76372 0.14389 0.0
H464 H 0.8037 0.70979 0.33752 0.0
H465 H 0.81917 0.74578 0.26905 0.0
H466 H 0.84172 0.72418 0.04137 0.0
H467 H 0.82678 0.68821 0.11162 0.0
C468 C 0.87011 0.79183 0.02968 0.0
C469 C 0.85879 0.80332 0.03914 0.0
C470 C 0.86114 0.77044 0.06313 0.0
C471 C 0.84064 0.76006 0.10685 0.0
C472 C 0.82902 0.7713 0.11272 0.0
C473 C 0.83795 0.79258 0.07955 0.0
C474 C 0.81212 0.71271 0.27326 0.0
C475 C 0.81396 0.69599 0.23039 0.0
C476 C 0.82079 0.73334 0.23328 0.0
C477 C 0.83161 0.73795 0.14912 0.0
C478 C 0.83362 0.7213 0.10637 0.0
C479 C 0.82484 0.70058 0.14629 0.0
H480 H 0.06264 0.50365 0.62783 0.0
H481 H 0.0811 0.45972 0.50742 0.0
H482 H 1.02629 0.48251 0.56228 0.0
H483 H 1.04514 0.43919 0.43887 0.0
H484 H 0.97136 0.39223 0.42831 0.0
H485 H 1.00831 0.41457 0.48382 0.0
H486 H 1.00559 0.47273 0.4222 0.0
H487 H 0.96812 0.45018 0.36793 0.0
C488 C 0.059 0.48952 0.58732 0.0
C489 C 0.07491 0.48341 0.57357 0.0
C490 C 1.03819 0.47754 0.5486 0.0
C491 C 1.03265 0.45906 0.49514 0.0
C492 C 0.04865 0.45314 0.48044 0.0
C493 C 0.06944 0.46511 0.51905 0.0
C494 C 0.9786 0.40979 0.42577 0.0
C495 C 0.96662 0.41934 0.39345 0.0
C496 C 0.99995 0.42266 0.45733 0.0
C497 C 1.01009 0.44553 0.45769 0.0
C498 C 0.99827 0.45516 0.42399 0.0
C499 C 0.97682 0.44223 0.39206 0.0
H500 H 0.59836 0.6053 0.46054 0.0
H501 H 0.6479 0.63731 0.66465 0.0
H502 H 0.61942 0.59009 0.39357 0.0
H503 H 0.66874 0.62193 0.59905 0.0
H504 H 0.71222 0.60931 0.41909 0.0
H505 H 0.69046 0.62477 0.47269 0.0
H506 H 0.6315 0.56422 0.41395 0.0
H507 H 0.65349 0.54889 0.35741 0.0
C508 C 0.61366 0.60896 0.49164 0.0
C509 C 0.62145 0.62266 0.56787 0.0
C510 C 0.62575 0.6002 0.45322 0.0
C511 C 0.64595 0.60483 0.49016 0.0
C512 C 0.65357 0.61835 0.56704 0.0
C513 C 0.64156 0.62718 0.60503 0.0
C514 C 0.6946 0.5993 0.41666 0.0
C515 C 0.68464 0.57778 0.38419 0.0
C516 C 0.68207 0.60814 0.44832 0.0
C517 C 0.65912 0.5957 0.44945 0.0
C518 C 0.6491 0.57439 0.41385 0.0
C519 C 0.66171 0.56556 0.38138 0.0
H520 H 0.55336 0.13336 0.31984 0.0
H521 H 0.49672 0.13437 0.42273 0.0
H522 H 0.53789 0.09567 0.37253 0.0
H523 H 0.48157 0.09715 0.47636 0.0
H524 H 0.45072 1.02402 0.5008 0.0
H525 H 0.46584 0.05979 0.43013 0.0
H526 H 0.53048 0.07558 0.51465 0.0
H527 H 0.51545 0.03944 0.58243 0.0
C528 C 0.53754 0.12552 0.35277 0.0
C529 C 0.52633 0.13698 0.36689 0.0
C530 C 0.52875 0.10396 0.38379 0.0
C531 C 0.50846 0.09328 0.42912 0.0
C532 C 0.49707 0.10463 0.44089 0.0
C533 C 0.50587 0.12612 0.41039 0.0
C534 C 0.4682 0.03496 0.50332 0.0
C535 C 0.4818 1.02873 0.54784 0.0
C536 C 0.47688 0.05563 0.46349 0.0
C537 C 0.49942 0.07073 0.46681 0.0
C538 C 0.51308 0.06437 0.50988 0.0
C539 C 0.50439 0.0437 0.54992 0.0
H540 H 0.14961 0.12124 0.82394 0.0
H541 H 0.17513 0.14302 0.09256 0.0
H542 H 0.12764 0.13875 0.83788 0.0
H543 H 0.15255 0.15991 0.10778 0.0
H544 H 0.12767 0.20823 0.06091 0.0
H545 H 0.14949 0.19039 0.05104 0.0
H546 H 0.09626 0.1356 0.91585 0.0
H547 H 0.07465 0.15355 0.92418 0.0
C548 C 0.15053 0.12974 0.8861 0.0
C549 C 0.16422 0.1307 0.95701 0.0
C550 C 0.13772 0.13961 0.89453 0.0
C551 C 0.13824 0.15078 0.97407 0.0
C552 C 0.15186 0.15166 0.04518 0.0
C553 C 0.16463 0.14172 0.03685 0.0
C554 C 0.12058 0.19234 0.02936 0.0
C555 C 0.09938 0.18241 -0.00687 0.0
C556 C 0.13308 0.18204 0.02407 0.0
C557 C 0.12473 0.16154 -0.0177 0.0
C558 C 0.10341 0.15152 0.94717 0.0
C559 C 0.09093 0.16179 0.9525 0.0
H560 H 0.95084 0.94858 0.93506 0.0
H561 H 0.89596 0.94733 0.06931 0.0
H562 H 0.96895 0.98814 0.92435 0.0
H563 H 0.91395 0.98697 0.05704 0.0
H564 H 0.96129 0.06019 0.09324 0.0
H565 H 0.94442 1.02078 0.11186 0.0
H566 H 0.96591 1.01601 0.84339 0.0
H567 H 0.98339 0.05543 0.82608 0.0
C568 C 0.9426 0.95671 0.96239 0.0
C569 C 0.92187 0.94466 0.00294 0.0
C570 C 0.95297 0.97946 0.95568 0.0
C571 C 0.94292 0.99086 -0.0107 0.0
C572 C 0.92232 0.97883 0.0312 0.0
C573 C 0.91193 0.95604 0.03788 0.0
C574 C 0.96266 0.05078 0.03859 0.0
C575 C 0.97376 0.06109 0.95813 0.0
C576 C 0.95274 1.0281 0.04887 0.0
C577 C 0.95372 1.0151 -0.02086 0.0
C578 C 0.96498 1.02545 0.89902 0.0
C579 C 0.97483 0.04809 0.88864 0.0
H580 H 0.04825 0.95476 0.82943 0.0
H581 H 1.04376 0.92903 0.09867 0.0
H582 H 0.08776 0.97679 0.84472 0.0
H583 H 0.08325 0.95166 0.1152 0.0
H584 H 0.15675 0.97671 0.07098 0.0
H585 H 0.11705 0.95487 0.06005 0.0
H586 H 0.11581 1.0081 0.92311 0.0
H587 H 0.15542 1.02973 0.93253 0.0
C588 C 0.05567 0.9538 0.89201 0.0
C589 C 1.04271 0.94003 0.9627 0.0
C590 C 0.07836 0.96665 0.90121 0.0
C591 C 0.08882 0.96609 -0.0187 0.0
C592 C 0.07586 0.95239 0.05219 0.0
C593 C 0.05313 0.93959 0.0431 0.0
C594 C 0.14802 0.9838 0.03885 0.0
C595 C 0.15939 1.005 0.00244 0.0
C596 C 0.12519 0.97129 0.03294 0.0
C597 C 0.11311 0.97963 -0.00967 0.0
C598 C 0.12451 1.00095 0.95507 0.0
C599 C 0.1473 1.01345 0.96104 0.0
H600 H 0.74239 0.48947 0.28038 0.0
H601 H 0.79317 0.54376 0.42775 0.0
H602 H 0.76484 0.47235 0.27505 0.0
H603 H 0.81578 0.52675 0.42116 0.0
H604 H 0.84204 0.48002 0.46723 0.0
H605 H 0.81859 0.49603 0.47843 0.0
H606 H 0.79775 0.47716 0.20246 0.0
H607 H 0.82069 0.4606 0.19221 0.0
C608 C 0.75834 0.49779 0.31175 0.0
C609 C 0.76594 0.51806 0.35444 0.0
C610 C 0.7713 0.488 0.30815 0.0
C611 C 0.79221 0.49817 0.34731 0.0
C612 C 0.79969 0.51831 0.39108 0.0
C613 C 0.78674 0.52814 0.39448 0.0
C614 C 0.83228 0.47907 0.40923 0.0
C615 C 0.83329 0.46897 0.3288 0.0
C616 C 0.81899 0.48848 0.41532 0.0
C617 C 0.80624 0.48795 0.34134 0.0
C618 C 0.80714 0.47771 0.26117 0.0
C619 C 0.8205 0.4684 0.25493 0.0
H620 H 0.65061 0.3904 0.16922 0.0
H621 H 0.62757 0.39303 0.43722 0.0
H622 H 0.63309 0.35086 0.18114 0.0
H623 H 0.61071 0.35352 0.45047 0.0
H624 H 0.56251 0.2805 0.40002 0.0
H625 H 0.5805 0.32019 0.39205 0.0
H626 H 0.63569 0.32222 0.25726 0.0
H627 H 0.61757 0.28259 0.26364 0.0
C628 C 0.64184 0.38257 0.23083 0.0
C629 C 0.64052 0.39502 0.30214 0.0
C630 C 0.63197 0.35985 0.23811 0.0
C631 C 0.62044 0.34886 0.31685 0.0
C632 C 0.61923 0.36132 0.38841 0.0
C633 C 0.62916 0.38407 0.38123 0.0
C634 C 0.57852 0.2894 0.36894 0.0
C635 C 0.58851 0.27824 0.33227 0.0
C636 C 0.58891 0.31223 0.36477 0.0
C637 C 0.60958 0.32454 0.32373 0.0
C638 C 0.61965 0.31335 0.28808 0.0
C639 C 0.60928 0.29055 0.29228 0.0
H640 H 0.70919 0.29944 0.33678 0.0
H641 H 0.71661 0.24635 0.23593 0.0
H642 H 0.74865 0.32159 0.35455 0.0
H643 H 0.75611 0.26879 0.2503 0.0
H644 H 0.82518 0.30808 0.36817 0.0
H645 H 0.78547 0.28527 0.35954 0.0
H646 H 0.78111 0.34051 0.26334 0.0
H647 H 0.82053 0.3633 0.2735 0.0
C648 C 0.71919 0.29244 0.31858 0.0
C649 C 0.70959 0.27107 0.28459 0.0
C650 C 0.7419 0.30525 0.32784 0.0
C651 C 0.75569 0.29707 0.30356 0.0
C652 C 0.74607 0.27562 0.27051 0.0
C653 C 0.72337 0.26282 0.26111 0.0
C654 C 0.81575 0.31537 0.34548 0.0
C655 C 0.82616 0.33758 0.32163 0.0
C656 C 0.79295 0.30225 0.34 0.0
C657 C 0.77998 0.311 0.31082 0.0
C658 C 0.79045 0.33322 0.28741 0.0
C659 C 0.81317 0.3463 0.29269 0.0
H660 H 0.46877 0.77003 0.66995 0.0
H661 H 0.52441 0.83278 0.60433 0.0
H662 H 0.44642 0.78709 0.68925 0.0
H663 H 0.50193 0.84965 0.62037 0.0
H664 H 0.46135 0.87715 0.73981 0.0
H665 H 0.4833 0.85946 0.73167 0.0
H666 H 0.43 0.8039 0.60057 0.0
H667 H 0.40794 0.82139 0.61007 0.0
C668 C 0.47628 0.78746 0.65984 0.0
C669 C 0.49844 0.79996 0.6352 0.0
C670 C 0.46338 0.79723 0.67001 0.0
C671 C 0.4723 0.8198 0.65628 0.0
C672 C 0.4945 0.8323 0.63248 0.0
C673 C 0.50736 0.82254 0.62208 0.0
C674 C 0.45425 0.86111 0.70971 0.0
C675 C 0.43285 0.85077 0.67547 0.0
C676 C 0.46691 0.851 0.70448 0.0
C677 C 0.45851 0.83024 0.66509 0.0
C678 C 0.43697 0.81976 0.63225 0.0
C679 C 0.42434 0.82989 0.63725 0.0
H680 H 0.28364 0.61669 0.62244 0.0
H681 H 0.22726 0.61477 0.7451 0.0
H682 H 0.30172 0.65626 0.61351 0.0
H683 H 0.24514 0.65439 0.73401 0.0
H684 H 0.29098 0.72729 0.77707 0.0
H685 H 0.27404 0.68785 0.79276 0.0
H686 H 0.30051 0.6848 0.53297 0.0
H687 H 0.31764 0.72427 0.51797 0.0
C688 C 0.27505 0.62468 0.64745 0.0
C689 C 0.25394 0.61245 0.68449 0.0
C690 C 0.2854 0.64745 0.64171 0.0
C691 C 0.27492 0.65868 0.67257 0.0
C692 C 0.25388 0.64642 0.71055 0.0
C693 C 0.24355 0.62363 0.71654 0.0
C694 C 0.29313 0.7182 0.72311 0.0
C695 C 0.30568 0.72903 0.64616 0.0
C696 C 0.28335 0.69552 0.73202 0.0
C697 C 0.28578 0.68298 0.66409 0.0
C698 C 0.29851 0.69386 0.58747 0.0
C699 C 0.30836 0.71656 0.57875 0.0
H700 H 0.48918 0.64482 0.74696 0.0
H701 H 0.48793 0.69821 0.61146 0.0
H702 H 0.44946 0.62317 0.7371 0.0
H703 H 0.44828 0.67674 0.60309 0.0
H704 H 0.38056 0.62347 0.50946 0.0
H705 H 0.42009 0.64554 0.52429 0.0
H706 H 0.41583 0.62005 0.79388 0.0
H707 H 0.37633 0.5974 0.7778 0.0
C708 C 0.48046 0.65203 0.71574 0.0
C709 C 0.49186 0.67327 0.67976 0.0
C710 C 0.45762 0.63963 0.71045 0.0
C711 C 0.44557 0.64812 0.66894 0.0
C712 C 0.45698 0.66949 0.63421 0.0
C713 C 0.47978 0.68189 0.63955 0.0
C714 C 0.38804 0.62245 0.57175 0.0
C715 C 0.37517 0.60857 0.64231 0.0
C716 C 0.41074 0.63532 0.58069 0.0
C717 C 0.42127 0.63466 0.66037 0.0
C718 C 0.40838 0.62086 0.73118 0.0
C719 C 0.38565 0.60804 0.72235 0.0
H720 H 1.03283 0.20052 0.73621 0.0
H721 H 0.10173 0.24351 0.68986 0.0
H722 H 1.02712 0.19482 0.57307 0.0
H723 H 0.09605 0.23896 0.52764 0.0
H724 H 0.08349 0.2099 0.24668 0.0
H725 H 0.08871 0.21448 0.41 0.0
H726 H 1.02625 0.21123 0.43672 0.0
H727 H 1.02069 0.20545 0.27432 0.0
C728 C 0.04667 0.20891 0.69091 0.0
C729 C 0.06769 0.22236 0.7253 0.0
C730 C 1.04344 0.20579 0.59744 0.0
C731 C 0.06115 0.21638 0.53669 0.0
C732 C 0.08209 0.23012 0.57193 0.0
C733 C 0.08534 0.23289 0.66507 0.0
C734 C 0.07095 0.21019 0.28781 0.0
C735 C 0.05168 0.20725 0.24838 0.0
C736 C 0.07394 0.21294 0.38137 0.0
C737 C 0.05788 0.21322 0.43709 0.0
C738 C 1.03876 0.21063 0.39666 0.0
C739 C 1.03564 0.20751 0.30345 0.0
H740 H 0.86101 0.8866 0.70141 0.0
H741 H 0.90284 0.85942 0.74571 0.0
H742 H 0.86533 0.88532 0.53909 0.0
H743 H 0.90834 0.85926 0.58225 0.0
H744 H 0.89693 0.84218 0.28379 0.0
H745 H 0.89137 0.84208 0.44646 0.0
H746 H 0.89003 0.90223 0.42111 0.0
H747 H 0.89438 0.9015 0.25755 0.0
C748 C 0.87133 0.88052 0.67613 0.0
C749 C 0.8816 0.87309 0.7358 0.0
C750 C 0.87398 0.87996 0.58293 0.0
C751 C 0.88733 0.87236 0.54708 0.0
C752 C 0.89766 0.86493 0.60722 0.0
C753 C 0.89466 0.86512 0.70081 0.0
C754 C 0.89533 0.8553 0.31329 0.0
C755 C 0.89606 0.87185 0.2586 0.0
C756 C 0.89234 0.85537 0.40661 0.0
C757 C 0.89036 0.8722 0.44744 0.0
C758 C 0.8911 0.88878 0.3921 0.0
C759 C 0.8937 0.88848 0.29843 0.0
H760 H 0.21864 1.00274 0.70019 0.0
H761 H 0.24466 0.07156 0.74459 0.0
H762 H 0.2198 1.00837 0.53784 0.0
H763 H 0.24469 0.07722 0.58124 0.0
H764 H 0.26149 0.08348 0.28204 0.0
H765 H 0.26188 0.07799 0.44451 0.0
H766 H 0.20247 1.01563 0.42057 0.0
H767 H 0.20291 1.02077 0.25712 0.0
C768 C 0.22445 1.0191 0.67494 0.0
C769 C 0.23156 0.03674 0.73466 0.0
C770 C 0.22493 1.02232 0.58172 0.0
C771 C 0.23215 0.04322 0.54589 0.0
C772 C 0.23932 0.06092 0.60611 0.0
C773 C 0.2392 0.05773 0.69967 0.0
C774 C 0.24859 0.06856 0.31178 0.0
C775 C 0.23216 0.05253 0.25747 0.0
C776 C 0.24869 0.06548 0.40503 0.0
C777 C 0.23216 0.04642 0.44626 0.0
C778 C 0.2157 1.03036 0.39129 0.0
C779 C 0.21583 0.03331 0.29767 0.0
H780 H 0.74916 0.54496 0.6037 0.0
H781 H 0.6861 0.53995 0.63093 0.0
H782 H 0.75431 0.54948 0.76701 0.0
H783 H 0.69159 0.54567 0.79343 0.0
H784 H 0.69823 0.53461 0.09271 0.0
H785 H 0.69256 0.5291 0.92946 0.0
H786 H 0.76136 0.57395 0.88442 0.0
H787 H 0.76702 0.5783 0.04665 0.0
C788 C 0.73656 0.54513 0.64473 0.0
C789 C 0.71724 0.54203 0.60527 0.0
C790 C 0.73949 0.54783 0.73827 0.0
C791 C 0.72333 0.54794 0.79385 0.0
C792 C 0.70416 0.54521 0.7534 0.0
C793 C 0.7011 0.54213 0.66019 0.0
C794 C 0.71205 0.54319 0.04745 0.0
C795 C 0.73303 0.55676 0.08189 0.0
C796 C 0.70884 0.54018 0.95397 0.0
C797 C 0.72653 0.55102 0.89337 0.0
C798 C 0.74743 0.56491 0.92866 0.0
C799 C 0.75067 0.56756 0.02178 0.0
H800 H 0.56065 0.23466 0.58418 0.0
H801 H 0.56492 0.17629 0.61089 0.0
H802 H 0.55603 0.23521 0.74763 0.0
H803 H 0.55911 0.17599 0.77346 0.0
H804 H 0.56984 0.19326 0.07299 0.0
H805 H 0.57551 0.19321 0.90967 0.0
H806 H 0.53147 0.21799 0.86558 0.0
H807 H 0.52697 0.21918 0.02789 0.0
C808 C 0.56031 0.2218 0.62514 0.0
C809 C 0.56321 0.20549 0.58541 0.0
C810 C 0.55754 0.222 0.71878 0.0
C811 C 0.55719 0.20563 0.77428 0.0
C812 C 0.55975 0.18912 0.73356 0.0
C813 C 0.56289 0.18917 0.64026 0.0
C814 C 0.56147 0.1987 0.02794 0.0
C815 C 0.54808 0.2063 0.06272 0.0
C816 C 0.56457 0.19856 0.93437 0.0
C817 C 0.55401 0.20569 0.87395 0.0
C818 C 0.5403 0.21289 0.90959 0.0
C819 C 0.53755 0.21339 0.0028 0.0
H820 H 0.92225 0.38251 0.58537 0.0
H821 H 0.85704 0.37101 0.63119 0.0
H822 H 0.92851 0.38454 0.74687 0.0
H823 H 0.86266 0.37151 0.79453 0.0
H824 H 0.92691 0.3667 0.04022 0.0
H825 H 0.92055 0.36481 0.87871 0.0
H826 H 0.88103 0.39509 0.91499 0.0
H827 H 0.8863 0.39552 0.07843 0.0
C828 C 0.90903 0.37987 0.63036 0.0
C829 C 0.88915 0.37662 0.5961 0.0
C830 C 0.91258 0.38096 0.72326 0.0
C831 C 0.89613 0.37826 0.78427 0.0
C832 C 0.8759 0.37418 0.74967 0.0
C833 C 0.87252 0.37358 0.65629 0.0
C834 C 0.91706 0.37318 0.01358 0.0
C835 C 0.90709 0.38129 0.07154 0.0
C836 C 0.91343 0.37215 0.92069 0.0
C837 C 0.90019 0.37973 0.88332 0.0
C838 C 0.8909 0.38864 0.94142 0.0
C839 C 0.89416 0.38921 0.03483 0.0
H840 H 0.43509 0.91169 0.37025 0.0
H841 H 0.36621 0.86842 0.4161 0.0
H842 H 0.42945 0.90739 0.20801 0.0
H843 H 0.36054 0.86298 0.25279 0.0
H844 H 0.35432 0.87432 0.95462 0.0
H845 H 0.35982 0.8799 0.11715 0.0
H846 H 0.42212 0.8828 0.09041 0.0
H847 H 0.41697 0.87841 0.92703 0.0
C848 C 0.41872 0.90106 0.34532 0.0
C849 C 0.40105 0.89037 0.40535 0.0
C850 C 0.4155 0.89844 0.2522 0.0
C851 C 0.39457 0.8847 0.21687 0.0
C852 C 0.37685 0.87396 0.27738 0.0
C853 C 0.38005 0.87692 0.37087 0.0
C854 C 0.36922 0.87627 -0.01621 0.0
C855 C 0.38524 0.87595 0.9288 0.0
C856 C 0.37231 0.87927 0.077 0.0
C857 C 0.39136 0.88169 0.11737 0.0
C858 C 0.4074 0.88138 0.06172 0.0
C859 C 0.40446 0.87875 0.96818 0.0
H860 H 0.22615 0.56893 0.93896 0.0
H861 H 0.23053 0.51062 0.96592 0.0
H862 H 0.22154 0.5695 0.10241 0.0
H863 H 0.22472 0.51035 0.12847 0.0
H864 H 0.23551 0.52769 0.42786 0.0
H865 H 0.24117 0.52765 0.26454 0.0
H866 H 0.19699 0.55226 0.22048 0.0
H867 H 0.19249 0.55344 0.38281 0.0
C868 C 0.22584 0.55609 -0.02003 0.0
C869 C 0.22877 0.53979 0.94031 0.0
C870 C 0.22307 0.5563 0.07361 0.0
C871 C 0.22276 0.53996 0.12917 0.0
C872 C 0.22534 0.52346 0.08851 0.0
C873 C 0.22848 0.52349 -0.00478 0.0
C874 C 0.2271 0.5331 0.38281 0.0
C875 C 0.21367 0.54065 0.41761 0.0
C876 C 0.2302 0.53297 0.28925 0.0
C877 C 0.21959 0.54003 0.22884 0.0
C878 C 0.20585 0.5472 0.26449 0.0
C879 C 0.2031 0.5477 0.3577 0.0
H880 H 0.5497 0.6703 0.37537 0.0
H881 H 0.57747 0.73937 0.41947 0.0
H882 H 0.55104 0.67594 0.21307 0.0
H883 H 0.57767 0.74508 0.25608 0.0
H884 H 0.59469 0.75075 0.95706 0.0
H885 H 0.59474 0.74527 0.11971 0.0
H886 H 0.53431 0.68382 0.09551 0.0
H887 H 0.53509 0.68892 0.93199 0.0
C888 C 0.55592 0.68672 0.35007 0.0
C889 C 0.5635 0.70443 0.40969 0.0
C890 C 0.55651 0.68995 0.25687 0.0
C891 C 0.56429 0.71094 0.22095 0.0
C892 C 0.57187 0.72871 0.28105 0.0
C893 C 0.57165 0.72549 0.37463 0.0
C894 C 0.5815 0.73603 -0.01319 0.0
C895 C 0.5649 0.72023 0.93244 0.0
C896 C 0.5814 0.73297 0.08013 0.0
C897 C 0.56448 0.71416 0.12131 0.0
C898 C 0.54784 0.69834 0.06627 0.0
C899 C 0.54817 0.70126 0.97261 0.0
loop_
_geom_bond_atom_site_label_1
_geom_bond_atom_site_label_2
_geom_bond_distance
_geom_bond_site_symmetry_2
_ccdc_geom_bond_type
Nd0 C2 2.836 . S
Nd0 O20 2.500 1_556 S
Nd0 O21 2.492 . S
Nd0 O22 2.487 . S
Nd0 O23 2.682 . S
Nd0 O24 2.410 . S
Nd0 O29 2.414 1_556 S
Nd0 O31 2.424 . S
Nd1 C11 2.836 . S
Nd1 O23 2.414 1_654 S
Nd1 O25 2.424 . S
Nd1 O26 2.500 1_554 S
Nd1 O27 2.492 . S
Nd1 O28 2.487 . S
Nd1 O29 2.682 1_655 S
Nd1 O30 2.410 1_655 S
C2 Nd0 2.836 . S
C2 C3 1.498 1_556 S
C2 O20 1.258 1_556 S
C2 O21 1.239 . S
C3 C2 1.498 1_554 S
C3 C4 1.367 . S
C3 C8 1.407 1_554 S
C4 C3 1.367 . S
C4 C5 1.392 . S
C4 H32 0.930 . S
C5 C4 1.392 . S
C5 C6 1.398 . S
C5 H33 0.929 . S
C6 C5 1.398 . S
C6 C7 1.352 1_554 S
C7 C6 1.352 1_556 S
C7 C8 1.384 . S
C7 H34 0.930 . S
C8 C3 1.407 1_556 S
C8 C7 1.384 . S
C8 H35 0.929 . S
C9 O22 1.241 . S
C9 O23 1.273 . S
C10 O24 1.251 1_654 S
C10 O25 1.268 . S
C11 Nd1 2.836 . S
C11 C12 1.498 . S
C11 O26 1.258 1_554 S
C11 O27 1.239 . S
C12 C11 1.498 . S
C12 C13 1.366 1_554 S
C12 C17 1.407 . S
C13 C12 1.366 1_556 S
C13 C14 1.392 . S
C13 H36 0.930 . S
C14 C13 1.392 . S
C14 C15 1.398 1_556 S
C14 H37 0.929 . S
C15 C14 1.398 1_554 S
C15 C16 1.352 . S
C16 C15 1.352 . S
C16 C17 1.384 . S
C16 H38 0.930 . S
C17 C12 1.407 . S
C17 C16 1.384 . S
C17 H39 0.929 . S
C18 O28 1.241 1_455 S
C18 O29 1.273 . S
C19 O30 1.246 1_556 S
C19 O31 1.271 . S
O20 Nd0 2.500 1_554 S
O20 C2 1.258 1_554 S
O21 Nd0 2.492 . S
O21 C2 1.239 . S
O22 Nd0 2.487 . S
O22 C9 1.241 . S
O23 Nd0 2.682 . S
O23 Nd1 2.414 1_456 S
O23 C9 1.273 . S
O24 Nd0 2.410 . S
O24 C10 1.251 1_456 S
O25 Nd1 2.424 . S
O25 C10 1.268 . S
O26 Nd1 2.500 1_556 S
O26 C11 1.258 1_556 S
O27 Nd1 2.492 . S
O27 C11 1.239 . S
O28 Nd1 2.487 . S
O28 C18 1.241 1_655 S
O29 Nd0 2.414 1_554 S
O29 Nd1 2.682 1_455 S
O29 C18 1.273 . S
O30 Nd1 2.410 1_455 S
O30 C19 1.246 1_554 S
O31 Nd0 2.424 . S
O31 C19 1.271 . S
H32 C4 0.930 . S
H33 C5 0.929 . S
H34 C7 0.930 . S
H35 C8 0.929 . S
H36 C13 0.930 . S
H37 C14 0.929 . S
H38 C16 0.930 . S
H39 C17 0.929 . S
Nd40 C42 2.836 . S
Nd40 O60 2.500 1_556 S
Nd40 O61 2.492 . S
Nd40 O62 2.487 . S
Nd40 O63 2.682 . S
Nd40 O64 2.410 . S
Nd40 O69 2.414 1_556 S
Nd40 O71 2.424 . S
Nd41 C51 2.836 . S
Nd41 O63 2.414 1_554 S
Nd41 O65 2.424 . S
Nd41 O66 2.500 1_554 S
Nd41 O67 2.492 . S
Nd41 O68 2.487 . S
Nd41 O69 2.682 . S
Nd41 O70 2.410 . S
C42 Nd40 2.836 . S
C42 C43 1.498 1_556 S
C42 O60 1.258 1_556 S
C42 O61 1.239 . S
C43 C42 1.498 1_554 S
C43 C44 1.365 . S
C43 C48 1.408 1_554 S
C44 C43 1.365 . S
C44 C45 1.392 . S
C44 H72 0.930 . S
C45 C44 1.392 . S
C45 C46 1.398 . S
C45 H73 0.929 . S
C46 C45 1.398 . S
C46 C47 1.352 1_554 S
C47 C46 1.352 1_556 S
C47 C48 1.384 . S
C47 H74 0.930 . S
C48 C43 1.408 1_556 S
C48 C47 1.384 . S
C48 H75 0.929 . S
C49 O62 1.241 . S
C49 O63 1.273 . S
C50 O64 1.251 1_554 S
C50 O65 1.268 . S
C51 Nd41 2.836 . S
C51 C52 1.498 . S
C51 O66 1.258 1_554 S
C51 O67 1.239 . S
C52 C51 1.498 . S
C52 C53 1.366 1_554 S
C52 C57 1.407 . S
C53 C52 1.366 1_556 S
C53 C54 1.392 . S
C53 H76 0.930 . S
C54 C53 1.392 . S
C54 C55 1.398 1_556 S
C54 H77 0.929 . S
C55 C54 1.398 1_554 S
C55 C56 1.352 . S
C56 C55 1.352 . S
C56 C57 1.384 . S
C56 H78 0.930 . S
C57 C52 1.407 . S
C57 C56 1.384 . S
C57 H79 0.929 . S
C58 O68 1.241 . S
C58 O69 1.273 . S
C59 O70 1.251 1_556 S
C59 O71 1.268 . S
O60 Nd40 2.500 1_554 S
O60 C42 1.258 1_554 S
O61 Nd40 2.492 . S
O61 C42 1.239 . S
O62 Nd40 2.487 . S
O62 C49 1.241 . S
O63 Nd40 2.682 . S
O63 Nd41 2.414 1_556 S
O63 C49 1.273 . S
O64 Nd40 2.410 . S
O64 C50 1.251 1_556 S
O65 Nd41 2.424 . S
O65 C50 1.268 . S
O66 Nd41 2.500 1_556 S
O66 C51 1.258 1_556 S
O67 Nd41 2.492 . S
O67 C51 1.239 . S
O68 Nd41 2.487 . S
O68 C58 1.241 . S
O69 Nd40 2.414 1_554 S
O69 Nd41 2.682 . S
O69 C58 1.273 . S
O70 Nd41 2.410 . S
O70 C59 1.251 1_554 S
O71 Nd40 2.424 . S
O71 C59 1.268 . S
H72 C44 0.930 . S
H73 C45 0.929 . S
H74 C47 0.930 . S
H75 C48 0.929 . S
H76 C53 0.930 . S
H77 C54 0.929 . S
H78 C56 0.930 . S
H79 C57 0.929 . S
Nd80 C82 2.836 . S
Nd80 O100 2.500 1_556 S
Nd80 O101 2.492 . S
Nd80 O102 2.487 . S
Nd80 O103 2.682 1_565 S
Nd80 O104 2.410 1_565 S
Nd80 O109 2.414 1_566 S
Nd80 O111 2.424 . S
Nd81 C91 2.836 . S
Nd81 O103 2.414 1_554 S
Nd81 O105 2.424 . S
Nd81 O106 2.500 1_554 S
Nd81 O107 2.492 . S
Nd81 O108 2.487 . S
Nd81 O109 2.682 . S
Nd81 O110 2.410 . S
C82 Nd80 2.836 . S
C82 C83 1.498 1_556 S
C82 O100 1.258 1_556 S
C82 O101 1.239 . S
C83 C82 1.498 1_554 S
C83 C84 1.366 . S
C83 C88 1.408 1_554 S
C84 C83 1.366 . S
C84 C85 1.392 . S
C84 H112 0.930 . S
C85 C84 1.392 . S
C85 C86 1.398 . S
C85 H113 0.929 . S
C86 C85 1.398 . S
C86 C87 1.352 1_554 S
C87 C86 1.352 1_556 S
C87 C88 1.384 . S
C87 H114 0.930 . S
C88 C83 1.408 1_556 S
C88 C87 1.384 . S
C88 H115 0.929 . S
C89 O102 1.241 1_545 S
C89 O103 1.273 . S
C90 O104 1.251 1_554 S
C90 O105 1.268 . S
C91 Nd81 2.836 . S
C91 C92 1.498 . S
C91 O106 1.258 1_554 S
C91 O107 1.239 . S
C92 C91 1.498 . S
C92 C93 1.366 1_554 S
C92 C97 1.407 . S
C93 C92 1.366 1_556 S
C93 C94 1.392 . S
C93 H116 0.930 . S
C94 C93 1.392 . S
C94 C95 1.398 1_556 S
C94 H117 0.929 . S
C95 C94 1.398 1_554 S
C95 C96 1.352 . S
C96 C95 1.352 . S
C96 C97 1.384 . S
C96 H118 0.930 . S
C97 C92 1.407 . S
C97 C96 1.384 . S
C97 H119 0.929 . S
C98 O108 1.241 . S
C98 O109 1.273 . S
C99 O110 1.245 1_566 S
C99 O111 1.271 . S
O100 Nd80 2.500 1_554 S
O100 C82 1.258 1_554 S
O101 Nd80 2.492 . S
O101 C82 1.239 . S
O102 Nd80 2.487 . S
O102 C89 1.241 1_565 S
O103 Nd80 2.682 1_545 S
O103 Nd81 2.414 1_556 S
O103 C89 1.273 . S
O104 Nd80 2.410 1_545 S
O104 C90 1.251 1_556 S
O105 Nd81 2.424 . S
O105 C90 1.268 . S
O106 Nd81 2.500 1_556 S
O106 C91 1.258 1_556 S
O107 Nd81 2.492 . S
O107 C91 1.239 . S
O108 Nd81 2.487 . S
O108 C98 1.241 . S
O109 Nd80 2.414 1_544 S
O109 Nd81 2.682 . S
O109 C98 1.273 . S
O110 Nd81 2.410 . S
O110 C99 1.245 1_544 S
O111 Nd80 2.424 . S
O111 C99 1.271 . S
H112 C84 0.930 . S
H113 C85 0.929 . S
H114 C87 0.930 . S
H115 C88 0.929 . S
H116 C93 0.930 . S
H117 C94 0.929 . S
H118 C96 0.930 . S
H119 C97 0.929 . S
Nd120 C122 2.836 . S
Nd120 O140 2.500 . S
Nd120 O141 2.492 . S
Nd120 O142 2.487 . S
Nd120 O143 2.682 . S
Nd120 O144 2.410 . S
Nd120 O149 2.414 . S
Nd120 O151 2.424 . S
Nd121 C131 2.836 . S
Nd121 O143 2.414 . S
Nd121 O145 2.424 . S
Nd121 O146 2.500 . S
Nd121 O147 2.492 . S
Nd121 O148 2.487 . S
Nd121 O149 2.682 . S
Nd121 O150 2.410 . S
C122 Nd120 2.836 . S
C122 C123 1.498 . S
C122 O140 1.258 . S
C122 O141 1.239 . S
C123 C122 1.498 . S
C123 C124 1.366 . S
C123 C128 1.407 . S
C124 C123 1.366 . S
C124 C125 1.392 . S
C124 H152 0.930 . S
C125 C124 1.392 . S
C125 C126 1.398 . S
C125 H153 0.929 . S
C126 C125 1.398 . S
C126 C127 1.352 . S
C127 C126 1.352 . S
C127 C128 1.384 . S
C127 H154 0.930 . S
C128 C123 1.407 . S
C128 C127 1.384 . S
C128 H155 0.929 . S
C129 O142 1.241 . S
C129 O143 1.273 . S
C130 O144 1.251 . S
C130 O145 1.268 . S
C131 Nd121 2.836 . S
C131 C132 1.498 . S
C131 O146 1.258 . S
C131 O147 1.239 . S
C132 C131 1.498 . S
C132 C133 1.366 . S
C132 C137 1.407 . S
C133 C132 1.366 . S
C133 C134 1.392 . S
C133 H156 0.930 . S
C134 C133 1.392 . S
C134 C135 1.398 . S
C134 H157 0.929 . S
C135 C134 1.398 . S
C135 C136 1.352 . S
C136 C135 1.352 . S
C136 C137 1.384 . S
C136 H158 0.930 . S
C137 C132 1.407 . S
C137 C136 1.384 . S
C137 H159 0.929 . S
C138 O148 1.241 . S
C138 O149 1.273 . S
C139 O150 1.251 . S
C139 O151 1.268 . S
O140 Nd120 2.500 . S
O140 C122 1.258 . S
O141 Nd120 2.492 . S
O141 C122 1.239 . S
O142 Nd120 2.487 . S
O142 C129 1.241 . S
O143 Nd120 2.682 . S
O143 Nd121 2.414 . S
O143 C129 1.273 . S
O144 Nd120 2.410 . S
O144 C130 1.251 . S
O145 Nd121 2.424 . S
O145 C130 1.268 . S
O146 Nd121 2.500 . S
O146 C131 1.258 . S
O147 Nd121 2.492 . S
O147 C131 1.239 . S
O148 Nd121 2.487 . S
O148 C138 1.241 . S
O149 Nd120 2.414 . S
O149 Nd121 2.682 . S
O149 C138 1.273 . S
O150 Nd121 2.410 . S
O150 C139 1.251 . S
O151 Nd120 2.424 . S
O151 C139 1.268 . S
H152 C124 0.930 . S
H153 C125 0.929 . S
H154 C127 0.930 . S
H155 C128 0.929 . S
H156 C133 0.930 . S
H157 C134 0.929 . S
H158 C136 0.930 . S
H159 C137 0.929 . S
Nd160 C162 2.836 . S
Nd160 O180 2.500 . S
Nd160 O181 2.492 . S
Nd160 O182 2.487 . S
Nd160 O183 2.682 . S
Nd160 O184 2.410 . S
Nd160 O189 2.414 . S
Nd160 O191 2.424 . S
Nd161 C171 2.836 . S
Nd161 O183 2.414 . S
Nd161 O185 2.424 . S
Nd161 O186 2.500 . S
Nd161 O187 2.492 . S
Nd161 O188 2.487 . S
Nd161 O189 2.682 . S
Nd161 O190 2.410 . S
C162 Nd160 2.836 . S
C162 C163 1.498 . S
C162 O180 1.258 . S
C162 O181 1.239 . S
C163 C162 1.498 . S
C163 C164 1.366 . S
C163 C168 1.407 . S
C164 C163 1.366 . S
C164 C165 1.392 . S
C164 H192 0.930 . S
C165 C164 1.392 . S
C165 C166 1.398 . S
C165 H193 0.929 . S
C166 C165 1.398 . S
C166 C167 1.352 . S
C167 C166 1.352 . S
C167 C168 1.384 . S
C167 H194 0.930 . S
C168 C163 1.407 . S
C168 C167 1.384 . S
C168 H195 0.929 . S
C169 O182 1.241 . S
C169 O183 1.273 . S
C170 O184 1.251 . S
C170 O185 1.268 . S
C171 Nd161 2.836 . S
C171 C172 1.498 . S
C171 O186 1.258 . S
C171 O187 1.239 . S
C172 C171 1.498 . S
C172 C173 1.366 . S
C172 C177 1.407 . S
C173 C172 1.366 . S
C173 C174 1.392 . S
C173 H196 0.930 . S
C174 C173 1.392 . S
C174 C175 1.398 . S
C174 H197 0.929 . S
C175 C174 1.398 . S
C175 C176 1.352 . S
C176 C175 1.352 . S
C176 C177 1.384 . S
C176 H198 0.930 . S
C177 C172 1.407 . S
C177 C176 1.384 . S
C177 H199 0.929 . S
C178 O188 1.241 . S
C178 O189 1.273 . S
C179 O190 1.251 . S
C179 O191 1.268 . S
O180 Nd160 2.500 . S
O180 C162 1.258 . S
O181 Nd160 2.492 . S
O181 C162 1.239 . S
O182 Nd160 2.487 . S
O182 C169 1.241 . S
O183 Nd160 2.682 . S
O183 Nd161 2.414 . S
O183 C169 1.273 . S
O184 Nd160 2.410 . S
O184 C170 1.251 . S
O185 Nd161 2.424 . S
O185 C170 1.268 . S
O186 Nd161 2.500 . S
O186 C171 1.258 . S
O187 Nd161 2.492 . S
O187 C171 1.239 . S
O188 Nd161 2.487 . S
O188 C178 1.241 . S
O189 Nd160 2.414 . S
O189 Nd161 2.682 . S
O189 C178 1.273 . S
O190 Nd161 2.410 . S
O190 C179 1.251 . S
O191 Nd160 2.424 . S
O191 C179 1.268 . S
H192 C164 0.930 . S
H193 C165 0.929 . S
H194 C167 0.930 . S
H195 C168 0.929 . S
H196 C173 0.930 . S
H197 C174 0.929 . S
H198 C176 0.930 . S
H199 C177 0.929 . S
Nd200 C202 2.836 . S
Nd200 O220 2.500 . S
Nd200 O221 2.492 . S
Nd200 O222 2.487 . S
Nd200 O223 2.682 . S
Nd200 O224 2.410 . S
Nd200 O229 2.414 . S
Nd200 O231 2.424 . S
Nd201 C211 2.836 . S
Nd201 O223 2.414 . S
Nd201 O225 2.424 . S
Nd201 O226 2.500 . S
Nd201 O227 2.492 . S
Nd201 O228 2.487 . S
Nd201 O229 2.682 . S
Nd201 O230 2.410 . S
C202 Nd200 2.836 . S
C202 C203 1.498 . S
C202 O220 1.258 . S
C202 O221 1.239 . S
C203 C202 1.498 . S
C203 C204 1.366 . S
C203 C208 1.407 . S
C204 C203 1.366 . S
C204 C205 1.392 . S
C204 H232 0.930 . S
C205 C204 1.392 . S
C205 C206 1.398 . S
C205 H233 0.929 . S
C206 C205 1.398 . S
C206 C207 1.352 . S
C207 C206 1.352 . S
C207 C208 1.384 . S
C207 H234 0.930 . S
C208 C203 1.407 . S
C208 C207 1.384 . S
C208 H235 0.929 . S
C209 O222 1.241 . S
C209 O223 1.273 . S
C210 O224 1.251 . S
C210 O225 1.268 . S
C211 Nd201 2.836 . S
C211 C212 1.498 . S
C211 O226 1.258 . S
C211 O227 1.239 . S
C212 C211 1.498 . S
C212 C213 1.366 . S
C212 C217 1.407 . S
C213 C212 1.366 . S
C213 C214 1.392 . S
C213 H236 0.930 . S
C214 C213 1.392 . S
C214 C215 1.398 . S
C214 H237 0.929 . S
C215 C214 1.398 . S
C215 C216 1.352 . S
C216 C215 1.352 . S
C216 C217 1.384 . S
C216 H238 0.930 . S
C217 C212 1.407 . S
C217 C216 1.384 . S
C217 H239 0.929 . S
C218 O228 1.241 . S
C218 O229 1.273 . S
C219 O230 1.251 . S
C219 O231 1.268 . S
O220 Nd200 2.500 . S
O220 C202 1.258 . S
O221 Nd200 2.492 . S
O221 C202 1.239 . S
O222 Nd200 2.487 . S
O222 C209 1.241 . S
O223 Nd200 2.682 . S
O223 Nd201 2.414 . S
O223 C209 1.273 . S
O224 Nd200 2.410 . S
O224 C210 1.251 . S
O225 Nd201 2.424 . S
O225 C210 1.268 . S
O226 Nd201 2.500 . S
O226 C211 1.258 . S
O227 Nd201 2.492 . S
O227 C211 1.239 . S
O228 Nd201 2.487 . S
O228 C218 1.241 . S
O229 Nd200 2.414 . S
O229 Nd201 2.682 . S
O229 C218 1.273 . S
O230 Nd201 2.410 . S
O230 C219 1.251 . S
O231 Nd200 2.424 . S
O231 C219 1.268 . S
H232 C204 0.930 . S
H233 C205 0.929 . S
H234 C207 0.930 . S
H235 C208 0.929 . S
H236 C213 0.930 . S
H237 C214 0.929 . S
H238 C216 0.930 . S
H239 C217 0.929 . S
Nd240 C242 2.836 . S
Nd240 O260 2.500 . S
Nd240 O261 2.492 . S
Nd240 O262 2.487 . S
Nd240 O263 2.682 . S
Nd240 O264 2.410 . S
Nd240 O269 2.414 . S
Nd240 O271 2.424 . S
Nd241 C251 2.836 . S
Nd241 O263 2.414 . S
Nd241 O265 2.424 . S
Nd241 O266 2.500 . S
Nd241 O267 2.492 . S
Nd241 O268 2.487 . S
Nd241 O269 2.682 . S
Nd241 O270 2.410 . S
C242 Nd240 2.836 . S
C242 C243 1.498 . S
C242 O260 1.258 . S
C242 O261 1.239 . S
C243 C242 1.498 . S
C243 C244 1.366 . S
C243 C248 1.407 . S
C244 C243 1.366 . S
C244 C245 1.392 . S
C244 H272 0.930 . S
C245 C244 1.392 . S
C245 C246 1.398 . S
C245 H273 0.929 . S
C246 C245 1.398 . S
C246 C247 1.352 . S
C247 C246 1.352 . S
C247 C248 1.384 . S
C247 H274 0.930 . S
C248 C243 1.407 . S
C248 C247 1.384 . S
C248 H275 0.929 . S
C249 O262 1.241 . S
C249 O263 1.273 . S
C250 O264 1.251 . S
C250 O265 1.268 . S
C251 Nd241 2.836 . S
C251 C252 1.498 . S
C251 O266 1.258 . S
C251 O267 1.239 . S
C252 C251 1.498 . S
C252 C253 1.366 . S
C252 C257 1.407 . S
C253 C252 1.366 . S
C253 C254 1.392 . S
C253 H276 0.930 . S
C254 C253 1.392 . S
C254 C255 1.398 . S
C254 H277 0.929 . S
C255 C254 1.398 . S
C255 C256 1.352 . S
C256 C255 1.352 . S
C256 C257 1.384 . S
C256 H278 0.930 . S
C257 C252 1.407 . S
C257 C256 1.384 . S
C257 H279 0.929 . S
C258 O268 1.241 . S
C258 O269 1.273 . S
C259 O270 1.251 . S
C259 O271 1.268 . S
O260 Nd240 2.500 . S
O260 C242 1.258 . S
O261 Nd240 2.492 . S
O261 C242 1.239 . S
O262 Nd240 2.487 . S
O262 C249 1.241 . S
O263 Nd240 2.682 . S
O263 Nd241 2.414 . S
O263 C249 1.273 . S
O264 Nd240 2.410 . S
O264 C250 1.251 . S
O265 Nd241 2.424 . S
O265 C250 1.268 . S
O266 Nd241 2.500 . S
O266 C251 1.258 . S
O267 Nd241 2.492 . S
O267 C251 1.239 . S
O268 Nd241 2.487 . S
O268 C258 1.241 . S
O269 Nd240 2.414 . S
O269 Nd241 2.682 . S
O269 C258 1.273 . S
O270 Nd241 2.410 . S
O270 C259 1.251 . S
O271 Nd240 2.424 . S
O271 C259 1.268 . S
H272 C244 0.930 . S
H273 C245 0.929 . S
H274 C247 0.930 . S
H275 C248 0.929 . S
H276 C253 0.930 . S
H277 C254 0.929 . S
H278 C256 0.930 . S
H279 C257 0.929 . S
Nd280 C282 2.836 . S
Nd280 O300 2.500 . S
Nd280 O301 2.492 . S
Nd280 O302 2.487 . S
Nd280 O303 2.682 . S
Nd280 O304 2.410 . S
Nd280 O309 2.414 . S
Nd280 O311 2.424 . S
Nd281 C291 2.836 . S
Nd281 O303 2.414 . S
Nd281 O305 2.424 . S
Nd281 O306 2.500 . S
Nd281 O307 2.492 . S
Nd281 O308 2.487 . S
Nd281 O309 2.682 . S
Nd281 O310 2.410 . S
C282 Nd280 2.836 . S
C282 C283 1.498 . S
C282 O300 1.258 . S
C282 O301 1.239 . S
C283 C282 1.498 . S
C283 C284 1.366 . S
C283 C288 1.407 . S
C284 C283 1.366 . S
C284 C285 1.392 . S
C284 H312 0.930 . S
C285 C284 1.392 . S
C285 C286 1.398 . S
C285 H313 0.929 . S
C286 C285 1.398 . S
C286 C287 1.352 . S
C287 C286 1.352 . S
C287 C288 1.384 . S
C287 H314 0.930 . S
C288 C283 1.407 . S
C288 C287 1.384 . S
C288 H315 0.929 . S
C289 O302 1.241 . S
C289 O303 1.273 . S
C290 O304 1.251 . S
C290 O305 1.268 . S
C291 Nd281 2.836 . S
C291 C292 1.498 . S
C291 O306 1.258 . S
C291 O307 1.239 . S
C292 C291 1.498 . S
C292 C293 1.366 . S
C292 C297 1.407 . S
C293 C292 1.366 . S
C293 C294 1.392 . S
C293 H316 0.930 . S
C294 C293 1.392 . S
C294 C295 1.398 . S
C294 H317 0.929 . S
C295 C294 1.398 . S
C295 C296 1.352 . S
C296 C295 1.352 . S
C296 C297 1.384 . S
C296 H318 0.930 . S
C297 C292 1.407 . S
C297 C296 1.384 . S
C297 H319 0.929 . S
C298 O308 1.241 . S
C298 O309 1.273 . S
C299 O310 1.251 . S
C299 O311 1.268 . S
O300 Nd280 2.500 . S
O300 C282 1.258 . S
O301 Nd280 2.492 . S
O301 C282 1.239 . S
O302 Nd280 2.487 . S
O302 C289 1.241 . S
O303 Nd280 2.682 . S
O303 Nd281 2.414 . S
O303 C289 1.273 . S
O304 Nd280 2.410 . S
O304 C290 1.251 . S
O305 Nd281 2.424 . S
O305 C290 1.268 . S
O306 Nd281 2.500 . S
O306 C291 1.258 . S
O307 Nd281 2.492 . S
O307 C291 1.239 . S
O308 Nd281 2.487 . S
O308 C298 1.241 . S
O309 Nd280 2.414 . S
O309 Nd281 2.682 . S
O309 C298 1.273 . S
O310 Nd281 2.410 . S
O310 C299 1.251 . S
O311 Nd280 2.424 . S
O311 C299 1.268 . S
H312 C284 0.930 . S
H313 C285 0.929 . S
H314 C287 0.930 . S
H315 C288 0.929 . S
H316 C293 0.930 . S
H317 C294 0.929 . S
H318 C296 0.930 . S
H319 C297 0.929 . S
Nd320 C322 2.836 . S
Nd320 O340 2.500 . S
Nd320 O341 2.492 . S
Nd320 O342 2.487 . S
Nd320 O343 2.682 . S
Nd320 O344 2.410 . S
Nd320 O349 2.414 . S
Nd320 O351 2.424 . S
Nd321 C331 2.836 . S
Nd321 O343 2.414 . S
Nd321 O345 2.424 . S
Nd321 O346 2.500 . S
Nd321 O347 2.492 . S
Nd321 O348 2.487 . S
Nd321 O349 2.682 . S
Nd321 O350 2.410 . S
C322 Nd320 2.836 . S
C322 C323 1.498 . S
C322 O340 1.258 . S
C322 O341 1.239 . S
C323 C322 1.498 . S
C323 C324 1.366 . S
C323 C328 1.407 . S
C324 C323 1.366 . S
C324 C325 1.392 . S
C324 H352 0.930 . S
C325 C324 1.392 . S
C325 C326 1.398 . S
C325 H353 0.929 . S
C326 C325 1.398 . S
C326 C327 1.352 . S
C327 C326 1.352 . S
C327 C328 1.384 . S
C327 H354 0.930 . S
C328 C323 1.407 . S
C328 C327 1.384 . S
C328 H355 0.929 . S
C329 O342 1.241 . S
C329 O343 1.273 . S
C330 O344 1.251 . S
C330 O345 1.268 . S
C331 Nd321 2.836 . S
C331 C332 1.498 . S
C331 O346 1.258 . S
C331 O347 1.239 . S
C332 C331 1.498 . S
C332 C333 1.366 . S
C332 C337 1.407 . S
C333 C332 1.366 . S
C333 C334 1.392 . S
C333 H356 0.930 . S
C334 C333 1.392 . S
C334 C335 1.398 . S
C334 H357 0.929 . S
C335 C334 1.398 . S
C335 C336 1.352 . S
C336 C335 1.352 . S
C336 C337 1.384 . S
C336 H358 0.930 . S
C337 C332 1.407 . S
C337 C336 1.384 . S
C337 H359 0.929 . S
C338 O348 1.241 . S
C338 O349 1.273 . S
C339 O350 1.251 . S
C339 O351 1.268 . S
O340 Nd320 2.500 . S
O340 C322 1.258 . S
O341 Nd320 2.492 . S
O341 C322 1.239 . S
O342 Nd320 2.487 . S
O342 C329 1.241 . S
O343 Nd320 2.682 . S
O343 Nd321 2.414 . S
O343 C329 1.273 . S
O344 Nd320 2.410 . S
O344 C330 1.251 . S
O345 Nd321 2.424 . S
O345 C330 1.268 . S
O346 Nd321 2.500 . S
O346 C331 1.258 . S
O347 Nd321 2.492 . S
O347 C331 1.239 . S
O348 Nd321 2.487 . S
O348 C338 1.241 . S
O349 Nd320 2.414 . S
O349 Nd321 2.682 . S
O349 C338 1.273 . S
O350 Nd321 2.410 . S
O350 C339 1.251 . S
O351 Nd320 2.424 . S
O351 C339 1.268 . S
H352 C324 0.930 . S
H353 C325 0.929 . S
H354 C327 0.930 . S
H355 C328 0.929 . S
H356 C333 0.930 . S
H357 C334 0.929 . S
H358 C336 0.930 . S
H359 C337 0.929 . S
H360 C368 0.950 1_554 S
H361 C373 0.950 . S
H362 C370 0.950 . S
H363 C372 0.950 . S
H364 C374 0.950 . S
H365 C376 0.950 . S
H366 C378 0.950 . S
H367 C379 0.950 . S
C368 H360 0.950 1_556 S
C368 C369 1.386 . S
C368 C370 1.391 . S
C369 C368 1.386 . S
C369 C373 1.393 . S
C370 H362 0.950 . S
C370 C368 1.391 . S
C370 C371 1.400 . S
C371 C370 1.400 . S
C371 C372 1.398 . S
C371 C377 1.491 . S
C372 H363 0.950 . S
C372 C371 1.398 . S
C372 C373 1.391 . S
C373 H361 0.950 . S
C373 C369 1.393 . S
C373 C372 1.391 . S
C374 H364 0.950 . S
C374 C375 1.386 . S
C374 C376 1.391 . S
C375 C374 1.386 . S
C375 C379 1.393 . S
C376 H365 0.950 . S
C376 C374 1.391 . S
C376 C377 1.400 . S
C377 C371 1.491 . S
C377 C376 1.400 . S
C377 C378 1.398 . S
C378 H366 0.950 . S
C378 C377 1.398 . S
C378 C379 1.391 . S
C379 H367 0.950 . S
C379 C375 1.393 . S
C379 C378 1.391 . S
H380 C388 0.950 . S
H381 C393 0.950 . S
H382 C390 0.950 . S
H383 C392 0.950 1_554 S
H384 C394 0.950 . S
H385 C396 0.950 . S
H386 C398 0.950 . S
H387 C399 0.950 . S
C388 H380 0.950 . S
C388 C389 1.386 . S
C388 C390 1.391 . S
C389 C388 1.386 . S
C389 C393 1.393 1_556 S
C390 H382 0.950 . S
C390 C388 1.391 . S
C390 C391 1.400 . S
C391 C390 1.400 . S
C391 C392 1.398 . S
C391 C397 1.491 . S
C392 H383 0.950 1_556 S
C392 C391 1.398 . S
C392 C393 1.391 1_556 S
C393 H381 0.950 . S
C393 C389 1.393 1_554 S
C393 C392 1.391 1_554 S
C394 H384 0.950 . S
C394 C395 1.386 . S
C394 C396 1.391 . S
C395 C394 1.386 . S
C395 C399 1.393 . S
C396 H385 0.950 . S
C396 C394 1.391 . S
C396 C397 1.400 . S
C397 C391 1.491 . S
C397 C396 1.400 . S
C397 C398 1.398 . S
C398 H386 0.950 . S
C398 C397 1.398 . S
C398 C399 1.391 . S
C399 H387 0.950 . S
C399 C395 1.393 . S
C399 C398 1.391 . S
H400 C408 0.950 . S
H401 C413 0.950 . S
H402 C410 0.950 1_554 S
H403 C412 0.950 . S
H404 C414 0.950 . S
H405 C416 0.950 . S
H406 C418 0.950 . S
H407 C419 0.950 . S
C408 H400 0.950 . S
C408 C409 1.386 1_554 S
C408 C410 1.391 1_554 S
C409 C408 1.386 1_556 S
C409 C413 1.393 . S
C410 H402 0.950 1_556 S
C410 C408 1.391 1_556 S
C410 C411 1.400 . S
C411 C410 1.400 . S
C411 C412 1.398 . S
C411 C417 1.491 . S
C412 H403 0.950 . S
C412 C411 1.398 . S
C412 C413 1.391 . S
C413 H401 0.950 . S
C413 C409 1.393 . S
C413 C412 1.391 . S
C414 H404 0.950 . S
C414 C415 1.386 . S
C414 C416 1.391 . S
C415 C414 1.386 . S
C415 C419 1.393 . S
C416 H405 0.950 . S
C416 C414 1.391 . S
C416 C417 1.400 . S
C417 C411 1.491 . S
C417 C416 1.400 . S
C417 C418 1.398 . S
C418 H406 0.950 . S
C418 C417 1.398 . S
C418 C419 1.391 . S
C419 H407 0.950 . S
C419 C415 1.393 . S
C419 C418 1.391 . S
H420 C428 0.950 . S
H421 C433 0.950 . S
H422 C430 0.950 . S
H423 C432 0.950 . S
H424 C434 0.950 . S
H425 C436 0.950 . S
H426 C438 0.950 . S
H427 C439 0.950 1_556 S
C428 H420 0.950 . S
C428 C429 1.386 . S
C428 C430 1.391 . S
C429 C428 1.386 . S
C429 C433 1.393 . S
C430 H422 0.950 . S
C430 C428 1.391 . S
C430 C431 1.400 . S
C431 C430 1.400 . S
C431 C432 1.398 . S
C431 C437 1.491 . S
C432 H423 0.950 . S
C432 C431 1.398 . S
C432 C433 1.391 . S
C433 H421 0.950 . S
C433 C429 1.393 . S
C433 C432 1.391 . S
C434 H424 0.950 . S
C434 C435 1.386 . S
C434 C436 1.391 . S
C435 C434 1.386 . S
C435 C439 1.393 . S
C436 H425 0.950 . S
C436 C434 1.391 . S
C436 C437 1.400 . S
C437 C431 1.491 . S
C437 C436 1.400 . S
C437 C438 1.398 . S
C438 H426 0.950 . S
C438 C437 1.398 . S
C438 C439 1.391 . S
C439 H427 0.950 1_554 S
C439 C435 1.393 . S
C439 C438 1.391 . S
H440 C448 0.950 . S
H441 C453 0.950 . S
H442 C450 0.950 . S
H443 C452 0.950 . S
H444 C454 0.950 . S
H445 C456 0.950 . S
H446 C458 0.950 . S
H447 C459 0.950 1_455 S
C448 H440 0.950 . S
C448 C449 1.386 . S
C448 C450 1.391 . S
C449 C448 1.386 . S
C449 C453 1.393 . S
C450 H442 0.950 . S
C450 C448 1.391 . S
C450 C451 1.400 . S
C451 C450 1.400 . S
C451 C452 1.398 . S
C451 C457 1.491 . S
C452 H443 0.950 . S
C452 C451 1.398 . S
C452 C453 1.391 . S
C453 H441 0.950 . S
C453 C449 1.393 . S
C453 C452 1.391 . S
C454 H444 0.950 . S
C454 C455 1.386 . S
C454 C456 1.391 . S
C455 C454 1.386 . S
C455 C459 1.393 . S
C456 H445 0.950 . S
C456 C454 1.391 . S
C456 C457 1.400 . S
C457 C451 1.491 . S
C457 C456 1.400 . S
C457 C458 1.398 . S
C458 H446 0.950 . S
C458 C457 1.398 . S
C458 C459 1.391 . S
C459 H447 0.950 1_655 S
C459 C455 1.393 . S
C459 C458 1.391 . S
H460 C468 0.950 . S
H461 C473 0.950 . S
H462 C470 0.950 . S
H463 C472 0.950 . S
H464 C474 0.950 . S
H465 C476 0.950 . S
H466 C478 0.950 . S
H467 C479 0.950 . S
C468 H460 0.950 . S
C468 C469 1.386 . S
C468 C470 1.391 . S
C469 C468 1.386 . S
C469 C473 1.393 . S
C470 H462 0.950 . S
C470 C468 1.391 . S
C470 C471 1.400 . S
C471 C470 1.400 . S
C471 C472 1.398 . S
C471 C477 1.491 . S
C472 H463 0.950 . S
C472 C471 1.398 . S
C472 C473 1.391 . S
C473 H461 0.950 . S
C473 C469 1.393 . S
C473 C472 1.391 . S
C474 H464 0.950 . S
C474 C475 1.386 . S
C474 C476 1.391 . S
C475 C474 1.386 . S
C475 C479 1.393 . S
C476 H465 0.950 . S
C476 C474 1.391 . S
C476 C477 1.400 . S
C477 C471 1.491 . S
C477 C476 1.400 . S
C477 C478 1.398 . S
C478 H466 0.950 . S
C478 C477 1.398 . S
C478 C479 1.391 . S
C479 H467 0.950 . S
C479 C475 1.393 . S
C479 C478 1.391 . S
H480 C488 0.950 . S
H481 C493 0.950 . S
H482 C490 0.950 . S
H483 C492 0.950 . S
H484 C494 0.950 . S
H485 C496 0.950 . S
H486 C498 0.950 . S
H487 C499 0.950 . S
C488 H480 0.950 . S
C488 C489 1.386 . S
C488 C490 1.391 1_455 S
C489 C488 1.386 . S
C489 C493 1.393 . S
C490 H482 0.950 . S
C490 C488 1.391 1_655 S
C490 C491 1.400 . S
C491 C490 1.400 . S
C491 C492 1.398 . S
C491 C497 1.491 . S
C492 H483 0.950 . S
C492 C491 1.398 . S
C492 C493 1.391 1_655 S
C493 H481 0.950 . S
C493 C489 1.393 . S
C493 C492 1.391 1_455 S
C494 H484 0.950 . S
C494 C495 1.386 . S
C494 C496 1.391 . S
C495 C494 1.386 . S
C495 C499 1.393 . S
C496 H485 0.950 . S
C496 C494 1.391 . S
C496 C497 1.400 . S
C497 C491 1.491 . S
C497 C496 1.400 . S
C497 C498 1.398 . S
C498 H486 0.950 . S
C498 C497 1.398 . S
C498 C499 1.391 . S
C499 H487 0.950 . S
C499 C495 1.393 . S
C499 C498 1.391 . S
H500 C508 0.950 . S
H501 C513 0.950 . S
H502 C510 0.950 . S
H503 C512 0.950 . S
H504 C514 0.950 . S
H505 C516 0.950 . S
H506 C518 0.950 . S
H507 C519 0.950 . S
C508 H500 0.950 . S
C508 C509 1.386 . S
C508 C510 1.391 . S
C509 C508 1.386 . S
C509 C513 1.393 . S
C510 H502 0.950 . S
C510 C508 1.391 . S
C510 C511 1.400 . S
C511 C510 1.400 . S
C511 C512 1.398 . S
C511 C517 1.491 . S
C512 H503 0.950 . S
C512 C511 1.398 . S
C512 C513 1.391 . S
C513 H501 0.950 . S
C513 C509 1.393 . S
C513 C512 1.391 . S
C514 H504 0.950 . S
C514 C515 1.386 . S
C514 C516 1.391 . S
C515 C514 1.386 . S
C515 C519 1.393 . S
C516 H505 0.950 . S
C516 C514 1.391 . S
C516 C517 1.400 . S
C517 C511 1.491 . S
C517 C516 1.400 . S
C517 C518 1.398 . S
C518 H506 0.950 . S
C518 C517 1.398 . S
C518 C519 1.391 . S
C519 H507 0.950 . S
C519 C515 1.393 . S
C519 C518 1.391 . S
H520 C528 0.950 . S
H521 C533 0.950 . S
H522 C530 0.950 . S
H523 C532 0.950 . S
H524 C534 0.950 . S
H525 C536 0.950 . S
H526 C538 0.950 . S
H527 C539 0.950 . S
C528 H520 0.950 . S
C528 C529 1.386 . S
C528 C530 1.391 . S
C529 C528 1.386 . S
C529 C533 1.393 . S
C530 H522 0.950 . S
C530 C528 1.391 . S
C530 C531 1.400 . S
C531 C530 1.400 . S
C531 C532 1.398 . S
C531 C537 1.491 . S
C532 H523 0.950 . S
C532 C531 1.398 . S
C532 C533 1.391 . S
C533 H521 0.950 . S
C533 C529 1.393 . S
C533 C532 1.391 . S
C534 H524 0.950 . S
C534 C535 1.386 . S
C534 C536 1.391 . S
C535 C534 1.386 . S
C535 C539 1.393 . S
C536 H525 0.950 . S
C536 C534 1.391 . S
C536 C537 1.400 . S
C537 C531 1.491 . S
C537 C536 1.400 . S
C537 C538 1.398 . S
C538 H526 0.950 . S
C538 C537 1.398 . S
C538 C539 1.391 . S
C539 H527 0.950 . S
C539 C535 1.393 . S
C539 C538 1.391 . S
H540 C548 0.950 . S
H541 C553 0.950 . S
H542 C550 0.950 . S
H543 C552 0.950 . S
H544 C554 0.951 . S
H545 C556 0.950 . S
H546 C558 0.950 . S
H547 C559 0.950 . S
C548 H540 0.950 . S
C548 C549 1.386 1_556 S
C548 C550 1.391 . S
C549 C548 1.386 1_554 S
C549 C553 1.393 . S
C550 H542 0.950 . S
C550 C548 1.391 . S
C550 C551 1.400 . S
C551 C550 1.400 . S
C551 C552 1.398 1_556 S
C551 C557 1.491 . S
C552 H543 0.950 . S
C552 C551 1.398 1_554 S
C552 C553 1.391 . S
C553 H541 0.950 . S
C553 C549 1.393 . S
C553 C552 1.391 . S
C554 H544 0.951 . S
C554 C555 1.384 1_554 S
C554 C556 1.392 . S
C555 C554 1.384 1_556 S
C555 C559 1.393 . S
C556 H545 0.950 . S
C556 C554 1.392 . S
C556 C557 1.400 1_554 S
C557 C551 1.491 . S
C557 C556 1.400 1_556 S
C557 C558 1.398 . S
C558 H546 0.950 . S
C558 C557 1.398 . S
C558 C559 1.391 . S
C559 H547 0.950 . S
C559 C555 1.393 . S
C559 C558 1.391 . S
H560 C568 0.950 . S
H561 C573 0.950 . S
H562 C570 0.950 . S
H563 C572 0.950 . S
H564 C574 0.950 . S
H565 C576 0.950 . S
H566 C578 0.950 . S
H567 C579 0.950 . S
C568 H560 0.950 . S
C568 C569 1.386 . S
C568 C570 1.391 . S
C569 C568 1.386 . S
C569 C573 1.393 1_556 S
C570 H562 0.950 . S
C570 C568 1.391 . S
C570 C571 1.400 . S
C571 C570 1.400 . S
C571 C572 1.398 1_556 S
C571 C577 1.491 . S
C572 H563 0.950 . S
C572 C571 1.398 1_554 S
C572 C573 1.391 . S
C573 H561 0.950 . S
C573 C569 1.393 1_554 S
C573 C572 1.391 . S
C574 H564 0.950 . S
C574 C575 1.386 . S
C574 C576 1.391 1_545 S
C575 C574 1.386 . S
C575 C579 1.393 1_554 S
C576 H565 0.950 . S
C576 C574 1.391 1_565 S
C576 C577 1.400 1_554 S
C577 C571 1.491 . S
C577 C576 1.400 1_556 S
C577 C578 1.398 . S
C578 H566 0.950 . S
C578 C577 1.398 . S
C578 C579 1.391 1_565 S
C579 H567 0.950 . S
C579 C575 1.393 1_556 S
C579 C578 1.391 1_545 S
H580 C588 0.950 . S
H581 C593 0.950 . S
H582 C590 0.950 . S
H583 C592 0.950 . S
H584 C594 0.950 . S
H585 C596 0.950 . S
H586 C598 0.950 . S
H587 C599 0.950 1_545 S
C588 H580 0.950 . S
C588 C589 1.386 . S
C588 C590 1.391 1_554 S
C589 C588 1.386 . S
C589 C593 1.393 . S
C590 H582 0.950 . S
C590 C588 1.391 1_556 S
C590 C591 1.400 . S
C591 C590 1.400 . S
C591 C592 1.398 1_556 S
C591 C597 1.491 . S
C592 H583 0.950 . S
C592 C591 1.398 1_554 S
C592 C593 1.391 . S
C593 H581 0.950 . S
C593 C589 1.393 . S
C593 C592 1.391 . S
C594 H584 0.950 . S
C594 C595 1.386 . S
C594 C596 1.391 . S
C595 C594 1.386 . S
C595 C599 1.393 . S
C596 H585 0.950 . S
C596 C594 1.391 . S
C596 C597 1.400 . S
C597 C591 1.491 . S
C597 C596 1.400 . S
C597 C598 1.398 . S
C598 H586 0.950 . S
C598 C597 1.398 . S
C598 C599 1.391 . S
C599 H587 0.950 1_565 S
C599 C595 1.393 . S
C599 C598 1.391 . S
H600 C608 0.950 . S
H601 C613 0.950 . S
H602 C610 0.950 . S
H603 C612 0.950 . S
H604 C614 0.950 . S
H605 C616 0.950 . S
H606 C618 0.950 . S
H607 C619 0.950 . S
C608 H600 0.950 . S
C608 C609 1.386 . S
C608 C610 1.391 . S
C609 C608 1.386 . S
C609 C613 1.393 . S
C610 H602 0.950 . S
C610 C608 1.391 . S
C610 C611 1.400 . S
C611 C610 1.400 . S
C611 C612 1.398 . S
C611 C617 1.491 . S
C612 H603 0.950 . S
C612 C611 1.398 . S
C612 C613 1.391 . S
C613 H601 0.950 . S
C613 C609 1.393 . S
C613 C612 1.391 . S
C614 H604 0.950 . S
C614 C615 1.386 . S
C614 C616 1.391 . S
C615 C614 1.386 . S
C615 C619 1.393 . S
C616 H605 0.950 . S
C616 C614 1.391 . S
C616 C617 1.400 . S
C617 C611 1.491 . S
C617 C616 1.400 . S
C617 C618 1.398 . S
C618 H606 0.950 . S
C618 C617 1.398 . S
C618 C619 1.391 . S
C619 H607 0.950 . S
C619 C615 1.393 . S
C619 C618 1.391 . S
H620 C628 0.950 . S
H621 C633 0.950 . S
H622 C630 0.950 . S
H623 C632 0.950 . S
H624 C634 0.950 . S
H625 C636 0.950 . S
H626 C638 0.950 . S
H627 C639 0.950 . S
C628 H620 0.950 . S
C628 C629 1.386 . S
C628 C630 1.391 . S
C629 C628 1.386 . S
C629 C633 1.393 . S
C630 H622 0.950 . S
C630 C628 1.391 . S
C630 C631 1.400 . S
C631 C630 1.400 . S
C631 C632 1.398 . S
C631 C637 1.491 . S
C632 H623 0.950 . S
C632 C631 1.398 . S
C632 C633 1.391 . S
C633 H621 0.950 . S
C633 C629 1.393 . S
C633 C632 1.391 . S
C634 H624 0.950 . S
C634 C635 1.386 . S
C634 C636 1.391 . S
C635 C634 1.386 . S
C635 C639 1.393 . S
C636 H625 0.950 . S
C636 C634 1.391 . S
C636 C637 1.400 . S
C637 C631 1.491 . S
C637 C636 1.400 . S
C637 C638 1.398 . S
C638 H626 0.950 . S
C638 C637 1.398 . S
C638 C639 1.391 . S
C639 H627 0.950 . S
C639 C635 1.393 . S
C639 C638 1.391 . S
H640 C648 0.950 . S
H641 C653 0.950 . S
H642 C650 0.950 . S
H643 C652 0.950 . S
H644 C654 0.950 . S
H645 C656 0.950 . S
H646 C658 0.950 . S
H647 C659 0.950 . S
C648 H640 0.950 . S
C648 C649 1.386 . S
C648 C650 1.391 . S
C649 C648 1.386 . S
C649 C653 1.393 . S
C650 H642 0.950 . S
C650 C648 1.391 . S
C650 C651 1.400 . S
C651 C650 1.400 . S
C651 C652 1.398 . S
C651 C657 1.491 . S
C652 H643 0.950 . S
C652 C651 1.398 . S
C652 C653 1.391 . S
C653 H641 0.950 . S
C653 C649 1.393 . S
C653 C652 1.391 . S
C654 H644 0.950 . S
C654 C655 1.386 . S
C654 C656 1.391 . S
C655 C654 1.386 . S
C655 C659 1.393 . S
C656 H645 0.950 . S
C656 C654 1.391 . S
C656 C657 1.400 . S
C657 C651 1.491 . S
C657 C656 1.400 . S
C657 C658 1.398 . S
C658 H646 0.950 . S
C658 C657 1.398 . S
C658 C659 1.391 . S
C659 H647 0.950 . S
C659 C655 1.393 . S
C659 C658 1.391 . S
H660 C668 0.950 . S
H661 C673 0.950 . S
H662 C670 0.950 . S
H663 C672 0.950 . S
H664 C674 0.950 . S
H665 C676 0.950 . S
H666 C678 0.950 . S
H667 C679 0.950 . S
C668 H660 0.950 . S
C668 C669 1.386 . S
C668 C670 1.391 . S
C669 C668 1.386 . S
C669 C673 1.393 . S
C670 H662 0.950 . S
C670 C668 1.391 . S
C670 C671 1.400 . S
C671 C670 1.400 . S
C671 C672 1.398 . S
C671 C677 1.491 . S
C672 H663 0.950 . S
C672 C671 1.398 . S
C672 C673 1.391 . S
C673 H661 0.950 . S
C673 C669 1.393 . S
C673 C672 1.391 . S
C674 H664 0.950 . S
C674 C675 1.386 . S
C674 C676 1.391 . S
C675 C674 1.386 . S
C675 C679 1.393 . S
C676 H665 0.950 . S
C676 C674 1.391 . S
C676 C677 1.400 . S
C677 C671 1.491 . S
C677 C676 1.400 . S
C677 C678 1.398 . S
C678 H666 0.950 . S
C678 C677 1.398 . S
C678 C679 1.391 . S
C679 H667 0.950 . S
C679 C675 1.393 . S
C679 C678 1.391 . S
H680 C688 0.950 . S
H681 C693 0.950 . S
H682 C690 0.950 . S
H683 C692 0.950 . S
H684 C694 0.950 . S
H685 C696 0.950 . S
H686 C698 0.950 . S
H687 C699 0.950 . S
C688 H680 0.950 . S
C688 C689 1.386 . S
C688 C690 1.391 . S
C689 C688 1.386 . S
C689 C693 1.393 . S
C690 H682 0.950 . S
C690 C688 1.391 . S
C690 C691 1.400 . S
C691 C690 1.400 . S
C691 C692 1.398 . S
C691 C697 1.491 . S
C692 H683 0.950 . S
C692 C691 1.398 . S
C692 C693 1.391 . S
C693 H681 0.950 . S
C693 C689 1.393 . S
C693 C692 1.391 . S
C694 H684 0.950 . S
C694 C695 1.386 . S
C694 C696 1.391 . S
C695 C694 1.386 . S
C695 C699 1.393 . S
C696 H685 0.950 . S
C696 C694 1.391 . S
C696 C697 1.400 . S
C697 C691 1.491 . S
C697 C696 1.400 . S
C697 C698 1.398 . S
C698 H686 0.950 . S
C698 C697 1.398 . S
C698 C699 1.391 . S
C699 H687 0.950 . S
C699 C695 1.393 . S
C699 C698 1.391 . S
H700 C708 0.950 . S
H701 C713 0.950 . S
H702 C710 0.950 . S
H703 C712 0.950 . S
H704 C714 0.950 . S
H705 C716 0.950 . S
H706 C718 0.950 . S
H707 C719 0.950 . S
C708 H700 0.950 . S
C708 C709 1.386 . S
C708 C710 1.391 . S
C709 C708 1.386 . S
C709 C713 1.393 . S
C710 H702 0.950 . S
C710 C708 1.391 . S
C710 C711 1.400 . S
C711 C710 1.400 . S
C711 C712 1.398 . S
C711 C717 1.491 . S
C712 H703 0.950 . S
C712 C711 1.398 . S
C712 C713 1.391 . S
C713 H701 0.950 . S
C713 C709 1.393 . S
C713 C712 1.391 . S
C714 H704 0.950 . S
C714 C715 1.386 . S
C714 C716 1.391 . S
C715 C714 1.386 . S
C715 C719 1.393 . S
C716 H705 0.950 . S
C716 C714 1.391 . S
C716 C717 1.400 . S
C717 C711 1.491 . S
C717 C716 1.400 . S
C717 C718 1.398 . S
C718 H706 0.950 . S
C718 C717 1.398 . S
C718 C719 1.391 . S
C719 H707 0.950 . S
C719 C715 1.393 . S
C719 C718 1.391 . S
H720 C728 0.950 . S
H721 C733 0.950 1_655 S
H722 C730 0.950 . S
H723 C732 0.950 1_655 S
H724 C734 0.950 1_655 S
H725 C736 0.950 1_655 S
H726 C738 0.950 . S
H727 C739 0.950 . S
C728 H720 0.950 . S
C728 C729 1.386 . S
C728 C730 1.391 . S
C729 C728 1.386 . S
C729 C733 1.393 . S
C730 H722 0.950 . S
C730 C728 1.391 . S
C730 C731 1.400 . S
C731 C730 1.400 . S
C731 C732 1.398 . S
C731 C737 1.491 . S
C732 H723 0.950 1_455 S
C732 C731 1.398 . S
C732 C733 1.391 . S
C733 H721 0.950 1_455 S
C733 C729 1.393 . S
C733 C732 1.391 . S
C734 H724 0.950 1_455 S
C734 C735 1.386 . S
C734 C736 1.391 . S
C735 C734 1.386 . S
C735 C739 1.393 . S
C736 H725 0.950 1_455 S
C736 C734 1.391 . S
C736 C737 1.400 . S
C737 C731 1.491 . S
C737 C736 1.400 . S
C737 C738 1.398 . S
C738 H726 0.950 . S
C738 C737 1.398 . S
C738 C739 1.391 . S
C739 H727 0.950 . S
C739 C735 1.393 . S
C739 C738 1.391 . S
H740 C748 0.950 . S
H741 C753 0.950 . S
H742 C750 0.950 . S
H743 C752 0.950 . S
H744 C754 0.950 . S
H745 C756 0.950 . S
H746 C758 0.950 . S
H747 C759 0.950 . S
C748 H740 0.950 . S
C748 C749 1.386 . S
C748 C750 1.391 . S
C749 C748 1.386 . S
C749 C753 1.393 . S
C750 H742 0.950 . S
C750 C748 1.391 . S
C750 C751 1.400 . S
C751 C750 1.400 . S
C751 C752 1.398 . S
C751 C757 1.491 . S
C752 H743 0.950 . S
C752 C751 1.398 . S
C752 C753 1.391 . S
C753 H741 0.950 . S
C753 C749 1.393 . S
C753 C752 1.391 . S
C754 H744 0.950 . S
C754 C755 1.386 . S
C754 C756 1.391 . S
C755 C754 1.386 . S
C755 C759 1.393 . S
C756 H745 0.950 . S
C756 C754 1.391 . S
C756 C757 1.400 . S
C757 C751 1.491 . S
C757 C756 1.400 . S
C757 C758 1.398 . S
C758 H746 0.950 . S
C758 C757 1.398 . S
C758 C759 1.391 . S
C759 H747 0.950 . S
C759 C755 1.393 . S
C759 C758 1.391 . S
H760 C768 0.950 1_565 S
H761 C773 0.950 . S
H762 C770 0.918 1_565 S
H763 C772 0.950 . S
H764 C774 0.950 . S
H765 C776 0.950 . S
H766 C778 0.986 . S
H767 C779 0.950 . S
C768 H760 0.950 1_545 S
C768 C769 1.386 . S
C768 C770 1.394 . S
C769 C768 1.386 . S
C769 C773 1.393 . S
C770 H762 0.918 1_545 S
C770 C768 1.394 . S
C770 C771 1.429 . S
C771 C770 1.429 . S
C771 C772 1.398 . S
C771 C777 1.491 . S
C772 H763 0.950 . S
C772 C771 1.398 . S
C772 C773 1.391 . S
C773 H761 0.950 . S
C773 C769 1.393 . S
C773 C772 1.391 . S
C774 H764 0.950 . S
C774 C775 1.386 . S
C774 C776 1.391 . S
C775 C774 1.386 . S
C775 C779 1.393 1_545 S
C776 H765 0.950 . S
C776 C774 1.391 . S
C776 C777 1.400 . S
C777 C771 1.491 . S
C777 C776 1.400 . S
C777 C778 1.359 1_545 S
C778 H766 0.986 . S
C778 C777 1.359 1_565 S
C778 C779 1.395 . S
C779 H767 0.950 . S
C779 C775 1.393 1_565 S
C779 C778 1.395 . S
H780 C788 0.950 . S
H781 C793 0.950 . S
H782 C790 0.950 . S
H783 C792 0.950 . S
H784 C794 0.950 . S
H785 C796 0.950 . S
H786 C798 0.950 . S
H787 C799 0.950 . S
C788 H780 0.950 . S
C788 C789 1.386 . S
C788 C790 1.391 . S
C789 C788 1.386 . S
C789 C793 1.393 . S
C790 H782 0.950 . S
C790 C788 1.391 . S
C790 C791 1.400 . S
C791 C790 1.400 . S
C791 C792 1.398 . S
C791 C797 1.491 . S
C792 H783 0.950 . S
C792 C791 1.398 . S
C792 C793 1.391 . S
C793 H781 0.950 . S
C793 C789 1.393 . S
C793 C792 1.391 . S
C794 H784 0.950 . S
C794 C795 1.386 . S
C794 C796 1.391 1_554 S
C795 C794 1.386 . S
C795 C799 1.393 . S
C796 H785 0.950 . S
C796 C794 1.391 1_556 S
C796 C797 1.400 . S
C797 C791 1.491 . S
C797 C796 1.400 . S
C797 C798 1.398 . S
C798 H786 0.950 . S
C798 C797 1.398 . S
C798 C799 1.391 1_556 S
C799 H787 0.950 . S
C799 C795 1.393 . S
C799 C798 1.391 1_554 S
H800 C808 0.950 . S
H801 C813 0.950 . S
H802 C810 0.950 . S
H803 C812 0.950 . S
H804 C814 0.950 . S
H805 C816 0.950 . S
H806 C818 0.950 . S
H807 C819 0.950 . S
C808 H800 0.950 . S
C808 C809 1.386 . S
C808 C810 1.391 . S
C809 C808 1.386 . S
C809 C813 1.393 . S
C810 H802 0.950 . S
C810 C808 1.391 . S
C810 C811 1.400 . S
C811 C810 1.400 . S
C811 C812 1.398 . S
C811 C817 1.491 . S
C812 H803 0.950 . S
C812 C811 1.398 . S
C812 C813 1.391 . S
C813 H801 0.950 . S
C813 C809 1.393 . S
C813 C812 1.391 . S
C814 H804 0.950 . S
C814 C815 1.386 . S
C814 C816 1.391 1_554 S
C815 C814 1.386 . S
C815 C819 1.393 . S
C816 H805 0.950 . S
C816 C814 1.391 1_556 S
C816 C817 1.400 . S
C817 C811 1.491 . S
C817 C816 1.400 . S
C817 C818 1.398 . S
C818 H806 0.950 . S
C818 C817 1.398 . S
C818 C819 1.391 1_556 S
C819 H807 0.950 . S
C819 C815 1.393 . S
C819 C818 1.391 1_554 S
H820 C828 0.950 . S
H821 C833 0.950 . S
H822 C830 0.950 . S
H823 C832 0.950 . S
H824 C834 0.950 . S
H825 C836 0.950 . S
H826 C838 0.950 . S
H827 C839 0.950 . S
C828 H820 0.950 . S
C828 C829 1.386 . S
C828 C830 1.391 . S
C829 C828 1.386 . S
C829 C833 1.393 . S
C830 H822 0.950 . S
C830 C828 1.391 . S
C830 C831 1.400 . S
C831 C830 1.400 . S
C831 C832 1.398 . S
C831 C837 1.491 . S
C832 H823 0.950 . S
C832 C831 1.398 . S
C832 C833 1.391 . S
C833 H821 0.950 . S
C833 C829 1.393 . S
C833 C832 1.391 . S
C834 H824 0.950 . S
C834 C835 1.386 . S
C834 C836 1.391 1_554 S
C835 C834 1.386 . S
C835 C839 1.393 . S
C836 H825 0.950 . S
C836 C834 1.391 1_556 S
C836 C837 1.400 . S
C837 C831 1.491 . S
C837 C836 1.400 . S
C837 C838 1.398 . S
C838 H826 0.950 . S
C838 C837 1.398 . S
C838 C839 1.391 1_556 S
C839 H827 0.950 . S
C839 C835 1.393 . S
C839 C838 1.391 1_554 S
H840 C848 0.950 . S
H841 C853 0.950 . S
H842 C850 0.950 . S
H843 C852 0.950 . S
H844 C854 0.950 . S
H845 C856 0.950 . S
H846 C858 0.950 . S
H847 C859 0.950 . S
C848 H840 0.950 . S
C848 C849 1.386 . S
C848 C850 1.391 . S
C849 C848 1.386 . S
C849 C853 1.393 . S
C850 H842 0.950 . S
C850 C848 1.391 . S
C850 C851 1.400 . S
C851 C850 1.400 . S
C851 C852 1.398 . S
C851 C857 1.491 . S
C852 H843 0.950 . S
C852 C851 1.398 . S
C852 C853 1.391 . S
C853 H841 0.950 . S
C853 C849 1.393 . S
C853 C852 1.391 . S
C854 H844 0.950 . S
C854 C855 1.386 . S
C854 C856 1.391 1_556 S
C855 C854 1.386 . S
C855 C859 1.393 . S
C856 H845 0.950 . S
C856 C854 1.391 1_554 S
C856 C857 1.400 . S
C857 C851 1.491 . S
C857 C856 1.400 . S
C857 C858 1.398 . S
C858 H846 0.950 . S
C858 C857 1.398 . S
C858 C859 1.391 1_554 S
C859 H847 0.950 . S
C859 C855 1.393 . S
C859 C858 1.391 1_556 S
H860 C868 0.950 . S
H861 C873 0.950 . S
H862 C870 0.950 . S
H863 C872 0.950 . S
H864 C874 0.950 . S
H865 C876 0.950 . S
H866 C878 0.950 . S
H867 C879 0.950 . S
C868 H860 0.950 . S
C868 C869 1.386 . S
C868 C870 1.391 1_556 S
C869 C868 1.386 . S
C869 C873 1.393 . S
C870 H862 0.950 . S
C870 C868 1.391 1_554 S
C870 C871 1.400 . S
C871 C870 1.400 . S
C871 C872 1.398 . S
C871 C877 1.491 . S
C872 H863 0.950 . S
C872 C871 1.398 . S
C872 C873 1.391 1_554 S
C873 H861 0.950 . S
C873 C869 1.393 . S
C873 C872 1.391 1_556 S
C874 H864 0.950 . S
C874 C875 1.386 . S
C874 C876 1.391 . S
C875 C874 1.386 . S
C875 C879 1.393 . S
C876 H865 0.950 . S
C876 C874 1.391 . S
C876 C877 1.400 . S
C877 C871 1.491 . S
C877 C876 1.400 . S
C877 C878 1.398 . S
C878 H866 0.950 . S
C878 C877 1.398 . S
C878 C879 1.391 . S
C879 H867 0.950 . S
C879 C875 1.393 . S
C879 C878 1.391 . S
H880 C888 0.950 . S
H881 C893 0.950 . S
H882 C890 0.950 . S
H883 C892 0.950 . S
H884 C894 0.950 . S
H885 C896 0.950 . S
H886 C898 0.950 . S
H887 C899 0.950 . S
C888 H880 0.950 . S
C888 C889 1.386 . S
C888 C890 1.391 . S
C889 C888 1.386 . S
C889 C893 1.393 . S
C890 H882 0.950 . S
C890 C888 1.391 . S
C890 C891 1.400 . S
C891 C890 1.400 . S
C891 C892 1.398 . S
C891 C897 1.491 . S
C892 H883 0.950 . S
C892 C891 1.398 . S
C892 C893 1.391 . S
C893 H881 0.950 . S
C893 C889 1.393 . S
C893 C892 1.391 . S
C894 H884 0.950 . S
C894 C895 1.386 . S
C894 C896 1.391 1_556 S
C895 C894 1.386 . S
C895 C899 1.393 . S
C896 H885 0.950 . S
C896 C894 1.391 1_554 S
C896 C897 1.400 . S
C897 C891 1.491 . S
C897 C896 1.400 . S
C897 C898 1.398 . S
C898 H886 0.950 . S
C898 C897 1.398 . S
C898 C899 1.391 1_554 S
C899 H887 0.950 . S
C899 C895 1.393 . S
C899 C898 1.391 1_556 S
C369 C6 2.002 1_556 S
C375 C290 2.059 . S
C389 C46 2.001 1_556 S
C395 C330 2.052 . S
C409 C86 1.993 1_556 S
C415 C250 2.056 . S
C429 C166 1.995 . S
C435 C90 2.050 . S
C449 C206 2.005 . S
C455 C10 2.060 . S
C469 C50 2.051 . S
C475 C126 1.988 . S
C489 C286 1.988 . S
C495 C210 2.052 . S
C509 C326 2.000 . S
C515 C130 2.052 . S
C529 C170 2.053 . S
C535 C246 1.989 1_545 S
C549 C95 1.691 . S
C555 C19 1.686 . S
C569 C59 1.682 . S
C575 C15 1.692 . S
C589 C55 1.690 1_455 S
C595 C99 1.686 . S
C609 C139 1.680 . S
C615 C215 1.694 . S
C629 C135 1.693 . S
C635 C179 1.681 . S
C649 C175 1.688 . S
C655 C219 1.684 . S
C669 C335 1.688 . S
C675 C259 1.685 . S
C689 C299 1.676 . S
C695 C255 1.694 . S
C709 C339 1.673 . S
C715 C295 1.690 . S
C729 C9 0.938 . S
C735 C18 0.938 . S
C749 C49 0.951 . S
C755 C58 0.951 . S
C769 C89 0.945 . S
C775 C98 0.945 . S
C789 C138 0.961 . S
C795 C129 0.961 . S
C809 C178 0.953 . S
C815 C169 0.953 . S
C829 C218 0.934 . S
C835 C209 0.934 . S
C849 C249 0.956 . S
C855 C258 0.956 . S
C869 C298 0.965 . S
C875 C289 0.965 . S
C889 C329 0.952 . S
C895 C338 0.952 . S
