# Generated by pormake.
# Topology vby, (6)-cn, num edge types: 1
# Building blocks:
#     Node 0, Type 0, BuildingBlock: JUFBIX_clean_sbu_0, # of connection points: 6
#     Node 1, Type 0, BuildingBlock: JUFBIX_clean_sbu_0, # of connection points: 6
#     Node 2, Type 0, BuildingBlock: JUFBIX_clean_sbu_0, # of connection points: 6
#     Node 3, Type 0, BuildingBlock: JUFBIX_clean_sbu_0, # of connection points: 6
#     Node 4, Type 0, BuildingBlock: JUFBIX_clean_sbu_0, # of connection points: 6
#     Node 5, Type 0, BuildingBlock: JUFBIX_clean_sbu_0, # of connection points: 6
#     Node 6, Type 0, BuildingBlock: JUFBIX_clean_sbu_0, # of connection points: 6
#     Node 7, Type 0, BuildingBlock: JUFBIX_clean_sbu_0, # of connection points: 6
#     Edge 8, Type (0, 0), BuildingBlock: UVAHIK_clean_linker_0, # of connection points: 2
#     Edge 9, Type (0, 0), BuildingBlock: UVAHIK_clean_linker_0, # of connection points: 2
#     Edge 10, Type (0, 0), BuildingBlock: UVAHIK_clean_linker_0, # of connection points: 2
#     Edge 11, Type (0, 0), BuildingBlock: UVAHIK_clean_linker_0, # of connection points: 2
#     Edge 12, Type (0, 0), BuildingBlock: UVAHIK_clean_linker_0, # of connection points: 2
#     Edge 13, Type (0, 0), BuildingBlock: UVAHIK_clean_linker_0, # of connection points: 2
#     Edge 14, Type (0, 0), BuildingBlock: UVAHIK_clean_linker_0, # of connection points: 2
#     Edge 15, Type (0, 0), BuildingBlock: UVAHIK_clean_linker_0, # of connection points: 2
#     Edge 16, Type (0, 0), BuildingBlock: UVAHIK_clean_linker_0, # of connection points: 2
#     Edge 17, Type (0, 0), BuildingBlock: UVAHIK_clean_linker_0, # of connection points: 2
#     Edge 18, Type (0, 0), BuildingBlock: UVAHIK_clean_linker_0, # of connection points: 2
#     Edge 19, Type (0, 0), BuildingBlock: UVAHIK_clean_linker_0, # of connection points: 2
#     Edge 20, Type (0, 0), BuildingBlock: UVAHIK_clean_linker_0, # of connection points: 2
#     Edge 21, Type (0, 0), BuildingBlock: UVAHIK_clean_linker_0, # of connection points: 2
#     Edge 22, Type (0, 0), BuildingBlock: UVAHIK_clean_linker_0, # of connection points: 2
#     Edge 23, Type (0, 0), BuildingBlock: UVAHIK_clean_linker_0, # of connection points: 2
#     Edge 24, Type (0, 0), BuildingBlock: UVAHIK_clean_linker_0, # of connection points: 2
#     Edge 25, Type (0, 0), BuildingBlock: UVAHIK_clean_linker_0, # of connection points: 2
#     Edge 26, Type (0, 0), BuildingBlock: UVAHIK_clean_linker_0, # of connection points: 2
#     Edge 27, Type (0, 0), BuildingBlock: UVAHIK_clean_linker_0, # of connection points: 2
#     Edge 28, Type (0, 0), BuildingBlock: UVAHIK_clean_linker_0, # of connection points: 2
#     Edge 29, Type (0, 0), BuildingBlock: UVAHIK_clean_linker_0, # of connection points: 2
#     Edge 30, Type (0, 0), BuildingBlock: UVAHIK_clean_linker_0, # of connection points: 2
#     Edge 31, Type (0, 0), BuildingBlock: UVAHIK_clean_linker_0, # of connection points: 2
# Relax obj value: 0.128
# Max RMSD: 0.146
# Mean RMSD: 0.146
data_MOF--net-vby--node1-JUFBIX_clean_sbu_0--edge1-UVAHIK_clean_linker_0
_symmetry_space_group_name_H-M    P1
_symmetry_Int_Tables_number       1
_symmetry_cell_setting            triclinic
loop_
_symmetry_equiv_pos_as_xyz
'x, y, z'
_cell_length_a     23.957004
_cell_length_b     72.774761
_cell_length_c     38.068287
_cell_angle_alpha  89.934751
_cell_angle_beta   93.671146
_cell_angle_gamma 90.038968
loop_
_atom_site_label
_atom_site_type_symbol
_atom_site_fract_x
_atom_site_fract_y
_atom_site_fract_z
_atom_type_partial_charge
Co0 Co 0.03944 0.36751 1.00233 0.0
C1 C 0.08996 0.37249 0.93923 0.0
Co2 Co 0.12523 0.37868 0.00903 0.0
C3 C 0.91934 0.36484 1.00564 0.0
C4 C 0.95314 0.34283 0.97642 0.0
N5 N 0.9679 0.35798 0.99513 0.0
N6 N 0.87476 0.35459 0.99413 0.0
C7 C 0.89607 0.3407 0.97579 0.0
H8 H 0.91685 0.37717 0.02132 0.0
H9 H 0.98194 0.33412 0.96335 0.0
C10 C 0.07087 0.37383 0.07191 0.0
N11 N 0.19688 0.38818 0.01636 0.0
C12 C 0.24542 0.38143 1.00559 0.0
C13 C 0.21181 0.40302 0.03596 0.0
N14 N 0.2901 0.39144 0.01779 0.0
C15 C 0.26892 0.40509 0.03681 0.0
C16 C 0.04531 0.40573 1.00016 0.0
O17 O 0.03139 0.3682 0.05087 0.0
O18 O 0.11678 0.37887 0.05956 0.0
O19 O 0.09693 0.40234 1.0053 0.0
O20 O 0.01047 0.39246 0.99815 0.0
O21 O 0.13155 0.37857 0.95841 0.0
H22 H 0.18311 0.41153 0.04953 0.0
H23 H 0.24789 0.36928 0.9894 0.0
O24 O 0.04691 0.36684 0.95364 0.0
O25 O 0.0703 0.34286 1.00668 0.0
O26 O 0.15416 0.35489 0.01251 0.0
C27 C 0.12317 0.34078 0.01086 0.0
H28 H 0.87205 0.33006 0.96189 0.0
H29 H 0.29308 0.41545 0.05141 0.0
Co30 Co 0.89345 0.62674 0.02428 0.0
C31 C 0.9492 0.63216 0.96215 0.0
Co32 Co 0.97934 0.63771 0.03222 0.0
C33 C 0.77322 0.62407 0.02715 0.0
C34 C 0.80671 0.60296 0.99556 0.0
N35 N 0.82173 0.61746 0.01606 0.0
N36 N 0.72847 0.61429 0.01429 0.0
C37 C 0.74956 0.60095 0.99449 0.0
H38 H 0.77085 0.63593 0.04411 0.0
H39 H 0.8354 0.59464 0.98158 0.0
C40 C 0.92732 0.63221 0.09453 0.0
N41 N 0.05096 0.64704 0.04028 0.0
C42 C 0.09948 0.64032 0.02944 0.0
C43 C 0.06582 0.66187 0.05988 0.0
N44 N 0.14414 0.65035 0.04159 0.0
C45 C 0.12294 0.66396 0.0607 0.0
C46 C 0.89622 0.66464 0.02408 0.0
O47 O 0.88601 0.62643 0.07476 0.0
O48 O 0.97096 0.63787 0.08083 0.0
O49 O 0.949 0.66246 0.02866 0.0
O50 O 0.86507 0.65059 0.02143 0.0
O51 O 0.98829 0.63753 0.98375 0.0
H52 H 0.03705 0.67041 0.07335 0.0
H53 H 0.10185 0.62825 0.01301 0.0
O54 O 0.90294 0.62702 0.97387 0.0
O55 O 0.9212 0.603 0.02741 0.0
O56 O 0.00777 0.61267 0.03565 0.0
C57 C 0.9727 0.59948 0.03288 0.0
H58 H 0.72535 0.59083 0.97927 0.0
H59 H 0.14702 0.67437 0.07521 0.0
Co60 Co 0.12118 0.62935 0.53285 0.0
C61 C 0.06525 0.63622 0.59394 0.0
Co62 Co 0.03537 0.64003 0.52306 0.0
C63 C 0.24125 0.62647 0.52953 0.0
C64 C 0.2086 0.60661 0.5643 0.0
N65 N 0.19306 0.62034 0.54197 0.0
N66 N 0.28627 0.61713 0.54329 0.0
C67 C 0.26572 0.60457 0.56509 0.0
H68 H 0.24319 0.63768 0.51094 0.0
H69 H 0.1803 0.59884 0.57965 0.0
C70 C 0.08777 0.63296 0.46179 0.0
N71 N 0.96365 0.6491 0.51397 0.0
C72 C 0.91498 0.64253 0.52494 0.0
C73 C 0.94891 0.66355 0.4932 0.0
N74 N 0.87036 0.65228 0.51176 0.0
C75 C 0.89176 0.66555 0.49183 0.0
C76 C 0.11808 0.6672 0.52875 0.0
O77 O 0.12822 0.62725 0.48238 0.0
O78 O 0.04436 0.63935 0.47461 0.0
O79 O 0.06527 0.66487 0.52494 0.0
O80 O 0.14947 0.65325 0.53231 0.0
O81 O 0.02583 0.64068 0.57171 0.0
H82 H 0.97782 0.67186 0.47932 0.0
H83 H 0.91247 0.63078 0.5422 0.0
O84 O 0.11215 0.63134 0.58288 0.0
O85 O 0.09342 0.60559 0.53363 0.0
O86 O 1.00738 0.6149 0.52121 0.0
C87 C 0.04209 0.60188 0.52784 0.0
H88 H 0.29032 0.595 0.58142 0.0
H89 H 0.8678 0.67565 0.47641 0.0
Co90 Co 0.98284 0.36877 0.51115 0.0
C91 C 0.9294 0.37615 0.57183 0.0
Co92 Co 0.89701 0.37933 0.50047 0.0
C93 C 0.10327 0.36632 0.50965 0.0
C94 C 0.06935 0.34555 0.54197 0.0
N95 N 0.0546 0.35982 0.52076 0.0
N96 N 0.14792 0.35669 0.52317 0.0
C97 C 0.12653 0.34358 0.54348 0.0
H98 H 0.10575 0.37792 0.49201 0.0
H99 H 0.04043 0.33733 0.55602 0.0
C100 C 0.95399 0.37216 0.43997 0.0
N101 N 0.8251 0.38822 0.4908 0.0
C102 C 0.77681 0.38218 0.50324 0.0
C103 C 0.8097 0.40179 0.46806 0.0
N104 N 0.73185 0.39142 0.48911 0.0
C105 C 0.75255 0.40382 0.46703 0.0
C106 C 0.97579 0.4069 0.50554 0.0
O107 O 0.99299 0.3678 0.46257 0.0
O108 O 0.90688 0.37714 0.45056 0.0
O109 O 0.92455 0.40312 0.49953 0.0
O110 O 0.01056 0.39393 0.51254 0.0
O111 O 0.88912 0.3816 0.55083 0.0
H112 H 0.83811 0.40946 0.45263 0.0
H113 H 0.77476 0.37112 0.52215 0.0
O114 O 0.97326 0.36979 0.55953 0.0
O115 O 0.9531 0.34389 0.50972 0.0
O116 O 0.86897 0.35545 0.50121 0.0
C117 C 0.90033 0.34153 0.50545 0.0
H118 H 0.15051 0.3336 0.55919 0.0
H119 H 0.72806 0.41328 0.45041 0.0
Co120 Co 0.52861 0.86621 0.02226 0.0
C121 C 0.57493 0.87278 0.95868 0.0
Co122 Co 0.61423 0.87755 0.02818 0.0
C123 C 0.40845 0.86337 0.02607 0.0
C124 C 0.44235 0.84144 0.9967 0.0
N125 N 0.45708 0.85653 0.0156 0.0
N126 N 0.36388 0.85317 0.01432 0.0
C127 C 0.38527 0.83932 0.99592 0.0
H128 H 0.40585 0.8757 0.04171 0.0
H129 H 0.47111 0.83282 0.98341 0.0
C130 C 0.56332 0.87119 0.09146 0.0
N131 N 0.68595 0.88716 0.03475 0.0
C132 C 0.73398 0.8807 0.02266 0.0
C133 C 0.70165 0.90163 0.05516 0.0
N134 N 0.77903 0.89054 0.03484 0.0
C135 C 0.75866 0.90377 0.05519 0.0
C136 C 0.53326 0.90442 0.02455 0.0
O137 O 0.52291 0.86597 0.07074 0.0
O138 O 0.6088 0.87635 0.07873 0.0
O139 O 0.5851 0.90112 0.02825 0.0
O140 O 0.4989 0.8911 0.02025 0.0
O141 O 0.61731 0.87885 0.9772 0.0
H142 H 0.67364 0.90977 0.06999 0.0
H143 H 0.73587 0.86885 1.00565 0.0
O144 O 0.53361 0.86652 0.974 0.0
O145 O 0.56024 0.84162 0.02436 0.0
O146 O 0.64388 0.85385 0.02841 0.0
C147 C 0.61324 0.83967 0.02673 0.0
H148 H 0.36129 0.82878 0.98171 0.0
H149 H 0.78338 0.91383 0.07023 0.0
Co150 Co 0.39457 0.12706 0.99813 0.0
C151 C 0.45144 0.13524 0.93792 0.0
Co152 Co 0.48107 0.13701 0.00899 0.0
C153 C 0.27443 0.12415 1.0007 0.0
C154 C 0.30724 0.1052 0.96436 0.0
N155 N 0.32267 0.11836 0.98792 0.0
N156 N 0.22946 0.11514 0.98599 0.0
C157 C 0.25011 0.10316 0.96317 0.0
H158 H 0.27242 0.13487 0.02028 0.0
H159 H 0.33564 0.09783 0.94848 0.0
C160 C 0.42818 0.12829 0.06931 0.0
N161 N 0.55286 0.14576 0.01915 0.0
C162 C 0.60141 0.13962 1.00736 0.0
C163 C 0.56775 0.15946 0.04164 0.0
N164 N 0.64612 0.14893 0.02168 0.0
C165 C 0.62491 0.16146 0.04322 0.0
C166 C 0.39893 0.1646 1.00569 0.0
O167 O 0.38639 0.1242 0.04831 0.0
O168 O 0.47254 0.13434 0.05714 0.0
O169 O 0.45153 0.16193 0.01027 0.0
O170 O 0.36704 0.15092 0.99989 0.0
O171 O 0.4905 0.13942 0.96059 0.0
H172 H 0.53894 0.16725 0.05653 0.0
H173 H 0.60379 0.12849 0.98868 0.0
O174 O 0.40463 0.12986 0.94841 0.0
O175 O 0.42165 0.10319 0.99617 0.0
O176 O 0.5085 0.11195 1.00769 0.0
C177 C 0.47295 0.09919 1.0009 0.0
H178 H 0.22558 0.09399 0.94596 0.0
H179 H 0.64901 0.17102 0.05983 0.0
Co180 Co 0.61854 0.1287 0.50646 0.0
C181 C 0.56536 0.13272 0.57013 0.0
Co182 Co 0.53267 0.13995 0.50142 0.0
C183 C 0.73928 0.12589 0.50396 0.0
C184 C 0.70379 0.10334 0.53093 0.0
N185 N 0.68999 0.11884 0.513 0.0
N186 N 0.7833 0.11547 0.51583 0.0
C187 C 0.76086 0.1012 0.53263 0.0
H188 H 0.74287 0.13879 0.49014 0.0
H189 H 0.6743 0.09436 0.54282 0.0
C190 C 0.58176 0.1359 0.43745 0.0
N191 N 0.46134 0.1498 0.49495 0.0
C192 C 0.41211 0.1427 0.50393 0.0
C193 C 0.44757 0.16549 0.47761 0.0
N194 N 0.36812 0.15327 0.49261 0.0
C195 C 0.39051 0.16766 0.47618 0.0
C196 C 0.61745 0.16647 0.51033 0.0
O197 O 0.62415 0.1297 0.45577 0.0
O198 O 0.53917 0.14108 0.45287 0.0
O199 O 0.56453 0.16448 0.5064 0.0
O200 O 0.64823 0.15232 0.51115 0.0
O201 O 0.52556 0.13878 0.54983 0.0
H202 H 0.47706 0.17457 0.46601 0.0
H203 H 0.40855 0.12971 0.51747 0.0
O204 O 0.61072 0.12772 0.55707 0.0
O205 O 0.58931 0.10516 0.5015 0.0
O206 O 0.50284 0.11514 0.49665 0.0
C207 C 0.53751 0.10184 0.49726 0.0
H208 H 0.78395 0.09006 0.54556 0.0
H209 H 0.36739 0.17895 0.46376 0.0
Co210 Co 0.48013 0.86976 0.52695 0.0
C211 C 0.42899 0.87411 0.58991 0.0
Co212 Co 0.39398 0.88065 0.52059 0.0
C213 C 0.60076 0.86718 0.52533 0.0
C214 C 0.56541 0.84485 0.55306 0.0
N215 N 0.55157 0.86019 0.53462 0.0
N216 N 0.64481 0.85686 0.53749 0.0
C217 C 0.62251 0.84276 0.55484 0.0
H218 H 0.60421 0.8799 0.51087 0.0
H219 H 0.53591 0.83594 0.56509 0.0
C220 C 0.44969 0.8765 0.45803 0.0
N221 N 0.32244 0.89021 0.5129 0.0
C222 C 0.27327 0.88327 0.52234 0.0
C223 C 0.30846 0.90535 0.49388 0.0
N224 N 0.22912 0.8934 0.50969 0.0
C225 C 0.25134 0.90736 0.49192 0.0
C226 C 0.47387 0.90786 0.53009 0.0
O227 O 0.48883 0.87059 0.47898 0.0
O228 O 0.40356 0.88139 0.47021 0.0
O229 O 0.42225 0.90434 0.52537 0.0
O230 O 0.50902 0.8947 0.53137 0.0
O231 O 0.38668 0.87997 0.57109 0.0
H232 H 0.33789 0.91416 0.48153 0.0
H233 H 0.26989 0.87064 0.53711 0.0
O234 O 0.47215 0.86901 0.57508 0.0
O235 O 0.44933 0.84511 0.52237 0.0
O236 O 0.36517 0.85685 0.51609 0.0
C237 C 0.39657 0.84285 0.51784 0.0
H238 H 0.6457 0.83172 0.56803 0.0
H239 H 0.22808 0.91824 0.47824 0.0
C240 C 0.36724 0.36973 1.00823 0.0
C241 C 0.34848 0.38774 0.01366 0.0
C242 C 0.42423 0.36609 1.006 0.0
C243 C 0.56398 0.38549 0.0307 0.0
H244 H 0.61421 0.35048 0.96283 0.0
C245 C 0.79733 0.37619 1.00386 0.0
C246 C 0.81636 0.35819 0.9985 0.0
C247 C 0.74035 0.37972 1.00637 0.0
C248 C 0.60084 0.36014 0.98222 0.0
H249 H 0.37489 0.41612 0.01979 0.0
H250 H 0.47409 0.40981 0.01577 0.0
H251 H 0.51457 0.3568 0.96508 0.0
H252 H 0.79033 0.32974 0.9929 0.0
H253 H 0.69115 0.3359 0.99731 0.0
H254 H 0.65026 0.38884 0.0478 0.0
C255 C 0.44488 0.39843 0.01395 0.0
C256 C 0.5437 0.36376 0.98349 0.0
C257 C 0.38797 0.40206 0.0162 0.0
C258 C 0.7771 0.3438 0.99637 0.0
C259 C 0.72018 0.34733 0.99887 0.0
C260 C 0.62111 0.38187 0.02941 0.0
C261 C 0.46379 0.38038 0.00911 0.0
C262 C 0.52457 0.37649 1.00772 0.0
C263 C 0.70104 0.36535 1.00361 0.0
C264 C 0.64024 0.36915 1.00516 0.0
H265 H 0.33812 0.35834 1.00666 0.0
H266 H 0.43742 0.352 1.00269 0.0
H267 H 0.55061 0.39514 0.05008 0.0
H268 H 0.82621 0.38764 1.00515 0.0
H269 H 0.72695 0.3938 0.00961 0.0
C270 C 0.24189 0.66116 0.0399 0.0
C271 C 0.20249 0.64682 0.03694 0.0
C272 C 0.29875 0.65766 0.037 0.0
C273 C 0.40279 0.62027 0.04539 0.0
H274 H 0.49496 0.65409 0.99564 0.0
C275 C 0.63057 0.60363 0.0154 0.0
C276 C 0.67013 0.6179 0.01874 0.0
C277 C 0.57373 0.60719 0.01815 0.0
C278 C 0.46994 0.64463 0.01 0.0
H279 H 0.19234 0.61751 0.02829 0.0
H280 H 0.29137 0.61147 0.02256 0.0
H281 H 0.3952 0.66014 0.9982 0.0
H282 H 0.68068 0.64716 0.02775 0.0
H283 H 0.58156 0.65332 0.03318 0.0
H284 H 0.47752 0.60474 0.05717 0.0
C285 C 0.27826 0.62541 0.02757 0.0
C286 C 0.41273 0.64808 0.01142 0.0
C287 C 0.22134 0.62892 0.03043 0.0
C288 C 0.65149 0.63581 0.02538 0.0
C289 C 0.59455 0.63938 0.02806 0.0
C290 C 0.45999 0.61681 0.04395 0.0
C291 C 0.3177 0.63972 0.03107 0.0
C292 C 0.37845 0.63594 0.02913 0.0
C293 C 0.55496 0.62512 0.02428 0.0
C294 C 0.49425 0.62894 0.02624 0.0
H295 H 0.22885 0.67513 0.04448 0.0
H296 H 0.328 0.66898 0.04012 0.0
H297 H 0.37781 0.6108 0.05977 0.0
H298 H 0.64352 0.58965 0.01065 0.0
H299 H 0.54434 0.59591 0.0148 0.0
C300 C 0.79308 0.63105 0.52415 0.0
C301 C 0.81192 0.6488 0.51631 0.0
C302 C 0.73611 0.62759 0.52706 0.0
C303 C 0.60155 0.65068 0.54108 0.0
H304 H 0.53678 0.60626 0.49965 0.0
C305 C 0.3629 0.63818 0.52899 0.0
C306 C 0.34443 0.62052 0.53784 0.0
C307 C 0.41974 0.64162 0.52554 0.0
C308 C 0.55432 0.61865 0.51163 0.0
H309 H 0.78546 0.67693 0.50636 0.0
H310 H 0.68628 0.67086 0.51077 0.0
H311 H 0.63649 0.61223 0.49634 0.0
H312 H 0.37117 0.59254 0.54889 0.0
H313 H 0.47024 0.59858 0.5433 0.0
H314 H 0.51935 0.65711 0.55632 0.0
C315 C 0.71555 0.65961 0.51493 0.0
C316 C 0.61151 0.62205 0.50981 0.0
C317 C 0.77245 0.66306 0.51199 0.0
C318 C 0.38402 0.60633 0.54246 0.0
C319 C 0.44078 0.60975 0.53889 0.0
C320 C 0.54436 0.64729 0.54286 0.0
C321 C 0.69661 0.64182 0.52228 0.0
C322 C 0.63584 0.6381 0.52453 0.0
C323 C 0.4594 0.62747 0.53069 0.0
C324 C 0.52006 0.63122 0.52819 0.0
H325 H 0.82214 0.61971 0.52734 0.0
H326 H 0.72303 0.61377 0.53317 0.0
H327 H 0.61906 0.66305 0.55315 0.0
H328 H 0.33366 0.64946 0.52556 0.0
H329 H 0.43263 0.65538 0.5188 0.0
C330 C 0.65503 0.37058 0.50405 0.0
C331 C 0.67364 0.38813 0.49459 0.0
C332 C 0.59816 0.36724 0.50765 0.0
C333 C 0.45793 0.38556 0.48038 0.0
H334 H 0.40923 0.3543 0.55508 0.0
C335 C 0.2251 0.3778 0.50996 0.0
C336 C 0.20635 0.36013 0.5185 0.0
C337 C 0.28204 0.38122 0.50681 0.0
C338 C 0.42217 0.3629 0.53383 0.0
H339 H 0.64713 0.41605 0.48276 0.0
H340 H 0.54817 0.41028 0.48921 0.0
H341 H 0.50873 0.36033 0.55088 0.0
H342 H 0.23294 0.33209 0.52931 0.0
H343 H 0.33201 0.33805 0.52384 0.0
H344 H 0.37137 0.38816 0.46337 0.0
C345 C 0.57735 0.39899 0.49312 0.0
C346 C 0.47923 0.36636 0.53143 0.0
C347 C 0.63414 0.40231 0.48946 0.0
C348 C 0.24591 0.34592 0.52333 0.0
C349 C 0.30278 0.34934 0.52021 0.0
C350 C 0.40089 0.38213 0.48281 0.0
C351 C 0.55856 0.38137 0.50194 0.0
C352 C 0.49783 0.37773 0.50467 0.0
C353 C 0.3216 0.36705 0.51213 0.0
C354 C 0.38231 0.37074 0.50954 0.0
H355 H 0.68417 0.35928 0.50772 0.0
H356 H 0.58508 0.35345 0.51405 0.0
H357 H 0.47082 0.39414 0.45908 0.0
H358 H 0.19603 0.38912 0.50654 0.0
H359 H 0.29519 0.39507 0.50097 0.0
C360 C 0.85563 0.86887 0.02376 0.0
C361 C 0.83719 0.88685 0.02993 0.0
C362 C 0.91255 0.86519 0.02129 0.0
C363 C 0.04811 0.88726 1.00582 0.0
H364 H 0.11087 0.84447 0.05458 0.0
C365 C 0.28652 0.87492 0.02328 0.0
C366 C 0.3054 0.85689 0.01815 0.0
C367 C 0.22946 0.87858 0.02508 0.0
C368 C 0.09394 0.85637 0.0405 0.0
H369 H 0.86402 0.91513 0.03711 0.0
H370 H 0.96321 0.90869 0.03323 0.0
H371 H 0.01101 0.85072 0.05542 0.0
H372 H 0.27892 0.82851 0.01199 0.0
H373 H 0.17958 0.83491 0.01449 0.0
H374 H 0.13102 0.89291 0.99087 0.0
C375 C 0.9337 0.89744 0.03016 0.0
C376 C 0.03666 0.85993 0.04094 0.0
C377 C 0.87686 0.90111 0.03274 0.0
C378 C 0.26587 0.84258 0.01553 0.0
C379 C 0.20888 0.84623 0.01735 0.0
C380 C 0.1054 0.88368 1.00534 0.0
C381 C 0.95231 0.87941 0.02478 0.0
C382 C 0.01306 0.87543 0.02364 0.0
C383 C 0.1899 0.86429 0.02187 0.0
C384 C 0.12903 0.8682 0.02271 0.0
H385 H 0.82633 0.85754 0.02178 0.0
H386 H 0.92544 0.85118 0.01671 0.0
H387 H 0.03115 0.89918 0.99183 0.0
H388 H 0.31563 0.88631 0.02509 0.0
H389 H 0.21633 0.89263 0.02902 0.0
C390 C 0.15282 0.13567 1.00216 0.0
C391 C 0.17129 0.11831 0.99163 0.0
C392 C 0.09598 0.13893 1.00589 0.0
C393 C 0.95588 0.12119 0.97708 0.0
H394 H 0.90701 0.15075 0.05401 0.0
C395 C 0.7231 0.12819 1.00683 0.0
C396 C 0.70448 0.14565 0.01669 0.0
C397 C 0.78 0.12488 1.00347 0.0
C398 C 0.92002 0.14263 0.03214 0.0
H399 H 0.14463 0.0906 0.97803 0.0
H400 H 0.04568 0.09624 0.98468 0.0
H401 H 1.0065 0.14483 0.0496 0.0
H402 H 0.73115 0.17346 0.02959 0.0
H403 H 0.83021 0.16768 0.02373 0.0
H404 H 0.8694 0.11898 0.95964 0.0
C405 C 0.07496 0.10745 0.98934 0.0
C406 C 0.97705 0.13924 0.02963 0.0
C407 C 0.13172 0.10421 0.98557 0.0
C408 C 0.74407 0.15977 0.02258 0.0
C409 C 0.80091 0.15646 0.01925 0.0
C410 C 0.89886 0.12457 0.97961 0.0
C411 C 0.05632 0.12489 0.99924 0.0
C412 C 0.99566 0.12847 1.00207 0.0
C413 C 0.81961 0.13895 0.00989 0.0
C414 C 0.88025 0.13534 1.00716 0.0
H415 H 0.18204 0.1469 1.00657 0.0
H416 H 0.08297 0.15258 0.01314 0.0
H417 H 0.96885 0.1131 0.95518 0.0
H418 H 0.69395 0.11693 1.00258 0.0
H419 H 0.79309 0.11117 0.99663 0.0
C420 C 0.29121 0.1384 0.52275 0.0
C421 C 0.30939 0.1495 0.49546 0.0
C422 C 0.23423 0.13475 0.52527 0.0
C423 C 0.09345 0.15213 0.49611 0.0
H424 H 0.04526 0.10305 0.51984 0.0
C425 C 0.86049 0.13041 0.48606 0.0
C426 C 0.84205 0.11932 0.51329 0.0
C427 C 0.91749 0.13414 0.48385 0.0
C428 C 0.05804 0.11688 0.51354 0.0
H429 H 0.28163 0.16511 0.44898 0.0
H430 H 0.18274 0.15879 0.45339 0.0
H431 H 0.1447 0.10948 0.51666 0.0
H432 H 0.86944 0.10384 0.56004 0.0
H433 H 0.96834 0.11028 0.5561 0.0
H434 H 1.00679 0.15952 0.49294 0.0
C435 C 0.21236 0.15317 0.47326 0.0
C436 C 0.11508 0.12057 0.51176 0.0
C437 C 0.26921 0.15681 0.47074 0.0
C438 C 0.88203 0.11211 0.53829 0.0
C439 C 0.93889 0.11583 0.53606 0.0
C440 C 0.03642 0.14844 0.49787 0.0
C441 C 0.19412 0.14212 0.50055 0.0
C442 C 0.13349 0.13824 0.50298 0.0
C443 C 0.95737 0.12686 0.50881 0.0
C444 C 0.01802 0.13077 0.50661 0.0
H445 H 0.3209 0.13273 0.54246 0.0
H446 H 0.22153 0.12637 0.5469 0.0
H447 H 0.10623 0.16596 0.4898 0.0
H448 H 0.83101 0.136 0.46615 0.0
H449 H 0.93039 0.1425 0.46225 0.0
C450 C 0.74368 0.85381 0.55969 0.0
C451 C 0.70348 0.86056 0.53438 0.0
C452 C 0.80049 0.85739 0.5569 0.0
C453 C 0.90316 0.8706 0.4932 0.0
H454 H 0.99594 0.88301 0.57707 0.0
C455 C 0.13031 0.8962 0.48711 0.0
C456 C 0.17045 0.88959 0.51262 0.0
C457 C 0.07352 0.89253 0.48976 0.0
C458 C 0.97077 0.87935 0.55347 0.0
H459 H 0.69185 0.8763 0.48608 0.0
H460 H 0.7911 0.8828 0.48146 0.0
H461 H 0.89645 0.87714 0.58152 0.0
H462 H 0.18193 0.87397 0.56107 0.0
H463 H 0.08277 0.8673 0.56542 0.0
H464 H 0.97749 0.87281 0.46515 0.0
C465 C 0.77854 0.87458 0.50334 0.0
C466 C 0.91371 0.876 0.556 0.0
C467 C 0.72159 0.87102 0.50618 0.0
C468 C 0.15228 0.87916 0.54083 0.0
C469 C 0.09535 0.8755 0.54351 0.0
C470 C 0.96023 0.87395 0.49066 0.0
C471 C 0.81865 0.86782 0.52872 0.0
C472 C 0.87922 0.87158 0.5259 0.0
C473 C 0.0553 0.88215 0.51798 0.0
C474 C 0.99472 0.87837 0.52077 0.0
H475 H 0.73131 0.84591 0.582 0.0
H476 H 0.83028 0.85181 0.5767 0.0
H477 H 0.87796 0.86695 0.4696 0.0
H478 H 0.1427 0.90406 0.46476 0.0
H479 H 0.04378 0.89803 0.46984 0.0
C480 C 0.03689 0.57321 0.02076 0.0
C481 C 0.98906 0.57999 0.03575 0.0
C482 C 0.04475 0.55417 0.01773 0.0
C483 C 0.99523 0.50889 0.04934 0.0
H484 H 0.03168 0.49169 0.95726 0.0
C485 C 0.98074 0.43192 0.01218 0.0
C486 C 0.0285 0.42518 0.99705 0.0
C487 C 0.97262 0.45095 0.01507 0.0
C488 C 0.02168 0.49627 0.98318 0.0
H489 H 0.91414 0.57244 0.06144 0.0
H490 H 0.92797 0.53957 0.05652 0.0
H491 H 0.03184 0.52458 0.96956 0.0
H492 H 0.10298 0.43279 0.97094 0.0
H493 H 0.08875 0.46564 0.97568 0.0
H494 H 0.98512 0.48059 0.06298 0.0
C495 C 0.95942 0.54869 0.04697 0.0
C496 C 0.02226 0.51511 0.99031 0.0
C497 C 0.95136 0.56755 0.04965 0.0
C498 C 0.06582 0.43764 0.98285 0.0
C499 C 0.05753 0.4565 0.98542 0.0
C500 C 0.99467 0.49005 0.04222 0.0
C501 C 1.00528 0.54173 0.03011 0.0
C502 C 0.00899 0.52165 0.02347 0.0
C503 C 0.01179 0.46343 1.00245 0.0
C504 C 0.00796 0.48351 0.00906 0.0
H505 H 0.06632 0.58254 0.00966 0.0
H506 H 0.08088 0.54918 1.00494 0.0
H507 H 0.98521 0.51348 0.07525 0.0
H508 H 0.9516 0.42257 0.0235 0.0
H509 H 0.93657 0.45591 0.02798 0.0
C510 C 0.95998 0.43825 0.48186 0.0
C511 C 0.99228 0.4264 0.5041 0.0
C512 C 0.96753 0.45719 0.48371 0.0
C513 C 0.01395 0.49293 0.5462 0.0
H514 H 1.00022 0.52452 0.46392 0.0
C515 C 0.05766 0.57051 0.55146 0.0
C516 C 0.02541 0.58239 0.52926 0.0
C517 C 0.04992 0.55158 0.54962 0.0
C518 C 1.00316 0.51589 0.48716 0.0
H519 H 0.05971 0.42496 0.54464 0.0
H520 H 0.07337 0.45845 0.54795 0.0
H521 H 1.00215 0.49123 0.45653 0.0
H522 H 0.95788 0.5839 0.4888 0.0
H523 H 0.94391 0.55042 0.48549 0.0
H524 H 0.01498 0.51758 0.57684 0.0
C525 C 0.04178 0.45294 0.52922 0.0
C526 C 1.00475 0.49682 0.48294 0.0
C527 C 0.03448 0.43382 0.52711 0.0
C528 C 0.98307 0.57502 0.50629 0.0
C529 C 0.9756 0.5559 0.50418 0.0
C530 C 0.01236 0.51199 0.55042 0.0
C531 C 1.00747 0.46483 0.508 0.0
C532 C 0.01011 0.48511 0.51241 0.0
C533 C 0.00985 0.54398 0.52537 0.0
C534 C 1.00703 0.5237 0.52095 0.0
H535 H 0.92725 0.43289 0.46372 0.0
H536 H 0.94007 0.46587 0.46722 0.0
H537 H 0.0169 0.4843 0.56945 0.0
H538 H 0.09049 0.57584 0.56957 0.0
H539 H 0.07735 0.54287 0.56608 0.0
C540 C 0.4731 0.93101 1.00321 0.0
C541 C 0.51561 0.92376 0.0262 0.0
C542 C 0.46538 0.95012 1.00091 0.0
C543 C 0.50275 0.99421 0.04627 0.0
H544 H 0.49358 0.01454 0.95193 0.0
C545 C 0.53051 0.07195 0.0217 0.0
C546 C 0.48853 0.07965 0.9989 0.0
C547 C 0.53649 0.05279 0.02385 0.0
C548 C 0.4959 0.00907 0.97846 0.0
H549 H 0.58061 0.93045 0.06642 0.0
H550 H 0.56705 0.96339 0.06265 0.0
H551 H 0.49008 0.98129 0.96004 0.0
H552 H 0.4226 0.07364 0.95884 0.0
H553 H 0.43326 0.04054 0.96233 0.0
H554 H 0.50881 0.02196 0.06469 0.0
C555 C 0.53965 0.95462 0.04632 0.0
C556 C 0.49337 0.99003 0.98309 0.0
C557 C 0.54763 0.93571 0.04834 0.0
C558 C 0.45522 0.06804 0.97678 0.0
C559 C 0.4615 0.04905 0.97865 0.0
C560 C 0.50535 0.01323 0.04164 0.0
C561 C 0.49957 0.96212 0.02193 0.0
C562 C 0.49699 0.98237 0.01706 0.0
C563 C 0.50105 0.04115 1.00289 0.0
C564 C 0.50206 0.02088 1.00768 0.0
H565 H 0.44815 0.92206 0.98575 0.0
H566 H 0.4337 0.95552 0.98211 0.0
H567 H 0.50513 0.98875 0.07281 0.0
H568 H 0.55643 0.08063 0.03917 0.0
H569 H 0.56783 0.04707 0.04251 0.0
C570 C 0.47465 0.07546 0.51099 0.0
C571 C 0.52037 0.08243 0.49395 0.0
C572 C 0.46731 0.05639 0.51399 0.0
C573 C 0.51429 0.01131 0.47988 0.0
H574 H 0.48791 0.99381 0.57358 0.0
C575 C 0.53615 0.93441 0.51653 0.0
C576 C 0.4903 0.92734 0.53329 0.0
C577 C 0.54304 0.9535 0.51346 0.0
C578 C 0.49511 0.99847 0.54722 0.0
H579 H 0.59181 0.07519 0.46463 0.0
H580 H 0.57887 0.04227 0.46949 0.0
H581 H 0.48537 0.02671 0.5613 0.0
H582 H 0.4181 0.93441 0.56204 0.0
H583 H 0.43035 0.96738 0.55713 0.0
H584 H 0.52413 0.98307 0.46582 0.0
C585 C 0.54863 0.05125 0.48063 0.0
C586 C 0.49313 0.01732 0.54011 0.0
C587 C 0.55617 0.07016 0.47795 0.0
C588 C 0.45385 0.93953 0.54894 0.0
C589 C 0.46098 0.95845 0.54623 0.0
C590 C 0.51631 0.99246 0.487 0.0
C591 C 0.50522 0.0441 0.4996 0.0
C592 C 0.50278 0.02398 0.50636 0.0
C593 C 0.50457 0.9657 0.52754 0.0
C594 C 0.50672 0.98581 0.52075 0.0
H595 H 0.44679 0.08466 0.52377 0.0
H596 H 0.433 0.05126 0.5284 0.0
H597 H 0.52145 0.01597 0.45351 0.0
H598 H 0.5645 0.92527 0.50401 0.0
H599 H 0.57747 0.95871 0.49925 0.0
C600 C 0.11912 0.30613 1.00743 0.0
C601 C 0.14998 0.32241 0.01301 0.0
C602 C 0.14637 0.28905 1.00799 0.0
C603 C 0.28619 0.26845 0.99796 0.0
H604 H 0.22311 0.22582 0.04188 0.0
C605 C 0.40548 0.199 0.01458 0.0
C606 C 0.37335 0.18312 1.0074 0.0
C607 C 0.37944 0.21623 0.01649 0.0
C608 C 0.24112 0.23757 0.02924 0.0
H609 H 0.23358 0.3334 0.02446 0.0
H610 H 0.28027 0.30389 0.02583 0.0
H611 H 0.17371 0.25511 0.04228 0.0
H612 H 0.28859 0.173 0.99636 0.0
H613 H 0.24408 0.20271 0.9993 0.0
H614 H 0.35345 0.25088 0.98475 0.0
C615 C 0.23536 0.30423 0.02033 0.0
C616 C 0.21267 0.25434 0.02941 0.0
C617 C 0.20833 0.32119 0.01977 0.0
C618 C 0.31489 0.18488 1.00209 0.0
C619 C 0.28909 0.20196 1.00404 0.0
C620 C 0.31464 0.25167 0.99778 0.0
C621 C 0.20495 0.28794 0.01409 0.0
C622 C 0.23477 0.26999 0.0137 0.0
C623 C 0.32083 0.21786 0.01141 0.0
C624 C 0.2923 0.23599 0.01324 0.0
H625 H 0.0742 0.3066 1.00207 0.0
H626 H 0.12173 0.27675 1.00286 0.0
H627 H 0.30408 0.28016 0.98517 0.0
H628 H 0.45053 0.19811 0.01888 0.0
H629 H 0.4051 0.22822 0.02242 0.0
C630 C 0.60976 0.80506 0.0218 0.0
C631 C 0.64053 0.82137 0.02712 0.0
C632 C 0.63731 0.78805 0.02118 0.0
C633 C 0.77705 0.76775 0.00847 0.0
H634 H 0.71698 0.72505 0.05382 0.0
C635 C 0.90059 0.69926 0.02876 0.0
C636 C 0.86958 0.68304 0.02275 0.0
C637 C 0.87341 0.71635 0.02897 0.0
C638 C 0.7341 0.73682 0.04075 0.0
H639 H 0.72438 0.83251 0.03661 0.0
H640 H 0.77159 0.80314 0.03604 0.0
H641 H 0.66649 0.75412 0.05431 0.0
H642 H 0.78577 0.67217 0.01145 0.0
H643 H 0.73925 0.70168 0.01152 0.0
H644 H 0.84476 0.75043 0.99502 0.0
C645 C 0.72648 0.80338 0.03162 0.0
C646 C 0.70502 0.75347 0.04096 0.0
C647 C 0.69917 0.82027 0.03219 0.0
C648 C 0.81116 0.68433 0.01642 0.0
C649 C 0.78423 0.70128 0.01669 0.0
C650 C 0.80618 0.7511 1.00832 0.0
C651 C 0.6961 0.78705 0.02584 0.0
C652 C 0.72613 0.76916 0.02485 0.0
C653 C 0.81479 0.7175 0.02331 0.0
C654 C 0.78498 0.73542 0.02437 0.0
H655 H 0.56462 0.80545 0.01771 0.0
H656 H 0.61264 0.77572 0.01642 0.0
H657 H 0.79415 0.77949 0.99533 0.0
H658 H 0.94557 0.69873 0.03379 0.0
H659 H 0.89814 0.72861 0.03431 0.0
C660 C 0.11319 0.70165 0.52047 0.0
C661 C 0.14438 0.68566 0.52844 0.0
C662 C 0.14 0.71878 0.51898 0.0
C663 C 0.27199 0.74273 0.54821 0.0
H664 H 0.23104 0.77642 0.47199 0.0
C665 C 0.4015 0.8083 0.52338 0.0
C666 C 0.37044 0.82436 0.51586 0.0
C667 C 0.37471 0.79115 0.52372 0.0
C668 C 0.24273 0.76723 0.49362 0.0
H669 H 0.22823 0.67523 0.54138 0.0
H670 H 0.27425 0.70476 0.53858 0.0
H671 H 0.18035 0.74751 0.4765 0.0
H672 H 0.28703 0.83488 0.50198 0.0
H673 H 0.24093 0.80527 0.50282 0.0
H674 H 0.33425 0.76244 0.56539 0.0
C675 C 0.22921 0.70423 0.53387 0.0
C676 C 0.21348 0.75069 0.49626 0.0
C677 C 0.20265 0.68723 0.53525 0.0
C678 C 0.31243 0.82282 0.5079 0.0
C679 C 0.28586 0.80577 0.50814 0.0
C680 C 0.3012 0.75927 0.54557 0.0
C681 C 0.1984 0.72023 0.52564 0.0
C682 C 0.22782 0.73821 0.52355 0.0
C683 C 0.31644 0.78972 0.51636 0.0
C684 C 0.28694 0.77175 0.51827 0.0
H685 H 0.06831 0.7009 0.51503 0.0
H686 H 0.11499 0.73088 0.51283 0.0
H687 H 0.28366 0.73356 0.56986 0.0
H688 H 0.44619 0.80902 0.52963 0.0
H689 H 0.39961 0.77901 0.52979 0.0
C690 C 0.81557 0.32158 0.49962 0.0
C691 C 0.87393 0.32309 0.50605 0.0
C692 C 0.78886 0.30463 0.50128 0.0
C693 C 0.8122 0.25471 0.49701 0.0
H694 H 0.66968 0.25237 0.53991 0.0
C695 C 0.70276 0.18588 0.52055 0.0
C696 C 0.64458 0.18479 0.51291 0.0
C697 C 0.73031 0.20276 0.52096 0.0
C698 C 0.70909 0.25283 0.52749 0.0
H699 H 0.95002 0.30777 0.51895 0.0
H700 H 0.90299 0.27788 0.52197 0.0
H701 H 0.7203 0.28144 0.5388 0.0
H702 H 0.56956 0.20073 0.50045 0.0
H703 H 0.61801 0.23045 0.50099 0.0
H704 H 0.8009 0.22612 0.48558 0.0
C705 C 0.87813 0.28997 0.51542 0.0
C706 C 0.73823 0.26948 0.5269 0.0
C707 C 0.90508 0.30707 0.51377 0.0
C708 C 0.61434 0.20112 0.50649 0.0
C709 C 0.64212 0.21812 0.50689 0.0
C710 C 0.78307 0.23806 0.4976 0.0
C711 C 0.81957 0.28861 0.50947 0.0
C712 C 0.79002 0.27065 0.51149 0.0
C713 C 0.7006 0.21908 0.51369 0.0
C714 C 0.7311 0.23691 0.51281 0.0
H715 H 0.79005 0.33358 0.49338 0.0
H716 H 0.74396 0.30407 0.49581 0.0
H717 H 0.8515 0.25518 0.48446 0.0
H718 H 0.72748 0.17362 0.52595 0.0
H719 H 0.77509 0.203 0.52706 0.0
C720 C 0.10628 0.37638 0.13573 0.0
C721 C 0.06165 0.37477 0.11008 0.0
C722 C 0.09609 0.37664 0.17167 0.0
C723 C 0.98609 0.38638 0.23278 0.0
H724 H 0.07009 0.35389 0.29716 0.0
C725 C 0.92224 0.3747 0.3756 0.0
C726 C 0.96528 0.37224 0.40203 0.0
C727 C 0.93429 0.37514 0.34 0.0
C728 C 0.0467 0.36329 0.27977 0.0
H729 H 0.97129 0.37263 0.10213 0.0
H730 H 0.95383 0.37334 0.1643 0.0
H731 H 0.0929 0.35543 0.23573 0.0
H732 H 0.0549 0.3686 0.41167 0.0
H733 H 0.07587 0.36993 0.35031 0.0
H734 H 0.94041 0.39452 0.27667 0.0
C735 C 0.99661 0.37433 0.15681 0.0
C736 C 0.05985 0.36413 0.24448 0.0
C737 C 1.00676 0.37379 0.12113 0.0
C738 C 0.0205 0.37032 0.39204 0.0
C739 C 0.03258 0.37097 0.35665 0.0
C740 C 0.97334 0.38572 0.26815 0.0
C741 C 0.04105 0.37564 0.18255 0.0
C742 C 0.02944 0.37558 0.22052 0.0
C743 C 0.98974 0.37335 0.33002 0.0
C744 C 1.00323 0.37408 0.29217 0.0
H745 H 0.14899 0.37715 0.12807 0.0
H746 H 0.13118 0.37775 0.19094 0.0
H747 H 0.96222 0.39548 0.21501 0.0
H748 H 0.87926 0.3762 0.38239 0.0
H749 H 0.89997 0.37673 0.32032 0.0
C750 C 0.92916 0.61483 0.15118 0.0
C751 C 0.92821 0.6317 0.13325 0.0
C752 C 0.94697 0.61399 0.18704 0.0
C753 C 0.03355 0.64133 0.25318 0.0
H754 H 0.98087 0.6062 0.32014 0.0
C755 C 0.07469 0.64789 0.40341 0.0
C756 C 0.08825 0.63202 0.42313 0.0
C757 C 0.0613 0.64678 0.36723 0.0
C758 C 0.99653 0.61592 0.30155 0.0
H759 H 0.94196 0.66094 0.13868 0.0
H760 H 0.96926 0.65976 0.20138 0.0
H761 H 0.93879 0.60673 0.25987 0.0
H762 H 0.09891 0.60255 0.42068 0.0
H763 H 0.07473 0.6005 0.35694 0.0
H764 H 0.08989 0.6509 0.29521 0.0
C765 C 0.9585 0.64703 0.18791 0.0
C766 C 0.97234 0.61626 0.26698 0.0
C767 C 0.94175 0.6478 0.15211 0.0
C768 C 0.08994 0.61503 0.40582 0.0
C769 C 0.07533 0.61384 0.36955 0.0
C770 C 0.05715 0.64113 0.28773 0.0
C771 C 0.9638 0.63005 0.2056 0.0
C772 C 0.98997 0.62917 0.24239 0.0
C773 C 0.0598 0.62969 0.35002 0.0
C774 C 0.03857 0.62856 0.31244 0.0
H775 H 0.9203 0.60218 0.13692 0.0
H776 H 0.95066 0.60065 0.19955 0.0
H777 H 0.04976 0.65109 0.2349 0.0
H778 H 0.07198 0.66109 0.41636 0.0
H779 H 0.04905 0.6592 0.35306 0.0
C780 C 0.9152 0.63037 0.898 0.0
C781 C 0.95925 0.6317 0.92407 0.0
C782 C 0.92616 0.63065 0.86218 0.0
C783 C 0.03838 0.6435 0.8025 0.0
H784 H 0.94956 0.61476 0.73393 0.0
C785 C 0.0984 0.6335 0.65803 0.0
C786 C 0.05473 0.63591 0.63197 0.0
C787 C 0.08713 0.63288 0.69375 0.0
C788 C 0.97457 0.62293 0.75278 0.0
H789 H 0.04948 0.63366 0.93291 0.0
H790 H 0.06849 0.63351 0.87122 0.0
H791 H 0.92822 0.61373 0.79574 0.0
H792 H 0.96487 0.63941 0.62314 0.0
H793 H 0.94551 0.63814 0.68505 0.0
H794 H 0.08532 0.65239 0.75948 0.0
C795 C 0.02532 0.63293 0.878 0.0
C796 C 0.96216 0.62243 0.78824 0.0
C797 C 0.01437 0.63288 0.91356 0.0
C798 C 0.99966 0.6376 0.64245 0.0
C799 C 0.98838 0.63674 0.67797 0.0
C800 C 0.05117 0.64382 0.76715 0.0
C801 C 0.98146 0.63206 0.85169 0.0
C802 C 0.99389 0.63272 0.81366 0.0
C803 C 0.03189 0.63437 0.70406 0.0
C804 C 0.01934 0.63359 0.74185 0.0
H805 H 0.87229 0.62948 0.90524 0.0
H806 H 0.89116 0.63013 0.84276 0.0
H807 H 0.0631 0.65195 0.821 0.0
H808 H 0.14122 0.63211 0.65086 0.0
H809 H 0.12152 0.63094 0.71328 0.0
C810 C 0.93294 0.3612 0.63036 0.0
C811 C 0.92815 0.37739 0.61037 0.0
C812 C 0.94685 0.36192 0.66657 0.0
C813 C 0.02707 0.38969 0.73159 0.0
H814 H 0.95788 0.35865 0.79921 0.0
C815 C 0.09469 0.38931 0.88204 0.0
C816 C 0.08778 0.37281 0.90041 0.0
C817 C 0.0771 0.39064 0.84618 0.0
C818 C 0.97849 0.36719 0.78066 0.0
H819 H 0.93402 0.40703 0.61223 0.0
H820 H 0.95872 0.40837 0.6759 0.0
H821 H 0.91828 0.36006 0.73884 0.0
H822 H 0.06069 0.34453 0.89556 0.0
H823 H 0.03352 0.34639 0.83298 0.0
H824 H 0.0884 0.39641 0.77311 0.0
C825 C 0.95088 0.39513 0.66359 0.0
C826 C 0.95529 0.36811 0.74605 0.0
C827 C 0.93591 0.3944 0.62735 0.0
C828 C 0.0667 0.35738 0.8819 0.0
C829 C 0.05016 0.35859 0.84613 0.0
C830 C 0.05078 0.38862 0.76622 0.0
C831 C 0.95768 0.37885 0.68344 0.0
C832 C 0.97955 0.37922 0.72099 0.0
C833 C 0.05276 0.37542 0.82803 0.0
C834 C 0.02725 0.37714 0.79118 0.0
H835 H 0.92867 0.34792 0.6176 0.0
H836 H 0.95232 0.34913 0.68097 0.0
H837 H 0.04714 0.39823 0.71277 0.0
H838 H 0.1097 0.40151 0.89595 0.0
H839 H 0.07969 0.40386 0.83332 0.0
C840 C 0.599 0.87615 0.15454 0.0
C841 C 0.55482 0.87225 0.12959 0.0
C842 C 0.58897 0.8776 0.19034 0.0
C843 C 0.47692 0.88719 0.24958 0.0
H844 H 0.56873 0.86012 0.31926 0.0
C845 C 0.41616 0.87847 0.39399 0.0
C846 C 0.45999 0.878 0.42026 0.0
C847 C 0.42787 0.87874 0.35833 0.0
C848 C 0.54312 0.86803 0.30029 0.0
H849 H 0.46546 0.86691 0.12271 0.0
H850 H 0.44839 0.86957 0.1846 0.0
H851 H 0.59133 0.85932 0.25781 0.0
H852 H 0.55031 0.87844 0.42993 0.0
H853 H 0.57045 0.87953 0.36848 0.0
H854 H 0.42896 0.89608 0.29196 0.0
C855 C 0.4906 0.87155 0.17664 0.0
C856 C 0.55617 0.86753 0.26506 0.0
C857 C 0.50063 0.86987 0.14115 0.0
C858 C 0.51548 0.87846 0.4103 0.0
C859 C 0.52711 0.87897 0.37495 0.0
C860 C 0.46418 0.88786 0.2849 0.0
C861 C 0.5345 0.87546 0.20162 0.0
C862 C 0.52295 0.87698 0.23931 0.0
C863 C 0.48362 0.87876 0.34841 0.0
C864 C 0.49697 0.87822 0.31072 0.0
H865 H 0.64112 0.87811 0.14644 0.0
H866 H 0.62358 0.88068 0.20913 0.0
H867 H 0.45085 0.89474 0.23026 0.0
H868 H 0.37303 0.87812 0.40093 0.0
H869 H 0.39327 0.87844 0.3386 0.0
C870 C 0.4043 0.13765 0.12952 0.0
C871 C 0.42909 0.12505 0.10747 0.0
C872 C 0.41948 0.13783 0.16573 0.0
C873 C 0.49445 0.11184 0.2389 0.0
H874 H 0.52869 0.16049 0.2756 0.0
C875 C 0.60282 0.12274 0.37843 0.0
C876 C 0.57807 0.13633 0.39848 0.0
C877 C 0.5887 0.12134 0.34209 0.0
C878 C 0.519 0.1468 0.26593 0.0
H879 H 0.48741 0.10245 0.10561 0.0
H880 H 0.51303 0.10244 0.1687 0.0
H881 H 0.48844 0.15707 0.21563 0.0
H882 H 0.52184 0.15971 0.39598 0.0
H883 H 0.49767 0.15735 0.33341 0.0
H884 H 0.52468 0.10159 0.28942 0.0
C885 C 0.4816 0.11207 0.15845 0.0
C886 C 0.49556 0.14484 0.23154 0.0
C887 C 0.46675 0.112 0.12234 0.0
C888 C 0.5417 0.14908 0.38124 0.0
C889 C 0.52794 0.14776 0.34521 0.0
C890 C 0.51771 0.1138 0.27344 0.0
C891 C 0.45975 0.12542 0.18042 0.0
C892 C 0.48262 0.12736 0.21762 0.0
C893 C 0.55006 0.13362 0.32521 0.0
C894 C 0.52992 0.13133 0.28751 0.0
H895 H 0.37622 0.14811 0.11845 0.0
H896 H 0.40136 0.14815 0.18201 0.0
H897 H 0.4849 0.09816 0.22903 0.0
H898 H 0.63056 0.11264 0.39109 0.0
H899 H 0.60705 0.11042 0.32738 0.0
C900 C 0.51747 0.13823 0.88994 0.0
C901 C 0.46257 0.13551 0.9 0.0
C902 C 0.52966 0.13745 0.8546 0.0
C903 C 0.47286 0.12048 0.76729 0.0
H904 H 0.58749 0.15216 0.73259 0.0
C905 C 0.50242 0.13153 0.61975 0.0
C906 C 0.55713 0.13137 0.60832 0.0
C907 C 0.49305 0.13097 0.65552 0.0
C908 C 0.5559 0.14306 0.74202 0.0
H909 H 0.37716 0.13017 0.88053 0.0
H910 H 0.39799 0.12942 0.81852 0.0
H911 H 0.56465 0.15429 0.79395 0.0
H912 H 0.64498 0.13031 0.62561 0.0
H913 H 0.62851 0.12968 0.68871 0.0
H914 H 0.4631 0.10971 0.71488 0.0
C915 C 0.43201 0.1317 0.83814 0.0
C916 C 0.54271 0.14425 0.77724 0.0
C917 C 0.41988 0.13229 0.87368 0.0
C918 C 0.60241 0.13044 0.63362 0.0
C919 C 0.59297 0.13017 0.66965 0.0
C920 C 0.48563 0.11945 0.732 0.0
C921 C 0.48722 0.13414 0.82812 0.0
C922 C 0.5009 0.133 0.79041 0.0
C923 C 0.5381 0.13046 0.68092 0.0
C924 C 0.52716 0.13076 0.71894 0.0
H925 H 0.55161 0.14056 0.9095 0.0
H926 H 0.57278 0.13905 0.84819 0.0
H927 H 0.44132 0.1113 0.77649 0.0
H928 H 0.4665 0.13214 0.60098 0.0
H929 H 0.45037 0.13139 0.66332 0.0
C930 C 0.40523 0.8876 0.64814 0.0
C931 C 0.43248 0.87425 0.62881 0.0
C932 C 0.41969 0.88988 0.68427 0.0
C933 C 0.53926 0.88214 0.7483 0.0
H934 H 0.43217 0.88301 0.82028 0.0
C935 C 0.59754 0.88692 0.9005 0.0
C936 C 0.56941 0.87372 0.91978 0.0
C937 C 0.58282 0.8895 0.86445 0.0
C938 C 0.46255 0.88297 0.80039 0.0
H939 H 0.49286 0.85199 0.63251 0.0
H940 H 0.51738 0.8559 0.69484 0.0
H941 H 0.39877 0.88284 0.75815 0.0
H942 H 0.5068 0.85207 0.91591 0.0
H943 H 0.4817 0.85658 0.85391 0.0
H944 H 0.603 0.88163 0.79056 0.0
C945 C 0.48608 0.86489 0.68224 0.0
C946 C 0.44339 0.88298 0.7649 0.0
C947 C 0.47153 0.86255 0.64658 0.0
C948 C 0.5288 0.86256 0.90201 0.0
C949 C 0.51396 0.86522 0.86648 0.0
C950 C 0.55844 0.88232 0.78379 0.0
C951 C 0.46177 0.87893 0.70125 0.0
C952 C 0.48154 0.88193 0.73855 0.0
C953 C 0.53955 0.87902 0.8475 0.0
C954 C 0.5202 0.8821 0.81016 0.0
H955 H 0.37534 0.89689 0.63504 0.0
H956 H 0.39991 0.9007 0.69851 0.0
H957 H 0.56962 0.88157 0.72843 0.0
H958 H 0.62877 0.89576 0.91354 0.0
H959 H 0.60361 0.90012 0.8502 0.0
loop_
_geom_bond_atom_site_label_1
_geom_bond_atom_site_label_2
_geom_bond_distance
_geom_bond_site_symmetry_2
_ccdc_geom_bond_type
Co0 N5 2.057 1_454 S
Co0 O17 2.021 . S
Co0 O20 2.062 1_455 S
Co0 O24 2.117 1_554 S
Co0 O25 2.020 . S
C1 O21 1.259 . S
C1 O24 1.258 . S
Co2 N11 2.057 . S
Co2 O18 2.117 . S
Co2 O19 2.020 . S
Co2 O21 2.021 1_554 S
Co2 O26 2.062 . S
C3 N5 1.316 1_554 S
C3 N6 1.349 . S
C3 H8 0.931 . S
C4 N5 1.375 . S
C4 C7 1.350 . S
C4 H9 0.930 . S
N5 Co0 2.057 1_656 S
N5 C3 1.316 1_556 S
N5 C4 1.375 . S
N6 C3 1.349 . S
N6 C7 1.368 1_554 S
C7 C4 1.350 . S
C7 N6 1.368 1_556 S
C7 H28 0.931 . S
H8 C3 0.931 . S
H9 C4 0.930 . S
C10 O17 1.259 . S
C10 O18 1.258 . S
N11 Co2 2.057 . S
N11 C12 1.316 1_554 S
N11 C13 1.375 . S
C12 N11 1.316 1_556 S
C12 N14 1.347 1_556 S
C12 H23 0.931 . S
C13 N11 1.375 . S
C13 C15 1.350 . S
C13 H22 0.930 . S
N14 C12 1.347 1_554 S
N14 C15 1.373 . S
C15 C13 1.350 . S
C15 N14 1.373 . S
C15 H29 0.931 . S
C16 O19 1.256 . S
C16 O20 1.255 1_455 S
O17 Co0 2.021 . S
O17 C10 1.259 . S
O18 Co2 2.117 . S
O18 C10 1.258 . S
O19 Co2 2.020 . S
O19 C16 1.256 . S
O20 Co0 2.062 1_655 S
O20 C16 1.255 1_655 S
O21 C1 1.259 . S
O21 Co2 2.021 1_556 S
H22 C13 0.930 . S
H23 C12 0.931 . S
O24 Co0 2.117 1_556 S
O24 C1 1.258 . S
O25 Co0 2.020 . S
O25 C27 1.256 . S
O26 Co2 2.062 . S
O26 C27 1.255 . S
C27 O25 1.256 . S
C27 O26 1.255 . S
H28 C7 0.931 . S
H29 C15 0.931 . S
Co30 N35 2.057 1_554 S
Co30 O47 2.021 . S
Co30 O50 2.062 . S
Co30 O54 2.117 1_554 S
Co30 O55 2.020 . S
C31 O51 1.259 . S
C31 O54 1.258 . S
Co32 N41 2.057 1_655 S
Co32 O48 2.117 . S
Co32 O49 2.020 . S
Co32 O51 2.021 1_554 S
Co32 O56 2.062 1_655 S
C33 N35 1.316 1_554 S
C33 N36 1.347 1_554 S
C33 H38 0.931 . S
C34 N35 1.375 . S
C34 C37 1.350 . S
C34 H39 0.930 . S
N35 Co30 2.057 1_556 S
N35 C33 1.316 1_556 S
N35 C34 1.375 . S
N36 C33 1.347 1_556 S
N36 C37 1.373 . S
C37 C34 1.350 . S
C37 N36 1.373 . S
C37 H58 0.931 . S
H38 C33 0.931 . S
H39 C34 0.930 . S
C40 O47 1.259 . S
C40 O48 1.258 . S
N41 Co32 2.057 1_455 S
N41 C42 1.316 1_554 S
N41 C43 1.375 . S
C42 N41 1.316 1_556 S
C42 N44 1.347 1_556 S
C42 H53 0.931 . S
C43 N41 1.375 . S
C43 C45 1.350 . S
C43 H52 0.930 . S
N44 C42 1.347 1_554 S
N44 C45 1.373 . S
C45 C43 1.350 . S
C45 N44 1.373 . S
C45 H59 0.931 . S
C46 O49 1.256 . S
C46 O50 1.255 . S
O47 Co30 2.021 . S
O47 C40 1.259 . S
O48 Co32 2.117 . S
O48 C40 1.258 . S
O49 Co32 2.020 . S
O49 C46 1.256 . S
O50 Co30 2.062 . S
O50 C46 1.255 . S
O51 C31 1.259 . S
O51 Co32 2.021 1_556 S
H52 C43 0.930 . S
H53 C42 0.931 . S
O54 Co30 2.117 1_556 S
O54 C31 1.258 . S
O55 Co30 2.020 . S
O55 C57 1.256 . S
O56 Co32 2.062 1_455 S
O56 C57 1.255 1_455 S
C57 O55 1.256 . S
C57 O56 1.255 1_655 S
H58 C37 0.931 . S
H59 C45 0.931 . S
Co60 N65 2.057 . S
Co60 O77 2.021 . S
Co60 O80 2.062 . S
Co60 O84 2.117 . S
Co60 O85 2.020 . S
C61 O81 1.259 . S
C61 O84 1.258 . S
Co62 N71 2.057 1_455 S
Co62 O78 2.117 . S
Co62 O79 2.020 . S
Co62 O81 2.021 . S
Co62 O86 2.062 1_455 S
C63 N65 1.316 . S
C63 N66 1.347 . S
C63 H68 0.931 . S
C64 N65 1.375 . S
C64 C67 1.350 . S
C64 H69 0.930 . S
N65 Co60 2.057 . S
N65 C63 1.316 . S
N65 C64 1.375 . S
N66 C63 1.347 . S
N66 C67 1.373 . S
C67 C64 1.350 . S
C67 N66 1.373 . S
C67 H88 0.931 . S
H68 C63 0.931 . S
H69 C64 0.930 . S
C70 O77 1.259 . S
C70 O78 1.258 . S
N71 Co62 2.057 1_655 S
N71 C72 1.316 . S
N71 C73 1.375 . S
C72 N71 1.316 . S
C72 N74 1.347 . S
C72 H83 0.931 . S
C73 N71 1.375 . S
C73 C75 1.350 . S
C73 H82 0.930 . S
N74 C72 1.347 . S
N74 C75 1.373 . S
C75 C73 1.350 . S
C75 N74 1.373 . S
C75 H89 0.931 . S
C76 O79 1.256 . S
C76 O80 1.255 . S
O77 Co60 2.021 . S
O77 C70 1.259 . S
O78 Co62 2.117 . S
O78 C70 1.258 . S
O79 Co62 2.020 . S
O79 C76 1.256 . S
O80 Co60 2.062 . S
O80 C76 1.255 . S
O81 C61 1.259 . S
O81 Co62 2.021 . S
H82 C73 0.930 . S
H83 C72 0.931 . S
O84 Co60 2.117 . S
O84 C61 1.258 . S
O85 Co60 2.020 . S
O85 C87 1.256 . S
O86 Co62 2.062 1_655 S
O86 C87 1.255 1_655 S
C87 O85 1.256 . S
C87 O86 1.255 1_455 S
H88 C67 0.931 . S
H89 C75 0.931 . S
Co90 N95 2.057 1_655 S
Co90 O107 2.021 . S
Co90 O110 2.062 1_655 S
Co90 O114 2.117 . S
Co90 O115 2.020 . S
C91 O111 1.259 . S
C91 O114 1.258 . S
Co92 N101 2.057 . S
Co92 O108 2.117 . S
Co92 O109 2.020 . S
Co92 O111 2.021 . S
Co92 O116 2.062 . S
C93 N95 1.316 . S
C93 N96 1.347 . S
C93 H98 0.931 . S
C94 N95 1.375 . S
C94 C97 1.350 . S
C94 H99 0.930 . S
N95 Co90 2.057 1_455 S
N95 C93 1.316 . S
N95 C94 1.375 . S
N96 C93 1.347 . S
N96 C97 1.373 . S
C97 C94 1.350 . S
C97 N96 1.373 . S
C97 H118 0.931 . S
H98 C93 0.931 . S
H99 C94 0.930 . S
C100 O107 1.259 . S
C100 O108 1.258 . S
N101 Co92 2.057 . S
N101 C102 1.316 . S
N101 C103 1.375 . S
C102 N101 1.316 . S
C102 N104 1.347 . S
C102 H113 0.931 . S
C103 N101 1.375 . S
C103 C105 1.350 . S
C103 H112 0.930 . S
N104 C102 1.347 . S
N104 C105 1.373 . S
C105 C103 1.350 . S
C105 N104 1.373 . S
C105 H119 0.931 . S
C106 O109 1.256 . S
C106 O110 1.255 1_655 S
O107 Co90 2.021 . S
O107 C100 1.259 . S
O108 Co92 2.117 . S
O108 C100 1.258 . S
O109 Co92 2.020 . S
O109 C106 1.256 . S
O110 Co90 2.062 1_455 S
O110 C106 1.255 1_455 S
O111 C91 1.259 . S
O111 Co92 2.021 . S
H112 C103 0.930 . S
H113 C102 0.931 . S
O114 Co90 2.117 . S
O114 C91 1.258 . S
O115 Co90 2.020 . S
O115 C117 1.256 . S
O116 Co92 2.062 . S
O116 C117 1.255 . S
C117 O115 1.256 . S
C117 O116 1.255 . S
H118 C97 0.931 . S
H119 C105 0.931 . S
Co120 N125 2.057 1_554 S
Co120 O137 2.021 . S
Co120 O140 2.062 . S
Co120 O144 2.117 1_554 S
Co120 O145 2.020 . S
C121 O141 1.259 . S
C121 O144 1.258 . S
Co122 N131 2.057 . S
Co122 O138 2.117 . S
Co122 O139 2.020 . S
Co122 O141 2.021 1_554 S
Co122 O146 2.062 . S
C123 N125 1.316 1_554 S
C123 N126 1.349 . S
C123 H128 0.931 . S
C124 N125 1.375 . S
C124 C127 1.350 . S
C124 H129 0.930 . S
N125 Co120 2.057 1_556 S
N125 C123 1.316 1_556 S
N125 C124 1.375 . S
N126 C123 1.349 . S
N126 C127 1.368 1_554 S
C127 C124 1.350 . S
C127 N126 1.368 1_556 S
C127 H148 0.931 . S
H128 C123 0.931 . S
H129 C124 0.930 . S
C130 O137 1.259 . S
C130 O138 1.258 . S
N131 Co122 2.057 . S
N131 C132 1.316 1_554 S
N131 C133 1.375 . S
C132 N131 1.316 1_556 S
C132 N134 1.347 1_556 S
C132 H143 0.931 . S
C133 N131 1.375 . S
C133 C135 1.350 . S
C133 H142 0.930 . S
N134 C132 1.347 1_554 S
N134 C135 1.373 . S
C135 C133 1.350 . S
C135 N134 1.373 . S
C135 H149 0.931 . S
C136 O139 1.256 . S
C136 O140 1.255 . S
O137 Co120 2.021 . S
O137 C130 1.259 . S
O138 Co122 2.117 . S
O138 C130 1.258 . S
O139 Co122 2.020 . S
O139 C136 1.256 . S
O140 Co120 2.062 . S
O140 C136 1.255 . S
O141 C121 1.259 . S
O141 Co122 2.021 1_556 S
H142 C133 0.930 . S
H143 C132 0.931 . S
O144 Co120 2.117 1_556 S
O144 C121 1.258 . S
O145 Co120 2.020 . S
O145 C147 1.256 . S
O146 Co122 2.062 . S
O146 C147 1.255 . S
C147 O145 1.256 . S
C147 O146 1.255 . S
H148 C127 0.931 . S
H149 C135 0.931 . S
Co150 N155 2.057 1_554 S
Co150 O167 2.021 . S
Co150 O170 2.062 . S
Co150 O174 2.117 1_554 S
Co150 O175 2.020 . S
C151 O171 1.259 . S
C151 O174 1.258 . S
Co152 N161 2.057 . S
Co152 O168 2.117 . S
Co152 O169 2.020 . S
Co152 O171 2.021 1_554 S
Co152 O176 2.062 . S
C153 N155 1.316 1_554 S
C153 N156 1.347 1_554 S
C153 H158 0.931 . S
C154 N155 1.375 . S
C154 C157 1.350 . S
C154 H159 0.930 . S
N155 Co150 2.057 1_556 S
N155 C153 1.316 1_556 S
N155 C154 1.375 . S
N156 C153 1.347 1_556 S
N156 C157 1.373 . S
C157 C154 1.350 . S
C157 N156 1.373 . S
C157 H178 0.931 . S
H158 C153 0.931 . S
H159 C154 0.930 . S
C160 O167 1.259 . S
C160 O168 1.258 . S
N161 Co152 2.057 . S
N161 C162 1.316 1_554 S
N161 C163 1.375 . S
C162 N161 1.316 1_556 S
C162 N164 1.347 1_556 S
C162 H173 0.931 . S
C163 N161 1.375 . S
C163 C165 1.350 . S
C163 H172 0.930 . S
N164 C162 1.347 1_554 S
N164 C165 1.373 . S
C165 C163 1.350 . S
C165 N164 1.373 . S
C165 H179 0.931 . S
C166 O169 1.256 . S
C166 O170 1.255 . S
O167 Co150 2.021 . S
O167 C160 1.259 . S
O168 Co152 2.117 . S
O168 C160 1.258 . S
O169 Co152 2.020 . S
O169 C166 1.256 . S
O170 Co150 2.062 . S
O170 C166 1.255 . S
O171 C151 1.259 . S
O171 Co152 2.021 1_556 S
H172 C163 0.930 . S
H173 C162 0.931 . S
O174 Co150 2.117 1_556 S
O174 C151 1.258 . S
O175 Co150 2.020 . S
O175 C177 1.256 . S
O176 Co152 2.062 . S
O176 C177 1.255 . S
C177 O175 1.256 . S
C177 O176 1.255 . S
H178 C157 0.931 . S
H179 C165 0.931 . S
Co180 N185 2.057 . S
Co180 O197 2.021 . S
Co180 O200 2.062 . S
Co180 O204 2.117 . S
Co180 O205 2.020 . S
C181 O201 1.259 . S
C181 O204 1.258 . S
Co182 N191 2.057 . S
Co182 O198 2.117 . S
Co182 O199 2.020 . S
Co182 O201 2.021 . S
Co182 O206 2.062 . S
C183 N185 1.316 . S
C183 N186 1.347 . S
C183 H188 0.931 . S
C184 N185 1.375 . S
C184 C187 1.350 . S
C184 H189 0.930 . S
N185 Co180 2.057 . S
N185 C183 1.316 . S
N185 C184 1.375 . S
N186 C183 1.347 . S
N186 C187 1.373 . S
C187 C184 1.350 . S
C187 N186 1.373 . S
C187 H208 0.931 . S
H188 C183 0.931 . S
H189 C184 0.930 . S
C190 O197 1.259 . S
C190 O198 1.258 . S
N191 Co182 2.057 . S
N191 C192 1.316 . S
N191 C193 1.375 . S
C192 N191 1.316 . S
C192 N194 1.347 . S
C192 H203 0.931 . S
C193 N191 1.375 . S
C193 C195 1.350 . S
C193 H202 0.930 . S
N194 C192 1.347 . S
N194 C195 1.373 . S
C195 C193 1.350 . S
C195 N194 1.373 . S
C195 H209 0.931 . S
C196 O199 1.256 . S
C196 O200 1.255 . S
O197 Co180 2.021 . S
O197 C190 1.259 . S
O198 Co182 2.117 . S
O198 C190 1.258 . S
O199 Co182 2.020 . S
O199 C196 1.256 . S
O200 Co180 2.062 . S
O200 C196 1.255 . S
O201 C181 1.259 . S
O201 Co182 2.021 . S
H202 C193 0.930 . S
H203 C192 0.931 . S
O204 Co180 2.117 . S
O204 C181 1.258 . S
O205 Co180 2.020 . S
O205 C207 1.256 . S
O206 Co182 2.062 . S
O206 C207 1.255 . S
C207 O205 1.256 . S
C207 O206 1.255 . S
H208 C187 0.931 . S
H209 C195 0.931 . S
Co210 N215 2.057 . S
Co210 O227 2.021 . S
Co210 O230 2.062 . S
Co210 O234 2.117 . S
Co210 O235 2.020 . S
C211 O231 1.259 . S
C211 O234 1.258 . S
Co212 N221 2.057 . S
Co212 O228 2.117 . S
Co212 O229 2.020 . S
Co212 O231 2.021 . S
Co212 O236 2.062 . S
C213 N215 1.316 . S
C213 N216 1.347 . S
C213 H218 0.931 . S
C214 N215 1.375 . S
C214 C217 1.350 . S
C214 H219 0.930 . S
N215 Co210 2.057 . S
N215 C213 1.316 . S
N215 C214 1.375 . S
N216 C213 1.347 . S
N216 C217 1.373 . S
C217 C214 1.350 . S
C217 N216 1.373 . S
C217 H238 0.931 . S
H218 C213 0.931 . S
H219 C214 0.930 . S
C220 O227 1.259 . S
C220 O228 1.258 . S
N221 Co212 2.057 . S
N221 C222 1.316 . S
N221 C223 1.375 . S
C222 N221 1.316 . S
C222 N224 1.347 . S
C222 H233 0.931 . S
C223 N221 1.375 . S
C223 C225 1.350 . S
C223 H232 0.930 . S
N224 C222 1.347 . S
N224 C225 1.373 . S
C225 C223 1.350 . S
C225 N224 1.373 . S
C225 H239 0.931 . S
C226 O229 1.256 . S
C226 O230 1.255 . S
O227 Co210 2.021 . S
O227 C220 1.259 . S
O228 Co212 2.117 . S
O228 C220 1.258 . S
O229 Co212 2.020 . S
O229 C226 1.256 . S
O230 Co210 2.062 . S
O230 C226 1.255 . S
O231 C211 1.259 . S
O231 Co212 2.021 . S
H232 C223 0.930 . S
H233 C222 0.931 . S
O234 Co210 2.117 . S
O234 C211 1.258 . S
O235 Co210 2.020 . S
O235 C237 1.256 . S
O236 Co212 2.062 . S
O236 C237 1.255 . S
C237 O235 1.256 . S
C237 O236 1.255 . S
H238 C217 0.931 . S
H239 C225 0.931 . S
C240 C241 1.349 1_556 S
C240 C242 1.327 . S
C240 H265 0.950 . S
C241 C240 1.349 1_554 S
C241 C257 1.349 . S
C242 C240 1.327 . S
C242 C261 1.429 1_556 S
C242 H266 0.950 . S
C243 C260 1.574 . S
C243 C262 1.368 . S
C243 H267 0.949 . S
H244 C248 0.949 . S
C245 C246 1.349 . S
C245 C247 1.327 . S
C245 H268 0.950 . S
C246 C245 1.349 . S
C246 C258 1.349 1_554 S
C247 C245 1.327 . S
C247 C263 1.429 . S
C247 H269 0.950 . S
C248 H244 0.949 . S
C248 C256 1.574 . S
C248 C264 1.368 1_556 S
H249 C257 0.950 . S
H250 C255 0.950 . S
H251 C256 0.949 . S
H252 C258 0.950 . S
H253 C259 0.950 . S
H254 C260 0.949 . S
C255 H250 0.950 . S
C255 C257 1.327 . S
C255 C261 1.429 . S
C256 C248 1.574 . S
C256 H251 0.949 . S
C256 C262 1.368 1_556 S
C257 C241 1.349 . S
C257 H249 0.950 . S
C257 C255 1.327 . S
C258 C246 1.349 1_556 S
C258 H252 0.950 . S
C258 C259 1.327 . S
C259 H253 0.950 . S
C259 C258 1.327 . S
C259 C263 1.429 1_556 S
C260 C243 1.574 . S
C260 H254 0.949 . S
C260 C264 1.368 . S
C261 C242 1.429 1_554 S
C261 C255 1.429 . S
C261 C262 1.523 . S
C262 C243 1.368 . S
C262 C256 1.368 1_554 S
C262 C261 1.523 . S
C263 C247 1.429 . S
C263 C259 1.429 1_554 S
C263 C264 1.523 . S
C264 C248 1.368 1_554 S
C264 C260 1.368 . S
C264 C263 1.523 . S
H265 C240 0.950 . S
H266 C242 0.950 . S
H267 C243 0.949 . S
H268 C245 0.950 . S
H269 C247 0.950 . S
C270 C271 1.349 . S
C270 C272 1.327 . S
C270 H295 0.949 1_554 S
C271 C270 1.349 . S
C271 C287 1.349 . S
C272 C270 1.327 . S
C272 C291 1.429 . S
C272 H296 0.946 1_554 S
C273 C290 1.574 . S
C273 C292 1.368 . S
C273 H297 0.949 . S
H274 C278 0.949 1_556 S
C275 C276 1.349 . S
C275 C277 1.327 . S
C275 H298 0.950 . S
C276 C275 1.349 . S
C276 C288 1.349 . S
C277 C275 1.327 . S
C277 C293 1.429 . S
C277 H299 0.950 . S
C278 H274 0.949 1_554 S
C278 C286 1.574 . S
C278 C294 1.368 . S
H279 C287 0.950 . S
H280 C285 0.950 . S
H281 C286 0.947 1_556 S
H282 C288 0.950 1_556 S
H283 C289 0.950 1_556 S
H284 C290 0.949 . S
C285 H280 0.950 . S
C285 C287 1.327 . S
C285 C291 1.429 . S
C286 C278 1.574 . S
C286 H281 0.947 1_554 S
C286 C292 1.368 . S
C287 C271 1.349 . S
C287 H279 0.950 . S
C287 C285 1.327 . S
C288 C276 1.349 . S
C288 H282 0.950 1_554 S
C288 C289 1.327 . S
C289 H283 0.950 1_554 S
C289 C288 1.327 . S
C289 C293 1.429 . S
C290 C273 1.574 . S
C290 H284 0.949 . S
C290 C294 1.368 . S
C291 C272 1.429 . S
C291 C285 1.429 . S
C291 C292 1.523 . S
C292 C273 1.368 . S
C292 C286 1.368 . S
C292 C291 1.523 . S
C293 C277 1.429 . S
C293 C289 1.429 . S
C293 C294 1.523 . S
C294 C278 1.368 . S
C294 C290 1.368 . S
C294 C293 1.523 . S
H295 C270 0.949 1_556 S
H296 C272 0.946 1_556 S
H297 C273 0.949 . S
H298 C275 0.950 . S
H299 C277 0.950 . S
C300 C301 1.349 . S
C300 C302 1.327 . S
C300 H325 0.950 . S
C301 C300 1.349 . S
C301 C317 1.349 . S
C302 C300 1.327 . S
C302 C321 1.429 . S
C302 H326 0.950 . S
C303 C320 1.574 . S
C303 C322 1.368 . S
C303 H327 0.949 . S
H304 C308 0.949 . S
C305 C306 1.349 . S
C305 C307 1.327 . S
C305 H328 0.950 . S
C306 C305 1.349 . S
C306 C318 1.349 . S
C307 C305 1.327 . S
C307 C323 1.429 . S
C307 H329 0.950 . S
C308 H304 0.949 . S
C308 C316 1.574 . S
C308 C324 1.368 . S
H309 C317 0.950 . S
H310 C315 0.950 . S
H311 C316 0.949 . S
H312 C318 0.950 . S
H313 C319 0.950 . S
H314 C320 0.949 . S
C315 H310 0.950 . S
C315 C317 1.327 . S
C315 C321 1.429 . S
C316 C308 1.574 . S
C316 H311 0.949 . S
C316 C322 1.368 . S
C317 C301 1.349 . S
C317 H309 0.950 . S
C317 C315 1.327 . S
C318 C306 1.349 . S
C318 H312 0.950 . S
C318 C319 1.327 . S
C319 H313 0.950 . S
C319 C318 1.327 . S
C319 C323 1.429 . S
C320 C303 1.574 . S
C320 H314 0.949 . S
C320 C324 1.368 . S
C321 C302 1.429 . S
C321 C315 1.429 . S
C321 C322 1.523 . S
C322 C303 1.368 . S
C322 C316 1.368 . S
C322 C321 1.523 . S
C323 C307 1.429 . S
C323 C319 1.429 . S
C323 C324 1.523 . S
C324 C308 1.368 . S
C324 C320 1.368 . S
C324 C323 1.523 . S
H325 C300 0.950 . S
H326 C302 0.950 . S
H327 C303 0.949 . S
H328 C305 0.950 . S
H329 C307 0.950 . S
C330 C331 1.349 . S
C330 C332 1.327 . S
C330 H355 0.950 . S
C331 C330 1.349 . S
C331 C347 1.349 . S
C332 C330 1.327 . S
C332 C351 1.429 . S
C332 H356 0.950 . S
C333 C350 1.574 . S
C333 C352 1.368 . S
C333 H357 0.949 . S
H334 C338 0.949 . S
C335 C336 1.349 . S
C335 C337 1.327 . S
C335 H358 0.950 . S
C336 C335 1.349 . S
C336 C348 1.349 . S
C337 C335 1.327 . S
C337 C353 1.429 . S
C337 H359 0.950 . S
C338 H334 0.949 . S
C338 C346 1.574 . S
C338 C354 1.368 . S
H339 C347 0.950 . S
H340 C345 0.950 . S
H341 C346 0.949 . S
H342 C348 0.950 . S
H343 C349 0.950 . S
H344 C350 0.949 . S
C345 H340 0.950 . S
C345 C347 1.327 . S
C345 C351 1.429 . S
C346 C338 1.574 . S
C346 H341 0.949 . S
C346 C352 1.368 . S
C347 C331 1.349 . S
C347 H339 0.950 . S
C347 C345 1.327 . S
C348 C336 1.349 . S
C348 H342 0.950 . S
C348 C349 1.327 . S
C349 H343 0.950 . S
C349 C348 1.327 . S
C349 C353 1.429 . S
C350 C333 1.574 . S
C350 H344 0.949 . S
C350 C354 1.368 . S
C351 C332 1.429 . S
C351 C345 1.429 . S
C351 C352 1.523 . S
C352 C333 1.368 . S
C352 C346 1.368 . S
C352 C351 1.523 . S
C353 C337 1.429 . S
C353 C349 1.429 . S
C353 C354 1.523 . S
C354 C338 1.368 . S
C354 C350 1.368 . S
C354 C353 1.523 . S
H355 C330 0.950 . S
H356 C332 0.950 . S
H357 C333 0.949 . S
H358 C335 0.950 . S
H359 C337 0.950 . S
C360 C361 1.349 . S
C360 C362 1.327 . S
C360 H385 0.950 . S
C361 C360 1.349 . S
C361 C377 1.349 1_554 S
C362 C360 1.327 . S
C362 C381 1.429 . S
C362 H386 0.950 . S
C363 C380 1.574 . S
C363 C382 1.368 1_556 S
C363 H387 0.949 . S
H364 C368 0.949 . S
C365 C366 1.349 1_556 S
C365 C367 1.327 . S
C365 H388 0.950 . S
C366 C365 1.349 1_554 S
C366 C378 1.349 . S
C367 C365 1.327 . S
C367 C383 1.429 1_556 S
C367 H389 0.950 . S
C368 H364 0.949 . S
C368 C376 1.574 . S
C368 C384 1.368 . S
H369 C377 0.950 . S
H370 C375 0.950 . S
H371 C376 0.949 . S
H372 C378 0.950 . S
H373 C379 0.950 . S
H374 C380 0.949 . S
C375 H370 0.950 . S
C375 C377 1.327 . S
C375 C381 1.429 1_556 S
C376 C368 1.574 . S
C376 H371 0.949 . S
C376 C382 1.368 . S
C377 C361 1.349 1_556 S
C377 H369 0.950 . S
C377 C375 1.327 . S
C378 C366 1.349 . S
C378 H372 0.950 . S
C378 C379 1.327 . S
C379 H373 0.950 . S
C379 C378 1.327 . S
C379 C383 1.429 . S
C380 C363 1.574 . S
C380 H374 0.949 . S
C380 C384 1.368 1_556 S
C381 C362 1.429 . S
C381 C375 1.429 1_554 S
C381 C382 1.523 1_655 S
C382 C363 1.368 1_554 S
C382 C376 1.368 . S
C382 C381 1.523 1_455 S
C383 C367 1.429 1_554 S
C383 C379 1.429 . S
C383 C384 1.523 . S
C384 C368 1.368 . S
C384 C380 1.368 1_554 S
C384 C383 1.523 . S
H385 C360 0.950 . S
H386 C362 0.950 . S
H387 C363 0.949 . S
H388 C365 0.950 . S
H389 C367 0.950 . S
C390 C391 1.349 . S
C390 C392 1.327 . S
C390 H415 0.950 . S
C391 C390 1.349 . S
C391 C407 1.349 1_554 S
C392 C390 1.327 . S
C392 C411 1.429 . S
C392 H416 0.950 . S
C393 C410 1.574 . S
C393 C412 1.368 1_556 S
C393 H417 0.949 . S
H394 C398 0.949 . S
C395 C396 1.349 1_556 S
C395 C397 1.327 . S
C395 H418 0.950 . S
C396 C395 1.349 1_554 S
C396 C408 1.349 . S
C397 C395 1.327 . S
C397 C413 1.429 1_556 S
C397 H419 0.950 . S
C398 H394 0.949 . S
C398 C406 1.574 . S
C398 C414 1.368 . S
H399 C407 0.950 . S
H400 C405 0.950 . S
H401 C406 0.949 1_455 S
H402 C408 0.950 . S
H403 C409 0.950 . S
H404 C410 0.949 . S
C405 H400 0.950 . S
C405 C407 1.327 . S
C405 C411 1.429 1_556 S
C406 C398 1.574 . S
C406 H401 0.949 1_655 S
C406 C412 1.368 . S
C407 C391 1.349 1_556 S
C407 H399 0.950 . S
C407 C405 1.327 . S
C408 C396 1.349 . S
C408 H402 0.950 . S
C408 C409 1.327 . S
C409 H403 0.950 . S
C409 C408 1.327 . S
C409 C413 1.429 . S
C410 C393 1.574 . S
C410 H404 0.949 . S
C410 C414 1.368 1_556 S
C411 C392 1.429 . S
C411 C405 1.429 1_554 S
C411 C412 1.523 1_455 S
C412 C393 1.368 1_554 S
C412 C406 1.368 . S
C412 C411 1.523 1_655 S
C413 C397 1.429 1_554 S
C413 C409 1.429 . S
C413 C414 1.523 . S
C414 C398 1.368 . S
C414 C410 1.368 1_554 S
C414 C413 1.523 . S
H415 C390 0.950 . S
H416 C392 0.950 . S
H417 C393 0.949 . S
H418 C395 0.950 . S
H419 C397 0.950 . S
C420 C421 1.349 . S
C420 C422 1.327 . S
C420 H445 0.950 . S
C421 C420 1.349 . S
C421 C437 1.349 . S
C422 C420 1.327 . S
C422 C441 1.429 . S
C422 H446 0.950 . S
C423 C440 1.574 . S
C423 C442 1.368 . S
C423 H447 0.949 . S
H424 C428 0.949 . S
C425 C426 1.349 . S
C425 C427 1.327 . S
C425 H448 0.950 . S
C426 C425 1.349 . S
C426 C438 1.349 . S
C427 C425 1.327 . S
C427 C443 1.429 . S
C427 H449 0.950 . S
C428 H424 0.949 . S
C428 C436 1.574 . S
C428 C444 1.368 . S
H429 C437 0.950 . S
H430 C435 0.950 . S
H431 C436 0.949 . S
H432 C438 0.950 . S
H433 C439 0.950 . S
H434 C440 0.949 . S
C435 H430 0.950 . S
C435 C437 1.327 . S
C435 C441 1.429 . S
C436 C428 1.574 . S
C436 H431 0.949 . S
C436 C442 1.368 . S
C437 C421 1.349 . S
C437 H429 0.950 . S
C437 C435 1.327 . S
C438 C426 1.349 . S
C438 H432 0.950 . S
C438 C439 1.327 . S
C439 H433 0.950 . S
C439 C438 1.327 . S
C439 C443 1.429 . S
C440 C423 1.574 . S
C440 H434 0.949 . S
C440 C444 1.368 . S
C441 C422 1.429 . S
C441 C435 1.429 . S
C441 C442 1.523 . S
C442 C423 1.368 . S
C442 C436 1.368 . S
C442 C441 1.523 . S
C443 C427 1.429 . S
C443 C439 1.429 . S
C443 C444 1.523 1_655 S
C444 C428 1.368 . S
C444 C440 1.368 . S
C444 C443 1.523 1_455 S
H445 C420 0.950 . S
H446 C422 0.950 . S
H447 C423 0.949 . S
H448 C425 0.950 . S
H449 C427 0.950 . S
C450 C451 1.349 . S
C450 C452 1.327 . S
C450 H475 0.950 . S
C451 C450 1.349 . S
C451 C467 1.349 . S
C452 C450 1.327 . S
C452 C471 1.429 . S
C452 H476 0.950 . S
C453 C470 1.574 . S
C453 C472 1.368 . S
C453 H477 0.949 . S
H454 C458 0.949 . S
C455 C456 1.349 . S
C455 C457 1.327 . S
C455 H478 0.950 . S
C456 C455 1.349 . S
C456 C468 1.349 . S
C457 C455 1.327 . S
C457 C473 1.429 . S
C457 H479 0.950 . S
C458 H454 0.949 . S
C458 C466 1.574 . S
C458 C474 1.368 . S
H459 C467 0.950 . S
H460 C465 0.950 . S
H461 C466 0.949 . S
H462 C468 0.950 . S
H463 C469 0.950 . S
H464 C470 0.949 . S
C465 H460 0.950 . S
C465 C467 1.327 . S
C465 C471 1.429 . S
C466 C458 1.574 . S
C466 H461 0.949 . S
C466 C472 1.368 . S
C467 C451 1.349 . S
C467 H459 0.950 . S
C467 C465 1.327 . S
C468 C456 1.349 . S
C468 H462 0.950 . S
C468 C469 1.327 . S
C469 H463 0.950 . S
C469 C468 1.327 . S
C469 C473 1.429 . S
C470 C453 1.574 . S
C470 H464 0.949 . S
C470 C474 1.368 . S
C471 C452 1.429 . S
C471 C465 1.429 . S
C471 C472 1.523 . S
C472 C453 1.368 . S
C472 C466 1.368 . S
C472 C471 1.523 . S
C473 C457 1.429 . S
C473 C469 1.429 . S
C473 C474 1.523 1_455 S
C474 C458 1.368 . S
C474 C470 1.368 . S
C474 C473 1.523 1_655 S
H475 C450 0.950 . S
H476 C452 0.950 . S
H477 C453 0.949 . S
H478 C455 0.950 . S
H479 C457 0.950 . S
C480 C481 1.349 1_456 S
C480 C482 1.327 . S
C480 H505 0.950 . S
C481 C480 1.349 1_654 S
C481 C497 1.349 . S
C482 C480 1.327 . S
C482 C501 1.429 1_456 S
C482 H506 0.950 . S
C483 C500 1.574 . S
C483 C502 1.368 . S
C483 H507 0.949 . S
H484 C488 0.949 . S
C485 C486 1.349 1_655 S
C485 C487 1.327 . S
C485 H508 0.950 . S
C486 C485 1.349 1_455 S
C486 C498 1.349 1_554 S
C487 C485 1.327 . S
C487 C503 1.429 1_655 S
C487 H509 0.950 . S
C488 H484 0.949 . S
C488 C496 1.574 . S
C488 C504 1.368 1_556 S
H489 C497 0.950 . S
H490 C495 0.950 . S
H491 C496 0.949 . S
H492 C498 0.950 . S
H493 C499 0.950 . S
H494 C500 0.949 . S
C495 H490 0.950 . S
C495 C497 1.327 . S
C495 C501 1.429 . S
C496 C488 1.574 . S
C496 H491 0.949 . S
C496 C502 1.368 1_456 S
C497 C481 1.349 . S
C497 H489 0.950 . S
C497 C495 1.327 . S
C498 C486 1.349 1_556 S
C498 H492 0.950 . S
C498 C499 1.327 . S
C499 H493 0.950 . S
C499 C498 1.327 . S
C499 C503 1.429 1_556 S
C500 C483 1.574 . S
C500 H494 0.949 . S
C500 C504 1.368 1_655 S
C501 C482 1.429 1_654 S
C501 C495 1.429 . S
C501 C502 1.523 . S
C502 C483 1.368 . S
C502 C496 1.368 1_654 S
C502 C501 1.523 . S
C503 C487 1.429 1_455 S
C503 C499 1.429 1_554 S
C503 C504 1.523 . S
C504 C488 1.368 1_554 S
C504 C500 1.368 1_455 S
C504 C503 1.523 . S
H505 C480 0.950 . S
H506 C482 0.950 . S
H507 C483 0.949 . S
H508 C485 0.950 . S
H509 C487 0.950 . S
C510 C511 1.349 . S
C510 C512 1.327 . S
C510 H535 0.950 . S
C511 C510 1.349 . S
C511 C527 1.349 1_655 S
C512 C510 1.327 . S
C512 C531 1.429 . S
C512 H536 0.950 . S
C513 C530 1.574 . S
C513 C532 1.368 1_455 S
C513 H537 0.949 . S
H514 C518 0.949 . S
C515 C516 1.349 . S
C515 C517 1.327 . S
C515 H538 0.950 . S
C516 C515 1.349 . S
C516 C528 1.349 1_455 S
C517 C515 1.327 . S
C517 C533 1.429 . S
C517 H539 0.950 . S
C518 H514 0.949 . S
C518 C526 1.574 . S
C518 C534 1.368 1_655 S
H519 C527 0.950 . S
H520 C525 0.950 . S
H521 C526 0.949 . S
H522 C528 0.950 . S
H523 C529 0.950 . S
H524 C530 0.949 . S
C525 H520 0.950 . S
C525 C527 1.327 . S
C525 C531 1.429 1_455 S
C526 C518 1.574 . S
C526 H521 0.949 . S
C526 C532 1.368 . S
C527 C511 1.349 1_455 S
C527 H519 0.950 . S
C527 C525 1.327 . S
C528 C516 1.349 1_655 S
C528 H522 0.950 . S
C528 C529 1.327 . S
C529 H523 0.950 . S
C529 C528 1.327 . S
C529 C533 1.429 1_655 S
C530 C513 1.574 . S
C530 H524 0.949 . S
C530 C534 1.368 . S
C531 C512 1.429 . S
C531 C525 1.429 1_655 S
C531 C532 1.523 . S
C532 C513 1.368 1_655 S
C532 C526 1.368 . S
C532 C531 1.523 . S
C533 C517 1.429 . S
C533 C529 1.429 1_455 S
C533 C534 1.523 . S
C534 C518 1.368 1_455 S
C534 C530 1.368 . S
C534 C533 1.523 . S
H535 C510 0.950 . S
H536 C512 0.950 . S
H537 C513 0.949 . S
H538 C515 0.950 . S
H539 C517 0.950 . S
C540 C541 1.349 1_556 S
C540 C542 1.327 . S
C540 H565 0.950 . S
C541 C540 1.349 1_554 S
C541 C557 1.349 . S
C542 C540 1.327 . S
C542 C561 1.429 1_556 S
C542 H566 0.950 . S
C543 C560 1.574 1_565 S
C543 C562 1.368 . S
C543 H567 0.949 . S
H544 C548 0.949 . S
C545 C546 1.349 . S
C545 C547 1.327 . S
C545 H568 0.950 . S
C546 C545 1.349 . S
C546 C558 1.349 1_554 S
C547 C545 1.327 . S
C547 C563 1.429 . S
C547 H569 0.950 . S
C548 H544 0.949 . S
C548 C556 1.574 1_545 S
C548 C564 1.368 1_556 S
H549 C557 0.950 . S
H550 C555 0.950 . S
H551 C556 0.949 . S
H552 C558 0.950 . S
H553 C559 0.950 . S
H554 C560 0.949 . S
C555 H550 0.950 . S
C555 C557 1.327 . S
C555 C561 1.429 . S
C556 C548 1.574 1_565 S
C556 H551 0.949 . S
C556 C562 1.368 1_556 S
C557 C541 1.349 . S
C557 H549 0.950 . S
C557 C555 1.327 . S
C558 C546 1.349 1_556 S
C558 H552 0.950 . S
C558 C559 1.327 . S
C559 H553 0.950 . S
C559 C558 1.327 . S
C559 C563 1.429 1_556 S
C560 C543 1.574 1_545 S
C560 H554 0.949 . S
C560 C564 1.368 . S
C561 C542 1.429 1_554 S
C561 C555 1.429 . S
C561 C562 1.523 . S
C562 C543 1.368 . S
C562 C556 1.368 1_554 S
C562 C561 1.523 . S
C563 C547 1.429 . S
C563 C559 1.429 1_554 S
C563 C564 1.523 . S
C564 C548 1.368 1_554 S
C564 C560 1.368 . S
C564 C563 1.523 . S
H565 C540 0.950 . S
H566 C542 0.950 . S
H567 C543 0.949 . S
H568 C545 0.950 . S
H569 C547 0.950 . S
C570 C571 1.349 . S
C570 C572 1.327 . S
C570 H595 0.950 . S
C571 C570 1.349 . S
C571 C587 1.349 . S
C572 C570 1.327 . S
C572 C591 1.429 . S
C572 H596 0.950 . S
C573 C590 1.574 1_545 S
C573 C592 1.368 . S
C573 H597 0.949 . S
H574 C578 0.949 . S
C575 C576 1.349 . S
C575 C577 1.327 . S
C575 H598 0.950 . S
C576 C575 1.349 . S
C576 C588 1.349 . S
C577 C575 1.327 . S
C577 C593 1.429 . S
C577 H599 0.950 . S
C578 H574 0.949 . S
C578 C586 1.574 1_565 S
C578 C594 1.368 . S
H579 C587 0.950 . S
H580 C585 0.950 . S
H581 C586 0.949 . S
H582 C588 0.950 . S
H583 C589 0.950 . S
H584 C590 0.949 . S
C585 H580 0.950 . S
C585 C587 1.327 . S
C585 C591 1.429 . S
C586 C578 1.574 1_545 S
C586 H581 0.949 . S
C586 C592 1.368 . S
C587 C571 1.349 . S
C587 H579 0.950 . S
C587 C585 1.327 . S
C588 C576 1.349 . S
C588 H582 0.950 . S
C588 C589 1.327 . S
C589 H583 0.950 . S
C589 C588 1.327 . S
C589 C593 1.429 . S
C590 C573 1.574 1_565 S
C590 H584 0.949 . S
C590 C594 1.368 . S
C591 C572 1.429 . S
C591 C585 1.429 . S
C591 C592 1.523 . S
C592 C573 1.368 . S
C592 C586 1.368 . S
C592 C591 1.523 . S
C593 C577 1.429 . S
C593 C589 1.429 . S
C593 C594 1.523 . S
C594 C578 1.368 . S
C594 C590 1.368 . S
C594 C593 1.523 . S
H595 C570 0.950 . S
H596 C572 0.950 . S
H597 C573 0.949 . S
H598 C575 0.950 . S
H599 C577 0.950 . S
C600 C601 1.349 . S
C600 C602 1.327 . S
C600 H625 0.950 . S
C601 C600 1.349 . S
C601 C617 1.349 1_554 S
C602 C600 1.327 . S
C602 C621 1.429 . S
C602 H626 0.950 . S
C603 C620 1.574 . S
C603 C622 1.368 1_556 S
C603 H627 0.949 . S
H604 C608 0.949 . S
C605 C606 1.349 1_556 S
C605 C607 1.327 . S
C605 H628 0.950 . S
C606 C605 1.349 1_554 S
C606 C618 1.349 . S
C607 C605 1.327 . S
C607 C623 1.429 1_556 S
C607 H629 0.950 . S
C608 H604 0.949 . S
C608 C616 1.574 . S
C608 C624 1.368 . S
H609 C617 0.950 . S
H610 C615 0.950 . S
H611 C616 0.949 . S
H612 C618 0.950 . S
H613 C619 0.950 . S
H614 C620 0.949 . S
C615 H610 0.950 . S
C615 C617 1.327 . S
C615 C621 1.429 1_556 S
C616 C608 1.574 . S
C616 H611 0.949 . S
C616 C622 1.368 . S
C617 C601 1.349 1_556 S
C617 H609 0.950 . S
C617 C615 1.327 . S
C618 C606 1.349 . S
C618 H612 0.950 . S
C618 C619 1.327 . S
C619 H613 0.950 . S
C619 C618 1.327 . S
C619 C623 1.429 . S
C620 C603 1.574 . S
C620 H614 0.949 . S
C620 C624 1.368 1_556 S
C621 C602 1.429 . S
C621 C615 1.429 1_554 S
C621 C622 1.523 . S
C622 C603 1.368 1_554 S
C622 C616 1.368 . S
C622 C621 1.523 . S
C623 C607 1.429 1_554 S
C623 C619 1.429 . S
C623 C624 1.523 . S
C624 C608 1.368 . S
C624 C620 1.368 1_554 S
C624 C623 1.523 . S
H625 C600 0.950 . S
H626 C602 0.950 . S
H627 C603 0.949 . S
H628 C605 0.950 . S
H629 C607 0.950 . S
C630 C631 1.349 . S
C630 C632 1.327 . S
C630 H655 0.950 . S
C631 C630 1.349 . S
C631 C647 1.349 1_554 S
C632 C630 1.327 . S
C632 C651 1.429 . S
C632 H656 0.950 . S
C633 C650 1.574 . S
C633 C652 1.368 1_556 S
C633 H657 0.949 . S
H634 C638 0.949 . S
C635 C636 1.349 1_556 S
C635 C637 1.327 . S
C635 H658 0.950 . S
C636 C635 1.349 1_554 S
C636 C648 1.349 . S
C637 C635 1.327 . S
C637 C653 1.429 1_556 S
C637 H659 0.950 . S
C638 H634 0.949 . S
C638 C646 1.574 . S
C638 C654 1.368 . S
H639 C647 0.950 . S
H640 C645 0.950 . S
H641 C646 0.949 . S
H642 C648 0.950 . S
H643 C649 0.950 . S
H644 C650 0.949 . S
C645 H640 0.950 . S
C645 C647 1.327 . S
C645 C651 1.429 1_556 S
C646 C638 1.574 . S
C646 H641 0.949 . S
C646 C652 1.368 . S
C647 C631 1.349 1_556 S
C647 H639 0.950 . S
C647 C645 1.327 . S
C648 C636 1.349 . S
C648 H642 0.950 . S
C648 C649 1.327 . S
C649 H643 0.950 . S
C649 C648 1.327 . S
C649 C653 1.429 . S
C650 C633 1.574 . S
C650 H644 0.949 . S
C650 C654 1.368 1_556 S
C651 C632 1.429 . S
C651 C645 1.429 1_554 S
C651 C652 1.523 . S
C652 C633 1.368 1_554 S
C652 C646 1.368 . S
C652 C651 1.523 . S
C653 C637 1.429 1_554 S
C653 C649 1.429 . S
C653 C654 1.523 . S
C654 C638 1.368 . S
C654 C650 1.368 1_554 S
C654 C653 1.523 . S
H655 C630 0.950 . S
H656 C632 0.950 . S
H657 C633 0.949 . S
H658 C635 0.950 . S
H659 C637 0.950 . S
C660 C661 1.349 . S
C660 C662 1.327 . S
C660 H685 0.950 . S
C661 C660 1.349 . S
C661 C677 1.349 . S
C662 C660 1.327 . S
C662 C681 1.429 . S
C662 H686 0.950 . S
C663 C680 1.574 . S
C663 C682 1.368 . S
C663 H687 0.949 . S
H664 C668 0.949 . S
C665 C666 1.349 . S
C665 C667 1.327 . S
C665 H688 0.950 . S
C666 C665 1.349 . S
C666 C678 1.349 . S
C667 C665 1.327 . S
C667 C683 1.429 . S
C667 H689 0.950 . S
C668 H664 0.949 . S
C668 C676 1.574 . S
C668 C684 1.368 . S
H669 C677 0.950 . S
H670 C675 0.950 . S
H671 C676 0.949 . S
H672 C678 0.950 . S
H673 C679 0.950 . S
H674 C680 0.949 . S
C675 H670 0.950 . S
C675 C677 1.327 . S
C675 C681 1.429 . S
C676 C668 1.574 . S
C676 H671 0.949 . S
C676 C682 1.368 . S
C677 C661 1.349 . S
C677 H669 0.950 . S
C677 C675 1.327 . S
C678 C666 1.349 . S
C678 H672 0.950 . S
C678 C679 1.327 . S
C679 H673 0.950 . S
C679 C678 1.327 . S
C679 C683 1.429 . S
C680 C663 1.574 . S
C680 H674 0.949 . S
C680 C684 1.368 . S
C681 C662 1.429 . S
C681 C675 1.429 . S
C681 C682 1.523 . S
C682 C663 1.368 . S
C682 C676 1.368 . S
C682 C681 1.523 . S
C683 C667 1.429 . S
C683 C679 1.429 . S
C683 C684 1.523 . S
C684 C668 1.368 . S
C684 C680 1.368 . S
C684 C683 1.523 . S
H685 C660 0.950 . S
H686 C662 0.950 . S
H687 C663 0.949 . S
H688 C665 0.950 . S
H689 C667 0.950 . S
C690 C691 1.349 . S
C690 C692 1.327 . S
C690 H715 0.950 . S
C691 C690 1.349 . S
C691 C707 1.349 . S
C692 C690 1.327 . S
C692 C711 1.429 . S
C692 H716 0.950 . S
C693 C710 1.574 . S
C693 C712 1.368 . S
C693 H717 0.949 . S
H694 C698 0.949 . S
C695 C696 1.349 . S
C695 C697 1.327 . S
C695 H718 0.950 . S
C696 C695 1.349 . S
C696 C708 1.349 . S
C697 C695 1.327 . S
C697 C713 1.429 . S
C697 H719 0.950 . S
C698 H694 0.949 . S
C698 C706 1.574 . S
C698 C714 1.368 . S
H699 C707 0.950 . S
H700 C705 0.950 . S
H701 C706 0.949 . S
H702 C708 0.950 . S
H703 C709 0.950 . S
H704 C710 0.949 . S
C705 H700 0.950 . S
C705 C707 1.327 . S
C705 C711 1.429 . S
C706 C698 1.574 . S
C706 H701 0.949 . S
C706 C712 1.368 . S
C707 C691 1.349 . S
C707 H699 0.950 . S
C707 C705 1.327 . S
C708 C696 1.349 . S
C708 H702 0.950 . S
C708 C709 1.327 . S
C709 H703 0.950 . S
C709 C708 1.327 . S
C709 C713 1.429 . S
C710 C693 1.574 . S
C710 H704 0.949 . S
C710 C714 1.368 . S
C711 C692 1.429 . S
C711 C705 1.429 . S
C711 C712 1.523 . S
C712 C693 1.368 . S
C712 C706 1.368 . S
C712 C711 1.523 . S
C713 C697 1.429 . S
C713 C709 1.429 . S
C713 C714 1.523 . S
C714 C698 1.368 . S
C714 C710 1.368 . S
C714 C713 1.523 . S
H715 C690 0.950 . S
H716 C692 0.950 . S
H717 C693 0.949 . S
H718 C695 0.950 . S
H719 C697 0.950 . S
C720 C721 1.349 . S
C720 C722 1.327 . S
C720 H745 0.950 . S
C721 C720 1.349 . S
C721 C737 1.349 . S
C722 C720 1.327 . S
C722 C741 1.429 . S
C722 H746 0.950 . S
C723 C740 1.574 . S
C723 C742 1.368 1_655 S
C723 H747 0.949 . S
H724 C728 0.949 . S
C725 C726 1.349 . S
C725 C727 1.327 . S
C725 H748 0.950 . S
C726 C725 1.349 . S
C726 C738 1.349 . S
C727 C725 1.327 . S
C727 C743 1.429 . S
C727 H749 0.950 . S
C728 H724 0.949 . S
C728 C736 1.574 . S
C728 C744 1.368 1_455 S
H729 C737 0.950 . S
H730 C735 0.950 1_655 S
H731 C736 0.949 . S
H732 C738 0.950 . S
H733 C739 0.950 1_455 S
H734 C740 0.949 . S
C735 H730 0.950 1_455 S
C735 C737 1.327 . S
C735 C741 1.429 . S
C736 C728 1.574 . S
C736 H731 0.949 . S
C736 C742 1.368 . S
C737 C721 1.349 . S
C737 H729 0.950 . S
C737 C735 1.327 . S
C738 C726 1.349 . S
C738 H732 0.950 . S
C738 C739 1.327 . S
C739 H733 0.950 1_655 S
C739 C738 1.327 . S
C739 C743 1.429 . S
C740 C723 1.574 . S
C740 H734 0.949 . S
C740 C744 1.368 . S
C741 C722 1.429 . S
C741 C735 1.429 . S
C741 C742 1.523 . S
C742 C723 1.368 1_455 S
C742 C736 1.368 . S
C742 C741 1.523 . S
C743 C727 1.429 . S
C743 C739 1.429 . S
C743 C744 1.523 . S
C744 C728 1.368 1_655 S
C744 C740 1.368 . S
C744 C743 1.523 . S
H745 C720 0.950 . S
H746 C722 0.950 . S
H747 C723 0.949 . S
H748 C725 0.950 . S
H749 C727 0.950 . S
C750 C751 1.349 . S
C750 C752 1.327 . S
C750 H775 0.950 . S
C751 C750 1.349 . S
C751 C767 1.349 . S
C752 C750 1.327 . S
C752 C771 1.429 . S
C752 H776 0.950 1_655 S
C753 C770 1.574 . S
C753 C772 1.368 . S
C753 H777 0.949 . S
H754 C758 0.949 . S
C755 C756 1.349 . S
C755 C757 1.327 . S
C755 H778 0.950 . S
C756 C755 1.349 . S
C756 C768 1.349 . S
C757 C755 1.327 . S
C757 C773 1.429 . S
C757 H779 0.950 1_455 S
C758 H754 0.949 . S
C758 C766 1.574 . S
C758 C774 1.368 . S
H759 C767 0.950 . S
H760 C765 0.950 . S
H761 C766 0.949 . S
H762 C768 0.950 . S
H763 C769 0.950 . S
H764 C770 0.949 . S
C765 H760 0.950 . S
C765 C767 1.327 . S
C765 C771 1.429 . S
C766 C758 1.574 . S
C766 H761 0.949 . S
C766 C772 1.368 1_455 S
C767 C751 1.349 . S
C767 H759 0.950 . S
C767 C765 1.327 . S
C768 C756 1.349 . S
C768 H762 0.950 . S
C768 C769 1.327 . S
C769 H763 0.950 . S
C769 C768 1.327 . S
C769 C773 1.429 . S
C770 C753 1.574 . S
C770 H764 0.949 . S
C770 C774 1.368 1_655 S
C771 C752 1.429 . S
C771 C765 1.429 . S
C771 C772 1.523 . S
C772 C753 1.368 . S
C772 C766 1.368 1_655 S
C772 C771 1.523 . S
C773 C757 1.429 . S
C773 C769 1.429 . S
C773 C774 1.523 . S
C774 C758 1.368 . S
C774 C770 1.368 1_455 S
C774 C773 1.523 . S
H775 C750 0.950 . S
H776 C752 0.950 1_455 S
H777 C753 0.949 . S
H778 C755 0.950 . S
H779 C757 0.950 1_655 S
C780 C781 1.349 . S
C780 C782 1.327 . S
C780 H805 0.950 . S
C781 C780 1.349 . S
C781 C797 1.349 . S
C782 C780 1.327 . S
C782 C801 1.429 . S
C782 H806 0.950 . S
C783 C800 1.574 . S
C783 C802 1.368 1_455 S
C783 H807 0.949 . S
H784 C788 0.949 . S
C785 C786 1.349 . S
C785 C787 1.327 . S
C785 H808 0.950 . S
C786 C785 1.349 . S
C786 C798 1.349 . S
C787 C785 1.327 . S
C787 C803 1.429 . S
C787 H809 0.950 . S
C788 H784 0.949 . S
C788 C796 1.574 . S
C788 C804 1.368 1_655 S
H789 C797 0.950 . S
H790 C795 0.950 1_455 S
H791 C796 0.949 . S
H792 C798 0.950 . S
H793 C799 0.950 1_655 S
H794 C800 0.949 . S
C795 H790 0.950 1_655 S
C795 C797 1.327 . S
C795 C801 1.429 . S
C796 C788 1.574 . S
C796 H791 0.949 . S
C796 C802 1.368 . S
C797 C781 1.349 . S
C797 H789 0.950 . S
C797 C795 1.327 . S
C798 C786 1.349 . S
C798 H792 0.950 . S
C798 C799 1.327 . S
C799 H793 0.950 1_455 S
C799 C798 1.327 . S
C799 C803 1.429 . S
C800 C783 1.574 . S
C800 H794 0.949 . S
C800 C804 1.368 . S
C801 C782 1.429 . S
C801 C795 1.429 . S
C801 C802 1.523 . S
C802 C783 1.368 1_655 S
C802 C796 1.368 . S
C802 C801 1.523 . S
C803 C787 1.429 . S
C803 C799 1.429 . S
C803 C804 1.523 . S
C804 C788 1.368 1_455 S
C804 C800 1.368 . S
C804 C803 1.523 . S
H805 C780 0.950 . S
H806 C782 0.950 . S
H807 C783 0.949 . S
H808 C785 0.950 . S
H809 C787 0.950 . S
C810 C811 1.349 . S
C810 C812 1.327 . S
C810 H835 0.950 . S
C811 C810 1.349 . S
C811 C827 1.349 . S
C812 C810 1.327 . S
C812 C831 1.429 . S
C812 H836 0.950 1_655 S
C813 C830 1.574 . S
C813 C832 1.368 . S
C813 H837 0.949 . S
H814 C818 0.949 . S
C815 C816 1.349 . S
C815 C817 1.327 . S
C815 H838 0.950 . S
C816 C815 1.349 . S
C816 C828 1.349 . S
C817 C815 1.327 . S
C817 C833 1.429 . S
C817 H839 0.950 1_455 S
C818 H814 0.949 . S
C818 C826 1.574 . S
C818 C834 1.368 . S
H819 C827 0.950 . S
H820 C825 0.950 . S
H821 C826 0.949 . S
H822 C828 0.950 . S
H823 C829 0.950 . S
H824 C830 0.949 . S
C825 H820 0.950 . S
C825 C827 1.327 . S
C825 C831 1.429 . S
C826 C818 1.574 . S
C826 H821 0.949 . S
C826 C832 1.368 1_455 S
C827 C811 1.349 . S
C827 H819 0.950 . S
C827 C825 1.327 . S
C828 C816 1.349 . S
C828 H822 0.950 . S
C828 C829 1.327 . S
C829 H823 0.950 . S
C829 C828 1.327 . S
C829 C833 1.429 . S
C830 C813 1.574 . S
C830 H824 0.949 . S
C830 C834 1.368 1_655 S
C831 C812 1.429 . S
C831 C825 1.429 . S
C831 C832 1.523 . S
C832 C813 1.368 . S
C832 C826 1.368 1_655 S
C832 C831 1.523 . S
C833 C817 1.429 . S
C833 C829 1.429 . S
C833 C834 1.523 . S
C834 C818 1.368 . S
C834 C830 1.368 1_455 S
C834 C833 1.523 . S
H835 C810 0.950 . S
H836 C812 0.950 1_455 S
H837 C813 0.949 . S
H838 C815 0.950 . S
H839 C817 0.950 1_655 S
C840 C841 1.349 . S
C840 C842 1.327 . S
C840 H865 0.950 . S
C841 C840 1.349 . S
C841 C857 1.349 . S
C842 C840 1.327 . S
C842 C861 1.429 . S
C842 H866 0.950 . S
C843 C860 1.574 . S
C843 C862 1.368 . S
C843 H867 0.949 . S
H844 C848 0.949 . S
C845 C846 1.349 . S
C845 C847 1.327 . S
C845 H868 0.950 . S
C846 C845 1.349 . S
C846 C858 1.349 . S
C847 C845 1.327 . S
C847 C863 1.429 . S
C847 H869 0.950 . S
C848 H844 0.949 . S
C848 C856 1.574 . S
C848 C864 1.368 . S
H849 C857 0.950 . S
H850 C855 0.950 . S
H851 C856 0.949 . S
H852 C858 0.950 . S
H853 C859 0.950 . S
H854 C860 0.949 . S
C855 H850 0.950 . S
C855 C857 1.327 . S
C855 C861 1.429 . S
C856 C848 1.574 . S
C856 H851 0.949 . S
C856 C862 1.368 . S
C857 C841 1.349 . S
C857 H849 0.950 . S
C857 C855 1.327 . S
C858 C846 1.349 . S
C858 H852 0.950 . S
C858 C859 1.327 . S
C859 H853 0.950 . S
C859 C858 1.327 . S
C859 C863 1.429 . S
C860 C843 1.574 . S
C860 H854 0.949 . S
C860 C864 1.368 . S
C861 C842 1.429 . S
C861 C855 1.429 . S
C861 C862 1.523 . S
C862 C843 1.368 . S
C862 C856 1.368 . S
C862 C861 1.523 . S
C863 C847 1.429 . S
C863 C859 1.429 . S
C863 C864 1.523 . S
C864 C848 1.368 . S
C864 C860 1.368 . S
C864 C863 1.523 . S
H865 C840 0.950 . S
H866 C842 0.950 . S
H867 C843 0.949 . S
H868 C845 0.950 . S
H869 C847 0.950 . S
C870 C871 1.349 . S
C870 C872 1.327 . S
C870 H895 0.950 . S
C871 C870 1.349 . S
C871 C887 1.349 . S
C872 C870 1.327 . S
C872 C891 1.429 . S
C872 H896 0.950 . S
C873 C890 1.574 . S
C873 C892 1.368 . S
C873 H897 0.949 . S
H874 C878 0.949 . S
C875 C876 1.349 . S
C875 C877 1.327 . S
C875 H898 0.950 . S
C876 C875 1.349 . S
C876 C888 1.349 . S
C877 C875 1.327 . S
C877 C893 1.429 . S
C877 H899 0.950 . S
C878 H874 0.949 . S
C878 C886 1.574 . S
C878 C894 1.368 . S
H879 C887 0.950 . S
H880 C885 0.950 . S
H881 C886 0.949 . S
H882 C888 0.950 . S
H883 C889 0.950 . S
H884 C890 0.949 . S
C885 H880 0.950 . S
C885 C887 1.327 . S
C885 C891 1.429 . S
C886 C878 1.574 . S
C886 H881 0.949 . S
C886 C892 1.368 . S
C887 C871 1.349 . S
C887 H879 0.950 . S
C887 C885 1.327 . S
C888 C876 1.349 . S
C888 H882 0.950 . S
C888 C889 1.327 . S
C889 H883 0.950 . S
C889 C888 1.327 . S
C889 C893 1.429 . S
C890 C873 1.574 . S
C890 H884 0.949 . S
C890 C894 1.368 . S
C891 C872 1.429 . S
C891 C885 1.429 . S
C891 C892 1.523 . S
C892 C873 1.368 . S
C892 C886 1.368 . S
C892 C891 1.523 . S
C893 C877 1.429 . S
C893 C889 1.429 . S
C893 C894 1.523 . S
C894 C878 1.368 . S
C894 C890 1.368 . S
C894 C893 1.523 . S
H895 C870 0.950 . S
H896 C872 0.950 . S
H897 C873 0.949 . S
H898 C875 0.950 . S
H899 C877 0.950 . S
C900 C901 1.349 . S
C900 C902 1.327 . S
C900 H925 0.950 . S
C901 C900 1.349 . S
C901 C917 1.349 . S
C902 C900 1.327 . S
C902 C921 1.429 . S
C902 H926 0.950 . S
C903 C920 1.574 . S
C903 C922 1.368 . S
C903 H927 0.949 . S
H904 C908 0.949 . S
C905 C906 1.349 . S
C905 C907 1.327 . S
C905 H928 0.950 . S
C906 C905 1.349 . S
C906 C918 1.349 . S
C907 C905 1.327 . S
C907 C923 1.429 . S
C907 H929 0.950 . S
C908 H904 0.949 . S
C908 C916 1.574 . S
C908 C924 1.368 . S
H909 C917 0.950 . S
H910 C915 0.950 . S
H911 C916 0.949 . S
H912 C918 0.950 . S
H913 C919 0.950 . S
H914 C920 0.949 . S
C915 H910 0.950 . S
C915 C917 1.327 . S
C915 C921 1.429 . S
C916 C908 1.574 . S
C916 H911 0.949 . S
C916 C922 1.368 . S
C917 C901 1.349 . S
C917 H909 0.950 . S
C917 C915 1.327 . S
C918 C906 1.349 . S
C918 H912 0.950 . S
C918 C919 1.327 . S
C919 H913 0.950 . S
C919 C918 1.327 . S
C919 C923 1.429 . S
C920 C903 1.574 . S
C920 H914 0.949 . S
C920 C924 1.368 . S
C921 C902 1.429 . S
C921 C915 1.429 . S
C921 C922 1.523 . S
C922 C903 1.368 . S
C922 C916 1.368 . S
C922 C921 1.523 . S
C923 C907 1.429 . S
C923 C919 1.429 . S
C923 C924 1.523 . S
C924 C908 1.368 . S
C924 C920 1.368 . S
C924 C923 1.523 . S
H925 C900 0.950 . S
H926 C902 0.950 . S
H927 C903 0.949 . S
H928 C905 0.950 . S
H929 C907 0.950 . S
C930 C931 1.349 . S
C930 C932 1.327 . S
C930 H955 0.950 . S
C931 C930 1.349 . S
C931 C947 1.349 . S
C932 C930 1.327 . S
C932 C951 1.429 . S
C932 H956 0.950 . S
C933 C950 1.574 . S
C933 C952 1.368 . S
C933 H957 0.949 . S
H934 C938 0.949 . S
C935 C936 1.349 . S
C935 C937 1.327 . S
C935 H958 0.950 . S
C936 C935 1.349 . S
C936 C948 1.349 . S
C937 C935 1.327 . S
C937 C953 1.429 . S
C937 H959 0.950 . S
C938 H934 0.949 . S
C938 C946 1.574 . S
C938 C954 1.368 . S
H939 C947 0.950 . S
H940 C945 0.950 . S
H941 C946 0.949 . S
H942 C948 0.950 . S
H943 C949 0.950 . S
H944 C950 0.949 . S
C945 H940 0.950 . S
C945 C947 1.327 . S
C945 C951 1.429 . S
C946 C938 1.574 . S
C946 H941 0.949 . S
C946 C952 1.368 . S
C947 C931 1.349 . S
C947 H939 0.950 . S
C947 C945 1.327 . S
C948 C936 1.349 . S
C948 H942 0.950 . S
C948 C949 1.327 . S
C949 H943 0.950 . S
C949 C948 1.327 . S
C949 C953 1.429 . S
C950 C933 1.574 . S
C950 H944 0.949 . S
C950 C954 1.368 . S
C951 C932 1.429 . S
C951 C945 1.429 . S
C951 C952 1.523 . S
C952 C933 1.368 . S
C952 C946 1.368 . S
C952 C951 1.523 . S
C953 C937 1.429 . S
C953 C949 1.429 . S
C953 C954 1.523 . S
C954 C938 1.368 . S
C954 C950 1.368 . S
C954 C953 1.523 . S
H955 C930 0.950 . S
H956 C932 0.950 . S
H957 C933 0.949 . S
H958 C935 0.950 . S
H959 C937 0.950 . S
C241 N14 1.025 . S
C246 N6 1.027 . S
C271 N44 1.025 . S
C276 N36 1.025 1_554 S
C301 N74 1.025 . S
C306 N66 1.025 . S
C331 N104 1.025 . S
C336 N96 1.025 . S
C361 N134 1.025 . S
C366 N126 1.027 . S
C391 N156 1.025 1_554 S
C396 N164 1.025 . S
C421 N194 1.025 . S
C426 N186 1.025 . S
C451 N216 1.025 . S
C456 N224 1.025 . S
C481 C57 1.597 . S
C486 C16 1.597 . S
C511 C106 1.598 . S
C516 C87 1.598 . S
C541 C136 1.597 . S
C546 C177 1.597 . S
C571 C207 1.598 . S
C576 C226 1.598 . S
C601 C27 1.732 . S
C606 C166 1.732 . S
C631 C147 1.732 . S
C636 C46 1.732 . S
C661 C76 1.732 . S
C666 C237 1.732 . S
C691 C117 1.732 . S
C696 C196 1.732 . S
C721 C10 1.659 . S
C726 C100 1.659 . S
C751 C40 1.574 . S
C756 C70 1.574 . S
C781 C31 1.659 . S
C786 C61 1.659 . S
C811 C91 1.574 . S
C816 C1 1.574 . S
C841 C130 1.659 . S
C846 C220 1.659 . S
C871 C160 1.574 . S
C876 C190 1.574 . S
C901 C151 1.659 . S
C906 C181 1.659 . S
C931 C211 1.574 . S
C936 C121 1.574 . S
