# Generated by pormake.
# Topology mon, (4)-cn, num edge types: 1
# Building blocks:
#     Node 0, Type 0, BuildingBlock: NAHDIM_clean_sbu_0, # of connection points: 4
#     Node 1, Type 0, BuildingBlock: NAHDIM_clean_sbu_0, # of connection points: 4
#     Node 2, Type 0, BuildingBlock: NAHDIM_clean_sbu_0, # of connection points: 4
#     Node 3, Type 0, BuildingBlock: NAHDIM_clean_sbu_0, # of connection points: 4
#     Node 4, Type 0, BuildingBlock: NAHDIM_clean_sbu_0, # of connection points: 4
#     Node 5, Type 0, BuildingBlock: NAHDIM_clean_sbu_0, # of connection points: 4
#     Node 6, Type 0, BuildingBlock: NAHDIM_clean_sbu_0, # of connection points: 4
#     Node 7, Type 0, BuildingBlock: NAHDIM_clean_sbu_0, # of connection points: 4
#     Node 8, Type 0, BuildingBlock: NAHDIM_clean_sbu_0, # of connection points: 4
#     Node 9, Type 0, BuildingBlock: NAHDIM_clean_sbu_0, # of connection points: 4
#     Node 10, Type 0, BuildingBlock: NAHDIM_clean_sbu_0, # of connection points: 4
#     Node 11, Type 0, BuildingBlock: NAHDIM_clean_sbu_0, # of connection points: 4
#     Node 12, Type 0, BuildingBlock: NAHDIM_clean_sbu_0, # of connection points: 4
#     Node 13, Type 0, BuildingBlock: NAHDIM_clean_sbu_0, # of connection points: 4
#     Node 14, Type 0, BuildingBlock: NAHDIM_clean_sbu_0, # of connection points: 4
#     Node 15, Type 0, BuildingBlock: NAHDIM_clean_sbu_0, # of connection points: 4
#     Edge 16, Type (0, 0), BuildingBlock: EZIPEK_clean_linker_0, # of connection points: 2
#     Edge 17, Type (0, 0), BuildingBlock: EZIPEK_clean_linker_0, # of connection points: 2
#     Edge 18, Type (0, 0), BuildingBlock: EZIPEK_clean_linker_0, # of connection points: 2
#     Edge 19, Type (0, 0), BuildingBlock: EZIPEK_clean_linker_0, # of connection points: 2
#     Edge 20, Type (0, 0), BuildingBlock: EZIPEK_clean_linker_0, # of connection points: 2
#     Edge 21, Type (0, 0), BuildingBlock: EZIPEK_clean_linker_0, # of connection points: 2
#     Edge 22, Type (0, 0), BuildingBlock: EZIPEK_clean_linker_0, # of connection points: 2
#     Edge 23, Type (0, 0), BuildingBlock: EZIPEK_clean_linker_0, # of connection points: 2
#     Edge 24, Type (0, 0), BuildingBlock: EZIPEK_clean_linker_0, # of connection points: 2
#     Edge 25, Type (0, 0), BuildingBlock: EZIPEK_clean_linker_0, # of connection points: 2
#     Edge 26, Type (0, 0), BuildingBlock: EZIPEK_clean_linker_0, # of connection points: 2
#     Edge 27, Type (0, 0), BuildingBlock: EZIPEK_clean_linker_0, # of connection points: 2
#     Edge 28, Type (0, 0), BuildingBlock: EZIPEK_clean_linker_0, # of connection points: 2
#     Edge 29, Type (0, 0), BuildingBlock: EZIPEK_clean_linker_0, # of connection points: 2
#     Edge 30, Type (0, 0), BuildingBlock: EZIPEK_clean_linker_0, # of connection points: 2
#     Edge 31, Type (0, 0), BuildingBlock: EZIPEK_clean_linker_0, # of connection points: 2
#     Edge 32, Type (0, 0), BuildingBlock: EZIPEK_clean_linker_0, # of connection points: 2
#     Edge 33, Type (0, 0), BuildingBlock: EZIPEK_clean_linker_0, # of connection points: 2
#     Edge 34, Type (0, 0), BuildingBlock: EZIPEK_clean_linker_0, # of connection points: 2
#     Edge 35, Type (0, 0), BuildingBlock: EZIPEK_clean_linker_0, # of connection points: 2
#     Edge 36, Type (0, 0), BuildingBlock: EZIPEK_clean_linker_0, # of connection points: 2
#     Edge 37, Type (0, 0), BuildingBlock: EZIPEK_clean_linker_0, # of connection points: 2
#     Edge 38, Type (0, 0), BuildingBlock: EZIPEK_clean_linker_0, # of connection points: 2
#     Edge 39, Type (0, 0), BuildingBlock: EZIPEK_clean_linker_0, # of connection points: 2
#     Edge 40, Type (0, 0), BuildingBlock: EZIPEK_clean_linker_0, # of connection points: 2
#     Edge 41, Type (0, 0), BuildingBlock: EZIPEK_clean_linker_0, # of connection points: 2
#     Edge 42, Type (0, 0), BuildingBlock: EZIPEK_clean_linker_0, # of connection points: 2
#     Edge 43, Type (0, 0), BuildingBlock: EZIPEK_clean_linker_0, # of connection points: 2
#     Edge 44, Type (0, 0), BuildingBlock: EZIPEK_clean_linker_0, # of connection points: 2
#     Edge 45, Type (0, 0), BuildingBlock: EZIPEK_clean_linker_0, # of connection points: 2
#     Edge 46, Type (0, 0), BuildingBlock: EZIPEK_clean_linker_0, # of connection points: 2
#     Edge 47, Type (0, 0), BuildingBlock: EZIPEK_clean_linker_0, # of connection points: 2
# Relax obj value: 0.124
# Max RMSD: 0.121
# Mean RMSD: 0.121
data_MOF--net-mon--node1-NAHDIM_clean_sbu_0--edge1-EZIPEK_clean_linker_0
_symmetry_space_group_name_H-M    P1
_symmetry_Int_Tables_number       1
_symmetry_cell_setting            triclinic
loop_
_symmetry_equiv_pos_as_xyz
'x, y, z'
_cell_length_a     25.61027
_cell_length_b     25.718172
_cell_length_c     59.269237
_cell_angle_alpha  90.470491
_cell_angle_beta   90.050157
_cell_angle_gamma 89.954616
loop_
_atom_site_label
_atom_site_type_symbol
_atom_site_fract_x
_atom_site_fract_y
_atom_site_fract_z
_atom_type_partial_charge
C0 C 6e-05 0.14238 0.60183 0.0
O1 O 0.95457 0.12746 0.59385 0.0
O2 O 0.95294 0.0131 0.60949 0.0
Zn3 Zn 0.01988 0.03633 0.59501 0.0
O4 O 0.01212 0.0355 0.56117 0.0
C5 C 0.08296 0.96704 0.6227 0.0
O6 O 0.04919 0.97847 0.63864 0.0
O7 O 0.03585 0.10897 0.60477 0.0
C8 C 0.034 0.00042 0.54927 0.0
O9 O 0.06113 0.96362 0.55905 0.0
C10 C 0.93953 0.96634 0.60591 0.0
O11 O 0.96699 0.93814 0.59168 0.0
O12 O 0.07895 0.98827 0.60351 0.0
C13 C 0.15028 0.74286 0.86545 0.0
O14 O 0.18105 0.74148 0.88318 0.0
O15 O 0.28463 0.68344 0.85178 0.0
Zn16 Zn 0.24548 0.74294 0.83813 0.0
O17 O 0.25124 0.74047 0.80437 0.0
C18 C 0.32724 0.81012 0.85173 0.0
O19 O 0.35469 0.76899 0.84598 0.0
O20 O 0.16953 0.74207 0.84573 0.0
C21 C 0.29234 0.72699 0.79388 0.0
O22 O 0.33431 0.7134 0.80511 0.0
C23 C 0.26832 0.63821 0.85646 0.0
O24 O 0.21997 0.62484 0.85193 0.0
O25 O 0.27789 0.80934 0.84959 0.0
C26 C 0.51533 0.83972 0.10823 0.0
O27 O 0.53479 0.86153 0.1265 0.0
O28 O 0.59231 0.95725 0.1066 0.0
Zn29 Zn 0.5296 0.94095 0.08748 0.0
O30 O 0.54703 0.95256 0.05477 0.0
C31 C 0.45271 -0.00733 0.11649 0.0
O32 O 0.47061 0.96245 0.13248 0.0
O33 O 0.50913 0.86628 0.09047 0.0
C34 C 0.51581 0.97724 0.04207 0.0
O35 O 0.47227 -0.00371 0.05041 0.0
C36 C 0.61035 0.00299 0.10488 0.0
O37 O 0.58981 0.03479 0.09009 0.0
O38 O 0.47115 0.989 0.09666 0.0
C39 C 0.37228 0.25139 0.34969 0.0
O40 O 0.34034 0.25521 0.36696 0.0
O41 O 0.24097 0.30939 0.33401 0.0
Zn42 Zn 0.27752 0.24502 0.32297 0.0
O43 O 0.2678 0.23503 0.28961 0.0
C44 C 0.19527 0.18105 0.33694 0.0
O45 O 0.1694 0.21746 0.32628 0.0
O46 O 0.35413 0.24776 0.3298 0.0
C47 C 0.22909 0.25311 0.27879 0.0
O48 O 0.19398 0.28161 0.28925 0.0
C49 C 0.25673 0.35587 0.33196 0.0
O50 O 0.30079 0.36584 0.32156 0.0
O51 O 0.24466 0.18399 0.33837 0.0
C52 C 0.98422 0.86302 0.39083 0.0
O53 O 0.93526 0.878 0.39198 0.0
O54 O 0.93611 -0.00744 0.39553 0.0
Zn55 Zn 0.00513 0.96685 0.40705 0.0
O56 O 0.00554 0.96787 0.441 0.0
C57 C 0.06965 0.01671 0.37432 0.0
O58 O 0.04628 0.98398 0.36051 0.0
O59 O 0.0204 0.89465 0.39601 0.0
C60 C 0.02799 0.00421 0.45193 0.0
O61 O 0.05131 0.04191 0.44105 0.0
C62 C 0.92345 0.03838 0.40151 0.0
O63 O 0.95273 0.06351 0.41615 0.0
O64 O 0.05963 0.01546 0.39527 0.0
C65 C 0.42318 0.71113 0.64591 0.0
O66 O 0.40713 0.67246 0.65844 0.0
O67 O 0.28043 0.67986 0.63492 0.0
Zn68 Zn 0.31724 0.73907 0.65044 0.0
O69 O 0.32015 0.72794 0.68405 0.0
C70 C 0.22849 0.80139 0.64096 0.0
O71 O 0.20592 0.75567 0.64218 0.0
O72 O 0.3907 0.74508 0.63931 0.0
C73 C 0.28233 0.73952 0.69698 0.0
O74 O 0.239 0.75848 0.68858 0.0
C75 C 0.28035 0.63289 0.6413 0.0
O76 O 0.30789 0.61877 0.6589 0.0
O77 O 0.27755 0.80503 0.64379 0.0
C78 C 0.53133 0.14287 0.87816 0.0
O79 O 0.53212 0.11447 0.85964 0.0
O80 O 0.59141 0.00914 0.88974 0.0
Zn81 Zn 0.52837 0.04469 0.90258 0.0
O82 O 0.52408 0.03332 0.9361 0.0
C83 C 0.46112 0.9636 0.89089 0.0
O84 O 0.49543 0.93932 0.90345 0.0
O85 O 0.53052 0.12126 0.89732 0.0
C86 C 0.55017 -0.00123 0.94638 0.0
O87 O 0.58181 0.96792 0.93512 0.0
C88 C 0.63856 0.02319 0.89221 0.0
O89 O 0.64995 0.06559 0.90367 0.0
O90 O 0.46578 0.01213 0.88769 0.0
C91 C 0.10484 0.23481 0.13873 0.0
O92 O 0.11923 0.26691 0.15489 0.0
O93 O 0.24819 0.27907 0.12086 0.0
Zn94 Zn 0.21443 0.21906 0.13636 0.0
O95 O 0.21939 0.23405 0.16955 0.0
C96 C 0.3045 0.15743 0.1351 0.0
O97 O 0.32212 0.19994 0.14489 0.0
O98 O 0.13913 0.20996 0.12753 0.0
C99 C 0.21007 0.19979 0.18427 0.0
O100 O 0.19638 0.15271 0.1779 0.0
C101 C 0.24055 0.32556 0.12741 0.0
O102 O 0.20628 0.33548 0.14333 0.0
O103 O 0.25678 0.15508 0.12931 0.0
C104 C 0.88222 0.21691 0.13651 0.0
O105 O 0.8514 0.19817 0.12072 0.0
O106 O 0.75505 0.16361 0.14915 0.0
Zn107 Zn 0.7875 0.2273 0.16281 0.0
O108 O 0.77823 0.22802 0.19634 0.0
C109 C 0.72936 0.28832 0.13129 0.0
O110 O 0.74109 0.2501 0.11737 0.0
O111 O 0.8635 0.23153 0.15534 0.0
C112 C 0.73372 0.21827 0.20471 0.0
O113 O 0.69512 0.20414 0.19142 0.0
C114 C 0.75919 0.11747 0.15633 0.0
O115 O 0.78836 0.10737 0.17399 0.0
O116 O 0.74756 0.28847 0.15121 0.0
C117 C 0.64642 0.72433 0.63949 0.0
O118 O 0.67563 0.72267 0.62129 0.0
O119 O 0.7654 0.80498 0.64768 0.0
Zn120 Zn 0.74422 0.73797 0.66279 0.0
O121 O 0.75858 0.74039 0.69624 0.0
C122 C 0.82558 0.68184 0.63932 0.0
O123 O 0.84808 0.72758 0.63944 0.0
O124 O 0.66734 0.73025 0.65876 0.0
C125 C 0.80216 0.72895 0.70522 0.0
O126 O 0.84173 0.7152 0.69241 0.0
C127 C 0.80658 0.82892 0.65357 0.0
O128 O 0.8332 0.81231 0.67101 0.0
O129 O 0.78082 0.67633 0.64821 0.0
C130 C 0.59581 0.23043 0.35079 0.0
O131 O 0.61193 0.18578 0.34242 0.0
O132 O 0.73137 0.18912 0.36481 0.0
Zn133 Zn 0.70324 0.24988 0.34728 0.0
O134 O 0.70548 0.22946 0.31454 0.0
C135 C 0.77764 0.31917 0.36891 0.0
O136 O 0.77246 0.28707 0.38586 0.0
O137 O 0.62897 0.26557 0.35551 0.0
C138 C 0.70822 0.26438 0.29958 0.0
O139 O 0.70784 0.31362 0.30564 0.0
C140 C 0.77876 0.1784 0.36053 0.0
O141 O 0.80367 0.20621 0.34551 0.0
O142 O 0.74976 0.31287 0.35137 0.0
C143 C 0.93109 0.78089 0.85681 0.0
O144 O 0.92159 0.82553 0.84701 0.0
O145 O 0.80281 0.83973 0.86073 0.0
Zn146 Zn 0.82399 0.77016 0.84822 0.0
O147 O 0.82785 0.77307 0.81428 0.0
C148 C 0.75873 0.70735 0.87728 0.0
O149 O 0.78448 0.73005 0.8938 0.0
O150 O 0.89383 0.74946 0.8602 0.0
C151 C 0.81173 0.73455 0.80266 0.0
O152 O 0.79379 0.69321 0.81293 0.0
C153 C 0.75895 0.85737 0.85436 0.0
O154 O 0.73184 0.83145 0.83919 0.0
O155 O 0.76964 0.71806 0.85696 0.0
C156 C 0.47434 0.61982 0.09941 0.0
O157 O 0.4271 0.60385 0.09423 0.0
O158 O 0.43411 0.48651 0.10447 0.0
Zn159 Zn 0.50132 0.51308 0.0908 0.0
O160 O 0.49977 0.51071 0.05668 0.0
C161 C 0.56063 0.42318 0.1048 0.0
O162 O 0.51648 0.39882 0.10093 0.0
O163 O 0.5119 0.58758 0.09968 0.0
C164 C 0.51398 0.47166 0.04491 0.0
O165 O 0.52945 0.42886 0.05477 0.0
C166 C 0.40772 0.45139 0.0945 0.0
O167 O 0.42295 0.43411 0.0747 0.0
O168 O 0.56332 0.47202 0.10204 0.0
C169 C 0.02589 0.3638 0.60649 0.0
O170 O 0.03225 0.39399 0.62427 0.0
O171 O 0.09598 0.48441 0.5978 0.0
Zn172 Zn 0.03266 0.45873 0.58077 0.0
O173 O 0.03982 0.4647 0.54701 0.0
C174 C 0.96939 0.54419 0.59662 0.0
O175 O 0.01217 0.57078 0.59289 0.0
O176 O 0.02492 0.3832 0.58689 0.0
C177 C 0.03111 0.50568 0.53583 0.0
O178 O 0.0187 0.54905 0.54631 0.0
C179 C 0.12496 0.52099 0.59089 0.0
O180 O 0.11614 0.54171 0.57109 0.0
O181 O 0.96804 0.49587 0.59204 0.0
C182 C 0.51441 0.36305 0.89143 0.0
O183 O 0.47048 0.37616 0.9014 0.0
O184 O 0.46649 0.49291 0.88724 0.0
Zn185 Zn 0.53397 0.46811 0.901 0.0
O186 O 0.52689 0.46071 0.93479 0.0
C187 C 0.58751 0.56589 0.89349 0.0
O188 O 0.5416 0.58594 0.89816 0.0
O189 O 0.54934 0.39728 0.88844 0.0
C190 C 0.53607 0.49726 0.94879 0.0
O191 O 0.5511 0.5429 0.94153 0.0
C192 C 0.43648 0.5252 0.89709 0.0
O193 O 0.44811 0.54203 0.91745 0.0
O194 O 0.5933 0.51677 0.8933 0.0
C195 C 0.02379 0.64562 0.37401 0.0
O196 O 0.04731 0.62464 0.35649 0.0
O197 O 0.08069 0.51644 0.37437 0.0
Zn198 Zn 0.02081 0.54116 0.39398 0.0
O199 O 0.03658 0.53256 0.42711 0.0
C200 C 0.95324 0.45578 0.38114 0.0
O201 O -0.00254 0.43002 0.38027 0.0
O202 O 0.00987 0.61754 0.39045 0.0
C203 C 0.0246 0.49303 0.4387 0.0
O204 O 0.00218 0.45279 0.42903 0.0
C205 C 0.10913 0.47875 0.38067 0.0
O206 O 0.10079 0.45755 0.4004 0.0
O207 O 0.95353 0.50395 0.38606 0.0
C208 C 0.97813 0.22763 0.62016 0.0
C209 C 0.01063 0.19826 0.60545 0.0
C210 C 0.0612 0.27629 0.59703 0.0
C211 C 0.02368 0.30675 0.6087 0.0
N212 N 0.94343 0.31255 0.62991 0.0
N213 N 0.07858 0.1959 0.5771 0.0
C214 C 0.98156 0.28278 0.62012 0.0
C215 C 0.05138 0.22273 0.59328 0.0
N216 N 0.94485 0.20274 0.63449 0.0
N217 N 0.10664 0.29851 0.58982 0.0
H218 H 0.07168 0.15696 0.57311 0.0
H219 H 0.1046 0.2136 0.56606 0.0
H220 H 0.11553 0.33761 0.5927 0.0
H221 H 0.13766 0.27711 0.58317 0.0
H222 H 0.92393 0.22181 0.64715 0.0
H223 H 0.94191 0.16232 0.63515 0.0
H224 H 0.90874 0.29724 0.63615 0.0
H225 H 0.94458 0.35306 0.63032 0.0
C226 C 0.00833 0.72156 0.85229 0.0
C227 C 0.9854 0.76633 0.86237 0.0
C228 C 0.07047 0.79291 0.87743 0.0
C229 C 0.09302 0.74742 0.86783 0.0
N230 N 0.08139 0.66174 0.85197 0.0
N231 N 0.99119 0.83682 0.8893 0.0
C232 C 0.06113 0.70949 0.8572 0.0
C233 C 0.01543 0.79952 0.87651 0.0
N234 N 0.98108 0.69248 0.83686 0.0
N235 N 0.10159 0.83125 0.88618 0.0
H236 H 0.9508 0.84218 0.88922 0.0
H237 H 0.0104 0.85885 0.90158 0.0
H238 H 0.14209 0.82816 0.88723 0.0
H239 H 0.0876 0.86779 0.89089 0.0
H240 H -0.00193 0.66305 0.82717 0.0
H241 H 0.94275 0.70056 0.83212 0.0
H242 H 0.05881 0.63076 0.84612 0.0
H243 H 0.11979 0.65158 0.85581 0.0
C244 C 0.52021 0.70055 0.08719 0.0
C245 C 0.48512 0.67596 0.10222 0.0
C246 C 0.46808 0.75956 0.12103 0.0
C247 C 0.50649 0.78298 0.1072 0.0
N248 N 0.57767 0.77348 0.0808 0.0
N249 N 0.43209 0.67955 0.13581 0.0
C250 C 0.53509 0.75279 0.09135 0.0
C251 C 0.46077 0.70476 0.11983 0.0
N252 N 0.53745 0.67489 0.0683 0.0
N253 N 0.43723 0.78984 0.13462 0.0
H254 H 0.42609 0.63944 0.13551 0.0
H255 H 0.41801 0.69762 0.15037 0.0
H256 H 0.44152 0.83007 0.13596 0.0
H257 H 0.40478 0.77572 0.14318 0.0
H258 H 0.55854 0.69295 0.05555 0.0
H259 H 0.52634 0.637 0.06416 0.0
H260 H 0.60315 0.75152 0.07088 0.0
H261 H 0.59073 0.81133 0.0838 0.0
C262 C 0.51523 0.28085 0.34063 0.0
C263 C 0.53919 0.24043 0.35314 0.0
C264 C 0.45325 0.20867 0.36482 0.0
C265 C 0.4295 0.25036 0.35307 0.0
N266 N 0.43788 0.33339 0.33491 0.0
N267 N 0.53239 0.17389 0.38138 0.0
C268 C 0.46058 0.28879 0.3426 0.0
C269 C 0.50856 0.20683 0.36659 0.0
N270 N 0.54392 0.3097 0.32585 0.0
N271 N 0.42332 0.16932 0.37321 0.0
H272 H 0.57286 0.17208 0.38328 0.0
H273 H 0.51209 0.15219 0.39325 0.0
H274 H 0.38268 0.16891 0.37221 0.0
H275 H 0.43892 0.13503 0.37958 0.0
H276 H 0.52726 0.33539 0.31442 0.0
H277 H 0.58396 0.30486 0.32353 0.0
H278 H 0.45917 0.36508 0.32911 0.0
H279 H 0.39801 0.34081 0.33653 0.0
C280 C 0.98003 0.78551 0.36483 0.0
C281 C -0.00288 0.80825 0.38546 0.0
C282 C 0.04208 0.72754 0.39516 0.0
C283 C 0.01863 0.70264 0.3763 0.0
N284 N 0.96074 0.70601 0.34421 0.0
N285 N 0.0366 0.79792 0.42226 0.0
C286 C 0.98663 0.73114 0.36126 0.0
C287 C 0.02635 0.77861 0.40114 0.0
N288 N 0.95895 0.81609 0.34841 0.0
N289 N 0.0803 0.70275 0.40709 0.0
H290 H 0.02404 0.8344 0.42781 0.0
H291 H 0.05291 0.77565 0.43507 0.0
H292 H 0.09382 0.66565 0.40283 0.0
H293 H 0.10236 0.72103 0.41962 0.0
H294 H 0.95066 0.80259 0.33218 0.0
H295 H 0.95421 0.85617 0.35031 0.0
H296 H 0.93223 0.7237 0.33435 0.0
H297 H 0.96485 0.6663 0.34097 0.0
C298 C 0.50618 0.76179 0.65007 0.0
C299 C 0.47952 0.71746 0.6415 0.0
C300 C 0.56267 0.67831 0.62995 0.0
C301 C 0.58893 0.72354 0.63777 0.0
N302 N 0.58514 0.81342 0.64951 0.0
N303 N 0.48029 0.63913 0.61889 0.0
C304 C 0.56043 0.76695 0.64599 0.0
C305 C 0.50717 0.6774 0.63004 0.0
N306 N 0.48058 0.7974 0.6633 0.0
N307 N 0.59062 0.63538 0.62353 0.0
H308 H 0.43958 0.63767 0.61847 0.0
H309 H 0.49805 0.61173 0.60838 0.0
H310 H 0.63131 0.63461 0.62311 0.0
H311 H 0.57366 0.59934 0.62019 0.0
H312 H 0.49959 0.82712 0.67207 0.0
H313 H 0.44104 0.79474 0.66727 0.0
H314 H 0.56538 0.8478 0.65333 0.0
H315 H 0.62485 0.81879 0.64634 0.0
C316 C 0.56622 0.28033 0.89412 0.0
C317 C 0.52356 0.30823 0.88482 0.0
C318 C 0.48856 0.22775 0.86837 0.0
C319 C 0.53188 0.20025 0.87725 0.0
N320 N 0.61883 0.20205 0.89269 0.0
N321 N 0.45211 0.31149 0.85835 0.0
C322 C 0.57302 0.22723 0.88819 0.0
C323 C 0.48723 0.28283 0.8704 0.0
N324 N 0.59824 0.30328 0.90976 0.0
N325 N 0.4474 0.20126 0.85914 0.0
H326 H 0.45071 0.35201 0.85919 0.0
H327 H 0.428 0.29562 0.84593 0.0
H328 H 0.44693 0.16095 0.85719 0.0
H329 H 0.41214 0.21888 0.8549 0.0
H330 H 0.62616 0.28284 0.9189 0.0
H331 H 0.59405 0.34169 0.91519 0.0
H332 H 0.65208 0.2209 0.89873 0.0
H333 H 0.62521 0.16332 0.88808 0.0
C334 C 0.0186 0.26522 0.12409 0.0
C335 C 0.0487 0.22594 0.13464 0.0
C336 C 0.96944 0.17695 0.14356 0.0
C337 C 0.93934 0.2168 0.13345 0.0
N338 N 0.93366 0.29314 0.11036 0.0
N339 N 0.05527 0.14062 0.151 0.0
C340 C 0.96352 0.25909 0.12243 0.0
C341 C 0.02485 0.18036 0.14317 0.0
N342 N 0.04273 0.30894 0.11626 0.0
N343 N 0.94475 0.13682 0.15418 0.0
H344 H 0.09588 0.14261 0.15182 0.0
H345 H 0.04092 0.10426 0.15538 0.0
H346 H 0.90434 0.13166 0.1537 0.0
H347 H 0.96362 0.10973 0.16426 0.0
H348 H 0.02294 0.34183 0.11076 0.0
H349 H 0.08323 0.31334 0.11612 0.0
H350 H 0.9489 0.3222 0.1002 0.0
H351 H 0.89313 0.28999 0.10918 0.0
C352 C 0.07787 0.0022 0.48821 0.0
C353 C 0.02913 0.00343 0.47685 0.0
C354 C 0.98323 -0.001 0.51306 0.0
C355 C 0.0319 0.00267 0.5244 0.0
N356 N 0.12471 0.01866 0.523 0.0
N357 N 0.93535 0.01247 0.47832 0.0
C358 C 0.07905 0.00733 0.51205 0.0
C359 C 0.98169 0.00441 0.48922 0.0
N360 N 0.12293 -0.00607 0.47635 0.0
N361 N 0.93879 0.98839 0.52492 0.0
H362 H 0.93265 0.01719 0.4609 0.0
H363 H 0.90023 0.01915 0.4867 0.0
H364 H 0.93837 0.98386 0.54239 0.0
H365 H 0.9032 0.97961 0.51728 0.0
H366 H 0.15887 0.98704 0.48402 0.0
H367 H 0.12375 0.98885 0.45888 0.0
H368 H 0.15916 0.02797 0.51463 0.0
H369 H 0.12711 0.02385 0.54045 0.0
C370 C 0.29203 0.77937 0.75854 0.0
C371 C 0.29356 0.72994 0.76902 0.0
C372 C 0.28864 0.68649 0.7321 0.0
C373 C 0.28858 0.73587 0.72165 0.0
N374 N 0.30056 0.82867 0.72402 0.0
N375 N 0.30069 0.63657 0.76625 0.0
C376 C 0.29311 0.7822 0.73463 0.0
C377 C 0.29446 0.6835 0.75591 0.0
N378 N 0.28917 0.82359 0.77148 0.0
N379 N 0.28072 0.64265 0.71933 0.0
H380 H 0.30193 0.63256 0.7837 0.0
H381 H 0.30786 0.60191 0.75761 0.0
H382 H 0.27722 0.64338 0.70182 0.0
H383 H 0.27415 0.60598 0.72605 0.0
H384 H 0.28126 0.86024 0.76499 0.0
H385 H 0.29193 0.82351 0.78904 0.0
H386 H 0.30956 0.86321 0.73241 0.0
H387 H 0.30228 0.83204 0.70651 0.0
C388 C 0.57163 0.00664 0.00977 0.0
C389 C 0.52618 0.98089 0.0176 0.0
C390 C 0.4958 0.9685 0.97871 0.0
C391 C 0.54258 0.99156 0.97084 0.0
N392 N 0.6285 0.02608 0.97822 0.0
N393 N 0.45084 0.9274 0.00974 0.0
C394 C 0.58174 0.00836 0.98619 0.0
C395 C 0.48974 0.95918 0.00213 0.0
N396 N 0.60367 0.03173 0.02478 0.0
N397 N 0.457 0.95568 0.96381 0.0
H398 H 0.44598 0.91827 0.02672 0.0
H399 H 0.42643 0.90599 -0.00087 0.0
H400 H 0.46108 0.95892 0.94639 0.0
H401 H 0.41953 0.94498 0.96875 0.0
H402 H 0.6342 0.05595 0.02001 0.0
H403 H 0.59731 0.03185 0.04215 0.0
H404 H 0.66083 0.03309 0.98845 0.0
H405 H 0.63626 0.03056 0.96107 0.0
C406 C 0.262 0.23471 0.2169 0.0
C407 C 0.21467 0.21331 0.20849 0.0
C408 C 0.17796 0.21455 0.24662 0.0
C409 C 0.22324 0.24082 0.25453 0.0
N410 N 0.30361 0.28575 0.24629 0.0
N411 N 0.12361 0.19323 0.21443 0.0
C412 C 0.26395 0.25378 0.2394 0.0
C413 C 0.17144 0.20608 0.22309 0.0
N414 N 0.30583 0.23477 0.20376 0.0
N415 N 0.14225 0.19566 0.26159 0.0
H416 H 0.11677 0.18798 0.19722 0.0
H417 H 0.08964 0.19284 0.22409 0.0
H418 H 0.14603 0.19994 0.27902 0.0
H419 H 0.11151 0.17142 0.25683 0.0
H420 H 0.34262 0.24504 0.20983 0.0
H421 H 0.30662 0.21942 0.18746 0.0
H422 H 0.33133 0.30084 0.23528 0.0
H423 H 0.30586 0.30148 0.26254 0.0
C424 C 0.68599 0.26322 0.23629 0.0
C425 C 0.72464 0.22712 0.22908 0.0
C426 C 0.75439 0.21729 0.26807 0.0
C427 C 0.71284 0.24983 0.27546 0.0
N428 N 0.63188 0.2938 0.2671 0.0
N429 N 0.78791 0.16119 0.23843 0.0
C430 C 0.67643 0.26984 0.25971 0.0
C431 C 0.75654 0.20151 0.24508 0.0
N432 N 0.66031 0.2933 0.22092 0.0
N433 N 0.79333 0.20364 0.28267 0.0
H434 H 0.78979 0.14792 0.22177 0.0
H435 H 0.80799 0.13767 0.24974 0.0
H436 H 0.79436 0.21579 0.29948 0.0
H437 H 0.82726 0.18452 0.27758 0.0
H438 H 0.63593 0.32405 0.22552 0.0
H439 H 0.66717 0.29118 0.2036 0.0
H440 H 0.60148 0.30431 0.25636 0.0
H441 H 0.62287 0.29839 0.28415 0.0
C442 C 0.82796 0.68873 0.74213 0.0
C443 C 0.80819 0.73195 0.73006 0.0
C444 C 0.78926 0.77694 0.76573 0.0
C445 C 0.81317 0.73562 0.77768 0.0
N446 N 0.86762 0.65894 0.77675 0.0
N447 N 0.78278 0.82247 0.7303 0.0
C448 C 0.83631 0.69352 0.76572 0.0
C449 C 0.79267 0.77771 0.74183 0.0
N450 N 0.83618 0.64218 0.73141 0.0
N451 N 0.76096 0.81403 0.77696 0.0
H452 H 0.78646 0.82523 0.71283 0.0
H453 H 0.77642 0.85818 0.73827 0.0
H454 H 0.75583 0.81422 0.79439 0.0
H455 H 0.73824 0.84169 0.76876 0.0
H456 H 0.84541 0.60816 0.73997 0.0
H457 H 0.82856 0.63607 0.71432 0.0
H458 H 0.88945 0.6305 0.7684 0.0
H459 H 0.87631 0.66224 0.7939 0.0
C460 C 0.48237 0.47122 0.98233 0.0
C461 C 0.5307 0.48839 0.97331 0.0
C462 C 0.56663 0.49744 0.01146 0.0
C463 C 0.5197 0.47678 0.0203 0.0
N464 N 0.43653 0.43511 0.01432 0.0
N465 N 0.62234 0.50655 0.97878 0.0
C466 C 0.47868 0.46083 0.00577 0.0
C467 C 0.57385 0.49852 0.98774 0.0
N468 N 0.4393 0.46727 0.96877 0.0
N469 N 0.60411 0.51654 0.02574 0.0
H470 H 0.62966 0.50553 0.96149 0.0
H471 H 0.65623 0.50889 0.98845 0.0
H472 H 0.60114 0.51478 0.04327 0.0
H473 H 0.63634 0.53761 0.02025 0.0
H474 H 0.4018 0.46073 0.9749 0.0
H475 H 0.43996 0.47497 0.95155 0.0
H476 H 0.40818 0.41736 0.00428 0.0
H477 H 0.43213 0.42769 0.03147 0.0
C478 C 0.07598 0.48955 0.49884 0.0
C479 C 0.03006 0.5031 0.51094 0.0
C480 C 0.98246 0.51448 0.47548 0.0
C481 C 0.02693 0.49652 0.4635 0.0
N482 N 0.11394 0.46091 0.46333 0.0
N483 N 0.93705 0.51882 0.51123 0.0
C484 C 0.07317 0.48226 0.47506 0.0
C485 C 0.98258 0.51315 0.4994 0.0
N486 N 0.12259 0.48562 0.50998 0.0
N487 N 0.94045 0.53381 0.464 0.0
H488 H 0.93508 0.51696 0.52878 0.0
H489 H 0.90043 0.52048 0.50363 0.0
H490 H 0.93845 0.5347 0.44643 0.0
H491 H 0.90944 0.55295 0.47183 0.0
H492 H 0.15836 0.48124 0.50186 0.0
H493 H 0.12618 0.49105 0.52737 0.0
H494 H 0.14649 0.44441 0.47101 0.0
H495 H 0.11354 0.45625 0.44584 0.0
C496 C 0.16647 0.84572 0.61517 0.0
C497 C 0.19662 0.84734 0.63518 0.0
C498 C 0.15902 0.9324 0.64476 0.0
C499 C 0.12338 0.92681 0.62655 0.0
N500 N 0.08736 0.87306 0.59669 0.0
N501 N 0.2182 0.88952 0.67053 0.0
C502 C 0.12573 0.88229 0.61223 0.0
C503 C 0.19237 0.89015 0.65035 0.0
N504 N 0.17752 0.80984 0.59869 0.0
N505 N 0.1621 0.97856 0.65628 0.0
H506 H 0.2434 0.85968 0.67518 0.0
H507 H 0.21165 0.91664 0.68337 0.0
H508 H 0.13887 0.01062 0.65242 0.0
H509 H 0.19096 0.9867 0.66818 0.0
H510 H 0.16022 0.81029 0.58278 0.0
H511 H 0.20796 0.78304 0.60005 0.0
H512 H 0.0842 0.83836 0.58759 0.0
H513 H 0.05558 0.89763 0.5945 0.0
C514 C 0.39206 0.88133 0.84671 0.0
C515 C 0.35443 0.85669 0.86053 0.0
C516 C 0.37725 0.91482 0.89196 0.0
C517 C 0.42022 0.93315 0.87932 0.0
N518 N 0.47075 0.9335 0.84502 0.0
N519 N 0.31249 0.84718 0.89675 0.0
C520 C 0.4279 0.91688 0.85666 0.0
C521 C 0.34666 0.87321 0.8832 0.0
N522 N 0.39283 0.87127 0.82403 0.0
N523 N 0.36567 0.93755 0.91228 0.0
H524 H 0.28931 0.81648 0.89104 0.0
H525 H 0.30967 0.85347 0.91408 0.0
H526 H 0.38731 0.96846 0.91892 0.0
H527 H 0.33207 0.92935 0.92146 0.0
H528 H 0.41594 0.89159 0.81266 0.0
H529 H 0.36668 0.84574 0.81622 0.0
H530 H 0.48209 0.91807 0.82948 0.0
H531 H 0.49698 0.96082 0.85151 0.0
C532 C 0.36522 0.02203 0.13121 0.0
C533 C 0.41456 0.03432 0.12179 0.0
C534 C 0.3879 0.12523 0.11809 0.0
C535 C 0.34102 0.1143 0.12985 0.0
N536 N 0.28928 0.05384 0.15137 0.0
N537 N 0.47744 0.09994 0.11154 0.0
C538 C 0.33067 0.06306 0.13743 0.0
C539 C 0.42723 0.08661 0.1167 0.0
N540 N 0.35053 0.97127 0.1335 0.0
N541 N 0.39421 0.17181 0.10748 0.0
H542 H 0.50805 0.07322 0.11153 0.0
H543 H 0.48971 0.13833 0.10984 0.0
H544 H 0.36544 0.20053 0.10725 0.0
H545 H 0.42558 0.17962 0.09685 0.0
H546 H 0.31289 0.96012 0.13801 0.0
H547 H 0.37451 0.94012 0.12895 0.0
H548 H 0.28323 0.01838 0.15932 0.0
H549 H 0.26366 0.08291 0.15672 0.0
C550 C 0.09028 0.11109 0.36953 0.0
C551 C 0.10334 0.05828 0.36528 0.0
C552 C 0.17653 0.0857 0.34161 0.0
C553 C 0.16629 0.13824 0.34771 0.0
N554 N 0.12127 0.19972 0.37177 0.0
N555 N 0.16449 -0.00513 0.35083 0.0
C556 C 0.12552 0.15057 0.36299 0.0
C557 C 0.14816 0.04538 0.35234 0.0
N558 N 0.04296 0.12385 0.3787 0.0
N559 N 0.21137 0.07432 0.32481 0.0
H560 H 0.14496 0.96434 0.35864 0.0
H561 H 0.19992 0.98391 0.34359 0.0
H562 H 0.23234 0.10266 0.31621 0.0
H563 H 0.21604 0.03713 0.31801 0.0
H564 H 0.02943 0.16198 0.37999 0.0
H565 H 0.01479 0.09627 0.38272 0.0
H566 H 0.09535 0.20941 0.38468 0.0
H567 H 0.14735 0.22948 0.3679 0.0
C568 C 0.87697 0.07116 0.36698 0.0
C569 C 0.87915 0.0657 0.39078 0.0
C570 C 0.80903 0.12985 0.3952 0.0
C571 C 0.80622 0.13436 0.37134 0.0
N572 N 0.82443 0.09611 0.33491 0.0
N573 N 0.83741 0.07781 0.42686 0.0
C574 C 0.83588 0.10051 0.35737 0.0
C575 C 0.84185 0.09114 0.40467 0.0
N576 N 0.91588 0.0518 0.35354 0.0
N577 N 0.78318 0.16418 0.40891 0.0
H578 H 0.86019 0.04876 0.43414 0.0
H579 H 0.80765 0.0915 0.43731 0.0
H580 H 0.7583 0.19295 0.40296 0.0
H581 H 0.78938 0.1665 0.42627 0.0
H582 H 0.91875 0.06012 0.33641 0.0
H583 H 0.94811 0.03171 0.35969 0.0
H584 H 0.84186 0.06856 0.32434 0.0
H585 H 0.79332 0.11589 0.32748 0.0
C586 C 0.64465 0.02926 0.14295 0.0
C587 C 0.65349 0.02141 0.1195 0.0
C588 C 0.73997 0.06157 0.12293 0.0
C589 C 0.7276 0.0765 0.14534 0.0
N590 N 0.66944 0.0753 0.17725 0.0
N591 N 0.70957 0.02718 0.08698 0.0
C592 C 0.68079 0.05954 0.1557 0.0
C593 C 0.70148 0.03629 0.10948 0.0
N594 N 0.60125 0.00873 0.15293 0.0
N595 N 0.78892 0.07122 0.11476 0.0
H596 H 0.68383 0.00546 0.07703 0.0
H597 H 0.74067 0.04243 0.07791 0.0
H598 H 0.81788 0.08904 0.12452 0.0
H599 H 0.80244 0.05793 0.09921 0.0
H600 H 0.59539 0.00805 0.17029 0.0
H601 H 0.57227 0.98896 0.14402 0.0
H602 H 0.63317 0.07052 0.18484 0.0
H603 H 0.6958 0.09568 0.18739 0.0
C604 C 0.71976 0.94592 0.85037 0.0
C605 C 0.73679 0.90519 0.86462 0.0
C606 C 0.70491 0.9536 0.89764 0.0
C607 C 0.67994 0.98913 0.88306 0.0
N608 N 0.66228 0.02007 0.84559 0.0
N609 N 0.74018 0.86704 0.90179 0.0
C610 C 0.68735 0.98582 0.85941 0.0
C611 C 0.72883 0.90848 0.88833 0.0
N612 N 0.73563 0.94698 0.82836 0.0
N613 N 0.70498 0.9625 0.9204 0.0
H614 H 0.75599 0.83235 0.89573 0.0
H615 H 0.72946 0.8651 0.91871 0.0
H616 H 0.68726 -0.00505 0.92776 0.0
H617 H 0.72687 0.94064 0.93171 0.0
H618 H 0.72844 0.97803 0.81763 0.0
H619 H 0.76039 0.91891 0.82138 0.0
H620 H 0.66071 0.01586 0.82811 0.0
H621 H 0.64081 0.05161 0.85177 0.0
C622 C 0.83407 0.86872 0.61635 0.0
C623 C 0.82783 0.87255 0.64017 0.0
C624 C 0.8878 0.94656 0.64143 0.0
C625 C 0.89446 0.94233 0.61764 0.0
N626 N 0.85764 0.91399 0.58221 0.0
N627 N 0.83247 0.92697 0.67337 0.0
C628 C 0.86195 0.9083 0.60503 0.0
C629 C 0.84921 0.91563 0.65201 0.0
N630 N 0.81722 0.82603 0.60455 0.0
N631 N 0.92015 0.97686 0.65431 0.0
H632 H 0.80308 0.90572 0.68128 0.0
H633 H 0.84334 0.96063 0.68208 0.0
H634 H 0.94923 0.00052 0.64782 0.0
H635 H 0.9206 0.97554 0.67188 0.0
H636 H 0.82703 0.81929 0.58772 0.0
H637 H 0.79725 0.7951 0.61166 0.0
H638 H 0.83101 0.89303 0.57243 0.0
H639 H 0.87626 0.94396 0.57359 0.0
C640 C 0.69545 0.36026 0.107 0.0
C641 C 0.68793 0.32566 0.1252 0.0
C642 C 0.602 0.36374 0.13258 0.0
C643 C 0.6065 0.39339 0.11265 0.0
N644 N 0.65521 0.41618 0.07925 0.0
N645 N 0.63018 0.28746 0.15273 0.0
C646 C 0.65279 0.39106 0.09946 0.0
C647 C 0.64025 0.32561 0.13739 0.0
N648 N 0.74364 0.36451 0.09729 0.0
N649 N 0.56189 0.37306 0.14727 0.0
H650 H 0.65625 0.25743 0.15619 0.0
H651 H 0.59389 0.28251 0.16033 0.0
H652 H 0.53408 0.40202 0.14464 0.0
H653 H 0.5595 0.35613 0.16315 0.0
H654 H 0.75305 0.39296 0.08557 0.0
H655 H 0.77564 0.34237 0.10238 0.0
H656 H 0.68541 0.41086 0.0677 0.0
H657 H 0.62519 0.43953 0.07316 0.0
C658 C 0.81878 0.39479 0.38885 0.0
C659 C 0.81796 0.3605 0.36999 0.0
C660 C 0.89812 0.40072 0.35578 0.0
C661 C 0.90366 0.42806 0.37648 0.0
N662 N 0.87109 0.44838 0.41381 0.0
N663 N 0.86002 0.32731 0.3362 0.0
C664 C 0.86419 0.42495 0.39324 0.0
C665 C 0.85808 0.36289 0.35344 0.0
N666 N 0.77561 0.39939 0.40226 0.0
N667 N 0.93054 0.41178 0.33814 0.0
H668 H 0.8318 0.29887 0.33354 0.0
H669 H 0.89197 0.32332 0.32546 0.0
H670 H 0.95958 0.44014 0.33915 0.0
H671 H 0.92513 0.39695 0.3219 0.0
H672 H 0.77192 0.42745 0.41493 0.0
H673 H 0.74125 0.37871 0.3992 0.0
H674 H 0.84669 0.44194 0.42756 0.0
H675 H 0.90332 0.47132 0.41777 0.0
C676 C 0.89672 0.60865 0.59348 0.0
C677 C 0.92359 0.57099 0.60646 0.0
C678 C 0.87645 0.5986 0.6405 0.0
C679 C 0.85194 0.63813 0.62773 0.0
N680 N 0.82741 0.67312 0.59176 0.0
N681 N 0.93204 0.522 0.64081 0.0
C682 C 0.85853 0.64063 0.60405 0.0
C683 C 0.91077 0.56302 0.62947 0.0
N684 N 0.90869 0.61441 0.57117 0.0
N685 N 0.86914 0.59706 0.66334 0.0
H686 H 0.959 0.4965 0.63356 0.0
H687 H 0.92055 0.51083 0.65688 0.0
H688 H 0.8425 0.62098 0.67172 0.0
H689 H 0.89066 0.57377 0.6742 0.0
H690 H 0.8957 0.64514 0.56133 0.0
H691 H 0.93332 0.58887 0.56254 0.0
H692 H 0.82688 0.67417 0.57422 0.0
H693 H 0.79849 0.69624 0.59915 0.0
C694 C 0.72323 0.62692 0.8956 0.0
C695 C 0.7151 0.67144 0.88208 0.0
C696 C 0.62649 0.64191 0.87345 0.0
C697 C 0.63233 0.60081 0.88907 0.0
N698 N 0.68329 0.56098 0.91871 0.0
N699 N 0.65465 0.72779 0.86272 0.0
C700 C 0.67992 0.59503 0.90118 0.0
C701 C 0.66546 0.68083 0.87229 0.0
N702 N 0.77247 0.61384 0.90243 0.0
N703 N 0.58484 0.64279 0.85903 0.0
H704 H 0.6813 0.75839 0.86256 0.0
H705 H 0.61742 0.7383 0.85729 0.0
H706 H 0.55667 0.6136 0.85854 0.0
H707 H 0.5815 0.66928 0.8459 0.0
H708 H 0.78117 0.57877 0.91028 0.0
H709 H 0.80544 0.63559 0.89837 0.0
H710 H 0.71528 0.55948 0.92956 0.0
H711 H 0.65226 0.53784 0.92387 0.0
C712 C 0.34136 0.5483 0.89627 0.0
C713 C 0.39055 0.54687 0.8852 0.0
C714 C 0.3518 0.58992 0.85258 0.0
C715 C 0.30618 0.60008 0.86531 0.0
N716 N 0.25794 0.59207 0.90004 0.0
N717 N 0.44435 0.57337 0.85366 0.0
C718 C 0.30065 0.57961 0.8873 0.0
C719 C 0.39623 0.56896 0.86343 0.0
N720 N 0.33319 0.51879 0.91501 0.0
N721 N 0.35234 0.59984 0.82998 0.0
H722 H 0.4787 0.56046 0.86113 0.0
H723 H 0.4509 0.59457 0.83903 0.0
H724 H 0.31954 0.61378 0.82152 0.0
H725 H 0.38288 0.58882 0.81936 0.0
H726 H 0.29675 0.51461 0.92256 0.0
H727 H 0.36166 0.49417 0.92161 0.0
H728 H 0.25483 0.58328 0.91711 0.0
H729 H 0.22707 0.61446 0.89399 0.0
C730 C 0.21846 0.5457 0.59677 0.0
C731 C 0.16697 0.54227 0.60547 0.0
C732 C 0.19527 0.58595 0.64035 0.0
C733 C 0.24423 0.5961 0.63019 0.0
N734 N 0.30303 0.588 0.59867 0.0
N735 N 0.10456 0.56321 0.63486 0.0
C736 C 0.25612 0.57639 0.6084 0.0
C737 C 0.15498 0.56266 0.62725 0.0
N738 N 0.23166 0.51821 0.57776 0.0
N739 N 0.18699 0.59923 0.66245 0.0
H740 H 0.07349 0.54659 0.62612 0.0
H741 H 0.0925 0.58369 0.64916 0.0
H742 H 0.2146 0.61866 0.67229 0.0
H743 H 0.15449 0.58733 0.6716 0.0
H744 H 0.2697 0.5151 0.57171 0.0
H745 H 0.20532 0.49427 0.56917 0.0
H746 H 0.31166 0.58033 0.5818 0.0
H747 H 0.33261 0.60794 0.60722 0.0
C748 C 0.13829 0.43751 0.34402 0.0
C749 C 0.1506 0.45721 0.36588 0.0
C750 C 0.2378 0.41807 0.36359 0.0
C751 C 0.22508 0.39809 0.34194 0.0
N752 N 0.17104 0.40128 0.30884 0.0
N753 N 0.21617 0.47907 0.39358 0.0
C754 C 0.17782 0.41212 0.33126 0.0
C755 C 0.20181 0.45158 0.37474 0.0
N756 N 0.08827 0.43972 0.336 0.0
N757 N 0.28314 0.40319 0.37387 0.0
H758 H 0.19098 0.50491 0.4018 0.0
H759 H 0.25424 0.48027 0.39973 0.0
H760 H 0.31121 0.38016 0.36584 0.0
H761 H 0.29166 0.41122 0.39073 0.0
H762 H 0.07601 0.42024 0.32147 0.0
H763 H 0.05776 0.45765 0.34464 0.0
H764 H 0.13937 0.41461 0.29948 0.0
H765 H 0.20009 0.38364 0.29909 0.0
C766 C 0.31373 0.42587 0.09307 0.0
C767 C 0.36143 0.42767 0.10527 0.0
C768 C 0.32306 0.37374 0.13488 0.0
C769 C 0.27877 0.36552 0.12093 0.0
N770 N 0.23123 0.38169 0.08666 0.0
N771 N 0.41334 0.40052 0.13723 0.0
C772 C 0.27368 0.39133 0.10005 0.0
C773 C 0.36637 0.40169 0.12626 0.0
N774 N 0.30642 0.45826 0.07516 0.0
N775 N 0.32393 0.35435 0.15631 0.0
H776 H 0.44597 0.42113 0.13198 0.0
H777 H 0.42128 0.37629 0.15079 0.0
H778 H 0.29396 0.33172 0.16295 0.0
H779 H 0.35232 0.36407 0.16819 0.0
H780 H 0.27096 0.46232 0.06676 0.0
H781 H 0.33461 0.48495 0.07003 0.0
H782 H 0.22806 0.39436 0.07007 0.0
H783 H 0.20012 0.35842 0.09178 0.0
loop_
_geom_bond_atom_site_label_1
_geom_bond_atom_site_label_2
_geom_bond_distance
_geom_bond_site_symmetry_2
_ccdc_geom_bond_type
C0 O1 1.160 1_455 S
C0 O7 1.185 . S
O1 C0 1.160 1_655 S
O2 Zn3 1.899 1_655 S
O2 C10 1.284 1_545 S
Zn3 O2 1.899 1_455 S
Zn3 O4 2.032 . S
Zn3 O7 2.086 . S
Zn3 O12 1.977 . S
O4 Zn3 2.032 . S
O4 C8 1.278 . S
C5 O6 1.203 . S
C5 O12 1.267 1_565 S
O6 C5 1.203 . S
O7 C0 1.185 . S
O7 Zn3 2.086 . S
C8 O4 1.278 . S
C8 O9 1.211 1_545 S
O9 C8 1.211 1_565 S
C10 O2 1.284 1_565 S
C10 O11 1.273 . S
O11 C10 1.273 . S
O12 Zn3 1.977 . S
O12 C5 1.267 1_545 S
C13 O14 1.160 . S
C13 O20 1.185 . S
O14 C13 1.160 . S
O15 Zn16 1.899 . S
O15 C23 1.284 . S
Zn16 O15 1.899 . S
Zn16 O17 2.032 . S
Zn16 O20 2.086 . S
Zn16 O25 1.977 . S
O17 Zn16 2.032 . S
O17 C21 1.278 . S
C18 O19 1.203 . S
C18 O25 1.267 . S
O19 C18 1.203 . S
O20 C13 1.185 . S
O20 Zn16 2.086 . S
C21 O17 1.278 . S
C21 O22 1.211 . S
O22 C21 1.211 . S
C23 O15 1.284 . S
C23 O24 1.273 . S
O24 C23 1.273 . S
O25 Zn16 1.977 . S
O25 C18 1.267 . S
C26 O27 1.160 . S
C26 O33 1.185 . S
O27 C26 1.160 . S
O28 Zn29 1.899 . S
O28 C36 1.284 1_565 S
Zn29 O28 1.899 . S
Zn29 O30 2.032 . S
Zn29 O33 2.086 . S
Zn29 O38 1.977 . S
O30 Zn29 2.032 . S
O30 C34 1.278 . S
C31 O32 1.203 . S
C31 O38 1.267 1_545 S
O32 C31 1.203 . S
O33 C26 1.185 . S
O33 Zn29 2.086 . S
C34 O30 1.278 . S
C34 O35 1.211 1_565 S
O35 C34 1.211 1_545 S
C36 O28 1.284 1_545 S
C36 O37 1.273 . S
O37 C36 1.273 . S
O38 Zn29 1.977 . S
O38 C31 1.267 1_565 S
C39 O40 1.160 . S
C39 O46 1.185 . S
O40 C39 1.160 . S
O41 Zn42 1.899 . S
O41 C49 1.284 . S
Zn42 O41 1.899 . S
Zn42 O43 2.032 . S
Zn42 O46 2.086 . S
Zn42 O51 1.977 . S
O43 Zn42 2.032 . S
O43 C47 1.278 . S
C44 O45 1.203 . S
C44 O51 1.267 . S
O45 C44 1.203 . S
O46 C39 1.185 . S
O46 Zn42 2.086 . S
C47 O43 1.278 . S
C47 O48 1.211 . S
O48 C47 1.211 . S
C49 O41 1.284 . S
C49 O50 1.273 . S
O50 C49 1.273 . S
O51 Zn42 1.977 . S
O51 C44 1.267 . S
C52 O53 1.160 1_455 S
C52 O59 1.185 . S
O53 C52 1.160 1_655 S
O54 Zn55 1.899 1_655 S
O54 C62 1.284 1_565 S
Zn55 O54 1.899 1_455 S
Zn55 O56 2.032 . S
Zn55 O59 2.086 . S
Zn55 O64 1.977 . S
O56 Zn55 2.032 . S
O56 C60 1.278 . S
C57 O58 1.203 . S
C57 O64 1.267 1_545 S
O58 C57 1.203 . S
O59 C52 1.185 . S
O59 Zn55 2.086 . S
C60 O56 1.278 . S
C60 O61 1.211 1_565 S
O61 C60 1.211 1_545 S
C62 O54 1.284 1_545 S
C62 O63 1.273 . S
O63 C62 1.273 . S
O64 Zn55 1.977 . S
O64 C57 1.267 1_565 S
C65 O66 1.160 . S
C65 O72 1.185 . S
O66 C65 1.160 . S
O67 Zn68 1.899 . S
O67 C75 1.284 . S
Zn68 O67 1.899 . S
Zn68 O69 2.032 . S
Zn68 O72 2.086 . S
Zn68 O77 1.977 . S
O69 Zn68 2.032 . S
O69 C73 1.278 . S
C70 O71 1.203 . S
C70 O77 1.267 . S
O71 C70 1.203 . S
O72 C65 1.185 . S
O72 Zn68 2.086 . S
C73 O69 1.278 . S
C73 O74 1.211 . S
O74 C73 1.211 . S
C75 O67 1.284 . S
C75 O76 1.273 . S
O76 C75 1.273 . S
O77 Zn68 1.977 . S
O77 C70 1.267 . S
C78 O79 1.160 . S
C78 O85 1.185 . S
O79 C78 1.160 . S
O80 Zn81 1.899 . S
O80 C88 1.284 1_545 S
Zn81 O80 1.899 . S
Zn81 O82 2.032 . S
Zn81 O85 2.086 . S
Zn81 O90 1.977 . S
O82 Zn81 2.032 . S
O82 C86 1.278 . S
C83 O84 1.203 . S
C83 O90 1.267 1_565 S
O84 C83 1.203 . S
O85 C78 1.185 . S
O85 Zn81 2.086 . S
C86 O82 1.278 . S
C86 O87 1.211 1_545 S
O87 C86 1.211 1_565 S
C88 O80 1.284 1_565 S
C88 O89 1.273 . S
O89 C88 1.273 . S
O90 Zn81 1.977 . S
O90 C83 1.267 1_545 S
C91 O92 1.160 . S
C91 O98 1.185 . S
O92 C91 1.160 . S
O93 Zn94 1.899 . S
O93 C101 1.284 . S
Zn94 O93 1.899 . S
Zn94 O95 2.032 . S
Zn94 O98 2.086 . S
Zn94 O103 1.977 . S
O95 Zn94 2.032 . S
O95 C99 1.278 . S
C96 O97 1.203 . S
C96 O103 1.267 . S
O97 C96 1.203 . S
O98 C91 1.185 . S
O98 Zn94 2.086 . S
C99 O95 1.278 . S
C99 O100 1.211 . S
O100 C99 1.211 . S
C101 O93 1.284 . S
C101 O102 1.273 . S
O102 C101 1.273 . S
O103 Zn94 1.977 . S
O103 C96 1.267 . S
C104 O105 1.160 . S
C104 O111 1.185 . S
O105 C104 1.160 . S
O106 Zn107 1.899 . S
O106 C114 1.284 . S
Zn107 O106 1.899 . S
Zn107 O108 2.032 . S
Zn107 O111 2.086 . S
Zn107 O116 1.977 . S
O108 Zn107 2.032 . S
O108 C112 1.278 . S
C109 O110 1.203 . S
C109 O116 1.267 . S
O110 C109 1.203 . S
O111 C104 1.185 . S
O111 Zn107 2.086 . S
C112 O108 1.278 . S
C112 O113 1.211 . S
O113 C112 1.211 . S
C114 O106 1.284 . S
C114 O115 1.273 . S
O115 C114 1.273 . S
O116 Zn107 1.977 . S
O116 C109 1.267 . S
C117 O118 1.160 . S
C117 O124 1.185 . S
O118 C117 1.160 . S
O119 Zn120 1.899 . S
O119 C127 1.284 . S
Zn120 O119 1.899 . S
Zn120 O121 2.032 . S
Zn120 O124 2.086 . S
Zn120 O129 1.977 . S
O121 Zn120 2.032 . S
O121 C125 1.278 . S
C122 O123 1.203 . S
C122 O129 1.267 . S
O123 C122 1.203 . S
O124 C117 1.185 . S
O124 Zn120 2.086 . S
C125 O121 1.278 . S
C125 O126 1.211 . S
O126 C125 1.211 . S
C127 O119 1.284 . S
C127 O128 1.273 . S
O128 C127 1.273 . S
O129 Zn120 1.977 . S
O129 C122 1.267 . S
C130 O131 1.160 . S
C130 O137 1.185 . S
O131 C130 1.160 . S
O132 Zn133 1.899 . S
O132 C140 1.284 . S
Zn133 O132 1.899 . S
Zn133 O134 2.032 . S
Zn133 O137 2.086 . S
Zn133 O142 1.977 . S
O134 Zn133 2.032 . S
O134 C138 1.278 . S
C135 O136 1.203 . S
C135 O142 1.267 . S
O136 C135 1.203 . S
O137 C130 1.185 . S
O137 Zn133 2.086 . S
C138 O134 1.278 . S
C138 O139 1.211 . S
O139 C138 1.211 . S
C140 O132 1.284 . S
C140 O141 1.273 . S
O141 C140 1.273 . S
O142 Zn133 1.977 . S
O142 C135 1.267 . S
C143 O144 1.160 . S
C143 O150 1.185 . S
O144 C143 1.160 . S
O145 Zn146 1.899 . S
O145 C153 1.284 . S
Zn146 O145 1.899 . S
Zn146 O147 2.032 . S
Zn146 O150 2.086 . S
Zn146 O155 1.977 . S
O147 Zn146 2.032 . S
O147 C151 1.278 . S
C148 O149 1.203 . S
C148 O155 1.267 . S
O149 C148 1.203 . S
O150 C143 1.185 . S
O150 Zn146 2.086 . S
C151 O147 1.278 . S
C151 O152 1.211 . S
O152 C151 1.211 . S
C153 O145 1.284 . S
C153 O154 1.273 . S
O154 C153 1.273 . S
O155 Zn146 1.977 . S
O155 C148 1.267 . S
C156 O157 1.160 . S
C156 O163 1.185 . S
O157 C156 1.160 . S
O158 Zn159 1.899 . S
O158 C166 1.284 . S
Zn159 O158 1.899 . S
Zn159 O160 2.032 . S
Zn159 O163 2.086 . S
Zn159 O168 1.977 . S
O160 Zn159 2.032 . S
O160 C164 1.278 . S
C161 O162 1.203 . S
C161 O168 1.267 . S
O162 C161 1.203 . S
O163 C156 1.185 . S
O163 Zn159 2.086 . S
C164 O160 1.278 . S
C164 O165 1.211 . S
O165 C164 1.211 . S
C166 O158 1.284 . S
C166 O167 1.273 . S
O167 C166 1.273 . S
O168 Zn159 1.977 . S
O168 C161 1.267 . S
C169 O170 1.160 . S
C169 O176 1.185 . S
O170 C169 1.160 . S
O171 Zn172 1.899 . S
O171 C179 1.284 . S
Zn172 O171 1.899 . S
Zn172 O173 2.032 . S
Zn172 O176 2.086 . S
Zn172 O181 1.977 1_455 S
O173 Zn172 2.032 . S
O173 C177 1.278 . S
C174 O175 1.203 . S
C174 O181 1.267 . S
O175 C174 1.203 . S
O176 C169 1.185 . S
O176 Zn172 2.086 . S
C177 O173 1.278 . S
C177 O178 1.211 . S
O178 C177 1.211 . S
C179 O171 1.284 . S
C179 O180 1.273 . S
O180 C179 1.273 . S
O181 Zn172 1.977 1_655 S
O181 C174 1.267 . S
C182 O183 1.160 . S
C182 O189 1.185 . S
O183 C182 1.160 . S
O184 Zn185 1.899 . S
O184 C192 1.284 . S
Zn185 O184 1.899 . S
Zn185 O186 2.032 . S
Zn185 O189 2.086 . S
Zn185 O194 1.977 . S
O186 Zn185 2.032 . S
O186 C190 1.278 . S
C187 O188 1.203 . S
C187 O194 1.267 . S
O188 C187 1.203 . S
O189 C182 1.185 . S
O189 Zn185 2.086 . S
C190 O186 1.278 . S
C190 O191 1.211 . S
O191 C190 1.211 . S
C192 O184 1.284 . S
C192 O193 1.273 . S
O193 C192 1.273 . S
O194 Zn185 1.977 . S
O194 C187 1.267 . S
C195 O196 1.160 . S
C195 O202 1.185 . S
O196 C195 1.160 . S
O197 Zn198 1.899 . S
O197 C205 1.284 . S
Zn198 O197 1.899 . S
Zn198 O199 2.032 . S
Zn198 O202 2.086 . S
Zn198 O207 1.977 1_455 S
O199 Zn198 2.032 . S
O199 C203 1.278 . S
C200 O201 1.203 . S
C200 O207 1.267 . S
O201 C200 1.203 . S
O202 C195 1.185 . S
O202 Zn198 2.086 . S
C203 O199 1.278 . S
C203 O204 1.211 . S
O204 C203 1.211 . S
C205 O197 1.284 . S
C205 O206 1.273 . S
O206 C205 1.273 . S
O207 Zn198 1.977 1_655 S
O207 C200 1.267 . S
C208 C209 1.363 1_655 S
C208 C214 1.377 1_655 S
C208 N216 1.356 . S
C209 C208 1.363 1_455 S
C209 C215 1.363 . S
C210 C211 1.363 . S
C210 C215 1.379 . S
C210 N217 1.356 . S
C211 C210 1.363 . S
C211 C214 1.372 . S
N212 C214 1.352 1_655 S
N212 H224 0.984 . S
N212 H225 0.985 . S
N213 C215 1.356 . S
N213 H218 0.984 . S
N213 H219 0.985 . S
C214 C208 1.377 1_455 S
C214 C211 1.372 . S
C214 N212 1.352 1_455 S
C215 C209 1.363 . S
C215 C210 1.379 . S
C215 N213 1.356 . S
N216 C208 1.356 . S
N216 H222 0.984 . S
N216 H223 0.984 . S
N217 C210 1.356 . S
N217 H220 0.984 . S
N217 H221 0.985 . S
H218 N213 0.984 . S
H219 N213 0.985 . S
H220 N217 0.984 . S
H221 N217 0.985 . S
H222 N216 0.984 . S
H223 N216 0.984 . S
H224 N212 0.984 . S
H225 N212 0.985 . S
C226 C227 1.363 . S
C226 C232 1.379 1_655 S
C226 N234 1.356 . S
C227 C226 1.363 . S
C227 C233 1.364 . S
C228 C229 1.363 . S
C228 C233 1.376 1_455 S
C228 N235 1.356 . S
C229 C228 1.363 . S
C229 C232 1.363 . S
N230 C232 1.356 . S
N230 H242 0.984 . S
N230 H243 0.985 . S
N231 C233 1.358 . S
N231 H236 0.984 . S
N231 H237 0.985 . S
C232 C226 1.379 1_455 S
C232 C229 1.363 . S
C232 N230 1.356 . S
C233 C227 1.364 . S
C233 C228 1.376 1_655 S
C233 N231 1.358 . S
N234 C226 1.356 . S
N234 H240 0.984 . S
N234 H241 0.984 . S
N235 C228 1.356 . S
N235 H238 0.984 . S
N235 H239 0.985 . S
H236 N231 0.984 . S
H237 N231 0.985 . S
H238 N235 0.984 . S
H239 N235 0.985 . S
H240 N234 0.984 . S
H241 N234 0.984 . S
H242 N230 0.984 . S
H243 N230 0.985 . S
C244 C245 1.363 . S
C244 C250 1.379 . S
C244 N252 1.356 . S
C245 C244 1.363 . S
C245 C251 1.363 . S
C246 C247 1.363 . S
C246 C251 1.379 . S
C246 N253 1.356 . S
C247 C246 1.363 . S
C247 C250 1.363 . S
N248 C250 1.356 . S
N248 H260 0.984 . S
N248 H261 0.985 . S
N249 C251 1.356 . S
N249 H254 0.984 . S
N249 H255 0.985 . S
C250 C244 1.379 . S
C250 C247 1.363 . S
C250 N248 1.356 . S
C251 C245 1.363 . S
C251 C246 1.379 . S
C251 N249 1.356 . S
N252 C244 1.356 . S
N252 H258 0.984 . S
N252 H259 0.984 . S
N253 C246 1.356 . S
N253 H256 0.984 . S
N253 H257 0.985 . S
H254 N249 0.984 . S
H255 N249 0.985 . S
H256 N253 0.984 . S
H257 N253 0.985 . S
H258 N252 0.984 . S
H259 N252 0.984 . S
H260 N248 0.984 . S
H261 N248 0.985 . S
C262 C263 1.363 . S
C262 C268 1.379 . S
C262 N270 1.356 . S
C263 C262 1.363 . S
C263 C269 1.363 . S
C264 C265 1.363 . S
C264 C269 1.379 . S
C264 N271 1.356 . S
C265 C264 1.363 . S
C265 C268 1.363 . S
N266 C268 1.356 . S
N266 H278 0.984 . S
N266 H279 0.985 . S
N267 C269 1.356 . S
N267 H272 0.984 . S
N267 H273 0.985 . S
C268 C262 1.379 . S
C268 C265 1.363 . S
C268 N266 1.356 . S
C269 C263 1.363 . S
C269 C264 1.379 . S
C269 N267 1.356 . S
N270 C262 1.356 . S
N270 H276 0.984 . S
N270 H277 0.984 . S
N271 C264 1.356 . S
N271 H274 0.984 . S
N271 H275 0.985 . S
H272 N267 0.984 . S
H273 N267 0.985 . S
H274 N271 0.984 . S
H275 N271 0.985 . S
H276 N270 0.984 . S
H277 N270 0.984 . S
H278 N266 0.984 . S
H279 N266 0.985 . S
C280 C281 1.363 1_655 S
C280 C286 1.377 1_655 S
C280 N288 1.356 . S
C281 C280 1.363 1_455 S
C281 C287 1.363 . S
C282 C283 1.363 . S
C282 C287 1.379 . S
C282 N289 1.356 . S
C283 C282 1.363 . S
C283 C286 1.372 . S
N284 C286 1.352 1_655 S
N284 H296 0.984 . S
N284 H297 0.985 . S
N285 C287 1.356 . S
N285 H290 0.984 . S
N285 H291 0.985 . S
C286 C280 1.377 1_455 S
C286 C283 1.372 . S
C286 N284 1.352 1_455 S
C287 C281 1.363 . S
C287 C282 1.379 . S
C287 N285 1.356 . S
N288 C280 1.356 . S
N288 H294 0.984 . S
N288 H295 0.984 . S
N289 C282 1.356 . S
N289 H292 0.984 . S
N289 H293 0.985 . S
H290 N285 0.984 . S
H291 N285 0.985 . S
H292 N289 0.984 . S
H293 N289 0.985 . S
H294 N288 0.984 . S
H295 N288 0.984 . S
H296 N284 0.984 . S
H297 N284 0.985 . S
C298 C299 1.363 . S
C298 C304 1.379 . S
C298 N306 1.356 . S
C299 C298 1.363 . S
C299 C305 1.363 . S
C300 C301 1.363 . S
C300 C305 1.379 . S
C300 N307 1.356 . S
C301 C300 1.363 . S
C301 C304 1.363 . S
N302 C304 1.356 . S
N302 H314 0.984 . S
N302 H315 0.985 . S
N303 C305 1.356 . S
N303 H308 0.984 . S
N303 H309 0.985 . S
C304 C298 1.379 . S
C304 C301 1.363 . S
C304 N302 1.356 . S
C305 C299 1.363 . S
C305 C300 1.379 . S
C305 N303 1.356 . S
N306 C298 1.356 . S
N306 H312 0.984 . S
N306 H313 0.984 . S
N307 C300 1.356 . S
N307 H310 0.984 . S
N307 H311 0.985 . S
H308 N303 0.984 . S
H309 N303 0.985 . S
H310 N307 0.984 . S
H311 N307 0.985 . S
H312 N306 0.984 . S
H313 N306 0.984 . S
H314 N302 0.984 . S
H315 N302 0.985 . S
C316 C317 1.363 . S
C316 C322 1.379 . S
C316 N324 1.356 . S
C317 C316 1.363 . S
C317 C323 1.363 . S
C318 C319 1.363 . S
C318 C323 1.379 . S
C318 N325 1.356 . S
C319 C318 1.363 . S
C319 C322 1.363 . S
N320 C322 1.356 . S
N320 H332 0.984 . S
N320 H333 0.985 . S
N321 C323 1.356 . S
N321 H326 0.984 . S
N321 H327 0.985 . S
C322 C316 1.379 . S
C322 C319 1.363 . S
C322 N320 1.356 . S
C323 C317 1.363 . S
C323 C318 1.379 . S
C323 N321 1.356 . S
N324 C316 1.356 . S
N324 H330 0.984 . S
N324 H331 0.984 . S
N325 C318 1.356 . S
N325 H328 0.984 . S
N325 H329 0.985 . S
H326 N321 0.984 . S
H327 N321 0.985 . S
H328 N325 0.984 . S
H329 N325 0.985 . S
H330 N324 0.984 . S
H331 N324 0.984 . S
H332 N320 0.984 . S
H333 N320 0.985 . S
C334 C335 1.363 . S
C334 C340 1.379 1_455 S
C334 N342 1.356 . S
C335 C334 1.363 . S
C335 C341 1.363 . S
C336 C337 1.364 . S
C336 C341 1.376 1_655 S
C336 N343 1.358 . S
C337 C336 1.364 . S
C337 C340 1.363 . S
N338 C340 1.356 . S
N338 H350 0.984 . S
N338 H351 0.985 . S
N339 C341 1.356 . S
N339 H344 0.984 . S
N339 H345 0.985 . S
C340 C334 1.379 1_655 S
C340 C337 1.363 . S
C340 N338 1.356 . S
C341 C335 1.363 . S
C341 C336 1.376 1_455 S
C341 N339 1.356 . S
N342 C334 1.356 . S
N342 H348 0.984 . S
N342 H349 0.984 . S
N343 C336 1.358 . S
N343 H346 0.984 . S
N343 H347 0.985 . S
H344 N339 0.984 . S
H345 N339 0.985 . S
H346 N343 0.984 . S
H347 N343 0.985 . S
H348 N342 0.984 . S
H349 N342 0.984 . S
H350 N338 0.984 . S
H351 N338 0.985 . S
C352 C353 1.363 1_545 S
C352 C358 1.379 . S
C352 N360 1.356 . S
C353 C352 1.363 1_565 S
C353 C359 1.363 1_455 S
C354 C355 1.363 1_665 S
C354 C359 1.379 . S
C354 N361 1.356 . S
C355 C354 1.363 1_445 S
C355 C358 1.363 . S
N356 C358 1.356 . S
N356 H368 0.984 . S
N356 H369 0.985 . S
N357 C359 1.356 . S
N357 H362 0.984 . S
N357 H363 0.985 . S
C358 C352 1.379 . S
C358 C355 1.363 . S
C358 N356 1.356 . S
C359 C353 1.363 1_655 S
C359 C354 1.379 . S
C359 N357 1.356 . S
N360 C352 1.356 . S
N360 H366 0.984 . S
N360 H367 0.984 . S
N361 C354 1.356 . S
N361 H364 0.984 . S
N361 H365 0.985 . S
H362 N357 0.984 . S
H363 N357 0.985 . S
H364 N361 0.984 . S
H365 N361 0.985 . S
H366 N360 0.984 . S
H367 N360 0.984 . S
H368 N356 0.984 . S
H369 N356 0.985 . S
C370 C371 1.363 . S
C370 C376 1.379 . S
C370 N378 1.356 . S
C371 C370 1.363 . S
C371 C377 1.363 . S
C372 C373 1.363 . S
C372 C377 1.379 . S
C372 N379 1.356 . S
C373 C372 1.363 . S
C373 C376 1.363 . S
N374 C376 1.356 . S
N374 H386 0.984 . S
N374 H387 0.985 . S
N375 C377 1.356 . S
N375 H380 0.984 . S
N375 H381 0.985 . S
C376 C370 1.379 . S
C376 C373 1.363 . S
C376 N374 1.356 . S
C377 C371 1.363 . S
C377 C372 1.379 . S
C377 N375 1.356 . S
N378 C370 1.356 . S
N378 H384 0.984 . S
N378 H385 0.984 . S
N379 C372 1.356 . S
N379 H382 0.984 . S
N379 H383 0.985 . S
H380 N375 0.984 . S
H381 N375 0.985 . S
H382 N379 0.984 . S
H383 N379 0.985 . S
H384 N378 0.984 . S
H385 N378 0.984 . S
H386 N374 0.984 . S
H387 N374 0.985 . S
C388 C389 1.363 . S
C388 C394 1.379 1_554 S
C388 N396 1.356 . S
C389 C388 1.363 . S
C389 C395 1.363 1_565 S
C390 C391 1.363 . S
C390 C395 1.379 1_556 S
C390 N397 1.356 . S
C391 C390 1.363 . S
C391 C394 1.363 1_545 S
N392 C394 1.356 . S
N392 H404 0.984 . S
N392 H405 0.985 . S
N393 C395 1.356 . S
N393 H398 0.984 . S
N393 H399 0.985 . S
C394 C388 1.379 1_556 S
C394 C391 1.363 1_565 S
C394 N392 1.356 . S
C395 C389 1.363 1_545 S
C395 C390 1.379 1_554 S
C395 N393 1.356 . S
N396 C388 1.356 . S
N396 H402 0.984 . S
N396 H403 0.984 . S
N397 C390 1.356 . S
N397 H400 0.984 . S
N397 H401 0.985 . S
H398 N393 0.984 . S
H399 N393 0.985 . S
H400 N397 0.984 . S
H401 N397 0.985 . S
H402 N396 0.984 . S
H403 N396 0.984 . S
H404 N392 0.984 . S
H405 N392 0.985 . S
C406 C407 1.363 . S
C406 C412 1.379 . S
C406 N414 1.356 . S
C407 C406 1.363 . S
C407 C413 1.363 . S
C408 C409 1.363 . S
C408 C413 1.379 . S
C408 N415 1.356 . S
C409 C408 1.363 . S
C409 C412 1.363 . S
N410 C412 1.356 . S
N410 H422 0.984 . S
N410 H423 0.985 . S
N411 C413 1.356 . S
N411 H416 0.984 . S
N411 H417 0.985 . S
C412 C406 1.379 . S
C412 C409 1.363 . S
C412 N410 1.356 . S
C413 C407 1.363 . S
C413 C408 1.379 . S
C413 N411 1.356 . S
N414 C406 1.356 . S
N414 H420 0.984 . S
N414 H421 0.984 . S
N415 C408 1.356 . S
N415 H418 0.984 . S
N415 H419 0.985 . S
H416 N411 0.984 . S
H417 N411 0.985 . S
H418 N415 0.984 . S
H419 N415 0.985 . S
H420 N414 0.984 . S
H421 N414 0.984 . S
H422 N410 0.984 . S
H423 N410 0.985 . S
C424 C425 1.363 . S
C424 C430 1.379 . S
C424 N432 1.356 . S
C425 C424 1.363 . S
C425 C431 1.363 . S
C426 C427 1.363 . S
C426 C431 1.379 . S
C426 N433 1.356 . S
C427 C426 1.363 . S
C427 C430 1.363 . S
N428 C430 1.356 . S
N428 H440 0.984 . S
N428 H441 0.985 . S
N429 C431 1.356 . S
N429 H434 0.984 . S
N429 H435 0.985 . S
C430 C424 1.379 . S
C430 C427 1.363 . S
C430 N428 1.356 . S
C431 C425 1.363 . S
C431 C426 1.379 . S
C431 N429 1.356 . S
N432 C424 1.356 . S
N432 H438 0.984 . S
N432 H439 0.984 . S
N433 C426 1.356 . S
N433 H436 0.984 . S
N433 H437 0.985 . S
H434 N429 0.984 . S
H435 N429 0.985 . S
H436 N433 0.984 . S
H437 N433 0.985 . S
H438 N432 0.984 . S
H439 N432 0.984 . S
H440 N428 0.984 . S
H441 N428 0.985 . S
C442 C443 1.363 . S
C442 C448 1.379 . S
C442 N450 1.356 . S
C443 C442 1.363 . S
C443 C449 1.363 . S
C444 C445 1.363 . S
C444 C449 1.379 . S
C444 N451 1.356 . S
C445 C444 1.363 . S
C445 C448 1.363 . S
N446 C448 1.356 . S
N446 H458 0.984 . S
N446 H459 0.985 . S
N447 C449 1.356 . S
N447 H452 0.984 . S
N447 H453 0.985 . S
C448 C442 1.379 . S
C448 C445 1.363 . S
C448 N446 1.356 . S
C449 C443 1.363 . S
C449 C444 1.379 . S
C449 N447 1.356 . S
N450 C442 1.356 . S
N450 H456 0.984 . S
N450 H457 0.984 . S
N451 C444 1.356 . S
N451 H454 0.984 . S
N451 H455 0.985 . S
H452 N447 0.984 . S
H453 N447 0.985 . S
H454 N451 0.984 . S
H455 N451 0.985 . S
H456 N450 0.984 . S
H457 N450 0.984 . S
H458 N446 0.984 . S
H459 N446 0.985 . S
C460 C461 1.363 . S
C460 C466 1.379 1_556 S
C460 N468 1.356 . S
C461 C460 1.363 . S
C461 C467 1.363 . S
C462 C463 1.363 . S
C462 C467 1.379 1_554 S
C462 N469 1.356 . S
C463 C462 1.363 . S
C463 C466 1.363 . S
N464 C466 1.356 . S
N464 H476 0.984 . S
N464 H477 0.985 . S
N465 C467 1.356 . S
N465 H470 0.984 . S
N465 H471 0.985 . S
C466 C460 1.379 1_554 S
C466 C463 1.363 . S
C466 N464 1.356 . S
C467 C461 1.363 . S
C467 C462 1.379 1_556 S
C467 N465 1.356 . S
N468 C460 1.356 . S
N468 H474 0.984 . S
N468 H475 0.984 . S
N469 C462 1.356 . S
N469 H472 0.984 . S
N469 H473 0.985 . S
H470 N465 0.984 . S
H471 N465 0.985 . S
H472 N469 0.984 . S
H473 N469 0.985 . S
H474 N468 0.984 . S
H475 N468 0.984 . S
H476 N464 0.984 . S
H477 N464 0.985 . S
C478 C479 1.363 . S
C478 C484 1.379 . S
C478 N486 1.356 . S
C479 C478 1.363 . S
C479 C485 1.363 1_455 S
C480 C481 1.363 1_655 S
C480 C485 1.379 . S
C480 N487 1.356 . S
C481 C480 1.363 1_455 S
C481 C484 1.363 . S
N482 C484 1.356 . S
N482 H494 0.984 . S
N482 H495 0.985 . S
N483 C485 1.356 . S
N483 H488 0.984 . S
N483 H489 0.985 . S
C484 C478 1.379 . S
C484 C481 1.363 . S
C484 N482 1.356 . S
C485 C479 1.363 1_655 S
C485 C480 1.379 . S
C485 N483 1.356 . S
N486 C478 1.356 . S
N486 H492 0.984 . S
N486 H493 0.984 . S
N487 C480 1.356 . S
N487 H490 0.984 . S
N487 H491 0.985 . S
H488 N483 0.984 . S
H489 N483 0.985 . S
H490 N487 0.984 . S
H491 N487 0.985 . S
H492 N486 0.984 . S
H493 N486 0.984 . S
H494 N482 0.984 . S
H495 N482 0.985 . S
C496 C497 1.363 . S
C496 C502 1.379 . S
C496 N504 1.356 . S
C497 C496 1.363 . S
C497 C503 1.363 . S
C498 C499 1.363 . S
C498 C503 1.379 . S
C498 N505 1.356 . S
C499 C498 1.363 . S
C499 C502 1.363 . S
N500 C502 1.356 . S
N500 H512 0.984 . S
N500 H513 0.985 . S
N501 C503 1.356 . S
N501 H506 0.984 . S
N501 H507 0.985 . S
C502 C496 1.379 . S
C502 C499 1.363 . S
C502 N500 1.356 . S
C503 C497 1.363 . S
C503 C498 1.379 . S
C503 N501 1.356 . S
N504 C496 1.356 . S
N504 H510 0.984 . S
N504 H511 0.984 . S
N505 C498 1.356 . S
N505 H508 0.984 . S
N505 H509 0.985 . S
H506 N501 0.984 . S
H507 N501 0.985 . S
H508 N505 0.984 . S
H509 N505 0.985 . S
H510 N504 0.984 . S
H511 N504 0.984 . S
H512 N500 0.984 . S
H513 N500 0.985 . S
C514 C515 1.363 . S
C514 C520 1.379 . S
C514 N522 1.356 . S
C515 C514 1.363 . S
C515 C521 1.363 . S
C516 C517 1.363 . S
C516 C521 1.379 . S
C516 N523 1.356 . S
C517 C516 1.363 . S
C517 C520 1.363 . S
N518 C520 1.356 . S
N518 H530 0.984 . S
N518 H531 0.985 . S
N519 C521 1.356 . S
N519 H524 0.984 . S
N519 H525 0.985 . S
C520 C514 1.379 . S
C520 C517 1.363 . S
C520 N518 1.356 . S
C521 C515 1.363 . S
C521 C516 1.379 . S
C521 N519 1.356 . S
N522 C514 1.356 . S
N522 H528 0.984 . S
N522 H529 0.984 . S
N523 C516 1.356 . S
N523 H526 0.984 . S
N523 H527 0.985 . S
H524 N519 0.984 . S
H525 N519 0.985 . S
H526 N523 0.984 . S
H527 N523 0.985 . S
H528 N522 0.984 . S
H529 N522 0.984 . S
H530 N518 0.984 . S
H531 N518 0.985 . S
C532 C533 1.363 . S
C532 C538 1.379 . S
C532 N540 1.356 1_545 S
C533 C532 1.363 . S
C533 C539 1.363 . S
C534 C535 1.363 . S
C534 C539 1.379 . S
C534 N541 1.356 . S
C535 C534 1.363 . S
C535 C538 1.363 . S
N536 C538 1.356 . S
N536 H548 0.984 . S
N536 H549 0.985 . S
N537 C539 1.356 . S
N537 H542 0.984 . S
N537 H543 0.985 . S
C538 C532 1.379 . S
C538 C535 1.363 . S
C538 N536 1.356 . S
C539 C533 1.363 . S
C539 C534 1.379 . S
C539 N537 1.356 . S
N540 C532 1.356 1_565 S
N540 H546 0.984 . S
N540 H547 0.984 . S
N541 C534 1.356 . S
N541 H544 0.984 . S
N541 H545 0.985 . S
H542 N537 0.984 . S
H543 N537 0.985 . S
H544 N541 0.984 . S
H545 N541 0.985 . S
H546 N540 0.984 . S
H547 N540 0.984 . S
H548 N536 0.984 . S
H549 N536 0.985 . S
C550 C551 1.363 . S
C550 C556 1.379 . S
C550 N558 1.356 . S
C551 C550 1.363 . S
C551 C557 1.363 . S
C552 C553 1.363 . S
C552 C557 1.379 . S
C552 N559 1.356 . S
C553 C552 1.363 . S
C553 C556 1.363 . S
N554 C556 1.356 . S
N554 H566 0.984 . S
N554 H567 0.985 . S
N555 C557 1.356 . S
N555 H560 0.984 1_545 S
N555 H561 0.985 . S
C556 C550 1.379 . S
C556 C553 1.363 . S
C556 N554 1.356 . S
C557 C551 1.363 . S
C557 C552 1.379 . S
C557 N555 1.356 . S
N558 C550 1.356 . S
N558 H564 0.984 . S
N558 H565 0.984 . S
N559 C552 1.356 . S
N559 H562 0.984 . S
N559 H563 0.985 . S
H560 N555 0.984 1_565 S
H561 N555 0.985 . S
H562 N559 0.984 . S
H563 N559 0.985 . S
H564 N558 0.984 . S
H565 N558 0.984 . S
H566 N554 0.984 . S
H567 N554 0.985 . S
C568 C569 1.363 . S
C568 C574 1.379 . S
C568 N576 1.356 . S
C569 C568 1.363 . S
C569 C575 1.363 . S
C570 C571 1.363 . S
C570 C575 1.379 . S
C570 N577 1.356 . S
C571 C570 1.363 . S
C571 C574 1.363 . S
N572 C574 1.356 . S
N572 H584 0.984 . S
N572 H585 0.985 . S
N573 C575 1.356 . S
N573 H578 0.984 . S
N573 H579 0.985 . S
C574 C568 1.379 . S
C574 C571 1.363 . S
C574 N572 1.356 . S
C575 C569 1.363 . S
C575 C570 1.379 . S
C575 N573 1.356 . S
N576 C568 1.356 . S
N576 H582 0.984 . S
N576 H583 0.984 . S
N577 C570 1.356 . S
N577 H580 0.984 . S
N577 H581 0.985 . S
H578 N573 0.984 . S
H579 N573 0.985 . S
H580 N577 0.984 . S
H581 N577 0.985 . S
H582 N576 0.984 . S
H583 N576 0.984 . S
H584 N572 0.984 . S
H585 N572 0.985 . S
C586 C587 1.363 . S
C586 C592 1.379 . S
C586 N594 1.356 . S
C587 C586 1.363 . S
C587 C593 1.363 . S
C588 C589 1.363 . S
C588 C593 1.379 . S
C588 N595 1.356 . S
C589 C588 1.363 . S
C589 C592 1.363 . S
N590 C592 1.356 . S
N590 H602 0.984 . S
N590 H603 0.985 . S
N591 C593 1.356 . S
N591 H596 0.984 . S
N591 H597 0.985 . S
C592 C586 1.379 . S
C592 C589 1.363 . S
C592 N590 1.356 . S
C593 C587 1.363 . S
C593 C588 1.379 . S
C593 N591 1.356 . S
N594 C586 1.356 . S
N594 H600 0.984 . S
N594 H601 0.984 . S
N595 C588 1.356 . S
N595 H598 0.984 . S
N595 H599 0.985 . S
H596 N591 0.984 . S
H597 N591 0.985 . S
H598 N595 0.984 . S
H599 N595 0.985 . S
H600 N594 0.984 . S
H601 N594 0.984 . S
H602 N590 0.984 . S
H603 N590 0.985 . S
C604 C605 1.363 . S
C604 C610 1.379 . S
C604 N612 1.356 . S
C605 C604 1.363 . S
C605 C611 1.363 . S
C606 C607 1.363 . S
C606 C611 1.379 . S
C606 N613 1.356 . S
C607 C606 1.363 . S
C607 C610 1.363 . S
N608 C610 1.356 1_545 S
N608 H620 0.984 . S
N608 H621 0.985 . S
N609 C611 1.356 . S
N609 H614 0.984 . S
N609 H615 0.985 . S
C610 C604 1.379 . S
C610 C607 1.363 . S
C610 N608 1.356 1_565 S
C611 C605 1.363 . S
C611 C606 1.379 . S
C611 N609 1.356 . S
N612 C604 1.356 . S
N612 H618 0.984 . S
N612 H619 0.984 . S
N613 C606 1.356 . S
N613 H616 0.984 . S
N613 H617 0.985 . S
H614 N609 0.984 . S
H615 N609 0.985 . S
H616 N613 0.984 . S
H617 N613 0.985 . S
H618 N612 0.984 . S
H619 N612 0.984 . S
H620 N608 0.984 . S
H621 N608 0.985 . S
C622 C623 1.363 . S
C622 C628 1.379 . S
C622 N630 1.356 . S
C623 C622 1.363 . S
C623 C629 1.363 . S
C624 C625 1.363 . S
C624 C629 1.379 . S
C624 N631 1.356 . S
C625 C624 1.363 . S
C625 C628 1.363 . S
N626 C628 1.356 . S
N626 H638 0.984 . S
N626 H639 0.985 . S
N627 C629 1.356 . S
N627 H632 0.984 . S
N627 H633 0.985 . S
C628 C622 1.379 . S
C628 C625 1.363 . S
C628 N626 1.356 . S
C629 C623 1.363 . S
C629 C624 1.379 . S
C629 N627 1.356 . S
N630 C622 1.356 . S
N630 H636 0.984 . S
N630 H637 0.984 . S
N631 C624 1.356 . S
N631 H634 0.984 1_565 S
N631 H635 0.985 . S
H632 N627 0.984 . S
H633 N627 0.985 . S
H634 N631 0.984 1_545 S
H635 N631 0.985 . S
H636 N630 0.984 . S
H637 N630 0.984 . S
H638 N626 0.984 . S
H639 N626 0.985 . S
C640 C641 1.363 . S
C640 C646 1.379 . S
C640 N648 1.356 . S
C641 C640 1.363 . S
C641 C647 1.363 . S
C642 C643 1.363 . S
C642 C647 1.379 . S
C642 N649 1.356 . S
C643 C642 1.363 . S
C643 C646 1.363 . S
N644 C646 1.356 . S
N644 H656 0.984 . S
N644 H657 0.985 . S
N645 C647 1.356 . S
N645 H650 0.984 . S
N645 H651 0.985 . S
C646 C640 1.379 . S
C646 C643 1.363 . S
C646 N644 1.356 . S
C647 C641 1.363 . S
C647 C642 1.379 . S
C647 N645 1.356 . S
N648 C640 1.356 . S
N648 H654 0.984 . S
N648 H655 0.984 . S
N649 C642 1.356 . S
N649 H652 0.984 . S
N649 H653 0.985 . S
H650 N645 0.984 . S
H651 N645 0.985 . S
H652 N649 0.984 . S
H653 N649 0.985 . S
H654 N648 0.984 . S
H655 N648 0.984 . S
H656 N644 0.984 . S
H657 N644 0.985 . S
C658 C659 1.363 . S
C658 C664 1.379 . S
C658 N666 1.356 . S
C659 C658 1.363 . S
C659 C665 1.363 . S
C660 C661 1.363 . S
C660 C665 1.379 . S
C660 N667 1.356 . S
C661 C660 1.363 . S
C661 C664 1.363 . S
N662 C664 1.356 . S
N662 H674 0.984 . S
N662 H675 0.985 . S
N663 C665 1.356 . S
N663 H668 0.984 . S
N663 H669 0.985 . S
C664 C658 1.379 . S
C664 C661 1.363 . S
C664 N662 1.356 . S
C665 C659 1.363 . S
C665 C660 1.379 . S
C665 N663 1.356 . S
N666 C658 1.356 . S
N666 H672 0.984 . S
N666 H673 0.984 . S
N667 C660 1.356 . S
N667 H670 0.984 . S
N667 H671 0.985 . S
H668 N663 0.984 . S
H669 N663 0.985 . S
H670 N667 0.984 . S
H671 N667 0.985 . S
H672 N666 0.984 . S
H673 N666 0.984 . S
H674 N662 0.984 . S
H675 N662 0.985 . S
C676 C677 1.363 . S
C676 C682 1.379 . S
C676 N684 1.356 . S
C677 C676 1.363 . S
C677 C683 1.363 . S
C678 C679 1.363 . S
C678 C683 1.379 . S
C678 N685 1.356 . S
C679 C678 1.363 . S
C679 C682 1.363 . S
N680 C682 1.356 . S
N680 H692 0.984 . S
N680 H693 0.985 . S
N681 C683 1.356 . S
N681 H686 0.984 . S
N681 H687 0.985 . S
C682 C676 1.379 . S
C682 C679 1.363 . S
C682 N680 1.356 . S
C683 C677 1.363 . S
C683 C678 1.379 . S
C683 N681 1.356 . S
N684 C676 1.356 . S
N684 H690 0.984 . S
N684 H691 0.984 . S
N685 C678 1.356 . S
N685 H688 0.984 . S
N685 H689 0.985 . S
H686 N681 0.984 . S
H687 N681 0.985 . S
H688 N685 0.984 . S
H689 N685 0.985 . S
H690 N684 0.984 . S
H691 N684 0.984 . S
H692 N680 0.984 . S
H693 N680 0.985 . S
C694 C695 1.363 . S
C694 C700 1.379 . S
C694 N702 1.356 . S
C695 C694 1.363 . S
C695 C701 1.363 . S
C696 C697 1.363 . S
C696 C701 1.379 . S
C696 N703 1.356 . S
C697 C696 1.363 . S
C697 C700 1.363 . S
N698 C700 1.356 . S
N698 H710 0.984 . S
N698 H711 0.985 . S
N699 C701 1.356 . S
N699 H704 0.984 . S
N699 H705 0.985 . S
C700 C694 1.379 . S
C700 C697 1.363 . S
C700 N698 1.356 . S
C701 C695 1.363 . S
C701 C696 1.379 . S
C701 N699 1.356 . S
N702 C694 1.356 . S
N702 H708 0.984 . S
N702 H709 0.984 . S
N703 C696 1.356 . S
N703 H706 0.984 . S
N703 H707 0.985 . S
H704 N699 0.984 . S
H705 N699 0.985 . S
H706 N703 0.984 . S
H707 N703 0.985 . S
H708 N702 0.984 . S
H709 N702 0.984 . S
H710 N698 0.984 . S
H711 N698 0.985 . S
C712 C713 1.363 . S
C712 C718 1.379 . S
C712 N720 1.356 . S
C713 C712 1.363 . S
C713 C719 1.363 . S
C714 C715 1.363 . S
C714 C719 1.379 . S
C714 N721 1.356 . S
C715 C714 1.363 . S
C715 C718 1.363 . S
N716 C718 1.356 . S
N716 H728 0.984 . S
N716 H729 0.985 . S
N717 C719 1.356 . S
N717 H722 0.984 . S
N717 H723 0.985 . S
C718 C712 1.379 . S
C718 C715 1.363 . S
C718 N716 1.356 . S
C719 C713 1.363 . S
C719 C714 1.379 . S
C719 N717 1.356 . S
N720 C712 1.356 . S
N720 H726 0.984 . S
N720 H727 0.984 . S
N721 C714 1.356 . S
N721 H724 0.984 . S
N721 H725 0.985 . S
H722 N717 0.984 . S
H723 N717 0.985 . S
H724 N721 0.984 . S
H725 N721 0.985 . S
H726 N720 0.984 . S
H727 N720 0.984 . S
H728 N716 0.984 . S
H729 N716 0.985 . S
C730 C731 1.363 . S
C730 C736 1.379 . S
C730 N738 1.356 . S
C731 C730 1.363 . S
C731 C737 1.363 . S
C732 C733 1.363 . S
C732 C737 1.379 . S
C732 N739 1.356 . S
C733 C732 1.363 . S
C733 C736 1.363 . S
N734 C736 1.356 . S
N734 H746 0.984 . S
N734 H747 0.985 . S
N735 C737 1.356 . S
N735 H740 0.984 . S
N735 H741 0.985 . S
C736 C730 1.379 . S
C736 C733 1.363 . S
C736 N734 1.356 . S
C737 C731 1.363 . S
C737 C732 1.379 . S
C737 N735 1.356 . S
N738 C730 1.356 . S
N738 H744 0.984 . S
N738 H745 0.984 . S
N739 C732 1.356 . S
N739 H742 0.984 . S
N739 H743 0.985 . S
H740 N735 0.984 . S
H741 N735 0.985 . S
H742 N739 0.984 . S
H743 N739 0.985 . S
H744 N738 0.984 . S
H745 N738 0.984 . S
H746 N734 0.984 . S
H747 N734 0.985 . S
C748 C749 1.363 . S
C748 C754 1.379 . S
C748 N756 1.356 . S
C749 C748 1.363 . S
C749 C755 1.363 . S
C750 C751 1.363 . S
C750 C755 1.379 . S
C750 N757 1.356 . S
C751 C750 1.363 . S
C751 C754 1.363 . S
N752 C754 1.356 . S
N752 H764 0.984 . S
N752 H765 0.985 . S
N753 C755 1.356 . S
N753 H758 0.984 . S
N753 H759 0.985 . S
C754 C748 1.379 . S
C754 C751 1.363 . S
C754 N752 1.356 . S
C755 C749 1.363 . S
C755 C750 1.379 . S
C755 N753 1.356 . S
N756 C748 1.356 . S
N756 H762 0.984 . S
N756 H763 0.984 . S
N757 C750 1.356 . S
N757 H760 0.984 . S
N757 H761 0.985 . S
H758 N753 0.984 . S
H759 N753 0.985 . S
H760 N757 0.984 . S
H761 N757 0.985 . S
H762 N756 0.984 . S
H763 N756 0.984 . S
H764 N752 0.984 . S
H765 N752 0.985 . S
C766 C767 1.363 . S
C766 C772 1.379 . S
C766 N774 1.356 . S
C767 C766 1.363 . S
C767 C773 1.363 . S
C768 C769 1.363 . S
C768 C773 1.379 . S
C768 N775 1.356 . S
C769 C768 1.363 . S
C769 C772 1.363 . S
N770 C772 1.356 . S
N770 H782 0.984 . S
N770 H783 0.985 . S
N771 C773 1.356 . S
N771 H776 0.984 . S
N771 H777 0.985 . S
C772 C766 1.379 . S
C772 C769 1.363 . S
C772 N770 1.356 . S
C773 C767 1.363 . S
C773 C768 1.379 . S
C773 N771 1.356 . S
N774 C766 1.356 . S
N774 H780 0.984 . S
N774 H781 0.984 . S
N775 C768 1.356 . S
N775 H778 0.984 . S
N775 H779 0.985 . S
H776 N771 0.984 . S
H777 N771 0.985 . S
H778 N775 0.984 . S
H779 N775 0.985 . S
H780 N774 0.984 . S
H781 N774 0.984 . S
H782 N770 0.984 . S
H783 N770 0.985 . S
C209 C0 1.239 . S
C211 C169 1.239 . S
C227 C143 1.238 . S
C229 C13 1.238 . S
C245 C156 1.238 . S
C247 C26 1.238 . S
C263 C130 1.238 . S
C265 C39 1.238 . S
C281 C52 1.239 . S
C283 C195 1.239 . S
C299 C65 1.238 . S
C301 C117 1.238 . S
C317 C182 1.238 . S
C319 C78 1.238 . S
C335 C91 1.238 . S
C337 C104 1.238 . S
C353 C60 1.539 . S
C355 C8 1.539 . S
C371 C21 1.539 . S
C373 C73 1.539 . S
C389 C34 1.539 . S
C391 C86 1.539 . S
C407 C99 1.539 . S
C409 C47 1.539 . S
C425 C112 1.539 . S
C427 C138 1.539 . S
C443 C125 1.539 . S
C445 C151 1.539 . S
C461 C190 1.539 . S
C463 C164 1.539 . S
C479 C177 1.539 . S
C481 C203 1.539 . S
C497 C70 1.311 . S
C499 C5 1.311 . S
C515 C18 1.311 . S
C517 C83 1.311 . S
C533 C31 1.311 . S
C535 C96 1.311 . S
C551 C57 1.311 . S
C553 C44 1.311 . S
C569 C62 1.356 . S
C571 C140 1.356 . S
C587 C36 1.356 . S
C589 C114 1.356 . S
C605 C153 1.356 . S
C607 C88 1.356 . S
C623 C127 1.356 . S
C625 C10 1.356 . S
C641 C109 1.311 . S
C643 C161 1.311 . S
C659 C135 1.311 . S
C661 C200 1.311 . S
C677 C174 1.311 . S
C679 C122 1.311 . S
C695 C148 1.311 . S
C697 C187 1.311 . S
C713 C192 1.356 . S
C715 C23 1.356 . S
C731 C179 1.356 . S
C733 C75 1.356 . S
C749 C205 1.356 . S
C751 C49 1.356 . S
C767 C166 1.356 . S
C769 C101 1.356 . S
