# Generated by pormake.
# Topology vda, (6)-cn, num edge types: 1
# Building blocks:
#     Node 0, Type 0, BuildingBlock: VOLQOD_clean_sbu_1, # of connection points: 6
#     Node 1, Type 0, BuildingBlock: VOLQOD_clean_sbu_1, # of connection points: 6
#     Node 2, Type 0, BuildingBlock: VOLQOD_clean_sbu_1, # of connection points: 6
#     Node 3, Type 0, BuildingBlock: VOLQOD_clean_sbu_1, # of connection points: 6
#     Node 4, Type 0, BuildingBlock: VOLQOD_clean_sbu_1, # of connection points: 6
#     Node 5, Type 0, BuildingBlock: VOLQOD_clean_sbu_1, # of connection points: 6
#     Node 6, Type 0, BuildingBlock: VOLQOD_clean_sbu_1, # of connection points: 6
#     Node 7, Type 0, BuildingBlock: VOLQOD_clean_sbu_1, # of connection points: 6
#     Node 8, Type 0, BuildingBlock: VOLQOD_clean_sbu_1, # of connection points: 6
#     Node 9, Type 0, BuildingBlock: VOLQOD_clean_sbu_1, # of connection points: 6
#     Node 10, Type 0, BuildingBlock: VOLQOD_clean_sbu_1, # of connection points: 6
#     Node 11, Type 0, BuildingBlock: VOLQOD_clean_sbu_1, # of connection points: 6
#     Node 12, Type 0, BuildingBlock: VOLQOD_clean_sbu_1, # of connection points: 6
#     Node 13, Type 0, BuildingBlock: VOLQOD_clean_sbu_1, # of connection points: 6
#     Node 14, Type 0, BuildingBlock: VOLQOD_clean_sbu_1, # of connection points: 6
#     Node 15, Type 0, BuildingBlock: VOLQOD_clean_sbu_1, # of connection points: 6
#     Node 16, Type 0, BuildingBlock: VOLQOD_clean_sbu_1, # of connection points: 6
#     Node 17, Type 0, BuildingBlock: VOLQOD_clean_sbu_1, # of connection points: 6
#     Node 18, Type 0, BuildingBlock: VOLQOD_clean_sbu_1, # of connection points: 6
#     Node 19, Type 0, BuildingBlock: VOLQOD_clean_sbu_1, # of connection points: 6
#     Node 20, Type 0, BuildingBlock: VOLQOD_clean_sbu_1, # of connection points: 6
#     Node 21, Type 0, BuildingBlock: VOLQOD_clean_sbu_1, # of connection points: 6
#     Node 22, Type 0, BuildingBlock: VOLQOD_clean_sbu_1, # of connection points: 6
#     Node 23, Type 0, BuildingBlock: VOLQOD_clean_sbu_1, # of connection points: 6
#     Node 24, Type 0, BuildingBlock: VOLQOD_clean_sbu_1, # of connection points: 6
#     Node 25, Type 0, BuildingBlock: VOLQOD_clean_sbu_1, # of connection points: 6
#     Node 26, Type 0, BuildingBlock: VOLQOD_clean_sbu_1, # of connection points: 6
#     Node 27, Type 0, BuildingBlock: VOLQOD_clean_sbu_1, # of connection points: 6
#     Node 28, Type 0, BuildingBlock: VOLQOD_clean_sbu_1, # of connection points: 6
#     Node 29, Type 0, BuildingBlock: VOLQOD_clean_sbu_1, # of connection points: 6
#     Node 30, Type 0, BuildingBlock: VOLQOD_clean_sbu_1, # of connection points: 6
#     Node 31, Type 0, BuildingBlock: VOLQOD_clean_sbu_1, # of connection points: 6
#     Edge 32, Type (0, 0), BuildingBlock: XIVTED_clean_linker_0, # of connection points: 2
#     Edge 33, Type (0, 0), BuildingBlock: XIVTED_clean_linker_0, # of connection points: 2
#     Edge 34, Type (0, 0), BuildingBlock: XIVTED_clean_linker_0, # of connection points: 2
#     Edge 35, Type (0, 0), BuildingBlock: XIVTED_clean_linker_0, # of connection points: 2
#     Edge 36, Type (0, 0), BuildingBlock: XIVTED_clean_linker_0, # of connection points: 2
#     Edge 37, Type (0, 0), BuildingBlock: XIVTED_clean_linker_0, # of connection points: 2
#     Edge 38, Type (0, 0), BuildingBlock: XIVTED_clean_linker_0, # of connection points: 2
#     Edge 39, Type (0, 0), BuildingBlock: XIVTED_clean_linker_0, # of connection points: 2
#     Edge 40, Type (0, 0), BuildingBlock: XIVTED_clean_linker_0, # of connection points: 2
#     Edge 41, Type (0, 0), BuildingBlock: XIVTED_clean_linker_0, # of connection points: 2
#     Edge 42, Type (0, 0), BuildingBlock: XIVTED_clean_linker_0, # of connection points: 2
#     Edge 43, Type (0, 0), BuildingBlock: XIVTED_clean_linker_0, # of connection points: 2
#     Edge 44, Type (0, 0), BuildingBlock: XIVTED_clean_linker_0, # of connection points: 2
#     Edge 45, Type (0, 0), BuildingBlock: XIVTED_clean_linker_0, # of connection points: 2
#     Edge 46, Type (0, 0), BuildingBlock: XIVTED_clean_linker_0, # of connection points: 2
#     Edge 47, Type (0, 0), BuildingBlock: XIVTED_clean_linker_0, # of connection points: 2
#     Edge 48, Type (0, 0), BuildingBlock: XIVTED_clean_linker_0, # of connection points: 2
#     Edge 49, Type (0, 0), BuildingBlock: XIVTED_clean_linker_0, # of connection points: 2
#     Edge 50, Type (0, 0), BuildingBlock: XIVTED_clean_linker_0, # of connection points: 2
#     Edge 51, Type (0, 0), BuildingBlock: XIVTED_clean_linker_0, # of connection points: 2
#     Edge 52, Type (0, 0), BuildingBlock: XIVTED_clean_linker_0, # of connection points: 2
#     Edge 53, Type (0, 0), BuildingBlock: XIVTED_clean_linker_0, # of connection points: 2
#     Edge 54, Type (0, 0), BuildingBlock: XIVTED_clean_linker_0, # of connection points: 2
#     Edge 55, Type (0, 0), BuildingBlock: XIVTED_clean_linker_0, # of connection points: 2
#     Edge 56, Type (0, 0), BuildingBlock: XIVTED_clean_linker_0, # of connection points: 2
#     Edge 57, Type (0, 0), BuildingBlock: XIVTED_clean_linker_0, # of connection points: 2
#     Edge 58, Type (0, 0), BuildingBlock: XIVTED_clean_linker_0, # of connection points: 2
#     Edge 59, Type (0, 0), BuildingBlock: XIVTED_clean_linker_0, # of connection points: 2
#     Edge 60, Type (0, 0), BuildingBlock: XIVTED_clean_linker_0, # of connection points: 2
#     Edge 61, Type (0, 0), BuildingBlock: XIVTED_clean_linker_0, # of connection points: 2
#     Edge 62, Type (0, 0), BuildingBlock: XIVTED_clean_linker_0, # of connection points: 2
#     Edge 63, Type (0, 0), BuildingBlock: XIVTED_clean_linker_0, # of connection points: 2
#     Edge 64, Type (0, 0), BuildingBlock: XIVTED_clean_linker_0, # of connection points: 2
#     Edge 65, Type (0, 0), BuildingBlock: XIVTED_clean_linker_0, # of connection points: 2
#     Edge 66, Type (0, 0), BuildingBlock: XIVTED_clean_linker_0, # of connection points: 2
#     Edge 67, Type (0, 0), BuildingBlock: XIVTED_clean_linker_0, # of connection points: 2
#     Edge 68, Type (0, 0), BuildingBlock: XIVTED_clean_linker_0, # of connection points: 2
#     Edge 69, Type (0, 0), BuildingBlock: XIVTED_clean_linker_0, # of connection points: 2
#     Edge 70, Type (0, 0), BuildingBlock: XIVTED_clean_linker_0, # of connection points: 2
#     Edge 71, Type (0, 0), BuildingBlock: XIVTED_clean_linker_0, # of connection points: 2
#     Edge 72, Type (0, 0), BuildingBlock: XIVTED_clean_linker_0, # of connection points: 2
#     Edge 73, Type (0, 0), BuildingBlock: XIVTED_clean_linker_0, # of connection points: 2
#     Edge 74, Type (0, 0), BuildingBlock: XIVTED_clean_linker_0, # of connection points: 2
#     Edge 75, Type (0, 0), BuildingBlock: XIVTED_clean_linker_0, # of connection points: 2
#     Edge 76, Type (0, 0), BuildingBlock: XIVTED_clean_linker_0, # of connection points: 2
#     Edge 77, Type (0, 0), BuildingBlock: XIVTED_clean_linker_0, # of connection points: 2
#     Edge 78, Type (0, 0), BuildingBlock: XIVTED_clean_linker_0, # of connection points: 2
#     Edge 79, Type (0, 0), BuildingBlock: XIVTED_clean_linker_0, # of connection points: 2
#     Edge 80, Type (0, 0), BuildingBlock: XIVTED_clean_linker_0, # of connection points: 2
#     Edge 81, Type (0, 0), BuildingBlock: XIVTED_clean_linker_0, # of connection points: 2
#     Edge 82, Type (0, 0), BuildingBlock: XIVTED_clean_linker_0, # of connection points: 2
#     Edge 83, Type (0, 0), BuildingBlock: XIVTED_clean_linker_0, # of connection points: 2
#     Edge 84, Type (0, 0), BuildingBlock: XIVTED_clean_linker_0, # of connection points: 2
#     Edge 85, Type (0, 0), BuildingBlock: XIVTED_clean_linker_0, # of connection points: 2
#     Edge 86, Type (0, 0), BuildingBlock: XIVTED_clean_linker_0, # of connection points: 2
#     Edge 87, Type (0, 0), BuildingBlock: XIVTED_clean_linker_0, # of connection points: 2
#     Edge 88, Type (0, 0), BuildingBlock: XIVTED_clean_linker_0, # of connection points: 2
#     Edge 89, Type (0, 0), BuildingBlock: XIVTED_clean_linker_0, # of connection points: 2
#     Edge 90, Type (0, 0), BuildingBlock: XIVTED_clean_linker_0, # of connection points: 2
#     Edge 91, Type (0, 0), BuildingBlock: XIVTED_clean_linker_0, # of connection points: 2
#     Edge 92, Type (0, 0), BuildingBlock: XIVTED_clean_linker_0, # of connection points: 2
#     Edge 93, Type (0, 0), BuildingBlock: XIVTED_clean_linker_0, # of connection points: 2
#     Edge 94, Type (0, 0), BuildingBlock: XIVTED_clean_linker_0, # of connection points: 2
#     Edge 95, Type (0, 0), BuildingBlock: XIVTED_clean_linker_0, # of connection points: 2
#     Edge 96, Type (0, 0), BuildingBlock: XIVTED_clean_linker_0, # of connection points: 2
#     Edge 97, Type (0, 0), BuildingBlock: XIVTED_clean_linker_0, # of connection points: 2
#     Edge 98, Type (0, 0), BuildingBlock: XIVTED_clean_linker_0, # of connection points: 2
#     Edge 99, Type (0, 0), BuildingBlock: XIVTED_clean_linker_0, # of connection points: 2
#     Edge 100, Type (0, 0), BuildingBlock: XIVTED_clean_linker_0, # of connection points: 2
#     Edge 101, Type (0, 0), BuildingBlock: XIVTED_clean_linker_0, # of connection points: 2
#     Edge 102, Type (0, 0), BuildingBlock: XIVTED_clean_linker_0, # of connection points: 2
#     Edge 103, Type (0, 0), BuildingBlock: XIVTED_clean_linker_0, # of connection points: 2
#     Edge 104, Type (0, 0), BuildingBlock: XIVTED_clean_linker_0, # of connection points: 2
#     Edge 105, Type (0, 0), BuildingBlock: XIVTED_clean_linker_0, # of connection points: 2
#     Edge 106, Type (0, 0), BuildingBlock: XIVTED_clean_linker_0, # of connection points: 2
#     Edge 107, Type (0, 0), BuildingBlock: XIVTED_clean_linker_0, # of connection points: 2
#     Edge 108, Type (0, 0), BuildingBlock: XIVTED_clean_linker_0, # of connection points: 2
#     Edge 109, Type (0, 0), BuildingBlock: XIVTED_clean_linker_0, # of connection points: 2
#     Edge 110, Type (0, 0), BuildingBlock: XIVTED_clean_linker_0, # of connection points: 2
#     Edge 111, Type (0, 0), BuildingBlock: XIVTED_clean_linker_0, # of connection points: 2
#     Edge 112, Type (0, 0), BuildingBlock: XIVTED_clean_linker_0, # of connection points: 2
#     Edge 113, Type (0, 0), BuildingBlock: XIVTED_clean_linker_0, # of connection points: 2
#     Edge 114, Type (0, 0), BuildingBlock: XIVTED_clean_linker_0, # of connection points: 2
#     Edge 115, Type (0, 0), BuildingBlock: XIVTED_clean_linker_0, # of connection points: 2
#     Edge 116, Type (0, 0), BuildingBlock: XIVTED_clean_linker_0, # of connection points: 2
#     Edge 117, Type (0, 0), BuildingBlock: XIVTED_clean_linker_0, # of connection points: 2
#     Edge 118, Type (0, 0), BuildingBlock: XIVTED_clean_linker_0, # of connection points: 2
#     Edge 119, Type (0, 0), BuildingBlock: XIVTED_clean_linker_0, # of connection points: 2
#     Edge 120, Type (0, 0), BuildingBlock: XIVTED_clean_linker_0, # of connection points: 2
#     Edge 121, Type (0, 0), BuildingBlock: XIVTED_clean_linker_0, # of connection points: 2
#     Edge 122, Type (0, 0), BuildingBlock: XIVTED_clean_linker_0, # of connection points: 2
#     Edge 123, Type (0, 0), BuildingBlock: XIVTED_clean_linker_0, # of connection points: 2
#     Edge 124, Type (0, 0), BuildingBlock: XIVTED_clean_linker_0, # of connection points: 2
#     Edge 125, Type (0, 0), BuildingBlock: XIVTED_clean_linker_0, # of connection points: 2
#     Edge 126, Type (0, 0), BuildingBlock: XIVTED_clean_linker_0, # of connection points: 2
#     Edge 127, Type (0, 0), BuildingBlock: XIVTED_clean_linker_0, # of connection points: 2
# Relax obj value: 0.526
# Max RMSD: 0.261
# Mean RMSD: 0.261
data_MOF--net-vda--node1-VOLQOD_clean_sbu_1--edge1-XIVTED_clean_linker_0
_symmetry_space_group_name_H-M    P1
_symmetry_Int_Tables_number       1
_symmetry_cell_setting            triclinic
loop_
_symmetry_equiv_pos_as_xyz
'x, y, z'
_cell_length_a     47.888775
_cell_length_b     37.560281
_cell_length_c     67.975303
_cell_angle_alpha  90.037799
_cell_angle_beta   89.964935
_cell_angle_gamma 90.005401
loop_
_atom_site_label
_atom_site_type_symbol
_atom_site_fract_x
_atom_site_fract_y
_atom_site_fract_z
_atom_type_partial_charge
O0 O 0.34773 0.01394 0.97335 0.0
Zn1 Zn 0.36487 0.06198 0.9704 0.0
O2 O 0.35154 0.09662 -0.01109 0.0
Zn3 Zn 0.33134 0.13339 0.97405 0.0
Zn4 Zn 0.32915 0.06898 0.00698 0.0
Zn5 Zn 0.38202 0.11601 0.00408 0.0
O6 O 0.3467 0.18317 0.98222 0.0
O7 O 0.38654 0.16693 -0.00313 0.0
O8 O 0.36183 0.07799 0.94297 0.0
O9 O 0.341 0.13056 0.94449 0.0
O10 O 0.28873 0.1226 0.97788 0.0
O11 O 0.28937 0.07713 -0.00074 0.0
O12 O 0.33429 0.08462 0.03517 0.0
O13 O 0.40505 0.05362 0.9749 0.0
O14 O 0.3728 0.11719 0.03291 0.0
O15 O 0.41792 0.08805 -0.00013 0.0
C16 C 0.34461 0.99837 -0.01021 0.0
C17 C 0.37055 0.19076 -0.01024 0.0
C18 C 0.27614 0.09869 0.98814 0.0
C19 C 0.353 0.106 0.93463 0.0
C20 C 0.35306 0.1039 0.04305 0.0
C21 C 0.4234 0.0644 0.98697 0.0
O22 O 0.33978 0.01639 0.00532 0.0
O23 O 0.93376 0.23867 0.97019 0.0
Zn24 Zn 0.91293 0.19289 0.96831 0.0
O25 O 0.92551 0.15666 0.98595 0.0
Zn26 Zn 0.94525 0.12043 0.9705 0.0
Zn27 Zn 0.94806 0.18394 0.00393 0.0
Zn28 Zn 0.89487 0.137 0.00081 0.0
O29 O 0.93048 0.07035 0.97875 0.0
O30 O 0.89054 0.08616 -0.00654 0.0
O31 O 0.91239 0.17618 0.94089 0.0
O32 O 0.93405 0.12404 0.94122 0.0
O33 O 0.98791 0.13151 0.97377 0.0
O34 O 0.98766 0.17578 -0.00405 0.0
O35 O 0.94296 0.16778 0.03186 0.0
O36 O 0.87414 0.20554 0.97509 0.0
O37 O 0.90403 0.13591 0.02981 0.0
O38 O 0.85898 0.16485 -0.0037 0.0
C39 C 0.9351 0.25464 0.98663 0.0
C40 C 0.90667 0.06252 0.9863 0.0
C41 C 1.00068 0.1548 0.98436 0.0
C42 C 0.92082 0.14843 0.93204 0.0
C43 C 0.92408 0.14881 0.03984 0.0
C44 C 0.855 0.19256 0.98583 0.0
O45 O 0.93771 0.23672 0.00243 0.0
O46 O 0.35392 0.2395 0.25764 0.0
Zn47 Zn 0.36691 0.18966 0.26117 0.0
O48 O 0.35201 0.15698 0.24212 0.0
Zn49 Zn 0.33059 0.12037 0.25645 0.0
Zn50 Zn 0.33036 0.18595 0.22411 0.0
Zn51 Zn 0.38195 0.13665 0.22676 0.0
O52 O 0.34526 0.0702 0.24833 0.0
O53 O 0.3852 0.08555 0.23353 0.0
O54 O 0.3604 0.17467 0.2885 0.0
O55 O 0.33878 0.12265 0.28623 0.0
O56 O 0.2883 0.13214 0.25202 0.0
O57 O 0.2903 0.17837 0.23122 0.0
O58 O 0.33566 0.17126 0.19576 0.0
O59 O 0.40791 0.19336 0.25812 0.0
O60 O 0.37304 0.13664 0.19791 0.0
O61 O 0.41866 0.16227 0.23137 0.0
C62 C 0.34828 0.25566 0.24172 0.0
C63 C 0.36891 0.06208 0.24063 0.0
C64 C 0.27639 0.1567 0.24185 0.0
C65 C 0.35028 0.14703 0.29649 0.0
C66 C 0.3539 0.15126 0.18779 0.0
C67 C 0.42555 0.18299 0.24541 0.0
O68 O 0.34109 0.23844 0.22637 0.0
O69 O 0.88843 0.02754 0.2475 0.0
Zn70 Zn 0.89101 0.07824 0.2559 0.0
O71 O 0.91554 0.10418 0.23896 0.0
Zn72 Zn 0.93709 0.13735 0.25534 0.0
Zn73 Zn 0.93734 0.07123 0.22315 0.0
Zn74 Zn 0.89017 0.12746 0.22131 0.0
O75 O 0.92408 0.18914 0.24884 0.0
O76 O 0.88791 0.17821 0.22891 0.0
O77 O 0.90136 0.08166 0.28399 0.0
O78 O 0.92717 0.1307 0.28461 0.0
O79 O 0.97934 0.12403 0.25172 0.0
O80 O 0.97703 0.0764 0.23187 0.0
O81 O 0.93604 0.08393 0.19402 0.0
O82 O 0.85223 0.09667 0.2543 0.0
O83 O 0.9041 0.12671 0.19375 0.0
O84 O 0.85204 0.10385 0.22218 0.0
C85 C 0.90238 0.00796 0.23582 0.0
C86 C 0.90284 0.19968 0.23888 0.0
C87 C 0.99102 0.09816 0.24241 0.0
C88 C 0.9138 0.10608 0.2935 0.0
C89 C 0.922 0.10755 0.18491 0.0
C90 C 0.83921 0.0966 0.23808 0.0
O91 O 0.92303 0.02016 0.22604 0.0
O92 O 0.66357 0.98479 0.97502 0.0
Zn93 Zn 0.65741 0.93294 0.97047 0.0
O94 O 0.67416 0.90434 -0.00892 0.0
Zn95 Zn 0.6988 0.86838 0.97941 0.0
Zn96 Zn 0.69316 0.93589 0.00939 0.0
Zn97 Zn 0.64456 0.8815 0.00536 0.0
O98 O 0.68292 0.81734 0.98398 0.0
O99 O 0.64181 0.83075 -0.00243 0.0
O100 O 0.67136 0.91993 0.94376 0.0
O101 O 0.69867 0.87352 0.94991 0.0
O102 O 0.73957 0.87996 0.98726 0.0
O103 O 0.7344 0.92952 0.00518 0.0
O104 O 0.68365 0.92433 0.03766 0.0
O105 O 0.61569 0.92995 0.97102 0.0
O106 O 0.65106 0.88277 0.03426 0.0
O107 O 0.60812 0.90621 0.0004 0.0
C108 C 0.67106 1.00273 -0.01002 0.0
C109 C 0.65863 0.80825 -0.00983 0.0
C110 C 0.74989 0.90649 -0.00331 0.0
C111 C 0.68744 0.89518 0.9379 0.0
C112 C 0.66667 0.90192 0.04504 0.0
C113 C 0.59942 0.92269 0.98526 0.0
O114 O 0.68178 0.98756 0.00496 0.0
O115 O 0.09815 0.76799 0.97461 0.0
Zn116 Zn 0.11104 0.81781 0.96998 0.0
O117 O 0.09914 0.85083 -0.0097 0.0
Zn118 Zn 0.07485 0.88747 0.97901 0.0
Zn119 Zn 0.08087 0.82194 0.01009 0.0
Zn120 Zn 0.13115 0.87297 0.00234 0.0
O121 O 0.09162 0.93828 0.98324 0.0
O122 O 0.13381 0.92365 -0.00546 0.0
O123 O 0.09861 0.83297 0.94329 0.0
O124 O 0.07396 0.88177 0.94953 0.0
O125 O 0.03431 0.87718 0.98783 0.0
O126 O 0.03951 0.82923 0.00702 0.0
O127 O 0.09279 0.83569 0.03744 0.0
O128 O 0.15247 0.81196 0.97069 0.0
O129 O 0.12827 0.87231 0.03169 0.0
O130 O 0.16637 0.8474 -0.00505 0.0
C131 C 0.09576 0.7521 -0.00897 0.0
C132 C 0.1166 0.94671 0.98822 0.0
C133 C 0.02402 0.85188 -0.00177 0.0
C134 C 0.08388 0.85908 0.93748 0.0
C135 C 0.11218 0.85607 0.04355 0.0
C136 C 0.17151 0.82401 0.98189 0.0
O137 O 0.09122 0.76961 0.00677 0.0
O138 O 0.67547 0.7679 0.75522 0.0
Zn139 Zn 0.6614 0.81689 0.76104 0.0
O140 O 0.67024 0.85107 0.74056 0.0
Zn141 Zn 0.69391 0.889 0.75111 0.0
Zn142 Zn 0.68866 0.82406 0.72019 0.0
Zn143 Zn 0.63651 0.87043 0.72946 0.0
O144 O 0.67627 0.93884 0.74573 0.0
O145 O 0.63406 0.92213 0.7353 0.0
O146 O 0.67507 0.83293 0.78734 0.0
O147 O 0.69481 0.8851 0.78067 0.0
O148 O 0.73469 0.87923 0.74249 0.0
O149 O 0.72988 0.83133 0.72325 0.0
O150 O 0.6765 0.83955 0.69321 0.0
O151 O 0.62013 0.80907 0.76233 0.0
O152 O 0.6362 0.86593 0.7001 0.0
O153 O 0.60263 0.84541 0.73972 0.0
C154 C 0.67603 0.75301 0.73842 0.0
C155 C 0.65111 0.94619 0.74067 0.0
C156 C 0.74521 0.85404 0.7321 0.0
C157 C 0.6874 0.86121 0.79289 0.0
C158 C 0.65396 0.85448 0.6877 0.0
C159 C 0.59951 0.82146 0.75276 0.0
O160 O 0.67864 0.77152 0.72281 0.0
O161 O 0.09774 0.98877 0.75652 0.0
Zn162 Zn 0.10909 0.93832 0.76125 0.0
O163 O 0.09741 0.90643 0.74038 0.0
Zn164 Zn 0.07281 0.86951 0.75103 0.0
Zn165 Zn 0.07984 0.93569 0.72045 0.0
Zn166 Zn 0.12969 0.88468 0.72864 0.0
O167 O 0.0896 0.81902 0.74625 0.0
O168 O 0.13271 0.83405 0.73685 0.0
O169 O 0.09504 0.92307 0.78742 0.0
O170 O 0.07133 0.87374 0.78065 0.0
O171 O 0.03252 0.88033 0.74188 0.0
O172 O 0.03845 0.92827 0.72281 0.0
O173 O 0.09295 0.92293 0.69314 0.0
O174 O 0.15065 0.94249 0.762 0.0
O175 O 0.12743 0.88507 0.69932 0.0
O176 O 0.16425 0.91176 0.73581 0.0
C177 C 0.09439 0.00505 0.7403 0.0
C178 C 0.115 0.81081 0.74229 0.0
C179 C 0.02261 0.90574 0.73139 0.0
C180 C 0.08055 0.89653 0.79291 0.0
C181 C 0.11221 0.90212 0.68725 0.0
C182 C 0.16952 0.93298 0.74993 0.0
O183 O 0.08943 0.98799 0.72448 0.0
O184 O 0.34948 0.51113 0.47436 0.0
Zn185 Zn 0.36491 0.55986 0.47038 0.0
O186 O 0.35228 0.59413 0.48947 0.0
Zn187 Zn 0.3319 0.63152 0.47521 0.0
Zn188 Zn 0.32984 0.56696 0.50767 0.0
Zn189 Zn 0.38329 0.61238 0.50459 0.0
O190 O 0.34742 0.68095 0.48376 0.0
O191 O 0.38664 0.66421 0.49905 0.0
O192 O 0.35912 0.57541 0.44296 0.0
O193 O 0.34084 0.62941 0.44558 0.0
O194 O 0.2893 0.62081 0.4791 0.0
O195 O 0.29005 0.5748 0.50008 0.0
O196 O 0.33502 0.58324 0.53575 0.0
O197 O 0.40569 0.55292 0.47312 0.0
O198 O 0.37646 0.60922 0.53374 0.0
O199 O 0.41917 0.58639 0.49831 0.0
C200 C 0.34602 0.49594 0.49089 0.0
C201 C 0.37087 0.68831 0.49196 0.0
C202 C 0.27675 0.59662 0.48917 0.0
C203 C 0.35095 0.60426 0.43515 0.0
C204 C 0.35576 0.59851 0.54388 0.0
C205 C 0.42448 0.56382 0.48482 0.0
O206 O 0.34057 0.51425 0.50623 0.0
O207 O 0.913 0.73396 0.47176 0.0
Zn208 Zn 0.90437 0.68277 0.46758 0.0
O209 O 0.92125 0.65223 0.4869 0.0
Zn210 Zn 0.9435 0.61575 0.47302 0.0
Zn211 Zn 0.9427 0.68275 0.50434 0.0
Zn212 Zn 0.89213 0.63132 0.50277 0.0
O213 O 0.92912 0.56532 0.48095 0.0
O214 O 0.88953 0.58 0.49639 0.0
O215 O 0.91382 0.66932 0.44039 0.0
O216 O 0.93655 0.61809 0.44318 0.0
O217 O 0.98562 0.62789 0.47786 0.0
O218 O 0.98288 0.67574 0.49747 0.0
O219 O 0.93795 0.66911 0.53281 0.0
O220 O 0.86303 0.6815 0.46959 0.0
O221 O 0.9016 0.63262 0.53147 0.0
O222 O 0.85481 0.65538 0.49829 0.0
C223 C 0.92092 0.75103 0.4869 0.0
C224 C 0.90581 0.5568 0.489 0.0
C225 C 0.99716 0.65341 0.48751 0.0
C226 C 0.92525 0.64224 0.43268 0.0
C227 C 0.92048 0.64859 0.5412 0.0
C228 C 0.8464 0.67263 0.48329 0.0
O229 O 0.93133 0.73491 0.50167 0.0
O230 O 0.33748 0.74081 0.7563 0.0
Zn231 Zn 0.35736 0.69492 0.76077 0.0
O232 O 0.34708 0.65777 0.74281 0.0
Zn233 Zn 0.32712 0.62114 0.75773 0.0
Zn234 Zn 0.32478 0.68277 0.72383 0.0
Zn235 Zn 0.37912 0.63955 0.72883 0.0
O236 O 0.34263 0.57147 0.74954 0.0
O237 O 0.38257 0.58799 0.73505 0.0
O238 O 0.35391 0.68004 0.78856 0.0
O239 O 0.33676 0.62523 0.78718 0.0
O240 O 0.28446 0.63153 0.7539 0.0
O241 O 0.28502 0.67517 0.73143 0.0
O242 O 0.33087 0.66409 0.69649 0.0
O243 O 0.39718 0.70674 0.75672 0.0
O244 O 0.37334 0.64114 0.69933 0.0
O245 O 0.41438 0.66658 0.73596 0.0
C246 C 0.337 0.75508 0.73937 0.0
C247 C 0.36646 0.56402 0.7419 0.0
C248 C 0.27181 0.65453 0.74307 0.0
C249 C 0.34674 0.65129 0.79698 0.0
C250 C 0.35232 0.64964 0.68884 0.0
C251 C 0.41744 0.69371 0.74704 0.0
O252 O 0.33499 0.73565 0.72405 0.0
O253 O 0.91434 0.52232 0.75851 0.0
Zn254 Zn 0.90008 0.57232 0.75916 0.0
O255 O 0.91742 0.60322 0.7403 0.0
Zn256 Zn 0.93897 0.63958 0.75472 0.0
Zn257 Zn 0.93966 0.57244 0.72371 0.0
Zn258 Zn 0.88891 0.62386 0.72367 0.0
O259 O 0.92486 0.68981 0.74619 0.0
O260 O 0.8857 0.67512 0.73019 0.0
O261 O 0.90045 0.59244 0.78588 0.0
O262 O 0.92936 0.63852 0.78422 0.0
O263 O 0.98132 0.62765 0.75106 0.0
O264 O 0.97957 0.58001 0.73123 0.0
O265 O 0.93579 0.58472 0.69487 0.0
O266 O 0.86032 0.56673 0.75299 0.0
O267 O 0.90036 0.62275 0.69542 0.0
O268 O 0.85138 0.59889 0.72639 0.0
C269 C 0.92018 0.50479 0.74302 0.0
C270 C 0.90176 0.69831 0.73783 0.0
C271 C 0.99333 0.60232 0.74155 0.0
C272 C 0.91263 0.61868 0.79388 0.0
C273 C 0.91919 0.60588 0.6861 0.0
C274 C 0.84363 0.57731 0.73977 0.0
O275 O 0.92816 0.52069 0.72742 0.0
O276 O 0.66427 0.48307 0.47382 0.0
Zn277 Zn 0.65835 0.43147 0.46843 0.0
O278 O 0.67338 0.40181 0.48926 0.0
Zn279 Zn 0.69804 0.36542 0.4779 0.0
Zn280 Zn 0.69194 0.43253 0.50828 0.0
Zn281 Zn 0.64264 0.37942 0.50253 0.0
O282 O 0.68166 0.3145 0.48226 0.0
O283 O 0.64035 0.32842 0.49534 0.0
O284 O 0.67427 0.41947 0.44224 0.0
O285 O 0.69931 0.37099 0.44837 0.0
O286 O 0.73853 0.37619 0.48669 0.0
O287 O 0.73326 0.4252 0.50506 0.0
O288 O 0.68055 0.42109 0.5362 0.0
O289 O 0.61667 0.42867 0.46713 0.0
O290 O 0.64663 0.38172 0.5316 0.0
O291 O 0.60678 0.40386 0.49589 0.0
C292 C 0.67146 0.50041 0.48905 0.0
C293 C 0.65725 0.30565 0.48831 0.0
C294 C 0.74879 0.40212 0.49663 0.0
C295 C 0.68972 0.39405 0.43643 0.0
C296 C 0.6621 0.39995 0.54294 0.0
C297 C 0.59928 0.42079 0.48059 0.0
O298 O 0.68159 0.4846 0.50402 0.0
O299 O 0.09552 0.26596 0.47359 0.0
Zn300 Zn 0.10966 0.31524 0.4687 0.0
O301 O 0.0995 0.34894 0.48912 0.0
Zn302 Zn 0.07532 0.38603 0.47824 0.0
Zn303 Zn 0.08166 0.32074 0.50934 0.0
Zn304 Zn 0.13239 0.37033 0.50035 0.0
O305 O 0.09204 0.43655 0.4833 0.0
O306 O 0.13501 0.42122 0.49276 0.0
O307 O 0.09719 0.33127 0.44219 0.0
O308 O 0.07469 0.38168 0.44862 0.0
O309 O 0.0348 0.3753 0.48696 0.0
O310 O 0.0403 0.32828 0.50677 0.0
O311 O 0.09488 0.33423 0.53641 0.0
O312 O 0.15092 0.30778 0.46871 0.0
O313 O 0.13121 0.369 0.52982 0.0
O314 O 0.16686 0.34423 0.49186 0.0
C315 C 0.09412 0.25041 0.49016 0.0
C316 C 0.11739 0.44463 0.48745 0.0
C317 C 0.02467 0.35041 0.49773 0.0
C318 C 0.08367 0.35851 0.43648 0.0
C319 C 0.11525 0.35346 0.54206 0.0
C320 C 0.17083 0.32002 0.47906 0.0
O321 O 0.09119 0.26831 0.50595 0.0
O322 O 0.67109 0.27183 0.25377 0.0
Zn323 Zn 0.66012 0.32201 0.25921 0.0
O324 O 0.67253 0.35419 0.23867 0.0
Zn325 Zn 0.69605 0.3915 0.25017 0.0
Zn326 Zn 0.69202 0.32595 0.21908 0.0
Zn327 Zn 0.64037 0.37454 0.22602 0.0
O328 O 0.6784 0.4415 0.24557 0.0
O329 O 0.63711 0.42577 0.23303 0.0
O330 O 0.6742 0.33586 0.28567 0.0
O331 O 0.69692 0.38622 0.27967 0.0
O332 O 0.737 0.38231 0.24189 0.0
O333 O 0.73306 0.33364 0.2231 0.0
O334 O 0.68171 0.34037 0.19138 0.0
O335 O 0.61841 0.31829 0.25988 0.0
O336 O 0.6434 0.37199 0.19684 0.0
O337 O 0.60555 0.34814 0.23324 0.0
C338 C 0.67566 0.25593 0.23757 0.0
C339 C 0.65368 0.44931 0.23974 0.0
C340 C 0.74795 0.35686 0.23193 0.0
C341 C 0.68819 0.36257 0.29158 0.0
C342 C 0.6609 0.35811 0.18507 0.0
C343 C 0.59983 0.32758 0.24755 0.0
O344 O 0.68203 0.27332 0.22209 0.0
O345 O 0.10945 0.48623 0.25467 0.0
Zn346 Zn 0.11602 0.43454 0.2594 0.0
O347 O 0.10038 0.40534 0.23861 0.0
Zn348 Zn 0.07599 0.36892 0.25011 0.0
Zn349 Zn 0.08147 0.43642 0.22003 0.0
Zn350 Zn 0.13069 0.3832 0.22469 0.0
O351 O 0.09249 0.31814 0.24539 0.0
O352 O 0.1338 0.33242 0.23237 0.0
O353 O 0.10151 0.42161 0.28592 0.0
O354 O 0.0756 0.37394 0.27967 0.0
O355 O 0.03523 0.38005 0.242 0.0
O356 O 0.04024 0.42951 0.22398 0.0
O357 O 0.09149 0.42459 0.19186 0.0
O358 O 0.15772 0.43235 0.25953 0.0
O359 O 0.12499 0.38437 0.19566 0.0
O360 O 0.16658 0.40881 0.23025 0.0
C361 C 0.10244 0.50386 0.23951 0.0
C362 C 0.11702 0.30953 0.23945 0.0
C363 C 0.02484 0.40636 0.23245 0.0
C364 C 0.08596 0.39627 0.29172 0.0
C365 C 0.10914 0.40279 0.18468 0.0
C366 C 0.17454 0.42554 0.24553 0.0
O367 O 0.09243 0.48834 0.22438 0.0
O368 O 0.84813 0.01367 0.47342 0.0
Zn369 Zn 0.86449 0.0619 0.46981 0.0
O370 O 0.85125 0.09668 0.48827 0.0
Zn371 Zn 0.83082 0.13317 0.47333 0.0
Zn372 Zn 0.82917 0.06933 0.5067 0.0
Zn373 Zn 0.8818 0.11645 0.50323 0.0
O374 O 0.84612 0.18314 0.48123 0.0
O375 O 0.88605 0.16729 0.4959 0.0
O376 O 0.86002 0.07654 0.44223 0.0
O377 O 0.83967 0.12946 0.44363 0.0
O378 O 0.78832 0.1225 0.47762 0.0
O379 O 0.78937 0.07751 0.4993 0.0
O380 O 0.83467 0.08527 0.53477 0.0
O381 O 0.90487 0.05446 0.47378 0.0
O382 O 0.87307 0.11794 0.53215 0.0
O383 O 0.91766 0.08869 0.49887 0.0
C384 C 0.84425 0.99836 0.48985 0.0
C385 C 0.86993 0.19095 0.48876 0.0
C386 C 0.77594 0.09885 0.48817 0.0
C387 C 0.85094 0.10431 0.4338 0.0
C388 C 0.85351 0.10468 0.54246 0.0
C389 C 0.92323 0.06531 0.48584 0.0
O390 O 0.83926 0.01657 0.50528 0.0
O391 O 0.43275 0.2385 0.47421 0.0
Zn392 Zn 0.41198 0.19292 0.47082 0.0
O393 O 0.42306 0.15571 0.48842 0.0
Zn394 Zn 0.44314 0.11971 0.47312 0.0
Zn395 Zn 0.44497 0.18182 0.5073 0.0
Zn396 Zn 0.39144 0.13595 0.50214 0.0
O397 O 0.42799 0.06956 0.48077 0.0
O398 O 0.38724 0.08523 0.49438 0.0
O399 O 0.41319 0.17754 0.44311 0.0
O400 O 0.4331 0.12424 0.44373 0.0
O401 O 0.48565 0.13041 0.47719 0.0
O402 O 0.48493 0.17368 0.49996 0.0
O403 O 0.43806 0.16486 0.53491 0.0
O404 O 0.37289 0.20573 0.47653 0.0
O405 O 0.39863 0.13438 0.53139 0.0
O406 O 0.35617 0.16444 0.49679 0.0
C407 C 0.43256 0.25345 0.49097 0.0
C408 C 0.40376 0.06166 0.48759 0.0
C409 C 0.49821 0.15315 0.48825 0.0
C410 C 0.42128 0.14952 0.43435 0.0
C411 C 0.41822 0.1465 0.54214 0.0
C412 C 0.35305 0.19261 0.48656 0.0
O413 O 0.43449 0.23456 0.50646 0.0
O414 O 0.84697 0.24046 0.75795 0.0
Zn415 Zn 0.86247 0.19149 0.76072 0.0
O416 O 0.84917 0.15848 0.74127 0.0
Zn417 Zn 0.82789 0.12103 0.75481 0.0
Zn418 Zn 0.82786 0.18738 0.72313 0.0
Zn419 Zn 0.87996 0.13913 0.72644 0.0
O420 O 0.84309 0.07156 0.74605 0.0
O421 O 0.88412 0.08797 0.73317 0.0
O422 O 0.85667 0.1745 0.78782 0.0
O423 O 0.8357 0.12214 0.78462 0.0
O424 O 0.78563 0.13237 0.75009 0.0
O425 O 0.78767 0.17915 0.72966 0.0
O426 O 0.83418 0.17316 0.69481 0.0
O427 O 0.90316 0.19864 0.75742 0.0
O428 O 0.87171 0.1389 0.6975 0.0
O429 O 0.9157 0.16669 0.73138 0.0
C430 C 0.84334 0.25691 0.74183 0.0
C431 C 0.86739 0.06402 0.73925 0.0
C432 C 0.77374 0.15702 0.73999 0.0
C433 C 0.84688 0.14619 0.79529 0.0
C434 C 0.85279 0.15336 0.6871 0.0
C435 C 0.92143 0.18883 0.74501 0.0
O436 O 0.83828 0.23984 0.72601 0.0
O437 O 0.40771 0.01905 0.75681 0.0
Zn438 Zn 0.39936 0.07028 0.76119 0.0
O439 O 0.41581 0.10105 0.74177 0.0
Zn440 Zn 0.43831 0.13721 0.75574 0.0
Zn441 Zn 0.43673 0.07053 0.7239 0.0
Zn442 Zn 0.38649 0.12262 0.72633 0.0
O443 O 0.4243 0.18791 0.74807 0.0
O444 O 0.38445 0.17399 0.73281 0.0
O445 O 0.40899 0.0834 0.7884 0.0
O446 O 0.43143 0.13482 0.78565 0.0
O447 O 0.48024 0.12472 0.75054 0.0
O448 O 0.47711 0.07774 0.73029 0.0
O449 O 0.43093 0.08399 0.69541 0.0
O450 O 0.35811 0.07185 0.75955 0.0
O451 O 0.39502 0.12109 0.69747 0.0
O452 O 0.34916 0.09909 0.73128 0.0
C453 C 0.4154 1.00199 0.7416 0.0
C454 C 0.401 0.19686 0.74019 0.0
C455 C 0.49157 0.09962 0.74043 0.0
C456 C 0.42026 0.11055 0.79615 0.0
C457 C 0.41329 0.1047 0.68736 0.0
C458 C 0.34112 0.08144 0.74624 0.0
O459 O 0.42558 0.01818 0.72676 0.0
O460 O 0.16036 0.98283 0.47533 0.0
Zn461 Zn 0.15487 0.93092 0.47081 0.0
O462 O 0.17194 0.9026 0.49136 0.0
Zn463 Zn 0.19632 0.8665 0.47942 0.0
Zn464 Zn 0.19119 0.93453 0.50939 0.0
Zn465 Zn 0.14253 0.88007 0.50603 0.0
O466 O 0.18031 0.8155 0.48425 0.0
O467 O 0.13988 0.82906 0.49878 0.0
O468 O 0.16894 0.91855 0.44415 0.0
O469 O 0.19587 0.87158 0.44982 0.0
O470 O 0.23722 0.87803 0.48714 0.0
O471 O 0.2323 0.92767 0.50505 0.0
O472 O 0.182 0.9237 0.53779 0.0
O473 O 0.1133 0.92682 0.4712 0.0
O474 O 0.14919 0.88233 0.5349 0.0
O475 O 0.10597 0.90439 0.50092 0.0
C476 C 0.16858 1.00111 0.48996 0.0
C477 C 0.15635 0.80645 0.49107 0.0
C478 C 0.24766 0.90452 0.49655 0.0
C479 C 0.18475 0.89374 0.43803 0.0
C480 C 0.16497 0.90166 0.54545 0.0
C481 C 0.09711 0.92003 0.48555 0.0
O482 O 0.18003 0.98629 0.50477 0.0
O483 O 0.59772 0.76466 0.47468 0.0
Zn484 Zn 0.61138 0.81406 0.4696 0.0
O485 O 0.60055 0.84699 0.49022 0.0
Zn486 Zn 0.57659 0.88429 0.47938 0.0
Zn487 Zn 0.58206 0.81903 0.51021 0.0
Zn488 Zn 0.63339 0.86714 0.50207 0.0
O489 O 0.59408 0.93423 0.48449 0.0
O490 O 0.63663 0.91823 0.49468 0.0
O491 O 0.59854 0.83 0.44312 0.0
O492 O 0.57599 0.88024 0.44981 0.0
O493 O 0.53575 0.87417 0.48792 0.0
O494 O 0.54092 0.82601 0.5069 0.0
O495 O 0.59312 0.83416 0.53758 0.0
O496 O 0.65287 0.80722 0.46928 0.0
O497 O 0.63128 0.86563 0.53137 0.0
O498 O 0.66763 0.8397 0.49448 0.0
C499 C 0.59586 0.74897 0.49121 0.0
C500 C 0.61936 0.94191 0.48909 0.0
C501 C 0.52544 0.84869 0.49818 0.0
C502 C 0.58496 0.85728 0.43755 0.0
C503 C 0.61404 0.85215 0.54348 0.0
C504 C 0.67222 0.81724 0.48083 0.0
O505 O 0.59229 0.76666 0.50704 0.0
O506 O 0.17402 0.76913 0.25559 0.0
Zn507 Zn 0.15921 0.81834 0.25943 0.0
O508 O 0.17172 0.85165 0.2395 0.0
Zn509 Zn 0.19487 0.88876 0.25148 0.0
Zn510 Zn 0.19122 0.82295 0.22026 0.0
Zn511 Zn 0.1402 0.873 0.22648 0.0
O512 O 0.1774 0.93913 0.24687 0.0
O513 O 0.13596 0.92341 0.23463 0.0
O514 O 0.16911 0.83431 0.2865 0.0
O515 O 0.19408 0.88315 0.28101 0.0
O516 O 0.23606 0.87912 0.24369 0.0
O517 O 0.23216 0.83112 0.22436 0.0
O518 O 0.18065 0.83605 0.19259 0.0
O519 O 0.11814 0.81048 0.25696 0.0
O520 O 0.14497 0.87283 0.19721 0.0
O521 O 0.10522 0.84574 0.23238 0.0
C522 C 0.17711 0.75305 0.23928 0.0
C523 C 0.15246 0.94687 0.24145 0.0
C524 C 0.24704 0.85396 0.2335 0.0
C525 C 0.18332 0.86057 0.29275 0.0
C526 C 0.16169 0.85639 0.18586 0.0
C527 C 0.09973 0.82179 0.24503 0.0
O528 O 0.18153 0.77047 0.2235 0.0
O529 O 0.60237 0.99219 0.25616 0.0
Zn530 Zn 0.61385 0.94177 0.26095 0.0
O531 O 0.60153 0.90974 0.24029 0.0
Zn532 Zn 0.57736 0.87294 0.25147 0.0
Zn533 Zn 0.58306 0.9387 0.22063 0.0
Zn534 Zn 0.63353 0.88814 0.22796 0.0
O535 O 0.59452 0.82263 0.24712 0.0
O536 O 0.63695 0.83747 0.23619 0.0
O537 O 0.60083 0.92673 0.28754 0.0
O538 O 0.57642 0.87791 0.28098 0.0
O539 O 0.53677 0.88283 0.24268 0.0
O540 O 0.54176 0.93093 0.22359 0.0
O541 O 0.59519 0.92582 0.19315 0.0
O542 O 0.65539 0.94634 0.26078 0.0
O543 O 0.63013 0.88835 0.19869 0.0
O544 O 0.66825 0.91589 0.23431 0.0
C545 C 0.59865 0.00824 0.23991 0.0
C546 C 0.61964 0.81435 0.24242 0.0
C547 C 0.52637 0.90807 0.23231 0.0
C548 C 0.58619 0.9004 0.29318 0.0
C549 C 0.61434 0.90519 0.18691 0.0
C550 C 0.67385 0.93731 0.24828 0.0
O551 O 0.59291 0.99097 0.22428 0.0
O552 O 0.86411 0.52017 0.97018 0.0
Zn553 Zn 0.87466 0.57164 0.96933 0.0
O554 O 0.85484 0.60046 0.98805 0.0
Zn555 Zn 0.83248 0.63603 0.97352 0.0
Zn556 Zn 0.83305 0.56807 0.00413 0.0
Zn557 Zn 0.88171 0.62257 0.00543 0.0
O558 O 0.84533 0.68698 0.98188 0.0
O559 O 0.8837 0.67381 -0.0009 0.0
O560 O 0.87296 0.59116 0.9425 0.0
O561 O 0.84204 0.63508 0.94403 0.0
O562 O 0.79039 0.62275 0.97715 0.0
O563 O 0.79308 0.57442 -0.00364 0.0
O564 O 0.83557 0.57989 0.03318 0.0
O565 O 0.91471 0.57084 0.97556 0.0
O566 O 0.86897 0.6208 0.0333 0.0
O567 O 0.92029 0.60042 0.00351 0.0
C568 C 0.8564 0.50183 0.98496 0.0
C569 C 0.8677 0.69638 -0.0091 0.0
C570 C 0.77889 0.59668 0.98633 0.0
C571 C 0.85956 0.61631 0.93441 0.0
C572 C 0.85069 0.60243 0.04225 0.0
C573 C 0.93004 0.58154 -0.01045 0.0
O574 O 0.84579 0.51674 9e-05 0.0
O575 O 0.43178 0.74176 0.97417 0.0
Zn576 Zn 0.41106 0.69601 0.97168 0.0
O577 O 0.42366 0.65925 -0.01094 0.0
Zn578 Zn 0.44354 0.62362 0.97326 0.0
Zn579 Zn 0.44613 0.68591 0.00742 0.0
Zn580 Zn 0.39293 0.63906 0.00361 0.0
O581 O 0.429 0.57325 0.98106 0.0
O582 O 0.38917 0.58819 -0.00381 0.0
O583 O 0.41079 0.68031 0.94401 0.0
O584 O 0.43257 0.62823 0.94397 0.0
O585 O 0.48616 0.63451 0.97681 0.0
O586 O 0.48585 0.67775 -0.00041 0.0
O587 O 0.44025 0.66984 0.03531 0.0
O588 O 0.37223 0.70848 0.97852 0.0
O589 O 0.40125 0.63823 0.03271 0.0
O590 O 0.35699 0.66662 -0.001 0.0
C591 C 0.43261 0.75705 -0.00917 0.0
C592 C 0.4054 0.56492 -0.01123 0.0
C593 C 0.49892 0.65725 0.98776 0.0
C594 C 0.4194 0.65287 0.93495 0.0
C595 C 0.42096 0.65121 0.04303 0.0
C596 C 0.35304 0.69487 -0.01102 0.0
O597 O 0.43559 0.73852 0.00636 0.0
O598 O 0.84425 0.73935 0.25564 0.0
Zn599 Zn 0.86404 0.69309 0.25686 0.0
O600 O 0.84867 0.65677 0.24044 0.0
Zn601 Zn 0.83001 0.62147 0.2573 0.0
Zn602 Zn 0.82455 0.68349 0.22307 0.0
Zn603 Zn 0.87778 0.63557 0.22466 0.0
O604 O 0.84457 0.57073 0.24995 0.0
O605 O 0.88274 0.58537 0.2328 0.0
O606 O 0.86729 0.67741 0.28434 0.0
O607 O 0.84294 0.62731 0.28606 0.0
O608 O 0.78703 0.63163 0.25515 0.0
O609 O 0.78572 0.67468 0.23231 0.0
O610 O 0.82801 0.66678 0.19498 0.0
O611 O 0.9018 0.70506 0.24764 0.0
O612 O 0.86591 0.63281 0.19642 0.0
O613 O 0.91427 0.66311 0.22633 0.0
C614 C 0.83963 0.75479 0.23936 0.0
C615 C 0.86756 0.5623 0.24138 0.0
C616 C 0.77352 0.65417 0.24455 0.0
C617 C 0.85823 0.65105 0.29412 0.0
C618 C 0.84576 0.64632 0.18679 0.0
C619 C 0.91947 0.69146 0.23596 0.0
O620 O 0.83385 0.73667 0.22404 0.0
O621 O 0.41933 0.51874 0.25778 0.0
Zn622 Zn 0.40531 0.5682 0.26116 0.0
O623 O 0.41991 0.60165 0.24243 0.0
Zn624 Zn 0.44072 0.63825 0.25725 0.0
Zn625 Zn 0.44213 0.57316 0.22451 0.0
Zn626 Zn 0.38997 0.62182 0.2269 0.0
O627 O 0.42576 0.68829 0.24932 0.0
O628 O 0.38641 0.67306 0.23372 0.0
O629 O 0.41058 0.58312 0.2886 0.0
O630 O 0.4321 0.63526 0.28701 0.0
O631 O 0.48316 0.62752 0.25288 0.0
O632 O 0.48198 0.58175 0.23169 0.0
O633 O 0.43666 0.58725 0.19617 0.0
O634 O 0.36465 0.56319 0.25746 0.0
O635 O 0.39899 0.62142 0.19801 0.0
O636 O 0.35342 0.59556 0.23131 0.0
C637 C 0.42507 0.50289 0.24178 0.0
C638 C 0.40239 0.69646 0.24127 0.0
C639 C 0.49548 0.60352 0.24252 0.0
C640 C 0.42036 0.61062 0.29695 0.0
C641 C 0.41825 0.60668 0.18802 0.0
C642 C 0.34687 0.57378 0.24493 0.0
O643 O 0.43212 0.52049 0.22654 0.0
O644 O 0.17491 0.49101 0.9743 0.0
Zn645 Zn 0.16305 0.44081 0.96931 0.0
O646 O 0.17511 0.40834 -0.01029 0.0
Zn647 Zn 0.19906 0.37142 0.97854 0.0
Zn648 Zn 0.19315 0.43688 0.00962 0.0
Zn649 Zn 0.1431 0.3866 0.00159 0.0
O650 O 0.18179 0.32104 0.98305 0.0
O651 O 0.13845 0.33743 -0.00884 0.0
O652 O 0.17592 0.42584 0.94272 0.0
O653 O 0.19961 0.37626 0.9489 0.0
O654 O 0.23967 0.38191 0.98713 0.0
O655 O 0.2345 0.42984 0.00638 0.0
O656 O 0.18092 0.42263 0.03688 0.0
O657 O 0.12154 0.44579 0.96952 0.0
O658 O 0.14688 0.38397 0.03089 0.0
O659 O 0.10897 0.41583 -0.00378 0.0
C660 C 0.17749 0.50671 -0.00922 0.0
C661 C 0.15588 0.31377 0.98579 0.0
C662 C 0.24999 0.40731 -0.00254 0.0
C663 C 0.19006 0.39922 0.93688 0.0
C664 C 0.16232 0.40096 0.04288 0.0
C665 C 0.10332 0.43726 0.9823 0.0
O666 O 0.1826 0.4891 0.00639 0.0
O667 O 0.59385 0.26535 0.97423 0.0
Zn668 Zn 0.60976 0.31345 0.96855 0.0
O669 O 0.60051 0.34827 0.98862 0.0
Zn670 Zn 0.57674 0.38552 0.97762 0.0
Zn671 Zn 0.58216 0.32168 0.00916 0.0
Zn672 Zn 0.63399 0.36835 -0.00037 0.0
O673 O 0.59418 0.43566 0.9825 0.0
O674 O 0.63669 0.41955 -0.00734 0.0
O675 O 0.59779 0.32945 0.94179 0.0
O676 O 0.57642 0.38069 0.94814 0.0
O677 O 0.53588 0.37556 0.98608 0.0
O678 O 0.54095 0.32862 0.00598 0.0
O679 O 0.59418 0.33785 0.03609 0.0
O680 O 0.65094 0.30393 0.96862 0.0
O681 O 0.63374 0.36581 0.02903 0.0
O682 O 0.66793 0.34211 -0.00949 0.0
C683 C 0.59386 0.25053 -0.00895 0.0
C684 C 0.61946 0.44329 0.98713 0.0
C685 C 0.52551 0.35072 -0.00322 0.0
C686 C 0.58496 0.35721 0.93603 0.0
C687 C 0.61626 0.35398 0.0415 0.0
C688 C 0.6713 0.31678 0.97831 0.0
O689 O 0.59221 0.26917 0.00669 0.0
O690 O 0.15845 0.27371 0.75527 0.0
Zn691 Zn 0.15286 0.32569 0.75973 0.0
O692 O 0.16962 0.35378 0.73889 0.0
Zn693 Zn 0.19381 0.39044 0.75042 0.0
Zn694 Zn 0.18907 0.32187 0.721 0.0
Zn695 Zn 0.13996 0.3755 0.72412 0.0
O696 O 0.17689 0.44102 0.7458 0.0
O697 O 0.13674 0.42654 0.7312 0.0
O698 O 0.1675 0.33845 0.78629 0.0
O699 O 0.19432 0.38527 0.77996 0.0
O700 O 0.23472 0.37988 0.74226 0.0
O701 O 0.23011 0.32934 0.72511 0.0
O702 O 0.17994 0.33227 0.69258 0.0
O703 O 0.11119 0.32949 0.75955 0.0
O704 O 0.1467 0.37313 0.69519 0.0
O705 O 0.10372 0.35049 0.72953 0.0
C706 C 0.16678 0.25537 0.74069 0.0
C707 C 0.15285 0.44953 0.73893 0.0
C708 C 0.24532 0.35318 0.73313 0.0
C709 C 0.18357 0.3633 0.79204 0.0
C710 C 0.16279 0.35395 0.68477 0.0
C711 C 0.09497 0.33533 0.74509 0.0
O712 O 0.17822 0.27014 0.72585 0.0
O713 O 0.60484 0.48735 0.7552 0.0
Zn714 Zn 0.61314 0.43573 0.75911 0.0
O715 O 0.59811 0.40646 0.73812 0.0
Zn716 Zn 0.57387 0.36949 0.7492 0.0
Zn717 Zn 0.57932 0.43769 0.71961 0.0
Zn718 Zn 0.62864 0.38482 0.72429 0.0
O719 O 0.59042 0.31894 0.74388 0.0
O720 O 0.63201 0.33393 0.73157 0.0
O721 O 0.59974 0.42063 0.78558 0.0
O722 O 0.57387 0.37312 0.77881 0.0
O723 O 0.53307 0.38087 0.74123 0.0
O724 O 0.53813 0.43055 0.7234 0.0
O725 O 0.5896 0.42654 0.69141 0.0
O726 O 0.65486 0.43587 0.75865 0.0
O727 O 0.6231 0.38638 0.69535 0.0
O728 O 0.66426 0.41089 0.72982 0.0
C729 C 0.5988 0.50503 0.73983 0.0
C730 C 0.61512 0.31067 0.73814 0.0
C731 C 0.5227 0.40729 0.73176 0.0
C732 C 0.58451 0.39479 0.79112 0.0
C733 C 0.6074 0.40487 0.68431 0.0
C734 C 0.67184 0.42872 0.7448 0.0
O735 O 0.5901 0.48949 0.72433 0.0
H736 H 0.41891 0.79604 0.02384 0.0
H737 H 0.34998 0.95116 0.95955 0.0
H738 H 0.42363 0.80332 0.96053 0.0
H739 H 0.35851 0.95917 0.02262 0.0
H740 H 0.37256 0.89321 0.96055 0.0
H741 H 0.39487 0.85373 0.02453 0.0
C742 C 0.4154 0.80999 0.01013 0.0
C743 C 0.42328 0.79465 -0.00791 0.0
C744 C 0.36936 0.90745 0.97422 0.0
C745 C 0.39516 0.86011 -0.00723 0.0
C746 C 0.3562 0.94048 0.97369 0.0
C747 C 0.35248 0.96027 -0.00898 0.0
C748 C 0.37901 0.89386 -0.00778 0.0
C749 C 0.36089 0.94485 0.0089 0.0
C750 C 0.40143 0.84276 0.01053 0.0
C751 C 0.41791 0.8139 0.97479 0.0
N752 N 0.37401 0.91264 0.00903 0.0
N753 N 0.40403 0.84535 0.97557 0.0
H754 H 0.85708 0.45625 0.01671 0.0
H755 H 0.93407 0.30168 0.95608 0.0
H756 H 0.87484 0.46061 0.95447 0.0
H757 H 0.91738 0.29428 0.01835 0.0
H758 H 0.9133 0.36081 0.95579 0.0
H759 H 0.87793 0.39666 0.01788 0.0
C760 C 0.8649 0.4445 0.00323 0.0
C761 C 0.86425 0.46362 0.98547 0.0
C762 C 0.91433 0.34646 0.96958 0.0
C763 C 0.88864 0.39576 0.98681 0.0
C764 C 0.92641 0.31272 0.96979 0.0
C765 C 0.92749 0.29288 0.98726 0.0
C766 C 0.90302 0.36066 0.98697 0.0
C767 C 0.91716 0.30867 0.00455 0.0
C768 C 0.87706 0.41062 0.00396 0.0
C769 C 0.87495 0.44707 0.96853 0.0
N770 N 0.90515 0.34153 0.00395 0.0
N771 N 0.8868 0.4143 0.96966 0.0
H772 H 0.41589 0.46232 0.20858 0.0
H773 H 0.35309 0.302 0.27227 0.0
H774 H 0.41743 0.45636 0.27199 0.0
H775 H 0.36019 0.29637 0.20904 0.0
H776 H 0.3736 0.36113 0.27155 0.0
H777 H 0.39506 0.40257 0.20759 0.0
C778 C 0.41243 0.44821 0.22226 0.0
C779 C 0.4183 0.46449 0.24041 0.0
C780 C 0.37056 0.34718 0.25777 0.0
C781 C 0.39388 0.39674 0.23938 0.0
C782 C 0.35858 0.31346 0.25816 0.0
C783 C 0.35502 0.29407 0.2407 0.0
C784 C 0.37923 0.36188 0.23979 0.0
C785 C 0.36245 0.31043 0.22285 0.0
C786 C 0.40025 0.41429 0.22168 0.0
C787 C 0.41309 0.44507 0.25766 0.0
N788 N 0.37447 0.34334 0.22286 0.0
N789 N 0.40101 0.41248 0.2567 0.0
H790 H 0.8835 0.78646 0.25709 0.0
H791 H 0.84911 0.98392 0.23304 0.0
H792 H 0.81572 0.80823 0.21708 0.0
H793 H 0.9346 0.94783 0.2329 0.0
H794 H 0.83341 0.92176 0.23143 0.0
H795 H 0.89969 0.84772 0.25331 0.0
C796 C 0.8718 0.80433 0.24769 0.0
C797 C 0.84799 0.79248 0.23757 0.0
C798 C 0.85557 0.92755 0.23152 0.0
C799 C 0.86645 0.86256 0.2333 0.0
C800 C 0.86455 0.96283 0.23256 0.0
C801 C 0.89319 0.9708 0.2332 0.0
C802 C 0.87536 0.90011 0.23177 0.0
C803 C 0.91237 0.94268 0.23241 0.0
C804 C 0.88128 0.83908 0.24538 0.0
C805 C 0.83403 0.81651 0.22523 0.0
N806 N 0.90309 0.90843 0.23212 0.0
N807 N 0.84322 0.85076 0.22366 0.0
H808 H 0.66979 0.04784 0.02203 0.0
H809 H 0.5926 0.20182 0.96128 0.0
H810 H 0.65309 0.0443 0.95964 0.0
H811 H 0.61275 0.21223 0.02291 0.0
H812 H 0.61265 0.14235 0.96138 0.0
H813 H 0.64904 0.10757 0.02328 0.0
C814 C 0.66221 0.05978 0.00856 0.0
C815 C 0.66314 0.04089 -0.00929 0.0
C816 C 0.61257 0.15745 0.97495 0.0
C817 C 0.63888 0.10878 -0.00787 0.0
C818 C 0.60088 0.1914 0.97494 0.0
C819 C 0.60104 0.2122 -0.0079 0.0
C820 C 0.62469 0.14398 -0.00778 0.0
C821 C 0.61207 0.19712 0.00936 0.0
C822 C 0.65013 0.09373 0.00932 0.0
C823 C 0.65275 0.05764 0.97376 0.0
N824 N 0.62368 0.16401 0.00895 0.0
N825 N 0.64096 0.09041 0.97493 0.0
H826 H 0.10107 0.70578 0.96032 0.0
H827 H 0.16726 0.5474 0.02381 0.0
H828 H 0.10937 0.71166 0.02348 0.0
H829 H 0.16782 0.55249 0.96035 0.0
H830 H 0.14534 0.60643 0.02471 0.0
H831 H 0.12246 0.64711 0.96086 0.0
C832 C 0.10702 0.69453 0.97438 0.0
C833 C 0.10349 0.71388 -0.00812 0.0
C834 C 0.15051 0.59468 0.01062 0.0
C835 C 0.12865 0.64653 -0.00744 0.0
C836 C 0.16328 0.56113 0.01009 0.0
C837 C 0.16935 0.54479 -0.00803 0.0
C838 C 0.14367 0.61189 -0.00709 0.0
C839 C 0.16345 0.56381 0.97468 0.0
C840 C 0.11949 0.66104 0.97466 0.0
C841 C 0.11159 0.6977 0.00963 0.0
N842 N 0.15079 0.59608 0.97559 0.0
N843 N 0.124 0.66504 0.00951 0.0
H844 H 0.66087 0.71394 0.70578 0.0
H845 H 0.61192 0.54767 0.771 0.0
H846 H 0.67269 0.70515 0.76855 0.0
H847 H 0.60425 0.54936 0.70773 0.0
H848 H 0.63231 0.6069 0.76998 0.0
H849 H 0.64028 0.65413 0.70561 0.0
C850 C 0.65964 0.69925 0.71946 0.0
C851 C 0.66849 0.71474 0.73722 0.0
C852 C 0.62605 0.59451 0.75629 0.0
C853 C 0.64439 0.64667 0.73717 0.0
C854 C 0.61417 0.56068 0.75687 0.0
C855 C 0.6064 0.54333 0.73941 0.0
C856 C 0.63035 0.61139 0.73811 0.0
C857 C 0.60983 0.56173 0.72156 0.0
C858 C 0.64762 0.66524 0.71937 0.0
C859 C 0.66609 0.69449 0.7545 0.0
N860 N 0.62174 0.59468 0.72135 0.0
N861 N 0.65414 0.66174 0.75404 0.0
H862 H 0.16593 0.20971 0.70892 0.0
H863 H 0.09691 0.05135 0.77119 0.0
H864 H 0.14944 0.21404 0.77133 0.0
H865 H 0.10805 0.04622 0.70823 0.0
H866 H 0.11573 0.11153 0.77105 0.0
H867 H 0.14633 0.14935 0.70811 0.0
C868 C 0.15863 0.19781 0.72249 0.0
C869 C 0.15931 0.21706 0.74022 0.0
C870 C 0.11389 0.09745 0.75721 0.0
C871 C 0.13642 0.14837 0.73931 0.0
C872 C 0.10295 0.06308 0.75726 0.0
C873 C 0.10091 0.0436 0.7397 0.0
C874 C 0.12313 0.1126 0.73947 0.0
C875 C 0.10909 0.0603 0.72211 0.0
C876 C 0.14717 0.16351 0.72198 0.0
C877 C 0.14928 0.20037 0.7573 0.0
N878 N 0.12009 0.09374 0.72246 0.0
N879 N 0.13819 0.16717 0.75639 0.0
H880 H 0.42734 0.30087 0.46081 0.0
H881 H 0.35749 0.45658 0.52423 0.0
H882 H 0.41581 0.29167 0.52361 0.0
H883 H 0.35391 0.44876 0.46091 0.0
H884 H 0.38002 0.39783 0.52527 0.0
H885 H 0.40409 0.35836 0.4616 0.0
C886 C 0.42029 0.31115 0.47486 0.0
C887 C 0.42349 0.29119 0.49216 0.0
C888 C 0.37398 0.40891 0.5112 0.0
C889 C 0.39622 0.35721 0.49311 0.0
C890 C 0.36087 0.44228 0.51059 0.0
C891 C 0.35391 0.45783 0.49243 0.0
C892 C 0.38032 0.3912 0.49352 0.0
C893 C 0.35905 0.4381 0.47525 0.0
C894 C 0.40672 0.34393 0.47527 0.0
C895 C 0.41389 0.30613 0.5099 0.0
N896 N 0.37215 0.40613 0.47622 0.0
N897 N 0.40053 0.33819 0.50992 0.0
H898 H 0.8583 0.95903 0.52261 0.0
H899 H 0.90987 0.79549 0.45635 0.0
H900 H 0.84686 0.95059 0.45979 0.0
H901 H 0.91431 0.79335 0.51976 0.0
H902 H 0.88927 0.85447 0.45795 0.0
H903 H 0.87889 0.89911 0.52269 0.0
C904 C 0.85953 0.94433 0.50892 0.0
C905 C 0.85095 0.95995 0.49114 0.0
C906 C 0.89484 0.84133 0.47157 0.0
C907 C 0.87506 0.892 0.49108 0.0
C908 C 0.90686 0.80767 0.47065 0.0
C909 C 0.91373 0.78932 0.48795 0.0
C910 C 0.88947 0.85703 0.48994 0.0
C911 C 0.90944 0.80661 0.50605 0.0
C912 C 0.87157 0.91032 0.50895 0.0
C913 C 0.85334 0.9398 0.47383 0.0
N914 N 0.89734 0.83946 0.50659 0.0
N915 N 0.86534 0.90713 0.47423 0.0
H916 H 0.40413 0.95769 0.77222 0.0
H917 H 0.35431 0.7925 0.70662 0.0
H918 H 0.40916 0.95923 0.70882 0.0
H919 H 0.33866 0.80424 0.76884 0.0
H920 H 0.37561 0.85202 0.70636 0.0
H921 H 0.38369 0.8986 0.77071 0.0
C922 C 0.40128 0.94538 0.75794 0.0
C923 C 0.40826 0.96362 0.74061 0.0
C924 C 0.36724 0.8416 0.72 0.0
C925 C 0.38419 0.89572 0.73875 0.0
C926 C 0.35483 0.80779 0.72013 0.0
C927 C 0.34474 0.79321 0.73781 0.0
C928 C 0.36966 0.86078 0.73767 0.0
C929 C 0.34625 0.81417 0.75488 0.0
C930 C 0.38935 0.91164 0.75708 0.0
C931 C 0.40418 0.9461 0.72255 0.0
N932 N 0.35866 0.84662 0.7544 0.0
N933 N 0.39218 0.91317 0.72207 0.0
H934 H 0.84667 0.30279 0.77284 0.0
H935 H 0.91634 0.46075 0.71073 0.0
H936 H 0.85717 0.29817 0.70982 0.0
H937 H 0.90551 0.46189 0.7738 0.0
H938 H 0.8956 0.40112 0.70974 0.0
H939 H 0.86689 0.36221 0.77291 0.0
C940 C 0.85284 0.3145 0.75894 0.0
C941 C 0.85026 0.29534 0.7413 0.0
C942 C 0.89797 0.41438 0.72379 0.0
C943 C 0.87409 0.36345 0.74131 0.0
C944 C 0.91008 0.44828 0.72441 0.0
C945 C 0.91263 0.4665 0.74238 0.0
C946 C 0.88834 0.39861 0.74127 0.0
C947 C 0.90391 0.44904 0.75959 0.0
C948 C 0.86461 0.34841 0.75901 0.0
C949 C 0.85862 0.31201 0.72375 0.0
N950 N 0.89204 0.41628 0.75857 0.0
N951 N 0.87041 0.34501 0.72422 0.0
H952 H 0.66879 0.54421 0.52161 0.0
H953 H 0.59649 0.70181 0.46071 0.0
H954 H 0.65551 0.54344 0.45879 0.0
H955 H 0.61218 0.70889 0.52312 0.0
H956 H 0.61618 0.64217 0.46058 0.0
H957 H 0.64838 0.60411 0.52306 0.0
C958 C 0.66205 0.5568 0.50809 0.0
C959 C 0.66382 0.53864 0.49005 0.0
C960 C 0.61519 0.65656 0.47437 0.0
C961 C 0.63994 0.60674 0.49168 0.0
C962 C 0.60372 0.69062 0.47448 0.0
C963 C 0.60274 0.71053 0.49194 0.0
C964 C 0.62597 0.64208 0.49184 0.0
C965 C 0.61241 0.69447 0.50933 0.0
C966 C 0.65014 0.59085 0.50897 0.0
C967 C 0.65449 0.55621 0.47305 0.0
N968 N 0.62385 0.66126 0.50881 0.0
N969 N 0.64286 0.58906 0.47432 0.0
H970 H 0.16759 0.04678 0.52176 0.0
H971 H 0.09501 0.20289 0.45978 0.0
H972 H 0.15095 0.04232 0.45939 0.0
H973 H 0.11009 0.21064 0.52224 0.0
H974 H 0.11438 0.14302 0.46001 0.0
H975 H 0.14752 0.10691 0.52263 0.0
C976 C 0.16017 0.0586 0.50821 0.0
C977 C 0.16092 0.03936 0.49048 0.0
C978 C 0.11331 0.15762 0.47373 0.0
C979 C 0.13747 0.10775 0.49145 0.0
C980 C 0.10203 0.19181 0.47363 0.0
C981 C 0.10095 0.21195 0.491 0.0
C982 C 0.1238 0.14329 0.49132 0.0
C983 C 0.11039 0.19605 0.5085 0.0
C984 C 0.14845 0.09277 0.50875 0.0
C985 C 0.15073 0.05596 0.47342 0.0
N986 N 0.12165 0.16275 0.50819 0.0
N987 N 0.13935 0.08899 0.47437 0.0
H988 H 0.66459 0.2149 0.2048 0.0
H989 H 0.60642 0.05422 0.27051 0.0
H990 H 0.66953 0.20974 0.26814 0.0
H991 H 0.60898 0.04926 0.20707 0.0
H992 H 0.627 0.1133 0.26922 0.0
H993 H 0.64404 0.15496 0.20459 0.0
C994 C 0.66191 0.20095 0.21861 0.0
C995 C 0.6687 0.2175 0.23653 0.0
C996 C 0.62296 0.09948 0.25553 0.0
C997 C 0.64462 0.14947 0.23641 0.0
C998 C 0.61094 0.06575 0.25625 0.0
C999 C 0.60602 0.04656 0.23888 0.0
C1000 C 0.63026 0.1144 0.2373 0.0
C1001 C 0.61231 0.06309 0.22085 0.0
C1002 C 0.6499 0.16691 0.21849 0.0
C1003 C 0.66447 0.19824 0.25398 0.0
N1004 N 0.62431 0.096 0.22052 0.0
N1005 N 0.65254 0.16551 0.25347 0.0
H1006 H 0.17442 0.70644 0.26998 0.0
H1007 H 0.10586 0.54821 0.20725 0.0
H1008 H 0.16325 0.71227 0.20705 0.0
H1009 H 0.11764 0.54641 0.27021 0.0
H1010 H 0.12611 0.60824 0.20641 0.0
H1011 H 0.15501 0.6466 0.26968 0.0
C1012 C 0.16826 0.69493 0.25602 0.0
C1013 C 0.17045 0.71453 0.23852 0.0
C1014 C 0.12406 0.59472 0.2204 0.0
C1015 C 0.14752 0.6459 0.23812 0.0
C1016 C 0.11224 0.5606 0.22092 0.0
C1017 C 0.11007 0.54213 0.23883 0.0
C1018 C 0.13375 0.6104 0.2379 0.0
C1019 C 0.11897 0.55944 0.25604 0.0
C1020 C 0.15695 0.66076 0.25588 0.0
C1021 C 0.1621 0.69809 0.22089 0.0
N1022 N 0.13049 0.59239 0.25512 0.0
N1023 N 0.15077 0.66482 0.22115 0.0
H1024 H 0.3592 0.16806 0.91297 0.0
H1025 H 0.42541 0.05859 0.8232 0.0
H1026 H 0.36359 0.05359 0.90837 0.0
H1027 H 0.40642 0.1703 0.81761 0.0
H1028 H 0.40882 0.05993 0.85697 0.0
H1029 H 0.37925 0.17261 0.87959 0.0
C1030 C 0.36386 0.14397 0.90484 0.0
C1031 C 0.35985 0.11039 0.91352 0.0
C1032 C 0.40845 0.08437 0.84853 0.0
C1033 C 0.38335 0.11541 0.87584 0.0
C1034 C 0.41826 0.08366 0.8293 0.0
C1035 C 0.41725 0.11434 0.81764 0.0
C1036 C 0.3971 0.11593 0.85623 0.0
C1037 C 0.40774 0.14614 0.82624 0.0
C1038 C 0.37557 0.1466 0.88593 0.0
C1039 C 0.36654 0.08006 0.90242 0.0
N1040 N 0.39763 0.14607 0.84503 0.0
N1041 N 0.37808 0.08334 0.88433 0.0
H1042 H 0.8404 0.19584 0.82348 0.0
H1043 H 0.91542 0.08681 0.90976 0.0
H1044 H 0.86464 0.08634 0.81517 0.0
H1045 H 0.90627 0.20103 0.90691 0.0
H1046 H 0.89383 0.08235 0.87685 0.0
H1047 H 0.85831 0.19369 0.85687 0.0
C1048 C 0.84902 0.17104 0.8289 0.0
C1049 C 0.85109 0.14127 0.8166 0.0
C1050 C 0.89678 0.10829 0.88348 0.0
C1051 C 0.87276 0.13885 0.85474 0.0
C1052 C 0.90933 0.11089 0.90213 0.0
C1053 C 0.9125 0.14433 0.91117 0.0
C1054 C 0.88732 0.13935 0.87404 0.0
C1055 C 0.90401 0.17463 0.90069 0.0
C1056 C 0.85958 0.16989 0.84792 0.0
C1057 C 0.86249 0.10977 0.82433 0.0
N1058 N 0.89172 0.17135 0.88287 0.0
N1059 N 0.87331 0.10946 0.84291 0.0
H1060 H 0.41431 0.20332 0.40846 0.0
H1061 H 0.36151 0.08587 0.31768 0.0
H1062 H 0.41119 0.08873 0.41234 0.0
H1063 H 0.35138 0.19946 0.32361 0.0
H1064 H 0.38026 0.0838 0.35149 0.0
H1065 H 0.3946 0.2002 0.37571 0.0
C1066 C 0.40972 0.17735 0.40229 0.0
C1067 C 0.41425 0.14626 0.41322 0.0
C1068 C 0.37352 0.10901 0.34542 0.0
C1069 C 0.39094 0.14242 0.37553 0.0
C1070 C 0.36252 0.11014 0.32626 0.0
C1071 C 0.35501 0.14293 0.31785 0.0
C1072 C 0.377 0.14092 0.356 0.0
C1073 C 0.35712 0.17366 0.32945 0.0
C1074 C 0.39821 0.17557 0.38358 0.0
C1075 C 0.40812 0.11334 0.40435 0.0
N1076 N 0.3681 0.17191 0.34777 0.0
N1077 N 0.39652 0.11224 0.386 0.0
H1078 H 0.91438 0.16452 0.31819 0.0
H1079 H 0.85144 0.05053 0.40745 0.0
H1080 H 0.90093 0.05094 0.31761 0.0
H1081 H 0.86342 0.16407 0.41173 0.0
H1082 H 0.86856 0.05199 0.37388 0.0
H1083 H 0.89718 0.16639 0.35234 0.0
C1084 C 0.90839 0.13993 0.32536 0.0
C1085 C 0.90903 0.10752 0.31502 0.0
C1086 C 0.86734 0.07677 0.38198 0.0
C1087 C 0.88883 0.10958 0.35373 0.0
C1088 C 0.85733 0.07596 0.40116 0.0
C1089 C 0.856 0.10721 0.4124 0.0
C1090 C 0.87645 0.10908 0.37382 0.0
C1091 C 0.86389 0.13942 0.40348 0.0
C1092 C 0.89826 0.14108 0.34473 0.0
C1093 C 0.90067 0.07656 0.32492 0.0
N1094 N 0.87407 0.13951 0.3847 0.0
N1095 N 0.89083 0.07842 0.34359 0.0
H1096 H 0.60588 0.95667 0.15929 0.0
H1097 H 0.65234 0.84418 0.06709 0.0
H1098 H 0.63726 0.84976 0.16653 0.0
H1099 H 0.67065 0.9564 0.0714 0.0
H1100 H 0.63949 0.84392 0.10204 0.0
H1101 H 0.62096 0.95534 0.12481 0.0
C1102 C 0.61555 0.93275 0.15353 0.0
C1103 C 0.62033 0.90324 0.16569 0.0
C1104 C 0.64661 0.86845 0.09533 0.0
C1105 C 0.6375 0.90165 0.12653 0.0
C1106 C 0.65395 0.86863 0.07548 0.0
C1107 C 0.66265 0.90034 0.06647 0.0
C1108 C 0.6472 0.9004 0.10598 0.0
C1109 C 0.6643 0.93136 0.0779 0.0
C1110 C 0.6244 0.93219 0.13399 0.0
C1111 C 0.63327 0.87306 0.1576 0.0
N1112 N 0.6562 0.93076 0.09705 0.0
N1113 N 0.64127 0.87292 0.13843 0.0
H1114 H 0.1713 0.80451 0.15874 0.0
H1115 H 0.13227 0.91333 0.06386 0.0
H1116 H 0.14087 0.91215 0.16462 0.0
H1117 H 0.10572 0.80435 0.07117 0.0
H1118 H 0.14538 0.91504 0.09883 0.0
H1119 H 0.15837 0.80554 0.12385 0.0
C1120 C 0.16234 0.82854 0.1526 0.0
C1121 C 0.15708 0.8583 0.16449 0.0
C1122 C 0.13651 0.89092 0.09271 0.0
C1123 C 0.14253 0.85961 0.12485 0.0
C1124 C 0.12906 0.88991 0.07288 0.0
C1125 C 0.11779 0.85871 0.06476 0.0
C1126 C 0.13348 0.86019 0.10419 0.0
C1127 C 0.11409 0.829 0.07696 0.0
C1128 C 0.15476 0.82895 0.13282 0.0
C1129 C 0.14514 0.88865 0.15589 0.0
N1130 N 0.12231 0.83029 0.09606 0.0
N1131 N 0.13838 0.88865 0.13648 0.0
H1132 H 0.66266 0.87222 0.5612 0.0
H1133 H 0.60312 0.8652 0.67047 0.0
H1134 H 0.57786 0.84076 0.57417 0.0
H1135 H 0.6904 0.85021 0.65675 0.0
H1136 H 0.59277 0.86728 0.63524 0.0
H1137 H 0.67223 0.87545 0.59642 0.0
C1138 C 0.64597 0.86626 0.57145 0.0
C1139 C 0.61942 0.85604 0.56474 0.0
C1140 C 0.61417 0.86363 0.64 0.0
C1141 C 0.63031 0.85987 0.60501 0.0
C1142 C 0.62014 0.86261 0.66005 0.0
C1143 C 0.64768 0.8574 0.66652 0.0
C1144 C 0.63594 0.85999 0.62635 0.0
C1145 C 0.66887 0.85405 0.65239 0.0
C1146 C 0.65152 0.86795 0.59153 0.0
C1147 C 0.59866 0.84852 0.57871 0.0
N1148 N 0.66256 0.85552 0.63294 0.0
N1149 N 0.60453 0.85066 0.59824 0.0
H1150 H 0.17091 0.95634 0.57156 0.0
H1151 H 0.13427 0.84574 0.66726 0.0
H1152 H 0.14956 0.84491 0.56792 0.0
H1153 H 0.10642 0.95411 0.65959 0.0
H1154 H 0.14939 0.84478 0.63275 0.0
H1155 H 0.15789 0.95588 0.6065 0.0
C1156 C 0.16401 0.93167 0.57822 0.0
C1157 C 0.16122 0.90062 0.56693 0.0
C1158 C 0.13983 0.86864 0.63867 0.0
C1159 C 0.14646 0.89997 0.60658 0.0
C1160 C 0.13119 0.86921 0.65826 0.0
C1161 C 0.11892 0.89997 0.66616 0.0
C1162 C 0.13688 0.89936 0.62716 0.0
C1163 C 0.11549 0.92975 0.65396 0.0
C1164 C 0.15633 0.93153 0.59802 0.0
C1165 C 0.15187 0.86942 0.57616 0.0
N1166 N 0.12475 0.92886 0.63507 0.0
N1167 N 0.14488 0.86982 0.59552 0.0
H1168 H 0.41034 0.67142 0.31894 0.0
H1169 H 0.35257 0.55249 0.40757 0.0
H1170 H 0.41698 0.55717 0.32333 0.0
H1171 H 0.36322 0.66585 0.41455 0.0
H1172 H 0.37118 0.55665 0.37448 0.0
H1173 H 0.3912 0.67289 0.3527 0.0
C1174 C 0.40843 0.64683 0.32715 0.0
C1175 C 0.4151 0.61408 0.31831 0.0
C1176 C 0.3694 0.58079 0.38311 0.0
C1177 C 0.39264 0.61548 0.35637 0.0
C1178 C 0.35849 0.57845 0.40199 0.0
C1179 C 0.35649 0.60881 0.41389 0.0
C1180 C 0.37866 0.61376 0.37588 0.0
C1181 C 0.36431 0.6418 0.40579 0.0
C1182 C 0.39723 0.64765 0.34628 0.0
C1183 C 0.41188 0.58298 0.32947 0.0
N1184 N 0.37536 0.64341 0.38728 0.0
N1185 N 0.4007 0.58445 0.34774 0.0
H1186 H 0.91147 0.58261 0.41122 0.0
H1187 H 0.88036 0.70322 0.31678 0.0
H1188 H 0.93106 0.69417 0.40567 0.0
H1189 H 0.85835 0.59178 0.31849 0.0
H1190 H 0.90079 0.69804 0.34911 0.0
H1191 H 0.89551 0.58237 0.37672 0.0
C1192 C 0.91321 0.6067 0.40255 0.0
C1193 C 0.92257 0.63849 0.4112 0.0
C1194 C 0.89151 0.67456 0.34256 0.0
C1195 C 0.90386 0.63865 0.37223 0.0
C1196 C 0.87966 0.67755 0.32402 0.0
C1197 C 0.8676 0.64786 0.31481 0.0
C1198 C 0.89142 0.64161 0.35227 0.0
C1199 C 0.86727 0.6154 0.3251 0.0
C1200 C 0.90376 0.60668 0.383 0.0
C1201 C 0.92392 0.66914 0.39954 0.0
N1202 N 0.87911 0.61308 0.34333 0.0
N1203 N 0.9145 0.6685 0.38077 0.0
H1204 H 0.34706 0.70458 0.8237 0.0
H1205 H 0.41402 0.59203 0.91206 0.0
H1206 H 0.36131 0.59159 0.81848 0.0
H1207 H 0.40617 0.70644 0.91003 0.0
H1208 H 0.39388 0.58885 0.87867 0.0
H1209 H 0.36538 0.70303 0.85692 0.0
C1210 C 0.35375 0.67925 0.82969 0.0
C1211 C 0.35276 0.64822 0.81827 0.0
C1212 C 0.39679 0.61457 0.88558 0.0
C1213 C 0.3746 0.64626 0.85645 0.0
C1214 C 0.40852 0.61642 0.90451 0.0
C1215 C 0.41166 0.64954 0.9139 0.0
C1216 C 0.38823 0.64606 0.87613 0.0
C1217 C 0.40393 0.68027 0.90353 0.0
C1218 C 0.36444 0.67838 0.84867 0.0
C1219 C 0.36159 0.6161 0.82687 0.0
N1220 N 0.39252 0.67772 0.88537 0.0
N1221 N 0.37245 0.61596 0.84544 0.0
H1222 H 0.86096 0.61436 0.80953 0.0
H1223 H 0.91124 0.61476 0.91859 0.0
H1224 H 0.94562 0.6428 0.82437 0.0
H1225 H 0.82564 0.63865 0.90401 0.0
H1226 H 0.92442 0.62431 0.88433 0.0
H1227 H 0.84738 0.6226 0.84384 0.0
C1228 C 0.87667 0.62261 0.82006 0.0
C1229 C 0.90454 0.62747 0.81424 0.0
C1230 C 0.90282 0.62795 0.88863 0.0
C1231 C 0.88915 0.63657 0.85353 0.0
C1232 C 0.89521 0.62223 0.90813 0.0
C1233 C 0.86722 0.62545 0.91402 0.0
C1234 C 0.88219 0.63611 0.87476 0.0
C1235 C 0.84739 0.63573 0.89999 0.0
C1236 C 0.86883 0.62756 0.83959 0.0
C1237 C 0.92397 0.63864 0.82834 0.0
N1238 N 0.85518 0.64003 0.88085 0.0
N1239 N 0.916 0.64214 0.84749 0.0
H1240 H 0.60169 0.45841 0.65746 0.0
H1241 H 0.64308 0.34361 0.56425 0.0
H1242 H 0.62473 0.34778 0.66289 0.0
H1243 H 0.66686 0.45402 0.56955 0.0
H1244 H 0.62811 0.34415 0.59874 0.0
H1245 H 0.61614 0.45684 0.62279 0.0
C1246 C 0.60929 0.43367 0.65125 0.0
C1247 C 0.61207 0.40317 0.66295 0.0
C1248 C 0.63681 0.36812 0.59234 0.0
C1249 C 0.62853 0.40128 0.62365 0.0
C1250 C 0.64539 0.36783 0.57276 0.0
C1251 C 0.65636 0.39876 0.56418 0.0
C1252 C 0.63853 0.39981 0.60318 0.0
C1253 C 0.6588 0.42953 0.57575 0.0
C1254 C 0.6178 0.43293 0.63161 0.0
C1255 C 0.62237 0.37188 0.65431 0.0
N1256 N 0.64959 0.42943 0.59466 0.0
N1257 N 0.63015 0.37167 0.63511 0.0
H1258 H 0.16962 0.29929 0.65879 0.0
H1259 H 0.13926 0.40886 0.56187 0.0
H1260 H 0.14799 0.41068 0.66203 0.0
H1261 H 0.10733 0.30243 0.56994 0.0
H1262 H 0.1531 0.40995 0.59669 0.0
H1263 H 0.15835 0.29984 0.62357 0.0
C1264 C 0.16299 0.32397 0.652 0.0
C1265 C 0.15962 0.35497 0.66325 0.0
C1266 C 0.14298 0.38649 0.59075 0.0
C1267 C 0.14698 0.35576 0.62325 0.0
C1268 C 0.13509 0.38583 0.571 0.0
C1269 C 0.12197 0.35561 0.56316 0.0
C1270 C 0.13845 0.35631 0.60246 0.0
C1271 C 0.1171 0.32638 0.57552 0.0
C1272 C 0.15635 0.32416 0.63203 0.0
C1273 C 0.15069 0.3862 0.65383 0.0
N1274 N 0.12565 0.32728 0.59456 0.0
N1275 N 0.14477 0.38587 0.63429 0.0
H1276 H 0.69733 0.34531 0.15463 0.0
H1277 H 0.57988 0.34973 0.07248 0.0
H1278 H 0.61233 0.37672 0.16692 0.0
H1279 H 0.66695 0.36615 0.05862 0.0
H1280 H 0.59132 0.3534 0.10751 0.0
H1281 H 0.68669 0.34689 0.11935 0.0
C1282 C 0.67652 0.35268 0.14992 0.0
C1283 C 0.65569 0.36086 0.16372 0.0
C1284 C 0.60785 0.35642 0.09677 0.0
C1285 C 0.64336 0.36223 0.1236 0.0
C1286 C 0.60137 0.3542 0.07681 0.0
C1287 C 0.62249 0.35766 0.06265 0.0
C1288 C 0.63571 0.36144 0.10257 0.0
C1289 C 0.64999 0.36351 0.06907 0.0
C1290 C 0.6705 0.35367 0.12983 0.0
C1291 C 0.62907 0.37032 0.15681 0.0
N1292 N 0.65588 0.36488 0.08859 0.0
N1293 N 0.62359 0.3704 0.13724 0.0
H1294 H 0.10265 0.45614 0.15786 0.0
H1295 H 0.14103 0.34418 0.06312 0.0
H1296 H 0.12625 0.34565 0.16301 0.0
H1297 H 0.16853 0.45279 0.07053 0.0
H1298 H 0.12626 0.34339 0.09775 0.0
H1299 H 0.11618 0.45465 0.12304 0.0
C1300 C 0.11018 0.43143 0.15156 0.0
C1301 C 0.11342 0.40098 0.16325 0.0
C1302 C 0.1357 0.36723 0.09174 0.0
C1303 C 0.12875 0.39915 0.1237 0.0
C1304 C 0.14416 0.3677 0.07209 0.0
C1305 C 0.15618 0.39851 0.06407 0.0
C1306 C 0.13854 0.39812 0.10316 0.0
C1307 C 0.15965 0.42837 0.07624 0.0
C1308 C 0.11814 0.43073 0.13182 0.0
C1309 C 0.12358 0.36972 0.15445 0.0
N1310 N 0.15051 0.4276 0.09514 0.0
N1311 N 0.1308 0.36953 0.13512 0.0
H1312 H 0.5656 0.93489 0.01702 0.0
H1313 H 0.44865 0.03533 0.95512 0.0
H1314 H 0.57 0.94884 0.95404 0.0
H1315 H 0.45976 0.05211 0.01744 0.0
H1316 H 0.49054 0.99856 0.95464 0.0
H1317 H 0.52311 0.97107 0.01762 0.0
C1318 C 0.55736 0.94498 0.00328 0.0
C1319 C 0.57137 0.9389 0.98543 0.0
C1320 C 0.484 0.0105 0.9684 0.0
C1321 C 0.52314 0.98058 0.98611 0.0
C1322 C 0.46015 0.03155 0.96868 0.0
C1323 C 0.45082 0.04677 0.98636 0.0
C1324 C 0.49844 0.00411 0.98597 0.0
C1325 C 0.46645 0.04106 0.00349 0.0
C1326 C 0.53334 0.96598 0.00369 0.0
C1327 C 0.55992 0.95295 0.96812 0.0
N1328 N 0.48944 0.0198 0.00293 0.0
N1329 N 0.53649 0.97319 0.9689 0.0
H1330 H 0.84617 0.26316 0.98121 0.0
H1331 H 0.6822 0.24796 0.96795 0.0
H1332 H 0.80256 0.16392 -0.0098 0.0
H1333 H 0.72236 0.34486 0.98715 0.0
H1334 H 0.72703 0.21692 0.97047 0.0
H1335 H 0.80143 0.29378 0.97849 0.0
C1336 C 0.82709 0.24785 0.98269 0.0
C1337 C 0.82793 0.21098 0.98592 0.0
C1338 C 0.72596 0.245 0.97403 0.0
C1339 C 0.77683 0.24577 0.98251 0.0
C1340 C 0.70054 0.26283 0.97237 0.0
C1341 C 0.69867 0.29906 0.9773 0.0
C1342 C 0.74966 0.26373 0.98031 0.0
C1343 C 0.72295 0.31692 0.98323 0.0
C1344 C 0.80164 0.26536 0.98117 0.0
C1345 C 0.80269 0.19242 0.98782 0.0
N1346 N 0.74751 0.29908 0.9845 0.0
N1347 N 0.77802 0.21001 0.98587 0.0
H1348 H 0.45396 0.20389 0.27797 0.0
H1349 H 0.56173 0.32166 0.21781 0.0
H1350 H 0.45999 0.19985 0.21467 0.0
H1351 H 0.57633 0.29091 0.27815 0.0
H1352 H 0.52048 0.2834 0.21722 0.0
H1353 H 0.49631 0.24011 0.27898 0.0
C1354 C 0.46451 0.2102 0.2643 0.0
C1355 C 0.45358 0.1989 0.2462 0.0
C1356 C 0.53269 0.28519 0.23059 0.0
C1357 C 0.50144 0.24103 0.24723 0.0
C1358 C 0.55601 0.30737 0.23105 0.0
C1359 C 0.5725 0.30947 0.24808 0.0
C1360 C 0.52562 0.26538 0.24735 0.0
C1361 C 0.56423 0.29003 0.26471 0.0
C1362 C 0.48857 0.23093 0.26489 0.0
C1363 C 0.46793 0.20781 0.22892 0.0
N1364 N 0.54132 0.26878 0.26394 0.0
N1365 N 0.49099 0.22885 0.22983 0.0
H1366 H 0.69481 0.9809 0.27688 0.0
H1367 H 0.81449 0.06075 0.20761 0.0
H1368 H 0.71252 0.94098 0.21859 0.0
H1369 H 0.802 0.09155 0.26817 0.0
H1370 H 0.77454 0.02033 0.21025 0.0
H1371 H 0.73323 0.02293 0.2735 0.0
C1372 C 0.70707 0.98055 0.26348 0.0
C1373 C 0.70036 0.9574 0.24798 0.0
C1374 C 0.78037 0.03627 0.22287 0.0
C1375 C 0.74405 0.0061 0.24383 0.0
C1376 C 0.80288 0.05973 0.22129 0.0
C1377 C 0.81157 0.07942 0.23772 0.0
C1378 C 0.76648 0.03271 0.24099 0.0
C1379 C 0.79605 0.0767 0.25517 0.0
C1380 C 0.72888 0.00479 0.2615 0.0
C1381 C 0.71699 0.95824 0.23095 0.0
N1382 N 0.7744 0.05355 0.25638 0.0
N1383 N 0.73794 0.98245 0.22926 0.0
H1384 H 0.22147 0.85169 -0.00599 0.0
H1385 H 0.30069 0.66592 -0.0073 0.0
H1386 H 0.18392 0.75672 0.96988 0.0
H1387 H 0.34426 0.76582 0.98611 0.0
H1388 H 0.25607 0.69818 -0.00949 0.0
H1389 H 0.266 0.8198 -0.00334 0.0
C1390 C 0.2227 0.82429 -0.01089 0.0
C1391 C 0.19914 0.80688 0.98157 0.0
C1392 C 0.27549 0.71288 -0.01039 0.0
C1393 C 0.24943 0.77019 0.9851 0.0
C1394 C 0.30081 0.6946 -0.00899 0.0
C1395 C 0.326 0.7133 -0.01056 0.0
C1396 C 0.27562 0.75002 0.9871 0.0
C1397 C 0.32519 0.75043 0.98718 0.0
C1398 C 0.24799 0.80614 -0.00933 0.0
C1399 C 0.20172 0.77126 0.97553 0.0
N1400 N 0.30037 0.76764 0.98615 0.0
N1401 N 0.22639 0.75392 0.97763 0.0
H1402 H 0.54817 0.8504 0.74571 0.0
H1403 H 0.4698 0.66534 0.74192 0.0
H1404 H 0.58876 0.75315 0.76379 0.0
H1405 H 0.42663 0.76328 0.75542 0.0
H1406 H 0.51451 0.69699 0.7453 0.0
H1407 H 0.50343 0.81876 0.74517 0.0
C1408 C 0.54757 0.82253 0.74979 0.0
C1409 C 0.57206 0.80436 0.75489 0.0
C1410 C 0.49516 0.71135 0.74758 0.0
C1411 C 0.52142 0.768 0.75376 0.0
C1412 C 0.46977 0.69343 0.74552 0.0
C1413 C 0.44462 0.71175 0.74846 0.0
C1414 C 0.49517 0.74783 0.75216 0.0
C1415 C 0.44561 0.74812 0.75318 0.0
C1416 C 0.52213 0.80453 0.74945 0.0
C1417 C 0.57025 0.7682 0.75997 0.0
N1418 N 0.47048 0.76506 0.75473 0.0
N1419 N 0.54536 0.751 0.75901 0.0
H1420 H 0.31114 0.06524 0.77898 0.0
H1421 H 0.20817 0.93813 0.72048 0.0
H1422 H 0.30761 0.062 0.71558 0.0
H1423 H 0.1916 0.97221 0.78006 0.0
H1424 H 0.2483 0.97821 0.71944 0.0
H1425 H 0.26918 0.02832 0.78042 0.0
C1426 C 0.30115 0.05732 0.76537 0.0
C1427 C 0.31277 0.06658 0.74713 0.0
C1428 C 0.23591 0.97676 0.73274 0.0
C1429 C 0.26546 0.02357 0.74868 0.0
C1430 C 0.21325 0.95353 0.73347 0.0
C1431 C 0.1965 0.95186 0.75039 0.0
C1432 C 0.24203 0.9981 0.74913 0.0
C1433 C 0.20393 0.97273 0.7667 0.0
C1434 C 0.27734 0.03612 0.7662 0.0
C1435 C 0.29915 0.05561 0.72992 0.0
N1436 N 0.22617 0.99504 0.76567 0.0
N1437 N 0.27638 0.03414 0.73111 0.0
H1438 H 0.5719 0.44824 0.44869 0.0
H1439 H 0.46239 0.5541 0.51442 0.0
H1440 H 0.5639 0.43249 0.51138 0.0
H1441 H 0.44863 0.53356 0.45269 0.0
H1442 H 0.50449 0.51704 0.51302 0.0
H1443 H 0.52981 0.48516 0.44933 0.0
C1444 C 0.56105 0.45208 0.46252 0.0
C1445 C 0.57138 0.43728 0.48 0.0
C1446 C 0.49227 0.52088 0.49978 0.0
C1447 C 0.52392 0.48018 0.4809 0.0
C1448 C 0.46852 0.54233 0.50052 0.0
C1449 C 0.45205 0.54672 0.48366 0.0
C1450 C 0.49969 0.50427 0.48201 0.0
C1451 C 0.46072 0.53062 0.46605 0.0
C1452 C 0.53717 0.47327 0.46288 0.0
C1453 C 0.55657 0.44321 0.49753 0.0
N1454 N 0.48398 0.51006 0.46567 0.0
N1455 N 0.53376 0.46461 0.49758 0.0
H1456 H 0.81565 0.68841 0.45082 0.0
H1457 H 0.71186 0.81382 0.50967 0.0
H1458 H 0.81335 0.69227 0.51424 0.0
H1459 H 0.69337 0.77614 0.45106 0.0
H1460 H 0.75271 0.7749 0.51046 0.0
H1461 H 0.77293 0.72398 0.44973 0.0
C1462 C 0.80582 0.69623 0.46452 0.0
C1463 C 0.81797 0.68744 0.48265 0.0
C1464 C 0.73972 0.77528 0.49742 0.0
C1465 C 0.76972 0.72889 0.48149 0.0
C1466 C 0.71662 0.79782 0.49684 0.0
C1467 C 0.69918 0.79824 0.48025 0.0
C1468 C 0.74562 0.75339 0.48122 0.0
C1469 C 0.70624 0.77662 0.46415 0.0
C1470 C 0.78156 0.71661 0.46388 0.0
C1471 C 0.80451 0.69828 0.49997 0.0
N1472 N 0.72897 0.75507 0.46502 0.0
N1473 N 0.78127 0.71896 0.49896 0.0
H1474 H 0.81121 0.5588 0.70807 0.0
H1475 H 0.69859 0.45999 0.77574 0.0
H1476 H 0.81334 0.55808 0.77152 0.0
H1477 H 0.7063 0.44065 0.71334 0.0
H1478 H 0.73888 0.49946 0.7741 0.0
H1479 H 0.7693 0.52096 0.70915 0.0
C1480 C 0.80245 0.55136 0.72218 0.0
C1481 C 0.81564 0.56136 0.73973 0.0
C1482 C 0.73193 0.48636 0.76078 0.0
C1483 C 0.7685 0.5179 0.74109 0.0
C1484 C 0.70903 0.46362 0.76174 0.0
C1485 C 0.69908 0.44699 0.74466 0.0
C1486 C 0.74484 0.49282 0.74258 0.0
C1487 C 0.7134 0.45275 0.7269 0.0
C1488 C 0.77886 0.52943 0.7228 0.0
C1489 C 0.80382 0.5507 0.75765 0.0
N1490 N 0.73544 0.4755 0.72627 0.0
N1491 N 0.78101 0.52943 0.75787 0.0
H1492 H 0.34534 0.26363 0.48278 0.0
H1493 H 0.18197 0.25252 0.46664 0.0
H1494 H 0.30016 0.16493 0.48951 0.0
H1495 H 0.22166 0.34678 0.48994 0.0
H1496 H 0.22649 0.22092 0.46896 0.0
H1497 H 0.30105 0.29543 0.4801 0.0
C1498 C 0.32602 0.24868 0.48373 0.0
C1499 C 0.32626 0.21162 0.48633 0.0
C1500 C 0.2254 0.24856 0.47346 0.0
C1501 C 0.27577 0.24775 0.48298 0.0
C1502 C 0.20016 0.26675 0.47193 0.0
C1503 C 0.19822 0.30236 0.47807 0.0
C1504 C 0.24889 0.26633 0.48083 0.0
C1505 C 0.22231 0.31934 0.48507 0.0
C1506 C 0.30085 0.26685 0.48225 0.0
C1507 C 0.30075 0.19353 0.48761 0.0
N1508 N 0.24675 0.30117 0.4862 0.0
N1509 N 0.27638 0.21179 0.48569 0.0
H1510 H 0.20924 0.43798 0.21428 0.0
H1511 H 0.31949 0.54893 0.27699 0.0
H1512 H 0.20199 0.45424 0.27698 0.0
H1513 H 0.31228 0.5585 0.21394 0.0
H1514 H 0.27828 0.51087 0.27732 0.0
H1515 H 0.25033 0.47664 0.21398 0.0
C1516 C 0.21658 0.4491 0.22804 0.0
C1517 C 0.20213 0.44295 0.24569 0.0
C1518 C 0.28548 0.52158 0.26343 0.0
C1519 C 0.24872 0.48757 0.24535 0.0
C1520 C 0.30889 0.54343 0.26323 0.0
C1521 C 0.31921 0.55684 0.2454 0.0
C1522 C 0.27249 0.51261 0.24562 0.0
C1523 C 0.3048 0.54891 0.22801 0.0
C1524 C 0.23979 0.47153 0.2278 0.0
C1525 C 0.21243 0.45835 0.26304 0.0
N1526 N 0.28227 0.52687 0.22851 0.0
N1527 N 0.23506 0.48004 0.26242 0.0
H1528 H 0.06358 0.93402 0.51723 0.0
H1529 H 0.94858 0.0359 0.45412 0.0
H1530 H 0.06755 0.94451 0.45403 0.0
H1531 H 0.95919 0.05286 0.51647 0.0
H1532 H 0.9898 0.99792 0.454 0.0
H1533 H 0.02162 0.97117 0.51743 0.0
C1534 C 0.05533 0.94352 0.50336 0.0
C1535 C 0.06911 0.93627 0.48557 0.0
C1536 C 0.98331 0.01018 0.46769 0.0
C1537 C 0.02154 0.97911 0.48578 0.0
C1538 C 0.95986 0.03195 0.46776 0.0
C1539 C 0.95055 0.04751 0.48534 0.0
C1540 C 0.99737 0.00347 0.48538 0.0
C1541 C 0.96588 0.04157 0.50259 0.0
C1542 C 0.03162 0.96509 0.50354 0.0
C1543 C 0.05765 0.94957 0.46808 0.0
N1544 N 0.98847 0.01962 0.50223 0.0
N1545 N 0.03457 0.97045 0.46863 0.0
H1546 H 0.06116 0.32113 0.71362 0.0
H1547 H 0.94667 0.21832 0.77686 0.0
H1548 H 0.06594 0.31002 0.77676 0.0
H1549 H 0.95749 0.20166 0.71449 0.0
H1550 H 0.98791 0.2564 0.77702 0.0
H1551 H 0.01937 0.28373 0.71358 0.0
C1552 C 0.05313 0.31141 0.72751 0.0
C1553 C 0.0671 0.31862 0.74523 0.0
C1554 C 0.98144 0.24417 0.76333 0.0
C1555 C 0.01966 0.27546 0.74521 0.0
C1556 C 0.95798 0.22234 0.76323 0.0
C1557 C 0.94872 0.20683 0.74562 0.0
C1558 C 0.99553 0.25099 0.74564 0.0
C1559 C 0.96411 0.2129 0.7284 0.0
C1560 C 0.02951 0.2897 0.72743 0.0
C1561 C 0.0559 0.30502 0.76276 0.0
N1562 N 0.98666 0.23489 0.72879 0.0
N1563 N 0.03286 0.28401 0.7623 0.0
H1564 H 0.92697 0.76242 0.23342 0.0
H1565 H 0.08765 0.75487 0.25795 0.0
H1566 H 0.97214 0.66309 0.23414 0.0
H1567 H 0.05071 0.84593 0.22923 0.0
H1568 H 0.04414 0.722 0.25317 0.0
H1569 H 0.97119 0.7947 0.23472 0.0
C1570 C 0.94633 0.74747 0.2336 0.0
C1571 C 0.94613 0.71015 0.23371 0.0
C1572 C 0.04562 0.74917 0.24794 0.0
C1573 C 0.99651 0.74677 0.23565 0.0
C1574 C 0.07025 0.76813 0.25088 0.0
C1575 C 0.07266 0.80329 0.24409 0.0
C1576 C 0.02314 0.76571 0.23845 0.0
C1577 C 0.04965 0.81892 0.23473 0.0
C1578 C 0.97147 0.76587 0.23433 0.0
C1579 C 0.9716 0.6919 0.23392 0.0
N1580 N 0.02571 0.80006 0.2323 0.0
N1581 N 0.99592 0.71046 0.23521 0.0
H1582 H 0.96064 0.55934 0.02129 0.0
H1583 H 0.08098 0.47808 0.95306 0.0
H1584 H 0.96396 0.57201 0.95827 0.0
H1585 H 0.0661 0.44329 0.01272 0.0
H1586 H 0.04119 0.51821 0.95572 0.0
H1587 H 1.00392 0.52425 0.01976 0.0
C1588 C 0.97093 0.55555 0.00725 0.0
C1589 C 0.95885 0.56833 -0.01013 0.0
C1590 C 0.04652 0.50164 0.96819 0.0
C1591 C 1.00756 0.528 0.98794 0.0
C1592 C 0.06912 0.47854 0.96664 0.0
C1593 C 0.0768 0.45719 0.98266 0.0
C1594 C 0.0316 0.50366 0.98594 0.0
C1595 C 0.06075 0.45905 -7e-05 0.0
C1596 C 0.99531 0.53516 0.00633 0.0
C1597 C 0.97264 0.56236 0.97198 0.0
N1598 N 0.03897 0.4821 0.00117 0.0
N1599 N 0.99617 0.54242 0.97146 0.0
H1600 H 0.3669 0.08947 0.16897 0.0
H1601 H 0.36804 0.1652 0.06169 0.0
H1602 H 0.33801 0.19652 0.15833 0.0
H1603 H 0.3355 0.05995 0.07262 0.0
H1604 H 0.36656 0.17729 0.09719 0.0
H1605 H 0.36495 0.07772 0.13346 0.0
C1606 C 0.36024 0.1105 0.15913 0.0
C1607 C 0.3526 0.14401 0.1665 0.0
C1608 C 0.35968 0.15165 0.09174 0.0
C1609 C 0.35088 0.13094 0.12611 0.0
C1610 C 0.36065 0.14465 0.07159 0.0
C1611 C 0.35187 0.11154 0.06431 0.0
C1612 C 0.35068 0.12495 0.10467 0.0
C1613 C 0.34232 0.08586 0.0777 0.0
C1614 C 0.35899 0.10371 0.13898 0.0
C1615 C 0.34395 0.17031 0.15318 0.0
N1616 N 0.34235 0.09292 0.09732 0.0
N1617 N 0.34368 0.16338 0.13353 0.0
H1618 H 0.92102 0.17047 0.1654 0.0
H1619 H 0.90461 0.09036 0.05951 0.0
H1620 H 0.93154 0.05764 0.15621 0.0
H1621 H 0.94717 0.19032 0.06851 0.0
H1622 H 0.90733 0.07889 0.09504 0.0
H1623 H 0.92394 0.1798 0.12981 0.0
C1624 C 0.92411 0.1477 0.15585 0.0
C1625 C 0.92609 0.11324 0.16366 0.0
C1626 C 0.91618 0.10319 0.08914 0.0
C1627 C 0.92877 0.12366 0.12308 0.0
C1628 C 0.91445 0.10989 0.06897 0.0
C1629 C 0.92561 0.14139 0.06113 0.0
C1630 C 0.92846 0.12861 0.10154 0.0
C1631 C 0.93837 0.16569 0.07398 0.0
C1632 C 0.92585 0.15306 0.13562 0.0
C1633 C 0.93012 0.08461 0.15071 0.0
N1634 N 0.93912 0.15902 0.09362 0.0
N1635 N 0.93088 0.09038 0.13094 0.0
H1636 H 0.69727 0.92413 0.81193 0.0
H1637 H 0.70618 0.83592 0.91855 0.0
H1638 H 0.68857 0.81117 0.82201 0.0
H1639 H 0.67975 0.94443 0.90885 0.0
H1640 H 0.71058 0.82799 0.88294 0.0
H1641 H 0.70166 0.93322 0.84747 0.0
C1642 C 0.69659 0.90123 0.82159 0.0
C1643 C 0.69228 0.86688 0.81406 0.0
C1644 C 0.70401 0.85357 0.88867 0.0
C1645 C 0.69747 0.8771 0.85453 0.0
C1646 C 0.70159 0.85817 0.90895 0.0
C1647 C 0.69231 0.89078 0.91662 0.0
C1648 C 0.6975 0.88192 0.87605 0.0
C1649 C 0.68665 0.91872 0.90352 0.0
C1650 C 0.69898 0.90646 0.84183 0.0
C1651 C 0.69154 0.83814 0.82723 0.0
N1652 N 0.6893 0.91364 0.88384 0.0
N1653 N 0.69407 0.8439 0.84686 0.0
H1654 H 0.08857 0.8088 0.90862 0.0
H1655 H 0.08136 0.94712 0.82165 0.0
H1656 H 0.0674 0.91926 0.91806 0.0
H1657 H 0.06847 0.8346 0.81234 0.0
H1658 H 0.07751 0.93766 0.85707 0.0
H1659 H 0.08272 0.81753 0.87324 0.0
C1660 C 0.08258 0.83485 0.90325 0.0
C1661 C 0.07871 0.86346 0.91626 0.0
C1662 C 0.07519 0.91512 0.84727 0.0
C1663 C 0.07215 0.87358 0.87589 0.0
C1664 C 0.07751 0.92045 0.82707 0.0
C1665 C 0.07546 0.89153 0.8141 0.0
C1666 C 0.07134 0.88052 0.85454 0.0
C1667 C 0.07021 0.8576 0.82187 0.0
C1668 C 0.07908 0.83973 0.88309 0.0
C1669 C 0.07067 0.89653 0.90853 0.0
N1670 N 0.06873 0.85292 0.84166 0.0
N1671 N 0.068 0.90082 0.8888 0.0
H1672 H 0.30802 0.64913 0.66338 0.0
H1673 H 0.40006 0.61589 0.56742 0.0
H1674 H 0.39718 0.63252 0.66558 0.0
H1675 H 0.31136 0.59559 0.56935 0.0
H1676 H 0.39937 0.62786 0.60277 0.0
H1677 H 0.30881 0.63565 0.62819 0.0
C1678 C 0.32779 0.64276 0.65647 0.0
C1679 C 0.35259 0.64197 0.66747 0.0
C1680 C 0.38009 0.62064 0.59546 0.0
C1681 C 0.35359 0.62666 0.62717 0.0
C1682 C 0.38043 0.61391 0.57527 0.0
C1683 C 0.35571 0.60472 0.56539 0.0
C1684 C 0.35479 0.6187 0.60583 0.0
C1685 C 0.33092 0.60245 0.57636 0.0
C1686 C 0.32817 0.6349 0.6364 0.0
C1687 C 0.37755 0.63336 0.65771 0.0
N1688 N 0.33105 0.60964 0.59597 0.0
N1689 N 0.37744 0.62622 0.63809 0.0
H1690 H 0.93787 0.69527 0.56952 0.0
H1691 H 0.9351 0.55788 0.65793 0.0
H1692 H 0.90752 0.58811 0.56132 0.0
H1693 H 0.90931 0.66701 0.66589 0.0
H1694 H 0.93711 0.56805 0.62218 0.0
H1695 H 0.9395 0.68472 0.60519 0.0
C1696 C 0.93176 0.6695 0.57523 0.0
C1697 C 0.92236 0.64258 0.56257 0.0
C1698 C 0.93116 0.5897 0.63186 0.0
C1699 C 0.92478 0.63024 0.60297 0.0
C1700 C 0.93013 0.58399 0.65215 0.0
C1701 C 0.92186 0.61161 0.66475 0.0
C1702 C 0.92467 0.62347 0.62432 0.0
C1703 C 0.91552 0.64496 0.6566 0.0
C1704 C 0.93261 0.66358 0.59549 0.0
C1705 C 0.91461 0.60965 0.57066 0.0
N1706 N 0.91725 0.65007 0.63687 0.0
N1707 N 0.91618 0.60427 0.59039 0.0
H1708 H 0.68657 0.31088 0.31976 0.0
H1709 H 0.68704 0.44588 0.40843 0.0
H1710 H 0.70232 0.42312 0.31164 0.0
H1711 H 0.7051 0.33416 0.41622 0.0
H1712 H 0.69182 0.43833 0.3729 0.0
H1713 H 0.69237 0.31865 0.35519 0.0
C1714 C 0.6914 0.33713 0.32543 0.0
C1715 C 0.69371 0.36649 0.31279 0.0
C1716 C 0.69508 0.41558 0.38241 0.0
C1717 C 0.70018 0.37554 0.35324 0.0
C1718 C 0.69223 0.41981 0.40266 0.0
C1719 C 0.69542 0.3905 0.41523 0.0
C1720 C 0.70062 0.38167 0.37468 0.0
C1721 C 0.70241 0.35742 0.40701 0.0
C1722 C 0.69487 0.34149 0.34563 0.0
C1723 C 0.70028 0.39981 0.32089 0.0
N1724 N 0.70437 0.35376 0.38718 0.0
N1725 N 0.70291 0.40354 0.34067 0.0
H1726 H 0.08461 0.30806 0.4076 0.0
H1727 H 0.09155 0.44646 0.32055 0.0
H1728 H 0.07265 0.42072 0.41704 0.0
H1729 H 0.06877 0.3365 0.31126 0.0
H1730 H 0.08649 0.4377 0.35599 0.0
H1731 H 0.08063 0.31769 0.37218 0.0
C1732 C 0.081 0.3348 0.40221 0.0
C1733 C 0.07916 0.3637 0.41523 0.0
C1734 C 0.0823 0.41562 0.34617 0.0
C1735 C 0.07484 0.37488 0.37479 0.0
C1736 C 0.08533 0.42053 0.32596 0.0
C1737 C 0.08078 0.39206 0.31298 0.0
C1738 C 0.0752 0.38186 0.35343 0.0
C1739 C 0.07251 0.35913 0.32077 0.0
C1740 C 0.07858 0.34023 0.38202 0.0
C1741 C 0.07421 0.39773 0.40749 0.0
N1742 N 0.07035 0.35479 0.34054 0.0
N1743 N 0.0726 0.40247 0.38771 0.0
H1744 H 0.86876 0.16611 0.56091 0.0
H1745 H 0.86656 0.0916 0.66856 0.0
H1746 H 0.83614 0.06102 0.5722 0.0
H1747 H 0.83752 0.1984 0.65736 0.0
H1748 H 0.8654 0.07957 0.63306 0.0
H1749 H 0.86725 0.1786 0.59638 0.0
C1750 C 0.86137 0.14567 0.57088 0.0
C1751 C 0.85254 0.1125 0.56371 0.0
C1752 C 0.85926 0.10557 0.63845 0.0
C1753 C 0.85132 0.12637 0.60403 0.0
C1754 C 0.86006 0.11252 0.6586 0.0
C1755 C 0.85211 0.14603 0.6658 0.0
C1756 C 0.85129 0.13264 0.62544 0.0
C1757 C 0.84368 0.17219 0.65233 0.0
C1758 C 0.86038 0.1529 0.59101 0.0
C1759 C 0.843 0.08697 0.57718 0.0
N1760 N 0.84383 0.1651 0.6327 0.0
N1761 N 0.84299 0.09426 0.59678 0.0
H1762 H 0.39963 0.08672 0.56089 0.0
H1763 H 0.40181 0.16608 0.66775 0.0
H1764 H 0.43579 0.19009 0.57172 0.0
H1765 H 0.42702 0.05709 0.65841 0.0
H1766 H 0.40373 0.17603 0.6321 0.0
H1767 H 0.39922 0.0756 0.59656 0.0
C1768 C 0.40737 0.10706 0.57079 0.0
C1769 C 0.41781 0.13933 0.56345 0.0
C1770 C 0.40883 0.14999 0.63792 0.0
C1771 C 0.41683 0.12709 0.60392 0.0
C1772 C 0.40762 0.14423 0.65816 0.0
C1773 C 0.41434 0.11073 0.66594 0.0
C1774 C 0.41598 0.12178 0.62539 0.0
C1775 C 0.42187 0.08334 0.65294 0.0
C1776 C 0.40726 0.10062 0.59103 0.0
C1777 C 0.42773 0.1648 0.57684 0.0
N1778 N 0.42217 0.08933 0.6332 0.0
N1779 N 0.42668 0.15833 0.59649 0.0
H1780 H 0.17892 0.80964 0.32119 0.0
H1781 H 0.17965 0.94498 0.40986 0.0
H1782 H 0.19661 0.92135 0.31289 0.0
H1783 H 0.19963 0.8338 0.41767 0.0
H1784 H 0.18307 0.93708 0.37425 0.0
H1785 H 0.18345 0.81783 0.35671 0.0
C1786 C 0.18381 0.83588 0.32685 0.0
C1787 C 0.18722 0.86494 0.31411 0.0
C1788 C 0.187 0.91453 0.38378 0.0
C1789 C 0.19225 0.87444 0.35464 0.0
C1790 C 0.18493 0.91896 0.40407 0.0
C1791 C 0.1892 0.88992 0.41669 0.0
C1792 C 0.1928 0.88069 0.37607 0.0
C1793 C 0.1962 0.85686 0.40844 0.0
C1794 C 0.18658 0.84045 0.34709 0.0
C1795 C 0.19381 0.89826 0.32221 0.0
N1796 N 0.19741 0.853 0.38859 0.0
N1797 N 0.19578 0.90222 0.34202 0.0
H1798 H 0.58725 0.80783 0.40814 0.0
H1799 H 0.59065 0.94973 0.32256 0.0
H1800 H 0.5727 0.91968 0.41871 0.0
H1801 H 0.57101 0.83913 0.31208 0.0
H1802 H 0.58606 0.93941 0.35791 0.0
H1803 H 0.58326 0.81857 0.37281 0.0
C1804 C 0.58307 0.83461 0.40302 0.0
C1805 C 0.58049 0.86297 0.41634 0.0
C1806 C 0.58247 0.91751 0.34785 0.0
C1807 C 0.57616 0.87541 0.37601 0.0
C1808 C 0.58523 0.92332 0.3277 0.0
C1809 C 0.5814 0.89517 0.3144 0.0
C1810 C 0.57636 0.88318 0.35473 0.0
C1811 C 0.57416 0.86157 0.32184 0.0
C1812 C 0.58066 0.84067 0.38288 0.0
C1813 C 0.57484 0.89708 0.40893 0.0
N1814 N 0.57223 0.85638 0.34156 0.0
N1815 N 0.57322 0.90245 0.38921 0.0
H1816 H 0.85538 0.66508 0.06181 0.0
H1817 H 0.86143 0.5855 0.16786 0.0
H1818 H 0.83709 0.55378 0.07075 0.0
H1819 H 0.8245 0.68867 0.15778 0.0
H1820 H 0.85916 0.57354 0.1324 0.0
H1821 H 0.85072 0.67509 0.09726 0.0
C1822 C 0.85034 0.64278 0.07128 0.0
C1823 C 0.84667 0.60854 0.06345 0.0
C1824 C 0.85135 0.59862 0.13803 0.0
C1825 C 0.84179 0.61973 0.10384 0.0
C1826 C 0.85279 0.60557 0.15817 0.0
C1827 C 0.84322 0.63818 0.16566 0.0
C1828 C 0.84101 0.62487 0.12534 0.0
C1829 C 0.83203 0.66319 0.15255 0.0
C1830 C 0.84753 0.64856 0.09141 0.0
C1831 C 0.83999 0.58057 0.07628 0.0
N1832 N 0.83163 0.65624 0.13293 0.0
N1833 N 0.83818 0.58666 0.09598 0.0
H1834 H 0.43413 0.55963 0.15946 0.0
H1835 H 0.43797 0.6966 0.07197 0.0
H1836 H 0.4048 0.66713 0.16802 0.0
H1837 H 0.40473 0.59119 0.06258 0.0
H1838 H 0.43744 0.68567 0.10762 0.0
H1839 H 0.43489 0.57008 0.12373 0.0
C1840 C 0.42803 0.58544 0.15381 0.0
C1841 C 0.4193 0.61256 0.1666 0.0
C1842 C 0.43035 0.66501 0.09768 0.0
C1843 C 0.42074 0.62476 0.12614 0.0
C1844 C 0.43075 0.67111 0.07743 0.0
C1845 C 0.42129 0.64476 0.06442 0.0
C1846 C 0.42125 0.63199 0.10483 0.0
C1847 C 0.41201 0.61223 0.07219 0.0
C1848 C 0.42834 0.59127 0.13352 0.0
C1849 C 0.41147 0.6455 0.15859 0.0
N1850 N 0.41249 0.60657 0.09194 0.0
N1851 N 0.41267 0.65085 0.13883 0.0
H1852 H 0.18879 0.45005 0.90828 0.0
H1853 H 0.17771 0.31307 0.8208 0.0
H1854 H 0.20081 0.33727 0.91705 0.0
H1855 H 0.20202 0.4225 0.81156 0.0
H1856 H 0.18402 0.32132 0.8562 0.0
H1857 H 0.19168 0.44082 0.87276 0.0
C1858 C 0.19223 0.42337 0.90272 0.0
C1859 C 0.19437 0.39432 0.91558 0.0
C1860 C 0.18825 0.34338 0.84639 0.0
C1861 C 0.19738 0.38359 0.87504 0.0
C1862 C 0.1845 0.33878 0.82622 0.0
C1863 C 0.18915 0.36724 0.81326 0.0
C1864 C 0.19617 0.37685 0.85366 0.0
C1865 C 0.19817 0.39988 0.82105 0.0
C1866 C 0.19401 0.41817 0.88247 0.0
C1867 C 0.19905 0.36037 0.90762 0.0
N1868 N 0.20103 0.40394 0.8408 0.0
N1869 N 0.2 0.35584 0.8878 0.0
H1870 H 0.57267 0.41952 0.91717 0.0
H1871 H 0.56911 0.33336 0.80985 0.0
H1872 H 0.58738 0.30771 0.90654 0.0
H1873 H 0.58976 0.44356 0.82065 0.0
H1874 H 0.56537 0.32393 0.84542 0.0
H1875 H 0.5685 0.42888 0.88169 0.0
C1876 C 0.57477 0.39689 0.9074 0.0
C1877 C 0.58063 0.36283 0.91478 0.0
C1878 C 0.57054 0.35018 0.83993 0.0
C1879 C 0.5757 0.37337 0.87432 0.0
C1880 C 0.57255 0.35563 0.81969 0.0
C1881 C 0.57999 0.38922 0.81234 0.0
C1882 C 0.57556 0.37866 0.85283 0.0
C1883 C 0.58427 0.41715 0.82572 0.0
C1884 C 0.57249 0.4023 0.88718 0.0
C1885 C 0.58316 0.33447 0.90144 0.0
N1886 N 0.582 0.41124 0.84534 0.0
N1887 N 0.58069 0.34038 0.88181 0.0
H1888 H 0.13184 0.98206 0.95479 0.0
H1889 H 0.23951 0.0942 0.01835 0.0
H1890 H 0.12931 0.99202 0.01783 0.0
H1891 H 0.24389 0.08784 0.95518 0.0
H1892 H 0.19277 0.06843 0.01736 0.0
H1893 H 0.16569 0.03126 0.95344 0.0
C1894 C 0.1374 0.99578 0.96826 0.0
C1895 C 0.12744 0.98341 0.98644 0.0
C1896 C 0.20354 0.0733 0.00361 0.0
C1897 C 0.16698 0.03865 0.98514 0.0
C1898 C 0.2302 0.08832 0.00419 0.0
C1899 C 0.24553 0.09331 0.98683 0.0
C1900 C 0.19224 0.06213 0.98554 0.0
C1901 C 0.23262 0.08478 0.96889 0.0
C1902 C 0.15705 0.02353 0.96752 0.0
C1903 C 0.13614 1.00116 0.00351 0.0
N1904 N 0.20694 0.06892 0.96872 0.0
N1905 N 0.1556 0.02748 0.00246 0.0
H1906 H 0.16043 0.25345 0.00826 0.0
H1907 H 0.03849 0.1577 0.01393 0.0
H1908 H 0.12298 0.29436 0.95536 0.0
H1909 H 0.03113 0.16941 0.95116 0.0
H1910 H 0.08411 0.18623 0.01274 0.0
H1911 H 0.12919 0.20164 0.00655 0.0
C1912 C 0.14624 0.25086 -0.00406 0.0
C1913 C 0.14435 0.27798 0.98186 0.0
C1914 C 0.0733 0.18137 -0.00096 0.0
C1915 C 0.10741 0.22001 0.98032 0.0
C1916 C 0.04711 0.16498 -0.00025 0.0
C1917 C 0.03115 0.1608 0.9826 0.0
C1918 C 0.08346 0.19455 0.98105 0.0
C1919 C 0.04297 0.17157 0.96467 0.0
C1920 C 0.12797 0.22166 -0.00485 0.0
C1921 C 0.12518 0.27381 0.96642 0.0
N1922 N 0.0681 0.18875 0.96443 0.0
N1923 N 0.10729 0.24566 0.96617 0.0
H1924 H 0.24269 0.16311 0.27453 0.0
H1925 H 0.12832 0.26377 0.20977 0.0
H1926 H 0.24123 0.16697 0.21121 0.0
H1927 H 0.13363 0.27454 0.27268 0.0
H1928 H 0.16144 0.21434 0.21117 0.0
H1929 H 0.19582 0.19024 0.27515 0.0
C1930 C 0.23208 0.16842 0.26077 0.0
C1931 C 0.24581 0.16279 0.24278 0.0
C1932 C 0.15487 0.22674 0.22479 0.0
C1933 C 0.19256 0.19426 0.24334 0.0
C1934 C 0.13562 0.25466 0.22399 0.0
C1935 C 0.1279 0.27285 0.24115 0.0
C1936 C 0.16717 0.21743 0.24286 0.0
C1937 C 0.13866 0.26071 0.25916 0.0
C1938 C 0.20546 0.18425 0.26112 0.0
C1939 C 0.23138 0.1709 0.2254 0.0
N1940 N 0.15815 0.23419 0.25953 0.0
N1941 N 0.20578 0.18645 0.22611 0.0
H1942 H 0.02395 0.0914 0.27548 0.0
H1943 H 0.14154 0.99306 0.21192 0.0
H1944 H 0.02675 0.0869 0.2122 0.0
H1945 H 0.13383 0.98051 0.27461 0.0
H1946 H 0.10744 0.04148 0.21308 0.0
H1947 H 0.07087 0.06435 0.27661 0.0
C1948 C 0.03484 0.0859 0.26185 0.0
C1949 C 0.0215 0.09142 0.24371 0.0
C1950 C 0.11369 0.02891 0.22672 0.0
C1951 C 0.07483 0.06013 0.24484 0.0
C1952 C 0.1335 1.0016 0.22607 0.0
C1953 C 0.14088 0.98323 0.24323 0.0
C1954 C 0.10053 0.03746 0.24463 0.0
C1955 C 0.12911 0.99455 0.26111 0.0
C1956 C 0.06148 0.07014 0.26248 0.0
C1957 C 0.03629 0.08308 0.22649 0.0
N1958 N 0.10916 0.02053 0.26132 0.0
N1959 N 0.06193 0.06768 0.22748 0.0
H1960 H 0.78587 0.89988 0.96539 0.0
H1961 H 0.8975 0.02442 0.01927 0.0
H1962 H 0.78243 0.93269 0.0261 0.0
H1963 H 0.88952 0.01894 0.95627 0.0
H1964 H 0.86514 0.97444 0.02241 0.0
H1965 H 0.83229 0.92767 0.96255 0.0
C1966 C 0.79529 0.91181 0.97829 0.0
C1967 C 0.78027 0.9141 -0.00399 0.0
C1968 C 0.87101 0.9834 0.00784 0.0
C1969 C 0.83311 0.94603 -0.00716 0.0
C1970 C 0.88979 0.01163 0.00605 0.0
C1971 C 0.8964 0.02551 0.98749 0.0
C1972 C 0.85823 0.96928 -0.00905 0.0
C1973 C 0.88527 0.00858 0.97083 0.0
C1974 C 0.82164 0.92796 0.97661 0.0
C1975 C 0.79324 0.93044 0.01216 0.0
N1976 N 0.86629 0.98171 0.97295 0.0
N1977 N 0.81873 0.94595 0.01015 0.0
H1978 H 0.9921 0.83093 0.0292 0.0
H1979 H 0.88099 0.74042 0.96012 0.0
H1980 H 0.98722 0.85483 0.96732 0.0
H1981 H 0.87909 0.73512 0.02337 0.0
H1982 H 0.9136 0.79088 0.9623 0.0
H1983 H 0.94554 0.80481 0.02771 0.0
C1984 C 0.98085 0.83148 0.01538 0.0
C1985 C 0.99354 0.84502 -0.00162 0.0
C1986 C 0.9053 0.7795 0.97572 0.0
C1987 C 0.94041 0.81373 -0.00372 0.0
C1988 C 0.88639 0.751 0.97445 0.0
C1989 C 0.87728 0.73375 -0.0084 0.0
C1990 C 0.9153 0.79039 -0.00574 0.0
C1991 C 0.88555 0.74782 0.0098 0.0
C1992 C 0.95424 0.8164 0.01448 0.0
C1993 C 0.97808 0.84486 0.98081 0.0
N1994 N 0.90439 0.77481 0.01065 0.0
N1995 N 0.95257 0.82867 0.9801 0.0
H1996 H 0.89087 0.73671 0.7052 0.0
H1997 H 0.78212 0.85933 0.7629 0.0
H1998 H 0.88704 0.74213 0.7684 0.0
H1999 H 0.77715 0.83096 0.70157 0.0
H2000 H 0.82878 0.83195 0.76442 0.0
H2001 H 0.85886 0.78717 0.70315 0.0
C2002 C 0.88412 0.74955 0.71867 0.0
C2003 C 0.89176 0.73547 0.73699 0.0
C2004 C 0.81775 0.83258 0.75053 0.0
C2005 C 0.85393 0.79227 0.73482 0.0
C2006 C 0.79125 0.84851 0.7496 0.0
C2007 C 0.77572 0.84727 0.73209 0.0
C2008 C 0.82881 0.8157 0.73376 0.0
C2009 C 0.78835 0.83235 0.71538 0.0
C2010 C 0.86554 0.77809 0.71752 0.0
C2011 C 0.88193 0.75257 0.754 0.0
N2012 N 0.81395 0.81693 0.71668 0.0
N2013 N 0.86304 0.77967 0.75253 0.0
H2014 H 0.87882 0.02803 0.70589 0.0
H2015 H 0.98487 0.89893 0.7616 0.0
H2016 H 0.8817 0.01817 0.76894 0.0
H2017 H 0.99171 0.93187 0.70107 0.0
H2018 H 0.9386 0.92726 0.76331 0.0
H2019 H 0.91041 0.97724 0.70292 0.0
C2020 C 0.88528 0.01417 0.7191 0.0
C2021 C 0.87747 0.02701 0.73767 0.0
C2022 C 0.94994 0.92745 0.74952 0.0
C2023 C 0.91476 0.96981 0.73448 0.0
C2024 C 0.97622 0.91099 0.74848 0.0
C2025 C 0.99221 0.91323 0.73118 0.0
C2026 C 0.93954 0.94588 0.73308 0.0
C2027 C 0.98017 0.9297 0.71472 0.0
C2028 C 0.9036 0.98544 0.71743 0.0
C2029 C 0.88694 0.00867 0.75436 0.0
N2030 N 0.95477 0.94562 0.71613 0.0
N2031 N 0.90554 0.98135 0.7524 0.0
H2032 H 0.24426 0.59167 0.45586 0.0
H2033 H 0.12614 0.49085 0.5174 0.0
H2034 H 0.24032 0.58582 0.51909 0.0
H2035 H 0.13619 0.47929 0.45482 0.0
H2036 H 0.15938 0.54033 0.517 0.0
H2037 H 0.19731 0.56499 0.45413 0.0
C2038 C 0.2331 0.58603 0.46937 0.0
C2039 C 0.24617 0.59093 0.48765 0.0
C2040 C 0.15377 0.52777 0.50321 0.0
C2041 C 0.19279 0.55997 0.48582 0.0
C2042 C 0.13444 0.49985 0.50343 0.0
C2043 C 0.12803 0.48145 0.48607 0.0
C2044 C 0.16736 0.53689 0.48556 0.0
C2045 C 0.14016 0.49333 0.46845 0.0
C2046 C 0.20643 0.57045 0.46838 0.0
C2047 C 0.23101 0.58243 0.50469 0.0
N2048 N 0.1596 0.5199 0.46867 0.0
N2049 N 0.20535 0.56712 0.50336 0.0
H2050 H 0.14411 0.76145 0.52088 0.0
H2051 H 0.03167 0.65914 0.45522 0.0
H2052 H 0.14092 0.77043 0.45781 0.0
H2053 H 0.03147 0.66446 0.51851 0.0
H2054 H 0.07856 0.68627 0.45504 0.0
H2055 H 0.11109 0.71196 0.51933 0.0
C2056 C 0.13728 0.75196 0.50661 0.0
C2057 C 0.14554 0.7697 0.48944 0.0
C2058 C 0.06855 0.6806 0.46897 0.0
C2059 C 0.10638 0.71417 0.48753 0.0
C2060 C 0.04193 0.66477 0.46908 0.0
C2061 C 0.02773 0.65953 0.48692 0.0
C2062 C 0.08099 0.691 0.48685 0.0
C2063 C 0.0417 0.66805 0.50444 0.0
C2064 C 0.11809 0.72398 0.50572 0.0
C2065 C 0.13544 0.75699 0.47136 0.0
N2066 N 0.06732 0.68359 0.50395 0.0
N2067 N 0.11595 0.73044 0.47088 0.0
H2068 H 0.23985 0.66308 0.7764 0.0
H2069 H 0.12379 0.76326 0.71295 0.0
H2070 H 0.23507 0.66275 0.71313 0.0
H2071 H 0.13326 0.77733 0.77542 0.0
H2072 H 0.15604 0.71277 0.71423 0.0
H2073 H 0.19341 0.6912 0.77768 0.0
C2074 C 0.22856 0.66764 0.76283 0.0
C2075 C 0.24129 0.66062 0.74463 0.0
C2076 C 0.15053 0.72615 0.72781 0.0
C2077 C 0.18855 0.69332 0.74591 0.0
C2078 C 0.13179 0.75468 0.72708 0.0
C2079 C 0.1255 0.77401 0.74415 0.0
C2080 C 0.16367 0.71737 0.74567 0.0
C2081 C 0.13718 0.76259 0.762 0.0
C2082 C 0.20221 0.68407 0.76353 0.0
C2083 C 0.22601 0.66779 0.72746 0.0
N2084 N 0.15607 0.7354 0.76227 0.0
N2085 N 0.20069 0.68403 0.72852 0.0
H2086 H 0.13995 0.48675 0.77239 0.0
H2087 H 0.02902 0.59829 0.71083 0.0
H2088 H 0.137 0.49283 0.7092 0.0
H2089 H 0.0264 0.59053 0.77399 0.0
H2090 H 0.07567 0.57219 0.71097 0.0
H2091 H 0.10612 0.53601 0.77427 0.0
C2092 C 0.13316 0.49956 0.75895 0.0
C2093 C 0.14149 0.48602 0.7406 0.0
C2094 C 0.06531 0.57682 0.7249 0.0
C2095 C 0.10219 0.54147 0.74257 0.0
C2096 C 0.03872 0.59205 0.72481 0.0
C2097 C 0.02393 0.59676 0.74242 0.0
C2098 C 0.07707 0.56518 0.74272 0.0
C2099 C 0.03728 0.58771 0.76011 0.0
C2100 C 0.11354 0.52734 0.76 0.0
C2101 C 0.13134 0.50275 0.72362 0.0
N2102 N 0.0629 0.57168 0.7598 0.0
N2103 N 0.11207 0.52921 0.72501 0.0
H2104 H 0.78584 0.3949 0.46602 0.0
H2105 H 0.89595 0.51855 0.52183 0.0
H2106 H 0.78054 0.42761 0.52669 0.0
H2107 H 0.89025 0.51287 0.45871 0.0
H2108 H 0.86361 0.46847 0.52444 0.0
H2109 H 0.8326 0.42195 0.46403 0.0
C2110 C 0.79491 0.40664 0.4791 0.0
C2111 C 0.77926 0.40916 0.49654 0.0
C2112 C 0.86998 0.4774 0.50997 0.0
C2113 C 0.8325 0.44024 0.49433 0.0
C2114 C 0.88876 0.50568 0.50848 0.0
C2115 C 0.89595 0.5196 0.49003 0.0
C2116 C 0.85779 0.46327 0.49287 0.0
C2117 C 0.88552 0.50253 0.4732 0.0
C2118 C 0.82146 0.42236 0.4779 0.0
C2119 C 0.79182 0.42521 0.51294 0.0
N2120 N 0.8665 0.47564 0.475 0.0
N2121 N 0.81751 0.44034 0.51139 0.0
H2122 H 0.99278 0.32881 0.52859 0.0
H2123 H 0.88302 0.23649 0.45854 0.0
H2124 H 0.98809 0.35253 0.46668 0.0
H2125 H 0.88282 0.22745 0.52167 0.0
H2126 H 0.91502 0.28757 0.46124 0.0
H2127 H 0.94685 0.30098 0.52682 0.0
C2128 C 0.98167 0.32898 0.51471 0.0
C2129 C 0.99428 0.34294 0.49777 0.0
C2130 C 0.90726 0.27516 0.47454 0.0
C2131 C 0.94192 0.30967 0.49536 0.0
C2132 C 0.88874 0.24628 0.47298 0.0
C2133 C 0.88019 0.22797 0.48993 0.0
C2134 C 0.91742 0.28535 0.49316 0.0
C2135 C 0.88883 0.24102 0.50827 0.0
C2136 C 0.95544 0.31289 0.51364 0.0
C2137 C 0.97901 0.34227 0.48012 0.0
N2138 N 0.90722 0.26848 0.50938 0.0
N2139 N 0.95391 0.32512 0.47926 0.0
H2140 H 0.78161 0.3394 0.20126 0.0
H2141 H 0.88774 0.24065 0.27061 0.0
H2142 H 0.78289 0.35707 0.26386 0.0
H2143 H 0.89347 0.24177 0.2074 0.0
H2144 H 0.85572 0.2918 0.26906 0.0
H2145 H 0.82798 0.31283 0.20329 0.0
C2146 C 0.79208 0.33857 0.21538 0.0
C2147 C 0.77845 0.35049 0.23239 0.0
C2148 C 0.86472 0.28164 0.25556 0.0
C2149 C 0.83124 0.31852 0.23508 0.0
C2150 C 0.88329 0.25272 0.25648 0.0
C2151 C 0.89327 0.23708 0.2391 0.0
C2152 C 0.85599 0.29458 0.23711 0.0
C2153 C 0.88626 0.25313 0.22114 0.0
C2154 C 0.81856 0.32319 0.21659 0.0
C2155 C 0.79283 0.34846 0.25037 0.0
N2156 N 0.86775 0.2805 0.2206 0.0
N2157 N 0.81819 0.33195 0.25133 0.0
H2158 H 0.88335 0.52009 0.27242 0.0
H2159 H 0.99201 0.42725 0.20202 0.0
H2160 H 0.87874 0.52281 0.20919 0.0
H2161 H 0.98922 0.40452 0.26409 0.0
H2162 H 0.94575 0.45407 0.20426 0.0
H2163 H 0.91641 0.47006 0.27012 0.0
C2164 C 0.8883 0.50907 0.25811 0.0
C2165 C 0.8782 0.52538 0.24096 0.0
C2166 C 0.95483 0.44259 0.21738 0.0
C2167 C 0.91669 0.46924 0.23814 0.0
C2168 C 0.98125 0.42708 0.21605 0.0
C2169 C 0.99442 0.41358 0.23286 0.0
C2170 C 0.94168 0.44576 0.23582 0.0
C2171 C 0.97965 0.41436 0.25073 0.0
C2172 C 0.90745 0.4808 0.25676 0.0
C2173 C 0.88594 0.51081 0.22276 0.0
N2174 N 0.95432 0.43095 0.25185 0.0
N2175 N 0.90498 0.48405 0.22182 0.0
H2176 H 0.73976 0.09464 0.51864 0.0
H2177 H 0.63215 0.97989 0.45601 0.0
H2178 H 0.74342 0.08699 0.45549 0.0
H2179 H 0.63435 0.98489 0.51924 0.0
H2180 H 0.66481 0.03042 0.45458 0.0
H2181 H 0.69357 0.06725 0.51815 0.0
C2182 C 0.73036 0.08818 0.50459 0.0
C2183 C 0.74538 0.09319 0.48709 0.0
C2184 C 0.65747 0.02122 0.46876 0.0
C2185 C 0.6928 0.06017 0.48639 0.0
C2186 C 0.63855 0.99269 0.46956 0.0
C2187 C 0.63027 0.97862 0.48778 0.0
C2188 C 0.66828 0.0355 0.48633 0.0
C2189 C 0.63992 0.9953 0.50492 0.0
C2190 C 0.70405 0.07221 0.5043 0.0
C2191 C 0.73239 0.08392 0.46929 0.0
N2192 N 0.65858 0.02252 0.50378 0.0
N2193 N 0.70707 0.06715 0.46941 0.0
H2194 H 0.53458 0.15815 0.51859 0.0
H2195 H 0.64302 0.26909 0.455 0.0
H2196 H 0.53078 0.16363 0.45537 0.0
H2197 H 0.644 0.26119 0.51815 0.0
H2198 H 0.60937 0.21964 0.45372 0.0
H2199 H 0.58132 0.18386 0.51767 0.0
C2200 C 0.544 0.16387 0.50444 0.0
C2201 C 0.52881 0.15871 0.48704 0.0
C2202 C 0.61764 0.22789 0.46783 0.0
C2203 C 0.58213 0.18975 0.48584 0.0
C2204 C 0.63717 0.25579 0.46852 0.0
C2205 C 0.64656 0.26886 0.4867 0.0
C2206 C 0.60734 0.21328 0.48547 0.0
C2207 C 0.63755 0.25157 0.50383 0.0
C2208 C 0.57067 0.17883 0.5039 0.0
C2209 C 0.54191 0.1669 0.46911 0.0
N2210 N 0.61825 0.22508 0.50281 0.0
N2211 N 0.5676 0.18274 0.46898 0.0
H2212 H 0.62762 0.27244 0.77123 0.0
H2213 H 0.73886 0.16314 0.70891 0.0
H2214 H 0.63049 0.26795 0.708 0.0
H2215 H 0.73976 0.16659 0.77222 0.0
H2216 H 0.69227 0.18936 0.70902 0.0
H2217 H 0.66107 0.22276 0.77266 0.0
C2218 C 0.6343 0.25988 0.75767 0.0
C2219 C 0.62604 0.27395 0.73946 0.0
C2220 C 0.70224 0.18375 0.72297 0.0
C2221 C 0.66498 0.21808 0.74091 0.0
C2222 C 0.7288 0.16847 0.72289 0.0
C2223 C 0.74312 0.16255 0.74057 0.0
C2224 C 0.69002 0.19424 0.74087 0.0
C2225 C 0.72928 0.17038 0.75827 0.0
C2226 C 0.6537 0.23185 0.75848 0.0
C2227 C 0.63607 0.25756 0.72233 0.0
N2228 N 0.70371 0.18653 0.75798 0.0
N2229 N 0.65519 0.23089 0.72347 0.0
H2230 H 0.63846 0.98651 0.77299 0.0
H2231 H 0.52551 0.08936 0.70911 0.0
H2232 H 0.63523 0.98653 0.70973 0.0
H2233 H 0.52644 0.09286 0.77243 0.0
H2234 H 0.57207 0.06309 0.70938 0.0
H2235 H 0.6046 0.0358 0.77353 0.0
C2236 C 0.63161 0.99804 0.75921 0.0
C2237 C 0.63993 0.98284 0.74127 0.0
C2238 C 0.5625 0.0702 0.72327 0.0
C2239 C 0.60047 0.03819 0.74172 0.0
C2240 C 0.53594 0.08546 0.7231 0.0
C2241 C 0.52214 0.09337 0.74076 0.0
C2242 C 0.57527 0.06173 0.74129 0.0
C2243 C 0.53649 0.08746 0.75848 0.0
C2244 C 0.61198 0.02583 0.75951 0.0
C2245 C 0.62965 0.99785 0.72385 0.0
N2246 N 0.56206 0.0713 0.75832 0.0
N2247 N 0.61028 0.0243 0.72451 0.0
H2248 H 0.28346 0.89929 0.46508 0.0
H2249 H 0.39461 0.02265 0.52024 0.0
H2250 H 0.28037 0.92903 0.52628 0.0
H2251 H 0.38673 0.0189 0.4572 0.0
H2252 H 0.36254 0.97225 0.52292 0.0
H2253 H 0.32979 0.92743 0.46251 0.0
C2254 C 0.29296 0.91058 0.47813 0.0
C2255 C 0.27806 0.91193 0.49592 0.0
C2256 C 0.36837 0.98169 0.50843 0.0
C2257 C 0.33075 0.94431 0.49306 0.0
C2258 C 0.38698 0.01016 0.50691 0.0
C2259 C 0.39356 0.0246 0.48847 0.0
C2260 C 0.35571 0.96791 0.49141 0.0
C2261 C 0.38252 0.00809 0.47166 0.0
C2262 C 0.31925 0.92694 0.4766 0.0
C2263 C 0.2911 0.9275 0.51228 0.0
N2264 N 0.36371 0.98097 0.47353 0.0
N2265 N 0.31651 0.94327 0.51041 0.0
H2266 H 0.3811 0.7355 0.46192 0.0
H2267 H 0.49367 0.83029 0.52961 0.0
H2268 H 0.38734 0.72305 0.52473 0.0
H2269 H 0.48874 0.84842 0.46715 0.0
H2270 H 0.44782 0.80213 0.5287 0.0
H2271 H 0.41298 0.78686 0.46388 0.0
C2272 C 0.38825 0.74453 0.47619 0.0
C2273 C 0.38156 0.72517 0.49321 0.0
C2274 C 0.45634 0.81287 0.51519 0.0
C2275 C 0.4185 0.78304 0.49555 0.0
C2276 C 0.48249 0.82922 0.51577 0.0
C2277 C 0.49501 0.84168 0.49845 0.0
C2278 C 0.44279 0.8079 0.49705 0.0
C2279 C 0.4797 0.83937 0.48087 0.0
C2280 C 0.4067 0.77357 0.4773 0.0
C2281 C 0.39194 0.73736 0.51128 0.0
N2282 N 0.45464 0.82202 0.48052 0.0
N2283 N 0.41009 0.76511 0.51194 0.0
H2284 H 0.39233 0.7351 0.20861 0.0
H2285 H 0.28255 0.85785 0.26516 0.0
H2286 H 0.38666 0.73991 0.27176 0.0
H2287 H 0.28028 0.83235 0.20337 0.0
H2288 H 0.32891 0.82983 0.26738 0.0
H2289 H 0.36085 0.78607 0.20626 0.0
C2290 C 0.38525 0.74787 0.22202 0.0
C2291 C 0.39226 0.73355 0.24039 0.0
C2292 C 0.31857 0.83125 0.25324 0.0
C2293 C 0.35503 0.79093 0.23787 0.0
C2294 C 0.29225 0.84757 0.25192 0.0
C2295 C 0.27754 0.84728 0.23405 0.0
C2296 C 0.33025 0.81491 0.23652 0.0
C2297 C 0.29085 0.833 0.21744 0.0
C2298 C 0.36699 0.77672 0.22069 0.0
C2299 C 0.38205 0.75055 0.25732 0.0
N2300 N 0.31624 0.81714 0.21912 0.0
N2301 N 0.36347 0.77797 0.25567 0.0
H2302 H 0.49446 0.92929 0.20142 0.0
H2303 H 0.38253 0.01742 0.27105 0.0
H2304 H 0.48948 0.90428 0.26317 0.0
H2305 H 0.38129 0.02481 0.20786 0.0
H2306 H 0.41548 0.96736 0.26851 0.0
H2307 H 0.44782 0.95518 0.20304 0.0
C2308 C 0.48317 0.92844 0.21523 0.0
C2309 C 0.49586 0.91468 0.23217 0.0
C2310 C 0.40727 0.97911 0.25517 0.0
C2311 C 0.44265 0.94569 0.23441 0.0
C2312 C 0.38818 0.00738 0.25664 0.0
C2313 C 0.37908 0.02502 0.23962 0.0
C2314 C 0.41748 0.96888 0.23656 0.0
C2315 C 0.38769 0.01172 0.22132 0.0
C2316 C 0.45652 0.94339 0.21621 0.0
C2317 C 0.48035 0.91443 0.24973 0.0
N2318 N 0.40669 0.98493 0.22028 0.0
N2319 N 0.4548 0.9305 0.25052 0.0
H2320 H 0.63322 0.48079 0.95409 0.0
H2321 H 0.74376 0.58955 0.01718 0.0
H2322 H 0.63415 0.48631 0.01732 0.0
H2323 H 0.74539 0.58671 0.95387 0.0
H2324 H 0.69719 0.56325 0.01678 0.0
H2325 H 0.66709 0.53 0.95288 0.0
C2326 C 0.63957 0.49352 0.96768 0.0
C2327 C 0.63057 0.47991 0.98584 0.0
C2328 C 0.70732 0.56899 0.00289 0.0
C2329 C 0.67007 0.53518 0.98466 0.0
C2330 C 0.73388 0.58429 0.00314 0.0
C2331 C 0.74836 0.59046 0.98555 0.0
C2332 C 0.69527 0.55874 0.9849 0.0
C2333 C 0.73476 0.58271 0.96776 0.0
C2334 C 0.65921 0.52127 0.96701 0.0
C2335 C 0.64023 0.49641 0.00303 0.0
N2336 N 0.70918 0.56659 0.96788 0.0
N2337 N 0.65964 0.52279 0.00203 0.0
H2338 H 0.53135 0.66559 0.95458 0.0
H2339 H 0.64815 0.76113 0.01934 0.0
H2340 H 0.53548 0.66421 0.01788 0.0
H2341 H 0.64156 0.77462 0.95665 0.0
H2342 H 0.615 0.71177 0.01759 0.0
H2343 H 0.57847 0.69193 0.95368 0.0
C2344 C 0.54258 0.66959 0.96823 0.0
C2345 C 0.52952 0.6628 0.98634 0.0
C2346 C 0.6213 0.72475 0.00407 0.0
C2347 C 0.58307 0.69336 0.98548 0.0
C2348 C 0.64057 0.75263 0.00507 0.0
C2349 C 0.64791 0.77157 0.98809 0.0
C2350 C 0.60859 0.71629 0.98601 0.0
C2351 C 0.63681 0.7602 0.97003 0.0
C2352 C 0.56935 0.68496 0.96774 0.0
C2353 C 0.54477 0.66915 0.00361 0.0
N2354 N 0.61727 0.73374 0.96949 0.0
N2355 N 0.57049 0.68435 0.00276 0.0
H2356 H 0.6328 0.77926 0.27634 0.0
H2357 H 0.73468 0.65224 0.21574 0.0
H2358 H 0.63368 0.76846 0.21331 0.0
H2359 H 0.74401 0.67211 0.27778 0.0
H2360 H 0.68897 0.68095 0.21658 0.0
H2361 H 0.66457 0.72793 0.27886 0.0
C2362 C 0.63873 0.76507 0.2631 0.0
C2363 C 0.63034 0.77768 0.2446 0.0
C2364 C 0.70058 0.67833 0.23016 0.0
C2365 C 0.66722 0.71978 0.24727 0.0
C2366 C 0.72657 0.66154 0.22972 0.0
C2367 C 0.74306 0.65961 0.24673 0.0
C2368 C 0.69113 0.69419 0.24767 0.0
C2369 C 0.73178 0.67266 0.26439 0.0
C2370 C 0.65713 0.73608 0.26452 0.0
C2371 C 0.63937 0.7592 0.22785 0.0
N2372 N 0.70673 0.69007 0.26434 0.0
N2373 N 0.65747 0.73148 0.22957 0.0
H2374 H 0.64171 0.48749 0.273 0.0
H2375 H 0.53114 0.60018 0.21175 0.0
H2376 H 0.63715 0.49174 0.20981 0.0
H2377 H 0.52865 0.59178 0.27489 0.0
H2378 H 0.57765 0.57368 0.21174 0.0
H2379 H 0.60849 0.53743 0.27488 0.0
C2380 C 0.63467 0.50001 0.25954 0.0
C2381 C 0.64238 0.48583 0.24121 0.0
C2382 C 0.56735 0.57828 0.2257 0.0
C2383 C 0.60384 0.54207 0.24319 0.0
C2384 C 0.54085 0.59375 0.2257 0.0
C2385 C 0.5261 0.5983 0.24334 0.0
C2386 C 0.57905 0.56628 0.24346 0.0
C2387 C 0.53949 0.58907 0.26099 0.0
C2388 C 0.61543 0.52819 0.2606 0.0
C2389 C 0.63196 0.50219 0.22421 0.0
N2390 N 0.565 0.57279 0.26059 0.0
N2391 N 0.61307 0.52909 0.22561 0.0
H2392 H 0.39615 0.52644 0.02158 0.0
H2393 H 0.28641 0.40135 0.96641 0.0
H2394 H 0.38926 0.52122 0.95851 0.0
H2395 H 0.2822 0.43247 0.02738 0.0
H2396 H 0.33274 0.42941 0.96405 0.0
H2397 H 0.3644 0.47576 0.02437 0.0
C2398 C 0.3888 0.51359 0.00828 0.0
C2399 C 0.39551 0.52775 -0.0102 0.0
C2400 C 0.32196 0.42925 0.97806 0.0
C2401 C 0.35805 0.4707 -0.00716 0.0
C2402 C 0.29565 0.41294 0.97947 0.0
C2403 C 0.2804 0.41473 -0.00289 0.0
C2404 C 0.33315 0.44702 -0.00552 0.0
C2405 C 0.29317 0.43063 0.01348 0.0
C2406 C 0.37038 0.48494 0.00986 0.0
C2407 C 0.3849 0.51069 0.97301 0.0
N2408 N 0.31861 0.44637 0.01172 0.0
N2409 N 0.36624 0.48342 0.97493 0.0
H2410 H 0.4933 0.33164 0.02792 0.0
H2411 H 0.38272 0.23615 0.95926 0.0
H2412 H 0.48924 0.3506 0.9655 0.0
H2413 H 0.38506 0.22722 0.02238 0.0
H2414 H 0.4148 0.28727 0.96129 0.0
H2415 H 0.44744 0.30355 0.02657 0.0
C2416 C 0.48232 0.33074 0.01399 0.0
C2417 C 0.49509 0.34345 -0.00319 0.0
C2418 C 0.40761 0.27485 0.97474 0.0
C2419 C 0.44284 0.30979 -0.00509 0.0
C2420 C 0.38903 0.24595 0.97358 0.0
C2421 C 0.38115 0.22767 -0.0093 0.0
C2422 C 0.41842 0.28518 -0.00684 0.0
C2423 C 0.39054 0.24075 0.00885 0.0
C2424 C 0.45616 0.31446 0.01317 0.0
C2425 C 0.48002 0.34137 0.97912 0.0
N2426 N 0.4089 0.26829 0.00958 0.0
N2427 N 0.45495 0.32407 0.97852 0.0
H2428 H 0.39175 0.23627 0.70768 0.0
H2429 H 0.28156 0.35864 0.7643 0.0
H2430 H 0.38546 0.24002 0.77082 0.0
H2431 H 0.27779 0.32994 0.70298 0.0
H2432 H 0.32816 0.33111 0.76634 0.0
H2433 H 0.35997 0.28698 0.70544 0.0
C2434 C 0.38455 0.24882 0.72112 0.0
C2435 C 0.39143 0.23421 0.73946 0.0
C2436 C 0.31742 0.33173 0.75233 0.0
C2437 C 0.35385 0.29126 0.73703 0.0
C2438 C 0.29097 0.34774 0.75111 0.0
C2439 C 0.27582 0.34648 0.73344 0.0
C2440 C 0.32881 0.31477 0.73569 0.0
C2441 C 0.28875 0.33141 0.71689 0.0
C2442 C 0.36609 0.27749 0.71985 0.0
C2443 C 0.38098 0.2509 0.75642 0.0
N2444 N 0.3143 0.31594 0.71846 0.0
N2445 N 0.36225 0.27814 0.75481 0.0
H2446 H 0.48639 0.40074 0.76286 0.0
H2447 H 0.37682 0.52728 0.7086 0.0
H2448 H 0.49042 0.43285 0.70208 0.0
H2449 H 0.38247 0.51913 0.77163 0.0
H2450 H 0.4088 0.47696 0.70536 0.0
H2451 H 0.44002 0.42872 0.76543 0.0
C2452 C 0.47709 0.41253 0.74988 0.0
C2453 C 0.49228 0.41461 0.73223 0.0
C2454 C 0.40253 0.48542 0.71994 0.0
C2455 C 0.43953 0.44684 0.7351 0.0
C2456 C 0.38398 0.51388 0.72178 0.0
C2457 C 0.37682 0.52709 0.7404 0.0
C2458 C 0.41458 0.47043 0.73686 0.0
C2459 C 0.38719 0.50934 0.75702 0.0
C2460 C 0.45077 0.4288 0.75141 0.0
C2461 C 0.47947 0.43077 0.71598 0.0
N2462 N 0.406 0.48228 0.75488 0.0
N2463 N 0.45404 0.44647 0.71785 0.0
loop_
_geom_bond_atom_site_label_1
_geom_bond_atom_site_label_2
_geom_bond_distance
_geom_bond_site_symmetry_2
_ccdc_geom_bond_type
O0 Zn1 1.953 . S
O0 C16 1.225 1_546 S
Zn1 O0 1.953 . S
Zn1 O2 1.930 1_556 S
Zn1 O8 1.919 . S
Zn1 O13 1.924 . S
O2 Zn1 1.930 1_554 S
O2 Zn3 1.909 1_554 S
O2 Zn4 1.970 . S
O2 Zn5 1.957 . S
Zn3 O2 1.909 1_556 S
Zn3 O6 1.933 . S
Zn3 O9 1.941 . S
Zn3 O10 1.965 . S
Zn4 O2 1.970 . S
Zn4 O11 1.938 . S
Zn4 O12 1.906 . S
Zn4 O22 1.953 . S
Zn5 O2 1.957 . S
Zn5 O7 1.932 . S
Zn5 O14 1.977 . S
Zn5 O15 1.910 . S
O6 Zn3 1.933 . S
O6 C17 1.226 . S
O7 Zn5 1.932 . S
O7 C17 1.307 1_554 S
O8 Zn1 1.919 . S
O8 C19 1.253 . S
O9 Zn3 1.941 . S
O9 C19 1.283 . S
O10 Zn3 1.965 . S
O10 C18 1.303 1_556 S
O11 Zn4 1.938 . S
O11 C18 1.247 . S
O12 Zn4 1.906 . S
O12 C20 1.304 . S
O13 Zn1 1.924 . S
O13 C21 1.287 1_556 S
O14 Zn5 1.977 . S
O14 C20 1.272 . S
O15 Zn5 1.910 . S
O15 C21 1.250 . S
C16 O0 1.225 1_564 S
C16 O22 1.298 1_565 S
C17 O6 1.226 . S
C17 O7 1.307 1_556 S
C18 O10 1.303 1_554 S
C18 O11 1.247 . S
C19 O8 1.253 . S
C19 O9 1.283 . S
C20 O12 1.304 . S
C20 O14 1.272 . S
C21 O13 1.287 1_554 S
C21 O15 1.250 . S
O22 Zn4 1.953 . S
O22 C16 1.298 1_545 S
O23 Zn24 1.953 . S
O23 C39 1.225 1_556 S
Zn24 O23 1.953 . S
Zn24 O25 1.930 1_556 S
Zn24 O31 1.919 . S
Zn24 O36 1.924 . S
O25 Zn24 1.930 1_554 S
O25 Zn26 1.909 1_554 S
O25 Zn27 1.970 . S
O25 Zn28 1.957 . S
Zn26 O25 1.909 1_556 S
Zn26 O29 1.933 . S
Zn26 O32 1.941 . S
Zn26 O33 1.965 . S
Zn27 O25 1.970 . S
Zn27 O34 1.938 . S
Zn27 O35 1.906 . S
Zn27 O45 1.953 . S
Zn28 O25 1.957 . S
Zn28 O30 1.932 . S
Zn28 O37 1.977 . S
Zn28 O38 1.910 . S
O29 Zn26 1.933 . S
O29 C40 1.226 . S
O30 Zn28 1.932 . S
O30 C40 1.307 1_554 S
O31 Zn24 1.919 . S
O31 C42 1.253 . S
O32 Zn26 1.941 . S
O32 C42 1.283 . S
O33 Zn26 1.965 . S
O33 C41 1.303 1_556 S
O34 Zn27 1.938 . S
O34 C41 1.247 . S
O35 Zn27 1.906 . S
O35 C43 1.304 . S
O36 Zn24 1.924 . S
O36 C44 1.287 1_556 S
O37 Zn28 1.977 . S
O37 C43 1.272 . S
O38 Zn28 1.910 . S
O38 C44 1.250 . S
C39 O23 1.225 1_554 S
C39 O45 1.298 . S
C40 O29 1.226 . S
C40 O30 1.307 1_556 S
C41 O33 1.303 1_554 S
C41 O34 1.247 . S
C42 O31 1.253 . S
C42 O32 1.283 . S
C43 O35 1.304 . S
C43 O37 1.272 . S
C44 O36 1.287 1_554 S
C44 O38 1.250 . S
O45 Zn27 1.953 . S
O45 C39 1.298 . S
O46 Zn47 1.953 . S
O46 C62 1.225 . S
Zn47 O46 1.953 . S
Zn47 O48 1.949 . S
Zn47 O54 1.919 . S
Zn47 O59 1.924 . S
O48 Zn47 1.949 . S
O48 Zn49 1.923 . S
O48 Zn50 1.950 . S
O48 Zn51 1.945 . S
Zn49 O48 1.923 . S
Zn49 O52 1.933 . S
Zn49 O55 1.941 . S
Zn49 O56 1.965 . S
Zn50 O48 1.950 . S
Zn50 O57 1.938 . S
Zn50 O58 1.906 . S
Zn50 O68 1.953 . S
Zn51 O48 1.945 . S
Zn51 O53 1.932 . S
Zn51 O60 1.977 . S
Zn51 O61 1.910 . S
O52 Zn49 1.933 . S
O52 C63 1.226 . S
O53 Zn51 1.932 . S
O53 C63 1.307 . S
O54 Zn47 1.919 . S
O54 C65 1.253 . S
O55 Zn49 1.941 . S
O55 C65 1.283 . S
O56 Zn49 1.965 . S
O56 C64 1.303 . S
O57 Zn50 1.938 . S
O57 C64 1.247 . S
O58 Zn50 1.906 . S
O58 C66 1.304 . S
O59 Zn47 1.924 . S
O59 C67 1.311 . S
O60 Zn51 1.977 . S
O60 C66 1.272 . S
O61 Zn51 1.910 . S
O61 C67 1.231 . S
C62 O46 1.225 . S
C62 O68 1.298 . S
C63 O52 1.226 . S
C63 O53 1.307 . S
C64 O56 1.303 . S
C64 O57 1.247 . S
C65 O54 1.253 . S
C65 O55 1.283 . S
C66 O58 1.304 . S
C66 O60 1.272 . S
C67 O59 1.311 . S
C67 O61 1.231 . S
O68 Zn50 1.953 . S
O68 C62 1.298 . S
O69 Zn70 1.953 . S
O69 C85 1.225 1_545 S
Zn70 O69 1.953 . S
Zn70 O71 1.949 . S
Zn70 O77 1.919 . S
Zn70 O82 1.924 . S
O71 Zn70 1.949 . S
O71 Zn72 1.923 . S
O71 Zn73 1.950 . S
O71 Zn74 1.945 . S
Zn72 O71 1.923 . S
Zn72 O75 1.933 . S
Zn72 O78 1.941 . S
Zn72 O79 1.965 . S
Zn73 O71 1.950 . S
Zn73 O80 1.938 . S
Zn73 O81 1.906 . S
Zn73 O91 1.953 . S
Zn74 O71 1.945 . S
Zn74 O76 1.932 . S
Zn74 O83 1.977 . S
Zn74 O84 1.910 . S
O75 Zn72 1.933 . S
O75 C86 1.226 . S
O76 Zn74 1.932 . S
O76 C86 1.307 . S
O77 Zn70 1.919 . S
O77 C88 1.253 . S
O78 Zn72 1.941 . S
O78 C88 1.283 . S
O79 Zn72 1.965 . S
O79 C87 1.303 . S
O80 Zn73 1.938 . S
O80 C87 1.247 . S
O81 Zn73 1.906 . S
O81 C89 1.304 . S
O82 Zn70 1.924 . S
O82 C90 1.311 . S
O83 Zn74 1.977 . S
O83 C89 1.272 . S
O84 Zn74 1.910 . S
O84 C90 1.231 . S
C85 O69 1.225 1_565 S
C85 O91 1.298 1_565 S
C86 O75 1.226 . S
C86 O76 1.307 . S
C87 O79 1.303 . S
C87 O80 1.247 . S
C88 O77 1.253 . S
C88 O78 1.283 . S
C89 O81 1.304 . S
C89 O83 1.272 . S
C90 O82 1.311 . S
C90 O84 1.231 . S
O91 Zn73 1.953 . S
O91 C85 1.298 1_545 S
O92 Zn93 1.953 . S
O92 C108 1.225 1_565 S
Zn93 O92 1.953 . S
Zn93 O94 1.937 1_556 S
Zn93 O100 1.919 . S
Zn93 O105 1.924 . S
O94 Zn93 1.937 1_554 S
O94 Zn95 1.917 1_554 S
O94 Zn96 1.961 . S
O94 Zn97 1.952 . S
Zn95 O94 1.917 1_556 S
Zn95 O98 1.933 . S
Zn95 O101 1.941 . S
Zn95 O102 1.965 . S
Zn96 O94 1.961 . S
Zn96 O103 1.938 . S
Zn96 O104 1.906 . S
Zn96 O114 1.953 . S
Zn97 O94 1.952 . S
Zn97 O99 1.932 . S
Zn97 O106 1.977 . S
Zn97 O107 1.910 . S
O98 Zn95 1.933 . S
O98 C109 1.226 1_556 S
O99 Zn97 1.932 . S
O99 C109 1.307 . S
O100 Zn93 1.919 . S
O100 C111 1.253 . S
O101 Zn95 1.941 . S
O101 C111 1.283 . S
O102 Zn95 1.965 . S
O102 C110 1.303 1_556 S
O103 Zn96 1.938 . S
O103 C110 1.247 . S
O104 Zn96 1.906 . S
O104 C112 1.304 . S
O105 Zn93 1.924 . S
O105 C113 1.311 . S
O106 Zn97 1.977 . S
O106 C112 1.272 . S
O107 Zn97 1.910 . S
O107 C113 1.231 1_554 S
C108 O92 1.225 1_545 S
C108 O114 1.298 1_546 S
C109 O98 1.226 1_554 S
C109 O99 1.307 . S
C110 O102 1.303 1_554 S
C110 O103 1.247 . S
C111 O100 1.253 . S
C111 O101 1.283 . S
C112 O104 1.304 . S
C112 O106 1.272 . S
C113 O105 1.311 . S
C113 O107 1.231 1_556 S
O114 Zn96 1.953 . S
O114 C108 1.298 1_564 S
O115 Zn116 1.953 . S
O115 C131 1.225 . S
Zn116 O115 1.953 . S
Zn116 O117 1.937 1_556 S
Zn116 O123 1.919 . S
Zn116 O128 1.924 . S
O117 Zn116 1.937 1_554 S
O117 Zn118 1.917 1_554 S
O117 Zn119 1.961 . S
O117 Zn120 1.952 . S
Zn118 O117 1.917 1_556 S
Zn118 O121 1.933 . S
Zn118 O124 1.941 . S
Zn118 O125 1.965 . S
Zn119 O117 1.961 . S
Zn119 O126 1.938 . S
Zn119 O127 1.906 . S
Zn119 O137 1.953 . S
Zn120 O117 1.952 . S
Zn120 O122 1.932 . S
Zn120 O129 1.977 . S
Zn120 O130 1.910 . S
O121 Zn118 1.933 . S
O121 C132 1.226 1_556 S
O122 Zn120 1.932 . S
O122 C132 1.307 . S
O123 Zn116 1.919 . S
O123 C134 1.253 . S
O124 Zn118 1.941 . S
O124 C134 1.283 . S
O125 Zn118 1.965 . S
O125 C133 1.303 1_556 S
O126 Zn119 1.938 . S
O126 C133 1.247 . S
O127 Zn119 1.906 . S
O127 C135 1.304 . S
O128 Zn116 1.924 . S
O128 C136 1.311 . S
O129 Zn120 1.977 . S
O129 C135 1.272 . S
O130 Zn120 1.910 . S
O130 C136 1.231 1_554 S
C131 O115 1.225 . S
C131 O137 1.298 1_556 S
C132 O121 1.226 1_554 S
C132 O122 1.307 . S
C133 O125 1.303 1_554 S
C133 O126 1.247 . S
C134 O123 1.253 . S
C134 O124 1.283 . S
C135 O127 1.304 . S
C135 O129 1.272 . S
C136 O128 1.311 . S
C136 O130 1.231 1_556 S
O137 Zn119 1.953 . S
O137 C131 1.298 1_554 S
O138 Zn139 1.953 . S
O138 C154 1.225 . S
Zn139 O138 1.953 . S
Zn139 O140 1.949 . S
Zn139 O146 1.919 . S
Zn139 O151 1.924 . S
O140 Zn139 1.949 . S
O140 Zn141 1.923 . S
O140 Zn142 1.950 . S
O140 Zn143 1.945 . S
Zn141 O140 1.923 . S
Zn141 O144 1.933 . S
Zn141 O147 1.941 . S
Zn141 O148 1.965 . S
Zn142 O140 1.950 . S
Zn142 O149 1.938 . S
Zn142 O150 1.906 . S
Zn142 O160 1.953 . S
Zn143 O140 1.945 . S
Zn143 O145 1.932 . S
Zn143 O152 1.977 . S
Zn143 O153 1.910 . S
O144 Zn141 1.933 . S
O144 C155 1.226 . S
O145 Zn143 1.932 . S
O145 C155 1.307 . S
O146 Zn139 1.919 . S
O146 C157 1.253 . S
O147 Zn141 1.941 . S
O147 C157 1.283 . S
O148 Zn141 1.965 . S
O148 C156 1.303 . S
O149 Zn142 1.938 . S
O149 C156 1.247 . S
O150 Zn142 1.906 . S
O150 C158 1.304 . S
O151 Zn139 1.924 . S
O151 C159 1.311 . S
O152 Zn143 1.977 . S
O152 C158 1.272 . S
O153 Zn143 1.910 . S
O153 C159 1.231 . S
C154 O138 1.225 . S
C154 O160 1.298 . S
C155 O144 1.226 . S
C155 O145 1.307 . S
C156 O148 1.303 . S
C156 O149 1.247 . S
C157 O146 1.253 . S
C157 O147 1.283 . S
C158 O150 1.304 . S
C158 O152 1.272 . S
C159 O151 1.311 . S
C159 O153 1.231 . S
O160 Zn142 1.953 . S
O160 C154 1.298 . S
O161 Zn162 1.953 . S
O161 C177 1.225 1_565 S
Zn162 O161 1.953 . S
Zn162 O163 1.949 . S
Zn162 O169 1.919 . S
Zn162 O174 1.924 . S
O163 Zn162 1.949 . S
O163 Zn164 1.923 . S
O163 Zn165 1.950 . S
O163 Zn166 1.945 . S
Zn164 O163 1.923 . S
Zn164 O167 1.933 . S
Zn164 O170 1.941 . S
Zn164 O171 1.965 . S
Zn165 O163 1.950 . S
Zn165 O172 1.938 . S
Zn165 O173 1.906 . S
Zn165 O183 1.953 . S
Zn166 O163 1.945 . S
Zn166 O168 1.932 . S
Zn166 O175 1.977 . S
Zn166 O176 1.910 . S
O167 Zn164 1.933 . S
O167 C178 1.226 . S
O168 Zn166 1.932 . S
O168 C178 1.307 . S
O169 Zn162 1.919 . S
O169 C180 1.253 . S
O170 Zn164 1.941 . S
O170 C180 1.283 . S
O171 Zn164 1.965 . S
O171 C179 1.303 . S
O172 Zn165 1.938 . S
O172 C179 1.247 . S
O173 Zn165 1.906 . S
O173 C181 1.304 . S
O174 Zn162 1.924 . S
O174 C182 1.311 . S
O175 Zn166 1.977 . S
O175 C181 1.272 . S
O176 Zn166 1.910 . S
O176 C182 1.231 . S
C177 O161 1.225 1_545 S
C177 O183 1.298 1_545 S
C178 O167 1.226 . S
C178 O168 1.307 . S
C179 O171 1.303 . S
C179 O172 1.247 . S
C180 O169 1.253 . S
C180 O170 1.283 . S
C181 O173 1.304 . S
C181 O175 1.272 . S
C182 O174 1.311 . S
C182 O176 1.231 . S
O183 Zn165 1.953 . S
O183 C177 1.298 1_565 S
O184 Zn185 1.953 . S
O184 C200 1.225 . S
Zn185 O184 1.953 . S
Zn185 O186 1.949 . S
Zn185 O192 1.919 . S
Zn185 O197 1.924 . S
O186 Zn185 1.949 . S
O186 Zn187 1.923 . S
O186 Zn188 1.950 . S
O186 Zn189 1.945 . S
Zn187 O186 1.923 . S
Zn187 O190 1.933 . S
Zn187 O193 1.941 . S
Zn187 O194 1.965 . S
Zn188 O186 1.950 . S
Zn188 O195 1.938 . S
Zn188 O196 1.906 . S
Zn188 O206 1.953 . S
Zn189 O186 1.945 . S
Zn189 O191 1.932 . S
Zn189 O198 1.977 . S
Zn189 O199 1.910 . S
O190 Zn187 1.933 . S
O190 C201 1.226 . S
O191 Zn189 1.932 . S
O191 C201 1.307 . S
O192 Zn185 1.919 . S
O192 C203 1.253 . S
O193 Zn187 1.941 . S
O193 C203 1.283 . S
O194 Zn187 1.965 . S
O194 C202 1.303 . S
O195 Zn188 1.938 . S
O195 C202 1.247 . S
O196 Zn188 1.906 . S
O196 C204 1.304 . S
O197 Zn185 1.924 . S
O197 C205 1.311 . S
O198 Zn189 1.977 . S
O198 C204 1.272 . S
O199 Zn189 1.910 . S
O199 C205 1.231 . S
C200 O184 1.225 . S
C200 O206 1.298 . S
C201 O190 1.226 . S
C201 O191 1.307 . S
C202 O194 1.303 . S
C202 O195 1.247 . S
C203 O192 1.253 . S
C203 O193 1.283 . S
C204 O196 1.304 . S
C204 O198 1.272 . S
C205 O197 1.311 . S
C205 O199 1.231 . S
O206 Zn188 1.953 . S
O206 C200 1.298 . S
O207 Zn208 1.953 . S
O207 C223 1.225 . S
Zn208 O207 1.953 . S
Zn208 O209 1.949 . S
Zn208 O215 1.919 . S
Zn208 O220 1.924 . S
O209 Zn208 1.949 . S
O209 Zn210 1.923 . S
O209 Zn211 1.950 . S
O209 Zn212 1.945 . S
Zn210 O209 1.923 . S
Zn210 O213 1.933 . S
Zn210 O216 1.941 . S
Zn210 O217 1.965 . S
Zn211 O209 1.950 . S
Zn211 O218 1.938 . S
Zn211 O219 1.906 . S
Zn211 O229 1.953 . S
Zn212 O209 1.945 . S
Zn212 O214 1.932 . S
Zn212 O221 1.977 . S
Zn212 O222 1.910 . S
O213 Zn210 1.933 . S
O213 C224 1.226 . S
O214 Zn212 1.932 . S
O214 C224 1.307 . S
O215 Zn208 1.919 . S
O215 C226 1.253 . S
O216 Zn210 1.941 . S
O216 C226 1.283 . S
O217 Zn210 1.965 . S
O217 C225 1.303 . S
O218 Zn211 1.938 . S
O218 C225 1.247 . S
O219 Zn211 1.906 . S
O219 C227 1.304 . S
O220 Zn208 1.924 . S
O220 C228 1.311 . S
O221 Zn212 1.977 . S
O221 C227 1.272 . S
O222 Zn212 1.910 . S
O222 C228 1.231 . S
C223 O207 1.225 . S
C223 O229 1.298 . S
C224 O213 1.226 . S
C224 O214 1.307 . S
C225 O217 1.303 . S
C225 O218 1.247 . S
C226 O215 1.253 . S
C226 O216 1.283 . S
C227 O219 1.304 . S
C227 O221 1.272 . S
C228 O220 1.311 . S
C228 O222 1.231 . S
O229 Zn211 1.953 . S
O229 C223 1.298 . S
O230 Zn231 1.953 . S
O230 C246 1.225 . S
Zn231 O230 1.953 . S
Zn231 O232 1.949 . S
Zn231 O238 1.919 . S
Zn231 O243 1.924 . S
O232 Zn231 1.949 . S
O232 Zn233 1.923 . S
O232 Zn234 1.950 . S
O232 Zn235 1.945 . S
Zn233 O232 1.923 . S
Zn233 O236 1.933 . S
Zn233 O239 1.941 . S
Zn233 O240 1.965 . S
Zn234 O232 1.950 . S
Zn234 O241 1.938 . S
Zn234 O242 1.906 . S
Zn234 O252 1.953 . S
Zn235 O232 1.945 . S
Zn235 O237 1.932 . S
Zn235 O244 1.977 . S
Zn235 O245 1.910 . S
O236 Zn233 1.933 . S
O236 C247 1.226 . S
O237 Zn235 1.932 . S
O237 C247 1.307 . S
O238 Zn231 1.919 . S
O238 C249 1.253 . S
O239 Zn233 1.941 . S
O239 C249 1.283 . S
O240 Zn233 1.965 . S
O240 C248 1.303 . S
O241 Zn234 1.938 . S
O241 C248 1.247 . S
O242 Zn234 1.906 . S
O242 C250 1.304 . S
O243 Zn231 1.924 . S
O243 C251 1.311 . S
O244 Zn235 1.977 . S
O244 C250 1.272 . S
O245 Zn235 1.910 . S
O245 C251 1.231 . S
C246 O230 1.225 . S
C246 O252 1.298 . S
C247 O236 1.226 . S
C247 O237 1.307 . S
C248 O240 1.303 . S
C248 O241 1.247 . S
C249 O238 1.253 . S
C249 O239 1.283 . S
C250 O242 1.304 . S
C250 O244 1.272 . S
C251 O243 1.311 . S
C251 O245 1.231 . S
O252 Zn234 1.953 . S
O252 C246 1.298 . S
O253 Zn254 1.953 . S
O253 C269 1.225 . S
Zn254 O253 1.953 . S
Zn254 O255 1.949 . S
Zn254 O261 1.919 . S
Zn254 O266 1.924 . S
O255 Zn254 1.949 . S
O255 Zn256 1.923 . S
O255 Zn257 1.950 . S
O255 Zn258 1.945 . S
Zn256 O255 1.923 . S
Zn256 O259 1.933 . S
Zn256 O262 1.941 . S
Zn256 O263 1.965 . S
Zn257 O255 1.950 . S
Zn257 O264 1.938 . S
Zn257 O265 1.906 . S
Zn257 O275 1.953 . S
Zn258 O255 1.945 . S
Zn258 O260 1.932 . S
Zn258 O267 1.977 . S
Zn258 O268 1.910 . S
O259 Zn256 1.933 . S
O259 C270 1.226 . S
O260 Zn258 1.932 . S
O260 C270 1.307 . S
O261 Zn254 1.919 . S
O261 C272 1.253 . S
O262 Zn256 1.941 . S
O262 C272 1.283 . S
O263 Zn256 1.965 . S
O263 C271 1.303 . S
O264 Zn257 1.938 . S
O264 C271 1.247 . S
O265 Zn257 1.906 . S
O265 C273 1.304 . S
O266 Zn254 1.924 . S
O266 C274 1.311 . S
O267 Zn258 1.977 . S
O267 C273 1.272 . S
O268 Zn258 1.910 . S
O268 C274 1.231 . S
C269 O253 1.225 . S
C269 O275 1.298 . S
C270 O259 1.226 . S
C270 O260 1.307 . S
C271 O263 1.303 . S
C271 O264 1.247 . S
C272 O261 1.253 . S
C272 O262 1.283 . S
C273 O265 1.304 . S
C273 O267 1.272 . S
C274 O266 1.311 . S
C274 O268 1.231 . S
O275 Zn257 1.953 . S
O275 C269 1.298 . S
O276 Zn277 1.953 . S
O276 C292 1.225 . S
Zn277 O276 1.953 . S
Zn277 O278 1.949 . S
Zn277 O284 1.919 . S
Zn277 O289 1.924 . S
O278 Zn277 1.949 . S
O278 Zn279 1.923 . S
O278 Zn280 1.950 . S
O278 Zn281 1.945 . S
Zn279 O278 1.923 . S
Zn279 O282 1.933 . S
Zn279 O285 1.941 . S
Zn279 O286 1.965 . S
Zn280 O278 1.950 . S
Zn280 O287 1.938 . S
Zn280 O288 1.906 . S
Zn280 O298 1.953 . S
Zn281 O278 1.945 . S
Zn281 O283 1.932 . S
Zn281 O290 1.977 . S
Zn281 O291 1.910 . S
O282 Zn279 1.933 . S
O282 C293 1.226 . S
O283 Zn281 1.932 . S
O283 C293 1.307 . S
O284 Zn277 1.919 . S
O284 C295 1.253 . S
O285 Zn279 1.941 . S
O285 C295 1.283 . S
O286 Zn279 1.965 . S
O286 C294 1.303 . S
O287 Zn280 1.938 . S
O287 C294 1.247 . S
O288 Zn280 1.906 . S
O288 C296 1.304 . S
O289 Zn277 1.924 . S
O289 C297 1.311 . S
O290 Zn281 1.977 . S
O290 C296 1.272 . S
O291 Zn281 1.910 . S
O291 C297 1.231 . S
C292 O276 1.225 . S
C292 O298 1.298 . S
C293 O282 1.226 . S
C293 O283 1.307 . S
C294 O286 1.303 . S
C294 O287 1.247 . S
C295 O284 1.253 . S
C295 O285 1.283 . S
C296 O288 1.304 . S
C296 O290 1.272 . S
C297 O289 1.311 . S
C297 O291 1.231 . S
O298 Zn280 1.953 . S
O298 C292 1.298 . S
O299 Zn300 1.953 . S
O299 C315 1.225 . S
Zn300 O299 1.953 . S
Zn300 O301 1.949 . S
Zn300 O307 1.919 . S
Zn300 O312 1.924 . S
O301 Zn300 1.949 . S
O301 Zn302 1.923 . S
O301 Zn303 1.950 . S
O301 Zn304 1.945 . S
Zn302 O301 1.923 . S
Zn302 O305 1.933 . S
Zn302 O308 1.941 . S
Zn302 O309 1.965 . S
Zn303 O301 1.950 . S
Zn303 O310 1.938 . S
Zn303 O311 1.906 . S
Zn303 O321 1.953 . S
Zn304 O301 1.945 . S
Zn304 O306 1.932 . S
Zn304 O313 1.977 . S
Zn304 O314 1.910 . S
O305 Zn302 1.933 . S
O305 C316 1.226 . S
O306 Zn304 1.932 . S
O306 C316 1.307 . S
O307 Zn300 1.919 . S
O307 C318 1.253 . S
O308 Zn302 1.941 . S
O308 C318 1.283 . S
O309 Zn302 1.965 . S
O309 C317 1.303 . S
O310 Zn303 1.938 . S
O310 C317 1.247 . S
O311 Zn303 1.906 . S
O311 C319 1.304 . S
O312 Zn300 1.924 . S
O312 C320 1.311 . S
O313 Zn304 1.977 . S
O313 C319 1.272 . S
O314 Zn304 1.910 . S
O314 C320 1.231 . S
C315 O299 1.225 . S
C315 O321 1.298 . S
C316 O305 1.226 . S
C316 O306 1.307 . S
C317 O309 1.303 . S
C317 O310 1.247 . S
C318 O307 1.253 . S
C318 O308 1.283 . S
C319 O311 1.304 . S
C319 O313 1.272 . S
C320 O312 1.311 . S
C320 O314 1.231 . S
O321 Zn303 1.953 . S
O321 C315 1.298 . S
O322 Zn323 1.953 . S
O322 C338 1.225 . S
Zn323 O322 1.953 . S
Zn323 O324 1.949 . S
Zn323 O330 1.919 . S
Zn323 O335 1.924 . S
O324 Zn323 1.949 . S
O324 Zn325 1.923 . S
O324 Zn326 1.950 . S
O324 Zn327 1.945 . S
Zn325 O324 1.923 . S
Zn325 O328 1.933 . S
Zn325 O331 1.941 . S
Zn325 O332 1.965 . S
Zn326 O324 1.950 . S
Zn326 O333 1.938 . S
Zn326 O334 1.906 . S
Zn326 O344 1.953 . S
Zn327 O324 1.945 . S
Zn327 O329 1.932 . S
Zn327 O336 1.977 . S
Zn327 O337 1.910 . S
O328 Zn325 1.933 . S
O328 C339 1.226 . S
O329 Zn327 1.932 . S
O329 C339 1.307 . S
O330 Zn323 1.919 . S
O330 C341 1.253 . S
O331 Zn325 1.941 . S
O331 C341 1.283 . S
O332 Zn325 1.965 . S
O332 C340 1.303 . S
O333 Zn326 1.938 . S
O333 C340 1.247 . S
O334 Zn326 1.906 . S
O334 C342 1.304 . S
O335 Zn323 1.924 . S
O335 C343 1.311 . S
O336 Zn327 1.977 . S
O336 C342 1.272 . S
O337 Zn327 1.910 . S
O337 C343 1.231 . S
C338 O322 1.225 . S
C338 O344 1.298 . S
C339 O328 1.226 . S
C339 O329 1.307 . S
C340 O332 1.303 . S
C340 O333 1.247 . S
C341 O330 1.253 . S
C341 O331 1.283 . S
C342 O334 1.304 . S
C342 O336 1.272 . S
C343 O335 1.311 . S
C343 O337 1.231 . S
O344 Zn326 1.953 . S
O344 C338 1.298 . S
O345 Zn346 1.953 . S
O345 C361 1.225 . S
Zn346 O345 1.953 . S
Zn346 O347 1.949 . S
Zn346 O353 1.919 . S
Zn346 O358 1.924 . S
O347 Zn346 1.949 . S
O347 Zn348 1.923 . S
O347 Zn349 1.950 . S
O347 Zn350 1.945 . S
Zn348 O347 1.923 . S
Zn348 O351 1.933 . S
Zn348 O354 1.941 . S
Zn348 O355 1.965 . S
Zn349 O347 1.950 . S
Zn349 O356 1.938 . S
Zn349 O357 1.906 . S
Zn349 O367 1.953 . S
Zn350 O347 1.945 . S
Zn350 O352 1.932 . S
Zn350 O359 1.977 . S
Zn350 O360 1.910 . S
O351 Zn348 1.933 . S
O351 C362 1.226 . S
O352 Zn350 1.932 . S
O352 C362 1.307 . S
O353 Zn346 1.919 . S
O353 C364 1.253 . S
O354 Zn348 1.941 . S
O354 C364 1.283 . S
O355 Zn348 1.965 . S
O355 C363 1.303 . S
O356 Zn349 1.938 . S
O356 C363 1.247 . S
O357 Zn349 1.906 . S
O357 C365 1.304 . S
O358 Zn346 1.924 . S
O358 C366 1.311 . S
O359 Zn350 1.977 . S
O359 C365 1.272 . S
O360 Zn350 1.910 . S
O360 C366 1.231 . S
C361 O345 1.225 . S
C361 O367 1.298 . S
C362 O351 1.226 . S
C362 O352 1.307 . S
C363 O355 1.303 . S
C363 O356 1.247 . S
C364 O353 1.253 . S
C364 O354 1.283 . S
C365 O357 1.304 . S
C365 O359 1.272 . S
C366 O358 1.311 . S
C366 O360 1.231 . S
O367 Zn349 1.953 . S
O367 C361 1.298 . S
O368 Zn369 1.953 . S
O368 C384 1.225 1_545 S
Zn369 O368 1.953 . S
Zn369 O370 1.949 . S
Zn369 O376 1.919 . S
Zn369 O381 1.924 . S
O370 Zn369 1.949 . S
O370 Zn371 1.923 . S
O370 Zn372 1.950 . S
O370 Zn373 1.945 . S
Zn371 O370 1.923 . S
Zn371 O374 1.933 . S
Zn371 O377 1.941 . S
Zn371 O378 1.965 . S
Zn372 O370 1.950 . S
Zn372 O379 1.938 . S
Zn372 O380 1.906 . S
Zn372 O390 1.953 . S
Zn373 O370 1.945 . S
Zn373 O375 1.932 . S
Zn373 O382 1.977 . S
Zn373 O383 1.910 . S
O374 Zn371 1.933 . S
O374 C385 1.226 . S
O375 Zn373 1.932 . S
O375 C385 1.307 . S
O376 Zn369 1.919 . S
O376 C387 1.253 . S
O377 Zn371 1.941 . S
O377 C387 1.283 . S
O378 Zn371 1.965 . S
O378 C386 1.303 . S
O379 Zn372 1.938 . S
O379 C386 1.247 . S
O380 Zn372 1.906 . S
O380 C388 1.304 . S
O381 Zn369 1.924 . S
O381 C389 1.311 . S
O382 Zn373 1.977 . S
O382 C388 1.272 . S
O383 Zn373 1.910 . S
O383 C389 1.231 . S
C384 O368 1.225 1_565 S
C384 O390 1.298 1_565 S
C385 O374 1.226 . S
C385 O375 1.307 . S
C386 O378 1.303 . S
C386 O379 1.247 . S
C387 O376 1.253 . S
C387 O377 1.283 . S
C388 O380 1.304 . S
C388 O382 1.272 . S
C389 O381 1.311 . S
C389 O383 1.231 . S
O390 Zn372 1.953 . S
O390 C384 1.298 1_545 S
O391 Zn392 1.953 . S
O391 C407 1.225 . S
Zn392 O391 1.953 . S
Zn392 O393 1.949 . S
Zn392 O399 1.919 . S
Zn392 O404 1.924 . S
O393 Zn392 1.949 . S
O393 Zn394 1.923 . S
O393 Zn395 1.950 . S
O393 Zn396 1.945 . S
Zn394 O393 1.923 . S
Zn394 O397 1.933 . S
Zn394 O400 1.941 . S
Zn394 O401 1.965 . S
Zn395 O393 1.950 . S
Zn395 O402 1.938 . S
Zn395 O403 1.906 . S
Zn395 O413 1.953 . S
Zn396 O393 1.945 . S
Zn396 O398 1.932 . S
Zn396 O405 1.977 . S
Zn396 O406 1.910 . S
O397 Zn394 1.933 . S
O397 C408 1.226 . S
O398 Zn396 1.932 . S
O398 C408 1.307 . S
O399 Zn392 1.919 . S
O399 C410 1.253 . S
O400 Zn394 1.941 . S
O400 C410 1.283 . S
O401 Zn394 1.965 . S
O401 C409 1.303 . S
O402 Zn395 1.938 . S
O402 C409 1.247 . S
O403 Zn395 1.906 . S
O403 C411 1.304 . S
O404 Zn392 1.924 . S
O404 C412 1.311 . S
O405 Zn396 1.977 . S
O405 C411 1.272 . S
O406 Zn396 1.910 . S
O406 C412 1.231 . S
C407 O391 1.225 . S
C407 O413 1.298 . S
C408 O397 1.226 . S
C408 O398 1.307 . S
C409 O401 1.303 . S
C409 O402 1.247 . S
C410 O399 1.253 . S
C410 O400 1.283 . S
C411 O403 1.304 . S
C411 O405 1.272 . S
C412 O404 1.311 . S
C412 O406 1.231 . S
O413 Zn395 1.953 . S
O413 C407 1.298 . S
O414 Zn415 1.953 . S
O414 C430 1.225 . S
Zn415 O414 1.953 . S
Zn415 O416 1.949 . S
Zn415 O422 1.919 . S
Zn415 O427 1.924 . S
O416 Zn415 1.949 . S
O416 Zn417 1.923 . S
O416 Zn418 1.950 . S
O416 Zn419 1.945 . S
Zn417 O416 1.923 . S
Zn417 O420 1.933 . S
Zn417 O423 1.941 . S
Zn417 O424 1.965 . S
Zn418 O416 1.950 . S
Zn418 O425 1.938 . S
Zn418 O426 1.906 . S
Zn418 O436 1.953 . S
Zn419 O416 1.945 . S
Zn419 O421 1.932 . S
Zn419 O428 1.977 . S
Zn419 O429 1.910 . S
O420 Zn417 1.933 . S
O420 C431 1.226 . S
O421 Zn419 1.932 . S
O421 C431 1.307 . S
O422 Zn415 1.919 . S
O422 C433 1.253 . S
O423 Zn417 1.941 . S
O423 C433 1.283 . S
O424 Zn417 1.965 . S
O424 C432 1.303 . S
O425 Zn418 1.938 . S
O425 C432 1.247 . S
O426 Zn418 1.906 . S
O426 C434 1.304 . S
O427 Zn415 1.924 . S
O427 C435 1.311 . S
O428 Zn419 1.977 . S
O428 C434 1.272 . S
O429 Zn419 1.910 . S
O429 C435 1.231 . S
C430 O414 1.225 . S
C430 O436 1.298 . S
C431 O420 1.226 . S
C431 O421 1.307 . S
C432 O424 1.303 . S
C432 O425 1.247 . S
C433 O422 1.253 . S
C433 O423 1.283 . S
C434 O426 1.304 . S
C434 O428 1.272 . S
C435 O427 1.311 . S
C435 O429 1.231 . S
O436 Zn418 1.953 . S
O436 C430 1.298 . S
O437 Zn438 1.953 . S
O437 C453 1.225 1_545 S
Zn438 O437 1.953 . S
Zn438 O439 1.949 . S
Zn438 O445 1.919 . S
Zn438 O450 1.924 . S
O439 Zn438 1.949 . S
O439 Zn440 1.923 . S
O439 Zn441 1.950 . S
O439 Zn442 1.945 . S
Zn440 O439 1.923 . S
Zn440 O443 1.933 . S
Zn440 O446 1.941 . S
Zn440 O447 1.965 . S
Zn441 O439 1.950 . S
Zn441 O448 1.938 . S
Zn441 O449 1.906 . S
Zn441 O459 1.953 . S
Zn442 O439 1.945 . S
Zn442 O444 1.932 . S
Zn442 O451 1.977 . S
Zn442 O452 1.910 . S
O443 Zn440 1.933 . S
O443 C454 1.226 . S
O444 Zn442 1.932 . S
O444 C454 1.307 . S
O445 Zn438 1.919 . S
O445 C456 1.253 . S
O446 Zn440 1.941 . S
O446 C456 1.283 . S
O447 Zn440 1.965 . S
O447 C455 1.303 . S
O448 Zn441 1.938 . S
O448 C455 1.247 . S
O449 Zn441 1.906 . S
O449 C457 1.304 . S
O450 Zn438 1.924 . S
O450 C458 1.311 . S
O451 Zn442 1.977 . S
O451 C457 1.272 . S
O452 Zn442 1.910 . S
O452 C458 1.231 . S
C453 O437 1.225 1_565 S
C453 O459 1.298 1_565 S
C454 O443 1.226 . S
C454 O444 1.307 . S
C455 O447 1.303 . S
C455 O448 1.247 . S
C456 O445 1.253 . S
C456 O446 1.283 . S
C457 O449 1.304 . S
C457 O451 1.272 . S
C458 O450 1.311 . S
C458 O452 1.231 . S
O459 Zn441 1.953 . S
O459 C453 1.298 1_545 S
O460 Zn461 1.953 . S
O460 C476 1.225 1_565 S
Zn461 O460 1.953 . S
Zn461 O462 1.949 . S
Zn461 O468 1.919 . S
Zn461 O473 1.924 . S
O462 Zn461 1.949 . S
O462 Zn463 1.923 . S
O462 Zn464 1.950 . S
O462 Zn465 1.945 . S
Zn463 O462 1.923 . S
Zn463 O466 1.933 . S
Zn463 O469 1.941 . S
Zn463 O470 1.965 . S
Zn464 O462 1.950 . S
Zn464 O471 1.938 . S
Zn464 O472 1.906 . S
Zn464 O482 1.953 . S
Zn465 O462 1.945 . S
Zn465 O467 1.932 . S
Zn465 O474 1.977 . S
Zn465 O475 1.910 . S
O466 Zn463 1.933 . S
O466 C477 1.226 . S
O467 Zn465 1.932 . S
O467 C477 1.307 . S
O468 Zn461 1.919 . S
O468 C479 1.253 . S
O469 Zn463 1.941 . S
O469 C479 1.283 . S
O470 Zn463 1.965 . S
O470 C478 1.303 . S
O471 Zn464 1.938 . S
O471 C478 1.247 . S
O472 Zn464 1.906 . S
O472 C480 1.304 . S
O473 Zn461 1.924 . S
O473 C481 1.311 . S
O474 Zn465 1.977 . S
O474 C480 1.272 . S
O475 Zn465 1.910 . S
O475 C481 1.231 . S
C476 O460 1.225 1_545 S
C476 O482 1.298 1_545 S
C477 O466 1.226 . S
C477 O467 1.307 . S
C478 O470 1.303 . S
C478 O471 1.247 . S
C479 O468 1.253 . S
C479 O469 1.283 . S
C480 O472 1.304 . S
C480 O474 1.272 . S
C481 O473 1.311 . S
C481 O475 1.231 . S
O482 Zn464 1.953 . S
O482 C476 1.298 1_565 S
O483 Zn484 1.953 . S
O483 C499 1.225 . S
Zn484 O483 1.953 . S
Zn484 O485 1.949 . S
Zn484 O491 1.919 . S
Zn484 O496 1.924 . S
O485 Zn484 1.949 . S
O485 Zn486 1.923 . S
O485 Zn487 1.950 . S
O485 Zn488 1.945 . S
Zn486 O485 1.923 . S
Zn486 O489 1.933 . S
Zn486 O492 1.941 . S
Zn486 O493 1.965 . S
Zn487 O485 1.950 . S
Zn487 O494 1.938 . S
Zn487 O495 1.906 . S
Zn487 O505 1.953 . S
Zn488 O485 1.945 . S
Zn488 O490 1.932 . S
Zn488 O497 1.977 . S
Zn488 O498 1.910 . S
O489 Zn486 1.933 . S
O489 C500 1.226 . S
O490 Zn488 1.932 . S
O490 C500 1.307 . S
O491 Zn484 1.919 . S
O491 C502 1.253 . S
O492 Zn486 1.941 . S
O492 C502 1.283 . S
O493 Zn486 1.965 . S
O493 C501 1.303 . S
O494 Zn487 1.938 . S
O494 C501 1.247 . S
O495 Zn487 1.906 . S
O495 C503 1.304 . S
O496 Zn484 1.924 . S
O496 C504 1.311 . S
O497 Zn488 1.977 . S
O497 C503 1.272 . S
O498 Zn488 1.910 . S
O498 C504 1.231 . S
C499 O483 1.225 . S
C499 O505 1.298 . S
C500 O489 1.226 . S
C500 O490 1.307 . S
C501 O493 1.303 . S
C501 O494 1.247 . S
C502 O491 1.253 . S
C502 O492 1.283 . S
C503 O495 1.304 . S
C503 O497 1.272 . S
C504 O496 1.311 . S
C504 O498 1.231 . S
O505 Zn487 1.953 . S
O505 C499 1.298 . S
O506 Zn507 1.953 . S
O506 C522 1.225 . S
Zn507 O506 1.953 . S
Zn507 O508 1.949 . S
Zn507 O514 1.919 . S
Zn507 O519 1.924 . S
O508 Zn507 1.949 . S
O508 Zn509 1.923 . S
O508 Zn510 1.950 . S
O508 Zn511 1.945 . S
Zn509 O508 1.923 . S
Zn509 O512 1.933 . S
Zn509 O515 1.941 . S
Zn509 O516 1.965 . S
Zn510 O508 1.950 . S
Zn510 O517 1.938 . S
Zn510 O518 1.906 . S
Zn510 O528 1.953 . S
Zn511 O508 1.945 . S
Zn511 O513 1.932 . S
Zn511 O520 1.977 . S
Zn511 O521 1.910 . S
O512 Zn509 1.933 . S
O512 C523 1.226 . S
O513 Zn511 1.932 . S
O513 C523 1.307 . S
O514 Zn507 1.919 . S
O514 C525 1.253 . S
O515 Zn509 1.941 . S
O515 C525 1.283 . S
O516 Zn509 1.965 . S
O516 C524 1.303 . S
O517 Zn510 1.938 . S
O517 C524 1.247 . S
O518 Zn510 1.906 . S
O518 C526 1.304 . S
O519 Zn507 1.924 . S
O519 C527 1.311 . S
O520 Zn511 1.977 . S
O520 C526 1.272 . S
O521 Zn511 1.910 . S
O521 C527 1.231 . S
C522 O506 1.225 . S
C522 O528 1.298 . S
C523 O512 1.226 . S
C523 O513 1.307 . S
C524 O516 1.303 . S
C524 O517 1.247 . S
C525 O514 1.253 . S
C525 O515 1.283 . S
C526 O518 1.304 . S
C526 O520 1.272 . S
C527 O519 1.311 . S
C527 O521 1.231 . S
O528 Zn510 1.953 . S
O528 C522 1.298 . S
O529 Zn530 1.953 . S
O529 C545 1.225 1_565 S
Zn530 O529 1.953 . S
Zn530 O531 1.949 . S
Zn530 O537 1.919 . S
Zn530 O542 1.924 . S
O531 Zn530 1.949 . S
O531 Zn532 1.923 . S
O531 Zn533 1.950 . S
O531 Zn534 1.945 . S
Zn532 O531 1.923 . S
Zn532 O535 1.933 . S
Zn532 O538 1.941 . S
Zn532 O539 1.965 . S
Zn533 O531 1.950 . S
Zn533 O540 1.938 . S
Zn533 O541 1.906 . S
Zn533 O551 1.953 . S
Zn534 O531 1.945 . S
Zn534 O536 1.932 . S
Zn534 O543 1.977 . S
Zn534 O544 1.910 . S
O535 Zn532 1.933 . S
O535 C546 1.226 . S
O536 Zn534 1.932 . S
O536 C546 1.307 . S
O537 Zn530 1.919 . S
O537 C548 1.253 . S
O538 Zn532 1.941 . S
O538 C548 1.283 . S
O539 Zn532 1.965 . S
O539 C547 1.303 . S
O540 Zn533 1.938 . S
O540 C547 1.247 . S
O541 Zn533 1.906 . S
O541 C549 1.304 . S
O542 Zn530 1.924 . S
O542 C550 1.311 . S
O543 Zn534 1.977 . S
O543 C549 1.272 . S
O544 Zn534 1.910 . S
O544 C550 1.231 . S
C545 O529 1.225 1_545 S
C545 O551 1.298 1_545 S
C546 O535 1.226 . S
C546 O536 1.307 . S
C547 O539 1.303 . S
C547 O540 1.247 . S
C548 O537 1.253 . S
C548 O538 1.283 . S
C549 O541 1.304 . S
C549 O543 1.272 . S
C550 O542 1.311 . S
C550 O544 1.231 . S
O551 Zn533 1.953 . S
O551 C545 1.298 1_565 S
O552 Zn553 1.953 . S
O552 C568 1.225 1_556 S
Zn553 O552 1.953 . S
Zn553 O554 1.930 1_556 S
Zn553 O560 1.919 . S
Zn553 O565 1.924 . S
O554 Zn553 1.930 1_554 S
O554 Zn555 1.909 1_554 S
O554 Zn556 1.970 . S
O554 Zn557 1.957 . S
Zn555 O554 1.909 1_556 S
Zn555 O558 1.933 . S
Zn555 O561 1.941 . S
Zn555 O562 1.965 . S
Zn556 O554 1.970 . S
Zn556 O563 1.938 . S
Zn556 O564 1.906 . S
Zn556 O574 1.953 . S
Zn557 O554 1.957 . S
Zn557 O559 1.932 . S
Zn557 O566 1.977 . S
Zn557 O567 1.910 . S
O558 Zn555 1.933 . S
O558 C569 1.226 . S
O559 Zn557 1.932 . S
O559 C569 1.307 1_554 S
O560 Zn553 1.919 . S
O560 C571 1.253 . S
O561 Zn555 1.941 . S
O561 C571 1.283 . S
O562 Zn555 1.965 . S
O562 C570 1.303 1_556 S
O563 Zn556 1.938 . S
O563 C570 1.247 . S
O564 Zn556 1.906 . S
O564 C572 1.304 . S
O565 Zn553 1.924 . S
O565 C573 1.287 1_556 S
O566 Zn557 1.977 . S
O566 C572 1.272 . S
O567 Zn557 1.910 . S
O567 C573 1.250 . S
C568 O552 1.225 1_554 S
C568 O574 1.298 . S
C569 O558 1.226 . S
C569 O559 1.307 1_556 S
C570 O562 1.303 1_554 S
C570 O563 1.247 . S
C571 O560 1.253 . S
C571 O561 1.283 . S
C572 O564 1.304 . S
C572 O566 1.272 . S
C573 O565 1.287 1_554 S
C573 O567 1.250 . S
O574 Zn556 1.953 . S
O574 C568 1.298 . S
O575 Zn576 1.953 . S
O575 C591 1.225 1_556 S
Zn576 O575 1.953 . S
Zn576 O577 1.930 1_556 S
Zn576 O583 1.919 . S
Zn576 O588 1.924 . S
O577 Zn576 1.930 1_554 S
O577 Zn578 1.909 1_554 S
O577 Zn579 1.970 . S
O577 Zn580 1.957 . S
Zn578 O577 1.909 1_556 S
Zn578 O581 1.933 . S
Zn578 O584 1.941 . S
Zn578 O585 1.965 . S
Zn579 O577 1.970 . S
Zn579 O586 1.938 . S
Zn579 O587 1.906 . S
Zn579 O597 1.953 . S
Zn580 O577 1.957 . S
Zn580 O582 1.932 . S
Zn580 O589 1.977 . S
Zn580 O590 1.910 . S
O581 Zn578 1.933 . S
O581 C592 1.226 . S
O582 Zn580 1.932 . S
O582 C592 1.307 1_554 S
O583 Zn576 1.919 . S
O583 C594 1.253 . S
O584 Zn578 1.941 . S
O584 C594 1.283 . S
O585 Zn578 1.965 . S
O585 C593 1.303 1_556 S
O586 Zn579 1.938 . S
O586 C593 1.247 . S
O587 Zn579 1.906 . S
O587 C595 1.304 . S
O588 Zn576 1.924 . S
O588 C596 1.287 1_556 S
O589 Zn580 1.977 . S
O589 C595 1.272 . S
O590 Zn580 1.910 . S
O590 C596 1.250 . S
C591 O575 1.225 1_554 S
C591 O597 1.298 . S
C592 O581 1.226 . S
C592 O582 1.307 1_556 S
C593 O585 1.303 1_554 S
C593 O586 1.247 . S
C594 O583 1.253 . S
C594 O584 1.283 . S
C595 O587 1.304 . S
C595 O589 1.272 . S
C596 O588 1.287 1_554 S
C596 O590 1.250 . S
O597 Zn579 1.953 . S
O597 C591 1.298 . S
O598 Zn599 1.953 . S
O598 C614 1.225 . S
Zn599 O598 1.953 . S
Zn599 O600 1.949 . S
Zn599 O606 1.919 . S
Zn599 O611 1.924 . S
O600 Zn599 1.949 . S
O600 Zn601 1.923 . S
O600 Zn602 1.950 . S
O600 Zn603 1.945 . S
Zn601 O600 1.923 . S
Zn601 O604 1.933 . S
Zn601 O607 1.941 . S
Zn601 O608 1.965 . S
Zn602 O600 1.950 . S
Zn602 O609 1.938 . S
Zn602 O610 1.906 . S
Zn602 O620 1.953 . S
Zn603 O600 1.945 . S
Zn603 O605 1.932 . S
Zn603 O612 1.977 . S
Zn603 O613 1.910 . S
O604 Zn601 1.933 . S
O604 C615 1.226 . S
O605 Zn603 1.932 . S
O605 C615 1.307 . S
O606 Zn599 1.919 . S
O606 C617 1.253 . S
O607 Zn601 1.941 . S
O607 C617 1.283 . S
O608 Zn601 1.965 . S
O608 C616 1.303 . S
O609 Zn602 1.938 . S
O609 C616 1.247 . S
O610 Zn602 1.906 . S
O610 C618 1.304 . S
O611 Zn599 1.924 . S
O611 C619 1.311 . S
O612 Zn603 1.977 . S
O612 C618 1.272 . S
O613 Zn603 1.910 . S
O613 C619 1.231 . S
C614 O598 1.225 . S
C614 O620 1.298 . S
C615 O604 1.226 . S
C615 O605 1.307 . S
C616 O608 1.303 . S
C616 O609 1.247 . S
C617 O606 1.253 . S
C617 O607 1.283 . S
C618 O610 1.304 . S
C618 O612 1.272 . S
C619 O611 1.311 . S
C619 O613 1.231 . S
O620 Zn602 1.953 . S
O620 C614 1.298 . S
O621 Zn622 1.953 . S
O621 C637 1.225 . S
Zn622 O621 1.953 . S
Zn622 O623 1.949 . S
Zn622 O629 1.919 . S
Zn622 O634 1.924 . S
O623 Zn622 1.949 . S
O623 Zn624 1.923 . S
O623 Zn625 1.950 . S
O623 Zn626 1.945 . S
Zn624 O623 1.923 . S
Zn624 O627 1.933 . S
Zn624 O630 1.941 . S
Zn624 O631 1.965 . S
Zn625 O623 1.950 . S
Zn625 O632 1.938 . S
Zn625 O633 1.906 . S
Zn625 O643 1.953 . S
Zn626 O623 1.945 . S
Zn626 O628 1.932 . S
Zn626 O635 1.977 . S
Zn626 O636 1.910 . S
O627 Zn624 1.933 . S
O627 C638 1.226 . S
O628 Zn626 1.932 . S
O628 C638 1.307 . S
O629 Zn622 1.919 . S
O629 C640 1.253 . S
O630 Zn624 1.941 . S
O630 C640 1.283 . S
O631 Zn624 1.965 . S
O631 C639 1.303 . S
O632 Zn625 1.938 . S
O632 C639 1.247 . S
O633 Zn625 1.906 . S
O633 C641 1.304 . S
O634 Zn622 1.924 . S
O634 C642 1.311 . S
O635 Zn626 1.977 . S
O635 C641 1.272 . S
O636 Zn626 1.910 . S
O636 C642 1.231 . S
C637 O621 1.225 . S
C637 O643 1.298 . S
C638 O627 1.226 . S
C638 O628 1.307 . S
C639 O631 1.303 . S
C639 O632 1.247 . S
C640 O629 1.253 . S
C640 O630 1.283 . S
C641 O633 1.304 . S
C641 O635 1.272 . S
C642 O634 1.311 . S
C642 O636 1.231 . S
O643 Zn625 1.953 . S
O643 C637 1.298 . S
O644 Zn645 1.953 . S
O644 C660 1.225 . S
Zn645 O644 1.953 . S
Zn645 O646 1.937 1_556 S
Zn645 O652 1.919 . S
Zn645 O657 1.924 . S
O646 Zn645 1.937 1_554 S
O646 Zn647 1.917 1_554 S
O646 Zn648 1.961 . S
O646 Zn649 1.952 . S
Zn647 O646 1.917 1_556 S
Zn647 O650 1.933 . S
Zn647 O653 1.941 . S
Zn647 O654 1.965 . S
Zn648 O646 1.961 . S
Zn648 O655 1.938 . S
Zn648 O656 1.906 . S
Zn648 O666 1.953 . S
Zn649 O646 1.952 . S
Zn649 O651 1.932 . S
Zn649 O658 1.977 . S
Zn649 O659 1.910 . S
O650 Zn647 1.933 . S
O650 C661 1.226 1_556 S
O651 Zn649 1.932 . S
O651 C661 1.307 . S
O652 Zn645 1.919 . S
O652 C663 1.253 . S
O653 Zn647 1.941 . S
O653 C663 1.283 . S
O654 Zn647 1.965 . S
O654 C662 1.303 1_556 S
O655 Zn648 1.938 . S
O655 C662 1.247 . S
O656 Zn648 1.906 . S
O656 C664 1.304 . S
O657 Zn645 1.924 . S
O657 C665 1.311 . S
O658 Zn649 1.977 . S
O658 C664 1.272 . S
O659 Zn649 1.910 . S
O659 C665 1.231 1_554 S
C660 O644 1.225 . S
C660 O666 1.298 1_556 S
C661 O650 1.226 1_554 S
C661 O651 1.307 . S
C662 O654 1.303 1_554 S
C662 O655 1.247 . S
C663 O652 1.253 . S
C663 O653 1.283 . S
C664 O656 1.304 . S
C664 O658 1.272 . S
C665 O657 1.311 . S
C665 O659 1.231 1_556 S
O666 Zn648 1.953 . S
O666 C660 1.298 1_554 S
O667 Zn668 1.953 . S
O667 C683 1.225 . S
Zn668 O667 1.953 . S
Zn668 O669 1.937 1_556 S
Zn668 O675 1.919 . S
Zn668 O680 1.924 . S
O669 Zn668 1.937 1_554 S
O669 Zn670 1.917 1_554 S
O669 Zn671 1.961 . S
O669 Zn672 1.952 . S
Zn670 O669 1.917 1_556 S
Zn670 O673 1.933 . S
Zn670 O676 1.941 . S
Zn670 O677 1.965 . S
Zn671 O669 1.961 . S
Zn671 O678 1.938 . S
Zn671 O679 1.906 . S
Zn671 O689 1.953 . S
Zn672 O669 1.952 . S
Zn672 O674 1.932 . S
Zn672 O681 1.977 . S
Zn672 O682 1.910 . S
O673 Zn670 1.933 . S
O673 C684 1.226 1_556 S
O674 Zn672 1.932 . S
O674 C684 1.307 . S
O675 Zn668 1.919 . S
O675 C686 1.253 . S
O676 Zn670 1.941 . S
O676 C686 1.283 . S
O677 Zn670 1.965 . S
O677 C685 1.303 1_556 S
O678 Zn671 1.938 . S
O678 C685 1.247 . S
O679 Zn671 1.906 . S
O679 C687 1.304 . S
O680 Zn668 1.924 . S
O680 C688 1.311 . S
O681 Zn672 1.977 . S
O681 C687 1.272 . S
O682 Zn672 1.910 . S
O682 C688 1.231 1_554 S
C683 O667 1.225 . S
C683 O689 1.298 1_556 S
C684 O673 1.226 1_554 S
C684 O674 1.307 . S
C685 O677 1.303 1_554 S
C685 O678 1.247 . S
C686 O675 1.253 . S
C686 O676 1.283 . S
C687 O679 1.304 . S
C687 O681 1.272 . S
C688 O680 1.311 . S
C688 O682 1.231 1_556 S
O689 Zn671 1.953 . S
O689 C683 1.298 1_554 S
O690 Zn691 1.953 . S
O690 C706 1.225 . S
Zn691 O690 1.953 . S
Zn691 O692 1.949 . S
Zn691 O698 1.919 . S
Zn691 O703 1.924 . S
O692 Zn691 1.949 . S
O692 Zn693 1.923 . S
O692 Zn694 1.950 . S
O692 Zn695 1.945 . S
Zn693 O692 1.923 . S
Zn693 O696 1.933 . S
Zn693 O699 1.941 . S
Zn693 O700 1.965 . S
Zn694 O692 1.950 . S
Zn694 O701 1.938 . S
Zn694 O702 1.906 . S
Zn694 O712 1.953 . S
Zn695 O692 1.945 . S
Zn695 O697 1.932 . S
Zn695 O704 1.977 . S
Zn695 O705 1.910 . S
O696 Zn693 1.933 . S
O696 C707 1.226 . S
O697 Zn695 1.932 . S
O697 C707 1.307 . S
O698 Zn691 1.919 . S
O698 C709 1.253 . S
O699 Zn693 1.941 . S
O699 C709 1.283 . S
O700 Zn693 1.965 . S
O700 C708 1.303 . S
O701 Zn694 1.938 . S
O701 C708 1.247 . S
O702 Zn694 1.906 . S
O702 C710 1.304 . S
O703 Zn691 1.924 . S
O703 C711 1.311 . S
O704 Zn695 1.977 . S
O704 C710 1.272 . S
O705 Zn695 1.910 . S
O705 C711 1.231 . S
C706 O690 1.225 . S
C706 O712 1.298 . S
C707 O696 1.226 . S
C707 O697 1.307 . S
C708 O700 1.303 . S
C708 O701 1.247 . S
C709 O698 1.253 . S
C709 O699 1.283 . S
C710 O702 1.304 . S
C710 O704 1.272 . S
C711 O703 1.311 . S
C711 O705 1.231 . S
O712 Zn694 1.953 . S
O712 C706 1.298 . S
O713 Zn714 1.953 . S
O713 C729 1.225 . S
Zn714 O713 1.953 . S
Zn714 O715 1.949 . S
Zn714 O721 1.919 . S
Zn714 O726 1.924 . S
O715 Zn714 1.949 . S
O715 Zn716 1.923 . S
O715 Zn717 1.950 . S
O715 Zn718 1.945 . S
Zn716 O715 1.923 . S
Zn716 O719 1.933 . S
Zn716 O722 1.941 . S
Zn716 O723 1.965 . S
Zn717 O715 1.950 . S
Zn717 O724 1.938 . S
Zn717 O725 1.906 . S
Zn717 O735 1.953 . S
Zn718 O715 1.945 . S
Zn718 O720 1.932 . S
Zn718 O727 1.977 . S
Zn718 O728 1.910 . S
O719 Zn716 1.933 . S
O719 C730 1.226 . S
O720 Zn718 1.932 . S
O720 C730 1.307 . S
O721 Zn714 1.919 . S
O721 C732 1.253 . S
O722 Zn716 1.941 . S
O722 C732 1.283 . S
O723 Zn716 1.965 . S
O723 C731 1.303 . S
O724 Zn717 1.938 . S
O724 C731 1.247 . S
O725 Zn717 1.906 . S
O725 C733 1.304 . S
O726 Zn714 1.924 . S
O726 C734 1.311 . S
O727 Zn718 1.977 . S
O727 C733 1.272 . S
O728 Zn718 1.910 . S
O728 C734 1.231 . S
C729 O713 1.225 . S
C729 O735 1.298 . S
C730 O719 1.226 . S
C730 O720 1.307 . S
C731 O723 1.303 . S
C731 O724 1.247 . S
C732 O721 1.253 . S
C732 O722 1.283 . S
C733 O725 1.304 . S
C733 O727 1.272 . S
C734 O726 1.311 . S
C734 O728 1.231 . S
O735 Zn717 1.953 . S
O735 C729 1.298 . S
H736 C742 0.930 . S
H737 C746 0.930 . S
H738 C751 0.929 . S
H739 C749 0.929 . S
H740 C744 0.929 . S
H741 C750 0.929 . S
C742 H736 0.930 . S
C742 C743 1.367 . S
C742 C750 1.378 . S
C743 C742 1.367 . S
C743 C751 1.433 1_554 S
C744 H740 0.929 . S
C744 C746 1.378 . S
C744 C748 1.350 1_556 S
C745 C748 1.463 . S
C745 C750 1.350 . S
C745 N753 1.427 1_554 S
C746 H737 0.930 . S
C746 C744 1.378 . S
C746 C747 1.367 1_556 S
C747 C746 1.367 1_554 S
C747 C749 1.433 . S
C748 C744 1.350 1_554 S
C748 C745 1.463 . S
C748 N752 1.427 . S
C749 H739 0.929 . S
C749 C747 1.433 . S
C749 N752 1.384 . S
C750 H741 0.929 . S
C750 C742 1.378 . S
C750 C745 1.350 . S
C751 H738 0.929 . S
C751 C743 1.433 1_556 S
C751 N753 1.384 . S
N752 C748 1.427 . S
N752 C749 1.384 . S
N753 C745 1.427 1_556 S
N753 C751 1.384 . S
H754 C760 0.930 . S
H755 C764 0.930 . S
H756 C769 0.929 . S
H757 C767 0.929 . S
H758 C762 0.929 . S
H759 C768 0.929 . S
C760 H754 0.930 . S
C760 C761 1.367 . S
C760 C768 1.378 . S
C761 C760 1.367 . S
C761 C769 1.433 1_554 S
C762 H758 0.929 . S
C762 C764 1.378 . S
C762 C766 1.350 1_556 S
C763 C766 1.463 . S
C763 C768 1.350 . S
C763 N771 1.427 1_554 S
C764 H755 0.930 . S
C764 C762 1.378 . S
C764 C765 1.367 1_556 S
C765 C764 1.367 1_554 S
C765 C767 1.433 . S
C766 C762 1.350 1_554 S
C766 C763 1.463 . S
C766 N770 1.427 . S
C767 H757 0.929 . S
C767 C765 1.433 . S
C767 N770 1.384 . S
C768 H759 0.929 . S
C768 C760 1.378 . S
C768 C763 1.350 . S
C769 H756 0.929 . S
C769 C761 1.433 1_556 S
C769 N771 1.384 . S
N770 C766 1.427 . S
N770 C767 1.384 . S
N771 C763 1.427 1_556 S
N771 C769 1.384 . S
H772 C778 0.930 . S
H773 C782 0.930 . S
H774 C787 0.929 . S
H775 C785 0.929 . S
H776 C780 0.929 . S
H777 C786 0.929 . S
C778 H772 0.930 . S
C778 C779 1.367 . S
C778 C786 1.378 . S
C779 C778 1.367 . S
C779 C787 1.433 . S
C780 H776 0.929 . S
C780 C782 1.378 . S
C780 C784 1.350 . S
C781 C784 1.463 . S
C781 C786 1.350 . S
C781 N789 1.427 . S
C782 H773 0.930 . S
C782 C780 1.378 . S
C782 C783 1.367 . S
C783 C782 1.367 . S
C783 C785 1.433 . S
C784 C780 1.350 . S
C784 C781 1.463 . S
C784 N788 1.427 . S
C785 H775 0.929 . S
C785 C783 1.433 . S
C785 N788 1.384 . S
C786 H777 0.929 . S
C786 C778 1.378 . S
C786 C781 1.350 . S
C787 H774 0.929 . S
C787 C779 1.433 . S
C787 N789 1.384 . S
N788 C784 1.427 . S
N788 C785 1.384 . S
N789 C781 1.427 . S
N789 C787 1.384 . S
H790 C796 0.930 . S
H791 C800 0.930 . S
H792 C805 0.929 . S
H793 C803 0.929 . S
H794 C798 0.929 . S
H795 C804 0.929 . S
C796 H790 0.930 . S
C796 C797 1.367 . S
C796 C804 1.378 . S
C797 C796 1.367 . S
C797 C805 1.433 . S
C798 H794 0.929 . S
C798 C800 1.378 . S
C798 C802 1.350 . S
C799 C802 1.463 . S
C799 C804 1.350 . S
C799 N807 1.427 . S
C800 H791 0.930 . S
C800 C798 1.378 . S
C800 C801 1.367 . S
C801 C800 1.367 . S
C801 C803 1.433 . S
C802 C798 1.350 . S
C802 C799 1.463 . S
C802 N806 1.427 . S
C803 H793 0.929 . S
C803 C801 1.433 . S
C803 N806 1.384 . S
C804 H795 0.929 . S
C804 C796 1.378 . S
C804 C799 1.350 . S
C805 H792 0.929 . S
C805 C797 1.433 . S
C805 N807 1.384 . S
N806 C802 1.427 . S
N806 C803 1.384 . S
N807 C799 1.427 . S
N807 C805 1.384 . S
H808 C814 0.930 . S
H809 C818 0.930 . S
H810 C823 0.929 . S
H811 C821 0.929 . S
H812 C816 0.929 . S
H813 C822 0.929 . S
C814 H808 0.930 . S
C814 C815 1.367 1_554 S
C814 C822 1.378 . S
C815 C814 1.367 1_556 S
C815 C823 1.433 . S
C816 H812 0.929 . S
C816 C818 1.378 . S
C816 C820 1.350 . S
C817 C820 1.463 . S
C817 C822 1.350 1_556 S
C817 N825 1.427 . S
C818 H809 0.930 . S
C818 C816 1.378 . S
C818 C819 1.367 . S
C819 C818 1.367 . S
C819 C821 1.433 1_556 S
C820 C816 1.350 . S
C820 C817 1.463 . S
C820 N824 1.427 1_556 S
C821 H811 0.929 . S
C821 C819 1.433 1_554 S
C821 N824 1.384 . S
C822 H813 0.929 . S
C822 C814 1.378 . S
C822 C817 1.350 1_554 S
C823 H810 0.929 . S
C823 C815 1.433 . S
C823 N825 1.384 . S
N824 C820 1.427 1_554 S
N824 C821 1.384 . S
N825 C817 1.427 . S
N825 C823 1.384 . S
H826 C832 0.930 . S
H827 C836 0.930 . S
H828 C841 0.929 . S
H829 C839 0.929 . S
H830 C834 0.929 . S
H831 C840 0.929 . S
C832 H826 0.930 . S
C832 C833 1.367 . S
C832 C840 1.378 . S
C833 C832 1.367 . S
C833 C841 1.433 1_556 S
C834 H830 0.929 . S
C834 C836 1.378 . S
C834 C838 1.350 1_554 S
C835 C838 1.463 . S
C835 C840 1.350 . S
C835 N843 1.427 1_556 S
C836 H827 0.930 . S
C836 C834 1.378 . S
C836 C837 1.367 1_554 S
C837 C836 1.367 1_556 S
C837 C839 1.433 . S
C838 C834 1.350 1_556 S
C838 C835 1.463 . S
C838 N842 1.427 . S
C839 H829 0.929 . S
C839 C837 1.433 . S
C839 N842 1.384 . S
C840 H831 0.929 . S
C840 C832 1.378 . S
C840 C835 1.350 . S
C841 H828 0.929 . S
C841 C833 1.433 1_554 S
C841 N843 1.384 . S
N842 C838 1.427 . S
N842 C839 1.384 . S
N843 C835 1.427 1_554 S
N843 C841 1.384 . S
H844 C850 0.930 . S
H845 C854 0.930 . S
H846 C859 0.929 . S
H847 C857 0.929 . S
H848 C852 0.929 . S
H849 C858 0.929 . S
C850 H844 0.930 . S
C850 C851 1.367 . S
C850 C858 1.378 . S
C851 C850 1.367 . S
C851 C859 1.433 . S
C852 H848 0.929 . S
C852 C854 1.378 . S
C852 C856 1.350 . S
C853 C856 1.463 . S
C853 C858 1.350 . S
C853 N861 1.427 . S
C854 H845 0.930 . S
C854 C852 1.378 . S
C854 C855 1.367 . S
C855 C854 1.367 . S
C855 C857 1.433 . S
C856 C852 1.350 . S
C856 C853 1.463 . S
C856 N860 1.427 . S
C857 H847 0.929 . S
C857 C855 1.433 . S
C857 N860 1.384 . S
C858 H849 0.929 . S
C858 C850 1.378 . S
C858 C853 1.350 . S
C859 H846 0.929 . S
C859 C851 1.433 . S
C859 N861 1.384 . S
N860 C856 1.427 . S
N860 C857 1.384 . S
N861 C853 1.427 . S
N861 C859 1.384 . S
H862 C868 0.930 . S
H863 C872 0.930 . S
H864 C877 0.929 . S
H865 C875 0.929 . S
H866 C870 0.929 . S
H867 C876 0.929 . S
C868 H862 0.930 . S
C868 C869 1.367 . S
C868 C876 1.378 . S
C869 C868 1.367 . S
C869 C877 1.433 . S
C870 H866 0.929 . S
C870 C872 1.378 . S
C870 C874 1.350 . S
C871 C874 1.463 . S
C871 C876 1.350 . S
C871 N879 1.427 . S
C872 H863 0.930 . S
C872 C870 1.378 . S
C872 C873 1.367 . S
C873 C872 1.367 . S
C873 C875 1.433 . S
C874 C870 1.350 . S
C874 C871 1.463 . S
C874 N878 1.427 . S
C875 H865 0.929 . S
C875 C873 1.433 . S
C875 N878 1.384 . S
C876 H867 0.929 . S
C876 C868 1.378 . S
C876 C871 1.350 . S
C877 H864 0.929 . S
C877 C869 1.433 . S
C877 N879 1.384 . S
N878 C874 1.427 . S
N878 C875 1.384 . S
N879 C871 1.427 . S
N879 C877 1.384 . S
H880 C886 0.930 . S
H881 C890 0.930 . S
H882 C895 0.929 . S
H883 C893 0.929 . S
H884 C888 0.929 . S
H885 C894 0.929 . S
C886 H880 0.930 . S
C886 C887 1.367 . S
C886 C894 1.378 . S
C887 C886 1.367 . S
C887 C895 1.433 . S
C888 H884 0.929 . S
C888 C890 1.378 . S
C888 C892 1.350 . S
C889 C892 1.463 . S
C889 C894 1.350 . S
C889 N897 1.427 . S
C890 H881 0.930 . S
C890 C888 1.378 . S
C890 C891 1.367 . S
C891 C890 1.367 . S
C891 C893 1.433 . S
C892 C888 1.350 . S
C892 C889 1.463 . S
C892 N896 1.427 . S
C893 H883 0.929 . S
C893 C891 1.433 . S
C893 N896 1.384 . S
C894 H885 0.929 . S
C894 C886 1.378 . S
C894 C889 1.350 . S
C895 H882 0.929 . S
C895 C887 1.433 . S
C895 N897 1.384 . S
N896 C892 1.427 . S
N896 C893 1.384 . S
N897 C889 1.427 . S
N897 C895 1.384 . S
H898 C904 0.930 . S
H899 C908 0.930 . S
H900 C913 0.929 . S
H901 C911 0.929 . S
H902 C906 0.929 . S
H903 C912 0.929 . S
C904 H898 0.930 . S
C904 C905 1.367 . S
C904 C912 1.378 . S
C905 C904 1.367 . S
C905 C913 1.433 . S
C906 H902 0.929 . S
C906 C908 1.378 . S
C906 C910 1.350 . S
C907 C910 1.463 . S
C907 C912 1.350 . S
C907 N915 1.427 . S
C908 H899 0.930 . S
C908 C906 1.378 . S
C908 C909 1.367 . S
C909 C908 1.367 . S
C909 C911 1.433 . S
C910 C906 1.350 . S
C910 C907 1.463 . S
C910 N914 1.427 . S
C911 H901 0.929 . S
C911 C909 1.433 . S
C911 N914 1.384 . S
C912 H903 0.929 . S
C912 C904 1.378 . S
C912 C907 1.350 . S
C913 H900 0.929 . S
C913 C905 1.433 . S
C913 N915 1.384 . S
N914 C910 1.427 . S
N914 C911 1.384 . S
N915 C907 1.427 . S
N915 C913 1.384 . S
H916 C922 0.930 . S
H917 C926 0.930 . S
H918 C931 0.929 . S
H919 C929 0.929 . S
H920 C924 0.929 . S
H921 C930 0.929 . S
C922 H916 0.930 . S
C922 C923 1.367 . S
C922 C930 1.378 . S
C923 C922 1.367 . S
C923 C931 1.433 . S
C924 H920 0.929 . S
C924 C926 1.378 . S
C924 C928 1.350 . S
C925 C928 1.463 . S
C925 C930 1.350 . S
C925 N933 1.427 . S
C926 H917 0.930 . S
C926 C924 1.378 . S
C926 C927 1.367 . S
C927 C926 1.367 . S
C927 C929 1.433 . S
C928 C924 1.350 . S
C928 C925 1.463 . S
C928 N932 1.427 . S
C929 H919 0.929 . S
C929 C927 1.433 . S
C929 N932 1.384 . S
C930 H921 0.929 . S
C930 C922 1.378 . S
C930 C925 1.350 . S
C931 H918 0.929 . S
C931 C923 1.433 . S
C931 N933 1.384 . S
N932 C928 1.427 . S
N932 C929 1.384 . S
N933 C925 1.427 . S
N933 C931 1.384 . S
H934 C940 0.930 . S
H935 C944 0.930 . S
H936 C949 0.929 . S
H937 C947 0.929 . S
H938 C942 0.929 . S
H939 C948 0.929 . S
C940 H934 0.930 . S
C940 C941 1.367 . S
C940 C948 1.378 . S
C941 C940 1.367 . S
C941 C949 1.433 . S
C942 H938 0.929 . S
C942 C944 1.378 . S
C942 C946 1.350 . S
C943 C946 1.463 . S
C943 C948 1.350 . S
C943 N951 1.427 . S
C944 H935 0.930 . S
C944 C942 1.378 . S
C944 C945 1.367 . S
C945 C944 1.367 . S
C945 C947 1.433 . S
C946 C942 1.350 . S
C946 C943 1.463 . S
C946 N950 1.427 . S
C947 H937 0.929 . S
C947 C945 1.433 . S
C947 N950 1.384 . S
C948 H939 0.929 . S
C948 C940 1.378 . S
C948 C943 1.350 . S
C949 H936 0.929 . S
C949 C941 1.433 . S
C949 N951 1.384 . S
N950 C946 1.427 . S
N950 C947 1.384 . S
N951 C943 1.427 . S
N951 C949 1.384 . S
H952 C958 0.930 . S
H953 C962 0.930 . S
H954 C967 0.929 . S
H955 C965 0.929 . S
H956 C960 0.929 . S
H957 C966 0.929 . S
C958 H952 0.930 . S
C958 C959 1.367 . S
C958 C966 1.378 . S
C959 C958 1.367 . S
C959 C967 1.433 . S
C960 H956 0.929 . S
C960 C962 1.378 . S
C960 C964 1.350 . S
C961 C964 1.463 . S
C961 C966 1.350 . S
C961 N969 1.427 . S
C962 H953 0.930 . S
C962 C960 1.378 . S
C962 C963 1.367 . S
C963 C962 1.367 . S
C963 C965 1.433 . S
C964 C960 1.350 . S
C964 C961 1.463 . S
C964 N968 1.427 . S
C965 H955 0.929 . S
C965 C963 1.433 . S
C965 N968 1.384 . S
C966 H957 0.929 . S
C966 C958 1.378 . S
C966 C961 1.350 . S
C967 H954 0.929 . S
C967 C959 1.433 . S
C967 N969 1.384 . S
N968 C964 1.427 . S
N968 C965 1.384 . S
N969 C961 1.427 . S
N969 C967 1.384 . S
H970 C976 0.930 . S
H971 C980 0.930 . S
H972 C985 0.929 . S
H973 C983 0.929 . S
H974 C978 0.929 . S
H975 C984 0.929 . S
C976 H970 0.930 . S
C976 C977 1.367 . S
C976 C984 1.378 . S
C977 C976 1.367 . S
C977 C985 1.433 . S
C978 H974 0.929 . S
C978 C980 1.378 . S
C978 C982 1.350 . S
C979 C982 1.463 . S
C979 C984 1.350 . S
C979 N987 1.427 . S
C980 H971 0.930 . S
C980 C978 1.378 . S
C980 C981 1.367 . S
C981 C980 1.367 . S
C981 C983 1.433 . S
C982 C978 1.350 . S
C982 C979 1.463 . S
C982 N986 1.427 . S
C983 H973 0.929 . S
C983 C981 1.433 . S
C983 N986 1.384 . S
C984 H975 0.929 . S
C984 C976 1.378 . S
C984 C979 1.350 . S
C985 H972 0.929 . S
C985 C977 1.433 . S
C985 N987 1.384 . S
N986 C982 1.427 . S
N986 C983 1.384 . S
N987 C979 1.427 . S
N987 C985 1.384 . S
H988 C994 0.930 . S
H989 C998 0.930 . S
H990 C1003 0.929 . S
H991 C1001 0.929 . S
H992 C996 0.929 . S
H993 C1002 0.929 . S
C994 H988 0.930 . S
C994 C995 1.367 . S
C994 C1002 1.378 . S
C995 C994 1.367 . S
C995 C1003 1.433 . S
C996 H992 0.929 . S
C996 C998 1.378 . S
C996 C1000 1.350 . S
C997 C1000 1.463 . S
C997 C1002 1.350 . S
C997 N1005 1.427 . S
C998 H989 0.930 . S
C998 C996 1.378 . S
C998 C999 1.367 . S
C999 C998 1.367 . S
C999 C1001 1.433 . S
C1000 C996 1.350 . S
C1000 C997 1.463 . S
C1000 N1004 1.427 . S
C1001 H991 0.929 . S
C1001 C999 1.433 . S
C1001 N1004 1.384 . S
C1002 H993 0.929 . S
C1002 C994 1.378 . S
C1002 C997 1.350 . S
C1003 H990 0.929 . S
C1003 C995 1.433 . S
C1003 N1005 1.384 . S
N1004 C1000 1.427 . S
N1004 C1001 1.384 . S
N1005 C997 1.427 . S
N1005 C1003 1.384 . S
H1006 C1012 0.930 . S
H1007 C1016 0.930 . S
H1008 C1021 0.929 . S
H1009 C1019 0.929 . S
H1010 C1014 0.929 . S
H1011 C1020 0.929 . S
C1012 H1006 0.930 . S
C1012 C1013 1.367 . S
C1012 C1020 1.378 . S
C1013 C1012 1.367 . S
C1013 C1021 1.433 . S
C1014 H1010 0.929 . S
C1014 C1016 1.378 . S
C1014 C1018 1.350 . S
C1015 C1018 1.463 . S
C1015 C1020 1.350 . S
C1015 N1023 1.427 . S
C1016 H1007 0.930 . S
C1016 C1014 1.378 . S
C1016 C1017 1.367 . S
C1017 C1016 1.367 . S
C1017 C1019 1.433 . S
C1018 C1014 1.350 . S
C1018 C1015 1.463 . S
C1018 N1022 1.427 . S
C1019 H1009 0.929 . S
C1019 C1017 1.433 . S
C1019 N1022 1.384 . S
C1020 H1011 0.929 . S
C1020 C1012 1.378 . S
C1020 C1015 1.350 . S
C1021 H1008 0.929 . S
C1021 C1013 1.433 . S
C1021 N1023 1.384 . S
N1022 C1018 1.427 . S
N1022 C1019 1.384 . S
N1023 C1015 1.427 . S
N1023 C1021 1.384 . S
H1024 C1030 0.930 . S
H1025 C1034 0.930 . S
H1026 C1039 0.929 . S
H1027 C1037 0.929 . S
H1028 C1032 0.929 . S
H1029 C1038 0.929 . S
C1030 H1024 0.930 . S
C1030 C1031 1.367 . S
C1030 C1038 1.378 . S
C1031 C1030 1.367 . S
C1031 C1039 1.433 . S
C1032 H1028 0.929 . S
C1032 C1034 1.378 . S
C1032 C1036 1.350 . S
C1033 C1036 1.463 . S
C1033 C1038 1.350 . S
C1033 N1041 1.427 . S
C1034 H1025 0.930 . S
C1034 C1032 1.378 . S
C1034 C1035 1.367 . S
C1035 C1034 1.367 . S
C1035 C1037 1.433 . S
C1036 C1032 1.350 . S
C1036 C1033 1.463 . S
C1036 N1040 1.427 . S
C1037 H1027 0.929 . S
C1037 C1035 1.433 . S
C1037 N1040 1.384 . S
C1038 H1029 0.929 . S
C1038 C1030 1.378 . S
C1038 C1033 1.350 . S
C1039 H1026 0.929 . S
C1039 C1031 1.433 . S
C1039 N1041 1.384 . S
N1040 C1036 1.427 . S
N1040 C1037 1.384 . S
N1041 C1033 1.427 . S
N1041 C1039 1.384 . S
H1042 C1048 0.930 . S
H1043 C1052 0.930 . S
H1044 C1057 0.929 . S
H1045 C1055 0.929 . S
H1046 C1050 0.929 . S
H1047 C1056 0.929 . S
C1048 H1042 0.930 . S
C1048 C1049 1.367 . S
C1048 C1056 1.378 . S
C1049 C1048 1.367 . S
C1049 C1057 1.433 . S
C1050 H1046 0.929 . S
C1050 C1052 1.378 . S
C1050 C1054 1.350 . S
C1051 C1054 1.463 . S
C1051 C1056 1.350 . S
C1051 N1059 1.427 . S
C1052 H1043 0.930 . S
C1052 C1050 1.378 . S
C1052 C1053 1.367 . S
C1053 C1052 1.367 . S
C1053 C1055 1.433 . S
C1054 C1050 1.350 . S
C1054 C1051 1.463 . S
C1054 N1058 1.427 . S
C1055 H1045 0.929 . S
C1055 C1053 1.433 . S
C1055 N1058 1.384 . S
C1056 H1047 0.929 . S
C1056 C1048 1.378 . S
C1056 C1051 1.350 . S
C1057 H1044 0.929 . S
C1057 C1049 1.433 . S
C1057 N1059 1.384 . S
N1058 C1054 1.427 . S
N1058 C1055 1.384 . S
N1059 C1051 1.427 . S
N1059 C1057 1.384 . S
H1060 C1066 0.930 . S
H1061 C1070 0.930 . S
H1062 C1075 0.929 . S
H1063 C1073 0.929 . S
H1064 C1068 0.929 . S
H1065 C1074 0.929 . S
C1066 H1060 0.930 . S
C1066 C1067 1.367 . S
C1066 C1074 1.378 . S
C1067 C1066 1.367 . S
C1067 C1075 1.433 . S
C1068 H1064 0.929 . S
C1068 C1070 1.378 . S
C1068 C1072 1.350 . S
C1069 C1072 1.463 . S
C1069 C1074 1.350 . S
C1069 N1077 1.427 . S
C1070 H1061 0.930 . S
C1070 C1068 1.378 . S
C1070 C1071 1.367 . S
C1071 C1070 1.367 . S
C1071 C1073 1.433 . S
C1072 C1068 1.350 . S
C1072 C1069 1.463 . S
C1072 N1076 1.427 . S
C1073 H1063 0.929 . S
C1073 C1071 1.433 . S
C1073 N1076 1.384 . S
C1074 H1065 0.929 . S
C1074 C1066 1.378 . S
C1074 C1069 1.350 . S
C1075 H1062 0.929 . S
C1075 C1067 1.433 . S
C1075 N1077 1.384 . S
N1076 C1072 1.427 . S
N1076 C1073 1.384 . S
N1077 C1069 1.427 . S
N1077 C1075 1.384 . S
H1078 C1084 0.930 . S
H1079 C1088 0.930 . S
H1080 C1093 0.929 . S
H1081 C1091 0.929 . S
H1082 C1086 0.929 . S
H1083 C1092 0.929 . S
C1084 H1078 0.930 . S
C1084 C1085 1.367 . S
C1084 C1092 1.378 . S
C1085 C1084 1.367 . S
C1085 C1093 1.433 . S
C1086 H1082 0.929 . S
C1086 C1088 1.378 . S
C1086 C1090 1.350 . S
C1087 C1090 1.463 . S
C1087 C1092 1.350 . S
C1087 N1095 1.427 . S
C1088 H1079 0.930 . S
C1088 C1086 1.378 . S
C1088 C1089 1.367 . S
C1089 C1088 1.367 . S
C1089 C1091 1.433 . S
C1090 C1086 1.350 . S
C1090 C1087 1.463 . S
C1090 N1094 1.427 . S
C1091 H1081 0.929 . S
C1091 C1089 1.433 . S
C1091 N1094 1.384 . S
C1092 H1083 0.929 . S
C1092 C1084 1.378 . S
C1092 C1087 1.350 . S
C1093 H1080 0.929 . S
C1093 C1085 1.433 . S
C1093 N1095 1.384 . S
N1094 C1090 1.427 . S
N1094 C1091 1.384 . S
N1095 C1087 1.427 . S
N1095 C1093 1.384 . S
H1096 C1102 0.930 . S
H1097 C1106 0.930 . S
H1098 C1111 0.929 . S
H1099 C1109 0.929 . S
H1100 C1104 0.929 . S
H1101 C1110 0.929 . S
C1102 H1096 0.930 . S
C1102 C1103 1.367 . S
C1102 C1110 1.378 . S
C1103 C1102 1.367 . S
C1103 C1111 1.433 . S
C1104 H1100 0.929 . S
C1104 C1106 1.378 . S
C1104 C1108 1.350 . S
C1105 C1108 1.463 . S
C1105 C1110 1.350 . S
C1105 N1113 1.427 . S
C1106 H1097 0.930 . S
C1106 C1104 1.378 . S
C1106 C1107 1.367 . S
C1107 C1106 1.367 . S
C1107 C1109 1.433 . S
C1108 C1104 1.350 . S
C1108 C1105 1.463 . S
C1108 N1112 1.427 . S
C1109 H1099 0.929 . S
C1109 C1107 1.433 . S
C1109 N1112 1.384 . S
C1110 H1101 0.929 . S
C1110 C1102 1.378 . S
C1110 C1105 1.350 . S
C1111 H1098 0.929 . S
C1111 C1103 1.433 . S
C1111 N1113 1.384 . S
N1112 C1108 1.427 . S
N1112 C1109 1.384 . S
N1113 C1105 1.427 . S
N1113 C1111 1.384 . S
H1114 C1120 0.930 . S
H1115 C1124 0.930 . S
H1116 C1129 0.929 . S
H1117 C1127 0.929 . S
H1118 C1122 0.929 . S
H1119 C1128 0.929 . S
C1120 H1114 0.930 . S
C1120 C1121 1.367 . S
C1120 C1128 1.378 . S
C1121 C1120 1.367 . S
C1121 C1129 1.433 . S
C1122 H1118 0.929 . S
C1122 C1124 1.378 . S
C1122 C1126 1.350 . S
C1123 C1126 1.463 . S
C1123 C1128 1.350 . S
C1123 N1131 1.427 . S
C1124 H1115 0.930 . S
C1124 C1122 1.378 . S
C1124 C1125 1.367 . S
C1125 C1124 1.367 . S
C1125 C1127 1.433 . S
C1126 C1122 1.350 . S
C1126 C1123 1.463 . S
C1126 N1130 1.427 . S
C1127 H1117 0.929 . S
C1127 C1125 1.433 . S
C1127 N1130 1.384 . S
C1128 H1119 0.929 . S
C1128 C1120 1.378 . S
C1128 C1123 1.350 . S
C1129 H1116 0.929 . S
C1129 C1121 1.433 . S
C1129 N1131 1.384 . S
N1130 C1126 1.427 . S
N1130 C1127 1.384 . S
N1131 C1123 1.427 . S
N1131 C1129 1.384 . S
H1132 C1138 0.930 . S
H1133 C1142 0.930 . S
H1134 C1147 0.929 . S
H1135 C1145 0.929 . S
H1136 C1140 0.929 . S
H1137 C1146 0.929 . S
C1138 H1132 0.930 . S
C1138 C1139 1.367 . S
C1138 C1146 1.378 . S
C1139 C1138 1.367 . S
C1139 C1147 1.433 . S
C1140 H1136 0.929 . S
C1140 C1142 1.378 . S
C1140 C1144 1.350 . S
C1141 C1144 1.463 . S
C1141 C1146 1.350 . S
C1141 N1149 1.427 . S
C1142 H1133 0.930 . S
C1142 C1140 1.378 . S
C1142 C1143 1.367 . S
C1143 C1142 1.367 . S
C1143 C1145 1.433 . S
C1144 C1140 1.350 . S
C1144 C1141 1.463 . S
C1144 N1148 1.427 . S
C1145 H1135 0.929 . S
C1145 C1143 1.433 . S
C1145 N1148 1.384 . S
C1146 H1137 0.929 . S
C1146 C1138 1.378 . S
C1146 C1141 1.350 . S
C1147 H1134 0.929 . S
C1147 C1139 1.433 . S
C1147 N1149 1.384 . S
N1148 C1144 1.427 . S
N1148 C1145 1.384 . S
N1149 C1141 1.427 . S
N1149 C1147 1.384 . S
H1150 C1156 0.930 . S
H1151 C1160 0.930 . S
H1152 C1165 0.929 . S
H1153 C1163 0.929 . S
H1154 C1158 0.929 . S
H1155 C1164 0.929 . S
C1156 H1150 0.930 . S
C1156 C1157 1.367 . S
C1156 C1164 1.378 . S
C1157 C1156 1.367 . S
C1157 C1165 1.433 . S
C1158 H1154 0.929 . S
C1158 C1160 1.378 . S
C1158 C1162 1.350 . S
C1159 C1162 1.463 . S
C1159 C1164 1.350 . S
C1159 N1167 1.427 . S
C1160 H1151 0.930 . S
C1160 C1158 1.378 . S
C1160 C1161 1.367 . S
C1161 C1160 1.367 . S
C1161 C1163 1.433 . S
C1162 C1158 1.350 . S
C1162 C1159 1.463 . S
C1162 N1166 1.427 . S
C1163 H1153 0.929 . S
C1163 C1161 1.433 . S
C1163 N1166 1.384 . S
C1164 H1155 0.929 . S
C1164 C1156 1.378 . S
C1164 C1159 1.350 . S
C1165 H1152 0.929 . S
C1165 C1157 1.433 . S
C1165 N1167 1.384 . S
N1166 C1162 1.427 . S
N1166 C1163 1.384 . S
N1167 C1159 1.427 . S
N1167 C1165 1.384 . S
H1168 C1174 0.930 . S
H1169 C1178 0.930 . S
H1170 C1183 0.929 . S
H1171 C1181 0.929 . S
H1172 C1176 0.929 . S
H1173 C1182 0.929 . S
C1174 H1168 0.930 . S
C1174 C1175 1.367 . S
C1174 C1182 1.378 . S
C1175 C1174 1.367 . S
C1175 C1183 1.433 . S
C1176 H1172 0.929 . S
C1176 C1178 1.378 . S
C1176 C1180 1.350 . S
C1177 C1180 1.463 . S
C1177 C1182 1.350 . S
C1177 N1185 1.427 . S
C1178 H1169 0.930 . S
C1178 C1176 1.378 . S
C1178 C1179 1.367 . S
C1179 C1178 1.367 . S
C1179 C1181 1.433 . S
C1180 C1176 1.350 . S
C1180 C1177 1.463 . S
C1180 N1184 1.427 . S
C1181 H1171 0.929 . S
C1181 C1179 1.433 . S
C1181 N1184 1.384 . S
C1182 H1173 0.929 . S
C1182 C1174 1.378 . S
C1182 C1177 1.350 . S
C1183 H1170 0.929 . S
C1183 C1175 1.433 . S
C1183 N1185 1.384 . S
N1184 C1180 1.427 . S
N1184 C1181 1.384 . S
N1185 C1177 1.427 . S
N1185 C1183 1.384 . S
H1186 C1192 0.930 . S
H1187 C1196 0.930 . S
H1188 C1201 0.929 . S
H1189 C1199 0.929 . S
H1190 C1194 0.929 . S
H1191 C1200 0.929 . S
C1192 H1186 0.930 . S
C1192 C1193 1.367 . S
C1192 C1200 1.378 . S
C1193 C1192 1.367 . S
C1193 C1201 1.433 . S
C1194 H1190 0.929 . S
C1194 C1196 1.378 . S
C1194 C1198 1.350 . S
C1195 C1198 1.463 . S
C1195 C1200 1.350 . S
C1195 N1203 1.427 . S
C1196 H1187 0.930 . S
C1196 C1194 1.378 . S
C1196 C1197 1.367 . S
C1197 C1196 1.367 . S
C1197 C1199 1.433 . S
C1198 C1194 1.350 . S
C1198 C1195 1.463 . S
C1198 N1202 1.427 . S
C1199 H1189 0.929 . S
C1199 C1197 1.433 . S
C1199 N1202 1.384 . S
C1200 H1191 0.929 . S
C1200 C1192 1.378 . S
C1200 C1195 1.350 . S
C1201 H1188 0.929 . S
C1201 C1193 1.433 . S
C1201 N1203 1.384 . S
N1202 C1198 1.427 . S
N1202 C1199 1.384 . S
N1203 C1195 1.427 . S
N1203 C1201 1.384 . S
H1204 C1210 0.930 . S
H1205 C1214 0.930 . S
H1206 C1219 0.929 . S
H1207 C1217 0.929 . S
H1208 C1212 0.929 . S
H1209 C1218 0.929 . S
C1210 H1204 0.930 . S
C1210 C1211 1.367 . S
C1210 C1218 1.378 . S
C1211 C1210 1.367 . S
C1211 C1219 1.433 . S
C1212 H1208 0.929 . S
C1212 C1214 1.378 . S
C1212 C1216 1.350 . S
C1213 C1216 1.463 . S
C1213 C1218 1.350 . S
C1213 N1221 1.427 . S
C1214 H1205 0.930 . S
C1214 C1212 1.378 . S
C1214 C1215 1.367 . S
C1215 C1214 1.367 . S
C1215 C1217 1.433 . S
C1216 C1212 1.350 . S
C1216 C1213 1.463 . S
C1216 N1220 1.427 . S
C1217 H1207 0.929 . S
C1217 C1215 1.433 . S
C1217 N1220 1.384 . S
C1218 H1209 0.929 . S
C1218 C1210 1.378 . S
C1218 C1213 1.350 . S
C1219 H1206 0.929 . S
C1219 C1211 1.433 . S
C1219 N1221 1.384 . S
N1220 C1216 1.427 . S
N1220 C1217 1.384 . S
N1221 C1213 1.427 . S
N1221 C1219 1.384 . S
H1222 C1228 0.930 . S
H1223 C1232 0.930 . S
H1224 C1237 0.929 . S
H1225 C1235 0.929 . S
H1226 C1230 0.929 . S
H1227 C1236 0.929 . S
C1228 H1222 0.930 . S
C1228 C1229 1.367 . S
C1228 C1236 1.378 . S
C1229 C1228 1.367 . S
C1229 C1237 1.433 . S
C1230 H1226 0.929 . S
C1230 C1232 1.378 . S
C1230 C1234 1.350 . S
C1231 C1234 1.463 . S
C1231 C1236 1.350 . S
C1231 N1239 1.427 . S
C1232 H1223 0.930 . S
C1232 C1230 1.378 . S
C1232 C1233 1.367 . S
C1233 C1232 1.367 . S
C1233 C1235 1.433 . S
C1234 C1230 1.350 . S
C1234 C1231 1.463 . S
C1234 N1238 1.427 . S
C1235 H1225 0.929 . S
C1235 C1233 1.433 . S
C1235 N1238 1.384 . S
C1236 H1227 0.929 . S
C1236 C1228 1.378 . S
C1236 C1231 1.350 . S
C1237 H1224 0.929 . S
C1237 C1229 1.433 . S
C1237 N1239 1.384 . S
N1238 C1234 1.427 . S
N1238 C1235 1.384 . S
N1239 C1231 1.427 . S
N1239 C1237 1.384 . S
H1240 C1246 0.930 . S
H1241 C1250 0.930 . S
H1242 C1255 0.929 . S
H1243 C1253 0.929 . S
H1244 C1248 0.929 . S
H1245 C1254 0.929 . S
C1246 H1240 0.930 . S
C1246 C1247 1.367 . S
C1246 C1254 1.378 . S
C1247 C1246 1.367 . S
C1247 C1255 1.433 . S
C1248 H1244 0.929 . S
C1248 C1250 1.378 . S
C1248 C1252 1.350 . S
C1249 C1252 1.463 . S
C1249 C1254 1.350 . S
C1249 N1257 1.427 . S
C1250 H1241 0.930 . S
C1250 C1248 1.378 . S
C1250 C1251 1.367 . S
C1251 C1250 1.367 . S
C1251 C1253 1.433 . S
C1252 C1248 1.350 . S
C1252 C1249 1.463 . S
C1252 N1256 1.427 . S
C1253 H1243 0.929 . S
C1253 C1251 1.433 . S
C1253 N1256 1.384 . S
C1254 H1245 0.929 . S
C1254 C1246 1.378 . S
C1254 C1249 1.350 . S
C1255 H1242 0.929 . S
C1255 C1247 1.433 . S
C1255 N1257 1.384 . S
N1256 C1252 1.427 . S
N1256 C1253 1.384 . S
N1257 C1249 1.427 . S
N1257 C1255 1.384 . S
H1258 C1264 0.930 . S
H1259 C1268 0.930 . S
H1260 C1273 0.929 . S
H1261 C1271 0.929 . S
H1262 C1266 0.929 . S
H1263 C1272 0.929 . S
C1264 H1258 0.930 . S
C1264 C1265 1.367 . S
C1264 C1272 1.378 . S
C1265 C1264 1.367 . S
C1265 C1273 1.433 . S
C1266 H1262 0.929 . S
C1266 C1268 1.378 . S
C1266 C1270 1.350 . S
C1267 C1270 1.463 . S
C1267 C1272 1.350 . S
C1267 N1275 1.427 . S
C1268 H1259 0.930 . S
C1268 C1266 1.378 . S
C1268 C1269 1.367 . S
C1269 C1268 1.367 . S
C1269 C1271 1.433 . S
C1270 C1266 1.350 . S
C1270 C1267 1.463 . S
C1270 N1274 1.427 . S
C1271 H1261 0.929 . S
C1271 C1269 1.433 . S
C1271 N1274 1.384 . S
C1272 H1263 0.929 . S
C1272 C1264 1.378 . S
C1272 C1267 1.350 . S
C1273 H1260 0.929 . S
C1273 C1265 1.433 . S
C1273 N1275 1.384 . S
N1274 C1270 1.427 . S
N1274 C1271 1.384 . S
N1275 C1267 1.427 . S
N1275 C1273 1.384 . S
H1276 C1282 0.930 . S
H1277 C1286 0.930 . S
H1278 C1291 0.929 . S
H1279 C1289 0.929 . S
H1280 C1284 0.929 . S
H1281 C1290 0.929 . S
C1282 H1276 0.930 . S
C1282 C1283 1.367 . S
C1282 C1290 1.378 . S
C1283 C1282 1.367 . S
C1283 C1291 1.433 . S
C1284 H1280 0.929 . S
C1284 C1286 1.378 . S
C1284 C1288 1.350 . S
C1285 C1288 1.463 . S
C1285 C1290 1.350 . S
C1285 N1293 1.427 . S
C1286 H1277 0.930 . S
C1286 C1284 1.378 . S
C1286 C1287 1.367 . S
C1287 C1286 1.367 . S
C1287 C1289 1.433 . S
C1288 C1284 1.350 . S
C1288 C1285 1.463 . S
C1288 N1292 1.427 . S
C1289 H1279 0.929 . S
C1289 C1287 1.433 . S
C1289 N1292 1.384 . S
C1290 H1281 0.929 . S
C1290 C1282 1.378 . S
C1290 C1285 1.350 . S
C1291 H1278 0.929 . S
C1291 C1283 1.433 . S
C1291 N1293 1.384 . S
N1292 C1288 1.427 . S
N1292 C1289 1.384 . S
N1293 C1285 1.427 . S
N1293 C1291 1.384 . S
H1294 C1300 0.930 . S
H1295 C1304 0.930 . S
H1296 C1309 0.929 . S
H1297 C1307 0.929 . S
H1298 C1302 0.929 . S
H1299 C1308 0.929 . S
C1300 H1294 0.930 . S
C1300 C1301 1.367 . S
C1300 C1308 1.378 . S
C1301 C1300 1.367 . S
C1301 C1309 1.433 . S
C1302 H1298 0.929 . S
C1302 C1304 1.378 . S
C1302 C1306 1.350 . S
C1303 C1306 1.463 . S
C1303 C1308 1.350 . S
C1303 N1311 1.427 . S
C1304 H1295 0.930 . S
C1304 C1302 1.378 . S
C1304 C1305 1.367 . S
C1305 C1304 1.367 . S
C1305 C1307 1.433 . S
C1306 C1302 1.350 . S
C1306 C1303 1.463 . S
C1306 N1310 1.427 . S
C1307 H1297 0.929 . S
C1307 C1305 1.433 . S
C1307 N1310 1.384 . S
C1308 H1299 0.929 . S
C1308 C1300 1.378 . S
C1308 C1303 1.350 . S
C1309 H1296 0.929 . S
C1309 C1301 1.433 . S
C1309 N1311 1.384 . S
N1310 C1306 1.427 . S
N1310 C1307 1.384 . S
N1311 C1303 1.427 . S
N1311 C1309 1.384 . S
H1312 C1318 0.930 . S
H1313 C1322 0.930 . S
H1314 C1327 0.929 . S
H1315 C1325 0.929 . S
H1316 C1320 0.929 1_565 S
H1317 C1326 0.929 1_545 S
C1318 H1312 0.930 . S
C1318 C1319 1.367 1_554 S
C1318 C1326 1.378 . S
C1319 C1318 1.367 1_556 S
C1319 C1327 1.433 . S
C1320 H1316 0.929 1_545 S
C1320 C1322 1.378 . S
C1320 C1324 1.332 1_556 S
C1321 C1324 1.463 1_565 S
C1321 C1326 1.369 . S
C1321 N1329 1.407 1_554 S
C1322 H1313 0.930 . S
C1322 C1320 1.378 . S
C1322 C1323 1.367 1_556 S
C1323 C1322 1.367 1_554 S
C1323 C1325 1.433 . S
C1324 C1320 1.332 1_554 S
C1324 C1321 1.463 1_545 S
C1324 N1328 1.447 . S
C1325 H1315 0.929 . S
C1325 C1323 1.433 . S
C1325 N1328 1.384 . S
C1326 H1317 0.929 1_565 S
C1326 C1318 1.378 . S
C1326 C1321 1.369 . S
C1327 H1314 0.929 . S
C1327 C1319 1.433 . S
C1327 N1329 1.384 . S
N1328 C1324 1.447 . S
N1328 C1325 1.384 . S
N1329 C1321 1.407 1_556 S
N1329 C1327 1.384 . S
H1330 C1336 0.930 . S
H1331 C1340 0.930 . S
H1332 C1345 0.929 . S
H1333 C1343 0.929 . S
H1334 C1338 0.929 . S
H1335 C1344 0.929 . S
C1336 H1330 0.930 . S
C1336 C1337 1.367 1_556 S
C1336 C1344 1.378 . S
C1337 C1336 1.367 1_554 S
C1337 C1345 1.433 . S
C1338 H1334 0.929 . S
C1338 C1340 1.378 . S
C1338 C1342 1.357 . S
C1339 C1342 1.463 . S
C1339 C1344 1.350 1_554 S
C1339 N1347 1.427 . S
C1340 H1331 0.930 . S
C1340 C1338 1.378 . S
C1340 C1341 1.367 1_554 S
C1341 C1340 1.367 1_556 S
C1341 C1343 1.433 . S
C1342 C1338 1.357 . S
C1342 C1339 1.463 . S
C1342 N1346 1.420 1_554 S
C1343 H1333 0.929 . S
C1343 C1341 1.433 . S
C1343 N1346 1.384 . S
C1344 H1335 0.929 . S
C1344 C1336 1.378 . S
C1344 C1339 1.350 1_556 S
C1345 H1332 0.929 . S
C1345 C1337 1.433 . S
C1345 N1347 1.384 . S
N1346 C1342 1.420 1_556 S
N1346 C1343 1.384 . S
N1347 C1339 1.427 . S
N1347 C1345 1.384 . S
H1348 C1354 0.930 . S
H1349 C1358 0.930 . S
H1350 C1363 0.929 . S
H1351 C1361 0.929 . S
H1352 C1356 0.929 . S
H1353 C1362 0.929 . S
C1354 H1348 0.930 . S
C1354 C1355 1.367 . S
C1354 C1362 1.378 . S
C1355 C1354 1.367 . S
C1355 C1363 1.433 . S
C1356 H1352 0.929 . S
C1356 C1358 1.378 . S
C1356 C1360 1.350 . S
C1357 C1360 1.463 . S
C1357 C1362 1.350 . S
C1357 N1365 1.427 . S
C1358 H1349 0.930 . S
C1358 C1356 1.378 . S
C1358 C1359 1.367 . S
C1359 C1358 1.367 . S
C1359 C1361 1.433 . S
C1360 C1356 1.350 . S
C1360 C1357 1.463 . S
C1360 N1364 1.427 . S
C1361 H1351 0.929 . S
C1361 C1359 1.433 . S
C1361 N1364 1.384 . S
C1362 H1353 0.929 . S
C1362 C1354 1.378 . S
C1362 C1357 1.350 . S
C1363 H1350 0.929 . S
C1363 C1355 1.433 . S
C1363 N1365 1.384 . S
N1364 C1360 1.427 . S
N1364 C1361 1.384 . S
N1365 C1357 1.427 . S
N1365 C1363 1.384 . S
H1366 C1372 0.930 . S
H1367 C1376 0.930 . S
H1368 C1381 0.929 . S
H1369 C1379 0.929 . S
H1370 C1374 0.929 . S
H1371 C1380 0.929 . S
C1372 H1366 0.930 . S
C1372 C1373 1.367 . S
C1372 C1380 1.378 . S
C1373 C1372 1.367 . S
C1373 C1381 1.433 . S
C1374 H1370 0.929 . S
C1374 C1376 1.378 . S
C1374 C1378 1.350 . S
C1375 C1378 1.463 1_565 S
C1375 C1380 1.350 . S
C1375 N1383 1.427 . S
C1376 H1367 0.930 . S
C1376 C1374 1.378 . S
C1376 C1377 1.367 . S
C1377 C1376 1.367 . S
C1377 C1379 1.433 . S
C1378 C1374 1.350 . S
C1378 C1375 1.463 1_545 S
C1378 N1382 1.427 . S
C1379 H1369 0.929 . S
C1379 C1377 1.433 . S
C1379 N1382 1.384 . S
C1380 H1371 0.929 . S
C1380 C1372 1.378 . S
C1380 C1375 1.350 . S
C1381 H1368 0.929 . S
C1381 C1373 1.433 . S
C1381 N1383 1.384 . S
N1382 C1378 1.427 . S
N1382 C1379 1.384 . S
N1383 C1375 1.427 . S
N1383 C1381 1.384 . S
H1384 C1390 0.930 . S
H1385 C1394 0.930 . S
H1386 C1399 0.929 . S
H1387 C1397 0.929 . S
H1388 C1392 0.929 . S
H1389 C1398 0.929 . S
C1390 H1384 0.930 . S
C1390 C1391 1.367 . S
C1390 C1398 1.378 . S
C1391 C1390 1.367 . S
C1391 C1399 1.433 1_556 S
C1392 H1388 0.929 . S
C1392 C1394 1.378 . S
C1392 C1396 1.350 . S
C1393 C1396 1.462 . S
C1393 C1398 1.351 1_554 S
C1393 N1401 1.427 . S
C1394 H1385 0.930 . S
C1394 C1392 1.378 . S
C1394 C1395 1.367 . S
C1395 C1394 1.367 . S
C1395 C1397 1.433 1_554 S
C1396 C1392 1.350 . S
C1396 C1393 1.462 . S
C1396 N1400 1.427 1_554 S
C1397 H1387 0.929 . S
C1397 C1395 1.433 1_556 S
C1397 N1400 1.384 . S
C1398 H1389 0.929 . S
C1398 C1390 1.378 . S
C1398 C1393 1.351 1_556 S
C1399 H1386 0.929 . S
C1399 C1391 1.433 1_554 S
C1399 N1401 1.384 . S
N1400 C1396 1.427 1_556 S
N1400 C1397 1.384 . S
N1401 C1393 1.427 . S
N1401 C1399 1.384 . S
H1402 C1408 0.930 . S
H1403 C1412 0.930 . S
H1404 C1417 0.929 . S
H1405 C1415 0.929 . S
H1406 C1410 0.929 . S
H1407 C1416 0.929 . S
C1408 H1402 0.930 . S
C1408 C1409 1.367 . S
C1408 C1416 1.378 . S
C1409 C1408 1.367 . S
C1409 C1417 1.433 . S
C1410 H1406 0.929 . S
C1410 C1412 1.378 . S
C1410 C1414 1.350 . S
C1411 C1414 1.463 . S
C1411 C1416 1.350 . S
C1411 N1419 1.427 . S
C1412 H1403 0.930 . S
C1412 C1410 1.378 . S
C1412 C1413 1.367 . S
C1413 C1412 1.367 . S
C1413 C1415 1.433 . S
C1414 C1410 1.350 . S
C1414 C1411 1.463 . S
C1414 N1418 1.427 . S
C1415 H1405 0.929 . S
C1415 C1413 1.433 . S
C1415 N1418 1.384 . S
C1416 H1407 0.929 . S
C1416 C1408 1.378 . S
C1416 C1411 1.350 . S
C1417 H1404 0.929 . S
C1417 C1409 1.433 . S
C1417 N1419 1.384 . S
N1418 C1414 1.427 . S
N1418 C1415 1.384 . S
N1419 C1411 1.427 . S
N1419 C1417 1.384 . S
H1420 C1426 0.930 . S
H1421 C1430 0.930 . S
H1422 C1435 0.929 . S
H1423 C1433 0.929 . S
H1424 C1428 0.929 . S
H1425 C1434 0.929 . S
C1426 H1420 0.930 . S
C1426 C1427 1.367 . S
C1426 C1434 1.378 . S
C1427 C1426 1.367 . S
C1427 C1435 1.433 . S
C1428 H1424 0.929 . S
C1428 C1430 1.378 . S
C1428 C1432 1.350 . S
C1429 C1432 1.463 1_545 S
C1429 C1434 1.350 . S
C1429 N1437 1.427 . S
C1430 H1421 0.930 . S
C1430 C1428 1.378 . S
C1430 C1431 1.367 . S
C1431 C1430 1.367 . S
C1431 C1433 1.433 . S
C1432 C1428 1.350 . S
C1432 C1429 1.463 1_565 S
C1432 N1436 1.427 . S
C1433 H1423 0.929 . S
C1433 C1431 1.433 . S
C1433 N1436 1.384 . S
C1434 H1425 0.929 . S
C1434 C1426 1.378 . S
C1434 C1429 1.350 . S
C1435 H1422 0.929 . S
C1435 C1427 1.433 . S
C1435 N1437 1.384 . S
N1436 C1432 1.427 . S
N1436 C1433 1.384 . S
N1437 C1429 1.427 . S
N1437 C1435 1.384 . S
H1438 C1444 0.930 . S
H1439 C1448 0.930 . S
H1440 C1453 0.929 . S
H1441 C1451 0.929 . S
H1442 C1446 0.929 . S
H1443 C1452 0.929 . S
C1444 H1438 0.930 . S
C1444 C1445 1.367 . S
C1444 C1452 1.378 . S
C1445 C1444 1.367 . S
C1445 C1453 1.433 . S
C1446 H1442 0.929 . S
C1446 C1448 1.378 . S
C1446 C1450 1.350 . S
C1447 C1450 1.463 . S
C1447 C1452 1.350 . S
C1447 N1455 1.427 . S
C1448 H1439 0.930 . S
C1448 C1446 1.378 . S
C1448 C1449 1.367 . S
C1449 C1448 1.367 . S
C1449 C1451 1.433 . S
C1450 C1446 1.350 . S
C1450 C1447 1.463 . S
C1450 N1454 1.427 . S
C1451 H1441 0.929 . S
C1451 C1449 1.433 . S
C1451 N1454 1.384 . S
C1452 H1443 0.929 . S
C1452 C1444 1.378 . S
C1452 C1447 1.350 . S
C1453 H1440 0.929 . S
C1453 C1445 1.433 . S
C1453 N1455 1.384 . S
N1454 C1450 1.427 . S
N1454 C1451 1.384 . S
N1455 C1447 1.427 . S
N1455 C1453 1.384 . S
H1456 C1462 0.930 . S
H1457 C1466 0.930 . S
H1458 C1471 0.929 . S
H1459 C1469 0.929 . S
H1460 C1464 0.929 . S
H1461 C1470 0.929 . S
C1462 H1456 0.930 . S
C1462 C1463 1.367 . S
C1462 C1470 1.378 . S
C1463 C1462 1.367 . S
C1463 C1471 1.433 . S
C1464 H1460 0.929 . S
C1464 C1466 1.378 . S
C1464 C1468 1.350 . S
C1465 C1468 1.463 . S
C1465 C1470 1.350 . S
C1465 N1473 1.427 . S
C1466 H1457 0.930 . S
C1466 C1464 1.378 . S
C1466 C1467 1.367 . S
C1467 C1466 1.367 . S
C1467 C1469 1.433 . S
C1468 C1464 1.350 . S
C1468 C1465 1.463 . S
C1468 N1472 1.427 . S
C1469 H1459 0.929 . S
C1469 C1467 1.433 . S
C1469 N1472 1.384 . S
C1470 H1461 0.929 . S
C1470 C1462 1.378 . S
C1470 C1465 1.350 . S
C1471 H1458 0.929 . S
C1471 C1463 1.433 . S
C1471 N1473 1.384 . S
N1472 C1468 1.427 . S
N1472 C1469 1.384 . S
N1473 C1465 1.427 . S
N1473 C1471 1.384 . S
H1474 C1480 0.930 . S
H1475 C1484 0.930 . S
H1476 C1489 0.929 . S
H1477 C1487 0.929 . S
H1478 C1482 0.929 . S
H1479 C1488 0.929 . S
C1480 H1474 0.930 . S
C1480 C1481 1.367 . S
C1480 C1488 1.378 . S
C1481 C1480 1.367 . S
C1481 C1489 1.433 . S
C1482 H1478 0.929 . S
C1482 C1484 1.378 . S
C1482 C1486 1.350 . S
C1483 C1486 1.463 . S
C1483 C1488 1.350 . S
C1483 N1491 1.427 . S
C1484 H1475 0.930 . S
C1484 C1482 1.378 . S
C1484 C1485 1.367 . S
C1485 C1484 1.367 . S
C1485 C1487 1.433 . S
C1486 C1482 1.350 . S
C1486 C1483 1.463 . S
C1486 N1490 1.427 . S
C1487 H1477 0.929 . S
C1487 C1485 1.433 . S
C1487 N1490 1.384 . S
C1488 H1479 0.929 . S
C1488 C1480 1.378 . S
C1488 C1483 1.350 . S
C1489 H1476 0.929 . S
C1489 C1481 1.433 . S
C1489 N1491 1.384 . S
N1490 C1486 1.427 . S
N1490 C1487 1.384 . S
N1491 C1483 1.427 . S
N1491 C1489 1.384 . S
H1492 C1498 0.930 . S
H1493 C1502 0.930 . S
H1494 C1507 0.929 . S
H1495 C1505 0.929 . S
H1496 C1500 0.929 . S
H1497 C1506 0.929 . S
C1498 H1492 0.930 . S
C1498 C1499 1.367 . S
C1498 C1506 1.378 . S
C1499 C1498 1.367 . S
C1499 C1507 1.433 . S
C1500 H1496 0.929 . S
C1500 C1502 1.378 . S
C1500 C1504 1.350 . S
C1501 C1504 1.463 . S
C1501 C1506 1.350 . S
C1501 N1509 1.427 . S
C1502 H1493 0.930 . S
C1502 C1500 1.378 . S
C1502 C1503 1.367 . S
C1503 C1502 1.367 . S
C1503 C1505 1.433 . S
C1504 C1500 1.350 . S
C1504 C1501 1.463 . S
C1504 N1508 1.427 . S
C1505 H1495 0.929 . S
C1505 C1503 1.433 . S
C1505 N1508 1.384 . S
C1506 H1497 0.929 . S
C1506 C1498 1.378 . S
C1506 C1501 1.350 . S
C1507 H1494 0.929 . S
C1507 C1499 1.433 . S
C1507 N1509 1.384 . S
N1508 C1504 1.427 . S
N1508 C1505 1.384 . S
N1509 C1501 1.427 . S
N1509 C1507 1.384 . S
H1510 C1516 0.930 . S
H1511 C1520 0.930 . S
H1512 C1525 0.929 . S
H1513 C1523 0.929 . S
H1514 C1518 0.929 . S
H1515 C1524 0.929 . S
C1516 H1510 0.930 . S
C1516 C1517 1.367 . S
C1516 C1524 1.378 . S
C1517 C1516 1.367 . S
C1517 C1525 1.433 . S
C1518 H1514 0.929 . S
C1518 C1520 1.378 . S
C1518 C1522 1.350 . S
C1519 C1522 1.463 . S
C1519 C1524 1.350 . S
C1519 N1527 1.427 . S
C1520 H1511 0.930 . S
C1520 C1518 1.378 . S
C1520 C1521 1.367 . S
C1521 C1520 1.367 . S
C1521 C1523 1.433 . S
C1522 C1518 1.350 . S
C1522 C1519 1.463 . S
C1522 N1526 1.427 . S
C1523 H1513 0.929 . S
C1523 C1521 1.433 . S
C1523 N1526 1.384 . S
C1524 H1515 0.929 . S
C1524 C1516 1.378 . S
C1524 C1519 1.350 . S
C1525 H1512 0.929 . S
C1525 C1517 1.433 . S
C1525 N1527 1.384 . S
N1526 C1522 1.427 . S
N1526 C1523 1.384 . S
N1527 C1519 1.427 . S
N1527 C1525 1.384 . S
H1528 C1534 0.930 . S
H1529 C1538 0.930 . S
H1530 C1543 0.929 . S
H1531 C1541 0.929 . S
H1532 C1536 0.929 1_565 S
H1533 C1542 0.929 1_545 S
C1534 H1528 0.930 . S
C1534 C1535 1.367 . S
C1534 C1542 1.378 . S
C1535 C1534 1.367 . S
C1535 C1543 1.433 . S
C1536 H1532 0.929 1_545 S
C1536 C1538 1.378 . S
C1536 C1540 1.350 . S
C1537 C1540 1.463 1_465 S
C1537 C1542 1.350 . S
C1537 N1545 1.427 . S
C1538 H1529 0.930 . S
C1538 C1536 1.378 . S
C1538 C1539 1.367 . S
C1539 C1538 1.367 . S
C1539 C1541 1.433 . S
C1540 C1536 1.350 . S
C1540 C1537 1.463 1_645 S
C1540 N1544 1.427 . S
C1541 H1531 0.929 . S
C1541 C1539 1.433 . S
C1541 N1544 1.384 . S
C1542 H1533 0.929 1_565 S
C1542 C1534 1.378 . S
C1542 C1537 1.350 . S
C1543 H1530 0.929 . S
C1543 C1535 1.433 . S
C1543 N1545 1.384 . S
N1544 C1540 1.427 . S
N1544 C1541 1.384 . S
N1545 C1537 1.427 . S
N1545 C1543 1.384 . S
H1546 C1552 0.930 . S
H1547 C1556 0.930 . S
H1548 C1561 0.929 . S
H1549 C1559 0.929 . S
H1550 C1554 0.929 . S
H1551 C1560 0.929 . S
C1552 H1546 0.930 . S
C1552 C1553 1.367 . S
C1552 C1560 1.378 . S
C1553 C1552 1.367 . S
C1553 C1561 1.433 . S
C1554 H1550 0.929 . S
C1554 C1556 1.378 . S
C1554 C1558 1.350 . S
C1555 C1558 1.463 1_455 S
C1555 C1560 1.350 . S
C1555 N1563 1.427 . S
C1556 H1547 0.930 . S
C1556 C1554 1.378 . S
C1556 C1557 1.367 . S
C1557 C1556 1.367 . S
C1557 C1559 1.433 . S
C1558 C1554 1.350 . S
C1558 C1555 1.463 1_655 S
C1558 N1562 1.427 . S
C1559 H1549 0.929 . S
C1559 C1557 1.433 . S
C1559 N1562 1.384 . S
C1560 H1551 0.929 . S
C1560 C1552 1.378 . S
C1560 C1555 1.350 . S
C1561 H1548 0.929 . S
C1561 C1553 1.433 . S
C1561 N1563 1.384 . S
N1562 C1558 1.427 . S
N1562 C1559 1.384 . S
N1563 C1555 1.427 . S
N1563 C1561 1.384 . S
H1564 C1570 0.930 . S
H1565 C1574 0.930 . S
H1566 C1579 0.929 . S
H1567 C1577 0.929 . S
H1568 C1572 0.929 . S
H1569 C1578 0.929 . S
C1570 H1564 0.930 . S
C1570 C1571 1.367 . S
C1570 C1578 1.378 . S
C1571 C1570 1.367 . S
C1571 C1579 1.433 . S
C1572 H1568 0.929 . S
C1572 C1574 1.378 . S
C1572 C1576 1.350 . S
C1573 C1576 1.463 1_655 S
C1573 C1578 1.350 . S
C1573 N1581 1.427 . S
C1574 H1565 0.930 . S
C1574 C1572 1.378 . S
C1574 C1575 1.367 . S
C1575 C1574 1.367 . S
C1575 C1577 1.433 . S
C1576 C1572 1.350 . S
C1576 C1573 1.463 1_455 S
C1576 N1580 1.427 . S
C1577 H1567 0.929 . S
C1577 C1575 1.433 . S
C1577 N1580 1.384 . S
C1578 H1569 0.929 . S
C1578 C1570 1.378 . S
C1578 C1573 1.350 . S
C1579 H1566 0.929 . S
C1579 C1571 1.433 . S
C1579 N1581 1.384 . S
N1580 C1576 1.427 . S
N1580 C1577 1.384 . S
N1581 C1573 1.427 . S
N1581 C1579 1.384 . S
H1582 C1588 0.930 . S
H1583 C1592 0.930 . S
H1584 C1597 0.929 . S
H1585 C1595 0.929 . S
H1586 C1590 0.929 . S
H1587 C1596 0.929 . S
C1588 H1582 0.930 . S
C1588 C1589 1.367 . S
C1588 C1596 1.378 . S
C1589 C1588 1.367 . S
C1589 C1597 1.433 1_554 S
C1590 H1586 0.929 . S
C1590 C1592 1.378 . S
C1590 C1594 1.352 . S
C1591 C1594 1.462 1_654 S
C1591 C1596 1.350 . S
C1591 N1599 1.427 1_554 S
C1592 H1583 0.930 . S
C1592 C1590 1.378 . S
C1592 C1593 1.367 . S
C1593 C1592 1.367 . S
C1593 C1595 1.433 1_556 S
C1594 C1590 1.352 . S
C1594 C1591 1.462 1_456 S
C1594 N1598 1.425 1_556 S
C1595 H1585 0.929 . S
C1595 C1593 1.433 1_554 S
C1595 N1598 1.384 . S
C1596 H1587 0.929 . S
C1596 C1588 1.378 . S
C1596 C1591 1.350 . S
C1597 H1584 0.929 . S
C1597 C1589 1.433 1_556 S
C1597 N1599 1.384 . S
N1598 C1594 1.425 1_554 S
N1598 C1595 1.384 . S
N1599 C1591 1.427 1_556 S
N1599 C1597 1.384 . S
H1600 C1606 0.930 . S
H1601 C1610 0.930 . S
H1602 C1615 0.929 . S
H1603 C1613 0.929 . S
H1604 C1608 0.929 . S
H1605 C1614 0.929 . S
C1606 H1600 0.930 . S
C1606 C1607 1.367 . S
C1606 C1614 1.378 . S
C1607 C1606 1.367 . S
C1607 C1615 1.433 . S
C1608 H1604 0.929 . S
C1608 C1610 1.378 . S
C1608 C1612 1.350 . S
C1609 C1612 1.463 . S
C1609 C1614 1.350 . S
C1609 N1617 1.427 . S
C1610 H1601 0.930 . S
C1610 C1608 1.378 . S
C1610 C1611 1.367 . S
C1611 C1610 1.367 . S
C1611 C1613 1.433 . S
C1612 C1608 1.350 . S
C1612 C1609 1.463 . S
C1612 N1616 1.427 . S
C1613 H1603 0.929 . S
C1613 C1611 1.433 . S
C1613 N1616 1.384 . S
C1614 H1605 0.929 . S
C1614 C1606 1.378 . S
C1614 C1609 1.350 . S
C1615 H1602 0.929 . S
C1615 C1607 1.433 . S
C1615 N1617 1.384 . S
N1616 C1612 1.427 . S
N1616 C1613 1.384 . S
N1617 C1609 1.427 . S
N1617 C1615 1.384 . S
H1618 C1624 0.930 . S
H1619 C1628 0.930 . S
H1620 C1633 0.929 . S
H1621 C1631 0.929 . S
H1622 C1626 0.929 . S
H1623 C1632 0.929 . S
C1624 H1618 0.930 . S
C1624 C1625 1.367 . S
C1624 C1632 1.378 . S
C1625 C1624 1.367 . S
C1625 C1633 1.433 . S
C1626 H1622 0.929 . S
C1626 C1628 1.378 . S
C1626 C1630 1.350 . S
C1627 C1630 1.463 . S
C1627 C1632 1.350 . S
C1627 N1635 1.427 . S
C1628 H1619 0.930 . S
C1628 C1626 1.378 . S
C1628 C1629 1.367 . S
C1629 C1628 1.367 . S
C1629 C1631 1.433 . S
C1630 C1626 1.350 . S
C1630 C1627 1.463 . S
C1630 N1634 1.427 . S
C1631 H1621 0.929 . S
C1631 C1629 1.433 . S
C1631 N1634 1.384 . S
C1632 H1623 0.929 . S
C1632 C1624 1.378 . S
C1632 C1627 1.350 . S
C1633 H1620 0.929 . S
C1633 C1625 1.433 . S
C1633 N1635 1.384 . S
N1634 C1630 1.427 . S
N1634 C1631 1.384 . S
N1635 C1627 1.427 . S
N1635 C1633 1.384 . S
H1636 C1642 0.930 . S
H1637 C1646 0.930 . S
H1638 C1651 0.929 . S
H1639 C1649 0.929 . S
H1640 C1644 0.929 . S
H1641 C1650 0.929 . S
C1642 H1636 0.930 . S
C1642 C1643 1.367 . S
C1642 C1650 1.378 . S
C1643 C1642 1.367 . S
C1643 C1651 1.433 . S
C1644 H1640 0.929 . S
C1644 C1646 1.378 . S
C1644 C1648 1.350 . S
C1645 C1648 1.463 . S
C1645 C1650 1.350 . S
C1645 N1653 1.427 . S
C1646 H1637 0.930 . S
C1646 C1644 1.378 . S
C1646 C1647 1.367 . S
C1647 C1646 1.367 . S
C1647 C1649 1.433 . S
C1648 C1644 1.350 . S
C1648 C1645 1.463 . S
C1648 N1652 1.427 . S
C1649 H1639 0.929 . S
C1649 C1647 1.433 . S
C1649 N1652 1.384 . S
C1650 H1641 0.929 . S
C1650 C1642 1.378 . S
C1650 C1645 1.350 . S
C1651 H1638 0.929 . S
C1651 C1643 1.433 . S
C1651 N1653 1.384 . S
N1652 C1648 1.427 . S
N1652 C1649 1.384 . S
N1653 C1645 1.427 . S
N1653 C1651 1.384 . S
H1654 C1660 0.930 . S
H1655 C1664 0.930 . S
H1656 C1669 0.929 . S
H1657 C1667 0.929 . S
H1658 C1662 0.929 . S
H1659 C1668 0.929 . S
C1660 H1654 0.930 . S
C1660 C1661 1.367 . S
C1660 C1668 1.378 . S
C1661 C1660 1.367 . S
C1661 C1669 1.433 . S
C1662 H1658 0.929 . S
C1662 C1664 1.378 . S
C1662 C1666 1.350 . S
C1663 C1666 1.463 . S
C1663 C1668 1.350 . S
C1663 N1671 1.427 . S
C1664 H1655 0.930 . S
C1664 C1662 1.378 . S
C1664 C1665 1.367 . S
C1665 C1664 1.367 . S
C1665 C1667 1.433 . S
C1666 C1662 1.350 . S
C1666 C1663 1.463 . S
C1666 N1670 1.427 . S
C1667 H1657 0.929 . S
C1667 C1665 1.433 . S
C1667 N1670 1.384 . S
C1668 H1659 0.929 . S
C1668 C1660 1.378 . S
C1668 C1663 1.350 . S
C1669 H1656 0.929 . S
C1669 C1661 1.433 . S
C1669 N1671 1.384 . S
N1670 C1666 1.427 . S
N1670 C1667 1.384 . S
N1671 C1663 1.427 . S
N1671 C1669 1.384 . S
H1672 C1678 0.930 . S
H1673 C1682 0.930 . S
H1674 C1687 0.929 . S
H1675 C1685 0.929 . S
H1676 C1680 0.929 . S
H1677 C1686 0.929 . S
C1678 H1672 0.930 . S
C1678 C1679 1.367 . S
C1678 C1686 1.378 . S
C1679 C1678 1.367 . S
C1679 C1687 1.433 . S
C1680 H1676 0.929 . S
C1680 C1682 1.378 . S
C1680 C1684 1.350 . S
C1681 C1684 1.463 . S
C1681 C1686 1.350 . S
C1681 N1689 1.427 . S
C1682 H1673 0.930 . S
C1682 C1680 1.378 . S
C1682 C1683 1.367 . S
C1683 C1682 1.367 . S
C1683 C1685 1.433 . S
C1684 C1680 1.350 . S
C1684 C1681 1.463 . S
C1684 N1688 1.427 . S
C1685 H1675 0.929 . S
C1685 C1683 1.433 . S
C1685 N1688 1.384 . S
C1686 H1677 0.929 . S
C1686 C1678 1.378 . S
C1686 C1681 1.350 . S
C1687 H1674 0.929 . S
C1687 C1679 1.433 . S
C1687 N1689 1.384 . S
N1688 C1684 1.427 . S
N1688 C1685 1.384 . S
N1689 C1681 1.427 . S
N1689 C1687 1.384 . S
H1690 C1696 0.930 . S
H1691 C1700 0.930 . S
H1692 C1705 0.929 . S
H1693 C1703 0.929 . S
H1694 C1698 0.929 . S
H1695 C1704 0.929 . S
C1696 H1690 0.930 . S
C1696 C1697 1.367 . S
C1696 C1704 1.378 . S
C1697 C1696 1.367 . S
C1697 C1705 1.433 . S
C1698 H1694 0.929 . S
C1698 C1700 1.378 . S
C1698 C1702 1.350 . S
C1699 C1702 1.463 . S
C1699 C1704 1.350 . S
C1699 N1707 1.427 . S
C1700 H1691 0.930 . S
C1700 C1698 1.378 . S
C1700 C1701 1.367 . S
C1701 C1700 1.367 . S
C1701 C1703 1.433 . S
C1702 C1698 1.350 . S
C1702 C1699 1.463 . S
C1702 N1706 1.427 . S
C1703 H1693 0.929 . S
C1703 C1701 1.433 . S
C1703 N1706 1.384 . S
C1704 H1695 0.929 . S
C1704 C1696 1.378 . S
C1704 C1699 1.350 . S
C1705 H1692 0.929 . S
C1705 C1697 1.433 . S
C1705 N1707 1.384 . S
N1706 C1702 1.427 . S
N1706 C1703 1.384 . S
N1707 C1699 1.427 . S
N1707 C1705 1.384 . S
H1708 C1714 0.930 . S
H1709 C1718 0.930 . S
H1710 C1723 0.929 . S
H1711 C1721 0.929 . S
H1712 C1716 0.929 . S
H1713 C1722 0.929 . S
C1714 H1708 0.930 . S
C1714 C1715 1.367 . S
C1714 C1722 1.378 . S
C1715 C1714 1.367 . S
C1715 C1723 1.433 . S
C1716 H1712 0.929 . S
C1716 C1718 1.378 . S
C1716 C1720 1.350 . S
C1717 C1720 1.463 . S
C1717 C1722 1.350 . S
C1717 N1725 1.427 . S
C1718 H1709 0.930 . S
C1718 C1716 1.378 . S
C1718 C1719 1.367 . S
C1719 C1718 1.367 . S
C1719 C1721 1.433 . S
C1720 C1716 1.350 . S
C1720 C1717 1.463 . S
C1720 N1724 1.427 . S
C1721 H1711 0.929 . S
C1721 C1719 1.433 . S
C1721 N1724 1.384 . S
C1722 H1713 0.929 . S
C1722 C1714 1.378 . S
C1722 C1717 1.350 . S
C1723 H1710 0.929 . S
C1723 C1715 1.433 . S
C1723 N1725 1.384 . S
N1724 C1720 1.427 . S
N1724 C1721 1.384 . S
N1725 C1717 1.427 . S
N1725 C1723 1.384 . S
H1726 C1732 0.930 . S
H1727 C1736 0.930 . S
H1728 C1741 0.929 . S
H1729 C1739 0.929 . S
H1730 C1734 0.929 . S
H1731 C1740 0.929 . S
C1732 H1726 0.930 . S
C1732 C1733 1.367 . S
C1732 C1740 1.378 . S
C1733 C1732 1.367 . S
C1733 C1741 1.433 . S
C1734 H1730 0.929 . S
C1734 C1736 1.378 . S
C1734 C1738 1.350 . S
C1735 C1738 1.463 . S
C1735 C1740 1.350 . S
C1735 N1743 1.427 . S
C1736 H1727 0.930 . S
C1736 C1734 1.378 . S
C1736 C1737 1.367 . S
C1737 C1736 1.367 . S
C1737 C1739 1.433 . S
C1738 C1734 1.350 . S
C1738 C1735 1.463 . S
C1738 N1742 1.427 . S
C1739 H1729 0.929 . S
C1739 C1737 1.433 . S
C1739 N1742 1.384 . S
C1740 H1731 0.929 . S
C1740 C1732 1.378 . S
C1740 C1735 1.350 . S
C1741 H1728 0.929 . S
C1741 C1733 1.433 . S
C1741 N1743 1.384 . S
N1742 C1738 1.427 . S
N1742 C1739 1.384 . S
N1743 C1735 1.427 . S
N1743 C1741 1.384 . S
H1744 C1750 0.930 . S
H1745 C1754 0.930 . S
H1746 C1759 0.929 . S
H1747 C1757 0.929 . S
H1748 C1752 0.929 . S
H1749 C1758 0.929 . S
C1750 H1744 0.930 . S
C1750 C1751 1.367 . S
C1750 C1758 1.378 . S
C1751 C1750 1.367 . S
C1751 C1759 1.433 . S
C1752 H1748 0.929 . S
C1752 C1754 1.378 . S
C1752 C1756 1.350 . S
C1753 C1756 1.463 . S
C1753 C1758 1.350 . S
C1753 N1761 1.427 . S
C1754 H1745 0.930 . S
C1754 C1752 1.378 . S
C1754 C1755 1.367 . S
C1755 C1754 1.367 . S
C1755 C1757 1.433 . S
C1756 C1752 1.350 . S
C1756 C1753 1.463 . S
C1756 N1760 1.427 . S
C1757 H1747 0.929 . S
C1757 C1755 1.433 . S
C1757 N1760 1.384 . S
C1758 H1749 0.929 . S
C1758 C1750 1.378 . S
C1758 C1753 1.350 . S
C1759 H1746 0.929 . S
C1759 C1751 1.433 . S
C1759 N1761 1.384 . S
N1760 C1756 1.427 . S
N1760 C1757 1.384 . S
N1761 C1753 1.427 . S
N1761 C1759 1.384 . S
H1762 C1768 0.930 . S
H1763 C1772 0.930 . S
H1764 C1777 0.929 . S
H1765 C1775 0.929 . S
H1766 C1770 0.929 . S
H1767 C1776 0.929 . S
C1768 H1762 0.930 . S
C1768 C1769 1.367 . S
C1768 C1776 1.378 . S
C1769 C1768 1.367 . S
C1769 C1777 1.433 . S
C1770 H1766 0.929 . S
C1770 C1772 1.378 . S
C1770 C1774 1.350 . S
C1771 C1774 1.463 . S
C1771 C1776 1.350 . S
C1771 N1779 1.427 . S
C1772 H1763 0.930 . S
C1772 C1770 1.378 . S
C1772 C1773 1.367 . S
C1773 C1772 1.367 . S
C1773 C1775 1.433 . S
C1774 C1770 1.350 . S
C1774 C1771 1.463 . S
C1774 N1778 1.427 . S
C1775 H1765 0.929 . S
C1775 C1773 1.433 . S
C1775 N1778 1.384 . S
C1776 H1767 0.929 . S
C1776 C1768 1.378 . S
C1776 C1771 1.350 . S
C1777 H1764 0.929 . S
C1777 C1769 1.433 . S
C1777 N1779 1.384 . S
N1778 C1774 1.427 . S
N1778 C1775 1.384 . S
N1779 C1771 1.427 . S
N1779 C1777 1.384 . S
H1780 C1786 0.930 . S
H1781 C1790 0.930 . S
H1782 C1795 0.929 . S
H1783 C1793 0.929 . S
H1784 C1788 0.929 . S
H1785 C1794 0.929 . S
C1786 H1780 0.930 . S
C1786 C1787 1.367 . S
C1786 C1794 1.378 . S
C1787 C1786 1.367 . S
C1787 C1795 1.433 . S
C1788 H1784 0.929 . S
C1788 C1790 1.378 . S
C1788 C1792 1.350 . S
C1789 C1792 1.463 . S
C1789 C1794 1.350 . S
C1789 N1797 1.427 . S
C1790 H1781 0.930 . S
C1790 C1788 1.378 . S
C1790 C1791 1.367 . S
C1791 C1790 1.367 . S
C1791 C1793 1.433 . S
C1792 C1788 1.350 . S
C1792 C1789 1.463 . S
C1792 N1796 1.427 . S
C1793 H1783 0.929 . S
C1793 C1791 1.433 . S
C1793 N1796 1.384 . S
C1794 H1785 0.929 . S
C1794 C1786 1.378 . S
C1794 C1789 1.350 . S
C1795 H1782 0.929 . S
C1795 C1787 1.433 . S
C1795 N1797 1.384 . S
N1796 C1792 1.427 . S
N1796 C1793 1.384 . S
N1797 C1789 1.427 . S
N1797 C1795 1.384 . S
H1798 C1804 0.930 . S
H1799 C1808 0.930 . S
H1800 C1813 0.929 . S
H1801 C1811 0.929 . S
H1802 C1806 0.929 . S
H1803 C1812 0.929 . S
C1804 H1798 0.930 . S
C1804 C1805 1.367 . S
C1804 C1812 1.378 . S
C1805 C1804 1.367 . S
C1805 C1813 1.433 . S
C1806 H1802 0.929 . S
C1806 C1808 1.378 . S
C1806 C1810 1.350 . S
C1807 C1810 1.463 . S
C1807 C1812 1.350 . S
C1807 N1815 1.427 . S
C1808 H1799 0.930 . S
C1808 C1806 1.378 . S
C1808 C1809 1.367 . S
C1809 C1808 1.367 . S
C1809 C1811 1.433 . S
C1810 C1806 1.350 . S
C1810 C1807 1.463 . S
C1810 N1814 1.427 . S
C1811 H1801 0.929 . S
C1811 C1809 1.433 . S
C1811 N1814 1.384 . S
C1812 H1803 0.929 . S
C1812 C1804 1.378 . S
C1812 C1807 1.350 . S
C1813 H1800 0.929 . S
C1813 C1805 1.433 . S
C1813 N1815 1.384 . S
N1814 C1810 1.427 . S
N1814 C1811 1.384 . S
N1815 C1807 1.427 . S
N1815 C1813 1.384 . S
H1816 C1822 0.930 . S
H1817 C1826 0.930 . S
H1818 C1831 0.929 . S
H1819 C1829 0.929 . S
H1820 C1824 0.929 . S
H1821 C1830 0.929 . S
C1822 H1816 0.930 . S
C1822 C1823 1.367 . S
C1822 C1830 1.378 . S
C1823 C1822 1.367 . S
C1823 C1831 1.433 . S
C1824 H1820 0.929 . S
C1824 C1826 1.378 . S
C1824 C1828 1.350 . S
C1825 C1828 1.463 . S
C1825 C1830 1.350 . S
C1825 N1833 1.427 . S
C1826 H1817 0.930 . S
C1826 C1824 1.378 . S
C1826 C1827 1.367 . S
C1827 C1826 1.367 . S
C1827 C1829 1.433 . S
C1828 C1824 1.350 . S
C1828 C1825 1.463 . S
C1828 N1832 1.427 . S
C1829 H1819 0.929 . S
C1829 C1827 1.433 . S
C1829 N1832 1.384 . S
C1830 H1821 0.929 . S
C1830 C1822 1.378 . S
C1830 C1825 1.350 . S
C1831 H1818 0.929 . S
C1831 C1823 1.433 . S
C1831 N1833 1.384 . S
N1832 C1828 1.427 . S
N1832 C1829 1.384 . S
N1833 C1825 1.427 . S
N1833 C1831 1.384 . S
H1834 C1840 0.930 . S
H1835 C1844 0.930 . S
H1836 C1849 0.929 . S
H1837 C1847 0.929 . S
H1838 C1842 0.929 . S
H1839 C1848 0.929 . S
C1840 H1834 0.930 . S
C1840 C1841 1.367 . S
C1840 C1848 1.378 . S
C1841 C1840 1.367 . S
C1841 C1849 1.433 . S
C1842 H1838 0.929 . S
C1842 C1844 1.378 . S
C1842 C1846 1.350 . S
C1843 C1846 1.463 . S
C1843 C1848 1.350 . S
C1843 N1851 1.427 . S
C1844 H1835 0.930 . S
C1844 C1842 1.378 . S
C1844 C1845 1.367 . S
C1845 C1844 1.367 . S
C1845 C1847 1.433 . S
C1846 C1842 1.350 . S
C1846 C1843 1.463 . S
C1846 N1850 1.427 . S
C1847 H1837 0.929 . S
C1847 C1845 1.433 . S
C1847 N1850 1.384 . S
C1848 H1839 0.929 . S
C1848 C1840 1.378 . S
C1848 C1843 1.350 . S
C1849 H1836 0.929 . S
C1849 C1841 1.433 . S
C1849 N1851 1.384 . S
N1850 C1846 1.427 . S
N1850 C1847 1.384 . S
N1851 C1843 1.427 . S
N1851 C1849 1.384 . S
H1852 C1858 0.930 . S
H1853 C1862 0.930 . S
H1854 C1867 0.929 . S
H1855 C1865 0.929 . S
H1856 C1860 0.929 . S
H1857 C1866 0.929 . S
C1858 H1852 0.930 . S
C1858 C1859 1.367 . S
C1858 C1866 1.378 . S
C1859 C1858 1.367 . S
C1859 C1867 1.433 . S
C1860 H1856 0.929 . S
C1860 C1862 1.378 . S
C1860 C1864 1.350 . S
C1861 C1864 1.463 . S
C1861 C1866 1.350 . S
C1861 N1869 1.427 . S
C1862 H1853 0.930 . S
C1862 C1860 1.378 . S
C1862 C1863 1.367 . S
C1863 C1862 1.367 . S
C1863 C1865 1.433 . S
C1864 C1860 1.350 . S
C1864 C1861 1.463 . S
C1864 N1868 1.427 . S
C1865 H1855 0.929 . S
C1865 C1863 1.433 . S
C1865 N1868 1.384 . S
C1866 H1857 0.929 . S
C1866 C1858 1.378 . S
C1866 C1861 1.350 . S
C1867 H1854 0.929 . S
C1867 C1859 1.433 . S
C1867 N1869 1.384 . S
N1868 C1864 1.427 . S
N1868 C1865 1.384 . S
N1869 C1861 1.427 . S
N1869 C1867 1.384 . S
H1870 C1876 0.930 . S
H1871 C1880 0.930 . S
H1872 C1885 0.929 . S
H1873 C1883 0.929 . S
H1874 C1878 0.929 . S
H1875 C1884 0.929 . S
C1876 H1870 0.930 . S
C1876 C1877 1.367 . S
C1876 C1884 1.378 . S
C1877 C1876 1.367 . S
C1877 C1885 1.433 . S
C1878 H1874 0.929 . S
C1878 C1880 1.378 . S
C1878 C1882 1.350 . S
C1879 C1882 1.463 . S
C1879 C1884 1.350 . S
C1879 N1887 1.427 . S
C1880 H1871 0.930 . S
C1880 C1878 1.378 . S
C1880 C1881 1.367 . S
C1881 C1880 1.367 . S
C1881 C1883 1.433 . S
C1882 C1878 1.350 . S
C1882 C1879 1.463 . S
C1882 N1886 1.427 . S
C1883 H1873 0.929 . S
C1883 C1881 1.433 . S
C1883 N1886 1.384 . S
C1884 H1875 0.929 . S
C1884 C1876 1.378 . S
C1884 C1879 1.350 . S
C1885 H1872 0.929 . S
C1885 C1877 1.433 . S
C1885 N1887 1.384 . S
N1886 C1882 1.427 . S
N1886 C1883 1.384 . S
N1887 C1879 1.427 . S
N1887 C1885 1.384 . S
H1888 C1894 0.930 . S
H1889 C1898 0.930 . S
H1890 C1903 0.929 . S
H1891 C1901 0.929 . S
H1892 C1896 0.929 . S
H1893 C1902 0.929 . S
C1894 H1888 0.930 . S
C1894 C1895 1.342 1_556 S
C1894 C1902 1.378 . S
C1895 C1894 1.342 1_554 S
C1895 C1903 1.458 . S
C1896 H1892 0.929 . S
C1896 C1898 1.378 . S
C1896 C1900 1.339 1_554 S
C1897 C1900 1.462 . S
C1897 C1902 1.387 1_545 S
C1897 N1905 1.389 1_556 S
C1898 H1889 0.930 . S
C1898 C1896 1.378 . S
C1898 C1899 1.367 1_554 S
C1899 C1898 1.367 1_556 S
C1899 C1901 1.433 . S
C1900 C1896 1.339 1_556 S
C1900 C1897 1.462 . S
C1900 N1904 1.439 . S
C1901 H1891 0.929 . S
C1901 C1899 1.433 . S
C1901 N1904 1.384 . S
C1902 H1893 0.929 . S
C1902 C1894 1.378 . S
C1902 C1897 1.387 1_565 S
C1903 H1890 0.929 . S
C1903 C1895 1.458 . S
C1903 N1905 1.384 1_565 S
N1904 C1900 1.439 . S
N1904 C1901 1.384 . S
N1905 C1897 1.389 1_554 S
N1905 C1903 1.384 1_545 S
H1906 C1912 0.930 . S
H1907 C1916 0.930 . S
H1908 C1921 0.929 . S
H1909 C1919 0.929 . S
H1910 C1914 0.929 . S
H1911 C1920 0.929 . S
C1912 H1906 0.930 . S
C1912 C1913 1.367 . S
C1912 C1920 1.378 . S
C1913 C1912 1.367 . S
C1913 C1921 1.433 1_554 S
C1914 H1910 0.929 . S
C1914 C1916 1.378 . S
C1914 C1918 1.350 . S
C1915 C1918 1.462 . S
C1915 C1920 1.351 1_556 S
C1915 N1923 1.427 . S
C1916 H1907 0.930 . S
C1916 C1914 1.378 . S
C1916 C1917 1.367 1_455 S
C1917 C1916 1.367 1_655 S
C1917 C1919 1.433 1_556 S
C1918 C1914 1.350 . S
C1918 C1915 1.462 . S
C1918 N1922 1.427 1_556 S
C1919 H1909 0.929 . S
C1919 C1917 1.433 1_554 S
C1919 N1922 1.384 1_655 S
C1920 H1911 0.929 . S
C1920 C1912 1.378 . S
C1920 C1915 1.351 1_554 S
C1921 H1908 0.929 . S
C1921 C1913 1.433 1_556 S
C1921 N1923 1.384 . S
N1922 C1918 1.427 1_554 S
N1922 C1919 1.384 1_455 S
N1923 C1915 1.427 . S
N1923 C1921 1.384 . S
H1924 C1930 0.930 . S
H1925 C1934 0.930 . S
H1926 C1939 0.929 . S
H1927 C1937 0.929 . S
H1928 C1932 0.929 . S
H1929 C1938 0.929 . S
C1930 H1924 0.930 . S
C1930 C1931 1.367 . S
C1930 C1938 1.378 . S
C1931 C1930 1.367 . S
C1931 C1939 1.433 . S
C1932 H1928 0.929 . S
C1932 C1934 1.378 . S
C1932 C1936 1.350 . S
C1933 C1936 1.463 . S
C1933 C1938 1.350 . S
C1933 N1941 1.427 . S
C1934 H1925 0.930 . S
C1934 C1932 1.378 . S
C1934 C1935 1.367 . S
C1935 C1934 1.367 . S
C1935 C1937 1.433 . S
C1936 C1932 1.350 . S
C1936 C1933 1.463 . S
C1936 N1940 1.427 . S
C1937 H1927 0.929 . S
C1937 C1935 1.433 . S
C1937 N1940 1.384 . S
C1938 H1929 0.929 . S
C1938 C1930 1.378 . S
C1938 C1933 1.350 . S
C1939 H1926 0.929 . S
C1939 C1931 1.433 . S
C1939 N1941 1.384 . S
N1940 C1936 1.427 . S
N1940 C1937 1.384 . S
N1941 C1933 1.427 . S
N1941 C1939 1.384 . S
H1942 C1948 0.930 . S
H1943 C1952 0.931 . S
H1944 C1957 0.929 . S
H1945 C1955 0.929 . S
H1946 C1950 0.929 . S
H1947 C1956 0.929 . S
C1948 H1942 0.930 . S
C1948 C1949 1.367 . S
C1948 C1956 1.378 1_655 S
C1949 C1948 1.367 . S
C1949 C1957 1.433 1_655 S
C1950 H1946 0.929 . S
C1950 C1952 1.378 1_545 S
C1950 C1954 1.350 . S
C1951 C1954 1.463 . S
C1951 C1956 1.350 . S
C1951 N1959 1.427 . S
C1952 H1943 0.931 . S
C1952 C1950 1.378 1_565 S
C1952 C1953 1.367 . S
C1953 C1952 1.367 . S
C1953 C1955 1.433 . S
C1954 C1950 1.350 . S
C1954 C1951 1.463 . S
C1954 N1958 1.427 1_545 S
C1955 H1945 0.929 . S
C1955 C1953 1.433 . S
C1955 N1958 1.384 . S
C1956 H1947 0.929 . S
C1956 C1948 1.378 1_455 S
C1956 C1951 1.350 . S
C1957 H1944 0.929 . S
C1957 C1949 1.433 1_455 S
C1957 N1959 1.384 . S
N1958 C1954 1.427 1_565 S
N1958 C1955 1.384 . S
N1959 C1951 1.427 . S
N1959 C1957 1.384 . S
H1960 C1966 0.930 . S
H1961 C1970 0.930 . S
H1962 C1975 0.929 . S
H1963 C1973 0.929 . S
H1964 C1968 0.929 1_565 S
H1965 C1974 0.929 . S
C1966 H1960 0.930 . S
C1966 C1967 1.367 . S
C1966 C1974 1.378 . S
C1967 C1966 1.367 . S
C1967 C1975 1.433 1_556 S
C1968 H1964 0.929 1_545 S
C1968 C1970 1.378 . S
C1968 C1972 1.350 1_544 S
C1969 C1972 1.463 . S
C1969 C1974 1.350 . S
C1969 N1977 1.427 1_556 S
C1970 H1961 0.930 . S
C1970 C1968 1.378 . S
C1970 C1971 1.367 1_554 S
C1971 C1970 1.367 1_556 S
C1971 C1973 1.433 . S
C1972 C1968 1.350 1_566 S
C1972 C1969 1.463 . S
C1972 N1976 1.427 . S
C1973 H1963 0.929 . S
C1973 C1971 1.433 . S
C1973 N1976 1.384 1_545 S
C1974 H1965 0.929 . S
C1974 C1966 1.378 . S
C1974 C1969 1.350 . S
C1975 H1962 0.929 . S
C1975 C1967 1.433 1_554 S
C1975 N1977 1.384 . S
N1976 C1972 1.427 . S
N1976 C1973 1.384 1_565 S
N1977 C1969 1.427 1_554 S
N1977 C1975 1.384 . S
H1978 C1984 0.930 . S
H1979 C1988 0.930 . S
H1980 C1993 0.929 . S
H1981 C1991 0.929 . S
H1982 C1986 0.929 . S
H1983 C1992 0.929 . S
C1984 H1978 0.930 . S
C1984 C1985 1.356 1_654 S
C1984 C1992 1.378 . S
C1985 C1984 1.356 1_456 S
C1985 C1993 1.445 . S
C1986 H1982 0.929 . S
C1986 C1988 1.378 . S
C1986 C1990 1.350 . S
C1987 C1990 1.463 . S
C1987 C1992 1.350 1_556 S
C1987 N1995 1.427 . S
C1988 H1979 0.930 . S
C1988 C1986 1.378 . S
C1988 C1989 1.367 . S
C1989 C1988 1.367 . S
C1989 C1991 1.433 1_556 S
C1990 C1986 1.350 . S
C1990 C1987 1.463 . S
C1990 N1994 1.427 1_556 S
C1991 H1981 0.929 . S
C1991 C1989 1.433 1_554 S
C1991 N1994 1.384 . S
C1992 H1983 0.929 . S
C1992 C1984 1.378 . S
C1992 C1987 1.350 1_554 S
C1993 H1980 0.929 . S
C1993 C1985 1.445 . S
C1993 N1995 1.384 1_455 S
N1994 C1990 1.427 1_554 S
N1994 C1991 1.384 . S
N1995 C1987 1.427 . S
N1995 C1993 1.384 1_655 S
H1996 C2002 0.930 . S
H1997 C2006 0.930 . S
H1998 C2011 0.929 . S
H1999 C2009 0.929 . S
H2000 C2004 0.929 . S
H2001 C2010 0.929 . S
C2002 H1996 0.930 . S
C2002 C2003 1.367 . S
C2002 C2010 1.378 . S
C2003 C2002 1.367 . S
C2003 C2011 1.433 . S
C2004 H2000 0.929 . S
C2004 C2006 1.378 . S
C2004 C2008 1.350 . S
C2005 C2008 1.463 . S
C2005 C2010 1.350 . S
C2005 N2013 1.427 . S
C2006 H1997 0.930 . S
C2006 C2004 1.378 . S
C2006 C2007 1.367 . S
C2007 C2006 1.367 . S
C2007 C2009 1.433 . S
C2008 C2004 1.350 . S
C2008 C2005 1.463 . S
C2008 N2012 1.427 . S
C2009 H1999 0.929 . S
C2009 C2007 1.433 . S
C2009 N2012 1.384 . S
C2010 H2001 0.929 . S
C2010 C2002 1.378 . S
C2010 C2005 1.350 . S
C2011 H1998 0.929 . S
C2011 C2003 1.433 . S
C2011 N2013 1.384 . S
N2012 C2008 1.427 . S
N2012 C2009 1.384 . S
N2013 C2005 1.427 . S
N2013 C2011 1.384 . S
H2014 C2020 0.930 . S
H2015 C2024 0.930 . S
H2016 C2029 0.929 . S
H2017 C2027 0.929 . S
H2018 C2022 0.929 . S
H2019 C2028 0.929 . S
C2020 H2014 0.930 . S
C2020 C2021 1.367 . S
C2020 C2028 1.378 . S
C2021 C2020 1.367 . S
C2021 C2029 1.433 . S
C2022 H2018 0.929 . S
C2022 C2024 1.378 . S
C2022 C2026 1.350 . S
C2023 C2026 1.463 . S
C2023 C2028 1.350 1_565 S
C2023 N2031 1.427 . S
C2024 H2015 0.930 . S
C2024 C2022 1.378 . S
C2024 C2025 1.367 1_655 S
C2025 C2024 1.367 1_455 S
C2025 C2027 1.433 . S
C2026 C2022 1.350 . S
C2026 C2023 1.463 . S
C2026 N2030 1.427 . S
C2027 H2017 0.929 . S
C2027 C2025 1.433 . S
C2027 N2030 1.384 1_455 S
C2028 H2019 0.929 . S
C2028 C2020 1.378 . S
C2028 C2023 1.350 1_545 S
C2029 H2016 0.929 . S
C2029 C2021 1.433 . S
C2029 N2031 1.384 1_545 S
N2030 C2026 1.427 . S
N2030 C2027 1.384 1_655 S
N2031 C2023 1.427 . S
N2031 C2029 1.384 1_565 S
H2032 C2038 0.930 . S
H2033 C2042 0.930 . S
H2034 C2047 0.929 . S
H2035 C2045 0.929 . S
H2036 C2040 0.929 . S
H2037 C2046 0.929 . S
C2038 H2032 0.930 . S
C2038 C2039 1.367 . S
C2038 C2046 1.378 . S
C2039 C2038 1.367 . S
C2039 C2047 1.433 . S
C2040 H2036 0.929 . S
C2040 C2042 1.378 . S
C2040 C2044 1.350 . S
C2041 C2044 1.463 . S
C2041 C2046 1.350 . S
C2041 N2049 1.427 . S
C2042 H2033 0.930 . S
C2042 C2040 1.378 . S
C2042 C2043 1.367 . S
C2043 C2042 1.367 . S
C2043 C2045 1.433 . S
C2044 C2040 1.350 . S
C2044 C2041 1.463 . S
C2044 N2048 1.427 . S
C2045 H2035 0.929 . S
C2045 C2043 1.433 . S
C2045 N2048 1.384 . S
C2046 H2037 0.929 . S
C2046 C2038 1.378 . S
C2046 C2041 1.350 . S
C2047 H2034 0.929 . S
C2047 C2039 1.433 . S
C2047 N2049 1.384 . S
N2048 C2044 1.427 . S
N2048 C2045 1.384 . S
N2049 C2041 1.427 . S
N2049 C2047 1.384 . S
H2050 C2056 0.930 . S
H2051 C2060 0.930 . S
H2052 C2065 0.929 . S
H2053 C2063 0.929 . S
H2054 C2058 0.929 . S
H2055 C2064 0.929 . S
C2056 H2050 0.930 . S
C2056 C2057 1.367 . S
C2056 C2064 1.378 . S
C2057 C2056 1.367 . S
C2057 C2065 1.433 . S
C2058 H2054 0.929 . S
C2058 C2060 1.378 1_455 S
C2058 C2062 1.350 . S
C2059 C2062 1.463 . S
C2059 C2064 1.350 . S
C2059 N2067 1.427 . S
C2060 H2051 0.930 . S
C2060 C2058 1.378 1_655 S
C2060 C2061 1.367 . S
C2061 C2060 1.367 . S
C2061 C2063 1.433 1_655 S
C2062 C2058 1.350 . S
C2062 C2059 1.463 . S
C2062 N2066 1.427 . S
C2063 H2053 0.929 . S
C2063 C2061 1.433 1_455 S
C2063 N2066 1.384 . S
C2064 H2055 0.929 . S
C2064 C2056 1.378 . S
C2064 C2059 1.350 . S
C2065 H2052 0.929 . S
C2065 C2057 1.433 . S
C2065 N2067 1.384 . S
N2066 C2062 1.427 . S
N2066 C2063 1.384 . S
N2067 C2059 1.427 . S
N2067 C2065 1.384 . S
H2068 C2074 0.930 . S
H2069 C2078 0.930 . S
H2070 C2083 0.929 . S
H2071 C2081 0.929 . S
H2072 C2076 0.929 . S
H2073 C2082 0.929 . S
C2074 H2068 0.930 . S
C2074 C2075 1.367 . S
C2074 C2082 1.378 . S
C2075 C2074 1.367 . S
C2075 C2083 1.433 . S
C2076 H2072 0.929 . S
C2076 C2078 1.378 . S
C2076 C2080 1.350 . S
C2077 C2080 1.463 . S
C2077 C2082 1.350 . S
C2077 N2085 1.427 . S
C2078 H2069 0.930 . S
C2078 C2076 1.378 . S
C2078 C2079 1.367 . S
C2079 C2078 1.367 . S
C2079 C2081 1.433 . S
C2080 C2076 1.350 . S
C2080 C2077 1.463 . S
C2080 N2084 1.427 . S
C2081 H2071 0.929 . S
C2081 C2079 1.433 . S
C2081 N2084 1.384 . S
C2082 H2073 0.929 . S
C2082 C2074 1.378 . S
C2082 C2077 1.350 . S
C2083 H2070 0.929 . S
C2083 C2075 1.433 . S
C2083 N2085 1.384 . S
N2084 C2080 1.427 . S
N2084 C2081 1.384 . S
N2085 C2077 1.427 . S
N2085 C2083 1.384 . S
H2086 C2092 0.930 . S
H2087 C2096 0.930 . S
H2088 C2101 0.929 . S
H2089 C2099 0.929 . S
H2090 C2094 0.929 . S
H2091 C2100 0.929 . S
C2092 H2086 0.930 . S
C2092 C2093 1.367 . S
C2092 C2100 1.378 . S
C2093 C2092 1.367 . S
C2093 C2101 1.433 . S
C2094 H2090 0.929 . S
C2094 C2096 1.378 . S
C2094 C2098 1.350 . S
C2095 C2098 1.463 . S
C2095 C2100 1.350 . S
C2095 N2103 1.427 . S
C2096 H2087 0.930 . S
C2096 C2094 1.378 . S
C2096 C2097 1.367 1_455 S
C2097 C2096 1.367 1_655 S
C2097 C2099 1.433 . S
C2098 C2094 1.350 . S
C2098 C2095 1.463 . S
C2098 N2102 1.427 . S
C2099 H2089 0.929 . S
C2099 C2097 1.433 . S
C2099 N2102 1.384 1_655 S
C2100 H2091 0.929 . S
C2100 C2092 1.378 . S
C2100 C2095 1.350 . S
C2101 H2088 0.929 . S
C2101 C2093 1.433 . S
C2101 N2103 1.384 . S
N2102 C2098 1.427 . S
N2102 C2099 1.384 1_455 S
N2103 C2095 1.427 . S
N2103 C2101 1.384 . S
H2104 C2110 0.930 . S
H2105 C2114 0.930 . S
H2106 C2119 0.929 . S
H2107 C2117 0.929 . S
H2108 C2112 0.929 . S
H2109 C2118 0.929 . S
C2110 H2104 0.930 . S
C2110 C2111 1.367 . S
C2110 C2118 1.378 . S
C2111 C2110 1.367 . S
C2111 C2119 1.433 . S
C2112 H2108 0.929 . S
C2112 C2114 1.378 . S
C2112 C2116 1.350 . S
C2113 C2116 1.463 . S
C2113 C2118 1.350 . S
C2113 N2121 1.427 . S
C2114 H2105 0.930 . S
C2114 C2112 1.378 . S
C2114 C2115 1.367 . S
C2115 C2114 1.367 . S
C2115 C2117 1.433 . S
C2116 C2112 1.350 . S
C2116 C2113 1.463 . S
C2116 N2120 1.427 . S
C2117 H2107 0.929 . S
C2117 C2115 1.433 . S
C2117 N2120 1.384 . S
C2118 H2109 0.929 . S
C2118 C2110 1.378 . S
C2118 C2113 1.350 . S
C2119 H2106 0.929 . S
C2119 C2111 1.433 . S
C2119 N2121 1.384 . S
N2120 C2116 1.427 . S
N2120 C2117 1.384 . S
N2121 C2113 1.427 . S
N2121 C2119 1.384 . S
H2122 C2128 0.930 . S
H2123 C2132 0.930 . S
H2124 C2137 0.929 . S
H2125 C2135 0.929 . S
H2126 C2130 0.929 . S
H2127 C2136 0.929 . S
C2128 H2122 0.930 . S
C2128 C2129 1.367 1_655 S
C2128 C2136 1.378 . S
C2129 C2128 1.367 1_455 S
C2129 C2137 1.433 . S
C2130 H2126 0.929 . S
C2130 C2132 1.378 . S
C2130 C2134 1.350 . S
C2131 C2134 1.463 . S
C2131 C2136 1.350 . S
C2131 N2139 1.427 . S
C2132 H2123 0.930 . S
C2132 C2130 1.378 . S
C2132 C2133 1.367 . S
C2133 C2132 1.367 . S
C2133 C2135 1.433 . S
C2134 C2130 1.350 . S
C2134 C2131 1.463 . S
C2134 N2138 1.427 . S
C2135 H2125 0.929 . S
C2135 C2133 1.433 . S
C2135 N2138 1.384 . S
C2136 H2127 0.929 . S
C2136 C2128 1.378 . S
C2136 C2131 1.350 . S
C2137 H2124 0.929 . S
C2137 C2129 1.433 . S
C2137 N2139 1.384 1_455 S
N2138 C2134 1.427 . S
N2138 C2135 1.384 . S
N2139 C2131 1.427 . S
N2139 C2137 1.384 1_655 S
H2140 C2146 0.930 . S
H2141 C2150 0.930 . S
H2142 C2155 0.929 . S
H2143 C2153 0.929 . S
H2144 C2148 0.929 . S
H2145 C2154 0.929 . S
C2146 H2140 0.930 . S
C2146 C2147 1.367 . S
C2146 C2154 1.378 . S
C2147 C2146 1.367 . S
C2147 C2155 1.433 . S
C2148 H2144 0.929 . S
C2148 C2150 1.378 . S
C2148 C2152 1.350 . S
C2149 C2152 1.463 . S
C2149 C2154 1.350 . S
C2149 N2157 1.427 . S
C2150 H2141 0.930 . S
C2150 C2148 1.378 . S
C2150 C2151 1.367 . S
C2151 C2150 1.367 . S
C2151 C2153 1.433 . S
C2152 C2148 1.350 . S
C2152 C2149 1.463 . S
C2152 N2156 1.427 . S
C2153 H2143 0.929 . S
C2153 C2151 1.433 . S
C2153 N2156 1.384 . S
C2154 H2145 0.929 . S
C2154 C2146 1.378 . S
C2154 C2149 1.350 . S
C2155 H2142 0.929 . S
C2155 C2147 1.433 . S
C2155 N2157 1.384 . S
N2156 C2152 1.427 . S
N2156 C2153 1.384 . S
N2157 C2149 1.427 . S
N2157 C2155 1.384 . S
H2158 C2164 0.930 . S
H2159 C2168 0.930 . S
H2160 C2173 0.929 . S
H2161 C2171 0.929 . S
H2162 C2166 0.929 . S
H2163 C2172 0.929 . S
C2164 H2158 0.930 . S
C2164 C2165 1.367 . S
C2164 C2172 1.378 . S
C2165 C2164 1.367 . S
C2165 C2173 1.433 . S
C2166 H2162 0.929 . S
C2166 C2168 1.378 . S
C2166 C2170 1.350 . S
C2167 C2170 1.463 . S
C2167 C2172 1.350 . S
C2167 N2175 1.427 . S
C2168 H2159 0.930 . S
C2168 C2166 1.378 . S
C2168 C2169 1.367 1_655 S
C2169 C2168 1.367 1_455 S
C2169 C2171 1.433 . S
C2170 C2166 1.350 . S
C2170 C2167 1.463 . S
C2170 N2174 1.427 . S
C2171 H2161 0.929 . S
C2171 C2169 1.433 . S
C2171 N2174 1.384 1_455 S
C2172 H2163 0.929 . S
C2172 C2164 1.378 . S
C2172 C2167 1.350 . S
C2173 H2160 0.929 . S
C2173 C2165 1.433 . S
C2173 N2175 1.384 . S
N2174 C2170 1.427 . S
N2174 C2171 1.384 1_655 S
N2175 C2167 1.427 . S
N2175 C2173 1.384 . S
H2176 C2182 0.930 . S
H2177 C2186 0.930 1_545 S
H2178 C2191 0.929 . S
H2179 C2189 0.929 . S
H2180 C2184 0.929 . S
H2181 C2190 0.929 . S
C2182 H2176 0.930 . S
C2182 C2183 1.367 . S
C2182 C2190 1.378 . S
C2183 C2182 1.367 . S
C2183 C2191 1.433 . S
C2184 H2180 0.929 . S
C2184 C2186 1.378 1_545 S
C2184 C2188 1.350 . S
C2185 C2188 1.463 . S
C2185 C2190 1.350 . S
C2185 N2193 1.427 . S
C2186 H2177 0.930 1_565 S
C2186 C2184 1.378 1_565 S
C2186 C2187 1.367 . S
C2187 C2186 1.367 . S
C2187 C2189 1.433 . S
C2188 C2184 1.350 . S
C2188 C2185 1.463 . S
C2188 N2192 1.427 1_545 S
C2189 H2179 0.929 . S
C2189 C2187 1.433 . S
C2189 N2192 1.384 . S
C2190 H2181 0.929 . S
C2190 C2182 1.378 . S
C2190 C2185 1.350 . S
C2191 H2178 0.929 . S
C2191 C2183 1.433 . S
C2191 N2193 1.384 . S
N2192 C2188 1.427 1_565 S
N2192 C2189 1.384 . S
N2193 C2185 1.427 . S
N2193 C2191 1.384 . S
H2194 C2200 0.930 . S
H2195 C2204 0.930 . S
H2196 C2209 0.929 . S
H2197 C2207 0.929 . S
H2198 C2202 0.929 . S
H2199 C2208 0.929 . S
C2200 H2194 0.930 . S
C2200 C2201 1.367 . S
C2200 C2208 1.378 . S
C2201 C2200 1.367 . S
C2201 C2209 1.433 . S
C2202 H2198 0.929 . S
C2202 C2204 1.378 . S
C2202 C2206 1.350 . S
C2203 C2206 1.463 . S
C2203 C2208 1.350 . S
C2203 N2211 1.427 . S
C2204 H2195 0.930 . S
C2204 C2202 1.378 . S
C2204 C2205 1.367 . S
C2205 C2204 1.367 . S
C2205 C2207 1.433 . S
C2206 C2202 1.350 . S
C2206 C2203 1.463 . S
C2206 N2210 1.427 . S
C2207 H2197 0.929 . S
C2207 C2205 1.433 . S
C2207 N2210 1.384 . S
C2208 H2199 0.929 . S
C2208 C2200 1.378 . S
C2208 C2203 1.350 . S
C2209 H2196 0.929 . S
C2209 C2201 1.433 . S
C2209 N2211 1.384 . S
N2210 C2206 1.427 . S
N2210 C2207 1.384 . S
N2211 C2203 1.427 . S
N2211 C2209 1.384 . S
H2212 C2218 0.930 . S
H2213 C2222 0.930 . S
H2214 C2227 0.929 . S
H2215 C2225 0.929 . S
H2216 C2220 0.929 . S
H2217 C2226 0.929 . S
C2218 H2212 0.930 . S
C2218 C2219 1.367 . S
C2218 C2226 1.378 . S
C2219 C2218 1.367 . S
C2219 C2227 1.433 . S
C2220 H2216 0.929 . S
C2220 C2222 1.378 . S
C2220 C2224 1.350 . S
C2221 C2224 1.463 . S
C2221 C2226 1.350 . S
C2221 N2229 1.427 . S
C2222 H2213 0.930 . S
C2222 C2220 1.378 . S
C2222 C2223 1.367 . S
C2223 C2222 1.367 . S
C2223 C2225 1.433 . S
C2224 C2220 1.350 . S
C2224 C2221 1.463 . S
C2224 N2228 1.427 . S
C2225 H2215 0.929 . S
C2225 C2223 1.433 . S
C2225 N2228 1.384 . S
C2226 H2217 0.929 . S
C2226 C2218 1.378 . S
C2226 C2221 1.350 . S
C2227 H2214 0.929 . S
C2227 C2219 1.433 . S
C2227 N2229 1.384 . S
N2228 C2224 1.427 . S
N2228 C2225 1.384 . S
N2229 C2221 1.427 . S
N2229 C2227 1.384 . S
H2230 C2236 0.930 . S
H2231 C2240 0.930 . S
H2232 C2245 0.929 . S
H2233 C2243 0.929 . S
H2234 C2238 0.929 . S
H2235 C2244 0.928 1_545 S
C2236 H2230 0.930 . S
C2236 C2237 1.367 . S
C2236 C2244 1.378 . S
C2237 C2236 1.367 . S
C2237 C2245 1.433 . S
C2238 H2234 0.929 . S
C2238 C2240 1.378 . S
C2238 C2242 1.350 . S
C2239 C2242 1.463 . S
C2239 C2244 1.350 1_545 S
C2239 N2247 1.427 . S
C2240 H2231 0.930 . S
C2240 C2238 1.378 . S
C2240 C2241 1.367 . S
C2241 C2240 1.367 . S
C2241 C2243 1.433 . S
C2242 C2238 1.350 . S
C2242 C2239 1.463 . S
C2242 N2246 1.427 . S
C2243 H2233 0.929 . S
C2243 C2241 1.433 . S
C2243 N2246 1.384 . S
C2244 H2235 0.928 1_565 S
C2244 C2236 1.378 . S
C2244 C2239 1.350 1_565 S
C2245 H2232 0.929 . S
C2245 C2237 1.433 . S
C2245 N2247 1.384 1_565 S
N2246 C2242 1.427 . S
N2246 C2243 1.384 . S
N2247 C2239 1.427 . S
N2247 C2245 1.384 1_545 S
H2248 C2254 0.930 . S
H2249 C2258 0.930 . S
H2250 C2263 0.929 . S
H2251 C2261 0.929 . S
H2252 C2256 0.929 . S
H2253 C2262 0.929 . S
C2254 H2248 0.930 . S
C2254 C2255 1.367 . S
C2254 C2262 1.378 . S
C2255 C2254 1.367 . S
C2255 C2263 1.433 . S
C2256 H2252 0.929 . S
C2256 C2258 1.378 . S
C2256 C2260 1.350 1_545 S
C2257 C2260 1.463 . S
C2257 C2262 1.350 . S
C2257 N2265 1.427 . S
C2258 H2249 0.930 . S
C2258 C2256 1.378 . S
C2258 C2259 1.367 . S
C2259 C2258 1.367 . S
C2259 C2261 1.433 . S
C2260 C2256 1.350 1_565 S
C2260 C2257 1.463 . S
C2260 N2264 1.427 . S
C2261 H2251 0.929 . S
C2261 C2259 1.433 . S
C2261 N2264 1.384 1_545 S
C2262 H2253 0.929 . S
C2262 C2254 1.378 . S
C2262 C2257 1.350 . S
C2263 H2250 0.929 . S
C2263 C2255 1.433 . S
C2263 N2265 1.384 . S
N2264 C2260 1.427 . S
N2264 C2261 1.384 1_565 S
N2265 C2257 1.427 . S
N2265 C2263 1.384 . S
H2266 C2272 0.930 . S
H2267 C2276 0.930 . S
H2268 C2281 0.929 . S
H2269 C2279 0.929 . S
H2270 C2274 0.929 . S
H2271 C2280 0.929 . S
C2272 H2266 0.930 . S
C2272 C2273 1.367 . S
C2272 C2280 1.378 . S
C2273 C2272 1.367 . S
C2273 C2281 1.433 . S
C2274 H2270 0.929 . S
C2274 C2276 1.378 . S
C2274 C2278 1.350 . S
C2275 C2278 1.463 . S
C2275 C2280 1.350 . S
C2275 N2283 1.427 . S
C2276 H2267 0.930 . S
C2276 C2274 1.378 . S
C2276 C2277 1.367 . S
C2277 C2276 1.367 . S
C2277 C2279 1.433 . S
C2278 C2274 1.350 . S
C2278 C2275 1.463 . S
C2278 N2282 1.427 . S
C2279 H2269 0.929 . S
C2279 C2277 1.433 . S
C2279 N2282 1.384 . S
C2280 H2271 0.929 . S
C2280 C2272 1.378 . S
C2280 C2275 1.350 . S
C2281 H2268 0.929 . S
C2281 C2273 1.433 . S
C2281 N2283 1.384 . S
N2282 C2278 1.427 . S
N2282 C2279 1.384 . S
N2283 C2275 1.427 . S
N2283 C2281 1.384 . S
H2284 C2290 0.930 . S
H2285 C2294 0.930 . S
H2286 C2299 0.929 . S
H2287 C2297 0.929 . S
H2288 C2292 0.929 . S
H2289 C2298 0.929 . S
C2290 H2284 0.930 . S
C2290 C2291 1.367 . S
C2290 C2298 1.378 . S
C2291 C2290 1.367 . S
C2291 C2299 1.433 . S
C2292 H2288 0.929 . S
C2292 C2294 1.378 . S
C2292 C2296 1.350 . S
C2293 C2296 1.463 . S
C2293 C2298 1.350 . S
C2293 N2301 1.427 . S
C2294 H2285 0.930 . S
C2294 C2292 1.378 . S
C2294 C2295 1.367 . S
C2295 C2294 1.367 . S
C2295 C2297 1.433 . S
C2296 C2292 1.350 . S
C2296 C2293 1.463 . S
C2296 N2300 1.427 . S
C2297 H2287 0.929 . S
C2297 C2295 1.433 . S
C2297 N2300 1.384 . S
C2298 H2289 0.929 . S
C2298 C2290 1.378 . S
C2298 C2293 1.350 . S
C2299 H2286 0.929 . S
C2299 C2291 1.433 . S
C2299 N2301 1.384 . S
N2300 C2296 1.427 . S
N2300 C2297 1.384 . S
N2301 C2293 1.427 . S
N2301 C2299 1.384 . S
H2302 C2308 0.930 . S
H2303 C2312 0.930 . S
H2304 C2317 0.929 . S
H2305 C2315 0.927 1_565 S
H2306 C2310 0.929 . S
H2307 C2316 0.929 . S
C2308 H2302 0.930 . S
C2308 C2309 1.367 . S
C2308 C2316 1.378 . S
C2309 C2308 1.367 . S
C2309 C2317 1.433 . S
C2310 H2306 0.929 . S
C2310 C2312 1.378 . S
C2310 C2314 1.350 1_545 S
C2311 C2314 1.463 . S
C2311 C2316 1.350 . S
C2311 N2319 1.427 . S
C2312 H2303 0.930 . S
C2312 C2310 1.378 . S
C2312 C2313 1.367 . S
C2313 C2312 1.367 . S
C2313 C2315 1.433 . S
C2314 C2310 1.350 1_565 S
C2314 C2311 1.463 . S
C2314 N2318 1.427 . S
C2315 H2305 0.927 1_545 S
C2315 C2313 1.433 . S
C2315 N2318 1.384 1_545 S
C2316 H2307 0.929 . S
C2316 C2308 1.378 . S
C2316 C2311 1.350 . S
C2317 H2304 0.929 . S
C2317 C2309 1.433 . S
C2317 N2319 1.384 . S
N2318 C2314 1.427 . S
N2318 C2315 1.384 1_565 S
N2319 C2311 1.427 . S
N2319 C2317 1.384 . S
H2320 C2326 0.930 . S
H2321 C2330 0.930 . S
H2322 C2335 0.929 . S
H2323 C2333 0.929 . S
H2324 C2328 0.929 . S
H2325 C2334 0.929 . S
C2326 H2320 0.930 . S
C2326 C2327 1.342 1_556 S
C2326 C2334 1.378 . S
C2327 C2326 1.342 1_554 S
C2327 C2335 1.458 . S
C2328 H2324 0.929 . S
C2328 C2330 1.378 . S
C2328 C2332 1.339 1_554 S
C2329 C2332 1.462 . S
C2329 C2334 1.388 . S
C2329 N2337 1.387 1_556 S
C2330 H2321 0.930 . S
C2330 C2328 1.378 . S
C2330 C2331 1.367 1_554 S
C2331 C2330 1.367 1_556 S
C2331 C2333 1.433 . S
C2332 C2328 1.339 1_556 S
C2332 C2329 1.462 . S
C2332 N2336 1.439 . S
C2333 H2323 0.929 . S
C2333 C2331 1.433 . S
C2333 N2336 1.384 . S
C2334 H2325 0.929 . S
C2334 C2326 1.378 . S
C2334 C2329 1.388 . S
C2335 H2322 0.929 . S
C2335 C2327 1.458 . S
C2335 N2337 1.384 . S
N2336 C2332 1.439 . S
N2336 C2333 1.384 . S
N2337 C2329 1.387 1_554 S
N2337 C2335 1.384 . S
H2338 C2344 0.930 . S
H2339 C2348 0.930 . S
H2340 C2353 0.929 . S
H2341 C2351 0.929 . S
H2342 C2346 0.929 . S
H2343 C2352 0.929 . S
C2344 H2338 0.930 . S
C2344 C2345 1.367 . S
C2344 C2352 1.378 . S
C2345 C2344 1.367 . S
C2345 C2353 1.433 1_556 S
C2346 H2342 0.929 . S
C2346 C2348 1.378 . S
C2346 C2350 1.377 . S
C2347 C2350 1.460 1_556 S
C2347 C2352 1.350 . S
C2347 N2355 1.427 1_556 S
C2348 H2339 0.930 . S
C2348 C2346 1.378 . S
C2348 C2349 1.367 . S
C2349 C2348 1.367 . S
C2349 C2351 1.433 1_554 S
C2350 C2346 1.377 . S
C2350 C2347 1.460 1_554 S
C2350 N2354 1.400 1_554 S
C2351 H2341 0.929 . S
C2351 C2349 1.433 1_556 S
C2351 N2354 1.384 . S
C2352 H2343 0.929 . S
C2352 C2344 1.378 . S
C2352 C2347 1.350 . S
C2353 H2340 0.929 . S
C2353 C2345 1.433 1_554 S
C2353 N2355 1.384 . S
N2354 C2350 1.400 1_556 S
N2354 C2351 1.384 . S
N2355 C2347 1.427 1_554 S
N2355 C2353 1.384 . S
H2356 C2362 0.930 . S
H2357 C2366 0.930 . S
H2358 C2371 0.929 . S
H2359 C2369 0.929 . S
H2360 C2364 0.929 . S
H2361 C2370 0.929 . S
C2362 H2356 0.930 . S
C2362 C2363 1.367 . S
C2362 C2370 1.378 . S
C2363 C2362 1.367 . S
C2363 C2371 1.433 . S
C2364 H2360 0.929 . S
C2364 C2366 1.378 . S
C2364 C2368 1.350 . S
C2365 C2368 1.463 . S
C2365 C2370 1.350 . S
C2365 N2373 1.427 . S
C2366 H2357 0.930 . S
C2366 C2364 1.378 . S
C2366 C2367 1.367 . S
C2367 C2366 1.367 . S
C2367 C2369 1.433 . S
C2368 C2364 1.350 . S
C2368 C2365 1.463 . S
C2368 N2372 1.427 . S
C2369 H2359 0.929 . S
C2369 C2367 1.433 . S
C2369 N2372 1.384 . S
C2370 H2361 0.929 . S
C2370 C2362 1.378 . S
C2370 C2365 1.350 . S
C2371 H2358 0.929 . S
C2371 C2363 1.433 . S
C2371 N2373 1.384 . S
N2372 C2368 1.427 . S
N2372 C2369 1.384 . S
N2373 C2365 1.427 . S
N2373 C2371 1.384 . S
H2374 C2380 0.930 . S
H2375 C2384 0.930 . S
H2376 C2389 0.929 . S
H2377 C2387 0.929 . S
H2378 C2382 0.929 . S
H2379 C2388 0.929 . S
C2380 H2374 0.930 . S
C2380 C2381 1.367 . S
C2380 C2388 1.378 . S
C2381 C2380 1.367 . S
C2381 C2389 1.433 . S
C2382 H2378 0.929 . S
C2382 C2384 1.378 . S
C2382 C2386 1.350 . S
C2383 C2386 1.463 . S
C2383 C2388 1.350 . S
C2383 N2391 1.427 . S
C2384 H2375 0.930 . S
C2384 C2382 1.378 . S
C2384 C2385 1.367 . S
C2385 C2384 1.367 . S
C2385 C2387 1.433 . S
C2386 C2382 1.350 . S
C2386 C2383 1.463 . S
C2386 N2390 1.427 . S
C2387 H2377 0.929 . S
C2387 C2385 1.433 . S
C2387 N2390 1.384 . S
C2388 H2379 0.929 . S
C2388 C2380 1.378 . S
C2388 C2383 1.350 . S
C2389 H2376 0.929 . S
C2389 C2381 1.433 . S
C2389 N2391 1.384 . S
N2390 C2386 1.427 . S
N2390 C2387 1.384 . S
N2391 C2383 1.427 . S
N2391 C2389 1.384 . S
H2392 C2398 0.930 . S
H2393 C2402 0.930 . S
H2394 C2407 0.929 . S
H2395 C2405 0.929 . S
H2396 C2400 0.929 . S
H2397 C2406 0.929 . S
C2398 H2392 0.930 . S
C2398 C2399 1.367 1_554 S
C2398 C2406 1.378 . S
C2399 C2398 1.367 1_556 S
C2399 C2407 1.433 . S
C2400 H2396 0.929 . S
C2400 C2402 1.378 . S
C2400 C2404 1.350 . S
C2401 C2404 1.463 . S
C2401 C2406 1.350 1_556 S
C2401 N2409 1.427 . S
C2402 H2393 0.930 . S
C2402 C2400 1.378 . S
C2402 C2403 1.414 . S
C2403 C2402 1.414 . S
C2403 C2405 1.387 1_556 S
C2404 C2400 1.350 . S
C2404 C2401 1.463 . S
C2404 N2408 1.427 1_556 S
C2405 H2395 0.929 . S
C2405 C2403 1.387 1_554 S
C2405 N2408 1.384 . S
C2406 H2397 0.929 . S
C2406 C2398 1.378 . S
C2406 C2401 1.350 1_554 S
C2407 H2394 0.929 . S
C2407 C2399 1.433 . S
C2407 N2409 1.384 . S
N2408 C2404 1.427 1_554 S
N2408 C2405 1.384 . S
N2409 C2401 1.427 . S
N2409 C2407 1.384 . S
H2410 C2416 0.930 . S
H2411 C2420 0.930 . S
H2412 C2425 0.929 . S
H2413 C2423 0.929 . S
H2414 C2418 0.929 . S
H2415 C2424 0.929 . S
C2416 H2410 0.930 . S
C2416 C2417 1.356 1_554 S
C2416 C2424 1.378 . S
C2417 C2416 1.356 1_556 S
C2417 C2425 1.444 . S
C2418 H2414 0.929 . S
C2418 C2420 1.378 . S
C2418 C2422 1.350 . S
C2419 C2422 1.468 . S
C2419 C2424 1.303 1_556 S
C2419 N2427 1.474 . S
C2420 H2411 0.930 . S
C2420 C2418 1.378 . S
C2420 C2421 1.367 . S
C2421 C2420 1.367 . S
C2421 C2423 1.433 1_556 S
C2422 C2418 1.350 . S
C2422 C2419 1.468 . S
C2422 N2426 1.427 1_556 S
C2423 H2413 0.929 . S
C2423 C2421 1.433 1_554 S
C2423 N2426 1.384 . S
C2424 H2415 0.929 . S
C2424 C2416 1.378 . S
C2424 C2419 1.303 1_554 S
C2425 H2412 0.929 . S
C2425 C2417 1.444 . S
C2425 N2427 1.384 . S
N2426 C2422 1.427 1_554 S
N2426 C2423 1.384 . S
N2427 C2419 1.474 . S
N2427 C2425 1.384 . S
H2428 C2434 0.930 . S
H2429 C2438 0.930 . S
H2430 C2443 0.929 . S
H2431 C2441 0.929 . S
H2432 C2436 0.929 . S
H2433 C2442 0.929 . S
C2434 H2428 0.930 . S
C2434 C2435 1.367 . S
C2434 C2442 1.378 . S
C2435 C2434 1.367 . S
C2435 C2443 1.433 . S
C2436 H2432 0.929 . S
C2436 C2438 1.378 . S
C2436 C2440 1.350 . S
C2437 C2440 1.463 . S
C2437 C2442 1.350 . S
C2437 N2445 1.427 . S
C2438 H2429 0.930 . S
C2438 C2436 1.378 . S
C2438 C2439 1.367 . S
C2439 C2438 1.367 . S
C2439 C2441 1.433 . S
C2440 C2436 1.350 . S
C2440 C2437 1.463 . S
C2440 N2444 1.427 . S
C2441 H2431 0.929 . S
C2441 C2439 1.433 . S
C2441 N2444 1.384 . S
C2442 H2433 0.929 . S
C2442 C2434 1.378 . S
C2442 C2437 1.350 . S
C2443 H2430 0.929 . S
C2443 C2435 1.433 . S
C2443 N2445 1.384 . S
N2444 C2440 1.427 . S
N2444 C2441 1.384 . S
N2445 C2437 1.427 . S
N2445 C2443 1.384 . S
H2446 C2452 0.930 . S
H2447 C2456 0.930 . S
H2448 C2461 0.929 . S
H2449 C2459 0.929 . S
H2450 C2454 0.929 . S
H2451 C2460 0.929 . S
C2452 H2446 0.930 . S
C2452 C2453 1.367 . S
C2452 C2460 1.378 . S
C2453 C2452 1.367 . S
C2453 C2461 1.433 . S
C2454 H2450 0.929 . S
C2454 C2456 1.378 . S
C2454 C2458 1.350 . S
C2455 C2458 1.463 . S
C2455 C2460 1.350 . S
C2455 N2463 1.427 . S
C2456 H2447 0.930 . S
C2456 C2454 1.378 . S
C2456 C2457 1.367 . S
C2457 C2456 1.367 . S
C2457 C2459 1.433 . S
C2458 C2454 1.350 . S
C2458 C2455 1.463 . S
C2458 N2462 1.427 . S
C2459 H2449 0.929 . S
C2459 C2457 1.433 . S
C2459 N2462 1.384 . S
C2460 H2451 0.929 . S
C2460 C2452 1.378 . S
C2460 C2455 1.350 . S
C2461 H2448 0.929 . S
C2461 C2453 1.433 . S
C2461 N2463 1.384 . S
N2462 C2458 1.427 . S
N2462 C2459 1.384 . S
N2463 C2455 1.427 . S
N2463 C2461 1.384 . S
C743 C591 1.320 . S
C747 C16 1.318 . S
C761 C568 1.325 . S
C765 C39 1.323 . S
C779 C637 1.326 . S
C783 C62 1.324 . S
C797 C614 1.314 . S
C801 C85 1.314 . S
C815 C108 1.372 . S
C819 C683 1.371 . S
C833 C131 1.366 . S
C837 C660 1.366 . S
C851 C154 1.379 . S
C855 C729 1.379 . S
C869 C706 1.378 . S
C873 C177 1.378 . S
C887 C407 1.316 . S
C891 C200 1.319 . S
C905 C384 1.323 . S
C909 C223 1.320 . S
C923 C453 1.315 . S
C927 C246 1.317 . S
C941 C430 1.314 . S
C945 C269 1.315 . S
C959 C292 1.377 . S
C963 C499 1.377 . S
C977 C476 1.378 . S
C981 C315 1.378 . S
C995 C338 1.379 . S
C999 C545 1.378 . S
C1013 C522 1.378 . S
C1017 C361 1.378 . S
C1031 C19 1.386 . S
C1035 C456 1.383 . S
C1049 C433 1.377 . S
C1053 C42 1.393 . S
C1067 C410 1.357 . S
C1071 C65 1.365 . S
C1085 C88 1.369 . S
C1089 C387 1.357 . S
C1103 C549 1.373 . S
C1107 C112 1.389 . S
C1121 C526 1.373 . S
C1125 C135 1.388 . S
C1139 C503 1.361 . S
C1143 C158 1.353 . S
C1157 C480 1.353 . S
C1161 C181 1.362 . S
C1175 C640 1.369 . S
C1179 C203 1.358 . S
C1193 C226 1.368 . S
C1197 C617 1.360 . S
C1211 C249 1.376 . S
C1215 C594 1.394 . S
C1229 C272 1.385 . S
C1233 C571 1.390 . S
C1247 C733 1.354 . S
C1251 C296 1.364 . S
C1265 C710 1.353 . S
C1269 C319 1.364 . S
C1283 C342 1.378 . S
C1287 C687 1.391 . S
C1301 C365 1.373 . S
C1305 C664 1.388 . S
C1319 C113 0.661 . S
C1323 C21 0.661 . S
C1337 C44 0.667 . S
C1341 C688 0.662 . S
C1355 C67 0.655 . S
C1359 C343 0.662 . S
C1373 C550 0.656 . S
C1377 C90 0.667 . S
C1391 C136 0.663 . S
C1395 C596 0.672 . S
C1409 C159 0.661 . S
C1413 C251 0.662 . S
C1427 C458 0.657 . S
C1431 C182 0.662 . S
C1445 C297 0.659 . S
C1449 C205 0.670 . S
C1463 C228 0.657 . S
C1467 C504 0.664 . S
C1481 C274 0.667 . S
C1485 C734 0.657 . S
C1499 C412 0.663 . S
C1503 C320 0.658 . S
C1517 C366 0.659 . S
C1521 C642 0.654 . S
C1535 C481 0.663 . S
C1539 C389 0.656 . S
C1553 C711 0.659 . S
C1557 C435 0.654 . S
C1571 C619 0.659 . S
C1575 C527 0.656 . S
C1589 C573 0.677 . S
C1593 C665 0.659 . S
C1607 C66 1.503 . S
C1611 C20 1.494 . S
C1625 C89 1.503 . S
C1629 C43 1.495 . S
C1643 C157 1.496 . S
C1647 C111 1.486 . S
C1661 C134 1.489 . S
C1665 C180 1.479 . S
C1679 C250 1.521 . S
C1683 C204 1.517 . S
C1697 C227 1.513 . S
C1701 C273 1.515 . S
C1715 C341 1.506 . S
C1719 C295 1.510 . S
C1733 C318 1.506 . S
C1737 C364 1.510 . S
C1751 C388 1.523 . S
C1755 C434 1.522 . S
C1769 C411 1.523 . S
C1773 C457 1.522 . S
C1787 C525 1.505 . S
C1791 C479 1.509 . S
C1805 C502 1.505 . S
C1809 C548 1.507 . S
C1823 C572 1.503 . S
C1827 C618 1.496 . S
C1841 C641 1.493 . S
C1845 C595 1.489 . S
C1859 C663 1.485 . S
C1863 C709 1.480 . S
C1877 C686 1.496 . S
C1881 C732 1.488 . S
C1895 C132 1.649 . S
C1899 C18 1.722 1_556 S
C1913 C661 1.642 . S
C1917 C41 1.729 1_556 S
C1931 C64 1.715 . S
C1935 C362 1.659 . S
C1949 C87 1.721 . S
C1953 C523 1.656 . S
C1967 C110 1.677 1_556 S
C1971 C40 1.604 . S
C1985 C133 1.671 1_556 S
C1989 C569 1.603 . S
C2003 C270 1.600 . S
C2007 C156 1.680 . S
C2021 C431 1.600 . S
C2025 C179 1.680 . S
C2039 C202 1.725 . S
C2043 C316 1.655 . S
C2057 C477 1.658 . S
C2061 C225 1.723 . S
C2075 C248 1.721 . S
C2079 C178 1.658 . S
C2093 C707 1.645 . S
C2097 C271 1.720 . S
C2111 C294 1.681 . S
C2115 C224 1.600 . S
C2129 C317 1.674 . S
C2133 C385 1.604 . S
C2147 C340 1.680 . S
C2151 C86 1.596 . S
C2165 C615 1.596 . S
C2169 C363 1.680 . S
C2183 C386 1.717 . S
C2187 C500 1.658 . S
C2201 C409 1.723 . S
C2205 C293 1.645 . S
C2219 C730 1.659 . S
C2223 C432 1.715 . S
C2237 C155 1.650 . S
C2241 C455 1.717 . S
C2255 C478 1.680 . S
C2259 C408 1.603 . S
C2273 C201 1.608 . S
C2277 C501 1.672 . S
C2291 C638 1.614 . S
C2295 C524 1.670 . S
C2309 C547 1.676 . S
C2313 C63 1.600 . S
C2327 C684 1.655 . S
C2331 C570 1.719 1_556 S
C2345 C593 1.726 1_556 S
C2349 C109 1.652 . S
C2363 C546 1.644 . S
C2367 C616 1.720 . S
C2381 C339 1.647 . S
C2385 C639 1.718 . S
C2399 C592 1.605 . S
C2403 C662 1.667 1_556 S
C2417 C685 1.667 1_556 S
C2421 C17 1.611 . S
C2435 C454 1.600 . S
C2439 C708 1.680 . S
C2453 C731 1.673 . S
C2457 C247 1.610 . S
