# Generated by pormake.
# Topology unf, (4)-cn, num edge types: 1
# Building blocks:
#     Node 0, Type 0, BuildingBlock: UXUYUI_clean_sbu_0, # of connection points: 4
#     Node 1, Type 0, BuildingBlock: UXUYUI_clean_sbu_0, # of connection points: 4
#     Node 2, Type 0, BuildingBlock: UXUYUI_clean_sbu_0, # of connection points: 4
#     Node 3, Type 0, BuildingBlock: UXUYUI_clean_sbu_0, # of connection points: 4
#     Node 4, Type 0, BuildingBlock: UXUYUI_clean_sbu_0, # of connection points: 4
#     Node 5, Type 0, BuildingBlock: UXUYUI_clean_sbu_0, # of connection points: 4
#     Node 6, Type 0, BuildingBlock: UXUYUI_clean_sbu_0, # of connection points: 4
#     Node 7, Type 0, BuildingBlock: UXUYUI_clean_sbu_0, # of connection points: 4
#     Node 8, Type 0, BuildingBlock: UXUYUI_clean_sbu_0, # of connection points: 4
#     Node 9, Type 0, BuildingBlock: UXUYUI_clean_sbu_0, # of connection points: 4
#     Node 10, Type 0, BuildingBlock: UXUYUI_clean_sbu_0, # of connection points: 4
#     Node 11, Type 0, BuildingBlock: UXUYUI_clean_sbu_0, # of connection points: 4
#     Edge 12, Type (0, 0), BuildingBlock: XIVTED_clean_linker_0, # of connection points: 2
#     Edge 13, Type (0, 0), BuildingBlock: XIVTED_clean_linker_0, # of connection points: 2
#     Edge 14, Type (0, 0), BuildingBlock: XIVTED_clean_linker_0, # of connection points: 2
#     Edge 15, Type (0, 0), BuildingBlock: XIVTED_clean_linker_0, # of connection points: 2
#     Edge 16, Type (0, 0), BuildingBlock: XIVTED_clean_linker_0, # of connection points: 2
#     Edge 17, Type (0, 0), BuildingBlock: XIVTED_clean_linker_0, # of connection points: 2
#     Edge 18, Type (0, 0), BuildingBlock: XIVTED_clean_linker_0, # of connection points: 2
#     Edge 19, Type (0, 0), BuildingBlock: XIVTED_clean_linker_0, # of connection points: 2
#     Edge 20, Type (0, 0), BuildingBlock: XIVTED_clean_linker_0, # of connection points: 2
#     Edge 21, Type (0, 0), BuildingBlock: XIVTED_clean_linker_0, # of connection points: 2
#     Edge 22, Type (0, 0), BuildingBlock: XIVTED_clean_linker_0, # of connection points: 2
#     Edge 23, Type (0, 0), BuildingBlock: XIVTED_clean_linker_0, # of connection points: 2
#     Edge 24, Type (0, 0), BuildingBlock: XIVTED_clean_linker_0, # of connection points: 2
#     Edge 25, Type (0, 0), BuildingBlock: XIVTED_clean_linker_0, # of connection points: 2
#     Edge 26, Type (0, 0), BuildingBlock: XIVTED_clean_linker_0, # of connection points: 2
#     Edge 27, Type (0, 0), BuildingBlock: XIVTED_clean_linker_0, # of connection points: 2
#     Edge 28, Type (0, 0), BuildingBlock: XIVTED_clean_linker_0, # of connection points: 2
#     Edge 29, Type (0, 0), BuildingBlock: XIVTED_clean_linker_0, # of connection points: 2
#     Edge 30, Type (0, 0), BuildingBlock: XIVTED_clean_linker_0, # of connection points: 2
#     Edge 31, Type (0, 0), BuildingBlock: XIVTED_clean_linker_0, # of connection points: 2
#     Edge 32, Type (0, 0), BuildingBlock: XIVTED_clean_linker_0, # of connection points: 2
#     Edge 33, Type (0, 0), BuildingBlock: XIVTED_clean_linker_0, # of connection points: 2
#     Edge 34, Type (0, 0), BuildingBlock: XIVTED_clean_linker_0, # of connection points: 2
#     Edge 35, Type (0, 0), BuildingBlock: XIVTED_clean_linker_0, # of connection points: 2
# Relax obj value: 0.347
# Max RMSD: 0.227
# Mean RMSD: 0.226
data_MOF--net-unf--node1-UXUYUI_clean_sbu_0--edge1-XIVTED_clean_linker_0
_symmetry_space_group_name_H-M    P1
_symmetry_Int_Tables_number       1
_symmetry_cell_setting            triclinic
loop_
_symmetry_equiv_pos_as_xyz
'x, y, z'
_cell_length_a     55.313893
_cell_length_b     55.291531
_cell_length_c     52.945457
_cell_angle_alpha  90.029604
_cell_angle_beta   89.940181
_cell_angle_gamma 120.03154
loop_
_atom_site_label
_atom_site_type_symbol
_atom_site_fract_x
_atom_site_fract_y
_atom_site_fract_z
_atom_type_partial_charge
Li0 Li 0.02985 0.36273 0.08299 0.0
Li1 Li 0.05737 0.35139 0.11189 0.0
Li2 Li 0.05021 0.33571 0.06798 0.0
Li3 Li 0.01205 0.31537 0.09908 0.0
C4 C 0.08273 0.40211 0.07597 0.0
N5 N 0.1067 0.4587 0.06678 0.0
C6 C 0.09612 0.42132 0.09545 0.0
C7 C 0.08167 0.41167 0.05178 0.0
C8 C 0.10811 0.44985 0.09041 0.0
C9 C 0.09384 0.44036 0.04753 0.0
C10 C -0.0016 0.34065 0.1335 0.0
C11 C 0.97013 0.31308 0.16849 0.0
N12 N 0.95065 0.32029 0.16256 0.0
C13 C 0.9782 0.34795 0.12782 0.0
C14 C 0.99447 0.32323 0.15407 0.0
C15 C 0.95417 0.33739 0.14272 0.0
C16 C 0.00147 0.38095 0.05234 0.0
N17 N 0.01931 0.38898 0.07223 0.0
C18 C 0.02365 0.43422 0.07216 0.0
C19 C 0.02977 0.41473 0.08277 0.0
C20 C 0.00634 0.42686 0.05074 0.0
C21 C 0.99482 0.39963 0.04117 0.0
H22 H 0.9928 0.36016 0.04472 0.0
H23 H 0.04341 0.42038 0.09898 0.0
C24 C 0.11026 0.36875 0.13159 0.0
N25 N 0.0845 0.36412 0.13798 0.0
C26 C 0.13043 0.37505 0.15013 0.0
C27 C 0.0979 0.37391 0.18128 0.0
C28 C 0.07811 0.36699 0.16215 0.0
C29 C 0.12436 0.37742 0.17552 0.0
H30 H 0.11477 0.36653 0.11212 0.0
H31 H 0.0575 0.36345 0.16663 0.0
C32 C 0.00455 0.3153 0.04085 0.0
N33 N 0.99251 0.2904 0.99375 0.0
C34 C 0.98745 0.28635 0.03861 0.0
C35 C 0.01543 0.33158 0.0191 0.0
C36 C 0.98161 0.27417 0.01464 0.0
C37 C 0.00915 0.31859 0.99547 0.0
C38 C 0.06261 0.30597 0.11173 0.0
C39 C 0.08621 0.30748 0.10051 0.0
C40 C 0.05616 0.29738 0.13686 0.0
C41 C 0.10321 0.30069 0.11479 0.0
C42 C 0.07372 0.29084 0.15052 0.0
N43 N 0.0967 0.29262 0.13929 0.0
C44 C 0.08841 0.34921 0.02791 0.0
C45 C 0.05601 0.30089 0.03256 0.0
C46 C 0.10102 0.34385 0.00752 0.0
N47 N 0.06641 0.32784 0.03994 0.0
C48 C 0.06776 0.29457 0.01208 0.0
C49 C 0.09083 0.31618 0.99943 0.0
H50 H 0.09654 0.37039 0.03446 0.0
H51 H 0.03867 0.28429 0.04271 0.0
C52 C 0.95423 0.2803 0.10124 0.0
N53 N 0.97888 0.28153 0.10634 0.0
C54 C 0.92984 0.25452 0.09887 0.0
C55 C 0.95646 0.23181 0.10837 0.0
C56 C 0.98033 0.25808 0.11076 0.0
C57 C 0.93108 0.22986 0.10126 0.0
H58 H 0.95392 0.29922 0.09678 0.0
H59 H 0.00034 0.25966 0.11407 0.0
O60 O 0.07067 0.37408 0.08056 0.0
O61 O 0.02193 0.35055 0.119 0.0
O62 O 0.01085 0.32766 0.06418 0.0
O63 O 0.04601 0.31305 0.09823 0.0
H64 H 0.09708 0.41429 0.11429 0.0
H65 H 0.07123 0.39707 0.03653 0.0
H66 H 0.11846 0.46496 0.10532 0.0
H67 H 0.09299 0.44805 0.02896 0.0
H68 H 0.96673 0.29944 0.18439 0.0
H69 H 0.98095 0.36145 0.11198 0.0
H70 H 0.00995 0.31746 0.15873 0.0
H71 H 0.93828 0.34274 0.13849 0.0
H72 H 0.03259 0.45484 0.08044 0.0
H73 H 0.98157 0.39301 0.02461 0.0
H74 H 0.15018 0.37704 0.14459 0.0
H75 H 0.09234 0.37617 0.20039 0.0
H76 H 0.97898 0.27335 0.05516 0.0
H77 H 0.02887 0.35398 0.02047 0.0
H78 H 0.96849 0.25179 0.01265 0.0
H79 H 0.01757 0.33092 0.97851 0.0
H80 H 0.0915 0.31412 0.08109 0.0
H81 H 0.03794 0.29608 0.14579 0.0
H82 H 0.12164 0.30193 0.10641 0.0
H83 H 0.06912 0.28438 0.17005 0.0
H84 H 0.11915 0.36113 0.99881 0.0
H85 H 0.05903 0.27297 0.00642 0.0
H86 H 0.91086 0.25397 0.09289 0.0
H87 H 0.95823 0.21326 0.11037 0.0
Li88 Li 0.65236 0.70643 0.11171 0.0
Li89 Li 0.63453 0.66349 0.08258 0.0
Li90 Li 0.68283 0.68985 0.09719 0.0
Li91 Li 0.66676 0.71039 0.06741 0.0
C92 C 0.65887 0.65796 0.13539 0.0
N93 N 0.68234 0.6368 0.16834 0.0
C94 C 0.65512 0.6313 0.13152 0.0
C95 C 0.67436 0.6738 0.15609 0.0
C96 C 0.66721 0.62099 0.14837 0.0
C97 C 0.6861 0.66274 0.17252 0.0
C98 C 0.61729 0.70549 0.0627 0.0
C99 C 0.59531 0.70061 0.02222 0.0
N100 N 0.5975 0.72604 0.0254 0.0
C101 C 0.61921 0.73152 0.06561 0.0
C102 C 0.6052 0.68987 0.04084 0.0
C103 C 0.60914 0.74157 0.04653 0.0
C104 C 0.65124 0.75138 0.13371 0.0
N105 N 0.64347 0.72415 0.13758 0.0
C106 C 0.62581 0.72501 0.17853 0.0
C107 C 0.63086 0.71073 0.15934 0.0
C108 C 0.63365 0.75321 0.17505 0.0
C109 C 0.64635 0.76634 0.15222 0.0
H110 H 0.66179 0.76161 0.1164 0.0
H111 H 0.62506 0.68907 0.16188 0.0
C112 C 0.61301 0.60948 0.06507 0.0
N113 N 0.60537 0.62818 0.07264 0.0
C114 C 0.59372 0.58473 0.05328 0.0
C115 C 0.5588 0.59855 0.05807 0.0
C116 C 0.57874 0.62296 0.07004 0.0
C117 C 0.56643 0.5794 0.04903 0.0
H118 H 0.63448 0.61449 0.06711 0.0
H119 H 0.57339 0.63838 0.07612 0.0
C120 C 0.71498 0.7472 0.10715 0.0
N121 N 0.76622 0.78539 0.12723 0.0
C122 C 0.73857 0.76017 0.09163 0.0
C123 C 0.71738 0.75396 0.13283 0.0
C124 C 0.76431 0.7793 0.10217 0.0
C125 C 0.74348 0.77326 0.14263 0.0
C126 C 0.68281 0.67798 0.04152 0.0
C127 C 0.71139 0.69708 0.03982 0.0
C128 C 0.66887 0.66067 0.021 0.0
C129 C 0.72556 0.69876 0.01745 0.0
C130 C 0.68378 0.663 0.99894 0.0
N131 N 0.71157 0.68184 0.99764 0.0
C132 C 0.71188 0.66163 0.09197 0.0
C133 C 0.73558 0.70033 0.11944 0.0
C134 C 0.73452 0.65718 0.09197 0.0
N135 N 0.71323 0.68364 0.10466 0.0
C136 C 0.75885 0.69673 0.1199 0.0
C137 C 0.75884 0.6755 0.10531 0.0
H138 H 0.69363 0.64822 0.08083 0.0
H139 H 0.73588 0.71696 0.13025 0.0
C140 C 0.69096 0.76221 0.04337 0.0
N141 N 0.67617 0.73431 0.03882 0.0
C142 C 0.69709 0.78118 0.02372 0.0
C143 C 0.67262 0.74236 0.99499 0.0
C144 C 0.66716 0.72412 0.01519 0.0
C145 C 0.68762 0.7713 0.9992 0.0
H146 H 0.69735 0.76974 0.06241 0.0
H147 H 0.65496 0.70185 0.01213 0.0
O148 O 0.64798 0.66878 0.11867 0.0
O149 O 0.62766 0.69559 0.0809 0.0
O150 O 0.68953 0.7287 0.09709 0.0
O151 O 0.66851 0.67603 0.06321 0.0
H152 H 0.64324 0.61883 0.11553 0.0
H153 H 0.67751 0.69451 0.15929 0.0
H154 H 0.66463 0.60045 0.14554 0.0
H155 H 0.69829 0.67482 0.18855 0.0
H156 H 0.5861 0.68882 0.00514 0.0
H157 H 0.62853 0.74392 0.08234 0.0
H158 H 0.60404 0.66994 0.03801 0.0
H159 H 0.61062 0.76174 0.04849 0.0
H160 H 0.61591 0.71417 0.19587 0.0
H161 H 0.65317 0.78818 0.149 0.0
H162 H 0.60052 0.57067 0.04633 0.0
H163 H 0.53788 0.59503 0.0553 0.0
H164 H 0.73701 0.75564 0.07163 0.0
H165 H 0.69938 0.74426 0.14513 0.0
H166 H 0.78276 0.78939 0.0904 0.0
H167 H 0.74567 0.77855 0.16249 0.0
H168 H 0.7225 0.71038 0.05563 0.0
H169 H 0.64673 0.64579 0.02202 0.0
H170 H 0.74768 0.71349 0.01586 0.0
H171 H 0.67325 0.64984 0.98286 0.0
H172 H 0.73355 0.64062 0.08031 0.0
H173 H 0.77699 0.71098 0.13085 0.0
H174 H 0.7082 0.80333 0.02788 0.0
H175 H 0.66492 0.73393 0.97636 0.0
Li176 Li 0.28423 0.93833 0.11381 0.0
Li177 Li 0.32788 0.96482 0.08617 0.0
Li178 Li 0.30085 0.98556 0.1004 0.0
Li179 Li 0.2814 0.94973 0.06952 0.0
C180 C 0.33368 0.99398 0.13843 0.0
N181 N 0.35801 0.03938 0.17062 0.0
C182 C 0.36128 0.01515 0.13458 0.0
C183 C 0.31859 0.9957 0.15886 0.0
C184 C 0.37318 0.03798 0.15101 0.0
C185 C 0.33122 0.01887 0.17486 0.0
C186 C 0.28784 0.90624 0.06417 0.0
C187 C 0.2941 0.89257 0.02249 0.0
N188 N 0.27006 0.86772 0.02531 0.0
C189 C 0.26327 0.88052 0.0667 0.0
C190 C 0.30345 0.91231 0.04192 0.0
C191 C 0.2546 0.86135 0.04683 0.0
C192 C 0.23939 0.89032 0.13381 0.0
N193 N 0.26587 0.91088 0.13896 0.0
C194 C 0.26316 0.89294 0.18052 0.0
C195 C 0.27803 0.91253 0.16166 0.0
C196 C 0.2357 0.87148 0.17574 0.0
C197 C 0.22392 0.87015 0.15195 0.0
H198 H 0.23008 0.89004 0.11579 0.0
H199 H 0.29906 0.92933 0.16525 0.0
C200 C 0.38267 0.99723 0.06961 0.0
N201 N 0.3633 0.9709 0.07658 0.0
C202 C 0.4074 0.00229 0.058 0.0
C203 C 0.39191 0.95303 0.06133 0.0
C204 C 0.36769 0.94903 0.07334 0.0
C205 C 0.41191 0.97988 0.0529 0.0
H206 H 0.37838 0.01414 0.07217 0.0
H207 H 0.35168 0.92824 0.07878 0.0
C208 C 0.24117 0.95549 0.11039 0.0
N209 N 0.1982 0.95907 0.13346 0.0
C210 C 0.22232 0.95945 0.09588 0.0
C211 C 0.23793 0.95302 0.13663 0.0
C212 C 0.20082 0.96133 0.10791 0.0
C213 C 0.21613 0.95496 0.14793 0.0
C214 C 0.3121 0.00313 0.04943 0.0
C215 C 0.28779 0.00493 0.04998 0.0
C216 C 0.33315 0.01914 0.03206 0.0
C217 C 0.285 0.02287 0.03321 0.0
C218 C 0.32956 0.03679 0.01555 0.0
N219 N 0.30577 0.0383 0.01648 0.0
C220 C 0.3301 0.04328 0.09879 0.0
C221 C 0.28549 0.02605 0.11738 0.0
C222 C 0.33334 0.06984 0.09648 0.0
N223 N 0.3059 0.02175 0.10793 0.0
C224 C 0.28784 0.05233 0.11544 0.0
C225 C 0.31142 0.07425 0.10371 0.0
H226 H 0.346 0.03931 0.09134 0.0
H227 H 0.26663 0.00895 0.12498 0.0
C228 C 0.23121 0.91906 0.04326 0.0
N229 N 0.25913 0.93601 0.04009 0.0
C230 C 0.21402 0.90684 0.02238 0.0
C231 C 0.25469 0.92966 0.99536 0.0
C232 C 0.27106 0.94184 0.01676 0.0
C233 C 0.22581 0.91181 0.99811 0.0
H234 H 0.22243 0.91448 0.06208 0.0
H235 H 0.2934 0.95524 0.01487 0.0
O236 O 0.32148 0.97179 0.1222 0.0
O237 O 0.29627 0.92563 0.08313 0.0
O238 O 0.26215 0.9533 0.09884 0.0
O239 O 0.31557 0.98611 0.06598 0.0
H240 H 0.37332 0.01406 0.11899 0.0
H241 H 0.29734 0.97938 0.16228 0.0
H242 H 0.39445 0.05461 0.14815 0.0
H243 H 0.31972 0.02055 0.19065 0.0
H244 H 0.30586 0.8971 0.00509 0.0
H245 H 0.25094 0.87543 0.08377 0.0
H246 H 0.32224 0.93231 0.03942 0.0
H247 H 0.23556 0.84141 0.0485 0.0
H248 H 0.27295 0.89461 0.19864 0.0
H249 H 0.20264 0.85426 0.14772 0.0
H250 H 0.42242 0.02345 0.05246 0.0
H251 H 0.39413 0.93499 0.05759 0.0
H252 H 0.2242 0.96104 0.07553 0.0
H253 H 0.25208 0.94975 0.14819 0.0
H254 H 0.18617 0.9645 0.09691 0.0
H255 H 0.21347 0.9532 0.16822 0.0
H256 H 0.27141 0.99283 0.06336 0.0
H257 H 0.35211 0.01798 0.0314 0.0
H258 H 0.26635 0.02457 0.03354 0.0
H259 H 0.3457 0.04933 0.00203 0.0
H260 H 0.35179 0.08602 0.08713 0.0
H261 H 0.27067 0.05501 0.12167 0.0
H262 H 0.19189 0.89278 0.02527 0.0
H263 H 0.26448 0.93387 0.97692 0.0
Li264 Li 0.65085 0.94297 0.42155 0.0
Li265 Li 0.6749 0.98304 0.39486 0.0
Li266 Li 0.6265 0.9661 0.40456 0.0
Li267 Li 0.64218 0.9393 0.37591 0.0
C268 C 0.67763 0.99498 0.44638 0.0
N269 N 0.71878 0.02503 0.48159 0.0
C270 C 0.70085 0.99139 0.4483 0.0
C271 C 0.67531 0.0138 0.46241 0.0
C272 C 0.72144 0.0068 0.46619 0.0
C273 C 0.69633 0.02878 0.4801 0.0
C274 C 0.6981 0.94587 0.38506 0.0
C275 C 0.72621 0.94551 0.35036 0.0
N276 N 0.74216 0.94071 0.36688 0.0
C277 C 0.71465 0.94074 0.40167 0.0
C278 C 0.70381 0.94813 0.35918 0.0
C279 C 0.73688 0.93829 0.39212 0.0
C280 C 0.65265 0.89816 0.44215 0.0
N281 N 0.65255 0.9218 0.44888 0.0
C282 C 0.6517 0.91094 0.49266 0.0
C283 C 0.65206 0.92852 0.47352 0.0
C284 C 0.65134 0.88614 0.48619 0.0
C285 C 0.65198 0.8799 0.46058 0.0
H286 H 0.65281 0.89333 0.42237 0.0
H287 H 0.65138 0.94717 0.47832 0.0
C288 C 0.70736 0.04013 0.39989 0.0
N289 N 0.70925 0.01756 0.39263 0.0
C290 C 0.73134 0.06526 0.40561 0.0
C291 C 0.75901 0.04403 0.39485 0.0
C292 C 0.73443 0.01927 0.3892 0.0
C293 C 0.75752 0.06706 0.40412 0.0
H294 H 0.68707 0.03795 0.4032 0.0
H295 H 0.73554 0.00108 0.38376 0.0
C296 C 0.59723 0.90556 0.42115 0.0
N297 N 0.56548 0.86583 0.45693 0.0
C298 C 0.58664 0.87722 0.41605 0.0
C299 C 0.59153 0.91369 0.44439 0.0
C300 C 0.57066 0.85745 0.43441 0.0
C301 C 0.57547 0.89329 0.46223 0.0
C302 C 0.65771 0.00046 0.35649 0.0
C303 C 0.65079 0.02134 0.35989 0.0
C304 C 0.67838 0.00447 0.33906 0.0
C305 C 0.66511 0.04616 0.34616 0.0
C306 C 0.69224 0.02959 0.3257 0.0
N307 N 0.6854 0.04976 0.32951 0.0
C308 C 0.60949 0.00218 0.42255 0.0
C309 C 0.57199 0.9565 0.41441 0.0
C310 C 0.59154 0.00938 0.43455 0.0
N311 N 0.59957 0.97596 0.41336 0.0
C312 C 0.55329 0.96271 0.42649 0.0
C313 C 0.5632 0.98921 0.43747 0.0
H314 H 0.63161 0.0171 0.42159 0.0
H315 H 0.56481 0.93567 0.40726 0.0
C316 C 0.63225 0.88957 0.35563 0.0
N317 N 0.63439 0.91425 0.34893 0.0
C318 C 0.62924 0.87027 0.33724 0.0
C319 C 0.63082 0.90223 0.30523 0.0
C320 C 0.63349 0.92087 0.32437 0.0
C321 C 0.62904 0.87665 0.31158 0.0
H322 H 0.63366 0.88526 0.37532 0.0
H323 H 0.63578 0.94095 0.31964 0.0
O324 O 0.65769 0.98089 0.42837 0.0
O325 O 0.67615 0.94812 0.39415 0.0
O326 O 0.61371 0.92535 0.40381 0.0
O327 O 0.64419 0.97619 0.37006 0.0
H328 H 0.70309 0.9771 0.43595 0.0
H329 H 0.65752 0.0169 0.46114 0.0
H330 H 0.73959 0.00433 0.46777 0.0
H331 H 0.69483 0.04346 0.4926 0.0
H332 H 0.73088 0.94726 0.33037 0.0
H333 H 0.7104 0.93869 0.42175 0.0
H334 H 0.69112 0.95181 0.34601 0.0
H335 H 0.74991 0.93441 0.40478 0.0
H336 H 0.65098 0.91628 0.51223 0.0
H337 H 0.65203 0.86111 0.45486 0.0
H338 H 0.72916 0.0823 0.41311 0.0
H339 H 0.77885 0.04466 0.39332 0.0
H340 H 0.59072 0.87053 0.39815 0.0
H341 H 0.59989 0.93557 0.44878 0.0
H342 H 0.56241 0.83545 0.43075 0.0
H343 H 0.57108 0.8993 0.48036 0.0
H344 H 0.63462 0.01845 0.37307 0.0
H345 H 0.68383 0.98846 0.33601 0.0
H346 H 0.66009 0.06257 0.34873 0.0
H347 H 0.70844 0.03305 0.3123 0.0
H348 H 0.59999 0.0302 0.44227 0.0
H349 H 0.5317 0.94642 0.4285 0.0
H350 H 0.62748 0.8507 0.34312 0.0
H351 H 0.63117 0.90824 0.28572 0.0
Li352 Li 0.04241 0.69735 0.41943 0.0
Li353 Li 0.0023 0.67341 0.39265 0.0
Li354 Li 0.02548 0.64864 0.40554 0.0
Li355 Li 0.0478 0.68982 0.37446 0.0
C356 C 0.98736 0.6641 0.44233 0.0
N357 N 0.94553 0.66527 0.46995 0.0
C358 C 0.98753 0.68924 0.44579 0.0
C359 C 0.96602 0.63958 0.4531 0.0
C360 C 0.96618 0.6894 0.45977 0.0
C361 C 0.94504 0.6406 0.46697 0.0
C362 C 0.032 0.73404 0.38006 0.0
C363 C 0.02925 0.75953 0.34427 0.0
N364 N 0.0297 0.77906 0.3602 0.0
C365 C 0.03263 0.75447 0.39606 0.0
C366 C 0.03044 0.73665 0.35394 0.0
C367 C 0.03136 0.77702 0.38566 0.0
C368 C 0.08183 0.74903 0.43627 0.0
N369 N 0.06093 0.72427 0.44497 0.0
C370 C 0.06984 0.74107 0.48747 0.0
C371 C 0.05476 0.71973 0.47 0.0
C372 C 0.09129 0.7671 0.47889 0.0
C373 C 0.09735 0.77079 0.45293 0.0
H374 H 0.08642 0.75178 0.41627 0.0
H375 H 0.03821 0.69962 0.47638 0.0
C376 C 0.94439 0.64033 0.39322 0.0
N377 N 0.96512 0.66704 0.38911 0.0
C378 C 0.91753 0.63469 0.39922 0.0
C379 C 0.9333 0.68389 0.39506 0.0
C380 C 0.95982 0.68854 0.38882 0.0
C381 C 0.91212 0.65684 0.40163 0.0
H382 H 0.94928 0.62373 0.39423 0.0
H383 H 0.97659 0.70965 0.3861 0.0
C384 C 0.0851 0.68892 0.42216 0.0
N385 N 0.12586 0.70589 0.45889 0.0
C386 C 0.11276 0.70874 0.41648 0.0
C387 C 0.0782 0.67759 0.44647 0.0
C388 C 0.13305 0.71708 0.43533 0.0
C389 C 0.0991 0.68647 0.46478 0.0
C390 C 0.99148 0.63764 0.35479 0.0
C391 C 0.97503 0.60858 0.35635 0.0
C392 C 0.98477 0.65221 0.33723 0.0
C393 C 0.95175 0.59462 0.34065 0.0
C394 C 0.96131 0.63751 0.32188 0.0
N395 N 0.94541 0.60926 0.3239 0.0
C396 C 0.99423 0.59397 0.42225 0.0
C397 C 0.04298 0.61085 0.42173 0.0
C398 C 0.98939 0.56996 0.4351 0.0
N399 N 0.0207 0.61406 0.41647 0.0
C400 C 0.03913 0.5872 0.43474 0.0
C401 C 0.0121 0.56676 0.44219 0.0
H402 H 0.97699 0.59724 0.41787 0.0
H403 H 0.06382 0.62721 0.41689 0.0
C404 C 0.09516 0.73274 0.35391 0.0
N405 N 0.07248 0.70807 0.3474 0.0
C406 C 0.11412 0.7497 0.33559 0.0
C407 C 0.08588 0.71566 0.30393 0.0
C408 C 0.06753 0.69912 0.32305 0.0
C409 C 0.10943 0.74154 0.3101 0.0
H410 H 0.09813 0.73951 0.37338 0.0
H411 H 0.04898 0.67958 0.31841 0.0
O412 O 0.00744 0.66335 0.42776 0.0
O413 O 0.03341 0.71193 0.38997 0.0
O414 O 0.0647 0.68106 0.40424 0.0
O415 O 0.01425 0.65164 0.37013 0.0
H416 H 0.0037 0.70834 0.43739 0.0
H417 H 0.96551 0.61992 0.45065 0.0
H418 H 0.96593 0.70868 0.46239 0.0
H419 H 0.92831 0.62175 0.47527 0.0
H420 H 0.02802 0.76179 0.32409 0.0
H421 H 0.03399 0.75291 0.41632 0.0
H422 H 0.03034 0.72133 0.34122 0.0
H423 H 0.03173 0.79292 0.39783 0.0
H424 H 0.06457 0.73739 0.50733 0.0
H425 H 0.11416 0.79023 0.44554 0.0
H426 H 0.90175 0.61345 0.40375 0.0
H427 H 0.93024 0.70167 0.39693 0.0
H428 H 0.11853 0.71758 0.39775 0.0
H429 H 0.05683 0.66244 0.45125 0.0
H430 H 0.15453 0.73246 0.43122 0.0
H431 H 0.09401 0.67803 0.48371 0.0
H432 H 0.98016 0.59693 0.36957 0.0
H433 H 0.99737 0.67464 0.33564 0.0
H434 H 0.93874 0.57215 0.34176 0.0
H435 H 0.95574 0.64856 0.30835 0.0
H436 H 0.96825 0.55485 0.44065 0.0
H437 H 0.05714 0.58533 0.43957 0.0
H438 H 0.13215 0.76915 0.34138 0.0
H439 H 0.08119 0.70868 0.28453 0.0
Li440 Li 0.31793 0.32995 0.38703 0.0
Li441 Li 0.29481 0.34547 0.41514 0.0
Li442 Li 0.30189 0.36029 0.3707 0.0
Li443 Li 0.34285 0.37745 0.40198 0.0
C444 C 0.25845 0.29949 0.37378 0.0
N445 N 0.21595 0.25219 0.3512 0.0
C446 C 0.2379 0.27812 0.38858 0.0
C447 C 0.25714 0.29691 0.34748 0.0
C448 C 0.21667 0.25434 0.37681 0.0
C449 C 0.23555 0.27282 0.33643 0.0
C450 C 0.32474 0.32271 0.43851 0.0
C451 C 0.34229 0.30482 0.47084 0.0
N452 N 0.31812 0.27983 0.46982 0.0
C453 C 0.30004 0.29691 0.43789 0.0
C454 C 0.34604 0.32675 0.45515 0.0
C455 C 0.2971 0.27547 0.45381 0.0
C456 C 0.34874 0.30347 0.39182 0.0
N457 N 0.32408 0.29913 0.38225 0.0
C458 C 0.3055 0.24977 0.38277 0.0
C459 C 0.30315 0.273 0.3764 0.0
C460 C 0.32963 0.25363 0.39512 0.0
C461 C 0.35206 0.28088 0.39833 0.0
H462 H 0.36475 0.32437 0.39696 0.0
H463 H 0.28372 0.26981 0.36888 0.0
C464 C 0.24274 0.33009 0.43381 0.0
N465 N 0.26853 0.3361 0.44152 0.0
C466 C 0.22173 0.32373 0.4514 0.0
C467 C 0.25416 0.32978 0.48475 0.0
C468 C 0.27471 0.3362 0.46639 0.0
C469 C 0.2272 0.32332 0.47728 0.0
H470 H 0.23868 0.33067 0.41391 0.0
H471 H 0.29559 0.3415 0.47198 0.0
C472 C 0.35351 0.35539 0.35031 0.0
N473 N 0.38037 0.33593 0.3194 0.0
C474 C 0.38106 0.3624 0.35534 0.0
C475 C 0.33981 0.33893 0.32929 0.0
C476 C 0.39424 0.35224 0.33956 0.0
C477 C 0.35368 0.32917 0.31396 0.0
C478 C 0.29964 0.39488 0.41835 0.0
C479 C 0.27634 0.39702 0.41172 0.0
C480 C 0.31092 0.40258 0.44259 0.0
C481 C 0.26455 0.40668 0.42958 0.0
C482 C 0.29852 0.41214 0.45992 0.0
N483 N 0.27577 0.41395 0.45311 0.0
C484 C 0.25609 0.35717 0.34753 0.0
C485 C 0.29763 0.3858 0.3246 0.0
C486 C 0.24025 0.36163 0.32974 0.0
N487 N 0.28413 0.36899 0.3446 0.0
C488 C 0.28257 0.39122 0.30641 0.0
C489 C 0.25339 0.37901 0.30884 0.0
H490 H 0.24597 0.34407 0.36375 0.0
H491 H 0.32003 0.39508 0.32287 0.0
C492 C 0.39593 0.3987 0.42146 0.0
N493 N 0.37723 0.40638 0.4141 0.0
C494 C 0.41983 0.41733 0.43473 0.0
C495 C 0.40502 0.45168 0.43215 0.0
C496 C 0.38147 0.4324 0.41869 0.0
C497 C 0.42426 0.44398 0.44076 0.0
H498 H 0.3916 0.37762 0.418 0.0
H499 H 0.36596 0.43774 0.4129 0.0
O500 O 0.2793 0.32301 0.38501 0.0
O501 O 0.32859 0.34363 0.42228 0.0
O502 O 0.34012 0.36477 0.36578 0.0
O503 O 0.31094 0.38462 0.40142 0.0
H504 H 0.23828 0.27985 0.40894 0.0
H505 H 0.2725 0.31338 0.3357 0.0
H506 H 0.20072 0.23762 0.38805 0.0
H507 H 0.23434 0.27056 0.3161 0.0
H508 H 0.35864 0.30762 0.48375 0.0
H509 H 0.28349 0.29336 0.42499 0.0
H510 H 0.36535 0.34657 0.45583 0.0
H511 H 0.27817 0.25533 0.45336 0.0
H512 H 0.28787 0.22902 0.37976 0.0
H513 H 0.37087 0.28477 0.40809 0.0
H514 H 0.20154 0.31968 0.44476 0.0
H515 H 0.25926 0.32971 0.50448 0.0
H516 H 0.39211 0.37542 0.37132 0.0
H517 H 0.31872 0.33378 0.32483 0.0
H518 H 0.41548 0.35732 0.34336 0.0
H519 H 0.34325 0.31626 0.29772 0.0
H520 H 0.26732 0.39108 0.39305 0.0
H521 H 0.32876 0.40072 0.44811 0.0
H522 H 0.24642 0.40832 0.42476 0.0
H523 H 0.3069 0.41797 0.47881 0.0
H524 H 0.21784 0.35115 0.33226 0.0
H525 H 0.29371 0.40501 0.29082 0.0
H526 H 0.43389 0.41041 0.44134 0.0
H527 H 0.40781 0.4721 0.43633 0.0
Li528 Li 0.94978 0.66266 0.93721 0.0
Li529 Li 0.96437 0.63266 0.91605 0.0
Li530 Li 0.98886 0.68298 0.90762 0.0
Li531 Li 0.94133 0.65163 0.89218 0.0
C532 C 0.99237 0.66813 0.96455 0.0
N533 N 0.00377 0.67663 0.0156 0.0
C534 C 0.98711 0.64568 0.98023 0.0
C535 C 0.00362 0.69492 0.97478 0.0
C536 C 0.99298 0.6504 0.00601 0.0
C537 C 0.00918 0.69878 0.00065 0.0
C538 C 0.89889 0.60971 0.91551 0.0
C539 C 0.86212 0.57302 0.89096 0.0
N540 N 0.84331 0.57871 0.90202 0.0
C541 C 0.8792 0.61509 0.92675 0.0
C542 C 0.89031 0.5884 0.89759 0.0
C543 C 0.85119 0.5992 0.91964 0.0
C544 C 0.93075 0.68972 0.97049 0.0
N545 N 0.93463 0.6675 0.96762 0.0
C546 C 0.91297 0.6488 0.00744 0.0
C547 C 0.92616 0.64725 0.98552 0.0
C548 C 0.90808 0.67121 0.01074 0.0
C549 C 0.91752 0.69205 0.99204 0.0
H550 H 0.93702 0.70513 0.95568 0.0
H551 H 0.92904 0.62951 0.98246 0.0
C552 C 0.99651 0.6073 0.92544 0.0
N553 N 0.96995 0.60241 0.92342 0.0
C554 C 0.0016 0.5873 0.9363 0.0
C555 C 0.95186 0.55748 0.94234 0.0
C556 C 0.94772 0.57794 0.93112 0.0
C557 C 0.97916 0.56235 0.9457 0.0
H558 H 0.01383 0.62735 0.91992 0.0
H559 H 0.92692 0.57501 0.93001 0.0
C560 C 0.96457 0.71526 0.9027 0.0
N561 N 0.98349 0.77011 0.8891 0.0
C562 C 0.95851 0.72153 0.87878 0.0
C563 C 0.98013 0.73687 0.91975 0.0
C564 C 0.96826 0.7494 0.87227 0.0
C565 C 0.98957 0.76447 0.91249 0.0
C566 C 0.98814 0.63816 0.87212 0.0
C567 C 0.01719 0.65084 0.87056 0.0
C568 C 0.9714 0.61084 0.8634 0.0
C569 C 0.02906 0.63578 0.86054 0.0
C570 C 0.98407 0.59647 0.85353 0.0
N571 N 0.01239 0.60912 0.85233 0.0
C572 C 0.04511 0.71658 0.91763 0.0
C573 C 0.02977 0.73533 0.88527 0.0
C574 C 0.07127 0.74062 0.91789 0.0
N575 N 0.02471 0.71478 0.90216 0.0
C576 C 0.05556 0.7601 0.88524 0.0
C577 C 0.07642 0.76312 0.90216 0.0
H578 H 0.04076 0.69968 0.93047 0.0
H579 H 0.01354 0.73302 0.87252 0.0
C580 C 0.8949 0.65139 0.87124 0.0
N581 N 0.91561 0.64571 0.86605 0.0
C582 C 0.87563 0.64804 0.85266 0.0
C583 C 0.89969 0.63354 0.82356 0.0
C584 C 0.91833 0.63684 0.84284 0.0
C585 C 0.87806 0.63924 0.82841 0.0
H586 H 0.89362 0.65891 0.88978 0.0
H587 H 0.93514 0.63267 0.83924 0.0
O588 O 0.98642 0.66389 0.93933 0.0
O589 O 0.92648 0.62536 0.92186 0.0
O590 O 0.95519 0.6881 0.90943 0.0
O591 O 0.97613 0.65244 0.88213 0.0
H592 H 0.97832 0.62478 0.97266 0.0
H593 H 0.00792 0.71252 0.96288 0.0
H594 H 0.98888 0.6332 0.01839 0.0
H595 H 0.01778 0.71939 0.00885 0.0
H596 H 0.85521 0.5566 0.87699 0.0
H597 H 0.88549 0.63155 0.94061 0.0
H598 H 0.90531 0.58397 0.88875 0.0
H599 H 0.83573 0.60324 0.92807 0.0
H600 H 0.9062 0.63235 0.02138 0.0
H601 H 0.91363 0.70935 0.99345 0.0
H602 H 0.02295 0.59183 0.93816 0.0
H603 H 0.93394 0.53884 0.94967 0.0
H604 H 0.9466 0.7051 0.8653 0.0
H605 H 0.98509 0.73241 0.9383 0.0
H606 H 0.9638 0.75456 0.8538 0.0
H607 H 0.00178 0.78141 0.92544 0.0
H608 H 0.03043 0.67201 0.87715 0.0
H609 H 0.94889 0.60077 0.86444 0.0
H610 H 0.05152 0.64526 0.85932 0.0
H611 H 0.97139 0.57525 0.84686 0.0
H612 H 0.08674 0.74219 0.93135 0.0
H613 H 0.0589 0.77696 0.87268 0.0
H614 H 0.85952 0.65309 0.85701 0.0
H615 H 0.90217 0.62664 0.80508 0.0
Li616 Li 0.32336 0.3078 0.90196 0.0
Li617 Li 0.37241 0.33276 0.9089 0.0
Li618 Li 0.35062 0.28999 0.88121 0.0
Li619 Li 0.34462 0.28769 0.92812 0.0
C620 C 0.34148 0.33464 0.85678 0.0
N621 N 0.31902 0.35073 0.81813 0.0
C622 C 0.34104 0.35964 0.85855 0.0
C623 C 0.33063 0.31788 0.83531 0.0
C624 C 0.32955 0.36739 0.83882 0.0
C625 C 0.31933 0.32637 0.81599 0.0
C626 C 0.35153 0.34496 0.9487 0.0
C627 C 0.38204 0.37698 0.98049 0.0
N628 N 0.37058 0.39343 0.9766 0.0
C629 C 0.34011 0.36225 0.94499 0.0
C630 C 0.37267 0.35239 0.96661 0.0
C631 C 0.34998 0.38662 0.95932 0.0
C632 C 0.27756 0.30311 0.92495 0.0
N633 N 0.28918 0.30872 0.90153 0.0
C634 C 0.24928 0.3091 0.88449 0.0
C635 C 0.27557 0.31156 0.88132 0.0
C636 C 0.23683 0.30283 0.90848 0.0
C637 C 0.25134 0.29999 0.92885 0.0
H638 H 0.28844 0.30028 0.94059 0.0
H639 H 0.28448 0.31483 0.86268 0.0
C640 C 0.42808 0.36956 0.923 0.0
N641 N 0.40438 0.36846 0.91454 0.0
C642 C 0.44916 0.39398 0.93396 0.0
C643 C 0.42207 0.41635 0.92528 0.0
C644 C 0.40164 0.39155 0.91427 0.0
C645 C 0.44566 0.41738 0.93633 0.0
H646 H 0.42994 0.35104 0.92257 0.0
H647 H 0.38256 0.39009 0.90748 0.0
C648 C 0.28829 0.25347 0.89935 0.0
N649 N 0.23074 0.22454 0.89574 0.0
C650 C 0.27194 0.24127 0.92082 0.0
C651 C 0.27539 0.2508 0.87601 0.0
C652 C 0.24287 0.22676 0.91861 0.0
C653 C 0.24626 0.23612 0.87458 0.0
C654 C 0.39018 0.28644 0.9205 0.0
C655 C 0.38729 0.26196 0.9099 0.0
C656 C 0.40278 0.29527 0.94417 0.0
C657 C 0.39697 0.24668 0.92321 0.0
C658 C 0.41212 0.27938 0.95691 0.0
N659 N 0.40905 0.25561 0.94626 0.0
C660 C 0.3796 0.28137 0.84104 0.0
C661 C 0.33436 0.24371 0.85032 0.0
C662 C 0.38412 0.26481 0.82385 0.0
N663 N 0.35515 0.27042 0.85403 0.0
C664 C 0.33789 0.22655 0.83328 0.0
C665 C 0.36327 0.23679 0.82022 0.0
H666 H 0.39597 0.30255 0.84482 0.0
H667 H 0.31542 0.23533 0.86131 0.0
C668 C 0.34314 0.27375 0.98029 0.0
N669 N 0.33891 0.26408 0.95616 0.0
C670 C 0.33897 0.25575 0.00042 0.0
C671 C 0.32536 0.21809 0.97044 0.0
C672 C 0.33014 0.23687 0.95092 0.0
C673 C 0.32984 0.22752 0.99555 0.0
H674 H 0.34968 0.29535 0.98396 0.0
H675 H 0.32688 0.2298 0.93151 0.0
O676 O 0.35323 0.32701 0.8756 0.0
O677 O 0.3423 0.32111 0.93468 0.0
O678 O 0.31677 0.26854 0.90128 0.0
O679 O 0.38011 0.30128 0.90808 0.0
H680 H 0.34926 0.37281 0.87503 0.0
H681 H 0.33092 0.29854 0.83356 0.0
H682 H 0.32896 0.38662 0.83997 0.0
H683 H 0.31081 0.31358 0.79929 0.0
H684 H 0.39857 0.38309 0.99421 0.0
H685 H 0.32409 0.35719 0.93095 0.0
H686 H 0.38225 0.33968 0.96935 0.0
H687 H 0.34139 0.40022 0.95657 0.0
H688 H 0.23848 0.31124 0.86835 0.0
H689 H 0.24245 0.29538 0.94768 0.0
H690 H 0.46738 0.3941 0.94155 0.0
H691 H 0.41833 0.43373 0.92674 0.0
H692 H 0.28156 0.24337 0.93908 0.0
H693 H 0.28773 0.26037 0.85925 0.0
H694 H 0.22994 0.2174 0.9351 0.0
H695 H 0.23599 0.23409 0.85669 0.0
H696 H 0.37744 0.25464 0.89172 0.0
H697 H 0.40484 0.31392 0.95285 0.0
H698 H 0.39476 0.22765 0.91527 0.0
H699 H 0.4217 0.28586 0.97532 0.0
H700 H 0.40409 0.27348 0.81434 0.0
H701 H 0.32104 0.20528 0.83075 0.0
H702 H 0.34242 0.26367 0.01958 0.0
H703 H 0.31859 0.19652 0.96593 0.0
Li704 Li 0.70145 0.05302 0.88553 0.0
Li705 Li 0.71169 0.05097 0.92896 0.0
Li706 Li 0.69321 0.00957 0.90286 0.0
Li707 Li 0.66241 0.02787 0.91709 0.0
C708 C 0.75321 0.0623 0.88708 0.0
N709 N 0.80056 0.09985 0.8609 0.0
C710 C 0.7688 0.09003 0.89512 0.0
C711 C 0.76186 0.05361 0.86582 0.0
C712 C 0.79262 0.10871 0.88161 0.0
C713 C 0.78583 0.07292 0.85282 0.0
C714 C 0.69512 0.09032 0.93002 0.0
C715 C 0.6797 0.11 0.96269 0.0
N716 N 0.70394 0.13475 0.96035 0.0
C717 C 0.71984 0.11603 0.92788 0.0
C718 C 0.67485 0.08731 0.94754 0.0
C719 C 0.72393 0.13819 0.94342 0.0
C720 C 0.71805 0.10282 0.85831 0.0
N721 N 0.71342 0.07633 0.85638 0.0
C722 C 0.73424 0.08593 0.81539 0.0
C723 C 0.7202 0.06733 0.83507 0.0
C724 C 0.74108 0.11399 0.81761 0.0
C725 C 0.73198 0.12213 0.83907 0.0
H726 H 0.71181 0.10926 0.87515 0.0
H727 H 0.71621 0.04614 0.83397 0.0
C728 C 0.76003 0.06544 0.9567 0.0
N729 N 0.7373 0.06879 0.95642 0.0
C730 C 0.7798 0.07723 0.97593 0.0
C731 C 0.75219 0.09525 0.99468 0.0
C732 C 0.73271 0.08265 0.97534 0.0
C733 C 0.77635 0.0929 0.99507 0.0
H734 H 0.76272 0.05342 0.94199 0.0
H735 H 0.71388 0.08383 0.97568 0.0
C736 C 0.65236 0.99104 0.86995 0.0
N737 N 0.62421 0.93969 0.84625 0.0
C738 C 0.62487 0.97184 0.8768 0.0
C739 C 0.66546 0.98422 0.85092 0.0
C740 C 0.61101 0.94597 0.86461 0.0
C741 C 0.65091 0.95812 0.83922 0.0
C742 C 0.68874 0.00923 0.96094 0.0
C743 C 0.70605 0.99781 0.96428 0.0
C744 C 0.67998 0.01817 0.98195 0.0
C745 C 0.71438 0.99557 0.98866 0.0
C746 C 0.68877 0.01558 0.00601 0.0
N747 N 0.70566 0.00444 0.00884 0.0
C748 C 0.71631 0.97492 0.89159 0.0
C749 C 0.6699 0.95206 0.9072 0.0
C750 C 0.71716 0.95014 0.89309 0.0
N751 N 0.69305 0.97544 0.89896 0.0
C752 C 0.6698 0.92687 0.90898 0.0
C753 C 0.69394 0.92586 0.90253 0.0
H754 H 0.73468 0.99398 0.88582 0.0
H755 H 0.65202 0.95334 0.91365 0.0
C756 C 0.61163 0.02931 0.91838 0.0
N757 N 0.626 0.01748 0.92809 0.0
C758 C 0.58596 0.02316 0.92886 0.0
C759 C 0.59021 0.99223 0.95849 0.0
C760 C 0.61552 -0.0013 0.94727 0.0
C761 C 0.5752 0.00483 0.9496 0.0
H762 H 0.62049 0.04408 0.90299 0.0
H763 H 0.62722 0.98931 0.95435 0.0
O764 O 0.72938 0.04388 0.89971 0.0
O765 O 0.6905 0.06843 0.91471 0.0
O766 O 0.66641 0.0163 0.88193 0.0
O767 O 0.68102 0.01235 0.93717 0.0
H768 H 0.76253 0.09711 0.91156 0.0
H769 H 0.74987 0.03237 0.85903 0.0
H770 H 0.80477 0.13027 0.88757 0.0
H771 H 0.7926 0.06654 0.8362 0.0
H772 H 0.66423 0.10789 0.97638 0.0
H773 H 0.73576 0.1189 0.91443 0.0
H774 H 0.65571 0.06763 0.9497 0.0
H775 H 0.74299 0.15815 0.942 0.0
H776 H 0.741 0.07874 0.79929 0.0
H777 H 0.73624 0.14338 0.84129 0.0
H778 H 0.79756 0.07402 0.97574 0.0
H779 H 0.74848 0.10712 0.00887 0.0
H780 H 0.6144 0.97677 0.89146 0.0
H781 H 0.68681 -0.0013 0.84558 0.0
H782 H 0.58977 0.93086 0.86978 0.0
H783 H 0.66087 0.95247 0.82461 0.0
H784 H 0.71327 0.99106 0.94822 0.0
H785 H 0.66693 0.02748 0.97965 0.0
H786 H 0.72788 0.98689 0.99152 0.0
H787 H 0.68231 0.02258 0.02242 0.0
H788 H 0.73616 0.95026 0.88789 0.0
H789 H 0.65165 0.90888 0.91689 0.0
H790 H 0.57492 0.03297 0.92101 0.0
H791 H 0.58312 0.97829 0.97458 0.0
Li792 Li 0.34414 0.06003 0.57504 0.0
Li793 Li 0.34927 0.05313 0.62082 0.0
Li794 Li 0.36793 0.0351 0.58673 0.0
Li795 Li 0.31838 0.01363 0.59413 0.0
C796 C 0.39295 0.10149 0.58678 0.0
N797 N 0.41862 0.15582 0.56915 0.0
C798 C 0.39258 0.12245 0.60126 0.0
C799 C 0.40636 0.10818 0.5633 0.0
C800 C 0.40572 0.14979 0.59204 0.0
C801 C 0.41919 0.13575 0.55472 0.0
C802 C 0.28815 0.03915 0.60416 0.0
C803 C 0.24341 0.0117 0.62453 0.0
N804 N 0.23156 0.02046 0.60696 0.0
C805 C 0.27549 0.0479 0.58633 0.0
C806 C 0.27196 0.02094 0.62346 0.0
C807 C 0.24688 0.03821 0.58807 0.0
C808 C 0.343 0.0792 0.52594 0.0
N809 N 0.3423 0.08453 0.5509 0.0
C810 C 0.33827 0.12456 0.54124 0.0
C811 C 0.33994 0.10665 0.55883 0.0
C812 C 0.33923 0.11967 0.51533 0.0
C813 C 0.34175 0.09673 0.50772 0.0
H814 H 0.34423 0.06116 0.52011 0.0
H815 H 0.33908 0.11019 0.57882 0.0
C816 C 0.38266 0.08672 0.66115 0.0
N817 N 0.35602 0.07109 0.65259 0.0
C818 C 0.38826 0.10369 0.68243 0.0
C819 C 0.33875 0.08673 0.68642 0.0
C820 C 0.33419 0.07059 0.66484 0.0
C821 C 0.36611 0.10401 0.6951 0.0
H822 H 0.39964 0.08702 0.65073 0.0
H823 H 0.31334 0.05845 0.65735 0.0
C824 C 0.34409 0.01114 0.543 0.0
N825 N 0.35758 0.98402 0.50653 0.0
C826 C 0.32839 0.98207 0.54068 0.0
C827 C 0.36658 0.0264 0.52664 0.0
C828 C 0.33554 0.96876 0.52212 0.0
C829 C 0.37311 0.0123 0.50839 0.0
C830 C 0.33698 0.99521 0.63574 0.0
C831 C 0.34235 0.97312 0.63364 0.0
C832 C 0.3215 0.99607 0.65624 0.0
C833 C 0.33164 0.95196 0.65182 0.0
C834 C 0.31112 0.97452 0.67402 0.0
N835 N 0.31634 0.95307 0.67145 0.0
C836 C 0.42272 0.04983 0.57176 0.0
C837 C 0.38998 0.00127 0.57167 0.0
C838 C 0.44229 0.04526 0.55921 0.0
N839 N 0.39685 0.02804 0.57685 0.0
C840 C 0.4088 0.99576 0.55901 0.0
C841 C 0.435 0.01802 0.5519 0.0
H842 H 0.4277 0.07087 0.57629 0.0
H843 H 0.36922 0.98437 0.57583 0.0
C844 C 0.26808 0.98289 0.57157 0.0
N845 N 0.28349 0.98 0.58999 0.0
C846 C 0.24339 0.96005 0.56332 0.0
C847 C 0.25089 0.93097 0.59262 0.0
C848 C 0.27519 0.95478 0.60095 0.0
C849 C 0.235 0.93336 0.57304 0.0
H850 H 0.27561 0.0029 0.56251 0.0
H851 H 0.28794 0.9527 0.61519 0.0
O852 O 0.37968 0.07446 0.59523 0.0
O853 O 0.31615 0.04822 0.60257 0.0
O854 O 0.33768 0.02454 0.56134 0.0
O855 O 0.34746 0.01617 0.61817 0.0
H856 H 0.38191 0.11765 0.61924 0.0
H857 H 0.40651 0.0922 0.55165 0.0
H858 H 0.40551 0.16619 0.60302 0.0
H859 H 0.4295 0.14117 0.53653 0.0
H860 H 0.23065 0.99748 0.63928 0.0
H861 H 0.2875 0.06175 0.57113 0.0
H862 H 0.28119 0.01361 0.63724 0.0
H863 H 0.23683 0.04475 0.57433 0.0
H864 H 0.33642 0.14212 0.54782 0.0
H865 H 0.3421 0.09204 0.48791 0.0
H866 H 0.40963 0.11682 0.68861 0.0
H867 H 0.32119 0.08676 0.69546 0.0
H868 H 0.31103 0.96981 0.55318 0.0
H869 H 0.37924 0.04885 0.52833 0.0
H870 H 0.32362 0.94627 0.5202 0.0
H871 H 0.39063 0.02384 0.49581 0.0
H872 H 0.3546 0.97225 0.61813 0.0
H873 H 0.31763 0.01323 0.65849 0.0
H874 H 0.33551 0.93468 0.65034 0.0
H875 H 0.299 0.97489 0.68991 0.0
H876 H 0.46226 0.063 0.55405 0.0
H877 H 0.40255 0.97441 0.55402 0.0
H878 H 0.23159 0.96326 0.54873 0.0
H879 H 0.24549 0.91085 0.60055 0.0
Li880 Li 0.98572 0.30427 0.60195 0.0
Li881 Li 0.96204 0.33033 0.59708 0.0
Li882 Li 0.94431 0.2904 0.62781 0.0
Li883 Li 0.94025 0.28321 0.58119 0.0
C884 C 0.00041 0.33521 0.64669 0.0
N885 N 0.04069 0.35204 0.68388 0.0
C886 C 0.02355 0.36221 0.64632 0.0
C887 C 0.99753 0.31695 0.6662 0.0
C888 C 0.04374 0.37029 0.66524 0.0
C889 C 0.01819 0.32579 0.68475 0.0
C890 C 0.98852 0.33657 0.55343 0.0
C891 C 0.98671 0.36569 0.5204 0.0
N892 N 0.01507 0.38112 0.52049 0.0
C893 C 0.01767 0.3527 0.55315 0.0
C894 C 0.97291 0.34304 0.53684 0.0
C895 C 0.03069 0.37512 0.53635 0.0
C896 C 0.01826 0.29021 0.576 0.0
N897 N 0.02014 0.30489 0.59717 0.0
C898 C 0.06877 0.31991 0.60092 0.0
C899 C 0.04461 0.31922 0.61004 0.0
C900 C 0.06742 0.30543 0.57859 0.0
C901 C 0.04138 0.28955 0.56678 0.0
H902 H -0.00121 0.27964 0.56575 0.0
H903 H 0.0458 0.33095 0.62672 0.0
C904 C 0.94475 0.36833 0.58236 0.0
N905 N 0.96716 0.3662 0.5896 0.0
C906 C 0.94866 0.39236 0.57009 0.0
C907 C -0.00146 0.41236 0.57491 0.0
C908 C 0.99364 0.38798 0.58714 0.0
C909 C 0.9759 0.41427 0.56526 0.0
H910 H 0.92393 0.35077 0.58472 0.0
H911 H 0.01108 0.38554 0.59271 0.0
C912 C 0.96276 0.24806 0.60774 0.0
N913 N 0.98422 0.21239 0.60878 0.0
C914 C 0.95833 0.23015 0.58741 0.0
C915 C 0.9779 0.24761 0.62869 0.0
C916 C 0.9694 0.21233 0.58827 0.0
C917 C 0.98864 0.22951 0.62882 0.0
C918 C 0.89614 0.28581 0.5941 0.0
C919 C 0.87519 0.26413 0.60831 0.0
C920 C 0.88969 0.29228 0.57043 0.0
C921 C 0.84816 0.24918 0.59853 0.0
C922 C 0.86242 0.2768 0.56129 0.0
N923 N 0.84239 0.25575 0.57541 0.0
C924 C 0.91477 0.28727 0.67293 0.0
C925 C 0.91606 0.24652 0.66124 0.0
C926 C 0.89542 0.27258 0.69205 0.0
N927 N 0.92419 0.27388 0.65778 0.0
C928 C 0.89683 0.2311 0.68 0.0
C929 C 0.88565 0.2439 0.69522 0.0
H930 H 0.9212 0.30893 0.66935 0.0
H931 H 0.92348 0.23627 0.64865 0.0
C932 C 0.92482 0.26495 0.53078 0.0
N933 N 0.91825 0.25792 0.55545 0.0
C934 C 0.90952 0.24593 0.51176 0.0
C935 C 0.88129 0.21265 0.54395 0.0
C936 C 0.89697 0.2324 0.56233 0.0
C937 C 0.88762 0.21932 0.5183 0.0
H938 H 0.94226 0.2851 0.52586 0.0
H939 H 0.89252 0.22729 0.58213 0.0
O940 O 0.98027 0.32709 0.62849 0.0
O941 O 0.97535 0.3148 0.57006 0.0
O942 O 0.95237 0.26593 0.60709 0.0
O943 O 0.92289 0.30034 0.60313 0.0
H944 H 0.026 0.37674 0.63154 0.0
H945 H 0.97946 0.29626 0.66717 0.0
H946 H 0.06184 0.39105 0.66509 0.0
H947 H 0.01627 0.31182 0.6999 0.0
H948 H 0.97486 0.37109 0.50767 0.0
H949 H 0.03015 0.34823 0.56594 0.0
H950 H 0.95035 0.33103 0.53697 0.0
H951 H 0.05321 0.38785 0.53602 0.0
H952 H 0.08837 0.33255 0.61064 0.0
H953 H 0.03887 0.27726 0.55005 0.0
H954 H 0.93061 0.39323 0.56344 0.0
H955 H 0.01988 0.42859 0.57141 0.0
H956 H 0.94682 0.23025 0.57097 0.0
H957 H 0.98149 0.26121 0.6446 0.0
H958 H 0.96628 0.1985 0.5726 0.0
H959 H 0.00052 0.22908 0.64486 0.0
H960 H 0.87973 0.25873 0.62662 0.0
H961 H 0.90566 0.30877 0.55904 0.0
H962 H 0.83178 0.23229 0.6093 0.0
H963 H 0.8572 0.28146 0.54293 0.0
H964 H 0.88714 0.28314 0.70332 0.0
H965 H 0.89015 0.20915 0.68208 0.0
H966 H 0.91526 0.25169 0.4922 0.0
H967 H 0.86441 0.19239 0.54973 0.0
Li968 Li 0.70322 0.64937 0.62494 0.0
Li969 Li 0.68798 0.67709 0.60456 0.0
Li970 Li 0.66097 0.62796 0.59725 0.0
Li971 Li 0.7107 0.65739 0.57892 0.0
C972 C 0.6562 0.65798 0.64702 0.0
N973 N 0.63518 0.68089 0.68085 0.0
C974 C 0.67434 0.68115 0.66151 0.0
C975 C 0.62735 0.64618 0.64999 0.0
C976 C 0.66332 0.69252 0.67843 0.0
C977 C 0.61714 0.65814 0.66713 0.0
C978 C 0.74942 0.70881 0.61247 0.0
C979 C 0.79057 0.75138 0.59965 0.0
N980 N 0.79633 0.75909 0.62429 0.0
C981 C 0.75591 0.71701 0.63768 0.0
C982 C 0.76704 0.72598 0.59329 0.0
C983 C 0.77965 0.74256 0.64326 0.0
C984 C 0.74738 0.64823 0.64717 0.0
N985 N 0.72195 0.64492 0.65276 0.0
C986 C 0.72771 0.63806 0.69638 0.0
C987 C 0.71175 0.63978 0.67671 0.0
C988 C 0.75426 0.64159 0.69117 0.0
C989 C 0.76381 0.64636 0.66607 0.0
H990 H 0.75493 0.65247 0.62791 0.0
H991 H 0.69148 0.63744 0.68057 0.0
C992 C 0.65536 0.70249 0.60581 0.0
N993 N 0.68241 0.70858 0.60596 0.0
C994 C 0.64878 0.72325 0.60075 0.0
C995 C 0.69808 0.75659 0.59726 0.0
C996 C 0.70372 0.73518 0.60264 0.0
C997 C 0.67025 0.75047 0.59526 0.0
H998 H 0.63874 0.68108 0.60765 0.0
H999 H 0.725 0.73956 0.60225 0.0
C1000 C 0.69695 0.60096 0.60859 0.0
N1001 N 0.70553 0.56187 0.63319 0.0
C1002 C 0.71973 0.59782 0.60214 0.0
C1003 C 0.67843 0.58415 0.62742 0.0
C1004 C 0.72372 0.57794 0.61484 0.0
C1005 C 0.68316 0.56453 0.63967 0.0
C1006 C 0.67352 0.67681 0.55636 0.0
C1007 C 0.64721 0.67304 0.55054 0.0
C1008 C 0.69749 0.70053 0.54758 0.0
C1009 C 0.64534 0.69337 0.5364 0.0
C1010 C 0.69475 0.72038 0.53349 0.0
N1011 N 0.66895 0.71644 0.52827 0.0
C1012 C 0.60413 0.60268 0.58609 0.0
C1013 C 0.62395 0.57376 0.57986 0.0
C1014 C 0.5798 0.58351 0.57357 0.0
N1015 N 0.62578 0.5978 0.58834 0.0
C1016 C 0.59994 0.55391 0.5674 0.0
C1017 C 0.57787 0.55917 0.56325 0.0
H1018 H 0.60649 0.62231 0.59255 0.0
H1019 H 0.64173 0.57071 0.58145 0.0
C1020 C 0.76012 0.66454 0.55901 0.0
N1021 N 0.73463 0.66037 0.55234 0.0
C1022 C 0.77802 0.66412 0.54071 0.0
C1023 C 0.74342 0.65607 0.50886 0.0
C1024 C 0.72607 0.65646 0.52788 0.0
C1025 C 0.76954 0.65937 0.51532 0.0
H1026 H 0.76621 0.66746 0.57869 0.0
H1027 H 0.7055 0.65291 0.52324 0.0
O1028 O 0.66654 0.64661 0.63023 0.0
O1029 O 0.72644 0.68377 0.60652 0.0
O1030 O 0.69308 0.6208 0.59691 0.0
O1031 O 0.6759 0.65774 0.57103 0.0
H1032 H 0.69666 0.69041 0.65952 0.0
H1033 H 0.61302 0.62801 0.63916 0.0
H1034 H 0.67714 0.7106 0.68963 0.0
H1035 H 0.59486 0.64932 0.66953 0.0
H1036 H 0.80429 0.76495 0.58499 0.0
H1037 H 0.74296 0.70373 0.65281 0.0
H1038 H 0.76254 0.7198 0.57369 0.0
H1039 H 0.78489 0.7492 0.66269 0.0
H1040 H 0.71961 0.63466 0.71546 0.0
H1041 H 0.78382 0.64865 0.66099 0.0
H1042 H 0.62704 0.71764 0.59966 0.0
H1043 H 0.71529 0.77718 0.59282 0.0
H1044 H 0.73426 0.61072 0.58763 0.0
H1045 H 0.66078 0.58647 0.63267 0.0
H1046 H 0.74132 0.57534 0.61014 0.0
H1047 H 0.6691 0.55147 0.65438 0.0
H1048 H 0.62843 0.6548 0.55712 0.0
H1049 H 0.71799 0.70378 0.55195 0.0
H1050 H 0.62512 0.69086 0.53197 0.0
H1051 H 0.71314 0.73897 0.52679 0.0
H1052 H 0.56352 0.58865 0.57058 0.0
H1053 H 0.59918 0.53524 0.56012 0.0
H1054 H 0.79814 0.66712 0.54641 0.0
H1055 H 0.73608 0.65216 0.48952 0.0
H1056 H 0.1158 0.34609 0.95617 0.0
H1057 H 0.19227 0.25879 0.93056 0.0
H1058 H 0.10007 0.27196 0.99698 0.0
H1059 H 0.21862 0.33937 0.89732 0.0
H1060 H 0.15034 0.25768 0.94661 0.0
H1061 H 0.14599 0.33877 0.92712 0.0
C1062 C 0.11846 0.32815 0.95892 0.0
C1063 C 0.10569 0.30988 0.97937 0.0
C1064 C 0.16501 0.27544 0.93547 0.0
C1065 C 0.13984 0.30121 0.94596 0.0
C1066 C 0.18886 0.27602 0.92627 0.0
C1067 C 0.20898 0.29941 0.91301 0.0
C1068 C 0.16145 0.2986 0.93167 0.0
C1069 C 0.20356 0.32105 0.90761 0.0
C1070 C 0.13554 0.32391 0.94222 0.0
C1071 C 0.1093 0.28658 0.98152 0.0
N1072 N 0.18048 0.32039 0.91739 0.0
N1073 N 0.12627 0.28312 0.96523 0.0
H1074 H 0.73494 0.82055 0.9879 0.0
H1075 H 0.65398 0.87058 0.8967 0.0
H1076 H 0.6496 0.76757 0.96411 0.0
H1077 H 0.73812 0.92394 0.92346 0.0
H1078 H 0.65482 0.83031 0.91477 0.0
H1079 H 0.73925 0.8562 0.9581 0.0
C1080 C 0.71719 0.81634 0.9762 0.0
C1081 C 0.69177 0.79125 0.97871 0.0
C1082 C 0.67325 0.85078 0.91632 0.0
C1083 C 0.69647 0.83194 0.94461 0.0
C1084 C 0.67277 0.87377 0.90605 0.0
C1085 C 0.69587 0.90074 0.90886 0.0
C1086 C 0.69696 0.85481 0.92961 0.0
C1087 C 0.71984 0.90358 0.92074 0.0
C1088 C 0.71968 0.83664 0.95913 0.0
C1089 C 0.6696 0.78663 0.96276 0.0
N1090 N 0.71961 0.88097 0.93098 0.0
N1091 N 0.67234 0.80696 0.94663 0.0
H1092 H 0.23558 0.88225 0.96224 0.0
H1093 H 0.08048 0.81397 0.90818 0.0
H1094 H 0.17574 0.90652 0.98463 0.0
H1095 H 0.13034 0.77401 0.90576 0.0
H1096 H 0.12084 0.85637 0.92449 0.0
H1097 H 0.20253 0.85099 0.93042 0.0
C1098 C 0.21573 0.88146 0.96003 0.0
C1099 C 0.20814 0.89665 0.97621 0.0
C1100 C 0.1231 0.83851 0.91987 0.0
C1101 C 0.17038 0.86104 0.94009 0.0
C1102 C 0.10017 0.81442 0.91036 0.0
C1103 C 0.10206 0.79041 0.90596 0.0
C1104 C 0.14803 0.83853 0.9249 0.0
C1105 C 0.12798 0.79201 0.90931 0.0
C1106 C 0.19687 0.86356 0.94199 0.0
C1107 C 0.18214 0.89479 0.97273 0.0
N1108 N 0.1499 0.81556 0.9189 0.0
N1109 N 0.16406 0.87708 0.95518 0.0
H1110 H 0.69632 0.80733 0.6033 0.0
H1111 H 0.61727 0.8297 0.48746 0.0
H1112 H 0.62969 0.74063 0.56082 0.0
H1113 H 0.68251 0.89803 0.52947 0.0
H1114 H 0.61834 0.79693 0.51757 0.0
H1115 H 0.68863 0.8411 0.57984 0.0
C1116 C 0.67989 0.79976 0.58928 0.0
C1117 C 0.66366 0.77109 0.58403 0.0
C1118 C 0.63232 0.81909 0.5204 0.0
C1119 C 0.65479 0.80951 0.55716 0.0
C1120 C 0.63177 0.83777 0.50313 0.0
C1121 C 0.6501 0.86653 0.50583 0.0
C1122 C 0.65154 0.82918 0.54042 0.0
C1123 C 0.66808 0.87597 0.52674 0.0
C1124 C 0.67546 0.81903 0.57596 0.0
C1125 C 0.64247 0.76244 0.56584 0.0
N1126 N 0.6686 0.85728 0.54311 0.0
N1127 N 0.63884 0.78157 0.55295 0.0
H1128 H 0.11201 0.76552 0.52584 0.0
H1129 H 0.22003 0.92589 0.52322 0.0
H1130 H 0.10793 0.82209 0.47213 0.0
H1131 H 0.19651 0.88298 0.59506 0.0
H1132 H 0.18159 0.88567 0.50343 0.0
H1133 H 0.1445 0.80591 0.55153 0.0
C1134 C 0.11757 0.78634 0.51966 0.0
C1135 C 0.10773 0.79051 0.49653 0.0
C1136 C 0.18461 0.88513 0.52359 0.0
C1137 C 0.14496 0.83639 0.52545 0.0
C1138 C 0.20653 0.90826 0.53505 0.0
C1139 C 0.21134 0.9083 0.56111 0.0
C1140 C 0.16755 0.86133 0.53798 0.0
C1141 C 0.19371 0.88398 0.57494 0.0
C1142 C 0.13611 0.80929 0.53427 0.0
C1143 C 0.11564 0.81792 0.48941 0.0
N1144 N 0.17262 0.86131 0.56316 0.0
N1145 N 0.13408 0.83979 0.50361 0.0
H1146 H 0.11546 0.31122 0.60099 0.0
H1147 H 0.17196 0.28411 0.47347 0.0
H1148 H 0.07811 0.30637 0.52808 0.0
H1149 H 0.23125 0.34747 0.52389 0.0
H1150 H 0.13411 0.27872 0.50084 0.0
H1151 H 0.1561 0.31378 0.57924 0.0
C1152 C 0.11567 0.31066 0.58056 0.0
C1153 C 0.09286 0.30791 0.56645 0.0
C1154 C 0.15548 0.29356 0.506 0.0
C1155 C 0.13859 0.30992 0.54187 0.0
C1156 C 0.17707 0.29679 0.49037 0.0
C1157 C 0.20479 0.31684 0.49601 0.0
C1158 C 0.16156 0.31012 0.52768 0.0
C1159 C 0.21017 0.33189 0.51874 0.0
C1160 C 0.13876 0.31198 0.56827 0.0
C1161 C 0.09444 0.30728 0.53997 0.0
N1162 N 0.18863 0.32843 0.53373 0.0
N1163 N 0.11667 0.30792 0.52863 0.0
H1164 H 0.76497 0.62924 0.10235 0.0
H1165 H 0.91516 0.7164 0.03843 0.0
H1166 H 0.81178 0.71927 0.09817 0.0
H1167 H 0.86185 0.62703 0.03194 0.0
H1168 H 0.88255 0.7173 0.06911 0.0
H1169 H 0.80553 0.62779 0.08593 0.0
C1170 C 0.78393 0.64872 0.09838 0.0
C1171 C 0.7848 0.67439 0.10119 0.0
C1172 C 0.87824 0.69745 0.06124 0.0
C1173 C 0.83123 0.67288 0.08233 0.0
C1174 C 0.89676 0.69694 0.04363 0.0
C1175 C 0.89105 0.67167 0.03225 0.0
C1176 C 0.85378 0.67254 0.06749 0.0
C1177 C 0.86723 0.64701 0.0402 0.0
C1178 C 0.80708 0.64788 0.08902 0.0
C1179 C 0.81012 0.699 0.09629 0.0
N1180 N 0.84931 0.64812 0.05707 0.0
N1181 N 0.83218 0.69762 0.0867 0.0
H1182 H 0.36423 0.23472 0.03549 0.0
H1183 H 0.26806 0.07769 0.08311 0.0
H1184 H 0.28477 0.17566 0.00288 0.0
H1185 H 0.35479 0.1287 0.10387 0.0
H1186 H 0.27033 0.11762 0.06152 0.0
H1187 H 0.35764 0.19994 0.06761 0.0
C1188 C 0.34524 0.21457 0.03534 0.0
C1189 C 0.32514 0.20785 0.0164 0.0
C1190 C 0.28877 0.12022 0.07111 0.0
C1191 C 0.31747 0.1682 0.05292 0.0
C1192 C 0.28742 0.09749 0.08373 0.0
C1193 C 0.31135 0.09978 0.09519 0.0
C1194 C 0.31425 0.14546 0.06983 0.0
C1195 C 0.33596 0.12592 0.09494 0.0
C1196 C 0.34155 0.19475 0.05357 0.0
C1197 C 0.30097 0.18146 0.01693 0.0
N1198 N 0.33688 0.1477 0.08218 0.0
N1199 N 0.29787 0.16255 0.03481 0.0
H1200 H 0.93407 0.19236 0.06995 0.0
H1201 H 0.76993 0.1033 0.04499 0.0
H1202 H 0.8748 0.2073 0.11004 0.0
H1203 H 0.83316 0.11655 0.9899 0.0
H1204 H 0.8069 0.1319 0.07507 0.0
H1205 H 0.89554 0.15376 0.04761 0.0
C1206 C 0.91289 0.18703 0.0746 0.0
C1207 C 0.90762 0.20315 0.09182 0.0
C1208 C 0.81252 0.12819 0.05645 0.0
C1209 C 0.86351 0.15933 0.06589 0.0
C1210 C 0.79148 0.11207 0.03916 0.0
C1211 C 0.79829 0.10767 0.01461 0.0
C1212 C 0.84056 0.13965 0.04932 0.0
C1213 C 0.82668 0.11896 0.00857 0.0
C1214 C 0.89094 0.16518 0.06161 0.0
C1215 C 0.87974 0.19555 0.09671 0.0
N1216 N 0.8467 0.13448 0.02575 0.0
N1217 N 0.85867 0.17428 0.08363 0.0
H1218 H 0.30175 0.13803 0.51417 0.0
H1219 H 0.37128 0.24031 0.39726 0.0
H1220 H 0.37131 0.14258 0.47311 0.0
H1221 H 0.28841 0.21461 0.42474 0.0
H1222 H 0.37294 0.2058 0.42525 0.0
H1223 H 0.29804 0.16811 0.48244 0.0
C1224 C 0.31631 0.14549 0.4985 0.0
C1225 C 0.33692 0.13795 0.49626 0.0
C1226 C 0.35425 0.20746 0.42483 0.0
C1227 C 0.33277 0.17222 0.45985 0.0
C1228 C 0.3533 0.22709 0.40888 0.0
C1229 C 0.32962 0.23017 0.40858 0.0
C1230 C 0.33155 0.19123 0.44087 0.0
C1231 C 0.3069 0.21263 0.42406 0.0
C1232 C 0.31405 0.16244 0.48029 0.0
C1233 C 0.35503 0.14785 0.47541 0.0
N1234 N 0.30856 0.19414 0.43977 0.0
N1235 N 0.35268 0.16467 0.45807 0.0
H1236 H 0.86647 0.22671 0.47406 0.0
H1237 H 0.79606 0.06569 0.43524 0.0
H1238 H 0.87319 0.16435 0.51752 0.0
H1239 H 0.7744 0.12291 0.40051 0.0
H1240 H 0.83155 0.10409 0.46021 0.0
H1241 H 0.83908 0.19109 0.44234 0.0
C1242 C 0.86235 0.20557 0.4768 0.0
C1243 C 0.87183 0.19835 0.49853 0.0
C1244 C 0.81928 0.10834 0.44691 0.0
C1245 C 0.84072 0.15766 0.46242 0.0
C1246 C 0.79923 0.08648 0.4324 0.0
C1247 C 0.78218 0.0911 0.41581 0.0
C1248 C 0.82233 0.13504 0.44486 0.0
C1249 C 0.7869 0.11841 0.41331 0.0
C1250 C 0.84669 0.18527 0.45877 0.0
C1251 C 0.86584 0.17066 0.50125 0.0
N1252 N 0.8064 0.13934 0.42785 0.0
N1253 N 0.85062 0.15132 0.48343 0.0
H1254 H 0.88611 0.623 0.44203 0.0
H1255 H 0.78259 0.68197 0.46757 0.0
H1256 H 0.88043 0.68174 0.39213 0.0
H1257 H 0.79677 0.62996 0.51917 0.0
H1258 H 0.81384 0.67803 0.43695 0.0
H1259 H 0.84832 0.62054 0.46717 0.0
C1260 C 0.87653 0.63495 0.43596 0.0
C1261 C 0.88654 0.65259 0.4148 0.0
C1262 C 0.80999 0.66741 0.45495 0.0
C1263 C 0.84353 0.65051 0.44427 0.0
C1264 C 0.79213 0.66959 0.47236 0.0
C1265 C 0.78741 0.65656 0.49605 0.0
C1266 C 0.82294 0.65191 0.46125 0.0
C1267 C 0.80029 0.64082 0.50134 0.0
C1268 C 0.85508 0.63379 0.45059 0.0
C1269 C 0.8736 0.6681 0.40843 0.0
N1270 N 0.81749 0.63901 0.48414 0.0
N1271 N 0.85287 0.66686 0.42322 0.0
H1272 H 0.20623 0.38289 0.31653 0.0
H1273 H 0.18207 0.40721 0.17315 0.0
H1274 H 0.26164 0.38616 0.2573 0.0
H1275 H 0.11401 0.35814 0.22457 0.0
H1276 H 0.21497 0.41065 0.20567 0.0
H1277 H 0.17583 0.38533 0.28458 0.0
C1278 C 0.21209 0.38407 0.29686 0.0
C1279 C 0.2364 0.3837 0.28969 0.0
C1280 C 0.1928 0.39933 0.20974 0.0
C1281 C 0.20195 0.38751 0.25311 0.0
C1282 C 0.1739 0.39714 0.19116 0.0
C1283 C 0.14495 0.38208 0.19584 0.0
C1284 C 0.18281 0.38694 0.23338 0.0
C1285 C 0.13597 0.37032 0.21998 0.0
C1286 C 0.19475 0.38566 0.27868 0.0
C1287 C 0.24326 0.38645 0.26385 0.0
N1288 N 0.15482 0.37303 0.23781 0.0
N1289 N 0.22607 0.38816 0.24648 0.0
H1290 H 0.61359 0.7894 0.17108 0.0
H1291 H 0.6545 0.845 0.31212 0.0
H1292 H 0.64547 0.75408 0.22525 0.0
H1293 H 0.60222 0.86419 0.26553 0.0
H1294 H 0.65309 0.81317 0.27968 0.0
H1295 H 0.61088 0.81855 0.20455 0.0
C1296 C 0.61991 0.78772 0.19005 0.0
C1297 C 0.62983 0.76936 0.19542 0.0
C1298 C 0.64178 0.82421 0.2766 0.0
C1299 C 0.62692 0.80267 0.23369 0.0
C1300 C 0.64242 0.84232 0.29521 0.0
C1301 C 0.62824 0.85722 0.29173 0.0
C1302 C 0.62714 0.8211 0.2541 0.0
C1303 C 0.61369 0.8534 0.26898 0.0
C1304 C 0.61825 0.80426 0.20914 0.0
C1305 C 0.63749 0.76778 0.22035 0.0
N1306 N 0.61358 0.83578 0.25099 0.0
N1307 N 0.63609 0.7844 0.23851 0.0
H1308 H 0.20237 0.81467 0.1719 0.0
H1309 H 0.13548 0.7987 0.30836 0.0
H1310 H 0.23022 0.88269 0.22497 0.0
H1311 H 0.1268 0.72785 0.26622 0.0
H1312 H 0.16763 0.82972 0.2764 0.0
H1313 H 0.17204 0.78238 0.20468 0.0
C1314 C 0.20215 0.82276 0.19049 0.0
C1315 C 0.21879 0.85137 0.19577 0.0
C1316 C 0.15881 0.8074 0.27419 0.0
C1317 C 0.18411 0.81471 0.23316 0.0
C1318 C 0.14051 0.78959 0.29253 0.0
C1319 C 0.12855 0.7605 0.29022 0.0
C1320 C 0.16504 0.79616 0.25309 0.0
C1321 C 0.13528 0.75007 0.26875 0.0
C1322 C 0.18495 0.80434 0.20917 0.0
C1323 C 0.21792 0.86075 0.22018 0.0
N1324 N 0.15304 0.76789 0.25098 0.0
N1325 N 0.20069 0.84251 0.23791 0.0
H1326 H 0.82113 0.61539 0.83033 0.0
H1327 H 0.8111 0.67386 0.69569 0.0
H1328 H 0.89158 0.65936 0.78031 0.0
H1329 H 0.73877 0.60822 0.73361 0.0
H1330 H 0.84073 0.67171 0.72849 0.0
H1331 H 0.79034 0.61525 0.79696 0.0
C1332 C 0.83007 0.62493 0.81229 0.0
C1333 C 0.85891 0.6374 0.80802 0.0
C1334 C 0.81839 0.65769 0.72959 0.0
C1335 C 0.82398 0.6375 0.76999 0.0
C1336 C 0.8014 0.65879 0.71078 0.0
C1337 C 0.77232 0.64096 0.71166 0.0
C1338 C 0.80631 0.6389 0.74971 0.0
C1339 C 0.76102 0.62253 0.73221 0.0
C1340 C 0.81251 0.62475 0.79327 0.0
C1341 C 0.86943 0.64929 0.78429 0.0
N1342 N 0.77804 0.62199 0.75046 0.0
N1343 N 0.852 0.64924 0.76623 0.0
H1344 H 0.34743 0.18203 0.82871 0.0
H1345 H 0.40346 0.16004 0.69636 0.0
H1346 H 0.39043 0.24834 0.77436 0.0
H1347 H 0.33998 0.09296 0.74088 0.0
H1348 H 0.40693 0.19345 0.72869 0.0
H1349 H 0.35226 0.15005 0.80029 0.0
C1350 C 0.35781 0.18988 0.81075 0.0
C1351 C 0.36803 0.21784 0.80371 0.0
C1352 C 0.39249 0.17138 0.73148 0.0
C1353 C 0.37414 0.18132 0.77127 0.0
C1354 C 0.39067 0.15233 0.71319 0.0
C1355 C 0.3713 0.12378 0.71599 0.0
C1356 C 0.375 0.1617 0.75276 0.0
C1357 C 0.35498 0.11485 0.73796 0.0
C1358 C 0.36073 0.17162 0.79461 0.0
C1359 C 0.38219 0.22698 0.78056 0.0
N1360 N 0.35712 0.13377 0.75546 0.0
N1361 N 0.38466 0.2087 0.76506 0.0
H1362 H 0.74032 0.10837 0.76604 0.0
H1363 H 0.87883 0.25634 0.74408 0.0
H1364 H 0.78399 0.16724 0.82598 0.0
H1365 H 0.84001 0.19271 0.68682 0.0
H1366 H 0.84132 0.22645 0.77344 0.0
H1367 H 0.77385 0.1415 0.73575 0.0
C1368 C 0.75688 0.12831 0.77282 0.0
C1369 C 0.75941 0.13494 0.79862 0.0
C1370 C 0.84101 0.21909 0.75442 0.0
C1371 C 0.79786 0.17305 0.76403 0.0
C1372 C 0.86234 0.23617 0.73767 0.0
C1373 C 0.86273 0.22682 0.71312 0.0
C1374 C 0.81986 0.1926 0.74645 0.0
C1375 C 0.84086 0.20049 0.70576 0.0
C1376 C 0.77598 0.14726 0.75551 0.0
C1377 C 0.78103 0.16132 0.80625 0.0
N1378 N 0.8204 0.1843 0.72236 0.0
N1379 N 0.79953 0.17933 0.78907 0.0
H1380 H 0.95786 0.41851 0.02869 0.0
H1381 H 0.02157 0.57489 0.97936 0.0
H1382 H 0.04339 0.48243 0.04225 0.0
H1383 H 0.94801 0.50495 0.94719 0.0
H1384 H 0.02804 0.54256 0.0059 0.0
H1385 H 0.95155 0.45151 0.00293 0.0
C1386 C 0.97533 0.43949 0.0263 0.0
C1387 C 0.0013 0.44759 0.03749 0.0
C1388 C 0.01057 0.53432 0.99294 0.0
C1389 C 0.99405 0.48555 0.0082 0.0
C1390 C 0.00696 0.55273 0.97756 0.0
C1391 C 0.98424 0.54268 0.96083 0.0
C1392 C 0.99116 0.50564 0.99186 0.0
C1393 C 0.96562 0.51374 0.95998 0.0
C1394 C 0.97167 0.45831 0.0116 0.0
C1395 C 0.02294 0.47529 0.0342 0.0
N1396 N 0.96943 0.49627 0.97535 0.0
N1397 N 0.01885 0.49326 0.01978 0.0
H1398 H 0.53317 0.57836 0.01045 0.0
H1399 H 0.4702 0.41621 0.98083 0.0
H1400 H 0.55589 0.5255 0.05186 0.0
H1401 H 0.46408 0.47332 0.92913 0.0
H1402 H 0.49899 0.45527 0.00862 0.0
H1403 H 0.50395 0.53904 0.9827 0.0
C1404 C 0.5317 0.55836 0.0139 0.0
C1405 C 0.54691 0.55514 0.0335 0.0
C1406 C 0.49149 0.45929 0.99112 0.0
C1407 C 0.51389 0.51023 0.00164 0.0
C1408 C 0.47525 0.43701 0.97506 0.0
C1409 C 0.46482 0.44144 0.95241 0.0
C1410 C 0.49719 0.48625 0.9847 0.0
C1411 C 0.47143 0.46883 0.94646 0.0
C1412 C 0.51527 0.53603 0.9979 0.0
C1413 C 0.54465 0.52891 0.03685 0.0
N1414 N 0.48712 0.49019 0.96255 0.0
N1415 N 0.52843 0.50745 0.02109 0.0
H1416 H 0.43723 0.01664 0.01362 0.0
H1417 H 0.53486 0.95658 0.97239 0.0
H1418 H 0.44207 0.95257 0.05633 0.0
H1419 H 0.55657 0.04197 0.95746 0.0
H1420 H 0.49533 0.95065 0.99768 0.0
H1421 H 0.47625 0.02249 0.98775 0.0
C1422 C 0.44661 0.004 0.01786 0.0
C1423 C 0.43629 0.98417 0.03747 0.0
C1424 C 0.50878 0.97063 0.98878 0.0
C1425 C 0.48041 0.99019 0.00711 0.0
C1426 C 0.53142 0.97412 0.97438 0.0
C1427 C 0.54941 -5e-05 0.96289 0.0
C1428 C 0.50372 0.99293 0.99138 0.0
C1429 C 0.54322 0.02158 0.96563 0.0
C1430 C 0.46876 0.00723 0.00286 0.0
C1431 C 0.44893 0.96784 0.0413 0.0
N1432 N 0.52089 0.01757 0.97959 0.0
N1433 N 0.47023 0.97112 0.02617 0.0
H1434 H 0.57648 0.01855 0.48184 0.0
H1435 H 0.4207 0.98461 0.51019 0.0
H1436 H 0.50765 0.97246 0.4306 0.0
H1437 H 0.49177 0.04076 0.55542 0.0
H1438 H 0.45184 0.97806 0.48187 0.0
H1439 H 0.54559 0.02591 0.50951 0.0
C1440 C 0.55496 0.01029 0.47618 0.0
C1441 C 0.54473 0.99498 0.4537 0.0
C1442 C 0.46064 0.99178 0.498 0.0
C1443 C 0.50899 0.0028 0.48578 0.0
C1444 C 0.44285 0.99532 0.51431 0.0
C1445 C 0.45368 0.01311 0.53529 0.0
C1446 C 0.48948 0.00606 0.50272 0.0
C1447 C 0.4826 0.02696 0.5394 0.0
C1448 C 0.53725 0.01432 0.49215 0.0
C1449 C 0.51641 0.98416 0.44782 0.0
N1450 N 0.49949 0.02309 0.52329 0.0
N1451 N 0.49952 0.98822 0.46379 0.0
H1452 H 0.01542 0.46997 0.56915 0.0
H1453 H 0.97086 0.51178 0.43969 0.0
H1454 H 0.94807 0.41127 0.52168 0.0
H1455 H 0.0429 0.56894 0.48339 0.0
H1456 H 0.96169 0.4748 0.46998 0.0
H1457 H 0.02515 0.50689 0.53855 0.0
C1458 C 0.00262 0.46486 0.55236 0.0
C1459 C 0.98079 0.4375 0.54808 0.0
C1460 C 0.9796 0.49539 0.47288 0.0
C1461 C 0.99181 0.47961 0.51297 0.0
C1462 C 0.98481 0.5165 0.45561 0.0
C1463 C 0.00768 0.54346 0.45901 0.0
C1464 C 0.99728 0.50131 0.49382 0.0
C1465 C 0.02523 0.54836 0.47985 0.0
C1466 C 0.00817 0.48594 0.5349 0.0
C1467 C 0.96475 0.43214 0.52605 0.0
N1468 N 0.01958 0.52753 0.49653 0.0
N1469 N 0.97061 0.45298 0.50934 0.0
H1470 H 0.47844 0.45535 0.43904 0.0
H1471 H 0.52227 0.54342 0.56758 0.0
H1472 H 0.42315 0.4744 0.48106 0.0
H1473 H 0.58016 0.53407 0.51946 0.0
H1474 H 0.48506 0.51646 0.53718 0.0
H1475 H 0.51561 0.48281 0.46925 0.0
C1476 C 0.47418 0.46543 0.45458 0.0
C1477 C 0.44769 0.46262 0.45754 0.0
C1478 C 0.50591 0.52026 0.53335 0.0
C1479 C 0.49005 0.49395 0.49228 0.0
C1480 C 0.52717 0.53566 0.55069 0.0
C1481 C 0.55442 0.54098 0.54617 0.0
C1482 C 0.51191 0.51006 0.51133 0.0
C1483 C 0.55942 0.5301 0.52405 0.0
C1484 C 0.4954 0.48113 0.4718 0.0
C1485 C 0.44337 0.47631 0.4779 0.0
N1486 N 0.53841 0.51522 0.50748 0.0
N1487 N 0.46429 0.49126 0.49458 0.0
loop_
_geom_bond_atom_site_label_1
_geom_bond_atom_site_label_2
_geom_bond_distance
_geom_bond_site_symmetry_2
_ccdc_geom_bond_type
Li0 N17 1.990 . S
Li0 O60 1.956 . S
Li0 O61 1.970 . S
Li0 O62 1.961 . S
Li1 N25 1.990 . S
Li1 O60 1.970 . S
Li1 O61 1.956 . S
Li1 O63 1.961 . S
Li2 N47 1.990 . S
Li2 O60 1.961 . S
Li2 O62 1.956 . S
Li2 O63 1.970 . S
Li3 N53 1.990 1_455 S
Li3 O61 1.961 . S
Li3 O62 1.970 . S
Li3 O63 1.956 . S
C4 C6 1.348 . S
C4 C7 1.356 . S
C4 O60 1.325 . S
N5 C8 1.314 . S
N5 C9 1.279 . S
C6 C4 1.348 . S
C6 C8 1.353 . S
C6 H64 0.929 . S
C7 C4 1.356 . S
C7 C9 1.358 . S
C7 H65 0.930 . S
C8 N5 1.314 . S
C8 C6 1.353 . S
C8 H66 0.930 . S
C9 N5 1.279 . S
C9 C7 1.358 . S
C9 H67 0.930 . S
C10 C13 1.348 . S
C10 C14 1.356 . S
C10 O61 1.325 1_655 S
C11 N12 1.279 . S
C11 C14 1.358 . S
C11 H68 0.930 . S
N12 C11 1.279 . S
N12 C15 1.314 . S
C13 C10 1.348 . S
C13 C15 1.353 . S
C13 H69 0.929 1_655 S
C14 C10 1.356 . S
C14 C11 1.358 . S
C14 H70 0.930 . S
C15 N12 1.314 . S
C15 C13 1.353 . S
C15 H71 0.930 . S
C16 N17 1.314 . S
C16 C21 1.353 . S
C16 H22 0.930 . S
N17 Li0 1.990 . S
N17 C16 1.314 . S
N17 C19 1.279 . S
C18 C19 1.358 . S
C18 C20 1.356 . S
C18 H72 0.930 . S
C19 N17 1.279 . S
C19 C18 1.358 . S
C19 H23 0.930 . S
C20 C18 1.356 . S
C20 C21 1.348 . S
C21 C16 1.353 . S
C21 C20 1.348 . S
C21 H73 0.929 . S
H22 C16 0.930 . S
H23 C19 0.930 . S
C24 N25 1.314 . S
C24 C26 1.353 . S
C24 H30 0.930 . S
N25 Li1 1.990 . S
N25 C24 1.314 . S
N25 C28 1.279 . S
C26 C24 1.353 . S
C26 C29 1.348 . S
C26 H74 0.929 . S
C27 C28 1.358 . S
C27 C29 1.356 . S
C27 H75 0.930 . S
C28 N25 1.279 . S
C28 C27 1.358 . S
C28 H31 0.930 . S
C29 C26 1.348 . S
C29 C27 1.356 . S
H30 C24 0.930 . S
H31 C28 0.930 . S
C32 C34 1.348 . S
C32 C35 1.356 . S
C32 O62 1.325 . S
N33 C36 1.314 . S
N33 C37 1.279 . S
C34 C32 1.348 . S
C34 C36 1.353 1_554 S
C34 H76 0.929 1_455 S
C35 C32 1.356 . S
C35 C37 1.358 1_554 S
C35 H77 0.930 . S
C36 N33 1.314 . S
C36 C34 1.353 1_556 S
C36 H78 0.930 1_455 S
C37 N33 1.279 . S
C37 C35 1.358 1_556 S
C37 H79 0.930 . S
C38 C39 1.348 . S
C38 C40 1.356 . S
C38 O63 1.325 . S
C39 C38 1.348 . S
C39 C41 1.353 . S
C39 H80 0.929 . S
C40 C38 1.356 . S
C40 C42 1.358 . S
C40 H81 0.930 . S
C41 C39 1.353 . S
C41 N43 1.314 . S
C41 H82 0.930 . S
C42 C40 1.358 . S
C42 N43 1.279 . S
C42 H83 0.930 . S
N43 C41 1.314 . S
N43 C42 1.279 . S
C44 C46 1.353 . S
C44 N47 1.314 . S
C44 H50 0.930 . S
C45 N47 1.279 . S
C45 C48 1.358 . S
C45 H51 0.930 . S
C46 C44 1.353 . S
C46 C49 1.348 . S
C46 H84 0.929 . S
N47 Li2 1.990 . S
N47 C44 1.314 . S
N47 C45 1.279 . S
C48 C45 1.358 . S
C48 C49 1.356 . S
C48 H85 0.930 1_554 S
C49 C46 1.348 . S
C49 C48 1.356 . S
H50 C44 0.930 . S
H51 C45 0.930 . S
C52 N53 1.314 . S
C52 C54 1.353 . S
C52 H58 0.930 . S
N53 Li3 1.990 1_655 S
N53 C52 1.314 . S
N53 C56 1.279 . S
C54 C52 1.353 . S
C54 C57 1.348 . S
C54 H86 0.929 . S
C55 C56 1.358 . S
C55 C57 1.356 . S
C55 H87 0.930 . S
C56 N53 1.279 . S
C56 C55 1.358 . S
C56 H59 0.930 . S
C57 C54 1.348 . S
C57 C55 1.356 . S
H58 C52 0.930 . S
H59 C56 0.930 . S
O60 Li0 1.956 . S
O60 Li1 1.970 . S
O60 Li2 1.961 . S
O60 C4 1.325 . S
O61 Li0 1.970 . S
O61 Li1 1.956 . S
O61 Li3 1.961 . S
O61 C10 1.325 1_455 S
O62 Li0 1.961 . S
O62 Li2 1.956 . S
O62 Li3 1.970 . S
O62 C32 1.325 . S
O63 Li1 1.961 . S
O63 Li2 1.970 . S
O63 Li3 1.956 . S
O63 C38 1.325 . S
H64 C6 0.929 . S
H65 C7 0.930 . S
H66 C8 0.930 . S
H67 C9 0.930 . S
H68 C11 0.930 . S
H69 C13 0.929 1_455 S
H70 C14 0.930 . S
H71 C15 0.930 . S
H72 C18 0.930 . S
H73 C21 0.929 . S
H74 C26 0.929 . S
H75 C27 0.930 . S
H76 C34 0.929 1_655 S
H77 C35 0.930 . S
H78 C36 0.930 1_655 S
H79 C37 0.930 . S
H80 C39 0.929 . S
H81 C40 0.930 . S
H82 C41 0.930 . S
H83 C42 0.930 . S
H84 C46 0.929 . S
H85 C48 0.930 1_556 S
H86 C54 0.929 . S
H87 C55 0.930 . S
Li88 N105 1.990 . S
Li88 O148 1.956 . S
Li88 O149 1.970 . S
Li88 O150 1.961 . S
Li89 N113 1.990 . S
Li89 O148 1.970 . S
Li89 O149 1.956 . S
Li89 O151 1.961 . S
Li90 N135 1.990 . S
Li90 O148 1.961 . S
Li90 O150 1.956 . S
Li90 O151 1.970 . S
Li91 N141 1.990 . S
Li91 O149 1.961 . S
Li91 O150 1.970 . S
Li91 O151 1.956 . S
C92 C94 1.348 . S
C92 C95 1.356 . S
C92 O148 1.325 . S
N93 C96 1.314 . S
N93 C97 1.279 . S
C94 C92 1.348 . S
C94 C96 1.353 . S
C94 H152 0.929 . S
C95 C92 1.356 . S
C95 C97 1.358 . S
C95 H153 0.930 . S
C96 N93 1.314 . S
C96 C94 1.353 . S
C96 H154 0.930 . S
C97 N93 1.279 . S
C97 C95 1.358 . S
C97 H155 0.930 . S
C98 C101 1.348 . S
C98 C102 1.356 . S
C98 O149 1.325 . S
C99 N100 1.279 . S
C99 C102 1.358 . S
C99 H156 0.930 . S
N100 C99 1.279 . S
N100 C103 1.314 . S
C101 C98 1.348 . S
C101 C103 1.353 . S
C101 H157 0.929 . S
C102 C98 1.356 . S
C102 C99 1.358 . S
C102 H158 0.930 . S
C103 N100 1.314 . S
C103 C101 1.353 . S
C103 H159 0.930 . S
C104 N105 1.314 . S
C104 C109 1.353 . S
C104 H110 0.930 . S
N105 Li88 1.990 . S
N105 C104 1.314 . S
N105 C107 1.279 . S
C106 C107 1.358 . S
C106 C108 1.356 . S
C106 H160 0.930 . S
C107 N105 1.279 . S
C107 C106 1.358 . S
C107 H111 0.930 . S
C108 C106 1.356 . S
C108 C109 1.348 . S
C109 C104 1.353 . S
C109 C108 1.348 . S
C109 H161 0.929 . S
H110 C104 0.930 . S
H111 C107 0.930 . S
C112 N113 1.314 . S
C112 C114 1.353 . S
C112 H118 0.930 . S
N113 Li89 1.990 . S
N113 C112 1.314 . S
N113 C116 1.279 . S
C114 C112 1.353 . S
C114 C117 1.348 . S
C114 H162 0.929 . S
C115 C116 1.358 . S
C115 C117 1.356 . S
C115 H163 0.930 . S
C116 N113 1.279 . S
C116 C115 1.358 . S
C116 H119 0.930 . S
C117 C114 1.348 . S
C117 C115 1.356 . S
H118 C112 0.930 . S
H119 C116 0.930 . S
C120 C122 1.348 . S
C120 C123 1.356 . S
C120 O150 1.325 . S
N121 C124 1.314 . S
N121 C125 1.279 . S
C122 C120 1.348 . S
C122 C124 1.353 . S
C122 H164 0.929 . S
C123 C120 1.356 . S
C123 C125 1.358 . S
C123 H165 0.930 . S
C124 N121 1.314 . S
C124 C122 1.353 . S
C124 H166 0.930 . S
C125 N121 1.279 . S
C125 C123 1.358 . S
C125 H167 0.930 . S
C126 C127 1.348 . S
C126 C128 1.356 . S
C126 O151 1.325 . S
C127 C126 1.348 . S
C127 C129 1.353 1_554 S
C127 H168 0.929 . S
C128 C126 1.356 . S
C128 C130 1.358 1_554 S
C128 H169 0.930 . S
C129 C127 1.353 1_556 S
C129 N131 1.314 . S
C129 H170 0.930 . S
C130 C128 1.358 1_556 S
C130 N131 1.279 . S
C130 H171 0.930 . S
N131 C129 1.314 . S
N131 C130 1.279 . S
C132 C134 1.353 . S
C132 N135 1.314 . S
C132 H138 0.930 . S
C133 N135 1.279 . S
C133 C136 1.358 . S
C133 H139 0.930 . S
C134 C132 1.353 . S
C134 C137 1.348 . S
C134 H172 0.929 . S
N135 Li90 1.990 . S
N135 C132 1.314 . S
N135 C133 1.279 . S
C136 C133 1.358 . S
C136 C137 1.356 . S
C136 H173 0.930 . S
C137 C134 1.348 . S
C137 C136 1.356 . S
H138 C132 0.930 . S
H139 C133 0.930 . S
C140 N141 1.314 . S
C140 C142 1.353 . S
C140 H146 0.930 . S
N141 Li91 1.990 . S
N141 C140 1.314 . S
N141 C144 1.279 . S
C142 C140 1.353 . S
C142 C145 1.348 . S
C142 H174 0.929 . S
C143 C144 1.358 . S
C143 C145 1.356 . S
C143 H175 0.930 1_554 S
C144 N141 1.279 . S
C144 C143 1.358 . S
C144 H147 0.930 . S
C145 C142 1.348 . S
C145 C143 1.356 . S
H146 C140 0.930 . S
H147 C144 0.930 . S
O148 Li88 1.956 . S
O148 Li89 1.970 . S
O148 Li90 1.961 . S
O148 C92 1.325 . S
O149 Li88 1.970 . S
O149 Li89 1.956 . S
O149 Li91 1.961 . S
O149 C98 1.325 . S
O150 Li88 1.961 . S
O150 Li90 1.956 . S
O150 Li91 1.970 . S
O150 C120 1.325 . S
O151 Li89 1.961 . S
O151 Li90 1.970 . S
O151 Li91 1.956 . S
O151 C126 1.325 . S
H152 C94 0.929 . S
H153 C95 0.930 . S
H154 C96 0.930 . S
H155 C97 0.930 . S
H156 C99 0.930 . S
H157 C101 0.929 . S
H158 C102 0.930 . S
H159 C103 0.930 . S
H160 C106 0.930 . S
H161 C109 0.929 . S
H162 C114 0.929 . S
H163 C115 0.930 . S
H164 C122 0.929 . S
H165 C123 0.930 . S
H166 C124 0.930 . S
H167 C125 0.930 . S
H168 C127 0.929 . S
H169 C128 0.930 . S
H170 C129 0.930 . S
H171 C130 0.930 . S
H172 C134 0.929 . S
H173 C136 0.930 . S
H174 C142 0.929 . S
H175 C143 0.930 1_556 S
Li176 N193 1.990 . S
Li176 O236 1.956 . S
Li176 O237 1.970 . S
Li176 O238 1.961 . S
Li177 N201 1.990 . S
Li177 O236 1.970 . S
Li177 O237 1.956 . S
Li177 O239 1.961 . S
Li178 N223 1.990 1_565 S
Li178 O236 1.961 . S
Li178 O238 1.956 . S
Li178 O239 1.970 . S
Li179 N229 1.990 . S
Li179 O237 1.961 . S
Li179 O238 1.970 . S
Li179 O239 1.956 . S
C180 C182 1.348 . S
C180 C183 1.356 . S
C180 O236 1.325 1_545 S
N181 C184 1.314 . S
N181 C185 1.279 . S
C182 C180 1.348 . S
C182 C184 1.353 . S
C182 H240 0.929 1_545 S
C183 C180 1.356 . S
C183 C185 1.358 . S
C183 H241 0.930 . S
C184 N181 1.314 . S
C184 C182 1.353 . S
C184 H242 0.930 . S
C185 N181 1.279 . S
C185 C183 1.358 . S
C185 H243 0.930 . S
C186 C189 1.348 . S
C186 C190 1.356 . S
C186 O237 1.325 . S
C187 N188 1.279 . S
C187 C190 1.358 . S
C187 H244 0.930 . S
N188 C187 1.279 . S
N188 C191 1.314 . S
C189 C186 1.348 . S
C189 C191 1.353 . S
C189 H245 0.929 . S
C190 C186 1.356 . S
C190 C187 1.358 . S
C190 H246 0.930 . S
C191 N188 1.314 . S
C191 C189 1.353 . S
C191 H247 0.930 . S
C192 N193 1.314 . S
C192 C197 1.353 . S
C192 H198 0.930 . S
N193 Li176 1.990 . S
N193 C192 1.314 . S
N193 C195 1.279 . S
C194 C195 1.358 . S
C194 C196 1.356 . S
C194 H248 0.930 . S
C195 N193 1.279 . S
C195 C194 1.358 . S
C195 H199 0.930 . S
C196 C194 1.356 . S
C196 C197 1.348 . S
C197 C192 1.353 . S
C197 C196 1.348 . S
C197 H249 0.929 . S
H198 C192 0.930 . S
H199 C195 0.930 . S
C200 N201 1.314 . S
C200 C202 1.353 . S
C200 H206 0.930 . S
N201 Li177 1.990 . S
N201 C200 1.314 . S
N201 C204 1.279 . S
C202 C200 1.353 . S
C202 C205 1.348 . S
C202 H250 0.929 . S
C203 C204 1.358 . S
C203 C205 1.356 . S
C203 H251 0.930 . S
C204 N201 1.279 . S
C204 C203 1.358 . S
C204 H207 0.930 . S
C205 C202 1.348 . S
C205 C203 1.356 . S
H206 C200 0.930 . S
H207 C204 0.930 . S
C208 C210 1.348 . S
C208 C211 1.356 . S
C208 O238 1.325 . S
N209 C212 1.314 . S
N209 C213 1.279 . S
C210 C208 1.348 . S
C210 C212 1.353 . S
C210 H252 0.929 . S
C211 C208 1.356 . S
C211 C213 1.358 . S
C211 H253 0.930 . S
C212 N209 1.314 . S
C212 C210 1.353 . S
C212 H254 0.930 . S
C213 N209 1.279 . S
C213 C211 1.358 . S
C213 H255 0.930 . S
C214 C215 1.348 . S
C214 C216 1.356 . S
C214 O239 1.325 . S
C215 C214 1.348 . S
C215 C217 1.353 1_554 S
C215 H256 0.929 1_565 S
C216 C214 1.356 . S
C216 C218 1.358 1_554 S
C216 H257 0.930 . S
C217 C215 1.353 1_556 S
C217 N219 1.314 . S
C217 H258 0.930 1_565 S
C218 C216 1.358 1_556 S
C218 N219 1.279 . S
C218 H259 0.930 . S
N219 C217 1.314 . S
N219 C218 1.279 . S
C220 C222 1.353 . S
C220 N223 1.314 . S
C220 H226 0.930 . S
C221 N223 1.279 . S
C221 C224 1.358 . S
C221 H227 0.930 . S
C222 C220 1.353 . S
C222 C225 1.348 . S
C222 H260 0.929 . S
N223 Li178 1.990 1_545 S
N223 C220 1.314 . S
N223 C221 1.279 . S
C224 C221 1.358 . S
C224 C225 1.356 . S
C224 H261 0.930 . S
C225 C222 1.348 . S
C225 C224 1.356 . S
H226 C220 0.930 . S
H227 C221 0.930 . S
C228 N229 1.314 . S
C228 C230 1.353 . S
C228 H234 0.930 . S
N229 Li179 1.990 . S
N229 C228 1.314 . S
N229 C232 1.279 . S
C230 C228 1.353 . S
C230 C233 1.348 . S
C230 H262 0.929 . S
C231 C232 1.358 . S
C231 C233 1.356 . S
C231 H263 0.930 1_554 S
C232 N229 1.279 . S
C232 C231 1.358 . S
C232 H235 0.930 . S
C233 C230 1.348 . S
C233 C231 1.356 . S
H234 C228 0.930 . S
H235 C232 0.930 . S
O236 Li176 1.956 . S
O236 Li177 1.970 . S
O236 Li178 1.961 . S
O236 C180 1.325 1_565 S
O237 Li176 1.970 . S
O237 Li177 1.956 . S
O237 Li179 1.961 . S
O237 C186 1.325 . S
O238 Li176 1.961 . S
O238 Li178 1.956 . S
O238 Li179 1.970 . S
O238 C208 1.325 . S
O239 Li177 1.961 . S
O239 Li178 1.970 . S
O239 Li179 1.956 . S
O239 C214 1.325 . S
H240 C182 0.929 1_565 S
H241 C183 0.930 . S
H242 C184 0.930 . S
H243 C185 0.930 . S
H244 C187 0.930 . S
H245 C189 0.929 . S
H246 C190 0.930 . S
H247 C191 0.930 . S
H248 C194 0.930 . S
H249 C197 0.929 . S
H250 C202 0.929 . S
H251 C203 0.930 . S
H252 C210 0.929 . S
H253 C211 0.930 . S
H254 C212 0.930 . S
H255 C213 0.930 . S
H256 C215 0.929 1_545 S
H257 C216 0.930 . S
H258 C217 0.930 1_545 S
H259 C218 0.930 . S
H260 C222 0.929 . S
H261 C224 0.930 . S
H262 C230 0.929 . S
H263 C231 0.930 1_556 S
Li264 N281 1.990 . S
Li264 O324 1.956 . S
Li264 O325 1.970 . S
Li264 O326 1.961 . S
Li265 N289 1.990 1_565 S
Li265 O324 1.970 . S
Li265 O325 1.956 . S
Li265 O327 1.961 . S
Li266 N311 1.990 . S
Li266 O324 1.961 . S
Li266 O326 1.956 . S
Li266 O327 1.970 . S
Li267 N317 1.990 . S
Li267 O325 1.961 . S
Li267 O326 1.970 . S
Li267 O327 1.956 . S
C268 C270 1.348 . S
C268 C271 1.356 . S
C268 O324 1.325 . S
N269 C272 1.314 . S
N269 C273 1.279 . S
C270 C268 1.348 . S
C270 C272 1.353 . S
C270 H328 0.929 1_565 S
C271 C268 1.356 . S
C271 C273 1.358 . S
C271 H329 0.930 . S
C272 N269 1.314 . S
C272 C270 1.353 . S
C272 H330 0.930 1_565 S
C273 N269 1.279 . S
C273 C271 1.358 . S
C273 H331 0.930 . S
C274 C277 1.348 . S
C274 C278 1.356 . S
C274 O325 1.325 . S
C275 N276 1.279 . S
C275 C278 1.358 . S
C275 H332 0.930 . S
N276 C275 1.279 . S
N276 C279 1.314 . S
C277 C274 1.348 . S
C277 C279 1.353 . S
C277 H333 0.929 . S
C278 C274 1.356 . S
C278 C275 1.358 . S
C278 H334 0.930 . S
C279 N276 1.314 . S
C279 C277 1.353 . S
C279 H335 0.930 . S
C280 N281 1.314 . S
C280 C285 1.353 . S
C280 H286 0.930 . S
N281 Li264 1.990 . S
N281 C280 1.314 . S
N281 C283 1.279 . S
C282 C283 1.358 . S
C282 C284 1.356 . S
C282 H336 0.930 . S
C283 N281 1.279 . S
C283 C282 1.358 . S
C283 H287 0.930 . S
C284 C282 1.356 . S
C284 C285 1.348 . S
C285 C280 1.353 . S
C285 C284 1.348 . S
C285 H337 0.929 . S
H286 C280 0.930 . S
H287 C283 0.930 . S
C288 N289 1.314 . S
C288 C290 1.353 . S
C288 H294 0.930 . S
N289 Li265 1.990 1_545 S
N289 C288 1.314 . S
N289 C292 1.279 . S
C290 C288 1.353 . S
C290 C293 1.348 . S
C290 H338 0.929 . S
C291 C292 1.358 . S
C291 C293 1.356 . S
C291 H339 0.930 . S
C292 N289 1.279 . S
C292 C291 1.358 . S
C292 H295 0.930 . S
C293 C290 1.348 . S
C293 C291 1.356 . S
H294 C288 0.930 . S
H295 C292 0.930 . S
C296 C298 1.348 . S
C296 C299 1.356 . S
C296 O326 1.325 . S
N297 C300 1.314 . S
N297 C301 1.279 . S
C298 C296 1.348 . S
C298 C300 1.353 . S
C298 H340 0.929 . S
C299 C296 1.356 . S
C299 C301 1.358 . S
C299 H341 0.930 . S
C300 N297 1.314 . S
C300 C298 1.353 . S
C300 H342 0.930 . S
C301 N297 1.279 . S
C301 C299 1.358 . S
C301 H343 0.930 . S
C302 C303 1.348 . S
C302 C304 1.356 . S
C302 O327 1.325 1_545 S
C303 C302 1.348 . S
C303 C305 1.353 . S
C303 H344 0.929 1_545 S
C304 C302 1.356 . S
C304 C306 1.358 . S
C304 H345 0.930 . S
C305 C303 1.353 . S
C305 N307 1.314 . S
C305 H346 0.930 . S
C306 C304 1.358 . S
C306 N307 1.279 . S
C306 H347 0.930 . S
N307 C305 1.314 . S
N307 C306 1.279 . S
C308 C310 1.353 . S
C308 N311 1.314 . S
C308 H314 0.930 . S
C309 N311 1.279 . S
C309 C312 1.358 . S
C309 H315 0.930 . S
C310 C308 1.353 . S
C310 C313 1.348 . S
C310 H348 0.929 . S
N311 Li266 1.990 . S
N311 C308 1.314 . S
N311 C309 1.279 . S
C312 C309 1.358 . S
C312 C313 1.356 . S
C312 H349 0.930 . S
C313 C310 1.348 . S
C313 C312 1.356 . S
H314 C308 0.930 . S
H315 C309 0.930 . S
C316 N317 1.314 . S
C316 C318 1.353 . S
C316 H322 0.930 . S
N317 Li267 1.990 . S
N317 C316 1.314 . S
N317 C320 1.279 . S
C318 C316 1.353 . S
C318 C321 1.348 . S
C318 H350 0.929 . S
C319 C320 1.358 . S
C319 C321 1.356 . S
C319 H351 0.930 . S
C320 N317 1.279 . S
C320 C319 1.358 . S
C320 H323 0.930 . S
C321 C318 1.348 . S
C321 C319 1.356 . S
H322 C316 0.930 . S
H323 C320 0.930 . S
O324 Li264 1.956 . S
O324 Li265 1.970 . S
O324 Li266 1.961 . S
O324 C268 1.325 . S
O325 Li264 1.970 . S
O325 Li265 1.956 . S
O325 Li267 1.961 . S
O325 C274 1.325 . S
O326 Li264 1.961 . S
O326 Li266 1.956 . S
O326 Li267 1.970 . S
O326 C296 1.325 . S
O327 Li265 1.961 . S
O327 Li266 1.970 . S
O327 Li267 1.956 . S
O327 C302 1.325 1_565 S
H328 C270 0.929 1_545 S
H329 C271 0.930 . S
H330 C272 0.930 1_545 S
H331 C273 0.930 . S
H332 C275 0.930 . S
H333 C277 0.929 . S
H334 C278 0.930 . S
H335 C279 0.930 . S
H336 C282 0.930 . S
H337 C285 0.929 . S
H338 C290 0.929 . S
H339 C291 0.930 . S
H340 C298 0.929 . S
H341 C299 0.930 . S
H342 C300 0.930 . S
H343 C301 0.930 . S
H344 C303 0.929 1_565 S
H345 C304 0.930 . S
H346 C305 0.930 . S
H347 C306 0.930 . S
H348 C310 0.929 . S
H349 C312 0.930 . S
H350 C318 0.929 . S
H351 C319 0.930 . S
Li352 N369 1.990 . S
Li352 O412 1.956 . S
Li352 O413 1.970 . S
Li352 O414 1.961 . S
Li353 N377 1.990 1_455 S
Li353 O412 1.970 . S
Li353 O413 1.956 . S
Li353 O415 1.961 . S
Li354 N399 1.990 . S
Li354 O412 1.961 . S
Li354 O414 1.956 . S
Li354 O415 1.970 . S
Li355 N405 1.990 . S
Li355 O413 1.961 . S
Li355 O414 1.970 . S
Li355 O415 1.956 . S
C356 C358 1.348 . S
C356 C359 1.356 . S
C356 O412 1.325 . S
N357 C360 1.314 . S
N357 C361 1.279 . S
C358 C356 1.348 . S
C358 C360 1.353 . S
C358 H416 0.929 1_455 S
C359 C356 1.356 . S
C359 C361 1.358 . S
C359 H417 0.930 . S
C360 N357 1.314 . S
C360 C358 1.353 . S
C360 H418 0.930 1_455 S
C361 N357 1.279 . S
C361 C359 1.358 . S
C361 H419 0.930 . S
C362 C365 1.348 . S
C362 C366 1.356 . S
C362 O413 1.325 . S
C363 N364 1.279 . S
C363 C366 1.358 . S
C363 H420 0.930 . S
N364 C363 1.279 . S
N364 C367 1.314 . S
C365 C362 1.348 . S
C365 C367 1.353 . S
C365 H421 0.929 . S
C366 C362 1.356 . S
C366 C363 1.358 . S
C366 H422 0.930 . S
C367 N364 1.314 . S
C367 C365 1.353 . S
C367 H423 0.930 . S
C368 N369 1.314 . S
C368 C373 1.353 . S
C368 H374 0.930 . S
N369 Li352 1.990 . S
N369 C368 1.314 . S
N369 C371 1.279 . S
C370 C371 1.358 . S
C370 C372 1.356 . S
C370 H424 0.930 . S
C371 N369 1.279 . S
C371 C370 1.358 . S
C371 H375 0.930 . S
C372 C370 1.356 . S
C372 C373 1.348 . S
C373 C368 1.353 . S
C373 C372 1.348 . S
C373 H425 0.929 . S
H374 C368 0.930 . S
H375 C371 0.930 . S
C376 N377 1.314 . S
C376 C378 1.353 . S
C376 H382 0.930 . S
N377 Li353 1.990 1_655 S
N377 C376 1.314 . S
N377 C380 1.279 . S
C378 C376 1.353 . S
C378 C381 1.348 . S
C378 H426 0.929 . S
C379 C380 1.358 . S
C379 C381 1.356 . S
C379 H427 0.930 . S
C380 N377 1.279 . S
C380 C379 1.358 . S
C380 H383 0.930 . S
C381 C378 1.348 . S
C381 C379 1.356 . S
H382 C376 0.930 . S
H383 C380 0.930 . S
C384 C386 1.348 . S
C384 C387 1.356 . S
C384 O414 1.325 . S
N385 C388 1.314 . S
N385 C389 1.279 . S
C386 C384 1.348 . S
C386 C388 1.353 . S
C386 H428 0.929 . S
C387 C384 1.356 . S
C387 C389 1.358 . S
C387 H429 0.930 . S
C388 N385 1.314 . S
C388 C386 1.353 . S
C388 H430 0.930 . S
C389 N385 1.279 . S
C389 C387 1.358 . S
C389 H431 0.930 . S
C390 C391 1.348 . S
C390 C392 1.356 . S
C390 O415 1.325 1_655 S
C391 C390 1.348 . S
C391 C393 1.353 . S
C391 H432 0.929 1_655 S
C392 C390 1.356 . S
C392 C394 1.358 . S
C392 H433 0.930 . S
C393 C391 1.353 . S
C393 N395 1.314 . S
C393 H434 0.930 . S
C394 C392 1.358 . S
C394 N395 1.279 . S
C394 H435 0.930 . S
N395 C393 1.314 . S
N395 C394 1.279 . S
C396 C398 1.353 . S
C396 N399 1.314 . S
C396 H402 0.930 . S
C397 N399 1.279 . S
C397 C400 1.358 . S
C397 H403 0.930 . S
C398 C396 1.353 . S
C398 C401 1.348 . S
C398 H436 0.929 . S
N399 Li354 1.990 . S
N399 C396 1.314 . S
N399 C397 1.279 . S
C400 C397 1.358 . S
C400 C401 1.356 . S
C400 H437 0.930 . S
C401 C398 1.348 . S
C401 C400 1.356 . S
H402 C396 0.930 . S
H403 C397 0.930 . S
C404 N405 1.314 . S
C404 C406 1.353 . S
C404 H410 0.930 . S
N405 Li355 1.990 . S
N405 C404 1.314 . S
N405 C408 1.279 . S
C406 C404 1.353 . S
C406 C409 1.348 . S
C406 H438 0.929 . S
C407 C408 1.358 . S
C407 C409 1.356 . S
C407 H439 0.930 . S
C408 N405 1.279 . S
C408 C407 1.358 . S
C408 H411 0.930 . S
C409 C406 1.348 . S
C409 C407 1.356 . S
H410 C404 0.930 . S
H411 C408 0.930 . S
O412 Li352 1.956 . S
O412 Li353 1.970 . S
O412 Li354 1.961 . S
O412 C356 1.325 . S
O413 Li352 1.970 . S
O413 Li353 1.956 . S
O413 Li355 1.961 . S
O413 C362 1.325 . S
O414 Li352 1.961 . S
O414 Li354 1.956 . S
O414 Li355 1.970 . S
O414 C384 1.325 . S
O415 Li353 1.961 . S
O415 Li354 1.970 . S
O415 Li355 1.956 . S
O415 C390 1.325 1_455 S
H416 C358 0.929 1_655 S
H417 C359 0.930 . S
H418 C360 0.930 1_655 S
H419 C361 0.930 . S
H420 C363 0.930 . S
H421 C365 0.929 . S
H422 C366 0.930 . S
H423 C367 0.930 . S
H424 C370 0.930 . S
H425 C373 0.929 . S
H426 C378 0.929 . S
H427 C379 0.930 . S
H428 C386 0.929 . S
H429 C387 0.930 . S
H430 C388 0.930 . S
H431 C389 0.930 . S
H432 C391 0.929 1_455 S
H433 C392 0.930 . S
H434 C393 0.930 . S
H435 C394 0.930 . S
H436 C398 0.929 . S
H437 C400 0.930 . S
H438 C406 0.929 . S
H439 C407 0.930 . S
Li440 N457 1.990 . S
Li440 O500 1.956 . S
Li440 O501 1.970 . S
Li440 O502 1.961 . S
Li441 N465 1.990 . S
Li441 O500 1.970 . S
Li441 O501 1.956 . S
Li441 O503 1.961 . S
Li442 N487 1.990 . S
Li442 O500 1.961 . S
Li442 O502 1.956 . S
Li442 O503 1.970 . S
Li443 N493 1.990 . S
Li443 O501 1.961 . S
Li443 O502 1.970 . S
Li443 O503 1.956 . S
C444 C446 1.348 . S
C444 C447 1.356 . S
C444 O500 1.325 . S
N445 C448 1.314 . S
N445 C449 1.279 . S
C446 C444 1.348 . S
C446 C448 1.353 . S
C446 H504 0.929 . S
C447 C444 1.356 . S
C447 C449 1.358 . S
C447 H505 0.930 . S
C448 N445 1.314 . S
C448 C446 1.353 . S
C448 H506 0.930 . S
C449 N445 1.279 . S
C449 C447 1.358 . S
C449 H507 0.930 . S
C450 C453 1.348 . S
C450 C454 1.356 . S
C450 O501 1.325 . S
C451 N452 1.279 . S
C451 C454 1.358 . S
C451 H508 0.930 . S
N452 C451 1.279 . S
N452 C455 1.314 . S
C453 C450 1.348 . S
C453 C455 1.353 . S
C453 H509 0.929 . S
C454 C450 1.356 . S
C454 C451 1.358 . S
C454 H510 0.930 . S
C455 N452 1.314 . S
C455 C453 1.353 . S
C455 H511 0.930 . S
C456 N457 1.314 . S
C456 C461 1.353 . S
C456 H462 0.930 . S
N457 Li440 1.990 . S
N457 C456 1.314 . S
N457 C459 1.279 . S
C458 C459 1.358 . S
C458 C460 1.356 . S
C458 H512 0.930 . S
C459 N457 1.279 . S
C459 C458 1.358 . S
C459 H463 0.930 . S
C460 C458 1.356 . S
C460 C461 1.348 . S
C461 C456 1.353 . S
C461 C460 1.348 . S
C461 H513 0.929 . S
H462 C456 0.930 . S
H463 C459 0.930 . S
C464 N465 1.314 . S
C464 C466 1.353 . S
C464 H470 0.930 . S
N465 Li441 1.990 . S
N465 C464 1.314 . S
N465 C468 1.279 . S
C466 C464 1.353 . S
C466 C469 1.348 . S
C466 H514 0.929 . S
C467 C468 1.358 . S
C467 C469 1.356 . S
C467 H515 0.930 . S
C468 N465 1.279 . S
C468 C467 1.358 . S
C468 H471 0.930 . S
C469 C466 1.348 . S
C469 C467 1.356 . S
H470 C464 0.930 . S
H471 C468 0.930 . S
C472 C474 1.348 . S
C472 C475 1.356 . S
C472 O502 1.325 . S
N473 C476 1.314 . S
N473 C477 1.279 . S
C474 C472 1.348 . S
C474 C476 1.353 . S
C474 H516 0.929 . S
C475 C472 1.356 . S
C475 C477 1.358 . S
C475 H517 0.930 . S
C476 N473 1.314 . S
C476 C474 1.353 . S
C476 H518 0.930 . S
C477 N473 1.279 . S
C477 C475 1.358 . S
C477 H519 0.930 . S
C478 C479 1.348 . S
C478 C480 1.356 . S
C478 O503 1.325 . S
C479 C478 1.348 . S
C479 C481 1.353 . S
C479 H520 0.929 . S
C480 C478 1.356 . S
C480 C482 1.358 . S
C480 H521 0.930 . S
C481 C479 1.353 . S
C481 N483 1.314 . S
C481 H522 0.930 . S
C482 C480 1.358 . S
C482 N483 1.279 . S
C482 H523 0.930 . S
N483 C481 1.314 . S
N483 C482 1.279 . S
C484 C486 1.353 . S
C484 N487 1.314 . S
C484 H490 0.930 . S
C485 N487 1.279 . S
C485 C488 1.358 . S
C485 H491 0.930 . S
C486 C484 1.353 . S
C486 C489 1.348 . S
C486 H524 0.929 . S
N487 Li442 1.990 . S
N487 C484 1.314 . S
N487 C485 1.279 . S
C488 C485 1.358 . S
C488 C489 1.356 . S
C488 H525 0.930 . S
C489 C486 1.348 . S
C489 C488 1.356 . S
H490 C484 0.930 . S
H491 C485 0.930 . S
C492 N493 1.314 . S
C492 C494 1.353 . S
C492 H498 0.930 . S
N493 Li443 1.990 . S
N493 C492 1.314 . S
N493 C496 1.279 . S
C494 C492 1.353 . S
C494 C497 1.348 . S
C494 H526 0.929 . S
C495 C496 1.358 . S
C495 C497 1.356 . S
C495 H527 0.930 . S
C496 N493 1.279 . S
C496 C495 1.358 . S
C496 H499 0.930 . S
C497 C494 1.348 . S
C497 C495 1.356 . S
H498 C492 0.930 . S
H499 C496 0.930 . S
O500 Li440 1.956 . S
O500 Li441 1.970 . S
O500 Li442 1.961 . S
O500 C444 1.325 . S
O501 Li440 1.970 . S
O501 Li441 1.956 . S
O501 Li443 1.961 . S
O501 C450 1.325 . S
O502 Li440 1.961 . S
O502 Li442 1.956 . S
O502 Li443 1.970 . S
O502 C472 1.325 . S
O503 Li441 1.961 . S
O503 Li442 1.970 . S
O503 Li443 1.956 . S
O503 C478 1.325 . S
H504 C446 0.929 . S
H505 C447 0.930 . S
H506 C448 0.930 . S
H507 C449 0.930 . S
H508 C451 0.930 . S
H509 C453 0.929 . S
H510 C454 0.930 . S
H511 C455 0.930 . S
H512 C458 0.930 . S
H513 C461 0.929 . S
H514 C466 0.929 . S
H515 C467 0.930 . S
H516 C474 0.929 . S
H517 C475 0.930 . S
H518 C476 0.930 . S
H519 C477 0.930 . S
H520 C479 0.929 . S
H521 C480 0.930 . S
H522 C481 0.930 . S
H523 C482 0.930 . S
H524 C486 0.929 . S
H525 C488 0.930 . S
H526 C494 0.929 . S
H527 C495 0.930 . S
Li528 N545 1.990 . S
Li528 O588 1.956 . S
Li528 O589 1.970 . S
Li528 O590 1.961 . S
Li529 N553 1.990 . S
Li529 O588 1.970 . S
Li529 O589 1.956 . S
Li529 O591 1.961 . S
Li530 N575 1.990 1_655 S
Li530 O588 1.961 . S
Li530 O590 1.956 . S
Li530 O591 1.970 . S
Li531 N581 1.990 . S
Li531 O589 1.961 . S
Li531 O590 1.970 . S
Li531 O591 1.956 . S
C532 C534 1.348 . S
C532 C535 1.356 . S
C532 O588 1.325 . S
N533 C536 1.314 . S
N533 C537 1.279 . S
C534 C532 1.348 . S
C534 C536 1.353 1_556 S
C534 H592 0.929 . S
C535 C532 1.356 . S
C535 C537 1.358 1_556 S
C535 H593 0.930 . S
C536 N533 1.314 . S
C536 C534 1.353 1_554 S
C536 H594 0.930 . S
C537 N533 1.279 . S
C537 C535 1.358 1_554 S
C537 H595 0.930 . S
C538 C541 1.348 . S
C538 C542 1.356 . S
C538 O589 1.325 . S
C539 N540 1.279 . S
C539 C542 1.358 . S
C539 H596 0.930 . S
N540 C539 1.279 . S
N540 C543 1.314 . S
C541 C538 1.348 . S
C541 C543 1.353 . S
C541 H597 0.929 . S
C542 C538 1.356 . S
C542 C539 1.358 . S
C542 H598 0.930 . S
C543 N540 1.314 . S
C543 C541 1.353 . S
C543 H599 0.930 . S
C544 N545 1.314 . S
C544 C549 1.353 . S
C544 H550 0.930 . S
N545 Li528 1.990 . S
N545 C544 1.314 . S
N545 C547 1.279 . S
C546 C547 1.358 . S
C546 C548 1.356 . S
C546 H600 0.930 1_556 S
C547 N545 1.279 . S
C547 C546 1.358 . S
C547 H551 0.930 . S
C548 C546 1.356 . S
C548 C549 1.348 . S
C549 C544 1.353 . S
C549 C548 1.348 . S
C549 H601 0.929 . S
H550 C544 0.930 . S
H551 C547 0.930 . S
C552 N553 1.314 . S
C552 C554 1.353 . S
C552 H558 0.930 1_655 S
N553 Li529 1.990 . S
N553 C552 1.314 . S
N553 C556 1.279 . S
C554 C552 1.353 . S
C554 C557 1.348 . S
C554 H602 0.929 1_655 S
C555 C556 1.358 . S
C555 C557 1.356 . S
C555 H603 0.930 . S
C556 N553 1.279 . S
C556 C555 1.358 . S
C556 H559 0.930 . S
C557 C554 1.348 . S
C557 C555 1.356 . S
H558 C552 0.930 1_455 S
H559 C556 0.930 . S
C560 C562 1.348 . S
C560 C563 1.356 . S
C560 O590 1.325 . S
N561 C564 1.314 . S
N561 C565 1.279 . S
C562 C560 1.348 . S
C562 C564 1.353 . S
C562 H604 0.929 . S
C563 C560 1.356 . S
C563 C565 1.358 . S
C563 H605 0.930 . S
C564 N561 1.314 . S
C564 C562 1.353 . S
C564 H606 0.930 . S
C565 N561 1.279 . S
C565 C563 1.358 . S
C565 H607 0.930 . S
C566 C567 1.348 . S
C566 C568 1.354 . S
C566 O591 1.325 1_455 S
C567 C566 1.348 . S
C567 C569 1.353 . S
C567 H608 0.929 . S
C568 C566 1.354 . S
C568 C570 1.365 . S
C568 H609 0.925 1_455 S
C569 C567 1.353 . S
C569 N571 1.314 . S
C569 H610 0.930 . S
C570 C568 1.365 . S
C570 N571 1.279 . S
C570 H611 0.930 . S
N571 C569 1.314 . S
N571 C570 1.279 . S
C572 C574 1.353 . S
C572 N575 1.314 . S
C572 H578 0.930 . S
C573 N575 1.279 . S
C573 C576 1.358 . S
C573 H579 0.930 . S
C574 C572 1.353 . S
C574 C577 1.348 . S
C574 H612 0.929 . S
N575 Li530 1.990 1_455 S
N575 C572 1.314 . S
N575 C573 1.279 . S
C576 C573 1.358 . S
C576 C577 1.356 . S
C576 H613 0.930 . S
C577 C574 1.348 . S
C577 C576 1.356 . S
H578 C572 0.930 . S
H579 C573 0.930 . S
C580 N581 1.314 . S
C580 C582 1.353 . S
C580 H586 0.930 . S
N581 Li531 1.990 . S
N581 C580 1.314 . S
N581 C584 1.279 . S
C582 C580 1.353 . S
C582 C585 1.348 . S
C582 H614 0.929 . S
C583 C584 1.358 . S
C583 C585 1.356 . S
C583 H615 0.930 . S
C584 N581 1.279 . S
C584 C583 1.358 . S
C584 H587 0.930 . S
C585 C582 1.348 . S
C585 C583 1.356 . S
H586 C580 0.930 . S
H587 C584 0.930 . S
O588 Li528 1.956 . S
O588 Li529 1.970 . S
O588 Li530 1.961 . S
O588 C532 1.325 . S
O589 Li528 1.970 . S
O589 Li529 1.956 . S
O589 Li531 1.961 . S
O589 C538 1.325 . S
O590 Li528 1.961 . S
O590 Li530 1.956 . S
O590 Li531 1.970 . S
O590 C560 1.325 . S
O591 Li529 1.961 . S
O591 Li530 1.970 . S
O591 Li531 1.956 . S
O591 C566 1.325 1_655 S
H592 C534 0.929 . S
H593 C535 0.930 . S
H594 C536 0.930 . S
H595 C537 0.930 . S
H596 C539 0.930 . S
H597 C541 0.929 . S
H598 C542 0.930 . S
H599 C543 0.930 . S
H600 C546 0.930 1_554 S
H601 C549 0.929 . S
H602 C554 0.929 1_455 S
H603 C555 0.930 . S
H604 C562 0.929 . S
H605 C563 0.930 . S
H606 C564 0.930 . S
H607 C565 0.930 . S
H608 C567 0.929 . S
H609 C568 0.925 1_655 S
H610 C569 0.930 . S
H611 C570 0.930 . S
H612 C574 0.929 . S
H613 C576 0.930 . S
H614 C582 0.929 . S
H615 C583 0.930 . S
Li616 N633 1.990 . S
Li616 O676 1.956 . S
Li616 O677 1.970 . S
Li616 O678 1.961 . S
Li617 N641 1.990 . S
Li617 O676 1.970 . S
Li617 O677 1.956 . S
Li617 O679 1.961 . S
Li618 N663 1.990 . S
Li618 O676 1.961 . S
Li618 O678 1.956 . S
Li618 O679 1.970 . S
Li619 N669 1.990 . S
Li619 O677 1.961 . S
Li619 O678 1.970 . S
Li619 O679 1.956 . S
C620 C622 1.348 . S
C620 C623 1.356 . S
C620 O676 1.325 . S
N621 C624 1.314 . S
N621 C625 1.279 . S
C622 C620 1.348 . S
C622 C624 1.353 . S
C622 H680 0.929 . S
C623 C620 1.356 . S
C623 C625 1.358 . S
C623 H681 0.930 . S
C624 N621 1.314 . S
C624 C622 1.353 . S
C624 H682 0.930 . S
C625 N621 1.279 . S
C625 C623 1.358 . S
C625 H683 0.930 . S
C626 C629 1.348 . S
C626 C630 1.356 . S
C626 O677 1.325 . S
C627 N628 1.279 . S
C627 C630 1.358 1_554 S
C627 H684 0.930 . S
N628 C627 1.279 . S
N628 C631 1.314 . S
C629 C626 1.348 . S
C629 C631 1.353 1_556 S
C629 H685 0.929 . S
C630 C626 1.356 . S
C630 C627 1.358 1_556 S
C630 H686 0.930 . S
C631 N628 1.314 . S
C631 C629 1.353 1_554 S
C631 H687 0.930 . S
C632 N633 1.314 . S
C632 C637 1.353 . S
C632 H638 0.930 . S
N633 Li616 1.990 . S
N633 C632 1.314 . S
N633 C635 1.279 . S
C634 C635 1.358 . S
C634 C636 1.356 . S
C634 H688 0.930 . S
C635 N633 1.279 . S
C635 C634 1.358 . S
C635 H639 0.930 . S
C636 C634 1.356 . S
C636 C637 1.348 . S
C637 C632 1.353 . S
C637 C636 1.348 . S
C637 H689 0.929 . S
H638 C632 0.930 . S
H639 C635 0.930 . S
C640 N641 1.314 . S
C640 C642 1.353 . S
C640 H646 0.930 . S
N641 Li617 1.990 . S
N641 C640 1.314 . S
N641 C644 1.279 . S
C642 C640 1.353 . S
C642 C645 1.348 . S
C642 H690 0.929 . S
C643 C644 1.358 . S
C643 C645 1.356 . S
C643 H691 0.930 . S
C644 N641 1.279 . S
C644 C643 1.358 . S
C644 H647 0.930 . S
C645 C642 1.348 . S
C645 C643 1.356 . S
H646 C640 0.930 . S
H647 C644 0.930 . S
C648 C650 1.348 . S
C648 C651 1.356 . S
C648 O678 1.325 . S
N649 C652 1.314 . S
N649 C653 1.279 . S
C650 C648 1.348 . S
C650 C652 1.353 . S
C650 H692 0.929 . S
C651 C648 1.356 . S
C651 C653 1.358 . S
C651 H693 0.930 . S
C652 N649 1.314 . S
C652 C650 1.353 . S
C652 H694 0.930 . S
C653 N649 1.279 . S
C653 C651 1.358 . S
C653 H695 0.930 . S
C654 C655 1.348 . S
C654 C656 1.356 . S
C654 O679 1.325 . S
C655 C654 1.348 . S
C655 C657 1.353 . S
C655 H696 0.929 . S
C656 C654 1.356 . S
C656 C658 1.358 . S
C656 H697 0.930 . S
C657 C655 1.353 . S
C657 N659 1.314 . S
C657 H698 0.930 . S
C658 C656 1.358 . S
C658 N659 1.279 . S
C658 H699 0.930 . S
N659 C657 1.314 . S
N659 C658 1.279 . S
C660 C662 1.353 . S
C660 N663 1.314 . S
C660 H666 0.930 . S
C661 N663 1.279 . S
C661 C664 1.358 . S
C661 H667 0.930 . S
C662 C660 1.353 . S
C662 C665 1.348 . S
C662 H700 0.929 . S
N663 Li618 1.990 . S
N663 C660 1.314 . S
N663 C661 1.279 . S
C664 C661 1.358 . S
C664 C665 1.356 . S
C664 H701 0.930 . S
C665 C662 1.348 . S
C665 C664 1.356 . S
H666 C660 0.930 . S
H667 C661 0.930 . S
C668 N669 1.314 . S
C668 C670 1.353 . S
C668 H674 0.930 . S
N669 Li619 1.990 . S
N669 C668 1.314 . S
N669 C672 1.279 . S
C670 C668 1.353 . S
C670 C673 1.348 . S
C670 H702 0.929 1_556 S
C671 C672 1.358 . S
C671 C673 1.356 . S
C671 H703 0.930 . S
C672 N669 1.279 . S
C672 C671 1.358 . S
C672 H675 0.930 . S
C673 C670 1.348 . S
C673 C671 1.356 . S
H674 C668 0.930 . S
H675 C672 0.930 . S
O676 Li616 1.956 . S
O676 Li617 1.970 . S
O676 Li618 1.961 . S
O676 C620 1.325 . S
O677 Li616 1.970 . S
O677 Li617 1.956 . S
O677 Li619 1.961 . S
O677 C626 1.325 . S
O678 Li616 1.961 . S
O678 Li618 1.956 . S
O678 Li619 1.970 . S
O678 C648 1.325 . S
O679 Li617 1.961 . S
O679 Li618 1.970 . S
O679 Li619 1.956 . S
O679 C654 1.325 . S
H680 C622 0.929 . S
H681 C623 0.930 . S
H682 C624 0.930 . S
H683 C625 0.930 . S
H684 C627 0.930 . S
H685 C629 0.929 . S
H686 C630 0.930 . S
H687 C631 0.930 . S
H688 C634 0.930 . S
H689 C637 0.929 . S
H690 C642 0.929 . S
H691 C643 0.930 . S
H692 C650 0.929 . S
H693 C651 0.930 . S
H694 C652 0.930 . S
H695 C653 0.930 . S
H696 C655 0.929 . S
H697 C656 0.930 . S
H698 C657 0.930 . S
H699 C658 0.930 . S
H700 C662 0.929 . S
H701 C664 0.930 . S
H702 C670 0.929 1_554 S
H703 C671 0.930 . S
Li704 N721 1.990 . S
Li704 O764 1.956 . S
Li704 O765 1.970 . S
Li704 O766 1.961 . S
Li705 N729 1.990 . S
Li705 O764 1.970 . S
Li705 O765 1.956 . S
Li705 O767 1.961 . S
Li706 N751 1.990 1_545 S
Li706 O764 1.961 . S
Li706 O766 1.956 . S
Li706 O767 1.970 . S
Li707 N757 1.990 . S
Li707 O765 1.961 . S
Li707 O766 1.970 . S
Li707 O767 1.956 . S
C708 C710 1.348 . S
C708 C711 1.356 . S
C708 O764 1.325 . S
N709 C712 1.314 . S
N709 C713 1.279 . S
C710 C708 1.348 . S
C710 C712 1.353 . S
C710 H768 0.929 . S
C711 C708 1.356 . S
C711 C713 1.358 . S
C711 H769 0.930 . S
C712 N709 1.314 . S
C712 C710 1.353 . S
C712 H770 0.930 . S
C713 N709 1.279 . S
C713 C711 1.358 . S
C713 H771 0.930 . S
C714 C717 1.348 . S
C714 C718 1.356 . S
C714 O765 1.325 . S
C715 N716 1.279 . S
C715 C718 1.358 . S
C715 H772 0.930 . S
N716 C715 1.279 . S
N716 C719 1.314 . S
C717 C714 1.348 . S
C717 C719 1.353 . S
C717 H773 0.929 . S
C718 C714 1.356 . S
C718 C715 1.358 . S
C718 H774 0.930 . S
C719 N716 1.314 . S
C719 C717 1.353 . S
C719 H775 0.930 . S
C720 N721 1.314 . S
C720 C725 1.353 . S
C720 H726 0.930 . S
N721 Li704 1.990 . S
N721 C720 1.314 . S
N721 C723 1.279 . S
C722 C723 1.358 . S
C722 C724 1.356 . S
C722 H776 0.930 . S
C723 N721 1.279 . S
C723 C722 1.358 . S
C723 H727 0.930 . S
C724 C722 1.356 . S
C724 C725 1.348 . S
C725 C720 1.353 . S
C725 C724 1.348 . S
C725 H777 0.929 . S
H726 C720 0.930 . S
H727 C723 0.930 . S
C728 N729 1.314 . S
C728 C730 1.353 . S
C728 H734 0.930 . S
N729 Li705 1.990 . S
N729 C728 1.314 . S
N729 C732 1.279 . S
C730 C728 1.353 . S
C730 C733 1.348 . S
C730 H778 0.929 1_556 S
C731 C732 1.358 . S
C731 C733 1.356 . S
C731 H779 0.930 . S
C732 N729 1.279 . S
C732 C731 1.358 . S
C732 H735 0.930 . S
C733 C730 1.348 . S
C733 C731 1.356 . S
H734 C728 0.930 . S
H735 C732 0.930 . S
C736 C738 1.348 . S
C736 C739 1.356 . S
C736 O766 1.325 1_565 S
N737 C740 1.314 . S
N737 C741 1.279 . S
C738 C736 1.348 . S
C738 C740 1.353 . S
C738 H780 0.929 . S
C739 C736 1.356 . S
C739 C741 1.358 . S
C739 H781 0.930 . S
C740 N737 1.314 . S
C740 C738 1.353 . S
C740 H782 0.930 . S
C741 N737 1.279 . S
C741 C739 1.358 . S
C741 H783 0.930 . S
C742 C743 1.336 1_545 S
C742 C744 1.356 . S
C742 O767 1.325 . S
C743 C742 1.336 1_565 S
C743 C745 1.354 1_556 S
C743 H784 0.940 . S
C744 C742 1.356 . S
C744 C746 1.358 1_556 S
C744 H785 0.930 . S
C745 C743 1.354 1_554 S
C745 N747 1.314 1_565 S
C745 H786 0.930 . S
C746 C744 1.358 1_554 S
C746 N747 1.279 . S
C746 H787 0.930 . S
N747 C745 1.314 1_545 S
N747 C746 1.279 . S
C748 C750 1.353 . S
C748 N751 1.314 . S
C748 H754 0.930 . S
C749 N751 1.279 . S
C749 C752 1.358 . S
C749 H755 0.930 . S
C750 C748 1.353 . S
C750 C753 1.348 . S
C750 H788 0.929 . S
N751 Li706 1.990 1_565 S
N751 C748 1.314 . S
N751 C749 1.279 . S
C752 C749 1.358 . S
C752 C753 1.356 . S
C752 H789 0.930 . S
C753 C750 1.348 . S
C753 C752 1.356 . S
H754 C748 0.930 . S
H755 C749 0.930 . S
C756 N757 1.314 . S
C756 C758 1.353 . S
C756 H762 0.930 . S
N757 Li707 1.990 . S
N757 C756 1.314 . S
N757 C760 1.279 . S
C758 C756 1.353 . S
C758 C761 1.348 . S
C758 H790 0.929 . S
C759 C760 1.358 . S
C759 C761 1.356 . S
C759 H791 0.930 . S
C760 N757 1.279 . S
C760 C759 1.358 . S
C760 H763 0.930 . S
C761 C758 1.348 . S
C761 C759 1.356 . S
H762 C756 0.930 . S
H763 C760 0.930 . S
O764 Li704 1.956 . S
O764 Li705 1.970 . S
O764 Li706 1.961 . S
O764 C708 1.325 . S
O765 Li704 1.970 . S
O765 Li705 1.956 . S
O765 Li707 1.961 . S
O765 C714 1.325 . S
O766 Li704 1.961 . S
O766 Li706 1.956 . S
O766 Li707 1.970 . S
O766 C736 1.325 1_545 S
O767 Li705 1.961 . S
O767 Li706 1.970 . S
O767 Li707 1.956 . S
O767 C742 1.325 . S
H768 C710 0.929 . S
H769 C711 0.930 . S
H770 C712 0.930 . S
H771 C713 0.930 . S
H772 C715 0.930 . S
H773 C717 0.929 . S
H774 C718 0.930 . S
H775 C719 0.930 . S
H776 C722 0.930 . S
H777 C725 0.929 . S
H778 C730 0.929 1_554 S
H779 C731 0.930 . S
H780 C738 0.929 . S
H781 C739 0.930 . S
H782 C740 0.930 . S
H783 C741 0.930 . S
H784 C743 0.940 . S
H785 C744 0.930 . S
H786 C745 0.930 . S
H787 C746 0.930 . S
H788 C750 0.929 . S
H789 C752 0.930 . S
H790 C758 0.929 . S
H791 C759 0.930 . S
Li792 N809 1.990 . S
Li792 O852 1.956 . S
Li792 O853 1.970 . S
Li792 O854 1.961 . S
Li793 N817 1.990 . S
Li793 O852 1.970 . S
Li793 O853 1.956 . S
Li793 O855 1.961 . S
Li794 N839 1.990 . S
Li794 O852 1.961 . S
Li794 O854 1.956 . S
Li794 O855 1.970 . S
Li795 N845 1.990 1_545 S
Li795 O853 1.961 . S
Li795 O854 1.970 . S
Li795 O855 1.956 . S
C796 C798 1.348 . S
C796 C799 1.356 . S
C796 O852 1.325 . S
N797 C800 1.314 . S
N797 C801 1.279 . S
C798 C796 1.348 . S
C798 C800 1.353 . S
C798 H856 0.929 . S
C799 C796 1.356 . S
C799 C801 1.358 . S
C799 H857 0.930 . S
C800 N797 1.314 . S
C800 C798 1.353 . S
C800 H858 0.930 . S
C801 N797 1.279 . S
C801 C799 1.358 . S
C801 H859 0.930 . S
C802 C805 1.348 . S
C802 C806 1.356 . S
C802 O853 1.325 . S
C803 N804 1.279 . S
C803 C806 1.358 . S
C803 H860 0.930 . S
N804 C803 1.279 . S
N804 C807 1.314 . S
C805 C802 1.348 . S
C805 C807 1.353 . S
C805 H861 0.929 . S
C806 C802 1.356 . S
C806 C803 1.358 . S
C806 H862 0.930 . S
C807 N804 1.314 . S
C807 C805 1.353 . S
C807 H863 0.930 . S
C808 N809 1.314 . S
C808 C813 1.353 . S
C808 H814 0.930 . S
N809 Li792 1.990 . S
N809 C808 1.314 . S
N809 C811 1.279 . S
C810 C811 1.358 . S
C810 C812 1.356 . S
C810 H864 0.930 . S
C811 N809 1.279 . S
C811 C810 1.358 . S
C811 H815 0.930 . S
C812 C810 1.356 . S
C812 C813 1.348 . S
C813 C808 1.353 . S
C813 C812 1.348 . S
C813 H865 0.929 . S
H814 C808 0.930 . S
H815 C811 0.930 . S
C816 N817 1.314 . S
C816 C818 1.353 . S
C816 H822 0.930 . S
N817 Li793 1.990 . S
N817 C816 1.314 . S
N817 C820 1.279 . S
C818 C816 1.353 . S
C818 C821 1.348 . S
C818 H866 0.929 . S
C819 C820 1.358 . S
C819 C821 1.356 . S
C819 H867 0.930 . S
C820 N817 1.279 . S
C820 C819 1.358 . S
C820 H823 0.930 . S
C821 C818 1.348 . S
C821 C819 1.356 . S
H822 C816 0.930 . S
H823 C820 0.930 . S
C824 C826 1.337 1_545 S
C824 C827 1.356 . S
C824 O854 1.325 . S
N825 C828 1.314 1_545 S
N825 C829 1.279 . S
C826 C824 1.337 1_565 S
C826 C828 1.356 . S
C826 H868 0.937 . S
C827 C824 1.356 . S
C827 C829 1.358 . S
C827 H869 0.930 . S
C828 N825 1.314 1_565 S
C828 C826 1.356 . S
C828 H870 0.930 . S
C829 N825 1.279 . S
C829 C827 1.358 . S
C829 H871 0.930 . S
C830 C831 1.348 . S
C830 C832 1.356 . S
C830 O855 1.325 1_565 S
C831 C830 1.348 . S
C831 C833 1.353 . S
C831 H872 0.929 . S
C832 C830 1.356 . S
C832 C834 1.358 . S
C832 H873 0.930 . S
C833 C831 1.353 . S
C833 N835 1.314 . S
C833 H874 0.930 . S
C834 C832 1.358 . S
C834 N835 1.279 . S
C834 H875 0.930 . S
N835 C833 1.314 . S
N835 C834 1.279 . S
C836 C838 1.353 . S
C836 N839 1.314 . S
C836 H842 0.930 . S
C837 N839 1.279 . S
C837 C840 1.358 . S
C837 H843 0.930 . S
C838 C836 1.353 . S
C838 C841 1.348 . S
C838 H876 0.929 . S
N839 Li794 1.990 . S
N839 C836 1.314 . S
N839 C837 1.279 . S
C840 C837 1.358 . S
C840 C841 1.356 . S
C840 H877 0.930 . S
C841 C838 1.348 . S
C841 C840 1.356 . S
H842 C836 0.930 . S
H843 C837 0.930 . S
C844 N845 1.314 . S
C844 C846 1.353 . S
C844 H850 0.930 . S
N845 Li795 1.990 1_565 S
N845 C844 1.314 . S
N845 C848 1.279 . S
C846 C844 1.353 . S
C846 C849 1.348 . S
C846 H878 0.929 . S
C847 C848 1.358 . S
C847 C849 1.356 . S
C847 H879 0.930 . S
C848 N845 1.279 . S
C848 C847 1.358 . S
C848 H851 0.930 . S
C849 C846 1.348 . S
C849 C847 1.356 . S
H850 C844 0.930 . S
H851 C848 0.930 . S
O852 Li792 1.956 . S
O852 Li793 1.970 . S
O852 Li794 1.961 . S
O852 C796 1.325 . S
O853 Li792 1.970 . S
O853 Li793 1.956 . S
O853 Li795 1.961 . S
O853 C802 1.325 . S
O854 Li792 1.961 . S
O854 Li794 1.956 . S
O854 Li795 1.970 . S
O854 C824 1.325 . S
O855 Li793 1.961 . S
O855 Li794 1.970 . S
O855 Li795 1.956 . S
O855 C830 1.325 1_545 S
H856 C798 0.929 . S
H857 C799 0.930 . S
H858 C800 0.930 . S
H859 C801 0.930 . S
H860 C803 0.930 . S
H861 C805 0.929 . S
H862 C806 0.930 . S
H863 C807 0.930 . S
H864 C810 0.930 . S
H865 C813 0.929 . S
H866 C818 0.929 . S
H867 C819 0.930 . S
H868 C826 0.937 . S
H869 C827 0.930 . S
H870 C828 0.930 . S
H871 C829 0.930 . S
H872 C831 0.929 . S
H873 C832 0.930 . S
H874 C833 0.930 . S
H875 C834 0.930 . S
H876 C838 0.929 . S
H877 C840 0.930 . S
H878 C846 0.929 . S
H879 C847 0.930 . S
Li880 N897 1.990 1_655 S
Li880 O940 1.956 . S
Li880 O941 1.970 . S
Li880 O942 1.961 . S
Li881 N905 1.990 . S
Li881 O940 1.970 . S
Li881 O941 1.956 . S
Li881 O943 1.961 . S
Li882 N927 1.990 . S
Li882 O940 1.961 . S
Li882 O942 1.956 . S
Li882 O943 1.970 . S
Li883 N933 1.990 . S
Li883 O941 1.961 . S
Li883 O942 1.970 . S
Li883 O943 1.956 . S
C884 C886 1.348 . S
C884 C887 1.356 . S
C884 O940 1.325 1_455 S
N885 C888 1.314 . S
N885 C889 1.279 . S
C886 C884 1.348 . S
C886 C888 1.353 . S
C886 H944 0.929 . S
C887 C884 1.356 . S
C887 C889 1.358 . S
C887 H945 0.930 . S
C888 N885 1.314 . S
C888 C886 1.353 . S
C888 H946 0.930 . S
C889 N885 1.279 . S
C889 C887 1.358 . S
C889 H947 0.930 . S
C890 C893 1.328 1_655 S
C890 C894 1.356 . S
C890 O941 1.325 . S
C891 N892 1.279 . S
C891 C894 1.358 . S
C891 H948 0.930 . S
N892 C891 1.279 . S
N892 C895 1.314 1_655 S
C893 C890 1.328 1_455 S
C893 C895 1.355 . S
C893 H949 0.948 . S
C894 C890 1.356 . S
C894 C891 1.358 . S
C894 H950 0.930 . S
C895 N892 1.314 1_455 S
C895 C893 1.355 . S
C895 H951 0.930 . S
C896 N897 1.314 . S
C896 C901 1.353 . S
C896 H902 0.930 . S
N897 Li880 1.990 1_455 S
N897 C896 1.314 . S
N897 C899 1.279 . S
C898 C899 1.358 . S
C898 C900 1.356 . S
C898 H952 0.930 . S
C899 N897 1.279 . S
C899 C898 1.358 . S
C899 H903 0.930 . S
C900 C898 1.356 . S
C900 C901 1.348 . S
C901 C896 1.353 . S
C901 C900 1.348 . S
C901 H953 0.929 . S
H902 C896 0.930 . S
H903 C899 0.930 . S
C904 N905 1.314 . S
C904 C906 1.353 . S
C904 H910 0.930 . S
N905 Li881 1.990 . S
N905 C904 1.314 . S
N905 C908 1.279 . S
C906 C904 1.353 . S
C906 C909 1.348 . S
C906 H954 0.929 . S
C907 C908 1.358 . S
C907 C909 1.356 . S
C907 H955 0.930 . S
C908 N905 1.279 . S
C908 C907 1.358 . S
C908 H911 0.930 . S
C909 C906 1.348 . S
C909 C907 1.356 . S
H910 C904 0.930 . S
H911 C908 0.930 . S
C912 C914 1.348 . S
C912 C915 1.356 . S
C912 O942 1.325 . S
N913 C916 1.314 . S
N913 C917 1.279 . S
C914 C912 1.348 . S
C914 C916 1.353 . S
C914 H956 0.929 . S
C915 C912 1.356 . S
C915 C917 1.358 . S
C915 H957 0.930 . S
C916 N913 1.314 . S
C916 C914 1.353 . S
C916 H958 0.930 . S
C917 N913 1.279 . S
C917 C915 1.358 . S
C917 H959 0.930 . S
C918 C919 1.348 . S
C918 C920 1.356 . S
C918 O943 1.325 . S
C919 C918 1.348 . S
C919 C921 1.353 . S
C919 H960 0.929 . S
C920 C918 1.356 . S
C920 C922 1.358 . S
C920 H961 0.930 . S
C921 C919 1.353 . S
C921 N923 1.314 . S
C921 H962 0.930 . S
C922 C920 1.358 . S
C922 N923 1.279 . S
C922 H963 0.930 . S
N923 C921 1.314 . S
N923 C922 1.279 . S
C924 C926 1.353 . S
C924 N927 1.314 . S
C924 H930 0.930 . S
C925 N927 1.279 . S
C925 C928 1.358 . S
C925 H931 0.930 . S
C926 C924 1.353 . S
C926 C929 1.348 . S
C926 H964 0.929 . S
N927 Li882 1.990 . S
N927 C924 1.314 . S
N927 C925 1.279 . S
C928 C925 1.358 . S
C928 C929 1.356 . S
C928 H965 0.930 . S
C929 C926 1.348 . S
C929 C928 1.356 . S
H930 C924 0.930 . S
H931 C925 0.930 . S
C932 N933 1.314 . S
C932 C934 1.353 . S
C932 H938 0.930 . S
N933 Li883 1.990 . S
N933 C932 1.314 . S
N933 C936 1.279 . S
C934 C932 1.353 . S
C934 C937 1.348 . S
C934 H966 0.929 . S
C935 C936 1.358 . S
C935 C937 1.356 . S
C935 H967 0.930 . S
C936 N933 1.279 . S
C936 C935 1.358 . S
C936 H939 0.930 . S
C937 C934 1.348 . S
C937 C935 1.356 . S
H938 C932 0.930 . S
H939 C936 0.930 . S
O940 Li880 1.956 . S
O940 Li881 1.970 . S
O940 Li882 1.961 . S
O940 C884 1.325 1_655 S
O941 Li880 1.970 . S
O941 Li881 1.956 . S
O941 Li883 1.961 . S
O941 C890 1.325 . S
O942 Li880 1.961 . S
O942 Li882 1.956 . S
O942 Li883 1.970 . S
O942 C912 1.325 . S
O943 Li881 1.961 . S
O943 Li882 1.970 . S
O943 Li883 1.956 . S
O943 C918 1.325 . S
H944 C886 0.929 . S
H945 C887 0.930 . S
H946 C888 0.930 . S
H947 C889 0.930 . S
H948 C891 0.930 . S
H949 C893 0.948 . S
H950 C894 0.930 . S
H951 C895 0.930 . S
H952 C898 0.930 . S
H953 C901 0.929 . S
H954 C906 0.929 . S
H955 C907 0.930 . S
H956 C914 0.929 . S
H957 C915 0.930 . S
H958 C916 0.930 . S
H959 C917 0.930 . S
H960 C919 0.929 . S
H961 C920 0.930 . S
H962 C921 0.930 . S
H963 C922 0.930 . S
H964 C926 0.929 . S
H965 C928 0.930 . S
H966 C934 0.929 . S
H967 C935 0.930 . S
Li968 N985 1.990 . S
Li968 O1028 1.956 . S
Li968 O1029 1.970 . S
Li968 O1030 1.961 . S
Li969 N993 1.990 . S
Li969 O1028 1.970 . S
Li969 O1029 1.956 . S
Li969 O1031 1.961 . S
Li970 N1015 1.990 . S
Li970 O1028 1.961 . S
Li970 O1030 1.956 . S
Li970 O1031 1.970 . S
Li971 N1021 1.990 . S
Li971 O1029 1.961 . S
Li971 O1030 1.970 . S
Li971 O1031 1.956 . S
C972 C974 1.348 . S
C972 C975 1.356 . S
C972 O1028 1.325 . S
N973 C976 1.314 . S
N973 C977 1.279 . S
C974 C972 1.348 . S
C974 C976 1.353 . S
C974 H1032 0.929 . S
C975 C972 1.356 . S
C975 C977 1.358 . S
C975 H1033 0.930 . S
C976 N973 1.314 . S
C976 C974 1.353 . S
C976 H1034 0.930 . S
C977 N973 1.279 . S
C977 C975 1.358 . S
C977 H1035 0.930 . S
C978 C981 1.348 . S
C978 C982 1.356 . S
C978 O1029 1.325 . S
C979 N980 1.279 . S
C979 C982 1.358 . S
C979 H1036 0.930 . S
N980 C979 1.279 . S
N980 C983 1.314 . S
C981 C978 1.348 . S
C981 C983 1.353 . S
C981 H1037 0.929 . S
C982 C978 1.356 . S
C982 C979 1.358 . S
C982 H1038 0.930 . S
C983 N980 1.314 . S
C983 C981 1.353 . S
C983 H1039 0.930 . S
C984 N985 1.314 . S
C984 C989 1.353 . S
C984 H990 0.930 . S
N985 Li968 1.990 . S
N985 C984 1.314 . S
N985 C987 1.279 . S
C986 C987 1.358 . S
C986 C988 1.356 . S
C986 H1040 0.930 . S
C987 N985 1.279 . S
C987 C986 1.358 . S
C987 H991 0.930 . S
C988 C986 1.356 . S
C988 C989 1.348 . S
C989 C984 1.353 . S
C989 C988 1.348 . S
C989 H1041 0.929 . S
H990 C984 0.930 . S
H991 C987 0.930 . S
C992 N993 1.314 . S
C992 C994 1.353 . S
C992 H998 0.930 . S
N993 Li969 1.990 . S
N993 C992 1.314 . S
N993 C996 1.279 . S
C994 C992 1.353 . S
C994 C997 1.348 . S
C994 H1042 0.929 . S
C995 C996 1.358 . S
C995 C997 1.356 . S
C995 H1043 0.930 . S
C996 N993 1.279 . S
C996 C995 1.358 . S
C996 H999 0.930 . S
C997 C994 1.348 . S
C997 C995 1.356 . S
H998 C992 0.930 . S
H999 C996 0.930 . S
C1000 C1002 1.348 . S
C1000 C1003 1.356 . S
C1000 O1030 1.325 . S
N1001 C1004 1.314 . S
N1001 C1005 1.279 . S
C1002 C1000 1.348 . S
C1002 C1004 1.353 . S
C1002 H1044 0.929 . S
C1003 C1000 1.356 . S
C1003 C1005 1.358 . S
C1003 H1045 0.930 . S
C1004 N1001 1.314 . S
C1004 C1002 1.353 . S
C1004 H1046 0.930 . S
C1005 N1001 1.279 . S
C1005 C1003 1.358 . S
C1005 H1047 0.930 . S
C1006 C1007 1.348 . S
C1006 C1008 1.356 . S
C1006 O1031 1.325 . S
C1007 C1006 1.348 . S
C1007 C1009 1.353 . S
C1007 H1048 0.929 . S
C1008 C1006 1.356 . S
C1008 C1010 1.358 . S
C1008 H1049 0.930 . S
C1009 C1007 1.353 . S
C1009 N1011 1.314 . S
C1009 H1050 0.930 . S
C1010 C1008 1.358 . S
C1010 N1011 1.279 . S
C1010 H1051 0.930 . S
N1011 C1009 1.314 . S
N1011 C1010 1.279 . S
C1012 C1014 1.353 . S
C1012 N1015 1.314 . S
C1012 H1018 0.930 . S
C1013 N1015 1.279 . S
C1013 C1016 1.358 . S
C1013 H1019 0.930 . S
C1014 C1012 1.353 . S
C1014 C1017 1.348 . S
C1014 H1052 0.929 . S
N1015 Li970 1.990 . S
N1015 C1012 1.314 . S
N1015 C1013 1.279 . S
C1016 C1013 1.358 . S
C1016 C1017 1.356 . S
C1016 H1053 0.930 . S
C1017 C1014 1.348 . S
C1017 C1016 1.356 . S
H1018 C1012 0.930 . S
H1019 C1013 0.930 . S
C1020 N1021 1.314 . S
C1020 C1022 1.353 . S
C1020 H1026 0.930 . S
N1021 Li971 1.990 . S
N1021 C1020 1.314 . S
N1021 C1024 1.279 . S
C1022 C1020 1.353 . S
C1022 C1025 1.348 . S
C1022 H1054 0.929 . S
C1023 C1024 1.358 . S
C1023 C1025 1.356 . S
C1023 H1055 0.930 . S
C1024 N1021 1.279 . S
C1024 C1023 1.358 . S
C1024 H1027 0.930 . S
C1025 C1022 1.348 . S
C1025 C1023 1.356 . S
H1026 C1020 0.930 . S
H1027 C1024 0.930 . S
O1028 Li968 1.956 . S
O1028 Li969 1.970 . S
O1028 Li970 1.961 . S
O1028 C972 1.325 . S
O1029 Li968 1.970 . S
O1029 Li969 1.956 . S
O1029 Li971 1.961 . S
O1029 C978 1.325 . S
O1030 Li968 1.961 . S
O1030 Li970 1.956 . S
O1030 Li971 1.970 . S
O1030 C1000 1.325 . S
O1031 Li969 1.961 . S
O1031 Li970 1.970 . S
O1031 Li971 1.956 . S
O1031 C1006 1.325 . S
H1032 C974 0.929 . S
H1033 C975 0.930 . S
H1034 C976 0.930 . S
H1035 C977 0.930 . S
H1036 C979 0.930 . S
H1037 C981 0.929 . S
H1038 C982 0.930 . S
H1039 C983 0.930 . S
H1040 C986 0.930 . S
H1041 C989 0.929 . S
H1042 C994 0.929 . S
H1043 C995 0.930 . S
H1044 C1002 0.929 . S
H1045 C1003 0.930 . S
H1046 C1004 0.930 . S
H1047 C1005 0.930 . S
H1048 C1007 0.929 . S
H1049 C1008 0.930 . S
H1050 C1009 0.930 . S
H1051 C1010 0.930 . S
H1052 C1014 0.929 . S
H1053 C1016 0.930 . S
H1054 C1022 0.929 . S
H1055 C1023 0.930 . S
H1056 C1062 0.930 . S
H1057 C1066 0.930 . S
H1058 C1071 0.929 . S
H1059 C1069 0.929 . S
H1060 C1064 0.929 . S
H1061 C1070 0.929 . S
C1062 H1056 0.930 . S
C1062 C1063 1.367 . S
C1062 C1070 1.378 1_554 S
C1063 C1062 1.367 . S
C1063 C1071 1.433 . S
C1064 H1060 0.929 . S
C1064 C1066 1.378 . S
C1064 C1068 1.350 . S
C1065 C1068 1.463 . S
C1065 C1070 1.350 . S
C1065 N1073 1.427 . S
C1066 H1057 0.930 . S
C1066 C1064 1.378 . S
C1066 C1067 1.367 . S
C1067 C1066 1.367 . S
C1067 C1069 1.433 . S
C1068 C1064 1.350 . S
C1068 C1065 1.463 . S
C1068 N1072 1.427 . S
C1069 H1059 0.929 . S
C1069 C1067 1.433 . S
C1069 N1072 1.384 . S
C1070 H1061 0.929 . S
C1070 C1062 1.378 1_556 S
C1070 C1065 1.350 . S
C1071 H1058 0.929 . S
C1071 C1063 1.433 . S
C1071 N1073 1.384 1_554 S
N1072 C1068 1.427 . S
N1072 C1069 1.384 . S
N1073 C1065 1.427 . S
N1073 C1071 1.384 1_556 S
H1074 C1080 0.930 . S
H1075 C1084 0.930 . S
H1076 C1089 0.929 . S
H1077 C1087 0.929 . S
H1078 C1082 0.929 . S
H1079 C1088 0.929 . S
C1080 H1074 0.930 . S
C1080 C1081 1.367 . S
C1080 C1088 1.378 . S
C1081 C1080 1.367 . S
C1081 C1089 1.433 1_554 S
C1082 H1078 0.929 . S
C1082 C1084 1.378 . S
C1082 C1086 1.350 . S
C1083 C1086 1.463 . S
C1083 C1088 1.350 1_556 S
C1083 N1091 1.427 . S
C1084 H1075 0.930 . S
C1084 C1082 1.378 . S
C1084 C1085 1.367 . S
C1085 C1084 1.367 . S
C1085 C1087 1.433 . S
C1086 C1082 1.350 . S
C1086 C1083 1.463 . S
C1086 N1090 1.427 . S
C1087 H1077 0.929 . S
C1087 C1085 1.433 . S
C1087 N1090 1.384 . S
C1088 H1079 0.929 . S
C1088 C1080 1.378 . S
C1088 C1083 1.350 1_554 S
C1089 H1076 0.929 . S
C1089 C1081 1.433 1_556 S
C1089 N1091 1.384 . S
N1090 C1086 1.427 . S
N1090 C1087 1.384 . S
N1091 C1083 1.427 . S
N1091 C1089 1.384 . S
H1092 C1098 0.930 . S
H1093 C1102 0.930 . S
H1094 C1107 0.929 . S
H1095 C1105 0.929 . S
H1096 C1100 0.929 . S
H1097 C1106 0.929 . S
C1098 H1092 0.930 . S
C1098 C1099 1.367 1_556 S
C1098 C1106 1.378 . S
C1099 C1098 1.367 1_554 S
C1099 C1107 1.433 . S
C1100 H1096 0.929 . S
C1100 C1102 1.378 . S
C1100 C1104 1.350 . S
C1101 C1104 1.463 . S
C1101 C1106 1.350 . S
C1101 N1109 1.427 1_556 S
C1102 H1093 0.930 . S
C1102 C1100 1.378 . S
C1102 C1103 1.367 . S
C1103 C1102 1.367 . S
C1103 C1105 1.433 . S
C1104 C1100 1.350 . S
C1104 C1101 1.463 . S
C1104 N1108 1.427 . S
C1105 H1095 0.929 . S
C1105 C1103 1.433 . S
C1105 N1108 1.384 . S
C1106 H1097 0.929 . S
C1106 C1098 1.378 . S
C1106 C1101 1.350 . S
C1107 H1094 0.929 . S
C1107 C1099 1.433 . S
C1107 N1109 1.384 . S
N1108 C1104 1.427 . S
N1108 C1105 1.384 . S
N1109 C1101 1.427 1_554 S
N1109 C1107 1.384 . S
H1110 C1116 0.930 . S
H1111 C1120 0.930 . S
H1112 C1125 0.929 . S
H1113 C1123 0.929 . S
H1114 C1118 0.929 . S
H1115 C1124 0.929 . S
C1116 H1110 0.930 . S
C1116 C1117 1.367 . S
C1116 C1124 1.378 . S
C1117 C1116 1.367 . S
C1117 C1125 1.433 . S
C1118 H1114 0.929 . S
C1118 C1120 1.378 . S
C1118 C1122 1.350 . S
C1119 C1122 1.463 . S
C1119 C1124 1.350 . S
C1119 N1127 1.427 . S
C1120 H1111 0.930 . S
C1120 C1118 1.378 . S
C1120 C1121 1.367 . S
C1121 C1120 1.367 . S
C1121 C1123 1.433 . S
C1122 C1118 1.350 . S
C1122 C1119 1.463 . S
C1122 N1126 1.427 . S
C1123 H1113 0.929 . S
C1123 C1121 1.433 . S
C1123 N1126 1.384 . S
C1124 H1115 0.929 . S
C1124 C1116 1.378 . S
C1124 C1119 1.350 . S
C1125 H1112 0.929 . S
C1125 C1117 1.433 . S
C1125 N1127 1.384 . S
N1126 C1122 1.427 . S
N1126 C1123 1.384 . S
N1127 C1119 1.427 . S
N1127 C1125 1.384 . S
H1128 C1134 0.930 . S
H1129 C1138 0.930 . S
H1130 C1143 0.929 . S
H1131 C1141 0.929 . S
H1132 C1136 0.929 . S
H1133 C1142 0.929 . S
C1134 H1128 0.930 . S
C1134 C1135 1.367 . S
C1134 C1142 1.378 . S
C1135 C1134 1.367 . S
C1135 C1143 1.433 . S
C1136 H1132 0.929 . S
C1136 C1138 1.378 . S
C1136 C1140 1.350 . S
C1137 C1140 1.463 . S
C1137 C1142 1.350 . S
C1137 N1145 1.427 . S
C1138 H1129 0.930 . S
C1138 C1136 1.378 . S
C1138 C1139 1.367 . S
C1139 C1138 1.367 . S
C1139 C1141 1.433 . S
C1140 C1136 1.350 . S
C1140 C1137 1.463 . S
C1140 N1144 1.427 . S
C1141 H1131 0.929 . S
C1141 C1139 1.433 . S
C1141 N1144 1.384 . S
C1142 H1133 0.929 . S
C1142 C1134 1.378 . S
C1142 C1137 1.350 . S
C1143 H1130 0.929 . S
C1143 C1135 1.433 . S
C1143 N1145 1.384 . S
N1144 C1140 1.427 . S
N1144 C1141 1.384 . S
N1145 C1137 1.427 . S
N1145 C1143 1.384 . S
H1146 C1152 0.930 . S
H1147 C1156 0.930 . S
H1148 C1161 0.929 . S
H1149 C1159 0.929 . S
H1150 C1154 0.929 . S
H1151 C1160 0.929 . S
C1152 H1146 0.930 . S
C1152 C1153 1.367 . S
C1152 C1160 1.378 . S
C1153 C1152 1.367 . S
C1153 C1161 1.433 . S
C1154 H1150 0.929 . S
C1154 C1156 1.378 . S
C1154 C1158 1.350 . S
C1155 C1158 1.463 . S
C1155 C1160 1.350 . S
C1155 N1163 1.427 . S
C1156 H1147 0.930 . S
C1156 C1154 1.378 . S
C1156 C1157 1.367 . S
C1157 C1156 1.367 . S
C1157 C1159 1.433 . S
C1158 C1154 1.350 . S
C1158 C1155 1.463 . S
C1158 N1162 1.427 . S
C1159 H1149 0.929 . S
C1159 C1157 1.433 . S
C1159 N1162 1.384 . S
C1160 H1151 0.929 . S
C1160 C1152 1.378 . S
C1160 C1155 1.350 . S
C1161 H1148 0.929 . S
C1161 C1153 1.433 . S
C1161 N1163 1.384 . S
N1162 C1158 1.427 . S
N1162 C1159 1.384 . S
N1163 C1155 1.427 . S
N1163 C1161 1.384 . S
H1164 C1170 0.930 . S
H1165 C1174 0.930 . S
H1166 C1179 0.929 . S
H1167 C1177 0.929 . S
H1168 C1172 0.929 . S
H1169 C1178 0.929 . S
C1170 H1164 0.930 . S
C1170 C1171 1.367 . S
C1170 C1178 1.378 . S
C1171 C1170 1.367 . S
C1171 C1179 1.433 . S
C1172 H1168 0.929 . S
C1172 C1174 1.378 1_554 S
C1172 C1176 1.350 . S
C1173 C1176 1.463 . S
C1173 C1178 1.350 . S
C1173 N1181 1.427 . S
C1174 H1165 0.930 . S
C1174 C1172 1.378 1_556 S
C1174 C1175 1.367 . S
C1175 C1174 1.367 . S
C1175 C1177 1.433 . S
C1176 C1172 1.350 . S
C1176 C1173 1.463 . S
C1176 N1180 1.427 . S
C1177 H1167 0.929 . S
C1177 C1175 1.433 . S
C1177 N1180 1.384 1_556 S
C1178 H1169 0.929 . S
C1178 C1170 1.378 . S
C1178 C1173 1.350 . S
C1179 H1166 0.929 . S
C1179 C1171 1.433 . S
C1179 N1181 1.384 . S
N1180 C1176 1.427 . S
N1180 C1177 1.384 1_554 S
N1181 C1173 1.427 . S
N1181 C1179 1.384 . S
H1182 C1188 0.930 . S
H1183 C1192 0.930 . S
H1184 C1197 0.929 . S
H1185 C1195 0.929 . S
H1186 C1190 0.929 . S
H1187 C1196 0.929 . S
C1188 H1182 0.930 . S
C1188 C1189 1.367 1_554 S
C1188 C1196 1.378 . S
C1189 C1188 1.367 1_556 S
C1189 C1197 1.433 . S
C1190 H1186 0.929 . S
C1190 C1192 1.378 . S
C1190 C1194 1.350 . S
C1191 C1194 1.463 . S
C1191 C1196 1.350 . S
C1191 N1199 1.427 1_554 S
C1192 H1183 0.930 . S
C1192 C1190 1.378 . S
C1192 C1193 1.367 . S
C1193 C1192 1.367 . S
C1193 C1195 1.433 . S
C1194 C1190 1.350 . S
C1194 C1191 1.463 . S
C1194 N1198 1.427 . S
C1195 H1185 0.929 . S
C1195 C1193 1.433 . S
C1195 N1198 1.384 . S
C1196 H1187 0.929 . S
C1196 C1188 1.378 . S
C1196 C1191 1.350 . S
C1197 H1184 0.929 . S
C1197 C1189 1.433 . S
C1197 N1199 1.384 . S
N1198 C1194 1.427 . S
N1198 C1195 1.384 . S
N1199 C1191 1.427 1_556 S
N1199 C1197 1.384 . S
H1200 C1206 0.930 . S
H1201 C1210 0.930 . S
H1202 C1215 0.929 . S
H1203 C1213 0.929 . S
H1204 C1208 0.929 . S
H1205 C1214 0.929 . S
C1206 H1200 0.930 . S
C1206 C1207 1.367 . S
C1206 C1214 1.378 . S
C1207 C1206 1.367 . S
C1207 C1215 1.433 . S
C1208 H1204 0.929 . S
C1208 C1210 1.378 . S
C1208 C1212 1.350 . S
C1209 C1212 1.463 . S
C1209 C1214 1.350 . S
C1209 N1217 1.427 . S
C1210 H1201 0.930 . S
C1210 C1208 1.378 . S
C1210 C1211 1.367 1_554 S
C1211 C1210 1.367 1_556 S
C1211 C1213 1.433 . S
C1212 C1208 1.350 . S
C1212 C1209 1.463 . S
C1212 N1216 1.427 . S
C1213 H1203 0.929 . S
C1213 C1211 1.433 . S
C1213 N1216 1.384 1_556 S
C1214 H1205 0.929 . S
C1214 C1206 1.378 . S
C1214 C1209 1.350 . S
C1215 H1202 0.929 . S
C1215 C1207 1.433 . S
C1215 N1217 1.384 . S
N1216 C1212 1.427 . S
N1216 C1213 1.384 1_554 S
N1217 C1209 1.427 . S
N1217 C1215 1.384 . S
H1218 C1224 0.930 . S
H1219 C1228 0.930 . S
H1220 C1233 0.929 . S
H1221 C1231 0.929 . S
H1222 C1226 0.929 . S
H1223 C1232 0.929 . S
C1224 H1218 0.930 . S
C1224 C1225 1.367 . S
C1224 C1232 1.378 . S
C1225 C1224 1.367 . S
C1225 C1233 1.433 . S
C1226 H1222 0.929 . S
C1226 C1228 1.378 . S
C1226 C1230 1.350 . S
C1227 C1230 1.463 . S
C1227 C1232 1.350 . S
C1227 N1235 1.427 . S
C1228 H1219 0.930 . S
C1228 C1226 1.378 . S
C1228 C1229 1.367 . S
C1229 C1228 1.367 . S
C1229 C1231 1.433 . S
C1230 C1226 1.350 . S
C1230 C1227 1.463 . S
C1230 N1234 1.427 . S
C1231 H1221 0.929 . S
C1231 C1229 1.433 . S
C1231 N1234 1.384 . S
C1232 H1223 0.929 . S
C1232 C1224 1.378 . S
C1232 C1227 1.350 . S
C1233 H1220 0.929 . S
C1233 C1225 1.433 . S
C1233 N1235 1.384 . S
N1234 C1230 1.427 . S
N1234 C1231 1.384 . S
N1235 C1227 1.427 . S
N1235 C1233 1.384 . S
H1236 C1242 0.930 . S
H1237 C1246 0.930 . S
H1238 C1251 0.929 . S
H1239 C1249 0.929 . S
H1240 C1244 0.929 . S
H1241 C1250 0.929 . S
C1242 H1236 0.930 . S
C1242 C1243 1.367 . S
C1242 C1250 1.378 . S
C1243 C1242 1.367 . S
C1243 C1251 1.433 . S
C1244 H1240 0.929 . S
C1244 C1246 1.378 . S
C1244 C1248 1.350 . S
C1245 C1248 1.463 . S
C1245 C1250 1.350 . S
C1245 N1253 1.427 . S
C1246 H1237 0.930 . S
C1246 C1244 1.378 . S
C1246 C1247 1.367 . S
C1247 C1246 1.367 . S
C1247 C1249 1.433 . S
C1248 C1244 1.350 . S
C1248 C1245 1.463 . S
C1248 N1252 1.427 . S
C1249 H1239 0.929 . S
C1249 C1247 1.433 . S
C1249 N1252 1.384 . S
C1250 H1241 0.929 . S
C1250 C1242 1.378 . S
C1250 C1245 1.350 . S
C1251 H1238 0.929 . S
C1251 C1243 1.433 . S
C1251 N1253 1.384 . S
N1252 C1248 1.427 . S
N1252 C1249 1.384 . S
N1253 C1245 1.427 . S
N1253 C1251 1.384 . S
H1254 C1260 0.930 . S
H1255 C1264 0.930 . S
H1256 C1269 0.929 . S
H1257 C1267 0.929 . S
H1258 C1262 0.929 . S
H1259 C1268 0.929 . S
C1260 H1254 0.930 . S
C1260 C1261 1.367 . S
C1260 C1268 1.378 . S
C1261 C1260 1.367 . S
C1261 C1269 1.433 . S
C1262 H1258 0.929 . S
C1262 C1264 1.378 . S
C1262 C1266 1.350 . S
C1263 C1266 1.463 . S
C1263 C1268 1.350 . S
C1263 N1271 1.427 . S
C1264 H1255 0.930 . S
C1264 C1262 1.378 . S
C1264 C1265 1.367 . S
C1265 C1264 1.367 . S
C1265 C1267 1.433 . S
C1266 C1262 1.350 . S
C1266 C1263 1.463 . S
C1266 N1270 1.427 . S
C1267 H1257 0.929 . S
C1267 C1265 1.433 . S
C1267 N1270 1.384 . S
C1268 H1259 0.929 . S
C1268 C1260 1.378 . S
C1268 C1263 1.350 . S
C1269 H1256 0.929 . S
C1269 C1261 1.433 . S
C1269 N1271 1.384 . S
N1270 C1266 1.427 . S
N1270 C1267 1.384 . S
N1271 C1263 1.427 . S
N1271 C1269 1.384 . S
H1272 C1278 0.930 . S
H1273 C1282 0.930 . S
H1274 C1287 0.929 . S
H1275 C1285 0.929 . S
H1276 C1280 0.929 . S
H1277 C1286 0.929 . S
C1278 H1272 0.930 . S
C1278 C1279 1.367 . S
C1278 C1286 1.378 . S
C1279 C1278 1.367 . S
C1279 C1287 1.433 . S
C1280 H1276 0.929 . S
C1280 C1282 1.378 . S
C1280 C1284 1.350 . S
C1281 C1284 1.463 . S
C1281 C1286 1.350 . S
C1281 N1289 1.427 . S
C1282 H1273 0.930 . S
C1282 C1280 1.378 . S
C1282 C1283 1.367 . S
C1283 C1282 1.367 . S
C1283 C1285 1.433 . S
C1284 C1280 1.350 . S
C1284 C1281 1.463 . S
C1284 N1288 1.427 . S
C1285 H1275 0.929 . S
C1285 C1283 1.433 . S
C1285 N1288 1.384 . S
C1286 H1277 0.929 . S
C1286 C1278 1.378 . S
C1286 C1281 1.350 . S
C1287 H1274 0.929 . S
C1287 C1279 1.433 . S
C1287 N1289 1.384 . S
N1288 C1284 1.427 . S
N1288 C1285 1.384 . S
N1289 C1281 1.427 . S
N1289 C1287 1.384 . S
H1290 C1296 0.930 . S
H1291 C1300 0.930 . S
H1292 C1305 0.929 . S
H1293 C1303 0.929 . S
H1294 C1298 0.929 . S
H1295 C1304 0.929 . S
C1296 H1290 0.930 . S
C1296 C1297 1.367 . S
C1296 C1304 1.378 . S
C1297 C1296 1.367 . S
C1297 C1305 1.433 . S
C1298 H1294 0.929 . S
C1298 C1300 1.378 . S
C1298 C1302 1.350 . S
C1299 C1302 1.463 . S
C1299 C1304 1.350 . S
C1299 N1307 1.427 . S
C1300 H1291 0.930 . S
C1300 C1298 1.378 . S
C1300 C1301 1.367 . S
C1301 C1300 1.367 . S
C1301 C1303 1.433 . S
C1302 C1298 1.350 . S
C1302 C1299 1.463 . S
C1302 N1306 1.427 . S
C1303 H1293 0.929 . S
C1303 C1301 1.433 . S
C1303 N1306 1.384 . S
C1304 H1295 0.929 . S
C1304 C1296 1.378 . S
C1304 C1299 1.350 . S
C1305 H1292 0.929 . S
C1305 C1297 1.433 . S
C1305 N1307 1.384 . S
N1306 C1302 1.427 . S
N1306 C1303 1.384 . S
N1307 C1299 1.427 . S
N1307 C1305 1.384 . S
H1308 C1314 0.930 . S
H1309 C1318 0.930 . S
H1310 C1323 0.929 . S
H1311 C1321 0.929 . S
H1312 C1316 0.929 . S
H1313 C1322 0.929 . S
C1314 H1308 0.930 . S
C1314 C1315 1.367 . S
C1314 C1322 1.378 . S
C1315 C1314 1.367 . S
C1315 C1323 1.433 . S
C1316 H1312 0.929 . S
C1316 C1318 1.378 . S
C1316 C1320 1.350 . S
C1317 C1320 1.463 . S
C1317 C1322 1.350 . S
C1317 N1325 1.427 . S
C1318 H1309 0.930 . S
C1318 C1316 1.378 . S
C1318 C1319 1.367 . S
C1319 C1318 1.367 . S
C1319 C1321 1.433 . S
C1320 C1316 1.350 . S
C1320 C1317 1.463 . S
C1320 N1324 1.427 . S
C1321 H1311 0.929 . S
C1321 C1319 1.433 . S
C1321 N1324 1.384 . S
C1322 H1313 0.929 . S
C1322 C1314 1.378 . S
C1322 C1317 1.350 . S
C1323 H1310 0.929 . S
C1323 C1315 1.433 . S
C1323 N1325 1.384 . S
N1324 C1320 1.427 . S
N1324 C1321 1.384 . S
N1325 C1317 1.427 . S
N1325 C1323 1.384 . S
H1326 C1332 0.930 . S
H1327 C1336 0.930 . S
H1328 C1341 0.929 . S
H1329 C1339 0.929 . S
H1330 C1334 0.929 . S
H1331 C1340 0.929 . S
C1332 H1326 0.930 . S
C1332 C1333 1.367 . S
C1332 C1340 1.378 . S
C1333 C1332 1.367 . S
C1333 C1341 1.433 . S
C1334 H1330 0.929 . S
C1334 C1336 1.378 . S
C1334 C1338 1.350 . S
C1335 C1338 1.463 . S
C1335 C1340 1.350 . S
C1335 N1343 1.427 . S
C1336 H1327 0.930 . S
C1336 C1334 1.378 . S
C1336 C1337 1.367 . S
C1337 C1336 1.367 . S
C1337 C1339 1.433 . S
C1338 C1334 1.350 . S
C1338 C1335 1.463 . S
C1338 N1342 1.427 . S
C1339 H1329 0.929 . S
C1339 C1337 1.433 . S
C1339 N1342 1.384 . S
C1340 H1331 0.929 . S
C1340 C1332 1.378 . S
C1340 C1335 1.350 . S
C1341 H1328 0.929 . S
C1341 C1333 1.433 . S
C1341 N1343 1.384 . S
N1342 C1338 1.427 . S
N1342 C1339 1.384 . S
N1343 C1335 1.427 . S
N1343 C1341 1.384 . S
H1344 C1350 0.930 . S
H1345 C1354 0.930 . S
H1346 C1359 0.929 . S
H1347 C1357 0.929 . S
H1348 C1352 0.929 . S
H1349 C1358 0.929 . S
C1350 H1344 0.930 . S
C1350 C1351 1.367 . S
C1350 C1358 1.378 . S
C1351 C1350 1.367 . S
C1351 C1359 1.433 . S
C1352 H1348 0.929 . S
C1352 C1354 1.378 . S
C1352 C1356 1.350 . S
C1353 C1356 1.463 . S
C1353 C1358 1.350 . S
C1353 N1361 1.427 . S
C1354 H1345 0.930 . S
C1354 C1352 1.378 . S
C1354 C1355 1.367 . S
C1355 C1354 1.367 . S
C1355 C1357 1.433 . S
C1356 C1352 1.350 . S
C1356 C1353 1.463 . S
C1356 N1360 1.427 . S
C1357 H1347 0.929 . S
C1357 C1355 1.433 . S
C1357 N1360 1.384 . S
C1358 H1349 0.929 . S
C1358 C1350 1.378 . S
C1358 C1353 1.350 . S
C1359 H1346 0.929 . S
C1359 C1351 1.433 . S
C1359 N1361 1.384 . S
N1360 C1356 1.427 . S
N1360 C1357 1.384 . S
N1361 C1353 1.427 . S
N1361 C1359 1.384 . S
H1362 C1368 0.930 . S
H1363 C1372 0.930 . S
H1364 C1377 0.929 . S
H1365 C1375 0.929 . S
H1366 C1370 0.929 . S
H1367 C1376 0.929 . S
C1368 H1362 0.930 . S
C1368 C1369 1.367 . S
C1368 C1376 1.378 . S
C1369 C1368 1.367 . S
C1369 C1377 1.433 . S
C1370 H1366 0.929 . S
C1370 C1372 1.378 . S
C1370 C1374 1.350 . S
C1371 C1374 1.463 . S
C1371 C1376 1.350 . S
C1371 N1379 1.427 . S
C1372 H1363 0.930 . S
C1372 C1370 1.378 . S
C1372 C1373 1.367 . S
C1373 C1372 1.367 . S
C1373 C1375 1.433 . S
C1374 C1370 1.350 . S
C1374 C1371 1.463 . S
C1374 N1378 1.427 . S
C1375 H1365 0.929 . S
C1375 C1373 1.433 . S
C1375 N1378 1.384 . S
C1376 H1367 0.929 . S
C1376 C1368 1.378 . S
C1376 C1371 1.350 . S
C1377 H1364 0.929 . S
C1377 C1369 1.433 . S
C1377 N1379 1.384 . S
N1378 C1374 1.427 . S
N1378 C1375 1.384 . S
N1379 C1371 1.427 . S
N1379 C1377 1.384 . S
H1380 C1386 0.932 1_655 S
H1381 C1390 0.931 . S
H1382 C1395 0.929 . S
H1383 C1393 0.929 . S
H1384 C1388 0.929 . S
H1385 C1394 0.929 . S
C1386 H1380 0.932 1_455 S
C1386 C1387 1.399 . S
C1386 C1394 1.347 1_455 S
C1387 C1386 1.399 . S
C1387 C1395 1.433 . S
C1388 H1384 0.929 . S
C1388 C1390 1.390 . S
C1388 C1392 1.350 1_455 S
C1389 C1392 1.463 1_454 S
C1389 C1394 1.350 1_455 S
C1389 N1397 1.427 . S
C1390 H1381 0.931 . S
C1390 C1388 1.390 . S
C1390 C1391 1.355 1_455 S
C1391 C1390 1.355 1_655 S
C1391 C1393 1.433 . S
C1392 C1388 1.350 1_655 S
C1392 C1389 1.463 1_656 S
C1392 N1396 1.427 . S
C1393 H1383 0.929 . S
C1393 C1391 1.433 . S
C1393 N1396 1.384 . S
C1394 H1385 0.929 . S
C1394 C1386 1.347 1_655 S
C1394 C1389 1.350 1_655 S
C1395 H1382 0.929 . S
C1395 C1387 1.433 . S
C1395 N1397 1.384 . S
N1396 C1392 1.427 . S
N1396 C1393 1.384 . S
N1397 C1389 1.427 . S
N1397 C1395 1.384 . S
H1398 C1404 0.930 . S
H1399 C1408 0.930 . S
H1400 C1413 0.929 . S
H1401 C1411 0.929 . S
H1402 C1406 0.910 1_554 S
H1403 C1412 0.905 1_556 S
C1404 H1398 0.930 . S
C1404 C1405 1.367 . S
C1404 C1412 1.394 . S
C1405 C1404 1.367 . S
C1405 C1413 1.433 . S
C1406 H1402 0.910 1_556 S
C1406 C1408 1.391 . S
C1406 C1410 1.356 . S
C1407 C1410 1.463 1_554 S
C1407 C1412 1.358 . S
C1407 N1415 1.427 . S
C1408 H1399 0.930 . S
C1408 C1406 1.391 . S
C1408 C1409 1.367 . S
C1409 C1408 1.367 . S
C1409 C1411 1.433 . S
C1410 C1406 1.356 . S
C1410 C1407 1.463 1_556 S
C1410 N1414 1.427 . S
C1411 H1401 0.929 . S
C1411 C1409 1.433 . S
C1411 N1414 1.384 . S
C1412 H1403 0.905 1_554 S
C1412 C1404 1.394 . S
C1412 C1407 1.358 . S
C1413 H1400 0.929 . S
C1413 C1405 1.433 . S
C1413 N1415 1.384 . S
N1414 C1410 1.427 . S
N1414 C1411 1.384 . S
N1415 C1407 1.427 . S
N1415 C1413 1.384 . S
H1416 C1422 0.930 1_545 S
H1417 C1426 0.930 1_565 S
H1418 C1431 0.929 . S
H1419 C1429 0.929 . S
H1420 C1424 0.929 1_554 S
H1421 C1430 0.929 1_556 S
C1422 H1416 0.930 1_565 S
C1422 C1423 1.367 . S
C1422 C1430 1.378 1_565 S
C1423 C1422 1.367 . S
C1423 C1431 1.433 . S
C1424 H1420 0.929 1_556 S
C1424 C1426 1.378 1_565 S
C1424 C1428 1.350 1_565 S
C1425 C1428 1.463 1_564 S
C1425 C1430 1.350 1_565 S
C1425 N1433 1.427 . S
C1426 H1417 0.930 1_545 S
C1426 C1424 1.378 1_545 S
C1426 C1427 1.367 . S
C1427 C1426 1.367 . S
C1427 C1429 1.433 . S
C1428 C1424 1.350 1_545 S
C1428 C1425 1.463 1_546 S
C1428 N1432 1.427 . S
C1429 H1419 0.929 . S
C1429 C1427 1.433 . S
C1429 N1432 1.384 . S
C1430 H1421 0.929 1_554 S
C1430 C1422 1.378 1_545 S
C1430 C1425 1.350 1_545 S
C1431 H1418 0.929 . S
C1431 C1423 1.433 . S
C1431 N1433 1.384 . S
N1432 C1428 1.427 . S
N1432 C1429 1.384 . S
N1433 C1425 1.427 . S
N1433 C1431 1.384 . S
H1434 C1440 0.930 . S
H1435 C1444 0.930 . S
H1436 C1449 0.929 . S
H1437 C1447 0.929 . S
H1438 C1442 0.929 1_565 S
H1439 C1448 0.929 1_545 S
C1440 H1434 0.930 . S
C1440 C1441 1.367 . S
C1440 C1448 1.378 . S
C1441 C1440 1.367 . S
C1441 C1449 1.433 . S
C1442 H1438 0.929 1_545 S
C1442 C1444 1.378 . S
C1442 C1446 1.350 . S
C1443 C1446 1.463 1_565 S
C1443 C1448 1.350 . S
C1443 N1451 1.427 . S
C1444 H1435 0.930 . S
C1444 C1442 1.378 . S
C1444 C1445 1.367 . S
C1445 C1444 1.367 . S
C1445 C1447 1.433 . S
C1446 C1442 1.350 . S
C1446 C1443 1.463 1_545 S
C1446 N1450 1.427 . S
C1447 H1437 0.929 . S
C1447 C1445 1.433 . S
C1447 N1450 1.384 . S
C1448 H1439 0.929 1_565 S
C1448 C1440 1.378 . S
C1448 C1443 1.350 . S
C1449 H1436 0.929 . S
C1449 C1441 1.433 . S
C1449 N1451 1.384 . S
N1450 C1446 1.427 . S
N1450 C1447 1.384 . S
N1451 C1443 1.427 . S
N1451 C1449 1.384 . S
H1452 C1458 0.930 . S
H1453 C1462 0.930 . S
H1454 C1467 0.929 . S
H1455 C1465 0.929 . S
H1456 C1460 0.929 . S
H1457 C1466 0.929 . S
C1458 H1452 0.930 . S
C1458 C1459 1.367 1_455 S
C1458 C1466 1.378 . S
C1459 C1458 1.367 1_655 S
C1459 C1467 1.433 . S
C1460 H1456 0.929 . S
C1460 C1462 1.378 . S
C1460 C1464 1.350 1_655 S
C1461 C1464 1.463 1_655 S
C1461 C1466 1.350 1_655 S
C1461 N1469 1.427 . S
C1462 H1453 0.930 . S
C1462 C1460 1.378 . S
C1462 C1463 1.367 1_655 S
C1463 C1462 1.367 1_455 S
C1463 C1465 1.433 . S
C1464 C1460 1.350 1_455 S
C1464 C1461 1.463 1_455 S
C1464 N1468 1.427 . S
C1465 H1455 0.929 . S
C1465 C1463 1.433 . S
C1465 N1468 1.384 . S
C1466 H1457 0.929 . S
C1466 C1458 1.378 . S
C1466 C1461 1.350 1_455 S
C1467 H1454 0.929 . S
C1467 C1459 1.433 . S
C1467 N1469 1.384 . S
N1468 C1464 1.427 . S
N1468 C1465 1.384 . S
N1469 C1461 1.427 . S
N1469 C1467 1.384 . S
H1470 C1476 0.930 . S
H1471 C1480 0.930 . S
H1472 C1485 0.929 . S
H1473 C1483 0.929 . S
H1474 C1478 0.929 . S
H1475 C1484 0.929 . S
C1476 H1470 0.930 . S
C1476 C1477 1.367 . S
C1476 C1484 1.378 . S
C1477 C1476 1.367 . S
C1477 C1485 1.433 . S
C1478 H1474 0.929 . S
C1478 C1480 1.378 . S
C1478 C1482 1.350 . S
C1479 C1482 1.463 . S
C1479 C1484 1.350 . S
C1479 N1487 1.427 . S
C1480 H1471 0.930 . S
C1480 C1478 1.378 . S
C1480 C1481 1.367 . S
C1481 C1480 1.367 . S
C1481 C1483 1.433 . S
C1482 C1478 1.350 . S
C1482 C1479 1.463 . S
C1482 N1486 1.427 . S
C1483 H1473 0.929 . S
C1483 C1481 1.433 . S
C1483 N1486 1.384 . S
C1484 H1475 0.929 . S
C1484 C1476 1.378 . S
C1484 C1479 1.350 . S
C1485 H1472 0.929 . S
C1485 C1477 1.433 . S
C1485 N1487 1.384 . S
N1486 C1482 1.427 . S
N1486 C1483 1.384 . S
N1487 C1479 1.427 . S
N1487 C1485 1.384 . S
C1063 C49 0.189 . S
C1067 C636 0.327 . S
C1081 C145 0.152 . S
C1085 C753 0.322 . S
C1099 C233 0.170 . S
C1103 C577 0.333 . S
C1117 C997 0.377 . S
C1121 C284 0.181 . S
C1135 C372 0.181 . S
C1139 C849 0.309 . S
C1153 C900 0.329 . S
C1157 C469 0.156 . S
C1171 C137 0.306 . S
C1175 C548 0.166 . S
C1189 C673 0.129 . S
C1193 C225 0.284 . S
C1207 C57 0.318 . S
C1211 C733 0.172 . S
C1225 C812 0.154 . S
C1229 C460 0.342 . S
C1243 C937 0.154 . S
C1247 C293 0.295 . S
C1261 C381 0.293 . S
C1265 C1025 0.169 . S
C1279 C489 2.504 . S
C1283 C29 2.504 . S
C1297 C108 2.502 . S
C1301 C321 2.503 . S
C1315 C196 2.504 . S
C1319 C409 2.503 . S
C1333 C585 2.514 . S
C1337 C988 2.514 . S
C1351 C665 2.489 . S
C1355 C821 2.491 . S
C1369 C724 2.501 . S
C1373 C929 2.500 . S
C1387 C20 1.837 . S
C1391 C557 1.846 . S
C1405 C117 1.832 . S
C1409 C645 1.825 . S
C1423 C205 1.827 . S
C1427 C761 1.819 . S
C1441 C313 1.827 . S
C1445 C841 1.819 . S
C1459 C909 1.825 . S
C1463 C401 1.832 . S
C1477 C497 1.844 . S
C1481 C1017 1.852 . S
