# Generated by pormake.
# Topology cag, (4)-cn, num edge types: 1
# Building blocks:
#     Node 0, Type 0, BuildingBlock: ICAMEG_clean_sbu_1, # of connection points: 4
#     Node 1, Type 0, BuildingBlock: ICAMEG_clean_sbu_1, # of connection points: 4
#     Node 2, Type 0, BuildingBlock: ICAMEG_clean_sbu_1, # of connection points: 4
#     Node 3, Type 0, BuildingBlock: ICAMEG_clean_sbu_1, # of connection points: 4
#     Node 4, Type 0, BuildingBlock: ICAMEG_clean_sbu_1, # of connection points: 4
#     Node 5, Type 0, BuildingBlock: ICAMEG_clean_sbu_1, # of connection points: 4
#     Node 6, Type 0, BuildingBlock: ICAMEG_clean_sbu_1, # of connection points: 4
#     Node 7, Type 0, BuildingBlock: ICAMEG_clean_sbu_1, # of connection points: 4
#     Node 8, Type 0, BuildingBlock: ICAMEG_clean_sbu_1, # of connection points: 4
#     Node 9, Type 0, BuildingBlock: ICAMEG_clean_sbu_1, # of connection points: 4
#     Node 10, Type 0, BuildingBlock: ICAMEG_clean_sbu_1, # of connection points: 4
#     Node 11, Type 0, BuildingBlock: ICAMEG_clean_sbu_1, # of connection points: 4
#     Node 12, Type 0, BuildingBlock: ICAMEG_clean_sbu_1, # of connection points: 4
#     Node 13, Type 0, BuildingBlock: ICAMEG_clean_sbu_1, # of connection points: 4
#     Node 14, Type 0, BuildingBlock: ICAMEG_clean_sbu_1, # of connection points: 4
#     Node 15, Type 0, BuildingBlock: ICAMEG_clean_sbu_1, # of connection points: 4
#     Edge 16, Type (0, 0), BuildingBlock: KIFKEQ_clean_linker_1, # of connection points: 2
#     Edge 17, Type (0, 0), BuildingBlock: KIFKEQ_clean_linker_1, # of connection points: 2
#     Edge 18, Type (0, 0), BuildingBlock: KIFKEQ_clean_linker_1, # of connection points: 2
#     Edge 19, Type (0, 0), BuildingBlock: KIFKEQ_clean_linker_1, # of connection points: 2
#     Edge 20, Type (0, 0), BuildingBlock: KIFKEQ_clean_linker_1, # of connection points: 2
#     Edge 21, Type (0, 0), BuildingBlock: KIFKEQ_clean_linker_1, # of connection points: 2
#     Edge 22, Type (0, 0), BuildingBlock: KIFKEQ_clean_linker_1, # of connection points: 2
#     Edge 23, Type (0, 0), BuildingBlock: KIFKEQ_clean_linker_1, # of connection points: 2
#     Edge 24, Type (0, 0), BuildingBlock: KIFKEQ_clean_linker_1, # of connection points: 2
#     Edge 25, Type (0, 0), BuildingBlock: KIFKEQ_clean_linker_1, # of connection points: 2
#     Edge 26, Type (0, 0), BuildingBlock: KIFKEQ_clean_linker_1, # of connection points: 2
#     Edge 27, Type (0, 0), BuildingBlock: KIFKEQ_clean_linker_1, # of connection points: 2
#     Edge 28, Type (0, 0), BuildingBlock: KIFKEQ_clean_linker_1, # of connection points: 2
#     Edge 29, Type (0, 0), BuildingBlock: KIFKEQ_clean_linker_1, # of connection points: 2
#     Edge 30, Type (0, 0), BuildingBlock: KIFKEQ_clean_linker_1, # of connection points: 2
#     Edge 31, Type (0, 0), BuildingBlock: KIFKEQ_clean_linker_1, # of connection points: 2
#     Edge 32, Type (0, 0), BuildingBlock: KIFKEQ_clean_linker_1, # of connection points: 2
#     Edge 33, Type (0, 0), BuildingBlock: KIFKEQ_clean_linker_1, # of connection points: 2
#     Edge 34, Type (0, 0), BuildingBlock: KIFKEQ_clean_linker_1, # of connection points: 2
#     Edge 35, Type (0, 0), BuildingBlock: KIFKEQ_clean_linker_1, # of connection points: 2
#     Edge 36, Type (0, 0), BuildingBlock: KIFKEQ_clean_linker_1, # of connection points: 2
#     Edge 37, Type (0, 0), BuildingBlock: KIFKEQ_clean_linker_1, # of connection points: 2
#     Edge 38, Type (0, 0), BuildingBlock: KIFKEQ_clean_linker_1, # of connection points: 2
#     Edge 39, Type (0, 0), BuildingBlock: KIFKEQ_clean_linker_1, # of connection points: 2
#     Edge 40, Type (0, 0), BuildingBlock: KIFKEQ_clean_linker_1, # of connection points: 2
#     Edge 41, Type (0, 0), BuildingBlock: KIFKEQ_clean_linker_1, # of connection points: 2
#     Edge 42, Type (0, 0), BuildingBlock: KIFKEQ_clean_linker_1, # of connection points: 2
#     Edge 43, Type (0, 0), BuildingBlock: KIFKEQ_clean_linker_1, # of connection points: 2
#     Edge 44, Type (0, 0), BuildingBlock: KIFKEQ_clean_linker_1, # of connection points: 2
#     Edge 45, Type (0, 0), BuildingBlock: KIFKEQ_clean_linker_1, # of connection points: 2
#     Edge 46, Type (0, 0), BuildingBlock: KIFKEQ_clean_linker_1, # of connection points: 2
#     Edge 47, Type (0, 0), BuildingBlock: KIFKEQ_clean_linker_1, # of connection points: 2
# Relax obj value: 0.157
# Max RMSD: 0.212
# Mean RMSD: 0.208
data_MOF--net-cag--node1-ICAMEG_clean_sbu_1--edge1-KIFKEQ_clean_linker_1
_symmetry_space_group_name_H-M    P1
_symmetry_Int_Tables_number       1
_symmetry_cell_setting            triclinic
loop_
_symmetry_equiv_pos_as_xyz
'x, y, z'
_cell_length_a     45.518726
_cell_length_b     52.853515
_cell_length_c     45.178731
_cell_angle_alpha  89.976812
_cell_angle_beta   89.956063
_cell_angle_gamma 89.983589
loop_
_atom_site_label
_atom_site_type_symbol
_atom_site_fract_x
_atom_site_fract_y
_atom_site_fract_z
_atom_type_partial_charge
Co0 Co 0.3594 0.14285 0.06439 0.0
Co1 Co 0.36929 0.11282 0.13016 0.0
O2 O 0.34921 0.13947 0.10681 0.0
C3 C 0.34491 0.19765 0.08244 0.0
O4 O 0.34275 0.19238 0.11076 0.0
C5 C 0.30844 0.11697 0.15956 0.0
O6 O 0.29709 0.12907 0.13691 0.0
O7 O 0.35262 0.08648 0.10276 0.0
O8 O 0.36745 0.10559 0.06122 0.0
H9 H 0.42919 0.03344 0.14112 0.0
H10 H 0.30171 0.1615 0.08618 0.0
O11 O 0.35156 0.18042 0.06389 0.0
H12 H 0.27802 0.10018 1.00761 0.0
H13 H 0.3483 0.17451 0.95968 0.0
H14 H 0.40782 0.1224 0.0275 0.0
H15 H 0.32952 0.10936 0.02038 0.0
H16 H 0.33426 0.17011 0.01213 0.0
O17 O 0.33493 0.10906 0.1585 0.0
H18 H 0.40434 0.0676 0.11374 0.0
H19 H 0.37691 0.10116 0.19455 0.0
H20 H 0.42247 0.12609 0.97515 0.0
H21 H 0.24993 0.15315 0.07385 0.0
H22 H 0.39264 0.15231 0.94083 0.0
H23 H 0.23776 0.12224 0.03433 0.0
O24 O 0.40113 0.14938 0.07589 0.0
H25 H 0.36525 0.19187 0.19197 0.0
H26 H 0.42902 0.12342 0.15494 0.0
H27 H 0.45013 0.15676 0.1865 0.0
H28 H 0.41815 0.19126 0.20538 0.0
H29 H 0.34512 0.15835 0.16003 0.0
H30 H 0.40115 0.06719 0.22281 0.0
H31 H 0.42765 0.03304 0.19608 0.0
O32 O 0.40554 0.11534 0.10475 0.0
C33 C 0.35847 0.08604 0.07506 0.0
C34 C 0.41764 0.04818 0.15303 0.0
C35 C 0.40186 0.06708 0.19887 0.0
N36 N 0.38889 0.08629 0.15248 0.0
C37 C 0.40349 0.06758 0.13763 0.0
C38 C 0.38797 0.08618 0.18273 0.0
C39 C 0.41677 0.04795 0.18386 0.0
C40 C 0.29669 0.14831 0.06871 0.0
N41 N 0.31872 0.13624 0.05381 0.0
C42 C 0.26727 0.14353 0.06193 0.0
C43 C 0.26046 0.12615 0.03979 0.0
C44 C 0.28303 0.11377 0.0248 0.0
C45 C 0.31218 0.11904 0.03218 0.0
C46 C 0.3615 0.16304 0.97442 0.0
C47 C 0.39467 0.13382 0.01273 0.0
C48 C 0.35373 0.16056 1.00419 0.0
N49 N 0.37022 0.14603 0.02294 0.0
C50 C 0.4031 0.13585 0.9831 0.0
C51 C 0.38636 0.15057 0.96386 0.0
C52 C 0.41686 0.13352 0.0901 0.0
C53 C 0.37938 0.17686 0.18401 0.0
C54 C 0.41491 0.13837 0.16299 0.0
C55 C 0.42701 0.15719 0.18091 0.0
C56 C 0.40907 0.17654 0.19149 0.0
N57 N 0.38571 0.13872 0.15586 0.0
C58 C 0.36805 0.15773 0.16602 0.0
Co59 Co 0.15143 0.87634 0.56358 0.0
Co60 Co 0.141 0.90337 0.63122 0.0
O61 O 0.16155 0.87819 0.60618 0.0
C62 C 0.16574 0.82116 0.57953 0.0
O63 O 0.16589 0.82558 0.60811 0.0
C64 C 0.20216 0.8995 0.66003 0.0
O65 O 0.21377 0.88806 0.63703 0.0
O66 O 0.15662 0.93111 0.6051 0.0
O67 O 0.14267 0.91358 0.56231 0.0
H68 H 0.07913 0.98101 0.64685 0.0
H69 H 0.20925 0.85736 0.58437 0.0
O70 O 0.16006 0.83891 0.56129 0.0
H71 H 0.23236 0.92228 0.50956 0.0
H72 H 0.16341 0.84865 0.45747 0.0
H73 H 0.10276 0.89747 0.52762 0.0
H74 H 0.18095 0.91196 0.52157 0.0
H75 H 0.17725 0.85138 0.5101 0.0
O76 O 0.1755 0.90697 0.65927 0.0
H77 H 0.10468 0.94844 0.61751 0.0
H78 H 0.13342 0.91226 0.69627 0.0
H79 H 0.08828 0.8954 0.47512 0.0
H80 H 0.26098 0.86683 0.57273 0.0
H81 H 0.11869 0.87084 0.43963 0.0
H82 H 0.27284 0.89956 0.53511 0.0
O83 O 0.10974 0.86895 0.57448 0.0
H84 H 0.14876 0.82212 0.68867 0.0
H85 H 0.08219 0.89048 0.65699 0.0
H86 H 0.06277 0.85546 0.68716 0.0
H87 H 0.09619 0.82098 0.70337 0.0
H88 H 0.16711 0.8573 0.65808 0.0
H89 H 0.10852 0.94463 0.72648 0.0
H90 H 0.08099 0.97928 0.70176 0.0
O91 O 0.1045 0.90091 0.60628 0.0
C92 C 0.15135 0.93254 0.57734 0.0
C93 C 0.09113 0.96605 0.65789 0.0
C94 C 0.10766 0.94567 0.70257 0.0
N95 N 0.12084 0.92856 0.65512 0.0
C96 C 0.10568 0.94755 0.64138 0.0
C97 C 0.12194 0.92749 0.68534 0.0
C98 C 0.09218 0.96507 0.68869 0.0
C99 C 0.21417 0.87138 0.56773 0.0
N100 N 0.19202 0.88384 0.55349 0.0
C101 C 0.24354 0.87677 0.56133 0.0
C102 C 0.25018 0.89516 0.54026 0.0
C103 C 0.22749 0.90791 0.52592 0.0
C104 C 0.19839 0.902 0.53287 0.0
C105 C 0.14997 0.8594 0.47272 0.0
C106 C 0.11616 0.88679 0.51233 0.0
C107 C 0.15763 0.86094 0.50259 0.0
N108 N 0.14084 0.87458 0.52198 0.0
C109 C 0.10783 0.88566 0.48261 0.0
C110 C 0.12489 0.87187 0.46272 0.0
C111 C 0.09358 0.88354 0.59006 0.0
C112 C 0.13399 0.83707 0.68184 0.0
C113 C 0.09685 0.8755 0.66371 0.0
C114 C 0.08574 0.85574 0.68093 0.0
C115 C 0.10449 0.83642 0.69004 0.0
N116 N 0.12586 0.87609 0.65582 0.0
C117 C 0.14431 0.85714 0.6646 0.0
Co118 Co 0.36182 0.87609 0.95384 0.0
Co119 Co 0.36997 0.90426 0.88657 0.0
O120 O 0.35046 0.87847 0.91161 0.0
C121 C 0.34702 0.82101 0.93773 0.0
O122 O 0.34561 0.82559 0.90921 0.0
C123 C 0.3087 0.89893 0.85846 0.0
O124 O 0.29867 0.88503 0.88033 0.0
O125 O 0.35478 0.93144 0.91381 0.0
O126 O 0.37056 0.91326 0.9555 0.0
H127 H 0.43073 0.98254 0.87094 0.0
H128 H 0.30347 0.85731 0.93444 0.0
O129 O 0.3534 0.83866 0.95583 0.0
H130 H 0.28238 0.92113 0.01108 0.0
H131 H 0.35297 0.84723 0.05987 0.0
H132 H 0.41159 0.89675 0.98863 0.0
H133 H 0.33345 0.91108 0.99736 0.0
H134 H 0.33759 0.85055 1.00772 0.0
O135 O 0.33459 0.90818 0.85968 0.0
H136 H 0.40642 0.94924 0.90025 0.0
H137 H 0.37516 0.91457 0.82158 0.0
H138 H 0.42759 0.89411 0.04063 0.0
H139 H 0.25208 0.86653 0.94775 0.0
H140 H 0.39822 0.86919 0.07667 0.0
H141 H 0.24123 0.8987 0.98631 0.0
O142 O 0.40315 0.86895 0.9415 0.0
H143 H 0.36238 0.82347 0.82806 0.0
H144 H 0.42807 0.89281 0.8585 0.0
H145 H 0.44735 0.85865 0.82698 0.0
H146 H 0.41438 0.82368 0.81136 0.0
H147 H 0.34417 0.85778 0.85994 0.0
H148 H 0.39879 0.94768 0.79142 0.0
H149 H 0.42696 0.98194 0.8161 0.0
O150 O 0.40722 0.90156 0.91038 0.0
C151 C 0.36119 0.93247 0.94134 0.0
C152 C 0.41845 0.96775 0.85992 0.0
C153 C 0.40049 0.94822 0.81531 0.0
N154 N 0.38912 0.93006 0.8627 0.0
C155 C 0.40461 0.94883 0.87642 0.0
C156 C 0.38695 0.92962 0.83252 0.0
C157 C 0.41632 0.96741 0.82916 0.0
C158 C 0.299 0.87109 0.95146 0.0
N159 N 0.32152 0.88339 0.96528 0.0
C160 C 0.26982 0.87634 0.95882 0.0
C161 C 0.26374 0.89442 0.98042 0.0
C162 C 0.28681 0.90701 0.99432 0.0
C163 C 0.31571 0.90125 0.9864 0.0
C164 C 0.36597 0.85813 0.04437 0.0
C165 C 0.39863 0.88591 1.00415 0.0
C166 C 0.35744 0.86 0.01477 0.0
N167 N 0.37367 0.87383 0.99507 0.0
C168 C 0.40783 0.88446 0.03359 0.0
C169 C 0.39135 0.87047 0.05379 0.0
C170 C 0.41873 0.8839 0.92579 0.0
C171 C 0.37694 0.83868 0.83457 0.0
C172 C 0.41357 0.87766 0.85197 0.0
C173 C 0.42462 0.85837 0.83402 0.0
C174 C 0.40612 0.83878 0.82526 0.0
N175 N 0.38483 0.87757 0.86089 0.0
C176 C 0.36667 0.85829 0.85252 0.0
Co177 Co 0.14965 0.14335 0.45177 0.0
Co178 Co 0.14036 0.11155 0.38713 0.0
O179 O 0.16031 0.13867 0.40971 0.0
C180 C 0.16658 0.19691 0.43148 0.0
O181 O 0.17044 0.19009 0.40381 0.0
C182 C 0.20119 0.11583 0.35798 0.0
O183 O 0.21179 0.12911 0.38006 0.0
O184 O 0.1566 0.08591 0.41574 0.0
O185 O 0.14131 0.1062 0.45633 0.0
H186 H 0.08028 0.03211 0.37836 0.0
H187 H 0.20825 0.16027 0.42981 0.0
O188 O 0.15787 0.18089 0.45068 0.0
H189 H 0.22933 0.10205 0.51228 0.0
H190 H 0.15926 0.17857 0.55502 0.0
H191 H 0.10073 0.12417 0.48891 0.0
H192 H 0.17826 0.11133 0.49799 0.0
H193 H 0.17399 0.17246 0.50301 0.0
O194 O 0.17508 0.10704 0.35932 0.0
H195 H 0.10491 0.06691 0.40478 0.0
H196 H 0.1336 0.09817 0.32312 0.0
H197 H 0.08541 0.12955 0.54087 0.0
H198 H 0.25958 0.15179 0.4436 0.0
H199 H 0.11476 0.15693 0.57433 0.0
H200 H 0.27046 0.12244 0.48512 0.0
O201 O 0.10812 0.14978 0.43942 0.0
H202 H 0.14492 0.1892 0.32278 0.0
H203 H 0.08099 0.12142 0.36115 0.0
H204 H 0.06017 0.1539 0.32818 0.0
H205 H 0.09223 0.18807 0.30861 0.0
H206 H 0.16475 0.15656 0.35609 0.0
H207 H 0.10959 0.06353 0.29582 0.0
H208 H 0.08256 0.03022 0.32347 0.0
O209 O 0.1038 0.11488 0.41202 0.0
C210 C 0.15037 0.08621 0.44339 0.0
C211 C 0.09205 0.04648 0.36606 0.0
C212 C 0.10854 0.06408 0.31975 0.0
N213 N 0.12094 0.08449 0.36556 0.0
C214 C 0.10607 0.06625 0.38091 0.0
C215 C 0.12229 0.08356 0.33535 0.0
C216 C 0.09335 0.04542 0.33527 0.0
C217 C 0.21265 0.14781 0.44814 0.0
N218 N 0.19011 0.13672 0.46332 0.0
C219 C 0.24185 0.14293 0.45576 0.0
C220 C 0.24795 0.12643 0.47901 0.0
C221 C 0.22489 0.11499 0.49425 0.0
C222 C 0.19598 0.12033 0.48601 0.0
C223 C 0.14629 0.16659 0.54067 0.0
C224 C 0.11368 0.13605 0.50332 0.0
C225 C 0.15445 0.16313 0.51114 0.0
N226 N 0.13827 0.14791 0.49289 0.0
C227 C 0.10487 0.13905 0.53273 0.0
C228 C 0.12133 0.15443 0.55148 0.0
C229 C 0.09242 0.13354 0.42578 0.0
C230 C 0.13076 0.17433 0.33101 0.0
C231 C 0.09515 0.1362 0.35278 0.0
C232 C 0.0832 0.15455 0.33408 0.0
C233 C 0.10119 0.1737 0.32311 0.0
N234 N 0.12425 0.13681 0.3603 0.0
C235 C 0.14193 0.15567 0.34979 0.0
Co236 Co 0.69736 0.89567 0.90075 0.0
Co237 Co 0.6925 0.86523 0.96719 0.0
O238 O 0.71058 0.86845 0.92759 0.0
C239 C 0.71743 0.85321 0.85917 0.0
O240 O 0.72397 0.83793 0.8811 0.0
C241 C 0.75492 0.84494 0.97501 0.0
O242 O 0.76193 0.8499 0.94743 0.0
O243 O 0.70537 0.90052 0.97649 0.0
O244 O 0.68883 0.9187 0.9351 0.0
H245 H 0.63131 0.89646 0.05232 0.0
H246 H 0.75782 0.87362 0.89517 0.0
O247 O 0.70575 0.87473 0.86424 0.0
H248 H 0.77257 0.96552 0.90451 0.0
H249 H 0.69999 0.9503 0.80924 0.0
H250 H 0.64649 0.93075 0.90139 0.0
H251 H 0.72273 0.94756 0.90497 0.0
H252 H 0.7181 0.91724 0.84312 0.0
O253 O 0.72986 0.85134 0.9852 0.0
H254 H 0.65363 0.89854 1.00265 0.0
H255 H 0.69408 0.82699 0.01608 0.0
H256 H 0.62779 0.96412 0.86826 0.0
H257 H 0.80791 0.89077 0.89417 0.0
H258 H 0.65459 0.97409 0.82179 0.0
H259 H 0.81567 0.93709 0.8989 0.0
O260 O 0.6566 0.88178 0.90268 0.0
H261 H 0.70342 0.77757 0.92434 0.0
H262 H 0.6368 0.83642 0.97578 0.0
H263 H 0.61942 0.79371 0.96315 0.0
H264 H 0.65288 0.76382 0.93738 0.0
H265 H 0.7197 0.82048 0.93696 0.0
H266 H 0.67243 0.82429 0.066 0.0
H267 H 0.64066 0.85914 0.08438 0.0
O268 O 0.65378 0.87811 0.95188 0.0
C269 C 0.6982 0.92015 0.96165 0.0
C270 C 0.64506 0.88113 0.04454 0.0
C271 C 0.66817 0.84065 0.05223 0.0
N272 N 0.67503 0.86286 1.00635 0.0
C273 C 0.65772 0.88217 0.01639 0.0
C274 C 0.68046 0.84234 0.02397 0.0
C275 C 0.65034 0.86019 0.06252 0.0
C276 C 0.76074 0.89374 0.89678 0.0
N277 N 0.73707 0.90946 0.89957 0.0
C278 C 0.78931 0.90339 0.8964 0.0
C279 C 0.79366 0.92936 0.89911 0.0
C280 C 0.7695 0.94531 0.90226 0.0
C281 C 0.74127 0.93498 0.90253 0.0
C282 C 0.68812 0.94614 0.82943 0.0
C283 C 0.65836 0.93503 0.88129 0.0
C284 C 0.69821 0.92737 0.84867 0.0
N285 N 0.68344 0.92211 0.87433 0.0
C286 C 0.64763 0.95393 0.86258 0.0
C287 C 0.66266 0.95949 0.8365 0.0
C288 C 0.64166 0.87908 0.92642 0.0
C289 C 0.68869 0.79034 0.93577 0.0
C290 C 0.65156 0.82363 0.96456 0.0
C291 C 0.64156 0.7994 0.95748 0.0
C292 C 0.66033 0.78265 0.94303 0.0
N293 N 0.67955 0.83103 0.95765 0.0
C294 C 0.69791 0.81473 0.9432 0.0
Co295 Co 0.81212 0.12539 0.40412 0.0
Co296 Co 0.82247 0.15019 0.47274 0.0
O297 O 0.80287 0.15115 0.43401 0.0
C298 C 0.81823 0.15519 0.3485 0.0
O299 O 0.84502 0.14614 0.34619 0.0
C300 C 0.75998 0.16676 0.48585 0.0
O301 O 0.75025 0.15441 0.46268 0.0
O302 O 0.80683 0.11531 0.47929 0.0
O303 O 0.81986 0.09901 0.43545 0.0
H304 H 0.88308 0.10954 0.55262 0.0
H305 H 0.75557 0.15293 0.39922 0.0
O306 O 0.80331 0.15081 0.37191 0.0
H307 H 0.72845 0.0629 0.40765 0.0
H308 H 0.79722 0.07664 0.30925 0.0
H309 H 0.8599 0.08783 0.39724 0.0
H310 H 0.78044 0.07581 0.40783 0.0
H311 H 0.78481 0.10858 0.34699 0.0
O312 O 0.78711 0.16576 0.49274 0.0
H313 H 0.85895 0.11206 0.50389 0.0
H314 H 0.82648 0.18536 0.52441 0.0
H315 H 0.87306 0.05563 0.36006 0.0
H316 H 0.70329 0.14078 0.39834 0.0
H317 H 0.84163 0.04988 0.31566 0.0
H318 H 0.68943 0.09549 0.40271 0.0
O319 O 0.85431 0.13619 0.40555 0.0
H320 H 0.81593 0.24103 0.44041 0.0
H321 H 0.88143 0.1745 0.47915 0.0
H322 H 0.90137 0.217 0.46918 0.0
H323 H 0.86851 0.25067 0.44978 0.0
H324 H 0.79696 0.19817 0.45036 0.0
H325 H 0.85006 0.18352 0.57346 0.0
H326 H 0.87872 0.14544 0.58781 0.0
O327 O 0.85922 0.13561 0.45481 0.0
C328 C 0.812 0.09635 0.46248 0.0
C329 C 0.8707 0.12625 0.54661 0.0
C330 C 0.85213 0.16775 0.55832 0.0
N331 N 0.84139 0.14886 0.51122 0.0
C332 C 0.85701 0.12781 0.51901 0.0
C333 C 0.83874 0.16864 0.53054 0.0
C334 C 0.86822 0.14639 0.56635 0.0
C335 C 0.74975 0.13316 0.40083 0.0
N336 N 0.77111 0.11514 0.40359 0.0
C337 C 0.72009 0.1264 0.40045 0.0
C338 C 0.71233 0.10099 0.40296 0.0
C339 C 0.73421 0.08271 0.40577 0.0
C340 C 0.76363 0.09017 0.40605 0.0
C341 C 0.81111 0.07898 0.32849 0.0
C342 C 0.84612 0.08548 0.37797 0.0
C343 C 0.80421 0.09705 0.34994 0.0
N344 N 0.82167 0.10015 0.3743 0.0
C345 C 0.85367 0.06719 0.357 0.0
C346 C 0.83602 0.06397 0.3321 0.0
C347 C 0.87023 0.13603 0.42882 0.0
C348 C 0.83044 0.22655 0.44898 0.0
C349 C 0.86697 0.18901 0.47065 0.0
C350 C 0.8784 0.21306 0.46509 0.0
C351 C 0.85995 0.23194 0.45421 0.0
N352 N 0.83795 0.18389 0.46561 0.0
C353 C 0.81979 0.20226 0.45477 0.0
Co354 Co 0.69608 0.12112 0.11297 0.0
Co355 Co 0.68703 0.15025 0.04651 0.0
O356 O 0.70703 0.14842 0.0853 0.0
C357 C 0.71517 0.16468 0.15337 0.0
O358 O 0.72081 0.1799 0.13111 0.0
C359 C 0.74921 0.16916 0.03389 0.0
O360 O 0.75988 0.1578 0.05736 0.0
O361 O 0.70243 0.11581 0.03691 0.0
O362 O 0.68804 0.09737 0.07906 0.0
H363 H 0.62609 0.11487 0.96354 0.0
H364 H 0.75551 0.1455 0.11623 0.0
O365 O 0.70427 0.14279 0.14885 0.0
H366 H 0.77469 0.05409 0.10843 0.0
H367 H 0.70387 0.06783 0.20525 0.0
H368 H 0.64735 0.08392 0.1141 0.0
H369 H 0.72399 0.07019 0.1089 0.0
H370 H 0.71929 0.1012 0.17045 0.0
O371 O 0.72214 0.16681 0.02724 0.0
H372 H 0.65063 0.11417 0.01214 0.0
H373 H 0.68195 0.18897 0.99846 0.0
H374 H 0.63138 0.05017 0.14816 0.0
H375 H 0.80642 0.13022 0.11638 0.0
H376 H 0.65971 0.04194 0.19413 0.0
H377 H 0.81642 0.08416 0.11239 0.0
O378 O 0.65458 0.13363 0.11228 0.0
H379 H 0.6946 0.2387 0.08662 0.0
H380 H 0.62816 0.1753 0.04283 0.0
H381 H 0.60865 0.2171 0.05685 0.0
H382 H 0.64197 0.2492 0.07883 0.0
H383 H 0.71312 0.19657 0.07258 0.0
H384 H 0.65798 0.19038 0.94959 0.0
H385 H 0.62969 0.15318 0.93187 0.0
O386 O 0.65022 0.13475 0.06314 0.0
C387 C 0.69687 0.09603 0.05225 0.0
C388 C 0.63835 0.13121 0.97102 0.0
C389 C 0.65627 0.17357 0.96317 0.0
N390 N 0.66774 0.1515 1.00819 0.0
C391 C 0.65228 0.13094 0.99855 0.0
C392 C 0.66992 0.17261 0.99083 0.0
C393 C 0.64039 0.1527 0.95325 0.0
C394 C 0.7594 0.12547 0.11508 0.0
N395 N 0.7365 0.10886 0.11321 0.0
C396 C 0.78843 0.11689 0.1149 0.0
C397 C 0.79403 0.09106 0.11259 0.0
C398 C 0.77064 0.0742 0.11036 0.0
C399 C 0.74192 0.08348 0.11062 0.0
C400 C 0.69135 0.07122 0.18529 0.0
C401 C 0.65988 0.08041 0.13399 0.0
C402 C 0.6999 0.09018 0.16553 0.0
N403 N 0.68429 0.09449 0.14017 0.0
C404 C 0.65069 0.06129 0.15322 0.0
C405 C 0.66658 0.0567 0.17903 0.0
C406 C 0.63888 0.13462 0.08894 0.0
C407 C 0.67987 0.22491 0.07698 0.0
C408 C 0.64282 0.18911 0.05247 0.0
C409 C 0.63164 0.21278 0.06031 0.0
C410 C 0.65034 0.23078 0.07263 0.0
N411 N 0.67185 0.1835 0.05672 0.0
C412 C 0.69028 0.20103 0.06888 0.0
Co413 Co 0.81262 0.89019 0.60515 0.0
Co414 Co 0.82272 0.86291 0.53754 0.0
O415 O 0.8029 0.86371 0.57622 0.0
C416 C 0.81818 0.86187 0.66189 0.0
O417 O 0.84514 0.8706 0.66376 0.0
C418 C 0.76009 0.84583 0.52489 0.0
O419 O 0.7502 0.85699 0.54883 0.0
O420 O 0.8085 0.89809 0.52944 0.0
O421 O 0.82099 0.91545 0.57287 0.0
H422 H 0.8854 0.89962 0.45662 0.0
H423 H 0.75558 0.86355 0.61104 0.0
O424 O 0.80327 0.86586 0.63839 0.0
H425 H 0.73005 0.95361 0.59878 0.0
H426 H 0.7982 0.94177 0.69806 0.0
H427 H 0.86105 0.92728 0.61074 0.0
H428 H 0.78181 0.94003 0.59933 0.0
H429 H 0.78537 0.90899 0.66149 0.0
O430 O 0.78706 0.84786 0.51766 0.0
H431 H 0.86072 0.89913 0.5052 0.0
H432 H 0.8262 0.82605 0.48739 0.0
H433 H 0.87466 0.96029 0.64675 0.0
H434 H 0.70351 0.87639 0.61118 0.0
H435 H 0.84313 0.9677 0.6908 0.0
H436 H 0.69045 0.92171 0.60488 0.0
O437 O 0.85468 0.879 0.60428 0.0
H438 H 0.81218 0.7736 0.57444 0.0
H439 H 0.88035 0.83611 0.53157 0.0
H440 H 0.89835 0.79335 0.54345 0.0
H441 H 0.86412 0.76167 0.56492 0.0
H442 H 0.79522 0.81671 0.56261 0.0
H443 H 0.85026 0.82587 0.4385 0.0
H444 H 0.88024 0.8628 0.42287 0.0
O445 O 0.8599 0.87672 0.55513 0.0
C446 C 0.81365 0.91743 0.54565 0.0
C447 C 0.87241 0.88341 0.46318 0.0
C448 C 0.85266 0.84204 0.45299 0.0
N449 N 0.84204 0.86258 0.49919 0.0
C450 C 0.8584 0.883 0.49069 0.0
C451 C 0.83896 0.8423 0.48066 0.0
C452 C 0.8695 0.86275 0.44425 0.0
C453 C 0.75011 0.88334 0.60856 0.0
N454 N 0.77178 0.90097 0.60515 0.0
C455 C 0.72057 0.89048 0.60853 0.0
C456 C 0.71325 0.9159 0.60495 0.0
C457 C 0.73545 0.9338 0.60148 0.0
C458 C 0.76475 0.92596 0.60163 0.0
C459 C 0.81212 0.93871 0.67896 0.0
C460 C 0.84722 0.93036 0.62986 0.0
C461 C 0.80498 0.92017 0.65817 0.0
N462 N 0.82248 0.91616 0.63399 0.0
C463 C 0.85503 0.9491 0.65017 0.0
C464 C 0.83733 0.95325 0.67488 0.0
C465 C 0.87078 0.87756 0.58114 0.0
C466 C 0.82729 0.7872 0.56499 0.0
C467 C 0.86535 0.82253 0.54105 0.0
C468 C 0.87565 0.79829 0.54766 0.0
C469 C 0.85643 0.78053 0.55968 0.0
N470 N 0.83667 0.82892 0.54616 0.0
C471 C 0.81777 0.81164 0.55813 0.0
Co472 Co 0.86136 0.6428 0.06577 0.0
Co473 Co 0.86673 0.61217 0.13188 0.0
O474 O 0.84827 0.63876 0.10726 0.0
C475 C 0.84215 0.6963 0.08386 0.0
O476 O 0.83417 0.68931 0.11057 0.0
C477 C 0.80491 0.61792 0.15818 0.0
O478 O 0.79683 0.63432 0.13794 0.0
O479 O 0.85283 0.5861 0.10276 0.0
O480 O 0.87 0.60563 0.06241 0.0
H481 H 0.92733 0.53368 0.14675 0.0
H482 H 0.80104 0.65911 0.08429 0.0
O483 O 0.85339 0.68041 0.06589 0.0
H484 H 0.78593 0.60081 1.00072 0.0
H485 H 0.85823 0.6775 0.96184 0.0
H486 H 0.91211 0.62289 0.03173 0.0
H487 H 0.83587 0.61059 0.01812 0.0
H488 H 0.84042 0.67182 0.01295 0.0
O489 O 0.83004 0.60729 0.15664 0.0
H490 H 0.90452 0.56806 0.11791 0.0
H491 H 0.86737 0.59883 0.19632 0.0
H492 H 0.93051 0.62787 0.98074 0.0
H493 H 0.75086 0.65015 0.06739 0.0
H494 H 0.90351 0.65534 0.94538 0.0
H495 H 0.74293 0.62076 0.02528 0.0
O496 O 0.90201 0.64929 0.08021 0.0
H497 H 0.85774 0.69146 0.19327 0.0
H498 H 0.92326 0.62174 0.16352 0.0
H499 H 0.94155 0.65444 0.19757 0.0
H500 H 0.90865 0.68959 0.21287 0.0
H501 H 0.84053 0.65862 0.15899 0.0
H502 H 0.88948 0.56461 0.22593 0.0
H503 H 0.91985 0.53178 0.20117 0.0
O504 O 0.9051 0.6157 0.10998 0.0
C505 C 0.86024 0.58595 0.07546 0.0
C506 C 0.91416 0.54788 0.1578 0.0
C507 C 0.89288 0.56521 0.20223 0.0
N508 N 0.88461 0.58547 0.15536 0.0
C509 C 0.9012 0.56742 0.14158 0.0
C510 C 0.88028 0.58448 0.1853 0.0
C511 C 0.90994 0.54682 0.18832 0.0
C512 C 0.79803 0.64671 0.06569 0.0
N513 N 0.82163 0.63595 0.05189 0.0
C514 C 0.76942 0.64152 0.05631 0.0
C515 C 0.76498 0.62499 0.03274 0.0
C516 C 0.78908 0.61381 0.01895 0.0
C517 C 0.81736 0.61946 0.02893 0.0
C518 C 0.87017 0.66545 0.97703 0.0
C519 C 0.90014 0.63478 0.01647 0.0
C520 C 0.86025 0.66222 1.00604 0.0
N521 N 0.87512 0.64691 0.02532 0.0
C522 C 0.91071 0.63757 0.98762 0.0
C523 C 0.89557 0.65301 0.96781 0.0
C524 C 0.91708 0.63378 0.09563 0.0
C525 C 0.87222 0.67613 0.18697 0.0
C526 C 0.90873 0.63691 0.16999 0.0
C527 C 0.91925 0.6554 0.18934 0.0
C528 C 0.9008 0.67511 0.19791 0.0
N529 N 0.88054 0.63784 0.15954 0.0
C530 C 0.86248 0.6573 0.16765 0.0
Co531 Co 0.65294 0.36963 0.57131 0.0
Co532 Co 0.6442 0.40646 0.63229 0.0
O533 O 0.66253 0.37722 0.61271 0.0
C534 C 0.64574 0.3137 0.57031 0.0
O535 O 0.61894 0.31745 0.56046 0.0
C536 C 0.70383 0.39955 0.662 0.0
O537 O 0.71124 0.38202 0.64286 0.0
O538 O 0.66096 0.42919 0.60086 0.0
O539 O 0.6458 0.40638 0.5621 0.0
H540 H 0.58677 0.48769 0.63349 0.0
H541 H 0.70925 0.3506 0.5955 0.0
O542 O 0.66106 0.33259 0.57889 0.0
H543 H 0.73694 0.40462 0.51098 0.0
H544 H 0.66654 0.3276 0.47189 0.0
H545 H 0.60491 0.38527 0.53111 0.0
H546 H 0.68489 0.39831 0.52393 0.0
H547 H 0.6795 0.33737 0.52359 0.0
O548 O 0.67985 0.41184 0.65874 0.0
H549 H 0.6092 0.45002 0.61061 0.0
H550 H 0.64138 0.42615 0.69435 0.0
H551 H 0.59119 0.37604 0.47946 0.0
H552 H 0.7616 0.35614 0.58307 0.0
H553 H 0.6221 0.347 0.44947 0.0
H554 H 0.77576 0.38338 0.54057 0.0
O555 O 0.61083 0.36562 0.5833 0.0
H556 H 0.64408 0.33289 0.70352 0.0
H557 H 0.58532 0.40217 0.66078 0.0
H558 H 0.56286 0.37381 0.69761 0.0
H559 H 0.59234 0.33895 0.71946 0.0
H560 H 0.66552 0.36134 0.66638 0.0
H561 H 0.61955 0.46371 0.71804 0.0
H562 H 0.59188 0.49475 0.68759 0.0
O563 O 0.60725 0.40207 0.60827 0.0
C564 C 0.655 0.42713 0.57326 0.0
C565 C 0.59873 0.47428 0.647 0.0
C566 C 0.61717 0.46085 0.69445 0.0
N567 N 0.62653 0.43583 0.65108 0.0
C568 C 0.61144 0.45288 0.63417 0.0
C569 C 0.6296 0.43966 0.68086 0.0
C570 C 0.60163 0.47824 0.67735 0.0
C571 C 0.71521 0.36241 0.57691 0.0
N572 N 0.69397 0.37417 0.56058 0.0
C573 C 0.7449 0.36551 0.57 0.0
C574 C 0.75283 0.38081 0.54618 0.0
C575 C 0.73107 0.39275 0.52959 0.0
C576 C 0.7016 0.3892 0.53715 0.0
C577 C 0.65288 0.34027 0.48473 0.0
C578 C 0.61845 0.37258 0.51825 0.0
C579 C 0.6601 0.34588 0.51403 0.0
N580 N 0.64292 0.36185 0.53044 0.0
C581 C 0.61059 0.36744 0.48899 0.0
C582 C 0.62795 0.35116 0.47217 0.0
C583 C 0.59551 0.38292 0.59569 0.0
C584 C 0.63111 0.3482 0.69445 0.0
C585 C 0.59846 0.38719 0.67028 0.0
C586 C 0.58554 0.37113 0.6911 0.0
C587 C 0.60207 0.35157 0.70333 0.0
N588 N 0.62716 0.38408 0.66201 0.0
C589 C 0.64329 0.36462 0.67353 0.0
Co590 Co 0.86151 0.37473 0.95471 0.0
Co591 Co 0.86572 0.40418 0.88775 0.0
O592 O 0.84817 0.37771 0.91317 0.0
C593 C 0.846 0.32016 0.93749 0.0
O594 O 0.84367 0.32561 0.90925 0.0
C595 C 0.80371 0.39708 0.86264 0.0
O596 O 0.7969 0.3799 0.88249 0.0
O597 O 0.85206 0.43055 0.91664 0.0
O598 O 0.87025 0.41189 0.95695 0.0
H599 H 0.92571 0.48259 0.8703 0.0
H600 H 0.8023 0.35612 0.93773 0.0
O601 O 0.85326 0.33721 0.95605 0.0
H602 H 0.78483 0.4183 0.01707 0.0
H603 H 0.858 0.34364 0.06019 0.0
H604 H 0.91281 0.39492 0.98759 0.0
H605 H 0.83519 0.40872 1.00052 0.0
H606 H 0.84009 0.34795 0.00896 0.0
O607 O 0.82831 0.40861 0.86393 0.0
H608 H 0.90395 0.4483 0.90011 0.0
H609 H 0.86392 0.4174 0.82327 0.0
H610 H 0.93134 0.39129 0.03865 0.0
H611 H 0.75161 0.3649 0.95384 0.0
H612 H 0.90388 0.36549 0.07537 0.0
H613 H 0.74258 0.39624 0.99378 0.0
O614 O 0.90214 0.36816 0.94014 0.0
H615 H 0.85697 0.32423 0.82726 0.0
H616 H 0.92161 0.39509 0.85491 0.0
H617 H 0.93982 0.36252 0.82064 0.0
H618 H 0.90735 0.3268 0.80637 0.0
H619 H 0.83988 0.3569 0.86176 0.0
H620 H 0.88497 0.45153 0.79274 0.0
H621 H 0.91625 0.48437 0.81621 0.0
O622 O 0.90463 0.40092 0.90888 0.0
C623 C 0.86002 0.43125 0.94372 0.0
C624 C 0.91216 0.46836 0.85981 0.0
C625 C 0.88926 0.45095 0.81629 0.0
N626 N 0.88275 0.43079 0.8635 0.0
C627 C 0.89982 0.44886 0.87658 0.0
C628 C 0.87729 0.43173 0.83374 0.0
C629 C 0.90682 0.46936 0.82947 0.0
C630 C 0.79864 0.36955 0.95531 0.0
N631 N 0.82179 0.38164 0.96832 0.0
C632 C 0.76984 0.37455 0.96427 0.0
C633 C 0.76479 0.39216 0.98664 0.0
C634 C 0.78847 0.40454 0.99971 0.0
C635 C 0.81696 0.39905 0.99019 0.0
C636 C 0.87017 0.35494 0.04439 0.0
C637 C 0.90067 0.38371 1.00342 0.0
C638 C 0.8602 0.35737 0.0153 0.0
N639 N 0.87536 0.3717 0.99524 0.0
C640 C 0.9113 0.3817 0.03231 0.0
C641 C 0.8959 0.36721 0.0529 0.0
C642 C 0.91691 0.38336 0.92393 0.0
C643 C 0.87125 0.33982 0.83308 0.0
C644 C 0.90726 0.37968 0.8489 0.0
C645 C 0.91773 0.36126 0.82941 0.0
C646 C 0.89953 0.34124 0.82142 0.0
N647 N 0.87933 0.37839 0.86004 0.0
C648 C 0.86154 0.3586 0.85252 0.0
Co649 Co 0.65385 0.6373 0.45309 0.0
Co650 Co 0.63787 0.61007 0.38653 0.0
O651 O 0.65968 0.63549 0.40994 0.0
C652 C 0.66339 0.69262 0.43498 0.0
O653 O 0.66335 0.68735 0.4066 0.0
C654 C 0.69791 0.60828 0.35614 0.0
O655 O 0.71207 0.60681 0.3814 0.0
O656 O 0.6565 0.5823 0.41034 0.0
O657 O 0.64913 0.5994 0.4553 0.0
H658 H 0.57622 0.53204 0.37241 0.0
H659 H 0.70765 0.658 0.42451 0.0
O660 O 0.65922 0.6752 0.45405 0.0
H661 H 0.74346 0.59933 0.50122 0.0
H662 H 0.67252 0.66776 0.55719 0.0
H663 H 0.61147 0.61297 0.49386 0.0
H664 H 0.69037 0.60586 0.49389 0.0
H665 H 0.68167 0.66526 0.50349 0.0
O666 O 0.66996 0.60928 0.3558 0.0
H667 H 0.60256 0.56455 0.40106 0.0
H668 H 0.62757 0.60185 0.32183 0.0
H669 H 0.60178 0.6147 0.54754 0.0
H670 H 0.76088 0.6522 0.43123 0.0
H671 H 0.63241 0.64227 0.57959 0.0
H672 H 0.77917 0.62266 0.46982 0.0
O673 O 0.61078 0.6423 0.44641 0.0
H674 H 0.63677 0.69166 0.3294 0.0
H675 H 0.57613 0.62195 0.3685 0.0
H676 H 0.55238 0.65688 0.34145 0.0
H677 H 0.58276 0.69205 0.32159 0.0
H678 H 0.6596 0.65648 0.35692 0.0
H679 H 0.6017 0.56973 0.29222 0.0
H680 H 0.5757 0.53449 0.3175 0.0
O681 O 0.60403 0.61025 0.41502 0.0
C682 C 0.65531 0.58061 0.43862 0.0
C683 C 0.58757 0.54723 0.36111 0.0
C684 C 0.60189 0.56836 0.31612 0.0
N685 N 0.61697 0.58491 0.36325 0.0
C686 C 0.6026 0.56565 0.37727 0.0
C687 C 0.61669 0.58643 0.33303 0.0
C688 C 0.58728 0.54862 0.33032 0.0
C689 C 0.71532 0.64537 0.44158 0.0
N690 N 0.6958 0.63263 0.45907 0.0
C691 C 0.74555 0.64204 0.44518 0.0
C692 C 0.7558 0.62545 0.4668 0.0
C693 C 0.73579 0.61237 0.48443 0.0
C694 C 0.70573 0.61616 0.48017 0.0
C695 C 0.65902 0.65568 0.54346 0.0
C696 C 0.62498 0.62493 0.50767 0.0
C697 C 0.66401 0.65426 0.513 0.0
N698 N 0.64716 0.63892 0.49552 0.0
C699 C 0.61935 0.62587 0.53805 0.0
C700 C 0.63653 0.64136 0.55601 0.0
C701 C 0.59404 0.62717 0.43235 0.0
C702 C 0.62329 0.67645 0.33794 0.0
C703 C 0.58951 0.63726 0.36015 0.0
C704 C 0.57593 0.65695 0.34473 0.0
C705 C 0.59299 0.67666 0.33359 0.0
N706 N 0.61925 0.63722 0.36444 0.0
C707 C 0.6361 0.65646 0.3535 0.0
Co708 Co 0.19706 0.39629 0.90387 0.0
Co709 Co 0.18875 0.36714 0.97072 0.0
O710 O 0.20856 0.36931 0.93185 0.0
C711 C 0.21641 0.35244 0.86397 0.0
O712 O 0.22198 0.33743 0.88643 0.0
C713 C 0.25131 0.34854 0.98299 0.0
O714 O 0.2613 0.35769 0.95793 0.0
O715 O 0.20257 0.4022 0.97996 0.0
O716 O 0.18853 0.42017 0.93744 0.0
H717 H 0.12622 0.4014 0.05322 0.0
H718 H 0.25675 0.37245 0.90034 0.0
O719 O 0.20557 0.37441 0.86821 0.0
H720 H 0.2748 0.46404 0.90796 0.0
H721 H 0.20427 0.44893 0.81104 0.0
H722 H 0.14765 0.43285 0.90222 0.0
H723 H 0.22429 0.44749 0.90767 0.0
H724 H 0.22015 0.41605 0.84626 0.0
O725 O 0.22458 0.35205 0.99041 0.0
H726 H 0.15075 0.40234 1.00458 0.0
H727 H 0.18527 0.32874 0.01934 0.0
H728 H 0.13119 0.46608 0.86771 0.0
H729 H 0.30747 0.38818 0.90005 0.0
H730 H 0.15957 0.4743 0.82172 0.0
H731 H 0.3169 0.43433 0.90394 0.0
O732 O 0.15571 0.38355 0.90477 0.0
H733 H 0.20038 0.27874 0.93119 0.0
H734 H 0.1314 0.33976 0.97564 0.0
H735 H 0.11387 0.2972 0.96232 0.0
H736 H 0.1485 0.26626 0.94003 0.0
H737 H 0.21685 0.32162 0.94448 0.0
H738 H 0.16135 0.32712 0.06826 0.0
H739 H 0.13145 0.36359 0.08545 0.0
O740 O 0.15124 0.38105 0.95386 0.0
C741 C 0.19683 0.42178 0.96436 0.0
C742 C 0.13918 0.38538 0.04598 0.0
C743 C 0.15893 0.34371 0.05444 0.0
N744 N 0.16948 0.36564 0.00908 0.0
C745 C 0.15313 0.3858 0.01843 0.0
C746 C 0.17256 0.3448 0.02676 0.0
C747 C 0.14214 0.36417 0.06406 0.0
C748 C 0.2604 0.39251 0.90152 0.0
N749 N 0.2373 0.40893 0.90345 0.0
C750 C 0.28932 0.40135 0.90158 0.0
C751 C 0.2946 0.42723 0.90383 0.0
C752 C 0.271 0.44389 0.90609 0.0
C753 C 0.2424 0.43436 0.90595 0.0
C754 C 0.19173 0.44554 0.83101 0.0
C755 C 0.16021 0.43637 0.88233 0.0
C756 C 0.20055 0.42688 0.85101 0.0
N757 N 0.18491 0.42257 0.87639 0.0
C758 C 0.15074 0.45519 0.86284 0.0
C759 C 0.16666 0.45978 0.83703 0.0
C760 C 0.13994 0.38171 0.92805 0.0
C761 C 0.18509 0.29202 0.94097 0.0
C762 C 0.14658 0.32653 0.96578 0.0
C763 C 0.13654 0.30239 0.95838 0.0
C764 C 0.15598 0.28504 0.94589 0.0
N765 N 0.17521 0.33324 0.96098 0.0
C766 C 0.19434 0.31634 0.94865 0.0
Co767 Co 0.31577 0.61881 0.40669 0.0
Co768 Co 0.32326 0.64851 0.47303 0.0
O769 O 0.30451 0.64659 0.43357 0.0
C770 C 0.3004 0.66234 0.36403 0.0
O771 O 0.29574 0.67883 0.38525 0.0
C772 C 0.26128 0.66933 0.48289 0.0
O773 O 0.25172 0.65981 0.45787 0.0
O774 O 0.30741 0.61412 0.48269 0.0
O775 O 0.3227 0.59543 0.4411 0.0
H776 H 0.38179 0.61352 0.55802 0.0
H777 H 0.25761 0.6442 0.39974 0.0
O778 O 0.30895 0.63994 0.37012 0.0
H779 H 0.23513 0.55362 0.41174 0.0
H780 H 0.30844 0.56349 0.31608 0.0
H781 H 0.3644 0.58145 0.40708 0.0
H782 H 0.28636 0.56852 0.41224 0.0
H783 H 0.29289 0.59765 0.34975 0.0
O784 O 0.28764 0.66531 0.49122 0.0
H785 H 0.3586 0.61256 0.50876 0.0
H786 H 0.32706 0.6875 0.52086 0.0
H787 H 0.38053 0.54694 0.37417 0.0
H788 H 0.20616 0.63008 0.39864 0.0
H789 H 0.35248 0.53777 0.32828 0.0
H790 H 0.19456 0.58447 0.40472 0.0
O791 O 0.35742 0.63075 0.40833 0.0
H792 H 0.31782 0.73665 0.43134 0.0
H793 H 0.38209 0.67326 0.47844 0.0
H794 H 0.40243 0.71481 0.4646 0.0
H795 H 0.37019 0.74691 0.44098 0.0
H796 H 0.29847 0.69478 0.4452 0.0
H797 H 0.34968 0.68916 0.57037 0.0
H798 H 0.3774 0.65202 0.58921 0.0
O799 O 0.36045 0.63277 0.45758 0.0
C800 C 0.31344 0.59424 0.46774 0.0
C801 C 0.36978 0.62983 0.55005 0.0
C802 C 0.35172 0.67226 0.557 0.0
N803 N 0.34144 0.64993 0.51189 0.0
C804 C 0.3566 0.62941 0.52215 0.0
C805 C 0.33883 0.67116 0.52899 0.0
C806 C 0.36729 0.65143 0.56755 0.0
C807 C 0.25293 0.62432 0.40196 0.0
N808 N 0.27518 0.60726 0.40562 0.0
C809 C 0.22365 0.61643 0.40152 0.0
C810 C 0.21715 0.59085 0.405 0.0
C811 C 0.23989 0.57354 0.40895 0.0
C812 C 0.2689 0.58213 0.40927 0.0
C813 C 0.32086 0.56731 0.33601 0.0
C814 C 0.35203 0.57757 0.38719 0.0
C815 C 0.31223 0.58671 0.35511 0.0
N816 N 0.32772 0.59159 0.3804 0.0
C817 C 0.36129 0.558 0.36862 0.0
C818 C 0.34555 0.55288 0.34287 0.0
C819 C 0.37246 0.63196 0.4321 0.0
C820 C 0.33206 0.72287 0.44176 0.0
C821 C 0.36788 0.68708 0.46812 0.0
C822 C 0.37954 0.71061 0.46038 0.0
C823 C 0.36145 0.7286 0.44713 0.0
N824 N 0.33896 0.68162 0.46293 0.0
C825 C 0.32117 0.69914 0.4498 0.0
Co826 Co 0.19666 0.62142 0.11548 0.0
Co827 Co 0.18914 0.65312 0.05013 0.0
O828 O 0.20859 0.64942 0.08907 0.0
C829 C 0.21417 0.66372 0.15893 0.0
O830 O 0.21826 0.68068 0.1381 0.0
C831 C 0.252 0.67159 0.03895 0.0
O832 O 0.26157 0.66262 0.06426 0.0
O833 O 0.2023 0.61816 0.03916 0.0
O834 O 0.18781 0.59905 0.08077 0.0
H835 H 0.12605 0.62282 0.96607 0.0
H836 H 0.2558 0.64496 0.1219 0.0
O837 O 0.20524 0.64153 0.15243 0.0
H838 H 0.27465 0.55415 0.1063 0.0
H839 H 0.20404 0.56382 0.20418 0.0
H840 H 0.14633 0.58577 0.11549 0.0
H841 H 0.224 0.57045 0.10772 0.0
H842 H 0.22019 0.59817 0.17105 0.0
O843 O 0.22539 0.66812 0.03117 0.0
H844 H 0.15038 0.61979 0.01466 0.0
H845 H 0.18693 0.69309 1.00321 0.0
H846 H 0.12955 0.55114 0.14789 0.0
H847 H 0.30675 0.62943 0.1211 0.0
H848 H 0.15847 0.53996 0.19262 0.0
H849 H 0.31651 0.5837 0.11318 0.0
O850 O 0.15547 0.63449 0.11522 0.0
H851 H 0.20228 0.73989 0.09393 0.0
H852 H 0.13244 0.68157 0.04618 0.0
H853 H 0.1157 0.72394 0.06132 0.0
H854 H 0.15078 0.75352 0.08527 0.0
H855 H 0.21795 0.69723 0.07881 0.0
H856 H 0.16323 0.69679 0.95437 0.0
H857 H 0.13241 0.66153 0.93554 0.0
O858 O 0.15126 0.63932 0.0663 0.0
C859 C 0.19613 0.59817 0.05384 0.0
C860 C 0.13942 0.63831 0.97403 0.0
C861 C 0.16032 0.67981 0.96745 0.0
N862 N 0.1701 0.65622 0.01181 0.0
C863 C 0.15325 0.63672 1.00155 0.0
C864 C 0.17381 0.67755 0.99507 0.0
C865 C 0.14301 0.66003 0.95691 0.0
C866 C 0.25972 0.62503 0.11885 0.0
N867 N 0.23678 0.60868 0.1152 0.0
C868 C 0.2887 0.61634 0.11824 0.0
C869 C 0.29416 0.59069 0.11373 0.0
C870 C 0.2707 0.57411 0.10986 0.0
C871 C 0.24203 0.58349 0.1106 0.0
C872 C 0.19123 0.56852 0.18477 0.0
C873 C 0.15909 0.58102 0.13488 0.0
C874 C 0.2002 0.58804 0.16597 0.0
N875 N 0.18423 0.59402 0.14131 0.0
C876 C 0.14945 0.56139 0.15316 0.0
C877 C 0.16568 0.55513 0.17826 0.0
C878 C 0.13986 0.63754 0.09202 0.0
C879 C 0.18682 0.72722 0.0834 0.0
C880 C 0.14782 0.69422 0.05672 0.0
C881 C 0.13823 0.71826 0.06517 0.0
C882 C 0.15791 0.73484 0.07858 0.0
N883 N 0.17627 0.68689 0.06136 0.0
C884 C 0.19562 0.70304 0.07464 0.0
Co885 Co 0.31359 0.38784 0.61272 0.0
Co886 Co 0.32887 0.36358 0.54485 0.0
O887 O 0.30752 0.36155 0.58263 0.0
C888 C 0.31968 0.3588 0.66873 0.0
O889 O 0.34595 0.36882 0.67138 0.0
C890 C 0.26809 0.34589 0.52691 0.0
O891 O 0.2559 0.36081 0.54662 0.0
O892 O 0.31077 0.39744 0.53736 0.0
O893 O 0.32083 0.41447 0.58157 0.0
H894 H 0.3895 0.40757 0.46737 0.0
H895 H 0.25907 0.35731 0.61445 0.0
O896 O 0.30513 0.36225 0.64488 0.0
H897 H 0.22581 0.44575 0.60516 0.0
H898 H 0.2911 0.43612 0.70644 0.0
H899 H 0.35834 0.42777 0.62137 0.0
H900 H 0.27859 0.43569 0.60771 0.0
H901 H 0.28259 0.4035 0.66844 0.0
O902 O 0.29589 0.34578 0.52361 0.0
H903 H 0.36344 0.40376 0.51499 0.0
H904 H 0.33838 0.32849 0.49385 0.0
H905 H 0.36761 0.46072 0.65884 0.0
H906 H 0.20601 0.36658 0.61248 0.0
H907 H 0.33387 0.46504 0.70177 0.0
H908 H 0.18907 0.41108 0.6077 0.0
O909 O 0.3565 0.37915 0.6132 0.0
H910 H 0.32798 0.27268 0.57742 0.0
H911 H 0.38994 0.3428 0.54151 0.0
H912 H 0.4127 0.30162 0.55291 0.0
H913 H 0.38164 0.26617 0.5709 0.0
H914 H 0.30615 0.3143 0.56609 0.0
H915 H 0.36397 0.33159 0.44588 0.0
H916 H 0.38989 0.37131 0.43241 0.0
O917 O 0.36346 0.38042 0.56424 0.0
C918 C 0.31382 0.41666 0.55427 0.0
C919 C 0.37832 0.39015 0.47299 0.0
C920 C 0.36396 0.34752 0.46091 0.0
N921 N 0.34941 0.36592 0.50726 0.0
C922 C 0.36354 0.38786 0.49996 0.0
C923 C 0.34939 0.34592 0.48807 0.0
C924 C 0.37851 0.36981 0.45338 0.0
C925 C 0.25187 0.37674 0.61266 0.0
N926 N 0.27196 0.39591 0.61129 0.0
C927 C 0.2218 0.38187 0.61143 0.0
C928 C 0.21231 0.40683 0.6087 0.0
C929 C 0.23291 0.42629 0.60724 0.0
C930 C 0.2628 0.42045 0.60855 0.0
C931 C 0.30598 0.43442 0.68785 0.0
C932 C 0.34357 0.42951 0.64 0.0
C933 C 0.30129 0.41597 0.66625 0.0
N934 N 0.32002 0.41365 0.64271 0.0
C935 C 0.34892 0.44822 0.66113 0.0
C936 C 0.32997 0.45064 0.68521 0.0
C937 C 0.37338 0.38011 0.59063 0.0
C938 C 0.34173 0.28797 0.56952 0.0
C939 C 0.37626 0.32751 0.54943 0.0
C940 C 0.38928 0.30421 0.55579 0.0
C941 C 0.37184 0.28433 0.56588 0.0
N942 N 0.34668 0.33092 0.55297 0.0
C943 C 0.32948 0.31155 0.56298 0.0
H944 H 0.3198 0.23802 0.11204 0.0
H945 H 0.34998 0.21476 0.0256 0.0
H946 H 0.30128 0.27747 0.09068 0.0
H947 H 0.33055 0.25323 1.0042 0.0
H948 H 0.30694 0.3304 0.97145 0.0
H949 H 0.33342 0.29721 0.99793 0.0
H950 H 0.26218 0.29183 0.06088 0.0
H951 H 0.23656 0.3256 0.03533 0.0
C952 C 0.32268 0.24133 0.08856 0.0
C953 C 0.33617 0.22296 0.0706 0.0
C954 C 0.31181 0.2639 0.07619 0.0
C955 C 0.3141 0.26868 0.04552 0.0
C956 C 0.32859 0.25063 0.02789 0.0
C957 C 0.33952 0.22825 0.04022 0.0
C958 C 0.29717 0.32244 0.99123 0.0
C959 C 0.26937 0.33059 1.00093 0.0
C960 C 0.31225 0.30316 1.00633 0.0
C961 C 0.2999 0.29139 0.03148 0.0
C962 C 0.27269 0.30041 0.04187 0.0
C963 C 0.25776 0.31975 0.02692 0.0
H964 H 0.20698 0.68897 0.46871 0.0
H965 H 0.27464 0.69231 0.53555 0.0
H966 H 0.18041 0.72286 0.49391 0.0
H967 H 0.2488 0.72661 0.56002 0.0
H968 H 0.18851 0.77999 0.60941 0.0
H969 H 0.20782 0.74077 0.58819 0.0
H970 H 0.18483 0.76712 0.50069 0.0
H971 H 0.16479 0.80556 0.52183 0.0
C972 C 0.21612 0.69675 0.48888 0.0
C973 C 0.24317 0.68794 0.49983 0.0
C974 C 0.20099 0.7164 0.50325 0.0
C975 C 0.2125 0.72784 0.52897 0.0
C976 C 0.23896 0.71826 0.54052 0.0
C977 C 0.254 0.69861 0.52623 0.0
C978 C 0.18723 0.77724 0.58569 0.0
C979 C 0.17525 0.79616 0.56741 0.0
C980 C 0.19853 0.75479 0.57344 0.0
C981 C 0.19814 0.75064 0.54258 0.0
C982 C 0.18528 0.76928 0.52452 0.0
C983 C 0.17398 0.7916 0.53672 0.0
H984 H 0.35025 0.80534 0.99528 0.0
H985 H 0.32311 0.77985 0.90872 0.0
H986 H 0.33058 0.76718 0.01728 0.0
H987 H 0.30434 0.74077 0.93074 0.0
H988 H 0.23848 0.69336 0.98565 0.0
H989 H 0.26443 0.72682 0.95988 0.0
H990 H 0.33395 0.72329 0.02483 0.0
H991 H 0.30711 0.69038 0.05149 0.0
C992 C 0.3404 0.79144 0.98078 0.0
C993 C 0.33798 0.79599 0.95015 0.0
C994 C 0.32933 0.76925 0.99347 0.0
C995 C 0.31564 0.75067 0.97597 0.0
C996 C 0.31425 0.75474 0.94511 0.0
C997 C 0.32525 0.77711 0.93238 0.0
C998 C 0.25938 0.69955 0.99446 0.0
C999 C 0.27039 0.68932 0.02103 0.0
C1000 C 0.27451 0.7187 0.97939 0.0
C1001 C 0.30131 0.72815 0.99025 0.0
C1002 C 0.31309 0.71698 0.01603 0.0
C1003 C 0.29781 0.69788 0.03124 0.0
H1004 H 0.2092 0.33464 0.53267 0.0
H1005 H 0.28647 0.3147 0.48229 0.0
H1006 H 0.18145 0.30166 0.50695 0.0
H1007 H 0.25911 0.28164 0.45721 0.0
H1008 H 0.19939 0.2328 0.40194 0.0
H1009 H 0.22095 0.27141 0.42238 0.0
H1010 H 0.17911 0.25617 0.50635 0.0
H1011 H 0.15711 0.21818 0.48583 0.0
C1012 C 0.22023 0.32341 0.51598 0.0
C1013 C 0.25017 0.32735 0.50975 0.0
C1014 C 0.20436 0.30435 0.50133 0.0
C1015 C 0.21798 0.2888 0.47997 0.0
C1016 C 0.24767 0.29334 0.47316 0.0
C1017 C 0.26349 0.31228 0.48781 0.0
C1018 C 0.19437 0.23793 0.42459 0.0
C1019 C 0.17665 0.22217 0.44222 0.0
C1020 C 0.20696 0.25999 0.43644 0.0
C1021 C 0.20207 0.26692 0.46619 0.0
C1022 C 0.18325 0.25171 0.48333 0.0
C1023 C 0.17076 0.22971 0.47155 0.0
H1024 H 0.86882 0.72277 0.03955 0.0
H1025 H 0.79616 0.72656 0.1007 0.0
H1026 H 0.85209 0.76143 0.01571 0.0
H1027 H 0.77809 0.76433 0.0758 0.0
H1028 H 0.75558 0.83917 0.0352 0.0
H1029 H 0.78023 0.80648 0.06394 0.0
H1030 H 0.81764 0.77617 0.98334 0.0
H1031 H 0.79445 0.80981 0.95516 0.0
C1032 C 0.84929 0.732 0.048 0.0
C1033 C 0.83388 0.7216 0.07209 0.0
C1034 C 0.83939 0.7541 0.03406 0.0
C1035 C 0.81332 0.76617 0.04329 0.0
C1036 C 0.79846 0.75608 0.06809 0.0
C1037 C 0.80877 0.73426 0.08245 0.0
C1038 C 0.76961 0.8258 0.02376 0.0
C1039 C 0.77314 0.82722 0.99287 0.0
C1040 C 0.78352 0.80675 0.04022 0.0
C1041 C 0.80088 0.78818 0.02621 0.0
C1042 C 0.80502 0.79017 0.99531 0.0
C1043 C 0.79158 0.80953 0.97896 0.0
H1044 H 0.70583 0.18492 0.46936 0.0
H1045 H 0.77027 0.18958 0.5392 0.0
H1046 H 0.67718 0.21818 0.49319 0.0
H1047 H 0.74123 0.22212 0.5636 0.0
H1048 H 0.70428 0.3024 0.5758 0.0
H1049 H 0.72989 0.26514 0.55794 0.0
H1050 H 0.64699 0.23158 0.53288 0.0
H1051 H 0.6214 0.26946 0.5499 0.0
C1052 C 0.71361 0.19267 0.49011 0.0
C1053 C 0.74051 0.18464 0.50218 0.0
C1054 C 0.69708 0.21175 0.50392 0.0
C1055 C 0.70687 0.22319 0.53034 0.0
C1056 C 0.73319 0.2143 0.543 0.0
C1057 C 0.74981 0.19542 0.52907 0.0
C1058 C 0.69138 0.28694 0.56697 0.0
C1059 C 0.66068 0.2891 0.56428 0.0
C1060 C 0.70614 0.26539 0.55672 0.0
C1061 C 0.69067 0.24518 0.54366 0.0
C1062 C 0.65981 0.24687 0.54223 0.0
C1063 C 0.64504 0.26854 0.55232 0.0
H1064 H 0.81983 0.28066 0.90754 0.0
H1065 H 0.85073 0.30249 0.9942 0.0
H1066 H 0.80022 0.24144 0.92841 0.0
H1067 H 0.83038 0.26405 0.01511 0.0
H1068 H 0.80545 0.18587 0.04537 0.0
H1069 H 0.83248 0.21937 0.01986 0.0
H1070 H 0.7603 0.22847 0.95873 0.0
H1071 H 0.73396 0.19463 0.98342 0.0
C1072 C 0.82266 0.27706 0.93096 0.0
C1073 C 0.83667 0.29497 0.94914 0.0
C1074 C 0.81119 0.25462 0.94304 0.0
C1075 C 0.81341 0.24949 0.97361 0.0
C1076 C 0.82843 0.26701 0.99148 0.0
C1077 C 0.83992 0.28933 0.97944 0.0
C1078 C 0.79556 0.19475 0.02621 0.0
C1079 C 0.76735 0.18759 0.01672 0.0
C1080 C 0.81097 0.21416 0.01167 0.0
C1081 C 0.79858 0.22695 0.98726 0.0
C1082 C 0.77085 0.21903 0.97715 0.0
C1083 C 0.75553 0.19965 0.99159 0.0
H1084 H 0.70467 0.82866 0.53892 0.0
H1085 H 0.77325 0.82094 0.47343 0.0
H1086 H 0.67723 0.7946 0.51502 0.0
H1087 H 0.74641 0.78659 0.45019 0.0
H1088 H 0.68535 0.73287 0.40301 0.0
H1089 H 0.70462 0.7728 0.42226 0.0
H1090 H 0.6815 0.74966 0.51099 0.0
H1091 H 0.66163 0.71037 0.49178 0.0
C1092 C 0.71378 0.81994 0.51926 0.0
C1093 C 0.74137 0.82749 0.50834 0.0
C1094 C 0.69814 0.80022 0.50566 0.0
C1095 C 0.70965 0.78753 0.48075 0.0
C1096 C 0.7366 0.79594 0.46909 0.0
C1097 C 0.75219 0.81561 0.48265 0.0
C1098 C 0.68395 0.7365 0.42656 0.0
C1099 C 0.67212 0.71821 0.44579 0.0
C1100 C 0.69523 0.75934 0.43767 0.0
C1101 C 0.69488 0.76453 0.46829 0.0
C1102 C 0.68193 0.74662 0.48729 0.0
C1103 C 0.67072 0.72386 0.47622 0.0
H1104 H 0.4018 0.06974 0.03919 0.0
H1105 H 0.31588 0.04895 0.07127 0.0
H1106 H 0.40155 0.03374 1.00553 0.0
H1107 H 0.31542 0.01261 0.03693 0.0
H1108 H 0.31767 0.96878 0.94438 0.0
H1109 H 0.31583 1.00521 0.97852 0.0
H1110 H 0.40226 0.98605 0.01068 0.0
H1111 H 0.40388 0.94994 0.97721 0.0
C1112 C 0.38296 0.05719 0.03929 0.0
C1113 C 0.35903 0.06194 0.05819 0.0
C1114 C 0.38278 0.03661 0.0199 0.0
C1115 C 0.35842 0.02035 0.01839 0.0
C1116 C 0.33442 0.02493 0.03742 0.0
C1117 C 0.33484 0.04544 0.05737 0.0
C1118 C 0.33642 0.97277 0.95836 0.0
C1119 C 0.3611 0.95678 0.95781 0.0
C1120 C 0.33521 0.99332 0.97821 0.0
C1121 C 0.35887 0.99847 0.99742 0.0
C1122 C 0.38374 0.98275 0.99615 0.0
C1123 C 0.38471 0.96211 0.97686 0.0
H1124 H 0.10517 0.95519 0.55113 0.0
H1125 H 0.19812 0.96385 0.56595 0.0
H1126 H 0.1056 0.99154 0.51771 0.0
H1127 H 0.19879 1.00037 0.53194 0.0
H1128 H 0.18822 0.04516 0.44088 0.0
H1129 H 0.18971 0.0088 0.47516 0.0
H1130 H 0.11415 0.03847 0.52127 0.0
H1131 H 0.11279 0.07435 0.48767 0.0
C1132 C 0.1256 0.96532 0.5477 0.0
C1133 C 0.15144 0.95719 0.56175 0.0
C1134 C 0.12592 0.98602 0.52839 0.0
C1135 C 0.15225 0.99886 0.52203 0.0
C1136 C 0.17819 0.9908 0.53622 0.0
C1137 C 0.17775 0.97023 0.55607 0.0
C1138 C 0.17179 0.04365 0.45814 0.0
C1139 C 0.15033 0.0626 0.46143 0.0
C1140 C 0.17284 0.02305 0.47798 0.0
C1141 C 0.15209 0.02078 0.50105 0.0
C1142 C 0.13037 0.0395 0.50375 0.0
C1143 C 0.12964 0.06013 0.48442 0.0
H1144 H 0.71699 0.93358 0.01763 0.0
H1145 H 0.68158 0.96512 0.93689 0.0
H1146 H 0.71881 0.97606 0.0391 0.0
H1147 H 0.68307 1.00709 0.95834 0.0
H1148 H 0.71363 0.08294 0.99549 0.0
H1149 H 0.71599 0.04047 0.97404 0.0
H1150 H 0.68574 0.00868 0.05669 0.0
H1151 H 0.68373 0.05065 0.07811 0.0
C1152 C 0.70958 0.94947 1.00446 0.0
C1153 C 0.69922 0.94576 0.97548 0.0
C1154 C 0.71053 0.97385 0.01678 0.0
C1155 C 0.70121 0.99512 1.00041 0.0
C1156 C 0.69094 0.99133 0.97145 0.0
C1157 C 0.68991 0.96707 0.95921 0.0
C1158 C 0.70759 0.06689 0.00909 0.0
C1159 C 0.69857 0.07039 0.03858 0.0
C1160 C 0.70883 0.04251 0.99678 0.0
C1161 C 0.70114 0.02104 0.01366 0.0
C1162 C 0.69232 0.02462 0.04315 0.0
C1163 C 0.69099 0.04887 0.05538 0.0
H1164 H 0.79583 0.0809 0.51849 0.0
H1165 H 0.82532 0.05206 0.43405 0.0
H1166 H 0.79436 0.03778 0.53789 0.0
H1167 H 0.82465 0.0093 0.45359 0.0
H1168 H 0.82786 0.96202 0.57276 0.0
H1169 H 0.82624 1.00451 0.55277 0.0
H1170 H 0.79427 0.97512 0.4696 0.0
H1171 H 0.79666 0.93213 0.48951 0.0
C1172 C 0.80205 0.06543 0.50406 0.0
C1173 C 0.81069 0.07013 0.47468 0.0
C1174 C 0.80137 0.04064 0.51523 0.0
C1175 C 0.80943 0.01987 0.49737 0.0
C1176 C 0.81784 0.02463 0.46794 0.0
C1177 C 0.81843 0.04933 0.45677 0.0
C1178 C 0.82042 0.96445 0.55018 0.0
C1179 C 0.81238 0.94343 0.53279 0.0
C1180 C 0.81927 0.98902 0.53876 0.0
C1181 C 0.80996 0.99349 0.50956 0.0
C1182 C 0.80187 0.97249 0.49209 0.0
C1183 C 0.8031 0.94778 0.50354 0.0
H1184 H 0.81709 0.46796 0.94649 0.0
H1185 H 0.90263 0.44806 0.98033 0.0
H1186 H 0.81585 0.50484 0.97997 0.0
H1187 H 0.9017 0.48488 0.01291 0.0
H1188 H 0.90104 0.57109 0.03556 0.0
H1189 H 0.89996 0.53443 1.0028 0.0
H1190 H 0.81763 0.51091 0.0413 0.0
H1191 H 0.81904 0.54768 0.07495 0.0
C1192 C 0.83578 0.47174 0.96062 0.0
C1193 C 0.86009 0.45532 0.96058 0.0
C1194 C 0.83492 0.49259 0.98002 0.0
C1195 C 0.85864 0.49762 0.99915 0.0
C1196 C 0.88314 0.4815 0.99845 0.0
C1197 C 0.8837 0.46049 0.9797 0.0
C1198 C 0.88282 0.55798 0.03733 0.0
C1199 C 0.86025 0.56213 0.05806 0.0
C1200 C 0.88219 0.53703 0.01848 0.0
C1201 C 0.85863 0.51992 0.01933 0.0
C1202 C 0.83595 0.52395 0.04003 0.0
C1203 C 0.83692 0.54474 0.0595 0.0
H1204 H 0.67672 0.47526 0.58445 0.0
H1205 H 0.63721 0.42982 0.51565 0.0
H1206 H 0.67875 0.51128 0.55012 0.0
H1207 H 0.63942 0.46535 0.48186 0.0
H1208 H 0.6143 0.54324 0.44304 0.0
H1209 H 0.61543 0.50632 0.47533 0.0
H1210 H 0.70304 0.52626 0.50345 0.0
H1211 H 0.70193 0.56307 0.47042 0.0
C1212 C 0.66853 0.47288 0.56212 0.0
C1213 C 0.65674 0.44952 0.55304 0.0
C1214 C 0.66987 0.49348 0.54235 0.0
C1215 C 0.65916 0.49128 0.51316 0.0
C1216 C 0.64753 0.46791 0.50419 0.0
C1217 C 0.64641 0.44741 0.52372 0.0
C1218 C 0.63421 0.53926 0.45519 0.0
C1219 C 0.65832 0.55575 0.45353 0.0
C1220 C 0.63477 0.5182 0.47407 0.0
C1221 C 0.65931 0.51326 0.49217 0.0
C1222 C 0.68365 0.5296 0.49014 0.0
C1223 C 0.68314 0.55056 0.47101 0.0
H1224 H 0.21458 0.58503 0.99744 0.0
H1225 H 0.17987 0.55309 0.07833 0.0
H1226 H 0.21688 0.54248 0.97597 0.0
H1227 H 0.18182 0.51122 0.05695 0.0
H1228 H 0.21337 0.43564 0.0209 0.0
H1229 H 0.21527 0.47835 0.04168 0.0
H1230 H 0.18471 0.50903 0.95861 0.0
H1231 H 0.18318 0.4668 0.93783 0.0
C1232 C 0.20739 0.56907 0.01062 0.0
C1233 C 0.19716 0.57268 0.03968 0.0
C1234 C 0.20864 0.54465 0.99831 0.0
C1235 C 0.19975 0.52328 0.01481 0.0
C1236 C 0.18945 0.52702 0.04376 0.0
C1237 C 0.18813 0.55126 0.05595 0.0
C1238 C 0.20714 0.45149 1.00707 0.0
C1239 C 0.19815 0.44759 0.97766 0.0
C1240 C 0.20813 0.47602 0.01899 0.0
C1241 C 0.20019 0.49725 1.00181 0.0
C1242 C 0.19146 0.49329 0.97238 0.0
C1243 C 0.19039 0.46888 0.96053 0.0
H1244 H 0.3303 0.54941 0.44315 0.0
H1245 H 0.29321 0.5805 0.52336 0.0
H1246 H 0.32845 0.50744 0.46414 0.0
H1247 H 0.29064 0.53778 0.54436 0.0
H1248 H 0.3228 0.46162 0.58302 0.0
H1249 H 0.32093 0.50422 0.56297 0.0
H1250 H 0.29646 0.47402 0.47763 0.0
H1251 H 0.29919 0.43115 0.49754 0.0
C1252 C 0.32147 0.54735 0.46528 0.0
C1253 C 0.31184 0.56859 0.48149 0.0
C1254 C 0.32019 0.52303 0.47727 0.0
C1255 C 0.30914 0.51896 0.5059 0.0
C1256 C 0.29951 0.54015 0.52229 0.0
C1257 C 0.30086 0.56468 0.51024 0.0
C1258 C 0.31692 0.46395 0.55996 0.0
C1259 C 0.31132 0.44275 0.54188 0.0
C1260 C 0.31561 0.48854 0.5485 0.0
C1261 C 0.30862 0.49276 0.51861 0.0
C1262 C 0.30241 0.47158 0.50065 0.0
C1263 C 0.30382 0.44692 0.5121 0.0
H1264 H 0.60151 0.11214 0.05038 0.0
H1265 H 0.60276 0.15591 0.13103 0.0
H1266 H 0.5479 0.11284 0.05055 0.0
H1267 H 0.54861 0.15715 0.13068 0.0
H1268 H 0.4527 0.17536 0.08783 0.0
H1269 H 0.50683 0.176 0.08951 0.0
H1270 H 0.50805 0.09441 0.09025 0.0
H1271 H 0.45442 0.0937 0.0894 0.0
C1272 C 0.5903 0.12188 0.06821 0.0
C1273 C 0.60636 0.13383 0.09083 0.0
C1274 C 0.55962 0.12229 0.06824 0.0
C1275 C 0.54417 0.13518 0.09049 0.0
C1276 C 0.56008 0.14724 0.11315 0.0
C1277 C 0.59095 0.14631 0.11353 0.0
C1278 C 0.46462 0.15762 0.0881 0.0
C1279 C 0.44937 0.1345 0.08829 0.0
C1280 C 0.49548 0.15799 0.08939 0.0
C1281 C 0.51152 0.13524 0.09016 0.0
C1282 C 0.49622 0.1122 0.08971 0.0
C1283 C 0.46554 0.11183 0.08915 0.0
H1284 H 0.91079 0.87392 0.53619 0.0
H1285 H 0.90526 0.88167 0.63131 0.0
H1286 H 0.96394 0.87366 0.53906 0.0
H1287 H 0.95907 0.88161 0.63401 0.0
H1288 H 0.05335 0.91283 0.61919 0.0
H1289 H 1.00019 0.90983 0.61847 0.0
H1290 H 1.00566 0.84747 0.55707 0.0
H1291 H 0.0594 0.85024 0.55791 0.0
C1292 C 0.92082 0.87539 0.55785 0.0
C1293 C 0.90347 0.87766 0.5836 0.0
C1294 C 0.95146 0.87511 0.55942 0.0
C1295 C 0.96583 0.87743 0.58673 0.0
C1296 C 0.94865 0.87987 0.61257 0.0
C1297 C 0.91781 0.87986 0.61104 0.0
C1298 C 0.04343 0.89827 0.60564 0.0
C1299 C 0.06091 0.88165 0.5887 0.0
C1300 C 0.0128 0.89651 0.6054 0.0
C1301 C 0.9986 0.87832 0.58791 0.0
C1302 C 0.01593 0.86178 0.57073 0.0
C1303 C 0.04674 0.86335 0.57121 0.0
H1304 H 0.45794 0.91422 0.89672 0.0
H1305 H 0.45397 0.84975 0.95552 0.0
H1306 H 0.51109 0.91135 0.89568 0.0
H1307 H 0.5077 0.84704 0.95451 0.0
H1308 H 0.6036 0.87257 0.97269 0.0
H1309 H 0.55033 0.87207 0.97195 0.0
H1310 H 0.55138 0.88404 0.87744 0.0
H1311 H 0.60518 0.88448 0.87802 0.0
C1312 C 0.46832 0.89928 0.90935 0.0
C1313 C 0.45142 0.88209 0.92612 0.0
C1314 C 0.49894 0.89759 0.90857 0.0
C1315 C 0.51372 0.87887 0.92479 0.0
C1316 C 0.49698 0.86178 0.94182 0.0
C1317 C 0.46618 0.8633 0.9424 0.0
C1318 C 0.59267 0.87486 0.95158 0.0
C1319 C 0.60893 0.87846 0.92533 0.0
C1320 C 0.56197 0.87444 0.95122 0.0
C1321 C 0.54651 0.87791 0.92467 0.0
C1322 C 0.56263 0.88147 0.89834 0.0
C1323 C 0.59348 0.88164 0.89864 0.0
H1324 H 0.05679 0.17557 0.42841 0.0
H1325 H 0.05446 0.09394 0.42577 0.0
H1326 H 1.00267 0.17653 0.42708 0.0
H1327 H 1.00085 0.09497 0.42526 0.0
H1328 H 0.90796 0.11278 0.4665 0.0
H1329 H 0.96157 0.1131 0.46561 0.0
H1330 H 0.96019 0.15848 0.38627 0.0
H1331 H 0.90604 0.15761 0.38662 0.0
C1332 C 0.04475 0.1579 0.42791 0.0
C1333 C 0.05987 0.13469 0.42736 0.0
C1334 C 0.01388 0.15846 0.42684 0.0
C1335 C 0.99765 0.13581 0.42593 0.0
C1336 C 0.01281 0.11269 0.42592 0.0
C1337 C 0.0435 0.11213 0.42627 0.0
C1338 C 0.91901 0.12268 0.44868 0.0
C1339 C 0.90275 0.13505 0.4265 0.0
C1340 C 0.94971 0.12288 0.44824 0.0
C1341 C 0.96498 0.13595 0.426 0.0
C1342 C 0.94887 0.14842 0.40378 0.0
C1343 C 0.91798 0.14771 0.40381 0.0
H1344 H 0.10454 0.63164 0.14135 0.0
H1345 H 0.10075 0.64384 0.04678 0.0
H1346 H 0.05072 0.63219 0.14327 0.0
H1347 H 0.0476 0.6444 0.04884 0.0
H1348 H 0.95265 0.6678 0.06641 0.0
H1349 H 0.0063 0.67001 0.06721 0.0
H1350 H 0.00913 0.60571 0.1261 0.0
H1351 H 0.95584 0.60341 0.12537 0.0
C1352 C 0.09236 0.63452 0.12104 0.0
C1353 C 0.10718 0.63784 0.09398 0.0
C1354 C 0.06151 0.63476 0.12211 0.0
C1355 C 0.04482 0.63852 0.09621 0.0
C1356 C 0.05968 0.64192 0.06928 0.0
C1357 C 0.09033 0.64147 0.06815 0.0
C1358 C 0.96469 0.65417 0.07958 0.0
C1359 C 0.94974 0.63549 0.09585 0.0
C1360 C 0.99547 0.6554 0.08 0.0
C1361 C 0.01205 0.63807 0.09683 0.0
C1362 C 0.99709 0.61958 0.11329 0.0
C1363 C 0.96642 0.61822 0.11269 0.0
H1364 H 0.55776 0.42279 0.59729 0.0
H1365 H 0.55941 0.34121 0.59223 0.0
H1366 H 0.50419 0.42209 0.59795 0.0
H1367 H 0.50533 0.34059 0.5936 0.0
H1368 H 0.40848 0.35695 0.63214 0.0
H1369 H 0.46262 0.35646 0.63344 0.0
H1370 H 0.46494 0.40648 0.55801 0.0
H1371 H 0.41135 0.40647 0.5562 0.0
C1372 C 0.54668 0.40467 0.59631 0.0
C1373 C 0.56289 0.38204 0.5945 0.0
C1374 C 0.51599 0.40431 0.59673 0.0
C1375 C 0.50062 0.3813 0.59601 0.0
C1376 C 0.51668 0.35858 0.59443 0.0
C1377 C 0.54755 0.35895 0.59334 0.0
C1378 C 0.42064 0.36806 0.61613 0.0
C1379 C 0.4057 0.38189 0.59421 0.0
C1380 C 0.45153 0.36755 0.61665 0.0
C1381 C 0.46793 0.38136 0.59573 0.0
C1382 C 0.4529 0.3957 0.57441 0.0
C1383 C 0.42222 0.39572 0.57345 0.0
H1384 H 0.10058 0.37806 0.97354 0.0
H1385 H 0.10476 0.38497 0.87827 0.0
H1386 H 0.04744 0.37704 0.97136 0.0
H1387 H 0.05093 0.38403 0.87623 0.0
H1388 H 0.95523 0.41257 0.89195 0.0
H1389 H 0.00859 0.41093 0.89136 0.0
H1390 H 0.00677 0.34976 0.95468 0.0
H1391 H 0.95309 0.35127 0.95529 0.0
C1392 C 0.09026 0.3792 0.952 0.0
C1393 C 0.10722 0.38142 0.92601 0.0
C1394 C 0.05961 0.37848 0.95081 0.0
C1395 C 0.04484 0.38023 0.92364 0.0
C1396 C 0.06164 0.38271 0.89757 0.0
C1397 C 0.0925 0.38319 0.89872 0.0
C1398 C 0.96605 0.39856 0.90561 0.0
C1399 C 0.94963 0.38197 0.92363 0.0
C1400 C 0.99676 0.39758 0.90512 0.0
C1401 C 0.01203 0.38019 0.92288 0.0
C1402 C 0.99571 0.36353 0.94086 0.0
C1403 C 0.9649 0.36435 0.94116 0.0
H1404 H 0.55602 0.58784 0.43562 0.0
H1405 H 0.55929 0.66944 0.43501 0.0
H1406 H 0.50231 0.58934 0.43503 0.0
H1407 H 0.50521 0.6709 0.43349 0.0
H1408 H 0.41006 0.65167 0.39034 0.0
H1409 H 0.46418 0.65187 0.39198 0.0
H1410 H 0.4619 0.60931 0.47341 0.0
H1411 H 0.40828 0.60966 0.47231 0.0
C1412 C 0.54518 0.60611 0.43568 0.0
C1413 C 0.56176 0.62854 0.43579 0.0
C1414 C 0.51451 0.60694 0.4352 0.0
C1415 C 0.4997 0.63021 0.43399 0.0
C1416 C 0.51618 0.65272 0.43424 0.0
C1417 C 0.547 0.6519 0.4355 0.0
C1418 C 0.42121 0.64224 0.40843 0.0
C1419 C 0.40497 0.63058 0.43112 0.0
C1420 C 0.45206 0.64258 0.40952 0.0
C1421 C 0.4671 0.63071 0.43292 0.0
C1422 C 0.45084 0.61861 0.45518 0.0
C1423 C 0.42016 0.6188 0.45448 0.0
H1424 H 0.32888 0.10021 0.21327 0.0
H1425 H 0.25061 0.12934 0.17143 0.0
H1426 H 0.30369 0.09937 0.26074 0.0
H1427 H 0.22517 0.12813 0.21926 0.0
H1428 H 0.18192 0.09687 0.30478 0.0
H1429 H 0.20702 0.09675 0.25718 0.0
H1430 H 0.28339 0.13019 0.29787 0.0
H1431 H 0.25804 0.13071 0.34571 0.0
C1432 C 0.30625 0.10635 0.21403 0.0
C1433 C 0.29195 0.11492 0.18822 0.0
C1434 C 0.29182 0.10599 0.24147 0.0
C1435 C 0.26242 0.1138 0.24401 0.0
C1436 C 0.24779 0.12184 0.21815 0.0
C1437 C 0.26241 0.12257 0.19068 0.0
C1438 C 0.20406 0.10419 0.30379 0.0
C1439 C 0.21778 0.11388 0.32937 0.0
C1440 C 0.21843 0.10424 0.2763 0.0
C1441 C 0.2472 0.11359 0.27351 0.0
C1442 C 0.26128 0.12272 0.29917 0.0
C1443 C 0.24671 0.12302 0.32666 0.0
H1444 H 0.25302 0.88142 0.84542 0.0
H1445 H 0.32641 0.92105 0.80639 0.0
H1446 H 0.2278 0.88222 0.79751 0.0
H1447 H 0.3016 0.92121 0.7587 0.0
H1448 H 0.2604 0.8883 0.67157 0.0
H1449 H 0.28564 0.88899 0.71954 0.0
H1450 H 0.20593 0.91444 0.76176 0.0
H1451 H 0.18102 0.91428 0.71421 0.0
C1452 C 0.26378 0.89039 0.82678 0.0
C1453 C 0.29195 0.90103 0.83 0.0
C1454 C 0.24932 0.89082 0.79926 0.0
C1455 C 0.2628 0.90155 0.77411 0.0
C1456 C 0.29075 0.91243 0.77742 0.0
C1457 C 0.30495 0.9124 0.80496 0.0
C1458 C 0.2483 0.89423 0.69102 0.0
C1459 C 0.21852 0.90117 0.68875 0.0
C1460 C 0.26279 0.89464 0.71855 0.0
C1461 C 0.24774 0.90158 0.74461 0.0
C1462 C 0.2181 0.90866 0.74228 0.0
C1463 C 0.20383 0.90867 0.71481 0.0
H1464 H 0.76064 0.8199 0.84191 0.0
H1465 H 0.70055 0.87592 0.80761 0.0
H1466 H 0.78411 0.81694 0.79322 0.0
H1467 H 0.72396 0.87303 0.75927 0.0
H1468 H 0.75929 0.85273 0.66958 0.0
H1469 H 0.73317 0.84586 0.71604 0.0
H1470 H 0.81565 0.84547 0.7631 0.0
H1471 H 0.84188 0.85222 0.71661 0.0
C1472 C 0.75203 0.8312 0.82388 0.0
C1473 C 0.72869 0.84817 0.82875 0.0
C1474 C 0.76567 0.82967 0.79603 0.0
C1475 C 0.75605 0.84482 0.77228 0.0
C1476 C 0.73182 0.86088 0.77687 0.0
C1477 C 0.71843 0.86261 0.80471 0.0
C1478 C 0.77199 0.85067 0.6897 0.0
C1479 C 0.80279 0.85318 0.68924 0.0
C1480 C 0.75693 0.84692 0.71643 0.0
C1481 C 0.77223 0.84536 0.74343 0.0
C1482 C 0.80313 0.84641 0.74276 0.0
C1483 C 0.81819 0.85036 0.71604 0.0
H1484 H 0.84143 0.16449 0.29342 0.0
H1485 H 0.75967 0.16629 0.342 0.0
H1486 H 0.81466 0.17195 0.24743 0.0
H1487 H 0.73304 0.17387 0.29606 0.0
H1488 H 0.69836 0.14317 0.20556 0.0
H1489 H 0.72249 0.14633 0.25346 0.0
H1490 H 0.78329 0.20102 0.21756 0.0
H1491 H 0.75903 0.1978 0.16929 0.0
C1492 C 0.81784 0.16704 0.29445 0.0
C1493 C 0.80278 0.16457 0.32152 0.0
C1494 C 0.80247 0.1714 0.26802 0.0
C1495 C 0.77162 0.17325 0.26794 0.0
C1496 C 0.75674 0.17218 0.29523 0.0
C1497 C 0.7721 0.16801 0.32165 0.0
C1498 C 0.7165 0.15628 0.20796 0.0
C1499 C 0.72672 0.17023 0.1835 0.0
C1500 C 0.73031 0.15816 0.23553 0.0
C1501 C 0.75495 0.17387 0.23943 0.0
C1502 C 0.76452 0.18859 0.21528 0.0
C1503 C 0.75043 0.18693 0.18768 0.0
H1504 H 0.67448 0.61557 0.30109 0.0
H1505 H 0.75748 0.60344 0.34512 0.0
H1506 H 0.69922 0.61671 0.25359 0.0
H1507 H 0.78257 0.60522 0.29716 0.0
H1508 H 0.81444 0.58458 0.20379 0.0
H1509 H 0.78922 0.58222 0.25127 0.0
H1510 H 0.7309 0.64224 0.22381 0.0
H1511 H 0.75596 0.64441 0.1761 0.0
C1512 C 0.69808 0.61314 0.30074 0.0
C1513 C 0.71387 0.60925 0.32719 0.0
C1514 C 0.71237 0.61404 0.27331 0.0
C1515 C 0.743 0.61112 0.27128 0.0
C1516 C 0.75891 0.60724 0.29771 0.0
C1517 C 0.74454 0.60638 0.32531 0.0
C1518 C 0.79612 0.59721 0.20773 0.0
C1519 C 0.78734 0.61473 0.18592 0.0
C1520 C 0.78177 0.59598 0.23518 0.0
C1521 C 0.75808 0.61215 0.24171 0.0
C1522 C 0.74885 0.62927 0.21962 0.0
C1523 C 0.76325 0.63053 0.19215 0.0
H1524 H 0.74133 0.36496 0.68658 0.0
H1525 H 0.70208 0.438 0.70307 0.0
H1526 H 0.76328 0.36555 0.7359 0.0
H1527 H 0.72477 0.43877 0.75233 0.0
H1528 H 0.80271 0.43685 0.82364 0.0
H1529 H 0.77849 0.43884 0.77527 0.0
H1530 H 0.74169 0.3647 0.78989 0.0
H1531 H 0.76529 0.36287 0.83852 0.0
C1532 C 0.73775 0.38136 0.70049 0.0
C1533 C 0.71999 0.40149 0.69067 0.0
C1534 C 0.75012 0.38156 0.72891 0.0
C1535 C 0.74559 0.40211 0.74814 0.0
C1536 C 0.72869 0.42267 0.73804 0.0
C1537 C 0.71574 0.42223 0.70979 0.0
C1538 C 0.78901 0.42116 0.81679 0.0
C1539 C 0.78585 0.39975 0.83512 0.0
C1540 C 0.77516 0.42231 0.78905 0.0
C1541 C 0.75836 0.40185 0.77862 0.0
C1542 C 0.75468 0.38069 0.79719 0.0
C1543 C 0.76799 0.37976 0.8252 0.0
H1544 H 0.26097 0.34819 0.67522 0.0
H1545 H 0.34262 0.3497 0.72387 0.0
H1546 H 0.23412 0.34138 0.72127 0.0
H1547 H 0.31567 0.34299 0.76993 0.0
H1548 H 0.2597 0.3186 0.84842 0.0
H1549 H 0.28383 0.3145 0.80015 0.0
H1550 H 0.22399 0.36963 0.76356 0.0
H1551 H 0.19999 0.37368 0.81149 0.0
C1552 C 0.27332 0.34652 0.69561 0.0
C1553 C 0.30404 0.34968 0.69574 0.0
C1554 C 0.25785 0.34281 0.72209 0.0
C1555 C 0.27266 0.3419 0.7494 0.0
C1556 C 0.30353 0.34343 0.74933 0.0
C1557 C 0.319 0.34736 0.72286 0.0
C1558 C 0.25128 0.3294 0.8299 0.0
C1559 C 0.2279 0.34649 0.83389 0.0
C1560 C 0.26529 0.32722 0.80229 0.0
C1561 C 0.25596 0.3418 0.77794 0.0
C1562 C 0.23162 0.3579 0.78166 0.0
C1563 C 0.21789 0.3603 0.80924 0.0
H1564 H 0.26935 0.70336 0.34197 0.0
H1565 H 0.30983 0.63296 0.31535 0.0
H1566 H 0.24787 0.70759 0.29219 0.0
H1567 H 0.28788 0.63697 0.2666 0.0
H1568 H 0.20677 0.63287 0.20674 0.0
H1569 H 0.22918 0.63631 0.2553 0.0
H1570 H 0.26647 0.70844 0.23141 0.0
H1571 H 0.24454 0.70481 0.18176 0.0
C1572 C 0.27408 0.68903 0.32552 0.0
C1573 C 0.29101 0.66761 0.33297 0.0
C1574 C 0.26176 0.69147 0.29706 0.0
C1575 C 0.2659 0.67242 0.27572 0.0
C1576 C 0.28401 0.65178 0.28273 0.0
C1577 C 0.29655 0.64951 0.31079 0.0
C1578 C 0.21959 0.6496 0.2116 0.0
C1579 C 0.2242 0.66835 0.18993 0.0
C1580 C 0.23241 0.65154 0.23957 0.0
C1581 C 0.24985 0.67247 0.24701 0.0
C1582 C 0.25314 0.69208 0.22619 0.0
C1583 C 0.24056 0.68997 0.19781 0.0
loop_
_geom_bond_atom_site_label_1
_geom_bond_atom_site_label_2
_geom_bond_distance
_geom_bond_site_symmetry_2
_ccdc_geom_bond_type
Co0 O2 2.143 . S
Co0 O8 2.074 . S
Co0 O11 2.093 . S
Co0 O24 2.097 . S
Co0 N41 2.151 . S
Co0 N49 2.214 . S
Co1 O2 2.160 . S
Co1 O7 2.058 . S
Co1 O17 2.057 . S
Co1 O32 2.037 . S
Co1 N36 2.145 . S
Co1 N57 2.257 . S
O2 Co0 2.143 . S
O2 Co1 2.160 . S
C3 O4 1.278 . S
C3 O11 1.224 . S
O4 C3 1.278 . S
C5 O6 1.245 . S
C5 O17 1.232 . S
O6 C5 1.245 . S
O7 Co1 2.058 . S
O7 C33 1.269 . S
O8 Co0 2.074 . S
O8 C33 1.257 . S
H9 C34 0.930 . S
H10 C40 0.930 . S
O11 Co0 2.093 . S
O11 C3 1.224 . S
H12 C44 0.929 1_556 S
H13 C46 0.930 . S
H14 C47 0.953 . S
H15 C45 0.929 . S
H16 C48 0.928 . S
O17 Co1 2.057 . S
O17 C5 1.232 . S
H18 C37 0.929 . S
H19 C38 0.929 . S
H20 C50 0.931 . S
H21 C42 0.929 . S
H22 C51 0.930 . S
H23 C43 0.931 1_556 S
O24 Co0 2.097 . S
O24 C52 1.214 . S
H25 C53 0.929 . S
H26 C54 0.929 . S
H27 C55 0.930 . S
H28 C56 0.929 . S
H29 C58 0.930 . S
H30 C35 0.930 . S
H31 C39 0.930 . S
O32 Co1 2.037 . S
O32 C52 1.234 . S
C33 O7 1.269 . S
C33 O8 1.257 . S
C34 H9 0.930 . S
C34 C37 1.388 . S
C34 C39 1.418 . S
C35 H30 0.930 . S
C35 C38 1.404 . S
C35 C39 1.353 . S
N36 Co1 2.145 . S
N36 C37 1.397 . S
N36 C38 1.334 . S
C37 H18 0.929 . S
C37 C34 1.388 . S
C37 N36 1.397 . S
C38 H19 0.929 . S
C38 C35 1.404 . S
C38 N36 1.334 . S
C39 H31 0.930 . S
C39 C34 1.418 . S
C39 C35 1.353 . S
C40 H10 0.930 . S
C40 N41 1.330 . S
C40 C42 1.446 . S
N41 Co0 2.151 . S
N41 C40 1.330 . S
N41 C45 1.418 . S
C42 H21 0.929 . S
C42 C40 1.446 . S
C42 C43 1.332 . S
C43 H23 0.931 1_554 S
C43 C42 1.332 . S
C43 C44 1.267 . S
C44 H12 0.929 1_554 S
C44 C43 1.267 . S
C44 C45 1.251 . S
C45 H15 0.929 . S
C45 N41 1.418 . S
C45 C44 1.251 . S
C46 H13 0.930 . S
C46 C48 1.406 . S
C46 C51 1.261 . S
C47 H14 0.953 . S
C47 N49 1.330 . S
C47 C50 1.331 1_554 S
C48 H16 0.928 . S
C48 C46 1.406 . S
C48 N49 1.261 1_556 S
N49 Co0 2.214 . S
N49 C47 1.330 . S
N49 C48 1.261 1_554 S
C50 H20 0.931 . S
C50 C47 1.331 1_556 S
C50 C51 1.312 . S
C51 H22 0.930 . S
C51 C46 1.261 . S
C51 C50 1.312 . S
C52 O24 1.214 . S
C52 O32 1.234 . S
C53 H25 0.929 . S
C53 C56 1.391 . S
C53 C58 1.391 . S
C54 H26 0.929 . S
C54 C55 1.390 . S
C54 N57 1.391 . S
C55 H27 0.930 . S
C55 C54 1.390 . S
C55 C56 1.392 . S
C56 H28 0.929 . S
C56 C53 1.391 . S
C56 C55 1.392 . S
N57 Co1 2.257 . S
N57 C54 1.391 . S
N57 C58 1.388 . S
C58 H29 0.930 . S
C58 C53 1.391 . S
C58 N57 1.388 . S
Co59 O61 2.143 . S
Co59 O67 2.074 . S
Co59 O70 2.093 . S
Co59 O83 2.097 . S
Co59 N100 2.151 . S
Co59 N108 2.214 . S
Co60 O61 2.160 . S
Co60 O66 2.058 . S
Co60 O76 2.057 . S
Co60 O91 2.037 . S
Co60 N95 2.145 . S
Co60 N116 2.257 . S
O61 Co59 2.143 . S
O61 Co60 2.160 . S
C62 O63 1.278 . S
C62 O70 1.224 . S
O63 C62 1.278 . S
C64 O65 1.245 . S
C64 O76 1.232 . S
O65 C64 1.245 . S
O66 Co60 2.058 . S
O66 C92 1.269 . S
O67 Co59 2.074 . S
O67 C92 1.257 . S
H68 C93 0.930 . S
H69 C99 0.930 . S
O70 Co59 2.093 . S
O70 C62 1.224 . S
H71 C103 0.929 . S
H72 C105 0.930 . S
H73 C106 0.930 . S
H74 C104 0.929 . S
H75 C107 0.928 . S
O76 Co60 2.057 . S
O76 C64 1.232 . S
H77 C96 0.929 . S
H78 C97 0.929 . S
H79 C109 0.931 . S
H80 C101 0.929 . S
H81 C110 0.930 . S
H82 C102 0.931 . S
O83 Co59 2.097 . S
O83 C111 1.214 . S
H84 C112 0.929 . S
H85 C113 0.929 . S
H86 C114 0.930 . S
H87 C115 0.929 . S
H88 C117 0.930 . S
H89 C94 0.930 . S
H90 C98 0.930 . S
O91 Co60 2.037 . S
O91 C111 1.234 . S
C92 O66 1.269 . S
C92 O67 1.257 . S
C93 H68 0.930 . S
C93 C96 1.388 . S
C93 C98 1.418 . S
C94 H89 0.930 . S
C94 C97 1.404 . S
C94 C98 1.353 . S
N95 Co60 2.145 . S
N95 C96 1.397 . S
N95 C97 1.334 . S
C96 H77 0.929 . S
C96 C93 1.388 . S
C96 N95 1.397 . S
C97 H78 0.929 . S
C97 C94 1.404 . S
C97 N95 1.334 . S
C98 H90 0.930 . S
C98 C93 1.418 . S
C98 C94 1.353 . S
C99 H69 0.930 . S
C99 N100 1.330 . S
C99 C101 1.446 . S
N100 Co59 2.151 . S
N100 C99 1.330 . S
N100 C104 1.418 . S
C101 H80 0.929 . S
C101 C99 1.446 . S
C101 C102 1.332 . S
C102 H82 0.931 . S
C102 C101 1.332 . S
C102 C103 1.267 . S
C103 H71 0.929 . S
C103 C102 1.267 . S
C103 C104 1.251 . S
C104 H74 0.929 . S
C104 N100 1.418 . S
C104 C103 1.251 . S
C105 H72 0.930 . S
C105 C107 1.406 . S
C105 C110 1.261 . S
C106 H73 0.930 . S
C106 N108 1.325 . S
C106 C109 1.357 . S
C107 H75 0.928 . S
C107 C105 1.406 . S
C107 N108 1.261 . S
N108 Co59 2.214 . S
N108 C106 1.325 . S
N108 C107 1.261 . S
C109 H79 0.931 . S
C109 C106 1.357 . S
C109 C110 1.312 . S
C110 H81 0.930 . S
C110 C105 1.261 . S
C110 C109 1.312 . S
C111 O83 1.214 . S
C111 O91 1.234 . S
C112 H84 0.929 . S
C112 C115 1.391 . S
C112 C117 1.391 . S
C113 H85 0.929 . S
C113 C114 1.390 . S
C113 N116 1.391 . S
C114 H86 0.930 . S
C114 C113 1.390 . S
C114 C115 1.392 . S
C115 H87 0.929 . S
C115 C112 1.391 . S
C115 C114 1.392 . S
N116 Co60 2.257 . S
N116 C113 1.391 . S
N116 C117 1.388 . S
C117 H88 0.930 . S
C117 C112 1.391 . S
C117 N116 1.388 . S
Co118 O120 2.143 . S
Co118 O126 2.074 . S
Co118 O129 2.093 . S
Co118 O142 2.097 . S
Co118 N159 2.151 . S
Co118 N167 2.214 . S
Co119 O120 2.160 . S
Co119 O125 2.058 . S
Co119 O135 2.057 . S
Co119 O150 2.037 . S
Co119 N154 2.145 . S
Co119 N175 2.257 . S
O120 Co118 2.143 . S
O120 Co119 2.160 . S
C121 O122 1.278 . S
C121 O129 1.224 . S
O122 C121 1.278 . S
C123 O124 1.245 . S
C123 O135 1.232 . S
O124 C123 1.245 . S
O125 Co119 2.058 . S
O125 C151 1.269 . S
O126 Co118 2.074 . S
O126 C151 1.257 . S
H127 C152 0.930 . S
H128 C158 0.930 . S
O129 Co118 2.093 . S
O129 C121 1.224 . S
H130 C162 0.929 1_554 S
H131 C164 0.930 . S
H132 C165 0.953 . S
H133 C163 0.929 . S
H134 C166 0.928 . S
O135 Co119 2.057 . S
O135 C123 1.232 . S
H136 C155 0.929 . S
H137 C156 0.929 . S
H138 C168 0.931 . S
H139 C160 0.929 . S
H140 C169 0.930 . S
H141 C161 0.931 1_554 S
O142 Co118 2.097 . S
O142 C170 1.214 . S
H143 C171 0.929 . S
H144 C172 0.929 . S
H145 C173 0.930 . S
H146 C174 0.929 . S
H147 C176 0.930 . S
H148 C153 0.930 . S
H149 C157 0.930 . S
O150 Co119 2.037 . S
O150 C170 1.234 . S
C151 O125 1.269 . S
C151 O126 1.257 . S
C152 H127 0.930 . S
C152 C155 1.388 . S
C152 C157 1.418 . S
C153 H148 0.930 . S
C153 C156 1.404 . S
C153 C157 1.353 . S
N154 Co119 2.145 . S
N154 C155 1.397 . S
N154 C156 1.334 . S
C155 H136 0.929 . S
C155 C152 1.388 . S
C155 N154 1.397 . S
C156 H137 0.929 . S
C156 C153 1.404 . S
C156 N154 1.334 . S
C157 H149 0.930 . S
C157 C152 1.418 . S
C157 C153 1.353 . S
C158 H128 0.930 . S
C158 N159 1.330 . S
C158 C160 1.446 . S
N159 Co118 2.151 . S
N159 C158 1.330 . S
N159 C163 1.418 . S
C160 H139 0.929 . S
C160 C158 1.446 . S
C160 C161 1.332 . S
C161 H141 0.931 1_556 S
C161 C160 1.332 . S
C161 C162 1.267 . S
C162 H130 0.929 1_556 S
C162 C161 1.267 . S
C162 C163 1.251 . S
C163 H133 0.929 . S
C163 N159 1.418 . S
C163 C162 1.251 . S
C164 H131 0.930 . S
C164 C166 1.406 . S
C164 C169 1.261 . S
C165 H132 0.953 . S
C165 N167 1.330 . S
C165 C168 1.331 1_556 S
C166 H134 0.928 . S
C166 C164 1.406 . S
C166 N167 1.261 1_554 S
N167 Co118 2.214 . S
N167 C165 1.330 . S
N167 C166 1.261 1_556 S
C168 H138 0.931 . S
C168 C165 1.331 1_554 S
C168 C169 1.312 . S
C169 H140 0.930 . S
C169 C164 1.261 . S
C169 C168 1.312 . S
C170 O142 1.214 . S
C170 O150 1.234 . S
C171 H143 0.929 . S
C171 C174 1.391 . S
C171 C176 1.391 . S
C172 H144 0.929 . S
C172 C173 1.390 . S
C172 N175 1.391 . S
C173 H145 0.930 . S
C173 C172 1.390 . S
C173 C174 1.392 . S
C174 H146 0.929 . S
C174 C171 1.391 . S
C174 C173 1.392 . S
N175 Co119 2.257 . S
N175 C172 1.391 . S
N175 C176 1.388 . S
C176 H147 0.930 . S
C176 C171 1.391 . S
C176 N175 1.388 . S
Co177 O179 2.143 . S
Co177 O185 2.074 . S
Co177 O188 2.093 . S
Co177 O201 2.097 . S
Co177 N218 2.151 . S
Co177 N226 2.214 . S
Co178 O179 2.160 . S
Co178 O184 2.058 . S
Co178 O194 2.057 . S
Co178 O209 2.037 . S
Co178 N213 2.145 . S
Co178 N234 2.257 . S
O179 Co177 2.143 . S
O179 Co178 2.160 . S
C180 O181 1.278 . S
C180 O188 1.224 . S
O181 C180 1.278 . S
C182 O183 1.245 . S
C182 O194 1.232 . S
O183 C182 1.245 . S
O184 Co178 2.058 . S
O184 C210 1.269 . S
O185 Co177 2.074 . S
O185 C210 1.257 . S
H186 C211 0.930 . S
H187 C217 0.930 . S
O188 Co177 2.093 . S
O188 C180 1.224 . S
H189 C221 0.929 . S
H190 C223 0.930 . S
H191 C224 0.930 . S
H192 C222 0.929 . S
H193 C225 0.928 . S
O194 Co178 2.057 . S
O194 C182 1.232 . S
H195 C214 0.929 . S
H196 C215 0.929 . S
H197 C227 0.931 . S
H198 C219 0.929 . S
H199 C228 0.930 . S
H200 C220 0.931 . S
O201 Co177 2.097 . S
O201 C229 1.214 . S
H202 C230 0.929 . S
H203 C231 0.929 . S
H204 C232 0.930 . S
H205 C233 0.929 . S
H206 C235 0.930 . S
H207 C212 0.930 . S
H208 C216 0.930 . S
O209 Co178 2.037 . S
O209 C229 1.234 . S
C210 O184 1.269 . S
C210 O185 1.257 . S
C211 H186 0.930 . S
C211 C214 1.388 . S
C211 C216 1.418 . S
C212 H207 0.930 . S
C212 C215 1.404 . S
C212 C216 1.353 . S
N213 Co178 2.145 . S
N213 C214 1.397 . S
N213 C215 1.334 . S
C214 H195 0.929 . S
C214 C211 1.388 . S
C214 N213 1.397 . S
C215 H196 0.929 . S
C215 C212 1.404 . S
C215 N213 1.334 . S
C216 H208 0.930 . S
C216 C211 1.418 . S
C216 C212 1.353 . S
C217 H187 0.930 . S
C217 N218 1.330 . S
C217 C219 1.446 . S
N218 Co177 2.151 . S
N218 C217 1.330 . S
N218 C222 1.418 . S
C219 H198 0.929 . S
C219 C217 1.446 . S
C219 C220 1.332 . S
C220 H200 0.931 . S
C220 C219 1.332 . S
C220 C221 1.267 . S
C221 H189 0.929 . S
C221 C220 1.267 . S
C221 C222 1.251 . S
C222 H192 0.929 . S
C222 N218 1.418 . S
C222 C221 1.251 . S
C223 H190 0.930 . S
C223 C225 1.406 . S
C223 C228 1.261 . S
C224 H191 0.930 . S
C224 N226 1.325 . S
C224 C227 1.357 . S
C225 H193 0.928 . S
C225 C223 1.406 . S
C225 N226 1.261 . S
N226 Co177 2.214 . S
N226 C224 1.325 . S
N226 C225 1.261 . S
C227 H197 0.931 . S
C227 C224 1.357 . S
C227 C228 1.312 . S
C228 H199 0.930 . S
C228 C223 1.261 . S
C228 C227 1.312 . S
C229 O201 1.214 . S
C229 O209 1.234 . S
C230 H202 0.929 . S
C230 C233 1.391 . S
C230 C235 1.391 . S
C231 H203 0.929 . S
C231 C232 1.390 . S
C231 N234 1.391 . S
C232 H204 0.930 . S
C232 C231 1.390 . S
C232 C233 1.392 . S
C233 H205 0.929 . S
C233 C230 1.391 . S
C233 C232 1.392 . S
N234 Co178 2.257 . S
N234 C231 1.391 . S
N234 C235 1.388 . S
C235 H206 0.930 . S
C235 C230 1.391 . S
C235 N234 1.388 . S
Co236 O238 2.143 . S
Co236 O244 2.074 . S
Co236 O247 2.093 . S
Co236 O260 2.097 . S
Co236 N277 2.151 . S
Co236 N285 2.214 . S
Co237 O238 2.160 . S
Co237 O243 2.058 . S
Co237 O253 2.057 . S
Co237 O268 2.037 . S
Co237 N272 2.145 . S
Co237 N293 2.257 . S
O238 Co236 2.143 . S
O238 Co237 2.160 . S
C239 O240 1.278 . S
C239 O247 1.224 . S
O240 C239 1.278 . S
C241 O242 1.245 . S
C241 O253 1.232 . S
O242 C241 1.245 . S
O243 Co237 2.058 . S
O243 C269 1.269 . S
O244 Co236 2.074 . S
O244 C269 1.257 . S
H245 C270 0.930 . S
H246 C276 0.930 . S
O247 Co236 2.093 . S
O247 C239 1.224 . S
H248 C280 0.929 . S
H249 C282 0.930 . S
H250 C283 0.930 . S
H251 C281 0.929 . S
H252 C284 0.928 . S
O253 Co237 2.057 . S
O253 C241 1.232 . S
H254 C273 0.929 . S
H255 C274 0.940 . S
H256 C286 0.931 . S
H257 C278 0.929 . S
H258 C287 0.930 . S
H259 C279 0.931 . S
O260 Co236 2.097 . S
O260 C288 1.214 . S
H261 C289 0.929 . S
H262 C290 0.929 . S
H263 C291 0.930 . S
H264 C292 0.929 . S
H265 C294 0.930 . S
H266 C271 0.930 . S
H267 C275 0.930 . S
O268 Co237 2.037 . S
O268 C288 1.234 . S
C269 O243 1.269 . S
C269 O244 1.257 . S
C270 H245 0.930 . S
C270 C273 1.388 1_554 S
C270 C275 1.418 . S
C271 H266 0.930 . S
C271 C274 1.404 . S
C271 C275 1.353 . S
N272 Co237 2.145 . S
N272 C273 1.397 . S
N272 C274 1.334 1_556 S
C273 H254 0.929 . S
C273 C270 1.388 1_556 S
C273 N272 1.397 . S
C274 H255 0.940 . S
C274 C271 1.404 . S
C274 N272 1.334 1_554 S
C275 H267 0.930 . S
C275 C270 1.418 . S
C275 C271 1.353 . S
C276 H246 0.930 . S
C276 N277 1.330 . S
C276 C278 1.446 . S
N277 Co236 2.151 . S
N277 C276 1.330 . S
N277 C281 1.418 . S
C278 H257 0.929 . S
C278 C276 1.446 . S
C278 C279 1.332 . S
C279 H259 0.931 . S
C279 C278 1.332 . S
C279 C280 1.267 . S
C280 H248 0.929 . S
C280 C279 1.267 . S
C280 C281 1.251 . S
C281 H251 0.929 . S
C281 N277 1.418 . S
C281 C280 1.251 . S
C282 H249 0.930 . S
C282 C284 1.406 . S
C282 C287 1.261 . S
C283 H250 0.930 . S
C283 N285 1.325 . S
C283 C286 1.357 . S
C284 H252 0.928 . S
C284 C282 1.406 . S
C284 N285 1.261 . S
N285 Co236 2.214 . S
N285 C283 1.325 . S
N285 C284 1.261 . S
C286 H256 0.931 . S
C286 C283 1.357 . S
C286 C287 1.312 . S
C287 H258 0.930 . S
C287 C282 1.261 . S
C287 C286 1.312 . S
C288 O260 1.214 . S
C288 O268 1.234 . S
C289 H261 0.929 . S
C289 C292 1.391 . S
C289 C294 1.391 . S
C290 H262 0.929 . S
C290 C291 1.390 . S
C290 N293 1.391 . S
C291 H263 0.930 . S
C291 C290 1.390 . S
C291 C292 1.392 . S
C292 H264 0.929 . S
C292 C289 1.391 . S
C292 C291 1.392 . S
N293 Co237 2.257 . S
N293 C290 1.391 . S
N293 C294 1.388 . S
C294 H265 0.930 . S
C294 C289 1.391 . S
C294 N293 1.388 . S
Co295 O297 2.143 . S
Co295 O303 2.074 . S
Co295 O306 2.093 . S
Co295 O319 2.097 . S
Co295 N336 2.151 . S
Co295 N344 2.214 . S
Co296 O297 2.160 . S
Co296 O302 2.058 . S
Co296 O312 2.057 . S
Co296 O327 2.037 . S
Co296 N331 2.145 . S
Co296 N352 2.257 . S
O297 Co295 2.143 . S
O297 Co296 2.160 . S
C298 O299 1.278 . S
C298 O306 1.224 . S
O299 C298 1.278 . S
C300 O301 1.245 . S
C300 O312 1.232 . S
O301 C300 1.245 . S
O302 Co296 2.058 . S
O302 C328 1.269 . S
O303 Co295 2.074 . S
O303 C328 1.257 . S
H304 C329 0.930 . S
H305 C335 0.930 . S
O306 Co295 2.093 . S
O306 C298 1.224 . S
H307 C339 0.929 . S
H308 C341 0.930 . S
H309 C342 0.930 . S
H310 C340 0.929 . S
H311 C343 0.928 . S
O312 Co296 2.057 . S
O312 C300 1.232 . S
H313 C332 0.929 . S
H314 C333 0.929 . S
H315 C345 0.931 . S
H316 C337 0.929 . S
H317 C346 0.930 . S
H318 C338 0.931 . S
O319 Co295 2.097 . S
O319 C347 1.214 . S
H320 C348 0.929 . S
H321 C349 0.929 . S
H322 C350 0.930 . S
H323 C351 0.929 . S
H324 C353 0.930 . S
H325 C330 0.930 . S
H326 C334 0.930 . S
O327 Co296 2.037 . S
O327 C347 1.234 . S
C328 O302 1.269 . S
C328 O303 1.257 . S
C329 H304 0.930 . S
C329 C332 1.388 . S
C329 C334 1.418 . S
C330 H325 0.930 . S
C330 C333 1.404 . S
C330 C334 1.353 . S
N331 Co296 2.145 . S
N331 C332 1.397 . S
N331 C333 1.334 . S
C332 H313 0.929 . S
C332 C329 1.388 . S
C332 N331 1.397 . S
C333 H314 0.929 . S
C333 C330 1.404 . S
C333 N331 1.334 . S
C334 H326 0.930 . S
C334 C329 1.418 . S
C334 C330 1.353 . S
C335 H305 0.930 . S
C335 N336 1.330 . S
C335 C337 1.446 . S
N336 Co295 2.151 . S
N336 C335 1.330 . S
N336 C340 1.418 . S
C337 H316 0.929 . S
C337 C335 1.446 . S
C337 C338 1.332 . S
C338 H318 0.931 . S
C338 C337 1.332 . S
C338 C339 1.267 . S
C339 H307 0.929 . S
C339 C338 1.267 . S
C339 C340 1.251 . S
C340 H310 0.929 . S
C340 N336 1.418 . S
C340 C339 1.251 . S
C341 H308 0.930 . S
C341 C343 1.406 . S
C341 C346 1.261 . S
C342 H309 0.930 . S
C342 N344 1.325 . S
C342 C345 1.357 . S
C343 H311 0.928 . S
C343 C341 1.406 . S
C343 N344 1.261 . S
N344 Co295 2.214 . S
N344 C342 1.325 . S
N344 C343 1.261 . S
C345 H315 0.931 . S
C345 C342 1.357 . S
C345 C346 1.312 . S
C346 H317 0.930 . S
C346 C341 1.261 . S
C346 C345 1.312 . S
C347 O319 1.214 . S
C347 O327 1.234 . S
C348 H320 0.929 . S
C348 C351 1.391 . S
C348 C353 1.391 . S
C349 H321 0.929 . S
C349 C350 1.390 . S
C349 N352 1.391 . S
C350 H322 0.930 . S
C350 C349 1.390 . S
C350 C351 1.392 . S
C351 H323 0.929 . S
C351 C348 1.391 . S
C351 C350 1.392 . S
N352 Co296 2.257 . S
N352 C349 1.391 . S
N352 C353 1.388 . S
C353 H324 0.930 . S
C353 C348 1.391 . S
C353 N352 1.388 . S
Co354 O356 2.143 . S
Co354 O362 2.074 . S
Co354 O365 2.093 . S
Co354 O378 2.097 . S
Co354 N395 2.151 . S
Co354 N403 2.214 . S
Co355 O356 2.160 . S
Co355 O361 2.058 . S
Co355 O371 2.057 . S
Co355 O386 2.037 . S
Co355 N390 2.145 . S
Co355 N411 2.257 . S
O356 Co354 2.143 . S
O356 Co355 2.160 . S
C357 O358 1.278 . S
C357 O365 1.224 . S
O358 C357 1.278 . S
C359 O360 1.245 . S
C359 O371 1.232 . S
O360 C359 1.245 . S
O361 Co355 2.058 . S
O361 C387 1.269 . S
O362 Co354 2.074 . S
O362 C387 1.257 . S
H363 C388 0.930 . S
H364 C394 0.930 . S
O365 Co354 2.093 . S
O365 C357 1.224 . S
H366 C398 0.929 . S
H367 C400 0.930 . S
H368 C401 0.930 . S
H369 C399 0.929 . S
H370 C402 0.928 . S
O371 Co355 2.057 . S
O371 C359 1.232 . S
H372 C391 0.929 . S
H373 C392 0.940 . S
H374 C404 0.931 . S
H375 C396 0.929 . S
H376 C405 0.930 . S
H377 C397 0.931 . S
O378 Co354 2.097 . S
O378 C406 1.214 . S
H379 C407 0.929 . S
H380 C408 0.929 . S
H381 C409 0.930 . S
H382 C410 0.929 . S
H383 C412 0.930 . S
H384 C389 0.930 . S
H385 C393 0.930 . S
O386 Co355 2.037 . S
O386 C406 1.234 . S
C387 O361 1.269 . S
C387 O362 1.257 . S
C388 H363 0.930 . S
C388 C391 1.388 1_556 S
C388 C393 1.418 . S
C389 H384 0.930 . S
C389 C392 1.404 . S
C389 C393 1.353 . S
N390 Co355 2.145 . S
N390 C391 1.397 . S
N390 C392 1.334 1_554 S
C391 H372 0.929 . S
C391 C388 1.388 1_554 S
C391 N390 1.397 . S
C392 H373 0.940 . S
C392 C389 1.404 . S
C392 N390 1.334 1_556 S
C393 H385 0.930 . S
C393 C388 1.418 . S
C393 C389 1.353 . S
C394 H364 0.930 . S
C394 N395 1.330 . S
C394 C396 1.446 . S
N395 Co354 2.151 . S
N395 C394 1.330 . S
N395 C399 1.418 . S
C396 H375 0.929 . S
C396 C394 1.446 . S
C396 C397 1.332 . S
C397 H377 0.931 . S
C397 C396 1.332 . S
C397 C398 1.267 . S
C398 H366 0.929 . S
C398 C397 1.267 . S
C398 C399 1.251 . S
C399 H369 0.929 . S
C399 N395 1.418 . S
C399 C398 1.251 . S
C400 H367 0.930 . S
C400 C402 1.406 . S
C400 C405 1.261 . S
C401 H368 0.930 . S
C401 N403 1.325 . S
C401 C404 1.357 . S
C402 H370 0.928 . S
C402 C400 1.406 . S
C402 N403 1.261 . S
N403 Co354 2.214 . S
N403 C401 1.325 . S
N403 C402 1.261 . S
C404 H374 0.931 . S
C404 C401 1.357 . S
C404 C405 1.312 . S
C405 H376 0.930 . S
C405 C400 1.261 . S
C405 C404 1.312 . S
C406 O378 1.214 . S
C406 O386 1.234 . S
C407 H379 0.929 . S
C407 C410 1.391 . S
C407 C412 1.391 . S
C408 H380 0.929 . S
C408 C409 1.390 . S
C408 N411 1.391 . S
C409 H381 0.930 . S
C409 C408 1.390 . S
C409 C410 1.392 . S
C410 H382 0.929 . S
C410 C407 1.391 . S
C410 C409 1.392 . S
N411 Co355 2.257 . S
N411 C408 1.391 . S
N411 C412 1.388 . S
C412 H383 0.930 . S
C412 C407 1.391 . S
C412 N411 1.388 . S
Co413 O415 2.143 . S
Co413 O421 2.074 . S
Co413 O424 2.093 . S
Co413 O437 2.097 . S
Co413 N454 2.151 . S
Co413 N462 2.214 . S
Co414 O415 2.160 . S
Co414 O420 2.058 . S
Co414 O430 2.057 . S
Co414 O445 2.037 . S
Co414 N449 2.145 . S
Co414 N470 2.257 . S
O415 Co413 2.143 . S
O415 Co414 2.160 . S
C416 O417 1.278 . S
C416 O424 1.224 . S
O417 C416 1.278 . S
C418 O419 1.245 . S
C418 O430 1.232 . S
O419 C418 1.245 . S
O420 Co414 2.058 . S
O420 C446 1.269 . S
O421 Co413 2.074 . S
O421 C446 1.257 . S
H422 C447 0.930 . S
H423 C453 0.930 . S
O424 Co413 2.093 . S
O424 C416 1.224 . S
H425 C457 0.929 . S
H426 C459 0.930 . S
H427 C460 0.930 . S
H428 C458 0.929 . S
H429 C461 0.928 . S
O430 Co414 2.057 . S
O430 C418 1.232 . S
H431 C450 0.929 . S
H432 C451 0.929 . S
H433 C463 0.931 . S
H434 C455 0.929 . S
H435 C464 0.930 . S
H436 C456 0.931 . S
O437 Co413 2.097 . S
O437 C465 1.214 . S
H438 C466 0.929 . S
H439 C467 0.929 . S
H440 C468 0.930 . S
H441 C469 0.929 . S
H442 C471 0.930 . S
H443 C448 0.930 . S
H444 C452 0.930 . S
O445 Co414 2.037 . S
O445 C465 1.234 . S
C446 O420 1.269 . S
C446 O421 1.257 . S
C447 H422 0.930 . S
C447 C450 1.388 . S
C447 C452 1.418 . S
C448 H443 0.930 . S
C448 C451 1.404 . S
C448 C452 1.353 . S
N449 Co414 2.145 . S
N449 C450 1.397 . S
N449 C451 1.334 . S
C450 H431 0.929 . S
C450 C447 1.388 . S
C450 N449 1.397 . S
C451 H432 0.929 . S
C451 C448 1.404 . S
C451 N449 1.334 . S
C452 H444 0.930 . S
C452 C447 1.418 . S
C452 C448 1.353 . S
C453 H423 0.930 . S
C453 N454 1.330 . S
C453 C455 1.446 . S
N454 Co413 2.151 . S
N454 C453 1.330 . S
N454 C458 1.418 . S
C455 H434 0.929 . S
C455 C453 1.446 . S
C455 C456 1.332 . S
C456 H436 0.931 . S
C456 C455 1.332 . S
C456 C457 1.267 . S
C457 H425 0.929 . S
C457 C456 1.267 . S
C457 C458 1.251 . S
C458 H428 0.929 . S
C458 N454 1.418 . S
C458 C457 1.251 . S
C459 H426 0.930 . S
C459 C461 1.406 . S
C459 C464 1.261 . S
C460 H427 0.930 . S
C460 N462 1.325 . S
C460 C463 1.357 . S
C461 H429 0.928 . S
C461 C459 1.406 . S
C461 N462 1.261 . S
N462 Co413 2.214 . S
N462 C460 1.325 . S
N462 C461 1.261 . S
C463 H433 0.931 . S
C463 C460 1.357 . S
C463 C464 1.312 . S
C464 H435 0.930 . S
C464 C459 1.261 . S
C464 C463 1.312 . S
C465 O437 1.214 . S
C465 O445 1.234 . S
C466 H438 0.929 . S
C466 C469 1.391 . S
C466 C471 1.391 . S
C467 H439 0.929 . S
C467 C468 1.390 . S
C467 N470 1.391 . S
C468 H440 0.930 . S
C468 C467 1.390 . S
C468 C469 1.392 . S
C469 H441 0.929 . S
C469 C466 1.391 . S
C469 C468 1.392 . S
N470 Co414 2.257 . S
N470 C467 1.391 . S
N470 C471 1.388 . S
C471 H442 0.930 . S
C471 C466 1.391 . S
C471 N470 1.388 . S
Co472 O474 2.143 . S
Co472 O480 2.074 . S
Co472 O483 2.093 . S
Co472 O496 2.097 . S
Co472 N513 2.151 . S
Co472 N521 2.214 . S
Co473 O474 2.160 . S
Co473 O479 2.058 . S
Co473 O489 2.057 . S
Co473 O504 2.037 . S
Co473 N508 2.145 . S
Co473 N529 2.257 . S
O474 Co472 2.143 . S
O474 Co473 2.160 . S
C475 O476 1.278 . S
C475 O483 1.224 . S
O476 C475 1.278 . S
C477 O478 1.245 . S
C477 O489 1.232 . S
O478 C477 1.245 . S
O479 Co473 2.058 . S
O479 C505 1.269 . S
O480 Co472 2.074 . S
O480 C505 1.257 . S
H481 C506 0.930 . S
H482 C512 0.930 . S
O483 Co472 2.093 . S
O483 C475 1.224 . S
H484 C516 0.929 1_556 S
H485 C518 0.930 . S
H486 C519 0.953 . S
H487 C517 0.929 . S
H488 C520 0.928 . S
O489 Co473 2.057 . S
O489 C477 1.232 . S
H490 C509 0.929 . S
H491 C510 0.929 . S
H492 C522 0.931 . S
H493 C514 0.929 . S
H494 C523 0.930 . S
H495 C515 0.931 1_556 S
O496 Co472 2.097 . S
O496 C524 1.214 . S
H497 C525 0.929 . S
H498 C526 0.929 . S
H499 C527 0.930 . S
H500 C528 0.929 . S
H501 C530 0.930 . S
H502 C507 0.930 . S
H503 C511 0.930 . S
O504 Co473 2.037 . S
O504 C524 1.234 . S
C505 O479 1.269 . S
C505 O480 1.257 . S
C506 H481 0.930 . S
C506 C509 1.388 . S
C506 C511 1.418 . S
C507 H502 0.930 . S
C507 C510 1.404 . S
C507 C511 1.353 . S
N508 Co473 2.145 . S
N508 C509 1.397 . S
N508 C510 1.334 . S
C509 H490 0.929 . S
C509 C506 1.388 . S
C509 N508 1.397 . S
C510 H491 0.929 . S
C510 C507 1.404 . S
C510 N508 1.334 . S
C511 H503 0.930 . S
C511 C506 1.418 . S
C511 C507 1.353 . S
C512 H482 0.930 . S
C512 N513 1.330 . S
C512 C514 1.446 . S
N513 Co472 2.151 . S
N513 C512 1.330 . S
N513 C517 1.418 . S
C514 H493 0.929 . S
C514 C512 1.446 . S
C514 C515 1.332 . S
C515 H495 0.931 1_554 S
C515 C514 1.332 . S
C515 C516 1.267 . S
C516 H484 0.929 1_554 S
C516 C515 1.267 . S
C516 C517 1.251 . S
C517 H487 0.929 . S
C517 N513 1.418 . S
C517 C516 1.251 . S
C518 H485 0.930 . S
C518 C520 1.406 . S
C518 C523 1.261 . S
C519 H486 0.953 . S
C519 N521 1.330 . S
C519 C522 1.331 1_554 S
C520 H488 0.928 . S
C520 C518 1.406 . S
C520 N521 1.261 1_556 S
N521 Co472 2.214 . S
N521 C519 1.330 . S
N521 C520 1.261 1_554 S
C522 H492 0.931 . S
C522 C519 1.331 1_556 S
C522 C523 1.312 . S
C523 H494 0.930 . S
C523 C518 1.261 . S
C523 C522 1.312 . S
C524 O496 1.214 . S
C524 O504 1.234 . S
C525 H497 0.929 . S
C525 C528 1.391 . S
C525 C530 1.391 . S
C526 H498 0.929 . S
C526 C527 1.390 . S
C526 N529 1.391 . S
C527 H499 0.930 . S
C527 C526 1.390 . S
C527 C528 1.392 . S
C528 H500 0.929 . S
C528 C525 1.391 . S
C528 C527 1.392 . S
N529 Co473 2.257 . S
N529 C526 1.391 . S
N529 C530 1.388 . S
C530 H501 0.930 . S
C530 C525 1.391 . S
C530 N529 1.388 . S
Co531 O533 2.143 . S
Co531 O539 2.074 . S
Co531 O542 2.093 . S
Co531 O555 2.097 . S
Co531 N572 2.151 . S
Co531 N580 2.214 . S
Co532 O533 2.160 . S
Co532 O538 2.058 . S
Co532 O548 2.057 . S
Co532 O563 2.037 . S
Co532 N567 2.145 . S
Co532 N588 2.257 . S
O533 Co531 2.143 . S
O533 Co532 2.160 . S
C534 O535 1.278 . S
C534 O542 1.224 . S
O535 C534 1.278 . S
C536 O537 1.245 . S
C536 O548 1.232 . S
O537 C536 1.245 . S
O538 Co532 2.058 . S
O538 C564 1.269 . S
O539 Co531 2.074 . S
O539 C564 1.257 . S
H540 C565 0.930 . S
H541 C571 0.930 . S
O542 Co531 2.093 . S
O542 C534 1.224 . S
H543 C575 0.929 . S
H544 C577 0.930 . S
H545 C578 0.930 . S
H546 C576 0.929 . S
H547 C579 0.928 . S
O548 Co532 2.057 . S
O548 C536 1.232 . S
H549 C568 0.929 . S
H550 C569 0.929 . S
H551 C581 0.931 . S
H552 C573 0.929 . S
H553 C582 0.930 . S
H554 C574 0.931 . S
O555 Co531 2.097 . S
O555 C583 1.214 . S
H556 C584 0.929 . S
H557 C585 0.929 . S
H558 C586 0.930 . S
H559 C587 0.929 . S
H560 C589 0.930 . S
H561 C566 0.930 . S
H562 C570 0.930 . S
O563 Co532 2.037 . S
O563 C583 1.234 . S
C564 O538 1.269 . S
C564 O539 1.257 . S
C565 H540 0.930 . S
C565 C568 1.388 . S
C565 C570 1.418 . S
C566 H561 0.930 . S
C566 C569 1.404 . S
C566 C570 1.353 . S
N567 Co532 2.145 . S
N567 C568 1.397 . S
N567 C569 1.334 . S
C568 H549 0.929 . S
C568 C565 1.388 . S
C568 N567 1.397 . S
C569 H550 0.929 . S
C569 C566 1.404 . S
C569 N567 1.334 . S
C570 H562 0.930 . S
C570 C565 1.418 . S
C570 C566 1.353 . S
C571 H541 0.930 . S
C571 N572 1.330 . S
C571 C573 1.446 . S
N572 Co531 2.151 . S
N572 C571 1.330 . S
N572 C576 1.418 . S
C573 H552 0.929 . S
C573 C571 1.446 . S
C573 C574 1.332 . S
C574 H554 0.931 . S
C574 C573 1.332 . S
C574 C575 1.267 . S
C575 H543 0.929 . S
C575 C574 1.267 . S
C575 C576 1.251 . S
C576 H546 0.929 . S
C576 N572 1.418 . S
C576 C575 1.251 . S
C577 H544 0.930 . S
C577 C579 1.406 . S
C577 C582 1.261 . S
C578 H545 0.930 . S
C578 N580 1.325 . S
C578 C581 1.357 . S
C579 H547 0.928 . S
C579 C577 1.406 . S
C579 N580 1.261 . S
N580 Co531 2.214 . S
N580 C578 1.325 . S
N580 C579 1.261 . S
C581 H551 0.931 . S
C581 C578 1.357 . S
C581 C582 1.312 . S
C582 H553 0.930 . S
C582 C577 1.261 . S
C582 C581 1.312 . S
C583 O555 1.214 . S
C583 O563 1.234 . S
C584 H556 0.929 . S
C584 C587 1.391 . S
C584 C589 1.391 . S
C585 H557 0.929 . S
C585 C586 1.390 . S
C585 N588 1.391 . S
C586 H558 0.930 . S
C586 C585 1.390 . S
C586 C587 1.392 . S
C587 H559 0.929 . S
C587 C584 1.391 . S
C587 C586 1.392 . S
N588 Co532 2.257 . S
N588 C585 1.391 . S
N588 C589 1.388 . S
C589 H560 0.930 . S
C589 C584 1.391 . S
C589 N588 1.388 . S
Co590 O592 2.143 . S
Co590 O598 2.074 . S
Co590 O601 2.093 . S
Co590 O614 2.097 . S
Co590 N631 2.151 . S
Co590 N639 2.214 . S
Co591 O592 2.160 . S
Co591 O597 2.058 . S
Co591 O607 2.057 . S
Co591 O622 2.037 . S
Co591 N626 2.145 . S
Co591 N647 2.257 . S
O592 Co590 2.143 . S
O592 Co591 2.160 . S
C593 O594 1.278 . S
C593 O601 1.224 . S
O594 C593 1.278 . S
C595 O596 1.245 . S
C595 O607 1.232 . S
O596 C595 1.245 . S
O597 Co591 2.058 . S
O597 C623 1.269 . S
O598 Co590 2.074 . S
O598 C623 1.257 . S
H599 C624 0.930 . S
H600 C630 0.930 . S
O601 Co590 2.093 . S
O601 C593 1.224 . S
H602 C634 0.929 1_554 S
H603 C636 0.930 . S
H604 C637 0.953 . S
H605 C635 0.929 . S
H606 C638 0.928 . S
O607 Co591 2.057 . S
O607 C595 1.232 . S
H608 C627 0.929 . S
H609 C628 0.929 . S
H610 C640 0.931 . S
H611 C632 0.929 . S
H612 C641 0.930 . S
H613 C633 0.931 1_554 S
O614 Co590 2.097 . S
O614 C642 1.214 . S
H615 C643 0.929 . S
H616 C644 0.929 . S
H617 C645 0.930 . S
H618 C646 0.929 . S
H619 C648 0.930 . S
H620 C625 0.930 . S
H621 C629 0.930 . S
O622 Co591 2.037 . S
O622 C642 1.234 . S
C623 O597 1.269 . S
C623 O598 1.257 . S
C624 H599 0.930 . S
C624 C627 1.388 . S
C624 C629 1.418 . S
C625 H620 0.930 . S
C625 C628 1.404 . S
C625 C629 1.353 . S
N626 Co591 2.145 . S
N626 C627 1.397 . S
N626 C628 1.334 . S
C627 H608 0.929 . S
C627 C624 1.388 . S
C627 N626 1.397 . S
C628 H609 0.929 . S
C628 C625 1.404 . S
C628 N626 1.334 . S
C629 H621 0.930 . S
C629 C624 1.418 . S
C629 C625 1.353 . S
C630 H600 0.930 . S
C630 N631 1.330 . S
C630 C632 1.446 . S
N631 Co590 2.151 . S
N631 C630 1.330 . S
N631 C635 1.418 . S
C632 H611 0.929 . S
C632 C630 1.446 . S
C632 C633 1.332 . S
C633 H613 0.931 1_556 S
C633 C632 1.332 . S
C633 C634 1.267 . S
C634 H602 0.929 1_556 S
C634 C633 1.267 . S
C634 C635 1.251 . S
C635 H605 0.929 . S
C635 N631 1.418 . S
C635 C634 1.251 . S
C636 H603 0.930 . S
C636 C638 1.406 . S
C636 C641 1.261 . S
C637 H604 0.953 . S
C637 N639 1.330 . S
C637 C640 1.331 1_556 S
C638 H606 0.928 . S
C638 C636 1.406 . S
C638 N639 1.261 1_554 S
N639 Co590 2.214 . S
N639 C637 1.330 . S
N639 C638 1.261 1_556 S
C640 H610 0.931 . S
C640 C637 1.331 1_554 S
C640 C641 1.312 . S
C641 H612 0.930 . S
C641 C636 1.261 . S
C641 C640 1.312 . S
C642 O614 1.214 . S
C642 O622 1.234 . S
C643 H615 0.929 . S
C643 C646 1.391 . S
C643 C648 1.391 . S
C644 H616 0.929 . S
C644 C645 1.390 . S
C644 N647 1.391 . S
C645 H617 0.930 . S
C645 C644 1.390 . S
C645 C646 1.392 . S
C646 H618 0.929 . S
C646 C643 1.391 . S
C646 C645 1.392 . S
N647 Co591 2.257 . S
N647 C644 1.391 . S
N647 C648 1.388 . S
C648 H619 0.930 . S
C648 C643 1.391 . S
C648 N647 1.388 . S
Co649 O651 2.143 . S
Co649 O657 2.074 . S
Co649 O660 2.093 . S
Co649 O673 2.097 . S
Co649 N690 2.151 . S
Co649 N698 2.214 . S
Co650 O651 2.160 . S
Co650 O656 2.058 . S
Co650 O666 2.057 . S
Co650 O681 2.037 . S
Co650 N685 2.145 . S
Co650 N706 2.257 . S
O651 Co649 2.143 . S
O651 Co650 2.160 . S
C652 O653 1.278 . S
C652 O660 1.224 . S
O653 C652 1.278 . S
C654 O655 1.245 . S
C654 O666 1.232 . S
O655 C654 1.245 . S
O656 Co650 2.058 . S
O656 C682 1.269 . S
O657 Co649 2.074 . S
O657 C682 1.257 . S
H658 C683 0.930 . S
H659 C689 0.930 . S
O660 Co649 2.093 . S
O660 C652 1.224 . S
H661 C693 0.929 . S
H662 C695 0.930 . S
H663 C696 0.930 . S
H664 C694 0.929 . S
H665 C697 0.928 . S
O666 Co650 2.057 . S
O666 C654 1.232 . S
H667 C686 0.929 . S
H668 C687 0.929 . S
H669 C699 0.931 . S
H670 C691 0.929 . S
H671 C700 0.930 . S
H672 C692 0.931 . S
O673 Co649 2.097 . S
O673 C701 1.214 . S
H674 C702 0.929 . S
H675 C703 0.929 . S
H676 C704 0.930 . S
H677 C705 0.929 . S
H678 C707 0.930 . S
H679 C684 0.930 . S
H680 C688 0.930 . S
O681 Co650 2.037 . S
O681 C701 1.234 . S
C682 O656 1.269 . S
C682 O657 1.257 . S
C683 H658 0.930 . S
C683 C686 1.388 . S
C683 C688 1.418 . S
C684 H679 0.930 . S
C684 C687 1.404 . S
C684 C688 1.353 . S
N685 Co650 2.145 . S
N685 C686 1.397 . S
N685 C687 1.334 . S
C686 H667 0.929 . S
C686 C683 1.388 . S
C686 N685 1.397 . S
C687 H668 0.929 . S
C687 C684 1.404 . S
C687 N685 1.334 . S
C688 H680 0.930 . S
C688 C683 1.418 . S
C688 C684 1.353 . S
C689 H659 0.930 . S
C689 N690 1.330 . S
C689 C691 1.446 . S
N690 Co649 2.151 . S
N690 C689 1.330 . S
N690 C694 1.418 . S
C691 H670 0.929 . S
C691 C689 1.446 . S
C691 C692 1.332 . S
C692 H672 0.931 . S
C692 C691 1.332 . S
C692 C693 1.267 . S
C693 H661 0.929 . S
C693 C692 1.267 . S
C693 C694 1.251 . S
C694 H664 0.929 . S
C694 N690 1.418 . S
C694 C693 1.251 . S
C695 H662 0.930 . S
C695 C697 1.406 . S
C695 C700 1.261 . S
C696 H663 0.930 . S
C696 N698 1.325 . S
C696 C699 1.357 . S
C697 H665 0.928 . S
C697 C695 1.406 . S
C697 N698 1.261 . S
N698 Co649 2.214 . S
N698 C696 1.325 . S
N698 C697 1.261 . S
C699 H669 0.931 . S
C699 C696 1.357 . S
C699 C700 1.312 . S
C700 H671 0.930 . S
C700 C695 1.261 . S
C700 C699 1.312 . S
C701 O673 1.214 . S
C701 O681 1.234 . S
C702 H674 0.929 . S
C702 C705 1.391 . S
C702 C707 1.391 . S
C703 H675 0.929 . S
C703 C704 1.390 . S
C703 N706 1.391 . S
C704 H676 0.930 . S
C704 C703 1.390 . S
C704 C705 1.392 . S
C705 H677 0.929 . S
C705 C702 1.391 . S
C705 C704 1.392 . S
N706 Co650 2.257 . S
N706 C703 1.391 . S
N706 C707 1.388 . S
C707 H678 0.930 . S
C707 C702 1.391 . S
C707 N706 1.388 . S
Co708 O710 2.143 . S
Co708 O716 2.074 . S
Co708 O719 2.093 . S
Co708 O732 2.097 . S
Co708 N749 2.151 . S
Co708 N757 2.214 . S
Co709 O710 2.160 . S
Co709 O715 2.058 . S
Co709 O725 2.057 . S
Co709 O740 2.037 . S
Co709 N744 2.145 . S
Co709 N765 2.257 . S
O710 Co708 2.143 . S
O710 Co709 2.160 . S
C711 O712 1.278 . S
C711 O719 1.224 . S
O712 C711 1.278 . S
C713 O714 1.245 . S
C713 O725 1.232 . S
O714 C713 1.245 . S
O715 Co709 2.058 . S
O715 C741 1.269 . S
O716 Co708 2.074 . S
O716 C741 1.257 . S
H717 C742 0.930 . S
H718 C748 0.930 . S
O719 Co708 2.093 . S
O719 C711 1.224 . S
H720 C752 0.929 . S
H721 C754 0.930 . S
H722 C755 0.930 . S
H723 C753 0.929 . S
H724 C756 0.928 . S
O725 Co709 2.057 . S
O725 C713 1.232 . S
H726 C745 0.929 . S
H727 C746 0.940 . S
H728 C758 0.931 . S
H729 C750 0.929 . S
H730 C759 0.930 . S
H731 C751 0.931 . S
O732 Co708 2.097 . S
O732 C760 1.214 . S
H733 C761 0.929 . S
H734 C762 0.929 . S
H735 C763 0.930 . S
H736 C764 0.929 . S
H737 C766 0.930 . S
H738 C743 0.930 . S
H739 C747 0.930 . S
O740 Co709 2.037 . S
O740 C760 1.234 . S
C741 O715 1.269 . S
C741 O716 1.257 . S
C742 H717 0.930 . S
C742 C745 1.388 1_554 S
C742 C747 1.418 . S
C743 H738 0.930 . S
C743 C746 1.404 . S
C743 C747 1.353 . S
N744 Co709 2.145 . S
N744 C745 1.397 . S
N744 C746 1.334 1_556 S
C745 H726 0.929 . S
C745 C742 1.388 1_556 S
C745 N744 1.397 . S
C746 H727 0.940 . S
C746 C743 1.404 . S
C746 N744 1.334 1_554 S
C747 H739 0.930 . S
C747 C742 1.418 . S
C747 C743 1.353 . S
C748 H718 0.930 . S
C748 N749 1.330 . S
C748 C750 1.446 . S
N749 Co708 2.151 . S
N749 C748 1.330 . S
N749 C753 1.418 . S
C750 H729 0.929 . S
C750 C748 1.446 . S
C750 C751 1.332 . S
C751 H731 0.931 . S
C751 C750 1.332 . S
C751 C752 1.267 . S
C752 H720 0.929 . S
C752 C751 1.267 . S
C752 C753 1.251 . S
C753 H723 0.929 . S
C753 N749 1.418 . S
C753 C752 1.251 . S
C754 H721 0.930 . S
C754 C756 1.406 . S
C754 C759 1.261 . S
C755 H722 0.930 . S
C755 N757 1.325 . S
C755 C758 1.357 . S
C756 H724 0.928 . S
C756 C754 1.406 . S
C756 N757 1.261 . S
N757 Co708 2.214 . S
N757 C755 1.325 . S
N757 C756 1.261 . S
C758 H728 0.931 . S
C758 C755 1.357 . S
C758 C759 1.312 . S
C759 H730 0.930 . S
C759 C754 1.261 . S
C759 C758 1.312 . S
C760 O732 1.214 . S
C760 O740 1.234 . S
C761 H733 0.929 . S
C761 C764 1.391 . S
C761 C766 1.391 . S
C762 H734 0.929 . S
C762 C763 1.390 . S
C762 N765 1.391 . S
C763 H735 0.930 . S
C763 C762 1.390 . S
C763 C764 1.392 . S
C764 H736 0.929 . S
C764 C761 1.391 . S
C764 C763 1.392 . S
N765 Co709 2.257 . S
N765 C762 1.391 . S
N765 C766 1.388 . S
C766 H737 0.930 . S
C766 C761 1.391 . S
C766 N765 1.388 . S
Co767 O769 2.143 . S
Co767 O775 2.074 . S
Co767 O778 2.093 . S
Co767 O791 2.097 . S
Co767 N808 2.151 . S
Co767 N816 2.214 . S
Co768 O769 2.160 . S
Co768 O774 2.058 . S
Co768 O784 2.057 . S
Co768 O799 2.037 . S
Co768 N803 2.145 . S
Co768 N824 2.257 . S
O769 Co767 2.143 . S
O769 Co768 2.160 . S
C770 O771 1.278 . S
C770 O778 1.224 . S
O771 C770 1.278 . S
C772 O773 1.245 . S
C772 O784 1.232 . S
O773 C772 1.245 . S
O774 Co768 2.058 . S
O774 C800 1.269 . S
O775 Co767 2.074 . S
O775 C800 1.257 . S
H776 C801 0.930 . S
H777 C807 0.930 . S
O778 Co767 2.093 . S
O778 C770 1.224 . S
H779 C811 0.929 . S
H780 C813 0.930 . S
H781 C814 0.930 . S
H782 C812 0.929 . S
H783 C815 0.928 . S
O784 Co768 2.057 . S
O784 C772 1.232 . S
H785 C804 0.929 . S
H786 C805 0.929 . S
H787 C817 0.931 . S
H788 C809 0.929 . S
H789 C818 0.930 . S
H790 C810 0.931 . S
O791 Co767 2.097 . S
O791 C819 1.214 . S
H792 C820 0.929 . S
H793 C821 0.929 . S
H794 C822 0.930 . S
H795 C823 0.929 . S
H796 C825 0.930 . S
H797 C802 0.930 . S
H798 C806 0.930 . S
O799 Co768 2.037 . S
O799 C819 1.234 . S
C800 O774 1.269 . S
C800 O775 1.257 . S
C801 H776 0.930 . S
C801 C804 1.388 . S
C801 C806 1.418 . S
C802 H797 0.930 . S
C802 C805 1.404 . S
C802 C806 1.353 . S
N803 Co768 2.145 . S
N803 C804 1.397 . S
N803 C805 1.334 . S
C804 H785 0.929 . S
C804 C801 1.388 . S
C804 N803 1.397 . S
C805 H786 0.929 . S
C805 C802 1.404 . S
C805 N803 1.334 . S
C806 H798 0.930 . S
C806 C801 1.418 . S
C806 C802 1.353 . S
C807 H777 0.930 . S
C807 N808 1.330 . S
C807 C809 1.446 . S
N808 Co767 2.151 . S
N808 C807 1.330 . S
N808 C812 1.418 . S
C809 H788 0.929 . S
C809 C807 1.446 . S
C809 C810 1.332 . S
C810 H790 0.931 . S
C810 C809 1.332 . S
C810 C811 1.267 . S
C811 H779 0.929 . S
C811 C810 1.267 . S
C811 C812 1.251 . S
C812 H782 0.929 . S
C812 N808 1.418 . S
C812 C811 1.251 . S
C813 H780 0.930 . S
C813 C815 1.406 . S
C813 C818 1.261 . S
C814 H781 0.930 . S
C814 N816 1.325 . S
C814 C817 1.357 . S
C815 H783 0.928 . S
C815 C813 1.406 . S
C815 N816 1.261 . S
N816 Co767 2.214 . S
N816 C814 1.325 . S
N816 C815 1.261 . S
C817 H787 0.931 . S
C817 C814 1.357 . S
C817 C818 1.312 . S
C818 H789 0.930 . S
C818 C813 1.261 . S
C818 C817 1.312 . S
C819 O791 1.214 . S
C819 O799 1.234 . S
C820 H792 0.929 . S
C820 C823 1.391 . S
C820 C825 1.391 . S
C821 H793 0.929 . S
C821 C822 1.390 . S
C821 N824 1.391 . S
C822 H794 0.930 . S
C822 C821 1.390 . S
C822 C823 1.392 . S
C823 H795 0.929 . S
C823 C820 1.391 . S
C823 C822 1.392 . S
N824 Co768 2.257 . S
N824 C821 1.391 . S
N824 C825 1.388 . S
C825 H796 0.930 . S
C825 C820 1.391 . S
C825 N824 1.388 . S
Co826 O828 2.143 . S
Co826 O834 2.074 . S
Co826 O837 2.093 . S
Co826 O850 2.097 . S
Co826 N867 2.151 . S
Co826 N875 2.214 . S
Co827 O828 2.160 . S
Co827 O833 2.058 . S
Co827 O843 2.057 . S
Co827 O858 2.037 . S
Co827 N862 2.145 . S
Co827 N883 2.257 . S
O828 Co826 2.143 . S
O828 Co827 2.160 . S
C829 O830 1.278 . S
C829 O837 1.224 . S
O830 C829 1.278 . S
C831 O832 1.245 . S
C831 O843 1.232 . S
O832 C831 1.245 . S
O833 Co827 2.058 . S
O833 C859 1.269 . S
O834 Co826 2.074 . S
O834 C859 1.257 . S
H835 C860 0.930 . S
H836 C866 0.930 . S
O837 Co826 2.093 . S
O837 C829 1.224 . S
H838 C870 0.929 . S
H839 C872 0.930 . S
H840 C873 0.930 . S
H841 C871 0.929 . S
H842 C874 0.928 . S
O843 Co827 2.057 . S
O843 C831 1.232 . S
H844 C863 0.929 . S
H845 C864 0.940 . S
H846 C876 0.931 . S
H847 C868 0.929 . S
H848 C877 0.930 . S
H849 C869 0.931 . S
O850 Co826 2.097 . S
O850 C878 1.214 . S
H851 C879 0.929 . S
H852 C880 0.929 . S
H853 C881 0.930 . S
H854 C882 0.929 . S
H855 C884 0.930 . S
H856 C861 0.930 . S
H857 C865 0.930 . S
O858 Co827 2.037 . S
O858 C878 1.234 . S
C859 O833 1.269 . S
C859 O834 1.257 . S
C860 H835 0.930 . S
C860 C863 1.388 1_556 S
C860 C865 1.418 . S
C861 H856 0.930 . S
C861 C864 1.404 . S
C861 C865 1.353 . S
N862 Co827 2.145 . S
N862 C863 1.397 . S
N862 C864 1.334 1_554 S
C863 H844 0.929 . S
C863 C860 1.388 1_554 S
C863 N862 1.397 . S
C864 H845 0.940 . S
C864 C861 1.404 . S
C864 N862 1.334 1_556 S
C865 H857 0.930 . S
C865 C860 1.418 . S
C865 C861 1.353 . S
C866 H836 0.930 . S
C866 N867 1.330 . S
C866 C868 1.446 . S
N867 Co826 2.151 . S
N867 C866 1.330 . S
N867 C871 1.418 . S
C868 H847 0.929 . S
C868 C866 1.446 . S
C868 C869 1.332 . S
C869 H849 0.931 . S
C869 C868 1.332 . S
C869 C870 1.267 . S
C870 H838 0.929 . S
C870 C869 1.267 . S
C870 C871 1.251 . S
C871 H841 0.929 . S
C871 N867 1.418 . S
C871 C870 1.251 . S
C872 H839 0.930 . S
C872 C874 1.406 . S
C872 C877 1.261 . S
C873 H840 0.930 . S
C873 N875 1.325 . S
C873 C876 1.357 . S
C874 H842 0.928 . S
C874 C872 1.406 . S
C874 N875 1.261 . S
N875 Co826 2.214 . S
N875 C873 1.325 . S
N875 C874 1.261 . S
C876 H846 0.931 . S
C876 C873 1.357 . S
C876 C877 1.312 . S
C877 H848 0.930 . S
C877 C872 1.261 . S
C877 C876 1.312 . S
C878 O850 1.214 . S
C878 O858 1.234 . S
C879 H851 0.929 . S
C879 C882 1.391 . S
C879 C884 1.391 . S
C880 H852 0.929 . S
C880 C881 1.390 . S
C880 N883 1.391 . S
C881 H853 0.930 . S
C881 C880 1.390 . S
C881 C882 1.392 . S
C882 H854 0.929 . S
C882 C879 1.391 . S
C882 C881 1.392 . S
N883 Co827 2.257 . S
N883 C880 1.391 . S
N883 C884 1.388 . S
C884 H855 0.930 . S
C884 C879 1.391 . S
C884 N883 1.388 . S
Co885 O887 2.143 . S
Co885 O893 2.074 . S
Co885 O896 2.093 . S
Co885 O909 2.097 . S
Co885 N926 2.151 . S
Co885 N934 2.214 . S
Co886 O887 2.160 . S
Co886 O892 2.058 . S
Co886 O902 2.057 . S
Co886 O917 2.037 . S
Co886 N921 2.145 . S
Co886 N942 2.257 . S
O887 Co885 2.143 . S
O887 Co886 2.160 . S
C888 O889 1.278 . S
C888 O896 1.224 . S
O889 C888 1.278 . S
C890 O891 1.245 . S
C890 O902 1.232 . S
O891 C890 1.245 . S
O892 Co886 2.058 . S
O892 C918 1.269 . S
O893 Co885 2.074 . S
O893 C918 1.257 . S
H894 C919 0.930 . S
H895 C925 0.930 . S
O896 Co885 2.093 . S
O896 C888 1.224 . S
H897 C929 0.929 . S
H898 C931 0.930 . S
H899 C932 0.930 . S
H900 C930 0.929 . S
H901 C933 0.928 . S
O902 Co886 2.057 . S
O902 C890 1.232 . S
H903 C922 0.929 . S
H904 C923 0.929 . S
H905 C935 0.931 . S
H906 C927 0.929 . S
H907 C936 0.930 . S
H908 C928 0.931 . S
O909 Co885 2.097 . S
O909 C937 1.214 . S
H910 C938 0.929 . S
H911 C939 0.929 . S
H912 C940 0.930 . S
H913 C941 0.929 . S
H914 C943 0.930 . S
H915 C920 0.930 . S
H916 C924 0.930 . S
O917 Co886 2.037 . S
O917 C937 1.234 . S
C918 O892 1.269 . S
C918 O893 1.257 . S
C919 H894 0.930 . S
C919 C922 1.388 . S
C919 C924 1.418 . S
C920 H915 0.930 . S
C920 C923 1.404 . S
C920 C924 1.353 . S
N921 Co886 2.145 . S
N921 C922 1.397 . S
N921 C923 1.334 . S
C922 H903 0.929 . S
C922 C919 1.388 . S
C922 N921 1.397 . S
C923 H904 0.929 . S
C923 C920 1.404 . S
C923 N921 1.334 . S
C924 H916 0.930 . S
C924 C919 1.418 . S
C924 C920 1.353 . S
C925 H895 0.930 . S
C925 N926 1.330 . S
C925 C927 1.446 . S
N926 Co885 2.151 . S
N926 C925 1.330 . S
N926 C930 1.418 . S
C927 H906 0.929 . S
C927 C925 1.446 . S
C927 C928 1.332 . S
C928 H908 0.931 . S
C928 C927 1.332 . S
C928 C929 1.267 . S
C929 H897 0.929 . S
C929 C928 1.267 . S
C929 C930 1.251 . S
C930 H900 0.929 . S
C930 N926 1.418 . S
C930 C929 1.251 . S
C931 H898 0.930 . S
C931 C933 1.406 . S
C931 C936 1.261 . S
C932 H899 0.930 . S
C932 N934 1.325 . S
C932 C935 1.357 . S
C933 H901 0.928 . S
C933 C931 1.406 . S
C933 N934 1.261 . S
N934 Co885 2.214 . S
N934 C932 1.325 . S
N934 C933 1.261 . S
C935 H905 0.931 . S
C935 C932 1.357 . S
C935 C936 1.312 . S
C936 H907 0.930 . S
C936 C931 1.261 . S
C936 C935 1.312 . S
C937 O909 1.214 . S
C937 O917 1.234 . S
C938 H910 0.929 . S
C938 C941 1.391 . S
C938 C943 1.391 . S
C939 H911 0.929 . S
C939 C940 1.390 . S
C939 N942 1.391 . S
C940 H912 0.930 . S
C940 C939 1.390 . S
C940 C941 1.392 . S
C941 H913 0.929 . S
C941 C938 1.391 . S
C941 C940 1.392 . S
N942 Co886 2.257 . S
N942 C939 1.391 . S
N942 C943 1.388 . S
C943 H914 0.930 . S
C943 C938 1.391 . S
C943 N942 1.388 . S
H944 C952 0.950 . S
H945 C957 0.950 . S
H946 C954 0.950 . S
H947 C956 0.950 1_556 S
H948 C958 0.950 . S
H949 C960 0.950 . S
H950 C962 0.950 . S
H951 C963 0.950 . S
C952 H944 0.950 . S
C952 C953 1.386 . S
C952 C954 1.391 . S
C953 C952 1.386 . S
C953 C957 1.393 . S
C954 H946 0.950 . S
C954 C952 1.391 . S
C954 C955 1.400 . S
C955 C954 1.400 . S
C955 C956 1.398 . S
C955 C961 1.491 . S
C956 H947 0.950 1_554 S
C956 C955 1.398 . S
C956 C957 1.391 . S
C957 H945 0.950 . S
C957 C953 1.393 . S
C957 C956 1.391 . S
C958 H948 0.950 . S
C958 C959 1.386 . S
C958 C960 1.391 . S
C959 C958 1.386 . S
C959 C963 1.393 1_556 S
C960 H949 0.950 . S
C960 C958 1.391 . S
C960 C961 1.400 1_556 S
C961 C955 1.491 . S
C961 C960 1.400 1_554 S
C961 C962 1.398 . S
C962 H950 0.950 . S
C962 C961 1.398 . S
C962 C963 1.391 . S
C963 H951 0.950 . S
C963 C959 1.393 1_554 S
C963 C962 1.391 . S
H964 C972 0.950 . S
H965 C977 0.950 . S
H966 C974 0.950 . S
H967 C976 0.950 . S
H968 C978 0.950 . S
H969 C980 0.950 . S
H970 C982 0.950 . S
H971 C983 0.950 . S
C972 H964 0.950 . S
C972 C973 1.386 . S
C972 C974 1.391 . S
C973 C972 1.386 . S
C973 C977 1.393 . S
C974 H966 0.950 . S
C974 C972 1.391 . S
C974 C975 1.400 . S
C975 C974 1.400 . S
C975 C976 1.398 . S
C975 C981 1.491 . S
C976 H967 0.950 . S
C976 C975 1.398 . S
C976 C977 1.391 . S
C977 H965 0.950 . S
C977 C973 1.393 . S
C977 C976 1.391 . S
C978 H968 0.950 . S
C978 C979 1.386 . S
C978 C980 1.391 . S
C979 C978 1.386 . S
C979 C983 1.393 . S
C980 H969 0.950 . S
C980 C978 1.391 . S
C980 C981 1.400 . S
C981 C975 1.491 . S
C981 C980 1.400 . S
C981 C982 1.398 . S
C982 H970 0.950 . S
C982 C981 1.398 . S
C982 C983 1.391 . S
C983 H971 0.950 . S
C983 C979 1.393 . S
C983 C982 1.391 . S
H984 C992 0.950 . S
H985 C997 0.950 . S
H986 C994 0.950 . S
H987 C996 0.950 . S
H988 C998 0.950 . S
H989 C1000 0.950 . S
H990 C1002 0.950 . S
H991 C1003 0.950 . S
C992 H984 0.950 . S
C992 C993 1.386 . S
C992 C994 1.391 . S
C993 C992 1.386 . S
C993 C997 1.393 . S
C994 H986 0.950 . S
C994 C992 1.391 . S
C994 C995 1.400 . S
C995 C994 1.400 . S
C995 C996 1.398 . S
C995 C1001 1.491 . S
C996 H987 0.950 . S
C996 C995 1.398 . S
C996 C997 1.391 . S
C997 H985 0.950 . S
C997 C993 1.393 . S
C997 C996 1.391 . S
C998 H988 0.950 . S
C998 C999 1.386 . S
C998 C1000 1.391 1_554 S
C999 C998 1.386 . S
C999 C1003 1.393 . S
C1000 H989 0.950 . S
C1000 C998 1.391 1_556 S
C1000 C1001 1.400 . S
C1001 C995 1.491 . S
C1001 C1000 1.400 . S
C1001 C1002 1.398 1_556 S
C1002 H990 0.950 . S
C1002 C1001 1.398 1_554 S
C1002 C1003 1.391 . S
C1003 H991 0.950 . S
C1003 C999 1.393 . S
C1003 C1002 1.391 . S
H1004 C1012 0.950 . S
H1005 C1017 0.950 . S
H1006 C1014 0.950 . S
H1007 C1016 0.950 . S
H1008 C1018 0.950 . S
H1009 C1020 0.950 . S
H1010 C1022 0.950 . S
H1011 C1023 0.950 . S
C1012 H1004 0.950 . S
C1012 C1013 1.386 . S
C1012 C1014 1.391 . S
C1013 C1012 1.386 . S
C1013 C1017 1.393 . S
C1014 H1006 0.950 . S
C1014 C1012 1.391 . S
C1014 C1015 1.400 . S
C1015 C1014 1.400 . S
C1015 C1016 1.398 . S
C1015 C1021 1.491 . S
C1016 H1007 0.950 . S
C1016 C1015 1.398 . S
C1016 C1017 1.391 . S
C1017 H1005 0.950 . S
C1017 C1013 1.393 . S
C1017 C1016 1.391 . S
C1018 H1008 0.950 . S
C1018 C1019 1.386 . S
C1018 C1020 1.391 . S
C1019 C1018 1.386 . S
C1019 C1023 1.393 . S
C1020 H1009 0.950 . S
C1020 C1018 1.391 . S
C1020 C1021 1.400 . S
C1021 C1015 1.491 . S
C1021 C1020 1.400 . S
C1021 C1022 1.398 . S
C1022 H1010 0.950 . S
C1022 C1021 1.398 . S
C1022 C1023 1.391 . S
C1023 H1011 0.950 . S
C1023 C1019 1.393 . S
C1023 C1022 1.391 . S
H1024 C1032 0.950 . S
H1025 C1037 0.950 . S
H1026 C1034 0.950 1_556 S
H1027 C1036 0.950 . S
H1028 C1038 0.944 1_554 S
H1029 C1040 0.950 . S
H1030 C1042 0.950 . S
H1031 C1043 0.950 . S
C1032 H1024 0.950 . S
C1032 C1033 1.386 . S
C1032 C1034 1.391 . S
C1033 C1032 1.386 . S
C1033 C1037 1.393 . S
C1034 H1026 0.950 1_554 S
C1034 C1032 1.391 . S
C1034 C1035 1.400 . S
C1035 C1034 1.400 . S
C1035 C1036 1.398 . S
C1035 C1041 1.491 . S
C1036 H1027 0.950 . S
C1036 C1035 1.398 . S
C1036 C1037 1.391 . S
C1037 H1025 0.950 . S
C1037 C1033 1.393 . S
C1037 C1036 1.391 . S
C1038 H1028 0.944 1_556 S
C1038 C1039 1.401 . S
C1038 C1040 1.382 1_556 S
C1039 C1038 1.401 . S
C1039 C1043 1.393 . S
C1040 H1029 0.950 . S
C1040 C1038 1.382 1_554 S
C1040 C1041 1.400 . S
C1041 C1035 1.491 . S
C1041 C1040 1.400 . S
C1041 C1042 1.398 1_554 S
C1042 H1030 0.950 . S
C1042 C1041 1.398 1_556 S
C1042 C1043 1.391 . S
C1043 H1031 0.950 . S
C1043 C1039 1.393 . S
C1043 C1042 1.391 . S
H1044 C1052 0.950 . S
H1045 C1057 0.950 . S
H1046 C1054 0.950 . S
H1047 C1056 0.950 . S
H1048 C1058 0.950 . S
H1049 C1060 0.950 . S
H1050 C1062 0.950 . S
H1051 C1063 0.950 . S
C1052 H1044 0.950 . S
C1052 C1053 1.386 . S
C1052 C1054 1.391 . S
C1053 C1052 1.386 . S
C1053 C1057 1.393 . S
C1054 H1046 0.950 . S
C1054 C1052 1.391 . S
C1054 C1055 1.400 . S
C1055 C1054 1.400 . S
C1055 C1056 1.398 . S
C1055 C1061 1.491 . S
C1056 H1047 0.950 . S
C1056 C1055 1.398 . S
C1056 C1057 1.391 . S
C1057 H1045 0.950 . S
C1057 C1053 1.393 . S
C1057 C1056 1.391 . S
C1058 H1048 0.950 . S
C1058 C1059 1.386 . S
C1058 C1060 1.391 . S
C1059 C1058 1.386 . S
C1059 C1063 1.393 . S
C1060 H1049 0.950 . S
C1060 C1058 1.391 . S
C1060 C1061 1.400 . S
C1061 C1055 1.491 . S
C1061 C1060 1.400 . S
C1061 C1062 1.398 . S
C1062 H1050 0.950 . S
C1062 C1061 1.398 . S
C1062 C1063 1.391 . S
C1063 H1051 0.950 . S
C1063 C1059 1.393 . S
C1063 C1062 1.391 . S
H1064 C1072 0.950 . S
H1065 C1077 0.950 . S
H1066 C1074 0.950 . S
H1067 C1076 0.950 1_554 S
H1068 C1078 0.950 . S
H1069 C1080 0.950 . S
H1070 C1082 0.950 . S
H1071 C1083 0.950 . S
C1072 H1064 0.950 . S
C1072 C1073 1.386 . S
C1072 C1074 1.391 . S
C1073 C1072 1.386 . S
C1073 C1077 1.393 . S
C1074 H1066 0.950 . S
C1074 C1072 1.391 . S
C1074 C1075 1.400 . S
C1075 C1074 1.400 . S
C1075 C1076 1.398 . S
C1075 C1081 1.491 . S
C1076 H1067 0.950 1_556 S
C1076 C1075 1.398 . S
C1076 C1077 1.391 . S
C1077 H1065 0.950 . S
C1077 C1073 1.393 . S
C1077 C1076 1.391 . S
C1078 H1068 0.950 . S
C1078 C1079 1.386 . S
C1078 C1080 1.391 . S
C1079 C1078 1.386 . S
C1079 C1083 1.393 1_554 S
C1080 H1069 0.950 . S
C1080 C1078 1.391 . S
C1080 C1081 1.400 1_554 S
C1081 C1075 1.491 . S
C1081 C1080 1.400 1_556 S
C1081 C1082 1.398 . S
C1082 H1070 0.950 . S
C1082 C1081 1.398 . S
C1082 C1083 1.391 . S
C1083 H1071 0.950 . S
C1083 C1079 1.393 1_556 S
C1083 C1082 1.391 . S
H1084 C1092 0.950 . S
H1085 C1097 0.950 . S
H1086 C1094 0.950 . S
H1087 C1096 0.950 . S
H1088 C1098 0.950 . S
H1089 C1100 0.950 . S
H1090 C1102 0.950 . S
H1091 C1103 0.950 . S
C1092 H1084 0.950 . S
C1092 C1093 1.386 . S
C1092 C1094 1.391 . S
C1093 C1092 1.386 . S
C1093 C1097 1.393 . S
C1094 H1086 0.950 . S
C1094 C1092 1.391 . S
C1094 C1095 1.400 . S
C1095 C1094 1.400 . S
C1095 C1096 1.398 . S
C1095 C1101 1.491 . S
C1096 H1087 0.950 . S
C1096 C1095 1.398 . S
C1096 C1097 1.391 . S
C1097 H1085 0.950 . S
C1097 C1093 1.393 . S
C1097 C1096 1.391 . S
C1098 H1088 0.950 . S
C1098 C1099 1.386 . S
C1098 C1100 1.391 . S
C1099 C1098 1.386 . S
C1099 C1103 1.393 . S
C1100 H1089 0.950 . S
C1100 C1098 1.391 . S
C1100 C1101 1.400 . S
C1101 C1095 1.491 . S
C1101 C1100 1.400 . S
C1101 C1102 1.398 . S
C1102 H1090 0.950 . S
C1102 C1101 1.398 . S
C1102 C1103 1.391 . S
C1103 H1091 0.950 . S
C1103 C1099 1.393 . S
C1103 C1102 1.391 . S
H1104 C1112 0.950 . S
H1105 C1117 0.950 . S
H1106 C1114 0.950 1_565 S
H1107 C1116 0.950 1_556 S
H1108 C1118 0.950 . S
H1109 C1120 0.950 1_545 S
H1110 C1122 0.950 1_554 S
H1111 C1123 0.950 . S
C1112 H1104 0.950 . S
C1112 C1113 1.386 . S
C1112 C1114 1.391 . S
C1113 C1112 1.386 . S
C1113 C1117 1.393 . S
C1114 H1106 0.950 1_545 S
C1114 C1112 1.391 . S
C1114 C1115 1.400 . S
C1115 C1114 1.400 . S
C1115 C1116 1.398 . S
C1115 C1121 1.491 1_544 S
C1116 H1107 0.950 1_554 S
C1116 C1115 1.398 . S
C1116 C1117 1.391 . S
C1117 H1105 0.950 . S
C1117 C1113 1.393 . S
C1117 C1116 1.391 . S
C1118 H1108 0.950 . S
C1118 C1119 1.386 . S
C1118 C1120 1.391 . S
C1119 C1118 1.386 . S
C1119 C1123 1.393 . S
C1120 H1109 0.950 1_565 S
C1120 C1118 1.391 . S
C1120 C1121 1.400 . S
C1121 C1115 1.491 1_566 S
C1121 C1120 1.400 . S
C1121 C1122 1.398 . S
C1122 H1110 0.950 1_556 S
C1122 C1121 1.398 . S
C1122 C1123 1.391 . S
C1123 H1111 0.950 . S
C1123 C1119 1.393 . S
C1123 C1122 1.391 . S
H1124 C1132 0.950 . S
H1125 C1137 0.950 . S
H1126 C1134 0.950 . S
H1127 C1136 0.950 1_545 S
H1128 C1138 0.950 . S
H1129 C1140 0.950 . S
H1130 C1142 0.950 1_565 S
H1131 C1143 0.950 . S
C1132 H1124 0.950 . S
C1132 C1133 1.386 . S
C1132 C1134 1.391 . S
C1133 C1132 1.386 . S
C1133 C1137 1.393 . S
C1134 H1126 0.950 . S
C1134 C1132 1.391 . S
C1134 C1135 1.400 . S
C1135 C1134 1.400 . S
C1135 C1136 1.398 . S
C1135 C1141 1.491 1_565 S
C1136 H1127 0.950 1_565 S
C1136 C1135 1.398 . S
C1136 C1137 1.391 . S
C1137 H1125 0.950 . S
C1137 C1133 1.393 . S
C1137 C1136 1.391 . S
C1138 H1128 0.950 . S
C1138 C1139 1.386 . S
C1138 C1140 1.391 . S
C1139 C1138 1.386 . S
C1139 C1143 1.393 . S
C1140 H1129 0.950 . S
C1140 C1138 1.391 . S
C1140 C1141 1.400 . S
C1141 C1135 1.491 1_545 S
C1141 C1140 1.400 . S
C1141 C1142 1.398 . S
C1142 H1130 0.950 1_545 S
C1142 C1141 1.398 . S
C1142 C1143 1.391 . S
C1143 H1131 0.950 . S
C1143 C1139 1.393 . S
C1143 C1142 1.391 . S
H1144 C1152 0.950 . S
H1145 C1157 0.950 . S
H1146 C1154 0.950 . S
H1147 C1156 0.950 . S
H1148 C1158 0.950 . S
H1149 C1160 0.950 . S
H1150 C1162 0.950 . S
H1151 C1163 0.950 . S
C1152 H1144 0.950 . S
C1152 C1153 1.386 1_554 S
C1152 C1154 1.391 . S
C1153 C1152 1.386 1_556 S
C1153 C1157 1.393 . S
C1154 H1146 0.950 . S
C1154 C1152 1.391 . S
C1154 C1155 1.400 1_554 S
C1155 C1154 1.400 1_556 S
C1155 C1156 1.398 . S
C1155 C1161 1.491 1_566 S
C1156 H1147 0.950 . S
C1156 C1155 1.398 . S
C1156 C1157 1.391 . S
C1157 H1145 0.950 . S
C1157 C1153 1.393 . S
C1157 C1156 1.391 . S
C1158 H1148 0.950 . S
C1158 C1159 1.386 1_556 S
C1158 C1160 1.391 . S
C1159 C1158 1.386 1_554 S
C1159 C1163 1.393 . S
C1160 H1149 0.950 . S
C1160 C1158 1.391 . S
C1160 C1161 1.400 1_556 S
C1161 C1155 1.491 1_544 S
C1161 C1160 1.400 1_554 S
C1161 C1162 1.398 . S
C1162 H1150 0.950 . S
C1162 C1161 1.398 . S
C1162 C1163 1.391 . S
C1163 H1151 0.950 . S
C1163 C1159 1.393 . S
C1163 C1162 1.391 . S
H1164 C1172 0.950 . S
H1165 C1177 0.950 . S
H1166 C1174 0.950 . S
H1167 C1176 0.950 . S
H1168 C1178 0.950 . S
H1169 C1180 0.950 . S
H1170 C1182 0.950 . S
H1171 C1183 0.950 . S
C1172 H1164 0.950 . S
C1172 C1173 1.386 . S
C1172 C1174 1.391 . S
C1173 C1172 1.386 . S
C1173 C1177 1.393 . S
C1174 H1166 0.950 . S
C1174 C1172 1.391 . S
C1174 C1175 1.400 . S
C1175 C1174 1.400 . S
C1175 C1176 1.398 . S
C1175 C1181 1.491 1_545 S
C1176 H1167 0.950 . S
C1176 C1175 1.398 . S
C1176 C1177 1.391 . S
C1177 H1165 0.950 . S
C1177 C1173 1.393 . S
C1177 C1176 1.391 . S
C1178 H1168 0.950 . S
C1178 C1179 1.386 . S
C1178 C1180 1.391 . S
C1179 C1178 1.386 . S
C1179 C1183 1.393 . S
C1180 H1169 0.950 . S
C1180 C1178 1.391 . S
C1180 C1181 1.400 . S
C1181 C1175 1.491 1_565 S
C1181 C1180 1.400 . S
C1181 C1182 1.398 . S
C1182 H1170 0.950 . S
C1182 C1181 1.398 . S
C1182 C1183 1.391 . S
C1183 H1171 0.950 . S
C1183 C1179 1.393 . S
C1183 C1182 1.391 . S
H1184 C1192 0.950 . S
H1185 C1197 0.950 . S
H1186 C1194 0.950 . S
H1187 C1196 0.950 . S
H1188 C1198 0.950 . S
H1189 C1200 0.950 . S
H1190 C1202 0.950 . S
H1191 C1203 0.950 . S
C1192 H1184 0.950 . S
C1192 C1193 1.386 . S
C1192 C1194 1.391 . S
C1193 C1192 1.386 . S
C1193 C1197 1.393 . S
C1194 H1186 0.950 . S
C1194 C1192 1.391 . S
C1194 C1195 1.400 . S
C1195 C1194 1.400 . S
C1195 C1196 1.398 . S
C1195 C1201 1.491 1_556 S
C1196 H1187 0.950 . S
C1196 C1195 1.398 . S
C1196 C1197 1.391 . S
C1197 H1185 0.950 . S
C1197 C1193 1.393 . S
C1197 C1196 1.391 . S
C1198 H1188 0.950 . S
C1198 C1199 1.386 . S
C1198 C1200 1.391 . S
C1199 C1198 1.386 . S
C1199 C1203 1.393 . S
C1200 H1189 0.950 . S
C1200 C1198 1.391 . S
C1200 C1201 1.400 . S
C1201 C1195 1.491 1_554 S
C1201 C1200 1.400 . S
C1201 C1202 1.398 . S
C1202 H1190 0.950 . S
C1202 C1201 1.398 . S
C1202 C1203 1.391 . S
C1203 H1191 0.950 . S
C1203 C1199 1.393 . S
C1203 C1202 1.391 . S
H1204 C1212 0.950 . S
H1205 C1217 0.950 . S
H1206 C1214 0.950 . S
H1207 C1216 0.950 . S
H1208 C1218 0.950 . S
H1209 C1220 0.950 . S
H1210 C1222 0.950 . S
H1211 C1223 0.950 . S
C1212 H1204 0.950 . S
C1212 C1213 1.386 . S
C1212 C1214 1.391 . S
C1213 C1212 1.386 . S
C1213 C1217 1.393 . S
C1214 H1206 0.950 . S
C1214 C1212 1.391 . S
C1214 C1215 1.400 . S
C1215 C1214 1.400 . S
C1215 C1216 1.398 . S
C1215 C1221 1.491 . S
C1216 H1207 0.950 . S
C1216 C1215 1.398 . S
C1216 C1217 1.391 . S
C1217 H1205 0.950 . S
C1217 C1213 1.393 . S
C1217 C1216 1.391 . S
C1218 H1208 0.950 . S
C1218 C1219 1.386 . S
C1218 C1220 1.391 . S
C1219 C1218 1.386 . S
C1219 C1223 1.393 . S
C1220 H1209 0.950 . S
C1220 C1218 1.391 . S
C1220 C1221 1.400 . S
C1221 C1215 1.491 . S
C1221 C1220 1.400 . S
C1221 C1222 1.398 . S
C1222 H1210 0.950 . S
C1222 C1221 1.398 . S
C1222 C1223 1.391 . S
C1223 H1211 0.950 . S
C1223 C1219 1.393 . S
C1223 C1222 1.391 . S
H1224 C1232 0.950 . S
H1225 C1237 0.950 . S
H1226 C1234 0.950 . S
H1227 C1236 0.953 . S
H1228 C1238 0.950 . S
H1229 C1240 0.950 . S
H1230 C1242 0.953 . S
H1231 C1243 0.950 . S
C1232 H1224 0.950 . S
C1232 C1233 1.386 . S
C1232 C1234 1.391 . S
C1233 C1232 1.386 . S
C1233 C1237 1.393 . S
C1234 H1226 0.950 . S
C1234 C1232 1.391 . S
C1234 C1235 1.400 . S
C1235 C1234 1.400 . S
C1235 C1236 1.398 . S
C1235 C1241 1.491 1_554 S
C1236 H1227 0.953 . S
C1236 C1235 1.398 . S
C1236 C1237 1.391 . S
C1237 H1225 0.950 . S
C1237 C1233 1.393 . S
C1237 C1236 1.391 . S
C1238 H1228 0.950 . S
C1238 C1239 1.386 . S
C1238 C1240 1.391 . S
C1239 C1238 1.386 . S
C1239 C1243 1.393 . S
C1240 H1229 0.950 . S
C1240 C1238 1.391 . S
C1240 C1241 1.400 . S
C1241 C1235 1.491 1_556 S
C1241 C1240 1.400 . S
C1241 C1242 1.398 . S
C1242 H1230 0.953 . S
C1242 C1241 1.398 . S
C1242 C1243 1.391 . S
C1243 H1231 0.950 . S
C1243 C1239 1.393 . S
C1243 C1242 1.391 . S
H1244 C1252 0.950 . S
H1245 C1257 0.950 . S
H1246 C1254 0.950 . S
H1247 C1256 0.950 . S
H1248 C1258 0.950 . S
H1249 C1260 0.950 . S
H1250 C1262 0.950 . S
H1251 C1263 0.950 . S
C1252 H1244 0.950 . S
C1252 C1253 1.386 . S
C1252 C1254 1.391 . S
C1253 C1252 1.386 . S
C1253 C1257 1.393 . S
C1254 H1246 0.950 . S
C1254 C1252 1.391 . S
C1254 C1255 1.400 . S
C1255 C1254 1.400 . S
C1255 C1256 1.398 . S
C1255 C1261 1.491 . S
C1256 H1247 0.950 . S
C1256 C1255 1.398 . S
C1256 C1257 1.391 . S
C1257 H1245 0.950 . S
C1257 C1253 1.393 . S
C1257 C1256 1.391 . S
C1258 H1248 0.950 . S
C1258 C1259 1.386 . S
C1258 C1260 1.391 . S
C1259 C1258 1.386 . S
C1259 C1263 1.393 . S
C1260 H1249 0.950 . S
C1260 C1258 1.391 . S
C1260 C1261 1.400 . S
C1261 C1255 1.491 . S
C1261 C1260 1.400 . S
C1261 C1262 1.398 . S
C1262 H1250 0.950 . S
C1262 C1261 1.398 . S
C1262 C1263 1.391 . S
C1263 H1251 0.950 . S
C1263 C1259 1.393 . S
C1263 C1262 1.391 . S
H1264 C1272 0.950 . S
H1265 C1277 0.950 . S
H1266 C1274 0.950 . S
H1267 C1276 0.950 . S
H1268 C1278 0.950 . S
H1269 C1280 0.950 . S
H1270 C1282 0.950 . S
H1271 C1283 0.950 . S
C1272 H1264 0.950 . S
C1272 C1273 1.386 . S
C1272 C1274 1.391 . S
C1273 C1272 1.386 . S
C1273 C1277 1.393 . S
C1274 H1266 0.950 . S
C1274 C1272 1.391 . S
C1274 C1275 1.400 . S
C1275 C1274 1.400 . S
C1275 C1276 1.398 . S
C1275 C1281 1.491 . S
C1276 H1267 0.950 . S
C1276 C1275 1.398 . S
C1276 C1277 1.391 . S
C1277 H1265 0.950 . S
C1277 C1273 1.393 . S
C1277 C1276 1.391 . S
C1278 H1268 0.950 . S
C1278 C1279 1.386 . S
C1278 C1280 1.391 . S
C1279 C1278 1.386 . S
C1279 C1283 1.393 . S
C1280 H1269 0.950 . S
C1280 C1278 1.391 . S
C1280 C1281 1.400 . S
C1281 C1275 1.491 . S
C1281 C1280 1.400 . S
C1281 C1282 1.398 . S
C1282 H1270 0.950 . S
C1282 C1281 1.398 . S
C1282 C1283 1.391 . S
C1283 H1271 0.950 . S
C1283 C1279 1.393 . S
C1283 C1282 1.391 . S
H1284 C1292 0.950 . S
H1285 C1297 0.950 . S
H1286 C1294 0.950 . S
H1287 C1296 0.950 . S
H1288 C1298 0.950 . S
H1289 C1300 0.950 1_655 S
H1290 C1302 0.971 . S
H1291 C1303 0.950 . S
C1292 H1284 0.950 . S
C1292 C1293 1.386 . S
C1292 C1294 1.391 . S
C1293 C1292 1.386 . S
C1293 C1297 1.393 . S
C1294 H1286 0.950 . S
C1294 C1292 1.391 . S
C1294 C1295 1.400 . S
C1295 C1294 1.400 . S
C1295 C1296 1.398 . S
C1295 C1301 1.491 . S
C1296 H1287 0.950 . S
C1296 C1295 1.398 . S
C1296 C1297 1.391 . S
C1297 H1285 0.950 . S
C1297 C1293 1.393 . S
C1297 C1296 1.391 . S
C1298 H1288 0.950 . S
C1298 C1299 1.386 . S
C1298 C1300 1.391 . S
C1299 C1298 1.386 . S
C1299 C1303 1.393 . S
C1300 H1289 0.950 1_455 S
C1300 C1298 1.391 . S
C1300 C1301 1.400 1_455 S
C1301 C1295 1.491 . S
C1301 C1300 1.400 1_655 S
C1301 C1302 1.414 . S
C1302 H1290 0.971 . S
C1302 C1301 1.414 . S
C1302 C1303 1.355 1_655 S
C1303 H1291 0.950 . S
C1303 C1299 1.393 . S
C1303 C1302 1.355 1_455 S
H1304 C1312 0.950 . S
H1305 C1317 0.950 . S
H1306 C1314 0.950 . S
H1307 C1316 0.950 . S
H1308 C1318 0.950 . S
H1309 C1320 0.950 . S
H1310 C1322 0.950 . S
H1311 C1323 0.950 . S
C1312 H1304 0.950 . S
C1312 C1313 1.386 . S
C1312 C1314 1.391 . S
C1313 C1312 1.386 . S
C1313 C1317 1.393 . S
C1314 H1306 0.950 . S
C1314 C1312 1.391 . S
C1314 C1315 1.400 . S
C1315 C1314 1.400 . S
C1315 C1316 1.398 . S
C1315 C1321 1.491 . S
C1316 H1307 0.950 . S
C1316 C1315 1.398 . S
C1316 C1317 1.391 . S
C1317 H1305 0.950 . S
C1317 C1313 1.393 . S
C1317 C1316 1.391 . S
C1318 H1308 0.950 . S
C1318 C1319 1.386 . S
C1318 C1320 1.391 . S
C1319 C1318 1.386 . S
C1319 C1323 1.393 . S
C1320 H1309 0.950 . S
C1320 C1318 1.391 . S
C1320 C1321 1.400 . S
C1321 C1315 1.491 . S
C1321 C1320 1.400 . S
C1321 C1322 1.398 . S
C1322 H1310 0.950 . S
C1322 C1321 1.398 . S
C1322 C1323 1.391 . S
C1323 H1311 0.950 . S
C1323 C1319 1.393 . S
C1323 C1322 1.391 . S
H1324 C1332 0.950 . S
H1325 C1337 0.950 . S
H1326 C1334 0.951 1_655 S
H1327 C1336 0.950 1_655 S
H1328 C1338 0.950 . S
H1329 C1340 0.950 . S
H1330 C1342 0.950 . S
H1331 C1343 0.950 . S
C1332 H1324 0.950 . S
C1332 C1333 1.386 . S
C1332 C1334 1.389 . S
C1333 C1332 1.386 . S
C1333 C1337 1.393 . S
C1334 H1326 0.951 1_455 S
C1334 C1332 1.389 . S
C1334 C1335 1.401 1_455 S
C1335 C1334 1.401 1_655 S
C1335 C1336 1.398 1_655 S
C1335 C1341 1.491 . S
C1336 H1327 0.950 1_455 S
C1336 C1335 1.398 1_455 S
C1336 C1337 1.391 . S
C1337 H1325 0.950 . S
C1337 C1333 1.393 . S
C1337 C1336 1.391 . S
C1338 H1328 0.950 . S
C1338 C1339 1.386 . S
C1338 C1340 1.391 . S
C1339 C1338 1.386 . S
C1339 C1343 1.393 . S
C1340 H1329 0.950 . S
C1340 C1338 1.391 . S
C1340 C1341 1.400 . S
C1341 C1335 1.491 . S
C1341 C1340 1.400 . S
C1341 C1342 1.398 . S
C1342 H1330 0.950 . S
C1342 C1341 1.398 . S
C1342 C1343 1.391 . S
C1343 H1331 0.950 . S
C1343 C1339 1.393 . S
C1343 C1342 1.391 . S
H1344 C1352 0.950 . S
H1345 C1357 0.950 . S
H1346 C1354 0.950 . S
H1347 C1356 0.950 . S
H1348 C1358 0.950 . S
H1349 C1360 0.965 . S
H1350 C1362 0.950 1_455 S
H1351 C1363 0.950 . S
C1352 H1344 0.950 . S
C1352 C1353 1.386 . S
C1352 C1354 1.391 . S
C1353 C1352 1.386 . S
C1353 C1357 1.393 . S
C1354 H1346 0.950 . S
C1354 C1352 1.391 . S
C1354 C1355 1.400 . S
C1355 C1354 1.400 . S
C1355 C1356 1.398 . S
C1355 C1361 1.491 . S
C1356 H1347 0.950 . S
C1356 C1355 1.398 . S
C1356 C1357 1.391 . S
C1357 H1345 0.950 . S
C1357 C1353 1.393 . S
C1357 C1356 1.391 . S
C1358 H1348 0.950 . S
C1358 C1359 1.386 . S
C1358 C1360 1.364 1_655 S
C1359 C1358 1.386 . S
C1359 C1363 1.393 . S
C1360 H1349 0.965 . S
C1360 C1358 1.364 1_455 S
C1360 C1361 1.412 . S
C1361 C1355 1.491 . S
C1361 C1360 1.412 . S
C1361 C1362 1.398 1_455 S
C1362 H1350 0.950 1_655 S
C1362 C1361 1.398 1_655 S
C1362 C1363 1.391 . S
C1363 H1351 0.950 . S
C1363 C1359 1.393 . S
C1363 C1362 1.391 . S
H1364 C1372 0.950 . S
H1365 C1377 0.950 . S
H1366 C1374 0.950 . S
H1367 C1376 0.950 . S
H1368 C1378 0.950 . S
H1369 C1380 0.950 . S
H1370 C1382 0.950 . S
H1371 C1383 0.950 . S
C1372 H1364 0.950 . S
C1372 C1373 1.386 . S
C1372 C1374 1.391 . S
C1373 C1372 1.386 . S
C1373 C1377 1.393 . S
C1374 H1366 0.950 . S
C1374 C1372 1.391 . S
C1374 C1375 1.400 . S
C1375 C1374 1.400 . S
C1375 C1376 1.398 . S
C1375 C1381 1.491 . S
C1376 H1367 0.950 . S
C1376 C1375 1.398 . S
C1376 C1377 1.391 . S
C1377 H1365 0.950 . S
C1377 C1373 1.393 . S
C1377 C1376 1.391 . S
C1378 H1368 0.950 . S
C1378 C1379 1.386 . S
C1378 C1380 1.391 . S
C1379 C1378 1.386 . S
C1379 C1383 1.393 . S
C1380 H1369 0.950 . S
C1380 C1378 1.391 . S
C1380 C1381 1.400 . S
C1381 C1375 1.491 . S
C1381 C1380 1.400 . S
C1381 C1382 1.398 . S
C1382 H1370 0.950 . S
C1382 C1381 1.398 . S
C1382 C1383 1.391 . S
C1383 H1371 0.950 . S
C1383 C1379 1.393 . S
C1383 C1382 1.391 . S
H1384 C1392 0.950 . S
H1385 C1397 0.950 . S
H1386 C1394 0.950 . S
H1387 C1396 0.950 . S
H1388 C1398 0.950 . S
H1389 C1400 0.950 1_455 S
H1390 C1402 0.972 . S
H1391 C1403 0.950 . S
C1392 H1384 0.950 . S
C1392 C1393 1.386 . S
C1392 C1394 1.391 . S
C1393 C1392 1.386 . S
C1393 C1397 1.393 . S
C1394 H1386 0.950 . S
C1394 C1392 1.391 . S
C1394 C1395 1.400 . S
C1395 C1394 1.400 . S
C1395 C1396 1.398 . S
C1395 C1401 1.491 . S
C1396 H1387 0.950 . S
C1396 C1395 1.398 . S
C1396 C1397 1.391 . S
C1397 H1385 0.950 . S
C1397 C1393 1.393 . S
C1397 C1396 1.391 . S
C1398 H1388 0.950 . S
C1398 C1399 1.386 . S
C1398 C1400 1.391 . S
C1399 C1398 1.386 . S
C1399 C1403 1.393 . S
C1400 H1389 0.950 1_655 S
C1400 C1398 1.391 . S
C1400 C1401 1.400 1_655 S
C1401 C1395 1.491 . S
C1401 C1400 1.400 1_455 S
C1401 C1402 1.415 . S
C1402 H1390 0.972 . S
C1402 C1401 1.415 . S
C1402 C1403 1.353 1_455 S
C1403 H1391 0.950 . S
C1403 C1399 1.393 . S
C1403 C1402 1.353 1_655 S
H1404 C1412 0.950 . S
H1405 C1417 0.950 . S
H1406 C1414 0.950 . S
H1407 C1416 0.950 . S
H1408 C1418 0.950 . S
H1409 C1420 0.950 . S
H1410 C1422 0.950 . S
H1411 C1423 0.950 . S
C1412 H1404 0.950 . S
C1412 C1413 1.386 . S
C1412 C1414 1.391 . S
C1413 C1412 1.386 . S
C1413 C1417 1.393 . S
C1414 H1406 0.950 . S
C1414 C1412 1.391 . S
C1414 C1415 1.400 . S
C1415 C1414 1.400 . S
C1415 C1416 1.398 . S
C1415 C1421 1.491 . S
C1416 H1407 0.950 . S
C1416 C1415 1.398 . S
C1416 C1417 1.391 . S
C1417 H1405 0.950 . S
C1417 C1413 1.393 . S
C1417 C1416 1.391 . S
C1418 H1408 0.950 . S
C1418 C1419 1.386 . S
C1418 C1420 1.391 . S
C1419 C1418 1.386 . S
C1419 C1423 1.393 . S
C1420 H1409 0.950 . S
C1420 C1418 1.391 . S
C1420 C1421 1.400 . S
C1421 C1415 1.491 . S
C1421 C1420 1.400 . S
C1421 C1422 1.398 . S
C1422 H1410 0.950 . S
C1422 C1421 1.398 . S
C1422 C1423 1.391 . S
C1423 H1411 0.950 . S
C1423 C1419 1.393 . S
C1423 C1422 1.391 . S
H1424 C1432 0.950 . S
H1425 C1437 0.950 . S
H1426 C1434 0.950 . S
H1427 C1436 0.950 . S
H1428 C1438 0.950 . S
H1429 C1440 0.950 . S
H1430 C1442 0.950 . S
H1431 C1443 0.950 . S
C1432 H1424 0.950 . S
C1432 C1433 1.386 . S
C1432 C1434 1.391 . S
C1433 C1432 1.386 . S
C1433 C1437 1.393 . S
C1434 H1426 0.950 . S
C1434 C1432 1.391 . S
C1434 C1435 1.400 . S
C1435 C1434 1.400 . S
C1435 C1436 1.398 . S
C1435 C1441 1.491 . S
C1436 H1427 0.950 . S
C1436 C1435 1.398 . S
C1436 C1437 1.391 . S
C1437 H1425 0.950 . S
C1437 C1433 1.393 . S
C1437 C1436 1.391 . S
C1438 H1428 0.950 . S
C1438 C1439 1.386 . S
C1438 C1440 1.391 . S
C1439 C1438 1.386 . S
C1439 C1443 1.393 . S
C1440 H1429 0.950 . S
C1440 C1438 1.391 . S
C1440 C1441 1.400 . S
C1441 C1435 1.491 . S
C1441 C1440 1.400 . S
C1441 C1442 1.398 . S
C1442 H1430 0.950 . S
C1442 C1441 1.398 . S
C1442 C1443 1.391 . S
C1443 H1431 0.950 . S
C1443 C1439 1.393 . S
C1443 C1442 1.391 . S
H1444 C1452 0.950 . S
H1445 C1457 0.950 . S
H1446 C1454 0.950 . S
H1447 C1456 0.950 . S
H1448 C1458 0.950 . S
H1449 C1460 0.950 . S
H1450 C1462 0.950 . S
H1451 C1463 0.950 . S
C1452 H1444 0.950 . S
C1452 C1453 1.386 . S
C1452 C1454 1.391 . S
C1453 C1452 1.386 . S
C1453 C1457 1.393 . S
C1454 H1446 0.950 . S
C1454 C1452 1.391 . S
C1454 C1455 1.400 . S
C1455 C1454 1.400 . S
C1455 C1456 1.398 . S
C1455 C1461 1.491 . S
C1456 H1447 0.950 . S
C1456 C1455 1.398 . S
C1456 C1457 1.391 . S
C1457 H1445 0.950 . S
C1457 C1453 1.393 . S
C1457 C1456 1.391 . S
C1458 H1448 0.950 . S
C1458 C1459 1.386 . S
C1458 C1460 1.391 . S
C1459 C1458 1.386 . S
C1459 C1463 1.393 . S
C1460 H1449 0.950 . S
C1460 C1458 1.391 . S
C1460 C1461 1.400 . S
C1461 C1455 1.491 . S
C1461 C1460 1.400 . S
C1461 C1462 1.398 . S
C1462 H1450 0.950 . S
C1462 C1461 1.398 . S
C1462 C1463 1.391 . S
C1463 H1451 0.950 . S
C1463 C1459 1.393 . S
C1463 C1462 1.391 . S
H1464 C1472 0.950 . S
H1465 C1477 0.950 . S
H1466 C1474 0.950 . S
H1467 C1476 0.950 . S
H1468 C1478 0.950 . S
H1469 C1480 0.950 . S
H1470 C1482 0.950 . S
H1471 C1483 0.950 . S
C1472 H1464 0.950 . S
C1472 C1473 1.386 . S
C1472 C1474 1.391 . S
C1473 C1472 1.386 . S
C1473 C1477 1.393 . S
C1474 H1466 0.950 . S
C1474 C1472 1.391 . S
C1474 C1475 1.400 . S
C1475 C1474 1.400 . S
C1475 C1476 1.398 . S
C1475 C1481 1.491 . S
C1476 H1467 0.950 . S
C1476 C1475 1.398 . S
C1476 C1477 1.391 . S
C1477 H1465 0.950 . S
C1477 C1473 1.393 . S
C1477 C1476 1.391 . S
C1478 H1468 0.950 . S
C1478 C1479 1.386 . S
C1478 C1480 1.391 . S
C1479 C1478 1.386 . S
C1479 C1483 1.393 . S
C1480 H1469 0.950 . S
C1480 C1478 1.391 . S
C1480 C1481 1.400 . S
C1481 C1475 1.491 . S
C1481 C1480 1.400 . S
C1481 C1482 1.398 . S
C1482 H1470 0.950 . S
C1482 C1481 1.398 . S
C1482 C1483 1.391 . S
C1483 H1471 0.950 . S
C1483 C1479 1.393 . S
C1483 C1482 1.391 . S
H1484 C1492 0.950 . S
H1485 C1497 0.950 . S
H1486 C1494 0.950 . S
H1487 C1496 0.950 . S
H1488 C1498 0.950 . S
H1489 C1500 0.950 . S
H1490 C1502 0.950 . S
H1491 C1503 0.950 . S
C1492 H1484 0.950 . S
C1492 C1493 1.386 . S
C1492 C1494 1.391 . S
C1493 C1492 1.386 . S
C1493 C1497 1.393 . S
C1494 H1486 0.950 . S
C1494 C1492 1.391 . S
C1494 C1495 1.400 . S
C1495 C1494 1.400 . S
C1495 C1496 1.398 . S
C1495 C1501 1.491 . S
C1496 H1487 0.950 . S
C1496 C1495 1.398 . S
C1496 C1497 1.391 . S
C1497 H1485 0.950 . S
C1497 C1493 1.393 . S
C1497 C1496 1.391 . S
C1498 H1488 0.950 . S
C1498 C1499 1.386 . S
C1498 C1500 1.391 . S
C1499 C1498 1.386 . S
C1499 C1503 1.393 . S
C1500 H1489 0.950 . S
C1500 C1498 1.391 . S
C1500 C1501 1.400 . S
C1501 C1495 1.491 . S
C1501 C1500 1.400 . S
C1501 C1502 1.398 . S
C1502 H1490 0.950 . S
C1502 C1501 1.398 . S
C1502 C1503 1.391 . S
C1503 H1491 0.950 . S
C1503 C1499 1.393 . S
C1503 C1502 1.391 . S
H1504 C1512 0.950 . S
H1505 C1517 0.950 . S
H1506 C1514 0.950 . S
H1507 C1516 0.950 . S
H1508 C1518 0.950 . S
H1509 C1520 0.950 . S
H1510 C1522 0.950 . S
H1511 C1523 0.950 . S
C1512 H1504 0.950 . S
C1512 C1513 1.386 . S
C1512 C1514 1.391 . S
C1513 C1512 1.386 . S
C1513 C1517 1.393 . S
C1514 H1506 0.950 . S
C1514 C1512 1.391 . S
C1514 C1515 1.400 . S
C1515 C1514 1.400 . S
C1515 C1516 1.398 . S
C1515 C1521 1.491 . S
C1516 H1507 0.950 . S
C1516 C1515 1.398 . S
C1516 C1517 1.391 . S
C1517 H1505 0.950 . S
C1517 C1513 1.393 . S
C1517 C1516 1.391 . S
C1518 H1508 0.950 . S
C1518 C1519 1.386 . S
C1518 C1520 1.391 . S
C1519 C1518 1.386 . S
C1519 C1523 1.393 . S
C1520 H1509 0.950 . S
C1520 C1518 1.391 . S
C1520 C1521 1.400 . S
C1521 C1515 1.491 . S
C1521 C1520 1.400 . S
C1521 C1522 1.398 . S
C1522 H1510 0.950 . S
C1522 C1521 1.398 . S
C1522 C1523 1.391 . S
C1523 H1511 0.950 . S
C1523 C1519 1.393 . S
C1523 C1522 1.391 . S
H1524 C1532 0.950 . S
H1525 C1537 0.950 . S
H1526 C1534 0.950 . S
H1527 C1536 0.950 . S
H1528 C1538 0.950 . S
H1529 C1540 0.950 . S
H1530 C1542 0.950 . S
H1531 C1543 0.950 . S
C1532 H1524 0.950 . S
C1532 C1533 1.386 . S
C1532 C1534 1.391 . S
C1533 C1532 1.386 . S
C1533 C1537 1.393 . S
C1534 H1526 0.950 . S
C1534 C1532 1.391 . S
C1534 C1535 1.400 . S
C1535 C1534 1.400 . S
C1535 C1536 1.398 . S
C1535 C1541 1.491 . S
C1536 H1527 0.950 . S
C1536 C1535 1.398 . S
C1536 C1537 1.391 . S
C1537 H1525 0.950 . S
C1537 C1533 1.393 . S
C1537 C1536 1.391 . S
C1538 H1528 0.950 . S
C1538 C1539 1.386 . S
C1538 C1540 1.391 . S
C1539 C1538 1.386 . S
C1539 C1543 1.393 . S
C1540 H1529 0.950 . S
C1540 C1538 1.391 . S
C1540 C1541 1.400 . S
C1541 C1535 1.491 . S
C1541 C1540 1.400 . S
C1541 C1542 1.398 . S
C1542 H1530 0.950 . S
C1542 C1541 1.398 . S
C1542 C1543 1.391 . S
C1543 H1531 0.950 . S
C1543 C1539 1.393 . S
C1543 C1542 1.391 . S
H1544 C1552 0.950 . S
H1545 C1557 0.950 . S
H1546 C1554 0.950 . S
H1547 C1556 0.950 . S
H1548 C1558 0.950 . S
H1549 C1560 0.950 . S
H1550 C1562 0.950 . S
H1551 C1563 0.950 . S
C1552 H1544 0.950 . S
C1552 C1553 1.386 . S
C1552 C1554 1.391 . S
C1553 C1552 1.386 . S
C1553 C1557 1.393 . S
C1554 H1546 0.950 . S
C1554 C1552 1.391 . S
C1554 C1555 1.400 . S
C1555 C1554 1.400 . S
C1555 C1556 1.398 . S
C1555 C1561 1.491 . S
C1556 H1547 0.950 . S
C1556 C1555 1.398 . S
C1556 C1557 1.391 . S
C1557 H1545 0.950 . S
C1557 C1553 1.393 . S
C1557 C1556 1.391 . S
C1558 H1548 0.950 . S
C1558 C1559 1.386 . S
C1558 C1560 1.391 . S
C1559 C1558 1.386 . S
C1559 C1563 1.393 . S
C1560 H1549 0.950 . S
C1560 C1558 1.391 . S
C1560 C1561 1.400 . S
C1561 C1555 1.491 . S
C1561 C1560 1.400 . S
C1561 C1562 1.398 . S
C1562 H1550 0.950 . S
C1562 C1561 1.398 . S
C1562 C1563 1.391 . S
C1563 H1551 0.950 . S
C1563 C1559 1.393 . S
C1563 C1562 1.391 . S
H1564 C1572 0.950 . S
H1565 C1577 0.950 . S
H1566 C1574 0.950 . S
H1567 C1576 0.950 . S
H1568 C1578 0.950 . S
H1569 C1580 0.950 . S
H1570 C1582 0.950 . S
H1571 C1583 0.950 . S
C1572 H1564 0.950 . S
C1572 C1573 1.386 . S
C1572 C1574 1.391 . S
C1573 C1572 1.386 . S
C1573 C1577 1.393 . S
C1574 H1566 0.950 . S
C1574 C1572 1.391 . S
C1574 C1575 1.400 . S
C1575 C1574 1.400 . S
C1575 C1576 1.398 . S
C1575 C1581 1.491 . S
C1576 H1567 0.950 . S
C1576 C1575 1.398 . S
C1576 C1577 1.391 . S
C1577 H1565 0.950 . S
C1577 C1573 1.393 . S
C1577 C1576 1.391 . S
C1578 H1568 0.950 . S
C1578 C1579 1.386 . S
C1578 C1580 1.391 . S
C1579 C1578 1.386 . S
C1579 C1583 1.393 . S
C1580 H1569 0.950 . S
C1580 C1578 1.391 . S
C1580 C1581 1.400 . S
C1581 C1575 1.491 . S
C1581 C1580 1.400 . S
C1581 C1582 1.398 . S
C1582 H1570 0.950 . S
C1582 C1581 1.398 . S
C1582 C1583 1.391 . S
C1583 H1571 0.950 . S
C1583 C1579 1.393 . S
C1583 C1582 1.391 . S
C953 C3 1.626 . S
C959 C713 1.624 . S
C973 C772 1.631 . S
C979 C62 1.622 . S
C993 C121 1.620 . S
C999 C831 1.629 . S
C1013 C890 1.633 . S
C1019 C180 1.625 . S
C1033 C475 1.629 . S
C1039 C241 1.632 . S
C1053 C300 1.625 . S
C1059 C534 1.619 . S
C1073 C593 1.621 . S
C1079 C359 1.624 . S
C1093 C418 1.633 . S
C1099 C652 1.625 . S
C1113 C33 1.789 . S
C1119 C151 1.789 . S
C1133 C92 1.792 . S
C1139 C210 1.791 . S
C1153 C269 1.598 . S
C1159 C387 1.596 . S
C1173 C328 1.593 . S
C1179 C446 1.591 . S
C1193 C623 1.777 . S
C1199 C505 1.777 . S
C1213 C564 1.778 . S
C1219 C682 1.779 . S
C1233 C859 1.589 . S
C1239 C741 1.589 . S
C1253 C800 1.595 . S
C1259 C918 1.597 . S
C1273 C406 1.666 . S
C1279 C52 1.675 . S
C1293 C465 1.667 . S
C1299 C111 1.669 . S
C1313 C170 1.675 . S
C1319 C288 1.664 . S
C1333 C229 1.665 . S
C1339 C347 1.658 . S
C1353 C878 1.659 . S
C1359 C524 1.672 . S
C1373 C583 1.676 . S
C1379 C937 1.666 . S
C1393 C760 1.666 . S
C1399 C642 1.669 . S
C1413 C701 1.675 . S
C1419 C819 1.669 . S
C1433 C5 1.860 . S
C1439 C182 1.862 . S
C1453 C123 1.863 . S
C1459 C64 1.861 . S
C1473 C239 1.266 . S
C1479 C416 1.254 . S
C1493 C298 1.255 . S
C1499 C357 1.261 . S
C1513 C654 1.858 . S
C1519 C477 1.860 . S
C1533 C536 1.862 . S
C1539 C595 1.863 . S
C1553 C888 1.270 . S
C1559 C711 1.260 . S
C1573 C770 1.263 . S
C1579 C829 1.254 . S
