# Generated by pormake.
# Topology smg, (6)-cn, num edge types: 1
# Building blocks:
#     Node 0, Type 0, BuildingBlock: OJICUG_clean_sbu_0, # of connection points: 6
#     Node 1, Type 0, BuildingBlock: OJICUG_clean_sbu_0, # of connection points: 6
#     Node 2, Type 0, BuildingBlock: OJICUG_clean_sbu_0, # of connection points: 6
#     Node 3, Type 0, BuildingBlock: OJICUG_clean_sbu_0, # of connection points: 6
#     Node 4, Type 0, BuildingBlock: OJICUG_clean_sbu_0, # of connection points: 6
#     Node 5, Type 0, BuildingBlock: OJICUG_clean_sbu_0, # of connection points: 6
#     Node 6, Type 0, BuildingBlock: OJICUG_clean_sbu_0, # of connection points: 6
#     Node 7, Type 0, BuildingBlock: OJICUG_clean_sbu_0, # of connection points: 6
#     Node 8, Type 0, BuildingBlock: OJICUG_clean_sbu_0, # of connection points: 6
#     Node 9, Type 0, BuildingBlock: OJICUG_clean_sbu_0, # of connection points: 6
#     Node 10, Type 0, BuildingBlock: OJICUG_clean_sbu_0, # of connection points: 6
#     Node 11, Type 0, BuildingBlock: OJICUG_clean_sbu_0, # of connection points: 6
#     Node 12, Type 0, BuildingBlock: OJICUG_clean_sbu_0, # of connection points: 6
#     Node 13, Type 0, BuildingBlock: OJICUG_clean_sbu_0, # of connection points: 6
#     Node 14, Type 0, BuildingBlock: OJICUG_clean_sbu_0, # of connection points: 6
#     Node 15, Type 0, BuildingBlock: OJICUG_clean_sbu_0, # of connection points: 6
#     Node 16, Type 0, BuildingBlock: OJICUG_clean_sbu_0, # of connection points: 6
#     Node 17, Type 0, BuildingBlock: OJICUG_clean_sbu_0, # of connection points: 6
#     Edge 18, Type (0, 0), BuildingBlock: EZIPEK_clean_linker_0, # of connection points: 2
#     Edge 19, Type (0, 0), BuildingBlock: EZIPEK_clean_linker_0, # of connection points: 2
#     Edge 20, Type (0, 0), BuildingBlock: EZIPEK_clean_linker_0, # of connection points: 2
#     Edge 21, Type (0, 0), BuildingBlock: EZIPEK_clean_linker_0, # of connection points: 2
#     Edge 22, Type (0, 0), BuildingBlock: EZIPEK_clean_linker_0, # of connection points: 2
#     Edge 23, Type (0, 0), BuildingBlock: EZIPEK_clean_linker_0, # of connection points: 2
#     Edge 24, Type (0, 0), BuildingBlock: EZIPEK_clean_linker_0, # of connection points: 2
#     Edge 25, Type (0, 0), BuildingBlock: EZIPEK_clean_linker_0, # of connection points: 2
#     Edge 26, Type (0, 0), BuildingBlock: EZIPEK_clean_linker_0, # of connection points: 2
#     Edge 27, Type (0, 0), BuildingBlock: EZIPEK_clean_linker_0, # of connection points: 2
#     Edge 28, Type (0, 0), BuildingBlock: EZIPEK_clean_linker_0, # of connection points: 2
#     Edge 29, Type (0, 0), BuildingBlock: EZIPEK_clean_linker_0, # of connection points: 2
#     Edge 30, Type (0, 0), BuildingBlock: EZIPEK_clean_linker_0, # of connection points: 2
#     Edge 31, Type (0, 0), BuildingBlock: EZIPEK_clean_linker_0, # of connection points: 2
#     Edge 32, Type (0, 0), BuildingBlock: EZIPEK_clean_linker_0, # of connection points: 2
#     Edge 33, Type (0, 0), BuildingBlock: EZIPEK_clean_linker_0, # of connection points: 2
#     Edge 34, Type (0, 0), BuildingBlock: EZIPEK_clean_linker_0, # of connection points: 2
#     Edge 35, Type (0, 0), BuildingBlock: EZIPEK_clean_linker_0, # of connection points: 2
#     Edge 36, Type (0, 0), BuildingBlock: EZIPEK_clean_linker_0, # of connection points: 2
#     Edge 37, Type (0, 0), BuildingBlock: EZIPEK_clean_linker_0, # of connection points: 2
#     Edge 38, Type (0, 0), BuildingBlock: EZIPEK_clean_linker_0, # of connection points: 2
#     Edge 39, Type (0, 0), BuildingBlock: EZIPEK_clean_linker_0, # of connection points: 2
#     Edge 40, Type (0, 0), BuildingBlock: EZIPEK_clean_linker_0, # of connection points: 2
#     Edge 41, Type (0, 0), BuildingBlock: EZIPEK_clean_linker_0, # of connection points: 2
#     Edge 42, Type (0, 0), BuildingBlock: EZIPEK_clean_linker_0, # of connection points: 2
#     Edge 43, Type (0, 0), BuildingBlock: EZIPEK_clean_linker_0, # of connection points: 2
#     Edge 44, Type (0, 0), BuildingBlock: EZIPEK_clean_linker_0, # of connection points: 2
#     Edge 45, Type (0, 0), BuildingBlock: EZIPEK_clean_linker_0, # of connection points: 2
#     Edge 46, Type (0, 0), BuildingBlock: EZIPEK_clean_linker_0, # of connection points: 2
#     Edge 47, Type (0, 0), BuildingBlock: EZIPEK_clean_linker_0, # of connection points: 2
#     Edge 48, Type (0, 0), BuildingBlock: EZIPEK_clean_linker_0, # of connection points: 2
#     Edge 49, Type (0, 0), BuildingBlock: EZIPEK_clean_linker_0, # of connection points: 2
#     Edge 50, Type (0, 0), BuildingBlock: EZIPEK_clean_linker_0, # of connection points: 2
#     Edge 51, Type (0, 0), BuildingBlock: EZIPEK_clean_linker_0, # of connection points: 2
#     Edge 52, Type (0, 0), BuildingBlock: EZIPEK_clean_linker_0, # of connection points: 2
#     Edge 53, Type (0, 0), BuildingBlock: EZIPEK_clean_linker_0, # of connection points: 2
#     Edge 54, Type (0, 0), BuildingBlock: EZIPEK_clean_linker_0, # of connection points: 2
#     Edge 55, Type (0, 0), BuildingBlock: EZIPEK_clean_linker_0, # of connection points: 2
#     Edge 56, Type (0, 0), BuildingBlock: EZIPEK_clean_linker_0, # of connection points: 2
#     Edge 57, Type (0, 0), BuildingBlock: EZIPEK_clean_linker_0, # of connection points: 2
#     Edge 58, Type (0, 0), BuildingBlock: EZIPEK_clean_linker_0, # of connection points: 2
#     Edge 59, Type (0, 0), BuildingBlock: EZIPEK_clean_linker_0, # of connection points: 2
#     Edge 60, Type (0, 0), BuildingBlock: EZIPEK_clean_linker_0, # of connection points: 2
#     Edge 61, Type (0, 0), BuildingBlock: EZIPEK_clean_linker_0, # of connection points: 2
#     Edge 62, Type (0, 0), BuildingBlock: EZIPEK_clean_linker_0, # of connection points: 2
#     Edge 63, Type (0, 0), BuildingBlock: EZIPEK_clean_linker_0, # of connection points: 2
#     Edge 64, Type (0, 0), BuildingBlock: EZIPEK_clean_linker_0, # of connection points: 2
#     Edge 65, Type (0, 0), BuildingBlock: EZIPEK_clean_linker_0, # of connection points: 2
#     Edge 66, Type (0, 0), BuildingBlock: EZIPEK_clean_linker_0, # of connection points: 2
#     Edge 67, Type (0, 0), BuildingBlock: EZIPEK_clean_linker_0, # of connection points: 2
#     Edge 68, Type (0, 0), BuildingBlock: EZIPEK_clean_linker_0, # of connection points: 2
#     Edge 69, Type (0, 0), BuildingBlock: EZIPEK_clean_linker_0, # of connection points: 2
#     Edge 70, Type (0, 0), BuildingBlock: EZIPEK_clean_linker_0, # of connection points: 2
#     Edge 71, Type (0, 0), BuildingBlock: EZIPEK_clean_linker_0, # of connection points: 2
# Relax obj value: 0.210
# Max RMSD: 0.238
# Mean RMSD: 0.238
data_MOF--net-smg--node1-OJICUG_clean_sbu_0--edge1-EZIPEK_clean_linker_0
_symmetry_space_group_name_H-M    P1
_symmetry_Int_Tables_number       1
_symmetry_cell_setting            triclinic
loop_
_symmetry_equiv_pos_as_xyz
'x, y, z'
_cell_length_a     34.20658
_cell_length_b     34.289266
_cell_length_c     34.275184
_cell_angle_alpha  90.114753
_cell_angle_beta   90.146703
_cell_angle_gamma 120.02173
loop_
_atom_site_label
_atom_site_type_symbol
_atom_site_fract_x
_atom_site_fract_y
_atom_site_fract_z
_atom_type_partial_charge
Sc0 Sc 0.02152 0.66737 0.24601 0.0
Sc1 Sc 0.9565 0.5564 0.21909 0.0
Sc2 Sc 0.0615 0.5951 0.26393 0.0
O3 O 0.01362 0.60563 0.24218 0.0
C4 C 0.12079 0.69211 0.23255 0.0
C5 C 0.99287 0.64109 0.16136 0.0
C6 C 0.03128 0.5362 0.18565 0.0
C7 C 0.92097 0.61314 0.26038 0.0
C8 C 0.04271 0.64819 0.32957 0.0
C9 C 0.97056 0.50585 0.28991 0.0
O10 O 0.094 0.70217 0.24912 0.0
O11 O 0.96253 0.60195 0.17264 0.0
O12 O 0.05809 0.55656 0.21385 0.0
O13 O 0.95097 0.64577 0.24166 0.0
O14 O 0.06922 0.63588 0.31518 0.0
O15 O 0.947 0.50815 0.26243 0.0
O16 O 0.01793 0.6577 0.30828 0.0
O17 O 0.91781 0.57478 0.25765 0.0
O18 O 0.01206 0.53522 0.29556 0.0
O19 O 0.02298 0.67088 0.18372 0.0
O20 O 0.1126 0.65181 0.2319 0.0
O21 O 0.99248 0.53286 0.18257 0.0
Sc22 Sc 0.44647 0.39552 0.20839 0.0
Sc23 Sc 0.4144 0.46425 0.25723 0.0
Sc24 Sc 0.33771 0.3497 0.24804 0.0
O25 O 0.39944 0.40287 0.23833 0.0
C26 C 0.35832 0.34803 0.15707 0.0
C27 C 0.46701 0.49198 0.1794 0.0
C28 C 0.312 0.42452 0.23116 0.0
C29 C 0.50142 0.45462 0.27852 0.0
C30 C 0.39344 0.29996 0.24975 0.0
C31 C 0.36412 0.40116 0.32938 0.0
O32 O 0.40114 0.37182 0.15996 0.0
O33 O 0.43804 0.49322 0.20134 0.0
O34 O 0.30328 0.38438 0.23447 0.0
O35 O 0.49122 0.42015 0.2575 0.0
O36 O 0.36303 0.30682 0.26296 0.0
O37 O 0.39092 0.43905 0.31422 0.0
O38 O 0.42377 0.32693 0.22665 0.0
O39 O 0.48021 0.47655 0.27743 0.0
O40 O 0.34073 0.3652 0.30962 0.0
O41 O 0.47902 0.46263 0.18324 0.0
O42 O 0.33155 0.33343 0.18623 0.0
O43 O 0.35058 0.45815 0.23885 0.0
Sc44 Sc 0.6 0.03234 0.21533 0.0
Sc45 Sc 0.53017 0.93085 0.26212 0.0
Sc46 Sc 0.64177 0.96294 0.24046 0.0
O47 O 0.59046 0.9759 0.24014 0.0
C48 C 0.64493 0.99452 0.15569 0.0
C49 C 0.50216 0.96077 0.1845 0.0
C50 C 0.56243 0.86978 0.22096 0.0
C51 C 0.53571 0.02197 0.28758 0.0
C52 C 0.69378 0.06785 0.25453 0.0
C53 C 0.60401 0.94061 0.32491 0.0
O54 O 0.63895 0.02636 0.16795 0.0
O55 O 0.49173 0.93871 0.21614 0.0
O56 O 0.59915 0.89131 0.23947 0.0
O57 O 0.56078 0.0433 0.25881 0.0
O58 O 0.69398 0.03315 0.24187 0.0
O59 O 0.56326 0.92082 0.31241 0.0
O60 O 0.6589 0.07189 0.25167 0.0
O61 O 0.52456 0.9814 0.29582 0.0
O62 O 0.63823 0.96092 0.30283 0.0
O63 O 0.54144 0.99426 0.17883 0.0
O64 O 0.64286 0.96375 0.17778 0.0
O65 O 0.53115 0.87916 0.22525 0.0
Sc66 Sc 0.98874 0.33126 0.73932 0.0
Sc67 Sc 0.04367 0.44572 0.76543 0.0
Sc68 Sc 0.93659 0.39557 0.72256 0.0
O69 O 0.98979 0.39089 0.74225 0.0
C70 C 0.9466 0.33644 0.65762 0.0
C71 C 0.08912 0.39904 0.717 0.0
C72 C 0.02179 0.48912 0.69541 0.0
C73 C 0.03104 0.36939 0.82298 0.0
C74 C 0.88962 0.30042 0.76535 0.0
C75 C 0.96034 0.45388 0.79823 0.0
O76 O 0.95973 0.31656 0.68111 0.0
O77 O 0.09199 0.43131 0.73757 0.0
O78 O 0.97954 0.46121 0.69665 0.0
O79 O 0.01754 0.33868 0.79708 0.0
O80 O 0.88704 0.33141 0.74727 0.0
O81 O 0.00242 0.46765 0.79591 0.0
O82 O 0.92466 0.29691 0.76627 0.0
O83 O 0.03963 0.40913 0.8161 0.0
O84 O 0.93115 0.42446 0.77561 0.0
O85 O 0.05324 0.36153 0.71284 0.0
O86 O 0.93885 0.36739 0.66802 0.0
O87 O 0.05067 0.48626 0.71643 0.0
Sc88 Sc 0.56078 0.61587 0.77884 0.0
Sc89 Sc 0.58668 0.54168 0.73084 0.0
Sc90 Sc 0.67041 0.65469 0.74258 0.0
O91 O 0.60599 0.60436 0.75034 0.0
C92 C 0.62038 0.71035 0.73568 0.0
C93 C 0.50332 0.55673 0.70896 0.0
C94 C 0.64377 0.60397 0.6605 0.0
C95 C 0.53135 0.51615 0.80759 0.0
C96 C 0.64844 0.66065 0.83221 0.0
C97 C 0.68572 0.57273 0.76102 0.0
O98 O 0.5873 0.68362 0.75678 0.0
O99 O 0.52365 0.53408 0.7091 0.0
O100 O 0.66837 0.63876 0.68124 0.0
O101 O 0.52512 0.54965 0.80554 0.0
O102 O 0.67628 0.67219 0.80397 0.0
O103 O 0.64667 0.54176 0.75097 0.0
O104 O 0.60566 0.63947 0.82798 0.0
O105 O 0.55863 0.51186 0.78566 0.0
O106 O 0.69835 0.6141 0.75852 0.0
O107 O 0.51477 0.59124 0.73029 0.0
O108 O 0.65171 0.70296 0.72602 0.0
O109 O 0.61362 0.5667 0.67442 0.0
Sc110 Sc 0.404 0.9665 0.76569 0.0
Sc111 Sc 0.4665 0.07498 0.7252 0.0
Sc112 Sc 0.34966 0.02658 0.73794 0.0
O113 O 0.40668 0.02256 0.74283 0.0
C114 C 0.31111 0.92316 0.71897 0.0
C115 C 0.47222 0.98724 0.69796 0.0
C116 C 0.39932 0.06211 0.65594 0.0
C117 C 0.49659 0.04679 0.80127 0.0
C118 C 0.34366 0.98735 0.82274 0.0
C119 C 0.41969 0.1275 0.76134 0.0
O120 O 0.34295 0.91975 0.73455 0.0
O121 O 0.48708 0.02966 0.69918 0.0
O122 O 0.3638 0.04456 0.67692 0.0
O123 O 0.46629 0.00543 0.79833 0.0
O124 O 0.33278 0.00813 0.79821 0.0
O125 O 0.45471 0.1267 0.75023 0.0
O126 O 0.36805 0.97011 0.81496 0.0
O127 O 0.49814 0.0772 0.77935 0.0
O128 O 0.38034 0.09435 0.75736 0.0
O129 O 0.44008 0.95902 0.71881 0.0
O130 O 0.30974 0.95926 0.71902 0.0
O131 O 0.43884 0.07656 0.6695 0.0
Sc132 Sc 0.67889 0.00254 0.56866 0.0
Sc133 Sc 0.6208 0.88513 0.56676 0.0
Sc134 Sc 0.733 0.94486 0.60146 0.0
O135 O 0.67774 0.9441 0.57904 0.0
C136 C 0.77985 0.03037 0.54676 0.0
C137 C 0.62994 0.94489 0.49306 0.0
C138 C 0.69979 0.86946 0.53607 0.0
C139 C 0.57969 0.94099 0.60197 0.0
C140 C 0.72472 0.01879 0.65235 0.0
C141 C 0.65295 0.86157 0.64628 0.0
O142 O 0.74698 0.03735 0.54884 0.0
O143 O 0.60739 0.90943 0.51309 0.0
O144 O 0.72941 0.89678 0.55983 0.0
O145 O 0.61057 0.97748 0.58759 0.0
O146 O 0.74021 0.9928 0.6446 0.0
O147 O 0.62514 0.85308 0.61866 0.0
O148 O 0.69959 0.02482 0.62844 0.0
O149 O 0.57945 0.90395 0.59972 0.0
O150 O 0.69367 0.89337 0.64395 0.0
O151 O 0.65984 0.98185 0.50844 0.0
O152 O 0.77972 -0.00324 0.56235 0.0
O153 O 0.65947 0.86218 0.5342 0.0
Sc154 Sc 0.00232 0.67365 0.57703 0.0
Sc155 Sc 0.11692 0.7332 0.55699 0.0
Sc156 Sc 0.06366 0.7889 0.59751 0.0
O157 O 0.06122 0.73257 0.5768 0.0
C158 C 0.96692 0.74145 0.55972 0.0
C159 C 0.03972 0.67392 0.49508 0.0
C160 C 0.12743 0.82353 0.52239 0.0
C161 C 0.06985 0.6401 0.59794 0.0
C162 C 0.00843 0.71321 0.66108 0.0
C163 C 0.15732 0.80215 0.62804 0.0
O164 O 0.96064 0.70264 0.5671 0.0
O165 O 0.07961 0.69011 0.5086 0.0
O166 O 0.10397 0.82828 0.54882 0.0
O167 O 0.03174 0.63222 0.58574 0.0
O168 O 0.025 0.75344 0.6485 0.0
O169 O 0.16028 0.77716 0.60227 0.0
O170 O 0.00024 0.67982 0.63922 0.0
O171 O 0.10547 0.6779 0.594 0.0
O172 O 0.12401 0.80861 0.63076 0.0
O173 O 0.00605 0.66809 0.51522 0.0
O174 O 0.0041 0.77714 0.56632 0.0
O175 O 0.13342 0.78984 0.51997 0.0
Sc176 Sc 0.34044 0.35549 0.57798 0.0
Sc177 Sc 0.27861 0.407 0.54742 0.0
Sc178 Sc 0.22215 0.29749 0.58525 0.0
O179 O 0.28049 0.3535 0.57047 0.0
C180 C 0.27813 0.25652 0.54556 0.0
C181 C 0.35131 0.40092 0.49477 0.0
C182 C 0.19404 0.32321 0.50584 0.0
C183 C 0.36555 0.45392 0.60313 0.0
C184 C 0.28622 0.30705 0.65529 0.0
C185 C 0.20624 0.37747 0.6139 0.0
O186 O 0.31619 0.29192 0.54971 0.0
O187 O 0.31943 0.40915 0.49997 0.0
O188 O 0.19122 0.29508 0.531 0.0
O189 O 0.37013 0.41959 0.60585 0.0
O190 O 0.24778 0.29544 0.64101 0.0
O191 O 0.23672 0.40797 0.59306 0.0
O192 O 0.32251 0.32592 0.63555 0.0
O193 O 0.33604 0.45563 0.58167 0.0
O194 O 0.19588 0.33631 0.61269 0.0
O195 O 0.36542 0.38549 0.52154 0.0
O196 O 0.24152 0.25229 0.55878 0.0
O197 O 0.22108 0.36531 0.51008 0.0
Sc198 Sc 0.71667 0.79196 0.09402 0.0
Sc199 Sc 0.61983 0.73039 0.0373 0.0
Sc200 Sc 0.67185 0.67891 0.08266 0.0
O201 O 0.66853 0.73415 0.07148 0.0
C202 C 0.77191 0.74626 0.07706 0.0
C203 C 0.70535 0.82111 0.00851 0.0
C204 C 0.66348 0.67877 -0.00659 0.0
C205 C 0.62555 0.79433 0.10768 0.0
C206 C 0.68448 0.71979 0.16307 0.0
C207 C 0.56792 0.63663 0.07606 0.0
O208 O 0.76791 0.77996 0.06814 0.0
O209 O 0.66664 0.78691 0.00299 0.0
O210 O 0.68609 0.67648 0.02212 0.0
O211 O 0.66543 0.80451 0.11822 0.0
O212 O 0.65807 0.68586 0.14208 0.0
O213 O 0.56916 0.6734 0.06887 0.0
O214 O 0.71373 0.7578 0.1487 0.0
O215 O 0.60599 0.77122 0.07718 0.0
O216 O 0.60208 0.63212 0.07127 0.0
O217 O 0.724 0.83013 0.04198 0.0
O218 O 0.74189 0.71637 0.09805 0.0
O219 O 0.6326 0.68937 -0.00345 0.0
Sc220 Sc 0.20887 0.92863 0.10171 0.0
Sc221 Sc 0.25842 0.87739 0.04685 0.0
Sc222 Sc 0.32199 0.99158 0.0734 0.0
O223 O 0.26297 0.93222 0.07408 0.0
C224 C 0.25208 0.02473 0.06216 0.0
C225 C 0.16197 0.86836 0.02723 0.0
C226 C 0.31098 0.95638 0.98595 0.0
C227 C 0.20482 0.83667 0.12616 0.0
C228 C 0.29136 0.98587 0.16024 0.0
C229 C 0.35774 0.92247 0.08098 0.0
O230 O 0.21737 0.988 0.07181 0.0
O231 O 0.19358 0.85987 0.02033 0.0
O232 O 0.32345 0.9882 0.01073 0.0
O233 O 0.19471 0.86736 0.13192 0.0
O234 O 0.32301 -0.00235 0.13572 0.0
O235 O 0.32195 0.88759 0.06972 0.0
O236 O 0.2497 0.96524 0.15114 0.0
O237 O 0.22737 0.83621 0.09694 0.0
O238 O 0.36178 0.9611 0.08126 0.0
O239 O 0.16221 0.89149 0.05612 0.0
O240 O 0.29185 0.03205 0.06624 0.0
O241 O 0.29063 0.91493 -0.00479 0.0
Sc242 Sc 0.06679 0.28255 0.10957 0.0
Sc243 Sc 0.12339 0.38065 0.05382 0.0
Sc244 Sc 0.00776 0.33417 0.07211 0.0
O245 O 0.06587 0.33249 0.07847 0.0
C246 C 0.97005 0.22976 0.06882 0.0
C247 C 0.1208 0.28717 0.03439 0.0
C248 C 0.05072 0.36036 0.98778 0.0
C249 C 0.16317 0.36745 0.13204 0.0
C250 C 0.01206 0.31384 0.1621 0.0
C251 C 0.07859 0.43734 0.0843 0.0
O252 O 0.00075 0.2304 0.09012 0.0
O253 O 0.1383 0.32988 0.03131 0.0
O254 O 0.01696 0.34659 0.01035 0.0
O255 O 0.13394 0.32573 0.13407 0.0
O256 O -0.00555 0.32345 0.13364 0.0
O257 O 0.11306 0.43538 0.07314 0.0
O258 O 0.0399 0.29973 0.15849 0.0
O259 O 0.16178 0.39283 0.10605 0.0
O260 O 0.03922 0.4036 0.08497 0.0
O261 O 0.09265 0.26414 0.06068 0.0
O262 O 0.96958 0.26477 0.0583 0.0
O263 O 0.09048 0.37348 -0.00034 0.0
Sc264 Sc 0.30167 0.32004 0.90757 0.0
Sc265 Sc 0.26591 0.2067 0.88443 0.0
Sc266 Sc 0.36399 0.26994 0.94082 0.0
O267 O 0.31055 0.26555 0.91101 0.0
C268 C 0.40763 0.36629 0.8998 0.0
C269 C 0.27823 0.27985 0.82158 0.0
C270 C 0.3617 0.21478 0.86542 0.0
C271 C 0.20182 0.24024 0.92094 0.0
C272 C 0.33075 0.32224 -0.00393 0.0
C273 C 0.28501 0.16987 0.96197 0.0
O274 O 0.37043 0.36474 0.89349 0.0
O275 O 0.26886 0.24063 0.83169 0.0
O276 O 0.3831 0.24216 0.89301 0.0
O277 O 0.23238 0.28124 0.92174 0.0
O278 O 0.34896 0.29823 0.99045 0.0
O279 O 0.2596 0.16614 0.93364 0.0
O280 O 0.31367 0.33436 0.96908 0.0
O281 O 0.20781 0.20904 0.90735 0.0
O282 O 0.32381 0.20426 0.96765 0.0
O283 O 0.28827 0.31165 0.84576 0.0
O284 O 0.41114 0.33569 0.9176 0.0
O285 O 0.31944 0.19808 0.85972 0.0
Sc286 Sc 0.79279 0.07047 0.88928 0.0
Sc287 Sc 0.73281 0.10954 0.94367 0.0
Sc288 Sc 0.67619 0.0011 0.90156 0.0
O289 O 0.73373 0.06027 0.91138 0.0
C290 C 0.72472 0.02521 0.81849 0.0
C291 C 0.79439 0.16376 0.8741 0.0
C292 C 0.63831 0.06798 0.89936 0.0
C293 C 0.82717 0.11873 0.96945 0.0
C294 C 0.7464 0.96777 0.91453 0.0
C295 C 0.67521 0.02121 -0.0073 0.0
O296 O 0.76371 0.05013 0.83289 0.0
O297 O 0.763 0.15703 0.89754 0.0
O298 O 0.6382 0.03283 0.88813 0.0
O299 O 0.82653 0.09154 0.94416 0.0
O300 O 0.70697 0.96213 0.91435 0.0
O301 O 0.70268 0.06331 0.99065 0.0
O302 O 0.78098 0.00418 0.90412 0.0
O303 O 0.79799 0.13134 0.9704 0.0
O304 O 0.65955 -0.00494 0.96315 0.0
O305 O 0.8113 0.13812 0.87131 0.0
O306 O 0.6894 0.00294 0.83918 0.0
O307 O 0.66824 0.09722 0.92175 0.0
Sc308 Sc 0.91659 0.70847 0.88823 0.0
Sc309 Sc 0.8737 0.60718 0.94084 0.0
Sc310 Sc 0.98676 0.66428 0.91102 0.0
O311 O 0.92531 0.65963 0.91296 0.0
C312 C 0.9773 0.69187 0.82641 0.0
C313 C 0.82622 0.61854 0.86462 0.0
C314 C 0.92095 0.55871 0.90111 0.0
C315 C 0.85845 0.68867 0.96525 0.0
C316 C 0.0137 0.76534 0.92641 0.0
C317 C 0.95698 0.63758 -0.00136 0.0
O318 O 0.95508 0.71058 0.83747 0.0
O319 O 0.82763 0.59627 0.89369 0.0
O320 O 0.95956 0.59374 0.90199 0.0
O321 O 0.87631 0.71179 0.93487 0.0
O322 O 0.0239 0.73547 0.91877 0.0
O323 O 0.91524 0.61337 0.99039 0.0
O324 O 0.97495 0.76044 0.91936 0.0
O325 O 0.85656 0.65125 0.97154 0.0
O326 O 0.98724 0.65941 0.97336 0.0
O327 O 0.85642 0.65925 0.85782 0.0
O328 O 0.98973 0.67085 0.84903 0.0
O329 O 0.88551 0.55778 0.91317 0.0
Sc330 Sc 0.34327 0.01427 0.40841 0.0
Sc331 Sc 0.38962 0.12932 0.42004 0.0
Sc332 Sc 0.28092 0.06306 0.38269 0.0
O333 O 0.33764 0.06934 0.40542 0.0
C334 C 0.3011 0.00571 0.32717 0.0
C335 C 0.44089 0.08381 0.38277 0.0
C336 C 0.3553 0.14901 0.34032 0.0
C337 C 0.38076 0.06191 0.48838 0.0
C338 C 0.24131 0.97895 0.43225 0.0
C339 C 0.30781 0.14019 0.4463 0.0
O340 O 0.33468 0.00828 0.34558 0.0
O341 O 0.43544 0.11785 0.38421 0.0
O342 O 0.32057 0.11002 0.33771 0.0
O343 O 0.35493 0.02524 0.47019 0.0
O344 O 0.24172 0.01582 0.42712 0.0
O345 O 0.34639 0.14505 0.45428 0.0
O346 O 0.27186 0.97165 0.41915 0.0
O347 O 0.40093 0.10063 0.47223 0.0
O348 O 0.28324 0.11623 0.41815 0.0
O349 O 0.41448 0.04719 0.3995 0.0
O350 O 0.27012 0.0075 0.34559 0.0
O351 O 0.38049 0.1625 0.37049 0.0
Sc352 Sc 0.87179 0.2585 0.41942 0.0
Sc353 Sc 0.94729 0.23156 0.37538 0.0
Sc354 Sc 0.98485 0.34067 0.41049 0.0
O355 O 0.93467 0.27626 0.40228 0.0
C356 C 0.90521 0.3568 0.38977 0.0
C357 C 0.84993 0.20079 0.34092 0.0
C358 C -0.00566 0.32013 0.32335 0.0
C359 C 0.88124 0.17441 0.44499 0.0
C360 C 0.93677 0.3166 0.49025 0.0
C361 C 0.0392 0.28834 0.4194 0.0
O362 O 0.87522 0.31531 0.38794 0.0
O363 O 0.88954 0.20714 0.33778 0.0
O364 O -0.00563 0.34747 0.34854 0.0
O365 O 0.86513 0.2005 0.44985 0.0
O366 O 0.97383 0.33392 0.47168 0.0
O367 O 0.00727 0.25042 0.40836 0.0
O368 O 0.89812 0.2951 0.4737 0.0
O369 O 0.91002 0.18017 0.41873 0.0
O370 O 0.03706 0.3241 0.41787 0.0
O371 O 0.838 0.21666 0.36909 0.0
O372 O 0.94264 0.36989 0.4066 0.0
O373 O 0.98418 0.27972 0.33067 0.0
Sc374 Sc 0.73257 0.6096 0.43326 0.0
Sc375 Sc 0.77579 0.71364 0.38562 0.0
Sc376 Sc 0.66071 0.65282 0.41032 0.0
O377 O 0.72292 0.65844 0.40943 0.0
C378 C 0.63921 0.55489 0.38595 0.0
C379 C 0.79762 0.63633 0.36035 0.0
C380 C 0.69776 0.69485 0.32645 0.0
C381 C 0.81785 0.70103 0.46405 0.0
C382 C 0.6644 0.6143 0.49353 0.0
C383 C 0.72428 0.75551 0.4312 0.0
O384 O 0.6741 0.55703 0.40184 0.0
O385 O 0.80092 0.67476 0.35637 0.0
O386 O 0.66613 0.67608 0.35115 0.0
O387 O 0.7911 0.65858 0.46624 0.0
O388 O 0.64643 0.6288 0.46952 0.0
O389 O 0.75833 0.75963 0.41285 0.0
O390 O 0.69486 0.6055 0.48394 0.0
O391 O 0.81677 0.72402 0.43572 0.0
O392 O 0.68711 0.7189 0.43375 0.0
O393 O 0.77446 0.60908 0.38703 0.0
O394 O 0.63007 0.58641 0.38728 0.0
O395 O 0.73886 0.7084 0.33398 0.0
C396 C 0.09804 0.486 0.14186 0.0
C397 C 0.0829 0.47813 0.1029 0.0
C398 C 0.0398 0.51653 0.11537 0.0
C399 C 0.04703 0.51495 0.15623 0.0
N400 N 0.07467 0.48666 0.20788 0.0
N401 N 0.04076 0.48686 0.05104 0.0
C402 C 0.0743 0.49693 0.16939 0.0
C403 C 0.05463 0.49436 0.08911 0.0
N404 N 0.13348 0.48076 0.15289 0.0
N405 N 0.01984 0.53962 0.1014 0.0
H406 H 0.05374 0.47331 0.03099 0.0
H407 H 0.01544 0.49215 0.0399 0.0
H408 H 0.0093 0.55726 0.11903 0.0
H409 H 0.0169 0.54441 0.07183 0.0
H410 H 0.14798 0.48942 0.18062 0.0
H411 H 0.15144 0.47282 0.13296 0.0
H412 H 0.09325 0.47258 0.21871 0.0
H413 H 0.05214 0.48683 0.22823 0.0
C414 C 0.49258 0.5182 0.11028 0.0
C415 C 0.48923 0.52825 0.15007 0.0
C416 C 0.51664 0.60687 0.13286 0.0
C417 C 0.52863 0.59894 0.0955 0.0
N418 N 0.52491 0.5471 0.04641 0.0
N419 N 0.5087 0.58495 0.20028 0.0
C420 C 0.51512 0.55434 0.08344 0.0
C421 C 0.50382 0.57331 0.16164 0.0
N422 N 0.47385 0.47451 0.09802 0.0
N423 N 0.51762 0.64629 0.14116 0.0
H424 H 0.50356 0.56234 0.22266 0.0
H425 H 0.52338 0.61826 0.20983 0.0
H426 H 0.52396 0.67063 0.12018 0.0
H427 H 0.50589 0.65186 0.16745 0.0
H428 H 0.47187 0.465 0.06892 0.0
H429 H 0.45733 0.44705 0.11656 0.0
H430 H 0.52161 0.5168 0.03676 0.0
H431 H 0.53783 0.57256 0.02545 0.0
C432 C 0.47063 0.97562 0.12235 0.0
C433 C 0.46725 0.94578 0.15276 0.0
C434 C 0.39146 0.89087 0.12873 0.0
C435 C 0.39664 0.92029 0.09765 0.0
N436 N 0.44915 0.97974 0.05593 0.0
N437 N 0.43081 0.86648 0.1714 0.0
C438 C 0.43963 0.95826 0.09102 0.0
C439 C 0.4298 0.90063 0.15183 0.0
N440 N 0.49957 0.02102 0.12464 0.0
N441 N 0.3503 0.85502 0.13791 0.0
H442 H 0.45923 0.87005 0.18568 0.0
H443 H 0.40523 0.83296 0.16869 0.0
H444 H 0.3212 0.8447 0.12142 0.0
H445 H 0.34486 0.83677 0.1636 0.0
H446 H 0.50045 0.04322 0.10344 0.0
H447 H 0.51708 0.03749 0.14985 0.0
H448 H 0.48116 0.0064 0.04916 0.0
H449 H 0.42619 0.9674 0.03271 0.0
C450 C 0.4621 0.07196 0.31612 0.0
C451 C 0.47404 0.08228 0.35606 0.0
C452 C 0.52885 0.05628 0.35053 0.0
C453 C 0.51619 0.04478 0.31082 0.0
N454 N 0.47581 0.04748 0.25379 0.0
N455 N 0.52421 0.09376 0.40934 0.0
C456 C 0.48481 0.05502 0.29288 0.0
C457 C 0.50943 0.0776 0.37252 0.0
N458 N 0.42664 0.07515 0.30123 0.0
N459 N 0.55861 0.04576 0.36738 0.0
H460 H 0.51045 0.10981 0.42552 0.0
H461 H 0.55213 0.09485 0.42259 0.0
H462 H 0.5747 0.03189 0.35163 0.0
H463 H 0.56572 0.04851 0.3971 0.0
H464 H 0.41158 0.06208 0.2743 0.0
H465 H 0.41046 0.08918 0.31672 0.0
H466 H 0.45801 0.05947 0.23798 0.0
H467 H 0.48788 0.03094 0.2363 0.0
C468 C 0.92697 0.42252 0.30092 0.0
C469 C 0.94721 0.46686 0.31646 0.0
C470 C 0.92104 0.43582 0.38168 0.0
C471 C 0.90257 0.3917 0.36604 0.0
N472 N 0.8679 0.34529 0.30977 0.0
N473 N 0.94805 0.51474 0.36855 0.0
C474 C 0.89896 0.38569 0.32522 0.0
C475 C 0.93955 0.47338 0.35602 0.0
N476 N 0.9356 0.41529 0.2635 0.0
N477 N 0.92182 0.44157 0.42113 0.0
H478 H 0.95971 0.54235 0.34993 0.0
H479 H 0.93965 0.52057 0.3963 0.0
H480 H 0.90561 0.41423 0.44008 0.0
H481 H 0.93962 0.4729 0.43478 0.0
H482 H 0.92477 0.38316 0.25233 0.0
H483 H 0.95706 0.44132 0.24496 0.0
H484 H 0.86207 0.33967 0.27987 0.0
H485 H 0.84363 0.32017 0.32736 0.0
C486 C 0.52822 0.46375 0.34746 0.0
C487 C 0.53861 0.46935 0.3071 0.0
C488 C 0.61913 0.514 0.32246 0.0
C489 C 0.60792 0.5156 0.36202 0.0
N490 N 0.5536 0.48934 0.41379 0.0
N491 N 0.59324 0.49649 0.25525 0.0
C492 C 0.56297 0.48877 0.37511 0.0
C493 C 0.58402 0.49241 0.29433 0.0
N494 N 0.48509 0.43439 0.35901 0.0
N495 N 0.66338 0.53491 0.31177 0.0
H496 H 0.56828 0.48086 0.23393 0.0
H497 H 0.6252 0.51671 0.24356 0.0
H498 H 0.68919 0.55504 0.33109 0.0
H499 H 0.67464 0.53096 0.28468 0.0
H500 H 0.47553 0.42599 0.38794 0.0
H501 H 0.45933 0.41553 0.33906 0.0
H502 H 0.52114 0.47511 0.42512 0.0
H503 H 0.57906 0.50551 0.43469 0.0
C504 C 0.94369 0.50058 0.89333 0.0
C505 C 0.91787 0.51983 0.87992 0.0
C506 C 0.91813 0.49394 0.81366 0.0
C507 C 0.94432 0.47488 0.82685 0.0
N508 N 0.97091 0.44867 0.88045 0.0
N509 N 0.86841 0.52242 0.83083 0.0
C510 C 0.95368 0.4746 0.86716 0.0
C511 C 0.90049 0.51173 0.84135 0.0
N512 N 0.95963 0.50835 0.93079 0.0
N513 N 0.91284 0.49804 0.77455 0.0
H514 H 0.85508 0.53621 0.85007 0.0
H515 H 0.85157 0.5134 0.80411 0.0
H516 H 0.9286 0.48938 0.75299 0.0
H517 H 0.89625 0.51393 0.76315 0.0
H518 H 0.98323 0.5001 0.94111 0.0
H519 H 0.95029 0.52484 0.95119 0.0
H520 H 0.97469 0.444 0.90993 0.0
H521 H 0.97759 0.42842 0.86208 0.0
C522 C 0.48064 0.43342 0.81752 0.0
C523 C 0.50244 0.4778 0.83342 0.0
C524 C 0.46706 0.44745 0.89676 0.0
C525 C 0.44746 0.40339 0.881 0.0
N526 N 0.44444 0.35338 0.83015 0.0
N527 N 0.52273 0.52655 0.88996 0.0
C528 C 0.45777 0.39612 0.84274 0.0
C529 C 0.49758 0.48476 0.87365 0.0
N530 N 0.47852 0.4269 0.77798 0.0
N531 N 0.45554 0.45351 0.9335 0.0
H532 H 0.54499 0.55483 0.87404 0.0
H533 H 0.52408 0.53274 0.91982 0.0
H534 H 0.43566 0.42654 0.95188 0.0
H535 H 0.46399 0.48485 0.94513 0.0
H536 H 0.46022 0.3954 0.76474 0.0
H537 H 0.49039 0.45313 0.7579 0.0
H538 H 0.45473 0.3464 0.80375 0.0
H539 H 0.42664 0.3251 0.84772 0.0
C540 C 0.52339 0.04538 0.86927 0.0
C541 C 0.53361 0.05999 0.82993 0.0
C542 C 0.61445 0.09869 0.84545 0.0
C543 C 0.60399 0.07628 0.88166 0.0
N544 N 0.5502 0.03151 0.9305 0.0
N545 N 0.58971 0.09757 0.77927 0.0
C546 C 0.55885 0.05102 0.89451 0.0
C547 C 0.5794 0.08674 0.81776 0.0
N548 N 0.48011 0.027 0.88257 0.0
N549 N 0.65822 0.12995 0.83719 0.0
H550 H 0.56591 0.08571 0.75686 0.0
H551 H 0.62248 0.11498 0.76856 0.0
H552 H 0.68445 0.13856 0.85706 0.0
H553 H 0.66791 0.15049 0.81264 0.0
H554 H 0.47104 0.01868 0.9116 0.0
H555 H 0.45354 0.02335 0.86507 0.0
H556 H 0.51815 0.00783 0.94017 0.0
H557 H 0.57607 0.03869 0.95041 0.0
C558 C 0.50582 0.93741 0.61451 0.0
C559 C 0.54785 0.94457 0.62846 0.0
C560 C 0.53785 0.97504 0.6899 0.0
C561 C 0.49683 0.96997 0.67501 0.0
N562 N 0.43351 0.92943 0.63136 0.0
N563 N 0.598 0.95741 0.6826 0.0
C564 C 0.4781 0.94586 0.6398 0.0
C565 C 0.56201 0.95932 0.66732 0.0
N566 N 0.493 0.92378 0.57686 0.0
N567 N 0.55331 0.99449 0.72571 0.0
H568 H 0.61649 0.94626 0.66663 0.0
H569 H 0.60741 0.96313 0.71185 0.0
H570 H 0.5351 0.00391 0.74398 0.0
H571 H 0.58447 0.00222 0.73731 0.0
H572 H 0.46512 0.92307 0.56376 0.0
H573 H 0.51191 0.91575 0.55805 0.0
H574 H 0.41711 0.90787 0.60794 0.0
H575 H 0.41193 0.93417 0.64966 0.0
C576 C 0.05049 0.57113 0.68823 0.0
C577 C 0.0384 0.52908 0.67057 0.0
C578 C 0.0624 0.56502 0.60673 0.0
C579 C 0.06939 0.60572 0.62362 0.0
N580 N 0.06867 0.64847 0.67937 0.0
N581 N 0.03204 0.4844 0.61396 0.0
C582 C 0.06392 0.60933 0.66425 0.0
C583 C 0.04441 0.52557 0.63004 0.0
N584 N 0.04878 0.57438 0.72794 0.0
N585 N 0.07314 0.56459 0.56839 0.0
H586 H 0.01988 0.4551 0.6305 0.0
H587 H 0.03163 0.47848 0.58415 0.0
H588 H 0.08678 0.59349 0.55113 0.0
H589 H 0.07194 0.53708 0.55439 0.0
H590 H 0.06229 0.60483 0.74297 0.0
H591 H 0.03603 0.54662 0.74646 0.0
H592 H 0.05898 0.65153 0.70744 0.0
H593 H 0.08032 0.67785 0.66309 0.0
C594 C 0.38515 0.4939 0.66667 0.0
C595 C 0.39647 0.49309 0.62711 0.0
C596 C 0.47524 0.54884 0.64084 0.0
C597 C 0.46548 0.54234 0.68125 0.0
N598 N 0.41178 0.51125 0.73367 0.0
N599 N 0.45023 0.52157 0.57483 0.0
C600 C 0.42038 0.51646 0.69453 0.0
C601 C 0.44084 0.52194 0.61352 0.0
N602 N 0.34074 0.47212 0.67734 0.0
N603 N 0.51752 0.58047 0.62897 0.0
H604 H 0.42501 0.50363 0.55412 0.0
H605 H 0.48272 0.53766 0.56338 0.0
H606 H 0.54299 0.60066 0.64873 0.0
H607 H 0.52641 0.58934 0.59997 0.0
H608 H 0.32956 0.47361 0.70521 0.0
H609 H 0.31467 0.45538 0.65708 0.0
H610 H 0.38042 0.4889 0.74548 0.0
H611 H 0.43683 0.52814 0.75472 0.0
C612 C 0.71915 0.8249 0.4416 0.0
C613 C 0.72969 0.79272 0.45616 0.0
C614 C 0.72612 0.81457 0.52329 0.0
C615 C 0.71344 0.8454 0.50878 0.0
N616 N 0.71293 0.89087 0.45539 0.0
N617 N 0.75716 0.7662 0.50862 0.0
C618 C 0.71455 0.85399 0.46822 0.0
C619 C 0.73809 0.79089 0.49639 0.0
N620 N 0.71241 0.82671 0.40253 0.0
N621 N 0.72447 0.80628 0.56247 0.0
H622 H 0.76589 0.74826 0.48932 0.0
H623 H 0.76785 0.76647 0.53712 0.0
H624 H 0.71459 0.82201 0.58309 0.0
H625 H 0.72996 0.78163 0.5746 0.0
H626 H 0.69896 0.84537 0.39052 0.0
H627 H 0.71898 0.80801 0.38229 0.0
H628 H 0.71792 0.90134 0.42643 0.0
H629 H 0.71014 0.91321 0.47434 0.0
C630 C 0.16352 0.91369 0.44401 0.0
C631 C 0.20764 0.94405 0.45776 0.0
C632 C 0.2009 0.89144 0.50815 0.0
C633 C 0.15523 0.86266 0.49745 0.0
N634 N 0.09149 0.8464 0.45656 0.0
N635 N 0.26199 0.96828 0.50992 0.0
C636 C 0.13582 0.87403 0.46595 0.0
C637 C 0.22422 0.93491 0.49215 0.0
N638 N 0.14907 0.92183 0.40941 0.0
N639 N 0.22279 0.87694 0.53231 0.0
H640 H 0.27777 0.00141 0.49993 0.0
H641 H 0.27385 0.96421 0.53679 0.0
H642 H 0.2073 0.84499 0.54474 0.0
H643 H 0.25749 0.89561 0.53743 0.0
H644 H 0.11915 0.89872 0.39561 0.0
H645 H 0.16834 0.9513 0.39354 0.0
H646 H 0.07386 0.85481 0.43669 0.0
H647 H 0.07209 0.8153 0.46993 0.0
C648 C 0.07866 0.26143 0.46437 0.0
C649 C 0.08095 0.29154 0.43501 0.0
C650 C 0.16345 0.33477 0.44185 0.0
C651 C 0.15985 0.30656 0.47353 0.0
N652 N 0.11926 0.22836 0.49337 0.0
N653 N 0.12609 0.3467 0.38647 0.0
C654 C 0.11917 0.265 0.47803 0.0
C655 C 0.12367 0.32527 0.42074 0.0
N656 N 0.03855 0.23109 0.48101 0.0
N657 N 0.20478 0.36951 0.43144 0.0
H658 H 0.09767 0.33866 0.36946 0.0
H659 H 0.15622 0.36932 0.37296 0.0
H660 H 0.23475 0.37221 0.44182 0.0
H661 H 0.20939 0.39501 0.41232 0.0
H662 H 0.03684 0.21164 0.50501 0.0
H663 H 0.00775 0.22858 0.47389 0.0
H664 H 0.09012 0.19683 0.49509 0.0
H665 H 0.14905 0.22767 0.49807 0.0
C666 C 0.15707 0.39111 0.70821 0.0
C667 C 0.12784 0.40573 0.69359 0.0
C668 C 0.15292 0.40581 0.62694 0.0
C669 C 0.18185 0.39058 0.6414 0.0
N670 N 0.22024 0.37938 0.69567 0.0
N671 N 0.1057 0.4381 0.64188 0.0
C672 C 0.18677 0.38665 0.68211 0.0
C673 C 0.12868 0.41709 0.65381 0.0
N674 N 0.15497 0.3798 0.74667 0.0
N675 N 0.14641 0.40671 0.58763 0.0
H676 H 0.08743 0.44644 0.66115 0.0
H677 H 0.10799 0.45084 0.61391 0.0
H678 H 0.16314 0.39816 0.56689 0.0
H679 H 0.1219 0.41255 0.57547 0.0
H680 H 0.17132 0.36373 0.75831 0.0
H681 H 0.13499 0.38482 0.76675 0.0
H682 H 0.22823 0.38027 0.7251 0.0
H683 H 0.24272 0.37619 0.67723 0.0
C684 C 0.66185 0.79462 0.73025 0.0
C685 C 0.62314 0.75228 0.72123 0.0
C686 C 0.59482 0.79023 0.67943 0.0
C687 C 0.63825 0.82931 0.67998 0.0
N688 N 0.70107 0.87601 0.72196 0.0
N689 N 0.55287 0.70944 0.68568 0.0
C690 C 0.6686 0.83394 0.71027 0.0
C691 C 0.5891 0.75001 0.69605 0.0
N692 N 0.69234 0.79681 0.7573 0.0
N693 N 0.55851 0.79236 0.66548 0.0
H694 H 0.54749 0.67869 0.69628 0.0
H695 H 0.53014 0.70619 0.66384 0.0
H696 H 0.56067 0.82289 0.65812 0.0
H697 H 0.52552 0.76545 0.66704 0.0
H698 H 0.72382 0.82515 0.76207 0.0
H699 H 0.68643 0.76939 0.77459 0.0
H700 H 0.72315 0.88237 0.74516 0.0
H701 H 0.70202 0.90506 0.71159 0.0
C702 C 0.20824 0.81358 0.68545 0.0
C703 C 0.19763 0.83069 0.65183 0.0
C704 C 0.26979 0.89983 0.65686 0.0
C705 C 0.27689 0.88681 0.69414 0.0
N706 N 0.25087 0.8322 0.74611 0.0
N707 N 0.21347 0.89527 0.61228 0.0
C708 C 0.24588 0.8436 0.70904 0.0
C709 C 0.22698 0.87528 0.63938 0.0
N710 N 0.18217 0.76921 0.69503 0.0
N711 N 0.30409 0.93585 0.63819 0.0
H712 H 0.18164 0.87902 0.59921 0.0
H713 H 0.2326 0.9294 0.60547 0.0
H714 H 0.33675 0.95351 0.64972 0.0
H715 H 0.30121 0.94461 0.60963 0.0
H716 H 0.19061 0.75397 0.7172 0.0
H717 H 0.15368 0.74697 0.67893 0.0
H718 H 0.22656 0.80311 0.75993 0.0
H719 H 0.27809 0.85331 0.76396 0.0
C720 C 0.5706 0.80393 0.20055 0.0
C721 C 0.56063 0.83803 0.19022 0.0
C722 C 0.58678 0.83854 0.12346 0.0
C723 C 0.59897 0.80628 0.13439 0.0
N724 N 0.58643 0.74613 0.17806 0.0
N725 N 0.54175 0.87286 0.13809 0.0
C726 C 0.58571 0.785 0.17134 0.0
C727 C 0.56282 0.85034 0.1504 0.0
N728 N 0.56687 0.79068 0.23854 0.0
N729 N 0.60009 0.85977 0.08826 0.0
H730 H 0.52412 0.88227 0.15686 0.0
H731 H 0.53744 0.87734 0.10865 0.0
H732 H 0.6176 0.85196 0.06771 0.0
H733 H 0.59665 0.88734 0.08074 0.0
H734 H 0.57884 0.77002 0.24891 0.0
H735 H 0.55314 0.80198 0.25993 0.0
H736 H 0.5732 0.72677 0.20309 0.0
H737 H 0.59713 0.7314 0.15711 0.0
C738 C 0.17904 0.77314 0.2226 0.0
C739 C 0.15777 0.728 0.20887 0.0
C740 C 0.17081 0.75426 0.14154 0.0
C741 C 0.19019 0.79952 0.15489 0.0
N742 N 0.22655 0.85245 0.20777 0.0
N743 N 0.15544 0.67908 0.15703 0.0
C744 C 0.19862 0.80922 0.19541 0.0
C745 C 0.16113 0.71963 0.1689 0.0
N746 N 0.17981 0.7812 0.26171 0.0
N747 N 0.15924 0.74381 0.10316 0.0
H748 H 0.15222 0.65445 0.17655 0.0
H749 H 0.16057 0.67255 0.12836 0.0
H750 H 0.16113 0.76706 0.08263 0.0
H751 H 0.14348 0.7111 0.09228 0.0
H752 H 0.18929 0.81271 0.27355 0.0
H753 H 0.1696 0.75548 0.28226 0.0
H754 H 0.23708 0.86107 0.23659 0.0
H755 H 0.24286 0.87941 0.1886 0.0
C756 C 0.19413 0.38356 0.20123 0.0
C757 C 0.20168 0.388 0.16015 0.0
C758 C 0.28219 0.4407 0.172 0.0
C759 C 0.27601 0.4294 0.21188 0.0
N760 N 0.22715 0.39587 0.26643 0.0
N761 N 0.25494 0.41497 0.10669 0.0
C762 C 0.23192 0.40335 0.22711 0.0
C763 C 0.24621 0.41561 0.14554 0.0
N764 N 0.15117 0.36038 0.21548 0.0
N765 N 0.32296 0.47442 0.15935 0.0
H766 H 0.23043 0.39416 0.0865 0.0
H767 H 0.28744 0.43103 0.09519 0.0
H768 H 0.34949 0.49364 0.17853 0.0
H769 H 0.32858 0.48655 0.13086 0.0
H770 H 0.14309 0.35887 0.24486 0.0
H771 H 0.1227 0.34393 0.1978 0.0
H772 H 0.19717 0.37321 0.2801 0.0
H773 H 0.2546 0.41235 0.2855 0.0
C774 C 0.14403 0.23132 0.01151 0.0
C775 C 0.12934 0.26252 0.00295 0.0
C776 C 0.14007 0.25604 0.93322 0.0
C777 C 0.16036 0.23003 0.94236 0.0
N778 N 0.16192 0.17596 0.9856 0.0
N779 N 0.09375 0.28668 0.95541 0.0
C780 C 0.15504 0.21144 0.98004 0.0
C781 C 0.12096 0.26917 0.96358 0.0
N782 N 0.14998 0.22271 0.04931 0.0
N783 N 0.14168 0.27018 0.89577 0.0
H784 H 0.07677 0.29343 0.97723 0.0
H785 H 0.08392 0.28948 0.92725 0.0
H786 H 0.15391 0.25891 0.87306 0.0
H787 H 0.13256 0.29384 0.8877 0.0
H788 H 0.16234 0.20162 0.05719 0.0
H789 H 0.14511 0.23868 0.07313 0.0
H790 H 0.15516 0.15838 0.01173 0.0
H791 H 0.16942 0.16098 0.9625 0.0
C792 C 0.7077 0.84802 0.93819 0.0
C793 C 0.72802 0.85407 0.9758 0.0
C794 C 0.77588 0.9345 0.9639 0.0
C795 C 0.7507 0.9298 0.92955 0.0
N796 N 0.70694 0.88247 0.87626 0.0
N797 N 0.80045 0.8962 0.00801 0.0
C798 C 0.7213 0.8864 0.91407 0.0
C799 C 0.76841 0.89515 0.98353 0.0
N800 N 0.67596 0.80621 0.92542 0.0
N801 N 0.80461 0.97591 0.97946 0.0
H802 H 0.79848 0.8668 0.01871 0.0
H803 H 0.83166 0.92513 0.01256 0.0
H804 H 0.81172 0.00603 0.96626 0.0
H805 H 0.8192 0.98001 0.00701 0.0
H806 H 0.65498 0.80059 0.90149 0.0
H807 H 0.67167 0.77671 0.93792 0.0
H808 H 0.68808 0.85191 0.8617 0.0
H809 H 0.71768 0.91054 0.85827 0.0
C810 C 0.11885 0.8659 0.96667 0.0
C811 C 0.12059 0.84683 0.00291 0.0
C812 C 0.04232 0.78761 -0.00654 0.0
C813 C 0.04481 0.80036 0.95388 0.0
N814 N 0.08551 0.85162 0.90193 0.0
N815 N 0.08348 0.78871 0.05135 0.0
C816 C 0.08299 0.83982 0.94021 0.0
C817 C 0.08193 0.80774 0.01676 0.0
N818 N 0.15012 0.9094 0.9584 0.0
N819 N 0.00198 0.75607 0.00865 0.0
H820 H 0.11167 0.80292 0.0697 0.0
H821 H 0.05797 0.7572 0.06049 0.0
H822 H 0.97246 0.74052 -0.008 0.0
H823 H -0.00282 0.74946 0.03842 0.0
H824 H 0.14854 0.92618 0.93366 0.0
H825 H 0.17483 0.92983 0.97854 0.0
H826 H 0.11478 0.87738 0.88938 0.0
H827 H 0.0587 0.83394 0.8825 0.0
C828 C 0.38522 0.20935 0.79719 0.0
C829 C 0.38727 0.2024 0.83783 0.0
C830 C 0.43428 0.1685 0.8243 0.0
C831 C 0.42291 0.16576 0.78425 0.0
N832 N 0.39054 0.18605 0.73135 0.0
N833 N 0.41254 0.17344 0.8905 0.0
C834 C 0.39991 0.18771 0.77028 0.0
C835 C 0.41237 0.18238 0.85165 0.0
N836 N 0.3699 0.2371 0.78448 0.0
N837 N 0.46499 0.15662 0.83621 0.0
H838 H 0.39556 0.18128 0.91149 0.0
H839 H 0.42642 0.15483 0.90168 0.0
H840 H 0.48137 0.14626 0.81674 0.0
H841 H 0.47763 0.1615 0.86458 0.0
H842 H 0.37101 0.24644 0.75544 0.0
H843 H 0.36002 0.25432 0.80355 0.0
H844 H 0.36903 0.19628 0.71958 0.0
H845 H 0.40336 0.17266 0.711 0.0
C846 C 0.79932 0.19095 0.80605 0.0
C847 C 0.80971 0.20115 0.8462 0.0
C848 C 0.8557 0.28111 0.8309 0.0
C849 C 0.85267 0.26947 0.79086 0.0
N850 N 0.82072 0.21499 0.73909 0.0
N851 N 0.84581 0.25536 0.898 0.0
C852 C 0.82346 0.22493 0.77798 0.0
C853 C 0.83652 0.24627 0.85912 0.0
N854 N 0.76609 0.14895 0.79503 0.0
N855 N 0.87809 0.32548 0.84167 0.0
H856 H 0.83209 0.23056 0.91942 0.0
H857 H 0.86905 0.28691 0.90907 0.0
H858 H 0.89262 0.3514 0.82129 0.0
H859 H 0.87906 0.3368 0.87003 0.0
H860 H 0.75425 0.14044 0.76651 0.0
H861 H 0.7474 0.12366 0.8152 0.0
H862 H 0.8045 0.18231 0.72796 0.0
H863 H 0.83645 0.23993 0.71794 0.0
C864 C 0.79764 0.59635 0.79593 0.0
C865 C 0.7883 0.59526 0.83643 0.0
C866 C 0.7075 0.5505 0.82174 0.0
C867 C 0.71703 0.56239 0.78208 0.0
N868 N 0.77009 0.59143 0.72965 0.0
N869 N 0.73291 0.57314 0.88803 0.0
C870 C 0.76192 0.58284 0.76857 0.0
C871 C 0.7428 0.57187 0.8496 0.0
N872 N 0.84044 0.60979 0.78379 0.0
N873 N 0.66452 0.52016 0.83275 0.0
H874 H 0.75733 0.59107 0.90919 0.0
H875 H 0.70011 0.56004 0.89835 0.0
H876 H 0.63839 0.50393 0.81252 0.0
H877 H 0.65617 0.5075 0.86098 0.0
H878 H 0.84862 0.60791 0.75492 0.0
H879 H 0.867 0.6189 0.80331 0.0
H880 H 0.80215 0.61137 0.71795 0.0
H881 H 0.74381 0.57947 0.70924 0.0
C882 C 0.86166 0.75249 0.0062 0.0
C883 C 0.83946 0.70598 -0.00468 0.0
C884 C 0.79085 0.68911 0.05163 0.0
C885 C 0.80334 0.73512 0.05565 0.0
N886 N 0.85618 0.81239 0.03891 0.0
N887 N 0.77351 0.63194 0.00355 0.0
C888 C 0.84024 0.76752 0.03328 0.0
C889 C 0.80117 0.67481 0.01671 0.0
N890 N 0.90424 0.78169 -0.00677 0.0
N891 N 0.7714 0.65926 0.08146 0.0
H892 H 0.777 0.62088 0.97612 0.0
H893 H 0.74377 0.60961 0.01797 0.0
H894 H 0.7705 0.6696 0.10992 0.0
H895 H 0.76361 0.62577 0.0792 0.0
H896 H 0.92321 0.81478 0.00315 0.0
H897 H 0.9229 0.77178 0.97621 0.0
H898 H 0.8784 0.83698 0.01967 0.0
H899 H 0.84702 0.82487 0.06281 0.0
C900 C 0.27482 0.09353 0.9725 0.0
C901 C 0.2704 0.12988 0.98677 0.0
C902 C 0.24328 0.09186 0.04959 0.0
C903 C 0.24785 0.05575 0.03528 0.0
N904 N 0.25517 0.0158 0.9805 0.0
N905 N 0.23738 0.15731 0.03335 0.0
C906 C 0.25919 0.05448 -0.0043 0.0
C907 C 0.2506 0.12715 0.02372 0.0
N908 N 0.29571 0.09705 0.93763 0.0
N909 N 0.23358 0.09317 0.08802 0.0
H910 H 0.24094 0.18217 0.01394 0.0
H911 H 0.21869 0.15442 0.05821 0.0
H912 H 0.22636 0.06672 0.1071 0.0
H913 H 0.23494 0.12123 0.1012 0.0
H914 H 0.30471 0.07377 0.92802 0.0
H915 H 0.3072 0.125 0.91945 0.0
H916 H 0.25828 0.01114 0.95088 0.0
H917 H 0.24446 0.98683 -0.00282 0.0
C918 C 0.91022 0.15779 0.98518 0.0
C919 C 0.86469 0.13817 -0.0019 0.0
C920 C 0.89087 0.16699 0.06412 0.0
C921 C 0.9358 0.18753 0.05064 0.0
N922 N 0.98898 0.19016 0.00366 0.0
N923 N 0.81228 0.11214 0.05195 0.0
C924 C 0.94554 0.1779 0.01305 0.0
C925 C 0.85516 0.13881 0.03837 0.0
N926 N 0.92013 0.16105 0.94625 0.0
N927 N 0.8825 0.17622 0.10093 0.0
H928 H 0.78558 0.09051 0.03387 0.0
H929 H 0.80408 0.10829 0.08146 0.0
H930 H 0.90849 0.19495 0.1208 0.0
H931 H 0.85032 0.16687 0.11109 0.0
H932 H 0.9529 0.17811 0.93541 0.0
H933 H 0.89602 0.15107 0.92418 0.0
H934 H -0.00202 0.18097 0.97767 0.0
H935 H 0.01532 0.20549 0.02382 0.0
C936 C 0.29787 0.2072 0.4546 0.0
C937 C 0.29195 0.166 0.46924 0.0
C938 C 0.26812 0.17982 0.53245 0.0
C939 C 0.27614 0.22203 0.51855 0.0
N940 N 0.28314 0.26893 0.46368 0.0
N941 N 0.25395 0.10534 0.51492 0.0
C942 C 0.28603 0.23349 0.4786 0.0
C943 C 0.27161 0.14979 0.50603 0.0
N944 N 0.31564 0.22154 0.41825 0.0
N945 N 0.25899 0.16918 0.57098 0.0
H946 H 0.25472 0.08236 0.49536 0.0
H947 H 0.23499 0.09068 0.53992 0.0
H948 H 0.25534 0.19016 0.59093 0.0
H949 H 0.25787 0.14095 0.58344 0.0
H950 H 0.32411 0.25294 0.40701 0.0
H951 H 0.3238 0.2026 0.39961 0.0
H952 H 0.28575 0.27653 0.43408 0.0
H953 H 0.27403 0.28846 0.48058 0.0
C954 C 0.87345 0.14208 0.51183 0.0
C955 C 0.86472 0.13494 0.47117 0.0
C956 C 0.81684 0.05391 0.48245 0.0
C957 C 0.81834 0.06257 0.5229 0.0
N958 N 0.84912 0.11336 0.57737 0.0
N959 N 0.82634 0.08441 0.41737 0.0
C960 C 0.84768 0.10617 0.53804 0.0
C961 C 0.83675 0.09075 0.4562 0.0
N962 N 0.90639 0.18315 0.52511 0.0
N963 N 0.79521 0.01043 0.46932 0.0
H964 H 0.83943 0.11079 0.3975 0.0
H965 H 0.80213 0.05382 0.40532 0.0
H966 H 0.7806 0.98313 0.48838 0.0
H967 H 0.79569 0.00144 0.44037 0.0
H968 H 0.91705 0.18978 0.55405 0.0
H969 H 0.9258 0.20976 0.5063 0.0
H970 H 0.8655 0.14516 0.59026 0.0
H971 H 0.83225 0.08701 0.59713 0.0
C972 C 0.9349 0.76525 0.50444 0.0
C973 C 0.92903 0.74355 0.54093 0.0
C974 C 0.84679 0.70624 0.53297 0.0
C975 C 0.85346 0.72419 0.4947 0.0
N976 N 0.90121 0.7921 0.45789 0.0
N977 N 0.88059 0.70616 0.59558 0.0
C978 C 0.89657 0.7606 0.48462 0.0
C979 C 0.88513 0.71814 0.55713 0.0
N980 N 0.9763 0.78807 0.48725 0.0
N981 N 0.80392 0.67867 0.54616 0.0
H982 H 0.90843 0.7161 0.61394 0.0
H983 H 0.84989 0.68982 0.61016 0.0
H984 H 0.77561 0.67505 0.5313 0.0
H985 H 0.7963 0.65991 0.57168 0.0
H986 H 0.98065 0.79933 0.45849 0.0
H987 H 0.00573 0.79262 0.50025 0.0
H988 H 0.93227 0.82039 0.45159 0.0
H989 H 0.87403 0.79474 0.44746 0.0
C990 C 0.90554 0.65698 0.31206 0.0
C991 C 0.88913 0.6199 0.28527 0.0
C992 C 0.81289 0.58921 0.31223 0.0
C993 C 0.82888 0.62718 0.33728 0.0
N994 N 0.89201 0.68758 0.37091 0.0
N995 N 0.82517 0.55801 0.25327 0.0
C996 C 0.87564 0.65851 0.3398 0.0
C997 C 0.84227 0.58782 0.28373 0.0
N998 N 0.94907 0.69198 0.31054 0.0
N999 N 0.7706 0.5532 0.31706 0.0
H1000 H 0.84496 0.5578 0.23027 0.0
H1001 H 0.79073 0.53717 0.24821 0.0
H1002 H 0.74994 0.55112 0.34001 0.0
H1003 H 0.75849 0.5229 0.30198 0.0
H1004 H 0.96013 0.72232 0.3253 0.0
H1005 H 0.97391 0.69367 0.29231 0.0
H1006 H 0.9262 0.70704 0.37772 0.0
H1007 H 0.87142 0.6884 0.39292 0.0
C1008 C 0.34511 0.21837 0.2586 0.0
C1009 C 0.38913 0.25618 0.26006 0.0
C1010 C 0.41259 0.21241 0.29948 0.0
C1011 C 0.36644 0.18137 0.30784 0.0
N1012 N 0.28763 0.16036 0.29781 0.0
N1013 N 0.4664 0.28939 0.28234 0.0
C1014 C 0.33208 0.18491 0.28743 0.0
C1015 C 0.42379 0.25314 0.27995 0.0
N1016 N 0.31523 0.21595 0.23095 0.0
N1017 N 0.44544 0.20284 0.3098 0.0
H1018 H 0.47618 0.31964 0.26803 0.0
H1019 H 0.49124 0.29005 0.30047 0.0
H1020 H 0.43799 0.17211 0.32212 0.0
H1021 H 0.47914 0.223 0.30183 0.0
H1022 H 0.2835 0.18747 0.22699 0.0
H1023 H 0.32464 0.24058 0.20952 0.0
H1024 H 0.26278 0.16552 0.28529 0.0
H1025 H 0.27581 0.13916 0.32184 0.0
C1026 C 0.80474 0.12406 0.31091 0.0
C1027 C 0.8148 0.16945 0.31297 0.0
C1028 C 0.75086 0.15013 0.26872 0.0
C1029 C 0.7356 0.10358 0.27412 0.0
N1030 N 0.74414 0.04796 0.31116 0.0
N1031 N 0.79587 0.22578 0.2944 0.0
C1032 C 0.76158 0.09097 0.29794 0.0
C1033 C 0.78716 0.18248 0.2922 0.0
N1034 N 0.83537 0.1115 0.32164 0.0
N1035 N 0.73269 0.16377 0.23997 0.0
H1036 H 0.82417 0.25074 0.3088 0.0
H1037 H 0.77398 0.23609 0.28362 0.0
H1038 H 0.70852 0.14151 0.22027 0.0
H1039 H 0.74538 0.19749 0.23276 0.0
H1040 H 0.82981 0.07909 0.31658 0.0
H1041 H 0.86775 0.13336 0.33181 0.0
H1042 H 0.76048 0.03873 0.33179 0.0
H1043 H 0.71111 0.02315 0.30607 0.0
C1044 C 0.03349 0.69523 0.42725 0.0
C1045 C 0.03369 0.66343 0.45327 0.0
C1046 C 0.04019 0.62075 0.39899 0.0
C1047 C 0.04209 0.65401 0.37257 0.0
N1048 N 0.05433 0.72931 0.36363 0.0
N1049 N 0.02867 0.59227 0.46547 0.0
C1050 C 0.04197 0.6928 0.3872 0.0
C1051 C 0.03501 0.62531 0.43958 0.0
N1052 N 0.02484 0.72766 0.44082 0.0
N1053 N 0.04477 0.5856 0.38582 0.0
H1054 H 0.02435 0.59475 0.49533 0.0
H1055 H 0.02377 0.56084 0.45755 0.0
H1056 H 0.04375 0.57709 0.35672 0.0
H1057 H 0.05106 0.56494 0.40379 0.0
H1058 H 0.01875 0.74833 0.42258 0.0
H1059 H 0.0194 0.73109 0.47023 0.0
H1060 H 0.05913 0.76008 0.37371 0.0
H1061 H 0.0655 0.73111 0.33507 0.0
C1062 C 0.37556 0.37379 0.43525 0.0
C1063 C 0.3693 0.40722 0.45437 0.0
C1064 C 0.35724 0.43347 0.39199 0.0
C1065 C 0.3624 0.39993 0.37241 0.0
N1066 N 0.38676 0.34474 0.37417 0.0
N1067 N 0.37525 0.47991 0.4497 0.0
C1068 C 0.37436 0.37173 0.39365 0.0
C1069 C 0.36737 0.44084 0.43211 0.0
N1070 N 0.38247 0.344 0.45638 0.0
N1071 N 0.34056 0.45693 0.37267 0.0
H1072 H 0.38445 0.48653 0.4791 0.0
H1073 H 0.37772 0.50722 0.43429 0.0
H1074 H 0.33023 0.45075 0.34354 0.0
H1075 H 0.3324 0.47889 0.38671 0.0
H1076 H 0.38036 0.315 0.4447 0.0
H1077 H 0.39128 0.3482 0.48571 0.0
H1078 H 0.40101 0.32759 0.38759 0.0
H1079 H 0.38669 0.34223 0.34389 0.0
C1080 C 0.62555 0.98081 0.43007 0.0
C1081 C 0.6216 0.94261 0.44986 0.0
C1082 C 0.60148 0.90129 0.38723 0.0
C1083 C 0.61168 0.9414 0.36748 0.0
N1084 N 0.64332 0.02219 0.36962 0.0
N1085 N 0.61547 0.86884 0.44385 0.0
C1086 C 0.62722 0.98213 0.3887 0.0
C1087 C 0.61187 0.90326 0.42762 0.0
N1088 N 0.62447 0.0146 0.4504 0.0
N1089 N 0.5827 0.86129 0.36735 0.0
H1090 H 0.6259 0.86901 0.47225 0.0
H1091 H 0.61362 0.84221 0.42766 0.0
H1092 H 0.57777 0.85882 0.3372 0.0
H1093 H 0.56916 0.8302 0.38123 0.0
H1094 H 0.62385 0.04147 0.43689 0.0
H1095 H 0.61813 0.01288 0.48026 0.0
H1096 H 0.65974 0.05318 0.38401 0.0
H1097 H 0.64318 0.02483 0.33934 0.0
C1098 C 0.69567 0.00018 0.05567 0.0
C1099 C 0.66259 0.00217 0.03211 0.0
C1100 C 0.61336 0.98431 0.08837 0.0
C1101 C 0.64975 0.99134 0.11308 0.0
N1102 N 0.72607 0.00616 0.12083 0.0
N1103 N 0.58925 -0.00518 0.02472 0.0
C1104 C 0.69089 -0.00151 0.09691 0.0
C1105 C 0.62091 0.99324 0.04799 0.0
N1106 N 0.73132 -0.00039 0.03836 0.0
N1107 N 0.5712 0.96764 0.10353 0.0
H1108 H 0.59261 -0.00192 -0.00547 0.0
H1109 H 0.56074 -0.00524 0.03538 0.0
H1110 H 0.56456 0.95787 0.13251 0.0
H1111 H 0.54232 0.95812 0.08684 0.0
H1112 H 0.75463 0.99427 0.05354 0.0
H1113 H 0.73521 0.00057 0.00811 0.0
H1114 H 0.75853 0.01666 0.11076 0.0
H1115 H 0.72352 0.00477 0.15117 0.0
C1116 C 0.95548 0.65768 0.1073 0.0
C1117 C 0.99123 0.65147 0.12014 0.0
C1118 C 0.00604 0.63739 0.05331 0.0
C1119 C 0.97023 0.64387 0.04027 0.0
N1120 N 0.91958 0.67251 0.05333 0.0
N1121 N 0.05633 0.64448 0.10656 0.0
C1122 C 0.94739 0.65756 0.06684 0.0
C1123 C 0.01889 0.64499 0.09331 0.0
N1124 N 0.92855 0.6626 0.13397 0.0
N1125 N 0.02579 0.62151 0.02801 0.0
H1126 H 0.06604 0.64953 0.13583 0.0
H1127 H 0.07903 0.64121 0.0887 0.0
H1128 H 0.01504 0.61237 -0.00074 0.0
H1129 H 0.05065 0.61399 0.0358 0.0
H1130 H 0.89809 0.66082 0.12681 0.0
H1131 H 0.93563 0.66624 0.16383 0.0
H1132 H 0.90543 0.68689 0.07101 0.0
H1133 H 0.91493 0.67574 0.02381 0.0
C1134 C 0.35419 0.38107 0.09375 0.0
C1135 C 0.3393 0.3422 0.11743 0.0
C1136 C 0.29917 0.2956 0.06156 0.0
C1137 C 0.32557 0.33224 0.03685 0.0
N1138 N 0.37487 0.41202 0.02858 0.0
N1139 N 0.29492 0.26116 0.1238 0.0
C1140 C 0.35154 0.37598 0.0526 0.0
C1141 C 0.31006 0.299 0.10164 0.0
N1142 N 0.3699 0.42231 0.11077 0.0
N1143 N 0.26298 0.2581 0.04667 0.0
H1144 H 0.30202 0.26208 0.15341 0.0
H1145 H 0.27773 0.22876 0.11198 0.0
H1146 H 0.2536 0.25592 0.01737 0.0
H1147 H 0.23978 0.2324 0.06445 0.0
H1148 H 0.37773 0.45128 0.09505 0.0
H1149 H 0.37084 0.42647 0.14101 0.0
H1150 H 0.39784 0.44418 0.03872 0.0
H1151 H 0.37234 0.40916 -0.00174 0.0
C1152 C 0.90445 0.32248 0.59497 0.0
C1153 C 0.9417 0.32513 0.61559 0.0
C1154 C 0.97062 0.31308 0.55446 0.0
C1155 C 0.93846 0.31959 0.53336 0.0
N1156 N 0.88125 0.34154 0.53497 0.0
N1157 N 0.01656 0.3338 0.61241 0.0
C1158 C 0.90695 0.32723 0.55395 0.0
C1159 C 0.97658 0.32325 0.59478 0.0
N1160 N 0.86648 0.31489 0.61441 0.0
N1161 N -0.00548 0.2959 0.53672 0.0
H1162 H 0.02415 0.34446 0.64124 0.0
H1163 H 0.04418 0.3369 0.59695 0.0
H1164 H 0.98964 0.28519 0.50777 0.0
H1165 H 0.01529 0.28716 0.55221 0.0
H1166 H 0.83719 0.30928 0.60005 0.0
H1167 H 0.86258 0.30897 0.6444 0.0
H1168 H 0.86059 0.35096 0.54968 0.0
H1169 H 0.8847 0.34939 0.50536 0.0
C1170 C 0.65226 0.57354 0.59678 0.0
C1171 C 0.64808 0.60698 0.61763 0.0
C1172 C 0.65139 0.64504 0.55642 0.0
C1173 C 0.65201 0.60948 0.53538 0.0
N1174 N 0.63825 0.53324 0.53577 0.0
N1175 N 0.63029 0.66698 0.61633 0.0
C1176 C 0.64772 0.57156 0.55569 0.0
C1177 C 0.64349 0.64045 0.59721 0.0
N1178 N 0.66242 0.54478 0.61594 0.0
N1179 N 0.66076 0.68427 0.53839 0.0
H1180 H 0.62324 0.6643 0.64609 0.0
H1181 H 0.62161 0.68832 0.60191 0.0
H1182 H 0.66908 0.6909 0.50911 0.0
H1183 H 0.66439 0.71225 0.5535 0.0
H1184 H 0.66994 0.52259 0.60145 0.0
H1185 H 0.66813 0.54644 0.64597 0.0
H1186 H 0.63105 0.50335 0.54962 0.0
H1187 H 0.6324 0.52987 0.50571 0.0
C1188 C 0.41135 0.03973 0.58918 0.0
C1189 C 0.39437 0.06199 0.61301 0.0
C1190 C 0.36401 0.07901 0.55513 0.0
C1191 C 0.38473 0.06068 0.53119 0.0
N1192 N 0.43436 0.03032 0.52454 0.0
N1193 N 0.36228 0.11035 0.6181 0.0
C1194 C 0.41027 0.04297 0.54795 0.0
C1195 C 0.37276 0.08372 0.59585 0.0
N1196 N 0.42661 0.01369 0.60583 0.0
N1197 N 0.33464 0.0905 0.53914 0.0
H1198 H 0.36885 0.11516 0.64798 0.0
H1199 H 0.35111 0.13109 0.6064 0.0
H1200 H 0.32647 0.08646 0.50956 0.0
H1201 H 0.31517 0.09968 0.55586 0.0
H1202 H 0.43561 0.99372 0.58966 0.0
H1203 H 0.42615 0.0086 0.63579 0.0
H1204 H 0.45799 0.02226 0.53516 0.0
H1205 H 0.43359 0.03152 0.49415 0.0
C1206 C 0.28984 0.94799 0.87655 0.0
C1207 C 0.33035 0.98521 0.86352 0.0
C1208 C 0.35893 0.00387 0.93021 0.0
C1209 C 0.31741 0.96767 0.94387 0.0
N1210 N 0.23862 0.91428 0.93023 0.0
N1211 N 0.39762 0.05565 0.87726 0.0
C1212 C 0.28137 0.9423 0.9171 0.0
C1213 C 0.36279 0.01575 0.89028 0.0
N1214 N 0.26002 0.9175 0.85027 0.0
N1215 N 0.39565 0.02469 0.95442 0.0
H1216 H 0.40116 0.06491 0.84793 0.0
H1217 H 0.42048 0.08089 0.89583 0.0
H1218 H 0.39579 0.01442 0.98298 0.0
H1219 H 0.42757 0.04901 0.94498 0.0
H1220 H 0.23267 0.88658 0.85836 0.0
H1221 H 0.26425 0.92196 0.82015 0.0
H1222 H 0.21068 0.89794 0.91182 0.0
H1223 H 0.23007 0.9114 0.95957 0.0
C1224 C 0.00946 0.32218 0.92582 0.0
C1225 C 0.04438 0.36049 0.9453 0.0
C1226 C 0.07738 0.3935 0.88268 0.0
C1227 C 0.03804 0.36024 0.86353 0.0
N1228 N 0.96252 0.29566 0.86817 0.0
N1229 N 0.10544 0.43776 0.94126 0.0
C1230 C 0.00286 0.32502 0.8853 0.0
C1231 C 0.07679 0.39766 0.92346 0.0
N1232 N 0.98384 0.2827 0.9453 0.0
N1233 N 0.1152 0.42125 0.86181 0.0
H1234 H 0.10367 0.44362 0.97091 0.0
H1235 H 0.1271 0.46671 0.92569 0.0
H1236 H 0.1171 0.41787 0.83169 0.0
H1237 H 0.14584 0.44387 0.87502 0.0
H1238 H 0.96042 0.25313 0.93129 0.0
H1239 H 0.98926 0.27797 0.9744 0.0
H1240 H 0.9346 0.27244 0.88403 0.0
H1241 H 0.9555 0.29668 0.83878 0.0
C1242 C 0.69368 0.708 0.88972 0.0
C1243 C 0.66559 0.6652 0.87251 0.0
C1244 C 0.65043 0.62881 0.93631 0.0
C1245 C 0.6746 0.67188 0.95361 0.0
N1246 N 0.73267 0.74941 0.94841 0.0
N1247 N 0.63305 0.58469 0.87688 0.0
C1248 C 0.70119 0.71049 0.93066 0.0
C1249 C 0.64932 0.62541 0.89509 0.0
N1250 N 0.71058 0.7461 0.86762 0.0
N1251 N 0.62686 0.59174 0.95925 0.0
H1252 H 0.63291 0.58159 0.84657 0.0
H1253 H 0.62333 0.55473 0.89166 0.0
H1254 H 0.62884 0.59351 0.98966 0.0
H1255 H 0.60431 0.55985 0.94832 0.0
H1256 H 0.72765 0.77853 0.87923 0.0
H1257 H 0.70562 0.74533 0.83756 0.0
H1258 H 0.7555 0.77812 0.93325 0.0
H1259 H 0.73832 0.75139 0.9785 0.0
C1260 C 0.76394 0.03105 0.71587 0.0
C1261 C 0.73179 0.03589 0.69361 0.0
C1262 C 0.69662 0.04006 0.75491 0.0
C1263 C 0.72217 0.024 0.77529 0.0
N1264 N 0.77544 -0.00269 0.77295 0.0
N1265 N 0.67596 0.0592 0.69268 0.0
C1266 C 0.75452 0.01757 0.75507 0.0
C1267 C 0.70046 0.04472 0.71331 0.0
N1268 N 0.80393 0.04016 0.69945 0.0
N1269 N 0.67085 0.05313 0.77539 0.0
H1270 H 0.68476 0.07214 0.66459 0.0
H1271 H 0.64847 0.06071 0.7037 0.0
H1272 H 0.66735 0.05058 0.80559 0.0
H1273 H 0.65498 0.06917 0.76301 0.0
H1274 H 0.82997 0.04014 0.71533 0.0
H1275 H 0.81267 0.05306 0.67123 0.0
H1276 H 0.79659 0.98866 0.75807 0.0
H1277 H 0.76775 0.98475 0.80133 0.0
C1278 C 0.03557 0.73702 0.72994 0.0
C1279 C 0.00196 0.70584 0.70379 0.0
C1280 C 0.96171 0.6588 0.75951 0.0
C1281 C 0.98906 0.6949 0.78493 0.0
N1282 N 0.05146 0.7703 0.79442 0.0
N1283 N 0.92851 0.63921 0.69515 0.0
C1284 C 0.02568 0.73484 0.77016 0.0
C1285 C 0.96379 0.66699 0.71888 0.0
N1286 N 0.07808 0.76612 0.71702 0.0
N1287 N 0.9344 0.61671 0.77397 0.0
H1288 H 0.92655 0.64614 0.66585 0.0
H1289 H 0.89887 0.61192 0.70554 0.0
H1290 H 0.93282 0.60944 0.80365 0.0
H1291 H 0.91647 0.58868 0.75605 0.0
H1292 H 0.10462 0.78715 0.73552 0.0
H1293 H 0.08824 0.76412 0.68892 0.0
H1294 H 0.07574 0.8018 0.78409 0.0
H1295 H 0.04659 0.76898 0.82454 0.0
C1296 C 0.31706 0.33605 0.72249 0.0
C1297 C 0.28784 0.29992 0.69756 0.0
C1298 C 0.24695 0.25568 0.75432 0.0
C1299 C 0.2802 0.2888 0.77922 0.0
N1300 N 0.35434 0.35552 0.78504 0.0
N1301 N 0.23227 0.22102 0.69061 0.0
C1302 C 0.31749 0.32768 0.76288 0.0
C1303 C 0.25505 0.2583 0.71376 0.0
N1304 N 0.34282 0.37872 0.70835 0.0
N1305 N 0.20684 0.22277 0.76905 0.0
H1306 H 0.23891 0.22115 0.66089 0.0
H1307 H 0.21068 0.18907 0.70183 0.0
H1308 H 0.1982 0.22153 0.79837 0.0
H1309 H 0.18022 0.20014 0.75136 0.0
H1310 H 0.36113 0.40659 0.72644 0.0
H1311 H 0.34214 0.38721 0.67933 0.0
H1312 H 0.38334 0.38238 0.77326 0.0
H1313 H 0.35833 0.34902 0.81397 0.0
C1314 C 0.04212 0.35805 0.22303 0.0
C1315 C 0.00445 0.32493 0.20162 0.0
C1316 C 0.9575 0.30685 0.25925 0.0
C1317 C -0.00282 0.33146 0.28195 0.0
N1318 N 0.07678 0.38385 0.28691 0.0
N1319 N 0.92555 0.26835 0.19816 0.0
C1320 C 0.03942 0.35888 0.26425 0.0
C1321 C 0.96153 0.30018 0.2191 0.0
N1322 N 0.08012 0.38831 0.20365 0.0
N1323 N 0.9162 0.28958 0.27648 0.0
H1324 H 0.92726 0.26283 0.16845 0.0
H1325 H 0.89477 0.24552 0.21069 0.0
H1326 H 0.91268 0.29453 0.30604 0.0
H1327 H 0.88597 0.2746 0.26088 0.0
H1328 H 0.10858 0.41405 0.21728 0.0
H1329 H 0.08221 0.38909 0.17326 0.0
H1330 H 0.10953 0.40137 0.27613 0.0
H1331 H 0.07496 0.38578 0.31718 0.0
C1332 C 0.68418 0.73587 0.27305 0.0
C1333 C 0.68638 0.69783 0.28576 0.0
C1334 C 0.69026 0.67634 0.21878 0.0
C1335 C 0.68554 0.71296 0.20544 0.0
N1336 N 0.67461 0.7761 0.21934 0.0
N1337 N 0.68082 0.62646 0.27213 0.0
C1338 C 0.68154 0.74241 0.23243 0.0
C1339 C 0.68575 0.66624 0.25897 0.0
N1340 N 0.6858 0.76617 0.29991 0.0
N1341 N 0.70257 0.65338 0.19358 0.0
H1342 H 0.67747 0.61825 0.30169 0.0
H1343 H 0.67554 0.60011 0.25366 0.0
H1344 H 0.70951 0.66156 0.16419 0.0
H1345 H 0.71103 0.62955 0.20261 0.0
H1346 H 0.69019 0.79763 0.29295 0.0
H1347 H 0.68426 0.76019 0.32983 0.0
H1348 H 0.66644 0.79544 0.23732 0.0
H1349 H 0.67428 0.78331 0.18994 0.0
C1350 C 0.31018 0.97008 0.26607 0.0
C1351 C 0.29779 -5e-05 0.28385 0.0
C1352 C 0.29214 0.02758 0.21908 0.0
C1353 C 0.30236 -0.00343 0.20179 0.0
N1354 N 0.33089 0.94538 0.20702 0.0
N1355 N 0.26478 0.04845 0.27496 0.0
C1356 C 0.31463 0.97011 0.22478 0.0
C1357 C 0.28557 0.02651 0.25989 0.0
N1358 N 0.31314 0.93856 0.28833 0.0
N1359 N 0.29007 0.0592 0.19622 0.0
H1360 H 0.25592 0.04803 0.30383 0.0
H1361 H 0.2508 0.06336 0.2577 0.0
H1362 H 0.29498 0.06077 0.16608 0.0
H1363 H 0.28875 0.0868 0.20739 0.0
H1364 H 0.31804 0.91317 0.27701 0.0
H1365 H 0.30553 0.93428 0.31799 0.0
H1366 H 0.34521 0.92918 0.22197 0.0
H1367 H 0.33343 0.94387 0.17681 0.0
loop_
_geom_bond_atom_site_label_1
_geom_bond_atom_site_label_2
_geom_bond_distance
_geom_bond_site_symmetry_2
_ccdc_geom_bond_type
Sc0 O3 2.025 . S
Sc0 O10 2.105 . S
Sc0 O13 2.105 1_455 S
Sc0 O16 2.105 . S
Sc0 O19 2.105 1_455 S
Sc1 O3 2.025 1_655 S
Sc1 O11 2.105 . S
Sc1 O15 2.105 . S
Sc1 O17 2.105 . S
Sc1 O21 2.105 . S
Sc2 O3 2.025 . S
Sc2 O12 2.105 . S
Sc2 O14 2.105 . S
Sc2 O18 2.105 . S
Sc2 O20 2.105 . S
O3 Sc0 2.025 . S
O3 Sc1 2.025 1_455 S
O3 Sc2 2.025 . S
C4 O10 1.268 . S
C4 O20 1.268 . S
C5 O11 1.268 . S
C5 O19 1.268 . S
C6 O12 1.268 . S
C6 O21 1.268 1_455 S
C7 O13 1.268 . S
C7 O17 1.268 . S
C8 O14 1.268 . S
C8 O16 1.268 . S
C9 O15 1.268 . S
C9 O18 1.268 1_655 S
O10 Sc0 2.105 . S
O10 C4 1.268 . S
O11 Sc1 2.105 . S
O11 C5 1.268 . S
O12 Sc2 2.105 . S
O12 C6 1.268 . S
O13 Sc0 2.105 1_655 S
O13 C7 1.268 . S
O14 Sc2 2.105 . S
O14 C8 1.268 . S
O15 Sc1 2.105 . S
O15 C9 1.268 . S
O16 Sc0 2.105 . S
O16 C8 1.268 . S
O17 Sc1 2.105 . S
O17 C7 1.268 . S
O18 Sc2 2.105 . S
O18 C9 1.268 1_455 S
O19 Sc0 2.105 1_655 S
O19 C5 1.268 . S
O20 Sc2 2.105 . S
O20 C4 1.268 . S
O21 Sc1 2.105 . S
O21 C6 1.268 1_655 S
Sc22 O25 2.025 . S
Sc22 O32 2.105 . S
Sc22 O35 2.105 . S
Sc22 O38 2.105 . S
Sc22 O41 2.105 . S
Sc23 O25 2.025 . S
Sc23 O33 2.105 . S
Sc23 O37 2.105 . S
Sc23 O39 2.105 . S
Sc23 O43 2.105 . S
Sc24 O25 2.025 . S
Sc24 O34 2.105 . S
Sc24 O36 2.105 . S
Sc24 O40 2.105 . S
Sc24 O42 2.105 . S
O25 Sc22 2.025 . S
O25 Sc23 2.025 . S
O25 Sc24 2.025 . S
C26 O32 1.268 . S
C26 O42 1.268 . S
C27 O33 1.268 . S
C27 O41 1.268 . S
C28 O34 1.268 . S
C28 O43 1.268 . S
C29 O35 1.268 . S
C29 O39 1.268 . S
C30 O36 1.268 . S
C30 O38 1.268 . S
C31 O37 1.268 . S
C31 O40 1.268 . S
O32 Sc22 2.105 . S
O32 C26 1.268 . S
O33 Sc23 2.105 . S
O33 C27 1.268 . S
O34 Sc24 2.105 . S
O34 C28 1.268 . S
O35 Sc22 2.105 . S
O35 C29 1.268 . S
O36 Sc24 2.105 . S
O36 C30 1.268 . S
O37 Sc23 2.105 . S
O37 C31 1.268 . S
O38 Sc22 2.105 . S
O38 C30 1.268 . S
O39 Sc23 2.105 . S
O39 C29 1.268 . S
O40 Sc24 2.105 . S
O40 C31 1.268 . S
O41 Sc22 2.105 . S
O41 C27 1.268 . S
O42 Sc24 2.105 . S
O42 C26 1.268 . S
O43 Sc23 2.105 . S
O43 C28 1.268 . S
Sc44 O47 2.025 . S
Sc44 O54 2.105 . S
Sc44 O57 2.105 . S
Sc44 O60 2.105 . S
Sc44 O63 2.105 . S
Sc45 O47 2.025 1_565 S
Sc45 O55 2.105 . S
Sc45 O59 2.105 . S
Sc45 O61 2.105 . S
Sc45 O65 2.105 . S
Sc46 O47 2.025 . S
Sc46 O56 2.105 1_545 S
Sc46 O58 2.105 . S
Sc46 O62 2.105 1_545 S
Sc46 O64 2.105 . S
O47 Sc44 2.025 . S
O47 Sc45 2.025 1_545 S
O47 Sc46 2.025 . S
C48 O54 1.268 . S
C48 O64 1.268 . S
C49 O55 1.268 . S
C49 O63 1.268 1_565 S
C50 O56 1.268 . S
C50 O65 1.268 . S
C51 O57 1.268 . S
C51 O61 1.268 1_545 S
C52 O58 1.268 . S
C52 O60 1.268 . S
C53 O59 1.268 . S
C53 O62 1.268 . S
O54 Sc44 2.105 . S
O54 C48 1.268 . S
O55 Sc45 2.105 . S
O55 C49 1.268 . S
O56 Sc46 2.105 1_565 S
O56 C50 1.268 . S
O57 Sc44 2.105 . S
O57 C51 1.268 . S
O58 Sc46 2.105 . S
O58 C52 1.268 . S
O59 Sc45 2.105 . S
O59 C53 1.268 . S
O60 Sc44 2.105 . S
O60 C52 1.268 . S
O61 Sc45 2.105 . S
O61 C51 1.268 1_565 S
O62 Sc46 2.105 1_565 S
O62 C53 1.268 . S
O63 Sc44 2.105 . S
O63 C49 1.268 1_545 S
O64 Sc46 2.105 . S
O64 C48 1.268 . S
O65 Sc45 2.105 . S
O65 C50 1.268 . S
Sc66 O69 2.025 . S
Sc66 O76 2.105 1_455 S
Sc66 O79 2.105 . S
Sc66 O82 2.105 1_455 S
Sc66 O85 2.105 . S
Sc67 O69 2.025 . S
Sc67 O77 2.105 . S
Sc67 O81 2.105 . S
Sc67 O83 2.105 . S
Sc67 O87 2.105 . S
Sc68 O69 2.025 1_655 S
Sc68 O78 2.105 . S
Sc68 O80 2.105 . S
Sc68 O84 2.105 . S
Sc68 O86 2.105 . S
O69 Sc66 2.025 . S
O69 Sc67 2.025 . S
O69 Sc68 2.025 1_455 S
C70 O76 1.268 . S
C70 O86 1.268 . S
C71 O77 1.268 . S
C71 O85 1.268 . S
C72 O78 1.268 1_455 S
C72 O87 1.268 . S
C73 O79 1.268 . S
C73 O83 1.268 . S
C74 O80 1.268 . S
C74 O82 1.268 . S
C75 O81 1.268 1_655 S
C75 O84 1.268 . S
O76 Sc66 2.105 1_655 S
O76 C70 1.268 . S
O77 Sc67 2.105 . S
O77 C71 1.268 . S
O78 Sc68 2.105 . S
O78 C72 1.268 1_655 S
O79 Sc66 2.105 . S
O79 C73 1.268 . S
O80 Sc68 2.105 . S
O80 C74 1.268 . S
O81 Sc67 2.105 . S
O81 C75 1.268 1_455 S
O82 Sc66 2.105 1_655 S
O82 C74 1.268 . S
O83 Sc67 2.105 . S
O83 C73 1.268 . S
O84 Sc68 2.105 . S
O84 C75 1.268 . S
O85 Sc66 2.105 . S
O85 C71 1.268 . S
O86 Sc68 2.105 . S
O86 C70 1.268 . S
O87 Sc67 2.105 . S
O87 C72 1.268 . S
Sc88 O91 2.025 . S
Sc88 O98 2.105 . S
Sc88 O101 2.105 . S
Sc88 O104 2.105 . S
Sc88 O107 2.105 . S
Sc89 O91 2.025 . S
Sc89 O99 2.105 . S
Sc89 O103 2.105 . S
Sc89 O105 2.105 . S
Sc89 O109 2.105 . S
Sc90 O91 2.025 . S
Sc90 O100 2.105 . S
Sc90 O102 2.105 . S
Sc90 O106 2.105 . S
Sc90 O108 2.105 . S
O91 Sc88 2.025 . S
O91 Sc89 2.025 . S
O91 Sc90 2.025 . S
C92 O98 1.268 . S
C92 O108 1.268 . S
C93 O99 1.268 . S
C93 O107 1.268 . S
C94 O100 1.268 . S
C94 O109 1.268 . S
C95 O101 1.268 . S
C95 O105 1.268 . S
C96 O102 1.268 . S
C96 O104 1.268 . S
C97 O103 1.268 . S
C97 O106 1.268 . S
O98 Sc88 2.105 . S
O98 C92 1.268 . S
O99 Sc89 2.105 . S
O99 C93 1.268 . S
O100 Sc90 2.105 . S
O100 C94 1.268 . S
O101 Sc88 2.105 . S
O101 C95 1.268 . S
O102 Sc90 2.105 . S
O102 C96 1.268 . S
O103 Sc89 2.105 . S
O103 C97 1.268 . S
O104 Sc88 2.105 . S
O104 C96 1.268 . S
O105 Sc89 2.105 . S
O105 C95 1.268 . S
O106 Sc90 2.105 . S
O106 C97 1.268 . S
O107 Sc88 2.105 . S
O107 C93 1.268 . S
O108 Sc90 2.105 . S
O108 C92 1.268 . S
O109 Sc89 2.105 . S
O109 C94 1.268 . S
Sc110 O113 2.025 1_565 S
Sc110 O120 2.105 . S
Sc110 O123 2.105 . S
Sc110 O126 2.105 . S
Sc110 O129 2.105 . S
Sc111 O113 2.025 . S
Sc111 O121 2.105 . S
Sc111 O125 2.105 . S
Sc111 O127 2.105 . S
Sc111 O131 2.105 . S
Sc112 O113 2.025 . S
Sc112 O122 2.105 . S
Sc112 O124 2.105 1_545 S
Sc112 O128 2.105 . S
Sc112 O130 2.105 1_545 S
O113 Sc110 2.025 1_545 S
O113 Sc111 2.025 . S
O113 Sc112 2.025 . S
C114 O120 1.268 . S
C114 O130 1.268 . S
C115 O121 1.268 1_565 S
C115 O129 1.268 . S
C116 O122 1.268 . S
C116 O131 1.268 . S
C117 O123 1.268 1_545 S
C117 O127 1.268 . S
C118 O124 1.268 . S
C118 O126 1.268 . S
C119 O125 1.268 . S
C119 O128 1.268 . S
O120 Sc110 2.105 . S
O120 C114 1.268 . S
O121 Sc111 2.105 . S
O121 C115 1.268 1_545 S
O122 Sc112 2.105 . S
O122 C116 1.268 . S
O123 Sc110 2.105 . S
O123 C117 1.268 1_565 S
O124 Sc112 2.105 1_565 S
O124 C118 1.268 . S
O125 Sc111 2.105 . S
O125 C119 1.268 . S
O126 Sc110 2.105 . S
O126 C118 1.268 . S
O127 Sc111 2.105 . S
O127 C117 1.268 . S
O128 Sc112 2.105 . S
O128 C119 1.268 . S
O129 Sc110 2.105 . S
O129 C115 1.268 . S
O130 Sc112 2.105 1_565 S
O130 C114 1.268 . S
O131 Sc111 2.105 . S
O131 C116 1.268 . S
Sc132 O135 2.025 . S
Sc132 O142 2.105 1_565 S
Sc132 O145 2.105 . S
Sc132 O148 2.105 1_565 S
Sc132 O151 2.105 . S
Sc133 O135 2.025 . S
Sc133 O143 2.105 . S
Sc133 O147 2.105 . S
Sc133 O149 2.105 . S
Sc133 O153 2.105 . S
Sc134 O135 2.025 . S
Sc134 O144 2.105 . S
Sc134 O146 2.105 . S
Sc134 O150 2.105 . S
Sc134 O152 2.105 . S
O135 Sc132 2.025 . S
O135 Sc133 2.025 . S
O135 Sc134 2.025 . S
C136 O142 1.268 . S
C136 O152 1.268 1_545 S
C137 O143 1.268 . S
C137 O151 1.268 . S
C138 O144 1.268 . S
C138 O153 1.268 . S
C139 O145 1.268 . S
C139 O149 1.268 . S
C140 O146 1.268 . S
C140 O148 1.268 1_565 S
C141 O147 1.268 . S
C141 O150 1.268 . S
O142 Sc132 2.105 1_545 S
O142 C136 1.268 . S
O143 Sc133 2.105 . S
O143 C137 1.268 . S
O144 Sc134 2.105 . S
O144 C138 1.268 . S
O145 Sc132 2.105 . S
O145 C139 1.268 . S
O146 Sc134 2.105 . S
O146 C140 1.268 . S
O147 Sc133 2.105 . S
O147 C141 1.268 . S
O148 Sc132 2.105 1_545 S
O148 C140 1.268 1_545 S
O149 Sc133 2.105 . S
O149 C139 1.268 . S
O150 Sc134 2.105 . S
O150 C141 1.268 . S
O151 Sc132 2.105 . S
O151 C137 1.268 . S
O152 Sc134 2.105 . S
O152 C136 1.268 1_565 S
O153 Sc133 2.105 . S
O153 C138 1.268 . S
Sc154 O157 2.025 . S
Sc154 O164 2.105 1_455 S
Sc154 O167 2.105 . S
Sc154 O170 2.105 . S
Sc154 O173 2.105 . S
Sc155 O157 2.025 . S
Sc155 O165 2.105 . S
Sc155 O169 2.105 . S
Sc155 O171 2.105 . S
Sc155 O175 2.105 . S
Sc156 O157 2.025 . S
Sc156 O166 2.105 . S
Sc156 O168 2.105 . S
Sc156 O172 2.105 . S
Sc156 O174 2.105 . S
O157 Sc154 2.025 . S
O157 Sc155 2.025 . S
O157 Sc156 2.025 . S
C158 O164 1.268 . S
C158 O174 1.268 1_655 S
C159 O165 1.268 . S
C159 O173 1.268 . S
C160 O166 1.268 . S
C160 O175 1.268 . S
C161 O167 1.268 . S
C161 O171 1.268 . S
C162 O168 1.268 . S
C162 O170 1.268 . S
C163 O169 1.268 . S
C163 O172 1.268 . S
O164 Sc154 2.105 1_655 S
O164 C158 1.268 . S
O165 Sc155 2.105 . S
O165 C159 1.268 . S
O166 Sc156 2.105 . S
O166 C160 1.268 . S
O167 Sc154 2.105 . S
O167 C161 1.268 . S
O168 Sc156 2.105 . S
O168 C162 1.268 . S
O169 Sc155 2.105 . S
O169 C163 1.268 . S
O170 Sc154 2.105 . S
O170 C162 1.268 . S
O171 Sc155 2.105 . S
O171 C161 1.268 . S
O172 Sc156 2.105 . S
O172 C163 1.268 . S
O173 Sc154 2.105 . S
O173 C159 1.268 . S
O174 Sc156 2.105 . S
O174 C158 1.268 1_455 S
O175 Sc155 2.105 . S
O175 C160 1.268 . S
Sc176 O179 2.025 . S
Sc176 O186 2.105 . S
Sc176 O189 2.105 . S
Sc176 O192 2.105 . S
Sc176 O195 2.105 . S
Sc177 O179 2.025 . S
Sc177 O187 2.105 . S
Sc177 O191 2.105 . S
Sc177 O193 2.105 . S
Sc177 O197 2.105 . S
Sc178 O179 2.025 . S
Sc178 O188 2.105 . S
Sc178 O190 2.105 . S
Sc178 O194 2.105 . S
Sc178 O196 2.105 . S
O179 Sc176 2.025 . S
O179 Sc177 2.025 . S
O179 Sc178 2.025 . S
C180 O186 1.268 . S
C180 O196 1.268 . S
C181 O187 1.268 . S
C181 O195 1.268 . S
C182 O188 1.268 . S
C182 O197 1.268 . S
C183 O189 1.268 . S
C183 O193 1.268 . S
C184 O190 1.268 . S
C184 O192 1.268 . S
C185 O191 1.268 . S
C185 O194 1.268 . S
O186 Sc176 2.105 . S
O186 C180 1.268 . S
O187 Sc177 2.105 . S
O187 C181 1.268 . S
O188 Sc178 2.105 . S
O188 C182 1.268 . S
O189 Sc176 2.105 . S
O189 C183 1.268 . S
O190 Sc178 2.105 . S
O190 C184 1.268 . S
O191 Sc177 2.105 . S
O191 C185 1.268 . S
O192 Sc176 2.105 . S
O192 C184 1.268 . S
O193 Sc177 2.105 . S
O193 C183 1.268 . S
O194 Sc178 2.105 . S
O194 C185 1.268 . S
O195 Sc176 2.105 . S
O195 C181 1.268 . S
O196 Sc178 2.105 . S
O196 C180 1.268 . S
O197 Sc177 2.105 . S
O197 C182 1.268 . S
Sc198 O201 2.025 . S
Sc198 O208 2.105 . S
Sc198 O211 2.105 . S
Sc198 O214 2.105 . S
Sc198 O217 2.105 . S
Sc199 O201 2.025 . S
Sc199 O209 2.105 . S
Sc199 O213 2.105 . S
Sc199 O215 2.105 . S
Sc199 O219 2.105 . S
Sc200 O201 2.025 . S
Sc200 O210 2.105 . S
Sc200 O212 2.105 . S
Sc200 O216 2.105 . S
Sc200 O218 2.105 . S
O201 Sc198 2.025 . S
O201 Sc199 2.025 . S
O201 Sc200 2.025 . S
C202 O208 1.268 . S
C202 O218 1.268 . S
C203 O209 1.268 . S
C203 O217 1.268 . S
C204 O210 1.268 . S
C204 O219 1.268 . S
C205 O211 1.268 . S
C205 O215 1.268 . S
C206 O212 1.268 . S
C206 O214 1.268 . S
C207 O213 1.268 . S
C207 O216 1.268 . S
O208 Sc198 2.105 . S
O208 C202 1.268 . S
O209 Sc199 2.105 . S
O209 C203 1.268 . S
O210 Sc200 2.105 . S
O210 C204 1.268 . S
O211 Sc198 2.105 . S
O211 C205 1.268 . S
O212 Sc200 2.105 . S
O212 C206 1.268 . S
O213 Sc199 2.105 . S
O213 C207 1.268 . S
O214 Sc198 2.105 . S
O214 C206 1.268 . S
O215 Sc199 2.105 . S
O215 C205 1.268 . S
O216 Sc200 2.105 . S
O216 C207 1.268 . S
O217 Sc198 2.105 . S
O217 C203 1.268 . S
O218 Sc200 2.105 . S
O218 C202 1.268 . S
O219 Sc199 2.105 . S
O219 C204 1.268 . S
Sc220 O223 2.025 . S
Sc220 O230 2.105 . S
Sc220 O233 2.105 . S
Sc220 O236 2.105 . S
Sc220 O239 2.105 . S
Sc221 O223 2.025 . S
Sc221 O231 2.105 . S
Sc221 O235 2.105 . S
Sc221 O237 2.105 . S
Sc221 O241 2.105 . S
Sc222 O223 2.025 . S
Sc222 O232 2.105 . S
Sc222 O234 2.105 1_565 S
Sc222 O238 2.105 . S
Sc222 O240 2.105 1_565 S
O223 Sc220 2.025 . S
O223 Sc221 2.025 . S
O223 Sc222 2.025 . S
C224 O230 1.268 1_545 S
C224 O240 1.268 . S
C225 O231 1.268 . S
C225 O239 1.268 . S
C226 O232 1.268 . S
C226 O241 1.268 . S
C227 O233 1.268 . S
C227 O237 1.268 . S
C228 O234 1.268 1_565 S
C228 O236 1.268 . S
C229 O235 1.268 . S
C229 O238 1.268 . S
O230 Sc220 2.105 . S
O230 C224 1.268 1_565 S
O231 Sc221 2.105 . S
O231 C225 1.268 . S
O232 Sc222 2.105 . S
O232 C226 1.268 . S
O233 Sc220 2.105 . S
O233 C227 1.268 . S
O234 Sc222 2.105 1_545 S
O234 C228 1.268 1_545 S
O235 Sc221 2.105 . S
O235 C229 1.268 . S
O236 Sc220 2.105 . S
O236 C228 1.268 . S
O237 Sc221 2.105 . S
O237 C227 1.268 . S
O238 Sc222 2.105 . S
O238 C229 1.268 . S
O239 Sc220 2.105 . S
O239 C225 1.268 . S
O240 Sc222 2.105 1_545 S
O240 C224 1.268 . S
O241 Sc221 2.105 . S
O241 C226 1.268 . S
Sc242 O245 2.025 . S
Sc242 O252 2.105 . S
Sc242 O255 2.105 . S
Sc242 O258 2.105 . S
Sc242 O261 2.105 . S
Sc243 O245 2.025 . S
Sc243 O253 2.105 . S
Sc243 O257 2.105 . S
Sc243 O259 2.105 . S
Sc243 O263 2.105 . S
Sc244 O245 2.025 . S
Sc244 O254 2.105 . S
Sc244 O256 2.105 . S
Sc244 O260 2.105 . S
Sc244 O262 2.105 1_455 S
O245 Sc242 2.025 . S
O245 Sc243 2.025 . S
O245 Sc244 2.025 . S
C246 O252 1.268 1_655 S
C246 O262 1.268 . S
C247 O253 1.268 . S
C247 O261 1.268 . S
C248 O254 1.268 . S
C248 O263 1.268 . S
C249 O255 1.268 . S
C249 O259 1.268 . S
C250 O256 1.268 . S
C250 O258 1.268 . S
C251 O257 1.268 . S
C251 O260 1.268 . S
O252 Sc242 2.105 . S
O252 C246 1.268 1_455 S
O253 Sc243 2.105 . S
O253 C247 1.268 . S
O254 Sc244 2.105 . S
O254 C248 1.268 . S
O255 Sc242 2.105 . S
O255 C249 1.268 . S
O256 Sc244 2.105 . S
O256 C250 1.268 . S
O257 Sc243 2.105 . S
O257 C251 1.268 . S
O258 Sc242 2.105 . S
O258 C250 1.268 . S
O259 Sc243 2.105 . S
O259 C249 1.268 . S
O260 Sc244 2.105 . S
O260 C251 1.268 . S
O261 Sc242 2.105 . S
O261 C247 1.268 . S
O262 Sc244 2.105 1_655 S
O262 C246 1.268 . S
O263 Sc243 2.105 . S
O263 C248 1.268 . S
Sc264 O267 2.025 . S
Sc264 O274 2.105 . S
Sc264 O277 2.105 . S
Sc264 O280 2.105 . S
Sc264 O283 2.105 . S
Sc265 O267 2.025 . S
Sc265 O275 2.105 . S
Sc265 O279 2.105 . S
Sc265 O281 2.105 . S
Sc265 O285 2.105 . S
Sc266 O267 2.025 . S
Sc266 O276 2.105 . S
Sc266 O278 2.105 . S
Sc266 O282 2.105 . S
Sc266 O284 2.105 . S
O267 Sc264 2.025 . S
O267 Sc265 2.025 . S
O267 Sc266 2.025 . S
C268 O274 1.268 . S
C268 O284 1.268 . S
C269 O275 1.268 . S
C269 O283 1.268 . S
C270 O276 1.268 . S
C270 O285 1.268 . S
C271 O277 1.268 . S
C271 O281 1.268 . S
C272 O278 1.268 . S
C272 O280 1.268 . S
C273 O279 1.268 . S
C273 O282 1.268 . S
O274 Sc264 2.105 . S
O274 C268 1.268 . S
O275 Sc265 2.105 . S
O275 C269 1.268 . S
O276 Sc266 2.105 . S
O276 C270 1.268 . S
O277 Sc264 2.105 . S
O277 C271 1.268 . S
O278 Sc266 2.105 . S
O278 C272 1.268 . S
O279 Sc265 2.105 . S
O279 C273 1.268 . S
O280 Sc264 2.105 . S
O280 C272 1.268 . S
O281 Sc265 2.105 . S
O281 C271 1.268 . S
O282 Sc266 2.105 . S
O282 C273 1.268 . S
O283 Sc264 2.105 . S
O283 C269 1.268 . S
O284 Sc266 2.105 . S
O284 C268 1.268 . S
O285 Sc265 2.105 . S
O285 C270 1.268 . S
Sc286 O289 2.025 . S
Sc286 O296 2.105 . S
Sc286 O299 2.105 . S
Sc286 O302 2.105 . S
Sc286 O305 2.105 . S
Sc287 O289 2.025 . S
Sc287 O297 2.105 . S
Sc287 O301 2.105 . S
Sc287 O303 2.105 . S
Sc287 O307 2.105 . S
Sc288 O289 2.025 . S
Sc288 O298 2.105 . S
Sc288 O300 2.105 1_545 S
Sc288 O304 2.105 . S
Sc288 O306 2.105 . S
O289 Sc286 2.025 . S
O289 Sc287 2.025 . S
O289 Sc288 2.025 . S
C290 O296 1.268 . S
C290 O306 1.268 . S
C291 O297 1.268 . S
C291 O305 1.268 . S
C292 O298 1.268 . S
C292 O307 1.268 . S
C293 O299 1.268 . S
C293 O303 1.268 . S
C294 O300 1.268 . S
C294 O302 1.268 1_565 S
C295 O301 1.268 . S
C295 O304 1.268 . S
O296 Sc286 2.105 . S
O296 C290 1.268 . S
O297 Sc287 2.105 . S
O297 C291 1.268 . S
O298 Sc288 2.105 . S
O298 C292 1.268 . S
O299 Sc286 2.105 . S
O299 C293 1.268 . S
O300 Sc288 2.105 1_565 S
O300 C294 1.268 . S
O301 Sc287 2.105 . S
O301 C295 1.268 . S
O302 Sc286 2.105 . S
O302 C294 1.268 1_545 S
O303 Sc287 2.105 . S
O303 C293 1.268 . S
O304 Sc288 2.105 . S
O304 C295 1.268 . S
O305 Sc286 2.105 . S
O305 C291 1.268 . S
O306 Sc288 2.105 . S
O306 C290 1.268 . S
O307 Sc287 2.105 . S
O307 C292 1.268 . S
Sc308 O311 2.025 . S
Sc308 O318 2.105 . S
Sc308 O321 2.105 . S
Sc308 O324 2.105 . S
Sc308 O327 2.105 . S
Sc309 O311 2.025 . S
Sc309 O319 2.105 . S
Sc309 O323 2.105 . S
Sc309 O325 2.105 . S
Sc309 O329 2.105 . S
Sc310 O311 2.025 . S
Sc310 O320 2.105 . S
Sc310 O322 2.105 1_655 S
Sc310 O326 2.105 . S
Sc310 O328 2.105 1_655 S
O311 Sc308 2.025 . S
O311 Sc309 2.025 . S
O311 Sc310 2.025 . S
C312 O318 1.268 . S
C312 O328 1.268 1_655 S
C313 O319 1.268 . S
C313 O327 1.268 . S
C314 O320 1.268 . S
C314 O329 1.268 . S
C315 O321 1.268 . S
C315 O325 1.268 . S
C316 O322 1.268 . S
C316 O324 1.268 1_455 S
C317 O323 1.268 . S
C317 O326 1.268 . S
O318 Sc308 2.105 . S
O318 C312 1.268 . S
O319 Sc309 2.105 . S
O319 C313 1.268 . S
O320 Sc310 2.105 . S
O320 C314 1.268 . S
O321 Sc308 2.105 . S
O321 C315 1.268 . S
O322 Sc310 2.105 1_455 S
O322 C316 1.268 . S
O323 Sc309 2.105 . S
O323 C317 1.268 . S
O324 Sc308 2.105 . S
O324 C316 1.268 1_655 S
O325 Sc309 2.105 . S
O325 C315 1.268 . S
O326 Sc310 2.105 . S
O326 C317 1.268 . S
O327 Sc308 2.105 . S
O327 C313 1.268 . S
O328 Sc310 2.105 1_455 S
O328 C312 1.268 1_455 S
O329 Sc309 2.105 . S
O329 C314 1.268 . S
Sc330 O333 2.025 . S
Sc330 O340 2.105 . S
Sc330 O343 2.105 . S
Sc330 O346 2.105 1_545 S
Sc330 O349 2.105 . S
Sc331 O333 2.025 . S
Sc331 O341 2.105 . S
Sc331 O345 2.105 . S
Sc331 O347 2.105 . S
Sc331 O351 2.105 . S
Sc332 O333 2.025 . S
Sc332 O342 2.105 . S
Sc332 O344 2.105 . S
Sc332 O348 2.105 . S
Sc332 O350 2.105 . S
O333 Sc330 2.025 . S
O333 Sc331 2.025 . S
O333 Sc332 2.025 . S
C334 O340 1.268 . S
C334 O350 1.268 . S
C335 O341 1.268 . S
C335 O349 1.268 . S
C336 O342 1.268 . S
C336 O351 1.268 . S
C337 O343 1.268 . S
C337 O347 1.268 . S
C338 O344 1.268 1_565 S
C338 O346 1.268 . S
C339 O345 1.268 . S
C339 O348 1.268 . S
O340 Sc330 2.105 . S
O340 C334 1.268 . S
O341 Sc331 2.105 . S
O341 C335 1.268 . S
O342 Sc332 2.105 . S
O342 C336 1.268 . S
O343 Sc330 2.105 . S
O343 C337 1.268 . S
O344 Sc332 2.105 . S
O344 C338 1.268 1_545 S
O345 Sc331 2.105 . S
O345 C339 1.268 . S
O346 Sc330 2.105 1_565 S
O346 C338 1.268 . S
O347 Sc331 2.105 . S
O347 C337 1.268 . S
O348 Sc332 2.105 . S
O348 C339 1.268 . S
O349 Sc330 2.105 . S
O349 C335 1.268 . S
O350 Sc332 2.105 . S
O350 C334 1.268 . S
O351 Sc331 2.105 . S
O351 C336 1.268 . S
Sc352 O355 2.025 . S
Sc352 O362 2.105 . S
Sc352 O365 2.105 . S
Sc352 O368 2.105 . S
Sc352 O371 2.105 . S
Sc353 O355 2.025 . S
Sc353 O363 2.105 . S
Sc353 O367 2.105 . S
Sc353 O369 2.105 . S
Sc353 O373 2.105 . S
Sc354 O355 2.025 . S
Sc354 O364 2.105 1_655 S
Sc354 O366 2.105 . S
Sc354 O370 2.105 1_655 S
Sc354 O372 2.105 . S
O355 Sc352 2.025 . S
O355 Sc353 2.025 . S
O355 Sc354 2.025 . S
C356 O362 1.268 . S
C356 O372 1.268 . S
C357 O363 1.268 . S
C357 O371 1.268 . S
C358 O364 1.268 1_655 S
C358 O373 1.268 . S
C359 O365 1.268 . S
C359 O369 1.268 . S
C360 O366 1.268 . S
C360 O368 1.268 . S
C361 O367 1.268 1_455 S
C361 O370 1.268 . S
O362 Sc352 2.105 . S
O362 C356 1.268 . S
O363 Sc353 2.105 . S
O363 C357 1.268 . S
O364 Sc354 2.105 1_455 S
O364 C358 1.268 1_455 S
O365 Sc352 2.105 . S
O365 C359 1.268 . S
O366 Sc354 2.105 . S
O366 C360 1.268 . S
O367 Sc353 2.105 . S
O367 C361 1.268 1_655 S
O368 Sc352 2.105 . S
O368 C360 1.268 . S
O369 Sc353 2.105 . S
O369 C359 1.268 . S
O370 Sc354 2.105 1_455 S
O370 C361 1.268 . S
O371 Sc352 2.105 . S
O371 C357 1.268 . S
O372 Sc354 2.105 . S
O372 C356 1.268 . S
O373 Sc353 2.105 . S
O373 C358 1.268 . S
Sc374 O377 2.025 . S
Sc374 O384 2.105 . S
Sc374 O387 2.105 . S
Sc374 O390 2.105 . S
Sc374 O393 2.105 . S
Sc375 O377 2.025 . S
Sc375 O385 2.105 . S
Sc375 O389 2.105 . S
Sc375 O391 2.105 . S
Sc375 O395 2.105 . S
Sc376 O377 2.025 . S
Sc376 O386 2.105 . S
Sc376 O388 2.105 . S
Sc376 O392 2.105 . S
Sc376 O394 2.105 . S
O377 Sc374 2.025 . S
O377 Sc375 2.025 . S
O377 Sc376 2.025 . S
C378 O384 1.268 . S
C378 O394 1.268 . S
C379 O385 1.268 . S
C379 O393 1.268 . S
C380 O386 1.268 . S
C380 O395 1.268 . S
C381 O387 1.268 . S
C381 O391 1.268 . S
C382 O388 1.268 . S
C382 O390 1.268 . S
C383 O389 1.268 . S
C383 O392 1.268 . S
O384 Sc374 2.105 . S
O384 C378 1.268 . S
O385 Sc375 2.105 . S
O385 C379 1.268 . S
O386 Sc376 2.105 . S
O386 C380 1.268 . S
O387 Sc374 2.105 . S
O387 C381 1.268 . S
O388 Sc376 2.105 . S
O388 C382 1.268 . S
O389 Sc375 2.105 . S
O389 C383 1.268 . S
O390 Sc374 2.105 . S
O390 C382 1.268 . S
O391 Sc375 2.105 . S
O391 C381 1.268 . S
O392 Sc376 2.105 . S
O392 C383 1.268 . S
O393 Sc374 2.105 . S
O393 C379 1.268 . S
O394 Sc376 2.105 . S
O394 C378 1.268 . S
O395 Sc375 2.105 . S
O395 C380 1.268 . S
C396 C397 1.363 . S
C396 C402 1.379 . S
C396 N404 1.356 . S
C397 C396 1.363 . S
C397 C403 1.363 . S
C398 C399 1.363 . S
C398 C403 1.379 . S
C398 N405 1.356 . S
C399 C398 1.363 . S
C399 C402 1.363 . S
N400 C402 1.356 1_655 S
N400 H412 0.984 . S
N400 H413 0.985 . S
N401 C403 1.356 . S
N401 H406 0.984 . S
N401 H407 0.985 . S
C402 C396 1.379 . S
C402 C399 1.363 . S
C402 N400 1.356 1_455 S
C403 C397 1.363 . S
C403 C398 1.379 . S
C403 N401 1.356 . S
N404 C396 1.356 . S
N404 H410 0.984 . S
N404 H411 0.984 . S
N405 C398 1.356 . S
N405 H408 0.984 . S
N405 H409 0.985 . S
H406 N401 0.984 . S
H407 N401 0.985 . S
H408 N405 0.984 . S
H409 N405 0.985 . S
H410 N404 0.984 . S
H411 N404 0.984 . S
H412 N400 0.984 . S
H413 N400 0.985 . S
C414 C415 1.363 . S
C414 C420 1.379 . S
C414 N422 1.356 . S
C415 C414 1.363 . S
C415 C421 1.363 . S
C416 C417 1.363 . S
C416 C421 1.379 . S
C416 N423 1.356 . S
C417 C416 1.363 . S
C417 C420 1.363 . S
N418 C420 1.356 . S
N418 H430 0.984 . S
N418 H431 0.985 . S
N419 C421 1.356 . S
N419 H424 0.984 . S
N419 H425 0.985 . S
C420 C414 1.379 . S
C420 C417 1.363 . S
C420 N418 1.356 . S
C421 C415 1.363 . S
C421 C416 1.379 . S
C421 N419 1.356 . S
N422 C414 1.356 . S
N422 H428 0.984 . S
N422 H429 0.984 . S
N423 C416 1.356 . S
N423 H426 0.984 . S
N423 H427 0.985 . S
H424 N419 0.984 . S
H425 N419 0.985 . S
H426 N423 0.984 . S
H427 N423 0.985 . S
H428 N422 0.984 . S
H429 N422 0.984 . S
H430 N418 0.984 . S
H431 N418 0.985 . S
C432 C433 1.363 . S
C432 C438 1.379 . S
C432 N440 1.356 1_565 S
C433 C432 1.363 . S
C433 C439 1.363 . S
C434 C435 1.363 . S
C434 C439 1.379 . S
C434 N441 1.356 . S
C435 C434 1.363 . S
C435 C438 1.363 . S
N436 C438 1.356 . S
N436 H448 0.984 1_565 S
N436 H449 0.985 . S
N437 C439 1.356 . S
N437 H442 0.984 . S
N437 H443 0.985 . S
C438 C432 1.379 . S
C438 C435 1.363 . S
C438 N436 1.356 . S
C439 C433 1.363 . S
C439 C434 1.379 . S
C439 N437 1.356 . S
N440 C432 1.356 1_545 S
N440 H446 0.984 . S
N440 H447 0.984 . S
N441 C434 1.356 . S
N441 H444 0.984 . S
N441 H445 0.985 . S
H442 N437 0.984 . S
H443 N437 0.985 . S
H444 N441 0.984 . S
H445 N441 0.985 . S
H446 N440 0.984 . S
H447 N440 0.984 . S
H448 N436 0.984 1_545 S
H449 N436 0.985 . S
C450 C451 1.363 . S
C450 C456 1.379 . S
C450 N458 1.356 . S
C451 C450 1.363 . S
C451 C457 1.363 . S
C452 C453 1.363 . S
C452 C457 1.379 . S
C452 N459 1.356 . S
C453 C452 1.363 . S
C453 C456 1.363 . S
N454 C456 1.356 . S
N454 H466 0.984 . S
N454 H467 0.985 . S
N455 C457 1.356 . S
N455 H460 0.984 . S
N455 H461 0.985 . S
C456 C450 1.379 . S
C456 C453 1.363 . S
C456 N454 1.356 . S
C457 C451 1.363 . S
C457 C452 1.379 . S
C457 N455 1.356 . S
N458 C450 1.356 . S
N458 H464 0.984 . S
N458 H465 0.984 . S
N459 C452 1.356 . S
N459 H462 0.984 . S
N459 H463 0.985 . S
H460 N455 0.984 . S
H461 N455 0.985 . S
H462 N459 0.984 . S
H463 N459 0.985 . S
H464 N458 0.984 . S
H465 N458 0.984 . S
H466 N454 0.984 . S
H467 N454 0.985 . S
C468 C469 1.363 . S
C468 C474 1.379 . S
C468 N476 1.356 . S
C469 C468 1.363 . S
C469 C475 1.363 . S
C470 C471 1.363 . S
C470 C475 1.379 . S
C470 N477 1.356 . S
C471 C470 1.363 . S
C471 C474 1.363 . S
N472 C474 1.356 . S
N472 H484 0.984 . S
N472 H485 0.985 . S
N473 C475 1.356 1_455 S
N473 H478 0.984 . S
N473 H479 0.985 . S
C474 C468 1.379 . S
C474 C471 1.363 . S
C474 N472 1.356 . S
C475 C469 1.363 . S
C475 C470 1.379 . S
C475 N473 1.356 1_655 S
N476 C468 1.356 . S
N476 H482 0.984 . S
N476 H483 0.984 . S
N477 C470 1.356 . S
N477 H480 0.984 . S
N477 H481 0.985 1_655 S
H478 N473 0.984 . S
H479 N473 0.985 . S
H480 N477 0.984 . S
H481 N477 0.985 1_455 S
H482 N476 0.984 . S
H483 N476 0.984 . S
H484 N472 0.984 . S
H485 N472 0.985 . S
C486 C487 1.363 . S
C486 C492 1.379 . S
C486 N494 1.356 . S
C487 C486 1.363 . S
C487 C493 1.363 . S
C488 C489 1.363 . S
C488 C493 1.379 . S
C488 N495 1.356 . S
C489 C488 1.363 . S
C489 C492 1.363 . S
N490 C492 1.356 . S
N490 H502 0.984 . S
N490 H503 0.985 . S
N491 C493 1.356 . S
N491 H496 0.984 . S
N491 H497 0.985 . S
C492 C486 1.379 . S
C492 C489 1.363 . S
C492 N490 1.356 . S
C493 C487 1.363 . S
C493 C488 1.379 . S
C493 N491 1.356 . S
N494 C486 1.356 . S
N494 H500 0.984 . S
N494 H501 0.984 . S
N495 C488 1.356 . S
N495 H498 0.984 . S
N495 H499 0.985 . S
H496 N491 0.984 . S
H497 N491 0.985 . S
H498 N495 0.984 . S
H499 N495 0.985 . S
H500 N494 0.984 . S
H501 N494 0.984 . S
H502 N490 0.984 . S
H503 N490 0.985 . S
C504 C505 1.363 . S
C504 C510 1.379 . S
C504 N512 1.356 . S
C505 C504 1.363 . S
C505 C511 1.363 . S
C506 C507 1.363 . S
C506 C511 1.379 . S
C506 N513 1.356 . S
C507 C506 1.363 . S
C507 C510 1.363 . S
N508 C510 1.356 1_455 S
N508 H520 0.984 . S
N508 H521 0.985 . S
N509 C511 1.356 . S
N509 H514 0.984 . S
N509 H515 0.985 . S
C510 C504 1.379 . S
C510 C507 1.363 . S
C510 N508 1.356 1_655 S
C511 C505 1.363 . S
C511 C506 1.379 . S
C511 N509 1.356 . S
N512 C504 1.356 . S
N512 H518 0.984 . S
N512 H519 0.984 . S
N513 C506 1.356 . S
N513 H516 0.984 . S
N513 H517 0.985 . S
H514 N509 0.984 . S
H515 N509 0.985 . S
H516 N513 0.984 . S
H517 N513 0.985 . S
H518 N512 0.984 . S
H519 N512 0.984 . S
H520 N508 0.984 . S
H521 N508 0.985 . S
C522 C523 1.363 . S
C522 C528 1.379 . S
C522 N530 1.356 . S
C523 C522 1.363 . S
C523 C529 1.363 . S
C524 C525 1.363 . S
C524 C529 1.379 . S
C524 N531 1.356 . S
C525 C524 1.363 . S
C525 C528 1.363 . S
N526 C528 1.356 . S
N526 H538 0.984 . S
N526 H539 0.985 . S
N527 C529 1.356 . S
N527 H532 0.984 . S
N527 H533 0.985 . S
C528 C522 1.379 . S
C528 C525 1.363 . S
C528 N526 1.356 . S
C529 C523 1.363 . S
C529 C524 1.379 . S
C529 N527 1.356 . S
N530 C522 1.356 . S
N530 H536 0.984 . S
N530 H537 0.984 . S
N531 C524 1.356 . S
N531 H534 0.984 . S
N531 H535 0.985 . S
H532 N527 0.984 . S
H533 N527 0.985 . S
H534 N531 0.984 . S
H535 N531 0.985 . S
H536 N530 0.984 . S
H537 N530 0.984 . S
H538 N526 0.984 . S
H539 N526 0.985 . S
C540 C541 1.363 . S
C540 C546 1.379 . S
C540 N548 1.356 1_545 S
C541 C540 1.363 . S
C541 C547 1.363 . S
C542 C543 1.363 . S
C542 C547 1.379 . S
C542 N549 1.356 . S
C543 C542 1.363 . S
C543 C546 1.363 . S
N544 C546 1.356 . S
N544 H556 0.984 . S
N544 H557 0.985 . S
N545 C547 1.356 . S
N545 H550 0.984 . S
N545 H551 0.985 . S
C546 C540 1.379 . S
C546 C543 1.363 . S
C546 N544 1.356 . S
C547 C541 1.363 . S
C547 C542 1.379 . S
C547 N545 1.356 . S
N548 C540 1.356 1_565 S
N548 H554 0.984 . S
N548 H555 0.984 . S
N549 C542 1.356 . S
N549 H552 0.984 . S
N549 H553 0.985 . S
H550 N545 0.984 . S
H551 N545 0.985 . S
H552 N549 0.984 . S
H553 N549 0.985 . S
H554 N548 0.984 . S
H555 N548 0.984 . S
H556 N544 0.984 . S
H557 N544 0.985 . S
C558 C559 1.363 . S
C558 C564 1.379 . S
C558 N566 1.356 . S
C559 C558 1.363 . S
C559 C565 1.363 . S
C560 C561 1.363 . S
C560 C565 1.379 . S
C560 N567 1.356 1_565 S
C561 C560 1.363 . S
C561 C564 1.363 . S
N562 C564 1.356 . S
N562 H574 0.984 . S
N562 H575 0.985 . S
N563 C565 1.356 . S
N563 H568 0.984 . S
N563 H569 0.985 1_565 S
C564 C558 1.379 . S
C564 C561 1.363 . S
C564 N562 1.356 . S
C565 C559 1.363 . S
C565 C560 1.379 . S
C565 N563 1.356 . S
N566 C558 1.356 . S
N566 H572 0.984 . S
N566 H573 0.984 . S
N567 C560 1.356 1_545 S
N567 H570 0.984 . S
N567 H571 0.985 . S
H568 N563 0.984 . S
H569 N563 0.985 1_545 S
H570 N567 0.984 . S
H571 N567 0.985 . S
H572 N566 0.984 . S
H573 N566 0.984 . S
H574 N562 0.984 . S
H575 N562 0.985 . S
C576 C577 1.363 . S
C576 C582 1.379 . S
C576 N584 1.356 . S
C577 C576 1.363 . S
C577 C583 1.363 . S
C578 C579 1.363 . S
C578 C583 1.379 . S
C578 N585 1.356 . S
C579 C578 1.363 . S
C579 C582 1.363 . S
N580 C582 1.356 . S
N580 H592 0.984 . S
N580 H593 0.985 . S
N581 C583 1.356 . S
N581 H586 0.984 . S
N581 H587 0.985 . S
C582 C576 1.379 . S
C582 C579 1.363 . S
C582 N580 1.356 . S
C583 C577 1.363 . S
C583 C578 1.379 . S
C583 N581 1.356 . S
N584 C576 1.356 . S
N584 H590 0.984 . S
N584 H591 0.984 . S
N585 C578 1.356 . S
N585 H588 0.984 . S
N585 H589 0.985 . S
H586 N581 0.984 . S
H587 N581 0.985 . S
H588 N585 0.984 . S
H589 N585 0.985 . S
H590 N584 0.984 . S
H591 N584 0.984 . S
H592 N580 0.984 . S
H593 N580 0.985 . S
C594 C595 1.363 . S
C594 C600 1.379 . S
C594 N602 1.356 . S
C595 C594 1.363 . S
C595 C601 1.363 . S
C596 C597 1.363 . S
C596 C601 1.379 . S
C596 N603 1.356 . S
C597 C596 1.363 . S
C597 C600 1.363 . S
N598 C600 1.356 . S
N598 H610 0.984 . S
N598 H611 0.985 . S
N599 C601 1.356 . S
N599 H604 0.984 . S
N599 H605 0.985 . S
C600 C594 1.379 . S
C600 C597 1.363 . S
C600 N598 1.356 . S
C601 C595 1.363 . S
C601 C596 1.379 . S
C601 N599 1.356 . S
N602 C594 1.356 . S
N602 H608 0.984 . S
N602 H609 0.984 . S
N603 C596 1.356 . S
N603 H606 0.984 . S
N603 H607 0.985 . S
H604 N599 0.984 . S
H605 N599 0.985 . S
H606 N603 0.984 . S
H607 N603 0.985 . S
H608 N602 0.984 . S
H609 N602 0.984 . S
H610 N598 0.984 . S
H611 N598 0.985 . S
C612 C613 1.363 . S
C612 C618 1.379 . S
C612 N620 1.356 . S
C613 C612 1.363 . S
C613 C619 1.363 . S
C614 C615 1.363 . S
C614 C619 1.379 . S
C614 N621 1.356 . S
C615 C614 1.363 . S
C615 C618 1.363 . S
N616 C618 1.356 . S
N616 H628 0.984 . S
N616 H629 0.985 . S
N617 C619 1.356 . S
N617 H622 0.984 . S
N617 H623 0.985 . S
C618 C612 1.379 . S
C618 C615 1.363 . S
C618 N616 1.356 . S
C619 C613 1.363 . S
C619 C614 1.379 . S
C619 N617 1.356 . S
N620 C612 1.356 . S
N620 H626 0.984 . S
N620 H627 0.984 . S
N621 C614 1.356 . S
N621 H624 0.984 . S
N621 H625 0.985 . S
H622 N617 0.984 . S
H623 N617 0.985 . S
H624 N621 0.984 . S
H625 N621 0.985 . S
H626 N620 0.984 . S
H627 N620 0.984 . S
H628 N616 0.984 . S
H629 N616 0.985 . S
C630 C631 1.363 . S
C630 C636 1.379 . S
C630 N638 1.356 . S
C631 C630 1.363 . S
C631 C637 1.363 . S
C632 C633 1.363 . S
C632 C637 1.379 . S
C632 N639 1.356 . S
C633 C632 1.363 . S
C633 C636 1.363 . S
N634 C636 1.356 . S
N634 H646 0.984 . S
N634 H647 0.985 . S
N635 C637 1.356 . S
N635 H640 0.984 1_565 S
N635 H641 0.985 . S
C636 C630 1.379 . S
C636 C633 1.363 . S
C636 N634 1.356 . S
C637 C631 1.363 . S
C637 C632 1.379 . S
C637 N635 1.356 . S
N638 C630 1.356 . S
N638 H644 0.984 . S
N638 H645 0.984 . S
N639 C632 1.356 . S
N639 H642 0.984 . S
N639 H643 0.985 . S
H640 N635 0.984 1_545 S
H641 N635 0.985 . S
H642 N639 0.984 . S
H643 N639 0.985 . S
H644 N638 0.984 . S
H645 N638 0.984 . S
H646 N634 0.984 . S
H647 N634 0.985 . S
C648 C649 1.363 . S
C648 C654 1.379 . S
C648 N656 1.356 . S
C649 C648 1.363 . S
C649 C655 1.363 . S
C650 C651 1.363 . S
C650 C655 1.379 . S
C650 N657 1.356 . S
C651 C650 1.363 . S
C651 C654 1.363 . S
N652 C654 1.356 . S
N652 H664 0.984 . S
N652 H665 0.985 . S
N653 C655 1.356 . S
N653 H658 0.984 . S
N653 H659 0.985 . S
C654 C648 1.379 . S
C654 C651 1.363 . S
C654 N652 1.356 . S
C655 C649 1.363 . S
C655 C650 1.379 . S
C655 N653 1.356 . S
N656 C648 1.356 . S
N656 H662 0.984 . S
N656 H663 0.984 1_455 S
N657 C650 1.356 . S
N657 H660 0.984 . S
N657 H661 0.985 . S
H658 N653 0.984 . S
H659 N653 0.985 . S
H660 N657 0.984 . S
H661 N657 0.985 . S
H662 N656 0.984 . S
H663 N656 0.984 1_655 S
H664 N652 0.984 . S
H665 N652 0.985 . S
C666 C667 1.363 . S
C666 C672 1.379 . S
C666 N674 1.356 . S
C667 C666 1.363 . S
C667 C673 1.363 . S
C668 C669 1.363 . S
C668 C673 1.379 . S
C668 N675 1.356 . S
C669 C668 1.363 . S
C669 C672 1.363 . S
N670 C672 1.356 . S
N670 H682 0.984 . S
N670 H683 0.985 . S
N671 C673 1.356 . S
N671 H676 0.984 . S
N671 H677 0.985 . S
C672 C666 1.379 . S
C672 C669 1.363 . S
C672 N670 1.356 . S
C673 C667 1.363 . S
C673 C668 1.379 . S
C673 N671 1.356 . S
N674 C666 1.356 . S
N674 H680 0.984 . S
N674 H681 0.984 . S
N675 C668 1.356 . S
N675 H678 0.984 . S
N675 H679 0.985 . S
H676 N671 0.984 . S
H677 N671 0.985 . S
H678 N675 0.984 . S
H679 N675 0.985 . S
H680 N674 0.984 . S
H681 N674 0.984 . S
H682 N670 0.984 . S
H683 N670 0.985 . S
C684 C685 1.363 . S
C684 C690 1.379 . S
C684 N692 1.356 . S
C685 C684 1.363 . S
C685 C691 1.363 . S
C686 C687 1.363 . S
C686 C691 1.379 . S
C686 N693 1.356 . S
C687 C686 1.363 . S
C687 C690 1.363 . S
N688 C690 1.356 . S
N688 H700 0.984 . S
N688 H701 0.985 . S
N689 C691 1.356 . S
N689 H694 0.984 . S
N689 H695 0.985 . S
C690 C684 1.379 . S
C690 C687 1.363 . S
C690 N688 1.356 . S
C691 C685 1.363 . S
C691 C686 1.379 . S
C691 N689 1.356 . S
N692 C684 1.356 . S
N692 H698 0.984 . S
N692 H699 0.984 . S
N693 C686 1.356 . S
N693 H696 0.984 . S
N693 H697 0.985 . S
H694 N689 0.984 . S
H695 N689 0.985 . S
H696 N693 0.984 . S
H697 N693 0.985 . S
H698 N692 0.984 . S
H699 N692 0.984 . S
H700 N688 0.984 . S
H701 N688 0.985 . S
C702 C703 1.363 . S
C702 C708 1.379 . S
C702 N710 1.356 . S
C703 C702 1.363 . S
C703 C709 1.363 . S
C704 C705 1.363 . S
C704 C709 1.379 . S
C704 N711 1.356 . S
C705 C704 1.363 . S
C705 C708 1.363 . S
N706 C708 1.356 . S
N706 H718 0.984 . S
N706 H719 0.985 . S
N707 C709 1.356 . S
N707 H712 0.984 . S
N707 H713 0.985 . S
C708 C702 1.379 . S
C708 C705 1.363 . S
C708 N706 1.356 . S
C709 C703 1.363 . S
C709 C704 1.379 . S
C709 N707 1.356 . S
N710 C702 1.356 . S
N710 H716 0.984 . S
N710 H717 0.984 . S
N711 C704 1.356 . S
N711 H714 0.984 . S
N711 H715 0.985 . S
H712 N707 0.984 . S
H713 N707 0.985 . S
H714 N711 0.984 . S
H715 N711 0.985 . S
H716 N710 0.984 . S
H717 N710 0.984 . S
H718 N706 0.984 . S
H719 N706 0.985 . S
C720 C721 1.363 . S
C720 C726 1.379 . S
C720 N728 1.356 . S
C721 C720 1.363 . S
C721 C727 1.363 . S
C722 C723 1.363 . S
C722 C727 1.379 . S
C722 N729 1.356 . S
C723 C722 1.363 . S
C723 C726 1.363 . S
N724 C726 1.356 . S
N724 H736 0.984 . S
N724 H737 0.985 . S
N725 C727 1.356 . S
N725 H730 0.984 . S
N725 H731 0.985 . S
C726 C720 1.379 . S
C726 C723 1.363 . S
C726 N724 1.356 . S
C727 C721 1.363 . S
C727 C722 1.379 . S
C727 N725 1.356 . S
N728 C720 1.356 . S
N728 H734 0.984 . S
N728 H735 0.984 . S
N729 C722 1.356 . S
N729 H732 0.984 . S
N729 H733 0.985 . S
H730 N725 0.984 . S
H731 N725 0.985 . S
H732 N729 0.984 . S
H733 N729 0.985 . S
H734 N728 0.984 . S
H735 N728 0.984 . S
H736 N724 0.984 . S
H737 N724 0.985 . S
C738 C739 1.363 . S
C738 C744 1.379 . S
C738 N746 1.356 . S
C739 C738 1.363 . S
C739 C745 1.363 . S
C740 C741 1.363 . S
C740 C745 1.379 . S
C740 N747 1.356 . S
C741 C740 1.363 . S
C741 C744 1.363 . S
N742 C744 1.356 . S
N742 H754 0.984 . S
N742 H755 0.985 . S
N743 C745 1.356 . S
N743 H748 0.984 . S
N743 H749 0.985 . S
C744 C738 1.379 . S
C744 C741 1.363 . S
C744 N742 1.356 . S
C745 C739 1.363 . S
C745 C740 1.379 . S
C745 N743 1.356 . S
N746 C738 1.356 . S
N746 H752 0.984 . S
N746 H753 0.984 . S
N747 C740 1.356 . S
N747 H750 0.984 . S
N747 H751 0.985 . S
H748 N743 0.984 . S
H749 N743 0.985 . S
H750 N747 0.984 . S
H751 N747 0.985 . S
H752 N746 0.984 . S
H753 N746 0.984 . S
H754 N742 0.984 . S
H755 N742 0.985 . S
C756 C757 1.363 . S
C756 C762 1.379 . S
C756 N764 1.356 . S
C757 C756 1.363 . S
C757 C763 1.363 . S
C758 C759 1.363 . S
C758 C763 1.379 . S
C758 N765 1.356 . S
C759 C758 1.363 . S
C759 C762 1.363 . S
N760 C762 1.356 . S
N760 H772 0.984 . S
N760 H773 0.985 . S
N761 C763 1.356 . S
N761 H766 0.984 . S
N761 H767 0.985 . S
C762 C756 1.379 . S
C762 C759 1.363 . S
C762 N760 1.356 . S
C763 C757 1.363 . S
C763 C758 1.379 . S
C763 N761 1.356 . S
N764 C756 1.356 . S
N764 H770 0.984 . S
N764 H771 0.984 . S
N765 C758 1.356 . S
N765 H768 0.984 . S
N765 H769 0.985 . S
H766 N761 0.984 . S
H767 N761 0.985 . S
H768 N765 0.984 . S
H769 N765 0.985 . S
H770 N764 0.984 . S
H771 N764 0.984 . S
H772 N760 0.984 . S
H773 N760 0.985 . S
C774 C775 1.363 . S
C774 C780 1.379 . S
C774 N782 1.356 . S
C775 C774 1.363 . S
C775 C781 1.363 1_554 S
C776 C777 1.363 . S
C776 C781 1.379 . S
C776 N783 1.356 . S
C777 C776 1.363 . S
C777 C780 1.363 1_556 S
N778 C780 1.356 . S
N778 H790 0.984 . S
N778 H791 0.985 . S
N779 C781 1.356 . S
N779 H784 0.984 . S
N779 H785 0.985 . S
C780 C774 1.379 . S
C780 C777 1.363 1_554 S
C780 N778 1.356 . S
C781 C775 1.363 1_556 S
C781 C776 1.379 . S
C781 N779 1.356 . S
N782 C774 1.356 . S
N782 H788 0.984 . S
N782 H789 0.984 . S
N783 C776 1.356 . S
N783 H786 0.984 . S
N783 H787 0.985 . S
H784 N779 0.984 . S
H785 N779 0.985 . S
H786 N783 0.984 . S
H787 N783 0.985 . S
H788 N782 0.984 . S
H789 N782 0.984 . S
H790 N778 0.984 . S
H791 N778 0.985 . S
C792 C793 1.363 1_556 S
C792 C798 1.379 . S
C792 N800 1.356 . S
C793 C792 1.363 1_554 S
C793 C799 1.363 . S
C794 C795 1.363 . S
C794 C799 1.379 1_556 S
C794 N801 1.356 . S
C795 C794 1.363 . S
C795 C798 1.363 . S
N796 C798 1.356 . S
N796 H808 0.984 . S
N796 H809 0.985 . S
N797 C799 1.356 . S
N797 H802 0.984 . S
N797 H803 0.985 . S
C798 C792 1.379 . S
C798 C795 1.363 . S
C798 N796 1.356 . S
C799 C793 1.363 . S
C799 C794 1.379 1_554 S
C799 N797 1.356 . S
N800 C792 1.356 . S
N800 H806 0.984 . S
N800 H807 0.984 . S
N801 C794 1.356 . S
N801 H804 0.984 1_565 S
N801 H805 0.985 1_556 S
H802 N797 0.984 . S
H803 N797 0.985 . S
H804 N801 0.984 1_545 S
H805 N801 0.985 1_554 S
H806 N800 0.984 . S
H807 N800 0.984 . S
H808 N796 0.984 . S
H809 N796 0.985 . S
C810 C811 1.363 1_556 S
C810 C816 1.379 . S
C810 N818 1.356 . S
C811 C810 1.363 1_554 S
C811 C817 1.363 1_554 S
C812 C813 1.363 . S
C812 C817 1.380 . S
C812 N819 1.356 . S
C813 C812 1.363 . S
C813 C816 1.363 . S
N814 C816 1.356 . S
N814 H826 0.984 . S
N814 H827 0.985 . S
N815 C817 1.355 1_554 S
N815 H820 0.984 . S
N815 H821 0.985 . S
C816 C810 1.379 . S
C816 C813 1.363 . S
C816 N814 1.356 . S
C817 C811 1.363 1_556 S
C817 C812 1.380 . S
C817 N815 1.355 1_556 S
N818 C810 1.356 . S
N818 H824 0.984 . S
N818 H825 0.984 1_556 S
N819 C812 1.356 . S
N819 H822 0.984 . S
N819 H823 0.985 . S
H820 N815 0.984 . S
H821 N815 0.985 . S
H822 N819 0.984 . S
H823 N819 0.985 . S
H824 N818 0.984 . S
H825 N818 0.984 1_554 S
H826 N814 0.984 . S
H827 N814 0.985 . S
C828 C829 1.363 . S
C828 C834 1.379 . S
C828 N836 1.356 . S
C829 C828 1.363 . S
C829 C835 1.363 . S
C830 C831 1.363 . S
C830 C835 1.379 . S
C830 N837 1.356 . S
C831 C830 1.363 . S
C831 C834 1.363 . S
N832 C834 1.356 . S
N832 H844 0.984 . S
N832 H845 0.985 . S
N833 C835 1.356 . S
N833 H838 0.984 . S
N833 H839 0.985 . S
C834 C828 1.379 . S
C834 C831 1.363 . S
C834 N832 1.356 . S
C835 C829 1.363 . S
C835 C830 1.379 . S
C835 N833 1.356 . S
N836 C828 1.356 . S
N836 H842 0.984 . S
N836 H843 0.984 . S
N837 C830 1.356 . S
N837 H840 0.984 . S
N837 H841 0.985 . S
H838 N833 0.984 . S
H839 N833 0.985 . S
H840 N837 0.984 . S
H841 N837 0.985 . S
H842 N836 0.984 . S
H843 N836 0.984 . S
H844 N832 0.984 . S
H845 N832 0.985 . S
C846 C847 1.363 . S
C846 C852 1.379 . S
C846 N854 1.356 . S
C847 C846 1.363 . S
C847 C853 1.363 . S
C848 C849 1.363 . S
C848 C853 1.379 . S
C848 N855 1.356 . S
C849 C848 1.363 . S
C849 C852 1.363 . S
N850 C852 1.356 . S
N850 H862 0.984 . S
N850 H863 0.985 . S
N851 C853 1.356 . S
N851 H856 0.984 . S
N851 H857 0.985 . S
C852 C846 1.379 . S
C852 C849 1.363 . S
C852 N850 1.356 . S
C853 C847 1.363 . S
C853 C848 1.379 . S
C853 N851 1.356 . S
N854 C846 1.356 . S
N854 H860 0.984 . S
N854 H861 0.984 . S
N855 C848 1.356 . S
N855 H858 0.984 . S
N855 H859 0.985 . S
H856 N851 0.984 . S
H857 N851 0.985 . S
H858 N855 0.984 . S
H859 N855 0.985 . S
H860 N854 0.984 . S
H861 N854 0.984 . S
H862 N850 0.984 . S
H863 N850 0.985 . S
C864 C865 1.363 . S
C864 C870 1.379 . S
C864 N872 1.356 . S
C865 C864 1.363 . S
C865 C871 1.363 . S
C866 C867 1.363 . S
C866 C871 1.379 . S
C866 N873 1.356 . S
C867 C866 1.363 . S
C867 C870 1.363 . S
N868 C870 1.356 . S
N868 H880 0.984 . S
N868 H881 0.985 . S
N869 C871 1.356 . S
N869 H874 0.984 . S
N869 H875 0.985 . S
C870 C864 1.379 . S
C870 C867 1.363 . S
C870 N868 1.356 . S
C871 C865 1.363 . S
C871 C866 1.379 . S
C871 N869 1.356 . S
N872 C864 1.356 . S
N872 H878 0.984 . S
N872 H879 0.984 . S
N873 C866 1.356 . S
N873 H876 0.984 . S
N873 H877 0.985 . S
H874 N869 0.984 . S
H875 N869 0.985 . S
H876 N873 0.984 . S
H877 N873 0.985 . S
H878 N872 0.984 . S
H879 N872 0.984 . S
H880 N868 0.984 . S
H881 N868 0.985 . S
C882 C883 1.363 . S
C882 C888 1.379 1_556 S
C882 N890 1.356 . S
C883 C882 1.363 . S
C883 C889 1.363 1_556 S
C884 C885 1.363 . S
C884 C889 1.379 . S
C884 N891 1.356 . S
C885 C884 1.363 . S
C885 C888 1.363 . S
N886 C888 1.356 . S
N886 H898 0.984 1_554 S
N886 H899 0.985 . S
N887 C889 1.356 . S
N887 H892 0.984 . S
N887 H893 0.985 . S
C888 C882 1.379 1_554 S
C888 C885 1.363 . S
C888 N886 1.356 . S
C889 C883 1.363 1_554 S
C889 C884 1.379 . S
C889 N887 1.356 . S
N890 C882 1.356 . S
N890 H896 0.984 . S
N890 H897 0.984 . S
N891 C884 1.356 . S
N891 H894 0.984 . S
N891 H895 0.985 . S
H892 N887 0.984 . S
H893 N887 0.985 . S
H894 N891 0.984 . S
H895 N891 0.985 . S
H896 N890 0.984 . S
H897 N890 0.984 . S
H898 N886 0.984 1_556 S
H899 N886 0.985 . S
C900 C901 1.363 . S
C900 C906 1.379 . S
C900 N908 1.356 . S
C901 C900 1.363 . S
C901 C907 1.363 1_556 S
C902 C903 1.363 . S
C902 C907 1.379 . S
C902 N909 1.356 . S
C903 C902 1.363 . S
C903 C906 1.363 1_554 S
N904 C906 1.356 . S
N904 H916 0.984 . S
N904 H917 0.985 1_546 S
N905 C907 1.356 . S
N905 H910 0.984 . S
N905 H911 0.985 . S
C906 C900 1.379 . S
C906 C903 1.363 1_556 S
C906 N904 1.356 . S
C907 C901 1.363 1_554 S
C907 C902 1.379 . S
C907 N905 1.356 . S
N908 C900 1.356 . S
N908 H914 0.984 . S
N908 H915 0.984 . S
N909 C902 1.356 . S
N909 H912 0.984 . S
N909 H913 0.985 . S
H910 N905 0.984 . S
H911 N905 0.985 . S
H912 N909 0.984 . S
H913 N909 0.985 . S
H914 N908 0.984 . S
H915 N908 0.984 . S
H916 N904 0.984 . S
H917 N904 0.985 1_564 S
C918 C919 1.363 . S
C918 C924 1.379 1_556 S
C918 N926 1.356 . S
C919 C918 1.363 . S
C919 C925 1.363 1_556 S
C920 C921 1.363 . S
C920 C925 1.379 . S
C920 N927 1.356 . S
C921 C920 1.363 . S
C921 C924 1.363 . S
N922 C924 1.356 . S
N922 H934 0.984 1_554 S
N922 H935 0.985 1_655 S
N923 C925 1.356 . S
N923 H928 0.984 . S
N923 H929 0.985 . S
C924 C918 1.379 1_554 S
C924 C921 1.363 . S
C924 N922 1.356 . S
C925 C919 1.363 1_554 S
C925 C920 1.379 . S
C925 N923 1.356 . S
N926 C918 1.356 . S
N926 H932 0.984 . S
N926 H933 0.984 . S
N927 C920 1.356 . S
N927 H930 0.984 . S
N927 H931 0.985 . S
H928 N923 0.984 . S
H929 N923 0.985 . S
H930 N927 0.984 . S
H931 N927 0.985 . S
H932 N926 0.984 . S
H933 N926 0.984 . S
H934 N922 0.984 1_556 S
H935 N922 0.985 1_455 S
C936 C937 1.363 . S
C936 C942 1.379 . S
C936 N944 1.356 . S
C937 C936 1.363 . S
C937 C943 1.363 . S
C938 C939 1.363 . S
C938 C943 1.379 . S
C938 N945 1.356 . S
C939 C938 1.363 . S
C939 C942 1.363 . S
N940 C942 1.356 . S
N940 H952 0.984 . S
N940 H953 0.985 . S
N941 C943 1.356 . S
N941 H946 0.984 . S
N941 H947 0.985 . S
C942 C936 1.379 . S
C942 C939 1.363 . S
C942 N940 1.356 . S
C943 C937 1.363 . S
C943 C938 1.379 . S
C943 N941 1.356 . S
N944 C936 1.356 . S
N944 H950 0.984 . S
N944 H951 0.984 . S
N945 C938 1.356 . S
N945 H948 0.984 . S
N945 H949 0.985 . S
H946 N941 0.984 . S
H947 N941 0.985 . S
H948 N945 0.984 . S
H949 N945 0.985 . S
H950 N944 0.984 . S
H951 N944 0.984 . S
H952 N940 0.984 . S
H953 N940 0.985 . S
C954 C955 1.363 . S
C954 C960 1.379 . S
C954 N962 1.356 . S
C955 C954 1.363 . S
C955 C961 1.363 . S
C956 C957 1.363 . S
C956 C961 1.379 . S
C956 N963 1.356 . S
C957 C956 1.363 . S
C957 C960 1.363 . S
N958 C960 1.356 . S
N958 H970 0.984 . S
N958 H971 0.985 . S
N959 C961 1.356 . S
N959 H964 0.984 . S
N959 H965 0.985 . S
C960 C954 1.379 . S
C960 C957 1.363 . S
C960 N958 1.356 . S
C961 C955 1.363 . S
C961 C956 1.379 . S
C961 N959 1.356 . S
N962 C954 1.356 . S
N962 H968 0.984 . S
N962 H969 0.984 . S
N963 C956 1.356 . S
N963 H966 0.984 1_545 S
N963 H967 0.985 . S
H964 N959 0.984 . S
H965 N959 0.985 . S
H966 N963 0.984 1_565 S
H967 N963 0.985 . S
H968 N962 0.984 . S
H969 N962 0.984 . S
H970 N958 0.984 . S
H971 N958 0.985 . S
C972 C973 1.363 . S
C972 C978 1.379 . S
C972 N980 1.356 . S
C973 C972 1.363 . S
C973 C979 1.363 . S
C974 C975 1.363 . S
C974 C979 1.379 . S
C974 N981 1.356 . S
C975 C974 1.363 . S
C975 C978 1.363 . S
N976 C978 1.356 . S
N976 H988 0.984 . S
N976 H989 0.985 . S
N977 C979 1.356 . S
N977 H982 0.984 . S
N977 H983 0.985 . S
C978 C972 1.379 . S
C978 C975 1.363 . S
C978 N976 1.356 . S
C979 C973 1.363 . S
C979 C974 1.379 . S
C979 N977 1.356 . S
N980 C972 1.356 . S
N980 H986 0.984 . S
N980 H987 0.984 1_655 S
N981 C974 1.356 . S
N981 H984 0.984 . S
N981 H985 0.985 . S
H982 N977 0.984 . S
H983 N977 0.985 . S
H984 N981 0.984 . S
H985 N981 0.985 . S
H986 N980 0.984 . S
H987 N980 0.984 1_455 S
H988 N976 0.984 . S
H989 N976 0.985 . S
C990 C991 1.363 . S
C990 C996 1.379 . S
C990 N998 1.356 . S
C991 C990 1.363 . S
C991 C997 1.363 . S
C992 C993 1.363 . S
C992 C997 1.379 . S
C992 N999 1.356 . S
C993 C992 1.363 . S
C993 C996 1.363 . S
N994 C996 1.356 . S
N994 H1006 0.984 . S
N994 H1007 0.985 . S
N995 C997 1.356 . S
N995 H1000 0.984 . S
N995 H1001 0.985 . S
C996 C990 1.379 . S
C996 C993 1.363 . S
C996 N994 1.356 . S
C997 C991 1.363 . S
C997 C992 1.379 . S
C997 N995 1.356 . S
N998 C990 1.356 . S
N998 H1004 0.984 . S
N998 H1005 0.984 . S
N999 C992 1.356 . S
N999 H1002 0.984 . S
N999 H1003 0.985 . S
H1000 N995 0.984 . S
H1001 N995 0.985 . S
H1002 N999 0.984 . S
H1003 N999 0.985 . S
H1004 N998 0.984 . S
H1005 N998 0.984 . S
H1006 N994 0.984 . S
H1007 N994 0.985 . S
C1008 C1009 1.363 . S
C1008 C1014 1.379 . S
C1008 N1016 1.356 . S
C1009 C1008 1.363 . S
C1009 C1015 1.363 . S
C1010 C1011 1.363 . S
C1010 C1015 1.379 . S
C1010 N1017 1.356 . S
C1011 C1010 1.363 . S
C1011 C1014 1.363 . S
N1012 C1014 1.356 . S
N1012 H1024 0.984 . S
N1012 H1025 0.985 . S
N1013 C1015 1.356 . S
N1013 H1018 0.984 . S
N1013 H1019 0.985 . S
C1014 C1008 1.379 . S
C1014 C1011 1.363 . S
C1014 N1012 1.356 . S
C1015 C1009 1.363 . S
C1015 C1010 1.379 . S
C1015 N1013 1.356 . S
N1016 C1008 1.356 . S
N1016 H1022 0.984 . S
N1016 H1023 0.984 . S
N1017 C1010 1.356 . S
N1017 H1020 0.984 . S
N1017 H1021 0.985 . S
H1018 N1013 0.984 . S
H1019 N1013 0.985 . S
H1020 N1017 0.984 . S
H1021 N1017 0.985 . S
H1022 N1016 0.984 . S
H1023 N1016 0.984 . S
H1024 N1012 0.984 . S
H1025 N1012 0.985 . S
C1026 C1027 1.363 . S
C1026 C1032 1.379 . S
C1026 N1034 1.356 . S
C1027 C1026 1.363 . S
C1027 C1033 1.363 . S
C1028 C1029 1.363 . S
C1028 C1033 1.379 . S
C1028 N1035 1.356 . S
C1029 C1028 1.363 . S
C1029 C1032 1.363 . S
N1030 C1032 1.356 . S
N1030 H1042 0.984 . S
N1030 H1043 0.985 . S
N1031 C1033 1.356 . S
N1031 H1036 0.984 . S
N1031 H1037 0.985 . S
C1032 C1026 1.379 . S
C1032 C1029 1.363 . S
C1032 N1030 1.356 . S
C1033 C1027 1.363 . S
C1033 C1028 1.379 . S
C1033 N1031 1.356 . S
N1034 C1026 1.356 . S
N1034 H1040 0.984 . S
N1034 H1041 0.984 . S
N1035 C1028 1.356 . S
N1035 H1038 0.984 . S
N1035 H1039 0.985 . S
H1036 N1031 0.984 . S
H1037 N1031 0.985 . S
H1038 N1035 0.984 . S
H1039 N1035 0.985 . S
H1040 N1034 0.984 . S
H1041 N1034 0.984 . S
H1042 N1030 0.984 . S
H1043 N1030 0.985 . S
C1044 C1045 1.363 . S
C1044 C1050 1.379 . S
C1044 N1052 1.356 . S
C1045 C1044 1.363 . S
C1045 C1051 1.363 . S
C1046 C1047 1.363 . S
C1046 C1051 1.379 . S
C1046 N1053 1.356 . S
C1047 C1046 1.363 . S
C1047 C1050 1.363 . S
N1048 C1050 1.356 . S
N1048 H1060 0.984 . S
N1048 H1061 0.985 . S
N1049 C1051 1.356 . S
N1049 H1054 0.984 . S
N1049 H1055 0.985 . S
C1050 C1044 1.379 . S
C1050 C1047 1.363 . S
C1050 N1048 1.356 . S
C1051 C1045 1.363 . S
C1051 C1046 1.379 . S
C1051 N1049 1.356 . S
N1052 C1044 1.356 . S
N1052 H1058 0.984 . S
N1052 H1059 0.984 . S
N1053 C1046 1.356 . S
N1053 H1056 0.984 . S
N1053 H1057 0.985 . S
H1054 N1049 0.984 . S
H1055 N1049 0.985 . S
H1056 N1053 0.984 . S
H1057 N1053 0.985 . S
H1058 N1052 0.984 . S
H1059 N1052 0.984 . S
H1060 N1048 0.984 . S
H1061 N1048 0.985 . S
C1062 C1063 1.363 . S
C1062 C1068 1.379 . S
C1062 N1070 1.356 . S
C1063 C1062 1.363 . S
C1063 C1069 1.363 . S
C1064 C1065 1.363 . S
C1064 C1069 1.379 . S
C1064 N1071 1.356 . S
C1065 C1064 1.363 . S
C1065 C1068 1.363 . S
N1066 C1068 1.356 . S
N1066 H1078 0.984 . S
N1066 H1079 0.985 . S
N1067 C1069 1.356 . S
N1067 H1072 0.984 . S
N1067 H1073 0.985 . S
C1068 C1062 1.379 . S
C1068 C1065 1.363 . S
C1068 N1066 1.356 . S
C1069 C1063 1.363 . S
C1069 C1064 1.379 . S
C1069 N1067 1.356 . S
N1070 C1062 1.356 . S
N1070 H1076 0.984 . S
N1070 H1077 0.984 . S
N1071 C1064 1.356 . S
N1071 H1074 0.984 . S
N1071 H1075 0.985 . S
H1072 N1067 0.984 . S
H1073 N1067 0.985 . S
H1074 N1071 0.984 . S
H1075 N1071 0.985 . S
H1076 N1070 0.984 . S
H1077 N1070 0.984 . S
H1078 N1066 0.984 . S
H1079 N1066 0.985 . S
C1080 C1081 1.363 . S
C1080 C1086 1.379 . S
C1080 N1088 1.356 1_565 S
C1081 C1080 1.363 . S
C1081 C1087 1.363 . S
C1082 C1083 1.363 . S
C1082 C1087 1.379 . S
C1082 N1089 1.356 . S
C1083 C1082 1.363 . S
C1083 C1086 1.363 . S
N1084 C1086 1.356 1_545 S
N1084 H1096 0.984 . S
N1084 H1097 0.990 . S
N1085 C1087 1.356 . S
N1085 H1090 0.984 . S
N1085 H1091 0.985 . S
C1086 C1080 1.379 . S
C1086 C1083 1.363 . S
C1086 N1084 1.356 1_565 S
C1087 C1081 1.363 . S
C1087 C1082 1.379 . S
C1087 N1085 1.356 . S
N1088 C1080 1.356 1_545 S
N1088 H1094 0.984 . S
N1088 H1095 0.984 1_545 S
N1089 C1082 1.356 . S
N1089 H1092 0.984 . S
N1089 H1093 0.985 . S
H1090 N1085 0.984 . S
H1091 N1085 0.985 . S
H1092 N1089 0.984 . S
H1093 N1089 0.985 . S
H1094 N1088 0.984 . S
H1095 N1088 0.984 1_565 S
H1096 N1084 0.984 . S
H1097 N1084 0.990 . S
C1098 C1099 1.363 . S
C1098 C1104 1.379 . S
C1098 N1106 1.356 . S
C1099 C1098 1.363 . S
C1099 C1105 1.363 . S
C1100 C1101 1.363 . S
C1100 C1105 1.379 . S
C1100 N1107 1.356 1_545 S
C1101 C1100 1.363 . S
C1101 C1104 1.363 . S
N1102 C1104 1.356 . S
N1102 H1114 0.984 . S
N1102 H1115 0.985 . S
N1103 C1105 1.356 . S
N1103 H1108 0.984 . S
N1103 H1109 0.985 1_545 S
C1104 C1098 1.379 . S
C1104 C1101 1.363 . S
C1104 N1102 1.356 . S
C1105 C1099 1.363 . S
C1105 C1100 1.379 . S
C1105 N1103 1.356 . S
N1106 C1098 1.356 . S
N1106 H1112 0.984 . S
N1106 H1113 0.984 . S
N1107 C1100 1.356 1_565 S
N1107 H1110 0.984 1_565 S
N1107 H1111 0.985 . S
H1108 N1103 0.984 . S
H1109 N1103 0.985 1_565 S
H1110 N1107 0.984 1_545 S
H1111 N1107 0.985 . S
H1112 N1106 0.984 . S
H1113 N1106 0.984 . S
H1114 N1102 0.984 . S
H1115 N1102 0.985 . S
C1116 C1117 1.363 . S
C1116 C1122 1.379 . S
C1116 N1124 1.356 . S
C1117 C1116 1.363 . S
C1117 C1123 1.363 . S
C1118 C1119 1.363 . S
C1118 C1123 1.379 . S
C1118 N1125 1.356 . S
C1119 C1118 1.363 . S
C1119 C1122 1.363 . S
N1120 C1122 1.356 . S
N1120 H1132 0.984 . S
N1120 H1133 0.985 . S
N1121 C1123 1.356 . S
N1121 H1126 0.984 . S
N1121 H1127 0.985 . S
C1122 C1116 1.379 . S
C1122 C1119 1.363 . S
C1122 N1120 1.356 . S
C1123 C1117 1.363 . S
C1123 C1118 1.379 . S
C1123 N1121 1.356 . S
N1124 C1116 1.356 . S
N1124 H1130 0.984 . S
N1124 H1131 0.984 . S
N1125 C1118 1.356 . S
N1125 H1128 0.984 . S
N1125 H1129 0.985 . S
H1126 N1121 0.984 . S
H1127 N1121 0.985 . S
H1128 N1125 0.984 . S
H1129 N1125 0.985 . S
H1130 N1124 0.984 . S
H1131 N1124 0.984 . S
H1132 N1120 0.984 . S
H1133 N1120 0.985 . S
C1134 C1135 1.363 . S
C1134 C1140 1.379 . S
C1134 N1142 1.356 . S
C1135 C1134 1.363 . S
C1135 C1141 1.363 . S
C1136 C1137 1.363 . S
C1136 C1141 1.379 . S
C1136 N1143 1.356 . S
C1137 C1136 1.363 . S
C1137 C1140 1.363 . S
N1138 C1140 1.356 . S
N1138 H1150 0.984 . S
N1138 H1151 0.985 . S
N1139 C1141 1.356 . S
N1139 H1144 0.984 . S
N1139 H1145 0.985 . S
C1140 C1134 1.379 . S
C1140 C1137 1.363 . S
C1140 N1138 1.356 . S
C1141 C1135 1.363 . S
C1141 C1136 1.379 . S
C1141 N1139 1.356 . S
N1142 C1134 1.356 . S
N1142 H1148 0.984 . S
N1142 H1149 0.984 . S
N1143 C1136 1.356 . S
N1143 H1146 0.984 . S
N1143 H1147 0.985 . S
H1144 N1139 0.984 . S
H1145 N1139 0.985 . S
H1146 N1143 0.984 . S
H1147 N1143 0.985 . S
H1148 N1142 0.984 . S
H1149 N1142 0.984 . S
H1150 N1138 0.984 . S
H1151 N1138 0.985 . S
C1152 C1153 1.363 . S
C1152 C1158 1.379 . S
C1152 N1160 1.356 . S
C1153 C1152 1.363 . S
C1153 C1159 1.363 . S
C1154 C1155 1.363 . S
C1154 C1159 1.379 . S
C1154 N1161 1.356 . S
C1155 C1154 1.363 . S
C1155 C1158 1.363 . S
N1156 C1158 1.356 . S
N1156 H1168 0.984 . S
N1156 H1169 0.985 . S
N1157 C1159 1.356 . S
N1157 H1162 0.984 . S
N1157 H1163 0.985 1_655 S
C1158 C1152 1.379 . S
C1158 C1155 1.363 . S
C1158 N1156 1.356 . S
C1159 C1153 1.363 . S
C1159 C1154 1.379 . S
C1159 N1157 1.356 . S
N1160 C1152 1.356 . S
N1160 H1166 0.984 . S
N1160 H1167 0.984 . S
N1161 C1154 1.356 . S
N1161 H1164 0.984 . S
N1161 H1165 0.985 1_655 S
H1162 N1157 0.984 . S
H1163 N1157 0.985 1_455 S
H1164 N1161 0.984 . S
H1165 N1161 0.985 1_455 S
H1166 N1160 0.984 . S
H1167 N1160 0.984 . S
H1168 N1156 0.984 . S
H1169 N1156 0.985 . S
C1170 C1171 1.363 . S
C1170 C1176 1.379 . S
C1170 N1178 1.356 . S
C1171 C1170 1.363 . S
C1171 C1177 1.363 . S
C1172 C1173 1.363 . S
C1172 C1177 1.379 . S
C1172 N1179 1.356 . S
C1173 C1172 1.363 . S
C1173 C1176 1.363 . S
N1174 C1176 1.356 . S
N1174 H1186 0.984 . S
N1174 H1187 0.985 . S
N1175 C1177 1.356 . S
N1175 H1180 0.984 . S
N1175 H1181 0.985 . S
C1176 C1170 1.379 . S
C1176 C1173 1.363 . S
C1176 N1174 1.356 . S
C1177 C1171 1.363 . S
C1177 C1172 1.379 . S
C1177 N1175 1.356 . S
N1178 C1170 1.356 . S
N1178 H1184 0.984 . S
N1178 H1185 0.984 . S
N1179 C1172 1.356 . S
N1179 H1182 0.984 . S
N1179 H1183 0.985 . S
H1180 N1175 0.984 . S
H1181 N1175 0.985 . S
H1182 N1179 0.984 . S
H1183 N1179 0.985 . S
H1184 N1178 0.984 . S
H1185 N1178 0.984 . S
H1186 N1174 0.984 . S
H1187 N1174 0.985 . S
C1188 C1189 1.363 . S
C1188 C1194 1.379 . S
C1188 N1196 1.341 1_545 S
C1189 C1188 1.363 . S
C1189 C1195 1.363 . S
C1190 C1191 1.363 . S
C1190 C1195 1.379 . S
C1190 N1197 1.356 . S
C1191 C1190 1.363 . S
C1191 C1194 1.363 . S
N1192 C1194 1.356 . S
N1192 H1204 0.984 1_545 S
N1192 H1205 0.985 . S
N1193 C1195 1.356 . S
N1193 H1198 0.984 . S
N1193 H1199 0.985 . S
C1194 C1188 1.379 . S
C1194 C1191 1.363 . S
C1194 N1192 1.356 . S
C1195 C1189 1.363 . S
C1195 C1190 1.379 . S
C1195 N1193 1.356 . S
N1196 C1188 1.341 1_565 S
N1196 H1202 1.004 . S
N1196 H1203 0.980 1_565 S
N1197 C1190 1.356 . S
N1197 H1200 0.984 . S
N1197 H1201 0.985 . S
H1198 N1193 0.984 . S
H1199 N1193 0.985 . S
H1200 N1197 0.984 . S
H1201 N1197 0.985 . S
H1202 N1196 1.004 . S
H1203 N1196 0.980 1_545 S
H1204 N1192 0.984 1_565 S
H1205 N1192 0.985 . S
C1206 C1207 1.363 . S
C1206 C1212 1.379 . S
C1206 N1214 1.356 . S
C1207 C1206 1.363 . S
C1207 C1213 1.363 . S
C1208 C1209 1.363 . S
C1208 C1213 1.379 . S
C1208 N1215 1.356 1_565 S
C1209 C1208 1.363 . S
C1209 C1212 1.363 . S
N1210 C1212 1.356 . S
N1210 H1222 0.984 . S
N1210 H1223 0.985 . S
N1211 C1213 1.356 1_545 S
N1211 H1216 0.984 . S
N1211 H1217 0.985 . S
C1212 C1206 1.379 . S
C1212 C1209 1.363 . S
C1212 N1210 1.356 . S
C1213 C1207 1.363 . S
C1213 C1208 1.379 . S
C1213 N1211 1.356 1_565 S
N1214 C1206 1.356 . S
N1214 H1220 0.984 . S
N1214 H1221 0.984 . S
N1215 C1208 1.356 1_545 S
N1215 H1218 0.984 1_545 S
N1215 H1219 0.985 . S
H1216 N1211 0.984 . S
H1217 N1211 0.985 . S
H1218 N1215 0.984 1_565 S
H1219 N1215 0.985 . S
H1220 N1214 0.984 . S
H1221 N1214 0.984 . S
H1222 N1210 0.984 . S
H1223 N1210 0.985 . S
C1224 C1225 1.363 . S
C1224 C1230 1.379 . S
C1224 N1232 1.356 . S
C1225 C1224 1.363 . S
C1225 C1231 1.363 . S
C1226 C1227 1.363 . S
C1226 C1231 1.379 . S
C1226 N1233 1.356 . S
C1227 C1226 1.363 . S
C1227 C1230 1.363 . S
N1228 C1230 1.356 . S
N1228 H1240 0.984 . S
N1228 H1241 0.985 . S
N1229 C1231 1.356 . S
N1229 H1234 0.984 . S
N1229 H1235 0.985 . S
C1230 C1224 1.379 . S
C1230 C1227 1.363 . S
C1230 N1228 1.356 . S
C1231 C1225 1.363 . S
C1231 C1226 1.379 . S
C1231 N1229 1.356 . S
N1232 C1224 1.356 . S
N1232 H1238 0.984 . S
N1232 H1239 0.984 . S
N1233 C1226 1.356 . S
N1233 H1236 0.984 . S
N1233 H1237 0.985 . S
H1234 N1229 0.984 . S
H1235 N1229 0.985 . S
H1236 N1233 0.984 . S
H1237 N1233 0.985 . S
H1238 N1232 0.984 . S
H1239 N1232 0.984 . S
H1240 N1228 0.984 . S
H1241 N1228 0.985 . S
C1242 C1243 1.363 . S
C1242 C1248 1.379 . S
C1242 N1250 1.356 . S
C1243 C1242 1.363 . S
C1243 C1249 1.363 . S
C1244 C1245 1.363 . S
C1244 C1249 1.379 . S
C1244 N1251 1.356 . S
C1245 C1244 1.363 . S
C1245 C1248 1.363 . S
N1246 C1248 1.356 . S
N1246 H1258 0.984 . S
N1246 H1259 0.985 . S
N1247 C1249 1.356 . S
N1247 H1252 0.984 . S
N1247 H1253 0.985 . S
C1248 C1242 1.379 . S
C1248 C1245 1.363 . S
C1248 N1246 1.356 . S
C1249 C1243 1.363 . S
C1249 C1244 1.379 . S
C1249 N1247 1.356 . S
N1250 C1242 1.356 . S
N1250 H1256 0.984 . S
N1250 H1257 0.984 . S
N1251 C1244 1.356 . S
N1251 H1254 0.984 . S
N1251 H1255 0.985 . S
H1252 N1247 0.984 . S
H1253 N1247 0.985 . S
H1254 N1251 0.984 . S
H1255 N1251 0.985 . S
H1256 N1250 0.984 . S
H1257 N1250 0.984 . S
H1258 N1246 0.984 . S
H1259 N1246 0.985 . S
C1260 C1261 1.363 . S
C1260 C1266 1.379 . S
C1260 N1268 1.356 . S
C1261 C1260 1.363 . S
C1261 C1267 1.363 1_545 S
C1262 C1263 1.363 1_565 S
C1262 C1267 1.379 . S
C1262 N1269 1.356 . S
C1263 C1262 1.363 1_545 S
C1263 C1266 1.363 . S
N1264 C1266 1.356 . S
N1264 H1276 0.984 . S
N1264 H1277 0.985 . S
N1265 C1267 1.356 . S
N1265 H1270 0.984 . S
N1265 H1271 0.985 . S
C1266 C1260 1.379 . S
C1266 C1263 1.363 . S
C1266 N1264 1.356 . S
C1267 C1261 1.363 1_565 S
C1267 C1262 1.379 . S
C1267 N1265 1.356 . S
N1268 C1260 1.356 . S
N1268 H1274 0.984 . S
N1268 H1275 0.984 . S
N1269 C1262 1.356 . S
N1269 H1272 0.984 . S
N1269 H1273 0.985 . S
H1270 N1265 0.984 . S
H1271 N1265 0.985 . S
H1272 N1269 0.984 . S
H1273 N1269 0.985 . S
H1274 N1268 0.984 . S
H1275 N1268 0.984 . S
H1276 N1264 0.984 . S
H1277 N1264 0.985 . S
C1278 C1279 1.363 . S
C1278 C1284 1.379 . S
C1278 N1286 1.356 . S
C1279 C1278 1.363 . S
C1279 C1285 1.363 1_455 S
C1280 C1281 1.363 1_655 S
C1280 C1285 1.379 . S
C1280 N1287 1.356 . S
C1281 C1280 1.363 1_455 S
C1281 C1284 1.363 . S
N1282 C1284 1.356 . S
N1282 H1294 0.984 . S
N1282 H1295 0.985 . S
N1283 C1285 1.356 . S
N1283 H1288 0.984 . S
N1283 H1289 0.985 . S
C1284 C1278 1.379 . S
C1284 C1281 1.363 . S
C1284 N1282 1.356 . S
C1285 C1279 1.363 1_655 S
C1285 C1280 1.379 . S
C1285 N1283 1.356 . S
N1286 C1278 1.356 . S
N1286 H1292 0.984 . S
N1286 H1293 0.984 . S
N1287 C1280 1.356 . S
N1287 H1290 0.984 . S
N1287 H1291 0.985 . S
H1288 N1283 0.984 . S
H1289 N1283 0.985 . S
H1290 N1287 0.984 . S
H1291 N1287 0.985 . S
H1292 N1286 0.984 . S
H1293 N1286 0.984 . S
H1294 N1282 0.984 . S
H1295 N1282 0.985 . S
C1296 C1297 1.363 . S
C1296 C1302 1.379 . S
C1296 N1304 1.356 . S
C1297 C1296 1.363 . S
C1297 C1303 1.363 . S
C1298 C1299 1.363 . S
C1298 C1303 1.379 . S
C1298 N1305 1.356 . S
C1299 C1298 1.363 . S
C1299 C1302 1.363 . S
N1300 C1302 1.356 . S
N1300 H1312 0.984 . S
N1300 H1313 0.985 . S
N1301 C1303 1.356 . S
N1301 H1306 0.984 . S
N1301 H1307 0.985 . S
C1302 C1296 1.379 . S
C1302 C1299 1.363 . S
C1302 N1300 1.356 . S
C1303 C1297 1.363 . S
C1303 C1298 1.379 . S
C1303 N1301 1.356 . S
N1304 C1296 1.356 . S
N1304 H1310 0.984 . S
N1304 H1311 0.984 . S
N1305 C1298 1.356 . S
N1305 H1308 0.984 . S
N1305 H1309 0.985 . S
H1306 N1301 0.984 . S
H1307 N1301 0.985 . S
H1308 N1305 0.984 . S
H1309 N1305 0.985 . S
H1310 N1304 0.984 . S
H1311 N1304 0.984 . S
H1312 N1300 0.984 . S
H1313 N1300 0.985 . S
C1314 C1315 1.363 . S
C1314 C1320 1.379 . S
C1314 N1322 1.356 . S
C1315 C1314 1.363 . S
C1315 C1321 1.363 1_455 S
C1316 C1317 1.363 1_655 S
C1316 C1321 1.379 . S
C1316 N1323 1.356 . S
C1317 C1316 1.363 1_455 S
C1317 C1320 1.363 . S
N1318 C1320 1.356 . S
N1318 H1330 0.984 . S
N1318 H1331 0.985 . S
N1319 C1321 1.356 . S
N1319 H1324 0.984 . S
N1319 H1325 0.985 . S
C1320 C1314 1.379 . S
C1320 C1317 1.363 . S
C1320 N1318 1.356 . S
C1321 C1315 1.363 1_655 S
C1321 C1316 1.379 . S
C1321 N1319 1.356 . S
N1322 C1314 1.356 . S
N1322 H1328 0.984 . S
N1322 H1329 0.984 . S
N1323 C1316 1.356 . S
N1323 H1326 0.984 . S
N1323 H1327 0.985 . S
H1324 N1319 0.984 . S
H1325 N1319 0.985 . S
H1326 N1323 0.984 . S
H1327 N1323 0.985 . S
H1328 N1322 0.984 . S
H1329 N1322 0.984 . S
H1330 N1318 0.984 . S
H1331 N1318 0.985 . S
C1332 C1333 1.363 . S
C1332 C1338 1.379 . S
C1332 N1340 1.356 . S
C1333 C1332 1.363 . S
C1333 C1339 1.363 . S
C1334 C1335 1.363 . S
C1334 C1339 1.379 . S
C1334 N1341 1.356 . S
C1335 C1334 1.363 . S
C1335 C1338 1.363 . S
N1336 C1338 1.356 . S
N1336 H1348 0.984 . S
N1336 H1349 0.985 . S
N1337 C1339 1.356 . S
N1337 H1342 0.984 . S
N1337 H1343 0.985 . S
C1338 C1332 1.379 . S
C1338 C1335 1.363 . S
C1338 N1336 1.356 . S
C1339 C1333 1.363 . S
C1339 C1334 1.379 . S
C1339 N1337 1.356 . S
N1340 C1332 1.356 . S
N1340 H1346 0.984 . S
N1340 H1347 0.984 . S
N1341 C1334 1.356 . S
N1341 H1344 0.984 . S
N1341 H1345 0.985 . S
H1342 N1337 0.984 . S
H1343 N1337 0.985 . S
H1344 N1341 0.984 . S
H1345 N1341 0.985 . S
H1346 N1340 0.984 . S
H1347 N1340 0.984 . S
H1348 N1336 0.984 . S
H1349 N1336 0.985 . S
C1350 C1351 1.363 1_565 S
C1350 C1356 1.379 . S
C1350 N1358 1.356 . S
C1351 C1350 1.363 1_545 S
C1351 C1357 1.363 . S
C1352 C1353 1.363 . S
C1352 C1357 1.379 . S
C1352 N1359 1.356 . S
C1353 C1352 1.363 . S
C1353 C1356 1.363 1_545 S
N1354 C1356 1.356 . S
N1354 H1366 0.984 . S
N1354 H1367 0.985 . S
N1355 C1357 1.356 . S
N1355 H1360 0.984 . S
N1355 H1361 0.985 . S
C1356 C1350 1.379 . S
C1356 C1353 1.363 1_565 S
C1356 N1354 1.356 . S
C1357 C1351 1.363 . S
C1357 C1352 1.379 . S
C1357 N1355 1.356 . S
N1358 C1350 1.356 . S
N1358 H1364 0.984 . S
N1358 H1365 0.984 . S
N1359 C1352 1.356 . S
N1359 H1362 0.984 . S
N1359 H1363 0.985 . S
H1360 N1355 0.984 . S
H1361 N1355 0.985 . S
H1362 N1359 0.984 . S
H1363 N1359 0.985 . S
H1364 N1358 0.984 . S
H1365 N1358 0.984 . S
H1366 N1354 0.984 . S
H1367 N1354 0.985 . S
C397 C251 1.299 . S
C399 C6 1.315 . S
C415 C27 1.315 . S
C417 C207 1.299 . S
C433 C49 1.315 . S
C435 C229 1.299 . S
C451 C335 1.299 . S
C453 C51 1.315 . S
C469 C9 1.315 . S
C471 C356 1.299 . S
C487 C29 1.315 . S
C489 C378 1.299 . S
C505 C314 1.299 . S
C507 C75 1.315 . S
C523 C95 1.315 . S
C525 C268 1.299 . S
C541 C117 1.315 . S
C543 C292 1.299 . S
C559 C139 1.299 . S
C561 C115 1.315 . S
C577 C72 1.315 . S
C579 C161 1.299 . S
C595 C183 1.299 . S
C597 C93 1.315 . S
C613 C383 1.299 . S
C615 C138 1.315 . S
C631 C338 1.299 . S
C633 C160 1.315 . S
C649 C361 1.299 . S
C651 C182 1.315 . S
C667 C71 1.299 . S
C669 C185 1.315 . S
C685 C92 1.299 . S
C687 C141 1.315 . S
C703 C163 1.315 . S
C705 C114 1.299 . S
C721 C50 1.299 . S
C723 C205 1.315 . S
C739 C4 1.299 . S
C741 C227 1.315 . S
C757 C249 1.315 . S
C759 C28 1.299 . S
C775 C247 1.315 . S
C777 C271 1.299 . S
C793 C203 1.315 . S
C795 C294 1.299 . S
C811 C225 1.315 . S
C813 C316 1.299 . S
C829 C270 1.315 . S
C831 C119 1.299 . S
C847 C291 1.315 . S
C849 C74 1.299 . S
C865 C313 1.315 . S
C867 C97 1.299 . S
C883 C315 1.315 . S
C885 C202 1.299 . S
C901 C273 1.315 . S
C903 C224 1.299 . S
C919 C293 1.315 . S
C921 C246 1.299 . S
C937 C339 1.315 . S
C939 C180 1.299 . S
C955 C359 1.315 . S
C957 C136 1.299 . S
C973 C158 1.299 . S
C975 C381 1.315 . S
C991 C7 1.299 . S
C993 C379 1.315 . S
C1009 C30 1.299 . S
C1011 C336 1.315 . S
C1027 C357 1.315 . S
C1029 C52 1.299 . S
C1045 C159 1.516 . S
C1047 C8 1.516 . S
C1063 C181 1.516 . S
C1065 C31 1.516 . S
C1081 C137 1.516 . S
C1083 C53 1.516 . S
C1099 C295 1.516 1_554 S
C1101 C48 1.516 . S
C1117 C5 1.516 . S
C1119 C317 1.516 1_554 S
C1135 C26 1.516 . S
C1137 C272 1.516 1_554 S
C1153 C70 1.516 . S
C1155 C360 1.516 . S
C1171 C94 1.516 . S
C1173 C382 1.516 . S
C1189 C116 1.516 . S
C1191 C337 1.516 . S
C1207 C118 1.516 . S
C1209 C226 1.516 1_556 S
C1225 C248 1.516 1_556 S
C1227 C73 1.516 . S
C1243 C96 1.516 . S
C1245 C204 1.516 1_556 S
C1261 C140 1.516 1_545 S
C1263 C290 1.516 . S
C1279 C162 1.516 . S
C1281 C312 1.516 1_455 S
C1297 C184 1.516 . S
C1299 C269 1.516 . S
C1315 C250 1.516 . S
C1317 C358 1.516 1_455 S
C1333 C380 1.516 . S
C1335 C206 1.516 . S
C1351 C334 1.516 . S
C1353 C228 1.516 1_545 S
