# Generated by pormake.
# Topology fnj, (5)-cn, num edge types: 1
# Building blocks:
#     Node 0, Type 0, BuildingBlock: BEQFEK_clean_sbu_0, # of connection points: 5
#     Node 1, Type 0, BuildingBlock: BEQFEK_clean_sbu_0, # of connection points: 5
#     Node 2, Type 0, BuildingBlock: BEQFEK_clean_sbu_0, # of connection points: 5
#     Node 3, Type 0, BuildingBlock: BEQFEK_clean_sbu_0, # of connection points: 5
#     Node 4, Type 0, BuildingBlock: BEQFEK_clean_sbu_0, # of connection points: 5
#     Node 5, Type 0, BuildingBlock: BEQFEK_clean_sbu_0, # of connection points: 5
#     Node 6, Type 0, BuildingBlock: BEQFEK_clean_sbu_0, # of connection points: 5
#     Node 7, Type 0, BuildingBlock: BEQFEK_clean_sbu_0, # of connection points: 5
#     Node 8, Type 0, BuildingBlock: BEQFEK_clean_sbu_0, # of connection points: 5
#     Node 9, Type 0, BuildingBlock: BEQFEK_clean_sbu_0, # of connection points: 5
#     Node 10, Type 0, BuildingBlock: BEQFEK_clean_sbu_0, # of connection points: 5
#     Node 11, Type 0, BuildingBlock: BEQFEK_clean_sbu_0, # of connection points: 5
#     Node 12, Type 0, BuildingBlock: BEQFEK_clean_sbu_0, # of connection points: 5
#     Node 13, Type 0, BuildingBlock: BEQFEK_clean_sbu_0, # of connection points: 5
#     Node 14, Type 0, BuildingBlock: BEQFEK_clean_sbu_0, # of connection points: 5
#     Node 15, Type 0, BuildingBlock: BEQFEK_clean_sbu_0, # of connection points: 5
#     Edge 16, Type (0, 0), BuildingBlock: XUDNAN_clean_linker_2, # of connection points: 2
#     Edge 17, Type (0, 0), BuildingBlock: XUDNAN_clean_linker_2, # of connection points: 2
#     Edge 18, Type (0, 0), BuildingBlock: XUDNAN_clean_linker_2, # of connection points: 2
#     Edge 19, Type (0, 0), BuildingBlock: XUDNAN_clean_linker_2, # of connection points: 2
#     Edge 20, Type (0, 0), BuildingBlock: XUDNAN_clean_linker_2, # of connection points: 2
#     Edge 21, Type (0, 0), BuildingBlock: XUDNAN_clean_linker_2, # of connection points: 2
#     Edge 22, Type (0, 0), BuildingBlock: XUDNAN_clean_linker_2, # of connection points: 2
#     Edge 23, Type (0, 0), BuildingBlock: XUDNAN_clean_linker_2, # of connection points: 2
#     Edge 24, Type (0, 0), BuildingBlock: XUDNAN_clean_linker_2, # of connection points: 2
#     Edge 25, Type (0, 0), BuildingBlock: XUDNAN_clean_linker_2, # of connection points: 2
#     Edge 26, Type (0, 0), BuildingBlock: XUDNAN_clean_linker_2, # of connection points: 2
#     Edge 27, Type (0, 0), BuildingBlock: XUDNAN_clean_linker_2, # of connection points: 2
#     Edge 28, Type (0, 0), BuildingBlock: XUDNAN_clean_linker_2, # of connection points: 2
#     Edge 29, Type (0, 0), BuildingBlock: XUDNAN_clean_linker_2, # of connection points: 2
#     Edge 30, Type (0, 0), BuildingBlock: XUDNAN_clean_linker_2, # of connection points: 2
#     Edge 31, Type (0, 0), BuildingBlock: XUDNAN_clean_linker_2, # of connection points: 2
#     Edge 32, Type (0, 0), BuildingBlock: XUDNAN_clean_linker_2, # of connection points: 2
#     Edge 33, Type (0, 0), BuildingBlock: XUDNAN_clean_linker_2, # of connection points: 2
#     Edge 34, Type (0, 0), BuildingBlock: XUDNAN_clean_linker_2, # of connection points: 2
#     Edge 35, Type (0, 0), BuildingBlock: XUDNAN_clean_linker_2, # of connection points: 2
#     Edge 36, Type (0, 0), BuildingBlock: XUDNAN_clean_linker_2, # of connection points: 2
#     Edge 37, Type (0, 0), BuildingBlock: XUDNAN_clean_linker_2, # of connection points: 2
#     Edge 38, Type (0, 0), BuildingBlock: XUDNAN_clean_linker_2, # of connection points: 2
#     Edge 39, Type (0, 0), BuildingBlock: XUDNAN_clean_linker_2, # of connection points: 2
#     Edge 40, Type (0, 0), BuildingBlock: XUDNAN_clean_linker_2, # of connection points: 2
#     Edge 41, Type (0, 0), BuildingBlock: XUDNAN_clean_linker_2, # of connection points: 2
#     Edge 42, Type (0, 0), BuildingBlock: XUDNAN_clean_linker_2, # of connection points: 2
#     Edge 43, Type (0, 0), BuildingBlock: XUDNAN_clean_linker_2, # of connection points: 2
#     Edge 44, Type (0, 0), BuildingBlock: XUDNAN_clean_linker_2, # of connection points: 2
#     Edge 45, Type (0, 0), BuildingBlock: XUDNAN_clean_linker_2, # of connection points: 2
#     Edge 46, Type (0, 0), BuildingBlock: XUDNAN_clean_linker_2, # of connection points: 2
#     Edge 47, Type (0, 0), BuildingBlock: XUDNAN_clean_linker_2, # of connection points: 2
#     Edge 48, Type (0, 0), BuildingBlock: XUDNAN_clean_linker_2, # of connection points: 2
#     Edge 49, Type (0, 0), BuildingBlock: XUDNAN_clean_linker_2, # of connection points: 2
#     Edge 50, Type (0, 0), BuildingBlock: XUDNAN_clean_linker_2, # of connection points: 2
#     Edge 51, Type (0, 0), BuildingBlock: XUDNAN_clean_linker_2, # of connection points: 2
#     Edge 52, Type (0, 0), BuildingBlock: XUDNAN_clean_linker_2, # of connection points: 2
#     Edge 53, Type (0, 0), BuildingBlock: XUDNAN_clean_linker_2, # of connection points: 2
#     Edge 54, Type (0, 0), BuildingBlock: XUDNAN_clean_linker_2, # of connection points: 2
#     Edge 55, Type (0, 0), BuildingBlock: XUDNAN_clean_linker_2, # of connection points: 2
# Relax obj value: 0.139
# Max RMSD: 0.162
# Mean RMSD: 0.162
data_MOF--net-fnj--node1-BEQFEK_clean_sbu_0--edge1-XUDNAN_clean_linker_2
_symmetry_space_group_name_H-M    P1
_symmetry_Int_Tables_number       1
_symmetry_cell_setting            triclinic
loop_
_symmetry_equiv_pos_as_xyz
'x, y, z'
_cell_length_a     74.051938
_cell_length_b     74.004404
_cell_length_c     18.956829
_cell_angle_alpha  90.028212
_cell_angle_beta   90.021209
_cell_angle_gamma 100.53813
loop_
_atom_site_label
_atom_site_type_symbol
_atom_site_fract_x
_atom_site_fract_y
_atom_site_fract_z
_atom_type_partial_charge
Co0 Co 0.39449 0.05035 0.97975 0.0
Co1 Co 0.38702 0.03492 0.13264 0.0
C2 C 0.37637 0.07083 0.08276 0.0
O3 O 0.38366 0.07039 0.02209 0.0
O4 O 0.37647 0.05788 0.12689 0.0
C5 C 0.40888 0.06828 0.8436 0.0
O6 O 0.41739 0.08308 0.87616 0.0
C7 C 0.39387 0.04181 0.28165 0.0
C8 C 0.38702 0.0143 0.33035 0.0
C9 C 0.39371 0.03265 0.34559 0.0
N10 N 0.38795 0.02943 0.23097 0.0
N11 N 0.38377 0.01301 0.26035 0.0
C12 C 0.39834 0.0621 0.26823 0.0
H13 H 0.38548 0.06699 0.25481 0.0
H14 H 0.4077 0.06489 0.22222 0.0
H15 H 0.40441 0.07008 0.31446 0.0
C16 C 0.43221 0.04446 0.01298 0.0
N17 N 0.4148 0.04531 0.03159 0.0
N18 N 0.41155 0.03835 0.09524 0.0
C19 C 0.42684 0.03283 0.11902 0.0
C20 C 0.44045 0.03656 0.06785 0.0
C21 C 0.43984 0.04864 0.94051 0.0
H22 H 0.43016 0.04131 0.90088 0.0
H23 H 0.44134 0.0636 0.93069 0.0
H24 H 0.45341 0.04454 0.93382 0.0
O25 O 0.37625 0.02751 0.97515 0.0
O26 O 0.37065 0.01462 0.08033 0.0
H27 H 0.41692 0.011 0.19097 0.0
H28 H 0.44155 0.01891 0.19474 0.0
C29 C 0.42808 0.02321 0.18781 0.0
H30 H 0.42626 0.03263 0.23158 0.0
H31 H 0.37891 1.00092 0.23257 0.0
O32 O 0.39998 0.05497 0.87871 0.0
C33 C 0.36813 0.01448 0.01373 0.0
Co34 Co 0.27182 0.16442 0.36082 0.0
Co35 Co 0.25966 0.16378 0.20317 0.0
C36 C 0.29479 0.15172 0.24947 0.0
O37 O 0.29256 0.15482 0.31472 0.0
O38 O 0.28315 0.15461 0.20346 0.0
C39 C 0.29032 0.17686 0.49432 0.0
O40 O 0.30429 0.1857 0.45805 0.0
C41 C 0.26554 0.17305 0.05489 0.0
C42 C 0.23746 0.16787 0.0106 0.0
C43 C 0.25576 0.17372 0.99287 0.0
N44 N 0.25357 0.16736 0.10702 0.0
N45 N 0.23679 0.16431 0.08037 0.0
C46 C 0.28592 0.17579 0.06426 0.0
H47 H 0.28993 0.16208 0.06671 0.0
H48 H 0.28988 0.18302 0.1148 0.0
H49 H 0.29362 0.18346 0.02042 0.0
C50 C 0.26584 0.20341 0.34658 0.0
N51 N 0.26717 0.18679 0.31953 0.0
N52 N 0.26209 0.18631 0.25288 0.0
C53 C 0.25758 0.20256 0.23533 0.0
C54 C 0.25979 0.21394 0.29397 0.0
C55 C 0.26803 0.20835 0.42305 0.0
H56 H 0.26106 0.19675 0.45584 0.0
H57 H 0.28285 0.2111 0.43648 0.0
H58 H 0.26227 0.2208 0.43555 0.0
O59 O 0.2491 0.14559 0.35737 0.0
O60 O 0.23978 0.14531 0.24613 0.0
H61 H 0.23751 0.19732 0.15315 0.0
H62 H 0.24822 0.22124 0.16129 0.0
C63 C 0.25056 0.20688 0.16441 0.0
H64 H 0.26071 0.20495 0.12352 0.0
H65 H 0.22492 0.15965 0.10965 0.0
O66 O 0.27655 0.16773 0.46238 0.0
C67 C 0.23757 0.13948 0.30939 0.0
Co68 Co 0.11767 0.00637 0.47975 0.0
Co69 Co 0.12069 0.02531 0.62933 0.0
C70 C 0.13404 0.98906 0.59576 0.0
O71 O 0.12923 0.98772 0.53106 0.0
O72 O 0.13134 1.00259 0.63323 0.0
C73 C 0.11692 0.98841 0.33909 0.0
O74 O 0.12469 0.97555 0.36739 0.0
C75 C 0.11054 0.01922 0.77629 0.0
C76 C 0.12658 0.04329 0.83041 0.0
C77 C 0.11568 0.02624 0.84278 0.0
N78 N 0.11838 0.03126 0.72716 0.0
N79 N 0.12772 0.04579 0.7599 0.0
C80 C 0.09818 1.00136 0.75937 0.0
H81 H 0.09069 1.00247 0.70949 0.0
H82 H 0.08824 0.99721 0.80279 0.0
H83 H 0.10643 0.99048 0.75214 0.0
C84 C 0.07899 0.01009 0.49797 0.0
N85 N 0.09604 0.01112 0.52409 0.0
N86 N 0.09738 0.02031 0.5839 0.0
C87 C 0.08125 0.02565 0.5972 0.0
C88 C 0.06901 0.01938 0.54302 0.0
C89 C 0.07275 1.0011 0.42925 0.0
H90 H 0.0787 0.9885 0.42228 0.0
H91 H 0.05754 0.99747 0.42677 0.0
H92 H 0.07771 0.01066 0.38543 0.0
O93 O 0.13498 0.02984 0.47461 0.0
O94 O 0.13775 0.04497 0.57638 0.0
H95 H 0.0916 0.04714 0.67103 0.0
H96 H 0.06838 0.04712 0.64069 0.0
C97 C 0.07838 0.03834 0.65599 0.0
H98 H 0.07287 0.03004 0.70253 0.0
H99 H 0.13579 0.0569 0.73426 0.0
O100 O 0.1127 1.00099 0.37795 0.0
C101 C 0.14173 0.04387 0.51117 0.0
Co102 Co 0.23856 0.8915 0.86816 0.0
Co103 Co 0.24925 0.8955 0.71019 0.0
C104 C 0.2155 0.90797 0.7669 0.0
O105 O 0.21819 0.90265 0.82925 0.0
O106 O 0.22653 0.90602 0.71733 0.0
C107 C 0.2182 0.88444 -0.00166 0.0
O108 O 0.20388 0.88736 0.96211 0.0
C109 C 0.24032 0.88847 0.5646 0.0
C110 C 0.26652 0.89783 0.50873 0.0
C111 C 0.24802 0.8908 0.49791 0.0
N112 N 0.25353 0.89406 0.6123 0.0
N113 N 0.26921 0.8996 0.57889 0.0
C114 C 0.22101 0.88005 0.58399 0.0
H115 H 0.22062 0.87386 0.6374 0.0
H116 H 0.2151 0.86939 0.54504 0.0
H117 H 0.21247 0.89088 0.58493 0.0
C118 C 0.24293 0.85301 0.84029 0.0
N119 N 0.24184 0.87011 0.8183 0.0
N120 N 0.24671 0.87186 0.75164 0.0
C121 C 0.25126 0.85601 0.72916 0.0
C122 C 0.24898 0.84348 0.7845 0.0
C123 C 0.2406 0.84689 0.9155 0.0
H124 H 0.25085 0.85591 0.9487 0.0
H125 H 0.22674 0.84838 0.93408 0.0
H126 H 0.24234 0.83242 0.92214 0.0
O127 O 0.26176 0.91001 0.86789 0.0
O128 O 0.26989 0.91242 0.75508 0.0
H129 H 0.27125 0.86414 0.6483 0.0
H130 H 0.26259 0.8396 0.65152 0.0
C131 C 0.25893 0.85339 0.65758 0.0
H132 H 0.24857 0.85499 0.61699 0.0
H133 H 0.28163 0.90485 0.60384 0.0
O134 O 0.23357 0.88531 0.96771 0.0
C135 C 0.27286 0.91693 0.81957 0.0
Co136 Co 0.61742 0.00787 0.11635 0.0
Co137 Co 0.62055 0.02598 0.96582 0.0
C138 C 0.63474 0.99051 0.00258 0.0
O139 O 0.62972 0.98947 0.06697 0.0
O140 O 0.63191 1.00371 0.96358 0.0
C141 C 0.62093 0.99221 0.25491 0.0
O142 O 0.63343 0.98416 0.22542 0.0
C143 C 0.61267 0.01957 0.81741 0.0
C144 C 0.6261 0.04531 0.76642 0.0
C145 C 0.61724 0.02751 0.7521 0.0
N146 N 0.61872 0.03194 0.86802 0.0
N147 N 0.62653 0.04742 0.83719 0.0
C148 C 0.60196 1.0007 0.83154 0.0
H149 H 0.6002 0.99816 0.88899 0.0
H150 H 0.58826 0.99935 0.80628 0.0
H151 H 0.60873 0.99006 0.80769 0.0
C152 C 0.57806 0.00841 0.09119 0.0
N153 N 0.59568 0.01154 0.06976 0.0
N154 N 0.59694 0.02019 0.00879 0.0
C155 C 0.58012 0.02305 0.98983 0.0
C156 C 0.56754 0.01555 0.04126 0.0
C157 C 0.57188 1.00015 0.16117 0.0
H158 H 0.57828 0.00949 0.20368 0.0
H159 H 0.57669 0.98689 0.16744 0.0
H160 H 0.55676 0.99797 0.16739 0.0
O161 O 0.6341 0.03178 0.1225 0.0
O162 O 0.63684 0.04612 0.01909 0.0
H163 H 0.5878 0.04371 0.91049 0.0
H164 H 0.56329 0.03784 0.92625 0.0
C165 C 0.57623 0.03238 0.92295 0.0
H166 H 0.57483 0.0223 0.87916 0.0
H167 H 0.63305 0.05908 0.86435 0.0
O168 O 0.61202 1.00168 0.21698 0.0
C169 C 0.64064 0.04563 0.08466 0.0
Co170 Co 0.73803 0.89313 0.728 0.0
Co171 Co 0.74829 0.8937 0.88637 0.0
C172 C 0.71498 0.90794 0.83338 0.0
O173 O 0.71791 0.90377 0.76982 0.0
O174 O 0.72568 0.90482 0.88262 0.0
C175 C 0.71805 0.88848 0.5961 0.0
O176 O 0.70373 0.8914 0.63225 0.0
C177 C 0.73904 0.88421 0.02994 0.0
C178 C 0.76506 0.89318 0.08748 0.0
C179 C 0.74654 0.88605 0.09709 0.0
N180 N 0.75236 0.89026 0.98329 0.0
N181 N 0.76796 0.89546 0.01765 0.0
C182 C 0.71968 0.87642 0.00908 0.0
H183 H 0.71939 0.87024 0.95562 0.0
H184 H 0.71324 0.86589 0.04756 0.0
H185 H 0.71158 0.88762 0.00725 0.0
C186 C 0.74106 0.85407 0.74347 0.0
N187 N 0.74061 0.87072 0.77122 0.0
N188 N 0.74567 0.87091 0.83766 0.0
C189 C 0.74991 0.85443 0.85411 0.0
C190 C 0.7472 0.84317 0.79466 0.0
C191 C 0.73611 0.84894 0.66857 0.0
H192 H 0.74712 0.85598 0.63315 0.0
H193 H 0.72316 0.85359 0.65453 0.0
H194 H 0.73423 0.83388 0.66024 0.0
O195 O 0.76148 0.91114 0.73396 0.0
O196 O 0.76922 0.91137 0.84712 0.0
H197 H 0.76927 0.86246 0.9374 0.0
H198 H 0.76494 0.83809 0.91904 0.0
C199 C 0.75861 0.85053 0.92237 0.0
H200 H 0.74798 0.84852 0.96432 0.0
H201 H 0.7804 0.9011 0.9937 0.0
O202 O 0.73329 0.88879 0.62713 0.0
C203 C 0.77245 0.91704 0.7841 0.0
Co204 Co 0.89485 0.05135 0.61739 0.0
Co205 Co 0.88713 0.03151 0.46996 0.0
C206 C 0.87603 0.06828 0.50414 0.0
O207 O 0.88232 0.06943 0.56696 0.0
O208 O 0.87714 0.05457 0.46493 0.0
C209 C 0.90905 0.0672 0.77238 0.0
O210 O 0.92124 0.08252 0.7728 0.0
C211 C 0.8918 0.03154 0.31568 0.0
C212 C 0.87813 1.0035 0.2866 0.0
C213 C 0.88673 0.0201 0.25769 0.0
N214 N 0.88633 0.02212 0.37512 0.0
N215 N 0.87834 0.00531 0.35729 0.0
C216 C 0.90069 0.05141 0.31536 0.0
H217 H 0.89372 0.05914 0.27697 0.0
H218 H 0.90048 0.0575 0.3686 0.0
H219 H 0.91529 0.0527 0.29974 0.0
C220 C 0.93312 0.04812 0.57839 0.0
N221 N 0.91497 0.04569 0.56442 0.0
N222 N 0.91164 0.03665 0.50455 0.0
C223 C 0.92752 0.03283 0.47913 0.0
C224 C 0.9417 0.04007 0.52474 0.0
C225 C 0.942 0.05846 0.64087 0.0
H226 H 0.93907 0.04974 0.68859 0.0
H227 H 0.93609 0.07103 0.6489 0.0
H228 H 0.95709 0.06236 0.63404 0.0
O229 O 0.8772 0.02835 0.63497 0.0
O230 O 0.87136 0.01355 0.53316 0.0
H231 H 0.91652 0.01027 0.41111 0.0
H232 H 0.94127 0.01476 0.41778 0.0
C233 C 0.92888 0.0212 0.41537 0.0
H234 H 0.92978 0.02993 0.36753 0.0
H235 H 0.87252 0.99524 0.39326 0.0
O236 O 0.90296 0.06028 0.71364 0.0
C237 C 0.86907 0.01461 0.59964 0.0
Co238 Co 0.77034 0.16741 0.25203 0.0
Co239 Co 0.75852 0.16048 0.40736 0.0
C240 C 0.7929 0.14951 0.35262 0.0
O241 O 0.79044 0.15583 0.29151 0.0
O242 O 0.78153 0.15037 0.40229 0.0
C243 C 0.78326 0.16682 0.11049 0.0
O244 O 0.78691 0.15067 0.12771 0.0
C245 C 0.7615 0.16257 0.5596 0.0
C246 C 0.73263 0.16126 0.59237 0.0
C247 C 0.75044 0.16351 0.61752 0.0
N248 N 0.75074 0.15991 0.50226 0.0
N249 N 0.73346 0.15881 0.52213 0.0
C250 C 0.78205 0.16645 0.5575 0.0
H251 H 0.78694 0.17361 0.50777 0.0
H252 H 0.78786 0.17494 0.60323 0.0
H253 H 0.78708 0.15323 0.55943 0.0
C254 C 0.76487 0.2051 0.28872 0.0
N255 N 0.76604 0.1877 0.30655 0.0
N256 N 0.76162 0.18499 0.3733 0.0
C257 C 0.75777 0.2007 0.40055 0.0
C258 C 0.75953 0.21395 0.34779 0.0
C259 C 0.76651 0.21215 0.21456 0.0
H260 H 0.75747 0.20236 0.17972 0.0
H261 H 0.78086 0.21293 0.19625 0.0
H262 H 0.76265 0.22588 0.20975 0.0
O263 O 0.74735 0.14883 0.2419 0.0
O264 O 0.73884 0.14457 0.35362 0.0
H265 H 0.73799 0.19519 0.48352 0.0
H266 H 0.75249 0.21761 0.48884 0.0
C267 C 0.75212 0.20295 0.47537 0.0
H268 H 0.76154 0.19743 0.51139 0.0
H269 H 0.72235 0.15721 0.48738 0.0
O270 O 0.77696 0.17631 0.1569 0.0
C271 C 0.73608 0.14113 0.28826 0.0
Co272 Co 0.89422 0.55007 0.47845 0.0
Co273 Co 0.88651 0.5335 0.63019 0.0
C274 C 0.87677 0.57018 0.58481 0.0
O275 O 0.8831 0.56999 0.52246 0.0
O276 O 0.87725 0.55706 0.62766 0.0
C277 C 0.89375 0.56663 0.34277 0.0
O278 O 0.88251 0.57595 0.37386 0.0
C279 C 0.89116 0.53982 0.77948 0.0
C280 C 0.88038 0.51308 0.82903 0.0
C281 C 0.88742 0.53135 0.84428 0.0
N282 N 0.88629 0.52736 0.72824 0.0
N283 N 0.87997 0.5113 0.75806 0.0
C284 C 0.89976 0.55941 0.76603 0.0
H285 H 0.90684 0.5608 0.7142 0.0
H286 H 0.90967 0.56467 0.8085 0.0
H287 H 0.88884 0.56783 0.76523 0.0
C288 C 0.93229 0.5466 0.51719 0.0
N289 N 0.91424 0.5448 0.5318 0.0
N290 N 0.911 0.53734 0.59465 0.0
C291 C 0.92695 0.53423 0.62212 0.0
C292 C 0.94096 0.54001 0.57404 0.0
C293 C 0.94099 0.55492 0.45077 0.0
H294 H 0.93511 0.56719 0.43656 0.0
H295 H 0.95612 0.55885 0.45635 0.0
H296 H 0.93782 0.54479 0.40729 0.0
O297 O 0.87583 0.52739 0.46943 0.0
O298 O 0.86995 0.51418 0.57403 0.0
H299 H 0.94159 0.51972 0.69528 0.0
H300 H 0.92868 0.53555 0.73449 0.0
C301 C 0.92866 0.52526 0.69193 0.0
H302 H 0.9168 0.51395 0.70023 0.0
H303 H 0.87498 0.49927 0.73012 0.0
O304 O 0.90144 0.55579 0.37923 0.0
C305 C 0.86749 0.51433 0.5074 0.0
Co306 Co 0.77666 0.66868 0.87424 0.0
Co307 Co 0.76068 0.66103 0.72212 0.0
C308 C 0.79629 0.64978 0.77042 0.0
O309 O 0.7963 0.65723 0.83098 0.0
O310 O 0.78319 0.65002 0.72727 0.0
C311 C 0.79414 0.66887 0.00913 0.0
O312 O 0.80422 0.65851 0.97704 0.0
C313 C 0.76831 0.66521 0.57393 0.0
C314 C 0.74154 0.65624 0.52168 0.0
C315 C 0.7601 0.66221 0.50826 0.0
N316 N 0.75536 0.66097 0.62376 0.0
N317 N 0.73932 0.65568 0.59239 0.0
C318 C 0.78804 0.67287 0.58982 0.0
H319 H 0.78925 0.68025 0.64106 0.0
H320 H 0.79422 0.68236 0.54742 0.0
H321 H 0.79581 0.66143 0.5937 0.0
C322 C 0.77397 0.70688 0.83573 0.0
N323 N 0.77221 0.68885 0.8207 0.0
N324 N 0.76517 0.68571 0.75714 0.0
C325 C 0.76224 0.70172 0.72962 0.0
C326 C 0.76772 0.71568 0.77848 0.0
C327 C 0.7818 0.71541 0.90325 0.0
H328 H 0.7712 0.71251 0.94515 0.0
H329 H 0.7937 0.7092 0.91952 0.0
H330 H 0.78616 0.73051 0.89792 0.0
O331 O 0.75353 0.65071 0.88169 0.0
O332 O 0.74056 0.6453 0.77632 0.0
H333 H 0.74184 0.69172 0.65179 0.0
H334 H 0.74809 0.7165 0.65554 0.0
C335 C 0.75335 0.70343 0.65964 0.0
H336 H 0.76358 0.70303 0.61721 0.0
H337 H 0.72696 0.65141 0.6191 0.0
O338 O 0.78245 0.67569 0.9737 0.0
C339 C 0.74043 0.64276 0.84289 0.0
Co340 Co 0.61966 0.5099 0.96682 0.0
Co341 Co 0.61975 0.52135 0.1238 0.0
C342 C 0.63402 0.48755 0.07511 0.0
O343 O 0.62978 0.48965 0.01101 0.0
O344 O 0.63114 0.49896 0.12204 0.0
C345 C 0.61918 0.49097 0.83311 0.0
O346 O 0.626 0.47833 0.86736 0.0
C347 C 0.61146 0.51247 0.26842 0.0
C348 C 0.61923 0.539 0.32384 0.0
C349 C 0.61344 0.5203 0.33488 0.0
N350 N 0.61622 0.52578 0.22047 0.0
N351 N 0.62066 0.54168 0.2536 0.0
C352 C 0.60492 0.49269 0.24986 0.0
H353 H 0.59804 0.49157 0.19758 0.0
H354 H 0.5953 0.48576 0.29055 0.0
H355 H 0.61686 0.48559 0.24663 0.0
C356 C 0.58042 0.51274 0.98017 0.0
N357 N 0.5971 0.51276 0.00844 0.0
N358 N 0.5971 0.51815 0.07446 0.0
C359 C 0.58049 0.52214 0.09011 0.0
C360 C 0.5693 0.51889 0.0306 0.0
C361 C 0.57544 0.5072 0.90567 0.0
H362 H 0.58086 0.49461 0.8923 0.0
H363 H 0.56035 0.50449 0.89767 0.0
H364 H 0.58187 0.51833 0.8695 0.0
O365 O 0.63776 0.53345 0.97174 0.0
O366 O 0.6371 0.54222 0.08353 0.0
H367 H 0.58817 0.54195 0.17221 0.0
H368 H 0.56385 0.53721 0.15363 0.0
C369 C 0.57638 0.53106 0.15767 0.0
H370 H 0.57451 0.52062 0.20031 0.0
H371 H 0.62536 0.55421 0.22852 0.0
O372 O 0.61566 0.50486 0.86599 0.0
C373 C 0.64316 0.54495 0.02083 0.0
Co374 Co 0.73479 0.39513 0.37693 0.0
Co375 Co 0.74795 0.39118 0.22227 0.0
C376 C 0.71348 0.40615 0.25631 0.0
O377 O 0.71513 0.40455 0.32288 0.0
O378 O 0.72516 0.40154 0.21378 0.0
C379 C 0.71811 0.38913 0.52383 0.0
O380 O 0.70331 0.37763 0.50407 0.0
C381 C 0.74583 0.38356 0.0706 0.0
C382 C 0.77517 0.38728 0.04225 0.0
C383 C 0.75766 0.38448 0.01363 0.0
N384 N 0.75586 0.38584 0.1301 0.0
N385 N 0.77338 0.38756 0.11288 0.0
C386 C 0.72559 0.3832 0.06825 0.0
H387 H 0.72315 0.39753 0.06506 0.0
H388 H 0.71904 0.37664 0.11673 0.0
H389 H 0.71921 0.37559 0.02153 0.0
C390 C 0.73695 0.35481 0.37675 0.0
N391 N 0.73839 0.37138 0.34522 0.0
N392 N 0.74367 0.36987 0.27947 0.0
C393 C 0.74537 0.35235 0.26665 0.0
C394 C 0.74122 0.34219 0.32796 0.0
C395 C 0.73286 0.35136 0.45333 0.0
H396 H 0.73966 0.36327 0.48501 0.0
H397 H 0.71782 0.34944 0.46157 0.0
H398 H 0.73769 0.33883 0.47179 0.0
O399 O 0.75812 0.41289 0.37039 0.0
O400 O 0.76809 0.4099 0.26192 0.0
H401 H 0.76442 0.35108 0.18297 0.0
H402 H 0.74765 0.33018 0.19399 0.0
C403 C 0.74987 0.3454 0.19581 0.0
H404 H 0.74111 0.35023 0.15512 0.0
H405 H 0.78417 0.3902 0.14903 0.0
O406 O 0.73021 0.39584 0.47899 0.0
C407 C 0.77012 0.41732 0.32265 0.0
Co408 Co 0.11926 0.51218 0.63914 0.0
Co409 Co 0.11937 0.5224 0.48049 0.0
C410 C 0.13363 0.48904 0.53224 0.0
O411 O 0.12945 0.49196 0.59582 0.0
O412 O 0.13065 0.49981 0.483 0.0
C413 C 0.1098 0.49236 0.77049 0.0
O414 O 0.10366 0.4777 0.73232 0.0
C415 C 0.10952 0.51466 0.33432 0.0
C416 C 0.11521 0.54218 0.28498 0.0
C417 C 0.10925 0.52369 0.27032 0.0
N418 N 0.11523 0.52728 0.38428 0.0
N419 N 0.11849 0.54371 0.35476 0.0
C420 C 0.10671 0.49439 0.34776 0.0
H421 H 0.12023 0.48997 0.34564 0.0
H422 H 0.10087 0.49131 0.40126 0.0
H423 H 0.09765 0.4863 0.30833 0.0
C424 C 0.08002 0.51569 0.62531 0.0
N425 N 0.09665 0.51504 0.59757 0.0
N426 N 0.09672 0.5197 0.53064 0.0
C427 C 0.08018 0.52372 0.51379 0.0
C428 C 0.069 0.52134 0.57334 0.0
C429 C 0.07495 0.51123 0.70058 0.0
H430 H 0.07698 0.49707 0.71208 0.0
H431 H 0.06041 0.51191 0.71181 0.0
H432 H 0.08408 0.5208 0.7359 0.0
O433 O 0.13729 0.53554 0.63256 0.0
O434 O 0.13711 0.54336 0.51967 0.0
H435 H 0.08722 0.54375 0.43238 0.0
H436 H 0.06286 0.53696 0.44576 0.0
C437 C 0.0761 0.53201 0.44488 0.0
H438 H 0.07571 0.5216 0.40251 0.0
H439 H 0.12332 0.5559 0.38198 0.0
O440 O 0.11633 0.50748 0.74059 0.0
C441 C 0.14299 0.54657 0.58247 0.0
Co442 Co 0.23815 0.39427 0.26482 0.0
Co443 Co 0.25151 0.39352 0.42021 0.0
C444 C 0.21715 0.40834 0.37749 0.0
O445 O 0.21843 0.40529 0.3117 0.0
O446 O 0.22894 0.40434 0.42084 0.0
C447 C 0.21902 0.39274 0.12909 0.0
O448 O 0.20548 0.39848 0.16178 0.0
C449 C 0.24378 0.38356 0.5655 0.0
C450 C 0.26925 0.39613 0.62063 0.0
C451 C 0.2513 0.3873 0.632 0.0
N452 N 0.25652 0.39018 0.51716 0.0
N453 N 0.27184 0.39745 0.55029 0.0
C454 C 0.22506 0.37309 0.54768 0.0
H455 H 0.22391 0.36996 0.49045 0.0
H456 H 0.22231 0.36013 0.57853 0.0
H457 H 0.2144 0.38106 0.56206 0.0
C458 C 0.2384 0.35419 0.27881 0.0
N459 N 0.24095 0.37133 0.30566 0.0
N460 N 0.24747 0.37107 0.37012 0.0
C461 C 0.24959 0.35381 0.38606 0.0
C462 C 0.24376 0.34248 0.32883 0.0
C463 C 0.23196 0.34944 0.2051 0.0
H464 H 0.24181 0.35734 0.16736 0.0
H465 H 0.21843 0.35355 0.19686 0.0
H466 H 0.23084 0.33459 0.19367 0.0
O467 O 0.2619 0.41193 0.26758 0.0
O468 O 0.27204 0.41103 0.3774 0.0
H469 H 0.2673 0.35934 0.47627 0.0
H470 H 0.26188 0.33534 0.45185 0.0
C471 C 0.25643 0.34827 0.4557 0.0
H472 H 0.2449 0.34602 0.49385 0.0
H473 H 0.2837 0.4042 0.5251 0.0
O474 O 0.23305 0.3903 0.16364 0.0
C475 C 0.27403 0.41717 0.31455 0.0
Co476 Co 0.39647 0.54897 0.13448 0.0
Co477 Co 0.38611 0.53196 0.98545 0.0
C478 C 0.37587 0.56805 0.03312 0.0
O479 O 0.38379 0.56786 0.09284 0.0
O480 O 0.37571 0.55505 0.98878 0.0
C481 C 0.39483 0.55822 0.27864 0.0
O482 O 0.3779 0.55941 0.26133 0.0
C483 C 0.38829 0.53429 0.83237 0.0
C484 C 0.38351 0.50516 0.79957 0.0
C485 C 0.38777 0.52297 0.77411 0.0
N486 N 0.38451 0.52371 0.88998 0.0
N487 N 0.38136 0.5063 0.86996 0.0
C488 C 0.39422 0.55473 0.83424 0.0
H489 H 0.4007 0.55914 0.88572 0.0
H490 H 0.40397 0.55948 0.79076 0.0
H491 H 0.38197 0.56123 0.82746 0.0
C492 C 0.43378 0.54591 0.08697 0.0
N493 N 0.41557 0.54409 0.07602 0.0
N494 N 0.41139 0.53654 0.01388 0.0
C495 C 0.42697 0.53331 0.98324 0.0
C496 C 0.44165 0.53914 0.02856 0.0
C497 C 0.44338 0.55423 0.15191 0.0
H498 H 0.43784 0.56661 0.16739 0.0
H499 H 0.45843 0.55807 0.14359 0.0
H500 H 0.4407 0.54416 0.19572 0.0
O501 O 0.37885 0.52604 0.1502 0.0
O502 O 0.3711 0.5128 0.04691 0.0
H503 H 0.44104 0.51926 0.90615 0.0
H504 H 0.42546 0.53304 0.8707 0.0
C505 C 0.42765 0.52365 0.91417 0.0
H506 H 0.41659 0.51137 0.91221 0.0
H507 H 0.37852 0.49519 0.90464 0.0
O508 O 0.40593 0.55553 0.23036 0.0
C509 C 0.36994 0.5129 0.11402 0.0
Co510 Co 0.27909 0.66626 0.73499 0.0
Co511 Co 0.25987 0.66353 0.88315 0.0
C512 C 0.29558 0.64949 0.8541 0.0
O513 O 0.29683 0.65429 0.78942 0.0
O514 O 0.28219 0.65223 0.8923 0.0
C515 C 0.29519 0.67577 0.58103 0.0
O516 O 0.31039 0.68784 0.59003 0.0
C517 C 0.26045 0.66985 0.0361 0.0
C518 C 0.23161 0.65916 0.06493 0.0
C519 C 0.24877 0.66587 0.09366 0.0
N520 N 0.25067 0.66547 0.97664 0.0
N521 N 0.23337 0.65944 0.99426 0.0
C522 C 0.28082 0.67626 0.03738 0.0
H523 H 0.28736 0.66705 0.07121 0.0
H524 H 0.2866 0.67692 0.98342 0.0
H525 H 0.28403 0.69031 0.05983 0.0
C526 C 0.27746 0.70592 0.75652 0.0
N527 N 0.2746 0.68829 0.77829 0.0
N528 N 0.2661 0.68709 0.83963 0.0
C529 C 0.26334 0.70393 0.85886 0.0
C530 C 0.27051 0.71647 0.80689 0.0
C531 C 0.28545 0.7122 0.68635 0.0
H532 H 0.27822 0.70323 0.64443 0.0
H533 H 0.30015 0.71098 0.68552 0.0
H534 H 0.2842 0.72661 0.67488 0.0
O535 O 0.25557 0.6493 0.7259 0.0
O536 O 0.24056 0.64699 0.82731 0.0
H537 H 0.24116 0.6986 0.93277 0.0
H538 H 0.25278 0.72238 0.9309 0.0
C539 C 0.25464 0.7079 0.92703 0.0
H540 H 0.26351 0.70512 0.97127 0.0
H541 H 0.22295 0.65457 0.95824 0.0
O542 O 0.28554 0.66936 0.63379 0.0
C543 C 0.2415 0.64285 0.76238 0.0
H544 H 0.38511 0.04521 0.76031 0.0
H545 H 0.43453 0.08697 0.75212 0.0
H546 H 0.43646 0.08207 0.62309 0.0
H547 H 0.39837 0.01456 0.63405 0.0
H548 H 0.37575 0.00833 0.59616 0.0
H549 H 0.37833 0.01524 0.68725 0.0
H550 H 0.35917 0.04068 0.66486 0.0
H551 H 0.35641 0.03378 0.5738 0.0
H552 H 0.36598 0.05728 0.59585 0.0
H553 H 0.43376 0.07099 0.49599 0.0
H554 H 0.42502 0.05713 0.37934 0.0
H555 H 0.37624 0.02424 0.47106 0.0
C556 C 0.39635 0.05337 0.73147 0.0
C557 C 0.40975 0.06642 0.76613 0.0
C558 C 0.42411 0.07695 0.72643 0.0
C559 C 0.42535 0.07418 0.65333 0.0
C560 C 0.41199 0.06101 0.621 0.0
C561 C 0.39764 0.05097 0.65878 0.0
C562 C 0.38481 0.03794 0.61176 0.0
C563 C 0.3843 0.01783 0.63362 0.0
C564 C 0.36545 0.04271 0.61155 0.0
C565 C 0.39422 0.0421 0.54135 0.0
C566 C 0.40996 0.05533 0.54779 0.0
C567 C 0.42124 0.06097 0.49012 0.0
C568 C 0.41606 0.05318 0.42399 0.0
C569 C 0.39953 0.04027 0.41582 0.0
C570 C 0.38875 0.03438 0.47564 0.0
H571 H 0.24594 0.15423 0.87306 0.0
H572 H 0.28114 0.20351 0.95079 0.0
H573 H 0.29514 0.20907 0.83241 0.0
H574 H 0.27773 0.13927 0.75673 0.0
H575 H 0.26107 0.13167 0.68865 0.0
H576 H 0.25393 0.13158 0.77944 0.0
H577 H 0.23008 0.15195 0.74772 0.0
H578 H 0.23699 0.15188 0.65669 0.0
H579 H 0.23755 0.17338 0.70207 0.0
H580 H 0.30609 0.20837 0.70586 0.0
H581 H 0.31063 0.20338 0.57829 0.0
H582 H 0.26708 0.15538 0.58417 0.0
C583 C 0.25653 0.16623 0.86492 0.0
C584 C 0.26302 0.17806 0.92127 0.0
C585 C 0.27663 0.19383 0.90871 0.0
C586 C 0.28452 0.19718 0.84166 0.0
C587 C 0.27832 0.18483 0.78764 0.0
C588 C 0.26439 0.16986 0.79828 0.0
C589 C 0.25984 0.15894 0.7312 0.0
C590 C 0.26336 0.1392 0.73954 0.0
C591 C 0.23994 0.15906 0.70806 0.0
C592 C 0.2735 0.16999 0.68134 0.0
C593 C 0.28413 0.18481 0.71474 0.0
C594 C 0.29779 0.19686 0.67902 0.0
C595 C 0.30035 0.19386 0.60682 0.0
C596 C 0.28919 0.17903 0.57145 0.0
C597 C 0.27579 0.16689 0.60969 0.0
H598 H 0.1101 0.01786 0.26251 0.0
H599 H 0.11966 0.962 0.23985 0.0
H600 H 0.11828 0.96499 0.11007 0.0
H601 H 0.07907 0.01766 0.11206 0.0
H602 H 0.08859 0.04104 0.08814 0.0
H603 H 0.0887 0.03391 0.17902 0.0
H604 H 0.12394 0.0451 0.18431 0.0
H605 H 0.12395 0.05222 0.09354 0.0
H606 H 0.13842 0.03641 0.12114 0.0
H607 H 0.11766 0.9747 0.98305 0.0
H608 H 0.11866 0.99047 0.86849 0.0
H609 H 0.10998 0.04029 0.9732 0.0
C610 C 0.1116 0.00612 0.23039 0.0
C611 C 0.11484 0.9896 0.26146 0.0
C612 C 0.11708 0.97473 0.21734 0.0
C613 C 0.11629 0.9763 0.14357 0.0
C614 C 0.11332 0.99286 0.11475 0.0
C615 C 0.11105 0.00752 0.1568 0.0
C616 C 0.10918 0.02419 0.1127 0.0
C617 C 0.09026 0.02951 0.12364 0.0
C618 C 0.1248 0.04043 0.1289 0.0
C619 C 0.11097 0.01669 0.03913 0.0
C620 C 0.11315 0.99853 0.04153 0.0
C621 C 0.11563 0.9888 0.9805 0.0
C622 C 0.11595 0.99785 0.91539 0.0
C623 C 0.11376 0.01645 0.91151 0.0
C624 C 0.11134 0.02597 0.97444 0.0
H625 H 0.26229 0.87975 0.37647 0.0
H626 H 0.21348 0.8964 0.46166 0.0
H627 H 0.19881 0.89235 0.34495 0.0
H628 H 0.26266 0.90444 0.21994 0.0
H629 H 0.2709 0.88771 0.16546 0.0
H630 H 0.27647 0.88924 0.25785 0.0
H631 H 0.26246 0.85469 0.27312 0.0
H632 H 0.25678 0.85308 0.18059 0.0
H633 H 0.23912 0.8463 0.24572 0.0
H634 H 0.19045 0.88917 0.2169 0.0
H635 H 0.18996 0.88894 0.08651 0.0
H636 H 0.24456 0.87533 0.0847 0.0
C637 C 0.24838 0.8822 0.37076 0.0
C638 C 0.23878 0.88768 0.42879 0.0
C639 C 0.22079 0.89127 0.41897 0.0
C640 C 0.21238 0.88917 0.35256 0.0
C641 C 0.22218 0.88361 0.29648 0.0
C642 C 0.23982 0.88025 0.30482 0.0
C643 C 0.24804 0.87611 0.235 0.0
C644 C 0.26554 0.89022 0.21862 0.0
C645 C 0.25181 0.85637 0.23355 0.0
C646 C 0.23248 0.87824 0.1859 0.0
C647 C 0.21756 0.88226 0.22235 0.0
C648 C 0.20196 0.88581 0.18774 0.0
C649 C 0.20179 0.88564 0.11375 0.0
C650 C 0.21722 0.88215 0.07557 0.0
C651 C 0.23253 0.878 0.1124 0.0
H652 H 0.60472 0.03811 0.62523 0.0
H653 H 0.6309 0.99661 0.72269 0.0
H654 H 0.63202 0.98136 0.6076 0.0
H655 H 0.57737 0.00781 0.4948 0.0
H656 H 0.58082 0.02501 0.42643 0.0
H657 H 0.58058 0.03184 0.51766 0.0
H658 H 0.61267 0.05236 0.50249 0.0
H659 H 0.61298 0.04562 0.41132 0.0
H660 H 0.63141 0.04233 0.46925 0.0
H661 H 0.63265 0.97201 0.4809 0.0
H662 H 0.63274 0.9693 0.35093 0.0
H663 H 0.60584 0.01656 0.3347 0.0
C664 C 0.61037 0.02563 0.62222 0.0
C665 C 0.61703 0.01809 0.6832 0.0
C666 C 0.62485 1.00206 0.67727 0.0
C667 C 0.62575 0.99342 0.61192 0.0
C668 C 0.61886 1.00103 0.55281 0.0
C669 C 0.6113 0.01676 0.55721 0.0
C670 C 0.60576 0.0226 0.48491 0.0
C671 C 0.58489 0.02176 0.48073 0.0
C672 C 0.61634 0.04187 0.46589 0.0
C673 C 0.61169 0.0079 0.43925 0.0
C674 C 0.61917 0.99557 0.47949 0.0
C675 C 0.62661 0.98143 0.44884 0.0
C676 C 0.62661 0.98001 0.375 0.0
C677 C 0.61914 0.99258 0.33268 0.0
C678 C 0.61134 0.00651 0.36559 0.0
H679 H 0.7437 0.87728 0.51209 0.0
H680 H 0.69009 0.89314 0.50663 0.0
H681 H 0.69 0.89083 0.37644 0.0
H682 H 0.76216 0.90301 0.36976 0.0
H683 H 0.77511 0.88646 0.33639 0.0
H684 H 0.76981 0.88686 0.42883 0.0
H685 H 0.75431 0.85251 0.4236 0.0
H686 H 0.75966 0.85195 0.33095 0.0
H687 H 0.73627 0.84512 0.36041 0.0
H688 H 0.69777 0.89099 0.24779 0.0
H689 H 0.71216 0.89268 0.13071 0.0
H690 H 0.76024 0.87554 0.22035 0.0
C691 C 0.73177 0.87997 0.48372 0.0
C692 C 0.71691 0.88544 0.51929 0.0
C693 C 0.70159 0.88887 0.4803 0.0
C694 C 0.70141 0.88756 0.40646 0.0
C695 C 0.71653 0.88257 0.37294 0.0
C696 C 0.73134 0.87865 0.41042 0.0
C697 C 0.74645 0.87488 0.36204 0.0
C698 C 0.76444 0.88863 0.37504 0.0
C699 C 0.74934 0.85493 0.36971 0.0
C700 C 0.73815 0.878 0.29131 0.0
C701 C 0.7208 0.8822 0.29863 0.0
C702 C 0.71107 0.88713 0.24113 0.0
C703 C 0.71932 0.88784 0.17447 0.0
C704 C 0.73706 0.88352 0.16584 0.0
C705 C 0.74649 0.87849 0.22516 0.0
H706 H 0.91255 0.04555 0.18442 0.0
H707 H 0.86361 0.00391 0.15469 0.0
H708 H 0.86422 0.01095 0.02754 0.0
H709 H 0.89944 0.07851 0.06433 0.0
H710 H 0.92254 0.08643 0.03334 0.0
H711 H 0.91869 0.07753 0.12155 0.0
H712 H 0.93964 0.05382 0.09617 0.0
H713 H 0.94351 0.06259 0.00779 0.0
H714 H 0.93466 0.03851 0.02181 0.0
H715 H 0.86986 0.02285 0.90332 0.0
H716 H 0.88002 0.03894 0.79214 0.0
H717 H 0.9243 0.07384 0.90437 0.0
C718 C 0.90165 0.03815 0.15219 0.0
C719 C 0.88776 0.02442 0.18076 0.0
C720 C 0.8744 0.01453 0.13459 0.0
C721 C 0.87458 0.01846 0.06214 0.0
C722 C 0.88823 0.03234 0.03624 0.0
C723 C 0.90151 0.04205 0.07984 0.0
C724 C 0.91455 0.05647 0.03885 0.0
C725 C 0.91375 0.07588 0.06614 0.0
C726 C 0.93425 0.05261 0.04131 0.0
C727 C 0.90644 0.05343 0.96543 0.0
C728 C 0.89134 0.03936 0.96496 0.0
C729 C 0.88166 0.03391 0.90312 0.0
C730 C 0.88756 0.0431 0.84016 0.0
C731 C 0.90294 0.05766 0.83941 0.0
C732 C 0.91243 0.06285 0.90314 0.0
H733 H 0.77025 0.14526 0.70351 0.0
H734 H 0.74398 0.19289 0.69217 0.0
H735 H 0.75459 0.20176 0.81336 0.0
H736 H 0.75653 0.13356 0.87617 0.0
H737 H 0.77717 0.12546 0.90079 0.0
H738 H 0.77003 0.12461 0.81004 0.0
H739 H 0.80172 0.14359 0.77461 0.0
H740 H 0.80888 0.14466 0.86568 0.0
H741 H 0.80977 0.16554 0.81585 0.0
H742 H 0.76619 0.20433 0.93607 0.0
H743 H 0.77371 0.1982 0.05896 0.0
H744 H 0.79091 0.14768 0.9936 0.0
C745 C 0.76702 0.15768 0.72661 0.0
C746 C 0.75651 0.16855 0.68943 0.0
C747 C 0.75207 0.18449 0.72071 0.0
C748 C 0.7582 0.1897 0.78884 0.0
C749 C 0.76858 0.17869 0.82456 0.0
C750 C 0.77274 0.16286 0.79501 0.0
C751 C 0.78204 0.15224 0.84771 0.0
C752 C 0.77076 0.13283 0.85937 0.0
C753 C 0.80178 0.15147 0.82457 0.0
C754 C 0.78188 0.16425 0.91225 0.0
C755 C 0.77458 0.17971 0.89703 0.0
C756 C 0.77204 0.19235 0.94867 0.0
C757 C 0.77635 0.18871 0.01839 0.0
C758 C 0.78275 0.17236 0.03593 0.0
C759 C 0.78616 0.16034 0.98175 0.0
H760 H 0.90501 0.54044 0.25965 0.0
H761 H 0.88396 0.59143 0.25026 0.0
H762 H 0.88163 0.5886 0.12066 0.0
H763 H 0.93107 0.54624 0.0923 0.0
H764 H 0.92502 0.52217 0.07069 0.0
H765 H 0.92708 0.52932 0.16168 0.0
H766 H 0.894 0.51187 0.18525 0.0
H767 H 0.89174 0.50485 0.09428 0.0
H768 H 0.8753 0.51713 0.13291 0.0
H769 H 0.87878 0.57888 0.99488 0.0
H770 H 0.87667 0.56356 0.87925 0.0
H771 H 0.89945 0.51865 0.96864 0.0
C772 C 0.90037 0.55127 0.23018 0.0
C773 C 0.89481 0.56627 0.26494 0.0
C774 C 0.88838 0.57989 0.22466 0.0
C775 C 0.887 0.5784 0.15107 0.0
C776 C 0.89208 0.56317 0.11867 0.0
C777 C 0.89873 0.54989 0.15674 0.0
C778 C 0.90206 0.53428 0.10945 0.0
C779 C 0.92253 0.53293 0.10847 0.0
C780 C 0.89006 0.51596 0.13182 0.0
C781 C 0.89596 0.54074 0.03899 0.0
C782 C 0.89039 0.5575 0.04561 0.0
C783 C 0.8835 0.56597 0.98868 0.0
C784 C 0.88252 0.55722 0.92298 0.0
C785 C 0.8885 0.54023 0.91446 0.0
C786 C 0.89505 0.53178 0.97354 0.0
H787 H 0.74757 0.67474 0.38505 0.0
H788 H 0.79245 0.65163 0.4728 0.0
H789 H 0.80756 0.65382 0.35668 0.0
H790 H 0.74539 0.6507 0.22227 0.0
H791 H 0.74002 0.66938 0.17009 0.0
H792 H 0.73345 0.66734 0.26153 0.0
H793 H 0.75103 0.70046 0.28436 0.0
H794 H 0.75777 0.70254 0.19295 0.0
H795 H 0.775 0.70641 0.26122 0.0
H796 H 0.81693 0.65671 0.23004 0.0
H797 H 0.81927 0.659 0.1003 0.0
H798 H 0.7684 0.68027 0.09396 0.0
C799 C 0.76066 0.67033 0.37977 0.0
C800 C 0.76913 0.66359 0.43841 0.0
C801 C 0.78609 0.65758 0.42938 0.0
C802 C 0.79472 0.65863 0.36341 0.0
C803 C 0.78618 0.66563 0.30687 0.0
C804 C 0.7695 0.67132 0.31419 0.0
C805 C 0.76284 0.67742 0.24409 0.0
C806 C 0.74433 0.66549 0.22328 0.0
C807 C 0.76159 0.69793 0.24579 0.0
C808 C 0.7782 0.67394 0.19613 0.0
C809 C 0.79159 0.66726 0.2335 0.0
C810 C 0.80664 0.66211 0.20022 0.0
C811 C 0.80786 0.66347 0.12654 0.0
C812 C 0.7941 0.66992 0.08703 0.0
C813 C 0.7793 0.67556 0.1227 0.0
H814 H 0.60394 0.51424 0.75012 0.0
H815 H 0.62928 0.46579 0.74175 0.0
H816 H 0.62777 0.4663 0.6115 0.0
H817 H 0.57353 0.50292 0.59552 0.0
H818 H 0.57669 0.52662 0.56831 0.0
H819 H 0.57768 0.52099 0.66056 0.0
H820 H 0.60996 0.54152 0.66946 0.0
H821 H 0.60914 0.54712 0.57738 0.0
H822 H 0.62795 0.5373 0.61109 0.0
H823 H 0.62678 0.47426 0.48343 0.0
H824 H 0.62594 0.48863 0.36682 0.0
H825 H 0.60085 0.53167 0.459 0.0
C826 C 0.60889 0.50352 0.72109 0.0
C827 C 0.61673 0.48996 0.75596 0.0
C828 C 0.62315 0.47626 0.71603 0.0
C829 C 0.62232 0.47642 0.64212 0.0
C830 C 0.61489 0.49027 0.60942 0.0
C831 C 0.60817 0.50348 0.64766 0.0
C832 C 0.60205 0.51763 0.60011 0.0
C833 C 0.58125 0.51699 0.60651 0.0
C834 C 0.61293 0.53703 0.61543 0.0
C835 C 0.60697 0.51068 0.52903 0.0
C836 C 0.61412 0.49475 0.53545 0.0
C837 C 0.62073 0.48643 0.4775 0.0
C838 C 0.62002 0.49461 0.41125 0.0
C839 C 0.6127 0.5109 0.4036 0.0
C840 C 0.60614 0.519 0.46332 0.0
H841 H 0.70827 0.3665 0.63822 0.0
H842 H 0.73871 0.42001 0.57722 0.0
H843 H 0.75117 0.42483 0.69744 0.0
H844 H 0.6983 0.37939 0.82325 0.0
H845 H 0.70136 0.35745 0.85767 0.0
H846 H 0.6929 0.35907 0.76916 0.0
H847 H 0.71925 0.34376 0.72167 0.0
H848 H 0.72798 0.34237 0.80976 0.0
H849 H 0.74272 0.35391 0.74166 0.0
H850 H 0.76318 0.42262 0.81763 0.0
H851 H 0.77173 0.41469 0.9381 0.0
H852 H 0.73382 0.36269 0.92394 0.0
C853 C 0.71706 0.37946 0.65106 0.0
C854 C 0.72246 0.39295 0.59878 0.0
C855 C 0.73439 0.40953 0.61671 0.0
C856 C 0.74156 0.4124 0.68477 0.0
C857 C 0.73661 0.39857 0.73442 0.0
C858 C 0.72444 0.38253 0.71909 0.0
C859 C 0.72236 0.3695 0.78154 0.0
C860 C 0.70255 0.36616 0.80956 0.0
C861 C 0.72844 0.35131 0.76248 0.0
C862 C 0.73553 0.38061 0.83341 0.0
C863 C 0.74356 0.39733 0.80492 0.0
C864 C 0.7568 0.40969 0.84107 0.0
C865 C 0.7617 0.40501 0.90899 0.0
C866 C 0.75329 0.3882 0.93996 0.0
C867 C 0.74019 0.37576 0.90152 0.0
H868 H 0.1308 0.51461 0.86389 0.0
H869 H 0.08392 0.47004 0.85026 0.0
H870 H 0.07865 0.47273 0.97876 0.0
H871 H 0.14684 0.50205 0.03637 0.0
H872 H 0.15406 0.52571 0.06225 0.0
H873 H 0.15445 0.51935 0.9706 0.0
H874 H 0.13402 0.54322 0.94023 0.0
H875 H 0.13333 0.54949 0.03179 0.0
H876 H 0.11223 0.54198 0.98412 0.0
H877 H 0.07681 0.48288 0.10626 0.0
H878 H 0.08067 0.49705 0.22487 0.0
H879 H 0.13004 0.53334 0.15423 0.0
C880 C 0.11955 0.50525 0.88811 0.0
C881 C 0.10772 0.49215 0.8476 0.0
C882 C 0.0932 0.48008 0.88085 0.0
C883 C 0.09006 0.48158 0.95352 0.0
C884 C 0.10177 0.49501 0.99171 0.0
C885 C 0.11642 0.5064 0.96023 0.0
C886 C 0.12695 0.51981 0.01227 0.0
C887 C 0.14675 0.51652 0.02088 0.0
C888 C 0.1266 0.5398 0.9908 0.0
C889 C 0.11574 0.51447 0.07794 0.0
C890 C 0.10123 0.5002 0.06519 0.0
C891 C 0.08845 0.49365 0.11736 0.0
C892 C 0.09086 0.50163 0.18469 0.0
C893 C 0.10611 0.51568 0.19923 0.0
C894 C 0.11846 0.52236 0.14476 0.0
H895 H 0.2447 0.38011 0.04877 0.0
H896 H 0.1931 0.39989 0.03449 0.0
H897 H 0.19442 0.39793 0.90442 0.0
H898 H 0.26626 0.40519 0.90763 0.0
H899 H 0.27821 0.38753 0.877 0.0
H900 H 0.27215 0.38849 0.96862 0.0
H901 H 0.25466 0.35482 0.96267 0.0
H902 H 0.26073 0.35371 0.8709 0.0
H903 H 0.23697 0.34844 0.89726 0.0
H904 H 0.20321 0.39722 0.77706 0.0
H905 H 0.21826 0.39714 0.66162 0.0
H906 H 0.26367 0.3768 0.75834 0.0
C907 C 0.23349 0.38377 0.01851 0.0
C908 C 0.21877 0.39016 0.05179 0.0
C909 C 0.20447 0.39491 0.01013 0.0
C910 C 0.2051 0.39381 0.93628 0.0
C911 C 0.22002 0.38779 0.90523 0.0
C912 C 0.2339 0.38274 0.94506 0.0
C913 C 0.24898 0.37782 0.89896 0.0
C914 C 0.26748 0.39052 0.91395 0.0
C915 C 0.25041 0.35749 0.90799 0.0
C916 C 0.24168 0.38139 0.82679 0.0
C917 C 0.22487 0.38695 0.83157 0.0
C918 C 0.21604 0.39228 0.77242 0.0
C919 C 0.22458 0.39189 0.7067 0.0
C920 C 0.24168 0.38602 0.70048 0.0
C921 C 0.25034 0.38081 0.76146 0.0
H922 H 0.37166 0.54471 0.68716 0.0
H923 H 0.41548 0.51324 0.69793 0.0
H924 H 0.42463 0.52247 0.57555 0.0
H925 H 0.35833 0.53135 0.51298 0.0
H926 H 0.35248 0.5531 0.48852 0.0
H927 H 0.35096 0.54591 0.57928 0.0
H928 H 0.37262 0.57613 0.61506 0.0
H929 H 0.37432 0.58334 0.52411 0.0
H930 H 0.39483 0.58215 0.57379 0.0
H931 H 0.42835 0.53431 0.45178 0.0
H932 H 0.42381 0.544 0.32969 0.0
H933 H 0.37605 0.56597 0.39632 0.0
C934 C 0.38331 0.54001 0.66368 0.0
C935 C 0.39304 0.52846 0.70137 0.0
C936 C 0.40795 0.52214 0.6693 0.0
C937 C 0.4133 0.52743 0.60029 0.0
C938 C 0.40342 0.53884 0.56414 0.0
C939 C 0.38856 0.54483 0.59429 0.0
C940 C 0.3791 0.55537 0.54163 0.0
C941 C 0.35904 0.54586 0.52991 0.0
C942 C 0.3803 0.57544 0.56506 0.0
C943 C 0.39075 0.55407 0.47678 0.0
C944 C 0.40498 0.54489 0.49145 0.0
C945 C 0.4173 0.54157 0.43965 0.0
C946 C 0.41464 0.5472 0.37045 0.0
C947 C 0.39955 0.55573 0.35341 0.0
C948 C 0.38775 0.55957 0.40777 0.0
H949 H 0.2742 0.68992 0.17275 0.0
H950 H 0.23397 0.63939 0.18643 0.0
H951 H 0.2425 0.63595 0.31067 0.0
H952 H 0.30902 0.67463 0.28038 0.0
H953 H 0.31623 0.69669 0.3219 0.0
H954 H 0.30694 0.69538 0.23378 0.0
H955 H 0.28233 0.71407 0.2731 0.0
H956 H 0.29157 0.7155 0.36123 0.0
H957 H 0.26763 0.70613 0.34681 0.0
H958 H 0.25509 0.63779 0.43203 0.0
H959 H 0.27007 0.64554 0.54666 0.0
H960 H 0.30317 0.69441 0.45511 0.0
C961 C 0.26745 0.67792 0.20116 0.0
C962 C 0.25366 0.66471 0.16916 0.0
C963 C 0.24458 0.64969 0.20971 0.0
C964 C 0.24941 0.64754 0.28019 0.0
C965 C 0.26333 0.66056 0.30957 0.0
C966 C 0.27217 0.67552 0.2717 0.0
C967 C 0.2864 0.68769 0.3168 0.0
C968 C 0.3058 0.68865 0.28639 0.0
C969 C 0.28169 0.70699 0.32497 0.0
C970 C 0.28412 0.67722 0.38596 0.0
C971 C 0.27073 0.6616 0.38026 0.0
C972 C 0.26566 0.64993 0.43715 0.0
C973 C 0.27427 0.65447 0.50207 0.0
C974 C 0.28786 0.67054 0.50981 0.0
C975 C 0.29303 0.68192 0.45057 0.0
H976 H 0.35508 0.07403 0.19954 0.0
H977 H 0.37687 0.10291 0.00977 0.0
H978 H 0.36085 0.12834 0.0398 0.0
H979 H 0.31111 0.08529 0.18886 0.0
H980 H 0.30836 0.08791 0.28257 0.0
H981 H 0.32292 0.0728 0.24984 0.0
H982 H 0.35011 0.0904 0.32303 0.0
H983 H 0.33561 0.10561 0.35593 0.0
H984 H 0.3569 0.1149 0.31219 0.0
H985 H 0.34077 0.14943 0.08495 0.0
H986 H 0.31713 0.16435 0.14032 0.0
H987 H 0.30822 0.12212 0.30129 0.0
C988 C 0.35674 0.08582 0.16479 0.0
C989 C 0.36735 0.08647 0.10234 0.0
C990 C 0.36888 0.10206 0.05787 0.0
C991 C 0.35989 0.11663 0.07468 0.0
C992 C 0.34946 0.11547 0.13627 0.0
C993 C 0.34783 0.10047 0.18069 0.0
C994 C 0.33481 0.10212 0.24125 0.0
C995 C 0.31833 0.08608 0.24054 0.0
C996 C 0.34497 0.10333 0.31231 0.0
C997 C 0.32903 0.12019 0.22301 0.0
C998 C 0.33782 0.12772 0.16258 0.0
C999 C 0.33395 0.14376 0.13263 0.0
C1000 C 0.32045 0.15209 0.16418 0.0
C1001 C 0.31095 0.14439 0.22495 0.0
C1002 C 0.3156 0.12848 0.25572 0.0
H1003 H 0.17106 0.06964 0.56156 0.0
H1004 H 0.13869 0.05258 0.37401 0.0
H1005 H 0.15882 0.07594 0.3042 0.0
H1006 H 0.18199 0.11922 0.5178 0.0
H1007 H 0.20511 0.12192 0.55141 0.0
H1008 H 0.18719 0.10489 0.58913 0.0
H1009 H 0.20649 0.07971 0.56425 0.0
H1010 H 0.22437 0.09664 0.52605 0.0
H1011 H 0.21429 0.07666 0.47568 0.0
H1012 H 0.18304 0.09956 0.25217 0.0
H1013 H 0.21023 0.12272 0.22124 0.0
H1014 H 0.22778 0.12467 0.44037 0.0
C1015 C 0.16807 0.07111 0.50617 0.0
C1016 C 0.15329 0.05928 0.47332 0.0
C1017 C 0.14998 0.06141 0.40033 0.0
C1018 C 0.1613 0.07469 0.3601 0.0
C1019 C 0.17598 0.08582 0.39332 0.0
C1020 C 0.17943 0.08429 0.46462 0.0
C1021 C 0.19681 0.09747 0.48569 0.0
C1022 C 0.19251 0.11172 0.53917 0.0
C1023 C 0.21134 0.08698 0.51461 0.0
C1024 C 0.20259 0.10632 0.41496 0.0
C1025 C 0.19027 0.09947 0.36264 0.0
C1026 C 0.19277 0.10516 0.2927 0.0
C1027 C 0.20829 0.1183 0.2756 0.0
C1028 C 0.2212 0.12556 0.32816 0.0
C1029 C 0.2182 0.11944 0.39882 0.0
H1030 H 0.20432 0.91954 0.63846 0.0
H1031 H 0.19182 0.91868 0.86251 0.0
H1032 H 0.16797 0.93723 0.84024 0.0
H1033 H 0.19986 0.96499 0.60659 0.0
H1034 H 0.18919 0.96087 0.52118 0.0
H1035 H 0.20419 0.94609 0.55302 0.0
H1036 H 0.17842 0.9177 0.53579 0.0
H1037 H 0.16331 0.93237 0.50346 0.0
H1038 H 0.15637 0.9172 0.57682 0.0
H1039 H 0.14869 0.95886 0.79724 0.0
H1040 H 0.1331 0.98062 0.73508 0.0
H1041 H 0.15576 0.96622 0.53617 0.0
C1042 C 0.19634 0.92294 0.68274 0.0
C1043 C 0.19998 0.91759 0.75238 0.0
C1044 C 0.1893 0.92251 0.80876 0.0
C1045 C 0.1757 0.93306 0.79663 0.0
C1046 C 0.17272 0.93836 0.72769 0.0
C1047 C 0.18253 0.9333 0.67147 0.0
C1048 C 0.17703 0.94149 0.60294 0.0
C1049 C 0.19355 0.95411 0.56897 0.0
C1050 C 0.16826 0.92628 0.55173 0.0
C1051 C 0.16296 0.9524 0.62989 0.0
C1052 C 0.16077 0.95033 0.70208 0.0
C1053 C 0.14989 0.96021 0.7405 0.0
C1054 C 0.14103 0.97256 0.70448 0.0
C1055 C 0.14274 0.97482 0.63037 0.0
C1056 C 0.15375 0.96441 0.59248 0.0
H1057 H 0.33846 0.98941 0.06589 0.0
H1058 H 0.37154 0.0042 0.87825 0.0
H1059 H 0.35177 0.97993 0.8114 0.0
H1060 H 0.32805 0.93936 0.03119 0.0
H1061 H 0.30477 0.93686 0.06288 0.0
H1062 H 0.32239 0.95449 0.09897 0.0
H1063 H 0.303 0.97913 0.06701 0.0
H1064 H 0.28539 0.96159 0.0306 0.0
H1065 H 0.29552 0.98094 0.97718 0.0
H1066 H 0.3279 0.95573 0.76182 0.0
H1067 H 0.30082 0.93236 0.73224 0.0
H1068 H 0.28234 0.93265 0.94978 0.0
C1069 C 0.34167 0.98729 0.01112 0.0
C1070 C 0.35656 0.99875 0.97743 0.0
C1071 C 0.36016 0.99572 0.90528 0.0
C1072 C 0.34905 0.98189 0.86671 0.0
C1073 C 0.33431 0.9711 0.90072 0.0
C1074 C 0.33054 0.97352 0.97122 0.0
C1075 C 0.31315 0.96048 0.99319 0.0
C1076 C 0.31735 0.947 0.04992 0.0
C1077 C 0.2984 0.97118 0.01847 0.0
C1078 C 0.30772 0.95068 0.92379 0.0
C1079 C 0.32024 0.95698 0.87147 0.0
C1080 C 0.31803 0.95054 0.80239 0.0
C1081 C 0.30256 0.93729 0.78607 0.0
C1082 C 0.28941 0.9306 0.83854 0.0
C1083 C 0.29216 0.93737 0.90847 0.0
H1084 H 0.70496 0.92057 0.96241 0.0
H1085 H 0.69037 0.91772 0.74004 0.0
H1086 H 0.66673 0.93637 0.76284 0.0
H1087 H 0.65753 0.91911 0.0297 0.0
H1088 H 0.66515 0.93504 0.1002 0.0
H1089 H 0.67992 0.91997 0.06833 0.0
H1090 H 0.70557 0.9481 0.04462 0.0
H1091 H 0.69089 0.96326 0.07598 0.0
H1092 H 0.7008 0.96643 0.98902 0.0
H1093 H 0.64762 0.95802 0.80486 0.0
H1094 H 0.63233 0.98027 0.86571 0.0
H1095 H 0.65731 0.96864 0.06354 0.0
C1096 C 0.69656 0.92358 0.91873 0.0
C1097 C 0.69958 0.91762 0.84929 0.0
C1098 C 0.68837 0.92204 0.79363 0.0
C1099 C 0.67486 0.93263 0.80604 0.0
C1100 C 0.67252 0.93858 0.87456 0.0
C1101 C 0.68286 0.93409 0.93027 0.0
C1102 C 0.67798 0.94304 -0.00181 0.0
C1103 C 0.66964 0.92841 0.05231 0.0
C1104 C 0.69481 0.95597 0.02871 0.0
C1105 C 0.66369 0.95371 0.97125 0.0
C1106 C 0.6608 0.95081 0.89973 0.0
C1107 C 0.64944 0.9601 0.86112 0.0
C1108 C 0.64082 0.97278 0.89624 0.0
C1109 C 0.64334 0.97601 0.96954 0.0
C1110 C 0.65478 0.96614 0.0078 0.0
H1111 H 0.78467 0.93141 0.65507 0.0
H1112 H 0.79767 0.93464 0.87879 0.0
H1113 H 0.82447 0.95893 0.85443 0.0
H1114 H 0.83207 0.93907 0.5923 0.0
H1115 H 0.82737 0.95264 0.51787 0.0
H1116 H 0.8096 0.93491 0.55224 0.0
H1117 H 0.78829 0.95872 0.56837 0.0
H1118 H 0.80597 0.97653 0.53417 0.0
H1119 H 0.79615 0.97917 0.61972 0.0
H1120 H 0.84868 0.98387 0.80745 0.0
H1121 H 0.8694 0.00753 0.74053 0.0
H1122 H 0.84129 0.98802 0.54631 0.0
C1123 C 0.79321 0.9371 0.69898 0.0
C1124 C 0.78901 0.93108 0.76897 0.0
C1125 C 0.80058 0.93896 0.82477 0.0
C1126 C 0.81585 0.95278 0.81147 0.0
C1127 C 0.81947 0.95848 0.74206 0.0
C1128 C 0.80858 0.95086 0.68664 0.0
C1129 C 0.81531 0.9598 0.61715 0.0
C1130 C 0.82146 0.94576 0.56693 0.0
C1131 C 0.80055 0.96911 0.58286 0.0
C1132 C 0.83154 0.97386 0.64238 0.0
C1133 C 0.83367 0.9728 0.71465 0.0
C1134 C 0.84723 0.98475 0.7508 0.0
C1135 C 0.85888 0.99822 0.71224 0.0
C1136 C 0.85697 0.99967 0.6381 0.0
C1137 C 0.84321 0.98716 0.60276 0.0
H1138 H 0.85246 0.08813 0.56805 0.0
H1139 H 0.87993 0.08125 0.37051 0.0
H1140 H 0.86378 0.10365 0.31353 0.0
H1141 H 0.80951 0.08919 0.49184 0.0
H1142 H 0.8032 0.10599 0.55137 0.0
H1143 H 0.8188 0.09147 0.58001 0.0
H1144 H 0.84297 0.12022 0.61238 0.0
H1145 H 0.82738 0.13484 0.58396 0.0
H1146 H 0.85011 0.13766 0.54664 0.0
H1147 H 0.84319 0.12483 0.27517 0.0
H1148 H 0.81844 0.14252 0.25659 0.0
H1149 H 0.80299 0.13487 0.47711 0.0
C1150 C 0.85539 0.09176 0.51337 0.0
C1151 C 0.8676 0.08316 0.47379 0.0
C1152 C 0.87069 0.08776 0.40176 0.0
C1153 C 0.86163 0.10052 0.36899 0.0
C1154 C 0.84938 0.10849 0.40878 0.0
C1155 C 0.84616 0.10429 0.47933 0.0
C1156 C 0.83098 0.11352 0.50789 0.0
C1157 C 0.81466 0.09918 0.5343 0.0
C1158 C 0.8383 0.12738 0.56617 0.0
C1159 C 0.82599 0.1232 0.44207 0.0
C1160 C 0.83697 0.12034 0.38587 0.0
C1161 C 0.83459 0.12732 0.31893 0.0
C1162 C 0.82046 0.13735 0.30889 0.0
C1163 C 0.80873 0.14017 0.36531 0.0
C1164 C 0.81175 0.13311 0.43292 0.0
H1165 H 0.7272 0.12604 0.15615 0.0
H1166 H 0.70718 0.12627 0.37162 0.0
H1167 H 0.67975 0.10384 0.33869 0.0
H1168 H 0.68202 0.12084 0.06967 0.0
H1169 H 0.68775 0.10564 0.00233 0.0
H1170 H 0.70549 0.12277 0.04073 0.0
H1171 H 0.72383 0.09745 0.07478 0.0
H1172 H 0.7062 0.08026 0.03642 0.0
H1173 H 0.7129 0.07818 0.12704 0.0
H1174 H 0.65576 0.08036 0.28691 0.0
H1175 H 0.63615 0.05623 0.21851 0.0
H1176 H 0.67057 0.07055 0.03416 0.0
C1177 C 0.71694 0.12152 0.19618 0.0
C1178 C 0.71939 0.12798 0.26659 0.0
C1179 C 0.70571 0.12155 0.31746 0.0
C1180 C 0.69 0.10885 0.29923 0.0
C1181 C 0.68808 0.10268 0.22981 0.0
C1182 C 0.7011 0.10873 0.17888 0.0
C1183 C 0.69589 0.09908 0.10894 0.0
C1184 C 0.69259 0.11291 0.05206 0.0
C1185 C 0.71058 0.08809 0.08544 0.0
C1186 C 0.6781 0.08643 0.12918 0.0
C1187 C 0.6739 0.08893 0.19918 0.0
C1188 C 0.65878 0.07838 0.2319 0.0
C1189 C 0.64776 0.06465 0.19256 0.0
C1190 C 0.6518 0.06155 0.12098 0.0
C1191 C 0.66701 0.07282 0.08842 0.0
H1192 H 0.79812 0.62806 0.65414 0.0
H1193 H 0.82928 0.65075 0.838 0.0
H1194 H 0.85472 0.63531 0.8021 0.0
H1195 H 0.81068 0.5844 0.66195 0.0
H1196 H 0.81181 0.58158 0.56769 0.0
H1197 H 0.79681 0.59569 0.60458 0.0
H1198 H 0.81243 0.6231 0.52788 0.0
H1199 H 0.82757 0.60907 0.49093 0.0
H1200 H 0.83697 0.6306 0.53293 0.0
H1201 H 0.87606 0.61629 0.74979 0.0
H1202 H 0.89093 0.5933 0.68923 0.0
H1203 H 0.84575 0.58231 0.54096 0.0
C1204 C 0.81037 0.62998 0.68656 0.0
C1205 C 0.81172 0.64072 0.74884 0.0
C1206 C 0.82791 0.64263 0.79012 0.0
C1207 C 0.84247 0.63399 0.76991 0.0
C1208 C 0.84066 0.62349 0.70832 0.0
C1209 C 0.82498 0.62137 0.66743 0.0
C1210 C 0.82598 0.60837 0.60623 0.0
C1211 C 0.8104 0.59151 0.61041 0.0
C1212 C 0.82573 0.61839 0.53529 0.0
C1213 C 0.84456 0.60319 0.61987 0.0
C1214 C 0.85288 0.61229 0.67853 0.0
C1215 C 0.86971 0.60917 0.70368 0.0
C1216 C 0.87801 0.59605 0.66928 0.0
C1217 C 0.86944 0.58613 0.61084 0.0
C1218 C 0.85271 0.59002 0.58479 0.0
H1219 H 0.71583 0.6135 0.78698 0.0
H1220 H 0.73001 0.64483 0.97928 0.0
H1221 H 0.70571 0.62417 0.04308 0.0
H1222 H 0.6659 0.60222 0.81893 0.0
H1223 H 0.66379 0.57929 0.78377 0.0
H1224 H 0.68135 0.59744 0.75077 0.0
H1225 H 0.70616 0.57808 0.78051 0.0
H1226 H 0.6887 0.55993 0.81384 0.0
H1227 H 0.70779 0.56974 0.86922 0.0
H1228 H 0.68127 0.59964 0.08835 0.0
H1229 H 0.65796 0.57213 0.1129 0.0
H1230 H 0.65948 0.55579 0.89301 0.0
C1231 C 0.71358 0.61615 0.84217 0.0
C1232 C 0.7248 0.63081 0.87805 0.0
C1233 C 0.72164 0.63366 0.95065 0.0
C1234 C 0.70782 0.62204 0.98743 0.0
C1235 C 0.69723 0.60754 0.95111 0.0
C1236 C 0.69986 0.6045 0.88018 0.0
C1237 C 0.68712 0.58723 0.85527 0.0
C1238 C 0.67375 0.59183 0.79884 0.0
C1239 C 0.6981 0.5729 0.82813 0.0
C1240 C 0.67717 0.58102 0.9235 0.0
C1241 C 0.68314 0.59305 0.97784 0.0
C1242 C 0.67637 0.59013 0.0462 0.0
C1243 C 0.66314 0.57442 0.05962 0.0
C1244 C 0.65684 0.56174 0.00501 0.0
C1245 C 0.66395 0.56521 0.93595 0.0
H1246 H 0.65147 0.48245 0.19984 0.0
H1247 H 0.63699 0.45735 0.99551 0.0
H1248 H 0.65311 0.43207 0.02624 0.0
H1249 H 0.69629 0.47324 0.2047 0.0
H1250 H 0.69642 0.46865 0.29806 0.0
H1251 H 0.68209 0.48374 0.26349 0.0
H1252 H 0.65354 0.46365 0.32066 0.0
H1253 H 0.66781 0.44846 0.35549 0.0
H1254 H 0.64823 0.4394 0.30126 0.0
H1255 H 0.67245 0.41087 0.07448 0.0
H1256 H 0.6949 0.39559 0.13541 0.0
H1257 H 0.69758 0.43434 0.30839 0.0
C1258 C 0.65141 0.47148 0.16199 0.0
C1259 C 0.64286 0.47186 0.09527 0.0
C1260 C 0.6434 0.45738 0.04688 0.0
C1261 C 0.65245 0.4429 0.064 0.0
C1262 C 0.6609 0.44306 0.12976 0.0
C1263 C 0.6605 0.45696 0.17806 0.0
C1264 C 0.67183 0.4545 0.24297 0.0
C1265 C 0.68759 0.47101 0.25284 0.0
C1266 C 0.65962 0.45131 0.309 0.0
C1267 C 0.67902 0.43727 0.22281 0.0
C1268 C 0.67233 0.43082 0.1576 0.0
C1269 C 0.6777 0.41572 0.12571 0.0
C1270 C 0.69057 0.40721 0.16048 0.0
C1271 C 0.69806 0.41384 0.22628 0.0
C1272 C 0.69186 0.42881 0.25862 0.0
H1273 H 0.78034 0.43391 0.45017 0.0
H1274 H 0.79746 0.43236 0.23135 0.0
H1275 H 0.82478 0.45593 0.25736 0.0
H1276 H 0.79397 0.48218 0.47486 0.0
H1277 H 0.80188 0.48045 0.56411 0.0
H1278 H 0.78396 0.46296 0.52926 0.0
H1279 H 0.80308 0.43803 0.55997 0.0
H1280 H 0.8211 0.45544 0.59487 0.0
H1281 H 0.82617 0.44016 0.5266 0.0
H1282 H 0.84919 0.48043 0.30468 0.0
H1283 H 0.8698 0.50437 0.37055 0.0
H1284 H 0.83769 0.48989 0.56067 0.0
C1285 C 0.78986 0.43846 0.40767 0.0
C1286 C 0.7867 0.43127 0.33853 0.0
C1287 C 0.79954 0.43761 0.28464 0.0
C1288 C 0.81512 0.45099 0.29892 0.0
C1289 C 0.81774 0.4578 0.36745 0.0
C1290 C 0.80554 0.45174 0.42108 0.0
C1291 C 0.8115 0.46159 0.48986 0.0
C1292 C 0.79696 0.47244 0.51603 0.0
C1293 C 0.81571 0.44799 0.54614 0.0
C1294 C 0.82885 0.47435 0.4662 0.0
C1295 C 0.83214 0.47185 0.39534 0.0
C1296 C 0.84685 0.48243 0.36026 0.0
C1297 C 0.85844 0.49604 0.39825 0.0
C1298 C 0.85539 0.499 0.4709 0.0
C1299 C 0.8405 0.48781 0.50549 0.0
H1300 H 0.14915 0.48067 0.40631 0.0
H1301 H 0.13986 0.46224 0.62311 0.0
H1302 H 0.15784 0.43795 0.60188 0.0
H1303 H 0.14778 0.43413 0.32862 0.0
H1304 H 0.16571 0.44238 0.26603 0.0
H1305 H 0.15047 0.45728 0.29534 0.0
H1306 H 0.17848 0.48149 0.3346 0.0
H1307 H 0.19377 0.46667 0.30578 0.0
H1308 H 0.19487 0.47494 0.39542 0.0
H1309 H 0.17925 0.41822 0.56335 0.0
H1310 H 0.20243 0.40311 0.50793 0.0
H1311 H 0.19785 0.43276 0.3135 0.0
C1312 C 0.15057 0.47128 0.44888 0.0
C1313 C 0.14301 0.4734 0.51646 0.0
C1314 C 0.14546 0.46096 0.57095 0.0
C1315 C 0.15562 0.44705 0.55937 0.0
C1316 C 0.16317 0.44558 0.49283 0.0
C1317 C 0.16069 0.45721 0.43817 0.0
C1318 C 0.17124 0.45314 0.37296 0.0
C1319 C 0.15801 0.44633 0.31213 0.0
C1320 C 0.18543 0.47007 0.35093 0.0
C1321 C 0.18051 0.43785 0.40052 0.0
C1322 C 0.17546 0.4337 0.46969 0.0
C1323 C 0.18304 0.42108 0.50881 0.0
C1324 C 0.19628 0.41257 0.47685 0.0
C1325 C 0.20183 0.41652 0.4062 0.0
C1326 C 0.1936 0.42916 0.3671 0.0
H1327 H 0.28346 0.43273 0.18452 0.0
H1328 H 0.30226 0.43247 0.40165 0.0
H1329 H 0.32951 0.45561 0.37127 0.0
H1330 H 0.32879 0.4384 0.10274 0.0
H1331 H 0.32318 0.45335 0.0343 0.0
H1332 H 0.30544 0.43613 0.07195 0.0
H1333 H 0.28659 0.46124 0.10342 0.0
H1334 H 0.30424 0.47853 0.06585 0.0
H1335 H 0.29704 0.48071 0.15581 0.0
H1336 H 0.35362 0.47977 0.32011 0.0
H1337 H 0.37359 0.50351 0.25102 0.0
H1338 H 0.33991 0.48806 0.06529 0.0
C1339 C 0.29335 0.43743 0.22567 0.0
C1340 C 0.29067 0.43074 0.29563 0.0
C1341 C 0.30397 0.43733 0.34776 0.0
C1342 C 0.31952 0.45047 0.33099 0.0
C1343 C 0.32167 0.45682 0.26179 0.0
C1344 C 0.30902 0.45051 0.20981 0.0
C1345 C 0.31443 0.46002 0.13997 0.0
C1346 C 0.31819 0.44615 0.08394 0.0
C1347 C 0.2997 0.47076 0.11481 0.0
C1348 C 0.33197 0.47288 0.16118 0.0
C1349 C 0.33585 0.47071 0.23171 0.0
C1350 C 0.35082 0.48149 0.26472 0.0
C1351 C 0.36205 0.49499 0.22493 0.0
C1352 C 0.35836 0.49763 0.15259 0.0
C1353 C 0.34322 0.48622 0.12016 0.0
H1354 H 0.31365 0.62313 0.79953 0.0
H1355 H 0.3095 0.65625 0.98547 0.0
H1356 H 0.33136 0.64055 0.04809 0.0
H1357 H 0.31391 0.58186 0.89225 0.0
H1358 H 0.32992 0.57347 0.83473 0.0
H1359 H 0.31566 0.58874 0.80091 0.0
H1360 H 0.34459 0.61121 0.75818 0.0
H1361 H 0.35894 0.59595 0.79175 0.0
H1362 H 0.36267 0.6196 0.8201 0.0
H1363 H 0.35215 0.62034 0.09323 0.0
H1364 H 0.36975 0.59594 0.11979 0.0
H1365 H 0.3597 0.57466 0.90694 0.0
C1366 C 0.31771 0.62731 0.85283 0.0
C1367 C 0.31001 0.641 0.88763 0.0
C1368 C 0.31523 0.64579 0.958 0.0
C1369 C 0.32771 0.63702 0.99389 0.0
C1370 C 0.33479 0.62333 0.95889 0.0
C1371 C 0.32999 0.61841 0.89003 0.0
C1372 C 0.33851 0.6022 0.86702 0.0
C1373 C 0.32361 0.58559 0.84761 0.0
C1374 C 0.35198 0.60757 0.80562 0.0
C1375 C 0.34857 0.59867 0.93399 0.0
C1376 C 0.34643 0.61119 0.98591 0.0
C1377 C 0.35404 0.61051 0.05288 0.0
C1378 C 0.36402 0.59657 0.06747 0.0
C1379 C 0.36617 0.58334 0.01558 0.0
C1380 C 0.3584 0.58457 0.94779 0.0
H1381 H 0.15755 0.55883 0.71137 0.0
H1382 H 0.16019 0.57193 0.48773 0.0
H1383 H 0.18434 0.59886 0.51173 0.0
H1384 H 0.16523 0.60641 0.77472 0.0
H1385 H 0.17903 0.60174 0.84853 0.0
H1386 H 0.16122 0.58394 0.81474 0.0
H1387 H 0.18497 0.56263 0.79741 0.0
H1388 H 0.20286 0.58034 0.83105 0.0
H1389 H 0.20525 0.57051 0.74529 0.0
H1390 H 0.20941 0.62281 0.55756 0.0
H1391 H 0.23365 0.6432 0.62287 0.0
H1392 H 0.21463 0.61561 0.8185 0.0
C1393 C 0.16308 0.56744 0.66744 0.0
C1394 C 0.15694 0.56321 0.59751 0.0
C1395 C 0.16461 0.57484 0.54167 0.0
C1396 C 0.17833 0.5902 0.55478 0.0
C1397 C 0.18416 0.59385 0.62407 0.0
C1398 C 0.17674 0.5829 0.67961 0.0
C1399 C 0.18589 0.58967 0.74885 0.0
C1400 C 0.17201 0.59581 0.79971 0.0
C1401 C 0.1953 0.57491 0.78261 0.0
C1402 C 0.19987 0.60593 0.72324 0.0
C1403 C 0.19854 0.60804 0.65103 0.0
C1404 C 0.21047 0.62143 0.61417 0.0
C1405 C 0.22425 0.6329 0.65185 0.0
C1406 C 0.226 0.63104 0.72589 0.0
C1407 C 0.21346 0.61751 0.76216 0.0
H1408 H 0.47498 0.057 0.05298 0.0
H1409 H 0.44541 1.00113 0.07572 0.0
H1410 H 0.47472 0.98959 0.06908 0.0
H1411 H 0.50898 0.04705 0.92959 0.0
H1412 H 0.5275 0.06344 0.9672 0.0
H1413 H 0.50422 0.0673 0.97333 0.0
H1414 H 0.50723 0.0699 0.10932 0.0
H1415 H 0.53054 0.06614 0.10358 0.0
H1416 H 0.51419 0.05147 0.15848 0.0
H1417 H 0.50711 0.98418 0.05912 0.0
H1418 H 0.54066 0.98531 0.05054 0.0
H1419 H 0.54941 0.04473 0.03748 0.0
C1420 C 0.47478 0.04236 0.05666 0.0
C1421 C 0.45809 0.02989 0.06541 0.0
C1422 C 0.45817 0.01083 0.06982 0.0
C1423 C 0.4747 0.00419 0.06577 0.0
C1424 C 0.49099 0.01682 0.05729 0.0
C1425 C 0.4912 0.03551 0.05308 0.0
C1426 C 0.51063 0.04613 0.04503 0.0
C1427 C 0.51296 0.0566 0.97459 0.0
C1428 C 0.51596 0.05918 0.10786 0.0
C1429 C 0.52131 0.0305 0.04547 0.0
C1430 C 0.5097 0.0137 0.05219 0.0
C1431 C 0.51633 0.99725 0.05393 0.0
C1432 C 0.53535 0.99801 0.04912 0.0
C1433 C 0.54749 0.01507 0.04303 0.0
C1434 C 0.54036 0.0315 0.04107 0.0
H1435 H 0.27154 0.32276 0.34316 0.0
H1436 H 0.21321 0.317 0.30171 0.0
H1437 H 0.21079 0.28328 0.29139 0.0
H1438 H 0.28031 0.28783 0.2249 0.0
H1439 H 0.2966 0.27971 0.2819 0.0
H1440 H 0.29366 0.3033 0.28687 0.0
H1441 H 0.28661 0.29947 0.42048 0.0
H1442 H 0.28953 0.27585 0.41592 0.0
H1443 H 0.26846 0.28138 0.44985 0.0
H1444 H 0.21489 0.25047 0.28267 0.0
H1445 H 0.22522 0.22053 0.27633 0.0
H1446 H 0.2807 0.2473 0.32771 0.0
C1447 C 0.25824 0.31432 0.33284 0.0
C1448 C 0.24251 0.32234 0.32359 0.0
C1449 C 0.22539 0.31101 0.30874 0.0
C1450 C 0.22389 0.2919 0.30307 0.0
C1451 C 0.23965 0.28437 0.31278 0.0
C1452 C 0.2565 0.2952 0.32754 0.0
C1453 C 0.27132 0.28364 0.33487 0.0
C1454 C 0.28636 0.28894 0.27878 0.0
C1455 C 0.27946 0.28518 0.40974 0.0
C1456 C 0.26021 0.26463 0.32134 0.0
C1457 C 0.24197 0.26539 0.3087 0.0
C1458 C 0.2291 0.24969 0.29284 0.0
C1459 C 0.23507 0.2328 0.28926 0.0
C1460 C 0.25368 0.23176 0.30158 0.0
C1461 C 0.26636 0.24782 0.31859 0.0
H1462 H 0.0394 0.01643 0.63235 0.0
H1463 H 0.05807 0.03428 0.42265 0.0
H1464 H 0.02781 0.04222 0.39667 0.0
H1465 H 0.99351 0.99609 0.58408 0.0
H1466 H 0.98307 1.00353 0.66219 0.0
H1467 H 0.00638 0.99968 0.66523 0.0
H1468 H 0.01728 0.03286 0.71123 0.0
H1469 H 0.99399 0.03682 0.70829 0.0
H1470 H 0.01187 0.05195 0.6616 0.0
H1471 H 0.99547 0.04738 0.39181 0.0
H1472 H 0.96286 0.04963 0.40888 0.0
H1473 H 0.96486 0.02883 0.62195 0.0
C1474 C 0.03708 0.02212 0.58123 0.0
C1475 C 0.05092 0.02451 0.52905 0.0
C1476 C 0.04748 0.03197 0.46271 0.0
C1477 C 0.0304 0.03666 0.4477 0.0
C1478 C 0.01694 0.03394 0.49982 0.0
C1479 C 0.02005 0.0269 0.56536 0.0
C1480 C 1.00306 0.02507 0.61139 0.0
C1481 C 0.9961 0.00489 0.6319 0.0
C1482 C 0.00678 0.03741 0.67701 0.0
C1483 C 0.9899 0.03199 0.56119 0.0
C1484 C 0.99824 0.03709 0.49722 0.0
C1485 C 0.9888 0.04351 0.44175 0.0
C1486 C 0.9703 0.04467 0.45177 0.0
C1487 C 0.96145 0.03944 0.51664 0.0
C1488 C 0.97142 0.03313 0.57215 0.0
H1489 H 0.24156 0.73468 0.82084 0.0
H1490 H 0.30043 0.74336 0.78796 0.0
H1491 H 0.30138 0.77691 0.78022 0.0
H1492 H 0.23218 0.76941 0.7037 0.0
H1493 H 0.21489 0.77648 0.75881 0.0
H1494 H 0.21887 0.75322 0.76324 0.0
H1495 H 0.22462 0.7567 0.89783 0.0
H1496 H 0.22057 0.77996 0.89386 0.0
H1497 H 0.24174 0.77534 0.93034 0.0
H1498 H 0.2958 0.80924 0.77242 0.0
H1499 H 0.28412 0.83851 0.76786 0.0
H1500 H 0.229 0.80912 0.80947 0.0
C1501 C 0.25466 0.74371 0.81304 0.0
C1502 C 0.27096 0.73655 0.80523 0.0
C1503 C 0.28781 0.74867 0.79381 0.0
C1504 C 0.28848 0.7677 0.78955 0.0
C1505 C 0.27216 0.77436 0.79724 0.0
C1506 C 0.25557 0.76277 0.80915 0.0
C1507 C 0.24003 0.77349 0.81497 0.0
C1508 C 0.22565 0.76781 0.7567 0.0
C1509 C 0.23122 0.77124 0.88864 0.0
C1510 C 0.25045 0.7929 0.80373 0.0
C1511 C 0.26897 0.79306 0.79357 0.0
C1512 C 0.28135 0.8093 0.7806 0.0
C1513 C 0.27462 0.8258 0.77788 0.0
C1514 C 0.25573 0.82592 0.78812 0.0
C1515 C 0.24352 0.8093 0.80166 0.0
H1516 H 0.75129 0.73724 0.86631 0.0
H1517 H 0.7827 0.73839 0.67301 0.0
H1518 H 0.78173 0.77145 0.65858 0.0
H1519 H 0.72139 0.76702 0.80587 0.0
H1520 H 0.72038 0.77828 0.88975 0.0
H1521 H 0.72426 0.75497 0.88656 0.0
H1522 H 0.75409 0.76439 0.95952 0.0
H1523 H 0.75032 0.78776 0.96284 0.0
H1524 H 0.77163 0.78287 0.92871 0.0
H1525 H 0.77757 0.80416 0.66562 0.0
H1526 H 0.76894 0.83425 0.68939 0.0
H1527 H 0.73881 0.81181 0.87524 0.0
C1528 C 0.75807 0.74456 0.82137 0.0
C1529 C 0.76716 0.73544 0.7708 0.0
C1530 C 0.77566 0.74525 0.71206 0.0
C1531 C 0.77523 0.76399 0.70367 0.0
C1532 C 0.76613 0.77263 0.75434 0.0
C1533 C 0.75759 0.76325 0.81183 0.0
C1534 C 0.74815 0.77567 0.85703 0.0
C1535 C 0.72731 0.76856 0.85994 0.0
C1536 C 0.75655 0.7778 0.93144 0.0
C1537 C 0.75268 0.79348 0.81584 0.0
C1538 C 0.76321 0.79142 0.75717 0.0
C1539 C 0.76921 0.80591 0.71106 0.0
C1540 C 0.76415 0.8229 0.72474 0.0
C1541 C 0.75298 0.82523 0.78345 0.0
C1542 C 0.74734 0.81036 0.82996 0.0
H1543 H 0.77888 0.24756 0.30666 0.0
H1544 H 0.72677 0.22092 0.39472 0.0
H1545 H 0.71668 0.25091 0.40165 0.0
H1546 H 0.78388 0.28923 0.40905 0.0
H1547 H 0.79354 0.30396 0.33763 0.0
H1548 H 0.79681 0.28044 0.34063 0.0
H1549 H 0.78278 0.27489 0.2155 0.0
H1550 H 0.77949 0.2984 0.21208 0.0
H1551 H 0.76027 0.27994 0.19835 0.0
H1552 H 0.71222 0.28368 0.39893 0.0
H1553 H 0.71338 0.31708 0.38345 0.0
H1554 H 0.76816 0.32257 0.29574 0.0
C1555 C 0.76535 0.24811 0.32721 0.0
C1556 C 0.75364 0.23202 0.35086 0.0
C1557 C 0.73602 0.23317 0.37743 0.0
C1558 C 0.73016 0.25011 0.38126 0.0
C1559 C 0.74204 0.26576 0.35788 0.0
C1560 C 0.75923 0.26493 0.33107 0.0
C1561 C 0.76919 0.2838 0.30857 0.0
C1562 C 0.7869 0.2897 0.35155 0.0
C1563 C 0.77316 0.28428 0.22889 0.0
C1564 C 0.75492 0.29533 0.32704 0.0
C1565 C 0.73938 0.28465 0.35557 0.0
C1566 C 0.72431 0.29219 0.3767 0.0
C1567 C 0.72511 0.31114 0.36804 0.0
C1568 C 0.74083 0.32229 0.3384 0.0
C1569 C 0.75593 0.31427 0.31801 0.0
H1570 H 0.96315 0.52307 0.49106 0.0
H1571 H 0.96303 0.55655 0.67855 0.0
H1572 H 0.99609 0.55623 0.69651 0.0
H1573 H 0.99282 0.49424 0.56114 0.0
H1574 H 1.00453 0.49222 0.47895 0.0
H1575 H 0.98117 0.49596 0.47855 0.0
H1576 H 0.99079 0.52487 0.4006 0.0
H1577 H 0.0142 0.52123 0.4008 0.0
H1578 H 0.00902 0.5429 0.42987 0.0
H1579 H 0.02904 0.55261 0.69314 0.0
H1580 H 0.05942 0.54417 0.67374 0.0
H1581 H 0.03787 0.51113 0.49319 0.0
C1582 C 0.97021 0.53044 0.53542 0.0
C1583 C 0.96075 0.53996 0.5833 0.0
C1584 C 0.97018 0.54923 0.64146 0.0
C1585 C 0.98891 0.54916 0.65186 0.0
C1586 C 0.9979 0.53958 0.60393 0.0
C1587 C 0.98887 0.53026 0.54716 0.0
C1588 C 1.00158 0.52035 0.50548 0.0
C1589 C 0.99461 0.49945 0.5061 0.0
C1590 C 1.00404 0.52778 0.42969 0.0
C1591 C 0.01915 0.52553 0.54777 0.0
C1592 C 0.01675 0.5368 0.60384 0.0
C1593 C 0.03103 0.54364 0.64986 0.0
C1594 C 0.04819 0.53868 0.63872 0.0
C1595 C 0.05084 0.52676 0.58283 0.0
C1596 C 0.03615 0.52022 0.5365 0.0
H1597 H 0.46403 0.52304 0.11381 0.0
H1598 H 0.46312 0.55296 0.91779 0.0
H1599 H 0.49586 0.55139 0.89782 0.0
H1600 H 0.51018 0.54359 0.1668 0.0
H1601 H 0.51538 0.52256 0.20257 0.0
H1602 H 0.49204 0.52638 0.2021 0.0
H1603 H 0.48178 0.49589 0.13382 0.0
H1604 H 0.50508 0.49197 0.13411 0.0
H1605 H 0.49292 0.49224 0.05184 0.0
H1606 H 0.52863 0.54702 0.90041 0.0
H1607 H 0.55906 0.539 0.92221 0.0
H1608 H 0.5385 0.51055 0.11398 0.0
C1609 C 0.47082 0.52934 0.06699 0.0
C1610 C 0.46121 0.53819 0.01728 0.0
C1611 C 0.47035 0.5461 0.95618 0.0
C1612 C 0.4889 0.54531 0.94462 0.0
C1613 C 0.49803 0.53646 0.99456 0.0
C1614 C 0.4893 0.52853 0.05437 0.0
C1615 C 0.50217 0.51946 0.09879 0.0
C1616 C 0.50511 0.52854 0.17189 0.0
C1617 C 0.49506 0.49865 0.10497 0.0
C1618 C 0.5195 0.52355 0.05464 0.0
C1619 C 0.51681 0.53347 0.995 0.0
C1620 C 0.53084 0.53911 0.94656 0.0
C1621 C 0.54804 0.53438 0.95914 0.0
C1622 C 0.55103 0.52393 0.01917 0.0
C1623 C 0.53656 0.51854 0.06764 0.0
loop_
_geom_bond_atom_site_label_1
_geom_bond_atom_site_label_2
_geom_bond_distance
_geom_bond_site_symmetry_2
_ccdc_geom_bond_type
Co0 O3 1.970 1_556 S
Co0 N17 1.989 1_556 S
Co0 O25 1.967 1_556 S
Co0 O32 1.920 . S
Co1 O4 1.966 . S
Co1 N10 2.022 . S
Co1 N18 1.993 . S
Co1 O26 1.941 . S
C2 O3 1.258 . S
C2 O4 1.263 . S
O3 Co0 1.970 1_554 S
O3 C2 1.258 . S
O4 Co1 1.966 . S
O4 C2 1.263 . S
C5 O6 1.235 . S
C5 O32 1.289 . S
O6 C5 1.235 . S
C7 C9 1.400 . S
C7 N10 1.351 . S
C7 C12 1.501 . S
C8 C9 1.387 . S
C8 N11 1.341 . S
C9 C7 1.400 . S
C9 C8 1.387 . S
N10 Co1 2.022 . S
N10 C7 1.351 . S
N10 N11 1.365 . S
N11 C8 1.341 . S
N11 N10 1.365 . S
N11 H31 0.862 . S
C12 C7 1.501 . S
C12 H13 0.961 . S
C12 H14 0.961 . S
C12 H15 0.960 . S
H13 C12 0.961 . S
H14 C12 0.961 . S
H15 C12 0.960 . S
C16 N17 1.342 . S
C16 C20 1.401 . S
C16 C21 1.499 1_554 S
N17 Co0 1.989 1_554 S
N17 C16 1.342 . S
N17 N18 1.388 . S
N18 Co1 1.993 . S
N18 N17 1.388 . S
N18 C19 1.346 . S
C19 N18 1.346 . S
C19 C20 1.396 . S
C19 C29 1.510 . S
C20 C16 1.401 . S
C20 C19 1.396 . S
C21 C16 1.499 1_556 S
C21 H22 0.959 . S
C21 H23 0.960 . S
C21 H24 0.961 . S
H22 C21 0.959 . S
H23 C21 0.960 . S
H24 C21 0.961 . S
O25 Co0 1.967 1_554 S
O25 C33 1.258 . S
O26 Co1 1.941 . S
O26 C33 1.266 . S
H27 C29 0.959 . S
H28 C29 0.961 . S
C29 C19 1.510 . S
C29 H27 0.959 . S
C29 H28 0.961 . S
C29 H30 0.960 . S
H30 C29 0.960 . S
H31 N11 0.862 . S
O32 Co0 1.920 . S
O32 C5 1.289 . S
C33 O25 1.258 . S
C33 O26 1.266 . S
Co34 O37 1.970 . S
Co34 N51 1.989 . S
Co34 O59 1.967 . S
Co34 O66 1.920 . S
Co35 O38 1.966 . S
Co35 N44 2.022 . S
Co35 N52 1.993 . S
Co35 O60 1.941 . S
C36 O37 1.258 . S
C36 O38 1.263 . S
O37 Co34 1.970 . S
O37 C36 1.258 . S
O38 Co35 1.966 . S
O38 C36 1.263 . S
C39 O40 1.235 . S
C39 O66 1.289 . S
O40 C39 1.235 . S
C41 C43 1.400 1_554 S
C41 N44 1.351 . S
C41 C46 1.501 . S
C42 C43 1.387 1_554 S
C42 N45 1.341 . S
C43 C41 1.400 1_556 S
C43 C42 1.387 1_556 S
N44 Co35 2.022 . S
N44 C41 1.351 . S
N44 N45 1.365 . S
N45 C42 1.341 . S
N45 N44 1.365 . S
N45 H65 0.862 . S
C46 C41 1.501 . S
C46 H47 0.961 . S
C46 H48 0.961 . S
C46 H49 0.960 . S
H47 C46 0.961 . S
H48 C46 0.961 . S
H49 C46 0.960 . S
C50 N51 1.342 . S
C50 C54 1.401 . S
C50 C55 1.499 . S
N51 Co34 1.989 . S
N51 C50 1.342 . S
N51 N52 1.388 . S
N52 Co35 1.993 . S
N52 N51 1.388 . S
N52 C53 1.346 . S
C53 N52 1.346 . S
C53 C54 1.396 . S
C53 C63 1.510 . S
C54 C50 1.401 . S
C54 C53 1.396 . S
C55 C50 1.499 . S
C55 H56 0.959 . S
C55 H57 0.960 . S
C55 H58 0.961 . S
H56 C55 0.959 . S
H57 C55 0.960 . S
H58 C55 0.961 . S
O59 Co34 1.967 . S
O59 C67 1.258 . S
O60 Co35 1.941 . S
O60 C67 1.266 . S
H61 C63 0.959 . S
H62 C63 0.961 . S
C63 C53 1.510 . S
C63 H61 0.959 . S
C63 H62 0.961 . S
C63 H64 0.960 . S
H64 C63 0.960 . S
H65 N45 0.862 . S
O66 Co34 1.920 . S
O66 C39 1.289 . S
C67 O59 1.258 . S
C67 O60 1.266 . S
Co68 O71 1.970 1_545 S
Co68 N85 1.989 . S
Co68 O93 1.967 . S
Co68 O100 1.920 . S
Co69 O72 1.966 1_545 S
Co69 N78 2.022 . S
Co69 N86 1.993 . S
Co69 O94 1.941 . S
C70 O71 1.258 . S
C70 O72 1.263 . S
O71 Co68 1.970 1_565 S
O71 C70 1.258 . S
O72 Co69 1.966 1_565 S
O72 C70 1.263 . S
C73 O74 1.235 . S
C73 O100 1.289 1_565 S
O74 C73 1.235 . S
C75 C77 1.400 . S
C75 N78 1.351 . S
C75 C80 1.501 1_545 S
C76 C77 1.387 . S
C76 N79 1.341 . S
C77 C75 1.400 . S
C77 C76 1.387 . S
N78 Co69 2.022 . S
N78 C75 1.351 . S
N78 N79 1.365 . S
N79 C76 1.341 . S
N79 N78 1.365 . S
N79 H99 0.862 . S
C80 C75 1.501 1_565 S
C80 H81 0.961 . S
C80 H82 0.961 . S
C80 H83 0.960 . S
H81 C80 0.961 . S
H82 C80 0.961 . S
H83 C80 0.960 . S
C84 N85 1.342 . S
C84 C88 1.401 . S
C84 C89 1.499 . S
N85 Co68 1.989 . S
N85 C84 1.342 . S
N85 N86 1.388 . S
N86 Co69 1.993 . S
N86 N85 1.388 . S
N86 C87 1.346 . S
C87 N86 1.346 . S
C87 C88 1.396 . S
C87 C97 1.510 . S
C88 C84 1.401 . S
C88 C87 1.396 . S
C89 C84 1.499 . S
C89 H90 0.959 . S
C89 H91 0.960 . S
C89 H92 0.961 . S
H90 C89 0.959 . S
H91 C89 0.960 . S
H92 C89 0.961 . S
O93 Co68 1.967 . S
O93 C101 1.258 . S
O94 Co69 1.941 . S
O94 C101 1.266 . S
H95 C97 0.959 . S
H96 C97 0.961 . S
C97 C87 1.510 . S
C97 H95 0.959 . S
C97 H96 0.961 . S
C97 H98 0.960 . S
H98 C97 0.960 . S
H99 N79 0.862 . S
O100 Co68 1.920 . S
O100 C73 1.289 1_545 S
C101 O93 1.258 . S
C101 O94 1.266 . S
Co102 O105 1.970 . S
Co102 N119 1.989 . S
Co102 O127 1.967 . S
Co102 O134 1.920 . S
Co103 O106 1.966 . S
Co103 N112 2.022 . S
Co103 N120 1.993 . S
Co103 O128 1.941 . S
C104 O105 1.258 . S
C104 O106 1.263 . S
O105 Co102 1.970 . S
O105 C104 1.258 . S
O106 Co103 1.966 . S
O106 C104 1.263 . S
C107 O108 1.235 1_554 S
C107 O134 1.289 1_554 S
O108 C107 1.235 1_556 S
C109 C111 1.400 . S
C109 N112 1.351 . S
C109 C114 1.501 . S
C110 C111 1.387 . S
C110 N113 1.341 . S
C111 C109 1.400 . S
C111 C110 1.387 . S
N112 Co103 2.022 . S
N112 C109 1.351 . S
N112 N113 1.365 . S
N113 C110 1.341 . S
N113 N112 1.365 . S
N113 H133 0.862 . S
C114 C109 1.501 . S
C114 H115 0.961 . S
C114 H116 0.961 . S
C114 H117 0.960 . S
H115 C114 0.961 . S
H116 C114 0.961 . S
H117 C114 0.960 . S
C118 N119 1.342 . S
C118 C122 1.401 . S
C118 C123 1.499 . S
N119 Co102 1.989 . S
N119 C118 1.342 . S
N119 N120 1.388 . S
N120 Co103 1.993 . S
N120 N119 1.388 . S
N120 C121 1.346 . S
C121 N120 1.346 . S
C121 C122 1.396 . S
C121 C131 1.510 . S
C122 C118 1.401 . S
C122 C121 1.396 . S
C123 C118 1.499 . S
C123 H124 0.959 . S
C123 H125 0.960 . S
C123 H126 0.961 . S
H124 C123 0.959 . S
H125 C123 0.960 . S
H126 C123 0.961 . S
O127 Co102 1.967 . S
O127 C135 1.258 . S
O128 Co103 1.941 . S
O128 C135 1.266 . S
H129 C131 0.959 . S
H130 C131 0.961 . S
C131 C121 1.510 . S
C131 H129 0.959 . S
C131 H130 0.961 . S
C131 H132 0.960 . S
H132 C131 0.960 . S
H133 N113 0.862 . S
O134 Co102 1.920 . S
O134 C107 1.289 1_556 S
C135 O127 1.258 . S
C135 O128 1.266 . S
Co136 O139 1.970 1_545 S
Co136 N153 1.989 . S
Co136 O161 1.967 . S
Co136 O168 1.920 . S
Co137 O140 1.966 1_545 S
Co137 N146 2.022 . S
Co137 N154 1.993 1_556 S
Co137 O162 1.941 . S
C138 O139 1.258 . S
C138 O140 1.263 1_554 S
O139 Co136 1.970 1_565 S
O139 C138 1.258 . S
O140 Co137 1.966 1_565 S
O140 C138 1.263 1_556 S
C141 O142 1.235 . S
C141 O168 1.289 1_565 S
O142 C141 1.235 . S
C143 C145 1.400 . S
C143 N146 1.351 . S
C143 C148 1.501 1_545 S
C144 C145 1.387 . S
C144 N147 1.341 . S
C145 C143 1.400 . S
C145 C144 1.387 . S
N146 Co137 2.022 . S
N146 C143 1.351 . S
N146 N147 1.365 . S
N147 C144 1.341 . S
N147 N146 1.365 . S
N147 H167 0.862 . S
C148 C143 1.501 1_565 S
C148 H149 0.961 . S
C148 H150 0.961 . S
C148 H151 0.960 . S
H149 C148 0.961 . S
H150 C148 0.961 . S
H151 C148 0.960 . S
C152 N153 1.342 . S
C152 C156 1.401 . S
C152 C157 1.499 . S
N153 Co136 1.989 . S
N153 C152 1.342 . S
N153 N154 1.388 . S
N154 Co137 1.993 1_554 S
N154 N153 1.388 . S
N154 C155 1.346 1_554 S
C155 N154 1.346 1_556 S
C155 C156 1.396 1_556 S
C155 C165 1.510 . S
C156 C152 1.401 . S
C156 C155 1.396 1_554 S
C157 C152 1.499 . S
C157 H158 0.959 . S
C157 H159 0.960 . S
C157 H160 0.961 . S
H158 C157 0.959 . S
H159 C157 0.960 . S
H160 C157 0.961 . S
O161 Co136 1.967 . S
O161 C169 1.258 . S
O162 Co137 1.941 . S
O162 C169 1.266 1_556 S
H163 C165 0.959 . S
H164 C165 0.961 . S
C165 C155 1.510 . S
C165 H163 0.959 . S
C165 H164 0.961 . S
C165 H166 0.960 . S
H166 C165 0.960 . S
H167 N147 0.862 . S
O168 Co136 1.920 . S
O168 C141 1.289 1_545 S
C169 O161 1.258 . S
C169 O162 1.266 1_554 S
Co170 O173 1.970 . S
Co170 N187 1.989 . S
Co170 O195 1.967 . S
Co170 O202 1.920 . S
Co171 O174 1.966 . S
Co171 N180 2.022 1_556 S
Co171 N188 1.993 . S
Co171 O196 1.941 . S
C172 O173 1.258 . S
C172 O174 1.263 . S
O173 Co170 1.970 . S
O173 C172 1.258 . S
O174 Co171 1.966 . S
O174 C172 1.263 . S
C175 O176 1.235 . S
C175 O202 1.289 . S
O176 C175 1.235 . S
C177 C179 1.400 . S
C177 N180 1.351 . S
C177 C182 1.501 . S
C178 C179 1.387 . S
C178 N181 1.341 . S
C179 C177 1.400 . S
C179 C178 1.387 . S
N180 Co171 2.022 1_554 S
N180 C177 1.351 . S
N180 N181 1.365 . S
N181 C178 1.341 . S
N181 N180 1.365 . S
N181 H201 0.862 . S
C182 C177 1.501 . S
C182 H183 0.961 . S
C182 H184 0.961 . S
C182 H185 0.960 . S
H183 C182 0.961 . S
H184 C182 0.961 . S
H185 C182 0.960 . S
C186 N187 1.342 . S
C186 C190 1.401 . S
C186 C191 1.499 . S
N187 Co170 1.989 . S
N187 C186 1.342 . S
N187 N188 1.388 . S
N188 Co171 1.993 . S
N188 N187 1.388 . S
N188 C189 1.346 . S
C189 N188 1.346 . S
C189 C190 1.396 . S
C189 C199 1.510 . S
C190 C186 1.401 . S
C190 C189 1.396 . S
C191 C186 1.499 . S
C191 H192 0.959 . S
C191 H193 0.960 . S
C191 H194 0.961 . S
H192 C191 0.959 . S
H193 C191 0.960 . S
H194 C191 0.961 . S
O195 Co170 1.967 . S
O195 C203 1.258 . S
O196 Co171 1.941 . S
O196 C203 1.266 . S
H197 C199 0.959 . S
H198 C199 0.961 . S
C199 C189 1.510 . S
C199 H197 0.959 . S
C199 H198 0.961 . S
C199 H200 0.960 . S
H200 C199 0.960 . S
H201 N181 0.862 . S
O202 Co170 1.920 . S
O202 C175 1.289 . S
C203 O195 1.258 . S
C203 O196 1.266 . S
Co204 O207 1.970 . S
Co204 N221 1.989 . S
Co204 O229 1.967 . S
Co204 O236 1.920 . S
Co205 O208 1.966 . S
Co205 N214 2.022 . S
Co205 N222 1.993 . S
Co205 O230 1.941 . S
C206 O207 1.258 . S
C206 O208 1.263 . S
O207 Co204 1.970 . S
O207 C206 1.258 . S
O208 Co205 1.966 . S
O208 C206 1.263 . S
C209 O210 1.235 . S
C209 O236 1.289 . S
O210 C209 1.235 . S
C211 C213 1.400 . S
C211 N214 1.351 . S
C211 C216 1.501 . S
C212 C213 1.387 . S
C212 N215 1.341 . S
C213 C211 1.400 . S
C213 C212 1.387 . S
N214 Co205 2.022 . S
N214 C211 1.351 . S
N214 N215 1.365 . S
N215 C212 1.341 . S
N215 N214 1.365 . S
N215 H235 0.862 . S
C216 C211 1.501 . S
C216 H217 0.961 . S
C216 H218 0.961 . S
C216 H219 0.960 . S
H217 C216 0.961 . S
H218 C216 0.961 . S
H219 C216 0.960 . S
C220 N221 1.342 . S
C220 C224 1.401 . S
C220 C225 1.499 . S
N221 Co204 1.989 . S
N221 C220 1.342 . S
N221 N222 1.388 . S
N222 Co205 1.993 . S
N222 N221 1.388 . S
N222 C223 1.346 . S
C223 N222 1.346 . S
C223 C224 1.396 . S
C223 C233 1.510 . S
C224 C220 1.401 . S
C224 C223 1.396 . S
C225 C220 1.499 . S
C225 H226 0.959 . S
C225 H227 0.960 . S
C225 H228 0.961 . S
H226 C225 0.959 . S
H227 C225 0.960 . S
H228 C225 0.961 . S
O229 Co204 1.967 . S
O229 C237 1.258 . S
O230 Co205 1.941 . S
O230 C237 1.266 . S
H231 C233 0.959 . S
H232 C233 0.961 . S
C233 C223 1.510 . S
C233 H231 0.959 . S
C233 H232 0.961 . S
C233 H234 0.960 . S
H234 C233 0.960 . S
H235 N215 0.862 . S
O236 Co204 1.920 . S
O236 C209 1.289 . S
C237 O229 1.258 . S
C237 O230 1.266 . S
Co238 O241 1.970 . S
Co238 N255 1.989 . S
Co238 O263 1.967 . S
Co238 O270 1.920 . S
Co239 O242 1.966 . S
Co239 N248 2.022 . S
Co239 N256 1.993 . S
Co239 O264 1.941 . S
C240 O241 1.258 . S
C240 O242 1.263 . S
O241 Co238 1.970 . S
O241 C240 1.258 . S
O242 Co239 1.966 . S
O242 C240 1.263 . S
C243 O244 1.235 . S
C243 O270 1.289 . S
O244 C243 1.235 . S
C245 C247 1.400 . S
C245 N248 1.351 . S
C245 C250 1.501 . S
C246 C247 1.387 . S
C246 N249 1.341 . S
C247 C245 1.400 . S
C247 C246 1.387 . S
N248 Co239 2.022 . S
N248 C245 1.351 . S
N248 N249 1.365 . S
N249 C246 1.341 . S
N249 N248 1.365 . S
N249 H269 0.862 . S
C250 C245 1.501 . S
C250 H251 0.961 . S
C250 H252 0.961 . S
C250 H253 0.960 . S
H251 C250 0.961 . S
H252 C250 0.961 . S
H253 C250 0.960 . S
C254 N255 1.342 . S
C254 C258 1.401 . S
C254 C259 1.499 . S
N255 Co238 1.989 . S
N255 C254 1.342 . S
N255 N256 1.388 . S
N256 Co239 1.993 . S
N256 N255 1.388 . S
N256 C257 1.346 . S
C257 N256 1.346 . S
C257 C258 1.396 . S
C257 C267 1.510 . S
C258 C254 1.401 . S
C258 C257 1.396 . S
C259 C254 1.499 . S
C259 H260 0.959 . S
C259 H261 0.960 . S
C259 H262 0.961 . S
H260 C259 0.959 . S
H261 C259 0.960 . S
H262 C259 0.961 . S
O263 Co238 1.967 . S
O263 C271 1.258 . S
O264 Co239 1.941 . S
O264 C271 1.266 . S
H265 C267 0.959 . S
H266 C267 0.961 . S
C267 C257 1.510 . S
C267 H265 0.959 . S
C267 H266 0.961 . S
C267 H268 0.960 . S
H268 C267 0.960 . S
H269 N249 0.862 . S
O270 Co238 1.920 . S
O270 C243 1.289 . S
C271 O263 1.258 . S
C271 O264 1.266 . S
Co272 O275 1.970 . S
Co272 N289 1.989 . S
Co272 O297 1.967 . S
Co272 O304 1.920 . S
Co273 O276 1.966 . S
Co273 N282 2.022 . S
Co273 N290 1.993 . S
Co273 O298 1.941 . S
C274 O275 1.258 . S
C274 O276 1.263 . S
O275 Co272 1.970 . S
O275 C274 1.258 . S
O276 Co273 1.966 . S
O276 C274 1.263 . S
C277 O278 1.235 . S
C277 O304 1.289 . S
O278 C277 1.235 . S
C279 C281 1.400 . S
C279 N282 1.351 . S
C279 C284 1.501 . S
C280 C281 1.387 . S
C280 N283 1.341 . S
C281 C279 1.400 . S
C281 C280 1.387 . S
N282 Co273 2.022 . S
N282 C279 1.351 . S
N282 N283 1.365 . S
N283 C280 1.341 . S
N283 N282 1.365 . S
N283 H303 0.862 . S
C284 C279 1.501 . S
C284 H285 0.961 . S
C284 H286 0.961 . S
C284 H287 0.960 . S
H285 C284 0.961 . S
H286 C284 0.961 . S
H287 C284 0.960 . S
C288 N289 1.342 . S
C288 C292 1.401 . S
C288 C293 1.499 . S
N289 Co272 1.989 . S
N289 C288 1.342 . S
N289 N290 1.388 . S
N290 Co273 1.993 . S
N290 N289 1.388 . S
N290 C291 1.346 . S
C291 N290 1.346 . S
C291 C292 1.396 . S
C291 C301 1.510 . S
C292 C288 1.401 . S
C292 C291 1.396 . S
C293 C288 1.499 . S
C293 H294 0.959 . S
C293 H295 0.960 . S
C293 H296 0.961 . S
H294 C293 0.959 . S
H295 C293 0.960 . S
H296 C293 0.961 . S
O297 Co272 1.967 . S
O297 C305 1.258 . S
O298 Co273 1.941 . S
O298 C305 1.266 . S
H299 C301 0.959 . S
H300 C301 0.961 . S
C301 C291 1.510 . S
C301 H299 0.959 . S
C301 H300 0.961 . S
C301 H302 0.960 . S
H302 C301 0.960 . S
H303 N283 0.862 . S
O304 Co272 1.920 . S
O304 C277 1.289 . S
C305 O297 1.258 . S
C305 O298 1.266 . S
Co306 O309 1.970 . S
Co306 N323 1.989 . S
Co306 O331 1.967 . S
Co306 O338 1.920 . S
Co307 O310 1.966 . S
Co307 N316 2.022 . S
Co307 N324 1.993 . S
Co307 O332 1.941 . S
C308 O309 1.258 . S
C308 O310 1.263 . S
O309 Co306 1.970 . S
O309 C308 1.258 . S
O310 Co307 1.966 . S
O310 C308 1.263 . S
C311 O312 1.235 1_554 S
C311 O338 1.289 1_554 S
O312 C311 1.235 1_556 S
C313 C315 1.400 . S
C313 N316 1.351 . S
C313 C318 1.501 . S
C314 C315 1.387 . S
C314 N317 1.341 . S
C315 C313 1.400 . S
C315 C314 1.387 . S
N316 Co307 2.022 . S
N316 C313 1.351 . S
N316 N317 1.365 . S
N317 C314 1.341 . S
N317 N316 1.365 . S
N317 H337 0.862 . S
C318 C313 1.501 . S
C318 H319 0.961 . S
C318 H320 0.961 . S
C318 H321 0.960 . S
H319 C318 0.961 . S
H320 C318 0.961 . S
H321 C318 0.960 . S
C322 N323 1.342 . S
C322 C326 1.401 . S
C322 C327 1.499 . S
N323 Co306 1.989 . S
N323 C322 1.342 . S
N323 N324 1.388 . S
N324 Co307 1.993 . S
N324 N323 1.388 . S
N324 C325 1.346 . S
C325 N324 1.346 . S
C325 C326 1.396 . S
C325 C335 1.510 . S
C326 C322 1.401 . S
C326 C325 1.396 . S
C327 C322 1.499 . S
C327 H328 0.959 . S
C327 H329 0.960 . S
C327 H330 0.961 . S
H328 C327 0.959 . S
H329 C327 0.960 . S
H330 C327 0.961 . S
O331 Co306 1.967 . S
O331 C339 1.258 . S
O332 Co307 1.941 . S
O332 C339 1.266 . S
H333 C335 0.959 . S
H334 C335 0.961 . S
C335 C325 1.510 . S
C335 H333 0.959 . S
C335 H334 0.961 . S
C335 H336 0.960 . S
H336 C335 0.960 . S
H337 N317 0.862 . S
O338 Co306 1.920 . S
O338 C311 1.289 1_556 S
C339 O331 1.258 . S
C339 O332 1.266 . S
Co340 O343 1.970 1_556 S
Co340 N357 1.989 1_556 S
Co340 O365 1.967 1_556 S
Co340 O372 1.920 . S
Co341 O344 1.966 . S
Co341 N350 2.022 . S
Co341 N358 1.993 . S
Co341 O366 1.941 . S
C342 O343 1.258 . S
C342 O344 1.263 . S
O343 Co340 1.970 1_554 S
O343 C342 1.258 . S
O344 Co341 1.966 . S
O344 C342 1.263 . S
C345 O346 1.235 . S
C345 O372 1.289 . S
O346 C345 1.235 . S
C347 C349 1.400 . S
C347 N350 1.351 . S
C347 C352 1.501 . S
C348 C349 1.387 . S
C348 N351 1.341 . S
C349 C347 1.400 . S
C349 C348 1.387 . S
N350 Co341 2.022 . S
N350 C347 1.351 . S
N350 N351 1.365 . S
N351 C348 1.341 . S
N351 N350 1.365 . S
N351 H371 0.862 . S
C352 C347 1.501 . S
C352 H353 0.961 . S
C352 H354 0.961 . S
C352 H355 0.960 . S
H353 C352 0.961 . S
H354 C352 0.961 . S
H355 C352 0.960 . S
C356 N357 1.342 . S
C356 C360 1.401 . S
C356 C361 1.499 1_554 S
N357 Co340 1.989 1_554 S
N357 C356 1.342 . S
N357 N358 1.388 . S
N358 Co341 1.993 . S
N358 N357 1.388 . S
N358 C359 1.346 . S
C359 N358 1.346 . S
C359 C360 1.396 . S
C359 C369 1.510 . S
C360 C356 1.401 . S
C360 C359 1.396 . S
C361 C356 1.499 1_556 S
C361 H362 0.959 . S
C361 H363 0.960 . S
C361 H364 0.961 . S
H362 C361 0.959 . S
H363 C361 0.960 . S
H364 C361 0.961 . S
O365 Co340 1.967 1_554 S
O365 C373 1.258 . S
O366 Co341 1.941 . S
O366 C373 1.266 . S
H367 C369 0.959 . S
H368 C369 0.961 . S
C369 C359 1.510 . S
C369 H367 0.959 . S
C369 H368 0.961 . S
C369 H370 0.960 . S
H370 C369 0.960 . S
H371 N351 0.862 . S
O372 Co340 1.920 . S
O372 C345 1.289 . S
C373 O365 1.258 . S
C373 O366 1.266 . S
Co374 O377 1.970 . S
Co374 N391 1.989 . S
Co374 O399 1.967 . S
Co374 O406 1.920 . S
Co375 O378 1.966 . S
Co375 N384 2.022 . S
Co375 N392 1.993 . S
Co375 O400 1.941 . S
C376 O377 1.258 . S
C376 O378 1.263 . S
O377 Co374 1.970 . S
O377 C376 1.258 . S
O378 Co375 1.966 . S
O378 C376 1.263 . S
C379 O380 1.235 . S
C379 O406 1.289 . S
O380 C379 1.235 . S
C381 C383 1.400 1_554 S
C381 N384 1.351 . S
C381 C386 1.501 . S
C382 C383 1.387 1_554 S
C382 N385 1.341 . S
C383 C381 1.400 1_556 S
C383 C382 1.387 1_556 S
N384 Co375 2.022 . S
N384 C381 1.351 . S
N384 N385 1.365 . S
N385 C382 1.341 . S
N385 N384 1.365 . S
N385 H405 0.862 . S
C386 C381 1.501 . S
C386 H387 0.961 . S
C386 H388 0.961 . S
C386 H389 0.960 . S
H387 C386 0.961 . S
H388 C386 0.961 . S
H389 C386 0.960 . S
C390 N391 1.342 . S
C390 C394 1.401 . S
C390 C395 1.499 . S
N391 Co374 1.989 . S
N391 C390 1.342 . S
N391 N392 1.388 . S
N392 Co375 1.993 . S
N392 N391 1.388 . S
N392 C393 1.346 . S
C393 N392 1.346 . S
C393 C394 1.396 . S
C393 C403 1.510 . S
C394 C390 1.401 . S
C394 C393 1.396 . S
C395 C390 1.499 . S
C395 H396 0.959 . S
C395 H397 0.960 . S
C395 H398 0.961 . S
H396 C395 0.959 . S
H397 C395 0.960 . S
H398 C395 0.961 . S
O399 Co374 1.967 . S
O399 C407 1.258 . S
O400 Co375 1.941 . S
O400 C407 1.266 . S
H401 C403 0.959 . S
H402 C403 0.961 . S
C403 C393 1.510 . S
C403 H401 0.959 . S
C403 H402 0.961 . S
C403 H404 0.960 . S
H404 C403 0.960 . S
H405 N385 0.862 . S
O406 Co374 1.920 . S
O406 C379 1.289 . S
C407 O399 1.258 . S
C407 O400 1.266 . S
Co408 O411 1.970 . S
Co408 N425 1.989 . S
Co408 O433 1.967 . S
Co408 O440 1.920 . S
Co409 O412 1.966 . S
Co409 N418 2.022 . S
Co409 N426 1.993 . S
Co409 O434 1.941 . S
C410 O411 1.258 . S
C410 O412 1.263 . S
O411 Co408 1.970 . S
O411 C410 1.258 . S
O412 Co409 1.966 . S
O412 C410 1.263 . S
C413 O414 1.235 . S
C413 O440 1.289 . S
O414 C413 1.235 . S
C415 C417 1.400 . S
C415 N418 1.351 . S
C415 C420 1.501 . S
C416 C417 1.387 . S
C416 N419 1.341 . S
C417 C415 1.400 . S
C417 C416 1.387 . S
N418 Co409 2.022 . S
N418 C415 1.351 . S
N418 N419 1.365 . S
N419 C416 1.341 . S
N419 N418 1.365 . S
N419 H439 0.862 . S
C420 C415 1.501 . S
C420 H421 0.961 . S
C420 H422 0.961 . S
C420 H423 0.960 . S
H421 C420 0.961 . S
H422 C420 0.961 . S
H423 C420 0.960 . S
C424 N425 1.342 . S
C424 C428 1.401 . S
C424 C429 1.499 . S
N425 Co408 1.989 . S
N425 C424 1.342 . S
N425 N426 1.388 . S
N426 Co409 1.993 . S
N426 N425 1.388 . S
N426 C427 1.346 . S
C427 N426 1.346 . S
C427 C428 1.396 . S
C427 C437 1.510 . S
C428 C424 1.401 . S
C428 C427 1.396 . S
C429 C424 1.499 . S
C429 H430 0.959 . S
C429 H431 0.960 . S
C429 H432 0.961 . S
H430 C429 0.959 . S
H431 C429 0.960 . S
H432 C429 0.961 . S
O433 Co408 1.967 . S
O433 C441 1.258 . S
O434 Co409 1.941 . S
O434 C441 1.266 . S
H435 C437 0.959 . S
H436 C437 0.961 . S
C437 C427 1.510 . S
C437 H435 0.959 . S
C437 H436 0.961 . S
C437 H438 0.960 . S
H438 C437 0.960 . S
H439 N419 0.862 . S
O440 Co408 1.920 . S
O440 C413 1.289 . S
C441 O433 1.258 . S
C441 O434 1.266 . S
Co442 O445 1.970 . S
Co442 N459 1.989 . S
Co442 O467 1.967 . S
Co442 O474 1.920 . S
Co443 O446 1.966 . S
Co443 N452 2.022 . S
Co443 N460 1.993 . S
Co443 O468 1.941 . S
C444 O445 1.258 . S
C444 O446 1.263 . S
O445 Co442 1.970 . S
O445 C444 1.258 . S
O446 Co443 1.966 . S
O446 C444 1.263 . S
C447 O448 1.235 . S
C447 O474 1.289 . S
O448 C447 1.235 . S
C449 C451 1.400 . S
C449 N452 1.351 . S
C449 C454 1.501 . S
C450 C451 1.387 . S
C450 N453 1.341 . S
C451 C449 1.400 . S
C451 C450 1.387 . S
N452 Co443 2.022 . S
N452 C449 1.351 . S
N452 N453 1.365 . S
N453 C450 1.341 . S
N453 N452 1.365 . S
N453 H473 0.862 . S
C454 C449 1.501 . S
C454 H455 0.961 . S
C454 H456 0.961 . S
C454 H457 0.960 . S
H455 C454 0.961 . S
H456 C454 0.961 . S
H457 C454 0.960 . S
C458 N459 1.342 . S
C458 C462 1.401 . S
C458 C463 1.499 . S
N459 Co442 1.989 . S
N459 C458 1.342 . S
N459 N460 1.388 . S
N460 Co443 1.993 . S
N460 N459 1.388 . S
N460 C461 1.346 . S
C461 N460 1.346 . S
C461 C462 1.396 . S
C461 C471 1.510 . S
C462 C458 1.401 . S
C462 C461 1.396 . S
C463 C458 1.499 . S
C463 H464 0.959 . S
C463 H465 0.960 . S
C463 H466 0.961 . S
H464 C463 0.959 . S
H465 C463 0.960 . S
H466 C463 0.961 . S
O467 Co442 1.967 . S
O467 C475 1.258 . S
O468 Co443 1.941 . S
O468 C475 1.266 . S
H469 C471 0.959 . S
H470 C471 0.961 . S
C471 C461 1.510 . S
C471 H469 0.959 . S
C471 H470 0.961 . S
C471 H472 0.960 . S
H472 C471 0.960 . S
H473 N453 0.862 . S
O474 Co442 1.920 . S
O474 C447 1.289 . S
C475 O467 1.258 . S
C475 O468 1.266 . S
Co476 O479 1.970 . S
Co476 N493 1.989 . S
Co476 O501 1.967 . S
Co476 O508 1.920 . S
Co477 O480 1.966 . S
Co477 N486 2.022 . S
Co477 N494 1.993 1_556 S
Co477 O502 1.941 . S
C478 O479 1.258 . S
C478 O480 1.263 1_554 S
O479 Co476 1.970 . S
O479 C478 1.258 . S
O480 Co477 1.966 . S
O480 C478 1.263 1_556 S
C481 O482 1.235 . S
C481 O508 1.289 . S
O482 C481 1.235 . S
C483 C485 1.400 . S
C483 N486 1.351 . S
C483 C488 1.501 . S
C484 C485 1.387 . S
C484 N487 1.341 . S
C485 C483 1.400 . S
C485 C484 1.387 . S
N486 Co477 2.022 . S
N486 C483 1.351 . S
N486 N487 1.365 . S
N487 C484 1.341 . S
N487 N486 1.365 . S
N487 H507 0.862 . S
C488 C483 1.501 . S
C488 H489 0.961 . S
C488 H490 0.961 . S
C488 H491 0.960 . S
H489 C488 0.961 . S
H490 C488 0.961 . S
H491 C488 0.960 . S
C492 N493 1.342 . S
C492 C496 1.401 . S
C492 C497 1.499 . S
N493 Co476 1.989 . S
N493 C492 1.342 . S
N493 N494 1.388 . S
N494 Co477 1.993 1_554 S
N494 N493 1.388 . S
N494 C495 1.346 1_554 S
C495 N494 1.346 1_556 S
C495 C496 1.396 1_556 S
C495 C505 1.510 . S
C496 C492 1.401 . S
C496 C495 1.396 1_554 S
C497 C492 1.499 . S
C497 H498 0.959 . S
C497 H499 0.960 . S
C497 H500 0.961 . S
H498 C497 0.959 . S
H499 C497 0.960 . S
H500 C497 0.961 . S
O501 Co476 1.967 . S
O501 C509 1.258 . S
O502 Co477 1.941 . S
O502 C509 1.266 1_556 S
H503 C505 0.959 . S
H504 C505 0.961 . S
C505 C495 1.510 . S
C505 H503 0.959 . S
C505 H504 0.961 . S
C505 H506 0.960 . S
H506 C505 0.960 . S
H507 N487 0.862 . S
O508 Co476 1.920 . S
O508 C481 1.289 . S
C509 O501 1.258 . S
C509 O502 1.266 1_554 S
Co510 O513 1.970 . S
Co510 N527 1.989 . S
Co510 O535 1.967 . S
Co510 O542 1.920 . S
Co511 O514 1.966 . S
Co511 N520 2.022 1_556 S
Co511 N528 1.993 . S
Co511 O536 1.941 . S
C512 O513 1.258 . S
C512 O514 1.263 . S
O513 Co510 1.970 . S
O513 C512 1.258 . S
O514 Co511 1.966 . S
O514 C512 1.263 . S
C515 O516 1.235 . S
C515 O542 1.289 . S
O516 C515 1.235 . S
C517 C519 1.400 . S
C517 N520 1.351 . S
C517 C522 1.501 . S
C518 C519 1.387 . S
C518 N521 1.341 . S
C519 C517 1.400 . S
C519 C518 1.387 . S
N520 Co511 2.022 1_554 S
N520 C517 1.351 . S
N520 N521 1.365 . S
N521 C518 1.341 . S
N521 N520 1.365 . S
N521 H541 0.862 . S
C522 C517 1.501 . S
C522 H523 0.961 . S
C522 H524 0.961 . S
C522 H525 0.960 . S
H523 C522 0.961 . S
H524 C522 0.961 . S
H525 C522 0.960 . S
C526 N527 1.342 . S
C526 C530 1.401 . S
C526 C531 1.499 . S
N527 Co510 1.989 . S
N527 C526 1.342 . S
N527 N528 1.388 . S
N528 Co511 1.993 . S
N528 N527 1.388 . S
N528 C529 1.346 . S
C529 N528 1.346 . S
C529 C530 1.396 . S
C529 C539 1.510 . S
C530 C526 1.401 . S
C530 C529 1.396 . S
C531 C526 1.499 . S
C531 H532 0.959 . S
C531 H533 0.960 . S
C531 H534 0.961 . S
H532 C531 0.959 . S
H533 C531 0.960 . S
H534 C531 0.961 . S
O535 Co510 1.967 . S
O535 C543 1.258 . S
O536 Co511 1.941 . S
O536 C543 1.266 . S
H537 C539 0.959 . S
H538 C539 0.961 . S
C539 C529 1.510 . S
C539 H537 0.959 . S
C539 H538 0.961 . S
C539 H540 0.960 . S
H540 C539 0.960 . S
H541 N521 0.862 . S
O542 Co510 1.920 . S
O542 C515 1.289 . S
C543 O535 1.258 . S
C543 O536 1.266 . S
H544 C556 0.930 . S
H545 C558 0.930 . S
H546 C559 0.930 . S
H547 C563 0.959 . S
H548 C563 0.990 . S
H549 C563 0.961 . S
H550 C564 0.960 . S
H551 C564 0.961 . S
H552 C564 0.959 . S
H553 C567 0.929 . S
H554 C568 0.931 . S
H555 C570 0.930 . S
C556 H544 0.930 . S
C556 C557 1.399 . S
C556 C561 1.399 . S
C557 C556 1.399 . S
C557 C558 1.376 . S
C558 H545 0.930 . S
C558 C557 1.376 . S
C558 C559 1.388 . S
C559 H546 0.930 . S
C559 C558 1.388 . S
C559 C560 1.390 . S
C560 C559 1.390 . S
C560 C561 1.394 . S
C560 C566 1.465 . S
C561 C556 1.399 . S
C561 C560 1.394 . S
C561 C562 1.516 . S
C562 C561 1.516 . S
C562 C563 1.502 . S
C562 C564 1.561 . S
C562 C565 1.526 . S
C563 H547 0.959 . S
C563 H548 0.990 . S
C563 H549 0.961 . S
C563 C562 1.502 . S
C564 H550 0.960 . S
C564 H551 0.961 . S
C564 H552 0.959 . S
C564 C562 1.561 . S
C565 C562 1.526 . S
C565 C566 1.396 . S
C565 C570 1.390 . S
C566 C560 1.465 . S
C566 C565 1.396 . S
C566 C567 1.399 . S
C567 H553 0.929 . S
C567 C566 1.399 . S
C567 C568 1.385 . S
C568 H554 0.931 . S
C568 C567 1.385 . S
C568 C569 1.389 . S
C569 C568 1.389 . S
C569 C570 1.387 . S
C570 H555 0.930 . S
C570 C565 1.390 . S
C570 C569 1.387 . S
H571 C583 0.930 . S
H572 C585 0.930 . S
H573 C586 0.930 . S
H574 C590 0.959 . S
H575 C590 0.959 . S
H576 C590 0.961 . S
H577 C591 0.960 . S
H578 C591 0.961 . S
H579 C591 0.959 . S
H580 C594 0.929 . S
H581 C595 0.931 . S
H582 C597 0.930 . S
C583 H571 0.930 . S
C583 C584 1.399 . S
C583 C588 1.399 . S
C584 C583 1.399 . S
C584 C585 1.376 . S
C585 H572 0.930 . S
C585 C584 1.376 . S
C585 C586 1.388 . S
C586 H573 0.930 . S
C586 C585 1.388 . S
C586 C587 1.390 . S
C587 C586 1.390 . S
C587 C588 1.394 . S
C587 C593 1.465 . S
C588 C583 1.399 . S
C588 C587 1.394 . S
C588 C589 1.516 . S
C589 C588 1.516 . S
C589 C590 1.502 . S
C589 C591 1.561 . S
C589 C592 1.526 . S
C590 H574 0.959 . S
C590 H575 0.959 . S
C590 H576 0.961 . S
C590 C589 1.502 . S
C591 H577 0.960 . S
C591 H578 0.961 . S
C591 H579 0.959 . S
C591 C589 1.561 . S
C592 C589 1.526 . S
C592 C593 1.396 . S
C592 C597 1.390 . S
C593 C587 1.465 . S
C593 C592 1.396 . S
C593 C594 1.399 . S
C594 H580 0.929 . S
C594 C593 1.399 . S
C594 C595 1.385 . S
C595 H581 0.931 . S
C595 C594 1.385 . S
C595 C596 1.389 . S
C596 C595 1.389 . S
C596 C597 1.387 . S
C597 H582 0.930 . S
C597 C592 1.390 . S
C597 C596 1.387 . S
H598 C610 0.930 . S
H599 C612 0.930 . S
H600 C613 0.930 . S
H601 C617 0.959 . S
H602 C617 0.959 . S
H603 C617 0.961 . S
H604 C618 0.960 . S
H605 C618 0.961 . S
H606 C618 0.959 . S
H607 C621 0.929 . S
H608 C622 0.931 . S
H609 C624 0.930 . S
C610 H598 0.930 . S
C610 C611 1.399 1_545 S
C610 C615 1.399 . S
C611 C610 1.399 1_565 S
C611 C612 1.376 . S
C612 H599 0.930 . S
C612 C611 1.376 . S
C612 C613 1.388 . S
C613 H600 0.930 . S
C613 C612 1.388 . S
C613 C614 1.390 . S
C614 C613 1.390 . S
C614 C615 1.394 1_565 S
C614 C620 1.465 . S
C615 C610 1.399 . S
C615 C614 1.394 1_545 S
C615 C616 1.516 . S
C616 C615 1.516 . S
C616 C617 1.502 . S
C616 C618 1.561 . S
C616 C619 1.526 . S
C617 H601 0.959 . S
C617 H602 0.959 . S
C617 H603 0.961 . S
C617 C616 1.502 . S
C618 H604 0.960 . S
C618 H605 0.961 . S
C618 H606 0.959 . S
C618 C616 1.561 . S
C619 C616 1.526 . S
C619 C620 1.396 1_545 S
C619 C624 1.390 1_554 S
C620 C614 1.465 . S
C620 C619 1.396 1_565 S
C620 C621 1.399 . S
C621 H607 0.929 . S
C621 C620 1.399 . S
C621 C622 1.385 1_554 S
C622 H608 0.931 . S
C622 C621 1.385 1_556 S
C622 C623 1.389 1_565 S
C623 C622 1.389 1_545 S
C623 C624 1.387 . S
C624 H609 0.930 . S
C624 C619 1.390 1_556 S
C624 C623 1.387 . S
H625 C637 0.930 . S
H626 C639 0.930 . S
H627 C640 0.930 . S
H628 C644 0.959 . S
H629 C644 0.959 . S
H630 C644 0.961 . S
H631 C645 0.960 . S
H632 C645 0.961 . S
H633 C645 0.959 . S
H634 C648 0.929 . S
H635 C649 0.931 . S
H636 C651 0.930 . S
C637 H625 0.930 . S
C637 C638 1.399 . S
C637 C642 1.399 . S
C638 C637 1.399 . S
C638 C639 1.376 . S
C639 H626 0.930 . S
C639 C638 1.376 . S
C639 C640 1.388 . S
C640 H627 0.930 . S
C640 C639 1.388 . S
C640 C641 1.390 . S
C641 C640 1.390 . S
C641 C642 1.394 . S
C641 C647 1.465 . S
C642 C637 1.399 . S
C642 C641 1.394 . S
C642 C643 1.516 . S
C643 C642 1.516 . S
C643 C644 1.502 . S
C643 C645 1.561 . S
C643 C646 1.526 . S
C644 H628 0.959 . S
C644 H629 0.959 . S
C644 H630 0.961 . S
C644 C643 1.502 . S
C645 H631 0.960 . S
C645 H632 0.961 . S
C645 H633 0.959 . S
C645 C643 1.561 . S
C646 C643 1.526 . S
C646 C647 1.396 . S
C646 C651 1.390 . S
C647 C641 1.465 . S
C647 C646 1.396 . S
C647 C648 1.399 . S
C648 H634 0.929 . S
C648 C647 1.399 . S
C648 C649 1.385 . S
C649 H635 0.931 . S
C649 C648 1.385 . S
C649 C650 1.389 . S
C650 C649 1.389 . S
C650 C651 1.387 . S
C651 H636 0.930 . S
C651 C646 1.390 . S
C651 C650 1.387 . S
H652 C664 0.930 . S
H653 C666 0.948 . S
H654 C667 0.930 . S
H655 C671 0.959 . S
H656 C671 0.959 . S
H657 C671 0.961 . S
H658 C672 0.960 . S
H659 C672 0.961 . S
H660 C672 0.959 . S
H661 C675 0.929 . S
H662 C676 0.931 . S
H663 C678 0.930 . S
C664 H652 0.930 . S
C664 C665 1.399 . S
C664 C669 1.399 . S
C665 C664 1.399 . S
C665 C666 1.347 1_545 S
C666 H653 0.948 . S
C666 C665 1.347 1_565 S
C666 C667 1.402 . S
C667 H654 0.930 . S
C667 C666 1.402 . S
C667 C668 1.378 1_565 S
C668 C667 1.378 1_545 S
C668 C669 1.415 . S
C668 C674 1.460 1_545 S
C669 C664 1.399 . S
C669 C668 1.415 . S
C669 C670 1.516 . S
C670 C669 1.516 . S
C670 C671 1.502 . S
C670 C672 1.561 . S
C670 C673 1.526 . S
C671 H655 0.959 . S
C671 H656 0.959 . S
C671 H657 0.961 . S
C671 C670 1.502 . S
C672 H658 0.960 . S
C672 H659 0.961 . S
C672 H660 0.959 . S
C672 C670 1.561 . S
C673 C670 1.526 . S
C673 C674 1.396 1_545 S
C673 C678 1.390 . S
C674 C668 1.460 1_565 S
C674 C673 1.396 1_565 S
C674 C675 1.399 . S
C675 H661 0.929 . S
C675 C674 1.399 . S
C675 C676 1.385 . S
C676 H662 0.931 . S
C676 C675 1.385 . S
C676 C677 1.389 . S
C677 C676 1.389 . S
C677 C678 1.387 1_565 S
C678 H663 0.930 . S
C678 C673 1.390 . S
C678 C677 1.387 1_545 S
H679 C691 0.930 . S
H680 C693 0.930 . S
H681 C694 0.930 . S
H682 C698 0.959 . S
H683 C698 0.959 . S
H684 C698 0.961 . S
H685 C699 0.960 . S
H686 C699 0.961 . S
H687 C699 0.959 . S
H688 C702 0.929 . S
H689 C703 0.931 . S
H690 C705 0.930 . S
C691 H679 0.930 . S
C691 C692 1.399 . S
C691 C696 1.399 . S
C692 C691 1.399 . S
C692 C693 1.376 . S
C693 H680 0.930 . S
C693 C692 1.376 . S
C693 C694 1.388 . S
C694 H681 0.930 . S
C694 C693 1.388 . S
C694 C695 1.390 . S
C695 C694 1.390 . S
C695 C696 1.394 . S
C695 C701 1.465 . S
C696 C691 1.399 . S
C696 C695 1.394 . S
C696 C697 1.516 . S
C697 C696 1.516 . S
C697 C698 1.502 . S
C697 C699 1.561 . S
C697 C700 1.526 . S
C698 H682 0.959 . S
C698 H683 0.959 . S
C698 H684 0.961 . S
C698 C697 1.502 . S
C699 H685 0.960 . S
C699 H686 0.961 . S
C699 H687 0.959 . S
C699 C697 1.561 . S
C700 C697 1.526 . S
C700 C701 1.396 . S
C700 C705 1.390 . S
C701 C695 1.465 . S
C701 C700 1.396 . S
C701 C702 1.399 . S
C702 H688 0.929 . S
C702 C701 1.399 . S
C702 C703 1.385 . S
C703 H689 0.931 . S
C703 C702 1.385 . S
C703 C704 1.389 . S
C704 C703 1.389 . S
C704 C705 1.387 . S
C705 H690 0.930 . S
C705 C700 1.390 . S
C705 C704 1.387 . S
H706 C718 0.930 . S
H707 C720 0.930 . S
H708 C721 0.930 . S
H709 C725 0.959 . S
H710 C725 0.959 1_556 S
H711 C725 0.961 . S
H712 C726 0.960 1_554 S
H713 C726 0.961 . S
H714 C726 0.959 . S
H715 C729 0.929 . S
H716 C730 0.931 . S
H717 C732 0.930 . S
C718 H706 0.930 . S
C718 C719 1.399 . S
C718 C723 1.399 . S
C719 C718 1.399 . S
C719 C720 1.376 . S
C720 H707 0.930 . S
C720 C719 1.376 . S
C720 C721 1.388 . S
C721 H708 0.930 . S
C721 C720 1.388 . S
C721 C722 1.390 . S
C722 C721 1.390 . S
C722 C723 1.394 . S
C722 C728 1.465 1_554 S
C723 C718 1.399 . S
C723 C722 1.394 . S
C723 C724 1.516 1_554 S
C724 C723 1.516 1_556 S
C724 C725 1.502 1_556 S
C724 C726 1.561 . S
C724 C727 1.526 . S
C725 H709 0.959 . S
C725 H710 0.959 1_554 S
C725 H711 0.961 . S
C725 C724 1.502 1_554 S
C726 H712 0.960 1_556 S
C726 H713 0.961 . S
C726 H714 0.959 . S
C726 C724 1.561 . S
C727 C724 1.526 . S
C727 C728 1.396 . S
C727 C732 1.390 . S
C728 C722 1.465 1_556 S
C728 C727 1.396 . S
C728 C729 1.399 . S
C729 H715 0.929 . S
C729 C728 1.399 . S
C729 C730 1.385 . S
C730 H716 0.931 . S
C730 C729 1.385 . S
C730 C731 1.389 . S
C731 C730 1.389 . S
C731 C732 1.387 . S
C732 H717 0.930 . S
C732 C727 1.390 . S
C732 C731 1.387 . S
H733 C745 0.930 . S
H734 C747 0.930 . S
H735 C748 0.930 . S
H736 C752 0.959 . S
H737 C752 0.959 . S
H738 C752 0.961 . S
H739 C753 0.960 . S
H740 C753 0.961 . S
H741 C753 0.959 . S
H742 C756 0.929 . S
H743 C757 0.931 . S
H744 C759 0.930 . S
C745 H733 0.930 . S
C745 C746 1.399 . S
C745 C750 1.399 . S
C746 C745 1.399 . S
C746 C747 1.376 . S
C747 H734 0.930 . S
C747 C746 1.376 . S
C747 C748 1.388 . S
C748 H735 0.930 . S
C748 C747 1.388 . S
C748 C749 1.390 . S
C749 C748 1.390 . S
C749 C750 1.394 . S
C749 C755 1.465 . S
C750 C745 1.399 . S
C750 C749 1.394 . S
C750 C751 1.516 . S
C751 C750 1.516 . S
C751 C752 1.502 . S
C751 C753 1.561 . S
C751 C754 1.526 . S
C752 H736 0.959 . S
C752 H737 0.959 . S
C752 H738 0.961 . S
C752 C751 1.502 . S
C753 H739 0.960 . S
C753 H740 0.961 . S
C753 H741 0.959 . S
C753 C751 1.561 . S
C754 C751 1.526 . S
C754 C755 1.396 . S
C754 C759 1.390 . S
C755 C749 1.465 . S
C755 C754 1.396 . S
C755 C756 1.399 . S
C756 H742 0.929 . S
C756 C755 1.399 . S
C756 C757 1.385 1_556 S
C757 H743 0.931 . S
C757 C756 1.385 1_554 S
C757 C758 1.389 . S
C758 C757 1.389 . S
C758 C759 1.387 1_554 S
C759 H744 0.930 . S
C759 C754 1.390 . S
C759 C758 1.387 1_556 S
H760 C772 0.930 . S
H761 C774 0.930 . S
H762 C775 0.930 . S
H763 C779 0.959 . S
H764 C779 0.959 . S
H765 C779 0.961 . S
H766 C780 0.960 . S
H767 C780 0.961 . S
H768 C780 0.959 . S
H769 C783 0.929 . S
H770 C784 0.931 . S
H771 C786 0.930 . S
C772 H760 0.930 . S
C772 C773 1.399 . S
C772 C777 1.399 . S
C773 C772 1.399 . S
C773 C774 1.376 . S
C774 H761 0.930 . S
C774 C773 1.376 . S
C774 C775 1.388 . S
C775 H762 0.930 . S
C775 C774 1.388 . S
C775 C776 1.390 . S
C776 C775 1.390 . S
C776 C777 1.394 . S
C776 C782 1.465 . S
C777 C772 1.399 . S
C777 C776 1.394 . S
C777 C778 1.516 . S
C778 C777 1.516 . S
C778 C779 1.502 . S
C778 C780 1.561 . S
C778 C781 1.526 . S
C779 H763 0.959 . S
C779 H764 0.959 . S
C779 H765 0.961 . S
C779 C778 1.502 . S
C780 H766 0.960 . S
C780 H767 0.961 . S
C780 H768 0.959 . S
C780 C778 1.561 . S
C781 C778 1.526 . S
C781 C782 1.396 . S
C781 C786 1.390 1_554 S
C782 C776 1.465 . S
C782 C781 1.396 . S
C782 C783 1.399 . S
C783 H769 0.929 . S
C783 C782 1.399 . S
C783 C784 1.385 1_554 S
C784 H770 0.931 . S
C784 C783 1.385 1_556 S
C784 C785 1.389 . S
C785 C784 1.389 . S
C785 C786 1.387 . S
C786 H771 0.930 . S
C786 C781 1.390 1_556 S
C786 C785 1.387 . S
H787 C799 0.930 . S
H788 C801 0.930 . S
H789 C802 0.930 . S
H790 C806 0.959 . S
H791 C806 0.959 . S
H792 C806 0.961 . S
H793 C807 0.960 . S
H794 C807 0.961 . S
H795 C807 0.959 . S
H796 C810 0.929 . S
H797 C811 0.931 . S
H798 C813 0.930 . S
C799 H787 0.930 . S
C799 C800 1.399 . S
C799 C804 1.399 . S
C800 C799 1.399 . S
C800 C801 1.376 . S
C801 H788 0.930 . S
C801 C800 1.376 . S
C801 C802 1.388 . S
C802 H789 0.930 . S
C802 C801 1.388 . S
C802 C803 1.390 . S
C803 C802 1.390 . S
C803 C804 1.394 . S
C803 C809 1.465 . S
C804 C799 1.399 . S
C804 C803 1.394 . S
C804 C805 1.516 . S
C805 C804 1.516 . S
C805 C806 1.502 . S
C805 C807 1.561 . S
C805 C808 1.526 . S
C806 H790 0.959 . S
C806 H791 0.959 . S
C806 H792 0.961 . S
C806 C805 1.502 . S
C807 H793 0.960 . S
C807 H794 0.961 . S
C807 H795 0.959 . S
C807 C805 1.561 . S
C808 C805 1.526 . S
C808 C809 1.396 . S
C808 C813 1.390 . S
C809 C803 1.465 . S
C809 C808 1.396 . S
C809 C810 1.399 . S
C810 H796 0.929 . S
C810 C809 1.399 . S
C810 C811 1.385 . S
C811 H797 0.931 . S
C811 C810 1.385 . S
C811 C812 1.389 . S
C812 C811 1.389 . S
C812 C813 1.387 . S
C813 H798 0.930 . S
C813 C808 1.390 . S
C813 C812 1.387 . S
H814 C826 0.930 . S
H815 C828 0.930 . S
H816 C829 0.930 . S
H817 C833 0.959 . S
H818 C833 0.959 . S
H819 C833 0.961 . S
H820 C834 0.960 . S
H821 C834 0.961 . S
H822 C834 0.959 . S
H823 C837 0.929 . S
H824 C838 0.931 . S
H825 C840 0.930 . S
C826 H814 0.930 . S
C826 C827 1.399 . S
C826 C831 1.399 . S
C827 C826 1.399 . S
C827 C828 1.376 . S
C828 H815 0.930 . S
C828 C827 1.376 . S
C828 C829 1.388 . S
C829 H816 0.930 . S
C829 C828 1.388 . S
C829 C830 1.390 . S
C830 C829 1.390 . S
C830 C831 1.394 . S
C830 C836 1.465 . S
C831 C826 1.399 . S
C831 C830 1.394 . S
C831 C832 1.516 . S
C832 C831 1.516 . S
C832 C833 1.502 . S
C832 C834 1.561 . S
C832 C835 1.526 . S
C833 H817 0.959 . S
C833 H818 0.959 . S
C833 H819 0.961 . S
C833 C832 1.502 . S
C834 H820 0.960 . S
C834 H821 0.961 . S
C834 H822 0.959 . S
C834 C832 1.561 . S
C835 C832 1.526 . S
C835 C836 1.396 . S
C835 C840 1.390 . S
C836 C830 1.465 . S
C836 C835 1.396 . S
C836 C837 1.399 . S
C837 H823 0.929 . S
C837 C836 1.399 . S
C837 C838 1.385 . S
C838 H824 0.931 . S
C838 C837 1.385 . S
C838 C839 1.389 . S
C839 C838 1.389 . S
C839 C840 1.387 . S
C840 H825 0.930 . S
C840 C835 1.390 . S
C840 C839 1.387 . S
H841 C853 0.930 . S
H842 C855 0.930 . S
H843 C856 0.930 . S
H844 C860 0.959 . S
H845 C860 0.959 . S
H846 C860 0.961 . S
H847 C861 0.960 . S
H848 C861 0.961 . S
H849 C861 0.959 . S
H850 C864 0.929 . S
H851 C865 0.931 . S
H852 C867 0.930 . S
C853 H841 0.930 . S
C853 C854 1.399 . S
C853 C858 1.399 . S
C854 C853 1.399 . S
C854 C855 1.376 . S
C855 H842 0.930 . S
C855 C854 1.376 . S
C855 C856 1.388 . S
C856 H843 0.930 . S
C856 C855 1.388 . S
C856 C857 1.390 . S
C857 C856 1.390 . S
C857 C858 1.394 . S
C857 C863 1.465 . S
C858 C853 1.399 . S
C858 C857 1.394 . S
C858 C859 1.516 . S
C859 C858 1.516 . S
C859 C860 1.502 . S
C859 C861 1.561 . S
C859 C862 1.526 . S
C860 H844 0.959 . S
C860 H845 0.959 . S
C860 H846 0.961 . S
C860 C859 1.502 . S
C861 H847 0.960 . S
C861 H848 0.961 . S
C861 H849 0.959 . S
C861 C859 1.561 . S
C862 C859 1.526 . S
C862 C863 1.396 . S
C862 C867 1.390 . S
C863 C857 1.465 . S
C863 C862 1.396 . S
C863 C864 1.399 . S
C864 H850 0.929 . S
C864 C863 1.399 . S
C864 C865 1.385 . S
C865 H851 0.931 . S
C865 C864 1.385 . S
C865 C866 1.389 . S
C866 C865 1.389 . S
C866 C867 1.387 . S
C867 H852 0.930 . S
C867 C862 1.390 . S
C867 C866 1.387 . S
H868 C880 0.930 . S
H869 C882 0.930 . S
H870 C883 0.930 . S
H871 C887 0.959 . S
H872 C887 0.959 1_554 S
H873 C887 0.961 . S
H874 C888 0.960 . S
H875 C888 0.961 1_554 S
H876 C888 0.959 . S
H877 C891 0.929 . S
H878 C892 0.931 . S
H879 C894 0.930 . S
C880 H868 0.930 . S
C880 C881 1.399 . S
C880 C885 1.399 . S
C881 C880 1.399 . S
C881 C882 1.376 . S
C882 H869 0.930 . S
C882 C881 1.376 . S
C882 C883 1.388 . S
C883 H870 0.930 . S
C883 C882 1.388 . S
C883 C884 1.390 . S
C884 C883 1.390 . S
C884 C885 1.394 . S
C884 C890 1.465 1_556 S
C885 C880 1.399 . S
C885 C884 1.394 . S
C885 C886 1.516 . S
C886 C885 1.516 . S
C886 C887 1.502 . S
C886 C888 1.561 . S
C886 C889 1.526 1_556 S
C887 H871 0.959 . S
C887 H872 0.959 1_556 S
C887 H873 0.961 . S
C887 C886 1.502 . S
C888 H874 0.960 . S
C888 H875 0.961 1_556 S
C888 H876 0.959 . S
C888 C886 1.561 . S
C889 C886 1.526 1_554 S
C889 C890 1.396 . S
C889 C894 1.390 . S
C890 C884 1.465 1_554 S
C890 C889 1.396 . S
C890 C891 1.399 . S
C891 H877 0.929 . S
C891 C890 1.399 . S
C891 C892 1.385 . S
C892 H878 0.931 . S
C892 C891 1.385 . S
C892 C893 1.389 . S
C893 C892 1.389 . S
C893 C894 1.387 . S
C894 H879 0.930 . S
C894 C889 1.390 . S
C894 C893 1.387 . S
H895 C907 0.930 1_554 S
H896 C909 0.930 . S
H897 C910 0.930 . S
H898 C914 0.959 . S
H899 C914 0.959 . S
H900 C914 0.961 . S
H901 C915 0.960 . S
H902 C915 0.961 . S
H903 C915 0.959 . S
H904 C918 0.929 . S
H905 C919 0.931 . S
H906 C921 0.930 . S
C907 H895 0.930 1_556 S
C907 C908 1.399 1_556 S
C907 C912 1.399 . S
C908 C907 1.399 1_554 S
C908 C909 1.376 . S
C909 H896 0.930 . S
C909 C908 1.376 . S
C909 C910 1.388 1_554 S
C910 H897 0.930 . S
C910 C909 1.388 1_556 S
C910 C911 1.390 . S
C911 C910 1.390 . S
C911 C912 1.394 . S
C911 C917 1.465 . S
C912 C907 1.399 . S
C912 C911 1.394 . S
C912 C913 1.516 . S
C913 C912 1.516 . S
C913 C914 1.502 . S
C913 C915 1.561 . S
C913 C916 1.526 . S
C914 H898 0.959 . S
C914 H899 0.959 . S
C914 H900 0.961 . S
C914 C913 1.502 . S
C915 H901 0.960 . S
C915 H902 0.961 . S
C915 H903 0.959 . S
C915 C913 1.561 . S
C916 C913 1.526 . S
C916 C917 1.396 . S
C916 C921 1.390 . S
C917 C911 1.465 . S
C917 C916 1.396 . S
C917 C918 1.399 . S
C918 H904 0.929 . S
C918 C917 1.399 . S
C918 C919 1.385 . S
C919 H905 0.931 . S
C919 C918 1.385 . S
C919 C920 1.389 . S
C920 C919 1.389 . S
C920 C921 1.387 . S
C921 H906 0.930 . S
C921 C916 1.390 . S
C921 C920 1.387 . S
H922 C934 0.930 . S
H923 C936 0.930 . S
H924 C937 0.930 . S
H925 C941 0.959 . S
H926 C941 0.959 . S
H927 C941 0.961 . S
H928 C942 0.960 . S
H929 C942 0.961 . S
H930 C942 0.959 . S
H931 C945 0.929 . S
H932 C946 0.931 . S
H933 C948 0.930 . S
C934 H922 0.930 . S
C934 C935 1.399 . S
C934 C939 1.399 . S
C935 C934 1.399 . S
C935 C936 1.376 . S
C936 H923 0.930 . S
C936 C935 1.376 . S
C936 C937 1.388 . S
C937 H924 0.930 . S
C937 C936 1.388 . S
C937 C938 1.390 . S
C938 C937 1.390 . S
C938 C939 1.394 . S
C938 C944 1.465 . S
C939 C934 1.399 . S
C939 C938 1.394 . S
C939 C940 1.516 . S
C940 C939 1.516 . S
C940 C941 1.502 . S
C940 C942 1.561 . S
C940 C943 1.526 . S
C941 H925 0.959 . S
C941 H926 0.959 . S
C941 H927 0.961 . S
C941 C940 1.502 . S
C942 H928 0.960 . S
C942 H929 0.961 . S
C942 H930 0.959 . S
C942 C940 1.561 . S
C943 C940 1.526 . S
C943 C944 1.396 . S
C943 C948 1.390 . S
C944 C938 1.465 . S
C944 C943 1.396 . S
C944 C945 1.399 . S
C945 H931 0.929 . S
C945 C944 1.399 . S
C945 C946 1.385 . S
C946 H932 0.931 . S
C946 C945 1.385 . S
C946 C947 1.389 . S
C947 C946 1.389 . S
C947 C948 1.387 . S
C948 H933 0.930 . S
C948 C943 1.390 . S
C948 C947 1.387 . S
H949 C961 0.930 . S
H950 C963 0.930 . S
H951 C964 0.930 . S
H952 C968 0.959 . S
H953 C968 0.959 . S
H954 C968 0.961 . S
H955 C969 0.960 . S
H956 C969 0.961 . S
H957 C969 0.959 . S
H958 C972 0.929 . S
H959 C973 0.931 . S
H960 C975 0.930 . S
C961 H949 0.930 . S
C961 C962 1.399 . S
C961 C966 1.399 . S
C962 C961 1.399 . S
C962 C963 1.376 . S
C963 H950 0.930 . S
C963 C962 1.376 . S
C963 C964 1.388 . S
C964 H951 0.930 . S
C964 C963 1.388 . S
C964 C965 1.390 . S
C965 C964 1.390 . S
C965 C966 1.394 . S
C965 C971 1.465 . S
C966 C961 1.399 . S
C966 C965 1.394 . S
C966 C967 1.516 . S
C967 C966 1.516 . S
C967 C968 1.502 . S
C967 C969 1.561 . S
C967 C970 1.526 . S
C968 H952 0.959 . S
C968 H953 0.959 . S
C968 H954 0.961 . S
C968 C967 1.502 . S
C969 H955 0.960 . S
C969 H956 0.961 . S
C969 H957 0.959 . S
C969 C967 1.561 . S
C970 C967 1.526 . S
C970 C971 1.396 . S
C970 C975 1.390 . S
C971 C965 1.465 . S
C971 C970 1.396 . S
C971 C972 1.399 . S
C972 H958 0.929 . S
C972 C971 1.399 . S
C972 C973 1.385 . S
C973 H959 0.931 . S
C973 C972 1.385 . S
C973 C974 1.389 . S
C974 C973 1.389 . S
C974 C975 1.387 . S
C975 H960 0.930 . S
C975 C970 1.390 . S
C975 C974 1.387 . S
H976 C988 0.930 . S
H977 C990 0.930 . S
H978 C991 0.930 . S
H979 C995 0.959 . S
H980 C995 0.959 . S
H981 C995 0.961 . S
H982 C996 0.960 . S
H983 C996 0.961 . S
H984 C996 0.959 . S
H985 C999 0.929 . S
H986 C1000 0.931 . S
H987 C1002 0.930 . S
C988 H976 0.930 . S
C988 C989 1.399 . S
C988 C993 1.399 . S
C989 C988 1.399 . S
C989 C990 1.376 . S
C990 H977 0.930 . S
C990 C989 1.376 . S
C990 C991 1.388 . S
C991 H978 0.930 . S
C991 C990 1.388 . S
C991 C992 1.390 . S
C992 C991 1.390 . S
C992 C993 1.394 . S
C992 C998 1.465 . S
C993 C988 1.399 . S
C993 C992 1.394 . S
C993 C994 1.516 . S
C994 C993 1.516 . S
C994 C995 1.502 . S
C994 C996 1.561 . S
C994 C997 1.526 . S
C995 H979 0.959 . S
C995 H980 0.959 . S
C995 H981 0.961 . S
C995 C994 1.502 . S
C996 H982 0.960 . S
C996 H983 0.961 . S
C996 H984 0.959 . S
C996 C994 1.561 . S
C997 C994 1.526 . S
C997 C998 1.396 . S
C997 C1002 1.390 . S
C998 C992 1.465 . S
C998 C997 1.396 . S
C998 C999 1.399 . S
C999 H985 0.929 . S
C999 C998 1.399 . S
C999 C1000 1.385 . S
C1000 H986 0.931 . S
C1000 C999 1.385 . S
C1000 C1001 1.389 . S
C1001 C1000 1.389 . S
C1001 C1002 1.387 . S
C1002 H987 0.930 . S
C1002 C997 1.390 . S
C1002 C1001 1.387 . S
H1003 C1015 0.930 . S
H1004 C1017 0.930 . S
H1005 C1018 0.930 . S
H1006 C1022 0.959 . S
H1007 C1022 0.959 . S
H1008 C1022 0.961 . S
H1009 C1023 0.960 . S
H1010 C1023 0.961 . S
H1011 C1023 0.959 . S
H1012 C1026 0.929 . S
H1013 C1027 0.931 . S
H1014 C1029 0.930 . S
C1015 H1003 0.930 . S
C1015 C1016 1.399 . S
C1015 C1020 1.399 . S
C1016 C1015 1.399 . S
C1016 C1017 1.376 . S
C1017 H1004 0.930 . S
C1017 C1016 1.376 . S
C1017 C1018 1.388 . S
C1018 H1005 0.930 . S
C1018 C1017 1.388 . S
C1018 C1019 1.390 . S
C1019 C1018 1.390 . S
C1019 C1020 1.394 . S
C1019 C1025 1.465 . S
C1020 C1015 1.399 . S
C1020 C1019 1.394 . S
C1020 C1021 1.516 . S
C1021 C1020 1.516 . S
C1021 C1022 1.502 . S
C1021 C1023 1.561 . S
C1021 C1024 1.526 . S
C1022 H1006 0.959 . S
C1022 H1007 0.959 . S
C1022 H1008 0.961 . S
C1022 C1021 1.502 . S
C1023 H1009 0.960 . S
C1023 H1010 0.961 . S
C1023 H1011 0.959 . S
C1023 C1021 1.561 . S
C1024 C1021 1.526 . S
C1024 C1025 1.396 . S
C1024 C1029 1.390 . S
C1025 C1019 1.465 . S
C1025 C1024 1.396 . S
C1025 C1026 1.399 . S
C1026 H1012 0.929 . S
C1026 C1025 1.399 . S
C1026 C1027 1.385 . S
C1027 H1013 0.931 . S
C1027 C1026 1.385 . S
C1027 C1028 1.389 . S
C1028 C1027 1.389 . S
C1028 C1029 1.387 . S
C1029 H1014 0.930 . S
C1029 C1024 1.390 . S
C1029 C1028 1.387 . S
H1030 C1042 0.930 . S
H1031 C1044 0.930 . S
H1032 C1045 0.930 . S
H1033 C1049 0.959 . S
H1034 C1049 0.959 . S
H1035 C1049 0.961 . S
H1036 C1050 0.960 . S
H1037 C1050 0.961 . S
H1038 C1050 0.959 . S
H1039 C1053 0.929 . S
H1040 C1054 0.931 . S
H1041 C1056 0.930 . S
C1042 H1030 0.930 . S
C1042 C1043 1.399 . S
C1042 C1047 1.399 . S
C1043 C1042 1.399 . S
C1043 C1044 1.376 . S
C1044 H1031 0.930 . S
C1044 C1043 1.376 . S
C1044 C1045 1.388 . S
C1045 H1032 0.930 . S
C1045 C1044 1.388 . S
C1045 C1046 1.390 . S
C1046 C1045 1.390 . S
C1046 C1047 1.394 . S
C1046 C1052 1.465 . S
C1047 C1042 1.399 . S
C1047 C1046 1.394 . S
C1047 C1048 1.516 . S
C1048 C1047 1.516 . S
C1048 C1049 1.502 . S
C1048 C1050 1.561 . S
C1048 C1051 1.526 . S
C1049 H1033 0.959 . S
C1049 H1034 0.959 . S
C1049 H1035 0.961 . S
C1049 C1048 1.502 . S
C1050 H1036 0.960 . S
C1050 H1037 0.961 . S
C1050 H1038 0.959 . S
C1050 C1048 1.561 . S
C1051 C1048 1.526 . S
C1051 C1052 1.396 . S
C1051 C1056 1.390 . S
C1052 C1046 1.465 . S
C1052 C1051 1.396 . S
C1052 C1053 1.399 . S
C1053 H1039 0.929 . S
C1053 C1052 1.399 . S
C1053 C1054 1.385 . S
C1054 H1040 0.931 . S
C1054 C1053 1.385 . S
C1054 C1055 1.389 . S
C1055 C1054 1.389 . S
C1055 C1056 1.387 . S
C1056 H1041 0.930 . S
C1056 C1051 1.390 . S
C1056 C1055 1.387 . S
H1057 C1069 0.930 . S
H1058 C1071 0.930 . S
H1059 C1072 0.930 . S
H1060 C1076 0.959 . S
H1061 C1076 0.959 . S
H1062 C1076 0.961 . S
H1063 C1077 0.960 . S
H1064 C1077 0.961 . S
H1065 C1077 0.959 . S
H1066 C1080 0.929 . S
H1067 C1081 0.931 . S
H1068 C1083 0.930 . S
C1069 H1057 0.930 . S
C1069 C1070 1.399 . S
C1069 C1074 1.399 1_554 S
C1070 C1069 1.399 . S
C1070 C1071 1.376 1_554 S
C1071 H1058 0.930 . S
C1071 C1070 1.376 1_556 S
C1071 C1072 1.388 . S
C1072 H1059 0.930 . S
C1072 C1071 1.388 . S
C1072 C1073 1.390 . S
C1073 C1072 1.390 . S
C1073 C1074 1.394 . S
C1073 C1079 1.465 . S
C1074 C1069 1.399 1_556 S
C1074 C1073 1.394 . S
C1074 C1075 1.516 . S
C1075 C1074 1.516 . S
C1075 C1076 1.502 1_556 S
C1075 C1077 1.561 . S
C1075 C1078 1.526 . S
C1076 H1060 0.959 . S
C1076 H1061 0.959 . S
C1076 H1062 0.961 . S
C1076 C1075 1.502 1_554 S
C1077 H1063 0.960 . S
C1077 H1064 0.961 . S
C1077 H1065 0.959 . S
C1077 C1075 1.561 . S
C1078 C1075 1.526 . S
C1078 C1079 1.396 . S
C1078 C1083 1.390 . S
C1079 C1073 1.465 . S
C1079 C1078 1.396 . S
C1079 C1080 1.399 . S
C1080 H1066 0.929 . S
C1080 C1079 1.399 . S
C1080 C1081 1.385 . S
C1081 H1067 0.931 . S
C1081 C1080 1.385 . S
C1081 C1082 1.389 . S
C1082 C1081 1.389 . S
C1082 C1083 1.387 . S
C1083 H1068 0.930 . S
C1083 C1078 1.390 . S
C1083 C1082 1.387 . S
H1084 C1096 0.930 . S
H1085 C1098 0.930 . S
H1086 C1099 0.930 . S
H1087 C1103 0.959 . S
H1088 C1103 0.959 . S
H1089 C1103 0.961 . S
H1090 C1104 0.960 . S
H1091 C1104 0.961 . S
H1092 C1104 0.959 . S
H1093 C1107 0.929 . S
H1094 C1108 0.931 . S
H1095 C1110 0.930 . S
C1096 H1084 0.930 . S
C1096 C1097 1.399 . S
C1096 C1101 1.399 . S
C1097 C1096 1.399 . S
C1097 C1098 1.376 . S
C1098 H1085 0.930 . S
C1098 C1097 1.376 . S
C1098 C1099 1.388 . S
C1099 H1086 0.930 . S
C1099 C1098 1.388 . S
C1099 C1100 1.390 . S
C1100 C1099 1.390 . S
C1100 C1101 1.394 . S
C1100 C1106 1.465 . S
C1101 C1096 1.399 . S
C1101 C1100 1.394 . S
C1101 C1102 1.516 1_556 S
C1102 C1101 1.516 1_554 S
C1102 C1103 1.502 . S
C1102 C1104 1.561 . S
C1102 C1105 1.526 1_554 S
C1103 H1087 0.959 . S
C1103 H1088 0.959 . S
C1103 H1089 0.961 . S
C1103 C1102 1.502 . S
C1104 H1090 0.960 . S
C1104 H1091 0.961 . S
C1104 H1092 0.959 . S
C1104 C1102 1.561 . S
C1105 C1102 1.526 1_556 S
C1105 C1106 1.396 . S
C1105 C1110 1.390 1_556 S
C1106 C1100 1.465 . S
C1106 C1105 1.396 . S
C1106 C1107 1.399 . S
C1107 H1093 0.929 . S
C1107 C1106 1.399 . S
C1107 C1108 1.385 . S
C1108 H1094 0.931 . S
C1108 C1107 1.385 . S
C1108 C1109 1.389 . S
C1109 C1108 1.389 . S
C1109 C1110 1.387 1_556 S
C1110 H1095 0.930 . S
C1110 C1105 1.390 1_554 S
C1110 C1109 1.387 1_554 S
H1111 C1123 0.930 . S
H1112 C1125 0.930 . S
H1113 C1126 0.930 . S
H1114 C1130 0.959 . S
H1115 C1130 0.959 . S
H1116 C1130 0.961 . S
H1117 C1131 0.960 . S
H1118 C1131 0.961 . S
H1119 C1131 0.959 . S
H1120 C1134 0.929 . S
H1121 C1135 0.931 . S
H1122 C1137 0.930 . S
C1123 H1111 0.930 . S
C1123 C1124 1.399 . S
C1123 C1128 1.399 . S
C1124 C1123 1.399 . S
C1124 C1125 1.376 . S
C1125 H1112 0.930 . S
C1125 C1124 1.376 . S
C1125 C1126 1.388 . S
C1126 H1113 0.930 . S
C1126 C1125 1.388 . S
C1126 C1127 1.390 . S
C1127 C1126 1.390 . S
C1127 C1128 1.394 . S
C1127 C1133 1.465 . S
C1128 C1123 1.399 . S
C1128 C1127 1.394 . S
C1128 C1129 1.516 . S
C1129 C1128 1.516 . S
C1129 C1130 1.502 . S
C1129 C1131 1.561 . S
C1129 C1132 1.526 . S
C1130 H1114 0.959 . S
C1130 H1115 0.959 . S
C1130 H1116 0.961 . S
C1130 C1129 1.502 . S
C1131 H1117 0.960 . S
C1131 H1118 0.961 . S
C1131 H1119 0.959 . S
C1131 C1129 1.561 . S
C1132 C1129 1.526 . S
C1132 C1133 1.396 . S
C1132 C1137 1.390 . S
C1133 C1127 1.465 . S
C1133 C1132 1.396 . S
C1133 C1134 1.399 . S
C1134 H1120 0.929 . S
C1134 C1133 1.399 . S
C1134 C1135 1.385 . S
C1135 H1121 0.931 . S
C1135 C1134 1.385 . S
C1135 C1136 1.389 . S
C1136 C1135 1.389 . S
C1136 C1137 1.387 . S
C1137 H1122 0.930 . S
C1137 C1132 1.390 . S
C1137 C1136 1.387 . S
H1138 C1150 0.930 . S
H1139 C1152 0.930 . S
H1140 C1153 0.930 . S
H1141 C1157 0.959 . S
H1142 C1157 0.959 . S
H1143 C1157 0.961 . S
H1144 C1158 0.960 . S
H1145 C1158 0.961 . S
H1146 C1158 0.959 . S
H1147 C1161 0.929 . S
H1148 C1162 0.931 . S
H1149 C1164 0.930 . S
C1150 H1138 0.930 . S
C1150 C1151 1.399 . S
C1150 C1155 1.399 . S
C1151 C1150 1.399 . S
C1151 C1152 1.376 . S
C1152 H1139 0.930 . S
C1152 C1151 1.376 . S
C1152 C1153 1.388 . S
C1153 H1140 0.930 . S
C1153 C1152 1.388 . S
C1153 C1154 1.390 . S
C1154 C1153 1.390 . S
C1154 C1155 1.394 . S
C1154 C1160 1.465 . S
C1155 C1150 1.399 . S
C1155 C1154 1.394 . S
C1155 C1156 1.516 . S
C1156 C1155 1.516 . S
C1156 C1157 1.502 . S
C1156 C1158 1.561 . S
C1156 C1159 1.526 . S
C1157 H1141 0.959 . S
C1157 H1142 0.959 . S
C1157 H1143 0.961 . S
C1157 C1156 1.502 . S
C1158 H1144 0.960 . S
C1158 H1145 0.961 . S
C1158 H1146 0.959 . S
C1158 C1156 1.561 . S
C1159 C1156 1.526 . S
C1159 C1160 1.396 . S
C1159 C1164 1.390 . S
C1160 C1154 1.465 . S
C1160 C1159 1.396 . S
C1160 C1161 1.399 . S
C1161 H1147 0.929 . S
C1161 C1160 1.399 . S
C1161 C1162 1.385 . S
C1162 H1148 0.931 . S
C1162 C1161 1.385 . S
C1162 C1163 1.389 . S
C1163 C1162 1.389 . S
C1163 C1164 1.387 . S
C1164 H1149 0.930 . S
C1164 C1159 1.390 . S
C1164 C1163 1.387 . S
H1165 C1177 0.930 . S
H1166 C1179 0.930 . S
H1167 C1180 0.930 . S
H1168 C1184 0.959 . S
H1169 C1184 0.959 . S
H1170 C1184 0.961 . S
H1171 C1185 0.960 . S
H1172 C1185 0.961 . S
H1173 C1185 0.959 . S
H1174 C1188 0.929 . S
H1175 C1189 0.931 . S
H1176 C1191 0.930 . S
C1177 H1165 0.930 . S
C1177 C1178 1.399 . S
C1177 C1182 1.399 . S
C1178 C1177 1.399 . S
C1178 C1179 1.376 . S
C1179 H1166 0.930 . S
C1179 C1178 1.376 . S
C1179 C1180 1.388 . S
C1180 H1167 0.930 . S
C1180 C1179 1.388 . S
C1180 C1181 1.390 . S
C1181 C1180 1.390 . S
C1181 C1182 1.394 . S
C1181 C1187 1.465 . S
C1182 C1177 1.399 . S
C1182 C1181 1.394 . S
C1182 C1183 1.516 . S
C1183 C1182 1.516 . S
C1183 C1184 1.502 . S
C1183 C1185 1.561 . S
C1183 C1186 1.526 . S
C1184 H1168 0.959 . S
C1184 H1169 0.959 . S
C1184 H1170 0.961 . S
C1184 C1183 1.502 . S
C1185 H1171 0.960 . S
C1185 H1172 0.961 . S
C1185 H1173 0.959 . S
C1185 C1183 1.561 . S
C1186 C1183 1.526 . S
C1186 C1187 1.396 . S
C1186 C1191 1.390 . S
C1187 C1181 1.465 . S
C1187 C1186 1.396 . S
C1187 C1188 1.399 . S
C1188 H1174 0.929 . S
C1188 C1187 1.399 . S
C1188 C1189 1.385 . S
C1189 H1175 0.931 . S
C1189 C1188 1.385 . S
C1189 C1190 1.389 . S
C1190 C1189 1.389 . S
C1190 C1191 1.387 . S
C1191 H1176 0.930 . S
C1191 C1186 1.390 . S
C1191 C1190 1.387 . S
H1192 C1204 0.930 . S
H1193 C1206 0.930 . S
H1194 C1207 0.930 . S
H1195 C1211 0.959 . S
H1196 C1211 0.959 . S
H1197 C1211 0.961 . S
H1198 C1212 0.960 . S
H1199 C1212 0.961 . S
H1200 C1212 0.959 . S
H1201 C1215 0.929 . S
H1202 C1216 0.931 . S
H1203 C1218 0.930 . S
C1204 H1192 0.930 . S
C1204 C1205 1.399 . S
C1204 C1209 1.399 . S
C1205 C1204 1.399 . S
C1205 C1206 1.376 . S
C1206 H1193 0.930 . S
C1206 C1205 1.376 . S
C1206 C1207 1.388 . S
C1207 H1194 0.930 . S
C1207 C1206 1.388 . S
C1207 C1208 1.390 . S
C1208 C1207 1.390 . S
C1208 C1209 1.394 . S
C1208 C1214 1.465 . S
C1209 C1204 1.399 . S
C1209 C1208 1.394 . S
C1209 C1210 1.516 . S
C1210 C1209 1.516 . S
C1210 C1211 1.502 . S
C1210 C1212 1.561 . S
C1210 C1213 1.526 . S
C1211 H1195 0.959 . S
C1211 H1196 0.959 . S
C1211 H1197 0.961 . S
C1211 C1210 1.502 . S
C1212 H1198 0.960 . S
C1212 H1199 0.961 . S
C1212 H1200 0.959 . S
C1212 C1210 1.561 . S
C1213 C1210 1.526 . S
C1213 C1214 1.396 . S
C1213 C1218 1.390 . S
C1214 C1208 1.465 . S
C1214 C1213 1.396 . S
C1214 C1215 1.399 . S
C1215 H1201 0.929 . S
C1215 C1214 1.399 . S
C1215 C1216 1.385 . S
C1216 H1202 0.931 . S
C1216 C1215 1.385 . S
C1216 C1217 1.389 . S
C1217 C1216 1.389 . S
C1217 C1218 1.387 . S
C1218 H1203 0.930 . S
C1218 C1213 1.390 . S
C1218 C1217 1.387 . S
H1219 C1231 0.930 . S
H1220 C1233 0.930 . S
H1221 C1234 0.930 1_554 S
H1222 C1238 0.959 . S
H1223 C1238 0.959 . S
H1224 C1238 0.961 . S
H1225 C1239 0.960 . S
H1226 C1239 0.961 . S
H1227 C1239 0.959 . S
H1228 C1242 0.929 . S
H1229 C1243 0.931 . S
H1230 C1245 0.930 . S
C1231 H1219 0.930 . S
C1231 C1232 1.399 . S
C1231 C1236 1.399 . S
C1232 C1231 1.399 . S
C1232 C1233 1.376 . S
C1233 H1220 0.930 . S
C1233 C1232 1.376 . S
C1233 C1234 1.388 . S
C1234 H1221 0.930 1_556 S
C1234 C1233 1.388 . S
C1234 C1235 1.390 . S
C1235 C1234 1.390 . S
C1235 C1236 1.394 . S
C1235 C1241 1.465 . S
C1236 C1231 1.399 . S
C1236 C1235 1.394 . S
C1236 C1237 1.516 . S
C1237 C1236 1.516 . S
C1237 C1238 1.502 . S
C1237 C1239 1.561 . S
C1237 C1240 1.526 . S
C1238 H1222 0.959 . S
C1238 H1223 0.959 . S
C1238 H1224 0.961 . S
C1238 C1237 1.502 . S
C1239 H1225 0.960 . S
C1239 H1226 0.961 . S
C1239 H1227 0.959 . S
C1239 C1237 1.561 . S
C1240 C1237 1.526 . S
C1240 C1241 1.396 . S
C1240 C1245 1.390 . S
C1241 C1235 1.465 . S
C1241 C1240 1.396 . S
C1241 C1242 1.399 1_556 S
C1242 H1228 0.929 . S
C1242 C1241 1.399 1_554 S
C1242 C1243 1.385 . S
C1243 H1229 0.931 . S
C1243 C1242 1.385 . S
C1243 C1244 1.389 . S
C1244 C1243 1.389 . S
C1244 C1245 1.387 1_554 S
C1245 H1230 0.930 . S
C1245 C1240 1.390 . S
C1245 C1244 1.387 1_556 S
H1246 C1258 0.930 . S
H1247 C1260 0.930 . S
H1248 C1261 0.930 . S
H1249 C1265 0.959 . S
H1250 C1265 0.959 . S
H1251 C1265 0.961 . S
H1252 C1266 0.960 . S
H1253 C1266 0.961 . S
H1254 C1266 0.959 . S
H1255 C1269 0.929 . S
H1256 C1270 0.931 . S
H1257 C1272 0.930 . S
C1258 H1246 0.930 . S
C1258 C1259 1.399 . S
C1258 C1263 1.399 . S
C1259 C1258 1.399 . S
C1259 C1260 1.376 . S
C1260 H1247 0.930 . S
C1260 C1259 1.376 . S
C1260 C1261 1.388 . S
C1261 H1248 0.930 . S
C1261 C1260 1.388 . S
C1261 C1262 1.390 . S
C1262 C1261 1.390 . S
C1262 C1263 1.394 . S
C1262 C1268 1.465 . S
C1263 C1258 1.399 . S
C1263 C1262 1.394 . S
C1263 C1264 1.516 . S
C1264 C1263 1.516 . S
C1264 C1265 1.502 . S
C1264 C1266 1.561 . S
C1264 C1267 1.526 . S
C1265 H1249 0.959 . S
C1265 H1250 0.959 . S
C1265 H1251 0.961 . S
C1265 C1264 1.502 . S
C1266 H1252 0.960 . S
C1266 H1253 0.961 . S
C1266 H1254 0.959 . S
C1266 C1264 1.561 . S
C1267 C1264 1.526 . S
C1267 C1268 1.396 . S
C1267 C1272 1.390 . S
C1268 C1262 1.465 . S
C1268 C1267 1.396 . S
C1268 C1269 1.399 . S
C1269 H1255 0.929 . S
C1269 C1268 1.399 . S
C1269 C1270 1.385 . S
C1270 H1256 0.931 . S
C1270 C1269 1.385 . S
C1270 C1271 1.389 . S
C1271 C1270 1.389 . S
C1271 C1272 1.387 . S
C1272 H1257 0.930 . S
C1272 C1267 1.390 . S
C1272 C1271 1.387 . S
H1273 C1285 0.930 . S
H1274 C1287 0.930 . S
H1275 C1288 0.930 . S
H1276 C1292 0.959 . S
H1277 C1292 0.959 . S
H1278 C1292 0.961 . S
H1279 C1293 0.960 . S
H1280 C1293 0.961 . S
H1281 C1293 0.959 . S
H1282 C1296 0.929 . S
H1283 C1297 0.931 . S
H1284 C1299 0.930 . S
C1285 H1273 0.930 . S
C1285 C1286 1.399 . S
C1285 C1290 1.399 . S
C1286 C1285 1.399 . S
C1286 C1287 1.376 . S
C1287 H1274 0.930 . S
C1287 C1286 1.376 . S
C1287 C1288 1.388 . S
C1288 H1275 0.930 . S
C1288 C1287 1.388 . S
C1288 C1289 1.390 . S
C1289 C1288 1.390 . S
C1289 C1290 1.394 . S
C1289 C1295 1.465 . S
C1290 C1285 1.399 . S
C1290 C1289 1.394 . S
C1290 C1291 1.516 . S
C1291 C1290 1.516 . S
C1291 C1292 1.502 . S
C1291 C1293 1.561 . S
C1291 C1294 1.526 . S
C1292 H1276 0.959 . S
C1292 H1277 0.959 . S
C1292 H1278 0.961 . S
C1292 C1291 1.502 . S
C1293 H1279 0.960 . S
C1293 H1280 0.961 . S
C1293 H1281 0.959 . S
C1293 C1291 1.561 . S
C1294 C1291 1.526 . S
C1294 C1295 1.396 . S
C1294 C1299 1.390 . S
C1295 C1289 1.465 . S
C1295 C1294 1.396 . S
C1295 C1296 1.399 . S
C1296 H1282 0.929 . S
C1296 C1295 1.399 . S
C1296 C1297 1.385 . S
C1297 H1283 0.931 . S
C1297 C1296 1.385 . S
C1297 C1298 1.389 . S
C1298 C1297 1.389 . S
C1298 C1299 1.387 . S
C1299 H1284 0.930 . S
C1299 C1294 1.390 . S
C1299 C1298 1.387 . S
H1300 C1312 0.930 . S
H1301 C1314 0.930 . S
H1302 C1315 0.930 . S
H1303 C1319 0.959 . S
H1304 C1319 0.959 . S
H1305 C1319 0.961 . S
H1306 C1320 0.960 . S
H1307 C1320 0.961 . S
H1308 C1320 0.959 . S
H1309 C1323 0.929 . S
H1310 C1324 0.931 . S
H1311 C1326 0.930 . S
C1312 H1300 0.930 . S
C1312 C1313 1.399 . S
C1312 C1317 1.399 . S
C1313 C1312 1.399 . S
C1313 C1314 1.376 . S
C1314 H1301 0.930 . S
C1314 C1313 1.376 . S
C1314 C1315 1.388 . S
C1315 H1302 0.930 . S
C1315 C1314 1.388 . S
C1315 C1316 1.390 . S
C1316 C1315 1.390 . S
C1316 C1317 1.394 . S
C1316 C1322 1.465 . S
C1317 C1312 1.399 . S
C1317 C1316 1.394 . S
C1317 C1318 1.516 . S
C1318 C1317 1.516 . S
C1318 C1319 1.502 . S
C1318 C1320 1.561 . S
C1318 C1321 1.526 . S
C1319 H1303 0.959 . S
C1319 H1304 0.959 . S
C1319 H1305 0.961 . S
C1319 C1318 1.502 . S
C1320 H1306 0.960 . S
C1320 H1307 0.961 . S
C1320 H1308 0.959 . S
C1320 C1318 1.561 . S
C1321 C1318 1.526 . S
C1321 C1322 1.396 . S
C1321 C1326 1.390 . S
C1322 C1316 1.465 . S
C1322 C1321 1.396 . S
C1322 C1323 1.399 . S
C1323 H1309 0.929 . S
C1323 C1322 1.399 . S
C1323 C1324 1.385 . S
C1324 H1310 0.931 . S
C1324 C1323 1.385 . S
C1324 C1325 1.389 . S
C1325 C1324 1.389 . S
C1325 C1326 1.387 . S
C1326 H1311 0.930 . S
C1326 C1321 1.390 . S
C1326 C1325 1.387 . S
H1327 C1339 0.930 . S
H1328 C1341 0.930 . S
H1329 C1342 0.930 . S
H1330 C1346 0.959 . S
H1331 C1346 0.959 . S
H1332 C1346 0.961 . S
H1333 C1347 0.960 . S
H1334 C1347 0.961 . S
H1335 C1347 0.959 . S
H1336 C1350 0.929 . S
H1337 C1351 0.931 . S
H1338 C1353 0.930 . S
C1339 H1327 0.930 . S
C1339 C1340 1.399 . S
C1339 C1344 1.399 . S
C1340 C1339 1.399 . S
C1340 C1341 1.376 . S
C1341 H1328 0.930 . S
C1341 C1340 1.376 . S
C1341 C1342 1.388 . S
C1342 H1329 0.930 . S
C1342 C1341 1.388 . S
C1342 C1343 1.390 . S
C1343 C1342 1.390 . S
C1343 C1344 1.394 . S
C1343 C1349 1.465 . S
C1344 C1339 1.399 . S
C1344 C1343 1.394 . S
C1344 C1345 1.516 . S
C1345 C1344 1.516 . S
C1345 C1346 1.502 . S
C1345 C1347 1.561 . S
C1345 C1348 1.526 . S
C1346 H1330 0.959 . S
C1346 H1331 0.959 . S
C1346 H1332 0.961 . S
C1346 C1345 1.502 . S
C1347 H1333 0.960 . S
C1347 H1334 0.961 . S
C1347 H1335 0.959 . S
C1347 C1345 1.561 . S
C1348 C1345 1.526 . S
C1348 C1349 1.396 . S
C1348 C1353 1.390 . S
C1349 C1343 1.465 . S
C1349 C1348 1.396 . S
C1349 C1350 1.399 . S
C1350 H1336 0.929 . S
C1350 C1349 1.399 . S
C1350 C1351 1.385 . S
C1351 H1337 0.931 . S
C1351 C1350 1.385 . S
C1351 C1352 1.389 . S
C1352 C1351 1.389 . S
C1352 C1353 1.387 . S
C1353 H1338 0.930 . S
C1353 C1348 1.390 . S
C1353 C1352 1.387 . S
H1354 C1366 0.930 . S
H1355 C1368 0.930 . S
H1356 C1369 0.930 1_554 S
H1357 C1373 0.959 . S
H1358 C1373 0.959 . S
H1359 C1373 0.961 . S
H1360 C1374 0.960 . S
H1361 C1374 0.961 . S
H1362 C1374 0.959 . S
H1363 C1377 0.929 . S
H1364 C1378 0.931 . S
H1365 C1380 0.930 . S
C1366 H1354 0.930 . S
C1366 C1367 1.399 . S
C1366 C1371 1.399 . S
C1367 C1366 1.399 . S
C1367 C1368 1.376 . S
C1368 H1355 0.930 . S
C1368 C1367 1.376 . S
C1368 C1369 1.388 . S
C1369 H1356 0.930 1_556 S
C1369 C1368 1.388 . S
C1369 C1370 1.390 . S
C1370 C1369 1.390 . S
C1370 C1371 1.394 . S
C1370 C1376 1.465 . S
C1371 C1366 1.399 . S
C1371 C1370 1.394 . S
C1371 C1372 1.516 . S
C1372 C1371 1.516 . S
C1372 C1373 1.502 . S
C1372 C1374 1.561 . S
C1372 C1375 1.526 . S
C1373 H1357 0.959 . S
C1373 H1358 0.959 . S
C1373 H1359 0.961 . S
C1373 C1372 1.502 . S
C1374 H1360 0.960 . S
C1374 H1361 0.961 . S
C1374 H1362 0.959 . S
C1374 C1372 1.561 . S
C1375 C1372 1.526 . S
C1375 C1376 1.396 . S
C1375 C1380 1.390 . S
C1376 C1370 1.465 . S
C1376 C1375 1.396 . S
C1376 C1377 1.399 1_556 S
C1377 H1363 0.929 . S
C1377 C1376 1.399 1_554 S
C1377 C1378 1.385 . S
C1378 H1364 0.931 . S
C1378 C1377 1.385 . S
C1378 C1379 1.389 . S
C1379 C1378 1.389 . S
C1379 C1380 1.387 1_554 S
C1380 H1365 0.930 . S
C1380 C1375 1.390 . S
C1380 C1379 1.387 1_556 S
H1381 C1393 0.930 . S
H1382 C1395 0.930 . S
H1383 C1396 0.930 . S
H1384 C1400 0.959 . S
H1385 C1400 0.959 . S
H1386 C1400 0.961 . S
H1387 C1401 0.960 . S
H1388 C1401 0.961 . S
H1389 C1401 0.959 . S
H1390 C1404 0.929 . S
H1391 C1405 0.931 . S
H1392 C1407 0.930 . S
C1393 H1381 0.930 . S
C1393 C1394 1.399 . S
C1393 C1398 1.399 . S
C1394 C1393 1.399 . S
C1394 C1395 1.376 . S
C1395 H1382 0.930 . S
C1395 C1394 1.376 . S
C1395 C1396 1.388 . S
C1396 H1383 0.930 . S
C1396 C1395 1.388 . S
C1396 C1397 1.390 . S
C1397 C1396 1.390 . S
C1397 C1398 1.394 . S
C1397 C1403 1.465 . S
C1398 C1393 1.399 . S
C1398 C1397 1.394 . S
C1398 C1399 1.516 . S
C1399 C1398 1.516 . S
C1399 C1400 1.502 . S
C1399 C1401 1.561 . S
C1399 C1402 1.526 . S
C1400 H1384 0.959 . S
C1400 H1385 0.959 . S
C1400 H1386 0.961 . S
C1400 C1399 1.502 . S
C1401 H1387 0.960 . S
C1401 H1388 0.961 . S
C1401 H1389 0.959 . S
C1401 C1399 1.561 . S
C1402 C1399 1.526 . S
C1402 C1403 1.396 . S
C1402 C1407 1.390 . S
C1403 C1397 1.465 . S
C1403 C1402 1.396 . S
C1403 C1404 1.399 . S
C1404 H1390 0.929 . S
C1404 C1403 1.399 . S
C1404 C1405 1.385 . S
C1405 H1391 0.931 . S
C1405 C1404 1.385 . S
C1405 C1406 1.389 . S
C1406 C1405 1.389 . S
C1406 C1407 1.387 . S
C1407 H1392 0.930 . S
C1407 C1402 1.390 . S
C1407 C1406 1.387 . S
H1408 C1420 0.930 . S
H1409 C1422 0.930 . S
H1410 C1423 0.930 1_565 S
H1411 C1427 0.959 . S
H1412 C1427 0.959 . S
H1413 C1427 0.961 . S
H1414 C1428 0.960 . S
H1415 C1428 0.961 . S
H1416 C1428 0.959 . S
H1417 C1431 0.929 1_565 S
H1418 C1432 0.931 1_565 S
H1419 C1434 0.922 1_556 S
C1420 H1408 0.930 . S
C1420 C1421 1.399 . S
C1420 C1425 1.399 . S
C1421 C1420 1.399 . S
C1421 C1422 1.376 . S
C1422 H1409 0.930 . S
C1422 C1421 1.376 . S
C1422 C1423 1.388 . S
C1423 H1410 0.930 1_545 S
C1423 C1422 1.388 . S
C1423 C1424 1.390 . S
C1424 C1423 1.390 . S
C1424 C1425 1.394 . S
C1424 C1430 1.465 . S
C1425 C1420 1.399 . S
C1425 C1424 1.394 . S
C1425 C1426 1.516 . S
C1426 C1425 1.516 . S
C1426 C1427 1.502 1_554 S
C1426 C1428 1.561 . S
C1426 C1429 1.526 . S
C1427 H1411 0.959 . S
C1427 H1412 0.959 . S
C1427 H1413 0.961 . S
C1427 C1426 1.502 1_556 S
C1428 H1414 0.960 . S
C1428 H1415 0.961 . S
C1428 H1416 0.959 . S
C1428 C1426 1.561 . S
C1429 C1426 1.526 . S
C1429 C1430 1.396 . S
C1429 C1434 1.390 . S
C1430 C1424 1.465 . S
C1430 C1429 1.396 . S
C1430 C1431 1.399 . S
C1431 H1417 0.929 1_545 S
C1431 C1430 1.399 . S
C1431 C1432 1.385 . S
C1432 H1418 0.931 1_545 S
C1432 C1431 1.385 . S
C1432 C1433 1.389 . S
C1433 C1432 1.389 . S
C1433 C1434 1.387 . S
C1434 H1419 0.922 1_554 S
C1434 C1429 1.390 . S
C1434 C1433 1.387 . S
H1435 C1447 0.930 . S
H1436 C1449 0.930 . S
H1437 C1450 0.930 . S
H1438 C1454 0.959 . S
H1439 C1454 0.959 . S
H1440 C1454 0.961 . S
H1441 C1455 0.960 . S
H1442 C1455 0.961 . S
H1443 C1455 0.959 . S
H1444 C1458 0.929 . S
H1445 C1459 0.931 . S
H1446 C1461 0.930 . S
C1447 H1435 0.930 . S
C1447 C1448 1.399 . S
C1447 C1452 1.399 . S
C1448 C1447 1.399 . S
C1448 C1449 1.376 . S
C1449 H1436 0.930 . S
C1449 C1448 1.376 . S
C1449 C1450 1.388 . S
C1450 H1437 0.930 . S
C1450 C1449 1.388 . S
C1450 C1451 1.390 . S
C1451 C1450 1.390 . S
C1451 C1452 1.394 . S
C1451 C1457 1.465 . S
C1452 C1447 1.399 . S
C1452 C1451 1.394 . S
C1452 C1453 1.516 . S
C1453 C1452 1.516 . S
C1453 C1454 1.502 . S
C1453 C1455 1.561 . S
C1453 C1456 1.526 . S
C1454 H1438 0.959 . S
C1454 H1439 0.959 . S
C1454 H1440 0.961 . S
C1454 C1453 1.502 . S
C1455 H1441 0.960 . S
C1455 H1442 0.961 . S
C1455 H1443 0.959 . S
C1455 C1453 1.561 . S
C1456 C1453 1.526 . S
C1456 C1457 1.396 . S
C1456 C1461 1.390 . S
C1457 C1451 1.465 . S
C1457 C1456 1.396 . S
C1457 C1458 1.399 . S
C1458 H1444 0.929 . S
C1458 C1457 1.399 . S
C1458 C1459 1.385 . S
C1459 H1445 0.931 . S
C1459 C1458 1.385 . S
C1459 C1460 1.389 . S
C1460 C1459 1.389 . S
C1460 C1461 1.387 . S
C1461 H1446 0.930 . S
C1461 C1456 1.390 . S
C1461 C1460 1.387 . S
H1462 C1474 0.930 . S
H1463 C1476 0.930 . S
H1464 C1477 0.930 . S
H1465 C1481 0.959 . S
H1466 C1481 0.959 . S
H1467 C1481 0.961 . S
H1468 C1482 0.960 1_455 S
H1469 C1482 0.961 . S
H1470 C1482 0.959 . S
H1471 C1485 0.929 . S
H1472 C1486 0.931 . S
H1473 C1488 0.930 . S
C1474 H1462 0.930 . S
C1474 C1475 1.399 . S
C1474 C1479 1.399 . S
C1475 C1474 1.399 . S
C1475 C1476 1.376 . S
C1476 H1463 0.930 . S
C1476 C1475 1.376 . S
C1476 C1477 1.388 . S
C1477 H1464 0.930 . S
C1477 C1476 1.388 . S
C1477 C1478 1.390 . S
C1478 C1477 1.390 . S
C1478 C1479 1.394 . S
C1478 C1484 1.465 1_455 S
C1479 C1474 1.399 . S
C1479 C1478 1.394 . S
C1479 C1480 1.516 1_455 S
C1480 C1479 1.516 1_655 S
C1480 C1481 1.502 1_545 S
C1480 C1482 1.561 . S
C1480 C1483 1.526 . S
C1481 H1465 0.959 . S
C1481 H1466 0.959 . S
C1481 H1467 0.961 . S
C1481 C1480 1.502 1_565 S
C1482 H1468 0.960 1_655 S
C1482 H1469 0.961 . S
C1482 H1470 0.959 . S
C1482 C1480 1.561 . S
C1483 C1480 1.526 . S
C1483 C1484 1.396 . S
C1483 C1488 1.390 . S
C1484 C1478 1.465 1_655 S
C1484 C1483 1.396 . S
C1484 C1485 1.399 . S
C1485 H1471 0.929 . S
C1485 C1484 1.399 . S
C1485 C1486 1.385 . S
C1486 H1472 0.931 . S
C1486 C1485 1.385 . S
C1486 C1487 1.389 . S
C1487 C1486 1.389 . S
C1487 C1488 1.387 . S
C1488 H1473 0.930 . S
C1488 C1483 1.390 . S
C1488 C1487 1.387 . S
H1489 C1501 0.930 . S
H1490 C1503 0.930 . S
H1491 C1504 0.930 . S
H1492 C1508 0.959 . S
H1493 C1508 0.959 . S
H1494 C1508 0.961 . S
H1495 C1509 0.960 . S
H1496 C1509 0.961 . S
H1497 C1509 0.959 . S
H1498 C1512 0.929 . S
H1499 C1513 0.931 . S
H1500 C1515 0.930 . S
C1501 H1489 0.930 . S
C1501 C1502 1.399 . S
C1501 C1506 1.399 . S
C1502 C1501 1.399 . S
C1502 C1503 1.376 . S
C1503 H1490 0.930 . S
C1503 C1502 1.376 . S
C1503 C1504 1.388 . S
C1504 H1491 0.930 . S
C1504 C1503 1.388 . S
C1504 C1505 1.390 . S
C1505 C1504 1.390 . S
C1505 C1506 1.394 . S
C1505 C1511 1.465 . S
C1506 C1501 1.399 . S
C1506 C1505 1.394 . S
C1506 C1507 1.516 . S
C1507 C1506 1.516 . S
C1507 C1508 1.502 . S
C1507 C1509 1.561 . S
C1507 C1510 1.526 . S
C1508 H1492 0.959 . S
C1508 H1493 0.959 . S
C1508 H1494 0.961 . S
C1508 C1507 1.502 . S
C1509 H1495 0.960 . S
C1509 H1496 0.961 . S
C1509 H1497 0.959 . S
C1509 C1507 1.561 . S
C1510 C1507 1.526 . S
C1510 C1511 1.396 . S
C1510 C1515 1.390 . S
C1511 C1505 1.465 . S
C1511 C1510 1.396 . S
C1511 C1512 1.399 . S
C1512 H1498 0.929 . S
C1512 C1511 1.399 . S
C1512 C1513 1.385 . S
C1513 H1499 0.931 . S
C1513 C1512 1.385 . S
C1513 C1514 1.389 . S
C1514 C1513 1.389 . S
C1514 C1515 1.387 . S
C1515 H1500 0.930 . S
C1515 C1510 1.390 . S
C1515 C1514 1.387 . S
H1516 C1528 0.930 . S
H1517 C1530 0.930 . S
H1518 C1531 0.930 . S
H1519 C1535 0.959 . S
H1520 C1535 0.959 . S
H1521 C1535 0.961 . S
H1522 C1536 0.960 . S
H1523 C1536 0.961 . S
H1524 C1536 0.959 . S
H1525 C1539 0.929 . S
H1526 C1540 0.931 . S
H1527 C1542 0.930 . S
C1528 H1516 0.930 . S
C1528 C1529 1.399 . S
C1528 C1533 1.399 . S
C1529 C1528 1.399 . S
C1529 C1530 1.376 . S
C1530 H1517 0.930 . S
C1530 C1529 1.376 . S
C1530 C1531 1.388 . S
C1531 H1518 0.930 . S
C1531 C1530 1.388 . S
C1531 C1532 1.390 . S
C1532 C1531 1.390 . S
C1532 C1533 1.394 . S
C1532 C1538 1.465 . S
C1533 C1528 1.399 . S
C1533 C1532 1.394 . S
C1533 C1534 1.516 . S
C1534 C1533 1.516 . S
C1534 C1535 1.502 . S
C1534 C1536 1.561 . S
C1534 C1537 1.526 . S
C1535 H1519 0.959 . S
C1535 H1520 0.959 . S
C1535 H1521 0.961 . S
C1535 C1534 1.502 . S
C1536 H1522 0.960 . S
C1536 H1523 0.961 . S
C1536 H1524 0.959 . S
C1536 C1534 1.561 . S
C1537 C1534 1.526 . S
C1537 C1538 1.396 . S
C1537 C1542 1.390 . S
C1538 C1532 1.465 . S
C1538 C1537 1.396 . S
C1538 C1539 1.399 . S
C1539 H1525 0.929 . S
C1539 C1538 1.399 . S
C1539 C1540 1.385 . S
C1540 H1526 0.931 . S
C1540 C1539 1.385 . S
C1540 C1541 1.389 . S
C1541 C1540 1.389 . S
C1541 C1542 1.387 . S
C1542 H1527 0.930 . S
C1542 C1537 1.390 . S
C1542 C1541 1.387 . S
H1543 C1555 0.930 . S
H1544 C1557 0.930 . S
H1545 C1558 0.930 . S
H1546 C1562 0.959 . S
H1547 C1562 0.959 . S
H1548 C1562 0.961 . S
H1549 C1563 0.960 . S
H1550 C1563 0.961 . S
H1551 C1563 0.959 . S
H1552 C1566 0.929 . S
H1553 C1567 0.931 . S
H1554 C1569 0.930 . S
C1555 H1543 0.930 . S
C1555 C1556 1.399 . S
C1555 C1560 1.399 . S
C1556 C1555 1.399 . S
C1556 C1557 1.376 . S
C1557 H1544 0.930 . S
C1557 C1556 1.376 . S
C1557 C1558 1.388 . S
C1558 H1545 0.930 . S
C1558 C1557 1.388 . S
C1558 C1559 1.390 . S
C1559 C1558 1.390 . S
C1559 C1560 1.394 . S
C1559 C1565 1.465 . S
C1560 C1555 1.399 . S
C1560 C1559 1.394 . S
C1560 C1561 1.516 . S
C1561 C1560 1.516 . S
C1561 C1562 1.502 . S
C1561 C1563 1.561 . S
C1561 C1564 1.526 . S
C1562 H1546 0.959 . S
C1562 H1547 0.959 . S
C1562 H1548 0.961 . S
C1562 C1561 1.502 . S
C1563 H1549 0.960 . S
C1563 H1550 0.961 . S
C1563 H1551 0.959 . S
C1563 C1561 1.561 . S
C1564 C1561 1.526 . S
C1564 C1565 1.396 . S
C1564 C1569 1.390 . S
C1565 C1559 1.465 . S
C1565 C1564 1.396 . S
C1565 C1566 1.399 . S
C1566 H1552 0.929 . S
C1566 C1565 1.399 . S
C1566 C1567 1.385 . S
C1567 H1553 0.931 . S
C1567 C1566 1.385 . S
C1567 C1568 1.389 . S
C1568 C1567 1.389 . S
C1568 C1569 1.387 . S
C1569 H1554 0.930 . S
C1569 C1564 1.390 . S
C1569 C1568 1.387 . S
H1570 C1582 0.930 . S
H1571 C1584 0.930 . S
H1572 C1585 0.930 . S
H1573 C1589 0.959 . S
H1574 C1589 0.957 1_455 S
H1575 C1589 0.961 . S
H1576 C1590 0.963 . S
H1577 C1590 0.958 1_455 S
H1578 C1590 0.958 1_455 S
H1579 C1593 0.929 . S
H1580 C1594 0.931 . S
H1581 C1596 0.930 . S
C1582 H1570 0.930 . S
C1582 C1583 1.399 . S
C1582 C1587 1.399 . S
C1583 C1582 1.399 . S
C1583 C1584 1.376 . S
C1584 H1571 0.930 . S
C1584 C1583 1.376 . S
C1584 C1585 1.388 . S
C1585 H1572 0.930 . S
C1585 C1584 1.388 . S
C1585 C1586 1.390 . S
C1586 C1585 1.390 . S
C1586 C1587 1.394 . S
C1586 C1592 1.465 1_655 S
C1587 C1582 1.399 . S
C1587 C1586 1.394 . S
C1587 C1588 1.516 . S
C1588 C1587 1.516 . S
C1588 C1589 1.502 . S
C1588 C1590 1.561 . S
C1588 C1591 1.526 1_655 S
C1589 H1573 0.959 . S
C1589 H1574 0.957 1_655 S
C1589 H1575 0.961 . S
C1589 C1588 1.502 . S
C1590 H1576 0.963 . S
C1590 H1577 0.958 1_655 S
C1590 H1578 0.958 1_655 S
C1590 C1588 1.561 . S
C1591 C1588 1.526 1_455 S
C1591 C1592 1.396 . S
C1591 C1596 1.390 . S
C1592 C1586 1.465 1_455 S
C1592 C1591 1.396 . S
C1592 C1593 1.399 . S
C1593 H1579 0.929 . S
C1593 C1592 1.399 . S
C1593 C1594 1.385 . S
C1594 H1580 0.931 . S
C1594 C1593 1.385 . S
C1594 C1595 1.389 . S
C1595 C1594 1.389 . S
C1595 C1596 1.387 . S
C1596 H1581 0.930 . S
C1596 C1591 1.390 . S
C1596 C1595 1.387 . S
H1597 C1609 0.930 . S
H1598 C1611 0.930 . S
H1599 C1612 0.930 . S
H1600 C1616 0.959 . S
H1601 C1616 0.959 . S
H1602 C1616 0.961 . S
H1603 C1617 0.960 . S
H1604 C1617 0.961 . S
H1605 C1617 0.959 . S
H1606 C1620 0.929 . S
H1607 C1621 0.931 . S
H1608 C1623 0.930 . S
C1609 H1597 0.930 . S
C1609 C1610 1.399 . S
C1609 C1614 1.399 . S
C1610 C1609 1.399 . S
C1610 C1611 1.376 1_554 S
C1611 H1598 0.930 . S
C1611 C1610 1.376 1_556 S
C1611 C1612 1.388 . S
C1612 H1599 0.930 . S
C1612 C1611 1.388 . S
C1612 C1613 1.390 1_556 S
C1613 C1612 1.390 1_554 S
C1613 C1614 1.394 . S
C1613 C1619 1.465 . S
C1614 C1609 1.399 . S
C1614 C1613 1.394 . S
C1614 C1615 1.516 . S
C1615 C1614 1.516 . S
C1615 C1616 1.502 . S
C1615 C1617 1.561 . S
C1615 C1618 1.526 . S
C1616 H1600 0.959 . S
C1616 H1601 0.959 . S
C1616 H1602 0.961 . S
C1616 C1615 1.502 . S
C1617 H1603 0.960 . S
C1617 H1604 0.961 . S
C1617 H1605 0.959 . S
C1617 C1615 1.561 . S
C1618 C1615 1.526 . S
C1618 C1619 1.396 . S
C1618 C1623 1.390 . S
C1619 C1613 1.465 . S
C1619 C1618 1.396 . S
C1619 C1620 1.399 1_554 S
C1620 H1606 0.929 . S
C1620 C1619 1.399 1_556 S
C1620 C1621 1.385 . S
C1621 H1607 0.931 . S
C1621 C1620 1.385 . S
C1621 C1622 1.389 1_556 S
C1622 C1621 1.389 1_554 S
C1622 C1623 1.387 . S
C1623 H1608 0.930 . S
C1623 C1618 1.390 . S
C1623 C1622 1.387 . S
C557 C5 1.272 . S
C569 C9 1.273 . S
C584 C43 1.269 . S
C596 C39 1.274 . S
C611 C73 1.274 . S
C623 C77 1.260 . S
C638 C111 1.252 . S
C650 C107 1.272 . S
C665 C145 1.231 . S
C677 C141 1.273 . S
C692 C175 1.274 . S
C704 C179 1.241 . S
C719 C213 1.207 . S
C731 C209 1.262 . S
C746 C247 1.238 . S
C758 C243 1.244 . S
C773 C277 1.273 . S
C785 C281 1.253 . S
C800 C315 1.246 . S
C812 C311 1.271 . S
C827 C345 1.255 . S
C839 C349 1.212 . S
C854 C379 1.251 . S
C866 C383 1.207 . S
C881 C413 1.265 . S
C893 C417 1.273 . S
C908 C447 1.274 . S
C920 C451 1.241 . S
C935 C485 1.225 . S
C947 C481 1.244 . S
C962 C519 1.203 . S
C974 C515 1.255 . S
C989 C2 1.615 . S
C1001 C36 1.604 . S
C1016 C101 1.551 . S
C1028 C67 1.581 . S
C1043 C104 1.623 . S
C1055 C70 1.594 . S
C1070 C33 1.557 1_565 S
C1082 C135 1.582 . S
C1097 C172 1.618 . S
C1109 C138 1.593 1_556 S
C1124 C203 1.584 . S
C1136 C237 1.553 1_565 S
C1151 C206 1.598 . S
C1163 C240 1.623 . S
C1178 C271 1.586 . S
C1190 C169 1.558 . S
C1205 C308 1.609 . S
C1217 C274 1.610 . S
C1232 C339 1.549 . S
C1244 C373 1.585 . S
C1259 C342 1.620 . S
C1271 C376 1.598 . S
C1286 C407 1.579 . S
C1298 C305 1.562 . S
C1313 C410 1.607 . S
C1325 C444 1.598 . S
C1340 C475 1.585 . S
C1352 C509 1.554 . S
C1367 C512 1.601 . S
C1379 C478 1.622 . S
C1394 C441 1.584 . S
C1406 C543 1.553 . S
C1421 C20 1.519 . S
C1433 C156 1.500 . S
C1448 C462 1.499 . S
C1460 C54 1.518 . S
C1475 C88 1.513 . S
C1487 C224 1.509 . S
C1502 C530 1.499 . S
C1514 C122 1.519 . S
C1529 C326 1.501 . S
C1541 C190 1.515 . S
C1556 C258 1.519 . S
C1568 C394 1.502 . S
C1583 C292 1.508 . S
C1595 C428 1.508 . S
C1610 C496 1.517 . S
C1622 C360 1.505 . S
