# Generated by pormake.
# Topology umc, (4)-cn, num edge types: 1
# Building blocks:
#     Node 0, Type 0, BuildingBlock: MUDLON_clean_sbu_0, # of connection points: 4
#     Node 1, Type 0, BuildingBlock: MUDLON_clean_sbu_0, # of connection points: 4
#     Node 2, Type 0, BuildingBlock: MUDLON_clean_sbu_0, # of connection points: 4
#     Node 3, Type 0, BuildingBlock: MUDLON_clean_sbu_0, # of connection points: 4
#     Node 4, Type 0, BuildingBlock: MUDLON_clean_sbu_0, # of connection points: 4
#     Node 5, Type 0, BuildingBlock: MUDLON_clean_sbu_0, # of connection points: 4
#     Node 6, Type 0, BuildingBlock: MUDLON_clean_sbu_0, # of connection points: 4
#     Node 7, Type 0, BuildingBlock: MUDLON_clean_sbu_0, # of connection points: 4
#     Node 8, Type 0, BuildingBlock: MUDLON_clean_sbu_0, # of connection points: 4
#     Node 9, Type 0, BuildingBlock: MUDLON_clean_sbu_0, # of connection points: 4
#     Node 10, Type 0, BuildingBlock: MUDLON_clean_sbu_0, # of connection points: 4
#     Node 11, Type 0, BuildingBlock: MUDLON_clean_sbu_0, # of connection points: 4
#     Node 12, Type 0, BuildingBlock: MUDLON_clean_sbu_0, # of connection points: 4
#     Node 13, Type 0, BuildingBlock: MUDLON_clean_sbu_0, # of connection points: 4
#     Node 14, Type 0, BuildingBlock: MUDLON_clean_sbu_0, # of connection points: 4
#     Node 15, Type 0, BuildingBlock: MUDLON_clean_sbu_0, # of connection points: 4
#     Edge 16, Type (0, 0), BuildingBlock: CIFDUS_clean_linker_0, # of connection points: 2
#     Edge 17, Type (0, 0), BuildingBlock: CIFDUS_clean_linker_0, # of connection points: 2
#     Edge 18, Type (0, 0), BuildingBlock: CIFDUS_clean_linker_0, # of connection points: 2
#     Edge 19, Type (0, 0), BuildingBlock: CIFDUS_clean_linker_0, # of connection points: 2
#     Edge 20, Type (0, 0), BuildingBlock: CIFDUS_clean_linker_0, # of connection points: 2
#     Edge 21, Type (0, 0), BuildingBlock: CIFDUS_clean_linker_0, # of connection points: 2
#     Edge 22, Type (0, 0), BuildingBlock: CIFDUS_clean_linker_0, # of connection points: 2
#     Edge 23, Type (0, 0), BuildingBlock: CIFDUS_clean_linker_0, # of connection points: 2
#     Edge 24, Type (0, 0), BuildingBlock: CIFDUS_clean_linker_0, # of connection points: 2
#     Edge 25, Type (0, 0), BuildingBlock: CIFDUS_clean_linker_0, # of connection points: 2
#     Edge 26, Type (0, 0), BuildingBlock: CIFDUS_clean_linker_0, # of connection points: 2
#     Edge 27, Type (0, 0), BuildingBlock: CIFDUS_clean_linker_0, # of connection points: 2
#     Edge 28, Type (0, 0), BuildingBlock: CIFDUS_clean_linker_0, # of connection points: 2
#     Edge 29, Type (0, 0), BuildingBlock: CIFDUS_clean_linker_0, # of connection points: 2
#     Edge 30, Type (0, 0), BuildingBlock: CIFDUS_clean_linker_0, # of connection points: 2
#     Edge 31, Type (0, 0), BuildingBlock: CIFDUS_clean_linker_0, # of connection points: 2
#     Edge 32, Type (0, 0), BuildingBlock: CIFDUS_clean_linker_0, # of connection points: 2
#     Edge 33, Type (0, 0), BuildingBlock: CIFDUS_clean_linker_0, # of connection points: 2
#     Edge 34, Type (0, 0), BuildingBlock: CIFDUS_clean_linker_0, # of connection points: 2
#     Edge 35, Type (0, 0), BuildingBlock: CIFDUS_clean_linker_0, # of connection points: 2
#     Edge 36, Type (0, 0), BuildingBlock: CIFDUS_clean_linker_0, # of connection points: 2
#     Edge 37, Type (0, 0), BuildingBlock: CIFDUS_clean_linker_0, # of connection points: 2
#     Edge 38, Type (0, 0), BuildingBlock: CIFDUS_clean_linker_0, # of connection points: 2
#     Edge 39, Type (0, 0), BuildingBlock: CIFDUS_clean_linker_0, # of connection points: 2
#     Edge 40, Type (0, 0), BuildingBlock: CIFDUS_clean_linker_0, # of connection points: 2
#     Edge 41, Type (0, 0), BuildingBlock: CIFDUS_clean_linker_0, # of connection points: 2
#     Edge 42, Type (0, 0), BuildingBlock: CIFDUS_clean_linker_0, # of connection points: 2
#     Edge 43, Type (0, 0), BuildingBlock: CIFDUS_clean_linker_0, # of connection points: 2
#     Edge 44, Type (0, 0), BuildingBlock: CIFDUS_clean_linker_0, # of connection points: 2
#     Edge 45, Type (0, 0), BuildingBlock: CIFDUS_clean_linker_0, # of connection points: 2
#     Edge 46, Type (0, 0), BuildingBlock: CIFDUS_clean_linker_0, # of connection points: 2
#     Edge 47, Type (0, 0), BuildingBlock: CIFDUS_clean_linker_0, # of connection points: 2
# Relax obj value: 0.000
# Max RMSD: 0.076
# Mean RMSD: 0.076
data_MOF--net-umc--node1-MUDLON_clean_sbu_0--edge1-CIFDUS_clean_linker_0
_symmetry_space_group_name_H-M    P1
_symmetry_Int_Tables_number       1
_symmetry_cell_setting            triclinic
loop_
_symmetry_equiv_pos_as_xyz
'x, y, z'
_cell_length_a     51.196047
_cell_length_b     13.230629
_cell_length_c     52.990905
_cell_angle_alpha  90.105401
_cell_angle_beta   90.113471
_cell_angle_gamma 89.884635
loop_
_atom_site_label
_atom_site_type_symbol
_atom_site_fract_x
_atom_site_fract_y
_atom_site_fract_z
_atom_type_partial_charge
Mg0 Mg 0.38808 0.93688 0.40064 0.0
C1 C 0.37072 0.82658 0.44818 0.0
O2 O 0.35072 0.88804 0.44568 0.0
C3 C 0.38543 0.9671 0.34603 0.0
O4 O 0.38625 0.05837 0.35583 0.0
C5 C 0.33329 0.00135 0.39743 0.0
O6 O 0.33375 0.91226 0.38643 0.0
O7 O 0.35462 0.03703 0.40608 0.0
O8 O 0.38749 0.82189 0.43046 0.0
O9 O 0.42714 0.00252 0.40339 0.0
C10 C 0.44141 0.98449 0.42259 0.0
O11 O 0.43085 0.94103 0.44234 0.0
O12 O 0.38567 0.89158 0.36098 0.0
Mg13 Mg 0.65037 0.00688 0.40322 0.0
C14 C 0.64271 0.10727 0.45431 0.0
O15 O 0.61814 0.10077 0.44732 0.0
C16 C 0.65793 0.00198 0.34866 0.0
O17 O 0.65366 0.90805 0.35551 0.0
C18 C 0.70149 0.91946 0.4035 0.0
O19 O 0.70423 0.01813 0.40253 0.0
O20 O 0.67843 0.88347 0.4044 0.0
O21 O 0.66042 0.08636 0.43826 0.0
O22 O 0.60861 0.97127 0.40479 0.0
C23 C 0.59363 0.01953 0.38978 0.0
O24 O 0.60407 0.08119 0.37326 0.0
O25 O 0.6581 0.07022 0.36574 0.0
Mg26 Mg 0.38911 0.02131 0.14057 0.0
C27 C 0.37366 0.12466 0.09159 0.0
O28 O 0.35233 0.07172 0.09521 0.0
C29 C 0.38684 -0.00403 0.19499 0.0
O30 O 0.38932 0.90477 0.18542 0.0
C31 C 0.35271 0.83168 0.13501 0.0
O32 O 0.37355 0.77568 0.1389 0.0
O33 O 0.35488 0.92722 0.13441 0.0
O34 O 0.39056 0.12894 0.10926 0.0
O35 O 0.42795 0.9542 0.13883 0.0
C36 C 0.44524 0.02281 0.14117 0.0
O37 O 0.43739 0.11666 0.14427 0.0
O38 O 0.38593 0.07077 0.17984 0.0
Mg39 Mg 0.65872 0.02233 0.14282 0.0
C40 C 0.67826 0.9363 0.09249 0.0
O41 O 0.69717 0.00122 0.09651 0.0
C42 C 0.66379 0.0328 0.19785 0.0
O43 O 0.66149 0.12718 0.19048 0.0
C44 C 0.71108 0.11785 0.1431 0.0
O45 O 0.71633 0.02385 0.14932 0.0
O46 O 0.68742 0.1428 0.13895 0.0
O47 O 0.66134 0.92223 0.10975 0.0
O48 O 0.6182 0.07229 0.14197 0.0
C49 C 0.60149 0.00107 0.14124 0.0
O50 O 0.60994 0.90723 0.14094 0.0
O51 O 0.66392 0.96352 0.18106 0.0
Mg52 Mg 0.65714 0.87975 0.6421 0.0
C53 C 0.68289 0.96315 0.59416 0.0
O54 O 0.70026 0.89301 0.59941 0.0
C55 C 0.65647 0.02136 0.68887 0.0
O56 O 0.64272 0.08176 0.67433 0.0
C57 C 0.69412 0.71022 0.65789 0.0
O58 O 0.68552 0.73781 0.68021 0.0
O59 O 0.68375 0.74965 0.63833 0.0
O60 O 0.66447 0.97945 0.60976 0.0
O61 O 0.61458 0.85518 0.64093 0.0
C62 C 0.60142 0.93228 0.63389 0.0
O63 O 0.61416 0.01439 0.6275 0.0
O64 O 0.66543 0.93952 0.67975 0.0
Mg65 Mg 0.39034 0.93187 0.64266 0.0
C66 C 0.39414 0.8065 0.59468 0.0
O67 O 0.41877 0.83247 0.59698 0.0
C68 C 0.38575 0.97842 0.69578 0.0
O69 O 0.38984 0.06426 0.68401 0.0
C70 C 0.33892 0.02222 0.63672 0.0
O71 O 0.33535 0.92402 0.63791 0.0
O72 O 0.3623 0.05558 0.63731 0.0
O73 O 0.3785 0.82669 0.61269 0.0
O74 O 0.43271 0.95532 0.63955 0.0
C75 C 0.4458 0.88143 0.64854 0.0
O76 O 0.43289 0.80544 0.65841 0.0
O77 O 0.38444 0.89765 0.68264 0.0
Mg78 Mg 0.66612 0.03734 0.89421 0.0
C79 C 0.66208 0.92471 0.94448 0.0
O80 O 0.63707 0.93996 0.94053 0.0
C81 C 0.66615 0.04417 0.83959 0.0
O82 O 0.659 0.1343 0.84747 0.0
C83 C 0.71621 0.14701 0.89289 0.0
O84 O 0.72304 0.05173 0.89034 0.0
O85 O 0.69203 0.16815 0.8952 0.0
O86 O 0.67827 0.94877 0.92726 0.0
O87 O 0.62446 0.07273 0.89704 0.0
C88 C 0.60862 0.00043 0.89276 0.0
O89 O 0.61816 0.91091 0.88713 0.0
O90 O 0.67133 0.97702 0.85611 0.0
Mg91 Mg 0.39516 0.95128 0.89863 0.0
C92 C 0.39961 0.08094 0.94585 0.0
O93 O 0.42354 0.04529 0.94492 0.0
C94 C 0.39115 0.901 0.8456 0.0
O95 O 0.39626 0.81638 0.85761 0.0
C96 C 0.34382 0.86068 0.90337 0.0
O97 O 0.33971 0.95669 0.89839 0.0
O98 O 0.36734 0.82991 0.90541 0.0
O99 O 0.38417 0.06268 0.9275 0.0
O100 O 0.43666 0.91413 0.90198 0.0
C101 C 0.45238 0.98558 0.89667 0.0
O102 O 0.44264 0.07393 0.8903 0.0
O103 O 0.38913 0.98211 0.85852 0.0
Mg104 Mg 0.89356 0.57166 0.38927 0.0
C105 C 0.89793 0.55404 0.44191 0.0
O106 O 0.90444 0.64632 0.4353 0.0
C107 C 0.88366 0.56374 0.33672 0.0
O108 O 0.88646 0.6591 0.34316 0.0
C109 C 0.84129 0.65179 0.39491 0.0
O110 O 0.83886 0.55292 0.395 0.0
O111 O 0.86408 0.68922 0.3927 0.0
O112 O 0.89115 0.4922 0.4247 0.0
O113 O 0.93465 0.61123 0.3866 0.0
C114 C 0.94906 0.5331 0.38883 0.0
O115 O 0.93774 0.44511 0.39221 0.0
O116 O 0.88501 0.49704 0.35395 0.0
Mg117 Mg 0.15947 0.44983 0.40276 0.0
C118 C 0.14231 0.56482 0.44995 0.0
O119 O 0.11923 0.54804 0.43999 0.0
C120 C 0.1685 0.42297 0.3497 0.0
O121 O 0.16514 0.33336 0.35983 0.0
C122 C 0.21066 0.36838 0.41691 0.0
O123 O 0.21213 0.46525 0.4222 0.0
O124 O 0.18903 0.33329 0.40884 0.0
O125 O 0.16258 0.5444 0.43694 0.0
O126 O 0.11867 0.40421 0.40003 0.0
C127 C 0.1044 0.47169 0.38975 0.0
O128 O 0.11564 0.5543 0.3814 0.0
O129 O 0.16798 0.50003 0.36424 0.0
Mg130 Mg 0.89531 0.53073 0.13296 0.0
C131 C 0.87545 0.64588 0.08676 0.0
O132 O 0.85493 0.58778 0.08974 0.0
C133 C 0.88724 0.51998 0.18701 0.0
O134 O 0.88984 0.42537 0.17983 0.0
C135 C 0.84244 0.44036 0.13375 0.0
O136 O 0.83814 0.53359 0.14129 0.0
O137 O 0.86563 0.41449 0.12789 0.0
O138 O 0.8938 0.642 0.10292 0.0
O139 O 0.93549 0.47662 0.13341 0.0
C140 C 0.95287 0.54539 0.13404 0.0
O141 O 0.94534 0.6404 0.13397 0.0
O142 O 0.88858 0.58912 0.17042 0.0
Mg143 Mg 0.16459 0.49359 0.14712 0.0
C144 C 0.17858 0.37674 0.09971 0.0
O145 O 0.19992 0.43101 0.1019 0.0
C146 C 0.16573 0.535 0.20104 0.0
O147 O 0.16318 0.62307 0.18986 0.0
C148 C 0.20186 0.67612 0.13641 0.0
O149 O 0.18092 0.73364 0.13671 0.0
O150 O 0.19958 0.58153 0.13971 0.0
O151 O 0.1623 0.3768 0.11787 0.0
O152 O 0.12653 0.56568 0.14295 0.0
C153 C 0.1084 0.5002 0.14474 0.0
O154 O 0.115 0.40573 0.14905 0.0
O155 O 0.16697 0.45599 0.18725 0.0
Mg156 Mg 0.14541 0.37952 0.64192 0.0
C157 C 0.1689 0.48852 0.59613 0.0
O158 O 0.19064 0.45449 0.60617 0.0
C159 C 0.15254 0.38779 0.69678 0.0
O160 O 0.15029 0.29114 0.69145 0.0
C161 C 0.19961 0.29584 0.646 0.0
O162 O 0.20214 0.38644 0.65589 0.0
O163 O 0.177 0.26743 0.63868 0.0
O164 O 0.14751 0.47521 0.60794 0.0
O165 O 0.10507 0.32258 0.64459 0.0
C166 C 0.08937 0.32551 0.62591 0.0
O167 O 0.09844 0.35201 0.60372 0.0
O168 O 0.15161 0.45106 0.67866 0.0
Mg169 Mg 0.89509 0.51607 0.64553 0.0
C170 C 0.90271 0.5032 0.59157 0.0
O171 O 0.89761 0.41029 0.59876 0.0
C172 C 0.88654 0.65468 0.69046 0.0
O173 O 0.86195 0.63567 0.68519 0.0
C174 C 0.83891 0.52989 0.629 0.0
O175 O 0.85123 0.57899 0.61115 0.0
O176 O 0.85237 0.48758 0.64637 0.0
O177 O 0.90365 0.57246 0.60824 0.0
O178 O 0.925 0.39676 0.64825 0.0
C179 C 0.94101 0.39613 0.66671 0.0
O180 O 0.93559 0.451 0.68672 0.0
O181 O 0.90416 0.62182 0.67567 0.0
Mg182 Mg 0.15571 0.47314 0.90182 0.0
C183 C 0.15032 0.37137 0.95344 0.0
O184 O 0.1262 0.40418 0.95117 0.0
C185 C 0.15885 0.46877 0.84647 0.0
O186 O 0.15611 0.56498 0.85209 0.0
C187 C 0.20819 0.56124 0.90456 0.0
O188 O 0.21225 0.46324 0.90567 0.0
O189 O 0.18476 0.59319 0.90282 0.0
O190 O 0.16589 0.38161 0.9349 0.0
O191 O 0.11495 0.52213 0.90382 0.0
C192 C 0.09816 0.45286 0.89994 0.0
O193 O 0.10654 0.3604 0.89574 0.0
O194 O 0.15992 0.40507 0.86447 0.0
Mg195 Mg 0.89178 0.61778 0.89069 0.0
C196 C 0.8934 0.72621 0.94165 0.0
O197 O 0.91871 0.72189 0.9379 0.0
C198 C 0.90141 0.68652 0.83766 0.0
O199 O 0.92308 0.63663 0.84228 0.0
C200 C 0.84181 0.5073 0.89039 0.0
O201 O 0.8348 0.60275 0.89175 0.0
O202 O 0.8661 0.48627 0.88937 0.0
O203 O 0.87809 0.69674 0.92423 0.0
O204 O 0.93343 0.58024 0.89449 0.0
C205 C 0.95025 0.65087 0.89294 0.0
O206 O 0.94205 0.74371 0.88899 0.0
O207 O 0.88468 0.69621 0.85522 0.0
H208 H 0.33881 0.81622 0.48919 0.0
H209 H 0.41721 0.74735 0.46467 0.0
H210 H 0.43063 0.72077 0.50837 0.0
H211 H 0.42175 0.74339 0.55368 0.0
H212 H 0.34342 0.81345 0.5782 0.0
H213 H 0.32832 0.81125 0.53448 0.0
C214 C 0.3587 0.79322 0.49333 0.0
C215 C 0.37707 0.78588 0.47362 0.0
C216 C 0.36641 0.7792 0.5186 0.0
C217 C 0.40267 0.75451 0.47938 0.0
C218 C 0.41043 0.73983 0.50445 0.0
C219 C 0.40124 0.75597 0.54952 0.0
C220 C 0.38387 0.78022 0.56924 0.0
C221 C 0.39272 0.75602 0.52425 0.0
C222 C 0.3573 0.79501 0.56348 0.0
C223 C 0.34865 0.79451 0.53841 0.0
H224 H 0.6435 0.07351 0.57265 0.0
H225 H 0.72019 0.95203 0.55745 0.0
H226 H 0.71602 -0.00049 0.51314 0.0
H227 H 0.68846 0.05566 0.47773 0.0
H228 H 0.61092 0.16916 0.49263 0.0
H229 H 0.61777 0.14628 0.53787 0.0
C230 C 0.65954 0.05915 0.55978 0.0
C231 C 0.68203 0.00821 0.56844 0.0
C232 C 0.65678 0.08461 0.5341 0.0
C233 C 0.70256 0.99033 0.55137 0.0
C234 C 0.70017 0.01729 0.52594 0.0
C235 C 0.67327 0.07769 0.49089 0.0
C236 C 0.64912 0.11344 0.48168 0.0
C237 C 0.67705 0.0616 0.51693 0.0
C238 C 0.62965 0.14096 0.49911 0.0
C239 C 0.6335 0.12746 0.52503 0.0
H240 H 0.34256 0.12803 0.04973 0.0
H241 H 0.42169 0.18338 0.07436 0.0
H242 H 0.43617 0.18892 0.03057 0.0
H243 H 0.4276 0.15111 0.98585 0.0
H244 H 0.34863 0.09408 0.96114 0.0
H245 H 0.33288 0.11781 1.00423 0.0
C246 C 0.36288 0.14357 0.04554 0.0
C247 C 0.38105 0.15338 0.06543 0.0
C248 C 0.3712 0.14518 0.02023 0.0
C249 C 0.40725 0.17482 0.05955 0.0
C250 C 0.41562 0.17733 0.03445 0.0
C251 C 0.40686 0.146 0.98978 0.0
C252 C 0.38941 0.11917 0.97031 0.0
C253 C 0.39797 0.15843 1.01471 0.0
C254 C 0.36255 0.11424 0.97571 0.0
C255 C 0.35353 0.1271 1.00044 0.0
H256 H 0.63333 0.85596 0.98406 0.0
H257 H 0.71158 0.94428 0.96359 0.0
H258 H 0.72449 0.94232 1.00797 0.0
H259 H 0.71188 0.93949 0.05275 0.0
H260 H 0.63352 0.85278 0.07324 0.0
H261 H 0.62254 0.8286 0.02877 0.0
C262 C 0.65335 0.87293 0.98924 0.0
C263 C 0.67131 0.90187 0.97048 0.0
C264 C 0.66059 0.87289 1.01488 0.0
C265 C 0.69727 0.92226 0.97756 0.0
C266 C 0.70465 0.92177 1.00301 0.0
C267 C 0.69254 0.91337 0.04754 0.0
C268 C 0.67345 0.89961 0.06636 0.0
C269 C 0.68623 0.90087 0.02187 0.0
C270 C 0.64859 0.86446 0.05923 0.0
C271 C 0.64223 0.85123 0.03374 0.0
H272 H 0.89369 0.37672 0.55219 0.0
H273 H 0.91563 0.68371 0.57006 0.0
H274 H 0.91655 0.72488 0.52517 0.0
H275 H 0.91 0.67519 0.48127 0.0
H276 H 0.8871 0.36965 0.46306 0.0
H277 H 0.88764 0.32626 0.50796 0.0
C278 C 0.89883 0.45254 0.54629 0.0
C279 C 0.90458 0.52714 0.56445 0.0
C280 C 0.89901 0.47593 0.5205 0.0
C281 C 0.9111 0.62502 0.55648 0.0
C282 C 0.91159 0.64861 0.53083 0.0
C283 C 0.90516 0.59888 0.48703 0.0
C284 C 0.89846 0.52571 0.46885 0.0
C285 C 0.90538 0.57488 0.51274 0.0
C286 C 0.89226 0.42735 0.4767 0.0
C287 C 0.89259 0.40257 0.50234 0.0
H288 H 0.12744 0.55356 0.56762 0.0
H289 H 0.21079 0.50524 0.56465 0.0
H290 H 0.21059 0.53769 0.51942 0.0
H291 H 0.18605 0.55888 0.4798 0.0
H292 H 0.10267 0.60644 0.48271 0.0
H293 H 0.10377 0.59711 0.52862 0.0
C294 C 0.14563 0.55181 0.55718 0.0
C295 C 0.169 0.52537 0.5696 0.0
C296 C 0.14541 0.56986 0.53098 0.0
C297 C 0.19242 0.52438 0.55568 0.0
C298 C 0.19235 0.54276 0.5297 0.0
C299 C 0.1682 0.56953 0.49047 0.0
C300 C 0.14428 0.58189 0.47766 0.0
C301 C 0.16885 0.56253 0.517 0.0
C302 C 0.12137 0.59583 0.49194 0.0
C303 C 0.12193 0.59006 0.51828 0.0
H304 H 0.92047 0.78641 0.98317 0.0
H305 H 0.84356 0.69559 0.95857 0.0
H306 H 0.82979 0.67767 1.00235 0.0
H307 H 0.84188 0.66004 0.047 0.0
H308 H 0.91925 0.7461 0.07139 0.0
H309 H 0.93031 0.79506 0.02842 0.0
C310 C 0.90052 0.76477 0.98737 0.0
C311 C 0.88329 0.74018 0.9676 0.0
C312 C 0.89287 0.75247 1.0126 0.0
C313 C 0.85737 0.71394 0.97339 0.0
C314 C 0.84949 0.70307 0.99846 0.0
C315 C 0.86099 0.69144 0.04304 0.0
C316 C 0.87988 0.69706 0.06231 0.0
C317 C 0.86743 0.71773 1.01815 0.0
C318 C 0.90441 0.73955 0.05689 0.0
C319 C 0.91082 0.76727 0.03226 0.0
H320 H 0.20872 0.35705 0.05766 0.0
H321 H 0.12971 0.31936 0.08426 0.0
H322 H 0.1143 0.3018 0.04087 0.0
H323 H 0.12234 0.32256 0.99537 0.0
H324 H 0.20132 0.36074 0.96877 0.0
H325 H 0.21759 0.35132 1.01204 0.0
C326 C 0.1882 0.34278 0.05402 0.0
C327 C 0.17039 0.34122 0.07425 0.0
C328 C 0.17937 0.33408 0.02893 0.0
C329 C 0.14391 0.32141 0.06913 0.0
C330 C 0.13501 0.31209 0.04426 0.0
C331 C 0.14316 0.32689 0.99898 0.0
C332 C 0.1605 0.34401 0.97882 0.0
C333 C 0.15241 0.32228 0.02399 0.0
C334 C 0.18747 0.34805 0.98386 0.0
C335 C 0.19681 0.34325 1.00867 0.0
H336 H 0.56466 0.96696 0.43093 0.0
H337 H 0.55792 0.06387 0.3535 0.0
H338 H 0.51042 0.06716 0.35708 0.0
H339 H 0.47065 0.04184 0.38206 0.0
H340 H 0.47719 0.94817 0.45981 0.0
H341 H 0.52471 0.94608 0.45635 0.0
C342 C 0.55275 0.98781 0.41479 0.0
C343 C 0.56481 0.01424 0.39192 0.0
C344 C 0.52536 0.9915 0.41712 0.0
C345 C 0.54913 0.04288 0.37131 0.0
C346 C 0.52194 0.04513 0.37335 0.0
C347 C 0.48244 0.02202 0.39835 0.0
C348 C 0.47025 -0.00478 0.42115 0.0
C349 C 0.50983 0.02004 0.39619 0.0
C350 C 0.48596 0.96932 0.442 0.0
C351 C 0.51319 0.96752 0.44002 0.0
H352 H 0.48495 0.15762 0.14323 0.0
H353 H 0.46948 0.83777 0.1375 0.0
H354 H 0.5165 0.80333 0.13684 0.0
H355 H 0.56189 0.8644 0.13825 0.0
H356 H 0.57694 0.18473 0.14385 0.0
H357 H 0.53002 0.21855 0.14417 0.0
C358 C 0.49177 0.08017 0.14183 0.0
C359 C 0.47364 0.00029 0.14047 0.0
C360 C 0.51875 0.06111 0.14144 0.0
C361 C 0.48295 0.90062 0.13858 0.0
C362 C 0.50985 0.88095 0.13822 0.0
C363 C 0.55495 0.94173 0.13952 0.0
C364 C 0.57299 0.02198 0.14106 0.0
C365 C 0.52791 0.96065 0.13969 0.0
C366 C 0.56356 0.12157 0.14264 0.0
C367 C 0.53671 0.14096 0.14285 0.0
H368 H 0.56745 0.79136 0.65294 0.0
H369 H 0.56982 0.07849 0.61449 0.0
H370 H 0.52236 0.08913 0.61552 0.0
H371 H 0.47974 0.01878 0.6279 0.0
H372 H 0.47739 0.73235 0.66667 0.0
H373 H 0.52479 0.72023 0.66495 0.0
C374 C 0.55758 0.8559 0.64465 0.0
C375 C 0.57234 0.93383 0.63369 0.0
C376 C 0.53007 0.86226 0.64545 0.0
C377 C 0.5591 0.01721 0.62315 0.0
C378 C 0.53185 0.02362 0.62372 0.0
C379 C 0.48959 0.95381 0.63599 0.0
C380 C 0.47485 0.87691 0.64742 0.0
C381 C 0.51708 0.94697 0.63496 0.0
C382 C 0.48808 0.79308 0.65775 0.0
C383 C 0.51531 0.78579 0.65677 0.0
H384 H 0.57128 0.85512 0.89563 0.0
H385 H 0.58145 0.17877 0.8938 0.0
H386 H 0.53407 0.20224 0.89515 0.0
H387 H 0.4898 0.13084 0.89592 0.0
H388 H 0.4796 0.80738 0.89905 0.0
H389 H 0.52701 0.78388 0.89823 0.0
C390 C 0.56316 0.93089 0.89552 0.0
C391 C 0.57993 0.01512 0.89443 0.0
C392 C 0.5359 0.9438 0.89655 0.0
C393 C 0.56904 0.11267 0.89462 0.0
C394 C 0.54193 0.12612 0.89535 0.0
C395 C 0.49792 0.0551 0.89645 0.0
C396 C 0.48112 0.9709 0.89738 0.0
C397 C 0.52518 0.04224 0.89617 0.0
C398 C 0.49204 0.87346 0.89834 0.0
C399 C 0.51916 0.85999 0.89781 0.0
H400 H 0.98365 0.38208 0.39812 0.0
H401 H 0.97942 0.69658 0.37686 0.0
H402 H 0.0271 0.7035 0.37447 0.0
H403 H 0.06978 0.6207 0.37874 0.0
H404 H 0.07408 0.3076 0.40121 0.0
H405 H 0.02635 0.29955 0.40264 0.0
C406 C 0.9931 0.45228 0.39292 0.0
C407 C 0.97794 0.53877 0.38763 0.0
C408 C 1.02048 0.45579 0.39174 0.0
C409 C 0.99058 0.62904 0.38106 0.0
C410 C 1.01785 0.63294 0.37965 0.0
C411 C 0.06033 0.55036 0.38382 0.0
C412 C 0.07552 0.46462 0.38977 0.0
C413 C 0.03296 0.54679 0.38495 0.0
C414 C 0.06289 0.37455 0.39652 0.0
C415 C 0.0356 0.37001 0.39737 0.0
H416 H 0.06735 0.37145 0.14367 0.0
H417 H 0.08638 0.68866 0.13943 0.0
H418 H 0.0399 0.73014 0.13544 0.0
H419 H 0.99393 0.67598 0.13369 0.0
H420 H 0.97535 0.35818 0.13772 0.0
H421 H 1.02176 0.31733 0.14121 0.0
C422 C 0.06142 0.44985 0.14189 0.0
C423 C 0.08038 0.52694 0.14195 0.0
C424 C 0.03476 0.47294 0.13955 0.0
C425 C 0.07224 0.6279 0.13946 0.0
C426 C 0.04566 0.65159 0.1372 0.0
C427 C 1.0 0.59768 0.13529 0.0
C428 C 0.9811 0.52023 0.13549 0.0
C429 C 0.02675 0.5747 0.13729 0.0
C430 C 0.9894 0.41928 0.13751 0.0
C431 C 1.01595 0.39586 0.13954 0.0
H432 H 0.96616 0.34784 0.62276 0.0
H433 H 0.97715 0.359 0.70345 0.0
H434 H 1.02382 0.32707 0.69816 0.0
H435 H 0.06234 0.316 0.67046 0.0
H436 H 0.0515 0.31319 0.58968 0.0
H437 H 1.00423 0.32092 0.5952 0.0
C438 C 0.97863 0.34089 0.63923 0.0
C439 C 0.96804 0.3562 0.66349 0.0
C440 C 1.0057 0.32535 0.63602 0.0
C441 C 0.98468 0.34787 0.68456 0.0
C442 C 1.01146 0.33007 0.68154 0.0
C443 C 0.04965 0.31528 0.65405 0.0
C444 C 0.06063 0.31482 0.62967 0.0
C445 C 1.02234 0.32181 0.65734 0.0
C446 C 0.04373 0.3142 0.60868 0.0
C447 C 1.01661 0.31877 0.61181 0.0
H448 H 0.07367 0.63693 0.90039 0.0
H449 H 0.05846 0.3162 0.89897 0.0
H450 H 1.01161 0.3484 0.89731 0.0
H451 H 0.97472 0.46734 0.89534 0.0
H452 H 0.98985 0.78813 0.89572 0.0
H453 H 0.03667 0.75608 0.89872 0.0
C454 C 0.0601 0.57412 0.89985 0.0
C455 C 0.06967 0.47435 0.89979 0.0
C456 C 0.03304 0.59307 0.89863 0.0
C457 C 0.05174 0.39388 0.89895 0.0
C458 C 0.02487 0.41213 0.89801 0.0
C459 C 0.98824 0.53025 0.89617 0.0
C460 C 0.97868 0.62995 0.89527 0.0
C461 C 1.01527 0.51138 0.89769 0.0
C462 C 0.99657 0.71051 0.89629 0.0
C463 C 1.02343 0.69233 0.89803 0.0
H464 H 0.21885 0.18215 0.39599 0.0
H465 H 0.25679 0.41565 0.43955 0.0
H466 H 0.29795 0.32302 0.43774 0.0
H467 H 0.32385 0.17899 0.42227 0.0
H468 H 0.28598 0.94651 0.37827 0.0
H469 H 0.24442 0.03528 0.38174 0.0
C470 C 0.23605 0.2121 0.40534 0.0
C471 C 0.2347 0.3058 0.41783 0.0
C472 C 0.25986 0.15905 0.40395 0.0
C473 C 0.25725 0.34385 0.4297 0.0
C474 C 0.28087 0.29103 0.42865 0.0
C475 C 0.30651 0.14774 0.41346 0.0
C476 C 0.30816 0.05643 0.39994 0.0
C477 C 0.28253 0.19925 0.41551 0.0
C478 C 0.2854 0.0168 0.38876 0.0
C479 C 0.26153 0.06747 0.39074 0.0
H480 H 0.75193 0.97995 0.40105 0.0
H481 H 0.70401 0.71215 0.40436 0.0
H482 H 0.74322 0.60621 0.40232 0.0
H483 H 0.7909 0.59021 0.39902 0.0
H484 H 0.83861 0.85858 0.39537 0.0
H485 H 0.79947 0.96411 0.39814 0.0
C486 C 0.74997 0.89837 0.40137 0.0
C487 C 0.72501 0.85404 0.40284 0.0
C488 C 0.77252 0.83822 0.4001 0.0
C489 C 0.72294 0.74822 0.40325 0.0
C490 C 0.74536 0.68768 0.40206 0.0
C491 C 0.7928 0.67182 0.39886 0.0
C492 C 0.81771 0.71643 0.39696 0.0
C493 C 0.77022 0.73194 0.40039 0.0
C494 C 0.81973 0.82227 0.3968 0.0
C495 C 0.79735 0.88263 0.39838 0.0
H496 H 0.24851 0.57698 0.13666 0.0
H497 H 0.21481 0.87528 0.13009 0.0
H498 H 0.25851 0.94865 0.12782 0.0
H499 H 0.30614 0.92886 0.12949 0.0
H500 H 0.33984 0.6309 0.13694 0.0
H501 H 0.29616 0.55669 0.13693 0.0
C502 C 0.25065 0.65808 0.13461 0.0
C503 C 0.22832 0.72054 0.13367 0.0
C504 C 0.27583 0.69984 0.13353 0.0
C505 C 0.23158 0.82538 0.13094 0.0
C506 C 0.25659 0.86743 0.12966 0.0
C507 C 0.30401 0.84755 0.13097 0.0
C508 C 0.32633 0.78563 0.13333 0.0
C509 C 0.27884 0.80548 0.13121 0.0
C510 C 0.32308 0.68046 0.13516 0.0
C511 C 0.29808 0.63795 0.1352 0.0
H512 H 0.76275 0.07715 0.13782 0.0
H513 H 0.70771 0.32408 0.14189 0.0
H514 H 0.74354 0.44544 0.13874 0.0
H515 H 0.79053 0.48111 0.13604 0.0
H516 H 0.84546 0.23417 0.13067 0.0
H517 H 0.80956 0.11288 0.13294 0.0
C518 C 0.75857 0.15755 0.13803 0.0
C519 C 0.7326 0.19158 0.14031 0.0
C520 C 0.77923 0.22674 0.13593 0.0
C521 C 0.72751 0.29594 0.14018 0.0
C522 C 0.74799 0.36533 0.13842 0.0
C523 C 0.79467 0.40074 0.13528 0.0
C524 C 0.82067 0.36674 0.13335 0.0
C525 C 0.77393 0.33155 0.13646 0.0
C526 C 0.82565 0.26238 0.13212 0.0
C527 C 0.80513 0.19298 0.13351 0.0
H528 H 0.7219 0.66265 0.61544 0.0
H529 H 0.72213 0.62387 0.69627 0.0
H530 H 0.766 0.55176 0.69439 0.0
H531 H 0.80661 0.51919 0.67033 0.0
H532 H 0.80624 0.56298 0.58968 0.0
H533 H 0.76037 0.61178 0.59098 0.0
C534 C 0.7313 0.63673 0.63261 0.0
C535 C 0.71871 0.65006 0.65597 0.0
C536 C 0.7568 0.59661 0.63148 0.0
C537 C 0.73132 0.61551 0.67799 0.0
C538 C 0.75653 0.57436 0.67697 0.0
C539 C 0.79628 0.5369 0.653 0.0
C540 C 0.80996 0.53808 0.62998 0.0
C541 C 0.76982 0.56731 0.6539 0.0
C542 C 0.79629 0.56217 0.60771 0.0
C543 C 0.77001 0.59047 0.60841 0.0
H544 H 0.25051 0.35292 0.64966 0.0
H545 H 0.20174 0.09476 0.63368 0.0
H546 H 0.24065 0.98927 0.62832 0.0
H547 H 0.2883 0.96936 0.6294 0.0
H548 H 0.33728 0.22746 0.64478 0.0
H549 H 0.2984 0.3345 0.64884 0.0
C550 C 0.24834 0.27351 0.64503 0.0
C551 C 0.22315 0.23162 0.64231 0.0
C552 C 0.27082 0.21355 0.64176 0.0
C553 C 0.22081 0.12891 0.63597 0.0
C554 C 0.24307 0.06858 0.6329 0.0
C555 C 0.29056 0.04919 0.63352 0.0
C556 C 0.31575 0.09016 0.63691 0.0
C557 C 0.26815 0.10997 0.63591 0.0
C558 C 0.3182 0.19393 0.64203 0.0
C559 C 0.29595 0.25503 0.64447 0.0
H560 H 0.76883 0.12193 0.88918 0.0
H561 H 0.70942 0.3521 0.89655 0.0
H562 H 0.74306 0.48301 0.89632 0.0
H563 H 0.78921 0.53205 0.89401 0.0
H564 H 0.84868 0.30204 0.88681 0.0
H565 H 0.81504 0.17102 0.88697 0.0
C566 C 0.76317 0.20071 0.89074 0.0
C567 C 0.73655 0.22697 0.89288 0.0
C568 C 0.78263 0.2756 0.89061 0.0
C569 C 0.72969 0.32956 0.8949 0.0
C570 C 0.74894 0.40452 0.89475 0.0
C571 C 0.79489 0.45329 0.89245 0.0
C572 C 0.82152 0.42711 0.89037 0.0
C573 C 0.77545 0.37839 0.89261 0.0
C574 C 0.8284 0.32451 0.88842 0.0
C575 C 0.80915 0.24951 0.88852 0.0
H576 H 0.25958 0.51301 0.90973 0.0
H577 H 0.20761 0.76753 0.90008 0.0
H578 H 0.24503 0.88202 0.89952 0.0
H579 H 0.29236 0.90934 0.90087 0.0
H580 H 0.34445 0.65516 0.91033 0.0
H581 H 0.30698 0.54085 0.91197 0.0
C582 C 0.25637 0.59356 0.90755 0.0
C583 C 0.23075 0.63151 0.90487 0.0
C584 C 0.27798 0.6589 0.9072 0.0
C585 C 0.22706 0.73618 0.90215 0.0
C586 C 0.24846 0.80169 0.90181 0.0
C587 C 0.2956 0.82895 0.90336 0.0
C588 C 0.32126 0.79092 0.90541 0.0
C589 C 0.27399 0.7638 0.90419 0.0
C590 C 0.32497 0.68653 0.90871 0.0
C591 C 0.30353 0.62113 0.9096 0.0
H592 H 0.3838 0.11565 0.31063 0.0
H593 H 0.3858 0.791 0.3186 0.0
H594 H 0.38603 0.77228 0.27266 0.0
H595 H 0.38641 0.84789 0.23042 0.0
H596 H 0.38446 0.17246 0.22232 0.0
H597 H 0.38342 0.19131 0.26829 0.0
C598 C 0.38424 0.0406 0.30238 0.0
C599 C 0.38485 0.95472 0.31815 0.0
C600 C 0.38441 0.03047 0.27596 0.0
C601 C 0.38534 0.85831 0.30701 0.0
C602 C 0.3855 0.84761 0.28072 0.0
C603 C 0.38572 0.92297 0.23863 0.0
C604 C 0.38558 0.00877 0.22284 0.0
C605 C 0.38516 0.93314 0.26503 0.0
C606 C 0.3846 0.1052 0.23394 0.0
C607 C 0.38403 0.11597 0.26024 0.0
H608 H 0.66516 0.16668 0.23688 0.0
H609 H 0.66439 0.84676 0.22066 0.0
H610 H 0.66344 0.81002 0.26588 0.0
H611 H 0.66121 0.86861 0.30978 0.0
H612 H 0.66167 0.18836 0.32614 0.0
H613 H 0.66449 0.22525 0.28096 0.0
C614 C 0.6649 0.08875 0.24317 0.0
C615 C 0.66473 0.00951 0.22529 0.0
C616 C 0.66424 0.06824 0.2692 0.0
C617 C 0.66451 0.90918 0.23391 0.0
C618 C 0.66392 0.88816 0.25979 0.0
C619 C 0.66201 0.94656 0.30355 0.0
C620 C 0.66109 0.02571 0.32142 0.0
C621 C 0.66352 0.96709 0.27757 0.0
C622 C 0.66232 0.12603 0.31288 0.0
C623 C 0.66388 0.14711 0.28702 0.0
H624 H 0.65484 0.17415 0.80167 0.0
H625 H 0.6802 0.86782 0.81541 0.0
H626 H 0.68088 0.83544 0.76985 0.0
H627 H 0.67277 0.89309 0.72617 0.0
H628 H 0.64616 0.19861 0.71325 0.0
H629 H 0.6477 0.2324 0.75851 0.0
C630 C 0.66062 0.10016 0.7948 0.0
C631 C 0.66739 0.02339 0.81204 0.0
C632 C 0.66076 0.08202 0.76869 0.0
C633 C 0.67484 0.92822 0.80263 0.0
C634 C 0.67523 0.90973 0.77656 0.0
C635 C 0.66753 0.96739 0.73322 0.0
C636 C 0.65933 0.04327 0.71624 0.0
C637 C 0.66805 0.98593 0.75941 0.0
C638 C 0.65246 0.13878 0.72581 0.0
C639 C 0.6533 0.15815 0.75172 0.0
H640 H 0.38453 0.06096 0.81339 0.0
H641 H 0.392 0.736 0.81487 0.0
H642 H 0.38969 0.72977 0.76902 0.0
H643 H 0.38727 0.81664 0.72801 0.0
H644 H 0.38048 0.14176 0.72653 0.0
H645 H 0.38063 0.14732 0.77245 0.0
C646 C 0.38551 0.98881 0.80368 0.0
C647 C 0.38856 0.89937 0.81767 0.0
C648 C 0.38433 0.98547 0.77712 0.0
C649 C 0.38978 0.80643 0.80469 0.0
C650 C 0.38845 0.80253 0.77838 0.0
C651 C 0.38559 0.88852 0.73775 0.0
C652 C 0.38399 0.97846 0.72375 0.0
C653 C 0.38596 0.89159 0.76433 0.0
C654 C 0.38191 0.07112 0.73675 0.0
C655 C 0.382 0.07459 0.76309 0.0
H656 H 0.8845 0.38817 0.22612 0.0
H657 H 0.88255 0.70682 0.2086 0.0
H658 H 0.87952 0.74714 0.25347 0.0
H659 H 0.87969 0.6926 0.29743 0.0
H660 H 0.88266 0.37458 0.31538 0.0
H661 H 0.88274 0.33315 0.27034 0.0
C662 C 0.88329 0.46649 0.23208 0.0
C663 C 0.88395 0.54447 0.21403 0.0
C664 C 0.88175 0.48913 0.2579 0.0
C665 C 0.88221 0.64543 0.22209 0.0
C666 C 0.88048 0.66853 0.24774 0.0
C667 C 0.8802 0.61404 0.29157 0.0
C668 C 0.88136 0.53673 0.30974 0.0
C669 C 0.88058 0.59105 0.26577 0.0
C670 C 0.88182 0.43546 0.30177 0.0
C671 C 0.88195 0.41182 0.27603 0.0
H672 H 0.16499 0.59213 0.31986 0.0
H673 H 0.17733 0.26955 0.31671 0.0
H674 H 0.17787 0.27481 0.27084 0.0
H675 H 0.17328 0.36938 0.23118 0.0
H676 H 0.16081 0.69189 0.2341 0.0
H677 H 0.16189 0.68787 0.28003 0.0
C678 C 0.16806 0.52327 0.30913 0.0
C679 C 0.17101 0.43072 0.32183 0.0
C680 C 0.16814 0.52639 0.28251 0.0
C681 C 0.17485 0.34204 0.30754 0.0
C682 C 0.17515 0.34473 0.2812 0.0
C683 C 0.17084 0.43876 0.24185 0.0
C684 C 0.16686 0.53052 0.22907 0.0
C685 C 0.17149 0.43622 0.26843 0.0
C686 C 0.16385 0.61983 0.24332 0.0
C687 C 0.16447 0.61782 0.26969 0.0
H688 H 0.1582 0.58943 0.80496 0.0
H689 H 0.16081 0.27603 0.8274 0.0
H690 H 0.15983 0.22426 0.78308 0.0
H691 H 0.1569 0.26776 0.73815 0.0
H692 H 0.1541 0.58105 0.71564 0.0
H693 H 0.15657 0.63305 0.75992 0.0
C694 C 0.15864 0.50968 0.80022 0.0
C695 C 0.15948 0.43668 0.81958 0.0
C696 C 0.15798 0.48049 0.77469 0.0
C697 C 0.16014 0.33382 0.81297 0.0
C698 C 0.15954 0.30418 0.7876 0.0
C699 C 0.1569 0.34756 0.74285 0.0
C700 C 0.1552 0.42042 0.72351 0.0
C701 C 0.15825 0.37683 0.76833 0.0
C702 C 0.15536 0.52336 0.73007 0.0
C703 C 0.15674 0.55312 0.75541 0.0
H704 H 0.85411 0.7106 0.7288 0.0
H705 H 0.9357 0.67951 0.70963 0.0
H706 H 0.94771 0.70129 0.75381 0.0
H707 H 0.93471 0.70257 0.79828 0.0
H708 H 0.85321 0.7293 0.81782 0.0
H709 H 0.84158 0.73747 0.77311 0.0
C710 C 0.87456 0.71069 0.73418 0.0
C711 C 0.89391 0.69129 0.71595 0.0
C712 C 0.88135 0.72133 0.75976 0.0
C713 C 0.92034 0.69304 0.72326 0.0
C714 C 0.92725 0.70504 0.74858 0.0
C715 C 0.91444 0.712 0.79277 0.0
C716 C 0.89483 0.71338 0.81131 0.0
C717 C 0.90787 0.71497 0.76707 0.0
C718 C 0.86869 0.72739 0.80392 0.0
C719 C 0.862 0.73147 0.77833 0.0
loop_
_geom_bond_atom_site_label_1
_geom_bond_atom_site_label_2
_geom_bond_distance
_geom_bond_site_symmetry_2
_ccdc_geom_bond_type
Mg0 O7 2.141 . S
Mg0 O8 2.048 . S
Mg0 O9 2.048 1_545 S
Mg0 O12 2.141 . S
C1 O2 1.313 . S
C1 O8 1.195 . S
O2 C1 1.313 . S
C3 O4 1.245 . S
C3 O12 1.289 . S
O4 C3 1.245 . S
C5 O6 1.245 . S
C5 O7 1.289 . S
O6 C5 1.245 . S
O7 Mg0 2.141 . S
O7 C5 1.289 . S
O8 Mg0 2.048 . S
O8 C1 1.195 . S
O9 Mg0 2.048 1_565 S
O9 C10 1.195 1_565 S
C10 O9 1.195 1_545 S
C10 O11 1.313 . S
O11 C10 1.313 . S
O12 Mg0 2.141 . S
O12 C3 1.289 . S
Mg13 O20 2.141 . S
Mg13 O21 2.048 . S
Mg13 O22 2.048 1_565 S
Mg13 O25 2.141 . S
C14 O15 1.313 . S
C14 O21 1.195 . S
O15 C14 1.313 . S
C16 O17 1.245 . S
C16 O25 1.289 . S
O17 C16 1.245 . S
C18 O19 1.245 . S
C18 O20 1.289 . S
O19 C18 1.245 . S
O20 Mg13 2.141 . S
O20 C18 1.289 . S
O21 Mg13 2.048 . S
O21 C14 1.195 . S
O22 Mg13 2.048 1_545 S
O22 C23 1.195 1_545 S
C23 O22 1.195 1_565 S
C23 O24 1.313 . S
O24 C23 1.313 . S
O25 Mg13 2.141 . S
O25 C16 1.289 . S
Mg26 O33 2.141 . S
Mg26 O34 2.048 . S
Mg26 O35 2.048 1_565 S
Mg26 O38 2.141 . S
C27 O28 1.313 . S
C27 O34 1.195 . S
O28 C27 1.313 . S
C29 O30 1.245 . S
C29 O38 1.289 . S
O30 C29 1.245 . S
C31 O32 1.245 . S
C31 O33 1.289 . S
O32 C31 1.245 . S
O33 Mg26 2.141 . S
O33 C31 1.289 . S
O34 Mg26 2.048 . S
O34 C27 1.195 . S
O35 Mg26 2.048 1_545 S
O35 C36 1.195 1_545 S
C36 O35 1.195 1_565 S
C36 O37 1.313 . S
O37 C36 1.313 . S
O38 Mg26 2.141 . S
O38 C29 1.289 . S
Mg39 O46 2.141 . S
Mg39 O47 2.048 . S
Mg39 O48 2.048 1_545 S
Mg39 O51 2.141 . S
C40 O41 1.313 . S
C40 O47 1.195 . S
O41 C40 1.313 . S
C42 O43 1.245 . S
C42 O51 1.289 . S
O43 C42 1.245 . S
C44 O45 1.245 . S
C44 O46 1.289 . S
O45 C44 1.245 . S
O46 Mg39 2.141 . S
O46 C44 1.289 . S
O47 Mg39 2.048 . S
O47 C40 1.195 . S
O48 Mg39 2.048 1_565 S
O48 C49 1.195 1_565 S
C49 O48 1.195 1_545 S
C49 O50 1.313 . S
O50 C49 1.313 . S
O51 Mg39 2.141 . S
O51 C42 1.289 . S
Mg52 O59 2.141 . S
Mg52 O60 2.048 . S
Mg52 O61 2.048 . S
Mg52 O64 2.141 . S
C53 O54 1.313 1_565 S
C53 O60 1.195 . S
O54 C53 1.313 1_545 S
C55 O56 1.245 1_565 S
C55 O64 1.289 . S
O56 C55 1.245 1_545 S
C57 O58 1.245 . S
C57 O59 1.289 . S
O58 C57 1.245 . S
O59 Mg52 2.141 . S
O59 C57 1.289 . S
O60 Mg52 2.048 . S
O60 C53 1.195 . S
O61 Mg52 2.048 . S
O61 C62 1.195 . S
C62 O61 1.195 . S
C62 O63 1.313 1_565 S
O63 C62 1.313 1_545 S
O64 Mg52 2.141 . S
O64 C55 1.289 . S
Mg65 O72 2.141 . S
Mg65 O73 2.048 . S
Mg65 O74 2.048 . S
Mg65 O77 2.141 . S
C66 O67 1.313 1_545 S
C66 O73 1.195 . S
O67 C66 1.313 1_565 S
C68 O69 1.245 1_545 S
C68 O77 1.289 . S
O69 C68 1.245 1_565 S
C70 O71 1.245 . S
C70 O72 1.289 . S
O71 C70 1.245 . S
O72 Mg65 2.141 . S
O72 C70 1.289 . S
O73 Mg65 2.048 . S
O73 C66 1.195 . S
O74 Mg65 2.048 . S
O74 C75 1.195 . S
C75 O74 1.195 . S
C75 O76 1.313 1_545 S
O76 C75 1.313 1_565 S
O77 Mg65 2.141 . S
O77 C68 1.289 . S
Mg78 O85 2.141 . S
Mg78 O86 2.048 . S
Mg78 O87 2.048 . S
Mg78 O90 2.141 . S
C79 O80 1.313 1_545 S
C79 O86 1.195 . S
O80 C79 1.313 1_565 S
C81 O82 1.245 1_545 S
C81 O90 1.289 . S
O82 C81 1.245 1_565 S
C83 O84 1.245 . S
C83 O85 1.289 . S
O84 C83 1.245 . S
O85 Mg78 2.141 . S
O85 C83 1.289 . S
O86 Mg78 2.048 . S
O86 C79 1.195 . S
O87 Mg78 2.048 . S
O87 C88 1.195 . S
C88 O87 1.195 . S
C88 O89 1.313 1_545 S
O89 C88 1.313 1_565 S
O90 Mg78 2.141 . S
O90 C81 1.289 . S
Mg91 O98 2.141 . S
Mg91 O99 2.048 . S
Mg91 O100 2.048 . S
Mg91 O103 2.141 . S
C92 O93 1.313 1_565 S
C92 O99 1.195 . S
O93 C92 1.313 1_545 S
C94 O95 1.245 1_565 S
C94 O103 1.289 . S
O95 C94 1.245 1_545 S
C96 O97 1.245 . S
C96 O98 1.289 . S
O97 C96 1.245 . S
O98 Mg91 2.141 . S
O98 C96 1.289 . S
O99 Mg91 2.048 . S
O99 C92 1.195 . S
O100 Mg91 2.048 . S
O100 C101 1.195 . S
C101 O100 1.195 . S
C101 O102 1.313 1_565 S
O102 C101 1.313 1_545 S
O103 Mg91 2.141 . S
O103 C94 1.289 . S
Mg104 O111 2.141 . S
Mg104 O112 2.048 . S
Mg104 O113 2.048 . S
Mg104 O116 2.141 . S
C105 O106 1.313 . S
C105 O112 1.195 . S
O106 C105 1.313 . S
C107 O108 1.245 . S
C107 O116 1.289 . S
O108 C107 1.245 . S
C109 O110 1.245 . S
C109 O111 1.289 . S
O110 C109 1.245 . S
O111 Mg104 2.141 . S
O111 C109 1.289 . S
O112 Mg104 2.048 . S
O112 C105 1.195 . S
O113 Mg104 2.048 . S
O113 C114 1.195 . S
C114 O113 1.195 . S
C114 O115 1.313 . S
O115 C114 1.313 . S
O116 Mg104 2.141 . S
O116 C107 1.289 . S
Mg117 O124 2.141 . S
Mg117 O125 2.048 . S
Mg117 O126 2.048 . S
Mg117 O129 2.141 . S
C118 O119 1.313 . S
C118 O125 1.195 . S
O119 C118 1.313 . S
C120 O121 1.245 . S
C120 O129 1.289 . S
O121 C120 1.245 . S
C122 O123 1.245 . S
C122 O124 1.289 . S
O123 C122 1.245 . S
O124 Mg117 2.141 . S
O124 C122 1.289 . S
O125 Mg117 2.048 . S
O125 C118 1.195 . S
O126 Mg117 2.048 . S
O126 C127 1.195 . S
C127 O126 1.195 . S
C127 O128 1.313 . S
O128 C127 1.313 . S
O129 Mg117 2.141 . S
O129 C120 1.289 . S
Mg130 O137 2.141 . S
Mg130 O138 2.048 . S
Mg130 O139 2.048 . S
Mg130 O142 2.141 . S
C131 O132 1.313 . S
C131 O138 1.195 . S
O132 C131 1.313 . S
C133 O134 1.245 . S
C133 O142 1.289 . S
O134 C133 1.245 . S
C135 O136 1.245 . S
C135 O137 1.289 . S
O136 C135 1.245 . S
O137 Mg130 2.141 . S
O137 C135 1.289 . S
O138 Mg130 2.048 . S
O138 C131 1.195 . S
O139 Mg130 2.048 . S
O139 C140 1.195 . S
C140 O139 1.195 . S
C140 O141 1.313 . S
O141 C140 1.313 . S
O142 Mg130 2.141 . S
O142 C133 1.289 . S
Mg143 O150 2.141 . S
Mg143 O151 2.048 . S
Mg143 O152 2.048 . S
Mg143 O155 2.141 . S
C144 O145 1.313 . S
C144 O151 1.195 . S
O145 C144 1.313 . S
C146 O147 1.245 . S
C146 O155 1.289 . S
O147 C146 1.245 . S
C148 O149 1.245 . S
C148 O150 1.289 . S
O149 C148 1.245 . S
O150 Mg143 2.141 . S
O150 C148 1.289 . S
O151 Mg143 2.048 . S
O151 C144 1.195 . S
O152 Mg143 2.048 . S
O152 C153 1.195 . S
C153 O152 1.195 . S
C153 O154 1.313 . S
O154 C153 1.313 . S
O155 Mg143 2.141 . S
O155 C146 1.289 . S
Mg156 O163 2.141 . S
Mg156 O164 2.048 . S
Mg156 O165 2.048 . S
Mg156 O168 2.141 . S
C157 O158 1.313 . S
C157 O164 1.195 . S
O158 C157 1.313 . S
C159 O160 1.245 . S
C159 O168 1.289 . S
O160 C159 1.245 . S
C161 O162 1.245 . S
C161 O163 1.289 . S
O162 C161 1.245 . S
O163 Mg156 2.141 . S
O163 C161 1.289 . S
O164 Mg156 2.048 . S
O164 C157 1.195 . S
O165 Mg156 2.048 . S
O165 C166 1.195 . S
C166 O165 1.195 . S
C166 O167 1.313 . S
O167 C166 1.313 . S
O168 Mg156 2.141 . S
O168 C159 1.289 . S
Mg169 O176 2.141 . S
Mg169 O177 2.048 . S
Mg169 O178 2.048 . S
Mg169 O181 2.141 . S
C170 O171 1.313 . S
C170 O177 1.195 . S
O171 C170 1.313 . S
C172 O173 1.245 . S
C172 O181 1.289 . S
O173 C172 1.245 . S
C174 O175 1.245 . S
C174 O176 1.289 . S
O175 C174 1.245 . S
O176 Mg169 2.141 . S
O176 C174 1.289 . S
O177 Mg169 2.048 . S
O177 C170 1.195 . S
O178 Mg169 2.048 . S
O178 C179 1.195 . S
C179 O178 1.195 . S
C179 O180 1.313 . S
O180 C179 1.313 . S
O181 Mg169 2.141 . S
O181 C172 1.289 . S
Mg182 O189 2.141 . S
Mg182 O190 2.048 . S
Mg182 O191 2.048 . S
Mg182 O194 2.141 . S
C183 O184 1.313 . S
C183 O190 1.195 . S
O184 C183 1.313 . S
C185 O186 1.245 . S
C185 O194 1.289 . S
O186 C185 1.245 . S
C187 O188 1.245 . S
C187 O189 1.289 . S
O188 C187 1.245 . S
O189 Mg182 2.141 . S
O189 C187 1.289 . S
O190 Mg182 2.048 . S
O190 C183 1.195 . S
O191 Mg182 2.048 . S
O191 C192 1.195 . S
C192 O191 1.195 . S
C192 O193 1.313 . S
O193 C192 1.313 . S
O194 Mg182 2.141 . S
O194 C185 1.289 . S
Mg195 O202 2.141 . S
Mg195 O203 2.048 . S
Mg195 O204 2.048 . S
Mg195 O207 2.141 . S
C196 O197 1.313 . S
C196 O203 1.195 . S
O197 C196 1.313 . S
C198 O199 1.245 . S
C198 O207 1.289 . S
O199 C198 1.245 . S
C200 O201 1.245 . S
C200 O202 1.289 . S
O201 C200 1.245 . S
O202 Mg195 2.141 . S
O202 C200 1.289 . S
O203 Mg195 2.048 . S
O203 C196 1.195 . S
O204 Mg195 2.048 . S
O204 C205 1.195 . S
C205 O204 1.195 . S
C205 O206 1.313 . S
O206 C205 1.313 . S
O207 Mg195 2.141 . S
O207 C198 1.289 . S
H208 C214 0.930 . S
H209 C217 0.930 . S
H210 C218 0.930 . S
H211 C219 0.930 1_565 S
H212 C222 0.930 . S
H213 C223 0.930 . S
C214 H208 0.930 . S
C214 C215 1.355 . S
C214 C216 1.415 . S
C215 C214 1.355 . S
C215 C217 1.419 1_545 S
C216 C214 1.415 . S
C216 C221 1.425 . S
C216 C223 1.409 . S
C217 H209 0.930 . S
C217 C215 1.419 1_565 S
C217 C218 1.362 . S
C218 H210 0.930 . S
C218 C217 1.362 . S
C218 C221 1.409 1_565 S
C219 H211 0.930 1_545 S
C219 C220 1.355 . S
C219 C221 1.415 . S
C220 C219 1.355 . S
C220 C222 1.419 . S
C221 C216 1.425 . S
C221 C218 1.409 1_545 S
C221 C219 1.415 . S
C222 H212 0.930 . S
C222 C220 1.419 . S
C222 C223 1.362 . S
C223 H213 0.930 . S
C223 C216 1.409 . S
C223 C222 1.362 . S
H224 C230 0.930 . S
H225 C233 0.930 1_545 S
H226 C234 0.930 . S
H227 C235 0.930 1_545 S
H228 C238 0.930 . S
H229 C239 0.930 . S
C230 H224 0.930 . S
C230 C231 1.355 . S
C230 C232 1.415 . S
C231 C230 1.355 . S
C231 C233 1.419 . S
C232 C230 1.415 . S
C232 C237 1.425 . S
C232 C239 1.409 . S
C233 H225 0.930 1_565 S
C233 C231 1.419 . S
C233 C234 1.362 1_565 S
C234 H226 0.930 . S
C234 C233 1.362 1_545 S
C234 C237 1.409 1_545 S
C235 H227 0.930 1_565 S
C235 C236 1.355 . S
C235 C237 1.415 . S
C236 C235 1.355 . S
C236 C238 1.419 . S
C237 C232 1.425 . S
C237 C234 1.409 1_565 S
C237 C235 1.415 . S
C238 H228 0.930 . S
C238 C236 1.419 . S
C238 C239 1.362 . S
C239 H229 0.930 . S
C239 C232 1.409 . S
C239 C238 1.362 . S
H240 C246 0.930 . S
H241 C249 0.930 1_545 S
H242 C250 0.930 . S
H243 C251 0.930 1_545 S
H244 C254 0.930 . S
H245 C255 0.930 . S
C246 H240 0.930 . S
C246 C247 1.355 . S
C246 C248 1.415 . S
C247 C246 1.355 . S
C247 C249 1.419 . S
C248 C246 1.415 . S
C248 C253 1.425 1_554 S
C248 C255 1.409 1_554 S
C249 H241 0.930 1_565 S
C249 C247 1.419 . S
C249 C250 1.362 1_565 S
C250 H242 0.930 . S
C250 C249 1.362 1_545 S
C250 C253 1.409 1_544 S
C251 H243 0.930 1_565 S
C251 C252 1.355 . S
C251 C253 1.415 . S
C252 C251 1.355 . S
C252 C254 1.419 . S
C253 C248 1.425 1_556 S
C253 C250 1.409 1_566 S
C253 C251 1.415 . S
C254 H244 0.930 . S
C254 C252 1.419 . S
C254 C255 1.362 . S
C255 H245 0.930 . S
C255 C248 1.409 1_556 S
C255 C254 1.362 . S
H256 C262 0.930 1_565 S
H257 C265 0.930 . S
H258 C266 0.930 . S
H259 C267 0.930 . S
H260 C270 0.934 . S
H261 C271 0.930 . S
C262 H256 0.930 1_545 S
C262 C263 1.355 . S
C262 C264 1.415 . S
C263 C262 1.355 . S
C263 C265 1.419 . S
C264 C262 1.415 . S
C264 C269 1.425 1_556 S
C264 C271 1.409 1_546 S
C265 H257 0.930 . S
C265 C263 1.419 . S
C265 C266 1.362 . S
C266 H258 0.930 . S
C266 C265 1.362 . S
C266 C269 1.409 1_556 S
C267 H259 0.930 . S
C267 C268 1.355 . S
C267 C269 1.415 . S
C268 C267 1.355 . S
C268 C270 1.414 1_545 S
C269 C264 1.425 1_554 S
C269 C266 1.409 1_554 S
C269 C267 1.415 . S
C270 H260 0.934 . S
C270 C268 1.414 1_565 S
C270 C271 1.363 . S
C271 H261 0.930 . S
C271 C264 1.409 1_564 S
C271 C270 1.363 . S
H272 C278 0.930 . S
H273 C281 0.930 . S
H274 C282 0.930 . S
H275 C283 0.930 . S
H276 C286 0.930 . S
H277 C287 0.930 . S
C278 H272 0.930 . S
C278 C279 1.355 . S
C278 C280 1.415 . S
C279 C278 1.355 . S
C279 C281 1.419 . S
C280 C278 1.415 . S
C280 C285 1.425 . S
C280 C287 1.409 . S
C281 H273 0.930 . S
C281 C279 1.419 . S
C281 C282 1.362 . S
C282 H274 0.930 . S
C282 C281 1.362 . S
C282 C285 1.409 . S
C283 H275 0.930 . S
C283 C284 1.355 . S
C283 C285 1.415 . S
C284 C283 1.355 . S
C284 C286 1.419 . S
C285 C280 1.425 . S
C285 C282 1.409 . S
C285 C283 1.415 . S
C286 H276 0.930 . S
C286 C284 1.419 . S
C286 C287 1.362 . S
C287 H277 0.930 . S
C287 C280 1.409 . S
C287 C286 1.362 . S
H288 C294 0.930 . S
H289 C297 0.930 . S
H290 C298 0.930 . S
H291 C299 0.930 . S
H292 C302 0.930 . S
H293 C303 0.930 . S
C294 H288 0.930 . S
C294 C295 1.355 . S
C294 C296 1.415 . S
C295 C294 1.355 . S
C295 C297 1.419 . S
C296 C294 1.415 . S
C296 C301 1.425 . S
C296 C303 1.409 . S
C297 H289 0.930 . S
C297 C295 1.419 . S
C297 C298 1.362 . S
C298 H290 0.930 . S
C298 C297 1.362 . S
C298 C301 1.409 . S
C299 H291 0.930 . S
C299 C300 1.355 . S
C299 C301 1.415 . S
C300 C299 1.355 . S
C300 C302 1.419 . S
C301 C296 1.425 . S
C301 C298 1.409 . S
C301 C299 1.415 . S
C302 H292 0.930 . S
C302 C300 1.419 . S
C302 C303 1.362 . S
C303 H293 0.930 . S
C303 C296 1.409 . S
C303 C302 1.362 . S
H304 C310 0.930 . S
H305 C313 0.930 . S
H306 C314 0.930 . S
H307 C315 0.930 . S
H308 C318 0.930 . S
H309 C319 0.930 . S
C310 H304 0.930 . S
C310 C311 1.355 . S
C310 C312 1.415 . S
C311 C310 1.355 . S
C311 C313 1.419 . S
C312 C310 1.415 . S
C312 C317 1.425 1_556 S
C312 C319 1.409 1_556 S
C313 H305 0.930 . S
C313 C311 1.419 . S
C313 C314 1.362 . S
C314 H306 0.930 . S
C314 C313 1.362 . S
C314 C317 1.409 1_556 S
C315 H307 0.930 . S
C315 C316 1.355 . S
C315 C317 1.415 . S
C316 C315 1.355 . S
C316 C318 1.419 . S
C317 C312 1.425 1_554 S
C317 C314 1.409 1_554 S
C317 C315 1.415 . S
C318 H308 0.930 . S
C318 C316 1.419 . S
C318 C319 1.362 . S
C319 H309 0.930 . S
C319 C312 1.409 1_554 S
C319 C318 1.362 . S
H320 C326 0.930 . S
H321 C329 0.930 . S
H322 C330 0.930 . S
H323 C331 0.930 . S
H324 C334 0.930 . S
H325 C335 0.930 . S
C326 H320 0.930 . S
C326 C327 1.355 . S
C326 C328 1.415 . S
C327 C326 1.355 . S
C327 C329 1.419 . S
C328 C326 1.415 . S
C328 C333 1.425 1_554 S
C328 C335 1.409 1_554 S
C329 H321 0.930 . S
C329 C327 1.419 . S
C329 C330 1.362 . S
C330 H322 0.930 . S
C330 C329 1.362 . S
C330 C333 1.409 1_554 S
C331 H323 0.930 . S
C331 C332 1.355 . S
C331 C333 1.415 . S
C332 C331 1.355 . S
C332 C334 1.419 . S
C333 C328 1.425 1_556 S
C333 C330 1.409 1_556 S
C333 C331 1.415 . S
C334 H324 0.930 . S
C334 C332 1.419 . S
C334 C335 1.362 . S
C335 H325 0.930 . S
C335 C328 1.409 1_556 S
C335 C334 1.362 . S
H336 C342 0.930 . S
H337 C345 0.930 . S
H338 C346 0.930 . S
H339 C347 0.930 . S
H340 C350 0.930 . S
H341 C351 0.930 . S
C342 H336 0.930 . S
C342 C343 1.355 1_545 S
C342 C344 1.415 . S
C343 C342 1.355 1_565 S
C343 C345 1.419 . S
C344 C342 1.415 . S
C344 C349 1.425 1_545 S
C344 C351 1.409 . S
C345 H337 0.930 . S
C345 C343 1.419 . S
C345 C346 1.362 . S
C346 H338 0.930 . S
C346 C345 1.362 . S
C346 C349 1.409 . S
C347 H339 0.930 . S
C347 C348 1.355 1_565 S
C347 C349 1.415 . S
C348 C347 1.355 1_545 S
C348 C350 1.419 . S
C349 C344 1.425 1_565 S
C349 C346 1.409 . S
C349 C347 1.415 . S
C350 H340 0.930 . S
C350 C348 1.419 . S
C350 C351 1.362 . S
C351 H341 0.930 . S
C351 C344 1.409 . S
C351 C350 1.362 . S
H352 C358 0.930 . S
H353 C361 0.930 . S
H354 C362 0.930 . S
H355 C363 0.930 . S
H356 C366 0.930 . S
H357 C367 0.930 . S
C358 H352 0.930 . S
C358 C359 1.355 . S
C358 C360 1.415 . S
C359 C358 1.355 . S
C359 C361 1.419 1_565 S
C360 C358 1.415 . S
C360 C365 1.425 1_565 S
C360 C367 1.409 . S
C361 H353 0.930 . S
C361 C359 1.419 1_545 S
C361 C362 1.362 . S
C362 H354 0.930 . S
C362 C361 1.362 . S
C362 C365 1.409 . S
C363 H355 0.930 . S
C363 C364 1.355 . S
C363 C365 1.415 . S
C364 C363 1.355 . S
C364 C366 1.419 1_545 S
C365 C360 1.425 1_545 S
C365 C362 1.409 . S
C365 C363 1.415 . S
C366 H356 0.930 . S
C366 C364 1.419 1_565 S
C366 C367 1.362 . S
C367 H357 0.930 . S
C367 C360 1.409 . S
C367 C366 1.362 . S
H368 C374 0.930 . S
H369 C377 0.930 . S
H370 C378 0.930 . S
H371 C379 0.930 . S
H372 C382 0.930 . S
H373 C383 0.930 . S
C374 H368 0.930 . S
C374 C375 1.355 . S
C374 C376 1.415 . S
C375 C374 1.355 . S
C375 C377 1.419 1_565 S
C376 C374 1.415 . S
C376 C381 1.425 1_565 S
C376 C383 1.409 . S
C377 H369 0.930 . S
C377 C375 1.419 1_545 S
C377 C378 1.362 . S
C378 H370 0.930 . S
C378 C377 1.362 . S
C378 C381 1.409 . S
C379 H371 0.930 . S
C379 C380 1.355 . S
C379 C381 1.415 . S
C380 C379 1.355 . S
C380 C382 1.419 1_545 S
C381 C376 1.425 1_545 S
C381 C378 1.409 . S
C381 C379 1.415 . S
C382 H372 0.930 . S
C382 C380 1.419 1_565 S
C382 C383 1.362 . S
C383 H373 0.930 . S
C383 C376 1.409 . S
C383 C382 1.362 . S
H384 C390 0.930 . S
H385 C393 0.930 . S
H386 C394 0.930 . S
H387 C395 0.930 . S
H388 C398 0.930 . S
H389 C399 0.930 . S
C390 H384 0.930 . S
C390 C391 1.355 1_565 S
C390 C392 1.415 . S
C391 C390 1.355 1_545 S
C391 C393 1.419 . S
C392 C390 1.415 . S
C392 C397 1.425 1_565 S
C392 C399 1.409 . S
C393 H385 0.930 . S
C393 C391 1.419 . S
C393 C394 1.362 . S
C394 H386 0.930 . S
C394 C393 1.362 . S
C394 C397 1.409 . S
C395 H387 0.930 . S
C395 C396 1.355 1_545 S
C395 C397 1.415 . S
C396 C395 1.355 1_565 S
C396 C398 1.419 . S
C397 C392 1.425 1_545 S
C397 C394 1.409 . S
C397 C395 1.415 . S
C398 H388 0.930 . S
C398 C396 1.419 . S
C398 C399 1.362 . S
C399 H389 0.930 . S
C399 C392 1.409 . S
C399 C398 1.362 . S
H400 C406 0.930 . S
H401 C409 0.930 . S
H402 C410 0.930 . S
H403 C411 0.930 . S
H404 C414 0.930 . S
H405 C415 0.930 . S
C406 H400 0.930 . S
C406 C407 1.355 . S
C406 C408 1.415 . S
C407 C406 1.355 . S
C407 C409 1.419 . S
C408 C406 1.415 . S
C408 C413 1.425 1_655 S
C408 C415 1.409 1_655 S
C409 H401 0.930 . S
C409 C407 1.419 . S
C409 C410 1.362 . S
C410 H402 0.930 . S
C410 C409 1.362 . S
C410 C413 1.409 1_655 S
C411 H403 0.930 . S
C411 C412 1.355 . S
C411 C413 1.415 . S
C412 C411 1.355 . S
C412 C414 1.419 . S
C413 C408 1.425 1_455 S
C413 C410 1.409 1_455 S
C413 C411 1.415 . S
C414 H404 0.930 . S
C414 C412 1.419 . S
C414 C415 1.362 . S
C415 H405 0.930 . S
C415 C408 1.409 1_455 S
C415 C414 1.362 . S
H416 C422 0.930 . S
H417 C425 0.930 . S
H418 C426 0.930 . S
H419 C427 0.930 . S
H420 C430 0.930 . S
H421 C431 0.930 . S
C422 H416 0.930 . S
C422 C423 1.355 . S
C422 C424 1.415 . S
C423 C422 1.355 . S
C423 C425 1.419 . S
C424 C422 1.415 . S
C424 C429 1.425 1_455 S
C424 C431 1.409 1_455 S
C425 H417 0.930 . S
C425 C423 1.419 . S
C425 C426 1.362 . S
C426 H418 0.930 . S
C426 C425 1.362 . S
C426 C429 1.409 1_455 S
C427 H419 0.930 . S
C427 C428 1.355 . S
C427 C429 1.415 . S
C428 C427 1.355 . S
C428 C430 1.419 . S
C429 C424 1.425 1_655 S
C429 C426 1.409 1_655 S
C429 C427 1.415 . S
C430 H420 0.930 . S
C430 C428 1.419 . S
C430 C431 1.362 . S
C431 H421 0.930 . S
C431 C424 1.409 1_655 S
C431 C430 1.362 . S
H432 C438 0.930 . S
H433 C441 0.930 . S
H434 C442 0.930 . S
H435 C443 0.930 . S
H436 C446 0.930 . S
H437 C447 0.930 . S
C438 H432 0.930 . S
C438 C439 1.355 . S
C438 C440 1.415 . S
C439 C438 1.355 . S
C439 C441 1.419 . S
C440 C438 1.415 . S
C440 C445 1.425 1_655 S
C440 C447 1.409 1_655 S
C441 H433 0.930 . S
C441 C439 1.419 . S
C441 C442 1.362 . S
C442 H434 0.930 . S
C442 C441 1.362 . S
C442 C445 1.409 1_655 S
C443 H435 0.930 . S
C443 C444 1.355 . S
C443 C445 1.415 . S
C444 C443 1.355 . S
C444 C446 1.419 . S
C445 C440 1.425 1_455 S
C445 C442 1.409 1_455 S
C445 C443 1.415 . S
C446 H436 0.930 . S
C446 C444 1.419 . S
C446 C447 1.362 . S
C447 H437 0.930 . S
C447 C440 1.409 1_455 S
C447 C446 1.362 . S
H448 C454 0.930 . S
H449 C457 0.930 . S
H450 C458 0.930 . S
H451 C459 0.930 . S
H452 C462 0.930 . S
H453 C463 0.930 . S
C454 H448 0.930 . S
C454 C455 1.355 . S
C454 C456 1.415 . S
C455 C454 1.355 . S
C455 C457 1.419 . S
C456 C454 1.415 . S
C456 C461 1.425 1_455 S
C456 C463 1.409 1_455 S
C457 H449 0.930 . S
C457 C455 1.419 . S
C457 C458 1.362 . S
C458 H450 0.930 . S
C458 C457 1.362 . S
C458 C461 1.409 1_455 S
C459 H451 0.930 . S
C459 C460 1.355 . S
C459 C461 1.415 . S
C460 C459 1.355 . S
C460 C462 1.419 . S
C461 C456 1.425 1_655 S
C461 C458 1.409 1_655 S
C461 C459 1.415 . S
C462 H452 0.930 . S
C462 C460 1.419 . S
C462 C463 1.362 . S
C463 H453 0.930 . S
C463 C456 1.409 1_655 S
C463 C462 1.362 . S
H464 C470 0.930 . S
H465 C473 0.930 . S
H466 C474 0.930 . S
H467 C475 0.930 . S
H468 C478 0.930 . S
H469 C479 0.930 . S
C470 H464 0.930 . S
C470 C471 1.355 . S
C470 C472 1.415 . S
C471 C470 1.355 . S
C471 C473 1.419 . S
C472 C470 1.415 . S
C472 C477 1.425 . S
C472 C479 1.409 . S
C473 H465 0.930 . S
C473 C471 1.419 . S
C473 C474 1.362 . S
C474 H466 0.930 . S
C474 C473 1.362 . S
C474 C477 1.409 . S
C475 H467 0.930 . S
C475 C476 1.355 . S
C475 C477 1.415 . S
C476 C475 1.355 . S
C476 C478 1.419 . S
C477 C472 1.425 . S
C477 C474 1.409 . S
C477 C475 1.415 . S
C478 H468 0.930 . S
C478 C476 1.419 . S
C478 C479 1.362 . S
C479 H469 0.930 . S
C479 C472 1.409 . S
C479 C478 1.362 . S
H480 C486 0.930 . S
H481 C489 0.930 . S
H482 C490 0.930 . S
H483 C491 0.930 . S
H484 C494 0.930 . S
H485 C495 0.930 . S
C486 H480 0.930 . S
C486 C487 1.355 . S
C486 C488 1.415 . S
C487 C486 1.355 . S
C487 C489 1.419 . S
C488 C486 1.415 . S
C488 C493 1.425 . S
C488 C495 1.409 . S
C489 H481 0.930 . S
C489 C487 1.419 . S
C489 C490 1.362 . S
C490 H482 0.930 . S
C490 C489 1.362 . S
C490 C493 1.409 . S
C491 H483 0.930 . S
C491 C492 1.355 . S
C491 C493 1.415 . S
C492 C491 1.355 . S
C492 C494 1.419 . S
C493 C488 1.425 . S
C493 C490 1.409 . S
C493 C491 1.415 . S
C494 H484 0.930 . S
C494 C492 1.419 . S
C494 C495 1.362 . S
C495 H485 0.930 . S
C495 C488 1.409 . S
C495 C494 1.362 . S
H496 C502 0.930 . S
H497 C505 0.930 . S
H498 C506 0.930 . S
H499 C507 0.930 . S
H500 C510 0.930 . S
H501 C511 0.930 . S
C502 H496 0.930 . S
C502 C503 1.355 . S
C502 C504 1.415 . S
C503 C502 1.355 . S
C503 C505 1.419 . S
C504 C502 1.415 . S
C504 C509 1.425 . S
C504 C511 1.409 . S
C505 H497 0.930 . S
C505 C503 1.419 . S
C505 C506 1.362 . S
C506 H498 0.930 . S
C506 C505 1.362 . S
C506 C509 1.409 . S
C507 H499 0.930 . S
C507 C508 1.355 . S
C507 C509 1.415 . S
C508 C507 1.355 . S
C508 C510 1.419 . S
C509 C504 1.425 . S
C509 C506 1.409 . S
C509 C507 1.415 . S
C510 H500 0.930 . S
C510 C508 1.419 . S
C510 C511 1.362 . S
C511 H501 0.930 . S
C511 C504 1.409 . S
C511 C510 1.362 . S
H512 C518 0.930 . S
H513 C521 0.930 . S
H514 C522 0.930 . S
H515 C523 0.930 . S
H516 C526 0.930 . S
H517 C527 0.930 . S
C518 H512 0.930 . S
C518 C519 1.355 . S
C518 C520 1.415 . S
C519 C518 1.355 . S
C519 C521 1.419 . S
C520 C518 1.415 . S
C520 C525 1.425 . S
C520 C527 1.409 . S
C521 H513 0.930 . S
C521 C519 1.419 . S
C521 C522 1.362 . S
C522 H514 0.930 . S
C522 C521 1.362 . S
C522 C525 1.409 . S
C523 H515 0.930 . S
C523 C524 1.355 . S
C523 C525 1.415 . S
C524 C523 1.355 . S
C524 C526 1.419 . S
C525 C520 1.425 . S
C525 C522 1.409 . S
C525 C523 1.415 . S
C526 H516 0.930 . S
C526 C524 1.419 . S
C526 C527 1.362 . S
C527 H517 0.930 . S
C527 C520 1.409 . S
C527 C526 1.362 . S
H528 C534 0.930 . S
H529 C537 0.930 . S
H530 C538 0.930 . S
H531 C539 0.930 . S
H532 C542 0.930 . S
H533 C543 0.930 . S
C534 H528 0.930 . S
C534 C535 1.355 . S
C534 C536 1.415 . S
C535 C534 1.355 . S
C535 C537 1.419 . S
C536 C534 1.415 . S
C536 C541 1.425 . S
C536 C543 1.409 . S
C537 H529 0.930 . S
C537 C535 1.419 . S
C537 C538 1.362 . S
C538 H530 0.930 . S
C538 C537 1.362 . S
C538 C541 1.409 . S
C539 H531 0.930 . S
C539 C540 1.355 . S
C539 C541 1.415 . S
C540 C539 1.355 . S
C540 C542 1.419 . S
C541 C536 1.425 . S
C541 C538 1.409 . S
C541 C539 1.415 . S
C542 H532 0.930 . S
C542 C540 1.419 . S
C542 C543 1.362 . S
C543 H533 0.930 . S
C543 C536 1.409 . S
C543 C542 1.362 . S
H544 C550 0.930 . S
H545 C553 0.930 . S
H546 C554 0.930 . S
H547 C555 0.930 . S
H548 C558 0.930 . S
H549 C559 0.930 . S
C550 H544 0.930 . S
C550 C551 1.355 . S
C550 C552 1.415 . S
C551 C550 1.355 . S
C551 C553 1.419 . S
C552 C550 1.415 . S
C552 C557 1.425 . S
C552 C559 1.409 . S
C553 H545 0.930 . S
C553 C551 1.419 . S
C553 C554 1.362 . S
C554 H546 0.930 . S
C554 C553 1.362 . S
C554 C557 1.409 . S
C555 H547 0.930 . S
C555 C556 1.355 . S
C555 C557 1.415 . S
C556 C555 1.355 . S
C556 C558 1.419 . S
C557 C552 1.425 . S
C557 C554 1.409 . S
C557 C555 1.415 . S
C558 H548 0.930 . S
C558 C556 1.419 . S
C558 C559 1.362 . S
C559 H549 0.930 . S
C559 C552 1.409 . S
C559 C558 1.362 . S
H560 C566 0.930 . S
H561 C569 0.930 . S
H562 C570 0.930 . S
H563 C571 0.930 . S
H564 C574 0.930 . S
H565 C575 0.930 . S
C566 H560 0.930 . S
C566 C567 1.355 . S
C566 C568 1.415 . S
C567 C566 1.355 . S
C567 C569 1.419 . S
C568 C566 1.415 . S
C568 C573 1.425 . S
C568 C575 1.409 . S
C569 H561 0.930 . S
C569 C567 1.419 . S
C569 C570 1.362 . S
C570 H562 0.930 . S
C570 C569 1.362 . S
C570 C573 1.409 . S
C571 H563 0.930 . S
C571 C572 1.355 . S
C571 C573 1.415 . S
C572 C571 1.355 . S
C572 C574 1.419 . S
C573 C568 1.425 . S
C573 C570 1.409 . S
C573 C571 1.415 . S
C574 H564 0.930 . S
C574 C572 1.419 . S
C574 C575 1.362 . S
C575 H565 0.930 . S
C575 C568 1.409 . S
C575 C574 1.362 . S
H576 C582 0.930 . S
H577 C585 0.930 . S
H578 C586 0.930 . S
H579 C587 0.930 . S
H580 C590 0.930 . S
H581 C591 0.930 . S
C582 H576 0.930 . S
C582 C583 1.355 . S
C582 C584 1.415 . S
C583 C582 1.355 . S
C583 C585 1.419 . S
C584 C582 1.415 . S
C584 C589 1.425 . S
C584 C591 1.409 . S
C585 H577 0.930 . S
C585 C583 1.419 . S
C585 C586 1.362 . S
C586 H578 0.930 . S
C586 C585 1.362 . S
C586 C589 1.409 . S
C587 H579 0.930 . S
C587 C588 1.355 . S
C587 C589 1.415 . S
C588 C587 1.355 . S
C588 C590 1.419 . S
C589 C584 1.425 . S
C589 C586 1.409 . S
C589 C587 1.415 . S
C590 H580 0.930 . S
C590 C588 1.419 . S
C590 C591 1.362 . S
C591 H581 0.930 . S
C591 C584 1.409 . S
C591 C590 1.362 . S
H592 C598 0.930 . S
H593 C601 0.930 . S
H594 C602 0.930 . S
H595 C603 0.930 . S
H596 C606 0.930 . S
H597 C607 0.930 . S
C598 H592 0.930 . S
C598 C599 1.355 . S
C598 C600 1.415 . S
C599 C598 1.355 . S
C599 C601 1.419 1_545 S
C600 C598 1.415 . S
C600 C605 1.425 1_545 S
C600 C607 1.409 . S
C601 H593 0.930 . S
C601 C599 1.419 1_565 S
C601 C602 1.362 . S
C602 H594 0.930 . S
C602 C601 1.362 . S
C602 C605 1.409 . S
C603 H595 0.930 . S
C603 C604 1.355 . S
C603 C605 1.415 . S
C604 C603 1.355 . S
C604 C606 1.419 1_565 S
C605 C600 1.425 1_565 S
C605 C602 1.409 . S
C605 C603 1.415 . S
C606 H596 0.930 . S
C606 C604 1.419 1_545 S
C606 C607 1.362 . S
C607 H597 0.930 . S
C607 C600 1.409 . S
C607 C606 1.362 . S
H608 C614 0.930 . S
H609 C617 0.930 . S
H610 C618 0.930 . S
H611 C619 0.930 . S
H612 C622 0.930 . S
H613 C623 0.930 . S
C614 H608 0.930 . S
C614 C615 1.355 . S
C614 C616 1.415 . S
C615 C614 1.355 . S
C615 C617 1.419 1_545 S
C616 C614 1.415 . S
C616 C621 1.425 1_545 S
C616 C623 1.409 . S
C617 H609 0.930 . S
C617 C615 1.419 1_565 S
C617 C618 1.362 . S
C618 H610 0.930 . S
C618 C617 1.362 . S
C618 C621 1.409 . S
C619 H611 0.930 . S
C619 C620 1.355 . S
C619 C621 1.415 . S
C620 C619 1.355 . S
C620 C622 1.419 1_565 S
C621 C616 1.425 1_565 S
C621 C618 1.409 . S
C621 C619 1.415 . S
C622 H612 0.930 . S
C622 C620 1.419 1_545 S
C622 C623 1.362 . S
C623 H613 0.930 . S
C623 C616 1.409 . S
C623 C622 1.362 . S
H624 C630 0.930 . S
H625 C633 0.930 . S
H626 C634 0.930 . S
H627 C635 0.930 . S
H628 C638 0.930 . S
H629 C639 0.930 . S
C630 H624 0.930 . S
C630 C631 1.355 . S
C630 C632 1.415 . S
C631 C630 1.355 . S
C631 C633 1.419 1_545 S
C632 C630 1.415 . S
C632 C637 1.425 1_545 S
C632 C639 1.409 . S
C633 H625 0.930 . S
C633 C631 1.419 1_565 S
C633 C634 1.362 . S
C634 H626 0.930 . S
C634 C633 1.362 . S
C634 C637 1.409 . S
C635 H627 0.930 . S
C635 C636 1.355 . S
C635 C637 1.415 . S
C636 C635 1.355 . S
C636 C638 1.419 1_565 S
C637 C632 1.425 1_565 S
C637 C634 1.409 . S
C637 C635 1.415 . S
C638 H628 0.930 . S
C638 C636 1.419 1_545 S
C638 C639 1.362 . S
C639 H629 0.930 . S
C639 C632 1.409 . S
C639 C638 1.362 . S
H640 C646 0.930 . S
H641 C649 0.929 1_545 S
H642 C650 0.930 . S
H643 C651 0.930 . S
H644 C654 0.929 1_565 S
H645 C655 0.930 . S
C646 H640 0.930 . S
C646 C647 1.355 . S
C646 C648 1.415 . S
C647 C646 1.355 . S
C647 C649 1.419 . S
C648 C646 1.415 . S
C648 C653 1.425 1_565 S
C648 C655 1.409 . S
C649 H641 0.929 1_565 S
C649 C647 1.419 . S
C649 C650 1.362 1_565 S
C650 H642 0.930 . S
C650 C649 1.362 1_545 S
C650 C653 1.409 . S
C651 H643 0.930 . S
C651 C652 1.355 . S
C651 C653 1.415 . S
C652 C651 1.355 . S
C652 C654 1.419 . S
C653 C648 1.425 1_545 S
C653 C650 1.409 . S
C653 C651 1.415 . S
C654 H644 0.929 1_545 S
C654 C652 1.419 . S
C654 C655 1.362 1_545 S
C655 H645 0.930 . S
C655 C648 1.409 . S
C655 C654 1.362 1_565 S
H656 C662 0.930 . S
H657 C665 0.930 . S
H658 C666 0.930 . S
H659 C667 0.930 . S
H660 C670 0.930 . S
H661 C671 0.930 . S
C662 H656 0.930 . S
C662 C663 1.355 . S
C662 C664 1.415 . S
C663 C662 1.355 . S
C663 C665 1.419 . S
C664 C662 1.415 . S
C664 C669 1.425 . S
C664 C671 1.409 . S
C665 H657 0.930 . S
C665 C663 1.419 . S
C665 C666 1.362 . S
C666 H658 0.930 . S
C666 C665 1.362 . S
C666 C669 1.409 . S
C667 H659 0.930 . S
C667 C668 1.355 . S
C667 C669 1.415 . S
C668 C667 1.355 . S
C668 C670 1.419 . S
C669 C664 1.425 . S
C669 C666 1.409 . S
C669 C667 1.415 . S
C670 H660 0.930 . S
C670 C668 1.419 . S
C670 C671 1.362 . S
C671 H661 0.930 . S
C671 C664 1.409 . S
C671 C670 1.362 . S
H672 C678 0.930 . S
H673 C681 0.930 . S
H674 C682 0.930 . S
H675 C683 0.930 . S
H676 C686 0.930 . S
H677 C687 0.930 . S
C678 H672 0.930 . S
C678 C679 1.355 . S
C678 C680 1.415 . S
C679 C678 1.355 . S
C679 C681 1.419 . S
C680 C678 1.415 . S
C680 C685 1.425 . S
C680 C687 1.409 . S
C681 H673 0.930 . S
C681 C679 1.419 . S
C681 C682 1.362 . S
C682 H674 0.930 . S
C682 C681 1.362 . S
C682 C685 1.409 . S
C683 H675 0.930 . S
C683 C684 1.355 . S
C683 C685 1.415 . S
C684 C683 1.355 . S
C684 C686 1.419 . S
C685 C680 1.425 . S
C685 C682 1.409 . S
C685 C683 1.415 . S
C686 H676 0.930 . S
C686 C684 1.419 . S
C686 C687 1.362 . S
C687 H677 0.930 . S
C687 C680 1.409 . S
C687 C686 1.362 . S
H688 C694 0.930 . S
H689 C697 0.930 . S
H690 C698 0.930 . S
H691 C699 0.930 . S
H692 C702 0.930 . S
H693 C703 0.930 . S
C694 H688 0.930 . S
C694 C695 1.355 . S
C694 C696 1.415 . S
C695 C694 1.355 . S
C695 C697 1.419 . S
C696 C694 1.415 . S
C696 C701 1.425 . S
C696 C703 1.409 . S
C697 H689 0.930 . S
C697 C695 1.419 . S
C697 C698 1.362 . S
C698 H690 0.930 . S
C698 C697 1.362 . S
C698 C701 1.409 . S
C699 H691 0.930 . S
C699 C700 1.355 . S
C699 C701 1.415 . S
C700 C699 1.355 . S
C700 C702 1.419 . S
C701 C696 1.425 . S
C701 C698 1.409 . S
C701 C699 1.415 . S
C702 H692 0.930 . S
C702 C700 1.419 . S
C702 C703 1.362 . S
C703 H693 0.930 . S
C703 C696 1.409 . S
C703 C702 1.362 . S
H704 C710 0.930 . S
H705 C713 0.930 . S
H706 C714 0.930 . S
H707 C715 0.930 . S
H708 C718 0.930 . S
H709 C719 0.930 . S
C710 H704 0.930 . S
C710 C711 1.355 . S
C710 C712 1.415 . S
C711 C710 1.355 . S
C711 C713 1.419 . S
C712 C710 1.415 . S
C712 C717 1.425 . S
C712 C719 1.409 . S
C713 H705 0.930 . S
C713 C711 1.419 . S
C713 C714 1.362 . S
C714 H706 0.930 . S
C714 C713 1.362 . S
C714 C717 1.409 . S
C715 H707 0.930 . S
C715 C716 1.355 . S
C715 C717 1.415 . S
C716 C715 1.355 . S
C716 C718 1.419 . S
C717 C712 1.425 . S
C717 C714 1.409 . S
C717 C715 1.415 . S
C718 H708 0.930 . S
C718 C716 1.419 . S
C718 C719 1.362 . S
C719 H709 0.930 . S
C719 C712 1.409 . S
C719 C718 1.362 . S
C215 C1 1.519 . S
C220 C66 1.523 . S
C231 C53 1.494 . S
C236 C14 1.508 . S
C247 C27 1.515 . S
C252 C92 1.519 . S
C263 C79 1.524 . S
C268 C40 1.522 . S
C279 C170 1.507 . S
C284 C105 1.524 . S
C295 C157 1.501 . S
C300 C118 1.509 . S
C311 C196 1.524 . S
C316 C131 1.522 . S
C327 C144 1.511 . S
C332 C183 1.511 . S
C343 C23 1.488 . S
C348 C10 1.484 . S
C359 C36 1.504 . S
C364 C49 1.498 . S
C375 C62 1.528 . S
C380 C75 1.521 . S
C391 C88 1.530 . S
C396 C101 1.522 . S
C407 C114 1.485 . S
C412 C127 1.483 . S
C423 C153 1.483 . S
C428 C140 1.486 . S
C439 C179 1.526 . S
C444 C166 1.522 . S
C455 C192 1.523 . S
C460 C205 1.525 . S
C471 C122 1.471 . S
C476 C5 1.474 . S
C487 C18 1.507 . S
C492 C109 1.514 . S
C503 C148 1.471 . S
C508 C31 1.474 . S
C519 C44 1.523 . S
C524 C135 1.520 . S
C535 C57 1.522 . S
C540 C174 1.526 . S
C551 C161 1.530 . S
C556 C70 1.527 . S
C567 C83 1.530 . S
C572 C200 1.527 . S
C583 C187 1.526 . S
C588 C96 1.530 . S
C599 C3 1.531 . S
C604 C29 1.529 . S
C615 C42 1.533 . S
C620 C16 1.533 . S
C631 C81 1.487 . S
C636 C55 1.477 . S
C647 C94 1.508 . S
C652 C68 1.494 . S
C663 C133 1.528 . S
C668 C107 1.527 . S
C679 C120 1.528 . S
C684 C146 1.530 . S
C695 C185 1.525 . S
C700 C159 1.526 . S
C711 C172 1.526 . S
C716 C198 1.526 . S
