# Generated by pormake.
# Topology wku, (7)-cn, num edge types: 1
# Building blocks:
#     Node 0, Type 0, BuildingBlock: OLANEW_clean_sbu_3, # of connection points: 7
#     Node 1, Type 0, BuildingBlock: OLANEW_clean_sbu_3, # of connection points: 7
#     Node 2, Type 0, BuildingBlock: OLANEW_clean_sbu_3, # of connection points: 7
#     Node 3, Type 0, BuildingBlock: OLANEW_clean_sbu_3, # of connection points: 7
#     Node 4, Type 0, BuildingBlock: OLANEW_clean_sbu_3, # of connection points: 7
#     Node 5, Type 0, BuildingBlock: OLANEW_clean_sbu_3, # of connection points: 7
#     Node 6, Type 0, BuildingBlock: OLANEW_clean_sbu_3, # of connection points: 7
#     Node 7, Type 0, BuildingBlock: OLANEW_clean_sbu_3, # of connection points: 7
#     Node 8, Type 0, BuildingBlock: OLANEW_clean_sbu_3, # of connection points: 7
#     Node 9, Type 0, BuildingBlock: OLANEW_clean_sbu_3, # of connection points: 7
#     Node 10, Type 0, BuildingBlock: OLANEW_clean_sbu_3, # of connection points: 7
#     Node 11, Type 0, BuildingBlock: OLANEW_clean_sbu_3, # of connection points: 7
#     Edge 12, Type (0, 0), BuildingBlock: XIVTED_clean_linker_0, # of connection points: 2
#     Edge 13, Type (0, 0), BuildingBlock: XIVTED_clean_linker_0, # of connection points: 2
#     Edge 14, Type (0, 0), BuildingBlock: XIVTED_clean_linker_0, # of connection points: 2
#     Edge 15, Type (0, 0), BuildingBlock: XIVTED_clean_linker_0, # of connection points: 2
#     Edge 16, Type (0, 0), BuildingBlock: XIVTED_clean_linker_0, # of connection points: 2
#     Edge 17, Type (0, 0), BuildingBlock: XIVTED_clean_linker_0, # of connection points: 2
#     Edge 18, Type (0, 0), BuildingBlock: XIVTED_clean_linker_0, # of connection points: 2
#     Edge 19, Type (0, 0), BuildingBlock: XIVTED_clean_linker_0, # of connection points: 2
#     Edge 20, Type (0, 0), BuildingBlock: XIVTED_clean_linker_0, # of connection points: 2
#     Edge 21, Type (0, 0), BuildingBlock: XIVTED_clean_linker_0, # of connection points: 2
#     Edge 22, Type (0, 0), BuildingBlock: XIVTED_clean_linker_0, # of connection points: 2
#     Edge 23, Type (0, 0), BuildingBlock: XIVTED_clean_linker_0, # of connection points: 2
#     Edge 24, Type (0, 0), BuildingBlock: XIVTED_clean_linker_0, # of connection points: 2
#     Edge 25, Type (0, 0), BuildingBlock: XIVTED_clean_linker_0, # of connection points: 2
#     Edge 26, Type (0, 0), BuildingBlock: XIVTED_clean_linker_0, # of connection points: 2
#     Edge 27, Type (0, 0), BuildingBlock: XIVTED_clean_linker_0, # of connection points: 2
#     Edge 28, Type (0, 0), BuildingBlock: XIVTED_clean_linker_0, # of connection points: 2
#     Edge 29, Type (0, 0), BuildingBlock: XIVTED_clean_linker_0, # of connection points: 2
#     Edge 30, Type (0, 0), BuildingBlock: XIVTED_clean_linker_0, # of connection points: 2
#     Edge 31, Type (0, 0), BuildingBlock: XIVTED_clean_linker_0, # of connection points: 2
#     Edge 32, Type (0, 0), BuildingBlock: XIVTED_clean_linker_0, # of connection points: 2
#     Edge 33, Type (0, 0), BuildingBlock: XIVTED_clean_linker_0, # of connection points: 2
#     Edge 34, Type (0, 0), BuildingBlock: XIVTED_clean_linker_0, # of connection points: 2
#     Edge 35, Type (0, 0), BuildingBlock: XIVTED_clean_linker_0, # of connection points: 2
#     Edge 36, Type (0, 0), BuildingBlock: XIVTED_clean_linker_0, # of connection points: 2
#     Edge 37, Type (0, 0), BuildingBlock: XIVTED_clean_linker_0, # of connection points: 2
#     Edge 38, Type (0, 0), BuildingBlock: XIVTED_clean_linker_0, # of connection points: 2
#     Edge 39, Type (0, 0), BuildingBlock: XIVTED_clean_linker_0, # of connection points: 2
#     Edge 40, Type (0, 0), BuildingBlock: XIVTED_clean_linker_0, # of connection points: 2
#     Edge 41, Type (0, 0), BuildingBlock: XIVTED_clean_linker_0, # of connection points: 2
#     Edge 42, Type (0, 0), BuildingBlock: XIVTED_clean_linker_0, # of connection points: 2
#     Edge 43, Type (0, 0), BuildingBlock: XIVTED_clean_linker_0, # of connection points: 2
#     Edge 44, Type (0, 0), BuildingBlock: XIVTED_clean_linker_0, # of connection points: 2
#     Edge 45, Type (0, 0), BuildingBlock: XIVTED_clean_linker_0, # of connection points: 2
#     Edge 46, Type (0, 0), BuildingBlock: XIVTED_clean_linker_0, # of connection points: 2
#     Edge 47, Type (0, 0), BuildingBlock: XIVTED_clean_linker_0, # of connection points: 2
#     Edge 48, Type (0, 0), BuildingBlock: XIVTED_clean_linker_0, # of connection points: 2
#     Edge 49, Type (0, 0), BuildingBlock: XIVTED_clean_linker_0, # of connection points: 2
#     Edge 50, Type (0, 0), BuildingBlock: XIVTED_clean_linker_0, # of connection points: 2
#     Edge 51, Type (0, 0), BuildingBlock: XIVTED_clean_linker_0, # of connection points: 2
#     Edge 52, Type (0, 0), BuildingBlock: XIVTED_clean_linker_0, # of connection points: 2
#     Edge 53, Type (0, 0), BuildingBlock: XIVTED_clean_linker_0, # of connection points: 2
# Relax obj value: 0.106
# Max RMSD: 0.199
# Mean RMSD: 0.198
data_MOF--net-wku--node1-OLANEW_clean_sbu_3--edge1-XIVTED_clean_linker_0
_symmetry_space_group_name_H-M    P1
_symmetry_Int_Tables_number       1
_symmetry_cell_setting            triclinic
loop_
_symmetry_equiv_pos_as_xyz
'x, y, z'
_cell_length_a     31.539897
_cell_length_b     31.589047
_cell_length_c     124.19131
_cell_angle_alpha  89.945239
_cell_angle_beta   90.10358
_cell_angle_gamma 119.78477
loop_
_atom_site_label
_atom_site_type_symbol
_atom_site_fract_x
_atom_site_fract_y
_atom_site_fract_z
_atom_type_partial_charge
C0 C 0.24806 0.36314 0.05836 0.0
C1 C 0.20212 0.32678 0.0548 0.0
C2 C 0.19999 0.28971 0.04804 0.0
C3 C 0.24313 0.2895 0.04505 0.0
C4 C 0.28769 0.32701 0.04894 0.0
N5 N 0.28735 0.36089 0.05531 0.0
C6 C 0.33725 0.33593 0.04669 0.0
C7 C 0.42542 0.39656 0.04859 0.0
C8 C 0.44622 0.3667 0.05035 0.0
C9 C 0.49509 0.38324 0.04777 0.0
C10 C 0.52351 0.42933 0.04322 0.0
C11 C 0.50271 0.45839 0.041 0.0
C12 C 0.45389 0.44198 0.0436 0.0
Cd13 Cd 0.33707 0.28137 0.0218 0.0
Cd14 Cd 0.25159 0.26081 1.0092 0.0
C15 C 0.32047 0.45246 0.07944 0.0
C16 C 0.35924 0.52465 0.09095 0.0
C17 C 0.33506 0.49515 0.09988 0.0
C18 C 0.30259 0.4451 0.09875 0.0
C19 C 0.2969 0.42373 0.08856 0.0
C20 C 0.35097 0.50305 0.08067 0.0
Co21 Co 0.34653 0.40974 0.06031 0.0
N22 N 0.34893 0.37263 0.07252 0.0
N23 N 0.4054 0.45944 0.06531 0.0
C24 C 0.41982 0.4519 0.07486 0.0
C25 C 0.45933 0.49108 0.08 0.0
C26 C 0.48077 0.53727 0.07495 0.0
C27 C 0.46178 0.54366 0.06514 0.0
C28 C 0.42215 0.50274 0.0605 0.0
N29 N 0.35283 0.45575 0.04919 0.0
N30 N 0.37464 0.37909 0.05091 0.0
N31 N 0.308 0.43054 0.06888 0.0
O32 O 0.28515 0.25229 0.99289 0.0
O33 O 0.33675 0.24501 1.00366 0.0
C34 C 0.43825 0.33845 0.01947 0.0
O35 O 0.409 0.34898 1.0147 0.0
O36 O 0.42002 0.30044 0.02536 0.0
C37 C 0.23726 0.16513 0.02213 0.0
O38 O 0.28308 0.19138 0.02385 0.0
O39 O 0.21319 0.18415 0.01829 0.0
C40 C 0.38789 0.40238 0.07897 0.0
O41 O 0.39891 0.38609 0.08768 0.0
O42 O 0.2992 0.33134 0.02107 0.0
O43 O 0.2366 0.32696 1.01255 0.0
C44 C 0.39187 0.50078 0.05127 0.0
O45 O 0.40306 0.53874 0.0451 0.0
C46 C 0.3206 0.44518 0.04026 0.0
C47 C 0.31847 0.41281 0.03248 0.0
C48 C 0.27987 0.39232 0.02509 0.0
C49 C 0.24745 0.41033 0.0245 0.0
C50 C 0.25317 0.44769 0.03151 0.0
C51 C 0.28881 0.46389 0.03967 0.0
C52 C 0.31768 0.24041 0.99434 0.0
O53 O 0.34432 0.30173 0.04161 0.0
C54 C 0.27214 0.34938 0.01896 0.0
C55 C 0.33104 0.32132 0.07215 0.0
C56 C 0.28095 0.28774 0.07227 0.0
C57 C 0.26468 0.23822 0.07076 0.0
C58 C 0.29833 0.22208 0.06941 0.0
C59 C 0.34888 0.2555 0.0698 0.0
C60 C 0.36455 0.30492 0.07106 0.0
C61 C 0.2598 0.40337 0.0659 0.0
O62 O 0.22525 0.40802 0.07073 0.0
H63 H 0.16909 0.32664 0.0572 0.0
H64 H 0.16499 0.26116 0.04516 0.0
H65 H 0.24163 0.26138 0.03982 0.0
H66 H 0.42477 0.33032 0.05354 0.0
H67 H 0.56128 0.44204 0.04119 0.0
H68 H 0.4382 0.46401 0.04125 0.0
H69 H 0.33776 0.51218 0.10761 0.0
H70 H 0.27201 0.38499 0.08756 0.0
H71 H 0.36656 0.52564 0.07363 0.0
H72 H 0.47226 0.48661 0.08777 0.0
H73 H 0.51096 0.56836 0.07881 0.0
H74 H 0.4765 0.57944 0.06154 0.0
H75 H 0.3458 0.40174 0.0326 0.0
H76 H 0.21874 0.39623 0.01848 0.0
H77 H 0.29164 0.49058 0.04553 0.0
H78 H 0.25459 0.29976 0.07339 0.0
H79 H 0.28466 0.18327 0.06872 0.0
H80 H 0.40327 0.33106 0.07131 0.0
C81 C 0.87339 0.24898 0.22468 0.0
C82 C 0.86643 0.20363 0.22135 0.0
C83 C 0.90189 0.20296 0.21451 0.0
C84 C 0.94315 0.24696 0.21119 0.0
C85 C 0.94769 0.29084 0.2149 0.0
N86 N 0.91311 0.28919 0.22134 0.0
C87 C -0.01426 0.34084 0.21229 0.0
C88 C 0.0104 0.42825 0.21438 0.0
C89 C 0.06088 0.44937 0.2163 0.0
C90 C 0.09253 0.49857 0.21401 0.0
C91 C 0.07433 0.52702 0.2096 0.0
C92 C 0.0246 0.506 0.20729 0.0
C93 C -0.00717 0.45683 0.20961 0.0
Cd94 Cd 0.03552 0.34035 0.18674 0.0
Cd95 Cd 0.96599 0.24854 0.17143 0.0
C96 C 0.84802 0.32047 0.24467 0.0
C97 C 0.80339 0.35169 0.25484 0.0
C98 C 0.81313 0.33419 0.26436 0.0
C99 C 0.83789 0.30766 0.26419 0.0
C100 C 0.85683 0.30261 0.25433 0.0
C101 C 0.82013 0.34399 0.24494 0.0
Co102 Co 0.91967 0.34763 0.22589 0.0
N103 N 0.96058 0.35387 0.2382 0.0
N104 N 0.92463 0.40549 0.23056 0.0
C105 C 0.94302 0.41935 0.24044 0.0
C106 C 0.93801 0.45597 0.24561 0.0
C107 C 0.91143 0.47492 0.24028 0.0
C108 C 0.88916 0.4559 0.23022 0.0
C109 C 0.89573 0.41919 0.22558 0.0
N110 N 0.87823 0.35021 0.21459 0.0
N111 N -0.02205 0.37723 0.21643 0.0
N112 N 0.86101 0.30753 0.23455 0.0
O113 O 0.01588 0.29782 0.15706 0.0
O114 O 0.07366 0.34478 0.1686 0.0
C115 C 0.07949 0.44186 0.18528 0.0
O116 O 0.03869 0.41405 0.18076 0.0
O117 O 0.09977 0.42195 0.19049 0.0
C118 C 0.05049 0.23951 0.18626 0.0
O119 O 0.06956 0.28469 0.18859 0.0
O120 O 0.00947 0.21698 0.18146 0.0
C121 C 0.96224 0.38927 0.2449 0.0
O122 O -0.01516 0.39943 0.25425 0.0
O123 O 0.94796 0.2976 0.18511 0.0
O124 O 0.88809 0.23885 0.17625 0.0
C125 C 0.86959 0.38793 0.21637 0.0
O126 O 0.84128 0.39663 0.21005 0.0
C127 C 0.85696 0.31682 0.20585 0.0
C128 C 0.88714 0.31468 0.19804 0.0
C129 C 0.86832 0.27871 0.19008 0.0
C130 C 0.81771 0.24859 0.18916 0.0
C131 C 0.78643 0.25417 0.19633 0.0
C132 C 0.8063 0.28733 0.20491 0.0
C133 C 0.06 0.32949 0.159 0.0
O134 O 0.02627 0.3493 0.2067 0.0
C135 C 0.90254 0.272 0.18329 0.0
C136 C 0.00159 0.34581 0.23801 0.0
C137 C -0.00461 0.29878 0.23806 0.0
C138 C 0.03585 0.29248 0.2396 0.0
C139 C 0.08206 0.33277 0.2416 0.0
C140 C 0.0882 0.38006 0.24201 0.0
C141 C 0.04869 0.38607 0.23918 0.0
C142 C 0.84332 0.25931 0.23206 0.0
O143 O 0.80552 0.22411 0.23707 0.0
H144 H 0.835 0.16998 0.22396 0.0
H145 H 0.8974 0.16845 0.21178 0.0
H146 H 0.97011 0.24658 0.20588 0.0
H147 H 0.07604 0.42786 0.21947 0.0
H148 H 0.09886 0.56505 0.20779 0.0
H149 H 0.95514 0.44102 0.20726 0.0
H150 H 0.79656 0.33684 0.27178 0.0
H151 H 0.87625 0.28237 0.25402 0.0
H152 H 0.80982 0.35434 0.23749 0.0
H153 H 0.95252 0.46828 0.25362 0.0
H154 H 0.9063 0.50272 0.24415 0.0
H155 H 0.86603 0.46799 0.22645 0.0
H156 H 0.9256 0.34104 0.19825 0.0
H157 H 0.80268 0.22208 0.1827 0.0
H158 H 0.7826 0.29061 0.21075 0.0
H159 H 0.95947 0.26707 0.23732 0.0
H160 H 0.11162 0.32619 0.24368 0.0
H161 H 0.05348 0.42248 0.23902 0.0
C162 C 0.60617 0.87862 0.391 0.0
C163 C 0.64596 0.8738 0.38768 0.0
C164 C 0.68166 0.91081 0.38107 0.0
C165 C 0.6771 0.95143 0.37795 0.0
C166 C 0.63639 0.95378 0.3816 0.0
N167 N 0.60413 0.91794 0.38789 0.0
C168 C 0.62219 -0.00945 0.37905 0.0
C169 C 0.55519 0.0098 0.38074 0.0
C170 C 0.58087 0.06003 0.38305 0.0
C171 C 0.56076 0.08947 0.38049 0.0
C172 C 0.51521 0.06929 0.37546 0.0
C173 C 0.49016 0.01982 0.37281 0.0
C174 C 0.51013 -0.00973 0.37539 0.0
Cd175 Cd 0.67967 0.05303 0.3545 0.0
Cd176 Cd 0.70437 -0.00268 0.34238 0.0
C177 C 0.51045 0.85072 0.41131 0.0
C178 C 0.43653 0.81144 0.42238 0.0
C179 C 0.46593 0.81888 0.43149 0.0
C180 C 0.51671 0.84052 0.4307 0.0
C181 C 0.53885 0.85778 0.42064 0.0
C182 C 0.4592 0.82672 0.41222 0.0
Co183 Co 0.55 0.92102 0.39225 0.0
N184 N 0.58166 0.96202 0.40469 0.0
N185 N 0.4949 0.92271 0.39658 0.0
C186 C 0.49762 0.94215 0.40625 0.0
C187 C 0.45482 0.93653 0.41095 0.0
C188 C 0.41032 0.90859 0.40536 0.0
C189 C 0.40923 0.88586 0.39548 0.0
C190 C 0.45355 0.89307 0.39132 0.0
N191 N 0.50856 0.87869 0.38079 0.0
N192 N 0.57665 0.97978 0.38294 0.0
N193 N 0.53401 0.86285 0.40089 0.0
O194 O 0.71801 0.03781 0.32582 0.0
O195 O 0.71732 0.09314 0.33644 0.0
C196 C 0.62061 0.09528 0.35233 0.0
O197 O 0.61129 0.05637 0.3474 0.0
O198 O 0.65819 0.11495 0.35839 0.0
C199 C 0.79647 0.07166 0.3563 0.0
O200 O 0.76965 0.09095 0.3577 0.0
O201 O 0.7786 0.02956 0.35213 0.0
C202 C 0.54669 0.96384 0.41095 0.0
O203 O 0.55746 -0.0123 0.42014 0.0
O204 O 0.632 0.96503 0.35346 0.0
O205 O 0.64393 0.91361 0.34395 0.0
C206 C 0.46133 0.86793 0.38223 0.0
O207 O 0.42604 0.83936 0.37562 0.0
C208 C 0.52425 0.86172 0.37185 0.0
C209 C 0.55368 0.89504 0.36417 0.0
C210 C 0.57739 0.88229 0.35641 0.0
C211 C 0.56499 0.83353 0.3553 0.0
C212 C 0.52992 0.79807 0.36216 0.0
C213 C 0.51118 0.81266 0.37079 0.0
C214 C 0.72586 0.08081 0.32724 0.0
O215 O 0.65412 0.03345 0.37416 0.0
C216 C 0.61838 0.9216 0.35061 0.0
C217 C 0.63105 0.00164 0.40495 0.0
C218 C 0.67087 -0.00641 0.40518 0.0
C219 C 0.71825 0.03311 0.40618 0.0
C220 C 0.72591 0.08043 0.4074 0.0
C221 C 0.68584 0.08846 0.4077 0.0
C222 C 0.63926 0.04933 0.40576 0.0
C223 C 0.56583 0.84673 0.3982 0.0
O224 O 0.56479 0.80913 0.40302 0.0
H225 H 0.64957 0.84286 0.39013 0.0
H226 H 0.71275 0.90798 0.37837 0.0
H227 H 0.70404 0.97946 0.37278 0.0
H228 H 0.61668 0.07674 0.38669 0.0
H229 H 0.49975 0.09212 0.37345 0.0
H230 H 0.49117 0.95281 0.37279 0.0
H231 H 0.44881 0.80329 0.43914 0.0
H232 H 0.57818 0.87455 0.41993 0.0
H233 H 0.43717 0.81856 0.40503 0.0
H234 H 0.45542 0.9518 0.41879 0.0
H235 H 0.37656 0.90306 0.40887 0.0
H236 H 0.37491 0.86216 0.39149 0.0
H237 H 0.55981 0.93178 0.36461 0.0
H238 H 0.5822 0.82307 0.34911 0.0
H239 H 0.48554 0.78619 0.37643 0.0
H240 H 0.66547 0.95706 0.40486 0.0
H241 H 0.76267 0.10982 0.40891 0.0
H242 H 0.60844 0.05557 0.40567 0.0
C243 C 0.70711 0.61133 0.55891 0.0
C244 C 0.7533 0.64862 0.55575 0.0
C245 C 0.75576 0.68583 0.54898 0.0
C246 C 0.71267 0.68517 0.54554 0.0
C247 C 0.66785 0.64687 0.54908 0.0
N248 N 0.66791 0.61308 0.55553 0.0
C249 C 0.61835 0.63653 0.54621 0.0
C250 C 0.53024 0.5748 0.54758 0.0
C251 C 0.50893 0.6041 0.54943 0.0
C252 C 0.4598 0.58688 0.54695 0.0
C253 C 0.43166 0.54068 0.54242 0.0
C254 C 0.45299 0.5122 0.54011 0.0
C255 C 0.50209 0.5293 0.5426 0.0
Cd256 Cd 0.61824 0.68486 0.52062 0.0
Cd257 Cd 0.70152 0.6979 0.50111 0.0
C258 C 0.63222 0.51865 0.57908 0.0
C259 C 0.59298 0.44616 0.59057 0.0
C260 C 0.61385 0.4762 0.59961 0.0
C261 C 0.64508 0.52645 0.59858 0.0
C262 C 0.65271 0.54765 0.58833 0.0
C263 C 0.60311 0.46769 0.58023 0.0
Co264 Co 0.60841 0.56203 0.55963 0.0
N265 N 0.60112 0.59593 0.57192 0.0
N266 N 0.54933 0.50988 0.56379 0.0
C267 C 0.53284 0.51429 0.57337 0.0
C268 C 0.49396 0.473 0.57807 0.0
C269 C 0.47545 0.428 0.57261 0.0
C270 C 0.49686 0.42488 0.56287 0.0
C271 C 0.53574 0.46778 0.55869 0.0
N272 N 0.60684 0.51915 0.54824 0.0
N273 N 0.58093 0.59252 0.55005 0.0
N274 N 0.64618 0.54121 0.56857 0.0
O275 O 0.6307 0.68043 0.49071 0.0
O276 O 0.61157 0.7194 0.5028 0.0
C277 C 0.51742 0.62525 0.51867 0.0
O278 O 0.54681 0.61339 0.51447 0.0
O279 O 0.53548 0.6652 0.52388 0.0
C280 C 0.71348 0.79851 0.51541 0.0
O281 O 0.67593 0.77383 0.5213 0.0
O282 O 0.72729 0.77805 0.50853 0.0
C283 C 0.56249 0.563 0.57805 0.0
O284 O 0.54973 0.57571 0.58704 0.0
O285 O 0.66157 0.64199 0.51831 0.0
O286 O 0.71504 0.63488 0.50876 0.0
C287 C 0.56852 0.47304 0.54975 0.0
O288 O 0.56014 0.43666 0.54332 0.0
C289 C 0.64117 0.53196 0.53964 0.0
C290 C 0.64408 0.56484 0.53183 0.0
C291 C 0.68029 0.5816 0.5239 0.0
C292 C 0.71042 0.56091 0.52313 0.0
C293 C 0.7046 0.52418 0.53035 0.0
C294 C 0.67085 0.51082 0.53882 0.0
C295 C 0.61274 0.70749 0.49302 0.0
O296 O 0.61117 0.66946 0.5406 0.0
C297 C 0.68583 0.6207 0.51661 0.0
C298 C 0.6139 0.64629 0.57191 0.0
C299 C 0.66257 0.68384 0.57242 0.0
C300 C 0.67318 0.73234 0.57297 0.0
C301 C 0.63538 0.74336 0.57342 0.0
C302 C 0.58631 0.70561 0.57336 0.0
C303 C 0.57641 0.65778 0.57198 0.0
C304 C 0.69483 0.56996 0.56615 0.0
O305 O 0.72899 0.56575 0.57132 0.0
H306 H 0.78625 0.64917 0.55842 0.0
H307 H 0.79096 0.71501 0.54638 0.0
H308 H 0.71441 0.71319 0.54023 0.0
H309 H 0.53017 0.64042 0.55269 0.0
H310 H 0.39369 0.52743 0.54048 0.0
H311 H 0.51818 0.50765 0.54024 0.0
H312 H 0.61005 0.45962 0.60745 0.0
H313 H 0.67691 0.58659 0.58744 0.0
H314 H 0.58984 0.44495 0.57313 0.0
H315 H 0.47949 0.475 0.58583 0.0
H316 H 0.44587 0.39532 0.57613 0.0
H317 H 0.48466 0.39002 0.559 0.0
H318 H 0.61769 0.57708 0.5319 0.0
H319 H 0.73696 0.57196 0.51668 0.0
H320 H 0.66717 0.48368 0.54466 0.0
H321 H 0.69212 0.67583 0.5726 0.0
H322 H 0.64477 0.781 0.57454 0.0
H323 H 0.5388 0.62858 0.5716 0.0
C324 C 0.07482 0.72304 0.72532 0.0
C325 C 0.07788 0.767 0.72215 0.0
C326 C 0.04157 0.76484 0.71509 0.0
C327 C 0.00317 0.71945 0.71146 0.0
C328 C 0.00241 0.67704 0.71501 0.0
N329 N 0.03791 0.68142 0.72159 0.0
C330 C 0.96708 0.62603 0.7123 0.0
C331 C 0.94927 0.54038 0.71446 0.0
C332 C 0.89847 0.51557 0.71619 0.0
C333 C 0.87069 0.46531 0.71449 0.0
C334 C 0.89295 0.43949 0.71073 0.0
C335 C 0.94283 0.46416 0.70844 0.0
C336 C 0.97077 0.51437 0.71022 0.0
Cd337 Cd 0.91282 0.62313 0.68694 0.0
Cd338 Cd 0.96709 0.68303 0.67088 0.0
C339 C 0.10566 0.6544 0.74522 0.0
C340 C 0.15074 0.62249 0.755 0.0
C341 C 0.13767 0.63519 0.76473 0.0
C342 C 0.1118 0.66062 0.76486 0.0
C343 C 0.09417 0.6683 0.75508 0.0
C344 C 0.13552 0.63306 0.74521 0.0
Co345 Co 0.03552 0.62496 0.72625 0.0
N346 N -0.00774 0.61538 0.73825 0.0
N347 N 0.03445 0.569 0.73102 0.0
C348 C 0.01413 0.55296 0.74066 0.0
C349 C 0.02092 0.51749 0.74588 0.0
C350 C 0.05099 0.50192 0.74086 0.0
C351 C 0.07469 0.523 0.73103 0.0
C352 C 0.06621 0.55842 0.72633 0.0
N353 N 0.08052 0.62662 0.71537 0.0
N354 N -0.02163 0.59197 0.71646 0.0
N355 N 0.0917 0.66759 0.73526 0.0
O356 O 0.92003 0.62629 0.65757 0.0
O357 O 0.86526 0.6163 0.66975 0.0
C358 C 0.8779 0.5246 0.68377 0.0
O359 O 0.91314 0.5567 0.67823 0.0
O360 O 0.85821 0.539 0.69076 0.0
C361 C 0.89584 0.71885 0.68226 0.0
O362 O 0.88213 0.68165 0.68833 0.0
O363 O 0.92908 0.72967 0.67529 0.0
C364 C -0.00925 0.57971 0.74485 0.0
O365 O 0.96508 0.56642 0.7538 0.0
O366 O -0.00057 0.66237 0.68626 0.0
O367 O 0.052 0.71159 0.67443 0.0
C368 C 0.09232 0.59112 0.71729 0.0
O369 O 0.12282 0.5851 0.71115 0.0
C370 C 0.09875 0.65909 0.70642 0.0
C371 C 0.06647 0.65496 0.69842 0.0
C372 C 0.08103 0.68905 0.69009 0.0
C373 C 0.1302 0.72367 0.68896 0.0
C374 C 0.16444 0.72446 0.69633 0.0
C375 C 0.14835 0.69342 0.70536 0.0
C376 C 0.87627 0.61388 0.65994 0.0
O377 O 0.92495 0.61439 0.70689 0.0
C378 C 0.04311 0.68805 0.68316 0.0
C379 C 0.95096 0.62274 0.73782 0.0
C380 C 0.95618 0.66932 0.73831 0.0
C381 C 0.91466 0.67429 0.73908 0.0
C382 C 0.86816 0.63295 0.73978 0.0
C383 C 0.8628 0.58588 0.73968 0.0
C384 C 0.90422 0.58176 0.73791 0.0
C385 C 0.10577 0.7153 0.73303 0.0
O386 O 0.14093 0.75167 0.73841 0.0
H387 H 0.10685 0.80167 0.72506 0.0
H388 H 0.04304 0.79825 0.7125 0.0
H389 H 0.97535 0.71772 0.70606 0.0
H390 H 0.88007 0.53478 0.71884 0.0
H391 H 0.87138 0.40061 0.70938 0.0
H392 H 0.00866 0.53281 0.70793 0.0
H393 H 0.15324 0.63074 0.77215 0.0
H394 H 0.07384 0.68765 0.75503 0.0
H395 H 0.14851 0.62663 0.73767 0.0
H396 H 0.00506 0.50353 0.75371 0.0
H397 H 0.05753 0.4751 0.74478 0.0
H398 H 0.10015 0.51341 0.72751 0.0
H399 H 0.02951 0.6249 0.69878 0.0
H400 H 0.14198 0.74919 0.6823 0.0
H401 H 0.17415 0.69433 0.71126 0.0
H402 H -0.00804 0.70153 0.73841 0.0
H403 H 0.83728 0.63829 0.74114 0.0
H404 H 0.9008 0.546 0.73745 0.0
C405 C 0.3448 0.08864 0.89185 0.0
C406 C 0.30487 0.09291 0.88835 0.0
C407 C 0.27028 0.05618 0.8815 0.0
C408 C 0.27606 0.01637 0.87831 0.0
C409 C 0.31684 0.01452 0.88215 0.0
N410 N 0.34803 0.05008 0.88866 0.0
C411 C 0.33207 0.97853 0.87962 0.0
C412 C 0.39987 0.96058 0.88161 0.0
C413 C 0.37454 0.91013 0.88368 0.0
C414 C 0.39549 0.88145 0.88113 0.0
C415 C 0.44157 0.90264 0.87636 0.0
C416 C 0.46634 0.95237 0.87396 0.0
C417 C 0.44553 0.98116 0.87652 0.0
Cd418 Cd 0.278 0.91756 0.85477 0.0
Cd419 Cd 0.26879 0.9705 0.84001 0.0
C420 C 0.4395 0.1168 0.91255 0.0
C421 C 0.51287 0.15652 0.92382 0.0
C422 C 0.48295 0.14882 0.93282 0.0
C423 C 0.43208 0.12615 0.93189 0.0
C424 C 0.41056 0.10873 0.92178 0.0
C425 C 0.4907 0.1414 0.9136 0.0
Co426 Co 0.40226 0.04769 0.89329 0.0
N427 N 0.36977 0.00531 0.90548 0.0
N428 N 0.45743 0.04663 0.89788 0.0
C429 C 0.45401 0.02632 0.90748 0.0
C430 C 0.49656 0.03205 0.91237 0.0
C431 C 0.54151 0.06094 0.90704 0.0
C432 C 0.54324 0.08445 0.89722 0.0
C433 C 0.49914 0.07708 0.89286 0.0
N434 N 0.44455 0.09169 0.88218 0.0
N435 N 0.37748 -0.0102 0.88373 0.0
N436 N 0.41635 0.10478 0.90208 0.0
O437 O 0.2745 0.93057 0.82481 0.0
O438 O 0.23927 0.87309 0.83703 0.0
C439 C 0.33806 0.87698 0.85253 0.0
O440 O 0.34599 0.9151 0.84741 0.0
O441 O 0.30131 0.85734 0.85882 0.0
C442 C 0.16371 0.90002 0.85138 0.0
O443 O 0.1878 0.88371 0.85649 0.0
O444 O 0.18568 0.93599 0.84502 0.0
C445 C 0.40441 0.00349 0.9119 0.0
O446 O 0.39299 0.9787 0.92097 0.0
O447 O 0.32637 0.00536 0.85415 0.0
O448 O 0.32296 0.05556 0.84245 0.0
C449 C 0.4918 0.10283 0.88382 0.0
O450 O 0.52751 0.13227 0.87741 0.0
C451 C 0.42922 0.1087 0.87317 0.0
C452 C 0.40219 0.07568 0.86524 0.0
C453 C 0.37938 0.08796 0.85717 0.0
C454 C 0.38988 0.13614 0.85614 0.0
C455 C 0.42243 0.17161 0.86339 0.0
C456 C 0.4405 0.15734 0.87224 0.0
C457 C 0.24795 0.88587 0.82714 0.0
O458 O 0.30097 0.93561 0.8746 0.0
C459 C 0.34189 0.04839 0.85075 0.0
C460 C 0.32058 0.96529 0.90545 0.0
C461 C 0.2804 0.97276 0.90557 0.0
C462 C 0.23315 0.93281 0.9063 0.0
C463 C 0.22595 0.88559 0.90736 0.0
C464 C 0.26633 0.87805 0.90776 0.0
C465 C 0.31287 0.91773 0.90609 0.0
C466 C 0.38411 0.1203 0.89931 0.0
O467 O 0.38397 0.15715 0.9042 0.0
H468 H 0.30032 0.12322 0.89085 0.0
H469 H 0.23911 0.0586 0.87865 0.0
H470 H 0.24996 -0.01146 0.87296 0.0
H471 H 0.33834 0.89263 0.88711 0.0
H472 H 0.45769 0.8804 0.87436 0.0
H473 H 0.46435 0.01888 0.87411 0.0
H474 H 0.49966 0.16449 0.9405 0.0
H475 H 0.37119 0.09092 0.92096 0.0
H476 H 0.51304 0.14999 0.90647 0.0
H477 H 0.4954 0.01609 0.92016 0.0
H478 H 0.57508 0.06656 0.9107 0.0
H479 H 0.57785 0.10884 0.89344 0.0
H480 H 0.39755 0.03946 0.86564 0.0
H481 H 0.37334 0.14617 0.8497 0.0
H482 H 0.4644 0.18381 0.87812 0.0
H483 H 0.28538 0.00914 0.90537 0.0
H484 H 0.18921 0.85581 0.90866 0.0
H485 H 0.344 0.91198 0.90608 0.0
C486 C 0.62243 0.71558 0.80491 0.0
C487 C 0.66224 0.76015 0.8081 0.0
C488 C 0.69696 0.75915 0.81517 0.0
C489 C 0.6915 0.71431 0.81883 0.0
C490 C 0.6509 0.67125 0.81524 0.0
N491 N 0.61937 0.6745 0.80858 0.0
C492 C 0.63607 0.62068 0.81819 0.0
C493 C 0.57085 0.53429 0.81591 0.0
C494 C 0.59816 0.51103 0.81384 0.0
C495 C 0.57749 0.4608 0.81539 0.0
C496 C 0.52989 0.43353 0.8193 0.0
C497 C 0.50343 0.45671 0.82192 0.0
C498 C 0.5239 0.50689 0.8203 0.0
Cd499 Cd 0.6828 0.62314 0.84435 0.0
Cd500 Cd 0.71261 0.72133 0.85893 0.0
C501 C 0.52336 0.64528 0.78518 0.0
C502 C 0.44685 0.61527 0.77539 0.0
C503 C 0.47267 0.62886 0.76567 0.0
C504 C 0.52383 0.65376 0.76554 0.0
C505 C 0.54887 0.66013 0.77533 0.0
C506 C 0.47229 0.62408 0.78517 0.0
Co507 Co 0.56572 0.61722 0.80421 0.0
N508 N 0.5987 0.60745 0.79207 0.0
N509 N 0.51116 0.5605 0.79972 0.0
C510 C 0.51475 0.54438 0.79004 0.0
C511 C 0.47236 0.50831 0.78502 0.0
C512 C 0.42726 0.49225 0.7903 0.0
C513 C 0.42525 0.51342 0.80017 0.0
C514 C 0.46924 0.5494 0.80466 0.0
N515 N 0.5232 0.61844 0.81536 0.0
N516 N 0.59145 0.58572 0.81399 0.0
N517 N 0.55028 0.65875 0.79518 0.0
O518 O 0.70785 0.66841 0.87325 0.0
O519 O 0.7191 0.61997 0.8622 0.0
C520 C 0.61648 0.52457 0.84771 0.0
O521 O 0.61226 0.55737 0.85272 0.0
O522 O 0.65204 0.53824 0.84119 0.0
C523 C 0.80095 0.71749 0.84426 0.0
O524 O 0.77248 0.67215 0.84251 0.0
O525 O 0.78564 0.74381 0.84863 0.0
C526 C 0.56421 0.57158 0.78559 0.0
O527 O 0.5758 0.55882 0.77645 0.0
O528 O 0.64513 0.67234 0.84524 0.0
O529 O 0.64729 0.73479 0.85306 0.0
C530 C 0.47614 0.58219 0.81369 0.0
O531 O 0.43991 0.57629 0.81991 0.0
C532 C 0.53691 0.65384 0.82372 0.0
C533 C 0.56912 0.65647 0.83166 0.0
C534 C 0.58764 0.69421 0.83924 0.0
C535 C 0.56868 0.72585 0.83965 0.0
C536 C 0.53187 0.71984 0.83241 0.0
C537 C 0.51732 0.68491 0.82418 0.0
C538 C 0.72 0.63612 0.87168 0.0
O539 O 0.66567 0.61036 0.82429 0.0
C540 C 0.62759 0.70041 0.84632 0.0
C541 C 0.6475 0.61512 0.79225 0.0
C542 C 0.68843 0.66196 0.79202 0.0
C543 C 0.73508 0.66757 0.79096 0.0
C544 C 0.74084 0.62668 0.78968 0.0
C545 C 0.69961 0.57959 0.78945 0.0
C546 C 0.65395 0.57446 0.79155 0.0
C547 C 0.58294 0.70675 0.79736 0.0
O548 O 0.58268 0.74258 0.79201 0.0
H549 H 0.66656 0.79444 0.80523 0.0
H550 H 0.72801 0.79305 0.81781 0.0
H551 H 0.71777 0.71346 0.82432 0.0
H552 H 0.63541 0.5315 0.81104 0.0
H553 H 0.51397 0.39468 0.82053 0.0
H554 H 0.50353 0.52421 0.82279 0.0
H555 H 0.45275 0.62553 0.75829 0.0
H556 H 0.58846 0.67935 0.77542 0.0
H557 H 0.4528 0.61697 0.79272 0.0
H558 H 0.47374 0.49424 0.77716 0.0
H559 H 0.3938 0.46494 0.78654 0.0
H560 H 0.39052 0.5034 0.80389 0.0
H561 H 0.57987 0.629 0.83189 0.0
H562 H 0.58085 0.75355 0.84586 0.0
H563 H 0.49019 0.68119 0.81831 0.0
H564 H 0.68445 0.69399 0.7923 0.0
H565 H 0.77702 0.63239 0.78807 0.0
H566 H 0.62222 0.53824 0.79173 0.0
C567 C 0.87496 0.61378 0.97345 0.0
C568 C 0.86716 0.65173 0.97675 0.0
C569 C 0.90303 0.68882 0.98333 0.0
C570 C 0.9454 0.68735 0.98645 0.0
C571 C 0.95074 0.64838 0.9828 0.0
N572 N 0.91593 0.61475 0.97651 0.0
C573 C -0.01062 0.63699 0.98548 0.0
C574 C 0.01449 0.5743 0.98375 0.0
C575 C 0.06458 0.60255 0.9814 0.0
C576 C 0.09653 0.58526 0.98387 0.0
C577 C 0.07899 0.54002 0.98887 0.0
C578 C 0.02968 0.51252 0.9916 0.0
C579 C -0.00237 0.52967 0.98911 0.0
Cd580 Cd 0.04052 0.68992 1.01109 0.0
Cd581 Cd 0.97106 0.71926 0.02523 0.0
C582 C 0.85145 0.5186 0.9534 0.0
C583 C 0.81315 0.44449 0.94243 0.0
C584 C 0.82 0.47333 0.93328 0.0
C585 C 0.84056 0.52393 0.934 0.0
C586 C 0.85764 0.54647 0.94404 0.0
C587 C 0.82827 0.46742 0.95257 0.0
Co588 Co 0.9227 0.56258 0.97229 0.0
N589 N 0.9621 0.59513 0.9597 0.0
N590 N 0.92797 0.50937 0.96801 0.0
C591 C 0.94631 0.51251 0.95819 0.0
C592 C 0.94217 0.47046 0.95344 0.0
C593 C 0.91661 0.42602 0.95913 0.0
C594 C 0.89457 0.42419 0.96915 0.0
C595 C 0.90024 0.46781 0.97336 0.0
N596 N 0.8829 0.52063 0.98394 0.0
N597 N -0.01815 0.5927 0.98151 0.0
N598 N 0.863 0.54251 0.96379 0.0
O599 O 0.01914 0.72062 0.04023 0.0
O600 O 0.07602 0.72136 0.02974 0.0
C601 C 0.08198 0.63005 1.01294 0.0
O602 O 0.04118 0.6185 0.01729 0.0
O603 O 0.10339 0.66988 1.00769 0.0
C604 C 0.05914 0.80692 1.00999 0.0
O605 O 0.07767 0.77943 1.00862 0.0
O606 O 0.01724 0.79064 1.01426 0.0
C607 C 0.9648 0.56088 0.95336 0.0
O608 O -0.0126 0.5721 0.94402 0.0
O609 O 0.95315 0.64787 1.01248 0.0
O610 O 0.89333 0.65069 0.02045 0.0
C611 C 0.87461 0.47424 0.98252 0.0
O612 O 0.84707 0.43839 0.9891 0.0
C613 C 0.86186 0.53411 0.9925 0.0
C614 C 0.89216 0.56779 1.00009 0.0
C615 C 0.87347 0.5872 1.0076 0.0
C616 C 0.82287 0.56754 1.00838 0.0
C617 C 0.79159 0.52932 1.00153 0.0
C618 C 0.8113 0.51386 0.99332 0.0
C619 C 0.06183 0.72685 0.03901 0.0
O620 O 0.02979 0.66923 0.9911 0.0
C621 C 0.90771 0.62947 1.01403 0.0
C622 C 0.00124 0.64474 0.95943 0.0
C623 C -0.00758 0.68401 0.9593 0.0
C624 C 0.03141 0.73153 0.95806 0.0
C625 C 0.07888 0.73982 0.95649 0.0
C626 C 0.08759 0.70026 0.95615 0.0
C627 C 0.04919 0.65367 0.95835 0.0
C628 C 0.84432 0.57223 0.96642 0.0
O629 O 0.80527 0.56835 0.96164 0.0
H630 H 0.83473 0.65283 0.97435 0.0
H631 H 0.89787 0.7185 0.98604 0.0
H632 H 0.97246 0.71521 0.99165 0.0
H633 H 0.0792 0.63817 0.97777 0.0
H634 H 0.10375 0.52673 0.99082 0.0
H635 H 0.96034 0.50889 0.99178 0.0
H636 H 0.80463 0.45571 0.92564 0.0
H637 H 0.87359 0.58567 0.94471 0.0
H638 H 0.82054 0.44563 0.95979 0.0
H639 H 0.95664 0.47149 0.94548 0.0
H640 H 0.91218 0.39277 0.95559 0.0
H641 H 0.87239 0.38975 0.97321 0.0
H642 H 0.93062 0.57951 0.99999 0.0
H643 H 0.80785 0.58068 1.01452 0.0
H644 H 0.78753 0.48593 0.98767 0.0
H645 H 0.95567 0.67806 0.95987 0.0
H646 H 0.10776 0.77657 0.95481 0.0
H647 H 0.05612 0.62333 0.95842 0.0
C648 C 0.24121 0.86301 0.14232 0.0
C649 C 0.19541 0.85214 0.1463 0.0
C650 C 0.19183 0.8891 0.15197 0.0
C651 C 0.23345 0.93559 0.15354 0.0
C652 C 0.27791 0.94385 0.14925 0.0
N653 N 0.2788 0.90777 0.14385 0.0
C654 C 0.32682 -0.01329 0.15064 0.0
C655 C 0.415 0.018 0.14749 0.0
C656 C 0.43199 0.06309 0.14233 0.0
C657 C 0.48081 0.0996 0.1434 0.0
C658 C 0.51283 0.09144 0.14969 0.0
C659 C 0.49592 0.04694 0.155 0.0
C660 C 0.44713 0.01039 0.15395 0.0
Cd661 Cd 0.33145 0.04491 0.17521 0.0
Cd662 Cd 0.22349 0.97365 0.18952 0.0
C663 C 0.31168 0.84244 0.12157 0.0
C664 C 0.35116 0.80937 0.11011 0.0
C665 C 0.32445 0.8117 0.10127 0.0
C666 C 0.29107 0.82845 0.10234 0.0
C667 C 0.28521 0.8442 0.11253 0.0
C668 C 0.34447 0.82491 0.12029 0.0
Co669 Co 0.33841 0.91837 0.13909 0.0
N670 N 0.33722 0.9496 0.12575 0.0
N671 N 0.39807 0.92786 0.13446 0.0
C672 C 0.41106 0.94502 0.1245 0.0
C673 C 0.45191 0.94577 0.11991 0.0
C674 C 0.47665 0.92694 0.12603 0.0
C675 C 0.45969 0.907 0.13638 0.0
C676 C 0.41849 0.90745 0.1404 0.0
N677 N 0.34942 0.88778 0.15157 0.0
N678 N 0.36465 0.98104 0.14667 0.0
N679 N 0.30154 0.85444 0.13213 0.0
O680 O 0.27164 0.02978 0.20338 0.0
O681 O 0.3333 0.08228 0.19328 0.0
C682 C 0.43327 0.08675 0.17703 0.0
O683 O 0.40417 0.04493 0.18091 0.0
O684 O 0.4147 0.10906 0.17212 0.0
C685 C 0.23146 0.06139 0.17326 0.0
O686 O 0.27791 0.08098 0.17319 0.0
O687 O 0.20446 0.01691 0.17596 0.0
C688 C 0.37652 0.95741 0.11952 0.0
O689 O 0.38265 0.97442 0.10963 0.0
O690 O 0.28626 0.95943 0.17879 0.0
O691 O 0.22445 0.89873 0.18653 0.0
C692 C 0.39073 0.88459 0.15024 0.0
O693 O 0.40522 0.8638 0.15741 0.0
C694 C 0.31787 0.86809 0.16064 0.0
C695 C 0.31214 0.89927 0.16761 0.0
C696 C 0.27456 0.8807 0.17523 0.0
C697 C 0.24671 0.8302 0.17673 0.0
C698 C 0.25576 0.79865 0.17045 0.0
C699 C 0.29066 0.81773 0.1622 0.0
C700 C 0.31043 0.07063 0.20224 0.0
O701 O 0.33316 0.02831 0.15536 0.0
C702 C 0.26212 0.91419 0.18073 0.0
C703 C 0.30924 0.97292 0.12334 0.0
C704 C 0.2581 0.94636 0.12265 0.0
C705 C 0.23271 0.9674 0.11793 0.0
C706 C 0.25833 0.01401 0.11345 0.0
C707 C 0.30958 0.03984 0.11381 0.0
C708 C 0.33411 0.02106 0.11966 0.0
C709 C 0.25416 0.83232 0.13575 0.0
O710 O 0.22039 0.78998 0.13194 0.0
H711 H 0.16357 0.81662 0.14507 0.0
H712 H 0.15696 0.88162 0.15521 0.0
H713 H 0.23105 0.96348 0.1581 0.0
H714 H 0.40748 0.07012 0.13754 0.0
H715 H 0.55057 0.11972 0.15053 0.0
H716 H 0.43437 0.97684 0.15839 0.0
H717 H 0.32663 0.79652 0.09361 0.0
H718 H 0.25919 0.85677 0.11354 0.0
H719 H 0.36337 0.82191 0.12728 0.0
H720 H 0.46362 0.95924 0.11182 0.0
H721 H 0.50807 0.92658 0.12265 0.0
H722 H 0.47733 0.89075 0.1409 0.0
H723 H 0.33573 0.93814 0.16673 0.0
H724 H 0.21848 0.81547 0.18284 0.0
H725 H 0.296 0.7936 0.15688 0.0
H726 H 0.2378 0.90862 0.12499 0.0
H727 H 0.2385 0.02821 0.10902 0.0
H728 H 0.3737 0.04101 0.11985 0.0
C729 C 0.33597 0.24721 0.30671 0.0
C730 C 0.29957 0.20323 0.31109 0.0
C731 C 0.26576 0.20496 0.3183 0.0
C732 C 0.26859 0.24987 0.3209 0.0
C733 C 0.30596 0.29232 0.31622 0.0
N734 N 0.33704 0.28841 0.30955 0.0
C735 C 0.31697 0.34305 0.3177 0.0
C736 C 0.37785 0.4294 0.31371 0.0
C737 C 0.34852 0.45046 0.31158 0.0
C738 C 0.36723 0.50059 0.31284 0.0
C739 C 0.41499 0.53008 0.31649 0.0
C740 C 0.44358 0.50921 0.31916 0.0
C741 C 0.42501 0.45912 0.31786 0.0
Cd742 Cd 0.2695 0.34541 0.34329 0.0
Cd743 Cd 0.24817 0.25833 0.35569 0.0
C744 C 0.42713 0.31239 0.28498 0.0
C745 C 0.50276 0.34429 0.27472 0.0
C746 C 0.4754 0.32477 0.2653 0.0
C747 C 0.42432 0.29692 0.26557 0.0
C748 C 0.40036 0.29212 0.27543 0.0
C749 C 0.47847 0.3372 0.28461 0.0
Co750 Co 0.38478 0.34473 0.30325 0.0
N751 N 0.34331 0.34253 0.29134 0.0
N752 N 0.43325 0.40058 0.29685 0.0
C753 C 0.42313 0.40938 0.28694 0.0
C754 C 0.46107 0.44477 0.28068 0.0
C755 C 0.50883 0.46789 0.28502 0.0
C756 C 0.51792 0.45427 0.29524 0.0
C757 C 0.4781 0.41855 0.30102 0.0
N758 N 0.43446 0.35479 0.31383 0.0
N759 N 0.35867 0.37773 0.31246 0.0
N760 N 0.40175 0.30201 0.29514 0.0
O761 O 0.23887 0.29425 0.37161 0.0
O762 O 0.22812 0.34381 0.36089 0.0
C763 C 0.33211 0.44433 0.34722 0.0
O764 O 0.33469 0.41153 0.35263 0.0
O765 O 0.29924 0.4307 0.33997 0.0
C766 C 0.15354 0.24684 0.34253 0.0
O767 O 0.17982 0.29286 0.34126 0.0
O768 O 0.17245 0.22207 0.34601 0.0
C769 C 0.37229 0.37603 0.28373 0.0
O770 O 0.35417 0.38222 0.2747 0.0
O771 O 0.31825 0.3067 0.34375 0.0
O772 O 0.31574 0.24496 0.35213 0.0
C773 C 0.47885 0.39244 0.31077 0.0
O774 O 0.51893 0.40535 0.31634 0.0
C775 C 0.42724 0.32538 0.32314 0.0
C776 C 0.39632 0.3242 0.33119 0.0
C777 C 0.37902 0.28785 0.3391 0.0
C778 C 0.39941 0.25757 0.33992 0.0
C779 C 0.43589 0.26307 0.33265 0.0
C780 C 0.44848 0.29583 0.32399 0.0
C781 C 0.22467 0.32506 0.3702 0.0
O782 O 0.28596 0.3534 0.32323 0.0
C783 C 0.33694 0.28008 0.3456 0.0
C784 C 0.29338 0.33097 0.29261 0.0
C785 C 0.256 0.2835 0.2947 0.0
C786 C 0.20941 0.2751 0.29729 0.0
C787 C 0.19917 0.31343 0.29724 0.0
C788 C 0.23527 0.36102 0.29418 0.0
C789 C 0.28246 0.36877 0.29218 0.0
C790 C 0.37298 0.25488 0.29858 0.0
O791 O 0.37471 0.21813 0.29406 0.0
H792 H 0.29691 0.1688 0.30895 0.0
H793 H 0.23721 0.17153 0.3218 0.0
H794 H 0.24267 0.25125 0.32639 0.0
H795 H 0.31103 0.42834 0.30908 0.0
H796 H 0.42942 0.56886 0.31749 0.0
H797 H 0.44693 0.44369 0.3205 0.0
H798 H 0.49454 0.32715 0.25788 0.0
H799 H 0.36086 0.2709 0.27582 0.0
H800 H 0.49933 0.34936 0.29201 0.0
H801 H 0.45445 0.45315 0.27261 0.0
H802 H 0.53899 0.49486 0.2803 0.0
H803 H 0.55483 0.46967 0.29829 0.0
H804 H 0.38394 0.35046 0.33092 0.0
H805 H 0.38793 0.23082 0.34633 0.0
H806 H 0.4743 0.29812 0.31795 0.0
H807 H 0.26299 0.25331 0.29463 0.0
H808 H 0.16249 0.3046 0.2993 0.0
H809 H 0.31194 0.4044 0.29014 0.0
C810 C 0.07963 0.35184 0.47279 0.0
C811 C 0.08761 0.31419 0.47626 0.0
C812 C 0.0522 0.27778 0.48302 0.0
C813 C 0.01001 0.27955 0.48614 0.0
C814 C 0.00446 0.31817 0.4823 0.0
N815 N 0.03896 0.35128 0.4759 0.0
C816 C 0.96559 0.32942 0.4848 0.0
C817 C 0.94026 0.3919 0.48283 0.0
C818 C 0.88984 0.36308 0.48083 0.0
C819 C 0.85808 0.38056 0.48329 0.0
C820 C 0.87611 0.42659 0.48792 0.0
C821 C 0.92577 0.4547 0.49031 0.0
C822 C 0.95763 0.43735 0.48784 0.0
Cd823 Cd 0.91496 0.27785 0.51031 0.0
Cd824 Cd -0.01633 0.25851 0.52609 0.0
C825 C 0.10191 0.44535 0.45231 0.0
C826 C 0.14018 0.51883 0.44115 0.0
C827 C 0.13188 0.48936 0.43204 0.0
C828 C 0.11016 0.43863 0.43286 0.0
C829 C 0.09405 0.41679 0.44299 0.0
C830 C 0.12583 0.4965 0.45136 0.0
Co831 Co 0.03151 0.40262 0.4713 0.0
N832 N -0.00847 0.36818 0.4589 0.0
N833 N 0.02557 0.455 0.46662 0.0
C834 C 0.00678 0.4504 0.45678 0.0
C835 C 0.01065 0.4917 0.45168 0.0
C836 C 0.03647 0.53697 0.45705 0.0
C837 C 0.05906 0.54032 0.4671 0.0
C838 C 0.05365 0.49737 0.47166 0.0
N839 N 0.07189 0.44628 0.48268 0.0
N840 N 0.9728 0.37332 0.48064 0.0
N841 N 0.09076 0.42196 0.46274 0.0
O842 O 0.93224 0.25295 0.54048 0.0
O843 O 0.87656 0.2455 0.5286 0.0
C844 C 0.87219 0.33678 0.51228 0.0
O845 O 0.91363 0.34895 0.5164 0.0
O846 O 0.85043 0.2966 0.50714 0.0
C847 C 0.90273 0.16253 0.51184 0.0
O848 O 0.88373 0.18794 0.50866 0.0
O849 O 0.94288 0.18207 0.517 0.0
C850 C -0.01165 0.40143 0.45229 0.0
O851 O 0.96496 0.38871 0.44303 0.0
O852 O 0.0022 0.32371 0.51208 0.0
O853 O 0.06189 0.32627 0.52141 0.0
C854 C 0.07998 0.4924 0.4809 0.0
O855 O 0.10772 0.52919 0.48726 0.0
C856 C 0.09301 0.43405 0.49146 0.0
C857 C 0.06279 0.40189 0.49928 0.0
C858 C 0.08162 0.3845 0.50725 0.0
C859 C 0.1322 0.40443 0.50814 0.0
C860 C 0.16339 0.44087 0.50093 0.0
C861 C 0.14358 0.45451 0.49237 0.0
C862 C 0.88863 0.24182 0.53825 0.0
O863 O 0.92499 0.29708 0.49033 0.0
C864 C 0.04749 0.34393 0.51407 0.0
C865 C 0.95201 0.31876 0.45906 0.0
C866 C 0.9602 0.2791 0.45909 0.0
C867 C 0.92064 0.23168 0.45817 0.0
C868 C 0.87321 0.22387 0.45678 0.0
C869 C 0.86508 0.26379 0.45631 0.0
C870 C 0.90416 0.31035 0.45823 0.0
C871 C 0.10961 0.39248 0.46548 0.0
O872 O 0.14813 0.3957 0.46062 0.0
H873 H 0.11981 0.31276 0.47382 0.0
H874 H 0.05749 0.24833 0.48586 0.0
H875 H -0.01682 0.2521 0.49143 0.0
H876 H 0.87481 0.32687 0.4775 0.0
H877 H 0.85149 0.44004 0.48985 0.0
H878 H -0.00478 0.45868 0.49029 0.0
H879 H 0.14661 0.50651 0.42434 0.0
H880 H 0.0772 0.37754 0.44377 0.0
H881 H 0.13449 0.51869 0.45853 0.0
H882 H -0.00416 0.48949 0.4437 0.0
H883 H 0.04071 0.56966 0.45324 0.0
H884 H 0.08151 0.57536 0.4709 0.0
H885 H 0.02429 0.39 0.49905 0.0
H886 H 0.14728 0.39277 0.51459 0.0
H887 H 0.16728 0.48119 0.4865 0.0
H888 H -0.00315 0.28466 0.45954 0.0
H889 H 0.84384 0.18709 0.45532 0.0
H890 H 0.89784 0.34108 0.45824 0.0
C891 C 0.71461 0.09306 0.63896 0.0
C892 C 0.75932 0.09711 0.64192 0.0
C893 C 0.7585 0.0598 0.64838 0.0
C894 C 0.71369 0.01971 0.65176 0.0
C895 C 0.67046 0.01804 0.64847 0.0
N896 N 0.67356 0.05402 0.64222 0.0
C897 C 0.61988 0.98207 0.65141 0.0
C898 C 0.53387 0.96364 0.64993 0.0
C899 C 0.50892 0.91449 0.64672 0.0
C900 C 0.45903 0.88528 0.64879 0.0
C901 C 0.43382 0.90457 0.65426 0.0
C902 C 0.45872 0.95281 0.65785 0.0
C903 C 0.50857 0.98216 0.65574 0.0
Cd904 Cd 0.61701 0.91926 0.67612 0.0
Cd905 Cd 0.67355 0.9684 0.69188 0.0
C906 C 0.6441 0.12526 0.61991 0.0
C907 C 0.60003 0.15899 0.61018 0.0
C908 C 0.61939 0.15304 0.60052 0.0
C909 C 0.65531 0.13929 0.6004 0.0
C910 C 0.66531 0.12263 0.61008 0.0
C911 C 0.61374 0.14621 0.61994 0.0
Co912 Co 0.61634 0.05271 0.63859 0.0
N913 N 0.60336 0.01195 0.6259 0.0
N914 N 0.55936 0.05254 0.63511 0.0
C915 C 0.53984 0.03328 0.62559 0.0
C916 C 0.50118 0.03879 0.6217 0.0
C917 C 0.4859 0.06616 0.62796 0.0
C918 C 0.51008 0.08831 0.63769 0.0
C919 C 0.54857 0.08127 0.64101 0.0
N920 N 0.62067 0.09508 0.65038 0.0
N921 N 0.5852 -0.00625 0.64785 0.0
N922 N 0.65758 0.11096 0.62987 0.0
O923 O 0.62312 0.92269 0.70605 0.0
O924 O 0.61035 0.86948 0.69327 0.0
C925 C 0.51806 0.88134 0.6795 0.0
O926 O 0.54979 0.91574 0.6853 0.0
O927 O 0.53303 0.86426 0.67203 0.0
C928 C 0.71223 0.90115 0.68017 0.0
O929 O 0.67523 0.88812 0.67403 0.0
O930 O 0.72241 0.93331 0.68736 0.0
C931 C 0.56555 0.01127 0.62022 0.0
O932 O 0.55077 -0.01103 0.61088 0.0
O933 O 0.65616 0.00597 0.67731 0.0
O934 O 0.70541 0.0544 0.68979 0.0
C935 C 0.58363 0.1056 0.6498 0.0
O936 O 0.57844 0.13345 0.65693 0.0
C937 C 0.65477 0.11061 0.65905 0.0
C938 C 0.6494 0.07689 0.66677 0.0
C939 C 0.68482 0.08848 0.67473 0.0
C940 C 0.72262 0.1364 0.67582 0.0
C941 C 0.72531 0.17232 0.66873 0.0
C942 C 0.69234 0.15894 0.66004 0.0
C943 C 0.60993 0.87925 0.70327 0.0
O944 O 0.60895 0.93907 0.65636 0.0
C945 C 0.68239 0.04844 0.68105 0.0
C946 C 0.61362 0.97269 0.62481 0.0
C947 C 0.66159 0.98115 0.62431 0.0
C948 C 0.67007 0.94227 0.62257 0.0
C949 C 0.63091 0.89524 0.62085 0.0
C950 C 0.58282 0.887 0.62075 0.0
C951 C 0.57463 0.92517 0.62335 0.0
C952 C 0.70566 0.1258 0.63208 0.0
O953 O 0.74173 0.16382 0.62732 0.0
H954 H 0.79361 0.12778 0.63933 0.0
H955 H 0.79254 0.06208 0.65081 0.0
H956 H 0.71302 -0.00843 0.65686 0.0
H957 H 0.52795 0.89853 0.6427 0.0
H958 H 0.39524 0.8819 0.65589 0.0
H959 H 0.52741 0.0187 0.65894 0.0
H960 H 0.60965 0.16354 0.59302 0.0
H961 H 0.69157 0.11005 0.61014 0.0
H962 H 0.60182 0.15359 0.62749 0.0
H963 H 0.48423 0.02369 0.61401 0.0
H964 H 0.45651 0.07155 0.6251 0.0
H965 H 0.50018 0.11139 0.64221 0.0
H966 H 0.61768 0.04085 0.66637 0.0
H967 H 0.74938 0.14587 0.6822 0.0
H968 H 0.69439 0.18596 0.65436 0.0
H969 H 0.69242 0.01758 0.62492 0.0
H970 H 0.63859 0.86641 0.61882 0.0
H971 H 0.53739 0.91833 0.62352 0.0
H972 H 0.35817 0.74497 0.12391 0.0
H973 H 0.42185 0.57756 0.1073 0.0
H974 H 0.40784 0.81355 0.09287 0.0
H975 H 0.35596 0.59452 0.07833 0.0
H976 H 0.44148 0.65968 0.1129 0.0
H977 H 0.38354 0.68609 0.11909 0.0
C978 C 0.37598 0.74889 0.11624 0.0
C979 C 0.37962 0.78364 0.10869 0.0
C980 C 0.42377 0.64569 0.10521 0.0
C981 C 0.40766 0.71546 0.10302 0.0
C982 C 0.41266 0.59901 0.10198 0.0
C983 C 0.38574 0.57848 0.09249 0.0
C984 C 0.40861 0.67228 0.0988 0.0
C985 C 0.37617 0.60848 0.08575 0.0
C986 C 0.39036 0.71503 0.11347 0.0
C987 C 0.4027 0.78631 0.09881 0.0
N988 N 0.38688 0.65367 0.08914 0.0
N989 N 0.41419 0.75155 0.0961 0.0
H990 H 0.81232 0.43094 0.26566 0.0
H991 H 0.55627 0.31057 0.285 0.0
H992 H 0.7118 0.30772 0.24654 0.0
H993 H 0.5687 0.41873 0.26208 0.0
H994 H 0.63688 0.32462 0.27929 0.0
H995 H 0.74374 0.44192 0.27158 0.0
C996 C 0.77615 0.4075 0.26239 0.0
C997 C 0.76755 0.36878 0.2555 0.0
C998 C 0.6224 0.34628 0.2758 0.0
C999 C 0.68983 0.38012 0.26247 0.0
C1000 C 0.5769 0.33876 0.27912 0.0
C1001 C 0.55613 0.36377 0.27403 0.0
C1002 C 0.64712 0.37916 0.26742 0.0
C1003 C 0.58379 0.39897 0.26621 0.0
C1004 C 0.73727 0.41349 0.26585 0.0
C1005 C 0.71995 0.33853 0.25169 0.0
N1006 N 0.62772 0.40513 0.26298 0.0
N1007 N 0.68256 0.34422 0.2554 0.0
H1008 H 0.13341 0.57527 0.42521 0.0
H1009 H 0.3698 0.73975 0.40893 0.0
H1010 H 0.21703 0.58504 0.45358 0.0
H1011 H 0.37971 0.81253 0.43904 0.0
H1012 H 0.28684 0.67695 0.41374 0.0
H1013 H 0.19856 0.65603 0.41963 0.0
C1014 C 0.16485 0.5949 0.43042 0.0
C1015 C 0.17041 0.57265 0.43973 0.0
C1016 C 0.30692 0.70744 0.41915 0.0
C1017 C 0.24415 0.66522 0.43348 0.0
C1018 C 0.35423 0.74354 0.41638 0.0
C1019 C 0.38245 0.78111 0.42368 0.0
C1020 C 0.28817 0.70848 0.42934 0.0
C1021 C 0.35998 0.7834 0.4333 0.0
C1022 C 0.20188 0.6408 0.42719 0.0
C1023 C 0.21127 0.60042 0.44631 0.0
N1024 N 0.31485 0.74668 0.43602 0.0
N1025 N 0.24699 0.64513 0.44298 0.0
H1026 H 0.52837 0.39229 0.60652 0.0
H1027 H 0.61081 0.23381 0.62327 0.0
H1028 H 0.60258 0.37742 0.57885 0.0
H1029 H 0.52956 0.14895 0.59571 0.0
H1030 H 0.58858 0.2955 0.61845 0.0
H1031 H 0.51226 0.31213 0.61288 0.0
C1032 C 0.54 0.37161 0.60161 0.0
C1033 C 0.56822 0.39237 0.59228 0.0
C1034 C 0.57452 0.26258 0.61367 0.0
C1035 C 0.54837 0.30032 0.59938 0.0
C1036 C 0.58681 0.22711 0.61646 0.0
C1037 C 0.57304 0.18658 0.60975 0.0
C1038 C 0.54919 0.25779 0.60402 0.0
C1039 C 0.54225 0.18039 0.60093 0.0
C1040 C 0.53078 0.32604 0.60527 0.0
C1041 C 0.58109 0.36325 0.58611 0.0
N1042 N 0.533 0.21656 0.59806 0.0
N1043 N 0.57165 0.31888 0.58985 0.0
H1044 H 0.24397 0.67738 0.74842 0.0
H1045 H 0.36609 0.5308 0.76885 0.0
H1046 H 0.14583 0.54023 0.76356 0.0
H1047 H 0.41401 0.67711 0.77978 0.0
H1048 H 0.28833 0.52438 0.76282 0.0
H1049 H 0.31331 0.6687 0.75448 0.0
C1050 C 0.23705 0.64447 0.75263 0.0
C1051 C 0.1894 0.60921 0.75543 0.0
C1052 C 0.31555 0.55729 0.76679 0.0
C1053 C 0.26801 0.59955 0.76248 0.0
C1054 C 0.35935 0.56074 0.77033 0.0
C1055 C 0.39569 0.60418 0.775 0.0
C1056 C 0.30953 0.59827 0.76757 0.0
C1057 C 0.38631 0.64273 0.77642 0.0
C1058 C 0.27646 0.63995 0.75622 0.0
C1059 C 0.18223 0.56782 0.76117 0.0
N1060 N 0.34454 0.63928 0.77251 0.0
N1061 N 0.22132 0.56408 0.76458 0.0
H1062 H 0.8185 0.38707 0.92656 0.0
H1063 H 0.58138 0.22688 0.91037 0.0
H1064 H 0.73725 0.37923 0.95513 0.0
H1065 H 0.56819 0.15486 0.94079 0.0
H1066 H 0.66519 0.28754 0.91517 0.0
H1067 H 0.75195 0.30684 0.92107 0.0
C1068 C 0.78733 0.36789 0.93184 0.0
C1069 C 0.78279 0.39061 0.94117 0.0
C1070 C 0.64416 0.25767 0.92066 0.0
C1071 C 0.70738 0.29875 0.93501 0.0
C1072 C 0.59629 0.22281 0.91791 0.0
C1073 C 0.56696 0.18614 0.92528 0.0
C1074 C 0.66242 0.25633 0.93091 0.0
C1075 C 0.58873 0.18344 0.93499 0.0
C1076 C 0.74945 0.32233 0.92866 0.0
C1077 C 0.74222 0.36347 0.94784 0.0
N1078 N 0.63451 0.219 0.93769 0.0
N1079 N 0.70563 0.31913 0.94455 0.0
H1080 H 0.02804 0.87154 1.00594 0.0
H1081 H 0.2803 0.10759 0.02223 0.0
H1082 H 0.15855 0.86391 1.01233 0.0
H1083 H 0.1398 0.09994 0.02153 0.0
H1084 H 0.23988 0.02034 0.01779 0.0
H1085 H 0.07334 0.95889 1.00939 0.0
C1086 C 0.06662 0.88854 1.00784 0.0
C1087 C 0.08946 0.8604 1.00892 0.0
C1088 C 0.21799 0.03779 0.01873 0.0
C1089 C 0.1414 0.96041 1.01325 0.0
C1090 C 0.2409 0.08741 0.02141 0.0
C1091 C 0.2134 0.11123 0.02221 0.0
C1092 C 0.16739 0.01213 0.0168 0.0
C1093 C 0.16257 0.08331 0.02093 0.0
C1094 C 0.09238 0.93836 1.00995 0.0
C1095 C 0.13961 0.88436 1.01137 0.0
N1096 N 0.1414 0.03554 0.01819 0.0
N1097 N 0.16386 0.93303 1.01361 0.0
H1098 H 0.27501 0.16086 0.17595 0.0
H1099 H 0.01661 0.14194 0.18699 0.0
H1100 H 0.13499 0.03207 0.17061 0.0
H1101 H 0.15046 0.28039 0.18617 0.0
H1102 H 0.06267 0.10093 0.18295 0.0
H1103 H 0.23286 0.20634 0.18028 0.0
C1104 C 0.23553 0.14243 0.17541 0.0
C1105 C 0.20846 0.09238 0.17298 0.0
C1106 C 0.0822 0.14027 0.18374 0.0
C1107 C 0.16023 0.14375 0.17827 0.0
C1108 C 0.05594 0.16366 0.18618 0.0
C1109 C 0.07965 0.21467 0.18686 0.0
C1110 C 0.13271 0.16796 0.1819 0.0
C1111 C 0.13075 0.24095 0.18577 0.0
C1112 C 0.21152 0.16828 0.17803 0.0
C1113 C 0.15739 0.07041 0.17252 0.0
N1114 N 0.15562 0.2173 0.18322 0.0
N1115 N 0.13503 0.09604 0.17526 0.0
H1116 H 0.09677 0.29053 0.34314 0.0
H1117 H 0.86051 0.03882 0.35925 0.0
H1118 H 0.08761 0.14958 0.34244 0.0
H1119 H 0.85442 0.17089 0.3543 0.0
H1120 H 0.9474 0.08315 0.35516 0.0
H1121 H 0.00981 0.25043 0.34785 0.0
C1122 C 0.07628 0.25112 0.3437 0.0
C1123 C 0.09964 0.22337 0.34247 0.0
C1124 C 0.92731 0.10272 0.35506 0.0
C1125 C 0.00087 0.17767 0.34817 0.0
C1126 C 0.8778 0.07752 0.35755 0.0
C1127 C 0.85017 0.10112 0.35706 0.0
C1128 C 0.94956 0.15195 0.352 0.0
C1129 C 0.87447 0.15136 0.35482 0.0
C1130 C 0.02683 0.22836 0.34653 0.0
C1131 C 0.07133 0.17251 0.3434 0.0
N1132 N 0.92281 0.17509 0.35222 0.0
N1133 N 0.02371 0.15144 0.34631 0.0
H1134 H 0.73467 0.85399 0.49756 0.0
H1135 H 0.91193 0.10081 0.52555 0.0
H1136 H 0.74477 0.86427 0.53218 0.0
H1137 H 0.82715 0.10122 0.49824 0.0
H1138 H 0.86104 0.01269 0.52676 0.0
H1139 H 0.77698 0.94318 0.4964 0.0
C1140 C 0.74591 0.8752 0.50492 0.0
C1141 C 0.7369 0.85205 0.51499 0.0
C1142 C 0.85363 0.03206 0.5205 0.0
C1143 C 0.78559 0.95359 0.51368 0.0
C1144 C 0.88303 0.08235 0.51968 0.0
C1145 C 0.87415 0.10857 0.51168 0.0
C1146 C 0.81564 0.00726 0.51313 0.0
C1147 C 0.83545 0.08243 0.50447 0.0
C1148 C 0.7696 0.92588 0.50424 0.0
C1149 C 0.75135 0.8809 0.52429 0.0
N1150 N 0.80784 0.03292 0.50528 0.0
N1151 N 0.7759 0.93042 0.5234 0.0
H1152 H 0.88498 0.76649 0.66527 0.0
H1153 H 0.7598 0.88971 0.69708 0.0
H1154 H 0.84453 0.73166 0.69865 0.0
H1155 H 0.72571 0.85088 0.66359 0.0
H1156 H 0.80246 0.84323 0.69775 0.0
H1157 H 0.83807 0.80883 0.66449 0.0
C1158 C 0.86662 0.7682 0.67249 0.0
C1159 C 0.86907 0.74604 0.6821 0.0
C1160 C 0.78565 0.84491 0.69027 0.0
C1161 C 0.81548 0.79443 0.6812 0.0
C1162 C 0.76174 0.87181 0.68982 0.0
C1163 C 0.73966 0.8746 0.68021 0.0
C1164 C 0.78849 0.82141 0.68099 0.0
C1165 C 0.74251 0.84985 0.67112 0.0
C1166 C 0.83949 0.79191 0.67197 0.0
C1167 C 0.84376 0.74853 0.69112 0.0
N1168 N 0.76708 0.82462 0.6717 0.0
N1169 N 0.81837 0.77289 0.69049 0.0
H1170 H 0.85674 0.67716 0.84999 0.0
H1171 H 0.10473 0.9308 0.84263 0.0
H1172 H 0.86559 0.8078 0.83695 0.0
H1173 H 0.09942 0.80888 0.85961 0.0
H1174 H 0.01735 0.88362 0.83975 0.0
H1175 H 0.94598 0.7211 0.85225 0.0
C1176 C 0.87772 0.71463 0.84728 0.0
C1177 C 0.85412 0.73895 0.84317 0.0
C1178 C 0.03499 0.86712 0.8442 0.0
C1179 C 0.95542 0.78947 0.84595 0.0
C1180 C 0.08506 0.89423 0.84592 0.0
C1181 C 0.10964 0.87385 0.85139 0.0
C1182 C 0.00874 0.81899 0.84797 0.0
C1183 C 0.08194 0.82615 0.8554 0.0
C1184 C 0.92843 0.73985 0.84873 0.0
C1185 C 0.88256 0.78779 0.84008 0.0
N1186 N 0.03285 0.80014 0.85357 0.0
N1187 N 0.93164 0.81143 0.84156 0.0
H1188 H 0.35947 0.1498 0.9316 0.0
H1189 H 0.37882 0.20178 0.99485 0.0
H1190 H 0.44063 0.10975 0.95334 0.0
H1191 H 0.28706 0.22876 0.97336 0.0
H1192 H 0.39864 0.16401 0.97996 0.0
H1193 H 0.32654 0.17164 0.94703 0.0
C1194 C 0.36943 0.14437 0.93963 0.0
C1195 C 0.40338 0.12843 0.94115 0.0
C1196 C 0.37404 0.17805 0.97851 0.0
C1197 C 0.36696 0.15499 0.95889 0.0
C1198 C 0.36296 0.19995 0.987 0.0
C1199 C 0.3315 0.21887 0.98535 0.0
C1200 C 0.35371 0.17522 0.96827 0.0
C1201 C 0.3117 0.21497 0.97501 0.0
C1202 C 0.35106 0.15747 0.94845 0.0
C1203 C 0.4153 0.12279 0.95178 0.0
N1204 N 0.32329 0.19381 0.96688 0.0
N1205 N 0.3977 0.13672 0.96022 0.0
H1206 H 0.04216 0.30963 0.13751 0.0
H1207 H 0.32409 0.4489 0.12037 0.0
H1208 H 0.16031 0.385 0.16018 0.0
H1209 H 0.20407 0.38168 0.09788 0.0
H1210 H 0.26553 0.41898 0.13525 0.0
H1211 H 0.10165 0.33105 0.1231 0.0
C1212 C 0.08065 0.33092 0.13947 0.0
C1213 C 0.09614 0.34564 0.15011 0.0
C1214 C 0.25206 0.4103 0.12706 0.0
C1215 C 0.16481 0.36994 0.13355 0.0
C1216 C 0.28548 0.42719 0.11856 0.0
C1217 C 0.26904 0.41819 0.10783 0.0
C1218 C 0.20176 0.38416 0.12484 0.0
C1219 C 0.21861 0.38931 0.10599 0.0
C1220 C 0.11468 0.34297 0.13122 0.0
C1221 C 0.14661 0.3731 0.15211 0.0
N1222 N 0.18683 0.37382 0.11439 0.0
N1223 N 0.17914 0.3843 0.14391 0.0
H1224 H 0.82141 0.21391 0.26478 0.0
H1225 H 0.75464 0.17875 0.32742 0.0
H1226 H 0.84617 0.33324 0.28568 0.0
H1227 H 0.74569 0.06493 0.30669 0.0
H1228 H 0.79103 0.23692 0.31254 0.0
H1229 H 0.79974 0.16071 0.28041 0.0
C1230 C 0.82354 0.22939 0.27267 0.0
C1231 C 0.8353 0.27826 0.27384 0.0
C1232 C 0.78124 0.19923 0.31128 0.0
C1233 C 0.80858 0.2166 0.29185 0.0
C1234 C 0.76019 0.16593 0.31975 0.0
C1235 C 0.74675 0.11672 0.31831 0.0
C1236 C 0.78877 0.18319 0.30127 0.0
C1237 C 0.75519 0.10236 0.3082 0.0
C1238 C 0.81045 0.19867 0.28162 0.0
C1239 C 0.83644 0.29563 0.28434 0.0
N1240 N 0.77543 0.13531 0.3001 0.0
N1241 N 0.82258 0.26472 0.29291 0.0
H1242 H 0.58328 0.80915 0.43051 0.0
H1243 H 0.57583 0.77024 0.49441 0.0
H1244 H 0.51042 0.85913 0.45212 0.0
H1245 H 0.6213 0.69849 0.47136 0.0
H1246 H 0.56103 0.81236 0.47951 0.0
H1247 H 0.61091 0.78158 0.44598 0.0
C1248 C 0.57425 0.81563 0.43852 0.0
C1249 C 0.54408 0.83608 0.44 0.0
C1250 C 0.57423 0.78736 0.47774 0.0
C1251 C 0.57431 0.80308 0.45778 0.0
C1252 C 0.58241 0.76306 0.48624 0.0
C1253 C 0.59962 0.73048 0.48416 0.0
C1254 C 0.58372 0.77934 0.46711 0.0
C1255 C 0.60783 0.723 0.47339 0.0
C1256 C 0.5894 0.79916 0.44736 0.0
C1257 C 0.53308 0.84292 0.45061 0.0
N1258 N 0.59993 0.74726 0.46531 0.0
N1259 N 0.54766 0.82591 0.45909 0.0
H1260 H 0.61944 0.5247 0.61985 0.0
H1261 H 0.8918 0.61351 0.63839 0.0
H1262 H 0.74365 0.58717 0.59851 0.0
H1263 H 0.77939 0.58975 0.66134 0.0
H1264 H 0.83573 0.60191 0.62381 0.0
H1265 H 0.67537 0.5498 0.6353 0.0
C1266 C 0.65847 0.5448 0.61843 0.0
C1267 C 0.67689 0.55343 0.60786 0.0
C1268 C 0.8232 0.59938 0.63202 0.0
C1269 C 0.74083 0.58125 0.62544 0.0
C1270 C 0.85516 0.60558 0.64039 0.0
C1271 C 0.84038 0.60259 0.65114 0.0
C1272 C 0.77565 0.58958 0.63434 0.0
C1273 C 0.79232 0.59224 0.65317 0.0
C1274 C 0.69031 0.55888 0.62724 0.0
C1275 C 0.72771 0.57985 0.60648 0.0
N1276 N 0.76152 0.58591 0.64483 0.0
N1277 N 0.7578 0.59203 0.61515 0.0
H1278 H 0.25445 0.90437 0.80562 0.0
H1279 H 0.09844 0.63028 0.78608 0.0
H1280 H 0.18566 0.78622 0.82848 0.0
H1281 H 0.1338 0.75547 0.76613 0.0
H1282 H 0.12686 0.68387 0.80191 0.0
H1283 H 0.21089 0.8478 0.79114 0.0
C1284 C 0.23027 0.8664 0.80762 0.0
C1285 C 0.2238 0.85014 0.81832 0.0
C1286 C 0.12735 0.69931 0.79409 0.0
C1287 C 0.17311 0.78471 0.80162 0.0
C1288 C 0.11098 0.66878 0.78506 0.0
C1289 C 0.11422 0.68844 0.77472 0.0
C1290 C 0.14751 0.74982 0.79272 0.0
C1291 C 0.13036 0.73848 0.7739 0.0
C1292 C 0.20499 0.83408 0.79931 0.0
C1293 C 0.19185 0.80034 0.82034 0.0
N1294 N 0.14716 0.76745 0.78273 0.0
N1295 N 0.16779 0.76924 0.81205 0.0
H1296 H 0.85875 0.51672 0.91262 0.0
H1297 H 0.71856 0.6561 0.89306 0.0
H1298 H 0.80835 0.58992 0.93401 0.0
H1299 H 0.76565 0.58104 0.87132 0.0
H1300 H 0.75512 0.63542 0.90799 0.0
H1301 H 0.83152 0.54564 0.89723 0.0
C1302 C 0.84278 0.53965 0.91407 0.0
C1303 C 0.83555 0.55063 0.92464 0.0
C1304 C 0.75754 0.62345 0.89997 0.0
C1305 C 0.80368 0.58332 0.90706 0.0
C1306 C 0.73643 0.63507 0.89141 0.0
C1307 C 0.73891 0.62027 0.88088 0.0
C1308 C 0.78156 0.59684 0.89804 0.0
C1309 C 0.76258 0.59303 0.8793 0.0
C1310 C 0.827 0.55592 0.90528 0.0
C1311 C 0.81503 0.5808 0.92603 0.0
N1312 N 0.78305 0.58227 0.88778 0.0
N1313 N 0.79933 0.59558 0.91735 0.0
H1314 H 0.31642 0.84861 0.081 0.0
H1315 H 0.0402 0.73204 0.06015 0.0
H1316 H 0.19223 0.79578 0.10223 0.0
H1317 H 0.16096 0.75991 0.03939 0.0
H1318 H 0.0963 0.76277 0.07542 0.0
H1319 H 0.26131 0.82581 0.06552 0.0
C1320 C 0.27758 0.83266 0.08242 0.0
C1321 C 0.25901 0.82357 0.09298 0.0
C1322 C 0.11059 0.76213 0.06753 0.0
C1323 C 0.19551 0.79732 0.07521 0.0
C1324 C 0.07852 0.74445 0.05878 0.0
C1325 C 0.0957 0.74309 0.04842 0.0
C1326 C 0.16055 0.77905 0.06598 0.0
C1327 C 0.14589 0.75989 0.04721 0.0
C1328 C 0.24612 0.81953 0.07356 0.0
C1329 C 0.20838 0.8037 0.09428 0.0
N1330 N 0.17651 0.77725 0.05587 0.0
N1331 N 0.17844 0.79089 0.08552 0.0
H1332 H 0.34995 0.20194 0.26513 0.0
H1333 H 0.38162 0.16783 0.20238 0.0
H1334 H 0.44021 0.32224 0.24408 0.0
H1335 H 0.27609 0.05382 0.22289 0.0
H1336 H 0.40389 0.22534 0.21743 0.0
H1337 H 0.31994 0.14823 0.24952 0.0
C1338 C 0.36263 0.21744 0.25721 0.0
C1339 C 0.39808 0.26677 0.25598 0.0
C1340 C 0.3758 0.18773 0.21861 0.0
C1341 C 0.36499 0.20474 0.23801 0.0
C1342 C 0.36334 0.15478 0.21004 0.0
C1343 C 0.32699 0.10577 0.21135 0.0
C1344 C 0.35196 0.17151 0.22858 0.0
C1345 C 0.30432 0.09115 0.22147 0.0
C1346 C 0.34592 0.1865 0.24828 0.0
C1347 C 0.41359 0.28429 0.24546 0.0
N1348 N 0.31723 0.12374 0.22966 0.0
N1349 N 0.39748 0.25323 0.23691 0.0
H1350 H 0.09133 0.44755 0.41157 0.0
H1351 H 0.21209 0.29156 0.39092 0.0
H1352 H 0.13569 0.3674 0.43251 0.0
H1353 H 0.18546 0.38598 0.37028 0.0
H1354 H 0.17445 0.31091 0.40582 0.0
H1355 H 0.11399 0.41577 0.39598 0.0
C1356 C 0.10506 0.4226 0.41289 0.0
C1357 C 0.11219 0.41068 0.4234 0.0
C1358 C 0.17673 0.32738 0.39803 0.0
C1359 C 0.1384 0.37431 0.40556 0.0
C1360 C 0.19843 0.31648 0.3895 0.0
C1361 C 0.20245 0.33751 0.37932 0.0
C1362 C 0.15874 0.35959 0.39643 0.0
C1363 C 0.18357 0.36921 0.378 0.0
C1364 C 0.11814 0.40462 0.40398 0.0
C1365 C 0.12934 0.37755 0.42459 0.0
N1366 N 0.16269 0.3794 0.38646 0.0
N1367 N 0.14238 0.36103 0.4158 0.0
H1368 H 0.88912 0.19327 0.55639 0.0
H1369 H 0.68165 0.21326 0.58569 0.0
H1370 H 0.80297 0.24429 0.53966 0.0
H1371 H 0.70222 0.09036 0.59258 0.0
H1372 H 0.73201 0.23101 0.56987 0.0
H1373 H 0.82806 0.16153 0.5708 0.0
C1374 C 0.8574 0.19791 0.55576 0.0
C1375 C 0.85137 0.22203 0.54688 0.0
C1376 C 0.72496 0.19975 0.57476 0.0
C1377 C 0.78178 0.186 0.56335 0.0
C1378 C 0.69554 0.18896 0.58381 0.0
C1379 C 0.68598 0.14906 0.5905 0.0
C1380 C 0.74702 0.1719 0.57245 0.0
C1381 C 0.70828 0.12143 0.58777 0.0
C1382 C 0.82244 0.17934 0.56394 0.0
C1383 C 0.80919 0.22624 0.54639 0.0
N1384 N 0.73821 0.13369 0.57901 0.0
N1385 N 0.77635 0.20908 0.55461 0.0
H1386 H 0.59873 0.74786 0.76447 0.0
H1387 H 0.57327 0.77966 0.70118 0.0
H1388 H 0.50561 0.6255 0.74417 0.0
H1389 H 0.62395 0.89476 0.72485 0.0
H1390 H 0.56046 0.72141 0.71575 0.0
H1391 H 0.62467 0.80045 0.7487 0.0
C1392 C 0.58476 0.73161 0.75666 0.0
C1393 C 0.54941 0.68211 0.75571 0.0
C1394 C 0.57447 0.75949 0.71769 0.0
C1395 C 0.57789 0.74292 0.73757 0.0
C1396 C 0.58159 0.79268 0.7094 0.0
C1397 C 0.59939 0.8422 0.71178 0.0
C1398 C 0.58607 0.77625 0.72836 0.0
C1399 C 0.60983 0.85702 0.72258 0.0
C1400 C 0.59904 0.76194 0.74765 0.0
C1401 C 0.53231 0.66362 0.74531 0.0
N1402 N 0.60318 0.82435 0.73041 0.0
N1403 N 0.54617 0.69414 0.73665 0.0
H1404 H 0.50826 0.31406 0.02377 0.0
H1405 H 0.7311 0.56725 1.00444 0.0
H1406 H 0.48799 0.43068 1.01145 0.0
H1407 H 0.73323 0.43177 1.00361 0.0
H1408 H 0.64458 0.52191 1.0096 0.0
H1409 H 0.59527 0.36217 0.01946 0.0
C1410 C 0.52224 0.3499 0.02023 0.0
C1411 C 0.49107 0.36829 0.01781 0.0
C1412 C 0.66405 0.50223 1.00822 0.0
C1413 C 0.58983 0.42315 1.01292 0.0
C1414 C 0.71312 0.52795 1.00528 0.0
C1415 C 0.73879 0.50294 1.00357 0.0
C1416 C 0.64121 0.45151 1.00962 0.0
C1417 C 0.71429 0.45214 1.00474 0.0
C1418 C 0.57166 0.37713 0.01772 0.0
C1419 C 0.51087 0.415 1.01329 0.0
N1420 N 0.66681 0.42803 1.00778 0.0
N1421 N 0.55918 0.44095 1.01097 0.0
H1422 H 0.03886 0.4955 0.1782 0.0
H1423 H 0.29424 0.73921 0.17295 0.0
H1424 H 0.17428 0.50877 0.18966 0.0
H1425 H 0.15741 0.73913 0.17292 0.0
H1426 H 0.25035 0.6523 0.17736 0.0
H1427 H 0.08115 0.58345 0.17492 0.0
C1428 C 0.07745 0.517 0.18005 0.0
C1429 C 0.10337 0.49499 0.18409 0.0
C1430 C 0.22996 0.67134 0.17642 0.0
C1431 C 0.15173 0.59492 0.18027 0.0
C1432 C 0.25487 0.72064 0.17381 0.0
C1433 C 0.22921 0.74596 0.1726 0.0
C1434 C 0.17905 0.64725 0.17768 0.0
C1435 C 0.17836 0.72068 0.17389 0.0
C1436 C 0.10145 0.56707 0.17821 0.0
C1437 C 0.15309 0.52439 0.18648 0.0
N1438 N 0.15477 0.67245 0.17632 0.0
N1439 N 0.17585 0.57291 0.18443 0.0
H1440 H 0.53399 0.30159 0.33357 0.0
H1441 H 0.52684 0.05134 0.34514 0.0
H1442 H 0.3983 0.16576 0.33645 0.0
H1443 H 0.64629 0.19056 0.35522 0.0
H1444 H 0.48033 0.09138 0.34011 0.0
H1445 H 0.57831 0.25984 0.33906 0.0
C1446 C 0.51372 0.26277 0.3352 0.0
C1447 C 0.46266 0.23683 0.33457 0.0
C1448 C 0.51658 0.11302 0.3435 0.0
C1449 C 0.51263 0.18933 0.34095 0.0
C1450 C 0.54308 0.09031 0.34635 0.0
C1451 C 0.59049 0.11794 0.35049 0.0
C1452 C 0.53816 0.16371 0.34463 0.0
C1453 C 0.60981 0.1681 0.35203 0.0
C1454 C 0.53885 0.23919 0.33846 0.0
C1455 C 0.43777 0.18684 0.3369 0.0
N1456 N 0.58373 0.18962 0.34895 0.0
N1457 N 0.46309 0.16453 0.33999 0.0
H1458 H 0.22299 0.53872 0.5017 0.0
H1459 H 0.46707 0.53094 0.51179 0.0
H1460 H 0.22296 0.40267 0.50491 0.0
H1461 H 0.44811 0.65145 0.52172 0.0
H1462 H 0.3799 0.48412 0.50746 0.0
H1463 H 0.30933 0.58264 0.50669 0.0
C1464 C 0.2415 0.51824 0.50333 0.0
C1465 C 0.21628 0.46721 0.50289 0.0
C1466 C 0.3949 0.52069 0.51066 0.0
C1467 C 0.31424 0.51684 0.50871 0.0
C1468 C 0.44447 0.5474 0.51309 0.0
C1469 C 0.46464 0.59519 0.517 0.0
C1470 C 0.36583 0.54243 0.51196 0.0
C1471 C 0.43391 0.61475 0.51867 0.0
C1472 C 0.29042 0.54318 0.50629 0.0
C1473 C 0.24141 0.44212 0.50522 0.0
N1474 N 0.38597 0.58842 0.51602 0.0
N1475 N 0.28932 0.46729 0.50801 0.0
H1476 H 0.80875 0.44801 0.69528 0.0
H1477 H 0.78456 0.24598 0.65494 0.0
H1478 H 0.90796 0.4834 0.66849 0.0
H1479 H 0.73953 0.21564 0.68818 0.0
H1480 H 0.82911 0.33343 0.65917 0.0
H1481 H 0.78018 0.36175 0.69228 0.0
C1482 C 0.82464 0.4376 0.6888 0.0
C1483 C 0.86069 0.47268 0.68213 0.0
C1484 C 0.81017 0.30739 0.66555 0.0
C1485 C 0.82788 0.37448 0.67856 0.0
C1486 C 0.78472 0.25779 0.66313 0.0
C1487 C 0.75833 0.22395 0.67122 0.0
C1488 C 0.80812 0.32272 0.67605 0.0
C1489 C 0.75976 0.24066 0.68174 0.0
C1490 C 0.80854 0.38847 0.68712 0.0
C1491 C 0.88 0.45733 0.67381 0.0
N1492 N 0.78368 0.28903 0.68382 0.0
N1493 N 0.86293 0.40912 0.67218 0.0
H1494 H 0.56897 0.81763 0.8355 0.0
H1495 H 0.31572 0.78319 0.85638 0.0
H1496 H 0.434 0.68036 0.83408 0.0
H1497 H 0.43017 0.92134 0.84441 0.0
H1498 H 0.3644 0.74564 0.85121 0.0
H1499 H 0.52294 0.85766 0.84115 0.0
C1500 C 0.5296 0.79621 0.83626 0.0
C1501 C 0.50496 0.74592 0.83429 0.0
C1502 C 0.37879 0.78421 0.84976 0.0
C1503 C 0.4528 0.79066 0.84094 0.0
C1504 C 0.35132 0.80565 0.85278 0.0
C1505 C 0.36889 0.85515 0.85068 0.0
C1506 C 0.42425 0.81278 0.84478 0.0
C1507 C 0.41518 0.88282 0.84602 0.0
C1508 C 0.5035 0.81887 0.83949 0.0
C1509 C 0.45407 0.7194 0.8354 0.0
N1510 N 0.4414 0.8612 0.8432 0.0
N1511 N 0.42961 0.74206 0.83877 0.0
H1512 H 0.61104 0.44786 0.83667 0.0
H1513 H 0.43648 0.24546 0.87724 0.0
H1514 H 0.54434 0.48341 0.86288 0.0
H1515 H 0.45251 0.21549 0.84403 0.0
H1516 H 0.47789 0.33299 0.87295 0.0
H1517 H 0.55562 0.36167 0.84 0.0
C1518 C 0.58447 0.43748 0.84309 0.0
C1519 C 0.58209 0.47265 0.84949 0.0
C1520 C 0.47142 0.30696 0.8666 0.0
C1521 C 0.51927 0.37425 0.85347 0.0
C1522 C 0.44819 0.25731 0.86905 0.0
C1523 C 0.44136 0.22351 0.86097 0.0
C1524 C 0.48852 0.32237 0.8561 0.0
C1525 C 0.45671 0.24037 0.85047 0.0
C1526 C 0.55277 0.38832 0.84496 0.0
C1527 C 0.54721 0.45725 0.85775 0.0
N1528 N 0.48014 0.28871 0.84836 0.0
N1529 N 0.51734 0.40892 0.8596 0.0
H1530 H 0.17563 0.65414 1.00832 0.0
H1531 H 0.15426 0.40612 0.0288 0.0
H1532 H 0.04058 0.53791 0.0212 0.0
H1533 H 0.28804 0.54462 0.02975 0.0
H1534 H 0.10998 0.44856 0.02348 0.0
H1535 H 0.21582 0.60751 1.01293 0.0
C1536 C 0.15438 0.61864 1.01204 0.0
C1537 C 0.10502 0.60008 1.01456 0.0
C1538 C 0.14894 0.4695 0.02495 0.0
C1539 C 0.1506 0.54692 0.01984 0.0
C1540 C 0.17405 0.44546 0.02798 0.0
C1541 C 0.22462 0.47219 0.02972 0.0
C1542 C 0.17502 0.52022 0.02347 0.0
C1543 C 0.24891 0.52295 0.02858 0.0
C1544 C 0.17736 0.59226 1.01472 0.0
C1545 C 0.07897 0.55373 0.01928 0.0
N1546 N 0.22391 0.54536 0.02542 0.0
N1547 N 0.10218 0.52861 0.02182 0.0
H1548 H 0.72656 0.29285 0.19559 0.0
H1549 H 0.48453 0.04253 0.1834 0.0
H1550 H 0.72683 0.15707 0.19217 0.0
H1551 H 0.5018 0.18291 0.17502 0.0
H1552 H 0.57104 0.08251 0.1883 0.0
H1553 H 0.64049 0.25139 0.19031 0.0
C1554 C 0.70817 0.25411 0.19387 0.0
C1555 C 0.73347 0.22815 0.19431 0.0
C1556 C 0.5559 0.10444 0.18532 0.0
C1557 C 0.63574 0.18088 0.18815 0.0
C1558 C 0.50665 0.08174 0.18254 0.0
C1559 C 0.48611 0.10962 0.17889 0.0
C1560 C 0.58437 0.15536 0.18462 0.0
C1561 C 0.5163 0.16016 0.17782 0.0
C1562 C 0.65938 0.23067 0.19073 0.0
C1563 C 0.70841 0.17825 0.19186 0.0
N1564 N 0.56393 0.18156 0.1808 0.0
N1565 N 0.66071 0.15609 0.18889 0.0
H1566 H 0.39603 0.48384 0.36397 0.0
H1567 H 0.50377 0.75542 0.34253 0.0
H1568 H 0.34575 0.52223 0.33518 0.0
H1569 H 0.50963 0.72268 0.37609 0.0
H1570 H 0.46176 0.66859 0.3385 0.0
H1571 H 0.45195 0.57051 0.36737 0.0
C1572 C 0.39695 0.5105 0.35834 0.0
C1573 C 0.36619 0.49608 0.34929 0.0
C1574 C 0.4726 0.68044 0.34673 0.0
C1575 C 0.43014 0.59447 0.35307 0.0
C1576 C 0.49697 0.72992 0.34903 0.0
C1577 C 0.50989 0.74606 0.35967 0.0
C1578 C 0.46109 0.64688 0.35513 0.0
C1579 C 0.4996 0.71149 0.3678 0.0
C1580 C 0.42878 0.55976 0.3603 0.0
C1581 C 0.36877 0.5319 0.34225 0.0
N1582 N 0.47544 0.66322 0.36537 0.0
N1583 N 0.40034 0.57959 0.34429 0.0
H1584 H 0.66581 0.42597 0.52973 0.0
H1585 H 0.91641 0.43187 0.5186 0.0
H1586 H 0.80192 0.561 0.52629 0.0
H1587 H 0.77611 0.31003 0.50989 0.0
H1588 H 0.87647 0.47901 0.52309 0.0
H1589 H 0.70735 0.38106 0.5247 0.0
C1590 C 0.70464 0.44604 0.52806 0.0
C1591 C 0.73067 0.4971 0.52844 0.0
C1592 C 0.85455 0.44207 0.52013 0.0
C1593 C 0.77805 0.44627 0.52254 0.0
C1594 C 0.87722 0.41516 0.51759 0.0
C1595 C 0.84932 0.36692 0.51398 0.0
C1596 C 0.80364 0.42015 0.51922 0.0
C1597 C 0.79884 0.3471 0.51269 0.0
C1598 C 0.72812 0.42051 0.52506 0.0
C1599 C 0.78069 0.52157 0.52604 0.0
N1600 N 0.77745 0.37367 0.51543 0.0
N1601 N 0.80291 0.49585 0.52321 0.0
H1602 H 0.23975 0.78278 0.70992 0.0
H1603 H 0.44156 0.81478 0.66747 0.0
H1604 H 0.20737 0.73089 0.67713 0.0
H1605 H 0.47624 0.90325 0.69616 0.0
H1606 H 0.35493 0.78111 0.6713 0.0
H1607 H 0.32712 0.8254 0.70551 0.0
C1608 C 0.25113 0.78076 0.7018 0.0
C1609 C 0.21669 0.75364 0.69386 0.0
C1610 C 0.38153 0.80811 0.67673 0.0
C1611 C 0.31544 0.80144 0.68881 0.0
C1612 C 0.43089 0.82717 0.67456 0.0
C1613 C 0.46589 0.86167 0.68152 0.0
C1614 C 0.36729 0.82318 0.68601 0.0
C1615 C 0.45025 0.87662 0.69059 0.0
C1616 C 0.30071 0.80512 0.69928 0.0
C1617 C 0.23288 0.75205 0.68344 0.0
N1618 N 0.40191 0.85695 0.69263 0.0
N1619 N 0.28118 0.77536 0.68124 0.0
H1620 H 0.38999 0.13022 0.11688 0.0
H1621 H 0.35294 0.18145 0.05895 0.0
H1622 H 0.29773 0.02998 0.0924 0.0
H1623 H 0.42766 0.29064 0.08343 0.0
H1624 H 0.38021 0.13009 0.06773 0.0
H1625 H 0.43997 0.18773 0.1027 0.0
C1626 C 0.3801 0.12076 0.10851 0.0
C1627 C 0.33802 0.07708 0.10573 0.0
C1628 C 0.39218 0.16613 0.07097 0.0
C1629 C 0.39585 0.14072 0.08959 0.0
C1630 C 0.37643 0.19532 0.06596 0.0
C1631 C 0.38433 0.23817 0.07104 0.0
C1632 C 0.41279 0.17916 0.08133 0.0
C1633 C 0.41775 0.25611 0.07964 0.0
C1634 C 0.40917 0.15281 0.10045 0.0
C1635 C 0.32813 0.06479 0.09484 0.0
N1636 N 0.4292 0.22548 0.08484 0.0
N1637 N 0.35642 0.09671 0.08718 0.0
H1638 H 0.18564 0.40475 0.24251 0.0
H1639 H 0.29761 0.46223 0.29017 0.0
H1640 H 0.08504 0.44627 0.25582 0.0
H1641 H 0.14381 0.35484 0.29213 0.0
H1642 H 0.27861 0.50471 0.27639 0.0
H1643 H 0.2391 0.44291 0.258 0.0
C1644 C 0.17558 0.4234 0.24842 0.0
C1645 C 0.12942 0.41967 0.24812 0.0
C1646 C 0.24924 0.47263 0.28017 0.0
C1647 C 0.18979 0.46258 0.2658 0.0
C1648 C 0.25983 0.44693 0.28784 0.0
C1649 C 0.22309 0.40004 0.29124 0.0
C1650 C 0.20117 0.45316 0.27663 0.0
C1651 C 0.17451 0.38779 0.28911 0.0
C1652 C 0.20647 0.44591 0.25718 0.0
C1653 C 0.11929 0.44629 0.25581 0.0
N1654 N 0.16509 0.41345 0.28168 0.0
N1655 N 0.1481 0.46459 0.26462 0.0
H1656 H 0.85833 0.32473 0.44163 0.0
H1657 H 0.62534 0.09539 0.42241 0.0
H1658 H 0.7692 0.19224 0.45952 0.0
H1659 H 0.75704 0.18409 0.40424 0.0
H1660 H 0.64918 0.16166 0.43509 0.0
H1661 H 0.7915 0.30262 0.42916 0.0
C1662 C 0.82401 0.29197 0.44328 0.0
C1663 C 0.82005 0.25902 0.45141 0.0
C1664 C 0.67161 0.16746 0.42804 0.0
C1665 C 0.74388 0.23384 0.43699 0.0
C1666 C 0.65822 0.12957 0.42074 0.0
C1667 C 0.69061 0.13347 0.41251 0.0
C1668 C 0.71777 0.20889 0.42714 0.0
C1669 C 0.73223 0.17887 0.41078 0.0
C1670 C 0.78578 0.27961 0.43611 0.0
C1671 C 0.77447 0.21753 0.45308 0.0
N1672 N 0.7454 0.2146 0.41824 0.0
N1673 N 0.73836 0.20538 0.44573 0.0
H1674 H 0.57158 0.78282 0.56872 0.0
H1675 H 0.55568 0.79088 0.62413 0.0
H1676 H 0.50943 0.64762 0.58655 0.0
H1677 H 0.52031 0.8839 0.60525 0.0
H1678 H 0.5126 0.72594 0.61102 0.0
H1679 H 0.52723 0.80963 0.58032 0.0
C1680 C 0.5475 0.75818 0.57484 0.0
C1681 C 0.54658 0.71428 0.57705 0.0
C1682 C 0.51244 0.75989 0.60994 0.0
C1683 C 0.49669 0.74482 0.59045 0.0
C1684 C 0.53745 0.79701 0.61741 0.0
C1685 C 0.54333 0.84321 0.6155 0.0
C1686 C 0.49589 0.77034 0.60029 0.0
C1687 C 0.51783 0.84905 0.60685 0.0
C1688 C 0.52162 0.77317 0.58141 0.0
C1689 C 0.5129 0.68271 0.58475 0.0
N1690 N 0.49679 0.81362 0.5993 0.0
N1691 N 0.49065 0.69934 0.59145 0.0
H1692 H 0.85532 0.50833 0.75156 0.0
H1693 H 0.77006 0.55283 0.79188 0.0
H1694 H 0.76622 0.56292 0.73748 0.0
H1695 H 0.63408 0.51131 0.77546 0.0
H1696 H 0.78785 0.50779 0.77852 0.0
H1697 H 0.79048 0.46012 0.76396 0.0
C1698 C 0.82165 0.50921 0.7507 0.0
C1699 C 0.81778 0.54282 0.74383 0.0
C1700 C 0.75289 0.50638 0.7781 0.0
C1701 C 0.74451 0.48889 0.75856 0.0
C1702 C 0.74317 0.53285 0.7857 0.0
C1703 C 0.70196 0.53815 0.78448 0.0
C1704 C 0.72212 0.48714 0.76903 0.0
C1705 C 0.66733 0.50982 0.77657 0.0
C1706 C 0.78452 0.48141 0.75793 0.0
C1707 C 0.77227 0.54031 0.74312 0.0
N1708 N 0.67911 0.48714 0.76888 0.0
N1709 N 0.73783 0.51513 0.75069 0.0
H1710 H 0.0935 0.64004 0.94123 0.0
H1711 H 0.32681 0.87006 0.92241 0.0
H1712 H 0.18345 0.7717 0.9593 0.0
H1713 H 0.1954 0.78254 0.90396 0.0
H1714 H 0.30283 0.80297 0.93485 0.0
H1715 H 0.15994 0.66266 0.92861 0.0
C1716 C 0.12796 0.67269 0.94287 0.0
C1717 C 0.13233 0.70528 0.9511 0.0
C1718 C 0.28047 0.79763 0.92779 0.0
C1719 C 0.20801 0.73098 0.93658 0.0
C1720 C 0.29395 0.83602 0.92062 0.0
C1721 C 0.26165 0.8327 0.91239 0.0
C1722 C 0.23427 0.75632 0.92678 0.0
C1723 C 0.2201 0.78737 0.91051 0.0
C1724 C 0.16593 0.68535 0.93563 0.0
C1725 C 0.17797 0.74667 0.9528 0.0
N1726 N 0.20678 0.75117 0.91787 0.0
N1727 N 0.21385 0.75906 0.9454 0.0
loop_
_geom_bond_atom_site_label_1
_geom_bond_atom_site_label_2
_geom_bond_distance
_geom_bond_site_symmetry_2
_ccdc_geom_bond_type
C0 C1 1.359 . S
C0 N5 1.330 . S
C0 C61 1.504 . S
C1 C0 1.359 . S
C1 C2 1.366 . S
C1 H63 0.929 . S
C2 C1 1.366 . S
C2 C3 1.415 . S
C2 H64 0.932 . S
C3 C2 1.415 . S
C3 C4 1.366 . S
C3 H65 0.931 . S
C4 C3 1.366 . S
C4 N5 1.325 . S
C4 C6 1.516 . S
N5 C0 1.330 . S
N5 C4 1.325 . S
N5 Co21 1.869 . S
C6 C4 1.516 . S
C6 N30 1.316 . S
C6 O53 1.263 . S
C7 C8 1.421 . S
C7 C12 1.360 . S
C7 N30 1.436 . S
C8 C7 1.421 . S
C8 C9 1.379 . S
C8 H66 0.929 . S
C9 C8 1.379 . S
C9 C10 1.417 . S
C10 C9 1.417 . S
C10 C11 1.352 . S
C10 H67 0.929 . S
C11 C10 1.352 . S
C11 C12 1.393 . S
C12 C7 1.360 . S
C12 C11 1.393 . S
C12 H68 0.931 . S
Cd13 O33 2.329 1_554 S
Cd13 O35 2.350 . S
Cd13 O36 2.277 . S
Cd13 O38 2.173 . S
Cd13 O42 2.263 . S
Cd13 O53 2.366 . S
Cd14 O32 2.352 . S
Cd14 O39 2.295 . S
Cd14 O43 2.308 . S
C15 C19 1.403 . S
C15 C20 1.370 . S
C15 N31 1.423 . S
C16 C17 1.389 . S
C16 C20 1.389 . S
C17 C16 1.389 . S
C17 C18 1.379 . S
C17 H69 0.929 . S
C18 C17 1.379 . S
C18 C19 1.405 . S
C19 C15 1.403 . S
C19 C18 1.405 . S
C19 H70 0.932 . S
C20 C15 1.370 . S
C20 C16 1.389 . S
C20 H71 0.931 . S
Co21 N5 1.869 . S
Co21 N22 1.955 . S
Co21 N23 1.864 . S
Co21 N29 1.958 . S
Co21 N30 1.953 . S
Co21 N31 1.974 . S
N22 Co21 1.955 . S
N22 C40 1.329 . S
N22 C55 1.432 . S
N23 Co21 1.864 . S
N23 C24 1.327 . S
N23 C28 1.342 . S
C24 N23 1.327 . S
C24 C25 1.407 . S
C24 C40 1.481 . S
C25 C24 1.407 . S
C25 C26 1.364 . S
C25 H72 0.930 . S
C26 C25 1.364 . S
C26 C27 1.390 . S
C26 H73 0.931 . S
C27 C26 1.390 . S
C27 C28 1.346 . S
C27 H74 0.930 . S
C28 N23 1.342 . S
C28 C27 1.346 . S
C28 C44 1.516 . S
N29 Co21 1.958 . S
N29 C44 1.324 . S
N29 C46 1.427 . S
N30 C6 1.316 . S
N30 C7 1.436 . S
N30 Co21 1.953 . S
N31 C15 1.423 . S
N31 Co21 1.974 . S
N31 C61 1.309 . S
O32 Cd14 2.352 . S
O32 C52 1.235 . S
O33 Cd13 2.329 1_556 S
O33 C52 1.270 . S
C34 O35 1.270 . S
C34 O36 1.248 . S
O35 Cd13 2.350 . S
O35 C34 1.270 . S
O36 Cd13 2.277 . S
O36 C34 1.248 . S
C37 O38 1.277 . S
C37 O39 1.178 1_554 S
O38 Cd13 2.173 . S
O38 C37 1.277 . S
O39 Cd14 2.295 . S
O39 C37 1.178 1_556 S
C40 N22 1.329 . S
C40 C24 1.481 . S
C40 O41 1.246 . S
O41 C40 1.246 . S
O42 Cd13 2.263 . S
O42 C54 1.258 . S
O43 Cd14 2.308 . S
O43 C54 1.274 1_556 S
C44 C28 1.516 . S
C44 N29 1.324 . S
C44 O45 1.238 . S
O45 C44 1.238 . S
C46 N29 1.427 . S
C46 C47 1.394 . S
C46 C51 1.395 . S
C47 C46 1.394 . S
C47 C48 1.380 . S
C47 H75 0.929 . S
C48 C47 1.380 . S
C48 C49 1.384 . S
C48 C54 1.495 . S
C49 C48 1.384 . S
C49 C50 1.382 . S
C49 H76 0.930 . S
C50 C49 1.382 . S
C50 C51 1.398 . S
C51 C46 1.395 . S
C51 C50 1.398 . S
C51 H77 0.930 . S
C52 O32 1.235 . S
C52 O33 1.270 . S
O53 C6 1.263 . S
O53 Cd13 2.366 . S
C54 O42 1.258 . S
C54 O43 1.274 1_554 S
C54 C48 1.495 . S
C55 N22 1.432 . S
C55 C56 1.381 . S
C55 C60 1.385 . S
C56 C55 1.381 . S
C56 C57 1.371 . S
C56 H78 0.932 . S
C57 C56 1.371 . S
C57 C58 1.400 . S
C58 C57 1.400 . S
C58 C59 1.351 . S
C58 H79 0.930 . S
C59 C58 1.351 . S
C59 C60 1.388 . S
C60 C55 1.385 . S
C60 C59 1.388 . S
C60 H80 0.929 . S
C61 C0 1.504 . S
C61 N31 1.309 . S
C61 O62 1.258 . S
O62 C61 1.258 . S
H63 C1 0.929 . S
H64 C2 0.932 . S
H65 C3 0.931 . S
H66 C8 0.929 . S
H67 C10 0.929 . S
H68 C12 0.931 . S
H69 C17 0.929 . S
H70 C19 0.932 . S
H71 C20 0.931 . S
H72 C25 0.930 . S
H73 C26 0.931 . S
H74 C27 0.930 . S
H75 C47 0.929 . S
H76 C49 0.930 . S
H77 C51 0.930 . S
H78 C56 0.932 . S
H79 C58 0.930 . S
H80 C60 0.929 . S
C81 C82 1.359 . S
C81 N86 1.330 . S
C81 C142 1.504 . S
C82 C81 1.359 . S
C82 C83 1.366 . S
C82 H144 0.929 . S
C83 C82 1.366 . S
C83 C84 1.415 1_655 S
C83 H145 0.932 1_655 S
C84 C83 1.415 1_455 S
C84 C85 1.366 . S
C84 H146 0.931 . S
C85 C84 1.366 . S
C85 N86 1.325 1_455 S
C85 C87 1.516 . S
N86 C81 1.330 . S
N86 C85 1.325 1_655 S
N86 Co102 1.869 . S
C87 C85 1.516 . S
C87 N111 1.316 . S
C87 O134 1.263 . S
C88 C89 1.421 . S
C88 C93 1.360 . S
C88 N111 1.436 . S
C89 C88 1.421 . S
C89 C90 1.379 . S
C89 H147 0.929 . S
C90 C89 1.379 . S
C90 C91 1.417 . S
C91 C90 1.417 . S
C91 C92 1.352 . S
C91 H148 0.929 . S
C92 C91 1.352 . S
C92 C93 1.393 . S
C93 C88 1.360 . S
C93 C92 1.393 . S
C93 H149 0.931 1_455 S
Cd94 O114 2.329 . S
Cd94 O116 2.350 . S
Cd94 O117 2.277 . S
Cd94 O119 2.173 . S
Cd94 O123 2.263 . S
Cd94 O134 2.366 . S
Cd95 O113 2.352 . S
Cd95 O120 2.250 . S
Cd95 O124 2.308 1_455 S
C96 C100 1.403 . S
C96 C101 1.370 . S
C96 N112 1.423 . S
C97 C98 1.389 . S
C97 C101 1.389 . S
C98 C97 1.389 . S
C98 C99 1.379 . S
C98 H150 0.929 . S
C99 C98 1.379 . S
C99 C100 1.405 . S
C100 C96 1.403 . S
C100 C99 1.405 . S
C100 H151 0.932 . S
C101 C96 1.370 . S
C101 C97 1.389 . S
C101 H152 0.931 . S
Co102 N86 1.869 . S
Co102 N103 1.955 1_655 S
Co102 N104 1.864 . S
Co102 N110 1.958 . S
Co102 N111 1.953 1_655 S
Co102 N112 1.974 . S
N103 Co102 1.955 1_455 S
N103 C121 1.329 . S
N103 C136 1.432 . S
N104 Co102 1.864 . S
N104 C105 1.327 . S
N104 C109 1.342 . S
C105 N104 1.327 . S
C105 C106 1.407 . S
C105 C121 1.481 1_655 S
C106 C105 1.407 . S
C106 C107 1.364 . S
C106 H153 0.930 . S
C107 C106 1.364 . S
C107 C108 1.390 . S
C107 H154 0.931 . S
C108 C107 1.390 . S
C108 C109 1.346 . S
C108 H155 0.930 . S
C109 N104 1.342 . S
C109 C108 1.346 . S
C109 C125 1.516 . S
N110 Co102 1.958 . S
N110 C125 1.324 . S
N110 C127 1.427 . S
N111 C87 1.316 . S
N111 C88 1.436 . S
N111 Co102 1.953 1_455 S
N112 C96 1.423 . S
N112 Co102 1.974 . S
N112 C142 1.309 . S
O113 Cd95 2.352 . S
O113 C133 1.235 . S
O114 Cd94 2.329 . S
O114 C133 1.270 . S
C115 O116 1.270 . S
C115 O117 1.248 . S
O116 Cd94 2.350 . S
O116 C115 1.270 . S
O117 Cd94 2.277 . S
O117 C115 1.248 . S
C118 O119 1.277 . S
C118 O120 1.230 . S
O119 Cd94 2.173 . S
O119 C118 1.277 . S
O120 Cd95 2.250 . S
O120 C118 1.230 . S
C121 N103 1.329 . S
C121 C105 1.481 1_455 S
C121 O122 1.246 . S
O122 C121 1.246 . S
O123 Cd94 2.263 . S
O123 C135 1.258 1_455 S
O124 Cd95 2.308 1_655 S
O124 C135 1.274 . S
C125 C109 1.516 . S
C125 N110 1.324 . S
C125 O126 1.238 . S
O126 C125 1.238 . S
C127 N110 1.427 . S
C127 C128 1.394 . S
C127 C132 1.395 . S
C128 C127 1.394 . S
C128 C129 1.380 . S
C128 H156 0.929 . S
C129 C128 1.380 . S
C129 C130 1.384 . S
C129 C135 1.495 . S
C130 C129 1.384 . S
C130 C131 1.382 . S
C130 H157 0.930 . S
C131 C130 1.382 . S
C131 C132 1.398 . S
C132 C127 1.395 . S
C132 C131 1.398 . S
C132 H158 0.930 . S
C133 O113 1.235 . S
C133 O114 1.270 . S
O134 C87 1.263 . S
O134 Cd94 2.366 . S
C135 O123 1.258 1_655 S
C135 O124 1.274 . S
C135 C129 1.495 . S
C136 N103 1.432 . S
C136 C137 1.381 . S
C136 C141 1.385 . S
C137 C136 1.381 . S
C137 C138 1.371 . S
C137 H159 0.932 1_455 S
C138 C137 1.371 . S
C138 C139 1.400 . S
C139 C138 1.400 . S
C139 C140 1.351 . S
C139 H160 0.930 . S
C140 C139 1.351 . S
C140 C141 1.388 . S
C141 C136 1.385 . S
C141 C140 1.388 . S
C141 H161 0.929 . S
C142 C81 1.504 . S
C142 N112 1.309 . S
C142 O143 1.258 . S
O143 C142 1.258 . S
H144 C82 0.929 . S
H145 C83 0.932 1_455 S
H146 C84 0.931 . S
H147 C89 0.929 . S
H148 C91 0.929 . S
H149 C93 0.931 1_655 S
H150 C98 0.929 . S
H151 C100 0.932 . S
H152 C101 0.931 . S
H153 C106 0.930 . S
H154 C107 0.931 . S
H155 C108 0.930 . S
H156 C128 0.929 . S
H157 C130 0.930 . S
H158 C132 0.930 . S
H159 C137 0.932 1_655 S
H160 C139 0.930 . S
H161 C141 0.929 . S
C162 C163 1.359 . S
C162 N167 1.330 . S
C162 C223 1.504 . S
C163 C162 1.359 . S
C163 C164 1.366 . S
C163 H225 0.929 . S
C164 C163 1.366 . S
C164 C165 1.415 1_565 S
C164 H226 0.932 1_565 S
C165 C164 1.415 1_545 S
C165 C166 1.366 . S
C165 H227 0.931 . S
C166 C165 1.366 . S
C166 N167 1.325 1_545 S
C166 C168 1.516 . S
N167 C162 1.330 . S
N167 C166 1.325 1_565 S
N167 Co183 1.869 . S
C168 C166 1.516 . S
C168 N192 1.316 . S
C168 O215 1.263 . S
C169 C170 1.421 . S
C169 C174 1.360 . S
C169 N192 1.436 . S
C170 C169 1.421 . S
C170 C171 1.379 . S
C170 H228 0.929 . S
C171 C170 1.379 . S
C171 C172 1.417 . S
C172 C171 1.417 . S
C172 C173 1.352 . S
C172 H229 0.929 . S
C173 C172 1.352 . S
C173 C174 1.393 . S
C174 C169 1.360 . S
C174 C173 1.393 . S
C174 H230 0.931 1_545 S
Cd175 O195 2.329 . S
Cd175 O197 2.350 . S
Cd175 O198 2.277 . S
Cd175 O200 2.173 . S
Cd175 O204 2.263 . S
Cd175 O215 2.366 . S
Cd176 O194 2.352 . S
Cd176 O201 2.250 . S
Cd176 O205 2.308 1_545 S
C177 C181 1.403 . S
C177 C182 1.370 . S
C177 N193 1.423 . S
C178 C179 1.389 . S
C178 C182 1.389 . S
C179 C178 1.389 . S
C179 C180 1.379 . S
C179 H231 0.929 . S
C180 C179 1.379 . S
C180 C181 1.405 . S
C181 C177 1.403 . S
C181 C180 1.405 . S
C181 H232 0.932 . S
C182 C177 1.370 . S
C182 C178 1.389 . S
C182 H233 0.931 . S
Co183 N167 1.869 . S
Co183 N184 1.955 1_565 S
Co183 N185 1.864 . S
Co183 N191 1.958 . S
Co183 N192 1.953 1_565 S
Co183 N193 1.974 . S
N184 Co183 1.955 1_545 S
N184 C202 1.329 . S
N184 C217 1.432 . S
N185 Co183 1.864 . S
N185 C186 1.327 . S
N185 C190 1.342 . S
C186 N185 1.327 . S
C186 C187 1.407 . S
C186 C202 1.481 1_565 S
C187 C186 1.407 . S
C187 C188 1.364 . S
C187 H234 0.930 . S
C188 C187 1.364 . S
C188 C189 1.390 . S
C188 H235 0.931 . S
C189 C188 1.390 . S
C189 C190 1.346 . S
C189 H236 0.930 . S
C190 N185 1.342 . S
C190 C189 1.346 . S
C190 C206 1.516 . S
N191 Co183 1.958 . S
N191 C206 1.324 . S
N191 C208 1.427 . S
N192 C168 1.316 . S
N192 C169 1.436 . S
N192 Co183 1.953 1_545 S
N193 C177 1.423 . S
N193 Co183 1.974 . S
N193 C223 1.309 . S
O194 Cd176 2.352 . S
O194 C214 1.235 . S
O195 Cd175 2.329 . S
O195 C214 1.270 . S
C196 O197 1.270 . S
C196 O198 1.248 . S
O197 Cd175 2.350 . S
O197 C196 1.270 . S
O198 Cd175 2.277 . S
O198 C196 1.248 . S
C199 O200 1.277 . S
C199 O201 1.230 . S
O200 Cd175 2.173 . S
O200 C199 1.277 . S
O201 Cd176 2.250 . S
O201 C199 1.230 . S
C202 N184 1.329 . S
C202 C186 1.481 1_545 S
C202 O203 1.246 . S
O203 C202 1.246 . S
O204 Cd175 2.263 . S
O204 C216 1.258 1_545 S
O205 Cd176 2.308 1_565 S
O205 C216 1.274 . S
C206 C190 1.516 . S
C206 N191 1.324 . S
C206 O207 1.238 . S
O207 C206 1.238 . S
C208 N191 1.427 . S
C208 C209 1.394 . S
C208 C213 1.395 . S
C209 C208 1.394 . S
C209 C210 1.380 . S
C209 H237 0.929 . S
C210 C209 1.380 . S
C210 C211 1.384 . S
C210 C216 1.495 . S
C211 C210 1.384 . S
C211 C212 1.382 . S
C211 H238 0.930 . S
C212 C211 1.382 . S
C212 C213 1.398 . S
C213 C208 1.395 . S
C213 C212 1.398 . S
C213 H239 0.930 . S
C214 O194 1.235 . S
C214 O195 1.270 . S
O215 C168 1.263 . S
O215 Cd175 2.366 . S
C216 O204 1.258 1_565 S
C216 O205 1.274 . S
C216 C210 1.495 . S
C217 N184 1.432 . S
C217 C218 1.381 . S
C217 C222 1.385 . S
C218 C217 1.381 . S
C218 C219 1.371 . S
C218 H240 0.932 1_545 S
C219 C218 1.371 . S
C219 C220 1.400 . S
C220 C219 1.400 . S
C220 C221 1.351 . S
C220 H241 0.930 . S
C221 C220 1.351 . S
C221 C222 1.388 . S
C222 C217 1.385 . S
C222 C221 1.388 . S
C222 H242 0.929 . S
C223 C162 1.504 . S
C223 N193 1.309 . S
C223 O224 1.258 . S
O224 C223 1.258 . S
H225 C163 0.929 . S
H226 C164 0.932 1_545 S
H227 C165 0.931 . S
H228 C170 0.929 . S
H229 C172 0.929 . S
H230 C174 0.931 1_565 S
H231 C179 0.929 . S
H232 C181 0.932 . S
H233 C182 0.931 . S
H234 C187 0.930 . S
H235 C188 0.931 . S
H236 C189 0.930 . S
H237 C209 0.929 . S
H238 C211 0.930 . S
H239 C213 0.930 . S
H240 C218 0.932 1_565 S
H241 C220 0.930 . S
H242 C222 0.929 . S
C243 C244 1.359 . S
C243 N248 1.330 . S
C243 C304 1.504 . S
C244 C243 1.359 . S
C244 C245 1.366 . S
C244 H306 0.929 . S
C245 C244 1.366 . S
C245 C246 1.415 . S
C245 H307 0.932 . S
C246 C245 1.415 . S
C246 C247 1.366 . S
C246 H308 0.931 . S
C247 C246 1.366 . S
C247 N248 1.325 . S
C247 C249 1.516 . S
N248 C243 1.330 . S
N248 C247 1.325 . S
N248 Co264 1.869 . S
C249 C247 1.516 . S
C249 N273 1.316 . S
C249 O296 1.263 . S
C250 C251 1.421 . S
C250 C255 1.360 . S
C250 N273 1.436 . S
C251 C250 1.421 . S
C251 C252 1.379 . S
C251 H309 0.929 . S
C252 C251 1.379 . S
C252 C253 1.417 . S
C253 C252 1.417 . S
C253 C254 1.352 . S
C253 H310 0.929 . S
C254 C253 1.352 . S
C254 C255 1.393 . S
C255 C250 1.360 . S
C255 C254 1.393 . S
C255 H311 0.931 . S
Cd256 O276 2.329 . S
Cd256 O278 2.350 . S
Cd256 O279 2.277 . S
Cd256 O281 2.173 . S
Cd256 O285 2.263 . S
Cd256 O296 2.366 . S
Cd257 O275 2.352 . S
Cd257 O282 2.250 . S
Cd257 O286 2.308 . S
C258 C262 1.403 . S
C258 C263 1.370 . S
C258 N274 1.423 . S
C259 C260 1.389 . S
C259 C263 1.389 . S
C260 C259 1.389 . S
C260 C261 1.379 . S
C260 H312 0.929 . S
C261 C260 1.379 . S
C261 C262 1.405 . S
C262 C258 1.403 . S
C262 C261 1.405 . S
C262 H313 0.932 . S
C263 C258 1.370 . S
C263 C259 1.389 . S
C263 H314 0.931 . S
Co264 N248 1.869 . S
Co264 N265 1.955 . S
Co264 N266 1.864 . S
Co264 N272 1.958 . S
Co264 N273 1.953 . S
Co264 N274 1.974 . S
N265 Co264 1.955 . S
N265 C283 1.329 . S
N265 C298 1.432 . S
N266 Co264 1.864 . S
N266 C267 1.327 . S
N266 C271 1.342 . S
C267 N266 1.327 . S
C267 C268 1.407 . S
C267 C283 1.481 . S
C268 C267 1.407 . S
C268 C269 1.364 . S
C268 H315 0.930 . S
C269 C268 1.364 . S
C269 C270 1.390 . S
C269 H316 0.931 . S
C270 C269 1.390 . S
C270 C271 1.346 . S
C270 H317 0.930 . S
C271 N266 1.342 . S
C271 C270 1.346 . S
C271 C287 1.516 . S
N272 Co264 1.958 . S
N272 C287 1.324 . S
N272 C289 1.427 . S
N273 C249 1.316 . S
N273 C250 1.436 . S
N273 Co264 1.953 . S
N274 C258 1.423 . S
N274 Co264 1.974 . S
N274 C304 1.309 . S
O275 Cd257 2.352 . S
O275 C295 1.235 . S
O276 Cd256 2.329 . S
O276 C295 1.270 . S
C277 O278 1.270 . S
C277 O279 1.248 . S
O278 Cd256 2.350 . S
O278 C277 1.270 . S
O279 Cd256 2.277 . S
O279 C277 1.248 . S
C280 O281 1.277 . S
C280 O282 1.230 . S
O281 Cd256 2.173 . S
O281 C280 1.277 . S
O282 Cd257 2.250 . S
O282 C280 1.230 . S
C283 N265 1.329 . S
C283 C267 1.481 . S
C283 O284 1.246 . S
O284 C283 1.246 . S
O285 Cd256 2.263 . S
O285 C297 1.258 . S
O286 Cd257 2.308 . S
O286 C297 1.274 . S
C287 C271 1.516 . S
C287 N272 1.324 . S
C287 O288 1.238 . S
O288 C287 1.238 . S
C289 N272 1.427 . S
C289 C290 1.394 . S
C289 C294 1.395 . S
C290 C289 1.394 . S
C290 C291 1.380 . S
C290 H318 0.929 . S
C291 C290 1.380 . S
C291 C292 1.384 . S
C291 C297 1.495 . S
C292 C291 1.384 . S
C292 C293 1.382 . S
C292 H319 0.930 . S
C293 C292 1.382 . S
C293 C294 1.398 . S
C294 C289 1.395 . S
C294 C293 1.398 . S
C294 H320 0.930 . S
C295 O275 1.235 . S
C295 O276 1.270 . S
O296 C249 1.263 . S
O296 Cd256 2.366 . S
C297 O285 1.258 . S
C297 O286 1.274 . S
C297 C291 1.495 . S
C298 N265 1.432 . S
C298 C299 1.381 . S
C298 C303 1.385 . S
C299 C298 1.381 . S
C299 C300 1.371 . S
C299 H321 0.932 . S
C300 C299 1.371 . S
C300 C301 1.400 . S
C301 C300 1.400 . S
C301 C302 1.351 . S
C301 H322 0.930 . S
C302 C301 1.351 . S
C302 C303 1.388 . S
C303 C298 1.385 . S
C303 C302 1.388 . S
C303 H323 0.929 . S
C304 C243 1.504 . S
C304 N274 1.309 . S
C304 O305 1.258 . S
O305 C304 1.258 . S
H306 C244 0.929 . S
H307 C245 0.932 . S
H308 C246 0.931 . S
H309 C251 0.929 . S
H310 C253 0.929 . S
H311 C255 0.931 . S
H312 C260 0.929 . S
H313 C262 0.932 . S
H314 C263 0.931 . S
H315 C268 0.930 . S
H316 C269 0.931 . S
H317 C270 0.930 . S
H318 C290 0.929 . S
H319 C292 0.930 . S
H320 C294 0.930 . S
H321 C299 0.932 . S
H322 C301 0.930 . S
H323 C303 0.929 . S
C324 C325 1.359 . S
C324 N329 1.330 . S
C324 C385 1.504 . S
C325 C324 1.359 . S
C325 C326 1.366 . S
C325 H387 0.929 . S
C326 C325 1.366 . S
C326 C327 1.415 1_455 S
C326 H388 0.932 1_455 S
C327 C326 1.415 1_655 S
C327 C328 1.366 . S
C327 H389 0.931 . S
C328 C327 1.366 . S
C328 N329 1.325 1_655 S
C328 C330 1.516 . S
N329 C324 1.330 . S
N329 C328 1.325 1_455 S
N329 Co345 1.869 . S
C330 C328 1.516 . S
C330 N354 1.316 . S
C330 O377 1.263 . S
C331 C332 1.421 . S
C331 C336 1.360 . S
C331 N354 1.436 . S
C332 C331 1.421 . S
C332 C333 1.379 . S
C332 H390 0.929 . S
C333 C332 1.379 . S
C333 C334 1.417 . S
C334 C333 1.417 . S
C334 C335 1.352 . S
C334 H391 0.929 . S
C335 C334 1.352 . S
C335 C336 1.393 . S
C336 C331 1.360 . S
C336 C335 1.393 . S
C336 H392 0.931 1_655 S
Cd337 O357 2.329 . S
Cd337 O359 2.350 . S
Cd337 O360 2.277 . S
Cd337 O362 2.173 . S
Cd337 O366 2.263 . S
Cd337 O377 2.366 . S
Cd338 O356 2.352 . S
Cd338 O363 2.250 . S
Cd338 O367 2.308 1_655 S
C339 C343 1.403 . S
C339 C344 1.370 . S
C339 N355 1.423 . S
C340 C341 1.389 . S
C340 C344 1.389 . S
C341 C340 1.389 . S
C341 C342 1.379 . S
C341 H393 0.929 . S
C342 C341 1.379 . S
C342 C343 1.405 . S
C343 C339 1.403 . S
C343 C342 1.405 . S
C343 H394 0.932 . S
C344 C339 1.370 . S
C344 C340 1.389 . S
C344 H395 0.931 . S
Co345 N329 1.869 . S
Co345 N346 1.955 1_455 S
Co345 N347 1.864 . S
Co345 N353 1.958 . S
Co345 N354 1.953 1_455 S
Co345 N355 1.974 . S
N346 Co345 1.955 1_655 S
N346 C364 1.329 . S
N346 C379 1.432 . S
N347 Co345 1.864 . S
N347 C348 1.327 . S
N347 C352 1.342 . S
C348 N347 1.327 . S
C348 C349 1.407 . S
C348 C364 1.481 1_455 S
C349 C348 1.407 . S
C349 C350 1.364 . S
C349 H396 0.930 . S
C350 C349 1.364 . S
C350 C351 1.390 . S
C350 H397 0.931 . S
C351 C350 1.390 . S
C351 C352 1.346 . S
C351 H398 0.930 . S
C352 N347 1.342 . S
C352 C351 1.346 . S
C352 C368 1.516 . S
N353 Co345 1.958 . S
N353 C368 1.324 . S
N353 C370 1.427 . S
N354 C330 1.316 . S
N354 C331 1.436 . S
N354 Co345 1.953 1_655 S
N355 C339 1.423 . S
N355 Co345 1.974 . S
N355 C385 1.309 . S
O356 Cd338 2.352 . S
O356 C376 1.235 . S
O357 Cd337 2.329 . S
O357 C376 1.270 . S
C358 O359 1.270 . S
C358 O360 1.248 . S
O359 Cd337 2.350 . S
O359 C358 1.270 . S
O360 Cd337 2.277 . S
O360 C358 1.248 . S
C361 O362 1.277 . S
C361 O363 1.230 . S
O362 Cd337 2.173 . S
O362 C361 1.277 . S
O363 Cd338 2.250 . S
O363 C361 1.230 . S
C364 N346 1.329 . S
C364 C348 1.481 1_655 S
C364 O365 1.246 . S
O365 C364 1.246 . S
O366 Cd337 2.263 . S
O366 C378 1.258 1_655 S
O367 Cd338 2.308 1_455 S
O367 C378 1.274 . S
C368 C352 1.516 . S
C368 N353 1.324 . S
C368 O369 1.238 . S
O369 C368 1.238 . S
C370 N353 1.427 . S
C370 C371 1.394 . S
C370 C375 1.395 . S
C371 C370 1.394 . S
C371 C372 1.380 . S
C371 H399 0.929 . S
C372 C371 1.380 . S
C372 C373 1.384 . S
C372 C378 1.495 . S
C373 C372 1.384 . S
C373 C374 1.382 . S
C373 H400 0.930 . S
C374 C373 1.382 . S
C374 C375 1.398 . S
C375 C370 1.395 . S
C375 C374 1.398 . S
C375 H401 0.930 . S
C376 O356 1.235 . S
C376 O357 1.270 . S
O377 C330 1.263 . S
O377 Cd337 2.366 . S
C378 O366 1.258 1_455 S
C378 O367 1.274 . S
C378 C372 1.495 . S
C379 N346 1.432 . S
C379 C380 1.381 . S
C379 C384 1.385 . S
C380 C379 1.381 . S
C380 C381 1.371 . S
C380 H402 0.932 1_655 S
C381 C380 1.371 . S
C381 C382 1.400 . S
C382 C381 1.400 . S
C382 C383 1.351 . S
C382 H403 0.930 . S
C383 C382 1.351 . S
C383 C384 1.388 . S
C384 C379 1.385 . S
C384 C383 1.388 . S
C384 H404 0.929 . S
C385 C324 1.504 . S
C385 N355 1.309 . S
C385 O386 1.258 . S
O386 C385 1.258 . S
H387 C325 0.929 . S
H388 C326 0.932 1_655 S
H389 C327 0.931 . S
H390 C332 0.929 . S
H391 C334 0.929 . S
H392 C336 0.931 1_455 S
H393 C341 0.929 . S
H394 C343 0.932 . S
H395 C344 0.931 . S
H396 C349 0.930 . S
H397 C350 0.931 . S
H398 C351 0.930 . S
H399 C371 0.929 . S
H400 C373 0.930 . S
H401 C375 0.930 . S
H402 C380 0.932 1_455 S
H403 C382 0.930 . S
H404 C384 0.929 . S
C405 C406 1.359 . S
C405 N410 1.330 . S
C405 C466 1.504 . S
C406 C405 1.359 . S
C406 C407 1.366 . S
C406 H468 0.929 . S
C407 C406 1.366 . S
C407 C408 1.415 1_545 S
C407 H469 0.932 1_545 S
C408 C407 1.415 1_565 S
C408 C409 1.366 . S
C408 H470 0.931 . S
C409 C408 1.366 . S
C409 N410 1.325 1_565 S
C409 C411 1.516 . S
N410 C405 1.330 . S
N410 C409 1.325 1_545 S
N410 Co426 1.869 . S
C411 C409 1.516 . S
C411 N435 1.316 . S
C411 O458 1.263 . S
C412 C413 1.421 . S
C412 C417 1.360 . S
C412 N435 1.436 . S
C413 C412 1.421 . S
C413 C414 1.379 . S
C413 H471 0.929 . S
C414 C413 1.379 . S
C414 C415 1.417 . S
C415 C414 1.417 . S
C415 C416 1.352 . S
C415 H472 0.929 . S
C416 C415 1.352 . S
C416 C417 1.393 . S
C417 C412 1.360 . S
C417 C416 1.393 . S
C417 H473 0.931 1_565 S
Cd418 O438 2.329 . S
Cd418 O440 2.350 . S
Cd418 O441 2.277 . S
Cd418 O443 2.173 . S
Cd418 O447 2.263 . S
Cd418 O458 2.366 . S
Cd419 O437 2.352 . S
Cd419 O444 2.250 . S
Cd419 O448 2.308 1_565 S
C420 C424 1.403 . S
C420 C425 1.370 . S
C420 N436 1.423 . S
C421 C422 1.389 . S
C421 C425 1.389 . S
C422 C421 1.389 . S
C422 C423 1.379 . S
C422 H474 0.929 . S
C423 C422 1.379 . S
C423 C424 1.405 . S
C424 C420 1.403 . S
C424 C423 1.405 . S
C424 H475 0.932 . S
C425 C420 1.370 . S
C425 C421 1.389 . S
C425 H476 0.931 . S
Co426 N410 1.869 . S
Co426 N427 1.955 1_545 S
Co426 N428 1.864 . S
Co426 N434 1.958 . S
Co426 N435 1.953 1_545 S
Co426 N436 1.974 . S
N427 Co426 1.955 1_565 S
N427 C445 1.329 . S
N427 C460 1.432 . S
N428 Co426 1.864 . S
N428 C429 1.327 . S
N428 C433 1.342 . S
C429 N428 1.327 . S
C429 C430 1.407 . S
C429 C445 1.481 1_545 S
C430 C429 1.407 . S
C430 C431 1.364 . S
C430 H477 0.930 . S
C431 C430 1.364 . S
C431 C432 1.390 . S
C431 H478 0.931 . S
C432 C431 1.390 . S
C432 C433 1.346 . S
C432 H479 0.930 . S
C433 N428 1.342 . S
C433 C432 1.346 . S
C433 C449 1.516 . S
N434 Co426 1.958 . S
N434 C449 1.324 . S
N434 C451 1.427 . S
N435 C411 1.316 . S
N435 C412 1.436 . S
N435 Co426 1.953 1_565 S
N436 C420 1.423 . S
N436 Co426 1.974 . S
N436 C466 1.309 . S
O437 Cd419 2.352 . S
O437 C457 1.235 . S
O438 Cd418 2.329 . S
O438 C457 1.270 . S
C439 O440 1.270 . S
C439 O441 1.248 . S
O440 Cd418 2.350 . S
O440 C439 1.270 . S
O441 Cd418 2.277 . S
O441 C439 1.248 . S
C442 O443 1.277 . S
C442 O444 1.230 . S
O443 Cd418 2.173 . S
O443 C442 1.277 . S
O444 Cd419 2.250 . S
O444 C442 1.230 . S
C445 N427 1.329 . S
C445 C429 1.481 1_565 S
C445 O446 1.246 . S
O446 C445 1.246 . S
O447 Cd418 2.263 . S
O447 C459 1.258 1_565 S
O448 Cd419 2.308 1_545 S
O448 C459 1.274 . S
C449 C433 1.516 . S
C449 N434 1.324 . S
C449 O450 1.238 . S
O450 C449 1.238 . S
C451 N434 1.427 . S
C451 C452 1.394 . S
C451 C456 1.395 . S
C452 C451 1.394 . S
C452 C453 1.380 . S
C452 H480 0.929 . S
C453 C452 1.380 . S
C453 C454 1.384 . S
C453 C459 1.495 . S
C454 C453 1.384 . S
C454 C455 1.382 . S
C454 H481 0.930 . S
C455 C454 1.382 . S
C455 C456 1.398 . S
C456 C451 1.395 . S
C456 C455 1.398 . S
C456 H482 0.930 . S
C457 O437 1.235 . S
C457 O438 1.270 . S
O458 C411 1.263 . S
O458 Cd418 2.366 . S
C459 O447 1.258 1_545 S
C459 O448 1.274 . S
C459 C453 1.495 . S
C460 N427 1.432 . S
C460 C461 1.381 . S
C460 C465 1.385 . S
C461 C460 1.381 . S
C461 C462 1.371 . S
C461 H483 0.932 1_565 S
C462 C461 1.371 . S
C462 C463 1.400 . S
C463 C462 1.400 . S
C463 C464 1.351 . S
C463 H484 0.930 . S
C464 C463 1.351 . S
C464 C465 1.388 . S
C465 C460 1.385 . S
C465 C464 1.388 . S
C465 H485 0.929 . S
C466 C405 1.504 . S
C466 N436 1.309 . S
C466 O467 1.258 . S
O467 C466 1.258 . S
H468 C406 0.929 . S
H469 C407 0.932 1_565 S
H470 C408 0.931 . S
H471 C413 0.929 . S
H472 C415 0.929 . S
H473 C417 0.931 1_545 S
H474 C422 0.929 . S
H475 C424 0.932 . S
H476 C425 0.931 . S
H477 C430 0.930 . S
H478 C431 0.931 . S
H479 C432 0.930 . S
H480 C452 0.929 . S
H481 C454 0.930 . S
H482 C456 0.930 . S
H483 C461 0.932 1_545 S
H484 C463 0.930 . S
H485 C465 0.929 . S
C486 C487 1.359 . S
C486 N491 1.330 . S
C486 C547 1.504 . S
C487 C486 1.359 . S
C487 C488 1.366 . S
C487 H549 0.929 . S
C488 C487 1.366 . S
C488 C489 1.415 . S
C488 H550 0.932 . S
C489 C488 1.415 . S
C489 C490 1.366 . S
C489 H551 0.931 . S
C490 C489 1.366 . S
C490 N491 1.325 . S
C490 C492 1.516 . S
N491 C486 1.330 . S
N491 C490 1.325 . S
N491 Co507 1.869 . S
C492 C490 1.516 . S
C492 N516 1.316 . S
C492 O539 1.263 . S
C493 C494 1.421 . S
C493 C498 1.360 . S
C493 N516 1.436 . S
C494 C493 1.421 . S
C494 C495 1.379 . S
C494 H552 0.929 . S
C495 C494 1.379 . S
C495 C496 1.417 . S
C496 C495 1.417 . S
C496 C497 1.352 . S
C496 H553 0.929 . S
C497 C496 1.352 . S
C497 C498 1.393 . S
C498 C493 1.360 . S
C498 C497 1.393 . S
C498 H554 0.931 . S
Cd499 O519 2.329 . S
Cd499 O521 2.350 . S
Cd499 O522 2.277 . S
Cd499 O524 2.173 . S
Cd499 O528 2.263 . S
Cd499 O539 2.366 . S
Cd500 O518 2.352 . S
Cd500 O525 2.250 . S
Cd500 O529 2.308 . S
C501 C505 1.403 . S
C501 C506 1.370 . S
C501 N517 1.423 . S
C502 C503 1.389 . S
C502 C506 1.389 . S
C503 C502 1.389 . S
C503 C504 1.379 . S
C503 H555 0.929 . S
C504 C503 1.379 . S
C504 C505 1.405 . S
C505 C501 1.403 . S
C505 C504 1.405 . S
C505 H556 0.932 . S
C506 C501 1.370 . S
C506 C502 1.389 . S
C506 H557 0.931 . S
Co507 N491 1.869 . S
Co507 N508 1.955 . S
Co507 N509 1.864 . S
Co507 N515 1.958 . S
Co507 N516 1.953 . S
Co507 N517 1.974 . S
N508 Co507 1.955 . S
N508 C526 1.329 . S
N508 C541 1.432 . S
N509 Co507 1.864 . S
N509 C510 1.327 . S
N509 C514 1.342 . S
C510 N509 1.327 . S
C510 C511 1.407 . S
C510 C526 1.481 . S
C511 C510 1.407 . S
C511 C512 1.364 . S
C511 H558 0.930 . S
C512 C511 1.364 . S
C512 C513 1.390 . S
C512 H559 0.931 . S
C513 C512 1.390 . S
C513 C514 1.346 . S
C513 H560 0.930 . S
C514 N509 1.342 . S
C514 C513 1.346 . S
C514 C530 1.516 . S
N515 Co507 1.958 . S
N515 C530 1.324 . S
N515 C532 1.427 . S
N516 C492 1.316 . S
N516 C493 1.436 . S
N516 Co507 1.953 . S
N517 C501 1.423 . S
N517 Co507 1.974 . S
N517 C547 1.309 . S
O518 Cd500 2.352 . S
O518 C538 1.235 . S
O519 Cd499 2.329 . S
O519 C538 1.270 . S
C520 O521 1.270 . S
C520 O522 1.248 . S
O521 Cd499 2.350 . S
O521 C520 1.270 . S
O522 Cd499 2.277 . S
O522 C520 1.248 . S
C523 O524 1.277 . S
C523 O525 1.230 . S
O524 Cd499 2.173 . S
O524 C523 1.277 . S
O525 Cd500 2.250 . S
O525 C523 1.230 . S
C526 N508 1.329 . S
C526 C510 1.481 . S
C526 O527 1.246 . S
O527 C526 1.246 . S
O528 Cd499 2.263 . S
O528 C540 1.258 . S
O529 Cd500 2.308 . S
O529 C540 1.274 . S
C530 C514 1.516 . S
C530 N515 1.324 . S
C530 O531 1.238 . S
O531 C530 1.238 . S
C532 N515 1.427 . S
C532 C533 1.394 . S
C532 C537 1.395 . S
C533 C532 1.394 . S
C533 C534 1.380 . S
C533 H561 0.929 . S
C534 C533 1.380 . S
C534 C535 1.384 . S
C534 C540 1.495 . S
C535 C534 1.384 . S
C535 C536 1.382 . S
C535 H562 0.930 . S
C536 C535 1.382 . S
C536 C537 1.398 . S
C537 C532 1.395 . S
C537 C536 1.398 . S
C537 H563 0.930 . S
C538 O518 1.235 . S
C538 O519 1.270 . S
O539 C492 1.263 . S
O539 Cd499 2.366 . S
C540 O528 1.258 . S
C540 O529 1.274 . S
C540 C534 1.495 . S
C541 N508 1.432 . S
C541 C542 1.381 . S
C541 C546 1.385 . S
C542 C541 1.381 . S
C542 C543 1.371 . S
C542 H564 0.932 . S
C543 C542 1.371 . S
C543 C544 1.400 . S
C544 C543 1.400 . S
C544 C545 1.351 . S
C544 H565 0.930 . S
C545 C544 1.351 . S
C545 C546 1.388 . S
C546 C541 1.385 . S
C546 C545 1.388 . S
C546 H566 0.929 . S
C547 C486 1.504 . S
C547 N517 1.309 . S
C547 O548 1.258 . S
O548 C547 1.258 . S
H549 C487 0.929 . S
H550 C488 0.932 . S
H551 C489 0.931 . S
H552 C494 0.929 . S
H553 C496 0.929 . S
H554 C498 0.931 . S
H555 C503 0.929 . S
H556 C505 0.932 . S
H557 C506 0.931 . S
H558 C511 0.930 . S
H559 C512 0.931 . S
H560 C513 0.930 . S
H561 C533 0.929 . S
H562 C535 0.930 . S
H563 C537 0.930 . S
H564 C542 0.932 . S
H565 C544 0.930 . S
H566 C546 0.929 . S
C567 C568 1.359 . S
C567 N572 1.330 . S
C567 C628 1.504 . S
C568 C567 1.359 . S
C568 C569 1.366 . S
C568 H630 0.929 . S
C569 C568 1.366 . S
C569 C570 1.415 1_655 S
C569 H631 0.932 1_655 S
C570 C569 1.415 1_455 S
C570 C571 1.366 . S
C570 H632 0.931 . S
C571 C570 1.366 . S
C571 N572 1.325 1_455 S
C571 C573 1.516 . S
N572 C567 1.330 . S
N572 C571 1.325 1_655 S
N572 Co588 1.869 . S
C573 C571 1.516 . S
C573 N597 1.316 . S
C573 O620 1.263 . S
C574 C575 1.421 . S
C574 C579 1.360 . S
C574 N597 1.436 . S
C575 C574 1.421 . S
C575 C576 1.379 . S
C575 H633 0.929 . S
C576 C575 1.379 . S
C576 C577 1.417 . S
C577 C576 1.417 . S
C577 C578 1.352 . S
C577 H634 0.929 . S
C578 C577 1.352 . S
C578 C579 1.393 . S
C579 C574 1.360 . S
C579 C578 1.393 . S
C579 H635 0.931 1_455 S
Cd580 O600 2.329 1_556 S
Cd580 O602 2.350 . S
Cd580 O603 2.277 . S
Cd580 O605 2.173 . S
Cd580 O609 2.263 . S
Cd580 O620 2.366 . S
Cd581 O599 2.352 . S
Cd581 O606 2.250 . S
Cd581 O610 2.308 1_455 S
C582 C586 1.403 . S
C582 C587 1.370 . S
C582 N598 1.423 . S
C583 C584 1.389 . S
C583 C587 1.389 . S
C584 C583 1.389 . S
C584 C585 1.379 . S
C584 H636 0.929 . S
C585 C584 1.379 . S
C585 C586 1.405 . S
C586 C582 1.403 . S
C586 C585 1.405 . S
C586 H637 0.932 . S
C587 C582 1.370 . S
C587 C583 1.389 . S
C587 H638 0.931 . S
Co588 N572 1.869 . S
Co588 N589 1.955 1_655 S
Co588 N590 1.864 . S
Co588 N596 1.958 . S
Co588 N597 1.953 1_655 S
Co588 N598 1.974 . S
N589 Co588 1.955 1_455 S
N589 C607 1.329 . S
N589 C622 1.432 . S
N590 Co588 1.864 . S
N590 C591 1.327 . S
N590 C595 1.342 . S
C591 N590 1.327 . S
C591 C592 1.407 . S
C591 C607 1.481 1_655 S
C592 C591 1.407 . S
C592 C593 1.364 . S
C592 H639 0.930 . S
C593 C592 1.364 . S
C593 C594 1.390 . S
C593 H640 0.931 . S
C594 C593 1.390 . S
C594 C595 1.346 . S
C594 H641 0.930 . S
C595 N590 1.342 . S
C595 C594 1.346 . S
C595 C611 1.516 . S
N596 Co588 1.958 . S
N596 C611 1.324 . S
N596 C613 1.427 . S
N597 C573 1.316 . S
N597 C574 1.436 . S
N597 Co588 1.953 1_455 S
N598 C582 1.423 . S
N598 Co588 1.974 . S
N598 C628 1.309 . S
O599 Cd581 2.352 . S
O599 C619 1.235 . S
O600 Cd580 2.329 1_554 S
O600 C619 1.270 . S
C601 O602 1.270 . S
C601 O603 1.248 . S
O602 Cd580 2.350 . S
O602 C601 1.270 . S
O603 Cd580 2.277 . S
O603 C601 1.248 . S
C604 O605 1.277 . S
C604 O606 1.230 1_556 S
O605 Cd580 2.173 . S
O605 C604 1.277 . S
O606 Cd581 2.250 . S
O606 C604 1.230 1_554 S
C607 N589 1.329 . S
C607 C591 1.481 1_455 S
C607 O608 1.246 . S
O608 C607 1.246 . S
O609 Cd580 2.263 . S
O609 C621 1.258 1_455 S
O610 Cd581 2.308 1_655 S
O610 C621 1.274 1_554 S
C611 C595 1.516 . S
C611 N596 1.324 . S
C611 O612 1.238 . S
O612 C611 1.238 . S
C613 N596 1.427 . S
C613 C614 1.394 . S
C613 C618 1.395 . S
C614 C613 1.394 . S
C614 C615 1.380 . S
C614 H642 0.929 . S
C615 C614 1.380 . S
C615 C616 1.384 . S
C615 C621 1.495 . S
C616 C615 1.384 . S
C616 C617 1.382 . S
C616 H643 0.930 . S
C617 C616 1.382 . S
C617 C618 1.398 . S
C618 C613 1.395 . S
C618 C617 1.398 . S
C618 H644 0.930 . S
C619 O599 1.235 . S
C619 O600 1.270 . S
O620 C573 1.263 . S
O620 Cd580 2.366 . S
C621 O609 1.258 1_655 S
C621 O610 1.274 1_556 S
C621 C615 1.495 . S
C622 N589 1.432 . S
C622 C623 1.381 . S
C622 C627 1.385 . S
C623 C622 1.381 . S
C623 C624 1.371 . S
C623 H645 0.932 1_455 S
C624 C623 1.371 . S
C624 C625 1.400 . S
C625 C624 1.400 . S
C625 C626 1.351 . S
C625 H646 0.930 . S
C626 C625 1.351 . S
C626 C627 1.388 . S
C627 C622 1.385 . S
C627 C626 1.388 . S
C627 H647 0.929 . S
C628 C567 1.504 . S
C628 N598 1.309 . S
C628 O629 1.258 . S
O629 C628 1.258 . S
H630 C568 0.929 . S
H631 C569 0.932 1_455 S
H632 C570 0.931 . S
H633 C575 0.929 . S
H634 C577 0.929 . S
H635 C579 0.931 1_655 S
H636 C584 0.929 . S
H637 C586 0.932 . S
H638 C587 0.931 . S
H639 C592 0.930 . S
H640 C593 0.931 . S
H641 C594 0.930 . S
H642 C614 0.929 . S
H643 C616 0.930 . S
H644 C618 0.930 . S
H645 C623 0.932 1_655 S
H646 C625 0.930 . S
H647 C627 0.929 . S
C648 C649 1.359 . S
C648 N653 1.330 . S
C648 C709 1.504 . S
C649 C648 1.359 . S
C649 C650 1.366 . S
C649 H711 0.929 . S
C650 C649 1.366 . S
C650 C651 1.415 1_565 S
C650 H712 0.932 1_565 S
C651 C650 1.415 1_545 S
C651 C652 1.366 . S
C651 H713 0.931 . S
C652 C651 1.366 . S
C652 N653 1.325 1_545 S
C652 C654 1.516 . S
N653 C648 1.330 . S
N653 C652 1.325 1_565 S
N653 Co669 1.869 . S
C654 C652 1.516 . S
C654 N678 1.316 . S
C654 O701 1.263 . S
C655 C656 1.421 . S
C655 C660 1.360 . S
C655 N678 1.436 . S
C656 C655 1.421 . S
C656 C657 1.379 . S
C656 H714 0.929 . S
C657 C656 1.379 . S
C657 C658 1.417 . S
C658 C657 1.417 . S
C658 C659 1.352 . S
C658 H715 0.929 . S
C659 C658 1.352 . S
C659 C660 1.393 . S
C660 C655 1.360 . S
C660 C659 1.393 . S
C660 H716 0.931 1_545 S
Cd661 O681 2.329 . S
Cd661 O683 2.350 . S
Cd661 O684 2.277 . S
Cd661 O686 2.173 . S
Cd661 O690 2.263 . S
Cd661 O701 2.366 . S
Cd662 O680 2.352 . S
Cd662 O687 2.250 . S
Cd662 O691 2.308 1_545 S
C663 C667 1.403 . S
C663 C668 1.370 . S
C663 N679 1.423 . S
C664 C665 1.389 . S
C664 C668 1.389 . S
C665 C664 1.389 . S
C665 C666 1.379 . S
C665 H717 0.929 . S
C666 C665 1.379 . S
C666 C667 1.405 . S
C667 C663 1.403 . S
C667 C666 1.405 . S
C667 H718 0.932 . S
C668 C663 1.370 . S
C668 C664 1.389 . S
C668 H719 0.931 . S
Co669 N653 1.869 . S
Co669 N670 1.955 1_565 S
Co669 N671 1.864 . S
Co669 N677 1.958 . S
Co669 N678 1.953 1_565 S
Co669 N679 1.974 . S
N670 Co669 1.955 1_545 S
N670 C688 1.329 . S
N670 C703 1.432 . S
N671 Co669 1.864 . S
N671 C672 1.327 . S
N671 C676 1.342 . S
C672 N671 1.327 . S
C672 C673 1.407 . S
C672 C688 1.481 1_565 S
C673 C672 1.407 . S
C673 C674 1.364 . S
C673 H720 0.930 . S
C674 C673 1.364 . S
C674 C675 1.390 . S
C674 H721 0.931 . S
C675 C674 1.390 . S
C675 C676 1.346 . S
C675 H722 0.930 . S
C676 N671 1.342 . S
C676 C675 1.346 . S
C676 C692 1.516 . S
N677 Co669 1.958 . S
N677 C692 1.324 . S
N677 C694 1.427 . S
N678 C654 1.316 . S
N678 C655 1.436 . S
N678 Co669 1.953 1_545 S
N679 C663 1.423 . S
N679 Co669 1.974 . S
N679 C709 1.309 . S
O680 Cd662 2.352 . S
O680 C700 1.235 . S
O681 Cd661 2.329 . S
O681 C700 1.270 . S
C682 O683 1.270 . S
C682 O684 1.248 . S
O683 Cd661 2.350 . S
O683 C682 1.270 . S
O684 Cd661 2.277 . S
O684 C682 1.248 . S
C685 O686 1.277 . S
C685 O687 1.230 . S
O686 Cd661 2.173 . S
O686 C685 1.277 . S
O687 Cd662 2.250 . S
O687 C685 1.230 . S
C688 N670 1.329 . S
C688 C672 1.481 1_545 S
C688 O689 1.246 . S
O689 C688 1.246 . S
O690 Cd661 2.263 . S
O690 C702 1.258 1_545 S
O691 Cd662 2.308 1_565 S
O691 C702 1.274 . S
C692 C676 1.516 . S
C692 N677 1.324 . S
C692 O693 1.238 . S
O693 C692 1.238 . S
C694 N677 1.427 . S
C694 C695 1.394 . S
C694 C699 1.395 . S
C695 C694 1.394 . S
C695 C696 1.380 . S
C695 H723 0.929 . S
C696 C695 1.380 . S
C696 C697 1.384 . S
C696 C702 1.495 . S
C697 C696 1.384 . S
C697 C698 1.382 . S
C697 H724 0.930 . S
C698 C697 1.382 . S
C698 C699 1.398 . S
C699 C694 1.395 . S
C699 C698 1.398 . S
C699 H725 0.930 . S
C700 O680 1.235 . S
C700 O681 1.270 . S
O701 C654 1.263 . S
O701 Cd661 2.366 . S
C702 O690 1.258 1_565 S
C702 O691 1.274 . S
C702 C696 1.495 . S
C703 N670 1.432 . S
C703 C704 1.381 . S
C703 C708 1.385 . S
C704 C703 1.381 . S
C704 C705 1.371 . S
C704 H726 0.932 1_545 S
C705 C704 1.371 . S
C705 C706 1.400 . S
C706 C705 1.400 . S
C706 C707 1.351 . S
C706 H727 0.930 . S
C707 C706 1.351 . S
C707 C708 1.388 . S
C708 C703 1.385 . S
C708 C707 1.388 . S
C708 H728 0.929 . S
C709 C648 1.504 . S
C709 N679 1.309 . S
C709 O710 1.258 . S
O710 C709 1.258 . S
H711 C649 0.929 . S
H712 C650 0.932 1_545 S
H713 C651 0.931 . S
H714 C656 0.929 . S
H715 C658 0.929 . S
H716 C660 0.931 1_565 S
H717 C665 0.929 . S
H718 C667 0.932 . S
H719 C668 0.931 . S
H720 C673 0.930 . S
H721 C674 0.931 . S
H722 C675 0.930 . S
H723 C695 0.929 . S
H724 C697 0.930 . S
H725 C699 0.930 . S
H726 C704 0.932 1_565 S
H727 C706 0.930 . S
H728 C708 0.929 . S
C729 C730 1.359 . S
C729 N734 1.330 . S
C729 C790 1.504 . S
C730 C729 1.359 . S
C730 C731 1.366 . S
C730 H792 0.929 . S
C731 C730 1.366 . S
C731 C732 1.415 . S
C731 H793 0.932 . S
C732 C731 1.415 . S
C732 C733 1.366 . S
C732 H794 0.931 . S
C733 C732 1.366 . S
C733 N734 1.325 . S
C733 C735 1.516 . S
N734 C729 1.330 . S
N734 C733 1.325 . S
N734 Co750 1.869 . S
C735 C733 1.516 . S
C735 N759 1.316 . S
C735 O782 1.263 . S
C736 C737 1.421 . S
C736 C741 1.360 . S
C736 N759 1.436 . S
C737 C736 1.421 . S
C737 C738 1.379 . S
C737 H795 0.929 . S
C738 C737 1.379 . S
C738 C739 1.417 . S
C739 C738 1.417 . S
C739 C740 1.352 . S
C739 H796 0.929 . S
C740 C739 1.352 . S
C740 C741 1.393 . S
C741 C736 1.360 . S
C741 C740 1.393 . S
C741 H797 0.931 . S
Cd742 O762 2.329 . S
Cd742 O764 2.350 . S
Cd742 O765 2.277 . S
Cd742 O767 2.173 . S
Cd742 O771 2.263 . S
Cd742 O782 2.366 . S
Cd743 O761 2.352 . S
Cd743 O768 2.250 . S
Cd743 O772 2.308 . S
C744 C748 1.403 . S
C744 C749 1.370 . S
C744 N760 1.423 . S
C745 C746 1.389 . S
C745 C749 1.389 . S
C746 C745 1.389 . S
C746 C747 1.379 . S
C746 H798 0.929 . S
C747 C746 1.379 . S
C747 C748 1.405 . S
C748 C744 1.403 . S
C748 C747 1.405 . S
C748 H799 0.932 . S
C749 C744 1.370 . S
C749 C745 1.389 . S
C749 H800 0.931 . S
Co750 N734 1.869 . S
Co750 N751 1.955 . S
Co750 N752 1.864 . S
Co750 N758 1.958 . S
Co750 N759 1.953 . S
Co750 N760 1.974 . S
N751 Co750 1.955 . S
N751 C769 1.329 . S
N751 C784 1.432 . S
N752 Co750 1.864 . S
N752 C753 1.327 . S
N752 C757 1.342 . S
C753 N752 1.327 . S
C753 C754 1.407 . S
C753 C769 1.481 . S
C754 C753 1.407 . S
C754 C755 1.364 . S
C754 H801 0.930 . S
C755 C754 1.364 . S
C755 C756 1.390 . S
C755 H802 0.931 . S
C756 C755 1.390 . S
C756 C757 1.346 . S
C756 H803 0.930 . S
C757 N752 1.342 . S
C757 C756 1.346 . S
C757 C773 1.516 . S
N758 Co750 1.958 . S
N758 C773 1.324 . S
N758 C775 1.427 . S
N759 C735 1.316 . S
N759 C736 1.436 . S
N759 Co750 1.953 . S
N760 C744 1.423 . S
N760 Co750 1.974 . S
N760 C790 1.309 . S
O761 Cd743 2.352 . S
O761 C781 1.235 . S
O762 Cd742 2.329 . S
O762 C781 1.270 . S
C763 O764 1.270 . S
C763 O765 1.248 . S
O764 Cd742 2.350 . S
O764 C763 1.270 . S
O765 Cd742 2.277 . S
O765 C763 1.248 . S
C766 O767 1.277 . S
C766 O768 1.230 . S
O767 Cd742 2.173 . S
O767 C766 1.277 . S
O768 Cd743 2.250 . S
O768 C766 1.230 . S
C769 N751 1.329 . S
C769 C753 1.481 . S
C769 O770 1.246 . S
O770 C769 1.246 . S
O771 Cd742 2.263 . S
O771 C783 1.258 . S
O772 Cd743 2.308 . S
O772 C783 1.274 . S
C773 C757 1.516 . S
C773 N758 1.324 . S
C773 O774 1.238 . S
O774 C773 1.238 . S
C775 N758 1.427 . S
C775 C776 1.394 . S
C775 C780 1.395 . S
C776 C775 1.394 . S
C776 C777 1.380 . S
C776 H804 0.929 . S
C777 C776 1.380 . S
C777 C778 1.384 . S
C777 C783 1.495 . S
C778 C777 1.384 . S
C778 C779 1.382 . S
C778 H805 0.930 . S
C779 C778 1.382 . S
C779 C780 1.398 . S
C780 C775 1.395 . S
C780 C779 1.398 . S
C780 H806 0.930 . S
C781 O761 1.235 . S
C781 O762 1.270 . S
O782 C735 1.263 . S
O782 Cd742 2.366 . S
C783 O771 1.258 . S
C783 O772 1.274 . S
C783 C777 1.495 . S
C784 N751 1.432 . S
C784 C785 1.381 . S
C784 C789 1.385 . S
C785 C784 1.381 . S
C785 C786 1.371 . S
C785 H807 0.932 . S
C786 C785 1.371 . S
C786 C787 1.400 . S
C787 C786 1.400 . S
C787 C788 1.351 . S
C787 H808 0.930 . S
C788 C787 1.351 . S
C788 C789 1.388 . S
C789 C784 1.385 . S
C789 C788 1.388 . S
C789 H809 0.929 . S
C790 C729 1.504 . S
C790 N760 1.309 . S
C790 O791 1.258 . S
O791 C790 1.258 . S
H792 C730 0.929 . S
H793 C731 0.932 . S
H794 C732 0.931 . S
H795 C737 0.929 . S
H796 C739 0.929 . S
H797 C741 0.931 . S
H798 C746 0.929 . S
H799 C748 0.932 . S
H800 C749 0.931 . S
H801 C754 0.930 . S
H802 C755 0.931 . S
H803 C756 0.930 . S
H804 C776 0.929 . S
H805 C778 0.930 . S
H806 C780 0.930 . S
H807 C785 0.932 . S
H808 C787 0.930 . S
H809 C789 0.929 . S
C810 C811 1.359 . S
C810 N815 1.330 . S
C810 C871 1.504 . S
C811 C810 1.359 . S
C811 C812 1.366 . S
C811 H873 0.929 . S
C812 C811 1.366 . S
C812 C813 1.415 1_455 S
C812 H874 0.932 1_455 S
C813 C812 1.415 1_655 S
C813 C814 1.366 . S
C813 H875 0.931 . S
C814 C813 1.366 . S
C814 N815 1.325 1_655 S
C814 C816 1.516 . S
N815 C810 1.330 . S
N815 C814 1.325 1_455 S
N815 Co831 1.869 . S
C816 C814 1.516 . S
C816 N840 1.316 . S
C816 O863 1.263 . S
C817 C818 1.421 . S
C817 C822 1.360 . S
C817 N840 1.436 . S
C818 C817 1.421 . S
C818 C819 1.379 . S
C818 H876 0.929 . S
C819 C818 1.379 . S
C819 C820 1.417 . S
C820 C819 1.417 . S
C820 C821 1.352 . S
C820 H877 0.929 . S
C821 C820 1.352 . S
C821 C822 1.393 . S
C822 C817 1.360 . S
C822 C821 1.393 . S
C822 H878 0.931 1_655 S
Cd823 O843 2.329 . S
Cd823 O845 2.350 . S
Cd823 O846 2.277 . S
Cd823 O848 2.173 . S
Cd823 O852 2.263 . S
Cd823 O863 2.366 . S
Cd824 O842 2.352 . S
Cd824 O849 2.250 . S
Cd824 O853 2.308 1_655 S
C825 C829 1.403 . S
C825 C830 1.370 . S
C825 N841 1.423 . S
C826 C827 1.389 . S
C826 C830 1.389 . S
C827 C826 1.389 . S
C827 C828 1.379 . S
C827 H879 0.929 . S
C828 C827 1.379 . S
C828 C829 1.405 . S
C829 C825 1.403 . S
C829 C828 1.405 . S
C829 H880 0.932 . S
C830 C825 1.370 . S
C830 C826 1.389 . S
C830 H881 0.931 . S
Co831 N815 1.869 . S
Co831 N832 1.955 1_455 S
Co831 N833 1.864 . S
Co831 N839 1.958 . S
Co831 N840 1.953 1_455 S
Co831 N841 1.974 . S
N832 Co831 1.955 1_655 S
N832 C850 1.329 . S
N832 C865 1.432 . S
N833 Co831 1.864 . S
N833 C834 1.327 . S
N833 C838 1.342 . S
C834 N833 1.327 . S
C834 C835 1.407 . S
C834 C850 1.481 1_455 S
C835 C834 1.407 . S
C835 C836 1.364 . S
C835 H882 0.930 . S
C836 C835 1.364 . S
C836 C837 1.390 . S
C836 H883 0.931 . S
C837 C836 1.390 . S
C837 C838 1.346 . S
C837 H884 0.930 . S
C838 N833 1.342 . S
C838 C837 1.346 . S
C838 C854 1.516 . S
N839 Co831 1.958 . S
N839 C854 1.324 . S
N839 C856 1.427 . S
N840 C816 1.316 . S
N840 C817 1.436 . S
N840 Co831 1.953 1_655 S
N841 C825 1.423 . S
N841 Co831 1.974 . S
N841 C871 1.309 . S
O842 Cd824 2.352 . S
O842 C862 1.235 . S
O843 Cd823 2.329 . S
O843 C862 1.270 . S
C844 O845 1.270 . S
C844 O846 1.248 . S
O845 Cd823 2.350 . S
O845 C844 1.270 . S
O846 Cd823 2.277 . S
O846 C844 1.248 . S
C847 O848 1.277 . S
C847 O849 1.230 . S
O848 Cd823 2.173 . S
O848 C847 1.277 . S
O849 Cd824 2.250 . S
O849 C847 1.230 . S
C850 N832 1.329 . S
C850 C834 1.481 1_655 S
C850 O851 1.246 . S
O851 C850 1.246 . S
O852 Cd823 2.263 . S
O852 C864 1.258 1_655 S
O853 Cd824 2.308 1_455 S
O853 C864 1.274 . S
C854 C838 1.516 . S
C854 N839 1.324 . S
C854 O855 1.238 . S
O855 C854 1.238 . S
C856 N839 1.427 . S
C856 C857 1.394 . S
C856 C861 1.395 . S
C857 C856 1.394 . S
C857 C858 1.380 . S
C857 H885 0.929 . S
C858 C857 1.380 . S
C858 C859 1.384 . S
C858 C864 1.495 . S
C859 C858 1.384 . S
C859 C860 1.382 . S
C859 H886 0.930 . S
C860 C859 1.382 . S
C860 C861 1.398 . S
C861 C856 1.395 . S
C861 C860 1.398 . S
C861 H887 0.930 . S
C862 O842 1.235 . S
C862 O843 1.270 . S
O863 C816 1.263 . S
O863 Cd823 2.366 . S
C864 O852 1.258 1_455 S
C864 O853 1.274 . S
C864 C858 1.495 . S
C865 N832 1.432 . S
C865 C866 1.381 . S
C865 C870 1.385 . S
C866 C865 1.381 . S
C866 C867 1.371 . S
C866 H888 0.932 1_655 S
C867 C866 1.371 . S
C867 C868 1.400 . S
C868 C867 1.400 . S
C868 C869 1.351 . S
C868 H889 0.930 . S
C869 C868 1.351 . S
C869 C870 1.388 . S
C870 C865 1.385 . S
C870 C869 1.388 . S
C870 H890 0.929 . S
C871 C810 1.504 . S
C871 N841 1.309 . S
C871 O872 1.258 . S
O872 C871 1.258 . S
H873 C811 0.929 . S
H874 C812 0.932 1_655 S
H875 C813 0.931 . S
H876 C818 0.929 . S
H877 C820 0.929 . S
H878 C822 0.931 1_455 S
H879 C827 0.929 . S
H880 C829 0.932 . S
H881 C830 0.931 . S
H882 C835 0.930 . S
H883 C836 0.931 . S
H884 C837 0.930 . S
H885 C857 0.929 . S
H886 C859 0.930 . S
H887 C861 0.930 . S
H888 C866 0.932 1_455 S
H889 C868 0.930 . S
H890 C870 0.929 . S
C891 C892 1.359 . S
C891 N896 1.330 . S
C891 C952 1.504 . S
C892 C891 1.359 . S
C892 C893 1.366 . S
C892 H954 0.929 . S
C893 C892 1.366 . S
C893 C894 1.415 1_545 S
C893 H955 0.932 1_545 S
C894 C893 1.415 1_565 S
C894 C895 1.366 . S
C894 H956 0.931 . S
C895 C894 1.366 . S
C895 N896 1.325 1_565 S
C895 C897 1.516 . S
N896 C891 1.330 . S
N896 C895 1.325 1_545 S
N896 Co912 1.869 . S
C897 C895 1.516 . S
C897 N921 1.316 . S
C897 O944 1.263 . S
C898 C899 1.421 . S
C898 C903 1.360 . S
C898 N921 1.436 . S
C899 C898 1.421 . S
C899 C900 1.379 . S
C899 H957 0.929 . S
C900 C899 1.379 . S
C900 C901 1.417 . S
C901 C900 1.417 . S
C901 C902 1.352 . S
C901 H958 0.929 . S
C902 C901 1.352 . S
C902 C903 1.393 . S
C903 C898 1.360 . S
C903 C902 1.393 . S
C903 H959 0.931 1_565 S
Cd904 O924 2.329 . S
Cd904 O926 2.350 . S
Cd904 O927 2.277 . S
Cd904 O929 2.173 . S
Cd904 O933 2.263 . S
Cd904 O944 2.366 . S
Cd905 O923 2.352 . S
Cd905 O930 2.250 . S
Cd905 O934 2.308 1_565 S
C906 C910 1.403 . S
C906 C911 1.370 . S
C906 N922 1.423 . S
C907 C908 1.389 . S
C907 C911 1.389 . S
C908 C907 1.389 . S
C908 C909 1.379 . S
C908 H960 0.929 . S
C909 C908 1.379 . S
C909 C910 1.405 . S
C910 C906 1.403 . S
C910 C909 1.405 . S
C910 H961 0.932 . S
C911 C906 1.370 . S
C911 C907 1.389 . S
C911 H962 0.931 . S
Co912 N896 1.869 . S
Co912 N913 1.955 1_545 S
Co912 N914 1.864 . S
Co912 N920 1.958 . S
Co912 N921 1.953 1_545 S
Co912 N922 1.974 . S
N913 Co912 1.955 1_565 S
N913 C931 1.329 . S
N913 C946 1.432 . S
N914 Co912 1.864 . S
N914 C915 1.327 . S
N914 C919 1.342 . S
C915 N914 1.327 . S
C915 C916 1.407 . S
C915 C931 1.481 1_545 S
C916 C915 1.407 . S
C916 C917 1.364 . S
C916 H963 0.930 . S
C917 C916 1.364 . S
C917 C918 1.390 . S
C917 H964 0.931 . S
C918 C917 1.390 . S
C918 C919 1.346 . S
C918 H965 0.930 . S
C919 N914 1.342 . S
C919 C918 1.346 . S
C919 C935 1.516 . S
N920 Co912 1.958 . S
N920 C935 1.324 . S
N920 C937 1.427 . S
N921 C897 1.316 . S
N921 C898 1.436 . S
N921 Co912 1.953 1_565 S
N922 C906 1.423 . S
N922 Co912 1.974 . S
N922 C952 1.309 . S
O923 Cd905 2.352 . S
O923 C943 1.235 . S
O924 Cd904 2.329 . S
O924 C943 1.270 . S
C925 O926 1.270 . S
C925 O927 1.248 . S
O926 Cd904 2.350 . S
O926 C925 1.270 . S
O927 Cd904 2.277 . S
O927 C925 1.248 . S
C928 O929 1.277 . S
C928 O930 1.230 . S
O929 Cd904 2.173 . S
O929 C928 1.277 . S
O930 Cd905 2.250 . S
O930 C928 1.230 . S
C931 N913 1.329 . S
C931 C915 1.481 1_565 S
C931 O932 1.246 . S
O932 C931 1.246 . S
O933 Cd904 2.263 . S
O933 C945 1.258 1_565 S
O934 Cd905 2.308 1_545 S
O934 C945 1.274 . S
C935 C919 1.516 . S
C935 N920 1.324 . S
C935 O936 1.238 . S
O936 C935 1.238 . S
C937 N920 1.427 . S
C937 C938 1.394 . S
C937 C942 1.395 . S
C938 C937 1.394 . S
C938 C939 1.380 . S
C938 H966 0.929 . S
C939 C938 1.380 . S
C939 C940 1.384 . S
C939 C945 1.495 . S
C940 C939 1.384 . S
C940 C941 1.382 . S
C940 H967 0.930 . S
C941 C940 1.382 . S
C941 C942 1.398 . S
C942 C937 1.395 . S
C942 C941 1.398 . S
C942 H968 0.930 . S
C943 O923 1.235 . S
C943 O924 1.270 . S
O944 C897 1.263 . S
O944 Cd904 2.366 . S
C945 O933 1.258 1_545 S
C945 O934 1.274 . S
C945 C939 1.495 . S
C946 N913 1.432 . S
C946 C947 1.381 . S
C946 C951 1.385 . S
C947 C946 1.381 . S
C947 C948 1.371 . S
C947 H969 0.932 1_565 S
C948 C947 1.371 . S
C948 C949 1.400 . S
C949 C948 1.400 . S
C949 C950 1.351 . S
C949 H970 0.930 . S
C950 C949 1.351 . S
C950 C951 1.388 . S
C951 C946 1.385 . S
C951 C950 1.388 . S
C951 H971 0.929 . S
C952 C891 1.504 . S
C952 N922 1.309 . S
C952 O953 1.258 . S
O953 C952 1.258 . S
H954 C892 0.929 . S
H955 C893 0.932 1_565 S
H956 C894 0.931 . S
H957 C899 0.929 . S
H958 C901 0.929 . S
H959 C903 0.931 1_545 S
H960 C908 0.929 . S
H961 C910 0.932 . S
H962 C911 0.931 . S
H963 C916 0.930 . S
H964 C917 0.931 . S
H965 C918 0.930 . S
H966 C938 0.929 . S
H967 C940 0.930 . S
H968 C942 0.930 . S
H969 C947 0.932 1_545 S
H970 C949 0.930 . S
H971 C951 0.929 . S
H972 C978 0.930 . S
H973 C982 0.930 . S
H974 C987 0.929 . S
H975 C985 0.929 . S
H976 C980 0.929 . S
H977 C986 0.929 . S
C978 H972 0.930 . S
C978 C979 1.367 . S
C978 C986 1.378 . S
C979 C978 1.367 . S
C979 C987 1.433 . S
C980 H976 0.929 . S
C980 C982 1.378 . S
C980 C984 1.350 . S
C981 C984 1.463 . S
C981 C986 1.350 . S
C981 N989 1.427 . S
C982 H973 0.930 . S
C982 C980 1.378 . S
C982 C983 1.367 . S
C983 C982 1.367 . S
C983 C985 1.433 . S
C984 C980 1.350 . S
C984 C981 1.463 . S
C984 N988 1.427 . S
C985 H975 0.929 . S
C985 C983 1.433 . S
C985 N988 1.384 . S
C986 H977 0.929 . S
C986 C978 1.378 . S
C986 C981 1.350 . S
C987 H974 0.929 . S
C987 C979 1.433 . S
C987 N989 1.384 . S
N988 C984 1.427 . S
N988 C985 1.384 . S
N989 C981 1.427 . S
N989 C987 1.384 . S
H990 C996 0.930 . S
H991 C1000 0.930 . S
H992 C1005 0.929 . S
H993 C1003 0.929 . S
H994 C998 0.929 . S
H995 C1004 0.929 . S
C996 H990 0.930 . S
C996 C997 1.367 . S
C996 C1004 1.378 . S
C997 C996 1.367 . S
C997 C1005 1.433 . S
C998 H994 0.929 . S
C998 C1000 1.378 . S
C998 C1002 1.350 . S
C999 C1002 1.463 . S
C999 C1004 1.350 . S
C999 N1007 1.427 . S
C1000 H991 0.930 . S
C1000 C998 1.378 . S
C1000 C1001 1.367 . S
C1001 C1000 1.367 . S
C1001 C1003 1.433 . S
C1002 C998 1.350 . S
C1002 C999 1.463 . S
C1002 N1006 1.427 . S
C1003 H993 0.929 . S
C1003 C1001 1.433 . S
C1003 N1006 1.384 . S
C1004 H995 0.929 . S
C1004 C996 1.378 . S
C1004 C999 1.350 . S
C1005 H992 0.929 . S
C1005 C997 1.433 . S
C1005 N1007 1.384 . S
N1006 C1002 1.427 . S
N1006 C1003 1.384 . S
N1007 C999 1.427 . S
N1007 C1005 1.384 . S
H1008 C1014 0.930 . S
H1009 C1018 0.930 . S
H1010 C1023 0.929 . S
H1011 C1021 0.929 . S
H1012 C1016 0.929 . S
H1013 C1022 0.929 . S
C1014 H1008 0.930 . S
C1014 C1015 1.367 . S
C1014 C1022 1.378 . S
C1015 C1014 1.367 . S
C1015 C1023 1.433 . S
C1016 H1012 0.929 . S
C1016 C1018 1.378 . S
C1016 C1020 1.350 . S
C1017 C1020 1.463 . S
C1017 C1022 1.350 . S
C1017 N1025 1.427 . S
C1018 H1009 0.930 . S
C1018 C1016 1.378 . S
C1018 C1019 1.367 . S
C1019 C1018 1.367 . S
C1019 C1021 1.433 . S
C1020 C1016 1.350 . S
C1020 C1017 1.463 . S
C1020 N1024 1.427 . S
C1021 H1011 0.929 . S
C1021 C1019 1.433 . S
C1021 N1024 1.384 . S
C1022 H1013 0.929 . S
C1022 C1014 1.378 . S
C1022 C1017 1.350 . S
C1023 H1010 0.929 . S
C1023 C1015 1.433 . S
C1023 N1025 1.384 . S
N1024 C1020 1.427 . S
N1024 C1021 1.384 . S
N1025 C1017 1.427 . S
N1025 C1023 1.384 . S
H1026 C1032 0.930 . S
H1027 C1036 0.930 . S
H1028 C1041 0.929 . S
H1029 C1039 0.929 . S
H1030 C1034 0.929 . S
H1031 C1040 0.929 . S
C1032 H1026 0.930 . S
C1032 C1033 1.367 . S
C1032 C1040 1.378 . S
C1033 C1032 1.367 . S
C1033 C1041 1.433 . S
C1034 H1030 0.929 . S
C1034 C1036 1.378 . S
C1034 C1038 1.350 . S
C1035 C1038 1.463 . S
C1035 C1040 1.350 . S
C1035 N1043 1.427 . S
C1036 H1027 0.930 . S
C1036 C1034 1.378 . S
C1036 C1037 1.367 . S
C1037 C1036 1.367 . S
C1037 C1039 1.433 . S
C1038 C1034 1.350 . S
C1038 C1035 1.463 . S
C1038 N1042 1.427 . S
C1039 H1029 0.929 . S
C1039 C1037 1.433 . S
C1039 N1042 1.384 . S
C1040 H1031 0.929 . S
C1040 C1032 1.378 . S
C1040 C1035 1.350 . S
C1041 H1028 0.929 . S
C1041 C1033 1.433 . S
C1041 N1043 1.384 . S
N1042 C1038 1.427 . S
N1042 C1039 1.384 . S
N1043 C1035 1.427 . S
N1043 C1041 1.384 . S
H1044 C1050 0.930 . S
H1045 C1054 0.930 . S
H1046 C1059 0.929 . S
H1047 C1057 0.929 . S
H1048 C1052 0.929 . S
H1049 C1058 0.929 . S
C1050 H1044 0.930 . S
C1050 C1051 1.367 . S
C1050 C1058 1.378 . S
C1051 C1050 1.367 . S
C1051 C1059 1.433 . S
C1052 H1048 0.929 . S
C1052 C1054 1.378 . S
C1052 C1056 1.350 . S
C1053 C1056 1.463 . S
C1053 C1058 1.350 . S
C1053 N1061 1.427 . S
C1054 H1045 0.930 . S
C1054 C1052 1.378 . S
C1054 C1055 1.367 . S
C1055 C1054 1.367 . S
C1055 C1057 1.433 . S
C1056 C1052 1.350 . S
C1056 C1053 1.463 . S
C1056 N1060 1.427 . S
C1057 H1047 0.929 . S
C1057 C1055 1.433 . S
C1057 N1060 1.384 . S
C1058 H1049 0.929 . S
C1058 C1050 1.378 . S
C1058 C1053 1.350 . S
C1059 H1046 0.929 . S
C1059 C1051 1.433 . S
C1059 N1061 1.384 . S
N1060 C1056 1.427 . S
N1060 C1057 1.384 . S
N1061 C1053 1.427 . S
N1061 C1059 1.384 . S
H1062 C1068 0.930 . S
H1063 C1072 0.930 . S
H1064 C1077 0.929 . S
H1065 C1075 0.929 . S
H1066 C1070 0.929 . S
H1067 C1076 0.929 . S
C1068 H1062 0.930 . S
C1068 C1069 1.367 . S
C1068 C1076 1.378 . S
C1069 C1068 1.367 . S
C1069 C1077 1.433 . S
C1070 H1066 0.929 . S
C1070 C1072 1.378 . S
C1070 C1074 1.350 . S
C1071 C1074 1.463 . S
C1071 C1076 1.350 . S
C1071 N1079 1.427 . S
C1072 H1063 0.930 . S
C1072 C1070 1.378 . S
C1072 C1073 1.367 . S
C1073 C1072 1.367 . S
C1073 C1075 1.433 . S
C1074 C1070 1.350 . S
C1074 C1071 1.463 . S
C1074 N1078 1.427 . S
C1075 H1065 0.929 . S
C1075 C1073 1.433 . S
C1075 N1078 1.384 . S
C1076 H1067 0.929 . S
C1076 C1068 1.378 . S
C1076 C1071 1.350 . S
C1077 H1064 0.929 . S
C1077 C1069 1.433 . S
C1077 N1079 1.384 . S
N1078 C1074 1.427 . S
N1078 C1075 1.384 . S
N1079 C1071 1.427 . S
N1079 C1077 1.384 . S
H1080 C1086 0.930 . S
H1081 C1090 0.930 . S
H1082 C1095 0.929 . S
H1083 C1093 0.929 . S
H1084 C1088 0.929 . S
H1085 C1094 0.929 . S
C1086 H1080 0.930 . S
C1086 C1087 1.367 . S
C1086 C1094 1.378 . S
C1087 C1086 1.367 . S
C1087 C1095 1.433 . S
C1088 H1084 0.929 . S
C1088 C1090 1.378 . S
C1088 C1092 1.350 . S
C1089 C1092 1.448 1_566 S
C1089 C1094 1.370 . S
C1089 N1097 1.427 . S
C1090 H1081 0.930 . S
C1090 C1088 1.378 . S
C1090 C1091 1.367 . S
C1091 C1090 1.367 . S
C1091 C1093 1.433 . S
C1092 C1088 1.350 . S
C1092 C1089 1.448 1_544 S
C1092 N1096 1.427 . S
C1093 H1083 0.929 . S
C1093 C1091 1.433 . S
C1093 N1096 1.384 . S
C1094 H1085 0.929 . S
C1094 C1086 1.378 . S
C1094 C1089 1.370 . S
C1095 H1082 0.929 . S
C1095 C1087 1.433 . S
C1095 N1097 1.398 . S
N1096 C1092 1.427 . S
N1096 C1093 1.384 . S
N1097 C1089 1.427 . S
N1097 C1095 1.398 . S
H1098 C1104 0.930 . S
H1099 C1108 0.930 . S
H1100 C1113 0.929 . S
H1101 C1111 0.929 . S
H1102 C1106 0.929 . S
H1103 C1112 0.929 . S
C1104 H1098 0.930 . S
C1104 C1105 1.367 . S
C1104 C1112 1.378 . S
C1105 C1104 1.367 . S
C1105 C1113 1.433 . S
C1106 H1102 0.929 . S
C1106 C1108 1.378 . S
C1106 C1110 1.350 . S
C1107 C1110 1.463 . S
C1107 C1112 1.350 . S
C1107 N1115 1.427 . S
C1108 H1099 0.930 . S
C1108 C1106 1.378 . S
C1108 C1109 1.367 . S
C1109 C1108 1.367 . S
C1109 C1111 1.433 . S
C1110 C1106 1.350 . S
C1110 C1107 1.463 . S
C1110 N1114 1.427 . S
C1111 H1101 0.929 . S
C1111 C1109 1.433 . S
C1111 N1114 1.384 . S
C1112 H1103 0.929 . S
C1112 C1104 1.378 . S
C1112 C1107 1.350 . S
C1113 H1100 0.929 . S
C1113 C1105 1.433 . S
C1113 N1115 1.384 . S
N1114 C1110 1.427 . S
N1114 C1111 1.384 . S
N1115 C1107 1.427 . S
N1115 C1113 1.384 . S
H1116 C1122 0.930 . S
H1117 C1126 0.930 . S
H1118 C1131 0.929 . S
H1119 C1129 0.929 . S
H1120 C1124 0.929 . S
H1121 C1130 0.929 . S
C1122 H1116 0.930 . S
C1122 C1123 1.367 . S
C1122 C1130 1.378 . S
C1123 C1122 1.367 . S
C1123 C1131 1.433 . S
C1124 H1120 0.929 . S
C1124 C1126 1.378 . S
C1124 C1128 1.350 . S
C1125 C1128 1.463 1_455 S
C1125 C1130 1.350 . S
C1125 N1133 1.427 . S
C1126 H1117 0.930 . S
C1126 C1124 1.378 . S
C1126 C1127 1.367 . S
C1127 C1126 1.367 . S
C1127 C1129 1.433 . S
C1128 C1124 1.350 . S
C1128 C1125 1.463 1_655 S
C1128 N1132 1.427 . S
C1129 H1119 0.929 . S
C1129 C1127 1.433 . S
C1129 N1132 1.384 . S
C1130 H1121 0.929 . S
C1130 C1122 1.378 . S
C1130 C1125 1.350 . S
C1131 H1118 0.929 . S
C1131 C1123 1.433 . S
C1131 N1133 1.384 . S
N1132 C1128 1.427 . S
N1132 C1129 1.384 . S
N1133 C1125 1.427 . S
N1133 C1131 1.384 . S
H1134 C1140 0.930 . S
H1135 C1144 0.930 . S
H1136 C1149 0.929 . S
H1137 C1147 0.929 . S
H1138 C1142 0.929 . S
H1139 C1148 0.929 . S
C1140 H1134 0.930 . S
C1140 C1141 1.367 . S
C1140 C1148 1.378 . S
C1141 C1140 1.367 . S
C1141 C1149 1.433 . S
C1142 H1138 0.929 . S
C1142 C1144 1.378 . S
C1142 C1146 1.350 . S
C1143 C1146 1.463 1_565 S
C1143 C1148 1.350 . S
C1143 N1151 1.427 . S
C1144 H1135 0.930 . S
C1144 C1142 1.378 . S
C1144 C1145 1.367 . S
C1145 C1144 1.367 . S
C1145 C1147 1.433 . S
C1146 C1142 1.350 . S
C1146 C1143 1.463 1_545 S
C1146 N1150 1.427 . S
C1147 H1137 0.929 . S
C1147 C1145 1.433 . S
C1147 N1150 1.384 . S
C1148 H1139 0.929 . S
C1148 C1140 1.378 . S
C1148 C1143 1.350 . S
C1149 H1136 0.929 . S
C1149 C1141 1.433 . S
C1149 N1151 1.384 . S
N1150 C1146 1.427 . S
N1150 C1147 1.384 . S
N1151 C1143 1.427 . S
N1151 C1149 1.384 . S
H1152 C1158 0.930 . S
H1153 C1162 0.930 . S
H1154 C1167 0.929 . S
H1155 C1165 0.929 . S
H1156 C1160 0.929 . S
H1157 C1166 0.929 . S
C1158 H1152 0.930 . S
C1158 C1159 1.367 . S
C1158 C1166 1.378 . S
C1159 C1158 1.367 . S
C1159 C1167 1.433 . S
C1160 H1156 0.929 . S
C1160 C1162 1.378 . S
C1160 C1164 1.350 . S
C1161 C1164 1.463 . S
C1161 C1166 1.350 . S
C1161 N1169 1.427 . S
C1162 H1153 0.930 . S
C1162 C1160 1.378 . S
C1162 C1163 1.367 . S
C1163 C1162 1.367 . S
C1163 C1165 1.433 . S
C1164 C1160 1.350 . S
C1164 C1161 1.463 . S
C1164 N1168 1.427 . S
C1165 H1155 0.929 . S
C1165 C1163 1.433 . S
C1165 N1168 1.384 . S
C1166 H1157 0.929 . S
C1166 C1158 1.378 . S
C1166 C1161 1.350 . S
C1167 H1154 0.929 . S
C1167 C1159 1.433 . S
C1167 N1169 1.384 . S
N1168 C1164 1.427 . S
N1168 C1165 1.384 . S
N1169 C1161 1.427 . S
N1169 C1167 1.384 . S
H1170 C1176 0.930 . S
H1171 C1180 0.930 . S
H1172 C1185 0.929 . S
H1173 C1183 0.929 . S
H1174 C1178 0.929 . S
H1175 C1184 0.929 . S
C1176 H1170 0.930 . S
C1176 C1177 1.367 . S
C1176 C1184 1.378 . S
C1177 C1176 1.367 . S
C1177 C1185 1.433 . S
C1178 H1174 0.929 . S
C1178 C1180 1.378 . S
C1178 C1182 1.350 . S
C1179 C1182 1.463 1_655 S
C1179 C1184 1.350 . S
C1179 N1187 1.427 . S
C1180 H1171 0.930 . S
C1180 C1178 1.378 . S
C1180 C1181 1.367 . S
C1181 C1180 1.367 . S
C1181 C1183 1.433 . S
C1182 C1178 1.350 . S
C1182 C1179 1.463 1_455 S
C1182 N1186 1.427 . S
C1183 H1173 0.929 . S
C1183 C1181 1.433 . S
C1183 N1186 1.384 . S
C1184 H1175 0.929 . S
C1184 C1176 1.378 . S
C1184 C1179 1.350 . S
C1185 H1172 0.929 . S
C1185 C1177 1.433 . S
C1185 N1187 1.384 . S
N1186 C1182 1.427 . S
N1186 C1183 1.384 . S
N1187 C1179 1.427 . S
N1187 C1185 1.384 . S
H1188 C1194 0.930 . S
H1189 C1198 0.930 . S
H1190 C1203 0.929 . S
H1191 C1201 0.929 . S
H1192 C1196 0.929 . S
H1193 C1202 0.929 . S
C1194 H1188 0.930 . S
C1194 C1195 1.367 . S
C1194 C1202 1.378 . S
C1195 C1194 1.367 . S
C1195 C1203 1.433 . S
C1196 H1192 0.929 . S
C1196 C1198 1.378 . S
C1196 C1200 1.350 . S
C1197 C1200 1.463 . S
C1197 C1202 1.350 . S
C1197 N1205 1.427 . S
C1198 H1189 0.930 . S
C1198 C1196 1.378 . S
C1198 C1199 1.367 . S
C1199 C1198 1.367 . S
C1199 C1201 1.433 . S
C1200 C1196 1.350 . S
C1200 C1197 1.463 . S
C1200 N1204 1.427 . S
C1201 H1191 0.929 . S
C1201 C1199 1.433 . S
C1201 N1204 1.384 . S
C1202 H1193 0.929 . S
C1202 C1194 1.378 . S
C1202 C1197 1.350 . S
C1203 H1190 0.929 . S
C1203 C1195 1.433 . S
C1203 N1205 1.384 . S
N1204 C1200 1.427 . S
N1204 C1201 1.384 . S
N1205 C1197 1.427 . S
N1205 C1203 1.384 . S
H1206 C1212 0.930 . S
H1207 C1216 0.930 . S
H1208 C1221 0.929 . S
H1209 C1219 0.929 . S
H1210 C1214 0.929 . S
H1211 C1220 0.929 . S
C1212 H1206 0.930 . S
C1212 C1213 1.367 . S
C1212 C1220 1.378 . S
C1213 C1212 1.367 . S
C1213 C1221 1.433 . S
C1214 H1210 0.929 . S
C1214 C1216 1.378 . S
C1214 C1218 1.350 . S
C1215 C1218 1.463 . S
C1215 C1220 1.350 . S
C1215 N1223 1.427 . S
C1216 H1207 0.930 . S
C1216 C1214 1.378 . S
C1216 C1217 1.367 . S
C1217 C1216 1.367 . S
C1217 C1219 1.433 . S
C1218 C1214 1.350 . S
C1218 C1215 1.463 . S
C1218 N1222 1.427 . S
C1219 H1209 0.929 . S
C1219 C1217 1.433 . S
C1219 N1222 1.384 . S
C1220 H1211 0.929 . S
C1220 C1212 1.378 . S
C1220 C1215 1.350 . S
C1221 H1208 0.929 . S
C1221 C1213 1.433 . S
C1221 N1223 1.384 . S
N1222 C1218 1.427 . S
N1222 C1219 1.384 . S
N1223 C1215 1.427 . S
N1223 C1221 1.384 . S
H1224 C1230 0.930 . S
H1225 C1234 0.930 . S
H1226 C1239 0.929 . S
H1227 C1237 0.929 . S
H1228 C1232 0.929 . S
H1229 C1238 0.929 . S
C1230 H1224 0.930 . S
C1230 C1231 1.367 . S
C1230 C1238 1.378 . S
C1231 C1230 1.367 . S
C1231 C1239 1.433 . S
C1232 H1228 0.929 . S
C1232 C1234 1.378 . S
C1232 C1236 1.350 . S
C1233 C1236 1.463 . S
C1233 C1238 1.350 . S
C1233 N1241 1.427 . S
C1234 H1225 0.930 . S
C1234 C1232 1.378 . S
C1234 C1235 1.367 . S
C1235 C1234 1.367 . S
C1235 C1237 1.433 . S
C1236 C1232 1.350 . S
C1236 C1233 1.463 . S
C1236 N1240 1.427 . S
C1237 H1227 0.929 . S
C1237 C1235 1.433 . S
C1237 N1240 1.384 . S
C1238 H1229 0.929 . S
C1238 C1230 1.378 . S
C1238 C1233 1.350 . S
C1239 H1226 0.929 . S
C1239 C1231 1.433 . S
C1239 N1241 1.384 . S
N1240 C1236 1.427 . S
N1240 C1237 1.384 . S
N1241 C1233 1.427 . S
N1241 C1239 1.384 . S
H1242 C1248 0.930 . S
H1243 C1252 0.930 . S
H1244 C1257 0.929 . S
H1245 C1255 0.929 . S
H1246 C1250 0.929 . S
H1247 C1256 0.929 . S
C1248 H1242 0.930 . S
C1248 C1249 1.367 . S
C1248 C1256 1.378 . S
C1249 C1248 1.367 . S
C1249 C1257 1.433 . S
C1250 H1246 0.929 . S
C1250 C1252 1.378 . S
C1250 C1254 1.350 . S
C1251 C1254 1.463 . S
C1251 C1256 1.350 . S
C1251 N1259 1.427 . S
C1252 H1243 0.930 . S
C1252 C1250 1.378 . S
C1252 C1253 1.367 . S
C1253 C1252 1.367 . S
C1253 C1255 1.433 . S
C1254 C1250 1.350 . S
C1254 C1251 1.463 . S
C1254 N1258 1.427 . S
C1255 H1245 0.929 . S
C1255 C1253 1.433 . S
C1255 N1258 1.384 . S
C1256 H1247 0.929 . S
C1256 C1248 1.378 . S
C1256 C1251 1.350 . S
C1257 H1244 0.929 . S
C1257 C1249 1.433 . S
C1257 N1259 1.384 . S
N1258 C1254 1.427 . S
N1258 C1255 1.384 . S
N1259 C1251 1.427 . S
N1259 C1257 1.384 . S
H1260 C1266 0.930 . S
H1261 C1270 0.930 . S
H1262 C1275 0.929 . S
H1263 C1273 0.929 . S
H1264 C1268 0.929 . S
H1265 C1274 0.929 . S
C1266 H1260 0.930 . S
C1266 C1267 1.367 . S
C1266 C1274 1.378 . S
C1267 C1266 1.367 . S
C1267 C1275 1.433 . S
C1268 H1264 0.929 . S
C1268 C1270 1.378 . S
C1268 C1272 1.350 . S
C1269 C1272 1.463 . S
C1269 C1274 1.350 . S
C1269 N1277 1.427 . S
C1270 H1261 0.930 . S
C1270 C1268 1.378 . S
C1270 C1271 1.367 . S
C1271 C1270 1.367 . S
C1271 C1273 1.433 . S
C1272 C1268 1.350 . S
C1272 C1269 1.463 . S
C1272 N1276 1.427 . S
C1273 H1263 0.929 . S
C1273 C1271 1.433 . S
C1273 N1276 1.384 . S
C1274 H1265 0.929 . S
C1274 C1266 1.378 . S
C1274 C1269 1.350 . S
C1275 H1262 0.929 . S
C1275 C1267 1.433 . S
C1275 N1277 1.384 . S
N1276 C1272 1.427 . S
N1276 C1273 1.384 . S
N1277 C1269 1.427 . S
N1277 C1275 1.384 . S
H1278 C1284 0.930 . S
H1279 C1288 0.930 . S
H1280 C1293 0.929 . S
H1281 C1291 0.929 . S
H1282 C1286 0.929 . S
H1283 C1292 0.929 . S
C1284 H1278 0.930 . S
C1284 C1285 1.367 . S
C1284 C1292 1.378 . S
C1285 C1284 1.367 . S
C1285 C1293 1.433 . S
C1286 H1282 0.929 . S
C1286 C1288 1.378 . S
C1286 C1290 1.350 . S
C1287 C1290 1.463 . S
C1287 C1292 1.350 . S
C1287 N1295 1.427 . S
C1288 H1279 0.930 . S
C1288 C1286 1.378 . S
C1288 C1289 1.367 . S
C1289 C1288 1.367 . S
C1289 C1291 1.433 . S
C1290 C1286 1.350 . S
C1290 C1287 1.463 . S
C1290 N1294 1.427 . S
C1291 H1281 0.929 . S
C1291 C1289 1.433 . S
C1291 N1294 1.384 . S
C1292 H1283 0.929 . S
C1292 C1284 1.378 . S
C1292 C1287 1.350 . S
C1293 H1280 0.929 . S
C1293 C1285 1.433 . S
C1293 N1295 1.384 . S
N1294 C1290 1.427 . S
N1294 C1291 1.384 . S
N1295 C1287 1.427 . S
N1295 C1293 1.384 . S
H1296 C1302 0.930 . S
H1297 C1306 0.930 . S
H1298 C1311 0.929 . S
H1299 C1309 0.929 . S
H1300 C1304 0.929 . S
H1301 C1310 0.929 . S
C1302 H1296 0.930 . S
C1302 C1303 1.367 . S
C1302 C1310 1.378 . S
C1303 C1302 1.367 . S
C1303 C1311 1.433 . S
C1304 H1300 0.929 . S
C1304 C1306 1.378 . S
C1304 C1308 1.350 . S
C1305 C1308 1.463 . S
C1305 C1310 1.350 . S
C1305 N1313 1.427 . S
C1306 H1297 0.930 . S
C1306 C1304 1.378 . S
C1306 C1307 1.367 . S
C1307 C1306 1.367 . S
C1307 C1309 1.433 . S
C1308 C1304 1.350 . S
C1308 C1305 1.463 . S
C1308 N1312 1.427 . S
C1309 H1299 0.929 . S
C1309 C1307 1.433 . S
C1309 N1312 1.384 . S
C1310 H1301 0.929 . S
C1310 C1302 1.378 . S
C1310 C1305 1.350 . S
C1311 H1298 0.929 . S
C1311 C1303 1.433 . S
C1311 N1313 1.384 . S
N1312 C1308 1.427 . S
N1312 C1309 1.384 . S
N1313 C1305 1.427 . S
N1313 C1311 1.384 . S
H1314 C1320 0.930 . S
H1315 C1324 0.930 . S
H1316 C1329 0.929 . S
H1317 C1327 0.929 . S
H1318 C1322 0.929 . S
H1319 C1328 0.929 . S
C1320 H1314 0.930 . S
C1320 C1321 1.367 . S
C1320 C1328 1.378 . S
C1321 C1320 1.367 . S
C1321 C1329 1.433 . S
C1322 H1318 0.929 . S
C1322 C1324 1.378 . S
C1322 C1326 1.350 . S
C1323 C1326 1.463 . S
C1323 C1328 1.350 . S
C1323 N1331 1.427 . S
C1324 H1315 0.930 . S
C1324 C1322 1.378 . S
C1324 C1325 1.367 . S
C1325 C1324 1.367 . S
C1325 C1327 1.433 . S
C1326 C1322 1.350 . S
C1326 C1323 1.463 . S
C1326 N1330 1.427 . S
C1327 H1317 0.929 . S
C1327 C1325 1.433 . S
C1327 N1330 1.384 . S
C1328 H1319 0.929 . S
C1328 C1320 1.378 . S
C1328 C1323 1.350 . S
C1329 H1316 0.929 . S
C1329 C1321 1.433 . S
C1329 N1331 1.384 . S
N1330 C1326 1.427 . S
N1330 C1327 1.384 . S
N1331 C1323 1.427 . S
N1331 C1329 1.384 . S
H1332 C1338 0.930 . S
H1333 C1342 0.930 . S
H1334 C1347 0.929 . S
H1335 C1345 0.929 . S
H1336 C1340 0.929 . S
H1337 C1346 0.929 . S
C1338 H1332 0.930 . S
C1338 C1339 1.367 . S
C1338 C1346 1.378 . S
C1339 C1338 1.367 . S
C1339 C1347 1.433 . S
C1340 H1336 0.929 . S
C1340 C1342 1.378 . S
C1340 C1344 1.350 . S
C1341 C1344 1.463 . S
C1341 C1346 1.350 . S
C1341 N1349 1.427 . S
C1342 H1333 0.930 . S
C1342 C1340 1.378 . S
C1342 C1343 1.367 . S
C1343 C1342 1.367 . S
C1343 C1345 1.433 . S
C1344 C1340 1.350 . S
C1344 C1341 1.463 . S
C1344 N1348 1.427 . S
C1345 H1335 0.929 . S
C1345 C1343 1.433 . S
C1345 N1348 1.384 . S
C1346 H1337 0.929 . S
C1346 C1338 1.378 . S
C1346 C1341 1.350 . S
C1347 H1334 0.929 . S
C1347 C1339 1.433 . S
C1347 N1349 1.384 . S
N1348 C1344 1.427 . S
N1348 C1345 1.384 . S
N1349 C1341 1.427 . S
N1349 C1347 1.384 . S
H1350 C1356 0.930 . S
H1351 C1360 0.930 . S
H1352 C1365 0.929 . S
H1353 C1363 0.929 . S
H1354 C1358 0.929 . S
H1355 C1364 0.929 . S
C1356 H1350 0.930 . S
C1356 C1357 1.367 . S
C1356 C1364 1.378 . S
C1357 C1356 1.367 . S
C1357 C1365 1.433 . S
C1358 H1354 0.929 . S
C1358 C1360 1.378 . S
C1358 C1362 1.350 . S
C1359 C1362 1.463 . S
C1359 C1364 1.350 . S
C1359 N1367 1.427 . S
C1360 H1351 0.930 . S
C1360 C1358 1.378 . S
C1360 C1361 1.367 . S
C1361 C1360 1.367 . S
C1361 C1363 1.433 . S
C1362 C1358 1.350 . S
C1362 C1359 1.463 . S
C1362 N1366 1.427 . S
C1363 H1353 0.929 . S
C1363 C1361 1.433 . S
C1363 N1366 1.384 . S
C1364 H1355 0.929 . S
C1364 C1356 1.378 . S
C1364 C1359 1.350 . S
C1365 H1352 0.929 . S
C1365 C1357 1.433 . S
C1365 N1367 1.384 . S
N1366 C1362 1.427 . S
N1366 C1363 1.384 . S
N1367 C1359 1.427 . S
N1367 C1365 1.384 . S
H1368 C1374 0.930 . S
H1369 C1378 0.930 . S
H1370 C1383 0.929 . S
H1371 C1381 0.929 . S
H1372 C1376 0.929 . S
H1373 C1382 0.929 . S
C1374 H1368 0.930 . S
C1374 C1375 1.367 . S
C1374 C1382 1.378 . S
C1375 C1374 1.367 . S
C1375 C1383 1.433 . S
C1376 H1372 0.929 . S
C1376 C1378 1.378 . S
C1376 C1380 1.350 . S
C1377 C1380 1.463 . S
C1377 C1382 1.350 . S
C1377 N1385 1.427 . S
C1378 H1369 0.930 . S
C1378 C1376 1.378 . S
C1378 C1379 1.367 . S
C1379 C1378 1.367 . S
C1379 C1381 1.433 . S
C1380 C1376 1.350 . S
C1380 C1377 1.463 . S
C1380 N1384 1.427 . S
C1381 H1371 0.929 . S
C1381 C1379 1.433 . S
C1381 N1384 1.384 . S
C1382 H1373 0.929 . S
C1382 C1374 1.378 . S
C1382 C1377 1.350 . S
C1383 H1370 0.929 . S
C1383 C1375 1.433 . S
C1383 N1385 1.384 . S
N1384 C1380 1.427 . S
N1384 C1381 1.384 . S
N1385 C1377 1.427 . S
N1385 C1383 1.384 . S
H1386 C1392 0.930 . S
H1387 C1396 0.930 . S
H1388 C1401 0.929 . S
H1389 C1399 0.929 . S
H1390 C1394 0.929 . S
H1391 C1400 0.929 . S
C1392 H1386 0.930 . S
C1392 C1393 1.367 . S
C1392 C1400 1.378 . S
C1393 C1392 1.367 . S
C1393 C1401 1.433 . S
C1394 H1390 0.929 . S
C1394 C1396 1.378 . S
C1394 C1398 1.350 . S
C1395 C1398 1.463 . S
C1395 C1400 1.350 . S
C1395 N1403 1.427 . S
C1396 H1387 0.930 . S
C1396 C1394 1.378 . S
C1396 C1397 1.367 . S
C1397 C1396 1.367 . S
C1397 C1399 1.433 . S
C1398 C1394 1.350 . S
C1398 C1395 1.463 . S
C1398 N1402 1.427 . S
C1399 H1389 0.929 . S
C1399 C1397 1.433 . S
C1399 N1402 1.384 . S
C1400 H1391 0.929 . S
C1400 C1392 1.378 . S
C1400 C1395 1.350 . S
C1401 H1388 0.929 . S
C1401 C1393 1.433 . S
C1401 N1403 1.384 . S
N1402 C1398 1.427 . S
N1402 C1399 1.384 . S
N1403 C1395 1.427 . S
N1403 C1401 1.384 . S
H1404 C1410 0.930 . S
H1405 C1414 0.930 . S
H1406 C1419 0.929 . S
H1407 C1417 0.929 . S
H1408 C1412 1.015 . S
H1409 C1418 0.929 . S
C1410 H1404 0.930 . S
C1410 C1411 1.367 . S
C1410 C1418 1.378 1_554 S
C1411 C1410 1.367 . S
C1411 C1419 1.433 . S
C1412 H1408 1.015 . S
C1412 C1414 1.330 1_554 S
C1412 C1416 1.317 1_554 S
C1413 C1416 1.463 1_554 S
C1413 C1418 1.350 1_554 S
C1413 N1421 1.427 . S
C1414 H1405 0.930 . S
C1414 C1412 1.330 1_556 S
C1414 C1415 1.367 . S
C1415 C1414 1.367 . S
C1415 C1417 1.433 . S
C1416 C1412 1.317 1_556 S
C1416 C1413 1.463 1_556 S
C1416 N1420 1.427 . S
C1417 H1407 0.929 . S
C1417 C1415 1.433 . S
C1417 N1420 1.384 . S
C1418 H1409 0.929 . S
C1418 C1410 1.378 1_556 S
C1418 C1413 1.350 1_556 S
C1419 H1406 0.929 . S
C1419 C1411 1.433 . S
C1419 N1421 1.384 . S
N1420 C1416 1.427 . S
N1420 C1417 1.384 . S
N1421 C1413 1.427 . S
N1421 C1419 1.384 . S
H1422 C1428 0.930 . S
H1423 C1432 0.930 . S
H1424 C1437 0.929 . S
H1425 C1435 0.929 . S
H1426 C1430 0.929 . S
H1427 C1436 0.929 . S
C1428 H1422 0.930 . S
C1428 C1429 1.367 . S
C1428 C1436 1.378 . S
C1429 C1428 1.367 . S
C1429 C1437 1.433 . S
C1430 H1426 0.929 . S
C1430 C1432 1.378 . S
C1430 C1434 1.350 . S
C1431 C1434 1.463 . S
C1431 C1436 1.350 . S
C1431 N1439 1.427 . S
C1432 H1423 0.930 . S
C1432 C1430 1.378 . S
C1432 C1433 1.367 . S
C1433 C1432 1.367 . S
C1433 C1435 1.433 . S
C1434 C1430 1.350 . S
C1434 C1431 1.463 . S
C1434 N1438 1.427 . S
C1435 H1425 0.929 . S
C1435 C1433 1.433 . S
C1435 N1438 1.384 . S
C1436 H1427 0.929 . S
C1436 C1428 1.378 . S
C1436 C1431 1.350 . S
C1437 H1424 0.929 . S
C1437 C1429 1.433 . S
C1437 N1439 1.384 . S
N1438 C1434 1.427 . S
N1438 C1435 1.384 . S
N1439 C1431 1.427 . S
N1439 C1437 1.384 . S
H1440 C1446 0.930 . S
H1441 C1450 0.930 . S
H1442 C1455 0.929 . S
H1443 C1453 0.929 . S
H1444 C1448 0.929 . S
H1445 C1454 0.929 . S
C1446 H1440 0.930 . S
C1446 C1447 1.367 . S
C1446 C1454 1.378 . S
C1447 C1446 1.367 . S
C1447 C1455 1.433 . S
C1448 H1444 0.929 . S
C1448 C1450 1.378 . S
C1448 C1452 1.350 . S
C1449 C1452 1.463 . S
C1449 C1454 1.350 . S
C1449 N1457 1.427 . S
C1450 H1441 0.930 . S
C1450 C1448 1.378 . S
C1450 C1451 1.367 . S
C1451 C1450 1.367 . S
C1451 C1453 1.433 . S
C1452 C1448 1.350 . S
C1452 C1449 1.463 . S
C1452 N1456 1.427 . S
C1453 H1443 0.929 . S
C1453 C1451 1.433 . S
C1453 N1456 1.384 . S
C1454 H1445 0.929 . S
C1454 C1446 1.378 . S
C1454 C1449 1.350 . S
C1455 H1442 0.929 . S
C1455 C1447 1.433 . S
C1455 N1457 1.384 . S
N1456 C1452 1.427 . S
N1456 C1453 1.384 . S
N1457 C1449 1.427 . S
N1457 C1455 1.384 . S
H1458 C1464 0.930 . S
H1459 C1468 0.930 . S
H1460 C1473 0.929 . S
H1461 C1471 0.929 . S
H1462 C1466 0.929 . S
H1463 C1472 0.929 . S
C1464 H1458 0.930 . S
C1464 C1465 1.367 . S
C1464 C1472 1.378 . S
C1465 C1464 1.367 . S
C1465 C1473 1.433 . S
C1466 H1462 0.929 . S
C1466 C1468 1.378 . S
C1466 C1470 1.350 . S
C1467 C1470 1.463 . S
C1467 C1472 1.350 . S
C1467 N1475 1.427 . S
C1468 H1459 0.930 . S
C1468 C1466 1.378 . S
C1468 C1469 1.367 . S
C1469 C1468 1.367 . S
C1469 C1471 1.433 . S
C1470 C1466 1.350 . S
C1470 C1467 1.463 . S
C1470 N1474 1.427 . S
C1471 H1461 0.929 . S
C1471 C1469 1.433 . S
C1471 N1474 1.384 . S
C1472 H1463 0.929 . S
C1472 C1464 1.378 . S
C1472 C1467 1.350 . S
C1473 H1460 0.929 . S
C1473 C1465 1.433 . S
C1473 N1475 1.384 . S
N1474 C1470 1.427 . S
N1474 C1471 1.384 . S
N1475 C1467 1.427 . S
N1475 C1473 1.384 . S
H1476 C1482 0.930 . S
H1477 C1486 0.930 . S
H1478 C1491 0.929 . S
H1479 C1489 0.929 . S
H1480 C1484 0.929 . S
H1481 C1490 0.929 . S
C1482 H1476 0.930 . S
C1482 C1483 1.367 . S
C1482 C1490 1.378 . S
C1483 C1482 1.367 . S
C1483 C1491 1.433 . S
C1484 H1480 0.929 . S
C1484 C1486 1.378 . S
C1484 C1488 1.350 . S
C1485 C1488 1.463 . S
C1485 C1490 1.350 . S
C1485 N1493 1.427 . S
C1486 H1477 0.930 . S
C1486 C1484 1.378 . S
C1486 C1487 1.367 . S
C1487 C1486 1.367 . S
C1487 C1489 1.433 . S
C1488 C1484 1.350 . S
C1488 C1485 1.463 . S
C1488 N1492 1.427 . S
C1489 H1479 0.929 . S
C1489 C1487 1.433 . S
C1489 N1492 1.384 . S
C1490 H1481 0.929 . S
C1490 C1482 1.378 . S
C1490 C1485 1.350 . S
C1491 H1478 0.929 . S
C1491 C1483 1.433 . S
C1491 N1493 1.384 . S
N1492 C1488 1.427 . S
N1492 C1489 1.384 . S
N1493 C1485 1.427 . S
N1493 C1491 1.384 . S
H1494 C1500 0.930 . S
H1495 C1504 0.930 . S
H1496 C1509 0.929 . S
H1497 C1507 0.929 . S
H1498 C1502 0.929 . S
H1499 C1508 0.929 . S
C1500 H1494 0.930 . S
C1500 C1501 1.367 . S
C1500 C1508 1.378 . S
C1501 C1500 1.367 . S
C1501 C1509 1.433 . S
C1502 H1498 0.929 . S
C1502 C1504 1.378 . S
C1502 C1506 1.350 . S
C1503 C1506 1.463 . S
C1503 C1508 1.350 . S
C1503 N1511 1.427 . S
C1504 H1495 0.930 . S
C1504 C1502 1.378 . S
C1504 C1505 1.367 . S
C1505 C1504 1.367 . S
C1505 C1507 1.433 . S
C1506 C1502 1.350 . S
C1506 C1503 1.463 . S
C1506 N1510 1.427 . S
C1507 H1497 0.929 . S
C1507 C1505 1.433 . S
C1507 N1510 1.384 . S
C1508 H1499 0.929 . S
C1508 C1500 1.378 . S
C1508 C1503 1.350 . S
C1509 H1496 0.929 . S
C1509 C1501 1.433 . S
C1509 N1511 1.384 . S
N1510 C1506 1.427 . S
N1510 C1507 1.384 . S
N1511 C1503 1.427 . S
N1511 C1509 1.384 . S
H1512 C1518 0.930 . S
H1513 C1522 0.930 . S
H1514 C1527 0.929 . S
H1515 C1525 0.929 . S
H1516 C1520 0.929 . S
H1517 C1526 0.929 . S
C1518 H1512 0.930 . S
C1518 C1519 1.367 . S
C1518 C1526 1.378 . S
C1519 C1518 1.367 . S
C1519 C1527 1.433 . S
C1520 H1516 0.929 . S
C1520 C1522 1.378 . S
C1520 C1524 1.350 . S
C1521 C1524 1.463 . S
C1521 C1526 1.350 . S
C1521 N1529 1.427 . S
C1522 H1513 0.930 . S
C1522 C1520 1.378 . S
C1522 C1523 1.367 . S
C1523 C1522 1.367 . S
C1523 C1525 1.433 . S
C1524 C1520 1.350 . S
C1524 C1521 1.463 . S
C1524 N1528 1.427 . S
C1525 H1515 0.929 . S
C1525 C1523 1.433 . S
C1525 N1528 1.384 . S
C1526 H1517 0.929 . S
C1526 C1518 1.378 . S
C1526 C1521 1.350 . S
C1527 H1514 0.929 . S
C1527 C1519 1.433 . S
C1527 N1529 1.384 . S
N1528 C1524 1.427 . S
N1528 C1525 1.384 . S
N1529 C1521 1.427 . S
N1529 C1527 1.384 . S
H1530 C1536 0.930 . S
H1531 C1540 0.930 . S
H1532 C1545 0.929 . S
H1533 C1543 0.929 . S
H1534 C1538 0.929 . S
H1535 C1544 0.929 . S
C1536 H1530 0.930 . S
C1536 C1537 1.367 . S
C1536 C1544 1.378 . S
C1537 C1536 1.367 . S
C1537 C1545 1.433 . S
C1538 H1534 0.929 . S
C1538 C1540 1.378 . S
C1538 C1542 1.350 . S
C1539 C1542 1.463 1_556 S
C1539 C1544 1.350 . S
C1539 N1547 1.429 . S
C1540 H1531 0.930 . S
C1540 C1538 1.378 . S
C1540 C1541 1.367 . S
C1541 C1540 1.367 . S
C1541 C1543 1.433 . S
C1542 C1538 1.350 . S
C1542 C1539 1.463 1_554 S
C1542 N1546 1.427 . S
C1543 H1533 0.929 . S
C1543 C1541 1.433 . S
C1543 N1546 1.384 . S
C1544 H1535 0.929 . S
C1544 C1536 1.378 . S
C1544 C1539 1.350 . S
C1545 H1532 0.929 . S
C1545 C1537 1.433 . S
C1545 N1547 1.387 . S
N1546 C1542 1.427 . S
N1546 C1543 1.384 . S
N1547 C1539 1.429 . S
N1547 C1545 1.387 . S
H1548 C1554 0.930 . S
H1549 C1558 0.930 . S
H1550 C1563 0.929 . S
H1551 C1561 0.929 . S
H1552 C1556 0.929 . S
H1553 C1562 0.929 . S
C1554 H1548 0.930 . S
C1554 C1555 1.367 . S
C1554 C1562 1.378 . S
C1555 C1554 1.367 . S
C1555 C1563 1.433 . S
C1556 H1552 0.929 . S
C1556 C1558 1.378 . S
C1556 C1560 1.350 . S
C1557 C1560 1.463 . S
C1557 C1562 1.350 . S
C1557 N1565 1.427 . S
C1558 H1549 0.930 . S
C1558 C1556 1.378 . S
C1558 C1559 1.367 . S
C1559 C1558 1.367 . S
C1559 C1561 1.433 . S
C1560 C1556 1.350 . S
C1560 C1557 1.463 . S
C1560 N1564 1.427 . S
C1561 H1551 0.929 . S
C1561 C1559 1.433 . S
C1561 N1564 1.384 . S
C1562 H1553 0.929 . S
C1562 C1554 1.378 . S
C1562 C1557 1.350 . S
C1563 H1550 0.929 . S
C1563 C1555 1.433 . S
C1563 N1565 1.384 . S
N1564 C1560 1.427 . S
N1564 C1561 1.384 . S
N1565 C1557 1.427 . S
N1565 C1563 1.384 . S
H1566 C1572 0.930 . S
H1567 C1576 0.930 . S
H1568 C1581 0.929 . S
H1569 C1579 0.929 . S
H1570 C1574 0.929 . S
H1571 C1580 0.929 . S
C1572 H1566 0.930 . S
C1572 C1573 1.367 . S
C1572 C1580 1.378 . S
C1573 C1572 1.367 . S
C1573 C1581 1.433 . S
C1574 H1570 0.929 . S
C1574 C1576 1.378 . S
C1574 C1578 1.350 . S
C1575 C1578 1.463 . S
C1575 C1580 1.350 . S
C1575 N1583 1.427 . S
C1576 H1567 0.930 . S
C1576 C1574 1.378 . S
C1576 C1577 1.367 . S
C1577 C1576 1.367 . S
C1577 C1579 1.433 . S
C1578 C1574 1.350 . S
C1578 C1575 1.463 . S
C1578 N1582 1.427 . S
C1579 H1569 0.929 . S
C1579 C1577 1.433 . S
C1579 N1582 1.384 . S
C1580 H1571 0.929 . S
C1580 C1572 1.378 . S
C1580 C1575 1.350 . S
C1581 H1568 0.929 . S
C1581 C1573 1.433 . S
C1581 N1583 1.384 . S
N1582 C1578 1.427 . S
N1582 C1579 1.384 . S
N1583 C1575 1.427 . S
N1583 C1581 1.384 . S
H1584 C1590 0.930 . S
H1585 C1594 0.930 . S
H1586 C1599 0.929 . S
H1587 C1597 0.929 . S
H1588 C1592 0.929 . S
H1589 C1598 0.929 . S
C1590 H1584 0.930 . S
C1590 C1591 1.367 . S
C1590 C1598 1.378 . S
C1591 C1590 1.367 . S
C1591 C1599 1.433 . S
C1592 H1588 0.929 . S
C1592 C1594 1.378 . S
C1592 C1596 1.350 . S
C1593 C1596 1.463 . S
C1593 C1598 1.350 . S
C1593 N1601 1.427 . S
C1594 H1585 0.930 . S
C1594 C1592 1.378 . S
C1594 C1595 1.367 . S
C1595 C1594 1.367 . S
C1595 C1597 1.433 . S
C1596 C1592 1.350 . S
C1596 C1593 1.463 . S
C1596 N1600 1.427 . S
C1597 H1587 0.929 . S
C1597 C1595 1.433 . S
C1597 N1600 1.384 . S
C1598 H1589 0.929 . S
C1598 C1590 1.378 . S
C1598 C1593 1.350 . S
C1599 H1586 0.929 . S
C1599 C1591 1.433 . S
C1599 N1601 1.384 . S
N1600 C1596 1.427 . S
N1600 C1597 1.384 . S
N1601 C1593 1.427 . S
N1601 C1599 1.384 . S
H1602 C1608 0.930 . S
H1603 C1612 0.930 . S
H1604 C1617 0.929 . S
H1605 C1615 0.929 . S
H1606 C1610 0.929 . S
H1607 C1616 0.929 . S
C1608 H1602 0.930 . S
C1608 C1609 1.367 . S
C1608 C1616 1.378 . S
C1609 C1608 1.367 . S
C1609 C1617 1.433 . S
C1610 H1606 0.929 . S
C1610 C1612 1.378 . S
C1610 C1614 1.350 . S
C1611 C1614 1.463 . S
C1611 C1616 1.350 . S
C1611 N1619 1.427 . S
C1612 H1603 0.930 . S
C1612 C1610 1.378 . S
C1612 C1613 1.367 . S
C1613 C1612 1.367 . S
C1613 C1615 1.433 . S
C1614 C1610 1.350 . S
C1614 C1611 1.463 . S
C1614 N1618 1.427 . S
C1615 H1605 0.929 . S
C1615 C1613 1.433 . S
C1615 N1618 1.384 . S
C1616 H1607 0.929 . S
C1616 C1608 1.378 . S
C1616 C1611 1.350 . S
C1617 H1604 0.929 . S
C1617 C1609 1.433 . S
C1617 N1619 1.384 . S
N1618 C1614 1.427 . S
N1618 C1615 1.384 . S
N1619 C1611 1.427 . S
N1619 C1617 1.384 . S
H1620 C1626 0.930 . S
H1621 C1630 0.930 . S
H1622 C1635 0.929 . S
H1623 C1633 0.929 . S
H1624 C1628 0.929 . S
H1625 C1634 0.929 . S
C1626 H1620 0.930 . S
C1626 C1627 1.367 . S
C1626 C1634 1.378 . S
C1627 C1626 1.367 . S
C1627 C1635 1.433 . S
C1628 H1624 0.929 . S
C1628 C1630 1.378 . S
C1628 C1632 1.350 . S
C1629 C1632 1.463 . S
C1629 C1634 1.350 . S
C1629 N1637 1.427 . S
C1630 H1621 0.930 . S
C1630 C1628 1.378 . S
C1630 C1631 1.367 . S
C1631 C1630 1.367 . S
C1631 C1633 1.433 . S
C1632 C1628 1.350 . S
C1632 C1629 1.463 . S
C1632 N1636 1.427 . S
C1633 H1623 0.929 . S
C1633 C1631 1.433 . S
C1633 N1636 1.384 . S
C1634 H1625 0.929 . S
C1634 C1626 1.378 . S
C1634 C1629 1.350 . S
C1635 H1622 0.929 . S
C1635 C1627 1.433 . S
C1635 N1637 1.384 . S
N1636 C1632 1.427 . S
N1636 C1633 1.384 . S
N1637 C1629 1.427 . S
N1637 C1635 1.384 . S
H1638 C1644 0.930 . S
H1639 C1648 0.930 . S
H1640 C1653 0.929 . S
H1641 C1651 0.929 . S
H1642 C1646 0.929 . S
H1643 C1652 0.929 . S
C1644 H1638 0.930 . S
C1644 C1645 1.367 . S
C1644 C1652 1.378 . S
C1645 C1644 1.367 . S
C1645 C1653 1.433 . S
C1646 H1642 0.929 . S
C1646 C1648 1.378 . S
C1646 C1650 1.350 . S
C1647 C1650 1.463 . S
C1647 C1652 1.350 . S
C1647 N1655 1.427 . S
C1648 H1639 0.930 . S
C1648 C1646 1.378 . S
C1648 C1649 1.367 . S
C1649 C1648 1.367 . S
C1649 C1651 1.433 . S
C1650 C1646 1.350 . S
C1650 C1647 1.463 . S
C1650 N1654 1.427 . S
C1651 H1641 0.929 . S
C1651 C1649 1.433 . S
C1651 N1654 1.384 . S
C1652 H1643 0.929 . S
C1652 C1644 1.378 . S
C1652 C1647 1.350 . S
C1653 H1640 0.929 . S
C1653 C1645 1.433 . S
C1653 N1655 1.384 . S
N1654 C1650 1.427 . S
N1654 C1651 1.384 . S
N1655 C1647 1.427 . S
N1655 C1653 1.384 . S
H1656 C1662 0.930 . S
H1657 C1666 0.930 . S
H1658 C1671 0.929 . S
H1659 C1669 0.929 . S
H1660 C1664 0.929 . S
H1661 C1670 0.929 . S
C1662 H1656 0.930 . S
C1662 C1663 1.367 . S
C1662 C1670 1.378 . S
C1663 C1662 1.367 . S
C1663 C1671 1.433 . S
C1664 H1660 0.929 . S
C1664 C1666 1.378 . S
C1664 C1668 1.350 . S
C1665 C1668 1.463 . S
C1665 C1670 1.350 . S
C1665 N1673 1.427 . S
C1666 H1657 0.930 . S
C1666 C1664 1.378 . S
C1666 C1667 1.367 . S
C1667 C1666 1.367 . S
C1667 C1669 1.433 . S
C1668 C1664 1.350 . S
C1668 C1665 1.463 . S
C1668 N1672 1.427 . S
C1669 H1659 0.929 . S
C1669 C1667 1.433 . S
C1669 N1672 1.384 . S
C1670 H1661 0.929 . S
C1670 C1662 1.378 . S
C1670 C1665 1.350 . S
C1671 H1658 0.929 . S
C1671 C1663 1.433 . S
C1671 N1673 1.384 . S
N1672 C1668 1.427 . S
N1672 C1669 1.384 . S
N1673 C1665 1.427 . S
N1673 C1671 1.384 . S
H1674 C1680 0.930 . S
H1675 C1684 0.930 . S
H1676 C1689 0.929 . S
H1677 C1687 0.929 . S
H1678 C1682 0.929 . S
H1679 C1688 0.929 . S
C1680 H1674 0.930 . S
C1680 C1681 1.367 . S
C1680 C1688 1.378 . S
C1681 C1680 1.367 . S
C1681 C1689 1.433 . S
C1682 H1678 0.929 . S
C1682 C1684 1.378 . S
C1682 C1686 1.350 . S
C1683 C1686 1.463 . S
C1683 C1688 1.350 . S
C1683 N1691 1.427 . S
C1684 H1675 0.930 . S
C1684 C1682 1.378 . S
C1684 C1685 1.367 . S
C1685 C1684 1.367 . S
C1685 C1687 1.433 . S
C1686 C1682 1.350 . S
C1686 C1683 1.463 . S
C1686 N1690 1.427 . S
C1687 H1677 0.929 . S
C1687 C1685 1.433 . S
C1687 N1690 1.384 . S
C1688 H1679 0.929 . S
C1688 C1680 1.378 . S
C1688 C1683 1.350 . S
C1689 H1676 0.929 . S
C1689 C1681 1.433 . S
C1689 N1691 1.384 . S
N1690 C1686 1.427 . S
N1690 C1687 1.384 . S
N1691 C1683 1.427 . S
N1691 C1689 1.384 . S
H1692 C1698 0.930 . S
H1693 C1702 0.930 . S
H1694 C1707 0.929 . S
H1695 C1705 0.929 . S
H1696 C1700 0.929 . S
H1697 C1706 0.929 . S
C1698 H1692 0.930 . S
C1698 C1699 1.367 . S
C1698 C1706 1.378 . S
C1699 C1698 1.367 . S
C1699 C1707 1.433 . S
C1700 H1696 0.929 . S
C1700 C1702 1.378 . S
C1700 C1704 1.350 . S
C1701 C1704 1.463 . S
C1701 C1706 1.350 . S
C1701 N1709 1.427 . S
C1702 H1693 0.930 . S
C1702 C1700 1.378 . S
C1702 C1703 1.367 . S
C1703 C1702 1.367 . S
C1703 C1705 1.433 . S
C1704 C1700 1.350 . S
C1704 C1701 1.463 . S
C1704 N1708 1.427 . S
C1705 H1695 0.929 . S
C1705 C1703 1.433 . S
C1705 N1708 1.384 . S
C1706 H1697 0.929 . S
C1706 C1698 1.378 . S
C1706 C1701 1.350 . S
C1707 H1694 0.929 . S
C1707 C1699 1.433 . S
C1707 N1709 1.384 . S
N1708 C1704 1.427 . S
N1708 C1705 1.384 . S
N1709 C1701 1.427 . S
N1709 C1707 1.384 . S
H1710 C1716 0.930 . S
H1711 C1720 0.930 . S
H1712 C1725 0.929 . S
H1713 C1723 0.929 . S
H1714 C1718 0.929 . S
H1715 C1724 0.929 . S
C1716 H1710 0.930 . S
C1716 C1717 1.367 . S
C1716 C1724 1.378 . S
C1717 C1716 1.367 . S
C1717 C1725 1.433 . S
C1718 H1714 0.929 . S
C1718 C1720 1.378 . S
C1718 C1722 1.350 . S
C1719 C1722 1.463 . S
C1719 C1724 1.350 . S
C1719 N1727 1.427 . S
C1720 H1711 0.930 . S
C1720 C1718 1.378 . S
C1720 C1721 1.367 . S
C1721 C1720 1.367 . S
C1721 C1723 1.433 . S
C1722 C1718 1.350 . S
C1722 C1719 1.463 . S
C1722 N1726 1.427 . S
C1723 H1713 0.929 . S
C1723 C1721 1.433 . S
C1723 N1726 1.384 . S
C1724 H1715 0.929 . S
C1724 C1716 1.378 . S
C1724 C1719 1.350 . S
C1725 H1712 0.929 . S
C1725 C1717 1.433 . S
C1725 N1727 1.384 . S
N1726 C1722 1.427 . S
N1726 C1723 1.384 . S
N1727 C1719 1.427 . S
N1727 C1725 1.384 . S
C979 C664 1.298 . S
C983 C16 1.302 . S
C997 C97 1.303 . S
C1001 C745 1.291 . S
C1015 C826 1.209 . S
C1019 C178 1.204 . S
C1033 C259 1.288 . S
C1037 C907 1.280 . S
C1051 C340 1.285 . S
C1055 C502 1.290 . S
C1069 C583 1.211 . S
C1073 C421 1.203 . S
C1087 C604 3.169 . S
C1091 C37 3.169 . S
C1105 C685 3.156 . S
C1109 C118 3.166 . S
C1123 C766 3.170 . S
C1127 C199 3.170 . S
C1141 C280 3.167 . S
C1145 C847 3.164 . S
C1159 C361 3.155 . S
C1163 C928 3.161 . S
C1177 C523 3.167 . S
C1181 C442 3.165 . S
C1195 C423 2.030 . S
C1199 C52 1.823 . S
C1213 C133 1.833 . S
C1217 C18 2.050 . S
C1231 C99 2.042 . S
C1235 C214 1.850 . S
C1249 C180 2.035 . S
C1253 C295 1.824 . S
C1267 C261 2.048 . S
C1271 C376 1.834 . S
C1285 C457 1.830 . S
C1289 C342 2.048 . S
C1303 C585 2.029 . S
C1307 C538 1.810 . S
C1321 C666 2.040 . S
C1325 C619 1.833 . S
C1339 C747 2.047 . S
C1343 C700 1.853 . S
C1357 C828 2.029 . S
C1361 C781 1.811 . S
C1375 C862 1.831 . S
C1379 C909 2.041 . S
C1393 C504 2.046 . S
C1397 C943 1.854 . S
C1411 C34 1.230 . S
C1415 C617 1.279 . S
C1429 C115 1.257 . S
C1433 C698 1.297 . S
C1447 C779 1.342 . S
C1451 C196 1.307 . S
C1465 C860 1.278 . S
C1469 C277 1.244 . S
C1483 C358 1.277 . S
C1487 C941 1.317 . S
C1501 C536 1.348 . S
C1505 C439 1.296 . S
C1519 C520 1.254 . S
C1523 C455 1.288 . S
C1537 C601 1.312 . S
C1541 C50 1.363 . S
C1555 C131 1.299 . S
C1559 C682 1.257 . S
C1573 C763 1.229 . S
C1577 C212 1.276 . S
C1591 C293 1.343 . S
C1595 C844 1.308 . S
C1609 C374 1.317 . S
C1613 C925 1.275 . S
C1627 C707 0.680 . S
C1631 C59 0.651 . S
C1645 C140 0.639 . S
C1649 C788 0.688 . S
C1663 C869 0.632 . S
C1667 C221 0.643 . S
C1681 C302 0.664 . S
C1685 C950 0.683 . S
C1699 C383 0.674 . S
C1703 C545 0.642 . S
C1717 C626 0.631 . S
C1721 C464 0.644 . S
