# Generated by pormake.
# Topology dia-g, (3)-cn, num edge types: 1
# Building blocks:
#     Node 0, Type 0, BuildingBlock: OLANEW_clean_sbu_2, # of connection points: 3
#     Node 1, Type 0, BuildingBlock: OLANEW_clean_sbu_2, # of connection points: 3
#     Node 2, Type 0, BuildingBlock: OLANEW_clean_sbu_2, # of connection points: 3
#     Node 3, Type 0, BuildingBlock: OLANEW_clean_sbu_2, # of connection points: 3
#     Node 4, Type 0, BuildingBlock: OLANEW_clean_sbu_2, # of connection points: 3
#     Node 5, Type 0, BuildingBlock: OLANEW_clean_sbu_2, # of connection points: 3
#     Node 6, Type 0, BuildingBlock: OLANEW_clean_sbu_2, # of connection points: 3
#     Node 7, Type 0, BuildingBlock: OLANEW_clean_sbu_2, # of connection points: 3
#     Node 8, Type 0, BuildingBlock: OLANEW_clean_sbu_2, # of connection points: 3
#     Node 9, Type 0, BuildingBlock: OLANEW_clean_sbu_2, # of connection points: 3
#     Node 10, Type 0, BuildingBlock: OLANEW_clean_sbu_2, # of connection points: 3
#     Node 11, Type 0, BuildingBlock: OLANEW_clean_sbu_2, # of connection points: 3
#     Node 12, Type 0, BuildingBlock: OLANEW_clean_sbu_2, # of connection points: 3
#     Node 13, Type 0, BuildingBlock: OLANEW_clean_sbu_2, # of connection points: 3
#     Node 14, Type 0, BuildingBlock: OLANEW_clean_sbu_2, # of connection points: 3
#     Node 15, Type 0, BuildingBlock: OLANEW_clean_sbu_2, # of connection points: 3
#     Edge 16, Type (0, 0), BuildingBlock: ZUJKAS_clean_linker_0, # of connection points: 2
#     Edge 17, Type (0, 0), BuildingBlock: ZUJKAS_clean_linker_0, # of connection points: 2
#     Edge 18, Type (0, 0), BuildingBlock: ZUJKAS_clean_linker_0, # of connection points: 2
#     Edge 19, Type (0, 0), BuildingBlock: ZUJKAS_clean_linker_0, # of connection points: 2
#     Edge 20, Type (0, 0), BuildingBlock: ZUJKAS_clean_linker_0, # of connection points: 2
#     Edge 21, Type (0, 0), BuildingBlock: ZUJKAS_clean_linker_0, # of connection points: 2
#     Edge 22, Type (0, 0), BuildingBlock: ZUJKAS_clean_linker_0, # of connection points: 2
#     Edge 23, Type (0, 0), BuildingBlock: ZUJKAS_clean_linker_0, # of connection points: 2
#     Edge 24, Type (0, 0), BuildingBlock: ZUJKAS_clean_linker_0, # of connection points: 2
#     Edge 25, Type (0, 0), BuildingBlock: ZUJKAS_clean_linker_0, # of connection points: 2
#     Edge 26, Type (0, 0), BuildingBlock: ZUJKAS_clean_linker_0, # of connection points: 2
#     Edge 27, Type (0, 0), BuildingBlock: ZUJKAS_clean_linker_0, # of connection points: 2
#     Edge 28, Type (0, 0), BuildingBlock: ZUJKAS_clean_linker_0, # of connection points: 2
#     Edge 29, Type (0, 0), BuildingBlock: ZUJKAS_clean_linker_0, # of connection points: 2
#     Edge 30, Type (0, 0), BuildingBlock: ZUJKAS_clean_linker_0, # of connection points: 2
#     Edge 31, Type (0, 0), BuildingBlock: ZUJKAS_clean_linker_0, # of connection points: 2
#     Edge 32, Type (0, 0), BuildingBlock: ZUJKAS_clean_linker_0, # of connection points: 2
#     Edge 33, Type (0, 0), BuildingBlock: ZUJKAS_clean_linker_0, # of connection points: 2
#     Edge 34, Type (0, 0), BuildingBlock: ZUJKAS_clean_linker_0, # of connection points: 2
#     Edge 35, Type (0, 0), BuildingBlock: ZUJKAS_clean_linker_0, # of connection points: 2
#     Edge 36, Type (0, 0), BuildingBlock: ZUJKAS_clean_linker_0, # of connection points: 2
#     Edge 37, Type (0, 0), BuildingBlock: ZUJKAS_clean_linker_0, # of connection points: 2
#     Edge 38, Type (0, 0), BuildingBlock: ZUJKAS_clean_linker_0, # of connection points: 2
#     Edge 39, Type (0, 0), BuildingBlock: ZUJKAS_clean_linker_0, # of connection points: 2
# Relax obj value: 0.011
# Max RMSD: 0.036
# Mean RMSD: 0.036
data_MOF--net-dia-g--node1-OLANEW_clean_sbu_2--edge1-ZUJKAS_clean_linker_0
_symmetry_space_group_name_H-M    P1
_symmetry_Int_Tables_number       1
_symmetry_cell_setting            triclinic
loop_
_symmetry_equiv_pos_as_xyz
'x, y, z'
_cell_length_a     74.154257
_cell_length_b     74.152225
_cell_length_c     109.44577
_cell_angle_alpha  89.99071
_cell_angle_beta   90.000083
_cell_angle_gamma 89.964856
loop_
_atom_site_label
_atom_site_type_symbol
_atom_site_fract_x
_atom_site_fract_y
_atom_site_fract_z
_atom_type_partial_charge
O0 O 0.1288 0.14461 0.43456 0.0
Cd1 Cd 0.12877 0.15145 0.41272 0.0
O2 O 0.11068 0.12183 0.43125 0.0
Cd3 Cd 0.09512 0.09764 0.43573 0.0
O4 O 0.07774 0.07408 0.43788 0.0
C5 C 0.06205 0.07454 0.43323 0.0
O6 O 0.05685 0.0892 0.42746 0.0
C7 C 0.11964 0.13148 0.4387 0.0
C8 C 0.16338 0.15015 0.40279 0.0
O9 O 0.15722 0.16467 0.40759 0.0
O10 O 0.15316 0.13622 0.40269 0.0
O11 O 0.85497 0.6223 0.68172 0.0
Cd12 Cd 0.85184 0.62167 0.65951 0.0
O13 O 0.88088 0.60839 0.67975 0.0
Cd14 Cd 0.90466 0.59398 0.68643 0.0
O15 O 0.9273 0.57605 0.69038 0.0
C16 C 0.9284 0.56151 0.68427 0.0
O17 O 0.91596 0.55803 0.67605 0.0
C18 C 0.86898 0.61551 0.68658 0.0
C19 C 0.85182 0.65632 0.6496 0.0
O20 O 0.83705 0.64857 0.65268 0.0
O21 O 0.86659 0.64766 0.6512 0.0
O22 O 0.37027 0.3526 0.93505 0.0
Cd23 Cd 0.37033 0.34531 0.91329 0.0
O24 O 0.39054 0.37355 0.93184 0.0
Cd25 Cd 0.40766 0.39638 0.9369 0.0
O26 O 0.42506 0.41964 0.9401 0.0
C27 C 0.44194 0.4182 0.93834 0.0
O28 O 0.44853 0.40259 0.93482 0.0
C29 C 0.38048 0.36491 0.9392 0.0
C30 C 0.336 0.34835 0.9031 0.0
O31 O 0.34126 0.3336 0.90806 0.0
O32 O 0.347 0.36168 0.90294 0.0
O33 O 0.65207 0.87854 0.18109 0.0
Cd34 Cd 0.65963 0.87873 0.15937 0.0
O35 O 0.6259 0.89095 0.17707 0.0
Cd36 Cd 0.60039 0.90394 0.18191 0.0
O37 O 0.57633 0.92039 0.18475 0.0
C38 C 0.57775 0.93554 0.1901 0.0
O39 O 0.59366 0.94069 0.19408 0.0
C40 C 0.63699 0.88457 0.1848 0.0
C41 C 0.65632 0.84439 0.14924 0.0
O42 O 0.67108 0.84951 0.15424 0.0
O43 O 0.64312 0.85555 0.14898 0.0
O44 O 0.12771 0.36024 0.81563 0.0
Cd45 Cd 0.12607 0.35396 0.83751 0.0
O46 O 0.1056 0.37965 0.81738 0.0
Cd47 Cd 0.08712 0.4009 0.81138 0.0
O48 O 0.06792 0.42294 0.80891 0.0
C49 C 0.05117 0.41996 0.8103 0.0
O50 O 0.04578 0.40351 0.81285 0.0
C51 C 0.11706 0.37153 0.81071 0.0
C52 C 0.16019 0.35441 0.84822 0.0
O53 O 0.15379 0.33996 0.84348 0.0
O54 O 0.15041 0.36866 0.84793 0.0
O55 O 0.64162 0.63116 0.0668 0.0
Cd56 Cd 0.64678 0.63125 0.08884 0.0
O57 O 0.61892 0.61265 0.06927 0.0
Cd58 Cd 0.59734 0.59424 0.06375 0.0
O59 O 0.57489 0.57591 0.06029 0.0
C60 C 0.57572 0.55985 0.0643 0.0
O61 O 0.59021 0.55467 0.07025 0.0
C62 C 0.62891 0.62191 0.06219 0.0
C63 C 0.64694 0.66618 0.09827 0.0
O64 O 0.66138 0.65898 0.09406 0.0
O65 O 0.63241 0.65684 0.09803 0.0
O66 O 0.37575 0.15108 0.31812 0.0
Cd67 Cd 0.37505 0.15744 0.34002 0.0
O68 O 0.38829 0.12486 0.32178 0.0
Cd69 Cd 0.40203 0.09991 0.31656 0.0
O70 O 0.41928 0.07637 0.31386 0.0
C71 C 0.43625 0.07841 0.31477 0.0
O72 O 0.44267 0.09458 0.31704 0.0
C73 C 0.38218 0.13631 0.31418 0.0
C74 C 0.34038 0.15438 0.34967 0.0
O75 O 0.34594 0.16926 0.34505 0.0
O76 O 0.35123 0.14091 0.34971 0.0
O77 O 0.85465 0.87081 0.56829 0.0
Cd78 Cd 0.8505 0.87083 0.59044 0.0
O79 O 0.87614 0.89073 0.57066 0.0
Cd80 Cd 0.89865 0.90785 0.56495 0.0
O81 O 0.92112 0.92602 0.56115 0.0
C82 C 0.92049 0.94205 0.56524 0.0
O83 O 0.90624 0.94721 0.57146 0.0
C84 C 0.86661 0.88095 0.56362 0.0
C85 C 0.8507 0.83601 0.60007 0.0
O86 O 0.83593 0.84353 0.59671 0.0
O87 O 0.86536 0.84498 0.59886 0.0
O88 O 0.6253 0.64013 0.92625 0.0
Cd89 Cd 0.62576 0.64223 0.90399 0.0
O90 O 0.60728 0.61687 0.92478 0.0
Cd91 Cd 0.59205 0.59356 0.93137 0.0
O92 O 0.57541 0.56995 0.93517 0.0
C93 C 0.55939 0.57193 0.93908 0.0
O94 O 0.55327 0.5883 0.94107 0.0
C95 C 0.61612 0.62783 0.9314 0.0
C96 C 0.66101 0.64412 0.89523 0.0
O97 O 0.65209 0.65847 0.89773 0.0
O98 O 0.65321 0.62888 0.89682 0.0
O99 O 0.35489 0.11829 0.17952 0.0
Cd100 Cd 0.35158 0.11807 0.15732 0.0
O101 O 0.3809 0.10458 0.17752 0.0
Cd102 Cd 0.40495 0.09057 0.18416 0.0
O103 O 0.42792 0.07309 0.18815 0.0
C104 C 0.42698 0.05667 0.18488 0.0
O105 O 0.41225 0.05095 0.17944 0.0
C106 C 0.36897 0.11163 0.18436 0.0
C107 C 0.3522 0.15306 0.14798 0.0
O108 O 0.3373 0.1455 0.15098 0.0
O109 O 0.3668 0.14402 0.14934 0.0
O110 O 0.86775 0.86036 0.4281 0.0
Cd111 Cd 0.86732 0.85691 0.40591 0.0
O112 O 0.8886 0.88103 0.4261 0.0
Cd113 Cd 0.90667 0.90268 0.432 0.0
O114 O 0.92575 0.92458 0.43528 0.0
C115 C 0.94214 0.9225 0.43217 0.0
O116 O 0.94715 0.90709 0.42731 0.0
C117 C 0.87837 0.87172 0.43297 0.0
C118 C 0.83213 0.85589 0.39694 0.0
O119 O 0.84042 0.84137 0.39991 0.0
O120 O 0.84051 0.87089 0.39818 0.0
O121 O 0.14822 0.37555 0.6759 0.0
Cd122 Cd 0.15195 0.37439 0.65374 0.0
O123 O 0.124 0.39196 0.67324 0.0
Cd124 Cd 0.10104 0.40878 0.67853 0.0
O125 O 0.07748 0.42598 0.68119 0.0
C126 C 0.07727 0.43827 0.68929 0.0
O127 O 0.09146 0.44044 0.69632 0.0
C128 C 0.1349 0.38402 0.68043 0.0
C129 C 0.1516 0.33894 0.64525 0.0
O130 O 0.16642 0.34668 0.64819 0.0
O131 O 0.13695 0.34799 0.64629 0.0
O132 O 0.61592 0.85222 0.3186 0.0
Cd133 Cd 0.61601 0.8486 0.34078 0.0
O134 O 0.60234 0.87823 0.32096 0.0
Cd135 Cd 0.58813 0.90237 0.31468 0.0
O136 O 0.57022 0.92532 0.31157 0.0
C137 C 0.55542 0.92563 0.31742 0.0
O138 O 0.55164 0.91223 0.32485 0.0
C139 C 0.60917 0.86639 0.31394 0.0
C140 C 0.65096 0.85006 0.35014 0.0
O141 O 0.64383 0.835 0.34704 0.0
O142 O 0.64153 0.86442 0.34885 0.0
O143 O 0.1466 0.11869 0.57286 0.0
Cd144 Cd 0.15066 0.11959 0.595 0.0
O145 O 0.12024 0.10614 0.57579 0.0
Cd146 Cd 0.09535 0.09254 0.5703 0.0
O147 O 0.07112 0.07649 0.56719 0.0
C148 C 0.07199 0.06207 0.56095 0.0
O149 O 0.08754 0.0573 0.55617 0.0
C150 C 0.13211 0.11222 0.56849 0.0
C151 C 0.1508 0.15495 0.60366 0.0
O152 O 0.1655 0.14704 0.60061 0.0
O153 O 0.13604 0.14609 0.60265 0.0
O154 O 0.87903 0.65131 0.82094 0.0
Cd155 Cd 0.879 0.65597 0.84302 0.0
O156 O 0.89053 0.62445 0.82394 0.0
Cd157 Cd 0.90285 0.59902 0.81817 0.0
O158 O 0.91869 0.57475 0.81461 0.0
C159 C 0.93313 0.57255 0.82068 0.0
O160 O 0.93779 0.58487 0.82871 0.0
C161 C 0.88467 0.63643 0.81663 0.0
C162 C 0.84407 0.65399 0.85236 0.0
O163 O 0.85081 0.66909 0.84895 0.0
O164 O 0.85391 0.63984 0.85142 0.0
O165 O 0.35635 0.37317 0.07385 0.0
Cd166 Cd 0.35307 0.37157 0.09603 0.0
O167 O 0.38064 0.38946 0.07647 0.0
Cd168 Cd 0.40346 0.40638 0.07107 0.0
O169 O 0.42683 0.42365 0.06793 0.0
C170 C 0.42527 0.43836 0.06207 0.0
O171 O 0.40941 0.44292 0.05769 0.0
C172 C 0.36959 0.38171 0.06929 0.0
C173 C 0.35315 0.33595 0.1042 0.0
O174 O 0.33837 0.34395 0.10144 0.0
O175 O 0.36789 0.34484 0.10313 0.0
H176 H 0.10054 0.11646 0.55587 0.0
H177 H 0.09647 0.1169 0.53366 0.0
H178 H 0.15361 0.10889 0.52875 0.0
H179 H 0.15771 0.10803 0.55094 0.0
H180 H 0.11362 0.14178 0.51751 0.0
H181 H 0.13017 0.07074 0.50596 0.0
H182 H 0.12396 0.07777 0.5212 0.0
H183 H 0.14638 0.08178 0.51561 0.0
C184 C 0.11214 0.11422 0.55007 0.0
C185 C 0.12938 0.11175 0.55513 0.0
C186 C 0.10982 0.11469 0.53739 0.0
C187 C 0.12469 0.11261 0.52959 0.0
C188 C 0.14191 0.11014 0.53462 0.0
H189 H 0.14673 0.13827 0.45476 0.0
H190 H 0.14686 0.13308 0.47687 0.0
C191 C 0.14425 0.10978 0.54728 0.0
C192 C 0.12243 0.11417 0.51619 0.0
H193 H 0.12868 0.09153 0.48934 0.0
C194 C 0.11673 0.13075 0.51136 0.0
C195 C 0.12644 0.09971 0.50821 0.0
C196 C 0.13193 0.08143 0.51297 0.0
C197 C 0.11551 0.13342 0.49869 0.0
C198 C 0.12007 0.11916 0.49073 0.0
C199 C 0.12529 0.10243 0.49553 0.0
C200 C 0.12005 0.12169 0.47736 0.0
C201 C 0.10968 0.15154 0.49382 0.0
C202 C 0.10489 0.11699 0.47041 0.0
C203 C 0.10473 0.12002 0.4578 0.0
C204 C 0.11981 0.12761 0.45195 0.0
C205 C 0.13496 0.13229 0.459 0.0
C206 C 0.13509 0.1293 0.4716 0.0
H207 H 0.10536 0.16085 0.50121 0.0
H208 H 0.12105 0.15782 0.48878 0.0
H209 H 0.09838 0.14981 0.48728 0.0
H210 H 0.09309 0.1113 0.47479 0.0
H211 H 0.09258 0.117 0.45274 0.0
H212 H 0.89998 0.62027 0.69964 0.0
H213 H 0.90316 0.6222 0.72184 0.0
H214 H 0.84588 0.61395 0.72595 0.0
H215 H 0.84263 0.61238 0.70371 0.0
H216 H 0.85681 0.64115 0.73952 0.0
H217 H 0.90282 0.58348 0.74744 0.0
H218 H 0.91177 0.59933 0.73666 0.0
H219 H 0.89152 0.58705 0.73304 0.0
C220 C 0.88816 0.61841 0.70529 0.0
C221 C 0.87112 0.61579 0.69999 0.0
C222 C 0.88997 0.61954 0.71799 0.0
C223 C 0.87482 0.61781 0.72559 0.0
C224 C 0.85778 0.61519 0.72027 0.0
H225 H 0.87736 0.605 0.80462 0.0
H226 H 0.87519 0.60038 0.78253 0.0
C227 C 0.85594 0.61429 0.70758 0.0
C228 C 0.87651 0.6198 0.73904 0.0
H229 H 0.89898 0.60396 0.76409 0.0
C230 C 0.86595 0.63293 0.7449 0.0
C231 C 0.88826 0.60892 0.74609 0.0
C232 C 0.89909 0.59378 0.74051 0.0
C233 C 0.86698 0.63566 0.75756 0.0
C234 C 0.87934 0.62537 0.76452 0.0
C235 C 0.88969 0.61202 0.75872 0.0
C236 C 0.8815 0.62805 0.77788 0.0
C237 C 0.85451 0.64931 0.76335 0.0
C238 C 0.88613 0.64504 0.7826 0.0
C239 C 0.88731 0.6477 0.79522 0.0
C240 C 0.88435 0.63331 0.80332 0.0
C241 C 0.88019 0.61621 0.79858 0.0
C242 C 0.8788 0.6136 0.78597 0.0
H243 H 0.84248 0.6519 0.75756 0.0
H244 H 0.84986 0.64472 0.77249 0.0
H245 H 0.86178 0.66227 0.76448 0.0
H246 H 0.88872 0.65628 0.77654 0.0
H247 H 0.8906 0.66101 0.79864 0.0
H248 H 0.40884 0.37533 0.95358 0.0
H249 H 0.40851 0.3811 0.97562 0.0
H250 H 0.35181 0.36834 0.97681 0.0
H251 H 0.35196 0.36294 0.95472 0.0
H252 H 0.36332 0.40119 0.99009 0.0
H253 H 0.40303 0.33966 0.00145 0.0
H254 H 0.41223 0.35437 0.98996 0.0
H255 H 0.39166 0.34242 0.98698 0.0
C256 C 0.39622 0.37421 0.95847 0.0
C257 C 0.38034 0.36904 0.9524 0.0
C258 C 0.39611 0.37725 0.97108 0.0
C259 C 0.38015 0.37506 0.97781 0.0
C260 C 0.36425 0.37011 0.97175 0.0
H261 H 0.3431 0.38043 0.05216 0.0
H262 H 0.34645 0.38029 0.02994 0.0
C263 C 0.36437 0.36698 0.95917 0.0
C264 C 0.38004 0.37751 0.99122 0.0
H265 H 0.39433 0.35827 0.01783 0.0
C266 C 0.37015 0.39187 0.99618 0.0
C267 C 0.38905 0.36537 0.99908 0.0
C268 C 0.39952 0.34949 0.99417 0.0
C269 C 0.36897 0.39439 0.00887 0.0
C270 C 0.37756 0.38194 0.01677 0.0
C271 C 0.38775 0.36779 0.01177 0.0
C272 C 0.37553 0.38285 0.03023 0.0
C273 C 0.35867 0.41044 0.01369 0.0
C274 C 0.39079 0.38381 0.03779 0.0
C275 C 0.38892 0.38366 0.0505 0.0
C276 C 0.37174 0.38261 0.05588 0.0
C277 C 0.3565 0.38149 0.04828 0.0
C278 C 0.35838 0.38158 0.03558 0.0
H279 H 0.35784 0.42139 0.00678 0.0
H280 H 0.3447 0.40624 0.01594 0.0
H281 H 0.36503 0.4159 0.02209 0.0
H282 H 0.40417 0.38445 0.03384 0.0
H283 H 0.40096 0.3837 0.05607 0.0
H284 H 0.66013 0.88947 0.20374 0.0
H285 H 0.65356 0.88719 0.2256 0.0
H286 H 0.59786 0.87554 0.2174 0.0
H287 H 0.60433 0.87812 0.19553 0.0
H288 H 0.60073 0.89852 0.23646 0.0
H289 H 0.64638 0.8403 0.24345 0.0
H290 H 0.65788 0.85946 0.2372 0.0
H291 H 0.64049 0.84848 0.22845 0.0
C292 C 0.64647 0.88652 0.20663 0.0
C293 C 0.6327 0.88416 0.19797 0.0
C294 C 0.64275 0.88511 0.2191 0.0
C295 C 0.62529 0.88085 0.22313 0.0
C296 C 0.61143 0.87884 0.21449 0.0
H297 H 0.60544 0.84051 0.29655 0.0
H298 H 0.60739 0.84418 0.27436 0.0
C299 C 0.61511 0.88046 0.20201 0.0
C300 C 0.62156 0.87826 0.23633 0.0
H301 H 0.63518 0.85455 0.26141 0.0
C302 C 0.60817 0.88883 0.24192 0.0
C303 C 0.63102 0.86536 0.24339 0.0
C304 C 0.6446 0.85262 0.23779 0.0
C305 C 0.6043 0.88715 0.25443 0.0
C306 C 0.61443 0.8749 0.26161 0.0
C307 C 0.62753 0.86407 0.25595 0.0
C308 C 0.6118 0.87304 0.275 0.0
C309 C 0.58919 0.89829 0.25976 0.0
C310 C 0.61361 0.88801 0.28276 0.0
C311 C 0.61225 0.88596 0.29543 0.0
C312 C 0.60931 0.86885 0.30056 0.0
C313 C 0.6076 0.85387 0.29281 0.0
C314 C 0.60872 0.85596 0.28015 0.0
H315 H 0.57931 0.90233 0.25263 0.0
H316 H 0.58193 0.89081 0.26705 0.0
H317 H 0.59487 0.91079 0.26378 0.0
H318 H 0.61662 0.90121 0.27906 0.0
H319 H 0.61425 0.89763 0.30121 0.0
H320 H 0.14714 0.3701 0.79661 0.0
H321 H 0.14934 0.37428 0.77448 0.0
H322 H 0.09206 0.38408 0.77265 0.0
H323 H 0.08978 0.37987 0.79477 0.0
H324 H 0.13249 0.35403 0.75698 0.0
H325 H 0.1122 0.42587 0.75266 0.0
H326 H 0.11852 0.41589 0.76709 0.0
H327 H 0.09643 0.41203 0.76085 0.0
C328 C 0.13505 0.37337 0.7915 0.0
C329 C 0.11835 0.37508 0.79745 0.0
C330 C 0.13633 0.37576 0.77888 0.0
C331 C 0.12093 0.37983 0.77195 0.0
C332 C 0.10421 0.3815 0.77786 0.0
H333 H 0.10326 0.38585 0.69339 0.0
H334 H 0.0996 0.38567 0.71561 0.0
C335 C 0.10293 0.37918 0.79052 0.0
C336 C 0.12229 0.38115 0.75847 0.0
H337 H 0.11548 0.40934 0.7342 0.0
C338 C 0.12884 0.36615 0.75201 0.0
C339 C 0.1174 0.39694 0.752 0.0
C340 C 0.11089 0.41367 0.75849 0.0
C341 C 0.13059 0.36649 0.73926 0.0
C342 C 0.12587 0.38231 0.73281 0.0
C343 C 0.1191 0.39725 0.73921 0.0
C344 C 0.12815 0.38362 0.71941 0.0
C345 C 0.13726 0.34981 0.73276 0.0
C346 C 0.14543 0.38285 0.71422 0.0
C347 C 0.14757 0.38323 0.70155 0.0
C348 C 0.13248 0.38458 0.69383 0.0
C349 C 0.11519 0.38554 0.69907 0.0
C350 C 0.11306 0.3852 0.71176 0.0
H351 H 0.13624 0.33762 0.73862 0.0
H352 H 0.12951 0.34746 0.72423 0.0
H353 H 0.15164 0.35168 0.73026 0.0
H354 H 0.15726 0.38181 0.71999 0.0
H355 H 0.16106 0.38244 0.69778 0.0
H356 H 0.64361 0.6363 0.94673 0.0
H357 H 0.64408 0.63426 0.96904 0.0
H358 H 0.58936 0.61457 0.96881 0.0
H359 H 0.58879 0.61666 0.94649 0.0
H360 H 0.62234 0.65179 0.98546 0.0
H361 H 0.61483 0.57756 0.99034 0.0
H362 H 0.62058 0.58813 0.976 0.0
H363 H 0.59765 0.58826 0.98131 0.0
C364 C 0.63172 0.63141 0.95144 0.0
C365 C 0.61632 0.62619 0.94486 0.0
C366 C 0.63202 0.63024 0.96417 0.0
C367 C 0.61689 0.62392 0.97057 0.0
C368 C 0.60137 0.61896 0.96403 0.0
H369 H 0.59742 0.61756 0.04926 0.0
H370 H 0.59371 0.61751 0.02702 0.0
C371 C 0.6011 0.62006 0.95127 0.0
C372 C 0.61724 0.62326 0.9841 0.0
H373 H 0.6143 0.59478 0.00857 0.0
C374 C 0.62058 0.63932 0.99051 0.0
C375 C 0.61488 0.60698 0.99066 0.0
C376 C 0.61194 0.58921 0.98425 0.0
C377 C 0.62171 0.63953 0.00329 0.0
C378 C 0.61958 0.62324 0.00982 0.0
C379 C 0.6159 0.60723 0.00348 0.0
C380 C 0.62187 0.62252 0.02323 0.0
C381 C 0.62515 0.65716 0.00976 0.0
C382 C 0.63897 0.62515 0.02839 0.0
C383 C 0.64119 0.62482 0.04106 0.0
C384 C 0.62636 0.62174 0.04879 0.0
C385 C 0.60922 0.61917 0.04357 0.0
C386 C 0.60703 0.61939 0.03087 0.0
H387 H 0.62279 0.66894 0.00369 0.0
H388 H 0.61636 0.65844 0.01794 0.0
H389 H 0.63938 0.65757 0.01289 0.0
H390 H 0.65059 0.62748 0.02261 0.0
H391 H 0.65454 0.6269 0.04481 0.0
H392 H 0.3429 0.10834 0.20167 0.0
H393 H 0.34627 0.11116 0.22384 0.0
H394 H 0.40337 0.12017 0.21934 0.0
H395 H 0.40008 0.11699 0.19719 0.0
H396 H 0.39683 0.09829 0.23845 0.0
H397 H 0.35264 0.1584 0.24129 0.0
H398 H 0.3414 0.13932 0.23472 0.0
H399 H 0.36029 0.14931 0.22692 0.0
C400 C 0.35618 0.1108 0.20544 0.0
C401 C 0.37126 0.11226 0.19775 0.0
C402 C 0.35808 0.11253 0.21808 0.0
C403 C 0.37502 0.11622 0.22324 0.0
C404 C 0.39017 0.11731 0.21557 0.0
H405 H 0.38815 0.16063 0.29608 0.0
H406 H 0.38792 0.1553 0.27401 0.0
C407 C 0.38831 0.11535 0.20293 0.0
C408 C 0.37691 0.11926 0.23658 0.0
H409 H 0.3611 0.14491 0.26014 0.0
C410 C 0.38908 0.10853 0.2432 0.0
C411 C 0.36706 0.13286 0.24272 0.0
C412 C 0.35476 0.14575 0.23603 0.0
C413 C 0.39145 0.11084 0.25584 0.0
C414 C 0.38098 0.1239 0.26207 0.0
C415 C 0.369 0.13478 0.2554 0.0
C416 C 0.38226 0.12672 0.27548 0.0
C417 C 0.40542 0.09953 0.26231 0.0
C418 C 0.37913 0.11247 0.28366 0.0
C419 C 0.37952 0.11546 0.29628 0.0
C420 C 0.38276 0.13281 0.30091 0.0
C421 C 0.38571 0.1471 0.29273 0.0
C422 C 0.38558 0.14406 0.28014 0.0
H423 H 0.41587 0.09452 0.25587 0.0
H424 H 0.41218 0.10727 0.26969 0.0
H425 H 0.39877 0.08761 0.26646 0.0
H426 H 0.37593 0.09911 0.28031 0.0
H427 H 0.3766 0.10434 0.30237 0.0
H428 H 0.85007 0.8671 0.44841 0.0
H429 H 0.84975 0.87043 0.47064 0.0
H430 H 0.90608 0.88482 0.4701 0.0
H431 H 0.90665 0.88083 0.4479 0.0
H432 H 0.8977 0.85932 0.48771 0.0
H433 H 0.85064 0.9173 0.49035 0.0
H434 H 0.84197 0.89875 0.4816 0.0
H435 H 0.8616 0.91067 0.47632 0.0
C436 C 0.86236 0.87108 0.45302 0.0
C437 C 0.87827 0.8742 0.44637 0.0
C438 C 0.86212 0.87311 0.46571 0.0
C439 C 0.87778 0.8783 0.47198 0.0
C440 C 0.89377 0.88111 0.4654 0.0
H441 H 0.87697 0.90911 0.54901 0.0
H442 H 0.88158 0.90874 0.52687 0.0
C443 C 0.89402 0.87908 0.45269 0.0
C444 C 0.87758 0.88001 0.48547 0.0
H445 H 0.8564 0.90157 0.50899 0.0
C446 C 0.88879 0.86866 0.49237 0.0
C447 C 0.86613 0.89239 0.49152 0.0
C448 C 0.85453 0.9056 0.48458 0.0
C449 C 0.88842 0.86893 0.50519 0.0
C450 C 0.8763 0.88067 0.51124 0.0
C451 C 0.86554 0.89245 0.50434 0.0
C452 C 0.87429 0.88067 0.52471 0.0
C453 C 0.90104 0.8567 0.51215 0.0
C454 C 0.86846 0.86508 0.53081 0.0
C455 C 0.86608 0.8652 0.54347 0.0
C456 C 0.86948 0.88091 0.55026 0.0
C457 C 0.875 0.8966 0.54411 0.0
C458 C 0.87739 0.89647 0.53144 0.0
H459 H 0.91273 0.85254 0.50646 0.0
H460 H 0.90614 0.86338 0.52054 0.0
H461 H 0.89367 0.84432 0.51489 0.0
H462 H 0.86554 0.85287 0.52575 0.0
H463 H 0.8616 0.85297 0.54795 0.0
H464 H 0.97771 0.92275 0.42563 0.0
H465 H 0.99895 0.94788 0.427 0.0
H466 H 0.95744 0.9813 0.44278 0.0
H467 H 0.93612 0.9562 0.44157 0.0
H468 H 0.9954 0.98138 0.41571 0.0
H469 H 0.00026 0.98859 0.46608 0.0
H470 H 0.99115 0.96869 0.45883 0.0
H471 H 0.97758 0.98867 0.46029 0.0
C472 C 0.97312 0.93538 0.4295 0.0
C473 C 0.95521 0.93746 0.4335 0.0
C474 C 0.98528 0.94973 0.43026 0.0
C475 C 0.97983 0.96636 0.43512 0.0
C476 C 0.96202 0.96846 0.43922 0.0
H477 H 0.02823 0.07101 0.42363 0.0
H478 H 0.00865 0.04454 0.42428 0.0
C479 C 0.94983 0.95413 0.43845 0.0
C480 C 0.9925 0.9818 0.43528 0.0
H481 H 0.01307 0.01218 0.45413 0.0
C482 C -0.00066 0.98806 0.42411 0.0
C483 C 0.99775 0.99035 0.44627 0.0
C484 C 0.99146 0.98366 0.45857 0.0
C485 C 0.01102 0.00292 0.4236 0.0
C486 C 0.01576 0.01188 0.43454 0.0
C487 C 0.00925 0.00537 0.44575 0.0
C488 C 0.02743 0.02807 0.4345 0.0
C489 C 0.01832 0.00881 0.41136 0.0
C490 C 0.04427 0.02773 0.44033 0.0
C491 C 0.0555 0.04287 0.44001 0.0
C492 C 0.05 0.05866 0.43393 0.0
C493 C 0.03293 0.05905 0.42833 0.0
C494 C 0.02174 0.04391 0.42864 0.0
H495 H 0.01709 0.99798 0.40439 0.0
H496 H 0.01055 0.02066 0.4081 0.0
H497 H 0.03271 0.0128 0.4121 0.0
H498 H 0.04884 0.01565 0.44496 0.0
H499 H 0.06853 0.04215 0.44446 0.0
H500 H 0.07296 0.4669 0.70483 0.0
H501 H 0.04726 0.48759 0.70603 0.0
H502 H 0.02048 0.45809 0.67734 0.0
H503 H 0.04594 0.43727 0.67615 0.0
H504 H 0.03396 0.50938 0.68713 0.0
H505 H 0.98143 0.46213 0.70367 0.0
H506 H 0.00523 0.45709 0.70454 0.0
H507 H 0.99324 0.45421 0.69039 0.0
C508 C 0.06153 0.46471 0.69885 0.0
C509 C 0.06149 0.45041 0.69041 0.0
C510 C 0.04688 0.47655 0.69955 0.0
C511 C 0.03188 0.47421 0.6919 0.0
C512 C 0.03176 0.45991 0.68351 0.0
H513 H 0.93496 0.53002 0.67213 0.0
H514 H 0.96034 0.50941 0.67487 0.0
C515 C 0.04639 0.44808 0.68279 0.0
C516 C 0.01674 0.48724 0.69218 0.0
H517 H 0.97112 0.49034 0.69579 0.0
C518 C 0.02024 0.5053 0.68917 0.0
C519 C 0.99888 0.48183 0.69483 0.0
C520 C 0.99445 0.4628 0.69866 0.0
C521 C 0.00623 0.51797 0.68826 0.0
C522 C 0.98831 0.51247 0.69065 0.0
C523 C 0.98487 0.4945 0.69393 0.0
C524 C 0.97285 0.52496 0.68929 0.0
C525 C 0.01065 0.53696 0.6843 0.0
C526 C 0.97135 0.54043 0.6966 0.0
C527 C 0.95687 0.55231 0.69503 0.0
C528 C 0.94357 0.54883 0.68617 0.0
C529 C 0.94498 0.53314 0.67902 0.0
C530 C 0.95946 0.52131 0.68058 0.0
H531 H 0.02431 0.53791 0.68018 0.0
H532 H 0.00062 0.54194 0.67756 0.0
H533 H 0.01024 0.546 0.69237 0.0
H534 H 0.98137 0.5433 0.70353 0.0
H535 H 0.95612 0.56421 0.70075 0.0
H536 H 0.52404 0.5716 0.94621 0.0
H537 H 0.504 0.5455 0.94782 0.0
H538 H 0.54756 0.51044 0.93697 0.0
H539 H 0.56774 0.53638 0.93546 0.0
H540 H 0.49516 0.52188 0.92882 0.0
H541 H 0.52722 0.48521 0.96732 0.0
H542 H 0.53192 0.50861 0.96405 0.0
H543 H 0.54249 0.4911 0.95523 0.0
C544 C 0.52942 0.55832 0.94429 0.0
C545 C 0.5475 0.55607 0.94071 0.0
C546 C 0.51794 0.54343 0.94521 0.0
C547 C 0.52436 0.52603 0.94267 0.0
C548 C 0.54243 0.52371 0.93922 0.0
H549 H 0.47832 0.4199 0.93444 0.0
H550 H 0.49782 0.44639 0.93591 0.0
C551 C 0.55392 0.53858 0.93828 0.0
C552 C 0.5119 0.51043 0.9429 0.0
H553 H 0.50503 0.46917 0.95595 0.0
C554 C 0.4972 0.51042 0.93483 0.0
C555 C 0.51467 0.49549 0.95072 0.0
C556 C 0.52983 0.4951 0.9599 0.0
C557 C 0.48544 0.49564 0.93412 0.0
C558 C 0.48829 0.48063 0.94186 0.0
C559 C 0.5029 0.48071 0.95002 0.0
C560 C 0.47648 0.46454 0.94142 0.0
C561 C 0.4704 0.49598 0.92483 0.0
C562 C 0.45808 0.46592 0.94426 0.0
C563 C 0.44687 0.45083 0.94339 0.0
C564 C 0.45391 0.43404 0.93975 0.0
C565 C 0.47245 0.43263 0.93722 0.0
C566 C 0.48363 0.44774 0.93808 0.0
H567 H 0.4727 0.50638 0.91768 0.0
H568 H 0.46894 0.48265 0.92031 0.0
H569 H 0.45752 0.49918 0.9295 0.0
H570 H 0.45237 0.4787 0.94709 0.0
H571 H 0.43268 0.45235 0.94549 0.0
H572 H 0.57658 0.9693 0.20013 0.0
H573 H 0.55078 0.98983 0.20105 0.0
H574 H 0.51752 0.94992 0.18337 0.0
H575 H 0.54315 0.92923 0.18251 0.0
H576 H 0.53142 0.00301 0.18101 0.0
H577 H 0.4867 0.96538 0.21265 0.0
H578 H 0.51047 0.96049 0.21117 0.0
H579 H 0.49474 0.95225 0.19999 0.0
C580 C 0.56374 0.9648 0.19655 0.0
C581 C 0.56193 0.94761 0.19125 0.0
C582 C 0.54902 0.97656 0.19708 0.0
C583 C 0.5322 0.97131 0.19242 0.0
C584 C 0.53029 0.95411 0.18724 0.0
H585 H 0.42949 0.02126 0.17821 0.0
H586 H 0.45534 0.00111 0.18061 0.0
C587 C 0.545 0.94234 0.18669 0.0
C588 C 0.51692 0.98419 0.19231 0.0
H589 H 0.47346 0.98996 0.20185 0.0
C590 C 0.5188 0.00026 0.18566 0.0
C591 C 0.50048 0.98051 0.19836 0.0
C592 C 0.49797 0.9638 0.20604 0.0
C593 C 0.50448 0.01254 0.1846 0.0
C594 C 0.48796 0.00876 0.19053 0.0
C595 C 0.48615 0.9928 0.19731 0.0
C596 C 0.4722 0.02097 0.18949 0.0
C597 C 0.50696 0.02914 0.17679 0.0
C598 C 0.47303 0.03873 0.19388 0.0
C599 C 0.45828 0.05032 0.1925 0.0
C600 C 0.44241 0.04429 0.18676 0.0
C601 C 0.44152 0.02635 0.18263 0.0
C602 C 0.45627 0.0148 0.18401 0.0
H603 H 0.51877 0.02789 0.17061 0.0
H604 H 0.49476 0.03177 0.17118 0.0
H605 H 0.50919 0.04099 0.18279 0.0
H606 H 0.48509 0.04364 0.19836 0.0
H607 H 0.45937 0.06401 0.19586 0.0
H608 H 0.92775 0.54467 0.80464 0.0
H609 H 0.94648 0.51773 0.80197 0.0
H610 H 0.98293 0.53692 0.82976 0.0
H611 H 0.96428 0.56376 0.83258 0.0
H612 H 0.9834 0.51532 0.79554 0.0
H613 H 0.97001 0.48562 0.84118 0.0
H614 H 0.95631 0.50341 0.83477 0.0
H615 H 0.9777 0.50857 0.84167 0.0
C616 C 0.93973 0.54314 0.81021 0.0
C617 C 0.94447 0.55632 0.81888 0.0
C618 C 0.95041 0.52776 0.80866 0.0
C619 C 0.96592 0.52523 0.8158 0.0
C620 C 0.97082 0.53846 0.82433 0.0
H621 H 0.05795 0.45568 0.80596 0.0
H622 H 0.03644 0.48066 0.80639 0.0
C623 C 0.96018 0.55384 0.82588 0.0
C624 C 0.97717 0.50888 0.81425 0.0
H625 H 0.9939 0.47253 0.82966 0.0
C626 C 0.98561 0.50588 0.80296 0.0
C627 C 0.97981 0.49648 0.8239 0.0
C628 C 0.97035 0.49854 0.83603 0.0
C629 C 0.99711 0.49105 0.80118 0.0
C630 C 0.00037 0.47909 0.811 0.0
C631 C 0.99149 0.48181 0.82218 0.0
C632 C 0.01321 0.46384 0.81001 0.0
C633 C 0.00557 0.48827 0.78879 0.0
C634 C 0.00732 0.44612 0.81205 0.0
C635 C 0.01959 0.43181 0.81189 0.0
C636 C 0.03802 0.43499 0.80976 0.0
C637 C 0.04385 0.45275 0.80758 0.0
C638 C 0.03155 0.46705 0.80774 0.0
H639 H 0.99797 0.49542 0.7815 0.0
H640 H 0.01952 0.49369 0.7889 0.0
H641 H 0.00628 0.47371 0.78645 0.0
H642 H 0.99322 0.44339 0.81388 0.0
H643 H 0.01466 0.41831 0.81362 0.0
H644 H 0.42623 0.47147 0.05103 0.0
H645 H 0.45192 0.49208 0.04956 0.0
H646 H 0.48527 0.45366 0.06866 0.0
H647 H 0.45978 0.43291 0.07007 0.0
H648 H 0.47115 0.50681 0.06914 0.0
H649 H 0.51616 0.46697 0.03896 0.0
H650 H 0.49241 0.46215 0.04056 0.0
H651 H 0.50812 0.45472 0.05202 0.0
C652 C 0.43907 0.46732 0.05481 0.0
C653 C 0.44096 0.45053 0.06066 0.0
C654 C 0.45372 0.47912 0.05397 0.0
C655 C 0.47054 0.47429 0.05885 0.0
C656 C 0.4725 0.4575 0.0646 0.0
H657 H 0.57297 0.52502 0.07225 0.0
H658 H 0.54711 0.50479 0.07032 0.0
C659 C 0.45788 0.4457 0.06547 0.0
C660 C 0.48578 0.48718 0.05856 0.0
H661 H 0.52938 0.49215 0.04913 0.0
C662 C 0.48383 0.50371 0.06466 0.0
C663 C 0.50229 0.48305 0.05273 0.0
C664 C 0.50487 0.46583 0.0456 0.0
C665 C 0.49817 0.516 0.06543 0.0
C666 C 0.51477 0.51176 0.05975 0.0
C667 C 0.51663 0.49534 0.05349 0.0
C668 C 0.53054 0.52395 0.06051 0.0
C669 C 0.49562 0.53315 0.07265 0.0
C670 C 0.52987 0.54132 0.05545 0.0
C671 C 0.54462 0.55295 0.05656 0.0
C672 C 0.56033 0.54735 0.0627 0.0
C673 C 0.56107 0.52978 0.06751 0.0
C674 C 0.54632 0.51818 0.0664 0.0
H675 H 0.48365 0.53243 0.07874 0.0
H676 H 0.5077 0.53608 0.07831 0.0
H677 H 0.49362 0.54458 0.06625 0.0
H678 H 0.51793 0.54591 0.05067 0.0
H679 H 0.54364 0.56635 0.05268 0.0
H680 H 0.42747 0.0432 0.31008 0.0
H681 H 0.44778 0.01715 0.3097 0.0
H682 H 0.49303 0.05202 0.31696 0.0
H683 H 0.47289 0.07812 0.31743 0.0
H684 H 0.47923 0.01048 0.29489 0.0
H685 H 0.49473 0.01364 0.34453 0.0
H686 H 0.47584 0.02538 0.33781 0.0
H687 H 0.49824 0.03431 0.33629 0.0
C688 C 0.44175 0.04535 0.31156 0.0
C689 C 0.44854 0.06272 0.31389 0.0
C690 C 0.45333 0.03045 0.31132 0.0
C691 C 0.47184 0.03267 0.31347 0.0
C692 C 0.47873 0.05002 0.31547 0.0
H693 H 0.55887 0.95545 0.30279 0.0
H694 H 0.53831 0.98121 0.30133 0.0
C695 C 0.46719 0.06492 0.31569 0.0
C696 C 0.48392 0.01678 0.31383 0.0
H697 H 0.51136 0.99262 0.33279 0.0
C698 C 0.48626 0.00654 0.30316 0.0
C699 C 0.49287 0.01159 0.32468 0.0
C700 C 0.49023 0.02168 0.33652 0.0
C701 C 0.49758 0.99134 0.30303 0.0
C702 C 0.50686 0.98641 0.31382 0.0
C703 C 0.50432 0.99653 0.32451 0.0
C704 C 0.51903 0.97059 0.31431 0.0
C705 C 0.49928 0.98049 0.29142 0.0
C706 C 0.51512 0.95623 0.32221 0.0
C707 C 0.52685 0.94155 0.3231 0.0
C708 C 0.5428 0.94101 0.31617 0.0
C709 C 0.54667 0.95542 0.30823 0.0
C710 C 0.5349 0.9701 0.30733 0.0
H711 H 0.48821 0.98353 0.28489 0.0
H712 H 0.51227 0.9838 0.28692 0.0
H713 H 0.49921 0.96581 0.29343 0.0
H714 H 0.50297 0.95641 0.32772 0.0
H715 H 0.52346 0.9307 0.32932 0.0
H716 H 0.0697 0.02961 0.54917 0.0
H717 H 0.0436 0.0095 0.54803 0.0
H718 H 0.01215 0.04754 0.56887 0.0
H719 H 0.03806 0.06781 0.56996 0.0
H720 H 0.02562 0.99424 0.56795 0.0
H721 H 0.97898 0.03576 0.54001 0.0
H722 H 0.00288 0.04027 0.54091 0.0
H723 H 0.9881 0.04736 0.55302 0.0
C724 C 0.05718 0.0338 0.5534 0.0
C725 C 0.05596 0.05033 0.55965 0.0
C726 C 0.04229 0.02228 0.55274 0.0
C727 C 0.02589 0.02714 0.55823 0.0
C728 C 0.02457 0.0437 0.56436 0.0
H729 H 0.92385 0.97661 0.5736 0.0
H730 H 0.94968 0.9968 0.57128 0.0
C731 C 0.03944 0.05522 0.56504 0.0
C732 C 0.01049 0.01442 0.5582 0.0
H733 H 0.96627 0.0102 0.55002 0.0
C734 C 0.01268 0.99763 0.56393 0.0
C735 C 0.99365 0.01894 0.55298 0.0
C736 C 0.99075 0.03649 0.54628 0.0
C737 C 0.9983 0.98542 0.5649 0.0
C738 C 0.98138 0.99003 0.5598 0.0
C739 C 0.97926 0.00673 0.55393 0.0
C740 C 0.96559 0.97789 0.56077 0.0
C741 C 0.00118 0.96797 0.57173 0.0
C742 C 0.96587 0.96069 0.55544 0.0
C743 C 0.95115 0.94908 0.55678 0.0
C744 C 0.93584 0.95453 0.56341 0.0
C745 C 0.93545 0.97196 0.56848 0.0
C746 C 0.95018 0.98353 0.56715 0.0
H747 H 0.01347 0.96841 0.57752 0.0
H748 H 0.9894 0.96483 0.57762 0.0
H749 H 0.0028 0.95681 0.56506 0.0
H750 H 0.97751 0.95621 0.55028 0.0
H751 H 0.95184 0.9358 0.55268 0.0
H752 H 0.32595 0.12599 0.3623 0.0
H753 H 0.29567 0.12377 0.37112 0.0
H754 H 0.28309 0.17698 0.35771 0.0
H755 H 0.3133 0.17937 0.34888 0.0
H756 H 0.27967 0.14876 0.38875 0.0
H757 H 0.24116 0.14375 0.34531 0.0
H758 H 0.26501 0.13894 0.34627 0.0
H759 H 0.25723 0.16187 0.34609 0.0
C760 C 0.31672 0.1372 0.36118 0.0
C761 C 0.32202 0.15285 0.35487 0.0
C762 C 0.29945 0.1359 0.36623 0.0
C763 C 0.28714 0.15013 0.36494 0.0
C764 C 0.29235 0.16576 0.35865 0.0
H765 H 0.18931 0.17629 0.40367 0.0
H766 H 0.21955 0.17535 0.39473 0.0
C767 C 0.30964 0.16712 0.35367 0.0
C768 C 0.26898 0.14888 0.37047 0.0
H769 H 0.22412 0.14791 0.36346 0.0
C770 C 0.26751 0.14848 0.38324 0.0
C771 C 0.2532 0.14835 0.36322 0.0
C772 C 0.25412 0.1481 0.34945 0.0
C773 C 0.2506 0.14804 0.38899 0.0
C774 C 0.23481 0.14809 0.38175 0.0
C775 C 0.23628 0.14801 0.36897 0.0
C776 C 0.21662 0.14849 0.38729 0.0
C777 C 0.2497 0.14748 0.40275 0.0
C778 C 0.20493 0.13378 0.3859 0.0
C779 C 0.18766 0.13425 0.39102 0.0
C780 C 0.18173 0.14954 0.39748 0.0
C781 C 0.19347 0.16431 0.39876 0.0
C782 C 0.21077 0.16377 0.39372 0.0
H783 H 0.26284 0.14359 0.40687 0.0
H784 H 0.24601 0.16105 0.40624 0.0
H785 H 0.23921 0.13782 0.40585 0.0
H786 H 0.20921 0.12191 0.38091 0.0
H787 H 0.17892 0.12268 0.38984 0.0
H788 H 0.82265 0.67737 0.64403 0.0
H789 H 0.8227 0.70775 0.63533 0.0
H790 H 0.88086 0.7075 0.63494 0.0
H791 H 0.88095 0.677 0.64343 0.0
H792 H 0.8375 0.73896 0.64473 0.0
H793 H 0.86867 0.72218 0.60005 0.0
H794 H 0.85984 0.70517 0.61021 0.0
H795 H 0.88165 0.71493 0.613 0.0
C796 C 0.83546 0.68373 0.64204 0.0
C797 C 0.8518 0.67473 0.64436 0.0
C798 C 0.83546 0.7011 0.63708 0.0
C799 C 0.85177 0.70976 0.6343 0.0
C800 C 0.86811 0.7009 0.63674 0.0
H801 H 0.87992 0.81589 0.60694 0.0
H802 H 0.87999 0.78538 0.61547 0.0
C803 C 0.86813 0.68351 0.64167 0.0
C804 C 0.85167 0.72826 0.62916 0.0
H805 H 0.86533 0.75331 0.60467 0.0
C806 C 0.8435 0.7421 0.63595 0.0
C807 C 0.85953 0.73229 0.6177 0.0
C808 C 0.86778 0.71784 0.60975 0.0
C809 C 0.84322 0.75993 0.63166 0.0
C810 C 0.85113 0.76396 0.62023 0.0
C811 C 0.85932 0.75015 0.61345 0.0
C812 C 0.85098 0.78244 0.61511 0.0
C813 C 0.83478 0.7744 0.63949 0.0
C814 C 0.83464 0.79077 0.61196 0.0
C815 C 0.83454 0.80818 0.60706 0.0
C816 C 0.8508 0.81754 0.6052 0.0
C817 C 0.86716 0.80908 0.60829 0.0
C818 C 0.86724 0.79164 0.61315 0.0
H819 H 0.83313 0.76993 0.64912 0.0
H820 H 0.84306 0.78687 0.63937 0.0
H821 H 0.82124 0.77776 0.63582 0.0
H822 H 0.82197 0.78375 0.61322 0.0
H823 H 0.82172 0.81428 0.60474 0.0
H824 H 0.32222 0.37642 0.88982 0.0
H825 H 0.29213 0.37875 0.88071 0.0
H826 H 0.27859 0.32624 0.89491 0.0
H827 H 0.30861 0.32374 0.90403 0.0
H828 H 0.27604 0.35333 0.86339 0.0
H829 H 0.23699 0.36061 0.90647 0.0
H830 H 0.26092 0.365 0.90559 0.0
H831 H 0.2528 0.34221 0.90609 0.0
C832 C 0.31282 0.36539 0.89105 0.0
C833 C 0.31778 0.34991 0.89767 0.0
C834 C 0.29566 0.36675 0.88582 0.0
C835 C 0.28313 0.35275 0.88726 0.0
C836 C 0.28802 0.33728 0.89385 0.0
H837 H 0.18534 0.32745 0.84816 0.0
H838 H 0.21536 0.32785 0.85743 0.0
C839 C 0.3052 0.33586 0.899 0.0
C840 C 0.26508 0.35409 0.88159 0.0
H841 H 0.22015 0.35622 0.88827 0.0
C842 C 0.26381 0.35405 0.8688 0.0
C843 C 0.24922 0.35518 0.88872 0.0
C844 C 0.24994 0.35591 0.90248 0.0
C845 C 0.24699 0.35463 0.86294 0.0
C846 C 0.2311 0.35518 0.87007 0.0
C847 C 0.23239 0.35567 0.88285 0.0
C848 C 0.213 0.35504 0.86441 0.0
C849 C 0.2463 0.35473 0.84916 0.0
C850 C 0.20168 0.37012 0.86543 0.0
C851 C 0.18453 0.36996 0.86013 0.0
C852 C 0.17835 0.35463 0.85383 0.0
C853 C 0.18969 0.33948 0.85293 0.0
C854 C 0.20688 0.3397 0.85817 0.0
H855 H 0.25958 0.35814 0.84508 0.0
H856 H 0.24232 0.34115 0.84587 0.0
H857 H 0.2361 0.36455 0.84584 0.0
H858 H 0.20617 0.38204 0.87027 0.0
H859 H 0.17609 0.38182 0.86101 0.0
H860 H 0.6282 0.83076 0.13595 0.0
H861 H 0.62542 0.80043 0.12728 0.0
H862 H 0.67756 0.78638 0.14188 0.0
H863 H 0.68053 0.81665 0.15055 0.0
H864 H 0.65095 0.78289 0.11036 0.0
H865 H 0.64184 0.74625 0.15426 0.0
H866 H 0.63791 0.7702 0.15276 0.0
H867 H 0.66053 0.76168 0.15366 0.0
C868 C 0.63907 0.82121 0.13734 0.0
C869 C 0.65457 0.82609 0.14396 0.0
C870 C 0.63745 0.80392 0.13237 0.0
C871 C 0.6512 0.79117 0.13406 0.0
C872 C 0.66671 0.79599 0.14062 0.0
H873 H 0.67459 0.69053 0.09777 0.0
H874 H 0.67483 0.72112 0.10616 0.0
C875 C 0.66841 0.81331 0.14552 0.0
C876 C 0.64951 0.77289 0.12879 0.0
H877 H 0.64595 0.72842 0.13649 0.0
C878 C 0.64978 0.77097 0.11604 0.0
C879 C 0.64782 0.75744 0.13627 0.0
C880 C 0.64685 0.7589 0.15 0.0
C881 C 0.64884 0.75388 0.11057 0.0
C882 C 0.64768 0.7384 0.11806 0.0
C883 C 0.64697 0.74035 0.1308 0.0
C884 C 0.6474 0.72001 0.11284 0.0
C885 C 0.64903 0.75247 0.09682 0.0
C886 C 0.63196 0.70923 0.11397 0.0
C887 C 0.63175 0.69176 0.10916 0.0
C888 C 0.64707 0.68473 0.10326 0.0
C889 C 0.66256 0.69555 0.10224 0.0
C890 C 0.66271 0.71305 0.10697 0.0
H891 H 0.64617 0.76565 0.09238 0.0
H892 H 0.66253 0.74785 0.09377 0.0
H893 H 0.63894 0.74246 0.09364 0.0
H894 H 0.62005 0.71437 0.11852 0.0
H895 H 0.61963 0.68375 0.11013 0.0
H896 H 0.82046 0.68173 0.85628 0.0
H897 H 0.78953 0.67983 0.86394 0.0
H898 H 0.79438 0.622 0.86654 0.0
H899 H 0.82541 0.62378 0.85909 0.0
H900 H 0.76056 0.66172 0.85385 0.0
H901 H 0.77554 0.63559 0.90028 0.0
H902 H 0.7927 0.64506 0.8905 0.0
H903 H 0.78504 0.62232 0.88816 0.0
C904 C 0.81499 0.66861 0.85855 0.0
C905 C 0.82543 0.65291 0.85713 0.0
C906 C 0.79731 0.66756 0.86292 0.0
C907 C 0.78976 0.65081 0.86598 0.0
C908 C 0.80008 0.6351 0.86449 0.0
H909 H 0.68392 0.61614 0.89026 0.0
H910 H 0.71503 0.61789 0.8829 0.0
C911 C 0.81779 0.63614 0.86016 0.0
C912 C 0.77088 0.64976 0.87036 0.0
H913 H 0.74474 0.63599 0.8943 0.0
C914 C 0.75709 0.65619 0.86272 0.0
C915 C 0.76642 0.6425 0.88193 0.0
C916 C 0.7807 0.63612 0.89075 0.0
C917 C 0.73893 0.65529 0.86625 0.0
C918 C 0.73448 0.64799 0.8778 0.0
C919 C 0.74824 0.64154 0.88544 0.0
C920 C 0.71561 0.64703 0.88215 0.0
C921 C 0.7246 0.66184 0.85752 0.0
C922 C 0.70573 0.66286 0.88428 0.0
C923 C 0.68797 0.66192 0.8885 0.0
C924 C 0.67979 0.64512 0.8907 0.0
C925 C 0.68979 0.62929 0.88862 0.0
C926 C 0.70757 0.63025 0.88443 0.0
H927 H 0.72982 0.66305 0.84803 0.0
H928 H 0.71283 0.65259 0.85749 0.0
H929 H 0.71985 0.67535 0.86047 0.0
H930 H 0.71181 0.67595 0.88276 0.0
H931 H 0.68067 0.67437 0.89006 0.0
H932 H 0.38233 0.31492 0.10976 0.0
H933 H 0.38233 0.28355 0.1167 0.0
H934 H 0.3242 0.28292 0.11554 0.0
H935 H 0.32406 0.31416 0.10841 0.0
H936 H 0.36696 0.269 0.1375 0.0
H937 H 0.33738 0.23815 0.0959 0.0
H938 H 0.34609 0.26087 0.09612 0.0
H939 H 0.32407 0.25612 0.10219 0.0
C940 C 0.36954 0.30809 0.11093 0.0
C941 C 0.3532 0.31701 0.10847 0.0
C942 C 0.36957 0.29017 0.1149 0.0
C943 C 0.35328 0.28083 0.11645 0.0
C944 C 0.33694 0.28975 0.11414 0.0
H945 H 0.32346 0.1751 0.14321 0.0
H946 H 0.32413 0.20615 0.13564 0.0
C947 C 0.33689 0.30765 0.11014 0.0
C948 C 0.35338 0.2619 0.1208 0.0
H949 H 0.33991 0.21925 0.11337 0.0
C950 C 0.36116 0.25809 0.1322 0.0
C951 C 0.34578 0.24771 0.11385 0.0
C952 C 0.33801 0.25084 0.10128 0.0
C953 C 0.36122 0.24052 0.13697 0.0
C954 C 0.35349 0.22638 0.13007 0.0
C955 C 0.34577 0.23016 0.11865 0.0
C956 C 0.35322 0.20756 0.13457 0.0
C957 C 0.36918 0.23727 0.14947 0.0
C958 C 0.36936 0.19803 0.13632 0.0
C959 C 0.36904 0.18028 0.14062 0.0
C960 C 0.35254 0.17175 0.14322 0.0
C961 C 0.33639 0.18129 0.14133 0.0
C962 C 0.33673 0.19902 0.13699 0.0
H963 H 0.37081 0.25002 0.15468 0.0
H964 H 0.36058 0.22793 0.15484 0.0
H965 H 0.38268 0.23099 0.14845 0.0
H966 H 0.38221 0.20431 0.13431 0.0
H967 H 0.38172 0.17329 0.14193 0.0
H968 H 0.81047 0.88442 0.39095 0.0
H969 H 0.77946 0.88347 0.38335 0.0
H970 H 0.7806 0.82534 0.38442 0.0
H971 H 0.81148 0.82615 0.39222 0.0
H972 H 0.76626 0.86779 0.36226 0.0
H973 H 0.73464 0.837 0.40321 0.0
H974 H 0.75709 0.84639 0.40343 0.0
H975 H 0.75325 0.82428 0.39722 0.0
C976 C 0.8041 0.87143 0.38962 0.0
C977 C 0.81341 0.85536 0.39225 0.0
C978 C 0.78639 0.87091 0.38527 0.0
C979 C 0.77763 0.85435 0.38351 0.0
C980 C 0.78696 0.83828 0.38598 0.0
H981 H 0.67366 0.82185 0.35495 0.0
H982 H 0.70449 0.82324 0.36288 0.0
C983 C 0.80465 0.83877 0.39037 0.0
C984 C 0.7589 0.85388 0.3788 0.0
H985 H 0.71638 0.83914 0.38541 0.0
C986 C 0.75532 0.86162 0.36735 0.0
C987 C 0.74467 0.84582 0.38546 0.0
C988 C 0.74752 0.83804 0.39806 0.0
C989 C 0.73795 0.86122 0.36227 0.0
C990 C 0.72377 0.85305 0.36889 0.0
C991 C 0.72732 0.84534 0.38035 0.0
C992 C 0.70513 0.85234 0.36408 0.0
C993 C 0.73496 0.8692 0.34975 0.0
C994 C 0.69525 0.86826 0.36227 0.0
C995 C 0.67762 0.86752 0.35777 0.0
C996 C 0.66957 0.85084 0.35501 0.0
C997 C 0.67948 0.83492 0.35694 0.0
C998 C 0.69708 0.83567 0.36148 0.0
H999 H 0.74785 0.87121 0.34475 0.0
H1000 H 0.72605 0.86041 0.34418 0.0
H1001 H 0.72828 0.88252 0.3507 0.0
H1002 H 0.70113 0.88124 0.36442 0.0
H1003 H 0.67034 0.88003 0.35643 0.0
H1004 H 0.18049 0.31686 0.64103 0.0
H1005 H 0.18008 0.28568 0.63374 0.0
H1006 H 0.12196 0.28699 0.63251 0.0
H1007 H 0.12224 0.31826 0.63958 0.0
H1008 H 0.16437 0.25578 0.64437 0.0
H1009 H 0.13488 0.26857 0.59857 0.0
H1010 H 0.14376 0.2864 0.60804 0.0
H1011 H 0.12168 0.27737 0.61096 0.0
C1012 C 0.16762 0.31055 0.63915 0.0
C1013 C 0.1514 0.32007 0.64082 0.0
C1014 C 0.16741 0.29273 0.63499 0.0
C1015 C 0.15101 0.28412 0.6324 0.0
C1016 C 0.13479 0.29351 0.63419 0.0
H1017 H 0.12173 0.17599 0.60947 0.0
H1018 H 0.12192 0.2072 0.61676 0.0
C1019 C 0.13497 0.31135 0.6383 0.0
C1020 C 0.15089 0.26515 0.62814 0.0
H1021 H 0.13747 0.23793 0.60467 0.0
C1022 C 0.15857 0.25188 0.63567 0.0
C1023 C 0.14329 0.26011 0.61678 0.0
C1024 C 0.13558 0.27386 0.60806 0.0
C1025 C 0.15863 0.23365 0.63222 0.0
C1026 C 0.15098 0.22862 0.62089 0.0
C1027 C 0.14327 0.24186 0.61337 0.0
C1028 C 0.15098 0.20968 0.61663 0.0
C1029 C 0.16656 0.21985 0.64082 0.0
C1030 C 0.16726 0.20084 0.61404 0.0
C1031 C 0.16722 0.18304 0.60985 0.0
C1032 C 0.15086 0.17378 0.60816 0.0
C1033 C 0.13456 0.18272 0.61072 0.0
C1034 C 0.13463 0.20055 0.61486 0.0
H1035 H 0.16804 0.22525 0.65024 0.0
H1036 H 0.15803 0.20755 0.64116 0.0
H1037 H 0.18013 0.21587 0.6375 0.0
H1038 H 0.18001 0.20778 0.61516 0.0
H1039 H 0.18 0.17656 0.60792 0.0
loop_
_geom_bond_atom_site_label_1
_geom_bond_atom_site_label_2
_geom_bond_distance
_geom_bond_site_symmetry_2
_ccdc_geom_bond_type
O0 Cd1 2.300 . S
O0 C7 1.275 . S
Cd1 O0 2.300 . S
Cd1 O9 2.381 . S
Cd1 O10 2.378 . S
O2 Cd3 2.385 . S
O2 C7 1.255 . S
Cd3 O2 2.385 . S
Cd3 O4 2.317 . S
O4 Cd3 2.317 . S
O4 C5 1.232 . S
C5 O4 1.232 . S
C5 O6 1.218 . S
O6 C5 1.218 . S
C7 O0 1.275 . S
C7 O2 1.255 . S
C8 O9 1.258 . S
C8 O10 1.256 . S
O9 Cd1 2.381 . S
O9 C8 1.258 . S
O10 Cd1 2.378 . S
O10 C8 1.256 . S
O11 Cd12 2.300 . S
O11 C18 1.275 . S
Cd12 O11 2.300 . S
Cd12 O20 2.381 . S
Cd12 O21 2.378 . S
O13 Cd14 2.385 . S
O13 C18 1.255 . S
Cd14 O13 2.385 . S
Cd14 O15 2.317 . S
O15 Cd14 2.317 . S
O15 C16 1.232 . S
C16 O15 1.232 . S
C16 O17 1.218 . S
O17 C16 1.218 . S
C18 O11 1.275 . S
C18 O13 1.255 . S
C19 O20 1.258 . S
C19 O21 1.256 . S
O20 Cd12 2.381 . S
O20 C19 1.258 . S
O21 Cd12 2.378 . S
O21 C19 1.256 . S
O22 Cd23 2.300 . S
O22 C29 1.275 . S
Cd23 O22 2.300 . S
Cd23 O31 2.381 . S
Cd23 O32 2.378 . S
O24 Cd25 2.385 . S
O24 C29 1.255 . S
Cd25 O24 2.385 . S
Cd25 O26 2.317 . S
O26 Cd25 2.317 . S
O26 C27 1.232 . S
C27 O26 1.232 . S
C27 O28 1.218 . S
O28 C27 1.218 . S
C29 O22 1.275 . S
C29 O24 1.255 . S
C30 O31 1.258 . S
C30 O32 1.256 . S
O31 Cd23 2.381 . S
O31 C30 1.258 . S
O32 Cd23 2.378 . S
O32 C30 1.256 . S
O33 Cd34 2.300 . S
O33 C40 1.275 . S
Cd34 O33 2.300 . S
Cd34 O42 2.381 . S
Cd34 O43 2.378 . S
O35 Cd36 2.385 . S
O35 C40 1.255 . S
Cd36 O35 2.385 . S
Cd36 O37 2.317 . S
O37 Cd36 2.317 . S
O37 C38 1.232 . S
C38 O37 1.232 . S
C38 O39 1.218 . S
O39 C38 1.218 . S
C40 O33 1.275 . S
C40 O35 1.255 . S
C41 O42 1.258 . S
C41 O43 1.256 . S
O42 Cd34 2.381 . S
O42 C41 1.258 . S
O43 Cd34 2.378 . S
O43 C41 1.256 . S
O44 Cd45 2.300 . S
O44 C51 1.275 . S
Cd45 O44 2.300 . S
Cd45 O53 2.381 . S
Cd45 O54 2.378 . S
O46 Cd47 2.385 . S
O46 C51 1.255 . S
Cd47 O46 2.385 . S
Cd47 O48 2.317 . S
O48 Cd47 2.317 . S
O48 C49 1.232 . S
C49 O48 1.232 . S
C49 O50 1.218 . S
O50 C49 1.218 . S
C51 O44 1.275 . S
C51 O46 1.255 . S
C52 O53 1.258 . S
C52 O54 1.256 . S
O53 Cd45 2.381 . S
O53 C52 1.258 . S
O54 Cd45 2.378 . S
O54 C52 1.256 . S
O55 Cd56 2.300 . S
O55 C62 1.275 . S
Cd56 O55 2.300 . S
Cd56 O64 2.381 . S
Cd56 O65 2.378 . S
O57 Cd58 2.385 . S
O57 C62 1.255 . S
Cd58 O57 2.385 . S
Cd58 O59 2.317 . S
O59 Cd58 2.317 . S
O59 C60 1.232 . S
C60 O59 1.232 . S
C60 O61 1.218 . S
O61 C60 1.218 . S
C62 O55 1.275 . S
C62 O57 1.255 . S
C63 O64 1.258 . S
C63 O65 1.256 . S
O64 Cd56 2.381 . S
O64 C63 1.258 . S
O65 Cd56 2.378 . S
O65 C63 1.256 . S
O66 Cd67 2.300 . S
O66 C73 1.275 . S
Cd67 O66 2.300 . S
Cd67 O75 2.381 . S
Cd67 O76 2.378 . S
O68 Cd69 2.385 . S
O68 C73 1.255 . S
Cd69 O68 2.385 . S
Cd69 O70 2.317 . S
O70 Cd69 2.317 . S
O70 C71 1.232 . S
C71 O70 1.232 . S
C71 O72 1.218 . S
O72 C71 1.218 . S
C73 O66 1.275 . S
C73 O68 1.255 . S
C74 O75 1.258 . S
C74 O76 1.256 . S
O75 Cd67 2.381 . S
O75 C74 1.258 . S
O76 Cd67 2.378 . S
O76 C74 1.256 . S
O77 Cd78 2.300 . S
O77 C84 1.275 . S
Cd78 O77 2.300 . S
Cd78 O86 2.381 . S
Cd78 O87 2.378 . S
O79 Cd80 2.385 . S
O79 C84 1.255 . S
Cd80 O79 2.385 . S
Cd80 O81 2.317 . S
O81 Cd80 2.317 . S
O81 C82 1.232 . S
C82 O81 1.232 . S
C82 O83 1.218 . S
O83 C82 1.218 . S
C84 O77 1.275 . S
C84 O79 1.255 . S
C85 O86 1.258 . S
C85 O87 1.256 . S
O86 Cd78 2.381 . S
O86 C85 1.258 . S
O87 Cd78 2.378 . S
O87 C85 1.256 . S
O88 Cd89 2.300 . S
O88 C95 1.275 . S
Cd89 O88 2.300 . S
Cd89 O97 2.381 . S
Cd89 O98 2.378 . S
O90 Cd91 2.385 . S
O90 C95 1.255 . S
Cd91 O90 2.385 . S
Cd91 O92 2.317 . S
O92 Cd91 2.317 . S
O92 C93 1.232 . S
C93 O92 1.232 . S
C93 O94 1.218 . S
O94 C93 1.218 . S
C95 O88 1.275 . S
C95 O90 1.255 . S
C96 O97 1.258 . S
C96 O98 1.256 . S
O97 Cd89 2.381 . S
O97 C96 1.258 . S
O98 Cd89 2.378 . S
O98 C96 1.256 . S
O99 Cd100 2.300 . S
O99 C106 1.275 . S
Cd100 O99 2.300 . S
Cd100 O108 2.381 . S
Cd100 O109 2.378 . S
O101 Cd102 2.385 . S
O101 C106 1.255 . S
Cd102 O101 2.385 . S
Cd102 O103 2.317 . S
O103 Cd102 2.317 . S
O103 C104 1.232 . S
C104 O103 1.232 . S
C104 O105 1.218 . S
O105 C104 1.218 . S
C106 O99 1.275 . S
C106 O101 1.255 . S
C107 O108 1.258 . S
C107 O109 1.256 . S
O108 Cd100 2.381 . S
O108 C107 1.258 . S
O109 Cd100 2.378 . S
O109 C107 1.256 . S
O110 Cd111 2.300 . S
O110 C117 1.275 . S
Cd111 O110 2.300 . S
Cd111 O119 2.381 . S
Cd111 O120 2.378 . S
O112 Cd113 2.385 . S
O112 C117 1.255 . S
Cd113 O112 2.385 . S
Cd113 O114 2.317 . S
O114 Cd113 2.317 . S
O114 C115 1.232 . S
C115 O114 1.232 . S
C115 O116 1.218 . S
O116 C115 1.218 . S
C117 O110 1.275 . S
C117 O112 1.255 . S
C118 O119 1.258 . S
C118 O120 1.256 . S
O119 Cd111 2.381 . S
O119 C118 1.258 . S
O120 Cd111 2.378 . S
O120 C118 1.256 . S
O121 Cd122 2.300 . S
O121 C128 1.275 . S
Cd122 O121 2.300 . S
Cd122 O130 2.381 . S
Cd122 O131 2.378 . S
O123 Cd124 2.385 . S
O123 C128 1.255 . S
Cd124 O123 2.385 . S
Cd124 O125 2.317 . S
O125 Cd124 2.317 . S
O125 C126 1.232 . S
C126 O125 1.232 . S
C126 O127 1.218 . S
O127 C126 1.218 . S
C128 O121 1.275 . S
C128 O123 1.255 . S
C129 O130 1.258 . S
C129 O131 1.256 . S
O130 Cd122 2.381 . S
O130 C129 1.258 . S
O131 Cd122 2.378 . S
O131 C129 1.256 . S
O132 Cd133 2.300 . S
O132 C139 1.275 . S
Cd133 O132 2.300 . S
Cd133 O141 2.381 . S
Cd133 O142 2.378 . S
O134 Cd135 2.385 . S
O134 C139 1.255 . S
Cd135 O134 2.385 . S
Cd135 O136 2.317 . S
O136 Cd135 2.317 . S
O136 C137 1.232 . S
C137 O136 1.232 . S
C137 O138 1.218 . S
O138 C137 1.218 . S
C139 O132 1.275 . S
C139 O134 1.255 . S
C140 O141 1.258 . S
C140 O142 1.256 . S
O141 Cd133 2.381 . S
O141 C140 1.258 . S
O142 Cd133 2.378 . S
O142 C140 1.256 . S
O143 Cd144 2.300 . S
O143 C150 1.275 . S
Cd144 O143 2.300 . S
Cd144 O152 2.381 . S
Cd144 O153 2.378 . S
O145 Cd146 2.385 . S
O145 C150 1.255 . S
Cd146 O145 2.385 . S
Cd146 O147 2.317 . S
O147 Cd146 2.317 . S
O147 C148 1.232 . S
C148 O147 1.232 . S
C148 O149 1.218 . S
O149 C148 1.218 . S
C150 O143 1.275 . S
C150 O145 1.255 . S
C151 O152 1.258 . S
C151 O153 1.256 . S
O152 Cd144 2.381 . S
O152 C151 1.258 . S
O153 Cd144 2.378 . S
O153 C151 1.256 . S
O154 Cd155 2.300 . S
O154 C161 1.275 . S
Cd155 O154 2.300 . S
Cd155 O163 2.381 . S
Cd155 O164 2.378 . S
O156 Cd157 2.385 . S
O156 C161 1.255 . S
Cd157 O156 2.385 . S
Cd157 O158 2.317 . S
O158 Cd157 2.317 . S
O158 C159 1.232 . S
C159 O158 1.232 . S
C159 O160 1.218 . S
O160 C159 1.218 . S
C161 O154 1.275 . S
C161 O156 1.255 . S
C162 O163 1.258 . S
C162 O164 1.256 . S
O163 Cd155 2.381 . S
O163 C162 1.258 . S
O164 Cd155 2.378 . S
O164 C162 1.256 . S
O165 Cd166 2.300 . S
O165 C172 1.275 . S
Cd166 O165 2.300 . S
Cd166 O174 2.381 . S
Cd166 O175 2.378 . S
O167 Cd168 2.385 . S
O167 C172 1.255 . S
Cd168 O167 2.385 . S
Cd168 O169 2.317 . S
O169 Cd168 2.317 . S
O169 C170 1.232 . S
C170 O169 1.232 . S
C170 O171 1.218 . S
O171 C170 1.218 . S
C172 O165 1.275 . S
C172 O167 1.255 . S
C173 O174 1.258 . S
C173 O175 1.256 . S
O174 Cd166 2.381 . S
O174 C173 1.258 . S
O175 Cd166 2.378 . S
O175 C173 1.256 . S
H176 C184 0.929 . S
H177 C186 0.930 . S
H178 C188 0.930 . S
H179 C191 0.929 . S
H180 C194 0.930 . S
H181 C196 0.960 . S
H182 C196 0.960 . S
H183 C196 0.960 . S
C184 H176 0.929 . S
C184 C185 1.377 . S
C184 C186 1.384 . S
C185 C184 1.377 . S
C185 C191 1.390 . S
C186 H177 0.930 . S
C186 C184 1.384 . S
C186 C187 1.372 . S
C187 C186 1.372 . S
C187 C188 1.400 . S
C187 C192 1.490 . S
C188 H178 0.930 . S
C188 C187 1.400 . S
C188 C191 1.386 . S
H189 C205 0.930 . S
H190 C206 0.931 . S
C191 H179 0.929 . S
C191 C185 1.390 . S
C191 C188 1.386 . S
C192 C187 1.490 . S
C192 C194 1.395 . S
C192 C195 1.403 . S
H193 C199 0.930 . S
C194 H180 0.930 . S
C194 C192 1.395 . S
C194 C197 1.403 . S
C195 C192 1.403 . S
C195 C196 1.524 . S
C195 C199 1.400 . S
C196 H181 0.960 . S
C196 H182 0.960 . S
C196 H183 0.960 . S
C196 C195 1.524 . S
C197 C194 1.403 . S
C197 C198 1.392 . S
C197 C201 1.495 . S
C198 C197 1.392 . S
C198 C199 1.385 . S
C198 C200 1.478 . S
C199 H193 0.930 . S
C199 C195 1.400 . S
C199 C198 1.385 . S
C200 C198 1.478 . S
C200 C202 1.381 . S
C200 C206 1.383 . S
C201 C197 1.495 . S
C201 H207 0.959 . S
C201 H208 0.961 . S
C201 H209 0.960 . S
C202 C200 1.381 . S
C202 C203 1.394 . S
C202 H210 0.930 . S
C203 C202 1.394 . S
C203 C204 1.383 . S
C203 H211 0.929 . S
C204 C203 1.383 . S
C204 C205 1.377 . S
C205 H189 0.930 . S
C205 C204 1.377 . S
C205 C206 1.379 . S
C206 H190 0.931 . S
C206 C200 1.383 . S
C206 C205 1.379 . S
H207 C201 0.959 . S
H208 C201 0.961 . S
H209 C201 0.960 . S
H210 C202 0.930 . S
H211 C203 0.929 . S
H212 C220 0.929 . S
H213 C222 0.930 . S
H214 C224 0.930 . S
H215 C227 0.929 . S
H216 C230 0.930 . S
H217 C232 0.960 . S
H218 C232 0.960 . S
H219 C232 0.960 . S
C220 H212 0.929 . S
C220 C221 1.377 . S
C220 C222 1.384 . S
C221 C220 1.377 . S
C221 C227 1.390 . S
C222 H213 0.930 . S
C222 C220 1.384 . S
C222 C223 1.372 . S
C223 C222 1.372 . S
C223 C224 1.400 . S
C223 C228 1.490 . S
C224 H214 0.930 . S
C224 C223 1.400 . S
C224 C227 1.386 . S
H225 C241 0.930 . S
H226 C242 0.931 . S
C227 H215 0.929 . S
C227 C221 1.390 . S
C227 C224 1.386 . S
C228 C223 1.490 . S
C228 C230 1.395 . S
C228 C231 1.403 . S
H229 C235 0.930 . S
C230 H216 0.930 . S
C230 C228 1.395 . S
C230 C233 1.403 . S
C231 C228 1.403 . S
C231 C232 1.524 . S
C231 C235 1.400 . S
C232 H217 0.960 . S
C232 H218 0.960 . S
C232 H219 0.960 . S
C232 C231 1.524 . S
C233 C230 1.403 . S
C233 C234 1.392 . S
C233 C237 1.495 . S
C234 C233 1.392 . S
C234 C235 1.385 . S
C234 C236 1.478 . S
C235 H229 0.930 . S
C235 C231 1.400 . S
C235 C234 1.385 . S
C236 C234 1.478 . S
C236 C238 1.381 . S
C236 C242 1.383 . S
C237 C233 1.495 . S
C237 H243 0.959 . S
C237 H244 0.961 . S
C237 H245 0.960 . S
C238 C236 1.381 . S
C238 C239 1.394 . S
C238 H246 0.930 . S
C239 C238 1.394 . S
C239 C240 1.383 . S
C239 H247 0.929 . S
C240 C239 1.383 . S
C240 C241 1.377 . S
C241 H225 0.930 . S
C241 C240 1.377 . S
C241 C242 1.379 . S
C242 H226 0.931 . S
C242 C236 1.383 . S
C242 C241 1.379 . S
H243 C237 0.959 . S
H244 C237 0.961 . S
H245 C237 0.960 . S
H246 C238 0.930 . S
H247 C239 0.929 . S
H248 C256 0.929 . S
H249 C258 0.930 . S
H250 C260 0.930 . S
H251 C263 0.929 . S
H252 C266 0.930 . S
H253 C268 0.960 . S
H254 C268 0.960 . S
H255 C268 0.960 . S
C256 H248 0.929 . S
C256 C257 1.377 . S
C256 C258 1.384 . S
C257 C256 1.377 . S
C257 C263 1.390 . S
C258 H249 0.930 . S
C258 C256 1.384 . S
C258 C259 1.372 . S
C259 C258 1.372 . S
C259 C260 1.400 . S
C259 C264 1.490 . S
C260 H250 0.930 . S
C260 C259 1.400 . S
C260 C263 1.386 . S
H261 C277 0.930 . S
H262 C278 0.931 . S
C263 H251 0.929 . S
C263 C257 1.390 . S
C263 C260 1.386 . S
C264 C259 1.490 . S
C264 C266 1.395 . S
C264 C267 1.403 . S
H265 C271 0.930 . S
C266 H252 0.930 . S
C266 C264 1.395 . S
C266 C269 1.403 1_556 S
C267 C264 1.403 . S
C267 C268 1.524 . S
C267 C271 1.400 1_556 S
C268 H253 0.960 . S
C268 H254 0.960 . S
C268 H255 0.960 . S
C268 C267 1.524 . S
C269 C266 1.403 1_554 S
C269 C270 1.392 . S
C269 C273 1.495 . S
C270 C269 1.392 . S
C270 C271 1.385 . S
C270 C272 1.478 . S
C271 H265 0.930 . S
C271 C267 1.400 1_554 S
C271 C270 1.385 . S
C272 C270 1.478 . S
C272 C274 1.381 . S
C272 C278 1.383 . S
C273 C269 1.495 . S
C273 H279 0.959 . S
C273 H280 0.961 . S
C273 H281 0.960 . S
C274 C272 1.381 . S
C274 C275 1.394 . S
C274 H282 0.930 . S
C275 C274 1.394 . S
C275 C276 1.383 . S
C275 H283 0.929 . S
C276 C275 1.383 . S
C276 C277 1.377 . S
C277 H261 0.930 . S
C277 C276 1.377 . S
C277 C278 1.379 . S
C278 H262 0.931 . S
C278 C272 1.383 . S
C278 C277 1.379 . S
H279 C273 0.959 . S
H280 C273 0.961 . S
H281 C273 0.960 . S
H282 C274 0.930 . S
H283 C275 0.929 . S
H284 C292 0.929 . S
H285 C294 0.930 . S
H286 C296 0.930 . S
H287 C299 0.929 . S
H288 C302 0.930 . S
H289 C304 0.960 . S
H290 C304 0.960 . S
H291 C304 0.960 . S
C292 H284 0.929 . S
C292 C293 1.377 . S
C292 C294 1.384 . S
C293 C292 1.377 . S
C293 C299 1.390 . S
C294 H285 0.930 . S
C294 C292 1.384 . S
C294 C295 1.372 . S
C295 C294 1.372 . S
C295 C296 1.400 . S
C295 C300 1.490 . S
C296 H286 0.930 . S
C296 C295 1.400 . S
C296 C299 1.386 . S
H297 C313 0.930 . S
H298 C314 0.931 . S
C299 H287 0.929 . S
C299 C293 1.390 . S
C299 C296 1.386 . S
C300 C295 1.490 . S
C300 C302 1.395 . S
C300 C303 1.403 . S
H301 C307 0.930 . S
C302 H288 0.930 . S
C302 C300 1.395 . S
C302 C305 1.403 . S
C303 C300 1.403 . S
C303 C304 1.524 . S
C303 C307 1.400 . S
C304 H289 0.960 . S
C304 H290 0.960 . S
C304 H291 0.960 . S
C304 C303 1.524 . S
C305 C302 1.403 . S
C305 C306 1.392 . S
C305 C309 1.495 . S
C306 C305 1.392 . S
C306 C307 1.385 . S
C306 C308 1.478 . S
C307 H301 0.930 . S
C307 C303 1.400 . S
C307 C306 1.385 . S
C308 C306 1.478 . S
C308 C310 1.381 . S
C308 C314 1.383 . S
C309 C305 1.495 . S
C309 H315 0.959 . S
C309 H316 0.961 . S
C309 H317 0.960 . S
C310 C308 1.381 . S
C310 C311 1.394 . S
C310 H318 0.930 . S
C311 C310 1.394 . S
C311 C312 1.383 . S
C311 H319 0.929 . S
C312 C311 1.383 . S
C312 C313 1.377 . S
C313 H297 0.930 . S
C313 C312 1.377 . S
C313 C314 1.379 . S
C314 H298 0.931 . S
C314 C308 1.383 . S
C314 C313 1.379 . S
H315 C309 0.959 . S
H316 C309 0.961 . S
H317 C309 0.960 . S
H318 C310 0.930 . S
H319 C311 0.929 . S
H320 C328 0.929 . S
H321 C330 0.930 . S
H322 C332 0.930 . S
H323 C335 0.929 . S
H324 C338 0.930 . S
H325 C340 0.960 . S
H326 C340 0.960 . S
H327 C340 0.960 . S
C328 H320 0.929 . S
C328 C329 1.377 . S
C328 C330 1.384 . S
C329 C328 1.377 . S
C329 C335 1.390 . S
C330 H321 0.930 . S
C330 C328 1.384 . S
C330 C331 1.372 . S
C331 C330 1.372 . S
C331 C332 1.400 . S
C331 C336 1.490 . S
C332 H322 0.930 . S
C332 C331 1.400 . S
C332 C335 1.386 . S
H333 C349 0.930 . S
H334 C350 0.931 . S
C335 H323 0.929 . S
C335 C329 1.390 . S
C335 C332 1.386 . S
C336 C331 1.490 . S
C336 C338 1.395 . S
C336 C339 1.403 . S
H337 C343 0.930 . S
C338 H324 0.930 . S
C338 C336 1.395 . S
C338 C341 1.403 . S
C339 C336 1.403 . S
C339 C340 1.524 . S
C339 C343 1.400 . S
C340 H325 0.960 . S
C340 H326 0.960 . S
C340 H327 0.960 . S
C340 C339 1.524 . S
C341 C338 1.403 . S
C341 C342 1.392 . S
C341 C345 1.495 . S
C342 C341 1.392 . S
C342 C343 1.385 . S
C342 C344 1.478 . S
C343 H337 0.930 . S
C343 C339 1.400 . S
C343 C342 1.385 . S
C344 C342 1.478 . S
C344 C346 1.381 . S
C344 C350 1.383 . S
C345 C341 1.495 . S
C345 H351 0.959 . S
C345 H352 0.961 . S
C345 H353 0.960 . S
C346 C344 1.381 . S
C346 C347 1.394 . S
C346 H354 0.930 . S
C347 C346 1.394 . S
C347 C348 1.383 . S
C347 H355 0.929 . S
C348 C347 1.383 . S
C348 C349 1.377 . S
C349 H333 0.930 . S
C349 C348 1.377 . S
C349 C350 1.379 . S
C350 H334 0.931 . S
C350 C344 1.383 . S
C350 C349 1.379 . S
H351 C345 0.959 . S
H352 C345 0.961 . S
H353 C345 0.960 . S
H354 C346 0.930 . S
H355 C347 0.929 . S
H356 C364 0.929 . S
H357 C366 0.930 . S
H358 C368 0.930 . S
H359 C371 0.929 . S
H360 C374 0.930 . S
H361 C376 0.960 . S
H362 C376 0.960 . S
H363 C376 0.960 . S
C364 H356 0.929 . S
C364 C365 1.377 . S
C364 C366 1.384 . S
C365 C364 1.377 . S
C365 C371 1.390 . S
C366 H357 0.930 . S
C366 C364 1.384 . S
C366 C367 1.372 . S
C367 C366 1.372 . S
C367 C368 1.400 . S
C367 C372 1.490 . S
C368 H358 0.930 . S
C368 C367 1.400 . S
C368 C371 1.386 . S
H369 C385 0.930 . S
H370 C386 0.931 . S
C371 H359 0.929 . S
C371 C365 1.390 . S
C371 C368 1.386 . S
C372 C367 1.490 . S
C372 C374 1.395 . S
C372 C375 1.403 . S
H373 C379 0.930 . S
C374 H360 0.930 . S
C374 C372 1.395 . S
C374 C377 1.403 1_556 S
C375 C372 1.403 . S
C375 C376 1.524 . S
C375 C379 1.400 1_556 S
C376 H361 0.960 . S
C376 H362 0.960 . S
C376 H363 0.960 . S
C376 C375 1.524 . S
C377 C374 1.403 1_554 S
C377 C378 1.392 . S
C377 C381 1.495 . S
C378 C377 1.392 . S
C378 C379 1.385 . S
C378 C380 1.478 . S
C379 H373 0.930 . S
C379 C375 1.400 1_554 S
C379 C378 1.385 . S
C380 C378 1.478 . S
C380 C382 1.381 . S
C380 C386 1.383 . S
C381 C377 1.495 . S
C381 H387 0.959 . S
C381 H388 0.961 . S
C381 H389 0.960 . S
C382 C380 1.381 . S
C382 C383 1.394 . S
C382 H390 0.930 . S
C383 C382 1.394 . S
C383 C384 1.383 . S
C383 H391 0.929 . S
C384 C383 1.383 . S
C384 C385 1.377 . S
C385 H369 0.930 . S
C385 C384 1.377 . S
C385 C386 1.379 . S
C386 H370 0.931 . S
C386 C380 1.383 . S
C386 C385 1.379 . S
H387 C381 0.959 . S
H388 C381 0.961 . S
H389 C381 0.960 . S
H390 C382 0.930 . S
H391 C383 0.929 . S
H392 C400 0.929 . S
H393 C402 0.930 . S
H394 C404 0.930 . S
H395 C407 0.929 . S
H396 C410 0.930 . S
H397 C412 0.960 . S
H398 C412 0.960 . S
H399 C412 0.960 . S
C400 H392 0.929 . S
C400 C401 1.377 . S
C400 C402 1.384 . S
C401 C400 1.377 . S
C401 C407 1.390 . S
C402 H393 0.930 . S
C402 C400 1.384 . S
C402 C403 1.372 . S
C403 C402 1.372 . S
C403 C404 1.400 . S
C403 C408 1.490 . S
C404 H394 0.930 . S
C404 C403 1.400 . S
C404 C407 1.386 . S
H405 C421 0.930 . S
H406 C422 0.931 . S
C407 H395 0.929 . S
C407 C401 1.390 . S
C407 C404 1.386 . S
C408 C403 1.490 . S
C408 C410 1.395 . S
C408 C411 1.403 . S
H409 C415 0.930 . S
C410 H396 0.930 . S
C410 C408 1.395 . S
C410 C413 1.403 . S
C411 C408 1.403 . S
C411 C412 1.524 . S
C411 C415 1.400 . S
C412 H397 0.960 . S
C412 H398 0.960 . S
C412 H399 0.960 . S
C412 C411 1.524 . S
C413 C410 1.403 . S
C413 C414 1.392 . S
C413 C417 1.495 . S
C414 C413 1.392 . S
C414 C415 1.385 . S
C414 C416 1.478 . S
C415 H409 0.930 . S
C415 C411 1.400 . S
C415 C414 1.385 . S
C416 C414 1.478 . S
C416 C418 1.381 . S
C416 C422 1.383 . S
C417 C413 1.495 . S
C417 H423 0.959 . S
C417 H424 0.961 . S
C417 H425 0.960 . S
C418 C416 1.381 . S
C418 C419 1.394 . S
C418 H426 0.930 . S
C419 C418 1.394 . S
C419 C420 1.383 . S
C419 H427 0.929 . S
C420 C419 1.383 . S
C420 C421 1.377 . S
C421 H405 0.930 . S
C421 C420 1.377 . S
C421 C422 1.379 . S
C422 H406 0.931 . S
C422 C416 1.383 . S
C422 C421 1.379 . S
H423 C417 0.959 . S
H424 C417 0.961 . S
H425 C417 0.960 . S
H426 C418 0.930 . S
H427 C419 0.929 . S
H428 C436 0.929 . S
H429 C438 0.930 . S
H430 C440 0.930 . S
H431 C443 0.929 . S
H432 C446 0.930 . S
H433 C448 0.960 . S
H434 C448 0.960 . S
H435 C448 0.960 . S
C436 H428 0.929 . S
C436 C437 1.377 . S
C436 C438 1.384 . S
C437 C436 1.377 . S
C437 C443 1.390 . S
C438 H429 0.930 . S
C438 C436 1.384 . S
C438 C439 1.372 . S
C439 C438 1.372 . S
C439 C440 1.400 . S
C439 C444 1.490 . S
C440 H430 0.930 . S
C440 C439 1.400 . S
C440 C443 1.386 . S
H441 C457 0.930 . S
H442 C458 0.931 . S
C443 H431 0.929 . S
C443 C437 1.390 . S
C443 C440 1.386 . S
C444 C439 1.490 . S
C444 C446 1.395 . S
C444 C447 1.403 . S
H445 C451 0.930 . S
C446 H432 0.930 . S
C446 C444 1.395 . S
C446 C449 1.403 . S
C447 C444 1.403 . S
C447 C448 1.524 . S
C447 C451 1.400 . S
C448 H433 0.960 . S
C448 H434 0.960 . S
C448 H435 0.960 . S
C448 C447 1.524 . S
C449 C446 1.403 . S
C449 C450 1.392 . S
C449 C453 1.495 . S
C450 C449 1.392 . S
C450 C451 1.385 . S
C450 C452 1.478 . S
C451 H445 0.930 . S
C451 C447 1.400 . S
C451 C450 1.385 . S
C452 C450 1.478 . S
C452 C454 1.381 . S
C452 C458 1.383 . S
C453 C449 1.495 . S
C453 H459 0.959 . S
C453 H460 0.961 . S
C453 H461 0.960 . S
C454 C452 1.381 . S
C454 C455 1.394 . S
C454 H462 0.930 . S
C455 C454 1.394 . S
C455 C456 1.383 . S
C455 H463 0.929 . S
C456 C455 1.383 . S
C456 C457 1.377 . S
C457 H441 0.930 . S
C457 C456 1.377 . S
C457 C458 1.379 . S
C458 H442 0.931 . S
C458 C452 1.383 . S
C458 C457 1.379 . S
H459 C453 0.959 . S
H460 C453 0.961 . S
H461 C453 0.960 . S
H462 C454 0.930 . S
H463 C455 0.929 . S
H464 C472 0.929 . S
H465 C474 0.930 . S
H466 C476 0.930 . S
H467 C479 0.929 . S
H468 C482 0.930 . S
H469 C484 0.960 1_545 S
H470 C484 0.960 . S
H471 C484 0.960 . S
C472 H464 0.929 . S
C472 C473 1.377 . S
C472 C474 1.384 . S
C473 C472 1.377 . S
C473 C479 1.390 . S
C474 H465 0.930 . S
C474 C472 1.384 . S
C474 C475 1.372 . S
C475 C474 1.372 . S
C475 C476 1.400 . S
C475 C480 1.490 . S
C476 H466 0.930 . S
C476 C475 1.400 . S
C476 C479 1.386 . S
H477 C493 0.930 . S
H478 C494 0.931 . S
C479 H467 0.929 . S
C479 C473 1.390 . S
C479 C476 1.386 . S
C480 C475 1.490 . S
C480 C482 1.395 . S
C480 C483 1.403 . S
H481 C487 0.930 . S
C482 H468 0.930 . S
C482 C480 1.395 . S
C482 C485 1.403 1_665 S
C483 C480 1.403 . S
C483 C484 1.524 . S
C483 C487 1.400 1_665 S
C484 H469 0.960 1_565 S
C484 H470 0.960 . S
C484 H471 0.960 . S
C484 C483 1.524 . S
C485 C482 1.403 1_445 S
C485 C486 1.392 . S
C485 C489 1.495 . S
C486 C485 1.392 . S
C486 C487 1.385 . S
C486 C488 1.478 . S
C487 H481 0.930 . S
C487 C483 1.400 1_445 S
C487 C486 1.385 . S
C488 C486 1.478 . S
C488 C490 1.381 . S
C488 C494 1.383 . S
C489 C485 1.495 . S
C489 H495 0.959 1_545 S
C489 H496 0.961 . S
C489 H497 0.960 . S
C490 C488 1.381 . S
C490 C491 1.394 . S
C490 H498 0.930 . S
C491 C490 1.394 . S
C491 C492 1.383 . S
C491 H499 0.929 . S
C492 C491 1.383 . S
C492 C493 1.377 . S
C493 H477 0.930 . S
C493 C492 1.377 . S
C493 C494 1.379 . S
C494 H478 0.931 . S
C494 C488 1.383 . S
C494 C493 1.379 . S
H495 C489 0.959 1_565 S
H496 C489 0.961 . S
H497 C489 0.960 . S
H498 C490 0.930 . S
H499 C491 0.929 . S
H500 C508 0.929 . S
H501 C510 0.930 . S
H502 C512 0.930 . S
H503 C515 0.929 . S
H504 C518 0.930 . S
H505 C520 0.960 . S
H506 C520 0.960 . S
H507 C520 0.960 . S
C508 H500 0.929 . S
C508 C509 1.377 . S
C508 C510 1.384 . S
C509 C508 1.377 . S
C509 C515 1.390 . S
C510 H501 0.930 . S
C510 C508 1.384 . S
C510 C511 1.372 . S
C511 C510 1.372 . S
C511 C512 1.400 . S
C511 C516 1.490 . S
C512 H502 0.930 . S
C512 C511 1.400 . S
C512 C515 1.386 . S
H513 C529 0.930 . S
H514 C530 0.931 . S
C515 H503 0.929 . S
C515 C509 1.390 . S
C515 C512 1.386 . S
C516 C511 1.490 . S
C516 C518 1.395 . S
C516 C519 1.403 1_455 S
H517 C523 0.930 . S
C518 H504 0.930 . S
C518 C516 1.395 . S
C518 C521 1.403 . S
C519 C516 1.403 1_655 S
C519 C520 1.524 . S
C519 C523 1.400 . S
C520 H505 0.960 . S
C520 H506 0.960 . S
C520 H507 0.960 . S
C520 C519 1.524 . S
C521 C518 1.403 . S
C521 C522 1.392 1_455 S
C521 C525 1.495 . S
C522 C521 1.392 1_655 S
C522 C523 1.385 . S
C522 C524 1.478 . S
C523 H517 0.930 . S
C523 C519 1.400 . S
C523 C522 1.385 . S
C524 C522 1.478 . S
C524 C526 1.381 . S
C524 C530 1.383 . S
C525 C521 1.495 . S
C525 H531 0.959 . S
C525 H532 0.961 . S
C525 H533 0.960 . S
C526 C524 1.381 . S
C526 C527 1.394 . S
C526 H534 0.930 . S
C527 C526 1.394 . S
C527 C528 1.383 . S
C527 H535 0.929 . S
C528 C527 1.383 . S
C528 C529 1.377 . S
C529 H513 0.930 . S
C529 C528 1.377 . S
C529 C530 1.379 . S
C530 H514 0.931 . S
C530 C524 1.383 . S
C530 C529 1.379 . S
H531 C525 0.959 . S
H532 C525 0.961 . S
H533 C525 0.960 . S
H534 C526 0.930 . S
H535 C527 0.929 . S
H536 C544 0.929 . S
H537 C546 0.930 . S
H538 C548 0.930 . S
H539 C551 0.929 . S
H540 C554 0.930 . S
H541 C556 0.960 . S
H542 C556 0.960 . S
H543 C556 0.960 . S
C544 H536 0.929 . S
C544 C545 1.377 . S
C544 C546 1.384 . S
C545 C544 1.377 . S
C545 C551 1.390 . S
C546 H537 0.930 . S
C546 C544 1.384 . S
C546 C547 1.372 . S
C547 C546 1.372 . S
C547 C548 1.400 . S
C547 C552 1.490 . S
C548 H538 0.930 . S
C548 C547 1.400 . S
C548 C551 1.386 . S
H549 C565 0.930 . S
H550 C566 0.931 . S
C551 H539 0.929 . S
C551 C545 1.390 . S
C551 C548 1.386 . S
C552 C547 1.490 . S
C552 C554 1.395 . S
C552 C555 1.403 . S
H553 C559 0.930 . S
C554 H540 0.930 . S
C554 C552 1.395 . S
C554 C557 1.403 . S
C555 C552 1.403 . S
C555 C556 1.524 . S
C555 C559 1.400 . S
C556 H541 0.960 . S
C556 H542 0.960 . S
C556 H543 0.960 . S
C556 C555 1.524 . S
C557 C554 1.403 . S
C557 C558 1.392 . S
C557 C561 1.495 . S
C558 C557 1.392 . S
C558 C559 1.385 . S
C558 C560 1.478 . S
C559 H553 0.930 . S
C559 C555 1.400 . S
C559 C558 1.385 . S
C560 C558 1.478 . S
C560 C562 1.381 . S
C560 C566 1.383 . S
C561 C557 1.495 . S
C561 H567 0.959 . S
C561 H568 0.961 . S
C561 H569 0.960 . S
C562 C560 1.381 . S
C562 C563 1.394 . S
C562 H570 0.930 . S
C563 C562 1.394 . S
C563 C564 1.383 . S
C563 H571 0.929 . S
C564 C563 1.383 . S
C564 C565 1.377 . S
C565 H549 0.930 . S
C565 C564 1.377 . S
C565 C566 1.379 . S
C566 H550 0.931 . S
C566 C560 1.383 . S
C566 C565 1.379 . S
H567 C561 0.959 . S
H568 C561 0.961 . S
H569 C561 0.960 . S
H570 C562 0.930 . S
H571 C563 0.929 . S
H572 C580 0.929 . S
H573 C582 0.930 . S
H574 C584 0.930 . S
H575 C587 0.929 . S
H576 C590 0.930 . S
H577 C592 0.960 . S
H578 C592 0.960 . S
H579 C592 0.960 . S
C580 H572 0.929 . S
C580 C581 1.377 . S
C580 C582 1.384 . S
C581 C580 1.377 . S
C581 C587 1.390 . S
C582 H573 0.930 . S
C582 C580 1.384 . S
C582 C583 1.372 . S
C583 C582 1.372 . S
C583 C584 1.400 . S
C583 C588 1.490 . S
C584 H574 0.930 . S
C584 C583 1.400 . S
C584 C587 1.386 . S
H585 C601 0.930 . S
H586 C602 0.931 . S
C587 H575 0.929 . S
C587 C581 1.390 . S
C587 C584 1.386 . S
C588 C583 1.490 . S
C588 C590 1.395 1_565 S
C588 C591 1.403 . S
H589 C595 0.934 . S
C590 H576 0.930 . S
C590 C588 1.395 1_545 S
C590 C593 1.403 . S
C591 C588 1.403 . S
C591 C592 1.524 . S
C591 C595 1.400 1_565 S
C592 H577 0.960 . S
C592 H578 0.960 . S
C592 H579 0.960 . S
C592 C591 1.524 . S
C593 C590 1.403 . S
C593 C594 1.392 . S
C593 C597 1.495 . S
C594 C593 1.392 . S
C594 C595 1.385 . S
C594 C596 1.478 . S
C595 H589 0.934 . S
C595 C591 1.400 1_545 S
C595 C594 1.385 . S
C596 C594 1.478 . S
C596 C598 1.381 . S
C596 C602 1.383 . S
C597 C593 1.495 . S
C597 H603 0.959 . S
C597 H604 0.961 . S
C597 H605 0.960 . S
C598 C596 1.381 . S
C598 C599 1.394 . S
C598 H606 0.930 . S
C599 C598 1.394 . S
C599 C600 1.383 . S
C599 H607 0.929 . S
C600 C599 1.383 . S
C600 C601 1.377 . S
C601 H585 0.930 . S
C601 C600 1.377 . S
C601 C602 1.379 . S
C602 H586 0.931 . S
C602 C596 1.383 . S
C602 C601 1.379 . S
H603 C597 0.959 . S
H604 C597 0.961 . S
H605 C597 0.960 . S
H606 C598 0.930 . S
H607 C599 0.929 . S
H608 C616 0.929 . S
H609 C618 0.930 . S
H610 C620 0.930 . S
H611 C623 0.929 . S
H612 C626 0.930 . S
H613 C628 0.960 . S
H614 C628 0.960 . S
H615 C628 0.960 . S
C616 H608 0.929 . S
C616 C617 1.377 . S
C616 C618 1.384 . S
C617 C616 1.377 . S
C617 C623 1.390 . S
C618 H609 0.930 . S
C618 C616 1.384 . S
C618 C619 1.372 . S
C619 C618 1.372 . S
C619 C620 1.400 . S
C619 C624 1.490 . S
C620 H610 0.930 . S
C620 C619 1.400 . S
C620 C623 1.386 . S
H621 C637 0.930 . S
H622 C638 0.931 . S
C623 H611 0.929 . S
C623 C617 1.390 . S
C623 C620 1.386 . S
C624 C619 1.490 . S
C624 C626 1.395 . S
C624 C627 1.403 . S
H625 C631 0.930 . S
C626 H612 0.930 . S
C626 C624 1.395 . S
C626 C629 1.403 1_655 S
C627 C624 1.403 . S
C627 C628 1.524 . S
C627 C631 1.400 1_655 S
C628 H613 0.960 . S
C628 H614 0.960 . S
C628 H615 0.960 . S
C628 C627 1.524 . S
C629 C626 1.403 1_455 S
C629 C630 1.392 . S
C629 C633 1.495 . S
C630 C629 1.392 . S
C630 C631 1.385 . S
C630 C632 1.478 . S
C631 H625 0.930 . S
C631 C627 1.400 1_455 S
C631 C630 1.385 . S
C632 C630 1.478 . S
C632 C634 1.381 . S
C632 C638 1.383 . S
C633 C629 1.495 . S
C633 H639 0.959 . S
C633 H640 0.961 . S
C633 H641 0.960 . S
C634 C632 1.381 . S
C634 C635 1.394 . S
C634 H642 0.930 . S
C635 C634 1.394 . S
C635 C636 1.383 . S
C635 H643 0.929 . S
C636 C635 1.383 . S
C636 C637 1.377 . S
C637 H621 0.930 . S
C637 C636 1.377 . S
C637 C638 1.379 . S
C638 H622 0.931 . S
C638 C632 1.383 . S
C638 C637 1.379 . S
H639 C633 0.959 . S
H640 C633 0.961 . S
H641 C633 0.960 . S
H642 C634 0.930 . S
H643 C635 0.929 . S
H644 C652 0.929 . S
H645 C654 0.930 . S
H646 C656 0.930 . S
H647 C659 0.929 . S
H648 C662 0.930 . S
H649 C664 0.960 . S
H650 C664 0.960 . S
H651 C664 0.960 . S
C652 H644 0.929 . S
C652 C653 1.377 . S
C652 C654 1.384 . S
C653 C652 1.377 . S
C653 C659 1.390 . S
C654 H645 0.930 . S
C654 C652 1.384 . S
C654 C655 1.372 . S
C655 C654 1.372 . S
C655 C656 1.400 . S
C655 C660 1.490 . S
C656 H646 0.930 . S
C656 C655 1.400 . S
C656 C659 1.386 . S
H657 C673 0.930 . S
H658 C674 0.931 . S
C659 H647 0.929 . S
C659 C653 1.390 . S
C659 C656 1.386 . S
C660 C655 1.490 . S
C660 C662 1.395 . S
C660 C663 1.403 . S
H661 C667 0.930 . S
C662 H648 0.930 . S
C662 C660 1.395 . S
C662 C665 1.403 . S
C663 C660 1.403 . S
C663 C664 1.524 . S
C663 C667 1.400 . S
C664 H649 0.960 . S
C664 H650 0.960 . S
C664 H651 0.960 . S
C664 C663 1.524 . S
C665 C662 1.403 . S
C665 C666 1.392 . S
C665 C669 1.495 . S
C666 C665 1.392 . S
C666 C667 1.385 . S
C666 C668 1.478 . S
C667 H661 0.930 . S
C667 C663 1.400 . S
C667 C666 1.385 . S
C668 C666 1.478 . S
C668 C670 1.381 . S
C668 C674 1.383 . S
C669 C665 1.495 . S
C669 H675 0.959 . S
C669 H676 0.961 . S
C669 H677 0.960 . S
C670 C668 1.381 . S
C670 C671 1.394 . S
C670 H678 0.930 . S
C671 C670 1.394 . S
C671 C672 1.383 . S
C671 H679 0.929 . S
C672 C671 1.383 . S
C672 C673 1.377 . S
C673 H657 0.930 . S
C673 C672 1.377 . S
C673 C674 1.379 . S
C674 H658 0.931 . S
C674 C668 1.383 . S
C674 C673 1.379 . S
H675 C669 0.959 . S
H676 C669 0.961 . S
H677 C669 0.960 . S
H678 C670 0.930 . S
H679 C671 0.929 . S
H680 C688 0.929 . S
H681 C690 0.930 . S
H682 C692 0.930 . S
H683 C695 0.929 . S
H684 C698 0.929 1_545 S
H685 C700 0.960 . S
H686 C700 0.960 . S
H687 C700 0.960 . S
C688 H680 0.929 . S
C688 C689 1.377 . S
C688 C690 1.384 . S
C689 C688 1.377 . S
C689 C695 1.390 . S
C690 H681 0.930 . S
C690 C688 1.384 . S
C690 C691 1.372 . S
C691 C690 1.372 . S
C691 C692 1.400 . S
C691 C696 1.490 . S
C692 H682 0.930 . S
C692 C691 1.400 . S
C692 C695 1.386 . S
H693 C709 0.930 . S
H694 C710 0.931 . S
C695 H683 0.929 . S
C695 C689 1.390 . S
C695 C692 1.386 . S
C696 C691 1.490 . S
C696 C698 1.374 1_545 S
C696 C699 1.403 . S
H697 C703 0.930 . S
C698 H684 0.929 1_565 S
C698 C696 1.374 1_565 S
C698 C701 1.425 . S
C699 C696 1.403 . S
C699 C700 1.524 . S
C699 C703 1.400 1_545 S
C700 H685 0.960 . S
C700 H686 0.960 . S
C700 H687 0.960 . S
C700 C699 1.524 . S
C701 C698 1.425 . S
C701 C702 1.392 . S
C701 C705 1.495 . S
C702 C701 1.392 . S
C702 C703 1.385 . S
C702 C704 1.478 . S
C703 H697 0.930 . S
C703 C699 1.400 1_565 S
C703 C702 1.385 . S
C704 C702 1.478 . S
C704 C706 1.381 . S
C704 C710 1.383 . S
C705 C701 1.495 . S
C705 H711 0.959 . S
C705 H712 0.961 . S
C705 H713 0.960 . S
C706 C704 1.381 . S
C706 C707 1.394 . S
C706 H714 0.930 . S
C707 C706 1.394 . S
C707 C708 1.383 . S
C707 H715 0.929 . S
C708 C707 1.383 . S
C708 C709 1.377 . S
C709 H693 0.930 . S
C709 C708 1.377 . S
C709 C710 1.379 . S
C710 H694 0.931 . S
C710 C704 1.383 . S
C710 C709 1.379 . S
H711 C705 0.959 . S
H712 C705 0.961 . S
H713 C705 0.960 . S
H714 C706 0.930 . S
H715 C707 0.929 . S
H716 C724 0.929 . S
H717 C726 0.930 . S
H718 C728 0.930 . S
H719 C731 0.929 . S
H720 C734 0.930 . S
H721 C736 0.960 . S
H722 C736 0.960 . S
H723 C736 0.960 . S
C724 H716 0.929 . S
C724 C725 1.377 . S
C724 C726 1.384 . S
C725 C724 1.377 . S
C725 C731 1.390 . S
C726 H717 0.930 . S
C726 C724 1.384 . S
C726 C727 1.372 . S
C727 C726 1.372 . S
C727 C728 1.400 . S
C727 C732 1.490 . S
C728 H718 0.930 . S
C728 C727 1.400 . S
C728 C731 1.386 . S
H729 C745 0.930 . S
H730 C746 0.931 . S
C731 H719 0.929 . S
C731 C725 1.390 . S
C731 C728 1.386 . S
C732 C727 1.490 . S
C732 C734 1.395 1_545 S
C732 C735 1.403 1_455 S
H733 C739 0.940 . S
C734 H720 0.930 . S
C734 C732 1.395 1_565 S
C734 C737 1.403 . S
C735 C732 1.403 1_655 S
C735 C736 1.524 . S
C735 C739 1.446 . S
C736 H721 0.960 . S
C736 H722 0.960 . S
C736 H723 0.960 . S
C736 C735 1.524 . S
C737 C734 1.403 . S
C737 C738 1.392 1_455 S
C737 C741 1.495 . S
C738 C737 1.392 1_655 S
C738 C739 1.332 1_565 S
C738 C740 1.478 . S
C739 H733 0.940 . S
C739 C735 1.446 . S
C739 C738 1.332 1_545 S
C740 C738 1.478 . S
C740 C742 1.381 . S
C740 C746 1.383 . S
C741 C737 1.495 . S
C741 H747 0.959 . S
C741 H748 0.961 . S
C741 H749 0.960 . S
C742 C740 1.381 . S
C742 C743 1.394 . S
C742 H750 0.930 . S
C743 C742 1.394 . S
C743 C744 1.383 . S
C743 H751 0.929 . S
C744 C743 1.383 . S
C744 C745 1.377 . S
C745 H729 0.930 . S
C745 C744 1.377 . S
C745 C746 1.379 . S
C746 H730 0.931 . S
C746 C740 1.383 . S
C746 C745 1.379 . S
H747 C741 0.959 . S
H748 C741 0.961 . S
H749 C741 0.960 . S
H750 C742 0.930 . S
H751 C743 0.929 . S
H752 C760 0.929 . S
H753 C762 0.930 . S
H754 C764 0.930 . S
H755 C767 0.929 . S
H756 C770 0.930 . S
H757 C772 0.960 . S
H758 C772 0.960 . S
H759 C772 0.960 . S
C760 H752 0.929 . S
C760 C761 1.377 . S
C760 C762 1.384 . S
C761 C760 1.377 . S
C761 C767 1.390 . S
C762 H753 0.930 . S
C762 C760 1.384 . S
C762 C763 1.372 . S
C763 C762 1.372 . S
C763 C764 1.400 . S
C763 C768 1.490 . S
C764 H754 0.930 . S
C764 C763 1.400 . S
C764 C767 1.386 . S
H765 C781 0.930 . S
H766 C782 0.931 . S
C767 H755 0.929 . S
C767 C761 1.390 . S
C767 C764 1.386 . S
C768 C763 1.490 . S
C768 C770 1.395 . S
C768 C771 1.403 . S
H769 C775 0.930 . S
C770 H756 0.930 . S
C770 C768 1.395 . S
C770 C773 1.403 . S
C771 C768 1.403 . S
C771 C772 1.524 . S
C771 C775 1.400 . S
C772 H757 0.960 . S
C772 H758 0.960 . S
C772 H759 0.960 . S
C772 C771 1.524 . S
C773 C770 1.403 . S
C773 C774 1.392 . S
C773 C777 1.495 . S
C774 C773 1.392 . S
C774 C775 1.385 . S
C774 C776 1.478 . S
C775 H769 0.930 . S
C775 C771 1.400 . S
C775 C774 1.385 . S
C776 C774 1.478 . S
C776 C778 1.381 . S
C776 C782 1.383 . S
C777 C773 1.495 . S
C777 H783 0.959 . S
C777 H784 0.961 . S
C777 H785 0.960 . S
C778 C776 1.381 . S
C778 C779 1.394 . S
C778 H786 0.930 . S
C779 C778 1.394 . S
C779 C780 1.383 . S
C779 H787 0.929 . S
C780 C779 1.383 . S
C780 C781 1.377 . S
C781 H765 0.930 . S
C781 C780 1.377 . S
C781 C782 1.379 . S
C782 H766 0.931 . S
C782 C776 1.383 . S
C782 C781 1.379 . S
H783 C777 0.959 . S
H784 C777 0.961 . S
H785 C777 0.960 . S
H786 C778 0.930 . S
H787 C779 0.929 . S
H788 C796 0.929 . S
H789 C798 0.930 . S
H790 C800 0.930 . S
H791 C803 0.929 . S
H792 C806 0.930 . S
H793 C808 0.960 . S
H794 C808 0.960 . S
H795 C808 0.960 . S
C796 H788 0.929 . S
C796 C797 1.377 . S
C796 C798 1.384 . S
C797 C796 1.377 . S
C797 C803 1.390 . S
C798 H789 0.930 . S
C798 C796 1.384 . S
C798 C799 1.372 . S
C799 C798 1.372 . S
C799 C800 1.400 . S
C799 C804 1.490 . S
C800 H790 0.930 . S
C800 C799 1.400 . S
C800 C803 1.386 . S
H801 C817 0.930 . S
H802 C818 0.931 . S
C803 H791 0.929 . S
C803 C797 1.390 . S
C803 C800 1.386 . S
C804 C799 1.490 . S
C804 C806 1.395 . S
C804 C807 1.403 . S
H805 C811 0.930 . S
C806 H792 0.930 . S
C806 C804 1.395 . S
C806 C809 1.403 . S
C807 C804 1.403 . S
C807 C808 1.524 . S
C807 C811 1.400 . S
C808 H793 0.960 . S
C808 H794 0.960 . S
C808 H795 0.960 . S
C808 C807 1.524 . S
C809 C806 1.403 . S
C809 C810 1.392 . S
C809 C813 1.495 . S
C810 C809 1.392 . S
C810 C811 1.385 . S
C810 C812 1.478 . S
C811 H805 0.930 . S
C811 C807 1.400 . S
C811 C810 1.385 . S
C812 C810 1.478 . S
C812 C814 1.381 . S
C812 C818 1.383 . S
C813 C809 1.495 . S
C813 H819 0.959 . S
C813 H820 0.961 . S
C813 H821 0.960 . S
C814 C812 1.381 . S
C814 C815 1.394 . S
C814 H822 0.930 . S
C815 C814 1.394 . S
C815 C816 1.383 . S
C815 H823 0.929 . S
C816 C815 1.383 . S
C816 C817 1.377 . S
C817 H801 0.930 . S
C817 C816 1.377 . S
C817 C818 1.379 . S
C818 H802 0.931 . S
C818 C812 1.383 . S
C818 C817 1.379 . S
H819 C813 0.959 . S
H820 C813 0.961 . S
H821 C813 0.960 . S
H822 C814 0.930 . S
H823 C815 0.929 . S
H824 C832 0.929 . S
H825 C834 0.930 . S
H826 C836 0.930 . S
H827 C839 0.929 . S
H828 C842 0.930 . S
H829 C844 0.960 . S
H830 C844 0.960 . S
H831 C844 0.960 . S
C832 H824 0.929 . S
C832 C833 1.377 . S
C832 C834 1.384 . S
C833 C832 1.377 . S
C833 C839 1.390 . S
C834 H825 0.930 . S
C834 C832 1.384 . S
C834 C835 1.372 . S
C835 C834 1.372 . S
C835 C836 1.400 . S
C835 C840 1.490 . S
C836 H826 0.930 . S
C836 C835 1.400 . S
C836 C839 1.386 . S
H837 C853 0.930 . S
H838 C854 0.931 . S
C839 H827 0.929 . S
C839 C833 1.390 . S
C839 C836 1.386 . S
C840 C835 1.490 . S
C840 C842 1.395 . S
C840 C843 1.403 . S
H841 C847 0.930 . S
C842 H828 0.930 . S
C842 C840 1.395 . S
C842 C845 1.403 . S
C843 C840 1.403 . S
C843 C844 1.524 . S
C843 C847 1.400 . S
C844 H829 0.960 . S
C844 H830 0.960 . S
C844 H831 0.960 . S
C844 C843 1.524 . S
C845 C842 1.403 . S
C845 C846 1.392 . S
C845 C849 1.495 . S
C846 C845 1.392 . S
C846 C847 1.385 . S
C846 C848 1.478 . S
C847 H841 0.930 . S
C847 C843 1.400 . S
C847 C846 1.385 . S
C848 C846 1.478 . S
C848 C850 1.381 . S
C848 C854 1.383 . S
C849 C845 1.495 . S
C849 H855 0.959 . S
C849 H856 0.961 . S
C849 H857 0.960 . S
C850 C848 1.381 . S
C850 C851 1.394 . S
C850 H858 0.930 . S
C851 C850 1.394 . S
C851 C852 1.383 . S
C851 H859 0.929 . S
C852 C851 1.383 . S
C852 C853 1.377 . S
C853 H837 0.930 . S
C853 C852 1.377 . S
C853 C854 1.379 . S
C854 H838 0.931 . S
C854 C848 1.383 . S
C854 C853 1.379 . S
H855 C849 0.959 . S
H856 C849 0.961 . S
H857 C849 0.960 . S
H858 C850 0.930 . S
H859 C851 0.929 . S
H860 C868 0.929 . S
H861 C870 0.930 . S
H862 C872 0.930 . S
H863 C875 0.929 . S
H864 C878 0.930 . S
H865 C880 0.960 . S
H866 C880 0.960 . S
H867 C880 0.960 . S
C868 H860 0.929 . S
C868 C869 1.377 . S
C868 C870 1.384 . S
C869 C868 1.377 . S
C869 C875 1.390 . S
C870 H861 0.930 . S
C870 C868 1.384 . S
C870 C871 1.372 . S
C871 C870 1.372 . S
C871 C872 1.400 . S
C871 C876 1.490 . S
C872 H862 0.930 . S
C872 C871 1.400 . S
C872 C875 1.386 . S
H873 C889 0.930 . S
H874 C890 0.931 . S
C875 H863 0.929 . S
C875 C869 1.390 . S
C875 C872 1.386 . S
C876 C871 1.490 . S
C876 C878 1.395 . S
C876 C879 1.403 . S
H877 C883 0.930 . S
C878 H864 0.930 . S
C878 C876 1.395 . S
C878 C881 1.403 . S
C879 C876 1.403 . S
C879 C880 1.524 . S
C879 C883 1.400 . S
C880 H865 0.960 . S
C880 H866 0.960 . S
C880 H867 0.960 . S
C880 C879 1.524 . S
C881 C878 1.403 . S
C881 C882 1.392 . S
C881 C885 1.495 . S
C882 C881 1.392 . S
C882 C883 1.385 . S
C882 C884 1.478 . S
C883 H877 0.930 . S
C883 C879 1.400 . S
C883 C882 1.385 . S
C884 C882 1.478 . S
C884 C886 1.381 . S
C884 C890 1.383 . S
C885 C881 1.495 . S
C885 H891 0.959 . S
C885 H892 0.961 . S
C885 H893 0.960 . S
C886 C884 1.381 . S
C886 C887 1.394 . S
C886 H894 0.930 . S
C887 C886 1.394 . S
C887 C888 1.383 . S
C887 H895 0.929 . S
C888 C887 1.383 . S
C888 C889 1.377 . S
C889 H873 0.930 . S
C889 C888 1.377 . S
C889 C890 1.379 . S
C890 H874 0.931 . S
C890 C884 1.383 . S
C890 C889 1.379 . S
H891 C885 0.959 . S
H892 C885 0.961 . S
H893 C885 0.960 . S
H894 C886 0.930 . S
H895 C887 0.929 . S
H896 C904 0.929 . S
H897 C906 0.930 . S
H898 C908 0.930 . S
H899 C911 0.929 . S
H900 C914 0.930 . S
H901 C916 0.960 . S
H902 C916 0.960 . S
H903 C916 0.960 . S
C904 H896 0.929 . S
C904 C905 1.377 . S
C904 C906 1.384 . S
C905 C904 1.377 . S
C905 C911 1.390 . S
C906 H897 0.930 . S
C906 C904 1.384 . S
C906 C907 1.372 . S
C907 C906 1.372 . S
C907 C908 1.400 . S
C907 C912 1.490 . S
C908 H898 0.930 . S
C908 C907 1.400 . S
C908 C911 1.386 . S
H909 C925 0.930 . S
H910 C926 0.931 . S
C911 H899 0.929 . S
C911 C905 1.390 . S
C911 C908 1.386 . S
C912 C907 1.490 . S
C912 C914 1.395 . S
C912 C915 1.403 . S
H913 C919 0.930 . S
C914 H900 0.930 . S
C914 C912 1.395 . S
C914 C917 1.403 . S
C915 C912 1.403 . S
C915 C916 1.524 . S
C915 C919 1.400 . S
C916 H901 0.960 . S
C916 H902 0.960 . S
C916 H903 0.960 . S
C916 C915 1.524 . S
C917 C914 1.403 . S
C917 C918 1.392 . S
C917 C921 1.495 . S
C918 C917 1.392 . S
C918 C919 1.385 . S
C918 C920 1.478 . S
C919 H913 0.930 . S
C919 C915 1.400 . S
C919 C918 1.385 . S
C920 C918 1.478 . S
C920 C922 1.381 . S
C920 C926 1.383 . S
C921 C917 1.495 . S
C921 H927 0.959 . S
C921 H928 0.961 . S
C921 H929 0.960 . S
C922 C920 1.381 . S
C922 C923 1.394 . S
C922 H930 0.930 . S
C923 C922 1.394 . S
C923 C924 1.383 . S
C923 H931 0.929 . S
C924 C923 1.383 . S
C924 C925 1.377 . S
C925 H909 0.930 . S
C925 C924 1.377 . S
C925 C926 1.379 . S
C926 H910 0.931 . S
C926 C920 1.383 . S
C926 C925 1.379 . S
H927 C921 0.959 . S
H928 C921 0.961 . S
H929 C921 0.960 . S
H930 C922 0.930 . S
H931 C923 0.929 . S
H932 C940 0.929 . S
H933 C942 0.930 . S
H934 C944 0.930 . S
H935 C947 0.929 . S
H936 C950 0.930 . S
H937 C952 0.960 . S
H938 C952 0.960 . S
H939 C952 0.960 . S
C940 H932 0.929 . S
C940 C941 1.377 . S
C940 C942 1.384 . S
C941 C940 1.377 . S
C941 C947 1.390 . S
C942 H933 0.930 . S
C942 C940 1.384 . S
C942 C943 1.372 . S
C943 C942 1.372 . S
C943 C944 1.400 . S
C943 C948 1.490 . S
C944 H934 0.930 . S
C944 C943 1.400 . S
C944 C947 1.386 . S
H945 C961 0.930 . S
H946 C962 0.931 . S
C947 H935 0.929 . S
C947 C941 1.390 . S
C947 C944 1.386 . S
C948 C943 1.490 . S
C948 C950 1.395 . S
C948 C951 1.403 . S
H949 C955 0.930 . S
C950 H936 0.930 . S
C950 C948 1.395 . S
C950 C953 1.403 . S
C951 C948 1.403 . S
C951 C952 1.524 . S
C951 C955 1.400 . S
C952 H937 0.960 . S
C952 H938 0.960 . S
C952 H939 0.960 . S
C952 C951 1.524 . S
C953 C950 1.403 . S
C953 C954 1.392 . S
C953 C957 1.495 . S
C954 C953 1.392 . S
C954 C955 1.385 . S
C954 C956 1.478 . S
C955 H949 0.930 . S
C955 C951 1.400 . S
C955 C954 1.385 . S
C956 C954 1.478 . S
C956 C958 1.381 . S
C956 C962 1.383 . S
C957 C953 1.495 . S
C957 H963 0.959 . S
C957 H964 0.961 . S
C957 H965 0.960 . S
C958 C956 1.381 . S
C958 C959 1.394 . S
C958 H966 0.930 . S
C959 C958 1.394 . S
C959 C960 1.383 . S
C959 H967 0.929 . S
C960 C959 1.383 . S
C960 C961 1.377 . S
C961 H945 0.930 . S
C961 C960 1.377 . S
C961 C962 1.379 . S
C962 H946 0.931 . S
C962 C956 1.383 . S
C962 C961 1.379 . S
H963 C957 0.959 . S
H964 C957 0.961 . S
H965 C957 0.960 . S
H966 C958 0.930 . S
H967 C959 0.929 . S
H968 C976 0.929 . S
H969 C978 0.930 . S
H970 C980 0.930 . S
H971 C983 0.929 . S
H972 C986 0.930 . S
H973 C988 0.960 . S
H974 C988 0.960 . S
H975 C988 0.960 . S
C976 H968 0.929 . S
C976 C977 1.377 . S
C976 C978 1.384 . S
C977 C976 1.377 . S
C977 C983 1.390 . S
C978 H969 0.930 . S
C978 C976 1.384 . S
C978 C979 1.372 . S
C979 C978 1.372 . S
C979 C980 1.400 . S
C979 C984 1.490 . S
C980 H970 0.930 . S
C980 C979 1.400 . S
C980 C983 1.386 . S
H981 C997 0.930 . S
H982 C998 0.931 . S
C983 H971 0.929 . S
C983 C977 1.390 . S
C983 C980 1.386 . S
C984 C979 1.490 . S
C984 C986 1.395 . S
C984 C987 1.403 . S
H985 C991 0.930 . S
C986 H972 0.930 . S
C986 C984 1.395 . S
C986 C989 1.403 . S
C987 C984 1.403 . S
C987 C988 1.524 . S
C987 C991 1.400 . S
C988 H973 0.960 . S
C988 H974 0.960 . S
C988 H975 0.960 . S
C988 C987 1.524 . S
C989 C986 1.403 . S
C989 C990 1.392 . S
C989 C993 1.495 . S
C990 C989 1.392 . S
C990 C991 1.385 . S
C990 C992 1.478 . S
C991 H985 0.930 . S
C991 C987 1.400 . S
C991 C990 1.385 . S
C992 C990 1.478 . S
C992 C994 1.381 . S
C992 C998 1.383 . S
C993 C989 1.495 . S
C993 H999 0.959 . S
C993 H1000 0.961 . S
C993 H1001 0.960 . S
C994 C992 1.381 . S
C994 C995 1.394 . S
C994 H1002 0.930 . S
C995 C994 1.394 . S
C995 C996 1.383 . S
C995 H1003 0.929 . S
C996 C995 1.383 . S
C996 C997 1.377 . S
C997 H981 0.930 . S
C997 C996 1.377 . S
C997 C998 1.379 . S
C998 H982 0.931 . S
C998 C992 1.383 . S
C998 C997 1.379 . S
H999 C993 0.959 . S
H1000 C993 0.961 . S
H1001 C993 0.960 . S
H1002 C994 0.930 . S
H1003 C995 0.929 . S
H1004 C1012 0.929 . S
H1005 C1014 0.930 . S
H1006 C1016 0.930 . S
H1007 C1019 0.929 . S
H1008 C1022 0.930 . S
H1009 C1024 0.960 . S
H1010 C1024 0.960 . S
H1011 C1024 0.960 . S
C1012 H1004 0.929 . S
C1012 C1013 1.377 . S
C1012 C1014 1.384 . S
C1013 C1012 1.377 . S
C1013 C1019 1.390 . S
C1014 H1005 0.930 . S
C1014 C1012 1.384 . S
C1014 C1015 1.372 . S
C1015 C1014 1.372 . S
C1015 C1016 1.400 . S
C1015 C1020 1.490 . S
C1016 H1006 0.930 . S
C1016 C1015 1.400 . S
C1016 C1019 1.386 . S
H1017 C1033 0.930 . S
H1018 C1034 0.931 . S
C1019 H1007 0.929 . S
C1019 C1013 1.390 . S
C1019 C1016 1.386 . S
C1020 C1015 1.490 . S
C1020 C1022 1.395 . S
C1020 C1023 1.403 . S
H1021 C1027 0.930 . S
C1022 H1008 0.930 . S
C1022 C1020 1.395 . S
C1022 C1025 1.403 . S
C1023 C1020 1.403 . S
C1023 C1024 1.524 . S
C1023 C1027 1.400 . S
C1024 H1009 0.960 . S
C1024 H1010 0.960 . S
C1024 H1011 0.960 . S
C1024 C1023 1.524 . S
C1025 C1022 1.403 . S
C1025 C1026 1.392 . S
C1025 C1029 1.495 . S
C1026 C1025 1.392 . S
C1026 C1027 1.385 . S
C1026 C1028 1.478 . S
C1027 H1021 0.930 . S
C1027 C1023 1.400 . S
C1027 C1026 1.385 . S
C1028 C1026 1.478 . S
C1028 C1030 1.381 . S
C1028 C1034 1.383 . S
C1029 C1025 1.495 . S
C1029 H1035 0.959 . S
C1029 H1036 0.961 . S
C1029 H1037 0.960 . S
C1030 C1028 1.381 . S
C1030 C1031 1.394 . S
C1030 H1038 0.930 . S
C1031 C1030 1.394 . S
C1031 C1032 1.383 . S
C1031 H1039 0.929 . S
C1032 C1031 1.383 . S
C1032 C1033 1.377 . S
C1033 H1017 0.930 . S
C1033 C1032 1.377 . S
C1033 C1034 1.379 . S
C1034 H1018 0.931 . S
C1034 C1028 1.383 . S
C1034 C1033 1.379 . S
H1035 C1029 0.959 . S
H1036 C1029 0.961 . S
H1037 C1029 0.960 . S
H1038 C1030 0.930 . S
H1039 C1031 0.929 . S
C185 C150 1.532 . S
C204 C7 1.556 . S
C221 C18 1.529 . S
C240 C161 1.546 . S
C257 C29 1.538 . S
C276 C172 1.545 . S
C293 C40 1.534 . S
C312 C139 1.517 . S
C329 C51 1.524 . S
C348 C128 1.512 . S
C365 C95 1.524 . S
C384 C62 1.507 . S
C401 C106 1.533 . S
C420 C73 1.511 . S
C437 C117 1.527 . S
C456 C84 1.495 . S
C473 C115 1.344 . S
C492 C5 1.368 . S
C509 C126 1.330 . S
C528 C16 1.293 . S
C545 C93 1.339 . S
C564 C27 1.346 . S
C581 C38 1.337 . S
C600 C104 1.338 . S
C617 C159 1.335 . S
C636 C49 1.291 . S
C653 C170 1.337 . S
C672 C60 1.335 . S
C689 C71 1.343 . S
C708 C137 1.326 . S
C725 C148 1.333 . S
C744 C82 1.313 . S
C761 C74 1.646 . S
C780 C8 1.637 . S
C797 C19 1.652 . S
C816 C85 1.665 . S
C833 C30 1.646 . S
C852 C52 1.635 . S
C869 C41 1.648 . S
C888 C63 1.647 . S
C905 C162 1.654 . S
C924 C96 1.660 . S
C941 C173 1.646 . S
C960 C107 1.626 . S
C977 C118 1.647 . S
C996 C140 1.627 . S
C1013 C129 1.653 . S
C1032 C151 1.660 . S
