# Generated by pormake.
# Topology irl, (4)-cn, num edge types: 1
# Building blocks:
#     Node 0, Type 0, BuildingBlock: KUFVIS_clean_sbu_0, # of connection points: 4
#     Node 1, Type 0, BuildingBlock: KUFVIS_clean_sbu_0, # of connection points: 4
#     Node 2, Type 0, BuildingBlock: KUFVIS_clean_sbu_0, # of connection points: 4
#     Node 3, Type 0, BuildingBlock: KUFVIS_clean_sbu_0, # of connection points: 4
#     Node 4, Type 0, BuildingBlock: KUFVIS_clean_sbu_0, # of connection points: 4
#     Node 5, Type 0, BuildingBlock: KUFVIS_clean_sbu_0, # of connection points: 4
#     Node 6, Type 0, BuildingBlock: KUFVIS_clean_sbu_0, # of connection points: 4
#     Node 7, Type 0, BuildingBlock: KUFVIS_clean_sbu_0, # of connection points: 4
#     Edge 8, Type (0, 0), None
#     Edge 9, Type (0, 0), None
#     Edge 10, Type (0, 0), None
#     Edge 11, Type (0, 0), None
#     Edge 12, Type (0, 0), None
#     Edge 13, Type (0, 0), None
#     Edge 14, Type (0, 0), None
#     Edge 15, Type (0, 0), None
#     Edge 16, Type (0, 0), None
#     Edge 17, Type (0, 0), None
#     Edge 18, Type (0, 0), None
#     Edge 19, Type (0, 0), None
#     Edge 20, Type (0, 0), None
#     Edge 21, Type (0, 0), None
#     Edge 22, Type (0, 0), None
#     Edge 23, Type (0, 0), None
# Relax obj value: 0.094
# Max RMSD: 0.144
# Mean RMSD: 0.144
data_MOF--net-irl--node1-KUFVIS_clean_sbu_0--edge1-none
_symmetry_space_group_name_H-M    P1
_symmetry_Int_Tables_number       1
_symmetry_cell_setting            triclinic
loop_
_symmetry_equiv_pos_as_xyz
'x, y, z'
_cell_length_a     14.55287
_cell_length_b     23.243345
_cell_length_c     10.97517
_cell_angle_alpha  89.999309
_cell_angle_beta   89.999807
_cell_angle_gamma 89.999831
loop_
_atom_site_label
_atom_site_type_symbol
_atom_site_fract_x
_atom_site_fract_y
_atom_site_fract_z
_atom_type_partial_charge
Mn0 Mn 0.1315 0.08081 0.06471 0.0
Mn1 Mn 0.04021 0.21033 0.07451 0.0
C2 C 0.07872 0.11566 0.2517 0.0
C3 C 0.05972 -0.01323 1.0278 0.0
C4 C 0.24495 0.18879 1.03031 0.0
O5 O 0.11412 0.1048 0.88917 0.0
O6 O 0.99791 0.16423 0.93096 0.0
C7 C 0.8744 0.27847 0.90822 0.0
N8 N 0.92749 0.28266 1.00906 0.0
C9 C 0.84708 0.36957 0.0761 0.0
C10 C 0.79511 0.36554 0.96815 0.0
C11 C 0.81054 0.32149 0.88361 0.0
C12 C 0.92391 0.33425 0.08967 0.0
H13 H 0.88161 0.2422 0.84728 0.0
C14 C 0.04883 0.13703 0.85491 0.0
O15 O 0.14742 -0.00459 1.01533 0.0
O16 O 1.0148 0.03177 0.05757 0.0
N17 N 0.09881 0.27043 0.24798 0.0
C18 C 0.10764 0.24513 0.38505 0.0
C19 C 1.00079 0.28984 0.51671 0.0
C20 C 0.93145 0.34186 0.46598 0.0
C21 C 0.92559 0.36436 0.32236 0.0
C22 C 0.99227 0.33954 0.20733 0.0
H23 H 0.15414 0.20977 0.40622 0.0
O24 O 0.12684 0.06894 0.24834 0.0
O25 O 0.0844 0.14396 0.15192 0.0
O26 O 0.24846 0.13491 0.06411 0.0
O27 O 0.1699 0.21181 0.99391 0.0
C28 C 0.84483 0.39298 0.29342 0.0
C29 C 0.81156 0.39945 0.1752 0.0
H30 H 0.73786 0.39438 0.95239 0.0
H31 H 0.76903 0.31886 0.80225 0.0
H32 H 0.99679 0.28438 0.61574 0.0
H33 H 0.88446 0.36046 0.5315 0.0
H34 H 0.79978 0.40531 0.36694 0.0
H35 H 0.74615 0.42122 0.16487 0.0
Mn36 Mn 0.94264 0.83446 0.06473 0.0
Mn37 Mn 1.03393 0.70494 0.07453 0.0
C38 C 0.99542 0.79962 0.25171 0.0
C39 C 1.01439 0.92851 1.02786 0.0
C40 C 0.82919 0.72648 1.03032 0.0
O41 O 0.96002 0.81047 0.88919 0.0
O42 O 0.07624 0.75104 0.93098 0.0
C43 C 0.19975 0.63681 0.90825 0.0
N44 N 0.14666 0.63262 1.00909 0.0
C45 C 0.22707 0.54571 0.07614 0.0
C46 C 0.27905 0.54974 0.96819 0.0
C47 C 0.26361 0.59378 0.88365 0.0
C48 C 0.15024 0.58102 0.08971 0.0
H49 H 0.19254 0.67308 0.84731 0.0
C50 C 1.02532 0.77825 0.85493 0.0
O51 O 0.9267 0.91986 1.01534 0.0
O52 O 0.05933 0.88351 0.0576 0.0
N53 N 0.97534 0.64484 0.24801 0.0
C54 C 0.96651 0.67015 0.38508 0.0
C55 C 0.07336 0.62544 0.51674 0.0
C56 C 0.1427 0.57342 0.46601 0.0
C57 C 0.14856 0.55092 0.3224 0.0
C58 C 0.08188 0.57574 0.20737 0.0
H59 H 0.92001 0.70551 0.40624 0.0
O60 O 0.94729 0.84633 0.24836 0.0
O61 O 0.98974 0.77131 0.15193 0.0
O62 O 0.82568 0.78036 0.06411 0.0
O63 O 0.90425 0.70346 0.99393 0.0
C64 C 0.22932 0.5223 0.29346 0.0
C65 C 0.2626 0.51583 0.17524 0.0
H66 H 0.3363 0.5209 0.95244 0.0
H67 H 0.30512 0.59642 0.80229 0.0
H68 H 0.07736 0.63091 0.61577 0.0
H69 H 0.18969 0.55483 0.53154 0.0
H70 H 0.27437 0.50997 0.36698 0.0
H71 H 0.328 0.49407 0.16492 0.0
Mn72 Mn 0.13151 0.83447 0.51604 0.0
Mn73 Mn 0.04023 0.70494 0.50631 0.0
C74 C 0.07865 0.79966 0.3292 0.0
C75 C 0.05972 0.92851 0.55299 0.0
C76 C 0.24497 0.72649 0.55041 0.0
O77 O 0.11418 0.81047 0.6916 0.0
O78 O 0.99795 0.75104 0.64986 0.0
C79 C 0.87441 0.63681 0.67261 0.0
N80 N 0.9275 0.63262 0.57176 0.0
C81 C 0.84709 0.54571 0.50473 0.0
C82 C 0.79511 0.54974 0.61268 0.0
C83 C 0.81055 0.59379 0.69722 0.0
C84 C 0.92392 0.58102 0.49115 0.0
H85 H 0.88162 0.67308 0.73355 0.0
C86 C 0.04891 0.77823 0.72589 0.0
O87 O 0.14743 0.91987 0.56543 0.0
O88 O 1.0148 0.8835 0.52324 0.0
N89 N 0.09882 0.64484 0.33284 0.0
C90 C 0.10765 0.67015 0.19577 0.0
C91 C 1.0008 0.62544 0.06411 0.0
C92 C 0.93146 0.57342 0.11485 0.0
C93 C 0.9256 0.55092 0.25847 0.0
C94 C 0.99227 0.57574 0.3735 0.0
H95 H 0.15414 0.70551 0.17461 0.0
O96 O 0.12679 0.84637 0.3324 0.0
O97 O 0.08442 0.7713 0.4289 0.0
O98 O 0.24847 0.78037 0.5166 0.0
O99 O 0.16993 0.70347 0.58685 0.0
C100 C 0.84483 0.5223 0.2874 0.0
C101 C 0.81156 0.51583 0.40563 0.0
H102 H 0.73786 0.5209 0.62844 0.0
H103 H 0.76904 0.59642 0.77858 0.0
H104 H 0.99681 0.6309 0.96508 0.0
H105 H 0.88447 0.55482 0.04932 0.0
H106 H 0.79978 0.50997 0.21389 0.0
H107 H 0.74616 0.49407 0.41596 0.0
Mn108 Mn 0.94263 0.08081 0.51602 0.0
Mn109 Mn 1.03392 0.21034 0.50629 0.0
C110 C 0.99548 0.11562 0.32918 0.0
C111 C 1.01439 -0.01323 0.55294 0.0
C112 C 0.82917 0.1888 0.55041 0.0
O113 O 0.95997 0.10481 0.69158 0.0
O114 O 0.0762 0.16423 0.64984 0.0
C115 C 0.19974 0.27846 0.67257 0.0
N116 N 0.14664 0.28266 0.57173 0.0
C117 C 0.22707 0.36956 0.50468 0.0
C118 C 0.27904 0.36553 0.61263 0.0
C119 C 0.26361 0.32149 0.69718 0.0
C120 C 0.15023 0.33425 0.49112 0.0
H121 H 0.19253 0.2422 0.73351 0.0
C122 C 1.02524 0.13704 0.72587 0.0
O123 O 0.92669 -0.00459 0.56543 0.0
O124 O 0.05934 0.03177 0.52322 0.0
N125 N 0.97533 0.27044 0.33281 0.0
C126 C 0.9665 0.24513 0.19575 0.0
C127 C 0.07335 0.28984 0.06408 0.0
C128 C 0.14269 0.34185 0.11481 0.0
C129 C 0.14855 0.36436 0.25843 0.0
C130 C 0.08188 0.33954 0.37346 0.0
H131 H 0.92 0.20977 0.17459 0.0
O132 O 0.94734 0.06891 0.33239 0.0
O133 O 0.98973 0.14398 0.42888 0.0
O134 O 0.82568 0.13491 0.51659 0.0
O135 O 0.90421 0.21181 0.58683 0.0
C136 C 0.22932 0.39297 0.28736 0.0
C137 C 0.26259 0.39944 0.40558 0.0
H138 H 0.33629 0.39437 0.62839 0.0
H139 H 0.30512 0.31885 0.77854 0.0
H140 H 0.07734 0.28438 0.96505 0.0
H141 H 0.18968 0.36045 0.04928 0.0
H142 H 0.27437 0.4053 0.21384 0.0
H143 H 0.328 0.4212 0.4159 0.0
Mn144 Mn 0.63152 0.58081 0.06471 0.0
Mn145 Mn 0.54024 0.71033 0.07451 0.0
C146 C 0.57874 0.61566 0.25169 0.0
C147 C 0.55972 0.48677 1.0278 0.0
C148 C 0.74497 0.68879 1.03031 0.0
O149 O 0.61414 0.6048 0.88917 0.0
O150 O 0.49792 0.66423 0.93096 0.0
C151 C 0.37443 0.77847 0.90822 0.0
N152 N 0.42752 0.78266 1.00906 0.0
C153 C 0.34712 0.86957 0.0761 0.0
C154 C 0.29514 0.86555 0.96815 0.0
C155 C 0.31057 0.8215 0.88361 0.0
C156 C 0.42395 0.83426 0.08967 0.0
H157 H 0.38163 0.7422 0.84728 0.0
C158 C 0.54884 0.63703 0.85491 0.0
O159 O 0.64743 0.4954 1.01533 0.0
O160 O 0.51481 0.53177 0.05757 0.0
N161 N 0.59884 0.77043 0.24798 0.0
C162 C 0.60767 0.74512 0.38505 0.0
C163 C 0.50082 0.78984 0.51671 0.0
C164 C 0.43149 0.84186 0.46597 0.0
C165 C 0.42563 0.86437 0.32235 0.0
C166 C 0.4923 0.83954 0.20732 0.0
H167 H 0.65416 0.70976 0.40622 0.0
O168 O 0.62686 0.56894 0.24834 0.0
O169 O 0.58442 0.64396 0.15191 0.0
O170 O 0.74848 0.63491 0.0641 0.0
O171 O 0.66992 0.7118 0.99391 0.0
C172 C 0.34487 0.89299 0.29342 0.0
C173 C 0.3116 0.89946 0.17519 0.0
H174 H 0.2379 0.89439 0.95239 0.0
H175 H 0.26906 0.81886 0.80225 0.0
H176 H 0.49682 0.78438 0.61574 0.0
H177 H 0.3845 0.86046 0.53149 0.0
H178 H 0.29982 0.90532 0.36693 0.0
H179 H 0.24619 0.92122 0.16487 0.0
Mn180 Mn 0.44262 0.33446 0.06473 0.0
Mn181 Mn 0.53391 0.20494 0.07453 0.0
C182 C 0.4954 0.29962 0.25171 0.0
C183 C 0.51439 0.42851 1.02786 0.0
C184 C 0.32917 0.22648 1.03032 0.0
O185 O 0.46001 0.31047 0.88918 0.0
O186 O 0.57622 0.25104 0.93098 0.0
C187 C 0.69972 0.13681 0.90825 0.0
N188 N 0.64662 0.13261 1.00909 0.0
C189 C 0.72703 0.04571 0.07614 0.0
C190 C 0.77901 0.04973 0.96819 0.0
C191 C 0.76358 0.09378 0.88365 0.0
C192 C 0.6502 0.08102 0.0897 0.0
H193 H 0.69252 0.17307 0.84731 0.0
C194 C 0.5253 0.27825 0.85493 0.0
O195 O 0.42669 0.41987 1.01533 0.0
O196 O 0.55933 0.3835 0.05759 0.0
N197 N 0.47531 0.14485 0.24801 0.0
C198 C 0.46648 0.17015 0.38508 0.0
C199 C 0.57333 0.12544 0.51674 0.0
C200 C 0.64266 0.07342 0.46601 0.0
C201 C 0.64852 0.05091 0.32239 0.0
C202 C 0.58185 0.07574 0.20736 0.0
H203 H 0.41999 0.20551 0.40624 0.0
O204 O 0.44727 0.34633 0.24835 0.0
O205 O 0.48972 0.27131 0.15193 0.0
O206 O 0.32566 0.28037 0.06411 0.0
O207 O 0.40422 0.20347 0.99393 0.0
C208 C 0.72928 0.02229 0.29346 0.0
C209 C 0.76256 0.01583 0.17524 0.0
H210 H 0.83626 0.02089 0.95244 0.0
H211 H 0.8051 0.09642 0.80229 0.0
H212 H 0.57733 0.1309 0.61577 0.0
H213 H 0.68965 0.05482 0.53153 0.0
H214 H 0.77433 0.00996 0.36698 0.0
H215 H 0.82797 -0.00594 0.16492 0.0
Mn216 Mn 0.63149 0.33447 0.51603 0.0
Mn217 Mn 0.5402 0.20494 0.50631 0.0
C218 C 0.57863 0.29966 0.3292 0.0
C219 C 0.55972 0.42851 0.55299 0.0
C220 C 0.74495 0.22648 0.55041 0.0
O221 O 0.61416 0.31047 0.69159 0.0
O222 O 0.49793 0.25104 0.64986 0.0
C223 C 0.37438 0.13682 0.67261 0.0
N224 N 0.42747 0.13262 0.57176 0.0
C225 C 0.34705 0.04572 0.50472 0.0
C226 C 0.29508 0.04975 0.61268 0.0
C227 C 0.31052 0.09379 0.69722 0.0
C228 C 0.42389 0.08103 0.49115 0.0
H229 H 0.38159 0.17308 0.73355 0.0
C230 C 0.54889 0.27823 0.72589 0.0
O231 O 0.64742 0.41987 0.56543 0.0
O232 O 0.51479 0.3835 0.52324 0.0
N233 N 0.59879 0.14484 0.33284 0.0
C234 C 0.60762 0.17015 0.19577 0.0
C235 C 0.50077 0.12544 0.06411 0.0
C236 C 0.43142 0.07343 0.11485 0.0
C237 C 0.42556 0.05092 0.25846 0.0
C238 C 0.49223 0.07574 0.37349 0.0
H239 H 0.65412 0.2055 0.17461 0.0
O240 O 0.62677 0.34637 0.3324 0.0
O241 O 0.58439 0.2713 0.42889 0.0
O242 O 0.74845 0.28036 0.51659 0.0
O243 O 0.66991 0.20346 0.58685 0.0
C244 C 0.34479 0.02231 0.2874 0.0
C245 C 0.31152 0.01584 0.40563 0.0
H246 H 0.23783 0.02091 0.62844 0.0
H247 H 0.26901 0.09643 0.77858 0.0
H248 H 0.49678 0.1309 0.96508 0.0
H249 H 0.38443 0.05483 0.04932 0.0
H250 H 0.29974 0.00998 0.21389 0.0
H251 H 0.24612 -0.00593 0.41595 0.0
Mn252 Mn 0.44265 0.58082 0.51602 0.0
Mn253 Mn 0.53394 0.71034 0.50629 0.0
C254 C 0.4955 0.61562 0.32918 0.0
C255 C 0.5144 0.48677 0.55293 0.0
C256 C 0.32919 0.6888 0.5504 0.0
O257 O 0.45998 0.60481 0.69158 0.0
O258 O 0.57622 0.66423 0.64984 0.0
C259 C 0.69977 0.77846 0.67257 0.0
N260 N 0.64668 0.78266 0.57173 0.0
C261 C 0.7271 0.86956 0.50468 0.0
C262 C 0.77908 0.86553 0.61263 0.0
C263 C 0.76364 0.82148 0.69718 0.0
C264 C 0.65026 0.83425 0.49111 0.0
H265 H 0.69255 0.74219 0.73351 0.0
C266 C 0.52526 0.63704 0.72587 0.0
O267 O 0.42669 0.49542 0.56542 0.0
O268 O 0.55935 0.53177 0.52322 0.0
N269 N 0.47536 0.77044 0.33281 0.0
C270 C 0.46652 0.74513 0.19575 0.0
C271 C 0.57338 0.78983 0.06408 0.0
C272 C 0.64273 0.84185 0.11481 0.0
C273 C 0.64859 0.86435 0.25842 0.0
C274 C 0.58192 0.83953 0.37345 0.0
H275 H 0.42002 0.70977 0.17459 0.0
O276 O 0.44736 0.56892 0.33238 0.0
O277 O 0.48975 0.64398 0.42888 0.0
O278 O 0.32569 0.63492 0.51659 0.0
O279 O 0.40424 0.71182 0.58683 0.0
C280 C 0.72936 0.89297 0.28735 0.0
C281 C 0.76263 0.89943 0.40558 0.0
H282 H 0.83633 0.89437 0.62839 0.0
H283 H 0.80515 0.81885 0.77854 0.0
H284 H 0.57737 0.78437 0.96505 0.0
H285 H 0.68972 0.86044 0.04928 0.0
H286 H 0.77441 0.90529 0.21384 0.0
H287 H 0.82804 0.9212 0.4159 0.0
loop_
_geom_bond_atom_site_label_1
_geom_bond_atom_site_label_2
_geom_bond_distance
_geom_bond_site_symmetry_2
_ccdc_geom_bond_type
Mn0 O5 2.095 1_554 S
Mn0 O15 2.162 . S
Mn0 O16 2.297 1_455 S
Mn0 O24 2.385 . S
Mn0 O25 2.209 1_455 S
Mn0 O26 2.094 . S
Mn1 O6 2.121 1_454 S
Mn1 N8 2.257 1_455 S
Mn1 N17 2.282 . S
Mn1 O25 2.215 1_455 S
Mn1 O27 2.117 . S
C2 O24 1.234 1_655 S
C2 O25 1.283 . S
C3 O15 1.281 . S
C3 O16 1.236 1_455 S
C4 O26 1.240 . S
C4 O27 1.264 . S
O5 Mn0 2.095 1_556 S
O5 C14 1.250 1_455 S
O6 Mn1 2.121 1_656 S
O6 C14 1.258 . S
C7 N8 1.326 1_556 S
C7 C11 1.460 1_556 S
C7 H13 0.929 . S
N8 Mn1 2.257 1_655 S
N8 C7 1.326 1_554 S
N8 C12 1.362 . S
C9 C10 1.258 . S
C9 C12 1.431 . S
C9 C29 1.449 . S
C10 C9 1.258 . S
C10 C11 1.477 . S
C10 H30 0.931 . S
C11 C7 1.460 1_554 S
C11 C10 1.477 . S
C11 H31 0.930 1_554 S
C12 N8 1.362 . S
C12 C9 1.431 . S
C12 C22 1.476 . S
H13 C7 0.929 . S
C14 O5 1.250 1_655 S
C14 O6 1.258 . S
O15 Mn0 2.162 . S
O15 C3 1.281 . S
O16 Mn0 2.297 1_655 S
O16 C3 1.236 1_655 S
N17 Mn1 2.282 . S
N17 C18 1.328 . S
N17 C22 1.318 1_455 S
C18 N17 1.328 . S
C18 C19 1.457 . S
C18 H23 0.929 . S
C19 C18 1.457 . S
C19 C20 1.291 . S
C19 H32 0.931 . S
C20 C19 1.291 . S
C20 C21 1.373 1_455 S
C20 H33 0.929 . S
C21 C20 1.373 1_655 S
C21 C22 1.396 . S
C21 C28 1.403 . S
C22 C12 1.476 . S
C22 N17 1.318 1_655 S
C22 C21 1.396 . S
H23 C18 0.929 . S
O24 Mn0 2.385 . S
O24 C2 1.234 1_455 S
O25 Mn0 2.209 1_655 S
O25 Mn1 2.215 1_655 S
O25 C2 1.283 . S
O26 Mn0 2.094 . S
O26 C4 1.240 . S
O27 Mn1 2.117 . S
O27 C4 1.264 . S
C28 C21 1.403 . S
C28 C29 1.399 . S
C28 H34 0.929 . S
C29 C9 1.449 . S
C29 C28 1.399 . S
C29 H35 0.930 . S
H30 C10 0.931 . S
H31 C11 0.930 1_556 S
H32 C19 0.931 . S
H33 C20 0.929 . S
H34 C28 0.929 . S
H35 C29 0.930 . S
Mn36 O41 2.095 1_554 S
Mn36 O51 2.162 . S
Mn36 O52 2.297 1_655 S
Mn36 O60 2.385 . S
Mn36 O61 2.209 1_655 S
Mn36 O62 2.094 . S
Mn37 O42 2.121 1_654 S
Mn37 N44 2.257 1_655 S
Mn37 N53 2.282 . S
Mn37 O61 2.215 1_655 S
Mn37 O63 2.117 . S
C38 O60 1.234 1_455 S
C38 O61 1.283 . S
C39 O51 1.281 . S
C39 O52 1.236 1_655 S
C40 O62 1.240 . S
C40 O63 1.264 . S
O41 Mn36 2.095 1_556 S
O41 C50 1.250 1_655 S
O42 Mn37 2.121 1_456 S
O42 C50 1.258 . S
C43 N44 1.326 1_556 S
C43 C47 1.460 1_556 S
C43 H49 0.929 . S
N44 Mn37 2.257 1_455 S
N44 C43 1.326 1_554 S
N44 C48 1.362 . S
C45 C46 1.258 . S
C45 C48 1.431 . S
C45 C65 1.449 . S
C46 C45 1.258 . S
C46 C47 1.477 . S
C46 H66 0.931 . S
C47 C43 1.460 1_554 S
C47 C46 1.477 . S
C47 H67 0.930 1_554 S
C48 N44 1.362 . S
C48 C45 1.431 . S
C48 C58 1.476 . S
H49 C43 0.929 . S
C50 O41 1.250 1_455 S
C50 O42 1.258 . S
O51 Mn36 2.162 . S
O51 C39 1.281 . S
O52 Mn36 2.297 1_455 S
O52 C39 1.236 1_455 S
N53 Mn37 2.282 . S
N53 C54 1.328 . S
N53 C58 1.318 1_655 S
C54 N53 1.328 . S
C54 C55 1.457 . S
C54 H59 0.929 . S
C55 C54 1.457 . S
C55 C56 1.291 . S
C55 H68 0.931 . S
C56 C55 1.291 . S
C56 C57 1.373 1_655 S
C56 H69 0.929 . S
C57 C56 1.373 1_455 S
C57 C58 1.396 . S
C57 C64 1.403 . S
C58 C48 1.476 . S
C58 N53 1.318 1_455 S
C58 C57 1.396 . S
H59 C54 0.929 . S
O60 Mn36 2.385 . S
O60 C38 1.234 1_655 S
O61 Mn36 2.209 1_455 S
O61 Mn37 2.215 1_455 S
O61 C38 1.283 . S
O62 Mn36 2.094 . S
O62 C40 1.240 . S
O63 Mn37 2.117 . S
O63 C40 1.264 . S
C64 C57 1.403 . S
C64 C65 1.399 . S
C64 H70 0.929 . S
C65 C45 1.449 . S
C65 C64 1.399 . S
C65 H71 0.930 . S
H66 C46 0.931 . S
H67 C47 0.930 1_556 S
H68 C55 0.931 . S
H69 C56 0.929 . S
H70 C64 0.929 . S
H71 C65 0.930 . S
Mn72 O77 2.095 . S
Mn72 O87 2.162 . S
Mn72 O88 2.297 1_455 S
Mn72 O96 2.385 . S
Mn72 O97 2.209 1_455 S
Mn72 O98 2.094 . S
Mn73 O78 2.121 1_455 S
Mn73 N80 2.257 1_455 S
Mn73 N89 2.282 . S
Mn73 O97 2.215 1_455 S
Mn73 O99 2.117 . S
C74 O96 1.234 1_655 S
C74 O97 1.283 . S
C75 O87 1.281 . S
C75 O88 1.236 1_455 S
C76 O98 1.240 . S
C76 O99 1.264 . S
O77 Mn72 2.095 . S
O77 C86 1.250 1_455 S
O78 Mn73 2.121 1_655 S
O78 C86 1.258 . S
C79 N80 1.326 . S
C79 C83 1.460 . S
C79 H85 0.929 . S
N80 Mn73 2.257 1_655 S
N80 C79 1.326 . S
N80 C84 1.362 . S
C81 C82 1.258 . S
C81 C84 1.431 . S
C81 C101 1.449 . S
C82 C81 1.258 . S
C82 C83 1.477 . S
C82 H102 0.931 . S
C83 C79 1.460 . S
C83 C82 1.477 . S
C83 H103 0.930 . S
C84 N80 1.362 . S
C84 C81 1.431 . S
C84 C94 1.476 . S
H85 C79 0.929 . S
C86 O77 1.250 1_655 S
C86 O78 1.258 . S
O87 Mn72 2.162 . S
O87 C75 1.281 . S
O88 Mn72 2.297 1_655 S
O88 C75 1.236 1_655 S
N89 Mn73 2.282 . S
N89 C90 1.328 . S
N89 C94 1.318 1_455 S
C90 N89 1.328 . S
C90 C91 1.457 . S
C90 H95 0.929 . S
C91 C90 1.457 . S
C91 C92 1.291 . S
C91 H104 0.931 . S
C92 C91 1.291 . S
C92 C93 1.373 1_455 S
C92 H105 0.929 . S
C93 C92 1.373 1_655 S
C93 C94 1.396 . S
C93 C100 1.403 . S
C94 C84 1.476 . S
C94 N89 1.318 1_655 S
C94 C93 1.396 . S
H95 C90 0.929 . S
O96 Mn72 2.385 . S
O96 C74 1.234 1_455 S
O97 Mn72 2.209 1_655 S
O97 Mn73 2.215 1_655 S
O97 C74 1.283 . S
O98 Mn72 2.094 . S
O98 C76 1.240 . S
O99 Mn73 2.117 . S
O99 C76 1.264 . S
C100 C93 1.403 . S
C100 C101 1.399 . S
C100 H106 0.929 . S
C101 C81 1.449 . S
C101 C100 1.399 . S
C101 H107 0.930 . S
H102 C82 0.931 . S
H103 C83 0.930 . S
H104 C91 0.931 . S
H105 C92 0.929 . S
H106 C100 0.929 . S
H107 C101 0.930 . S
Mn108 O113 2.095 . S
Mn108 O123 2.162 . S
Mn108 O124 2.297 1_655 S
Mn108 O132 2.385 . S
Mn108 O133 2.209 1_655 S
Mn108 O134 2.094 . S
Mn109 O114 2.121 1_655 S
Mn109 N116 2.257 1_655 S
Mn109 N125 2.282 . S
Mn109 O133 2.215 1_655 S
Mn109 O135 2.117 . S
C110 O132 1.234 1_455 S
C110 O133 1.283 . S
C111 O123 1.281 . S
C111 O124 1.236 1_655 S
C112 O134 1.240 . S
C112 O135 1.264 . S
O113 Mn108 2.095 . S
O113 C122 1.250 1_655 S
O114 Mn109 2.121 1_455 S
O114 C122 1.258 . S
C115 N116 1.326 . S
C115 C119 1.460 . S
C115 H121 0.929 . S
N116 Mn109 2.257 1_455 S
N116 C115 1.326 . S
N116 C120 1.362 . S
C117 C118 1.258 . S
C117 C120 1.431 . S
C117 C137 1.449 . S
C118 C117 1.258 . S
C118 C119 1.477 . S
C118 H138 0.931 . S
C119 C115 1.460 . S
C119 C118 1.477 . S
C119 H139 0.930 . S
C120 N116 1.362 . S
C120 C117 1.431 . S
C120 C130 1.476 . S
H121 C115 0.929 . S
C122 O113 1.250 1_455 S
C122 O114 1.258 . S
O123 Mn108 2.162 . S
O123 C111 1.281 . S
O124 Mn108 2.297 1_455 S
O124 C111 1.236 1_455 S
N125 Mn109 2.282 . S
N125 C126 1.328 . S
N125 C130 1.318 1_655 S
C126 N125 1.328 . S
C126 C127 1.457 . S
C126 H131 0.929 . S
C127 C126 1.457 . S
C127 C128 1.291 . S
C127 H140 0.931 . S
C128 C127 1.291 . S
C128 C129 1.373 1_655 S
C128 H141 0.929 . S
C129 C128 1.373 1_455 S
C129 C130 1.396 . S
C129 C136 1.403 . S
C130 C120 1.476 . S
C130 N125 1.318 1_455 S
C130 C129 1.396 . S
H131 C126 0.929 . S
O132 Mn108 2.385 . S
O132 C110 1.234 1_655 S
O133 Mn108 2.209 1_455 S
O133 Mn109 2.215 1_455 S
O133 C110 1.283 . S
O134 Mn108 2.094 . S
O134 C112 1.240 . S
O135 Mn109 2.117 . S
O135 C112 1.264 . S
C136 C129 1.403 . S
C136 C137 1.399 . S
C136 H142 0.929 . S
C137 C117 1.449 . S
C137 C136 1.399 . S
C137 H143 0.930 . S
H138 C118 0.931 . S
H139 C119 0.930 . S
H140 C127 0.931 . S
H141 C128 0.929 . S
H142 C136 0.929 . S
H143 C137 0.930 . S
Mn144 O149 2.095 1_554 S
Mn144 O159 2.162 . S
Mn144 O160 2.297 . S
Mn144 O168 2.385 . S
Mn144 O169 2.209 . S
Mn144 O170 2.094 . S
Mn145 O150 2.121 1_554 S
Mn145 N152 2.257 . S
Mn145 N161 2.282 . S
Mn145 O169 2.215 . S
Mn145 O171 2.117 . S
C146 O168 1.234 . S
C146 O169 1.283 . S
C147 O159 1.281 . S
C147 O160 1.236 . S
C148 O170 1.240 . S
C148 O171 1.264 . S
O149 Mn144 2.095 1_556 S
O149 C158 1.250 . S
O150 Mn145 2.121 1_556 S
O150 C158 1.258 . S
C151 N152 1.326 1_556 S
C151 C155 1.460 1_556 S
C151 H157 0.929 . S
N152 Mn145 2.257 . S
N152 C151 1.326 1_554 S
N152 C156 1.362 . S
C153 C154 1.258 . S
C153 C156 1.431 . S
C153 C173 1.449 . S
C154 C153 1.258 . S
C154 C155 1.477 . S
C154 H174 0.931 . S
C155 C151 1.460 1_554 S
C155 C154 1.477 . S
C155 H175 0.930 1_554 S
C156 N152 1.362 . S
C156 C153 1.431 . S
C156 C166 1.476 . S
H157 C151 0.929 . S
C158 O149 1.250 . S
C158 O150 1.258 . S
O159 Mn144 2.162 . S
O159 C147 1.281 . S
O160 Mn144 2.297 . S
O160 C147 1.236 . S
N161 Mn145 2.282 . S
N161 C162 1.328 . S
N161 C166 1.318 . S
C162 N161 1.328 . S
C162 C163 1.457 . S
C162 H167 0.929 . S
C163 C162 1.457 . S
C163 C164 1.291 . S
C163 H176 0.931 . S
C164 C163 1.291 . S
C164 C165 1.373 . S
C164 H177 0.929 . S
C165 C164 1.373 . S
C165 C166 1.396 . S
C165 C172 1.403 . S
C166 C156 1.476 . S
C166 N161 1.318 . S
C166 C165 1.396 . S
H167 C162 0.929 . S
O168 Mn144 2.385 . S
O168 C146 1.234 . S
O169 Mn144 2.209 . S
O169 Mn145 2.215 . S
O169 C146 1.283 . S
O170 Mn144 2.094 . S
O170 C148 1.240 . S
O171 Mn145 2.117 . S
O171 C148 1.264 . S
C172 C165 1.403 . S
C172 C173 1.399 . S
C172 H178 0.929 . S
C173 C153 1.449 . S
C173 C172 1.399 . S
C173 H179 0.930 . S
H174 C154 0.931 . S
H175 C155 0.930 1_556 S
H176 C163 0.931 . S
H177 C164 0.929 . S
H178 C172 0.929 . S
H179 C173 0.930 . S
Mn180 O185 2.095 1_554 S
Mn180 O195 2.162 . S
Mn180 O196 2.297 . S
Mn180 O204 2.385 . S
Mn180 O205 2.209 . S
Mn180 O206 2.094 . S
Mn181 O186 2.121 1_554 S
Mn181 N188 2.257 . S
Mn181 N197 2.282 . S
Mn181 O205 2.215 . S
Mn181 O207 2.117 . S
C182 O204 1.234 . S
C182 O205 1.283 . S
C183 O195 1.281 . S
C183 O196 1.236 . S
C184 O206 1.240 . S
C184 O207 1.264 . S
O185 Mn180 2.095 1_556 S
O185 C194 1.250 . S
O186 Mn181 2.121 1_556 S
O186 C194 1.258 . S
C187 N188 1.326 1_556 S
C187 C191 1.460 1_556 S
C187 H193 0.929 . S
N188 Mn181 2.257 . S
N188 C187 1.326 1_554 S
N188 C192 1.362 . S
C189 C190 1.258 . S
C189 C192 1.431 . S
C189 C209 1.449 . S
C190 C189 1.258 . S
C190 C191 1.477 . S
C190 H210 0.931 . S
C191 C187 1.460 1_554 S
C191 C190 1.477 . S
C191 H211 0.930 1_554 S
C192 N188 1.362 . S
C192 C189 1.431 . S
C192 C202 1.476 . S
H193 C187 0.929 . S
C194 O185 1.250 . S
C194 O186 1.258 . S
O195 Mn180 2.162 . S
O195 C183 1.281 . S
O196 Mn180 2.297 . S
O196 C183 1.236 . S
N197 Mn181 2.282 . S
N197 C198 1.328 . S
N197 C202 1.318 . S
C198 N197 1.328 . S
C198 C199 1.457 . S
C198 H203 0.929 . S
C199 C198 1.457 . S
C199 C200 1.291 . S
C199 H212 0.931 . S
C200 C199 1.291 . S
C200 C201 1.373 . S
C200 H213 0.929 . S
C201 C200 1.373 . S
C201 C202 1.396 . S
C201 C208 1.403 . S
C202 C192 1.476 . S
C202 N197 1.318 . S
C202 C201 1.396 . S
H203 C198 0.929 . S
O204 Mn180 2.385 . S
O204 C182 1.234 . S
O205 Mn180 2.209 . S
O205 Mn181 2.215 . S
O205 C182 1.283 . S
O206 Mn180 2.094 . S
O206 C184 1.240 . S
O207 Mn181 2.117 . S
O207 C184 1.264 . S
C208 C201 1.403 . S
C208 C209 1.399 . S
C208 H214 0.929 . S
C209 C189 1.449 . S
C209 C208 1.399 . S
C209 H215 0.930 . S
H210 C190 0.931 . S
H211 C191 0.930 1_556 S
H212 C199 0.931 . S
H213 C200 0.929 . S
H214 C208 0.929 . S
H215 C209 0.930 . S
Mn216 O221 2.095 . S
Mn216 O231 2.162 . S
Mn216 O232 2.297 . S
Mn216 O240 2.385 . S
Mn216 O241 2.209 . S
Mn216 O242 2.094 . S
Mn217 O222 2.121 . S
Mn217 N224 2.257 . S
Mn217 N233 2.282 . S
Mn217 O241 2.215 . S
Mn217 O243 2.117 . S
C218 O240 1.234 . S
C218 O241 1.283 . S
C219 O231 1.281 . S
C219 O232 1.236 . S
C220 O242 1.240 . S
C220 O243 1.264 . S
O221 Mn216 2.095 . S
O221 C230 1.250 . S
O222 Mn217 2.121 . S
O222 C230 1.258 . S
C223 N224 1.326 . S
C223 C227 1.460 . S
C223 H229 0.929 . S
N224 Mn217 2.257 . S
N224 C223 1.326 . S
N224 C228 1.362 . S
C225 C226 1.258 . S
C225 C228 1.431 . S
C225 C245 1.449 . S
C226 C225 1.258 . S
C226 C227 1.477 . S
C226 H246 0.931 . S
C227 C223 1.460 . S
C227 C226 1.477 . S
C227 H247 0.930 . S
C228 N224 1.362 . S
C228 C225 1.431 . S
C228 C238 1.476 . S
H229 C223 0.929 . S
C230 O221 1.250 . S
C230 O222 1.258 . S
O231 Mn216 2.162 . S
O231 C219 1.281 . S
O232 Mn216 2.297 . S
O232 C219 1.236 . S
N233 Mn217 2.282 . S
N233 C234 1.328 . S
N233 C238 1.318 . S
C234 N233 1.328 . S
C234 C235 1.457 . S
C234 H239 0.929 . S
C235 C234 1.457 . S
C235 C236 1.291 . S
C235 H248 0.931 . S
C236 C235 1.291 . S
C236 C237 1.373 . S
C236 H249 0.929 . S
C237 C236 1.373 . S
C237 C238 1.396 . S
C237 C244 1.403 . S
C238 C228 1.476 . S
C238 N233 1.318 . S
C238 C237 1.396 . S
H239 C234 0.929 . S
O240 Mn216 2.385 . S
O240 C218 1.234 . S
O241 Mn216 2.209 . S
O241 Mn217 2.215 . S
O241 C218 1.283 . S
O242 Mn216 2.094 . S
O242 C220 1.240 . S
O243 Mn217 2.117 . S
O243 C220 1.264 . S
C244 C237 1.403 . S
C244 C245 1.399 . S
C244 H250 0.929 . S
C245 C225 1.449 . S
C245 C244 1.399 . S
C245 H251 0.930 . S
H246 C226 0.931 . S
H247 C227 0.930 . S
H248 C235 0.931 . S
H249 C236 0.929 . S
H250 C244 0.929 . S
H251 C245 0.930 . S
Mn252 O257 2.095 . S
Mn252 O267 2.162 . S
Mn252 O268 2.297 . S
Mn252 O276 2.385 . S
Mn252 O277 2.209 . S
Mn252 O278 2.094 . S
Mn253 O258 2.121 . S
Mn253 N260 2.257 . S
Mn253 N269 2.282 . S
Mn253 O277 2.215 . S
Mn253 O279 2.117 . S
C254 O276 1.234 . S
C254 O277 1.283 . S
C255 O267 1.281 . S
C255 O268 1.236 . S
C256 O278 1.240 . S
C256 O279 1.264 . S
O257 Mn252 2.095 . S
O257 C266 1.250 . S
O258 Mn253 2.121 . S
O258 C266 1.258 . S
C259 N260 1.326 . S
C259 C263 1.460 . S
C259 H265 0.929 . S
N260 Mn253 2.257 . S
N260 C259 1.326 . S
N260 C264 1.362 . S
C261 C262 1.258 . S
C261 C264 1.431 . S
C261 C281 1.449 . S
C262 C261 1.258 . S
C262 C263 1.477 . S
C262 H282 0.931 . S
C263 C259 1.460 . S
C263 C262 1.477 . S
C263 H283 0.930 . S
C264 N260 1.362 . S
C264 C261 1.431 . S
C264 C274 1.476 . S
H265 C259 0.929 . S
C266 O257 1.250 . S
C266 O258 1.258 . S
O267 Mn252 2.162 . S
O267 C255 1.281 . S
O268 Mn252 2.297 . S
O268 C255 1.236 . S
N269 Mn253 2.282 . S
N269 C270 1.328 . S
N269 C274 1.318 . S
C270 N269 1.328 . S
C270 C271 1.457 . S
C270 H275 0.929 . S
C271 C270 1.457 . S
C271 C272 1.291 . S
C271 H284 0.931 . S
C272 C271 1.291 . S
C272 C273 1.373 . S
C272 H285 0.929 . S
C273 C272 1.373 . S
C273 C274 1.396 . S
C273 C280 1.403 . S
C274 C264 1.476 . S
C274 N269 1.318 . S
C274 C273 1.396 . S
H275 C270 0.929 . S
O276 Mn252 2.385 . S
O276 C254 1.234 . S
O277 Mn252 2.209 . S
O277 Mn253 2.215 . S
O277 C254 1.283 . S
O278 Mn252 2.094 . S
O278 C256 1.240 . S
O279 Mn253 2.117 . S
O279 C256 1.264 . S
C280 C273 1.403 . S
C280 C281 1.399 . S
C280 H286 0.929 . S
C281 C261 1.449 . S
C281 C280 1.399 . S
C281 H287 0.930 . S
H282 C262 0.931 . S
H283 C263 0.930 . S
H284 C271 0.931 . S
H285 C272 0.929 . S
H286 C280 0.929 . S
H287 C281 0.930 . S
C39 C3 1.535 1_665 S
C75 C111 1.536 1_465 S
C147 C183 1.535 . S
C219 C255 1.535 . S
C2 C110 1.332 1_655 S
C74 C38 1.332 1_655 S
C86 C50 1.656 1_655 S
C14 C122 1.656 1_655 S
C146 C254 1.332 . S
C218 C182 1.332 . S
C194 C230 1.656 . S
C158 C266 1.656 . S
C184 C4 1.596 . S
C148 C40 1.596 . S
C76 C256 1.596 . S
C220 C112 1.596 . S
