# Generated by pormake.
# Topology wib, (6)-cn, num edge types: 1
# Building blocks:
#     Node 0, Type 0, BuildingBlock: VOLQOD_clean_sbu_1, # of connection points: 6
#     Node 1, Type 0, BuildingBlock: VOLQOD_clean_sbu_1, # of connection points: 6
#     Node 2, Type 0, BuildingBlock: VOLQOD_clean_sbu_1, # of connection points: 6
#     Node 3, Type 0, BuildingBlock: VOLQOD_clean_sbu_1, # of connection points: 6
#     Node 4, Type 0, BuildingBlock: VOLQOD_clean_sbu_1, # of connection points: 6
#     Node 5, Type 0, BuildingBlock: VOLQOD_clean_sbu_1, # of connection points: 6
#     Node 6, Type 0, BuildingBlock: VOLQOD_clean_sbu_1, # of connection points: 6
#     Node 7, Type 0, BuildingBlock: VOLQOD_clean_sbu_1, # of connection points: 6
#     Node 8, Type 0, BuildingBlock: VOLQOD_clean_sbu_1, # of connection points: 6
#     Node 9, Type 0, BuildingBlock: VOLQOD_clean_sbu_1, # of connection points: 6
#     Node 10, Type 0, BuildingBlock: VOLQOD_clean_sbu_1, # of connection points: 6
#     Node 11, Type 0, BuildingBlock: VOLQOD_clean_sbu_1, # of connection points: 6
#     Node 12, Type 0, BuildingBlock: VOLQOD_clean_sbu_1, # of connection points: 6
#     Node 13, Type 0, BuildingBlock: VOLQOD_clean_sbu_1, # of connection points: 6
#     Node 14, Type 0, BuildingBlock: VOLQOD_clean_sbu_1, # of connection points: 6
#     Node 15, Type 0, BuildingBlock: VOLQOD_clean_sbu_1, # of connection points: 6
#     Edge 16, Type (0, 0), BuildingBlock: ZUJKAS_clean_linker_0, # of connection points: 2
#     Edge 17, Type (0, 0), BuildingBlock: ZUJKAS_clean_linker_0, # of connection points: 2
#     Edge 18, Type (0, 0), BuildingBlock: ZUJKAS_clean_linker_0, # of connection points: 2
#     Edge 19, Type (0, 0), BuildingBlock: ZUJKAS_clean_linker_0, # of connection points: 2
#     Edge 20, Type (0, 0), BuildingBlock: ZUJKAS_clean_linker_0, # of connection points: 2
#     Edge 21, Type (0, 0), BuildingBlock: ZUJKAS_clean_linker_0, # of connection points: 2
#     Edge 22, Type (0, 0), BuildingBlock: ZUJKAS_clean_linker_0, # of connection points: 2
#     Edge 23, Type (0, 0), BuildingBlock: ZUJKAS_clean_linker_0, # of connection points: 2
#     Edge 24, Type (0, 0), BuildingBlock: ZUJKAS_clean_linker_0, # of connection points: 2
#     Edge 25, Type (0, 0), BuildingBlock: ZUJKAS_clean_linker_0, # of connection points: 2
#     Edge 26, Type (0, 0), BuildingBlock: ZUJKAS_clean_linker_0, # of connection points: 2
#     Edge 27, Type (0, 0), BuildingBlock: ZUJKAS_clean_linker_0, # of connection points: 2
#     Edge 28, Type (0, 0), BuildingBlock: ZUJKAS_clean_linker_0, # of connection points: 2
#     Edge 29, Type (0, 0), BuildingBlock: ZUJKAS_clean_linker_0, # of connection points: 2
#     Edge 30, Type (0, 0), BuildingBlock: ZUJKAS_clean_linker_0, # of connection points: 2
#     Edge 31, Type (0, 0), BuildingBlock: ZUJKAS_clean_linker_0, # of connection points: 2
#     Edge 32, Type (0, 0), BuildingBlock: ZUJKAS_clean_linker_0, # of connection points: 2
#     Edge 33, Type (0, 0), BuildingBlock: ZUJKAS_clean_linker_0, # of connection points: 2
#     Edge 34, Type (0, 0), BuildingBlock: ZUJKAS_clean_linker_0, # of connection points: 2
#     Edge 35, Type (0, 0), BuildingBlock: ZUJKAS_clean_linker_0, # of connection points: 2
#     Edge 36, Type (0, 0), BuildingBlock: ZUJKAS_clean_linker_0, # of connection points: 2
#     Edge 37, Type (0, 0), BuildingBlock: ZUJKAS_clean_linker_0, # of connection points: 2
#     Edge 38, Type (0, 0), BuildingBlock: ZUJKAS_clean_linker_0, # of connection points: 2
#     Edge 39, Type (0, 0), BuildingBlock: ZUJKAS_clean_linker_0, # of connection points: 2
#     Edge 40, Type (0, 0), BuildingBlock: ZUJKAS_clean_linker_0, # of connection points: 2
#     Edge 41, Type (0, 0), BuildingBlock: ZUJKAS_clean_linker_0, # of connection points: 2
#     Edge 42, Type (0, 0), BuildingBlock: ZUJKAS_clean_linker_0, # of connection points: 2
#     Edge 43, Type (0, 0), BuildingBlock: ZUJKAS_clean_linker_0, # of connection points: 2
#     Edge 44, Type (0, 0), BuildingBlock: ZUJKAS_clean_linker_0, # of connection points: 2
#     Edge 45, Type (0, 0), BuildingBlock: ZUJKAS_clean_linker_0, # of connection points: 2
#     Edge 46, Type (0, 0), BuildingBlock: ZUJKAS_clean_linker_0, # of connection points: 2
#     Edge 47, Type (0, 0), BuildingBlock: ZUJKAS_clean_linker_0, # of connection points: 2
#     Edge 48, Type (0, 0), BuildingBlock: ZUJKAS_clean_linker_0, # of connection points: 2
#     Edge 49, Type (0, 0), BuildingBlock: ZUJKAS_clean_linker_0, # of connection points: 2
#     Edge 50, Type (0, 0), BuildingBlock: ZUJKAS_clean_linker_0, # of connection points: 2
#     Edge 51, Type (0, 0), BuildingBlock: ZUJKAS_clean_linker_0, # of connection points: 2
#     Edge 52, Type (0, 0), BuildingBlock: ZUJKAS_clean_linker_0, # of connection points: 2
#     Edge 53, Type (0, 0), BuildingBlock: ZUJKAS_clean_linker_0, # of connection points: 2
#     Edge 54, Type (0, 0), BuildingBlock: ZUJKAS_clean_linker_0, # of connection points: 2
#     Edge 55, Type (0, 0), BuildingBlock: ZUJKAS_clean_linker_0, # of connection points: 2
#     Edge 56, Type (0, 0), BuildingBlock: ZUJKAS_clean_linker_0, # of connection points: 2
#     Edge 57, Type (0, 0), BuildingBlock: ZUJKAS_clean_linker_0, # of connection points: 2
#     Edge 58, Type (0, 0), BuildingBlock: ZUJKAS_clean_linker_0, # of connection points: 2
#     Edge 59, Type (0, 0), BuildingBlock: ZUJKAS_clean_linker_0, # of connection points: 2
#     Edge 60, Type (0, 0), BuildingBlock: ZUJKAS_clean_linker_0, # of connection points: 2
#     Edge 61, Type (0, 0), BuildingBlock: ZUJKAS_clean_linker_0, # of connection points: 2
#     Edge 62, Type (0, 0), BuildingBlock: ZUJKAS_clean_linker_0, # of connection points: 2
#     Edge 63, Type (0, 0), BuildingBlock: ZUJKAS_clean_linker_0, # of connection points: 2
# Relax obj value: 0.536
# Max RMSD: 0.268
# Mean RMSD: 0.267
data_MOF--net-wib--node1-VOLQOD_clean_sbu_1--edge1-ZUJKAS_clean_linker_0
_symmetry_space_group_name_H-M    P1
_symmetry_Int_Tables_number       1
_symmetry_cell_setting            triclinic
loop_
_symmetry_equiv_pos_as_xyz
'x, y, z'
_cell_length_a     38.366526
_cell_length_b     38.310687
_cell_length_c     82.74196
_cell_angle_alpha  90.000841
_cell_angle_beta   90.001574
_cell_angle_gamma 89.761193
loop_
_atom_site_label
_atom_site_type_symbol
_atom_site_fract_x
_atom_site_fract_y
_atom_site_fract_z
_atom_type_partial_charge
O0 O 0.10077 0.5702 0.26331 0.0
Zn1 Zn 0.1399 0.5353 0.26427 0.0
O2 O 0.13862 0.50362 0.24573 0.0
Zn3 Zn 0.13561 0.45524 0.25364 0.0
Zn4 Zn 0.09932 0.51601 0.23171 0.0
Zn5 Zn 0.18093 0.50944 0.23321 0.0
O6 O 0.17947 0.427 0.24744 0.0
O7 O 0.2114 0.46766 0.23526 0.0
O8 O 0.14036 0.50981 0.28561 0.0
O9 O 0.13667 0.45442 0.27803 0.0
O10 O 0.08873 0.43405 0.24684 0.0
O11 O 0.06434 0.47722 0.23261 0.0
O12 O 0.11395 0.52368 0.20826 0.0
O13 O 0.18181 0.56607 0.26337 0.0
O14 O 0.17121 0.51692 0.2098 0.0
O15 O 0.20756 0.55164 0.24035 0.0
C16 C 0.07905 0.57875 0.25235 0.0
C17 C 0.20778 0.43686 0.24071 0.0
C18 C 0.06316 0.44673 0.23878 0.0
C19 C 0.13908 0.47744 0.28907 0.0
C20 C 0.14388 0.52297 0.20157 0.0
C21 C 0.20531 0.57102 0.25279 0.0
O22 O 0.07612 0.5609 0.23941 0.0
O23 O 0.18748 0.33012 0.51466 0.0
Zn24 Zn 0.21687 0.37352 0.51616 0.0
O25 O 0.24582 0.38015 0.49696 0.0
Zn26 Zn 0.29515 0.38136 0.50327 0.0
Zn27 Zn 0.23599 0.34278 0.48178 0.0
Zn28 Zn 0.23298 0.42323 0.48648 0.0
O29 O 0.3183 0.42785 0.49626 0.0
O30 O 0.27091 0.45762 0.489 0.0
O31 O 0.24489 0.3757 0.53677 0.0
O32 O 0.29884 0.38239 0.52763 0.0
O33 O 0.31869 0.33556 0.496 0.0
O34 O 0.27607 0.30902 0.48237 0.0
O35 O 0.22876 0.36008 0.45876 0.0
O36 O 0.1801 0.4106 0.51738 0.0
O37 O 0.22543 0.41714 0.46275 0.0
O38 O 0.18853 0.44271 0.49547 0.0
C39 C 0.17664 0.31416 0.50212 0.0
C40 C 0.3034 0.45643 0.49202 0.0
C41 C 0.30688 0.30927 0.48818 0.0
C42 C 0.27735 0.38001 0.53931 0.0
C43 C 0.22445 0.39093 0.45334 0.0
C44 C 0.17089 0.43527 0.50801 0.0
O45 O 0.19157 0.31819 0.48847 0.0
O46 O 0.41036 0.43295 0.76351 0.0
Zn47 Zn 0.36956 0.46609 0.76431 0.0
O48 O 0.36893 0.49729 0.7456 0.0
Zn49 Zn 0.3711 0.54593 0.75314 0.0
Zn50 Zn 0.40783 0.48547 0.73137 0.0
Zn51 Zn 0.32646 0.48997 0.73344 0.0
O52 O 0.3269 0.57329 0.74664 0.0
O53 O 0.29509 0.53106 0.73556 0.0
O54 O 0.36796 0.49221 0.78548 0.0
O55 O 0.36968 0.54746 0.77752 0.0
O56 O 0.41792 0.56743 0.74646 0.0
O57 O 0.44304 0.52392 0.73278 0.0
O58 O 0.39308 0.47907 0.70788 0.0
O59 O 0.32902 0.43344 0.76362 0.0
O60 O 0.33565 0.48299 0.70993 0.0
O61 O 0.3015 0.447 0.74091 0.0
C62 C 0.43022 0.4235 0.75196 0.0
C63 C 0.29843 0.56236 0.74042 0.0
C64 C 0.44399 0.55454 0.73883 0.0
C65 C 0.36801 0.52472 0.78872 0.0
C66 C 0.36291 0.47865 0.70143 0.0
C67 C 0.30515 0.42767 0.7533 0.0
O68 O 0.43075 0.44025 0.73863 0.0
O69 O 0.31911 0.66114 0.01346 0.0
Zn70 Zn 0.28607 0.62046 0.01445 0.0
O71 O 0.25513 0.6192 0.99567 0.0
Zn72 Zn 0.20649 0.62165 0.00309 0.0
Zn73 Zn 0.26681 0.65773 0.98124 0.0
Zn74 Zn 0.26281 0.57629 0.9838 0.0
O75 O 0.17937 0.57751 0.99662 0.0
O76 O 0.22183 0.54511 0.98591 0.0
O77 O 0.25978 0.61926 0.03558 0.0
O78 O 0.20469 0.62048 0.02747 0.0
O79 O 0.18493 0.66847 0.99624 0.0
O80 O 0.22823 0.69319 0.98243 0.0
O81 O 0.27352 0.64226 0.95786 0.0
O82 O 0.31885 0.57978 0.01409 0.0
O83 O 0.2702 0.5848 0.96027 0.0
O84 O 0.30574 0.55138 0.99158 0.0
C85 C 0.32862 0.68045 0.00173 0.0
C86 C 0.19045 0.5488 0.99059 0.0
C87 C 0.19765 0.69436 0.98847 0.0
C88 C 0.22728 0.61913 0.03873 0.0
C89 C 0.27437 0.61186 0.9516 0.0
C90 C 0.32487 0.55549 0.00399 0.0
O91 O 0.31192 0.68058 0.9884 0.0
O92 O 0.91542 0.43458 0.73634 0.0
Zn93 Zn 0.87355 0.46653 0.7352 0.0
O94 O 0.87049 0.49725 0.75404 0.0
Zn95 Zn 0.87209 0.54607 0.74684 0.0
Zn96 Zn 0.90855 0.48597 0.76876 0.0
Zn97 Zn 0.82744 0.4886 0.76552 0.0
O98 O 0.82733 0.57257 0.7533 0.0
O99 O 0.79537 0.52915 0.76327 0.0
O100 O 0.87187 0.49316 0.71414 0.0
O101 O 0.87121 0.5482 0.72248 0.0
O102 O 0.9185 0.56793 0.75382 0.0
O103 O 0.94371 0.52451 0.76754 0.0
O104 O 0.89258 0.47981 0.79206 0.0
O105 O 0.83417 0.43245 0.73531 0.0
O106 O 0.83523 0.48136 0.78914 0.0
O107 O 0.80421 0.44514 0.75746 0.0
C108 C 0.93332 0.42451 0.74847 0.0
C109 C 0.79862 0.56082 0.75893 0.0
C110 C 0.94454 0.55518 0.76154 0.0
C111 C 0.87079 0.52577 0.71112 0.0
C112 C 0.86203 0.47817 0.79806 0.0
C113 C 0.80961 0.42593 0.74516 0.0
O114 O 0.93167 0.44062 0.76194 0.0
O115 O 0.82105 0.65185 0.48745 0.0
Zn116 Zn 0.78606 0.61292 0.48687 0.0
O117 O 0.75348 0.61612 0.50501 0.0
Zn118 Zn 0.70562 0.62012 0.49657 0.0
Zn119 Zn 0.76594 0.65587 0.51869 0.0
Zn120 Zn 0.75762 0.57427 0.51809 0.0
O121 O 0.67627 0.57731 0.50282 0.0
O122 O 0.71542 0.54484 0.51588 0.0
O123 O 0.7615 0.61112 0.46533 0.0
O124 O 0.70598 0.61773 0.47219 0.0
O125 O 0.68486 0.66781 0.50273 0.0
O126 O 0.72774 0.69166 0.51713 0.0
O127 O 0.77301 0.64217 0.54232 0.0
O128 O 0.81619 0.57044 0.48882 0.0
O129 O 0.76428 0.58508 0.54142 0.0
O130 O 0.79945 0.54585 0.51175 0.0
C131 C 0.8291 0.67437 0.49812 0.0
C132 C 0.6851 0.54904 0.50997 0.0
C133 C 0.6976 0.69345 0.51066 0.0
C134 C 0.72942 0.61342 0.46147 0.0
C135 C 0.7711 0.61262 0.54936 0.0
C136 C 0.81977 0.5471 0.49963 0.0
O137 O 0.81088 0.67823 0.5109 0.0
O138 O 0.58553 0.56563 0.23667 0.0
Zn139 Zn 0.62811 0.53472 0.23503 0.0
O140 O 0.63324 0.50424 0.25385 0.0
Zn141 Zn 0.633 0.45537 0.24672 0.0
Zn142 Zn 0.59562 0.51443 0.26891 0.0
Zn143 Zn 0.67638 0.5145 0.26489 0.0
O144 O 0.67883 0.43032 0.25296 0.0
O145 O 0.70975 0.47522 0.26217 0.0
O146 O 0.62948 0.50812 0.21398 0.0
O147 O 0.63334 0.45322 0.22234 0.0
O148 O 0.58717 0.43242 0.25387 0.0
O149 O 0.56111 0.47533 0.26761 0.0
O150 O 0.61233 0.52005 0.29211 0.0
O151 O 0.66646 0.56987 0.23461 0.0
O152 O 0.66953 0.52091 0.28863 0.0
O153 O 0.69745 0.5589 0.25666 0.0
C154 C 0.56874 0.57571 0.24913 0.0
C155 C 0.70747 0.4433 0.25808 0.0
C156 C 0.56089 0.44466 0.26159 0.0
C157 C 0.63207 0.4756 0.21097 0.0
C158 C 0.64305 0.52267 0.29783 0.0
C159 C 0.691 0.57757 0.24429 0.0
O160 O 0.57177 0.55974 0.26259 0.0
O161 O 0.68353 0.34132 0.98632 0.0
Zn162 Zn 0.7164 0.38209 0.98542 0.0
O163 O 0.74744 0.38326 0.00416 0.0
Zn164 Zn 0.79604 0.38088 0.99663 0.0
Zn165 Zn 0.73586 0.34463 0.01855 0.0
Zn166 Zn 0.7397 0.42609 0.01611 0.0
O167 O 0.82317 0.42491 0.00326 0.0
O168 O 0.78079 0.45713 0.01415 0.0
O169 O 0.74251 0.38374 0.96428 0.0
O170 O 0.79771 0.38256 0.97223 0.0
O171 O 0.8177 0.33399 0.0034 0.0
O172 O 0.7747 0.30948 0.01752 0.0
O173 O 0.72875 0.35996 0.0419 0.0
O174 O 0.68352 0.42265 0.98589 0.0
O175 O 0.73192 0.41744 0.03962 0.0
O176 O 0.69691 0.45123 0.00831 0.0
C177 C 0.67417 0.32181 0.99799 0.0
C178 C 0.81215 0.45351 0.00943 0.0
C179 C 0.80518 0.30829 0.01137 0.0
C180 C 0.77496 0.38407 0.96104 0.0
C181 C 0.72768 0.3903 0.04821 0.0
C182 C 0.67765 0.44706 0.99595 0.0
O183 O 0.69094 0.32156 0.01131 0.0
O184 O 0.59407 0.06758 0.76319 0.0
Zn185 Zn 0.63505 0.03468 0.76385 0.0
O186 O 0.63573 0.0036 0.74508 0.0
Zn187 Zn 0.63386 0.95486 0.75251 0.0
Zn188 Zn 0.59672 0.01538 0.73092 0.0
Zn189 Zn 0.6781 0.01121 0.73291 0.0
O190 O 0.67844 0.92789 0.7461 0.0
O191 O 0.70982 0.97044 0.73508 0.0
O192 O 0.6368 0.00835 0.78496 0.0
O193 O 0.63511 0.95317 0.7769 0.0
O194 O 0.58715 0.93312 0.74578 0.0
O195 O 0.56181 0.97663 0.73217 0.0
O196 O 0.61144 0.02263 0.70749 0.0
O197 O 0.67541 0.06758 0.76319 0.0
O198 O 0.66888 0.01863 0.70943 0.0
O199 O 0.70283 0.0542 0.74044 0.0
C200 C 0.57398 0.07693 0.75171 0.0
C201 C 0.70688 0.93912 0.73997 0.0
C202 C 0.56102 0.94595 0.73816 0.0
C203 C 0.63675 0.97582 0.78813 0.0
C204 C 0.64157 0.02329 0.701 0.0
C205 C 0.69918 0.07348 0.75285 0.0
O206 O 0.57342 0.06026 0.73836 0.0
O207 O 0.68516 0.84043 0.01318 0.0
Zn208 Zn 0.71793 0.88132 0.014 0.0
O209 O 0.74873 0.8825 0.99518 0.0
Zn210 Zn 0.79744 0.8805 0.00251 0.0
Zn211 Zn 0.73711 0.84379 0.98086 0.0
Zn212 Zn 0.74061 0.92514 0.9832 0.0
O213 O 0.8241 0.92493 0.99596 0.0
O214 O 0.7811 0.95683 0.98541 0.0
O215 O 0.74436 0.88302 0.03508 0.0
O216 O 0.79941 0.88183 0.02689 0.0
O217 O 0.81926 0.83373 0.99568 0.0
O218 O 0.77583 0.80854 0.98212 0.0
O219 O 0.73041 0.8589 0.95744 0.0
O220 O 0.68473 0.92164 0.01353 0.0
O221 O 0.73366 0.91638 0.95967 0.0
O222 O 0.69726 0.94949 0.99081 0.0
C223 C 0.6755 0.82115 0.00148 0.0
C224 C 0.81257 0.95357 0.99002 0.0
C225 C 0.80652 0.80764 0.98805 0.0
C226 C 0.77689 0.88326 0.03819 0.0
C227 C 0.7296 0.8892 0.95108 0.0
C228 C 0.67826 0.94549 0.00327 0.0
O229 O 0.69204 0.82101 0.9881 0.0
O230 O 0.90026 0.93001 0.26306 0.0
Zn231 Zn 0.86145 0.96536 0.26378 0.0
O232 O 0.86384 0.99727 0.24535 0.0
Zn233 Zn 0.86716 0.04557 0.25335 0.0
Zn234 Zn 0.90338 0.98455 0.2316 0.0
Zn235 Zn 0.82196 0.99218 0.23251 0.0
O236 O 0.82347 0.07419 0.24721 0.0
O237 O 0.79146 0.03378 0.23494 0.0
O238 O 0.86042 0.99069 0.28515 0.0
O239 O 0.86554 0.04608 0.27774 0.0
O240 O 0.91447 0.0664 0.24687 0.0
O241 O 0.93894 0.02266 0.23309 0.0
O242 O 0.88947 0.97764 0.20799 0.0
O243 O 0.81916 0.93517 0.26246 0.0
O244 O 0.83232 0.98569 0.2091 0.0
O245 O 0.79494 0.94988 0.23913 0.0
C246 C 0.92224 0.92138 0.25223 0.0
C247 C 0.79502 0.06445 0.24055 0.0
C248 C 0.94035 0.0532 0.23921 0.0
C249 C 0.86222 0.023 0.28871 0.0
C250 C 0.85982 0.97926 0.20106 0.0
C251 C 0.79626 0.93047 0.25158 0.0
O252 O 0.92573 0.93931 0.23934 0.0
O253 O 0.81463 0.17092 0.51353 0.0
Zn254 Zn 0.78393 0.12839 0.51498 0.0
O255 O 0.7539 0.12345 0.49602 0.0
Zn256 Zn 0.70498 0.12407 0.50293 0.0
Zn257 Zn 0.76429 0.1611 0.48101 0.0
Zn258 Zn 0.76439 0.08011 0.48506 0.0
O259 O 0.67988 0.0788 0.49626 0.0
O260 O 0.72479 0.04723 0.48725 0.0
O261 O 0.75693 0.12672 0.5359 0.0
O262 O 0.70231 0.12306 0.52729 0.0
O263 O 0.68229 0.17023 0.49586 0.0
O264 O 0.72517 0.19598 0.48215 0.0
O265 O 0.7705 0.14432 0.45781 0.0
O266 O 0.81917 0.08986 0.5155 0.0
O267 O 0.77177 0.08706 0.46141 0.0
O268 O 0.80831 0.05836 0.49362 0.0
C269 C 0.82495 0.18767 0.50112 0.0
C270 C 0.69278 0.05006 0.49107 0.0
C271 C 0.69451 0.19645 0.48814 0.0
C272 C 0.72442 0.12404 0.53876 0.0
C273 C 0.77357 0.1135 0.45217 0.0
C274 C 0.82685 0.06492 0.50599 0.0
O275 O 0.80933 0.18471 0.48758 0.0
O276 O 0.41786 0.93583 0.23701 0.0
Zn277 Zn 0.37509 0.96647 0.23551 0.0
O278 O 0.37037 0.99715 0.25431 0.0
Zn279 Zn 0.37071 0.04593 0.24701 0.0
Zn280 Zn 0.40821 0.98707 0.26935 0.0
Zn281 Zn 0.32717 0.98721 0.26546 0.0
O282 O 0.32514 0.07126 0.25335 0.0
O283 O 0.29408 0.02689 0.26304 0.0
O284 O 0.37322 0.99286 0.21439 0.0
O285 O 0.37012 0.04788 0.22264 0.0
O286 O 0.41647 0.06896 0.25412 0.0
O287 O 0.44216 0.02679 0.26851 0.0
O288 O 0.39154 0.98032 0.2925 0.0
O289 O 0.33681 0.93121 0.23537 0.0
O290 O 0.33429 0.98018 0.28916 0.0
O291 O 0.30552 0.94308 0.25722 0.0
C292 C 0.43555 0.92629 0.24929 0.0
C293 C 0.29661 0.05869 0.25879 0.0
C294 C 0.44236 0.05725 0.26228 0.0
C295 C 0.37089 0.02538 0.21131 0.0
C296 C 0.36086 0.97779 0.29827 0.0
C297 C 0.31203 0.92399 0.24499 0.0
O298 O 0.43293 0.94238 0.26273 0.0
O299 O 0.31736 0.16332 0.98687 0.0
Zn300 Zn 0.28506 0.12215 0.98592 0.0
O301 O 0.25443 0.12017 0.00478 0.0
Zn302 Zn 0.20569 0.12202 0.99747 0.0
Zn303 Zn 0.26584 0.15865 0.01928 0.0
Zn304 Zn 0.26297 0.07727 0.01651 0.0
O305 O 0.17919 0.0776 0.00411 0.0
O306 O 0.22235 0.04561 0.01449 0.0
O307 O 0.25862 0.12069 0.96488 0.0
O308 O 0.20359 0.12067 0.97308 0.0
O309 O 0.18382 0.16872 0.00434 0.0
O310 O 0.22697 0.19379 0.01813 0.0
O311 O 0.27284 0.14307 0.04263 0.0
O312 O 0.31863 0.08215 0.98612 0.0
O313 O 0.27062 0.0856 0.04004 0.0
O314 O 0.30618 0.05315 0.00854 0.0
C315 C 0.32707 0.18229 0.99867 0.0
C316 C 0.1908 0.04897 0.01001 0.0
C317 C 0.19637 0.19472 0.01209 0.0
C318 C 0.22611 0.11986 0.96177 0.0
C319 C 0.27436 0.1126 0.04878 0.0
C320 C 0.32517 0.05782 0.99613 0.0
O321 O 0.31074 0.18187 0.0121 0.0
O322 O 0.08885 0.06551 0.73726 0.0
Zn323 Zn 0.13114 0.03412 0.73632 0.0
O324 O 0.13403 0.00318 0.7551 0.0
Zn325 Zn 0.13289 0.95445 0.74768 0.0
Zn326 Zn 0.09563 0.01402 0.76971 0.0
Zn327 Zn 0.17684 0.01202 0.76679 0.0
O328 O 0.17783 0.92825 0.75421 0.0
O329 O 0.20917 0.97168 0.76457 0.0
O330 O 0.13392 0.00784 0.71521 0.0
O331 O 0.13433 0.95265 0.72331 0.0
O332 O 0.08655 0.93211 0.75449 0.0
O333 O 0.06117 0.9748 0.76866 0.0
O334 O 0.11123 0.02093 0.79301 0.0
O335 O 0.17012 0.0686 0.73676 0.0
O336 O 0.16864 0.01932 0.79039 0.0
O337 O 0.20003 0.05565 0.75889 0.0
C338 C 0.07037 0.07513 0.74927 0.0
C339 C 0.20632 0.94009 0.76004 0.0
C340 C 0.06062 0.9443 0.76247 0.0
C341 C 0.13517 0.9753 0.71206 0.0
C342 C 0.14163 0.02269 0.79916 0.0
C343 C 0.19459 0.07507 0.74666 0.0
O344 O 0.07183 0.0589 0.76271 0.0
O345 O 0.1795 0.85177 0.48702 0.0
Zn346 Zn 0.21542 0.88985 0.48633 0.0
O347 O 0.24707 0.88701 0.50481 0.0
Zn348 Zn 0.29551 0.88307 0.49706 0.0
Zn349 Zn 0.23383 0.84765 0.51841 0.0
Zn350 Zn 0.24178 0.92882 0.51769 0.0
O351 O 0.32373 0.92704 0.50307 0.0
O352 O 0.28288 0.9595 0.51496 0.0
O353 O 0.24103 0.89007 0.46506 0.0
O354 O 0.29623 0.88412 0.47262 0.0
O355 O 0.3163 0.83543 0.50383 0.0
O356 O 0.27105 0.81121 0.51639 0.0
O357 O 0.22826 0.86117 0.54216 0.0
O358 O 0.18552 0.93263 0.48756 0.0
O359 O 0.23647 0.91832 0.54113 0.0
O360 O 0.19884 0.95544 0.51135 0.0
C361 C 0.17027 0.8304 0.49799 0.0
C362 C 0.31363 0.95577 0.50947 0.0
C363 C 0.30199 0.80928 0.51081 0.0
C364 C 0.2733 0.88762 0.46159 0.0
C365 C 0.23039 0.89074 0.54916 0.0
C366 C 0.17997 0.95476 0.49872 0.0
O367 O 0.188 0.82677 0.51092 0.0
H368 H 0.25274 0.42475 0.21611 0.0
H369 H 0.31349 0.40634 0.2188 0.0
H370 H 0.29672 0.38554 0.26945 0.0
H371 H 0.23542 0.40244 0.26654 0.0
H372 H 0.35373 0.44528 0.23648 0.0
H373 H 0.36643 0.31018 0.25938 0.0
H374 H 0.32658 0.32651 0.25047 0.0
H375 H 0.33675 0.33577 0.27127 0.0
C376 C 0.26162 0.41451 0.22761 0.0
C377 C 0.23939 0.41477 0.24109 0.0
C378 C 0.29642 0.40421 0.22918 0.0
C379 C 0.30993 0.3946 0.24434 0.0
C380 C 0.28697 0.39209 0.25755 0.0
H381 H 0.5067 0.45336 0.28251 0.0
H382 H 0.44674 0.43385 0.27873 0.0
C383 C 0.25183 0.40176 0.25588 0.0
C384 C 0.34844 0.39392 0.24683 0.0
H385 H 0.41613 0.34785 0.26354 0.0
C386 C 0.36731 0.4236 0.24213 0.0
C387 C 0.36639 0.36584 0.25432 0.0
C388 C 0.34803 0.33264 0.259 0.0
C389 C 0.40316 0.42639 0.24503 0.0
C390 C 0.4208 0.39901 0.25306 0.0
C391 C 0.40241 0.36887 0.25746 0.0
C392 C 0.45799 0.40289 0.25752 0.0
C393 C 0.42194 0.45909 0.23985 0.0
C394 C 0.48444 0.39068 0.24722 0.0
C395 C 0.51897 0.40174 0.24938 0.0
C396 C 0.52733 0.42547 0.26176 0.0
C397 C 0.50113 0.43528 0.27279 0.0
C398 C 0.46684 0.42406 0.2707 0.0
H399 H 0.40558 0.4759 0.23193 0.0
H400 H 0.4293 0.4744 0.2507 0.0
H401 H 0.44629 0.45227 0.23329 0.0
H402 H 0.47802 0.37454 0.2369 0.0
H403 H 0.53845 0.39385 0.24062 0.0
H404 H 0.36636 0.78995 0.49835 0.0
H405 H 0.38993 0.7304 0.49601 0.0
H406 H 0.29952 0.6905 0.52077 0.0
H407 H 0.27698 0.74915 0.52385 0.0
H408 H 0.35447 0.65529 0.52983 0.0
H409 H 0.35557 0.66394 0.46264 0.0
H410 H 0.3837 0.69351 0.47319 0.0
H411 H 0.33719 0.69801 0.47502 0.0
C412 C 0.35188 0.76849 0.50354 0.0
C413 C 0.31951 0.77448 0.5111 0.0
C414 C 0.36521 0.73437 0.50204 0.0
C415 C 0.34611 0.70565 0.50783 0.0
C416 C 0.31482 0.71198 0.51613 0.0
H417 H 0.28347 0.51549 0.47656 0.0
H418 H 0.30588 0.57389 0.48013 0.0
C419 C 0.30183 0.7458 0.51782 0.0
C420 C 0.35656 0.66869 0.50461 0.0
H421 H 0.36264 0.60888 0.47407 0.0
C422 C 0.35689 0.64513 0.51764 0.0
C423 C 0.35997 0.65539 0.4887 0.0
C424 C 0.35889 0.67887 0.47405 0.0
C425 C 0.35699 0.60879 0.5152 0.0
C426 C 0.35827 0.59546 0.49923 0.0
C427 C 0.36154 0.61905 0.4863 0.0
C428 C 0.34904 0.5585 0.49546 0.0
C429 C 0.35258 0.58525 0.52969 0.0
C430 C 0.36656 0.52967 0.50231 0.0
C431 C 0.35327 0.4957 0.50046 0.0
C432 C 0.32249 0.49012 0.49159 0.0
C433 C 0.30691 0.51874 0.4837 0.0
C434 C 0.31988 0.55235 0.48566 0.0
H435 H 0.34642 0.60011 0.54087 0.0
H436 H 0.33139 0.56614 0.52757 0.0
H437 H 0.37713 0.57055 0.5318 0.0
H438 H 0.38972 0.53352 0.50955 0.0
H439 H 0.36601 0.47421 0.50661 0.0
H440 H 0.25255 0.57138 0.71594 0.0
H441 H 0.19167 0.5893 0.71866 0.0
H442 H 0.20978 0.61563 0.76865 0.0
H443 H 0.27121 0.59906 0.7657 0.0
H444 H 0.15294 0.55127 0.73794 0.0
H445 H 0.13852 0.68919 0.75686 0.0
H446 H 0.17813 0.67239 0.74789 0.0
H447 H 0.16931 0.66552 0.76901 0.0
C448 C 0.24391 0.58268 0.72727 0.0
C449 C 0.26655 0.58405 0.74058 0.0
C450 C 0.20905 0.59273 0.72886 0.0
C451 C 0.19592 0.60375 0.74388 0.0
C452 C 0.21925 0.60791 0.75685 0.0
H453 H 0.99865 0.54515 0.78238 0.0
H454 H 0.05886 0.56388 0.77868 0.0
C455 C 0.25445 0.59845 0.75516 0.0
C456 C 0.15753 0.60412 0.74662 0.0
H457 H 0.08931 0.65166 0.76191 0.0
C458 C 0.13908 0.57352 0.74294 0.0
C459 C 0.13926 0.63298 0.75325 0.0
C460 C 0.15726 0.667 0.75684 0.0
C461 C 0.10331 0.57066 0.74599 0.0
C462 C 0.08532 0.59894 0.75315 0.0
C463 C 0.1033 0.62994 0.75652 0.0
C464 C 0.04807 0.59541 0.75759 0.0
C465 C 0.08498 0.53706 0.74177 0.0
C466 C 0.02179 0.60829 0.74738 0.0
C467 C 0.98711 0.59768 0.74948 0.0
C468 C 0.97842 0.57377 0.76175 0.0
C469 C 0.00447 0.56334 0.77273 0.0
C470 C 0.03892 0.57411 0.77068 0.0
H471 H 0.10111 0.52006 0.73383 0.0
H472 H 0.07918 0.52246 0.75303 0.0
H473 H 0.05985 0.54257 0.7356 0.0
H474 H 0.02843 0.6246 0.73715 0.0
H475 H 0.96773 0.60608 0.74078 0.0
H476 H 0.14593 0.21833 0.99114 0.0
H477 H 0.12749 0.27926 0.98746 0.0
H478 H 0.187 0.3091 0.02936 0.0
H479 H 0.20568 0.24864 0.0331 0.0
H480 H 0.09998 0.34065 0.01206 0.0
H481 H 0.23218 0.35066 0.98472 0.0
H482 H 0.20948 0.30964 0.9864 0.0
H483 H 0.22916 0.32882 0.00393 0.0
C484 C 0.15406 0.23763 0.99992 0.0
C485 C 0.17765 0.22871 0.01229 0.0
C486 C 0.14348 0.27244 0.99779 0.0
C487 C 0.15609 0.29862 0.00809 0.0
C488 C 0.177 0.28924 0.0213 0.0
H489 H 0.15317 0.52224 0.01576 0.0
H490 H 0.1363 0.46096 0.01877 0.0
C491 C 0.18773 0.25465 0.02337 0.0
C492 C 0.15283 0.33595 0.0036 0.0
H493 H 0.2011 0.40296 0.98856 0.0
C494 C 0.12186 0.35436 0.00678 0.0
C495 C 0.18133 0.35356 0.99658 0.0
C496 C 0.21492 0.33477 0.99257 0.0
C497 C 0.11906 0.39038 0.00342 0.0
C498 C 0.14812 0.40826 0.99692 0.0
C499 C 0.1787 0.38939 0.99346 0.0
C500 C 0.1487 0.44667 0.99409 0.0
C501 C 0.08507 0.40886 0.0068 0.0
C502 C 0.16013 0.4595 0.9791 0.0
C503 C 0.17035 0.49426 0.97748 0.0
C504 C 0.16876 0.51709 0.99073 0.0
C505 C 0.15398 0.50532 0.00527 0.0
C506 C 0.14433 0.47022 0.00699 0.0
H507 H 0.06285 0.39036 0.00674 0.0
H508 H 0.08631 0.42105 0.01895 0.0
H509 H 0.07999 0.42972 0.99777 0.0
H510 H 0.16372 0.44193 0.96897 0.0
H511 H 0.18193 0.50265 0.96619 0.0
H512 H 0.49811 0.54437 0.71802 0.0
H513 H 0.55838 0.56288 0.72174 0.0
H514 H 0.52819 0.62342 0.76336 0.0
H515 H 0.46741 0.60512 0.75971 0.0
H516 H 0.5893 0.65009 0.73796 0.0
H517 H 0.60048 0.51948 0.76709 0.0
H518 H 0.57786 0.52162 0.74805 0.0
H519 H 0.55945 0.54248 0.76551 0.0
C520 C 0.504 0.56247 0.7277 0.0
C521 C 0.47798 0.57294 0.73869 0.0
C522 C 0.53848 0.57311 0.72976 0.0
C523 C 0.54771 0.59433 0.74286 0.0
C524 C 0.52148 0.6072 0.75311 0.0
H525 H 0.75324 0.56973 0.7836 0.0
H526 H 0.69229 0.58771 0.78119 0.0
C527 C 0.48677 0.59671 0.751 0.0
C528 C 0.585 0.59782 0.74724 0.0
H529 H 0.65246 0.55016 0.7626 0.0
C530 C 0.60319 0.6285 0.74351 0.0
C531 C 0.60285 0.5697 0.7546 0.0
C532 C 0.58428 0.53645 0.75918 0.0
C533 C 0.63923 0.63135 0.74663 0.0
C534 C 0.65739 0.60259 0.75342 0.0
C535 C 0.63872 0.57234 0.75747 0.0
C536 C 0.69588 0.60192 0.75592 0.0
C537 C 0.65741 0.66509 0.74267 0.0
C538 C 0.71887 0.60589 0.7428 0.0
C539 C 0.75411 0.59645 0.74432 0.0
C540 C 0.7666 0.58227 0.75887 0.0
C541 C 0.74429 0.58093 0.7723 0.0
C542 C 0.70939 0.59099 0.77089 0.0
H543 H 0.63888 0.68746 0.74274 0.0
H544 H 0.67877 0.6705 0.75136 0.0
H545 H 0.6688 0.66322 0.73037 0.0
H546 H 0.70911 0.61348 0.73104 0.0
H547 H 0.77062 0.59698 0.7337 0.0
H548 H 0.70395 0.25119 0.46758 0.0
H549 H 0.68388 0.31118 0.47142 0.0
H550 H 0.62288 0.27912 0.51249 0.0
H551 H 0.64274 0.21866 0.50872 0.0
H552 H 0.59721 0.34174 0.48571 0.0
H553 H 0.72312 0.35124 0.51899 0.0
H554 H 0.72277 0.32777 0.50012 0.0
H555 H 0.69977 0.3106 0.51721 0.0
C556 C 0.68541 0.2566 0.47714 0.0
C557 C 0.67527 0.23016 0.48796 0.0
C558 C 0.67386 0.29091 0.47927 0.0
C559 C 0.65203 0.29953 0.49226 0.0
C560 C 0.63953 0.27287 0.50231 0.0
H561 H 0.67113 0.50434 0.53447 0.0
H562 H 0.65256 0.44376 0.53152 0.0
C563 C 0.65092 0.23833 0.50013 0.0
C564 C 0.64767 0.33668 0.49684 0.0
H565 H 0.69253 0.40334 0.51429 0.0
C566 C 0.61776 0.35528 0.49212 0.0
C567 C 0.67442 0.35408 0.50529 0.0
C568 C 0.70685 0.33505 0.51082 0.0
C569 C 0.61437 0.3913 0.49537 0.0
C570 C 0.64186 0.40903 0.50329 0.0
C571 C 0.67128 0.38992 0.50831 0.0
C572 C 0.64231 0.44755 0.50585 0.0
C573 C 0.58143 0.4099 0.49032 0.0
C574 C 0.6406 0.47061 0.49263 0.0
C575 C 0.65035 0.50566 0.49443 0.0
C576 C 0.66266 0.51787 0.50938 0.0
C577 C 0.66147 0.49562 0.52285 0.0
C578 C 0.65107 0.46091 0.52113 0.0
H579 H 0.55909 0.39159 0.48966 0.0
H580 H 0.57477 0.43135 0.49881 0.0
H581 H 0.58519 0.42125 0.47811 0.0
H582 H 0.63471 0.46096 0.48065 0.0
H583 H 0.65173 0.52208 0.48379 0.0
H584 H 0.75935 0.44493 0.2802 0.0
H585 H 0.82002 0.42793 0.27573 0.0
H586 H 0.79194 0.38175 0.23009 0.0
H587 H 0.73069 0.39836 0.23463 0.0
H588 H 0.85486 0.34884 0.25331 0.0
H589 H 0.85921 0.48807 0.23414 0.0
H590 H 0.83698 0.4787 0.25279 0.0
H591 H 0.81937 0.46315 0.23405 0.0
C592 C 0.76581 0.42982 0.26953 0.0
C593 C 0.74036 0.42304 0.25774 0.0
C594 C 0.80049 0.42012 0.267 0.0
C595 C 0.81045 0.40381 0.25255 0.0
C596 C 0.78466 0.3941 0.24138 0.0
H597 H 0.01545 0.44857 0.21451 0.0
H598 H 0.9547 0.43009 0.21585 0.0
C599 C 0.74969 0.40348 0.24401 0.0
C600 C 0.84783 0.40339 0.248 0.0
H601 H 0.91281 0.4587 0.23674 0.0
C602 C 0.86762 0.37267 0.2495 0.0
C603 C 0.86423 0.43445 0.2429 0.0
C604 C 0.84396 0.46801 0.24074 0.0
C605 C 0.90379 0.37253 0.24639 0.0
C606 C 0.92047 0.40407 0.24196 0.0
C607 C 0.90023 0.43445 0.24008 0.0
C608 C 0.9589 0.40723 0.2397 0.0
C609 C 0.92367 0.33865 0.24782 0.0
C610 C 0.98211 0.39915 0.25234 0.0
C611 C 0.01721 0.40914 0.25144 0.0
C612 C 0.02944 0.42807 0.23805 0.0
C613 C 0.00675 0.43411 0.225 0.0
C614 C 0.97197 0.42359 0.22578 0.0
H615 H 0.90632 0.31585 0.24595 0.0
H616 H 0.94535 0.33732 0.23895 0.0
H617 H 0.93483 0.33658 0.26016 0.0
H618 H 0.97268 0.3873 0.26337 0.0
H619 H 0.03397 0.40454 0.26176 0.0
H620 H 0.85058 0.47981 0.98455 0.0
H621 H 0.8675 0.5411 0.98155 0.0
H622 H 0.83774 0.56066 0.03102 0.0
H623 H 0.81964 0.49992 0.03379 0.0
H624 H 0.80063 0.59879 0.0105 0.0
H625 H 0.94017 0.61253 0.99458 0.0
H626 H 0.91773 0.58108 0.98236 0.0
H627 H 0.9228 0.57341 0.00368 0.0
C628 C 0.84928 0.49684 0.99499 0.0
C629 C 0.83385 0.48522 0.00941 0.0
C630 C 0.85894 0.53194 0.99327 0.0
C631 C 0.8539 0.55564 0.00606 0.0
C632 C 0.84187 0.54297 0.02097 0.0
H633 H 0.85654 0.78373 0.00914 0.0
H634 H 0.87477 0.72271 0.01275 0.0
C635 C 0.83168 0.5082 0.02259 0.0
C636 C 0.85433 0.59399 0.00313 0.0
H637 H 0.90318 0.66201 0.98893 0.0
C638 C 0.8233 0.61257 0.006 0.0
C639 C 0.88376 0.61209 0.99716 0.0
C640 C 0.91811 0.59384 0.9944 0.0
C641 C 0.82063 0.64837 0.00284 0.0
C642 C 0.84959 0.66626 0.99638 0.0
C643 C 0.88096 0.6481 0.99378 0.0
C644 C 0.8465 0.70364 0.99196 0.0
C645 C 0.78657 0.66685 0.00627 0.0
C646 C 0.8259 0.71323 0.97869 0.0
C647 C 0.81527 0.74786 0.97666 0.0
C648 C 0.8252 0.77365 0.98784 0.0
C649 C 0.84855 0.76454 1.00029 0.0
C650 C 0.85899 0.72968 0.00238 0.0
H651 H 0.76901 0.65094 0.01396 0.0
H652 H 0.79125 0.69222 0.01237 0.0
H653 H 0.773 0.67226 0.99469 0.0
H654 H 0.81603 0.69349 0.97052 0.0
H655 H 0.79752 0.75403 0.96687 0.0
H656 H 0.72933 0.89565 0.76412 0.0
H657 H 0.79033 0.87889 0.76902 0.0
H658 H 0.819 0.92036 0.7225 0.0
H659 H 0.7585 0.9375 0.71764 0.0
H660 H 0.85387 0.84386 0.74658 0.0
H661 H 0.85701 0.98475 0.76313 0.0
H662 H 0.81731 0.95964 0.7636 0.0
H663 H 0.8352 0.97336 0.74462 0.0
C664 C 0.74835 0.89961 0.75463 0.0
C665 C 0.73925 0.91803 0.74053 0.0
C666 C 0.78321 0.89014 0.75746 0.0
C667 C 0.80913 0.8986 0.74615 0.0
C668 C 0.79936 0.91352 0.73135 0.0
H669 H 0.03338 0.9007 0.73951 0.0
H670 H 0.97238 0.88278 0.73723 0.0
C671 C 0.76477 0.92329 0.72859 0.0
C672 C 0.84641 0.89877 0.75087 0.0
H673 H 0.91065 0.95518 0.7619 0.0
C674 C 0.86637 0.86803 0.7501 0.0
C675 C 0.86247 0.93031 0.75557 0.0
C676 C 0.84201 0.96395 0.75691 0.0
C677 C 0.90237 0.86829 0.75359 0.0
C678 C 0.91869 0.90021 0.75772 0.0
C679 C 0.8983 0.93065 0.7588 0.0
C680 C 0.95692 0.90364 0.7605 0.0
C681 C 0.92248 0.83444 0.75293 0.0
C682 C 0.96893 0.92066 0.77445 0.0
C683 C 0.00356 0.93149 0.77562 0.0
C684 C 0.02713 0.92518 0.76294 0.0
C685 C 0.01593 0.90556 0.74956 0.0
C686 C 0.981 0.89519 0.74827 0.0
H687 H 0.9051 0.81164 0.75475 0.0
H688 H 0.93476 0.83177 0.74085 0.0
H689 H 0.94338 0.83373 0.76221 0.0
H690 H 0.95096 0.92745 0.78406 0.0
H691 H 0.01144 0.94647 0.7861 0.0
H692 H 0.85438 0.97731 0.01437 0.0
H693 H 0.87043 0.03867 0.01864 0.0
H694 H 0.83237 0.06424 0.97107 0.0
H695 H 0.81576 0.0034 0.96689 0.0
H696 H 0.90696 0.09976 0.99835 0.0
H697 H 0.76332 0.10594 0.00748 0.0
H698 H 0.78743 0.06543 0.00838 0.0
H699 H 0.77793 0.08515 0.98919 0.0
C700 C 0.85105 0.99572 0.00455 0.0
C701 C 0.83368 0.98572 0.99033 0.0
C702 C 0.86011 0.03078 0.00702 0.0
C703 C 0.85224 0.05598 0.99522 0.0
C704 C 0.83861 0.04519 0.98032 0.0
H705 H 0.85175 0.28153 0.9894 0.0
H706 H 0.86991 0.22032 0.98705 0.0
C707 C 0.82919 0.01041 0.97794 0.0
C708 C 0.85128 0.09357 0.99947 0.0
H709 H 0.79348 0.15922 0.00741 0.0
C710 C 0.88226 0.11286 0.00044 0.0
C711 C 0.81901 0.11042 0.00235 0.0
C712 C 0.78498 0.09075 0.00194 0.0
C713 C 0.8816 0.14892 0.00392 0.0
C714 C 0.84915 0.1659 0.00633 0.0
C715 C 0.81838 0.14627 0.0056 0.0
C716 C 0.84563 0.20403 0.00942 0.0
C717 C 0.91551 0.16845 0.00513 0.0
C718 C 0.82673 0.21553 0.02295 0.0
C719 C 0.81593 0.25027 0.02419 0.0
C720 C 0.82399 0.27442 0.01197 0.0
C721 C 0.84541 0.26363 0.99909 0.0
C722 C 0.8559 0.22861 0.99775 0.0
H723 H 0.93782 0.1505 0.00737 0.0
H724 H 0.92038 0.18231 0.99358 0.0
H725 H 0.91449 0.18817 0.01496 0.0
H726 H 0.8185 0.19711 0.03212 0.0
H727 H 0.79963 0.2578 0.03431 0.0
H728 H 0.49002 0.05779 0.2866 0.0
H729 H 0.55025 0.07789 0.28509 0.0
H730 H 0.53115 0.11795 0.23715 0.0
H731 H 0.47037 0.09924 0.23896 0.0
H732 H 0.59314 0.04975 0.26485 0.0
H733 H 0.59542 0.19186 0.25334 0.0
H734 H 0.55687 0.16979 0.26048 0.0
H735 H 0.56777 0.16954 0.2393 0.0
C736 C 0.49834 0.07205 0.27598 0.0
C737 C 0.4755 0.07693 0.2629 0.0
C738 C 0.53283 0.08347 0.2751 0.0
C739 C 0.54548 0.09954 0.26101 0.0
C740 C 0.52205 0.10641 0.24831 0.0
H741 H 0.74341 0.06927 0.21827 0.0
H742 H 0.68319 0.08684 0.22357 0.0
C743 C 0.48724 0.09557 0.24932 0.0
C744 C 0.58382 0.10368 0.2587 0.0
H745 H 0.64762 0.15973 0.24606 0.0
C746 C 0.60497 0.07407 0.26105 0.0
C747 C 0.59953 0.13529 0.25363 0.0
C748 C 0.57873 0.1685 0.2517 0.0
C749 C 0.6409 0.07485 0.25807 0.0
C750 C 0.65632 0.10594 0.25239 0.0
C751 C 0.63562 0.13591 0.25037 0.0
C752 C 0.69355 0.10613 0.24762 0.0
C753 C 0.66219 0.04204 0.26056 0.0
C754 C 0.71965 0.11301 0.25909 0.0
C755 C 0.75434 0.1033 0.256 0.0
C756 C 0.76309 0.08616 0.24152 0.0
C757 C 0.73743 0.08251 0.22951 0.0
C758 C 0.70299 0.09254 0.23252 0.0
H759 H 0.64688 0.02091 0.26635 0.0
H760 H 0.67186 0.03245 0.24871 0.0
H761 H 0.68526 0.04769 0.26821 0.0
H762 H 0.71275 0.12317 0.27088 0.0
H763 H 0.77344 0.10597 0.26556 0.0
H764 H 0.64908 0.71871 0.48913 0.0
H765 H 0.63188 0.78008 0.48564 0.0
H766 H 0.68934 0.80755 0.5285 0.0
H767 H 0.7068 0.74668 0.53204 0.0
H768 H 0.60278 0.83988 0.50931 0.0
H769 H 0.7384 0.85176 0.48616 0.0
H770 H 0.71612 0.81042 0.48725 0.0
H771 H 0.7334 0.82991 0.50526 0.0
C772 C 0.65705 0.73762 0.49812 0.0
C773 C 0.6797 0.72788 0.51074 0.0
C774 C 0.64719 0.77267 0.4961 0.0
C775 C 0.6596 0.79831 0.50675 0.0
C776 C 0.67957 0.78814 0.52014 0.0
H777 H 0.65352 0.0225 0.5154 0.0
H778 H 0.63747 0.96083 0.51798 0.0
C779 C 0.6896 0.75332 0.52211 0.0
C780 C 0.65684 0.83588 0.5026 0.0
H781 H 0.70669 0.90386 0.48972 0.0
C782 C 0.62531 0.85396 0.50489 0.0
C783 C 0.68621 0.854 0.49669 0.0
C784 C 0.72045 0.83562 0.49355 0.0
C785 C 0.62273 0.89009 0.50177 0.0
C786 C 0.65254 0.90842 0.49637 0.0
C787 C 0.68375 0.88993 0.49379 0.0
C788 C 0.65306 0.94686 0.49365 0.0
C789 C 0.58818 0.90822 0.50417 0.0
C790 C 0.66605 0.95993 0.47899 0.0
C791 C 0.67574 0.99489 0.47763 0.0
C792 C 0.67208 0.01769 0.4908 0.0
C793 C 0.65593 0.00559 0.50496 0.0
C794 C 0.64677 0.97029 0.50643 0.0
H795 H 0.56617 0.88951 0.50352 0.0
H796 H 0.58773 0.92053 0.5163 0.0
H797 H 0.58409 0.92897 0.49498 0.0
H798 H 0.67115 0.94246 0.46895 0.0
H799 H 0.68841 0.00354 0.46664 0.0
H800 H 0.99405 0.04264 0.21823 0.0
H801 H 0.05462 0.06027 0.22179 0.0
H802 H 0.02592 0.12045 0.26376 0.0
H803 H 0.96483 0.10302 0.26024 0.0
H804 H 0.0862 0.14762 0.23905 0.0
H805 H 0.0981 0.01479 0.26581 0.0
H806 H 0.07576 0.01798 0.24674 0.0
H807 H 0.0569 0.03753 0.26442 0.0
C808 C 1.00034 0.06046 0.22796 0.0
C809 C 0.97463 0.07109 0.23907 0.0
C810 C 0.035 0.07058 0.22994 0.0
C811 C 0.04474 0.09143 0.24309 0.0
C812 C 0.01884 0.10447 0.25347 0.0
H813 H 0.25052 0.06521 0.28332 0.0
H814 H 0.18938 0.08247 0.28094 0.0
C815 C 0.98394 0.0945 0.25144 0.0
C816 C 0.08218 0.09453 0.24731 0.0
H817 H 0.15006 0.04575 0.26151 0.0
C818 C 0.10024 0.12557 0.24412 0.0
C819 C 0.10026 0.0658 0.25403 0.0
C820 C 0.08187 0.03214 0.25809 0.0
C821 C 0.13634 0.12824 0.24715 0.0
C822 C 0.15467 0.09897 0.25334 0.0
C823 C 0.13617 0.0683 0.25683 0.0
C824 C 0.19315 0.09835 0.2559 0.0
C825 C 0.15438 0.16235 0.24379 0.0
C826 C 0.21627 0.1034 0.2429 0.0
C827 C 0.25161 0.09431 0.24441 0.0
C828 C 0.26409 0.07942 0.25881 0.0
C829 C 0.24158 0.07693 0.27213 0.0
C830 C 0.20658 0.0866 0.27074 0.0
H831 H 0.13575 0.18462 0.24413 0.0
H832 H 0.17554 0.16722 0.25265 0.0
H833 H 0.16605 0.16141 0.23153 0.0
H834 H 0.20657 0.11168 0.23122 0.0
H835 H 0.26828 0.09577 0.23386 0.0
H836 H 0.15204 0.02257 0.98525 0.0
H837 H 0.13563 0.96115 0.98218 0.0
H838 H 0.16686 0.94127 0.03143 0.0
H839 H 0.18446 0.00214 0.03426 0.0
H840 H 0.20371 0.90365 0.0106 0.0
H841 H 0.06384 0.88902 0.99548 0.0
H842 H 0.08574 0.92076 0.98322 0.0
H843 H 0.08117 0.92817 0.00457 0.0
C844 C 0.15379 0.00541 0.99563 0.0
C845 C 0.16946 0.017 0.01 0.0
C846 C 0.14441 0.97024 0.99388 0.0
C847 C 0.15 0.94644 0.00658 0.0
C848 C 0.16231 0.95904 0.02145 0.0
H849 H 0.14754 0.71844 0.00947 0.0
H850 H 0.12942 0.7795 0.01304 0.0
C851 C 0.17221 0.99388 0.02311 0.0
C852 C 0.14978 0.90812 0.00356 0.0
H853 H 0.10098 0.83982 0.98961 0.0
C854 C 0.18102 0.88974 0.00622 0.0
C855 C 0.12031 0.88984 0.99775 0.0
C856 C 0.08576 0.90787 0.99522 0.0
C857 C 0.18384 0.85396 0.00303 0.0
C858 C 0.15482 0.8359 0.99672 0.0
C859 C 0.12325 0.85386 0.99433 0.0
C860 C 0.15796 0.79851 0.99232 0.0
C861 C 0.21809 0.83569 0.00628 0.0
C862 C 0.17867 0.78887 0.97909 0.0
C863 C 0.18924 0.75421 0.97708 0.0
C864 C 0.17913 0.72845 0.98824 0.0
C865 C 0.15569 0.73762 0.00064 0.0
C866 C 0.1453 0.7725 0.0027 0.0
H867 H 0.23563 0.85163 0.01397 0.0
H868 H 0.21371 0.81019 0.01231 0.0
H869 H 0.23154 0.83059 0.99463 0.0
H870 H 0.18864 0.80858 0.97093 0.0
H871 H 0.20705 0.748 0.96732 0.0
H872 H 0.5071 0.95546 0.71718 0.0
H873 H 0.44672 0.9374 0.72102 0.0
H874 H 0.47657 0.87813 0.76309 0.0
H875 H 0.53745 0.89596 0.7593 0.0
H876 H 0.41579 0.85019 0.73914 0.0
H877 H 0.40431 0.98405 0.76481 0.0
H878 H 0.42578 0.98028 0.74555 0.0
H879 H 0.44558 0.96151 0.76319 0.0
C880 C 0.50111 0.9377 0.72698 0.0
C881 C 0.52706 0.92749 0.73805 0.0
C882 C 0.46656 0.92733 0.72911 0.0
C883 C 0.45718 0.90668 0.74239 0.0
C884 C 0.48336 0.89395 0.75271 0.0
H885 H 0.25322 0.93359 0.78426 0.0
H886 H 0.31419 0.91607 0.78142 0.0
C887 C 0.51814 0.90416 0.75052 0.0
C888 C 0.41988 0.90366 0.74686 0.0
H889 H 0.35234 0.95272 0.76121 0.0
C890 C 0.40184 0.8724 0.74411 0.0
C891 C 0.40192 0.93259 0.75347 0.0
C892 C 0.42029 0.9665 0.75707 0.0
C893 C 0.36588 0.8697 0.74748 0.0
C894 C 0.34767 0.89914 0.75357 0.0
C895 C 0.36615 0.93004 0.7566 0.0
C896 C 0.30933 0.89968 0.75649 0.0
C897 C 0.34783 0.8354 0.74457 0.0
C898 C 0.28568 0.89438 0.74373 0.0
C899 C 0.25044 0.90367 0.7455 0.0
C900 C 0.23861 0.91899 0.75993 0.0
C901 C 0.26165 0.92159 0.77305 0.0
C902 C 0.29655 0.91176 0.7714 0.0
H903 H 0.36658 0.81323 0.74482 0.0
H904 H 0.32723 0.83072 0.75374 0.0
H905 H 0.33542 0.83592 0.73246 0.0
H906 H 0.29488 0.88582 0.73201 0.0
H907 H 0.23337 0.90208 0.73509 0.0
H908 H 0.34867 0.28089 0.51155 0.0
H909 H 0.36728 0.21982 0.51333 0.0
H910 H 0.32822 0.20145 0.46519 0.0
H911 H 0.30819 0.26196 0.46371 0.0
H912 H 0.29954 0.15869 0.4852 0.0
H913 H 0.44115 0.15458 0.49745 0.0
H914 H 0.4186 0.18241 0.51142 0.0
H915 H 0.41943 0.19352 0.49027 0.0
C916 C 0.34526 0.26413 0.50113 0.0
C917 C 0.3269 0.27615 0.4875 0.0
C918 C 0.35601 0.22913 0.50213 0.0
C919 C 0.34935 0.20581 0.48937 0.0
C920 C 0.33363 0.21876 0.47523 0.0
H921 H 0.35503 0.97726 0.48446 0.0
H922 H 0.37222 0.03795 0.47921 0.0
C923 C 0.32228 0.25342 0.47436 0.0
C924 C 0.35328 0.16733 0.49164 0.0
H925 H 0.40871 0.10261 0.50442 0.0
C926 C 0.3237 0.14651 0.48909 0.0
C927 C 0.38466 0.15115 0.49683 0.0
C928 C 0.41784 0.17156 0.49899 0.0
C929 C 0.32428 0.11048 0.49199 0.0
C930 C 0.35513 0.09459 0.49778 0.0
C931 C 0.38507 0.11496 0.50001 0.0
C932 C 0.35507 0.05724 0.50247 0.0
C933 C 0.2915 0.08959 0.48929 0.0
C934 C 0.34136 0.04782 0.51754 0.0
C935 C 0.33134 0.0134 0.5205 0.0
C936 C 0.33512 0.98769 0.50848 0.0
C937 C 0.35228 0.99639 0.49402 0.0
C938 C 0.36198 0.03108 0.49098 0.0
H939 H 0.27053 0.10527 0.48349 0.0
H940 H 0.29721 0.06658 0.48156 0.0
H941 H 0.28171 0.07976 0.50106 0.0
H942 H 0.33563 0.06766 0.5265 0.0
H943 H 0.31808 0.00747 0.53172 0.0
H944 H 0.25096 0.59626 0.23024 0.0
H945 H 0.27371 0.65564 0.22875 0.0
H946 H 0.22799 0.67902 0.27514 0.0
H947 H 0.2056 0.61977 0.27689 0.0
H948 H 0.22799 0.71196 0.22826 0.0
H949 H 0.32295 0.72567 0.27833 0.0
H950 H 0.30937 0.68371 0.27069 0.0
H951 H 0.28216 0.70738 0.28463 0.0
C952 C 0.24666 0.61366 0.24037 0.0
C953 C 0.22612 0.60336 0.25361 0.0
C954 C 0.25958 0.64762 0.23946 0.0
C955 C 0.25251 0.67164 0.25183 0.0
C956 C 0.23417 0.66073 0.26557 0.0
H957 H 0.26636 0.89365 0.26611 0.0
H958 H 0.24875 0.83245 0.26651 0.0
C959 C 0.22125 0.62682 0.26651 0.0
C960 C 0.2603 0.70903 0.24954 0.0
H961 H 0.30089 0.77862 0.26685 0.0
C962 C 0.24426 0.72651 0.23658 0.0
C963 C 0.28126 0.72786 0.26049 0.0
C964 C 0.3002 0.71015 0.27423 0.0
C965 C 0.24796 0.76262 0.23451 0.0
C966 C 0.26847 0.78151 0.24562 0.0
C967 C 0.28485 0.76399 0.25846 0.0
C968 C 0.2742 0.81939 0.24397 0.0
C969 C 0.22924 0.78044 0.22074 0.0
C970 C 0.29333 0.83238 0.23088 0.0
C971 C 0.30338 0.86733 0.23057 0.0
C972 C 0.29467 0.88977 0.24343 0.0
C973 C 0.27353 0.87712 0.25601 0.0
C974 C 0.26357 0.84213 0.25631 0.0
H975 H 0.20824 0.76386 0.21565 0.0
H976 H 0.2177 0.80563 0.22474 0.0
H977 H 0.24817 0.78604 0.21095 0.0
H978 H 0.30207 0.8151 0.22133 0.0
H979 H 0.31961 0.8762 0.22069 0.0
H980 H 0.13894 0.4837 0.48874 0.0
H981 H 0.07784 0.50116 0.4895 0.0
H982 H 0.06294 0.44102 0.53301 0.0
H983 H 0.12401 0.42286 0.53224 0.0
H984 H 0.01608 0.42453 0.50906 0.0
H985 H 0.02195 0.5678 0.51748 0.0
H986 H 0.04902 0.55302 0.50116 0.0
H987 H 0.05869 0.53952 0.52151 0.0
C988 C 0.12297 0.47484 0.49871 0.0
C989 C 0.13635 0.4517 0.51037 0.0
C990 C 0.08803 0.48495 0.49915 0.0
C991 C 0.06597 0.47249 0.51136 0.0
C992 C 0.07962 0.4509 0.5235 0.0
H993 H 0.84259 0.50174 0.52299 0.0
H994 H 0.90158 0.47808 0.52568 0.0
C995 C 0.11457 0.4407 0.52306 0.0
C996 C 0.02812 0.47938 0.51051 0.0
H997 H 0.96826 0.54494 0.50723 0.0
C998 C 0.00549 0.45083 0.50888 0.0
C999 C 0.01452 0.51369 0.51028 0.0
C1000 C 0.03728 0.54523 0.51287 0.0
C1001 C 0.96964 0.45582 0.5064 0.0
C1002 C 0.95636 0.49015 0.50559 0.0
C1003 C 0.9788 0.51863 0.50765 0.0
C1004 C 0.91922 0.4976 0.50257 0.0
C1005 C 0.94637 0.42457 0.50416 0.0
C1006 C 0.90949 0.51527 0.48844 0.0
C1007 C 0.8759 0.52881 0.48685 0.0
C1008 C 0.85161 0.52523 0.49947 0.0
C1009 C 0.86067 0.50505 0.51306 0.0
C1010 C 0.89435 0.49145 0.51463 0.0
H1011 H 0.96152 0.40001 0.50263 0.0
H1012 H 0.92933 0.42174 0.51492 0.0
H1013 H 0.92927 0.42828 0.49346 0.0
H1014 H 0.92847 0.52017 0.47902 0.0
H1015 H 0.86975 0.54398 0.47616 0.0
H1016 H 0.25954 0.40066 0.73119 0.0
H1017 H 0.23778 0.34085 0.73028 0.0
H1018 H 0.28557 0.31967 0.77644 0.0
H1019 H 0.30711 0.37937 0.7776 0.0
H1020 H 0.28483 0.28447 0.73021 0.0
H1021 H 0.18993 0.27324 0.78054 0.0
H1022 H 0.20293 0.31477 0.7722 0.0
H1023 H 0.23078 0.29231 0.78628 0.0
C1024 C 0.26458 0.38363 0.74139 0.0
C1025 C 0.28536 0.39472 0.75441 0.0
C1026 C 0.25223 0.34943 0.7408 0.0
C1027 C 0.2601 0.32594 0.75329 0.0
C1028 C 0.27883 0.33755 0.76678 0.0
H1029 H 0.24013 0.10391 0.76829 0.0
H1030 H 0.25984 0.16446 0.76889 0.0
C1031 C 0.29123 0.3717 0.76739 0.0
C1032 C 0.25236 0.28845 0.75138 0.0
H1033 H 0.21037 0.22002 0.76896 0.0
C1034 C 0.2683 0.27038 0.73858 0.0
C1035 C 0.23109 0.27024 0.76244 0.0
C1036 C 0.21242 0.28864 0.77606 0.0
C1037 C 0.26399 0.2343 0.73669 0.0
C1038 C 0.24289 0.21607 0.7478 0.0
C1039 C 0.22682 0.23415 0.76056 0.0
C1040 C 0.23589 0.1784 0.74612 0.0
C1041 C 0.28258 0.21586 0.72306 0.0
C1042 C 0.21688 0.16608 0.73285 0.0
C1043 C 0.20564 0.13151 0.73242 0.0
C1044 C 0.21301 0.10877 0.74535 0.0
C1045 C 0.23398 0.12069 0.75814 0.0
C1046 C 0.24514 0.15531 0.75856 0.0
H1047 H 0.30442 0.23167 0.7182 0.0
H1048 H 0.29297 0.1902 0.72709 0.0
H1049 H 0.26387 0.21115 0.71307 0.0
H1050 H 0.20914 0.18365 0.72322 0.0
H1051 H 0.18956 0.12321 0.72238 0.0
H1052 H 0.63017 0.44504 0.97135 0.0
H1053 H 0.56995 0.46562 0.97235 0.0
H1054 H 0.58895 0.51233 0.01892 0.0
H1055 H 0.64935 0.49223 0.01802 0.0
H1056 H 0.52595 0.44181 0.99688 0.0
H1057 H 0.53052 0.58667 0.99567 0.0
H1058 H 0.56648 0.55972 0.98898 0.0
H1059 H 0.55924 0.56684 0.01018 0.0
C1060 C 0.62189 0.46055 0.98161 0.0
C1061 C 0.64449 0.46665 0.9947 0.0
C1062 C 0.58743 0.4722 0.98216 0.0
C1063 C 0.57507 0.49038 0.99571 0.0
C1064 C 0.59815 0.4987 0.00827 0.0
H1065 H 0.37233 0.55765 0.0286 0.0
H1066 H 0.43258 0.53714 0.02763 0.0
C1067 C 0.63268 0.48712 0.00773 0.0
C1068 C 0.53734 0.49684 0.99759 0.0
H1069 H 0.47665 0.5609 0.00313 0.0
C1070 C 0.51507 0.46785 0.99814 0.0
C1071 C 0.52344 0.5308 0.99938 0.0
C1072 C 0.54608 0.56284 0.99839 0.0
C1073 C 0.47915 0.47191 0.00063 0.0
C1074 C 0.46526 0.50586 0.00242 0.0
C1075 C 0.48753 0.53485 0.00188 0.0
C1076 C 0.42751 0.51232 0.00428 0.0
C1077 C 0.45652 0.43986 0.00162 0.0
C1078 C 0.40447 0.50395 0.99172 0.0
C1079 C 0.36993 0.51549 0.99224 0.0
C1080 C 0.35807 0.53596 0.00526 0.0
C1081 C 0.38064 0.54212 0.01835 0.0
C1082 C 0.41512 0.53052 0.01781 0.0
H1083 H 0.47208 0.41605 0.00437 0.0
H1084 H 0.43608 0.443 0.01102 0.0
H1085 H 0.44341 0.43582 0.98982 0.0
H1086 H 0.4137 0.4903 0.98107 0.0
H1087 H 0.35328 0.51032 0.98195 0.0
H1088 H 0.8158 0.37732 0.72113 0.0
H1089 H 0.79621 0.3169 0.72204 0.0
H1090 H 0.74299 0.33714 0.767 0.0
H1091 H 0.76272 0.39768 0.76633 0.0
H1092 H 0.79254 0.2819 0.76801 0.0
H1093 H 0.7016 0.2682 0.71616 0.0
H1094 H 0.74239 0.28864 0.7114 0.0
H1095 H 0.71242 0.31001 0.72488 0.0
C1096 C 0.79916 0.36926 0.73101 0.0
C1097 C 0.79111 0.39229 0.74374 0.0
C1098 C 0.78791 0.3347 0.73148 0.0
C1099 C 0.7682 0.32267 0.74459 0.0
C1100 C 0.75824 0.34606 0.75679 0.0
H1101 H 0.696 0.12262 0.77676 0.0
H1102 H 0.71744 0.18232 0.77537 0.0
C1103 C 0.76942 0.38067 0.75634 0.0
C1104 C 0.76127 0.28503 0.74642 0.0
H1105 H 0.72059 0.21588 0.72881 0.0
C1106 C 0.77664 0.26743 0.75951 0.0
C1107 C 0.7409 0.26634 0.73519 0.0
C1108 C 0.7231 0.28424 0.72118 0.0
C1109 C 0.77237 0.2314 0.7616 0.0
C1110 C 0.75179 0.21274 0.75043 0.0
C1111 C 0.73658 0.23031 0.73729 0.0
C1112 C 0.74401 0.1753 0.75252 0.0
C1113 C 0.79029 0.21353 0.77559 0.0
C1114 C 0.7525 0.15141 0.74029 0.0
C1115 C 0.74019 0.11721 0.74101 0.0
C1116 C 0.71884 0.10651 0.7539 0.0
C1117 C 0.71233 0.12996 0.76665 0.0
C1118 C 0.72467 0.16412 0.76592 0.0
H1119 H 0.81255 0.22911 0.78018 0.0
H1120 H 0.7714 0.21031 0.78563 0.0
H1121 H 0.79996 0.18726 0.77206 0.0
H1122 H 0.76742 0.15965 0.72986 0.0
H1123 H 0.74575 0.09984 0.731 0.0
H1124 H 0.75223 0.90543 0.22831 0.0
H1125 H 0.72889 0.84631 0.22661 0.0
H1126 H 0.77026 0.82323 0.2739 0.0
H1127 H 0.79328 0.88221 0.27584 0.0
H1128 H 0.77438 0.78971 0.2272 0.0
H1129 H 0.6746 0.77723 0.27525 0.0
H1130 H 0.68906 0.81901 0.26774 0.0
H1131 H 0.71473 0.79559 0.28238 0.0
C1132 C 0.75543 0.88816 0.23857 0.0
C1133 C 0.77499 0.89842 0.25214 0.0
C1134 C 0.74217 0.85436 0.23754 0.0
C1135 C 0.74788 0.83049 0.25012 0.0
C1136 C 0.76514 0.84142 0.26416 0.0
H1137 H 0.73528 0.6093 0.26558 0.0
H1138 H 0.75196 0.67077 0.26565 0.0
C1139 C 0.77843 0.87516 0.2652 0.0
C1140 C 0.74009 0.79313 0.24778 0.0
H1141 H 0.69808 0.72392 0.26467 0.0
C1142 C 0.75734 0.77535 0.23525 0.0
C1143 C 0.71808 0.77457 0.25839 0.0
C1144 C 0.69779 0.79263 0.2716 0.0
C1145 C 0.75393 0.73918 0.23333 0.0
C1146 C 0.73253 0.72055 0.24415 0.0
C1147 C 0.71481 0.73838 0.25651 0.0
C1148 C 0.72744 0.68256 0.24275 0.0
C1149 C 0.77393 0.721 0.22006 0.0
C1150 C 0.7092 0.66879 0.22956 0.0
C1151 C 0.69966 0.6337 0.22944 0.0
C1152 C 0.70804 0.6119 0.24258 0.0
C1153 C 0.72839 0.62533 0.25527 0.0
C1154 C 0.7378 0.66047 0.25538 0.0
H1155 H 0.79488 0.73774 0.21503 0.0
H1156 H 0.78576 0.69634 0.22456 0.0
H1157 H 0.75578 0.7143 0.21009 0.0
H1158 H 0.70072 0.68558 0.21977 0.0
H1159 H 0.68405 0.6242 0.21947 0.0
H1160 H 0.63035 0.94251 0.02769 0.0
H1161 H 0.56993 0.96256 0.02657 0.0
H1162 H 0.58911 0.01034 0.98026 0.0
H1163 H 0.64975 0.9907 0.98125 0.0
H1164 H 0.54497 0.04973 0.00172 0.0
H1165 H 0.50351 0.91162 0.99477 0.0
H1166 H 0.5297 0.92038 0.0123 0.0
H1167 H 0.54826 0.92513 0.99249 0.0
C1168 C 0.62201 0.95793 0.01741 0.0
C1169 C 0.64475 0.96449 0.00442 0.0
C1170 C 0.58741 0.96914 0.01676 0.0
C1171 C 0.57502 0.987 0.00313 0.0
C1172 C 0.59825 0.99617 0.99079 0.0
H1173 H 0.37273 0.06165 0.97159 0.0
H1174 H 0.43324 0.04178 0.97241 0.0
C1175 C 0.63291 0.98502 0.99141 0.0
C1176 C 0.53744 0.99413 0.00127 0.0
H1177 H 0.45869 0.95402 0.99698 0.0
C1178 C 0.52606 0.02889 0.00064 0.0
C1179 C 0.51303 0.96671 0.9998 0.0
C1180 C 0.52415 0.92884 0.99973 0.0
C1181 C 0.49062 0.03706 0.9989 0.0
C1182 C 0.4662 0.00963 0.99745 0.0
C1183 C 0.47759 0.97487 0.99805 0.0
C1184 C 0.42857 0.01673 0.99573 0.0
C1185 C 0.47951 0.07492 0.99901 0.0
C1186 C 0.40555 0.00715 0.00809 0.0
C1187 C 0.37084 0.01817 0.00763 0.0
C1188 C 0.35874 0.03899 0.99477 0.0
C1189 C 0.38128 0.04599 0.98176 0.0
C1190 C 0.41593 0.0349 0.98224 0.0
H1191 H 0.50016 0.09211 0.00398 0.0
H1192 H 0.47397 0.08345 0.98645 0.0
H1193 H 0.45542 0.07862 0.00626 0.0
H1194 H 0.41487 0.99274 0.01851 0.0
H1195 H 0.35416 0.01216 0.0178 0.0
H1196 H 0.15328 0.9972 0.52237 0.0
H1197 H 0.09316 0.01821 0.5243 0.0
H1198 H 0.07215 0.97915 0.47644 0.0
H1199 H 0.13203 0.95794 0.47433 0.0
H1200 H 0.04778 0.06186 0.50293 0.0
H1201 H 0.00781 0.92298 0.50861 0.0
H1202 H 0.05225 0.93706 0.51147 0.0
H1203 H 0.03465 0.93318 0.49145 0.0
C1204 C 0.13619 0.99387 0.51207 0.0
C1205 C 0.14729 0.9753 0.49831 0.0
C1206 C 0.10185 0.00582 0.51323 0.0
C1207 C 0.07826 0.99938 0.50067 0.0
C1208 C 0.09 0.98373 0.48636 0.0
H1209 H 0.85852 0.01946 0.48509 0.0
H1210 H 0.91975 0.00186 0.48528 0.0
C1211 C 0.12428 0.97179 0.48517 0.0
C1212 C 0.0408 0.00621 0.50302 0.0
H1213 H 0.96258 0.96502 0.507 0.0
C1214 C 0.02908 0.04081 0.50391 0.0
C1215 C 0.01675 0.97848 0.50436 0.0
C1216 C 0.02838 0.94079 0.50406 0.0
C1217 C 0.99351 0.04851 0.50562 0.0
C1218 C 0.96937 0.02075 0.50681 0.0
C1219 C 0.98123 0.98615 0.50612 0.0
C1220 C 0.93152 0.02724 0.50798 0.0
C1221 C 0.98196 0.08623 0.50559 0.0
C1222 C 0.9176 0.04567 0.52113 0.0
C1223 C 0.88263 0.05579 0.52107 0.0
C1224 C 0.86102 0.04746 0.50789 0.0
C1225 C 0.87444 0.02647 0.49539 0.0
C1226 C 0.90946 0.01648 0.49544 0.0
H1227 H 0.00272 0.10379 0.50103 0.0
H1228 H 0.95832 0.08984 0.49801 0.0
H1229 H 0.97548 0.09434 0.51811 0.0
H1230 H 0.9341 0.05337 0.53112 0.0
H1231 H 0.87303 0.07161 0.53098 0.0
H1232 H 0.1475 0.51851 0.31593 0.0
H1233 H 0.15979 0.49948 0.34356 0.0
H1234 H 0.15233 0.39197 0.32862 0.0
H1235 H 0.14037 0.41062 0.30092 0.0
H1236 H 0.12091 0.45669 0.36486 0.0
H1237 H 0.24941 0.39747 0.34969 0.0
H1238 H 0.22671 0.42665 0.33613 0.0
H1239 H 0.21313 0.38202 0.33801 0.0
C1240 C 0.14823 0.4908 0.3185 0.0
C1241 C 0.14319 0.46612 0.30613 0.0
C1242 C 0.15529 0.47998 0.33431 0.0
C1243 C 0.15761 0.44433 0.33806 0.0
C1244 C 0.15137 0.41961 0.32591 0.0
H1245 H 0.21392 0.34202 0.42945 0.0
H1246 H 0.19654 0.35283 0.40133 0.0
C1247 C 0.14429 0.43037 0.31009 0.0
C1248 C 0.16697 0.43317 0.35467 0.0
H1249 H 0.23037 0.39211 0.3767 0.0
C1250 C 0.14479 0.4425 0.36745 0.0
C1251 C 0.19808 0.41449 0.358 0.0
C1252 C 0.22342 0.40475 0.34478 0.0
C1253 C 0.15295 0.43382 0.38349 0.0
C1254 C 0.18445 0.41589 0.38687 0.0
C1255 C 0.20626 0.40584 0.37407 0.0
C1256 C 0.19601 0.40907 0.40368 0.0
C1257 C 0.12768 0.44381 0.3967 0.0
C1258 C 0.20239 0.43711 0.41413 0.0
C1259 C 0.21233 0.43108 0.43011 0.0
C1260 C 0.21634 0.39682 0.436 0.0
C1261 C 0.211 0.36871 0.42534 0.0
C1262 C 0.20101 0.37482 0.40929 0.0
H1263 H 0.10098 0.44813 0.39188 0.0
H1264 H 0.12657 0.42336 0.4062 0.0
H1265 H 0.13641 0.46848 0.40241 0.0
H1266 H 0.19949 0.46375 0.40994 0.0
H1267 H 0.21648 0.45341 0.4379 0.0
H1268 H 0.41362 0.46244 0.67901 0.0
H1269 H 0.40499 0.44675 0.65051 0.0
H1270 H 0.2941 0.46094 0.65609 0.0
H1271 H 0.30234 0.47712 0.68422 0.0
H1272 H 0.36643 0.39173 0.63799 0.0
H1273 H 0.31374 0.51747 0.61575 0.0
H1274 H 0.33592 0.5135 0.63491 0.0
H1275 H 0.2906 0.50207 0.63316 0.0
C1276 C 0.38746 0.46267 0.67409 0.0
C1277 C 0.35872 0.47123 0.68392 0.0
C1278 C 0.38258 0.4536 0.65783 0.0
C1279 C 0.34895 0.45321 0.65111 0.0
C1280 C 0.32035 0.46185 0.66088 0.0
H1281 H 0.2384 0.38745 0.56685 0.0
H1282 H 0.25893 0.40342 0.59381 0.0
C1283 C 0.32516 0.47092 0.67705 0.0
C1284 C 0.34309 0.44227 0.63412 0.0
H1285 H 0.30224 0.46716 0.59928 0.0
C1286 C 0.35291 0.40838 0.62943 0.0
C1287 C 0.32549 0.46407 0.62295 0.0
C1288 C 0.31616 0.50142 0.62689 0.0
C1289 C 0.34413 0.39521 0.6141 0.0
C1290 C 0.32521 0.41654 0.60325 0.0
C1291 C 0.31641 0.45075 0.60773 0.0
C1292 C 0.31349 0.40373 0.58727 0.0
C1293 C 0.35394 0.35821 0.60979 0.0
C1294 C 0.33748 0.39824 0.57474 0.0
C1295 C 0.32585 0.38922 0.55927 0.0
C1296 C 0.28999 0.38552 0.55607 0.0
C1297 C 0.26617 0.38995 0.56885 0.0
C1298 C 0.27783 0.39918 0.58427 0.0
H1299 H 0.36431 0.34353 0.62034 0.0
H1300 H 0.33097 0.34415 0.6049 0.0
H1301 H 0.37422 0.35852 0.60023 0.0
H1302 H 0.3651 0.40197 0.5768 0.0
H1303 H 0.34493 0.38605 0.54973 0.0
H1304 H 0.36665 0.59182 0.80022 0.0
H1305 H 0.35442 0.61115 0.82781 0.0
H1306 H 0.34552 0.50397 0.84311 0.0
H1307 H 0.35825 0.48432 0.81566 0.0
H1308 H 0.29486 0.59909 0.84538 0.0
H1309 H 0.40949 0.54436 0.87737 0.0
H1310 H 0.40775 0.54831 0.85564 0.0
H1311 H 0.38682 0.51229 0.86562 0.0
C1312 C 0.36259 0.57229 0.80949 0.0
C1313 C 0.36355 0.53646 0.8057 0.0
C1314 C 0.35551 0.58344 0.82525 0.0
C1315 C 0.34947 0.55903 0.83757 0.0
C1316 C 0.35085 0.52327 0.83389 0.0
H1317 H 0.27655 0.55077 0.9347 0.0
H1318 H 0.29464 0.54172 0.9068 0.0
C1319 C 0.35799 0.51208 0.81814 0.0
C1320 C 0.33977 0.57085 0.85406 0.0
H1321 H 0.36124 0.56184 0.89389 0.0
C1322 C 0.30961 0.59137 0.85599 0.0
C1323 C 0.35913 0.56086 0.86786 0.0
C1324 C 0.39279 0.54054 0.86654 0.0
C1325 C 0.29746 0.60084 0.87141 0.0
C1326 C 0.31617 0.58977 0.88521 0.0
C1327 C 0.34686 0.57014 0.88326 0.0
C1328 C 0.30337 0.59638 0.90183 0.0
C1329 C 0.26399 0.62139 0.87288 0.0
C1330 C 0.30195 0.63028 0.90826 0.0
C1331 C 0.29154 0.63567 0.92432 0.0
C1332 C 0.28252 0.60718 0.93419 0.0
C1333 C 0.28334 0.57338 0.92751 0.0
C1334 C 0.29375 0.56807 0.91155 0.0
H1335 H 0.24967 0.6229 0.86123 0.0
H1336 H 0.2467 0.60949 0.88211 0.0
H1337 H 0.27001 0.64837 0.87685 0.0
H1338 H 0.30966 0.65245 0.90099 0.0
H1339 H 0.29137 0.662 0.92908 0.0
H1340 H 0.26736 0.60808 0.06569 0.0
H1341 H 0.24741 0.59441 0.093 0.0
H1342 H 0.14061 0.60608 0.07763 0.0
H1343 H 0.16022 0.6192 0.05019 0.0
H1344 H 0.20689 0.63167 0.11481 0.0
H1345 H 0.14149 0.5082 0.09708 0.0
H1346 H 0.17091 0.53101 0.08378 0.0
H1347 H 0.12696 0.5464 0.0864 0.0
C1348 C 0.23962 0.608 0.0681 0.0
C1349 C 0.21541 0.61446 0.05567 0.0
C1350 C 0.22826 0.60013 0.08373 0.0
C1351 C 0.19252 0.59851 0.08726 0.0
C1352 C 0.1683 0.60635 0.07508 0.0
H1353 H 0.09312 0.54243 0.17971 0.0
H1354 H 0.10182 0.56193 0.1517 0.0
C1355 C 0.17961 0.61411 0.05942 0.0
C1356 C 0.18083 0.5882 0.10368 0.0
H1357 H 0.13735 0.52474 0.1245 0.0
C1358 C 0.19155 0.60839 0.11691 0.0
C1359 C 0.16071 0.55783 0.1064 0.0
C1360 C 0.14953 0.53438 0.09271 0.0
C1361 C 0.18309 0.59882 0.1328 0.0
C1362 C 0.16373 0.56805 0.13553 0.0
C1363 C 0.1521 0.54836 0.12232 0.0
C1364 C 0.15775 0.55462 0.15208 0.0
C1365 C 0.19518 0.62153 0.14659 0.0
C1366 C 0.18616 0.54314 0.16131 0.0
C1367 C 0.18132 0.53186 0.17717 0.0
C1368 C 0.14788 0.53179 0.18419 0.0
C1369 C 0.1192 0.54221 0.1747 0.0
C1370 C 0.12411 0.55341 0.15873 0.0
H1371 H 0.20188 0.64825 0.14244 0.0
H1372 H 0.17484 0.62346 0.1561 0.0
H1373 H 0.21883 0.60973 0.15209 0.0
H1374 H 0.21224 0.54331 0.15629 0.0
H1375 H 0.20404 0.52384 0.18402 0.0
H1376 H 0.76853 0.55352 0.56767 0.0
H1377 H 0.78831 0.54551 0.59537 0.0
H1378 H 0.81352 0.65482 0.59851 0.0
H1379 H 0.79377 0.66331 0.57052 0.0
H1380 H 0.86011 0.56403 0.60607 0.0
H1381 H 0.75362 0.6304 0.64025 0.0
H1382 H 0.74719 0.6139 0.62002 0.0
H1383 H 0.77241 0.65258 0.62316 0.0
C1384 C 0.7779 0.57608 0.57422 0.0
C1385 C 0.77963 0.60911 0.56679 0.0
C1386 C 0.78926 0.57136 0.59008 0.0
C1387 C 0.80234 0.59953 0.59895 0.0
C1388 C 0.80325 0.6328 0.59185 0.0
H1389 H 0.87012 0.59312 0.69995 0.0
H1390 H 0.85748 0.61326 0.67253 0.0
C1391 C 0.79196 0.63758 0.57588 0.0
C1392 C 0.81643 0.59322 0.61536 0.0
H1393 H 0.7979 0.60326 0.65542 0.0
C1394 C 0.84672 0.57284 0.61689 0.0
C1395 C 0.799 0.60497 0.62938 0.0
C1396 C 0.76614 0.62657 0.62827 0.0
C1397 C 0.85976 0.56333 0.63212 0.0
C1398 C 0.84149 0.57376 0.64618 0.0
C1399 C 0.81181 0.59515 0.64464 0.0
C1400 C 0.85169 0.56144 0.66253 0.0
C1401 C 0.89302 0.54225 0.63298 0.0
C1402 C 0.85279 0.52558 0.66603 0.0
C1403 C 0.86023 0.51393 0.68167 0.0
C1404 C 0.8663 0.53794 0.69421 0.0
C1405 C 0.86564 0.57386 0.69061 0.0
C1406 C 0.85834 0.58547 0.67494 0.0
H1407 H 0.90932 0.54616 0.62203 0.0
H1408 H 0.90862 0.54924 0.6438 0.0
H1409 H 0.88648 0.5141 0.63369 0.0
H1410 H 0.84694 0.50654 0.65675 0.0
H1411 H 0.8602 0.48611 0.68401 0.0
H1412 H 0.59388 0.53638 0.32126 0.0
H1413 H 0.60442 0.55175 0.34963 0.0
H1414 H 0.71512 0.54085 0.34209 0.0
H1415 H 0.705 0.52515 0.31397 0.0
H1416 H 0.69125 0.50901 0.37048 0.0
H1417 H 0.64378 0.64597 0.36517 0.0
H1418 H 0.61383 0.61271 0.35882 0.0
H1419 H 0.65351 0.61932 0.34774 0.0
C1420 C 0.62044 0.53704 0.32568 0.0
C1421 C 0.64858 0.5297 0.31528 0.0
C1422 C 0.62642 0.54609 0.34185 0.0
C1423 C 0.66059 0.548 0.34788 0.0
C1424 C 0.68857 0.53973 0.33766 0.0
H1425 H 0.77136 0.59967 0.43539 0.0
H1426 H 0.75322 0.58457 0.40795 0.0
C1427 C 0.68267 0.53077 0.32156 0.0
C1428 C 0.66767 0.55859 0.3648 0.0
H1429 H 0.66311 0.62761 0.39089 0.0
C1430 C 0.685 0.5349 0.37497 0.0
C1431 C 0.65945 0.59238 0.37061 0.0
C1432 C 0.64186 0.61926 0.36002 0.0
C1433 C 0.69448 0.5441 0.39078 0.0
C1434 C 0.68699 0.57813 0.39647 0.0
C1435 C 0.66897 0.60161 0.38644 0.0
C1436 C 0.69802 0.58983 0.41276 0.0
C1437 C 0.7122 0.51719 0.40131 0.0
C1438 C 0.67305 0.59922 0.42437 0.0
C1439 C 0.68332 0.60809 0.44005 0.0
C1440 C 0.71881 0.6079 0.44441 0.0
C1441 C 0.74382 0.59991 0.43251 0.0
C1442 C 0.7335 0.59103 0.41684 0.0
H1443 H 0.70788 0.49026 0.39676 0.0
H1444 H 0.74069 0.52205 0.40136 0.0
H1445 H 0.70266 0.51881 0.41396 0.0
H1446 H 0.64555 0.59872 0.42141 0.0
H1447 H 0.66333 0.61422 0.44886 0.0
H1448 H 0.72299 0.45137 0.06504 0.0
H1449 H 0.70438 0.45987 0.09291 0.0
H1450 H 0.69351 0.34866 0.09882 0.0
H1451 H 0.71226 0.33968 0.07075 0.0
H1452 H 0.63807 0.43633 0.10588 0.0
H1453 H 0.75304 0.38166 0.13845 0.0
H1454 H 0.75531 0.39552 0.11761 0.0
H1455 H 0.73409 0.35539 0.12273 0.0
C1456 C 0.717 0.42856 0.07224 0.0
C1457 C 0.71913 0.39478 0.0656 0.0
C1458 C 0.70627 0.43354 0.08818 0.0
C1459 C 0.69768 0.40493 0.09791 0.0
C1460 C 0.70038 0.37107 0.09152 0.0
H1461 H 0.63703 0.40836 0.19985 0.0
H1462 H 0.64934 0.38899 0.17228 0.0
C1463 C 0.71105 0.36601 0.07548 0.0
C1464 C 0.6847 0.4111 0.11454 0.0
H1465 H 0.70712 0.40382 0.15432 0.0
C1466 C 0.65302 0.42904 0.1165 0.0
C1467 C 0.70419 0.40134 0.12832 0.0
C1468 C 0.73868 0.38258 0.1268 0.0
C1469 C 0.64047 0.43794 0.1319 0.0
C1470 C 0.66057 0.42935 0.14568 0.0
C1471 C 0.69178 0.41048 0.14373 0.0
C1472 C 0.65056 0.44103 0.16216 0.0
C1473 C 0.60573 0.45633 0.13324 0.0
C1474 C 0.647 0.47674 0.16563 0.0
C1475 C 0.63977 0.48794 0.18137 0.0
C1476 C 0.63635 0.46364 0.19401 0.0
C1477 C 0.63943 0.42782 0.19043 0.0
C1478 C 0.64655 0.41666 0.17467 0.0
H1479 H 0.58905 0.45111 0.12254 0.0
H1480 H 0.5915 0.44815 0.14429 0.0
H1481 H 0.61007 0.48491 0.13388 0.0
H1482 H 0.65077 0.49608 0.15625 0.0
H1483 H 0.63787 0.51571 0.18368 0.0
H1484 H 0.91186 0.46397 0.82115 0.0
H1485 H 0.90209 0.44795 0.84951 0.0
H1486 H 0.79115 0.45841 0.84256 0.0
H1487 H 0.80052 0.4749 0.8145 0.0
H1488 H 0.8144 0.48949 0.87075 0.0
H1489 H 0.86476 0.35363 0.86518 0.0
H1490 H 0.89426 0.38746 0.85906 0.0
H1491 H 0.85491 0.38036 0.8478 0.0
C1492 C 0.88541 0.46305 0.8257 0.0
C1493 C 0.857 0.47057 0.81549 0.0
C1494 C 0.87986 0.45362 0.84186 0.0
C1495 C 0.84585 0.4514 0.84805 0.0
C1496 C 0.8176 0.45977 0.83801 0.0
H1497 H 0.73426 0.39459 0.93425 0.0
H1498 H 0.75346 0.41014 0.90703 0.0
C1499 C 0.82307 0.46919 0.82194 0.0
C1500 C 0.83915 0.44051 0.86498 0.0
H1501 H 0.84498 0.37131 0.89094 0.0
C1502 C 0.82122 0.4637 0.87518 0.0
C1503 C 0.8481 0.40685 0.87074 0.0
C1504 C 0.86633 0.38044 0.86013 0.0
C1505 C 0.81169 0.45407 0.89092 0.0
C1506 C 0.81987 0.42015 0.89654 0.0
C1507 C 0.83862 0.39723 0.88653 0.0
C1508 C 0.80848 0.40795 0.91268 0.0
C1509 C 0.79297 0.4803 0.90145 0.0
C1510 C 0.8331 0.40024 0.9247 0.0
C1511 C 0.82224 0.39122 0.94028 0.0
C1512 C 0.78651 0.38954 0.9441 0.0
C1513 C 0.76196 0.39577 0.93179 0.0
C1514 C 0.77286 0.40487 0.91624 0.0
H1515 H 0.79624 0.50738 0.8969 0.0
H1516 H 0.76469 0.47431 0.90153 0.0
H1517 H 0.80258 0.47901 0.91409 0.0
H1518 H 0.86072 0.40224 0.92214 0.0
H1519 H 0.84189 0.38648 0.94943 0.0
H1520 H 0.63824 0.90862 0.79952 0.0
H1521 H 0.65028 0.88911 0.82711 0.0
H1522 H 0.65877 0.99621 0.84259 0.0
H1523 H 0.64622 0.01603 0.81516 0.0
H1524 H 0.70965 0.90122 0.84482 0.0
H1525 H 0.59455 0.95539 0.87664 0.0
H1526 H 0.59651 0.95157 0.85491 0.0
H1527 H 0.61718 0.98762 0.86498 0.0
C1528 C 0.64217 0.92809 0.80883 0.0
C1529 C 0.64114 0.96395 0.8051 0.0
C1530 C 0.64914 0.91685 0.82459 0.0
C1531 C 0.655 0.94118 0.83695 0.0
C1532 C 0.65357 0.97696 0.83333 0.0
H1533 H 0.72761 0.95005 0.934 0.0
H1534 H 0.7096 0.95875 0.90607 0.0
C1535 C 0.64654 0.98825 0.81759 0.0
C1536 C 0.66457 0.92928 0.85344 0.0
H1537 H 0.6428 0.93818 0.89324 0.0
C1538 C 0.69479 0.90887 0.85541 0.0
C1539 C 0.64506 0.93916 0.86722 0.0
C1540 C 0.61133 0.95934 0.86585 0.0
C1541 C 0.70688 0.89943 0.87084 0.0
C1542 C 0.68804 0.91045 0.88461 0.0
C1543 C 0.65727 0.92993 0.88263 0.0
C1544 C 0.70084 0.90403 0.90125 0.0
C1545 C 0.74041 0.87901 0.87237 0.0
C1546 C 0.70222 0.87021 0.90777 0.0
C1547 C 0.71257 0.86502 0.92385 0.0
C1548 C 0.72158 0.89364 0.93365 0.0
C1549 C 0.72083 0.92735 0.92687 0.0
C1550 C 0.71046 0.93246 0.91089 0.0
H1551 H 0.7547 0.87733 0.86072 0.0
H1552 H 0.75768 0.89114 0.88154 0.0
H1553 H 0.73449 0.85209 0.87646 0.0
H1554 H 0.69452 0.84795 0.90055 0.0
H1555 H 0.7127 0.83876 0.92869 0.0
H1556 H 0.73697 0.89506 0.06512 0.0
H1557 H 0.75707 0.9089 0.09238 0.0
H1558 H 0.86375 0.89609 0.07702 0.0
H1559 H 0.84399 0.88285 0.04962 0.0
H1560 H 0.79688 0.87162 0.11425 0.0
H1561 H 0.86424 0.99389 0.09636 0.0
H1562 H 0.83468 0.97132 0.08304 0.0
H1563 H 0.8784 0.95539 0.08581 0.0
C1564 C 0.76472 0.89494 0.06752 0.0
C1565 C 0.78885 0.88812 0.0551 0.0
C1566 C 0.77617 0.9029 0.08313 0.0
C1567 C 0.81193 0.90424 0.08665 0.0
C1568 C 0.83606 0.89606 0.07448 0.0
H1569 H 0.91074 0.95823 0.17957 0.0
H1570 H 0.90238 0.93899 0.1515 0.0
C1571 C 0.82466 0.88823 0.05883 0.0
C1572 C 0.8237 0.91454 0.10306 0.0
H1573 H 0.86797 0.97757 0.12383 0.0
C1574 C 0.81257 0.89468 0.11633 0.0
C1575 C 0.84427 0.94464 0.10575 0.0
C1576 C 0.8559 0.96777 0.09203 0.0
C1577 C 0.82101 0.90433 0.13221 0.0
C1578 C 0.84082 0.93481 0.1349 0.0
C1579 C 0.85288 0.95415 0.12167 0.0
C1580 C 0.84675 0.94835 0.15143 0.0
C1581 C 0.80835 0.88206 0.14604 0.0
C1582 C 0.81844 0.96092 0.16042 0.0
C1583 C 0.82309 0.97207 0.17631 0.0
C1584 C 0.85623 0.97089 0.18361 0.0
C1585 C 0.88488 0.95945 0.17435 0.0
C1586 C 0.88017 0.94838 0.15834 0.0
H1587 H 0.80091 0.85549 0.14194 0.0
H1588 H 0.82867 0.87968 0.15553 0.0
H1589 H 0.78505 0.89454 0.15155 0.0
H1590 H 0.79255 0.96161 0.15519 0.0
H1591 H 0.80041 0.98089 0.18298 0.0
H1592 H 0.77746 0.05122 0.4363 0.0
H1593 H 0.79312 0.04072 0.40821 0.0
H1594 H 0.8019 0.15153 0.40019 0.0
H1595 H 0.78658 0.16247 0.42855 0.0
H1596 H 0.76022 0.06367 0.37997 0.0
H1597 H 0.89619 0.1128 0.38419 0.0
H1598 H 0.87028 0.1032 0.40184 0.0
H1599 H 0.86256 0.14255 0.39058 0.0
C1600 C 0.78264 0.0735 0.42862 0.0
C1601 C 0.78093 0.10775 0.43476 0.0
C1602 C 0.79158 0.06738 0.41253 0.0
C1603 C 0.79919 0.09528 0.40218 0.0
C1604 C 0.79676 0.12959 0.40808 0.0
H1605 H 0.86222 0.08969 0.30073 0.0
H1606 H 0.84742 0.10845 0.32815 0.0
C1607 C 0.78774 0.1358 0.42425 0.0
C1608 C 0.80944 0.08793 0.38523 0.0
H1609 H 0.87759 0.09232 0.35872 0.0
C1610 C 0.78583 0.07005 0.3753 0.0
C1611 C 0.84287 0.09632 0.37917 0.0
C1612 C 0.86964 0.11454 0.38949 0.0
C1613 C 0.79479 0.06012 0.35951 0.0
C1614 C 0.8285 0.06774 0.35359 0.0
C1615 C 0.85185 0.08636 0.36335 0.0
C1616 C 0.83996 0.05617 0.33733 0.0
C1617 C 0.76799 0.04174 0.34926 0.0
C1618 C 0.84176 0.02049 0.33355 0.0
C1619 C 0.85024 0.00962 0.3179 0.0
C1620 C 0.85723 0.03426 0.30572 0.0
C1621 C 0.85687 0.06998 0.30977 0.0
C1622 C 0.8484 0.0808 0.32543 0.0
H1623 H 0.74114 0.04593 0.35393 0.0
H1624 H 0.7691 0.05088 0.33654 0.0
H1625 H 0.77339 0.01327 0.34938 0.0
H1626 H 0.83602 1.00104 0.34266 0.0
H1627 H 0.85045 0.98192 0.31527 0.0
H1628 H 0.76404 0.11671 0.56612 0.0
H1629 H 0.74402 0.10196 0.5933 0.0
H1630 H 0.63736 0.10532 0.57694 0.0
H1631 H 0.65709 0.11946 0.54963 0.0
H1632 H 0.69998 0.13604 0.61469 0.0
H1633 H 0.64479 0.00791 0.59654 0.0
H1634 H 0.6729 0.03288 0.58346 0.0
H1635 H 0.62782 0.04486 0.58569 0.0
C1636 C 0.73629 0.11459 0.56829 0.0
C1637 C 0.71222 0.11897 0.55562 0.0
C1638 C 0.7249 0.10611 0.58385 0.0
C1639 C 0.68925 0.10181 0.58706 0.0
C1640 C 0.66504 0.10766 0.57464 0.0
H1641 H 0.5905 0.0394 0.67874 0.0
H1642 H 0.59894 0.05936 0.65079 0.0
C1643 C 0.67639 0.11601 0.55905 0.0
C1644 C 0.67769 0.09071 0.60338 0.0
H1645 H 0.63824 0.02419 0.62389 0.0
C1646 C 0.68633 0.11168 0.61668 0.0
C1647 C 0.6598 0.0589 0.60596 0.0
C1648 C 0.65099 0.03463 0.5922 0.0
C1649 C 0.67798 0.10152 0.6325 0.0
C1650 C 0.66086 0.06939 0.6351 0.0
C1651 C 0.65128 0.04886 0.62181 0.0
C1652 C 0.65517 0.05561 0.6516 0.0
C1653 C 0.68781 0.12506 0.64638 0.0
C1654 C 0.68392 0.04597 0.66105 0.0
C1655 C 0.67925 0.03442 0.67688 0.0
C1656 C 0.64565 0.03224 0.68364 0.0
C1657 C 0.61671 0.04082 0.67393 0.0
C1658 C 0.62146 0.05228 0.65799 0.0
H1659 H 0.69292 0.15217 0.64226 0.0
H1660 H 0.66689 0.12566 0.65566 0.0
H1661 H 0.71188 0.1149 0.65217 0.0
H1662 H 0.7101 0.04782 0.65623 0.0
H1663 H 0.70218 0.02788 0.68391 0.0
H1664 H 0.27876 0.05122 0.06538 0.0
H1665 H 0.29736 0.04213 0.0932 0.0
H1666 H 0.3087 0.15317 0.09955 0.0
H1667 H 0.28993 0.16276 0.07153 0.0
H1668 H 0.3635 0.06454 0.10622 0.0
H1669 H 0.24955 0.12027 0.13914 0.0
H1670 H 0.24707 0.10709 0.11821 0.0
H1671 H 0.26881 0.14678 0.12359 0.0
C1672 C 0.28485 0.07388 0.07267 0.0
C1673 C 0.28284 0.10779 0.06616 0.0
C1674 C 0.29557 0.06855 0.08859 0.0
C1675 C 0.30429 0.09694 0.09843 0.0
C1676 C 0.30171 0.13093 0.09217 0.0
H1677 H 0.3666 0.09258 0.20011 0.0
H1678 H 0.35394 0.11193 0.17257 0.0
C1679 C 0.29102 0.13634 0.07616 0.0
C1680 C 0.31733 0.09039 0.11502 0.0
H1681 H 0.29553 0.09773 0.15487 0.0
C1682 C 0.34878 0.07196 0.11688 0.0
C1683 C 0.29814 0.1003 0.12887 0.0
C1684 C 0.26388 0.11953 0.12748 0.0
C1685 C 0.36139 0.06278 0.13223 0.0
C1686 C 0.3416 0.0716 0.14608 0.0
C1687 C 0.31062 0.0909 0.14424 0.0
C1688 C 0.35176 0.05985 0.16253 0.0
C1689 C 0.39587 0.04387 0.13346 0.0
C1690 C 0.3549 0.02411 0.16605 0.0
C1691 C 0.36232 0.01291 0.18176 0.0
C1692 C 0.36638 0.03725 0.19435 0.0
C1693 C 0.36371 0.07308 0.19073 0.0
C1694 C 0.35639 0.08423 0.17499 0.0
H1695 H 0.41244 0.04877 0.12269 0.0
H1696 H 0.41042 0.0519 0.14444 0.0
H1697 H 0.39111 0.01537 0.13417 0.0
H1698 H 0.35067 0.00477 0.15671 0.0
H1699 H 0.3639 0.98514 0.18411 0.0
H1700 H 0.26637 0.1124 0.93463 0.0
H1701 H 0.24696 0.09905 0.90724 0.0
H1702 H 0.13987 0.1029 0.92298 0.0
H1703 H 0.15901 0.11575 0.95053 0.0
H1704 H 0.1549 0.04393 0.90532 0.0
H1705 H 0.20254 0.16119 0.87319 0.0
H1706 H 0.236 0.14007 0.88481 0.0
H1707 H 0.19907 0.15923 0.89493 0.0
C1708 C 0.23866 0.11091 0.93227 0.0
C1709 C 0.21429 0.11522 0.94483 0.0
C1710 C 0.22759 0.10343 0.91656 0.0
C1711 C 0.19194 0.10042 0.91301 0.0
C1712 C 0.1675 0.10526 0.92543 0.0
H1713 H 0.09116 0.03744 0.82186 0.0
H1714 H 0.10016 0.05621 0.84991 0.0
C1715 C 0.17853 0.1127 0.94117 0.0
C1716 C 0.18041 0.0902 0.89656 0.0
H1717 H 0.18773 0.11204 0.8567 0.0
C1718 C 0.16164 0.05904 0.89469 0.0
C1719 C 0.18912 0.11002 0.88272 0.0
C1720 C 0.20748 0.14467 0.88399 0.0
C1721 C 0.15271 0.0464 0.8793 0.0
C1722 C 0.16254 0.06562 0.86546 0.0
C1723 C 0.18039 0.09727 0.86735 0.0
C1724 C 0.15641 0.0525 0.84886 0.0
C1725 C 0.13409 0.01193 0.87788 0.0
C1726 C 0.185 0.04419 0.83904 0.0
C1727 C 0.18 0.03348 0.82309 0.0
C1728 C 0.14622 0.03109 0.81654 0.0
C1729 C 0.11749 0.03883 0.82652 0.0
C1730 C 0.12257 0.04951 0.84256 0.0
H1731 H 0.13357 0.99755 0.88954 0.0
H1732 H 0.10679 0.01665 0.874 0.0
H1733 H 0.1468 0.99521 0.86861 0.0
H1734 H 0.21131 0.04631 0.84369 0.0
H1735 H 0.20278 0.02774 0.81582 0.0
H1736 H 0.13481 0.9083 0.70039 0.0
H1737 H 0.15072 0.88866 0.6732 0.0
H1738 H 0.165 0.99549 0.65838 0.0
H1739 H 0.14908 0.01551 0.68546 0.0
H1740 H 0.12111 0.90997 0.641 0.0
H1741 H 0.2607 0.94298 0.65 0.0
H1742 H 0.2308 0.9371 0.66664 0.0
H1743 H 0.22997 0.9768 0.65512 0.0
C1744 C 0.14096 0.9277 0.69131 0.0
C1745 C 0.14087 0.96352 0.69517 0.0
C1746 C 0.15004 0.91638 0.67579 0.0
C1747 C 0.15948 0.94061 0.6639 0.0
C1748 C 0.15818 0.97638 0.66749 0.0
H1749 H 0.23492 0.9496 0.56754 0.0
H1750 H 0.21827 0.95731 0.59566 0.0
C1751 C 0.1489 0.98777 0.68296 0.0
C1752 C 0.17178 0.92863 0.64787 0.0
H1753 H 0.24344 0.92764 0.62344 0.0
C1754 C 0.1479 0.91346 0.63716 0.0
C1755 C 0.20679 0.9331 0.64301 0.0
C1756 C 0.23373 0.94812 0.6543 0.0
C1757 C 0.15779 0.9041 0.62137 0.0
C1758 C 0.19267 0.90939 0.61636 0.0
C1759 C 0.21675 0.92356 0.6273 0.0
C1760 C 0.20409 0.90334 0.59944 0.0
C1761 C 0.13047 0.89016 0.60998 0.0
C1762 C 0.20243 0.87014 0.59225 0.0
C1763 C 0.2119 0.86557 0.57601 0.0
C1764 C 0.22336 0.89412 0.56674 0.0
C1765 C 0.22608 0.927 0.57423 0.0
C1766 C 0.21658 0.93151 0.59036 0.0
H1767 H 0.10364 0.89456 0.61462 0.0
H1768 H 0.13272 0.9026 0.5979 0.0
H1769 H 0.13435 0.86163 0.60845 0.0
H1770 H 0.19357 0.84786 0.59915 0.0
H1771 H 0.20961 0.83989 0.57066 0.0
H1772 H 0.29903 0.97438 0.31447 0.0
H1773 H 0.28916 0.95715 0.34243 0.0
H1774 H 0.39988 0.94515 0.34954 0.0
H1775 H 0.41022 0.96274 0.32144 0.0
H1776 H 0.30885 0.89276 0.35627 0.0
H1777 H 0.36867 0.00511 0.38845 0.0
H1778 H 0.35708 0.00692 0.36731 0.0
H1779 H 0.39556 0.98381 0.3736 0.0
C1780 C 0.32143 0.96844 0.32197 0.0
C1781 C 0.35548 0.96996 0.31566 0.0
C1782 C 0.31567 0.95851 0.33796 0.0
C1783 C 0.34375 0.95005 0.34808 0.0
C1784 C 0.37786 0.95206 0.34199 0.0
H1785 H 0.34002 0.88704 0.4497 0.0
H1786 H 0.35881 0.89889 0.42201 0.0
C1787 C 0.3837 0.96204 0.32592 0.0
C1788 C 0.33681 0.93779 0.36477 0.0
H1789 H 0.34636 0.95957 0.40454 0.0
C1790 C 0.31716 0.90728 0.36684 0.0
C1791 C 0.34786 0.95669 0.37851 0.0
C1792 C 0.36825 0.99011 0.37696 0.0
C1793 C 0.30794 0.89531 0.38228 0.0
C1794 C 0.31812 0.91473 0.39602 0.0
C1795 C 0.33855 0.94475 0.39398 0.0
C1796 C 0.3066 0.90522 0.41256 0.0
C1797 C 0.28751 0.86189 0.38375 0.0
C1798 C 0.27099 0.90472 0.41643 0.0
C1799 C 0.26011 0.89786 0.43224 0.0
C1800 C 0.28467 0.89162 0.44454 0.0
C1801 C 0.32035 0.89161 0.44055 0.0
C1802 C 0.33119 0.89848 0.42472 0.0
H1803 H 0.29077 0.84514 0.37288 0.0
H1804 H 0.29563 0.84678 0.39458 0.0
H1805 H 0.25939 0.86827 0.38494 0.0
H1806 H 0.25158 0.91055 0.40731 0.0
H1807 H 0.23246 0.89833 0.43486 0.0
H1808 H 0.01904 0.6 0.237 0.0
H1809 H 0.9918 0.65796 0.23803 0.0
H1810 H 0.07137 0.69242 0.2712 0.0
H1811 H 0.09731 0.63434 0.27093 0.0
H1812 H 0.0136 0.71853 0.28022 0.0
H1813 H 0.02365 0.74163 0.21438 0.0
H1814 H 0.9975 0.70421 0.21885 0.0
H1815 H 0.04317 0.70414 0.22398 0.0
C1816 C 0.03044 0.61989 0.24463 0.0
C1817 C 0.06033 0.61254 0.25387 0.0
C1818 C 0.01512 0.65316 0.24507 0.0
C1819 C 0.03005 0.68004 0.25433 0.0
C1820 C 0.05935 0.67233 0.26389 0.0
H1821 H 0.98309 0.90073 0.2375 0.0
H1822 H 0.01116 0.8432 0.23897 0.0
C1823 C 0.07414 0.63898 0.26375 0.0
C1824 C 0.01545 0.71619 0.25421 0.0
H1825 H 0.99043 0.78301 0.22938 0.0
C1826 C 0.00875 0.73266 0.26908 0.0
C1827 C 0.0098 0.73513 0.23972 0.0
C1828 C 0.01927 0.72052 0.22335 0.0
C1829 C 0.99632 0.76716 0.26988 0.0
C1830 C 0.98877 0.78537 0.25538 0.0
C1831 C 0.99584 0.76907 0.24051 0.0
C1832 C 0.97306 0.82104 0.25531 0.0
C1833 C 0.99247 0.78389 0.28631 0.0
C1834 C 0.94237 0.82797 0.264 0.0
C1835 C 0.92689 0.86102 0.26352 0.0
C1836 C 0.94109 0.8877 0.25391 0.0
C1837 C 0.97165 0.88078 0.24509 0.0
C1838 C 0.9876 0.84785 0.24587 0.0
H1839 H 0.01063 0.77197 0.29522 0.0
H1840 H 0.9975 0.81238 0.28583 0.0
H1841 H 0.96557 0.77966 0.2908 0.0
H1842 H 0.9298 0.80757 0.2709 0.0
H1843 H 0.90294 0.86521 0.2702 0.0
H1844 H 0.13983 0.28487 0.47718 0.0
H1845 H 0.07973 0.26403 0.47783 0.0
H1846 H 0.07633 0.28027 0.52937 0.0
H1847 H 0.13621 0.30172 0.52884 0.0
H1848 H 0.04617 0.21084 0.49386 0.0
H1849 H 0.99462 0.33958 0.51362 0.0
H1850 H 0.03871 0.33368 0.50651 0.0
H1851 H 0.02722 0.32165 0.52682 0.0
C1852 C 0.12656 0.28354 0.48871 0.0
C1853 C 0.14287 0.29535 0.50293 0.0
C1854 C 0.0921 0.27173 0.48905 0.0
C1855 C 0.07321 0.27151 0.50358 0.0
C1856 C 0.09007 0.28116 0.51794 0.0
H1857 H 0.86475 0.20145 0.52791 0.0
H1858 H 0.92444 0.22377 0.52851 0.0
C1859 C 0.12449 0.29308 0.51763 0.0
C1860 C 0.0357 0.26193 0.5036 0.0
H1861 H 0.95418 0.29282 0.51265 0.0
C1862 C 0.02608 0.2288 0.49792 0.0
C1863 C 0.00942 0.28553 0.5088 0.0
C1864 C 0.01787 0.32222 0.51414 0.0
C1865 C 0.991 0.21845 0.49755 0.0
C1866 C 0.96489 0.24186 0.50293 0.0
C1867 C 0.97437 0.27496 0.5086 0.0
C1868 C 0.92758 0.23209 0.50272 0.0
C1869 C 0.98195 0.18239 0.49159 0.0
C1870 C 0.90928 0.23056 0.48807 0.0
C1871 C 0.87506 0.2181 0.48767 0.0
C1872 C 0.85859 0.20671 0.50193 0.0
C1873 C 0.87657 0.20992 0.5167 0.0
C1874 C 0.91072 0.22261 0.51708 0.0
H1875 H 0.00551 0.16607 0.48947 0.0
H1876 H 0.9649 0.16902 0.50047 0.0
H1877 H 0.96729 0.18449 0.48007 0.0
H1878 H 0.92186 0.23802 0.47688 0.0
H1879 H 0.86213 0.21597 0.47608 0.0
H1880 H 0.42926 0.3773 0.77719 0.0
H1881 H 0.4544 0.31869 0.77804 0.0
H1882 H 0.49926 0.33419 0.73084 0.0
H1883 H 0.47422 0.39303 0.72982 0.0
H1884 H 0.43897 0.2652 0.7547 0.0
H1885 H 0.58062 0.29409 0.75866 0.0
H1886 H 0.54748 0.32585 0.76377 0.0
H1887 H 0.55715 0.31665 0.74297 0.0
C1888 C 0.44497 0.3686 0.76708 0.0
C1889 C 0.44966 0.39001 0.75341 0.0
C1890 C 0.45919 0.33497 0.76758 0.0
C1891 C 0.47874 0.32214 0.75454 0.0
C1892 C 0.48456 0.34375 0.74112 0.0
H1893 H 0.52967 0.10732 0.72968 0.0
H1894 H 0.50445 0.16607 0.7308 0.0
C1895 C 0.47018 0.37739 0.74055 0.0
C1896 C 0.49125 0.28545 0.75463 0.0
H1897 H 0.56482 0.235 0.75466 0.0
C1898 C 0.46648 0.25855 0.75472 0.0
C1899 C 0.52712 0.27692 0.75475 0.0
C1900 C 0.55475 0.30481 0.75516 0.0
C1901 C 0.47667 0.22328 0.75475 0.0
C1902 C 0.51254 0.21475 0.7546 0.0
C1903 C 0.53731 0.24165 0.7547 0.0
C1904 C 0.52507 0.17807 0.75448 0.0
C1905 C 0.44905 0.19539 0.75516 0.0
C1906 C 0.54471 0.16522 0.76749 0.0
C1907 C 0.55903 0.13164 0.76693 0.0
C1908 C 0.55435 0.11029 0.75325 0.0
C1909 C 0.5337 0.12291 0.74043 0.0
C1910 C 0.51923 0.1565 0.74104 0.0
H1911 H 0.42319 0.20609 0.75868 0.0
H1912 H 0.44661 0.18359 0.74296 0.0
H1913 H 0.45635 0.17432 0.76375 0.0
H1914 H 0.54952 0.18147 0.77796 0.0
H1915 H 0.57484 0.12294 0.77702 0.0
H1916 H 0.64489 0.77802 0.97911 0.0
H1917 H 0.5857 0.75434 0.97981 0.0
H1918 H 0.5702 0.79849 0.02718 0.0
H1919 H 0.62915 0.82227 0.02666 0.0
H1920 H 0.55144 0.70915 0.00314 0.0
H1921 H 0.49049 0.84073 0.99876 0.0
H1922 H 0.53572 0.83279 0.9939 0.0
H1923 H 0.52212 0.83554 0.01462 0.0
C1924 C 0.62911 0.78231 0.98978 0.0
C1925 C 0.64182 0.80228 0.00278 0.0
C1926 C 0.59525 0.76882 0.99014 0.0
C1927 C 0.57339 0.77526 0.00341 0.0
C1928 C 0.58646 0.79376 0.0167 0.0
H1929 H 0.37495 0.67998 0.02694 0.0
H1930 H 0.43378 0.70406 0.02739 0.0
C1931 C 0.62032 0.80711 0.01641 0.0
C1932 C 0.53663 0.76338 0.00322 0.0
H1933 H 0.45245 0.79302 0.00307 0.0
C1934 C 0.52978 0.72744 0.00312 0.0
C1935 C 0.50846 0.78737 0.00299 0.0
C1936 C 0.51438 0.82628 0.00244 0.0
C1937 C 0.49544 0.71481 0.00309 0.0
C1938 C 0.46727 0.73879 0.00329 0.0
C1939 C 0.47411 0.77473 0.00308 0.0
C1940 C 0.43052 0.72688 0.00354 0.0
C1941 C 0.48953 0.6759 0.00265 0.0
C1942 C 0.40865 0.73298 0.99023 0.0
C1943 C 0.37485 0.71931 0.98991 0.0
C1944 C 0.36222 0.69948 0.00298 0.0
C1945 C 0.38372 0.69501 0.01663 0.0
C1946 C 0.4175 0.70854 0.01689 0.0
H1947 H 0.51341 0.66139 0.99901 0.0
H1948 H 0.4818 0.66681 0.01486 0.0
H1949 H 0.46818 0.66929 0.99413 0.0
H1950 H 0.41814 0.74732 0.97985 0.0
H1951 H 0.35908 0.72334 0.97922 0.0
H1952 H 0.05865 0.11553 0.72242 0.0
H1953 H 0.0347 0.17485 0.7216 0.0
H1954 H 0.01503 0.17069 0.77281 0.0
H1955 H 0.03865 0.11128 0.77383 0.0
H1956 H 0.96171 0.20195 0.73754 0.0
H1957 H 0.08691 0.2569 0.76008 0.0
H1958 H 0.08526 0.21638 0.74893 0.0
H1959 H 0.07004 0.21791 0.76938 0.0
C1960 C 0.04867 0.12691 0.73348 0.0
C1961 C 0.05074 0.10858 0.74821 0.0
C1962 C 0.03507 0.16085 0.73297 0.0
C1963 C 0.02349 0.17713 0.74717 0.0
C1964 C 0.02404 0.15851 0.76175 0.0
H1965 H 0.96472 0.38813 0.77306 0.0
H1966 H 0.98752 0.32851 0.77214 0.0
C1967 C 0.03741 0.12449 0.76227 0.0
C1968 C 0.01246 0.21419 0.74691 0.0
H1969 H 0.04068 0.29643 0.75575 0.0
C1970 C 0.97891 0.22269 0.74145 0.0
C1971 C 0.03501 0.24099 0.75212 0.0
C1972 C 0.07143 0.2329 0.75792 0.0
C1973 C 0.96706 0.25747 0.7413 0.0
C1974 C 0.98977 0.28447 0.74635 0.0
C1975 C 0.02338 0.27581 0.7518 0.0
C1976 C 0.97874 0.32172 0.7465 0.0
C1977 C 0.92997 0.26481 0.7362 0.0
C1978 C 0.96755 0.33829 0.73227 0.0
C1979 C 0.95439 0.37239 0.73275 0.0
C1980 C 0.9525 0.39079 0.74746 0.0
C1981 C 0.96572 0.37482 0.76152 0.0
C1982 C 0.97868 0.34064 0.76103 0.0
H1983 H 0.91353 0.24105 0.73692 0.0
H1984 H 0.91801 0.28546 0.74384 0.0
H1985 H 0.92978 0.27395 0.72348 0.0
H1986 H 0.96828 0.32457 0.72083 0.0
H1987 H 0.94473 0.38391 0.72166 0.0
H1988 H 0.84857 0.73546 0.51289 0.0
H1989 H 0.90534 0.76439 0.51133 0.0
H1990 H 0.94228 0.68387 0.47905 0.0
H1991 H 0.88537 0.65608 0.47988 0.0
H1992 H 0.96591 0.74393 0.52078 0.0
H1993 H 0.97607 0.76593 0.45505 0.0
H1994 H 0.93602 0.75221 0.46444 0.0
H1995 H 0.96916 0.72062 0.45922 0.0
C1996 C 0.86862 0.72436 0.50521 0.0
C1997 C 0.86229 0.69372 0.49636 0.0
C1998 C 0.90112 0.74083 0.50437 0.0
C1999 C 0.92808 0.72676 0.49482 0.0
C2000 C 0.92173 0.69605 0.48605 0.0
H2001 H 0.14833 0.77036 0.5129 0.0
H2002 H 0.09011 0.74441 0.51181 0.0
C2003 C 0.88911 0.68003 0.48661 0.0
C2004 C 0.96339 0.74289 0.49477 0.0
H2005 H 0.02962 0.76873 0.46997 0.0
C2006 C 0.97967 0.74969 0.50965 0.0
C2007 C 0.98134 0.75098 0.48029 0.0
C2008 C 0.96455 0.74741 0.46388 0.0
C2009 C 0.01341 0.76373 0.51046 0.0
C2010 C 0.03217 0.76977 0.49598 0.0
C2011 C 0.01565 0.76354 0.4811 0.0
C2012 C 0.06836 0.78385 0.49592 0.0
C2013 C 0.02806 0.77276 0.52686 0.0
C2014 C 0.07628 0.81345 0.48662 0.0
C2015 C 0.1098 0.82756 0.4868 0.0
C2016 C 0.13614 0.8127 0.49646 0.0
C2017 C 0.12852 0.78256 0.50545 0.0
C2018 C 0.0951 0.76796 0.50498 0.0
H2019 H 0.007 0.77717 0.53586 0.0
H2020 H 0.04432 0.75072 0.53127 0.0
H2021 H 0.04445 0.79655 0.52633 0.0
H2022 H 0.05627 0.82619 0.47948 0.0
H2023 H 0.11468 0.85097 0.47982 0.0
H2024 H 0.54242 0.61367 0.27444 0.0
H2025 H 0.51959 0.67337 0.2737 0.0
H2026 H 0.52961 0.67456 0.22183 0.0
H2027 H 0.55267 0.61492 0.22239 0.0
H2028 H 0.56031 0.73171 0.25877 0.0
H2029 H 0.42844 0.71309 0.23219 0.0
H2030 H 0.45149 0.67848 0.24255 0.0
H2031 H 0.46421 0.69086 0.2225 0.0
C2032 C 0.53912 0.62627 0.26282 0.0
C2033 C 0.54945 0.6094 0.24847 0.0
C2034 C 0.52624 0.66049 0.26245 0.0
C2035 C 0.52292 0.67831 0.24772 0.0
C2036 C 0.53174 0.66113 0.23331 0.0
H2037 H 0.45 0.88656 0.22253 0.0
H2038 H 0.4746 0.82763 0.22186 0.0
C2039 C 0.54492 0.62702 0.23367 0.0
C2040 C 0.51244 0.71561 0.24752 0.0
H2041 H 0.4471 0.77106 0.23612 0.0
C2042 C 0.53553 0.7404 0.25386 0.0
C2043 C 0.48031 0.72677 0.24095 0.0
C2044 C 0.45445 0.70102 0.23423 0.0
C2045 C 0.52746 0.77622 0.25369 0.0
C2046 C 0.495 0.78744 0.24736 0.0
C2047 C 0.47201 0.76253 0.24094 0.0
C2048 C 0.48382 0.82468 0.24762 0.0
C2049 C 0.55415 0.80169 0.25995 0.0
C2050 C 0.4814 0.843 0.26229 0.0
C2051 C 0.4677 0.8769 0.2627 0.0
C2052 C 0.45558 0.89304 0.24847 0.0
C2053 C 0.45909 0.87503 0.23372 0.0
C2054 C 0.47302 0.84123 0.23332 0.0
H2055 H 0.58091 0.7905 0.25947 0.0
H2056 H 0.55374 0.82638 0.25292 0.0
H2057 H 0.54826 0.8079 0.27276 0.0
H2058 H 0.4888 0.83059 0.27354 0.0
H2059 H 0.46509 0.88976 0.27429 0.0
H2060 H 0.37265 0.18271 0.9732 0.0
H2061 H 0.43159 0.20647 0.97264 0.0
H2062 H 0.41734 0.24804 0.02059 0.0
H2063 H 0.35816 0.22433 0.02135 0.0
H2064 H 0.45136 0.29436 0.99733 0.0
H2065 H 0.51152 0.16224 0.00051 0.0
H2066 H 0.47945 0.16821 0.9849 0.0
H2067 H 0.4665 0.17035 0.00573 0.0
C2068 C 0.38174 0.19732 0.98358 0.0
C2069 C 0.36061 0.20137 0.99738 0.0
C2070 C 0.41558 0.21066 0.98326 0.0
C2071 C 0.42901 0.2284 0.99669 0.0
C2072 C 0.4075 0.23415 0.01015 0.0
H2073 H 0.64391 0.27861 0.02044 0.0
H2074 H 0.58471 0.25495 0.0199 0.0
C2075 C 0.37365 0.22065 0.01054 0.0
C2076 C 0.46582 0.24005 0.99684 0.0
H2077 H 0.54978 0.20984 0.99646 0.0
C2078 C 0.4729 0.27593 0.99715 0.0
C2079 C 0.49382 0.21587 0.9968 0.0
C2080 C 0.48763 0.17699 0.9971 0.0
C2081 C 0.50732 0.28833 0.99711 0.0
C2082 C 0.53532 0.26416 0.99665 0.0
C2083 C 0.52825 0.22826 0.99666 0.0
C2084 C 0.57213 0.27582 0.99632 0.0
C2085 C 0.51352 0.32718 0.99775 0.0
C2086 C 0.58505 0.29426 0.98298 0.0
C2087 C 0.61891 0.30759 0.98318 0.0
C2088 C 0.64056 0.30282 0.99676 0.0
C2089 C 0.62802 0.28286 0.00979 0.0
C2090 C 0.59415 0.26938 0.00954 0.0
H2091 H 0.48979 0.34178 0.00152 0.0
H2092 H 0.53501 0.3334 0.00626 0.0
H2093 H 0.5212 0.33653 0.98558 0.0
H2094 H 0.56864 0.299 0.97255 0.0
H2095 H 0.62761 0.32274 0.9729 0.0
loop_
_geom_bond_atom_site_label_1
_geom_bond_atom_site_label_2
_geom_bond_distance
_geom_bond_site_symmetry_2
_ccdc_geom_bond_type
O0 Zn1 1.953 . S
O0 C16 1.225 . S
Zn1 O0 1.953 . S
Zn1 O2 1.949 . S
Zn1 O8 1.919 . S
Zn1 O13 1.924 . S
O2 Zn1 1.949 . S
O2 Zn3 1.923 . S
O2 Zn4 1.950 . S
O2 Zn5 1.945 . S
Zn3 O2 1.923 . S
Zn3 O6 1.933 . S
Zn3 O9 1.941 . S
Zn3 O10 1.965 . S
Zn4 O2 1.950 . S
Zn4 O11 1.938 . S
Zn4 O12 1.906 . S
Zn4 O22 1.953 . S
Zn5 O2 1.945 . S
Zn5 O7 1.932 . S
Zn5 O14 1.977 . S
Zn5 O15 1.910 . S
O6 Zn3 1.933 . S
O6 C17 1.226 . S
O7 Zn5 1.932 . S
O7 C17 1.307 . S
O8 Zn1 1.919 . S
O8 C19 1.253 . S
O9 Zn3 1.941 . S
O9 C19 1.283 . S
O10 Zn3 1.965 . S
O10 C18 1.303 . S
O11 Zn4 1.938 . S
O11 C18 1.247 . S
O12 Zn4 1.906 . S
O12 C20 1.304 . S
O13 Zn1 1.924 . S
O13 C21 1.311 . S
O14 Zn5 1.977 . S
O14 C20 1.272 . S
O15 Zn5 1.910 . S
O15 C21 1.231 . S
C16 O0 1.225 . S
C16 O22 1.298 . S
C17 O6 1.226 . S
C17 O7 1.307 . S
C18 O10 1.303 . S
C18 O11 1.247 . S
C19 O8 1.253 . S
C19 O9 1.283 . S
C20 O12 1.304 . S
C20 O14 1.272 . S
C21 O13 1.311 . S
C21 O15 1.231 . S
O22 Zn4 1.953 . S
O22 C16 1.298 . S
O23 Zn24 1.953 . S
O23 C39 1.225 . S
Zn24 O23 1.953 . S
Zn24 O25 1.949 . S
Zn24 O31 1.919 . S
Zn24 O36 1.924 . S
O25 Zn24 1.949 . S
O25 Zn26 1.923 . S
O25 Zn27 1.950 . S
O25 Zn28 1.945 . S
Zn26 O25 1.923 . S
Zn26 O29 1.933 . S
Zn26 O32 1.941 . S
Zn26 O33 1.965 . S
Zn27 O25 1.950 . S
Zn27 O34 1.938 . S
Zn27 O35 1.906 . S
Zn27 O45 1.953 . S
Zn28 O25 1.945 . S
Zn28 O30 1.932 . S
Zn28 O37 1.977 . S
Zn28 O38 1.910 . S
O29 Zn26 1.933 . S
O29 C40 1.226 . S
O30 Zn28 1.932 . S
O30 C40 1.307 . S
O31 Zn24 1.919 . S
O31 C42 1.253 . S
O32 Zn26 1.941 . S
O32 C42 1.283 . S
O33 Zn26 1.965 . S
O33 C41 1.303 . S
O34 Zn27 1.938 . S
O34 C41 1.247 . S
O35 Zn27 1.906 . S
O35 C43 1.304 . S
O36 Zn24 1.924 . S
O36 C44 1.311 . S
O37 Zn28 1.977 . S
O37 C43 1.272 . S
O38 Zn28 1.910 . S
O38 C44 1.231 . S
C39 O23 1.225 . S
C39 O45 1.298 . S
C40 O29 1.226 . S
C40 O30 1.307 . S
C41 O33 1.303 . S
C41 O34 1.247 . S
C42 O31 1.253 . S
C42 O32 1.283 . S
C43 O35 1.304 . S
C43 O37 1.272 . S
C44 O36 1.311 . S
C44 O38 1.231 . S
O45 Zn27 1.953 . S
O45 C39 1.298 . S
O46 Zn47 1.953 . S
O46 C62 1.225 . S
Zn47 O46 1.953 . S
Zn47 O48 1.949 . S
Zn47 O54 1.919 . S
Zn47 O59 1.924 . S
O48 Zn47 1.949 . S
O48 Zn49 1.923 . S
O48 Zn50 1.950 . S
O48 Zn51 1.945 . S
Zn49 O48 1.923 . S
Zn49 O52 1.933 . S
Zn49 O55 1.941 . S
Zn49 O56 1.965 . S
Zn50 O48 1.950 . S
Zn50 O57 1.938 . S
Zn50 O58 1.906 . S
Zn50 O68 1.953 . S
Zn51 O48 1.945 . S
Zn51 O53 1.932 . S
Zn51 O60 1.977 . S
Zn51 O61 1.910 . S
O52 Zn49 1.933 . S
O52 C63 1.226 . S
O53 Zn51 1.932 . S
O53 C63 1.307 . S
O54 Zn47 1.919 . S
O54 C65 1.253 . S
O55 Zn49 1.941 . S
O55 C65 1.283 . S
O56 Zn49 1.965 . S
O56 C64 1.303 . S
O57 Zn50 1.938 . S
O57 C64 1.247 . S
O58 Zn50 1.906 . S
O58 C66 1.304 . S
O59 Zn47 1.924 . S
O59 C67 1.311 . S
O60 Zn51 1.977 . S
O60 C66 1.272 . S
O61 Zn51 1.910 . S
O61 C67 1.231 . S
C62 O46 1.225 . S
C62 O68 1.298 . S
C63 O52 1.226 . S
C63 O53 1.307 . S
C64 O56 1.303 . S
C64 O57 1.247 . S
C65 O54 1.253 . S
C65 O55 1.283 . S
C66 O58 1.304 . S
C66 O60 1.272 . S
C67 O59 1.311 . S
C67 O61 1.231 . S
O68 Zn50 1.953 . S
O68 C62 1.298 . S
O69 Zn70 1.953 . S
O69 C85 1.225 . S
Zn70 O69 1.953 . S
Zn70 O71 1.940 1_554 S
Zn70 O77 1.919 . S
Zn70 O82 1.924 . S
O71 Zn70 1.940 1_556 S
O71 Zn72 1.919 1_556 S
O71 Zn73 1.958 . S
O71 Zn74 1.949 . S
Zn72 O71 1.919 1_554 S
Zn72 O75 1.933 . S
Zn72 O78 1.941 . S
Zn72 O79 1.965 . S
Zn73 O71 1.958 . S
Zn73 O80 1.938 . S
Zn73 O81 1.906 . S
Zn73 O91 1.953 . S
Zn74 O71 1.949 . S
Zn74 O76 1.932 . S
Zn74 O83 1.977 . S
Zn74 O84 1.910 . S
O75 Zn72 1.933 . S
O75 C86 1.226 1_554 S
O76 Zn74 1.932 . S
O76 C86 1.307 . S
O77 Zn70 1.919 . S
O77 C88 1.253 . S
O78 Zn72 1.941 . S
O78 C88 1.283 . S
O79 Zn72 1.965 . S
O79 C87 1.303 1_554 S
O80 Zn73 1.938 . S
O80 C87 1.247 . S
O81 Zn73 1.906 . S
O81 C89 1.304 . S
O82 Zn70 1.924 . S
O82 C90 1.311 . S
O83 Zn74 1.977 . S
O83 C89 1.272 . S
O84 Zn74 1.910 . S
O84 C90 1.231 1_556 S
C85 O69 1.225 . S
C85 O91 1.298 1_554 S
C86 O75 1.226 1_556 S
C86 O76 1.307 . S
C87 O79 1.303 1_556 S
C87 O80 1.247 . S
C88 O77 1.253 . S
C88 O78 1.283 . S
C89 O81 1.304 . S
C89 O83 1.272 . S
C90 O82 1.311 . S
C90 O84 1.231 1_554 S
O91 Zn73 1.953 . S
O91 C85 1.298 1_556 S
O92 Zn93 1.953 . S
O92 C108 1.225 . S
Zn93 O92 1.953 . S
Zn93 O94 1.949 . S
Zn93 O100 1.919 . S
Zn93 O105 1.924 . S
O94 Zn93 1.949 . S
O94 Zn95 1.923 . S
O94 Zn96 1.950 . S
O94 Zn97 1.945 . S
Zn95 O94 1.923 . S
Zn95 O98 1.933 . S
Zn95 O101 1.941 . S
Zn95 O102 1.965 . S
Zn96 O94 1.950 . S
Zn96 O103 1.938 . S
Zn96 O104 1.906 . S
Zn96 O114 1.953 . S
Zn97 O94 1.945 . S
Zn97 O99 1.932 . S
Zn97 O106 1.977 . S
Zn97 O107 1.910 . S
O98 Zn95 1.933 . S
O98 C109 1.226 . S
O99 Zn97 1.932 . S
O99 C109 1.307 . S
O100 Zn93 1.919 . S
O100 C111 1.253 . S
O101 Zn95 1.941 . S
O101 C111 1.283 . S
O102 Zn95 1.965 . S
O102 C110 1.303 . S
O103 Zn96 1.938 . S
O103 C110 1.247 . S
O104 Zn96 1.906 . S
O104 C112 1.304 . S
O105 Zn93 1.924 . S
O105 C113 1.311 . S
O106 Zn97 1.977 . S
O106 C112 1.272 . S
O107 Zn97 1.910 . S
O107 C113 1.231 . S
C108 O92 1.225 . S
C108 O114 1.298 . S
C109 O98 1.226 . S
C109 O99 1.307 . S
C110 O102 1.303 . S
C110 O103 1.247 . S
C111 O100 1.253 . S
C111 O101 1.283 . S
C112 O104 1.304 . S
C112 O106 1.272 . S
C113 O105 1.311 . S
C113 O107 1.231 . S
O114 Zn96 1.953 . S
O114 C108 1.298 . S
O115 Zn116 1.953 . S
O115 C131 1.225 . S
Zn116 O115 1.953 . S
Zn116 O117 1.949 . S
Zn116 O123 1.919 . S
Zn116 O128 1.924 . S
O117 Zn116 1.949 . S
O117 Zn118 1.923 . S
O117 Zn119 1.950 . S
O117 Zn120 1.945 . S
Zn118 O117 1.923 . S
Zn118 O121 1.933 . S
Zn118 O124 1.941 . S
Zn118 O125 1.965 . S
Zn119 O117 1.950 . S
Zn119 O126 1.938 . S
Zn119 O127 1.906 . S
Zn119 O137 1.953 . S
Zn120 O117 1.945 . S
Zn120 O122 1.932 . S
Zn120 O129 1.977 . S
Zn120 O130 1.910 . S
O121 Zn118 1.933 . S
O121 C132 1.226 . S
O122 Zn120 1.932 . S
O122 C132 1.307 . S
O123 Zn116 1.919 . S
O123 C134 1.253 . S
O124 Zn118 1.941 . S
O124 C134 1.283 . S
O125 Zn118 1.965 . S
O125 C133 1.303 . S
O126 Zn119 1.938 . S
O126 C133 1.247 . S
O127 Zn119 1.906 . S
O127 C135 1.304 . S
O128 Zn116 1.924 . S
O128 C136 1.311 . S
O129 Zn120 1.977 . S
O129 C135 1.272 . S
O130 Zn120 1.910 . S
O130 C136 1.231 . S
C131 O115 1.225 . S
C131 O137 1.298 . S
C132 O121 1.226 . S
C132 O122 1.307 . S
C133 O125 1.303 . S
C133 O126 1.247 . S
C134 O123 1.253 . S
C134 O124 1.283 . S
C135 O127 1.304 . S
C135 O129 1.272 . S
C136 O128 1.311 . S
C136 O130 1.231 . S
O137 Zn119 1.953 . S
O137 C131 1.298 . S
O138 Zn139 1.953 . S
O138 C154 1.225 . S
Zn139 O138 1.953 . S
Zn139 O140 1.949 . S
Zn139 O146 1.919 . S
Zn139 O151 1.924 . S
O140 Zn139 1.949 . S
O140 Zn141 1.923 . S
O140 Zn142 1.950 . S
O140 Zn143 1.945 . S
Zn141 O140 1.923 . S
Zn141 O144 1.933 . S
Zn141 O147 1.941 . S
Zn141 O148 1.965 . S
Zn142 O140 1.950 . S
Zn142 O149 1.938 . S
Zn142 O150 1.906 . S
Zn142 O160 1.953 . S
Zn143 O140 1.945 . S
Zn143 O145 1.932 . S
Zn143 O152 1.977 . S
Zn143 O153 1.910 . S
O144 Zn141 1.933 . S
O144 C155 1.226 . S
O145 Zn143 1.932 . S
O145 C155 1.307 . S
O146 Zn139 1.919 . S
O146 C157 1.253 . S
O147 Zn141 1.941 . S
O147 C157 1.283 . S
O148 Zn141 1.965 . S
O148 C156 1.303 . S
O149 Zn142 1.938 . S
O149 C156 1.247 . S
O150 Zn142 1.906 . S
O150 C158 1.304 . S
O151 Zn139 1.924 . S
O151 C159 1.311 . S
O152 Zn143 1.977 . S
O152 C158 1.272 . S
O153 Zn143 1.910 . S
O153 C159 1.231 . S
C154 O138 1.225 . S
C154 O160 1.298 . S
C155 O144 1.226 . S
C155 O145 1.307 . S
C156 O148 1.303 . S
C156 O149 1.247 . S
C157 O146 1.253 . S
C157 O147 1.283 . S
C158 O150 1.304 . S
C158 O152 1.272 . S
C159 O151 1.311 . S
C159 O153 1.231 . S
O160 Zn142 1.953 . S
O160 C154 1.298 . S
O161 Zn162 1.953 . S
O161 C177 1.225 . S
Zn162 O161 1.953 . S
Zn162 O163 1.940 1_556 S
Zn162 O169 1.919 . S
Zn162 O174 1.924 . S
O163 Zn162 1.940 1_554 S
O163 Zn164 1.919 1_554 S
O163 Zn165 1.958 . S
O163 Zn166 1.949 . S
Zn164 O163 1.919 1_556 S
Zn164 O167 1.933 . S
Zn164 O170 1.941 . S
Zn164 O171 1.965 . S
Zn165 O163 1.958 . S
Zn165 O172 1.938 . S
Zn165 O173 1.906 . S
Zn165 O183 1.953 . S
Zn166 O163 1.949 . S
Zn166 O168 1.932 . S
Zn166 O175 1.977 . S
Zn166 O176 1.910 . S
O167 Zn164 1.933 . S
O167 C178 1.226 1_556 S
O168 Zn166 1.932 . S
O168 C178 1.307 . S
O169 Zn162 1.919 . S
O169 C180 1.253 . S
O170 Zn164 1.941 . S
O170 C180 1.283 . S
O171 Zn164 1.965 . S
O171 C179 1.303 1_556 S
O172 Zn165 1.938 . S
O172 C179 1.247 . S
O173 Zn165 1.906 . S
O173 C181 1.304 . S
O174 Zn162 1.924 . S
O174 C182 1.311 . S
O175 Zn166 1.977 . S
O175 C181 1.272 . S
O176 Zn166 1.910 . S
O176 C182 1.231 1_554 S
C177 O161 1.225 . S
C177 O183 1.298 1_556 S
C178 O167 1.226 1_554 S
C178 O168 1.307 . S
C179 O171 1.303 1_554 S
C179 O172 1.247 . S
C180 O169 1.253 . S
C180 O170 1.283 . S
C181 O173 1.304 . S
C181 O175 1.272 . S
C182 O174 1.311 . S
C182 O176 1.231 1_556 S
O183 Zn165 1.953 . S
O183 C177 1.298 1_554 S
O184 Zn185 1.953 . S
O184 C200 1.225 . S
Zn185 O184 1.953 . S
Zn185 O186 1.949 . S
Zn185 O192 1.919 . S
Zn185 O197 1.924 . S
O186 Zn185 1.949 . S
O186 Zn187 1.923 1_545 S
O186 Zn188 1.950 . S
O186 Zn189 1.945 . S
Zn187 O186 1.923 1_565 S
Zn187 O190 1.933 . S
Zn187 O193 1.941 . S
Zn187 O194 1.965 . S
Zn188 O186 1.950 . S
Zn188 O195 1.938 1_545 S
Zn188 O196 1.906 . S
Zn188 O206 1.953 . S
Zn189 O186 1.945 . S
Zn189 O191 1.927 1_545 S
Zn189 O198 1.977 . S
Zn189 O199 1.910 . S
O190 Zn187 1.933 . S
O190 C201 1.226 . S
O191 Zn189 1.927 1_565 S
O191 C201 1.312 . S
O192 Zn185 1.919 . S
O192 C203 1.253 . S
O193 Zn187 1.941 . S
O193 C203 1.283 1_565 S
O194 Zn187 1.965 . S
O194 C202 1.303 . S
O195 Zn188 1.938 1_565 S
O195 C202 1.247 . S
O196 Zn188 1.906 . S
O196 C204 1.304 . S
O197 Zn185 1.924 . S
O197 C205 1.311 . S
O198 Zn189 1.977 . S
O198 C204 1.272 . S
O199 Zn189 1.910 . S
O199 C205 1.231 . S
C200 O184 1.225 . S
C200 O206 1.298 . S
C201 O190 1.226 . S
C201 O191 1.312 . S
C202 O194 1.303 . S
C202 O195 1.247 . S
C203 O192 1.253 . S
C203 O193 1.283 1_545 S
C204 O196 1.304 . S
C204 O198 1.272 . S
C205 O197 1.311 . S
C205 O199 1.231 . S
O206 Zn188 1.953 . S
O206 C200 1.298 . S
O207 Zn208 1.953 . S
O207 C223 1.225 . S
Zn208 O207 1.953 . S
Zn208 O209 1.940 1_554 S
Zn208 O215 1.919 . S
Zn208 O220 1.924 . S
O209 Zn208 1.940 1_556 S
O209 Zn210 1.919 1_556 S
O209 Zn211 1.958 . S
O209 Zn212 1.949 . S
Zn210 O209 1.919 1_554 S
Zn210 O213 1.933 . S
Zn210 O216 1.941 . S
Zn210 O217 1.965 . S
Zn211 O209 1.958 . S
Zn211 O218 1.938 . S
Zn211 O219 1.906 . S
Zn211 O229 1.953 . S
Zn212 O209 1.949 . S
Zn212 O214 1.932 . S
Zn212 O221 1.977 . S
Zn212 O222 1.910 . S
O213 Zn210 1.933 . S
O213 C224 1.226 1_554 S
O214 Zn212 1.932 . S
O214 C224 1.307 . S
O215 Zn208 1.919 . S
O215 C226 1.253 . S
O216 Zn210 1.941 . S
O216 C226 1.283 . S
O217 Zn210 1.965 . S
O217 C225 1.303 1_554 S
O218 Zn211 1.938 . S
O218 C225 1.247 . S
O219 Zn211 1.906 . S
O219 C227 1.304 . S
O220 Zn208 1.924 . S
O220 C228 1.311 . S
O221 Zn212 1.977 . S
O221 C227 1.272 . S
O222 Zn212 1.910 . S
O222 C228 1.231 1_556 S
C223 O207 1.225 . S
C223 O229 1.298 1_554 S
C224 O213 1.226 1_556 S
C224 O214 1.307 . S
C225 O217 1.303 1_556 S
C225 O218 1.247 . S
C226 O215 1.253 . S
C226 O216 1.283 . S
C227 O219 1.304 . S
C227 O221 1.272 . S
C228 O220 1.311 . S
C228 O222 1.231 1_554 S
O229 Zn211 1.953 . S
O229 C223 1.298 1_556 S
O230 Zn231 1.953 . S
O230 C246 1.225 . S
Zn231 O230 1.953 . S
Zn231 O232 1.949 . S
Zn231 O238 1.919 . S
Zn231 O243 1.924 . S
O232 Zn231 1.949 . S
O232 Zn233 1.923 1_565 S
O232 Zn234 1.950 . S
O232 Zn235 1.945 . S
Zn233 O232 1.923 1_545 S
Zn233 O236 1.933 . S
Zn233 O239 1.941 . S
Zn233 O240 1.965 . S
Zn234 O232 1.950 . S
Zn234 O241 1.938 1_565 S
Zn234 O242 1.906 . S
Zn234 O252 1.953 . S
Zn235 O232 1.945 . S
Zn235 O237 1.933 1_565 S
Zn235 O244 1.977 . S
Zn235 O245 1.910 . S
O236 Zn233 1.933 . S
O236 C247 1.226 . S
O237 Zn235 1.933 1_545 S
O237 C247 1.306 . S
O238 Zn231 1.919 . S
O238 C249 1.253 . S
O239 Zn233 1.941 . S
O239 C249 1.283 1_545 S
O240 Zn233 1.965 . S
O240 C248 1.303 . S
O241 Zn234 1.938 1_545 S
O241 C248 1.247 . S
O242 Zn234 1.906 . S
O242 C250 1.304 . S
O243 Zn231 1.924 . S
O243 C251 1.311 . S
O244 Zn235 1.977 . S
O244 C250 1.272 . S
O245 Zn235 1.910 . S
O245 C251 1.231 . S
C246 O230 1.225 . S
C246 O252 1.298 . S
C247 O236 1.226 . S
C247 O237 1.306 . S
C248 O240 1.303 . S
C248 O241 1.247 . S
C249 O238 1.253 . S
C249 O239 1.283 1_565 S
C250 O242 1.304 . S
C250 O244 1.272 . S
C251 O243 1.311 . S
C251 O245 1.231 . S
O252 Zn234 1.953 . S
O252 C246 1.298 . S
O253 Zn254 1.953 . S
O253 C269 1.225 . S
Zn254 O253 1.953 . S
Zn254 O255 1.949 . S
Zn254 O261 1.919 . S
Zn254 O266 1.924 . S
O255 Zn254 1.949 . S
O255 Zn256 1.923 . S
O255 Zn257 1.950 . S
O255 Zn258 1.945 . S
Zn256 O255 1.923 . S
Zn256 O259 1.933 . S
Zn256 O262 1.941 . S
Zn256 O263 1.965 . S
Zn257 O255 1.950 . S
Zn257 O264 1.938 . S
Zn257 O265 1.906 . S
Zn257 O275 1.953 . S
Zn258 O255 1.945 . S
Zn258 O260 1.932 . S
Zn258 O267 1.977 . S
Zn258 O268 1.910 . S
O259 Zn256 1.933 . S
O259 C270 1.226 . S
O260 Zn258 1.932 . S
O260 C270 1.307 . S
O261 Zn254 1.919 . S
O261 C272 1.253 . S
O262 Zn256 1.941 . S
O262 C272 1.283 . S
O263 Zn256 1.965 . S
O263 C271 1.303 . S
O264 Zn257 1.938 . S
O264 C271 1.247 . S
O265 Zn257 1.906 . S
O265 C273 1.304 . S
O266 Zn254 1.924 . S
O266 C274 1.311 . S
O267 Zn258 1.977 . S
O267 C273 1.272 . S
O268 Zn258 1.910 . S
O268 C274 1.231 . S
C269 O253 1.225 . S
C269 O275 1.298 . S
C270 O259 1.226 . S
C270 O260 1.307 . S
C271 O263 1.303 . S
C271 O264 1.247 . S
C272 O261 1.253 . S
C272 O262 1.283 . S
C273 O265 1.304 . S
C273 O267 1.272 . S
C274 O266 1.311 . S
C274 O268 1.231 . S
O275 Zn257 1.953 . S
O275 C269 1.298 . S
O276 Zn277 1.953 . S
O276 C292 1.225 . S
Zn277 O276 1.953 . S
Zn277 O278 1.949 . S
Zn277 O284 1.919 . S
Zn277 O289 1.924 . S
O278 Zn277 1.949 . S
O278 Zn279 1.923 1_565 S
O278 Zn280 1.950 . S
O278 Zn281 1.945 . S
Zn279 O278 1.923 1_545 S
Zn279 O282 1.933 . S
Zn279 O285 1.941 . S
Zn279 O286 1.965 . S
Zn280 O278 1.950 . S
Zn280 O287 1.938 1_565 S
Zn280 O288 1.906 . S
Zn280 O298 1.953 . S
Zn281 O278 1.945 . S
Zn281 O283 1.927 1_565 S
Zn281 O290 1.977 . S
Zn281 O291 1.910 . S
O282 Zn279 1.933 . S
O282 C293 1.226 . S
O283 Zn281 1.927 1_545 S
O283 C293 1.312 . S
O284 Zn277 1.919 . S
O284 C295 1.253 . S
O285 Zn279 1.941 . S
O285 C295 1.283 1_545 S
O286 Zn279 1.965 . S
O286 C294 1.303 . S
O287 Zn280 1.938 1_545 S
O287 C294 1.247 . S
O288 Zn280 1.906 . S
O288 C296 1.304 . S
O289 Zn277 1.924 . S
O289 C297 1.311 . S
O290 Zn281 1.977 . S
O290 C296 1.272 . S
O291 Zn281 1.910 . S
O291 C297 1.231 . S
C292 O276 1.225 . S
C292 O298 1.298 . S
C293 O282 1.226 . S
C293 O283 1.312 . S
C294 O286 1.303 . S
C294 O287 1.247 . S
C295 O284 1.253 . S
C295 O285 1.283 1_565 S
C296 O288 1.304 . S
C296 O290 1.272 . S
C297 O289 1.311 . S
C297 O291 1.231 . S
O298 Zn280 1.953 . S
O298 C292 1.298 . S
O299 Zn300 1.953 . S
O299 C315 1.225 . S
Zn300 O299 1.953 . S
Zn300 O301 1.940 1_556 S
Zn300 O307 1.919 . S
Zn300 O312 1.924 . S
O301 Zn300 1.940 1_554 S
O301 Zn302 1.919 1_554 S
O301 Zn303 1.958 . S
O301 Zn304 1.949 . S
Zn302 O301 1.919 1_556 S
Zn302 O305 1.933 . S
Zn302 O308 1.941 . S
Zn302 O309 1.965 . S
Zn303 O301 1.958 . S
Zn303 O310 1.938 . S
Zn303 O311 1.906 . S
Zn303 O321 1.953 . S
Zn304 O301 1.949 . S
Zn304 O306 1.932 . S
Zn304 O313 1.977 . S
Zn304 O314 1.910 . S
O305 Zn302 1.933 . S
O305 C316 1.226 1_556 S
O306 Zn304 1.932 . S
O306 C316 1.307 . S
O307 Zn300 1.919 . S
O307 C318 1.253 . S
O308 Zn302 1.941 . S
O308 C318 1.283 . S
O309 Zn302 1.965 . S
O309 C317 1.303 1_556 S
O310 Zn303 1.938 . S
O310 C317 1.247 . S
O311 Zn303 1.906 . S
O311 C319 1.304 . S
O312 Zn300 1.924 . S
O312 C320 1.311 . S
O313 Zn304 1.977 . S
O313 C319 1.272 . S
O314 Zn304 1.910 . S
O314 C320 1.231 1_554 S
C315 O299 1.225 . S
C315 O321 1.298 1_556 S
C316 O305 1.226 1_554 S
C316 O306 1.307 . S
C317 O309 1.303 1_554 S
C317 O310 1.247 . S
C318 O307 1.253 . S
C318 O308 1.283 . S
C319 O311 1.304 . S
C319 O313 1.272 . S
C320 O312 1.311 . S
C320 O314 1.231 1_556 S
O321 Zn303 1.953 . S
O321 C315 1.298 1_554 S
O322 Zn323 1.953 . S
O322 C338 1.225 . S
Zn323 O322 1.953 . S
Zn323 O324 1.949 . S
Zn323 O330 1.919 . S
Zn323 O335 1.924 . S
O324 Zn323 1.949 . S
O324 Zn325 1.923 1_545 S
O324 Zn326 1.950 . S
O324 Zn327 1.945 . S
Zn325 O324 1.923 1_565 S
Zn325 O328 1.933 . S
Zn325 O331 1.941 . S
Zn325 O332 1.965 . S
Zn326 O324 1.950 . S
Zn326 O333 1.938 1_545 S
Zn326 O334 1.906 . S
Zn326 O344 1.953 . S
Zn327 O324 1.945 . S
Zn327 O329 1.933 1_545 S
Zn327 O336 1.977 . S
Zn327 O337 1.910 . S
O328 Zn325 1.933 . S
O328 C339 1.226 . S
O329 Zn327 1.933 1_565 S
O329 C339 1.306 . S
O330 Zn323 1.919 . S
O330 C341 1.253 . S
O331 Zn325 1.941 . S
O331 C341 1.283 1_565 S
O332 Zn325 1.965 . S
O332 C340 1.303 . S
O333 Zn326 1.938 1_565 S
O333 C340 1.247 . S
O334 Zn326 1.906 . S
O334 C342 1.304 . S
O335 Zn323 1.924 . S
O335 C343 1.311 . S
O336 Zn327 1.977 . S
O336 C342 1.272 . S
O337 Zn327 1.910 . S
O337 C343 1.231 . S
C338 O322 1.225 . S
C338 O344 1.298 . S
C339 O328 1.226 . S
C339 O329 1.306 . S
C340 O332 1.303 . S
C340 O333 1.247 . S
C341 O330 1.253 . S
C341 O331 1.283 1_545 S
C342 O334 1.304 . S
C342 O336 1.272 . S
C343 O335 1.311 . S
C343 O337 1.231 . S
O344 Zn326 1.953 . S
O344 C338 1.298 . S
O345 Zn346 1.953 . S
O345 C361 1.225 . S
Zn346 O345 1.953 . S
Zn346 O347 1.949 . S
Zn346 O353 1.919 . S
Zn346 O358 1.924 . S
O347 Zn346 1.949 . S
O347 Zn348 1.923 . S
O347 Zn349 1.950 . S
O347 Zn350 1.945 . S
Zn348 O347 1.923 . S
Zn348 O351 1.933 . S
Zn348 O354 1.941 . S
Zn348 O355 1.965 . S
Zn349 O347 1.950 . S
Zn349 O356 1.938 . S
Zn349 O357 1.906 . S
Zn349 O367 1.953 . S
Zn350 O347 1.945 . S
Zn350 O352 1.932 . S
Zn350 O359 1.977 . S
Zn350 O360 1.910 . S
O351 Zn348 1.933 . S
O351 C362 1.226 . S
O352 Zn350 1.932 . S
O352 C362 1.307 . S
O353 Zn346 1.919 . S
O353 C364 1.253 . S
O354 Zn348 1.941 . S
O354 C364 1.283 . S
O355 Zn348 1.965 . S
O355 C363 1.303 . S
O356 Zn349 1.938 . S
O356 C363 1.247 . S
O357 Zn349 1.906 . S
O357 C365 1.304 . S
O358 Zn346 1.924 . S
O358 C366 1.311 . S
O359 Zn350 1.977 . S
O359 C365 1.272 . S
O360 Zn350 1.910 . S
O360 C366 1.231 . S
C361 O345 1.225 . S
C361 O367 1.298 . S
C362 O351 1.226 . S
C362 O352 1.307 . S
C363 O355 1.303 . S
C363 O356 1.247 . S
C364 O353 1.253 . S
C364 O354 1.283 . S
C365 O357 1.304 . S
C365 O359 1.272 . S
C366 O358 1.311 . S
C366 O360 1.231 . S
O367 Zn349 1.953 . S
O367 C361 1.298 . S
H368 C376 0.929 . S
H369 C378 0.930 . S
H370 C380 0.930 . S
H371 C383 0.929 . S
H372 C386 0.930 . S
H373 C388 0.960 . S
H374 C388 0.960 . S
H375 C388 0.960 . S
C376 H368 0.929 . S
C376 C377 1.377 . S
C376 C378 1.384 . S
C377 C376 1.377 . S
C377 C383 1.390 . S
C378 H369 0.930 . S
C378 C376 1.384 . S
C378 C379 1.372 . S
C379 C378 1.372 . S
C379 C380 1.400 . S
C379 C384 1.490 . S
C380 H370 0.930 . S
C380 C379 1.400 . S
C380 C383 1.386 . S
H381 C397 0.930 . S
H382 C398 0.931 . S
C383 H371 0.929 . S
C383 C377 1.390 . S
C383 C380 1.386 . S
C384 C379 1.490 . S
C384 C386 1.395 . S
C384 C387 1.403 . S
H385 C391 0.930 . S
C386 H372 0.930 . S
C386 C384 1.395 . S
C386 C389 1.403 . S
C387 C384 1.403 . S
C387 C388 1.524 . S
C387 C391 1.400 . S
C388 H373 0.960 . S
C388 H374 0.960 . S
C388 H375 0.960 . S
C388 C387 1.524 . S
C389 C386 1.403 . S
C389 C390 1.392 . S
C389 C393 1.495 . S
C390 C389 1.392 . S
C390 C391 1.385 . S
C390 C392 1.478 . S
C391 H385 0.930 . S
C391 C387 1.400 . S
C391 C390 1.385 . S
C392 C390 1.478 . S
C392 C394 1.381 . S
C392 C398 1.383 . S
C393 C389 1.495 . S
C393 H399 0.959 . S
C393 H400 0.961 . S
C393 H401 0.960 . S
C394 C392 1.381 . S
C394 C395 1.394 . S
C394 H402 0.930 . S
C395 C394 1.394 . S
C395 C396 1.383 . S
C395 H403 0.929 . S
C396 C395 1.383 . S
C396 C397 1.377 . S
C397 H381 0.930 . S
C397 C396 1.377 . S
C397 C398 1.379 . S
C398 H382 0.931 . S
C398 C392 1.383 . S
C398 C397 1.379 . S
H399 C393 0.959 . S
H400 C393 0.961 . S
H401 C393 0.960 . S
H402 C394 0.930 . S
H403 C395 0.929 . S
H404 C412 0.929 . S
H405 C414 0.930 . S
H406 C416 0.930 . S
H407 C419 0.929 . S
H408 C422 0.930 . S
H409 C424 0.960 . S
H410 C424 0.960 . S
H411 C424 0.960 . S
C412 H404 0.929 . S
C412 C413 1.377 . S
C412 C414 1.384 . S
C413 C412 1.377 . S
C413 C419 1.390 . S
C414 H405 0.930 . S
C414 C412 1.384 . S
C414 C415 1.372 . S
C415 C414 1.372 . S
C415 C416 1.400 . S
C415 C420 1.490 . S
C416 H406 0.930 . S
C416 C415 1.400 . S
C416 C419 1.386 . S
H417 C433 0.930 . S
H418 C434 0.931 . S
C419 H407 0.929 . S
C419 C413 1.390 . S
C419 C416 1.386 . S
C420 C415 1.490 . S
C420 C422 1.395 . S
C420 C423 1.403 . S
H421 C427 0.930 . S
C422 H408 0.930 . S
C422 C420 1.395 . S
C422 C425 1.403 . S
C423 C420 1.403 . S
C423 C424 1.524 . S
C423 C427 1.400 . S
C424 H409 0.960 . S
C424 H410 0.960 . S
C424 H411 0.960 . S
C424 C423 1.524 . S
C425 C422 1.403 . S
C425 C426 1.392 . S
C425 C429 1.495 . S
C426 C425 1.392 . S
C426 C427 1.385 . S
C426 C428 1.478 . S
C427 H421 0.930 . S
C427 C423 1.400 . S
C427 C426 1.385 . S
C428 C426 1.478 . S
C428 C430 1.381 . S
C428 C434 1.383 . S
C429 C425 1.495 . S
C429 H435 0.959 . S
C429 H436 0.961 . S
C429 H437 0.960 . S
C430 C428 1.381 . S
C430 C431 1.394 . S
C430 H438 0.930 . S
C431 C430 1.394 . S
C431 C432 1.383 . S
C431 H439 0.929 . S
C432 C431 1.383 . S
C432 C433 1.377 . S
C433 H417 0.930 . S
C433 C432 1.377 . S
C433 C434 1.379 . S
C434 H418 0.931 . S
C434 C428 1.383 . S
C434 C433 1.379 . S
H435 C429 0.959 . S
H436 C429 0.961 . S
H437 C429 0.960 . S
H438 C430 0.930 . S
H439 C431 0.929 . S
H440 C448 0.929 . S
H441 C450 0.930 . S
H442 C452 0.930 . S
H443 C455 0.929 . S
H444 C458 0.930 . S
H445 C460 0.960 . S
H446 C460 0.960 . S
H447 C460 0.960 . S
C448 H440 0.929 . S
C448 C449 1.377 . S
C448 C450 1.384 . S
C449 C448 1.377 . S
C449 C455 1.390 . S
C450 H441 0.930 . S
C450 C448 1.384 . S
C450 C451 1.372 . S
C451 C450 1.372 . S
C451 C452 1.400 . S
C451 C456 1.490 . S
C452 H442 0.930 . S
C452 C451 1.400 . S
C452 C455 1.386 . S
H453 C469 0.930 . S
H454 C470 0.931 1_455 S
C455 H443 0.929 . S
C455 C449 1.390 . S
C455 C452 1.386 . S
C456 C451 1.490 . S
C456 C458 1.395 . S
C456 C459 1.403 . S
H457 C463 0.930 . S
C458 H444 0.930 . S
C458 C456 1.395 . S
C458 C461 1.403 . S
C459 C456 1.403 . S
C459 C460 1.524 . S
C459 C463 1.400 . S
C460 H445 0.960 . S
C460 H446 0.960 . S
C460 H447 0.960 . S
C460 C459 1.524 . S
C461 C458 1.403 . S
C461 C462 1.392 . S
C461 C465 1.495 . S
C462 C461 1.392 . S
C462 C463 1.385 . S
C462 C464 1.478 . S
C463 H457 0.930 . S
C463 C459 1.400 . S
C463 C462 1.385 . S
C464 C462 1.478 . S
C464 C466 1.381 1_455 S
C464 C470 1.383 1_455 S
C465 C461 1.495 . S
C465 H471 0.959 . S
C465 H472 0.961 . S
C465 H473 0.960 . S
C466 C464 1.381 1_655 S
C466 C467 1.394 . S
C466 H474 0.930 . S
C467 C466 1.394 . S
C467 C468 1.383 . S
C467 H475 0.929 . S
C468 C467 1.383 . S
C468 C469 1.377 . S
C469 H453 0.930 . S
C469 C468 1.377 . S
C469 C470 1.379 . S
C470 H454 0.931 1_655 S
C470 C464 1.383 1_655 S
C470 C469 1.379 . S
H471 C465 0.959 . S
H472 C465 0.961 . S
H473 C465 0.960 . S
H474 C466 0.930 . S
H475 C467 0.929 . S
H476 C484 0.929 . S
H477 C486 0.930 . S
H478 C488 0.930 . S
H479 C491 0.929 . S
H480 C494 0.930 . S
H481 C496 0.965 . S
H482 C496 0.903 1_556 S
H483 C496 1.017 . S
C484 H476 0.929 . S
C484 C485 1.377 1_556 S
C484 C486 1.384 . S
C485 C484 1.377 1_554 S
C485 C491 1.390 . S
C486 H477 0.930 . S
C486 C484 1.384 . S
C486 C487 1.342 1_556 S
C487 C486 1.342 1_554 S
C487 C488 1.432 . S
C487 C492 1.489 . S
C488 H478 0.930 . S
C488 C487 1.432 . S
C488 C491 1.386 . S
H489 C505 0.930 . S
H490 C506 0.931 . S
C491 H479 0.929 . S
C491 C485 1.390 . S
C491 C488 1.386 . S
C492 C487 1.489 . S
C492 C494 1.395 1_554 S
C492 C495 1.402 . S
H493 C499 0.932 . S
C494 H480 0.930 . S
C494 C492 1.395 1_556 S
C494 C497 1.403 . S
C495 C492 1.402 . S
C495 C496 1.523 . S
C495 C499 1.400 . S
C496 H481 0.965 . S
C496 H482 0.903 1_554 S
C496 H483 1.017 . S
C496 C495 1.523 . S
C497 C494 1.403 . S
C497 C498 1.394 . S
C497 C501 1.495 . S
C498 C497 1.394 . S
C498 C499 1.383 1_556 S
C498 C500 1.478 . S
C499 H493 0.932 . S
C499 C495 1.400 . S
C499 C498 1.383 1_554 S
C500 C498 1.478 . S
C500 C502 1.411 . S
C500 C506 1.353 1_556 S
C501 C497 1.495 . S
C501 H507 0.959 . S
C501 H508 0.961 1_556 S
C501 H509 0.960 . S
C502 C500 1.411 . S
C502 C503 1.394 . S
C502 H510 0.930 . S
C503 C502 1.394 . S
C503 C504 1.383 . S
C503 H511 0.929 . S
C504 C503 1.383 . S
C504 C505 1.377 1_556 S
C505 H489 0.930 . S
C505 C504 1.377 1_554 S
C505 C506 1.379 . S
C506 H490 0.931 . S
C506 C500 1.353 1_554 S
C506 C505 1.379 . S
H507 C501 0.959 . S
H508 C501 0.961 1_554 S
H509 C501 0.960 . S
H510 C502 0.930 . S
H511 C503 0.929 . S
H512 C520 0.929 . S
H513 C522 0.930 . S
H514 C524 0.930 . S
H515 C527 0.929 . S
H516 C530 0.930 . S
H517 C532 0.960 . S
H518 C532 0.960 . S
H519 C532 0.960 . S
C520 H512 0.929 . S
C520 C521 1.377 . S
C520 C522 1.384 . S
C521 C520 1.377 . S
C521 C527 1.390 . S
C522 H513 0.930 . S
C522 C520 1.384 . S
C522 C523 1.372 . S
C523 C522 1.372 . S
C523 C524 1.400 . S
C523 C528 1.490 . S
C524 H514 0.930 . S
C524 C523 1.400 . S
C524 C527 1.386 . S
H525 C541 0.930 . S
H526 C542 0.931 . S
C527 H515 0.929 . S
C527 C521 1.390 . S
C527 C524 1.386 . S
C528 C523 1.490 . S
C528 C530 1.395 . S
C528 C531 1.403 . S
H529 C535 0.930 . S
C530 H516 0.930 . S
C530 C528 1.395 . S
C530 C533 1.403 . S
C531 C528 1.403 . S
C531 C532 1.524 . S
C531 C535 1.400 . S
C532 H517 0.960 . S
C532 H518 0.960 . S
C532 H519 0.960 . S
C532 C531 1.524 . S
C533 C530 1.403 . S
C533 C534 1.392 . S
C533 C537 1.495 . S
C534 C533 1.392 . S
C534 C535 1.385 . S
C534 C536 1.478 . S
C535 H529 0.930 . S
C535 C531 1.400 . S
C535 C534 1.385 . S
C536 C534 1.478 . S
C536 C538 1.381 . S
C536 C542 1.383 . S
C537 C533 1.495 . S
C537 H543 0.959 . S
C537 H544 0.961 . S
C537 H545 0.960 . S
C538 C536 1.381 . S
C538 C539 1.394 . S
C538 H546 0.930 . S
C539 C538 1.394 . S
C539 C540 1.383 . S
C539 H547 0.929 . S
C540 C539 1.383 . S
C540 C541 1.377 . S
C541 H525 0.930 . S
C541 C540 1.377 . S
C541 C542 1.379 . S
C542 H526 0.931 . S
C542 C536 1.383 . S
C542 C541 1.379 . S
H543 C537 0.959 . S
H544 C537 0.961 . S
H545 C537 0.960 . S
H546 C538 0.930 . S
H547 C539 0.929 . S
H548 C556 0.929 . S
H549 C558 0.930 . S
H550 C560 0.930 . S
H551 C563 0.929 . S
H552 C566 0.930 . S
H553 C568 0.960 . S
H554 C568 0.960 . S
H555 C568 0.960 . S
C556 H548 0.929 . S
C556 C557 1.377 . S
C556 C558 1.384 . S
C557 C556 1.377 . S
C557 C563 1.390 . S
C558 H549 0.930 . S
C558 C556 1.384 . S
C558 C559 1.372 . S
C559 C558 1.372 . S
C559 C560 1.400 . S
C559 C564 1.490 . S
C560 H550 0.930 . S
C560 C559 1.400 . S
C560 C563 1.386 . S
H561 C577 0.930 . S
H562 C578 0.931 . S
C563 H551 0.929 . S
C563 C557 1.390 . S
C563 C560 1.386 . S
C564 C559 1.490 . S
C564 C566 1.395 . S
C564 C567 1.403 . S
H565 C571 0.930 . S
C566 H552 0.930 . S
C566 C564 1.395 . S
C566 C569 1.403 . S
C567 C564 1.403 . S
C567 C568 1.524 . S
C567 C571 1.400 . S
C568 H553 0.960 . S
C568 H554 0.960 . S
C568 H555 0.960 . S
C568 C567 1.524 . S
C569 C566 1.403 . S
C569 C570 1.392 . S
C569 C573 1.495 . S
C570 C569 1.392 . S
C570 C571 1.385 . S
C570 C572 1.478 . S
C571 H565 0.930 . S
C571 C567 1.400 . S
C571 C570 1.385 . S
C572 C570 1.478 . S
C572 C574 1.381 . S
C572 C578 1.383 . S
C573 C569 1.495 . S
C573 H579 0.959 . S
C573 H580 0.961 . S
C573 H581 0.960 . S
C574 C572 1.381 . S
C574 C575 1.394 . S
C574 H582 0.930 . S
C575 C574 1.394 . S
C575 C576 1.383 . S
C575 H583 0.929 . S
C576 C575 1.383 . S
C576 C577 1.377 . S
C577 H561 0.930 . S
C577 C576 1.377 . S
C577 C578 1.379 . S
C578 H562 0.931 . S
C578 C572 1.383 . S
C578 C577 1.379 . S
H579 C573 0.959 . S
H580 C573 0.961 . S
H581 C573 0.960 . S
H582 C574 0.930 . S
H583 C575 0.929 . S
H584 C592 0.929 . S
H585 C594 0.930 . S
H586 C596 0.930 . S
H587 C599 0.929 . S
H588 C602 0.930 . S
H589 C604 0.960 . S
H590 C604 0.960 . S
H591 C604 0.960 . S
C592 H584 0.929 . S
C592 C593 1.377 . S
C592 C594 1.384 . S
C593 C592 1.377 . S
C593 C599 1.390 . S
C594 H585 0.930 . S
C594 C592 1.384 . S
C594 C595 1.372 . S
C595 C594 1.372 . S
C595 C596 1.400 . S
C595 C600 1.490 . S
C596 H586 0.930 . S
C596 C595 1.400 . S
C596 C599 1.386 . S
H597 C613 0.930 . S
H598 C614 0.931 1_655 S
C599 H587 0.929 . S
C599 C593 1.390 . S
C599 C596 1.386 . S
C600 C595 1.490 . S
C600 C602 1.395 . S
C600 C603 1.403 . S
H601 C607 0.930 . S
C602 H588 0.930 . S
C602 C600 1.395 . S
C602 C605 1.403 . S
C603 C600 1.403 . S
C603 C604 1.524 . S
C603 C607 1.400 . S
C604 H589 0.960 . S
C604 H590 0.960 . S
C604 H591 0.960 . S
C604 C603 1.524 . S
C605 C602 1.403 . S
C605 C606 1.392 . S
C605 C609 1.495 . S
C606 C605 1.392 . S
C606 C607 1.385 . S
C606 C608 1.478 . S
C607 H601 0.930 . S
C607 C603 1.400 . S
C607 C606 1.385 . S
C608 C606 1.478 . S
C608 C610 1.381 1_655 S
C608 C614 1.383 1_655 S
C609 C605 1.495 . S
C609 H615 0.959 . S
C609 H616 0.961 . S
C609 H617 0.960 . S
C610 C608 1.381 1_455 S
C610 C611 1.394 . S
C610 H618 0.930 . S
C611 C610 1.394 . S
C611 C612 1.383 . S
C611 H619 0.929 . S
C612 C611 1.383 . S
C612 C613 1.377 . S
C613 H597 0.930 . S
C613 C612 1.377 . S
C613 C614 1.379 . S
C614 H598 0.931 1_455 S
C614 C608 1.383 1_455 S
C614 C613 1.379 . S
H615 C609 0.959 . S
H616 C609 0.961 . S
H617 C609 0.960 . S
H618 C610 0.930 . S
H619 C611 0.929 . S
H620 C628 0.929 . S
H621 C630 0.930 . S
H622 C632 0.930 . S
H623 C635 0.929 . S
H624 C638 0.930 . S
H625 C640 0.960 . S
H626 C640 0.960 . S
H627 C640 0.960 . S
C628 H620 0.929 . S
C628 C629 1.377 1_556 S
C628 C630 1.384 . S
C629 C628 1.377 1_554 S
C629 C635 1.390 . S
C630 H621 0.930 . S
C630 C628 1.384 . S
C630 C631 1.380 . S
C631 C630 1.380 . S
C631 C632 1.390 1_556 S
C631 C636 1.491 . S
C632 H622 0.930 . S
C632 C631 1.390 1_554 S
C632 C635 1.386 . S
H633 C649 0.930 . S
H634 C650 0.931 . S
C635 H623 0.929 . S
C635 C629 1.390 . S
C635 C632 1.386 . S
C636 C631 1.491 . S
C636 C638 1.395 . S
C636 C639 1.403 1_556 S
H637 C643 0.930 . S
C638 H624 0.930 . S
C638 C636 1.395 . S
C638 C641 1.403 . S
C639 C636 1.403 1_554 S
C639 C640 1.524 . S
C639 C643 1.400 . S
C640 H625 0.960 . S
C640 H626 0.960 . S
C640 H627 0.960 . S
C640 C639 1.524 . S
C641 C638 1.403 . S
C641 C642 1.392 . S
C641 C645 1.495 . S
C642 C641 1.392 . S
C642 C643 1.385 1_556 S
C642 C644 1.478 . S
C643 H637 0.930 . S
C643 C639 1.400 . S
C643 C642 1.385 1_554 S
C644 C642 1.478 . S
C644 C646 1.381 . S
C644 C650 1.383 1_556 S
C645 C641 1.495 . S
C645 H651 0.959 . S
C645 H652 0.961 . S
C645 H653 0.960 . S
C646 C644 1.381 . S
C646 C647 1.394 . S
C646 H654 0.930 . S
C647 C646 1.394 . S
C647 C648 1.383 . S
C647 H655 0.929 . S
C648 C647 1.383 . S
C648 C649 1.377 1_556 S
C649 H633 0.930 . S
C649 C648 1.377 1_554 S
C649 C650 1.379 . S
C650 H634 0.931 . S
C650 C644 1.383 1_554 S
C650 C649 1.379 . S
H651 C645 0.959 . S
H652 C645 0.961 . S
H653 C645 0.960 . S
H654 C646 0.930 . S
H655 C647 0.929 . S
H656 C664 0.929 . S
H657 C666 0.930 . S
H658 C668 0.930 . S
H659 C671 0.929 . S
H660 C674 0.930 . S
H661 C676 0.960 . S
H662 C676 0.960 . S
H663 C676 0.960 1_565 S
C664 H656 0.929 . S
C664 C665 1.377 . S
C664 C666 1.384 . S
C665 C664 1.377 . S
C665 C671 1.390 . S
C666 H657 0.930 . S
C666 C664 1.384 . S
C666 C667 1.372 . S
C667 C666 1.372 . S
C667 C668 1.400 . S
C667 C672 1.490 . S
C668 H658 0.930 . S
C668 C667 1.400 . S
C668 C671 1.386 . S
H669 C685 0.930 . S
H670 C686 0.923 1_655 S
C671 H659 0.929 . S
C671 C665 1.390 . S
C671 C668 1.386 . S
C672 C667 1.490 . S
C672 C674 1.395 . S
C672 C675 1.403 . S
H673 C679 0.930 . S
C674 H660 0.930 . S
C674 C672 1.395 . S
C674 C677 1.403 . S
C675 C672 1.403 . S
C675 C676 1.524 1_565 S
C675 C679 1.400 . S
C676 H661 0.960 . S
C676 H662 0.960 . S
C676 H663 0.960 1_545 S
C676 C675 1.524 1_545 S
C677 C674 1.403 . S
C677 C678 1.392 . S
C677 C681 1.495 . S
C678 C677 1.392 . S
C678 C679 1.385 . S
C678 C680 1.478 . S
C679 H673 0.930 . S
C679 C675 1.400 . S
C679 C678 1.385 . S
C680 C678 1.478 . S
C680 C682 1.381 1_655 S
C680 C686 1.383 1_655 S
C681 C677 1.495 . S
C681 H687 0.959 . S
C681 H688 0.961 . S
C681 H689 0.960 . S
C682 C680 1.381 1_455 S
C682 C683 1.394 . S
C682 H690 0.930 1_455 S
C683 C682 1.394 . S
C683 C684 1.383 . S
C683 H691 0.929 . S
C684 C683 1.383 . S
C684 C685 1.377 . S
C685 H669 0.930 . S
C685 C684 1.377 . S
C685 C686 1.379 . S
C686 H670 0.923 1_455 S
C686 C680 1.383 1_455 S
C686 C685 1.379 . S
H687 C681 0.959 . S
H688 C681 0.961 . S
H689 C681 0.960 . S
H690 C682 0.930 1_655 S
H691 C683 0.929 . S
H692 C700 0.929 . S
H693 C702 0.930 . S
H694 C704 0.930 . S
H695 C707 0.929 . S
H696 C710 0.930 . S
H697 C712 0.960 . S
H698 C712 0.960 . S
H699 C712 0.960 . S
C700 H692 0.929 . S
C700 C701 1.377 1_554 S
C700 C702 1.384 . S
C701 C700 1.377 1_556 S
C701 C707 1.390 . S
C702 H693 0.930 . S
C702 C700 1.384 . S
C702 C703 1.374 . S
C703 C702 1.374 . S
C703 C704 1.398 1_554 S
C703 C708 1.490 . S
C704 H694 0.930 . S
C704 C703 1.398 1_556 S
C704 C707 1.386 . S
H705 C721 0.930 . S
H706 C722 0.937 . S
C707 H695 0.929 . S
C707 C701 1.390 . S
C707 C704 1.386 . S
C708 C703 1.490 . S
C708 C710 1.395 . S
C708 C711 1.403 1_554 S
H709 C715 0.930 . S
C710 H696 0.930 . S
C710 C708 1.395 . S
C710 C713 1.403 . S
C711 C708 1.403 1_556 S
C711 C712 1.524 . S
C711 C715 1.400 . S
C712 H697 0.960 . S
C712 H698 0.960 . S
C712 H699 0.960 . S
C712 C711 1.524 . S
C713 C710 1.403 . S
C713 C714 1.392 . S
C713 C717 1.495 . S
C714 C713 1.392 . S
C714 C715 1.385 1_554 S
C714 C716 1.478 . S
C715 H709 0.930 . S
C715 C711 1.400 . S
C715 C714 1.385 1_556 S
C716 C714 1.478 . S
C716 C718 1.381 . S
C716 C722 1.376 1_554 S
C717 C713 1.495 . S
C717 H723 0.959 . S
C717 H724 0.961 . S
C717 H725 0.960 . S
C718 C716 1.381 . S
C718 C719 1.394 . S
C718 H726 0.930 . S
C719 C718 1.394 . S
C719 C720 1.383 . S
C719 H727 0.929 . S
C720 C719 1.383 . S
C720 C721 1.377 1_554 S
C721 H705 0.930 . S
C721 C720 1.377 1_556 S
C721 C722 1.380 . S
C722 H706 0.937 . S
C722 C716 1.376 1_556 S
C722 C721 1.380 . S
H723 C717 0.959 . S
H724 C717 0.961 . S
H725 C717 0.960 . S
H726 C718 0.930 . S
H727 C719 0.929 . S
H728 C736 0.929 . S
H729 C738 0.930 . S
H730 C740 0.930 1_565 S
H731 C743 0.929 1_565 S
H732 C746 0.930 . S
H733 C748 0.960 . S
H734 C748 0.960 . S
H735 C748 0.960 . S
C736 H728 0.929 . S
C736 C737 1.377 . S
C736 C738 1.384 . S
C737 C736 1.377 . S
C737 C743 1.390 . S
C738 H729 0.930 . S
C738 C736 1.384 . S
C738 C739 1.372 . S
C739 C738 1.372 . S
C739 C740 1.400 . S
C739 C744 1.490 . S
C740 H730 0.930 1_545 S
C740 C739 1.400 . S
C740 C743 1.386 . S
H741 C757 0.930 1_565 S
H742 C758 0.931 1_565 S
C743 H731 0.929 1_545 S
C743 C737 1.390 . S
C743 C740 1.386 . S
C744 C739 1.490 . S
C744 C746 1.395 . S
C744 C747 1.403 . S
H745 C751 0.930 . S
C746 H732 0.930 . S
C746 C744 1.395 . S
C746 C749 1.403 . S
C747 C744 1.403 . S
C747 C748 1.524 . S
C747 C751 1.400 . S
C748 H733 0.960 . S
C748 H734 0.960 . S
C748 H735 0.960 . S
C748 C747 1.524 . S
C749 C746 1.403 . S
C749 C750 1.392 . S
C749 C753 1.495 . S
C750 C749 1.392 . S
C750 C751 1.385 . S
C750 C752 1.478 . S
C751 H745 0.930 . S
C751 C747 1.400 . S
C751 C750 1.385 . S
C752 C750 1.478 . S
C752 C754 1.381 . S
C752 C758 1.383 . S
C753 C749 1.495 . S
C753 H759 0.959 . S
C753 H760 0.961 . S
C753 H761 0.960 . S
C754 C752 1.381 . S
C754 C755 1.394 . S
C754 H762 0.930 . S
C755 C754 1.394 . S
C755 C756 1.383 . S
C755 H763 0.929 . S
C756 C755 1.383 . S
C756 C757 1.377 . S
C757 H741 0.930 1_545 S
C757 C756 1.377 . S
C757 C758 1.379 . S
C758 H742 0.931 1_545 S
C758 C752 1.383 . S
C758 C757 1.379 . S
H759 C753 0.959 . S
H760 C753 0.961 . S
H761 C753 0.960 . S
H762 C754 0.930 . S
H763 C755 0.929 . S
H764 C772 0.929 . S
H765 C774 0.930 . S
H766 C776 0.930 . S
H767 C779 0.929 . S
H768 C782 0.930 . S
H769 C784 0.960 . S
H770 C784 0.960 . S
H771 C784 0.960 . S
C772 H764 0.929 . S
C772 C773 1.377 . S
C772 C774 1.384 . S
C773 C772 1.377 . S
C773 C779 1.390 . S
C774 H765 0.930 . S
C774 C772 1.384 . S
C774 C775 1.372 . S
C775 C774 1.372 . S
C775 C776 1.400 . S
C775 C780 1.490 . S
C776 H766 0.930 . S
C776 C775 1.400 . S
C776 C779 1.386 . S
H777 C793 0.930 . S
H778 C794 0.931 . S
C779 H767 0.929 . S
C779 C773 1.390 . S
C779 C776 1.386 . S
C780 C775 1.490 . S
C780 C782 1.395 . S
C780 C783 1.403 . S
H781 C787 0.930 . S
C782 H768 0.930 . S
C782 C780 1.395 . S
C782 C785 1.403 . S
C783 C780 1.403 . S
C783 C784 1.524 . S
C783 C787 1.400 . S
C784 H769 0.960 . S
C784 H770 0.960 . S
C784 H771 0.960 . S
C784 C783 1.524 . S
C785 C782 1.403 . S
C785 C786 1.392 . S
C785 C789 1.495 . S
C786 C785 1.392 . S
C786 C787 1.385 . S
C786 C788 1.478 . S
C787 H781 0.930 . S
C787 C783 1.400 . S
C787 C786 1.385 . S
C788 C786 1.478 . S
C788 C790 1.381 . S
C788 C794 1.383 . S
C789 C785 1.495 . S
C789 H795 0.959 . S
C789 H796 0.961 . S
C789 H797 0.960 . S
C790 C788 1.381 . S
C790 C791 1.394 . S
C790 H798 0.930 . S
C791 C790 1.394 . S
C791 C792 1.383 . S
C791 H799 0.929 . S
C792 C791 1.383 . S
C792 C793 1.377 . S
C793 H777 0.930 . S
C793 C792 1.377 . S
C793 C794 1.379 . S
C794 H778 0.931 . S
C794 C788 1.383 . S
C794 C793 1.379 . S
H795 C789 0.959 . S
H796 C789 0.961 . S
H797 C789 0.960 . S
H798 C790 0.930 . S
H799 C791 0.929 . S
H800 C808 0.929 1_565 S
H801 C810 0.930 1_465 S
H802 C812 0.930 1_455 S
H803 C815 0.929 . S
H804 C818 0.930 . S
H805 C820 0.960 . S
H806 C820 0.960 . S
H807 C820 0.960 . S
C808 H800 0.929 1_545 S
C808 C809 1.377 . S
C808 C810 1.384 . S
C809 C808 1.377 . S
C809 C815 1.390 . S
C810 H801 0.930 1_645 S
C810 C808 1.384 . S
C810 C811 1.372 1_655 S
C811 C810 1.372 1_455 S
C811 C812 1.400 1_455 S
C811 C816 1.490 . S
C812 H802 0.930 1_655 S
C812 C811 1.400 1_655 S
C812 C815 1.386 . S
H813 C829 0.930 . S
H814 C830 0.931 . S
C815 H803 0.929 . S
C815 C809 1.390 . S
C815 C812 1.386 . S
C816 C811 1.490 . S
C816 C818 1.395 . S
C816 C819 1.403 . S
H817 C823 0.930 . S
C818 H804 0.930 . S
C818 C816 1.395 . S
C818 C821 1.403 . S
C819 C816 1.403 . S
C819 C820 1.524 . S
C819 C823 1.400 . S
C820 H805 0.960 . S
C820 H806 0.960 . S
C820 H807 0.960 . S
C820 C819 1.524 . S
C821 C818 1.403 . S
C821 C822 1.392 . S
C821 C825 1.495 . S
C822 C821 1.392 . S
C822 C823 1.385 . S
C822 C824 1.478 . S
C823 H817 0.930 . S
C823 C819 1.400 . S
C823 C822 1.385 . S
C824 C822 1.478 . S
C824 C826 1.381 . S
C824 C830 1.383 . S
C825 C821 1.495 . S
C825 H831 0.959 . S
C825 H832 0.961 . S
C825 H833 0.960 . S
C826 C824 1.381 . S
C826 C827 1.394 . S
C826 H834 0.930 1_545 S
C827 C826 1.394 . S
C827 C828 1.383 . S
C827 H835 0.929 1_545 S
C828 C827 1.383 . S
C828 C829 1.377 . S
C829 H813 0.930 . S
C829 C828 1.377 . S
C829 C830 1.379 . S
C830 H814 0.931 . S
C830 C824 1.383 . S
C830 C829 1.379 . S
H831 C825 0.959 . S
H832 C825 0.961 . S
H833 C825 0.960 . S
H834 C826 0.930 1_565 S
H835 C827 0.929 1_565 S
H836 C844 0.929 . S
H837 C846 0.930 . S
H838 C848 0.930 . S
H839 C851 0.929 . S
H840 C854 0.930 . S
H841 C856 0.960 . S
H842 C856 0.960 . S
H843 C856 0.960 . S
C844 H836 0.929 . S
C844 C845 1.328 1_556 S
C844 C846 1.384 . S
C845 C844 1.328 1_554 S
C845 C851 1.439 . S
C846 H837 0.930 . S
C846 C844 1.384 . S
C846 C847 1.396 . S
C847 C846 1.396 . S
C847 C848 1.374 1_556 S
C847 C852 1.492 . S
C848 H838 0.930 . S
C848 C847 1.374 1_554 S
C848 C851 1.386 . S
H849 C865 0.930 . S
H850 C866 0.931 . S
C851 H839 0.929 . S
C851 C845 1.439 . S
C851 C848 1.386 . S
C852 C847 1.492 . S
C852 C854 1.395 . S
C852 C855 1.403 1_556 S
H853 C859 0.930 . S
C854 H840 0.930 . S
C854 C852 1.395 . S
C854 C857 1.403 . S
C855 C852 1.403 1_554 S
C855 C856 1.524 . S
C855 C859 1.400 . S
C856 H841 0.960 . S
C856 H842 0.960 . S
C856 H843 0.960 . S
C856 C855 1.524 . S
C857 C854 1.403 . S
C857 C858 1.392 . S
C857 C861 1.495 . S
C858 C857 1.392 . S
C858 C859 1.385 1_556 S
C858 C860 1.478 . S
C859 H853 0.930 . S
C859 C855 1.400 . S
C859 C858 1.385 1_554 S
C860 C858 1.478 . S
C860 C862 1.381 . S
C860 C866 1.383 1_556 S
C861 C857 1.495 . S
C861 H867 0.959 . S
C861 H868 0.961 . S
C861 H869 0.960 . S
C862 C860 1.381 . S
C862 C863 1.394 . S
C862 H870 0.930 . S
C863 C862 1.394 . S
C863 C864 1.383 . S
C863 H871 0.929 . S
C864 C863 1.383 . S
C864 C865 1.377 1_556 S
C865 H849 0.930 . S
C865 C864 1.377 1_554 S
C865 C866 1.379 . S
C866 H850 0.931 . S
C866 C860 1.383 1_554 S
C866 C865 1.379 . S
H867 C861 0.959 . S
H868 C861 0.961 . S
H869 C861 0.960 . S
H870 C862 0.930 . S
H871 C863 0.929 . S
H872 C880 0.929 . S
H873 C882 0.930 . S
H874 C884 0.930 . S
H875 C887 0.929 . S
H876 C890 0.930 . S
H877 C892 0.960 . S
H878 C892 0.960 . S
H879 C892 0.960 . S
C880 H872 0.929 . S
C880 C881 1.377 . S
C880 C882 1.384 . S
C881 C880 1.377 . S
C881 C887 1.390 . S
C882 H873 0.930 . S
C882 C880 1.384 . S
C882 C883 1.372 . S
C883 C882 1.372 . S
C883 C884 1.400 . S
C883 C888 1.490 . S
C884 H874 0.930 . S
C884 C883 1.400 . S
C884 C887 1.386 . S
H885 C901 0.930 . S
H886 C902 0.931 . S
C887 H875 0.929 . S
C887 C881 1.390 . S
C887 C884 1.386 . S
C888 C883 1.490 . S
C888 C890 1.395 . S
C888 C891 1.403 . S
H889 C895 0.930 1_545 S
C890 H876 0.930 . S
C890 C888 1.395 . S
C890 C893 1.403 . S
C891 C888 1.403 . S
C891 C892 1.524 1_565 S
C891 C895 1.400 . S
C892 H877 0.960 . S
C892 H878 0.960 . S
C892 H879 0.960 . S
C892 C891 1.524 1_545 S
C893 C890 1.403 . S
C893 C894 1.392 . S
C893 C897 1.495 . S
C894 C893 1.392 . S
C894 C895 1.385 . S
C894 C896 1.478 . S
C895 H889 0.930 1_565 S
C895 C891 1.400 . S
C895 C894 1.385 . S
C896 C894 1.478 . S
C896 C898 1.381 . S
C896 C902 1.383 . S
C897 C893 1.495 . S
C897 H903 0.959 . S
C897 H904 0.961 . S
C897 H905 0.960 . S
C898 C896 1.381 . S
C898 C899 1.394 . S
C898 H906 0.930 . S
C899 C898 1.394 . S
C899 C900 1.383 . S
C899 H907 0.929 . S
C900 C899 1.383 . S
C900 C901 1.377 . S
C901 H885 0.930 . S
C901 C900 1.377 . S
C901 C902 1.379 . S
C902 H886 0.931 . S
C902 C896 1.383 . S
C902 C901 1.379 . S
H903 C897 0.959 . S
H904 C897 0.961 . S
H905 C897 0.960 . S
H906 C898 0.930 . S
H907 C899 0.929 . S
H908 C916 0.929 . S
H909 C918 0.930 . S
H910 C920 0.930 . S
H911 C923 0.929 . S
H912 C926 0.930 . S
H913 C928 0.960 . S
H914 C928 0.960 . S
H915 C928 0.960 . S
C916 H908 0.929 . S
C916 C917 1.377 . S
C916 C918 1.384 . S
C917 C916 1.377 . S
C917 C923 1.390 . S
C918 H909 0.930 . S
C918 C916 1.384 . S
C918 C919 1.372 . S
C919 C918 1.372 . S
C919 C920 1.400 . S
C919 C924 1.490 . S
C920 H910 0.930 . S
C920 C919 1.400 . S
C920 C923 1.386 . S
H921 C937 0.930 . S
H922 C938 0.931 . S
C923 H911 0.929 . S
C923 C917 1.390 . S
C923 C920 1.386 . S
C924 C919 1.490 . S
C924 C926 1.395 . S
C924 C927 1.403 . S
H925 C931 0.930 . S
C926 H912 0.930 . S
C926 C924 1.395 . S
C926 C929 1.403 . S
C927 C924 1.403 . S
C927 C928 1.524 . S
C927 C931 1.400 . S
C928 H913 0.960 . S
C928 H914 0.960 . S
C928 H915 0.960 . S
C928 C927 1.524 . S
C929 C926 1.403 . S
C929 C930 1.392 . S
C929 C933 1.495 . S
C930 C929 1.392 . S
C930 C931 1.385 . S
C930 C932 1.478 . S
C931 H925 0.930 . S
C931 C927 1.400 . S
C931 C930 1.385 . S
C932 C930 1.478 . S
C932 C934 1.381 . S
C932 C938 1.383 . S
C933 C929 1.495 . S
C933 H939 0.959 . S
C933 H940 0.961 . S
C933 H941 0.960 . S
C934 C932 1.381 . S
C934 C935 1.394 . S
C934 H942 0.930 . S
C935 C934 1.394 . S
C935 C936 1.383 . S
C935 H943 0.929 . S
C936 C935 1.383 . S
C936 C937 1.377 . S
C937 H921 0.930 . S
C937 C936 1.377 . S
C937 C938 1.379 . S
C938 H922 0.931 . S
C938 C932 1.383 . S
C938 C937 1.379 . S
H939 C933 0.959 . S
H940 C933 0.961 . S
H941 C933 0.960 . S
H942 C934 0.930 . S
H943 C935 0.929 . S
H944 C952 0.929 . S
H945 C954 0.930 . S
H946 C956 0.930 . S
H947 C959 0.929 . S
H948 C962 0.930 . S
H949 C964 0.960 . S
H950 C964 0.960 . S
H951 C964 0.960 . S
C952 H944 0.929 . S
C952 C953 1.377 . S
C952 C954 1.384 . S
C953 C952 1.377 . S
C953 C959 1.390 . S
C954 H945 0.930 . S
C954 C952 1.384 . S
C954 C955 1.372 . S
C955 C954 1.372 . S
C955 C956 1.400 . S
C955 C960 1.490 . S
C956 H946 0.930 . S
C956 C955 1.400 . S
C956 C959 1.386 . S
H957 C973 0.930 . S
H958 C974 0.931 . S
C959 H947 0.929 . S
C959 C953 1.390 . S
C959 C956 1.386 . S
C960 C955 1.490 . S
C960 C962 1.395 . S
C960 C963 1.403 . S
H961 C967 0.930 . S
C962 H948 0.930 . S
C962 C960 1.395 . S
C962 C965 1.403 . S
C963 C960 1.403 . S
C963 C964 1.524 . S
C963 C967 1.400 . S
C964 H949 0.960 . S
C964 H950 0.960 . S
C964 H951 0.960 . S
C964 C963 1.524 . S
C965 C962 1.403 . S
C965 C966 1.392 . S
C965 C969 1.495 . S
C966 C965 1.392 . S
C966 C967 1.385 . S
C966 C968 1.478 . S
C967 H961 0.930 . S
C967 C963 1.400 . S
C967 C966 1.385 . S
C968 C966 1.478 . S
C968 C970 1.381 . S
C968 C974 1.383 . S
C969 C965 1.495 . S
C969 H975 0.959 . S
C969 H976 0.961 . S
C969 H977 0.960 . S
C970 C968 1.381 . S
C970 C971 1.394 . S
C970 H978 0.930 . S
C971 C970 1.394 . S
C971 C972 1.383 . S
C971 H979 0.929 . S
C972 C971 1.383 . S
C972 C973 1.377 . S
C973 H957 0.930 . S
C973 C972 1.377 . S
C973 C974 1.379 . S
C974 H958 0.931 . S
C974 C968 1.383 . S
C974 C973 1.379 . S
H975 C969 0.959 . S
H976 C969 0.961 . S
H977 C969 0.960 . S
H978 C970 0.930 . S
H979 C971 0.929 . S
H980 C988 0.929 . S
H981 C990 0.930 . S
H982 C992 0.930 . S
H983 C995 0.929 . S
H984 C998 0.930 . S
H985 C1000 0.960 . S
H986 C1000 0.960 . S
H987 C1000 0.960 . S
C988 H980 0.929 . S
C988 C989 1.377 . S
C988 C990 1.384 . S
C989 C988 1.377 . S
C989 C995 1.390 . S
C990 H981 0.930 . S
C990 C988 1.384 . S
C990 C991 1.372 . S
C991 C990 1.372 . S
C991 C992 1.400 . S
C991 C996 1.490 . S
C992 H982 0.930 . S
C992 C991 1.400 . S
C992 C995 1.386 . S
H993 C1009 0.930 . S
H994 C1010 0.931 . S
C995 H983 0.929 . S
C995 C989 1.390 . S
C995 C992 1.386 . S
C996 C991 1.490 . S
C996 C998 1.395 . S
C996 C999 1.403 . S
H997 C1003 0.930 . S
C998 H984 0.930 . S
C998 C996 1.395 . S
C998 C1001 1.403 1_455 S
C999 C996 1.403 . S
C999 C1000 1.524 . S
C999 C1003 1.400 1_455 S
C1000 H985 0.960 . S
C1000 H986 0.960 . S
C1000 H987 0.960 . S
C1000 C999 1.524 . S
C1001 C998 1.403 1_655 S
C1001 C1002 1.392 . S
C1001 C1005 1.495 . S
C1002 C1001 1.392 . S
C1002 C1003 1.385 . S
C1002 C1004 1.478 . S
C1003 H997 0.930 . S
C1003 C999 1.400 1_655 S
C1003 C1002 1.385 . S
C1004 C1002 1.478 . S
C1004 C1006 1.381 . S
C1004 C1010 1.383 . S
C1005 C1001 1.495 . S
C1005 H1011 0.959 . S
C1005 H1012 0.961 . S
C1005 H1013 0.960 . S
C1006 C1004 1.381 . S
C1006 C1007 1.394 . S
C1006 H1014 0.930 . S
C1007 C1006 1.394 . S
C1007 C1008 1.383 . S
C1007 H1015 0.929 . S
C1008 C1007 1.383 . S
C1008 C1009 1.377 . S
C1009 H993 0.930 . S
C1009 C1008 1.377 . S
C1009 C1010 1.379 . S
C1010 H994 0.931 . S
C1010 C1004 1.383 . S
C1010 C1009 1.379 . S
H1011 C1005 0.959 . S
H1012 C1005 0.961 . S
H1013 C1005 0.960 . S
H1014 C1006 0.930 . S
H1015 C1007 0.929 . S
H1016 C1024 0.929 . S
H1017 C1026 0.930 . S
H1018 C1028 0.930 . S
H1019 C1031 0.929 . S
H1020 C1034 0.930 . S
H1021 C1036 0.960 . S
H1022 C1036 0.960 . S
H1023 C1036 0.960 . S
C1024 H1016 0.929 . S
C1024 C1025 1.377 . S
C1024 C1026 1.384 . S
C1025 C1024 1.377 . S
C1025 C1031 1.390 . S
C1026 H1017 0.930 . S
C1026 C1024 1.384 . S
C1026 C1027 1.372 . S
C1027 C1026 1.372 . S
C1027 C1028 1.400 . S
C1027 C1032 1.490 . S
C1028 H1018 0.930 . S
C1028 C1027 1.400 . S
C1028 C1031 1.386 . S
H1029 C1045 0.930 . S
H1030 C1046 0.931 . S
C1031 H1019 0.929 . S
C1031 C1025 1.390 . S
C1031 C1028 1.386 . S
C1032 C1027 1.490 . S
C1032 C1034 1.395 . S
C1032 C1035 1.403 . S
H1033 C1039 0.930 . S
C1034 H1020 0.930 . S
C1034 C1032 1.395 . S
C1034 C1037 1.403 . S
C1035 C1032 1.403 . S
C1035 C1036 1.524 . S
C1035 C1039 1.400 . S
C1036 H1021 0.960 . S
C1036 H1022 0.960 . S
C1036 H1023 0.960 . S
C1036 C1035 1.524 . S
C1037 C1034 1.403 . S
C1037 C1038 1.392 . S
C1037 C1041 1.495 . S
C1038 C1037 1.392 . S
C1038 C1039 1.385 . S
C1038 C1040 1.478 . S
C1039 H1033 0.930 . S
C1039 C1035 1.400 . S
C1039 C1038 1.385 . S
C1040 C1038 1.478 . S
C1040 C1042 1.381 . S
C1040 C1046 1.383 . S
C1041 C1037 1.495 . S
C1041 H1047 0.959 . S
C1041 H1048 0.961 . S
C1041 H1049 0.960 . S
C1042 C1040 1.381 . S
C1042 C1043 1.394 . S
C1042 H1050 0.930 . S
C1043 C1042 1.394 . S
C1043 C1044 1.383 . S
C1043 H1051 0.929 . S
C1044 C1043 1.383 . S
C1044 C1045 1.377 . S
C1045 H1029 0.930 . S
C1045 C1044 1.377 . S
C1045 C1046 1.379 . S
C1046 H1030 0.931 . S
C1046 C1040 1.383 . S
C1046 C1045 1.379 . S
H1047 C1041 0.959 . S
H1048 C1041 0.961 . S
H1049 C1041 0.960 . S
H1050 C1042 0.930 . S
H1051 C1043 0.929 . S
H1052 C1060 0.929 . S
H1053 C1062 0.930 . S
H1054 C1064 0.930 . S
H1055 C1067 0.929 . S
H1056 C1070 0.930 . S
H1057 C1072 0.960 . S
H1058 C1072 0.960 . S
H1059 C1072 0.960 . S
C1060 H1052 0.929 . S
C1060 C1061 1.377 . S
C1060 C1062 1.384 . S
C1061 C1060 1.377 . S
C1061 C1067 1.390 1_556 S
C1062 H1053 0.930 . S
C1062 C1060 1.384 . S
C1062 C1063 1.372 . S
C1063 C1062 1.372 . S
C1063 C1064 1.400 1_556 S
C1063 C1068 1.490 . S
C1064 H1054 0.930 . S
C1064 C1063 1.400 1_554 S
C1064 C1067 1.386 . S
H1065 C1081 0.930 . S
H1066 C1082 0.931 . S
C1067 H1055 0.929 . S
C1067 C1061 1.390 1_554 S
C1067 C1064 1.386 . S
C1068 C1063 1.490 . S
C1068 C1070 1.395 . S
C1068 C1071 1.403 1_556 S
H1069 C1075 0.930 . S
C1070 H1056 0.930 . S
C1070 C1068 1.395 . S
C1070 C1073 1.403 . S
C1071 C1068 1.403 1_554 S
C1071 C1072 1.524 . S
C1071 C1075 1.400 . S
C1072 H1057 0.960 . S
C1072 H1058 0.960 . S
C1072 H1059 0.960 . S
C1072 C1071 1.524 . S
C1073 C1070 1.403 . S
C1073 C1074 1.392 . S
C1073 C1077 1.495 . S
C1074 C1073 1.392 . S
C1074 C1075 1.385 1_556 S
C1074 C1076 1.478 . S
C1075 H1069 0.930 . S
C1075 C1071 1.400 . S
C1075 C1074 1.385 1_554 S
C1076 C1074 1.478 . S
C1076 C1078 1.381 . S
C1076 C1082 1.383 1_556 S
C1077 C1073 1.495 . S
C1077 H1083 0.959 . S
C1077 H1084 0.961 . S
C1077 H1085 0.960 . S
C1078 C1076 1.381 . S
C1078 C1079 1.394 . S
C1078 H1086 0.930 . S
C1079 C1078 1.394 . S
C1079 C1080 1.383 1_556 S
C1079 H1087 0.929 . S
C1080 C1079 1.383 1_554 S
C1080 C1081 1.377 . S
C1081 H1065 0.930 . S
C1081 C1080 1.377 . S
C1081 C1082 1.379 . S
C1082 H1066 0.931 . S
C1082 C1076 1.383 1_554 S
C1082 C1081 1.379 . S
H1083 C1077 0.959 . S
H1084 C1077 0.961 . S
H1085 C1077 0.960 . S
H1086 C1078 0.930 . S
H1087 C1079 0.929 . S
H1088 C1096 0.929 . S
H1089 C1098 0.930 . S
H1090 C1100 0.930 . S
H1091 C1103 0.929 . S
H1092 C1106 0.930 . S
H1093 C1108 0.960 . S
H1094 C1108 0.960 . S
H1095 C1108 0.960 . S
C1096 H1088 0.929 . S
C1096 C1097 1.377 . S
C1096 C1098 1.384 . S
C1097 C1096 1.377 . S
C1097 C1103 1.390 . S
C1098 H1089 0.930 . S
C1098 C1096 1.384 . S
C1098 C1099 1.372 . S
C1099 C1098 1.372 . S
C1099 C1100 1.400 . S
C1099 C1104 1.490 . S
C1100 H1090 0.930 . S
C1100 C1099 1.400 . S
C1100 C1103 1.386 . S
H1101 C1117 0.930 . S
H1102 C1118 0.931 . S
C1103 H1091 0.929 . S
C1103 C1097 1.390 . S
C1103 C1100 1.386 . S
C1104 C1099 1.490 . S
C1104 C1106 1.395 . S
C1104 C1107 1.403 . S
H1105 C1111 0.930 . S
C1106 H1092 0.930 . S
C1106 C1104 1.395 . S
C1106 C1109 1.403 . S
C1107 C1104 1.403 . S
C1107 C1108 1.524 . S
C1107 C1111 1.400 . S
C1108 H1093 0.960 . S
C1108 H1094 0.960 . S
C1108 H1095 0.960 . S
C1108 C1107 1.524 . S
C1109 C1106 1.403 . S
C1109 C1110 1.392 . S
C1109 C1113 1.495 . S
C1110 C1109 1.392 . S
C1110 C1111 1.385 . S
C1110 C1112 1.478 . S
C1111 H1105 0.930 . S
C1111 C1107 1.400 . S
C1111 C1110 1.385 . S
C1112 C1110 1.478 . S
C1112 C1114 1.381 . S
C1112 C1118 1.383 . S
C1113 C1109 1.495 . S
C1113 H1119 0.959 . S
C1113 H1120 0.961 . S
C1113 H1121 0.960 . S
C1114 C1112 1.381 . S
C1114 C1115 1.394 . S
C1114 H1122 0.930 . S
C1115 C1114 1.394 . S
C1115 C1116 1.383 . S
C1115 H1123 0.929 . S
C1116 C1115 1.383 . S
C1116 C1117 1.377 . S
C1117 H1101 0.930 . S
C1117 C1116 1.377 . S
C1117 C1118 1.379 . S
C1118 H1102 0.931 . S
C1118 C1112 1.383 . S
C1118 C1117 1.379 . S
H1119 C1113 0.959 . S
H1120 C1113 0.961 . S
H1121 C1113 0.960 . S
H1122 C1114 0.930 . S
H1123 C1115 0.929 . S
H1124 C1132 0.929 . S
H1125 C1134 0.930 . S
H1126 C1136 0.930 . S
H1127 C1139 0.929 . S
H1128 C1142 0.930 . S
H1129 C1144 0.960 . S
H1130 C1144 0.960 . S
H1131 C1144 0.960 . S
C1132 H1124 0.929 . S
C1132 C1133 1.377 . S
C1132 C1134 1.384 . S
C1133 C1132 1.377 . S
C1133 C1139 1.390 . S
C1134 H1125 0.930 . S
C1134 C1132 1.384 . S
C1134 C1135 1.372 . S
C1135 C1134 1.372 . S
C1135 C1136 1.400 . S
C1135 C1140 1.490 . S
C1136 H1126 0.930 . S
C1136 C1135 1.400 . S
C1136 C1139 1.386 . S
H1137 C1153 0.930 . S
H1138 C1154 0.931 . S
C1139 H1127 0.929 . S
C1139 C1133 1.390 . S
C1139 C1136 1.386 . S
C1140 C1135 1.490 . S
C1140 C1142 1.395 . S
C1140 C1143 1.403 . S
H1141 C1147 0.930 . S
C1142 H1128 0.930 . S
C1142 C1140 1.395 . S
C1142 C1145 1.403 . S
C1143 C1140 1.403 . S
C1143 C1144 1.524 . S
C1143 C1147 1.400 . S
C1144 H1129 0.960 . S
C1144 H1130 0.960 . S
C1144 H1131 0.960 . S
C1144 C1143 1.524 . S
C1145 C1142 1.403 . S
C1145 C1146 1.392 . S
C1145 C1149 1.495 . S
C1146 C1145 1.392 . S
C1146 C1147 1.385 . S
C1146 C1148 1.478 . S
C1147 H1141 0.930 . S
C1147 C1143 1.400 . S
C1147 C1146 1.385 . S
C1148 C1146 1.478 . S
C1148 C1150 1.381 . S
C1148 C1154 1.383 . S
C1149 C1145 1.495 . S
C1149 H1155 0.959 . S
C1149 H1156 0.961 . S
C1149 H1157 0.960 . S
C1150 C1148 1.381 . S
C1150 C1151 1.394 . S
C1150 H1158 0.930 . S
C1151 C1150 1.394 . S
C1151 C1152 1.383 . S
C1151 H1159 0.929 . S
C1152 C1151 1.383 . S
C1152 C1153 1.377 . S
C1153 H1137 0.930 . S
C1153 C1152 1.377 . S
C1153 C1154 1.379 . S
C1154 H1138 0.931 . S
C1154 C1148 1.383 . S
C1154 C1153 1.379 . S
H1155 C1149 0.959 . S
H1156 C1149 0.961 . S
H1157 C1149 0.960 . S
H1158 C1150 0.930 . S
H1159 C1151 0.929 . S
H1160 C1168 0.929 . S
H1161 C1170 0.930 1_545 S
H1162 C1172 0.930 . S
H1163 C1175 0.929 . S
H1164 C1178 0.930 . S
H1165 C1180 0.960 . S
H1166 C1180 0.960 . S
H1167 C1180 0.960 1_556 S
C1168 H1160 0.929 . S
C1168 C1169 1.377 . S
C1168 C1170 1.384 . S
C1169 C1168 1.377 . S
C1169 C1175 1.390 1_554 S
C1170 H1161 0.930 1_565 S
C1170 C1168 1.384 . S
C1170 C1171 1.372 . S
C1171 C1170 1.372 . S
C1171 C1172 1.400 1_554 S
C1171 C1176 1.490 . S
C1172 H1162 0.930 . S
C1172 C1171 1.400 1_556 S
C1172 C1175 1.386 . S
H1173 C1189 0.930 . S
H1174 C1190 0.931 . S
C1175 H1163 0.929 . S
C1175 C1169 1.390 1_556 S
C1175 C1172 1.386 . S
C1176 C1171 1.490 . S
C1176 C1178 1.399 1_565 S
C1176 C1179 1.403 . S
H1177 C1183 0.930 . S
C1178 H1164 0.930 . S
C1178 C1176 1.399 1_545 S
C1178 C1181 1.399 1_554 S
C1179 C1176 1.403 . S
C1179 C1180 1.524 . S
C1179 C1183 1.405 . S
C1180 H1165 0.960 . S
C1180 H1166 0.960 . S
C1180 H1167 0.960 1_554 S
C1180 C1179 1.524 . S
C1181 C1178 1.399 1_556 S
C1181 C1182 1.392 . S
C1181 C1185 1.500 . S
C1182 C1181 1.392 . S
C1182 C1183 1.380 1_546 S
C1182 C1184 1.483 . S
C1183 H1177 0.930 . S
C1183 C1179 1.405 . S
C1183 C1182 1.380 1_564 S
C1184 C1182 1.483 . S
C1184 C1186 1.381 1_556 S
C1184 C1190 1.383 . S
C1185 C1181 1.500 . S
C1185 H1191 0.959 . S
C1185 H1192 0.961 . S
C1185 H1193 0.960 1_556 S
C1186 C1184 1.381 1_554 S
C1186 C1187 1.394 . S
C1186 H1194 0.930 . S
C1187 C1186 1.394 . S
C1187 C1188 1.383 1_554 S
C1187 H1195 0.929 . S
C1188 C1187 1.383 1_556 S
C1188 C1189 1.377 . S
C1189 H1173 0.930 . S
C1189 C1188 1.377 . S
C1189 C1190 1.379 . S
C1190 H1174 0.931 . S
C1190 C1184 1.383 . S
C1190 C1189 1.379 . S
H1191 C1185 0.959 . S
H1192 C1185 0.961 . S
H1193 C1185 0.960 1_554 S
H1194 C1186 0.930 . S
H1195 C1187 0.929 . S
H1196 C1204 0.929 . S
H1197 C1206 0.930 . S
H1198 C1208 0.930 . S
H1199 C1211 0.929 . S
H1200 C1214 0.930 . S
H1201 C1216 0.960 1_655 S
H1202 C1216 0.960 . S
H1203 C1216 0.960 . S
C1204 H1196 0.929 . S
C1204 C1205 1.377 . S
C1204 C1206 1.384 . S
C1205 C1204 1.377 . S
C1205 C1211 1.390 . S
C1206 H1197 0.930 . S
C1206 C1204 1.384 . S
C1206 C1207 1.372 . S
C1207 C1206 1.372 . S
C1207 C1208 1.400 . S
C1207 C1212 1.490 . S
C1208 H1198 0.930 . S
C1208 C1207 1.400 . S
C1208 C1211 1.386 . S
H1209 C1225 0.930 . S
H1210 C1226 0.931 . S
C1211 H1199 0.929 . S
C1211 C1205 1.390 . S
C1211 C1208 1.386 . S
C1212 C1207 1.490 . S
C1212 C1214 1.395 1_565 S
C1212 C1215 1.403 . S
H1213 C1219 0.930 . S
C1214 H1200 0.930 . S
C1214 C1212 1.395 1_545 S
C1214 C1217 1.403 1_455 S
C1215 C1212 1.403 . S
C1215 C1216 1.524 . S
C1215 C1219 1.400 1_455 S
C1216 H1201 0.960 1_455 S
C1216 H1202 0.960 . S
C1216 H1203 0.960 . S
C1216 C1215 1.524 . S
C1217 C1214 1.403 1_655 S
C1217 C1218 1.392 . S
C1217 C1221 1.495 . S
C1218 C1217 1.392 . S
C1218 C1219 1.385 1_545 S
C1218 C1220 1.478 . S
C1219 H1213 0.930 . S
C1219 C1215 1.400 1_655 S
C1219 C1218 1.385 1_565 S
C1220 C1218 1.478 . S
C1220 C1222 1.381 . S
C1220 C1226 1.383 . S
C1221 C1217 1.495 . S
C1221 H1227 0.945 1_655 S
C1221 H1228 0.961 . S
C1221 H1229 0.960 . S
C1222 C1220 1.381 . S
C1222 C1223 1.394 . S
C1222 H1230 0.930 . S
C1223 C1222 1.394 . S
C1223 C1224 1.383 . S
C1223 H1231 0.929 . S
C1224 C1223 1.383 . S
C1224 C1225 1.377 . S
C1225 H1209 0.930 . S
C1225 C1224 1.377 . S
C1225 C1226 1.379 . S
C1226 H1210 0.931 . S
C1226 C1220 1.383 . S
C1226 C1225 1.379 . S
H1227 C1221 0.945 1_455 S
H1228 C1221 0.961 . S
H1229 C1221 0.960 . S
H1230 C1222 0.930 . S
H1231 C1223 0.929 . S
H1232 C1240 0.929 . S
H1233 C1242 0.930 . S
H1234 C1244 0.930 . S
H1235 C1247 0.929 . S
H1236 C1250 0.930 . S
H1237 C1252 0.960 . S
H1238 C1252 0.960 . S
H1239 C1252 0.960 . S
C1240 H1232 0.929 . S
C1240 C1241 1.377 . S
C1240 C1242 1.384 . S
C1241 C1240 1.377 . S
C1241 C1247 1.390 . S
C1242 H1233 0.930 . S
C1242 C1240 1.384 . S
C1242 C1243 1.372 . S
C1243 C1242 1.372 . S
C1243 C1244 1.400 . S
C1243 C1248 1.490 . S
C1244 H1234 0.930 . S
C1244 C1243 1.400 . S
C1244 C1247 1.386 . S
H1245 C1261 0.930 . S
H1246 C1262 0.931 . S
C1247 H1235 0.929 . S
C1247 C1241 1.390 . S
C1247 C1244 1.386 . S
C1248 C1243 1.490 . S
C1248 C1250 1.395 . S
C1248 C1251 1.403 . S
H1249 C1255 0.930 . S
C1250 H1236 0.930 . S
C1250 C1248 1.395 . S
C1250 C1253 1.403 . S
C1251 C1248 1.403 . S
C1251 C1252 1.524 . S
C1251 C1255 1.400 . S
C1252 H1237 0.960 . S
C1252 H1238 0.960 . S
C1252 H1239 0.960 . S
C1252 C1251 1.524 . S
C1253 C1250 1.403 . S
C1253 C1254 1.392 . S
C1253 C1257 1.495 . S
C1254 C1253 1.392 . S
C1254 C1255 1.385 . S
C1254 C1256 1.478 . S
C1255 H1249 0.930 . S
C1255 C1251 1.400 . S
C1255 C1254 1.385 . S
C1256 C1254 1.478 . S
C1256 C1258 1.381 . S
C1256 C1262 1.383 . S
C1257 C1253 1.495 . S
C1257 H1263 0.959 . S
C1257 H1264 0.961 . S
C1257 H1265 0.960 . S
C1258 C1256 1.381 . S
C1258 C1259 1.394 . S
C1258 H1266 0.930 . S
C1259 C1258 1.394 . S
C1259 C1260 1.383 . S
C1259 H1267 0.929 . S
C1260 C1259 1.383 . S
C1260 C1261 1.377 . S
C1261 H1245 0.930 . S
C1261 C1260 1.377 . S
C1261 C1262 1.379 . S
C1262 H1246 0.931 . S
C1262 C1256 1.383 . S
C1262 C1261 1.379 . S
H1263 C1257 0.959 . S
H1264 C1257 0.961 . S
H1265 C1257 0.960 . S
H1266 C1258 0.930 . S
H1267 C1259 0.929 . S
H1268 C1276 0.929 . S
H1269 C1278 0.930 . S
H1270 C1280 0.930 . S
H1271 C1283 0.929 . S
H1272 C1286 0.930 . S
H1273 C1288 0.960 . S
H1274 C1288 0.960 . S
H1275 C1288 0.960 . S
C1276 H1268 0.929 . S
C1276 C1277 1.377 . S
C1276 C1278 1.384 . S
C1277 C1276 1.377 . S
C1277 C1283 1.390 . S
C1278 H1269 0.930 . S
C1278 C1276 1.384 . S
C1278 C1279 1.372 . S
C1279 C1278 1.372 . S
C1279 C1280 1.400 . S
C1279 C1284 1.490 . S
C1280 H1270 0.930 . S
C1280 C1279 1.400 . S
C1280 C1283 1.386 . S
H1281 C1297 0.930 . S
H1282 C1298 0.931 . S
C1283 H1271 0.929 . S
C1283 C1277 1.390 . S
C1283 C1280 1.386 . S
C1284 C1279 1.490 . S
C1284 C1286 1.395 . S
C1284 C1287 1.403 . S
H1285 C1291 0.930 . S
C1286 H1272 0.930 . S
C1286 C1284 1.395 . S
C1286 C1289 1.403 . S
C1287 C1284 1.403 . S
C1287 C1288 1.524 . S
C1287 C1291 1.400 . S
C1288 H1273 0.960 . S
C1288 H1274 0.960 . S
C1288 H1275 0.960 . S
C1288 C1287 1.524 . S
C1289 C1286 1.403 . S
C1289 C1290 1.392 . S
C1289 C1293 1.495 . S
C1290 C1289 1.392 . S
C1290 C1291 1.385 . S
C1290 C1292 1.478 . S
C1291 H1285 0.930 . S
C1291 C1287 1.400 . S
C1291 C1290 1.385 . S
C1292 C1290 1.478 . S
C1292 C1294 1.381 . S
C1292 C1298 1.383 . S
C1293 C1289 1.495 . S
C1293 H1299 0.959 . S
C1293 H1300 0.961 . S
C1293 H1301 0.960 . S
C1294 C1292 1.381 . S
C1294 C1295 1.394 . S
C1294 H1302 0.930 . S
C1295 C1294 1.394 . S
C1295 C1296 1.383 . S
C1295 H1303 0.929 . S
C1296 C1295 1.383 . S
C1296 C1297 1.377 . S
C1297 H1281 0.930 . S
C1297 C1296 1.377 . S
C1297 C1298 1.379 . S
C1298 H1282 0.931 . S
C1298 C1292 1.383 . S
C1298 C1297 1.379 . S
H1299 C1293 0.959 . S
H1300 C1293 0.961 . S
H1301 C1293 0.960 . S
H1302 C1294 0.930 . S
H1303 C1295 0.929 . S
H1304 C1312 0.929 . S
H1305 C1314 0.930 . S
H1306 C1316 0.930 . S
H1307 C1319 0.929 . S
H1308 C1322 0.930 . S
H1309 C1324 0.960 . S
H1310 C1324 0.960 . S
H1311 C1324 0.960 . S
C1312 H1304 0.929 . S
C1312 C1313 1.377 . S
C1312 C1314 1.384 . S
C1313 C1312 1.377 . S
C1313 C1319 1.390 . S
C1314 H1305 0.930 . S
C1314 C1312 1.384 . S
C1314 C1315 1.372 . S
C1315 C1314 1.372 . S
C1315 C1316 1.400 . S
C1315 C1320 1.490 . S
C1316 H1306 0.930 . S
C1316 C1315 1.400 . S
C1316 C1319 1.386 . S
H1317 C1333 0.930 . S
H1318 C1334 0.931 . S
C1319 H1307 0.929 . S
C1319 C1313 1.390 . S
C1319 C1316 1.386 . S
C1320 C1315 1.490 . S
C1320 C1322 1.395 . S
C1320 C1323 1.403 . S
H1321 C1327 0.930 . S
C1322 H1308 0.930 . S
C1322 C1320 1.395 . S
C1322 C1325 1.403 . S
C1323 C1320 1.403 . S
C1323 C1324 1.524 . S
C1323 C1327 1.400 . S
C1324 H1309 0.960 . S
C1324 H1310 0.960 . S
C1324 H1311 0.960 . S
C1324 C1323 1.524 . S
C1325 C1322 1.403 . S
C1325 C1326 1.392 . S
C1325 C1329 1.495 . S
C1326 C1325 1.392 . S
C1326 C1327 1.385 . S
C1326 C1328 1.478 . S
C1327 H1321 0.930 . S
C1327 C1323 1.400 . S
C1327 C1326 1.385 . S
C1328 C1326 1.478 . S
C1328 C1330 1.381 . S
C1328 C1334 1.383 . S
C1329 C1325 1.495 . S
C1329 H1335 0.959 . S
C1329 H1336 0.961 . S
C1329 H1337 0.960 . S
C1330 C1328 1.381 . S
C1330 C1331 1.394 . S
C1330 H1338 0.930 . S
C1331 C1330 1.394 . S
C1331 C1332 1.383 . S
C1331 H1339 0.929 . S
C1332 C1331 1.383 . S
C1332 C1333 1.377 . S
C1333 H1317 0.930 . S
C1333 C1332 1.377 . S
C1333 C1334 1.379 . S
C1334 H1318 0.931 . S
C1334 C1328 1.383 . S
C1334 C1333 1.379 . S
H1335 C1329 0.959 . S
H1336 C1329 0.961 . S
H1337 C1329 0.960 . S
H1338 C1330 0.930 . S
H1339 C1331 0.929 . S
H1340 C1348 0.929 . S
H1341 C1350 0.930 . S
H1342 C1352 0.930 . S
H1343 C1355 0.929 . S
H1344 C1358 0.930 . S
H1345 C1360 0.960 . S
H1346 C1360 0.960 . S
H1347 C1360 0.960 . S
C1348 H1340 0.929 . S
C1348 C1349 1.377 . S
C1348 C1350 1.384 . S
C1349 C1348 1.377 . S
C1349 C1355 1.390 . S
C1350 H1341 0.930 . S
C1350 C1348 1.384 . S
C1350 C1351 1.372 . S
C1351 C1350 1.372 . S
C1351 C1352 1.400 . S
C1351 C1356 1.490 . S
C1352 H1342 0.930 . S
C1352 C1351 1.400 . S
C1352 C1355 1.386 . S
H1353 C1369 0.930 . S
H1354 C1370 0.931 . S
C1355 H1343 0.929 . S
C1355 C1349 1.390 . S
C1355 C1352 1.386 . S
C1356 C1351 1.490 . S
C1356 C1358 1.395 . S
C1356 C1359 1.403 . S
H1357 C1363 0.930 . S
C1358 H1344 0.930 . S
C1358 C1356 1.395 . S
C1358 C1361 1.403 . S
C1359 C1356 1.403 . S
C1359 C1360 1.524 . S
C1359 C1363 1.400 . S
C1360 H1345 0.960 . S
C1360 H1346 0.960 . S
C1360 H1347 0.960 . S
C1360 C1359 1.524 . S
C1361 C1358 1.403 . S
C1361 C1362 1.392 . S
C1361 C1365 1.495 . S
C1362 C1361 1.392 . S
C1362 C1363 1.385 . S
C1362 C1364 1.478 . S
C1363 H1357 0.930 . S
C1363 C1359 1.400 . S
C1363 C1362 1.385 . S
C1364 C1362 1.478 . S
C1364 C1366 1.381 . S
C1364 C1370 1.383 . S
C1365 C1361 1.495 . S
C1365 H1371 0.959 . S
C1365 H1372 0.961 . S
C1365 H1373 0.960 . S
C1366 C1364 1.381 . S
C1366 C1367 1.394 . S
C1366 H1374 0.930 . S
C1367 C1366 1.394 . S
C1367 C1368 1.383 . S
C1367 H1375 0.929 . S
C1368 C1367 1.383 . S
C1368 C1369 1.377 . S
C1369 H1353 0.930 . S
C1369 C1368 1.377 . S
C1369 C1370 1.379 . S
C1370 H1354 0.931 . S
C1370 C1364 1.383 . S
C1370 C1369 1.379 . S
H1371 C1365 0.959 . S
H1372 C1365 0.961 . S
H1373 C1365 0.960 . S
H1374 C1366 0.930 . S
H1375 C1367 0.929 . S
H1376 C1384 0.929 . S
H1377 C1386 0.930 . S
H1378 C1388 0.930 . S
H1379 C1391 0.929 . S
H1380 C1394 0.930 . S
H1381 C1396 0.960 . S
H1382 C1396 0.960 . S
H1383 C1396 0.960 . S
C1384 H1376 0.929 . S
C1384 C1385 1.377 . S
C1384 C1386 1.384 . S
C1385 C1384 1.377 . S
C1385 C1391 1.390 . S
C1386 H1377 0.930 . S
C1386 C1384 1.384 . S
C1386 C1387 1.372 . S
C1387 C1386 1.372 . S
C1387 C1388 1.400 . S
C1387 C1392 1.490 . S
C1388 H1378 0.930 . S
C1388 C1387 1.400 . S
C1388 C1391 1.386 . S
H1389 C1405 0.930 . S
H1390 C1406 0.931 . S
C1391 H1379 0.929 . S
C1391 C1385 1.390 . S
C1391 C1388 1.386 . S
C1392 C1387 1.490 . S
C1392 C1394 1.395 . S
C1392 C1395 1.403 . S
H1393 C1399 0.930 . S
C1394 H1380 0.930 . S
C1394 C1392 1.395 . S
C1394 C1397 1.403 . S
C1395 C1392 1.403 . S
C1395 C1396 1.524 . S
C1395 C1399 1.400 . S
C1396 H1381 0.960 . S
C1396 H1382 0.960 . S
C1396 H1383 0.960 . S
C1396 C1395 1.524 . S
C1397 C1394 1.403 . S
C1397 C1398 1.392 . S
C1397 C1401 1.495 . S
C1398 C1397 1.392 . S
C1398 C1399 1.385 . S
C1398 C1400 1.478 . S
C1399 H1393 0.930 . S
C1399 C1395 1.400 . S
C1399 C1398 1.385 . S
C1400 C1398 1.478 . S
C1400 C1402 1.381 . S
C1400 C1406 1.383 . S
C1401 C1397 1.495 . S
C1401 H1407 0.959 . S
C1401 H1408 0.961 . S
C1401 H1409 0.960 . S
C1402 C1400 1.381 . S
C1402 C1403 1.394 . S
C1402 H1410 0.930 . S
C1403 C1402 1.394 . S
C1403 C1404 1.383 . S
C1403 H1411 0.929 . S
C1404 C1403 1.383 . S
C1404 C1405 1.377 . S
C1405 H1389 0.930 . S
C1405 C1404 1.377 . S
C1405 C1406 1.379 . S
C1406 H1390 0.931 . S
C1406 C1400 1.383 . S
C1406 C1405 1.379 . S
H1407 C1401 0.959 . S
H1408 C1401 0.961 . S
H1409 C1401 0.960 . S
H1410 C1402 0.930 . S
H1411 C1403 0.929 . S
H1412 C1420 0.929 . S
H1413 C1422 0.930 . S
H1414 C1424 0.930 . S
H1415 C1427 0.929 . S
H1416 C1430 0.930 . S
H1417 C1432 0.960 . S
H1418 C1432 0.960 . S
H1419 C1432 0.960 . S
C1420 H1412 0.929 . S
C1420 C1421 1.377 . S
C1420 C1422 1.384 . S
C1421 C1420 1.377 . S
C1421 C1427 1.390 . S
C1422 H1413 0.930 . S
C1422 C1420 1.384 . S
C1422 C1423 1.372 . S
C1423 C1422 1.372 . S
C1423 C1424 1.400 . S
C1423 C1428 1.490 . S
C1424 H1414 0.930 . S
C1424 C1423 1.400 . S
C1424 C1427 1.386 . S
H1425 C1441 0.930 . S
H1426 C1442 0.931 . S
C1427 H1415 0.929 . S
C1427 C1421 1.390 . S
C1427 C1424 1.386 . S
C1428 C1423 1.490 . S
C1428 C1430 1.395 . S
C1428 C1431 1.403 . S
H1429 C1435 0.930 . S
C1430 H1416 0.930 . S
C1430 C1428 1.395 . S
C1430 C1433 1.403 . S
C1431 C1428 1.403 . S
C1431 C1432 1.524 . S
C1431 C1435 1.400 . S
C1432 H1417 0.960 . S
C1432 H1418 0.960 . S
C1432 H1419 0.960 . S
C1432 C1431 1.524 . S
C1433 C1430 1.403 . S
C1433 C1434 1.392 . S
C1433 C1437 1.495 . S
C1434 C1433 1.392 . S
C1434 C1435 1.385 . S
C1434 C1436 1.478 . S
C1435 H1429 0.930 . S
C1435 C1431 1.400 . S
C1435 C1434 1.385 . S
C1436 C1434 1.478 . S
C1436 C1438 1.381 . S
C1436 C1442 1.383 . S
C1437 C1433 1.495 . S
C1437 H1443 0.959 . S
C1437 H1444 0.961 . S
C1437 H1445 0.960 . S
C1438 C1436 1.381 . S
C1438 C1439 1.394 . S
C1438 H1446 0.930 . S
C1439 C1438 1.394 . S
C1439 C1440 1.383 . S
C1439 H1447 0.929 . S
C1440 C1439 1.383 . S
C1440 C1441 1.377 . S
C1441 H1425 0.930 . S
C1441 C1440 1.377 . S
C1441 C1442 1.379 . S
C1442 H1426 0.931 . S
C1442 C1436 1.383 . S
C1442 C1441 1.379 . S
H1443 C1437 0.959 . S
H1444 C1437 0.961 . S
H1445 C1437 0.960 . S
H1446 C1438 0.930 . S
H1447 C1439 0.929 . S
H1448 C1456 0.929 . S
H1449 C1458 0.930 . S
H1450 C1460 0.930 . S
H1451 C1463 0.929 . S
H1452 C1466 0.930 . S
H1453 C1468 0.960 . S
H1454 C1468 0.960 . S
H1455 C1468 0.960 . S
C1456 H1448 0.929 . S
C1456 C1457 1.377 . S
C1456 C1458 1.384 . S
C1457 C1456 1.377 . S
C1457 C1463 1.390 . S
C1458 H1449 0.930 . S
C1458 C1456 1.384 . S
C1458 C1459 1.372 . S
C1459 C1458 1.372 . S
C1459 C1460 1.400 . S
C1459 C1464 1.490 . S
C1460 H1450 0.930 . S
C1460 C1459 1.400 . S
C1460 C1463 1.386 . S
H1461 C1477 0.930 . S
H1462 C1478 0.931 . S
C1463 H1451 0.929 . S
C1463 C1457 1.390 . S
C1463 C1460 1.386 . S
C1464 C1459 1.490 . S
C1464 C1466 1.395 . S
C1464 C1467 1.403 . S
H1465 C1471 0.930 . S
C1466 H1452 0.930 . S
C1466 C1464 1.395 . S
C1466 C1469 1.403 . S
C1467 C1464 1.403 . S
C1467 C1468 1.524 . S
C1467 C1471 1.400 . S
C1468 H1453 0.960 . S
C1468 H1454 0.960 . S
C1468 H1455 0.960 . S
C1468 C1467 1.524 . S
C1469 C1466 1.403 . S
C1469 C1470 1.392 . S
C1469 C1473 1.495 . S
C1470 C1469 1.392 . S
C1470 C1471 1.385 . S
C1470 C1472 1.478 . S
C1471 H1465 0.930 . S
C1471 C1467 1.400 . S
C1471 C1470 1.385 . S
C1472 C1470 1.478 . S
C1472 C1474 1.381 . S
C1472 C1478 1.383 . S
C1473 C1469 1.495 . S
C1473 H1479 0.959 . S
C1473 H1480 0.961 . S
C1473 H1481 0.960 . S
C1474 C1472 1.381 . S
C1474 C1475 1.394 . S
C1474 H1482 0.930 . S
C1475 C1474 1.394 . S
C1475 C1476 1.383 . S
C1475 H1483 0.929 . S
C1476 C1475 1.383 . S
C1476 C1477 1.377 . S
C1477 H1461 0.930 . S
C1477 C1476 1.377 . S
C1477 C1478 1.379 . S
C1478 H1462 0.931 . S
C1478 C1472 1.383 . S
C1478 C1477 1.379 . S
H1479 C1473 0.959 . S
H1480 C1473 0.961 . S
H1481 C1473 0.960 . S
H1482 C1474 0.930 . S
H1483 C1475 0.929 . S
H1484 C1492 0.929 . S
H1485 C1494 0.930 . S
H1486 C1496 0.930 . S
H1487 C1499 0.929 . S
H1488 C1502 0.930 . S
H1489 C1504 0.960 . S
H1490 C1504 0.960 . S
H1491 C1504 0.960 . S
C1492 H1484 0.929 . S
C1492 C1493 1.377 . S
C1492 C1494 1.384 . S
C1493 C1492 1.377 . S
C1493 C1499 1.390 . S
C1494 H1485 0.930 . S
C1494 C1492 1.384 . S
C1494 C1495 1.372 . S
C1495 C1494 1.372 . S
C1495 C1496 1.400 . S
C1495 C1500 1.490 . S
C1496 H1486 0.930 . S
C1496 C1495 1.400 . S
C1496 C1499 1.386 . S
H1497 C1513 0.930 . S
H1498 C1514 0.931 . S
C1499 H1487 0.929 . S
C1499 C1493 1.390 . S
C1499 C1496 1.386 . S
C1500 C1495 1.490 . S
C1500 C1502 1.395 . S
C1500 C1503 1.403 . S
H1501 C1507 0.930 . S
C1502 H1488 0.930 . S
C1502 C1500 1.395 . S
C1502 C1505 1.403 . S
C1503 C1500 1.403 . S
C1503 C1504 1.524 . S
C1503 C1507 1.400 . S
C1504 H1489 0.960 . S
C1504 H1490 0.960 . S
C1504 H1491 0.960 . S
C1504 C1503 1.524 . S
C1505 C1502 1.403 . S
C1505 C1506 1.392 . S
C1505 C1509 1.495 . S
C1506 C1505 1.392 . S
C1506 C1507 1.385 . S
C1506 C1508 1.478 . S
C1507 H1501 0.930 . S
C1507 C1503 1.400 . S
C1507 C1506 1.385 . S
C1508 C1506 1.478 . S
C1508 C1510 1.381 . S
C1508 C1514 1.383 . S
C1509 C1505 1.495 . S
C1509 H1515 0.959 . S
C1509 H1516 0.961 . S
C1509 H1517 0.960 . S
C1510 C1508 1.381 . S
C1510 C1511 1.394 . S
C1510 H1518 0.930 . S
C1511 C1510 1.394 . S
C1511 C1512 1.383 . S
C1511 H1519 0.929 . S
C1512 C1511 1.383 . S
C1512 C1513 1.377 . S
C1513 H1497 0.930 . S
C1513 C1512 1.377 . S
C1513 C1514 1.379 . S
C1514 H1498 0.931 . S
C1514 C1508 1.383 . S
C1514 C1513 1.379 . S
H1515 C1509 0.959 . S
H1516 C1509 0.961 . S
H1517 C1509 0.960 . S
H1518 C1510 0.930 . S
H1519 C1511 0.929 . S
H1520 C1528 0.929 . S
H1521 C1530 0.930 . S
H1522 C1532 0.930 . S
H1523 C1535 0.929 . S
H1524 C1538 0.930 . S
H1525 C1540 0.960 . S
H1526 C1540 0.960 1_565 S
H1527 C1540 0.960 . S
C1528 H1520 0.929 . S
C1528 C1529 1.377 1_565 S
C1528 C1530 1.384 . S
C1529 C1528 1.377 1_545 S
C1529 C1535 1.390 . S
C1530 H1521 0.930 . S
C1530 C1528 1.384 . S
C1530 C1531 1.372 . S
C1531 C1530 1.372 . S
C1531 C1532 1.400 1_565 S
C1531 C1536 1.490 . S
C1532 H1522 0.930 . S
C1532 C1531 1.400 1_545 S
C1532 C1535 1.386 . S
H1533 C1549 0.930 . S
H1534 C1550 0.931 . S
C1535 H1523 0.929 . S
C1535 C1529 1.390 . S
C1535 C1532 1.386 . S
C1536 C1531 1.490 . S
C1536 C1538 1.395 . S
C1536 C1539 1.403 . S
H1537 C1543 0.930 . S
C1538 H1524 0.930 . S
C1538 C1536 1.395 . S
C1538 C1541 1.403 . S
C1539 C1536 1.403 . S
C1539 C1540 1.524 1_565 S
C1539 C1543 1.400 . S
C1540 H1525 0.960 . S
C1540 H1526 0.960 1_545 S
C1540 H1527 0.960 . S
C1540 C1539 1.524 1_545 S
C1541 C1538 1.403 . S
C1541 C1542 1.392 . S
C1541 C1545 1.495 . S
C1542 C1541 1.392 . S
C1542 C1543 1.385 . S
C1542 C1544 1.478 . S
C1543 H1537 0.930 . S
C1543 C1539 1.400 . S
C1543 C1542 1.385 . S
C1544 C1542 1.478 . S
C1544 C1546 1.381 . S
C1544 C1550 1.383 . S
C1545 C1541 1.495 . S
C1545 H1551 0.959 . S
C1545 H1552 0.961 . S
C1545 H1553 0.960 . S
C1546 C1544 1.381 . S
C1546 C1547 1.394 . S
C1546 H1554 0.930 . S
C1547 C1546 1.394 . S
C1547 C1548 1.383 . S
C1547 H1555 0.929 . S
C1548 C1547 1.383 . S
C1548 C1549 1.377 . S
C1549 H1533 0.930 . S
C1549 C1548 1.377 . S
C1549 C1550 1.379 . S
C1550 H1534 0.931 . S
C1550 C1544 1.383 . S
C1550 C1549 1.379 . S
H1551 C1545 0.959 . S
H1552 C1545 0.961 . S
H1553 C1545 0.960 . S
H1554 C1546 0.930 . S
H1555 C1547 0.929 . S
H1556 C1564 0.929 . S
H1557 C1566 0.930 . S
H1558 C1568 0.930 . S
H1559 C1571 0.929 . S
H1560 C1574 0.930 . S
H1561 C1576 0.960 1_545 S
H1562 C1576 0.960 1_545 S
H1563 C1576 0.960 . S
C1564 H1556 0.929 . S
C1564 C1565 1.377 . S
C1564 C1566 1.384 . S
C1565 C1564 1.377 . S
C1565 C1571 1.390 . S
C1566 H1557 0.930 . S
C1566 C1564 1.384 . S
C1566 C1567 1.372 . S
C1567 C1566 1.372 . S
C1567 C1568 1.400 . S
C1567 C1572 1.490 . S
C1568 H1558 0.930 . S
C1568 C1567 1.400 . S
C1568 C1571 1.386 . S
H1569 C1585 0.930 . S
H1570 C1586 0.931 . S
C1571 H1559 0.929 . S
C1571 C1565 1.390 . S
C1571 C1568 1.386 . S
C1572 C1567 1.490 . S
C1572 C1574 1.395 . S
C1572 C1575 1.403 . S
H1573 C1579 0.930 . S
C1574 H1560 0.930 . S
C1574 C1572 1.395 . S
C1574 C1577 1.403 . S
C1575 C1572 1.403 . S
C1575 C1576 1.524 . S
C1575 C1579 1.400 . S
C1576 H1561 0.960 1_565 S
C1576 H1562 0.960 1_565 S
C1576 H1563 0.960 . S
C1576 C1575 1.524 . S
C1577 C1574 1.403 . S
C1577 C1578 1.392 . S
C1577 C1581 1.495 . S
C1578 C1577 1.392 . S
C1578 C1579 1.385 . S
C1578 C1580 1.478 . S
C1579 H1573 0.930 . S
C1579 C1575 1.400 . S
C1579 C1578 1.385 . S
C1580 C1578 1.478 . S
C1580 C1582 1.381 . S
C1580 C1586 1.383 . S
C1581 C1577 1.495 . S
C1581 H1587 0.959 . S
C1581 H1588 0.961 . S
C1581 H1589 0.960 . S
C1582 C1580 1.381 . S
C1582 C1583 1.394 . S
C1582 H1590 0.930 . S
C1583 C1582 1.394 . S
C1583 C1584 1.383 . S
C1583 H1591 0.929 . S
C1584 C1583 1.383 . S
C1584 C1585 1.377 . S
C1585 H1569 0.930 . S
C1585 C1584 1.377 . S
C1585 C1586 1.379 . S
C1586 H1570 0.931 . S
C1586 C1580 1.383 . S
C1586 C1585 1.379 . S
H1587 C1581 0.959 . S
H1588 C1581 0.961 . S
H1589 C1581 0.960 . S
H1590 C1582 0.930 . S
H1591 C1583 0.929 . S
H1592 C1600 0.929 . S
H1593 C1602 0.930 . S
H1594 C1604 0.930 . S
H1595 C1607 0.929 . S
H1596 C1610 0.930 1_565 S
H1597 C1612 0.960 . S
H1598 C1612 0.960 . S
H1599 C1612 0.960 . S
C1600 H1592 0.929 . S
C1600 C1601 1.377 . S
C1600 C1602 1.384 . S
C1601 C1600 1.377 . S
C1601 C1607 1.390 . S
C1602 H1593 0.930 . S
C1602 C1600 1.384 . S
C1602 C1603 1.372 . S
C1603 C1602 1.372 . S
C1603 C1604 1.400 . S
C1603 C1608 1.490 . S
C1604 H1594 0.930 . S
C1604 C1603 1.400 . S
C1604 C1607 1.386 . S
H1605 C1621 0.930 . S
H1606 C1622 0.931 . S
C1607 H1595 0.929 . S
C1607 C1601 1.390 . S
C1607 C1604 1.386 . S
C1608 C1603 1.490 . S
C1608 C1610 1.395 . S
C1608 C1611 1.403 . S
H1609 C1615 0.930 . S
C1610 H1596 0.930 1_545 S
C1610 C1608 1.395 . S
C1610 C1613 1.403 1_545 S
C1611 C1608 1.403 . S
C1611 C1612 1.524 . S
C1611 C1615 1.400 . S
C1612 H1597 0.960 . S
C1612 H1598 0.960 . S
C1612 H1599 0.960 . S
C1612 C1611 1.524 . S
C1613 C1610 1.403 1_565 S
C1613 C1614 1.392 1_565 S
C1613 C1617 1.495 . S
C1614 C1613 1.392 1_545 S
C1614 C1615 1.385 . S
C1614 C1616 1.478 . S
C1615 H1609 0.930 . S
C1615 C1611 1.400 . S
C1615 C1614 1.385 . S
C1616 C1614 1.478 . S
C1616 C1618 1.381 1_545 S
C1616 C1622 1.383 . S
C1617 C1613 1.495 . S
C1617 H1623 0.959 . S
C1617 H1624 0.961 . S
C1617 H1625 0.960 . S
C1618 C1616 1.381 1_565 S
C1618 C1619 1.394 . S
C1618 H1626 0.930 . S
C1619 C1618 1.394 . S
C1619 C1620 1.383 . S
C1619 H1627 0.929 . S
C1620 C1619 1.383 . S
C1620 C1621 1.377 1_565 S
C1621 H1605 0.930 . S
C1621 C1620 1.377 1_545 S
C1621 C1622 1.379 . S
C1622 H1606 0.931 . S
C1622 C1616 1.383 . S
C1622 C1621 1.379 . S
H1623 C1617 0.959 . S
H1624 C1617 0.961 . S
H1625 C1617 0.960 . S
H1626 C1618 0.930 . S
H1627 C1619 0.929 . S
H1628 C1636 0.929 . S
H1629 C1638 0.930 . S
H1630 C1640 0.930 . S
H1631 C1643 0.929 . S
H1632 C1646 0.930 . S
H1633 C1648 0.960 . S
H1634 C1648 0.957 1_545 S
H1635 C1648 0.960 . S
C1636 H1628 0.929 . S
C1636 C1637 1.377 . S
C1636 C1638 1.384 . S
C1637 C1636 1.377 . S
C1637 C1643 1.390 . S
C1638 H1629 0.930 . S
C1638 C1636 1.384 . S
C1638 C1639 1.372 . S
C1639 C1638 1.372 . S
C1639 C1640 1.400 . S
C1639 C1644 1.490 . S
C1640 H1630 0.930 . S
C1640 C1639 1.400 . S
C1640 C1643 1.386 . S
H1641 C1657 0.930 . S
H1642 C1658 0.931 . S
C1643 H1631 0.929 . S
C1643 C1637 1.390 . S
C1643 C1640 1.386 . S
C1644 C1639 1.490 . S
C1644 C1646 1.395 . S
C1644 C1647 1.403 . S
H1645 C1651 0.930 . S
C1646 H1632 0.930 . S
C1646 C1644 1.395 . S
C1646 C1649 1.403 . S
C1647 C1644 1.403 . S
C1647 C1648 1.524 1_545 S
C1647 C1651 1.400 . S
C1648 H1633 0.960 . S
C1648 H1634 0.957 1_565 S
C1648 H1635 0.960 . S
C1648 C1647 1.524 1_565 S
C1649 C1646 1.403 . S
C1649 C1650 1.392 . S
C1649 C1653 1.495 . S
C1650 C1649 1.392 . S
C1650 C1651 1.385 . S
C1650 C1652 1.478 . S
C1651 H1645 0.930 . S
C1651 C1647 1.400 . S
C1651 C1650 1.385 . S
C1652 C1650 1.478 . S
C1652 C1654 1.381 . S
C1652 C1658 1.383 . S
C1653 C1649 1.495 . S
C1653 H1659 0.959 . S
C1653 H1660 0.961 . S
C1653 H1661 0.960 . S
C1654 C1652 1.381 . S
C1654 C1655 1.394 . S
C1654 H1662 0.930 . S
C1655 C1654 1.394 . S
C1655 C1656 1.383 . S
C1655 H1663 0.929 . S
C1656 C1655 1.383 . S
C1656 C1657 1.377 . S
C1657 H1641 0.930 . S
C1657 C1656 1.377 . S
C1657 C1658 1.379 . S
C1658 H1642 0.931 . S
C1658 C1652 1.383 . S
C1658 C1657 1.379 . S
H1659 C1653 0.959 . S
H1660 C1653 0.961 . S
H1661 C1653 0.960 . S
H1662 C1654 0.930 . S
H1663 C1655 0.929 . S
H1664 C1672 0.929 . S
H1665 C1674 0.960 . S
H1666 C1676 0.930 . S
H1667 C1679 0.929 . S
H1668 C1682 0.930 . S
H1669 C1684 0.960 . S
H1670 C1684 0.960 . S
H1671 C1684 0.960 . S
C1672 H1664 0.929 . S
C1672 C1673 1.377 . S
C1672 C1674 1.384 . S
C1673 C1672 1.377 . S
C1673 C1679 1.390 . S
C1674 H1665 0.960 . S
C1674 C1672 1.384 . S
C1674 C1675 1.372 . S
C1675 C1674 1.372 . S
C1675 C1676 1.400 . S
C1675 C1680 1.490 . S
C1676 H1666 0.930 . S
C1676 C1675 1.400 . S
C1676 C1679 1.386 . S
H1677 C1693 0.930 . S
H1678 C1694 0.931 . S
C1679 H1667 0.929 . S
C1679 C1673 1.390 . S
C1679 C1676 1.386 . S
C1680 C1675 1.490 . S
C1680 C1682 1.395 . S
C1680 C1683 1.403 . S
H1681 C1687 0.930 . S
C1682 H1668 0.930 . S
C1682 C1680 1.395 . S
C1682 C1685 1.403 . S
C1683 C1680 1.403 . S
C1683 C1684 1.524 . S
C1683 C1687 1.400 . S
C1684 H1669 0.960 . S
C1684 H1670 0.960 . S
C1684 H1671 0.960 . S
C1684 C1683 1.524 . S
C1685 C1682 1.403 . S
C1685 C1686 1.392 . S
C1685 C1689 1.495 . S
C1686 C1685 1.392 . S
C1686 C1687 1.385 . S
C1686 C1688 1.478 . S
C1687 H1681 0.930 . S
C1687 C1683 1.400 . S
C1687 C1686 1.385 . S
C1688 C1686 1.478 . S
C1688 C1690 1.381 1_545 S
C1688 C1694 1.383 . S
C1689 C1685 1.495 . S
C1689 H1695 0.959 . S
C1689 H1696 0.961 . S
C1689 H1697 0.960 1_545 S
C1690 C1688 1.381 1_565 S
C1690 C1691 1.394 . S
C1690 H1698 0.930 . S
C1691 C1690 1.394 . S
C1691 C1692 1.383 . S
C1691 H1699 0.929 . S
C1692 C1691 1.383 . S
C1692 C1693 1.377 1_565 S
C1693 H1677 0.930 . S
C1693 C1692 1.377 1_545 S
C1693 C1694 1.379 . S
C1694 H1678 0.931 . S
C1694 C1688 1.383 . S
C1694 C1693 1.379 . S
H1695 C1689 0.959 . S
H1696 C1689 0.961 . S
H1697 C1689 0.960 1_565 S
H1698 C1690 0.930 . S
H1699 C1691 0.929 . S
H1700 C1708 0.929 . S
H1701 C1710 0.930 . S
H1702 C1712 0.930 . S
H1703 C1715 0.929 . S
H1704 C1718 0.930 . S
H1705 C1720 0.960 . S
H1706 C1720 0.960 . S
H1707 C1720 0.960 . S
C1708 H1700 0.929 . S
C1708 C1709 1.377 . S
C1708 C1710 1.384 . S
C1709 C1708 1.377 . S
C1709 C1715 1.390 . S
C1710 H1701 0.930 . S
C1710 C1708 1.384 . S
C1710 C1711 1.372 . S
C1711 C1710 1.372 . S
C1711 C1712 1.400 . S
C1711 C1716 1.490 . S
C1712 H1702 0.930 . S
C1712 C1711 1.400 . S
C1712 C1715 1.386 . S
H1713 C1729 0.930 . S
H1714 C1730 0.931 . S
C1715 H1703 0.929 . S
C1715 C1709 1.390 . S
C1715 C1712 1.386 . S
C1716 C1711 1.490 . S
C1716 C1718 1.395 . S
C1716 C1719 1.403 . S
H1717 C1723 0.930 . S
C1718 H1704 0.930 . S
C1718 C1716 1.395 . S
C1718 C1721 1.403 . S
C1719 C1716 1.403 . S
C1719 C1720 1.524 . S
C1719 C1723 1.400 . S
C1720 H1705 0.960 . S
C1720 H1706 0.960 . S
C1720 H1707 0.960 . S
C1720 C1719 1.524 . S
C1721 C1718 1.403 . S
C1721 C1722 1.392 . S
C1721 C1725 1.495 1_545 S
C1722 C1721 1.392 . S
C1722 C1723 1.385 . S
C1722 C1724 1.478 . S
C1723 H1717 0.930 . S
C1723 C1719 1.400 . S
C1723 C1722 1.385 . S
C1724 C1722 1.478 . S
C1724 C1726 1.381 . S
C1724 C1730 1.383 . S
C1725 C1721 1.495 1_565 S
C1725 H1731 0.959 . S
C1725 H1732 0.961 . S
C1725 H1733 0.960 . S
C1726 C1724 1.381 . S
C1726 C1727 1.394 . S
C1726 H1734 0.930 1_545 S
C1727 C1726 1.394 . S
C1727 C1728 1.383 . S
C1727 H1735 0.929 1_545 S
C1728 C1727 1.383 . S
C1728 C1729 1.377 . S
C1729 H1713 0.930 . S
C1729 C1728 1.377 . S
C1729 C1730 1.379 . S
C1730 H1714 0.931 . S
C1730 C1724 1.383 . S
C1730 C1729 1.379 . S
H1731 C1725 0.959 . S
H1732 C1725 0.961 . S
H1733 C1725 0.960 . S
H1734 C1726 0.930 1_565 S
H1735 C1727 0.929 1_565 S
H1736 C1744 0.929 . S
H1737 C1746 0.930 . S
H1738 C1748 0.930 . S
H1739 C1751 0.929 . S
H1740 C1754 0.930 . S
H1741 C1756 0.960 . S
H1742 C1756 0.960 . S
H1743 C1756 0.960 . S
C1744 H1736 0.929 . S
C1744 C1745 1.377 1_565 S
C1744 C1746 1.384 . S
C1745 C1744 1.377 1_545 S
C1745 C1751 1.390 . S
C1746 H1737 0.930 . S
C1746 C1744 1.384 . S
C1746 C1747 1.372 . S
C1747 C1746 1.372 . S
C1747 C1748 1.400 1_565 S
C1747 C1752 1.490 . S
C1748 H1738 0.930 . S
C1748 C1747 1.400 1_545 S
C1748 C1751 1.386 . S
H1749 C1765 0.930 . S
H1750 C1766 0.931 . S
C1751 H1739 0.929 . S
C1751 C1745 1.390 . S
C1751 C1748 1.386 . S
C1752 C1747 1.490 . S
C1752 C1754 1.395 . S
C1752 C1755 1.403 . S
H1753 C1759 0.930 . S
C1754 H1740 0.930 . S
C1754 C1752 1.395 . S
C1754 C1757 1.403 . S
C1755 C1752 1.403 . S
C1755 C1756 1.524 . S
C1755 C1759 1.400 . S
C1756 H1741 0.960 . S
C1756 H1742 0.960 . S
C1756 H1743 0.960 . S
C1756 C1755 1.524 . S
C1757 C1754 1.403 . S
C1757 C1758 1.392 . S
C1757 C1761 1.495 . S
C1758 C1757 1.392 . S
C1758 C1759 1.385 . S
C1758 C1760 1.478 . S
C1759 H1753 0.930 . S
C1759 C1755 1.400 . S
C1759 C1758 1.385 . S
C1760 C1758 1.478 . S
C1760 C1762 1.381 . S
C1760 C1766 1.383 . S
C1761 C1757 1.495 . S
C1761 H1767 0.959 . S
C1761 H1768 0.961 . S
C1761 H1769 0.960 . S
C1762 C1760 1.381 . S
C1762 C1763 1.394 . S
C1762 H1770 0.930 . S
C1763 C1762 1.394 . S
C1763 C1764 1.383 . S
C1763 H1771 0.929 . S
C1764 C1763 1.383 . S
C1764 C1765 1.377 . S
C1765 H1749 0.930 . S
C1765 C1764 1.377 . S
C1765 C1766 1.379 . S
C1766 H1750 0.931 . S
C1766 C1760 1.383 . S
C1766 C1765 1.379 . S
H1767 C1761 0.959 . S
H1768 C1761 0.961 . S
H1769 C1761 0.960 . S
H1770 C1762 0.930 . S
H1771 C1763 0.929 . S
H1772 C1780 0.929 1_545 S
H1773 C1782 0.930 1_545 S
H1774 C1784 0.930 . S
H1775 C1787 0.929 . S
H1776 C1790 0.930 . S
H1777 C1792 0.960 . S
H1778 C1792 0.960 . S
H1779 C1792 0.960 . S
C1780 H1772 0.929 1_565 S
C1780 C1781 1.377 . S
C1780 C1782 1.384 . S
C1781 C1780 1.377 . S
C1781 C1787 1.390 . S
C1782 H1773 0.930 1_565 S
C1782 C1780 1.384 . S
C1782 C1783 1.372 . S
C1783 C1782 1.372 . S
C1783 C1784 1.400 . S
C1783 C1788 1.490 . S
C1784 H1774 0.930 . S
C1784 C1783 1.400 . S
C1784 C1787 1.386 . S
H1785 C1801 0.930 . S
H1786 C1802 0.931 . S
C1787 H1775 0.929 . S
C1787 C1781 1.390 . S
C1787 C1784 1.386 . S
C1788 C1783 1.490 . S
C1788 C1790 1.395 . S
C1788 C1791 1.403 . S
H1789 C1795 0.930 . S
C1790 H1776 0.930 . S
C1790 C1788 1.395 . S
C1790 C1793 1.403 . S
C1791 C1788 1.403 . S
C1791 C1792 1.524 . S
C1791 C1795 1.400 . S
C1792 H1777 0.960 . S
C1792 H1778 0.960 . S
C1792 H1779 0.960 . S
C1792 C1791 1.524 . S
C1793 C1790 1.403 . S
C1793 C1794 1.392 . S
C1793 C1797 1.495 . S
C1794 C1793 1.392 . S
C1794 C1795 1.385 . S
C1794 C1796 1.478 . S
C1795 H1789 0.930 . S
C1795 C1791 1.400 . S
C1795 C1794 1.385 . S
C1796 C1794 1.478 . S
C1796 C1798 1.381 . S
C1796 C1802 1.383 . S
C1797 C1793 1.495 . S
C1797 H1803 0.959 . S
C1797 H1804 0.961 . S
C1797 H1805 0.960 . S
C1798 C1796 1.381 . S
C1798 C1799 1.394 . S
C1798 H1806 0.930 . S
C1799 C1798 1.394 . S
C1799 C1800 1.383 . S
C1799 H1807 0.929 . S
C1800 C1799 1.383 . S
C1800 C1801 1.377 . S
C1801 H1785 0.930 . S
C1801 C1800 1.377 . S
C1801 C1802 1.379 . S
C1802 H1786 0.931 . S
C1802 C1796 1.383 . S
C1802 C1801 1.379 . S
H1803 C1797 0.959 . S
H1804 C1797 0.961 . S
H1805 C1797 0.960 . S
H1806 C1798 0.930 . S
H1807 C1799 0.929 . S
H1808 C1816 0.929 . S
H1809 C1818 0.930 1_655 S
H1810 C1820 0.930 . S
H1811 C1823 0.929 . S
H1812 C1826 0.930 . S
H1813 C1828 0.960 . S
H1814 C1828 0.960 . S
H1815 C1828 0.960 . S
C1816 H1808 0.929 . S
C1816 C1817 1.377 . S
C1816 C1818 1.384 . S
C1817 C1816 1.377 . S
C1817 C1823 1.390 . S
C1818 H1809 0.930 1_455 S
C1818 C1816 1.384 . S
C1818 C1819 1.372 . S
C1819 C1818 1.372 . S
C1819 C1820 1.400 . S
C1819 C1824 1.490 . S
C1820 H1810 0.930 . S
C1820 C1819 1.400 . S
C1820 C1823 1.386 . S
H1821 C1837 0.930 . S
H1822 C1838 0.931 1_455 S
C1823 H1811 0.929 . S
C1823 C1817 1.390 . S
C1823 C1820 1.386 . S
C1824 C1819 1.490 . S
C1824 C1826 1.395 1_455 S
C1824 C1827 1.403 . S
H1825 C1831 0.930 . S
C1826 H1812 0.930 . S
C1826 C1824 1.395 1_655 S
C1826 C1829 1.403 . S
C1827 C1824 1.403 . S
C1827 C1828 1.524 . S
C1827 C1831 1.400 . S
C1828 H1813 0.960 . S
C1828 H1814 0.960 . S
C1828 H1815 0.960 . S
C1828 C1827 1.524 . S
C1829 C1826 1.403 . S
C1829 C1830 1.392 . S
C1829 C1833 1.495 . S
C1830 C1829 1.392 . S
C1830 C1831 1.385 1_655 S
C1830 C1832 1.478 . S
C1831 H1825 0.930 . S
C1831 C1827 1.400 . S
C1831 C1830 1.385 1_455 S
C1832 C1830 1.478 . S
C1832 C1834 1.381 . S
C1832 C1838 1.383 . S
C1833 C1829 1.495 . S
C1833 H1839 0.959 . S
C1833 H1840 0.961 . S
C1833 H1841 0.960 . S
C1834 C1832 1.381 . S
C1834 C1835 1.394 . S
C1834 H1842 0.930 . S
C1835 C1834 1.394 . S
C1835 C1836 1.383 . S
C1835 H1843 0.929 . S
C1836 C1835 1.383 . S
C1836 C1837 1.377 . S
C1837 H1821 0.930 . S
C1837 C1836 1.377 . S
C1837 C1838 1.379 . S
C1838 H1822 0.931 1_655 S
C1838 C1832 1.383 . S
C1838 C1837 1.379 . S
H1839 C1833 0.959 . S
H1840 C1833 0.961 . S
H1841 C1833 0.960 . S
H1842 C1834 0.930 . S
H1843 C1835 0.929 . S
H1844 C1852 0.929 . S
H1845 C1854 0.930 . S
H1846 C1856 0.930 . S
H1847 C1859 0.929 . S
H1848 C1862 0.930 . S
H1849 C1864 0.960 . S
H1850 C1864 0.960 1_455 S
H1851 C1864 0.960 1_455 S
C1852 H1844 0.929 . S
C1852 C1853 1.377 . S
C1852 C1854 1.384 . S
C1853 C1852 1.377 . S
C1853 C1859 1.390 . S
C1854 H1845 0.930 . S
C1854 C1852 1.384 . S
C1854 C1855 1.372 . S
C1855 C1854 1.372 . S
C1855 C1856 1.400 . S
C1855 C1860 1.490 . S
C1856 H1846 0.930 . S
C1856 C1855 1.400 . S
C1856 C1859 1.386 . S
H1857 C1873 0.930 . S
H1858 C1874 0.931 . S
C1859 H1847 0.929 . S
C1859 C1853 1.390 . S
C1859 C1856 1.386 . S
C1860 C1855 1.490 . S
C1860 C1862 1.395 . S
C1860 C1863 1.403 . S
H1861 C1867 0.930 . S
C1862 H1848 0.930 . S
C1862 C1860 1.395 . S
C1862 C1865 1.403 . S
C1863 C1860 1.403 . S
C1863 C1864 1.524 1_455 S
C1863 C1867 1.400 1_455 S
C1864 H1849 0.960 . S
C1864 H1850 0.960 1_655 S
C1864 H1851 0.960 1_655 S
C1864 C1863 1.524 1_655 S
C1865 C1862 1.403 . S
C1865 C1866 1.392 1_455 S
C1865 C1869 1.495 . S
C1866 C1865 1.392 1_655 S
C1866 C1867 1.385 . S
C1866 C1868 1.478 . S
C1867 H1861 0.930 . S
C1867 C1863 1.400 1_655 S
C1867 C1866 1.385 . S
C1868 C1866 1.478 . S
C1868 C1870 1.381 . S
C1868 C1874 1.383 . S
C1869 C1865 1.495 . S
C1869 H1875 0.959 . S
C1869 H1876 0.961 1_455 S
C1869 H1877 0.960 1_455 S
C1870 C1868 1.381 . S
C1870 C1871 1.394 . S
C1870 H1878 0.930 . S
C1871 C1870 1.394 . S
C1871 C1872 1.383 . S
C1871 H1879 0.929 . S
C1872 C1871 1.383 . S
C1872 C1873 1.377 . S
C1873 H1857 0.930 . S
C1873 C1872 1.377 . S
C1873 C1874 1.379 . S
C1874 H1858 0.931 . S
C1874 C1868 1.383 . S
C1874 C1873 1.379 . S
H1875 C1869 0.959 . S
H1876 C1869 0.961 1_655 S
H1877 C1869 0.960 1_655 S
H1878 C1870 0.930 . S
H1879 C1871 0.929 . S
H1880 C1888 0.929 . S
H1881 C1890 0.930 . S
H1882 C1892 0.930 . S
H1883 C1895 0.929 . S
H1884 C1898 0.930 . S
H1885 C1900 0.960 . S
H1886 C1900 0.960 . S
H1887 C1900 0.960 . S
C1888 H1880 0.929 . S
C1888 C1889 1.377 . S
C1888 C1890 1.384 . S
C1889 C1888 1.377 . S
C1889 C1895 1.390 . S
C1890 H1881 0.930 . S
C1890 C1888 1.384 . S
C1890 C1891 1.372 . S
C1891 C1890 1.372 . S
C1891 C1892 1.400 . S
C1891 C1896 1.490 . S
C1892 H1882 0.930 . S
C1892 C1891 1.400 . S
C1892 C1895 1.386 . S
H1893 C1909 0.930 . S
H1894 C1910 0.931 . S
C1895 H1883 0.929 . S
C1895 C1889 1.390 . S
C1895 C1892 1.386 . S
C1896 C1891 1.490 . S
C1896 C1898 1.395 . S
C1896 C1899 1.403 . S
H1897 C1903 0.930 . S
C1898 H1884 0.930 . S
C1898 C1896 1.395 . S
C1898 C1901 1.403 . S
C1899 C1896 1.403 . S
C1899 C1900 1.524 . S
C1899 C1903 1.400 . S
C1900 H1885 0.960 . S
C1900 H1886 0.960 . S
C1900 H1887 0.960 . S
C1900 C1899 1.524 . S
C1901 C1898 1.403 . S
C1901 C1902 1.392 . S
C1901 C1905 1.495 . S
C1902 C1901 1.392 . S
C1902 C1903 1.385 . S
C1902 C1904 1.478 . S
C1903 H1897 0.930 . S
C1903 C1899 1.400 . S
C1903 C1902 1.385 . S
C1904 C1902 1.478 . S
C1904 C1906 1.381 . S
C1904 C1910 1.383 . S
C1905 C1901 1.495 . S
C1905 H1911 0.959 . S
C1905 H1912 0.961 . S
C1905 H1913 0.960 . S
C1906 C1904 1.381 . S
C1906 C1907 1.394 . S
C1906 H1914 0.930 . S
C1907 C1906 1.394 . S
C1907 C1908 1.383 . S
C1907 H1915 0.929 . S
C1908 C1907 1.383 . S
C1908 C1909 1.377 . S
C1909 H1893 0.930 . S
C1909 C1908 1.377 . S
C1909 C1910 1.379 . S
C1910 H1894 0.931 . S
C1910 C1904 1.383 . S
C1910 C1909 1.379 . S
H1911 C1905 0.959 . S
H1912 C1905 0.961 . S
H1913 C1905 0.960 . S
H1914 C1906 0.930 . S
H1915 C1907 0.929 . S
H1916 C1924 0.929 . S
H1917 C1926 0.930 . S
H1918 C1928 0.930 . S
H1919 C1931 0.929 . S
H1920 C1934 0.930 . S
H1921 C1936 0.960 . S
H1922 C1936 0.965 1_556 S
H1923 C1936 0.955 . S
C1924 H1916 0.929 . S
C1924 C1925 1.377 1_556 S
C1924 C1926 1.384 . S
C1925 C1924 1.377 1_554 S
C1925 C1931 1.390 . S
C1926 H1917 0.930 . S
C1926 C1924 1.384 . S
C1926 C1927 1.372 1_556 S
C1927 C1926 1.372 1_554 S
C1927 C1928 1.400 . S
C1927 C1932 1.490 . S
C1928 H1918 0.930 . S
C1928 C1927 1.400 . S
C1928 C1931 1.386 . S
H1929 C1945 0.930 . S
H1930 C1946 0.931 . S
C1931 H1919 0.929 . S
C1931 C1925 1.390 . S
C1931 C1928 1.386 . S
C1932 C1927 1.490 . S
C1932 C1934 1.395 . S
C1932 C1935 1.403 . S
H1933 C1939 0.930 . S
C1934 H1920 0.930 . S
C1934 C1932 1.395 . S
C1934 C1937 1.403 . S
C1935 C1932 1.403 . S
C1935 C1936 1.523 . S
C1935 C1939 1.400 . S
C1936 H1921 0.960 . S
C1936 H1922 0.965 1_554 S
C1936 H1923 0.955 . S
C1936 C1935 1.523 . S
C1937 C1934 1.403 . S
C1937 C1938 1.392 . S
C1937 C1941 1.495 . S
C1938 C1937 1.392 . S
C1938 C1939 1.385 . S
C1938 C1940 1.478 . S
C1939 H1933 0.930 . S
C1939 C1935 1.400 . S
C1939 C1938 1.385 . S
C1940 C1938 1.478 . S
C1940 C1942 1.381 1_554 S
C1940 C1946 1.383 . S
C1941 C1937 1.495 . S
C1941 H1947 0.959 . S
C1941 H1948 0.961 . S
C1941 H1949 0.960 1_554 S
C1942 C1940 1.381 1_556 S
C1942 C1943 1.394 . S
C1942 H1950 0.930 . S
C1943 C1942 1.394 . S
C1943 C1944 1.383 1_556 S
C1943 H1951 0.929 . S
C1944 C1943 1.383 1_554 S
C1944 C1945 1.377 . S
C1945 H1929 0.930 . S
C1945 C1944 1.377 . S
C1945 C1946 1.379 . S
C1946 H1930 0.931 . S
C1946 C1940 1.383 . S
C1946 C1945 1.379 . S
H1947 C1941 0.959 . S
H1948 C1941 0.961 . S
H1949 C1941 0.960 1_556 S
H1950 C1942 0.930 . S
H1951 C1943 0.929 . S
H1952 C1960 0.929 . S
H1953 C1962 0.930 . S
H1954 C1964 0.930 . S
H1955 C1967 0.929 . S
H1956 C1970 0.930 . S
H1957 C1972 0.960 . S
H1958 C1972 0.960 . S
H1959 C1972 0.960 . S
C1960 H1952 0.929 . S
C1960 C1961 1.377 . S
C1960 C1962 1.384 . S
C1961 C1960 1.377 . S
C1961 C1967 1.390 . S
C1962 H1953 0.930 . S
C1962 C1960 1.384 . S
C1962 C1963 1.372 . S
C1963 C1962 1.372 . S
C1963 C1964 1.400 . S
C1963 C1968 1.490 . S
C1964 H1954 0.930 . S
C1964 C1963 1.400 . S
C1964 C1967 1.386 . S
H1965 C1981 0.930 . S
H1966 C1982 0.931 . S
C1967 H1955 0.929 . S
C1967 C1961 1.390 . S
C1967 C1964 1.386 . S
C1968 C1963 1.490 . S
C1968 C1970 1.395 1_455 S
C1968 C1971 1.403 . S
H1969 C1975 0.930 . S
C1970 H1956 0.930 . S
C1970 C1968 1.395 1_655 S
C1970 C1973 1.403 . S
C1971 C1968 1.403 . S
C1971 C1972 1.524 . S
C1971 C1975 1.400 . S
C1972 H1957 0.960 . S
C1972 H1958 0.960 . S
C1972 H1959 0.960 . S
C1972 C1971 1.524 . S
C1973 C1970 1.403 . S
C1973 C1974 1.392 . S
C1973 C1977 1.495 . S
C1974 C1973 1.392 . S
C1974 C1975 1.385 1_655 S
C1974 C1976 1.478 . S
C1975 H1969 0.930 . S
C1975 C1971 1.400 . S
C1975 C1974 1.385 1_455 S
C1976 C1974 1.478 . S
C1976 C1978 1.381 . S
C1976 C1982 1.383 . S
C1977 C1973 1.495 . S
C1977 H1983 0.959 . S
C1977 H1984 0.961 . S
C1977 H1985 0.960 . S
C1978 C1976 1.381 . S
C1978 C1979 1.394 . S
C1978 H1986 0.930 . S
C1979 C1978 1.394 . S
C1979 C1980 1.383 . S
C1979 H1987 0.929 . S
C1980 C1979 1.383 . S
C1980 C1981 1.377 . S
C1981 H1965 0.930 . S
C1981 C1980 1.377 . S
C1981 C1982 1.379 . S
C1982 H1966 0.931 . S
C1982 C1976 1.383 . S
C1982 C1981 1.379 . S
H1983 C1977 0.959 . S
H1984 C1977 0.961 . S
H1985 C1977 0.960 . S
H1986 C1978 0.930 . S
H1987 C1979 0.929 . S
H1988 C1996 0.929 . S
H1989 C1998 0.930 . S
H1990 C2000 0.930 . S
H1991 C2003 0.929 . S
H1992 C2006 0.930 . S
H1993 C2008 0.960 1_455 S
H1994 C2008 0.960 . S
H1995 C2008 0.960 . S
C1996 H1988 0.929 . S
C1996 C1997 1.377 . S
C1996 C1998 1.384 . S
C1997 C1996 1.377 . S
C1997 C2003 1.390 . S
C1998 H1989 0.930 . S
C1998 C1996 1.384 . S
C1998 C1999 1.372 . S
C1999 C1998 1.372 . S
C1999 C2000 1.400 . S
C1999 C2004 1.490 . S
C2000 H1990 0.930 . S
C2000 C1999 1.400 . S
C2000 C2003 1.386 . S
H2001 C2017 0.930 . S
H2002 C2018 0.931 . S
C2003 H1991 0.929 . S
C2003 C1997 1.390 . S
C2003 C2000 1.386 . S
C2004 C1999 1.490 . S
C2004 C2006 1.395 . S
C2004 C2007 1.403 . S
H2005 C2011 0.930 . S
C2006 H1992 0.930 . S
C2006 C2004 1.395 . S
C2006 C2009 1.403 1_655 S
C2007 C2004 1.403 . S
C2007 C2008 1.524 . S
C2007 C2011 1.400 1_655 S
C2008 H1993 0.960 1_655 S
C2008 H1994 0.960 . S
C2008 H1995 0.960 . S
C2008 C2007 1.524 . S
C2009 C2006 1.403 1_455 S
C2009 C2010 1.392 . S
C2009 C2013 1.495 . S
C2010 C2009 1.392 . S
C2010 C2011 1.385 . S
C2010 C2012 1.478 . S
C2011 H2005 0.930 . S
C2011 C2007 1.400 1_455 S
C2011 C2010 1.385 . S
C2012 C2010 1.478 . S
C2012 C2014 1.381 . S
C2012 C2018 1.383 . S
C2013 C2009 1.495 . S
C2013 H2019 0.959 1_455 S
C2013 H2020 0.961 . S
C2013 H2021 0.960 . S
C2014 C2012 1.381 . S
C2014 C2015 1.394 . S
C2014 H2022 0.930 . S
C2015 C2014 1.394 . S
C2015 C2016 1.383 . S
C2015 H2023 0.929 . S
C2016 C2015 1.383 . S
C2016 C2017 1.377 . S
C2017 H2001 0.930 . S
C2017 C2016 1.377 . S
C2017 C2018 1.379 . S
C2018 H2002 0.931 . S
C2018 C2012 1.383 . S
C2018 C2017 1.379 . S
H2019 C2013 0.959 1_655 S
H2020 C2013 0.961 . S
H2021 C2013 0.960 . S
H2022 C2014 0.930 . S
H2023 C2015 0.929 . S
H2024 C2032 0.929 . S
H2025 C2034 0.930 . S
H2026 C2036 0.930 . S
H2027 C2039 0.929 . S
H2028 C2042 0.930 . S
H2029 C2044 0.960 . S
H2030 C2044 0.960 . S
H2031 C2044 0.960 . S
C2032 H2024 0.929 . S
C2032 C2033 1.377 . S
C2032 C2034 1.384 . S
C2033 C2032 1.377 . S
C2033 C2039 1.390 . S
C2034 H2025 0.930 . S
C2034 C2032 1.384 . S
C2034 C2035 1.372 . S
C2035 C2034 1.372 . S
C2035 C2036 1.400 . S
C2035 C2040 1.490 . S
C2036 H2026 0.930 . S
C2036 C2035 1.400 . S
C2036 C2039 1.386 . S
H2037 C2053 0.930 . S
H2038 C2054 0.931 . S
C2039 H2027 0.929 . S
C2039 C2033 1.390 . S
C2039 C2036 1.386 . S
C2040 C2035 1.490 . S
C2040 C2042 1.395 . S
C2040 C2043 1.403 . S
H2041 C2047 0.930 . S
C2042 H2028 0.930 . S
C2042 C2040 1.395 . S
C2042 C2045 1.403 . S
C2043 C2040 1.403 . S
C2043 C2044 1.524 . S
C2043 C2047 1.400 . S
C2044 H2029 0.960 . S
C2044 H2030 0.960 . S
C2044 H2031 0.960 . S
C2044 C2043 1.524 . S
C2045 C2042 1.403 . S
C2045 C2046 1.392 . S
C2045 C2049 1.495 . S
C2046 C2045 1.392 . S
C2046 C2047 1.385 . S
C2046 C2048 1.478 . S
C2047 H2041 0.930 . S
C2047 C2043 1.400 . S
C2047 C2046 1.385 . S
C2048 C2046 1.478 . S
C2048 C2050 1.381 . S
C2048 C2054 1.383 . S
C2049 C2045 1.495 . S
C2049 H2055 0.959 . S
C2049 H2056 0.961 . S
C2049 H2057 0.960 . S
C2050 C2048 1.381 . S
C2050 C2051 1.394 . S
C2050 H2058 0.930 . S
C2051 C2050 1.394 . S
C2051 C2052 1.383 . S
C2051 H2059 0.929 . S
C2052 C2051 1.383 . S
C2052 C2053 1.377 . S
C2053 H2037 0.930 . S
C2053 C2052 1.377 . S
C2053 C2054 1.379 . S
C2054 H2038 0.931 . S
C2054 C2048 1.383 . S
C2054 C2053 1.379 . S
H2055 C2049 0.959 . S
H2056 C2049 0.961 . S
H2057 C2049 0.960 . S
H2058 C2050 0.930 . S
H2059 C2051 0.929 . S
H2060 C2068 0.929 . S
H2061 C2070 0.930 . S
H2062 C2072 0.930 . S
H2063 C2075 0.929 . S
H2064 C2078 0.939 . S
H2065 C2080 0.960 . S
H2066 C2080 0.960 . S
H2067 C2080 0.960 . S
C2068 H2060 0.929 . S
C2068 C2069 1.377 . S
C2068 C2070 1.384 . S
C2069 C2068 1.377 . S
C2069 C2075 1.390 1_556 S
C2070 H2061 0.930 . S
C2070 C2068 1.384 . S
C2070 C2071 1.372 . S
C2071 C2070 1.372 . S
C2071 C2072 1.400 1_556 S
C2071 C2076 1.490 . S
C2072 H2062 0.930 . S
C2072 C2071 1.400 1_554 S
C2072 C2075 1.386 . S
H2073 C2089 0.930 . S
H2074 C2090 0.931 . S
C2075 H2063 0.929 . S
C2075 C2069 1.390 1_554 S
C2075 C2072 1.386 . S
C2076 C2071 1.490 . S
C2076 C2078 1.386 1_556 S
C2076 C2079 1.403 . S
H2077 C2083 0.930 . S
C2078 H2064 0.939 . S
C2078 C2076 1.386 1_554 S
C2078 C2081 1.406 . S
C2079 C2076 1.403 . S
C2079 C2080 1.524 . S
C2079 C2083 1.400 . S
C2080 H2065 0.960 . S
C2080 H2066 0.960 . S
C2080 H2067 0.960 . S
C2080 C2079 1.524 . S
C2081 C2078 1.406 . S
C2081 C2082 1.392 1_554 S
C2081 C2085 1.495 . S
C2082 C2081 1.392 1_556 S
C2082 C2083 1.385 . S
C2082 C2084 1.478 . S
C2083 H2077 0.930 . S
C2083 C2079 1.400 . S
C2083 C2082 1.385 . S
C2084 C2082 1.478 . S
C2084 C2086 1.381 . S
C2084 C2090 1.383 1_556 S
C2085 C2081 1.495 . S
C2085 H2091 0.959 . S
C2085 H2092 0.961 . S
C2085 H2093 0.960 1_554 S
C2086 C2084 1.381 . S
C2086 C2087 1.394 . S
C2086 H2094 0.930 . S
C2087 C2086 1.394 . S
C2087 C2088 1.383 . S
C2087 H2095 0.929 . S
C2088 C2087 1.383 . S
C2088 C2089 1.377 1_556 S
C2089 H2073 0.930 . S
C2089 C2088 1.377 1_554 S
C2089 C2090 1.379 . S
C2090 H2074 0.931 . S
C2090 C2084 1.383 1_554 S
C2090 C2089 1.379 . S
H2091 C2085 0.959 . S
H2092 C2085 0.961 . S
H2093 C2085 0.960 1_556 S
H2094 C2086 0.930 . S
H2095 C2087 0.929 . S
C377 C17 1.362 . S
C396 C156 1.397 . S
C413 C363 1.385 . S
C432 C40 1.338 . S
C449 C63 1.350 . S
C468 C110 1.364 . S
C485 C317 1.339 . S
C504 C86 1.340 . S
C521 C64 1.393 . S
C540 C109 1.350 . S
C557 C271 1.375 . S
C576 C132 1.355 . S
C593 C155 1.336 . S
C612 C18 1.402 . S
C629 C178 1.314 . S
C648 C225 1.317 . S
C665 C201 1.336 . S
C684 C340 1.395 . S
C701 C224 1.300 1_545 S
C720 C179 1.323 . S
C737 C294 1.402 . S
C756 C247 1.345 . S
C773 C133 1.380 . S
C792 C270 1.370 1_565 S
C809 C248 1.380 . S
C828 C293 1.344 . S
C845 C316 1.318 1_565 S
C864 C87 1.311 . S
C881 C202 1.393 . S
C900 C339 1.387 . S
C917 C41 1.382 . S
C936 C362 1.303 1_545 S
C953 C21 0.085 . S
C972 C297 0.043 . S
C989 C44 0.107 . S
C1008 C136 0.180 . S
C1025 C67 0.105 . S
C1044 C343 0.125 . S
C1061 C182 0.062 . S
C1080 C90 0.126 . S
C1097 C113 0.070 . S
C1116 C205 0.109 . S
C1133 C251 0.105 . S
C1152 C159 0.128 . S
C1169 C228 0.045 . S
C1188 C320 0.062 . S
C1205 C366 0.094 . S
C1224 C274 0.060 . S
C1241 C19 1.497 . S
C1260 C43 1.441 . S
C1277 C66 1.521 . S
C1296 C42 1.540 . S
C1313 C65 1.739 . S
C1332 C89 1.736 . S
C1349 C88 1.286 . S
C1368 C20 1.239 . S
C1385 C135 1.472 . S
C1404 C111 1.483 . S
C1421 C158 1.519 . S
C1440 C134 1.548 . S
C1457 C181 1.714 . S
C1476 C157 1.734 . S
C1493 C112 1.259 . S
C1512 C180 1.284 . S
C1529 C203 1.739 . S
C1548 C227 1.735 . S
C1565 C226 1.285 . S
C1584 C250 1.223 . S
C1601 C273 1.463 . S
C1620 C249 1.491 . S
C1637 C272 1.547 . S
C1656 C204 1.492 . S
C1673 C319 1.715 . S
C1692 C295 1.733 . S
C1709 C318 1.282 . S
C1728 C342 1.274 . S
C1745 C341 1.497 . S
C1764 C365 1.441 . S
C1781 C296 1.520 . S
C1800 C364 1.544 . S
C1817 C16 1.428 . S
C1836 C246 1.413 . S
C1853 C39 1.416 . S
C1872 C269 1.397 . S
C1889 C62 1.436 . S
C1908 C200 1.451 . S
C1925 C223 1.396 . S
C1944 C85 1.374 . S
C1961 C338 1.422 . S
C1980 C108 1.411 . S
C1997 C131 1.420 . S
C2016 C361 1.406 . S
C2033 C154 1.440 . S
C2052 C292 1.444 . S
C2069 C315 1.397 . S
C2088 C177 1.376 . S
