# Generated by pormake.
# Topology yfx, (5)-cn, num edge types: 1
# Building blocks:
#     Node 0, Type 0, BuildingBlock: XOMCOT_clean_sbu_1, # of connection points: 5
#     Node 1, Type 0, BuildingBlock: XOMCOT_clean_sbu_1, # of connection points: 5
#     Node 2, Type 0, BuildingBlock: XOMCOT_clean_sbu_1, # of connection points: 5
#     Node 3, Type 0, BuildingBlock: XOMCOT_clean_sbu_1, # of connection points: 5
#     Node 4, Type 0, BuildingBlock: XOMCOT_clean_sbu_1, # of connection points: 5
#     Node 5, Type 0, BuildingBlock: XOMCOT_clean_sbu_1, # of connection points: 5
#     Node 6, Type 0, BuildingBlock: XOMCOT_clean_sbu_1, # of connection points: 5
#     Node 7, Type 0, BuildingBlock: XOMCOT_clean_sbu_1, # of connection points: 5
#     Edge 8, Type (0, 0), BuildingBlock: MIFKUJ_clean_linker_0, # of connection points: 2
#     Edge 9, Type (0, 0), BuildingBlock: MIFKUJ_clean_linker_0, # of connection points: 2
#     Edge 10, Type (0, 0), BuildingBlock: MIFKUJ_clean_linker_0, # of connection points: 2
#     Edge 11, Type (0, 0), BuildingBlock: MIFKUJ_clean_linker_0, # of connection points: 2
#     Edge 12, Type (0, 0), BuildingBlock: MIFKUJ_clean_linker_0, # of connection points: 2
#     Edge 13, Type (0, 0), BuildingBlock: MIFKUJ_clean_linker_0, # of connection points: 2
#     Edge 14, Type (0, 0), BuildingBlock: MIFKUJ_clean_linker_0, # of connection points: 2
#     Edge 15, Type (0, 0), BuildingBlock: MIFKUJ_clean_linker_0, # of connection points: 2
#     Edge 16, Type (0, 0), BuildingBlock: MIFKUJ_clean_linker_0, # of connection points: 2
#     Edge 17, Type (0, 0), BuildingBlock: MIFKUJ_clean_linker_0, # of connection points: 2
#     Edge 18, Type (0, 0), BuildingBlock: MIFKUJ_clean_linker_0, # of connection points: 2
#     Edge 19, Type (0, 0), BuildingBlock: MIFKUJ_clean_linker_0, # of connection points: 2
#     Edge 20, Type (0, 0), BuildingBlock: MIFKUJ_clean_linker_0, # of connection points: 2
#     Edge 21, Type (0, 0), BuildingBlock: MIFKUJ_clean_linker_0, # of connection points: 2
#     Edge 22, Type (0, 0), BuildingBlock: MIFKUJ_clean_linker_0, # of connection points: 2
#     Edge 23, Type (0, 0), BuildingBlock: MIFKUJ_clean_linker_0, # of connection points: 2
#     Edge 24, Type (0, 0), BuildingBlock: MIFKUJ_clean_linker_0, # of connection points: 2
#     Edge 25, Type (0, 0), BuildingBlock: MIFKUJ_clean_linker_0, # of connection points: 2
#     Edge 26, Type (0, 0), BuildingBlock: MIFKUJ_clean_linker_0, # of connection points: 2
#     Edge 27, Type (0, 0), BuildingBlock: MIFKUJ_clean_linker_0, # of connection points: 2
# Relax obj value: 0.122
# Max RMSD: 0.118
# Mean RMSD: 0.118
data_MOF--net-yfx--node1-XOMCOT_clean_sbu_1--edge1-MIFKUJ_clean_linker_0
_symmetry_space_group_name_H-M    P1
_symmetry_Int_Tables_number       1
_symmetry_cell_setting            triclinic
loop_
_symmetry_equiv_pos_as_xyz
'x, y, z'
_cell_length_a     45.420011
_cell_length_b     45.43484
_cell_length_c     36.094341
_cell_angle_alpha  90.060964
_cell_angle_beta   90.303753
_cell_angle_gamma 90.006987
loop_
_atom_site_label
_atom_site_type_symbol
_atom_site_fract_x
_atom_site_fract_y
_atom_site_fract_z
_atom_type_partial_charge
C0 C 0.26992 0.39694 0.97021 0.0
C1 C 0.29926 0.38986 0.97295 0.0
N2 N 0.30231 0.36739 0.99711 0.0
N3 N 0.25436 0.37924 0.99267 0.0
C4 C 0.27465 0.36148 1.0087 0.0
H5 H 0.26047 0.41385 0.95278 0.0
Co6 Co 0.21362 0.3808 0.99754 0.0
C7 C 0.20334 0.334 0.05627 0.0
O8 O 0.18198 0.32097 0.03794 0.0
N9 N 0.17142 0.38314 1.00193 0.0
C10 C 0.12333 0.37425 0.99435 0.0
C11 C 0.15127 0.36297 0.99083 0.0
C12 C 0.15464 0.40653 0.01227 0.0
N13 N 0.12541 0.40185 1.00758 0.0
O14 O 0.21873 0.41482 0.0282 0.0
H15 H 0.1563 0.34159 0.97936 0.0
H16 H 0.16342 0.42699 0.02259 0.0
O17 O 0.21631 0.35627 0.04222 0.0
C18 C 0.21791 0.43915 0.01068 0.0
O19 O 0.20952 0.43923 0.9758 0.0
N20 N 0.21074 0.34918 0.96389 0.0
C21 C 0.2188 0.3142 0.90083 0.0
C22 C 0.22596 0.30342 0.93625 0.0
C23 C 0.22219 0.3215 0.96754 0.0
C24 C 0.20249 0.35937 0.92988 0.0
C25 C 0.2062 0.34227 0.89811 0.0
H26 H 0.23043 0.31397 0.99397 0.0
H27 H 0.1946 0.38173 0.92717 0.0
H28 H 0.26914 0.34404 0.02778 0.0
H29 H 0.3169 0.40065 0.95822 0.0
H30 H 0.10316 0.3634 0.98595 0.0
H31 H 0.23626 0.28207 0.93945 0.0
H32 H 0.20037 0.35145 0.87137 0.0
C33 C 0.62761 0.26589 0.96581 0.0
C34 C 0.63539 0.2951 0.96665 0.0
N35 N 0.64791 0.30088 0.99978 0.0
N36 N 0.63536 0.25317 0.99813 0.0
C37 C 0.64739 0.27517 0.01853 0.0
H38 H 0.61815 0.25425 0.94246 0.0
Co39 Co 0.63267 0.21269 1.00608 0.0
C40 C 0.67958 0.20626 0.06573 0.0
O41 O 0.69544 0.18796 0.04603 0.0
N42 N 0.62907 0.17091 0.01345 0.0
C43 C 0.63779 0.12249 0.01341 0.0
C44 C 0.65002 0.14999 1.00938 0.0
C45 C 0.60417 0.15508 0.01978 0.0
N46 N 0.60881 0.12562 0.0198 0.0
O47 O 0.59729 0.21947 0.03332 0.0
H48 H 0.67258 0.15403 1.00168 0.0
H49 H 0.58273 0.16473 0.02371 0.0
O50 O 0.65558 0.21664 0.05241 0.0
C51 C 0.57555 0.2207 0.01089 0.0
O52 O 0.58019 0.21436 0.97585 0.0
N53 N 0.66578 0.20776 0.97519 0.0
C54 C 0.70183 0.21432 0.91301 0.0
C55 C 0.71001 0.2266 0.94728 0.0
C56 C 0.6914 0.22347 0.97798 0.0
C57 C 0.65833 0.19454 0.94252 0.0
C58 C 0.6761 0.19732 0.91128 0.0
H59 H 0.69636 0.23583 1.00282 0.0
H60 H 0.63726 0.18361 0.93985 0.0
H61 H 0.65729 0.27212 0.04559 0.0
H62 H 0.63295 0.3107 0.94419 0.0
H63 H 0.64918 0.10176 0.00991 0.0
H64 H 0.72937 0.24041 0.94961 0.0
H65 H 0.66893 0.18749 0.88541 0.0
C66 C 0.74228 0.62497 0.96216 0.0
C67 C 0.71269 0.63058 0.96608 0.0
N68 N 0.70839 0.64286 0.99963 0.0
N69 N 0.75661 0.63362 0.99308 0.0
C70 C 0.73533 0.64424 0.01553 0.0
H71 H 0.75285 0.61598 0.93788 0.0
Co72 Co 0.79736 0.63163 0.99977 0.0
C73 C 0.80061 0.68097 0.05743 0.0
O74 O 0.81412 0.69963 0.03562 0.0
N75 N 0.83903 0.62858 1.00644 0.0
C76 C 0.8869 0.63855 0.01232 0.0
C77 C 0.85911 0.65037 0.00953 0.0
C78 C 0.85556 0.60365 1.00698 0.0
N79 N 0.88479 0.609 0.01064 0.0
O80 O 0.79162 0.59646 0.02823 0.0
H81 H 0.85433 0.67354 1.00816 0.0
H82 H 0.84648 0.58189 1.00358 0.0
O83 O 0.79409 0.65516 0.04571 0.0
C84 C 0.78906 0.57447 1.00649 0.0
O85 O 0.79338 0.57871 0.9709 0.0
N86 N 0.80155 0.66459 0.96777 0.0
C87 C 0.79629 0.70078 0.90498 0.0
C88 C 0.78069 0.70713 0.93754 0.0
C89 C 0.78332 0.68858 0.96842 0.0
C90 C 0.81775 0.65885 0.93685 0.0
C91 C 0.81573 0.67678 0.90546 0.0
H92 H 0.76899 0.69232 0.99174 0.0
H93 H 0.83079 0.63897 0.93538 0.0
H94 H 0.73945 0.6534 0.04273 0.0
H95 H 0.69586 0.62718 0.94517 0.0
H96 H 0.90707 0.65103 0.01502 0.0
H97 H 0.76492 0.72499 0.9383 0.0
H98 H 0.8283 0.67098 0.8811 0.0
C99 C 0.39053 0.74203 0.97533 0.0
C100 C 0.38453 0.71248 0.97921 0.0
N101 N 0.36868 0.70883 0.01029 0.0
N102 N 0.37861 0.75689 1.0039 0.0
C103 C 0.36565 0.73599 0.0249 0.0
H104 H 0.40202 0.75218 0.95251 0.0
Co105 Co 0.37957 0.79774 1.00919 0.0
C106 C 0.33236 0.80369 0.06824 0.0
O107 O 0.31495 0.81951 0.04708 0.0
N108 N 0.38163 0.83985 0.01422 0.0
C109 C 0.37094 0.88784 0.01372 0.0
C110 C 0.35969 0.8598 0.01102 0.0
C111 C 0.4061 0.8568 0.01868 0.0
N112 N 0.40032 0.88606 0.01838 0.0
O113 O 0.41531 0.79318 0.03707 0.0
H114 H 0.33696 0.85471 1.0051 0.0
H115 H 0.42807 0.84805 0.02078 0.0
O116 O 0.35715 0.79478 0.05582 0.0
C117 C 0.43771 0.79222 0.01599 0.0
O118 O 0.43418 0.79821 0.98062 0.0
N119 N 0.34576 0.80022 0.97805 0.0
C120 C 0.30761 0.79119 0.91778 0.0
C121 C 0.30248 0.77742 0.95189 0.0
C122 C 0.32171 0.78232 0.98175 0.0
C123 C 0.35058 0.81434 0.94524 0.0
C124 C 0.33144 0.81064 0.91505 0.0
H125 H 0.31837 0.76993 1.00686 0.0
H126 H 0.37048 0.82706 0.94161 0.0
H127 H 0.35337 0.74054 0.04984 0.0
H128 H 0.39007 0.69525 0.95972 0.0
H129 H 0.35828 0.90794 0.01171 0.0
H130 H 0.28446 0.76201 0.95496 0.0
H131 H 0.33646 0.82124 0.88897 0.0
C132 C 0.76837 0.88419 0.46469 0.0
C133 C 0.79781 0.87815 0.46919 0.0
N134 N 0.80166 0.86484 0.5022 0.0
N135 N 0.75361 0.87492 0.49476 0.0
C136 C 0.7745 0.86313 0.51719 0.0
H137 H 0.75822 0.89413 0.4406 0.0
Co138 Co 0.71281 0.87809 0.49955 0.0
C139 C 0.70283 0.83295 0.55962 0.0
O140 O 0.68427 0.8176 0.53942 0.0
N141 N 0.67074 0.88214 0.50396 0.0
C142 C 0.62231 0.87429 0.49969 0.0
C143 C 0.64975 0.8618 0.49671 0.0
C144 C 0.65498 0.90689 0.51156 0.0
N145 N 0.62544 0.90286 0.50895 0.0
O146 O 0.71875 0.91418 0.52607 0.0
H147 H 0.6538 0.83941 0.48811 0.0
H148 H 0.66491 0.92774 0.51841 0.0
O149 O 0.71461 0.85623 0.54648 0.0
C150 C 0.72095 0.93492 0.50247 0.0
O151 O 0.71552 0.92875 0.46749 0.0
N152 N 0.70896 0.84434 0.46932 0.0
C153 C 0.71545 0.80495 0.40986 0.0
C154 C 0.7265 0.79811 0.44535 0.0
C155 C 0.72347 0.8183 0.47455 0.0
C156 C 0.69755 0.85103 0.43535 0.0
C157 C 0.70024 0.83165 0.4055 0.0
H158 H 0.73458 0.81382 0.50046 0.0
H159 H 0.68786 0.87248 0.43076 0.0
H160 H 0.76997 0.85322 0.54379 0.0
H161 H 0.81491 0.88224 0.44906 0.0
H162 H 0.60175 0.86318 0.49388 0.0
H163 H 0.7385 0.77789 0.45026 0.0
H164 H 0.69211 0.83859 0.37866 0.0
C165 C 0.1132 0.76996 0.48236 0.0
C166 C 0.12103 0.79916 0.48524 0.0
N167 N 0.1447 0.8011 0.50773 0.0
N168 N 0.13168 0.7536 0.50323 0.0
C169 C 0.15067 0.77324 0.51825 0.0
H170 H 0.09544 0.7612 0.46564 0.0
Co171 Co 0.13058 0.71275 0.50798 0.0
C172 C 0.1743 0.70165 0.57059 0.0
O173 O 0.18507 0.67766 0.55564 0.0
N174 N 0.12879 0.67045 0.5121 0.0
C175 C 0.13831 0.62268 0.50379 0.0
C176 C 0.14915 0.65077 0.50067 0.0
C177 C 0.1057 0.65318 0.52222 0.0
N178 N 0.11066 0.624 0.51703 0.0
O179 O 0.09544 0.71704 0.53669 0.0
H180 H 0.17057 0.65621 0.48976 0.0
H181 H 0.08516 0.66179 0.53222 0.0
O182 O 0.15404 0.71598 0.5538 0.0
C183 C 0.07221 0.71568 0.51678 0.0
O184 O 0.07468 0.70758 0.48195 0.0
N185 N 0.16319 0.71052 0.47615 0.0
C186 C 0.20009 0.71942 0.41523 0.0
C187 C 0.20998 0.72554 0.45147 0.0
C188 C 0.19105 0.7211 0.48171 0.0
C189 C 0.15389 0.70311 0.44145 0.0
C190 C 0.172 0.70702 0.41079 0.0
H191 H 0.19814 0.72808 0.50891 0.0
H192 H 0.13153 0.69552 0.43735 0.0
H193 H 0.16871 0.76734 0.53643 0.0
H194 H 0.11068 0.81741 0.471 0.0
H195 H 0.15 0.60299 0.49579 0.0
H196 H 0.23137 0.73541 0.45621 0.0
H197 H 0.16353 0.70146 0.38357 0.0
C198 C 0.23863 0.11177 0.47765 0.0
C199 C 0.20936 0.11805 0.48351 0.0
N200 N 0.20776 0.14177 0.5058 0.0
N201 N 0.2554 0.13122 0.49651 0.0
C202 C 0.23591 0.14938 0.51318 0.0
H203 H 0.24714 0.09398 0.46094 0.0
Co204 Co 0.29643 0.13031 0.4992 0.0
C205 C 0.30814 0.17769 0.55708 0.0
O206 O 0.32932 0.19052 0.53851 0.0
N207 N 0.33888 0.12866 0.50161 0.0
C208 C 0.38653 0.1381 0.49169 0.0
C209 C 0.35828 0.14884 0.48891 0.0
C210 C 0.35644 0.10588 0.51229 0.0
N211 N 0.38542 0.11086 0.50615 0.0
O212 O 0.2931 0.09654 0.53054 0.0
H213 H 0.3525 0.1699 0.47706 0.0
H214 H 0.34841 0.08568 0.5241 0.0
O215 O 0.29501 0.15528 0.54341 0.0
C216 C 0.29415 0.07217 0.5131 0.0
O217 O 0.30144 0.0722 0.47793 0.0
N218 N 0.29753 0.16163 0.46504 0.0
C219 C 0.28827 0.1967 0.40223 0.0
C220 C 0.28209 0.20754 0.43787 0.0
C221 C 0.28647 0.18944 0.46902 0.0
C222 C 0.3046 0.15127 0.43078 0.0
C223 C 0.30036 0.16842 0.39916 0.0
H224 H 0.27923 0.19718 0.49573 0.0
H225 H 0.31229 0.12885 0.42786 0.0
H226 H 0.24206 0.16759 0.53094 0.0
H227 H 0.1907 0.10634 0.47193 0.0
H228 H 0.4062 0.14911 0.48215 0.0
H229 H 0.27227 0.22907 0.44143 0.0
H230 H 0.3056 0.15918 0.37231 0.0
C231 C 0.8902 0.24286 0.47099 0.0
C232 C 0.8818 0.21377 0.47085 0.0
N233 N 0.86491 0.20893 0.5008 0.0
N234 N 0.87855 0.25634 0.50077 0.0
C235 C 0.86354 0.23499 0.5187 0.0
H236 H 0.90292 0.25385 0.44988 0.0
Co237 Co 0.88066 0.29677 0.50869 0.0
C238 C 0.83271 0.30309 0.56691 0.0
O239 O 0.81704 0.32194 0.54762 0.0
N240 N 0.88364 0.33851 0.51602 0.0
C241 C 0.87435 0.38682 0.5152 0.0
C242 C 0.86252 0.35914 0.51092 0.0
C243 C 0.90823 0.35466 0.52314 0.0
N244 N 0.90325 0.38403 0.52269 0.0
O245 O 0.915 0.29018 0.53855 0.0
H246 H 0.84016 0.35476 0.50232 0.0
H247 H 0.92972 0.34534 0.52792 0.0
O248 O 0.85664 0.29278 0.55365 0.0
C249 C 0.93883 0.28946 0.52011 0.0
O250 O 0.93811 0.29666 0.48486 0.0
N251 N 0.84837 0.30135 0.47594 0.0
C252 C 0.81247 0.29503 0.413 0.0
C253 C 0.8038 0.28343 0.44732 0.0
C254 C 0.82228 0.28645 0.47839 0.0
C255 C 0.85642 0.31388 0.44322 0.0
C256 C 0.83875 0.31121 0.41158 0.0
H257 H 0.81664 0.27476 0.50337 0.0
H258 H 0.87774 0.32434 0.44099 0.0
H259 H 0.85026 0.23876 0.54304 0.0
H260 H 0.887 0.19765 0.44977 0.0
H261 H 0.86284 0.40742 0.51104 0.0
H262 H 0.78403 0.27024 0.44955 0.0
H263 H 0.84632 0.3206 0.38576 0.0
H264 H 0.5244 0.21176 0.97386 0.0
H265 H 0.47688 0.23436 0.9856 0.0
H266 H 0.51138 0.27425 0.08533 0.0
H267 H 0.55968 0.25182 0.07322 0.0
H268 H 0.436 0.23436 0.03703 0.0
H269 H 0.48135 0.34442 0.08978 0.0
H270 H 0.52772 0.37281 0.0895 0.0
H271 H 0.55211 0.33246 0.98649 0.0
H272 H 0.5057 0.30422 0.98591 0.0
H273 H 0.31208 0.33161 0.05683 0.0
H274 H 0.35729 0.30491 0.07183 0.0
H275 H 0.39928 0.34212 0.97582 0.0
H276 H 0.35433 0.36821 0.96005 0.0
H277 H 0.43578 0.34351 0.03496 0.0
H278 H 0.3713 0.2747 0.97414 0.0
H279 H 0.32698 0.24433 0.96435 0.0
H280 H 0.34262 0.20034 0.06783 0.0
H281 H 0.38652 0.23115 0.07883 0.0
C282 C 0.52185 0.22498 0.99864 0.0
C283 C 0.54588 0.23034 0.02238 0.0
C284 C 0.49454 0.23775 1.00545 0.0
C285 C 0.49059 0.25631 0.03608 0.0
C286 C 0.51403 0.26024 0.06128 0.0
C287 C 0.54154 0.24732 0.05446 0.0
C288 C 0.4628 0.27342 0.03891 0.0
C289 C 0.43589 0.25824 0.03733 0.0
C290 C 0.46267 0.30457 0.03854 0.0
C291 C 0.49028 0.32196 0.0381 0.0
C292 C 0.49658 0.34171 0.06704 0.0
C293 C 0.52286 0.35777 0.06702 0.0
C294 C 0.5429 0.35435 0.03808 0.0
C295 C 0.53662 0.33502 1.00895 0.0
C296 C 0.51034 0.31899 1.00878 0.0
C297 C 0.3308 0.33407 0.03871 0.0
C298 C 0.32925 0.35221 1.00706 0.0
C299 C 0.35674 0.31887 0.04752 0.0
C300 C 0.3817 0.32154 0.02497 0.0
C301 C 0.3804 0.33995 0.99386 0.0
C302 C 0.35453 0.35496 0.9849 0.0
C303 C 0.40895 0.30442 0.0325 0.0
C304 C 0.43575 0.31965 0.03598 0.0
C305 C 0.40903 0.27326 0.0335 0.0
C306 C 0.38191 0.25562 0.02763 0.0
C307 C 0.36499 0.25895 0.99515 0.0
C308 C 0.33997 0.2416 0.98933 0.0
C309 C 0.33191 0.22051 0.01551 0.0
C310 C 0.34881 0.21678 0.04764 0.0
C311 C 0.37368 0.23427 0.05376 0.0
H312 H 0.31265 0.20697 0.01081 0.0
H313 H 0.56327 0.36673 0.03817 0.0
H314 H 0.68122 0.33497 0.95581 0.0
H315 H 0.70718 0.38014 0.97298 0.0
H316 H 0.67418 0.37313 0.0843 0.0
H317 H 0.64854 0.32704 0.06738 0.0
H318 H 0.66967 0.43246 0.04686 0.0
H319 H 0.73982 0.35876 0.08107 0.0
H320 H 0.76797 0.31292 0.07197 0.0
H321 H 0.80857 0.34971 0.97531 0.0
H322 H 0.78022 0.39556 0.98351 0.0
H323 H 0.7623 0.55903 0.07215 0.0
H324 H 0.741 0.51074 0.08747 0.0
H325 H 0.77319 0.47576 0.98412 0.0
H326 H 0.79473 0.52315 0.96925 0.0
H327 H 0.77852 0.43566 0.03632 0.0
H328 H 0.70228 0.50377 0.99428 0.0
H329 H 0.67296 0.54932 0.99909 0.0
H330 H 0.64317 0.52326 0.10691 0.0
H331 H 0.6727 0.47774 0.10292 0.0
C332 C 0.67936 0.3431 0.98391 0.0
C333 C 0.6628 0.32762 0.01025 0.0
C334 C 0.69429 0.3688 0.99372 0.0
C335 C 0.69267 0.37982 0.02996 0.0
C336 C 0.67574 0.36479 0.05628 0.0
C337 C 0.66125 0.33857 0.04665 0.0
C338 C 0.70916 0.40694 0.03969 0.0
C339 C 0.69352 0.43314 0.04561 0.0
C340 C 0.74021 0.40778 0.03756 0.0
C341 C 0.75774 0.38049 0.03281 0.0
C342 C 0.75458 0.35696 0.05773 0.0
C343 C 0.7706 0.331 0.05275 0.0
C344 C 0.79002 0.32838 0.02304 0.0
C345 C 0.79351 0.35176 0.99831 0.0
C346 C 0.7775 0.37776 1.00315 0.0
C347 C 0.76532 0.5408 0.05319 0.0
C348 C 0.77992 0.54495 0.01933 0.0
C349 C 0.753 0.5133 0.06183 0.0
C350 C 0.75513 0.48968 0.03669 0.0
C351 C 0.7712 0.49354 1.00399 0.0
C352 C 0.78339 0.52079 0.9954 0.0
C353 C 0.73904 0.46151 0.04221 0.0
C354 C 0.75475 0.43501 0.03891 0.0
C355 C 0.70803 0.46048 0.04638 0.0
C356 C 0.68996 0.48757 0.04851 0.0
C357 C 0.68961 0.50785 0.01909 0.0
C358 C 0.67296 0.53365 0.02166 0.0
C359 C 0.65629 0.53922 0.05334 0.0
C360 C 0.65615 0.51895 0.08244 0.0
C361 C 0.67284 0.49316 0.08004 0.0
H362 H 0.64342 0.55921 0.05529 0.0
H363 H 0.8024 0.30827 0.0192 0.0
H364 H 0.65312 0.6236 0.98571 0.0
H365 H 0.60719 0.64897 1.00079 0.0
H366 H 0.65626 0.71623 0.05854 0.0
H367 H 0.70226 0.69082 0.04381 0.0
H368 H 0.60214 0.7039 0.09285 0.0
H369 H 0.63975 0.72851 0.97287 0.0
H370 H 0.6592 0.71753 0.91089 0.0
H371 H 0.57865 0.67335 0.882 0.0
H372 H 0.55892 0.68366 0.94429 0.0
H373 H 0.49064 0.81168 0.99282 0.0
H374 H 0.53835 0.78824 1.00272 0.0
H375 H 0.49807 0.72518 0.07608 0.0
H376 H 0.45024 0.74946 0.06711 0.0
H377 H 0.54917 0.73602 0.97933 0.0
H378 H 0.55307 0.69253 0.1303 0.0
H379 H 0.5369 0.70748 0.19269 0.0
H380 H 0.53848 0.79824 0.15975 0.0
H381 H 0.55505 0.78389 0.09735 0.0
C382 C 0.65408 0.64357 1.00204 0.0
C383 C 0.68132 0.65542 0.0131 0.0
C384 C 0.62784 0.65795 0.01084 0.0
C385 C 0.62835 0.68464 0.03049 0.0
C386 C 0.65536 0.69558 0.04354 0.0
C387 C 0.68165 0.68106 0.03502 0.0
C388 C 0.60129 0.70283 0.03322 0.0
C389 C 0.59039 0.71089 0.06814 0.0
C390 C 0.58643 0.71251 1.00094 0.0
C391 C 0.598 0.70659 0.96332 0.0
C392 C 0.62627 0.71627 0.95338 0.0
C393 C 0.63734 0.71017 0.91817 0.0
C394 C 0.6202 0.69468 0.89246 0.0
C395 C 0.59192 0.68531 0.90195 0.0
C396 C 0.58078 0.69127 0.93721 0.0
C397 C 0.49216 0.79337 0.01195 0.0
C398 C 0.46684 0.7823 0.02914 0.0
C399 C 0.5194 0.77989 0.01748 0.0
C400 C 0.52185 0.75473 0.03985 0.0
C401 C 0.49687 0.74472 0.05899 0.0
C402 C 0.46955 0.75861 0.05391 0.0
C403 C 0.54956 0.73723 0.03909 0.0
C404 C 0.56063 0.7291 1.00429 0.0
C405 C 0.56476 0.72816 0.07151 0.0
C406 C 0.55498 0.73708 0.10901 0.0
C407 C 0.55004 0.71568 0.1364 0.0
C408 C 0.5408 0.72405 0.17177 0.0
C409 C 0.53655 0.75378 0.18013 0.0
C410 C 0.54164 0.77521 0.15318 0.0
C411 C 0.55091 0.76697 0.11779 0.0
H412 H 0.52939 0.76021 0.20752 0.0
H413 H 0.62878 0.68999 0.86518 0.0
H414 H 0.27195 0.44725 0.04093 0.0
H415 H 0.29613 0.49443 0.05248 0.0
H416 H 0.21461 0.53967 0.0281 0.0
H417 H 0.1913 0.49243 0.0136 0.0
H418 H 0.25242 0.56514 0.99264 0.0
H419 H 0.25146 0.53722 0.11924 0.0
H420 H 0.25852 0.50567 0.17409 0.0
H421 H 0.35163 0.50328 0.15438 0.0
H422 H 0.34511 0.53451 0.09909 0.0
H423 H 0.31454 0.70412 0.04045 0.0
H424 H 0.28773 0.65851 0.05343 0.0
H425 H 0.36302 0.60773 0.01926 0.0
H426 H 0.3899 0.65339 1.00581 0.0
H427 H 0.32637 0.58828 0.09007 0.0
H428 H 0.32076 0.6115 0.95574 0.0
H429 H 0.31121 0.64788 0.90636 0.0
H430 H 0.22504 0.66399 0.9504 0.0
H431 H 0.23413 0.62768 0.99995 0.0
C432 C 0.25907 0.46729 0.03919 0.0
C433 C 0.22978 0.46639 0.02681 0.0
C434 C 0.27286 0.49433 0.04589 0.0
C435 C 0.25726 0.52092 0.04155 0.0
C436 C 0.22731 0.51966 0.03145 0.0
C437 C 0.21386 0.49269 0.02354 0.0
C438 C 0.27283 0.54986 0.04341 0.0
C439 C 0.26808 0.57016 0.01454 0.0
C440 C 0.29367 0.55683 0.07156 0.0
C441 C 0.29775 0.53804 0.10482 0.0
C442 C 0.27342 0.5298 0.12643 0.0
C443 C 0.27733 0.512 0.15764 0.0
C444 C 0.30549 0.50242 0.16767 0.0
C445 C 0.32982 0.5107 0.14656 0.0
C446 C 0.32604 0.52849 0.11531 0.0
C447 C 0.32563 0.68326 0.03656 0.0
C448 C 0.35428 0.68223 0.02204 0.0
C449 C 0.31029 0.65727 0.04395 0.0
C450 C 0.3235 0.62987 0.03743 0.0
C451 C 0.35261 0.62873 0.02473 0.0
C452 C 0.3678 0.65473 0.01677 0.0
C453 C 0.30579 0.60261 0.03948 0.0
C454 C 0.3103 0.58289 0.06878 0.0
C455 C 0.28415 0.5964 0.01243 0.0
C456 C 0.27815 0.61701 0.98153 0.0
C457 C 0.29977 0.62279 0.95479 0.0
C458 C 0.29443 0.64337 0.92676 0.0
C459 C 0.26751 0.65823 0.92517 0.0
C460 C 0.24581 0.65237 0.95149 0.0
C461 C 0.25101 0.63174 0.97948 0.0
H462 H 0.2635 0.6743 0.90361 0.0
H463 H 0.30847 0.48864 0.19184 0.0
H464 H 0.01842 0.69828 0.49265 0.0
H465 H 0.97156 0.72314 0.50308 0.0
H466 H 0.01391 0.78267 0.57976 0.0
H467 H 0.06103 0.75732 0.56992 0.0
H468 H 0.95498 0.77065 0.59906 0.0
H469 H 0.01013 0.80266 0.49361 0.0
H470 H 0.03818 0.79557 0.436 0.0
H471 H 0.96207 0.75745 0.38365 0.0
H472 H 0.93371 0.7638 0.44124 0.0
H473 H 0.85636 0.88625 0.49134 0.0
H474 H 0.9029 0.86242 0.50728 0.0
H475 H 0.85554 0.79202 0.56059 0.0
H476 H 0.80881 0.81598 0.5447 0.0
H477 H 0.91933 0.81233 0.47998 0.0
H478 H 0.89871 0.75812 0.62235 0.0
H479 H 0.87699 0.76955 0.68328 0.0
H480 H 0.89088 0.8618 0.66451 0.0
H481 H 0.91213 0.85094 0.60324 0.0
C482 C 0.0176 0.71613 0.51255 0.0
C483 C 0.04338 0.72611 0.53018 0.0
C484 C 0.99081 0.73032 0.51847 0.0
C485 C 0.98938 0.75512 0.5416 0.0
C486 C 0.01456 0.7636 0.56175 0.0
C487 C 0.04144 0.7491 0.55613 0.0
C488 C 0.96287 0.77424 0.5405 0.0
C489 C 0.94706 0.77973 0.57307 0.0
C490 C 0.95306 0.78682 0.50675 0.0
C491 C 0.96987 0.78348 0.47183 0.0
C492 C 0.99943 0.7926 0.46989 0.0
C493 C 0.01538 0.78872 0.43724 0.0
C494 C 1.00193 0.77602 0.4062 0.0
C495 C 0.97247 0.76725 0.40773 0.0
C496 C 0.95644 0.771 0.44037 0.0
C497 C 0.85587 0.86587 0.50682 0.0
C498 C 0.8289 0.8528 0.5163 0.0
C499 C 0.88249 0.85232 0.5161 0.0
C500 C 0.88283 0.82534 0.53505 0.0
C501 C 0.85595 0.81299 0.54635 0.0
C502 C 0.82921 0.82666 0.53716 0.0
C503 C 0.91087 0.80857 0.53852 0.0
C504 C 0.92705 0.80335 0.50612 0.0
C505 C 0.92129 0.79696 0.57255 0.0
C506 C 0.90679 0.80372 0.60818 0.0
C507 C 0.89692 0.78084 0.63117 0.0
C508 C 0.88469 0.78722 0.66573 0.0
C509 C 0.88264 0.81637 0.6778 0.0
C510 C 0.89245 0.83923 0.65511 0.0
C511 C 0.90432 0.833 0.62033 0.0
H512 H 0.8733 0.82126 0.70464 0.0
H513 H 0.01432 0.77303 0.38094 0.0
H514 H 0.32299 0.02012 0.51707 0.0
H515 H 0.30097 0.97192 0.52933 0.0
H516 H 0.21796 0.014 0.55328 0.0
H517 H 0.24072 0.06227 0.54364 0.0
H518 H 0.22078 0.96619 0.59158 0.0
H519 H 0.23772 0.98903 0.4634 0.0
H520 H 0.26735 1.00314 0.40916 0.0
H521 H 0.32118 0.92625 0.42348 0.0
H522 H 0.29208 0.91189 0.47813 0.0
H523 H 0.12352 0.85634 0.51597 0.0
H524 H 0.1521 0.90113 0.52823 0.0
H525 H 0.23193 0.84983 0.53175 0.0
H526 H 0.20348 0.805 0.5196 0.0
H527 H 0.23298 0.89985 0.48342 0.0
H528 H 0.20737 0.87423 0.60716 0.0
H529 H 0.17433 0.86149 0.65863 0.0
H530 H 0.13134 0.94528 0.64834 0.0
H531 H 0.16398 0.95838 0.59652 0.0
C532 C 0.30037 0.01899 0.52638 0.0
C533 C 0.28348 0.04467 0.52957 0.0
C534 C 0.28768 0.99149 0.53295 0.0
C535 C 0.25748 0.98919 0.54093 0.0
C536 C 0.24122 0.01509 0.54693 0.0
C537 C 0.25422 0.04268 0.54153 0.0
C538 C 0.24224 0.96018 0.53901 0.0
C539 C 0.2233 0.9518 0.56781 0.0
C540 C 0.24561 0.94114 0.50812 0.0
C541 C 0.26293 0.94956 0.47505 0.0
C542 C 0.25597 0.97522 0.45508 0.0
C543 C 0.27267 0.98326 0.42427 0.0
C544 C 0.29618 0.96564 0.41294 0.0
C545 C 0.30299 0.93989 0.43233 0.0
C546 C 0.2864 0.93179 0.46321 0.0
C547 C 0.14714 0.85464 0.51948 0.0
C548 C 0.16127 0.82721 0.51675 0.0
C549 C 0.16339 0.88016 0.52673 0.0
C550 C 0.19408 0.87872 0.53101 0.0
C551 C 0.20824 0.85135 0.52863 0.0
C552 C 0.19196 0.82577 0.5219 0.0
C553 C 0.21155 0.90602 0.53585 0.0
C554 C 0.23075 0.91411 0.50739 0.0
C555 C 0.20778 0.925 0.56657 0.0
C556 C 0.18808 0.91721 0.59778 0.0
C557 C 0.19078 0.88987 0.61573 0.0
C558 C 0.17213 0.88259 0.645 0.0
C559 C 0.15071 0.90255 0.65672 0.0
C560 C 0.14795 0.92984 0.63923 0.0
C561 C 0.16656 0.93722 0.60994 0.0
H562 H 0.13627 0.89688 0.67938 0.0
H563 H 0.30909 0.9719 0.3891 0.0
H564 H 0.19917 0.20022 0.51415 0.0
H565 H 0.15339 0.22484 0.53145 0.0
H566 H 0.11136 0.14029 0.54507 0.0
H567 H 0.15684 0.11584 0.52599 0.0
H568 H 0.07641 0.17145 0.50977 0.0
H569 H 0.12946 0.1896 0.62029 0.0
H570 H 0.17014 0.20498 0.66144 0.0
H571 H 0.16193 0.29387 0.62257 0.0
H572 H 0.12157 0.27897 0.58062 0.0
H573 H 0.94618 0.24387 0.56841 0.0
H574 H 0.99271 0.21842 0.58228 0.0
H575 H 0.04027 0.28446 0.52121 0.0
H576 H 0.99389 0.30936 0.50639 0.0
H577 H 0.0696 0.25904 0.59153 0.0
H578 H 0.02148 0.23311 0.47233 0.0
H579 H 0.9773 0.21652 0.43814 0.0
H580 H 0.97418 0.13807 0.50427 0.0
H581 H 0.01808 0.15452 0.53928 0.0
C582 C 0.18022 0.18697 0.52129 0.0
C583 C 0.18145 0.15616 0.51859 0.0
C584 C 0.15406 0.20102 0.53147 0.0
C585 C 0.1288 0.18452 0.54018 0.0
C586 C 0.13038 0.15363 0.53843 0.0
C587 C 0.15634 0.13963 0.52748 0.0
C588 C 0.10022 0.19947 0.548 0.0
C589 C 0.07503 0.19015 0.5284 0.0
C590 C 0.09795 0.22403 0.57222 0.0
C591 C 0.12258 0.23308 0.59703 0.0
C592 C 0.1365 0.21238 0.62022 0.0
C593 C 0.15948 0.22103 0.64376 0.0
C594 C 0.16862 0.25038 0.64459 0.0
C595 C 0.15482 0.27114 0.62188 0.0
C596 C 0.13188 0.2626 0.59822 0.0
C597 C 0.96669 0.25344 0.55909 0.0
C598 C 0.96658 0.27845 0.53625 0.0
C599 C 0.99319 0.23891 0.56697 0.0
C600 C 0.01986 0.2496 0.55272 0.0
C601 C 0.01995 0.27601 0.53267 0.0
C602 C 0.99347 0.29011 0.52408 0.0
C603 C 0.04669 0.23108 0.55296 0.0
C604 C 0.07133 0.23987 0.57374 0.0
C605 C 0.04839 0.20557 0.53068 0.0
C606 C 0.02284 0.19515 0.50859 0.0
C607 C 0.01128 0.21239 0.47966 0.0
C608 C 0.9863 0.20303 0.46015 0.0
C609 C 0.97289 0.17629 0.46909 0.0
C610 C 0.98456 0.15879 0.49742 0.0
C611 C 0.00949 0.16812 0.51708 0.0
H612 H 0.95351 0.16911 0.45403 0.0
H613 H 0.18637 0.25708 0.66284 0.0
H614 H 0.85158 0.18722 0.5686 0.0
H615 H 0.82262 0.14271 0.58199 0.0
H616 H 0.81127 0.12761 0.46481 0.0
H617 H 0.84018 0.17165 0.4514 0.0
H618 H 0.75822 0.12311 0.5081 0.0
H619 H 0.86084 0.08976 0.50825 0.0
H620 H 0.91188 0.09066 0.5319 0.0
H621 H 0.8812 0.06955 0.64103 0.0
H622 H 0.8299 0.06896 0.61808 0.0
H623 H 0.72659 0.9814 0.45625 0.0
H624 H 0.74636 0.02968 0.46963 0.0
H625 H 0.75734 0.00605 0.58463 0.0
H626 H 0.73808 0.95648 0.57098 0.0
H627 H 0.80523 0.03347 0.55999 0.0
H628 H 0.70413 0.0562 0.55836 0.0
H629 H 0.65265 0.05497 0.53643 0.0
H630 H 0.67798 0.09717 0.43512 0.0
H631 H 0.72971 0.09822 0.45611 0.0
C632 C 0.84284 0.17434 0.54581 0.0
C633 C 0.84833 0.18271 0.50897 0.0
C634 C 0.82638 0.14898 0.55346 0.0
C635 C 0.81483 0.13192 0.52436 0.0
C636 C 0.81997 0.1405 0.48764 0.0
C637 C 0.83673 0.16549 0.48001 0.0
C638 C 0.79776 0.10472 0.53155 0.0
C639 C 0.76839 0.10348 0.51949 0.0
C640 C 0.81071 0.07957 0.54795 0.0
C641 C 0.84154 0.07969 0.56157 0.0
C642 C 0.86496 0.08557 0.53735 0.0
C643 C 0.89394 0.08598 0.55061 0.0
C644 C 0.89977 0.08026 0.58797 0.0
C645 C 0.87664 0.07403 0.61212 0.0
C646 C 0.84762 0.07366 0.599 0.0
C647 C 0.73286 0.98635 0.48457 0.0
C648 C 0.73064 0.96502 0.51259 0.0
C649 C 0.74403 0.0142 0.49224 0.0
C650 C 0.75282 0.02183 0.52829 0.0
C651 C 0.75046 1.00073 0.55664 0.0
C652 C 0.73935 0.97251 0.54886 0.0
C653 C 0.76593 0.05139 0.53496 0.0
C654 C 0.79459 0.05321 0.54962 0.0
C655 C 0.75212 0.07726 0.52147 0.0
C656 C 0.72089 0.07724 0.50885 0.0
C657 C 0.69877 0.06511 0.53133 0.0
C658 C 0.66953 0.06444 0.51906 0.0
C659 C 0.66206 0.07599 0.48442 0.0
C660 C 0.6838 0.08827 0.46199 0.0
C661 C 0.71309 0.08897 0.4741 0.0
H662 H 0.63941 0.07544 0.47499 0.0
H663 H 0.92222 0.08058 0.59819 0.0
H664 H 0.2987 0.25504 0.38587 0.0
H665 H 0.28652 0.28127 0.32832 0.0
H666 H 0.24625 0.2024 0.28465 0.0
H667 H 0.25916 0.17613 0.34131 0.0
H668 H 0.27655 0.22502 0.23305 0.0
H669 H 0.2063 0.26487 0.31867 0.0
H670 H 0.18979 0.28972 0.37568 0.0
H671 H 0.23849 0.36707 0.34579 0.0
H672 H 0.2556 0.34252 0.2888 0.0
H673 H 0.18693 0.28225 0.08904 0.0
H674 H 0.20324 0.26232 0.14857 0.0
H675 H 0.25782 0.33868 0.16642 0.0
H676 H 0.2418 0.35878 0.10651 0.0
H677 H 0.22401 0.3207 0.23044 0.0
H678 H 0.29013 0.27952 0.14052 0.0
H679 H 0.3013 0.25399 0.08201 0.0
H680 H 0.25558 0.17712 0.12018 0.0
H681 H 0.24351 0.20247 0.17861 0.0
C682 C 0.28714 0.24342 0.36399 0.0
C683 C 0.28011 0.21345 0.36809 0.0
C684 C 0.28007 0.25844 0.33109 0.0
C685 C 0.2652 0.24398 0.30192 0.0
C686 C 0.2579 0.21413 0.30637 0.0
C687 C 0.26531 0.19908 0.33888 0.0
C688 C 0.25752 0.25942 0.26646 0.0
C689 C 0.26482 0.24582 0.2327 0.0
C690 C 0.24275 0.28694 0.26549 0.0
C691 C 0.2325 0.30174 0.29971 0.0
C692 C 0.21367 0.2871 0.32441 0.0
C693 C 0.20418 0.30114 0.35669 0.0
C694 C 0.21317 0.32992 0.36441 0.0
C695 C 0.2316 0.34475 0.33981 0.0
C696 C 0.24119 0.33079 0.30751 0.0
C697 C 0.20236 0.29492 0.10556 0.0
C698 C 0.21308 0.32213 0.09282 0.0
C699 C 0.21169 0.28344 0.13965 0.0
C700 C 0.23184 0.29894 0.16197 0.0
C701 C 0.24222 0.32636 0.14973 0.0
C702 C 0.23313 0.33774 0.11537 0.0
C703 C 0.24256 0.28593 0.19751 0.0
C704 C 0.23593 0.30002 0.23108 0.0
C705 C 0.25754 0.25863 0.1984 0.0
C706 C 0.2657 0.243 0.16383 0.0
C707 C 0.28231 0.25723 0.13637 0.0
C708 C 0.2888 0.24278 0.1032 0.0
C709 C 0.27909 0.21395 0.09735 0.0
C710 C 0.26304 0.19946 0.12474 0.0
C711 C 0.25637 0.21386 0.15789 0.0
H712 H 0.28397 0.2028 0.07162 0.0
H713 H 0.20578 0.34076 0.38941 0.0
H714 H 0.64915 0.23419 0.12137 0.0
H715 H 0.6678 0.24921 0.18237 0.0
H716 H 0.75394 0.21641 0.15388 0.0
H717 H 0.73513 0.20025 0.09386 0.0
H718 H 0.74363 0.20147 0.22061 0.0
H719 H 0.73242 0.29268 0.15366 0.0
H720 H 0.70474 0.32982 0.11805 0.0
H721 H 0.64667 0.34308 0.21005 0.0
H722 H 0.67357 0.30542 0.24594 0.0
H723 H 0.83534 0.27708 0.34697 0.0
H724 H 0.80905 0.26284 0.29055 0.0
H725 H 0.72621 0.28124 0.34346 0.0
H726 H 0.75254 0.29565 0.40042 0.0
H727 H 0.73057 0.303 0.26848 0.0
H728 H 0.74427 0.21335 0.33619 0.0
H729 H 0.77277 0.17648 0.37134 0.0
H730 H 0.82788 0.16153 0.27687 0.0
H731 H 0.79999 0.19868 0.24133 0.0
C732 C 0.67206 0.23018 0.12816 0.0
C733 C 0.69061 0.21598 0.10267 0.0
C734 C 0.68278 0.23893 0.16304 0.0
C735 C 0.7125 0.23436 0.17284 0.0
C736 C 0.73095 0.22017 0.14729 0.0
C737 C 0.72014 0.21099 0.1128 0.0
C738 C 0.72461 0.24406 0.20957 0.0
C739 C 0.74095 0.22379 0.23074 0.0
C740 C 0.72061 0.27296 0.22368 0.0
C741 C 0.70481 0.296 0.20234 0.0
C742 C 0.71364 0.30338 0.16622 0.0
C743 C 0.69808 0.32454 0.14598 0.0
C744 C 0.67394 0.3388 0.16176 0.0
C745 C 0.66534 0.33198 0.19785 0.0
C746 C 0.68071 0.3107 0.21814 0.0
C747 C 0.81154 0.27851 0.34656 0.0
C748 C 0.79606 0.28769 0.37823 0.0
C749 C 0.79652 0.27015 0.3143 0.0
C750 C 0.76564 0.27081 0.31277 0.0
C751 C 0.75004 0.28055 0.344 0.0
C752 C 0.76509 0.28863 0.37657 0.0
C753 C 0.74995 0.26057 0.27874 0.0
C754 C 0.733 0.28067 0.25824 0.0
C755 C 0.75356 0.2316 0.26503 0.0
C756 C 0.77018 0.20899 0.28619 0.0
C757 C 0.76261 0.20237 0.32299 0.0
C758 C 0.77863 0.18139 0.34298 0.0
C759 C 0.80216 0.16671 0.32638 0.0
C760 C 0.80966 0.17293 0.28971 0.0
C761 C 0.79373 0.19393 0.26962 0.0
H762 H 0.81454 0.15049 0.3419 0.0
H763 H 0.66188 0.35517 0.14611 0.0
H764 H 0.78069 0.64742 0.1157 0.0
H765 H 0.76573 0.66453 0.17724 0.0
H766 H 0.78305 0.7542 0.14457 0.0
H767 H 0.7991 0.73717 0.08399 0.0
H768 H 0.80248 0.74846 0.20939 0.0
H769 H 0.71048 0.72329 0.1521 0.0
H770 H 0.67447 0.69152 0.12001 0.0
H771 H 0.67697 0.6304 0.21056 0.0
H772 H 0.71314 0.66177 0.2432 0.0
H773 H 0.68057 0.79438 0.3485 0.0
H774 H 0.69446 0.7701 0.29086 0.0
H775 H 0.77852 0.74696 0.33868 0.0
H776 H 0.76564 0.77287 0.39547 0.0
H777 H 0.70826 0.71844 0.26701 0.0
H778 H 0.83198 0.74938 0.27476 0.0
H779 H 0.86372 0.78786 0.30218 0.0
H780 H 0.79113 0.84841 0.30165 0.0
H781 H 0.75911 0.81044 0.2738 0.0
C782 C 0.78135 0.67077 0.12172 0.0
C783 C 0.79123 0.69088 0.09488 0.0
C784 C 0.77259 0.68059 0.15689 0.0
C785 C 0.77291 0.7108 0.16573 0.0
C786 C 0.7827 0.7308 0.1388 0.0
C787 C 0.79185 0.72099 0.10398 0.0
C788 C 0.76351 0.72182 0.20296 0.0
C789 C 0.7819 0.74172 0.22193 0.0
C790 C 0.73643 0.71364 0.21943 0.0
C791 C 0.71475 0.6947 0.19989 0.0
C792 C 0.70351 0.70297 0.16505 0.0
C793 C 0.68304 0.68506 0.14677 0.0
C794 C 0.67354 0.65889 0.16311 0.0
C795 C 0.68439 0.65065 0.19788 0.0
C796 C 0.70484 0.66851 0.21632 0.0
C797 C 0.7021 0.78427 0.34682 0.0
C798 C 0.72209 0.78614 0.37675 0.0
C799 C 0.70991 0.77004 0.31384 0.0
C800 C 0.73782 0.75712 0.30992 0.0
C801 C 0.75709 0.75728 0.34055 0.0
C802 C 0.74947 0.77183 0.37338 0.0
C803 C 0.74727 0.745 0.27329 0.0
C804 C 0.72895 0.72491 0.25453 0.0
C805 C 0.77391 0.75385 0.25628 0.0
C806 C 0.7931 0.77695 0.27261 0.0
C807 C 0.82284 0.77094 0.2804 0.0
C808 C 0.84087 0.79265 0.29603 0.0
C809 C 0.82942 0.82052 0.30378 0.0
C810 C 0.79995 0.82678 0.29577 0.0
C811 C 0.78185 0.80517 0.28009 0.0
H812 H 0.8434 0.83729 0.31592 0.0
H813 H 0.6577 0.64506 0.14888 0.0
H814 H 0.27727 0.80978 0.09706 0.0
H815 H 0.25984 0.7954 0.15804 0.0
H816 H 0.34651 0.76344 0.18629 0.0
H817 H 0.36397 0.77696 0.12432 0.0
H818 H 0.3069 0.7266 0.21195 0.0
H819 H 0.31908 0.83063 0.22048 0.0
H820 H 0.31358 0.88249 0.20155 0.0
H821 H 0.21966 0.87545 0.21129 0.0
H822 H 0.22456 0.82343 0.22979 0.0
H823 H 0.25994 0.71401 0.4029 0.0
H824 H 0.28735 0.72847 0.3472 0.0
H825 H 0.20671 0.75893 0.29666 0.0
H826 H 0.17956 0.74529 0.352 0.0
H827 H 0.24993 0.79805 0.28686 0.0
H828 H 0.23846 0.6925 0.27306 0.0
H829 H 0.24452 0.64072 0.29209 0.0
H830 H 0.33846 0.65143 0.29367 0.0
H831 H 0.33292 0.70341 0.2751 0.0
C832 C 0.29276 0.79979 0.11617 0.0
C833 C 0.32216 0.79484 0.10578 0.0
C834 C 0.28275 0.79167 0.15127 0.0
C835 C 0.30195 0.77891 0.17736 0.0
C836 C 0.33124 0.77342 0.16688 0.0
C837 C 0.34124 0.78126 0.13145 0.0
C838 C 0.29113 0.77125 0.21525 0.0
C839 C 0.29493 0.74243 0.22861 0.0
C840 C 0.27522 0.79169 0.23713 0.0
C841 C 0.27219 0.82306 0.2263 0.0
C842 C 0.29724 0.84009 0.21838 0.0
C843 C 0.29423 0.86952 0.20775 0.0
C844 C 0.26629 0.88224 0.20516 0.0
C845 C 0.24129 0.86557 0.21329 0.0
C846 C 0.24418 0.83612 0.22391 0.0
C847 C 0.24812 0.7239 0.37995 0.0
C848 C 0.21745 0.72812 0.38186 0.0
C849 C 0.26377 0.73198 0.348 0.0
C850 C 0.24908 0.74456 0.31744 0.0
C851 C 0.2186 0.7492 0.31968 0.0
C852 C 0.20302 0.74108 0.35134 0.0
C853 C 0.26502 0.75326 0.28303 0.0
C854 C 0.26223 0.78235 0.27039 0.0
C855 C 0.28196 0.73313 0.26201 0.0
C856 C 0.28526 0.70191 0.27314 0.0
C857 C 0.2604 0.68387 0.27778 0.0
C858 C 0.26374 0.65448 0.28841 0.0
C859 C 0.29185 0.64282 0.2942 0.0
C860 C 0.31669 0.66051 0.28926 0.0
C861 C 0.31347 0.68993 0.27866 0.0
H862 H 0.2944 0.62005 0.30243 0.0
H863 H 0.264 0.90502 0.19691 0.0
H864 H 0.72184 0.86413 0.62023 0.0
H865 H 0.73732 0.84465 0.68054 0.0
H866 H 0.72272 0.75615 0.64077 0.0
H867 H 0.70529 0.77571 0.58163 0.0
H868 H 0.70524 0.75772 0.70653 0.0
H869 H 0.79446 0.79262 0.64927 0.0
H870 H 0.82322 0.83132 0.61813 0.0
H871 H 0.8184 0.88546 0.71541 0.0
H872 H 0.78906 0.84734 0.74694 0.0
H873 H 0.78984 0.67768 0.83537 0.0
H874 H 0.77593 0.70297 0.77834 0.0
H875 H 0.77313 0.78556 0.83705 0.0
H876 H 0.78755 0.76034 0.89456 0.0
H877 H 0.79923 0.78959 0.76468 0.0
H878 H 0.71149 0.75184 0.82196 0.0
H879 H 0.68097 0.7133 0.85041 0.0
H880 H 0.68409 0.66273 0.75 0.0
H881 H 0.71528 0.70071 0.72113 0.0
C882 C 0.72186 0.84053 0.62452 0.0
C883 C 0.71236 0.82145 0.59622 0.0
C884 C 0.73094 0.82935 0.65894 0.0
C885 C 0.73191 0.79876 0.66528 0.0
C886 C 0.72224 0.77979 0.6369 0.0
C887 C 0.71233 0.791 0.60296 0.0
C888 C 0.74287 0.78628 0.70123 0.0
C889 C 0.726 0.7645 0.71882 0.0
C890 C 0.76969 0.79541 0.71813 0.0
C891 C 0.78926 0.81728 0.7003 0.0
C892 C 0.79949 0.8128 0.664 0.0
C893 C 0.8157 0.83471 0.64618 0.0
C894 C 0.82227 0.86098 0.6646 0.0
C895 C 0.81307 0.8652 0.70109 0.0
C896 C 0.79666 0.84344 0.71897 0.0
C897 C 0.78689 0.70132 0.83618 0.0
C898 C 0.78993 0.71694 0.86972 0.0
C899 C 0.7787 0.71574 0.80349 0.0
C900 C 0.77327 0.74615 0.80338 0.0
C901 C 0.77721 0.76208 0.83644 0.0
C902 C 0.78524 0.74759 0.86935 0.0
C903 C 0.7618 0.76075 0.76921 0.0
C904 C 0.77853 0.78288 0.75214 0.0
C905 C 0.73506 0.75167 0.75239 0.0
C906 C 0.71594 0.72901 0.7695 0.0
C907 C 0.70586 0.7324 0.80602 0.0
C908 C 0.68841 0.71066 0.82222 0.0
C909 C 0.68059 0.68556 0.80208 0.0
C910 C 0.69018 0.68217 0.76561 0.0
C911 C 0.70776 0.7038 0.7493 0.0
H912 H 0.66706 0.66875 0.8147 0.0
H913 H 0.83476 0.87795 0.6507 0.0
H914 H 0.16332 0.75426 0.60599 0.0
H915 H 0.18342 0.77136 0.66544 0.0
H916 H 0.232 0.69033 0.67673 0.0
H917 H 0.21226 0.67318 0.61745 0.0
H918 H 0.20245 0.70598 0.74098 0.0
H919 H 0.26365 0.753 0.64868 0.0
H920 H 0.27324 0.78563 0.59558 0.0
H921 H 0.24093 0.85958 0.65736 0.0
H922 H 0.22976 0.82722 0.71009 0.0
H923 H 0.30042 0.7365 0.88844 0.0
H924 H 0.27586 0.7229 0.83058 0.0
H925 H 0.25038 0.81354 0.81391 0.0
H926 H 0.27692 0.82734 0.87071 0.0
H927 H 0.26479 0.7951 0.75244 0.0
H928 H 0.20049 0.75303 0.84155 0.0
H929 H 0.1847 0.72336 0.89506 0.0
H930 H 0.21666 0.645 0.84226 0.0
H931 H 0.23295 0.67423 0.78858 0.0
C932 C 0.17833 0.74008 0.62107 0.0
C933 C 0.18622 0.71233 0.60675 0.0
C934 C 0.18985 0.74994 0.65506 0.0
C935 C 0.20939 0.73221 0.67555 0.0
C936 C 0.217 0.70442 0.66149 0.0
C937 C 0.20573 0.69468 0.62744 0.0
C938 C 0.22188 0.74226 0.71176 0.0
C939 C 0.21632 0.72533 0.74348 0.0
C940 C 0.23898 0.76821 0.71535 0.0
C941 C 0.24543 0.78753 0.68322 0.0
C942 C 0.25807 0.77612 0.65073 0.0
C943 C 0.26374 0.79459 0.62062 0.0
C944 C 0.2574 0.82462 0.6229 0.0
C945 C 0.24546 0.83626 0.65535 0.0
C946 C 0.23936 0.81784 0.68532 0.0
C947 C 0.28929 0.75344 0.87256 0.0
C948 C 0.29032 0.78294 0.88422 0.0
C949 C 0.27502 0.74564 0.83948 0.0
C950 C 0.26047 0.76699 0.81782 0.0
C951 C 0.26129 0.79651 0.82983 0.0
C952 C 0.27631 0.80443 0.86243 0.0
C953 C 0.24555 0.75872 0.78205 0.0
C954 C 0.25071 0.7759 0.75028 0.0
C955 C 0.22732 0.73347 0.77856 0.0
C956 C 0.2181 0.71587 0.81113 0.0
C957 C 0.20437 0.72951 0.84147 0.0
C958 C 0.19527 0.71276 0.8718 0.0
C959 C 0.1996 0.68232 0.87199 0.0
C960 C 0.21323 0.66857 0.84199 0.0
C961 C 0.22238 0.68522 0.8116 0.0
H962 H 0.19233 0.66936 0.89535 0.0
H963 H 0.2619 0.83891 0.59963 0.0
H964 H 0.32539 0.22935 0.5899 0.0
H965 H 0.3094 0.24973 0.64904 0.0
H966 H 0.25349 0.17424 0.66618 0.0
H967 H 0.26869 0.15418 0.6063 0.0
H968 H 0.22526 0.22064 0.68686 0.0
H969 H 0.32145 0.18427 0.71329 0.0
H970 H 0.37488 0.1776 0.70486 0.0
H971 H 0.38859 0.27028 0.7207 0.0
H972 H 0.33518 0.27758 0.72872 0.0
H973 H 0.2072 0.25648 0.88221 0.0
H974 H 0.22083 0.23071 0.82465 0.0
H975 H 0.26334 0.30943 0.78523 0.0
H976 H 0.24942 0.33523 0.84201 0.0
H977 H 0.29802 0.25746 0.77875 0.0
H978 H 0.20076 0.29319 0.74928 0.0
H979 H 0.14709 0.29901 0.75605 0.0
H980 H 0.13564 0.20549 0.74655 0.0
H981 H 0.18933 0.19907 0.74031 0.0
C982 C 0.30975 0.217 0.60624 0.0
C983 C 0.29854 0.18998 0.59335 0.0
C984 C 0.30071 0.22863 0.64029 0.0
C985 C 0.28064 0.21331 0.66271 0.0
C986 C 0.2691 0.1865 0.64965 0.0
C987 C 0.27791 0.17498 0.61538 0.0
C988 C 0.27142 0.22553 0.69941 0.0
C989 C 0.24123 0.22822 0.70717 0.0
C990 C 0.29212 0.23579 0.72601 0.0
C991 C 0.32427 0.2315 0.72129 0.0
C992 C 0.33584 0.20326 0.71471 0.0
C993 C 0.36612 0.19937 0.71005 0.0
C994 C 0.38511 0.22351 0.71216 0.0
C995 C 0.37385 0.2516 0.71903 0.0
C996 C 0.34358 0.25563 0.72368 0.0
C997 C 0.21942 0.26821 0.86118 0.0
C998 C 0.22706 0.29793 0.86651 0.0
C999 C 0.22708 0.25354 0.82829 0.0
C1000 C 0.243 0.2682 0.80051 0.0
C1001 C 0.251 0.2977 0.80615 0.0
C1002 C 0.24291 0.31245 0.83857 0.0
C1003 C 0.25197 0.2529 0.76578 0.0
C1004 C 0.28212 0.24962 0.75849 0.0
C1005 C 0.23125 0.24188 0.73983 0.0
C1006 C 0.19911 0.24561 0.74497 0.0
C1007 C 0.18685 0.27382 0.74924 0.0
C1008 C 0.15641 0.27724 0.75282 0.0
C1009 C 0.13798 0.25263 0.7519 0.0
C1010 C 0.14995 0.22453 0.74742 0.0
C1011 C 0.18038 0.22099 0.7439 0.0
H1012 H 0.11441 0.25533 0.75454 0.0
H1013 H 0.40855 0.22045 0.70854 0.0
H1014 H 0.67832 0.23355 0.84796 0.0
H1015 H 0.70364 0.2463 0.79086 0.0
H1016 H 0.78705 0.2249 0.84189 0.0
H1017 H 0.76158 0.21303 0.89997 0.0
H1018 H 0.79394 0.2717 0.80204 0.0
H1019 H 0.75168 0.17818 0.7764 0.0
H1020 H 0.71299 0.14018 0.7731 0.0
H1021 H 0.66315 0.19391 0.69771 0.0
H1022 H 0.70135 0.23243 0.70096 0.0
H1023 H 0.86264 0.27255 0.62102 0.0
H1024 H 0.84369 0.25545 0.68087 0.0
H1025 H 0.75856 0.29193 0.65437 0.0
H1026 H 0.77734 0.30946 0.59503 0.0
H1027 H 0.75691 0.23307 0.68191 0.0
H1028 H 0.80009 0.3277 0.71225 0.0
H1029 H 0.84067 0.36369 0.71528 0.0
H1030 H 0.89173 0.30375 0.78136 0.0
H1031 H 0.85157 0.26722 0.77827 0.0
C1032 C 0.70205 0.23127 0.84698 0.0
C1033 C 0.7179 0.22179 0.87834 0.0
C1034 C 0.71655 0.23852 0.81418 0.0
C1035 C 0.7473 0.23586 0.81147 0.0
C1036 C 0.76332 0.22695 0.84304 0.0
C1037 C 0.74877 0.22011 0.87621 0.0
C1038 C 0.76243 0.24284 0.77579 0.0
C1039 C 0.78613 0.26276 0.7759 0.0
C1040 C 0.7523 0.23147 0.74135 0.0
C1041 C 0.7293 0.2083 0.73915 0.0
C1042 C 0.73238 0.18198 0.75931 0.0
C1043 C 0.71054 0.16034 0.75742 0.0
C1044 C 0.6856 0.16465 0.73526 0.0
C1045 C 0.68248 0.1906 0.71488 0.0
C1046 C 0.70423 0.21234 0.7167 0.0
C1047 C 0.8399 0.27698 0.62798 0.0
C1048 C 0.82156 0.29251 0.60323 0.0
C1049 C 0.82913 0.26724 0.66222 0.0
C1050 C 0.79972 0.27249 0.67216 0.0
C1051 C 0.78131 0.28762 0.64731 0.0
C1052 C 0.79215 0.29774 0.61341 0.0
C1053 C 0.78785 0.26223 0.70833 0.0
C1054 C 0.76482 0.24166 0.7082 0.0
C1055 C 0.79891 0.27261 0.74267 0.0
C1056 C 0.82298 0.2946 0.74465 0.0
C1057 C 0.82008 0.32209 0.72713 0.0
C1058 C 0.84298 0.34261 0.72892 0.0
C1059 C 0.8688 0.33598 0.7484 0.0
C1060 C 0.87174 0.30884 0.76622 0.0
C1061 C 0.84891 0.28823 0.76448 0.0
H1062 H 0.88651 0.3519 0.74975 0.0
H1063 H 0.66872 0.14787 0.73384 0.0
H1064 H 0.8816 0.54973 0.02353 0.0
H1065 H 0.92204 0.51445 0.02401 0.0
H1066 H 0.98353 0.58439 1.00146 0.0
H1067 H 0.94324 0.61954 0.99903 0.0
H1068 H 0.99731 0.53927 0.96123 0.0
H1069 H 0.97508 0.55213 0.09016 0.0
H1070 H 0.94343 0.5529 0.14547 0.0
H1071 H 0.92337 0.46135 0.1299 0.0
H1072 H 0.95461 0.46013 0.07419 0.0
H1073 H 0.12863 0.46172 1.00402 0.0
H1074 H 0.08782 0.49665 1.00689 0.0
H1075 H 0.02684 0.42497 0.02185 0.0
H1076 H 0.06766 0.38993 0.02012 0.0
H1077 H 0.0127 0.47045 0.06614 0.0
H1078 H 0.03537 0.45802 0.93712 0.0
H1079 H 0.0675 0.45756 0.88225 0.0
H1080 H 0.08729 0.54907 0.89879 0.0
H1081 H 0.05557 0.54997 0.95408 0.0
C1082 C 0.90361 0.55774 0.01831 0.0
C1083 C 0.9088 0.58782 0.01135 0.0
C1084 C 0.9269 0.53744 0.01904 0.0
C1085 C 0.95609 0.54668 0.01336 0.0
C1086 C 0.96131 0.57659 1.0061 0.0
C1087 C 0.93807 0.59683 1.00508 0.0
C1088 C 0.98118 0.5253 0.01441 0.0
C1089 C 1.00084 0.52454 0.98447 0.0
C1090 C 0.98565 0.50547 0.04425 0.0
C1091 C 0.96695 0.50612 0.07781 0.0
C1092 C 0.96375 0.53222 0.09838 0.0
C1093 C 0.94591 0.53273 0.12982 0.0
C1094 C 0.93134 0.50721 0.14113 0.0
C1095 C 0.93464 0.48111 0.12107 0.0
C1096 C 0.95243 0.48049 0.08959 0.0
C1097 C 0.10665 0.45331 1.00851 0.0
C1098 C 0.10156 0.42283 0.01164 0.0
C1099 C 0.08321 0.47337 0.00975 0.0
C1100 C 0.05407 0.4635 0.01399 0.0
C1101 C 0.04903 0.4332 0.01835 0.0
C1102 C 0.07244 0.41312 0.01707 0.0
C1103 C 0.02883 0.48462 0.0131 0.0
C1104 C 0.00914 0.48526 0.04299 0.0
C1105 C 0.02438 0.50443 0.98329 0.0
C1106 C 0.04332 0.50398 0.94994 0.0
C1107 C 0.04674 0.47799 0.92921 0.0
C1108 C 0.06485 0.47765 0.89801 0.0
C1109 C 0.07948 0.50325 0.8871 0.0
C1110 C 0.07597 0.52925 0.90731 0.0
C1111 C 0.05791 0.52969 0.93855 0.0
H1112 H 0.0935 0.50294 0.86294 0.0
H1113 H 0.91754 0.50765 0.16548 0.0
H1114 H 0.61807 0.0695 0.04298 0.0
H1115 H 0.58254 0.02919 0.04425 0.0
H1116 H 0.51475 0.08768 1.00426 0.0
H1117 H 0.55023 0.12818 1.00293 0.0
H1118 H 0.49315 0.05291 0.05683 0.0
H1119 H 0.54903 0.03766 0.94646 0.0
H1120 H 0.59389 0.03144 0.90909 0.0
H1121 H 0.61686 0.95432 0.97152 0.0
H1122 H 0.57232 0.96031 0.00964 0.0
H1123 H 0.39162 0.94312 0.9971 0.0
H1124 H 0.4267 0.98355 0.99991 0.0
H1125 H 0.49235 0.92534 0.0456 0.0
H1126 H 0.45722 0.88466 0.04362 0.0
H1127 H 0.51504 0.95972 0.99071 0.0
H1128 H 0.45792 0.97507 0.10039 0.0
H1129 H 0.41242 0.9815 0.13646 0.0
H1130 H 0.39101 0.05879 0.07348 0.0
H1131 H 0.4362 0.05258 0.03666 0.0
C1132 C 0.59565 0.07384 0.03429 0.0
C1133 C 0.58721 0.1022 0.02258 0.0
C1134 C 0.57529 0.05069 0.03503 0.0
C1135 C 0.54596 0.05512 0.02375 0.0
C1136 C 0.53722 0.08358 0.01304 0.0
C1137 C 0.55758 0.10682 0.01241 0.0
C1138 C 0.52455 0.03006 0.02282 0.0
C1139 C 0.49782 0.0327 0.04195 0.0
C1140 C 0.53072 1.00332 1.00406 0.0
C1141 C 0.5575 0.99962 0.98116 0.0
C1142 C 0.56377 0.01951 0.95242 0.0
C1143 C 0.58912 0.016 0.93107 0.0
C1144 C 0.60826 0.99255 0.93799 0.0
C1145 C 0.60204 0.9725 0.96623 0.0
C1146 C 0.57674 0.97593 0.9877 0.0
C1147 C 0.41331 0.93874 1.00826 0.0
C1148 C 0.42124 0.91027 0.02027 0.0
C1149 C 0.43348 0.96206 0.00973 0.0
C1150 C 0.46218 0.95768 0.02328 0.0
C1151 C 0.47036 0.92933 0.03499 0.0
C1152 C 0.45015 0.90598 0.0337 0.0
C1153 C 0.4837 0.98258 0.02475 0.0
C1154 C 0.51043 0.97991 1.00566 0.0
C1155 C 0.47745 0.00934 0.04336 0.0
C1156 C 0.45031 0.01319 0.06553 0.0
C1157 C 0.44339 0.9933 0.09403 0.0
C1158 C 0.41768 0.99693 0.11465 0.0
C1159 C 0.3988 0.0205 0.1072 0.0
C1160 C 0.40563 0.04052 0.07918 0.0
C1161 C 0.43131 0.03697 0.05845 0.0
H1162 H 0.3789 0.02327 0.1232 0.0
H1163 H 0.62787 0.98986 0.92142 0.0
H1164 H 0.38323 0.05085 0.50685 0.0
H1165 H 0.42466 0.01675 0.51087 0.0
H1166 H 0.48483 0.08993 0.51863 0.0
H1167 H 0.44347 0.12421 0.51478 0.0
H1168 H 0.50495 0.05022 0.47053 0.0
H1169 H 0.46805 0.04678 0.59484 0.0
H1170 H 0.43019 0.04057 0.64293 0.0
H1171 H 0.41453 0.952 0.60617 0.0
H1172 H 0.45205 0.95781 0.55753 0.0
H1173 H 0.63075 0.96304 0.51185 0.0
H1174 H 0.59127 0.99912 0.51559 0.0
H1175 H 0.52704 0.92925 0.51617 0.0
H1176 H 0.56624 0.89299 0.51464 0.0
H1177 H 0.50994 0.96892 0.5619 0.0
H1178 H 0.54454 0.97238 0.43625 0.0
H1179 H 0.58139 0.97809 0.38684 0.0
H1180 H 0.60017 0.06588 0.42425 0.0
H1181 H 0.56379 0.0605 0.47434 0.0
C1182 C 0.40517 0.0598 0.51002 0.0
C1183 C 0.4098 0.09047 0.51056 0.0
C1184 C 0.42896 0.04018 0.51223 0.0
C1185 C 0.45802 0.05064 0.51536 0.0
C1186 C 0.46271 0.08121 0.51612 0.0
C1187 C 0.43895 0.10084 0.51386 0.0
C1188 C 0.48354 0.02979 0.51697 0.0
C1189 C 0.50624 0.03272 0.4909 0.0
C1190 C 0.48507 0.00645 0.54292 0.0
C1191 C 0.46269 1.00282 0.57234 0.0
C1192 C 0.4564 0.02604 0.59686 0.0
C1193 C 0.43502 0.02258 0.62423 0.0
C1194 C 0.41992 0.99593 0.62755 0.0
C1195 C 0.42623 0.97264 0.60355 0.0
C1196 C 0.44757 0.97599 0.5761 0.0
C1197 C 0.60835 0.95509 0.51321 0.0
C1198 C 0.60211 0.92467 0.51249 0.0
C1199 C 0.5856 0.97597 0.51493 0.0
C1200 C 0.55591 0.96712 0.51536 0.0
C1201 C 0.54964 0.93685 0.51562 0.0
C1202 C 0.57232 0.91598 0.51434 0.0
C1203 C 0.53131 0.98915 0.51525 0.0
C1204 C 0.50876 0.98647 0.54161 0.0
C1205 C 0.52982 0.01261 0.48939 0.0
C1206 C 0.55166 0.01592 0.45927 0.0
C1207 C 0.5567 0.99282 0.43412 0.0
C1208 C 0.5775 0.996 0.406 0.0
C1209 C 0.59321 0.02229 0.40252 0.0
C1210 C 0.58808 0.04549 0.42709 0.0
C1211 C 0.56736 0.04239 0.45534 0.0
H1212 H 0.60929 0.02471 0.38071 0.0
H1213 H 0.40337 0.9933 0.64875 0.0
H1214 H 0.1192 0.56593 0.49909 0.0
H1215 H 0.08407 0.52603 0.5028 0.0
H1216 H 0.01909 0.58523 0.54719 0.0
H1217 H 0.05429 0.62556 0.54455 0.0
H1218 H 0.01717 0.53362 0.58273 0.0
H1219 H 0.01688 0.56354 0.45588 0.0
H1220 H 0.03831 0.57591 0.39524 0.0
H1221 H 0.07296 0.48832 0.38575 0.0
H1222 H 0.05209 0.47554 0.44662 0.0
H1223 H 0.89366 0.43996 0.54628 0.0
H1224 H 0.92899 0.48059 0.54784 0.0
H1225 H 0.99684 0.42258 0.50764 0.0
H1226 H 0.96147 0.38199 0.50531 0.0
H1227 H 0.99642 0.47427 0.47012 0.0
H1228 H 0.99591 0.44479 0.59786 0.0
H1229 H 0.97327 0.43305 0.658 0.0
H1230 H 0.93845 0.52073 0.66494 0.0
H1231 H 0.96055 0.53288 0.60455 0.0
C1232 C 0.09764 0.5709 0.50987 0.0
C1233 C 0.08998 0.59968 0.52106 0.0
C1234 C 0.07735 0.54777 0.51175 0.0
C1235 C 0.04864 0.55259 0.52459 0.0
C1236 C 0.04104 0.58091 0.5369 0.0
C1237 C 0.06136 0.60414 0.53514 0.0
C1238 C 0.02664 0.52811 0.52473 0.0
C1239 C 0.01235 0.52092 0.55796 0.0
C1240 C 0.0206 0.51108 0.49263 0.0
C1241 C 0.03317 0.51868 0.45599 0.0
C1242 C 0.02928 0.54699 0.44101 0.0
C1243 C 0.04128 0.55406 0.40657 0.0
C1244 C 0.05705 0.53294 0.3867 0.0
C1245 C 0.06078 0.50467 0.4012 0.0
C1246 C 0.04884 0.49749 0.43566 0.0
C1247 C 0.91609 0.43581 0.53776 0.0
C1248 C 0.92463 0.4076 0.5257 0.0
C1249 C 0.93636 0.45905 0.53894 0.0
C1250 C 0.96572 0.45468 0.52811 0.0
C1251 C 0.97436 0.42653 0.51623 0.0
C1252 C 0.95413 0.40323 0.51522 0.0
C1253 C 0.98716 0.47963 0.52815 0.0
C1254 C 1.00128 0.48695 0.49489 0.0
C1255 C 0.99286 0.49686 0.56015 0.0
C1256 C 0.97964 0.48965 0.59651 0.0
C1257 C 0.98323 0.46149 0.61207 0.0
C1258 C 0.97053 0.45478 0.64623 0.0
C1259 C 0.95437 0.4761 0.66523 0.0
C1260 C 0.95094 0.50422 0.65016 0.0
C1261 C 0.96357 0.51104 0.61599 0.0
H1262 H 0.94455 0.47086 0.69168 0.0
H1263 H 0.06632 0.53846 0.36003 0.0
loop_
_geom_bond_atom_site_label_1
_geom_bond_atom_site_label_2
_geom_bond_distance
_geom_bond_site_symmetry_2
_ccdc_geom_bond_type
C0 C1 1.351 . S
C0 N3 1.368 1_556 S
C0 H5 0.931 . S
C1 C0 1.351 . S
C1 N2 1.373 1_556 S
C1 H29 0.930 . S
N2 C1 1.373 1_554 S
N2 C4 1.340 . S
N3 C0 1.368 1_554 S
N3 C4 1.321 . S
N3 Co6 2.135 . S
C4 N2 1.340 . S
C4 N3 1.321 . S
C4 H28 0.930 . S
H5 C0 0.931 . S
Co6 N3 2.135 . S
Co6 N9 2.121 . S
Co6 O14 2.055 . S
Co6 O17 2.039 . S
Co6 N20 2.140 1_554 S
C7 O8 1.227 . S
C7 O17 1.265 . S
O8 C7 1.227 . S
N9 Co6 2.121 . S
N9 C11 1.375 . S
N9 C12 1.313 . S
C10 C11 1.338 . S
C10 N13 1.377 . S
C10 H30 0.930 . S
C11 N9 1.375 . S
C11 C10 1.338 . S
C11 H15 0.931 . S
C12 N9 1.313 . S
C12 N13 1.344 . S
C12 H16 0.930 . S
N13 C10 1.377 . S
N13 C12 1.344 . S
O14 Co6 2.055 . S
O14 C18 1.247 1_554 S
H15 C11 0.931 . S
H16 C12 0.930 . S
O17 Co6 2.039 . S
O17 C7 1.265 . S
C18 O14 1.247 1_556 S
C18 O19 1.232 . S
O19 C18 1.232 . S
N20 Co6 2.140 1_556 S
N20 C23 1.346 . S
N20 C24 1.345 . S
C21 C22 1.387 . S
C21 C25 1.391 . S
C22 C21 1.387 . S
C22 C23 1.369 . S
C22 H31 0.929 . S
C23 N20 1.346 . S
C23 C22 1.369 . S
C23 H26 0.928 . S
C24 N20 1.345 . S
C24 C25 1.371 . S
C24 H27 0.931 . S
C25 C21 1.391 . S
C25 C24 1.371 . S
C25 H32 0.930 . S
H26 C23 0.928 . S
H27 C24 0.931 . S
H28 C4 0.930 . S
H29 C1 0.930 . S
H30 C10 0.930 . S
H31 C22 0.929 . S
H32 C25 0.930 . S
C33 C34 1.351 . S
C33 N36 1.368 1_556 S
C33 H38 0.931 . S
C34 C33 1.351 . S
C34 N35 1.373 1_556 S
C34 H62 0.930 . S
N35 C34 1.373 1_554 S
N35 C37 1.340 . S
N36 C33 1.368 1_554 S
N36 C37 1.321 . S
N36 Co39 2.135 . S
C37 N35 1.340 . S
C37 N36 1.321 . S
C37 H61 0.930 . S
H38 C33 0.931 . S
Co39 N36 2.135 . S
Co39 N42 2.121 . S
Co39 O47 2.055 . S
Co39 O50 2.039 . S
Co39 N53 2.140 1_554 S
C40 O41 1.227 . S
C40 O50 1.265 . S
O41 C40 1.227 . S
N42 Co39 2.121 . S
N42 C44 1.375 . S
N42 C45 1.313 . S
C43 C44 1.338 . S
C43 N46 1.377 . S
C43 H63 0.930 . S
C44 N42 1.375 . S
C44 C43 1.338 . S
C44 H48 0.931 . S
C45 N42 1.313 . S
C45 N46 1.344 . S
C45 H49 0.930 . S
N46 C43 1.377 . S
N46 C45 1.344 . S
O47 Co39 2.055 . S
O47 C51 1.247 1_554 S
H48 C44 0.931 . S
H49 C45 0.930 . S
O50 Co39 2.039 . S
O50 C40 1.265 . S
C51 O47 1.247 1_556 S
C51 O52 1.232 . S
O52 C51 1.232 . S
N53 Co39 2.140 1_556 S
N53 C56 1.346 . S
N53 C57 1.345 . S
C54 C55 1.387 . S
C54 C58 1.391 . S
C55 C54 1.387 . S
C55 C56 1.369 . S
C55 H64 0.929 . S
C56 N53 1.346 . S
C56 C55 1.369 . S
C56 H59 0.928 . S
C57 N53 1.345 . S
C57 C58 1.371 . S
C57 H60 0.931 . S
C58 C54 1.391 . S
C58 C57 1.371 . S
C58 H65 0.930 . S
H59 C56 0.928 . S
H60 C57 0.931 . S
H61 C37 0.930 . S
H62 C34 0.930 . S
H63 C43 0.930 . S
H64 C55 0.929 . S
H65 C58 0.930 . S
C66 C67 1.351 . S
C66 N69 1.368 1_556 S
C66 H71 0.931 . S
C67 C66 1.351 . S
C67 N68 1.373 1_556 S
C67 H95 0.930 . S
N68 C67 1.373 1_554 S
N68 C70 1.340 . S
N69 C66 1.368 1_554 S
N69 C70 1.321 . S
N69 Co72 2.135 . S
C70 N68 1.340 . S
C70 N69 1.321 . S
C70 H94 0.930 . S
H71 C66 0.931 . S
Co72 N69 2.135 . S
Co72 N75 2.121 . S
Co72 O80 2.055 . S
Co72 O83 2.039 . S
Co72 N86 2.140 1_554 S
C73 O74 1.227 . S
C73 O83 1.265 . S
O74 C73 1.227 . S
N75 Co72 2.121 . S
N75 C77 1.375 . S
N75 C78 1.313 . S
C76 C77 1.338 . S
C76 N79 1.377 . S
C76 H96 0.930 . S
C77 N75 1.375 . S
C77 C76 1.338 . S
C77 H81 0.931 . S
C78 N75 1.313 . S
C78 N79 1.344 . S
C78 H82 0.930 . S
N79 C76 1.377 . S
N79 C78 1.344 . S
O80 Co72 2.055 . S
O80 C84 1.247 1_554 S
H81 C77 0.931 . S
H82 C78 0.930 . S
O83 Co72 2.039 . S
O83 C73 1.265 . S
C84 O80 1.247 1_556 S
C84 O85 1.232 . S
O85 C84 1.232 . S
N86 Co72 2.140 1_556 S
N86 C89 1.346 . S
N86 C90 1.345 . S
C87 C88 1.387 . S
C87 C91 1.391 . S
C88 C87 1.387 . S
C88 C89 1.369 . S
C88 H97 0.929 . S
C89 N86 1.346 . S
C89 C88 1.369 . S
C89 H92 0.928 . S
C90 N86 1.345 . S
C90 C91 1.371 . S
C90 H93 0.931 . S
C91 C87 1.391 . S
C91 C90 1.371 . S
C91 H98 0.930 . S
H92 C89 0.928 . S
H93 C90 0.931 . S
H94 C70 0.930 . S
H95 C67 0.930 . S
H96 C76 0.930 . S
H97 C88 0.929 . S
H98 C91 0.930 . S
C99 C100 1.351 . S
C99 N102 1.368 1_556 S
C99 H104 0.931 . S
C100 C99 1.351 . S
C100 N101 1.373 1_556 S
C100 H128 0.930 . S
N101 C100 1.373 1_554 S
N101 C103 1.340 . S
N102 C99 1.368 1_554 S
N102 C103 1.321 . S
N102 Co105 2.135 . S
C103 N101 1.340 . S
C103 N102 1.321 . S
C103 H127 0.930 . S
H104 C99 0.931 . S
Co105 N102 2.135 . S
Co105 N108 2.121 . S
Co105 O113 2.055 . S
Co105 O116 2.039 . S
Co105 N119 2.140 1_554 S
C106 O107 1.227 . S
C106 O116 1.265 . S
O107 C106 1.227 . S
N108 Co105 2.121 . S
N108 C110 1.375 . S
N108 C111 1.313 . S
C109 C110 1.338 . S
C109 N112 1.377 . S
C109 H129 0.930 . S
C110 N108 1.375 . S
C110 C109 1.338 . S
C110 H114 0.931 . S
C111 N108 1.313 . S
C111 N112 1.344 . S
C111 H115 0.930 . S
N112 C109 1.377 . S
N112 C111 1.344 . S
O113 Co105 2.055 . S
O113 C117 1.247 1_554 S
H114 C110 0.931 . S
H115 C111 0.930 . S
O116 Co105 2.039 . S
O116 C106 1.265 . S
C117 O113 1.247 1_556 S
C117 O118 1.232 . S
O118 C117 1.232 . S
N119 Co105 2.140 1_556 S
N119 C122 1.346 . S
N119 C123 1.345 . S
C120 C121 1.387 . S
C120 C124 1.391 . S
C121 C120 1.387 . S
C121 C122 1.369 . S
C121 H130 0.929 . S
C122 N119 1.346 . S
C122 C121 1.369 . S
C122 H125 0.928 . S
C123 N119 1.345 . S
C123 C124 1.371 . S
C123 H126 0.931 . S
C124 C120 1.391 . S
C124 C123 1.371 . S
C124 H131 0.930 . S
H125 C122 0.928 . S
H126 C123 0.931 . S
H127 C103 0.930 . S
H128 C100 0.930 . S
H129 C109 0.930 . S
H130 C121 0.929 . S
H131 C124 0.930 . S
C132 C133 1.351 . S
C132 N135 1.368 . S
C132 H137 0.931 . S
C133 C132 1.351 . S
C133 N134 1.373 . S
C133 H161 0.930 . S
N134 C133 1.373 . S
N134 C136 1.340 . S
N135 C132 1.368 . S
N135 C136 1.321 . S
N135 Co138 2.135 . S
C136 N134 1.340 . S
C136 N135 1.321 . S
C136 H160 0.930 . S
H137 C132 0.931 . S
Co138 N135 2.135 . S
Co138 N141 2.121 . S
Co138 O146 2.055 . S
Co138 O149 2.039 . S
Co138 N152 2.140 . S
C139 O140 1.227 . S
C139 O149 1.265 . S
O140 C139 1.227 . S
N141 Co138 2.121 . S
N141 C143 1.375 . S
N141 C144 1.313 . S
C142 C143 1.338 . S
C142 N145 1.377 . S
C142 H162 0.930 . S
C143 N141 1.375 . S
C143 C142 1.338 . S
C143 H147 0.931 . S
C144 N141 1.313 . S
C144 N145 1.344 . S
C144 H148 0.930 . S
N145 C142 1.377 . S
N145 C144 1.344 . S
O146 Co138 2.055 . S
O146 C150 1.253 . S
H147 C143 0.931 . S
H148 C144 0.930 . S
O149 Co138 2.039 . S
O149 C139 1.265 . S
C150 O146 1.253 . S
C150 O151 1.227 . S
O151 C150 1.227 . S
N152 Co138 2.140 . S
N152 C155 1.346 . S
N152 C156 1.345 . S
C153 C154 1.387 . S
C153 C157 1.391 . S
C154 C153 1.387 . S
C154 C155 1.369 . S
C154 H163 0.929 . S
C155 N152 1.346 . S
C155 C154 1.369 . S
C155 H158 0.928 . S
C156 N152 1.345 . S
C156 C157 1.371 . S
C156 H159 0.931 . S
C157 C153 1.391 . S
C157 C156 1.371 . S
C157 H164 0.930 . S
H158 C155 0.928 . S
H159 C156 0.931 . S
H160 C136 0.930 . S
H161 C133 0.930 . S
H162 C142 0.930 . S
H163 C154 0.929 . S
H164 C157 0.930 . S
C165 C166 1.351 . S
C165 N168 1.368 . S
C165 H170 0.931 . S
C166 C165 1.351 . S
C166 N167 1.373 . S
C166 H194 0.930 . S
N167 C166 1.373 . S
N167 C169 1.340 . S
N168 C165 1.368 . S
N168 C169 1.321 . S
N168 Co171 2.135 . S
C169 N167 1.340 . S
C169 N168 1.321 . S
C169 H193 0.930 . S
H170 C165 0.931 . S
Co171 N168 2.135 . S
Co171 N174 2.121 . S
Co171 O179 2.055 . S
Co171 O182 2.039 . S
Co171 N185 2.140 . S
C172 O173 1.227 . S
C172 O182 1.265 . S
O173 C172 1.227 . S
N174 Co171 2.121 . S
N174 C176 1.375 . S
N174 C177 1.313 . S
C175 C176 1.338 . S
C175 N178 1.377 . S
C175 H195 0.930 . S
C176 N174 1.375 . S
C176 C175 1.338 . S
C176 H180 0.931 . S
C177 N174 1.313 . S
C177 N178 1.344 . S
C177 H181 0.930 . S
N178 C175 1.377 . S
N178 C177 1.344 . S
O179 Co171 2.055 . S
O179 C183 1.253 . S
H180 C176 0.931 . S
H181 C177 0.930 . S
O182 Co171 2.039 . S
O182 C172 1.265 . S
C183 O179 1.253 . S
C183 O184 1.227 . S
O184 C183 1.227 . S
N185 Co171 2.140 . S
N185 C188 1.346 . S
N185 C189 1.345 . S
C186 C187 1.387 . S
C186 C190 1.391 . S
C187 C186 1.387 . S
C187 C188 1.369 . S
C187 H196 0.929 . S
C188 N185 1.346 . S
C188 C187 1.369 . S
C188 H191 0.928 . S
C189 N185 1.345 . S
C189 C190 1.371 . S
C189 H192 0.931 . S
C190 C186 1.391 . S
C190 C189 1.371 . S
C190 H197 0.930 . S
H191 C188 0.928 . S
H192 C189 0.931 . S
H193 C169 0.930 . S
H194 C166 0.930 . S
H195 C175 0.930 . S
H196 C187 0.929 . S
H197 C190 0.930 . S
C198 C199 1.351 . S
C198 N201 1.368 . S
C198 H203 0.931 . S
C199 C198 1.351 . S
C199 N200 1.373 . S
C199 H227 0.930 . S
N200 C199 1.373 . S
N200 C202 1.340 . S
N201 C198 1.368 . S
N201 C202 1.321 . S
N201 Co204 2.135 . S
C202 N200 1.340 . S
C202 N201 1.321 . S
C202 H226 0.930 . S
H203 C198 0.931 . S
Co204 N201 2.135 . S
Co204 N207 2.121 . S
Co204 O212 2.055 . S
Co204 O215 2.039 . S
Co204 N218 2.140 . S
C205 O206 1.227 . S
C205 O215 1.265 . S
O206 C205 1.227 . S
N207 Co204 2.121 . S
N207 C209 1.375 . S
N207 C210 1.313 . S
C208 C209 1.338 . S
C208 N211 1.377 . S
C208 H228 0.930 . S
C209 N207 1.375 . S
C209 C208 1.338 . S
C209 H213 0.931 . S
C210 N207 1.313 . S
C210 N211 1.344 . S
C210 H214 0.930 . S
N211 C208 1.377 . S
N211 C210 1.344 . S
O212 Co204 2.055 . S
O212 C216 1.253 . S
H213 C209 0.931 . S
H214 C210 0.930 . S
O215 Co204 2.039 . S
O215 C205 1.265 . S
C216 O212 1.253 . S
C216 O217 1.227 . S
O217 C216 1.227 . S
N218 Co204 2.140 . S
N218 C221 1.346 . S
N218 C222 1.345 . S
C219 C220 1.387 . S
C219 C223 1.391 . S
C220 C219 1.387 . S
C220 C221 1.369 . S
C220 H229 0.929 . S
C221 N218 1.346 . S
C221 C220 1.369 . S
C221 H224 0.928 . S
C222 N218 1.345 . S
C222 C223 1.371 . S
C222 H225 0.931 . S
C223 C219 1.391 . S
C223 C222 1.371 . S
C223 H230 0.930 . S
H224 C221 0.928 . S
H225 C222 0.931 . S
H226 C202 0.930 . S
H227 C199 0.930 . S
H228 C208 0.930 . S
H229 C220 0.929 . S
H230 C223 0.930 . S
C231 C232 1.351 . S
C231 N234 1.368 . S
C231 H236 0.931 . S
C232 C231 1.351 . S
C232 N233 1.373 . S
C232 H260 0.930 . S
N233 C232 1.373 . S
N233 C235 1.340 . S
N234 C231 1.368 . S
N234 C235 1.321 . S
N234 Co237 2.135 . S
C235 N233 1.340 . S
C235 N234 1.321 . S
C235 H259 0.930 . S
H236 C231 0.931 . S
Co237 N234 2.135 . S
Co237 N240 2.121 . S
Co237 O245 2.055 . S
Co237 O248 2.039 . S
Co237 N251 2.140 . S
C238 O239 1.227 . S
C238 O248 1.265 . S
O239 C238 1.227 . S
N240 Co237 2.121 . S
N240 C242 1.375 . S
N240 C243 1.313 . S
C241 C242 1.338 . S
C241 N244 1.377 . S
C241 H261 0.930 . S
C242 N240 1.375 . S
C242 C241 1.338 . S
C242 H246 0.931 . S
C243 N240 1.313 . S
C243 N244 1.344 . S
C243 H247 0.930 . S
N244 C241 1.377 . S
N244 C243 1.344 . S
O245 Co237 2.055 . S
O245 C249 1.253 . S
H246 C242 0.931 . S
H247 C243 0.930 . S
O248 Co237 2.039 . S
O248 C238 1.265 . S
C249 O245 1.253 . S
C249 O250 1.227 . S
O250 C249 1.227 . S
N251 Co237 2.140 . S
N251 C254 1.346 . S
N251 C255 1.345 . S
C252 C253 1.387 . S
C252 C256 1.391 . S
C253 C252 1.387 . S
C253 C254 1.369 . S
C253 H262 0.929 . S
C254 N251 1.346 . S
C254 C253 1.369 . S
C254 H257 0.928 . S
C255 N251 1.345 . S
C255 C256 1.371 . S
C255 H258 0.931 . S
C256 C252 1.391 . S
C256 C255 1.371 . S
C256 H263 0.930 . S
H257 C254 0.928 . S
H258 C255 0.931 . S
H259 C235 0.930 . S
H260 C232 0.930 . S
H261 C241 0.930 . S
H262 C253 0.929 . S
H263 C256 0.930 . S
H264 C282 0.951 . S
H265 C284 0.951 . S
H266 C286 0.950 . S
H267 C287 0.950 . S
H268 C289 0.950 . S
H269 C292 0.950 . S
H270 C293 0.950 . S
H271 C295 0.950 . S
H272 C296 0.950 . S
H273 C297 0.951 . S
H274 C299 0.951 . S
H275 C301 0.950 . S
H276 C302 0.950 . S
H277 C304 0.950 . S
H278 C307 0.950 . S
H279 C308 0.950 . S
H280 C310 0.950 . S
H281 C311 0.950 . S
C282 H264 0.951 . S
C282 C283 1.380 . S
C282 C284 1.388 . S
C283 C282 1.380 . S
C283 C287 1.368 1_556 S
C284 H265 0.951 . S
C284 C282 1.388 . S
C284 C285 1.366 1_556 S
C285 C284 1.366 1_554 S
C285 C286 1.414 . S
C285 C288 1.499 . S
C286 H266 0.950 . S
C286 C285 1.414 . S
C286 C287 1.374 . S
C287 H267 0.950 . S
C287 C283 1.368 1_554 S
C287 C286 1.374 . S
C288 C285 1.499 . S
C288 C289 1.373 . S
C288 C290 1.389 . S
C289 H268 0.950 . S
C289 C288 1.373 . S
C289 C305 1.377 . S
C290 C288 1.389 . S
C290 C291 1.524 . S
C290 C304 1.377 . S
C291 C290 1.524 . S
C291 C292 1.397 . S
C291 C296 1.363 1_554 S
C292 H269 0.950 . S
C292 C291 1.397 . S
C292 C293 1.334 . S
C293 H270 0.950 . S
C293 C292 1.334 . S
C293 C294 1.287 . S
C294 C293 1.287 . S
C294 C295 1.524 1_554 S
C294 H313 0.913 . S
C295 H271 0.950 . S
C295 C294 1.524 1_556 S
C295 C296 1.415 . S
C296 H272 0.950 . S
C296 C291 1.363 1_556 S
C296 C295 1.415 . S
C297 H273 0.951 . S
C297 C298 1.366 . S
C297 C299 1.388 . S
C298 C297 1.366 . S
C298 C302 1.385 1_554 S
C299 H274 0.951 . S
C299 C297 1.388 . S
C299 C300 1.366 . S
C300 C299 1.366 . S
C300 C301 1.414 1_554 S
C300 C303 1.499 . S
C301 H275 0.950 . S
C301 C300 1.414 1_556 S
C301 C302 1.374 . S
C302 H276 0.950 . S
C302 C298 1.385 1_556 S
C302 C301 1.374 . S
C303 C300 1.499 . S
C303 C304 1.373 . S
C303 C305 1.389 . S
C304 H277 0.950 . S
C304 C290 1.377 . S
C304 C303 1.373 . S
C305 C289 1.377 . S
C305 C303 1.389 . S
C305 C306 1.524 . S
C306 C305 1.524 . S
C306 C307 1.397 1_554 S
C306 C311 1.363 . S
C307 H278 0.950 . S
C307 C306 1.397 1_556 S
C307 C308 1.334 . S
C308 H279 0.950 . S
C308 C307 1.334 . S
C308 C309 1.287 1_556 S
C309 C308 1.287 1_554 S
C309 C310 1.524 . S
C309 H312 0.999 . S
C310 H280 0.950 . S
C310 C309 1.524 . S
C310 C311 1.415 . S
C311 H281 0.950 . S
C311 C306 1.363 . S
C311 C310 1.415 . S
H312 C309 0.999 . S
H313 C294 0.913 . S
H314 C332 0.951 . S
H315 C334 0.951 . S
H316 C336 0.950 . S
H317 C337 0.950 . S
H318 C339 0.950 . S
H319 C342 0.950 . S
H320 C343 0.950 . S
H321 C345 0.950 . S
H322 C346 0.950 . S
H323 C347 0.951 . S
H324 C349 0.951 . S
H325 C351 0.950 . S
H326 C352 0.950 . S
H327 C354 0.950 . S
H328 C357 0.950 . S
H329 C358 0.950 . S
H330 C360 0.950 . S
H331 C361 0.950 . S
C332 H314 0.951 . S
C332 C333 1.366 1_556 S
C332 C334 1.388 . S
C333 C332 1.366 1_554 S
C333 C337 1.385 . S
C334 H315 0.951 . S
C334 C332 1.388 . S
C334 C335 1.366 1_556 S
C335 C334 1.366 1_554 S
C335 C336 1.414 . S
C335 C338 1.499 . S
C336 H316 0.950 . S
C336 C335 1.414 . S
C336 C337 1.374 . S
C337 H317 0.950 . S
C337 C333 1.385 . S
C337 C336 1.374 . S
C338 C335 1.499 . S
C338 C339 1.373 . S
C338 C340 1.389 1_554 S
C339 H318 0.950 . S
C339 C338 1.373 . S
C339 C355 1.377 . S
C340 C338 1.389 1_556 S
C340 C341 1.524 . S
C340 C354 1.377 . S
C341 C340 1.524 . S
C341 C342 1.397 . S
C341 C346 1.363 . S
C342 H319 0.950 . S
C342 C341 1.397 . S
C342 C343 1.334 . S
C343 H320 0.950 . S
C343 C342 1.334 . S
C343 C344 1.287 . S
C344 C343 1.287 . S
C344 C345 1.524 . S
C344 H363 0.913 . S
C345 H321 0.950 . S
C345 C344 1.524 . S
C345 C346 1.415 . S
C346 H322 0.950 . S
C346 C341 1.363 . S
C346 C345 1.415 . S
C347 H323 0.951 . S
C347 C348 1.347 1_554 S
C347 C349 1.388 . S
C348 C347 1.347 1_556 S
C348 C352 1.403 . S
C349 H324 0.951 . S
C349 C347 1.388 . S
C349 C350 1.366 . S
C350 C349 1.366 . S
C350 C351 1.414 1_554 S
C350 C353 1.499 . S
C351 H325 0.950 . S
C351 C350 1.414 1_556 S
C351 C352 1.374 . S
C352 H326 0.950 . S
C352 C348 1.403 . S
C352 C351 1.374 . S
C353 C350 1.499 . S
C353 C354 1.373 1_554 S
C353 C355 1.389 . S
C354 H327 0.950 . S
C354 C340 1.377 . S
C354 C353 1.373 1_556 S
C355 C339 1.377 . S
C355 C353 1.389 . S
C355 C356 1.524 . S
C356 C355 1.524 . S
C356 C357 1.397 . S
C356 C361 1.363 . S
C357 H328 0.950 . S
C357 C356 1.397 . S
C357 C358 1.334 . S
C358 H329 0.950 . S
C358 C357 1.334 . S
C358 C359 1.287 . S
C359 C358 1.287 . S
C359 C360 1.524 . S
C359 H362 0.999 . S
C360 H330 0.950 . S
C360 C359 1.524 . S
C360 C361 1.415 . S
C361 H331 0.950 . S
C361 C356 1.363 . S
C361 C360 1.415 . S
H362 C359 0.999 . S
H363 C344 0.913 . S
H364 C382 0.944 1_556 S
H365 C384 0.951 1_556 S
H366 C386 0.950 . S
H367 C387 0.950 . S
H368 C389 0.950 . S
H369 C392 0.950 . S
H370 C393 0.950 . S
H371 C395 0.950 . S
H372 C396 0.950 . S
H373 C397 0.951 . S
H374 C399 0.951 . S
H375 C401 0.950 . S
H376 C402 0.950 . S
H377 C404 0.950 . S
H378 C407 0.950 . S
H379 C408 0.950 . S
H380 C410 0.950 . S
H381 C411 0.950 . S
C382 H364 0.944 1_554 S
C382 C383 1.366 . S
C382 C384 1.388 . S
C383 C382 1.366 . S
C383 C387 1.385 . S
C384 H365 0.951 1_554 S
C384 C382 1.388 . S
C384 C385 1.366 . S
C385 C384 1.366 . S
C385 C386 1.414 . S
C385 C388 1.499 . S
C386 H366 0.950 . S
C386 C385 1.414 . S
C386 C387 1.374 . S
C387 H367 0.950 . S
C387 C383 1.385 . S
C387 C386 1.374 . S
C388 C385 1.499 . S
C388 C389 1.373 . S
C388 C390 1.389 1_554 S
C389 H368 0.950 . S
C389 C388 1.373 . S
C389 C405 1.377 . S
C390 C388 1.389 1_556 S
C390 C391 1.524 . S
C390 C404 1.377 . S
C391 C390 1.524 . S
C391 C392 1.397 . S
C391 C396 1.363 . S
C392 H369 0.950 . S
C392 C391 1.397 . S
C392 C393 1.334 . S
C393 H370 0.950 . S
C393 C392 1.334 . S
C393 C394 1.287 . S
C394 C393 1.287 . S
C394 C395 1.524 . S
C394 H413 0.913 . S
C395 H371 0.950 . S
C395 C394 1.524 . S
C395 C396 1.415 . S
C396 H372 0.950 . S
C396 C391 1.363 . S
C396 C395 1.415 . S
C397 H373 0.951 . S
C397 C398 1.358 1_554 S
C397 C399 1.388 . S
C398 C397 1.358 1_556 S
C398 C402 1.391 . S
C399 H374 0.951 . S
C399 C397 1.388 . S
C399 C400 1.366 . S
C400 C399 1.366 . S
C400 C401 1.414 1_554 S
C400 C403 1.499 . S
C401 H375 0.950 . S
C401 C400 1.414 1_556 S
C401 C402 1.374 . S
C402 H376 0.950 . S
C402 C398 1.391 . S
C402 C401 1.374 . S
C403 C400 1.499 . S
C403 C404 1.373 1_554 S
C403 C405 1.389 . S
C404 H377 0.950 . S
C404 C390 1.377 . S
C404 C403 1.373 1_556 S
C405 C389 1.377 . S
C405 C403 1.389 . S
C405 C406 1.524 . S
C406 C405 1.524 . S
C406 C407 1.397 . S
C406 C411 1.363 . S
C407 H378 0.950 . S
C407 C406 1.397 . S
C407 C408 1.334 . S
C408 H379 0.950 . S
C408 C407 1.334 . S
C408 C409 1.287 . S
C409 C408 1.287 . S
C409 C410 1.524 . S
C409 H412 0.999 . S
C410 H380 0.950 . S
C410 C409 1.524 . S
C410 C411 1.415 . S
C411 H381 0.950 . S
C411 C406 1.363 . S
C411 C410 1.415 . S
H412 C409 0.999 . S
H413 C394 0.913 . S
H414 C432 0.951 . S
H415 C434 0.951 . S
H416 C436 0.950 . S
H417 C437 0.950 . S
H418 C439 0.950 . S
H419 C442 0.950 . S
H420 C443 0.950 . S
H421 C445 0.950 . S
H422 C446 0.950 . S
H423 C447 0.951 . S
H424 C449 0.951 . S
H425 C451 0.950 . S
H426 C452 0.950 . S
H427 C454 0.950 . S
H428 C457 0.950 . S
H429 C458 0.950 . S
H430 C460 0.950 . S
H431 C461 0.950 . S
C432 H414 0.951 . S
C432 C433 1.363 1_554 S
C432 C434 1.388 . S
C433 C432 1.363 1_556 S
C433 C437 1.386 . S
C434 H415 0.951 . S
C434 C432 1.388 . S
C434 C435 1.366 . S
C435 C434 1.366 . S
C435 C436 1.414 1_554 S
C435 C438 1.499 . S
C436 H416 0.950 . S
C436 C435 1.414 1_556 S
C436 C437 1.374 . S
C437 H417 0.950 . S
C437 C433 1.386 . S
C437 C436 1.374 . S
C438 C435 1.499 . S
C438 C439 1.373 1_554 S
C438 C440 1.389 . S
C439 H418 0.950 . S
C439 C438 1.373 1_556 S
C439 C455 1.377 . S
C440 C438 1.389 . S
C440 C441 1.524 . S
C440 C454 1.377 . S
C441 C440 1.524 . S
C441 C442 1.397 . S
C441 C446 1.363 . S
C442 H419 0.950 . S
C442 C441 1.397 . S
C442 C443 1.334 . S
C443 H420 0.950 . S
C443 C442 1.334 . S
C443 C444 1.287 . S
C444 C443 1.287 . S
C444 C445 1.524 . S
C444 H463 0.913 . S
C445 H421 0.950 . S
C445 C444 1.524 . S
C445 C446 1.415 . S
C446 H422 0.950 . S
C446 C441 1.363 . S
C446 C445 1.415 . S
C447 H423 0.951 . S
C447 C448 1.366 . S
C447 C449 1.388 . S
C448 C447 1.366 . S
C448 C452 1.385 . S
C449 H424 0.951 . S
C449 C447 1.388 . S
C449 C450 1.366 . S
C450 C449 1.366 . S
C450 C451 1.414 . S
C450 C453 1.499 . S
C451 H425 0.950 . S
C451 C450 1.414 . S
C451 C452 1.374 . S
C452 H426 0.950 . S
C452 C448 1.385 . S
C452 C451 1.374 . S
C453 C450 1.499 . S
C453 C454 1.373 . S
C453 C455 1.389 1_554 S
C454 H427 0.950 . S
C454 C440 1.377 . S
C454 C453 1.373 . S
C455 C439 1.377 . S
C455 C453 1.389 1_556 S
C455 C456 1.524 . S
C456 C455 1.524 . S
C456 C457 1.397 . S
C456 C461 1.363 . S
C457 H428 0.950 . S
C457 C456 1.397 . S
C457 C458 1.334 . S
C458 H429 0.950 . S
C458 C457 1.334 . S
C458 C459 1.287 . S
C459 C458 1.287 . S
C459 C460 1.524 . S
C459 H462 0.999 . S
C460 H430 0.950 . S
C460 C459 1.524 . S
C460 C461 1.415 . S
C461 H431 0.950 . S
C461 C456 1.363 . S
C461 C460 1.415 . S
H462 C459 0.999 . S
H463 C444 0.913 . S
H464 C482 0.951 . S
H465 C484 0.951 1_655 S
H466 C486 0.950 . S
H467 C487 0.950 . S
H468 C489 0.950 . S
H469 C492 0.950 . S
H470 C493 0.950 . S
H471 C495 0.950 . S
H472 C496 0.950 . S
H473 C497 0.951 . S
H474 C499 0.951 . S
H475 C501 0.950 . S
H476 C502 0.950 . S
H477 C504 0.950 . S
H478 C507 0.950 . S
H479 C508 0.950 . S
H480 C510 0.950 . S
H481 C511 0.950 . S
C482 H464 0.951 . S
C482 C483 1.366 . S
C482 C484 1.388 . S
C483 C482 1.366 . S
C483 C487 1.385 . S
C484 H465 0.951 1_455 S
C484 C482 1.388 . S
C484 C485 1.366 . S
C485 C484 1.366 . S
C485 C486 1.414 . S
C485 C488 1.499 1_455 S
C486 H466 0.950 . S
C486 C485 1.414 . S
C486 C487 1.374 . S
C487 H467 0.950 . S
C487 C483 1.385 . S
C487 C486 1.374 . S
C488 C485 1.499 1_655 S
C488 C489 1.373 . S
C488 C490 1.389 . S
C489 H468 0.950 . S
C489 C488 1.373 . S
C489 C505 1.377 . S
C490 C488 1.389 . S
C490 C491 1.524 . S
C490 C504 1.377 . S
C491 C490 1.524 . S
C491 C492 1.397 . S
C491 C496 1.363 . S
C492 H469 0.950 . S
C492 C491 1.397 . S
C492 C493 1.334 . S
C493 H470 0.950 . S
C493 C492 1.334 . S
C493 C494 1.287 . S
C494 C493 1.287 . S
C494 C495 1.524 . S
C494 H513 0.913 . S
C495 H471 0.950 . S
C495 C494 1.524 . S
C495 C496 1.415 . S
C496 H472 0.950 . S
C496 C491 1.363 . S
C496 C495 1.415 . S
C497 H473 0.951 . S
C497 C498 1.366 . S
C497 C499 1.388 . S
C498 C497 1.366 . S
C498 C502 1.385 . S
C499 H474 0.951 . S
C499 C497 1.388 . S
C499 C500 1.366 . S
C500 C499 1.366 . S
C500 C501 1.414 . S
C500 C503 1.499 . S
C501 H475 0.950 . S
C501 C500 1.414 . S
C501 C502 1.374 . S
C502 H476 0.950 . S
C502 C498 1.385 . S
C502 C501 1.374 . S
C503 C500 1.499 . S
C503 C504 1.373 . S
C503 C505 1.389 . S
C504 H477 0.950 . S
C504 C490 1.377 . S
C504 C503 1.373 . S
C505 C489 1.377 . S
C505 C503 1.389 . S
C505 C506 1.524 . S
C506 C505 1.524 . S
C506 C507 1.397 . S
C506 C511 1.363 . S
C507 H478 0.950 . S
C507 C506 1.397 . S
C507 C508 1.334 . S
C508 H479 0.950 . S
C508 C507 1.334 . S
C508 C509 1.287 . S
C509 C508 1.287 . S
C509 C510 1.524 . S
C509 H512 0.999 . S
C510 H480 0.950 . S
C510 C509 1.524 . S
C510 C511 1.415 . S
C511 H481 0.950 . S
C511 C506 1.363 . S
C511 C510 1.415 . S
H512 C509 0.999 . S
H513 C494 0.913 . S
H514 C532 0.951 . S
H515 C534 0.951 1_565 S
H516 C536 0.950 . S
H517 C537 0.950 . S
H518 C539 0.950 . S
H519 C542 0.950 . S
H520 C543 0.950 . S
H521 C545 0.950 . S
H522 C546 0.950 . S
H523 C547 0.951 . S
H524 C549 0.951 . S
H525 C551 0.950 . S
H526 C552 0.950 . S
H527 C554 0.950 . S
H528 C557 0.950 . S
H529 C558 0.950 . S
H530 C560 0.950 . S
H531 C561 0.950 . S
C532 H514 0.951 . S
C532 C533 1.366 . S
C532 C534 1.388 . S
C533 C532 1.366 . S
C533 C537 1.385 . S
C534 H515 0.951 1_545 S
C534 C532 1.388 . S
C534 C535 1.366 . S
C535 C534 1.366 . S
C535 C536 1.414 . S
C535 C538 1.499 1_545 S
C536 H516 0.950 . S
C536 C535 1.414 . S
C536 C537 1.374 . S
C537 H517 0.950 . S
C537 C533 1.385 . S
C537 C536 1.374 . S
C538 C535 1.499 1_565 S
C538 C539 1.373 . S
C538 C540 1.389 . S
C539 H518 0.950 . S
C539 C538 1.373 . S
C539 C555 1.377 . S
C540 C538 1.389 . S
C540 C541 1.524 . S
C540 C554 1.377 . S
C541 C540 1.524 . S
C541 C542 1.397 . S
C541 C546 1.363 . S
C542 H519 0.950 . S
C542 C541 1.397 . S
C542 C543 1.334 . S
C543 H520 0.950 . S
C543 C542 1.334 . S
C543 C544 1.287 . S
C544 C543 1.287 . S
C544 C545 1.524 . S
C544 H563 0.913 . S
C545 H521 0.950 . S
C545 C544 1.524 . S
C545 C546 1.415 . S
C546 H522 0.950 . S
C546 C541 1.363 . S
C546 C545 1.415 . S
C547 H523 0.951 . S
C547 C548 1.366 . S
C547 C549 1.388 . S
C548 C547 1.366 . S
C548 C552 1.385 . S
C549 H524 0.951 . S
C549 C547 1.388 . S
C549 C550 1.366 . S
C550 C549 1.366 . S
C550 C551 1.414 . S
C550 C553 1.499 . S
C551 H525 0.950 . S
C551 C550 1.414 . S
C551 C552 1.374 . S
C552 H526 0.950 . S
C552 C548 1.385 . S
C552 C551 1.374 . S
C553 C550 1.499 . S
C553 C554 1.373 . S
C553 C555 1.389 . S
C554 H527 0.950 . S
C554 C540 1.377 . S
C554 C553 1.373 . S
C555 C539 1.377 . S
C555 C553 1.389 . S
C555 C556 1.524 . S
C556 C555 1.524 . S
C556 C557 1.397 . S
C556 C561 1.363 . S
C557 H528 0.950 . S
C557 C556 1.397 . S
C557 C558 1.334 . S
C558 H529 0.950 . S
C558 C557 1.334 . S
C558 C559 1.287 . S
C559 C558 1.287 . S
C559 C560 1.524 . S
C559 H562 0.999 . S
C560 H530 0.950 . S
C560 C559 1.524 . S
C560 C561 1.415 . S
C561 H531 0.950 . S
C561 C556 1.363 . S
C561 C560 1.415 . S
H562 C559 0.999 . S
H563 C544 0.913 . S
H564 C582 0.951 . S
H565 C584 0.951 . S
H566 C586 0.950 . S
H567 C587 0.950 . S
H568 C589 0.950 . S
H569 C592 0.950 . S
H570 C593 0.950 . S
H571 C595 0.950 . S
H572 C596 0.950 . S
H573 C597 0.951 . S
H574 C599 0.951 . S
H575 C601 0.950 1_455 S
H576 C602 0.950 . S
H577 C604 0.950 . S
H578 C607 0.950 . S
H579 C608 0.950 . S
H580 C610 0.950 1_655 S
H581 C611 0.950 . S
C582 H564 0.951 . S
C582 C583 1.366 . S
C582 C584 1.388 . S
C583 C582 1.366 . S
C583 C587 1.385 . S
C584 H565 0.951 . S
C584 C582 1.388 . S
C584 C585 1.366 . S
C585 C584 1.366 . S
C585 C586 1.414 . S
C585 C588 1.499 . S
C586 H566 0.950 . S
C586 C585 1.414 . S
C586 C587 1.374 . S
C587 H567 0.950 . S
C587 C583 1.385 . S
C587 C586 1.374 . S
C588 C585 1.499 . S
C588 C589 1.373 . S
C588 C590 1.389 . S
C589 H568 0.950 . S
C589 C588 1.373 . S
C589 C605 1.377 . S
C590 C588 1.389 . S
C590 C591 1.524 . S
C590 C604 1.377 . S
C591 C590 1.524 . S
C591 C592 1.397 . S
C591 C596 1.363 . S
C592 H569 0.950 . S
C592 C591 1.397 . S
C592 C593 1.334 . S
C593 H570 0.950 . S
C593 C592 1.334 . S
C593 C594 1.287 . S
C594 C593 1.287 . S
C594 C595 1.524 . S
C594 H613 0.913 . S
C595 H571 0.950 . S
C595 C594 1.524 . S
C595 C596 1.415 . S
C596 H572 0.950 . S
C596 C591 1.363 . S
C596 C595 1.415 . S
C597 H573 0.951 . S
C597 C598 1.366 . S
C597 C599 1.388 . S
C598 C597 1.366 . S
C598 C602 1.385 . S
C599 H574 0.951 . S
C599 C597 1.388 . S
C599 C600 1.366 . S
C600 C599 1.366 . S
C600 C601 1.414 . S
C600 C603 1.499 1_655 S
C601 H575 0.950 1_655 S
C601 C600 1.414 . S
C601 C602 1.374 . S
C602 H576 0.950 . S
C602 C598 1.385 . S
C602 C601 1.374 . S
C603 C600 1.499 1_455 S
C603 C604 1.373 . S
C603 C605 1.389 . S
C604 H577 0.950 . S
C604 C590 1.377 . S
C604 C603 1.373 . S
C605 C589 1.377 . S
C605 C603 1.389 . S
C605 C606 1.524 . S
C606 C605 1.524 . S
C606 C607 1.397 . S
C606 C611 1.363 . S
C607 H578 0.950 . S
C607 C606 1.397 . S
C607 C608 1.334 1_455 S
C608 H579 0.950 . S
C608 C607 1.334 1_655 S
C608 C609 1.287 . S
C609 C608 1.287 . S
C609 C610 1.524 1_655 S
C609 H612 0.999 . S
C610 H580 0.950 1_455 S
C610 C609 1.524 1_455 S
C610 C611 1.415 . S
C611 H581 0.950 . S
C611 C606 1.363 . S
C611 C610 1.415 . S
H612 C609 0.999 . S
H613 C594 0.913 . S
H614 C632 0.951 . S
H615 C634 0.951 . S
H616 C636 0.950 . S
H617 C637 0.950 . S
H618 C639 0.950 . S
H619 C642 0.950 . S
H620 C643 0.950 . S
H621 C645 0.950 . S
H622 C646 0.950 . S
H623 C647 0.951 . S
H624 C649 0.951 . S
H625 C651 0.950 . S
H626 C652 0.950 . S
H627 C654 0.950 . S
H628 C657 0.950 . S
H629 C658 0.950 . S
H630 C660 0.950 . S
H631 C661 0.950 . S
C632 H614 0.951 . S
C632 C633 1.366 . S
C632 C634 1.388 . S
C633 C632 1.366 . S
C633 C637 1.385 . S
C634 H615 0.951 . S
C634 C632 1.388 . S
C634 C635 1.366 . S
C635 C634 1.366 . S
C635 C636 1.414 . S
C635 C638 1.499 . S
C636 H616 0.950 . S
C636 C635 1.414 . S
C636 C637 1.374 . S
C637 H617 0.950 . S
C637 C633 1.385 . S
C637 C636 1.374 . S
C638 C635 1.499 . S
C638 C639 1.373 . S
C638 C640 1.389 . S
C639 H618 0.950 . S
C639 C638 1.373 . S
C639 C655 1.377 . S
C640 C638 1.389 . S
C640 C641 1.524 . S
C640 C654 1.377 . S
C641 C640 1.524 . S
C641 C642 1.397 . S
C641 C646 1.363 . S
C642 H619 0.950 . S
C642 C641 1.397 . S
C642 C643 1.334 . S
C643 H620 0.950 . S
C643 C642 1.334 . S
C643 C644 1.287 . S
C644 C643 1.287 . S
C644 C645 1.524 . S
C644 H663 0.913 . S
C645 H621 0.950 . S
C645 C644 1.524 . S
C645 C646 1.415 . S
C646 H622 0.950 . S
C646 C641 1.363 . S
C646 C645 1.415 . S
C647 H623 0.951 . S
C647 C648 1.366 . S
C647 C649 1.388 . S
C648 C647 1.366 . S
C648 C652 1.385 . S
C649 H624 0.951 . S
C649 C647 1.388 . S
C649 C650 1.366 . S
C650 C649 1.366 . S
C650 C651 1.414 . S
C650 C653 1.499 1_565 S
C651 H625 0.950 . S
C651 C650 1.414 . S
C651 C652 1.374 . S
C652 H626 0.950 . S
C652 C648 1.385 . S
C652 C651 1.374 . S
C653 C650 1.499 1_545 S
C653 C654 1.373 . S
C653 C655 1.389 . S
C654 H627 0.950 . S
C654 C640 1.377 . S
C654 C653 1.373 . S
C655 C639 1.377 . S
C655 C653 1.389 . S
C655 C656 1.524 . S
C656 C655 1.524 . S
C656 C657 1.397 . S
C656 C661 1.363 . S
C657 H628 0.950 . S
C657 C656 1.397 . S
C657 C658 1.334 . S
C658 H629 0.950 . S
C658 C657 1.334 . S
C658 C659 1.287 . S
C659 C658 1.287 . S
C659 C660 1.524 . S
C659 H662 0.999 . S
C660 H630 0.950 . S
C660 C659 1.524 . S
C660 C661 1.415 . S
C661 H631 0.950 . S
C661 C656 1.363 . S
C661 C660 1.415 . S
H662 C659 0.999 . S
H663 C644 0.913 . S
H664 C682 0.951 . S
H665 C684 0.951 . S
H666 C686 0.950 . S
H667 C687 0.950 . S
H668 C689 0.950 . S
H669 C692 0.950 . S
H670 C693 0.950 . S
H671 C695 0.950 . S
H672 C696 0.950 . S
H673 C697 0.951 . S
H674 C699 0.951 . S
H675 C701 0.950 . S
H676 C702 0.950 . S
H677 C704 0.950 . S
H678 C707 0.950 . S
H679 C708 0.950 . S
H680 C710 0.950 . S
H681 C711 0.950 . S
C682 H664 0.951 . S
C682 C683 1.366 . S
C682 C684 1.388 . S
C683 C682 1.366 . S
C683 C687 1.385 . S
C684 H665 0.951 . S
C684 C682 1.388 . S
C684 C685 1.366 . S
C685 C684 1.366 . S
C685 C686 1.414 . S
C685 C688 1.499 . S
C686 H666 0.950 . S
C686 C685 1.414 . S
C686 C687 1.374 . S
C687 H667 0.950 . S
C687 C683 1.385 . S
C687 C686 1.374 . S
C688 C685 1.499 . S
C688 C689 1.373 . S
C688 C690 1.389 . S
C689 H668 0.950 . S
C689 C688 1.373 . S
C689 C705 1.377 . S
C690 C688 1.389 . S
C690 C691 1.524 . S
C690 C704 1.377 . S
C691 C690 1.524 . S
C691 C692 1.397 . S
C691 C696 1.363 . S
C692 H669 0.950 . S
C692 C691 1.397 . S
C692 C693 1.334 . S
C693 H670 0.950 . S
C693 C692 1.334 . S
C693 C694 1.287 . S
C694 C693 1.287 . S
C694 C695 1.524 . S
C694 H713 0.913 . S
C695 H671 0.950 . S
C695 C694 1.524 . S
C695 C696 1.415 . S
C696 H672 0.950 . S
C696 C691 1.363 . S
C696 C695 1.415 . S
C697 H673 0.951 . S
C697 C698 1.366 . S
C697 C699 1.388 . S
C698 C697 1.366 . S
C698 C702 1.385 . S
C699 H674 0.951 . S
C699 C697 1.388 . S
C699 C700 1.366 . S
C700 C699 1.366 . S
C700 C701 1.414 . S
C700 C703 1.499 . S
C701 H675 0.950 . S
C701 C700 1.414 . S
C701 C702 1.374 . S
C702 H676 0.950 . S
C702 C698 1.385 . S
C702 C701 1.374 . S
C703 C700 1.499 . S
C703 C704 1.373 . S
C703 C705 1.389 . S
C704 H677 0.950 . S
C704 C690 1.377 . S
C704 C703 1.373 . S
C705 C689 1.377 . S
C705 C703 1.389 . S
C705 C706 1.524 . S
C706 C705 1.524 . S
C706 C707 1.397 . S
C706 C711 1.363 . S
C707 H678 0.950 . S
C707 C706 1.397 . S
C707 C708 1.334 . S
C708 H679 0.950 . S
C708 C707 1.334 . S
C708 C709 1.287 . S
C709 C708 1.287 . S
C709 C710 1.524 . S
C709 H712 0.999 . S
C710 H680 0.950 . S
C710 C709 1.524 . S
C710 C711 1.415 . S
C711 H681 0.950 . S
C711 C706 1.363 . S
C711 C710 1.415 . S
H712 C709 0.999 . S
H713 C694 0.913 . S
H714 C732 0.951 . S
H715 C734 0.951 . S
H716 C736 0.950 . S
H717 C737 0.950 . S
H718 C739 0.950 . S
H719 C742 0.950 . S
H720 C743 0.950 . S
H721 C745 0.950 . S
H722 C746 0.950 . S
H723 C747 0.951 . S
H724 C749 0.951 . S
H725 C751 0.950 . S
H726 C752 0.950 . S
H727 C754 0.950 . S
H728 C757 0.950 . S
H729 C758 0.950 . S
H730 C760 0.950 . S
H731 C761 0.950 . S
C732 H714 0.951 . S
C732 C733 1.366 . S
C732 C734 1.388 . S
C733 C732 1.366 . S
C733 C737 1.385 . S
C734 H715 0.951 . S
C734 C732 1.388 . S
C734 C735 1.366 . S
C735 C734 1.366 . S
C735 C736 1.414 . S
C735 C738 1.499 . S
C736 H716 0.950 . S
C736 C735 1.414 . S
C736 C737 1.374 . S
C737 H717 0.950 . S
C737 C733 1.385 . S
C737 C736 1.374 . S
C738 C735 1.499 . S
C738 C739 1.373 . S
C738 C740 1.389 . S
C739 H718 0.950 . S
C739 C738 1.373 . S
C739 C755 1.377 . S
C740 C738 1.389 . S
C740 C741 1.524 . S
C740 C754 1.377 . S
C741 C740 1.524 . S
C741 C742 1.397 . S
C741 C746 1.363 . S
C742 H719 0.950 . S
C742 C741 1.397 . S
C742 C743 1.334 . S
C743 H720 0.950 . S
C743 C742 1.334 . S
C743 C744 1.287 . S
C744 C743 1.287 . S
C744 C745 1.524 . S
C744 H763 0.913 . S
C745 H721 0.950 . S
C745 C744 1.524 . S
C745 C746 1.415 . S
C746 H722 0.950 . S
C746 C741 1.363 . S
C746 C745 1.415 . S
C747 H723 0.951 . S
C747 C748 1.366 . S
C747 C749 1.388 . S
C748 C747 1.366 . S
C748 C752 1.385 . S
C749 H724 0.951 . S
C749 C747 1.388 . S
C749 C750 1.366 . S
C750 C749 1.366 . S
C750 C751 1.414 . S
C750 C753 1.499 . S
C751 H725 0.950 . S
C751 C750 1.414 . S
C751 C752 1.374 . S
C752 H726 0.950 . S
C752 C748 1.385 . S
C752 C751 1.374 . S
C753 C750 1.499 . S
C753 C754 1.373 . S
C753 C755 1.389 . S
C754 H727 0.950 . S
C754 C740 1.377 . S
C754 C753 1.373 . S
C755 C739 1.377 . S
C755 C753 1.389 . S
C755 C756 1.524 . S
C756 C755 1.524 . S
C756 C757 1.397 . S
C756 C761 1.363 . S
C757 H728 0.950 . S
C757 C756 1.397 . S
C757 C758 1.334 . S
C758 H729 0.950 . S
C758 C757 1.334 . S
C758 C759 1.287 . S
C759 C758 1.287 . S
C759 C760 1.524 . S
C759 H762 0.999 . S
C760 H730 0.950 . S
C760 C759 1.524 . S
C760 C761 1.415 . S
C761 H731 0.950 . S
C761 C756 1.363 . S
C761 C760 1.415 . S
H762 C759 0.999 . S
H763 C744 0.913 . S
H764 C782 0.951 . S
H765 C784 0.951 . S
H766 C786 0.950 . S
H767 C787 0.950 . S
H768 C789 0.950 . S
H769 C792 0.950 . S
H770 C793 0.950 . S
H771 C795 0.950 . S
H772 C796 0.950 . S
H773 C797 0.951 . S
H774 C799 0.951 . S
H775 C801 0.950 . S
H776 C802 0.950 . S
H777 C804 0.950 . S
H778 C807 0.950 . S
H779 C808 0.950 . S
H780 C810 0.950 . S
H781 C811 0.950 . S
C782 H764 0.951 . S
C782 C783 1.366 . S
C782 C784 1.388 . S
C783 C782 1.366 . S
C783 C787 1.385 . S
C784 H765 0.951 . S
C784 C782 1.388 . S
C784 C785 1.366 . S
C785 C784 1.366 . S
C785 C786 1.414 . S
C785 C788 1.499 . S
C786 H766 0.950 . S
C786 C785 1.414 . S
C786 C787 1.374 . S
C787 H767 0.950 . S
C787 C783 1.385 . S
C787 C786 1.374 . S
C788 C785 1.499 . S
C788 C789 1.373 . S
C788 C790 1.389 . S
C789 H768 0.950 . S
C789 C788 1.373 . S
C789 C805 1.377 . S
C790 C788 1.389 . S
C790 C791 1.524 . S
C790 C804 1.377 . S
C791 C790 1.524 . S
C791 C792 1.397 . S
C791 C796 1.363 . S
C792 H769 0.950 . S
C792 C791 1.397 . S
C792 C793 1.334 . S
C793 H770 0.950 . S
C793 C792 1.334 . S
C793 C794 1.287 . S
C794 C793 1.287 . S
C794 C795 1.524 . S
C794 H813 0.913 . S
C795 H771 0.950 . S
C795 C794 1.524 . S
C795 C796 1.415 . S
C796 H772 0.950 . S
C796 C791 1.363 . S
C796 C795 1.415 . S
C797 H773 0.951 . S
C797 C798 1.366 . S
C797 C799 1.388 . S
C798 C797 1.366 . S
C798 C802 1.385 . S
C799 H774 0.951 . S
C799 C797 1.388 . S
C799 C800 1.366 . S
C800 C799 1.366 . S
C800 C801 1.414 . S
C800 C803 1.499 . S
C801 H775 0.950 . S
C801 C800 1.414 . S
C801 C802 1.374 . S
C802 H776 0.950 . S
C802 C798 1.385 . S
C802 C801 1.374 . S
C803 C800 1.499 . S
C803 C804 1.373 . S
C803 C805 1.389 . S
C804 H777 0.950 . S
C804 C790 1.377 . S
C804 C803 1.373 . S
C805 C789 1.377 . S
C805 C803 1.389 . S
C805 C806 1.524 . S
C806 C805 1.524 . S
C806 C807 1.397 . S
C806 C811 1.363 . S
C807 H778 0.950 . S
C807 C806 1.397 . S
C807 C808 1.334 . S
C808 H779 0.950 . S
C808 C807 1.334 . S
C808 C809 1.287 . S
C809 C808 1.287 . S
C809 C810 1.524 . S
C809 H812 0.999 . S
C810 H780 0.950 . S
C810 C809 1.524 . S
C810 C811 1.415 . S
C811 H781 0.950 . S
C811 C806 1.363 . S
C811 C810 1.415 . S
H812 C809 0.999 . S
H813 C794 0.913 . S
H814 C832 0.951 . S
H815 C834 0.951 . S
H816 C836 0.950 . S
H817 C837 0.950 . S
H818 C839 0.950 . S
H819 C842 0.950 . S
H820 C843 0.950 . S
H821 C845 0.950 . S
H822 C846 0.950 . S
H823 C847 0.951 . S
H824 C849 0.951 . S
H825 C851 0.950 . S
H826 C852 0.950 . S
H827 C854 0.950 . S
H828 C857 0.950 . S
H829 C858 0.950 . S
H830 C860 0.950 . S
H831 C861 0.950 . S
C832 H814 0.951 . S
C832 C833 1.366 . S
C832 C834 1.388 . S
C833 C832 1.366 . S
C833 C837 1.385 . S
C834 H815 0.951 . S
C834 C832 1.388 . S
C834 C835 1.366 . S
C835 C834 1.366 . S
C835 C836 1.414 . S
C835 C838 1.499 . S
C836 H816 0.950 . S
C836 C835 1.414 . S
C836 C837 1.374 . S
C837 H817 0.950 . S
C837 C833 1.385 . S
C837 C836 1.374 . S
C838 C835 1.499 . S
C838 C839 1.373 . S
C838 C840 1.389 . S
C839 H818 0.950 . S
C839 C838 1.373 . S
C839 C855 1.377 . S
C840 C838 1.389 . S
C840 C841 1.524 . S
C840 C854 1.377 . S
C841 C840 1.524 . S
C841 C842 1.397 . S
C841 C846 1.363 . S
C842 H819 0.950 . S
C842 C841 1.397 . S
C842 C843 1.334 . S
C843 H820 0.950 . S
C843 C842 1.334 . S
C843 C844 1.287 . S
C844 C843 1.287 . S
C844 C845 1.524 . S
C844 H863 0.913 . S
C845 H821 0.950 . S
C845 C844 1.524 . S
C845 C846 1.415 . S
C846 H822 0.950 . S
C846 C841 1.363 . S
C846 C845 1.415 . S
C847 H823 0.951 . S
C847 C848 1.366 . S
C847 C849 1.388 . S
C848 C847 1.366 . S
C848 C852 1.385 . S
C849 H824 0.951 . S
C849 C847 1.388 . S
C849 C850 1.366 . S
C850 C849 1.366 . S
C850 C851 1.414 . S
C850 C853 1.499 . S
C851 H825 0.950 . S
C851 C850 1.414 . S
C851 C852 1.374 . S
C852 H826 0.950 . S
C852 C848 1.385 . S
C852 C851 1.374 . S
C853 C850 1.499 . S
C853 C854 1.373 . S
C853 C855 1.389 . S
C854 H827 0.950 . S
C854 C840 1.377 . S
C854 C853 1.373 . S
C855 C839 1.377 . S
C855 C853 1.389 . S
C855 C856 1.524 . S
C856 C855 1.524 . S
C856 C857 1.397 . S
C856 C861 1.363 . S
C857 H828 0.950 . S
C857 C856 1.397 . S
C857 C858 1.334 . S
C858 H829 0.950 . S
C858 C857 1.334 . S
C858 C859 1.287 . S
C859 C858 1.287 . S
C859 C860 1.524 . S
C859 H862 0.999 . S
C860 H830 0.950 . S
C860 C859 1.524 . S
C860 C861 1.415 . S
C861 H831 0.950 . S
C861 C856 1.363 . S
C861 C860 1.415 . S
H862 C859 0.999 . S
H863 C844 0.913 . S
H864 C882 0.951 . S
H865 C884 0.951 . S
H866 C886 0.950 . S
H867 C887 0.950 . S
H868 C889 0.950 . S
H869 C892 0.950 . S
H870 C893 0.950 . S
H871 C895 0.950 . S
H872 C896 0.950 . S
H873 C897 0.951 . S
H874 C899 0.951 . S
H875 C901 0.950 . S
H876 C902 0.950 . S
H877 C904 0.950 . S
H878 C907 0.950 . S
H879 C908 0.950 . S
H880 C910 0.950 . S
H881 C911 0.950 . S
C882 H864 0.951 . S
C882 C883 1.366 . S
C882 C884 1.388 . S
C883 C882 1.366 . S
C883 C887 1.385 . S
C884 H865 0.951 . S
C884 C882 1.388 . S
C884 C885 1.366 . S
C885 C884 1.366 . S
C885 C886 1.414 . S
C885 C888 1.499 . S
C886 H866 0.950 . S
C886 C885 1.414 . S
C886 C887 1.374 . S
C887 H867 0.950 . S
C887 C883 1.385 . S
C887 C886 1.374 . S
C888 C885 1.499 . S
C888 C889 1.373 . S
C888 C890 1.389 . S
C889 H868 0.950 . S
C889 C888 1.373 . S
C889 C905 1.377 . S
C890 C888 1.389 . S
C890 C891 1.524 . S
C890 C904 1.377 . S
C891 C890 1.524 . S
C891 C892 1.397 . S
C891 C896 1.363 . S
C892 H869 0.950 . S
C892 C891 1.397 . S
C892 C893 1.334 . S
C893 H870 0.950 . S
C893 C892 1.334 . S
C893 C894 1.287 . S
C894 C893 1.287 . S
C894 C895 1.524 . S
C894 H913 0.913 . S
C895 H871 0.950 . S
C895 C894 1.524 . S
C895 C896 1.415 . S
C896 H872 0.950 . S
C896 C891 1.363 . S
C896 C895 1.415 . S
C897 H873 0.951 . S
C897 C898 1.366 . S
C897 C899 1.388 . S
C898 C897 1.366 . S
C898 C902 1.385 . S
C899 H874 0.951 . S
C899 C897 1.388 . S
C899 C900 1.366 . S
C900 C899 1.366 . S
C900 C901 1.414 . S
C900 C903 1.499 . S
C901 H875 0.950 . S
C901 C900 1.414 . S
C901 C902 1.374 . S
C902 H876 0.950 . S
C902 C898 1.385 . S
C902 C901 1.374 . S
C903 C900 1.499 . S
C903 C904 1.373 . S
C903 C905 1.389 . S
C904 H877 0.950 . S
C904 C890 1.377 . S
C904 C903 1.373 . S
C905 C889 1.377 . S
C905 C903 1.389 . S
C905 C906 1.524 . S
C906 C905 1.524 . S
C906 C907 1.397 . S
C906 C911 1.363 . S
C907 H878 0.950 . S
C907 C906 1.397 . S
C907 C908 1.334 . S
C908 H879 0.950 . S
C908 C907 1.334 . S
C908 C909 1.287 . S
C909 C908 1.287 . S
C909 C910 1.524 . S
C909 H912 0.999 . S
C910 H880 0.950 . S
C910 C909 1.524 . S
C910 C911 1.415 . S
C911 H881 0.950 . S
C911 C906 1.363 . S
C911 C910 1.415 . S
H912 C909 0.999 . S
H913 C894 0.913 . S
H914 C932 0.951 . S
H915 C934 0.951 . S
H916 C936 0.950 . S
H917 C937 0.950 . S
H918 C939 0.950 . S
H919 C942 0.950 . S
H920 C943 0.950 . S
H921 C945 0.950 . S
H922 C946 0.950 . S
H923 C947 0.951 . S
H924 C949 0.951 . S
H925 C951 0.950 . S
H926 C952 0.950 . S
H927 C954 0.950 . S
H928 C957 0.950 . S
H929 C958 0.950 . S
H930 C960 0.950 . S
H931 C961 0.950 . S
C932 H914 0.951 . S
C932 C933 1.366 . S
C932 C934 1.388 . S
C933 C932 1.366 . S
C933 C937 1.385 . S
C934 H915 0.951 . S
C934 C932 1.388 . S
C934 C935 1.366 . S
C935 C934 1.366 . S
C935 C936 1.414 . S
C935 C938 1.499 . S
C936 H916 0.950 . S
C936 C935 1.414 . S
C936 C937 1.374 . S
C937 H917 0.950 . S
C937 C933 1.385 . S
C937 C936 1.374 . S
C938 C935 1.499 . S
C938 C939 1.373 . S
C938 C940 1.389 . S
C939 H918 0.950 . S
C939 C938 1.373 . S
C939 C955 1.377 . S
C940 C938 1.389 . S
C940 C941 1.524 . S
C940 C954 1.377 . S
C941 C940 1.524 . S
C941 C942 1.397 . S
C941 C946 1.363 . S
C942 H919 0.950 . S
C942 C941 1.397 . S
C942 C943 1.334 . S
C943 H920 0.950 . S
C943 C942 1.334 . S
C943 C944 1.287 . S
C944 C943 1.287 . S
C944 C945 1.524 . S
C944 H963 0.913 . S
C945 H921 0.950 . S
C945 C944 1.524 . S
C945 C946 1.415 . S
C946 H922 0.950 . S
C946 C941 1.363 . S
C946 C945 1.415 . S
C947 H923 0.951 . S
C947 C948 1.366 . S
C947 C949 1.388 . S
C948 C947 1.366 . S
C948 C952 1.385 . S
C949 H924 0.951 . S
C949 C947 1.388 . S
C949 C950 1.366 . S
C950 C949 1.366 . S
C950 C951 1.414 . S
C950 C953 1.499 . S
C951 H925 0.950 . S
C951 C950 1.414 . S
C951 C952 1.374 . S
C952 H926 0.950 . S
C952 C948 1.385 . S
C952 C951 1.374 . S
C953 C950 1.499 . S
C953 C954 1.373 . S
C953 C955 1.389 . S
C954 H927 0.950 . S
C954 C940 1.377 . S
C954 C953 1.373 . S
C955 C939 1.377 . S
C955 C953 1.389 . S
C955 C956 1.524 . S
C956 C955 1.524 . S
C956 C957 1.397 . S
C956 C961 1.363 . S
C957 H928 0.950 . S
C957 C956 1.397 . S
C957 C958 1.334 . S
C958 H929 0.950 . S
C958 C957 1.334 . S
C958 C959 1.287 . S
C959 C958 1.287 . S
C959 C960 1.524 . S
C959 H962 0.999 . S
C960 H930 0.950 . S
C960 C959 1.524 . S
C960 C961 1.415 . S
C961 H931 0.950 . S
C961 C956 1.363 . S
C961 C960 1.415 . S
H962 C959 0.999 . S
H963 C944 0.913 . S
H964 C982 0.951 . S
H965 C984 0.951 . S
H966 C986 0.950 . S
H967 C987 0.950 . S
H968 C989 0.950 . S
H969 C992 0.950 . S
H970 C993 0.950 . S
H971 C995 0.950 . S
H972 C996 0.950 . S
H973 C997 0.951 . S
H974 C999 0.951 . S
H975 C1001 0.950 . S
H976 C1002 0.950 . S
H977 C1004 0.950 . S
H978 C1007 0.950 . S
H979 C1008 0.950 . S
H980 C1010 0.950 . S
H981 C1011 0.950 . S
C982 H964 0.951 . S
C982 C983 1.366 . S
C982 C984 1.388 . S
C983 C982 1.366 . S
C983 C987 1.385 . S
C984 H965 0.951 . S
C984 C982 1.388 . S
C984 C985 1.366 . S
C985 C984 1.366 . S
C985 C986 1.414 . S
C985 C988 1.499 . S
C986 H966 0.950 . S
C986 C985 1.414 . S
C986 C987 1.374 . S
C987 H967 0.950 . S
C987 C983 1.385 . S
C987 C986 1.374 . S
C988 C985 1.499 . S
C988 C989 1.373 . S
C988 C990 1.389 . S
C989 H968 0.950 . S
C989 C988 1.373 . S
C989 C1005 1.377 . S
C990 C988 1.389 . S
C990 C991 1.524 . S
C990 C1004 1.377 . S
C991 C990 1.524 . S
C991 C992 1.397 . S
C991 C996 1.363 . S
C992 H969 0.950 . S
C992 C991 1.397 . S
C992 C993 1.334 . S
C993 H970 0.950 . S
C993 C992 1.334 . S
C993 C994 1.287 . S
C994 C993 1.287 . S
C994 C995 1.524 . S
C994 H1013 0.913 . S
C995 H971 0.950 . S
C995 C994 1.524 . S
C995 C996 1.415 . S
C996 H972 0.950 . S
C996 C991 1.363 . S
C996 C995 1.415 . S
C997 H973 0.951 . S
C997 C998 1.366 . S
C997 C999 1.388 . S
C998 C997 1.366 . S
C998 C1002 1.385 . S
C999 H974 0.951 . S
C999 C997 1.388 . S
C999 C1000 1.366 . S
C1000 C999 1.366 . S
C1000 C1001 1.414 . S
C1000 C1003 1.499 . S
C1001 H975 0.950 . S
C1001 C1000 1.414 . S
C1001 C1002 1.374 . S
C1002 H976 0.950 . S
C1002 C998 1.385 . S
C1002 C1001 1.374 . S
C1003 C1000 1.499 . S
C1003 C1004 1.373 . S
C1003 C1005 1.389 . S
C1004 H977 0.950 . S
C1004 C990 1.377 . S
C1004 C1003 1.373 . S
C1005 C989 1.377 . S
C1005 C1003 1.389 . S
C1005 C1006 1.524 . S
C1006 C1005 1.524 . S
C1006 C1007 1.397 . S
C1006 C1011 1.363 . S
C1007 H978 0.950 . S
C1007 C1006 1.397 . S
C1007 C1008 1.334 . S
C1008 H979 0.950 . S
C1008 C1007 1.334 . S
C1008 C1009 1.287 . S
C1009 C1008 1.287 . S
C1009 C1010 1.524 . S
C1009 H1012 0.999 . S
C1010 H980 0.950 . S
C1010 C1009 1.524 . S
C1010 C1011 1.415 . S
C1011 H981 0.950 . S
C1011 C1006 1.363 . S
C1011 C1010 1.415 . S
H1012 C1009 0.999 . S
H1013 C994 0.913 . S
H1014 C1032 0.951 . S
H1015 C1034 0.951 . S
H1016 C1036 0.950 . S
H1017 C1037 0.950 . S
H1018 C1039 0.950 . S
H1019 C1042 0.950 . S
H1020 C1043 0.950 . S
H1021 C1045 0.950 . S
H1022 C1046 0.950 . S
H1023 C1047 0.951 . S
H1024 C1049 0.951 . S
H1025 C1051 0.950 . S
H1026 C1052 0.950 . S
H1027 C1054 0.950 . S
H1028 C1057 0.950 . S
H1029 C1058 0.950 . S
H1030 C1060 0.950 . S
H1031 C1061 0.950 . S
C1032 H1014 0.951 . S
C1032 C1033 1.366 . S
C1032 C1034 1.388 . S
C1033 C1032 1.366 . S
C1033 C1037 1.385 . S
C1034 H1015 0.951 . S
C1034 C1032 1.388 . S
C1034 C1035 1.366 . S
C1035 C1034 1.366 . S
C1035 C1036 1.414 . S
C1035 C1038 1.499 . S
C1036 H1016 0.950 . S
C1036 C1035 1.414 . S
C1036 C1037 1.374 . S
C1037 H1017 0.950 . S
C1037 C1033 1.385 . S
C1037 C1036 1.374 . S
C1038 C1035 1.499 . S
C1038 C1039 1.373 . S
C1038 C1040 1.389 . S
C1039 H1018 0.950 . S
C1039 C1038 1.373 . S
C1039 C1055 1.377 . S
C1040 C1038 1.389 . S
C1040 C1041 1.524 . S
C1040 C1054 1.377 . S
C1041 C1040 1.524 . S
C1041 C1042 1.397 . S
C1041 C1046 1.363 . S
C1042 H1019 0.950 . S
C1042 C1041 1.397 . S
C1042 C1043 1.334 . S
C1043 H1020 0.950 . S
C1043 C1042 1.334 . S
C1043 C1044 1.287 . S
C1044 C1043 1.287 . S
C1044 C1045 1.524 . S
C1044 H1063 0.913 . S
C1045 H1021 0.950 . S
C1045 C1044 1.524 . S
C1045 C1046 1.415 . S
C1046 H1022 0.950 . S
C1046 C1041 1.363 . S
C1046 C1045 1.415 . S
C1047 H1023 0.951 . S
C1047 C1048 1.366 . S
C1047 C1049 1.388 . S
C1048 C1047 1.366 . S
C1048 C1052 1.385 . S
C1049 H1024 0.951 . S
C1049 C1047 1.388 . S
C1049 C1050 1.366 . S
C1050 C1049 1.366 . S
C1050 C1051 1.414 . S
C1050 C1053 1.499 . S
C1051 H1025 0.950 . S
C1051 C1050 1.414 . S
C1051 C1052 1.374 . S
C1052 H1026 0.950 . S
C1052 C1048 1.385 . S
C1052 C1051 1.374 . S
C1053 C1050 1.499 . S
C1053 C1054 1.373 . S
C1053 C1055 1.389 . S
C1054 H1027 0.950 . S
C1054 C1040 1.377 . S
C1054 C1053 1.373 . S
C1055 C1039 1.377 . S
C1055 C1053 1.389 . S
C1055 C1056 1.524 . S
C1056 C1055 1.524 . S
C1056 C1057 1.397 . S
C1056 C1061 1.363 . S
C1057 H1028 0.950 . S
C1057 C1056 1.397 . S
C1057 C1058 1.334 . S
C1058 H1029 0.950 . S
C1058 C1057 1.334 . S
C1058 C1059 1.287 . S
C1059 C1058 1.287 . S
C1059 C1060 1.524 . S
C1059 H1062 0.999 . S
C1060 H1030 0.950 . S
C1060 C1059 1.524 . S
C1060 C1061 1.415 . S
C1061 H1031 0.950 . S
C1061 C1056 1.363 . S
C1061 C1060 1.415 . S
H1062 C1059 0.999 . S
H1063 C1044 0.913 . S
H1064 C1082 0.951 . S
H1065 C1084 0.951 . S
H1066 C1086 0.950 . S
H1067 C1087 0.950 . S
H1068 C1089 0.950 . S
H1069 C1092 0.950 . S
H1070 C1093 0.950 . S
H1071 C1095 0.950 . S
H1072 C1096 0.950 . S
H1073 C1097 0.951 . S
H1074 C1099 0.951 . S
H1075 C1101 0.950 . S
H1076 C1102 0.950 . S
H1077 C1104 0.950 . S
H1078 C1107 0.950 . S
H1079 C1108 0.950 . S
H1080 C1110 0.950 . S
H1081 C1111 0.950 . S
C1082 H1064 0.951 . S
C1082 C1083 1.366 . S
C1082 C1084 1.388 . S
C1083 C1082 1.366 . S
C1083 C1087 1.385 . S
C1084 H1065 0.951 . S
C1084 C1082 1.388 . S
C1084 C1085 1.366 . S
C1085 C1084 1.366 . S
C1085 C1086 1.414 . S
C1085 C1088 1.499 . S
C1086 H1066 0.950 . S
C1086 C1085 1.414 . S
C1086 C1087 1.374 . S
C1087 H1067 0.950 . S
C1087 C1083 1.385 . S
C1087 C1086 1.374 . S
C1088 C1085 1.499 . S
C1088 C1089 1.373 1_554 S
C1088 C1090 1.389 . S
C1089 H1068 0.950 . S
C1089 C1088 1.373 1_556 S
C1089 C1105 1.377 1_655 S
C1090 C1088 1.389 . S
C1090 C1091 1.524 . S
C1090 C1104 1.377 1_655 S
C1091 C1090 1.524 . S
C1091 C1092 1.397 . S
C1091 C1096 1.363 . S
C1092 H1069 0.950 . S
C1092 C1091 1.397 . S
C1092 C1093 1.334 . S
C1093 H1070 0.950 . S
C1093 C1092 1.334 . S
C1093 C1094 1.287 . S
C1094 C1093 1.287 . S
C1094 C1095 1.524 . S
C1094 H1113 0.913 . S
C1095 H1071 0.950 . S
C1095 C1094 1.524 . S
C1095 C1096 1.415 . S
C1096 H1072 0.950 . S
C1096 C1091 1.363 . S
C1096 C1095 1.415 . S
C1097 H1073 0.951 . S
C1097 C1098 1.366 . S
C1097 C1099 1.388 . S
C1098 C1097 1.366 . S
C1098 C1102 1.385 . S
C1099 H1074 0.951 . S
C1099 C1097 1.388 . S
C1099 C1100 1.366 . S
C1100 C1099 1.366 . S
C1100 C1101 1.414 . S
C1100 C1103 1.499 . S
C1101 H1075 0.950 . S
C1101 C1100 1.414 . S
C1101 C1102 1.374 . S
C1102 H1076 0.950 . S
C1102 C1098 1.385 . S
C1102 C1101 1.374 . S
C1103 C1100 1.499 . S
C1103 C1104 1.373 . S
C1103 C1105 1.389 1_554 S
C1104 H1077 0.950 . S
C1104 C1090 1.377 1_455 S
C1104 C1103 1.373 . S
C1105 C1089 1.377 1_455 S
C1105 C1103 1.389 1_556 S
C1105 C1106 1.524 . S
C1106 C1105 1.524 . S
C1106 C1107 1.397 . S
C1106 C1111 1.363 . S
C1107 H1078 0.950 . S
C1107 C1106 1.397 . S
C1107 C1108 1.334 . S
C1108 H1079 0.950 . S
C1108 C1107 1.334 . S
C1108 C1109 1.287 . S
C1109 C1108 1.287 . S
C1109 C1110 1.524 . S
C1109 H1112 0.999 . S
C1110 H1080 0.950 . S
C1110 C1109 1.524 . S
C1110 C1111 1.415 . S
C1111 H1081 0.950 . S
C1111 C1106 1.363 . S
C1111 C1110 1.415 . S
H1112 C1109 0.999 . S
H1113 C1094 0.913 . S
H1114 C1132 0.951 . S
H1115 C1134 0.951 . S
H1116 C1136 0.950 . S
H1117 C1137 0.950 . S
H1118 C1139 0.950 . S
H1119 C1142 0.950 . S
H1120 C1143 0.950 . S
H1121 C1145 0.950 . S
H1122 C1146 0.950 . S
H1123 C1147 0.951 . S
H1124 C1149 0.951 . S
H1125 C1151 0.950 . S
H1126 C1152 0.950 . S
H1127 C1154 0.950 . S
H1128 C1157 0.950 . S
H1129 C1158 0.950 . S
H1130 C1160 0.950 . S
H1131 C1161 0.950 . S
C1132 H1114 0.951 . S
C1132 C1133 1.366 . S
C1132 C1134 1.388 . S
C1133 C1132 1.366 . S
C1133 C1137 1.385 . S
C1134 H1115 0.951 . S
C1134 C1132 1.388 . S
C1134 C1135 1.366 . S
C1135 C1134 1.366 . S
C1135 C1136 1.414 . S
C1135 C1138 1.499 . S
C1136 H1116 0.950 . S
C1136 C1135 1.414 . S
C1136 C1137 1.374 . S
C1137 H1117 0.950 . S
C1137 C1133 1.385 . S
C1137 C1136 1.374 . S
C1138 C1135 1.499 . S
C1138 C1139 1.373 . S
C1138 C1140 1.389 1_554 S
C1139 H1118 0.950 . S
C1139 C1138 1.373 . S
C1139 C1155 1.377 1_545 S
C1140 C1138 1.389 1_556 S
C1140 C1141 1.524 . S
C1140 C1154 1.377 1_545 S
C1141 C1140 1.524 . S
C1141 C1142 1.397 . S
C1141 C1146 1.363 1_545 S
C1142 H1119 0.950 . S
C1142 C1141 1.397 . S
C1142 C1143 1.334 . S
C1143 H1120 0.950 . S
C1143 C1142 1.334 . S
C1143 C1144 1.287 . S
C1144 C1143 1.287 . S
C1144 C1145 1.524 1_545 S
C1144 H1163 0.913 . S
C1145 H1121 0.950 . S
C1145 C1144 1.524 1_565 S
C1145 C1146 1.415 . S
C1146 H1122 0.950 . S
C1146 C1141 1.363 1_565 S
C1146 C1145 1.415 . S
C1147 H1123 0.951 . S
C1147 C1148 1.366 . S
C1147 C1149 1.388 . S
C1148 C1147 1.366 . S
C1148 C1152 1.385 . S
C1149 H1124 0.951 . S
C1149 C1147 1.388 . S
C1149 C1150 1.366 . S
C1150 C1149 1.366 . S
C1150 C1151 1.414 . S
C1150 C1153 1.499 . S
C1151 H1125 0.950 . S
C1151 C1150 1.414 . S
C1151 C1152 1.374 . S
C1152 H1126 0.950 . S
C1152 C1148 1.385 . S
C1152 C1151 1.374 . S
C1153 C1150 1.499 . S
C1153 C1154 1.373 1_554 S
C1153 C1155 1.389 . S
C1154 H1127 0.950 . S
C1154 C1140 1.377 1_565 S
C1154 C1153 1.373 1_556 S
C1155 C1139 1.377 1_565 S
C1155 C1153 1.389 . S
C1155 C1156 1.524 . S
C1156 C1155 1.524 . S
C1156 C1157 1.397 . S
C1156 C1161 1.363 1_565 S
C1157 H1128 0.950 . S
C1157 C1156 1.397 . S
C1157 C1158 1.334 . S
C1158 H1129 0.950 . S
C1158 C1157 1.334 . S
C1158 C1159 1.287 . S
C1159 C1158 1.287 . S
C1159 C1160 1.524 1_565 S
C1159 H1162 0.999 . S
C1160 H1130 0.950 . S
C1160 C1159 1.524 1_545 S
C1160 C1161 1.415 . S
C1161 H1131 0.950 . S
C1161 C1156 1.363 1_545 S
C1161 C1160 1.415 . S
H1162 C1159 0.999 . S
H1163 C1144 0.913 . S
H1164 C1182 0.951 . S
H1165 C1184 0.951 . S
H1166 C1186 0.950 . S
H1167 C1187 0.950 . S
H1168 C1189 0.950 . S
H1169 C1192 0.950 . S
H1170 C1193 0.950 . S
H1171 C1195 0.950 . S
H1172 C1196 0.950 . S
H1173 C1197 0.951 . S
H1174 C1199 0.951 . S
H1175 C1201 0.950 . S
H1176 C1202 0.950 . S
H1177 C1204 0.950 . S
H1178 C1207 0.950 . S
H1179 C1208 0.950 . S
H1180 C1210 0.950 . S
H1181 C1211 0.950 . S
C1182 H1164 0.951 . S
C1182 C1183 1.366 . S
C1182 C1184 1.388 . S
C1183 C1182 1.366 . S
C1183 C1187 1.385 . S
C1184 H1165 0.951 . S
C1184 C1182 1.388 . S
C1184 C1185 1.366 . S
C1185 C1184 1.366 . S
C1185 C1186 1.414 . S
C1185 C1188 1.499 . S
C1186 H1166 0.950 . S
C1186 C1185 1.414 . S
C1186 C1187 1.374 . S
C1187 H1167 0.950 . S
C1187 C1183 1.385 . S
C1187 C1186 1.374 . S
C1188 C1185 1.499 . S
C1188 C1189 1.373 . S
C1188 C1190 1.389 1_545 S
C1189 H1168 0.950 . S
C1189 C1188 1.373 . S
C1189 C1205 1.377 . S
C1190 C1188 1.389 1_565 S
C1190 C1191 1.524 . S
C1190 C1204 1.377 . S
C1191 C1190 1.524 . S
C1191 C1192 1.397 1_565 S
C1191 C1196 1.363 . S
C1192 H1169 0.950 . S
C1192 C1191 1.397 1_545 S
C1192 C1193 1.334 . S
C1193 H1170 0.950 . S
C1193 C1192 1.334 . S
C1193 C1194 1.287 1_545 S
C1194 C1193 1.287 1_565 S
C1194 C1195 1.524 . S
C1194 H1213 0.913 . S
C1195 H1171 0.950 . S
C1195 C1194 1.524 . S
C1195 C1196 1.415 . S
C1196 H1172 0.950 . S
C1196 C1191 1.363 . S
C1196 C1195 1.415 . S
C1197 H1173 0.951 . S
C1197 C1198 1.366 . S
C1197 C1199 1.388 . S
C1198 C1197 1.366 . S
C1198 C1202 1.385 . S
C1199 H1174 0.951 . S
C1199 C1197 1.388 . S
C1199 C1200 1.366 . S
C1200 C1199 1.366 . S
C1200 C1201 1.414 . S
C1200 C1203 1.499 . S
C1201 H1175 0.950 . S
C1201 C1200 1.414 . S
C1201 C1202 1.374 . S
C1202 H1176 0.950 . S
C1202 C1198 1.385 . S
C1202 C1201 1.374 . S
C1203 C1200 1.499 . S
C1203 C1204 1.373 . S
C1203 C1205 1.389 1_565 S
C1204 H1177 0.950 . S
C1204 C1190 1.377 . S
C1204 C1203 1.373 . S
C1205 C1189 1.377 . S
C1205 C1203 1.389 1_545 S
C1205 C1206 1.524 . S
C1206 C1205 1.524 . S
C1206 C1207 1.397 1_545 S
C1206 C1211 1.363 . S
C1207 H1178 0.950 . S
C1207 C1206 1.397 1_565 S
C1207 C1208 1.334 . S
C1208 H1179 0.950 . S
C1208 C1207 1.334 . S
C1208 C1209 1.287 1_565 S
C1209 C1208 1.287 1_545 S
C1209 C1210 1.524 . S
C1209 H1212 0.999 . S
C1210 H1180 0.950 . S
C1210 C1209 1.524 . S
C1210 C1211 1.415 . S
C1211 H1181 0.950 . S
C1211 C1206 1.363 . S
C1211 C1210 1.415 . S
H1212 C1209 0.999 . S
H1213 C1194 0.913 . S
H1214 C1232 0.951 . S
H1215 C1234 0.951 . S
H1216 C1236 0.950 . S
H1217 C1237 0.950 . S
H1218 C1239 0.950 . S
H1219 C1242 0.950 . S
H1220 C1243 0.950 . S
H1221 C1245 0.950 . S
H1222 C1246 0.950 . S
H1223 C1247 0.951 . S
H1224 C1249 0.951 . S
H1225 C1251 0.950 . S
H1226 C1252 0.950 . S
H1227 C1254 0.950 . S
H1228 C1257 0.950 . S
H1229 C1258 0.950 . S
H1230 C1260 0.950 . S
H1231 C1261 0.950 . S
C1232 H1214 0.951 . S
C1232 C1233 1.366 . S
C1232 C1234 1.388 . S
C1233 C1232 1.366 . S
C1233 C1237 1.385 . S
C1234 H1215 0.951 . S
C1234 C1232 1.388 . S
C1234 C1235 1.366 . S
C1235 C1234 1.366 . S
C1235 C1236 1.414 . S
C1235 C1238 1.499 . S
C1236 H1216 0.950 . S
C1236 C1235 1.414 . S
C1236 C1237 1.374 . S
C1237 H1217 0.950 . S
C1237 C1233 1.385 . S
C1237 C1236 1.374 . S
C1238 C1235 1.499 . S
C1238 C1239 1.373 . S
C1238 C1240 1.389 . S
C1239 H1218 0.950 . S
C1239 C1238 1.373 . S
C1239 C1255 1.377 1_455 S
C1240 C1238 1.389 . S
C1240 C1241 1.524 . S
C1240 C1254 1.377 1_455 S
C1241 C1240 1.524 . S
C1241 C1242 1.397 . S
C1241 C1246 1.363 . S
C1242 H1219 0.950 . S
C1242 C1241 1.397 . S
C1242 C1243 1.334 . S
C1243 H1220 0.950 . S
C1243 C1242 1.334 . S
C1243 C1244 1.287 . S
C1244 C1243 1.287 . S
C1244 C1245 1.524 . S
C1244 H1263 0.913 . S
C1245 H1221 0.950 . S
C1245 C1244 1.524 . S
C1245 C1246 1.415 . S
C1246 H1222 0.950 . S
C1246 C1241 1.363 . S
C1246 C1245 1.415 . S
C1247 H1223 0.951 . S
C1247 C1248 1.366 . S
C1247 C1249 1.388 . S
C1248 C1247 1.366 . S
C1248 C1252 1.385 . S
C1249 H1224 0.951 . S
C1249 C1247 1.388 . S
C1249 C1250 1.366 . S
C1250 C1249 1.366 . S
C1250 C1251 1.414 . S
C1250 C1253 1.499 . S
C1251 H1225 0.950 . S
C1251 C1250 1.414 . S
C1251 C1252 1.374 . S
C1252 H1226 0.950 . S
C1252 C1248 1.385 . S
C1252 C1251 1.374 . S
C1253 C1250 1.499 . S
C1253 C1254 1.373 . S
C1253 C1255 1.389 . S
C1254 H1227 0.950 . S
C1254 C1240 1.377 1_655 S
C1254 C1253 1.373 . S
C1255 C1239 1.377 1_655 S
C1255 C1253 1.389 . S
C1255 C1256 1.524 . S
C1256 C1255 1.524 . S
C1256 C1257 1.397 . S
C1256 C1261 1.363 . S
C1257 H1228 0.950 . S
C1257 C1256 1.397 . S
C1257 C1258 1.334 . S
C1258 H1229 0.950 . S
C1258 C1257 1.334 . S
C1258 C1259 1.287 . S
C1259 C1258 1.287 . S
C1259 C1260 1.524 . S
C1259 H1262 0.999 . S
C1260 H1230 0.950 . S
C1260 C1259 1.524 . S
C1260 C1261 1.415 . S
C1261 H1231 0.950 . S
C1261 C1256 1.363 . S
C1261 C1260 1.415 . S
H1262 C1259 0.999 . S
H1263 C1244 0.913 . S
C283 C51 0.509 . S
C298 N2 0.547 . S
C333 N35 0.548 . S
C348 C84 0.509 . S
C383 N68 0.549 . S
C398 C117 0.509 . S
C433 C18 0.509 . S
C448 N101 0.549 . S
C483 C183 0.509 . S
C498 N134 0.548 . S
C533 C216 0.509 . S
C548 N167 0.548 . S
C583 N200 0.547 . S
C598 C249 0.509 . S
C633 N233 0.549 . S
C648 C150 0.509 . S
C683 C219 1.471 . S
C698 C7 1.457 . S
C733 C40 1.461 . S
C748 C252 1.468 . S
C783 C73 1.460 . S
C798 C153 1.468 . S
C833 C106 1.460 . S
C848 C186 1.467 . S
C883 C139 1.461 . S
C898 C87 1.474 . S
C933 C172 1.461 . S
C948 C120 1.474 . S
C983 C205 1.460 . S
C998 C21 1.473 . S
C1033 C54 1.470 . S
C1048 C238 1.463 . S
C1083 N79 2.409 . S
C1098 N13 2.409 . S
C1133 N46 2.409 . S
C1148 N112 2.409 . S
C1183 N211 2.409 . S
C1198 N145 2.409 . S
C1233 N178 2.409 . S
C1248 N244 2.409 . S
