# Generated by pormake.
# Topology fnk, (5)-cn, num edge types: 1
# Building blocks:
#     Node 0, Type 0, BuildingBlock: XOMCOT_clean_sbu_1, # of connection points: 5
#     Node 1, Type 0, BuildingBlock: XOMCOT_clean_sbu_1, # of connection points: 5
#     Node 2, Type 0, BuildingBlock: XOMCOT_clean_sbu_1, # of connection points: 5
#     Node 3, Type 0, BuildingBlock: XOMCOT_clean_sbu_1, # of connection points: 5
#     Node 4, Type 0, BuildingBlock: XOMCOT_clean_sbu_1, # of connection points: 5
#     Node 5, Type 0, BuildingBlock: XOMCOT_clean_sbu_1, # of connection points: 5
#     Node 6, Type 0, BuildingBlock: XOMCOT_clean_sbu_1, # of connection points: 5
#     Node 7, Type 0, BuildingBlock: XOMCOT_clean_sbu_1, # of connection points: 5
#     Node 8, Type 0, BuildingBlock: XOMCOT_clean_sbu_1, # of connection points: 5
#     Node 9, Type 0, BuildingBlock: XOMCOT_clean_sbu_1, # of connection points: 5
#     Node 10, Type 0, BuildingBlock: XOMCOT_clean_sbu_1, # of connection points: 5
#     Node 11, Type 0, BuildingBlock: XOMCOT_clean_sbu_1, # of connection points: 5
#     Node 12, Type 0, BuildingBlock: XOMCOT_clean_sbu_1, # of connection points: 5
#     Node 13, Type 0, BuildingBlock: XOMCOT_clean_sbu_1, # of connection points: 5
#     Node 14, Type 0, BuildingBlock: XOMCOT_clean_sbu_1, # of connection points: 5
#     Node 15, Type 0, BuildingBlock: XOMCOT_clean_sbu_1, # of connection points: 5
#     Edge 16, Type (0, 0), BuildingBlock: XIVTED_clean_linker_0, # of connection points: 2
#     Edge 17, Type (0, 0), BuildingBlock: XIVTED_clean_linker_0, # of connection points: 2
#     Edge 18, Type (0, 0), BuildingBlock: XIVTED_clean_linker_0, # of connection points: 2
#     Edge 19, Type (0, 0), BuildingBlock: XIVTED_clean_linker_0, # of connection points: 2
#     Edge 20, Type (0, 0), BuildingBlock: XIVTED_clean_linker_0, # of connection points: 2
#     Edge 21, Type (0, 0), BuildingBlock: XIVTED_clean_linker_0, # of connection points: 2
#     Edge 22, Type (0, 0), BuildingBlock: XIVTED_clean_linker_0, # of connection points: 2
#     Edge 23, Type (0, 0), BuildingBlock: XIVTED_clean_linker_0, # of connection points: 2
#     Edge 24, Type (0, 0), BuildingBlock: XIVTED_clean_linker_0, # of connection points: 2
#     Edge 25, Type (0, 0), BuildingBlock: XIVTED_clean_linker_0, # of connection points: 2
#     Edge 26, Type (0, 0), BuildingBlock: XIVTED_clean_linker_0, # of connection points: 2
#     Edge 27, Type (0, 0), BuildingBlock: XIVTED_clean_linker_0, # of connection points: 2
#     Edge 28, Type (0, 0), BuildingBlock: XIVTED_clean_linker_0, # of connection points: 2
#     Edge 29, Type (0, 0), BuildingBlock: XIVTED_clean_linker_0, # of connection points: 2
#     Edge 30, Type (0, 0), BuildingBlock: XIVTED_clean_linker_0, # of connection points: 2
#     Edge 31, Type (0, 0), BuildingBlock: XIVTED_clean_linker_0, # of connection points: 2
#     Edge 32, Type (0, 0), BuildingBlock: XIVTED_clean_linker_0, # of connection points: 2
#     Edge 33, Type (0, 0), BuildingBlock: XIVTED_clean_linker_0, # of connection points: 2
#     Edge 34, Type (0, 0), BuildingBlock: XIVTED_clean_linker_0, # of connection points: 2
#     Edge 35, Type (0, 0), BuildingBlock: XIVTED_clean_linker_0, # of connection points: 2
#     Edge 36, Type (0, 0), BuildingBlock: XIVTED_clean_linker_0, # of connection points: 2
#     Edge 37, Type (0, 0), BuildingBlock: XIVTED_clean_linker_0, # of connection points: 2
#     Edge 38, Type (0, 0), BuildingBlock: XIVTED_clean_linker_0, # of connection points: 2
#     Edge 39, Type (0, 0), BuildingBlock: XIVTED_clean_linker_0, # of connection points: 2
#     Edge 40, Type (0, 0), BuildingBlock: XIVTED_clean_linker_0, # of connection points: 2
#     Edge 41, Type (0, 0), BuildingBlock: XIVTED_clean_linker_0, # of connection points: 2
#     Edge 42, Type (0, 0), BuildingBlock: XIVTED_clean_linker_0, # of connection points: 2
#     Edge 43, Type (0, 0), BuildingBlock: XIVTED_clean_linker_0, # of connection points: 2
#     Edge 44, Type (0, 0), BuildingBlock: XIVTED_clean_linker_0, # of connection points: 2
#     Edge 45, Type (0, 0), BuildingBlock: XIVTED_clean_linker_0, # of connection points: 2
#     Edge 46, Type (0, 0), BuildingBlock: XIVTED_clean_linker_0, # of connection points: 2
#     Edge 47, Type (0, 0), BuildingBlock: XIVTED_clean_linker_0, # of connection points: 2
#     Edge 48, Type (0, 0), BuildingBlock: XIVTED_clean_linker_0, # of connection points: 2
#     Edge 49, Type (0, 0), BuildingBlock: XIVTED_clean_linker_0, # of connection points: 2
#     Edge 50, Type (0, 0), BuildingBlock: XIVTED_clean_linker_0, # of connection points: 2
#     Edge 51, Type (0, 0), BuildingBlock: XIVTED_clean_linker_0, # of connection points: 2
#     Edge 52, Type (0, 0), BuildingBlock: XIVTED_clean_linker_0, # of connection points: 2
#     Edge 53, Type (0, 0), BuildingBlock: XIVTED_clean_linker_0, # of connection points: 2
#     Edge 54, Type (0, 0), BuildingBlock: XIVTED_clean_linker_0, # of connection points: 2
#     Edge 55, Type (0, 0), BuildingBlock: XIVTED_clean_linker_0, # of connection points: 2
# Relax obj value: 0.624
# Max RMSD: 0.261
# Mean RMSD: 0.261
data_MOF--net-fnk--node1-XOMCOT_clean_sbu_1--edge1-XIVTED_clean_linker_0
_symmetry_space_group_name_H-M    P1
_symmetry_Int_Tables_number       1
_symmetry_cell_setting            triclinic
loop_
_symmetry_equiv_pos_as_xyz
'x, y, z'
_cell_length_a     45.334554
_cell_length_b     45.27159
_cell_length_c     47.618305
_cell_angle_alpha  89.914485
_cell_angle_beta   90.157385
_cell_angle_gamma 90.160154
loop_
_atom_site_label
_atom_site_type_symbol
_atom_site_fract_x
_atom_site_fract_y
_atom_site_fract_z
_atom_type_partial_charge
C0 C 0.186 0.34664 0.13935 0.0
C1 C 0.20612 0.3286 0.15266 0.0
N2 N 0.21554 0.34238 0.17607 0.0
N3 N 0.18291 0.37179 0.15418 0.0
C4 C 0.20141 0.36857 0.17633 0.0
H5 H 0.17368 0.34125 0.12057 0.0
Co6 Co 0.15604 0.40223 0.14681 0.0
C7 C 0.1704 0.44984 0.18654 0.0
O8 O 0.14189 0.45341 0.18974 0.0
N9 N 0.12918 0.43359 0.13873 0.0
C10 C 0.11463 0.47708 0.12159 0.0
C11 C 0.13813 0.45858 0.12559 0.0
C12 C 0.09986 0.43784 0.14288 0.0
N13 N 0.09064 0.46407 0.13256 0.0
O14 O 0.17633 0.41102 0.11208 0.0
H15 H 0.1606 0.46334 0.11949 0.0
H16 H 0.08533 0.42226 0.15308 0.0
O17 O 0.18017 0.4299 0.16987 0.0
C18 C 0.15951 0.3982 0.09413 0.0
O19 O 0.13639 0.38362 0.10322 0.0
N20 N 0.13403 0.38939 0.17747 0.0
C21 C 0.10205 0.35187 0.21256 0.0
C22 C 0.12532 0.36912 0.22335 0.0
C23 C 0.14126 0.38773 0.20533 0.0
C24 C 0.11152 0.37284 0.16698 0.0
C25 C 0.09496 0.35458 0.18405 0.0
H26 H 0.16016 0.39934 0.21358 0.0
H27 H 0.10665 0.37328 0.14482 0.0
H28 H 0.20411 0.38478 0.19277 0.0
H29 H 0.21221 0.30647 0.14637 0.0
H30 H 0.11517 0.49869 0.11183 0.0
H31 H 0.13167 0.36766 0.24524 0.0
H32 H 0.07663 0.34275 0.1747 0.0
C33 C 0.69576 0.15342 0.17004 0.0
C34 C 0.71783 0.17279 0.17751 0.0
N35 N 0.70543 0.19759 0.18774 0.0
N36 N 0.66939 0.16568 0.17569 0.0
C37 C 0.676 0.19311 0.18522 0.0
H38 H 0.69883 0.13071 0.16372 0.0
Co39 Co 0.63399 0.14371 0.17727 0.0
C40 C 0.61187 0.1901 0.21968 0.0
O41 O 0.63383 0.18721 0.23731 0.0
N42 N 0.59749 0.1223 0.17866 0.0
C43 C 0.5561 0.10375 0.19668 0.0
C44 C 0.57896 0.12309 0.20083 0.0
C45 C 0.58513 0.10196 0.16121 0.0
N46 N 0.55992 0.09023 0.17182 0.0
O47 O 0.62428 0.15803 0.14028 0.0
H48 H 0.58263 0.13565 0.2198 0.0
H49 H 0.59493 0.09504 0.14165 0.0
O50 O 0.61197 0.17609 0.19627 0.0
C51 C 0.63636 0.13803 0.12513 0.0
O52 O 0.64854 0.11543 0.13804 0.0
N53 N 0.64747 0.12482 0.21124 0.0
C54 C 0.68522 0.08691 0.2405 0.0
C55 C 0.68772 0.11732 0.24401 0.0
C56 C 0.66875 0.13597 0.22902 0.0
C57 C 0.6439 0.09481 0.20976 0.0
C58 C 0.66199 0.07569 0.22454 0.0
H59 H 0.67464 0.15889 0.22906 0.0
H60 H 0.62975 0.08469 0.19439 0.0
H61 H 0.6597 0.20865 0.19234 0.0
H62 H 0.74111 0.16761 0.17807 0.0
H63 H 0.53895 0.09877 0.21175 0.0
H64 H 0.70583 0.12663 0.25601 0.0
H65 H 0.65952 0.05209 0.22138 0.0
C66 C 0.80652 0.68143 0.14997 0.0
C67 C 0.7908 0.70034 0.16668 0.0
N68 N 0.783 0.68577 0.19014 0.0
N69 N 0.80883 0.65492 0.16282 0.0
C70 C 0.79398 0.65823 0.18728 0.0
H71 H 0.8168 0.68743 0.13036 0.0
Co72 Co 0.8328 0.62342 0.15125 0.0
C73 C 0.784 0.57765 0.16212 0.0
O74 O 0.77315 0.57534 0.13661 0.0
N75 N 0.85656 0.59177 0.13959 0.0
C76 C 0.87058 0.55082 0.11768 0.0
C77 C 0.84743 0.56948 0.12283 0.0
C78 C 0.88546 0.5861 0.14439 0.0
N79 N 0.8944 0.56121 0.13137 0.0
O80 O 0.81534 0.62431 0.11439 0.0
H81 H 0.82541 0.56711 0.11444 0.0
H82 H 0.89981 0.60014 0.15677 0.0
O83 O 0.80515 0.59546 0.16702 0.0
C84 C 0.83377 0.63991 0.10036 0.0
O85 O 0.8564 0.65148 0.11377 0.0
N86 N 0.85253 0.62459 0.18528 0.0
C87 C 0.89597 0.62654 0.22629 0.0
C88 C 0.87678 0.60222 0.22453 0.0
C89 C 0.85532 0.60149 0.20353 0.0
C90 C 0.8693 0.64934 0.18815 0.0
C91 C 0.89112 0.65086 0.20859 0.0
H92 H 0.84304 0.58131 0.20042 0.0
H93 H 0.86731 0.66705 0.17299 0.0
H94 H 0.79298 0.64146 0.20349 0.0
H95 H 0.78631 0.72339 0.16238 0.0
H96 H 0.86994 0.531 0.10499 0.0
H97 H 0.87967 0.58306 0.23788 0.0
H98 H 0.90567 0.66987 0.20871 0.0
C99 C 0.32788 0.82778 0.15006 0.0
C100 C 0.30799 0.80748 0.16016 0.0
N101 N 0.32305 0.78387 0.16943 0.0
N102 N 0.35571 0.8178 0.15374 0.0
C103 C 0.35165 0.79005 0.16391 0.0
H104 H 0.32222 0.84916 0.14152 0.0
Co105 Co 0.38967 0.84114 0.14462 0.0
C106 C 0.42015 0.79692 0.18109 0.0
O107 O 0.39911 0.80055 0.19971 0.0
N108 N 0.4223 0.86442 0.13425 0.0
C109 C 0.46631 0.87804 0.11845 0.0
C110 C 0.44696 0.85481 0.12151 0.0
C111 C 0.42687 0.89369 0.13816 0.0
N112 N 0.45377 0.90259 0.12907 0.0
O113 O 0.38659 0.82747 0.10646 0.0
H114 H 0.45085 0.83219 0.11531 0.0
H115 H 0.41087 0.90798 0.14801 0.0
O116 O 0.41777 0.80946 0.15689 0.0
C117 C 0.37166 0.84792 0.09445 0.0
O118 O 0.36343 0.87055 0.1098 0.0
N119 N 0.39102 0.85817 0.18078 0.0
C120 C 0.39414 0.8973 0.22582 0.0
C121 C 0.41862 0.88023 0.21851 0.0
C122 C 0.41686 0.8615 0.19543 0.0
C123 C 0.36667 0.8736 0.18863 0.0
C124 C 0.3676 0.89291 0.21123 0.0
H125 H 0.43705 0.85177 0.18796 0.0
H126 H 0.34718 0.87357 0.1758 0.0
H127 H 0.36905 0.77423 0.16717 0.0
H128 H 0.28444 0.81071 0.16212 0.0
H129 H 0.48833 0.87657 0.10987 0.0
H130 H 0.43966 0.88309 0.22899 0.0
H131 H 0.3484 0.90643 0.21523 0.0
C132 C 0.21281 0.66922 0.36785 0.0
C133 C 0.2316 0.6846 0.35051 0.0
N134 N 0.22867 0.67389 0.32431 0.0
N135 N 0.19806 0.64864 0.35277 0.0
C136 C 0.2083 0.65217 0.32624 0.0
H137 H 0.21028 0.67309 0.39006 0.0
Co138 Co 0.17017 0.62056 0.36551 0.0
C139 C 0.21359 0.56876 0.35197 0.0
O140 O 0.22427 0.5603 0.37634 0.0
N141 N 0.14274 0.59222 0.37806 0.0
C142 C 0.12392 0.5515 0.39701 0.0
C143 C 0.14929 0.56745 0.39248 0.0
C144 C 0.11311 0.5911 0.37452 0.0
N145 N 0.10105 0.56628 0.38559 0.0
O146 O 0.18761 0.62043 0.40237 0.0
H147 H 0.1712 0.56116 0.39908 0.0
H148 H 0.10072 0.60805 0.36371 0.0
O149 O 0.19496 0.58972 0.35066 0.0
C150 C 0.1712 0.63865 0.41567 0.0
O151 O 0.15097 0.653 0.4013 0.0
N152 N 0.15036 0.62264 0.33156 0.0
C153 C 0.10309 0.62484 0.29475 0.0
C154 C 0.12153 0.59998 0.29543 0.0
C155 C 0.14492 0.5991 0.31442 0.0
C156 C 0.13497 0.6482 0.32878 0.0
C157 C 0.11113 0.64981 0.31047 0.0
H158 H 0.15632 0.57844 0.31735 0.0
H159 H 0.13927 0.66633 0.34301 0.0
H160 H 0.20108 0.63894 0.30862 0.0
H161 H 0.24589 0.70269 0.35663 0.0
H162 H 0.12274 0.53015 0.40718 0.0
H163 H 0.11643 0.58043 0.28326 0.0
H164 H 0.0975 0.6694 0.31093 0.0
C165 C 0.32791 0.19202 0.34967 0.0
C166 C 0.30769 0.21145 0.33872 0.0
N167 N 0.32247 0.23273 0.32499 0.0
N168 N 0.35557 0.2003 0.34238 0.0
C169 C 0.3513 0.22618 0.32851 0.0
H170 H 0.32244 0.17242 0.36154 0.0
Co171 Co 0.38982 0.1777 0.35214 0.0
C172 C 0.41885 0.21625 0.3094 0.0
O173 O 0.39741 0.20976 0.29177 0.0
N174 N 0.42295 0.15547 0.36294 0.0
C175 C 0.46844 0.14328 0.37568 0.0
C176 C 0.44899 0.16623 0.37208 0.0
C177 C 0.42682 0.12588 0.36195 0.0
N178 N 0.45459 0.11778 0.36907 0.0
O179 O 0.38996 0.1958 0.38863 0.0
H180 H 0.45376 0.18939 0.37526 0.0
H181 H 0.40969 0.11076 0.35526 0.0
O182 O 0.41714 0.20727 0.33499 0.0
C183 C 0.37565 0.17657 0.40298 0.0
O184 O 0.3657 0.153 0.38988 0.0
N185 N 0.38803 0.15596 0.31851 0.0
C186 C 0.38941 0.10504 0.28587 0.0
C187 C 0.36375 0.11305 0.30029 0.0
C188 C 0.36362 0.13848 0.31653 0.0
C189 C 0.41248 0.14967 0.30279 0.0
C190 C 0.41323 0.12481 0.28566 0.0
H191 H 0.34528 0.14167 0.33041 0.0
H192 H 0.43293 0.16144 0.30599 0.0
H193 H 0.36864 0.24063 0.32137 0.0
H194 H 0.28393 0.2092 0.33952 0.0
H195 H 0.49136 0.14554 0.38166 0.0
H196 H 0.345 0.09828 0.3018 0.0
H197 H 0.43344 0.1197 0.27465 0.0
C198 C 0.85934 0.33596 0.34422 0.0
C199 C 0.84488 0.31092 0.33554 0.0
N200 N 0.81772 0.31854 0.32659 0.0
N201 N 0.84172 0.35959 0.34042 0.0
C202 C 0.81583 0.34794 0.33142 0.0
H203 H 0.88239 0.33726 0.35002 0.0
Co204 Co 0.85779 0.39816 0.34017 0.0
C205 C 0.80759 0.41136 0.29531 0.0
O206 O 0.80398 0.38524 0.28392 0.0
N207 N 0.87454 0.43687 0.33993 0.0
C208 C 0.89295 0.47837 0.32187 0.0
C209 C 0.87435 0.45494 0.31733 0.0
C210 C 0.89363 0.45007 0.35802 0.0
N211 N 0.9055 0.47522 0.34735 0.0
O212 O 0.8376 0.40634 0.37492 0.0
H213 H 0.86356 0.45013 0.2976 0.0
H214 H 0.90041 0.44028 0.37769 0.0
O215 O 0.82596 0.41498 0.31564 0.0
C216 C 0.85701 0.39704 0.39251 0.0
O217 O 0.88207 0.38702 0.38253 0.0
N218 N 0.88169 0.38756 0.30963 0.0
C219 C 0.924 0.35173 0.28497 0.0
C220 C 0.89502 0.35162 0.27474 0.0
C221 C 0.87399 0.36983 0.28751 0.0
C222 C 0.91048 0.38951 0.3178 0.0
C223 C 0.93194 0.37231 0.30546 0.0
H224 H 0.85138 0.36649 0.28194 0.0
H225 H 0.9167 0.40171 0.33628 0.0
H226 H 0.79652 0.36086 0.32671 0.0
H227 H 0.85461 0.28922 0.33359 0.0
H228 H 0.89875 0.4949 0.30639 0.0
H229 H 0.88822 0.33604 0.25872 0.0
H230 H 0.95433 0.37366 0.31341 0.0
C231 C 0.67095 0.83235 0.37075 0.0
C232 C 0.69203 0.81249 0.36224 0.0
N233 N 0.68114 0.797 0.34039 0.0
N234 N 0.64692 0.82954 0.35427 0.0
C235 C 0.65362 0.80751 0.33622 0.0
H236 H 0.67358 0.8489 0.38692 0.0
Co237 Co 0.61515 0.85561 0.35442 0.0
C238 C 0.5813 0.84202 0.3037 0.0
O239 O 0.58242 0.87058 0.29884 0.0
N240 N 0.58202 0.88177 0.35512 0.0
C241 C 0.53452 0.89388 0.3588 0.0
C242 C 0.55435 0.87109 0.3584 0.0
C243 C 0.57824 0.91152 0.35402 0.0
N244 N 0.54953 0.91937 0.35607 0.0
O245 O 0.5991 0.83475 0.3862 0.0
H246 H 0.54887 0.84792 0.36045 0.0
H247 H 0.59589 0.92734 0.35161 0.0
O248 O 0.59357 0.83141 0.32589 0.0
C249 C 0.60752 0.85171 0.40621 0.0
O250 O 0.62105 0.8765 0.39994 0.0
N251 N 0.63503 0.87797 0.32738 0.0
C252 C 0.68058 0.90962 0.30191 0.0
C253 C 0.66837 0.88472 0.28866 0.0
C254 C 0.64588 0.86876 0.30206 0.0
C255 C 0.64705 0.90187 0.34038 0.0
C256 C 0.66918 0.9183 0.32788 0.0
H257 H 0.63854 0.84828 0.29277 0.0
H258 H 0.64058 0.90749 0.36146 0.0
H259 H 0.6396 0.80087 0.31892 0.0
H260 H 0.71413 0.8105 0.3707 0.0
H261 H 0.51092 0.89185 0.36158 0.0
H262 H 0.67677 0.87707 0.26869 0.0
H263 H 0.67739 0.93761 0.33883 0.0
C264 C 0.81793 0.66217 0.85193 0.0
C265 C 0.79804 0.68388 0.84464 0.0
N266 N 0.81303 0.70676 0.83342 0.0
N267 N 0.8454 0.67114 0.84513 0.0
C268 C 0.84173 0.69889 0.83506 0.0
H269 H 0.81242 0.64018 0.85913 0.0
Co270 Co 0.87899 0.64644 0.8435 0.0
C271 C 0.90457 0.68877 0.7995 0.0
O272 O 0.88321 0.68479 0.78138 0.0
N273 N 0.91401 0.62271 0.84201 0.0
C274 C 0.95526 0.60366 0.82422 0.0
C275 C 0.93195 0.62212 0.81932 0.0
C276 C 0.92688 0.60354 0.86033 0.0
N277 N 0.95206 0.59191 0.84991 0.0
O278 O 0.89004 0.66047 0.88009 0.0
H279 H 0.92792 0.6336 0.79981 0.0
H280 H 0.91803 0.59796 0.88073 0.0
O281 O 0.90308 0.6769 0.82393 0.0
C282 C 0.87659 0.64098 0.89492 0.0
O283 O 0.86338 0.6191 0.88171 0.0
N284 N 0.8636 0.62789 0.8101 0.0
C285 C 0.82116 0.59165 0.78484 0.0
C286 C 0.82063 0.62206 0.78028 0.0
C287 C 0.84204 0.63987 0.79319 0.0
C288 C 0.86547 0.59774 0.81201 0.0
C289 C 0.84498 0.57943 0.7992 0.0
H290 H 0.83815 0.66323 0.79237 0.0
H291 H 0.88013 0.58702 0.82654 0.0
H292 H 0.85942 0.71228 0.82683 0.0
H293 H 0.77426 0.68167 0.84489 0.0
H294 H 0.97274 0.59839 0.80962 0.0
H295 H 0.80239 0.63221 0.76918 0.0
H296 H 0.84627 0.55581 0.80282 0.0
C297 C 0.35601 0.819 0.83878 0.0
C298 C 0.3395 0.79474 0.83147 0.0
N299 N 0.3125 0.80392 0.82348 0.0
N300 N 0.3398 0.84366 0.8352 0.0
C301 C 0.31299 0.83362 0.82691 0.0
H302 H 0.37923 0.81887 0.84405 0.0
Co303 Co 0.35736 0.8816 0.83607 0.0
C304 C 0.30617 0.90053 0.79412 0.0
O305 O 0.29856 0.87641 0.78066 0.0
N306 N 0.37532 0.91971 0.83673 0.0
C307 C 0.39257 0.96229 0.81997 0.0
C308 C 0.37529 0.93817 0.8144 0.0
C309 C 0.39336 0.93321 0.85561 0.0
N310 N 0.4042 0.95926 0.84584 0.0
O311 O 0.33794 0.88911 0.8712 0.0
H312 H 0.36496 0.93357 0.79441 0.0
H313 H 0.39946 0.92353 0.87556 0.0
O314 O 0.32636 0.89973 0.81296 0.0
C315 C 0.35632 0.87642 0.88779 0.0
O316 O 0.38138 0.86703 0.87726 0.0
N317 N 0.37966 0.87151 0.80463 0.0
C318 C 0.41736 0.83124 0.78009 0.0
C319 C 0.38845 0.83403 0.77005 0.0
C320 C 0.36974 0.85472 0.78265 0.0
C321 C 0.40873 0.87137 0.81188 0.0
C322 C 0.42801 0.85169 0.79961 0.0
H323 H 0.34667 0.85397 0.77749 0.0
H324 H 0.41647 0.88357 0.8299 0.0
H325 H 0.29437 0.8477 0.82273 0.0
H326 H 0.34766 0.77237 0.82986 0.0
H327 H 0.3978 0.97969 0.80517 0.0
H328 H 0.37977 0.81878 0.75456 0.0
H329 H 0.45056 0.85076 0.80718 0.0
C330 C 0.1236 0.28247 0.85841 0.0
C331 C 0.13129 0.25674 0.84489 0.0
N332 N 0.13473 0.26271 0.81739 0.0
N333 N 0.12251 0.3049 0.83966 0.0
C334 C 0.12857 0.29174 0.81477 0.0
H335 H 0.12041 0.28455 0.88077 0.0
Co336 Co 0.11899 0.34627 0.84624 0.0
C337 C 0.06604 0.3645 0.8112 0.0
O338 O 0.07634 0.39153 0.80877 0.0
N339 N 0.11556 0.38732 0.85316 0.0
C340 C 0.12412 0.43559 0.85633 0.0
C341 C 0.13596 0.40868 0.84928 0.0
C342 C 0.09194 0.40179 0.86379 0.0
N343 N 0.09622 0.43136 0.86523 0.0
O344 O 0.10083 0.33986 0.88228 0.0
H345 H 0.15795 0.40526 0.84135 0.0
H346 H 0.07154 0.39079 0.86931 0.0
O347 O 0.08059 0.34525 0.82541 0.0
C348 C 0.12353 0.34014 0.89841 0.0
O349 O 0.14975 0.33932 0.8868 0.0
N350 N 0.14166 0.35372 0.81404 0.0
C351 C 0.18419 0.38208 0.78244 0.0
C352 C 0.15523 0.37928 0.77212 0.0
C353 C 0.13411 0.36461 0.7883 0.0
C354 C 0.17067 0.35112 0.8213 0.0
C355 C 0.19247 0.36522 0.80574 0.0
H356 H 0.11183 0.36384 0.7807 0.0
H357 H 0.17665 0.341 0.84103 0.0
H358 H 0.13042 0.30356 0.79514 0.0
H359 H 0.1352 0.23557 0.8548 0.0
H360 H 0.13498 0.45674 0.85386 0.0
H361 H 0.14807 0.39124 0.75362 0.0
H362 H 0.21477 0.36617 0.81393 0.0
C363 C 0.70186 0.16985 0.86759 0.0
C364 C 0.72009 0.18505 0.84959 0.0
N365 N 0.7151 0.17537 0.82329 0.0
N366 N 0.68533 0.15037 0.85289 0.0
C367 C 0.69396 0.15437 0.82585 0.0
H368 H 0.70087 0.17323 0.88999 0.0
Co369 Co 0.65674 0.1233 0.86669 0.0
C370 C 0.69464 0.07172 0.84646 0.0
O371 O 0.70921 0.06673 0.86986 0.0
N372 N 0.62889 0.09537 0.88018 0.0
C373 C 0.61239 0.05348 0.89897 0.0
C374 C 0.63688 0.07023 0.89338 0.0
C375 C 0.59905 0.09348 0.87839 0.0
N376 N 0.58842 0.06791 0.88943 0.0
O377 O 0.67908 0.11749 0.90078 0.0
H378 H 0.65931 0.06395 0.8981 0.0
H379 H 0.58549 0.1102 0.86858 0.0
O380 O 0.67561 0.09234 0.84528 0.0
C381 C 0.66621 0.13595 0.91707 0.0
O382 O 0.6464 0.15371 0.90604 0.0
N383 N 0.6325 0.13183 0.8365 0.0
C384 C 0.58125 0.14624 0.80793 0.0
C385 C 0.59508 0.1189 0.80327 0.0
C386 C 0.62089 0.11199 0.81797 0.0
C387 C 0.62119 0.1595 0.83888 0.0
C388 C 0.59562 0.16727 0.82467 0.0
H389 H 0.62947 0.08979 0.81677 0.0
H390 H 0.63046 0.1747 0.85405 0.0
H391 H 0.68497 0.14199 0.80837 0.0
H392 H 0.73536 0.20244 0.85538 0.0
H393 H 0.61258 0.03163 0.90819 0.0
H394 H 0.58483 0.10218 0.79022 0.0
H395 H 0.58574 0.18847 0.82918 0.0
C396 C 0.79069 0.34058 0.64977 0.0
C397 C 0.7744 0.31655 0.65807 0.0
N398 N 0.79299 0.29523 0.66674 0.0
N399 N 0.81968 0.33492 0.65321 0.0
C400 C 0.82037 0.30662 0.66255 0.0
H401 H 0.78178 0.36186 0.64393 0.0
Co402 Co 0.84795 0.36592 0.6518 0.0
C403 C 0.88285 0.32769 0.69693 0.0
O404 O 0.86175 0.31293 0.70951 0.0
N405 N 0.87609 0.39708 0.6512 0.0
C406 C 0.90973 0.42776 0.66905 0.0
C407 C 0.889 0.40676 0.67515 0.0
C408 C 0.8892 0.41324 0.63062 0.0
N409 N 0.90991 0.43184 0.64116 0.0
O410 O 0.8643 0.35011 0.61758 0.0
H411 H 0.88402 0.39863 0.69597 0.0
H412 H 0.88421 0.41107 0.60849 0.0
O413 O 0.87672 0.34537 0.67666 0.0
C414 C 0.84636 0.36053 0.59918 0.0
O415 O 0.8243 0.3768 0.60794 0.0
N416 N 0.82857 0.38418 0.6814 0.0
C417 C 0.78988 0.4171 0.71405 0.0
C418 C 0.80236 0.39091 0.72459 0.0
C419 C 0.82151 0.37445 0.70767 0.0
C420 C 0.81627 0.40926 0.67089 0.0
C421 C 0.7972 0.42608 0.68679 0.0
H422 H 0.82975 0.35382 0.71544 0.0
H423 H 0.82111 0.41612 0.64964 0.0
H424 H 0.84043 0.29481 0.66711 0.0
H425 H 0.75063 0.31603 0.66014 0.0
H426 H 0.92371 0.43926 0.68395 0.0
H427 H 0.79721 0.38316 0.74554 0.0
H428 H 0.78895 0.44647 0.67785 0.0
C429 C 0.67607 0.82503 0.65389 0.0
C430 C 0.69645 0.80844 0.66832 0.0
N431 N 0.70517 0.82379 0.69102 0.0
N432 N 0.67204 0.85105 0.66716 0.0
C433 C 0.69027 0.84959 0.68978 0.0
H434 H 0.66427 0.81785 0.63541 0.0
Co435 Co 0.64416 0.88006 0.65672 0.0
C436 C 0.65396 0.93009 0.69469 0.0
O437 O 0.62521 0.93114 0.69748 0.0
N438 N 0.61612 0.90987 0.64542 0.0
C439 C 0.60026 0.9509 0.62409 0.0
C440 C 0.62389 0.9327 0.62854 0.0
C441 C 0.5873 0.91547 0.65147 0.0
N442 N 0.57726 0.9402 0.63859 0.0
O443 O 0.66598 0.88756 0.62269 0.0
H444 H 0.64582 0.93677 0.62058 0.0
H445 H 0.57407 0.90255 0.6658 0.0
O446 O 0.66576 0.91031 0.67907 0.0
C447 C 0.65248 0.87089 0.6051 0.0
O448 O 0.63035 0.85473 0.61404 0.0
N449 N 0.62107 0.8681 0.68679 0.0
C450 C 0.5908 0.82811 0.72063 0.0
C451 C 0.61285 0.84642 0.73214 0.0
C452 C 0.62797 0.86632 0.71471 0.0
C453 C 0.5992 0.8511 0.67574 0.0
C454 C 0.58351 0.83153 0.69223 0.0
H455 H 0.64621 0.87871 0.72332 0.0
H456 H 0.59457 0.8519 0.65352 0.0
H457 H 0.69226 0.86678 0.70542 0.0
H458 H 0.70324 0.78616 0.66327 0.0
H459 H 0.6004 0.97139 0.61233 0.0
H460 H 0.61905 0.84466 0.75405 0.0
H461 H 0.56589 0.81899 0.68247 0.0
C462 C 0.17779 0.62861 0.68273 0.0
C463 C 0.20222 0.642 0.69405 0.0
N464 N 0.19612 0.67078 0.69821 0.0
N465 N 0.15591 0.64854 0.68008 0.0
C466 C 0.16842 0.67442 0.68804 0.0
H467 H 0.17547 0.60526 0.67847 0.0
Co468 Co 0.11684 0.63674 0.67119 0.0
C469 C 0.10047 0.68854 0.7127 0.0
O470 O 0.12518 0.69219 0.72669 0.0
N471 N 0.07792 0.62419 0.6619 0.0
C472 C 0.02994 0.61439 0.66593 0.0
C473 C 0.05335 0.62973 0.67698 0.0
C474 C 0.06873 0.60483 0.64192 0.0
N475 N 0.0396 0.59844 0.64403 0.0
O476 O 0.11915 0.65885 0.63674 0.0
H477 H 0.05264 0.64212 0.69627 0.0
H478 H 0.08344 0.59415 0.62727 0.0
O479 O 0.09869 0.6694 0.69291 0.0
C480 C 0.13288 0.64032 0.62122 0.0
O481 O 0.13887 0.61418 0.63184 0.0
N482 N 0.11692 0.61156 0.70245 0.0
C483 C 0.14721 0.56883 0.73231 0.0
C484 C 0.14408 0.59718 0.74357 0.0
C485 C 0.12839 0.61842 0.72824 0.0
C486 C 0.11633 0.58297 0.69357 0.0
C487 C 0.13104 0.56118 0.70838 0.0
H488 H 0.12948 0.64085 0.73526 0.0
H489 H 0.10847 0.5775 0.67285 0.0
H490 H 0.15709 0.69534 0.68753 0.0
H491 H 0.22237 0.63091 0.70012 0.0
H492 H 0.00806 0.61302 0.67491 0.0
H493 H 0.15606 0.60364 0.7623 0.0
H494 H 0.13242 0.5392 0.69949 0.0
C495 C 0.30322 0.18079 0.647 0.0
C496 C 0.27611 0.19062 0.65587 0.0
N497 N 0.26688 0.17313 0.67706 0.0
N498 N 0.31115 0.15708 0.66235 0.0
C499 C 0.28829 0.15259 0.68008 0.0
H500 H 0.31723 0.19177 0.63189 0.0
Co501 Co 0.34926 0.14154 0.66376 0.0
C502 C 0.34501 0.08562 0.69565 0.0
O503 O 0.37018 0.09303 0.70749 0.0
N504 N 0.38868 0.12611 0.66454 0.0
C505 C 0.43658 0.1194 0.67316 0.0
C506 C 0.41353 0.13891 0.67466 0.0
C507 C 0.39796 0.09924 0.65538 0.0
N508 N 0.42674 0.09437 0.66125 0.0
O509 O 0.34664 0.13092 0.62469 0.0
H510 H 0.41539 0.16098 0.68283 0.0
H511 H 0.38342 0.08287 0.64618 0.0
O512 O 0.33344 0.10262 0.677 0.0
C513 C 0.36102 0.15122 0.61184 0.0
O514 O 0.37353 0.17204 0.62702 0.0
N515 N 0.3527 0.15627 0.70064 0.0
C516 C 0.37622 0.17714 0.75024 0.0
C517 C 0.35401 0.15546 0.75081 0.0
C518 C 0.34212 0.14546 0.72548 0.0
C519 C 0.36746 0.18246 0.70059 0.0
C520 C 0.38016 0.1931 0.7252 0.0
H521 H 0.32633 0.1277 0.72614 0.0
H522 H 0.37279 0.19293 0.68081 0.0
H523 H 0.28812 0.13566 0.69604 0.0
H524 H 0.26539 0.21067 0.64891 0.0
H525 H 0.4589 0.12323 0.68047 0.0
H526 H 0.34837 0.14407 0.77009 0.0
H527 H 0.39597 0.21096 0.72355 0.0
H528 H 0.92266 0.53747 0.08725 0.0
H529 H 0.05212 0.46472 0.17602 0.0
H530 H 0.93134 0.55469 0.17585 0.0
H531 H 0.06317 0.49179 0.08994 0.0
H532 H 0.00364 0.48943 0.17663 0.0
H533 H 0.97059 0.51263 0.08793 0.0
C534 C 0.93477 0.53598 0.10683 0.0
C535 C 0.92324 0.54812 0.1315 0.0
C536 C 0.01674 0.48984 0.15765 0.0
C537 C 0.97766 0.51938 0.13258 0.0
C538 C 0.04411 0.47558 0.15723 0.0
C539 C 0.06144 0.47632 0.13289 0.0
C540 C 0.00654 0.50422 0.13333 0.0
C541 C 0.05042 0.49091 0.10911 0.0
C542 C 0.96206 0.52191 0.10721 0.0
C543 C 0.93975 0.54578 0.15638 0.0
N544 N 0.02359 0.50411 0.10984 0.0
N545 N 0.9661 0.53137 0.15638 0.0
H546 H 0.5026 0.07787 0.18359 0.0
H547 H 0.50106 0.92451 0.10034 0.0
H548 H 0.57709 0.04615 0.13625 0.0
H549 H 0.43803 0.94718 0.16462 0.0
H550 H 0.52579 0.97178 0.10791 0.0
H551 H 0.4753 0.03334 0.17101 0.0
C552 C 0.51327 0.0616 0.17049 0.0
C553 C 0.54249 0.06572 0.16139 0.0
C554 C 0.50647 0.96641 0.12026 0.0
C555 C 0.51096 0.01453 0.14656 0.0
C556 C 0.49232 0.93929 0.11605 0.0
C557 C 0.46738 0.93144 0.13199 0.0
C558 C 0.49559 0.98613 0.1404 0.0
C559 C 0.45692 0.95209 0.1516 0.0
C560 C 0.49757 0.03615 0.16326 0.0
C561 C 0.55469 0.04409 0.14377 0.0
N562 N 0.4711 0.97836 0.15527 0.0
N563 N 0.53895 0.01936 0.13709 0.0
H564 H 0.92188 0.53107 0.33276 0.0
H565 H 0.07402 0.52451 0.4179 0.0
H566 H 0.94753 0.45742 0.38505 0.0
H567 H 0.05818 0.58476 0.34911 0.0
H568 H 0.02449 0.50453 0.41173 0.0
H569 H 0.96823 0.55573 0.34446 0.0
C570 C 0.9371 0.52007 0.34681 0.0
C571 C 0.93075 0.49177 0.35751 0.0
C572 C 0.03183 0.52221 0.39806 0.0
C573 C 0.98392 0.5203 0.37135 0.0
C574 C 0.06027 0.53361 0.40146 0.0
C575 C 0.07076 0.55618 0.38374 0.0
C576 C 0.01344 0.53351 0.37691 0.0
C577 C 0.05129 0.56747 0.36334 0.0
C578 C 0.96358 0.53426 0.35353 0.0
C579 C 0.95119 0.47914 0.37625 0.0
N580 N 0.02369 0.55592 0.36041 0.0
N581 N 0.97688 0.49339 0.38239 0.0
H582 H 0.57505 0.96994 0.37527 0.0
H583 H 0.433 0.06911 0.34183 0.0
H584 H 0.49529 0.93576 0.33777 0.0
H585 H 0.50648 0.09918 0.39231 0.0
H586 H 0.45667 0.02112 0.33754 0.0
H587 H 0.55197 0.01874 0.37818 0.0
C588 C 0.55281 0.97275 0.36741 0.0
C589 C 0.53704 0.94867 0.35641 0.0
C590 C 0.46759 0.03825 0.34958 0.0
C591 C 0.51036 0.00438 0.35985 0.0
C592 C 0.45397 0.06577 0.35218 0.0
C593 C 0.46767 0.08866 0.36737 0.0
C594 C 0.4952 0.03338 0.36221 0.0
C595 C 0.49512 0.08264 0.38002 0.0
C596 C 0.53954 1.00055 0.36928 0.0
C597 C 0.50812 0.95357 0.3468 0.0
N598 N 0.50794 0.0557 0.3771 0.0
N599 N 0.49574 0.9808 0.34874 0.0
H600 H 0.9371 0.53735 0.86865 0.0
H601 H 0.10664 0.48848 0.8802 0.0
H602 H 0.01076 0.59598 0.85616 0.0
H603 H 0.03602 0.42676 0.86333 0.0
H604 H 0.07048 0.5281 0.88328 0.0
H605 H 0.97189 0.49682 0.87879 0.0
C606 C 0.96058 0.5418 0.86892 0.0
C607 C 0.97125 0.5699 0.86174 0.0
C608 C 0.06288 0.50582 0.87916 0.0
C609 C 0.01095 0.52403 0.87295 0.0
C610 C 0.08357 0.48311 0.87726 0.0
C611 C 0.07462 0.45411 0.87095 0.0
C612 C 0.03284 0.49965 0.87492 0.0
C613 C 0.04415 0.44863 0.8682 0.0
C614 C 0.98039 0.51871 0.87438 0.0
C615 C 1.00182 0.57457 0.86172 0.0
N616 N 0.02441 0.47121 0.86995 0.0
N617 N 0.02059 0.5519 0.86711 0.0
H618 H 0.4138 0.01738 0.83486 0.0
H619 H 0.56506 0.02362 0.92137 0.0
H620 H 0.44706 0.94432 0.88374 0.0
H621 H 0.54319 0.08479 0.85497 0.0
H622 H 0.51767 0.99916 0.91455 0.0
H623 H 0.45654 0.04674 0.84893 0.0
C624 C 0.42999 0.00749 0.84868 0.0
C625 C 0.42696 0.97802 0.85767 0.0
C626 C 0.52318 0.01803 0.90156 0.0
C627 C 0.47599 0.0119 0.87421 0.0
C628 C 0.55039 0.03204 0.90533 0.0
C629 C 0.55871 0.05603 0.88822 0.0
C630 C 0.50378 0.02816 0.88072 0.0
C631 C 0.53802 0.06635 0.86851 0.0
C632 C 0.45439 0.02437 0.85676 0.0
C633 C 0.44834 0.96683 0.87623 0.0
N634 N 0.51166 0.05223 0.86515 0.0
N635 N 0.47205 0.9837 0.88369 0.0
H636 H 0.89426 0.48257 0.61546 0.0
H637 H 0.05939 0.54366 0.63062 0.0
H638 H 0.96886 0.42897 0.63777 0.0
H639 H 0.98207 0.59873 0.62916 0.0
H640 H 0.0284 0.50084 0.61891 0.0
H641 H 0.92789 0.52416 0.60586 0.0
C642 C 0.91785 0.4793 0.61714 0.0
C643 C 0.92898 0.45243 0.62711 0.0
C644 C 0.01829 0.52241 0.62057 0.0
C645 C 0.96746 0.49976 0.61707 0.0
C646 C 0.03603 0.54688 0.627 0.0
C647 C 0.02319 0.5747 0.6311 0.0
C648 C 0.98754 0.52584 0.61808 0.0
C649 C 0.99272 0.57755 0.6265 0.0
C650 C 0.93701 0.50304 0.61205 0.0
C651 C 0.95963 0.44937 0.62981 0.0
N652 N 0.9759 0.55342 0.62056 0.0
N653 N 0.97779 0.47282 0.62516 0.0
H654 H 0.42858 0.05757 0.6163 0.0
H655 H 0.54862 0.95061 0.68746 0.0
H656 H 0.46264 0.0699 0.69998 0.0
H657 H 0.54397 0.96553 0.59825 0.0
H658 H 0.50691 0.98466 0.69384 0.0
H659 H 0.46117 0.01437 0.61086 0.0
C660 C 0.4426 0.05087 0.63361 0.0
C661 C 0.44328 0.06739 0.65847 0.0
C662 C 0.51471 0.98004 0.67283 0.0
C663 C 0.48005 0.01811 0.65268 0.0
C664 C 0.53826 0.96045 0.6692 0.0
C665 C 0.54966 0.95538 0.64231 0.0
C666 C 0.50226 0.99426 0.64934 0.0
C667 C 0.5358 0.96904 0.61931 0.0
C668 C 0.46121 0.02639 0.6305 0.0
C669 C 0.46185 0.05793 0.68034 0.0
N670 N 0.5129 0.98792 0.62332 0.0
N671 N 0.47949 0.03397 0.67695 0.0
H672 H 0.26253 0.3062 0.16986 0.0
H673 H 0.27124 0.26279 0.33093 0.0
H674 H 0.2098 0.35008 0.23226 0.0
H675 H 0.34435 0.24991 0.27466 0.0
H676 H 0.24685 0.29311 0.29499 0.0
H677 H 0.29136 0.28298 0.20756 0.0
C678 C 0.25716 0.31102 0.19151 0.0
C679 C 0.23382 0.33009 0.19797 0.0
C680 C 0.26842 0.28398 0.29067 0.0
C681 C 0.26637 0.30344 0.24116 0.0
C682 C 0.28228 0.26669 0.31114 0.0
C683 C 0.30985 0.25389 0.30578 0.0
C684 C 0.28191 0.28794 0.26439 0.0
C685 C 0.32326 0.25962 0.27977 0.0
C686 C 0.27367 0.29793 0.21299 0.0
C687 C 0.22781 0.33576 0.22638 0.0
N688 N 0.30898 0.27585 0.25989 0.0
N689 N 0.24374 0.32222 0.24694 0.0
H690 H 0.75805 0.32104 0.31921 0.0
H691 H 0.76308 0.21389 0.18538 0.0
H692 H 0.83662 0.27871 0.28829 0.0
H693 H 0.68221 0.23133 0.22996 0.0
H694 H 0.78961 0.24465 0.21908 0.0
H695 H 0.72903 0.29432 0.28338 0.0
C696 C 0.76913 0.306 0.3051 0.0
C697 C 0.79974 0.30173 0.30717 0.0
C698 C 0.766 0.24189 0.22139 0.0
C699 C 0.76698 0.27177 0.26584 0.0
C700 C 0.7508 0.22431 0.20209 0.0
C701 C 0.72033 0.21953 0.20484 0.0
C702 C 0.75072 0.25513 0.24368 0.0
C703 C 0.70561 0.2343 0.22675 0.0
C704 C 0.75262 0.29083 0.28467 0.0
C705 C 0.81304 0.2822 0.28811 0.0
N706 N 0.72097 0.25126 0.24541 0.0
N707 N 0.79665 0.26814 0.26829 0.0
H708 H 0.73906 0.8005 0.32708 0.0
H709 H 0.73923 0.66273 0.22227 0.0
H710 H 0.66003 0.75 0.31105 0.0
H711 H 0.79635 0.73831 0.21334 0.0
H712 H 0.7145 0.68754 0.26192 0.0
H713 H 0.76527 0.77045 0.29272 0.0
C714 C 0.72734 0.78275 0.31667 0.0
C715 C 0.69729 0.77775 0.32191 0.0
C716 C 0.73256 0.69853 0.2513 0.0
C717 C 0.72718 0.74332 0.28241 0.0
C718 C 0.74668 0.68437 0.2289 0.0
C719 C 0.76958 0.6987 0.21452 0.0
C720 C 0.74202 0.7268 0.25963 0.0
C721 C 0.77851 0.72675 0.22371 0.0
C722 C 0.74225 0.76577 0.29689 0.0
C723 C 0.68312 0.75469 0.30741 0.0
N724 N 0.7648 0.73983 0.24571 0.0
N725 N 0.69819 0.73827 0.28829 0.0
H726 H 0.20709 0.67621 0.27105 0.0
H727 H 0.35218 0.7558 0.2116 0.0
H728 H 0.28419 0.69572 0.32093 0.0
H729 H 0.26773 0.76037 0.16986 0.0
H730 H 0.33038 0.72399 0.24742 0.0
H731 H 0.23169 0.6979 0.22995 0.0
C732 C 0.22932 0.68471 0.27325 0.0
C733 C 0.24355 0.68442 0.29948 0.0
C734 C 0.31668 0.73166 0.23024 0.0
C735 C 0.2718 0.70911 0.25267 0.0
C736 C 0.3292 0.7496 0.20956 0.0
C737 C 0.31172 0.76102 0.18771 0.0
C738 C 0.28646 0.72485 0.22908 0.0
C739 C 0.28192 0.75241 0.18652 0.0
C740 C 0.24328 0.6972 0.24986 0.0
C741 C 0.27227 0.69593 0.30121 0.0
N742 N 0.27018 0.73502 0.20701 0.0
N743 N 0.28541 0.70782 0.27818 0.0
H744 H 0.6967 0.82958 0.74717 0.0
H745 H 0.8364 0.72921 0.78542 0.0
H746 H 0.7551 0.79207 0.68569 0.0
H747 H 0.76083 0.73548 0.83989 0.0
H748 H 0.81232 0.76246 0.75225 0.0
H749 H 0.72528 0.805 0.78458 0.0
C750 C 0.71588 0.81665 0.74165 0.0
C751 C 0.72362 0.81276 0.71337 0.0
C752 C 0.80113 0.75686 0.77162 0.0
C753 C 0.75627 0.78478 0.75578 0.0
C754 C 0.81502 0.73808 0.79077 0.0
C755 C 0.80065 0.72951 0.81561 0.0
C756 C 0.77271 0.76747 0.77728 0.0
C757 C 0.7726 0.74138 0.82095 0.0
C758 C 0.73199 0.80247 0.76291 0.0
C759 C 0.74838 0.79544 0.70723 0.0
N760 N 0.75949 0.7597 0.80192 0.0
N761 N 0.76381 0.78213 0.72822 0.0
H762 H 0.23433 0.65618 0.73999 0.0
H763 H 0.2735 0.82225 0.78322 0.0
H764 H 0.19467 0.73124 0.69875 0.0
H765 H 0.30293 0.74499 0.82825 0.0
H766 H 0.24347 0.79052 0.75279 0.0
H767 H 0.25978 0.68926 0.77179 0.0
C768 C 0.23124 0.67968 0.73723 0.0
C769 C 0.2125 0.6908 0.71617 0.0
C770 C 0.25631 0.78057 0.7695 0.0
C771 C 0.24145 0.72927 0.75354 0.0
C772 C 0.27331 0.79872 0.78708 0.0
C773 C 0.2911 0.78631 0.80827 0.0
C774 C 0.25711 0.74977 0.77306 0.0
C775 C 0.29004 0.75555 0.81196 0.0
C776 C 0.2456 0.69866 0.75579 0.0
C777 C 0.20887 0.72162 0.71456 0.0
N778 N 0.27361 0.73842 0.79446 0.0
N779 N 0.2233 0.73979 0.73292 0.0
H780 H 0.2627 0.15718 0.73222 0.0
H781 H 0.12801 0.26629 0.76072 0.0
H782 H 0.21696 0.20457 0.66659 0.0
H783 H 0.17279 0.21706 0.82564 0.0
H784 H 0.15655 0.23975 0.72537 0.0
H785 H 0.22608 0.17413 0.7658 0.0
C786 C 0.2447 0.17068 0.72465 0.0
C787 C 0.2432 0.17962 0.69638 0.0
C788 C 0.1599 0.23451 0.74734 0.0
C789 C 0.20128 0.19971 0.73518 0.0
C790 C 0.14365 0.24974 0.76756 0.0
C791 C 0.14818 0.24422 0.79629 0.0
C792 C 0.18101 0.21363 0.75583 0.0
C793 C 0.16839 0.22207 0.80382 0.0
C794 C 0.22384 0.18058 0.74399 0.0
C795 C 0.21939 0.19753 0.68818 0.0
N796 N 0.18426 0.20787 0.78377 0.0
N797 N 0.19958 0.2072 0.70749 0.0
H798 H 0.74119 0.26467 0.66589 0.0
H799 H 0.77075 0.19645 0.81771 0.0
H800 H 0.82527 0.26885 0.70825 0.0
H801 H 0.69073 0.18016 0.7711 0.0
H802 H 0.79209 0.22006 0.77631 0.0
H803 H 0.72354 0.23035 0.7019 0.0
C804 C 0.75611 0.25814 0.68255 0.0
C805 C 0.78466 0.27032 0.68421 0.0
C806 C 0.76996 0.2111 0.77495 0.0
C807 C 0.76444 0.231 0.72578 0.0
C808 C 0.7577 0.19774 0.79868 0.0
C809 C 0.72878 0.18656 0.798 0.0
C810 C 0.75312 0.21375 0.75026 0.0
C811 C 0.71311 0.1884 0.77256 0.0
C812 C 0.74599 0.23849 0.70313 0.0
C813 C 0.8031 0.26045 0.70605 0.0
N814 N 0.72532 0.20208 0.74983 0.0
N815 N 0.79254 0.24181 0.72614 0.0
H816 H 0.19626 0.36474 0.06271 0.0
H817 H 0.09192 0.38226 0.92696 0.0
H818 H 0.12764 0.42997 0.05708 0.0
H819 H 0.15629 0.31338 0.93807 0.0
H820 H 0.10476 0.40144 0.97382 0.0
H821 H 0.18525 0.34951 0.01447 0.0
C822 C 0.17993 0.3769 0.05074 0.0
C823 C 0.16339 0.39916 0.06356 0.0
C824 C 0.11571 0.38182 0.96617 0.0
C825 C 0.14915 0.38061 0.00903 0.0
C826 C 0.10788 0.37052 0.93971 0.0
C827 C 0.12273 0.34592 0.92889 0.0
C828 C 0.13864 0.36848 0.98166 0.0
C829 C 0.14407 0.33219 0.94583 0.0
C830 C 0.17305 0.3677 0.02345 0.0
C831 C 0.14142 0.41323 0.04759 0.0
N832 N 0.15153 0.34375 0.97117 0.0
N833 N 0.13464 0.4035 0.02131 0.0
H834 H 0.67746 0.08995 0.95362 0.0
H835 H 0.6331 0.18643 0.08925 0.0
H836 H 0.66098 0.18364 0.95072 0.0
H837 H 0.64677 0.09215 0.09032 0.0
H838 H 0.64474 0.18663 0.03871 0.0
H839 H 0.6704 0.09117 1.00479 0.0
C840 C 0.67323 0.11087 0.96385 0.0
C841 C 0.66983 0.1367 0.94796 0.0
C842 C 0.64508 0.16591 0.05008 0.0
C843 C 0.66077 0.13826 0.00621 0.0
C844 C 0.63812 0.1658 0.07883 0.0
C845 C 0.63899 0.1393 0.09407 0.0
C846 C 0.65292 0.13933 0.0366 0.0
C847 C 0.64601 0.1132 0.07952 0.0
C848 C 0.66873 0.11156 0.99299 0.0
C849 C 0.66368 0.16317 0.96222 0.0
N850 N 0.65276 0.1139 0.05179 0.0
N851 N 0.65911 0.16324 0.9904 0.0
H852 H 0.86489 0.59509 0.92927 0.0
H853 H 0.8507 0.68773 0.07029 0.0
H854 H 0.87902 0.68936 0.93087 0.0
H855 H 0.81721 0.59914 0.06052 0.0
H856 H 0.86144 0.68959 0.02001 0.0
H857 H 0.85017 0.59642 0.97817 0.0
C858 C 0.86519 0.61616 0.94003 0.0
C859 C 0.87313 0.64222 0.92583 0.0
C860 C 0.85129 0.66993 0.0287 0.0
C861 C 0.85581 0.64386 0.98228 0.0
C862 C 0.84496 0.66888 0.05736 0.0
C863 C 0.83295 0.64324 0.06952 0.0
C864 C 0.84608 0.64492 0.01211 0.0
C865 C 0.82613 0.61943 0.05193 0.0
C866 C 0.8565 0.61688 0.96799 0.0
C867 C 0.87329 0.66874 0.94104 0.0
N868 N 0.83319 0.6207 0.02415 0.0
N869 N 0.86463 0.6689 0.96851 0.0
H870 H 0.37255 0.82657 0.91424 0.0
H871 H 0.3353 0.88632 0.06752 0.0
H872 H 0.32736 0.90877 0.92889 0.0
H873 H 0.39086 0.81087 0.05189 0.0
H874 H 0.32593 0.89077 0.01741 0.0
H875 H 0.37225 0.81648 0.96441 0.0
C876 C 0.36215 0.84239 0.92809 0.0
C877 C 0.3502 0.86874 0.91741 0.0
C878 C 0.34002 0.87312 0.02486 0.0
C879 C 0.35014 0.85736 0.97526 0.0
C880 C 0.34547 0.87048 0.05357 0.0
C881 C 0.36424 0.84829 0.06405 0.0
C882 C 0.35334 0.85343 0.0062 0.0
C883 C 0.37638 0.82835 0.04482 0.0
C884 C 0.3621 0.83659 0.95679 0.0
C885 C 0.33674 0.88819 0.93625 0.0
N886 N 0.37087 0.83153 0.01679 0.0
N887 N 0.3374 0.88228 0.96439 0.0
H888 H 0.1999 0.60534 0.45605 0.0
H889 H 0.1128 0.68209 0.58285 0.0
H890 H 0.14426 0.6818 0.44563 0.0
H891 H 0.17604 0.61183 0.59336 0.0
H892 H 0.12682 0.68536 0.53296 0.0
H893 H 0.19453 0.61004 0.50715 0.0
C894 C 0.18698 0.62333 0.46448 0.0
C895 C 0.17232 0.64297 0.44652 0.0
C896 C 0.1378 0.66944 0.54635 0.0
C897 C 0.16564 0.64834 0.50484 0.0
C898 C 0.12985 0.66771 0.57481 0.0
C899 C 0.14291 0.6464 0.59218 0.0
C900 C 0.15891 0.64973 0.53539 0.0
C901 C 0.16493 0.62826 0.58065 0.0
C902 C 0.18376 0.62598 0.49364 0.0
C903 C 0.15571 0.66587 0.45864 0.0
N904 N 0.17199 0.63015 0.55307 0.0
N905 N 0.15258 0.66773 0.48693 0.0
H906 H 0.40851 0.20665 0.44302 0.0
H907 H 0.32838 0.12229 0.571 0.0
H908 H 0.33385 0.14825 0.43314 0.0
H909 H 0.39837 0.18608 0.58206 0.0
H910 H 0.33064 0.1309 0.52006 0.0
H911 H 0.40478 0.2004 0.49427 0.0
C912 C 0.39108 0.19299 0.45162 0.0
C913 C 0.3716 0.17785 0.43381 0.0
C914 C 0.34552 0.14297 0.5337 0.0
C915 C 0.36749 0.17005 0.49211 0.0
C916 C 0.34434 0.13786 0.56273 0.0
C917 C 0.3631 0.1535 0.58084 0.0
C918 C 0.3657 0.16377 0.52276 0.0
C919 C 0.38329 0.17361 0.56896 0.0
C920 C 0.38908 0.18916 0.48082 0.0
C921 C 0.34956 0.16013 0.44607 0.0
N922 N 0.38403 0.17816 0.54079 0.0
N923 N 0.34824 0.15657 0.47432 0.0
H924 H 0.80613 0.38612 0.42319 0.0
H925 H 0.89721 0.36555 0.56772 0.0
H926 H 0.8995 0.40222 0.43187 0.0
H927 H 0.80323 0.35284 0.56085 0.0
H928 H 0.89902 0.37555 0.51693 0.0
H929 H 0.80422 0.37327 0.4735 0.0
C930 C 0.82601 0.38762 0.43578 0.0
C931 C 0.85295 0.39531 0.42336 0.0
C932 C 0.87805 0.37011 0.52647 0.0
C933 C 0.85126 0.37981 0.48051 0.0
C934 C 0.87717 0.36388 0.55537 0.0
C935 C 0.8501 0.35814 0.56841 0.0
C936 C 0.85166 0.37064 0.51065 0.0
C937 C 0.8246 0.3571 0.55153 0.0
C938 C 0.82507 0.37987 0.46438 0.0
C939 C 0.87823 0.3963 0.44057 0.0
N940 N 0.82594 0.36351 0.52367 0.0
N941 N 0.87681 0.38851 0.46807 0.0
H942 H 0.57473 0.87868 0.4453 0.0
H943 H 0.67756 0.8289 0.57279 0.0
H944 H 0.64129 0.81207 0.43469 0.0
H945 H 0.63202 0.91207 0.56887 0.0
H946 H 0.66341 0.81918 0.52386 0.0
H947 H 0.59042 0.88515 0.49403 0.0
C948 C 0.59165 0.86429 0.45375 0.0
C949 C 0.60626 0.84432 0.43619 0.0
C950 C 0.65721 0.83992 0.53343 0.0
C951 C 0.62566 0.85285 0.49145 0.0
C952 C 0.66587 0.84579 0.56111 0.0
C953 C 0.65671 0.87175 0.57457 0.0
C954 C 0.63854 0.85982 0.51946 0.0
C955 C 0.64032 0.89225 0.559 0.0
C956 C 0.60119 0.86858 0.48132 0.0
C957 C 0.62891 0.82708 0.44782 0.0
N958 N 0.63134 0.88564 0.53245 0.0
N959 N 0.6382 0.83197 0.47469 0.0
H960 H 0.22735 0.50963 0.3469 0.0
H961 H 0.17705 0.50901 0.18709 0.0
H962 H 0.21124 0.58806 0.29784 0.0
H963 H 0.20517 0.43001 0.22973 0.0
H964 H 0.19666 0.53861 0.2257 0.0
H965 H 0.22626 0.4803 0.30346 0.0
C966 C 0.22424 0.52077 0.32697 0.0
C967 C 0.21887 0.55131 0.32606 0.0
C968 C 0.19928 0.51486 0.22648 0.0
C969 C 0.21733 0.51793 0.27637 0.0
C970 C 0.18833 0.49801 0.20425 0.0
C971 C 0.18994 0.46715 0.20509 0.0
C972 C 0.21115 0.50072 0.25027 0.0
C973 C 0.20401 0.45383 0.22812 0.0
C974 C 0.22349 0.50401 0.30218 0.0
C975 C 0.21492 0.56455 0.29964 0.0
N976 N 0.21361 0.47067 0.2501 0.0
N977 N 0.21385 0.5478 0.27602 0.0
H978 H 0.5578 0.19474 0.19326 0.0
H979 H 0.47319 0.22038 0.3356 0.0
H980 H 0.60307 0.21718 0.27026 0.0
H981 H 0.43095 0.23008 0.25476 0.0
H982 H 0.52124 0.22184 0.31226 0.0
H983 H 0.51123 0.20982 0.21486 0.0
C984 C 0.55809 0.20337 0.21446 0.0
C985 C 0.58444 0.20435 0.22999 0.0
C986 C 0.50143 0.22419 0.2997 0.0
C987 C 0.5311 0.22111 0.25506 0.0
C988 C 0.47395 0.22347 0.31308 0.0
C989 C 0.44786 0.22461 0.29717 0.0
C990 C 0.50281 0.22567 0.27021 0.0
C991 C 0.45038 0.2287 0.26795 0.0
C992 C 0.53146 0.21192 0.22684 0.0
C993 C 0.58333 0.21569 0.25748 0.0
N994 N 0.47727 0.22848 0.2554 0.0
N995 N 0.55711 0.22312 0.26927 0.0
H996 H 0.81198 0.47071 0.30879 0.0
H997 H 0.76098 0.52178 0.15535 0.0
H998 H 0.77537 0.41174 0.24657 0.0
H999 H 0.79198 0.58216 0.21895 0.0
H1000 H 0.75988 0.48232 0.19059 0.0
H1001 H 0.79928 0.51264 0.27852 0.0
C1002 C 0.80102 0.46652 0.28896 0.0
C1003 C 0.7954 0.43746 0.28006 0.0
C1004 C 0.76658 0.50429 0.19696 0.0
C1005 C 0.78067 0.48551 0.24522 0.0
C1006 C 0.76699 0.52691 0.17683 0.0
C1007 C 0.77712 0.55523 0.18404 0.0
C1008 C 0.77644 0.50997 0.2245 0.0
C1009 C 0.78467 0.56049 0.21228 0.0
C1010 C 0.79373 0.49053 0.27165 0.0
C1011 C 0.78059 0.43361 0.25429 0.0
N1012 N 0.7846 0.53804 0.23133 0.0
N1013 N 0.77413 0.45723 0.23771 0.0
H1014 H 0.58335 0.84755 0.24729 0.0
H1015 H 0.43184 0.76345 0.22744 0.0
H1016 H 0.54292 0.79549 0.31255 0.0
H1017 H 0.47538 0.81261 0.16186 0.0
H1018 H 0.47716 0.76497 0.25521 0.0
H1019 H 0.54963 0.82584 0.21305 0.0
C1020 C 0.5677 0.83098 0.25428 0.0
C1021 C 0.56574 0.82344 0.28281 0.0
C1022 C 0.4771 0.77481 0.23447 0.0
C1023 C 0.52636 0.79894 0.24371 0.0
C1024 C 0.45124 0.77377 0.21844 0.0
C1025 C 0.44953 0.78845 0.19243 0.0
C1026 C 0.50148 0.79085 0.22456 0.0
C1027 C 0.47548 0.8012 0.18183 0.0
C1028 C 0.54838 0.81861 0.2347 0.0
C1029 C 0.54518 0.80182 0.29073 0.0
N1030 N 0.50013 0.80272 0.1982 0.0
N1031 N 0.52584 0.79075 0.27136 0.0
H1032 H 0.79568 0.58217 0.73338 0.0
H1033 H 0.74174 0.45071 0.69924 0.0
H1034 H 0.79024 0.55689 0.82049 0.0
H1035 H 0.79865 0.43066 0.76948 0.0
H1036 H 0.7302 0.49834 0.72074 0.0
H1037 H 0.76658 0.53847 0.72094 0.0
C1038 C 0.78725 0.56806 0.74992 0.0
C1039 C 0.79604 0.57233 0.77778 0.0
C1040 C 0.74438 0.483 0.73182 0.0
C1041 C 0.76323 0.52252 0.76398 0.0
C1042 C 0.75103 0.45586 0.71964 0.0
C1043 C 0.77261 0.43754 0.73183 0.0
C1044 C 0.75906 0.49131 0.75648 0.0
C1045 C 0.78269 0.44449 0.75885 0.0
C1046 C 0.77049 0.54319 0.74293 0.0
C1047 C 0.78455 0.55361 0.7986 0.0
N1048 N 0.77643 0.4713 0.76998 0.0
N1049 N 0.76963 0.52885 0.7912 0.0
H1050 H 0.57183 0.83482 0.77495 0.0
H1051 H 0.43493 0.81454 0.72756 0.0
H1052 H 0.56937 0.77339 0.70571 0.0
H1053 H 0.44444 0.79264 0.8152 0.0
H1054 H 0.48185 0.78999 0.71821 0.0
H1055 H 0.52799 0.81137 0.79406 0.0
C1056 C 0.56285 0.81568 0.76428 0.0
C1057 C 0.5732 0.80722 0.73782 0.0
C1058 C 0.47297 0.78924 0.7393 0.0
C1059 C 0.5225 0.78119 0.75899 0.0
C1060 C 0.4462 0.8033 0.74456 0.0
C1061 C 0.43674 0.80657 0.77227 0.0
C1062 C 0.49035 0.77964 0.76207 0.0
C1063 C 0.4519 0.79142 0.79364 0.0
C1064 C 0.53771 0.80223 0.77522 0.0
C1065 C 0.56084 0.78184 0.72533 0.0
N1066 N 0.47879 0.77974 0.78836 0.0
N1067 N 0.5351 0.77063 0.7352 0.0
H1068 H 0.20915 0.42142 0.81836 0.0
H1069 H 0.18988 0.54283 0.70146 0.0
H1070 H 0.19685 0.40426 0.72997 0.0
H1071 H 0.15638 0.5482 0.78595 0.0
H1072 H 0.21854 0.49933 0.71473 0.0
H1073 H 0.21724 0.47341 0.80783 0.0
C1074 C 0.20965 0.42824 0.79655 0.0
C1075 C 0.20147 0.40865 0.77497 0.0
C1076 C 0.20565 0.51059 0.73055 0.0
C1077 C 0.21051 0.46805 0.76308 0.0
C1078 C 0.18915 0.53518 0.72302 0.0
C1079 C 0.1699 0.54815 0.74246 0.0
C1080 C 0.20289 0.49908 0.75769 0.0
C1081 C 0.17045 0.53825 0.77027 0.0
C1082 C 0.21406 0.45802 0.79067 0.0
C1083 C 0.2024 0.41883 0.74721 0.0
N1084 N 0.1862 0.51371 0.77698 0.0
N1085 N 0.20608 0.4481 0.74207 0.0
H1086 H 0.41224 0.22297 0.76828 0.0
H1087 H 0.53624 0.1061 0.80937 0.0
H1088 H 0.39707 0.12933 0.77925 0.0
H1089 H 0.5546 0.19756 0.79006 0.0
H1090 H 0.48386 0.11586 0.80443 0.0
H1091 H 0.46258 0.21626 0.78559 0.0
C1092 C 0.41912 0.20117 0.77496 0.0
C1093 C 0.40058 0.17655 0.77117 0.0
C1094 C 0.49931 0.13384 0.80127 0.0
C1095 C 0.45802 0.16878 0.79088 0.0
C1096 C 0.52934 0.12817 0.80367 0.0
C1097 C 0.54996 0.15103 0.80015 0.0
C1098 C 0.48969 0.16258 0.7951 0.0
C1099 C 0.53948 0.17931 0.79321 0.0
C1100 C 0.44793 0.19735 0.78468 0.0
C1101 C 0.41042 0.14906 0.78127 0.0
N1102 N 0.51005 0.1843 0.79091 0.0
N1103 N 0.43866 0.14584 0.79004 0.0
H1104 H 0.71659 0.01485 0.84451 0.0
H1105 H 0.65279 0.9893 0.68988 0.0
H1106 H 0.67909 0.08298 0.79213 0.0
H1107 H 0.69207 0.91934 0.7384 0.0
H1108 H 0.66977 0.02508 0.72468 0.0
H1109 H 0.71467 0.98078 0.80435 0.0
C1110 C 0.70836 0.02279 0.82451 0.0
C1111 C 0.69755 0.05173 0.82185 0.0
C1112 C 0.67533 1.00203 0.72759 0.0
C1113 C 0.69525 0.01287 0.77585 0.0
C1114 C 0.66588 0.98166 0.70752 0.0
C1115 C 0.67148 0.95149 0.7111 0.0
C1116 C 0.68986 0.99215 0.75197 0.0
C1117 C 0.68786 0.94255 0.73466 0.0
C1118 C 0.7072 0.00329 0.8016 0.0
C1119 C 0.68715 0.06075 0.79539 0.0
N1120 N 0.6961 0.96275 0.75449 0.0
N1121 N 0.68605 0.04141 0.77363 0.0
H1122 H 0.91604 0.71271 0.7479 0.0
H1123 H 0.09088 0.70394 0.76737 0.0
H1124 H 0.95859 0.69048 0.82633 0.0
H1125 H 0.04677 0.69799 0.68716 0.0
H1126 H 0.04334 0.71264 0.78989 0.0
H1127 H 0.96436 0.72099 0.72684 0.0
C1128 C 0.93549 0.71013 0.76093 0.0
C1129 C 0.93315 0.7004 0.7889 0.0
C1130 C 0.04412 0.70987 0.76732 0.0
C1131 C 0.9887 0.70985 0.76468 0.0
C1132 C 0.07129 0.70511 0.75435 0.0
C1133 C 0.07278 0.69975 0.72531 0.0
C1134 C 0.01821 0.70961 0.75114 0.0
C1135 C 0.04659 0.70155 0.70963 0.0
C1136 C 0.9631 0.71475 0.74877 0.0
C1137 C 0.95925 0.69776 0.80468 0.0
N1138 N 0.02034 0.70603 0.72278 0.0
N1139 N 0.98595 0.7021 0.79225 0.0
H1140 H 0.31383 0.03957 0.67131 0.0
H1141 H 0.3089 0.95497 0.81879 0.0
H1142 H 0.3387 0.07696 0.75115 0.0
H1143 H 0.28866 0.91245 0.74002 0.0
H1144 H 0.30928 0.00261 0.7948 0.0
H1145 H 0.29464 0.99564 0.69619 0.0
C1146 C 0.31457 0.03881 0.69404 0.0
C1147 C 0.3281 0.06164 0.70923 0.0
C1148 C 0.30427 0.98296 0.78275 0.0
C1149 C 0.30651 0.0119 0.73769 0.0
C1150 C 0.30391 0.95573 0.79653 0.0
C1151 C 0.29922 0.92962 0.78136 0.0
C1152 C 0.30017 0.98417 0.75346 0.0
C1153 C 0.2926 0.932 0.75255 0.0
C1154 C 0.30381 0.01376 0.70823 0.0
C1155 C 0.32876 0.05962 0.73863 0.0
N1156 N 0.29383 0.95872 0.73942 0.0
N1157 N 0.3184 0.03517 0.75181 0.0
H1158 H 0.9313 0.36109 0.68193 0.0
H1159 H 0.03136 0.314 0.81405 0.0
H1160 H 0.90257 0.2966 0.74292 0.0
H1161 H 0.04154 0.3956 0.76806 0.0
H1162 H 0.98847 0.3018 0.78424 0.0
H1163 H 0.97684 0.36789 0.70879 0.0
C1164 C 0.93455 0.3482 0.70084 0.0
C1165 C 0.91261 0.3287 0.71039 0.0
C1166 C 1.00022 0.32233 0.78074 0.0
C1167 C 0.96513 0.33615 0.74122 0.0
C1168 C 0.02467 0.3293 0.79774 0.0
C1169 C 0.04 0.35599 0.7938 0.0
C1170 C 0.99142 0.34195 0.75934 0.0
C1171 C 0.03035 0.3749 0.77219 0.0
C1172 C 0.96062 0.35212 0.71622 0.0
C1173 C 0.91861 0.31216 0.73483 0.0
N1174 N 0.00687 0.3675 0.75583 0.0
N1175 N 0.94416 0.31636 0.74946 0.0
H1176 H 0.35403 0.92134 0.26235 0.0
H1177 H 0.4396 0.07114 0.28754 0.0
H1178 H 0.44176 0.93452 0.22908 0.0
H1179 H 0.34755 0.06778 0.26336 0.0
H1180 H 0.44321 0.01827 0.27891 0.0
H1181 H 0.35449 0.97244 0.27901 0.0
C1182 C 0.37361 0.93466 0.25912 0.0
C1183 C 0.39756 0.92381 0.24366 0.0
C1184 C 0.42232 0.02931 0.27554 0.0
C1185 C 0.3983 0.98164 0.26301 0.0
C1186 C 0.42023 0.05959 0.27996 0.0
C1187 C 0.39311 0.07416 0.27624 0.0
C1188 C 0.39704 0.01347 0.26794 0.0
C1189 C 0.36874 0.05753 0.26708 0.0
C1190 C 0.37378 0.96371 0.26854 0.0
C1191 C 0.42275 0.94179 0.24085 0.0
N1192 N 0.3712 0.02795 0.26353 0.0
N1193 N 0.42232 0.97005 0.25014 0.0
H1194 H 0.08511 0.36152 0.26712 0.0
H1195 H 0.93958 0.33685 0.23127 0.0
H1196 H 0.07562 0.29876 0.19941 0.0
H1197 H 0.95956 0.31814 0.31807 0.0
H1198 H 0.98758 0.31648 0.21815 0.0
H1199 H 0.0414 0.34063 0.289 0.0
C1200 C 0.07457 0.34271 0.25727 0.0
C1201 C 0.08317 0.33297 0.23061 0.0
C1202 C 0.98088 0.31567 0.23997 0.0
C1203 C 0.03263 0.30981 0.25507 0.0
C1204 C 0.95354 0.32735 0.2474 0.0
C1205 C 0.94638 0.33027 0.2758 0.0
C1206 C 1.00102 0.30784 0.2612 0.0
C1207 C 0.96505 0.31735 0.29596 0.0
C1208 C 0.04951 0.33076 0.2698 0.0
C1209 C 0.06864 0.30818 0.21918 0.0
N1210 N 0.99219 0.30782 0.28843 0.0
N1211 N 0.04313 0.29834 0.23075 0.0
H1212 H 0.68532 0.92513 0.24645 0.0
H1213 H 0.69967 0.07166 0.2943 0.0
H1214 H 0.72813 0.93706 0.3267 0.0
H1215 H 0.72139 0.0545 0.20788 0.0
H1216 H 0.7213 0.02411 0.3073 0.0
H1217 H 0.70952 0.96964 0.22951 0.0
C1218 C 0.70068 0.93643 0.26021 0.0
C1219 C 0.70343 0.92834 0.28849 0.0
C1220 C 0.72264 0.0313 0.28564 0.0
C1221 C 0.73025 0.97983 0.26961 0.0
C1222 C 0.7103 0.05846 0.27831 0.0
C1223 C 0.70812 0.06627 0.25 0.0
C1224 C 0.73171 0.01185 0.26429 0.0
C1225 C 0.72214 0.04859 0.22992 0.0
C1226 C 0.71454 0.96199 0.25054 0.0
C1227 C 0.72408 0.94363 0.30517 0.0
N1228 N 0.73241 0.02157 0.23727 0.0
N1229 N 0.73572 0.96949 0.29592 0.0
H1230 H 0.92486 0.67082 0.25473 0.0
H1231 H 0.06605 0.57695 0.2937 0.0
H1232 H 0.93129 0.57821 0.23366 0.0
H1233 H 0.07121 0.66869 0.26868 0.0
H1234 H 0.0142 0.57634 0.28029 0.0
H1235 H 0.97602 0.66962 0.27109 0.0
C1236 C 0.93681 0.65016 0.25392 0.0
C1237 C 0.92384 0.6247 0.24242 0.0
C1238 C 0.02685 0.59648 0.27757 0.0
C1239 C 0.98197 0.62322 0.2613 0.0
C1240 C 0.05659 0.59682 0.28481 0.0
C1241 C 0.07319 0.62297 0.28228 0.0
C1242 C 0.01352 0.62255 0.26821 0.0
C1243 C 0.05924 0.64818 0.27141 0.0
C1244 C 0.96595 0.64956 0.26314 0.0
C1245 C 0.94018 0.59835 0.24254 0.0
N1246 N 0.03007 0.64743 0.26503 0.0
N1247 N 0.96852 0.59834 0.25166 0.0
loop_
_geom_bond_atom_site_label_1
_geom_bond_atom_site_label_2
_geom_bond_distance
_geom_bond_site_symmetry_2
_ccdc_geom_bond_type
C0 C1 1.351 . S
C0 N3 1.368 . S
C0 H5 0.931 . S
C1 C0 1.351 . S
C1 N2 1.373 . S
C1 H29 0.930 . S
N2 C1 1.373 . S
N2 C4 1.340 . S
N3 C0 1.368 . S
N3 C4 1.321 . S
N3 Co6 2.135 . S
C4 N2 1.340 . S
C4 N3 1.321 . S
C4 H28 0.930 . S
H5 C0 0.931 . S
Co6 N3 2.135 . S
Co6 N9 2.121 . S
Co6 O14 2.055 . S
Co6 O17 2.039 . S
Co6 N20 2.140 . S
C7 O8 1.227 . S
C7 O17 1.265 . S
O8 C7 1.227 . S
N9 Co6 2.121 . S
N9 C11 1.375 . S
N9 C12 1.313 . S
C10 C11 1.338 . S
C10 N13 1.377 . S
C10 H30 0.930 . S
C11 N9 1.375 . S
C11 C10 1.338 . S
C11 H15 0.931 . S
C12 N9 1.313 . S
C12 N13 1.344 . S
C12 H16 0.930 . S
N13 C10 1.377 . S
N13 C12 1.344 . S
O14 Co6 2.055 . S
O14 C18 1.253 . S
H15 C11 0.931 . S
H16 C12 0.930 . S
O17 Co6 2.039 . S
O17 C7 1.265 . S
C18 O14 1.253 . S
C18 O19 1.227 . S
O19 C18 1.227 . S
N20 Co6 2.140 . S
N20 C23 1.346 . S
N20 C24 1.345 . S
C21 C22 1.387 . S
C21 C25 1.391 . S
C22 C21 1.387 . S
C22 C23 1.369 . S
C22 H31 0.929 . S
C23 N20 1.346 . S
C23 C22 1.369 . S
C23 H26 0.928 . S
C24 N20 1.345 . S
C24 C25 1.371 . S
C24 H27 0.931 . S
C25 C21 1.391 . S
C25 C24 1.371 . S
C25 H32 0.930 . S
H26 C23 0.928 . S
H27 C24 0.931 . S
H28 C4 0.930 . S
H29 C1 0.930 . S
H30 C10 0.930 . S
H31 C22 0.929 . S
H32 C25 0.930 . S
C33 C34 1.351 . S
C33 N36 1.368 . S
C33 H38 0.931 . S
C34 C33 1.351 . S
C34 N35 1.373 . S
C34 H62 0.930 . S
N35 C34 1.373 . S
N35 C37 1.340 . S
N36 C33 1.368 . S
N36 C37 1.321 . S
N36 Co39 2.135 . S
C37 N35 1.340 . S
C37 N36 1.321 . S
C37 H61 0.930 . S
H38 C33 0.931 . S
Co39 N36 2.135 . S
Co39 N42 2.121 . S
Co39 O47 2.055 . S
Co39 O50 2.039 . S
Co39 N53 2.140 . S
C40 O41 1.227 . S
C40 O50 1.265 . S
O41 C40 1.227 . S
N42 Co39 2.121 . S
N42 C44 1.375 . S
N42 C45 1.313 . S
C43 C44 1.338 . S
C43 N46 1.377 . S
C43 H63 0.930 . S
C44 N42 1.375 . S
C44 C43 1.338 . S
C44 H48 0.931 . S
C45 N42 1.313 . S
C45 N46 1.344 . S
C45 H49 0.930 . S
N46 C43 1.377 . S
N46 C45 1.344 . S
O47 Co39 2.055 . S
O47 C51 1.253 . S
H48 C44 0.931 . S
H49 C45 0.930 . S
O50 Co39 2.039 . S
O50 C40 1.265 . S
C51 O47 1.253 . S
C51 O52 1.227 . S
O52 C51 1.227 . S
N53 Co39 2.140 . S
N53 C56 1.346 . S
N53 C57 1.345 . S
C54 C55 1.387 . S
C54 C58 1.391 . S
C55 C54 1.387 . S
C55 C56 1.369 . S
C55 H64 0.929 . S
C56 N53 1.346 . S
C56 C55 1.369 . S
C56 H59 0.928 . S
C57 N53 1.345 . S
C57 C58 1.371 . S
C57 H60 0.931 . S
C58 C54 1.391 . S
C58 C57 1.371 . S
C58 H65 0.930 . S
H59 C56 0.928 . S
H60 C57 0.931 . S
H61 C37 0.930 . S
H62 C34 0.930 . S
H63 C43 0.930 . S
H64 C55 0.929 . S
H65 C58 0.930 . S
C66 C67 1.351 . S
C66 N69 1.368 . S
C66 H71 0.931 . S
C67 C66 1.351 . S
C67 N68 1.373 . S
C67 H95 0.930 . S
N68 C67 1.373 . S
N68 C70 1.340 . S
N69 C66 1.368 . S
N69 C70 1.321 . S
N69 Co72 2.135 . S
C70 N68 1.340 . S
C70 N69 1.321 . S
C70 H94 0.930 . S
H71 C66 0.931 . S
Co72 N69 2.135 . S
Co72 N75 2.121 . S
Co72 O80 2.055 . S
Co72 O83 2.039 . S
Co72 N86 2.140 . S
C73 O74 1.227 . S
C73 O83 1.265 . S
O74 C73 1.227 . S
N75 Co72 2.121 . S
N75 C77 1.375 . S
N75 C78 1.313 . S
C76 C77 1.338 . S
C76 N79 1.377 . S
C76 H96 0.930 . S
C77 N75 1.375 . S
C77 C76 1.338 . S
C77 H81 0.931 . S
C78 N75 1.313 . S
C78 N79 1.344 . S
C78 H82 0.930 . S
N79 C76 1.377 . S
N79 C78 1.344 . S
O80 Co72 2.055 . S
O80 C84 1.253 . S
H81 C77 0.931 . S
H82 C78 0.930 . S
O83 Co72 2.039 . S
O83 C73 1.265 . S
C84 O80 1.253 . S
C84 O85 1.227 . S
O85 C84 1.227 . S
N86 Co72 2.140 . S
N86 C89 1.346 . S
N86 C90 1.345 . S
C87 C88 1.387 . S
C87 C91 1.391 . S
C88 C87 1.387 . S
C88 C89 1.369 . S
C88 H97 0.929 . S
C89 N86 1.346 . S
C89 C88 1.369 . S
C89 H92 0.928 . S
C90 N86 1.345 . S
C90 C91 1.371 . S
C90 H93 0.931 . S
C91 C87 1.391 . S
C91 C90 1.371 . S
C91 H98 0.930 . S
H92 C89 0.928 . S
H93 C90 0.931 . S
H94 C70 0.930 . S
H95 C67 0.930 . S
H96 C76 0.930 . S
H97 C88 0.929 . S
H98 C91 0.930 . S
C99 C100 1.351 . S
C99 N102 1.368 . S
C99 H104 0.931 . S
C100 C99 1.351 . S
C100 N101 1.373 . S
C100 H128 0.930 . S
N101 C100 1.373 . S
N101 C103 1.340 . S
N102 C99 1.368 . S
N102 C103 1.321 . S
N102 Co105 2.135 . S
C103 N101 1.340 . S
C103 N102 1.321 . S
C103 H127 0.930 . S
H104 C99 0.931 . S
Co105 N102 2.135 . S
Co105 N108 2.121 . S
Co105 O113 2.055 . S
Co105 O116 2.039 . S
Co105 N119 2.140 . S
C106 O107 1.227 . S
C106 O116 1.265 . S
O107 C106 1.227 . S
N108 Co105 2.121 . S
N108 C110 1.375 . S
N108 C111 1.313 . S
C109 C110 1.338 . S
C109 N112 1.377 . S
C109 H129 0.930 . S
C110 N108 1.375 . S
C110 C109 1.338 . S
C110 H114 0.931 . S
C111 N108 1.313 . S
C111 N112 1.344 . S
C111 H115 0.930 . S
N112 C109 1.377 . S
N112 C111 1.344 . S
O113 Co105 2.055 . S
O113 C117 1.253 . S
H114 C110 0.931 . S
H115 C111 0.930 . S
O116 Co105 2.039 . S
O116 C106 1.265 . S
C117 O113 1.253 . S
C117 O118 1.227 . S
O118 C117 1.227 . S
N119 Co105 2.140 . S
N119 C122 1.346 . S
N119 C123 1.345 . S
C120 C121 1.387 . S
C120 C124 1.391 . S
C121 C120 1.387 . S
C121 C122 1.369 . S
C121 H130 0.929 . S
C122 N119 1.346 . S
C122 C121 1.369 . S
C122 H125 0.928 . S
C123 N119 1.345 . S
C123 C124 1.371 . S
C123 H126 0.931 . S
C124 C120 1.391 . S
C124 C123 1.371 . S
C124 H131 0.930 . S
H125 C122 0.928 . S
H126 C123 0.931 . S
H127 C103 0.930 . S
H128 C100 0.930 . S
H129 C109 0.930 . S
H130 C121 0.929 . S
H131 C124 0.930 . S
C132 C133 1.351 . S
C132 N135 1.368 . S
C132 H137 0.931 . S
C133 C132 1.351 . S
C133 N134 1.373 . S
C133 H161 0.930 . S
N134 C133 1.373 . S
N134 C136 1.340 . S
N135 C132 1.368 . S
N135 C136 1.321 . S
N135 Co138 2.135 . S
C136 N134 1.340 . S
C136 N135 1.321 . S
C136 H160 0.930 . S
H137 C132 0.931 . S
Co138 N135 2.135 . S
Co138 N141 2.121 . S
Co138 O146 2.055 . S
Co138 O149 2.039 . S
Co138 N152 2.140 . S
C139 O140 1.227 . S
C139 O149 1.265 . S
O140 C139 1.227 . S
N141 Co138 2.121 . S
N141 C143 1.375 . S
N141 C144 1.313 . S
C142 C143 1.338 . S
C142 N145 1.377 . S
C142 H162 0.930 . S
C143 N141 1.375 . S
C143 C142 1.338 . S
C143 H147 0.931 . S
C144 N141 1.313 . S
C144 N145 1.344 . S
C144 H148 0.930 . S
N145 C142 1.377 . S
N145 C144 1.344 . S
O146 Co138 2.055 . S
O146 C150 1.253 . S
H147 C143 0.931 . S
H148 C144 0.930 . S
O149 Co138 2.039 . S
O149 C139 1.265 . S
C150 O146 1.253 . S
C150 O151 1.227 . S
O151 C150 1.227 . S
N152 Co138 2.140 . S
N152 C155 1.346 . S
N152 C156 1.345 . S
C153 C154 1.387 . S
C153 C157 1.391 . S
C154 C153 1.387 . S
C154 C155 1.369 . S
C154 H163 0.929 . S
C155 N152 1.346 . S
C155 C154 1.369 . S
C155 H158 0.928 . S
C156 N152 1.345 . S
C156 C157 1.371 . S
C156 H159 0.931 . S
C157 C153 1.391 . S
C157 C156 1.371 . S
C157 H164 0.930 . S
H158 C155 0.928 . S
H159 C156 0.931 . S
H160 C136 0.930 . S
H161 C133 0.930 . S
H162 C142 0.930 . S
H163 C154 0.929 . S
H164 C157 0.930 . S
C165 C166 1.351 . S
C165 N168 1.368 . S
C165 H170 0.931 . S
C166 C165 1.351 . S
C166 N167 1.373 . S
C166 H194 0.930 . S
N167 C166 1.373 . S
N167 C169 1.340 . S
N168 C165 1.368 . S
N168 C169 1.321 . S
N168 Co171 2.135 . S
C169 N167 1.340 . S
C169 N168 1.321 . S
C169 H193 0.930 . S
H170 C165 0.931 . S
Co171 N168 2.135 . S
Co171 N174 2.121 . S
Co171 O179 2.055 . S
Co171 O182 2.039 . S
Co171 N185 2.140 . S
C172 O173 1.227 . S
C172 O182 1.265 . S
O173 C172 1.227 . S
N174 Co171 2.121 . S
N174 C176 1.375 . S
N174 C177 1.313 . S
C175 C176 1.338 . S
C175 N178 1.377 . S
C175 H195 0.930 . S
C176 N174 1.375 . S
C176 C175 1.338 . S
C176 H180 0.931 . S
C177 N174 1.313 . S
C177 N178 1.344 . S
C177 H181 0.930 . S
N178 C175 1.377 . S
N178 C177 1.344 . S
O179 Co171 2.055 . S
O179 C183 1.253 . S
H180 C176 0.931 . S
H181 C177 0.930 . S
O182 Co171 2.039 . S
O182 C172 1.265 . S
C183 O179 1.253 . S
C183 O184 1.227 . S
O184 C183 1.227 . S
N185 Co171 2.140 . S
N185 C188 1.346 . S
N185 C189 1.345 . S
C186 C187 1.387 . S
C186 C190 1.391 . S
C187 C186 1.387 . S
C187 C188 1.369 . S
C187 H196 0.929 . S
C188 N185 1.346 . S
C188 C187 1.369 . S
C188 H191 0.928 . S
C189 N185 1.345 . S
C189 C190 1.371 . S
C189 H192 0.931 . S
C190 C186 1.391 . S
C190 C189 1.371 . S
C190 H197 0.930 . S
H191 C188 0.928 . S
H192 C189 0.931 . S
H193 C169 0.930 . S
H194 C166 0.930 . S
H195 C175 0.930 . S
H196 C187 0.929 . S
H197 C190 0.930 . S
C198 C199 1.351 . S
C198 N201 1.368 . S
C198 H203 0.931 . S
C199 C198 1.351 . S
C199 N200 1.373 . S
C199 H227 0.930 . S
N200 C199 1.373 . S
N200 C202 1.340 . S
N201 C198 1.368 . S
N201 C202 1.321 . S
N201 Co204 2.135 . S
C202 N200 1.340 . S
C202 N201 1.321 . S
C202 H226 0.930 . S
H203 C198 0.931 . S
Co204 N201 2.135 . S
Co204 N207 2.121 . S
Co204 O212 2.055 . S
Co204 O215 2.039 . S
Co204 N218 2.140 . S
C205 O206 1.227 . S
C205 O215 1.265 . S
O206 C205 1.227 . S
N207 Co204 2.121 . S
N207 C209 1.375 . S
N207 C210 1.313 . S
C208 C209 1.338 . S
C208 N211 1.377 . S
C208 H228 0.930 . S
C209 N207 1.375 . S
C209 C208 1.338 . S
C209 H213 0.931 . S
C210 N207 1.313 . S
C210 N211 1.344 . S
C210 H214 0.930 . S
N211 C208 1.377 . S
N211 C210 1.344 . S
O212 Co204 2.055 . S
O212 C216 1.253 . S
H213 C209 0.931 . S
H214 C210 0.930 . S
O215 Co204 2.039 . S
O215 C205 1.265 . S
C216 O212 1.253 . S
C216 O217 1.227 . S
O217 C216 1.227 . S
N218 Co204 2.140 . S
N218 C221 1.346 . S
N218 C222 1.345 . S
C219 C220 1.387 . S
C219 C223 1.391 . S
C220 C219 1.387 . S
C220 C221 1.369 . S
C220 H229 0.929 . S
C221 N218 1.346 . S
C221 C220 1.369 . S
C221 H224 0.928 . S
C222 N218 1.345 . S
C222 C223 1.371 . S
C222 H225 0.931 . S
C223 C219 1.391 . S
C223 C222 1.371 . S
C223 H230 0.930 . S
H224 C221 0.928 . S
H225 C222 0.931 . S
H226 C202 0.930 . S
H227 C199 0.930 . S
H228 C208 0.930 . S
H229 C220 0.929 . S
H230 C223 0.930 . S
C231 C232 1.351 . S
C231 N234 1.368 . S
C231 H236 0.931 . S
C232 C231 1.351 . S
C232 N233 1.373 . S
C232 H260 0.930 . S
N233 C232 1.373 . S
N233 C235 1.340 . S
N234 C231 1.368 . S
N234 C235 1.321 . S
N234 Co237 2.135 . S
C235 N233 1.340 . S
C235 N234 1.321 . S
C235 H259 0.930 . S
H236 C231 0.931 . S
Co237 N234 2.135 . S
Co237 N240 2.121 . S
Co237 O245 2.055 . S
Co237 O248 2.039 . S
Co237 N251 2.140 . S
C238 O239 1.227 . S
C238 O248 1.265 . S
O239 C238 1.227 . S
N240 Co237 2.121 . S
N240 C242 1.375 . S
N240 C243 1.313 . S
C241 C242 1.338 . S
C241 N244 1.377 . S
C241 H261 0.930 . S
C242 N240 1.375 . S
C242 C241 1.338 . S
C242 H246 0.931 . S
C243 N240 1.313 . S
C243 N244 1.344 . S
C243 H247 0.930 . S
N244 C241 1.377 . S
N244 C243 1.344 . S
O245 Co237 2.055 . S
O245 C249 1.253 . S
H246 C242 0.931 . S
H247 C243 0.930 . S
O248 Co237 2.039 . S
O248 C238 1.265 . S
C249 O245 1.253 . S
C249 O250 1.227 . S
O250 C249 1.227 . S
N251 Co237 2.140 . S
N251 C254 1.346 . S
N251 C255 1.345 . S
C252 C253 1.387 . S
C252 C256 1.391 . S
C253 C252 1.387 . S
C253 C254 1.369 . S
C253 H262 0.929 . S
C254 N251 1.346 . S
C254 C253 1.369 . S
C254 H257 0.928 . S
C255 N251 1.345 . S
C255 C256 1.371 . S
C255 H258 0.931 . S
C256 C252 1.391 . S
C256 C255 1.371 . S
C256 H263 0.930 . S
H257 C254 0.928 . S
H258 C255 0.931 . S
H259 C235 0.930 . S
H260 C232 0.930 . S
H261 C241 0.930 . S
H262 C253 0.929 . S
H263 C256 0.930 . S
C264 C265 1.351 . S
C264 N267 1.368 . S
C264 H269 0.931 . S
C265 C264 1.351 . S
C265 N266 1.373 . S
C265 H293 0.930 . S
N266 C265 1.373 . S
N266 C268 1.340 . S
N267 C264 1.368 . S
N267 C268 1.321 . S
N267 Co270 2.135 . S
C268 N266 1.340 . S
C268 N267 1.321 . S
C268 H292 0.930 . S
H269 C264 0.931 . S
Co270 N267 2.135 . S
Co270 N273 2.121 . S
Co270 O278 2.055 . S
Co270 O281 2.039 . S
Co270 N284 2.140 . S
C271 O272 1.227 . S
C271 O281 1.265 . S
O272 C271 1.227 . S
N273 Co270 2.121 . S
N273 C275 1.375 . S
N273 C276 1.313 . S
C274 C275 1.338 . S
C274 N277 1.377 . S
C274 H294 0.930 . S
C275 N273 1.375 . S
C275 C274 1.338 . S
C275 H279 0.931 . S
C276 N273 1.313 . S
C276 N277 1.344 . S
C276 H280 0.930 . S
N277 C274 1.377 . S
N277 C276 1.344 . S
O278 Co270 2.055 . S
O278 C282 1.253 . S
H279 C275 0.931 . S
H280 C276 0.930 . S
O281 Co270 2.039 . S
O281 C271 1.265 . S
C282 O278 1.253 . S
C282 O283 1.227 . S
O283 C282 1.227 . S
N284 Co270 2.140 . S
N284 C287 1.346 . S
N284 C288 1.345 . S
C285 C286 1.387 . S
C285 C289 1.391 . S
C286 C285 1.387 . S
C286 C287 1.369 . S
C286 H295 0.929 . S
C287 N284 1.346 . S
C287 C286 1.369 . S
C287 H290 0.928 . S
C288 N284 1.345 . S
C288 C289 1.371 . S
C288 H291 0.931 . S
C289 C285 1.391 . S
C289 C288 1.371 . S
C289 H296 0.930 . S
H290 C287 0.928 . S
H291 C288 0.931 . S
H292 C268 0.930 . S
H293 C265 0.930 . S
H294 C274 0.930 . S
H295 C286 0.929 . S
H296 C289 0.930 . S
C297 C298 1.351 . S
C297 N300 1.368 . S
C297 H302 0.931 . S
C298 C297 1.351 . S
C298 N299 1.373 . S
C298 H326 0.930 . S
N299 C298 1.373 . S
N299 C301 1.340 . S
N300 C297 1.368 . S
N300 C301 1.321 . S
N300 Co303 2.135 . S
C301 N299 1.340 . S
C301 N300 1.321 . S
C301 H325 0.930 . S
H302 C297 0.931 . S
Co303 N300 2.135 . S
Co303 N306 2.121 . S
Co303 O311 2.055 . S
Co303 O314 2.039 . S
Co303 N317 2.140 . S
C304 O305 1.227 . S
C304 O314 1.265 . S
O305 C304 1.227 . S
N306 Co303 2.121 . S
N306 C308 1.375 . S
N306 C309 1.313 . S
C307 C308 1.338 . S
C307 N310 1.377 . S
C307 H327 0.930 . S
C308 N306 1.375 . S
C308 C307 1.338 . S
C308 H312 0.931 . S
C309 N306 1.313 . S
C309 N310 1.344 . S
C309 H313 0.930 . S
N310 C307 1.377 . S
N310 C309 1.344 . S
O311 Co303 2.055 . S
O311 C315 1.253 . S
H312 C308 0.931 . S
H313 C309 0.930 . S
O314 Co303 2.039 . S
O314 C304 1.265 . S
C315 O311 1.253 . S
C315 O316 1.227 . S
O316 C315 1.227 . S
N317 Co303 2.140 . S
N317 C320 1.346 . S
N317 C321 1.345 . S
C318 C319 1.387 . S
C318 C322 1.391 . S
C319 C318 1.387 . S
C319 C320 1.369 . S
C319 H328 0.929 . S
C320 N317 1.346 . S
C320 C319 1.369 . S
C320 H323 0.928 . S
C321 N317 1.345 . S
C321 C322 1.371 . S
C321 H324 0.931 . S
C322 C318 1.391 . S
C322 C321 1.371 . S
C322 H329 0.930 . S
H323 C320 0.928 . S
H324 C321 0.931 . S
H325 C301 0.930 . S
H326 C298 0.930 . S
H327 C307 0.930 . S
H328 C319 0.929 . S
H329 C322 0.930 . S
C330 C331 1.351 . S
C330 N333 1.368 . S
C330 H335 0.931 . S
C331 C330 1.351 . S
C331 N332 1.373 . S
C331 H359 0.930 . S
N332 C331 1.373 . S
N332 C334 1.340 . S
N333 C330 1.368 . S
N333 C334 1.321 . S
N333 Co336 2.135 . S
C334 N332 1.340 . S
C334 N333 1.321 . S
C334 H358 0.930 . S
H335 C330 0.931 . S
Co336 N333 2.135 . S
Co336 N339 2.121 . S
Co336 O344 2.055 . S
Co336 O347 2.039 . S
Co336 N350 2.140 . S
C337 O338 1.227 . S
C337 O347 1.265 . S
O338 C337 1.227 . S
N339 Co336 2.121 . S
N339 C341 1.375 . S
N339 C342 1.313 . S
C340 C341 1.338 . S
C340 N343 1.377 . S
C340 H360 0.930 . S
C341 N339 1.375 . S
C341 C340 1.338 . S
C341 H345 0.931 . S
C342 N339 1.313 . S
C342 N343 1.344 . S
C342 H346 0.930 . S
N343 C340 1.377 . S
N343 C342 1.344 . S
O344 Co336 2.055 . S
O344 C348 1.253 . S
H345 C341 0.931 . S
H346 C342 0.930 . S
O347 Co336 2.039 . S
O347 C337 1.265 . S
C348 O344 1.253 . S
C348 O349 1.227 . S
O349 C348 1.227 . S
N350 Co336 2.140 . S
N350 C353 1.346 . S
N350 C354 1.345 . S
C351 C352 1.387 . S
C351 C355 1.391 . S
C352 C351 1.387 . S
C352 C353 1.369 . S
C352 H361 0.929 . S
C353 N350 1.346 . S
C353 C352 1.369 . S
C353 H356 0.928 . S
C354 N350 1.345 . S
C354 C355 1.371 . S
C354 H357 0.931 . S
C355 C351 1.391 . S
C355 C354 1.371 . S
C355 H362 0.930 . S
H356 C353 0.928 . S
H357 C354 0.931 . S
H358 C334 0.930 . S
H359 C331 0.930 . S
H360 C340 0.930 . S
H361 C352 0.929 . S
H362 C355 0.930 . S
C363 C364 1.351 . S
C363 N366 1.368 . S
C363 H368 0.931 . S
C364 C363 1.351 . S
C364 N365 1.373 . S
C364 H392 0.930 . S
N365 C364 1.373 . S
N365 C367 1.340 . S
N366 C363 1.368 . S
N366 C367 1.321 . S
N366 Co369 2.135 . S
C367 N365 1.340 . S
C367 N366 1.321 . S
C367 H391 0.930 . S
H368 C363 0.931 . S
Co369 N366 2.135 . S
Co369 N372 2.121 . S
Co369 O377 2.055 . S
Co369 O380 2.039 . S
Co369 N383 2.140 . S
C370 O371 1.227 . S
C370 O380 1.265 . S
O371 C370 1.227 . S
N372 Co369 2.121 . S
N372 C374 1.375 . S
N372 C375 1.313 . S
C373 C374 1.338 . S
C373 N376 1.377 . S
C373 H393 0.930 . S
C374 N372 1.375 . S
C374 C373 1.338 . S
C374 H378 0.931 . S
C375 N372 1.313 . S
C375 N376 1.344 . S
C375 H379 0.930 . S
N376 C373 1.377 . S
N376 C375 1.344 . S
O377 Co369 2.055 . S
O377 C381 1.253 . S
H378 C374 0.931 . S
H379 C375 0.930 . S
O380 Co369 2.039 . S
O380 C370 1.265 . S
C381 O377 1.253 . S
C381 O382 1.227 . S
O382 C381 1.227 . S
N383 Co369 2.140 . S
N383 C386 1.346 . S
N383 C387 1.345 . S
C384 C385 1.387 . S
C384 C388 1.391 . S
C385 C384 1.387 . S
C385 C386 1.369 . S
C385 H394 0.929 . S
C386 N383 1.346 . S
C386 C385 1.369 . S
C386 H389 0.928 . S
C387 N383 1.345 . S
C387 C388 1.371 . S
C387 H390 0.931 . S
C388 C384 1.391 . S
C388 C387 1.371 . S
C388 H395 0.930 . S
H389 C386 0.928 . S
H390 C387 0.931 . S
H391 C367 0.930 . S
H392 C364 0.930 . S
H393 C373 0.930 . S
H394 C385 0.929 . S
H395 C388 0.930 . S
C396 C397 1.351 . S
C396 N399 1.368 . S
C396 H401 0.931 . S
C397 C396 1.351 . S
C397 N398 1.373 . S
C397 H425 0.930 . S
N398 C397 1.373 . S
N398 C400 1.340 . S
N399 C396 1.368 . S
N399 C400 1.321 . S
N399 Co402 2.135 . S
C400 N398 1.340 . S
C400 N399 1.321 . S
C400 H424 0.930 . S
H401 C396 0.931 . S
Co402 N399 2.135 . S
Co402 N405 2.121 . S
Co402 O410 2.055 . S
Co402 O413 2.039 . S
Co402 N416 2.140 . S
C403 O404 1.227 . S
C403 O413 1.265 . S
O404 C403 1.227 . S
N405 Co402 2.121 . S
N405 C407 1.375 . S
N405 C408 1.313 . S
C406 C407 1.338 . S
C406 N409 1.377 . S
C406 H426 0.930 . S
C407 N405 1.375 . S
C407 C406 1.338 . S
C407 H411 0.931 . S
C408 N405 1.313 . S
C408 N409 1.344 . S
C408 H412 0.930 . S
N409 C406 1.377 . S
N409 C408 1.344 . S
O410 Co402 2.055 . S
O410 C414 1.253 . S
H411 C407 0.931 . S
H412 C408 0.930 . S
O413 Co402 2.039 . S
O413 C403 1.265 . S
C414 O410 1.253 . S
C414 O415 1.227 . S
O415 C414 1.227 . S
N416 Co402 2.140 . S
N416 C419 1.346 . S
N416 C420 1.345 . S
C417 C418 1.387 . S
C417 C421 1.391 . S
C418 C417 1.387 . S
C418 C419 1.369 . S
C418 H427 0.929 . S
C419 N416 1.346 . S
C419 C418 1.369 . S
C419 H422 0.928 . S
C420 N416 1.345 . S
C420 C421 1.371 . S
C420 H423 0.931 . S
C421 C417 1.391 . S
C421 C420 1.371 . S
C421 H428 0.930 . S
H422 C419 0.928 . S
H423 C420 0.931 . S
H424 C400 0.930 . S
H425 C397 0.930 . S
H426 C406 0.930 . S
H427 C418 0.929 . S
H428 C421 0.930 . S
C429 C430 1.351 . S
C429 N432 1.368 . S
C429 H434 0.931 . S
C430 C429 1.351 . S
C430 N431 1.373 . S
C430 H458 0.930 . S
N431 C430 1.373 . S
N431 C433 1.340 . S
N432 C429 1.368 . S
N432 C433 1.321 . S
N432 Co435 2.135 . S
C433 N431 1.340 . S
C433 N432 1.321 . S
C433 H457 0.930 . S
H434 C429 0.931 . S
Co435 N432 2.135 . S
Co435 N438 2.121 . S
Co435 O443 2.055 . S
Co435 O446 2.039 . S
Co435 N449 2.140 . S
C436 O437 1.227 . S
C436 O446 1.265 . S
O437 C436 1.227 . S
N438 Co435 2.121 . S
N438 C440 1.375 . S
N438 C441 1.313 . S
C439 C440 1.338 . S
C439 N442 1.377 . S
C439 H459 0.930 . S
C440 N438 1.375 . S
C440 C439 1.338 . S
C440 H444 0.931 . S
C441 N438 1.313 . S
C441 N442 1.344 . S
C441 H445 0.930 . S
N442 C439 1.377 . S
N442 C441 1.344 . S
O443 Co435 2.055 . S
O443 C447 1.253 . S
H444 C440 0.931 . S
H445 C441 0.930 . S
O446 Co435 2.039 . S
O446 C436 1.265 . S
C447 O443 1.253 . S
C447 O448 1.227 . S
O448 C447 1.227 . S
N449 Co435 2.140 . S
N449 C452 1.346 . S
N449 C453 1.345 . S
C450 C451 1.387 . S
C450 C454 1.391 . S
C451 C450 1.387 . S
C451 C452 1.369 . S
C451 H460 0.929 . S
C452 N449 1.346 . S
C452 C451 1.369 . S
C452 H455 0.928 . S
C453 N449 1.345 . S
C453 C454 1.371 . S
C453 H456 0.931 . S
C454 C450 1.391 . S
C454 C453 1.371 . S
C454 H461 0.930 . S
H455 C452 0.928 . S
H456 C453 0.931 . S
H457 C433 0.930 . S
H458 C430 0.930 . S
H459 C439 0.930 . S
H460 C451 0.929 . S
H461 C454 0.930 . S
C462 C463 1.351 . S
C462 N465 1.368 . S
C462 H467 0.931 . S
C463 C462 1.351 . S
C463 N464 1.373 . S
C463 H491 0.930 . S
N464 C463 1.373 . S
N464 C466 1.340 . S
N465 C462 1.368 . S
N465 C466 1.321 . S
N465 Co468 2.135 . S
C466 N464 1.340 . S
C466 N465 1.321 . S
C466 H490 0.930 . S
H467 C462 0.931 . S
Co468 N465 2.135 . S
Co468 N471 2.121 . S
Co468 O476 2.055 . S
Co468 O479 2.039 . S
Co468 N482 2.140 . S
C469 O470 1.227 . S
C469 O479 1.265 . S
O470 C469 1.227 . S
N471 Co468 2.121 . S
N471 C473 1.375 . S
N471 C474 1.313 . S
C472 C473 1.338 . S
C472 N475 1.377 . S
C472 H492 0.930 . S
C473 N471 1.375 . S
C473 C472 1.338 . S
C473 H477 0.931 . S
C474 N471 1.313 . S
C474 N475 1.344 . S
C474 H478 0.930 . S
N475 C472 1.377 . S
N475 C474 1.344 . S
O476 Co468 2.055 . S
O476 C480 1.253 . S
H477 C473 0.931 . S
H478 C474 0.930 . S
O479 Co468 2.039 . S
O479 C469 1.265 . S
C480 O476 1.253 . S
C480 O481 1.227 . S
O481 C480 1.227 . S
N482 Co468 2.140 . S
N482 C485 1.346 . S
N482 C486 1.345 . S
C483 C484 1.387 . S
C483 C487 1.391 . S
C484 C483 1.387 . S
C484 C485 1.369 . S
C484 H493 0.929 . S
C485 N482 1.346 . S
C485 C484 1.369 . S
C485 H488 0.928 . S
C486 N482 1.345 . S
C486 C487 1.371 . S
C486 H489 0.931 . S
C487 C483 1.391 . S
C487 C486 1.371 . S
C487 H494 0.930 . S
H488 C485 0.928 . S
H489 C486 0.931 . S
H490 C466 0.930 . S
H491 C463 0.930 . S
H492 C472 0.930 . S
H493 C484 0.929 . S
H494 C487 0.930 . S
C495 C496 1.351 . S
C495 N498 1.368 . S
C495 H500 0.931 . S
C496 C495 1.351 . S
C496 N497 1.373 . S
C496 H524 0.930 . S
N497 C496 1.373 . S
N497 C499 1.340 . S
N498 C495 1.368 . S
N498 C499 1.321 . S
N498 Co501 2.135 . S
C499 N497 1.340 . S
C499 N498 1.321 . S
C499 H523 0.930 . S
H500 C495 0.931 . S
Co501 N498 2.135 . S
Co501 N504 2.121 . S
Co501 O509 2.055 . S
Co501 O512 2.039 . S
Co501 N515 2.140 . S
C502 O503 1.227 . S
C502 O512 1.265 . S
O503 C502 1.227 . S
N504 Co501 2.121 . S
N504 C506 1.375 . S
N504 C507 1.313 . S
C505 C506 1.338 . S
C505 N508 1.377 . S
C505 H525 0.930 . S
C506 N504 1.375 . S
C506 C505 1.338 . S
C506 H510 0.931 . S
C507 N504 1.313 . S
C507 N508 1.344 . S
C507 H511 0.930 . S
N508 C505 1.377 . S
N508 C507 1.344 . S
O509 Co501 2.055 . S
O509 C513 1.253 . S
H510 C506 0.931 . S
H511 C507 0.930 . S
O512 Co501 2.039 . S
O512 C502 1.265 . S
C513 O509 1.253 . S
C513 O514 1.227 . S
O514 C513 1.227 . S
N515 Co501 2.140 . S
N515 C518 1.346 . S
N515 C519 1.345 . S
C516 C517 1.387 . S
C516 C520 1.391 . S
C517 C516 1.387 . S
C517 C518 1.369 . S
C517 H526 0.929 . S
C518 N515 1.346 . S
C518 C517 1.369 . S
C518 H521 0.928 . S
C519 N515 1.345 . S
C519 C520 1.371 . S
C519 H522 0.931 . S
C520 C516 1.391 . S
C520 C519 1.371 . S
C520 H527 0.930 . S
H521 C518 0.928 . S
H522 C519 0.931 . S
H523 C499 0.930 . S
H524 C496 0.930 . S
H525 C505 0.930 . S
H526 C517 0.929 . S
H527 C520 0.930 . S
H528 C534 0.930 . S
H529 C538 0.930 . S
H530 C543 0.929 . S
H531 C541 0.929 . S
H532 C536 0.929 . S
H533 C542 0.929 . S
C534 H528 0.930 . S
C534 C535 1.367 . S
C534 C542 1.378 . S
C535 C534 1.367 . S
C535 C543 1.433 . S
C536 H532 0.929 . S
C536 C538 1.378 . S
C536 C540 1.350 . S
C537 C540 1.463 1_655 S
C537 C542 1.350 . S
C537 N545 1.427 . S
C538 H529 0.930 . S
C538 C536 1.378 . S
C538 C539 1.367 . S
C539 C538 1.367 . S
C539 C541 1.433 . S
C540 C536 1.350 . S
C540 C537 1.463 1_455 S
C540 N544 1.427 . S
C541 H531 0.929 . S
C541 C539 1.433 . S
C541 N544 1.384 . S
C542 H533 0.929 . S
C542 C534 1.378 . S
C542 C537 1.350 . S
C543 H530 0.929 . S
C543 C535 1.433 . S
C543 N545 1.384 . S
N544 C540 1.427 . S
N544 C541 1.384 . S
N545 C537 1.427 . S
N545 C543 1.384 . S
H546 C552 0.930 . S
H547 C556 0.930 . S
H548 C561 0.929 . S
H549 C559 0.929 . S
H550 C554 0.929 . S
H551 C560 0.929 . S
C552 H546 0.930 . S
C552 C553 1.367 . S
C552 C560 1.378 . S
C553 C552 1.367 . S
C553 C561 1.433 . S
C554 H550 0.929 . S
C554 C556 1.378 . S
C554 C558 1.350 . S
C555 C558 1.463 1_545 S
C555 C560 1.350 . S
C555 N563 1.427 . S
C556 H547 0.930 . S
C556 C554 1.378 . S
C556 C557 1.367 . S
C557 C556 1.367 . S
C557 C559 1.433 . S
C558 C554 1.350 . S
C558 C555 1.463 1_565 S
C558 N562 1.427 . S
C559 H549 0.929 . S
C559 C557 1.433 . S
C559 N562 1.384 . S
C560 H551 0.929 . S
C560 C552 1.378 . S
C560 C555 1.350 . S
C561 H548 0.929 . S
C561 C553 1.433 . S
C561 N563 1.384 . S
N562 C558 1.427 . S
N562 C559 1.384 . S
N563 C555 1.427 . S
N563 C561 1.384 . S
H564 C570 0.930 . S
H565 C574 0.930 . S
H566 C579 0.929 . S
H567 C577 0.929 . S
H568 C572 0.929 . S
H569 C578 0.929 . S
C570 H564 0.930 . S
C570 C571 1.367 . S
C570 C578 1.378 . S
C571 C570 1.367 . S
C571 C579 1.433 . S
C572 H568 0.929 . S
C572 C574 1.378 . S
C572 C576 1.350 . S
C573 C576 1.463 1_655 S
C573 C578 1.350 . S
C573 N581 1.427 . S
C574 H565 0.930 . S
C574 C572 1.378 . S
C574 C575 1.367 . S
C575 C574 1.367 . S
C575 C577 1.433 . S
C576 C572 1.350 . S
C576 C573 1.463 1_455 S
C576 N580 1.427 . S
C577 H567 0.929 . S
C577 C575 1.433 . S
C577 N580 1.384 . S
C578 H569 0.929 . S
C578 C570 1.378 . S
C578 C573 1.350 . S
C579 H566 0.929 . S
C579 C571 1.433 . S
C579 N581 1.384 . S
N580 C576 1.427 . S
N580 C577 1.384 . S
N581 C573 1.427 . S
N581 C579 1.384 . S
H582 C588 0.930 . S
H583 C592 0.930 . S
H584 C597 0.929 . S
H585 C595 0.929 . S
H586 C590 0.929 . S
H587 C596 0.929 . S
C588 H582 0.930 . S
C588 C589 1.367 . S
C588 C596 1.378 . S
C589 C588 1.367 . S
C589 C597 1.433 . S
C590 H586 0.929 . S
C590 C592 1.378 . S
C590 C594 1.350 . S
C591 C594 1.463 1_565 S
C591 C596 1.350 . S
C591 N599 1.427 . S
C592 H583 0.930 . S
C592 C590 1.378 . S
C592 C593 1.367 . S
C593 C592 1.367 . S
C593 C595 1.433 . S
C594 C590 1.350 . S
C594 C591 1.463 1_545 S
C594 N598 1.427 . S
C595 H585 0.929 . S
C595 C593 1.433 . S
C595 N598 1.384 . S
C596 H587 0.929 . S
C596 C588 1.378 . S
C596 C591 1.350 . S
C597 H584 0.929 . S
C597 C589 1.433 . S
C597 N599 1.384 . S
N598 C594 1.427 . S
N598 C595 1.384 . S
N599 C591 1.427 . S
N599 C597 1.384 . S
H600 C606 0.930 . S
H601 C610 0.930 . S
H602 C615 0.929 . S
H603 C613 0.929 . S
H604 C608 0.929 . S
H605 C614 0.929 . S
C606 H600 0.930 . S
C606 C607 1.367 . S
C606 C614 1.378 . S
C607 C606 1.367 . S
C607 C615 1.433 . S
C608 H604 0.929 . S
C608 C610 1.378 . S
C608 C612 1.350 . S
C609 C612 1.463 1_655 S
C609 C614 1.350 . S
C609 N617 1.427 . S
C610 H601 0.930 . S
C610 C608 1.378 . S
C610 C611 1.367 . S
C611 C610 1.367 . S
C611 C613 1.433 . S
C612 C608 1.350 . S
C612 C609 1.463 1_455 S
C612 N616 1.427 . S
C613 H603 0.929 . S
C613 C611 1.433 . S
C613 N616 1.384 . S
C614 H605 0.929 . S
C614 C606 1.378 . S
C614 C609 1.350 . S
C615 H602 0.929 . S
C615 C607 1.433 . S
C615 N617 1.384 . S
N616 C612 1.427 . S
N616 C613 1.384 . S
N617 C609 1.427 . S
N617 C615 1.384 . S
H618 C624 0.930 . S
H619 C628 0.930 . S
H620 C633 0.929 . S
H621 C631 0.929 . S
H622 C626 0.929 . S
H623 C632 0.929 . S
C624 H618 0.930 . S
C624 C625 1.367 . S
C624 C632 1.378 1_565 S
C625 C624 1.367 . S
C625 C633 1.433 . S
C626 H622 0.929 . S
C626 C628 1.378 1_565 S
C626 C630 1.350 1_565 S
C627 C630 1.463 1_565 S
C627 C632 1.350 1_565 S
C627 N635 1.427 . S
C628 H619 0.930 . S
C628 C626 1.378 1_545 S
C628 C629 1.367 . S
C629 C628 1.367 . S
C629 C631 1.433 . S
C630 C626 1.350 1_545 S
C630 C627 1.463 1_545 S
C630 N634 1.427 . S
C631 H621 0.929 . S
C631 C629 1.433 . S
C631 N634 1.384 . S
C632 H623 0.929 . S
C632 C624 1.378 1_545 S
C632 C627 1.350 1_545 S
C633 H620 0.929 . S
C633 C625 1.433 . S
C633 N635 1.384 . S
N634 C630 1.427 . S
N634 C631 1.384 . S
N635 C627 1.427 . S
N635 C633 1.384 . S
H636 C642 0.930 . S
H637 C646 0.930 . S
H638 C651 0.929 . S
H639 C649 0.929 . S
H640 C644 0.929 . S
H641 C650 0.929 . S
C642 H636 0.930 . S
C642 C643 1.367 . S
C642 C650 1.378 . S
C643 C642 1.367 . S
C643 C651 1.433 . S
C644 H640 0.929 . S
C644 C646 1.378 . S
C644 C648 1.350 . S
C645 C648 1.463 1_655 S
C645 C650 1.350 . S
C645 N653 1.427 1_655 S
C646 H637 0.930 . S
C646 C644 1.378 . S
C646 C647 1.367 . S
C647 C646 1.367 . S
C647 C649 1.433 . S
C648 C644 1.350 . S
C648 C645 1.463 1_455 S
C648 N652 1.427 1_455 S
C649 H639 0.929 . S
C649 C647 1.433 . S
C649 N652 1.384 1_455 S
C650 H641 0.929 . S
C650 C642 1.378 . S
C650 C645 1.350 . S
C651 H638 0.929 . S
C651 C643 1.433 . S
C651 N653 1.384 1_655 S
N652 C648 1.427 1_655 S
N652 C649 1.384 1_655 S
N653 C645 1.427 1_455 S
N653 C651 1.384 1_455 S
H654 C660 0.930 . S
H655 C664 0.930 . S
H656 C669 0.942 . S
H657 C667 0.942 . S
H658 C662 0.929 . S
H659 C668 0.929 . S
C660 H654 0.930 . S
C660 C661 1.367 . S
C660 C668 1.378 . S
C661 C660 1.367 . S
C661 C669 1.433 . S
C662 H658 0.929 . S
C662 C664 1.378 . S
C662 C666 1.350 . S
C663 C666 1.463 1_545 S
C663 C668 1.350 . S
C663 N671 1.427 1_545 S
C664 H655 0.930 . S
C664 C662 1.378 . S
C664 C665 1.367 . S
C665 C664 1.367 . S
C665 C667 1.433 . S
C666 C662 1.350 . S
C666 C663 1.463 1_565 S
C666 N670 1.427 1_565 S
C667 H657 0.942 . S
C667 C665 1.433 . S
C667 N670 1.384 1_565 S
C668 H659 0.929 . S
C668 C660 1.378 . S
C668 C663 1.350 . S
C669 H656 0.942 . S
C669 C661 1.433 . S
C669 N671 1.384 1_545 S
N670 C666 1.427 1_545 S
N670 C667 1.384 1_545 S
N671 C663 1.427 1_565 S
N671 C669 1.384 1_565 S
H672 C678 0.930 . S
H673 C682 0.930 . S
H674 C687 0.929 . S
H675 C685 0.929 . S
H676 C680 0.929 . S
H677 C686 0.929 . S
C678 H672 0.930 . S
C678 C679 1.367 . S
C678 C686 1.378 . S
C679 C678 1.367 . S
C679 C687 1.433 . S
C680 H676 0.929 . S
C680 C682 1.378 . S
C680 C684 1.350 . S
C681 C684 1.463 . S
C681 C686 1.350 . S
C681 N689 1.427 . S
C682 H673 0.930 . S
C682 C680 1.378 . S
C682 C683 1.367 . S
C683 C682 1.367 . S
C683 C685 1.433 . S
C684 C680 1.350 . S
C684 C681 1.463 . S
C684 N688 1.427 . S
C685 H675 0.929 . S
C685 C683 1.433 . S
C685 N688 1.384 . S
C686 H677 0.929 . S
C686 C678 1.378 . S
C686 C681 1.350 . S
C687 H674 0.929 . S
C687 C679 1.433 . S
C687 N689 1.384 . S
N688 C684 1.427 . S
N688 C685 1.384 . S
N689 C681 1.427 . S
N689 C687 1.384 . S
H690 C696 0.930 . S
H691 C700 0.930 . S
H692 C705 0.929 . S
H693 C703 0.929 . S
H694 C698 0.929 . S
H695 C704 0.929 . S
C696 H690 0.930 . S
C696 C697 1.367 . S
C696 C704 1.378 . S
C697 C696 1.367 . S
C697 C705 1.433 . S
C698 H694 0.929 . S
C698 C700 1.378 . S
C698 C702 1.350 . S
C699 C702 1.463 . S
C699 C704 1.350 . S
C699 N707 1.427 . S
C700 H691 0.930 . S
C700 C698 1.378 . S
C700 C701 1.367 . S
C701 C700 1.367 . S
C701 C703 1.433 . S
C702 C698 1.350 . S
C702 C699 1.463 . S
C702 N706 1.427 . S
C703 H693 0.929 . S
C703 C701 1.433 . S
C703 N706 1.384 . S
C704 H695 0.929 . S
C704 C696 1.378 . S
C704 C699 1.350 . S
C705 H692 0.929 . S
C705 C697 1.433 . S
C705 N707 1.384 . S
N706 C702 1.427 . S
N706 C703 1.384 . S
N707 C699 1.427 . S
N707 C705 1.384 . S
H708 C714 0.930 . S
H709 C718 0.930 . S
H710 C723 0.929 . S
H711 C721 0.929 . S
H712 C716 0.929 . S
H713 C722 0.929 . S
C714 H708 0.930 . S
C714 C715 1.367 . S
C714 C722 1.378 . S
C715 C714 1.367 . S
C715 C723 1.433 . S
C716 H712 0.929 . S
C716 C718 1.378 . S
C716 C720 1.350 . S
C717 C720 1.463 . S
C717 C722 1.350 . S
C717 N725 1.427 . S
C718 H709 0.930 . S
C718 C716 1.378 . S
C718 C719 1.367 . S
C719 C718 1.367 . S
C719 C721 1.433 . S
C720 C716 1.350 . S
C720 C717 1.463 . S
C720 N724 1.427 . S
C721 H711 0.929 . S
C721 C719 1.433 . S
C721 N724 1.384 . S
C722 H713 0.929 . S
C722 C714 1.378 . S
C722 C717 1.350 . S
C723 H710 0.929 . S
C723 C715 1.433 . S
C723 N725 1.384 . S
N724 C720 1.427 . S
N724 C721 1.384 . S
N725 C717 1.427 . S
N725 C723 1.384 . S
H726 C732 0.930 . S
H727 C736 0.930 . S
H728 C741 0.929 . S
H729 C739 0.929 . S
H730 C734 0.929 . S
H731 C740 0.929 . S
C732 H726 0.930 . S
C732 C733 1.367 . S
C732 C740 1.378 . S
C733 C732 1.367 . S
C733 C741 1.433 . S
C734 H730 0.929 . S
C734 C736 1.378 . S
C734 C738 1.350 . S
C735 C738 1.463 . S
C735 C740 1.350 . S
C735 N743 1.427 . S
C736 H727 0.930 . S
C736 C734 1.378 . S
C736 C737 1.367 . S
C737 C736 1.367 . S
C737 C739 1.433 . S
C738 C734 1.350 . S
C738 C735 1.463 . S
C738 N742 1.427 . S
C739 H729 0.929 . S
C739 C737 1.433 . S
C739 N742 1.384 . S
C740 H731 0.929 . S
C740 C732 1.378 . S
C740 C735 1.350 . S
C741 H728 0.929 . S
C741 C733 1.433 . S
C741 N743 1.384 . S
N742 C738 1.427 . S
N742 C739 1.384 . S
N743 C735 1.427 . S
N743 C741 1.384 . S
H744 C750 0.930 . S
H745 C754 0.930 . S
H746 C759 0.929 . S
H747 C757 0.929 . S
H748 C752 0.929 . S
H749 C758 0.929 . S
C750 H744 0.930 . S
C750 C751 1.367 . S
C750 C758 1.378 . S
C751 C750 1.367 . S
C751 C759 1.433 . S
C752 H748 0.929 . S
C752 C754 1.378 . S
C752 C756 1.350 . S
C753 C756 1.463 . S
C753 C758 1.350 . S
C753 N761 1.427 . S
C754 H745 0.930 . S
C754 C752 1.378 . S
C754 C755 1.367 . S
C755 C754 1.367 . S
C755 C757 1.433 . S
C756 C752 1.350 . S
C756 C753 1.463 . S
C756 N760 1.427 . S
C757 H747 0.929 . S
C757 C755 1.433 . S
C757 N760 1.384 . S
C758 H749 0.929 . S
C758 C750 1.378 . S
C758 C753 1.350 . S
C759 H746 0.929 . S
C759 C751 1.433 . S
C759 N761 1.384 . S
N760 C756 1.427 . S
N760 C757 1.384 . S
N761 C753 1.427 . S
N761 C759 1.384 . S
H762 C768 0.930 . S
H763 C772 0.930 . S
H764 C777 0.929 . S
H765 C775 0.929 . S
H766 C770 0.929 . S
H767 C776 0.929 . S
C768 H762 0.930 . S
C768 C769 1.367 . S
C768 C776 1.378 . S
C769 C768 1.367 . S
C769 C777 1.433 . S
C770 H766 0.929 . S
C770 C772 1.378 . S
C770 C774 1.350 . S
C771 C774 1.463 . S
C771 C776 1.350 . S
C771 N779 1.427 . S
C772 H763 0.930 . S
C772 C770 1.378 . S
C772 C773 1.367 . S
C773 C772 1.367 . S
C773 C775 1.433 . S
C774 C770 1.350 . S
C774 C771 1.463 . S
C774 N778 1.427 . S
C775 H765 0.929 . S
C775 C773 1.433 . S
C775 N778 1.384 . S
C776 H767 0.929 . S
C776 C768 1.378 . S
C776 C771 1.350 . S
C777 H764 0.929 . S
C777 C769 1.433 . S
C777 N779 1.384 . S
N778 C774 1.427 . S
N778 C775 1.384 . S
N779 C771 1.427 . S
N779 C777 1.384 . S
H780 C786 0.930 . S
H781 C790 0.930 . S
H782 C795 0.929 . S
H783 C793 0.929 . S
H784 C788 0.929 . S
H785 C794 0.929 . S
C786 H780 0.930 . S
C786 C787 1.367 . S
C786 C794 1.378 . S
C787 C786 1.367 . S
C787 C795 1.433 . S
C788 H784 0.929 . S
C788 C790 1.378 . S
C788 C792 1.350 . S
C789 C792 1.463 . S
C789 C794 1.350 . S
C789 N797 1.427 . S
C790 H781 0.930 . S
C790 C788 1.378 . S
C790 C791 1.367 . S
C791 C790 1.367 . S
C791 C793 1.433 . S
C792 C788 1.350 . S
C792 C789 1.463 . S
C792 N796 1.427 . S
C793 H783 0.929 . S
C793 C791 1.433 . S
C793 N796 1.384 . S
C794 H785 0.929 . S
C794 C786 1.378 . S
C794 C789 1.350 . S
C795 H782 0.929 . S
C795 C787 1.433 . S
C795 N797 1.384 . S
N796 C792 1.427 . S
N796 C793 1.384 . S
N797 C789 1.427 . S
N797 C795 1.384 . S
H798 C804 0.930 . S
H799 C808 0.930 . S
H800 C813 0.929 . S
H801 C811 0.929 . S
H802 C806 0.929 . S
H803 C812 0.929 . S
C804 H798 0.930 . S
C804 C805 1.367 . S
C804 C812 1.378 . S
C805 C804 1.367 . S
C805 C813 1.433 . S
C806 H802 0.929 . S
C806 C808 1.378 . S
C806 C810 1.350 . S
C807 C810 1.463 . S
C807 C812 1.350 . S
C807 N815 1.427 . S
C808 H799 0.930 . S
C808 C806 1.378 . S
C808 C809 1.367 . S
C809 C808 1.367 . S
C809 C811 1.433 . S
C810 C806 1.350 . S
C810 C807 1.463 . S
C810 N814 1.427 . S
C811 H801 0.929 . S
C811 C809 1.433 . S
C811 N814 1.384 . S
C812 H803 0.929 . S
C812 C804 1.378 . S
C812 C807 1.350 . S
C813 H800 0.929 . S
C813 C805 1.433 . S
C813 N815 1.384 . S
N814 C810 1.427 . S
N814 C811 1.384 . S
N815 C807 1.427 . S
N815 C813 1.384 . S
H816 C822 0.930 . S
H817 C826 0.930 . S
H818 C831 0.929 . S
H819 C829 0.929 . S
H820 C824 0.929 . S
H821 C830 0.929 . S
C822 H816 0.930 . S
C822 C823 1.367 . S
C822 C830 1.378 . S
C823 C822 1.367 . S
C823 C831 1.433 . S
C824 H820 0.929 . S
C824 C826 1.378 . S
C824 C828 1.350 . S
C825 C828 1.463 1_554 S
C825 C830 1.350 . S
C825 N833 1.427 . S
C826 H817 0.930 . S
C826 C824 1.378 . S
C826 C827 1.367 . S
C827 C826 1.367 . S
C827 C829 1.433 . S
C828 C824 1.350 . S
C828 C825 1.463 1_556 S
C828 N832 1.427 . S
C829 H819 0.929 . S
C829 C827 1.433 . S
C829 N832 1.384 . S
C830 H821 0.929 . S
C830 C822 1.378 . S
C830 C825 1.350 . S
C831 H818 0.929 . S
C831 C823 1.433 . S
C831 N833 1.384 . S
N832 C828 1.427 . S
N832 C829 1.384 . S
N833 C825 1.427 . S
N833 C831 1.384 . S
H834 C840 0.930 . S
H835 C844 0.930 . S
H836 C849 0.929 . S
H837 C847 0.929 . S
H838 C842 0.929 . S
H839 C848 0.929 . S
C840 H834 0.930 . S
C840 C841 1.367 . S
C840 C848 1.378 . S
C841 C840 1.367 . S
C841 C849 1.433 . S
C842 H838 0.929 . S
C842 C844 1.378 . S
C842 C846 1.350 . S
C843 C846 1.463 1_556 S
C843 C848 1.350 . S
C843 N851 1.427 . S
C844 H835 0.930 . S
C844 C842 1.378 . S
C844 C845 1.367 . S
C845 C844 1.367 . S
C845 C847 1.433 . S
C846 C842 1.350 . S
C846 C843 1.463 1_554 S
C846 N850 1.427 . S
C847 H837 0.929 . S
C847 C845 1.433 . S
C847 N850 1.384 . S
C848 H839 0.929 . S
C848 C840 1.378 . S
C848 C843 1.350 . S
C849 H836 0.929 . S
C849 C841 1.433 . S
C849 N851 1.384 . S
N850 C846 1.427 . S
N850 C847 1.384 . S
N851 C843 1.427 . S
N851 C849 1.384 . S
H852 C858 0.930 . S
H853 C862 0.930 . S
H854 C867 0.929 . S
H855 C865 0.929 . S
H856 C860 0.929 . S
H857 C866 0.929 . S
C858 H852 0.930 . S
C858 C859 1.367 . S
C858 C866 1.378 . S
C859 C858 1.367 . S
C859 C867 1.433 . S
C860 H856 0.929 . S
C860 C862 1.378 . S
C860 C864 1.350 . S
C861 C864 1.463 1_556 S
C861 C866 1.350 . S
C861 N869 1.427 . S
C862 H853 0.930 . S
C862 C860 1.378 . S
C862 C863 1.367 . S
C863 C862 1.367 . S
C863 C865 1.433 . S
C864 C860 1.350 . S
C864 C861 1.463 1_554 S
C864 N868 1.427 . S
C865 H855 0.929 . S
C865 C863 1.433 . S
C865 N868 1.384 . S
C866 H857 0.929 . S
C866 C858 1.378 . S
C866 C861 1.350 . S
C867 H854 0.929 . S
C867 C859 1.433 . S
C867 N869 1.384 . S
N868 C864 1.427 . S
N868 C865 1.384 . S
N869 C861 1.427 . S
N869 C867 1.384 . S
H870 C876 0.930 . S
H871 C880 0.930 . S
H872 C885 0.929 . S
H873 C883 0.929 . S
H874 C878 0.929 . S
H875 C884 0.929 . S
C876 H870 0.930 . S
C876 C877 1.367 . S
C876 C884 1.378 . S
C877 C876 1.367 . S
C877 C885 1.433 . S
C878 H874 0.929 . S
C878 C880 1.378 . S
C878 C882 1.350 . S
C879 C882 1.463 1_556 S
C879 C884 1.350 . S
C879 N887 1.427 . S
C880 H871 0.930 . S
C880 C878 1.378 . S
C880 C881 1.367 . S
C881 C880 1.367 . S
C881 C883 1.433 . S
C882 C878 1.350 . S
C882 C879 1.463 1_554 S
C882 N886 1.427 . S
C883 H873 0.929 . S
C883 C881 1.433 . S
C883 N886 1.384 . S
C884 H875 0.929 . S
C884 C876 1.378 . S
C884 C879 1.350 . S
C885 H872 0.929 . S
C885 C877 1.433 . S
C885 N887 1.384 . S
N886 C882 1.427 . S
N886 C883 1.384 . S
N887 C879 1.427 . S
N887 C885 1.384 . S
H888 C894 0.930 . S
H889 C898 0.930 . S
H890 C903 0.929 . S
H891 C901 0.929 . S
H892 C896 0.929 . S
H893 C902 0.929 . S
C894 H888 0.930 . S
C894 C895 1.367 . S
C894 C902 1.378 . S
C895 C894 1.367 . S
C895 C903 1.433 . S
C896 H892 0.929 . S
C896 C898 1.378 . S
C896 C900 1.350 . S
C897 C900 1.463 . S
C897 C902 1.350 . S
C897 N905 1.427 . S
C898 H889 0.930 . S
C898 C896 1.378 . S
C898 C899 1.367 . S
C899 C898 1.367 . S
C899 C901 1.433 . S
C900 C896 1.350 . S
C900 C897 1.463 . S
C900 N904 1.427 . S
C901 H891 0.929 . S
C901 C899 1.433 . S
C901 N904 1.384 . S
C902 H893 0.929 . S
C902 C894 1.378 . S
C902 C897 1.350 . S
C903 H890 0.929 . S
C903 C895 1.433 . S
C903 N905 1.384 . S
N904 C900 1.427 . S
N904 C901 1.384 . S
N905 C897 1.427 . S
N905 C903 1.384 . S
H906 C912 0.930 . S
H907 C916 0.930 . S
H908 C921 0.929 . S
H909 C919 0.929 . S
H910 C914 0.929 . S
H911 C920 0.929 . S
C912 H906 0.930 . S
C912 C913 1.367 . S
C912 C920 1.378 . S
C913 C912 1.367 . S
C913 C921 1.433 . S
C914 H910 0.929 . S
C914 C916 1.378 . S
C914 C918 1.350 . S
C915 C918 1.463 . S
C915 C920 1.350 . S
C915 N923 1.427 . S
C916 H907 0.930 . S
C916 C914 1.378 . S
C916 C917 1.367 . S
C917 C916 1.367 . S
C917 C919 1.433 . S
C918 C914 1.350 . S
C918 C915 1.463 . S
C918 N922 1.427 . S
C919 H909 0.929 . S
C919 C917 1.433 . S
C919 N922 1.384 . S
C920 H911 0.929 . S
C920 C912 1.378 . S
C920 C915 1.350 . S
C921 H908 0.929 . S
C921 C913 1.433 . S
C921 N923 1.384 . S
N922 C918 1.427 . S
N922 C919 1.384 . S
N923 C915 1.427 . S
N923 C921 1.384 . S
H924 C930 0.930 . S
H925 C934 0.930 . S
H926 C939 0.929 . S
H927 C937 0.929 . S
H928 C932 0.929 . S
H929 C938 0.929 . S
C930 H924 0.930 . S
C930 C931 1.367 . S
C930 C938 1.378 . S
C931 C930 1.367 . S
C931 C939 1.433 . S
C932 H928 0.929 . S
C932 C934 1.378 . S
C932 C936 1.350 . S
C933 C936 1.463 . S
C933 C938 1.350 . S
C933 N941 1.427 . S
C934 H925 0.930 . S
C934 C932 1.378 . S
C934 C935 1.367 . S
C935 C934 1.367 . S
C935 C937 1.433 . S
C936 C932 1.350 . S
C936 C933 1.463 . S
C936 N940 1.427 . S
C937 H927 0.929 . S
C937 C935 1.433 . S
C937 N940 1.384 . S
C938 H929 0.929 . S
C938 C930 1.378 . S
C938 C933 1.350 . S
C939 H926 0.929 . S
C939 C931 1.433 . S
C939 N941 1.384 . S
N940 C936 1.427 . S
N940 C937 1.384 . S
N941 C933 1.427 . S
N941 C939 1.384 . S
H942 C948 0.930 . S
H943 C952 0.930 . S
H944 C957 0.929 . S
H945 C955 0.929 . S
H946 C950 0.929 . S
H947 C956 0.929 . S
C948 H942 0.930 . S
C948 C949 1.367 . S
C948 C956 1.378 . S
C949 C948 1.367 . S
C949 C957 1.433 . S
C950 H946 0.929 . S
C950 C952 1.378 . S
C950 C954 1.350 . S
C951 C954 1.463 . S
C951 C956 1.350 . S
C951 N959 1.427 . S
C952 H943 0.930 . S
C952 C950 1.378 . S
C952 C953 1.367 . S
C953 C952 1.367 . S
C953 C955 1.433 . S
C954 C950 1.350 . S
C954 C951 1.463 . S
C954 N958 1.427 . S
C955 H945 0.929 . S
C955 C953 1.433 . S
C955 N958 1.384 . S
C956 H947 0.929 . S
C956 C948 1.378 . S
C956 C951 1.350 . S
C957 H944 0.929 . S
C957 C949 1.433 . S
C957 N959 1.384 . S
N958 C954 1.427 . S
N958 C955 1.384 . S
N959 C951 1.427 . S
N959 C957 1.384 . S
H960 C966 0.930 . S
H961 C970 0.930 . S
H962 C975 0.929 . S
H963 C973 0.929 . S
H964 C968 0.929 . S
H965 C974 0.929 . S
C966 H960 0.930 . S
C966 C967 1.367 . S
C966 C974 1.378 . S
C967 C966 1.367 . S
C967 C975 1.433 . S
C968 H964 0.929 . S
C968 C970 1.378 . S
C968 C972 1.350 . S
C969 C972 1.463 . S
C969 C974 1.350 . S
C969 N977 1.427 . S
C970 H961 0.930 . S
C970 C968 1.378 . S
C970 C971 1.367 . S
C971 C970 1.367 . S
C971 C973 1.433 . S
C972 C968 1.350 . S
C972 C969 1.463 . S
C972 N976 1.427 . S
C973 H963 0.929 . S
C973 C971 1.433 . S
C973 N976 1.384 . S
C974 H965 0.929 . S
C974 C966 1.378 . S
C974 C969 1.350 . S
C975 H962 0.929 . S
C975 C967 1.433 . S
C975 N977 1.384 . S
N976 C972 1.427 . S
N976 C973 1.384 . S
N977 C969 1.427 . S
N977 C975 1.384 . S
H978 C984 0.930 . S
H979 C988 0.930 . S
H980 C993 0.929 . S
H981 C991 0.929 . S
H982 C986 0.929 . S
H983 C992 0.929 . S
C984 H978 0.930 . S
C984 C985 1.367 . S
C984 C992 1.378 . S
C985 C984 1.367 . S
C985 C993 1.433 . S
C986 H982 0.929 . S
C986 C988 1.378 . S
C986 C990 1.350 . S
C987 C990 1.463 . S
C987 C992 1.350 . S
C987 N995 1.427 . S
C988 H979 0.930 . S
C988 C986 1.378 . S
C988 C989 1.367 . S
C989 C988 1.367 . S
C989 C991 1.433 . S
C990 C986 1.350 . S
C990 C987 1.463 . S
C990 N994 1.427 . S
C991 H981 0.929 . S
C991 C989 1.433 . S
C991 N994 1.384 . S
C992 H983 0.929 . S
C992 C984 1.378 . S
C992 C987 1.350 . S
C993 H980 0.929 . S
C993 C985 1.433 . S
C993 N995 1.384 . S
N994 C990 1.427 . S
N994 C991 1.384 . S
N995 C987 1.427 . S
N995 C993 1.384 . S
H996 C1002 0.930 . S
H997 C1006 0.930 . S
H998 C1011 0.929 . S
H999 C1009 0.929 . S
H1000 C1004 0.929 . S
H1001 C1010 0.929 . S
C1002 H996 0.930 . S
C1002 C1003 1.367 . S
C1002 C1010 1.378 . S
C1003 C1002 1.367 . S
C1003 C1011 1.433 . S
C1004 H1000 0.929 . S
C1004 C1006 1.378 . S
C1004 C1008 1.350 . S
C1005 C1008 1.463 . S
C1005 C1010 1.350 . S
C1005 N1013 1.427 . S
C1006 H997 0.930 . S
C1006 C1004 1.378 . S
C1006 C1007 1.367 . S
C1007 C1006 1.367 . S
C1007 C1009 1.433 . S
C1008 C1004 1.350 . S
C1008 C1005 1.463 . S
C1008 N1012 1.427 . S
C1009 H999 0.929 . S
C1009 C1007 1.433 . S
C1009 N1012 1.384 . S
C1010 H1001 0.929 . S
C1010 C1002 1.378 . S
C1010 C1005 1.350 . S
C1011 H998 0.929 . S
C1011 C1003 1.433 . S
C1011 N1013 1.384 . S
N1012 C1008 1.427 . S
N1012 C1009 1.384 . S
N1013 C1005 1.427 . S
N1013 C1011 1.384 . S
H1014 C1020 0.930 . S
H1015 C1024 0.930 . S
H1016 C1029 0.929 . S
H1017 C1027 0.929 . S
H1018 C1022 0.929 . S
H1019 C1028 0.929 . S
C1020 H1014 0.930 . S
C1020 C1021 1.367 . S
C1020 C1028 1.378 . S
C1021 C1020 1.367 . S
C1021 C1029 1.433 . S
C1022 H1018 0.929 . S
C1022 C1024 1.378 . S
C1022 C1026 1.350 . S
C1023 C1026 1.463 . S
C1023 C1028 1.350 . S
C1023 N1031 1.427 . S
C1024 H1015 0.930 . S
C1024 C1022 1.378 . S
C1024 C1025 1.367 . S
C1025 C1024 1.367 . S
C1025 C1027 1.433 . S
C1026 C1022 1.350 . S
C1026 C1023 1.463 . S
C1026 N1030 1.427 . S
C1027 H1017 0.929 . S
C1027 C1025 1.433 . S
C1027 N1030 1.384 . S
C1028 H1019 0.929 . S
C1028 C1020 1.378 . S
C1028 C1023 1.350 . S
C1029 H1016 0.929 . S
C1029 C1021 1.433 . S
C1029 N1031 1.384 . S
N1030 C1026 1.427 . S
N1030 C1027 1.384 . S
N1031 C1023 1.427 . S
N1031 C1029 1.384 . S
H1032 C1038 0.930 . S
H1033 C1042 0.930 . S
H1034 C1047 0.929 . S
H1035 C1045 0.929 . S
H1036 C1040 0.929 . S
H1037 C1046 0.929 . S
C1038 H1032 0.930 . S
C1038 C1039 1.367 . S
C1038 C1046 1.378 . S
C1039 C1038 1.367 . S
C1039 C1047 1.433 . S
C1040 H1036 0.929 . S
C1040 C1042 1.378 . S
C1040 C1044 1.350 . S
C1041 C1044 1.463 . S
C1041 C1046 1.350 . S
C1041 N1049 1.427 . S
C1042 H1033 0.930 . S
C1042 C1040 1.378 . S
C1042 C1043 1.367 . S
C1043 C1042 1.367 . S
C1043 C1045 1.433 . S
C1044 C1040 1.350 . S
C1044 C1041 1.463 . S
C1044 N1048 1.427 . S
C1045 H1035 0.929 . S
C1045 C1043 1.433 . S
C1045 N1048 1.384 . S
C1046 H1037 0.929 . S
C1046 C1038 1.378 . S
C1046 C1041 1.350 . S
C1047 H1034 0.929 . S
C1047 C1039 1.433 . S
C1047 N1049 1.384 . S
N1048 C1044 1.427 . S
N1048 C1045 1.384 . S
N1049 C1041 1.427 . S
N1049 C1047 1.384 . S
H1050 C1056 0.930 . S
H1051 C1060 0.930 . S
H1052 C1065 0.929 . S
H1053 C1063 0.929 . S
H1054 C1058 0.929 . S
H1055 C1064 0.929 . S
C1056 H1050 0.930 . S
C1056 C1057 1.367 . S
C1056 C1064 1.378 . S
C1057 C1056 1.367 . S
C1057 C1065 1.433 . S
C1058 H1054 0.929 . S
C1058 C1060 1.378 . S
C1058 C1062 1.350 . S
C1059 C1062 1.463 . S
C1059 C1064 1.350 . S
C1059 N1067 1.427 . S
C1060 H1051 0.930 . S
C1060 C1058 1.378 . S
C1060 C1061 1.367 . S
C1061 C1060 1.367 . S
C1061 C1063 1.433 . S
C1062 C1058 1.350 . S
C1062 C1059 1.463 . S
C1062 N1066 1.427 . S
C1063 H1053 0.929 . S
C1063 C1061 1.433 . S
C1063 N1066 1.384 . S
C1064 H1055 0.929 . S
C1064 C1056 1.378 . S
C1064 C1059 1.350 . S
C1065 H1052 0.929 . S
C1065 C1057 1.433 . S
C1065 N1067 1.384 . S
N1066 C1062 1.427 . S
N1066 C1063 1.384 . S
N1067 C1059 1.427 . S
N1067 C1065 1.384 . S
H1068 C1074 0.930 . S
H1069 C1078 0.930 . S
H1070 C1083 0.929 . S
H1071 C1081 0.929 . S
H1072 C1076 0.929 . S
H1073 C1082 0.929 . S
C1074 H1068 0.930 . S
C1074 C1075 1.367 . S
C1074 C1082 1.378 . S
C1075 C1074 1.367 . S
C1075 C1083 1.433 . S
C1076 H1072 0.929 . S
C1076 C1078 1.378 . S
C1076 C1080 1.350 . S
C1077 C1080 1.463 . S
C1077 C1082 1.350 . S
C1077 N1085 1.427 . S
C1078 H1069 0.930 . S
C1078 C1076 1.378 . S
C1078 C1079 1.367 . S
C1079 C1078 1.367 . S
C1079 C1081 1.433 . S
C1080 C1076 1.350 . S
C1080 C1077 1.463 . S
C1080 N1084 1.427 . S
C1081 H1071 0.929 . S
C1081 C1079 1.433 . S
C1081 N1084 1.384 . S
C1082 H1073 0.929 . S
C1082 C1074 1.378 . S
C1082 C1077 1.350 . S
C1083 H1070 0.929 . S
C1083 C1075 1.433 . S
C1083 N1085 1.384 . S
N1084 C1080 1.427 . S
N1084 C1081 1.384 . S
N1085 C1077 1.427 . S
N1085 C1083 1.384 . S
H1086 C1092 0.930 . S
H1087 C1096 0.930 . S
H1088 C1101 0.929 . S
H1089 C1099 0.929 . S
H1090 C1094 0.929 . S
H1091 C1100 0.929 . S
C1092 H1086 0.930 . S
C1092 C1093 1.367 . S
C1092 C1100 1.378 . S
C1093 C1092 1.367 . S
C1093 C1101 1.433 . S
C1094 H1090 0.929 . S
C1094 C1096 1.378 . S
C1094 C1098 1.350 . S
C1095 C1098 1.463 . S
C1095 C1100 1.350 . S
C1095 N1103 1.427 . S
C1096 H1087 0.930 . S
C1096 C1094 1.378 . S
C1096 C1097 1.367 . S
C1097 C1096 1.367 . S
C1097 C1099 1.433 . S
C1098 C1094 1.350 . S
C1098 C1095 1.463 . S
C1098 N1102 1.427 . S
C1099 H1089 0.929 . S
C1099 C1097 1.433 . S
C1099 N1102 1.384 . S
C1100 H1091 0.929 . S
C1100 C1092 1.378 . S
C1100 C1095 1.350 . S
C1101 H1088 0.929 . S
C1101 C1093 1.433 . S
C1101 N1103 1.384 . S
N1102 C1098 1.427 . S
N1102 C1099 1.384 . S
N1103 C1095 1.427 . S
N1103 C1101 1.384 . S
H1104 C1110 0.930 . S
H1105 C1114 0.930 . S
H1106 C1119 0.929 . S
H1107 C1117 0.929 . S
H1108 C1112 0.929 1_545 S
H1109 C1118 0.929 1_565 S
C1110 H1104 0.930 . S
C1110 C1111 1.367 . S
C1110 C1118 1.378 . S
C1111 C1110 1.367 . S
C1111 C1119 1.433 . S
C1112 H1108 0.929 1_565 S
C1112 C1114 1.378 . S
C1112 C1116 1.350 . S
C1113 C1116 1.463 1_545 S
C1113 C1118 1.350 . S
C1113 N1121 1.427 . S
C1114 H1105 0.930 . S
C1114 C1112 1.378 . S
C1114 C1115 1.367 . S
C1115 C1114 1.367 . S
C1115 C1117 1.433 . S
C1116 C1112 1.350 . S
C1116 C1113 1.463 1_565 S
C1116 N1120 1.427 . S
C1117 H1107 0.929 . S
C1117 C1115 1.433 . S
C1117 N1120 1.384 . S
C1118 H1109 0.929 1_545 S
C1118 C1110 1.378 . S
C1118 C1113 1.350 . S
C1119 H1106 0.929 . S
C1119 C1111 1.433 . S
C1119 N1121 1.384 . S
N1120 C1116 1.427 . S
N1120 C1117 1.384 . S
N1121 C1113 1.427 . S
N1121 C1119 1.384 . S
H1122 C1128 0.930 . S
H1123 C1132 0.930 . S
H1124 C1137 0.929 . S
H1125 C1135 0.929 . S
H1126 C1130 0.929 . S
H1127 C1136 0.929 . S
C1128 H1122 0.930 . S
C1128 C1129 1.367 . S
C1128 C1136 1.378 . S
C1129 C1128 1.367 . S
C1129 C1137 1.433 . S
C1130 H1126 0.929 . S
C1130 C1132 1.378 . S
C1130 C1134 1.350 . S
C1131 C1134 1.463 1_655 S
C1131 C1136 1.350 . S
C1131 N1139 1.427 . S
C1132 H1123 0.930 . S
C1132 C1130 1.378 . S
C1132 C1133 1.367 . S
C1133 C1132 1.367 . S
C1133 C1135 1.433 . S
C1134 C1130 1.350 . S
C1134 C1131 1.463 1_455 S
C1134 N1138 1.427 . S
C1135 H1125 0.929 . S
C1135 C1133 1.433 . S
C1135 N1138 1.384 . S
C1136 H1127 0.929 . S
C1136 C1128 1.378 . S
C1136 C1131 1.350 . S
C1137 H1124 0.929 . S
C1137 C1129 1.433 . S
C1137 N1139 1.384 . S
N1138 C1134 1.427 . S
N1138 C1135 1.384 . S
N1139 C1131 1.427 . S
N1139 C1137 1.384 . S
H1140 C1146 0.930 . S
H1141 C1150 0.930 . S
H1142 C1155 0.929 . S
H1143 C1153 0.929 . S
H1144 C1148 0.929 1_545 S
H1145 C1154 0.929 1_565 S
C1146 H1140 0.930 . S
C1146 C1147 1.367 . S
C1146 C1154 1.378 . S
C1147 C1146 1.367 . S
C1147 C1155 1.433 . S
C1148 H1144 0.929 1_565 S
C1148 C1150 1.378 . S
C1148 C1152 1.350 . S
C1149 C1152 1.463 1_545 S
C1149 C1154 1.350 . S
C1149 N1157 1.427 . S
C1150 H1141 0.930 . S
C1150 C1148 1.378 . S
C1150 C1151 1.367 . S
C1151 C1150 1.367 . S
C1151 C1153 1.433 . S
C1152 C1148 1.350 . S
C1152 C1149 1.463 1_565 S
C1152 N1156 1.427 . S
C1153 H1143 0.929 . S
C1153 C1151 1.433 . S
C1153 N1156 1.384 . S
C1154 H1145 0.929 1_545 S
C1154 C1146 1.378 . S
C1154 C1149 1.350 . S
C1155 H1142 0.929 . S
C1155 C1147 1.433 . S
C1155 N1157 1.384 . S
N1156 C1152 1.427 . S
N1156 C1153 1.384 . S
N1157 C1149 1.427 . S
N1157 C1155 1.384 . S
H1158 C1164 0.930 . S
H1159 C1168 0.930 . S
H1160 C1173 0.929 . S
H1161 C1171 0.929 . S
H1162 C1166 0.929 1_655 S
H1163 C1172 0.929 1_455 S
C1164 H1158 0.930 . S
C1164 C1165 1.367 . S
C1164 C1172 1.378 . S
C1165 C1164 1.367 . S
C1165 C1173 1.433 . S
C1166 H1162 0.929 1_455 S
C1166 C1168 1.378 . S
C1166 C1170 1.350 . S
C1167 C1170 1.463 1_655 S
C1167 C1172 1.350 . S
C1167 N1175 1.427 . S
C1168 H1159 0.930 . S
C1168 C1166 1.378 . S
C1168 C1169 1.367 . S
C1169 C1168 1.367 . S
C1169 C1171 1.433 . S
C1170 C1166 1.350 . S
C1170 C1167 1.463 1_455 S
C1170 N1174 1.427 . S
C1171 H1161 0.929 . S
C1171 C1169 1.433 . S
C1171 N1174 1.384 . S
C1172 H1163 0.929 1_655 S
C1172 C1164 1.378 . S
C1172 C1167 1.350 . S
C1173 H1160 0.929 . S
C1173 C1165 1.433 . S
C1173 N1175 1.384 . S
N1174 C1170 1.427 . S
N1174 C1171 1.384 . S
N1175 C1167 1.427 . S
N1175 C1173 1.384 . S
H1176 C1182 0.930 . S
H1177 C1186 0.930 . S
H1178 C1191 0.929 . S
H1179 C1189 0.929 . S
H1180 C1184 0.929 1_565 S
H1181 C1190 0.929 1_545 S
C1182 H1176 0.930 . S
C1182 C1183 1.367 . S
C1182 C1190 1.378 . S
C1183 C1182 1.367 . S
C1183 C1191 1.433 . S
C1184 H1180 0.929 1_545 S
C1184 C1186 1.378 . S
C1184 C1188 1.350 . S
C1185 C1188 1.463 1_565 S
C1185 C1190 1.350 . S
C1185 N1193 1.427 . S
C1186 H1177 0.930 . S
C1186 C1184 1.378 . S
C1186 C1187 1.367 . S
C1187 C1186 1.367 . S
C1187 C1189 1.433 . S
C1188 C1184 1.350 . S
C1188 C1185 1.463 1_545 S
C1188 N1192 1.427 . S
C1189 H1179 0.929 . S
C1189 C1187 1.433 . S
C1189 N1192 1.384 . S
C1190 H1181 0.929 1_565 S
C1190 C1182 1.378 . S
C1190 C1185 1.350 . S
C1191 H1178 0.929 . S
C1191 C1183 1.433 . S
C1191 N1193 1.384 . S
N1192 C1188 1.427 . S
N1192 C1189 1.384 . S
N1193 C1185 1.427 . S
N1193 C1191 1.384 . S
H1194 C1200 0.930 . S
H1195 C1204 0.930 . S
H1196 C1209 0.929 . S
H1197 C1207 0.929 . S
H1198 C1202 0.929 . S
H1199 C1208 0.929 . S
C1200 H1194 0.930 . S
C1200 C1201 1.367 . S
C1200 C1208 1.378 . S
C1201 C1200 1.367 . S
C1201 C1209 1.433 . S
C1202 H1198 0.929 . S
C1202 C1204 1.378 . S
C1202 C1206 1.350 . S
C1203 C1206 1.463 1_455 S
C1203 C1208 1.350 . S
C1203 N1211 1.427 . S
C1204 H1195 0.930 . S
C1204 C1202 1.378 . S
C1204 C1205 1.367 . S
C1205 C1204 1.367 . S
C1205 C1207 1.433 . S
C1206 C1202 1.350 . S
C1206 C1203 1.463 1_655 S
C1206 N1210 1.427 . S
C1207 H1197 0.929 . S
C1207 C1205 1.433 . S
C1207 N1210 1.384 . S
C1208 H1199 0.929 . S
C1208 C1200 1.378 . S
C1208 C1203 1.350 . S
C1209 H1196 0.929 . S
C1209 C1201 1.433 . S
C1209 N1211 1.384 . S
N1210 C1206 1.427 . S
N1210 C1207 1.384 . S
N1211 C1203 1.427 . S
N1211 C1209 1.384 . S
H1212 C1218 0.930 . S
H1213 C1222 0.930 . S
H1214 C1227 0.929 . S
H1215 C1225 0.929 . S
H1216 C1220 0.929 . S
H1217 C1226 0.929 . S
C1218 H1212 0.930 . S
C1218 C1219 1.367 . S
C1218 C1226 1.378 . S
C1219 C1218 1.367 . S
C1219 C1227 1.433 . S
C1220 H1216 0.929 . S
C1220 C1222 1.378 . S
C1220 C1224 1.350 . S
C1221 C1224 1.463 1_565 S
C1221 C1226 1.350 . S
C1221 N1229 1.427 . S
C1222 H1213 0.930 . S
C1222 C1220 1.378 . S
C1222 C1223 1.367 . S
C1223 C1222 1.367 . S
C1223 C1225 1.433 . S
C1224 C1220 1.350 . S
C1224 C1221 1.463 1_545 S
C1224 N1228 1.427 . S
C1225 H1215 0.929 . S
C1225 C1223 1.433 . S
C1225 N1228 1.384 . S
C1226 H1217 0.929 . S
C1226 C1218 1.378 . S
C1226 C1221 1.350 . S
C1227 H1214 0.929 . S
C1227 C1219 1.433 . S
C1227 N1229 1.384 . S
N1228 C1224 1.427 . S
N1228 C1225 1.384 . S
N1229 C1221 1.427 . S
N1229 C1227 1.384 . S
H1230 C1236 0.930 . S
H1231 C1240 0.930 . S
H1232 C1245 0.929 . S
H1233 C1243 0.929 . S
H1234 C1238 0.929 . S
H1235 C1244 0.929 . S
C1236 H1230 0.930 . S
C1236 C1237 1.367 . S
C1236 C1244 1.378 . S
C1237 C1236 1.367 . S
C1237 C1245 1.433 . S
C1238 H1234 0.929 . S
C1238 C1240 1.378 . S
C1238 C1242 1.350 . S
C1239 C1242 1.463 1_655 S
C1239 C1244 1.350 . S
C1239 N1247 1.427 . S
C1240 H1231 0.930 . S
C1240 C1238 1.378 . S
C1240 C1241 1.367 . S
C1241 C1240 1.367 . S
C1241 C1243 1.433 . S
C1242 C1238 1.350 . S
C1242 C1239 1.463 1_455 S
C1242 N1246 1.427 . S
C1243 H1233 0.929 . S
C1243 C1241 1.433 . S
C1243 N1246 1.384 . S
C1244 H1235 0.929 . S
C1244 C1236 1.378 . S
C1244 C1239 1.350 . S
C1245 H1232 0.929 . S
C1245 C1237 1.433 . S
C1245 N1247 1.384 . S
N1246 C1242 1.427 . S
N1246 C1243 1.384 . S
N1247 C1239 1.427 . S
N1247 C1245 1.384 . S
C535 N79 0.948 . S
C539 N13 0.917 . S
C553 N46 0.947 . S
C557 N112 0.919 . S
C571 N211 0.917 . S
C575 N145 0.948 . S
C589 N244 0.948 . S
C593 N178 0.917 . S
C607 N277 0.945 . S
C611 N343 0.919 . S
C625 N310 0.922 . S
C629 N376 0.944 . S
C643 N409 0.942 . S
C647 N475 0.922 . S
C661 N508 0.940 . S
C665 N442 0.923 . S
C679 N2 1.811 . S
C683 N167 1.812 . S
C697 N200 1.813 . S
C701 N35 1.810 . S
C715 N233 1.810 . S
C719 N68 1.814 . S
C733 N134 1.813 . S
C737 N101 1.813 . S
C751 N431 1.814 . S
C755 N266 1.812 . S
C769 N464 1.811 . S
C773 N299 1.814 . S
C787 N497 1.813 . S
C791 N332 1.813 . S
C805 N398 1.812 . S
C809 N365 1.811 . S
C823 C18 1.176 . S
C827 C348 1.173 . S
C841 C381 1.173 . S
C845 C51 1.177 . S
C859 C282 1.171 . S
C863 C84 1.171 . S
C877 C315 1.172 . S
C881 C117 1.170 . S
C895 C150 1.169 . S
C899 C480 1.173 . S
C913 C183 1.168 . S
C917 C513 1.177 . S
C931 C216 1.174 . S
C935 C414 1.169 . S
C949 C249 1.168 . S
C953 C447 1.177 . S
C967 C139 1.031 . S
C971 C7 1.035 . S
C985 C40 1.020 . S
C989 C172 1.039 . S
C1003 C205 1.031 . S
C1007 C73 1.035 . S
C1021 C238 1.029 . S
C1025 C106 1.019 . S
C1039 C285 0.555 . S
C1043 C417 0.587 . S
C1057 C450 0.577 . S
C1061 C318 0.565 . S
C1075 C351 0.566 . S
C1079 C483 0.575 . S
C1093 C516 0.583 . S
C1097 C384 0.559 . S
C1111 C370 1.034 . S
C1115 C436 1.032 . S
C1129 C271 1.018 . S
C1133 C469 1.031 . S
C1147 C502 1.025 . S
C1151 C304 1.038 . S
C1165 C403 1.039 . S
C1169 C337 1.022 . S
C1183 C120 0.573 . S
C1187 C186 0.568 . S
C1201 C21 0.570 . S
C1205 C219 0.572 . S
C1219 C252 0.569 . S
C1223 C54 0.574 . S
C1237 C87 0.588 . S
C1241 C153 0.554 . S
