# Generated by pormake.
# Topology umd, (4)-cn, num edge types: 1
# Building blocks:
#     Node 0, Type 0, BuildingBlock: CEKHIL_clean_sbu_0, # of connection points: 4
#     Node 1, Type 0, BuildingBlock: CEKHIL_clean_sbu_0, # of connection points: 4
#     Node 2, Type 0, BuildingBlock: CEKHIL_clean_sbu_0, # of connection points: 4
#     Node 3, Type 0, BuildingBlock: CEKHIL_clean_sbu_0, # of connection points: 4
#     Node 4, Type 0, BuildingBlock: CEKHIL_clean_sbu_0, # of connection points: 4
#     Node 5, Type 0, BuildingBlock: CEKHIL_clean_sbu_0, # of connection points: 4
#     Node 6, Type 0, BuildingBlock: CEKHIL_clean_sbu_0, # of connection points: 4
#     Node 7, Type 0, BuildingBlock: CEKHIL_clean_sbu_0, # of connection points: 4
#     Node 8, Type 0, BuildingBlock: CEKHIL_clean_sbu_0, # of connection points: 4
#     Node 9, Type 0, BuildingBlock: CEKHIL_clean_sbu_0, # of connection points: 4
#     Node 10, Type 0, BuildingBlock: CEKHIL_clean_sbu_0, # of connection points: 4
#     Node 11, Type 0, BuildingBlock: CEKHIL_clean_sbu_0, # of connection points: 4
#     Node 12, Type 0, BuildingBlock: CEKHIL_clean_sbu_0, # of connection points: 4
#     Node 13, Type 0, BuildingBlock: CEKHIL_clean_sbu_0, # of connection points: 4
#     Node 14, Type 0, BuildingBlock: CEKHIL_clean_sbu_0, # of connection points: 4
#     Node 15, Type 0, BuildingBlock: CEKHIL_clean_sbu_0, # of connection points: 4
#     Edge 16, Type (0, 0), BuildingBlock: UVAHIK_clean_linker_0, # of connection points: 2
#     Edge 17, Type (0, 0), BuildingBlock: UVAHIK_clean_linker_0, # of connection points: 2
#     Edge 18, Type (0, 0), BuildingBlock: UVAHIK_clean_linker_0, # of connection points: 2
#     Edge 19, Type (0, 0), BuildingBlock: UVAHIK_clean_linker_0, # of connection points: 2
#     Edge 20, Type (0, 0), BuildingBlock: UVAHIK_clean_linker_0, # of connection points: 2
#     Edge 21, Type (0, 0), BuildingBlock: UVAHIK_clean_linker_0, # of connection points: 2
#     Edge 22, Type (0, 0), BuildingBlock: UVAHIK_clean_linker_0, # of connection points: 2
#     Edge 23, Type (0, 0), BuildingBlock: UVAHIK_clean_linker_0, # of connection points: 2
#     Edge 24, Type (0, 0), BuildingBlock: UVAHIK_clean_linker_0, # of connection points: 2
#     Edge 25, Type (0, 0), BuildingBlock: UVAHIK_clean_linker_0, # of connection points: 2
#     Edge 26, Type (0, 0), BuildingBlock: UVAHIK_clean_linker_0, # of connection points: 2
#     Edge 27, Type (0, 0), BuildingBlock: UVAHIK_clean_linker_0, # of connection points: 2
#     Edge 28, Type (0, 0), BuildingBlock: UVAHIK_clean_linker_0, # of connection points: 2
#     Edge 29, Type (0, 0), BuildingBlock: UVAHIK_clean_linker_0, # of connection points: 2
#     Edge 30, Type (0, 0), BuildingBlock: UVAHIK_clean_linker_0, # of connection points: 2
#     Edge 31, Type (0, 0), BuildingBlock: UVAHIK_clean_linker_0, # of connection points: 2
#     Edge 32, Type (0, 0), BuildingBlock: UVAHIK_clean_linker_0, # of connection points: 2
#     Edge 33, Type (0, 0), BuildingBlock: UVAHIK_clean_linker_0, # of connection points: 2
#     Edge 34, Type (0, 0), BuildingBlock: UVAHIK_clean_linker_0, # of connection points: 2
#     Edge 35, Type (0, 0), BuildingBlock: UVAHIK_clean_linker_0, # of connection points: 2
#     Edge 36, Type (0, 0), BuildingBlock: UVAHIK_clean_linker_0, # of connection points: 2
#     Edge 37, Type (0, 0), BuildingBlock: UVAHIK_clean_linker_0, # of connection points: 2
#     Edge 38, Type (0, 0), BuildingBlock: UVAHIK_clean_linker_0, # of connection points: 2
#     Edge 39, Type (0, 0), BuildingBlock: UVAHIK_clean_linker_0, # of connection points: 2
#     Edge 40, Type (0, 0), BuildingBlock: UVAHIK_clean_linker_0, # of connection points: 2
#     Edge 41, Type (0, 0), BuildingBlock: UVAHIK_clean_linker_0, # of connection points: 2
#     Edge 42, Type (0, 0), BuildingBlock: UVAHIK_clean_linker_0, # of connection points: 2
#     Edge 43, Type (0, 0), BuildingBlock: UVAHIK_clean_linker_0, # of connection points: 2
#     Edge 44, Type (0, 0), BuildingBlock: UVAHIK_clean_linker_0, # of connection points: 2
#     Edge 45, Type (0, 0), BuildingBlock: UVAHIK_clean_linker_0, # of connection points: 2
#     Edge 46, Type (0, 0), BuildingBlock: UVAHIK_clean_linker_0, # of connection points: 2
#     Edge 47, Type (0, 0), BuildingBlock: UVAHIK_clean_linker_0, # of connection points: 2
# Relax obj value: 0.093
# Max RMSD: 0.228
# Mean RMSD: 0.228
data_MOF--net-umd--node1-CEKHIL_clean_sbu_0--edge1-UVAHIK_clean_linker_0
_symmetry_space_group_name_H-M    P1
_symmetry_Int_Tables_number       1
_symmetry_cell_setting            triclinic
loop_
_symmetry_equiv_pos_as_xyz
'x, y, z'
_cell_length_a     49.539326
_cell_length_b     49.553779
_cell_length_c     72.488375
_cell_angle_alpha  89.992179
_cell_angle_beta   90.001383
_cell_angle_gamma 89.937522
loop_
_atom_site_label
_atom_site_type_symbol
_atom_site_fract_x
_atom_site_fract_y
_atom_site_fract_z
_atom_type_partial_charge
Co0 Co 0.19609 0.45478 0.11713 0.0
O1 O 0.22993 0.43609 0.11617 0.0
O2 O 0.19216 0.42144 0.10326 0.0
C3 C 0.19709 0.46408 0.14747 0.0
O4 O 0.15724 0.4687 0.11594 0.0
Co5 Co 0.19596 0.51567 0.12698 0.0
O6 O 0.15634 0.5106 0.12794 0.0
C7 C 0.21362 0.49888 0.09012 0.0
C8 C 0.21775 0.41773 0.10654 0.0
C9 C 0.1444 0.48992 0.1214 0.0
O10 O 0.20598 0.47473 0.09393 0.0
O11 O 0.21306 0.51814 0.10188 0.0
O12 O 0.18902 0.44063 0.14168 0.0
O13 O 0.2069 0.47994 0.13498 0.0
Co14 Co 0.5474 0.19402 0.6199 0.0
O15 O 0.5675 0.22652 0.62359 0.0
O16 O 0.58226 0.19139 0.60764 0.0
C17 C 0.53447 0.18934 0.64948 0.0
O18 O 0.53237 0.15654 0.61414 0.0
Co19 Co 0.48576 0.19496 0.62595 0.0
O20 O 0.4889 0.15537 0.62314 0.0
C21 C 0.50762 0.21811 0.59195 0.0
C22 C 0.5867 0.21555 0.61404 0.0
C23 C 0.51002 0.14384 0.61693 0.0
O24 O 0.53107 0.2096 0.59683 0.0
O25 O 0.48664 0.2157 0.60211 0.0
O26 O 0.55806 0.18109 0.64407 0.0
O27 O 0.52049 0.20248 0.63732 0.0
Co28 Co 0.80379 0.54924 0.11728 0.0
O29 O 0.7704 0.56874 0.11766 0.0
O30 O 0.8078 0.58318 0.10413 0.0
C31 C 0.80446 0.53822 0.1473 0.0
O32 O 0.84218 0.53447 0.11476 0.0
Co33 Co 0.80245 0.48783 0.12503 0.0
O34 O 0.84224 0.49142 0.12478 0.0
C35 C 0.78388 0.50747 0.08919 0.0
C36 C 0.78248 0.58723 0.10808 0.0
C37 C 0.85451 0.51233 0.11892 0.0
O38 O 0.79213 0.53108 0.09382 0.0
O39 O 0.78466 0.48716 0.10008 0.0
O40 O 0.81262 0.56182 0.14186 0.0
O41 O 0.79335 0.52327 0.13476 0.0
Co42 Co 0.45774 0.80233 0.61454 0.0
O43 O 0.44001 0.76808 0.61504 0.0
O44 O 0.4243 0.80407 0.60047 0.0
C45 C 0.46658 0.80422 0.64493 0.0
O46 O 0.4707 0.8413 0.6118 0.0
Co47 Co 0.51849 0.80456 0.6247 0.0
O48 O 0.51231 0.84403 0.62416 0.0
C49 C 0.50268 0.78405 0.58833 0.0
C50 C 0.42117 0.77884 0.60505 0.0
C51 C 0.49153 0.85498 0.61697 0.0
O52 O 0.4782 0.79095 0.59186 0.0
O53 O 0.52184 0.78614 0.60009 0.0
O54 O 0.44306 0.81125 0.63863 0.0
O55 O 0.4829 0.7937 0.63298 0.0
Co56 Co 0.20224 0.54452 0.37009 0.0
O57 O 0.23637 0.56251 0.36981 0.0
O58 O 0.19973 0.57861 0.38336 0.0
C59 C 0.20164 0.53413 0.33989 0.0
O60 O 0.16326 0.53134 0.3724 0.0
Co61 Co 0.2009 0.48329 0.36127 0.0
O62 O 0.16139 0.48933 0.36063 0.0
C63 C 0.21965 0.50104 0.3977 0.0
C64 C 0.22511 0.58173 0.37917 0.0
C65 C 0.14995 0.51026 0.36725 0.0
O66 O 0.21282 0.5253 0.39345 0.0
O67 O 0.21818 0.48132 0.38634 0.0
O68 O 0.19418 0.55789 0.34549 0.0
O69 O 0.21181 0.51854 0.35242 0.0
Co70 Co 0.45573 0.20067 0.87214 0.0
O71 O 0.43678 0.23439 0.8723 0.0
O72 O 0.42239 0.19713 0.88603 0.0
C73 C 0.46524 0.20002 0.84184 0.0
O74 O 0.46995 0.16204 0.87425 0.0
Co75 Co 0.51676 0.2009 0.86274 0.0
O76 O 0.51242 0.16118 0.86314 0.0
C77 C 0.49935 0.21983 0.89911 0.0
C78 C 0.41852 0.22252 0.88221 0.0
C79 C 0.49162 0.1493 0.86956 0.0
O80 O 0.47537 0.21179 0.89521 0.0
O81 O 0.51885 0.21903 0.88754 0.0
O82 O 0.44177 0.19226 0.84778 0.0
O83 O 0.48097 0.21072 0.85408 0.0
Co84 Co 0.80908 0.45565 0.3692 0.0
O85 O 0.77559 0.43697 0.36651 0.0
O86 O 0.81067 0.42105 0.38195 0.0
C87 C 0.81301 0.46715 0.33929 0.0
O88 O 0.84738 0.46944 0.3739 0.0
Co89 Co 0.80988 0.51711 0.36169 0.0
O90 O 0.8494 0.51262 0.36423 0.0
C91 C 0.7869 0.49745 0.39642 0.0
C92 C 0.78609 0.4175 0.37604 0.0
C93 C 0.86055 0.49136 0.37057 0.0
O94 O 0.79518 0.47363 0.39223 0.0
O95 O 0.78904 0.51761 0.38547 0.0
O96 O 0.82049 0.44345 0.34497 0.0
O97 O 0.80098 0.48207 0.35143 0.0
Co98 Co 0.54386 0.80795 0.86774 0.0
O99 O 0.56318 0.77472 0.86504 0.0
O100 O 0.57857 0.81028 0.88019 0.0
C101 C 0.53162 0.81146 0.83798 0.0
O102 O 0.52975 0.84613 0.87244 0.0
Co103 Co 0.48232 0.80875 0.86108 0.0
O104 O 0.48695 0.84838 0.86216 0.0
C105 C 0.50283 0.7866 0.89581 0.0
C106 C 0.58255 0.78571 0.8744 0.0
C107 C 0.50813 0.85952 0.86858 0.0
O108 O 0.52664 0.79403 0.89097 0.0
O109 O 0.4821 0.78931 0.88544 0.0
O110 O 0.55533 0.81927 0.8434 0.0
O111 O 0.51703 0.79939 0.8503 0.0
Co112 Co 0.80688 0.54975 0.86767 0.0
O113 O 0.77379 0.56909 0.86442 0.0
O114 O 0.80866 0.58432 0.88039 0.0
C115 C 0.81165 0.53797 0.83789 0.0
O116 O 0.8448 0.53535 0.873 0.0
Co117 Co 0.80709 0.48826 0.86056 0.0
O118 O 0.84661 0.49217 0.86334 0.0
C119 C 0.78428 0.50843 0.89515 0.0
C120 C 0.78433 0.58834 0.87412 0.0
C121 C 0.85783 0.51327 0.86983 0.0
O122 O 0.792 0.53224 0.89054 0.0
O123 O 0.78702 0.48784 0.88466 0.0
O124 O 0.81927 0.56158 0.84363 0.0
O125 O 0.79894 0.52329 0.84985 0.0
Co126 Co 0.46029 0.80678 0.37022 0.0
O127 O 0.44287 0.77236 0.36968 0.0
O128 O 0.42644 0.80835 0.38385 0.0
C129 C 0.47 0.8083 0.33995 0.0
O130 O 0.47277 0.84593 0.37288 0.0
Co131 Co 0.52127 0.8096 0.36087 0.0
O132 O 0.51459 0.84899 0.3609 0.0
C133 C 0.50461 0.78894 0.39703 0.0
C134 C 0.42365 0.78305 0.37936 0.0
C135 C 0.4935 0.8598 0.36777 0.0
O136 O 0.4802 0.79581 0.39323 0.0
O137 O 0.52404 0.79109 0.38548 0.0
O138 O 0.44625 0.81523 0.34586 0.0
O139 O 0.48607 0.79814 0.35219 0.0
Co140 Co 0.1985 0.45557 0.87145 0.0
O141 O 0.23233 0.43685 0.87191 0.0
O142 O 0.19502 0.42238 0.88554 0.0
C143 C 0.19834 0.46463 0.84107 0.0
O144 O 0.15976 0.4696 0.8733 0.0
Co145 Co 0.1982 0.51638 0.86147 0.0
O146 O 0.15853 0.51149 0.86131 0.0
C147 C 0.21678 0.49982 0.89815 0.0
C148 C 0.22048 0.41863 0.88186 0.0
C149 C 0.14679 0.49088 0.8681 0.0
O150 O 0.20921 0.47563 0.89441 0.0
O151 O 0.2158 0.51909 0.88641 0.0
O152 O 0.19047 0.44125 0.84711 0.0
O153 O 0.20869 0.48058 0.85331 0.0
Co154 Co 0.54369 0.20046 0.36911 0.0
O155 O 0.56335 0.23344 0.3663 0.0
O156 O 0.57886 0.19735 0.38086 0.0
C157 C 0.53015 0.19755 0.33959 0.0
O158 O 0.52926 0.16241 0.37377 0.0
Co159 Co 0.48189 0.20101 0.36386 0.0
O160 O 0.48566 0.1613 0.36506 0.0
C161 C 0.50438 0.22216 0.39826 0.0
C162 C 0.58294 0.22196 0.3752 0.0
C163 C 0.50705 0.14961 0.37068 0.0
O164 O 0.52776 0.21421 0.39283 0.0
O165 O 0.48314 0.22019 0.38831 0.0
O166 O 0.55402 0.18943 0.34449 0.0
O167 O 0.5162 0.20969 0.35225 0.0
Co168 Co 0.80338 0.45686 0.6158 0.0
O169 O 0.76998 0.43771 0.61767 0.0
O170 O 0.80604 0.42248 0.60295 0.0
C171 C 0.80615 0.46821 0.64575 0.0
O172 O 0.8417 0.47108 0.61196 0.0
Co173 Co 0.80328 0.51834 0.62343 0.0
O174 O 0.84296 0.51412 0.62197 0.0
C175 C 0.78213 0.49865 0.58818 0.0
C176 C 0.78123 0.41852 0.60826 0.0
C177 C 0.85457 0.49301 0.61577 0.0
O178 O 0.79034 0.47488 0.59255 0.0
O179 O 0.78365 0.51882 0.59916 0.0
O180 O 0.81385 0.44454 0.64017 0.0
O181 O 0.79439 0.48314 0.63348 0.0
Co182 Co 0.54797 0.80665 0.117 0.0
O183 O 0.56741 0.77323 0.11769 0.0
O184 O 0.58177 0.81024 0.10363 0.0
C185 C 0.53732 0.80797 0.14709 0.0
O186 O 0.53334 0.845 0.11404 0.0
Co187 Co 0.48671 0.80618 0.12523 0.0
O188 O 0.49074 0.84592 0.12483 0.0
C189 C 0.50565 0.78634 0.08949 0.0
C190 C 0.58582 0.78502 0.10787 0.0
C191 C 0.51156 0.85778 0.11845 0.0
O192 O 0.52945 0.7944 0.09382 0.0
O193 O 0.48551 0.78775 0.10051 0.0
O194 O 0.56082 0.81609 0.14142 0.0
O195 O 0.52218 0.79669 0.13474 0.0
Co196 Co 0.19693 0.54317 0.61811 0.0
O197 O 0.23122 0.56084 0.61835 0.0
O198 O 0.19467 0.57729 0.60485 0.0
C199 C 0.19634 0.53268 0.64829 0.0
O200 O 0.15784 0.53038 0.61584 0.0
Co201 Co 0.19504 0.48195 0.62673 0.0
O202 O 0.15558 0.48831 0.62747 0.0
C203 C 0.21425 0.49976 0.59046 0.0
C204 C 0.22011 0.58012 0.60895 0.0
C205 C 0.14433 0.50942 0.62096 0.0
O206 O 0.20734 0.52398 0.59472 0.0
O207 O 0.21267 0.47998 0.60177 0.0
O208 O 0.18906 0.55651 0.64273 0.0
O209 O 0.20633 0.51703 0.63572 0.0
Co210 Co 0.45114 0.19793 0.11683 0.0
O211 O 0.4318 0.23141 0.11696 0.0
O212 O 0.41815 0.1945 0.10248 0.0
C213 C 0.45983 0.19656 0.14728 0.0
O214 O 0.46595 0.15956 0.1143 0.0
Co215 Co 0.51184 0.1987 0.12714 0.0
O216 O 0.50826 0.15896 0.1257 0.0
C217 C 0.49531 0.21843 0.09075 0.0
C218 C 0.41392 0.21972 0.10666 0.0
C219 C 0.48778 0.14702 0.11888 0.0
O220 O 0.47128 0.21006 0.09418 0.0
O221 O 0.51442 0.21752 0.10262 0.0
O222 O 0.43669 0.18851 0.14092 0.0
O223 O 0.47568 0.20782 0.13536 0.0
C224 C 0.10108 0.51591 0.12229 0.0
C225 C 0.11456 0.49118 0.11966 0.0
C226 C 0.07309 0.51763 0.12069 0.0
C227 C 0.01142 0.47778 0.12436 0.0
H228 H 0.97878 0.53774 0.09809 0.0
C229 C 0.89645 0.48492 0.11515 0.0
C230 C 0.8842 0.51042 0.11678 0.0
C231 C 0.92445 0.48244 0.11411 0.0
C232 C 0.98753 0.52106 0.10567 0.0
H233 H 0.10893 0.4488 0.11327 0.0
H234 H 0.05969 0.45181 0.11066 0.0
H235 H 0.02781 0.53309 0.09877 0.0
H236 H 0.89179 0.55341 0.11826 0.0
H237 H 0.94094 0.5491 0.11696 0.0
H238 H 0.97137 0.46608 0.13174 0.0
C239 C 0.07105 0.46985 0.11395 0.0
C240 C 0.01563 0.51833 0.10598 0.0
C241 C 0.09922 0.46815 0.11538 0.0
C242 C 0.90063 0.5335 0.11695 0.0
C243 C 0.92879 0.53099 0.11613 0.0
C244 C 0.98335 0.48063 0.12419 0.0
C245 C 0.05773 0.49466 0.11655 0.0
C246 C 0.02787 0.49672 0.11539 0.0
C247 C 0.94106 0.50537 0.1149 0.0
C248 C 0.97101 0.50233 0.11487 0.0
H249 H 0.11215 0.53413 0.12557 0.0
H250 H 0.0634 0.53695 0.12302 0.0
H251 H 0.02028 0.46117 0.13196 0.0
H252 H 0.88437 0.46672 0.11469 0.0
H253 H 0.93304 0.46245 0.11268 0.0
C254 C 0.46886 0.89922 0.6093 0.0
C255 C 0.49215 0.88466 0.61423 0.0
C256 C 0.46992 0.92733 0.60719 0.0
C257 C 0.51741 0.98377 0.59928 0.0
H258 H 0.46343 0.02717 0.62412 0.0
C259 C 0.5314 0.09809 0.61315 0.0
C260 C 0.50831 0.11456 0.61302 0.0
C261 C 0.529 0.07006 0.61116 0.0
C262 C 0.47845 0.01543 0.6168 0.0
H263 H 0.53494 0.88832 0.62043 0.0
H264 H 0.53663 0.93691 0.61677 0.0
H265 H 0.45924 0.97824 0.62411 0.0
H266 H 0.46479 0.11474 0.60955 0.0
H267 H 0.46073 0.06629 0.60553 0.0
H268 H 0.53671 0.02092 0.59201 0.0
C269 C 0.51761 0.9267 0.61443 0.0
C270 C 0.47601 0.98735 0.61683 0.0
C271 C 0.51653 0.89879 0.61669 0.0
C272 C 0.48297 0.10258 0.61003 0.0
C273 C 0.4806 0.07472 0.60783 0.0
C274 C 0.51976 0.01189 0.59913 0.0
C275 C 0.49435 0.94133 0.60975 0.0
C276 C 0.49565 0.97119 0.60828 0.0
C277 C 0.50348 0.058 0.60878 0.0
C278 C 0.50046 0.02809 0.60808 0.0
H279 H 0.44978 0.88899 0.60729 0.0
H280 H 0.45168 0.93811 0.60349 0.0
H281 H 0.53271 0.97183 0.59238 0.0
H282 H 0.55119 0.10672 0.61548 0.0
H283 H 0.54705 0.05781 0.61212 0.0
C284 C 0.10536 0.53227 0.37498 0.0
C285 C 0.12016 0.50941 0.36947 0.0
C286 C 0.07724 0.53085 0.37699 0.0
C287 C 0.02151 0.48232 0.384 0.0
H288 H 0.97685 0.53768 0.36176 0.0
C289 C 0.90625 0.46936 0.37278 0.0
C290 C 0.88999 0.49252 0.37398 0.0
C291 C 0.93441 0.47149 0.37406 0.0
C292 C 0.98895 0.52224 0.36835 0.0
H293 H 0.11678 0.46708 0.36187 0.0
H294 H 0.06819 0.4648 0.36537 0.0
H295 H 0.02576 0.5421 0.36091 0.0
H296 H 0.89029 0.53576 0.37865 0.0
H297 H 0.93897 0.53933 0.38149 0.0
H298 H 0.98475 0.46242 0.39147 0.0
C299 C 0.07826 0.48372 0.36828 0.0
C300 C 0.01703 0.52481 0.36783 0.0
C301 C 0.10618 0.48516 0.36614 0.0
C302 C 0.90231 0.51758 0.37735 0.0
C303 C 0.93028 0.51965 0.37887 0.0
C304 C 0.9934 0.47984 0.38466 0.0
C305 C 0.06344 0.5065 0.37372 0.0
C306 C 0.03362 0.50475 0.37547 0.0
C307 C 0.94679 0.49679 0.37678 0.0
C308 C 0.97674 0.49967 0.37671 0.0
H309 H 0.11544 0.55125 0.37766 0.0
H310 H 0.06632 0.54873 0.38127 0.0
H311 H 0.0338 0.46667 0.3902 0.0
H312 H 0.89732 0.4498 0.37011 0.0
H313 H 0.94648 0.45346 0.37225 0.0
C314 C 0.53118 0.90409 0.87412 0.0
C315 C 0.50737 0.88913 0.87158 0.0
C316 C 0.53011 0.93224 0.87578 0.0
C317 C 0.48416 0.98905 0.88643 0.0
H318 H 0.53282 0.03072 0.8558 0.0
C319 C 0.46977 0.10377 0.87354 0.0
C320 C 0.49314 0.11961 0.87186 0.0
C321 C 0.47173 0.0756 0.87483 0.0
C322 C 0.51933 0.01948 0.86469 0.0
H323 H 0.46371 0.89202 0.86944 0.0
H324 H 0.46197 0.94081 0.87239 0.0
H325 H 0.53671 0.98178 0.85646 0.0
H326 H 0.53695 0.11835 0.87106 0.0
H327 H 0.54034 0.06973 0.8738 0.0
H328 H 0.46679 0.02675 0.8947 0.0
C329 C 0.48143 0.93087 0.87312 0.0
C330 C 0.5216 0.99139 0.86505 0.0
C331 C 0.48249 0.90287 0.87128 0.0
C332 C 0.51847 0.10677 0.87203 0.0
C333 C 0.52044 0.07878 0.87351 0.0
C334 C 0.48202 0.01721 0.88619 0.0
C335 C 0.50521 0.94592 0.87516 0.0
C336 C 0.50392 0.97585 0.87581 0.0
C337 C 0.49713 0.06276 0.87465 0.0
C338 C 0.49949 0.03279 0.87523 0.0
H339 H 0.55066 0.89415 0.87441 0.0
H340 H 0.54877 0.94334 0.87749 0.0
H341 H 0.47039 0.9776 0.89499 0.0
H342 H 0.44996 0.11304 0.87341 0.0
H343 H 0.45332 0.06389 0.87551 0.0
C344 C 0.90362 0.53475 0.87296 0.0
C345 C 0.88715 0.51172 0.87362 0.0
C346 C 0.93172 0.5323 0.87459 0.0
C347 C 0.98589 0.4812 0.86867 0.0
H348 H 0.03083 0.53549 0.89178 0.0
C349 C 0.10194 0.46945 0.87562 0.0
C350 C 0.11705 0.49225 0.87047 0.0
C351 C 0.07386 0.47124 0.87768 0.0
C352 C 0.01851 0.5202 0.88523 0.0
H353 H 0.887 0.46836 0.87777 0.0
H354 H 0.93555 0.46423 0.8812 0.0
H355 H 0.98178 0.54022 0.89274 0.0
H356 H 0.11433 0.53492 0.8637 0.0
H357 H 0.06574 0.53788 0.86728 0.0
H358 H 0.02263 0.46124 0.86116 0.0
C359 C 0.92708 0.48406 0.87873 0.0
C360 C 0.99041 0.52296 0.88572 0.0
C361 C 0.89917 0.48646 0.87687 0.0
C362 C 0.10345 0.51687 0.86764 0.0
C363 C 0.07554 0.51869 0.86984 0.0
C364 C 0.01394 0.47837 0.86831 0.0
C365 C 0.94382 0.50681 0.87714 0.0
C366 C 0.97373 0.50359 0.87731 0.0
C367 C 0.0604 0.49592 0.87482 0.0
C368 C 0.03057 0.49796 0.87641 0.0
H369 H 0.89492 0.55447 0.87042 0.0
H370 H 0.94398 0.55025 0.87317 0.0
H371 H 0.97377 0.46614 0.86173 0.0
H372 H 0.11174 0.4502 0.87793 0.0
H373 H 0.06269 0.45337 0.88162 0.0
C374 C 0.52925 0.10403 0.37311 0.0
C375 C 0.50583 0.12003 0.37355 0.0
C376 C 0.52739 0.07587 0.37435 0.0
C377 C 0.47807 0.0203 0.36749 0.0
H378 H 0.53277 0.9772 0.39188 0.0
C379 C 0.4701 0.90386 0.37494 0.0
C380 C 0.49364 0.88955 0.37021 0.0
C381 C 0.47074 0.93201 0.37685 0.0
C382 C 0.51737 0.98899 0.38498 0.0
H383 H 0.46226 0.11911 0.3766 0.0
H384 H 0.45913 0.0704 0.3793 0.0
H385 H 0.53592 0.02632 0.39267 0.0
H386 H 0.53639 0.89378 0.36405 0.0
H387 H 0.53735 0.94244 0.3674 0.0
H388 H 0.45956 0.9829 0.35982 0.0
C389 C 0.47886 0.07936 0.37738 0.0
C390 C 0.51924 0.01714 0.38536 0.0
C391 C 0.48068 0.10736 0.37593 0.0
C392 C 0.51781 0.90402 0.36767 0.0
C393 C 0.51847 0.93198 0.36974 0.0
C394 C 0.47611 0.99217 0.36724 0.0
C395 C 0.5021 0.06316 0.37625 0.0
C396 C 0.49974 0.03318 0.37647 0.0
C397 C 0.49497 0.94633 0.37429 0.0
C398 C 0.4959 0.9762 0.37579 0.0
H399 H 0.5489 0.11318 0.37121 0.0
H400 H 0.54571 0.06405 0.37325 0.0
H401 H 0.46292 0.03192 0.36021 0.0
H402 H 0.45117 0.89337 0.377 0.0
H403 H 0.45232 0.94257 0.38046 0.0
C404 C 0.89673 0.51947 0.61067 0.0
C405 C 0.88416 0.49429 0.61311 0.0
C406 C 0.92476 0.52145 0.60962 0.0
C407 C 0.98756 0.48138 0.60316 0.0
H408 H 0.02038 0.54211 0.6284 0.0
C409 C 0.10031 0.48477 0.62189 0.0
C410 C 0.11452 0.50896 0.61885 0.0
C411 C 0.07236 0.48371 0.61983 0.0
C412 C 0.01151 0.52525 0.62109 0.0
H413 H 0.89116 0.45134 0.61593 0.0
H414 H 0.94036 0.4548 0.61461 0.0
H415 H 0.9714 0.53819 0.62735 0.0
H416 H 0.11021 0.55111 0.61133 0.0
H417 H 0.06103 0.54927 0.60788 0.0
H418 H 0.02786 0.46811 0.59741 0.0
C419 C 0.92846 0.47302 0.61314 0.0
C420 C 0.98341 0.52297 0.62044 0.0
C421 C 0.90027 0.47099 0.61396 0.0
C422 C 0.09994 0.53216 0.61376 0.0
C423 C 0.07179 0.53114 0.61185 0.0
C424 C 0.01567 0.48355 0.60394 0.0
C425 C 0.94107 0.49836 0.61123 0.0
C426 C 0.97104 0.50095 0.61152 0.0
C427 C 0.05776 0.50683 0.61479 0.0
C428 C 0.02794 0.50542 0.61301 0.0
H429 H 0.88486 0.53779 0.60968 0.0
H430 H 0.93364 0.5412 0.60764 0.0
H431 H 0.9788 0.46441 0.5959 0.0
H432 H 0.11075 0.46644 0.62584 0.0
H433 H 0.06209 0.46481 0.62248 0.0
C434 C 0.46692 0.10105 0.11472 0.0
C435 C 0.48993 0.11749 0.11598 0.0
C436 C 0.46958 0.07296 0.11314 0.0
C437 C 0.51931 0.01822 0.12198 0.0
H438 H 0.4696 0.97477 0.09336 0.0
C439 C 0.53333 0.90297 0.1127 0.0
C440 C 0.51005 0.88746 0.1159 0.0
C441 C 0.53152 0.93109 0.11105 0.0
C442 C 0.4836 0.98667 0.10144 0.0
H443 H 0.53376 0.11746 0.11555 0.0
H444 H 0.53833 0.069 0.11227 0.0
H445 H 0.46477 0.02383 0.09351 0.0
H446 H 0.4665 0.88941 0.11935 0.0
H447 H 0.46349 0.93813 0.11645 0.0
H448 H 0.53813 0.98106 0.12988 0.0
C449 C 0.51822 0.07749 0.11316 0.0
C450 C 0.48076 0.01477 0.10161 0.0
C451 C 0.51557 0.10537 0.11495 0.0
C452 C 0.48492 0.90066 0.11699 0.0
C453 C 0.4831 0.92862 0.11517 0.0
C454 C 0.52227 0.99019 0.1217 0.0
C455 C 0.49532 0.06082 0.11259 0.0
C456 C 0.49849 0.03091 0.11198 0.0
C457 C 0.50637 0.9442 0.11235 0.0
C458 C 0.50431 0.97408 0.11156 0.0
H459 H 0.4469 0.10978 0.1155 0.0
H460 H 0.45148 0.06075 0.11289 0.0
H461 H 0.53304 0.02988 0.13043 0.0
H462 H 0.55298 0.89347 0.11177 0.0
H463 H 0.54979 0.9426 0.10876 0.0
C464 C 0.19556 0.54604 0.30678 0.0
C465 C 0.19965 0.52623 0.32034 0.0
C466 C 0.19445 0.53902 0.28816 0.0
C467 C 0.21252 0.48373 0.25578 0.0
H468 H 0.16602 0.52369 0.22244 0.0
C469 C 0.19201 0.45139 0.18055 0.0
C470 C 0.19601 0.47147 0.16715 0.0
C471 C 0.19189 0.45797 0.19927 0.0
C472 C 0.17919 0.51249 0.23161 0.0
H473 H 0.20522 0.48346 0.32517 0.0
H474 H 0.20223 0.47091 0.29266 0.0
H475 H 0.16598 0.53458 0.25525 0.0
H476 H 0.20243 0.51424 0.16273 0.0
H477 H 0.20159 0.52588 0.19559 0.0
H478 H 0.22504 0.46118 0.23205 0.0
C479 C 0.20069 0.49203 0.29632 0.0
C480 C 0.1793 0.51876 0.2504 0.0
C481 C 0.20222 0.49915 0.31497 0.0
C482 C 0.19939 0.49837 0.17278 0.0
C483 C 0.1988 0.50503 0.19153 0.0
C484 C 0.21206 0.4772 0.23704 0.0
C485 C 0.19697 0.51192 0.28265 0.0
C486 C 0.19613 0.5046 0.26273 0.0
C487 C 0.1953 0.48483 0.20492 0.0
C488 C 0.19552 0.49163 0.22479 0.0
H489 H 0.19373 0.56713 0.31052 0.0
H490 H 0.19214 0.55498 0.27809 0.0
H491 H 0.22613 0.47272 0.26472 0.0
H492 H 0.18939 0.43047 0.1766 0.0
H493 H 0.18895 0.44209 0.20934 0.0
C494 C 0.49968 0.19328 0.6745 0.0
C495 C 0.52611 0.18697 0.66896 0.0
C496 C 0.49267 0.19271 0.69321 0.0
C497 C 0.52168 0.20285 0.73849 0.0
H498 H 0.46017 0.16342 0.75749 0.0
C499 C 0.49981 0.19789 0.81666 0.0
C500 C 0.47271 0.19747 0.82223 0.0
C501 C 0.50651 0.19522 0.79799 0.0
C502 C 0.47718 0.17494 0.75243 0.0
H503 H 0.56574 0.17455 0.67853 0.0
H504 H 0.5536 0.17418 0.71113 0.0
H505 H 0.47056 0.16163 0.72462 0.0
H506 H 0.43133 0.19441 0.81277 0.0
H507 H 0.44278 0.19114 0.78029 0.0
H508 H 0.5279 0.21713 0.76594 0.0
C509 C 0.53834 0.17945 0.70103 0.0
C510 C 0.48315 0.17374 0.73359 0.0
C511 C 0.54521 0.17956 0.68238 0.0
C512 C 0.45244 0.19456 0.80886 0.0
C513 C 0.45906 0.19245 0.79021 0.0
C514 C 0.51545 0.20448 0.75724 0.0
C515 C 0.51212 0.18628 0.70663 0.0
C516 C 0.5055 0.18762 0.7265 0.0
C517 C 0.48619 0.19263 0.78448 0.0
C518 C 0.49312 0.19052 0.76451 0.0
H519 H 0.48456 0.19898 0.66443 0.0
H520 H 0.47231 0.1981 0.69725 0.0
H521 H 0.53891 0.21394 0.73327 0.0
H522 H 0.51583 0.19987 0.82674 0.0
H523 H 0.52765 0.19493 0.79421 0.0
C524 C 0.80505 0.50277 0.17197 0.0
C525 C 0.80678 0.52997 0.16676 0.0
C526 C 0.80751 0.4954 0.19054 0.0
C527 C 0.82998 0.52242 0.23623 0.0
H528 H 0.78711 0.46323 0.25525 0.0
C529 C 0.81074 0.50161 0.31403 0.0
C530 C 0.81531 0.47491 0.31972 0.0
C531 C 0.81151 0.50829 0.29528 0.0
C532 C 0.7993 0.47971 0.25006 0.0
H533 H 0.81192 0.57086 0.17679 0.0
H534 H 0.81493 0.55831 0.20905 0.0
H535 H 0.78454 0.47467 0.22259 0.0
H536 H 0.8246 0.43434 0.31036 0.0
H537 H 0.82531 0.44596 0.27766 0.0
H538 H 0.84382 0.52795 0.26401 0.0
C539 C 0.81272 0.54242 0.19892 0.0
C540 C 0.798 0.48618 0.23133 0.0
C541 C 0.81077 0.54967 0.18039 0.0
C542 C 0.82101 0.45511 0.30639 0.0
C543 C 0.82129 0.46168 0.28768 0.0
C544 C 0.83088 0.51623 0.25502 0.0
C545 C 0.81128 0.51518 0.20428 0.0
C546 C 0.81328 0.50767 0.22414 0.0
C547 C 0.81636 0.48826 0.28195 0.0
C548 C 0.81555 0.49483 0.26208 0.0
H549 H 0.80217 0.48717 0.16169 0.0
H550 H 0.80672 0.47419 0.19407 0.0
H551 H 0.84253 0.5387 0.23119 0.0
H552 H 0.80637 0.51725 0.32403 0.0
H553 H 0.80757 0.52894 0.29115 0.0
C554 C 0.54295 0.81994 0.80505 0.0
C555 C 0.5235 0.81353 0.81846 0.0
C556 C 0.5362 0.82005 0.78638 0.0
C557 C 0.48152 0.82792 0.7537 0.0
H558 H 0.52542 0.7835 0.72141 0.0
C559 C 0.4526 0.80994 0.67768 0.0
C560 C 0.47332 0.80677 0.66465 0.0
C561 C 0.45855 0.81145 0.69646 0.0
C562 C 0.51323 0.79642 0.73011 0.0
H563 H 0.48152 0.80317 0.82295 0.0
H564 H 0.4695 0.80402 0.79008 0.0
H565 H 0.53575 0.78556 0.75422 0.0
H566 H 0.51654 0.80341 0.66089 0.0
H567 H 0.52719 0.80726 0.69365 0.0
H568 H 0.4595 0.83961 0.72965 0.0
C569 C 0.49002 0.80865 0.79415 0.0
C570 C 0.51906 0.7974 0.74893 0.0
C571 C 0.4969 0.80809 0.81288 0.0
C572 C 0.50018 0.80563 0.67069 0.0
C573 C 0.50621 0.80765 0.68948 0.0
C574 C 0.47595 0.82734 0.7348 0.0
C575 C 0.50977 0.81418 0.78075 0.0
C576 C 0.50323 0.8131 0.76088 0.0
C577 C 0.48544 0.81033 0.70265 0.0
C578 C 0.49168 0.81149 0.72274 0.0
H579 H 0.56362 0.82424 0.80891 0.0
H580 H 0.55169 0.82462 0.7763 0.0
H581 H 0.46921 0.84038 0.76266 0.0
H582 H 0.43166 0.81065 0.6734 0.0
H583 H 0.44195 0.81295 0.70612 0.0
C584 C 0.82094 0.54994 0.80515 0.0
C585 C 0.81453 0.53018 0.81835 0.0
C586 C 0.82183 0.54343 0.78645 0.0
C587 C 0.83219 0.4893 0.75371 0.0
H588 H 0.78637 0.53105 0.72099 0.0
C589 C 0.81349 0.45658 0.67873 0.0
C590 C 0.80912 0.47636 0.6652 0.0
C591 C 0.81551 0.46369 0.69728 0.0
C592 C 0.79971 0.5195 0.72981 0.0
H593 H 0.80499 0.48794 0.82246 0.0
H594 H 0.80727 0.47635 0.78956 0.0
H595 H 0.78808 0.54211 0.75372 0.0
H596 H 0.80413 0.51917 0.6603 0.0
H597 H 0.80885 0.53191 0.6927 0.0
H598 H 0.84461 0.46719 0.7299 0.0
C599 C 0.81128 0.49692 0.79381 0.0
C600 C 0.8005 0.52574 0.74858 0.0
C601 C 0.80989 0.50355 0.81256 0.0
C602 C 0.80728 0.50352 0.6705 0.0
C603 C 0.80982 0.51073 0.68909 0.0
C604 C 0.83183 0.48336 0.73487 0.0
C605 C 0.81681 0.51694 0.7806 0.0
C606 C 0.81653 0.51053 0.7607 0.0
C607 C 0.81375 0.49086 0.70276 0.0
C608 C 0.81533 0.49817 0.72268 0.0
H609 H 0.82461 0.57065 0.8092 0.0
H610 H 0.82635 0.55913 0.77652 0.0
H611 H 0.84496 0.47752 0.7628 0.0
H612 H 0.81475 0.43543 0.67504 0.0
H613 H 0.81788 0.44771 0.70734 0.0
C614 C 0.50424 0.80924 0.31457 0.0
C615 C 0.47721 0.81025 0.32027 0.0
C616 C 0.51072 0.81048 0.29582 0.0
C617 C 0.48131 0.82744 0.24973 0.0
H618 H 0.54188 0.78524 0.23192 0.0
C619 C 0.50288 0.80495 0.17235 0.0
C620 C 0.5295 0.80998 0.16667 0.0
C621 C 0.49606 0.80612 0.19108 0.0
C622 C 0.52498 0.79721 0.23675 0.0
H623 H 0.43573 0.81312 0.31096 0.0
H624 H 0.44683 0.81405 0.27833 0.0
H625 H 0.53102 0.78498 0.26468 0.0
H626 H 0.56979 0.8204 0.17601 0.0
H627 H 0.55794 0.82191 0.20864 0.0
H628 H 0.4749 0.83881 0.22151 0.0
C629 C 0.4632 0.81327 0.28821 0.0
C630 C 0.51884 0.79725 0.25554 0.0
C631 C 0.45679 0.81255 0.30694 0.0
C632 C 0.54909 0.8164 0.17998 0.0
C633 C 0.54238 0.81715 0.19865 0.0
C634 C 0.4872 0.82701 0.23088 0.0
C635 C 0.49026 0.81223 0.28236 0.0
C636 C 0.49697 0.81245 0.26232 0.0
C637 C 0.51586 0.8119 0.20438 0.0
C638 C 0.50916 0.81199 0.22425 0.0
H639 H 0.52037 0.80768 0.32461 0.0
H640 H 0.53181 0.81018 0.2919 0.0
H641 H 0.46463 0.8398 0.25442 0.0
H642 H 0.48738 0.80003 0.16237 0.0
H643 H 0.47547 0.80191 0.1952 0.0
C644 C 0.19978 0.4986 0.8155 0.0
C645 C 0.19653 0.47179 0.82137 0.0
C646 C 0.19845 0.50501 0.79673 0.0
C647 C 0.20968 0.47649 0.75115 0.0
H648 H 0.16314 0.53385 0.73346 0.0
C649 C 0.19726 0.49781 0.6733 0.0
C650 C 0.19469 0.52487 0.66788 0.0
C651 C 0.19622 0.49081 0.69199 0.0
C652 C 0.17657 0.51803 0.73816 0.0
H653 H 0.18936 0.43069 0.81231 0.0
H654 H 0.18762 0.44187 0.77952 0.0
H655 H 0.16446 0.52337 0.76633 0.0
H656 H 0.18923 0.56586 0.67765 0.0
H657 H 0.18852 0.55393 0.71012 0.0
H658 H 0.22261 0.4716 0.72324 0.0
C659 C 0.19104 0.45788 0.78943 0.0
C660 C 0.1772 0.512 0.75698 0.0
C661 C 0.19191 0.45154 0.80818 0.0
C662 C 0.19104 0.54478 0.68142 0.0
C663 C 0.19044 0.53788 0.70007 0.0
C664 C 0.20941 0.48278 0.73237 0.0
C665 C 0.19432 0.48464 0.78353 0.0
C666 C 0.19373 0.49117 0.76363 0.0
C667 C 0.19301 0.5108 0.70564 0.0
C668 C 0.19284 0.50365 0.7256 0.0
H669 H 0.2033 0.51459 0.82539 0.0
H670 H 0.20115 0.52579 0.79248 0.0
H671 H 0.22279 0.46048 0.756 0.0
H672 H 0.19991 0.48204 0.66311 0.0
H673 H 0.19778 0.46971 0.69569 0.0
C674 C 0.49386 0.19586 0.31545 0.0
C675 C 0.52129 0.19562 0.32023 0.0
C676 C 0.48608 0.19389 0.2969 0.0
C677 C 0.51361 0.17616 0.25028 0.0
H678 H 0.45118 0.2159 0.23285 0.0
C679 C 0.49295 0.19961 0.17332 0.0
C680 C 0.4667 0.19418 0.16702 0.0
C681 C 0.499 0.19802 0.19213 0.0
C682 C 0.46857 0.20456 0.23758 0.0
H683 H 0.5621 0.19387 0.30953 0.0
H684 H 0.5488 0.19191 0.27742 0.0
H685 H 0.46252 0.21664 0.26559 0.0
H686 H 0.42627 0.18268 0.17541 0.0
H687 H 0.4368 0.1804 0.20829 0.0
H688 H 0.52014 0.16509 0.22204 0.0
C689 C 0.53308 0.19236 0.28778 0.0
C690 C 0.47501 0.20482 0.25636 0.0
C691 C 0.54076 0.19372 0.30624 0.0
C692 C 0.44668 0.187 0.17986 0.0
C693 C 0.45264 0.1858 0.19867 0.0
C694 C 0.50743 0.17632 0.23148 0.0
C695 C 0.50563 0.19221 0.2828 0.0
C696 C 0.49777 0.1908 0.26296 0.0
C697 C 0.47881 0.19137 0.20498 0.0
C698 C 0.48495 0.19064 0.22496 0.0
H699 H 0.47847 0.19714 0.32603 0.0
H700 H 0.46475 0.19344 0.29367 0.0
H701 H 0.53087 0.1645 0.25482 0.0
H702 H 0.50876 0.20515 0.16373 0.0
H703 H 0.51932 0.20254 0.1967 0.0
C704 C 0.22654 0.53197 0.92416 0.0
C705 C 0.22597 0.50549 0.9172 0.0
C706 C 0.23256 0.53669 0.94276 0.0
C707 C 0.26063 0.50419 0.98486 0.0
H708 H 0.2071 0.5469 0.01079 0.0
C709 C 0.22936 0.48309 0.0592 0.0
C710 C 0.22271 0.50454 0.07105 0.0
C711 C 0.23611 0.48795 0.04083 0.0
C712 C 0.22261 0.53541 0.00377 0.0
H713 H 0.23279 0.46337 0.92404 0.0
H714 H 0.2431 0.47156 0.95626 0.0
H715 H 0.20804 0.54721 0.97717 0.0
H716 H 0.21882 0.54807 0.073 0.0
H717 H 0.23041 0.55652 0.04068 0.0
H718 H 0.27435 0.49138 0.01146 0.0
C719 C 0.23902 0.48874 0.94744 0.0
C720 C 0.22316 0.5356 0.98448 0.0
C721 C 0.23282 0.48401 0.92897 0.0
C722 C 0.2238 0.53109 0.06422 0.0
C723 C 0.23034 0.53594 0.04572 0.0
C724 C 0.26006 0.50397 0.00411 0.0
C725 C 0.23844 0.51504 0.95466 0.0
C726 C 0.24151 0.51917 0.97483 0.0
C727 C 0.23625 0.51437 0.03379 0.0
C728 C 0.24037 0.51877 0.01375 0.0
H729 H 0.22141 0.54896 0.91544 0.0
H730 H 0.23213 0.5572 0.94792 0.0
H731 H 0.27537 0.49176 0.9778 0.0
H732 H 0.22891 0.46239 0.06402 0.0
H733 H 0.2402 0.47085 0.03195 0.0
C734 C 0.52521 0.2422 0.42644 0.0
C735 C 0.50213 0.2325 0.41735 0.0
C736 C 0.52441 0.24831 0.4452 0.0
C737 C 0.47959 0.2571 0.48602 0.0
H738 H 0.54072 0.22563 0.51159 0.0
C739 C 0.48009 0.22827 0.56369 0.0
C740 C 0.50482 0.22946 0.57316 0.0
C741 C 0.47875 0.23493 0.54494 0.0
C742 C 0.52373 0.23507 0.50475 0.0
H743 H 0.45963 0.22323 0.42057 0.0
H744 H 0.45838 0.23326 0.45358 0.0
H745 H 0.54009 0.22618 0.47825 0.0
H746 H 0.54692 0.24099 0.57092 0.0
H747 H 0.54442 0.25327 0.53848 0.0
H748 H 0.46298 0.26524 0.51281 0.0
C749 C 0.47702 0.23649 0.4461 0.0
C750 C 0.52337 0.23538 0.48554 0.0
C751 C 0.47775 0.23064 0.4272 0.0
C752 C 0.52767 0.23937 0.56391 0.0
C753 C 0.52626 0.24631 0.54529 0.0
C754 C 0.47996 0.2568 0.50536 0.0
C755 C 0.5006 0.24452 0.45543 0.0
C756 C 0.50126 0.24622 0.4759 0.0
C757 C 0.50206 0.24314 0.53538 0.0
C758 C 0.50201 0.2456 0.51493 0.0
H759 H 0.54419 0.24434 0.41915 0.0
H760 H 0.54275 0.25514 0.45185 0.0
H761 H 0.46234 0.26576 0.479 0.0
H762 H 0.46213 0.22072 0.57046 0.0
H763 H 0.45981 0.23216 0.53772 0.0
C764 C 0.76362 0.52629 0.06053 0.0
C765 C 0.77412 0.50397 0.07008 0.0
C766 C 0.75779 0.52453 0.04178 0.0
C767 C 0.75085 0.47823 0.00171 0.0
H768 H 0.77945 0.54 0.97535 0.0
C769 C 0.7765 0.48 0.92332 0.0
C770 C 0.77362 0.50475 0.91403 0.0
C771 C 0.77079 0.47814 0.9422 0.0
C772 C 0.77084 0.5228 0.98243 0.0
H773 H 0.78518 0.46179 0.06776 0.0
H774 H 0.77568 0.45887 0.03466 0.0
H775 H 0.77992 0.53978 0.00869 0.0
H776 H 0.75999 0.54616 0.91674 0.0
H777 H 0.74937 0.54273 0.94941 0.0
H778 H 0.74249 0.46106 0.97511 0.0
C779 C 0.77161 0.47764 0.04179 0.0
C780 C 0.77112 0.52266 0.00162 0.0
C781 C 0.77714 0.47932 0.06072 0.0
C782 C 0.7629 0.52695 0.9236 0.0
C783 C 0.75691 0.525 0.94234 0.0
C784 C 0.75058 0.47837 0.98236 0.0
C785 C 0.76273 0.50053 0.03201 0.0
C786 C 0.76114 0.50044 0.01153 0.0
C787 C 0.76187 0.50094 0.95204 0.0
C788 C 0.76059 0.50071 0.97252 0.0
H789 H 0.76057 0.54543 0.06747 0.0
H790 H 0.75025 0.54231 0.03477 0.0
H791 H 0.74294 0.46085 0.00896 0.0
H792 H 0.78471 0.46254 0.9163 0.0
H793 H 0.77488 0.45932 0.94927 0.0
C794 C 0.4879 0.76702 0.55751 0.0
C795 C 0.50895 0.77456 0.56943 0.0
C796 C 0.49317 0.76075 0.53911 0.0
C797 C 0.54027 0.77795 0.50253 0.0
H798 H 0.49812 0.72573 0.47504 0.0
C799 C 0.53689 0.77866 0.42289 0.0
C800 C 0.51039 0.77909 0.41591 0.0
C801 C 0.54175 0.7717 0.44131 0.0
C802 C 0.51015 0.74031 0.48253 0.0
H803 H 0.55227 0.78022 0.57155 0.0
H804 H 0.56144 0.7694 0.53922 0.0
H805 H 0.49789 0.72452 0.50871 0.0
H806 H 0.46841 0.77116 0.42257 0.0
H807 H 0.47686 0.75918 0.45452 0.0
H808 H 0.55154 0.79452 0.47638 0.0
C809 C 0.54085 0.76847 0.5442 0.0
C810 C 0.51002 0.73962 0.50179 0.0
C811 C 0.53559 0.77455 0.56271 0.0
C812 C 0.48905 0.77125 0.4275 0.0
C813 C 0.49393 0.76409 0.4458 0.0
C814 C 0.54041 0.77863 0.48325 0.0
C815 C 0.51961 0.76199 0.53213 0.0
C816 C 0.52422 0.7591 0.51199 0.0
C817 C 0.52024 0.76472 0.45302 0.0
C818 C 0.5245 0.76048 0.47308 0.0
H819 H 0.46716 0.76661 0.56224 0.0
H820 H 0.4763 0.75618 0.53014 0.0
H821 H 0.55128 0.79335 0.50998 0.0
H822 H 0.55378 0.78455 0.41431 0.0
H823 H 0.56225 0.77222 0.44648 0.0
C824 C 0.23459 0.51738 0.42869 0.0
C825 C 0.2283 0.49573 0.41692 0.0
C826 C 0.24023 0.51288 0.44728 0.0
C827 C 0.22392 0.46603 0.48431 0.0
H828 H 0.27466 0.51 0.51177 0.0
C829 C 0.22437 0.46838 0.56405 0.0
C830 C 0.22349 0.49469 0.57133 0.0
C831 C 0.23084 0.46415 0.54547 0.0
C832 C 0.26046 0.49751 0.50429 0.0
H833 H 0.22413 0.4522 0.41536 0.0
H834 H 0.2339 0.44438 0.448 0.0
H835 H 0.27584 0.51024 0.4781 0.0
H836 H 0.23003 0.53701 0.565 0.0
H837 H 0.24114 0.52964 0.53279 0.0
H838 H 0.20779 0.45417 0.51048 0.0
C839 C 0.23431 0.46485 0.44275 0.0
C840 C 0.26114 0.49764 0.48503 0.0
C841 C 0.22884 0.46933 0.42406 0.0
C842 C 0.23032 0.51649 0.55984 0.0
C843 C 0.23697 0.51225 0.54139 0.0
C844 C 0.22324 0.46589 0.50359 0.0
C845 C 0.23963 0.48664 0.45462 0.0
C846 C 0.24226 0.48264 0.47484 0.0
C847 C 0.23687 0.4861 0.53389 0.0
C848 C 0.24089 0.48237 0.51376 0.0
H849 H 0.23453 0.53797 0.42365 0.0
H850 H 0.24391 0.53015 0.45608 0.0
H851 H 0.20896 0.45441 0.47686 0.0
H852 H 0.21925 0.45114 0.57253 0.0
H853 H 0.23076 0.44376 0.54009 0.0
C854 C 0.53084 0.23082 0.92531 0.0
C855 C 0.50449 0.22944 0.91814 0.0
C856 C 0.5351 0.23735 0.94389 0.0
C857 C 0.50118 0.26549 0.98547 0.0
H858 H 0.54501 0.21378 0.01225 0.0
C859 C 0.47974 0.23489 0.05994 0.0
C860 C 0.50112 0.22842 0.0719 0.0
C861 C 0.48477 0.24188 0.04163 0.0
C862 C 0.53318 0.22882 0.005 0.0
H863 H 0.4621 0.23534 0.92461 0.0
H864 H 0.4695 0.24652 0.95679 0.0
H865 H 0.5458 0.21399 0.97864 0.0
H866 H 0.5447 0.22534 0.07416 0.0
H867 H 0.55344 0.23738 0.04196 0.0
H868 H 0.4876 0.27944 0.01184 0.0
C869 C 0.48692 0.24269 0.94814 0.0
C870 C 0.53365 0.22894 0.98571 0.0
C871 C 0.48266 0.23598 0.9297 0.0
C872 C 0.52777 0.23015 0.06529 0.0
C873 C 0.53279 0.23693 0.04685 0.0
C874 C 0.5007 0.26535 0.00474 0.0
C875 C 0.51312 0.24294 0.95557 0.0
C876 C 0.51684 0.24658 0.97575 0.0
C877 C 0.51129 0.24244 0.03475 0.0
C878 C 0.51591 0.24631 0.01469 0.0
H879 H 0.54811 0.22596 0.91676 0.0
H880 H 0.55554 0.23756 0.9492 0.0
H881 H 0.48843 0.2797 0.97817 0.0
H882 H 0.45898 0.23398 0.0646 0.0
H883 H 0.46772 0.24567 0.03263 0.0
C884 C 0.7724 0.52808 0.42226 0.0
C885 C 0.77586 0.50186 0.41519 0.0
C886 C 0.76485 0.53198 0.44068 0.0
C887 C 0.73805 0.49675 0.48214 0.0
H888 H 0.78553 0.54493 0.50898 0.0
C889 C 0.76672 0.48063 0.55772 0.0
C890 C 0.77193 0.50292 0.56917 0.0
C891 C 0.75997 0.48432 0.53921 0.0
C892 C 0.77163 0.53185 0.50171 0.0
H893 H 0.77254 0.45921 0.42169 0.0
H894 H 0.75965 0.46602 0.45366 0.0
H895 H 0.78644 0.54465 0.47542 0.0
H896 H 0.7727 0.54668 0.57032 0.0
H897 H 0.7609 0.55309 0.53788 0.0
H898 H 0.72408 0.48315 0.5085 0.0
C899 C 0.76261 0.48359 0.44501 0.0
C900 C 0.77216 0.53169 0.48243 0.0
C901 C 0.77027 0.47969 0.42668 0.0
C902 C 0.76895 0.52906 0.56187 0.0
C903 C 0.7623 0.53275 0.54327 0.0
C904 C 0.73751 0.49692 0.50141 0.0
C905 C 0.76041 0.50975 0.45234 0.0
C906 C 0.75607 0.51345 0.47246 0.0
C907 C 0.75829 0.51038 0.53165 0.0
C908 C 0.75499 0.5138 0.51141 0.0
H909 H 0.77642 0.54561 0.41379 0.0
H910 H 0.76307 0.55238 0.4459 0.0
H911 H 0.72502 0.48284 0.47482 0.0
H912 H 0.76863 0.4602 0.56288 0.0
H913 H 0.75733 0.46664 0.53062 0.0
C914 C 0.47691 0.77943 0.06134 0.0
C915 C 0.50166 0.77613 0.07055 0.0
C916 C 0.47483 0.77358 0.04248 0.0
C917 C 0.51928 0.7719 0.00209 0.0
H918 H 0.4565 0.74495 0.97603 0.0
C919 C 0.52165 0.76477 0.92399 0.0
C920 C 0.49943 0.77602 0.91473 0.0
C921 C 0.52003 0.75855 0.9427 0.0
C922 C 0.47414 0.75256 0.98315 0.0
H923 H 0.5428 0.76169 0.06779 0.0
H924 H 0.53897 0.7508 0.03521 0.0
H925 H 0.45695 0.74511 0.00987 0.0
H926 H 0.45749 0.7879 0.9175 0.0
H927 H 0.45486 0.77771 0.95046 0.0
H928 H 0.53629 0.78011 0.97571 0.0
C929 C 0.52144 0.7588 0.04227 0.0
C930 C 0.47439 0.75265 0.0025 0.0
C931 C 0.52361 0.76496 0.06096 0.0
C932 C 0.47496 0.77928 0.9243 0.0
C933 C 0.47343 0.77334 0.94316 0.0
C934 C 0.51903 0.7718 0.9829 0.0
C935 C 0.49739 0.76409 0.03263 0.0
C936 C 0.497 0.76239 0.01216 0.0
C937 C 0.49628 0.76382 0.95269 0.0
C938 C 0.49649 0.7622 0.97316 0.0
H939 H 0.45965 0.78797 0.06843 0.0
H940 H 0.45603 0.77793 0.03545 0.0
H941 H 0.53673 0.78027 0.00904 0.0
H942 H 0.54064 0.76155 0.91689 0.0
H943 H 0.53777 0.75054 0.94952 0.0
C944 C 0.22016 0.3694 0.09582 0.0
C945 C 0.23293 0.39406 0.09975 0.0
C946 C 0.23557 0.34662 0.09109 0.0
C947 C 0.30349 0.32623 0.07471 0.0
H948 H 0.2953 0.26361 0.1063 0.0
C949 C 0.39223 0.26335 0.09883 0.0
C950 C 0.39037 0.23515 0.09994 0.0
C951 C 0.36993 0.2788 0.09381 0.0
C952 C 0.29746 0.28061 0.09702 0.0
H953 H 0.2715 0.41461 0.10097 0.0
H954 H 0.2981 0.37538 0.09255 0.0
H955 H 0.26051 0.29877 0.10626 0.0
H956 H 0.36385 0.20082 0.09635 0.0
H957 H 0.32414 0.22822 0.08796 0.0
H958 H 0.34115 0.30899 0.06631 0.0
C959 C 0.27633 0.37339 0.09313 0.0
C960 C 0.27755 0.30074 0.097 0.0
C961 C 0.26109 0.39585 0.09812 0.0
C962 C 0.36579 0.22256 0.09553 0.0
C963 C 0.34314 0.23818 0.09081 0.0
C964 C 0.32332 0.30622 0.07475 0.0
C965 C 0.26387 0.34842 0.08982 0.0
C966 C 0.28103 0.32432 0.08647 0.0
C967 C 0.34503 0.26649 0.08999 0.0
C968 C 0.32111 0.28382 0.08653 0.0
H969 H 0.19845 0.3675 0.09703 0.0
H970 H 0.22546 0.32759 0.08863 0.0
H971 H 0.30646 0.34397 0.06621 0.0
H972 H 0.41094 0.27362 0.10207 0.0
H973 H 0.37195 0.30057 0.09357 0.0
C974 C 0.77799 0.37131 0.5952 0.0
C975 C 0.76644 0.39305 0.60492 0.0
C976 C 0.76402 0.34675 0.59358 0.0
C977 C 0.71847 0.30547 0.61902 0.0
H978 H 0.68207 0.28064 0.5748 0.0
C979 C 0.61764 0.25309 0.62208 0.0
C980 C 0.61239 0.23018 0.61126 0.0
C981 C 0.64143 0.26758 0.61986 0.0
C982 C 0.69267 0.28686 0.58716 0.0
H983 H 0.73087 0.4063 0.61997 0.0
H984 H 0.7071 0.3637 0.61737 0.0
H985 H 0.71592 0.31682 0.57269 0.0
H986 H 0.62797 0.20457 0.58948 0.0
H987 H 0.66993 0.23061 0.58532 0.0
H988 H 0.69438 0.27689 0.63371 0.0
C989 C 0.72682 0.3656 0.61103 0.0
C990 C 0.71197 0.30749 0.58593 0.0
C991 C 0.74049 0.39 0.61248 0.0
C992 C 0.63156 0.2221 0.59805 0.0
C993 C 0.65545 0.23697 0.59564 0.0
C994 C 0.69938 0.28492 0.62024 0.0
C995 C 0.73856 0.34368 0.60184 0.0
C996 C 0.72412 0.31764 0.602 0.0
C997 C 0.66064 0.25974 0.60667 0.0
C998 C 0.68535 0.2763 0.60446 0.0
H999 H 0.79793 0.37311 0.5892 0.0
H1000 H 0.77336 0.32999 0.58641 0.0
H1001 H 0.72764 0.31302 0.63157 0.0
H1002 H 0.60333 0.25991 0.63238 0.0
H1003 H 0.64459 0.28532 0.62832 0.0
C1004 C 0.73911 0.60962 0.10045 0.0
C1005 C 0.76732 0.61117 0.10175 0.0
C1006 C 0.72395 0.63216 0.09554 0.0
C1007 C 0.72287 0.70462 0.09916 0.0
H1008 H 0.65961 0.69641 0.06813 0.0
C1009 C 0.63425 0.78242 0.09737 0.0
C1010 C 0.60968 0.76968 0.10161 0.0
C1011 C 0.65707 0.76695 0.0928 0.0
C1012 C 0.67735 0.69917 0.07666 0.0
H1013 H 0.80196 0.63742 0.09862 0.0
H1014 H 0.77508 0.67754 0.09042 0.0
H1015 H 0.69437 0.66149 0.06813 0.0
H1016 H 0.58933 0.73108 0.10363 0.0
H1017 H 0.62862 0.70438 0.09541 0.0
H1018 H 0.70492 0.74163 0.10849 0.0
C1019 C 0.76489 0.6586 0.09305 0.0
C1020 C 0.69722 0.67921 0.07667 0.0
C1021 C 0.78021 0.63572 0.09768 0.0
C1022 C 0.60803 0.74146 0.10054 0.0
C1023 C 0.6305 0.72616 0.09567 0.0
C1024 C 0.70291 0.72469 0.09915 0.0
C1025 C 0.73657 0.65699 0.092 0.0
C1026 C 0.71953 0.68111 0.08856 0.0
C1027 C 0.65534 0.73864 0.09196 0.0
C1028 C 0.67937 0.72147 0.08854 0.0
H1029 H 0.72861 0.59094 0.10341 0.0
H1030 H 0.70217 0.63035 0.09514 0.0
H1031 H 0.73981 0.70655 0.10852 0.0
H1032 H 0.63604 0.80417 0.09815 0.0
H1033 H 0.67603 0.77703 0.09004 0.0
C1034 C 0.26411 0.60379 0.60705 0.0
C1035 C 0.23613 0.60423 0.60396 0.0
C1036 C 0.27954 0.62691 0.60457 0.0
C1037 C 0.28844 0.69076 0.58249 0.0
H1038 H 0.33057 0.70596 0.6264 0.0
C1039 C 0.37291 0.77499 0.59406 0.0
C1040 C 0.39699 0.76286 0.60022 0.0
C1041 C 0.34928 0.75952 0.5922 0.0
C1042 C 0.3187 0.70221 0.61411 0.0
H1043 H 0.20259 0.62895 0.59476 0.0
H1044 H 0.23009 0.66995 0.5903 0.0
H1045 H 0.29551 0.67157 0.62743 0.0
H1046 H 0.41569 0.72482 0.60786 0.0
H1047 H 0.37484 0.69827 0.60472 0.0
H1048 H 0.31296 0.72075 0.56899 0.0
C1049 C 0.23976 0.65145 0.59475 0.0
C1050 C 0.29869 0.68257 0.61469 0.0
C1051 C 0.22411 0.62808 0.59732 0.0
C1052 C 0.39742 0.7349 0.60337 0.0
C1053 C 0.37403 0.71964 0.60157 0.0
C1054 C 0.30867 0.71062 0.5819 0.0
C1055 C 0.26748 0.65112 0.59889 0.0
C1056 C 0.28412 0.67589 0.59874 0.0
C1057 C 0.3496 0.73188 0.59654 0.0
C1058 C 0.32461 0.71565 0.59756 0.0
H1059 H 0.27414 0.58568 0.6119 0.0
H1060 H 0.30097 0.62605 0.60756 0.0
H1061 H 0.27745 0.68585 0.57002 0.0
H1062 H 0.37204 0.7965 0.5915 0.0
H1063 H 0.33059 0.76932 0.58826 0.0
C1064 C 0.37575 0.77865 0.39105 0.0
C1065 C 0.3995 0.76688 0.38403 0.0
C1066 C 0.35225 0.76305 0.39318 0.0
C1067 C 0.32045 0.70592 0.37147 0.0
H1068 H 0.28273 0.68841 0.41681 0.0
C1069 C 0.26869 0.6063 0.38033 0.0
C1070 C 0.24081 0.60618 0.38386 0.0
C1071 C 0.2837 0.62978 0.38241 0.0
C1072 C 0.29271 0.69365 0.40401 0.0
H1073 H 0.41771 0.72927 0.37495 0.0
H1074 H 0.3771 0.70254 0.37851 0.0
H1075 H 0.31779 0.72378 0.41684 0.0
H1076 H 0.20707 0.63033 0.39344 0.0
H1077 H 0.23385 0.67195 0.39723 0.0
H1078 H 0.29677 0.67506 0.35878 0.0
C1079 C 0.37644 0.72375 0.38215 0.0
C1080 C 0.31267 0.71378 0.40403 0.0
C1081 C 0.3997 0.73912 0.38012 0.0
C1082 C 0.22851 0.62987 0.39055 0.0
C1083 C 0.24375 0.6536 0.39274 0.0
C1084 C 0.30069 0.686 0.37145 0.0
C1085 C 0.35233 0.73564 0.38821 0.0
C1086 C 0.3274 0.71922 0.38787 0.0
C1087 C 0.27132 0.6538 0.38815 0.0
C1088 C 0.28741 0.67891 0.38784 0.0
H1089 H 0.37505 0.79999 0.39424 0.0
H1090 H 0.33384 0.77258 0.39794 0.0
H1091 H 0.33136 0.70997 0.35881 0.0
H1092 H 0.27892 0.58836 0.37541 0.0
H1093 H 0.30501 0.62936 0.37905 0.0
C1094 C 0.39657 0.26606 0.89002 0.0
C1095 C 0.39486 0.23785 0.88883 0.0
C1096 C 0.37415 0.28135 0.89503 0.0
C1097 C 0.30158 0.28249 0.89178 0.0
H1098 H 0.31006 0.34616 0.92235 0.0
C1099 C 0.2234 0.3705 0.89291 0.0
C1100 C 0.23593 0.39517 0.88868 0.0
C1101 C 0.23906 0.34792 0.89772 0.0
C1102 C 0.30723 0.32832 0.91393 0.0
H1103 H 0.36849 0.20337 0.89229 0.0
H1104 H 0.32863 0.23048 0.90068 0.0
H1105 H 0.34511 0.31153 0.92231 0.0
H1106 H 0.27433 0.41599 0.88702 0.0
H1107 H 0.30134 0.37711 0.89561 0.0
H1108 H 0.26439 0.30017 0.88257 0.0
C1109 C 0.34757 0.24057 0.89788 0.0
C1110 C 0.32727 0.30852 0.91391 0.0
C1111 C 0.37032 0.22511 0.89315 0.0
C1112 C 0.26411 0.3972 0.8901 0.0
C1113 C 0.27959 0.37496 0.89519 0.0
C1114 C 0.28146 0.30239 0.89179 0.0
C1115 C 0.34931 0.26888 0.89878 0.0
C1116 C 0.32525 0.28603 0.9022 0.0
C1117 C 0.26735 0.34996 0.89879 0.0
C1118 C 0.28474 0.32607 0.90222 0.0
H1119 H 0.41524 0.27644 0.88685 0.0
H1120 H 0.37605 0.30313 0.89532 0.0
H1121 H 0.29955 0.2654 0.88257 0.0
H1122 H 0.2017 0.36842 0.89187 0.0
H1123 H 0.22914 0.32885 0.90041 0.0
C1124 C 0.6293 0.22642 0.38944 0.0
C1125 C 0.60879 0.23637 0.37784 0.0
C1126 C 0.65379 0.24049 0.39123 0.0
C1127 C 0.69652 0.28743 0.36569 0.0
H1128 H 0.72 0.31803 0.41225 0.0
C1129 C 0.74587 0.3892 0.3697 0.0
C1130 C 0.77063 0.3923 0.37891 0.0
C1131 C 0.73128 0.36537 0.37116 0.0
C1132 C 0.71411 0.30905 0.39924 0.0
H1133 H 0.59782 0.26887 0.35918 0.0
H1134 H 0.6402 0.29284 0.3621 0.0
H1135 H 0.68416 0.28365 0.41188 0.0
H1136 H 0.79913 0.37296 0.39738 0.0
H1137 H 0.77285 0.33085 0.40026 0.0
H1138 H 0.72501 0.31386 0.3529 0.0
C1139 C 0.63752 0.27427 0.36978 0.0
C1140 C 0.69367 0.28945 0.39902 0.0
C1141 C 0.61315 0.26056 0.3682 0.0
C1142 C 0.78015 0.37109 0.39008 0.0
C1143 C 0.76518 0.3471 0.39175 0.0
C1144 C 0.7168 0.30686 0.3659 0.0
C1145 C 0.65817 0.26433 0.38115 0.0
C1146 C 0.68389 0.27947 0.38214 0.0
C1147 C 0.74085 0.34397 0.382 0.0
C1148 C 0.72491 0.31875 0.38258 0.0
H1149 H 0.62644 0.20786 0.39708 0.0
H1150 H 0.66943 0.23254 0.40015 0.0
H1151 H 0.68954 0.2798 0.35252 0.0
H1152 H 0.7378 0.40509 0.36103 0.0
H1153 H 0.71236 0.36364 0.36375 0.0
C1154 C 0.74565 0.61817 0.86653 0.0
C1155 C 0.76921 0.61379 0.87689 0.0
C1156 C 0.73118 0.64208 0.86825 0.0
C1157 C 0.71219 0.69593 0.89844 0.0
H1158 H 0.68963 0.72897 0.8524 0.0
C1159 C 0.62846 0.78038 0.88923 0.0
C1160 C 0.60814 0.77088 0.87732 0.0
C1161 C 0.65278 0.76601 0.89116 0.0
C1162 C 0.69608 0.72028 0.8654 0.0
H1163 H 0.79577 0.63093 0.89755 0.0
H1164 H 0.7697 0.67314 0.90088 0.0
H1165 H 0.72504 0.69476 0.85222 0.0
H1166 H 0.59731 0.73881 0.8583 0.0
H1167 H 0.63945 0.71436 0.86144 0.0
H1168 H 0.68181 0.72054 0.9114 0.0
C1169 C 0.76287 0.65786 0.89127 0.0
C1170 C 0.71629 0.70072 0.8653 0.0
C1171 C 0.77774 0.63383 0.88934 0.0
C1172 C 0.61249 0.74678 0.86756 0.0
C1173 C 0.6367 0.73279 0.86928 0.0
C1174 C 0.69184 0.71567 0.89854 0.0
C1175 C 0.73967 0.66226 0.8805 0.0
C1176 C 0.72365 0.68746 0.88166 0.0
C1177 C 0.65718 0.74232 0.88093 0.0
C1178 C 0.68283 0.72705 0.88187 0.0
H1179 H 0.73842 0.6032 0.85683 0.0
H1180 H 0.71312 0.64474 0.86001 0.0
H1181 H 0.71748 0.68591 0.91122 0.0
H1182 H 0.62559 0.79885 0.89697 0.0
H1183 H 0.6683 0.77363 0.9003 0.0
loop_
_geom_bond_atom_site_label_1
_geom_bond_atom_site_label_2
_geom_bond_distance
_geom_bond_site_symmetry_2
_ccdc_geom_bond_type
Co0 O1 2.216 . S
Co0 O2 2.091 . S
Co0 O4 2.004 . S
Co0 O10 2.021 . S
Co0 O12 2.137 . S
Co0 O13 2.244 . S
O1 Co0 2.216 . S
O1 C8 1.247 . S
O2 Co0 2.091 . S
O2 C8 1.261 . S
C3 O12 1.247 . S
C3 O13 1.272 . S
O4 Co0 2.004 . S
O4 C9 1.259 . S
Co5 O6 2.061 . S
Co5 O11 2.052 . S
Co5 O13 2.135 . S
O6 Co5 2.061 . S
O6 C9 1.235 . S
C7 O10 1.238 . S
C7 O11 1.241 . S
C8 O1 1.247 . S
C8 O2 1.261 . S
C9 O4 1.259 . S
C9 O6 1.235 . S
O10 Co0 2.021 . S
O10 C7 1.238 . S
O11 Co5 2.052 . S
O11 C7 1.241 . S
O12 Co0 2.137 . S
O12 C3 1.247 . S
O13 Co0 2.244 . S
O13 C3 1.272 . S
O13 Co5 2.135 . S
Co14 O15 2.216 . S
Co14 O16 2.091 . S
Co14 O18 2.004 . S
Co14 O24 2.021 . S
Co14 O26 2.137 . S
Co14 O27 2.244 . S
O15 Co14 2.216 . S
O15 C22 1.247 . S
O16 Co14 2.091 . S
O16 C22 1.261 . S
C17 O26 1.247 . S
C17 O27 1.272 . S
O18 Co14 2.004 . S
O18 C23 1.259 . S
Co19 O20 2.061 . S
Co19 O25 2.052 . S
Co19 O27 2.135 . S
O20 Co19 2.061 . S
O20 C23 1.235 . S
C21 O24 1.238 . S
C21 O25 1.241 . S
C22 O15 1.247 . S
C22 O16 1.261 . S
C23 O18 1.259 . S
C23 O20 1.235 . S
O24 Co14 2.021 . S
O24 C21 1.238 . S
O25 Co19 2.052 . S
O25 C21 1.241 . S
O26 Co14 2.137 . S
O26 C17 1.247 . S
O27 Co14 2.244 . S
O27 C17 1.272 . S
O27 Co19 2.135 . S
Co28 O29 2.216 . S
Co28 O30 2.091 . S
Co28 O32 2.004 . S
Co28 O38 2.021 . S
Co28 O40 2.137 . S
Co28 O41 2.244 . S
O29 Co28 2.216 . S
O29 C36 1.247 . S
O30 Co28 2.091 . S
O30 C36 1.261 . S
C31 O40 1.247 . S
C31 O41 1.272 . S
O32 Co28 2.004 . S
O32 C37 1.259 . S
Co33 O34 2.061 . S
Co33 O39 2.052 . S
Co33 O41 2.135 . S
O34 Co33 2.061 . S
O34 C37 1.235 . S
C35 O38 1.238 . S
C35 O39 1.241 . S
C36 O29 1.247 . S
C36 O30 1.261 . S
C37 O32 1.259 . S
C37 O34 1.235 . S
O38 Co28 2.021 . S
O38 C35 1.238 . S
O39 Co33 2.052 . S
O39 C35 1.241 . S
O40 Co28 2.137 . S
O40 C31 1.247 . S
O41 Co28 2.244 . S
O41 C31 1.272 . S
O41 Co33 2.135 . S
Co42 O43 2.216 . S
Co42 O44 2.091 . S
Co42 O46 2.004 . S
Co42 O52 2.021 . S
Co42 O54 2.137 . S
Co42 O55 2.244 . S
O43 Co42 2.216 . S
O43 C50 1.247 . S
O44 Co42 2.091 . S
O44 C50 1.261 . S
C45 O54 1.247 . S
C45 O55 1.272 . S
O46 Co42 2.004 . S
O46 C51 1.259 . S
Co47 O48 2.061 . S
Co47 O53 2.052 . S
Co47 O55 2.135 . S
O48 Co47 2.061 . S
O48 C51 1.235 . S
C49 O52 1.238 . S
C49 O53 1.241 . S
C50 O43 1.247 . S
C50 O44 1.261 . S
C51 O46 1.259 . S
C51 O48 1.235 . S
O52 Co42 2.021 . S
O52 C49 1.238 . S
O53 Co47 2.052 . S
O53 C49 1.241 . S
O54 Co42 2.137 . S
O54 C45 1.247 . S
O55 Co42 2.244 . S
O55 C45 1.272 . S
O55 Co47 2.135 . S
Co56 O57 2.216 . S
Co56 O58 2.091 . S
Co56 O60 2.004 . S
Co56 O66 2.021 . S
Co56 O68 2.137 . S
Co56 O69 2.244 . S
O57 Co56 2.216 . S
O57 C64 1.247 . S
O58 Co56 2.091 . S
O58 C64 1.261 . S
C59 O68 1.247 . S
C59 O69 1.272 . S
O60 Co56 2.004 . S
O60 C65 1.259 . S
Co61 O62 2.061 . S
Co61 O67 2.052 . S
Co61 O69 2.135 . S
O62 Co61 2.061 . S
O62 C65 1.235 . S
C63 O66 1.238 . S
C63 O67 1.241 . S
C64 O57 1.247 . S
C64 O58 1.261 . S
C65 O60 1.259 . S
C65 O62 1.235 . S
O66 Co56 2.021 . S
O66 C63 1.238 . S
O67 Co61 2.052 . S
O67 C63 1.241 . S
O68 Co56 2.137 . S
O68 C59 1.247 . S
O69 Co56 2.244 . S
O69 C59 1.272 . S
O69 Co61 2.135 . S
Co70 O71 2.216 . S
Co70 O72 2.091 . S
Co70 O74 2.004 . S
Co70 O80 2.021 . S
Co70 O82 2.137 . S
Co70 O83 2.244 . S
O71 Co70 2.216 . S
O71 C78 1.247 . S
O72 Co70 2.091 . S
O72 C78 1.261 . S
C73 O82 1.247 . S
C73 O83 1.272 . S
O74 Co70 2.004 . S
O74 C79 1.259 . S
Co75 O76 2.061 . S
Co75 O81 2.052 . S
Co75 O83 2.135 . S
O76 Co75 2.061 . S
O76 C79 1.235 . S
C77 O80 1.238 . S
C77 O81 1.241 . S
C78 O71 1.247 . S
C78 O72 1.261 . S
C79 O74 1.259 . S
C79 O76 1.235 . S
O80 Co70 2.021 . S
O80 C77 1.238 . S
O81 Co75 2.052 . S
O81 C77 1.241 . S
O82 Co70 2.137 . S
O82 C73 1.247 . S
O83 Co70 2.244 . S
O83 C73 1.272 . S
O83 Co75 2.135 . S
Co84 O85 2.216 . S
Co84 O86 2.091 . S
Co84 O88 2.004 . S
Co84 O94 2.021 . S
Co84 O96 2.137 . S
Co84 O97 2.244 . S
O85 Co84 2.216 . S
O85 C92 1.247 . S
O86 Co84 2.091 . S
O86 C92 1.261 . S
C87 O96 1.247 . S
C87 O97 1.272 . S
O88 Co84 2.004 . S
O88 C93 1.259 . S
Co89 O90 2.061 . S
Co89 O95 2.052 . S
Co89 O97 2.135 . S
O90 Co89 2.061 . S
O90 C93 1.235 . S
C91 O94 1.238 . S
C91 O95 1.241 . S
C92 O85 1.247 . S
C92 O86 1.261 . S
C93 O88 1.259 . S
C93 O90 1.235 . S
O94 Co84 2.021 . S
O94 C91 1.238 . S
O95 Co89 2.052 . S
O95 C91 1.241 . S
O96 Co84 2.137 . S
O96 C87 1.247 . S
O97 Co84 2.244 . S
O97 C87 1.272 . S
O97 Co89 2.135 . S
Co98 O99 2.216 . S
Co98 O100 2.091 . S
Co98 O102 2.004 . S
Co98 O108 2.021 . S
Co98 O110 2.137 . S
Co98 O111 2.244 . S
O99 Co98 2.216 . S
O99 C106 1.247 . S
O100 Co98 2.091 . S
O100 C106 1.261 . S
C101 O110 1.247 . S
C101 O111 1.272 . S
O102 Co98 2.004 . S
O102 C107 1.259 . S
Co103 O104 2.061 . S
Co103 O109 2.052 . S
Co103 O111 2.135 . S
O104 Co103 2.061 . S
O104 C107 1.235 . S
C105 O108 1.238 . S
C105 O109 1.241 . S
C106 O99 1.247 . S
C106 O100 1.261 . S
C107 O102 1.259 . S
C107 O104 1.235 . S
O108 Co98 2.021 . S
O108 C105 1.238 . S
O109 Co103 2.052 . S
O109 C105 1.241 . S
O110 Co98 2.137 . S
O110 C101 1.247 . S
O111 Co98 2.244 . S
O111 C101 1.272 . S
O111 Co103 2.135 . S
Co112 O113 2.216 . S
Co112 O114 2.091 . S
Co112 O116 2.004 . S
Co112 O122 2.021 . S
Co112 O124 2.137 . S
Co112 O125 2.244 . S
O113 Co112 2.216 . S
O113 C120 1.247 . S
O114 Co112 2.091 . S
O114 C120 1.261 . S
C115 O124 1.247 . S
C115 O125 1.272 . S
O116 Co112 2.004 . S
O116 C121 1.259 . S
Co117 O118 2.061 . S
Co117 O123 2.052 . S
Co117 O125 2.135 . S
O118 Co117 2.061 . S
O118 C121 1.235 . S
C119 O122 1.238 . S
C119 O123 1.241 . S
C120 O113 1.247 . S
C120 O114 1.261 . S
C121 O116 1.259 . S
C121 O118 1.235 . S
O122 Co112 2.021 . S
O122 C119 1.238 . S
O123 Co117 2.052 . S
O123 C119 1.241 . S
O124 Co112 2.137 . S
O124 C115 1.247 . S
O125 Co112 2.244 . S
O125 C115 1.272 . S
O125 Co117 2.135 . S
Co126 O127 2.216 . S
Co126 O128 2.091 . S
Co126 O130 2.004 . S
Co126 O136 2.021 . S
Co126 O138 2.137 . S
Co126 O139 2.244 . S
O127 Co126 2.216 . S
O127 C134 1.247 . S
O128 Co126 2.091 . S
O128 C134 1.261 . S
C129 O138 1.247 . S
C129 O139 1.272 . S
O130 Co126 2.004 . S
O130 C135 1.259 . S
Co131 O132 2.061 . S
Co131 O137 2.052 . S
Co131 O139 2.135 . S
O132 Co131 2.061 . S
O132 C135 1.235 . S
C133 O136 1.238 . S
C133 O137 1.241 . S
C134 O127 1.247 . S
C134 O128 1.261 . S
C135 O130 1.259 . S
C135 O132 1.235 . S
O136 Co126 2.021 . S
O136 C133 1.238 . S
O137 Co131 2.052 . S
O137 C133 1.241 . S
O138 Co126 2.137 . S
O138 C129 1.247 . S
O139 Co126 2.244 . S
O139 C129 1.272 . S
O139 Co131 2.135 . S
Co140 O141 2.216 . S
Co140 O142 2.091 . S
Co140 O144 2.004 . S
Co140 O150 2.021 . S
Co140 O152 2.137 . S
Co140 O153 2.244 . S
O141 Co140 2.216 . S
O141 C148 1.247 . S
O142 Co140 2.091 . S
O142 C148 1.261 . S
C143 O152 1.247 . S
C143 O153 1.272 . S
O144 Co140 2.004 . S
O144 C149 1.259 . S
Co145 O146 2.061 . S
Co145 O151 2.052 . S
Co145 O153 2.135 . S
O146 Co145 2.061 . S
O146 C149 1.235 . S
C147 O150 1.238 . S
C147 O151 1.241 . S
C148 O141 1.247 . S
C148 O142 1.261 . S
C149 O144 1.259 . S
C149 O146 1.235 . S
O150 Co140 2.021 . S
O150 C147 1.238 . S
O151 Co145 2.052 . S
O151 C147 1.241 . S
O152 Co140 2.137 . S
O152 C143 1.247 . S
O153 Co140 2.244 . S
O153 C143 1.272 . S
O153 Co145 2.135 . S
Co154 O155 2.216 . S
Co154 O156 2.091 . S
Co154 O158 2.004 . S
Co154 O164 2.021 . S
Co154 O166 2.137 . S
Co154 O167 2.244 . S
O155 Co154 2.216 . S
O155 C162 1.247 . S
O156 Co154 2.091 . S
O156 C162 1.261 . S
C157 O166 1.247 . S
C157 O167 1.272 . S
O158 Co154 2.004 . S
O158 C163 1.259 . S
Co159 O160 2.061 . S
Co159 O165 2.052 . S
Co159 O167 2.135 . S
O160 Co159 2.061 . S
O160 C163 1.235 . S
C161 O164 1.238 . S
C161 O165 1.241 . S
C162 O155 1.247 . S
C162 O156 1.261 . S
C163 O158 1.259 . S
C163 O160 1.235 . S
O164 Co154 2.021 . S
O164 C161 1.238 . S
O165 Co159 2.052 . S
O165 C161 1.241 . S
O166 Co154 2.137 . S
O166 C157 1.247 . S
O167 Co154 2.244 . S
O167 C157 1.272 . S
O167 Co159 2.135 . S
Co168 O169 2.216 . S
Co168 O170 2.091 . S
Co168 O172 2.004 . S
Co168 O178 2.021 . S
Co168 O180 2.137 . S
Co168 O181 2.244 . S
O169 Co168 2.216 . S
O169 C176 1.247 . S
O170 Co168 2.091 . S
O170 C176 1.261 . S
C171 O180 1.247 . S
C171 O181 1.272 . S
O172 Co168 2.004 . S
O172 C177 1.259 . S
Co173 O174 2.061 . S
Co173 O179 2.052 . S
Co173 O181 2.135 . S
O174 Co173 2.061 . S
O174 C177 1.235 . S
C175 O178 1.238 . S
C175 O179 1.241 . S
C176 O169 1.247 . S
C176 O170 1.261 . S
C177 O172 1.259 . S
C177 O174 1.235 . S
O178 Co168 2.021 . S
O178 C175 1.238 . S
O179 Co173 2.052 . S
O179 C175 1.241 . S
O180 Co168 2.137 . S
O180 C171 1.247 . S
O181 Co168 2.244 . S
O181 C171 1.272 . S
O181 Co173 2.135 . S
Co182 O183 2.216 . S
Co182 O184 2.091 . S
Co182 O186 2.004 . S
Co182 O192 2.021 . S
Co182 O194 2.137 . S
Co182 O195 2.244 . S
O183 Co182 2.216 . S
O183 C190 1.247 . S
O184 Co182 2.091 . S
O184 C190 1.261 . S
C185 O194 1.247 . S
C185 O195 1.272 . S
O186 Co182 2.004 . S
O186 C191 1.259 . S
Co187 O188 2.061 . S
Co187 O193 2.052 . S
Co187 O195 2.135 . S
O188 Co187 2.061 . S
O188 C191 1.235 . S
C189 O192 1.238 . S
C189 O193 1.241 . S
C190 O183 1.247 . S
C190 O184 1.261 . S
C191 O186 1.259 . S
C191 O188 1.235 . S
O192 Co182 2.021 . S
O192 C189 1.238 . S
O193 Co187 2.052 . S
O193 C189 1.241 . S
O194 Co182 2.137 . S
O194 C185 1.247 . S
O195 Co182 2.244 . S
O195 C185 1.272 . S
O195 Co187 2.135 . S
Co196 O197 2.216 . S
Co196 O198 2.091 . S
Co196 O200 2.004 . S
Co196 O206 2.021 . S
Co196 O208 2.137 . S
Co196 O209 2.244 . S
O197 Co196 2.216 . S
O197 C204 1.247 . S
O198 Co196 2.091 . S
O198 C204 1.261 . S
C199 O208 1.247 . S
C199 O209 1.272 . S
O200 Co196 2.004 . S
O200 C205 1.259 . S
Co201 O202 2.061 . S
Co201 O207 2.052 . S
Co201 O209 2.135 . S
O202 Co201 2.061 . S
O202 C205 1.235 . S
C203 O206 1.238 . S
C203 O207 1.241 . S
C204 O197 1.247 . S
C204 O198 1.261 . S
C205 O200 1.259 . S
C205 O202 1.235 . S
O206 Co196 2.021 . S
O206 C203 1.238 . S
O207 Co201 2.052 . S
O207 C203 1.241 . S
O208 Co196 2.137 . S
O208 C199 1.247 . S
O209 Co196 2.244 . S
O209 C199 1.272 . S
O209 Co201 2.135 . S
Co210 O211 2.216 . S
Co210 O212 2.091 . S
Co210 O214 2.004 . S
Co210 O220 2.021 . S
Co210 O222 2.137 . S
Co210 O223 2.244 . S
O211 Co210 2.216 . S
O211 C218 1.247 . S
O212 Co210 2.091 . S
O212 C218 1.261 . S
C213 O222 1.247 . S
C213 O223 1.272 . S
O214 Co210 2.004 . S
O214 C219 1.259 . S
Co215 O216 2.061 . S
Co215 O221 2.052 . S
Co215 O223 2.135 . S
O216 Co215 2.061 . S
O216 C219 1.235 . S
C217 O220 1.238 . S
C217 O221 1.241 . S
C218 O211 1.247 . S
C218 O212 1.261 . S
C219 O214 1.259 . S
C219 O216 1.235 . S
O220 Co210 2.021 . S
O220 C217 1.238 . S
O221 Co215 2.052 . S
O221 C217 1.241 . S
O222 Co210 2.137 . S
O222 C213 1.247 . S
O223 Co210 2.244 . S
O223 C213 1.272 . S
O223 Co215 2.135 . S
C224 C225 1.349 . S
C224 C226 1.327 . S
C224 H249 0.950 . S
C225 C224 1.349 . S
C225 C241 1.349 . S
C226 C224 1.327 . S
C226 C245 1.429 . S
C226 H250 0.950 . S
C227 C244 1.574 1_455 S
C227 C246 1.368 . S
C227 H251 0.949 . S
H228 C232 0.949 . S
C229 C230 1.349 . S
C229 C231 1.327 . S
C229 H252 0.950 . S
C230 C229 1.349 . S
C230 C242 1.349 . S
C231 C229 1.327 . S
C231 C247 1.429 . S
C231 H253 0.950 . S
C232 H228 0.949 . S
C232 C240 1.574 1_655 S
C232 C248 1.368 . S
H233 C241 0.950 . S
H234 C239 0.950 . S
H235 C240 0.949 . S
H236 C242 0.950 . S
H237 C243 0.950 . S
H238 C244 0.949 . S
C239 H234 0.950 . S
C239 C241 1.327 . S
C239 C245 1.429 . S
C240 C232 1.574 1_455 S
C240 H235 0.949 . S
C240 C246 1.368 . S
C241 C225 1.349 . S
C241 H233 0.950 . S
C241 C239 1.327 . S
C242 C230 1.349 . S
C242 H236 0.950 . S
C242 C243 1.327 . S
C243 H237 0.950 . S
C243 C242 1.327 . S
C243 C247 1.429 . S
C244 C227 1.574 1_655 S
C244 H238 0.949 . S
C244 C248 1.368 . S
C245 C226 1.429 . S
C245 C239 1.429 . S
C245 C246 1.523 . S
C246 C227 1.368 . S
C246 C240 1.368 . S
C246 C245 1.523 . S
C247 C231 1.429 . S
C247 C243 1.429 . S
C247 C248 1.523 . S
C248 C232 1.368 . S
C248 C244 1.368 . S
C248 C247 1.523 . S
H249 C224 0.950 . S
H250 C226 0.950 . S
H251 C227 0.949 . S
H252 C229 0.950 . S
H253 C231 0.950 . S
C254 C255 1.349 . S
C254 C256 1.327 . S
C254 H279 0.950 . S
C255 C254 1.349 . S
C255 C271 1.349 . S
C256 C254 1.327 . S
C256 C275 1.429 . S
C256 H280 0.950 . S
C257 C274 1.574 1_565 S
C257 C276 1.368 . S
C257 H281 0.949 . S
H258 C262 0.949 . S
C259 C260 1.349 . S
C259 C261 1.327 . S
C259 H282 0.950 . S
C260 C259 1.349 . S
C260 C272 1.349 . S
C261 C259 1.327 . S
C261 C277 1.429 . S
C261 H283 0.950 . S
C262 H258 0.949 . S
C262 C270 1.574 1_545 S
C262 C278 1.368 . S
H263 C271 0.950 . S
H264 C269 0.950 . S
H265 C270 0.949 . S
H266 C272 0.950 . S
H267 C273 0.950 . S
H268 C274 0.949 . S
C269 H264 0.950 . S
C269 C271 1.327 . S
C269 C275 1.429 . S
C270 C262 1.574 1_565 S
C270 H265 0.949 . S
C270 C276 1.368 . S
C271 C255 1.349 . S
C271 H263 0.950 . S
C271 C269 1.327 . S
C272 C260 1.349 . S
C272 H266 0.950 . S
C272 C273 1.327 . S
C273 H267 0.950 . S
C273 C272 1.327 . S
C273 C277 1.429 . S
C274 C257 1.574 1_545 S
C274 H268 0.949 . S
C274 C278 1.368 . S
C275 C256 1.429 . S
C275 C269 1.429 . S
C275 C276 1.523 . S
C276 C257 1.368 . S
C276 C270 1.368 . S
C276 C275 1.523 . S
C277 C261 1.429 . S
C277 C273 1.429 . S
C277 C278 1.523 . S
C278 C262 1.368 . S
C278 C274 1.368 . S
C278 C277 1.523 . S
H279 C254 0.950 . S
H280 C256 0.950 . S
H281 C257 0.949 . S
H282 C259 0.950 . S
H283 C261 0.950 . S
C284 C285 1.349 . S
C284 C286 1.327 . S
C284 H309 0.950 . S
C285 C284 1.349 . S
C285 C301 1.349 . S
C286 C284 1.327 . S
C286 C305 1.429 . S
C286 H310 0.950 . S
C287 C304 1.574 1_455 S
C287 C306 1.368 . S
C287 H311 0.949 . S
H288 C292 0.949 . S
C289 C290 1.349 . S
C289 C291 1.327 . S
C289 H312 0.950 . S
C290 C289 1.349 . S
C290 C302 1.349 . S
C291 C289 1.327 . S
C291 C307 1.429 . S
C291 H313 0.950 . S
C292 H288 0.949 . S
C292 C300 1.574 1_655 S
C292 C308 1.368 . S
H293 C301 0.950 . S
H294 C299 0.950 . S
H295 C300 0.949 . S
H296 C302 0.950 . S
H297 C303 0.950 . S
H298 C304 0.949 . S
C299 H294 0.950 . S
C299 C301 1.327 . S
C299 C305 1.429 . S
C300 C292 1.574 1_455 S
C300 H295 0.949 . S
C300 C306 1.368 . S
C301 C285 1.349 . S
C301 H293 0.950 . S
C301 C299 1.327 . S
C302 C290 1.349 . S
C302 H296 0.950 . S
C302 C303 1.327 . S
C303 H297 0.950 . S
C303 C302 1.327 . S
C303 C307 1.429 . S
C304 C287 1.574 1_655 S
C304 H298 0.949 . S
C304 C308 1.368 . S
C305 C286 1.429 . S
C305 C299 1.429 . S
C305 C306 1.523 . S
C306 C287 1.368 . S
C306 C300 1.368 . S
C306 C305 1.523 . S
C307 C291 1.429 . S
C307 C303 1.429 . S
C307 C308 1.523 . S
C308 C292 1.368 . S
C308 C304 1.368 . S
C308 C307 1.523 . S
H309 C284 0.950 . S
H310 C286 0.950 . S
H311 C287 0.949 . S
H312 C289 0.950 . S
H313 C291 0.950 . S
C314 C315 1.349 . S
C314 C316 1.327 . S
C314 H339 0.950 . S
C315 C314 1.349 . S
C315 C331 1.349 . S
C316 C314 1.327 . S
C316 C335 1.429 . S
C316 H340 0.950 . S
C317 C334 1.574 1_565 S
C317 C336 1.368 . S
C317 H341 0.949 . S
H318 C322 0.949 . S
C319 C320 1.349 . S
C319 C321 1.327 . S
C319 H342 0.950 . S
C320 C319 1.349 . S
C320 C332 1.349 . S
C321 C319 1.327 . S
C321 C337 1.429 . S
C321 H343 0.950 . S
C322 H318 0.949 . S
C322 C330 1.574 1_545 S
C322 C338 1.368 . S
H323 C331 0.950 . S
H324 C329 0.950 . S
H325 C330 0.949 . S
H326 C332 0.950 . S
H327 C333 0.950 . S
H328 C334 0.949 . S
C329 H324 0.950 . S
C329 C331 1.327 . S
C329 C335 1.429 . S
C330 C322 1.574 1_565 S
C330 H325 0.949 . S
C330 C336 1.368 . S
C331 C315 1.349 . S
C331 H323 0.950 . S
C331 C329 1.327 . S
C332 C320 1.349 . S
C332 H326 0.950 . S
C332 C333 1.327 . S
C333 H327 0.950 . S
C333 C332 1.327 . S
C333 C337 1.429 . S
C334 C317 1.574 1_545 S
C334 H328 0.949 . S
C334 C338 1.368 . S
C335 C316 1.429 . S
C335 C329 1.429 . S
C335 C336 1.523 . S
C336 C317 1.368 . S
C336 C330 1.368 . S
C336 C335 1.523 . S
C337 C321 1.429 . S
C337 C333 1.429 . S
C337 C338 1.523 . S
C338 C322 1.368 . S
C338 C334 1.368 . S
C338 C337 1.523 . S
H339 C314 0.950 . S
H340 C316 0.950 . S
H341 C317 0.949 . S
H342 C319 0.950 . S
H343 C321 0.950 . S
C344 C345 1.349 . S
C344 C346 1.327 . S
C344 H369 0.950 . S
C345 C344 1.349 . S
C345 C361 1.349 . S
C346 C344 1.327 . S
C346 C365 1.429 . S
C346 H370 0.950 . S
C347 C364 1.574 1_655 S
C347 C366 1.368 . S
C347 H371 0.949 . S
H348 C352 0.949 . S
C349 C350 1.349 . S
C349 C351 1.327 . S
C349 H372 0.950 . S
C350 C349 1.349 . S
C350 C362 1.349 . S
C351 C349 1.327 . S
C351 C367 1.429 . S
C351 H373 0.950 . S
C352 H348 0.949 . S
C352 C360 1.574 1_455 S
C352 C368 1.368 . S
H353 C361 0.950 . S
H354 C359 0.950 . S
H355 C360 0.949 . S
H356 C362 0.950 . S
H357 C363 0.950 . S
H358 C364 0.949 . S
C359 H354 0.950 . S
C359 C361 1.327 . S
C359 C365 1.429 . S
C360 C352 1.574 1_655 S
C360 H355 0.949 . S
C360 C366 1.368 . S
C361 C345 1.349 . S
C361 H353 0.950 . S
C361 C359 1.327 . S
C362 C350 1.349 . S
C362 H356 0.950 . S
C362 C363 1.327 . S
C363 H357 0.950 . S
C363 C362 1.327 . S
C363 C367 1.429 . S
C364 C347 1.574 1_455 S
C364 H358 0.949 . S
C364 C368 1.368 . S
C365 C346 1.429 . S
C365 C359 1.429 . S
C365 C366 1.523 . S
C366 C347 1.368 . S
C366 C360 1.368 . S
C366 C365 1.523 . S
C367 C351 1.429 . S
C367 C363 1.429 . S
C367 C368 1.523 . S
C368 C352 1.368 . S
C368 C364 1.368 . S
C368 C367 1.523 . S
H369 C344 0.950 . S
H370 C346 0.950 . S
H371 C347 0.949 . S
H372 C349 0.950 . S
H373 C351 0.950 . S
C374 C375 1.349 . S
C374 C376 1.327 . S
C374 H399 0.950 . S
C375 C374 1.349 . S
C375 C391 1.349 . S
C376 C374 1.327 . S
C376 C395 1.429 . S
C376 H400 0.950 . S
C377 C394 1.574 1_545 S
C377 C396 1.368 . S
C377 H401 0.949 . S
H378 C382 0.949 . S
C379 C380 1.349 . S
C379 C381 1.327 . S
C379 H402 0.950 . S
C380 C379 1.349 . S
C380 C392 1.349 . S
C381 C379 1.327 . S
C381 C397 1.429 . S
C381 H403 0.950 . S
C382 H378 0.949 . S
C382 C390 1.574 1_565 S
C382 C398 1.368 . S
H383 C391 0.950 . S
H384 C389 0.950 . S
H385 C390 0.949 . S
H386 C392 0.950 . S
H387 C393 0.950 . S
H388 C394 0.949 . S
C389 H384 0.950 . S
C389 C391 1.327 . S
C389 C395 1.429 . S
C390 C382 1.574 1_545 S
C390 H385 0.949 . S
C390 C396 1.368 . S
C391 C375 1.349 . S
C391 H383 0.950 . S
C391 C389 1.327 . S
C392 C380 1.349 . S
C392 H386 0.950 . S
C392 C393 1.327 . S
C393 H387 0.950 . S
C393 C392 1.327 . S
C393 C397 1.429 . S
C394 C377 1.574 1_565 S
C394 H388 0.949 . S
C394 C398 1.368 . S
C395 C376 1.429 . S
C395 C389 1.429 . S
C395 C396 1.523 . S
C396 C377 1.368 . S
C396 C390 1.368 . S
C396 C395 1.523 . S
C397 C381 1.429 . S
C397 C393 1.429 . S
C397 C398 1.523 . S
C398 C382 1.368 . S
C398 C394 1.368 . S
C398 C397 1.523 . S
H399 C374 0.950 . S
H400 C376 0.950 . S
H401 C377 0.949 . S
H402 C379 0.950 . S
H403 C381 0.950 . S
C404 C405 1.349 . S
C404 C406 1.327 . S
C404 H429 0.950 . S
C405 C404 1.349 . S
C405 C421 1.349 . S
C406 C404 1.327 . S
C406 C425 1.429 . S
C406 H430 0.950 . S
C407 C424 1.574 1_655 S
C407 C426 1.368 . S
C407 H431 0.949 . S
H408 C412 0.949 . S
C409 C410 1.349 . S
C409 C411 1.327 . S
C409 H432 0.950 . S
C410 C409 1.349 . S
C410 C422 1.349 . S
C411 C409 1.327 . S
C411 C427 1.429 . S
C411 H433 0.950 . S
C412 H408 0.949 . S
C412 C420 1.574 1_455 S
C412 C428 1.368 . S
H413 C421 0.950 . S
H414 C419 0.950 . S
H415 C420 0.949 . S
H416 C422 0.950 . S
H417 C423 0.950 . S
H418 C424 0.949 . S
C419 H414 0.950 . S
C419 C421 1.327 . S
C419 C425 1.429 . S
C420 C412 1.574 1_655 S
C420 H415 0.949 . S
C420 C426 1.368 . S
C421 C405 1.349 . S
C421 H413 0.950 . S
C421 C419 1.327 . S
C422 C410 1.349 . S
C422 H416 0.950 . S
C422 C423 1.327 . S
C423 H417 0.950 . S
C423 C422 1.327 . S
C423 C427 1.429 . S
C424 C407 1.574 1_455 S
C424 H418 0.949 . S
C424 C428 1.368 . S
C425 C406 1.429 . S
C425 C419 1.429 . S
C425 C426 1.523 . S
C426 C407 1.368 . S
C426 C420 1.368 . S
C426 C425 1.523 . S
C427 C411 1.429 . S
C427 C423 1.429 . S
C427 C428 1.523 . S
C428 C412 1.368 . S
C428 C424 1.368 . S
C428 C427 1.523 . S
H429 C404 0.950 . S
H430 C406 0.950 . S
H431 C407 0.949 . S
H432 C409 0.950 . S
H433 C411 0.950 . S
C434 C435 1.349 . S
C434 C436 1.327 . S
C434 H459 0.950 . S
C435 C434 1.349 . S
C435 C451 1.349 . S
C436 C434 1.327 . S
C436 C455 1.429 . S
C436 H460 0.950 . S
C437 C454 1.574 1_545 S
C437 C456 1.368 . S
C437 H461 0.949 . S
H438 C442 0.949 . S
C439 C440 1.349 . S
C439 C441 1.327 . S
C439 H462 0.950 . S
C440 C439 1.349 . S
C440 C452 1.349 . S
C441 C439 1.327 . S
C441 C457 1.429 . S
C441 H463 0.950 . S
C442 H438 0.949 . S
C442 C450 1.574 1_565 S
C442 C458 1.368 . S
H443 C451 0.950 . S
H444 C449 0.950 . S
H445 C450 0.949 . S
H446 C452 0.950 . S
H447 C453 0.950 . S
H448 C454 0.949 . S
C449 H444 0.950 . S
C449 C451 1.327 . S
C449 C455 1.429 . S
C450 C442 1.574 1_545 S
C450 H445 0.949 . S
C450 C456 1.368 . S
C451 C435 1.349 . S
C451 H443 0.950 . S
C451 C449 1.327 . S
C452 C440 1.349 . S
C452 H446 0.950 . S
C452 C453 1.327 . S
C453 H447 0.950 . S
C453 C452 1.327 . S
C453 C457 1.429 . S
C454 C437 1.574 1_565 S
C454 H448 0.949 . S
C454 C458 1.368 . S
C455 C436 1.429 . S
C455 C449 1.429 . S
C455 C456 1.523 . S
C456 C437 1.368 . S
C456 C450 1.368 . S
C456 C455 1.523 . S
C457 C441 1.429 . S
C457 C453 1.429 . S
C457 C458 1.523 . S
C458 C442 1.368 . S
C458 C454 1.368 . S
C458 C457 1.523 . S
H459 C434 0.950 . S
H460 C436 0.950 . S
H461 C437 0.949 . S
H462 C439 0.950 . S
H463 C441 0.950 . S
C464 C465 1.349 . S
C464 C466 1.327 . S
C464 H489 0.950 . S
C465 C464 1.349 . S
C465 C481 1.349 . S
C466 C464 1.327 . S
C466 C485 1.429 . S
C466 H490 0.950 . S
C467 C484 1.574 . S
C467 C486 1.368 . S
C467 H491 0.949 . S
H468 C472 0.949 . S
C469 C470 1.349 . S
C469 C471 1.327 . S
C469 H492 0.950 . S
C470 C469 1.349 . S
C470 C482 1.349 . S
C471 C469 1.327 . S
C471 C487 1.429 . S
C471 H493 0.950 . S
C472 H468 0.949 . S
C472 C480 1.574 . S
C472 C488 1.368 . S
H473 C481 0.950 . S
H474 C479 0.950 . S
H475 C480 0.949 . S
H476 C482 0.950 . S
H477 C483 0.950 . S
H478 C484 0.949 . S
C479 H474 0.950 . S
C479 C481 1.327 . S
C479 C485 1.429 . S
C480 C472 1.574 . S
C480 H475 0.949 . S
C480 C486 1.368 . S
C481 C465 1.349 . S
C481 H473 0.950 . S
C481 C479 1.327 . S
C482 C470 1.349 . S
C482 H476 0.950 . S
C482 C483 1.327 . S
C483 H477 0.950 . S
C483 C482 1.327 . S
C483 C487 1.429 . S
C484 C467 1.574 . S
C484 H478 0.949 . S
C484 C488 1.368 . S
C485 C466 1.429 . S
C485 C479 1.429 . S
C485 C486 1.523 . S
C486 C467 1.368 . S
C486 C480 1.368 . S
C486 C485 1.523 . S
C487 C471 1.429 . S
C487 C483 1.429 . S
C487 C488 1.523 . S
C488 C472 1.368 . S
C488 C484 1.368 . S
C488 C487 1.523 . S
H489 C464 0.950 . S
H490 C466 0.950 . S
H491 C467 0.949 . S
H492 C469 0.950 . S
H493 C471 0.950 . S
C494 C495 1.349 . S
C494 C496 1.327 . S
C494 H519 0.950 . S
C495 C494 1.349 . S
C495 C511 1.349 . S
C496 C494 1.327 . S
C496 C515 1.429 . S
C496 H520 0.950 . S
C497 C514 1.574 . S
C497 C516 1.368 . S
C497 H521 0.949 . S
H498 C502 0.949 . S
C499 C500 1.349 . S
C499 C501 1.327 . S
C499 H522 0.950 . S
C500 C499 1.349 . S
C500 C512 1.349 . S
C501 C499 1.327 . S
C501 C517 1.429 . S
C501 H523 0.950 . S
C502 H498 0.949 . S
C502 C510 1.574 . S
C502 C518 1.368 . S
H503 C511 0.950 . S
H504 C509 0.950 . S
H505 C510 0.949 . S
H506 C512 0.950 . S
H507 C513 0.950 . S
H508 C514 0.949 . S
C509 H504 0.950 . S
C509 C511 1.327 . S
C509 C515 1.429 . S
C510 C502 1.574 . S
C510 H505 0.949 . S
C510 C516 1.368 . S
C511 C495 1.349 . S
C511 H503 0.950 . S
C511 C509 1.327 . S
C512 C500 1.349 . S
C512 H506 0.950 . S
C512 C513 1.327 . S
C513 H507 0.950 . S
C513 C512 1.327 . S
C513 C517 1.429 . S
C514 C497 1.574 . S
C514 H508 0.949 . S
C514 C518 1.368 . S
C515 C496 1.429 . S
C515 C509 1.429 . S
C515 C516 1.523 . S
C516 C497 1.368 . S
C516 C510 1.368 . S
C516 C515 1.523 . S
C517 C501 1.429 . S
C517 C513 1.429 . S
C517 C518 1.523 . S
C518 C502 1.368 . S
C518 C514 1.368 . S
C518 C517 1.523 . S
H519 C494 0.950 . S
H520 C496 0.950 . S
H521 C497 0.949 . S
H522 C499 0.950 . S
H523 C501 0.950 . S
C524 C525 1.349 . S
C524 C526 1.327 . S
C524 H549 0.950 . S
C525 C524 1.349 . S
C525 C541 1.349 . S
C526 C524 1.327 . S
C526 C545 1.429 . S
C526 H550 0.950 . S
C527 C544 1.574 . S
C527 C546 1.368 . S
C527 H551 0.949 . S
H528 C532 0.949 . S
C529 C530 1.349 . S
C529 C531 1.327 . S
C529 H552 0.950 . S
C530 C529 1.349 . S
C530 C542 1.349 . S
C531 C529 1.327 . S
C531 C547 1.429 . S
C531 H553 0.950 . S
C532 H528 0.949 . S
C532 C540 1.574 . S
C532 C548 1.368 . S
H533 C541 0.950 . S
H534 C539 0.950 . S
H535 C540 0.949 . S
H536 C542 0.950 . S
H537 C543 0.950 . S
H538 C544 0.949 . S
C539 H534 0.950 . S
C539 C541 1.327 . S
C539 C545 1.429 . S
C540 C532 1.574 . S
C540 H535 0.949 . S
C540 C546 1.368 . S
C541 C525 1.349 . S
C541 H533 0.950 . S
C541 C539 1.327 . S
C542 C530 1.349 . S
C542 H536 0.950 . S
C542 C543 1.327 . S
C543 H537 0.950 . S
C543 C542 1.327 . S
C543 C547 1.429 . S
C544 C527 1.574 . S
C544 H538 0.949 . S
C544 C548 1.368 . S
C545 C526 1.429 . S
C545 C539 1.429 . S
C545 C546 1.523 . S
C546 C527 1.368 . S
C546 C540 1.368 . S
C546 C545 1.523 . S
C547 C531 1.429 . S
C547 C543 1.429 . S
C547 C548 1.523 . S
C548 C532 1.368 . S
C548 C544 1.368 . S
C548 C547 1.523 . S
H549 C524 0.950 . S
H550 C526 0.950 . S
H551 C527 0.949 . S
H552 C529 0.950 . S
H553 C531 0.950 . S
C554 C555 1.349 . S
C554 C556 1.327 . S
C554 H579 0.950 . S
C555 C554 1.349 . S
C555 C571 1.349 . S
C556 C554 1.327 . S
C556 C575 1.429 . S
C556 H580 0.950 . S
C557 C574 1.574 . S
C557 C576 1.368 . S
C557 H581 0.949 . S
H558 C562 0.949 . S
C559 C560 1.349 . S
C559 C561 1.327 . S
C559 H582 0.950 . S
C560 C559 1.349 . S
C560 C572 1.349 . S
C561 C559 1.327 . S
C561 C577 1.429 . S
C561 H583 0.950 . S
C562 H558 0.949 . S
C562 C570 1.574 . S
C562 C578 1.368 . S
H563 C571 0.950 . S
H564 C569 0.950 . S
H565 C570 0.949 . S
H566 C572 0.950 . S
H567 C573 0.950 . S
H568 C574 0.949 . S
C569 H564 0.950 . S
C569 C571 1.327 . S
C569 C575 1.429 . S
C570 C562 1.574 . S
C570 H565 0.949 . S
C570 C576 1.368 . S
C571 C555 1.349 . S
C571 H563 0.950 . S
C571 C569 1.327 . S
C572 C560 1.349 . S
C572 H566 0.950 . S
C572 C573 1.327 . S
C573 H567 0.950 . S
C573 C572 1.327 . S
C573 C577 1.429 . S
C574 C557 1.574 . S
C574 H568 0.949 . S
C574 C578 1.368 . S
C575 C556 1.429 . S
C575 C569 1.429 . S
C575 C576 1.523 . S
C576 C557 1.368 . S
C576 C570 1.368 . S
C576 C575 1.523 . S
C577 C561 1.429 . S
C577 C573 1.429 . S
C577 C578 1.523 . S
C578 C562 1.368 . S
C578 C574 1.368 . S
C578 C577 1.523 . S
H579 C554 0.950 . S
H580 C556 0.950 . S
H581 C557 0.949 . S
H582 C559 0.950 . S
H583 C561 0.950 . S
C584 C585 1.349 . S
C584 C586 1.327 . S
C584 H609 0.950 . S
C585 C584 1.349 . S
C585 C601 1.349 . S
C586 C584 1.327 . S
C586 C605 1.429 . S
C586 H610 0.950 . S
C587 C604 1.574 . S
C587 C606 1.368 . S
C587 H611 0.949 . S
H588 C592 0.949 . S
C589 C590 1.349 . S
C589 C591 1.327 . S
C589 H612 0.950 . S
C590 C589 1.349 . S
C590 C602 1.349 . S
C591 C589 1.327 . S
C591 C607 1.429 . S
C591 H613 0.950 . S
C592 H588 0.949 . S
C592 C600 1.574 . S
C592 C608 1.368 . S
H593 C601 0.950 . S
H594 C599 0.950 . S
H595 C600 0.949 . S
H596 C602 0.950 . S
H597 C603 0.950 . S
H598 C604 0.949 . S
C599 H594 0.950 . S
C599 C601 1.327 . S
C599 C605 1.429 . S
C600 C592 1.574 . S
C600 H595 0.949 . S
C600 C606 1.368 . S
C601 C585 1.349 . S
C601 H593 0.950 . S
C601 C599 1.327 . S
C602 C590 1.349 . S
C602 H596 0.950 . S
C602 C603 1.327 . S
C603 H597 0.950 . S
C603 C602 1.327 . S
C603 C607 1.429 . S
C604 C587 1.574 . S
C604 H598 0.949 . S
C604 C608 1.368 . S
C605 C586 1.429 . S
C605 C599 1.429 . S
C605 C606 1.523 . S
C606 C587 1.368 . S
C606 C600 1.368 . S
C606 C605 1.523 . S
C607 C591 1.429 . S
C607 C603 1.429 . S
C607 C608 1.523 . S
C608 C592 1.368 . S
C608 C604 1.368 . S
C608 C607 1.523 . S
H609 C584 0.950 . S
H610 C586 0.950 . S
H611 C587 0.949 . S
H612 C589 0.950 . S
H613 C591 0.950 . S
C614 C615 1.349 . S
C614 C616 1.327 . S
C614 H639 0.950 . S
C615 C614 1.349 . S
C615 C631 1.349 . S
C616 C614 1.327 . S
C616 C635 1.429 . S
C616 H640 0.950 . S
C617 C634 1.574 . S
C617 C636 1.368 . S
C617 H641 0.949 . S
H618 C622 0.949 . S
C619 C620 1.349 . S
C619 C621 1.327 . S
C619 H642 0.950 . S
C620 C619 1.349 . S
C620 C632 1.349 . S
C621 C619 1.327 . S
C621 C637 1.429 . S
C621 H643 0.950 . S
C622 H618 0.949 . S
C622 C630 1.574 . S
C622 C638 1.368 . S
H623 C631 0.950 . S
H624 C629 0.950 . S
H625 C630 0.949 . S
H626 C632 0.950 . S
H627 C633 0.950 . S
H628 C634 0.949 . S
C629 H624 0.950 . S
C629 C631 1.327 . S
C629 C635 1.429 . S
C630 C622 1.574 . S
C630 H625 0.949 . S
C630 C636 1.368 . S
C631 C615 1.349 . S
C631 H623 0.950 . S
C631 C629 1.327 . S
C632 C620 1.349 . S
C632 H626 0.950 . S
C632 C633 1.327 . S
C633 H627 0.950 . S
C633 C632 1.327 . S
C633 C637 1.429 . S
C634 C617 1.574 . S
C634 H628 0.949 . S
C634 C638 1.368 . S
C635 C616 1.429 . S
C635 C629 1.429 . S
C635 C636 1.523 . S
C636 C617 1.368 . S
C636 C630 1.368 . S
C636 C635 1.523 . S
C637 C621 1.429 . S
C637 C633 1.429 . S
C637 C638 1.523 . S
C638 C622 1.368 . S
C638 C634 1.368 . S
C638 C637 1.523 . S
H639 C614 0.950 . S
H640 C616 0.950 . S
H641 C617 0.949 . S
H642 C619 0.950 . S
H643 C621 0.950 . S
C644 C645 1.349 . S
C644 C646 1.327 . S
C644 H669 0.950 . S
C645 C644 1.349 . S
C645 C661 1.349 . S
C646 C644 1.327 . S
C646 C665 1.429 . S
C646 H670 0.950 . S
C647 C664 1.574 . S
C647 C666 1.368 . S
C647 H671 0.949 . S
H648 C652 0.949 . S
C649 C650 1.349 . S
C649 C651 1.327 . S
C649 H672 0.950 . S
C650 C649 1.349 . S
C650 C662 1.349 . S
C651 C649 1.327 . S
C651 C667 1.429 . S
C651 H673 0.950 . S
C652 H648 0.949 . S
C652 C660 1.574 . S
C652 C668 1.368 . S
H653 C661 0.950 . S
H654 C659 0.950 . S
H655 C660 0.949 . S
H656 C662 0.950 . S
H657 C663 0.950 . S
H658 C664 0.949 . S
C659 H654 0.950 . S
C659 C661 1.327 . S
C659 C665 1.429 . S
C660 C652 1.574 . S
C660 H655 0.949 . S
C660 C666 1.368 . S
C661 C645 1.349 . S
C661 H653 0.950 . S
C661 C659 1.327 . S
C662 C650 1.349 . S
C662 H656 0.950 . S
C662 C663 1.327 . S
C663 H657 0.950 . S
C663 C662 1.327 . S
C663 C667 1.429 . S
C664 C647 1.574 . S
C664 H658 0.949 . S
C664 C668 1.368 . S
C665 C646 1.429 . S
C665 C659 1.429 . S
C665 C666 1.523 . S
C666 C647 1.368 . S
C666 C660 1.368 . S
C666 C665 1.523 . S
C667 C651 1.429 . S
C667 C663 1.429 . S
C667 C668 1.523 . S
C668 C652 1.368 . S
C668 C664 1.368 . S
C668 C667 1.523 . S
H669 C644 0.950 . S
H670 C646 0.950 . S
H671 C647 0.949 . S
H672 C649 0.950 . S
H673 C651 0.950 . S
C674 C675 1.349 . S
C674 C676 1.327 . S
C674 H699 0.950 . S
C675 C674 1.349 . S
C675 C691 1.349 . S
C676 C674 1.327 . S
C676 C695 1.429 . S
C676 H700 0.950 . S
C677 C694 1.574 . S
C677 C696 1.368 . S
C677 H701 0.949 . S
H678 C682 0.949 . S
C679 C680 1.349 . S
C679 C681 1.327 . S
C679 H702 0.950 . S
C680 C679 1.349 . S
C680 C692 1.349 . S
C681 C679 1.327 . S
C681 C697 1.429 . S
C681 H703 0.950 . S
C682 H678 0.949 . S
C682 C690 1.574 . S
C682 C698 1.368 . S
H683 C691 0.950 . S
H684 C689 0.950 . S
H685 C690 0.949 . S
H686 C692 0.950 . S
H687 C693 0.950 . S
H688 C694 0.949 . S
C689 H684 0.950 . S
C689 C691 1.327 . S
C689 C695 1.429 . S
C690 C682 1.574 . S
C690 H685 0.949 . S
C690 C696 1.368 . S
C691 C675 1.349 . S
C691 H683 0.950 . S
C691 C689 1.327 . S
C692 C680 1.349 . S
C692 H686 0.950 . S
C692 C693 1.327 . S
C693 H687 0.950 . S
C693 C692 1.327 . S
C693 C697 1.429 . S
C694 C677 1.574 . S
C694 H688 0.949 . S
C694 C698 1.368 . S
C695 C676 1.429 . S
C695 C689 1.429 . S
C695 C696 1.523 . S
C696 C677 1.368 . S
C696 C690 1.368 . S
C696 C695 1.523 . S
C697 C681 1.429 . S
C697 C693 1.429 . S
C697 C698 1.523 . S
C698 C682 1.368 . S
C698 C694 1.368 . S
C698 C697 1.523 . S
H699 C674 0.950 . S
H700 C676 0.950 . S
H701 C677 0.949 . S
H702 C679 0.950 . S
H703 C681 0.950 . S
C704 C705 1.349 . S
C704 C706 1.327 . S
C704 H729 0.950 . S
C705 C704 1.349 . S
C705 C721 1.349 . S
C706 C704 1.327 . S
C706 C725 1.429 . S
C706 H730 0.950 . S
C707 C724 1.574 1_556 S
C707 C726 1.368 . S
C707 H731 0.949 . S
H708 C712 0.949 . S
C709 C710 1.349 . S
C709 C711 1.327 . S
C709 H732 0.950 . S
C710 C709 1.349 . S
C710 C722 1.349 . S
C711 C709 1.327 . S
C711 C727 1.429 . S
C711 H733 0.950 . S
C712 H708 0.949 . S
C712 C720 1.574 1_554 S
C712 C728 1.368 . S
H713 C721 0.950 . S
H714 C719 0.950 . S
H715 C720 0.949 . S
H716 C722 0.950 . S
H717 C723 0.950 . S
H718 C724 0.949 . S
C719 H714 0.950 . S
C719 C721 1.327 . S
C719 C725 1.429 . S
C720 C712 1.574 1_556 S
C720 H715 0.949 . S
C720 C726 1.368 . S
C721 C705 1.349 . S
C721 H713 0.950 . S
C721 C719 1.327 . S
C722 C710 1.349 . S
C722 H716 0.950 . S
C722 C723 1.327 . S
C723 H717 0.950 . S
C723 C722 1.327 . S
C723 C727 1.429 . S
C724 C707 1.574 1_554 S
C724 H718 0.949 . S
C724 C728 1.368 . S
C725 C706 1.429 . S
C725 C719 1.429 . S
C725 C726 1.523 . S
C726 C707 1.368 . S
C726 C720 1.368 . S
C726 C725 1.523 . S
C727 C711 1.429 . S
C727 C723 1.429 . S
C727 C728 1.523 . S
C728 C712 1.368 . S
C728 C724 1.368 . S
C728 C727 1.523 . S
H729 C704 0.950 . S
H730 C706 0.950 . S
H731 C707 0.949 . S
H732 C709 0.950 . S
H733 C711 0.950 . S
C734 C735 1.349 . S
C734 C736 1.327 . S
C734 H759 0.950 . S
C735 C734 1.349 . S
C735 C751 1.349 . S
C736 C734 1.327 . S
C736 C755 1.429 . S
C736 H760 0.950 . S
C737 C754 1.574 . S
C737 C756 1.368 . S
C737 H761 0.949 . S
H738 C742 0.949 . S
C739 C740 1.349 . S
C739 C741 1.327 . S
C739 H762 0.950 . S
C740 C739 1.349 . S
C740 C752 1.349 . S
C741 C739 1.327 . S
C741 C757 1.429 . S
C741 H763 0.950 . S
C742 H738 0.949 . S
C742 C750 1.574 . S
C742 C758 1.368 . S
H743 C751 0.950 . S
H744 C749 0.950 . S
H745 C750 0.949 . S
H746 C752 0.950 . S
H747 C753 0.950 . S
H748 C754 0.949 . S
C749 H744 0.950 . S
C749 C751 1.327 . S
C749 C755 1.429 . S
C750 C742 1.574 . S
C750 H745 0.949 . S
C750 C756 1.368 . S
C751 C735 1.349 . S
C751 H743 0.950 . S
C751 C749 1.327 . S
C752 C740 1.349 . S
C752 H746 0.950 . S
C752 C753 1.327 . S
C753 H747 0.950 . S
C753 C752 1.327 . S
C753 C757 1.429 . S
C754 C737 1.574 . S
C754 H748 0.949 . S
C754 C758 1.368 . S
C755 C736 1.429 . S
C755 C749 1.429 . S
C755 C756 1.523 . S
C756 C737 1.368 . S
C756 C750 1.368 . S
C756 C755 1.523 . S
C757 C741 1.429 . S
C757 C753 1.429 . S
C757 C758 1.523 . S
C758 C742 1.368 . S
C758 C754 1.368 . S
C758 C757 1.523 . S
H759 C734 0.950 . S
H760 C736 0.950 . S
H761 C737 0.949 . S
H762 C739 0.950 . S
H763 C741 0.950 . S
C764 C765 1.349 . S
C764 C766 1.327 . S
C764 H789 0.950 . S
C765 C764 1.349 . S
C765 C781 1.349 . S
C766 C764 1.327 . S
C766 C785 1.429 . S
C766 H790 0.950 . S
C767 C784 1.574 1_554 S
C767 C786 1.368 . S
C767 H791 0.949 . S
H768 C772 0.949 . S
C769 C770 1.349 . S
C769 C771 1.327 . S
C769 H792 0.950 . S
C770 C769 1.349 . S
C770 C782 1.349 . S
C771 C769 1.327 . S
C771 C787 1.429 . S
C771 H793 0.950 . S
C772 H768 0.949 . S
C772 C780 1.574 1_556 S
C772 C788 1.368 . S
H773 C781 0.950 . S
H774 C779 0.950 . S
H775 C780 0.949 . S
H776 C782 0.950 . S
H777 C783 0.950 . S
H778 C784 0.949 . S
C779 H774 0.950 . S
C779 C781 1.327 . S
C779 C785 1.429 . S
C780 C772 1.574 1_554 S
C780 H775 0.949 . S
C780 C786 1.368 . S
C781 C765 1.349 . S
C781 H773 0.950 . S
C781 C779 1.327 . S
C782 C770 1.349 . S
C782 H776 0.950 . S
C782 C783 1.327 . S
C783 H777 0.950 . S
C783 C782 1.327 . S
C783 C787 1.429 . S
C784 C767 1.574 1_556 S
C784 H778 0.949 . S
C784 C788 1.368 . S
C785 C766 1.429 . S
C785 C779 1.429 . S
C785 C786 1.523 . S
C786 C767 1.368 . S
C786 C780 1.368 . S
C786 C785 1.523 . S
C787 C771 1.429 . S
C787 C783 1.429 . S
C787 C788 1.523 . S
C788 C772 1.368 . S
C788 C784 1.368 . S
C788 C787 1.523 . S
H789 C764 0.950 . S
H790 C766 0.950 . S
H791 C767 0.949 . S
H792 C769 0.950 . S
H793 C771 0.950 . S
C794 C795 1.349 . S
C794 C796 1.327 . S
C794 H819 0.950 . S
C795 C794 1.349 . S
C795 C811 1.349 . S
C796 C794 1.327 . S
C796 C815 1.429 . S
C796 H820 0.950 . S
C797 C814 1.574 . S
C797 C816 1.368 . S
C797 H821 0.949 . S
H798 C802 0.949 . S
C799 C800 1.349 . S
C799 C801 1.327 . S
C799 H822 0.950 . S
C800 C799 1.349 . S
C800 C812 1.349 . S
C801 C799 1.327 . S
C801 C817 1.429 . S
C801 H823 0.950 . S
C802 H798 0.949 . S
C802 C810 1.574 . S
C802 C818 1.368 . S
H803 C811 0.950 . S
H804 C809 0.950 . S
H805 C810 0.949 . S
H806 C812 0.950 . S
H807 C813 0.950 . S
H808 C814 0.949 . S
C809 H804 0.950 . S
C809 C811 1.327 . S
C809 C815 1.429 . S
C810 C802 1.574 . S
C810 H805 0.949 . S
C810 C816 1.368 . S
C811 C795 1.349 . S
C811 H803 0.950 . S
C811 C809 1.327 . S
C812 C800 1.349 . S
C812 H806 0.950 . S
C812 C813 1.327 . S
C813 H807 0.950 . S
C813 C812 1.327 . S
C813 C817 1.429 . S
C814 C797 1.574 . S
C814 H808 0.949 . S
C814 C818 1.368 . S
C815 C796 1.429 . S
C815 C809 1.429 . S
C815 C816 1.523 . S
C816 C797 1.368 . S
C816 C810 1.368 . S
C816 C815 1.523 . S
C817 C801 1.429 . S
C817 C813 1.429 . S
C817 C818 1.523 . S
C818 C802 1.368 . S
C818 C814 1.368 . S
C818 C817 1.523 . S
H819 C794 0.950 . S
H820 C796 0.950 . S
H821 C797 0.949 . S
H822 C799 0.950 . S
H823 C801 0.950 . S
C824 C825 1.349 . S
C824 C826 1.327 . S
C824 H849 0.950 . S
C825 C824 1.349 . S
C825 C841 1.349 . S
C826 C824 1.327 . S
C826 C845 1.429 . S
C826 H850 0.950 . S
C827 C844 1.574 . S
C827 C846 1.368 . S
C827 H851 0.949 . S
H828 C832 0.949 . S
C829 C830 1.349 . S
C829 C831 1.327 . S
C829 H852 0.950 . S
C830 C829 1.349 . S
C830 C842 1.349 . S
C831 C829 1.327 . S
C831 C847 1.429 . S
C831 H853 0.950 . S
C832 H828 0.949 . S
C832 C840 1.574 . S
C832 C848 1.368 . S
H833 C841 0.950 . S
H834 C839 0.950 . S
H835 C840 0.949 . S
H836 C842 0.950 . S
H837 C843 0.950 . S
H838 C844 0.949 . S
C839 H834 0.950 . S
C839 C841 1.327 . S
C839 C845 1.429 . S
C840 C832 1.574 . S
C840 H835 0.949 . S
C840 C846 1.368 . S
C841 C825 1.349 . S
C841 H833 0.950 . S
C841 C839 1.327 . S
C842 C830 1.349 . S
C842 H836 0.950 . S
C842 C843 1.327 . S
C843 H837 0.950 . S
C843 C842 1.327 . S
C843 C847 1.429 . S
C844 C827 1.574 . S
C844 H838 0.949 . S
C844 C848 1.368 . S
C845 C826 1.429 . S
C845 C839 1.429 . S
C845 C846 1.523 . S
C846 C827 1.368 . S
C846 C840 1.368 . S
C846 C845 1.523 . S
C847 C831 1.429 . S
C847 C843 1.429 . S
C847 C848 1.523 . S
C848 C832 1.368 . S
C848 C844 1.368 . S
C848 C847 1.523 . S
H849 C824 0.950 . S
H850 C826 0.950 . S
H851 C827 0.949 . S
H852 C829 0.950 . S
H853 C831 0.950 . S
C854 C855 1.349 . S
C854 C856 1.327 . S
C854 H879 0.950 . S
C855 C854 1.349 . S
C855 C871 1.349 . S
C856 C854 1.327 . S
C856 C875 1.429 . S
C856 H880 0.950 . S
C857 C874 1.574 1_556 S
C857 C876 1.368 . S
C857 H881 0.949 . S
H858 C862 0.949 . S
C859 C860 1.349 . S
C859 C861 1.327 . S
C859 H882 0.950 . S
C860 C859 1.349 . S
C860 C872 1.349 . S
C861 C859 1.327 . S
C861 C877 1.429 . S
C861 H883 0.950 . S
C862 H858 0.949 . S
C862 C870 1.574 1_554 S
C862 C878 1.368 . S
H863 C871 0.950 . S
H864 C869 0.950 . S
H865 C870 0.949 . S
H866 C872 0.950 . S
H867 C873 0.950 . S
H868 C874 0.949 . S
C869 H864 0.950 . S
C869 C871 1.327 . S
C869 C875 1.429 . S
C870 C862 1.574 1_556 S
C870 H865 0.949 . S
C870 C876 1.368 . S
C871 C855 1.349 . S
C871 H863 0.950 . S
C871 C869 1.327 . S
C872 C860 1.349 . S
C872 H866 0.950 . S
C872 C873 1.327 . S
C873 H867 0.950 . S
C873 C872 1.327 . S
C873 C877 1.429 . S
C874 C857 1.574 1_554 S
C874 H868 0.949 . S
C874 C878 1.368 . S
C875 C856 1.429 . S
C875 C869 1.429 . S
C875 C876 1.523 . S
C876 C857 1.368 . S
C876 C870 1.368 . S
C876 C875 1.523 . S
C877 C861 1.429 . S
C877 C873 1.429 . S
C877 C878 1.523 . S
C878 C862 1.368 . S
C878 C874 1.368 . S
C878 C877 1.523 . S
H879 C854 0.950 . S
H880 C856 0.950 . S
H881 C857 0.949 . S
H882 C859 0.950 . S
H883 C861 0.950 . S
C884 C885 1.349 . S
C884 C886 1.327 . S
C884 H909 0.950 . S
C885 C884 1.349 . S
C885 C901 1.349 . S
C886 C884 1.327 . S
C886 C905 1.429 . S
C886 H910 0.950 . S
C887 C904 1.574 . S
C887 C906 1.368 . S
C887 H911 0.949 . S
H888 C892 0.949 . S
C889 C890 1.349 . S
C889 C891 1.327 . S
C889 H912 0.950 . S
C890 C889 1.349 . S
C890 C902 1.349 . S
C891 C889 1.327 . S
C891 C907 1.429 . S
C891 H913 0.950 . S
C892 H888 0.949 . S
C892 C900 1.574 . S
C892 C908 1.368 . S
H893 C901 0.950 . S
H894 C899 0.950 . S
H895 C900 0.949 . S
H896 C902 0.950 . S
H897 C903 0.950 . S
H898 C904 0.949 . S
C899 H894 0.950 . S
C899 C901 1.327 . S
C899 C905 1.429 . S
C900 C892 1.574 . S
C900 H895 0.949 . S
C900 C906 1.368 . S
C901 C885 1.349 . S
C901 H893 0.950 . S
C901 C899 1.327 . S
C902 C890 1.349 . S
C902 H896 0.950 . S
C902 C903 1.327 . S
C903 H897 0.950 . S
C903 C902 1.327 . S
C903 C907 1.429 . S
C904 C887 1.574 . S
C904 H898 0.949 . S
C904 C908 1.368 . S
C905 C886 1.429 . S
C905 C899 1.429 . S
C905 C906 1.523 . S
C906 C887 1.368 . S
C906 C900 1.368 . S
C906 C905 1.523 . S
C907 C891 1.429 . S
C907 C903 1.429 . S
C907 C908 1.523 . S
C908 C892 1.368 . S
C908 C904 1.368 . S
C908 C907 1.523 . S
H909 C884 0.950 . S
H910 C886 0.950 . S
H911 C887 0.949 . S
H912 C889 0.950 . S
H913 C891 0.950 . S
C914 C915 1.349 . S
C914 C916 1.327 . S
C914 H939 0.950 . S
C915 C914 1.349 . S
C915 C931 1.349 . S
C916 C914 1.327 . S
C916 C935 1.429 . S
C916 H940 0.950 . S
C917 C934 1.574 1_554 S
C917 C936 1.368 . S
C917 H941 0.949 . S
H918 C922 0.949 . S
C919 C920 1.349 . S
C919 C921 1.327 . S
C919 H942 0.950 . S
C920 C919 1.349 . S
C920 C932 1.349 . S
C921 C919 1.327 . S
C921 C937 1.429 . S
C921 H943 0.950 . S
C922 H918 0.949 . S
C922 C930 1.574 1_556 S
C922 C938 1.368 . S
H923 C931 0.950 . S
H924 C929 0.950 . S
H925 C930 0.949 . S
H926 C932 0.950 . S
H927 C933 0.950 . S
H928 C934 0.949 . S
C929 H924 0.950 . S
C929 C931 1.327 . S
C929 C935 1.429 . S
C930 C922 1.574 1_554 S
C930 H925 0.949 . S
C930 C936 1.368 . S
C931 C915 1.349 . S
C931 H923 0.950 . S
C931 C929 1.327 . S
C932 C920 1.349 . S
C932 H926 0.950 . S
C932 C933 1.327 . S
C933 H927 0.950 . S
C933 C932 1.327 . S
C933 C937 1.429 . S
C934 C917 1.574 1_556 S
C934 H928 0.949 . S
C934 C938 1.368 . S
C935 C916 1.429 . S
C935 C929 1.429 . S
C935 C936 1.523 . S
C936 C917 1.368 . S
C936 C930 1.368 . S
C936 C935 1.523 . S
C937 C921 1.429 . S
C937 C933 1.429 . S
C937 C938 1.523 . S
C938 C922 1.368 . S
C938 C934 1.368 . S
C938 C937 1.523 . S
H939 C914 0.950 . S
H940 C916 0.950 . S
H941 C917 0.949 . S
H942 C919 0.950 . S
H943 C921 0.950 . S
C944 C945 1.349 . S
C944 C946 1.327 . S
C944 H969 0.950 . S
C945 C944 1.349 . S
C945 C961 1.349 . S
C946 C944 1.327 . S
C946 C965 1.429 . S
C946 H970 0.950 . S
C947 C964 1.574 . S
C947 C966 1.368 . S
C947 H971 0.949 . S
H948 C952 0.949 . S
C949 C950 1.349 . S
C949 C951 1.327 . S
C949 H972 0.950 . S
C950 C949 1.349 . S
C950 C962 1.349 . S
C951 C949 1.327 . S
C951 C967 1.429 . S
C951 H973 0.950 . S
C952 H948 0.949 . S
C952 C960 1.574 . S
C952 C968 1.368 . S
H953 C961 0.950 . S
H954 C959 0.950 . S
H955 C960 0.949 . S
H956 C962 0.950 . S
H957 C963 0.950 . S
H958 C964 0.949 . S
C959 H954 0.950 . S
C959 C961 1.327 . S
C959 C965 1.429 . S
C960 C952 1.574 . S
C960 H955 0.949 . S
C960 C966 1.368 . S
C961 C945 1.349 . S
C961 H953 0.950 . S
C961 C959 1.327 . S
C962 C950 1.349 . S
C962 H956 0.950 . S
C962 C963 1.327 . S
C963 H957 0.950 . S
C963 C962 1.327 . S
C963 C967 1.429 . S
C964 C947 1.574 . S
C964 H958 0.949 . S
C964 C968 1.368 . S
C965 C946 1.429 . S
C965 C959 1.429 . S
C965 C966 1.523 . S
C966 C947 1.368 . S
C966 C960 1.368 . S
C966 C965 1.523 . S
C967 C951 1.429 . S
C967 C963 1.429 . S
C967 C968 1.523 . S
C968 C952 1.368 . S
C968 C964 1.368 . S
C968 C967 1.523 . S
H969 C944 0.950 . S
H970 C946 0.950 . S
H971 C947 0.949 . S
H972 C949 0.950 . S
H973 C951 0.950 . S
C974 C975 1.349 . S
C974 C976 1.327 . S
C974 H999 0.950 . S
C975 C974 1.349 . S
C975 C991 1.349 . S
C976 C974 1.327 . S
C976 C995 1.429 . S
C976 H1000 0.950 . S
C977 C994 1.574 . S
C977 C996 1.368 . S
C977 H1001 0.949 . S
H978 C982 0.949 . S
C979 C980 1.349 . S
C979 C981 1.327 . S
C979 H1002 0.950 . S
C980 C979 1.349 . S
C980 C992 1.349 . S
C981 C979 1.327 . S
C981 C997 1.429 . S
C981 H1003 0.950 . S
C982 H978 0.949 . S
C982 C990 1.574 . S
C982 C998 1.368 . S
H983 C991 0.950 . S
H984 C989 0.950 . S
H985 C990 0.949 . S
H986 C992 0.950 . S
H987 C993 0.950 . S
H988 C994 0.949 . S
C989 H984 0.950 . S
C989 C991 1.327 . S
C989 C995 1.429 . S
C990 C982 1.574 . S
C990 H985 0.949 . S
C990 C996 1.368 . S
C991 C975 1.349 . S
C991 H983 0.950 . S
C991 C989 1.327 . S
C992 C980 1.349 . S
C992 H986 0.950 . S
C992 C993 1.327 . S
C993 H987 0.950 . S
C993 C992 1.327 . S
C993 C997 1.429 . S
C994 C977 1.574 . S
C994 H988 0.949 . S
C994 C998 1.368 . S
C995 C976 1.429 . S
C995 C989 1.429 . S
C995 C996 1.523 . S
C996 C977 1.368 . S
C996 C990 1.368 . S
C996 C995 1.523 . S
C997 C981 1.429 . S
C997 C993 1.429 . S
C997 C998 1.523 . S
C998 C982 1.368 . S
C998 C994 1.368 . S
C998 C997 1.523 . S
H999 C974 0.950 . S
H1000 C976 0.950 . S
H1001 C977 0.949 . S
H1002 C979 0.950 . S
H1003 C981 0.950 . S
C1004 C1005 1.349 . S
C1004 C1006 1.327 . S
C1004 H1029 0.950 . S
C1005 C1004 1.349 . S
C1005 C1021 1.349 . S
C1006 C1004 1.327 . S
C1006 C1025 1.429 . S
C1006 H1030 0.950 . S
C1007 C1024 1.574 . S
C1007 C1026 1.368 . S
C1007 H1031 0.949 . S
H1008 C1012 0.949 . S
C1009 C1010 1.349 . S
C1009 C1011 1.327 . S
C1009 H1032 0.950 . S
C1010 C1009 1.349 . S
C1010 C1022 1.349 . S
C1011 C1009 1.327 . S
C1011 C1027 1.429 . S
C1011 H1033 0.950 . S
C1012 H1008 0.949 . S
C1012 C1020 1.574 . S
C1012 C1028 1.368 . S
H1013 C1021 0.950 . S
H1014 C1019 0.950 . S
H1015 C1020 0.949 . S
H1016 C1022 0.950 . S
H1017 C1023 0.950 . S
H1018 C1024 0.949 . S
C1019 H1014 0.950 . S
C1019 C1021 1.327 . S
C1019 C1025 1.429 . S
C1020 C1012 1.574 . S
C1020 H1015 0.949 . S
C1020 C1026 1.368 . S
C1021 C1005 1.349 . S
C1021 H1013 0.950 . S
C1021 C1019 1.327 . S
C1022 C1010 1.349 . S
C1022 H1016 0.950 . S
C1022 C1023 1.327 . S
C1023 H1017 0.950 . S
C1023 C1022 1.327 . S
C1023 C1027 1.429 . S
C1024 C1007 1.574 . S
C1024 H1018 0.949 . S
C1024 C1028 1.368 . S
C1025 C1006 1.429 . S
C1025 C1019 1.429 . S
C1025 C1026 1.523 . S
C1026 C1007 1.368 . S
C1026 C1020 1.368 . S
C1026 C1025 1.523 . S
C1027 C1011 1.429 . S
C1027 C1023 1.429 . S
C1027 C1028 1.523 . S
C1028 C1012 1.368 . S
C1028 C1024 1.368 . S
C1028 C1027 1.523 . S
H1029 C1004 0.950 . S
H1030 C1006 0.950 . S
H1031 C1007 0.949 . S
H1032 C1009 0.950 . S
H1033 C1011 0.950 . S
C1034 C1035 1.349 . S
C1034 C1036 1.327 . S
C1034 H1059 0.950 . S
C1035 C1034 1.349 . S
C1035 C1051 1.349 . S
C1036 C1034 1.327 . S
C1036 C1055 1.429 . S
C1036 H1060 0.950 . S
C1037 C1054 1.574 . S
C1037 C1056 1.368 . S
C1037 H1061 0.949 . S
H1038 C1042 0.949 . S
C1039 C1040 1.349 . S
C1039 C1041 1.327 . S
C1039 H1062 0.950 . S
C1040 C1039 1.349 . S
C1040 C1052 1.349 . S
C1041 C1039 1.327 . S
C1041 C1057 1.429 . S
C1041 H1063 0.950 . S
C1042 H1038 0.949 . S
C1042 C1050 1.574 . S
C1042 C1058 1.368 . S
H1043 C1051 0.950 . S
H1044 C1049 0.950 . S
H1045 C1050 0.949 . S
H1046 C1052 0.950 . S
H1047 C1053 0.950 . S
H1048 C1054 0.949 . S
C1049 H1044 0.950 . S
C1049 C1051 1.327 . S
C1049 C1055 1.429 . S
C1050 C1042 1.574 . S
C1050 H1045 0.949 . S
C1050 C1056 1.368 . S
C1051 C1035 1.349 . S
C1051 H1043 0.950 . S
C1051 C1049 1.327 . S
C1052 C1040 1.349 . S
C1052 H1046 0.950 . S
C1052 C1053 1.327 . S
C1053 H1047 0.950 . S
C1053 C1052 1.327 . S
C1053 C1057 1.429 . S
C1054 C1037 1.574 . S
C1054 H1048 0.949 . S
C1054 C1058 1.368 . S
C1055 C1036 1.429 . S
C1055 C1049 1.429 . S
C1055 C1056 1.523 . S
C1056 C1037 1.368 . S
C1056 C1050 1.368 . S
C1056 C1055 1.523 . S
C1057 C1041 1.429 . S
C1057 C1053 1.429 . S
C1057 C1058 1.523 . S
C1058 C1042 1.368 . S
C1058 C1054 1.368 . S
C1058 C1057 1.523 . S
H1059 C1034 0.950 . S
H1060 C1036 0.950 . S
H1061 C1037 0.949 . S
H1062 C1039 0.950 . S
H1063 C1041 0.950 . S
C1064 C1065 1.349 . S
C1064 C1066 1.327 . S
C1064 H1089 0.950 . S
C1065 C1064 1.349 . S
C1065 C1081 1.349 . S
C1066 C1064 1.327 . S
C1066 C1085 1.429 . S
C1066 H1090 0.950 . S
C1067 C1084 1.574 . S
C1067 C1086 1.368 . S
C1067 H1091 0.949 . S
H1068 C1072 0.949 . S
C1069 C1070 1.349 . S
C1069 C1071 1.327 . S
C1069 H1092 0.950 . S
C1070 C1069 1.349 . S
C1070 C1082 1.349 . S
C1071 C1069 1.327 . S
C1071 C1087 1.429 . S
C1071 H1093 0.950 . S
C1072 H1068 0.949 . S
C1072 C1080 1.574 . S
C1072 C1088 1.368 . S
H1073 C1081 0.950 . S
H1074 C1079 0.950 . S
H1075 C1080 0.949 . S
H1076 C1082 0.950 . S
H1077 C1083 0.950 . S
H1078 C1084 0.949 . S
C1079 H1074 0.950 . S
C1079 C1081 1.327 . S
C1079 C1085 1.429 . S
C1080 C1072 1.574 . S
C1080 H1075 0.949 . S
C1080 C1086 1.368 . S
C1081 C1065 1.349 . S
C1081 H1073 0.950 . S
C1081 C1079 1.327 . S
C1082 C1070 1.349 . S
C1082 H1076 0.950 . S
C1082 C1083 1.327 . S
C1083 H1077 0.950 . S
C1083 C1082 1.327 . S
C1083 C1087 1.429 . S
C1084 C1067 1.574 . S
C1084 H1078 0.949 . S
C1084 C1088 1.368 . S
C1085 C1066 1.429 . S
C1085 C1079 1.429 . S
C1085 C1086 1.523 . S
C1086 C1067 1.368 . S
C1086 C1080 1.368 . S
C1086 C1085 1.523 . S
C1087 C1071 1.429 . S
C1087 C1083 1.429 . S
C1087 C1088 1.523 . S
C1088 C1072 1.368 . S
C1088 C1084 1.368 . S
C1088 C1087 1.523 . S
H1089 C1064 0.950 . S
H1090 C1066 0.950 . S
H1091 C1067 0.949 . S
H1092 C1069 0.950 . S
H1093 C1071 0.950 . S
C1094 C1095 1.349 . S
C1094 C1096 1.327 . S
C1094 H1119 0.950 . S
C1095 C1094 1.349 . S
C1095 C1111 1.349 . S
C1096 C1094 1.327 . S
C1096 C1115 1.429 . S
C1096 H1120 0.950 . S
C1097 C1114 1.574 . S
C1097 C1116 1.368 . S
C1097 H1121 0.949 . S
H1098 C1102 0.949 . S
C1099 C1100 1.349 . S
C1099 C1101 1.327 . S
C1099 H1122 0.950 . S
C1100 C1099 1.349 . S
C1100 C1112 1.349 . S
C1101 C1099 1.327 . S
C1101 C1117 1.429 . S
C1101 H1123 0.950 . S
C1102 H1098 0.949 . S
C1102 C1110 1.574 . S
C1102 C1118 1.368 . S
H1103 C1111 0.950 . S
H1104 C1109 0.950 . S
H1105 C1110 0.949 . S
H1106 C1112 0.950 . S
H1107 C1113 0.950 . S
H1108 C1114 0.949 . S
C1109 H1104 0.950 . S
C1109 C1111 1.327 . S
C1109 C1115 1.429 . S
C1110 C1102 1.574 . S
C1110 H1105 0.949 . S
C1110 C1116 1.368 . S
C1111 C1095 1.349 . S
C1111 H1103 0.950 . S
C1111 C1109 1.327 . S
C1112 C1100 1.349 . S
C1112 H1106 0.950 . S
C1112 C1113 1.327 . S
C1113 H1107 0.950 . S
C1113 C1112 1.327 . S
C1113 C1117 1.429 . S
C1114 C1097 1.574 . S
C1114 H1108 0.949 . S
C1114 C1118 1.368 . S
C1115 C1096 1.429 . S
C1115 C1109 1.429 . S
C1115 C1116 1.523 . S
C1116 C1097 1.368 . S
C1116 C1110 1.368 . S
C1116 C1115 1.523 . S
C1117 C1101 1.429 . S
C1117 C1113 1.429 . S
C1117 C1118 1.523 . S
C1118 C1102 1.368 . S
C1118 C1114 1.368 . S
C1118 C1117 1.523 . S
H1119 C1094 0.950 . S
H1120 C1096 0.950 . S
H1121 C1097 0.949 . S
H1122 C1099 0.950 . S
H1123 C1101 0.950 . S
C1124 C1125 1.349 . S
C1124 C1126 1.327 . S
C1124 H1149 0.950 . S
C1125 C1124 1.349 . S
C1125 C1141 1.349 . S
C1126 C1124 1.327 . S
C1126 C1145 1.429 . S
C1126 H1150 0.950 . S
C1127 C1144 1.574 . S
C1127 C1146 1.368 . S
C1127 H1151 0.949 . S
H1128 C1132 0.949 . S
C1129 C1130 1.349 . S
C1129 C1131 1.327 . S
C1129 H1152 0.950 . S
C1130 C1129 1.349 . S
C1130 C1142 1.349 . S
C1131 C1129 1.327 . S
C1131 C1147 1.429 . S
C1131 H1153 0.950 . S
C1132 H1128 0.949 . S
C1132 C1140 1.574 . S
C1132 C1148 1.368 . S
H1133 C1141 0.950 . S
H1134 C1139 0.950 . S
H1135 C1140 0.949 . S
H1136 C1142 0.950 . S
H1137 C1143 0.950 . S
H1138 C1144 0.949 . S
C1139 H1134 0.950 . S
C1139 C1141 1.327 . S
C1139 C1145 1.429 . S
C1140 C1132 1.574 . S
C1140 H1135 0.949 . S
C1140 C1146 1.368 . S
C1141 C1125 1.349 . S
C1141 H1133 0.950 . S
C1141 C1139 1.327 . S
C1142 C1130 1.349 . S
C1142 H1136 0.950 . S
C1142 C1143 1.327 . S
C1143 H1137 0.950 . S
C1143 C1142 1.327 . S
C1143 C1147 1.429 . S
C1144 C1127 1.574 . S
C1144 H1138 0.949 . S
C1144 C1148 1.368 . S
C1145 C1126 1.429 . S
C1145 C1139 1.429 . S
C1145 C1146 1.523 . S
C1146 C1127 1.368 . S
C1146 C1140 1.368 . S
C1146 C1145 1.523 . S
C1147 C1131 1.429 . S
C1147 C1143 1.429 . S
C1147 C1148 1.523 . S
C1148 C1132 1.368 . S
C1148 C1144 1.368 . S
C1148 C1147 1.523 . S
H1149 C1124 0.950 . S
H1150 C1126 0.950 . S
H1151 C1127 0.949 . S
H1152 C1129 0.950 . S
H1153 C1131 0.950 . S
C1154 C1155 1.349 . S
C1154 C1156 1.327 . S
C1154 H1179 0.950 . S
C1155 C1154 1.349 . S
C1155 C1171 1.349 . S
C1156 C1154 1.327 . S
C1156 C1175 1.429 . S
C1156 H1180 0.950 . S
C1157 C1174 1.574 . S
C1157 C1176 1.368 . S
C1157 H1181 0.949 . S
H1158 C1162 0.949 . S
C1159 C1160 1.349 . S
C1159 C1161 1.327 . S
C1159 H1182 0.950 . S
C1160 C1159 1.349 . S
C1160 C1172 1.349 . S
C1161 C1159 1.327 . S
C1161 C1177 1.429 . S
C1161 H1183 0.950 . S
C1162 H1158 0.949 . S
C1162 C1170 1.574 . S
C1162 C1178 1.368 . S
H1163 C1171 0.950 . S
H1164 C1169 0.950 . S
H1165 C1170 0.949 . S
H1166 C1172 0.950 . S
H1167 C1173 0.950 . S
H1168 C1174 0.949 . S
C1169 H1164 0.950 . S
C1169 C1171 1.327 . S
C1169 C1175 1.429 . S
C1170 C1162 1.574 . S
C1170 H1165 0.949 . S
C1170 C1176 1.368 . S
C1171 C1155 1.349 . S
C1171 H1163 0.950 . S
C1171 C1169 1.327 . S
C1172 C1160 1.349 . S
C1172 H1166 0.950 . S
C1172 C1173 1.327 . S
C1173 H1167 0.950 . S
C1173 C1172 1.327 . S
C1173 C1177 1.429 . S
C1174 C1157 1.574 . S
C1174 H1168 0.949 . S
C1174 C1178 1.368 . S
C1175 C1156 1.429 . S
C1175 C1169 1.429 . S
C1175 C1176 1.523 . S
C1176 C1157 1.368 . S
C1176 C1170 1.368 . S
C1176 C1175 1.523 . S
C1177 C1161 1.429 . S
C1177 C1173 1.429 . S
C1177 C1178 1.523 . S
C1178 C1162 1.368 . S
C1178 C1174 1.368 . S
C1178 C1177 1.523 . S
H1179 C1154 0.950 . S
H1180 C1156 0.950 . S
H1181 C1157 0.949 . S
H1182 C1159 0.950 . S
H1183 C1161 0.950 . S
C225 C9 1.321 . S
C230 C37 1.321 . S
C255 C51 1.321 . S
C260 C23 1.321 . S
C285 C65 1.321 . S
C290 C93 1.321 . S
C315 C107 1.321 . S
C320 C79 1.321 . S
C345 C121 1.321 . S
C350 C149 1.321 . S
C375 C163 1.321 . S
C380 C135 1.321 . S
C405 C177 1.321 . S
C410 C205 1.321 . S
C435 C219 1.321 . S
C440 C191 1.321 . S
C465 C59 1.140 . S
C470 C3 1.140 . S
C495 C17 1.140 . S
C500 C73 1.140 . S
C525 C31 1.140 . S
C530 C87 1.140 . S
C555 C101 1.140 . S
C560 C45 1.140 . S
C585 C115 1.140 . S
C590 C171 1.140 . S
C615 C129 1.140 . S
C620 C185 1.140 . S
C645 C143 1.140 . S
C650 C199 1.140 . S
C675 C157 1.140 . S
C680 C213 1.140 . S
C705 C147 1.124 . S
C710 C7 1.124 . S
C735 C161 1.124 . S
C740 C21 1.124 . S
C765 C35 1.124 . S
C770 C119 1.124 . S
C795 C49 1.124 . S
C800 C133 1.124 . S
C825 C63 1.124 . S
C830 C203 1.124 . S
C855 C77 1.124 . S
C860 C217 1.124 . S
C885 C91 1.124 . S
C890 C175 1.124 . S
C915 C189 1.124 . S
C920 C105 1.124 . S
C945 C8 1.350 . S
C950 C218 1.350 . S
C975 C176 1.350 . S
C980 C22 1.350 . S
C1005 C36 1.350 . S
C1010 C190 1.350 . S
C1035 C204 1.350 . S
C1040 C50 1.350 . S
C1065 C134 1.350 . S
C1070 C64 1.350 . S
C1095 C78 1.350 . S
C1100 C148 1.350 . S
C1125 C162 1.350 . S
C1130 C92 1.350 . S
C1155 C120 1.350 . S
C1160 C106 1.350 . S
