# Generated by pormake.
# Topology vbb, (4)-cn, num edge types: 1
# Building blocks:
#     Node 0, Type 0, BuildingBlock: NAWXER_clean_sbu_0, # of connection points: 4
#     Node 1, Type 0, BuildingBlock: NAWXER_clean_sbu_0, # of connection points: 4
#     Node 2, Type 0, BuildingBlock: NAWXER_clean_sbu_0, # of connection points: 4
#     Node 3, Type 0, BuildingBlock: NAWXER_clean_sbu_0, # of connection points: 4
#     Node 4, Type 0, BuildingBlock: NAWXER_clean_sbu_0, # of connection points: 4
#     Node 5, Type 0, BuildingBlock: NAWXER_clean_sbu_0, # of connection points: 4
#     Node 6, Type 0, BuildingBlock: NAWXER_clean_sbu_0, # of connection points: 4
#     Node 7, Type 0, BuildingBlock: NAWXER_clean_sbu_0, # of connection points: 4
#     Node 8, Type 0, BuildingBlock: NAWXER_clean_sbu_0, # of connection points: 4
#     Node 9, Type 0, BuildingBlock: NAWXER_clean_sbu_0, # of connection points: 4
#     Node 10, Type 0, BuildingBlock: NAWXER_clean_sbu_0, # of connection points: 4
#     Node 11, Type 0, BuildingBlock: NAWXER_clean_sbu_0, # of connection points: 4
#     Node 12, Type 0, BuildingBlock: NAWXER_clean_sbu_0, # of connection points: 4
#     Node 13, Type 0, BuildingBlock: NAWXER_clean_sbu_0, # of connection points: 4
#     Node 14, Type 0, BuildingBlock: NAWXER_clean_sbu_0, # of connection points: 4
#     Node 15, Type 0, BuildingBlock: NAWXER_clean_sbu_0, # of connection points: 4
#     Node 16, Type 0, BuildingBlock: NAWXER_clean_sbu_0, # of connection points: 4
#     Node 17, Type 0, BuildingBlock: NAWXER_clean_sbu_0, # of connection points: 4
#     Node 18, Type 0, BuildingBlock: NAWXER_clean_sbu_0, # of connection points: 4
#     Node 19, Type 0, BuildingBlock: NAWXER_clean_sbu_0, # of connection points: 4
#     Node 20, Type 0, BuildingBlock: NAWXER_clean_sbu_0, # of connection points: 4
#     Node 21, Type 0, BuildingBlock: NAWXER_clean_sbu_0, # of connection points: 4
#     Node 22, Type 0, BuildingBlock: NAWXER_clean_sbu_0, # of connection points: 4
#     Node 23, Type 0, BuildingBlock: NAWXER_clean_sbu_0, # of connection points: 4
#     Node 24, Type 0, BuildingBlock: NAWXER_clean_sbu_0, # of connection points: 4
#     Node 25, Type 0, BuildingBlock: NAWXER_clean_sbu_0, # of connection points: 4
#     Node 26, Type 0, BuildingBlock: NAWXER_clean_sbu_0, # of connection points: 4
#     Node 27, Type 0, BuildingBlock: NAWXER_clean_sbu_0, # of connection points: 4
#     Node 28, Type 0, BuildingBlock: NAWXER_clean_sbu_0, # of connection points: 4
#     Node 29, Type 0, BuildingBlock: NAWXER_clean_sbu_0, # of connection points: 4
#     Node 30, Type 0, BuildingBlock: NAWXER_clean_sbu_0, # of connection points: 4
#     Node 31, Type 0, BuildingBlock: NAWXER_clean_sbu_0, # of connection points: 4
#     Edge 32, Type (0, 0), BuildingBlock: AJUNOK_clean_linker_0, # of connection points: 2
#     Edge 33, Type (0, 0), BuildingBlock: AJUNOK_clean_linker_0, # of connection points: 2
#     Edge 34, Type (0, 0), BuildingBlock: AJUNOK_clean_linker_0, # of connection points: 2
#     Edge 35, Type (0, 0), BuildingBlock: AJUNOK_clean_linker_0, # of connection points: 2
#     Edge 36, Type (0, 0), BuildingBlock: AJUNOK_clean_linker_0, # of connection points: 2
#     Edge 37, Type (0, 0), BuildingBlock: AJUNOK_clean_linker_0, # of connection points: 2
#     Edge 38, Type (0, 0), BuildingBlock: AJUNOK_clean_linker_0, # of connection points: 2
#     Edge 39, Type (0, 0), BuildingBlock: AJUNOK_clean_linker_0, # of connection points: 2
#     Edge 40, Type (0, 0), BuildingBlock: AJUNOK_clean_linker_0, # of connection points: 2
#     Edge 41, Type (0, 0), BuildingBlock: AJUNOK_clean_linker_0, # of connection points: 2
#     Edge 42, Type (0, 0), BuildingBlock: AJUNOK_clean_linker_0, # of connection points: 2
#     Edge 43, Type (0, 0), BuildingBlock: AJUNOK_clean_linker_0, # of connection points: 2
#     Edge 44, Type (0, 0), BuildingBlock: AJUNOK_clean_linker_0, # of connection points: 2
#     Edge 45, Type (0, 0), BuildingBlock: AJUNOK_clean_linker_0, # of connection points: 2
#     Edge 46, Type (0, 0), BuildingBlock: AJUNOK_clean_linker_0, # of connection points: 2
#     Edge 47, Type (0, 0), BuildingBlock: AJUNOK_clean_linker_0, # of connection points: 2
#     Edge 48, Type (0, 0), BuildingBlock: AJUNOK_clean_linker_0, # of connection points: 2
#     Edge 49, Type (0, 0), BuildingBlock: AJUNOK_clean_linker_0, # of connection points: 2
#     Edge 50, Type (0, 0), BuildingBlock: AJUNOK_clean_linker_0, # of connection points: 2
#     Edge 51, Type (0, 0), BuildingBlock: AJUNOK_clean_linker_0, # of connection points: 2
#     Edge 52, Type (0, 0), BuildingBlock: AJUNOK_clean_linker_0, # of connection points: 2
#     Edge 53, Type (0, 0), BuildingBlock: AJUNOK_clean_linker_0, # of connection points: 2
#     Edge 54, Type (0, 0), BuildingBlock: AJUNOK_clean_linker_0, # of connection points: 2
#     Edge 55, Type (0, 0), BuildingBlock: AJUNOK_clean_linker_0, # of connection points: 2
#     Edge 56, Type (0, 0), BuildingBlock: AJUNOK_clean_linker_0, # of connection points: 2
#     Edge 57, Type (0, 0), BuildingBlock: AJUNOK_clean_linker_0, # of connection points: 2
#     Edge 58, Type (0, 0), BuildingBlock: AJUNOK_clean_linker_0, # of connection points: 2
#     Edge 59, Type (0, 0), BuildingBlock: AJUNOK_clean_linker_0, # of connection points: 2
#     Edge 60, Type (0, 0), BuildingBlock: AJUNOK_clean_linker_0, # of connection points: 2
#     Edge 61, Type (0, 0), BuildingBlock: AJUNOK_clean_linker_0, # of connection points: 2
#     Edge 62, Type (0, 0), BuildingBlock: AJUNOK_clean_linker_0, # of connection points: 2
#     Edge 63, Type (0, 0), BuildingBlock: AJUNOK_clean_linker_0, # of connection points: 2
#     Edge 64, Type (0, 0), BuildingBlock: AJUNOK_clean_linker_0, # of connection points: 2
#     Edge 65, Type (0, 0), BuildingBlock: AJUNOK_clean_linker_0, # of connection points: 2
#     Edge 66, Type (0, 0), BuildingBlock: AJUNOK_clean_linker_0, # of connection points: 2
#     Edge 67, Type (0, 0), BuildingBlock: AJUNOK_clean_linker_0, # of connection points: 2
#     Edge 68, Type (0, 0), BuildingBlock: AJUNOK_clean_linker_0, # of connection points: 2
#     Edge 69, Type (0, 0), BuildingBlock: AJUNOK_clean_linker_0, # of connection points: 2
#     Edge 70, Type (0, 0), BuildingBlock: AJUNOK_clean_linker_0, # of connection points: 2
#     Edge 71, Type (0, 0), BuildingBlock: AJUNOK_clean_linker_0, # of connection points: 2
#     Edge 72, Type (0, 0), BuildingBlock: AJUNOK_clean_linker_0, # of connection points: 2
#     Edge 73, Type (0, 0), BuildingBlock: AJUNOK_clean_linker_0, # of connection points: 2
#     Edge 74, Type (0, 0), BuildingBlock: AJUNOK_clean_linker_0, # of connection points: 2
#     Edge 75, Type (0, 0), BuildingBlock: AJUNOK_clean_linker_0, # of connection points: 2
#     Edge 76, Type (0, 0), BuildingBlock: AJUNOK_clean_linker_0, # of connection points: 2
#     Edge 77, Type (0, 0), BuildingBlock: AJUNOK_clean_linker_0, # of connection points: 2
#     Edge 78, Type (0, 0), BuildingBlock: AJUNOK_clean_linker_0, # of connection points: 2
#     Edge 79, Type (0, 0), BuildingBlock: AJUNOK_clean_linker_0, # of connection points: 2
#     Edge 80, Type (0, 0), BuildingBlock: AJUNOK_clean_linker_0, # of connection points: 2
#     Edge 81, Type (0, 0), BuildingBlock: AJUNOK_clean_linker_0, # of connection points: 2
#     Edge 82, Type (0, 0), BuildingBlock: AJUNOK_clean_linker_0, # of connection points: 2
#     Edge 83, Type (0, 0), BuildingBlock: AJUNOK_clean_linker_0, # of connection points: 2
#     Edge 84, Type (0, 0), BuildingBlock: AJUNOK_clean_linker_0, # of connection points: 2
#     Edge 85, Type (0, 0), BuildingBlock: AJUNOK_clean_linker_0, # of connection points: 2
#     Edge 86, Type (0, 0), BuildingBlock: AJUNOK_clean_linker_0, # of connection points: 2
#     Edge 87, Type (0, 0), BuildingBlock: AJUNOK_clean_linker_0, # of connection points: 2
#     Edge 88, Type (0, 0), BuildingBlock: AJUNOK_clean_linker_0, # of connection points: 2
#     Edge 89, Type (0, 0), BuildingBlock: AJUNOK_clean_linker_0, # of connection points: 2
#     Edge 90, Type (0, 0), BuildingBlock: AJUNOK_clean_linker_0, # of connection points: 2
#     Edge 91, Type (0, 0), BuildingBlock: AJUNOK_clean_linker_0, # of connection points: 2
#     Edge 92, Type (0, 0), BuildingBlock: AJUNOK_clean_linker_0, # of connection points: 2
#     Edge 93, Type (0, 0), BuildingBlock: AJUNOK_clean_linker_0, # of connection points: 2
#     Edge 94, Type (0, 0), BuildingBlock: AJUNOK_clean_linker_0, # of connection points: 2
#     Edge 95, Type (0, 0), BuildingBlock: AJUNOK_clean_linker_0, # of connection points: 2
# Relax obj value: 0.012
# Max RMSD: 0.099
# Mean RMSD: 0.097
data_MOF--net-vbb--node1-NAWXER_clean_sbu_0--edge1-AJUNOK_clean_linker_0
_symmetry_space_group_name_H-M    P1
_symmetry_Int_Tables_number       1
_symmetry_cell_setting            triclinic
loop_
_symmetry_equiv_pos_as_xyz
'x, y, z'
_cell_length_a     39.391441
_cell_length_b     17.336899
_cell_length_c     83.507977
_cell_angle_alpha  89.924403
_cell_angle_beta   89.997939
_cell_angle_gamma 90.023403
loop_
_atom_site_label
_atom_site_type_symbol
_atom_site_fract_x
_atom_site_fract_y
_atom_site_fract_z
_atom_type_partial_charge
C0 C 0.57664 0.03671 0.0887 0.0
C1 C 0.46131 0.92082 0.08468 0.0
O2 O 0.55233 0.08035 0.08423 0.0
Zn3 Zn 0.50048 0.07961 0.07918 0.0
O4 O 0.57079 0.96519 0.09122 0.0
Zn5 Zn 0.52151 0.96414 0.08645 0.0
O6 O 0.52061 0.98254 0.06189 0.0
O7 O 0.49972 0.09621 0.05557 0.0
O8 O 0.48734 0.88057 0.08849 0.0
O9 O 0.46508 -0.00844 0.08098 0.0
O10 O 0.48286 0.14337 0.09728 0.0
O11 O 0.50344 0.03108 0.10499 0.0
C12 C 0.51229 0.03153 0.05122 0.0
C13 C 0.48897 0.0945 0.10843 0.0
C14 C 0.70959 0.18476 0.08798 0.0
C15 C 0.82282 0.30925 0.08332 0.0
O16 O 0.73399 0.14323 0.08286 0.0
Zn17 Zn 0.78539 0.14893 0.07696 0.0
O18 O 0.71458 0.25657 0.09047 0.0
Zn19 Zn 0.7635 0.26121 0.08502 0.0
O20 O 0.76375 0.24731 0.06022 0.0
O21 O 0.78544 0.13509 0.05343 0.0
O22 O 0.79632 0.34691 0.08751 0.0
O23 O 0.81996 0.239 0.07909 0.0
O24 O 0.80475 0.08248 0.09411 0.0
O25 O 0.78374 0.1926 0.103 0.0
C26 C 0.7724 0.19967 0.04934 0.0
C27 C 0.79926 0.12948 0.10562 0.0
C28 C 0.51129 0.18908 0.23402 0.0
C29 C 0.48735 0.13419 0.17668 0.0
O30 O 0.52024 0.2401 0.22383 0.0
Zn31 Zn 0.5214 0.26084 0.19919 0.0
O32 O 0.49862 0.12562 0.22904 0.0
Zn33 Zn 0.49967 0.14602 0.20575 0.0
O34 O 0.55134 0.14334 0.20049 0.0
O35 O 0.57072 0.25883 0.19432 0.0
O36 O 0.48141 0.08431 0.18764 0.0
O37 O 0.50252 0.19674 0.18019 0.0
O38 O 0.48802 0.34601 0.19733 0.0
O39 O 0.46476 0.23527 0.20435 0.0
C40 C 0.57588 0.1866 0.19617 0.0
C41 C 0.46163 0.30644 0.20091 0.0
C42 C 0.70954 0.04125 0.19546 0.0
C43 C 0.82403 0.92214 0.19863 0.0
O44 O 0.73435 0.0854 0.19904 0.0
Zn45 Zn 0.78668 0.08351 0.2032 0.0
O46 O 0.715 0.9692 0.19354 0.0
Zn47 Zn 0.76446 0.96791 0.19751 0.0
O48 O 0.76719 -0.00834 0.22184 0.0
O49 O 0.78968 0.10567 0.22651 0.0
O50 O 0.79739 0.88166 0.19613 0.0
O51 O 0.82136 -0.00615 0.20159 0.0
O52 O 0.80376 0.14267 0.18441 0.0
O53 O 0.78192 0.02988 0.1779 0.0
C54 C 0.77694 0.04275 0.23179 0.0
C55 C 0.79674 0.09206 0.17376 0.0
C56 C 0.52432 0.94172 0.98382 0.0
C57 C 0.54572 0.88063 0.92667 0.0
O58 O 0.5371 0.87833 0.97891 0.0
Zn59 Zn 0.53425 0.89625 0.95561 0.0
O60 O 0.51435 -0.00859 0.97357 0.0
Zn61 Zn 0.51186 0.00921 0.94885 0.0
O62 O 0.46268 0.00635 0.94439 0.0
O63 O 0.48211 0.89164 0.95103 0.0
O64 O 0.53044 0.94347 0.92988 0.0
O65 O 0.55195 0.83212 0.93784 0.0
O66 O 0.5688 0.98625 0.95302 0.0
O67 O 0.54394 0.09623 0.94644 0.0
C68 C 0.45737 0.93461 0.9468 0.0
C69 C 0.57086 0.05725 0.94923 0.0
C70 C 0.21009 0.66689 0.95024 0.0
C71 C 0.32429 0.78691 0.9456 0.0
O72 O 0.23666 0.62705 0.94718 0.0
Zn73 Zn 0.26982 0.71295 0.94835 0.0
O74 O 0.21297 0.73881 0.95295 0.0
Zn75 Zn 0.24745 0.82883 0.95384 0.0
O76 O 0.23004 0.88653 0.93492 0.0
O77 O 0.2521 0.77373 0.92865 0.0
O78 O 0.29944 0.83064 0.94923 0.0
O79 O 0.31936 0.71437 0.94419 0.0
O80 O 0.2677 0.73848 0.97266 0.0
O81 O 0.24545 0.85298 0.97707 0.0
C82 C 0.23722 0.83558 0.92437 0.0
C83 C 0.25832 0.7905 0.98249 0.0
C84 C 0.52521 0.78612 0.80077 0.0
C85 C 0.54612 0.84021 0.85843 0.0
O86 O 0.53761 0.84974 0.80583 0.0
Zn87 Zn 0.53573 0.82855 0.82912 0.0
O88 O 0.51619 0.73488 0.81089 0.0
Zn89 Zn 0.51452 0.71263 0.83538 0.0
O90 O 0.46515 0.7122 0.83979 0.0
O91 O 0.48365 0.82854 0.83372 0.0
O92 O 0.53186 0.77699 0.85459 0.0
O93 O 0.55263 0.89018 0.84756 0.0
O94 O 0.57113 0.7403 0.83057 0.0
O95 O 0.54832 0.6284 0.83708 0.0
C96 C 0.45926 0.78399 0.8377 0.0
C97 C 0.57457 0.66891 0.83375 0.0
C98 C 0.23681 0.87272 0.85612 0.0
C99 C 0.26208 0.94467 0.79968 0.0
O100 O 0.23109 0.82591 0.84459 0.0
Zn101 Zn 0.24972 0.89311 0.82738 0.0
O102 O 0.25218 0.93608 0.85347 0.0
Zn103 Zn 0.2718 0.00532 0.83532 0.0
O104 O 0.23922 0.09118 0.83795 0.0
O105 O 0.21498 0.98233 0.8302 0.0
O106 O 0.27102 -0.00801 0.81056 0.0
O107 O 0.2489 0.88024 0.80378 0.0
O108 O 0.30134 0.88786 0.83291 0.0
O109 O 0.32082 0.00138 0.84041 0.0
C110 C 0.21253 0.05248 0.83452 0.0
C111 C 0.32584 0.92967 0.83784 0.0
C112 C 0.51049 0.52325 0.55186 0.0
C113 C 0.48798 0.58524 0.60917 0.0
O114 O 0.52053 0.47549 0.56245 0.0
Zn115 Zn 0.52297 0.45816 0.58701 0.0
O116 O 0.49675 0.58639 0.55637 0.0
Zn117 Zn 0.49918 0.57067 0.57998 0.0
O118 O 0.55114 0.57808 0.58481 0.0
O119 O 0.57231 0.46465 0.59134 0.0
O120 O 0.48055 0.63292 0.59798 0.0
O121 O 0.50393 0.52351 0.60579 0.0
O122 O 0.49115 0.37001 0.58935 0.0
O123 O 0.46572 0.4791 0.58262 0.0
C124 C 0.57642 0.53699 0.5891 0.0
C125 C 0.46403 0.40812 0.58642 0.0
C126 C 0.77143 0.70187 0.54898 0.0
C127 C 0.79763 0.63003 0.60527 0.0
O128 O 0.76322 0.74986 0.55987 0.0
Zn129 Zn 0.76324 0.76358 0.58469 0.0
O130 O 0.78411 0.63687 0.55305 0.0
Zn131 Zn 0.78421 0.65049 0.57656 0.0
O132 O 0.73268 0.64719 0.58223 0.0
O133 O 0.71422 0.76076 0.59014 0.0
O134 O 0.80275 0.58289 0.59374 0.0
O135 O 0.78276 0.69391 0.60264 0.0
O136 O 0.79694 0.8476 0.58721 0.0
O137 O 0.81963 0.73882 0.5787 0.0
C138 C 0.70849 0.68953 0.58731 0.0
C139 C 0.82309 0.80888 0.58297 0.0
C140 C 0.51218 0.69542 0.73355 0.0
C141 C 0.4851 0.62827 0.67711 0.0
O142 O 0.52059 0.74358 0.7227 0.0
Zn143 Zn 0.5206 0.75911 0.69798 0.0
O144 O 0.49899 0.63103 0.72944 0.0
Zn145 Zn 0.49893 0.64587 0.7059 0.0
O146 O 0.55034 0.64155 0.70009 0.0
O147 O 0.5696 0.75538 0.6926 0.0
O148 O 0.47967 0.58058 0.68854 0.0
O149 O 0.50055 0.6913 0.67989 0.0
O150 O 0.4874 0.84435 0.69581 0.0
O151 O 0.46424 0.73545 0.70405 0.0
C152 C 0.57472 0.68358 0.69508 0.0
C153 C 0.46111 0.80593 0.70003 0.0
C154 C 0.70799 0.53687 0.69487 0.0
C155 C 0.82277 0.41943 0.6979 0.0
O156 O 0.73269 0.58115 0.69854 0.0
Zn157 Zn 0.78491 0.57977 0.70284 0.0
O158 O 0.71353 0.46483 0.693 0.0
Zn159 Zn 0.76301 0.4641 0.69707 0.0
O160 O 0.76564 0.48689 0.72149 0.0
O161 O 0.7877 0.60131 0.72615 0.0
O162 O 0.79623 0.37856 0.69543 0.0
O163 O 0.8199 0.49094 0.70102 0.0
O164 O 0.80179 0.63992 0.68414 0.0
O165 O 0.78021 0.52706 0.67749 0.0
C166 C 0.77523 0.53816 0.73144 0.0
C167 C 0.79482 0.58962 0.67342 0.0
C168 C 0.52268 0.43795 0.4842 0.0
C169 C 0.54687 0.38666 0.42674 0.0
O170 O 0.53564 0.37517 0.47903 0.0
Zn171 Zn 0.53429 0.39695 0.45582 0.0
O172 O 0.51335 0.48927 0.47415 0.0
Zn173 Zn 0.51205 0.51119 0.44953 0.0
O174 O 0.46285 0.50862 0.44466 0.0
O175 O 0.48254 0.39309 0.45055 0.0
O176 O 0.53134 0.44866 0.43033 0.0
O177 O 0.553 0.33662 0.43764 0.0
O178 O 0.5687 0.48744 0.45468 0.0
O179 O 0.54472 0.59776 0.44794 0.0
C180 C 0.45788 0.43623 0.44634 0.0
C181 C 0.57135 0.55896 0.45145 0.0
C182 C 0.25856 0.29056 0.48284 0.0
C183 C 0.23602 0.34613 0.42548 0.0
O184 O 0.24598 0.35422 0.47788 0.0
Zn185 Zn 0.24771 0.33382 0.45461 0.0
O186 O 0.2676 0.23981 0.47265 0.0
Zn187 Zn 0.26909 0.21875 0.44809 0.0
O188 O 0.31839 0.21949 0.44351 0.0
O189 O 0.29975 0.33514 0.44991 0.0
O190 O 0.25078 0.28314 0.42905 0.0
O191 O 0.23023 0.39613 0.4364 0.0
O192 O 0.21253 0.24482 0.45318 0.0
O193 O 0.23568 0.13378 0.44636 0.0
C194 C 0.32419 0.29115 0.44579 0.0
C195 C 0.20933 0.17353 0.44987 0.0
C196 C 0.52518 0.27705 0.30147 0.0
C197 C 0.54699 0.34466 0.35856 0.0
O198 O 0.53834 0.34121 0.30576 0.0
Zn199 Zn 0.53632 0.32692 0.32942 0.0
O200 O 0.51571 0.22953 0.31222 0.0
Zn201 Zn 0.5136 0.21369 0.33682 0.0
O202 O 0.46418 0.21782 0.34114 0.0
O203 O 0.48436 0.3317 0.33422 0.0
O204 O 0.53189 0.28159 0.35536 0.0
O205 O 0.55395 0.39199 0.34724 0.0
O206 O 0.57073 0.23729 0.33233 0.0
O207 O 0.54628 0.12753 0.33939 0.0
C208 C 0.45945 0.28977 0.33866 0.0
C209 C 0.57307 0.16666 0.33634 0.0
C210 C 0.32641 0.43772 0.33685 0.0
C211 C 0.21146 0.55524 0.33283 0.0
O212 O 0.32075 0.50959 0.33891 0.0
Zn213 Zn 0.27145 0.51049 0.33425 0.0
O214 O 0.30192 0.39376 0.33275 0.0
Zn215 Zn 0.2499 0.39534 0.32793 0.0
O216 O 0.24827 0.37474 0.30467 0.0
O217 O 0.26992 0.48936 0.30967 0.0
O218 O 0.21466 0.48404 0.32944 0.0
O219 O 0.23786 0.5951 0.3362 0.0
O220 O 0.25355 0.44603 0.35339 0.0
O221 O 0.23238 0.33345 0.34626 0.0
C222 C 0.26084 0.43816 0.29958 0.0
C223 C 0.23889 0.38316 0.35716 0.0
C224 C 0.98705 0.09034 0.60871 0.0
C225 C 1.00946 0.03552 0.55124 0.0
O226 O 1.00265 0.02822 0.60524 0.0
Zn227 Zn 0.02159 0.96468 0.58597 0.0
O228 O 0.98057 0.13966 0.59771 0.0
Zn229 Zn 0.99874 0.07807 0.57967 0.0
O230 O 0.9645 0.9874 0.58177 0.0
O231 O 0.98949 0.87695 0.58784 0.0
O232 O 0.99632 0.09815 0.55636 0.0
O233 O 0.0194 0.98509 0.56135 0.0
O234 O 0.07095 0.96839 0.59044 0.0
O235 O 0.05072 0.08341 0.58455 0.0
C236 C 0.96251 0.91597 0.58517 0.0
C237 C 0.07566 0.04079 0.58863 0.0
C238 C 0.29806 0.12579 0.6062 0.0
C239 C 0.27227 0.19791 0.54994 0.0
O240 O 0.28338 0.18987 0.60354 0.0
Zn241 Zn 0.26429 0.25992 0.58562 0.0
O242 O 0.303 0.07843 0.59469 0.0
Zn243 Zn 0.28481 0.14629 0.57747 0.0
O244 O 0.32062 0.23379 0.57968 0.0
O245 O 0.29837 0.34307 0.58818 0.0
O246 O 0.28489 0.13275 0.55394 0.0
O247 O 0.26429 0.24593 0.56086 0.0
O248 O 0.21524 0.25842 0.59094 0.0
O249 O 0.23311 0.14441 0.58299 0.0
C250 C 0.32438 0.30373 0.58397 0.0
C251 C 0.2091 0.18746 0.588 0.0
C252 C 0.07578 0.18749 0.69579 0.0
C253 C 0.96205 0.30983 0.70011 0.0
O254 O 0.05115 0.14543 0.70051 0.0
Zn255 Zn 0.99956 0.14938 0.70595 0.0
O256 O 0.07092 0.25952 0.69346 0.0
Zn257 Zn 0.02172 0.2632 0.69842 0.0
O258 O 0.02091 0.24637 0.72304 0.0
O259 O 0.99901 0.13386 0.72954 0.0
O260 O 0.9885 0.34844 0.6962 0.0
O261 O 0.96505 0.23911 0.70398 0.0
O262 O 0.98104 0.08519 0.68814 0.0
O263 O 1.00267 0.19594 0.68004 0.0
C264 C 1.01216 0.1981 0.73379 0.0
C265 C 0.98753 0.13298 0.67684 0.0
C266 C 0.20818 0.03693 0.69573 0.0
C267 C 0.32191 0.91468 0.69836 0.0
O268 O 0.23321 0.0801 0.69946 0.0
Zn269 Zn 0.28547 0.07637 0.7037 0.0
O270 O 0.21316 0.96477 0.69372 0.0
Zn271 Zn 0.26257 0.96179 0.69777 0.0
O272 O 0.26549 0.98361 0.72219 0.0
O273 O 0.28863 0.09673 0.72706 0.0
O274 O 0.29503 0.87492 0.69592 0.0
O275 O 0.3197 0.98616 0.70161 0.0
O276 O 0.30278 0.13639 0.68507 0.0
O277 O 0.28021 0.02466 0.67831 0.0
C278 C 0.27557 0.03397 0.73224 0.0
C279 C 0.29538 0.08661 0.6743 0.0
C280 C 0.04599 0.88579 0.42642 0.0
C281 C 0.02261 0.94992 0.48359 0.0
O282 O 0.05305 0.83835 0.43771 0.0
Zn283 Zn 0.03447 0.90185 0.45556 0.0
O284 O 0.03033 0.94807 0.42967 0.0
Zn285 Zn 1.01127 0.01449 0.4483 0.0
O286 O 0.04335 0.10181 0.44591 0.0
O287 O 0.06835 -0.00736 0.45291 0.0
O288 O 1.01301 -0.00221 0.47293 0.0
O289 O 0.03622 0.88648 0.47918 0.0
O290 O 0.98263 0.89557 0.45044 0.0
O291 O 0.96209 0.00925 0.44365 0.0
C292 C 0.07032 0.06341 0.44897 0.0
C293 C 0.95764 0.93705 0.44593 0.0
C294 C 0.75734 0.78916 0.4815 0.0
C295 C 0.7381 0.83906 0.42345 0.0
O296 O 0.74462 0.85206 0.47622 0.0
Zn297 Zn 0.74764 0.82999 0.45291 0.0
O298 O 0.7671 0.73809 0.47155 0.0
Zn299 Zn 0.76993 0.71439 0.44723 0.0
O300 O 0.81947 0.71565 0.44336 0.0
O301 O 0.79993 0.83172 0.44881 0.0
O302 O 0.75276 0.77669 0.42759 0.0
O303 O 0.73095 0.88946 0.43412 0.0
O304 O 0.71295 0.7405 0.45116 0.0
O305 O 0.73699 0.62822 0.44581 0.0
C306 C 0.8248 0.78776 0.44528 0.0
C307 C 0.71034 0.66876 0.44822 0.0
C308 C 0.95924 0.78832 0.33941 0.0
C309 C 0.07216 0.66225 0.33602 0.0
O310 O 0.96378 0.71625 0.34181 0.0
Zn311 Zn 1.01307 0.71093 0.33708 0.0
O312 O 0.98416 0.82974 0.33478 0.0
Zn313 Zn 0.03588 0.82347 0.32954 0.0
O314 O 0.03732 0.8382 0.30595 0.0
O315 O 1.01451 0.72667 0.31241 0.0
O316 O 0.06998 0.733 0.33208 0.0
O317 O 0.04533 0.62369 0.33931 0.0
O318 O 0.03272 0.77794 0.35554 0.0
O319 O 0.05463 0.88808 0.34709 0.0
C320 C 0.02393 0.77431 0.30166 0.0
C321 C 0.04843 0.84056 0.35847 0.0
C322 C 0.7125 0.05947 0.3336 0.0
C323 C 0.82701 0.93965 0.33762 0.0
O324 O 0.73876 0.09799 0.3378 0.0
Zn325 Zn 0.77232 0.01391 0.33503 0.0
O326 O 0.71589 -0.01034 0.32915 0.0
Zn327 Zn 0.75128 0.90135 0.32674 0.0
O328 O 0.73247 0.83308 0.34373 0.0
O329 O 0.75266 0.94356 0.35285 0.0
O330 O 0.80284 0.8974 0.33246 0.0
O331 O 0.82127 0.01081 0.34051 0.0
O332 O 0.77221 0.00142 0.31016 0.0
O333 O 0.75117 0.88868 0.30322 0.0
C334 C 0.73759 0.87974 0.35535 0.0
C335 C 0.76386 0.95377 0.29922 0.0
C336 C 0.96147 0.4217 0.08541 0.0
C337 C 0.07512 0.54409 0.08802 0.0
O338 O 0.96359 0.49278 0.08169 0.0
Zn339 Zn 0.99822 0.58272 0.07918 0.0
O340 O 0.98837 0.38267 0.08822 0.0
Zn341 Zn 0.02056 0.46961 0.08597 0.0
O342 O 1.00193 0.53533 0.10493 0.0
O343 O 0.9806 0.6469 0.09697 0.0
O344 O 0.0698 0.47234 0.09043 0.0
O345 O 0.05038 0.58707 0.0838 0.0
O346 O 0.99558 0.60059 0.05583 0.0
O347 O 0.01832 0.48762 0.06127 0.0
C348 C 0.98676 0.5983 0.10815 0.0
C349 C 1.00847 0.53721 0.05097 0.0
C350 C 0.32144 0.81576 0.08512 0.0
C351 C 0.20791 0.69324 0.0882 0.0
O352 O 0.31891 0.74556 0.08085 0.0
Zn353 Zn 0.28417 0.6565 0.078 0.0
O354 O 0.29478 0.85478 0.08842 0.0
Zn355 Zn 0.26206 0.76889 0.08575 0.0
O356 O 0.28136 0.69983 0.10405 0.0
O357 O 0.30264 0.58976 0.09527 0.0
O358 O 0.21287 0.76506 0.09067 0.0
O359 O 0.2325 0.65136 0.08341 0.0
O360 O 0.28534 0.64278 0.05447 0.0
O361 O 0.26318 0.75485 0.06097 0.0
C362 C 0.29676 0.63659 0.10678 0.0
C363 C 0.27227 0.70705 0.05021 0.0
C364 C 0.07655 0.68665 0.19688 0.0
C365 C 0.96271 0.80865 0.20123 0.0
O366 O 0.05177 0.64328 0.2009 0.0
Zn367 Zn 0.99972 0.64656 0.20569 0.0
O368 O 0.07135 0.75879 0.19493 0.0
Zn369 Zn 0.02212 0.7611 0.19954 0.0
O370 O 0.02033 0.73876 0.22407 0.0
O371 O 0.99783 0.62484 0.22896 0.0
O372 O 0.98944 0.84747 0.19789 0.0
O373 O 0.96528 0.73703 0.2044 0.0
O374 O 0.98172 0.58642 0.18724 0.0
O375 O 1.00372 0.69845 0.18027 0.0
C376 C 1.01081 0.68766 0.23412 0.0
C377 C 0.98862 0.63628 0.1764 0.0
C378 C 0.3222 0.41188 0.1977 0.0
C379 C 0.2089 0.53598 0.19485 0.0
O380 O 0.31995 0.48282 0.20141 0.0
Zn381 Zn 0.28585 0.5729 0.20395 0.0
O382 O 0.2954 0.3727 0.19472 0.0
Zn383 Zn 0.26284 0.45935 0.19687 0.0
O384 O 0.28126 0.52586 0.17811 0.0
O385 O 0.3037 0.63625 0.1859 0.0
O386 O 0.21341 0.46382 0.19257 0.0
O387 O 0.23394 0.5778 0.19914 0.0
O388 O 0.2878 0.58853 0.22757 0.0
O389 O 0.26484 0.4769 0.22139 0.0
C390 C 0.29655 0.58849 0.17471 0.0
C391 C 0.27435 0.52486 0.23201 0.0
C392 C 0.04605 0.37839 0.92687 0.0
C393 C 0.02125 0.44522 0.98372 0.0
O394 O 0.05236 0.33082 0.93823 0.0
Zn395 Zn 0.03372 0.39562 0.95588 0.0
O396 O 0.03079 0.44136 0.92994 0.0
Zn397 Zn 1.01157 0.50906 0.94828 0.0
O398 O 0.04447 0.59488 0.94602 0.0
O399 O 0.06836 0.48505 0.95341 0.0
O400 O 1.0124 0.49305 0.97291 0.0
O401 O 0.03454 0.38108 0.97953 0.0
O402 O 0.98207 0.39121 0.95035 0.0
O403 O 0.96252 0.50537 0.94325 0.0
C404 C 0.07104 0.55559 0.94938 0.0
C405 C 0.95753 0.43338 0.94557 0.0
C406 C 0.73615 0.34007 0.9243 0.0
C407 C 0.7585 0.28795 0.98191 0.0
O408 O 0.73018 0.39039 0.93514 0.0
Zn409 Zn 0.7477 0.32948 0.95353 0.0
O410 O 0.75097 0.27735 0.92803 0.0
Zn411 Zn 0.76924 0.21424 0.94731 0.0
O412 O 0.73607 0.12877 0.94583 0.0
O413 O 0.71275 0.24004 0.95238 0.0
O414 O 0.76759 0.23668 0.97184 0.0
O415 O 0.74595 0.35133 0.97678 0.0
O416 O 0.79972 0.33087 0.94887 0.0
O417 O 0.81857 0.21495 0.94282 0.0
C418 C 0.70968 0.16849 0.94928 0.0
C419 C 0.82425 0.2868 0.94491 0.0
C420 C 0.07386 0.16562 0.83405 0.0
C421 C 0.96042 0.28928 0.83857 0.0
O422 O 0.0472 0.12666 0.83747 0.0
Zn423 Zn 1.01448 0.21334 0.83588 0.0
O424 O 0.07119 0.23715 0.83087 0.0
Zn425 Zn 0.03712 0.32784 0.82958 0.0
O426 O 0.05549 0.38786 0.84788 0.0
O427 O 0.03349 0.27593 0.85508 0.0
O428 O 0.98536 0.33192 0.83451 0.0
O429 O 0.96505 0.21684 0.84038 0.0
O430 O 1.01629 0.23522 0.81134 0.0
O431 O 0.03886 0.34891 0.80629 0.0
C432 C 0.04904 0.33782 0.85874 0.0
C433 C 0.02582 0.286 0.80122 0.0
C434 C 0.71407 0.56062 0.83398 0.0
C435 C 0.82811 0.43996 0.83674 0.0
O436 O 0.74065 0.60014 0.83719 0.0
Zn437 Zn 0.77362 0.51476 0.83456 0.0
O438 O 0.7168 0.4903 0.82983 0.0
Zn439 Zn 0.75163 0.40143 0.82706 0.0
O440 O 0.7336 0.33574 0.84476 0.0
O441 O 0.7551 0.44632 0.853 0.0
O442 O 0.80354 0.39745 0.83211 0.0
O443 O 0.82274 0.5115 0.83937 0.0
O444 O 0.77204 0.49982 0.80987 0.0
O445 O 0.75 0.38749 0.80345 0.0
C446 C 0.74006 0.38306 0.85612 0.0
C447 C 0.76282 0.45201 0.79914 0.0
C448 C 0.48154 0.04152 0.136 0.0
C449 C 0.48053 0.1062 0.12559 0.0
C450 C 0.48074 0.04968 0.15268 0.0
C451 C 0.47871 0.12284 0.15959 0.0
H452 H 0.48479 0.98382 0.13128 0.0
H453 H 0.48414 -0.00097 0.16012 0.0
S454 S 0.46743 0.30889 0.13793 0.0
N455 N 0.47191 0.24438 0.12355 0.0
N456 N 0.46954 0.26026 0.15492 0.0
C457 C 0.47397 0.18723 0.14938 0.0
C458 C 0.47502 0.17884 0.13236 0.0
C459 C 0.79957 0.03646 0.14618 0.0
C460 C 0.80488 0.10047 0.15646 0.0
C461 C 0.80135 0.04341 0.12949 0.0
C462 C 0.80872 0.11454 0.12244 0.0
H463 H 0.79219 0.98086 0.15099 0.0
H464 H 0.79431 -0.00546 0.12213 0.0
S465 S 0.83202 0.29548 0.14363 0.0
N466 N 0.823 0.23408 0.15816 0.0
N467 N 0.82688 0.24723 0.12676 0.0
C468 C 0.81757 0.17691 0.1325 0.0
C469 C 0.81554 0.16993 0.14952 0.0
C470 C 0.55058 0.78674 0.88613 0.0
C471 C 0.55363 0.85105 0.87571 0.0
C472 C 0.55107 0.79501 0.90281 0.0
C473 C 0.55471 0.86789 0.9097 0.0
H474 H 0.54606 0.72947 0.88141 0.0
H475 H 0.54615 0.74501 0.91025 0.0
S476 S 0.57132 0.05195 0.88812 0.0
N477 N 0.56581 -0.01205 0.87372 0.0
N478 N 0.56729 0.00386 0.9051 0.0
C479 C 0.5613 0.93147 0.89952 0.0
C480 C 0.56067 0.92301 0.88251 0.0
C481 C 0.23438 0.7868 0.88005 0.0
C482 C 0.2272 0.85788 0.87293 0.0
C483 C 0.23551 0.77983 0.89676 0.0
C484 C 0.22966 0.84375 0.90699 0.0
H485 H 0.24172 0.73797 0.87274 0.0
H486 H 0.24279 0.72431 0.90163 0.0
S487 S 0.20286 0.03859 0.89393 0.0
N488 N 0.20879 -0.00955 0.87711 0.0
N489 N 0.21134 0.97721 0.90854 0.0
C490 C 0.21924 0.91316 0.89996 0.0
C491 C 0.21793 0.92018 0.88293 0.0
C492 C 0.48177 0.53225 0.63683 0.0
C493 C 0.47896 0.59617 0.62629 0.0
C494 C 0.48031 0.54098 0.65349 0.0
C495 C 0.47576 0.61394 0.66023 0.0
H496 H 0.48702 0.47507 0.63224 0.0
H497 H 0.4854 0.49152 0.66106 0.0
S498 S 0.45903 0.79663 0.63818 0.0
N499 N 0.46585 0.73243 0.62394 0.0
N500 N 0.4623 0.74916 0.65527 0.0
C501 C 0.46909 0.67682 0.64987 0.0
C502 C 0.47083 0.66793 0.63289 0.0
C503 C 0.79727 0.53537 0.64571 0.0
C504 C 0.8028 0.5988 0.65611 0.0
C505 C 0.79912 0.54303 0.62903 0.0
C506 C 0.80674 0.61434 0.62211 0.0
H507 H 0.78973 0.47967 0.6504 0.0
H508 H 0.79198 0.49457 0.62157 0.0
S509 S 0.83064 0.79389 0.64366 0.0
N510 N 0.82137 0.732 0.65808 0.0
N511 N 0.82535 0.74651 0.6267 0.0
C512 C 0.81575 0.67612 0.6323 0.0
C513 C 0.81367 0.66841 0.64931 0.0
C514 C 0.55565 0.30229 0.40283 0.0
C515 C 0.55574 0.37589 0.40965 0.0
C516 C 0.55551 0.29342 0.38616 0.0
C517 C 0.55531 0.35774 0.37567 0.0
H518 H 0.5533 0.25154 0.41033 0.0
H519 H 0.5537 0.23529 0.38148 0.0
S520 S 0.56319 0.56222 0.38769 0.0
N521 N 0.5618 0.5141 0.40476 0.0
N522 N 0.56067 0.49665 0.37341 0.0
C523 C 0.55893 0.43119 0.38234 0.0
C524 C 0.55927 0.44039 0.39934 0.0
C525 C 0.23264 0.43782 0.38463 0.0
C526 C 0.23053 0.3729 0.37437 0.0
C527 C 0.23133 0.4304 0.40132 0.0
C528 C 0.22772 0.35777 0.40838 0.0
H529 H 0.23706 0.49497 0.3798 0.0
H530 H 0.23558 0.48093 0.40868 0.0
S531 S 0.21345 0.17207 0.38711 0.0
N532 N 0.21936 0.23554 0.3726 0.0
N533 N 0.21616 0.22117 0.40399 0.0
C534 C 0.22202 0.29348 0.3983 0.0
C535 C 0.22355 0.30109 0.38128 0.0
C536 C 0.97928 0.17545 0.63255 0.0
C537 C 0.97821 0.10185 0.62577 0.0
C538 C 0.97959 0.18446 0.64921 0.0
C539 C 0.979 0.12023 0.65973 0.0
H540 H 0.9823 0.22594 0.62502 0.0
H541 H 0.9822 0.2425 0.65385 0.0
S542 S 0.9682 0.91634 0.64776 0.0
N543 N 0.97028 0.96423 0.63068 0.0
N544 N 0.97169 0.98176 0.66203 0.0
C545 C 0.97436 0.047 0.65309 0.0
C546 C 0.97384 0.03772 0.63609 0.0
C547 C 0.29998 0.0391 0.62999 0.0
C548 C 0.30732 0.11042 0.62303 0.0
C549 C 0.29824 0.03171 0.64668 0.0
C550 C 0.30358 0.09545 0.65702 0.0
H551 H 0.29295 -0.00959 0.62258 0.0
H552 H 0.29089 0.97597 0.65142 0.0
S553 S 0.33089 0.29065 0.64443 0.0
N554 N 0.32569 0.24289 0.62751 0.0
N555 N 0.32181 0.2289 0.65889 0.0
C556 C 0.31428 0.16504 0.65017 0.0
C557 C 0.31628 0.17247 0.63317 0.0
C558 C 0.05403 0.92802 0.38204 0.0
C559 C 0.05751 0.85454 0.3754 0.0
C560 C 0.05285 0.93744 0.3987 0.0
C561 C 0.05492 0.87374 0.40932 0.0
H562 H 0.04964 0.97759 0.37441 0.0
H563 H 0.04841 -0.00489 0.40321 0.0
S564 S 0.07206 0.67161 0.39771 0.0
N565 N 0.06919 0.71862 0.38055 0.0
N566 N 0.06624 0.73675 0.41186 0.0
C567 C 0.06199 0.80122 0.40282 0.0
C568 C 0.06341 0.79158 0.38584 0.0
C569 C 0.73618 0.78471 0.39574 0.0
C570 C 0.73051 0.8482 0.40611 0.0
C571 C 0.73498 0.79251 0.37905 0.0
C572 C 0.72788 0.86399 0.3721 0.0
H573 H 0.74338 0.72888 0.40049 0.0
H574 H 0.74222 0.74399 0.37163 0.0
S575 S 0.70381 0.0438 0.39351 0.0
N576 N 0.71235 0.98168 0.40797 0.0
N577 N 0.70952 -0.00359 0.37658 0.0
C578 C 0.71867 0.92583 0.38224 0.0
C579 C 0.72011 0.918 0.39925 0.0
C580 C 0.98412 0.69109 0.14881 0.0
C581 C 0.98047 0.62663 0.15915 0.0
C582 C 0.98297 0.68352 0.13212 0.0
C583 C 0.97802 0.61124 0.12513 0.0
H584 H 0.98966 0.74778 0.15358 0.0
H585 H 0.98845 0.73338 0.12472 0.0
S586 S 0.95942 0.4277 0.14652 0.0
N587 N 0.96631 0.49065 0.16099 0.0
N588 N 0.96362 0.47615 0.12959 0.0
C589 C 0.97081 0.54782 0.13525 0.0
C590 C 0.97212 0.55553 0.15227 0.0
C591 C 0.30165 0.5378 0.14684 0.0
C592 C 0.30471 0.60094 0.15753 0.0
C593 C 0.30229 0.54789 0.1302 0.0
C594 C 0.30619 0.62147 0.12362 0.0
H595 H 0.29688 0.48013 0.15132 0.0
H596 H 0.29718 0.49885 0.12254 0.0
S597 S 0.32322 0.80278 0.14602 0.0
N598 N 0.31736 0.7373 0.16014 0.0
N599 N 0.31925 0.75663 0.12883 0.0
C600 C 0.31301 0.68373 0.13409 0.0
C601 C 0.31216 0.67343 0.15106 0.0
C602 C 0.05678 0.42192 0.88276 0.0
C603 C 0.05746 0.34848 0.87588 0.0
C604 C 0.05583 0.43041 0.89943 0.0
C605 C 0.05534 0.36584 0.90985 0.0
H606 H 0.05452 0.47276 0.87528 0.0
H607 H 0.05356 0.4884 0.90413 0.0
S608 S 0.06476 0.16186 0.89773 0.0
N609 N 0.06394 0.21034 0.8807 0.0
N610 N 0.06125 0.22703 0.91204 0.0
C611 C 0.05964 0.29264 0.90316 0.0
C612 C 0.06083 0.28385 0.88616 0.0
C613 C 0.7297 0.42521 0.90032 0.0
C614 C 0.72823 0.35159 0.90712 0.0
C615 C 0.73097 0.43426 0.88367 0.0
C616 C 0.73098 0.37009 0.87316 0.0
H617 H 0.73226 0.4757 0.90786 0.0
H618 H 0.73376 0.49234 0.87904 0.0
S619 S 0.71957 0.16612 0.88506 0.0
N620 N 0.72064 0.21393 0.90215 0.0
N621 N 0.72385 0.23163 0.87083 0.0
C622 C 0.72599 0.29683 0.87978 0.0
C623 C 0.72449 0.28748 0.89677 0.0
C624 C 0.36514 0.91775 0.08057 0.0
C625 C 0.35623 0.84594 0.08688 0.0
C626 C 0.39927 0.94008 0.07974 0.0
C627 C 0.42585 0.89178 0.08531 0.0
H628 H 0.34583 0.95547 0.07566 0.0
H629 H 0.40476 -0.00414 0.07448 0.0
S630 S 0.41486 0.70034 0.10436 0.0
N631 N 0.37597 0.728 0.09975 0.0
N632 N 0.44009 0.77069 0.09831 0.0
C633 C 0.41699 0.82074 0.09213 0.0
C634 C 0.38222 0.79782 0.09292 0.0
C635 C 0.88512 0.2946 0.07857 0.0
C636 C 0.85789 0.34034 0.08432 0.0
C637 C 0.91897 0.31859 0.07982 0.0
C638 C 0.92693 0.38962 0.08672 0.0
H639 H 0.88041 0.23954 0.07287 0.0
H640 H 0.9388 0.28282 0.07476 0.0
S641 S 0.86628 0.52858 0.10487 0.0
N642 N 0.84199 0.45805 0.09814 0.0
N643 N 0.90559 0.50398 0.10031 0.0
C644 C 0.90028 0.43518 0.09292 0.0
C645 C 0.86578 0.41051 0.09174 0.0
C646 C 0.39959 0.29077 0.20619 0.0
C647 C 0.42638 0.33628 0.19989 0.0
C648 C 0.36549 0.3123 0.20453 0.0
C649 C 0.35686 0.38049 0.1966 0.0
H650 H 0.40491 0.23783 0.21262 0.0
H651 H 0.34598 0.27714 0.21005 0.0
S652 S 0.41626 0.51769 0.17692 0.0
N653 N 0.44122 0.45071 0.18462 0.0
N654 N 0.37714 0.49206 0.18166 0.0
C655 C 0.38311 0.42583 0.18993 0.0
C656 C 0.41785 0.40373 0.19157 0.0
C657 C 0.86647 0.81841 0.20423 0.0
C658 C 0.85887 0.89093 0.19787 0.0
C659 C 0.90023 0.79387 0.20557 0.0
C660 C 0.92776 0.84056 0.20046 0.0
H661 H 0.84636 0.78152 0.20869 0.0
H662 H 0.90466 0.73748 0.21076 0.0
S663 S 0.92066 0.03356 0.1817 0.0
N664 N 0.88111 0.00815 0.18557 0.0
N665 N 0.94449 0.96139 0.18804 0.0
C666 C 0.92032 0.91261 0.19373 0.0
C667 C 0.88592 0.93776 0.19241 0.0
C668 C 0.64784 0.18359 0.95508 0.0
C669 C 0.67458 0.13753 0.94895 0.0
C670 C 0.61389 0.15989 0.95433 0.0
C671 C 0.60538 0.08889 0.94755 0.0
H672 H 0.65308 0.23863 0.96069 0.0
H673 H 0.59443 0.19589 0.95963 0.0
S674 S 0.66461 0.9492 0.92861 0.0
N675 N 0.68944 0.01955 0.93498 0.0
N676 N 0.62565 0.97417 0.93372 0.0
C677 C 0.63155 0.04294 0.94102 0.0
C678 C 0.66613 0.06727 0.94172 0.0
C679 C 0.14777 0.68381 0.95467 0.0
C680 C 0.17499 0.63568 0.9498 0.0
C681 C 0.11389 0.65968 0.95374 0.0
C682 C 0.10588 0.5862 0.94806 0.0
H683 H 0.15254 0.74099 0.95937 0.0
H684 H 0.09404 0.69767 0.95803 0.0
S685 S 0.16662 0.43968 0.93267 0.0
N686 N 0.19092 0.51247 0.93826 0.0
N687 N 0.12728 0.46648 0.93659 0.0
C688 C 0.13258 0.53795 0.94281 0.0
C689 C 0.1671 0.56268 0.9437 0.0
C690 C 0.63686 0.68803 0.82947 0.0
C691 C 0.60989 0.63896 0.83429 0.0
C692 C 0.67084 0.66447 0.83019 0.0
C693 C 0.6792 0.59066 0.83561 0.0
H694 H 0.63183 0.74544 0.82493 0.0
H695 H 0.69048 0.70313 0.82591 0.0
S696 S 0.61923 0.44195 0.85091 0.0
N697 N 0.59459 0.51465 0.8456 0.0
N698 N 0.65841 0.46981 0.8469 0.0
C699 C 0.65276 0.54162 0.84089 0.0
C700 C 0.61815 0.56574 0.8402 0.0
C701 C 0.13622 0.18204 0.82974 0.0
C702 C 0.10888 0.13407 0.83459 0.0
C703 C 0.17001 0.15738 0.83055 0.0
C704 C 0.17783 0.08345 0.83605 0.0
H705 H 0.13164 0.23951 0.82513 0.0
H706 H 0.18994 0.19528 0.82627 0.0
S707 S 0.11681 0.9372 0.85142 0.0
N708 N 0.09268 0.01069 0.84605 0.0
N709 N 0.15618 0.96347 0.84738 0.0
C710 C 0.15105 0.03537 0.84132 0.0
C711 C 0.1166 0.06074 0.8406 0.0
C712 C 0.42053 0.30859 0.57981 0.0
C713 C 0.42957 0.37591 0.58792 0.0
C714 C 0.38632 0.28733 0.57838 0.0
C715 C 0.35985 0.33234 0.58508 0.0
H716 H 0.43976 0.27413 0.57392 0.0
H717 H 0.38067 0.23522 0.57175 0.0
S718 S 0.3712 0.51095 0.60878 0.0
N719 N 0.41007 0.48566 0.60358 0.0
N720 N 0.34583 0.44498 0.60102 0.0
C721 C 0.36884 0.39863 0.59367 0.0
C722 C 0.40367 0.42038 0.59508 0.0
C723 C 0.88506 0.79375 0.5773 0.0
C724 C 0.85843 0.83848 0.58394 0.0
C725 C 0.91917 0.81591 0.57861 0.0
C726 C 0.92796 0.88398 0.58652 0.0
H727 H 0.87962 0.74105 0.57083 0.0
H728 H 0.93852 0.78137 0.57283 0.0
S729 S 0.86912 0.0187 0.60718 0.0
N730 N 0.84401 0.9517 0.59962 0.0
N731 N 0.90806 -0.00585 0.60193 0.0
C732 C 0.90191 0.92831 0.59359 0.0
C733 C 0.86717 0.90557 0.59231 0.0
C734 C 0.3991 0.79062 0.70551 0.0
C735 C 0.42591 0.83634 0.69928 0.0
C736 C 0.36509 0.81346 0.70434 0.0
C737 C 0.35655 0.88327 0.69703 0.0
H738 H 0.4043 0.73646 0.7115 0.0
H739 H 0.34559 0.77782 0.70974 0.0
S740 S 0.41598 0.02175 0.67771 0.0
N741 N 0.44083 0.9528 0.68471 0.0
N742 N 0.37693 -0.00347 0.68264 0.0
C743 C 0.3828 0.92885 0.69041 0.0
C744 C 0.41746 0.90539 0.69154 0.0
C745 C 0.86577 0.31674 0.70325 0.0
C746 C 0.85769 0.38899 0.6969 0.0
C747 C 0.89967 0.29315 0.70447 0.0
C748 C 0.92689 0.34054 0.69925 0.0
H749 H 0.84594 0.27939 0.70782 0.0
H750 H 0.90444 0.23696 0.70968 0.0
S751 S 0.91844 0.53308 0.68041 0.0
N752 N 0.87908 0.50663 0.68444 0.0
N753 N 0.94276 0.46163 0.68668 0.0
C754 C 0.91895 0.41222 0.69248 0.0
C755 C 0.88439 0.43643 0.69128 0.0
C756 C 0.6335 0.545 0.45661 0.0
C757 C 0.60637 0.59034 0.45062 0.0
C758 C 0.66743 0.56798 0.45501 0.0
C759 C 0.67555 0.63757 0.44749 0.0
H760 H 0.62862 0.4909 0.46269 0.0
H761 H 0.68723 0.5325 0.46019 0.0
S762 S 0.615 0.77539 0.42879 0.0
N763 N 0.59059 0.70646 0.43615 0.0
N764 N 0.65433 0.75051 0.43327 0.0
C765 C 0.64892 0.68301 0.44119 0.0
C766 C 0.61435 0.65939 0.44276 0.0
C767 C 0.1133 0.16612 0.4542 0.0
C768 C 0.10485 0.09519 0.44737 0.0
C769 C 0.14729 0.18947 0.45518 0.0
C770 C 0.17413 0.14308 0.44925 0.0
H771 H 0.09376 0.20226 0.45939 0.0
H772 H 0.15246 0.24448 0.46081 0.0
S773 S 0.16439 0.95474 0.42888 0.0
N774 N 0.12532 0.98025 0.43368 0.0
N775 N 0.18916 0.02483 0.43542 0.0
C776 C 0.16575 0.07293 0.44196 0.0
C777 C 0.13114 0.04901 0.44101 0.0
C778 C 0.65008 0.04164 0.32947 0.0
C779 C 0.67715 0.08885 0.33489 0.0
C780 C 0.61608 0.06433 0.33089 0.0
C781 C 0.60778 0.13542 0.33768 0.0
H782 H 0.65504 0.98648 0.32386 0.0
H783 H 0.59637 0.02758 0.32603 0.0
S784 S 0.66796 0.27786 0.35506 0.0
N785 N 0.69257 0.20798 0.34832 0.0
N786 N 0.62869 0.2513 0.35088 0.0
C787 C 0.63429 0.1823 0.34362 0.0
C788 C 0.66894 0.15902 0.34223 0.0
C789 C 0.14921 0.53897 0.32804 0.0
C790 C 0.17619 0.58508 0.33393 0.0
C791 C 0.11517 0.56117 0.32966 0.0
C792 C 0.1068 0.63061 0.33714 0.0
H793 H 0.15431 0.48509 0.32195 0.0
H794 H 0.09549 0.52545 0.32445 0.0
S795 S 0.16679 0.76974 0.35574 0.0
N796 N 0.19149 0.70145 0.34839 0.0
N797 N 0.12756 0.74388 0.3513 0.0
C798 C 0.13325 0.67647 0.34344 0.0
C799 C 0.16791 0.65375 0.34183 0.0
C800 C 0.50357 0.05527 0.02172 0.0
C801 C 0.51645 0.00885 0.03407 0.0
C802 C 0.50604 0.0324 1.00563 0.0
C803 C 0.52152 0.96201 1.00113 0.0
H804 H 0.49118 0.10943 0.02446 0.0
H805 H 0.49559 0.07068 0.99664 0.0
S806 S 0.56015 0.81965 0.0288 0.0
N807 N 0.54604 0.88887 0.04058 0.0
N808 N 0.55032 0.84672 1.01043 0.0
C809 C 0.53467 0.91517 1.01333 0.0
C810 C 0.53227 0.93837 0.02973 0.0
C811 C 0.77961 0.17529 0.01986 0.0
C812 C 0.76809 0.22316 0.03225 0.0
C813 C 0.77665 0.19763 1.00378 0.0
C814 C 0.76199 0.26895 0.99926 0.0
H815 H 0.79118 0.12012 0.02257 0.0
H816 H 0.78599 0.15797 0.99479 0.0
S817 S 0.72763 0.41603 0.02704 0.0
N818 N 0.7412 0.34612 0.03884 0.0
N819 N 0.73582 0.38724 1.00861 0.0
C820 C 0.75038 0.31755 1.0115 0.0
C821 C 0.75335 0.29488 0.02794 0.0
C822 C 0.53044 0.27868 0.25585 0.0
C823 C 0.51505 0.20816 0.25135 0.0
C824 C 0.53345 0.30097 0.27195 0.0
C825 C 0.52122 0.25382 0.28434 0.0
H826 H 0.54029 0.3177 0.24684 0.0
H827 H 0.54555 0.35552 0.27467 0.0
S828 S 0.47865 0.06317 0.27912 0.0
N829 N 0.48745 0.09143 0.26071 0.0
N830 N 0.49285 0.13234 0.29091 0.0
C831 C 0.50578 0.18285 0.28002 0.0
C832 C 0.50279 0.16027 0.26359 0.0
C833 C 0.75881 0.95284 0.25371 0.0
C834 C 0.7738 0.0238 0.24917 0.0
C835 C 0.75605 0.93029 0.26978 0.0
C836 C 0.76808 0.97759 0.28215 0.0
H837 H 0.74901 0.91356 0.24475 0.0
H838 H 0.74419 0.87543 0.27249 0.0
S839 S 0.80971 0.16918 0.2769 0.0
N840 N 0.80095 0.14106 0.25848 0.0
N841 N 0.79592 0.09951 0.28871 0.0
C842 C 0.7832 0.04892 0.27783 0.0
C843 C 0.78598 0.07181 0.26138 0.0
C844 C 0.27774 0.70347 1.00468 0.0
C845 C 0.26196 0.77318 0.99992 0.0
C846 C 0.28072 0.68221 0.02083 0.0
C847 C 0.26813 0.72964 0.03305 0.0
H848 H 0.28793 0.66415 0.99583 0.0
H849 H 0.29312 0.62821 0.02371 0.0
S850 S 0.22451 0.91848 0.0272 0.0
N851 N 0.2336 0.88955 1.00888 0.0
N852 N 0.23904 0.85048 0.03923 0.0
C853 C 0.25232 0.79986 0.02851 0.0
C854 C 0.24932 0.82141 1.01199 0.0
C855 C 0.50201 0.67501 0.76297 0.0
C856 C 0.51663 0.71868 0.75062 0.0
C857 C 0.50454 0.69848 0.779 0.0
C858 C 0.52185 0.76669 0.78346 0.0
H859 H 0.48818 0.62261 0.76027 0.0
H860 H 0.49269 0.66228 0.78798 0.0
S861 S 0.56553 0.9012 0.75577 0.0
N862 N 0.5498 0.83357 0.74402 0.0
N863 N 0.55426 0.87693 0.77413 0.0
C864 C 0.53668 0.81091 0.77126 0.0
C865 C 0.5342 0.78705 0.75489 0.0
C866 C 0.25664 0.94447 0.75412 0.0
C867 C 0.27235 0.01466 0.7496 0.0
C868 C 0.25374 0.92183 0.7702 0.0
C869 C 0.26637 0.96827 0.78258 0.0
H870 H 0.24636 0.90595 0.74515 0.0
H871 H 0.2413 0.86763 0.77291 0.0
S872 S 0.31011 0.1575 0.77736 0.0
N873 N 0.30087 0.13016 0.75895 0.0
N874 N 0.29564 0.08847 0.78915 0.0
C875 C 0.28225 0.03878 0.77827 0.0
C876 C 0.28515 0.06175 0.76183 0.0
C877 C 0.50223 0.52425 0.50633 0.0
C878 C 0.51927 0.45614 0.50158 0.0
C879 C 0.49978 0.54621 0.52248 0.0
C880 C 0.51424 0.50109 0.53466 0.0
H881 H 0.49063 0.56159 0.49748 0.0
H882 H 0.48627 0.59874 0.52541 0.0
S883 S 0.56208 0.31766 0.52872 0.0
N884 N 0.551 0.34415 0.51048 0.0
N885 N 0.54672 0.38455 0.54074 0.0
C886 C 0.53142 0.43266 0.53008 0.0
C887 C 0.5338 0.41037 0.51361 0.0
C888 C 0.77812 0.67687 0.51952 0.0
C889 C 0.76694 0.7252 0.53189 0.0
C890 C 0.77505 0.69891 0.50343 0.0
C891 C 0.76059 0.7704 0.49888 0.0
H892 H 0.78955 0.62157 0.52225 0.0
H893 H 0.78419 0.65885 0.49448 0.0
S894 S 0.72696 0.91854 0.5266 0.0
N895 N 0.74046 0.84868 0.53844 0.0
N896 N 0.73485 0.88926 0.50818 0.0
C897 C 0.74922 0.8194 0.51109 0.0
C898 C 0.75232 0.79703 0.52755 0.0
C899 C 0.75574 0.42576 0.76968 0.0
C900 C 0.76652 0.4751 0.78197 0.0
C901 C 0.7585 0.44743 0.75353 0.0
C902 C 0.77219 0.51954 0.74885 0.0
H903 H 0.74499 0.36987 0.77252 0.0
H904 H 0.74978 0.40658 0.74464 0.0
S905 S 0.80413 0.67079 0.77631 0.0
N906 N 0.79153 0.60054 0.78827 0.0
N907 N 0.79654 0.64028 0.75795 0.0
C908 C 0.78303 0.56963 0.76099 0.0
C909 C 0.78026 0.54768 0.77749 0.0
C910 C 0.27933 0.20212 0.50448 0.0
C911 C 0.26211 0.27061 0.50012 0.0
C912 C 0.28206 0.17826 0.52049 0.0
C913 C 0.26775 0.22182 0.53291 0.0
H914 H 0.29094 0.166 0.49544 0.0
H915 H 0.29579 0.12563 0.52312 0.0
S916 S 0.2192 0.40494 0.52803 0.0
N917 N 0.23011 0.38098 0.50962 0.0
N918 N 0.23497 0.33687 0.53969 0.0
C919 C 0.25029 0.29048 0.52874 0.0
C920 C 0.24759 0.31472 0.51239 0.0
C921 C 0.28092 0.52603 0.27759 0.0
C922 C 0.2644 0.45697 0.28222 0.0
C923 C 0.28377 0.5482 0.26146 0.0
C924 C 0.27023 0.50239 0.24919 0.0
H925 H 0.29185 0.56389 0.28651 0.0
H926 H 0.29685 0.60146 0.25863 0.0
S927 S 0.22401 0.31637 0.25479 0.0
N928 N 0.23413 0.34336 0.27312 0.0
N929 N 0.23914 0.38415 0.24288 0.0
C930 C 0.25354 0.43304 0.25365 0.0
C931 C 0.25076 0.41054 0.27009 0.0
C932 C 0.03206 0.92608 0.51304 0.0
C933 C 0.01848 0.97209 0.50078 0.0
C934 C 0.02928 0.94791 0.52919 0.0
C935 C 1.01277 0.01681 0.53386 0.0
H936 H 0.04516 0.87292 0.51019 0.0
H937 H 0.04026 0.9099 0.53809 0.0
S938 S 0.97223 0.15778 0.50649 0.0
N939 N 0.98733 0.09029 0.49454 0.0
N940 N 0.98241 0.13047 0.5248 0.0
C941 C 0.99903 0.06338 0.52175 0.0
C942 C 1.00177 0.04123 0.50528 0.0
C943 C 1.00356 0.1746 0.76327 0.0
C944 C 1.01651 0.22091 0.75092 0.0
C945 C 1.0064 0.19708 0.77936 0.0
C946 C 0.02234 0.26693 0.78388 0.0
H947 H 0.99091 0.12073 0.76053 0.0
H948 H 0.99591 0.15875 0.78834 0.0
S949 S 0.06102 0.40917 0.75619 0.0
N950 N 0.04639 0.34052 0.74439 0.0
N951 N 0.05143 0.38189 0.77458 0.0
C952 C 0.03543 0.31385 0.77167 0.0
C953 C 0.03263 0.29106 0.75525 0.0
C954 C 0.02984 0.77636 0.25609 0.0
C955 C 1.01425 0.70623 0.25149 0.0
C956 C 0.0326 0.79842 0.27221 0.0
C957 C 0.01993 0.75142 0.28452 0.0
H958 H 0.04006 0.8153 0.24716 0.0
H959 H 0.04491 0.85264 0.275 0.0
S960 S 0.97668 0.5618 0.27903 0.0
N961 N 0.98597 0.59002 0.26067 0.0
N962 N 0.99092 0.63055 0.29091 0.0
C963 C 1.00426 0.68086 0.2801 0.0
C964 C 1.00152 0.6585 0.26365 0.0
C965 C 0.03075 0.42396 1.01323 0.0
C966 C 1.01692 0.46856 1.00081 0.0
C967 C 0.02813 0.44746 0.02928 0.0
C968 C 1.01155 0.51667 0.03368 0.0
H969 H 0.044 0.37077 1.01057 0.0
H970 H 0.03935 0.41057 0.03831 0.0
S971 S 0.97012 0.654 1.00582 0.0
N972 N 0.98525 0.58548 0.99413 0.0
N973 N 0.98068 0.62885 0.02421 0.0
C974 C 0.99747 0.56173 0.02141 0.0
C975 C 1.00003 0.53787 1.00505 0.0
C976 C 0.61414 0.15363 0.08922 0.0
C977 C 0.6109 0.07246 0.0904 0.0
C978 C 0.64594 0.19017 0.08922 0.0
C979 C 0.67596 0.14716 0.0903 0.0
H980 H 0.59188 0.18973 0.08791 0.0
H981 H 0.64698 0.2522 0.08772 0.0
S982 S 0.68183 0.93431 0.09561 0.0
N983 N 0.64071 0.95122 0.09409 0.0
N984 N 0.70049 0.01932 0.09416 0.0
C985 C 0.67315 0.06633 0.09232 0.0
C986 C 0.64068 0.02917 0.09237 0.0
C987 C 0.63962 0.19347 0.19586 0.0
C988 C 0.60981 0.15021 0.19402 0.0
C989 C 0.67156 0.15754 0.19592 0.0
C990 C 0.67516 0.07676 0.19407 0.0
H991 H 0.63826 0.25511 0.19786 0.0
H992 H 0.69361 0.19374 0.19779 0.0
S993 S 0.605 0.93852 0.18686 0.0
N994 N 0.58597 0.0228 0.18882 0.0
N995 N 0.64594 0.95587 0.18903 0.0
C996 C 0.64561 0.03337 0.19144 0.0
C997 C 0.61303 0.0699 0.1914 0.0
C998 C 0.4197 0.81779 0.94765 0.0
C999 C 0.42327 0.8981 0.94503 0.0
C1000 C 0.38793 0.78113 0.94704 0.0
C1001 C 0.35832 0.82322 0.94387 0.0
H1002 H 0.44158 0.78262 0.95054 0.0
H1003 H 0.38648 0.72004 0.9497 0.0
S1004 S 0.35378 0.03276 0.93431 0.0
N1005 N 0.39442 0.01695 0.93784 0.0
N1006 N 0.3348 0.94859 0.93662 0.0
C1007 C 0.36162 0.90286 0.94049 0.0
C1008 C 0.39401 0.94013 0.94109 0.0
C1009 C 0.42137 0.90017 0.83827 0.0
C1010 C 0.42489 0.81907 0.83943 0.0
C1011 C 0.38947 0.93613 0.83852 0.0
C1012 C 0.35963 0.89259 0.83984 0.0
H1013 H 0.44347 0.9367 0.8368 0.0
H1014 H 0.38819 -0.00186 0.83703 0.0
S1015 S 0.35456 0.67967 0.84518 0.0
N1016 N 0.39557 0.69729 0.84333 0.0
N1017 N 0.3356 0.76434 0.84387 0.0
C1018 C 0.36274 0.81181 0.84181 0.0
C1019 C 0.3953 0.77523 0.8416 0.0
C1020 C 0.67168 0.57143 0.58797 0.0
C1021 C 0.67458 0.65251 0.58949 0.0
C1022 C 0.64015 0.53382 0.58861 0.0
C1023 C 0.61003 0.5756 0.5907 0.0
H1024 H 0.69398 0.53625 0.58592 0.0
H1025 H 0.63933 0.47196 0.58684 0.0
S1026 S 0.6035 0.78751 0.59717 0.0
N1027 N 0.64448 0.77221 0.59452 0.0
N1028 N 0.58521 0.70208 0.59577 0.0
C1029 C 0.61259 0.65626 0.59301 0.0
C1030 C 0.64479 0.69452 0.59241 0.0
C1031 C 0.63841 0.68975 0.69429 0.0
C1032 C 0.60849 0.64649 0.69295 0.0
C1033 C 0.67027 0.65351 0.69448 0.0
C1034 C 0.67367 0.57241 0.69326 0.0
H1035 H 0.63722 0.75172 0.69583 0.0
H1036 H 0.69244 0.68979 0.69597 0.0
S1037 S 0.60309 0.43375 0.68747 0.0
N1038 N 0.58427 0.51853 0.68886 0.0
N1039 N 0.64412 0.451 0.6893 0.0
C1040 C 0.644 0.52889 0.69109 0.0
C1041 C 0.61149 0.56575 0.69092 0.0
C1042 C 0.3942 0.44307 0.446 0.0
C1043 C 0.42398 0.39974 0.44417 0.0
C1044 C 0.36225 0.40725 0.44606 0.0
C1045 C 0.35859 0.32648 0.44423 0.0
H1046 H 0.39559 0.50472 0.448 0.0
H1047 H 0.34023 0.44353 0.44794 0.0
S1048 S 0.42861 0.18807 0.43702 0.0
N1049 N 0.44772 0.27229 0.43897 0.0
N1050 N 0.38767 0.20551 0.43918 0.0
C1051 C 0.38808 0.28301 0.44158 0.0
C1052 C 0.4207 0.31945 0.44154 0.0
C1053 C 0.39575 0.2843 0.33808 0.0
C1054 C 0.42559 0.32713 0.34018 0.0
C1055 C 0.36399 0.32085 0.33739 0.0
C1056 C 0.36059 0.40186 0.33886 0.0
H1057 H 0.39697 0.22245 0.33635 0.0
H1058 H 0.34192 0.28487 0.33535 0.0
S1059 S 0.43082 0.53932 0.34652 0.0
N1060 N 0.44962 0.45449 0.34519 0.0
N1061 N 0.38995 0.52263 0.34383 0.0
C1062 C 0.39012 0.44491 0.34174 0.0
C1063 C 0.42254 0.40774 0.34241 0.0
C1064 C 0.13938 0.03479 0.58842 0.0
C1065 C 0.10957 0.07777 0.59049 0.0
C1066 C 0.17126 0.07098 0.58808 0.0
C1067 C 0.17483 0.15177 0.5899 0.0
H1068 H 0.13806 0.97312 0.58644 0.0
H1069 H 0.19329 0.03496 0.58604 0.0
S1070 S 0.10477 0.28943 0.59763 0.0
N1071 N 0.08576 0.20499 0.59585 0.0
N1072 N 0.14567 0.27243 0.59516 0.0
C1073 C 0.14534 0.19491 0.59279 0.0
C1074 C 0.11279 0.15811 0.59309 0.0
C1075 C 0.17115 0.15475 0.69595 0.0
C1076 C 0.17413 0.07381 0.69416 0.0
C1077 C 0.13951 0.192 0.69569 0.0
C1078 C 0.10943 0.14992 0.69372 0.0
H1079 H 0.19344 0.19005 0.69793 0.0
H1080 H 0.13858 0.2537 0.69768 0.0
S1081 S 0.10305 0.93848 0.68659 0.0
N1082 N 0.14408 0.9541 0.68898 0.0
N1083 N 0.08467 0.02356 0.68842 0.0
C1084 C 0.11205 0.06949 0.69114 0.0
C1085 C 0.14432 0.03161 0.69137 0.0
C1086 C 0.89395 0.94165 0.44517 0.0
C1087 C 0.92404 0.89894 0.44395 0.0
C1088 C 0.86221 0.90489 0.44519 0.0
C1089 C 0.85908 0.82378 0.4439 0.0
H1090 H 0.8949 0.00366 0.44668 0.0
H1091 H 0.83991 0.94083 0.44655 0.0
S1092 S 0.93018 0.68627 0.43849 0.0
N1093 N 0.94872 0.77135 0.43999 0.0
N1094 N 0.88906 0.70285 0.44011 0.0
C1095 C 0.88893 0.78073 0.44191 0.0
C1096 C 0.92133 0.81812 0.44193 0.0
C1097 C 0.89549 0.78429 0.33897 0.0
C1098 C 0.92555 0.82631 0.34113 0.0
C1099 C 0.86391 0.82168 0.33829 0.0
C1100 C 0.86092 0.90273 0.33985 0.0
H1101 H 0.89643 0.72249 0.33713 0.0
H1102 H 0.84167 0.7864 0.33617 0.0
S1103 S 0.93178 0.03812 0.34777 0.0
N1104 N 0.95018 0.95285 0.34635 0.0
N1105 N 0.89084 0.02256 0.34504 0.0
C1106 C 0.89063 0.94489 0.34288 0.0
C1107 C 0.92287 0.90688 0.34351 0.0
C1108 C 0.14418 0.69838 0.08828 0.0
C1109 C 0.17417 0.65587 0.0902 0.0
C1110 C 0.11244 0.66153 0.08798 0.0
C1111 C 0.10925 0.58058 0.08969 0.0
H1112 H 0.14527 0.76015 0.08637 0.0
H1113 H 0.09022 0.69714 0.08605 0.0
S1114 S 0.18 0.4441 0.09705 0.0
N1115 N 0.19861 0.52903 0.09532 0.0
N1116 N 0.139 0.46031 0.09471 0.0
C1117 C 0.13896 0.53793 0.09243 0.0
C1118 C 0.17133 0.5754 0.09268 0.0
C1119 C 0.11362 0.56892 0.19653 0.0
C1120 C 0.11052 0.6499 0.19483 0.0
C1121 C 0.14521 0.53167 0.19575 0.0
C1122 C 0.17515 0.57376 0.19333 0.0
H1123 H 0.09147 0.53355 0.19882 0.0
H1124 H 0.14625 0.46991 0.19769 0.0
S1125 S 0.18106 0.78541 0.18627 0.0
N1126 N 0.14022 0.76974 0.18928 0.0
N1127 N 0.19955 0.70027 0.18776 0.0
C1128 C 0.17236 0.65427 0.19086 0.0
C1129 C 0.14013 0.69216 0.19162 0.0
C1130 C 0.86201 0.40333 0.94469 0.0
C1131 C 0.85858 0.3223 0.94333 0.0
C1132 C 0.89388 0.4395 0.94467 0.0
C1133 C 0.9238 0.39624 0.94338 0.0
H1134 H 0.83985 0.43961 0.94615 0.0
H1135 H 0.89508 0.50142 0.9463 0.0
S1136 S 0.92914 0.1837 0.93756 0.0
N1137 N 0.88809 0.20097 0.93927 0.0
N1138 N 0.948 0.26839 0.93916 0.0
C1139 C 0.92078 0.31557 0.94121 0.0
C1140 C 0.88825 0.27879 0.94119 0.0
C1141 C 0.89675 0.28485 0.8374 0.0
C1142 C 0.9266 0.32658 0.84026 0.0
C1143 C 0.86517 0.3222 0.83663 0.0
C1144 C 0.86201 0.40289 0.83879 0.0
H1145 H 0.89787 0.22343 0.83508 0.0
H1146 H 0.8431 0.28721 0.83399 0.0
S1147 S 0.93226 0.53705 0.84862 0.0
N1148 N 0.95081 0.45217 0.84675 0.0
N1149 N 0.89151 0.52184 0.84525 0.0
C1150 C 0.89151 0.44464 0.84246 0.0
C1151 C 0.92372 0.40665 0.84321 0.0
loop_
_geom_bond_atom_site_label_1
_geom_bond_atom_site_label_2
_geom_bond_distance
_geom_bond_site_symmetry_2
_ccdc_geom_bond_type
C0 O2 1.247 . S
C0 O4 1.258 . S
C1 O8 1.247 . S
C1 O9 1.258 1_565 S
O2 C0 1.247 . S
O2 Zn3 2.028 . S
Zn3 O2 2.028 . S
Zn3 O7 2.035 . S
Zn3 O9 2.035 . S
Zn3 O10 2.028 . S
O4 C0 1.258 . S
O4 Zn5 2.035 1_545 S
Zn5 O4 2.035 1_565 S
Zn5 O6 2.028 . S
Zn5 O8 2.028 . S
Zn5 O11 2.035 . S
O6 Zn5 2.028 . S
O6 C12 1.247 . S
O7 Zn3 2.035 . S
O7 C12 1.258 1_545 S
O8 C1 1.247 . S
O8 Zn5 2.028 . S
O9 C1 1.258 1_545 S
O9 Zn3 2.035 . S
O10 Zn3 2.028 . S
O10 C13 1.247 . S
O11 Zn5 2.035 . S
O11 C13 1.258 1_565 S
C12 O6 1.247 . S
C12 O7 1.258 1_565 S
C13 O10 1.247 . S
C13 O11 1.258 1_545 S
C14 O16 1.247 . S
C14 O18 1.258 . S
C15 O22 1.247 . S
C15 O23 1.258 . S
O16 C14 1.247 . S
O16 Zn17 2.028 . S
Zn17 O16 2.028 . S
Zn17 O21 2.035 . S
Zn17 O23 2.035 . S
Zn17 O24 2.028 . S
O18 C14 1.258 . S
O18 Zn19 2.035 . S
Zn19 O18 2.035 . S
Zn19 O20 2.028 . S
Zn19 O22 2.028 . S
Zn19 O25 2.035 . S
O20 Zn19 2.028 . S
O20 C26 1.247 . S
O21 Zn17 2.035 . S
O21 C26 1.258 . S
O22 C15 1.247 . S
O22 Zn19 2.028 . S
O23 C15 1.258 . S
O23 Zn17 2.035 . S
O24 Zn17 2.028 . S
O24 C27 1.247 . S
O25 Zn19 2.035 . S
O25 C27 1.258 . S
C26 O20 1.247 . S
C26 O21 1.258 . S
C27 O24 1.247 . S
C27 O25 1.258 . S
C28 O30 1.247 . S
C28 O32 1.258 . S
C29 O36 1.247 . S
C29 O37 1.258 . S
O30 C28 1.247 . S
O30 Zn31 2.028 . S
Zn31 O30 2.028 . S
Zn31 O35 2.035 . S
Zn31 O37 2.035 . S
Zn31 O38 2.028 . S
O32 C28 1.258 . S
O32 Zn33 2.035 . S
Zn33 O32 2.035 . S
Zn33 O34 2.028 . S
Zn33 O36 2.028 . S
Zn33 O39 2.035 . S
O34 Zn33 2.028 . S
O34 C40 1.247 . S
O35 Zn31 2.035 . S
O35 C40 1.258 . S
O36 C29 1.247 . S
O36 Zn33 2.028 . S
O37 C29 1.258 . S
O37 Zn31 2.035 . S
O38 Zn31 2.028 . S
O38 C41 1.247 . S
O39 Zn33 2.035 . S
O39 C41 1.258 . S
C40 O34 1.247 . S
C40 O35 1.258 . S
C41 O38 1.247 . S
C41 O39 1.258 . S
C42 O44 1.247 . S
C42 O46 1.258 . S
C43 O50 1.247 . S
C43 O51 1.258 1_565 S
O44 C42 1.247 . S
O44 Zn45 2.028 . S
Zn45 O44 2.028 . S
Zn45 O49 2.035 . S
Zn45 O51 2.035 . S
Zn45 O52 2.028 . S
O46 C42 1.258 . S
O46 Zn47 2.035 1_545 S
Zn47 O46 2.035 1_565 S
Zn47 O48 2.028 . S
Zn47 O50 2.028 . S
Zn47 O53 2.035 . S
O48 Zn47 2.028 . S
O48 C54 1.247 . S
O49 Zn45 2.035 . S
O49 C54 1.258 1_545 S
O50 C43 1.247 . S
O50 Zn47 2.028 . S
O51 C43 1.258 1_545 S
O51 Zn45 2.035 . S
O52 Zn45 2.028 . S
O52 C55 1.247 . S
O53 Zn47 2.035 . S
O53 C55 1.258 1_565 S
C54 O48 1.247 . S
C54 O49 1.258 1_565 S
C55 O52 1.247 . S
C55 O53 1.258 1_545 S
C56 O58 1.247 1_545 S
C56 O60 1.258 . S
C57 O64 1.247 1_565 S
C57 O65 1.258 . S
O58 C56 1.247 1_565 S
O58 Zn59 2.028 . S
Zn59 O58 2.028 . S
Zn59 O63 2.035 . S
Zn59 O65 2.035 . S
Zn59 O66 2.028 . S
O60 C56 1.258 . S
O60 Zn61 2.035 . S
Zn61 O60 2.035 . S
Zn61 O62 2.028 1_545 S
Zn61 O64 2.028 . S
Zn61 O67 2.035 . S
O62 Zn61 2.028 1_565 S
O62 C68 1.247 . S
O63 Zn59 2.035 . S
O63 C68 1.258 . S
O64 C57 1.247 1_545 S
O64 Zn61 2.028 . S
O65 C57 1.258 . S
O65 Zn59 2.035 . S
O66 Zn59 2.028 . S
O66 C69 1.247 1_565 S
O67 Zn61 2.035 . S
O67 C69 1.258 . S
C68 O62 1.247 . S
C68 O63 1.258 . S
C69 O66 1.247 1_545 S
C69 O67 1.258 . S
C70 O72 1.247 . S
C70 O74 1.258 . S
C71 O78 1.247 . S
C71 O79 1.258 . S
O72 C70 1.247 . S
O72 Zn73 2.028 . S
Zn73 O72 2.028 . S
Zn73 O77 2.035 . S
Zn73 O79 2.035 . S
Zn73 O80 2.028 . S
O74 C70 1.258 . S
O74 Zn75 2.035 . S
Zn75 O74 2.035 . S
Zn75 O76 2.028 . S
Zn75 O78 2.028 . S
Zn75 O81 2.035 . S
O76 Zn75 2.028 . S
O76 C82 1.247 . S
O77 Zn73 2.035 . S
O77 C82 1.258 . S
O78 C71 1.247 . S
O78 Zn75 2.028 . S
O79 C71 1.258 . S
O79 Zn73 2.035 . S
O80 Zn73 2.028 . S
O80 C83 1.247 . S
O81 Zn75 2.035 . S
O81 C83 1.258 . S
C82 O76 1.247 . S
C82 O77 1.258 . S
C83 O80 1.247 . S
C83 O81 1.258 . S
C84 O86 1.247 . S
C84 O88 1.258 . S
C85 O92 1.247 . S
C85 O93 1.258 . S
O86 C84 1.247 . S
O86 Zn87 2.028 . S
Zn87 O86 2.028 . S
Zn87 O91 2.035 . S
Zn87 O93 2.035 . S
Zn87 O94 2.028 . S
O88 C84 1.258 . S
O88 Zn89 2.035 . S
Zn89 O88 2.035 . S
Zn89 O90 2.028 . S
Zn89 O92 2.028 . S
Zn89 O95 2.035 . S
O90 Zn89 2.028 . S
O90 C96 1.247 . S
O91 Zn87 2.035 . S
O91 C96 1.258 . S
O92 C85 1.247 . S
O92 Zn89 2.028 . S
O93 C85 1.258 . S
O93 Zn87 2.035 . S
O94 Zn87 2.028 . S
O94 C97 1.247 . S
O95 Zn89 2.035 . S
O95 C97 1.258 . S
C96 O90 1.247 . S
C96 O91 1.258 . S
C97 O94 1.247 . S
C97 O95 1.258 . S
C98 O100 1.247 . S
C98 O102 1.258 1_565 S
C99 O106 1.247 . S
C99 O107 1.258 1_545 S
O100 C98 1.247 . S
O100 Zn101 2.028 . S
Zn101 O100 2.028 . S
Zn101 O105 2.035 . S
Zn101 O107 2.035 . S
Zn101 O108 2.028 . S
O102 C98 1.258 1_545 S
O102 Zn103 2.035 . S
Zn103 O102 2.035 . S
Zn103 O104 2.028 . S
Zn103 O106 2.028 . S
Zn103 O109 2.035 1_545 S
O104 Zn103 2.028 . S
O104 C110 1.247 . S
O105 Zn101 2.035 . S
O105 C110 1.258 1_565 S
O106 C99 1.247 . S
O106 Zn103 2.028 . S
O107 C99 1.258 1_565 S
O107 Zn101 2.035 . S
O108 Zn101 2.028 . S
O108 C111 1.247 . S
O109 Zn103 2.035 1_565 S
O109 C111 1.258 . S
C110 O104 1.247 . S
C110 O105 1.258 1_545 S
C111 O108 1.247 . S
C111 O109 1.258 . S
C112 O114 1.247 . S
C112 O116 1.258 . S
C113 O120 1.247 . S
C113 O121 1.258 . S
O114 C112 1.247 . S
O114 Zn115 2.028 . S
Zn115 O114 2.028 . S
Zn115 O119 2.035 . S
Zn115 O121 2.035 . S
Zn115 O122 2.028 . S
O116 C112 1.258 . S
O116 Zn117 2.035 . S
Zn117 O116 2.035 . S
Zn117 O118 2.028 . S
Zn117 O120 2.028 . S
Zn117 O123 2.035 . S
O118 Zn117 2.028 . S
O118 C124 1.247 . S
O119 Zn115 2.035 . S
O119 C124 1.258 . S
O120 C113 1.247 . S
O120 Zn117 2.028 . S
O121 C113 1.258 . S
O121 Zn115 2.035 . S
O122 Zn115 2.028 . S
O122 C125 1.247 . S
O123 Zn117 2.035 . S
O123 C125 1.258 . S
C124 O118 1.247 . S
C124 O119 1.258 . S
C125 O122 1.247 . S
C125 O123 1.258 . S
C126 O128 1.247 . S
C126 O130 1.258 . S
C127 O134 1.247 . S
C127 O135 1.258 . S
O128 C126 1.247 . S
O128 Zn129 2.028 . S
Zn129 O128 2.028 . S
Zn129 O133 2.035 . S
Zn129 O135 2.035 . S
Zn129 O136 2.028 . S
O130 C126 1.258 . S
O130 Zn131 2.035 . S
Zn131 O130 2.035 . S
Zn131 O132 2.028 . S
Zn131 O134 2.028 . S
Zn131 O137 2.035 . S
O132 Zn131 2.028 . S
O132 C138 1.247 . S
O133 Zn129 2.035 . S
O133 C138 1.258 . S
O134 C127 1.247 . S
O134 Zn131 2.028 . S
O135 C127 1.258 . S
O135 Zn129 2.035 . S
O136 Zn129 2.028 . S
O136 C139 1.247 . S
O137 Zn131 2.035 . S
O137 C139 1.258 . S
C138 O132 1.247 . S
C138 O133 1.258 . S
C139 O136 1.247 . S
C139 O137 1.258 . S
C140 O142 1.247 . S
C140 O144 1.258 . S
C141 O148 1.247 . S
C141 O149 1.258 . S
O142 C140 1.247 . S
O142 Zn143 2.028 . S
Zn143 O142 2.028 . S
Zn143 O147 2.035 . S
Zn143 O149 2.035 . S
Zn143 O150 2.028 . S
O144 C140 1.258 . S
O144 Zn145 2.035 . S
Zn145 O144 2.035 . S
Zn145 O146 2.028 . S
Zn145 O148 2.028 . S
Zn145 O151 2.035 . S
O146 Zn145 2.028 . S
O146 C152 1.247 . S
O147 Zn143 2.035 . S
O147 C152 1.258 . S
O148 C141 1.247 . S
O148 Zn145 2.028 . S
O149 C141 1.258 . S
O149 Zn143 2.035 . S
O150 Zn143 2.028 . S
O150 C153 1.247 . S
O151 Zn145 2.035 . S
O151 C153 1.258 . S
C152 O146 1.247 . S
C152 O147 1.258 . S
C153 O150 1.247 . S
C153 O151 1.258 . S
C154 O156 1.247 . S
C154 O158 1.258 . S
C155 O162 1.247 . S
C155 O163 1.258 . S
O156 C154 1.247 . S
O156 Zn157 2.028 . S
Zn157 O156 2.028 . S
Zn157 O161 2.035 . S
Zn157 O163 2.035 . S
Zn157 O164 2.028 . S
O158 C154 1.258 . S
O158 Zn159 2.035 . S
Zn159 O158 2.035 . S
Zn159 O160 2.028 . S
Zn159 O162 2.028 . S
Zn159 O165 2.035 . S
O160 Zn159 2.028 . S
O160 C166 1.247 . S
O161 Zn157 2.035 . S
O161 C166 1.258 . S
O162 C155 1.247 . S
O162 Zn159 2.028 . S
O163 C155 1.258 . S
O163 Zn157 2.035 . S
O164 Zn157 2.028 . S
O164 C167 1.247 . S
O165 Zn159 2.035 . S
O165 C167 1.258 . S
C166 O160 1.247 . S
C166 O161 1.258 . S
C167 O164 1.247 . S
C167 O165 1.258 . S
C168 O170 1.247 . S
C168 O172 1.258 . S
C169 O176 1.247 . S
C169 O177 1.258 . S
O170 C168 1.247 . S
O170 Zn171 2.028 . S
Zn171 O170 2.028 . S
Zn171 O175 2.035 . S
Zn171 O177 2.035 . S
Zn171 O178 2.028 . S
O172 C168 1.258 . S
O172 Zn173 2.035 . S
Zn173 O172 2.035 . S
Zn173 O174 2.028 . S
Zn173 O176 2.028 . S
Zn173 O179 2.035 . S
O174 Zn173 2.028 . S
O174 C180 1.247 . S
O175 Zn171 2.035 . S
O175 C180 1.258 . S
O176 C169 1.247 . S
O176 Zn173 2.028 . S
O177 C169 1.258 . S
O177 Zn171 2.035 . S
O178 Zn171 2.028 . S
O178 C181 1.247 . S
O179 Zn173 2.035 . S
O179 C181 1.258 . S
C180 O174 1.247 . S
C180 O175 1.258 . S
C181 O178 1.247 . S
C181 O179 1.258 . S
C182 O184 1.247 . S
C182 O186 1.258 . S
C183 O190 1.247 . S
C183 O191 1.258 . S
O184 C182 1.247 . S
O184 Zn185 2.028 . S
Zn185 O184 2.028 . S
Zn185 O189 2.035 . S
Zn185 O191 2.035 . S
Zn185 O192 2.028 . S
O186 C182 1.258 . S
O186 Zn187 2.035 . S
Zn187 O186 2.035 . S
Zn187 O188 2.028 . S
Zn187 O190 2.028 . S
Zn187 O193 2.035 . S
O188 Zn187 2.028 . S
O188 C194 1.247 . S
O189 Zn185 2.035 . S
O189 C194 1.258 . S
O190 C183 1.247 . S
O190 Zn187 2.028 . S
O191 C183 1.258 . S
O191 Zn185 2.035 . S
O192 Zn185 2.028 . S
O192 C195 1.247 . S
O193 Zn187 2.035 . S
O193 C195 1.258 . S
C194 O188 1.247 . S
C194 O189 1.258 . S
C195 O192 1.247 . S
C195 O193 1.258 . S
C196 O198 1.247 . S
C196 O200 1.258 . S
C197 O204 1.247 . S
C197 O205 1.258 . S
O198 C196 1.247 . S
O198 Zn199 2.028 . S
Zn199 O198 2.028 . S
Zn199 O203 2.035 . S
Zn199 O205 2.035 . S
Zn199 O206 2.028 . S
O200 C196 1.258 . S
O200 Zn201 2.035 . S
Zn201 O200 2.035 . S
Zn201 O202 2.028 . S
Zn201 O204 2.028 . S
Zn201 O207 2.035 . S
O202 Zn201 2.028 . S
O202 C208 1.247 . S
O203 Zn199 2.035 . S
O203 C208 1.258 . S
O204 C197 1.247 . S
O204 Zn201 2.028 . S
O205 C197 1.258 . S
O205 Zn199 2.035 . S
O206 Zn199 2.028 . S
O206 C209 1.247 . S
O207 Zn201 2.035 . S
O207 C209 1.258 . S
C208 O202 1.247 . S
C208 O203 1.258 . S
C209 O206 1.247 . S
C209 O207 1.258 . S
C210 O212 1.247 . S
C210 O214 1.258 . S
C211 O218 1.247 . S
C211 O219 1.258 . S
O212 C210 1.247 . S
O212 Zn213 2.028 . S
Zn213 O212 2.028 . S
Zn213 O217 2.035 . S
Zn213 O219 2.035 . S
Zn213 O220 2.028 . S
O214 C210 1.258 . S
O214 Zn215 2.035 . S
Zn215 O214 2.035 . S
Zn215 O216 2.028 . S
Zn215 O218 2.028 . S
Zn215 O221 2.035 . S
O216 Zn215 2.028 . S
O216 C222 1.247 . S
O217 Zn213 2.035 . S
O217 C222 1.258 . S
O218 C211 1.247 . S
O218 Zn215 2.028 . S
O219 C211 1.258 . S
O219 Zn213 2.035 . S
O220 Zn213 2.028 . S
O220 C223 1.247 . S
O221 Zn215 2.035 . S
O221 C223 1.258 . S
C222 O216 1.247 . S
C222 O217 1.258 . S
C223 O220 1.247 . S
C223 O221 1.258 . S
C224 O226 1.247 1_545 S
C224 O228 1.258 1_455 S
C225 O232 1.249 1_565 S
C225 O233 1.255 1_655 S
O226 C224 1.247 1_565 S
O226 Zn227 2.028 . S
Zn227 O226 2.028 . S
Zn227 O231 2.035 1_455 S
Zn227 O233 2.035 . S
Zn227 O234 2.028 1_565 S
O228 C224 1.258 1_655 S
O228 Zn229 2.035 . S
Zn229 O228 2.035 . S
Zn229 O230 2.028 . S
Zn229 O232 2.028 . S
Zn229 O235 2.035 1_655 S
O230 Zn229 2.028 . S
O230 C236 1.247 1_545 S
O231 Zn227 2.035 1_655 S
O231 C236 1.258 . S
O232 C225 1.249 1_545 S
O232 Zn229 2.028 . S
O233 C225 1.255 1_455 S
O233 Zn227 2.035 . S
O234 Zn227 2.028 1_545 S
O234 C237 1.247 . S
O235 Zn229 2.035 1_455 S
O235 C237 1.258 . S
C236 O230 1.247 1_565 S
C236 O231 1.258 . S
C237 O234 1.247 . S
C237 O235 1.258 . S
C238 O240 1.247 . S
C238 O242 1.258 . S
C239 O246 1.247 . S
C239 O247 1.258 . S
O240 C238 1.247 . S
O240 Zn241 2.028 . S
Zn241 O240 2.028 . S
Zn241 O245 2.035 . S
Zn241 O247 2.035 . S
Zn241 O248 2.028 . S
O242 C238 1.258 . S
O242 Zn243 2.035 . S
Zn243 O242 2.035 . S
Zn243 O244 2.028 . S
Zn243 O246 2.028 . S
Zn243 O249 2.035 . S
O244 Zn243 2.028 . S
O244 C250 1.247 . S
O245 Zn241 2.035 . S
O245 C250 1.258 . S
O246 C239 1.247 . S
O246 Zn243 2.028 . S
O247 C239 1.258 . S
O247 Zn241 2.035 . S
O248 Zn241 2.028 . S
O248 C251 1.247 . S
O249 Zn243 2.035 . S
O249 C251 1.258 . S
C250 O244 1.247 . S
C250 O245 1.258 . S
C251 O248 1.247 . S
C251 O249 1.258 . S
C252 O254 1.247 . S
C252 O256 1.258 . S
C253 O260 1.247 . S
C253 O261 1.258 . S
O254 C252 1.247 . S
O254 Zn255 2.028 1_455 S
Zn255 O254 2.028 1_655 S
Zn255 O259 2.035 . S
Zn255 O261 2.035 . S
Zn255 O262 2.028 . S
O256 C252 1.258 . S
O256 Zn257 2.035 . S
Zn257 O256 2.035 . S
Zn257 O258 2.028 . S
Zn257 O260 2.028 1_455 S
Zn257 O263 2.035 . S
O258 Zn257 2.028 . S
O258 C264 1.245 1_455 S
O259 Zn255 2.035 . S
O259 C264 1.260 . S
O260 C253 1.247 . S
O260 Zn257 2.028 1_655 S
O261 C253 1.258 . S
O261 Zn255 2.035 . S
O262 Zn255 2.028 . S
O262 C265 1.248 1_655 S
O263 Zn257 2.035 . S
O263 C265 1.257 . S
C264 O258 1.245 1_655 S
C264 O259 1.260 . S
C265 O262 1.248 1_455 S
C265 O263 1.257 . S
C266 O268 1.247 . S
C266 O270 1.246 1_545 S
C267 O274 1.247 . S
C267 O275 1.258 1_565 S
O268 C266 1.247 . S
O268 Zn269 2.028 . S
Zn269 O268 2.028 . S
Zn269 O273 2.035 . S
Zn269 O275 2.035 . S
Zn269 O276 2.028 . S
O270 C266 1.246 1_565 S
O270 Zn271 2.042 . S
Zn271 O270 2.042 . S
Zn271 O272 2.028 . S
Zn271 O274 2.028 . S
Zn271 O277 2.035 . S
O272 Zn271 2.028 . S
O272 C278 1.247 . S
O273 Zn269 2.035 . S
O273 C278 1.258 1_545 S
O274 C267 1.247 . S
O274 Zn271 2.028 . S
O275 C267 1.258 1_545 S
O275 Zn269 2.035 . S
O276 Zn269 2.028 . S
O276 C279 1.247 . S
O277 Zn271 2.035 . S
O277 C279 1.258 1_565 S
C278 O272 1.247 . S
C278 O273 1.258 1_565 S
C279 O276 1.247 . S
C279 O277 1.258 1_545 S
C280 O282 1.248 1_655 S
C280 O284 1.257 1_565 S
C281 O288 1.245 1_455 S
C281 O289 1.259 1_545 S
O282 C280 1.248 1_455 S
O282 Zn283 2.028 . S
Zn283 O282 2.028 . S
Zn283 O287 2.035 . S
Zn283 O289 2.035 . S
Zn283 O290 2.028 1_455 S
O284 C280 1.257 1_545 S
O284 Zn285 2.035 . S
Zn285 O284 2.035 . S
Zn285 O286 2.028 1_655 S
Zn285 O288 2.028 . S
Zn285 O291 2.035 1_545 S
O286 Zn285 2.028 1_455 S
O286 C292 1.247 . S
O287 Zn283 2.035 . S
O287 C292 1.258 1_565 S
O288 C281 1.245 1_655 S
O288 Zn285 2.028 . S
O289 C281 1.259 1_565 S
O289 Zn283 2.035 . S
O290 Zn283 2.028 1_655 S
O290 C293 1.247 . S
O291 Zn285 2.035 1_565 S
O291 C293 1.258 . S
C292 O286 1.247 . S
C292 O287 1.258 1_545 S
C293 O290 1.247 . S
C293 O291 1.258 . S
C294 O296 1.247 . S
C294 O298 1.258 . S
C295 O302 1.247 . S
C295 O303 1.258 . S
O296 C294 1.247 . S
O296 Zn297 2.028 . S
Zn297 O296 2.028 . S
Zn297 O301 2.035 . S
Zn297 O303 2.035 . S
Zn297 O304 2.028 . S
O298 C294 1.258 . S
O298 Zn299 2.035 . S
Zn299 O298 2.035 . S
Zn299 O300 2.028 . S
Zn299 O302 2.028 . S
Zn299 O305 2.035 . S
O300 Zn299 2.028 . S
O300 C306 1.247 . S
O301 Zn297 2.035 . S
O301 C306 1.258 . S
O302 C295 1.247 . S
O302 Zn299 2.028 . S
O303 C295 1.258 . S
O303 Zn297 2.035 . S
O304 Zn297 2.028 . S
O304 C307 1.247 . S
O305 Zn299 2.035 . S
O305 C307 1.258 . S
C306 O300 1.247 . S
C306 O301 1.258 . S
C307 O304 1.247 . S
C307 O305 1.258 . S
C308 O310 1.247 . S
C308 O312 1.258 . S
C309 O316 1.247 . S
C309 O317 1.258 . S
O310 C308 1.247 . S
O310 Zn311 2.028 . S
Zn311 O310 2.028 . S
Zn311 O315 2.035 . S
Zn311 O317 2.035 1_655 S
Zn311 O318 2.028 . S
O312 C308 1.258 . S
O312 Zn313 2.035 1_655 S
Zn313 O312 2.035 1_455 S
Zn313 O314 2.028 . S
Zn313 O316 2.028 . S
Zn313 O319 2.035 . S
O314 Zn313 2.028 . S
O314 C320 1.249 . S
O315 Zn311 2.035 . S
O315 C320 1.255 1_655 S
O316 C309 1.247 . S
O316 Zn313 2.028 . S
O317 C309 1.258 . S
O317 Zn311 2.035 1_455 S
O318 Zn311 2.028 . S
O318 C321 1.247 . S
O319 Zn313 2.035 . S
O319 C321 1.258 1_455 S
C320 O314 1.249 . S
C320 O315 1.255 1_455 S
C321 O318 1.247 . S
C321 O319 1.258 1_655 S
C322 O324 1.247 . S
C322 O326 1.258 1_545 S
C323 O330 1.247 . S
C323 O331 1.246 1_565 S
O324 C322 1.247 . S
O324 Zn325 2.028 . S
Zn325 O324 2.028 . S
Zn325 O329 2.035 . S
Zn325 O331 2.042 . S
Zn325 O332 2.028 . S
O326 C322 1.258 1_565 S
O326 Zn327 2.035 . S
Zn327 O326 2.035 . S
Zn327 O328 2.028 . S
Zn327 O330 2.028 . S
Zn327 O333 2.035 . S
O328 Zn327 2.028 . S
O328 C334 1.247 . S
O329 Zn325 2.035 . S
O329 C334 1.258 1_545 S
O330 C323 1.247 . S
O330 Zn327 2.028 . S
O331 C323 1.246 1_545 S
O331 Zn325 2.042 . S
O332 Zn325 2.028 . S
O332 C335 1.247 . S
O333 Zn327 2.035 . S
O333 C335 1.258 1_565 S
C334 O328 1.247 . S
C334 O329 1.258 1_565 S
C335 O332 1.247 . S
C335 O333 1.258 1_545 S
C336 O338 1.247 . S
C336 O340 1.258 . S
C337 O344 1.247 . S
C337 O345 1.258 . S
O338 C336 1.247 . S
O338 Zn339 2.028 . S
Zn339 O338 2.028 . S
Zn339 O343 2.035 . S
Zn339 O345 2.035 1_655 S
Zn339 O346 2.028 . S
O340 C336 1.258 . S
O340 Zn341 2.035 1_655 S
Zn341 O340 2.035 1_455 S
Zn341 O342 2.028 . S
Zn341 O344 2.028 . S
Zn341 O347 2.035 . S
O342 Zn341 2.028 . S
O342 C348 1.247 . S
O343 Zn339 2.035 . S
O343 C348 1.258 1_655 S
O344 C337 1.247 . S
O344 Zn341 2.028 . S
O345 C337 1.258 . S
O345 Zn339 2.035 1_455 S
O346 Zn339 2.028 . S
O346 C349 1.249 . S
O347 Zn341 2.035 . S
O347 C349 1.255 1_455 S
C348 O342 1.247 . S
C348 O343 1.258 1_455 S
C349 O346 1.249 . S
C349 O347 1.255 1_655 S
C350 O352 1.247 . S
C350 O354 1.258 . S
C351 O358 1.247 . S
C351 O359 1.258 . S
O352 C350 1.247 . S
O352 Zn353 2.028 . S
Zn353 O352 2.028 . S
Zn353 O357 2.035 . S
Zn353 O359 2.035 . S
Zn353 O360 2.028 . S
O354 C350 1.258 . S
O354 Zn355 2.035 . S
Zn355 O354 2.035 . S
Zn355 O356 2.028 . S
Zn355 O358 2.028 . S
Zn355 O361 2.035 . S
O356 Zn355 2.028 . S
O356 C362 1.247 . S
O357 Zn353 2.035 . S
O357 C362 1.258 . S
O358 C351 1.247 . S
O358 Zn355 2.028 . S
O359 C351 1.258 . S
O359 Zn353 2.035 . S
O360 Zn353 2.028 . S
O360 C363 1.247 . S
O361 Zn355 2.035 . S
O361 C363 1.258 . S
C362 O356 1.247 . S
C362 O357 1.258 . S
C363 O360 1.247 . S
C363 O361 1.258 . S
C364 O366 1.247 . S
C364 O368 1.258 . S
C365 O372 1.247 . S
C365 O373 1.258 . S
O366 C364 1.247 . S
O366 Zn367 2.028 1_455 S
Zn367 O366 2.028 1_655 S
Zn367 O371 2.035 . S
Zn367 O373 2.035 . S
Zn367 O374 2.028 . S
O368 C364 1.258 . S
O368 Zn369 2.035 . S
Zn369 O368 2.035 . S
Zn369 O370 2.028 . S
Zn369 O372 2.028 1_455 S
Zn369 O375 2.035 . S
O370 Zn369 2.028 . S
O370 C376 1.245 1_455 S
O371 Zn367 2.035 . S
O371 C376 1.259 . S
O372 C365 1.247 . S
O372 Zn369 2.028 1_655 S
O373 C365 1.258 . S
O373 Zn367 2.035 . S
O374 Zn367 2.028 . S
O374 C377 1.248 1_655 S
O375 Zn369 2.035 . S
O375 C377 1.257 . S
C376 O370 1.245 1_655 S
C376 O371 1.259 . S
C377 O374 1.248 1_455 S
C377 O375 1.257 . S
C378 O380 1.247 . S
C378 O382 1.258 . S
C379 O386 1.247 . S
C379 O387 1.258 . S
O380 C378 1.247 . S
O380 Zn381 2.028 . S
Zn381 O380 2.028 . S
Zn381 O385 2.035 . S
Zn381 O387 2.035 . S
Zn381 O388 2.028 . S
O382 C378 1.258 . S
O382 Zn383 2.035 . S
Zn383 O382 2.035 . S
Zn383 O384 2.028 . S
Zn383 O386 2.028 . S
Zn383 O389 2.035 . S
O384 Zn383 2.028 . S
O384 C390 1.247 . S
O385 Zn381 2.035 . S
O385 C390 1.258 . S
O386 C379 1.247 . S
O386 Zn383 2.028 . S
O387 C379 1.258 . S
O387 Zn381 2.035 . S
O388 Zn381 2.028 . S
O388 C391 1.247 . S
O389 Zn383 2.035 . S
O389 C391 1.258 . S
C390 O384 1.247 . S
C390 O385 1.258 . S
C391 O388 1.247 . S
C391 O389 1.258 . S
C392 O394 1.248 1_655 S
C392 O396 1.257 . S
C393 O400 1.245 1_455 S
C393 O401 1.259 . S
O394 C392 1.248 1_455 S
O394 Zn395 2.028 . S
Zn395 O394 2.028 . S
Zn395 O399 2.035 . S
Zn395 O401 2.035 . S
Zn395 O402 2.028 1_455 S
O396 C392 1.257 . S
O396 Zn397 2.035 . S
Zn397 O396 2.035 . S
Zn397 O398 2.028 1_655 S
Zn397 O400 2.028 . S
Zn397 O403 2.035 . S
O398 Zn397 2.028 1_455 S
O398 C404 1.247 . S
O399 Zn395 2.035 . S
O399 C404 1.258 . S
O400 C393 1.245 1_655 S
O400 Zn397 2.028 . S
O401 C393 1.259 . S
O401 Zn395 2.035 . S
O402 Zn395 2.028 1_655 S
O402 C405 1.247 . S
O403 Zn397 2.035 . S
O403 C405 1.258 . S
C404 O398 1.247 . S
C404 O399 1.258 . S
C405 O402 1.247 . S
C405 O403 1.258 . S
C406 O408 1.247 . S
C406 O410 1.258 . S
C407 O414 1.247 . S
C407 O415 1.258 . S
O408 C406 1.247 . S
O408 Zn409 2.028 . S
Zn409 O408 2.028 . S
Zn409 O413 2.035 . S
Zn409 O415 2.035 . S
Zn409 O416 2.028 . S
O410 C406 1.258 . S
O410 Zn411 2.035 . S
Zn411 O410 2.035 . S
Zn411 O412 2.028 . S
Zn411 O414 2.028 . S
Zn411 O417 2.035 . S
O412 Zn411 2.028 . S
O412 C418 1.247 . S
O413 Zn409 2.035 . S
O413 C418 1.258 . S
O414 C407 1.247 . S
O414 Zn411 2.028 . S
O415 C407 1.258 . S
O415 Zn409 2.035 . S
O416 Zn409 2.028 . S
O416 C419 1.247 . S
O417 Zn411 2.035 . S
O417 C419 1.258 . S
C418 O412 1.247 . S
C418 O413 1.258 . S
C419 O416 1.247 . S
C419 O417 1.258 . S
C420 O422 1.247 . S
C420 O424 1.258 . S
C421 O428 1.247 . S
C421 O429 1.258 . S
O422 C420 1.247 . S
O422 Zn423 2.028 1_455 S
Zn423 O422 2.028 1_655 S
Zn423 O427 2.035 . S
Zn423 O429 2.035 . S
Zn423 O430 2.028 . S
O424 C420 1.258 . S
O424 Zn425 2.035 . S
Zn425 O424 2.035 . S
Zn425 O426 2.028 . S
Zn425 O428 2.028 1_455 S
Zn425 O431 2.035 . S
O426 Zn425 2.028 . S
O426 C432 1.248 1_455 S
O427 Zn423 2.035 . S
O427 C432 1.257 . S
O428 C421 1.247 . S
O428 Zn425 2.028 1_655 S
O429 C421 1.258 . S
O429 Zn423 2.035 . S
O430 Zn423 2.028 . S
O430 C433 1.245 1_655 S
O431 Zn425 2.035 . S
O431 C433 1.259 . S
C432 O426 1.248 1_655 S
C432 O427 1.257 . S
C433 O430 1.245 1_455 S
C433 O431 1.259 . S
C434 O436 1.247 . S
C434 O438 1.258 . S
C435 O442 1.247 . S
C435 O443 1.258 . S
O436 C434 1.247 . S
O436 Zn437 2.028 . S
Zn437 O436 2.028 . S
Zn437 O441 2.035 . S
Zn437 O443 2.035 . S
Zn437 O444 2.028 . S
O438 C434 1.258 . S
O438 Zn439 2.035 . S
Zn439 O438 2.035 . S
Zn439 O440 2.028 . S
Zn439 O442 2.028 . S
Zn439 O445 2.035 . S
O440 Zn439 2.028 . S
O440 C446 1.247 . S
O441 Zn437 2.035 . S
O441 C446 1.258 . S
O442 C435 1.247 . S
O442 Zn439 2.028 . S
O443 C435 1.258 . S
O443 Zn437 2.035 . S
O444 Zn437 2.028 . S
O444 C447 1.247 . S
O445 Zn439 2.035 . S
O445 C447 1.258 . S
C446 O440 1.247 . S
C446 O441 1.258 . S
C447 O444 1.247 . S
C447 O445 1.258 . S
C448 C449 1.369 . S
C448 C450 1.419 . S
C448 H452 0.930 1_545 S
C449 C448 1.369 . S
C449 C458 1.429 . S
C450 C448 1.419 . S
C450 C451 1.363 . S
C450 H453 0.929 . S
C451 C450 1.363 . S
C451 C457 1.428 . S
H452 C448 0.930 1_565 S
H453 C450 0.929 . S
S454 N455 1.613 . S
S454 N456 1.610 . S
N455 S454 1.613 . S
N455 C458 1.350 . S
N456 S454 1.610 . S
N456 C457 1.351 . S
C457 C451 1.428 . S
C457 N456 1.351 . S
C457 C458 1.434 . S
C458 C449 1.429 . S
C458 N455 1.350 . S
C458 C457 1.434 . S
C459 C460 1.369 . S
C459 C461 1.419 . S
C459 H463 0.930 . S
C460 C459 1.369 . S
C460 C469 1.429 . S
C461 C459 1.419 . S
C461 C462 1.363 . S
C461 H464 0.929 . S
C462 C461 1.363 . S
C462 C468 1.428 . S
H463 C459 0.930 . S
H464 C461 0.929 . S
S465 N466 1.613 . S
S465 N467 1.610 . S
N466 S465 1.613 . S
N466 C469 1.350 . S
N467 S465 1.610 . S
N467 C468 1.351 . S
C468 C462 1.428 . S
C468 N467 1.351 . S
C468 C469 1.434 . S
C469 C460 1.429 . S
C469 N466 1.350 . S
C469 C468 1.434 . S
C470 C471 1.369 . S
C470 C472 1.419 . S
C470 H474 0.930 . S
C471 C470 1.369 . S
C471 C480 1.429 . S
C472 C470 1.419 . S
C472 C473 1.363 . S
C472 H475 0.929 . S
C473 C472 1.363 . S
C473 C479 1.428 . S
H474 C470 0.930 . S
H475 C472 0.929 . S
S476 N477 1.613 1_545 S
S476 N478 1.610 . S
N477 S476 1.613 1_565 S
N477 C480 1.350 . S
N478 S476 1.610 . S
N478 C479 1.351 1_545 S
C479 C473 1.428 . S
C479 N478 1.351 1_565 S
C479 C480 1.434 . S
C480 C471 1.429 . S
C480 N477 1.350 . S
C480 C479 1.434 . S
C481 C482 1.369 . S
C481 C483 1.419 . S
C481 H485 0.930 . S
C482 C481 1.369 . S
C482 C491 1.429 . S
C483 C481 1.419 . S
C483 C484 1.363 . S
C483 H486 0.929 . S
C484 C483 1.363 . S
C484 C490 1.428 . S
H485 C481 0.930 . S
H486 C483 0.929 . S
S487 N488 1.613 . S
S487 N489 1.610 . S
N488 S487 1.613 . S
N488 C491 1.350 . S
N489 S487 1.610 . S
N489 C490 1.351 . S
C490 C484 1.428 . S
C490 N489 1.351 . S
C490 C491 1.434 . S
C491 C482 1.429 . S
C491 N488 1.350 . S
C491 C490 1.434 . S
C492 C493 1.369 . S
C492 C494 1.419 . S
C492 H496 0.930 . S
C493 C492 1.369 . S
C493 C502 1.429 . S
C494 C492 1.419 . S
C494 C495 1.363 . S
C494 H497 0.929 . S
C495 C494 1.363 . S
C495 C501 1.428 . S
H496 C492 0.930 . S
H497 C494 0.929 . S
S498 N499 1.613 . S
S498 N500 1.610 . S
N499 S498 1.613 . S
N499 C502 1.350 . S
N500 S498 1.610 . S
N500 C501 1.351 . S
C501 C495 1.428 . S
C501 N500 1.351 . S
C501 C502 1.434 . S
C502 C493 1.429 . S
C502 N499 1.350 . S
C502 C501 1.434 . S
C503 C504 1.369 . S
C503 C505 1.419 . S
C503 H507 0.930 . S
C504 C503 1.369 . S
C504 C513 1.429 . S
C505 C503 1.419 . S
C505 C506 1.363 . S
C505 H508 0.929 . S
C506 C505 1.363 . S
C506 C512 1.428 . S
H507 C503 0.930 . S
H508 C505 0.929 . S
S509 N510 1.613 . S
S509 N511 1.610 . S
N510 S509 1.613 . S
N510 C513 1.350 . S
N511 S509 1.610 . S
N511 C512 1.351 . S
C512 C506 1.428 . S
C512 N511 1.351 . S
C512 C513 1.434 . S
C513 C504 1.429 . S
C513 N510 1.350 . S
C513 C512 1.434 . S
C514 C515 1.369 . S
C514 C516 1.419 . S
C514 H518 0.930 . S
C515 C514 1.369 . S
C515 C524 1.429 . S
C516 C514 1.419 . S
C516 C517 1.363 . S
C516 H519 0.929 . S
C517 C516 1.363 . S
C517 C523 1.428 . S
H518 C514 0.930 . S
H519 C516 0.929 . S
S520 N521 1.613 . S
S520 N522 1.610 . S
N521 S520 1.613 . S
N521 C524 1.350 . S
N522 S520 1.610 . S
N522 C523 1.351 . S
C523 C517 1.428 . S
C523 N522 1.351 . S
C523 C524 1.434 . S
C524 C515 1.429 . S
C524 N521 1.350 . S
C524 C523 1.434 . S
C525 C526 1.369 . S
C525 C527 1.419 . S
C525 H529 0.930 . S
C526 C525 1.369 . S
C526 C535 1.429 . S
C527 C525 1.419 . S
C527 C528 1.363 . S
C527 H530 0.929 . S
C528 C527 1.363 . S
C528 C534 1.428 . S
H529 C525 0.930 . S
H530 C527 0.929 . S
S531 N532 1.613 . S
S531 N533 1.610 . S
N532 S531 1.613 . S
N532 C535 1.350 . S
N533 S531 1.610 . S
N533 C534 1.351 . S
C534 C528 1.428 . S
C534 N533 1.351 . S
C534 C535 1.434 . S
C535 C526 1.429 . S
C535 N532 1.350 . S
C535 C534 1.434 . S
C536 C537 1.369 1_655 S
C536 C538 1.418 . S
C536 H540 0.930 . S
C537 C536 1.369 1_455 S
C537 C546 1.429 . S
C538 C536 1.418 . S
C538 C539 1.362 1_655 S
C538 H541 0.930 . S
C539 C538 1.362 1_455 S
C539 C545 1.428 . S
H540 C536 0.930 . S
H541 C538 0.930 . S
S542 N543 1.613 . S
S542 N544 1.610 1_565 S
N543 S542 1.613 . S
N543 C546 1.350 1_565 S
N544 S542 1.610 1_545 S
N544 C545 1.351 . S
C545 C539 1.428 . S
C545 N544 1.351 . S
C545 C546 1.434 . S
C546 C537 1.429 . S
C546 N543 1.350 1_545 S
C546 C545 1.434 . S
C547 C548 1.369 . S
C547 C549 1.419 . S
C547 H551 0.930 . S
C548 C547 1.369 . S
C548 C557 1.429 . S
C549 C547 1.419 . S
C549 C550 1.363 . S
C549 H552 0.929 1_545 S
C550 C549 1.363 . S
C550 C556 1.428 . S
H551 C547 0.930 . S
H552 C549 0.929 1_565 S
S553 N554 1.613 . S
S553 N555 1.610 . S
N554 S553 1.613 . S
N554 C557 1.350 . S
N555 S553 1.610 . S
N555 C556 1.351 . S
C556 C550 1.428 . S
C556 N555 1.351 . S
C556 C557 1.434 . S
C557 C548 1.429 . S
C557 N554 1.350 . S
C557 C556 1.434 . S
C558 C559 1.369 . S
C558 C560 1.419 . S
C558 H562 0.930 . S
C559 C558 1.369 . S
C559 C568 1.429 1_655 S
C560 C558 1.419 . S
C560 C561 1.363 . S
C560 H563 0.929 . S
C561 C560 1.363 . S
C561 C567 1.428 1_655 S
H562 C558 0.930 . S
H563 C560 0.929 . S
S564 N565 1.613 . S
S564 N566 1.610 . S
N565 S564 1.613 . S
N565 C568 1.350 . S
N566 S564 1.610 . S
N566 C567 1.351 . S
C567 C561 1.428 1_455 S
C567 N566 1.351 . S
C567 C568 1.434 . S
C568 C559 1.429 1_455 S
C568 N565 1.350 . S
C568 C567 1.434 . S
C569 C570 1.369 . S
C569 C571 1.419 . S
C569 H573 0.930 . S
C570 C569 1.369 . S
C570 C579 1.429 . S
C571 C569 1.419 . S
C571 C572 1.363 . S
C571 H574 0.929 . S
C572 C571 1.363 . S
C572 C578 1.428 . S
H573 C569 0.930 . S
H574 C571 0.929 . S
S575 N576 1.613 1_545 S
S575 N577 1.610 . S
N576 S575 1.613 1_565 S
N576 C579 1.350 . S
N577 S575 1.610 . S
N577 C578 1.351 1_545 S
C578 C572 1.428 . S
C578 N577 1.351 1_565 S
C578 C579 1.434 . S
C579 C570 1.429 . S
C579 N576 1.350 . S
C579 C578 1.434 . S
C580 C581 1.369 . S
C580 C582 1.419 . S
C580 H584 0.930 . S
C581 C580 1.369 . S
C581 C590 1.429 1_455 S
C582 C580 1.419 . S
C582 C583 1.363 . S
C582 H585 0.929 . S
C583 C582 1.363 . S
C583 C589 1.428 1_455 S
H584 C580 0.930 . S
H585 C582 0.929 . S
S586 N587 1.613 . S
S586 N588 1.610 . S
N587 S586 1.613 . S
N587 C590 1.350 . S
N588 S586 1.610 . S
N588 C589 1.351 . S
C589 C583 1.428 1_655 S
C589 N588 1.351 . S
C589 C590 1.434 . S
C590 C581 1.429 1_655 S
C590 N587 1.350 . S
C590 C589 1.434 . S
C591 C592 1.369 . S
C591 C593 1.419 . S
C591 H595 0.930 . S
C592 C591 1.369 . S
C592 C601 1.429 . S
C593 C591 1.419 . S
C593 C594 1.363 . S
C593 H596 0.929 . S
C594 C593 1.363 . S
C594 C600 1.428 . S
H595 C591 0.930 . S
H596 C593 0.929 . S
S597 N598 1.613 . S
S597 N599 1.610 . S
N598 S597 1.613 . S
N598 C601 1.350 . S
N599 S597 1.610 . S
N599 C600 1.351 . S
C600 C594 1.428 . S
C600 N599 1.351 . S
C600 C601 1.434 . S
C601 C592 1.429 . S
C601 N598 1.350 . S
C601 C600 1.434 . S
C602 C603 1.369 . S
C602 C604 1.419 . S
C602 H606 0.930 . S
C603 C602 1.369 . S
C603 C612 1.429 1_655 S
C604 C602 1.419 . S
C604 C605 1.363 . S
C604 H607 0.929 . S
C605 C604 1.363 . S
C605 C611 1.428 1_655 S
H606 C602 0.930 . S
H607 C604 0.929 . S
S608 N609 1.613 . S
S608 N610 1.610 . S
N609 S608 1.613 . S
N609 C612 1.350 . S
N610 S608 1.610 . S
N610 C611 1.351 . S
C611 C605 1.428 1_455 S
C611 N610 1.351 . S
C611 C612 1.434 . S
C612 C603 1.429 1_455 S
C612 N609 1.350 . S
C612 C611 1.434 . S
C613 C614 1.369 . S
C613 C615 1.419 . S
C613 H617 0.930 . S
C614 C613 1.369 . S
C614 C623 1.429 . S
C615 C613 1.419 . S
C615 C616 1.363 . S
C615 H618 0.929 . S
C616 C615 1.363 . S
C616 C622 1.428 . S
H617 C613 0.930 . S
H618 C615 0.929 . S
S619 N620 1.613 . S
S619 N621 1.610 . S
N620 S619 1.613 . S
N620 C623 1.350 . S
N621 S619 1.610 . S
N621 C622 1.351 . S
C622 C616 1.428 . S
C622 N621 1.351 . S
C622 C623 1.434 . S
C623 C614 1.429 . S
C623 N620 1.350 . S
C623 C622 1.434 . S
C624 C625 1.369 . S
C624 C626 1.419 . S
C624 H628 0.930 . S
C625 C624 1.369 . S
C625 C634 1.429 . S
C626 C624 1.419 . S
C626 C627 1.363 . S
C626 H629 0.929 1_565 S
C627 C626 1.363 . S
C627 C633 1.428 . S
H628 C624 0.930 . S
H629 C626 0.929 1_545 S
S630 N631 1.613 . S
S630 N632 1.610 . S
N631 S630 1.613 . S
N631 C634 1.350 . S
N632 S630 1.610 . S
N632 C633 1.351 . S
C633 C627 1.428 . S
C633 N632 1.351 . S
C633 C634 1.434 . S
C634 C625 1.429 . S
C634 N631 1.350 . S
C634 C633 1.434 . S
C635 C636 1.369 . S
C635 C637 1.419 . S
C635 H639 0.930 . S
C636 C635 1.369 . S
C636 C645 1.429 . S
C637 C635 1.419 . S
C637 C638 1.363 . S
C637 H640 0.929 . S
C638 C637 1.363 . S
C638 C644 1.428 . S
H639 C635 0.930 . S
H640 C637 0.929 . S
S641 N642 1.613 . S
S641 N643 1.610 . S
N642 S641 1.613 . S
N642 C645 1.350 . S
N643 S641 1.610 . S
N643 C644 1.351 . S
C644 C638 1.428 . S
C644 N643 1.351 . S
C644 C645 1.434 . S
C645 C636 1.429 . S
C645 N642 1.350 . S
C645 C644 1.434 . S
C646 C647 1.369 . S
C646 C648 1.419 . S
C646 H650 0.930 . S
C647 C646 1.369 . S
C647 C656 1.429 . S
C648 C646 1.419 . S
C648 C649 1.363 . S
C648 H651 0.929 . S
C649 C648 1.363 . S
C649 C655 1.428 . S
H650 C646 0.930 . S
H651 C648 0.929 . S
S652 N653 1.613 . S
S652 N654 1.610 . S
N653 S652 1.613 . S
N653 C656 1.350 . S
N654 S652 1.610 . S
N654 C655 1.351 . S
C655 C649 1.428 . S
C655 N654 1.351 . S
C655 C656 1.434 . S
C656 C647 1.429 . S
C656 N653 1.350 . S
C656 C655 1.434 . S
C657 C658 1.369 . S
C657 C659 1.419 . S
C657 H661 0.930 . S
C658 C657 1.369 . S
C658 C667 1.429 . S
C659 C657 1.419 . S
C659 C660 1.363 . S
C659 H662 0.929 . S
C660 C659 1.363 . S
C660 C666 1.428 . S
H661 C657 0.930 . S
H662 C659 0.929 . S
S663 N664 1.613 . S
S663 N665 1.610 1_545 S
N664 S663 1.613 . S
N664 C667 1.350 1_545 S
N665 S663 1.610 1_565 S
N665 C666 1.351 . S
C666 C660 1.428 . S
C666 N665 1.351 . S
C666 C667 1.434 . S
C667 C658 1.429 . S
C667 N664 1.350 1_565 S
C667 C666 1.434 . S
C668 C669 1.369 . S
C668 C670 1.419 . S
C668 H672 0.930 . S
C669 C668 1.369 . S
C669 C678 1.429 . S
C670 C668 1.419 . S
C670 C671 1.363 . S
C670 H673 0.929 . S
C671 C670 1.363 . S
C671 C677 1.428 . S
H672 C668 0.930 . S
H673 C670 0.929 . S
S674 N675 1.613 1_565 S
S674 N676 1.610 . S
N675 S674 1.613 1_545 S
N675 C678 1.350 . S
N676 S674 1.610 . S
N676 C677 1.351 1_565 S
C677 C671 1.428 . S
C677 N676 1.351 1_545 S
C677 C678 1.434 . S
C678 C669 1.429 . S
C678 N675 1.350 . S
C678 C677 1.434 . S
C679 C680 1.369 . S
C679 C681 1.419 . S
C679 H683 0.930 . S
C680 C679 1.369 . S
C680 C689 1.429 . S
C681 C679 1.419 . S
C681 C682 1.363 . S
C681 H684 0.929 . S
C682 C681 1.363 . S
C682 C688 1.428 . S
H683 C679 0.930 . S
H684 C681 0.929 . S
S685 N686 1.613 . S
S685 N687 1.610 . S
N686 S685 1.613 . S
N686 C689 1.350 . S
N687 S685 1.610 . S
N687 C688 1.351 . S
C688 C682 1.428 . S
C688 N687 1.351 . S
C688 C689 1.434 . S
C689 C680 1.429 . S
C689 N686 1.350 . S
C689 C688 1.434 . S
C690 C691 1.369 . S
C690 C692 1.419 . S
C690 H694 0.930 . S
C691 C690 1.369 . S
C691 C700 1.429 . S
C692 C690 1.419 . S
C692 C693 1.363 . S
C692 H695 0.929 . S
C693 C692 1.363 . S
C693 C699 1.428 . S
H694 C690 0.930 . S
H695 C692 0.929 . S
S696 N697 1.613 . S
S696 N698 1.610 . S
N697 S696 1.613 . S
N697 C700 1.350 . S
N698 S696 1.610 . S
N698 C699 1.351 . S
C699 C693 1.428 . S
C699 N698 1.351 . S
C699 C700 1.434 . S
C700 C691 1.429 . S
C700 N697 1.350 . S
C700 C699 1.434 . S
C701 C702 1.369 . S
C701 C703 1.419 . S
C701 H705 0.930 . S
C702 C701 1.369 . S
C702 C711 1.429 . S
C703 C701 1.419 . S
C703 C704 1.363 . S
C703 H706 0.929 . S
C704 C703 1.363 . S
C704 C710 1.428 . S
H705 C701 0.930 . S
H706 C703 0.929 . S
S707 N708 1.613 . S
S707 N709 1.610 . S
N708 S707 1.613 . S
N708 C711 1.350 . S
N709 S707 1.610 . S
N709 C710 1.351 . S
C710 C704 1.428 . S
C710 N709 1.351 . S
C710 C711 1.434 . S
C711 C702 1.429 . S
C711 N708 1.350 . S
C711 C710 1.434 . S
C712 C713 1.369 . S
C712 C714 1.419 . S
C712 H716 0.930 . S
C713 C712 1.369 . S
C713 C722 1.429 . S
C714 C712 1.419 . S
C714 C715 1.363 . S
C714 H717 0.929 . S
C715 C714 1.363 . S
C715 C721 1.428 . S
H716 C712 0.930 . S
H717 C714 0.929 . S
S718 N719 1.613 . S
S718 N720 1.610 . S
N719 S718 1.613 . S
N719 C722 1.350 . S
N720 S718 1.610 . S
N720 C721 1.351 . S
C721 C715 1.428 . S
C721 N720 1.351 . S
C721 C722 1.434 . S
C722 C713 1.429 . S
C722 N719 1.350 . S
C722 C721 1.434 . S
C723 C724 1.369 . S
C723 C725 1.419 . S
C723 H727 0.930 . S
C724 C723 1.369 . S
C724 C733 1.429 . S
C725 C723 1.419 . S
C725 C726 1.363 . S
C725 H728 0.929 . S
C726 C725 1.363 . S
C726 C732 1.428 . S
H727 C723 0.930 . S
H728 C725 0.929 . S
S729 N730 1.613 . S
S729 N731 1.610 . S
N730 S729 1.613 . S
N730 C733 1.350 . S
N731 S729 1.610 . S
N731 C732 1.351 . S
C732 C726 1.428 . S
C732 N731 1.351 . S
C732 C733 1.434 . S
C733 C724 1.429 . S
C733 N730 1.350 . S
C733 C732 1.434 . S
C734 C735 1.369 . S
C734 C736 1.419 . S
C734 H738 0.930 . S
C735 C734 1.369 . S
C735 C744 1.429 . S
C736 C734 1.419 . S
C736 C737 1.363 . S
C736 H739 0.929 . S
C737 C736 1.363 . S
C737 C743 1.428 . S
H738 C734 0.930 . S
H739 C736 0.929 . S
S740 N741 1.613 1_545 S
S740 N742 1.610 . S
N741 S740 1.613 1_565 S
N741 C744 1.350 . S
N742 S740 1.610 . S
N742 C743 1.351 1_545 S
C743 C737 1.428 . S
C743 N742 1.351 1_565 S
C743 C744 1.434 . S
C744 C735 1.429 . S
C744 N741 1.350 . S
C744 C743 1.434 . S
C745 C746 1.369 . S
C745 C747 1.419 . S
C745 H749 0.930 . S
C746 C745 1.369 . S
C746 C755 1.429 . S
C747 C745 1.419 . S
C747 C748 1.363 . S
C747 H750 0.929 . S
C748 C747 1.363 . S
C748 C754 1.428 . S
H749 C745 0.930 . S
H750 C747 0.929 . S
S751 N752 1.613 . S
S751 N753 1.610 . S
N752 S751 1.613 . S
N752 C755 1.350 . S
N753 S751 1.610 . S
N753 C754 1.351 . S
C754 C748 1.428 . S
C754 N753 1.351 . S
C754 C755 1.434 . S
C755 C746 1.429 . S
C755 N752 1.350 . S
C755 C754 1.434 . S
C756 C757 1.369 . S
C756 C758 1.419 . S
C756 H760 0.930 . S
C757 C756 1.369 . S
C757 C766 1.429 . S
C758 C756 1.419 . S
C758 C759 1.363 . S
C758 H761 0.929 . S
C759 C758 1.363 . S
C759 C765 1.428 . S
H760 C756 0.930 . S
H761 C758 0.929 . S
S762 N763 1.613 . S
S762 N764 1.610 . S
N763 S762 1.613 . S
N763 C766 1.350 . S
N764 S762 1.610 . S
N764 C765 1.351 . S
C765 C759 1.428 . S
C765 N764 1.351 . S
C765 C766 1.434 . S
C766 C757 1.429 . S
C766 N763 1.350 . S
C766 C765 1.434 . S
C767 C768 1.369 . S
C767 C769 1.419 . S
C767 H771 0.930 . S
C768 C767 1.369 . S
C768 C777 1.429 . S
C769 C767 1.419 . S
C769 C770 1.363 . S
C769 H772 0.929 . S
C770 C769 1.363 . S
C770 C776 1.428 . S
H771 C767 0.930 . S
H772 C769 0.929 . S
S773 N774 1.613 . S
S773 N775 1.610 1_565 S
N774 S773 1.613 . S
N774 C777 1.350 1_565 S
N775 S773 1.610 1_545 S
N775 C776 1.351 . S
C776 C770 1.428 . S
C776 N775 1.351 . S
C776 C777 1.434 . S
C777 C768 1.429 . S
C777 N774 1.350 1_545 S
C777 C776 1.434 . S
C778 C779 1.369 . S
C778 C780 1.419 . S
C778 H782 0.930 . S
C779 C778 1.369 . S
C779 C788 1.429 . S
C780 C778 1.419 . S
C780 C781 1.363 . S
C780 H783 0.929 . S
C781 C780 1.363 . S
C781 C787 1.428 . S
H782 C778 0.930 . S
H783 C780 0.929 . S
S784 N785 1.613 . S
S784 N786 1.610 . S
N785 S784 1.613 . S
N785 C788 1.350 . S
N786 S784 1.610 . S
N786 C787 1.351 . S
C787 C781 1.428 . S
C787 N786 1.351 . S
C787 C788 1.434 . S
C788 C779 1.429 . S
C788 N785 1.350 . S
C788 C787 1.434 . S
C789 C790 1.369 . S
C789 C791 1.419 . S
C789 H793 0.930 . S
C790 C789 1.369 . S
C790 C799 1.429 . S
C791 C789 1.419 . S
C791 C792 1.363 . S
C791 H794 0.929 . S
C792 C791 1.363 . S
C792 C798 1.428 . S
H793 C789 0.930 . S
H794 C791 0.929 . S
S795 N796 1.613 . S
S795 N797 1.610 . S
N796 S795 1.613 . S
N796 C799 1.350 . S
N797 S795 1.610 . S
N797 C798 1.351 . S
C798 C792 1.428 . S
C798 N797 1.351 . S
C798 C799 1.434 . S
C799 C790 1.429 . S
C799 N796 1.350 . S
C799 C798 1.434 . S
C800 C801 1.369 1_545 S
C800 C802 1.419 1_554 S
C800 H804 0.930 . S
C801 C800 1.369 1_565 S
C801 C810 1.429 . S
C802 C800 1.419 1_556 S
C802 C803 1.363 . S
C802 H805 0.929 . S
C803 C802 1.363 . S
C803 C809 1.428 1_545 S
H804 C800 0.930 . S
H805 C802 0.929 . S
S806 N807 1.613 1_556 S
S806 N808 1.610 . S
N807 S806 1.613 1_554 S
N807 C810 1.350 . S
N808 S806 1.610 . S
N808 C809 1.351 . S
C809 C803 1.428 1_565 S
C809 N808 1.351 . S
C809 C810 1.434 1_556 S
C810 C801 1.429 . S
C810 N807 1.350 . S
C810 C809 1.434 1_554 S
C811 C812 1.369 . S
C811 C813 1.419 1_554 S
C811 H815 0.930 . S
C812 C811 1.369 . S
C812 C821 1.429 . S
C813 C811 1.419 1_556 S
C813 C814 1.363 . S
C813 H816 0.929 . S
C814 C813 1.363 . S
C814 C820 1.428 . S
H815 C811 0.930 . S
H816 C813 0.929 . S
S817 N818 1.613 1_556 S
S817 N819 1.610 . S
N818 S817 1.613 1_554 S
N818 C821 1.350 . S
N819 S817 1.610 . S
N819 C820 1.351 . S
C820 C814 1.428 . S
C820 N819 1.351 . S
C820 C821 1.434 1_556 S
C821 C812 1.429 . S
C821 N818 1.350 . S
C821 C820 1.434 1_554 S
C822 C823 1.369 . S
C822 C824 1.419 . S
C822 H826 0.930 . S
C823 C822 1.369 . S
C823 C832 1.429 . S
C824 C822 1.419 . S
C824 C825 1.363 . S
C824 H827 0.929 . S
C825 C824 1.363 . S
C825 C831 1.428 . S
H826 C822 0.930 . S
H827 C824 0.929 . S
S828 N829 1.613 . S
S828 N830 1.610 . S
N829 S828 1.613 . S
N829 C832 1.350 . S
N830 S828 1.610 . S
N830 C831 1.351 . S
C831 C825 1.428 . S
C831 N830 1.351 . S
C831 C832 1.434 . S
C832 C823 1.429 . S
C832 N829 1.350 . S
C832 C831 1.434 . S
C833 C834 1.369 . S
C833 C835 1.419 . S
C833 H837 0.930 . S
C834 C833 1.369 . S
C834 C843 1.429 1_565 S
C835 C833 1.419 . S
C835 C836 1.363 1_565 S
C835 H838 0.929 . S
C836 C835 1.363 1_545 S
C836 C842 1.428 . S
H837 C833 0.930 . S
H838 C835 0.929 . S
S839 N840 1.613 . S
S839 N841 1.610 . S
N840 S839 1.613 . S
N840 C843 1.350 . S
N841 S839 1.610 . S
N841 C842 1.351 . S
C842 C836 1.428 . S
C842 N841 1.351 . S
C842 C843 1.434 . S
C843 C834 1.429 1_545 S
C843 N840 1.350 . S
C843 C842 1.434 . S
C844 C845 1.369 . S
C844 C846 1.419 1_556 S
C844 H848 0.930 . S
C845 C844 1.369 . S
C845 C854 1.429 . S
C846 C844 1.419 1_554 S
C846 C847 1.363 . S
C846 H849 0.929 . S
C847 C846 1.363 . S
C847 C853 1.428 . S
H848 C844 0.930 . S
H849 C846 0.929 . S
S850 N851 1.613 . S
S850 N852 1.610 1_556 S
N851 S850 1.613 . S
N851 C854 1.350 . S
N852 S850 1.610 1_554 S
N852 C853 1.351 . S
C853 C847 1.428 . S
C853 N852 1.351 . S
C853 C854 1.434 1_554 S
C854 C845 1.429 . S
C854 N851 1.350 . S
C854 C853 1.434 1_556 S
C855 C856 1.369 . S
C855 C857 1.419 . S
C855 H859 0.930 . S
C856 C855 1.369 . S
C856 C865 1.429 . S
C857 C855 1.419 . S
C857 C858 1.363 . S
C857 H860 0.929 . S
C858 C857 1.363 . S
C858 C864 1.428 . S
H859 C855 0.930 . S
H860 C857 0.929 . S
S861 N862 1.613 . S
S861 N863 1.610 . S
N862 S861 1.613 . S
N862 C865 1.350 . S
N863 S861 1.610 . S
N863 C864 1.351 . S
C864 C858 1.428 . S
C864 N863 1.351 . S
C864 C865 1.434 . S
C865 C856 1.429 . S
C865 N862 1.350 . S
C865 C864 1.434 . S
C866 C867 1.369 . S
C866 C868 1.419 . S
C866 H870 0.930 . S
C867 C866 1.369 . S
C867 C876 1.429 1_565 S
C868 C866 1.419 . S
C868 C869 1.363 1_565 S
C868 H871 0.929 . S
C869 C868 1.363 1_545 S
C869 C875 1.428 . S
H870 C866 0.930 . S
H871 C868 0.929 . S
S872 N873 1.613 . S
S872 N874 1.610 . S
N873 S872 1.613 . S
N873 C876 1.350 . S
N874 S872 1.610 . S
N874 C875 1.351 . S
C875 C869 1.428 . S
C875 N874 1.351 . S
C875 C876 1.434 . S
C876 C867 1.429 1_545 S
C876 N873 1.350 . S
C876 C875 1.434 . S
C877 C878 1.369 . S
C877 C879 1.419 . S
C877 H881 0.930 . S
C878 C877 1.369 . S
C878 C887 1.429 . S
C879 C877 1.419 . S
C879 C880 1.363 . S
C879 H882 0.929 . S
C880 C879 1.363 . S
C880 C886 1.428 . S
H881 C877 0.930 . S
H882 C879 0.929 . S
S883 N884 1.613 . S
S883 N885 1.610 . S
N884 S883 1.613 . S
N884 C887 1.350 . S
N885 S883 1.610 . S
N885 C886 1.351 . S
C886 C880 1.428 . S
C886 N885 1.351 . S
C886 C887 1.434 . S
C887 C878 1.429 . S
C887 N884 1.350 . S
C887 C886 1.434 . S
C888 C889 1.369 . S
C888 C890 1.419 . S
C888 H892 0.930 . S
C889 C888 1.369 . S
C889 C898 1.429 . S
C890 C888 1.419 . S
C890 C891 1.363 . S
C890 H893 0.929 . S
C891 C890 1.363 . S
C891 C897 1.428 . S
H892 C888 0.930 . S
H893 C890 0.929 . S
S894 N895 1.613 . S
S894 N896 1.610 . S
N895 S894 1.613 . S
N895 C898 1.350 . S
N896 S894 1.610 . S
N896 C897 1.351 . S
C897 C891 1.428 . S
C897 N896 1.351 . S
C897 C898 1.434 . S
C898 C889 1.429 . S
C898 N895 1.350 . S
C898 C897 1.434 . S
C899 C900 1.369 . S
C899 C901 1.419 . S
C899 H903 0.930 . S
C900 C899 1.369 . S
C900 C909 1.429 . S
C901 C899 1.419 . S
C901 C902 1.363 . S
C901 H904 0.929 . S
C902 C901 1.363 . S
C902 C908 1.428 . S
H903 C899 0.930 . S
H904 C901 0.929 . S
S905 N906 1.613 . S
S905 N907 1.610 . S
N906 S905 1.613 . S
N906 C909 1.350 . S
N907 S905 1.610 . S
N907 C908 1.351 . S
C908 C902 1.428 . S
C908 N907 1.351 . S
C908 C909 1.434 . S
C909 C900 1.429 . S
C909 N906 1.350 . S
C909 C908 1.434 . S
C910 C911 1.369 . S
C910 C912 1.419 . S
C910 H914 0.930 . S
C911 C910 1.369 . S
C911 C920 1.429 . S
C912 C910 1.419 . S
C912 C913 1.363 . S
C912 H915 0.929 . S
C913 C912 1.363 . S
C913 C919 1.428 . S
H914 C910 0.930 . S
H915 C912 0.929 . S
S916 N917 1.613 . S
S916 N918 1.610 . S
N917 S916 1.613 . S
N917 C920 1.350 . S
N918 S916 1.610 . S
N918 C919 1.351 . S
C919 C913 1.428 . S
C919 N918 1.351 . S
C919 C920 1.434 . S
C920 C911 1.429 . S
C920 N917 1.350 . S
C920 C919 1.434 . S
C921 C922 1.369 . S
C921 C923 1.419 . S
C921 H925 0.930 . S
C922 C921 1.369 . S
C922 C931 1.429 . S
C923 C921 1.419 . S
C923 C924 1.363 . S
C923 H926 0.929 . S
C924 C923 1.363 . S
C924 C930 1.428 . S
H925 C921 0.930 . S
H926 C923 0.929 . S
S927 N928 1.613 . S
S927 N929 1.610 . S
N928 S927 1.613 . S
N928 C931 1.350 . S
N929 S927 1.610 . S
N929 C930 1.351 . S
C930 C924 1.428 . S
C930 N929 1.351 . S
C930 C931 1.434 . S
C931 C922 1.429 . S
C931 N928 1.350 . S
C931 C930 1.434 . S
C932 C933 1.369 . S
C932 C934 1.419 1_545 S
C932 H936 0.930 . S
C933 C932 1.369 . S
C933 C942 1.429 1_455 S
C934 C932 1.419 1_565 S
C934 C935 1.363 1_455 S
C934 H937 0.929 . S
C935 C934 1.363 1_655 S
C935 C941 1.428 . S
H936 C932 0.930 . S
H937 C934 0.929 . S
S938 N939 1.613 . S
S938 N940 1.610 1_545 S
N939 S938 1.613 . S
N939 C942 1.350 . S
N940 S938 1.610 1_565 S
N940 C941 1.351 . S
C941 C935 1.428 . S
C941 N940 1.351 . S
C941 C942 1.434 1_565 S
C942 C933 1.429 1_655 S
C942 N939 1.350 . S
C942 C941 1.434 1_545 S
C943 C944 1.369 1_455 S
C943 C945 1.419 . S
C943 H947 0.930 . S
C944 C943 1.369 1_655 S
C944 C953 1.429 . S
C945 C943 1.419 . S
C945 C946 1.363 . S
C945 H948 0.929 . S
C946 C945 1.363 . S
C946 C952 1.428 1_455 S
H947 C943 0.930 . S
H948 C945 0.929 . S
S949 N950 1.613 . S
S949 N951 1.610 . S
N950 S949 1.613 . S
N950 C953 1.350 . S
N951 S949 1.610 . S
N951 C952 1.351 . S
C952 C946 1.428 1_655 S
C952 N951 1.351 . S
C952 C953 1.434 . S
C953 C944 1.429 . S
C953 N950 1.350 . S
C953 C952 1.434 . S
C954 C955 1.369 . S
C954 C956 1.419 . S
C954 H958 0.930 . S
C955 C954 1.369 . S
C955 C964 1.429 1_655 S
C956 C954 1.419 . S
C956 C957 1.363 1_655 S
C956 H959 0.929 . S
C957 C956 1.363 1_455 S
C957 C963 1.428 . S
H958 C954 0.930 . S
H959 C956 0.929 . S
S960 N961 1.613 . S
S960 N962 1.610 . S
N961 S960 1.613 . S
N961 C964 1.350 . S
N962 S960 1.610 . S
N962 C963 1.351 . S
C963 C957 1.428 . S
C963 N962 1.351 . S
C963 C964 1.434 . S
C964 C955 1.429 1_455 S
C964 N961 1.350 . S
C964 C963 1.434 . S
C965 C966 1.369 . S
C965 C967 1.419 1_556 S
C965 H969 0.930 . S
C966 C965 1.369 . S
C966 C975 1.429 1_455 S
C967 C965 1.419 1_554 S
C967 C968 1.363 1_455 S
C967 H970 0.929 . S
C968 C967 1.363 1_655 S
C968 C974 1.428 . S
H969 C965 0.930 . S
H970 C967 0.929 . S
S971 N972 1.609 . S
S971 N973 1.615 1_556 S
N972 S971 1.609 . S
N972 C975 1.350 . S
N973 S971 1.615 1_554 S
N973 C974 1.351 . S
C974 C968 1.428 . S
C974 N973 1.351 . S
C974 C975 1.434 1_554 S
C975 C966 1.429 1_655 S
C975 N972 1.350 . S
C975 C974 1.434 1_556 S
C976 C977 1.369 . S
C976 C978 1.419 . S
C976 H980 0.930 . S
C977 C976 1.369 . S
C977 C986 1.429 . S
C978 C976 1.419 . S
C978 C979 1.363 . S
C978 H981 0.929 . S
C979 C978 1.363 . S
C979 C985 1.428 . S
H980 C976 0.930 . S
H981 C978 0.929 . S
S982 N983 1.613 1_565 S
S982 N984 1.610 1_565 S
N983 S982 1.613 1_545 S
N983 C986 1.350 . S
N984 S982 1.610 1_545 S
N984 C985 1.351 . S
C985 C979 1.428 . S
C985 N984 1.351 . S
C985 C986 1.434 . S
C986 C977 1.429 . S
C986 N983 1.350 . S
C986 C985 1.434 . S
C987 C988 1.369 . S
C987 C989 1.419 . S
C987 H991 0.930 . S
C988 C987 1.369 . S
C988 C997 1.429 . S
C989 C987 1.419 . S
C989 C990 1.363 . S
C989 H992 0.929 . S
C990 C989 1.363 . S
C990 C996 1.428 . S
H991 C987 0.930 . S
H992 C989 0.929 . S
S993 N994 1.613 . S
S993 N995 1.610 . S
N994 S993 1.613 . S
N994 C997 1.350 . S
N995 S993 1.610 . S
N995 C996 1.351 . S
C996 C990 1.428 . S
C996 N995 1.351 . S
C996 C997 1.434 . S
C997 C988 1.429 . S
C997 N994 1.350 . S
C997 C996 1.434 . S
C998 C999 1.369 . S
C998 C1000 1.419 . S
C998 H1002 0.930 . S
C999 C998 1.369 . S
C999 C1008 1.429 . S
C1000 C998 1.419 . S
C1000 C1001 1.363 . S
C1000 H1003 0.929 . S
C1001 C1000 1.363 . S
C1001 C1007 1.428 . S
H1002 C998 0.930 . S
H1003 C1000 0.929 . S
S1004 N1005 1.613 . S
S1004 N1006 1.610 1_545 S
N1005 S1004 1.613 . S
N1005 C1008 1.350 1_545 S
N1006 S1004 1.610 1_565 S
N1006 C1007 1.351 . S
C1007 C1001 1.428 . S
C1007 N1006 1.351 . S
C1007 C1008 1.434 . S
C1008 C999 1.429 . S
C1008 N1005 1.350 1_565 S
C1008 C1007 1.434 . S
C1009 C1010 1.369 . S
C1009 C1011 1.419 . S
C1009 H1013 0.930 . S
C1010 C1009 1.369 . S
C1010 C1019 1.429 . S
C1011 C1009 1.419 . S
C1011 C1012 1.363 . S
C1011 H1014 0.929 . S
C1012 C1011 1.363 . S
C1012 C1018 1.428 . S
H1013 C1009 0.930 . S
H1014 C1011 0.929 . S
S1015 N1016 1.613 . S
S1015 N1017 1.610 . S
N1016 S1015 1.613 . S
N1016 C1019 1.350 . S
N1017 S1015 1.610 . S
N1017 C1018 1.351 . S
C1018 C1012 1.428 . S
C1018 N1017 1.351 . S
C1018 C1019 1.434 . S
C1019 C1010 1.429 . S
C1019 N1016 1.350 . S
C1019 C1018 1.434 . S
C1020 C1021 1.369 . S
C1020 C1022 1.419 . S
C1020 H1024 0.930 . S
C1021 C1020 1.369 . S
C1021 C1030 1.429 . S
C1022 C1020 1.419 . S
C1022 C1023 1.363 . S
C1022 H1025 0.929 . S
C1023 C1022 1.363 . S
C1023 C1029 1.428 . S
H1024 C1020 0.930 . S
H1025 C1022 0.929 . S
S1026 N1027 1.613 . S
S1026 N1028 1.610 . S
N1027 S1026 1.613 . S
N1027 C1030 1.350 . S
N1028 S1026 1.610 . S
N1028 C1029 1.351 . S
C1029 C1023 1.428 . S
C1029 N1028 1.351 . S
C1029 C1030 1.434 . S
C1030 C1021 1.429 . S
C1030 N1027 1.350 . S
C1030 C1029 1.434 . S
C1031 C1032 1.369 . S
C1031 C1033 1.419 . S
C1031 H1035 0.930 . S
C1032 C1031 1.369 . S
C1032 C1041 1.429 . S
C1033 C1031 1.419 . S
C1033 C1034 1.363 . S
C1033 H1036 0.929 . S
C1034 C1033 1.363 . S
C1034 C1040 1.428 . S
H1035 C1031 0.930 . S
H1036 C1033 0.929 . S
S1037 N1038 1.613 . S
S1037 N1039 1.610 . S
N1038 S1037 1.613 . S
N1038 C1041 1.350 . S
N1039 S1037 1.610 . S
N1039 C1040 1.351 . S
C1040 C1034 1.428 . S
C1040 N1039 1.351 . S
C1040 C1041 1.434 . S
C1041 C1032 1.429 . S
C1041 N1038 1.350 . S
C1041 C1040 1.434 . S
C1042 C1043 1.369 . S
C1042 C1044 1.419 . S
C1042 H1046 0.930 . S
C1043 C1042 1.369 . S
C1043 C1052 1.429 . S
C1044 C1042 1.419 . S
C1044 C1045 1.363 . S
C1044 H1047 0.929 . S
C1045 C1044 1.363 . S
C1045 C1051 1.428 . S
H1046 C1042 0.930 . S
H1047 C1044 0.929 . S
S1048 N1049 1.613 . S
S1048 N1050 1.610 . S
N1049 S1048 1.613 . S
N1049 C1052 1.350 . S
N1050 S1048 1.610 . S
N1050 C1051 1.351 . S
C1051 C1045 1.428 . S
C1051 N1050 1.351 . S
C1051 C1052 1.434 . S
C1052 C1043 1.429 . S
C1052 N1049 1.350 . S
C1052 C1051 1.434 . S
C1053 C1054 1.369 . S
C1053 C1055 1.419 . S
C1053 H1057 0.930 . S
C1054 C1053 1.369 . S
C1054 C1063 1.429 . S
C1055 C1053 1.419 . S
C1055 C1056 1.363 . S
C1055 H1058 0.929 . S
C1056 C1055 1.363 . S
C1056 C1062 1.428 . S
H1057 C1053 0.930 . S
H1058 C1055 0.929 . S
S1059 N1060 1.613 . S
S1059 N1061 1.610 . S
N1060 S1059 1.613 . S
N1060 C1063 1.350 . S
N1061 S1059 1.610 . S
N1061 C1062 1.351 . S
C1062 C1056 1.428 . S
C1062 N1061 1.351 . S
C1062 C1063 1.434 . S
C1063 C1054 1.429 . S
C1063 N1060 1.350 . S
C1063 C1062 1.434 . S
C1064 C1065 1.369 . S
C1064 C1066 1.419 . S
C1064 H1068 0.930 . S
C1065 C1064 1.369 . S
C1065 C1074 1.429 . S
C1066 C1064 1.419 . S
C1066 C1067 1.363 . S
C1066 H1069 0.929 . S
C1067 C1066 1.363 . S
C1067 C1073 1.428 . S
H1068 C1064 0.930 . S
H1069 C1066 0.929 . S
S1070 N1071 1.613 . S
S1070 N1072 1.610 . S
N1071 S1070 1.613 . S
N1071 C1074 1.350 . S
N1072 S1070 1.610 . S
N1072 C1073 1.351 . S
C1073 C1067 1.428 . S
C1073 N1072 1.351 . S
C1073 C1074 1.434 . S
C1074 C1065 1.429 . S
C1074 N1071 1.350 . S
C1074 C1073 1.434 . S
C1075 C1076 1.369 . S
C1075 C1077 1.419 . S
C1075 H1079 0.930 . S
C1076 C1075 1.369 . S
C1076 C1085 1.429 . S
C1077 C1075 1.419 . S
C1077 C1078 1.363 . S
C1077 H1080 0.929 . S
C1078 C1077 1.363 . S
C1078 C1084 1.428 . S
H1079 C1075 0.930 . S
H1080 C1077 0.929 . S
S1081 N1082 1.613 . S
S1081 N1083 1.610 . S
N1082 S1081 1.613 . S
N1082 C1085 1.350 1_565 S
N1083 S1081 1.610 . S
N1083 C1084 1.351 1_565 S
C1084 C1078 1.428 . S
C1084 N1083 1.351 1_545 S
C1084 C1085 1.434 . S
C1085 C1076 1.429 . S
C1085 N1082 1.350 1_545 S
C1085 C1084 1.434 . S
C1086 C1087 1.369 . S
C1086 C1088 1.419 . S
C1086 H1090 0.930 . S
C1087 C1086 1.369 . S
C1087 C1096 1.429 . S
C1088 C1086 1.419 . S
C1088 C1089 1.363 . S
C1088 H1091 0.929 . S
C1089 C1088 1.363 . S
C1089 C1095 1.428 . S
H1090 C1086 0.930 . S
H1091 C1088 0.929 . S
S1092 N1093 1.613 . S
S1092 N1094 1.610 . S
N1093 S1092 1.613 . S
N1093 C1096 1.350 . S
N1094 S1092 1.610 . S
N1094 C1095 1.351 . S
C1095 C1089 1.428 . S
C1095 N1094 1.351 . S
C1095 C1096 1.434 . S
C1096 C1087 1.429 . S
C1096 N1093 1.350 . S
C1096 C1095 1.434 . S
C1097 C1098 1.369 . S
C1097 C1099 1.419 . S
C1097 H1101 0.930 . S
C1098 C1097 1.369 . S
C1098 C1107 1.429 . S
C1099 C1097 1.419 . S
C1099 C1100 1.363 . S
C1099 H1102 0.929 . S
C1100 C1099 1.363 . S
C1100 C1106 1.428 . S
H1101 C1097 0.930 . S
H1102 C1099 0.929 . S
S1103 N1104 1.613 1_545 S
S1103 N1105 1.610 . S
N1104 S1103 1.613 1_565 S
N1104 C1107 1.350 . S
N1105 S1103 1.610 . S
N1105 C1106 1.351 1_545 S
C1106 C1100 1.428 . S
C1106 N1105 1.351 1_565 S
C1106 C1107 1.434 . S
C1107 C1098 1.429 . S
C1107 N1104 1.350 . S
C1107 C1106 1.434 . S
C1108 C1109 1.369 . S
C1108 C1110 1.419 . S
C1108 H1112 0.930 . S
C1109 C1108 1.369 . S
C1109 C1118 1.429 . S
C1110 C1108 1.419 . S
C1110 C1111 1.363 . S
C1110 H1113 0.929 . S
C1111 C1110 1.363 . S
C1111 C1117 1.428 . S
H1112 C1108 0.930 . S
H1113 C1110 0.929 . S
S1114 N1115 1.613 . S
S1114 N1116 1.610 . S
N1115 S1114 1.613 . S
N1115 C1118 1.350 . S
N1116 S1114 1.610 . S
N1116 C1117 1.351 . S
C1117 C1111 1.428 . S
C1117 N1116 1.351 . S
C1117 C1118 1.434 . S
C1118 C1109 1.429 . S
C1118 N1115 1.350 . S
C1118 C1117 1.434 . S
C1119 C1120 1.369 . S
C1119 C1121 1.419 . S
C1119 H1123 0.930 . S
C1120 C1119 1.369 . S
C1120 C1129 1.429 . S
C1121 C1119 1.419 . S
C1121 C1122 1.363 . S
C1121 H1124 0.929 . S
C1122 C1121 1.363 . S
C1122 C1128 1.428 . S
H1123 C1119 0.930 . S
H1124 C1121 0.929 . S
S1125 N1126 1.613 . S
S1125 N1127 1.610 . S
N1126 S1125 1.613 . S
N1126 C1129 1.350 . S
N1127 S1125 1.610 . S
N1127 C1128 1.351 . S
C1128 C1122 1.428 . S
C1128 N1127 1.351 . S
C1128 C1129 1.434 . S
C1129 C1120 1.429 . S
C1129 N1126 1.350 . S
C1129 C1128 1.434 . S
C1130 C1131 1.369 . S
C1130 C1132 1.419 . S
C1130 H1134 0.930 . S
C1131 C1130 1.369 . S
C1131 C1140 1.429 . S
C1132 C1130 1.419 . S
C1132 C1133 1.363 . S
C1132 H1135 0.929 . S
C1133 C1132 1.363 . S
C1133 C1139 1.428 . S
H1134 C1130 0.930 . S
H1135 C1132 0.929 . S
S1136 N1137 1.613 . S
S1136 N1138 1.610 . S
N1137 S1136 1.613 . S
N1137 C1140 1.350 . S
N1138 S1136 1.610 . S
N1138 C1139 1.351 . S
C1139 C1133 1.428 . S
C1139 N1138 1.351 . S
C1139 C1140 1.434 . S
C1140 C1131 1.429 . S
C1140 N1137 1.350 . S
C1140 C1139 1.434 . S
C1141 C1142 1.369 . S
C1141 C1143 1.419 . S
C1141 H1145 0.930 . S
C1142 C1141 1.369 . S
C1142 C1151 1.429 . S
C1143 C1141 1.419 . S
C1143 C1144 1.363 . S
C1143 H1146 0.929 . S
C1144 C1143 1.363 . S
C1144 C1150 1.428 . S
H1145 C1141 0.930 . S
H1146 C1143 0.929 . S
S1147 N1148 1.613 . S
S1147 N1149 1.610 . S
N1148 S1147 1.613 . S
N1148 C1151 1.350 . S
N1149 S1147 1.610 . S
N1149 C1150 1.351 . S
C1150 C1144 1.428 . S
C1150 N1149 1.351 . S
C1150 C1151 1.434 . S
C1151 C1142 1.429 . S
C1151 N1148 1.350 . S
C1151 C1150 1.434 . S
C449 C13 1.592 . S
C451 C29 1.596 . S
C460 C55 1.587 . S
C462 C27 1.589 . S
C471 C85 1.593 . S
C473 C57 1.596 . S
C482 C98 1.590 . S
C484 C82 1.587 . S
C493 C113 1.591 . S
C495 C141 1.595 . S
C504 C167 1.586 . S
C506 C127 1.590 . S
C515 C169 1.596 . S
C517 C197 1.594 . S
C526 C223 1.588 . S
C528 C183 1.592 . S
C537 C224 1.583 . S
C539 C265 1.578 . S
C548 C238 1.597 . S
C550 C279 1.591 . S
C559 C321 1.584 . S
C561 C280 1.578 . S
C570 C295 1.593 . S
C572 C334 1.595 . S
C581 C377 1.578 . S
C583 C348 1.582 . S
C592 C390 1.592 . S
C594 C362 1.596 . S
C603 C432 1.583 . S
C605 C392 1.579 . S
C614 C406 1.595 . S
C616 C446 1.591 . S
C625 C350 1.655 . S
C627 C1 1.653 . S
C636 C15 1.652 . S
C638 C336 1.650 . S
C647 C41 1.653 . S
C649 C378 1.655 . S
C658 C43 1.652 . S
C660 C365 1.647 . S
C669 C418 1.653 . S
C671 C69 1.654 . S
C680 C70 1.651 . S
C682 C404 1.648 . S
C691 C97 1.654 . S
C693 C434 1.653 . S
C702 C420 1.651 . S
C704 C110 1.649 . S
C713 C125 1.653 . S
C715 C250 1.654 . S
C724 C139 1.653 . S
C726 C236 1.649 . S
C735 C153 1.654 . S
C737 C267 1.655 . S
C746 C155 1.651 . S
C748 C253 1.647 . S
C757 C181 1.653 . S
C759 C307 1.654 . S
C768 C292 1.653 . S
C770 C195 1.648 . S
C779 C322 1.654 . S
C781 C209 1.655 . S
C790 C211 1.651 . S
C792 C309 1.648 . S
C801 C12 1.600 . S
C803 C56 1.592 . S
C812 C26 1.598 . S
C814 C407 1.592 . S
C823 C28 1.595 . S
C825 C196 1.598 . S
C834 C54 1.592 . S
C836 C335 1.596 . S
C845 C83 1.591 . S
C847 C363 1.595 . S
C856 C140 1.595 . S
C858 C84 1.597 . S
C867 C278 1.593 . S
C869 C99 1.596 . S
C878 C168 1.595 . S
C880 C112 1.596 . S
C889 C126 1.598 . S
C891 C294 1.589 . S
C900 C447 1.596 . S
C902 C166 1.593 . S
C911 C182 1.591 . S
C913 C239 1.593 . S
C922 C222 1.590 . S
C924 C391 1.594 . S
C933 C281 1.585 . S
C935 C225 1.584 . S
C944 C264 1.588 . S
C946 C433 1.583 . S
C955 C376 1.583 . S
C957 C320 1.586 . S
C966 C393 1.586 . S
C968 C349 1.583 . S
C977 C0 1.360 . S
C979 C14 1.362 . S
C988 C40 1.360 . S
C990 C42 1.361 . S
C999 C68 1.360 . S
C1001 C71 1.363 . S
C1010 C96 1.360 . S
C1012 C111 1.363 . S
C1021 C138 1.361 . S
C1023 C124 1.363 . S
C1032 C152 1.361 . S
C1034 C154 1.361 . S
C1043 C180 1.362 . S
C1045 C194 1.362 . S
C1054 C208 1.362 . S
C1056 C210 1.362 . S
C1065 C237 1.368 . S
C1067 C251 1.369 . S
C1076 C266 1.366 . S
C1078 C252 1.371 . S
C1087 C293 1.369 . S
C1089 C306 1.370 . S
C1098 C308 1.368 . S
C1100 C323 1.371 . S
C1109 C351 1.368 . S
C1111 C337 1.370 . S
C1120 C364 1.366 . S
C1122 C379 1.371 . S
C1131 C419 1.366 . S
C1133 C405 1.369 . S
C1142 C421 1.368 . S
C1144 C435 1.370 . S
