# Generated by pormake.
# Topology kag, (6)-cn, num edge types: 1
# Building blocks:
#     Node 0, Type 0, BuildingBlock: BETFAJ_clean_sbu_0, # of connection points: 6
#     Node 1, Type 0, BuildingBlock: BETFAJ_clean_sbu_0, # of connection points: 6
#     Node 2, Type 0, BuildingBlock: BETFAJ_clean_sbu_0, # of connection points: 6
#     Edge 3, Type (0, 0), BuildingBlock: FUNLAD_clean_linker_0, # of connection points: 2
#     Edge 4, Type (0, 0), BuildingBlock: FUNLAD_clean_linker_0, # of connection points: 2
#     Edge 5, Type (0, 0), BuildingBlock: FUNLAD_clean_linker_0, # of connection points: 2
#     Edge 6, Type (0, 0), BuildingBlock: FUNLAD_clean_linker_0, # of connection points: 2
#     Edge 7, Type (0, 0), BuildingBlock: FUNLAD_clean_linker_0, # of connection points: 2
#     Edge 8, Type (0, 0), BuildingBlock: FUNLAD_clean_linker_0, # of connection points: 2
#     Edge 9, Type (0, 0), BuildingBlock: FUNLAD_clean_linker_0, # of connection points: 2
#     Edge 10, Type (0, 0), BuildingBlock: FUNLAD_clean_linker_0, # of connection points: 2
#     Edge 11, Type (0, 0), BuildingBlock: FUNLAD_clean_linker_0, # of connection points: 2
# Relax obj value: 0.062
# Max RMSD: 0.181
# Mean RMSD: 0.095
data_MOF--net-kag--node1-BETFAJ_clean_sbu_0--edge1-FUNLAD_clean_linker_0
_symmetry_space_group_name_H-M    P1
_symmetry_Int_Tables_number       1
_symmetry_cell_setting            triclinic
loop_
_symmetry_equiv_pos_as_xyz
'x, y, z'
_cell_length_a     36.348383
_cell_length_b     46.973478
_cell_length_c     16.895997
_cell_angle_alpha  96.309005
_cell_angle_beta   92.063032
_cell_angle_gamma 98.789974
loop_
_atom_site_label
_atom_site_type_symbol
_atom_site_fract_x
_atom_site_fract_y
_atom_site_fract_z
_atom_type_partial_charge
Sm0 Sm 1.04503 0.48001 1.00048 0.0
Sm1 Sm 0.05476 0.54835 0.98142 0.0
C2 C 1.02797 0.42684 0.04147 0.0
C3 C 0.99727 0.40209 0.03133 0.0
C4 C 0.99394 0.38238 0.08814 0.0
C5 C 0.96652 0.3577 0.07735 0.0
C6 C 0.94193 0.35222 1.00922 0.0
C7 C 0.94483 0.37245 0.95322 0.0
C8 C 0.97218 0.39722 0.9643 0.0
C9 C 0.05475 0.4954 0.84941 0.0
C10 C 0.96993 0.51215 0.98199 0.0
C11 C 0.06736 0.59789 0.91927 0.0
C12 C 0.09398 0.62505 0.93189 0.0
C13 C 0.09975 0.64216 0.86931 0.0
C14 C 0.12522 0.66793 0.87971 0.0
C15 C 0.14539 0.67711 0.95313 0.0
C16 C 0.13963 0.65969 0.01567 0.0
C17 C 0.1142 0.63383 1.00505 0.0
C18 C 0.06007 0.5395 0.14116 0.0
C19 C 0.12841 0.51702 1.00996 0.0
O20 O 1.02245 0.45006 0.08683 0.0
O21 O 1.04565 0.43274 0.97768 0.0
O22 O 1.03522 0.50677 0.90047 0.0
O23 O 0.06845 0.47405 0.87574 0.0
O24 O 0.9838 0.48848 0.99567 0.0
O25 O 0.99112 0.53666 0.96982 0.0
O26 O 0.08098 0.57472 0.89133 0.0
O27 O 1.0438 0.59319 0.97526 0.0
O28 O 0.05514 0.52113 0.08062 0.0
O29 O 0.06362 0.56522 0.11794 0.0
O30 O 0.11405 0.53705 0.97519 0.0
O31 O 0.10724 0.4951 0.0377 0.0
H32 H 1.01307 0.38576 0.14021 0.0
H33 H 0.96537 0.34246 0.12119 0.0
H34 H 0.92603 0.36907 0.90066 0.0
H35 H 0.97411 0.41231 0.91997 0.0
H36 H 0.08463 0.63553 0.81218 0.0
H37 H 0.12944 0.68047 0.82979 0.0
H38 H 0.15439 0.66621 0.07318 0.0
H39 H 0.11026 0.62074 0.05394 0.0
Sm40 Sm 0.59373 0.01383 1.00783 0.0
Sm41 Sm 0.51233 1.0049 0.04479 0.0
C42 C 0.65946 0.03298 0.95383 0.0
C43 C 0.68213 0.06183 0.95236 0.0
C44 C 0.66565 0.08573 0.93465 0.0
C45 C 0.68702 0.11334 0.93902 0.0
C46 C 0.72538 0.11762 0.96067 0.0
C47 C 0.74191 0.09351 0.97678 0.0
C48 C 0.72046 0.06592 0.97285 0.0
C49 C 0.58105 1.00801 0.16488 0.0
C50 C 0.55042 0.07075 0.0509 0.0
C51 C 0.44642 0.98634 0.09854 0.0
C52 C 0.42182 0.95818 0.09061 0.0
C53 C 0.39329 0.95309 0.14326 0.0
C54 C 0.37018 0.92614 0.13666 0.0
C55 C 0.37525 0.90386 0.07713 0.0
C56 C 0.40411 0.90908 0.02476 0.0
C57 C 0.42722 0.93599 0.03155 0.0
C58 C 0.52513 1.01046 0.88741 0.0
C59 C 0.55533 0.94765 1.0053 0.0
O60 O 0.62856 0.02713 0.90881 0.0
O61 O 0.65555 0.02409 0.02413 0.0
O62 O 0.56415 0.02271 0.12172 0.0
O63 O 0.60668 0.99675 0.12655 0.0
O64 O 0.57745 0.05998 0.01329 0.0
O65 O 0.5235 0.05376 0.08084 0.0
O66 O 0.47782 0.98773 0.1401 0.0
O67 O 0.45055 0.99889 0.03336 0.0
O68 O 0.54189 0.99582 0.93093 0.0
O69 O 0.49941 0.02167 0.92548 0.0
O70 O 0.52772 0.95883 0.03914 0.0
O71 O 0.58348 0.96427 0.97758 0.0
H72 H 0.63616 0.08315 0.91826 0.0
H73 H 0.67349 0.13135 0.92528 0.0
H74 H 0.77127 0.09607 0.9945 0.0
H75 H 0.73371 0.04783 0.98712 0.0
H76 H 0.38886 0.96996 0.18939 0.0
H77 H 0.348 0.92287 0.17742 0.0
H78 H 0.40909 0.89226 0.97907 0.0
H79 H 0.44939 0.93945 0.99082 0.0
Sm80 Sm 0.55749 0.53889 1.00574 0.0
Sm81 Sm 0.53916 0.47542 0.03324 0.0
C82 C 0.56608 0.59036 0.95171 0.0
C83 C 0.55859 0.6206 0.95853 0.0
C84 C 0.54756 0.63189 0.88955 0.0
C85 C 0.54621 0.66154 0.89074 0.0
C86 C 0.55604 0.68065 0.96103 0.0
C87 C 0.56552 0.66906 0.03105 0.0
C88 C 0.56684 0.63936 0.02981 0.0
C89 C 0.56148 0.52954 0.16426 0.0
C90 C 0.47042 0.51087 0.03179 0.0
C91 C 0.53206 0.42355 0.08424 0.0
C92 C 0.54383 0.39469 0.07358 0.0
C93 C 0.55739 0.38344 0.14038 0.0
C94 C 0.56435 0.35485 0.13454 0.0
C95 C 0.55764 0.33677 0.06171 0.0
C96 C 0.54538 0.34845 0.99405 0.0
C97 C 0.53853 0.37712 0.9999 0.0
C98 C 0.53517 0.48523 0.87489 0.0
C99 C 0.62599 0.50243 1.00912 0.0
O100 O 0.53943 0.5692 0.92409 0.0
O101 O 0.5882 0.58332 1.00654 0.0
O102 O 0.53702 0.51678 0.1125 0.0
O103 O 0.58318 0.54984 0.13492 0.0
O104 O 0.49234 0.53045 0.99687 0.0
O105 O 0.48422 0.49043 0.06513 0.0
O106 O 0.55638 0.4456 0.11658 0.0
O107 O 0.51031 0.43019 0.02802 0.0
O108 O 0.55981 0.49759 0.92671 0.0
O109 O 0.51298 0.46521 0.9042 0.0
O110 O 0.60359 0.48331 0.04395 0.0
O111 O 0.61295 0.52332 0.97598 0.0
H112 H 0.54128 0.61791 0.83376 0.0
H113 H 0.53813 0.66958 0.83609 0.0
H114 H 0.57352 0.68311 0.08612 0.0
H115 H 0.57566 0.6313 0.0839 0.0
H116 H 0.56163 0.39655 0.19785 0.0
H117 H 0.57445 0.34677 0.18749 0.0
H118 H 0.53964 0.33512 0.93717 0.0
H119 H 0.52801 0.38518 0.94731 0.0
C120 C 1.03333 0.51723 0.73029 0.0
C121 C 0.06008 0.50407 0.76862 0.0
C122 C 1.03759 0.52366 0.6517 0.0
C123 C 0.06919 0.51776 0.61106 0.0
C124 C 0.09653 0.50562 0.65064 0.0
C125 C 0.09172 0.49836 0.72815 0.0
C126 C 0.07456 0.52449 0.52796 0.0
C127 C 1.04689 0.518 0.47062 0.0
C128 C 0.05234 0.52318 0.38623 0.0
C129 C 1.03322 0.50327 0.32473 0.0
C130 C 1.03678 0.50808 0.24483 0.0
C131 C 0.05871 0.53329 0.22497 0.0
H132 H 0.08932 0.56428 0.41235 0.0
C133 C 0.07759 0.55339 0.28635 0.0
C134 C 0.07481 0.54824 0.36624 0.0
H135 H 0.09442 0.57314 0.27254 0.0
H136 H 1.00873 0.52189 0.76035 0.0
H137 H 1.01639 0.5335 0.62302 0.0
H138 H 0.12126 0.50111 0.62081 0.0
H139 H 0.11287 0.48842 0.75664 0.0
H140 H 0.10259 0.5328 0.51229 0.0
H141 H 1.01992 0.50683 0.48488 0.0
H142 H 1.01545 0.48395 0.33855 0.0
H143 H 1.02127 0.49262 0.1988 0.0
C144 C 0.54866 0.0205 0.28969 0.0
C145 C 0.57494 1.00591 0.25024 0.0
C146 C 0.54343 0.01866 0.37085 0.0
C147 C 0.56456 1.00222 0.41429 0.0
C148 C 0.5903 0.98727 0.37402 0.0
C149 C 0.59557 0.98918 0.2931 0.0
C150 C 0.56008 0.99937 0.50065 0.0
C151 C 0.54588 0.0186 0.55134 0.0
C152 C 0.54141 0.0158 0.63773 0.0
C153 C 0.51587 0.03094 0.67803 0.0
C154 C 0.51067 0.02916 0.75901 0.0
C155 C 0.53117 0.01236 0.80194 0.0
H156 H 0.58324 0.98798 0.65348 0.0
C157 C 0.55722 0.99754 0.76244 0.0
C158 C 0.56239 0.99926 0.68119 0.0
H159 H 0.57366 0.98464 0.79433 0.0
H160 H 0.53208 0.03331 0.25783 0.0
H161 H 0.52241 0.02976 0.39853 0.0
H162 H 0.60671 0.97422 0.40547 0.0
H163 H 0.61586 0.97754 0.26415 0.0
H164 H 0.56951 0.98076 0.52292 0.0
H165 H 0.53648 0.03721 0.52903 0.0
H166 H 0.49957 0.04407 0.64657 0.0
H167 H 0.49055 0.04098 0.78799 0.0
C168 C 0.5619 0.5108 0.76223 0.0
C169 C 0.53502 0.48988 0.78964 0.0
C170 C 0.56203 0.51488 0.68131 0.0
C171 C 0.53526 0.49797 0.62586 0.0
C172 C 0.50806 0.47744 0.65398 0.0
C173 C 0.50799 0.47336 0.73479 0.0
C174 C 0.53391 0.50146 0.53898 0.0
C175 C 0.56302 0.51386 0.50052 0.0
C176 C 0.56161 0.51725 0.4136 0.0
C177 C 0.58845 0.53803 0.38535 0.0
C178 C 0.58844 0.54198 0.30444 0.0
C179 C 0.56171 0.52508 0.24964 0.0
H180 H 0.51471 0.48306 0.37643 0.0
C181 C 0.5352 0.50393 0.2772 0.0
C182 C 0.53515 0.49998 0.3582 0.0
H183 H 0.51451 0.49034 0.23609 0.0
H184 H 0.58283 0.52409 0.80339 0.0
H185 H 0.58278 0.53161 0.66322 0.0
H186 H 0.48687 0.46429 0.61312 0.0
H187 H 0.48678 0.45719 0.75425 0.0
H188 H 0.50771 0.49303 0.50573 0.0
H189 H 0.58922 0.52234 0.5337 0.0
H190 H 0.60941 0.55146 0.42619 0.0
H191 H 0.60937 0.55833 0.28487 0.0
C192 C 0.18719 0.49858 0.05009 0.0
C193 C 0.16971 0.51944 0.01641 0.0
C194 C 0.22616 0.50092 0.0542 0.0
C195 C 0.24858 0.52416 0.02417 0.0
C196 C 0.231 0.54522 0.99201 0.0
C197 C 0.19218 0.54288 0.98788 0.0
C198 C 0.29018 0.52772 0.02618 0.0
C199 C 0.30979 0.50595 0.03413 0.0
C200 C 0.35129 0.50919 0.03533 0.0
C201 C 0.36857 0.48846 0.06969 0.0
C202 C 0.40714 0.48954 0.06974 0.0
C203 C 0.42968 0.51128 0.03456 0.0
H204 H 0.36156 0.54725 0.97166 0.0
C205 C 0.41258 0.53223 1.00029 0.0
C206 C 0.37376 0.53123 1.0006 0.0
H207 H 0.42907 0.54914 0.97217 0.0
H208 H 0.17081 0.48039 0.07332 0.0
H209 H 0.23835 0.48464 0.08194 0.0
H210 H 0.24736 0.56349 0.96908 0.0
H211 H 0.17986 0.55952 0.9619 0.0
H212 H 0.30496 0.54912 0.01935 0.0
H213 H 0.29511 0.48454 0.04093 0.0
H214 H 0.35212 0.47117 0.09653 0.0
H215 H 0.41914 0.47293 0.0966 0.0
C216 C 0.78413 0.15151 0.94054 0.0
C217 C 0.74789 0.14718 0.9682 0.0
C218 C 0.80562 0.17917 0.94952 0.0
C219 C 0.79132 0.20324 0.98637 0.0
C220 C 0.75519 0.19887 0.0143 0.0
C221 C 0.73363 0.17124 1.00491 0.0
C222 C 0.81387 0.23282 1.00027 0.0
C223 C 0.84214 0.24201 0.95502 0.0
C224 C 0.86563 0.27121 0.96995 0.0
C225 C 0.88526 0.28229 0.90702 0.0
C226 C 0.90922 0.30886 0.9193 0.0
C227 C 0.91452 0.3249 0.99524 0.0
H228 H 0.85677 0.27941 0.09653 0.0
C229 C 0.89471 0.31394 0.05825 0.0
C230 C 0.87057 0.28742 0.04588 0.0
H231 H 0.89805 0.32581 0.11743 0.0
H232 H 0.79592 0.13347 0.91177 0.0
H233 H 0.83368 0.18139 0.92915 0.0
H234 H 0.74359 0.2169 0.0437 0.0
H235 H 0.70606 0.16863 0.02802 0.0
H236 H 0.80583 0.24777 0.0478 0.0
H237 H 0.84781 0.22796 0.90296 0.0
H238 H 0.88232 0.2702 0.84811 0.0
H239 H 0.92445 0.31641 0.86971 0.0
C240 C 0.58333 0.90211 0.97017 0.0
C241 C 0.55392 0.91568 0.99987 0.0
C242 C 0.58181 0.87197 0.9684 0.0
C243 C 0.55066 0.85478 0.99594 0.0
C244 C 0.52135 0.86847 0.02509 0.0
C245 C 0.52287 0.89839 0.0269 0.0
C246 C 0.54777 0.82283 0.99861 0.0
C247 C 0.56837 0.80557 0.95656 0.0
C248 C 0.5642 0.77356 0.95925 0.0
C249 C 0.57614 0.75618 0.89526 0.0
C250 C 0.57307 0.72614 0.8955 0.0
C251 C 0.55821 0.71261 0.96021 0.0
H252 H 0.54112 0.77263 0.07624 0.0
C253 C 0.5466 0.73001 0.02477 0.0
C254 C 0.54963 0.76009 0.02449 0.0
H255 H 0.53502 0.72036 0.07559 0.0
H256 H 0.60776 0.91477 0.94939 0.0
H257 H 0.60544 0.86251 0.94709 0.0
H258 H 0.49706 0.85596 0.04699 0.0
H259 H 0.49961 0.90794 0.0503 0.0
H260 H 0.52627 0.81303 0.03459 0.0
H261 H 0.58777 0.81477 0.91535 0.0
H262 H 0.58788 0.76589 0.84462 0.0
H263 H 0.58306 0.71357 0.84548 0.0
C264 C 0.90446 0.48634 0.99288 0.0
C265 C 0.92888 0.51147 0.98002 0.0
C266 C 0.86587 0.48631 0.99327 0.0
C267 C 0.8508 0.51154 0.98095 0.0
C268 C 0.87535 0.53646 0.96738 0.0
C269 C 0.91374 0.53646 0.96687 0.0
C270 C 0.81012 0.51345 0.982 0.0
C271 C 0.78289 0.4917 0.99464 0.0
C272 C 0.74268 0.49492 0.99675 0.0
C273 C 0.7186 0.47571 0.03679 0.0
C274 C 0.68078 0.47809 0.04079 0.0
C275 C 0.66602 0.49969 1.00431 0.0
H276 H 0.74473 0.53079 0.92471 0.0
C277 C 0.6899 0.51861 0.96299 0.0
C278 C 0.72769 0.51619 0.95882 0.0
H279 H 0.67942 0.53528 0.93334 0.0
H280 H 0.91513 0.46667 1.00317 0.0
H281 H 0.84839 0.46648 1.00367 0.0
H282 H 0.86483 0.55622 0.95747 0.0
H283 H 0.93153 0.55627 0.9567 0.0
H284 H 0.80257 0.53444 0.97375 0.0
H285 H 0.78991 0.47097 1.00697 0.0
H286 H 0.72916 0.45892 0.06587 0.0
H287 H 0.66319 0.46302 0.07282 0.0
C288 C 0.20649 0.70684 1.00746 0.0
C289 C 0.1722 0.70476 0.96415 0.0
C290 C 0.23185 0.73274 0.01654 0.0
C291 C 0.22339 0.75719 0.98261 0.0
C292 C 0.18926 0.75504 0.93912 0.0
C293 C 0.16387 0.72924 0.93039 0.0
C294 C 0.24986 0.78491 0.9885 0.0
C295 C 0.27623 0.79354 0.04802 0.0
C296 C 0.30181 0.8217 0.05383 0.0
C297 C 0.31626 0.83515 0.12921 0.0
C298 C 0.34003 0.86181 0.13691 0.0
C299 C 0.35031 0.87539 0.06914 0.0
H300 H 0.30298 0.82497 0.92654 0.0
C301 C 0.33651 0.86161 0.99352 0.0
C302 C 0.31258 0.83506 0.98586 0.0
H303 H 0.34385 0.87153 0.94014 0.0
H304 H 0.21414 0.68826 0.03292 0.0
H305 H 0.25833 0.73322 0.04842 0.0
H306 H 0.18206 0.77347 0.91211 0.0
H307 H 0.13755 0.72859 0.89758 0.0
H308 H 0.246 0.7994 0.9441 0.0
H309 H 0.27784 0.78047 0.09682 0.0
H310 H 0.30881 0.82518 0.18246 0.0
H311 H 0.35067 0.87165 0.19591 0.0
C312 C 0.54974 0.28928 0.11953 0.0
C313 C 0.56158 0.30553 0.05738 0.0
C314 C 0.55218 0.25974 0.11487 0.0
C315 C 0.56618 0.24556 0.04736 0.0
C316 C 0.57872 0.26192 0.98601 0.0
C317 C 0.57631 0.29151 0.99071 0.0
C318 C 0.56886 0.21402 0.03956 0.0
C319 C 0.54755 0.1947 0.07902 0.0
C320 C 0.54935 0.16303 0.07084 0.0
C321 C 0.51913 0.14406 0.09471 0.0
C322 C 0.51954 0.11419 0.08872 0.0
C323 C 0.55033 0.10251 0.05894 0.0
H324 H 0.60496 0.16518 0.0258 0.0
C325 C 0.58087 0.12149 0.03624 0.0
C326 C 0.5805 0.15139 0.04233 0.0
H327 H 0.6053 0.11332 0.01432 0.0
H328 H 0.53798 0.29927 0.17153 0.0
H329 H 0.54333 0.2483 0.16478 0.0
H330 H 0.59009 0.25171 0.93376 0.0
H331 H 0.5862 0.30343 0.94228 0.0
H332 H 0.58773 0.20645 0.99662 0.0
H333 H 0.52637 0.20199 0.11645 0.0
H334 H 0.49489 0.15236 0.11761 0.0
H335 H 0.49554 0.10025 0.10695 0.0
loop_
_geom_bond_atom_site_label_1
_geom_bond_atom_site_label_2
_geom_bond_distance
_geom_bond_site_symmetry_2
_ccdc_geom_bond_type
Sm0 C2 2.846 . S
Sm0 O20 2.543 1_556 S
Sm0 O21 2.450 . S
Sm0 O22 2.681 1_655 S
Sm0 O23 2.464 . S
Sm0 O24 2.396 . S
Sm0 O28 2.386 1_556 S
Sm0 O31 2.408 1_655 S
Sm1 C11 2.846 . S
Sm1 O22 2.386 1_554 S
Sm1 O25 2.408 1_455 S
Sm1 O26 2.543 1_554 S
Sm1 O27 2.450 . S
Sm1 O28 2.681 1_455 S
Sm1 O29 2.464 . S
Sm1 O30 2.396 . S
C2 Sm0 2.846 . S
C2 C3 1.506 . S
C2 O20 1.261 1_556 S
C2 O21 1.242 . S
C3 C2 1.506 . S
C3 C4 1.358 1_556 S
C3 C8 1.382 . S
C4 C3 1.358 1_554 S
C4 C5 1.385 . S
C4 H32 0.930 . S
C5 C4 1.385 . S
C5 C6 1.395 1_554 S
C5 H33 0.929 . S
C6 C5 1.395 1_556 S
C6 C7 1.335 . S
C7 C6 1.335 . S
C7 C8 1.398 . S
C7 H34 0.930 . S
C8 C3 1.382 . S
C8 C7 1.398 . S
C8 H35 0.929 . S
C9 O22 1.275 . S
C9 O23 1.247 1_455 S
C10 O24 1.252 . S
C10 O25 1.272 1_556 S
C11 Sm1 2.846 . S
C11 C12 1.506 . S
C11 O26 1.261 1_554 S
C11 O27 1.242 . S
C12 C11 1.506 . S
C12 C13 1.358 1_554 S
C12 C17 1.382 . S
C13 C12 1.358 1_556 S
C13 C14 1.385 . S
C13 H36 0.930 . S
C14 C13 1.385 . S
C14 C15 1.395 1_556 S
C14 H37 0.929 . S
C15 C14 1.395 1_554 S
C15 C16 1.335 . S
C16 C15 1.335 . S
C16 C17 1.398 . S
C16 H38 0.930 . S
C17 C12 1.382 . S
C17 C16 1.398 . S
C17 H39 0.929 . S
C18 O28 1.271 1_455 S
C18 O29 1.251 . S
C19 O30 1.252 . S
C19 O31 1.272 1_554 S
O20 Sm0 2.543 1_554 S
O20 C2 1.261 1_554 S
O21 Sm0 2.450 . S
O21 C2 1.242 . S
O22 Sm0 2.681 1_455 S
O22 Sm1 2.386 1_556 S
O22 C9 1.275 . S
O23 Sm0 2.464 . S
O23 C9 1.247 1_655 S
O24 Sm0 2.396 . S
O24 C10 1.252 . S
O25 Sm1 2.408 1_655 S
O25 C10 1.272 1_554 S
O26 Sm1 2.543 1_556 S
O26 C11 1.261 1_556 S
O27 Sm1 2.450 . S
O27 C11 1.242 . S
O28 Sm0 2.386 1_554 S
O28 Sm1 2.681 1_655 S
O28 C18 1.271 1_655 S
O29 Sm1 2.464 . S
O29 C18 1.251 . S
O30 Sm1 2.396 . S
O30 C19 1.252 . S
O31 Sm0 2.408 1_455 S
O31 C19 1.272 1_556 S
H32 C4 0.930 . S
H33 C5 0.929 . S
H34 C7 0.930 . S
H35 C8 0.929 . S
H36 C13 0.930 . S
H37 C14 0.929 . S
H38 C16 0.930 . S
H39 C17 0.929 . S
Sm40 C42 2.846 . S
Sm40 O60 2.543 1_554 S
Sm40 O61 2.450 . S
Sm40 O62 2.681 1_545 S
Sm40 O63 2.464 . S
Sm40 O64 2.396 . S
Sm40 O68 2.386 1_554 S
Sm40 O71 2.408 1_545 S
Sm41 C51 2.846 . S
Sm41 O62 2.386 1_556 S
Sm41 O65 2.408 1_565 S
Sm41 O66 2.543 1_556 S
Sm41 O67 2.450 . S
Sm41 O68 2.681 1_565 S
Sm41 O69 2.464 . S
Sm41 O70 2.396 . S
C42 Sm40 2.846 . S
C42 C43 1.504 1_554 S
C42 O60 1.261 1_554 S
C42 O61 1.242 . S
C43 C42 1.504 1_556 S
C43 C44 1.368 . S
C43 C48 1.373 1_556 S
C44 C43 1.368 . S
C44 C45 1.385 . S
C44 H72 0.930 . S
C45 C44 1.385 . S
C45 C46 1.395 . S
C45 H73 0.929 . S
C46 C45 1.395 . S
C46 C47 1.335 1_556 S
C47 C46 1.335 1_554 S
C47 C48 1.398 . S
C47 H74 0.930 . S
C48 C43 1.373 1_554 S
C48 C47 1.398 . S
C48 H75 0.929 . S
C49 O62 1.271 1_545 S
C49 O63 1.251 . S
C50 O64 1.252 . S
C50 O65 1.272 1_554 S
C51 Sm41 2.846 . S
C51 C52 1.506 1_556 S
C51 O66 1.261 1_556 S
C51 O67 1.242 . S
C52 C51 1.506 1_554 S
C52 C53 1.358 . S
C52 C57 1.382 1_554 S
C53 C52 1.358 . S
C53 C54 1.385 . S
C53 H76 0.930 . S
C54 C53 1.385 . S
C54 C55 1.395 . S
C54 H77 0.929 . S
C55 C54 1.395 . S
C55 C56 1.335 1_554 S
C56 C55 1.335 1_556 S
C56 C57 1.398 . S
C56 H78 0.930 . S
C57 C52 1.382 1_556 S
C57 C56 1.398 . S
C57 H79 0.929 . S
C58 O68 1.271 1_565 S
C58 O69 1.251 . S
C59 O70 1.252 . S
C59 O71 1.272 1_556 S
O60 Sm40 2.543 1_556 S
O60 C42 1.261 1_556 S
O61 Sm40 2.450 . S
O61 C42 1.242 . S
O62 Sm40 2.681 1_565 S
O62 Sm41 2.386 1_554 S
O62 C49 1.271 1_565 S
O63 Sm40 2.464 . S
O63 C49 1.251 . S
O64 Sm40 2.396 . S
O64 C50 1.252 . S
O65 Sm41 2.408 1_545 S
O65 C50 1.272 1_556 S
O66 Sm41 2.543 1_554 S
O66 C51 1.261 1_554 S
O67 Sm41 2.450 . S
O67 C51 1.242 . S
O68 Sm40 2.386 1_556 S
O68 Sm41 2.681 1_545 S
O68 C58 1.271 1_545 S
O69 Sm41 2.464 . S
O69 C58 1.251 . S
O70 Sm41 2.396 . S
O70 C59 1.252 . S
O71 Sm40 2.408 1_565 S
O71 C59 1.272 1_554 S
H72 C44 0.930 . S
H73 C45 0.929 . S
H74 C47 0.930 . S
H75 C48 0.929 . S
H76 C53 0.930 . S
H77 C54 0.929 . S
H78 C56 0.930 . S
H79 C57 0.929 . S
Sm80 C82 2.846 . S
Sm80 O100 2.543 1_554 S
Sm80 O101 2.450 . S
Sm80 O102 2.681 . S
Sm80 O103 2.464 . S
Sm80 O104 2.396 . S
Sm80 O108 2.386 1_554 S
Sm80 O111 2.408 . S
Sm81 C91 2.846 . S
Sm81 O102 2.386 1_556 S
Sm81 O105 2.408 . S
Sm81 O106 2.543 1_556 S
Sm81 O107 2.450 . S
Sm81 O108 2.681 . S
Sm81 O109 2.464 . S
Sm81 O110 2.396 . S
C82 Sm80 2.846 . S
C82 C83 1.506 . S
C82 O100 1.261 1_554 S
C82 O101 1.242 . S
C83 C82 1.506 . S
C83 C84 1.358 1_554 S
C83 C88 1.382 . S
C84 C83 1.358 1_556 S
C84 C85 1.385 . S
C84 H112 0.930 . S
C85 C84 1.385 . S
C85 C86 1.395 1_556 S
C85 H113 0.929 . S
C86 C85 1.395 1_554 S
C86 C87 1.335 . S
C87 C86 1.335 . S
C87 C88 1.398 . S
C87 H114 0.930 . S
C88 C83 1.382 . S
C88 C87 1.398 . S
C88 H115 0.929 . S
C89 O102 1.271 . S
C89 O103 1.251 . S
C90 O104 1.252 . S
C90 O105 1.272 1_554 S
C91 Sm81 2.846 . S
C91 C92 1.506 . S
C91 O106 1.261 1_556 S
C91 O107 1.242 . S
C92 C91 1.506 . S
C92 C93 1.358 1_556 S
C92 C97 1.382 . S
C93 C92 1.358 1_554 S
C93 C94 1.385 . S
C93 H116 0.930 . S
C94 C93 1.385 . S
C94 C95 1.384 1_554 S
C94 H117 0.929 . S
C95 C94 1.384 1_556 S
C95 C96 1.346 . S
C96 C95 1.346 . S
C96 C97 1.398 . S
C96 H118 0.930 . S
C97 C92 1.382 . S
C97 C96 1.398 . S
C97 H119 0.929 . S
C98 O108 1.271 . S
C98 O109 1.251 . S
C99 O110 1.252 . S
C99 O111 1.272 1_556 S
O100 Sm80 2.543 1_556 S
O100 C82 1.261 1_556 S
O101 Sm80 2.450 . S
O101 C82 1.242 . S
O102 Sm80 2.681 . S
O102 Sm81 2.386 1_554 S
O102 C89 1.271 . S
O103 Sm80 2.464 . S
O103 C89 1.251 . S
O104 Sm80 2.396 . S
O104 C90 1.252 . S
O105 Sm81 2.408 . S
O105 C90 1.272 1_556 S
O106 Sm81 2.543 1_554 S
O106 C91 1.261 1_554 S
O107 Sm81 2.450 . S
O107 C91 1.242 . S
O108 Sm80 2.386 1_556 S
O108 Sm81 2.681 . S
O108 C98 1.271 . S
O109 Sm81 2.464 . S
O109 C98 1.251 . S
O110 Sm81 2.396 . S
O110 C99 1.252 . S
O111 Sm80 2.408 . S
O111 C99 1.272 1_554 S
H112 C84 0.930 . S
H113 C85 0.929 . S
H114 C87 0.930 . S
H115 C88 0.929 . S
H116 C93 0.930 . S
H117 C94 0.929 . S
H118 C96 0.930 . S
H119 C97 0.929 . S
C120 C121 1.386 1_655 S
C120 C122 1.383 . S
C120 H136 0.951 . S
C121 C120 1.386 1_455 S
C121 C125 1.383 . S
C122 C120 1.383 . S
C122 C123 1.402 1_655 S
C122 H137 0.951 . S
C123 C122 1.402 1_455 S
C123 C124 1.375 . S
C123 C126 1.481 . S
C124 C123 1.375 . S
C124 C125 1.367 . S
C124 H138 0.951 . S
C125 C121 1.383 . S
C125 C124 1.367 . S
C125 H139 0.950 . S
C126 C123 1.481 . S
C126 C127 1.297 1_455 S
C126 H140 0.950 . S
C127 C126 1.297 1_655 S
C127 C128 1.479 . S
C127 H141 0.950 . S
C128 C127 1.479 . S
C128 C129 1.375 . S
C128 C134 1.404 1_655 S
C129 C128 1.375 . S
C129 C130 1.369 . S
C129 H142 0.950 . S
C130 C129 1.369 . S
C130 C131 1.392 . S
C130 H143 0.951 . S
C131 C130 1.392 . S
C131 C133 1.384 1_655 S
H132 C134 0.949 . S
C133 C131 1.384 1_455 S
C133 C134 1.385 . S
C133 H135 0.950 . S
C134 C128 1.404 1_455 S
C134 H132 0.949 . S
C134 C133 1.385 . S
H135 C133 0.950 . S
H136 C120 0.951 . S
H137 C122 0.951 . S
H138 C124 0.951 . S
H139 C125 0.950 . S
H140 C126 0.950 . S
H141 C127 0.950 . S
H142 C129 0.950 . S
H143 C130 0.951 . S
C144 C145 1.386 1_545 S
C144 C146 1.383 . S
C144 H160 0.951 . S
C145 C144 1.386 1_565 S
C145 C149 1.383 . S
C146 C144 1.383 . S
C146 C147 1.402 1_545 S
C146 H161 0.951 . S
C147 C146 1.402 1_565 S
C147 C148 1.375 . S
C147 C150 1.481 . S
C148 C147 1.375 . S
C148 C149 1.367 . S
C148 H162 0.951 . S
C149 C145 1.383 . S
C149 C148 1.367 . S
C149 H163 0.950 . S
C150 C147 1.481 . S
C150 C151 1.297 . S
C150 H164 0.950 . S
C151 C150 1.297 . S
C151 C152 1.479 . S
C151 H165 0.950 1_565 S
C152 C151 1.479 . S
C152 C153 1.375 1_565 S
C152 C158 1.404 . S
C153 C152 1.375 1_545 S
C153 C154 1.369 . S
C153 H166 0.950 . S
C154 C153 1.369 . S
C154 C155 1.392 1_545 S
C154 H167 0.951 . S
C155 C154 1.392 1_565 S
C155 C157 1.384 . S
H156 C158 0.949 . S
C157 C155 1.384 . S
C157 C158 1.385 . S
C157 H159 0.950 . S
C158 C152 1.404 . S
C158 H156 0.949 . S
C158 C157 1.385 . S
H159 C157 0.950 . S
H160 C144 0.951 . S
H161 C146 0.951 . S
H162 C148 0.951 . S
H163 C149 0.950 . S
H164 C150 0.950 . S
H165 C151 0.950 1_545 S
H166 C153 0.950 . S
H167 C154 0.951 . S
C168 C169 1.386 . S
C168 C170 1.383 . S
C168 H184 0.951 . S
C169 C168 1.386 . S
C169 C173 1.383 . S
C170 C168 1.383 . S
C170 C171 1.402 . S
C170 H185 0.951 . S
C171 C170 1.402 . S
C171 C172 1.375 . S
C171 C174 1.481 . S
C172 C171 1.375 . S
C172 C173 1.367 . S
C172 H186 0.951 . S
C173 C169 1.383 . S
C173 C172 1.367 . S
C173 H187 0.950 . S
C174 C171 1.481 . S
C174 C175 1.297 . S
C174 H188 0.950 . S
C175 C174 1.297 . S
C175 C176 1.479 . S
C175 H189 0.950 . S
C176 C175 1.479 . S
C176 C177 1.375 . S
C176 C182 1.404 . S
C177 C176 1.375 . S
C177 C178 1.369 . S
C177 H190 0.950 . S
C178 C177 1.369 . S
C178 C179 1.392 . S
C178 H191 0.951 . S
C179 C178 1.392 . S
C179 C181 1.384 . S
H180 C182 0.949 . S
C181 C179 1.384 . S
C181 C182 1.385 . S
C181 H183 0.950 . S
C182 C176 1.404 . S
C182 H180 0.949 . S
C182 C181 1.385 . S
H183 C181 0.950 . S
H184 C168 0.951 . S
H185 C170 0.951 . S
H186 C172 0.951 . S
H187 C173 0.950 . S
H188 C174 0.950 . S
H189 C175 0.950 . S
H190 C177 0.950 . S
H191 C178 0.951 . S
C192 C193 1.386 1_554 S
C192 C194 1.383 . S
C192 H208 0.951 . S
C193 C192 1.386 1_556 S
C193 C197 1.383 . S
C194 C192 1.383 . S
C194 C195 1.402 1_554 S
C194 H209 0.951 . S
C195 C194 1.402 1_556 S
C195 C196 1.375 . S
C195 C198 1.481 . S
C196 C195 1.375 . S
C196 C197 1.367 . S
C196 H210 0.951 . S
C197 C193 1.383 . S
C197 C196 1.367 . S
C197 H211 0.950 . S
C198 C195 1.481 . S
C198 C199 1.297 . S
C198 H212 0.950 . S
C199 C198 1.297 . S
C199 C200 1.479 . S
C199 H213 0.950 1_556 S
C200 C199 1.479 . S
C200 C201 1.375 1_556 S
C200 C206 1.404 . S
C201 C200 1.375 1_554 S
C201 C202 1.369 . S
C201 H214 0.950 . S
C202 C201 1.369 . S
C202 C203 1.392 1_554 S
C202 H215 0.951 . S
C203 C202 1.392 1_556 S
C203 C205 1.384 . S
H204 C206 0.949 . S
C205 C203 1.384 . S
C205 C206 1.385 . S
C205 H207 0.950 . S
C206 C200 1.404 . S
C206 H204 0.949 . S
C206 C205 1.385 . S
H207 C205 0.950 . S
H208 C192 0.951 . S
H209 C194 0.951 . S
H210 C196 0.951 . S
H211 C197 0.950 . S
H212 C198 0.950 . S
H213 C199 0.950 1_554 S
H214 C201 0.950 . S
H215 C202 0.951 . S
C216 C217 1.386 . S
C216 C218 1.383 . S
C216 H232 0.951 . S
C217 C216 1.386 . S
C217 C221 1.382 1_556 S
C218 C216 1.383 . S
C218 C219 1.402 . S
C218 H233 0.951 . S
C219 C218 1.402 . S
C219 C220 1.375 . S
C219 C222 1.481 . S
C220 C219 1.375 . S
C220 C221 1.366 1_556 S
C220 H234 0.951 1_556 S
C221 C217 1.382 1_554 S
C221 C220 1.366 1_554 S
C221 H235 0.952 . S
C222 C219 1.481 . S
C222 C223 1.297 . S
C222 H236 0.950 . S
C223 C222 1.297 . S
C223 C224 1.479 . S
C223 H237 0.950 . S
C224 C223 1.479 . S
C224 C225 1.375 . S
C224 C230 1.404 . S
C225 C224 1.375 . S
C225 C226 1.369 . S
C225 H238 0.950 . S
C226 C225 1.369 . S
C226 C227 1.392 . S
C226 H239 0.951 . S
C227 C226 1.392 . S
C227 C229 1.384 . S
H228 C230 0.949 . S
C229 C227 1.384 . S
C229 C230 1.385 . S
C229 H231 0.950 . S
C230 C224 1.404 . S
C230 H228 0.949 . S
C230 C229 1.385 . S
H231 C229 0.950 . S
H232 C216 0.951 . S
H233 C218 0.951 . S
H234 C220 0.951 1_554 S
H235 C221 0.952 . S
H236 C222 0.950 . S
H237 C223 0.950 . S
H238 C225 0.950 . S
H239 C226 0.951 . S
C240 C241 1.386 1_556 S
C240 C242 1.383 . S
C240 H256 0.951 . S
C241 C240 1.386 1_554 S
C241 C245 1.383 . S
C242 C240 1.383 . S
C242 C243 1.402 1_556 S
C242 H257 0.951 . S
C243 C242 1.402 1_554 S
C243 C244 1.375 . S
C243 C246 1.481 . S
C244 C243 1.375 . S
C244 C245 1.367 . S
C244 H258 0.951 . S
C245 C241 1.383 . S
C245 C244 1.367 . S
C245 H259 0.950 . S
C246 C243 1.481 . S
C246 C247 1.297 1_554 S
C246 H260 0.950 . S
C247 C246 1.297 1_556 S
C247 C248 1.478 1_556 S
C247 H261 0.950 . S
C248 C247 1.478 1_554 S
C248 C249 1.368 1_554 S
C248 C254 1.413 . S
C249 C248 1.368 1_556 S
C249 C250 1.369 . S
C249 H262 0.950 . S
C250 C249 1.369 . S
C250 C251 1.392 1_556 S
C250 H263 0.951 . S
C251 C250 1.392 1_554 S
C251 C253 1.384 . S
H252 C254 0.949 . S
C253 C251 1.384 . S
C253 C254 1.385 . S
C253 H255 0.950 . S
C254 C248 1.413 . S
C254 H252 0.949 . S
C254 C253 1.385 . S
H255 C253 0.950 . S
H256 C240 0.951 . S
H257 C242 0.951 . S
H258 C244 0.951 . S
H259 C245 0.950 . S
H260 C246 0.950 . S
H261 C247 0.950 . S
H262 C249 0.950 . S
H263 C250 0.951 . S
C264 C265 1.386 1_556 S
C264 C266 1.383 . S
C264 H280 0.951 . S
C265 C264 1.386 1_554 S
C265 C269 1.383 . S
C266 C264 1.383 . S
C266 C267 1.402 1_556 S
C266 H281 0.951 . S
C267 C266 1.402 1_554 S
C267 C268 1.375 . S
C267 C270 1.481 . S
C268 C267 1.375 . S
C268 C269 1.367 . S
C268 H282 0.951 . S
C269 C265 1.383 . S
C269 C268 1.367 . S
C269 H283 0.950 . S
C270 C267 1.481 . S
C270 C271 1.297 . S
C270 H284 0.950 . S
C271 C270 1.297 . S
C271 C272 1.479 . S
C271 H285 0.950 1_554 S
C272 C271 1.479 . S
C272 C273 1.375 1_554 S
C272 C278 1.404 . S
C273 C272 1.375 1_556 S
C273 C274 1.369 . S
C273 H286 0.950 . S
C274 C273 1.369 . S
C274 C275 1.392 1_556 S
C274 H287 0.951 . S
C275 C274 1.392 1_554 S
C275 C277 1.384 . S
H276 C278 0.949 . S
C277 C275 1.384 . S
C277 C278 1.385 . S
C277 H279 0.950 . S
C278 C272 1.404 . S
C278 H276 0.949 . S
C278 C277 1.385 . S
H279 C277 0.950 . S
H280 C264 0.951 . S
H281 C266 0.951 . S
H282 C268 0.951 . S
H283 C269 0.950 . S
H284 C270 0.950 . S
H285 C271 0.950 1_556 S
H286 C273 0.950 . S
H287 C274 0.951 . S
C288 C289 1.386 1_554 S
C288 C290 1.383 . S
C288 H304 0.951 . S
C289 C288 1.386 1_556 S
C289 C293 1.383 . S
C290 C288 1.383 . S
C290 C291 1.402 1_554 S
C290 H305 0.951 . S
C291 C290 1.402 1_556 S
C291 C292 1.375 . S
C291 C294 1.481 . S
C292 C291 1.375 . S
C292 C293 1.367 . S
C292 H306 0.951 . S
C293 C289 1.383 . S
C293 C292 1.367 . S
C293 H307 0.950 . S
C294 C291 1.481 . S
C294 C295 1.297 . S
C294 H308 0.950 . S
C295 C294 1.297 . S
C295 C296 1.479 . S
C295 H309 0.950 . S
C296 C295 1.479 . S
C296 C297 1.375 1_556 S
C296 C302 1.404 . S
C297 C296 1.375 1_554 S
C297 C298 1.369 . S
C297 H310 0.950 . S
C298 C297 1.369 . S
C298 C299 1.392 1_554 S
C298 H311 0.951 . S
C299 C298 1.392 1_556 S
C299 C301 1.384 . S
H300 C302 0.949 . S
C301 C299 1.384 . S
C301 C302 1.385 . S
C301 H303 0.950 . S
C302 C296 1.404 . S
C302 H300 0.949 . S
C302 C301 1.385 . S
H303 C301 0.950 . S
H304 C288 0.951 . S
H305 C290 0.951 . S
H306 C292 0.951 . S
H307 C293 0.950 . S
H308 C294 0.950 . S
H309 C295 0.950 . S
H310 C297 0.950 . S
H311 C298 0.951 . S
C312 C313 1.386 1_554 S
C312 C314 1.383 . S
C312 H328 0.951 . S
C313 C312 1.386 1_556 S
C313 C317 1.383 . S
C314 C312 1.383 . S
C314 C315 1.402 1_554 S
C314 H329 0.951 . S
C315 C314 1.402 1_556 S
C315 C316 1.375 . S
C315 C318 1.481 . S
C316 C315 1.375 . S
C316 C317 1.367 . S
C316 H330 0.951 . S
C317 C313 1.383 . S
C317 C316 1.367 . S
C317 H331 0.950 . S
C318 C315 1.481 . S
C318 C319 1.297 . S
C318 H332 0.950 . S
C319 C318 1.297 . S
C319 C320 1.479 . S
C319 H333 0.950 1_556 S
C320 C319 1.479 . S
C320 C321 1.375 1_556 S
C320 C326 1.404 . S
C321 C320 1.375 1_554 S
C321 C322 1.369 . S
C321 H334 0.950 . S
C322 C321 1.369 . S
C322 C323 1.392 1_554 S
C322 H335 0.951 . S
C323 C322 1.392 1_556 S
C323 C325 1.384 . S
H324 C326 0.949 . S
C325 C323 1.384 . S
C325 C326 1.385 . S
C325 H327 0.950 . S
C326 C320 1.404 . S
C326 H324 0.949 . S
C326 C325 1.385 . S
H327 C325 0.950 . S
H328 C312 0.951 . S
H329 C314 0.951 . S
H330 C316 0.951 . S
H331 C317 0.950 . S
H332 C318 0.950 . S
H333 C319 0.950 1_554 S
H334 C321 0.950 . S
H335 C322 0.951 . S
C121 C9 1.478 . S
C131 C18 1.406 1_655 S
C145 C49 1.450 1_565 S
C155 C58 1.400 . S
C169 C98 1.428 . S
C179 C89 1.483 . S
C193 C19 2.610 1_556 S
C203 C90 2.545 1_556 S
C217 C46 0.869 . S
C227 C6 0.868 . S
C241 C59 1.975 1_554 S
C251 C86 1.890 . S
C265 C10 2.611 1_554 S
C275 C99 2.580 1_554 S
C289 C15 0.873 1_556 S
C299 C55 0.861 1_556 S
C313 C95 1.932 . S
C323 C50 1.970 1_556 S
