# Generated by pormake.
# Topology uni, (4)-cn, num edge types: 1
# Building blocks:
#     Node 0, Type 0, BuildingBlock: TATPOV_clean_sbu_0, # of connection points: 4
#     Node 1, Type 0, BuildingBlock: TATPOV_clean_sbu_0, # of connection points: 4
#     Node 2, Type 0, BuildingBlock: TATPOV_clean_sbu_0, # of connection points: 4
#     Node 3, Type 0, BuildingBlock: TATPOV_clean_sbu_0, # of connection points: 4
#     Node 4, Type 0, BuildingBlock: TATPOV_clean_sbu_0, # of connection points: 4
#     Node 5, Type 0, BuildingBlock: TATPOV_clean_sbu_0, # of connection points: 4
#     Edge 6, Type (0, 0), BuildingBlock: TEMPAE_clean_linker_10, # of connection points: 2
#     Edge 7, Type (0, 0), BuildingBlock: TEMPAE_clean_linker_10, # of connection points: 2
#     Edge 8, Type (0, 0), BuildingBlock: TEMPAE_clean_linker_10, # of connection points: 2
#     Edge 9, Type (0, 0), BuildingBlock: TEMPAE_clean_linker_10, # of connection points: 2
#     Edge 10, Type (0, 0), BuildingBlock: TEMPAE_clean_linker_10, # of connection points: 2
#     Edge 11, Type (0, 0), BuildingBlock: TEMPAE_clean_linker_10, # of connection points: 2
#     Edge 12, Type (0, 0), BuildingBlock: TEMPAE_clean_linker_10, # of connection points: 2
#     Edge 13, Type (0, 0), BuildingBlock: TEMPAE_clean_linker_10, # of connection points: 2
#     Edge 14, Type (0, 0), BuildingBlock: TEMPAE_clean_linker_10, # of connection points: 2
#     Edge 15, Type (0, 0), BuildingBlock: TEMPAE_clean_linker_10, # of connection points: 2
#     Edge 16, Type (0, 0), BuildingBlock: TEMPAE_clean_linker_10, # of connection points: 2
#     Edge 17, Type (0, 0), BuildingBlock: TEMPAE_clean_linker_10, # of connection points: 2
# Relax obj value: 0.034
# Max RMSD: 0.067
# Mean RMSD: 0.067
data_MOF--net-uni--node1-TATPOV_clean_sbu_0--edge1-TEMPAE_clean_linker_10
_symmetry_space_group_name_H-M    P1
_symmetry_Int_Tables_number       1
_symmetry_cell_setting            triclinic
loop_
_symmetry_equiv_pos_as_xyz
'x, y, z'
_cell_length_a     39.292561
_cell_length_b     39.315194
_cell_length_c     23.206749
_cell_angle_alpha  90.004953
_cell_angle_beta   89.998988
_cell_angle_gamma 120.03784
loop_
_atom_site_label
_atom_site_type_symbol
_atom_site_fract_x
_atom_site_fract_y
_atom_site_fract_z
_atom_type_partial_charge
Zn0 Zn 0.5522 0.92118 0.05611 0.0
Zn1 Zn 0.62553 0.9841 0.06958 0.0
O2 O 0.63433 0.93786 0.0868 0.0
O3 O 0.57465 0.88667 0.08 0.0
O4 O 0.67955 0.03218 0.06776 0.0
O5 O 0.54942 0.93384 0.97231 0.0
O6 O 0.60486 0.9882 0.99045 0.0
C7 C 0.61095 0.90092 0.0905 0.0
C8 C 0.55992 0.97809 0.14426 0.0
O9 O 0.59656 0.9945 0.13354 0.0
O10 O 0.53546 0.9479 0.11636 0.0
C11 C 0.70041 0.0377 0.02303 0.0
O12 O 0.68742 0.01027 0.98321 0.0
C13 C 0.5763 0.96755 0.95674 0.0
Zn14 Zn 0.66248 0.5527 0.21694 0.0
Zn15 Zn 0.67625 0.62768 0.21946 0.0
O16 O 0.73061 0.63514 0.23839 0.0
O17 O 0.7193 0.57437 0.24169 0.0
O18 O 0.68487 0.6822 0.20716 0.0
O19 O 0.6465 0.54533 0.13281 0.0
O20 O 0.65006 0.60261 0.14291 0.0
C21 C 0.74273 0.61097 0.24724 0.0
C22 C 0.61532 0.56826 0.29972 0.0
O23 O 0.63699 0.60407 0.28528 0.0
O24 O 0.61949 0.5415 0.27599 0.0
C25 C 0.67642 0.70147 0.24266 0.0
O26 O 0.66359 0.68692 0.29425 0.0
C27 C 0.64057 0.57194 0.11317 0.0
Zn28 Zn 0.14147 0.66741 0.4295 0.0
Zn29 Zn 0.08064 0.67779 0.39856 0.0
O30 O 0.12421 0.73405 0.41809 0.0
O31 O 0.17549 0.72668 0.43361 0.0
O32 O 0.03482 0.68289 0.37058 0.0
O33 O 0.13522 0.63745 0.35526 0.0
O34 O 0.08986 0.65156 0.32898 0.0
C35 C 0.16063 0.74872 0.42958 0.0
C36 C 0.07367 0.62789 0.50389 0.0
O37 O 0.05832 0.64054 0.46759 0.0
O38 O 0.10937 0.63697 0.49908 0.0
C39 C 0.00964 0.68392 0.40382 0.0
O40 O 0.01443 0.68395 0.45985 0.0
C41 C 0.11077 0.63591 0.31831 0.0
Zn42 Zn 0.50395 0.14587 0.55621 0.0
Zn43 Zn 0.43074 0.08279 0.56974 0.0
O44 O 0.42175 0.12889 0.58691 0.0
O45 O 0.48133 0.18023 0.58016 0.0
O46 O 0.37679 0.03465 0.56811 0.0
O47 O 0.50669 0.13316 0.47242 0.0
O48 O 0.45137 0.07867 0.49057 0.0
C49 C 0.44501 0.16584 0.59064 0.0
C50 C 0.49649 0.08909 0.64437 0.0
O51 O 0.45984 0.07256 0.63367 0.0
O52 O 0.52088 0.1193 0.61645 0.0
C53 C 0.35563 0.0293 0.5238 0.0
O54 O 0.36834 0.0569 0.48424 0.0
C55 C 0.4799 0.0994 0.45686 0.0
Zn56 Zn 0.39291 0.51339 0.71689 0.0
Zn57 Zn 0.37891 0.43835 0.71958 0.0
O58 O 0.32462 0.43109 0.73848 0.0
O59 O 0.33611 0.49192 0.7416 0.0
O60 O 0.37013 0.38378 0.7073 0.0
O61 O 0.40884 0.52067 0.63276 0.0
O62 O 0.40519 0.46336 0.64303 0.0
C63 C 0.3126 0.45535 0.74723 0.0
C64 C 0.43994 0.49768 0.79975 0.0
O65 O 0.41815 0.46186 0.7854 0.0
O66 O 0.43589 0.52448 0.77593 0.0
C67 C 0.37838 0.36441 0.74289 0.0
O68 O 0.39104 0.37887 0.79458 0.0
C69 C 0.41473 0.49401 0.61322 0.0
Zn70 Zn 0.91426 0.40006 0.92958 0.0
Zn71 Zn 0.97502 0.38953 0.89865 0.0
O72 O 0.93133 0.33332 0.91811 0.0
O73 O 0.88015 0.34081 0.93391 0.0
O74 O 0.02078 0.38426 0.87085 0.0
O75 O 0.92059 0.42996 0.85524 0.0
O76 O 0.96594 0.41583 0.82903 0.0
C77 C 0.89493 0.31871 0.92977 0.0
C78 C 0.98206 0.43956 0.00393 0.0
O79 O 0.99734 0.42681 0.96767 0.0
O80 O 0.94638 0.43056 -0.00089 0.0
C81 C 0.04613 0.38366 0.90421 0.0
O82 O 0.04154 0.3842 0.96022 0.0
C83 C 0.94506 0.4315 0.81833 0.0
C84 C 0.51009 0.99492 0.17854 0.0
C85 C 0.5456 0.99539 0.1875 0.0
C86 C 0.49681 0.01272 0.21806 0.0
C87 C 0.51895 0.03011 0.26857 0.0
C88 C 0.55457 0.03011 0.27814 0.0
C89 C 0.56784 0.01335 0.23688 0.0
C90 C 0.45939 0.01329 0.20552 0.0
C91 C 0.5784 0.04733 0.33232 0.0
C92 C 0.50904 0.10507 0.359 0.0
C93 C 0.48491 0.08154 0.40391 0.0
C94 C 0.5185 0.08837 0.31263 0.0
C95 C 0.50453 0.04744 0.3124 0.0
C96 C 0.47897 0.02341 0.35656 0.0
C97 C 0.46898 0.0407 0.40132 0.0
C98 C 0.54465 0.1147 0.26511 0.0
C99 C 0.46418 0.97979 0.35862 0.0
H100 H 0.49319 0.98148 0.13984 0.0
H101 H 0.59525 0.01358 0.24376 0.0
H102 H 0.43725 0.99701 0.23947 0.0
H103 H 0.46527 0.044 0.20609 0.0
H104 H 0.44657 0.99999 0.16307 0.0
H105 H 0.60477 0.04388 0.33394 0.0
H106 H 0.58814 0.07907 0.33521 0.0
H107 H 0.55996 0.03285 0.37076 0.0
H108 H 0.52119 0.13663 0.36074 0.0
H109 H 0.45054 0.02239 0.43619 0.0
H110 H 0.5321 0.102 0.22234 0.0
H111 H 0.57394 0.11706 0.26792 0.0
H112 H 0.54874 0.14474 0.26772 0.0
H113 H 0.44995 0.96571 0.3173 0.0
H114 H 0.44278 0.96494 0.3941 0.0
H115 H 0.48938 0.97484 0.36489 0.0
C116 C 0.5472 0.52346 0.33395 0.0
C117 C 0.58375 0.55742 0.34227 0.0
C118 C 0.51653 0.51275 0.37355 0.0
C119 C 0.5232 0.53575 0.42367 0.0
C120 C 0.56014 0.57016 0.43216 0.0
C121 C 0.58979 0.58102 0.39065 0.0
C122 C 0.47715 0.47667 0.362 0.0
C123 C 0.56877 0.59476 0.48596 0.0
C124 C 0.44003 0.52699 0.51783 0.0
C125 C 0.43854 0.50117 0.56067 0.0
C126 C 0.4663 0.53724 0.47135 0.0
C127 C 0.49255 0.52243 0.46913 0.0
C128 C 0.49061 0.49581 0.51179 0.0
C129 C 0.46317 0.485 0.55646 0.0
C130 C 0.46656 0.56453 0.42539 0.0
C131 C 0.51876 0.48015 0.51185 0.0
H132 H 0.54241 0.50559 0.29591 0.0
H133 H 0.61812 0.60728 0.39689 0.0
H134 H 0.47138 0.45371 0.39449 0.0
H135 H 0.45332 0.48389 0.36595 0.0
H136 H 0.47565 0.46425 0.31845 0.0
H137 H 0.59889 0.62076 0.48576 0.0
H138 H 0.5473 0.60506 0.49056 0.0
H139 H 0.56563 0.57663 0.52443 0.0
H140 H 0.42094 0.53945 0.52099 0.0
H141 H 0.46248 0.4654 0.5899 0.0
H142 H 0.4651 0.55201 0.38199 0.0
H143 H 0.4944 0.59308 0.42765 0.0
H144 H 0.44162 0.57008 0.43013 0.0
H145 H 0.51639 0.46462 0.47086 0.0
H146 H 0.51323 0.45957 0.54812 0.0
H147 H 0.54943 0.50494 0.51512 0.0
C148 C 0.9712 0.44944 0.71826 0.0
C149 C 0.95345 0.45592 0.76612 0.0
C150 C 0.98558 0.47632 0.67248 0.0
C151 C 0.98303 0.51095 0.67547 0.0
C152 C 0.96321 0.51657 0.7222 0.0
C153 C 0.94823 0.48869 0.76674 0.0
C154 C 0.00556 0.46874 0.62258 0.0
C155 C 0.96044 0.55339 0.72743 0.0
C156 C 0.06719 0.59824 0.60093 0.0
C157 C 0.04943 0.60055 0.54992 0.0
C158 C 0.04539 0.57018 0.64312 0.0
C159 C 0.00507 0.54311 0.63332 0.0
C160 C 0.98674 0.54581 0.58239 0.0
C161 C 0.00909 0.5749 0.5415 0.0
C162 C 0.06582 0.56891 0.69755 0.0
C163 C 0.94405 0.51697 0.56994 0.0
H164 H 0.97499 0.42396 0.71744 0.0
H165 H 0.93473 0.49394 0.80386 0.0
H166 H 0.99499 0.47398 0.58103 0.0
H167 H 0.03772 0.48936 0.62482 0.0
H168 H 1.00036 0.43824 0.62284 0.0
H169 H 0.94015 0.55116 0.76246 0.0
H170 H 0.99004 0.57873 0.73673 0.0
H171 H 0.9503 0.55976 0.68637 0.0
H172 H 0.09831 0.61826 0.6077 0.0
H173 H 0.99537 0.57645 0.50181 0.0
H174 H 0.06675 0.54118 0.69901 0.0
H175 H 0.04923 0.56935 0.73596 0.0
H176 H 0.09641 0.59396 0.70052 0.0
H177 H 0.94005 0.48715 0.56425 0.0
H178 H 0.9335 0.52478 0.53044 0.0
H179 H 0.92536 0.51547 0.60676 0.0
C180 C 0.54709 0.96196 0.85897 0.0
C181 C 0.5714 0.98545 0.90377 0.0
C182 C 0.53773 0.97875 0.81261 0.0
C183 C 0.55199 0.01974 0.81228 0.0
C184 C 0.57775 0.04372 0.8563 0.0
C185 C 0.58764 0.02633 0.90104 0.0
C186 C 0.51134 0.95246 0.76524 0.0
C187 C 0.59287 0.0874 0.85825 0.0
C188 C 0.54629 0.07216 0.67841 0.0
C189 C 0.5109 0.07188 0.6876 0.0
C190 C 0.55959 0.05435 0.71788 0.0
C191 C 0.53761 0.03717 0.76858 0.0
C192 C 0.50213 0.03741 0.77841 0.0
C193 C 0.48882 0.05416 0.73719 0.0
C194 C 0.59684 0.05351 0.70507 0.0
C195 C 0.47847 0.02042 0.8328 0.0
H196 H 0.53471 0.93038 0.8608 0.0
H197 H 0.60623 0.04462 0.93582 0.0
H198 H 0.48215 0.9503 0.76825 0.0
H199 H 0.52381 0.96506 0.72239 0.0
H200 H 0.50706 0.92234 0.76785 0.0
H201 H 0.61448 0.1022 0.8935 0.0
H202 H 0.60695 0.10134 0.81678 0.0
H203 H 0.56786 0.0926 0.86482 0.0
H204 H 0.56306 0.08542 0.63954 0.0
H205 H 0.4615 0.05408 0.74425 0.0
H206 H 0.59076 0.02273 0.70553 0.0
H207 H 0.6191 0.06967 0.73892 0.0
H208 H 0.60961 0.06678 0.66258 0.0
H209 H 0.46851 0.98864 0.83575 0.0
H210 H 0.45226 0.02414 0.83466 0.0
H211 H 0.49712 0.03488 0.87108 0.0
C212 C 0.61501 0.53853 0.01809 0.0
C213 C 0.61679 0.56472 0.06055 0.0
C214 C 0.58872 0.52822 0.97162 0.0
C215 C 0.56277 0.54338 0.96899 0.0
C216 C 0.56503 0.57038 0.01124 0.0
C217 C 0.59247 0.58122 0.05592 0.0
C218 C 0.58811 0.50049 0.9261 0.0
C219 C 0.53722 0.58644 0.01086 0.0
C220 C 0.50824 0.54213 0.83358 0.0
C221 C 0.47151 0.50846 0.84225 0.0
C222 C 0.53891 0.55278 0.87313 0.0
C223 C 0.53209 0.53004 0.92358 0.0
C224 C 0.49499 0.4959 0.93242 0.0
C225 C 0.46532 0.48508 0.89094 0.0
C226 C 0.57847 0.58853 0.86121 0.0
C227 C 0.48619 0.4716 0.98656 0.0
H228 H 0.63386 0.52581 0.02156 0.0
H229 H 0.59339 0.60111 0.08904 0.0
H230 H 0.56012 0.4721 0.9287 0.0
H231 H 0.58962 0.51277 0.8825 0.0
H232 H 0.61287 0.49469 0.93106 0.0
H233 H 0.54298 0.60731 0.04682 0.0
H234 H 0.53971 0.60177 0.96963 0.0
H235 H 0.50644 0.56189 0.01435 0.0
H236 H 0.51314 0.55981 0.79529 0.0
H237 H 0.43685 0.45903 0.89745 0.0
H238 H 0.60208 0.58102 0.86543 0.0
H239 H 0.58451 0.61177 0.89334 0.0
H240 H 0.58005 0.6007 0.81746 0.0
H241 H 0.50744 0.46104 0.99144 0.0
H242 H 0.45596 0.44579 0.98659 0.0
H243 H 0.48956 0.49003 0.02476 0.0
C244 C 0.98862 0.46927 0.10094 0.0
C245 C 0.00635 0.46689 0.04993 0.0
C246 C 0.01046 0.49733 0.1431 0.0
C247 C 0.0508 0.52434 0.13328 0.0
C248 C 0.06909 0.52157 0.08235 0.0
C249 C 0.04669 0.49248 0.04149 0.0
C250 C 0.99007 0.49869 0.19752 0.0
C251 C 0.1118 0.55034 0.06988 0.0
C252 C 0.08475 0.61803 0.21817 0.0
C253 C 0.10244 0.61152 0.26608 0.0
C254 C 0.07039 0.59117 0.17238 0.0
C255 C 0.07289 0.55651 0.17539 0.0
C256 C 0.09266 0.55087 0.22216 0.0
C257 C 0.10763 0.57874 0.26672 0.0
C258 C 0.05046 0.59878 0.12244 0.0
C259 C 0.09538 0.51402 0.22741 0.0
H260 H 0.95749 0.44931 0.10772 0.0
H261 H 0.06039 0.49087 0.00181 0.0
H262 H 0.00665 0.49823 0.23594 0.0
H263 H 0.9892 0.52645 0.19895 0.0
H264 H 0.95946 0.47367 0.20052 0.0
H265 H 0.12232 0.54245 0.03042 0.0
H266 H 0.11585 0.58017 0.06409 0.0
H267 H 0.13048 0.55186 0.10673 0.0
H268 H 0.08099 0.64354 0.21734 0.0
H269 H 0.12109 0.57346 0.30387 0.0
H270 H 0.01829 0.57822 0.12467 0.0
H271 H 0.06102 0.59348 0.0809 0.0
H272 H 0.05573 0.62931 0.12266 0.0
H273 H 0.06578 0.48871 0.23676 0.0
H274 H 0.11568 0.51625 0.26242 0.0
H275 H 0.10549 0.5076 0.18635 0.0
C276 C 0.66139 0.75562 0.25893 0.0
C277 C 0.67546 0.73682 0.2227 0.0
C278 C 0.65516 0.78557 0.23795 0.0
C279 C 0.66315 0.79694 0.17937 0.0
C280 C 0.67941 0.77962 0.14347 0.0
C281 C 0.68542 0.74982 0.16557 0.0
C282 C 0.63805 0.80356 0.27771 0.0
C283 C 0.68843 0.79099 0.08082 0.0
C284 C 0.60014 0.83371 0.11015 0.0
C285 C 0.62549 0.87454 0.11003 0.0
C286 C 0.61231 0.80825 0.13189 0.0
C287 C 0.65079 0.82392 0.15431 0.0
C288 C 0.67685 0.86503 0.15339 0.0
C289 C 0.66392 0.88989 0.13113 0.0
C290 C 0.5837 0.76453 0.13166 0.0
C291 C 0.71809 0.88277 0.17691 0.0
H292 H 0.65383 0.74597 0.30319 0.0
H293 H 0.69656 0.73569 0.13727 0.0
H294 H 0.65534 0.83609 0.27525 0.0
H295 H 0.60759 0.79439 0.26403 0.0
H296 H 0.6373 0.7945 0.32326 0.0
H297 H 0.70484 0.77794 0.06043 0.0
H298 H 0.66055 0.78082 0.05682 0.0
H299 H 0.70591 0.8234 0.07626 0.0
H300 H 0.57046 0.82151 0.09376 0.0
H301 H 0.6837 0.9214 0.13133 0.0
H302 H 0.57808 0.75318 0.17647 0.0
H303 H 0.59646 0.74904 0.10793 0.0
H304 H 0.55515 0.75702 0.11145 0.0
H305 H 0.71699 0.87608 0.22354 0.0
H306 H 0.7352 0.91515 0.1711 0.0
H307 H 0.73394 0.8696 0.15527 0.0
C308 C 0.96738 0.67864 0.31959 0.0
C309 C 0.97312 0.68044 0.37948 0.0
C310 C 0.93134 0.671 0.29599 0.0
C311 C 0.90022 0.66494 0.33314 0.0
C312 C 0.90638 0.66847 0.39349 0.0
C313 C 0.94277 0.67623 0.41594 0.0
C314 C 0.92602 0.66769 0.2314 0.0
C315 C 0.87393 0.66228 0.43453 0.0
C316 C 0.81043 0.66559 0.27281 0.0
C317 C 0.78369 0.62525 0.26668 0.0
C318 C 0.84866 0.67908 0.2938 0.0
C319 C 0.86032 0.65157 0.30925 0.0
C320 C 0.83364 0.61089 0.30252 0.0
C321 C 0.79577 0.59825 0.28122 0.0
C322 C 0.87641 0.7227 0.30005 0.0
C323 C 0.84492 0.58058 0.31858 0.0
H324 H 0.99072 0.68209 0.291 0.0
H325 H 0.94694 0.67772 0.46223 0.0
H326 H 0.90475 0.63681 0.21961 0.0
H327 H 0.91369 0.68604 0.2161 0.0
H328 H 0.95407 0.67683 0.20833 0.0
H329 H 0.88439 0.66928 0.47978 0.0
H330 H 0.8612 0.68078 0.42183 0.0
H331 H 0.84994 0.63119 0.43252 0.0
H332 H 0.80141 0.68669 0.26167 0.0
H333 H 0.7754 0.56703 0.27676 0.0
H334 H 0.9038 0.73155 0.27543 0.0
H335 H 0.88486 0.73003 0.34592 0.0
H336 H 0.86322 0.7403 0.28464 0.0
H337 H 0.87123 0.58574 0.29381 0.0
H338 H 0.82086 0.55008 0.31023 0.0
H339 H 0.85273 0.5833 0.36496 0.0
C340 C 0.16931 0.81424 0.45762 0.0
C341 C 0.18577 0.79136 0.44047 0.0
C342 C 0.19339 0.85406 0.47223 0.0
C343 C 0.23477 0.87143 0.46858 0.0
C344 C 0.25142 0.8487 0.44964 0.0
C345 C 0.22675 0.80892 0.4363 0.0
C346 C 0.17464 0.87727 0.49291 0.0
C347 C 0.29539 0.86627 0.44414 0.0
C348 C 0.30331 0.98151 0.45758 0.0
C349 C 0.32057 0.99039 0.51251 0.0
C350 C 0.27389 0.9432 0.44341 0.0
C351 C 0.26111 0.91315 0.48537 0.0
C352 C 0.27666 0.92246 0.54194 0.0
C353 C 0.30636 0.96094 0.55476 0.0
C354 C 0.25825 0.93445 0.38252 0.0
C355 C 0.26337 0.89134 0.58813 0.0
H356 H 0.13766 0.80075 0.46127 0.0
H357 H 0.23965 0.79147 0.42266 0.0
H358 H 0.18392 0.88715 0.53788 0.0
H359 H 0.18469 0.90401 0.46619 0.0
H360 H 0.14202 0.85985 0.49147 0.0
H361 H 0.30352 0.84501 0.42656 0.0
H362 H 0.30771 0.89236 0.4155 0.0
H363 H 0.30946 0.87633 0.48696 0.0
H364 H 0.31401 0.00407 0.42464 0.0
H365 H 0.3193 0.96763 0.59745 0.0
H366 H 0.22566 0.91743 0.38258 0.0
H367 H 0.26864 0.91615 0.36082 0.0
H368 H 0.26806 0.96163 0.35681 0.0
H369 H 0.2308 0.87414 0.59012 0.0
H370 H 0.27485 0.90411 0.63134 0.0
H371 H 0.2738 0.87055 0.57755 0.0
C372 C 0.39336 0.31024 0.75924 0.0
C373 C 0.3794 0.32909 0.72293 0.0
C374 C 0.39973 0.28037 0.73826 0.0
C375 C 0.39199 0.26915 0.67959 0.0
C376 C 0.37579 0.28649 0.64361 0.0
C377 C 0.36964 0.3162 0.66572 0.0
C378 C 0.41676 0.26235 0.77811 0.0
C379 C 0.36703 0.27527 0.58087 0.0
C380 C 0.45553 0.23292 0.61066 0.0
C381 C 0.43028 0.19206 0.61021 0.0
C382 C 0.44316 0.25821 0.63244 0.0
C383 C 0.40458 0.24235 0.65455 0.0
C384 C 0.37862 0.20122 0.65331 0.0
C385 C 0.39176 0.17654 0.63102 0.0
C386 C 0.47166 0.30195 0.63256 0.0
C387 C 0.33728 0.18329 0.67648 0.0
H388 H 0.40075 0.3198 0.80357 0.0
H389 H 0.35857 0.33037 0.63736 0.0
H390 H 0.39957 0.22983 0.77538 0.0
H391 H 0.44731 0.27167 0.76472 0.0
H392 H 0.41725 0.27124 0.82368 0.0
H393 H 0.35059 0.28827 0.56041 0.0
H394 H 0.39501 0.28561 0.55709 0.0
H395 H 0.34968 0.24287 0.57611 0.0
H396 H 0.48528 0.24525 0.5945 0.0
H397 H 0.37206 0.14501 0.63098 0.0
H398 H 0.47705 0.31317 0.67745 0.0
H399 H 0.45892 0.31744 0.60878 0.0
H400 H 0.50032 0.30962 0.6126 0.0
H401 H 0.33818 0.18983 0.72314 0.0
H402 H 0.32029 0.15092 0.67046 0.0
H403 H 0.32144 0.19644 0.65477 0.0
C404 C 0.08797 0.38779 0.82006 0.0
C405 C 0.08259 0.38697 0.87996 0.0
C406 C 0.12394 0.39524 0.7964 0.0
C407 C 0.15534 0.40211 0.8335 0.0
C408 C 0.14956 0.39958 0.89393 0.0
C409 C 0.11324 0.39198 0.91644 0.0
C410 C 0.12886 0.39745 0.73173 0.0
C411 C 0.18233 0.40668 0.93493 0.0
C412 C 0.24508 0.40094 0.77405 0.0
C413 C 0.27166 0.44121 0.76664 0.0
C414 C 0.20691 0.38763 0.79516 0.0
C415 C 0.19513 0.41525 0.80936 0.0
C416 C 0.22163 0.45585 0.80127 0.0
C417 C 0.25947 0.46831 0.77993 0.0
C418 C 0.17936 0.3441 0.80292 0.0
C419 C 0.21023 0.48627 0.81593 0.0
H420 H 0.0644 0.38371 0.79146 0.0
H421 H 0.10935 0.39125 0.96274 0.0
H422 H 0.14993 0.42815 0.71885 0.0
H423 H 0.14124 0.37898 0.71726 0.0
H424 H 0.10063 0.38778 0.70884 0.0
H425 H 0.17217 0.40045 0.98038 0.0
H426 H 0.19512 0.38809 0.9231 0.0
H427 H 0.2062 0.43777 0.93179 0.0
H428 H 0.25418 0.37977 0.76389 0.0
H429 H 0.27971 0.49947 0.77444 0.0
H430 H 0.15177 0.33472 0.77854 0.0
H431 H 0.17125 0.33752 0.84903 0.0
H432 H 0.19257 0.32637 0.78823 0.0
H433 H 0.18371 0.48051 0.79118 0.0
H434 H 0.23411 0.51666 0.80647 0.0
H435 H 0.2027 0.48435 0.86235 0.0
C436 C 0.82873 0.25871 0.938 0.0
C437 C 0.86975 0.27606 0.94067 0.0
C438 C 0.80409 0.21891 0.95121 0.0
C439 C 0.82082 0.19591 0.96843 0.0
C440 C 0.86222 0.21306 0.97062 0.0
C441 C 0.88625 0.25292 0.95623 0.0
C442 C 0.76007 0.20158 0.94735 0.0
C443 C 0.88106 0.18954 0.9894 0.0
C444 C 0.75018 0.1058 0.0544 0.0
C445 C 0.73534 0.07667 0.01165 0.0
C446 C 0.77979 0.14435 0.04171 0.0
C447 C 0.79455 0.15407 0.98477 0.0
C448 C 0.7811 0.12436 0.94219 0.0
C449 C 0.75183 0.08597 0.95623 0.0
C450 C 0.79383 0.1751 0.08854 0.0
C451 C 0.79587 0.13357 0.88089 0.0
H452 H 0.81577 0.27634 0.92561 0.0
H453 H 0.91794 0.26623 0.95872 0.0
H454 H 0.74721 0.17573 0.91822 0.0
H455 H 0.74662 0.19122 0.99046 0.0
H456 H 0.75183 0.22308 0.93119 0.0
H457 H 0.91367 0.20689 0.98726 0.0
H458 H 0.87224 0.1792 0.03432 0.0
H459 H 0.87065 0.16307 0.96193 0.0
H460 H 0.73784 0.09879 0.09744 0.0
H461 H 0.74062 0.06366 0.92289 0.0
H462 H 0.78338 0.19606 0.0794 0.0
H463 H 0.82643 0.19219 0.0896 0.0
H464 H 0.78291 0.162 0.13176 0.0
H465 H 0.78534 0.15218 0.8606 0.0
H466 H 0.78553 0.10659 0.85448 0.0
H467 H 0.82846 0.15043 0.87998 0.0
loop_
_geom_bond_atom_site_label_1
_geom_bond_atom_site_label_2
_geom_bond_distance
_geom_bond_site_symmetry_2
_ccdc_geom_bond_type
Zn0 O3 2.031 . S
Zn0 O5 2.049 1_554 S
Zn0 O10 2.067 1_565 S
Zn1 O2 1.962 . S
Zn1 O4 1.986 . S
Zn1 O6 1.996 1_554 S
Zn1 O9 1.943 . S
O2 Zn1 1.962 . S
O2 C7 1.254 1_545 S
O3 Zn0 2.031 . S
O3 C7 1.269 . S
O4 Zn1 1.986 . S
O4 C11 1.262 . S
O5 Zn0 2.049 1_556 S
O5 C13 1.260 1_565 S
O6 Zn1 1.996 1_556 S
O6 C13 1.257 . S
C7 O2 1.254 1_565 S
C7 O3 1.269 . S
C8 O9 1.249 . S
C8 O10 1.270 . S
O9 Zn1 1.943 . S
O9 C8 1.249 . S
O10 Zn0 2.067 1_545 S
O10 C8 1.270 . S
C11 O4 1.262 . S
C11 O12 1.232 . S
O12 C11 1.232 . S
C13 O5 1.260 1_545 S
C13 O6 1.257 . S
Zn14 O17 2.031 . S
Zn14 O19 2.049 . S
Zn14 O24 2.067 . S
Zn15 O16 1.962 . S
Zn15 O18 1.986 . S
Zn15 O20 1.996 . S
Zn15 O23 1.943 . S
O16 Zn15 1.962 . S
O16 C21 1.254 . S
O17 Zn14 2.031 . S
O17 C21 1.269 . S
O18 Zn15 1.986 . S
O18 C25 1.262 . S
O19 Zn14 2.049 . S
O19 C27 1.260 . S
O20 Zn15 1.996 . S
O20 C27 1.257 . S
C21 O16 1.254 . S
C21 O17 1.269 . S
C22 O23 1.249 . S
C22 O24 1.270 . S
O23 Zn15 1.943 . S
O23 C22 1.249 . S
O24 Zn14 2.067 . S
O24 C22 1.270 . S
C25 O18 1.262 . S
C25 O26 1.232 . S
O26 C25 1.232 . S
C27 O19 1.260 . S
C27 O20 1.257 . S
Zn28 O31 2.031 . S
Zn28 O33 2.049 . S
Zn28 O38 2.067 . S
Zn29 O30 1.962 . S
Zn29 O32 1.986 1_455 S
Zn29 O34 1.996 . S
Zn29 O37 1.943 . S
O30 Zn29 1.962 . S
O30 C35 1.254 . S
O31 Zn28 2.031 . S
O31 C35 1.269 . S
O32 Zn29 1.986 1_655 S
O32 C39 1.262 . S
O33 Zn28 2.049 . S
O33 C41 1.260 . S
O34 Zn29 1.996 . S
O34 C41 1.257 . S
C35 O30 1.254 . S
C35 O31 1.269 . S
C36 O37 1.249 . S
C36 O38 1.270 . S
O37 Zn29 1.943 . S
O37 C36 1.249 . S
O38 Zn28 2.067 . S
O38 C36 1.270 . S
C39 O32 1.262 . S
C39 O40 1.232 . S
O40 C39 1.232 . S
C41 O33 1.260 . S
C41 O34 1.257 . S
Zn42 O45 2.031 . S
Zn42 O47 2.049 . S
Zn42 O52 2.067 . S
Zn43 O44 1.962 . S
Zn43 O46 1.986 1_545 S
Zn43 O48 1.996 . S
Zn43 O51 1.943 . S
O44 Zn43 1.962 . S
O44 C49 1.254 . S
O45 Zn42 2.031 . S
O45 C49 1.269 . S
O46 Zn43 1.986 1_565 S
O46 C53 1.262 . S
O47 Zn42 2.049 . S
O47 C55 1.260 . S
O48 Zn43 1.996 . S
O48 C55 1.257 . S
C49 O44 1.254 . S
C49 O45 1.269 . S
C50 O51 1.249 . S
C50 O52 1.270 . S
O51 Zn43 1.943 . S
O51 C50 1.249 . S
O52 Zn42 2.067 . S
O52 C50 1.270 . S
C53 O46 1.262 . S
C53 O54 1.232 . S
O54 C53 1.232 . S
C55 O47 1.260 . S
C55 O48 1.257 . S
Zn56 O59 2.031 . S
Zn56 O61 2.049 . S
Zn56 O66 2.067 . S
Zn57 O58 1.962 . S
Zn57 O60 1.986 . S
Zn57 O62 1.996 . S
Zn57 O65 1.943 . S
O58 Zn57 1.962 . S
O58 C63 1.254 . S
O59 Zn56 2.031 . S
O59 C63 1.269 . S
O60 Zn57 1.986 . S
O60 C67 1.262 . S
O61 Zn56 2.049 . S
O61 C69 1.260 . S
O62 Zn57 1.996 . S
O62 C69 1.257 . S
C63 O58 1.254 . S
C63 O59 1.269 . S
C64 O65 1.249 . S
C64 O66 1.270 . S
O65 Zn57 1.943 . S
O65 C64 1.249 . S
O66 Zn56 2.067 . S
O66 C64 1.270 . S
C67 O60 1.262 . S
C67 O68 1.232 . S
O68 C67 1.232 . S
C69 O61 1.260 . S
C69 O62 1.257 . S
Zn70 O73 2.031 . S
Zn70 O75 2.049 . S
Zn70 O80 2.067 1_655 S
Zn71 O72 1.962 1_455 S
Zn71 O74 1.986 . S
Zn71 O76 1.996 . S
Zn71 O79 1.943 . S
O72 Zn71 1.962 1_655 S
O72 C77 1.254 . S
O73 Zn70 2.031 . S
O73 C77 1.269 . S
O74 Zn71 1.986 . S
O74 C81 1.262 . S
O75 Zn70 2.049 . S
O75 C83 1.260 1_655 S
O76 Zn71 1.996 . S
O76 C83 1.257 . S
C77 O72 1.254 . S
C77 O73 1.269 . S
C78 O79 1.249 . S
C78 O80 1.270 . S
O79 Zn71 1.943 . S
O79 C78 1.249 . S
O80 Zn70 2.067 1_455 S
O80 C78 1.270 . S
C81 O74 1.262 . S
C81 O82 1.232 . S
O82 C81 1.232 . S
C83 O75 1.260 1_455 S
C83 O76 1.257 . S
C84 C85 1.391 . S
C84 C86 1.394 . S
C84 H100 0.931 . S
C85 C84 1.391 . S
C85 C89 1.376 . S
C86 C84 1.394 . S
C86 C87 1.369 . S
C86 C90 1.531 . S
C87 C86 1.369 . S
C87 C88 1.410 . S
C87 C95 1.503 . S
C88 C87 1.410 . S
C88 C89 1.392 . S
C88 C91 1.511 . S
C89 C85 1.376 . S
C89 C88 1.392 . S
C89 H101 0.929 . S
C90 C86 1.531 . S
C90 H102 0.960 1_545 S
C90 H103 0.962 . S
C90 H104 0.960 1_545 S
C91 C88 1.511 . S
C91 H105 0.961 . S
C91 H106 0.961 . S
C91 H107 0.961 . S
C92 C93 1.370 . S
C92 C94 1.363 . S
C92 H108 0.931 . S
C93 C92 1.370 . S
C93 C97 1.408 1_545 S
C94 C92 1.363 . S
C94 C95 1.370 . S
C94 C98 1.524 . S
C95 C87 1.503 . S
C95 C94 1.370 . S
C95 C96 1.403 1_545 S
C96 C95 1.403 1_565 S
C96 C97 1.404 . S
C96 C99 1.539 . S
C97 C93 1.408 1_565 S
C97 C96 1.404 . S
C97 H109 0.930 . S
C98 C94 1.524 . S
C98 H110 0.956 . S
C98 H111 0.961 . S
C98 H112 0.961 . S
C99 C96 1.539 . S
C99 H113 0.958 . S
C99 H114 0.961 . S
C99 H115 0.960 . S
H100 C84 0.931 . S
H101 C89 0.929 . S
H102 C90 0.960 1_565 S
H103 C90 0.962 . S
H104 C90 0.960 1_565 S
H105 C91 0.961 . S
H106 C91 0.961 . S
H107 C91 0.961 . S
H108 C92 0.931 . S
H109 C97 0.930 . S
H110 C98 0.956 . S
H111 C98 0.961 . S
H112 C98 0.961 . S
H113 C99 0.958 . S
H114 C99 0.961 . S
H115 C99 0.960 . S
C116 C117 1.391 . S
C116 C118 1.394 . S
C116 H132 0.931 . S
C117 C116 1.391 . S
C117 C121 1.376 . S
C118 C116 1.394 . S
C118 C119 1.369 . S
C118 C122 1.531 . S
C119 C118 1.369 . S
C119 C120 1.410 . S
C119 C127 1.503 . S
C120 C119 1.410 . S
C120 C121 1.392 . S
C120 C123 1.511 . S
C121 C117 1.376 . S
C121 C120 1.392 . S
C121 H133 0.929 . S
C122 C118 1.531 . S
C122 H134 0.960 . S
C122 H135 0.962 . S
C122 H136 0.960 . S
C123 C120 1.511 . S
C123 H137 0.961 . S
C123 H138 0.961 . S
C123 H139 0.961 . S
C124 C125 1.370 . S
C124 C126 1.363 . S
C124 H140 0.931 . S
C125 C124 1.370 . S
C125 C129 1.408 . S
C126 C124 1.363 . S
C126 C127 1.370 . S
C126 C130 1.524 . S
C127 C119 1.503 . S
C127 C126 1.370 . S
C127 C128 1.403 . S
C128 C127 1.403 . S
C128 C129 1.404 . S
C128 C131 1.539 . S
C129 C125 1.408 . S
C129 C128 1.404 . S
C129 H141 0.930 . S
C130 C126 1.524 . S
C130 H142 0.956 . S
C130 H143 0.961 . S
C130 H144 0.961 . S
C131 C128 1.539 . S
C131 H145 0.958 . S
C131 H146 0.961 . S
C131 H147 0.960 . S
H132 C116 0.931 . S
H133 C121 0.929 . S
H134 C122 0.960 . S
H135 C122 0.962 . S
H136 C122 0.960 . S
H137 C123 0.961 . S
H138 C123 0.961 . S
H139 C123 0.961 . S
H140 C124 0.931 . S
H141 C129 0.930 . S
H142 C130 0.956 . S
H143 C130 0.961 . S
H144 C130 0.961 . S
H145 C131 0.958 . S
H146 C131 0.961 . S
H147 C131 0.960 . S
C148 C149 1.391 . S
C148 C150 1.394 . S
C148 H164 0.931 . S
C149 C148 1.391 . S
C149 C153 1.376 . S
C150 C148 1.394 . S
C150 C151 1.369 . S
C150 C154 1.531 . S
C151 C150 1.369 . S
C151 C152 1.410 . S
C151 C159 1.503 . S
C152 C151 1.410 . S
C152 C153 1.392 . S
C152 C155 1.511 1_455 S
C153 C149 1.376 . S
C153 C152 1.392 . S
C153 H165 0.929 . S
C154 C150 1.531 . S
C154 H166 0.960 . S
C154 H167 0.962 . S
C154 H168 0.960 . S
C155 C152 1.511 1_655 S
C155 H169 0.961 . S
C155 H170 0.961 1_655 S
C155 H171 0.961 . S
C156 C157 1.370 . S
C156 C158 1.363 . S
C156 H172 0.931 . S
C157 C156 1.370 . S
C157 C161 1.408 1_455 S
C158 C156 1.363 . S
C158 C159 1.370 . S
C158 C162 1.524 . S
C159 C151 1.503 . S
C159 C158 1.370 . S
C159 C160 1.403 1_455 S
C160 C159 1.403 1_655 S
C160 C161 1.404 . S
C160 C163 1.539 . S
C161 C157 1.408 1_655 S
C161 C160 1.404 . S
C161 H173 0.930 . S
C162 C158 1.524 . S
C162 H174 0.956 . S
C162 H175 0.961 . S
C162 H176 0.961 . S
C163 C160 1.539 . S
C163 H177 0.958 . S
C163 H178 0.961 . S
C163 H179 0.960 . S
H164 C148 0.931 . S
H165 C153 0.929 . S
H166 C154 0.960 . S
H167 C154 0.962 . S
H168 C154 0.960 . S
H169 C155 0.961 . S
H170 C155 0.961 1_455 S
H171 C155 0.961 . S
H172 C156 0.931 . S
H173 C161 0.930 . S
H174 C162 0.956 . S
H175 C162 0.961 . S
H176 C162 0.961 . S
H177 C163 0.958 . S
H178 C163 0.961 . S
H179 C163 0.960 . S
C180 C181 1.375 1_565 S
C180 C182 1.383 . S
C180 H196 0.957 . S
C181 C180 1.375 1_545 S
C181 C185 1.376 . S
C182 C180 1.383 . S
C182 C183 1.369 1_565 S
C182 C186 1.531 . S
C183 C182 1.369 1_545 S
C183 C184 1.410 . S
C183 C191 1.503 . S
C184 C183 1.410 . S
C184 C185 1.392 . S
C184 C187 1.511 . S
C185 C181 1.376 . S
C185 C184 1.392 . S
C185 H197 0.929 . S
C186 C182 1.531 . S
C186 H198 0.960 . S
C186 H199 0.962 . S
C186 H200 0.960 . S
C187 C184 1.511 . S
C187 H201 0.961 . S
C187 H202 0.961 . S
C187 H203 0.961 . S
C188 C189 1.370 . S
C188 C190 1.363 . S
C188 H204 0.931 . S
C189 C188 1.370 . S
C189 C193 1.408 . S
C190 C188 1.363 . S
C190 C191 1.370 . S
C190 C194 1.524 . S
C191 C183 1.503 . S
C191 C190 1.370 . S
C191 C192 1.403 . S
C192 C191 1.403 . S
C192 C193 1.404 . S
C192 C195 1.539 . S
C193 C189 1.408 . S
C193 C192 1.404 . S
C193 H205 0.930 . S
C194 C190 1.524 . S
C194 H206 0.956 1_545 S
C194 H207 0.961 . S
C194 H208 0.961 . S
C195 C192 1.539 . S
C195 H209 0.958 . S
C195 H210 0.961 . S
C195 H211 0.960 . S
H196 C180 0.957 . S
H197 C185 0.929 . S
H198 C186 0.960 . S
H199 C186 0.962 . S
H200 C186 0.960 . S
H201 C187 0.961 . S
H202 C187 0.961 . S
H203 C187 0.961 . S
H204 C188 0.931 . S
H205 C193 0.930 . S
H206 C194 0.956 1_565 S
H207 C194 0.961 . S
H208 C194 0.961 . S
H209 C195 0.958 . S
H210 C195 0.961 . S
H211 C195 0.960 . S
C212 C213 1.391 . S
C212 C214 1.394 . S
C212 H228 0.931 . S
C213 C212 1.391 . S
C213 C217 1.376 . S
C214 C212 1.394 . S
C214 C215 1.369 . S
C214 C218 1.531 . S
C215 C214 1.369 . S
C215 C216 1.410 . S
C215 C223 1.503 1_554 S
C216 C215 1.410 . S
C216 C217 1.392 . S
C216 C219 1.511 1_554 S
C217 C213 1.376 . S
C217 C216 1.392 . S
C217 H229 0.929 . S
C218 C214 1.531 . S
C218 H230 0.960 . S
C218 H231 0.962 1_554 S
C218 H232 0.960 . S
C219 C216 1.511 1_556 S
C219 H233 0.961 1_556 S
C219 H234 0.961 . S
C219 H235 0.961 1_556 S
C220 C221 1.370 . S
C220 C222 1.363 . S
C220 H236 0.931 . S
C221 C220 1.370 . S
C221 C225 1.408 . S
C222 C220 1.363 . S
C222 C223 1.370 . S
C222 C226 1.524 . S
C223 C215 1.503 1_556 S
C223 C222 1.370 . S
C223 C224 1.403 . S
C224 C223 1.403 . S
C224 C225 1.404 . S
C224 C227 1.539 1_556 S
C225 C221 1.408 . S
C225 C224 1.404 . S
C225 H237 0.930 . S
C226 C222 1.524 . S
C226 H238 0.956 . S
C226 H239 0.961 . S
C226 H240 0.961 . S
C227 C224 1.539 1_554 S
C227 H241 0.958 . S
C227 H242 0.961 . S
C227 H243 0.960 . S
H228 C212 0.931 . S
H229 C217 0.929 . S
H230 C218 0.960 . S
H231 C218 0.962 1_556 S
H232 C218 0.960 . S
H233 C219 0.961 1_554 S
H234 C219 0.961 . S
H235 C219 0.961 1_554 S
H236 C220 0.931 . S
H237 C225 0.930 . S
H238 C226 0.956 . S
H239 C226 0.961 . S
H240 C226 0.961 . S
H241 C227 0.958 . S
H242 C227 0.961 . S
H243 C227 0.960 . S
C244 C245 1.391 . S
C244 C246 1.394 . S
C244 H260 0.931 1_455 S
C245 C244 1.391 . S
C245 C249 1.376 . S
C246 C244 1.394 . S
C246 C247 1.369 . S
C246 C250 1.531 1_455 S
C247 C246 1.369 . S
C247 C248 1.410 . S
C247 C255 1.503 . S
C248 C247 1.410 . S
C248 C249 1.392 . S
C248 C251 1.511 . S
C249 C245 1.376 . S
C249 C248 1.392 . S
C249 H261 0.929 . S
C250 C246 1.531 1_655 S
C250 H262 0.960 . S
C250 H263 0.962 . S
C250 H264 0.960 . S
C251 C248 1.511 . S
C251 H265 0.961 . S
C251 H266 0.961 . S
C251 H267 0.961 . S
C252 C253 1.370 . S
C252 C254 1.363 . S
C252 H268 0.931 1_455 S
C253 C252 1.370 . S
C253 C257 1.408 . S
C254 C252 1.363 . S
C254 C255 1.370 . S
C254 C258 1.524 1_455 S
C255 C247 1.503 . S
C255 C254 1.370 . S
C255 C256 1.403 . S
C256 C255 1.403 . S
C256 C257 1.404 . S
C256 C259 1.539 . S
C257 C253 1.408 . S
C257 C256 1.404 . S
C257 H269 0.930 . S
C258 C254 1.524 1_655 S
C258 H270 0.956 . S
C258 H271 0.961 1_655 S
C258 H272 0.961 . S
C259 C256 1.539 . S
C259 H273 0.958 . S
C259 H274 0.961 . S
C259 H275 0.960 . S
H260 C244 0.931 1_655 S
H261 C249 0.929 . S
H262 C250 0.960 . S
H263 C250 0.962 . S
H264 C250 0.960 . S
H265 C251 0.961 . S
H266 C251 0.961 . S
H267 C251 0.961 . S
H268 C252 0.931 1_655 S
H269 C257 0.930 . S
H270 C258 0.956 . S
H271 C258 0.961 1_455 S
H272 C258 0.961 . S
H273 C259 0.958 . S
H274 C259 0.961 . S
H275 C259 0.960 . S
C276 C277 1.391 . S
C276 C278 1.394 . S
C276 H292 0.931 . S
C277 C276 1.391 . S
C277 C281 1.376 . S
C278 C276 1.394 . S
C278 C279 1.369 . S
C278 C282 1.531 . S
C279 C278 1.369 . S
C279 C280 1.410 . S
C279 C287 1.503 . S
C280 C279 1.410 . S
C280 C281 1.392 . S
C280 C283 1.511 . S
C281 C277 1.376 . S
C281 C280 1.392 . S
C281 H293 0.929 . S
C282 C278 1.531 . S
C282 H294 0.960 . S
C282 H295 0.962 . S
C282 H296 0.960 . S
C283 C280 1.511 . S
C283 H297 0.961 . S
C283 H298 0.961 . S
C283 H299 0.961 . S
C284 C285 1.370 . S
C284 C286 1.363 . S
C284 H300 0.931 . S
C285 C284 1.370 . S
C285 C289 1.408 . S
C286 C284 1.363 . S
C286 C287 1.370 . S
C286 C290 1.524 . S
C287 C279 1.503 . S
C287 C286 1.370 . S
C287 C288 1.403 . S
C288 C287 1.403 . S
C288 C289 1.404 . S
C288 C291 1.539 . S
C289 C285 1.408 . S
C289 C288 1.404 . S
C289 H301 0.930 . S
C290 C286 1.524 . S
C290 H302 0.956 . S
C290 H303 0.961 . S
C290 H304 0.961 . S
C291 C288 1.539 . S
C291 H305 0.958 . S
C291 H306 0.961 . S
C291 H307 0.960 . S
H292 C276 0.931 . S
H293 C281 0.929 . S
H294 C282 0.960 . S
H295 C282 0.962 . S
H296 C282 0.960 . S
H297 C283 0.961 . S
H298 C283 0.961 . S
H299 C283 0.961 . S
H300 C284 0.931 . S
H301 C289 0.930 . S
H302 C290 0.956 . S
H303 C290 0.961 . S
H304 C290 0.961 . S
H305 C291 0.958 . S
H306 C291 0.961 . S
H307 C291 0.960 . S
C308 C309 1.391 . S
C308 C310 1.394 . S
C308 H324 0.931 . S
C309 C308 1.391 . S
C309 C313 1.376 . S
C310 C308 1.394 . S
C310 C311 1.369 . S
C310 C314 1.531 . S
C311 C310 1.369 . S
C311 C312 1.410 . S
C311 C319 1.503 . S
C312 C311 1.410 . S
C312 C313 1.392 . S
C312 C315 1.511 . S
C313 C309 1.376 . S
C313 C312 1.392 . S
C313 H325 0.929 . S
C314 C310 1.531 . S
C314 H326 0.960 . S
C314 H327 0.962 . S
C314 H328 0.960 . S
C315 C312 1.511 . S
C315 H329 0.961 . S
C315 H330 0.961 . S
C315 H331 0.961 . S
C316 C317 1.370 . S
C316 C318 1.363 . S
C316 H332 0.931 . S
C317 C316 1.370 . S
C317 C321 1.408 . S
C318 C316 1.363 . S
C318 C319 1.370 . S
C318 C322 1.524 . S
C319 C311 1.503 . S
C319 C318 1.370 . S
C319 C320 1.403 . S
C320 C319 1.403 . S
C320 C321 1.404 . S
C320 C323 1.539 . S
C321 C317 1.408 . S
C321 C320 1.404 . S
C321 H333 0.930 . S
C322 C318 1.524 . S
C322 H334 0.956 . S
C322 H335 0.961 . S
C322 H336 0.961 . S
C323 C320 1.539 . S
C323 H337 0.958 . S
C323 H338 0.961 . S
C323 H339 0.960 . S
H324 C308 0.931 . S
H325 C313 0.929 . S
H326 C314 0.960 . S
H327 C314 0.962 . S
H328 C314 0.960 . S
H329 C315 0.961 . S
H330 C315 0.961 . S
H331 C315 0.961 . S
H332 C316 0.931 . S
H333 C321 0.930 . S
H334 C322 0.956 . S
H335 C322 0.961 . S
H336 C322 0.961 . S
H337 C323 0.958 . S
H338 C323 0.961 . S
H339 C323 0.960 . S
C340 C341 1.391 . S
C340 C342 1.394 . S
C340 H356 0.931 . S
C341 C340 1.391 . S
C341 C345 1.376 . S
C342 C340 1.394 . S
C342 C343 1.369 . S
C342 C346 1.531 . S
C343 C342 1.369 . S
C343 C344 1.410 . S
C343 C351 1.503 . S
C344 C343 1.410 . S
C344 C345 1.392 . S
C344 C347 1.511 . S
C345 C341 1.376 . S
C345 C344 1.392 . S
C345 H357 0.929 . S
C346 C342 1.531 . S
C346 H358 0.960 . S
C346 H359 0.962 . S
C346 H360 0.960 . S
C347 C344 1.511 . S
C347 H361 0.961 . S
C347 H362 0.961 . S
C347 H363 0.961 . S
C348 C349 1.370 . S
C348 C350 1.363 . S
C348 H364 0.931 . S
C349 C348 1.370 . S
C349 C353 1.408 . S
C350 C348 1.363 . S
C350 C351 1.370 . S
C350 C354 1.524 . S
C351 C343 1.503 . S
C351 C350 1.370 . S
C351 C352 1.403 . S
C352 C351 1.403 . S
C352 C353 1.404 . S
C352 C355 1.539 . S
C353 C349 1.408 . S
C353 C352 1.404 . S
C353 H365 0.930 . S
C354 C350 1.524 . S
C354 H366 0.956 . S
C354 H367 0.961 . S
C354 H368 0.961 . S
C355 C352 1.539 . S
C355 H369 0.958 . S
C355 H370 0.961 . S
C355 H371 0.960 . S
H356 C340 0.931 . S
H357 C345 0.929 . S
H358 C346 0.960 . S
H359 C346 0.962 . S
H360 C346 0.960 . S
H361 C347 0.961 . S
H362 C347 0.961 . S
H363 C347 0.961 . S
H364 C348 0.931 . S
H365 C353 0.930 . S
H366 C354 0.956 . S
H367 C354 0.961 . S
H368 C354 0.961 . S
H369 C355 0.958 . S
H370 C355 0.961 . S
H371 C355 0.960 . S
C372 C373 1.391 . S
C372 C374 1.394 . S
C372 H388 0.931 . S
C373 C372 1.391 . S
C373 C377 1.376 . S
C374 C372 1.394 . S
C374 C375 1.369 . S
C374 C378 1.531 . S
C375 C374 1.369 . S
C375 C376 1.410 . S
C375 C383 1.503 . S
C376 C375 1.410 . S
C376 C377 1.392 . S
C376 C379 1.511 . S
C377 C373 1.376 . S
C377 C376 1.392 . S
C377 H389 0.929 . S
C378 C374 1.531 . S
C378 H390 0.960 . S
C378 H391 0.962 . S
C378 H392 0.960 . S
C379 C376 1.511 . S
C379 H393 0.961 . S
C379 H394 0.961 . S
C379 H395 0.961 . S
C380 C381 1.370 . S
C380 C382 1.363 . S
C380 H396 0.931 . S
C381 C380 1.370 . S
C381 C385 1.408 . S
C382 C380 1.363 . S
C382 C383 1.370 . S
C382 C386 1.524 . S
C383 C375 1.503 . S
C383 C382 1.370 . S
C383 C384 1.403 . S
C384 C383 1.403 . S
C384 C385 1.404 . S
C384 C387 1.539 . S
C385 C381 1.408 . S
C385 C384 1.404 . S
C385 H397 0.930 . S
C386 C382 1.524 . S
C386 H398 0.956 . S
C386 H399 0.961 . S
C386 H400 0.961 . S
C387 C384 1.539 . S
C387 H401 0.958 . S
C387 H402 0.961 . S
C387 H403 0.960 . S
H388 C372 0.931 . S
H389 C377 0.929 . S
H390 C378 0.960 . S
H391 C378 0.962 . S
H392 C378 0.960 . S
H393 C379 0.961 . S
H394 C379 0.961 . S
H395 C379 0.961 . S
H396 C380 0.931 . S
H397 C385 0.930 . S
H398 C386 0.956 . S
H399 C386 0.961 . S
H400 C386 0.961 . S
H401 C387 0.958 . S
H402 C387 0.961 . S
H403 C387 0.960 . S
C404 C405 1.391 . S
C404 C406 1.394 . S
C404 H420 0.931 . S
C405 C404 1.391 . S
C405 C409 1.376 . S
C406 C404 1.394 . S
C406 C407 1.369 . S
C406 C410 1.531 . S
C407 C406 1.369 . S
C407 C408 1.410 . S
C407 C415 1.503 . S
C408 C407 1.410 . S
C408 C409 1.392 . S
C408 C411 1.511 . S
C409 C405 1.376 . S
C409 C408 1.392 . S
C409 H421 0.929 . S
C410 C406 1.531 . S
C410 H422 0.960 . S
C410 H423 0.962 . S
C410 H424 0.960 . S
C411 C408 1.511 . S
C411 H425 0.961 . S
C411 H426 0.961 . S
C411 H427 0.961 . S
C412 C413 1.370 . S
C412 C414 1.363 . S
C412 H428 0.931 . S
C413 C412 1.370 . S
C413 C417 1.408 . S
C414 C412 1.363 . S
C414 C415 1.370 . S
C414 C418 1.524 . S
C415 C407 1.503 . S
C415 C414 1.370 . S
C415 C416 1.403 . S
C416 C415 1.403 . S
C416 C417 1.404 . S
C416 C419 1.539 . S
C417 C413 1.408 . S
C417 C416 1.404 . S
C417 H429 0.930 . S
C418 C414 1.524 . S
C418 H430 0.956 . S
C418 H431 0.961 . S
C418 H432 0.961 . S
C419 C416 1.539 . S
C419 H433 0.958 . S
C419 H434 0.961 . S
C419 H435 0.960 . S
H420 C404 0.931 . S
H421 C409 0.929 . S
H422 C410 0.960 . S
H423 C410 0.962 . S
H424 C410 0.960 . S
H425 C411 0.961 . S
H426 C411 0.961 . S
H427 C411 0.961 . S
H428 C412 0.931 . S
H429 C417 0.930 . S
H430 C418 0.956 . S
H431 C418 0.961 . S
H432 C418 0.961 . S
H433 C419 0.958 . S
H434 C419 0.961 . S
H435 C419 0.960 . S
C436 C437 1.391 . S
C436 C438 1.394 . S
C436 H452 0.931 . S
C437 C436 1.391 . S
C437 C441 1.376 . S
C438 C436 1.394 . S
C438 C439 1.369 . S
C438 C442 1.531 . S
C439 C438 1.369 . S
C439 C440 1.410 1_556 S
C439 C447 1.503 . S
C440 C439 1.410 1_554 S
C440 C441 1.392 1_554 S
C440 C443 1.511 . S
C441 C437 1.376 . S
C441 C440 1.392 1_556 S
C441 H453 0.929 1_556 S
C442 C438 1.531 . S
C442 H454 0.960 . S
C442 H455 0.962 . S
C442 H456 0.960 . S
C443 C440 1.511 . S
C443 H457 0.961 . S
C443 H458 0.961 . S
C443 H459 0.961 . S
C444 C445 1.370 . S
C444 C446 1.363 . S
C444 H460 0.931 . S
C445 C444 1.370 . S
C445 C449 1.408 . S
C446 C444 1.363 . S
C446 C447 1.370 1_554 S
C446 C450 1.524 . S
C447 C439 1.503 . S
C447 C446 1.370 1_556 S
C447 C448 1.403 . S
C448 C447 1.403 . S
C448 C449 1.404 1_556 S
C448 C451 1.539 . S
C449 C445 1.408 . S
C449 C448 1.404 1_554 S
C449 H461 0.930 . S
C450 C446 1.524 . S
C450 H462 0.956 1_554 S
C450 H463 0.961 . S
C450 H464 0.961 . S
C451 C448 1.539 . S
C451 H465 0.958 . S
C451 H466 0.961 1_556 S
C451 H467 0.960 . S
H452 C436 0.931 . S
H453 C441 0.929 1_554 S
H454 C442 0.960 . S
H455 C442 0.962 . S
H456 C442 0.960 . S
H457 C443 0.961 . S
H458 C443 0.961 . S
H459 C443 0.961 . S
H460 C444 0.931 . S
H461 C449 0.930 . S
H462 C450 0.956 1_556 S
H463 C450 0.961 . S
H464 C450 0.961 . S
H465 C451 0.958 . S
H466 C451 0.961 1_554 S
H467 C451 0.960 . S
C85 C8 1.375 . S
C93 C55 1.365 . S
C117 C22 1.379 . S
C125 C69 1.363 . S
C149 C83 1.319 . S
C157 C36 1.391 . S
C181 C13 1.341 . S
C189 C50 1.395 . S
C213 C27 1.333 . S
C221 C64 1.397 . S
C245 C78 1.416 1_554 S
C253 C41 1.336 . S
C277 C25 1.426 . S
C285 C7 1.422 . S
C309 C39 1.432 . S
C317 C21 1.416 . S
C341 C35 1.396 . S
C349 C53 1.429 . S
C373 C67 1.425 . S
C381 C49 1.423 . S
C405 C81 1.432 . S
C413 C63 1.411 . S
C437 C77 1.430 . S
C445 C11 1.425 . S
