# Generated by pormake.
# Topology bcg, (8)-cn, num edge types: 1
# Building blocks:
#     Node 0, Type 0, BuildingBlock: NUHRAL_clean_sbu_3, # of connection points: 8
#     Node 1, Type 0, BuildingBlock: NUHRAL_clean_sbu_3, # of connection points: 8
#     Node 2, Type 0, BuildingBlock: NUHRAL_clean_sbu_3, # of connection points: 8
#     Node 3, Type 0, BuildingBlock: NUHRAL_clean_sbu_3, # of connection points: 8
#     Edge 4, Type (0, 0), BuildingBlock: XIVTED_clean_linker_0, # of connection points: 2
#     Edge 5, Type (0, 0), BuildingBlock: XIVTED_clean_linker_0, # of connection points: 2
#     Edge 6, Type (0, 0), BuildingBlock: XIVTED_clean_linker_0, # of connection points: 2
#     Edge 7, Type (0, 0), BuildingBlock: XIVTED_clean_linker_0, # of connection points: 2
#     Edge 8, Type (0, 0), BuildingBlock: XIVTED_clean_linker_0, # of connection points: 2
#     Edge 9, Type (0, 0), BuildingBlock: XIVTED_clean_linker_0, # of connection points: 2
#     Edge 10, Type (0, 0), BuildingBlock: XIVTED_clean_linker_0, # of connection points: 2
#     Edge 11, Type (0, 0), BuildingBlock: XIVTED_clean_linker_0, # of connection points: 2
#     Edge 12, Type (0, 0), BuildingBlock: XIVTED_clean_linker_0, # of connection points: 2
#     Edge 13, Type (0, 0), BuildingBlock: XIVTED_clean_linker_0, # of connection points: 2
#     Edge 14, Type (0, 0), BuildingBlock: XIVTED_clean_linker_0, # of connection points: 2
#     Edge 15, Type (0, 0), BuildingBlock: XIVTED_clean_linker_0, # of connection points: 2
#     Edge 16, Type (0, 0), BuildingBlock: XIVTED_clean_linker_0, # of connection points: 2
#     Edge 17, Type (0, 0), BuildingBlock: XIVTED_clean_linker_0, # of connection points: 2
#     Edge 18, Type (0, 0), BuildingBlock: XIVTED_clean_linker_0, # of connection points: 2
#     Edge 19, Type (0, 0), BuildingBlock: XIVTED_clean_linker_0, # of connection points: 2
# Relax obj value: 0.166
# Max RMSD: 0.235
# Mean RMSD: 0.235
data_MOF--net-bcg--node1-NUHRAL_clean_sbu_3--edge1-XIVTED_clean_linker_0
_symmetry_space_group_name_H-M    P1
_symmetry_Int_Tables_number       1
_symmetry_cell_setting            triclinic
loop_
_symmetry_equiv_pos_as_xyz
'x, y, z'
_cell_length_a     22.189205
_cell_length_b     17.424028
_cell_length_c     33.708372
_cell_angle_alpha  80.196158
_cell_angle_beta   90.106545
_cell_angle_gamma 90.078547
loop_
_atom_site_label
_atom_site_type_symbol
_atom_site_fract_x
_atom_site_fract_y
_atom_site_fract_z
_atom_type_partial_charge
C0 C 0.06219 0.39475 0.05605 0.0
C1 C 1.01368 0.39794 0.02908 0.0
C2 C 0.95456 0.40449 0.04273 0.0
C3 C 0.94488 0.41036 0.08314 0.0
C4 C 0.99255 0.40222 0.11092 0.0
C5 C 0.05162 0.39645 0.09695 0.0
O6 O 0.2253 0.2567 0.98009 0.0
Tb7 Tb 0.17642 0.36566 0.97921 0.0
O8 O 0.12085 0.38718 0.92539 0.0
O9 O 0.25939 0.15028 0.02119 0.0
Eu10 Eu 0.34864 0.21317 0.01856 0.0
O11 O 0.14799 0.44007 0.018 0.0
C12 C 0.40373 0.20133 0.9519 0.0
O13 O 0.13302 0.31374 0.03197 0.0
O14 O 0.29607 0.32405 0.0185 0.0
O15 O 0.2621 0.42772 0.9756 0.0
C16 C 0.12347 0.38179 0.04272 0.0
C17 C 0.37727 0.15757 0.10862 0.0
O18 O 0.32157 0.13332 0.10576 0.0
C19 C 0.2135 0.18954 0.00304 0.0
C20 C 0.30765 0.39083 0.99538 0.0
O21 O 0.40423 0.19196 0.0756 0.0
C22 C 0.46456 0.19573 0.93564 0.0
C23 C 0.52985 0.17982 0.87948 0.0
C24 C 0.47197 0.17943 0.89637 0.0
C25 C 0.51504 0.21243 0.9579 0.0
C26 C 0.5729 0.21104 0.94149 0.0
C27 C 0.5798 0.19288 0.90293 0.0
C28 C 0.13696 0.44138 0.89522 0.0
O29 O 0.18417 0.48474 0.89963 0.0
O30 O 0.38428 0.14066 0.97741 0.0
O31 O 0.39002 0.26829 0.9626 0.0
H32 H 0.02178 0.39201 -0.00198 0.0
H33 H 0.89914 0.41446 0.09382 0.0
H34 H 0.08895 0.38896 0.11805 0.0
H35 H 0.43282 0.17007 0.8785 0.0
H36 H 0.50918 0.22777 0.98752 0.0
H37 H 0.6246 0.1933 0.89005 0.0
C38 C 0.58984 0.82906 0.05502 0.0
C39 C 0.53841 0.80805 0.03432 0.0
C40 C 0.48127 0.80365 0.0531 0.0
C41 C 0.47675 0.81901 0.09252 0.0
C42 C 0.52711 0.84009 0.1133 0.0
C43 C 0.58373 0.84382 0.09463 0.0
O44 O 0.71611 0.71548 0.96049 0.0
Tb45 Tb 0.7146 0.83069 0.9764 0.0
O46 O 0.66842 0.86992 0.91986 0.0
O47 O 0.74435 0.63696 0.01829 0.0
Eu48 Eu 0.83587 0.69312 0.01702 0.0
O49 O 0.65031 0.89568 0.0014 0.0
C50 C 0.90386 0.66783 0.9579 0.0
O51 O 0.68759 0.78752 0.03592 0.0
O52 O 0.84118 0.81448 0.0315 0.0
O53 O 0.80077 0.89078 0.97532 0.0
C54 C 0.64925 0.84545 0.03532 0.0
C55 C 0.85942 0.59887 0.10345 0.0
O56 O 0.80708 0.56814 0.0967 0.0
C57 C 0.70713 0.65352 0.98775 0.0
C58 C 0.84026 0.87924 0.00496 0.0
O59 O 0.88377 0.65076 0.07524 0.0
C60 C 0.96507 0.6772 0.94032 0.0
C61 C 0.02839 0.67957 0.88095 0.0
C62 C 0.9712 0.67625 0.89887 0.0
C63 C 1.01717 0.6822 0.96403 0.0
C64 C 0.07498 0.68365 0.94643 0.0
C65 C 0.07964 0.68145 0.90519 0.0
C66 C 0.69794 0.86585 0.88658 0.0
O67 O 0.75464 0.84381 0.88942 0.0
O68 O 0.89792 0.61845 0.99179 0.0
O69 O 0.8694 0.73002 0.95567 0.0
H70 H 0.54245 0.79831 0.00353 0.0
H71 H 0.43316 0.81496 0.10727 0.0
H72 H 0.62265 0.86191 0.11025 0.0
H73 H 0.93131 0.67353 0.88053 0.0
H74 H 1.01282 0.68346 0.99593 0.0
H75 H 0.12397 0.68286 0.89159 0.0
C76 C 0.05679 0.64516 0.43721 0.0
C77 C 1.00827 0.66821 0.45912 0.0
C78 C 0.94955 0.66714 0.44381 0.0
C79 C 0.94 0.64454 0.40638 0.0
C80 C 0.98786 0.62128 0.38411 0.0
C81 C 0.04649 0.62138 0.39996 0.0
O82 O 0.22565 0.77707 0.51012 0.0
Tb83 Tb 0.17768 0.66711 0.51271 0.0
O84 O 0.12908 0.65261 0.56927 0.0
O85 O 0.25627 0.88554 0.46972 0.0
Eu86 Eu 0.34711 0.82573 0.4745 0.0
O87 O 0.138 0.5908 0.47846 0.0
C88 C 0.39821 0.84153 0.54209 0.0
O89 O 0.13622 0.71775 0.45901 0.0
O90 O 0.29876 0.71169 0.47333 0.0
O91 O 0.26387 0.60645 0.51492 0.0
C92 C 0.11897 0.6495 0.45143 0.0
C93 C 0.39155 0.89724 0.38826 0.0
O94 O 0.34242 0.93837 0.39034 0.0
C95 C 0.21155 0.84405 0.48796 0.0
C96 C 0.31006 0.64504 0.49677 0.0
O97 O 0.40781 0.84683 0.42004 0.0
C98 C 0.45856 0.8517 0.55833 0.0
C99 C 0.52351 0.86473 0.61514 0.0
C100 C 0.46553 0.86131 0.59875 0.0
C101 C 0.50956 0.84598 0.53446 0.0
C102 C 0.5675 0.85029 0.55062 0.0
C103 C 0.57389 0.8613 0.59056 0.0
C104 C 0.16281 0.65751 0.60078 0.0
O105 O 0.22118 0.66655 0.59519 0.0
O106 O 0.37715 0.90054 0.51618 0.0
O107 O 0.38752 0.77352 0.5315 0.0
H108 H 1.01622 0.68712 0.48772 0.0
H109 H 0.89487 0.64836 0.39383 0.0
H110 H 0.08427 0.60381 0.38325 0.0
H111 H 0.42628 0.8622 0.61778 0.0
H112 H 0.50409 0.83587 0.50378 0.0
H113 H 0.6186 0.86164 0.60363 0.0
C114 C 0.58781 0.20376 0.44333 0.0
C115 C 0.53885 0.22921 0.46457 0.0
C116 C 0.48239 0.24463 0.44541 0.0
C117 C 0.47542 0.23252 0.40556 0.0
C118 C 0.52292 0.2051 0.38449 0.0
C119 C 0.57944 0.19247 0.40327 0.0
O120 O 0.71021 0.30723 0.53988 0.0
Tb121 Tb 0.71249 0.19342 0.52207 0.0
O122 O 0.66714 0.14942 0.57827 0.0
O123 O 0.74256 0.38761 0.4835 0.0
Eu124 Eu 0.83325 0.32963 0.48425 0.0
O125 O 0.64597 0.13182 0.49667 0.0
C126 C 0.90524 0.36017 0.54039 0.0
O127 O 0.68782 0.23679 0.46214 0.0
O128 O 0.84062 0.20958 0.46868 0.0
O129 O 0.79781 0.13121 0.52316 0.0
C130 C 0.64681 0.18178 0.46265 0.0
C131 C 0.84101 0.35623 0.39256 0.0
O132 O 0.78553 0.33081 0.39921 0.0
C133 C 0.70431 0.37126 0.51342 0.0
C134 C 0.83721 0.14306 0.49359 0.0
O135 O 0.87394 0.36747 0.42337 0.0
C136 C 0.96564 0.35309 0.55947 0.0
C137 C 0.02725 0.3721 0.6172 0.0
C138 C 0.97079 0.37128 0.59844 0.0
C139 C 0.01805 0.33462 0.53919 0.0
C140 C 0.0748 0.3326 0.55848 0.0
C141 C 0.07851 0.35159 0.5972 0.0
C142 C 0.69937 0.14073 0.6114 0.0
O143 O 0.75776 0.15304 0.60827 0.0
O144 O 0.90021 0.40484 0.5049 0.0
O145 O 0.86933 0.29883 0.54534 0.0
H146 H 0.54455 0.23649 0.49565 0.0
H147 H 0.43177 0.24243 0.39107 0.0
H148 H 0.61628 0.17052 0.38732 0.0
H149 H 0.93094 0.3876 0.61361 0.0
H150 H 1.01466 0.32159 0.50896 0.0
H151 H 0.12214 0.35106 0.61183 0.0
H152 H 0.58576 0.34393 0.97355 0.0
H153 H 0.94231 0.28833 -0.00136 0.0
H154 H 0.68224 0.1397 0.95274 0.0
H155 H 0.84636 0.48156 0.03356 0.0
H156 H 0.84808 0.24116 0.97441 0.0
H157 H 0.68075 0.39901 0.99313 0.0
C158 C 0.62672 0.30999 0.97407 0.0
C159 C 0.62642 0.23727 0.96156 0.0
C160 C 0.84767 0.29451 0.98685 0.0
C161 C 0.73493 0.3007 0.98259 0.0
C162 C 0.9017 0.32225 4e-05 0.0
C163 C 0.90206 0.38887 0.01823 0.0
C164 C 0.79366 0.33365 0.99194 0.0
C165 C 0.84784 0.42965 0.01994 0.0
C166 C 0.68094 0.34187 0.98466 0.0
C167 C 0.6808 0.1962 0.96201 0.0
N168 N 0.7956 0.4009 0.00739 0.0
N169 N 0.73295 0.22873 0.97205 0.0
H170 H 0.10229 0.79239 0.99371 0.0
H171 H 0.45453 0.6805 0.01391 0.0
H172 H 0.17772 0.59595 0.94901 0.0
H173 H 0.37762 0.88794 0.04679 0.0
H174 H 0.35412 0.64521 0.99122 0.0
H175 H 0.20241 0.82157 0.01829 0.0
C176 C 0.13966 0.75436 0.98992 0.0
C177 C 0.13167 0.69186 0.96918 0.0
C178 C 0.3594 0.6987 0.00318 0.0
C179 C 0.24697 0.72589 -0.00376 0.0
C180 C 0.41682 0.71921 0.01568 0.0
C181 C 0.42439 0.78705 0.03244 0.0
C182 C 0.30937 0.74641 0.00754 0.0
C183 C 0.37375 0.83471 0.03442 0.0
C184 C 0.19707 0.77158 0.00342 0.0
C185 C 0.18204 0.64511 0.96458 0.0
N186 N 0.31864 0.8133 0.02246 0.0
N187 N 0.23749 0.6633 0.97769 0.0
H188 H 0.58284 0.72878 0.51049 0.0
H189 H 0.93609 0.80243 0.47409 0.0
H190 H 0.67571 0.92706 0.54284 0.0
H191 H 0.8435 0.59084 0.46005 0.0
H192 H 0.8417 0.85266 0.49767 0.0
H193 H 0.67763 0.6839 0.48608 0.0
C194 C 0.623 0.76383 0.51154 0.0
C195 C 0.62161 0.83164 0.52867 0.0
C196 C 0.84227 0.79497 0.48976 0.0
C197 C 0.73058 0.7796 0.50196 0.0
C198 C 0.89617 0.76608 0.47681 0.0
C199 C 0.89717 0.69273 0.46503 0.0
C200 C 0.78942 0.75001 0.4907 0.0
C201 C 0.84424 0.64808 0.46853 0.0
C202 C 0.67732 0.73763 0.49819 0.0
C203 C 0.67518 0.87412 0.53004 0.0
N204 N 0.79242 0.67767 0.48074 0.0
N205 N 0.72771 0.84714 0.51707 0.0
H206 H 0.15671 0.22149 0.58841 0.0
H207 H 0.40575 0.36561 0.41993 0.0
H208 H 0.1244 0.40245 0.48652 0.0
H209 H 0.43353 0.17403 0.51733 0.0
H210 H 0.30543 0.38584 0.44636 0.0
H211 H 0.25865 0.20505 0.56369 0.0
C212 C 0.17088 0.25688 0.56038 0.0
C213 C 0.13186 0.313 0.53929 0.0
C214 C 0.33353 0.3398 0.46223 0.0
C215 C 0.24941 0.29588 0.51122 0.0
C216 C 0.39104 0.32865 0.44737 0.0
C217 C 0.42806 0.2679 0.46643 0.0
C218 C 0.31238 0.28962 0.49643 0.0
C219 C 0.40675 0.22188 0.50187 0.0
C220 C 0.22928 0.24792 0.54645 0.0
C221 C 0.15269 0.35775 0.50336 0.0
N222 N 0.35014 0.23319 0.51549 0.0
N223 N 0.21017 0.34861 0.4906 0.0
H224 H 0.62024 0.67718 0.92969 0.0
H225 H 0.40596 0.33973 0.0406 0.0
H226 H 0.66855 0.52457 0.03996 0.0
H227 H 0.34958 0.51313 0.94044 0.0
H228 H 0.50701 0.39566 0.03555 0.0
H229 H 0.52563 0.60699 0.92831 0.0
C230 C 0.61121 0.62843 0.95349 0.0
C231 C 0.65226 0.6069 0.98516 0.0
C232 C 0.47268 0.42121 0.01452 0.0
C233 C 0.54372 0.52646 0.98372 0.0
C234 C 0.41509 0.38899 0.0172 0.0
C235 C 0.36954 0.42148 0.99068 0.0
C236 C 0.4846 0.48695 0.98534 0.0
C237 C 0.38349 0.48616 0.96139 0.0
C238 C 0.55704 0.58848 0.95268 0.0
C239 C 0.63806 0.54331 0.0151 0.0
N240 N 0.43984 0.51702 0.9596 0.0
N241 N 0.58473 0.50545 0.01374 0.0
H242 H 0.61312 0.34744 0.5683 0.0
H243 H 0.41223 0.6983 0.4558 0.0
H244 H 0.67455 0.50904 0.4646 0.0
H245 H 0.34864 0.52288 0.55272 0.0
H246 H 0.51304 0.64129 0.46412 0.0
H247 H 0.5209 0.42251 0.5685 0.0
C248 C 0.60756 0.39924 0.54576 0.0
C249 C 0.65145 0.42153 0.5161 0.0
C250 C 0.47715 0.6157 0.48379 0.0
C251 C 0.54538 0.5077 0.51608 0.0
C252 C 0.41968 0.64845 0.47918 0.0
C253 C 0.37207 0.61535 0.50365 0.0
C254 C 0.48685 0.54901 0.51289 0.0
C255 C 0.38401 0.55018 0.53315 0.0
C256 C 0.55469 0.44204 0.54587 0.0
C257 C 0.64167 0.48937 0.4878 0.0
N258 N 0.44014 0.51891 0.53679 0.0
N259 N 0.58938 0.52981 0.4883 0.0
H260 H 0.17251 0.07924 0.06395 0.0
H261 H 0.86328 1.01652 0.95324 0.0
H262 H 0.11454 0.22864 0.95522 0.0
H263 H 0.92208 0.87879 0.06543 0.0
H264 H 0.94768 0.10591 0.95719 0.0
H265 H 0.07413 1.01631 0.06896 0.0
C266 C 0.13871 0.09934 0.04134 0.0
C267 C 0.1517 0.15871 0.00896 0.0
C268 C 0.94159 0.05651 0.9811 0.0
C269 C 0.03905 0.08622 0.01408 0.0
C270 C 0.89343 1.0055 0.97888 0.0
C271 C 0.88611 0.9393 0.0087 0.0
C272 C 0.98265 0.04083 0.01326 0.0
C273 C 0.92629 0.9283 0.04138 0.0
C274 C 0.08244 0.06347 0.0442 0.0
C275 C 0.10617 0.18298 0.98066 0.0
N276 N 0.97303 0.97798 0.04254 0.0
N277 N 0.05197 0.14589 0.98356 0.0
H278 H 0.90424 0.13569 0.42687 0.0
H279 H 0.11686 0.79746 0.53773 0.0
H280 H 0.86973 1.01125 0.54678 0.0
H281 H 0.16398 0.95528 0.42939 0.0
H282 H 1.01575 0.85397 0.53466 0.0
H283 H 0.98755 0.04821 0.42072 0.0
C284 C 0.91381 0.0894 0.45186 0.0
C285 C 0.88078 0.08188 0.48781 0.0
C286 C 0.04795 0.87549 0.51128 0.0
C287 C 0.9768 0.98159 0.48092 0.0
C288 C 0.10548 0.84287 0.51284 0.0
C289 C 0.14873 0.87174 0.48376 0.0
C290 C 0.03379 0.93764 0.48046 0.0
C291 C 0.13208 0.93168 0.45256 0.0
C292 C 0.96149 0.03941 0.44826 0.0
C293 C 0.89451 0.0197 0.51874 0.0
N294 N 0.07601 0.963 0.45188 0.0
N295 N 0.94222 0.9725 0.51483 0.0
H296 H 0.58829 0.24688 0.31442 0.0
H297 H 0.32888 0.09594 0.18124 0.0
H298 H 0.43012 0.11965 0.362 0.0
H299 H 0.48939 0.21005 0.12821 0.0
H300 H 0.37013 0.09833 0.24769 0.0
H301 H 0.55898 0.22654 0.2464 0.0
C302 C 0.5479 0.2139 0.3106 0.0
C303 C 0.51103 0.18606 0.34378 0.0
C304 C 0.39688 0.12226 0.22168 0.0
C305 C 0.47709 0.16309 0.26641 0.0
C306 C 0.37318 0.12101 0.18351 0.0
C307 C 0.40552 0.15316 0.14892 0.0
C308 C 0.45361 0.15598 0.22573 0.0
C309 C 0.46284 0.18464 0.15405 0.0
C310 C 0.53104 0.20263 0.27183 0.0
C311 C 0.4592 0.14368 0.3372 0.0
N312 N 0.48496 0.18572 0.19177 0.0
N313 N 0.44363 0.13419 0.2994 0.0
H314 H 0.44639 0.94362 0.13391 0.0
H315 H 0.48995 0.8126 0.37082 0.0
H316 H 0.58708 0.78601 0.18427 0.0
H317 H 0.36429 0.98841 0.31627 0.0
H318 H 0.53247 0.80861 0.30405 0.0
H319 H 0.42162 0.96664 0.20121 0.0
C320 C 0.47256 0.91453 0.15924 0.0
C321 C 0.51839 0.86209 0.1536 0.0
C322 C 0.49606 0.84866 0.30682 0.0
C323 C 0.4904 0.88874 0.23113 0.0
C324 C 0.47176 0.85104 0.34494 0.0
C325 C 0.42301 0.90042 0.34918 0.0
C326 C 0.4712 0.89567 0.2727 0.0
C327 C 0.40146 0.94895 0.31456 0.0
C328 C 0.45859 0.92805 0.19771 0.0
C329 C 0.55135 0.82678 0.18741 0.0
N330 N 0.42527 0.94478 0.27789 0.0
N331 N 0.53622 0.83997 0.22488 0.0
H332 H 0.58206 0.75137 0.66442 0.0
H333 H 0.58301 0.92065 0.86685 0.0
H334 H 0.49079 0.96968 0.66435 0.0
H335 H 0.7409 0.82819 0.817 0.0
H336 H 0.53011 0.91979 0.80245 0.0
H337 H 0.61903 0.75512 0.73226 0.0
C338 C 0.5689 0.79942 0.67914 0.0
C339 C 0.53395 0.8607 0.6588 0.0
C340 C 0.5766 0.901 0.80574 0.0
C341 C 0.57624 0.86541 0.73626 0.0
C342 C 0.60671 0.90106 0.84236 0.0
C343 C 0.66645 0.87413 0.84735 0.0
C344 C 0.60635 0.87276 0.77451 0.0
C345 C 0.69499 0.84942 0.81466 0.0
C346 C 0.59025 0.80173 0.71764 0.0
C347 C 0.51767 0.92139 0.67923 0.0
N348 N 0.66449 0.84854 0.77989 0.0
N349 N 0.53948 0.92272 0.71703 0.0
H350 H 0.48542 0.07185 0.83487 0.0
H351 H 0.75133 0.15891 0.6822 0.0
H352 H 0.59838 0.27583 0.82625 0.0
H353 H 0.58076 0.10416 0.63162 0.0
H354 H 0.70109 0.16488 0.74568 0.0
H355 H 0.52053 0.0548 0.76711 0.0
C356 C 0.51679 0.11337 0.81863 0.0
C357 C 0.54027 0.17422 0.83655 0.0
C358 C 0.67481 0.15081 0.72075 0.0
C359 C 0.58181 0.15294 0.76103 0.0
C360 C 0.70343 0.14693 0.68454 0.0
C361 C 0.67005 0.13221 0.6513 0.0
C362 C 0.61245 0.13884 0.72417 0.0
C363 C 0.60797 0.11676 0.65642 0.0
C364 C 0.53705 0.10315 0.78038 0.0
C365 C 0.58058 0.22668 0.81416 0.0
N366 N 0.58083 0.12077 0.69231 0.0
N367 N 0.60102 0.21384 0.77809 0.0
H368 H 0.89036 0.54378 0.36003 0.0
H369 H 0.96937 0.64735 0.12647 0.0
H370 H 0.0567 0.65495 0.31524 0.0
H371 H 0.81039 0.52045 0.17331 0.0
H372 H 1.00602 0.64238 0.19522 0.0
H373 H 0.86299 0.53023 0.29179 0.0
C374 C 0.92144 0.56506 0.3359 0.0
C375 C 0.97563 0.60176 0.34354 0.0
C376 C 0.9633 0.61524 0.19045 0.0
C377 C 0.94521 0.58353 0.26505 0.0
C378 C 0.94239 0.61781 0.1512 0.0
C379 C 0.88622 0.58539 0.14418 0.0
C380 C 0.92759 0.58041 0.22292 0.0
C381 C 0.85363 0.54694 0.17731 0.0
C382 C 0.90589 0.55661 0.29688 0.0
C383 C 1.0147 0.62575 0.31102 0.0
N384 N 0.87444 0.54642 0.21526 0.0
N385 N 0.99854 0.61662 0.27314 0.0
H386 H 0.78178 0.34584 0.32316 0.0
H387 H 0.05221 0.4582 0.17247 0.0
H388 H 0.95941 0.38122 0.3695 0.0
H389 H 0.90196 0.31424 0.14927 0.0
H390 H 0.02099 0.4416 0.24358 0.0
H391 H 0.82464 0.35104 0.2565 0.0
C392 C 0.82989 0.35474 0.31932 0.0
C393 C 0.86705 0.36329 0.3519 0.0
C394 C 0.99533 0.41355 0.2227 0.0
C395 C 0.9166 0.36868 0.27551 0.0
C396 C 1.01303 0.42295 0.18227 0.0
C397 C 0.97851 0.38971 0.15458 0.0
C398 C 0.94232 0.37206 0.23492 0.0
C399 C 0.92846 0.34401 0.16899 0.0
C400 C 0.85441 0.35719 0.28127 0.0
C401 C 0.92918 0.37464 0.34507 0.0
N402 N 0.91142 0.33764 0.20788 0.0
N403 N 0.95218 0.37743 0.30741 0.0
H404 H 0.04002 0.35837 0.87426 0.0
H405 H 0.11048 0.47152 0.64004 0.0
H406 H 0.17038 0.53222 0.82432 0.0
H407 H 0.95992 0.32627 0.68572 0.0
H408 H 0.12918 0.49875 0.70752 0.0
H409 H 1.00472 0.35189 0.80601 0.0
C410 C 0.06077 0.39582 0.84902 0.0
C411 C 0.1089 0.44503 0.85502 0.0
C412 C 0.09156 0.46164 0.70286 0.0
C413 C 0.0693 0.43704 0.77688 0.0
C414 C 0.0811 0.44564 0.66433 0.0
C415 C 0.03406 0.39565 0.65735 0.0
C416 C 0.05486 0.42739 0.73493 0.0
C417 C 0.99667 0.36512 0.6898 0.0
C418 C 0.04063 0.39199 0.81006 0.0
C419 C 0.13372 0.49264 0.8212 0.0
N420 N 1.00829 0.38076 0.72732 0.0
N421 N 0.11426 0.48657 0.78363 0.0
H422 H 0.22264 0.68805 0.66643 0.0
H423 H 0.97045 0.5939 0.83006 0.0
H424 H 0.04481 0.6332 0.62698 0.0
H425 H 0.10422 0.77359 0.83126 0.0
H426 H 0.9958 0.59129 0.75903 0.0
H427 H 0.18199 0.69759 0.7321 0.0
C428 C 0.17491 0.67778 0.67154 0.0
C429 C 0.13705 0.66007 0.641 0.0
C430 C 0.01883 0.63175 0.77496 0.0
C431 C 0.09011 0.67109 0.71669 0.0
C432 C 1.00438 0.63347 0.81532 0.0
C433 C 0.03623 0.68288 0.83689 0.0
C434 C 0.06607 0.67857 0.75672 0.0
C435 C 0.07985 0.73277 0.81631 0.0
C436 C 0.15169 0.68375 0.70908 0.0
C437 C 0.07547 0.6474 0.64968 0.0
N438 N 0.09412 0.72837 0.77774 0.0
N439 N 0.05375 0.65268 0.687 0.0
loop_
_geom_bond_atom_site_label_1
_geom_bond_atom_site_label_2
_geom_bond_distance
_geom_bond_site_symmetry_2
_ccdc_geom_bond_type
C0 C1 1.387 . S
C0 C5 1.380 . S
C0 C16 1.494 . S
C1 C0 1.387 . S
C1 C2 1.386 1_455 S
C1 H32 0.930 1_455 S
C2 C1 1.386 1_655 S
C2 C3 1.397 . S
C3 C2 1.397 . S
C3 C4 1.393 1_655 S
C3 H33 0.930 . S
C4 C3 1.393 1_455 S
C4 C5 1.395 . S
C5 C0 1.380 . S
C5 C4 1.395 . S
C5 H34 0.930 . S
O6 Tb7 2.295 . S
O6 C19 1.240 1_556 S
Tb7 O6 2.295 . S
Tb7 O8 2.312 . S
Tb7 O11 2.438 . S
Tb7 O13 2.472 1_556 S
Tb7 O15 2.308 . S
Tb7 C16 2.821 1_556 S
O8 Tb7 2.312 . S
O8 C28 1.264 . S
O9 Eu10 2.308 . S
O9 C19 1.247 . S
Eu10 O9 2.308 . S
Eu10 C12 2.821 1_554 S
Eu10 O14 2.295 . S
Eu10 O21 2.312 . S
Eu10 O30 2.438 . S
Eu10 O31 2.472 1_554 S
O11 Tb7 2.438 . S
O11 C16 1.263 1_556 S
C12 Eu10 2.821 1_556 S
C12 C22 1.494 . S
C12 O30 1.263 1_556 S
C12 O31 1.264 . S
O13 Tb7 2.472 1_554 S
O13 C16 1.264 . S
O14 Eu10 2.295 . S
O14 C20 1.242 . S
O15 Tb7 2.308 . S
O15 C20 1.243 1_556 S
C16 C0 1.494 . S
C16 Tb7 2.821 1_554 S
C16 O11 1.263 1_554 S
C16 O13 1.264 . S
C17 O18 1.260 . S
C17 O21 1.264 . S
O18 C17 1.260 . S
C19 O6 1.240 1_554 S
C19 O9 1.247 . S
C20 O14 1.242 . S
C20 O15 1.243 1_554 S
O21 Eu10 2.312 . S
O21 C17 1.264 . S
C22 C12 1.494 . S
C22 C24 1.380 . S
C22 C25 1.387 . S
C23 C24 1.395 . S
C23 C27 1.393 . S
C24 C22 1.380 . S
C24 C23 1.395 . S
C24 H35 0.930 . S
C25 C22 1.387 . S
C25 C26 1.386 . S
C25 H36 0.930 . S
C26 C25 1.386 . S
C26 C27 1.397 . S
C27 C23 1.393 . S
C27 C26 1.397 . S
C27 H37 0.930 . S
C28 O8 1.264 . S
C28 O29 1.260 . S
O29 C28 1.260 . S
O30 Eu10 2.438 . S
O30 C12 1.263 1_554 S
O31 Eu10 2.472 1_556 S
O31 C12 1.264 . S
H32 C1 0.930 1_655 S
H33 C3 0.930 . S
H34 C5 0.930 . S
H35 C24 0.930 . S
H36 C25 0.930 . S
H37 C27 0.930 . S
C38 C39 1.387 . S
C38 C43 1.380 . S
C38 C54 1.494 . S
C39 C38 1.387 . S
C39 C40 1.386 . S
C39 H70 0.930 . S
C40 C39 1.386 . S
C40 C41 1.397 . S
C41 C40 1.397 . S
C41 C42 1.393 . S
C41 H71 0.930 . S
C42 C41 1.393 . S
C42 C43 1.395 . S
C43 C38 1.380 . S
C43 C42 1.395 . S
C43 H72 0.930 . S
O44 Tb45 2.295 . S
O44 C57 1.240 1_556 S
Tb45 O44 2.295 . S
Tb45 O46 2.312 . S
Tb45 O49 2.438 . S
Tb45 O51 2.472 1_556 S
Tb45 O53 2.308 . S
Tb45 C54 2.821 1_556 S
O46 Tb45 2.312 . S
O46 C66 1.264 . S
O47 Eu48 2.308 . S
O47 C57 1.247 . S
Eu48 O47 2.308 . S
Eu48 C50 2.821 1_554 S
Eu48 O52 2.295 . S
Eu48 O59 2.312 . S
Eu48 O68 2.438 . S
Eu48 O69 2.472 1_554 S
O49 Tb45 2.438 . S
O49 C54 1.263 1_556 S
C50 Eu48 2.821 1_556 S
C50 C60 1.494 . S
C50 O68 1.263 1_556 S
C50 O69 1.264 . S
O51 Tb45 2.472 1_554 S
O51 C54 1.264 . S
O52 Eu48 2.295 . S
O52 C58 1.242 . S
O53 Tb45 2.308 . S
O53 C58 1.243 1_556 S
C54 C38 1.494 . S
C54 Tb45 2.821 1_554 S
C54 O49 1.263 1_554 S
C54 O51 1.264 . S
C55 O56 1.260 . S
C55 O59 1.264 . S
O56 C55 1.260 . S
C57 O44 1.240 1_554 S
C57 O47 1.247 . S
C58 O52 1.242 . S
C58 O53 1.243 1_554 S
O59 Eu48 2.312 . S
O59 C55 1.264 . S
C60 C50 1.494 . S
C60 C62 1.380 . S
C60 C63 1.387 . S
C61 C62 1.395 . S
C61 C65 1.393 1_655 S
C62 C60 1.380 . S
C62 C61 1.395 . S
C62 H73 0.930 . S
C63 C60 1.387 . S
C63 C64 1.386 1_655 S
C63 H74 0.930 1_655 S
C64 C63 1.386 1_455 S
C64 C65 1.397 . S
C65 C61 1.393 1_455 S
C65 C64 1.397 . S
C65 H75 0.930 . S
C66 O46 1.264 . S
C66 O67 1.260 . S
O67 C66 1.260 . S
O68 Eu48 2.438 . S
O68 C50 1.263 1_554 S
O69 Eu48 2.472 1_556 S
O69 C50 1.264 . S
H70 C39 0.930 . S
H71 C41 0.930 . S
H72 C43 0.930 . S
H73 C62 0.930 . S
H74 C63 0.930 1_455 S
H75 C65 0.930 . S
C76 C77 1.387 . S
C76 C81 1.380 . S
C76 C92 1.494 . S
C77 C76 1.387 . S
C77 C78 1.386 1_455 S
C77 H108 0.930 1_455 S
C78 C77 1.386 1_655 S
C78 C79 1.397 . S
C79 C78 1.397 . S
C79 C80 1.393 1_655 S
C79 H109 0.930 . S
C80 C79 1.393 1_455 S
C80 C81 1.395 . S
C81 C76 1.380 . S
C81 C80 1.395 . S
C81 H110 0.930 . S
O82 Tb83 2.295 . S
O82 C95 1.242 . S
Tb83 O82 2.295 . S
Tb83 O84 2.312 . S
Tb83 O87 2.438 . S
Tb83 O89 2.472 . S
Tb83 O91 2.308 . S
Tb83 C92 2.821 . S
O84 Tb83 2.312 . S
O84 C104 1.264 . S
O85 Eu86 2.308 . S
O85 C95 1.243 . S
Eu86 O85 2.308 . S
Eu86 C88 2.821 . S
Eu86 O90 2.295 . S
Eu86 O97 2.312 . S
Eu86 O106 2.438 . S
Eu86 O107 2.472 . S
O87 Tb83 2.438 . S
O87 C92 1.263 . S
C88 Eu86 2.821 . S
C88 C98 1.494 . S
C88 O106 1.263 . S
C88 O107 1.264 . S
O89 Tb83 2.472 . S
O89 C92 1.264 . S
O90 Eu86 2.295 . S
O90 C96 1.242 . S
O91 Tb83 2.308 . S
O91 C96 1.243 . S
C92 C76 1.494 . S
C92 Tb83 2.821 . S
C92 O87 1.263 . S
C92 O89 1.264 . S
C93 O94 1.260 . S
C93 O97 1.264 . S
O94 C93 1.260 . S
C95 O82 1.242 . S
C95 O85 1.243 . S
C96 O90 1.242 . S
C96 O91 1.243 . S
O97 Eu86 2.312 . S
O97 C93 1.264 . S
C98 C88 1.494 . S
C98 C100 1.380 . S
C98 C101 1.387 . S
C99 C100 1.395 . S
C99 C103 1.393 . S
C100 C98 1.380 . S
C100 C99 1.395 . S
C100 H111 0.930 . S
C101 C98 1.387 . S
C101 C102 1.386 . S
C101 H112 0.930 . S
C102 C101 1.386 . S
C102 C103 1.397 . S
C103 C99 1.393 . S
C103 C102 1.397 . S
C103 H113 0.930 . S
C104 O84 1.264 . S
C104 O105 1.260 . S
O105 C104 1.260 . S
O106 Eu86 2.438 . S
O106 C88 1.263 . S
O107 Eu86 2.472 . S
O107 C88 1.264 . S
H108 C77 0.930 1_655 S
H109 C79 0.930 . S
H110 C81 0.930 . S
H111 C100 0.930 . S
H112 C101 0.930 . S
H113 C103 0.930 . S
C114 C115 1.387 . S
C114 C119 1.380 . S
C114 C130 1.494 . S
C115 C114 1.387 . S
C115 C116 1.386 . S
C115 H146 0.930 . S
C116 C115 1.386 . S
C116 C117 1.397 . S
C117 C116 1.397 . S
C117 C118 1.393 . S
C117 H147 0.930 . S
C118 C117 1.393 . S
C118 C119 1.395 . S
C119 C114 1.380 . S
C119 C118 1.395 . S
C119 H148 0.930 . S
O120 Tb121 2.295 . S
O120 C133 1.242 . S
Tb121 O120 2.295 . S
Tb121 O122 2.312 . S
Tb121 O125 2.438 . S
Tb121 O127 2.472 . S
Tb121 O129 2.308 . S
Tb121 C130 2.821 . S
O122 Tb121 2.312 . S
O122 C142 1.264 . S
O123 Eu124 2.308 . S
O123 C133 1.243 . S
Eu124 O123 2.308 . S
Eu124 C126 2.821 . S
Eu124 O128 2.295 . S
Eu124 O135 2.312 . S
Eu124 O144 2.438 . S
Eu124 O145 2.472 . S
O125 Tb121 2.438 . S
O125 C130 1.263 . S
C126 Eu124 2.821 . S
C126 C136 1.494 . S
C126 O144 1.263 . S
C126 O145 1.264 . S
O127 Tb121 2.472 . S
O127 C130 1.264 . S
O128 Eu124 2.295 . S
O128 C134 1.242 . S
O129 Tb121 2.308 . S
O129 C134 1.243 . S
C130 C114 1.494 . S
C130 Tb121 2.821 . S
C130 O125 1.263 . S
C130 O127 1.264 . S
C131 O132 1.260 . S
C131 O135 1.264 . S
O132 C131 1.260 . S
C133 O120 1.242 . S
C133 O123 1.243 . S
C134 O128 1.242 . S
C134 O129 1.243 . S
O135 Eu124 2.312 . S
O135 C131 1.264 . S
C136 C126 1.494 . S
C136 C138 1.380 . S
C136 C139 1.387 . S
C137 C138 1.395 . S
C137 C141 1.393 1_655 S
C138 C136 1.380 . S
C138 C137 1.395 . S
C138 H149 0.930 . S
C139 C136 1.387 . S
C139 C140 1.386 1_655 S
C139 H150 0.930 1_655 S
C140 C139 1.386 1_455 S
C140 C141 1.397 . S
C141 C137 1.393 1_455 S
C141 C140 1.397 . S
C141 H151 0.930 . S
C142 O122 1.264 . S
C142 O143 1.260 . S
O143 C142 1.260 . S
O144 Eu124 2.438 . S
O144 C126 1.263 . S
O145 Eu124 2.472 . S
O145 C126 1.264 . S
H146 C115 0.930 . S
H147 C117 0.930 . S
H148 C119 0.930 . S
H149 C138 0.930 . S
H150 C139 0.930 1_455 S
H151 C141 0.930 . S
H152 C158 0.930 . S
H153 C162 0.930 . S
H154 C167 0.929 . S
H155 C165 0.929 . S
H156 C160 0.929 . S
H157 C166 0.929 1_554 S
C158 H152 0.930 . S
C158 C159 1.367 . S
C158 C166 1.378 . S
C159 C158 1.367 . S
C159 C167 1.433 . S
C160 H156 0.929 . S
C160 C162 1.378 . S
C160 C164 1.350 . S
C161 C164 1.463 1_556 S
C161 C166 1.350 . S
C161 N169 1.427 . S
C162 H153 0.930 . S
C162 C160 1.378 . S
C162 C163 1.367 . S
C163 C162 1.367 . S
C163 C165 1.433 . S
C164 C160 1.350 . S
C164 C161 1.463 1_554 S
C164 N168 1.427 . S
C165 H155 0.929 . S
C165 C163 1.433 . S
C165 N168 1.384 . S
C166 H157 0.929 1_556 S
C166 C158 1.378 . S
C166 C161 1.350 . S
C167 H154 0.929 . S
C167 C159 1.433 . S
C167 N169 1.384 . S
N168 C164 1.427 . S
N168 C165 1.384 . S
N169 C161 1.427 . S
N169 C167 1.384 . S
H170 C176 0.930 . S
H171 C180 0.930 . S
H172 C185 0.929 . S
H173 C183 0.929 . S
H174 C178 0.929 1_556 S
H175 C184 0.929 . S
C176 H170 0.930 . S
C176 C177 1.367 . S
C176 C184 1.378 1_556 S
C177 C176 1.367 . S
C177 C185 1.433 . S
C178 H174 0.929 1_554 S
C178 C180 1.378 . S
C178 C182 1.350 . S
C179 C182 1.463 1_556 S
C179 C184 1.350 1_556 S
C179 N187 1.427 . S
C180 H171 0.930 . S
C180 C178 1.378 . S
C180 C181 1.367 . S
C181 C180 1.367 . S
C181 C183 1.433 . S
C182 C178 1.350 . S
C182 C179 1.463 1_554 S
C182 N186 1.427 . S
C183 H173 0.929 . S
C183 C181 1.433 . S
C183 N186 1.384 . S
C184 H175 0.929 . S
C184 C176 1.378 1_554 S
C184 C179 1.350 1_554 S
C185 H172 0.929 . S
C185 C177 1.433 . S
C185 N187 1.384 . S
N186 C182 1.427 . S
N186 C183 1.384 . S
N187 C179 1.427 . S
N187 C185 1.384 . S
H188 C194 0.930 . S
H189 C198 0.930 . S
H190 C203 0.929 . S
H191 C201 0.929 . S
H192 C196 0.929 . S
H193 C202 0.929 . S
C194 H188 0.930 . S
C194 C195 1.367 . S
C194 C202 1.378 . S
C195 C194 1.367 . S
C195 C203 1.433 . S
C196 H192 0.929 . S
C196 C198 1.378 . S
C196 C200 1.350 . S
C197 C200 1.463 . S
C197 C202 1.350 . S
C197 N205 1.427 . S
C198 H189 0.930 . S
C198 C196 1.378 . S
C198 C199 1.367 . S
C199 C198 1.367 . S
C199 C201 1.433 . S
C200 C196 1.350 . S
C200 C197 1.463 . S
C200 N204 1.427 . S
C201 H191 0.929 . S
C201 C199 1.433 . S
C201 N204 1.384 . S
C202 H193 0.929 . S
C202 C194 1.378 . S
C202 C197 1.350 . S
C203 H190 0.929 . S
C203 C195 1.433 . S
C203 N205 1.384 . S
N204 C200 1.427 . S
N204 C201 1.384 . S
N205 C197 1.427 . S
N205 C203 1.384 . S
H206 C212 0.930 . S
H207 C216 0.930 . S
H208 C221 0.929 . S
H209 C219 0.929 . S
H210 C214 0.929 . S
H211 C220 0.929 . S
C212 H206 0.930 . S
C212 C213 1.367 . S
C212 C220 1.378 . S
C213 C212 1.367 . S
C213 C221 1.433 . S
C214 H210 0.929 . S
C214 C216 1.378 . S
C214 C218 1.350 . S
C215 C218 1.463 . S
C215 C220 1.350 . S
C215 N223 1.427 . S
C216 H207 0.930 . S
C216 C214 1.378 . S
C216 C217 1.367 . S
C217 C216 1.367 . S
C217 C219 1.433 . S
C218 C214 1.350 . S
C218 C215 1.463 . S
C218 N222 1.427 . S
C219 H209 0.929 . S
C219 C217 1.433 . S
C219 N222 1.384 . S
C220 H211 0.929 . S
C220 C212 1.378 . S
C220 C215 1.350 . S
C221 H208 0.929 . S
C221 C213 1.433 . S
C221 N223 1.384 . S
N222 C218 1.427 . S
N222 C219 1.384 . S
N223 C215 1.427 . S
N223 C221 1.384 . S
H224 C230 0.930 . S
H225 C234 0.930 . S
H226 C239 0.929 . S
H227 C237 0.929 . S
H228 C232 0.929 . S
H229 C238 0.929 . S
C230 H224 0.930 . S
C230 C231 1.389 . S
C230 C238 1.378 . S
C231 C230 1.389 . S
C231 C239 1.413 1_556 S
C232 H228 0.929 . S
C232 C234 1.378 . S
C232 C236 1.350 . S
C233 C236 1.462 . S
C233 C238 1.339 1_554 S
C233 N241 1.439 . S
C234 H225 0.930 . S
C234 C232 1.378 . S
C234 C235 1.367 . S
C235 C234 1.367 . S
C235 C237 1.433 1_554 S
C236 C232 1.350 . S
C236 C233 1.462 . S
C236 N240 1.427 1_554 S
C237 H227 0.929 . S
C237 C235 1.433 1_556 S
C237 N240 1.384 . S
C238 H229 0.929 . S
C238 C230 1.378 . S
C238 C233 1.339 1_556 S
C239 H226 0.929 . S
C239 C231 1.413 1_554 S
C239 N241 1.384 . S
N240 C236 1.427 1_556 S
N240 C237 1.384 . S
N241 C233 1.439 . S
N241 C239 1.384 . S
H242 C248 0.930 . S
H243 C252 0.930 . S
H244 C257 0.929 . S
H245 C255 0.929 . S
H246 C250 0.929 . S
H247 C256 0.929 . S
C248 H242 0.930 . S
C248 C249 1.367 . S
C248 C256 1.378 . S
C249 C248 1.367 . S
C249 C257 1.433 . S
C250 H246 0.929 . S
C250 C252 1.378 . S
C250 C254 1.350 . S
C251 C254 1.463 . S
C251 C256 1.350 . S
C251 N259 1.427 . S
C252 H243 0.930 . S
C252 C250 1.378 . S
C252 C253 1.367 . S
C253 C252 1.367 . S
C253 C255 1.433 . S
C254 C250 1.350 . S
C254 C251 1.463 . S
C254 N258 1.427 . S
C255 H245 0.929 . S
C255 C253 1.433 . S
C255 N258 1.384 . S
C256 H247 0.929 . S
C256 C248 1.378 . S
C256 C251 1.350 . S
C257 H244 0.929 . S
C257 C249 1.433 . S
C257 N259 1.384 . S
N258 C254 1.427 . S
N258 C255 1.384 . S
N259 C251 1.427 . S
N259 C257 1.384 . S
H260 C266 0.930 . S
H261 C270 0.930 . S
H262 C275 0.929 . S
H263 C273 0.929 . S
H264 C268 0.929 . S
H265 C274 0.929 . S
C266 H260 0.930 . S
C266 C267 1.381 . S
C266 C274 1.378 . S
C267 C266 1.381 . S
C267 C275 1.418 1_554 S
C268 H264 0.929 . S
C268 C270 1.378 . S
C268 C272 1.350 1_556 S
C269 C272 1.463 1_445 S
C269 C274 1.350 . S
C269 N277 1.427 1_554 S
C270 H261 0.930 . S
C270 C268 1.378 . S
C270 C271 1.367 1_556 S
C271 C270 1.367 1_554 S
C271 C273 1.433 . S
C272 C268 1.350 1_554 S
C272 C269 1.463 1_665 S
C272 N276 1.427 . S
C273 H263 0.929 . S
C273 C271 1.433 . S
C273 N276 1.384 . S
C274 H265 0.929 . S
C274 C266 1.378 . S
C274 C269 1.350 . S
C275 H262 0.929 . S
C275 C267 1.418 1_556 S
C275 N277 1.384 . S
N276 C272 1.427 . S
N276 C273 1.384 . S
N277 C269 1.427 1_556 S
N277 C275 1.384 . S
H278 C284 0.930 . S
H279 C288 0.930 . S
H280 C293 0.929 1_565 S
H281 C291 0.928 1_545 S
H282 C286 0.929 . S
H283 C292 0.929 . S
C284 H278 0.930 . S
C284 C285 1.367 . S
C284 C292 1.378 . S
C285 C284 1.367 . S
C285 C293 1.433 . S
C286 H282 0.929 . S
C286 C288 1.378 . S
C286 C290 1.350 . S
C287 C290 1.463 1_645 S
C287 C292 1.350 . S
C287 N295 1.427 1_545 S
C288 H279 0.930 . S
C288 C286 1.378 . S
C288 C289 1.367 . S
C289 C288 1.367 . S
C289 C291 1.433 . S
C290 C286 1.350 . S
C290 C287 1.463 1_465 S
C290 N294 1.427 1_565 S
C291 H281 0.928 1_565 S
C291 C289 1.433 . S
C291 N294 1.384 1_565 S
C292 H283 0.929 . S
C292 C284 1.378 . S
C292 C287 1.350 . S
C293 H280 0.929 1_545 S
C293 C285 1.433 . S
C293 N295 1.384 1_545 S
N294 C290 1.427 1_545 S
N294 C291 1.384 1_545 S
N295 C287 1.427 1_565 S
N295 C293 1.384 1_565 S
H296 C302 0.930 . S
H297 C306 0.930 . S
H298 C311 0.929 . S
H299 C309 0.929 . S
H300 C304 0.929 . S
H301 C310 0.929 . S
C302 H296 0.930 . S
C302 C303 1.367 . S
C302 C310 1.378 . S
C303 C302 1.367 . S
C303 C311 1.433 . S
C304 H300 0.929 . S
C304 C306 1.378 . S
C304 C308 1.350 . S
C305 C308 1.463 . S
C305 C310 1.350 . S
C305 N313 1.427 . S
C306 H297 0.930 . S
C306 C304 1.378 . S
C306 C307 1.367 . S
C307 C306 1.367 . S
C307 C309 1.433 . S
C308 C304 1.350 . S
C308 C305 1.463 . S
C308 N312 1.427 . S
C309 H299 0.929 . S
C309 C307 1.433 . S
C309 N312 1.384 . S
C310 H301 0.929 . S
C310 C302 1.378 . S
C310 C305 1.350 . S
C311 H298 0.929 . S
C311 C303 1.433 . S
C311 N313 1.384 . S
N312 C308 1.427 . S
N312 C309 1.384 . S
N313 C305 1.427 . S
N313 C311 1.384 . S
H314 C320 0.930 . S
H315 C324 0.930 . S
H316 C329 0.929 . S
H317 C327 0.929 . S
H318 C322 0.929 . S
H319 C328 0.929 . S
C320 H314 0.930 . S
C320 C321 1.367 . S
C320 C328 1.378 . S
C321 C320 1.367 . S
C321 C329 1.433 . S
C322 H318 0.929 . S
C322 C324 1.378 . S
C322 C326 1.350 . S
C323 C326 1.463 . S
C323 C328 1.350 . S
C323 N331 1.427 . S
C324 H315 0.930 . S
C324 C322 1.378 . S
C324 C325 1.367 . S
C325 C324 1.367 . S
C325 C327 1.433 . S
C326 C322 1.350 . S
C326 C323 1.463 . S
C326 N330 1.427 . S
C327 H317 0.929 . S
C327 C325 1.433 . S
C327 N330 1.384 . S
C328 H319 0.929 . S
C328 C320 1.378 . S
C328 C323 1.350 . S
C329 H316 0.929 . S
C329 C321 1.433 . S
C329 N331 1.384 . S
N330 C326 1.427 . S
N330 C327 1.384 . S
N331 C323 1.427 . S
N331 C329 1.384 . S
H332 C338 0.930 . S
H333 C342 0.930 . S
H334 C347 0.929 . S
H335 C345 0.929 . S
H336 C340 0.929 . S
H337 C346 0.929 . S
C338 H332 0.930 . S
C338 C339 1.367 . S
C338 C346 1.378 . S
C339 C338 1.367 . S
C339 C347 1.433 . S
C340 H336 0.929 . S
C340 C342 1.378 . S
C340 C344 1.350 . S
C341 C344 1.463 . S
C341 C346 1.350 . S
C341 N349 1.427 . S
C342 H333 0.930 . S
C342 C340 1.378 . S
C342 C343 1.367 . S
C343 C342 1.367 . S
C343 C345 1.433 . S
C344 C340 1.350 . S
C344 C341 1.463 . S
C344 N348 1.427 . S
C345 H335 0.929 . S
C345 C343 1.433 . S
C345 N348 1.384 . S
C346 H337 0.929 . S
C346 C338 1.378 . S
C346 C341 1.350 . S
C347 H334 0.929 . S
C347 C339 1.433 . S
C347 N349 1.384 . S
N348 C344 1.427 . S
N348 C345 1.384 . S
N349 C341 1.427 . S
N349 C347 1.384 . S
H350 C356 0.930 . S
H351 C360 0.930 . S
H352 C365 0.929 . S
H353 C363 0.929 . S
H354 C358 0.929 . S
H355 C364 0.929 . S
C356 H350 0.930 . S
C356 C357 1.367 . S
C356 C364 1.378 . S
C357 C356 1.367 . S
C357 C365 1.433 . S
C358 H354 0.929 . S
C358 C360 1.378 . S
C358 C362 1.350 . S
C359 C362 1.463 . S
C359 C364 1.350 . S
C359 N367 1.427 . S
C360 H351 0.930 . S
C360 C358 1.378 . S
C360 C361 1.367 . S
C361 C360 1.367 . S
C361 C363 1.433 . S
C362 C358 1.350 . S
C362 C359 1.463 . S
C362 N366 1.427 . S
C363 H353 0.929 . S
C363 C361 1.433 . S
C363 N366 1.384 . S
C364 H355 0.929 . S
C364 C356 1.378 . S
C364 C359 1.350 . S
C365 H352 0.929 . S
C365 C357 1.433 . S
C365 N367 1.384 . S
N366 C362 1.427 . S
N366 C363 1.384 . S
N367 C359 1.427 . S
N367 C365 1.384 . S
H368 C374 0.930 . S
H369 C378 0.930 . S
H370 C383 0.929 . S
H371 C381 0.929 . S
H372 C376 0.925 1_455 S
H373 C382 0.929 . S
C374 H368 0.930 . S
C374 C375 1.367 1_655 S
C374 C382 1.378 . S
C375 C374 1.367 1_455 S
C375 C383 1.433 . S
C376 H372 0.925 1_655 S
C376 C378 1.378 . S
C376 C380 1.350 . S
C377 C380 1.463 . S
C377 C382 1.350 . S
C377 N385 1.427 1_655 S
C378 H369 0.930 . S
C378 C376 1.378 . S
C378 C379 1.367 . S
C379 C378 1.367 . S
C379 C381 1.433 . S
C380 C376 1.350 . S
C380 C377 1.463 . S
C380 N384 1.427 . S
C381 H371 0.929 . S
C381 C379 1.433 . S
C381 N384 1.384 . S
C382 H373 0.929 . S
C382 C374 1.378 . S
C382 C377 1.350 . S
C383 H370 0.929 . S
C383 C375 1.433 . S
C383 N385 1.384 . S
N384 C380 1.427 . S
N384 C381 1.384 . S
N385 C377 1.427 1_455 S
N385 C383 1.384 . S
H386 C392 0.930 . S
H387 C396 0.930 . S
H388 C401 0.929 . S
H389 C399 0.929 . S
H390 C394 0.929 . S
H391 C400 0.929 . S
C392 H386 0.930 . S
C392 C393 1.367 . S
C392 C400 1.378 . S
C393 C392 1.367 . S
C393 C401 1.433 . S
C394 H390 0.929 . S
C394 C396 1.378 . S
C394 C398 1.350 1_455 S
C395 C398 1.463 . S
C395 C400 1.350 . S
C395 N403 1.427 . S
C396 H387 0.930 . S
C396 C394 1.378 . S
C396 C397 1.367 . S
C397 C396 1.367 . S
C397 C399 1.433 1_455 S
C398 C394 1.350 1_655 S
C398 C395 1.463 . S
C398 N402 1.427 . S
C399 H389 0.929 . S
C399 C397 1.433 1_655 S
C399 N402 1.384 . S
C400 H391 0.929 . S
C400 C392 1.378 . S
C400 C395 1.350 . S
C401 H388 0.929 . S
C401 C393 1.433 . S
C401 N403 1.384 . S
N402 C398 1.427 . S
N402 C399 1.384 . S
N403 C395 1.427 . S
N403 C401 1.384 . S
H404 C410 0.930 . S
H405 C414 0.930 . S
H406 C419 0.929 . S
H407 C417 0.929 . S
H408 C412 0.929 . S
H409 C418 0.935 . S
C410 H404 0.930 . S
C410 C411 1.367 . S
C410 C418 1.378 . S
C411 C410 1.367 . S
C411 C419 1.433 . S
C412 H408 0.929 . S
C412 C414 1.378 . S
C412 C416 1.350 . S
C413 C416 1.463 . S
C413 C418 1.350 . S
C413 N421 1.427 . S
C414 H405 0.930 . S
C414 C412 1.378 . S
C414 C415 1.367 1_455 S
C415 C414 1.367 1_655 S
C415 C417 1.433 . S
C416 C412 1.350 . S
C416 C413 1.463 . S
C416 N420 1.427 1_455 S
C417 H407 0.929 . S
C417 C415 1.433 . S
C417 N420 1.384 . S
C418 H409 0.935 . S
C418 C410 1.378 . S
C418 C413 1.350 . S
C419 H406 0.929 . S
C419 C411 1.433 . S
C419 N421 1.384 . S
N420 C416 1.427 1_655 S
N420 C417 1.384 . S
N421 C413 1.427 . S
N421 C419 1.384 . S
H422 C428 0.930 . S
H423 C432 0.930 . S
H424 C437 0.929 . S
H425 C435 0.929 . S
H426 C430 0.929 . S
H427 C436 0.929 . S
C428 H422 0.930 . S
C428 C429 1.367 . S
C428 C436 1.378 . S
C429 C428 1.367 . S
C429 C437 1.433 . S
C430 H426 0.929 . S
C430 C432 1.378 . S
C430 C434 1.350 1_655 S
C431 C434 1.463 . S
C431 C436 1.350 . S
C431 N439 1.427 . S
C432 H423 0.930 . S
C432 C430 1.378 . S
C432 C433 1.367 . S
C433 C432 1.367 . S
C433 C435 1.433 1_655 S
C434 C430 1.350 1_455 S
C434 C431 1.463 . S
C434 N438 1.427 . S
C435 H425 0.929 . S
C435 C433 1.433 1_455 S
C435 N438 1.384 . S
C436 H427 0.929 . S
C436 C428 1.378 . S
C436 C431 1.350 . S
C437 H424 0.929 . S
C437 C429 1.433 . S
C437 N439 1.384 . S
N438 C434 1.427 . S
N438 C435 1.384 . S
N439 C431 1.427 . S
N439 C437 1.384 . S
C159 C26 2.045 . S
C163 C2 2.045 . S
C177 C64 2.045 . S
C181 C40 2.045 . S
C195 C102 2.047 . S
C199 C78 2.047 . S
C213 C140 2.049 . S
C217 C116 2.049 . S
C231 C57 1.649 1_556 S
C235 C20 1.654 . S
C249 C133 1.651 . S
C253 C96 1.651 . S
C267 C19 1.651 . S
C271 C58 1.650 . S
C285 C134 1.650 . S
C289 C95 1.650 . S
C303 C118 1.191 . S
C307 C17 1.212 . S
C321 C42 1.177 . S
C325 C93 1.231 . S
C339 C99 1.186 . S
C343 C66 1.214 . S
C357 C23 1.186 . S
C361 C142 1.228 . S
C375 C80 1.177 . S
C379 C55 1.231 . S
C393 C131 1.225 . S
C397 C4 1.191 . S
C411 C28 1.231 . S
C415 C137 1.177 . S
C429 C104 1.218 . S
C433 C61 1.197 . S
