# Generated by pormake.
# Topology ict, (4)-cn, num edge types: 1
# Building blocks:
#     Node 0, Type 0, BuildingBlock: ICAMEG_clean_sbu_1, # of connection points: 4
#     Node 1, Type 0, BuildingBlock: ICAMEG_clean_sbu_1, # of connection points: 4
#     Node 2, Type 0, BuildingBlock: ICAMEG_clean_sbu_1, # of connection points: 4
#     Node 3, Type 0, BuildingBlock: ICAMEG_clean_sbu_1, # of connection points: 4
#     Node 4, Type 0, BuildingBlock: ICAMEG_clean_sbu_1, # of connection points: 4
#     Node 5, Type 0, BuildingBlock: ICAMEG_clean_sbu_1, # of connection points: 4
#     Node 6, Type 0, BuildingBlock: ICAMEG_clean_sbu_1, # of connection points: 4
#     Node 7, Type 0, BuildingBlock: ICAMEG_clean_sbu_1, # of connection points: 4
#     Node 8, Type 0, BuildingBlock: ICAMEG_clean_sbu_1, # of connection points: 4
#     Node 9, Type 0, BuildingBlock: ICAMEG_clean_sbu_1, # of connection points: 4
#     Node 10, Type 0, BuildingBlock: ICAMEG_clean_sbu_1, # of connection points: 4
#     Node 11, Type 0, BuildingBlock: ICAMEG_clean_sbu_1, # of connection points: 4
#     Node 12, Type 0, BuildingBlock: ICAMEG_clean_sbu_1, # of connection points: 4
#     Node 13, Type 0, BuildingBlock: ICAMEG_clean_sbu_1, # of connection points: 4
#     Node 14, Type 0, BuildingBlock: ICAMEG_clean_sbu_1, # of connection points: 4
#     Node 15, Type 0, BuildingBlock: ICAMEG_clean_sbu_1, # of connection points: 4
#     Node 16, Type 0, BuildingBlock: ICAMEG_clean_sbu_1, # of connection points: 4
#     Node 17, Type 0, BuildingBlock: ICAMEG_clean_sbu_1, # of connection points: 4
#     Node 18, Type 0, BuildingBlock: ICAMEG_clean_sbu_1, # of connection points: 4
#     Node 19, Type 0, BuildingBlock: ICAMEG_clean_sbu_1, # of connection points: 4
#     Node 20, Type 0, BuildingBlock: ICAMEG_clean_sbu_1, # of connection points: 4
#     Node 21, Type 0, BuildingBlock: ICAMEG_clean_sbu_1, # of connection points: 4
#     Node 22, Type 0, BuildingBlock: ICAMEG_clean_sbu_1, # of connection points: 4
#     Node 23, Type 0, BuildingBlock: ICAMEG_clean_sbu_1, # of connection points: 4
#     Node 24, Type 0, BuildingBlock: ICAMEG_clean_sbu_1, # of connection points: 4
#     Node 25, Type 0, BuildingBlock: ICAMEG_clean_sbu_1, # of connection points: 4
#     Node 26, Type 0, BuildingBlock: ICAMEG_clean_sbu_1, # of connection points: 4
#     Node 27, Type 0, BuildingBlock: ICAMEG_clean_sbu_1, # of connection points: 4
#     Node 28, Type 0, BuildingBlock: ICAMEG_clean_sbu_1, # of connection points: 4
#     Node 29, Type 0, BuildingBlock: ICAMEG_clean_sbu_1, # of connection points: 4
#     Node 30, Type 0, BuildingBlock: ICAMEG_clean_sbu_1, # of connection points: 4
#     Node 31, Type 0, BuildingBlock: ICAMEG_clean_sbu_1, # of connection points: 4
#     Node 32, Type 0, BuildingBlock: ICAMEG_clean_sbu_1, # of connection points: 4
#     Node 33, Type 0, BuildingBlock: ICAMEG_clean_sbu_1, # of connection points: 4
#     Node 34, Type 0, BuildingBlock: ICAMEG_clean_sbu_1, # of connection points: 4
#     Node 35, Type 0, BuildingBlock: ICAMEG_clean_sbu_1, # of connection points: 4
#     Edge 36, Type (0, 0), None
#     Edge 37, Type (0, 0), None
#     Edge 38, Type (0, 0), None
#     Edge 39, Type (0, 0), None
#     Edge 40, Type (0, 0), None
#     Edge 41, Type (0, 0), None
#     Edge 42, Type (0, 0), None
#     Edge 43, Type (0, 0), None
#     Edge 44, Type (0, 0), None
#     Edge 45, Type (0, 0), None
#     Edge 46, Type (0, 0), None
#     Edge 47, Type (0, 0), None
#     Edge 48, Type (0, 0), None
#     Edge 49, Type (0, 0), None
#     Edge 50, Type (0, 0), None
#     Edge 51, Type (0, 0), None
#     Edge 52, Type (0, 0), None
#     Edge 53, Type (0, 0), None
#     Edge 54, Type (0, 0), None
#     Edge 55, Type (0, 0), None
#     Edge 56, Type (0, 0), None
#     Edge 57, Type (0, 0), None
#     Edge 58, Type (0, 0), None
#     Edge 59, Type (0, 0), None
#     Edge 60, Type (0, 0), None
#     Edge 61, Type (0, 0), None
#     Edge 62, Type (0, 0), None
#     Edge 63, Type (0, 0), None
#     Edge 64, Type (0, 0), None
#     Edge 65, Type (0, 0), None
#     Edge 66, Type (0, 0), None
#     Edge 67, Type (0, 0), None
#     Edge 68, Type (0, 0), None
#     Edge 69, Type (0, 0), None
#     Edge 70, Type (0, 0), None
#     Edge 71, Type (0, 0), None
#     Edge 72, Type (0, 0), None
#     Edge 73, Type (0, 0), None
#     Edge 74, Type (0, 0), None
#     Edge 75, Type (0, 0), None
#     Edge 76, Type (0, 0), None
#     Edge 77, Type (0, 0), None
#     Edge 78, Type (0, 0), None
#     Edge 79, Type (0, 0), None
#     Edge 80, Type (0, 0), None
#     Edge 81, Type (0, 0), None
#     Edge 82, Type (0, 0), None
#     Edge 83, Type (0, 0), None
#     Edge 84, Type (0, 0), None
#     Edge 85, Type (0, 0), None
#     Edge 86, Type (0, 0), None
#     Edge 87, Type (0, 0), None
#     Edge 88, Type (0, 0), None
#     Edge 89, Type (0, 0), None
#     Edge 90, Type (0, 0), None
#     Edge 91, Type (0, 0), None
#     Edge 92, Type (0, 0), None
#     Edge 93, Type (0, 0), None
#     Edge 94, Type (0, 0), None
#     Edge 95, Type (0, 0), None
#     Edge 96, Type (0, 0), None
#     Edge 97, Type (0, 0), None
#     Edge 98, Type (0, 0), None
#     Edge 99, Type (0, 0), None
#     Edge 100, Type (0, 0), None
#     Edge 101, Type (0, 0), None
#     Edge 102, Type (0, 0), None
#     Edge 103, Type (0, 0), None
#     Edge 104, Type (0, 0), None
#     Edge 105, Type (0, 0), None
#     Edge 106, Type (0, 0), None
#     Edge 107, Type (0, 0), None
# Relax obj value: 0.196
# Max RMSD: 0.213
# Mean RMSD: 0.213
data_MOF--net-ict--node1-ICAMEG_clean_sbu_1--edge1-none
_symmetry_space_group_name_H-M    P1
_symmetry_Int_Tables_number       1
_symmetry_cell_setting            triclinic
loop_
_symmetry_equiv_pos_as_xyz
'x, y, z'
_cell_length_a     38.106263
_cell_length_b     38.104537
_cell_length_c     16.889299
_cell_angle_alpha  90.009631
_cell_angle_beta   89.98112
_cell_angle_gamma 119.99402
loop_
_atom_site_label
_atom_site_type_symbol
_atom_site_fract_x
_atom_site_fract_y
_atom_site_fract_z
_atom_type_partial_charge
Co0 Co 0.12906 0.09044 0.06016 0.0
Co1 Co 0.20646 0.18376 0.09248 0.0
O2 O 0.18621 0.12874 0.05807 0.0
C3 C 0.16382 0.02994 0.03352 0.0
O4 O 0.19755 0.0586 0.00333 0.0
C5 C 0.26096 0.20485 0.93466 0.0
O6 O 0.23058 0.19013 0.88464 0.0
O7 O 0.16799 0.19136 0.01372 0.0
O8 O 0.11289 0.13161 0.03133 0.0
H9 H 0.19861 0.30579 0.17508 0.0
H10 H 0.19702 0.11331 0.93391 0.0
O11 O 0.13957 0.03995 0.07108 0.0
H12 H 0.06988 0.06077 0.78803 0.0
H13 H 0.00267 0.95594 0.06953 0.0
H14 H 0.06361 0.09929 0.1291 0.0
H15 H 0.07199 0.06713 0.93127 0.0
H16 H 0.07116 0.00502 0.01296 0.0
O17 O 0.25381 0.20394 0.00979 0.0
H18 H 0.17024 0.23466 0.12947 0.0
H19 H 0.289 0.25183 0.1333 0.0
H20 H 0.0061 0.05087 0.20354 0.0
H21 H 0.19824 0.11911 0.79041 0.0
H22 H -0.01456 -0.02103 0.19126 0.0
H23 H 0.13456 0.08967 0.71521 0.0
O24 O 0.12491 0.10288 0.18364 0.0
H25 H 0.33514 0.18547 0.18797 0.0
H26 H 0.19382 0.14001 0.25256 0.0
H27 H 0.23377 0.12605 0.34285 0.0
H28 H 0.30352 0.14486 0.30974 0.0
H29 H 0.29556 0.20011 0.09817 0.0
H30 H 0.31564 0.31915 0.17795 0.0
H31 H 0.2698 0.34639 0.20776 0.0
O32 O 0.16218 0.16926 0.17607 0.0
C33 C 0.1295 0.16678 1.00176 0.0
C34 C 0.21695 0.29195 0.17231 0.0
C35 C 0.28343 0.30075 0.17129 0.0
N36 N 0.22751 0.23776 0.13179 0.0
C37 C 0.20186 0.25244 0.14496 0.0
C38 C 0.26765 0.26108 0.14774 0.0
C39 C 0.25784 0.31601 0.18607 0.0
C40 C 0.16833 0.1003 0.90414 0.0
N41 N 0.13219 0.08432 0.9445 0.0
C42 C 0.16973 0.10337 0.82141 0.0
C43 C 0.13406 0.08776 0.77884 0.0
C44 C 0.09786 0.07184 0.81943 0.0
C45 C 0.09809 0.07244 0.90163 0.0
C46 C 0.01871 -0.01282 0.08568 0.0
C47 C 0.05209 0.06764 0.11694 0.0
C48 C 0.05529 0.01478 0.05097 0.0
N49 N 0.07238 0.05437 0.06999 0.0
C50 C 0.01928 0.04052 0.15995 0.0
C51 C 0.00539 -4e-05 0.14912 0.0
C52 C 0.13294 0.13861 0.21008 0.0
C53 C 0.30406 0.17611 0.20291 0.0
C54 C 0.22423 0.15087 0.23561 0.0
C55 C 0.24673 0.14136 0.28768 0.0
C56 C 0.28659 0.15338 0.27058 0.0
N57 N 0.24086 0.17342 0.16837 0.0
C58 C 0.28053 0.18457 0.15146 0.0
Co59 Co 0.8252 0.02171 0.0601 0.0
Co60 Co 0.73189 0.00581 0.09246 0.0
O61 O 0.7869 0.04057 0.05804 0.0
C62 C 0.88568 0.11696 0.03346 0.0
O63 O 0.85703 0.12201 0.00323 0.0
C64 C 0.71079 0.03921 0.93465 0.0
O65 O 0.7255 0.02353 0.88462 0.0
O66 O 0.72429 0.95975 0.01369 0.0
O67 O 0.78404 0.96438 0.03126 0.0
H68 H 0.60987 0.87594 0.17507 0.0
H69 H 0.80229 0.06676 0.93386 0.0
O70 O 0.87568 0.08271 0.07103 0.0
H71 H 0.85498 -0.00775 0.78793 0.0
H72 H -0.04027 0.02992 0.06964 0.0
H73 H 0.81635 0.9474 0.12897 0.0
H74 H 0.84861 -0.012 0.93116 0.0
H75 H 0.91063 0.04923 0.01289 0.0
O76 O 0.71171 0.03299 0.00978 0.0
H77 H 0.681 0.9187 0.12944 0.0
H78 H 0.66381 0.02028 0.13331 0.0
H79 H 0.86476 0.93838 0.20354 0.0
H80 H 0.79652 0.06219 0.79037 0.0
H81 H 0.93666 -0.01034 0.19137 0.0
H82 H 0.82603 0.02799 0.71513 0.0
O83 O 0.81276 0.00514 0.18357 0.0
H84 H 0.73018 0.1328 0.18801 0.0
H85 H 0.77564 0.03694 0.2525 0.0
H86 H 0.78962 0.09087 0.3428 0.0
H87 H 0.77081 0.1418 0.30973 0.0
H88 H 0.71552 0.07856 0.09821 0.0
H89 H 0.59647 -0.0204 0.17795 0.0
H90 H 0.56925 0.90652 0.20773 0.0
O91 O 0.74639 -0.02397 0.17604 0.0
C92 C 0.74886 0.94582 1.00172 0.0
C93 C 0.6237 0.90812 0.17229 0.0
C94 C 0.61488 0.96579 0.17127 0.0
N95 N 0.67789 -0.02713 0.13178 0.0
C96 C 0.66321 0.93254 0.14494 0.0
C97 C 0.65455 -0.01033 0.14773 0.0
C98 C 0.59963 0.92495 0.18605 0.0
C99 C 0.81532 0.05109 0.90408 0.0
N100 N 0.83133 0.03096 0.94443 0.0
C101 C 0.81227 0.04942 0.82136 0.0
C102 C 0.82793 0.0294 0.77877 0.0
C103 C 0.84388 0.00914 0.81934 0.0
C104 C 0.84326 0.00876 0.90155 0.0
C105 C 0.92847 0.01467 0.08572 0.0
C106 C 0.84801 -0.03245 0.11684 0.0
C107 C 0.90087 0.02362 0.05092 0.0
N108 N 0.86128 0.0011 0.06989 0.0
C109 C 0.87512 0.9619 0.15994 0.0
C110 C 0.91568 -0.0114 0.14918 0.0
C111 C 0.77703 -0.02257 0.21001 0.0
C112 C 0.73954 0.11108 0.20293 0.0
C113 C 0.76478 0.05649 0.23558 0.0
C114 C 0.7743 0.08851 0.28765 0.0
C115 C 0.76228 0.11635 0.27058 0.0
N116 N 0.74221 0.05055 0.16837 0.0
C117 C 0.73107 0.07907 0.15148 0.0
Co118 Co 0.89393 0.78661 0.06017 0.0
Co119 Co 0.90984 0.7092 0.09251 0.0
O120 O 0.87508 0.72945 0.05811 0.0
C121 C 0.79867 0.75185 0.03352 0.0
O122 O 0.7936 0.71811 0.00337 0.0
C123 C 0.87643 0.6547 0.93471 0.0
O124 O 0.89209 0.68508 0.88468 0.0
O125 O -0.04409 0.74766 0.01373 0.0
O126 O -0.04874 0.80277 0.03134 0.0
H127 H 0.03971 0.71706 0.17509 0.0
H128 H 0.84885 0.71863 0.93397 0.0
O129 O 0.83292 0.7761 0.07107 0.0
H130 H 0.92343 0.84576 0.78798 0.0
H131 H 0.88574 0.91296 0.06954 0.0
H132 H -0.03179 0.85207 0.12905 0.0
H133 H 0.92772 0.84366 0.93121 0.0
H134 H 0.86643 0.84452 0.01286 0.0
O135 O 0.88268 0.66185 0.00983 0.0
H136 H -0.00305 0.74543 0.12948 0.0
H137 H 0.89537 0.62666 0.13335 0.0
H138 H -0.02275 0.90956 0.2035 0.0
H139 H 0.85341 0.7174 0.79047 0.0
H140 H 0.92597 0.93017 0.19129 0.0
H141 H 0.88763 0.78107 0.71521 0.0
O142 O 0.9105 0.79076 0.18366 0.0
H143 H 0.78285 0.58054 0.18802 0.0
H144 H 0.87872 0.72184 0.2526 0.0
H145 H 0.82478 0.6819 0.34289 0.0
H146 H 0.77384 0.61216 0.30979 0.0
H147 H 0.83709 0.6201 0.09824 0.0
H148 H 0.93605 0.60001 0.17795 0.0
H149 H 0.00912 0.64586 0.20775 0.0
O150 O 0.93961 0.75348 0.17609 0.0
C151 C -0.03017 0.78616 1.00178 0.0
C152 C 0.00753 0.69871 0.1723 0.0
C153 C -0.05014 0.63222 0.17129 0.0
N154 N 0.94278 0.68815 0.1318 0.0
C155 C -0.01689 0.7138 0.14496 0.0
C156 C 0.92598 0.64801 0.14776 0.0
C157 C -0.0093 0.65781 0.18606 0.0
C158 C 0.86452 0.74732 0.90418 0.0
N159 N 0.88469 0.78347 0.94451 0.0
C160 C 0.86619 0.74591 0.82145 0.0
C161 C 0.88623 0.78158 0.77885 0.0
C162 C 0.90652 0.81779 0.81941 0.0
C163 C 0.90692 0.81756 0.90161 0.0
C164 C 0.90097 0.89694 0.08566 0.0
C165 C 0.94806 0.86358 0.1169 0.0
C166 C 0.89203 0.86038 0.05091 0.0
N167 N 0.91452 0.84329 0.06994 0.0
C168 C -0.04627 0.89637 0.15991 0.0
C169 C 0.92703 0.91024 0.14912 0.0
C170 C 0.93821 0.78273 0.21008 0.0
C171 C 0.80456 0.61161 0.20296 0.0
C172 C 0.85916 0.69143 0.23565 0.0
C173 C 0.82714 0.66894 0.28773 0.0
C174 C 0.7993 0.62909 0.27064 0.0
N175 N 0.8651 0.6748 0.16842 0.0
C176 C 0.83658 0.63514 0.15152 0.0
Co177 Co 0.07357 0.14592 0.44424 0.0
Co178 Co 0.16688 0.22335 0.41188 0.0
O179 O 0.11186 0.20308 0.4463 0.0
C180 C 0.01307 0.18067 0.47092 0.0
O181 O 0.04171 0.21435 0.50125 0.0
C182 C 0.18799 0.27783 0.56973 0.0
O183 O 0.17331 0.24745 0.61975 0.0
O184 O 0.17449 0.18487 0.4906 0.0
O185 O 0.11474 0.12976 0.47307 0.0
H186 H 0.28892 0.21556 0.32912 0.0
H187 H 0.09653 0.21389 0.57051 0.0
O188 O 0.02308 0.15643 0.43331 0.0
H189 H 0.04381 0.0867 0.7164 0.0
H190 H 0.93906 0.01956 0.43471 0.0
H191 H 0.08244 0.08047 0.37535 0.0
H192 H 0.0501 0.0888 0.57316 0.0
H193 H -0.01188 0.08802 0.49135 0.0
O194 O 0.18704 0.27069 0.49459 0.0
H195 H 0.21779 0.18716 0.37478 0.0
H196 H 0.23495 0.30592 0.3712 0.0
H197 H 0.03405 0.023 0.30081 0.0
H198 H 0.10234 0.21509 0.71399 0.0
H199 H -0.03786 0.00235 0.313 0.0
H200 H 0.07284 0.15139 0.7892 0.0
O201 O 0.086 0.14178 0.32077 0.0
H202 H 0.1686 0.35205 0.31642 0.0
H203 H 0.1231 0.21072 0.25187 0.0
H204 H 0.10913 0.25068 0.1616 0.0
H205 H 0.12797 0.32044 0.1947 0.0
H206 H 0.18323 0.31246 0.40621 0.0
H207 H 0.30228 0.3326 0.32652 0.0
H208 H 0.32953 0.28677 0.29665 0.0
O209 O 0.15239 0.17908 0.32826 0.0
C210 C 0.14992 0.14638 0.50259 0.0
C211 C 0.27508 0.2339 0.33197 0.0
C212 C 0.28388 0.30039 0.33314 0.0
N213 N 0.22088 0.24443 0.37257 0.0
C214 C 0.23557 0.2188 0.35933 0.0
C215 C 0.24421 0.28458 0.3567 0.0
C216 C 0.29915 0.2748 0.31831 0.0
C217 C 0.08349 0.18519 0.60027 0.0
N218 N 0.06744 0.14904 0.55991 0.0
C219 C 0.08657 0.18658 0.68299 0.0
C220 C 0.07091 0.1509 0.72557 0.0
C221 C 0.05491 0.11469 0.68499 0.0
C222 C 0.0555 0.11493 0.60278 0.0
C223 C -0.02969 0.03559 0.4186 0.0
C224 C 0.05078 0.06896 0.38748 0.0
C225 C -0.00211 0.07215 0.45336 0.0
N226 N 0.0375 0.08924 0.43442 0.0
C227 C 0.02368 0.03617 0.34441 0.0
C228 C -0.01688 0.02229 0.35518 0.0
C229 C 0.12174 0.14984 0.29429 0.0
C230 C 0.15923 0.32097 0.30149 0.0
C231 C 0.13397 0.24114 0.2688 0.0
C232 C 0.12446 0.26364 0.21675 0.0
C233 C 0.13649 0.30351 0.23384 0.0
N234 N 0.15654 0.25776 0.33601 0.0
C235 C 0.16769 0.29743 0.35292 0.0
Co236 Co 0.76972 0.91075 0.44416 0.0
Co237 Co 0.6923 0.92665 0.41183 0.0
O238 O 0.71256 0.8919 0.44622 0.0
C239 C 0.73498 0.81551 0.47085 0.0
O240 O 0.70127 0.81045 0.5011 0.0
C241 C 0.63781 0.89327 0.56967 0.0
O242 O 0.66819 0.90895 0.61969 0.0
O243 O 0.73077 -0.02726 0.49055 0.0
O244 O 0.78588 -0.03191 0.47299 0.0
H245 H 0.70009 0.05647 0.32907 0.0
H246 H 0.70173 0.86571 0.5704 0.0
O247 O 0.75922 0.84975 0.43325 0.0
H248 H 0.82886 0.94025 0.71633 0.0
H249 H 0.89612 0.90263 0.43484 0.0
H250 H 0.83517 -0.01497 0.37524 0.0
H251 H 0.82678 0.94448 0.57309 0.0
H252 H 0.82763 0.88323 0.49138 0.0
O253 O 0.64496 0.89949 0.49454 0.0
H254 H 0.72849 0.01374 0.37473 0.0
H255 H 0.60973 0.91215 0.37117 0.0
H256 H 0.8927 -0.00587 0.30086 0.0
H257 H 0.70049 0.87032 0.71388 0.0
H258 H 0.91337 0.94289 0.31313 0.0
H259 H 0.76417 0.90453 0.78912 0.0
O260 O 0.77388 0.92733 0.32068 0.0
H261 H 0.56362 0.79966 0.3164 0.0
H262 H 0.70493 0.89549 0.25177 0.0
H263 H 0.66498 0.84155 0.16151 0.0
H264 H 0.59523 0.79064 0.19464 0.0
H265 H 0.6032 0.85389 0.40618 0.0
H266 H 0.58305 0.9528 0.32652 0.0
H267 H 0.62888 0.02588 0.29664 0.0
O268 O 0.73656 0.95641 0.3282 0.0
C269 C 0.76926 -0.01335 0.50253 0.0
C270 C 0.68175 0.0243 0.33194 0.0
C271 C 0.61527 -0.03339 0.33313 0.0
N272 N 0.67122 0.95957 0.37254 0.0
C273 C 0.69685 -0.00011 0.35929 0.0
C274 C 0.63107 0.94275 0.35667 0.0
C275 C 0.64085 0.00746 0.3183 0.0
C276 C 0.73042 0.88138 0.60018 0.0
N277 N 0.76658 0.90151 0.55983 0.0
C278 C 0.72901 0.88307 0.6829 0.0
C279 C 0.76468 0.90311 0.72549 0.0
C280 C 0.80089 0.92335 0.68492 0.0
C281 C 0.80067 0.92371 0.60271 0.0
C282 C 0.88008 0.91784 0.41869 0.0
C283 C 0.84669 0.9649 0.38742 0.0
C284 C 0.8435 0.90885 0.45337 0.0
N285 N 0.8264 0.93135 0.43436 0.0
C286 C 0.87951 -0.0294 0.34444 0.0
C287 C 0.8934 0.94393 0.35526 0.0
C288 C 0.76581 0.955 0.29421 0.0
C289 C 0.59469 0.82137 0.30145 0.0
C290 C 0.67452 0.87595 0.26872 0.0
C291 C 0.65202 0.84393 0.21667 0.0
C292 C 0.61216 0.8161 0.23378 0.0
N293 N 0.65789 0.8819 0.33596 0.0
C294 C 0.61823 0.85338 0.35288 0.0
Co295 Co 0.00489 0.84209 0.44423 0.0
Co296 Co -0.011 0.74877 0.41185 0.0
O297 O 0.02375 0.80378 0.44625 0.0
C298 C 0.10013 0.90258 0.47092 0.0
O299 O 0.10517 0.87393 0.50122 0.0
C300 C 0.02236 0.72765 0.56968 0.0
O301 O 0.00667 0.74235 0.61971 0.0
O302 O 0.94291 0.74116 0.49059 0.0
O303 O 0.94756 0.80092 0.47307 0.0
H304 H 0.85918 0.62677 0.3291 0.0
H305 H 0.0499 0.81911 0.57043 0.0
O306 O 0.0659 0.89258 0.43332 0.0
H307 H -0.02455 0.87183 0.71645 0.0
H308 H 0.0131 -0.02337 0.43472 0.0
H309 H 0.9306 0.83326 0.3754 0.0
H310 H -0.0288 0.8655 0.57321 0.0
H311 H 0.03241 0.92752 0.49146 0.0
O312 O 0.01616 0.72859 0.49455 0.0
H313 H 0.90191 0.69789 0.37477 0.0
H314 H 0.00349 0.68068 0.37115 0.0
H315 H 0.92156 0.88168 0.30088 0.0
H316 H 0.0453 0.8133 0.71392 0.0
H317 H -0.02715 0.95357 0.31301 0.0
H318 H 0.01113 0.84283 0.7892 0.0
O319 O -0.01168 0.82967 0.32075 0.0
H320 H 0.116 0.74707 0.31636 0.0
H321 H 0.02017 0.79256 0.25183 0.0
H322 H 0.07413 0.80656 0.16156 0.0
H323 H 0.12504 0.78772 0.19465 0.0
H324 H 0.06174 0.7324 0.40613 0.0
H325 H -0.03717 0.61335 0.32651 0.0
H326 H 0.88976 0.58613 0.29665 0.0
O327 O -0.04076 0.76328 0.32824 0.0
C328 C 0.92899 0.76573 0.50257 0.0
C329 C 0.89135 0.64059 0.33197 0.0
C330 C 0.94902 0.63176 0.33313 0.0
N331 N -0.04392 0.69477 0.37255 0.0
C332 C 0.91576 0.68009 0.35932 0.0
C333 C -0.02711 0.67143 0.35668 0.0
C334 C 0.90818 0.61651 0.31832 0.0
C335 C 0.03424 0.83215 0.60023 0.0
N336 N 0.01413 0.84819 0.5599 0.0
C337 C 0.03256 0.82907 0.68295 0.0
C338 C 0.01255 0.84474 0.72556 0.0
C339 C -0.00768 0.86072 0.68501 0.0
C340 C -0.00805 0.86012 0.60281 0.0
C341 C -0.00214 0.94538 0.41864 0.0
C342 C -0.04925 0.86491 0.38753 0.0
C343 C 0.0068 0.91777 0.45343 0.0
N344 N -0.01571 0.87817 0.43447 0.0
C345 C 0.94509 0.89203 0.34446 0.0
C346 C -0.02821 0.93259 0.35521 0.0
C347 C -0.03936 0.79393 0.29428 0.0
C348 C 0.09429 0.75643 0.30143 0.0
C349 C 0.03971 0.78169 0.26875 0.0
C350 C 0.07175 0.79122 0.2167 0.0
C351 C 0.09958 0.77919 0.23378 0.0
N352 N 0.03375 0.7591 0.33596 0.0
C353 C 0.06227 0.74795 0.35285 0.0
Co354 Co 0.76975 0.84207 0.94419 0.0
Co355 Co 0.69233 0.74876 0.91189 0.0
O356 O 0.71259 0.80378 0.94631 0.0
C357 C 0.73498 0.90255 0.97083 0.0
O358 O 0.70126 0.87391 1.00106 0.0
C359 C 0.63783 0.72767 0.06973 0.0
O360 O 0.66821 0.74237 0.11975 0.0
O361 O 0.73079 0.74115 0.99062 0.0
O362 O 0.78591 0.8009 0.97302 0.0
H363 H 0.7001 0.6267 0.82917 0.0
H364 H 0.70179 0.81919 0.07049 0.0
O365 O 0.75924 0.89256 0.93326 0.0
H366 H 0.82896 0.87175 0.21629 0.0
H367 H 0.89612 -0.02342 0.93476 0.0
H368 H 0.83519 0.83321 0.87523 0.0
H369 H 0.82683 0.86541 0.07305 0.0
H370 H 0.82765 0.92749 0.99137 0.0
O371 O 0.64498 0.72859 0.9946 0.0
H372 H 0.72851 0.69784 0.87482 0.0
H373 H 0.60976 0.68071 0.87115 0.0
H374 H 0.8927 0.88163 0.80077 0.0
H375 H 0.70059 0.81338 0.21398 0.0
H376 H 0.91336 0.95354 0.81305 0.0
H377 H 0.76428 0.84282 0.28915 0.0
O378 O 0.77388 0.82963 0.82072 0.0
H379 H 0.56365 0.74708 0.81645 0.0
H380 H 0.70496 0.79252 0.75182 0.0
H381 H 0.66501 0.80649 0.66155 0.0
H382 H 0.59527 0.78768 0.69468 0.0
H383 H 0.60323 0.73245 0.90625 0.0
H384 H 0.58308 0.61338 0.82649 0.0
H385 H 0.6289 0.58612 0.79663 0.0
O386 O 0.73659 0.76325 0.82827 0.0
C387 C 0.76929 0.76573 0.00257 0.0
C388 C 0.68177 0.64055 0.832 0.0
C389 C 0.61529 0.63177 0.83312 0.0
N390 N 0.67124 0.69476 0.87258 0.0
C391 C 0.69688 0.68006 0.85936 0.0
C392 C 0.6311 0.67144 0.85667 0.0
C393 C 0.64087 0.6165 0.81831 0.0
C394 C 0.73049 0.8322 0.10024 0.0
N395 N 0.76663 0.8482 0.05986 0.0
C396 C 0.7291 0.82912 0.18297 0.0
C397 C 0.76478 0.84474 0.22551 0.0
C398 C 0.80098 0.86068 0.18491 0.0
C399 C 0.80073 0.86008 0.1027 0.0
C400 C 0.88009 0.94533 0.91862 0.0
C401 C 0.84671 0.86487 0.88738 0.0
C402 C 0.84352 0.91774 0.95335 0.0
N403 N 0.82642 0.87814 0.93434 0.0
C404 C 0.87952 0.89199 0.84437 0.0
C405 C 0.89341 0.93255 0.85519 0.0
C406 C 0.76584 0.79389 0.79427 0.0
C407 C 0.59473 0.75644 0.80151 0.0
C408 C 0.67455 0.78167 0.76878 0.0
C409 C 0.65205 0.79118 0.71672 0.0
C410 C 0.6122 0.77917 0.73383 0.0
N411 N 0.65793 0.75911 0.83602 0.0
C412 C 0.61826 0.74798 0.85295 0.0
Co413 Co 0.07358 0.91079 0.94426 0.0
Co414 Co 0.16689 0.92665 0.91189 0.0
O415 O 0.11188 0.89192 0.94632 0.0
C416 C 0.0131 0.81555 0.9709 0.0
O417 O 0.04175 0.81049 1.00119 0.0
C418 C 0.18799 0.89329 0.06973 0.0
O419 O 0.1733 0.90899 0.11975 0.0
O420 O 0.17451 -0.02725 0.99061 0.0
O421 O 0.11475 -0.03188 0.9731 0.0
H422 H 0.28893 0.05644 0.829 0.0
H423 H 0.09651 0.86576 0.07051 0.0
O424 O 0.0231 0.84979 0.93333 0.0
H425 H 0.04382 0.94027 0.21642 0.0
H426 H 0.93906 0.90257 0.93464 0.0
H427 H 0.08244 -0.0149 0.87539 0.0
H428 H 0.05016 0.94449 0.07319 0.0
H429 H -0.01184 0.88327 0.99143 0.0
O430 O 0.18706 0.89949 0.99459 0.0
H431 H 0.2178 0.01373 0.87471 0.0
H432 H 0.23495 0.91212 0.87125 0.0
H433 H 0.03404 -0.00587 0.8008 0.0
H434 H 0.10229 0.87035 0.21401 0.0
H435 H -0.03786 0.94285 0.81293 0.0
H436 H 0.07279 0.90456 0.28922 0.0
O437 O 0.08602 0.92736 0.82079 0.0
H438 H 0.16855 0.79964 0.81639 0.0
H439 H 0.12311 0.89552 0.75187 0.0
H440 H 0.10913 0.84157 0.66159 0.0
H441 H 0.12794 0.79064 0.69467 0.0
H442 H 0.1832 0.85387 0.9062 0.0
H443 H 0.30229 0.95274 0.82658 0.0
H444 H 0.32955 0.02583 0.79668 0.0
O445 O 0.1524 0.95643 0.82828 0.0
C446 C 0.14993 -0.01332 0.00259 0.0
C447 C 0.2751 0.02426 0.83193 0.0
C448 C 0.28389 -0.03343 0.83317 0.0
N449 N 0.2209 0.95955 0.87256 0.0
C450 C 0.23559 -0.00013 0.85929 0.0
C451 C 0.24422 0.94272 0.85673 0.0
C452 C 0.29916 0.00741 0.81833 0.0
C453 C 0.08347 0.88142 0.10028 0.0
N454 N 0.06745 0.90154 0.05993 0.0
C455 C 0.08653 0.88311 0.18301 0.0
C456 C 0.07088 0.90314 0.22559 0.0
C457 C 0.05492 0.92338 0.18501 0.0
C458 C 0.05553 0.92374 0.10281 0.0
C459 C -0.02969 0.91782 0.91858 0.0
C460 C 0.05078 0.96495 0.8875 0.0
C461 C -0.00209 0.90888 0.9534 0.0
N462 N 0.03751 0.9314 0.93446 0.0
C463 C 0.02368 -0.02939 0.84439 0.0
C464 C -0.01688 0.94391 0.85513 0.0
C465 C 0.12175 0.95505 0.79433 0.0
C466 C 0.1592 0.82136 0.80146 0.0
C467 C 0.13397 0.87596 0.7688 0.0
C468 C 0.12445 0.84394 0.71673 0.0
C469 C 0.13646 0.81609 0.73381 0.0
N470 N 0.15654 0.8819 0.83601 0.0
C471 C 0.16767 0.85337 0.85291 0.0
Co472 Co 0.00486 0.1459 0.94419 0.0
Co473 Co -0.01104 0.22331 0.91186 0.0
O474 O 0.02371 0.20305 0.94626 0.0
C475 C 0.10011 0.18066 0.97085 0.0
O476 O 0.10518 0.21439 1.00104 0.0
C477 C 0.02235 0.2778 0.06968 0.0
O478 O 0.0067 0.24742 0.11971 0.0
O479 O 0.94287 0.18484 0.99061 0.0
O480 O 0.94752 0.12973 0.97303 0.0
H481 H 0.85912 0.2155 0.8292 0.0
H482 H 0.04993 0.21387 0.07042 0.0
O483 O 0.06587 0.15641 0.93328 0.0
H484 H -0.02467 0.08671 0.21635 0.0
H485 H 0.01308 0.01957 0.93474 0.0
H486 H 0.93058 0.08043 0.87529 0.0
H487 H -0.02893 0.08883 0.07312 0.0
H488 H 0.03237 0.08799 0.99147 0.0
O489 O 0.01611 0.27066 0.99456 0.0
H490 H 0.90186 0.18711 0.87483 0.0
H491 H 0.00345 0.30587 0.8711 0.0
H492 H 0.92155 0.02295 0.80083 0.0
H493 H 0.04534 0.21508 0.21392 0.0
H494 H -0.02717 0.00234 0.81303 0.0
H495 H 0.01112 0.15139 0.28915 0.0
O496 O -0.01172 0.14175 0.82071 0.0
H497 H 0.11597 0.35197 0.81639 0.0
H498 H 0.02009 0.21068 0.75178 0.0
H499 H 0.07404 0.25062 0.66151 0.0
H500 H 0.12498 0.32036 0.69463 0.0
H501 H 0.06172 0.31241 0.90617 0.0
H502 H -0.03721 0.33254 0.82648 0.0
H503 H 0.88972 0.28671 0.79665 0.0
O504 O -0.04081 0.17904 0.82827 0.0
C505 C 0.92896 0.14635 0.00256 0.0
C506 C 0.8913 0.23385 0.83203 0.0
C507 C 0.94898 0.30033 0.83312 0.0
N508 N -0.04397 0.24439 0.87257 0.0
C509 C 0.9157 0.21875 0.85937 0.0
C510 C -0.02716 0.28453 0.85666 0.0
C511 C 0.90814 0.27475 0.81833 0.0
C512 C 0.03425 0.18517 0.1002 0.0
N513 N 0.01409 0.14902 0.05985 0.0
C514 C 0.03257 0.18656 0.18293 0.0
C515 C 0.01253 0.15089 0.22551 0.0
C516 C -0.00776 0.11469 0.18494 0.0
C517 C -0.00813 0.11492 0.10273 0.0
C518 C -0.00216 0.03558 0.91865 0.0
C519 C -0.04927 0.06893 0.88744 0.0
C520 C 0.00677 0.07213 0.95341 0.0
N521 N -0.01573 0.08922 0.9344 0.0
C522 C 0.94507 0.03614 0.84441 0.0
C523 C -0.02823 0.02227 0.85519 0.0
C524 C -0.03942 0.14978 0.79427 0.0
C525 C 0.09425 0.3209 0.80145 0.0
C526 C 0.03965 0.24108 0.76873 0.0
C527 C 0.07167 0.26358 0.71667 0.0
C528 C 0.09952 0.30343 0.73377 0.0
N529 N 0.0337 0.25771 0.83597 0.0
C530 C 0.06223 0.29737 0.85289 0.0
Co531 Co 0.82521 0.78658 0.56012 0.0
Co532 Co 0.73189 0.70916 0.59248 0.0
O533 O 0.78691 0.72942 0.55807 0.0
C534 C 0.88571 0.75184 0.53343 0.0
O535 O 0.85708 0.71814 0.5031 0.0
C536 C 0.71078 0.65467 0.43465 0.0
O537 O 0.72546 0.68505 0.38463 0.0
O538 O 0.72429 0.74763 0.51374 0.0
O539 O 0.78404 0.80275 0.53128 0.0
H540 H 0.60987 0.71702 0.67515 0.0
H541 H 0.80225 0.7186 0.43387 0.0
O542 O 0.8757 0.77607 0.57105 0.0
H543 H 0.85498 0.84578 0.28795 0.0
H544 H -0.04028 0.91295 0.56959 0.0
H545 H 0.81634 0.85203 0.62901 0.0
H546 H 0.84868 0.8437 0.43118 0.0
H547 H 0.91065 0.84448 0.51298 0.0
O548 O 0.71172 0.66182 0.50979 0.0
H549 H 0.681 0.74538 0.62951 0.0
H550 H 0.66381 0.62661 0.63326 0.0
H551 H 0.86474 0.90951 0.70352 0.0
H552 H 0.79643 0.71739 0.29039 0.0
H553 H 0.93664 0.93016 0.69131 0.0
H554 H 0.82594 0.78108 0.21516 0.0
O555 O 0.81278 0.79073 0.68359 0.0
H556 H 0.73015 0.58045 0.68799 0.0
H557 H 0.77567 0.72179 0.75251 0.0
H558 H 0.78961 0.68182 0.8428 0.0
H559 H 0.77077 0.61207 0.80971 0.0
H560 H 0.71552 0.62004 0.59819 0.0
H561 H 0.59648 0.59996 0.67792 0.0
H562 H 0.56925 0.64582 0.70775 0.0
O563 O 0.74639 0.75343 0.67609 0.0
C564 C 0.74887 0.78612 0.50176 0.0
C565 C 0.6237 0.69867 0.67234 0.0
C566 C 0.61489 0.63217 0.67127 0.0
N567 N 0.67789 0.6881 0.6318 0.0
C568 C 0.66321 0.71375 0.64499 0.0
C569 C 0.65455 0.64796 0.64772 0.0
C570 C 0.59963 0.65777 0.68607 0.0
C571 C 0.81529 0.7473 0.4041 0.0
N572 N 0.83134 0.78345 0.44445 0.0
C573 C 0.8122 0.74591 0.32138 0.0
C574 C 0.82787 0.78158 0.27879 0.0
C575 C 0.84387 0.81779 0.31936 0.0
C576 C 0.84328 0.81757 0.40157 0.0
C577 C 0.92847 0.89692 0.58571 0.0
C578 C 0.848 0.86354 0.61687 0.0
C579 C 0.90088 0.86035 0.55098 0.0
N580 N 0.86128 0.84326 0.56993 0.0
C581 C 0.8751 0.89634 0.65992 0.0
C582 C 0.91567 0.91022 0.64914 0.0
C583 C 0.77704 0.78267 0.71007 0.0
C584 C 0.73952 0.61153 0.70291 0.0
C585 C 0.76479 0.69137 0.73558 0.0
C586 C 0.77429 0.66886 0.78765 0.0
C587 C 0.76226 0.629 0.77057 0.0
N588 N 0.74222 0.67475 0.66837 0.0
C589 C 0.73106 0.63508 0.65147 0.0
Co590 Co 0.12907 0.02175 0.5602 0.0
Co591 Co 0.20648 0.00583 0.59253 0.0
O592 O 0.18623 0.0406 0.55814 0.0
C593 C 0.16381 0.117 0.5335 0.0
O594 O 0.19754 0.12208 0.50328 0.0
C595 C 0.26098 0.03923 0.43472 0.0
O596 O 0.2306 0.02357 0.38469 0.0
O597 O 0.16801 0.95976 0.51377 0.0
O598 O 0.1129 0.96442 0.53136 0.0
H599 H 0.19861 0.87596 0.67517 0.0
H600 H 0.19706 0.06681 0.43398 0.0
O601 O 0.13957 0.08276 0.5711 0.0
H602 H 0.06994 -0.00773 0.28802 0.0
H603 H 0.00266 0.02986 0.56946 0.0
H604 H 0.06362 0.94747 0.62912 0.0
H605 H 0.07201 -0.01199 0.43126 0.0
H606 H 0.07117 0.04928 0.51295 0.0
O607 O 0.25383 0.033 0.50984 0.0
H608 H 0.17025 0.91872 0.62954 0.0
H609 H 0.28902 0.02029 0.6333 0.0
H610 H 0.00608 0.93838 0.70347 0.0
H611 H 0.1983 0.06222 0.29049 0.0
H612 H -0.01459 -0.01038 0.69119 0.0
H613 H 0.13464 0.02802 0.21524 0.0
O614 O 0.12491 0.00517 0.68368 0.0
H615 H 0.33516 0.1328 0.68801 0.0
H616 H 0.19385 0.03696 0.75263 0.0
H617 H 0.23381 0.09087 0.84294 0.0
H618 H 0.30355 0.1418 0.80981 0.0
H619 H 0.29558 0.07858 0.59822 0.0
H620 H 0.31566 -0.02039 0.67793 0.0
H621 H 0.26981 0.90654 0.70776 0.0
O622 O 0.16221 -0.02393 0.67613 0.0
C623 C 0.12952 0.94585 0.50181 0.0
C624 C 0.21696 0.90814 0.67236 0.0
C625 C 0.28345 0.96581 0.67129 0.0
N626 N 0.22753 -0.02711 0.63182 0.0
C627 C 0.20188 0.93256 0.64501 0.0
C628 C 0.26767 -0.01031 0.64774 0.0
C629 C 0.25786 0.92496 0.68608 0.0
C630 C 0.16837 0.05114 0.4042 0.0
N631 N 0.13222 0.031 0.44454 0.0
C632 C 0.16978 0.04946 0.32147 0.0
C633 C 0.13412 0.02943 0.27888 0.0
C634 C 0.09791 0.00917 0.31944 0.0
C635 C 0.09812 0.00879 0.40165 0.0
C636 C 0.0187 0.01466 0.58563 0.0
C637 C 0.0521 -0.03239 0.61693 0.0
C638 C 0.05529 0.02365 0.55096 0.0
N639 N 0.07239 0.00116 0.56999 0.0
C640 C 0.01927 0.96191 0.6599 0.0
C641 C 0.00538 -0.01142 0.64906 0.0
C642 C 0.13297 -0.02251 0.71013 0.0
C643 C 0.30409 0.11109 0.70296 0.0
C644 C 0.22426 0.05651 0.73568 0.0
C645 C 0.24676 0.08851 0.78777 0.0
C646 C 0.28662 0.11635 0.77066 0.0
N647 N 0.24088 0.05057 0.66843 0.0
C648 C 0.28055 0.07908 0.65151 0.0
Co649 Co 0.89389 0.09042 0.56013 0.0
Co650 Co 0.9098 0.18375 0.59252 0.0
O651 O 0.87504 0.12874 0.55812 0.0
C652 C 0.79865 0.02993 0.53342 0.0
O653 O 0.79359 0.05857 0.50314 0.0
C654 C 0.87642 0.20487 0.43471 0.0
O655 O 0.89211 0.19017 0.38467 0.0
O656 O -0.04413 0.19136 0.51376 0.0
O657 O -0.04878 0.13159 0.53128 0.0
H658 H 0.03966 0.30574 0.67518 0.0
H659 H 0.84887 0.1134 0.43396 0.0
O660 O 0.83288 0.03993 0.57103 0.0
H661 H 0.92331 0.06068 0.28788 0.0
H662 H 0.8857 0.95588 0.56958 0.0
H663 H -0.03182 0.09925 0.62895 0.0
H664 H 0.92758 0.06702 0.43112 0.0
H665 H 0.86637 0.00499 0.51288 0.0
O666 O 0.88264 0.20394 0.50984 0.0
H667 H -0.0031 0.23462 0.62954 0.0
H668 H 0.89534 0.25185 0.6333 0.0
H669 H -0.02277 0.05083 0.70344 0.0
H670 H 0.85346 0.11921 0.29047 0.0
H671 H 0.92594 -0.02106 0.6913 0.0
H672 H 0.88762 0.08969 0.21516 0.0
O673 O 0.91047 0.10284 0.68361 0.0
H674 H 0.78281 0.18547 0.68806 0.0
H675 H 0.87863 0.13996 0.75255 0.0
H676 H 0.82469 0.12597 0.84284 0.0
H677 H 0.77377 0.14482 0.80976 0.0
H678 H 0.83707 0.20015 0.59828 0.0
H679 H 0.93602 0.31917 0.67793 0.0
H680 H 0.00909 0.34638 0.70774 0.0
O681 O 0.93956 0.16924 0.67611 0.0
C682 C -0.03021 0.16678 0.50178 0.0
C683 C 0.00748 0.29192 0.67235 0.0
C684 C -0.05018 0.30076 0.67128 0.0
N685 N 0.94274 0.23775 0.63182 0.0
C686 C -0.01694 0.25242 0.64501 0.0
C687 C 0.92594 0.2611 0.64774 0.0
C688 C -0.00934 0.316 0.68607 0.0
C689 C 0.86453 0.10037 0.40415 0.0
N690 N 0.88465 0.08432 0.44446 0.0
C691 C 0.86621 0.10344 0.32143 0.0
C692 C 0.88621 0.08778 0.2788 0.0
C693 C 0.90644 0.07179 0.31933 0.0
C694 C 0.90683 0.07239 0.40154 0.0
C695 C 0.90093 -0.01286 0.58567 0.0
C696 C 0.94804 0.0676 0.61681 0.0
C697 C 0.89198 0.01474 0.5509 0.0
N698 N 0.91449 0.05434 0.56987 0.0
C699 C -0.0463 0.04048 0.65986 0.0
C700 C 0.927 -8e-05 0.64911 0.0
C701 C 0.93815 0.13858 0.71008 0.0
C702 C 0.80452 0.1761 0.70298 0.0
C703 C 0.85909 0.15084 0.73563 0.0
C704 C 0.82707 0.14132 0.7877 0.0
C705 C 0.79924 0.15335 0.77063 0.0
N706 N 0.86505 0.17342 0.66843 0.0
C707 C 0.83654 0.18459 0.65155 0.0
Co708 Co 0.79571 0.42379 0.3935 0.0
Co709 Co 0.87312 0.5171 0.42581 0.0
O710 O 0.85287 0.46208 0.3914 0.0
C711 C 0.83047 0.36329 0.36687 0.0
O712 O 0.86419 0.39194 0.33665 0.0
C713 C 0.92762 0.53818 0.26799 0.0
O714 O 0.89724 0.52348 0.21797 0.0
O715 O 0.83465 0.5247 0.34705 0.0
O716 O 0.77954 0.46496 0.36467 0.0
H717 H 0.86528 0.63914 0.50842 0.0
H718 H 0.86367 0.44667 0.26723 0.0
O719 O 0.80622 0.3733 0.40443 0.0
H720 H 0.73652 0.39409 0.12138 0.0
H721 H 0.66934 0.28928 0.40291 0.0
H722 H 0.73026 0.43264 0.46244 0.0
H723 H 0.73863 0.40044 0.26461 0.0
H724 H 0.73781 0.33837 0.3463 0.0
O725 O 0.92047 0.53727 0.34312 0.0
H726 H 0.8369 0.56801 0.4628 0.0
H727 H -0.04434 0.58516 0.46663 0.0
H728 H 0.67276 0.38422 0.53691 0.0
H729 H 0.86489 0.45247 0.12373 0.0
H730 H 0.65211 0.31232 0.52464 0.0
H731 H 0.8012 0.42302 0.04854 0.0
O732 O 0.79157 0.43622 0.51697 0.0
H733 H 0.00179 0.51879 0.52129 0.0
H734 H 0.86048 0.47335 0.58589 0.0
H735 H 0.90042 0.45939 0.67619 0.0
H736 H -0.02983 0.47819 0.64307 0.0
H737 H -0.03778 0.53343 0.43149 0.0
H738 H -0.01769 0.65249 0.51128 0.0
H739 H 0.93647 0.67973 0.54109 0.0
O740 O 0.82884 0.5026 0.5094 0.0
C741 C 0.79616 0.50013 0.33509 0.0
C742 C 0.88362 0.62529 0.50564 0.0
C743 C -0.0499 0.63409 0.50462 0.0
N744 N 0.89417 0.5711 0.46512 0.0
C745 C 0.86853 0.58579 0.47829 0.0
C746 C 0.93431 0.59442 0.48107 0.0
C747 C 0.92451 0.64935 0.5194 0.0
C748 C 0.83498 0.43366 0.23746 0.0
N749 N 0.79884 0.41766 0.27783 0.0
C750 C 0.83637 0.43673 0.15474 0.0
C751 C 0.8007 0.4211 0.11218 0.0
C752 C 0.7645 0.40517 0.15277 0.0
C753 C 0.76473 0.40577 0.23497 0.0
C754 C 0.68536 0.32053 0.41905 0.0
C755 C 0.71875 0.40099 0.45029 0.0
C756 C 0.72194 0.34812 0.38432 0.0
N757 N 0.73903 0.38772 0.40333 0.0
C758 C 0.68594 0.37387 0.49331 0.0
C759 C 0.67206 0.33331 0.4825 0.0
C760 C 0.7996 0.47196 0.54341 0.0
C761 C -0.02929 0.50943 0.53623 0.0
C762 C 0.89089 0.4842 0.56894 0.0
C763 C 0.91338 0.4747 0.62102 0.0
C764 C -0.04676 0.48671 0.60391 0.0
N765 N 0.90751 0.50676 0.5017 0.0
C766 C 0.94718 0.5179 0.48478 0.0
Co767 Co 0.49187 0.35504 0.39343 0.0
Co768 Co 0.39855 0.33914 0.4258 0.0
O769 O 0.45357 0.37391 0.39138 0.0
C770 C 0.55235 0.45029 0.36679 0.0
O771 O 0.5237 0.45535 0.33656 0.0
C772 C 0.37746 0.37254 0.26799 0.0
O773 O 0.39217 0.35686 0.21795 0.0
O774 O 0.39095 0.29308 0.34703 0.0
O775 O 0.4507 0.29771 0.3646 0.0
H776 H 0.27654 0.20927 0.50842 0.0
H777 H 0.46895 0.40009 0.2672 0.0
O778 O 0.54235 0.41605 0.40435 0.0
H779 H 0.52163 0.32559 0.12124 0.0
H780 H 0.6264 0.36327 0.40299 0.0
H781 H 0.48302 0.28074 0.46229 0.0
H782 H 0.51527 0.32133 0.26448 0.0
H783 H 0.57729 0.38256 0.3462 0.0
O784 O 0.37837 0.36632 0.34312 0.0
H785 H 0.34767 0.25203 0.46279 0.0
H786 H 0.33047 0.35361 0.46665 0.0
H787 H 0.53143 0.27172 0.53688 0.0
H788 H 0.46318 0.39552 0.12371 0.0
H789 H 0.60332 0.32301 0.52473 0.0
H790 H 0.49268 0.36132 0.04847 0.0
O791 O 0.47943 0.33847 0.5169 0.0
H792 H 0.39685 0.46613 0.52135 0.0
H793 H 0.44231 0.37027 0.58584 0.0
H794 H 0.45628 0.4242 0.67614 0.0
H795 H 0.43747 0.47513 0.64307 0.0
H796 H 0.38218 0.41189 0.43156 0.0
H797 H 0.26314 0.31293 0.51129 0.0
H798 H 0.23592 0.23985 0.54108 0.0
O799 O 0.41306 0.30937 0.50938 0.0
C800 C 0.41553 0.27915 0.33506 0.0
C801 C 0.29037 0.24145 0.50563 0.0
C802 C 0.28155 0.29912 0.50461 0.0
N803 N 0.34455 0.3062 0.46512 0.0
C804 C 0.32988 0.26587 0.47828 0.0
C805 C 0.32121 0.323 0.48107 0.0
C806 C 0.2663 0.25828 0.51939 0.0
C807 C 0.48199 0.38443 0.23742 0.0
N808 N 0.498 0.36429 0.27776 0.0
C809 C 0.47893 0.38276 0.1547 0.0
C810 C 0.49458 0.36273 0.1121 0.0
C811 C 0.51053 0.34248 0.15267 0.0
C812 C 0.50991 0.3421 0.23487 0.0
C813 C 0.59514 0.34802 0.41906 0.0
C814 C 0.51467 0.30089 0.45017 0.0
C815 C 0.56754 0.35695 0.38424 0.0
N816 N 0.52794 0.33444 0.40321 0.0
C817 C 0.54179 0.29524 0.49327 0.0
C818 C 0.58235 0.32194 0.48252 0.0
C819 C 0.4437 0.31076 0.54335 0.0
C820 C 0.40621 0.44441 0.53627 0.0
C821 C 0.43145 0.38982 0.56892 0.0
C822 C 0.44096 0.42184 0.621 0.0
C823 C 0.42894 0.44968 0.60392 0.0
N824 N 0.40888 0.38388 0.50171 0.0
C825 C 0.39773 0.4124 0.48482 0.0
Co826 Co 0.5606 0.11994 0.39352 0.0
Co827 Co 0.57651 0.04254 0.42584 0.0
O828 O 0.54175 0.06279 0.39145 0.0
C829 C 0.46534 0.08518 0.36687 0.0
O830 O 0.46027 0.05145 0.33672 0.0
C831 C 0.5431 -0.01197 0.26804 0.0
O832 O 0.55875 0.01841 0.218 0.0
O833 O 0.62258 0.081 0.34706 0.0
O834 O 0.61794 0.13611 0.36469 0.0
H835 H 0.70639 0.0504 0.50841 0.0
H836 H 0.51551 0.05197 0.2673 0.0
O837 O 0.49959 0.10943 0.40442 0.0
H838 H 0.59013 0.17912 0.12135 0.0
H839 H 0.55242 0.2463 0.40286 0.0
H840 H 0.63487 0.1854 0.46242 0.0
H841 H 0.59441 0.177 0.26459 0.0
H842 H 0.5331 0.17785 0.3462 0.0
O843 O 0.54935 -0.00482 0.34316 0.0
H844 H 0.66363 0.07877 0.46279 0.0
H845 H 0.56205 0.96 0.46668 0.0
H846 H 0.64391 0.2429 0.53685 0.0
H847 H 0.52008 0.05075 0.1238 0.0
H848 H 0.59264 0.26352 0.52461 0.0
H849 H 0.55431 0.11444 0.04856 0.0
O850 O 0.57717 0.12409 0.517 0.0
H851 H 0.44952 0.91387 0.52135 0.0
H852 H 0.5454 0.05517 0.58594 0.0
H853 H 0.49146 0.01523 0.67623 0.0
H854 H 0.44052 0.9455 0.64312 0.0
H855 H 0.50377 0.95344 0.43157 0.0
H856 H 0.60273 0.93335 0.51129 0.0
H857 H 0.6758 -0.0208 0.54108 0.0
O858 O 0.60628 0.08682 0.50942 0.0
C859 C 0.6365 0.1195 0.33511 0.0
C860 C 0.67421 0.03205 0.50563 0.0
C861 C 0.61654 0.96556 0.50462 0.0
N862 N 0.60946 0.02149 0.46513 0.0
C863 C 0.64979 0.04714 0.47828 0.0
C864 C 0.59266 -0.01865 0.48109 0.0
C865 C 0.65738 -0.00884 0.51939 0.0
C866 C 0.53119 0.08067 0.23752 0.0
N867 N 0.55136 0.11681 0.27786 0.0
C868 C 0.53286 0.07927 0.15479 0.0
C869 C 0.55291 0.11494 0.1122 0.0
C870 C 0.57321 0.15114 0.15277 0.0
C871 C 0.5736 0.15091 0.23497 0.0
C872 C 0.56764 0.23028 0.41899 0.0
C873 C 0.61473 0.19691 0.45026 0.0
C874 C 0.5587 0.19372 0.38426 0.0
N875 N 0.58119 0.17662 0.4033 0.0
C876 C 0.62039 0.22971 0.49327 0.0
C877 C 0.5937 0.24358 0.48245 0.0
C878 C 0.60488 0.11606 0.54342 0.0
C879 C 0.47124 0.94495 0.53629 0.0
C880 C 0.52584 0.02477 0.56899 0.0
C881 C 0.49382 0.00227 0.62107 0.0
C882 C 0.46597 0.96242 0.60397 0.0
N883 N 0.53178 0.00814 0.50175 0.0
C884 C 0.50325 -0.03153 0.48485 0.0
Co885 Co 0.74023 0.47926 0.77756 0.0
Co886 Co 0.83354 0.55669 0.74521 0.0
O887 O 0.77852 0.53642 0.77963 0.0
C888 C 0.67973 0.51401 0.80425 0.0
O889 O 0.70837 0.54769 0.83458 0.0
C890 C 0.85466 0.61117 0.90306 0.0
O891 O 0.83997 0.58079 0.95308 0.0
O892 O 0.84115 0.51822 0.82393 0.0
O893 O 0.7814 0.4631 0.8064 0.0
H894 H -0.04442 0.5489 0.66244 0.0
H895 H 0.76318 0.54723 0.90384 0.0
O896 O 0.68975 0.48978 0.76663 0.0
H897 H 0.71048 0.42004 0.0497 0.0
H898 H 0.60573 0.35289 0.76807 0.0
H899 H 0.7491 0.41382 0.70866 0.0
H900 H 0.71678 0.42215 0.90647 0.0
H901 H 0.65478 0.42136 0.82467 0.0
O902 O 0.85371 0.60403 0.82792 0.0
H903 H 0.88445 0.5205 0.7081 0.0
H904 H 0.90162 0.63927 0.70453 0.0
H905 H 0.70071 0.35633 0.63417 0.0
H906 H 0.769 0.54843 0.04732 0.0
H907 H 0.6288 0.33567 0.64638 0.0
H908 H 0.7395 0.48473 0.12252 0.0
O909 O 0.75266 0.47512 0.65409 0.0
H910 H 0.83527 0.6854 0.64975 0.0
H911 H 0.78976 0.54407 0.5852 0.0
H912 H 0.7758 0.58403 0.49493 0.0
H913 H 0.79464 0.65379 0.52803 0.0
H914 H 0.84989 0.6458 0.73955 0.0
H915 H -0.03106 0.66594 0.65986 0.0
H916 H -0.0038 0.62011 0.62998 0.0
O917 O 0.81905 0.51243 0.66159 0.0
C918 C 0.81658 0.47972 0.83592 0.0
C919 C 0.94174 0.56724 0.6653 0.0
C920 C -0.04945 0.63373 0.66647 0.0
N921 N 0.88755 0.57778 0.7059 0.0
C922 C 0.90224 0.55214 0.69265 0.0
C923 C 0.91088 0.61793 0.69003 0.0
C924 C -0.03419 0.60814 0.65164 0.0
C925 C 0.75014 0.51853 0.9336 0.0
N926 N 0.7341 0.48238 0.89324 0.0
C927 C 0.75323 0.51991 0.01632 0.0
C928 C 0.73757 0.48423 0.05889 0.0
C929 C 0.72158 0.44803 0.01831 0.0
C930 C 0.72217 0.44827 0.9361 0.0
C931 C 0.63697 0.36893 0.75196 0.0
C932 C 0.71744 0.4023 0.7208 0.0
C933 C 0.66455 0.4055 0.78669 0.0
N934 N 0.70416 0.42259 0.76774 0.0
C935 C 0.69034 0.36951 0.67776 0.0
C936 C 0.64978 0.35562 0.68854 0.0
C937 C 0.7884 0.48319 0.62761 0.0
C938 C 0.8259 0.65432 0.63482 0.0
C939 C 0.80064 0.57448 0.60213 0.0
C940 C 0.79112 0.59699 0.55008 0.0
C941 C 0.80316 0.63685 0.56717 0.0
N942 N 0.82321 0.59111 0.66935 0.0
C943 C 0.83436 0.63078 0.68626 0.0
Co944 Co 0.4364 0.24409 0.7775 0.0
Co945 Co 0.35897 0.25998 0.74516 0.0
O946 O 0.37924 0.22523 0.77956 0.0
C947 C 0.40166 0.14885 0.80419 0.0
O948 O 0.36796 0.1438 0.83446 0.0
C949 C 0.30449 0.22661 0.90301 0.0
O950 O 0.33486 0.24231 0.95303 0.0
O951 O 0.39744 0.30607 0.82389 0.0
O952 O 0.45255 0.30142 0.80634 0.0
H953 H 0.36675 0.3898 0.6624 0.0
H954 H 0.3684 0.19906 0.90373 0.0
O955 O 0.4259 0.18309 0.76659 0.0
H956 H 0.49553 0.27356 0.0497 0.0
H957 H 0.56279 0.23596 0.76817 0.0
H958 H 0.50184 0.31837 0.7086 0.0
H959 H 0.49346 0.2778 0.90645 0.0
H960 H 0.4943 0.21657 0.82474 0.0
O961 O 0.31163 0.23282 0.82788 0.0
H962 H 0.39515 0.34707 0.70806 0.0
H963 H 0.2764 0.24547 0.70451 0.0
H964 H 0.55937 0.32746 0.6342 0.0
H965 H 0.36716 0.20367 0.04721 0.0
H966 H 0.58003 0.27621 0.64645 0.0
H967 H 0.43082 0.23787 0.12247 0.0
O968 O 0.44056 0.26067 0.65402 0.0
H969 H 0.2303 0.13298 0.64976 0.0
H970 H 0.3716 0.22883 0.5851 0.0
H971 H 0.33165 0.17489 0.49484 0.0
H972 H 0.26191 0.12397 0.52798 0.0
H973 H 0.26988 0.18721 0.73954 0.0
H974 H 0.24972 0.28612 0.65986 0.0
H975 H 0.29554 0.3592 0.62998 0.0
O976 O 0.40323 0.28974 0.66154 0.0
C977 C 0.43593 0.31999 0.83587 0.0
C978 C 0.34841 0.35762 0.66528 0.0
C979 C 0.28193 0.29993 0.66647 0.0
N980 N 0.33788 0.29289 0.70587 0.0
C981 C 0.36352 0.33322 0.69263 0.0
C982 C 0.29774 0.27607 0.69001 0.0
C983 C 0.30751 0.34078 0.65164 0.0
C984 C 0.39709 0.21473 0.93352 0.0
N985 N 0.43325 0.23484 0.89317 0.0
C986 C 0.39568 0.21642 0.01624 0.0
C987 C 0.43134 0.23644 0.05883 0.0
C988 C 0.46755 0.25667 0.01827 0.0
C989 C 0.46734 0.25704 0.93607 0.0
C990 C 0.54675 0.25117 0.75203 0.0
C991 C 0.51337 0.29824 0.72077 0.0
C992 C 0.51017 0.24219 0.78673 0.0
N993 N 0.49307 0.26469 0.76772 0.0
C994 C 0.54618 0.30393 0.67778 0.0
C995 C 0.56007 0.27725 0.68859 0.0
C996 C 0.43248 0.28834 0.62755 0.0
C997 C 0.26137 0.15469 0.63481 0.0
C998 C 0.34119 0.20928 0.60206 0.0
C999 C 0.31869 0.17726 0.55 0.0
C1000 C 0.27884 0.14942 0.56712 0.0
N1001 N 0.32457 0.21523 0.6693 0.0
C1002 C 0.28491 0.1867 0.68624 0.0
Co1003 Co 0.67157 0.17542 0.77757 0.0
Co1004 Co 0.65568 0.0821 0.74517 0.0
O1005 O 0.69042 0.13712 0.77958 0.0
C1006 C 0.76681 0.23592 0.80427 0.0
O1007 O 0.77184 0.20727 0.83458 0.0
C1008 C 0.68903 0.06098 0.90301 0.0
O1009 O 0.67333 0.07566 0.95304 0.0
O1010 O 0.60959 0.07449 0.82391 0.0
O1011 O 0.61424 0.13425 0.80642 0.0
H1012 H 0.52586 0.9601 0.66241 0.0
H1013 H 0.71656 0.15242 0.90376 0.0
O1014 O 0.73257 0.22591 0.76666 0.0
H1015 H 0.64214 0.20518 0.0498 0.0
H1016 H 0.67976 0.30996 0.76805 0.0
H1017 H 0.59727 0.16659 0.70875 0.0
H1018 H 0.6379 0.19886 0.90657 0.0
H1019 H 0.6991 0.26086 0.82476 0.0
O1020 O 0.68283 0.06192 0.82787 0.0
H1021 H 0.56859 0.03122 0.70808 0.0
H1022 H 0.67017 0.01401 0.7045 0.0
H1023 H 0.58823 0.215 0.63423 0.0
H1024 H 0.71196 0.14661 0.04725 0.0
H1025 H 0.63951 0.28689 0.64636 0.0
H1026 H 0.67781 0.17614 0.12254 0.0
O1027 O 0.65499 0.163 0.65409 0.0
H1028 H 0.78268 0.08041 0.64968 0.0
H1029 H 0.68684 0.1259 0.58516 0.0
H1030 H 0.7408 0.1399 0.49489 0.0
H1031 H 0.79172 0.12106 0.52797 0.0
H1032 H 0.72842 0.06573 0.73946 0.0
H1033 H 0.62952 0.94669 0.65985 0.0
H1034 H 0.55644 0.91946 0.62999 0.0
O1035 O 0.62592 0.09661 0.66157 0.0
C1036 C 0.59567 0.09906 0.83591 0.0
C1037 C 0.55803 -0.02608 0.66529 0.0
C1038 C 0.61571 0.96509 0.66647 0.0
N1039 N 0.62276 0.0281 0.70588 0.0
C1040 C 0.58244 0.01343 0.69264 0.0
C1041 C 0.63957 0.00476 0.69001 0.0
C1042 C 0.57486 0.94984 0.65165 0.0
C1043 C 0.70091 0.16547 0.93356 0.0
N1044 N 0.68081 0.18152 0.89324 0.0
C1045 C 0.69922 0.16238 0.01628 0.0
C1046 C 0.67922 0.17806 0.0589 0.0
C1047 C 0.65901 0.19406 0.01836 0.0
C1048 C 0.65864 0.19347 0.93615 0.0
C1049 C 0.66453 0.27871 0.75197 0.0
C1050 C 0.61742 0.19824 0.72088 0.0
C1051 C 0.67348 0.25111 0.78675 0.0
N1052 N 0.65097 0.21151 0.76781 0.0
C1053 C 0.61175 0.22536 0.67781 0.0
C1054 C 0.63845 0.26592 0.68855 0.0
C1055 C 0.62732 0.12726 0.62761 0.0
C1056 C 0.76097 0.08977 0.63475 0.0
C1057 C 0.70639 0.11503 0.60208 0.0
C1058 C 0.73842 0.12456 0.55002 0.0
C1059 C 0.76625 0.11253 0.5671 0.0
N1060 N 0.70043 0.09244 0.66928 0.0
C1061 C 0.72894 0.08128 0.68618 0.0
Co1062 Co 0.43642 0.1754 0.27753 0.0
Co1063 Co 0.359 0.08209 0.24523 0.0
O1064 O 0.37926 0.13711 0.27965 0.0
C1065 C 0.40165 0.23588 0.30417 0.0
O1066 O 0.36794 0.20724 0.33442 0.0
C1067 C 0.30451 0.061 0.40307 0.0
O1068 O 0.33488 0.0757 0.45309 0.0
O1069 O 0.39747 0.07448 0.32396 0.0
O1070 O 0.45258 0.13423 0.30636 0.0
H1071 H 0.36678 0.96003 0.16256 0.0
H1072 H 0.36846 0.15251 0.40383 0.0
O1073 O 0.4259 0.22589 0.2666 0.0
H1074 H 0.49563 0.20509 0.54963 0.0
H1075 H 0.56278 0.30991 0.26806 0.0
H1076 H 0.50186 0.16654 0.20858 0.0
H1077 H 0.49351 0.19876 0.4064 0.0
H1078 H 0.49431 0.26082 0.3247 0.0
O1079 O 0.31166 0.06192 0.32793 0.0
H1080 H 0.39518 0.03117 0.20819 0.0
H1081 H 0.27644 0.01404 0.20447 0.0
H1082 H 0.55936 0.21496 0.13409 0.0
H1083 H 0.36726 0.1467 0.54732 0.0
H1084 H 0.58001 0.28687 0.14634 0.0
H1085 H 0.43095 0.17615 0.62249 0.0
O1086 O 0.44055 0.16296 0.15406 0.0
H1087 H 0.23033 0.08042 0.14979 0.0
H1088 H 0.37164 0.12584 0.08515 0.0
H1089 H 0.33169 0.13984 0.9949 0.0
H1090 H 0.26195 0.12103 0.02803 0.0
H1091 H 0.26991 0.06578 0.23958 0.0
H1092 H 0.24976 0.94672 0.15981 0.0
H1093 H 0.29558 0.91945 0.12998 0.0
O1094 O 0.40327 0.09658 0.16162 0.0
C1095 C 0.43596 0.09906 0.33592 0.0
C1096 C 0.34845 -0.02612 0.16537 0.0
C1097 C 0.28197 0.96511 0.16646 0.0
N1098 N 0.33792 0.02809 0.20592 0.0
C1099 C 0.36355 0.01339 0.19272 0.0
C1100 C 0.29778 0.00477 0.19 0.0
C1101 C 0.30755 0.94983 0.15165 0.0
C1102 C 0.39716 0.16553 0.43358 0.0
N1103 N 0.4333 0.18153 0.3932 0.0
C1104 C 0.39577 0.16245 0.51631 0.0
C1105 C 0.43144 0.17807 0.55886 0.0
C1106 C 0.46764 0.19402 0.51825 0.0
C1107 C 0.4674 0.19342 0.43604 0.0
C1108 C 0.54675 0.27866 0.25194 0.0
C1109 C 0.51338 0.1982 0.22072 0.0
C1110 C 0.51018 0.25107 0.28667 0.0
N1111 N 0.49309 0.21147 0.26768 0.0
C1112 C 0.54618 0.22531 0.17769 0.0
C1113 C 0.56006 0.26588 0.18849 0.0
C1114 C 0.43252 0.12723 0.12762 0.0
C1115 C 0.2614 0.08978 0.13485 0.0
C1116 C 0.34123 0.115 0.10212 0.0
C1117 C 0.31873 0.12452 0.05007 0.0
C1118 C 0.27888 0.11251 0.06717 0.0
N1119 N 0.3246 0.09244 0.16936 0.0
C1120 C 0.28494 0.08131 0.18629 0.0
Co1121 Co 0.74024 0.24414 0.2776 0.0
Co1122 Co 0.83355 0.26002 0.24525 0.0
O1123 O 0.77854 0.22527 0.27968 0.0
C1124 C 0.67977 0.14889 0.30423 0.0
O1125 O 0.70842 0.14383 0.33449 0.0
C1126 C 0.85465 0.22663 0.40307 0.0
O1127 O 0.83994 0.2423 0.45311 0.0
O1128 O 0.84116 0.3061 0.32399 0.0
O1129 O 0.78141 0.30147 0.30644 0.0
H1130 H -0.04442 0.38985 0.16254 0.0
H1131 H 0.76315 0.19909 0.40386 0.0
O1132 O 0.68976 0.18314 0.26667 0.0
H1133 H 0.71048 0.27363 0.54975 0.0
H1134 H 0.60571 0.2359 0.26798 0.0
H1135 H 0.7491 0.31844 0.20872 0.0
H1136 H 0.71685 0.27786 0.40652 0.0
H1137 H 0.65482 0.21662 0.3248 0.0
O1138 O 0.85373 0.23285 0.32794 0.0
H1139 H 0.88445 0.34712 0.20819 0.0
H1140 H 0.90162 0.24552 0.20447 0.0
H1141 H 0.70069 0.32746 0.13412 0.0
H1142 H 0.76891 0.20368 0.54736 0.0
H1143 H 0.6288 0.27617 0.14626 0.0
H1144 H 0.73942 0.23789 0.62257 0.0
O1145 O 0.75268 0.2607 0.15413 0.0
H1146 H 0.83524 0.13302 0.14973 0.0
H1147 H 0.78979 0.22888 0.08522 0.0
H1148 H 0.7758 0.17494 0.99493 0.0
H1149 H 0.79462 0.12401 0.02801 0.0
H1150 H 0.8499 0.18725 0.23953 0.0
H1151 H -0.03105 0.28617 0.15982 0.0
H1152 H -0.0038 0.35925 0.12999 0.0
O1153 O 0.81906 0.28979 0.16165 0.0
C1154 C 0.81659 0.32002 0.33595 0.0
C1155 C 0.94175 0.35768 0.16537 0.0
C1156 C -0.04944 0.29999 0.16646 0.0
N1157 N 0.88756 0.29294 0.20592 0.0
C1158 C 0.90224 0.33327 0.19272 0.0
C1159 C 0.91089 0.27612 0.19001 0.0
C1160 C -0.03419 0.34084 0.15166 0.0
C1161 C 0.75012 0.21476 0.43363 0.0
N1162 N 0.73411 0.23489 0.39327 0.0
C1163 C 0.75317 0.21644 0.51635 0.0
C1164 C 0.73752 0.23648 0.55893 0.0
C1165 C 0.72158 0.25673 0.51835 0.0
C1166 C 0.72219 0.2571 0.43614 0.0
C1167 C 0.63697 0.25116 0.25192 0.0
C1168 C 0.71744 0.29829 0.22084 0.0
C1169 C 0.66457 0.24223 0.28675 0.0
N1170 N 0.70417 0.26475 0.2678 0.0
C1171 C 0.69033 0.30394 0.17772 0.0
C1172 C 0.64977 0.27723 0.18846 0.0
C1173 C 0.78841 0.28841 0.12768 0.0
C1174 C 0.82588 0.15473 0.13481 0.0
C1175 C 0.80065 0.20933 0.10215 0.0
C1176 C 0.79112 0.17731 0.05008 0.0
C1177 C 0.80314 0.14947 0.06716 0.0
N1178 N 0.82322 0.21527 0.16936 0.0
C1179 C 0.83436 0.18674 0.18625 0.0
Co1180 Co 0.67152 0.47923 0.27751 0.0
Co1181 Co 0.65562 0.55665 0.24519 0.0
O1182 O 0.69037 0.53639 0.27959 0.0
C1183 C 0.76677 0.514 0.30416 0.0
O1184 O 0.77185 0.54773 0.33434 0.0
C1185 C 0.68902 0.61114 0.40301 0.0
O1186 O 0.67337 0.58076 0.45304 0.0
O1187 O 0.60954 0.51818 0.32394 0.0
O1188 O 0.61418 0.46307 0.30634 0.0
H1189 H 0.52579 0.54884 0.16252 0.0
H1190 H 0.7166 0.5472 0.40375 0.0
O1191 O 0.73253 0.48975 0.26661 0.0
H1192 H 0.64197 0.42004 0.54965 0.0
H1193 H 0.67972 0.35289 0.2681 0.0
H1194 H 0.59725 0.41378 0.2086 0.0
H1195 H 0.63771 0.42217 0.40642 0.0
H1196 H 0.69902 0.42133 0.3248 0.0
O1197 O 0.68278 0.60399 0.32789 0.0
H1198 H 0.56852 0.52045 0.20816 0.0
H1199 H 0.67011 0.63921 0.20443 0.0
H1200 H 0.58821 0.35628 0.13416 0.0
H1201 H 0.71202 0.5484 0.54726 0.0
H1202 H 0.63948 0.33566 0.14637 0.0
H1203 H 0.67777 0.48471 0.62247 0.0
O1204 O 0.65495 0.47509 0.15403 0.0
H1205 H 0.78263 0.68531 0.14972 0.0
H1206 H 0.68675 0.54402 0.08511 0.0
H1207 H 0.74071 0.58396 0.99484 0.0
H1208 H 0.79164 0.6537 0.02796 0.0
H1209 H 0.72838 0.64574 0.23951 0.0
H1210 H 0.62946 0.66588 0.15981 0.0
H1211 H 0.55639 0.62005 0.12998 0.0
O1212 O 0.62586 0.51238 0.1616 0.0
C1213 C 0.59562 0.47968 0.33589 0.0
C1214 C 0.55797 0.56719 0.16535 0.0
C1215 C 0.61564 0.63367 0.16645 0.0
N1216 N 0.62269 0.57772 0.2059 0.0
C1217 C 0.58237 0.55208 0.1927 0.0
C1218 C 0.63951 0.61787 0.18998 0.0
C1219 C 0.5748 0.60809 0.15165 0.0
C1220 C 0.70092 0.5185 0.43353 0.0
N1221 N 0.68075 0.48236 0.39317 0.0
C1222 C 0.69924 0.51989 0.51625 0.0
C1223 C 0.67918 0.48422 0.55883 0.0
C1224 C 0.65889 0.44802 0.51825 0.0
C1225 C 0.65851 0.44826 0.43605 0.0
C1226 C 0.66449 0.3689 0.25199 0.0
C1227 C 0.61739 0.40227 0.22075 0.0
C1228 C 0.67343 0.40546 0.28674 0.0
N1229 N 0.65093 0.42256 0.26771 0.0
C1230 C 0.61173 0.36947 0.17773 0.0
C1231 C 0.63842 0.3556 0.18853 0.0
C1232 C 0.62725 0.48313 0.1276 0.0
C1233 C 0.76091 0.65424 0.13478 0.0
C1234 C 0.70631 0.57442 0.10206 0.0
C1235 C 0.73834 0.59692 0.05 0.0
C1236 C 0.76618 0.63677 0.0671 0.0
N1237 N 0.70037 0.59105 0.1693 0.0
C1238 C 0.72889 0.63071 0.18622 0.0
Co1239 Co 0.49189 0.11991 0.89347 0.0
Co1240 Co 0.39857 0.0425 0.92582 0.0
O1241 O 0.45358 0.06275 0.89141 0.0
C1242 C 0.55238 0.08516 0.86677 0.0
O1243 O 0.52375 0.05147 0.83645 0.0
C1244 C 0.37746 -0.012 0.76799 0.0
O1245 O 0.39214 0.01838 0.71796 0.0
O1246 O 0.39097 0.08097 0.84705 0.0
O1247 O 0.45072 0.13608 0.86463 0.0
H1248 H 0.27654 0.0504 0.00831 0.0
H1249 H 0.46894 0.05194 0.76722 0.0
O1250 O 0.54237 0.1094 0.90439 0.0
H1251 H 0.52164 0.17912 0.6213 0.0
H1252 H 0.62639 0.2463 0.90289 0.0
H1253 H 0.48302 0.18536 0.96236 0.0
H1254 H 0.51533 0.17702 0.76454 0.0
H1255 H 0.57733 0.17781 0.84634 0.0
O1256 O 0.37839 -0.00485 0.84313 0.0
H1257 H 0.34768 0.07875 0.96274 0.0
H1258 H 0.33048 0.95997 0.9667 0.0
H1259 H 0.53142 0.24285 0.03683 0.0
H1260 H 0.46312 0.05073 0.62373 0.0
H1261 H 0.60332 0.26351 0.0246 0.0
H1262 H 0.49262 0.11442 0.54851 0.0
O1263 O 0.47945 0.12405 0.01694 0.0
H1264 H 0.39681 0.91379 0.02133 0.0
H1265 H 0.44233 0.05513 0.08585 0.0
H1266 H 0.45629 0.01516 0.17614 0.0
H1267 H 0.43744 0.9454 0.14304 0.0
H1268 H 0.38217 0.95338 0.93155 0.0
H1269 H 0.26315 0.93335 0.01133 0.0
H1270 H 0.23593 -0.02079 0.0411 0.0
O1271 O 0.41306 0.08678 0.00941 0.0
C1272 C 0.41555 0.11946 0.83509 0.0
C1273 C 0.29038 0.03205 0.00559 0.0
C1274 C 0.28156 0.96555 0.00464 0.0
N1275 N 0.34456 0.02146 0.96513 0.0
C1276 C 0.32989 0.04712 0.97825 0.0
C1277 C 0.32122 -0.01867 0.9811 0.0
C1278 C 0.26631 -0.00884 0.0194 0.0
C1279 C 0.48197 0.08064 0.73744 0.0
N1280 N 0.49801 0.11679 0.7778 0.0
C1281 C 0.47889 0.07924 0.65472 0.0
C1282 C 0.49454 0.11492 0.61214 0.0
C1283 C 0.51054 0.15113 0.65271 0.0
C1284 C 0.50995 0.1509 0.73492 0.0
C1285 C 0.59514 0.23026 0.91903 0.0
C1286 C 0.51468 0.19688 0.95021 0.0
C1287 C 0.56756 0.19368 0.88432 0.0
N1288 N 0.52796 0.17659 0.90328 0.0
C1289 C 0.54178 0.22968 0.99324 0.0
C1290 C 0.58234 0.24356 0.98245 0.0
C1291 C 0.44372 0.11601 0.0434 0.0
C1292 C 0.40618 0.94487 0.03626 0.0
C1293 C 0.43146 0.02471 0.06892 0.0
C1294 C 0.44096 0.0022 0.12099 0.0
C1295 C 0.42893 0.96234 0.1039 0.0
N1296 N 0.40888 0.00809 1.00171 0.0
C1297 C 0.39772 -0.03159 0.98482 0.0
Co1298 Co 0.79573 0.35509 0.89353 0.0
Co1299 Co 0.87315 0.33918 0.92588 0.0
O1300 O 0.85289 0.37394 0.89149 0.0
C1301 C 0.83047 0.45034 0.86682 0.0
O1302 O 0.86419 0.45541 0.83658 0.0
C1303 C 0.92764 0.37256 0.76805 0.0
O1304 O 0.89727 0.35688 0.71804 0.0
O1305 O 0.83468 0.2931 0.84713 0.0
O1306 O 0.77957 0.29776 0.86468 0.0
H1307 H 0.8653 0.20932 0.00853 0.0
H1308 H 0.86374 0.40014 0.76733 0.0
O1309 O 0.80624 0.4161 0.90443 0.0
H1310 H 0.73663 0.32565 0.62131 0.0
H1311 H 0.66933 0.36321 0.9028 0.0
H1312 H 0.73028 0.28081 0.96242 0.0
H1313 H 0.73868 0.32138 0.76455 0.0
H1314 H 0.73783 0.38262 0.84626 0.0
O1315 O 0.92049 0.36634 0.84318 0.0
H1316 H 0.83693 0.25207 0.96291 0.0
H1317 H -0.0443 0.35365 0.96661 0.0
H1318 H 0.67275 0.27172 0.0368 0.0
H1319 H 0.865 0.39554 0.62385 0.0
H1320 H 0.6521 0.32297 0.02454 0.0
H1321 H 0.80134 0.36136 0.54856 0.0
O1322 O 0.79157 0.33851 0.01701 0.0
H1323 H 0.00183 0.46615 0.02135 0.0
H1324 H 0.86051 0.37033 0.08594 0.0
H1325 H 0.90046 0.42426 0.17623 0.0
H1326 H -0.02979 0.47517 0.14311 0.0
H1327 H -0.03775 0.41192 0.93156 0.0
H1328 H -0.01765 0.31297 0.01124 0.0
H1329 H 0.9365 0.2399 0.04109 0.0
O1330 O 0.82888 0.30942 0.00948 0.0
C1331 C 0.79619 0.27919 0.83516 0.0
C1332 C 0.88365 0.2415 0.00571 0.0
C1333 C -0.04986 0.29917 0.00461 0.0
N1334 N 0.89421 0.30624 0.96517 0.0
C1335 C 0.86856 0.26591 0.97837 0.0
C1336 C 0.93435 0.32304 0.98107 0.0
C1337 C 0.92454 0.25832 0.01941 0.0
C1338 C 0.83505 0.38447 0.73753 0.0
N1339 N 0.79889 0.36434 0.77786 0.0
C1340 C 0.83648 0.38279 0.65481 0.0
C1341 C 0.80082 0.36277 0.6122 0.0
C1342 C 0.7646 0.34253 0.65275 0.0
C1343 C 0.7648 0.34215 0.73495 0.0
C1344 C 0.68537 0.34801 0.91896 0.0
C1345 C 0.71876 0.30094 0.95024 0.0
C1346 C 0.72196 0.35699 0.88427 0.0
N1347 N 0.73906 0.3345 0.9033 0.0
C1348 C 0.68594 0.29525 0.99322 0.0
C1349 C 0.67205 0.32193 0.9824 0.0
C1350 C 0.79963 0.31083 0.04348 0.0
C1351 C -0.02925 0.44444 0.03629 0.0
C1352 C 0.89092 0.38987 0.069 0.0
C1353 C 0.91342 0.42189 0.12107 0.0
C1354 C -0.04672 0.44971 0.10397 0.0
N1355 N 0.90755 0.38392 1.00177 0.0
C1356 C 0.94722 0.41243 0.98485 0.0
Co1357 Co 0.56055 0.42376 0.89346 0.0
Co1358 Co 0.57646 0.51709 0.92585 0.0
O1359 O 0.5417 0.46207 0.89146 0.0
C1360 C 0.46531 0.36327 0.86675 0.0
O1361 O 0.46025 0.39191 0.83647 0.0
C1362 C 0.54309 0.5382 0.76804 0.0
O1363 O 0.55878 0.52351 0.718 0.0
O1364 O 0.62253 0.52469 0.84709 0.0
O1365 O 0.61789 0.46493 0.8646 0.0
H1366 H 0.70632 0.63908 0.00849 0.0
H1367 H 0.51554 0.44675 0.76729 0.0
O1368 O 0.49955 0.37327 0.90437 0.0
H1369 H 0.58996 0.394 0.62121 0.0
H1370 H 0.55238 0.28923 0.90291 0.0
H1371 H 0.63485 0.4326 0.96227 0.0
H1372 H 0.59422 0.40033 0.76444 0.0
H1373 H 0.53303 0.33832 0.84624 0.0
O1374 O 0.5493 0.53727 0.84317 0.0
H1375 H 0.66356 0.56796 0.96286 0.0
H1376 H 0.562 0.58519 0.96663 0.0
H1377 H 0.6439 0.38418 0.03678 0.0
H1378 H 0.52012 0.45256 0.6238 0.0
H1379 H 0.59262 0.31229 0.02463 0.0
H1380 H 0.55428 0.42303 0.54849 0.0
O1381 O 0.57714 0.43618 0.01694 0.0
H1382 H 0.44947 0.5188 0.02139 0.0
H1383 H 0.5453 0.4733 0.08588 0.0
H1384 H 0.49135 0.45931 0.17617 0.0
H1385 H 0.44044 0.47815 0.1431 0.0
H1386 H 0.50373 0.53348 0.93161 0.0
H1387 H 0.60268 0.65251 0.01126 0.0
H1388 H 0.67575 0.67972 0.04107 0.0
O1389 O 0.60622 0.50258 0.00944 0.0
C1390 C 0.63645 0.50012 0.83511 0.0
C1391 C 0.67415 0.62526 0.00567 0.0
C1392 C 0.61648 0.6341 0.0046 0.0
N1393 N 0.6094 0.57109 0.96515 0.0
C1394 C 0.64972 0.58576 0.97833 0.0
C1395 C 0.5926 0.59444 0.98107 0.0
C1396 C 0.65732 0.64934 0.01939 0.0
C1397 C 0.5312 0.43371 0.73748 0.0
N1398 N 0.55131 0.41766 0.77779 0.0
C1399 C 0.53287 0.43679 0.65476 0.0
C1400 C 0.55287 0.42111 0.61213 0.0
C1401 C 0.57309 0.40512 0.65266 0.0
C1402 C 0.57348 0.40572 0.73487 0.0
C1403 C 0.5676 0.32048 0.91901 0.0
C1404 C 0.61471 0.40094 0.95014 0.0
C1405 C 0.55865 0.34808 0.88425 0.0
N1406 N 0.58115 0.38768 0.90321 0.0
C1407 C 0.62037 0.37383 0.99319 0.0
C1408 C 0.59368 0.33327 0.98244 0.0
C1409 C 0.60481 0.47192 0.04341 0.0
C1410 C 0.47118 0.50944 0.03631 0.0
C1411 C 0.52576 0.48418 0.06897 0.0
C1412 C 0.49373 0.47465 0.12104 0.0
C1413 C 0.4659 0.48668 0.10396 0.0
N1414 N 0.53172 0.50676 1.00176 0.0
C1415 C 0.50321 0.51792 0.98488 0.0
Co1416 Co 0.46237 0.75712 0.72683 0.0
Co1417 Co 0.53978 0.85043 0.75914 0.0
O1418 O 0.51953 0.79541 0.72473 0.0
C1419 C 0.49713 0.69662 0.70019 0.0
O1420 O 0.53085 0.72527 0.66997 0.0
C1421 C 0.59428 0.87152 0.60132 0.0
O1422 O 0.56391 0.85682 0.5513 0.0
O1423 O 0.50132 0.85803 0.68037 0.0
O1424 O 0.44621 0.79829 0.698 0.0
H1425 H 0.53194 -0.02753 0.84173 0.0
H1426 H 0.53034 0.78001 0.60056 0.0
O1427 O 0.47288 0.70662 0.73776 0.0
H1428 H 0.40319 0.72742 0.45469 0.0
H1429 H 0.336 0.62261 0.73623 0.0
H1430 H 0.39692 0.76597 0.79577 0.0
H1431 H 0.40529 0.73376 0.59793 0.0
H1432 H 0.40447 0.6717 0.67962 0.0
O1433 O 0.58713 0.8706 0.67645 0.0
H1434 H 0.50356 0.90133 0.79611 0.0
H1435 H 0.62232 0.91849 0.79997 0.0
H1436 H 0.33943 0.71755 0.87025 0.0
H1437 H 0.53156 0.78582 0.45707 0.0
H1438 H 0.31877 0.64565 0.85797 0.0
H1439 H 0.46787 0.75636 0.38187 0.0
O1440 O 0.45823 0.76955 0.8503 0.0
H1441 H 0.66846 0.85213 0.85463 0.0
H1442 H 0.52714 0.80668 0.91922 0.0
H1443 H 0.56709 0.79272 0.00952 0.0
H1444 H 0.63683 0.81152 0.97641 0.0
H1445 H 0.62888 0.86677 0.76483 0.0
H1446 H 0.64897 -0.01418 0.84462 0.0
H1447 H 0.60312 0.01306 0.87442 0.0
O1448 O 0.4955 0.83593 0.84273 0.0
C1449 C 0.46283 0.83345 0.66841 0.0
C1450 C 0.55028 0.95862 0.83896 0.0
C1451 C 0.61676 -0.03258 0.83795 0.0
N1452 N 0.56084 0.90443 0.79844 0.0
C1453 C 0.53519 0.91912 0.81161 0.0
C1454 C 0.60097 0.92775 0.8144 0.0
C1455 C 0.59117 -0.01732 0.85273 0.0
C1456 C 0.50165 0.76699 0.57079 0.0
N1457 N 0.4655 0.75099 0.61116 0.0
C1458 C 0.50304 0.77007 0.48807 0.0
C1459 C 0.46737 0.75444 0.4455 0.0
C1460 C 0.43117 0.73849 0.48609 0.0
C1461 C 0.4314 0.73909 0.5683 0.0
C1462 C 0.35203 0.65386 0.75237 0.0
C1463 C 0.38541 0.73432 0.78362 0.0
C1464 C 0.3886 0.68145 0.71765 0.0
N1465 N 0.4057 0.72105 0.73666 0.0
C1466 C 0.35261 0.7072 0.82664 0.0
C1467 C 0.33872 0.66664 0.81582 0.0
C1468 C 0.46626 0.80529 0.87674 0.0
C1469 C 0.63738 0.84277 0.86957 0.0
C1470 C 0.55755 0.81753 0.90227 0.0
C1471 C 0.58005 0.80803 0.95435 0.0
C1472 C 0.61991 0.82004 0.93725 0.0
N1473 N 0.57418 0.84009 0.83503 0.0
C1474 C 0.61385 0.85123 0.81812 0.0
Co1475 Co 0.15853 0.68837 0.72677 0.0
Co1476 Co 0.06522 0.67248 0.75913 0.0
O1477 O 0.12023 0.70724 0.72471 0.0
C1478 C 0.21902 0.78362 0.70012 0.0
O1479 O 0.19037 0.78867 0.66988 0.0
C1480 C 0.04412 0.70588 0.60132 0.0
O1481 O 0.05883 0.6902 0.55128 0.0
O1482 O 0.05762 0.62641 0.68036 0.0
O1483 O 0.11736 0.63104 0.69794 0.0
H1484 H 0.9432 0.5426 0.84173 0.0
H1485 H 0.13562 0.73342 0.60053 0.0
O1486 O 0.20902 0.74937 0.73769 0.0
H1487 H 0.18829 0.6589 0.45459 0.0
H1488 H 0.29306 0.69659 0.73632 0.0
H1489 H 0.14968 0.61406 0.79564 0.0
H1490 H 0.18192 0.65465 0.59782 0.0
H1491 H 0.24394 0.71587 0.67951 0.0
O1492 O 0.04504 0.69965 0.67645 0.0
H1493 H 0.01433 0.58536 0.79611 0.0
H1494 H -0.00287 0.68694 0.79998 0.0
H1495 H 0.1981 0.60504 0.87022 0.0
H1496 H 0.12985 0.72885 0.45703 0.0
H1497 H 0.26999 0.65634 0.85806 0.0
H1498 H 0.15935 0.69465 0.3818 0.0
O1499 O 0.14609 0.6718 0.85024 0.0
H1500 H 0.0635 0.79946 0.85469 0.0
H1501 H 0.10898 0.7036 0.91917 0.0
H1502 H 0.12294 0.75753 0.00948 0.0
H1503 H 0.10413 0.80846 0.97641 0.0
H1504 H 0.04884 0.74522 0.76489 0.0
H1505 H 0.9298 0.64626 0.84462 0.0
H1506 H 0.90258 0.57318 0.87441 0.0
O1507 O 0.07972 0.6427 0.84271 0.0
C1508 C 0.08219 0.61248 0.66839 0.0
C1509 C -0.04297 0.57478 0.83895 0.0
C1510 C 0.94821 0.63245 0.83795 0.0
N1511 N 0.01122 0.63953 0.79845 0.0
C1512 C -0.00346 0.5992 0.8116 0.0
C1513 C -0.01212 0.65633 0.8144 0.0
C1514 C 0.93296 0.59161 0.85272 0.0
C1515 C 0.14865 0.71775 0.57075 0.0
N1516 N 0.16466 0.69762 0.6111 0.0
C1517 C 0.1456 0.71608 0.48803 0.0
C1518 C 0.16125 0.69605 0.44544 0.0
C1519 C 0.17719 0.67579 0.48601 0.0
C1520 C 0.17657 0.67541 0.56821 0.0
C1521 C 0.2618 0.68134 0.75239 0.0
C1522 C 0.18134 0.63421 0.78352 0.0
C1523 C 0.2342 0.69027 0.71757 0.0
N1524 N 0.1946 0.66776 0.73655 0.0
C1525 C 0.20845 0.62857 0.82661 0.0
C1526 C 0.24901 0.65527 0.81585 0.0
C1527 C 0.11036 0.64409 0.87669 0.0
C1528 C 0.07286 0.77774 0.86961 0.0
C1529 C 0.09811 0.72315 0.90225 0.0
C1530 C 0.10762 0.75517 0.95433 0.0
C1531 C 0.0956 0.78301 0.93726 0.0
N1532 N 0.07554 0.71721 0.83504 0.0
C1533 C 0.06439 0.74573 0.81816 0.0
Co1534 Co 0.22726 0.45327 0.72685 0.0
Co1535 Co 0.24317 0.37586 0.75917 0.0
O1536 O 0.20841 0.39611 0.72478 0.0
C1537 C 0.132 0.4185 0.7002 0.0
O1538 O 0.12693 0.38477 0.67004 0.0
C1539 C 0.20976 0.32136 0.60137 0.0
O1540 O 0.22541 0.35174 0.55134 0.0
O1541 O 0.28924 0.41433 0.6804 0.0
O1542 O 0.28459 0.46943 0.69802 0.0
H1543 H 0.37305 0.38372 0.84175 0.0
H1544 H 0.18218 0.38529 0.60064 0.0
O1545 O 0.16625 0.44276 0.73775 0.0
H1546 H 0.25678 0.51244 0.45469 0.0
H1547 H 0.21908 0.57963 0.7362 0.0
H1548 H 0.30153 0.51873 0.79575 0.0
H1549 H 0.26106 0.51033 0.59792 0.0
H1550 H 0.19976 0.51118 0.67955 0.0
O1551 O 0.21601 0.32851 0.6765 0.0
H1552 H 0.33029 0.41209 0.79613 0.0
H1553 H 0.22871 0.29332 0.80002 0.0
H1554 H 0.31058 0.57623 0.87018 0.0
H1555 H 0.18674 0.38407 0.45713 0.0
H1556 H 0.25931 0.59685 0.85794 0.0
H1557 H 0.22097 0.44776 0.38189 0.0
O1558 O 0.24383 0.45741 0.85034 0.0
H1559 H 0.11618 0.24719 0.85469 0.0
H1560 H 0.21205 0.3885 0.91927 0.0
H1561 H 0.15811 0.34855 0.00956 0.0
H1562 H 0.10717 0.27881 0.97645 0.0
H1563 H 0.17043 0.28676 0.7649 0.0
H1564 H 0.26939 0.26668 0.84463 0.0
H1565 H 0.34246 0.31253 0.87441 0.0
O1566 O 0.27294 0.42014 0.84276 0.0
C1567 C 0.30316 0.45282 0.66845 0.0
C1568 C 0.34087 0.36538 0.83896 0.0
C1569 C 0.2832 0.29889 0.83795 0.0
N1570 N 0.27612 0.35481 0.79847 0.0
C1571 C 0.31645 0.38046 0.81162 0.0
C1572 C 0.25932 0.31467 0.81442 0.0
C1573 C 0.32404 0.32448 0.85272 0.0
C1574 C 0.19786 0.41399 0.57085 0.0
N1575 N 0.21802 0.45013 0.61119 0.0
C1576 C 0.19952 0.41259 0.48812 0.0
C1577 C 0.21957 0.44826 0.44553 0.0
C1578 C 0.23987 0.48446 0.4861 0.0
C1579 C 0.24025 0.48423 0.56831 0.0
C1580 C 0.23431 0.56361 0.75233 0.0
C1581 C 0.28139 0.53024 0.78359 0.0
C1582 C 0.22536 0.52704 0.7176 0.0
N1583 N 0.24785 0.50994 0.73664 0.0
C1584 C 0.28706 0.56304 0.8266 0.0
C1585 C 0.26037 0.57691 0.81579 0.0
C1586 C 0.27154 0.44939 0.87676 0.0
C1587 C 0.1379 0.27826 0.86963 0.0
C1588 C 0.19249 0.35809 0.90232 0.0
C1589 C 0.16047 0.33559 0.9544 0.0
C1590 C 0.13263 0.29574 0.9373 0.0
N1591 N 0.19844 0.34146 0.83509 0.0
C1592 C 0.16991 0.30179 0.81818 0.0
Co1593 Co 0.40689 0.8126 0.1109 0.0
Co1594 Co 0.50021 0.89002 0.07854 0.0
O1595 O 0.44519 0.86976 0.11296 0.0
C1596 C 0.3464 0.84734 0.13759 0.0
O1597 O 0.37504 0.88102 0.16792 0.0
C1598 C 0.52133 0.9445 0.2364 0.0
O1599 O 0.50665 0.91412 0.28642 0.0
O1600 O 0.50781 0.85155 0.15726 0.0
O1601 O 0.44806 0.79643 0.13973 0.0
H1602 H 0.62225 0.88223 0.99578 0.0
H1603 H 0.42985 0.88056 0.23717 0.0
O1604 O 0.35641 0.82311 0.09997 0.0
H1605 H 0.37715 0.75338 0.38305 0.0
H1606 H 0.27239 0.68622 0.10141 0.0
H1607 H 0.41576 0.74715 0.042 0.0
H1608 H 0.38344 0.75548 0.23981 0.0
H1609 H 0.32145 0.7547 0.158 0.0
O1610 O 0.52038 0.93736 0.16126 0.0
H1611 H 0.55112 0.85383 0.04144 0.0
H1612 H 0.56828 -0.0274 0.03786 0.0
H1613 H 0.36737 0.68966 0.96751 0.0
H1614 H 0.43568 0.88176 0.38065 0.0
H1615 H 0.29546 0.66901 0.97971 0.0
H1616 H 0.40618 0.81806 0.45586 0.0
O1617 O 0.41933 0.80846 0.98743 0.0
H1618 H 0.50193 0.01873 0.9831 0.0
H1619 H 0.45643 0.8774 0.91853 0.0
H1620 H 0.44246 0.91737 0.82827 0.0
H1621 H 0.46131 -0.01287 0.86138 0.0
H1622 H 0.51656 -0.02087 0.07289 0.0
H1623 H 0.63561 -0.00073 0.99319 0.0
H1624 H 0.66286 0.95344 0.96331 0.0
O1625 O 0.48572 0.84576 0.99492 0.0
C1626 C 0.48324 0.81305 0.16925 0.0
C1627 C 0.60841 0.90057 0.99863 0.0
C1628 C 0.61721 -0.03294 0.9998 0.0
N1629 N 0.55421 0.91111 0.03923 0.0
C1630 C 0.5689 0.88547 0.02599 0.0
C1631 C 0.57754 0.95126 0.02336 0.0
C1632 C 0.63247 0.94147 0.98497 0.0
C1633 C 0.41681 0.85186 0.26694 0.0
N1634 N 0.40077 0.81572 0.22657 0.0
C1635 C 0.4199 0.85325 0.34966 0.0
C1636 C 0.40425 0.81757 0.39223 0.0
C1637 C 0.38825 0.78136 0.35165 0.0
C1638 C 0.38883 0.7816 0.26944 0.0
C1639 C 0.30364 0.70226 0.08529 0.0
C1640 C 0.3841 0.73563 0.05414 0.0
C1641 C 0.33122 0.73883 0.12002 0.0
N1642 N 0.37082 0.75592 0.10108 0.0
C1643 C 0.357 0.70284 0.01109 0.0
C1644 C 0.31644 0.68895 0.02187 0.0
C1645 C 0.45507 0.81652 0.96095 0.0
C1646 C 0.49256 -0.01235 0.96816 0.0
C1647 C 0.4673 0.90782 0.93547 0.0
C1648 C 0.45779 0.93033 0.88342 0.0
C1649 C 0.46982 -0.02981 0.90051 0.0
N1650 N 0.48987 0.92444 0.00268 0.0
C1651 C 0.50103 0.96411 0.0196 0.0
Co1652 Co 0.10305 0.57742 0.11084 0.0
Co1653 Co 0.02563 0.59331 0.0785 0.0
O1654 O 0.04589 0.55856 0.11289 0.0
C1655 C 0.06831 0.48217 0.13754 0.0
O1656 O 0.0346 0.47712 0.1678 0.0
C1657 C -0.02886 0.55994 0.23634 0.0
O1658 O 0.00152 0.57564 0.28636 0.0
O1659 O 0.0641 0.6394 0.15722 0.0
O1660 O 0.11921 0.63475 0.13968 0.0
H1661 H 0.03342 0.72314 0.99576 0.0
H1662 H 0.03505 0.53238 0.23706 0.0
O1663 O 0.09255 0.51641 0.09993 0.0
H1664 H 0.16218 0.60688 0.38303 0.0
H1665 H 0.22944 0.56928 0.1015 0.0
H1666 H 0.1685 0.6517 0.04194 0.0
H1667 H 0.16011 0.61113 0.23979 0.0
H1668 H 0.16095 0.54989 0.15806 0.0
O1669 O -0.02171 0.56615 0.16121 0.0
H1670 H 0.06181 0.68041 0.04141 0.0
H1671 H 0.94306 0.57882 0.03784 0.0
H1672 H 0.22603 0.66079 0.96754 0.0
H1673 H 0.03381 0.53699 0.38055 0.0
H1674 H 0.24668 0.60954 0.97978 0.0
H1675 H 0.09747 0.57119 0.45581 0.0
O1676 O 0.10721 0.594 0.98736 0.0
H1677 H 0.89695 0.46633 0.98307 0.0
H1678 H 0.03827 0.56216 0.91844 0.0
H1679 H -0.00169 0.50822 0.82818 0.0
H1680 H 0.92856 0.45731 0.86131 0.0
H1681 H 0.93653 0.52056 0.07285 0.0
H1682 H 0.91638 0.61946 0.99319 0.0
H1683 H -0.03779 0.69254 0.96331 0.0
O1684 O 0.06989 0.62307 0.99488 0.0
C1685 C 0.10259 0.65332 0.16921 0.0
C1686 C 0.01508 0.69096 0.99862 0.0
C1687 C 0.94859 0.63328 0.9998 0.0
N1688 N 0.00454 0.62623 0.03921 0.0
C1689 C 0.03018 0.66656 0.02597 0.0
C1690 C -0.0356 0.60941 0.02334 0.0
C1691 C -0.02582 0.67412 0.98497 0.0
C1692 C 0.06374 0.54805 0.26685 0.0
N1693 N 0.0999 0.56817 0.22651 0.0
C1694 C 0.06233 0.54974 0.34957 0.0
C1695 C 0.09799 0.56976 0.39217 0.0
C1696 C 0.13421 0.59 0.35161 0.0
C1697 C 0.134 0.59036 0.2694 0.0
C1698 C 0.21341 0.58449 0.08535 0.0
C1699 C 0.18002 0.63157 0.05411 0.0
C1700 C 0.17682 0.57551 0.12005 0.0
N1701 N 0.15973 0.59801 0.10105 0.0
C1702 C 0.21284 0.63726 0.01112 0.0
C1703 C 0.22673 0.61058 0.02192 0.0
C1704 C 0.09914 0.62167 0.96089 0.0
C1705 C 0.92803 0.48804 0.96812 0.0
C1706 C 0.00785 0.54261 0.93539 0.0
C1707 C -0.01465 0.51059 0.88334 0.0
C1708 C 0.9455 0.48276 0.90045 0.0
N1709 N -0.00877 0.54856 0.00263 0.0
C1710 C -0.04844 0.52004 0.01955 0.0
Co1711 Co 0.33823 0.50875 0.1109 0.0
Co1712 Co 0.32234 0.41543 0.07852 0.0
O1713 O 0.35708 0.47045 0.11292 0.0
C1714 C 0.43347 0.56925 0.1376 0.0
O1715 O 0.43851 0.5406 0.1679 0.0
C1716 C 0.3557 0.39431 0.23635 0.0
O1717 O 0.34 0.40901 0.28638 0.0
O1718 O 0.27625 0.40782 0.15726 0.0
O1719 O 0.28089 0.46758 0.13974 0.0
H1720 H 0.19251 0.29343 0.99577 0.0
H1721 H 0.38323 0.48577 0.2371 0.0
O1722 O 0.39923 0.55924 0.09999 0.0
H1723 H 0.30878 0.5385 0.38311 0.0
H1724 H 0.34642 0.64329 0.10139 0.0
H1725 H 0.26394 0.49992 0.04206 0.0
H1726 H 0.30454 0.53217 0.23987 0.0
H1727 H 0.36576 0.59419 0.15809 0.0
O1728 O 0.34949 0.39525 0.16122 0.0
H1729 H 0.23525 0.36455 0.04144 0.0
H1730 H 0.33682 0.34734 0.03782 0.0
H1731 H 0.25488 0.54833 0.96756 0.0
H1732 H 0.37863 0.47996 0.38059 0.0
H1733 H 0.30616 0.62023 0.97969 0.0
H1734 H 0.34446 0.50949 0.45586 0.0
O1735 O 0.32165 0.49633 0.98742 0.0
H1736 H 0.44934 0.41373 0.98303 0.0
H1737 H 0.3535 0.45922 0.91849 0.0
H1738 H 0.40746 0.47322 0.82823 0.0
H1739 H 0.45838 0.45439 0.86132 0.0
H1740 H 0.39508 0.39906 0.0728 0.0
H1741 H 0.29617 0.28002 0.99318 0.0
H1742 H 0.2231 0.25279 0.96332 0.0
O1743 O 0.29257 0.42994 0.99491 0.0
C1744 C 0.26233 0.43239 0.16924 0.0
C1745 C 0.22469 0.30725 0.99864 0.0
C1746 C 0.28236 0.29842 0.9998 0.0
N1747 N 0.28941 0.36143 0.03922 0.0
C1748 C 0.24909 0.34675 0.02599 0.0
C1749 C 0.30623 0.33809 0.02334 0.0
C1750 C 0.24152 0.28317 0.98498 0.0
C1751 C 0.36757 0.49881 0.2669 0.0
N1752 N 0.34746 0.51486 0.22656 0.0
C1753 C 0.36589 0.49574 0.34962 0.0
C1754 C 0.34588 0.5114 0.39222 0.0
C1755 C 0.32565 0.52739 0.35167 0.0
C1756 C 0.32528 0.52679 0.26947 0.0
C1757 C 0.33119 0.61204 0.0853 0.0
C1758 C 0.28408 0.53157 0.0542 0.0
C1759 C 0.34014 0.58444 0.12008 0.0
N1760 N 0.31763 0.54484 0.10113 0.0
C1761 C 0.27841 0.55869 0.01113 0.0
C1762 C 0.30511 0.59925 0.02188 0.0
C1763 C 0.29398 0.46059 0.96095 0.0
C1764 C 0.42763 0.4231 0.96809 0.0
C1765 C 0.37305 0.44835 0.93542 0.0
C1766 C 0.40508 0.45788 0.88336 0.0
C1767 C 0.43291 0.44585 0.90045 0.0
N1768 N 0.36709 0.42577 0.00263 0.0
C1769 C 0.3956 0.41461 0.01952 0.0
Co1770 Co 0.10308 0.50873 0.61087 0.0
Co1771 Co 0.02566 0.41542 0.57857 0.0
O1772 O 0.04592 0.47044 0.61298 0.0
C1773 C 0.06831 0.56921 0.6375 0.0
O1774 O 0.0346 0.54057 0.66774 0.0
C1775 C -0.02883 0.39433 0.7364 0.0
O1776 O 0.00155 0.40904 0.78642 0.0
O1777 O 0.06413 0.40781 0.6573 0.0
O1778 O 0.11924 0.46756 0.6397 0.0
H1779 H 0.03344 0.29337 0.49586 0.0
H1780 H 0.03512 0.48584 0.73716 0.0
O1781 O 0.09257 0.55922 0.59994 0.0
H1782 H 0.16229 0.53842 0.88298 0.0
H1783 H 0.22944 0.64324 0.60139 0.0
H1784 H 0.16852 0.49987 0.54192 0.0
H1785 H 0.16017 0.53208 0.73974 0.0
H1786 H 0.16098 0.59415 0.65804 0.0
O1787 O -0.02168 0.39525 0.66127 0.0
H1788 H 0.06185 0.3645 0.5415 0.0
H1789 H 0.9431 0.34737 0.53782 0.0
H1790 H 0.22601 0.54828 0.46742 0.0
H1791 H 0.03392 0.48003 0.88066 0.0
H1792 H 0.24667 0.62019 0.47967 0.0
H1793 H 0.09761 0.50948 0.95583 0.0
O1794 O 0.10721 0.49629 0.4874 0.0
H1795 H 0.89699 0.41375 0.48312 0.0
H1796 H 0.0383 0.45918 0.41849 0.0
H1797 H -0.00165 0.47315 0.32822 0.0
H1798 H 0.92861 0.45435 0.36135 0.0
H1799 H 0.93657 0.39911 0.57292 0.0
H1800 H 0.91642 0.28004 0.49316 0.0
H1801 H -0.03775 0.25278 0.46331 0.0
O1802 O 0.06993 0.42991 0.49495 0.0
C1803 C 0.10262 0.43238 0.66925 0.0
C1804 C 0.01511 0.30721 0.49868 0.0
C1805 C 0.94863 0.29843 0.49979 0.0
N1806 N 0.00458 0.36142 0.53925 0.0
C1807 C 0.03021 0.34672 0.52603 0.0
C1808 C -0.03556 0.3381 0.52334 0.0
C1809 C -0.02579 0.28316 0.48498 0.0
C1810 C 0.06382 0.49886 0.76692 0.0
N1811 N 0.09996 0.51486 0.72654 0.0
C1812 C 0.06243 0.49578 0.84964 0.0
C1813 C 0.0981 0.51141 0.89219 0.0
C1814 C 0.1343 0.52735 0.85159 0.0
C1815 C 0.13406 0.52675 0.76939 0.0
C1816 C 0.21341 0.61199 0.58527 0.0
C1817 C 0.18004 0.53153 0.55406 0.0
C1818 C 0.17685 0.5844 0.62001 0.0
N1819 N 0.15975 0.5448 0.60102 0.0
C1820 C 0.21283 0.55864 0.51102 0.0
C1821 C 0.22672 0.5992 0.52182 0.0
C1822 C 0.09918 0.46056 0.46095 0.0
C1823 C 0.92806 0.4231 0.46818 0.0
C1824 C 0.00789 0.44833 0.43545 0.0
C1825 C -0.01461 0.45784 0.38339 0.0
C1826 C 0.94554 0.44583 0.4005 0.0
N1827 N -0.00874 0.42577 0.5027 0.0
C1828 C -0.0484 0.41464 0.51962 0.0
Co1829 Co 0.40691 0.57746 0.61093 0.0
Co1830 Co 0.50022 0.59335 0.57857 0.0
O1831 O 0.44521 0.5586 0.61301 0.0
C1832 C 0.34643 0.48222 0.63756 0.0
O1833 O 0.37508 0.47716 0.66782 0.0
C1834 C 0.52131 0.55996 0.7364 0.0
O1835 O 0.50659 0.57563 0.78643 0.0
O1836 O 0.50782 0.63943 0.65731 0.0
O1837 O 0.44807 0.6348 0.63976 0.0
H1838 H 0.62224 0.72318 0.49585 0.0
H1839 H 0.42981 0.53241 0.73719 0.0
O1840 O 0.35642 0.51646 0.6 0.0
H1841 H 0.37715 0.60697 0.88307 0.0
H1842 H 0.27237 0.56923 0.60131 0.0
H1843 H 0.41575 0.65177 0.54205 0.0
H1844 H 0.38352 0.6112 0.73984 0.0
H1845 H 0.32148 0.54995 0.65813 0.0
O1846 O 0.52039 0.56618 0.66127 0.0
H1847 H 0.55111 0.68045 0.5415 0.0
H1848 H 0.56829 0.57885 0.5378 0.0
H1849 H 0.36735 0.66079 0.46744 0.0
H1850 H 0.43557 0.537 0.88069 0.0
H1851 H 0.29545 0.60949 0.47959 0.0
H1852 H 0.40608 0.57122 0.95589 0.0
O1853 O 0.41934 0.59403 0.48745 0.0
H1854 H 0.5019 0.46634 0.48307 0.0
H1855 H 0.45645 0.56221 0.41854 0.0
H1856 H 0.44246 0.50827 0.32827 0.0
H1857 H 0.46128 0.45733 0.36135 0.0
H1858 H 0.51656 0.52058 0.57287 0.0
H1859 H 0.63562 0.6195 0.49315 0.0
H1860 H 0.66286 0.69258 0.46332 0.0
O1861 O 0.48572 0.62312 0.49497 0.0
C1862 C 0.48325 0.65335 0.66928 0.0
C1863 C 0.60841 0.691 0.49869 0.0
C1864 C 0.61722 0.63332 0.49979 0.0
N1865 N 0.55422 0.62627 0.53925 0.0
C1866 C 0.5689 0.6666 0.52604 0.0
C1867 C 0.57755 0.60945 0.52334 0.0
C1868 C 0.63248 0.67416 0.48499 0.0
C1869 C 0.41677 0.54809 0.76696 0.0
N1870 N 0.40077 0.56822 0.7266 0.0
C1871 C 0.41982 0.54976 0.84968 0.0
C1872 C 0.40418 0.56981 0.89225 0.0
C1873 C 0.38824 0.59007 0.85167 0.0
C1874 C 0.38886 0.59043 0.76946 0.0
C1875 C 0.30363 0.58448 0.58525 0.0
C1876 C 0.3841 0.63162 0.55416 0.0
C1877 C 0.33123 0.57556 0.62008 0.0
N1878 N 0.37083 0.59807 0.60112 0.0
C1879 C 0.35699 0.63726 0.51105 0.0
C1880 C 0.31643 0.61056 0.52179 0.0
C1881 C 0.45508 0.62173 0.461 0.0
C1882 C 0.49254 0.48806 0.46814 0.0
C1883 C 0.46731 0.54266 0.43548 0.0
C1884 C 0.45779 0.51063 0.38341 0.0
C1885 C 0.4698 0.48279 0.40049 0.0
N1886 N 0.48988 0.5486 0.50269 0.0
C1887 C 0.50102 0.52007 0.51959 0.0
Co1888 Co 0.33819 0.81256 0.61084 0.0
Co1889 Co 0.32229 0.88998 0.57854 0.0
O1890 O 0.35704 0.86972 0.61295 0.0
C1891 C 0.43344 0.84733 0.63748 0.0
O1892 O 0.43852 0.88106 0.66764 0.0
C1893 C 0.3557 0.94447 0.73635 0.0
O1894 O 0.34008 0.91409 0.78638 0.0
O1895 O 0.2762 0.85151 0.65728 0.0
O1896 O 0.28085 0.79639 0.63967 0.0
H1897 H 0.19246 0.88217 0.49583 0.0
H1898 H 0.38328 0.88051 0.7371 0.0
O1899 O 0.3992 0.82307 0.59994 0.0
H1900 H 0.3086 0.75334 0.88295 0.0
H1901 H 0.34638 0.68621 0.60142 0.0
H1902 H 0.26392 0.74711 0.54192 0.0
H1903 H 0.30435 0.75549 0.73972 0.0
H1904 H 0.36569 0.75465 0.65812 0.0
O1905 O 0.34944 0.93732 0.66123 0.0
H1906 H 0.23519 0.85378 0.54149 0.0
H1907 H 0.33679 -0.02746 0.53779 0.0
H1908 H 0.25487 0.68961 0.46748 0.0
H1909 H 0.3787 0.8817 0.88062 0.0
H1910 H 0.30614 0.66898 0.47969 0.0
H1911 H 0.34443 0.818 0.9558 0.0
O1912 O 0.32162 0.80842 0.48736 0.0
H1913 H 0.4493 0.01864 0.48307 0.0
H1914 H 0.35342 0.87734 0.41845 0.0
H1915 H 0.40737 0.91729 0.32817 0.0
H1916 H 0.45831 -0.01297 0.36129 0.0
H1917 H 0.39505 -0.02093 0.57286 0.0
H1918 H 0.29613 -0.00079 0.49316 0.0
H1919 H 0.22306 0.95338 0.46331 0.0
O1920 O 0.29253 0.84571 0.49494 0.0
C1921 C 0.26229 0.81301 0.66922 0.0
C1922 C 0.22464 0.90052 0.49868 0.0
C1923 C 0.28232 -0.033 0.49979 0.0
N1924 N 0.28937 0.91105 0.53923 0.0
C1925 C 0.24904 0.88541 0.52603 0.0
C1926 C 0.30618 0.9512 0.52333 0.0
C1927 C 0.24148 0.94142 0.48499 0.0
C1928 C 0.36759 0.85181 0.76687 0.0
N1929 N 0.34742 0.81567 0.7265 0.0
C1930 C 0.36592 0.85319 0.8496 0.0
C1931 C 0.34584 0.81751 0.89216 0.0
C1932 C 0.32554 0.78132 0.85156 0.0
C1933 C 0.32516 0.78157 0.76936 0.0
C1934 C 0.33115 0.70223 0.58531 0.0
C1935 C 0.28406 0.7356 0.55407 0.0
C1936 C 0.34009 0.73878 0.62006 0.0
N1937 N 0.3176 0.75588 0.60103 0.0
C1938 C 0.27839 0.7028 0.51106 0.0
C1939 C 0.30508 0.68892 0.52185 0.0
C1940 C 0.29392 0.81645 0.46094 0.0
C1941 C 0.42758 -0.01243 0.46812 0.0
C1942 C 0.37298 0.90775 0.4354 0.0
C1943 C 0.40501 0.93025 0.38334 0.0
C1944 C 0.43285 -0.0299 0.40044 0.0
N1945 N 0.36704 0.92438 0.50265 0.0
C1946 C 0.39557 0.96404 0.51956 0.0
Co1947 Co 0.15855 0.45324 0.2268 0.0
Co1948 Co 0.06523 0.37582 0.25916 0.0
O1949 O 0.12025 0.39608 0.22474 0.0
C1950 C 0.21904 0.4185 0.20011 0.0
O1951 O 0.19041 0.3848 0.16979 0.0
C1952 C 0.04412 0.32133 0.10133 0.0
O1953 O 0.0588 0.35171 0.0513 0.0
O1954 O 0.05763 0.41429 0.18042 0.0
O1955 O 0.11738 0.46941 0.19796 0.0
H1956 H 0.9432 0.38367 0.34184 0.0
H1957 H 0.13559 0.38526 0.10055 0.0
O1958 O 0.20903 0.44273 0.23772 0.0
H1959 H 0.1883 0.51244 0.95462 0.0
H1960 H 0.29305 0.57962 0.23622 0.0
H1961 H 0.14968 0.51869 0.29569 0.0
H1962 H 0.18199 0.51035 0.09786 0.0
H1963 H 0.24399 0.51114 0.17964 0.0
O1964 O 0.04506 0.32848 0.17646 0.0
H1965 H 0.01433 0.41204 0.2962 0.0
H1966 H -0.00286 0.29327 0.29992 0.0
H1967 H 0.19808 0.57618 0.37016 0.0
H1968 H 0.12977 0.38405 0.95707 0.0
H1969 H 0.26998 0.59683 0.35794 0.0
H1970 H 0.15927 0.44774 0.88184 0.0
O1971 O 0.14611 0.45739 0.35027 0.0
H1972 H 0.06348 0.24711 0.35466 0.0
H1973 H 0.109 0.38845 0.41918 0.0
H1974 H 0.12295 0.34848 0.50947 0.0
H1975 H 0.10411 0.27873 0.47638 0.0
H1976 H 0.04885 0.28671 0.26486 0.0
H1977 H 0.92982 0.26662 0.34458 0.0
H1978 H 0.90258 0.31247 0.37442 0.0
O1979 O 0.07972 0.42009 0.34277 0.0
C1980 C 0.0822 0.45279 0.16844 0.0
C1981 C -0.04296 0.36532 0.33903 0.0
C1982 C 0.94822 0.29883 0.33794 0.0
N1983 N 0.01122 0.35476 0.29847 0.0
C1984 C -0.00346 0.38041 0.31167 0.0
C1985 C -0.01211 0.31462 0.31439 0.0
C1986 C 0.93297 0.32443 0.35274 0.0
C1987 C 0.14863 0.41396 0.07078 0.0
N1988 N 0.16467 0.45011 0.11112 0.0
C1989 C 0.14554 0.41257 0.98806 0.0
C1990 C 0.1612 0.44824 0.94547 0.0
C1991 C 0.17719 0.48445 0.98603 0.0
C1992 C 0.17661 0.48422 0.06824 0.0
C1993 C 0.2618 0.56358 0.25235 0.0
C1994 C 0.18134 0.53021 0.28354 0.0
C1995 C 0.23422 0.52701 0.21763 0.0
N1996 N 0.19462 0.50992 0.2366 0.0
C1997 C 0.20844 0.563 0.32657 0.0
C1998 C 0.249 0.57689 0.31578 0.0
C1999 C 0.11038 0.44933 0.37674 0.0
C2000 C 0.07285 0.27819 0.36958 0.0
C2001 C 0.09813 0.35803 0.40225 0.0
C2002 C 0.10763 0.33552 0.45432 0.0
C2003 C 0.09559 0.29566 0.43724 0.0
N2004 N 0.07555 0.34141 0.33504 0.0
C2005 C 0.06439 0.30174 0.31814 0.0
Co2006 Co 0.4624 0.68842 0.22685 0.0
Co2007 Co 0.53981 0.67251 0.2592 0.0
O2008 O 0.51955 0.70727 0.22481 0.0
C2009 C 0.49714 0.78367 0.20015 0.0
O2010 O 0.53086 0.78874 0.16991 0.0
C2011 C 0.59431 0.7059 0.10138 0.0
O2012 O 0.56393 0.69021 0.05136 0.0
O2013 O 0.50134 0.62643 0.18046 0.0
O2014 O 0.44623 0.63109 0.19801 0.0
H2015 H 0.53196 0.54265 0.34186 0.0
H2016 H 0.5304 0.73347 0.10066 0.0
O2017 O 0.4729 0.74943 0.23776 0.0
H2018 H 0.40329 0.65898 0.95464 0.0
H2019 H 0.33599 0.69654 0.23613 0.0
H2020 H 0.39694 0.61414 0.29574 0.0
H2021 H 0.40534 0.65471 0.09788 0.0
H2022 H 0.40449 0.71595 0.1796 0.0
O2023 O 0.58715 0.69968 0.17651 0.0
H2024 H 0.50359 0.5854 0.29623 0.0
H2025 H 0.62235 0.68698 0.29994 0.0
H2026 H 0.33941 0.60505 0.37012 0.0
H2027 H 0.53166 0.72888 0.95718 0.0
H2028 H 0.31876 0.65629 0.35786 0.0
H2029 H 0.468 0.69469 0.88189 0.0
O2030 O 0.45823 0.67184 0.35034 0.0
H2031 H 0.66849 0.79948 0.35467 0.0
H2032 H 0.52717 0.70366 0.41927 0.0
H2033 H 0.56712 0.75758 0.50955 0.0
H2034 H 0.63687 0.8085 0.47644 0.0
H2035 H 0.62891 0.74525 0.26489 0.0
H2036 H 0.64901 0.6463 0.34458 0.0
H2037 H 0.60316 0.57323 0.37442 0.0
O2038 O 0.49554 0.64275 0.34281 0.0
C2039 C 0.46285 0.61252 0.16848 0.0
C2040 C 0.55031 0.57483 0.33904 0.0
C2041 C 0.6168 0.6325 0.33794 0.0
N2042 N 0.56087 0.63957 0.29849 0.0
C2043 C 0.53522 0.59924 0.31169 0.0
C2044 C 0.60101 0.65637 0.3144 0.0
C2045 C 0.5912 0.59165 0.35274 0.0
C2046 C 0.50171 0.7178 0.07086 0.0
N2047 N 0.46555 0.69767 0.11119 0.0
C2048 C 0.50314 0.71612 0.98814 0.0
C2049 C 0.46748 0.69611 0.94553 0.0
C2050 C 0.43126 0.67586 0.98607 0.0
C2051 C 0.43146 0.67548 0.06828 0.0
C2052 C 0.35203 0.68134 0.25229 0.0
C2053 C 0.38542 0.63427 0.28356 0.0
C2054 C 0.38862 0.69032 0.21761 0.0
N2055 N 0.40572 0.66783 0.23663 0.0
C2056 C 0.3526 0.62858 0.32654 0.0
C2057 C 0.33871 0.65525 0.31572 0.0
C2058 C 0.46629 0.64416 0.3768 0.0
C2059 C 0.63741 0.77777 0.36962 0.0
C2060 C 0.55758 0.7232 0.40232 0.0
C2061 C 0.58008 0.75521 0.4544 0.0
C2062 C 0.61994 0.78304 0.43729 0.0
N2063 N 0.57421 0.71725 0.33509 0.0
C2064 C 0.61388 0.74576 0.31818 0.0
Co2065 Co 0.22722 0.75709 0.2268 0.0
Co2066 Co 0.24312 0.85042 0.2592 0.0
O2067 O 0.20837 0.7954 0.2248 0.0
C2068 C 0.13198 0.6966 0.20009 0.0
O2069 O 0.12692 0.72524 0.16981 0.0
C2070 C 0.20976 0.87154 0.10138 0.0
O2071 O 0.22547 0.85685 0.05136 0.0
O2072 O 0.2892 0.85803 0.18044 0.0
O2073 O 0.28455 0.79826 0.19794 0.0
H2074 H 0.37298 -0.02759 0.34188 0.0
H2075 H 0.18221 0.78009 0.10064 0.0
O2076 O 0.16621 0.7066 0.23771 0.0
H2077 H 0.25661 0.72733 0.95455 0.0
H2078 H 0.21903 0.62255 0.23624 0.0
H2079 H 0.30151 0.76592 0.29561 0.0
H2080 H 0.26088 0.73366 0.09778 0.0
H2081 H 0.19968 0.67165 0.17958 0.0
O2082 O 0.21596 0.8706 0.17652 0.0
H2083 H 0.33022 0.90129 0.29623 0.0
H2084 H 0.22866 0.91852 0.29995 0.0
H2085 H 0.31056 0.7175 0.3701 0.0
H2086 H 0.18679 0.7859 0.95716 0.0
H2087 H 0.25928 0.64561 0.35796 0.0
H2088 H 0.22093 0.75636 0.88184 0.0
O2089 O 0.2438 0.76951 0.35028 0.0
H2090 H 0.11614 0.85213 0.35473 0.0
H2091 H 0.21196 0.80662 0.41922 0.0
H2092 H 0.15802 0.79264 0.50952 0.0
H2093 H 0.1071 0.81148 0.47644 0.0
H2094 H 0.17039 0.86681 0.26496 0.0
H2095 H 0.26934 -0.01416 0.34457 0.0
H2096 H 0.34241 0.01306 0.3744 0.0
O2097 O 0.27289 0.83591 0.34279 0.0
C2098 C 0.30312 0.83345 0.16846 0.0
C2099 C 0.3408 0.95859 0.33904 0.0
C2100 C 0.28314 -0.03257 0.33793 0.0
N2101 N 0.27606 0.90442 0.2985 0.0
C2102 C 0.31638 0.91909 0.3117 0.0
C2103 C 0.25926 0.92777 0.3144 0.0
C2104 C 0.32398 -0.01733 0.35273 0.0
C2105 C 0.19786 0.76704 0.07083 0.0
N2106 N 0.21797 0.75099 0.11114 0.0
C2107 C 0.19953 0.77012 0.98811 0.0
C2108 C 0.21953 0.75445 0.94548 0.0
C2109 C 0.23975 0.73845 0.986 0.0
C2110 C 0.24014 0.73905 0.06821 0.0
C2111 C 0.23426 0.65381 0.25234 0.0
C2112 C 0.28137 0.73427 0.28347 0.0
C2113 C 0.2253 0.68141 0.21758 0.0
N2114 N 0.24781 0.72101 0.23654 0.0
C2115 C 0.28703 0.70715 0.32652 0.0
C2116 C 0.26034 0.66659 0.31577 0.0
C2117 C 0.27148 0.80525 0.37675 0.0
C2118 C 0.13785 0.84276 0.36966 0.0
C2119 C 0.19242 0.8175 0.40231 0.0
C2120 C 0.1604 0.80798 0.45438 0.0
C2121 C 0.13257 0.82001 0.43731 0.0
N2122 N 0.19838 0.84009 0.33511 0.0
C2123 C 0.16987 0.85125 0.31823 0.0
loop_
_geom_bond_atom_site_label_1
_geom_bond_atom_site_label_2
_geom_bond_distance
_geom_bond_site_symmetry_2
_ccdc_geom_bond_type
Co0 O2 2.143 . S
Co0 O8 2.074 . S
Co0 O11 2.093 . S
Co0 O24 2.097 . S
Co0 N41 2.151 1_554 S
Co0 N49 2.214 . S
Co1 O2 2.160 . S
Co1 O7 2.058 . S
Co1 O17 2.057 1_554 S
Co1 O32 2.037 . S
Co1 N36 2.145 . S
Co1 N57 2.257 . S
O2 Co0 2.143 . S
O2 Co1 2.160 . S
C3 O4 1.278 . S
C3 O11 1.224 . S
O4 C3 1.278 . S
C5 O6 1.245 . S
C5 O17 1.232 . S
O6 C5 1.245 . S
O7 Co1 2.058 . S
O7 C33 1.269 . S
O8 Co0 2.074 . S
O8 C33 1.257 . S
H9 C34 0.930 . S
H10 C40 0.930 . S
O11 Co0 2.093 . S
O11 C3 1.224 . S
H12 C44 0.929 . S
H13 C46 0.930 . S
H14 C47 0.930 . S
H15 C45 0.929 . S
H16 C48 0.928 . S
O17 Co1 2.057 1_556 S
O17 C5 1.232 . S
H18 C37 0.929 . S
H19 C38 0.929 . S
H20 C50 0.931 . S
H21 C42 0.929 . S
H22 C51 0.930 1_655 S
H23 C43 0.931 . S
O24 Co0 2.097 . S
O24 C52 1.214 . S
H25 C53 0.929 . S
H26 C54 0.929 . S
H27 C55 0.930 . S
H28 C56 0.929 . S
H29 C58 0.930 . S
H30 C35 0.930 . S
H31 C39 0.930 . S
O32 Co1 2.037 . S
O32 C52 1.234 . S
C33 O7 1.269 . S
C33 O8 1.257 . S
C34 H9 0.930 . S
C34 C37 1.388 . S
C34 C39 1.418 . S
C35 H30 0.930 . S
C35 C38 1.404 . S
C35 C39 1.353 . S
N36 Co1 2.145 . S
N36 C37 1.397 . S
N36 C38 1.334 . S
C37 H18 0.929 . S
C37 C34 1.388 . S
C37 N36 1.397 . S
C38 H19 0.929 . S
C38 C35 1.404 . S
C38 N36 1.334 . S
C39 H31 0.930 . S
C39 C34 1.418 . S
C39 C35 1.353 . S
C40 H10 0.930 . S
C40 N41 1.330 . S
C40 C42 1.446 . S
N41 Co0 2.151 1_556 S
N41 C40 1.330 . S
N41 C45 1.418 . S
C42 H21 0.929 . S
C42 C40 1.446 . S
C42 C43 1.332 . S
C43 H23 0.931 . S
C43 C42 1.332 . S
C43 C44 1.267 . S
C44 H12 0.929 . S
C44 C43 1.267 . S
C44 C45 1.251 . S
C45 H15 0.929 . S
C45 N41 1.418 . S
C45 C44 1.251 . S
C46 H13 0.930 . S
C46 C48 1.406 . S
C46 C51 1.261 . S
C47 H14 0.930 . S
C47 N49 1.325 . S
C47 C50 1.357 . S
C48 H16 0.928 . S
C48 C46 1.406 . S
C48 N49 1.261 . S
N49 Co0 2.214 . S
N49 C47 1.325 . S
N49 C48 1.261 . S
C50 H20 0.931 . S
C50 C47 1.357 . S
C50 C51 1.312 . S
C51 H22 0.930 1_455 S
C51 C46 1.261 . S
C51 C50 1.312 . S
C52 O24 1.214 . S
C52 O32 1.234 . S
C53 H25 0.929 . S
C53 C56 1.391 . S
C53 C58 1.391 . S
C54 H26 0.929 . S
C54 C55 1.390 . S
C54 N57 1.391 . S
C55 H27 0.930 . S
C55 C54 1.390 . S
C55 C56 1.392 . S
C56 H28 0.929 . S
C56 C53 1.391 . S
C56 C55 1.392 . S
N57 Co1 2.257 . S
N57 C54 1.391 . S
N57 C58 1.388 . S
C58 H29 0.930 . S
C58 C53 1.391 . S
C58 N57 1.388 . S
Co59 O61 2.143 . S
Co59 O67 2.074 1_545 S
Co59 O70 2.093 . S
Co59 O83 2.097 . S
Co59 N100 2.151 1_554 S
Co59 N108 2.214 . S
Co60 O61 2.160 . S
Co60 O66 2.058 1_545 S
Co60 O76 2.057 1_554 S
Co60 O91 2.037 . S
Co60 N95 2.145 1_545 S
Co60 N116 2.257 . S
O61 Co59 2.143 . S
O61 Co60 2.160 . S
C62 O63 1.278 . S
C62 O70 1.224 . S
O63 C62 1.278 . S
C64 O65 1.245 . S
C64 O76 1.232 . S
O65 C64 1.245 . S
O66 Co60 2.058 1_565 S
O66 C92 1.269 . S
O67 Co59 2.074 1_565 S
O67 C92 1.257 . S
H68 C93 0.930 . S
H69 C99 0.930 . S
O70 Co59 2.093 . S
O70 C62 1.224 . S
H71 C103 0.929 1_565 S
H72 C105 0.930 1_545 S
H73 C106 0.930 . S
H74 C104 0.929 . S
H75 C107 0.928 . S
O76 Co60 2.057 1_556 S
O76 C64 1.232 . S
H77 C96 0.929 . S
H78 C97 0.929 . S
H79 C109 0.931 . S
H80 C101 0.929 . S
H81 C110 0.930 . S
H82 C102 0.931 . S
O83 Co59 2.097 . S
O83 C111 1.214 . S
H84 C112 0.929 . S
H85 C113 0.929 . S
H86 C114 0.930 . S
H87 C115 0.929 . S
H88 C117 0.930 . S
H89 C94 0.930 . S
H90 C98 0.930 . S
O91 Co60 2.037 . S
O91 C111 1.234 . S
C92 O66 1.269 . S
C92 O67 1.257 . S
C93 H68 0.930 . S
C93 C96 1.388 . S
C93 C98 1.418 . S
C94 H89 0.930 . S
C94 C97 1.404 1_565 S
C94 C98 1.353 . S
N95 Co60 2.145 1_565 S
N95 C96 1.397 . S
N95 C97 1.334 1_565 S
C96 H77 0.929 . S
C96 C93 1.388 . S
C96 N95 1.397 . S
C97 H78 0.929 . S
C97 C94 1.404 1_545 S
C97 N95 1.334 1_545 S
C98 H90 0.930 . S
C98 C93 1.418 . S
C98 C94 1.353 . S
C99 H69 0.930 . S
C99 N100 1.330 . S
C99 C101 1.446 . S
N100 Co59 2.151 1_556 S
N100 C99 1.330 . S
N100 C104 1.418 1_545 S
C101 H80 0.929 . S
C101 C99 1.446 . S
C101 C102 1.332 . S
C102 H82 0.931 . S
C102 C101 1.332 . S
C102 C103 1.267 . S
C103 H71 0.929 1_545 S
C103 C102 1.267 . S
C103 C104 1.251 1_545 S
C104 H74 0.929 . S
C104 N100 1.418 1_565 S
C104 C103 1.251 1_565 S
C105 H72 0.930 1_565 S
C105 C107 1.406 1_565 S
C105 C110 1.261 . S
C106 H73 0.930 . S
C106 N108 1.325 1_565 S
C106 C109 1.357 . S
C107 H75 0.928 . S
C107 C105 1.406 1_545 S
C107 N108 1.261 . S
N108 Co59 2.214 . S
N108 C106 1.325 1_545 S
N108 C107 1.261 . S
C109 H79 0.931 . S
C109 C106 1.357 . S
C109 C110 1.312 . S
C110 H81 0.930 . S
C110 C105 1.261 . S
C110 C109 1.312 . S
C111 O83 1.214 . S
C111 O91 1.234 . S
C112 H84 0.929 . S
C112 C115 1.391 . S
C112 C117 1.391 . S
C113 H85 0.929 . S
C113 C114 1.390 . S
C113 N116 1.391 . S
C114 H86 0.930 . S
C114 C113 1.390 . S
C114 C115 1.392 . S
C115 H87 0.929 . S
C115 C112 1.391 . S
C115 C114 1.392 . S
N116 Co60 2.257 . S
N116 C113 1.391 . S
N116 C117 1.388 . S
C117 H88 0.930 . S
C117 C112 1.391 . S
C117 N116 1.388 . S
Co118 O120 2.143 . S
Co118 O126 2.074 1_655 S
Co118 O129 2.093 . S
Co118 O142 2.097 . S
Co118 N159 2.151 1_554 S
Co118 N167 2.214 . S
Co119 O120 2.160 . S
Co119 O125 2.058 1_655 S
Co119 O135 2.057 1_554 S
Co119 O150 2.037 . S
Co119 N154 2.145 1_655 S
Co119 N175 2.257 . S
O120 Co118 2.143 . S
O120 Co119 2.160 . S
C121 O122 1.278 . S
C121 O129 1.224 . S
O122 C121 1.278 . S
C123 O124 1.245 . S
C123 O135 1.232 . S
O124 C123 1.245 . S
O125 Co119 2.058 1_455 S
O125 C151 1.269 . S
O126 Co118 2.074 1_455 S
O126 C151 1.257 . S
H127 C152 0.930 . S
H128 C158 0.930 . S
O129 Co118 2.093 . S
O129 C121 1.224 . S
H130 C162 0.929 1_455 S
H131 C164 0.930 1_655 S
H132 C165 0.930 . S
H133 C163 0.929 . S
H134 C166 0.928 . S
O135 Co119 2.057 1_556 S
O135 C123 1.232 . S
H136 C155 0.929 . S
H137 C156 0.929 . S
H138 C168 0.931 . S
H139 C160 0.929 . S
H140 C169 0.930 1_545 S
H141 C161 0.931 . S
O142 Co118 2.097 . S
O142 C170 1.214 . S
H143 C171 0.929 . S
H144 C172 0.929 . S
H145 C173 0.930 . S
H146 C174 0.929 . S
H147 C176 0.930 . S
H148 C153 0.930 . S
H149 C157 0.930 . S
O150 Co119 2.037 . S
O150 C170 1.234 . S
C151 O125 1.269 . S
C151 O126 1.257 . S
C152 H127 0.930 . S
C152 C155 1.388 . S
C152 C157 1.418 . S
C153 H148 0.930 . S
C153 C156 1.404 1_455 S
C153 C157 1.353 . S
N154 Co119 2.145 1_455 S
N154 C155 1.397 . S
N154 C156 1.334 1_455 S
C155 H136 0.929 . S
C155 C152 1.388 . S
C155 N154 1.397 . S
C156 H137 0.929 . S
C156 C153 1.404 1_655 S
C156 N154 1.334 1_655 S
C157 H149 0.930 . S
C157 C152 1.418 . S
C157 C153 1.353 . S
C158 H128 0.930 . S
C158 N159 1.330 . S
C158 C160 1.446 . S
N159 Co118 2.151 1_556 S
N159 C158 1.330 . S
N159 C163 1.418 1_655 S
C160 H139 0.929 . S
C160 C158 1.446 . S
C160 C161 1.332 . S
C161 H141 0.931 . S
C161 C160 1.332 . S
C161 C162 1.267 . S
C162 H130 0.929 1_655 S
C162 C161 1.267 . S
C162 C163 1.251 1_655 S
C163 H133 0.929 . S
C163 N159 1.418 1_455 S
C163 C162 1.251 1_455 S
C164 H131 0.930 1_455 S
C164 C166 1.406 1_455 S
C164 C169 1.261 . S
C165 H132 0.930 . S
C165 N167 1.325 1_455 S
C165 C168 1.357 . S
C166 H134 0.928 . S
C166 C164 1.406 1_655 S
C166 N167 1.261 . S
N167 Co118 2.214 . S
N167 C165 1.325 1_655 S
N167 C166 1.261 . S
C168 H138 0.931 . S
C168 C165 1.357 . S
C168 C169 1.312 . S
C169 H140 0.930 1_565 S
C169 C164 1.261 . S
C169 C168 1.312 . S
C170 O142 1.214 . S
C170 O150 1.234 . S
C171 H143 0.929 . S
C171 C174 1.391 . S
C171 C176 1.391 . S
C172 H144 0.929 . S
C172 C173 1.390 . S
C172 N175 1.391 . S
C173 H145 0.930 . S
C173 C172 1.390 . S
C173 C174 1.392 . S
C174 H146 0.929 . S
C174 C171 1.391 . S
C174 C173 1.392 . S
N175 Co119 2.257 . S
N175 C172 1.391 . S
N175 C176 1.388 . S
C176 H147 0.930 . S
C176 C171 1.391 . S
C176 N175 1.388 . S
Co177 O179 2.143 . S
Co177 O185 2.074 . S
Co177 O188 2.093 . S
Co177 O201 2.097 . S
Co177 N218 2.151 . S
Co177 N226 2.214 . S
Co178 O179 2.160 . S
Co178 O184 2.058 . S
Co178 O194 2.057 . S
Co178 O209 2.037 . S
Co178 N213 2.145 . S
Co178 N234 2.257 . S
O179 Co177 2.143 . S
O179 Co178 2.160 . S
C180 O181 1.278 . S
C180 O188 1.224 . S
O181 C180 1.278 . S
C182 O183 1.245 . S
C182 O194 1.232 . S
O183 C182 1.245 . S
O184 Co178 2.058 . S
O184 C210 1.269 . S
O185 Co177 2.074 . S
O185 C210 1.257 . S
H186 C211 0.930 . S
H187 C217 0.930 . S
O188 Co177 2.093 . S
O188 C180 1.224 . S
H189 C221 0.929 . S
H190 C223 0.930 . S
H191 C224 0.930 . S
H192 C222 0.929 . S
H193 C225 0.928 . S
O194 Co178 2.057 . S
O194 C182 1.232 . S
H195 C214 0.929 . S
H196 C215 0.929 . S
H197 C227 0.931 . S
H198 C219 0.929 . S
H199 C228 0.930 1_565 S
H200 C220 0.931 . S
O201 Co177 2.097 . S
O201 C229 1.214 . S
H202 C230 0.929 . S
H203 C231 0.929 . S
H204 C232 0.930 . S
H205 C233 0.929 . S
H206 C235 0.930 . S
H207 C212 0.930 . S
H208 C216 0.930 . S
O209 Co178 2.037 . S
O209 C229 1.234 . S
C210 O184 1.269 . S
C210 O185 1.257 . S
C211 H186 0.930 . S
C211 C214 1.388 . S
C211 C216 1.418 . S
C212 H207 0.930 . S
C212 C215 1.404 . S
C212 C216 1.353 . S
N213 Co178 2.145 . S
N213 C214 1.397 . S
N213 C215 1.334 . S
C214 H195 0.929 . S
C214 C211 1.388 . S
C214 N213 1.397 . S
C215 H196 0.929 . S
C215 C212 1.404 . S
C215 N213 1.334 . S
C216 H208 0.930 . S
C216 C211 1.418 . S
C216 C212 1.353 . S
C217 H187 0.930 . S
C217 N218 1.330 . S
C217 C219 1.446 . S
N218 Co177 2.151 . S
N218 C217 1.330 . S
N218 C222 1.418 . S
C219 H198 0.929 . S
C219 C217 1.446 . S
C219 C220 1.332 . S
C220 H200 0.931 . S
C220 C219 1.332 . S
C220 C221 1.267 . S
C221 H189 0.929 . S
C221 C220 1.267 . S
C221 C222 1.251 . S
C222 H192 0.929 . S
C222 N218 1.418 . S
C222 C221 1.251 . S
C223 H190 0.930 . S
C223 C225 1.406 . S
C223 C228 1.261 . S
C224 H191 0.930 . S
C224 N226 1.325 . S
C224 C227 1.357 . S
C225 H193 0.928 . S
C225 C223 1.406 . S
C225 N226 1.261 . S
N226 Co177 2.214 . S
N226 C224 1.325 . S
N226 C225 1.261 . S
C227 H197 0.931 . S
C227 C224 1.357 . S
C227 C228 1.312 . S
C228 H199 0.930 1_545 S
C228 C223 1.261 . S
C228 C227 1.312 . S
C229 O201 1.214 . S
C229 O209 1.234 . S
C230 H202 0.929 . S
C230 C233 1.391 . S
C230 C235 1.391 . S
C231 H203 0.929 . S
C231 C232 1.390 . S
C231 N234 1.391 . S
C232 H204 0.930 . S
C232 C231 1.390 . S
C232 C233 1.392 . S
C233 H205 0.929 . S
C233 C230 1.391 . S
C233 C232 1.392 . S
N234 Co178 2.257 . S
N234 C231 1.391 . S
N234 C235 1.388 . S
C235 H206 0.930 . S
C235 C230 1.391 . S
C235 N234 1.388 . S
Co236 O238 2.143 . S
Co236 O244 2.074 1_565 S
Co236 O247 2.093 . S
Co236 O260 2.097 . S
Co236 N277 2.151 . S
Co236 N285 2.214 . S
Co237 O238 2.160 . S
Co237 O243 2.058 1_565 S
Co237 O253 2.057 . S
Co237 O268 2.037 . S
Co237 N272 2.145 1_565 S
Co237 N293 2.257 . S
O238 Co236 2.143 . S
O238 Co237 2.160 . S
C239 O240 1.278 . S
C239 O247 1.224 . S
O240 C239 1.278 . S
C241 O242 1.245 . S
C241 O253 1.232 . S
O242 C241 1.245 . S
O243 Co237 2.058 1_545 S
O243 C269 1.269 . S
O244 Co236 2.074 1_545 S
O244 C269 1.257 . S
H245 C270 0.930 . S
H246 C276 0.930 . S
O247 Co236 2.093 . S
O247 C239 1.224 . S
H248 C280 0.929 1_545 S
H249 C282 0.930 1_565 S
H250 C283 0.930 . S
H251 C281 0.929 . S
H252 C284 0.928 . S
O253 Co237 2.057 . S
O253 C241 1.232 . S
H254 C273 0.929 . S
H255 C274 0.929 . S
H256 C286 0.931 . S
H257 C278 0.929 . S
H258 C287 0.930 1_455 S
H259 C279 0.931 . S
O260 Co236 2.097 . S
O260 C288 1.214 . S
H261 C289 0.929 . S
H262 C290 0.929 . S
H263 C291 0.930 . S
H264 C292 0.929 . S
H265 C294 0.930 . S
H266 C271 0.930 . S
H267 C275 0.930 . S
O268 Co237 2.037 . S
O268 C288 1.234 . S
C269 O243 1.269 . S
C269 O244 1.257 . S
C270 H245 0.930 . S
C270 C273 1.388 . S
C270 C275 1.418 . S
C271 H266 0.930 . S
C271 C274 1.404 1_545 S
C271 C275 1.353 . S
N272 Co237 2.145 1_545 S
N272 C273 1.397 . S
N272 C274 1.334 1_545 S
C273 H254 0.929 . S
C273 C270 1.388 . S
C273 N272 1.397 . S
C274 H255 0.929 . S
C274 C271 1.404 1_565 S
C274 N272 1.334 1_565 S
C275 H267 0.930 . S
C275 C270 1.418 . S
C275 C271 1.353 . S
C276 H246 0.930 . S
C276 N277 1.330 . S
C276 C278 1.446 . S
N277 Co236 2.151 . S
N277 C276 1.330 . S
N277 C281 1.418 1_565 S
C278 H257 0.929 . S
C278 C276 1.446 . S
C278 C279 1.332 . S
C279 H259 0.931 . S
C279 C278 1.332 . S
C279 C280 1.267 . S
C280 H248 0.929 1_565 S
C280 C279 1.267 . S
C280 C281 1.251 1_565 S
C281 H251 0.929 . S
C281 N277 1.418 1_545 S
C281 C280 1.251 1_545 S
C282 H249 0.930 1_545 S
C282 C284 1.406 1_545 S
C282 C287 1.261 . S
C283 H250 0.930 . S
C283 N285 1.325 1_545 S
C283 C286 1.357 . S
C284 H252 0.928 . S
C284 C282 1.406 1_565 S
C284 N285 1.261 . S
N285 Co236 2.214 . S
N285 C283 1.325 1_565 S
N285 C284 1.261 . S
C286 H256 0.931 . S
C286 C283 1.357 . S
C286 C287 1.312 . S
C287 H258 0.930 1_655 S
C287 C282 1.261 . S
C287 C286 1.312 . S
C288 O260 1.214 . S
C288 O268 1.234 . S
C289 H261 0.929 . S
C289 C292 1.391 . S
C289 C294 1.391 . S
C290 H262 0.929 . S
C290 C291 1.390 . S
C290 N293 1.391 . S
C291 H263 0.930 . S
C291 C290 1.390 . S
C291 C292 1.392 . S
C292 H264 0.929 . S
C292 C289 1.391 . S
C292 C291 1.392 . S
N293 Co237 2.257 . S
N293 C290 1.391 . S
N293 C294 1.388 . S
C294 H265 0.930 . S
C294 C289 1.391 . S
C294 N293 1.388 . S
Co295 O297 2.143 . S
Co295 O303 2.074 1_455 S
Co295 O306 2.093 . S
Co295 O319 2.097 . S
Co295 N336 2.151 . S
Co295 N344 2.214 . S
Co296 O297 2.160 . S
Co296 O302 2.058 1_455 S
Co296 O312 2.057 . S
Co296 O327 2.037 . S
Co296 N331 2.145 1_455 S
Co296 N352 2.257 . S
O297 Co295 2.143 . S
O297 Co296 2.160 . S
C298 O299 1.278 . S
C298 O306 1.224 . S
O299 C298 1.278 . S
C300 O301 1.245 . S
C300 O312 1.232 . S
O301 C300 1.245 . S
O302 Co296 2.058 1_655 S
O302 C328 1.269 . S
O303 Co295 2.074 1_655 S
O303 C328 1.257 . S
H304 C329 0.930 . S
H305 C335 0.930 . S
O306 Co295 2.093 . S
O306 C298 1.224 . S
H307 C339 0.929 1_655 S
H308 C341 0.930 1_455 S
H309 C342 0.930 . S
H310 C340 0.929 . S
H311 C343 0.928 . S
O312 Co296 2.057 . S
O312 C300 1.232 . S
H313 C332 0.929 . S
H314 C333 0.929 . S
H315 C345 0.931 . S
H316 C337 0.929 . S
H317 C346 0.930 . S
H318 C338 0.931 . S
O319 Co295 2.097 . S
O319 C347 1.214 . S
H320 C348 0.929 . S
H321 C349 0.929 . S
H322 C350 0.930 . S
H323 C351 0.929 . S
H324 C353 0.930 . S
H325 C330 0.930 . S
H326 C334 0.930 . S
O327 Co296 2.037 . S
O327 C347 1.234 . S
C328 O302 1.269 . S
C328 O303 1.257 . S
C329 H304 0.930 . S
C329 C332 1.388 . S
C329 C334 1.418 . S
C330 H325 0.930 . S
C330 C333 1.404 1_655 S
C330 C334 1.353 . S
N331 Co296 2.145 1_655 S
N331 C332 1.397 . S
N331 C333 1.334 1_655 S
C332 H313 0.929 . S
C332 C329 1.388 . S
C332 N331 1.397 . S
C333 H314 0.929 . S
C333 C330 1.404 1_455 S
C333 N331 1.334 1_455 S
C334 H326 0.930 . S
C334 C329 1.418 . S
C334 C330 1.353 . S
C335 H305 0.930 . S
C335 N336 1.330 . S
C335 C337 1.446 . S
N336 Co295 2.151 . S
N336 C335 1.330 . S
N336 C340 1.418 1_455 S
C337 H316 0.929 . S
C337 C335 1.446 . S
C337 C338 1.332 . S
C338 H318 0.931 . S
C338 C337 1.332 . S
C338 C339 1.267 . S
C339 H307 0.929 1_455 S
C339 C338 1.267 . S
C339 C340 1.251 1_455 S
C340 H310 0.929 . S
C340 N336 1.418 1_655 S
C340 C339 1.251 1_655 S
C341 H308 0.930 1_655 S
C341 C343 1.406 1_655 S
C341 C346 1.261 . S
C342 H309 0.930 . S
C342 N344 1.325 1_655 S
C342 C345 1.357 . S
C343 H311 0.928 . S
C343 C341 1.406 1_455 S
C343 N344 1.261 . S
N344 Co295 2.214 . S
N344 C342 1.325 1_455 S
N344 C343 1.261 . S
C345 H315 0.931 . S
C345 C342 1.357 . S
C345 C346 1.312 . S
C346 H317 0.930 . S
C346 C341 1.261 . S
C346 C345 1.312 . S
C347 O319 1.214 . S
C347 O327 1.234 . S
C348 H320 0.929 . S
C348 C351 1.391 . S
C348 C353 1.391 . S
C349 H321 0.929 . S
C349 C350 1.390 . S
C349 N352 1.391 . S
C350 H322 0.930 . S
C350 C349 1.390 . S
C350 C351 1.392 . S
C351 H323 0.929 . S
C351 C348 1.391 . S
C351 C350 1.392 . S
N352 Co296 2.257 . S
N352 C349 1.391 . S
N352 C353 1.388 . S
C353 H324 0.930 . S
C353 C348 1.391 . S
C353 N352 1.388 . S
Co354 O356 2.143 . S
Co354 O362 2.074 . S
Co354 O365 2.093 . S
Co354 O378 2.097 . S
Co354 N395 2.151 1_556 S
Co354 N403 2.214 . S
Co355 O356 2.160 . S
Co355 O361 2.058 . S
Co355 O371 2.057 1_556 S
Co355 O386 2.037 . S
Co355 N390 2.145 . S
Co355 N411 2.257 . S
O356 Co354 2.143 . S
O356 Co355 2.160 . S
C357 O358 1.278 . S
C357 O365 1.224 . S
O358 C357 1.278 . S
C359 O360 1.245 . S
C359 O371 1.232 . S
O360 C359 1.245 . S
O361 Co355 2.058 . S
O361 C387 1.269 . S
O362 Co354 2.074 . S
O362 C387 1.257 . S
H363 C388 0.930 . S
H364 C394 0.930 . S
O365 Co354 2.093 . S
O365 C357 1.224 . S
H366 C398 0.929 . S
H367 C400 0.930 . S
H368 C401 0.930 . S
H369 C399 0.929 . S
H370 C402 0.928 . S
O371 Co355 2.057 1_554 S
O371 C359 1.232 . S
H372 C391 0.929 . S
H373 C392 0.929 . S
H374 C404 0.931 . S
H375 C396 0.929 . S
H376 C405 0.930 1_455 S
H377 C397 0.931 . S
O378 Co354 2.097 . S
O378 C406 1.214 . S
H379 C407 0.929 . S
H380 C408 0.929 . S
H381 C409 0.930 . S
H382 C410 0.929 . S
H383 C412 0.930 . S
H384 C389 0.930 . S
H385 C393 0.930 . S
O386 Co355 2.037 . S
O386 C406 1.234 . S
C387 O361 1.269 . S
C387 O362 1.257 . S
C388 H363 0.930 . S
C388 C391 1.388 . S
C388 C393 1.418 . S
C389 H384 0.930 . S
C389 C392 1.404 . S
C389 C393 1.353 . S
N390 Co355 2.145 . S
N390 C391 1.397 . S
N390 C392 1.334 . S
C391 H372 0.929 . S
C391 C388 1.388 . S
C391 N390 1.397 . S
C392 H373 0.929 . S
C392 C389 1.404 . S
C392 N390 1.334 . S
C393 H385 0.930 . S
C393 C388 1.418 . S
C393 C389 1.353 . S
C394 H364 0.930 . S
C394 N395 1.330 . S
C394 C396 1.446 . S
N395 Co354 2.151 1_554 S
N395 C394 1.330 . S
N395 C399 1.418 . S
C396 H375 0.929 . S
C396 C394 1.446 . S
C396 C397 1.332 . S
C397 H377 0.931 . S
C397 C396 1.332 . S
C397 C398 1.267 . S
C398 H366 0.929 . S
C398 C397 1.267 . S
C398 C399 1.251 . S
C399 H369 0.929 . S
C399 N395 1.418 . S
C399 C398 1.251 . S
C400 H367 0.930 . S
C400 C402 1.406 . S
C400 C405 1.261 . S
C401 H368 0.930 . S
C401 N403 1.325 . S
C401 C404 1.357 . S
C402 H370 0.928 . S
C402 C400 1.406 . S
C402 N403 1.261 . S
N403 Co354 2.214 . S
N403 C401 1.325 . S
N403 C402 1.261 . S
C404 H374 0.931 . S
C404 C401 1.357 . S
C404 C405 1.312 . S
C405 H376 0.930 1_655 S
C405 C400 1.261 . S
C405 C404 1.312 . S
C406 O378 1.214 . S
C406 O386 1.234 . S
C407 H379 0.929 . S
C407 C410 1.391 . S
C407 C412 1.391 . S
C408 H380 0.929 . S
C408 C409 1.390 . S
C408 N411 1.391 . S
C409 H381 0.930 . S
C409 C408 1.390 . S
C409 C410 1.392 . S
C410 H382 0.929 . S
C410 C407 1.391 . S
C410 C409 1.392 . S
N411 Co355 2.257 . S
N411 C408 1.391 . S
N411 C412 1.388 . S
C412 H383 0.930 . S
C412 C407 1.391 . S
C412 N411 1.388 . S
Co413 O415 2.143 . S
Co413 O421 2.074 1_565 S
Co413 O424 2.093 . S
Co413 O437 2.097 . S
Co413 N454 2.151 1_556 S
Co413 N462 2.214 . S
Co414 O415 2.160 . S
Co414 O420 2.058 1_565 S
Co414 O430 2.057 1_556 S
Co414 O445 2.037 . S
Co414 N449 2.145 1_565 S
Co414 N470 2.257 . S
O415 Co413 2.143 . S
O415 Co414 2.160 . S
C416 O417 1.278 . S
C416 O424 1.224 . S
O417 C416 1.278 . S
C418 O419 1.245 . S
C418 O430 1.232 . S
O419 C418 1.245 . S
O420 Co414 2.058 1_545 S
O420 C446 1.269 . S
O421 Co413 2.074 1_545 S
O421 C446 1.257 . S
H422 C447 0.930 . S
H423 C453 0.930 . S
O424 Co413 2.093 . S
O424 C416 1.224 . S
H425 C457 0.929 1_545 S
H426 C459 0.930 1_565 S
H427 C460 0.930 . S
H428 C458 0.929 . S
H429 C461 0.928 . S
O430 Co414 2.057 1_554 S
O430 C418 1.232 . S
H431 C450 0.929 . S
H432 C451 0.929 . S
H433 C463 0.931 . S
H434 C455 0.929 . S
H435 C464 0.930 . S
H436 C456 0.931 . S
O437 Co413 2.097 . S
O437 C465 1.214 . S
H438 C466 0.929 . S
H439 C467 0.929 . S
H440 C468 0.930 . S
H441 C469 0.929 . S
H442 C471 0.930 . S
H443 C448 0.930 . S
H444 C452 0.930 . S
O445 Co414 2.037 . S
O445 C465 1.234 . S
C446 O420 1.269 . S
C446 O421 1.257 . S
C447 H422 0.930 . S
C447 C450 1.388 . S
C447 C452 1.418 . S
C448 H443 0.930 . S
C448 C451 1.404 1_545 S
C448 C452 1.353 . S
N449 Co414 2.145 1_545 S
N449 C450 1.397 . S
N449 C451 1.334 1_545 S
C450 H431 0.929 . S
C450 C447 1.388 . S
C450 N449 1.397 . S
C451 H432 0.929 . S
C451 C448 1.404 1_565 S
C451 N449 1.334 1_565 S
C452 H444 0.930 . S
C452 C447 1.418 . S
C452 C448 1.353 . S
C453 H423 0.930 . S
C453 N454 1.330 . S
C453 C455 1.446 . S
N454 Co413 2.151 1_554 S
N454 C453 1.330 . S
N454 C458 1.418 1_565 S
C455 H434 0.929 . S
C455 C453 1.446 . S
C455 C456 1.332 . S
C456 H436 0.931 . S
C456 C455 1.332 . S
C456 C457 1.267 . S
C457 H425 0.929 1_565 S
C457 C456 1.267 . S
C457 C458 1.251 1_565 S
C458 H428 0.929 . S
C458 N454 1.418 1_545 S
C458 C457 1.251 1_545 S
C459 H426 0.930 1_545 S
C459 C461 1.406 1_545 S
C459 C464 1.261 . S
C460 H427 0.930 . S
C460 N462 1.325 1_545 S
C460 C463 1.357 . S
C461 H429 0.928 . S
C461 C459 1.406 1_565 S
C461 N462 1.261 . S
N462 Co413 2.214 . S
N462 C460 1.325 1_565 S
N462 C461 1.261 . S
C463 H433 0.931 . S
C463 C460 1.357 . S
C463 C464 1.312 . S
C464 H435 0.930 . S
C464 C459 1.261 . S
C464 C463 1.312 . S
C465 O437 1.214 . S
C465 O445 1.234 . S
C466 H438 0.929 . S
C466 C469 1.391 . S
C466 C471 1.391 . S
C467 H439 0.929 . S
C467 C468 1.390 . S
C467 N470 1.391 . S
C468 H440 0.930 . S
C468 C467 1.390 . S
C468 C469 1.392 . S
C469 H441 0.929 . S
C469 C466 1.391 . S
C469 C468 1.392 . S
N470 Co414 2.257 . S
N470 C467 1.391 . S
N470 C471 1.388 . S
C471 H442 0.930 . S
C471 C466 1.391 . S
C471 N470 1.388 . S
Co472 O474 2.143 . S
Co472 O480 2.074 1_455 S
Co472 O483 2.093 . S
Co472 O496 2.097 . S
Co472 N513 2.151 1_556 S
Co472 N521 2.214 . S
Co473 O474 2.160 . S
Co473 O479 2.058 1_455 S
Co473 O489 2.057 1_556 S
Co473 O504 2.037 . S
Co473 N508 2.145 1_455 S
Co473 N529 2.257 . S
O474 Co472 2.143 . S
O474 Co473 2.160 . S
C475 O476 1.278 . S
C475 O483 1.224 . S
O476 C475 1.278 . S
C477 O478 1.245 . S
C477 O489 1.232 . S
O478 C477 1.245 . S
O479 Co473 2.058 1_655 S
O479 C505 1.269 . S
O480 Co472 2.074 1_655 S
O480 C505 1.257 . S
H481 C506 0.930 . S
H482 C512 0.930 . S
O483 Co472 2.093 . S
O483 C475 1.224 . S
H484 C516 0.929 1_655 S
H485 C518 0.930 1_455 S
H486 C519 0.930 . S
H487 C517 0.929 . S
H488 C520 0.928 . S
O489 Co473 2.057 1_554 S
O489 C477 1.232 . S
H490 C509 0.929 . S
H491 C510 0.929 . S
H492 C522 0.931 . S
H493 C514 0.929 . S
H494 C523 0.930 1_565 S
H495 C515 0.931 . S
O496 Co472 2.097 . S
O496 C524 1.214 . S
H497 C525 0.929 . S
H498 C526 0.929 . S
H499 C527 0.930 . S
H500 C528 0.929 . S
H501 C530 0.930 . S
H502 C507 0.930 . S
H503 C511 0.930 . S
O504 Co473 2.037 . S
O504 C524 1.234 . S
C505 O479 1.269 . S
C505 O480 1.257 . S
C506 H481 0.930 . S
C506 C509 1.388 . S
C506 C511 1.418 . S
C507 H502 0.930 . S
C507 C510 1.404 1_655 S
C507 C511 1.353 . S
N508 Co473 2.145 1_655 S
N508 C509 1.397 . S
N508 C510 1.334 1_655 S
C509 H490 0.929 . S
C509 C506 1.388 . S
C509 N508 1.397 . S
C510 H491 0.929 . S
C510 C507 1.404 1_455 S
C510 N508 1.334 1_455 S
C511 H503 0.930 . S
C511 C506 1.418 . S
C511 C507 1.353 . S
C512 H482 0.930 . S
C512 N513 1.330 . S
C512 C514 1.446 . S
N513 Co472 2.151 1_554 S
N513 C512 1.330 . S
N513 C517 1.418 1_455 S
C514 H493 0.929 . S
C514 C512 1.446 . S
C514 C515 1.332 . S
C515 H495 0.931 . S
C515 C514 1.332 . S
C515 C516 1.267 . S
C516 H484 0.929 1_455 S
C516 C515 1.267 . S
C516 C517 1.251 1_455 S
C517 H487 0.929 . S
C517 N513 1.418 1_655 S
C517 C516 1.251 1_655 S
C518 H485 0.930 1_655 S
C518 C520 1.406 1_655 S
C518 C523 1.261 . S
C519 H486 0.930 . S
C519 N521 1.325 1_655 S
C519 C522 1.357 . S
C520 H488 0.928 . S
C520 C518 1.406 1_455 S
C520 N521 1.261 . S
N521 Co472 2.214 . S
N521 C519 1.325 1_455 S
N521 C520 1.261 . S
C522 H492 0.931 . S
C522 C519 1.357 . S
C522 C523 1.312 . S
C523 H494 0.930 1_545 S
C523 C518 1.261 . S
C523 C522 1.312 . S
C524 O496 1.214 . S
C524 O504 1.234 . S
C525 H497 0.929 . S
C525 C528 1.391 . S
C525 C530 1.391 . S
C526 H498 0.929 . S
C526 C527 1.390 . S
C526 N529 1.391 . S
C527 H499 0.930 . S
C527 C526 1.390 . S
C527 C528 1.392 . S
C528 H500 0.929 . S
C528 C525 1.391 . S
C528 C527 1.392 . S
N529 Co473 2.257 . S
N529 C526 1.391 . S
N529 C530 1.388 . S
C530 H501 0.930 . S
C530 C525 1.391 . S
C530 N529 1.388 . S
Co531 O533 2.143 . S
Co531 O539 2.074 . S
Co531 O542 2.093 . S
Co531 O555 2.097 . S
Co531 N572 2.151 . S
Co531 N580 2.214 . S
Co532 O533 2.160 . S
Co532 O538 2.058 . S
Co532 O548 2.057 . S
Co532 O563 2.037 . S
Co532 N567 2.145 . S
Co532 N588 2.257 . S
O533 Co531 2.143 . S
O533 Co532 2.160 . S
C534 O535 1.278 . S
C534 O542 1.224 . S
O535 C534 1.278 . S
C536 O537 1.245 . S
C536 O548 1.232 . S
O537 C536 1.245 . S
O538 Co532 2.058 . S
O538 C564 1.269 . S
O539 Co531 2.074 . S
O539 C564 1.257 . S
H540 C565 0.930 . S
H541 C571 0.930 . S
O542 Co531 2.093 . S
O542 C534 1.224 . S
H543 C575 0.929 . S
H544 C577 0.930 . S
H545 C578 0.930 . S
H546 C576 0.929 . S
H547 C579 0.928 . S
O548 Co532 2.057 . S
O548 C536 1.232 . S
H549 C568 0.929 . S
H550 C569 0.929 . S
H551 C581 0.931 . S
H552 C573 0.929 . S
H553 C582 0.930 1_545 S
H554 C574 0.931 . S
O555 Co531 2.097 . S
O555 C583 1.214 . S
H556 C584 0.929 . S
H557 C585 0.929 . S
H558 C586 0.930 . S
H559 C587 0.929 . S
H560 C589 0.930 . S
H561 C566 0.930 . S
H562 C570 0.930 . S
O563 Co532 2.037 . S
O563 C583 1.234 . S
C564 O538 1.269 . S
C564 O539 1.257 . S
C565 H540 0.930 . S
C565 C568 1.388 . S
C565 C570 1.418 . S
C566 H561 0.930 . S
C566 C569 1.404 . S
C566 C570 1.353 . S
N567 Co532 2.145 . S
N567 C568 1.397 . S
N567 C569 1.334 . S
C568 H549 0.929 . S
C568 C565 1.388 . S
C568 N567 1.397 . S
C569 H550 0.929 . S
C569 C566 1.404 . S
C569 N567 1.334 . S
C570 H562 0.930 . S
C570 C565 1.418 . S
C570 C566 1.353 . S
C571 H541 0.930 . S
C571 N572 1.330 . S
C571 C573 1.446 . S
N572 Co531 2.151 . S
N572 C571 1.330 . S
N572 C576 1.418 . S
C573 H552 0.929 . S
C573 C571 1.446 . S
C573 C574 1.332 . S
C574 H554 0.931 . S
C574 C573 1.332 . S
C574 C575 1.267 . S
C575 H543 0.929 . S
C575 C574 1.267 . S
C575 C576 1.251 . S
C576 H546 0.929 . S
C576 N572 1.418 . S
C576 C575 1.251 . S
C577 H544 0.930 . S
C577 C579 1.406 . S
C577 C582 1.261 . S
C578 H545 0.930 . S
C578 N580 1.325 . S
C578 C581 1.357 . S
C579 H547 0.928 . S
C579 C577 1.406 . S
C579 N580 1.261 . S
N580 Co531 2.214 . S
N580 C578 1.325 . S
N580 C579 1.261 . S
C581 H551 0.931 . S
C581 C578 1.357 . S
C581 C582 1.312 . S
C582 H553 0.930 1_565 S
C582 C577 1.261 . S
C582 C581 1.312 . S
C583 O555 1.214 . S
C583 O563 1.234 . S
C584 H556 0.929 . S
C584 C587 1.391 . S
C584 C589 1.391 . S
C585 H557 0.929 . S
C585 C586 1.390 . S
C585 N588 1.391 . S
C586 H558 0.930 . S
C586 C585 1.390 . S
C586 C587 1.392 . S
C587 H559 0.929 . S
C587 C584 1.391 . S
C587 C586 1.392 . S
N588 Co532 2.257 . S
N588 C585 1.391 . S
N588 C589 1.388 . S
C589 H560 0.930 . S
C589 C584 1.391 . S
C589 N588 1.388 . S
Co590 O592 2.143 . S
Co590 O598 2.074 1_545 S
Co590 O601 2.093 . S
Co590 O614 2.097 . S
Co590 N631 2.151 . S
Co590 N639 2.214 . S
Co591 O592 2.160 . S
Co591 O597 2.058 1_545 S
Co591 O607 2.057 . S
Co591 O622 2.037 . S
Co591 N626 2.145 1_545 S
Co591 N647 2.257 . S
O592 Co590 2.143 . S
O592 Co591 2.160 . S
C593 O594 1.278 . S
C593 O601 1.224 . S
O594 C593 1.278 . S
C595 O596 1.245 . S
C595 O607 1.232 . S
O596 C595 1.245 . S
O597 Co591 2.058 1_565 S
O597 C623 1.269 . S
O598 Co590 2.074 1_565 S
O598 C623 1.257 . S
H599 C624 0.930 . S
H600 C630 0.930 . S
O601 Co590 2.093 . S
O601 C593 1.224 . S
H602 C634 0.929 1_565 S
H603 C636 0.930 1_545 S
H604 C637 0.930 . S
H605 C635 0.929 . S
H606 C638 0.928 . S
O607 Co591 2.057 . S
O607 C595 1.232 . S
H608 C627 0.929 . S
H609 C628 0.929 . S
H610 C640 0.931 . S
H611 C632 0.929 . S
H612 C641 0.930 1_655 S
H613 C633 0.931 . S
O614 Co590 2.097 . S
O614 C642 1.214 . S
H615 C643 0.929 . S
H616 C644 0.929 . S
H617 C645 0.930 . S
H618 C646 0.929 . S
H619 C648 0.930 . S
H620 C625 0.930 . S
H621 C629 0.930 . S
O622 Co591 2.037 . S
O622 C642 1.234 . S
C623 O597 1.269 . S
C623 O598 1.257 . S
C624 H599 0.930 . S
C624 C627 1.388 . S
C624 C629 1.418 . S
C625 H620 0.930 . S
C625 C628 1.404 1_565 S
C625 C629 1.353 . S
N626 Co591 2.145 1_565 S
N626 C627 1.397 . S
N626 C628 1.334 1_565 S
C627 H608 0.929 . S
C627 C624 1.388 . S
C627 N626 1.397 . S
C628 H609 0.929 . S
C628 C625 1.404 1_545 S
C628 N626 1.334 1_545 S
C629 H621 0.930 . S
C629 C624 1.418 . S
C629 C625 1.353 . S
C630 H600 0.930 . S
C630 N631 1.330 . S
C630 C632 1.446 . S
N631 Co590 2.151 . S
N631 C630 1.330 . S
N631 C635 1.418 1_545 S
C632 H611 0.929 . S
C632 C630 1.446 . S
C632 C633 1.332 . S
C633 H613 0.931 . S
C633 C632 1.332 . S
C633 C634 1.267 . S
C634 H602 0.929 1_545 S
C634 C633 1.267 . S
C634 C635 1.251 1_545 S
C635 H605 0.929 . S
C635 N631 1.418 1_565 S
C635 C634 1.251 1_565 S
C636 H603 0.930 1_565 S
C636 C638 1.406 1_565 S
C636 C641 1.261 . S
C637 H604 0.930 . S
C637 N639 1.325 1_565 S
C637 C640 1.357 . S
C638 H606 0.928 . S
C638 C636 1.406 1_545 S
C638 N639 1.261 . S
N639 Co590 2.214 . S
N639 C637 1.325 1_545 S
N639 C638 1.261 . S
C640 H610 0.931 . S
C640 C637 1.357 . S
C640 C641 1.312 . S
C641 H612 0.930 1_455 S
C641 C636 1.261 . S
C641 C640 1.312 . S
C642 O614 1.214 . S
C642 O622 1.234 . S
C643 H615 0.929 . S
C643 C646 1.391 . S
C643 C648 1.391 . S
C644 H616 0.929 . S
C644 C645 1.390 . S
C644 N647 1.391 . S
C645 H617 0.930 . S
C645 C644 1.390 . S
C645 C646 1.392 . S
C646 H618 0.929 . S
C646 C643 1.391 . S
C646 C645 1.392 . S
N647 Co591 2.257 . S
N647 C644 1.391 . S
N647 C648 1.388 . S
C648 H619 0.930 . S
C648 C643 1.391 . S
C648 N647 1.388 . S
Co649 O651 2.143 . S
Co649 O657 2.074 1_655 S
Co649 O660 2.093 . S
Co649 O673 2.097 . S
Co649 N690 2.151 . S
Co649 N698 2.214 . S
Co650 O651 2.160 . S
Co650 O656 2.058 1_655 S
Co650 O666 2.057 . S
Co650 O681 2.037 . S
Co650 N685 2.145 1_655 S
Co650 N706 2.257 . S
O651 Co649 2.143 . S
O651 Co650 2.160 . S
C652 O653 1.278 . S
C652 O660 1.224 . S
O653 C652 1.278 . S
C654 O655 1.245 . S
C654 O666 1.232 . S
O655 C654 1.245 . S
O656 Co650 2.058 1_455 S
O656 C682 1.269 . S
O657 Co649 2.074 1_455 S
O657 C682 1.257 . S
H658 C683 0.930 . S
H659 C689 0.930 . S
O660 Co649 2.093 . S
O660 C652 1.224 . S
H661 C693 0.929 1_455 S
H662 C695 0.930 1_655 S
H663 C696 0.930 . S
H664 C694 0.929 . S
H665 C697 0.928 . S
O666 Co650 2.057 . S
O666 C654 1.232 . S
H667 C686 0.929 . S
H668 C687 0.929 . S
H669 C699 0.931 . S
H670 C691 0.929 . S
H671 C700 0.930 . S
H672 C692 0.931 . S
O673 Co649 2.097 . S
O673 C701 1.214 . S
H674 C702 0.929 . S
H675 C703 0.929 . S
H676 C704 0.930 . S
H677 C705 0.929 . S
H678 C707 0.930 . S
H679 C684 0.930 . S
H680 C688 0.930 . S
O681 Co650 2.037 . S
O681 C701 1.234 . S
C682 O656 1.269 . S
C682 O657 1.257 . S
C683 H658 0.930 . S
C683 C686 1.388 . S
C683 C688 1.418 . S
C684 H679 0.930 . S
C684 C687 1.404 1_455 S
C684 C688 1.353 . S
N685 Co650 2.145 1_455 S
N685 C686 1.397 . S
N685 C687 1.334 1_455 S
C686 H667 0.929 . S
C686 C683 1.388 . S
C686 N685 1.397 . S
C687 H668 0.929 . S
C687 C684 1.404 1_655 S
C687 N685 1.334 1_655 S
C688 H680 0.930 . S
C688 C683 1.418 . S
C688 C684 1.353 . S
C689 H659 0.930 . S
C689 N690 1.330 . S
C689 C691 1.446 . S
N690 Co649 2.151 . S
N690 C689 1.330 . S
N690 C694 1.418 1_655 S
C691 H670 0.929 . S
C691 C689 1.446 . S
C691 C692 1.332 . S
C692 H672 0.931 . S
C692 C691 1.332 . S
C692 C693 1.267 . S
C693 H661 0.929 1_655 S
C693 C692 1.267 . S
C693 C694 1.251 1_655 S
C694 H664 0.929 . S
C694 N690 1.418 1_455 S
C694 C693 1.251 1_455 S
C695 H662 0.930 1_455 S
C695 C697 1.406 1_455 S
C695 C700 1.261 . S
C696 H663 0.930 . S
C696 N698 1.325 1_455 S
C696 C699 1.357 . S
C697 H665 0.928 . S
C697 C695 1.406 1_655 S
C697 N698 1.261 . S
N698 Co649 2.214 . S
N698 C696 1.325 1_655 S
N698 C697 1.261 . S
C699 H669 0.931 . S
C699 C696 1.357 . S
C699 C700 1.312 . S
C700 H671 0.930 . S
C700 C695 1.261 . S
C700 C699 1.312 . S
C701 O673 1.214 . S
C701 O681 1.234 . S
C702 H674 0.929 . S
C702 C705 1.391 . S
C702 C707 1.391 . S
C703 H675 0.929 . S
C703 C704 1.390 . S
C703 N706 1.391 . S
C704 H676 0.930 . S
C704 C703 1.390 . S
C704 C705 1.392 . S
C705 H677 0.929 . S
C705 C702 1.391 . S
C705 C704 1.392 . S
N706 Co650 2.257 . S
N706 C703 1.391 . S
N706 C707 1.388 . S
C707 H678 0.930 . S
C707 C702 1.391 . S
C707 N706 1.388 . S
Co708 O710 2.143 . S
Co708 O716 2.074 . S
Co708 O719 2.093 . S
Co708 O732 2.097 . S
Co708 N749 2.151 . S
Co708 N757 2.214 . S
Co709 O710 2.160 . S
Co709 O715 2.058 . S
Co709 O725 2.057 . S
Co709 O740 2.037 . S
Co709 N744 2.145 . S
Co709 N765 2.257 . S
O710 Co708 2.143 . S
O710 Co709 2.160 . S
C711 O712 1.278 . S
C711 O719 1.224 . S
O712 C711 1.278 . S
C713 O714 1.245 . S
C713 O725 1.232 . S
O714 C713 1.245 . S
O715 Co709 2.058 . S
O715 C741 1.269 . S
O716 Co708 2.074 . S
O716 C741 1.257 . S
H717 C742 0.930 . S
H718 C748 0.930 . S
O719 Co708 2.093 . S
O719 C711 1.224 . S
H720 C752 0.929 . S
H721 C754 0.930 . S
H722 C755 0.930 . S
H723 C753 0.929 . S
H724 C756 0.928 . S
O725 Co709 2.057 . S
O725 C713 1.232 . S
H726 C745 0.929 . S
H727 C746 0.929 . S
H728 C758 0.931 . S
H729 C750 0.929 . S
H730 C759 0.930 . S
H731 C751 0.931 . S
O732 Co708 2.097 . S
O732 C760 1.214 . S
H733 C761 0.929 . S
H734 C762 0.929 . S
H735 C763 0.930 . S
H736 C764 0.929 . S
H737 C766 0.929 1_655 S
H738 C743 0.930 . S
H739 C747 0.930 . S
O740 Co709 2.037 . S
O740 C760 1.234 . S
C741 O715 1.269 . S
C741 O716 1.257 . S
C742 H717 0.930 . S
C742 C745 1.388 . S
C742 C747 1.418 1_655 S
C743 H738 0.930 . S
C743 C746 1.404 . S
C743 C747 1.353 . S
N744 Co709 2.145 . S
N744 C745 1.397 . S
N744 C746 1.334 1_655 S
C745 H726 0.929 . S
C745 C742 1.388 . S
C745 N744 1.397 . S
C746 H727 0.929 . S
C746 C743 1.404 . S
C746 N744 1.334 1_455 S
C747 H739 0.930 . S
C747 C742 1.418 1_455 S
C747 C743 1.353 . S
C748 H718 0.930 . S
C748 N749 1.330 . S
C748 C750 1.446 . S
N749 Co708 2.151 . S
N749 C748 1.330 . S
N749 C753 1.418 . S
C750 H729 0.929 . S
C750 C748 1.446 . S
C750 C751 1.332 . S
C751 H731 0.931 . S
C751 C750 1.332 . S
C751 C752 1.267 . S
C752 H720 0.929 . S
C752 C751 1.267 . S
C752 C753 1.251 . S
C753 H723 0.929 . S
C753 N749 1.418 . S
C753 C752 1.251 . S
C754 H721 0.930 . S
C754 C756 1.406 . S
C754 C759 1.261 . S
C755 H722 0.930 . S
C755 N757 1.325 . S
C755 C758 1.357 . S
C756 H724 0.928 . S
C756 C754 1.406 . S
C756 N757 1.261 . S
N757 Co708 2.214 . S
N757 C755 1.325 . S
N757 C756 1.261 . S
C758 H728 0.931 . S
C758 C755 1.357 . S
C758 C759 1.312 . S
C759 H730 0.930 . S
C759 C754 1.261 . S
C759 C758 1.312 . S
C760 O732 1.214 . S
C760 O740 1.234 . S
C761 H733 0.929 . S
C761 C764 1.391 . S
C761 C766 1.391 . S
C762 H734 0.929 . S
C762 C763 1.390 1_655 S
C762 N765 1.391 . S
C763 H735 0.930 . S
C763 C762 1.390 1_455 S
C763 C764 1.392 . S
C764 H736 0.929 . S
C764 C761 1.391 . S
C764 C763 1.392 . S
N765 Co709 2.257 . S
N765 C762 1.391 . S
N765 C766 1.388 1_655 S
C766 H737 0.929 1_455 S
C766 C761 1.391 . S
C766 N765 1.388 1_455 S
Co767 O769 2.143 . S
Co767 O775 2.074 . S
Co767 O778 2.093 . S
Co767 O791 2.097 . S
Co767 N808 2.151 . S
Co767 N816 2.214 . S
Co768 O769 2.160 . S
Co768 O774 2.058 . S
Co768 O784 2.057 . S
Co768 O799 2.037 . S
Co768 N803 2.145 . S
Co768 N824 2.257 . S
O769 Co767 2.143 . S
O769 Co768 2.160 . S
C770 O771 1.278 . S
C770 O778 1.224 . S
O771 C770 1.278 . S
C772 O773 1.245 . S
C772 O784 1.232 . S
O773 C772 1.245 . S
O774 Co768 2.058 . S
O774 C800 1.269 . S
O775 Co767 2.074 . S
O775 C800 1.257 . S
H776 C801 0.930 . S
H777 C807 0.930 . S
O778 Co767 2.093 . S
O778 C770 1.224 . S
H779 C811 0.929 . S
H780 C813 0.930 . S
H781 C814 0.930 . S
H782 C812 0.929 . S
H783 C815 0.928 . S
O784 Co768 2.057 . S
O784 C772 1.232 . S
H785 C804 0.929 . S
H786 C805 0.929 . S
H787 C817 0.931 . S
H788 C809 0.929 . S
H789 C818 0.930 . S
H790 C810 0.931 . S
O791 Co767 2.097 . S
O791 C819 1.214 . S
H792 C820 0.929 . S
H793 C821 0.929 . S
H794 C822 0.930 . S
H795 C823 0.929 . S
H796 C825 0.930 . S
H797 C802 0.930 . S
H798 C806 0.930 . S
O799 Co768 2.037 . S
O799 C819 1.234 . S
C800 O774 1.269 . S
C800 O775 1.257 . S
C801 H776 0.930 . S
C801 C804 1.388 . S
C801 C806 1.418 . S
C802 H797 0.930 . S
C802 C805 1.404 . S
C802 C806 1.353 . S
N803 Co768 2.145 . S
N803 C804 1.397 . S
N803 C805 1.334 . S
C804 H785 0.929 . S
C804 C801 1.388 . S
C804 N803 1.397 . S
C805 H786 0.929 . S
C805 C802 1.404 . S
C805 N803 1.334 . S
C806 H798 0.930 . S
C806 C801 1.418 . S
C806 C802 1.353 . S
C807 H777 0.930 . S
C807 N808 1.330 . S
C807 C809 1.446 . S
N808 Co767 2.151 . S
N808 C807 1.330 . S
N808 C812 1.418 . S
C809 H788 0.929 . S
C809 C807 1.446 . S
C809 C810 1.332 . S
C810 H790 0.931 . S
C810 C809 1.332 . S
C810 C811 1.267 . S
C811 H779 0.929 . S
C811 C810 1.267 . S
C811 C812 1.251 . S
C812 H782 0.929 . S
C812 N808 1.418 . S
C812 C811 1.251 . S
C813 H780 0.930 . S
C813 C815 1.406 . S
C813 C818 1.261 . S
C814 H781 0.930 . S
C814 N816 1.325 . S
C814 C817 1.357 . S
C815 H783 0.928 . S
C815 C813 1.406 . S
C815 N816 1.261 . S
N816 Co767 2.214 . S
N816 C814 1.325 . S
N816 C815 1.261 . S
C817 H787 0.931 . S
C817 C814 1.357 . S
C817 C818 1.312 . S
C818 H789 0.930 . S
C818 C813 1.261 . S
C818 C817 1.312 . S
C819 O791 1.214 . S
C819 O799 1.234 . S
C820 H792 0.929 . S
C820 C823 1.391 . S
C820 C825 1.391 . S
C821 H793 0.929 . S
C821 C822 1.390 . S
C821 N824 1.391 . S
C822 H794 0.930 . S
C822 C821 1.390 . S
C822 C823 1.392 . S
C823 H795 0.929 . S
C823 C820 1.391 . S
C823 C822 1.392 . S
N824 Co768 2.257 . S
N824 C821 1.391 . S
N824 C825 1.388 . S
C825 H796 0.930 . S
C825 C820 1.391 . S
C825 N824 1.388 . S
Co826 O828 2.143 . S
Co826 O834 2.074 . S
Co826 O837 2.093 . S
Co826 O850 2.097 . S
Co826 N867 2.151 . S
Co826 N875 2.214 . S
Co827 O828 2.160 . S
Co827 O833 2.058 . S
Co827 O843 2.057 . S
Co827 O858 2.037 . S
Co827 N862 2.145 . S
Co827 N883 2.257 . S
O828 Co826 2.143 . S
O828 Co827 2.160 . S
C829 O830 1.278 . S
C829 O837 1.224 . S
O830 C829 1.278 . S
C831 O832 1.245 . S
C831 O843 1.232 . S
O832 C831 1.245 . S
O833 Co827 2.058 . S
O833 C859 1.269 . S
O834 Co826 2.074 . S
O834 C859 1.257 . S
H835 C860 0.930 . S
H836 C866 0.930 . S
O837 Co826 2.093 . S
O837 C829 1.224 . S
H838 C870 0.929 . S
H839 C872 0.930 . S
H840 C873 0.930 . S
H841 C871 0.929 . S
H842 C874 0.928 . S
O843 Co827 2.057 . S
O843 C831 1.232 . S
H844 C863 0.929 . S
H845 C864 0.929 . S
H846 C876 0.931 . S
H847 C868 0.929 . S
H848 C877 0.930 . S
H849 C869 0.931 . S
O850 Co826 2.097 . S
O850 C878 1.214 . S
H851 C879 0.929 . S
H852 C880 0.929 . S
H853 C881 0.930 . S
H854 C882 0.929 . S
H855 C884 0.927 1_545 S
H856 C861 0.930 . S
H857 C865 0.930 . S
O858 Co827 2.037 . S
O858 C878 1.234 . S
C859 O833 1.269 . S
C859 O834 1.257 . S
C860 H835 0.930 . S
C860 C863 1.388 . S
C860 C865 1.418 1_545 S
C861 H856 0.930 . S
C861 C864 1.404 . S
C861 C865 1.353 . S
N862 Co827 2.145 . S
N862 C863 1.397 . S
N862 C864 1.334 1_545 S
C863 H844 0.929 . S
C863 C860 1.388 . S
C863 N862 1.397 . S
C864 H845 0.929 . S
C864 C861 1.404 . S
C864 N862 1.334 1_565 S
C865 H857 0.930 . S
C865 C860 1.418 1_565 S
C865 C861 1.353 . S
C866 H836 0.930 . S
C866 N867 1.330 . S
C866 C868 1.446 . S
N867 Co826 2.151 . S
N867 C866 1.330 . S
N867 C871 1.418 . S
C868 H847 0.929 . S
C868 C866 1.446 . S
C868 C869 1.332 . S
C869 H849 0.931 . S
C869 C868 1.332 . S
C869 C870 1.267 . S
C870 H838 0.929 . S
C870 C869 1.267 . S
C870 C871 1.251 . S
C871 H841 0.929 . S
C871 N867 1.418 . S
C871 C870 1.251 . S
C872 H839 0.930 . S
C872 C874 1.406 . S
C872 C877 1.261 . S
C873 H840 0.930 . S
C873 N875 1.325 . S
C873 C876 1.357 . S
C874 H842 0.928 . S
C874 C872 1.406 . S
C874 N875 1.261 . S
N875 Co826 2.214 . S
N875 C873 1.325 . S
N875 C874 1.261 . S
C876 H846 0.931 . S
C876 C873 1.357 . S
C876 C877 1.312 . S
C877 H848 0.930 . S
C877 C872 1.261 . S
C877 C876 1.312 . S
C878 O850 1.214 . S
C878 O858 1.234 . S
C879 H851 0.929 . S
C879 C882 1.391 . S
C879 C884 1.391 . S
C880 H852 0.929 . S
C880 C881 1.390 1_545 S
C880 N883 1.391 . S
C881 H853 0.930 . S
C881 C880 1.390 1_565 S
C881 C882 1.392 . S
C882 H854 0.929 . S
C882 C879 1.391 . S
C882 C881 1.392 . S
N883 Co827 2.257 . S
N883 C880 1.391 . S
N883 C884 1.388 1_545 S
C884 H855 0.927 1_565 S
C884 C879 1.391 . S
C884 N883 1.388 1_565 S
Co885 O887 2.143 . S
Co885 O893 2.074 . S
Co885 O896 2.093 . S
Co885 O909 2.097 . S
Co885 N926 2.151 . S
Co885 N934 2.214 . S
Co886 O887 2.160 . S
Co886 O892 2.058 . S
Co886 O902 2.057 . S
Co886 O917 2.037 . S
Co886 N921 2.145 . S
Co886 N942 2.257 . S
O887 Co885 2.143 . S
O887 Co886 2.160 . S
C888 O889 1.278 . S
C888 O896 1.224 . S
O889 C888 1.278 . S
C890 O891 1.245 . S
C890 O902 1.232 . S
O891 C890 1.245 . S
O892 Co886 2.058 . S
O892 C918 1.269 . S
O893 Co885 2.074 . S
O893 C918 1.257 . S
H894 C919 0.930 . S
H895 C925 0.930 . S
O896 Co885 2.093 . S
O896 C888 1.224 . S
H897 C929 0.929 1_554 S
H898 C931 0.930 . S
H899 C932 0.930 . S
H900 C930 0.929 . S
H901 C933 0.928 . S
O902 Co886 2.057 . S
O902 C890 1.232 . S
H903 C922 0.929 . S
H904 C923 0.929 1_655 S
H905 C935 0.931 . S
H906 C927 0.929 . S
H907 C936 0.930 . S
H908 C928 0.931 . S
O909 Co885 2.097 . S
O909 C937 1.214 . S
H910 C938 0.929 . S
H911 C939 0.929 . S
H912 C940 0.930 . S
H913 C941 0.929 . S
H914 C943 0.930 . S
H915 C920 0.930 . S
H916 C924 0.930 . S
O917 Co886 2.037 . S
O917 C937 1.234 . S
C918 O892 1.269 . S
C918 O893 1.257 . S
C919 H894 0.930 . S
C919 C922 1.388 1_455 S
C919 C924 1.418 . S
C920 H915 0.930 . S
C920 C923 1.404 . S
C920 C924 1.353 . S
N921 Co886 2.145 . S
N921 C922 1.397 . S
N921 C923 1.334 1_655 S
C922 H903 0.929 . S
C922 C919 1.388 1_655 S
C922 N921 1.397 . S
C923 H904 0.929 1_455 S
C923 C920 1.404 . S
C923 N921 1.334 1_455 S
C924 H916 0.930 . S
C924 C919 1.418 . S
C924 C920 1.353 . S
C925 H895 0.930 . S
C925 N926 1.330 . S
C925 C927 1.446 1_556 S
N926 Co885 2.151 . S
N926 C925 1.330 . S
N926 C930 1.418 . S
C927 H906 0.929 . S
C927 C925 1.446 1_554 S
C927 C928 1.332 . S
C928 H908 0.931 . S
C928 C927 1.332 . S
C928 C929 1.267 1_554 S
C929 H897 0.929 1_556 S
C929 C928 1.267 1_556 S
C929 C930 1.251 . S
C930 H900 0.929 . S
C930 N926 1.418 . S
C930 C929 1.251 . S
C931 H898 0.930 . S
C931 C933 1.406 . S
C931 C936 1.261 . S
C932 H899 0.930 . S
C932 N934 1.325 . S
C932 C935 1.357 . S
C933 H901 0.928 . S
C933 C931 1.406 . S
C933 N934 1.261 . S
N934 Co885 2.214 . S
N934 C932 1.325 . S
N934 C933 1.261 . S
C935 H905 0.931 . S
C935 C932 1.357 . S
C935 C936 1.312 . S
C936 H907 0.930 . S
C936 C931 1.261 . S
C936 C935 1.312 . S
C937 O909 1.214 . S
C937 O917 1.234 . S
C938 H910 0.929 . S
C938 C941 1.391 . S
C938 C943 1.391 . S
C939 H911 0.929 . S
C939 C940 1.390 . S
C939 N942 1.391 . S
C940 H912 0.930 . S
C940 C939 1.390 . S
C940 C941 1.392 . S
C941 H913 0.929 . S
C941 C938 1.391 . S
C941 C940 1.392 . S
N942 Co886 2.257 . S
N942 C939 1.391 . S
N942 C943 1.388 . S
C943 H914 0.930 . S
C943 C938 1.391 . S
C943 N942 1.388 . S
Co944 O946 2.143 . S
Co944 O952 2.074 . S
Co944 O955 2.093 . S
Co944 O968 2.097 . S
Co944 N985 2.151 . S
Co944 N993 2.214 . S
Co945 O946 2.160 . S
Co945 O951 2.058 . S
Co945 O961 2.057 . S
Co945 O976 2.037 . S
Co945 N980 2.145 . S
Co945 N1001 2.257 . S
O946 Co944 2.143 . S
O946 Co945 2.160 . S
C947 O948 1.278 . S
C947 O955 1.224 . S
O948 C947 1.278 . S
C949 O950 1.245 . S
C949 O961 1.232 . S
O950 C949 1.245 . S
O951 Co945 2.058 . S
O951 C977 1.269 . S
O952 Co944 2.074 . S
O952 C977 1.257 . S
H953 C978 0.930 . S
H954 C984 0.930 . S
O955 Co944 2.093 . S
O955 C947 1.224 . S
H956 C988 0.929 1_554 S
H957 C990 0.930 . S
H958 C991 0.930 . S
H959 C989 0.929 . S
H960 C992 0.928 . S
O961 Co945 2.057 . S
O961 C949 1.232 . S
H962 C981 0.929 . S
H963 C982 0.929 . S
H964 C994 0.931 . S
H965 C986 0.929 . S
H966 C995 0.930 . S
H967 C987 0.931 . S
O968 Co944 2.097 . S
O968 C996 1.214 . S
H969 C997 0.929 . S
H970 C998 0.929 . S
H971 C999 0.930 . S
H972 C1000 0.929 . S
H973 C1002 0.930 . S
H974 C979 0.930 . S
H975 C983 0.930 . S
O976 Co945 2.037 . S
O976 C996 1.234 . S
C977 O951 1.269 . S
C977 O952 1.257 . S
C978 H953 0.930 . S
C978 C981 1.388 . S
C978 C983 1.418 . S
C979 H974 0.930 . S
C979 C982 1.404 . S
C979 C983 1.353 . S
N980 Co945 2.145 . S
N980 C981 1.397 . S
N980 C982 1.334 . S
C981 H962 0.929 . S
C981 C978 1.388 . S
C981 N980 1.397 . S
C982 H963 0.929 . S
C982 C979 1.404 . S
C982 N980 1.334 . S
C983 H975 0.930 . S
C983 C978 1.418 . S
C983 C979 1.353 . S
C984 H954 0.930 . S
C984 N985 1.330 . S
C984 C986 1.446 1_556 S
N985 Co944 2.151 . S
N985 C984 1.330 . S
N985 C989 1.418 . S
C986 H965 0.929 . S
C986 C984 1.446 1_554 S
C986 C987 1.332 . S
C987 H967 0.931 . S
C987 C986 1.332 . S
C987 C988 1.267 1_554 S
C988 H956 0.929 1_556 S
C988 C987 1.267 1_556 S
C988 C989 1.251 . S
C989 H959 0.929 . S
C989 N985 1.418 . S
C989 C988 1.251 . S
C990 H957 0.930 . S
C990 C992 1.406 . S
C990 C995 1.261 . S
C991 H958 0.930 . S
C991 N993 1.325 . S
C991 C994 1.357 . S
C992 H960 0.928 . S
C992 C990 1.406 . S
C992 N993 1.261 . S
N993 Co944 2.214 . S
N993 C991 1.325 . S
N993 C992 1.261 . S
C994 H964 0.931 . S
C994 C991 1.357 . S
C994 C995 1.312 . S
C995 H966 0.930 . S
C995 C990 1.261 . S
C995 C994 1.312 . S
C996 O968 1.214 . S
C996 O976 1.234 . S
C997 H969 0.929 . S
C997 C1000 1.391 . S
C997 C1002 1.391 . S
C998 H970 0.929 . S
C998 C999 1.390 . S
C998 N1001 1.391 . S
C999 H971 0.930 . S
C999 C998 1.390 . S
C999 C1000 1.392 . S
C1000 H972 0.929 . S
C1000 C997 1.391 . S
C1000 C999 1.392 . S
N1001 Co945 2.257 . S
N1001 C998 1.391 . S
N1001 C1002 1.388 . S
C1002 H973 0.930 . S
C1002 C997 1.391 . S
C1002 N1001 1.388 . S
Co1003 O1005 2.143 . S
Co1003 O1011 2.074 . S
Co1003 O1014 2.093 . S
Co1003 O1027 2.097 . S
Co1003 N1044 2.151 . S
Co1003 N1052 2.214 . S
Co1004 O1005 2.160 . S
Co1004 O1010 2.058 . S
Co1004 O1020 2.057 . S
Co1004 O1035 2.037 . S
Co1004 N1039 2.145 . S
Co1004 N1060 2.257 . S
O1005 Co1003 2.143 . S
O1005 Co1004 2.160 . S
C1006 O1007 1.278 . S
C1006 O1014 1.224 . S
O1007 C1006 1.278 . S
C1008 O1009 1.245 . S
C1008 O1020 1.232 . S
O1009 C1008 1.245 . S
O1010 Co1004 2.058 . S
O1010 C1036 1.269 . S
O1011 Co1003 2.074 . S
O1011 C1036 1.257 . S
H1012 C1037 0.930 . S
H1013 C1043 0.930 . S
O1014 Co1003 2.093 . S
O1014 C1006 1.224 . S
H1015 C1047 0.929 1_554 S
H1016 C1049 0.930 . S
H1017 C1050 0.930 . S
H1018 C1048 0.929 . S
H1019 C1051 0.928 . S
O1020 Co1004 2.057 . S
O1020 C1008 1.232 . S
H1021 C1040 0.929 . S
H1022 C1041 0.929 1_545 S
H1023 C1053 0.931 . S
H1024 C1045 0.929 . S
H1025 C1054 0.930 . S
H1026 C1046 0.931 . S
O1027 Co1003 2.097 . S
O1027 C1055 1.214 . S
H1028 C1056 0.929 . S
H1029 C1057 0.929 . S
H1030 C1058 0.930 . S
H1031 C1059 0.929 . S
H1032 C1061 0.930 . S
H1033 C1038 0.930 . S
H1034 C1042 0.930 . S
O1035 Co1004 2.037 . S
O1035 C1055 1.234 . S
C1036 O1010 1.269 . S
C1036 O1011 1.257 . S
C1037 H1012 0.930 . S
C1037 C1040 1.388 1_565 S
C1037 C1042 1.418 . S
C1038 H1033 0.930 . S
C1038 C1041 1.404 . S
C1038 C1042 1.353 . S
N1039 Co1004 2.145 . S
N1039 C1040 1.397 . S
N1039 C1041 1.334 1_545 S
C1040 H1021 0.929 . S
C1040 C1037 1.388 1_545 S
C1040 N1039 1.397 . S
C1041 H1022 0.929 1_565 S
C1041 C1038 1.404 . S
C1041 N1039 1.334 1_565 S
C1042 H1034 0.930 . S
C1042 C1037 1.418 . S
C1042 C1038 1.353 . S
C1043 H1013 0.930 . S
C1043 N1044 1.330 . S
C1043 C1045 1.446 1_556 S
N1044 Co1003 2.151 . S
N1044 C1043 1.330 . S
N1044 C1048 1.418 . S
C1045 H1024 0.929 . S
C1045 C1043 1.446 1_554 S
C1045 C1046 1.332 . S
C1046 H1026 0.931 . S
C1046 C1045 1.332 . S
C1046 C1047 1.267 1_554 S
C1047 H1015 0.929 1_556 S
C1047 C1046 1.267 1_556 S
C1047 C1048 1.251 . S
C1048 H1018 0.929 . S
C1048 N1044 1.418 . S
C1048 C1047 1.251 . S
C1049 H1016 0.930 . S
C1049 C1051 1.406 . S
C1049 C1054 1.261 . S
C1050 H1017 0.930 . S
C1050 N1052 1.325 . S
C1050 C1053 1.357 . S
C1051 H1019 0.928 . S
C1051 C1049 1.406 . S
C1051 N1052 1.261 . S
N1052 Co1003 2.214 . S
N1052 C1050 1.325 . S
N1052 C1051 1.261 . S
C1053 H1023 0.931 . S
C1053 C1050 1.357 . S
C1053 C1054 1.312 . S
C1054 H1025 0.930 . S
C1054 C1049 1.261 . S
C1054 C1053 1.312 . S
C1055 O1027 1.214 . S
C1055 O1035 1.234 . S
C1056 H1028 0.929 . S
C1056 C1059 1.391 . S
C1056 C1061 1.391 . S
C1057 H1029 0.929 . S
C1057 C1058 1.390 . S
C1057 N1060 1.391 . S
C1058 H1030 0.930 . S
C1058 C1057 1.390 . S
C1058 C1059 1.392 . S
C1059 H1031 0.929 . S
C1059 C1056 1.391 . S
C1059 C1058 1.392 . S
N1060 Co1004 2.257 . S
N1060 C1057 1.391 . S
N1060 C1061 1.388 . S
C1061 H1032 0.930 . S
C1061 C1056 1.391 . S
C1061 N1060 1.388 . S
Co1062 O1064 2.143 . S
Co1062 O1070 2.074 . S
Co1062 O1073 2.093 . S
Co1062 O1086 2.097 . S
Co1062 N1103 2.151 . S
Co1062 N1111 2.214 . S
Co1063 O1064 2.160 . S
Co1063 O1069 2.058 . S
Co1063 O1079 2.057 . S
Co1063 O1094 2.037 . S
Co1063 N1098 2.145 . S
Co1063 N1119 2.257 . S
O1064 Co1062 2.143 . S
O1064 Co1063 2.160 . S
C1065 O1066 1.278 . S
C1065 O1073 1.224 . S
O1066 C1065 1.278 . S
C1067 O1068 1.245 . S
C1067 O1079 1.232 . S
O1068 C1067 1.245 . S
O1069 Co1063 2.058 . S
O1069 C1095 1.269 . S
O1070 Co1062 2.074 . S
O1070 C1095 1.257 . S
H1071 C1096 0.930 . S
H1072 C1102 0.930 . S
O1073 Co1062 2.093 . S
O1073 C1065 1.224 . S
H1074 C1106 0.929 . S
H1075 C1108 0.930 . S
H1076 C1109 0.930 . S
H1077 C1107 0.929 . S
H1078 C1110 0.928 . S
O1079 Co1063 2.057 . S
O1079 C1067 1.232 . S
H1080 C1099 0.929 . S
H1081 C1100 0.929 1_545 S
H1082 C1112 0.931 . S
H1083 C1104 0.929 . S
H1084 C1113 0.930 . S
H1085 C1105 0.931 . S
O1086 Co1062 2.097 . S
O1086 C1114 1.214 . S
H1087 C1115 0.929 . S
H1088 C1116 0.929 . S
H1089 C1117 0.930 . S
H1090 C1118 0.929 . S
H1091 C1120 0.930 . S
H1092 C1097 0.930 . S
H1093 C1101 0.930 . S
O1094 Co1063 2.037 . S
O1094 C1114 1.234 . S
C1095 O1069 1.269 . S
C1095 O1070 1.257 . S
C1096 H1071 0.930 . S
C1096 C1099 1.388 1_565 S
C1096 C1101 1.418 . S
C1097 H1092 0.930 . S
C1097 C1100 1.404 . S
C1097 C1101 1.353 . S
N1098 Co1063 2.145 . S
N1098 C1099 1.397 . S
N1098 C1100 1.334 1_545 S
C1099 H1080 0.929 . S
C1099 C1096 1.388 1_545 S
C1099 N1098 1.397 . S
C1100 H1081 0.929 1_565 S
C1100 C1097 1.404 . S
C1100 N1098 1.334 1_565 S
C1101 H1093 0.930 . S
C1101 C1096 1.418 . S
C1101 C1097 1.353 . S
C1102 H1072 0.930 . S
C1102 N1103 1.330 . S
C1102 C1104 1.446 . S
N1103 Co1062 2.151 . S
N1103 C1102 1.330 . S
N1103 C1107 1.418 . S
C1104 H1083 0.929 . S
C1104 C1102 1.446 . S
C1104 C1105 1.332 . S
C1105 H1085 0.931 . S
C1105 C1104 1.332 . S
C1105 C1106 1.267 . S
C1106 H1074 0.929 . S
C1106 C1105 1.267 . S
C1106 C1107 1.251 . S
C1107 H1077 0.929 . S
C1107 N1103 1.418 . S
C1107 C1106 1.251 . S
C1108 H1075 0.930 . S
C1108 C1110 1.406 . S
C1108 C1113 1.261 . S
C1109 H1076 0.930 . S
C1109 N1111 1.325 . S
C1109 C1112 1.357 . S
C1110 H1078 0.928 . S
C1110 C1108 1.406 . S
C1110 N1111 1.261 . S
N1111 Co1062 2.214 . S
N1111 C1109 1.325 . S
N1111 C1110 1.261 . S
C1112 H1082 0.931 . S
C1112 C1109 1.357 . S
C1112 C1113 1.312 . S
C1113 H1084 0.930 . S
C1113 C1108 1.261 . S
C1113 C1112 1.312 . S
C1114 O1086 1.214 . S
C1114 O1094 1.234 . S
C1115 H1087 0.929 . S
C1115 C1118 1.391 . S
C1115 C1120 1.391 . S
C1116 H1088 0.929 . S
C1116 C1117 1.390 . S
C1116 N1119 1.391 . S
C1117 H1089 0.930 . S
C1117 C1116 1.390 . S
C1117 C1118 1.392 . S
C1118 H1090 0.929 . S
C1118 C1115 1.391 . S
C1118 C1117 1.392 . S
N1119 Co1063 2.257 . S
N1119 C1116 1.391 . S
N1119 C1120 1.388 . S
C1120 H1091 0.930 . S
C1120 C1115 1.391 . S
C1120 N1119 1.388 . S
Co1121 O1123 2.143 . S
Co1121 O1129 2.074 . S
Co1121 O1132 2.093 . S
Co1121 O1145 2.097 . S
Co1121 N1162 2.151 . S
Co1121 N1170 2.214 . S
Co1122 O1123 2.160 . S
Co1122 O1128 2.058 . S
Co1122 O1138 2.057 . S
Co1122 O1153 2.037 . S
Co1122 N1157 2.145 . S
Co1122 N1178 2.257 . S
O1123 Co1121 2.143 . S
O1123 Co1122 2.160 . S
C1124 O1125 1.278 . S
C1124 O1132 1.224 . S
O1125 C1124 1.278 . S
C1126 O1127 1.245 . S
C1126 O1138 1.232 . S
O1127 C1126 1.245 . S
O1128 Co1122 2.058 . S
O1128 C1154 1.269 . S
O1129 Co1121 2.074 . S
O1129 C1154 1.257 . S
H1130 C1155 0.930 . S
H1131 C1161 0.930 . S
O1132 Co1121 2.093 . S
O1132 C1124 1.224 . S
H1133 C1165 0.929 . S
H1134 C1167 0.930 . S
H1135 C1168 0.930 . S
H1136 C1166 0.929 . S
H1137 C1169 0.928 . S
O1138 Co1122 2.057 . S
O1138 C1126 1.232 . S
H1139 C1158 0.929 . S
H1140 C1159 0.929 1_655 S
H1141 C1171 0.931 . S
H1142 C1163 0.929 . S
H1143 C1172 0.930 . S
H1144 C1164 0.931 . S
O1145 Co1121 2.097 . S
O1145 C1173 1.214 . S
H1146 C1174 0.929 . S
H1147 C1175 0.929 . S
H1148 C1176 0.930 . S
H1149 C1177 0.929 . S
H1150 C1179 0.930 . S
H1151 C1156 0.930 . S
H1152 C1160 0.930 . S
O1153 Co1122 2.037 . S
O1153 C1173 1.234 . S
C1154 O1128 1.269 . S
C1154 O1129 1.257 . S
C1155 H1130 0.930 . S
C1155 C1158 1.388 1_455 S
C1155 C1160 1.418 . S
C1156 H1151 0.930 . S
C1156 C1159 1.404 . S
C1156 C1160 1.353 . S
N1157 Co1122 2.145 . S
N1157 C1158 1.397 . S
N1157 C1159 1.334 1_655 S
C1158 H1139 0.929 . S
C1158 C1155 1.388 1_655 S
C1158 N1157 1.397 . S
C1159 H1140 0.929 1_455 S
C1159 C1156 1.404 . S
C1159 N1157 1.334 1_455 S
C1160 H1152 0.930 . S
C1160 C1155 1.418 . S
C1160 C1156 1.353 . S
C1161 H1131 0.930 . S
C1161 N1162 1.330 . S
C1161 C1163 1.446 . S
N1162 Co1121 2.151 . S
N1162 C1161 1.330 . S
N1162 C1166 1.418 . S
C1163 H1142 0.929 . S
C1163 C1161 1.446 . S
C1163 C1164 1.332 . S
C1164 H1144 0.931 . S
C1164 C1163 1.332 . S
C1164 C1165 1.267 . S
C1165 H1133 0.929 . S
C1165 C1164 1.267 . S
C1165 C1166 1.251 . S
C1166 H1136 0.929 . S
C1166 N1162 1.418 . S
C1166 C1165 1.251 . S
C1167 H1134 0.930 . S
C1167 C1169 1.406 . S
C1167 C1172 1.261 . S
C1168 H1135 0.930 . S
C1168 N1170 1.325 . S
C1168 C1171 1.357 . S
C1169 H1137 0.928 . S
C1169 C1167 1.406 . S
C1169 N1170 1.261 . S
N1170 Co1121 2.214 . S
N1170 C1168 1.325 . S
N1170 C1169 1.261 . S
C1171 H1141 0.931 . S
C1171 C1168 1.357 . S
C1171 C1172 1.312 . S
C1172 H1143 0.930 . S
C1172 C1167 1.261 . S
C1172 C1171 1.312 . S
C1173 O1145 1.214 . S
C1173 O1153 1.234 . S
C1174 H1146 0.929 . S
C1174 C1177 1.391 . S
C1174 C1179 1.391 . S
C1175 H1147 0.929 . S
C1175 C1176 1.390 . S
C1175 N1178 1.391 . S
C1176 H1148 0.930 . S
C1176 C1175 1.390 . S
C1176 C1177 1.392 . S
C1177 H1149 0.929 . S
C1177 C1174 1.391 . S
C1177 C1176 1.392 . S
N1178 Co1122 2.257 . S
N1178 C1175 1.391 . S
N1178 C1179 1.388 . S
C1179 H1150 0.930 . S
C1179 C1174 1.391 . S
C1179 N1178 1.388 . S
Co1180 O1182 2.143 . S
Co1180 O1188 2.074 . S
Co1180 O1191 2.093 . S
Co1180 O1204 2.097 . S
Co1180 N1221 2.151 . S
Co1180 N1229 2.214 . S
Co1181 O1182 2.160 . S
Co1181 O1187 2.058 . S
Co1181 O1197 2.057 . S
Co1181 O1212 2.037 . S
Co1181 N1216 2.145 . S
Co1181 N1237 2.257 . S
O1182 Co1180 2.143 . S
O1182 Co1181 2.160 . S
C1183 O1184 1.278 . S
C1183 O1191 1.224 . S
O1184 C1183 1.278 . S
C1185 O1186 1.245 . S
C1185 O1197 1.232 . S
O1186 C1185 1.245 . S
O1187 Co1181 2.058 . S
O1187 C1213 1.269 . S
O1188 Co1180 2.074 . S
O1188 C1213 1.257 . S
H1189 C1214 0.930 . S
H1190 C1220 0.930 . S
O1191 Co1180 2.093 . S
O1191 C1183 1.224 . S
H1192 C1224 0.929 . S
H1193 C1226 0.930 . S
H1194 C1227 0.930 . S
H1195 C1225 0.929 . S
H1196 C1228 0.928 . S
O1197 Co1181 2.057 . S
O1197 C1185 1.232 . S
H1198 C1217 0.929 . S
H1199 C1218 0.929 . S
H1200 C1230 0.931 . S
H1201 C1222 0.929 . S
H1202 C1231 0.930 . S
H1203 C1223 0.931 . S
O1204 Co1180 2.097 . S
O1204 C1232 1.214 . S
H1205 C1233 0.929 . S
H1206 C1234 0.929 . S
H1207 C1235 0.930 . S
H1208 C1236 0.929 . S
H1209 C1238 0.930 . S
H1210 C1215 0.930 . S
H1211 C1219 0.930 . S
O1212 Co1181 2.037 . S
O1212 C1232 1.234 . S
C1213 O1187 1.269 . S
C1213 O1188 1.257 . S
C1214 H1189 0.930 . S
C1214 C1217 1.388 . S
C1214 C1219 1.418 . S
C1215 H1210 0.930 . S
C1215 C1218 1.404 . S
C1215 C1219 1.353 . S
N1216 Co1181 2.145 . S
N1216 C1217 1.397 . S
N1216 C1218 1.334 . S
C1217 H1198 0.929 . S
C1217 C1214 1.388 . S
C1217 N1216 1.397 . S
C1218 H1199 0.929 . S
C1218 C1215 1.404 . S
C1218 N1216 1.334 . S
C1219 H1211 0.930 . S
C1219 C1214 1.418 . S
C1219 C1215 1.353 . S
C1220 H1190 0.930 . S
C1220 N1221 1.330 . S
C1220 C1222 1.446 . S
N1221 Co1180 2.151 . S
N1221 C1220 1.330 . S
N1221 C1225 1.418 . S
C1222 H1201 0.929 . S
C1222 C1220 1.446 . S
C1222 C1223 1.332 . S
C1223 H1203 0.931 . S
C1223 C1222 1.332 . S
C1223 C1224 1.267 . S
C1224 H1192 0.929 . S
C1224 C1223 1.267 . S
C1224 C1225 1.251 . S
C1225 H1195 0.929 . S
C1225 N1221 1.418 . S
C1225 C1224 1.251 . S
C1226 H1193 0.930 . S
C1226 C1228 1.406 . S
C1226 C1231 1.261 . S
C1227 H1194 0.930 . S
C1227 N1229 1.325 . S
C1227 C1230 1.357 . S
C1228 H1196 0.928 . S
C1228 C1226 1.406 . S
C1228 N1229 1.261 . S
N1229 Co1180 2.214 . S
N1229 C1227 1.325 . S
N1229 C1228 1.261 . S
C1230 H1200 0.931 . S
C1230 C1227 1.357 . S
C1230 C1231 1.312 . S
C1231 H1202 0.930 . S
C1231 C1226 1.261 . S
C1231 C1230 1.312 . S
C1232 O1204 1.214 . S
C1232 O1212 1.234 . S
C1233 H1205 0.929 . S
C1233 C1236 1.391 . S
C1233 C1238 1.391 . S
C1234 H1206 0.929 . S
C1234 C1235 1.390 . S
C1234 N1237 1.391 . S
C1235 H1207 0.930 . S
C1235 C1234 1.390 . S
C1235 C1236 1.392 . S
C1236 H1208 0.929 . S
C1236 C1233 1.391 . S
C1236 C1235 1.392 . S
N1237 Co1181 2.257 . S
N1237 C1234 1.391 . S
N1237 C1238 1.388 . S
C1238 H1209 0.930 . S
C1238 C1233 1.391 . S
C1238 N1237 1.388 . S
Co1239 O1241 2.143 . S
Co1239 O1247 2.074 . S
Co1239 O1250 2.093 . S
Co1239 O1263 2.097 1_556 S
Co1239 N1280 2.151 . S
Co1239 N1288 2.214 . S
Co1240 O1241 2.160 . S
Co1240 O1246 2.058 . S
Co1240 O1256 2.057 . S
Co1240 O1271 2.037 1_556 S
Co1240 N1275 2.145 . S
Co1240 N1296 2.257 . S
O1241 Co1239 2.143 . S
O1241 Co1240 2.160 . S
C1242 O1243 1.278 . S
C1242 O1250 1.224 . S
O1243 C1242 1.278 . S
C1244 O1245 1.245 . S
C1244 O1256 1.232 . S
O1245 C1244 1.245 . S
O1246 Co1240 2.058 . S
O1246 C1272 1.269 . S
O1247 Co1239 2.074 . S
O1247 C1272 1.257 . S
H1248 C1273 0.930 . S
H1249 C1279 0.930 . S
O1250 Co1239 2.093 . S
O1250 C1242 1.224 . S
H1251 C1283 0.929 . S
H1252 C1285 0.930 . S
H1253 C1286 0.930 . S
H1254 C1284 0.929 . S
H1255 C1287 0.928 . S
O1256 Co1240 2.057 . S
O1256 C1244 1.232 . S
H1257 C1276 0.929 . S
H1258 C1277 0.929 . S
H1259 C1289 0.931 . S
H1260 C1281 0.929 . S
H1261 C1290 0.930 . S
H1262 C1282 0.931 . S
O1263 Co1239 2.097 1_554 S
O1263 C1291 1.214 . S
H1264 C1292 0.929 . S
H1265 C1293 0.929 . S
H1266 C1294 0.930 . S
H1267 C1295 0.929 . S
H1268 C1297 0.929 1_545 S
H1269 C1274 0.930 . S
H1270 C1278 0.930 . S
O1271 Co1240 2.037 1_554 S
O1271 C1291 1.234 . S
C1272 O1246 1.269 . S
C1272 O1247 1.257 . S
C1273 H1248 0.930 . S
C1273 C1276 1.388 . S
C1273 C1278 1.418 1_545 S
C1274 H1269 0.930 . S
C1274 C1277 1.404 . S
C1274 C1278 1.353 1_556 S
N1275 Co1240 2.145 . S
N1275 C1276 1.397 1_556 S
N1275 C1277 1.334 1_545 S
C1276 H1257 0.929 . S
C1276 C1273 1.388 . S
C1276 N1275 1.397 1_554 S
C1277 H1258 0.929 . S
C1277 C1274 1.404 . S
C1277 N1275 1.334 1_565 S
C1278 H1270 0.930 . S
C1278 C1273 1.418 1_565 S
C1278 C1274 1.353 1_554 S
C1279 H1249 0.930 . S
C1279 N1280 1.330 . S
C1279 C1281 1.446 . S
N1280 Co1239 2.151 . S
N1280 C1279 1.330 . S
N1280 C1284 1.418 . S
C1281 H1260 0.929 . S
C1281 C1279 1.446 . S
C1281 C1282 1.332 . S
C1282 H1262 0.931 . S
C1282 C1281 1.332 . S
C1282 C1283 1.267 . S
C1283 H1251 0.929 . S
C1283 C1282 1.267 . S
C1283 C1284 1.251 . S
C1284 H1254 0.929 . S
C1284 N1280 1.418 . S
C1284 C1283 1.251 . S
C1285 H1252 0.930 . S
C1285 C1287 1.406 . S
C1285 C1290 1.261 . S
C1286 H1253 0.930 . S
C1286 N1288 1.325 . S
C1286 C1289 1.357 1_556 S
C1287 H1255 0.928 . S
C1287 C1285 1.406 . S
C1287 N1288 1.261 . S
N1288 Co1239 2.214 . S
N1288 C1286 1.325 . S
N1288 C1287 1.261 . S
C1289 H1259 0.931 . S
C1289 C1286 1.357 1_554 S
C1289 C1290 1.312 1_554 S
C1290 H1261 0.930 . S
C1290 C1285 1.261 . S
C1290 C1289 1.312 1_556 S
C1291 O1263 1.214 . S
C1291 O1271 1.234 . S
C1292 H1264 0.929 . S
C1292 C1295 1.391 1_556 S
C1292 C1297 1.391 . S
C1293 H1265 0.929 . S
C1293 C1294 1.390 1_545 S
C1293 N1296 1.391 1_554 S
C1294 H1266 0.930 . S
C1294 C1293 1.390 1_565 S
C1294 C1295 1.392 . S
C1295 H1267 0.929 . S
C1295 C1292 1.391 1_554 S
C1295 C1294 1.392 . S
N1296 Co1240 2.257 . S
N1296 C1293 1.391 1_556 S
N1296 C1297 1.388 1_545 S
C1297 H1268 0.929 1_565 S
C1297 C1292 1.391 . S
C1297 N1296 1.388 1_565 S
Co1298 O1300 2.143 . S
Co1298 O1306 2.074 . S
Co1298 O1309 2.093 . S
Co1298 O1322 2.097 1_556 S
Co1298 N1339 2.151 . S
Co1298 N1347 2.214 . S
Co1299 O1300 2.160 . S
Co1299 O1305 2.058 . S
Co1299 O1315 2.057 . S
Co1299 O1330 2.037 1_556 S
Co1299 N1334 2.145 . S
Co1299 N1355 2.257 . S
O1300 Co1298 2.143 . S
O1300 Co1299 2.160 . S
C1301 O1302 1.278 . S
C1301 O1309 1.224 . S
O1302 C1301 1.278 . S
C1303 O1304 1.245 . S
C1303 O1315 1.232 . S
O1304 C1303 1.245 . S
O1305 Co1299 2.058 . S
O1305 C1331 1.269 . S
O1306 Co1298 2.074 . S
O1306 C1331 1.257 . S
H1307 C1332 0.930 . S
H1308 C1338 0.930 . S
O1309 Co1298 2.093 . S
O1309 C1301 1.224 . S
H1310 C1342 0.929 . S
H1311 C1344 0.930 . S
H1312 C1345 0.930 . S
H1313 C1343 0.929 . S
H1314 C1346 0.928 . S
O1315 Co1299 2.057 . S
O1315 C1303 1.232 . S
H1316 C1335 0.929 . S
H1317 C1336 0.929 . S
H1318 C1348 0.931 . S
H1319 C1340 0.929 . S
H1320 C1349 0.930 . S
H1321 C1341 0.931 . S
O1322 Co1298 2.097 1_554 S
O1322 C1350 1.214 . S
H1323 C1351 0.929 . S
H1324 C1352 0.929 . S
H1325 C1353 0.930 . S
H1326 C1354 0.929 . S
H1327 C1356 0.927 1_655 S
H1328 C1333 0.930 . S
H1329 C1337 0.930 . S
O1330 Co1299 2.037 1_554 S
O1330 C1350 1.234 . S
C1331 O1305 1.269 . S
C1331 O1306 1.257 . S
C1332 H1307 0.930 . S
C1332 C1335 1.388 . S
C1332 C1337 1.418 1_655 S
C1333 H1328 0.930 . S
C1333 C1336 1.404 . S
C1333 C1337 1.353 1_556 S
N1334 Co1299 2.145 . S
N1334 C1335 1.397 1_556 S
N1334 C1336 1.334 1_655 S
C1335 H1316 0.929 . S
C1335 C1332 1.388 . S
C1335 N1334 1.397 1_554 S
C1336 H1317 0.929 . S
C1336 C1333 1.404 . S
C1336 N1334 1.334 1_455 S
C1337 H1329 0.930 . S
C1337 C1332 1.418 1_455 S
C1337 C1333 1.353 1_554 S
C1338 H1308 0.930 . S
C1338 N1339 1.330 . S
C1338 C1340 1.446 . S
N1339 Co1298 2.151 . S
N1339 C1338 1.330 . S
N1339 C1343 1.418 . S
C1340 H1319 0.929 . S
C1340 C1338 1.446 . S
C1340 C1341 1.332 . S
C1341 H1321 0.931 . S
C1341 C1340 1.332 . S
C1341 C1342 1.267 . S
C1342 H1310 0.929 . S
C1342 C1341 1.267 . S
C1342 C1343 1.251 . S
C1343 H1313 0.929 . S
C1343 N1339 1.418 . S
C1343 C1342 1.251 . S
C1344 H1311 0.930 . S
C1344 C1346 1.406 . S
C1344 C1349 1.261 . S
C1345 H1312 0.930 . S
C1345 N1347 1.325 . S
C1345 C1348 1.357 1_556 S
C1346 H1314 0.928 . S
C1346 C1344 1.406 . S
C1346 N1347 1.261 . S
N1347 Co1298 2.214 . S
N1347 C1345 1.325 . S
N1347 C1346 1.261 . S
C1348 H1318 0.931 . S
C1348 C1345 1.357 1_554 S
C1348 C1349 1.312 1_554 S
C1349 H1320 0.930 . S
C1349 C1344 1.261 . S
C1349 C1348 1.312 1_556 S
C1350 O1322 1.214 . S
C1350 O1330 1.234 . S
C1351 H1323 0.929 . S
C1351 C1354 1.391 1_556 S
C1351 C1356 1.391 . S
C1352 H1324 0.929 . S
C1352 C1353 1.390 1_655 S
C1352 N1355 1.391 1_554 S
C1353 H1325 0.930 . S
C1353 C1352 1.390 1_455 S
C1353 C1354 1.392 . S
C1354 H1326 0.929 . S
C1354 C1351 1.391 1_554 S
C1354 C1353 1.392 . S
N1355 Co1299 2.257 . S
N1355 C1352 1.391 1_556 S
N1355 C1356 1.388 1_655 S
C1356 H1327 0.927 1_455 S
C1356 C1351 1.391 . S
C1356 N1355 1.388 1_455 S
Co1357 O1359 2.143 . S
Co1357 O1365 2.074 . S
Co1357 O1368 2.093 . S
Co1357 O1381 2.097 1_556 S
Co1357 N1398 2.151 . S
Co1357 N1406 2.214 . S
Co1358 O1359 2.160 . S
Co1358 O1364 2.058 . S
Co1358 O1374 2.057 . S
Co1358 O1389 2.037 1_556 S
Co1358 N1393 2.145 . S
Co1358 N1414 2.257 . S
O1359 Co1357 2.143 . S
O1359 Co1358 2.160 . S
C1360 O1361 1.278 . S
C1360 O1368 1.224 . S
O1361 C1360 1.278 . S
C1362 O1363 1.245 . S
C1362 O1374 1.232 . S
O1363 C1362 1.245 . S
O1364 Co1358 2.058 . S
O1364 C1390 1.269 . S
O1365 Co1357 2.074 . S
O1365 C1390 1.257 . S
H1366 C1391 0.930 . S
H1367 C1397 0.930 . S
O1368 Co1357 2.093 . S
O1368 C1360 1.224 . S
H1369 C1401 0.929 . S
H1370 C1403 0.930 . S
H1371 C1404 0.930 . S
H1372 C1402 0.929 . S
H1373 C1405 0.928 . S
O1374 Co1358 2.057 . S
O1374 C1362 1.232 . S
H1375 C1394 0.929 . S
H1376 C1395 0.929 . S
H1377 C1407 0.931 . S
H1378 C1399 0.929 . S
H1379 C1408 0.930 . S
H1380 C1400 0.931 . S
O1381 Co1357 2.097 1_554 S
O1381 C1409 1.214 . S
H1382 C1410 0.929 . S
H1383 C1411 0.929 . S
H1384 C1412 0.930 . S
H1385 C1413 0.929 . S
H1386 C1415 0.930 . S
H1387 C1392 0.930 . S
H1388 C1396 0.930 . S
O1389 Co1358 2.037 1_554 S
O1389 C1409 1.234 . S
C1390 O1364 1.269 . S
C1390 O1365 1.257 . S
C1391 H1366 0.930 . S
C1391 C1394 1.388 . S
C1391 C1396 1.418 . S
C1392 H1387 0.930 . S
C1392 C1395 1.404 . S
C1392 C1396 1.353 1_556 S
N1393 Co1358 2.145 . S
N1393 C1394 1.397 1_556 S
N1393 C1395 1.334 . S
C1394 H1375 0.929 . S
C1394 C1391 1.388 . S
C1394 N1393 1.397 1_554 S
C1395 H1376 0.929 . S
C1395 C1392 1.404 . S
C1395 N1393 1.334 . S
C1396 H1388 0.930 . S
C1396 C1391 1.418 . S
C1396 C1392 1.353 1_554 S
C1397 H1367 0.930 . S
C1397 N1398 1.330 . S
C1397 C1399 1.446 . S
N1398 Co1357 2.151 . S
N1398 C1397 1.330 . S
N1398 C1402 1.418 . S
C1399 H1378 0.929 . S
C1399 C1397 1.446 . S
C1399 C1400 1.332 . S
C1400 H1380 0.931 . S
C1400 C1399 1.332 . S
C1400 C1401 1.267 . S
C1401 H1369 0.929 . S
C1401 C1400 1.267 . S
C1401 C1402 1.251 . S
C1402 H1372 0.929 . S
C1402 N1398 1.418 . S
C1402 C1401 1.251 . S
C1403 H1370 0.930 . S
C1403 C1405 1.406 . S
C1403 C1408 1.261 . S
C1404 H1371 0.930 . S
C1404 N1406 1.325 . S
C1404 C1407 1.357 1_556 S
C1405 H1373 0.928 . S
C1405 C1403 1.406 . S
C1405 N1406 1.261 . S
N1406 Co1357 2.214 . S
N1406 C1404 1.325 . S
N1406 C1405 1.261 . S
C1407 H1377 0.931 . S
C1407 C1404 1.357 1_554 S
C1407 C1408 1.312 1_554 S
C1408 H1379 0.930 . S
C1408 C1403 1.261 . S
C1408 C1407 1.312 1_556 S
C1409 O1381 1.214 . S
C1409 O1389 1.234 . S
C1410 H1382 0.929 . S
C1410 C1413 1.391 1_556 S
C1410 C1415 1.391 . S
C1411 H1383 0.929 . S
C1411 C1412 1.390 . S
C1411 N1414 1.391 1_554 S
C1412 H1384 0.930 . S
C1412 C1411 1.390 . S
C1412 C1413 1.392 . S
C1413 H1385 0.929 . S
C1413 C1410 1.391 1_554 S
C1413 C1412 1.392 . S
N1414 Co1358 2.257 . S
N1414 C1411 1.391 1_556 S
N1414 C1415 1.388 . S
C1415 H1386 0.930 . S
C1415 C1410 1.391 . S
C1415 N1414 1.388 . S
Co1416 O1418 2.143 . S
Co1416 O1424 2.074 . S
Co1416 O1427 2.093 . S
Co1416 O1440 2.097 . S
Co1416 N1457 2.151 . S
Co1416 N1465 2.214 . S
Co1417 O1418 2.160 . S
Co1417 O1423 2.058 . S
Co1417 O1433 2.057 . S
Co1417 O1448 2.037 . S
Co1417 N1452 2.145 . S
Co1417 N1473 2.257 . S
O1418 Co1416 2.143 . S
O1418 Co1417 2.160 . S
C1419 O1420 1.278 . S
C1419 O1427 1.224 . S
O1420 C1419 1.278 . S
C1421 O1422 1.245 . S
C1421 O1433 1.232 . S
O1422 C1421 1.245 . S
O1423 Co1417 2.058 . S
O1423 C1449 1.269 . S
O1424 Co1416 2.074 . S
O1424 C1449 1.257 . S
H1425 C1450 0.930 . S
H1426 C1456 0.930 . S
O1427 Co1416 2.093 . S
O1427 C1419 1.224 . S
H1428 C1460 0.929 . S
H1429 C1462 0.930 . S
H1430 C1463 0.930 . S
H1431 C1461 0.929 . S
H1432 C1464 0.928 . S
O1433 Co1417 2.057 . S
O1433 C1421 1.232 . S
H1434 C1453 0.929 . S
H1435 C1454 0.929 1_565 S
H1436 C1466 0.931 . S
H1437 C1458 0.929 . S
H1438 C1467 0.930 . S
H1439 C1459 0.931 . S
O1440 Co1416 2.097 . S
O1440 C1468 1.214 . S
H1441 C1469 0.929 . S
H1442 C1470 0.929 . S
H1443 C1471 0.930 . S
H1444 C1472 0.929 . S
H1445 C1474 0.930 . S
H1446 C1451 0.930 . S
H1447 C1455 0.930 . S
O1448 Co1417 2.037 . S
O1448 C1468 1.234 . S
C1449 O1423 1.269 . S
C1449 O1424 1.257 . S
C1450 H1425 0.930 . S
C1450 C1453 1.388 1_545 S
C1450 C1455 1.418 . S
C1451 H1446 0.930 . S
C1451 C1454 1.404 . S
C1451 C1455 1.353 . S
N1452 Co1417 2.145 . S
N1452 C1453 1.397 . S
N1452 C1454 1.334 1_565 S
C1453 H1434 0.929 . S
C1453 C1450 1.388 1_565 S
C1453 N1452 1.397 . S
C1454 H1435 0.929 1_545 S
C1454 C1451 1.404 . S
C1454 N1452 1.334 1_545 S
C1455 H1447 0.930 . S
C1455 C1450 1.418 . S
C1455 C1451 1.353 . S
C1456 H1426 0.930 . S
C1456 N1457 1.330 . S
C1456 C1458 1.446 . S
N1457 Co1416 2.151 . S
N1457 C1456 1.330 . S
N1457 C1461 1.418 . S
C1458 H1437 0.929 . S
C1458 C1456 1.446 . S
C1458 C1459 1.332 . S
C1459 H1439 0.931 . S
C1459 C1458 1.332 . S
C1459 C1460 1.267 . S
C1460 H1428 0.929 . S
C1460 C1459 1.267 . S
C1460 C1461 1.251 . S
C1461 H1431 0.929 . S
C1461 N1457 1.418 . S
C1461 C1460 1.251 . S
C1462 H1429 0.930 . S
C1462 C1464 1.406 . S
C1462 C1467 1.261 . S
C1463 H1430 0.930 . S
C1463 N1465 1.325 . S
C1463 C1466 1.357 . S
C1464 H1432 0.928 . S
C1464 C1462 1.406 . S
C1464 N1465 1.261 . S
N1465 Co1416 2.214 . S
N1465 C1463 1.325 . S
N1465 C1464 1.261 . S
C1466 H1436 0.931 . S
C1466 C1463 1.357 . S
C1466 C1467 1.312 . S
C1467 H1438 0.930 . S
C1467 C1462 1.261 . S
C1467 C1466 1.312 . S
C1468 O1440 1.214 . S
C1468 O1448 1.234 . S
C1469 H1441 0.929 . S
C1469 C1472 1.391 . S
C1469 C1474 1.391 . S
C1470 H1442 0.929 . S
C1470 C1471 1.390 . S
C1470 N1473 1.391 . S
C1471 H1443 0.930 . S
C1471 C1470 1.390 . S
C1471 C1472 1.392 . S
C1472 H1444 0.929 . S
C1472 C1469 1.391 . S
C1472 C1471 1.392 . S
N1473 Co1417 2.257 . S
N1473 C1470 1.391 . S
N1473 C1474 1.388 . S
C1474 H1445 0.930 . S
C1474 C1469 1.391 . S
C1474 N1473 1.388 . S
Co1475 O1477 2.143 . S
Co1475 O1483 2.074 . S
Co1475 O1486 2.093 . S
Co1475 O1499 2.097 . S
Co1475 N1516 2.151 . S
Co1475 N1524 2.214 . S
Co1476 O1477 2.160 . S
Co1476 O1482 2.058 . S
Co1476 O1492 2.057 . S
Co1476 O1507 2.037 . S
Co1476 N1511 2.145 . S
Co1476 N1532 2.257 . S
O1477 Co1475 2.143 . S
O1477 Co1476 2.160 . S
C1478 O1479 1.278 . S
C1478 O1486 1.224 . S
O1479 C1478 1.278 . S
C1480 O1481 1.245 . S
C1480 O1492 1.232 . S
O1481 C1480 1.245 . S
O1482 Co1476 2.058 . S
O1482 C1508 1.269 . S
O1483 Co1475 2.074 . S
O1483 C1508 1.257 . S
H1484 C1509 0.930 . S
H1485 C1515 0.930 . S
O1486 Co1475 2.093 . S
O1486 C1478 1.224 . S
H1487 C1519 0.929 . S
H1488 C1521 0.930 . S
H1489 C1522 0.930 . S
H1490 C1520 0.929 . S
H1491 C1523 0.928 . S
O1492 Co1476 2.057 . S
O1492 C1480 1.232 . S
H1493 C1512 0.929 . S
H1494 C1513 0.929 1_455 S
H1495 C1525 0.931 . S
H1496 C1517 0.929 . S
H1497 C1526 0.930 . S
H1498 C1518 0.931 . S
O1499 Co1475 2.097 . S
O1499 C1527 1.214 . S
H1500 C1528 0.929 . S
H1501 C1529 0.929 . S
H1502 C1530 0.930 . S
H1503 C1531 0.929 . S
H1504 C1533 0.930 . S
H1505 C1510 0.930 . S
H1506 C1514 0.930 . S
O1507 Co1476 2.037 . S
O1507 C1527 1.234 . S
C1508 O1482 1.269 . S
C1508 O1483 1.257 . S
C1509 H1484 0.930 . S
C1509 C1512 1.388 1_655 S
C1509 C1514 1.418 . S
C1510 H1505 0.930 . S
C1510 C1513 1.404 . S
C1510 C1514 1.353 . S
N1511 Co1476 2.145 . S
N1511 C1512 1.397 . S
N1511 C1513 1.334 1_455 S
C1512 H1493 0.929 . S
C1512 C1509 1.388 1_455 S
C1512 N1511 1.397 . S
C1513 H1494 0.929 1_655 S
C1513 C1510 1.404 . S
C1513 N1511 1.334 1_655 S
C1514 H1506 0.930 . S
C1514 C1509 1.418 . S
C1514 C1510 1.353 . S
C1515 H1485 0.930 . S
C1515 N1516 1.330 . S
C1515 C1517 1.446 . S
N1516 Co1475 2.151 . S
N1516 C1515 1.330 . S
N1516 C1520 1.418 . S
C1517 H1496 0.929 . S
C1517 C1515 1.446 . S
C1517 C1518 1.332 . S
C1518 H1498 0.931 . S
C1518 C1517 1.332 . S
C1518 C1519 1.267 . S
C1519 H1487 0.929 . S
C1519 C1518 1.267 . S
C1519 C1520 1.251 . S
C1520 H1490 0.929 . S
C1520 N1516 1.418 . S
C1520 C1519 1.251 . S
C1521 H1488 0.930 . S
C1521 C1523 1.406 . S
C1521 C1526 1.261 . S
C1522 H1489 0.930 . S
C1522 N1524 1.325 . S
C1522 C1525 1.357 . S
C1523 H1491 0.928 . S
C1523 C1521 1.406 . S
C1523 N1524 1.261 . S
N1524 Co1475 2.214 . S
N1524 C1522 1.325 . S
N1524 C1523 1.261 . S
C1525 H1495 0.931 . S
C1525 C1522 1.357 . S
C1525 C1526 1.312 . S
C1526 H1497 0.930 . S
C1526 C1521 1.261 . S
C1526 C1525 1.312 . S
C1527 O1499 1.214 . S
C1527 O1507 1.234 . S
C1528 H1500 0.929 . S
C1528 C1531 1.391 . S
C1528 C1533 1.391 . S
C1529 H1501 0.929 . S
C1529 C1530 1.390 . S
C1529 N1532 1.391 . S
C1530 H1502 0.930 . S
C1530 C1529 1.390 . S
C1530 C1531 1.392 . S
C1531 H1503 0.929 . S
C1531 C1528 1.391 . S
C1531 C1530 1.392 . S
N1532 Co1476 2.257 . S
N1532 C1529 1.391 . S
N1532 C1533 1.388 . S
C1533 H1504 0.930 . S
C1533 C1528 1.391 . S
C1533 N1532 1.388 . S
Co1534 O1536 2.143 . S
Co1534 O1542 2.074 . S
Co1534 O1545 2.093 . S
Co1534 O1558 2.097 . S
Co1534 N1575 2.151 . S
Co1534 N1583 2.214 . S
Co1535 O1536 2.160 . S
Co1535 O1541 2.058 . S
Co1535 O1551 2.057 . S
Co1535 O1566 2.037 . S
Co1535 N1570 2.145 . S
Co1535 N1591 2.257 . S
O1536 Co1534 2.143 . S
O1536 Co1535 2.160 . S
C1537 O1538 1.278 . S
C1537 O1545 1.224 . S
O1538 C1537 1.278 . S
C1539 O1540 1.245 . S
C1539 O1551 1.232 . S
O1540 C1539 1.245 . S
O1541 Co1535 2.058 . S
O1541 C1567 1.269 . S
O1542 Co1534 2.074 . S
O1542 C1567 1.257 . S
H1543 C1568 0.930 . S
H1544 C1574 0.930 . S
O1545 Co1534 2.093 . S
O1545 C1537 1.224 . S
H1546 C1578 0.929 . S
H1547 C1580 0.930 . S
H1548 C1581 0.930 . S
H1549 C1579 0.929 . S
H1550 C1582 0.928 . S
O1551 Co1535 2.057 . S
O1551 C1539 1.232 . S
H1552 C1571 0.929 . S
H1553 C1572 0.929 . S
H1554 C1584 0.931 . S
H1555 C1576 0.929 . S
H1556 C1585 0.930 . S
H1557 C1577 0.931 . S
O1558 Co1534 2.097 . S
O1558 C1586 1.214 . S
H1559 C1587 0.929 . S
H1560 C1588 0.929 . S
H1561 C1589 0.930 . S
H1562 C1590 0.929 . S
H1563 C1592 0.930 . S
H1564 C1569 0.930 . S
H1565 C1573 0.930 . S
O1566 Co1535 2.037 . S
O1566 C1586 1.234 . S
C1567 O1541 1.269 . S
C1567 O1542 1.257 . S
C1568 H1543 0.930 . S
C1568 C1571 1.388 . S
C1568 C1573 1.418 . S
C1569 H1564 0.930 . S
C1569 C1572 1.404 . S
C1569 C1573 1.353 . S
N1570 Co1535 2.145 . S
N1570 C1571 1.397 . S
N1570 C1572 1.334 . S
C1571 H1552 0.929 . S
C1571 C1568 1.388 . S
C1571 N1570 1.397 . S
C1572 H1553 0.929 . S
C1572 C1569 1.404 . S
C1572 N1570 1.334 . S
C1573 H1565 0.930 . S
C1573 C1568 1.418 . S
C1573 C1569 1.353 . S
C1574 H1544 0.930 . S
C1574 N1575 1.330 . S
C1574 C1576 1.446 . S
N1575 Co1534 2.151 . S
N1575 C1574 1.330 . S
N1575 C1579 1.418 . S
C1576 H1555 0.929 . S
C1576 C1574 1.446 . S
C1576 C1577 1.332 . S
C1577 H1557 0.931 . S
C1577 C1576 1.332 . S
C1577 C1578 1.267 . S
C1578 H1546 0.929 . S
C1578 C1577 1.267 . S
C1578 C1579 1.251 . S
C1579 H1549 0.929 . S
C1579 N1575 1.418 . S
C1579 C1578 1.251 . S
C1580 H1547 0.930 . S
C1580 C1582 1.406 . S
C1580 C1585 1.261 . S
C1581 H1548 0.930 . S
C1581 N1583 1.325 . S
C1581 C1584 1.357 . S
C1582 H1550 0.928 . S
C1582 C1580 1.406 . S
C1582 N1583 1.261 . S
N1583 Co1534 2.214 . S
N1583 C1581 1.325 . S
N1583 C1582 1.261 . S
C1584 H1554 0.931 . S
C1584 C1581 1.357 . S
C1584 C1585 1.312 . S
C1585 H1556 0.930 . S
C1585 C1580 1.261 . S
C1585 C1584 1.312 . S
C1586 O1558 1.214 . S
C1586 O1566 1.234 . S
C1587 H1559 0.929 . S
C1587 C1590 1.391 . S
C1587 C1592 1.391 . S
C1588 H1560 0.929 . S
C1588 C1589 1.390 . S
C1588 N1591 1.391 . S
C1589 H1561 0.930 . S
C1589 C1588 1.390 . S
C1589 C1590 1.392 . S
C1590 H1562 0.929 . S
C1590 C1587 1.391 . S
C1590 C1589 1.392 . S
N1591 Co1535 2.257 . S
N1591 C1588 1.391 . S
N1591 C1592 1.388 . S
C1592 H1563 0.930 . S
C1592 C1587 1.391 . S
C1592 N1591 1.388 . S
Co1593 O1595 2.143 . S
Co1593 O1601 2.074 . S
Co1593 O1604 2.093 . S
Co1593 O1617 2.097 1_554 S
Co1593 N1634 2.151 . S
Co1593 N1642 2.214 . S
Co1594 O1595 2.160 . S
Co1594 O1600 2.058 . S
Co1594 O1610 2.057 . S
Co1594 O1625 2.037 1_554 S
Co1594 N1629 2.145 . S
Co1594 N1650 2.257 . S
O1595 Co1593 2.143 . S
O1595 Co1594 2.160 . S
C1596 O1597 1.278 . S
C1596 O1604 1.224 . S
O1597 C1596 1.278 . S
C1598 O1599 1.245 . S
C1598 O1610 1.232 . S
O1599 C1598 1.245 . S
O1600 Co1594 2.058 . S
O1600 C1626 1.269 . S
O1601 Co1593 2.074 . S
O1601 C1626 1.257 . S
H1602 C1627 0.930 . S
H1603 C1633 0.930 . S
O1604 Co1593 2.093 . S
O1604 C1596 1.224 . S
H1605 C1637 0.929 . S
H1606 C1639 0.930 . S
H1607 C1640 0.930 . S
H1608 C1638 0.929 . S
H1609 C1641 0.928 . S
O1610 Co1594 2.057 . S
O1610 C1598 1.232 . S
H1611 C1630 0.929 . S
H1612 C1631 0.929 . S
H1613 C1643 0.931 . S
H1614 C1635 0.929 . S
H1615 C1644 0.930 . S
H1616 C1636 0.931 . S
O1617 Co1593 2.097 1_556 S
O1617 C1645 1.214 . S
H1618 C1646 0.929 . S
H1619 C1647 0.929 . S
H1620 C1648 0.930 . S
H1621 C1649 0.929 . S
H1622 C1651 0.929 1_565 S
H1623 C1628 0.930 . S
H1624 C1632 0.930 . S
O1625 Co1594 2.037 1_556 S
O1625 C1645 1.234 . S
C1626 O1600 1.269 . S
C1626 O1601 1.257 . S
C1627 H1602 0.930 . S
C1627 C1630 1.388 . S
C1627 C1632 1.418 1_565 S
C1628 H1623 0.930 . S
C1628 C1631 1.404 . S
C1628 C1632 1.353 1_554 S
N1629 Co1594 2.145 . S
N1629 C1630 1.397 1_554 S
N1629 C1631 1.334 1_565 S
C1630 H1611 0.929 . S
C1630 C1627 1.388 . S
C1630 N1629 1.397 1_556 S
C1631 H1612 0.929 . S
C1631 C1628 1.404 . S
C1631 N1629 1.334 1_545 S
C1632 H1624 0.930 . S
C1632 C1627 1.418 1_545 S
C1632 C1628 1.353 1_556 S
C1633 H1603 0.930 . S
C1633 N1634 1.330 . S
C1633 C1635 1.446 . S
N1634 Co1593 2.151 . S
N1634 C1633 1.330 . S
N1634 C1638 1.418 . S
C1635 H1614 0.929 . S
C1635 C1633 1.446 . S
C1635 C1636 1.332 . S
C1636 H1616 0.931 . S
C1636 C1635 1.332 . S
C1636 C1637 1.267 . S
C1637 H1605 0.929 . S
C1637 C1636 1.267 . S
C1637 C1638 1.251 . S
C1638 H1608 0.929 . S
C1638 N1634 1.418 . S
C1638 C1637 1.251 . S
C1639 H1606 0.930 . S
C1639 C1641 1.406 . S
C1639 C1644 1.261 . S
C1640 H1607 0.930 . S
C1640 N1642 1.325 . S
C1640 C1643 1.357 1_554 S
C1641 H1609 0.928 . S
C1641 C1639 1.406 . S
C1641 N1642 1.261 . S
N1642 Co1593 2.214 . S
N1642 C1640 1.325 . S
N1642 C1641 1.261 . S
C1643 H1613 0.931 . S
C1643 C1640 1.357 1_556 S
C1643 C1644 1.312 1_556 S
C1644 H1615 0.930 . S
C1644 C1639 1.261 . S
C1644 C1643 1.312 1_554 S
C1645 O1617 1.214 . S
C1645 O1625 1.234 . S
C1646 H1618 0.929 . S
C1646 C1649 1.391 1_554 S
C1646 C1651 1.391 . S
C1647 H1619 0.929 . S
C1647 C1648 1.390 1_565 S
C1647 N1650 1.391 1_556 S
C1648 H1620 0.930 . S
C1648 C1647 1.390 1_545 S
C1648 C1649 1.392 . S
C1649 H1621 0.929 . S
C1649 C1646 1.391 1_556 S
C1649 C1648 1.392 . S
N1650 Co1594 2.257 . S
N1650 C1647 1.391 1_554 S
N1650 C1651 1.388 1_565 S
C1651 H1622 0.929 1_545 S
C1651 C1646 1.391 . S
C1651 N1650 1.388 1_545 S
Co1652 O1654 2.143 . S
Co1652 O1660 2.074 . S
Co1652 O1663 2.093 . S
Co1652 O1676 2.097 1_554 S
Co1652 N1693 2.151 . S
Co1652 N1701 2.214 . S
Co1653 O1654 2.160 . S
Co1653 O1659 2.058 . S
Co1653 O1669 2.057 . S
Co1653 O1684 2.037 1_554 S
Co1653 N1688 2.145 . S
Co1653 N1709 2.257 . S
O1654 Co1652 2.143 . S
O1654 Co1653 2.160 . S
C1655 O1656 1.278 . S
C1655 O1663 1.224 . S
O1656 C1655 1.278 . S
C1657 O1658 1.245 . S
C1657 O1669 1.232 . S
O1658 C1657 1.245 . S
O1659 Co1653 2.058 . S
O1659 C1685 1.269 . S
O1660 Co1652 2.074 . S
O1660 C1685 1.257 . S
H1661 C1686 0.930 . S
H1662 C1692 0.930 . S
O1663 Co1652 2.093 . S
O1663 C1655 1.224 . S
H1664 C1696 0.929 . S
H1665 C1698 0.930 . S
H1666 C1699 0.930 . S
H1667 C1697 0.929 . S
H1668 C1700 0.928 . S
O1669 Co1653 2.057 . S
O1669 C1657 1.232 . S
H1670 C1689 0.929 . S
H1671 C1690 0.929 . S
H1672 C1702 0.931 . S
H1673 C1694 0.929 . S
H1674 C1703 0.930 . S
H1675 C1695 0.931 . S
O1676 Co1652 2.097 1_556 S
O1676 C1704 1.214 . S
H1677 C1705 0.929 . S
H1678 C1706 0.929 . S
H1679 C1707 0.930 . S
H1680 C1708 0.929 . S
H1681 C1710 0.927 1_455 S
H1682 C1687 0.930 . S
H1683 C1691 0.930 . S
O1684 Co1653 2.037 1_556 S
O1684 C1704 1.234 . S
C1685 O1659 1.269 . S
C1685 O1660 1.257 . S
C1686 H1661 0.930 . S
C1686 C1689 1.388 . S
C1686 C1691 1.418 1_455 S
C1687 H1682 0.930 . S
C1687 C1690 1.404 . S
C1687 C1691 1.353 1_554 S
N1688 Co1653 2.145 . S
N1688 C1689 1.397 1_554 S
N1688 C1690 1.334 1_455 S
C1689 H1670 0.929 . S
C1689 C1686 1.388 . S
C1689 N1688 1.397 1_556 S
C1690 H1671 0.929 . S
C1690 C1687 1.404 . S
C1690 N1688 1.334 1_655 S
C1691 H1683 0.930 . S
C1691 C1686 1.418 1_655 S
C1691 C1687 1.353 1_556 S
C1692 H1662 0.930 . S
C1692 N1693 1.330 . S
C1692 C1694 1.446 . S
N1693 Co1652 2.151 . S
N1693 C1692 1.330 . S
N1693 C1697 1.418 . S
C1694 H1673 0.929 . S
C1694 C1692 1.446 . S
C1694 C1695 1.332 . S
C1695 H1675 0.931 . S
C1695 C1694 1.332 . S
C1695 C1696 1.267 . S
C1696 H1664 0.929 . S
C1696 C1695 1.267 . S
C1696 C1697 1.251 . S
C1697 H1667 0.929 . S
C1697 N1693 1.418 . S
C1697 C1696 1.251 . S
C1698 H1665 0.930 . S
C1698 C1700 1.406 . S
C1698 C1703 1.261 . S
C1699 H1666 0.930 . S
C1699 N1701 1.325 . S
C1699 C1702 1.357 1_554 S
C1700 H1668 0.928 . S
C1700 C1698 1.406 . S
C1700 N1701 1.261 . S
N1701 Co1652 2.214 . S
N1701 C1699 1.325 . S
N1701 C1700 1.261 . S
C1702 H1672 0.931 . S
C1702 C1699 1.357 1_556 S
C1702 C1703 1.312 1_556 S
C1703 H1674 0.930 . S
C1703 C1698 1.261 . S
C1703 C1702 1.312 1_554 S
C1704 O1676 1.214 . S
C1704 O1684 1.234 . S
C1705 H1677 0.929 . S
C1705 C1708 1.391 1_554 S
C1705 C1710 1.391 . S
C1706 H1678 0.929 . S
C1706 C1707 1.390 1_455 S
C1706 N1709 1.391 1_556 S
C1707 H1679 0.930 . S
C1707 C1706 1.390 1_655 S
C1707 C1708 1.392 . S
C1708 H1680 0.929 . S
C1708 C1705 1.391 1_556 S
C1708 C1707 1.392 . S
N1709 Co1653 2.257 . S
N1709 C1706 1.391 1_554 S
N1709 C1710 1.388 1_455 S
C1710 H1681 0.927 1_655 S
C1710 C1705 1.391 . S
C1710 N1709 1.388 1_655 S
Co1711 O1713 2.143 . S
Co1711 O1719 2.074 . S
Co1711 O1722 2.093 . S
Co1711 O1735 2.097 1_554 S
Co1711 N1752 2.151 . S
Co1711 N1760 2.214 . S
Co1712 O1713 2.160 . S
Co1712 O1718 2.058 . S
Co1712 O1728 2.057 . S
Co1712 O1743 2.037 1_554 S
Co1712 N1747 2.145 . S
Co1712 N1768 2.257 . S
O1713 Co1711 2.143 . S
O1713 Co1712 2.160 . S
C1714 O1715 1.278 . S
C1714 O1722 1.224 . S
O1715 C1714 1.278 . S
C1716 O1717 1.245 . S
C1716 O1728 1.232 . S
O1717 C1716 1.245 . S
O1718 Co1712 2.058 . S
O1718 C1744 1.269 . S
O1719 Co1711 2.074 . S
O1719 C1744 1.257 . S
H1720 C1745 0.930 . S
H1721 C1751 0.930 . S
O1722 Co1711 2.093 . S
O1722 C1714 1.224 . S
H1723 C1755 0.929 . S
H1724 C1757 0.930 . S
H1725 C1758 0.930 . S
H1726 C1756 0.929 . S
H1727 C1759 0.928 . S
O1728 Co1712 2.057 . S
O1728 C1716 1.232 . S
H1729 C1748 0.929 . S
H1730 C1749 0.929 . S
H1731 C1761 0.931 . S
H1732 C1753 0.929 . S
H1733 C1762 0.930 . S
H1734 C1754 0.931 . S
O1735 Co1711 2.097 1_556 S
O1735 C1763 1.214 . S
H1736 C1764 0.929 . S
H1737 C1765 0.929 . S
H1738 C1766 0.930 . S
H1739 C1767 0.929 . S
H1740 C1769 0.930 . S
H1741 C1746 0.930 . S
H1742 C1750 0.930 . S
O1743 Co1712 2.037 1_556 S
O1743 C1763 1.234 . S
C1744 O1718 1.269 . S
C1744 O1719 1.257 . S
C1745 H1720 0.930 . S
C1745 C1748 1.388 . S
C1745 C1750 1.418 . S
C1746 H1741 0.930 . S
C1746 C1749 1.404 . S
C1746 C1750 1.353 1_554 S
N1747 Co1712 2.145 . S
N1747 C1748 1.397 1_554 S
N1747 C1749 1.334 . S
C1748 H1729 0.929 . S
C1748 C1745 1.388 . S
C1748 N1747 1.397 1_556 S
C1749 H1730 0.929 . S
C1749 C1746 1.404 . S
C1749 N1747 1.334 . S
C1750 H1742 0.930 . S
C1750 C1745 1.418 . S
C1750 C1746 1.353 1_556 S
C1751 H1721 0.930 . S
C1751 N1752 1.330 . S
C1751 C1753 1.446 . S
N1752 Co1711 2.151 . S
N1752 C1751 1.330 . S
N1752 C1756 1.418 . S
C1753 H1732 0.929 . S
C1753 C1751 1.446 . S
C1753 C1754 1.332 . S
C1754 H1734 0.931 . S
C1754 C1753 1.332 . S
C1754 C1755 1.267 . S
C1755 H1723 0.929 . S
C1755 C1754 1.267 . S
C1755 C1756 1.251 . S
C1756 H1726 0.929 . S
C1756 N1752 1.418 . S
C1756 C1755 1.251 . S
C1757 H1724 0.930 . S
C1757 C1759 1.406 . S
C1757 C1762 1.261 . S
C1758 H1725 0.930 . S
C1758 N1760 1.325 . S
C1758 C1761 1.357 1_554 S
C1759 H1727 0.928 . S
C1759 C1757 1.406 . S
C1759 N1760 1.261 . S
N1760 Co1711 2.214 . S
N1760 C1758 1.325 . S
N1760 C1759 1.261 . S
C1761 H1731 0.931 . S
C1761 C1758 1.357 1_556 S
C1761 C1762 1.312 1_556 S
C1762 H1733 0.930 . S
C1762 C1757 1.261 . S
C1762 C1761 1.312 1_554 S
C1763 O1735 1.214 . S
C1763 O1743 1.234 . S
C1764 H1736 0.929 . S
C1764 C1767 1.391 1_554 S
C1764 C1769 1.391 . S
C1765 H1737 0.929 . S
C1765 C1766 1.390 . S
C1765 N1768 1.391 1_556 S
C1766 H1738 0.930 . S
C1766 C1765 1.390 . S
C1766 C1767 1.392 . S
C1767 H1739 0.929 . S
C1767 C1764 1.391 1_556 S
C1767 C1766 1.392 . S
N1768 Co1712 2.257 . S
N1768 C1765 1.391 1_554 S
N1768 C1769 1.388 . S
C1769 H1740 0.930 . S
C1769 C1764 1.391 . S
C1769 N1768 1.388 . S
Co1770 O1772 2.143 . S
Co1770 O1778 2.074 . S
Co1770 O1781 2.093 . S
Co1770 O1794 2.097 . S
Co1770 N1811 2.151 . S
Co1770 N1819 2.214 . S
Co1771 O1772 2.160 . S
Co1771 O1777 2.058 . S
Co1771 O1787 2.057 . S
Co1771 O1802 2.037 . S
Co1771 N1806 2.145 . S
Co1771 N1827 2.257 . S
O1772 Co1770 2.143 . S
O1772 Co1771 2.160 . S
C1773 O1774 1.278 . S
C1773 O1781 1.224 . S
O1774 C1773 1.278 . S
C1775 O1776 1.245 . S
C1775 O1787 1.232 . S
O1776 C1775 1.245 . S
O1777 Co1771 2.058 . S
O1777 C1803 1.269 . S
O1778 Co1770 2.074 . S
O1778 C1803 1.257 . S
H1779 C1804 0.930 . S
H1780 C1810 0.930 . S
O1781 Co1770 2.093 . S
O1781 C1773 1.224 . S
H1782 C1814 0.929 . S
H1783 C1816 0.930 . S
H1784 C1817 0.930 . S
H1785 C1815 0.929 . S
H1786 C1818 0.928 . S
O1787 Co1771 2.057 . S
O1787 C1775 1.232 . S
H1788 C1807 0.929 . S
H1789 C1808 0.929 . S
H1790 C1820 0.931 . S
H1791 C1812 0.929 . S
H1792 C1821 0.930 . S
H1793 C1813 0.931 . S
O1794 Co1770 2.097 . S
O1794 C1822 1.214 . S
H1795 C1823 0.929 . S
H1796 C1824 0.929 . S
H1797 C1825 0.930 . S
H1798 C1826 0.929 . S
H1799 C1828 0.929 1_455 S
H1800 C1805 0.930 . S
H1801 C1809 0.930 . S
O1802 Co1771 2.037 . S
O1802 C1822 1.234 . S
C1803 O1777 1.269 . S
C1803 O1778 1.257 . S
C1804 H1779 0.930 . S
C1804 C1807 1.388 . S
C1804 C1809 1.418 1_455 S
C1805 H1800 0.930 . S
C1805 C1808 1.404 . S
C1805 C1809 1.353 . S
N1806 Co1771 2.145 . S
N1806 C1807 1.397 . S
N1806 C1808 1.334 1_455 S
C1807 H1788 0.929 . S
C1807 C1804 1.388 . S
C1807 N1806 1.397 . S
C1808 H1789 0.929 . S
C1808 C1805 1.404 . S
C1808 N1806 1.334 1_655 S
C1809 H1801 0.930 . S
C1809 C1804 1.418 1_655 S
C1809 C1805 1.353 . S
C1810 H1780 0.930 . S
C1810 N1811 1.330 . S
C1810 C1812 1.446 . S
N1811 Co1770 2.151 . S
N1811 C1810 1.330 . S
N1811 C1815 1.418 . S
C1812 H1791 0.929 . S
C1812 C1810 1.446 . S
C1812 C1813 1.332 . S
C1813 H1793 0.931 . S
C1813 C1812 1.332 . S
C1813 C1814 1.267 . S
C1814 H1782 0.929 . S
C1814 C1813 1.267 . S
C1814 C1815 1.251 . S
C1815 H1785 0.929 . S
C1815 N1811 1.418 . S
C1815 C1814 1.251 . S
C1816 H1783 0.930 . S
C1816 C1818 1.406 . S
C1816 C1821 1.261 . S
C1817 H1784 0.930 . S
C1817 N1819 1.325 . S
C1817 C1820 1.357 . S
C1818 H1786 0.928 . S
C1818 C1816 1.406 . S
C1818 N1819 1.261 . S
N1819 Co1770 2.214 . S
N1819 C1817 1.325 . S
N1819 C1818 1.261 . S
C1820 H1790 0.931 . S
C1820 C1817 1.357 . S
C1820 C1821 1.312 . S
C1821 H1792 0.930 . S
C1821 C1816 1.261 . S
C1821 C1820 1.312 . S
C1822 O1794 1.214 . S
C1822 O1802 1.234 . S
C1823 H1795 0.929 . S
C1823 C1826 1.391 . S
C1823 C1828 1.391 . S
C1824 H1796 0.929 . S
C1824 C1825 1.390 1_455 S
C1824 N1827 1.391 . S
C1825 H1797 0.930 . S
C1825 C1824 1.390 1_655 S
C1825 C1826 1.392 . S
C1826 H1798 0.929 . S
C1826 C1823 1.391 . S
C1826 C1825 1.392 . S
N1827 Co1771 2.257 . S
N1827 C1824 1.391 . S
N1827 C1828 1.388 1_455 S
C1828 H1799 0.929 1_655 S
C1828 C1823 1.391 . S
C1828 N1827 1.388 1_655 S
Co1829 O1831 2.143 . S
Co1829 O1837 2.074 . S
Co1829 O1840 2.093 . S
Co1829 O1853 2.097 . S
Co1829 N1870 2.151 . S
Co1829 N1878 2.214 . S
Co1830 O1831 2.160 . S
Co1830 O1836 2.058 . S
Co1830 O1846 2.057 . S
Co1830 O1861 2.037 . S
Co1830 N1865 2.145 . S
Co1830 N1886 2.257 . S
O1831 Co1829 2.143 . S
O1831 Co1830 2.160 . S
C1832 O1833 1.278 . S
C1832 O1840 1.224 . S
O1833 C1832 1.278 . S
C1834 O1835 1.245 . S
C1834 O1846 1.232 . S
O1835 C1834 1.245 . S
O1836 Co1830 2.058 . S
O1836 C1862 1.269 . S
O1837 Co1829 2.074 . S
O1837 C1862 1.257 . S
H1838 C1863 0.930 . S
H1839 C1869 0.930 . S
O1840 Co1829 2.093 . S
O1840 C1832 1.224 . S
H1841 C1873 0.929 . S
H1842 C1875 0.930 . S
H1843 C1876 0.930 . S
H1844 C1874 0.929 . S
H1845 C1877 0.928 . S
O1846 Co1830 2.057 . S
O1846 C1834 1.232 . S
H1847 C1866 0.929 . S
H1848 C1867 0.929 . S
H1849 C1879 0.931 . S
H1850 C1871 0.929 . S
H1851 C1880 0.930 . S
H1852 C1872 0.931 . S
O1853 Co1829 2.097 . S
O1853 C1881 1.214 . S
H1854 C1882 0.929 . S
H1855 C1883 0.929 . S
H1856 C1884 0.930 . S
H1857 C1885 0.929 . S
H1858 C1887 0.930 . S
H1859 C1864 0.930 . S
H1860 C1868 0.930 . S
O1861 Co1830 2.037 . S
O1861 C1881 1.234 . S
C1862 O1836 1.269 . S
C1862 O1837 1.257 . S
C1863 H1838 0.930 . S
C1863 C1866 1.388 . S
C1863 C1868 1.418 . S
C1864 H1859 0.930 . S
C1864 C1867 1.404 . S
C1864 C1868 1.353 . S
N1865 Co1830 2.145 . S
N1865 C1866 1.397 . S
N1865 C1867 1.334 . S
C1866 H1847 0.929 . S
C1866 C1863 1.388 . S
C1866 N1865 1.397 . S
C1867 H1848 0.929 . S
C1867 C1864 1.404 . S
C1867 N1865 1.334 . S
C1868 H1860 0.930 . S
C1868 C1863 1.418 . S
C1868 C1864 1.353 . S
C1869 H1839 0.930 . S
C1869 N1870 1.330 . S
C1869 C1871 1.446 . S
N1870 Co1829 2.151 . S
N1870 C1869 1.330 . S
N1870 C1874 1.418 . S
C1871 H1850 0.929 . S
C1871 C1869 1.446 . S
C1871 C1872 1.332 . S
C1872 H1852 0.931 . S
C1872 C1871 1.332 . S
C1872 C1873 1.267 . S
C1873 H1841 0.929 . S
C1873 C1872 1.267 . S
C1873 C1874 1.251 . S
C1874 H1844 0.929 . S
C1874 N1870 1.418 . S
C1874 C1873 1.251 . S
C1875 H1842 0.930 . S
C1875 C1877 1.406 . S
C1875 C1880 1.261 . S
C1876 H1843 0.930 . S
C1876 N1878 1.325 . S
C1876 C1879 1.357 . S
C1877 H1845 0.928 . S
C1877 C1875 1.406 . S
C1877 N1878 1.261 . S
N1878 Co1829 2.214 . S
N1878 C1876 1.325 . S
N1878 C1877 1.261 . S
C1879 H1849 0.931 . S
C1879 C1876 1.357 . S
C1879 C1880 1.312 . S
C1880 H1851 0.930 . S
C1880 C1875 1.261 . S
C1880 C1879 1.312 . S
C1881 O1853 1.214 . S
C1881 O1861 1.234 . S
C1882 H1854 0.929 . S
C1882 C1885 1.391 . S
C1882 C1887 1.391 . S
C1883 H1855 0.929 . S
C1883 C1884 1.390 . S
C1883 N1886 1.391 . S
C1884 H1856 0.930 . S
C1884 C1883 1.390 . S
C1884 C1885 1.392 . S
C1885 H1857 0.929 . S
C1885 C1882 1.391 . S
C1885 C1884 1.392 . S
N1886 Co1830 2.257 . S
N1886 C1883 1.391 . S
N1886 C1887 1.388 . S
C1887 H1858 0.930 . S
C1887 C1882 1.391 . S
C1887 N1886 1.388 . S
Co1888 O1890 2.143 . S
Co1888 O1896 2.074 . S
Co1888 O1899 2.093 . S
Co1888 O1912 2.097 . S
Co1888 N1929 2.151 . S
Co1888 N1937 2.214 . S
Co1889 O1890 2.160 . S
Co1889 O1895 2.058 . S
Co1889 O1905 2.057 . S
Co1889 O1920 2.037 . S
Co1889 N1924 2.145 . S
Co1889 N1945 2.257 . S
O1890 Co1888 2.143 . S
O1890 Co1889 2.160 . S
C1891 O1892 1.278 . S
C1891 O1899 1.224 . S
O1892 C1891 1.278 . S
C1893 O1894 1.245 . S
C1893 O1905 1.232 . S
O1894 C1893 1.245 . S
O1895 Co1889 2.058 . S
O1895 C1921 1.269 . S
O1896 Co1888 2.074 . S
O1896 C1921 1.257 . S
H1897 C1922 0.930 . S
H1898 C1928 0.930 . S
O1899 Co1888 2.093 . S
O1899 C1891 1.224 . S
H1900 C1932 0.929 . S
H1901 C1934 0.930 . S
H1902 C1935 0.930 . S
H1903 C1933 0.929 . S
H1904 C1936 0.928 . S
O1905 Co1889 2.057 . S
O1905 C1893 1.232 . S
H1906 C1925 0.929 . S
H1907 C1926 0.929 . S
H1908 C1938 0.931 . S
H1909 C1930 0.929 . S
H1910 C1939 0.930 . S
H1911 C1931 0.931 . S
O1912 Co1888 2.097 . S
O1912 C1940 1.214 . S
H1913 C1941 0.929 . S
H1914 C1942 0.929 . S
H1915 C1943 0.930 . S
H1916 C1944 0.929 . S
H1917 C1946 0.927 1_565 S
H1918 C1923 0.930 . S
H1919 C1927 0.930 . S
O1920 Co1889 2.037 . S
O1920 C1940 1.234 . S
C1921 O1895 1.269 . S
C1921 O1896 1.257 . S
C1922 H1897 0.930 . S
C1922 C1925 1.388 . S
C1922 C1927 1.418 1_565 S
C1923 H1918 0.930 . S
C1923 C1926 1.404 . S
C1923 C1927 1.353 . S
N1924 Co1889 2.145 . S
N1924 C1925 1.397 . S
N1924 C1926 1.334 1_565 S
C1925 H1906 0.929 . S
C1925 C1922 1.388 . S
C1925 N1924 1.397 . S
C1926 H1907 0.929 . S
C1926 C1923 1.404 . S
C1926 N1924 1.334 1_545 S
C1927 H1919 0.930 . S
C1927 C1922 1.418 1_545 S
C1927 C1923 1.353 . S
C1928 H1898 0.930 . S
C1928 N1929 1.330 . S
C1928 C1930 1.446 . S
N1929 Co1888 2.151 . S
N1929 C1928 1.330 . S
N1929 C1933 1.418 . S
C1930 H1909 0.929 . S
C1930 C1928 1.446 . S
C1930 C1931 1.332 . S
C1931 H1911 0.931 . S
C1931 C1930 1.332 . S
C1931 C1932 1.267 . S
C1932 H1900 0.929 . S
C1932 C1931 1.267 . S
C1932 C1933 1.251 . S
C1933 H1903 0.929 . S
C1933 N1929 1.418 . S
C1933 C1932 1.251 . S
C1934 H1901 0.930 . S
C1934 C1936 1.406 . S
C1934 C1939 1.261 . S
C1935 H1902 0.930 . S
C1935 N1937 1.325 . S
C1935 C1938 1.357 . S
C1936 H1904 0.928 . S
C1936 C1934 1.406 . S
C1936 N1937 1.261 . S
N1937 Co1888 2.214 . S
N1937 C1935 1.325 . S
N1937 C1936 1.261 . S
C1938 H1908 0.931 . S
C1938 C1935 1.357 . S
C1938 C1939 1.312 . S
C1939 H1910 0.930 . S
C1939 C1934 1.261 . S
C1939 C1938 1.312 . S
C1940 O1912 1.214 . S
C1940 O1920 1.234 . S
C1941 H1913 0.929 . S
C1941 C1944 1.391 . S
C1941 C1946 1.391 . S
C1942 H1914 0.929 . S
C1942 C1943 1.390 1_565 S
C1942 N1945 1.391 . S
C1943 H1915 0.930 . S
C1943 C1942 1.390 1_545 S
C1943 C1944 1.392 . S
C1944 H1916 0.929 . S
C1944 C1941 1.391 . S
C1944 C1943 1.392 . S
N1945 Co1889 2.257 . S
N1945 C1942 1.391 . S
N1945 C1946 1.388 1_565 S
C1946 H1917 0.927 1_545 S
C1946 C1941 1.391 . S
C1946 N1945 1.388 1_545 S
Co1947 O1949 2.143 . S
Co1947 O1955 2.074 . S
Co1947 O1958 2.093 . S
Co1947 O1971 2.097 . S
Co1947 N1988 2.151 . S
Co1947 N1996 2.214 . S
Co1948 O1949 2.160 . S
Co1948 O1954 2.058 . S
Co1948 O1964 2.057 . S
Co1948 O1979 2.037 . S
Co1948 N1983 2.145 . S
Co1948 N2004 2.257 . S
O1949 Co1947 2.143 . S
O1949 Co1948 2.160 . S
C1950 O1951 1.278 . S
C1950 O1958 1.224 . S
O1951 C1950 1.278 . S
C1952 O1953 1.245 . S
C1952 O1964 1.232 . S
O1953 C1952 1.245 . S
O1954 Co1948 2.058 . S
O1954 C1980 1.269 . S
O1955 Co1947 2.074 . S
O1955 C1980 1.257 . S
H1956 C1981 0.930 . S
H1957 C1987 0.930 . S
O1958 Co1947 2.093 . S
O1958 C1950 1.224 . S
H1959 C1991 0.929 1_556 S
H1960 C1993 0.930 . S
H1961 C1994 0.930 . S
H1962 C1992 0.929 . S
H1963 C1995 0.928 . S
O1964 Co1948 2.057 . S
O1964 C1952 1.232 . S
H1965 C1984 0.929 . S
H1966 C1985 0.929 1_455 S
H1967 C1997 0.931 . S
H1968 C1989 0.929 . S
H1969 C1998 0.930 . S
H1970 C1990 0.931 . S
O1971 Co1947 2.097 . S
O1971 C1999 1.214 . S
H1972 C2000 0.929 . S
H1973 C2001 0.929 . S
H1974 C2002 0.930 . S
H1975 C2003 0.929 . S
H1976 C2005 0.930 . S
H1977 C1982 0.930 . S
H1978 C1986 0.930 . S
O1979 Co1948 2.037 . S
O1979 C1999 1.234 . S
C1980 O1954 1.269 . S
C1980 O1955 1.257 . S
C1981 H1956 0.930 . S
C1981 C1984 1.388 1_655 S
C1981 C1986 1.418 . S
C1982 H1977 0.930 . S
C1982 C1985 1.404 . S
C1982 C1986 1.353 . S
N1983 Co1948 2.145 . S
N1983 C1984 1.397 . S
N1983 C1985 1.334 1_455 S
C1984 H1965 0.929 . S
C1984 C1981 1.388 1_455 S
C1984 N1983 1.397 . S
C1985 H1966 0.929 1_655 S
C1985 C1982 1.404 . S
C1985 N1983 1.334 1_655 S
C1986 H1978 0.930 . S
C1986 C1981 1.418 . S
C1986 C1982 1.353 . S
C1987 H1957 0.930 . S
C1987 N1988 1.330 . S
C1987 C1989 1.446 1_554 S
N1988 Co1947 2.151 . S
N1988 C1987 1.330 . S
N1988 C1992 1.418 . S
C1989 H1968 0.929 . S
C1989 C1987 1.446 1_556 S
C1989 C1990 1.332 . S
C1990 H1970 0.931 . S
C1990 C1989 1.332 . S
C1990 C1991 1.267 1_556 S
C1991 H1959 0.929 1_554 S
C1991 C1990 1.267 1_554 S
C1991 C1992 1.251 . S
C1992 H1962 0.929 . S
C1992 N1988 1.418 . S
C1992 C1991 1.251 . S
C1993 H1960 0.930 . S
C1993 C1995 1.406 . S
C1993 C1998 1.261 . S
C1994 H1961 0.930 . S
C1994 N1996 1.325 . S
C1994 C1997 1.357 . S
C1995 H1963 0.928 . S
C1995 C1993 1.406 . S
C1995 N1996 1.261 . S
N1996 Co1947 2.214 . S
N1996 C1994 1.325 . S
N1996 C1995 1.261 . S
C1997 H1967 0.931 . S
C1997 C1994 1.357 . S
C1997 C1998 1.312 . S
C1998 H1969 0.930 . S
C1998 C1993 1.261 . S
C1998 C1997 1.312 . S
C1999 O1971 1.214 . S
C1999 O1979 1.234 . S
C2000 H1972 0.929 . S
C2000 C2003 1.391 . S
C2000 C2005 1.391 . S
C2001 H1973 0.929 . S
C2001 C2002 1.390 . S
C2001 N2004 1.391 . S
C2002 H1974 0.930 . S
C2002 C2001 1.390 . S
C2002 C2003 1.392 . S
C2003 H1975 0.929 . S
C2003 C2000 1.391 . S
C2003 C2002 1.392 . S
N2004 Co1948 2.257 . S
N2004 C2001 1.391 . S
N2004 C2005 1.388 . S
C2005 H1976 0.930 . S
C2005 C2000 1.391 . S
C2005 N2004 1.388 . S
Co2006 O2008 2.143 . S
Co2006 O2014 2.074 . S
Co2006 O2017 2.093 . S
Co2006 O2030 2.097 . S
Co2006 N2047 2.151 . S
Co2006 N2055 2.214 . S
Co2007 O2008 2.160 . S
Co2007 O2013 2.058 . S
Co2007 O2023 2.057 . S
Co2007 O2038 2.037 . S
Co2007 N2042 2.145 . S
Co2007 N2063 2.257 . S
O2008 Co2006 2.143 . S
O2008 Co2007 2.160 . S
C2009 O2010 1.278 . S
C2009 O2017 1.224 . S
O2010 C2009 1.278 . S
C2011 O2012 1.245 . S
C2011 O2023 1.232 . S
O2012 C2011 1.245 . S
O2013 Co2007 2.058 . S
O2013 C2039 1.269 . S
O2014 Co2006 2.074 . S
O2014 C2039 1.257 . S
H2015 C2040 0.930 . S
H2016 C2046 0.930 . S
O2017 Co2006 2.093 . S
O2017 C2009 1.224 . S
H2018 C2050 0.929 1_556 S
H2019 C2052 0.930 . S
H2020 C2053 0.930 . S
H2021 C2051 0.929 . S
H2022 C2054 0.928 . S
O2023 Co2007 2.057 . S
O2023 C2011 1.232 . S
H2024 C2043 0.929 . S
H2025 C2044 0.929 . S
H2026 C2056 0.931 . S
H2027 C2048 0.929 . S
H2028 C2057 0.930 . S
H2029 C2049 0.931 . S
O2030 Co2006 2.097 . S
O2030 C2058 1.214 . S
H2031 C2059 0.929 . S
H2032 C2060 0.929 . S
H2033 C2061 0.930 . S
H2034 C2062 0.929 . S
H2035 C2064 0.930 . S
H2036 C2041 0.930 . S
H2037 C2045 0.930 . S
O2038 Co2007 2.037 . S
O2038 C2058 1.234 . S
C2039 O2013 1.269 . S
C2039 O2014 1.257 . S
C2040 H2015 0.930 . S
C2040 C2043 1.388 . S
C2040 C2045 1.418 . S
C2041 H2036 0.930 . S
C2041 C2044 1.404 . S
C2041 C2045 1.353 . S
N2042 Co2007 2.145 . S
N2042 C2043 1.397 . S
N2042 C2044 1.334 . S
C2043 H2024 0.929 . S
C2043 C2040 1.388 . S
C2043 N2042 1.397 . S
C2044 H2025 0.929 . S
C2044 C2041 1.404 . S
C2044 N2042 1.334 . S
C2045 H2037 0.930 . S
C2045 C2040 1.418 . S
C2045 C2041 1.353 . S
C2046 H2016 0.930 . S
C2046 N2047 1.330 . S
C2046 C2048 1.446 1_554 S
N2047 Co2006 2.151 . S
N2047 C2046 1.330 . S
N2047 C2051 1.418 . S
C2048 H2027 0.929 . S
C2048 C2046 1.446 1_556 S
C2048 C2049 1.332 . S
C2049 H2029 0.931 . S
C2049 C2048 1.332 . S
C2049 C2050 1.267 1_556 S
C2050 H2018 0.929 1_554 S
C2050 C2049 1.267 1_554 S
C2050 C2051 1.251 . S
C2051 H2021 0.929 . S
C2051 N2047 1.418 . S
C2051 C2050 1.251 . S
C2052 H2019 0.930 . S
C2052 C2054 1.406 . S
C2052 C2057 1.261 . S
C2053 H2020 0.930 . S
C2053 N2055 1.325 . S
C2053 C2056 1.357 . S
C2054 H2022 0.928 . S
C2054 C2052 1.406 . S
C2054 N2055 1.261 . S
N2055 Co2006 2.214 . S
N2055 C2053 1.325 . S
N2055 C2054 1.261 . S
C2056 H2026 0.931 . S
C2056 C2053 1.357 . S
C2056 C2057 1.312 . S
C2057 H2028 0.930 . S
C2057 C2052 1.261 . S
C2057 C2056 1.312 . S
C2058 O2030 1.214 . S
C2058 O2038 1.234 . S
C2059 H2031 0.929 . S
C2059 C2062 1.391 . S
C2059 C2064 1.391 . S
C2060 H2032 0.929 . S
C2060 C2061 1.390 . S
C2060 N2063 1.391 . S
C2061 H2033 0.930 . S
C2061 C2060 1.390 . S
C2061 C2062 1.392 . S
C2062 H2034 0.929 . S
C2062 C2059 1.391 . S
C2062 C2061 1.392 . S
N2063 Co2007 2.257 . S
N2063 C2060 1.391 . S
N2063 C2064 1.388 . S
C2064 H2035 0.930 . S
C2064 C2059 1.391 . S
C2064 N2063 1.388 . S
Co2065 O2067 2.143 . S
Co2065 O2073 2.074 . S
Co2065 O2076 2.093 . S
Co2065 O2089 2.097 . S
Co2065 N2106 2.151 . S
Co2065 N2114 2.214 . S
Co2066 O2067 2.160 . S
Co2066 O2072 2.058 . S
Co2066 O2082 2.057 . S
Co2066 O2097 2.037 . S
Co2066 N2101 2.145 . S
Co2066 N2122 2.257 . S
O2067 Co2065 2.143 . S
O2067 Co2066 2.160 . S
C2068 O2069 1.278 . S
C2068 O2076 1.224 . S
O2069 C2068 1.278 . S
C2070 O2071 1.245 . S
C2070 O2082 1.232 . S
O2071 C2070 1.245 . S
O2072 Co2066 2.058 . S
O2072 C2098 1.269 . S
O2073 Co2065 2.074 . S
O2073 C2098 1.257 . S
H2074 C2099 0.930 . S
H2075 C2105 0.930 . S
O2076 Co2065 2.093 . S
O2076 C2068 1.224 . S
H2077 C2109 0.929 1_556 S
H2078 C2111 0.930 . S
H2079 C2112 0.930 . S
H2080 C2110 0.929 . S
H2081 C2113 0.928 . S
O2082 Co2066 2.057 . S
O2082 C2070 1.232 . S
H2083 C2102 0.929 . S
H2084 C2103 0.929 1_565 S
H2085 C2115 0.931 . S
H2086 C2107 0.929 . S
H2087 C2116 0.930 . S
H2088 C2108 0.931 . S
O2089 Co2065 2.097 . S
O2089 C2117 1.214 . S
H2090 C2118 0.929 . S
H2091 C2119 0.929 . S
H2092 C2120 0.930 . S
H2093 C2121 0.929 . S
H2094 C2123 0.930 . S
H2095 C2100 0.930 . S
H2096 C2104 0.930 . S
O2097 Co2066 2.037 . S
O2097 C2117 1.234 . S
C2098 O2072 1.269 . S
C2098 O2073 1.257 . S
C2099 H2074 0.930 . S
C2099 C2102 1.388 1_545 S
C2099 C2104 1.418 . S
C2100 H2095 0.930 . S
C2100 C2103 1.404 . S
C2100 C2104 1.353 . S
N2101 Co2066 2.145 . S
N2101 C2102 1.397 . S
N2101 C2103 1.334 1_565 S
C2102 H2083 0.929 . S
C2102 C2099 1.388 1_565 S
C2102 N2101 1.397 . S
C2103 H2084 0.929 1_545 S
C2103 C2100 1.404 . S
C2103 N2101 1.334 1_545 S
C2104 H2096 0.930 . S
C2104 C2099 1.418 . S
C2104 C2100 1.353 . S
C2105 H2075 0.930 . S
C2105 N2106 1.330 . S
C2105 C2107 1.446 1_554 S
N2106 Co2065 2.151 . S
N2106 C2105 1.330 . S
N2106 C2110 1.418 . S
C2107 H2086 0.929 . S
C2107 C2105 1.446 1_556 S
C2107 C2108 1.332 . S
C2108 H2088 0.931 . S
C2108 C2107 1.332 . S
C2108 C2109 1.267 1_556 S
C2109 H2077 0.929 1_554 S
C2109 C2108 1.267 1_554 S
C2109 C2110 1.251 . S
C2110 H2080 0.929 . S
C2110 N2106 1.418 . S
C2110 C2109 1.251 . S
C2111 H2078 0.930 . S
C2111 C2113 1.406 . S
C2111 C2116 1.261 . S
C2112 H2079 0.930 . S
C2112 N2114 1.325 . S
C2112 C2115 1.357 . S
C2113 H2081 0.928 . S
C2113 C2111 1.406 . S
C2113 N2114 1.261 . S
N2114 Co2065 2.214 . S
N2114 C2112 1.325 . S
N2114 C2113 1.261 . S
C2115 H2085 0.931 . S
C2115 C2112 1.357 . S
C2115 C2116 1.312 . S
C2116 H2087 0.930 . S
C2116 C2111 1.261 . S
C2116 C2115 1.312 . S
C2117 O2089 1.214 . S
C2117 O2097 1.234 . S
C2118 H2090 0.929 . S
C2118 C2121 1.391 . S
C2118 C2123 1.391 . S
C2119 H2091 0.929 . S
C2119 C2120 1.390 . S
C2119 N2122 1.391 . S
C2120 H2092 0.930 . S
C2120 C2119 1.390 . S
C2120 C2121 1.392 . S
C2121 H2093 0.929 . S
C2121 C2118 1.391 . S
C2121 C2120 1.392 . S
N2122 Co2066 2.257 . S
N2122 C2119 1.391 . S
N2122 C2123 1.388 . S
C2123 H2094 0.930 . S
C2123 C2118 1.391 . S
C2123 N2122 1.388 . S
C949 C5 1.461 . S
C1008 C64 1.461 . S
C123 C890 1.461 . S
C1539 C182 1.461 . S
C1421 C241 1.461 . S
C300 C1480 1.462 . S
C2011 C359 1.461 . S
C2070 C418 1.461 . S
C1952 C477 1.461 . S
C1185 C536 1.461 . S
C595 C1067 1.461 . S
C1126 C654 1.462 . S
C1657 C713 1.461 1_455 S
C772 C1716 1.462 . S
C1598 C831 1.462 1_565 S
C1893 C1244 1.462 1_565 S
C1775 C1303 1.461 1_455 S
C1362 C1834 1.462 . S
C446 C3 2.091 1_556 S
C505 C62 2.091 1_556 S
C387 C121 2.091 1_556 S
C180 C682 2.091 . S
C564 C239 2.091 . S
C298 C623 2.091 . S
C92 C357 2.091 1_554 S
C416 C151 2.091 1_556 S
C33 C475 2.091 1_554 S
C328 C534 2.091 . S
C210 C593 2.091 . S
C652 C269 2.091 . S
C711 C1154 2.091 . S
C1213 C770 2.091 . S
C1095 C829 2.091 . S
C888 C1390 2.091 . S
C1272 C947 2.091 . S
C1006 C1331 2.091 . S
C1065 C800 2.091 . S
C1124 C859 2.091 . S
C741 C1183 2.091 . S
C1036 C1242 2.091 . S
C918 C1301 2.091 . S
C1360 C977 2.091 . S
C1862 C1419 2.091 . S
C1478 C1921 2.091 . S
C1537 C1803 2.091 . S
C2098 C1596 2.091 . S
C1655 C1980 2.091 . S
C2039 C1714 2.091 . S
C1508 C1773 2.091 . S
C1567 C1832 2.091 . S
C1891 C1449 2.091 . S
C1950 C1744 2.091 . S
C1626 C2009 2.091 . S
C1685 C2068 2.091 . S
C52 C229 1.810 . S
C111 C288 1.810 1_545 S
C347 C170 1.810 1_455 S
C406 C583 1.810 . S
C642 C465 1.810 1_545 S
C701 C524 1.810 1_655 S
C760 C937 1.810 . S
C819 C996 1.810 . S
C1055 C878 1.810 . S
C1114 C1291 1.810 . S
C1173 C1350 1.810 . S
C1232 C1409 1.810 . S
C1645 C1468 1.810 . S
C1704 C1527 1.810 . S
C1763 C1586 1.810 . S
C1822 C1999 1.810 . S
C2058 C1881 1.810 . S
C2117 C1940 1.810 . S
