# Generated by pormake.
# Topology fnd, (5)-cn, num edge types: 1
# Building blocks:
#     Node 0, Type 0, BuildingBlock: XOMCOT_clean_sbu_1, # of connection points: 5
#     Node 1, Type 0, BuildingBlock: XOMCOT_clean_sbu_1, # of connection points: 5
#     Node 2, Type 0, BuildingBlock: XOMCOT_clean_sbu_1, # of connection points: 5
#     Node 3, Type 0, BuildingBlock: XOMCOT_clean_sbu_1, # of connection points: 5
#     Node 4, Type 0, BuildingBlock: XOMCOT_clean_sbu_1, # of connection points: 5
#     Node 5, Type 0, BuildingBlock: XOMCOT_clean_sbu_1, # of connection points: 5
#     Node 6, Type 0, BuildingBlock: XOMCOT_clean_sbu_1, # of connection points: 5
#     Node 7, Type 0, BuildingBlock: XOMCOT_clean_sbu_1, # of connection points: 5
#     Node 8, Type 0, BuildingBlock: XOMCOT_clean_sbu_1, # of connection points: 5
#     Node 9, Type 0, BuildingBlock: XOMCOT_clean_sbu_1, # of connection points: 5
#     Node 10, Type 0, BuildingBlock: XOMCOT_clean_sbu_1, # of connection points: 5
#     Node 11, Type 0, BuildingBlock: XOMCOT_clean_sbu_1, # of connection points: 5
#     Node 12, Type 0, BuildingBlock: XOMCOT_clean_sbu_1, # of connection points: 5
#     Node 13, Type 0, BuildingBlock: XOMCOT_clean_sbu_1, # of connection points: 5
#     Node 14, Type 0, BuildingBlock: XOMCOT_clean_sbu_1, # of connection points: 5
#     Node 15, Type 0, BuildingBlock: XOMCOT_clean_sbu_1, # of connection points: 5
#     Node 16, Type 0, BuildingBlock: XOMCOT_clean_sbu_1, # of connection points: 5
#     Node 17, Type 0, BuildingBlock: XOMCOT_clean_sbu_1, # of connection points: 5
#     Edge 18, Type (0, 0), BuildingBlock: UVAHIK_clean_linker_0, # of connection points: 2
#     Edge 19, Type (0, 0), BuildingBlock: UVAHIK_clean_linker_0, # of connection points: 2
#     Edge 20, Type (0, 0), BuildingBlock: UVAHIK_clean_linker_0, # of connection points: 2
#     Edge 21, Type (0, 0), BuildingBlock: UVAHIK_clean_linker_0, # of connection points: 2
#     Edge 22, Type (0, 0), BuildingBlock: UVAHIK_clean_linker_0, # of connection points: 2
#     Edge 23, Type (0, 0), BuildingBlock: UVAHIK_clean_linker_0, # of connection points: 2
#     Edge 24, Type (0, 0), BuildingBlock: UVAHIK_clean_linker_0, # of connection points: 2
#     Edge 25, Type (0, 0), BuildingBlock: UVAHIK_clean_linker_0, # of connection points: 2
#     Edge 26, Type (0, 0), BuildingBlock: UVAHIK_clean_linker_0, # of connection points: 2
#     Edge 27, Type (0, 0), BuildingBlock: UVAHIK_clean_linker_0, # of connection points: 2
#     Edge 28, Type (0, 0), BuildingBlock: UVAHIK_clean_linker_0, # of connection points: 2
#     Edge 29, Type (0, 0), BuildingBlock: UVAHIK_clean_linker_0, # of connection points: 2
#     Edge 30, Type (0, 0), BuildingBlock: UVAHIK_clean_linker_0, # of connection points: 2
#     Edge 31, Type (0, 0), BuildingBlock: UVAHIK_clean_linker_0, # of connection points: 2
#     Edge 32, Type (0, 0), BuildingBlock: UVAHIK_clean_linker_0, # of connection points: 2
#     Edge 33, Type (0, 0), BuildingBlock: UVAHIK_clean_linker_0, # of connection points: 2
#     Edge 34, Type (0, 0), BuildingBlock: UVAHIK_clean_linker_0, # of connection points: 2
#     Edge 35, Type (0, 0), BuildingBlock: UVAHIK_clean_linker_0, # of connection points: 2
#     Edge 36, Type (0, 0), BuildingBlock: UVAHIK_clean_linker_0, # of connection points: 2
#     Edge 37, Type (0, 0), BuildingBlock: UVAHIK_clean_linker_0, # of connection points: 2
#     Edge 38, Type (0, 0), BuildingBlock: UVAHIK_clean_linker_0, # of connection points: 2
#     Edge 39, Type (0, 0), BuildingBlock: UVAHIK_clean_linker_0, # of connection points: 2
#     Edge 40, Type (0, 0), BuildingBlock: UVAHIK_clean_linker_0, # of connection points: 2
#     Edge 41, Type (0, 0), BuildingBlock: UVAHIK_clean_linker_0, # of connection points: 2
#     Edge 42, Type (0, 0), BuildingBlock: UVAHIK_clean_linker_0, # of connection points: 2
#     Edge 43, Type (0, 0), BuildingBlock: UVAHIK_clean_linker_0, # of connection points: 2
#     Edge 44, Type (0, 0), BuildingBlock: UVAHIK_clean_linker_0, # of connection points: 2
#     Edge 45, Type (0, 0), BuildingBlock: UVAHIK_clean_linker_0, # of connection points: 2
#     Edge 46, Type (0, 0), BuildingBlock: UVAHIK_clean_linker_0, # of connection points: 2
#     Edge 47, Type (0, 0), BuildingBlock: UVAHIK_clean_linker_0, # of connection points: 2
#     Edge 48, Type (0, 0), BuildingBlock: UVAHIK_clean_linker_0, # of connection points: 2
#     Edge 49, Type (0, 0), BuildingBlock: UVAHIK_clean_linker_0, # of connection points: 2
#     Edge 50, Type (0, 0), BuildingBlock: UVAHIK_clean_linker_0, # of connection points: 2
#     Edge 51, Type (0, 0), BuildingBlock: UVAHIK_clean_linker_0, # of connection points: 2
#     Edge 52, Type (0, 0), BuildingBlock: UVAHIK_clean_linker_0, # of connection points: 2
#     Edge 53, Type (0, 0), BuildingBlock: UVAHIK_clean_linker_0, # of connection points: 2
#     Edge 54, Type (0, 0), BuildingBlock: UVAHIK_clean_linker_0, # of connection points: 2
#     Edge 55, Type (0, 0), BuildingBlock: UVAHIK_clean_linker_0, # of connection points: 2
#     Edge 56, Type (0, 0), BuildingBlock: UVAHIK_clean_linker_0, # of connection points: 2
#     Edge 57, Type (0, 0), BuildingBlock: UVAHIK_clean_linker_0, # of connection points: 2
#     Edge 58, Type (0, 0), BuildingBlock: UVAHIK_clean_linker_0, # of connection points: 2
#     Edge 59, Type (0, 0), BuildingBlock: UVAHIK_clean_linker_0, # of connection points: 2
#     Edge 60, Type (0, 0), BuildingBlock: UVAHIK_clean_linker_0, # of connection points: 2
#     Edge 61, Type (0, 0), BuildingBlock: UVAHIK_clean_linker_0, # of connection points: 2
#     Edge 62, Type (0, 0), BuildingBlock: UVAHIK_clean_linker_0, # of connection points: 2
# Relax obj value: 0.031
# Max RMSD: 0.084
# Mean RMSD: 0.084
data_MOF--net-fnd--node1-XOMCOT_clean_sbu_1--edge1-UVAHIK_clean_linker_0
_symmetry_space_group_name_H-M    P1
_symmetry_Int_Tables_number       1
_symmetry_cell_setting            triclinic
loop_
_symmetry_equiv_pos_as_xyz
'x, y, z'
_cell_length_a     106.56141
_cell_length_b     106.5544
_cell_length_c     22.079561
_cell_angle_alpha  89.965739
_cell_angle_beta   90.01491
_cell_angle_gamma 119.97919
loop_
_atom_site_label
_atom_site_type_symbol
_atom_site_fract_x
_atom_site_fract_y
_atom_site_fract_z
_atom_type_partial_charge
C0 C 0.1348 0.24811 0.51258 0.0
C1 C 0.13682 0.25043 0.57388 0.0
N2 N 0.12399 0.24687 0.59932 0.0
N3 N 0.12071 0.24293 0.49921 0.0
C4 C 0.1144 0.24252 0.55304 0.0
H5 H 0.14292 0.24927 0.48013 0.0
Co6 Co 0.11314 0.23594 0.42179 0.0
C7 C 0.08359 0.21257 0.46745 0.0
O8 O 0.0867 0.2022 0.46106 0.0
N9 N 0.10581 0.22934 0.34274 0.0
C10 C 0.09484 0.21512 0.26339 0.0
C11 C 0.09597 0.21574 0.32531 0.0
C12 C 0.11039 0.23682 0.28991 0.0
N13 N 0.1039 0.22836 0.24112 0.0
O14 O 0.11154 0.25301 0.40872 0.0
H15 H 0.09054 0.20653 0.35471 0.0
H16 H 0.11888 0.24803 0.28691 0.0
O17 O 0.093 0.22569 0.45404 0.0
C18 C 0.12388 0.26394 0.39652 0.0
O19 O 0.13504 0.26195 0.39084 0.0
N20 N 0.1165 0.22 0.43411 0.0
C21 C 0.12768 0.20129 0.4533 0.0
C22 C 0.12038 0.2041 0.49958 0.0
C23 C 0.11501 0.21351 0.48929 0.0
C24 C 0.12376 0.21753 0.38891 0.0
C25 C 0.12907 0.208 0.39697 0.0
H26 H 0.1099 0.21579 0.52654 0.0
H27 H 0.12603 0.2234 0.34668 0.0
H28 H 0.10286 0.2381 0.55898 0.0
H29 H 0.14683 0.25386 0.59832 0.0
H30 H 0.0882 0.20554 0.23653 0.0
H31 H 0.11932 0.19959 0.54447 0.0
H32 H 0.13455 0.20625 0.35948 0.0
C33 C 0.7643 0.88948 0.4929 0.0
C34 C 0.76275 0.89079 0.55401 0.0
N35 N 0.76704 0.88254 0.58388 0.0
N36 N 0.76961 0.8805 0.48406 0.0
C37 C 0.77099 0.87628 0.54029 0.0
H38 H 0.76216 0.89507 0.45708 0.0
Co39 Co 0.77493 0.87717 0.40793 0.0
C40 C 0.79777 0.86998 0.43457 0.0
O41 O 0.80592 0.88015 0.39557 0.0
N42 N 0.77955 0.87337 0.32906 0.0
C43 C 0.7815 0.86061 0.25327 0.0
C44 C 0.78105 0.86184 0.3148 0.0
C45 C 0.7783 0.87845 0.27423 0.0
N46 N 0.77963 0.87098 0.22737 0.0
O47 O 0.75689 0.85914 0.40293 0.0
H48 H 0.78071 0.85397 0.34659 0.0
H49 H 0.77509 0.88651 0.26841 0.0
O50 O 0.78483 0.86737 0.44495 0.0
C51 C 0.74768 0.86138 0.37534 0.0
O52 O 0.75187 0.87465 0.35703 0.0
N53 N 0.79198 0.89586 0.41276 0.0
C54 C 0.81215 0.92525 0.4322 0.0
C55 C 0.81087 0.91466 0.47332 0.0
C56 C 0.8007 0.90008 0.46302 0.0
C57 C 0.79311 0.90612 0.37259 0.0
C58 C 0.80334 0.92079 0.38059 0.0
H59 H 0.79932 0.89232 0.49755 0.0
H60 H 0.78534 0.90324 0.3367 0.0
H61 H 0.77551 0.86936 0.54933 0.0
H62 H 0.75893 0.89746 0.57479 0.0
H63 H 0.78248 0.85225 0.22969 0.0
H64 H 0.81732 0.91767 0.51431 0.0
H65 H 0.80363 0.92869 0.34885 0.0
C66 C 0.12364 0.8776 0.48804 0.0
C67 C 0.12275 0.87491 0.5493 0.0
N68 N 0.12965 0.8877 0.57862 0.0
N69 N 0.13107 0.89201 0.47861 0.0
C70 C 0.13471 0.8979 0.53459 0.0
H71 H 0.11883 0.86959 0.45252 0.0
Co72 Co 0.13386 0.90043 0.40229 0.0
C73 C 0.14026 0.93029 0.42763 0.0
O74 O 0.12992 0.92802 0.38915 0.0
N75 N 0.13716 0.9087 0.32332 0.0
C76 C 0.14993 0.92327 0.24711 0.0
C77 C 0.14877 0.92165 0.30869 0.0
C78 C 0.13185 0.9024 0.26869 0.0
N79 N 0.13935 0.91111 0.22174 0.0
O80 O 0.15228 0.90125 0.39672 0.0
H81 H 0.15676 0.9291 0.34029 0.0
H82 H 0.12366 0.89119 0.26287 0.0
O83 O 0.14314 0.92016 0.43829 0.0
C84 C 0.15079 0.89024 0.36773 0.0
O85 O 0.13779 0.8808 0.34794 0.0
N86 N 0.11488 0.89802 0.40787 0.0
C87 C 0.08533 0.8879 0.42782 0.0
C88 C 0.09583 0.89782 0.46764 0.0
C89 C 0.1105 0.90267 0.45715 0.0
C90 C 0.10471 0.88819 0.36932 0.0
C91 C 0.08994 0.88329 0.37747 0.0
H92 H 0.11823 0.90954 0.49081 0.0
H93 H 0.10779 0.88314 0.33485 0.0
H94 H 0.14071 0.90943 0.54306 0.0
H95 H 0.117 0.86436 0.57058 0.0
H96 H 0.15839 0.93244 0.22295 0.0
H97 H 0.09269 0.90143 0.50778 0.0
H98 H 0.08213 0.87519 0.34697 0.0
C99 C 0.25098 0.13336 0.52853 0.0
C100 C 0.25252 0.13614 0.46733 0.0
N101 N 0.24745 0.12346 0.43773 0.0
N102 N 0.2449 0.11899 0.53762 0.0
C103 C 0.24302 0.11323 0.48151 0.0
H104 H 0.25377 0.14125 0.5643 0.0
Co105 Co 0.2397 0.11049 0.61387 0.0
C106 C 0.21558 0.08094 0.58927 0.0
O107 O 0.20793 0.08355 0.62876 0.0
N108 N 0.23514 0.10211 0.6929 0.0
C109 C 0.23266 0.08703 0.76809 0.0
C110 C 0.23322 0.08888 0.70661 0.0
C111 C 0.2365 0.10834 0.74799 0.0
N112 N 0.23484 0.09933 0.79448 0.0
O113 O 0.25709 0.10926 0.61578 0.0
H114 H 0.23324 0.08128 0.67437 0.0
H115 H 0.23998 0.11965 0.75436 0.0
O116 O 0.22864 0.09081 0.5776 0.0
C117 C 0.26701 0.1198 0.6456 0.0
O118 O 0.26396 0.12917 0.67041 0.0
N119 N 0.22336 0.11334 0.61153 0.0
C120 C 0.20435 0.12427 0.59594 0.0
C121 C 0.20448 0.11429 0.55478 0.0
C122 C 0.21412 0.1091 0.56299 0.0
C123 C 0.22343 0.12311 0.65154 0.0
C124 C 0.2138 0.12836 0.6457 0.0
H125 H 0.21471 0.10233 0.52803 0.0
H126 H 0.2317 0.12784 0.68562 0.0
H127 H 0.23794 0.10172 0.47274 0.0
H128 H 0.25693 0.14669 0.4463 0.0
H129 H 0.23133 0.0775 0.79128 0.0
H130 H 0.19784 0.11112 0.51441 0.0
H131 H 0.21426 0.13606 0.67883 0.0
C132 C 0.88035 0.11986 0.50185 0.0
C133 C 0.87848 0.12124 0.44119 0.0
N134 N 0.89152 0.13022 0.41638 0.0
N135 N 0.89451 0.12791 0.51585 0.0
C136 C 0.90108 0.1342 0.46287 0.0
H137 H 0.87198 0.11298 0.53356 0.0
Co138 Co 0.90164 0.12806 0.59379 0.0
C139 C 0.93143 0.13419 0.55218 0.0
O140 O 0.92798 0.12056 0.55641 0.0
N141 N 0.90858 0.12844 0.67348 0.0
C142 C 0.9202 0.12628 0.75312 0.0
C143 C 0.91836 0.12467 0.6916 0.0
C144 C 0.90453 0.13218 0.72565 0.0
N145 N 0.91153 0.13105 0.77482 0.0
O146 O 0.90345 0.1468 0.60746 0.0
H147 H 0.92347 0.12039 0.66294 0.0
H148 H 0.89657 0.13563 0.72759 0.0
O149 O 0.92196 0.13792 0.56386 0.0
C150 C 0.89127 0.14586 0.61871 0.0
O151 O 0.87973 0.13293 0.62315 0.0
N152 N 0.89816 0.10875 0.58063 0.0
C153 C 0.88728 0.07893 0.56029 0.0
C154 C 0.89449 0.08919 0.51431 0.0
C155 C 0.89974 0.10393 0.52522 0.0
C156 C 0.89091 0.09888 0.62542 0.0
C157 C 0.88578 0.08409 0.61683 0.0
H158 H 0.90492 0.11144 0.48837 0.0
H159 H 0.88857 0.10233 0.66786 0.0
H160 H 0.91265 0.14124 0.45816 0.0
H161 H 0.86834 0.11551 0.41677 0.0
H162 H 0.92704 0.12362 0.78 0.0
H163 H 0.89564 0.0859 0.46926 0.0
H164 H 0.88041 0.07679 0.65425 0.0
C165 C 0.88849 0.75774 0.50869 0.0
C166 C 0.88748 0.75454 0.44803 0.0
N167 N 0.88042 0.76048 0.42007 0.0
N168 N 0.88204 0.7656 0.51981 0.0
C169 C 0.87697 0.76689 0.46513 0.0
H170 H 0.89406 0.75495 0.54234 0.0
Co171 Co 0.8825 0.77345 0.59654 0.0
C172 C 0.87668 0.79695 0.54921 0.0
O173 O 0.89044 0.80686 0.55075 0.0
N174 N 0.88268 0.78091 0.67544 0.0
C175 C 0.88519 0.79557 0.75222 0.0
C176 C 0.8857 0.79443 0.6905 0.0
C177 C 0.88042 0.77408 0.72971 0.0
N178 N 0.88189 0.78277 0.77719 0.0
O179 O 0.86376 0.75674 0.61352 0.0
H180 H 0.88861 0.80322 0.65945 0.0
H181 H 0.87819 0.76308 0.73475 0.0
O182 O 0.87268 0.78388 0.5649 0.0
C183 C 0.86516 0.74634 0.63459 0.0
O184 O 0.87831 0.74851 0.64275 0.0
N185 N 0.90191 0.78898 0.58066 0.0
C186 C 0.93174 0.80766 0.55884 0.0
C187 C 0.92145 0.80411 0.5126 0.0
C188 C 0.90673 0.79476 0.52424 0.0
C189 C 0.91184 0.79203 0.62569 0.0
C190 C 0.92663 0.80156 0.6163 0.0
H191 H 0.89924 0.79222 0.48727 0.0
H192 H 0.90847 0.78671 0.66912 0.0
H193 H 0.87173 0.77322 0.45798 0.0
H194 H 0.89197 0.74856 0.42636 0.0
H195 H 0.88714 0.80518 0.77669 0.0
H196 H 0.9247 0.8081 0.46692 0.0
H197 H 0.93397 0.80387 0.65393 0.0
C198 C 0.80181 0.58228 0.84634 0.0
C199 C 0.8036 0.58471 0.90761 0.0
N200 N 0.79058 0.58072 0.93224 0.0
N201 N 0.78769 0.57659 0.83219 0.0
C202 C 0.7811 0.576 0.88552 0.0
H203 H 0.81013 0.58368 0.81452 0.0
Co204 Co 0.78057 0.56928 0.75465 0.0
C205 C 0.75104 0.54533 0.79768 0.0
O206 O 0.75478 0.53537 0.79269 0.0
N207 N 0.77371 0.56235 0.67531 0.0
C208 C 0.76348 0.54783 0.59599 0.0
C209 C 0.76459 0.54854 0.65789 0.0
C210 C 0.77788 0.56986 0.62243 0.0
N211 N 0.77182 0.56123 0.57367 0.0
O212 O 0.77856 0.58608 0.73944 0.0
H213 H 0.75969 0.53928 0.68729 0.0
H214 H 0.78574 0.58129 0.61937 0.0
O215 O 0.76019 0.55859 0.78501 0.0
C216 C 0.79084 0.59716 0.7276 0.0
O217 O 0.80218 0.59544 0.72295 0.0
N218 N 0.78438 0.55368 0.76947 0.0
C219 C 0.7955 0.53516 0.79263 0.0
C220 C 0.78814 0.53815 0.83773 0.0
C221 C 0.78276 0.54746 0.82544 0.0
C222 C 0.79191 0.55113 0.72565 0.0
C223 C 0.79721 0.54163 0.73572 0.0
H224 H 0.77734 0.54972 0.86149 0.0
H225 H 0.79437 0.55688 0.68306 0.0
H226 H 0.7695 0.5711 0.89089 0.0
H227 H 0.81357 0.58844 0.93269 0.0
H228 H 0.75731 0.53813 0.56921 0.0
H229 H 0.7867 0.53346 0.88251 0.0
H230 H 0.80321 0.53992 0.7002 0.0
C231 C 0.42287 0.2082 0.84622 0.0
C232 C 0.42067 0.20544 0.90722 0.0
N233 N 0.43253 0.20589 0.93107 0.0
N234 N 0.43601 0.21027 0.83104 0.0
C235 C 0.44171 0.20888 0.88381 0.0
H236 H 0.41548 0.20901 0.81512 0.0
Co237 Co 0.44367 0.21526 0.75298 0.0
C238 C 0.46664 0.20718 0.74378 0.0
O239 O 0.47434 0.21852 0.70923 0.0
N240 N 0.45118 0.22053 0.67184 0.0
C241 C 0.46326 0.23323 0.59022 0.0
C242 C 0.46133 0.23376 0.65133 0.0
C243 C 0.44716 0.21217 0.62107 0.0
N244 N 0.4543 0.21967 0.57093 0.0
O245 O 0.42745 0.19748 0.72349 0.0
H246 H 0.46724 0.24341 0.67826 0.0
H247 H 0.43916 0.20077 0.62051 0.0
O248 O 0.45461 0.20505 0.76584 0.0
C249 C 0.41762 0.19905 0.69746 0.0
O250 O 0.41995 0.21226 0.68901 0.0
N251 N 0.45833 0.23312 0.78365 0.0
C252 C 0.47693 0.26181 0.81852 0.0
C253 C 0.48063 0.25107 0.82954 0.0
C254 C 0.4711 0.23668 0.81196 0.0
C255 C 0.45411 0.2432 0.77744 0.0
C256 C 0.46333 0.25763 0.79337 0.0
H257 H 0.47404 0.22855 0.82136 0.0
H258 H 0.4437 0.24008 0.75731 0.0
H259 H 0.45242 0.21019 0.8876 0.0
H260 H 0.41125 0.20379 0.93246 0.0
H261 H 0.47043 0.2423 0.56182 0.0
H262 H 0.49091 0.25382 0.8502 0.0
H263 H 0.45988 0.26549 0.78562 0.0
C264 C 0.79057 0.21027 0.81915 0.0
C265 C 0.78955 0.20738 0.88022 0.0
N266 N 0.79746 0.21998 0.91007 0.0
N267 N 0.79902 0.22462 0.81028 0.0
C268 C 0.80323 0.23026 0.86645 0.0
H269 H 0.78517 0.20246 0.78336 0.0
Co270 Co 0.80202 0.23325 0.73416 0.0
C271 C 0.80726 0.26261 0.76246 0.0
O272 O 0.79666 0.26 0.72488 0.0
N273 N 0.80557 0.2417 0.65522 0.0
C274 C 0.81747 0.25687 0.57928 0.0
C275 C 0.81614 0.25527 0.64086 0.0
C276 C 0.80126 0.23507 0.60047 0.0
N277 N 0.80816 0.24412 0.55355 0.0
O278 O 0.82061 0.23439 0.73 0.0
H279 H 0.82339 0.26334 0.67257 0.0
H280 H 0.7942 0.22354 0.59495 0.0
O281 O 0.8108 0.25287 0.77125 0.0
C282 C 0.8192 0.22327 0.7022 0.0
O283 O 0.80623 0.21363 0.68297 0.0
N284 N 0.78285 0.23052 0.73816 0.0
C285 C 0.75302 0.22037 0.75343 0.0
C286 C 0.76316 0.22922 0.79722 0.0
C287 C 0.77792 0.2341 0.78891 0.0
C288 C 0.77312 0.22187 0.69543 0.0
C289 C 0.75834 0.21705 0.70124 0.0
H290 H 0.7853 0.24023 0.82496 0.0
H291 H 0.77654 0.21782 0.65824 0.0
H292 H 0.80982 0.24174 0.87542 0.0
H293 H 0.78333 0.19681 0.90099 0.0
H294 H 0.82518 0.26658 0.55556 0.0
H295 H 0.75975 0.23182 0.83924 0.0
H296 H 0.75111 0.21033 0.66567 0.0
C297 C 0.91904 0.4661 0.8583 0.0
C298 C 0.92085 0.46876 0.79701 0.0
N299 N 0.91481 0.45595 0.76778 0.0
N300 N 0.91191 0.45169 0.86781 0.0
C301 C 0.90957 0.44578 0.81186 0.0
H302 H 0.92239 0.47413 0.89379 0.0
Co303 Co 0.90637 0.44326 0.94411 0.0
C304 C 0.8825 0.41361 0.91859 0.0
O305 O 0.87457 0.41604 0.95722 0.0
N306 N 0.90148 0.43492 0.0231 0.0
C307 C 0.89935 0.42009 0.09881 0.0
C308 C 0.89981 0.42181 0.03727 0.0
C309 C 0.90269 0.4412 0.07798 0.0
N310 N 0.90126 0.43233 0.12462 0.0
O311 O 0.9238 0.44209 0.94843 0.0
H312 H 0.90007 0.41427 1.00533 0.0
H313 H 0.90602 0.45248 0.08426 0.0
O314 O 0.89557 0.4236 0.90794 0.0
C315 C 0.93345 0.45294 0.97779 0.0
O316 O 0.93009 0.46243 0.99884 0.0
N317 N 0.89002 0.44605 0.9398 0.0
C318 C 0.87095 0.45689 0.92283 0.0
C319 C 0.87124 0.44693 0.88196 0.0
C320 C 0.88087 0.44174 0.89098 0.0
C321 C 0.88999 0.45585 0.97936 0.0
C322 C 0.8803 0.461 0.97298 0.0
H323 H 0.88149 0.4349 0.8565 0.0
H324 H 0.89819 0.46062 0.01367 0.0
H325 H 0.90395 0.43424 0.80346 0.0
H326 H 0.92579 0.47931 0.77564 0.0
H327 H 0.89839 0.41077 0.12265 0.0
H328 H 0.86469 0.44371 0.84133 0.0
H329 H 0.88063 0.46862 1.00619 0.0
C330 C 0.5469 0.45081 0.86983 0.0
C331 C 0.5443 0.4491 0.80855 0.0
N332 N 0.55697 0.45712 0.77934 0.0
N333 N 0.56115 0.4598 0.87936 0.0
C334 C 0.56701 0.46359 0.82338 0.0
H335 H 0.53899 0.44553 0.9054 0.0
Co336 Co 0.56948 0.46377 0.95595 0.0
C337 C 0.59989 0.47154 0.93536 0.0
O338 O 0.598 0.46206 0.97769 0.0
N339 N 0.57767 0.46819 0.035 0.0
C340 C 0.59191 0.48198 0.10986 0.0
C341 C 0.5899 0.4807 0.0485 0.0
C342 C 0.57211 0.46241 0.09007 0.0
N343 N 0.58063 0.47054 0.13643 0.0
O344 O 0.56942 0.48181 0.95691 0.0
H345 H 0.59664 0.4889 0.01598 0.0
H346 H 0.56151 0.4531 0.09667 0.0
O347 O 0.5893 0.47341 0.92048 0.0
C348 C 0.55806 0.47988 0.98438 0.0
O349 O 0.54903 0.46683 1.00496 0.0
N350 N 0.56784 0.44513 0.95513 0.0
C351 C 0.55835 0.4155 0.94082 0.0
C352 C 0.56903 0.42589 0.90271 0.0
C353 C 0.57345 0.44058 0.90994 0.0
C354 C 0.55728 0.4351 0.99177 0.0
C355 C 0.55264 0.42033 0.98646 0.0
H356 H 0.58068 0.44812 0.87652 0.0
H357 H 0.55142 0.43832 0.02173 0.0
H358 H 0.57848 0.47046 0.81494 0.0
H359 H 0.53389 0.44239 0.78717 0.0
H360 H 0.60081 0.49099 0.13286 0.0
H361 H 0.57353 0.42265 0.86596 0.0
H362 H 0.54389 0.41267 0.01507 0.0
C363 C 0.56001 0.09725 0.81869 0.0
C364 C 0.55969 0.09493 0.7574 0.0
N365 N 0.55022 0.09826 0.73214 0.0
N366 N 0.55093 0.10222 0.83225 0.0
C367 C 0.54488 0.10247 0.77854 0.0
H368 H 0.56712 0.09628 0.85097 0.0
Co369 Co 0.55039 0.10927 0.90964 0.0
C370 C 0.5434 0.13211 0.86382 0.0
O371 O 0.55678 0.14275 0.86966 0.0
N372 N 0.54973 0.11594 0.98866 0.0
C373 C 0.55299 0.13027 0.06762 0.0
C374 C 0.55345 0.12955 1.00571 0.0
C375 C 0.5469 0.10855 0.04171 0.0
N376 N 0.54887 0.11707 0.09028 0.0
O377 O 0.53198 0.09193 0.92368 0.0
H378 H 0.55718 0.13871 0.97601 0.0
H379 H 0.54419 0.09734 0.04503 0.0
O380 O 0.54003 0.1191 0.87769 0.0
C381 C 0.53386 0.08128 0.9362 0.0
O382 O 0.54719 0.0838 0.94219 0.0
N383 N 0.56946 0.12546 0.89616 0.0
C384 C 0.59904 0.14447 0.87432 0.0
C385 C 0.58874 0.14139 0.82887 0.0
C386 C 0.57408 0.13184 0.84051 0.0
C387 C 0.57947 0.12824 0.94058 0.0
C388 C 0.59423 0.13795 0.93112 0.0
H389 H 0.56646 0.12938 0.80399 0.0
H390 H 0.57619 0.12241 0.983 0.0
H391 H 0.53765 0.10676 0.77271 0.0
H392 H 0.56639 0.09169 0.73279 0.0
H393 H 0.55588 0.13988 0.09419 0.0
H394 H 0.59202 0.14612 0.78417 0.0
H395 H 0.60189 0.13972 0.96694 0.0
C396 C 0.46069 0.92716 0.19605 0.0
C397 C 0.4603 0.92867 0.25763 0.0
N398 N 0.4496 0.91617 0.28048 0.0
N399 N 0.45027 0.91376 0.17971 0.0
C400 C 0.44359 0.9073 0.23228 0.0
H401 H 0.46868 0.93507 0.16567 0.0
Co402 Co 0.44925 0.90631 0.10225 0.0
C403 C 0.41855 0.88332 0.08181 0.0
O404 O 0.42289 0.87637 0.04616 0.0
N405 N 0.4489 0.89913 0.02229 0.0
C406 C 0.45406 0.88956 0.94295 0.0
C407 C 0.45484 0.89107 1.00461 0.0
C408 C 0.4444 0.90219 0.96944 0.0
N409 N 0.4476 0.89662 0.92067 0.0
O410 O 0.44806 0.92246 0.06859 0.0
H411 H 0.45983 0.8867 0.03365 0.0
H412 H 0.43947 0.90893 0.96634 0.0
O413 O 0.42793 0.89499 0.10811 0.0
C414 C 0.4599 0.93207 0.04461 0.0
O415 O 0.47081 0.92959 0.04223 0.0
N416 N 0.45207 0.89168 0.13695 0.0
C417 C 0.46199 0.87322 0.17592 0.0
C418 C 0.44712 0.86858 0.17624 0.0
C419 C 0.44234 0.87804 0.15671 0.0
C420 C 0.46657 0.89671 0.14197 0.0
C421 C 0.47176 0.8876 0.16011 0.0
H422 H 0.4309 0.87428 0.15744 0.0
H423 H 0.47416 0.9077 0.12824 0.0
H424 H 0.43527 0.89602 0.23578 0.0
H425 H 0.46778 0.938 0.28404 0.0
H426 H 0.45827 0.88396 0.91624 0.0
H427 H 0.43927 0.85762 0.1895 0.0
H428 H 0.48334 0.8917 0.16059 0.0
C429 C 0.09788 0.55497 0.17674 0.0
C430 C 0.09473 0.55338 0.23753 0.0
N431 N 0.09888 0.54435 0.26116 0.0
N432 N 0.10399 0.54699 0.16152 0.0
C433 C 0.10437 0.54053 0.21384 0.0
H434 H 0.09634 0.56197 0.14586 0.0
Co435 Co 0.11106 0.54721 0.08344 0.0
C436 C 0.13465 0.54074 0.12305 0.0
O437 O 0.14493 0.55433 0.11893 0.0
N438 N 0.11778 0.54721 1.00362 0.0
C439 C 0.13192 0.55004 0.92451 0.0
C440 C 0.13153 0.55177 0.98583 0.0
C441 C 0.11004 0.54293 0.95134 0.0
N442 N 0.1184 0.54443 0.90257 0.0
O443 O 0.09416 0.52855 0.06846 0.0
H444 H 0.14091 0.55669 0.01456 0.0
H445 H 0.09849 0.53877 0.94895 0.0
O446 O 0.12146 0.53717 0.11219 0.0
C447 C 0.08295 0.52959 0.05757 0.0
O448 O 0.08441 0.54255 0.05399 0.0
N449 N 0.12683 0.5664 0.09813 0.0
C450 C 0.14573 0.59595 0.12099 0.0
C451 C 0.14293 0.58551 0.1656 0.0
C452 C 0.1334 0.57085 0.15349 0.0
C453 C 0.12918 0.57654 0.05487 0.0
C454 C 0.13884 0.59128 0.06477 0.0
H455 H 0.1312 0.56309 0.18919 0.0
H456 H 0.12316 0.57333 0.01292 0.0
H457 H 0.10898 0.53353 0.21752 0.0
H458 H 0.09039 0.55905 0.26285 0.0
H459 H 0.14156 0.55317 0.89782 0.0
H460 H 0.14794 0.58867 0.20986 0.0
H461 H 0.14036 0.59903 0.0297 0.0
C462 C 0.45298 0.54486 0.15526 0.0
C463 C 0.45191 0.54204 0.21636 0.0
N464 N 0.46087 0.55444 0.24573 0.0
N465 N 0.46254 0.55899 0.14581 0.0
C466 C 0.46731 0.56454 0.20172 0.0
H467 H 0.44691 0.53719 0.11986 0.0
Co468 Co 0.46635 0.56765 0.0693 0.0
C469 C 0.47197 0.59721 0.09841 0.0
O470 O 0.46171 0.59516 0.05991 0.0
N471 N 0.47065 0.57604 0.99063 0.0
C472 C 0.48273 0.59107 0.9146 0.0
C473 C 0.48103 0.58969 0.97618 0.0
C474 C 0.46685 0.56917 0.93629 0.0
N475 N 0.47383 0.57814 0.88926 0.0
O476 O 0.48479 0.56846 0.0687 0.0
H477 H 0.48787 0.59801 1.00794 0.0
H478 H 0.45999 0.55759 0.9314 0.0
O479 O 0.47516 0.5872 0.10662 0.0
C480 C 0.48328 0.55627 0.05298 0.0
O481 O 0.47026 0.54573 0.03887 0.0
N482 N 0.44731 0.56536 0.06994 0.0
C483 C 0.41741 0.55512 0.08286 0.0
C484 C 0.42733 0.56385 0.12751 0.0
C485 C 0.44213 0.5688 0.1203 0.0
C486 C 0.43782 0.55702 0.02587 0.0
C487 C 0.42299 0.55214 0.03062 0.0
H488 H 0.44932 0.57471 0.15724 0.0
H489 H 0.4414 0.5532 0.98847 0.0
H490 H 0.47489 0.57586 0.21018 0.0
H491 H 0.44497 0.53165 0.23745 0.0
H492 H 0.49033 0.6008 0.89062 0.0
H493 H 0.42371 0.56622 0.16953 0.0
H494 H 0.41594 0.54559 0.99432 0.0
C495 C 0.57539 0.79864 0.21057 0.0
C496 C 0.57622 0.8009 0.14909 0.0
N497 N 0.57224 0.78819 0.12129 0.0
N498 N 0.57093 0.7846 0.22164 0.0
C499 C 0.56912 0.77848 0.16641 0.0
H500 H 0.57765 0.80668 0.24519 0.0
Co501 Co 0.56788 0.77679 0.29899 0.0
C502 C 0.54484 0.74632 0.28589 0.0
O503 O 0.53814 0.74861 0.33082 0.0
N504 N 0.56543 0.76909 0.37813 0.0
C505 C 0.56671 0.75547 0.45182 0.0
C506 C 0.5671 0.75758 0.39055 0.0
C507 C 0.56442 0.77402 0.4335 0.0
N508 N 0.5651 0.76587 0.47899 0.0
O509 O 0.58575 0.77644 0.29352 0.0
H510 H 0.56907 0.75136 0.35706 0.0
H511 H 0.56412 0.78385 0.44117 0.0
O512 O 0.55691 0.75675 0.26647 0.0
C513 C 0.5967 0.78876 0.30564 0.0
O514 O 0.59453 0.79951 0.31955 0.0
N515 N 0.55111 0.77874 0.3038 0.0
C516 C 0.53146 0.78892 0.2937 0.0
C517 C 0.53015 0.77763 0.25677 0.0
C518 C 0.54018 0.77283 0.26191 0.0
C519 C 0.55264 0.78991 0.33918 0.0
C520 C 0.54274 0.79489 0.33614 0.0
H521 H 0.53972 0.76515 0.2289 0.0
H522 H 0.56233 0.79597 0.36584 0.0
H523 H 0.56559 0.76715 0.15936 0.0
H524 H 0.57916 0.81103 0.12665 0.0
H525 H 0.56788 0.74711 0.47459 0.0
H526 H 0.52184 0.77298 0.22221 0.0
H527 H 0.54458 0.80409 0.36347 0.0
C528 C 0.21494 0.78812 0.17539 0.0
C529 C 0.21229 0.78817 0.11441 0.0
N530 N 0.22495 0.79688 0.08628 0.0
N531 N 0.2292 0.79677 0.18598 0.0
C532 C 0.23502 0.80207 0.13085 0.0
H533 H 0.20703 0.78182 0.20974 0.0
Co534 Co 0.23783 0.79918 0.26237 0.0
C535 C 0.26708 0.80474 0.22293 0.0
O536 O 0.2651 0.79313 0.25203 0.0
N537 N 0.24621 0.80205 0.34096 0.0
C538 C 0.26153 0.8107 0.41891 0.0
C539 C 0.26032 0.81001 0.35707 0.0
C540 C 0.23907 0.79873 0.39476 0.0
N541 N 0.24816 0.80356 0.44293 0.0
O542 O 0.23907 0.81775 0.26929 0.0
H543 H 0.26931 0.81596 0.32688 0.0
H544 H 0.22739 0.79315 0.39844 0.0
O545 O 0.25729 0.80837 0.22448 0.0
C546 C 0.22701 0.8164 0.28616 0.0
O547 O 0.21619 0.80335 0.2978 0.0
N548 N 0.23511 0.78001 0.25589 0.0
C549 C 0.2246 0.75014 0.23957 0.0
C550 C 0.23243 0.76018 0.19366 0.0
C551 C 0.23754 0.77497 0.20264 0.0
C552 C 0.22763 0.77039 0.30104 0.0
C553 C 0.22264 0.75559 0.29449 0.0
H554 H 0.24296 0.78229 0.16546 0.0
H555 H 0.22467 0.77389 0.34145 0.0
H556 H 0.24646 0.80934 0.12326 0.0
H557 H 0.20192 0.78179 0.09226 0.0
H558 H 0.27151 0.81673 0.44416 0.0
H559 H 0.23404 0.75666 0.14983 0.0
H560 H 0.21686 0.74845 0.3319 0.0
C561 C 0.2227 0.42565 0.1636 0.0
C562 C 0.2214 0.42255 0.10271 0.0
N563 N 0.21284 0.42712 0.07763 0.0
N564 N 0.21502 0.43217 0.17738 0.0
C565 C 0.20894 0.43273 0.12424 0.0
H566 H 0.22941 0.42392 0.1954 0.0
Co567 Co 0.21539 0.43989 0.25423 0.0
C568 C 0.20849 0.46273 0.20807 0.0
O569 O 0.222 0.47321 0.21181 0.0
N570 N 0.21554 0.44725 0.33321 0.0
C571 C 0.21804 0.46179 0.41047 0.0
C572 C 0.2191 0.46089 0.34887 0.0
C573 C 0.21251 0.44012 0.38701 0.0
N574 N 0.21385 0.4487 0.43472 0.0
O575 O 0.19697 0.4229 0.27176 0.0
H576 H 0.22284 0.46992 0.3184 0.0
H577 H 0.20942 0.42885 0.39143 0.0
O578 O 0.20503 0.44975 0.22297 0.0
C579 C 0.19871 0.41258 0.29097 0.0
O580 O 0.21201 0.41499 0.29714 0.0
N581 N 0.23445 0.45578 0.23739 0.0
C582 C 0.26386 0.47491 0.21236 0.0
C583 C 0.25329 0.47135 0.16763 0.0
C584 C 0.23872 0.46174 0.18086 0.0
C585 C 0.24474 0.45893 0.28097 0.0
C586 C 0.25941 0.46871 0.2699 0.0
H587 H 0.23089 0.45907 0.14509 0.0
H588 H 0.24173 0.45343 0.32416 0.0
H589 H 0.20232 0.43772 0.11932 0.0
H590 H 0.22705 0.41805 0.07832 0.0
H591 H 0.22065 0.47152 0.43554 0.0
H592 H 0.25628 0.47584 0.12243 0.0
H593 H 0.26728 0.47085 0.30524 0.0
C594 C 0.18194 0.12384 0.55445 0.0
C595 C 0.19543 0.13132 0.58415 0.0
C596 C 0.17411 0.13082 0.54022 0.0
C597 C 0.17902 0.16794 0.52338 0.0
H598 H 0.13705 0.14717 0.52135 0.0
C599 C 0.14768 0.19547 0.43641 0.0
C600 C 0.13457 0.19221 0.46489 0.0
C601 C 0.1545 0.18745 0.44908 0.0
C602 C 0.14877 0.15322 0.52229 0.0
H603 H 0.21106 0.15219 0.62214 0.0
H604 H 0.19713 0.16392 0.60095 0.0
H605 H 0.14988 0.13455 0.5503 0.0
H606 H 0.11827 0.17751 0.52835 0.0
H607 H 0.13052 0.16408 0.55277 0.0
H608 H 0.17798 0.18675 0.49841 0.0
C609 C 0.19273 0.15277 0.58691 0.0
C610 C 0.15617 0.14589 0.53806 0.0
C611 C 0.20064 0.14588 0.6003 0.0
C612 C 0.12844 0.18055 0.50607 0.0
C613 C 0.13539 0.17266 0.51943 0.0
C614 C 0.17164 0.1753 0.50845 0.0
C615 C 0.17944 0.14544 0.55583 0.0
C616 C 0.17142 0.15315 0.5389 0.0
C617 C 0.1486 0.17606 0.49149 0.0
C618 C 0.1564 0.16806 0.50744 0.0
H619 H 0.17742 0.11258 0.54184 0.0
H620 H 0.16401 0.12478 0.5158 0.0
H621 H 0.19074 0.17392 0.52224 0.0
H622 H 0.15295 0.20446 0.40516 0.0
H623 H 0.16448 0.19027 0.42552 0.0
C624 C 0.86809 0.05278 0.57873 0.0
C625 C 0.88079 0.063 0.54848 0.0
C626 C 0.86184 0.03795 0.56691 0.0
C627 C 0.85713 0.01215 0.45015 0.0
H628 H 0.84845 0.9848 0.58121 0.0
C629 C 0.83109 0.95059 0.4028 0.0
C630 C 0.82148 0.94092 0.44613 0.0
C631 C 0.83937 0.96544 0.41551 0.0
C632 C 0.85054 0.99219 0.54397 0.0
H633 H 0.89687 0.06518 0.48227 0.0
H634 H 0.88547 0.03935 0.45976 0.0
H635 H 0.86051 0.01066 0.60293 0.0
H636 H 0.81277 0.93921 0.53623 0.0
H637 H 0.82659 0.96501 0.55762 0.0
H638 H 0.84657 0.99384 0.39133 0.0
C639 C 0.88051 0.04298 0.49304 0.0
C640 C 0.85757 0.00705 0.55656 0.0
C641 C 0.88697 0.05782 0.50579 0.0
C642 C 0.82028 0.94639 0.50233 0.0
C643 C 0.82831 0.96124 0.51463 0.0
C644 C 0.84981 0.99726 0.43762 0.0
C645 C 0.86791 0.0329 0.52359 0.0
C646 C 0.86091 0.01717 0.50983 0.0
C647 C 0.838 0.97105 0.47145 0.0
C648 C 0.84632 0.98701 0.48438 0.0
H649 H 0.86269 0.05619 0.61072 0.0
H650 H 0.85202 0.03041 0.59062 0.0
H651 H 0.85946 0.01973 0.41333 0.0
H652 H 0.83226 0.94664 0.35916 0.0
H653 H 0.84687 0.97249 0.38137 0.0
C654 C 0.95797 0.81502 0.57815 0.0
C655 C 0.94765 0.8171 0.54653 0.0
C656 C 0.97279 0.82364 0.56595 0.0
C657 C 0.99844 0.8441 0.44739 0.0
H658 H 0.02573 0.86412 0.57715 0.0
C659 C 0.05976 0.88053 0.39807 0.0
C660 C 0.06964 0.88124 0.44192 0.0
C661 C 0.04491 0.87367 0.41098 0.0
C662 C 0.01836 0.85843 0.5403 0.0
H663 H 0.94524 0.83031 0.47747 0.0
H664 H 0.97103 0.84479 0.45445 0.0
H665 H 0.99991 0.85001 0.5994 0.0
H666 H 0.07171 0.87508 0.53319 0.0
H667 H 0.0459 0.86259 0.55502 0.0
H668 H 0.01673 0.85179 0.38853 0.0
C669 C 0.96751 0.83649 0.48903 0.0
C670 C 1.00352 0.85043 0.55319 0.0
C671 C 0.9527 0.82809 0.5021 0.0
C672 C 0.06436 0.87492 0.49885 0.0
C673 C 0.04951 0.8678 0.51138 0.0
C674 C 0.01331 0.85184 0.43461 0.0
C675 C 0.9777 0.83437 0.52094 0.0
C676 C 0.99341 0.84317 0.5069 0.0
C677 C 0.0395 0.86704 0.46768 0.0
C678 C 0.02354 0.85911 0.48091 0.0
H679 H 0.95466 0.80652 0.61159 0.0
H680 H 0.98042 0.82168 0.59076 0.0
H681 H 0.99088 0.83849 0.41092 0.0
H682 H 0.06356 0.88537 0.35386 0.0
H683 H 0.0377 0.87365 0.37638 0.0
C684 C 0.79431 0.84667 0.48004 0.0
C685 C 0.80348 0.86105 0.46117 0.0
C686 C 0.80015 0.83798 0.49813 0.0
C687 C 0.83453 0.84041 0.54947 0.0
H688 H 0.82012 0.80269 0.47515 0.0
C689 C 0.87102 0.81618 0.51969 0.0
C690 C 0.86598 0.80177 0.53762 0.0
C691 C 0.86161 0.82167 0.51563 0.0
C692 C 0.82412 0.8131 0.49699 0.0
H693 H 0.82591 0.87772 0.44874 0.0
H694 H 0.83599 0.8628 0.48053 0.0
H695 H 0.8067 0.81572 0.46245 0.0
H696 H 0.84681 0.7816 0.56241 0.0
H697 H 0.83016 0.79127 0.55428 0.0
H698 H 0.85217 0.83812 0.58212 0.0
C699 C 0.82433 0.85813 0.48154 0.0
C700 C 0.81643 0.82055 0.48988 0.0
C701 C 0.81853 0.86669 0.46292 0.0
C702 C 0.85105 0.79275 0.54855 0.0
C703 C 0.84153 0.79828 0.54399 0.0
C704 C 0.84218 0.83304 0.55634 0.0
C705 C 0.81526 0.84361 0.49868 0.0
C706 C 0.82182 0.83452 0.51443 0.0
C707 C 0.84682 0.81293 0.52902 0.0
C708 C 0.83735 0.81951 0.52859 0.0
H709 H 0.78266 0.842 0.47877 0.0
H710 H 0.79287 0.82685 0.51132 0.0
H711 H 0.83882 0.85099 0.57014 0.0
H712 H 0.88238 0.82344 0.51012 0.0
H713 H 0.86597 0.8329 0.50259 0.0
C714 C 0.21812 0.06006 0.55037 0.0
C715 C 0.20936 0.06602 0.56528 0.0
C716 C 0.21182 0.04522 0.53702 0.0
C717 C 0.1772 0.01061 0.56195 0.0
H718 H 0.19191 0.99486 0.44113 0.0
C719 C 0.14286 0.95383 0.46028 0.0
C720 C 0.14906 0.94497 0.45371 0.0
C721 C 0.15124 0.96821 0.47888 0.0
C722 C 0.18781 0.99911 0.47561 0.0
H723 H 0.18719 0.06137 0.57382 0.0
H724 H 0.17628 0.03589 0.54843 0.0
H725 H 0.20464 0.02103 0.45981 0.0
H726 H 0.16892 0.9442 0.46196 0.0
H727 H 0.18377 0.96966 0.49366 0.0
H728 H 0.16012 0.9888 0.5762 0.0
C729 C 0.18798 0.04238 0.54934 0.0
C730 C 0.19509 0.0141 0.48634 0.0
C731 C 0.19424 0.05707 0.5633 0.0
C732 C 0.16384 0.95076 0.46719 0.0
C733 C 0.17234 0.96532 0.48475 0.0
C734 C 0.16988 0.99571 0.5508 0.0
C735 C 0.19665 0.03611 0.53787 0.0
C736 C 0.18969 0.02009 0.52879 0.0
C737 C 0.16611 0.97421 0.49047 0.0
C738 C 0.17494 0.98981 0.5068 0.0
H739 H 0.22981 0.06669 0.55191 0.0
H740 H 0.21886 0.0408 0.52845 0.0
H741 H 0.17294 0.01469 0.59639 0.0
H742 H 0.13151 0.94969 0.45021 0.0
H743 H 0.14615 0.9748 0.48241 0.0
C744 C 0.95744 0.14095 0.54531 0.0
C745 C 0.94691 0.14523 0.54249 0.0
C746 C 0.97214 0.15113 0.54141 0.0
C747 C 0.99916 0.18562 0.48264 0.0
H748 H 0.02301 0.18324 0.60983 0.0
C749 C 0.06253 0.21723 0.47314 0.0
C750 C 0.06863 0.20848 0.48615 0.0
C751 C 0.04782 0.21224 0.48548 0.0
C752 C 0.01654 0.18408 0.57389 0.0
H753 H 0.94371 0.16366 0.53108 0.0
H754 H 0.96974 0.18158 0.52249 0.0
H755 H 0.99671 0.16926 0.61824 0.0
H756 H 0.06421 0.18791 0.52442 0.0
H757 H 0.03894 0.17932 0.54562 0.0
H758 H 0.01907 0.19982 0.43658 0.0
C759 C 0.96639 0.17025 0.52861 0.0
C760 C 1.00148 0.17611 0.5789 0.0
C761 C 0.95153 0.16001 0.53357 0.0
C762 C 0.0599 0.19494 0.51363 0.0
C763 C 0.04536 0.19004 0.5263 0.0
C764 C 0.01433 0.19354 0.47728 0.0
C765 C 0.97682 0.16589 0.53373 0.0
C766 C 0.99262 0.17642 0.53251 0.0
C767 C 0.03904 0.1985 0.51183 0.0
C768 C 0.02318 0.19243 0.52193 0.0
H769 H 0.95438 0.12971 0.55208 0.0
H770 H 0.97993 0.14745 0.54468 0.0
H771 H 0.99256 0.18601 0.44617 0.0
H772 H 0.06897 0.2277 0.4517 0.0
H773 H 0.0433 0.21905 0.47401 0.0
C774 C 0.86656 0.47811 0.92992 0.0
C775 C 0.86186 0.46378 0.91096 0.0
C776 C 0.85831 0.48471 0.91809 0.0
C777 C 0.83331 0.48608 0.81217 0.0
H778 H 0.82229 0.50265 0.94378 0.0
C779 C 0.79968 0.51445 0.76851 0.0
C780 C 0.80214 0.52608 0.80618 0.0
C781 C 0.80601 0.50596 0.78169 0.0
C782 C 0.82546 0.49834 0.90614 0.0
H783 H 0.84445 0.44531 0.86434 0.0
H784 H 0.83047 0.45721 0.84118 0.0
H785 H 0.83527 0.48975 0.96558 0.0
H786 H 0.81345 0.5382 0.88611 0.0
H787 H 0.82503 0.52399 0.9076 0.0
H788 H 0.82429 0.49525 0.75218 0.0
C789 C 0.84055 0.46315 0.86599 0.0
C790 C 0.83279 0.49081 0.91891 0.0
C791 C 0.84864 0.45638 0.87905 0.0
C792 C 0.81119 0.52916 0.8568 0.0
C793 C 0.81775 0.52089 0.86928 0.0
C794 C 0.82626 0.49389 0.79916 0.0
C795 C 0.84528 0.47735 0.88568 0.0
C796 C 0.83684 0.48466 0.87208 0.0
C797 C 0.81521 0.50908 0.8322 0.0
C798 C 0.82229 0.50025 0.84595 0.0
H799 H 0.87682 0.48446 0.95285 0.0
H800 H 0.8623 0.49574 0.93309 0.0
H801 H 0.83644 0.48154 0.77518 0.0
H802 H 0.79267 0.51179 0.72936 0.0
H803 H 0.80351 0.49685 0.75248 0.0
C804 C 0.49373 0.28203 0.8884 0.0
C805 C 0.48713 0.27739 0.83144 0.0
C806 C 0.50235 0.29687 0.90118 0.0
C807 C 0.50925 0.33288 0.84468 0.0
H808 H 0.54245 0.34809 0.952 0.0
C809 C 0.54846 0.39425 0.86967 0.0
C810 C 0.55202 0.39968 0.92905 0.0
C811 C 0.54135 0.37932 0.85869 0.0
C812 C 0.53315 0.34397 0.92219 0.0
H813 H 0.48502 0.28457 0.74221 0.0
H814 H 0.50038 0.31025 0.76331 0.0
H815 H 0.52875 0.3221 0.93063 0.0
H816 H 0.55128 0.39362 0.02325 0.0
H817 H 0.53895 0.36749 1.00393 0.0
H818 H 0.51381 0.35477 0.83546 0.0
C819 C 0.49852 0.3026 0.79925 0.0
C820 C 0.52524 0.32905 0.91006 0.0
C821 C 0.48978 0.28784 0.78688 0.0
C822 C 0.54864 0.38979 0.97703 0.0
C823 C 0.54167 0.37484 0.96593 0.0
C824 C 0.51724 0.34776 0.85623 0.0
C825 C 0.5047 0.3074 0.85697 0.0
C826 C 0.51319 0.32328 0.87086 0.0
C827 C 0.53772 0.36942 0.9067 0.0
C828 C 0.52931 0.35352 0.89495 0.0
H829 H 0.49182 0.2742 0.92369 0.0
H830 H 0.5068 0.30008 0.9463 0.0
H831 H 0.49984 0.32891 0.81565 0.0
H832 H 0.55073 0.40152 0.8317 0.0
H833 H 0.53858 0.37551 0.81248 0.0
C834 C 0.73148 0.22104 0.79881 0.0
C835 C 0.73704 0.21383 0.76393 0.0
C836 C 0.7166 0.21455 0.81074 0.0
C837 C 0.68102 0.18832 0.75215 0.0
H838 H 0.66758 0.18278 0.91835 0.0
C839 C 0.62074 0.15061 0.81008 0.0
C840 C 0.61478 0.15353 0.86113 0.0
C841 C 0.63561 0.15872 0.79831 0.0
C842 C 0.67106 0.18446 0.87155 0.0
H843 H 0.73088 0.19383 0.71517 0.0
H844 H 0.70505 0.18302 0.73336 0.0
H845 H 0.69352 0.19598 0.89707 0.0
H846 H 0.61965 0.16741 0.93944 0.0
H847 H 0.64553 0.18207 0.9177 0.0
H848 H 0.65876 0.17727 0.72592 0.0
C849 C 0.7123 0.1937 0.75153 0.0
C850 C 0.68597 0.19198 0.8595 0.0
C851 C 0.72717 0.20002 0.74069 0.0
C852 C 0.62399 0.16488 0.89991 0.0
C853 C 0.63885 0.17321 0.88753 0.0
C854 C 0.66613 0.18107 0.76403 0.0
C855 C 0.70687 0.20083 0.78702 0.0
C856 C 0.69109 0.19379 0.79974 0.0
C857 C 0.64493 0.17021 0.83667 0.0
C858 C 0.66088 0.17878 0.82398 0.0
H859 H 0.73858 0.23176 0.8168 0.0
H860 H 0.71266 0.22032 0.83792 0.0
H861 H 0.68469 0.18971 0.70559 0.0
H862 H 0.61394 0.14177 0.77993 0.0
H863 H 0.63979 0.15574 0.75962 0.0
C864 C 0.46446 0.18475 0.79346 0.0
C865 C 0.47217 0.19711 0.75679 0.0
C866 C 0.46977 0.17521 0.80344 0.0
C867 C 0.49538 0.16476 0.73749 0.0
H868 H 0.49603 0.15032 0.89798 0.0
C869 C 0.53661 0.14801 0.80713 0.0
C870 C 0.53234 0.13578 0.84396 0.0
C871 C 0.52695 0.15284 0.79326 0.0
C872 C 0.49569 0.15404 0.85267 0.0
H873 H 0.49165 0.20918 0.70283 0.0
H874 H 0.50085 0.19282 0.7206 0.0
H875 H 0.48353 0.16407 0.88147 0.0
H876 H 0.51446 0.11883 0.89436 0.0
H877 H 0.49746 0.12747 0.87069 0.0
H878 H 0.50796 0.15523 0.70906 0.0
C879 C 0.49059 0.19027 0.74082 0.0
C880 C 0.48854 0.16194 0.8432 0.0
C881 C 0.48533 0.19975 0.73102 0.0
C882 C 0.518 0.12822 0.86545 0.0
C883 C 0.50834 0.13323 0.85235 0.0
C884 C 0.50254 0.15695 0.74697 0.0
C885 C 0.48285 0.17779 0.77664 0.0
C886 C 0.48869 0.16777 0.78581 0.0
C887 C 0.51278 0.14569 0.81645 0.0
C888 C 0.50315 0.15185 0.80498 0.0
H889 H 0.45428 0.18239 0.81406 0.0
H890 H 0.46352 0.1657 0.83124 0.0
H891 H 0.49539 0.16874 0.69234 0.0
H892 H 0.54757 0.15407 0.78983 0.0
H893 H 0.53079 0.16254 0.76608 0.0
C894 C 0.80966 0.28623 0.79189 0.0
C895 C 0.81603 0.2775 0.78664 0.0
C896 C 0.81805 0.30095 0.80546 0.0
C897 C 0.85393 0.32974 0.8616 0.0
H898 H 0.84269 0.35442 0.77611 0.0
C899 C 0.88546 0.3931 0.87829 0.0
C900 C 0.8765 0.39885 0.89316 0.0
C901 C 0.87936 0.37849 0.86135 0.0
C902 C 0.84598 0.34768 0.80033 0.0
H903 H 0.83616 0.27724 0.79397 0.0
H904 H 0.851 0.30317 0.81687 0.0
H905 H 0.82971 0.32847 0.75727 0.0
H906 H 0.85422 0.39398 0.89982 0.0
H907 H 0.84367 0.36878 0.86891 0.0
H908 H 0.87031 0.34921 0.90435 0.0
C909 C 0.83943 0.29856 0.81109 0.0
C910 C 0.83847 0.33276 0.78992 0.0
C911 C 0.83094 0.28369 0.79809 0.0
C912 C 0.86141 0.38988 0.88864 0.0
C913 C 0.85536 0.37544 0.87076 0.0
C914 C 0.86157 0.34477 0.87163 0.0
C915 C 0.83313 0.30745 0.81329 0.0
C916 C 0.84207 0.32351 0.82152 0.0
C917 C 0.86422 0.36949 0.85773 0.0
C918 C 0.85744 0.35385 0.84207 0.0
H919 H 0.79816 0.28175 0.78408 0.0
H920 H 0.81269 0.30728 0.80878 0.0
H921 H 0.85701 0.32298 0.88683 0.0
H922 H 0.89713 0.39973 0.88189 0.0
H923 H 0.88645 0.37421 0.85128 0.0
C924 C 0.6192 0.49404 0.88278 0.0
C925 C 0.61453 0.48031 0.90846 0.0
C926 C 0.63361 0.50266 0.86316 0.0
C927 C 0.66571 0.50014 0.81746 0.0
H928 H 0.68885 0.53959 0.87579 0.0
C929 C 0.72684 0.52635 0.83486 0.0
C930 C 0.73567 0.54047 0.81246 0.0
C931 C 0.71197 0.52063 0.84189 0.0
C932 C 0.68248 0.52867 0.85836 0.0
H933 H 0.62117 0.46472 0.93185 0.0
H934 H 0.64595 0.47949 0.8972 0.0
H935 H 0.66254 0.52631 0.89284 0.0
H936 H 0.73579 0.55993 0.78286 0.0
H937 H 0.70951 0.54984 0.79575 0.0
H938 H 0.68552 0.50223 0.78446 0.0
C939 C 0.63862 0.48369 0.89217 0.0
C940 C 0.66742 0.52108 0.86801 0.0
C941 C 0.62439 0.47524 0.91238 0.0
C942 C 0.72929 0.54902 0.80017 0.0
C943 C 0.71426 0.54324 0.80744 0.0
C944 C 0.68066 0.50768 0.80788 0.0
C945 C 0.64348 0.49756 0.86783 0.0
C946 C 0.65895 0.50656 0.84933 0.0
C947 C 0.7054 0.52881 0.8268 0.0
C948 C 0.68931 0.52185 0.82993 0.0
H949 H 0.61186 0.49828 0.87954 0.0
H950 H 0.63703 0.51329 0.84442 0.0
H951 H 0.65947 0.48909 0.80134 0.0
H952 H 0.73135 0.5195 0.84578 0.0
H953 H 0.70554 0.50964 0.85849 0.0
C954 C 0.47654 0.86168 0.14673 0.0
C955 C 0.46746 0.86311 0.18881 0.0
C956 C 0.48239 0.85278 0.15894 0.0
C957 C 0.47961 0.8237 0.26342 0.0
H958 H 0.51791 0.83598 0.19916 0.0
C959 C 0.51614 0.79921 0.33164 0.0
C960 C 0.52234 0.79568 0.28304 0.0
C961 C 0.50848 0.80656 0.32142 0.0
C962 C 0.50717 0.83236 0.21711 0.0
H963 H 0.45721 0.8562 0.27647 0.0
H964 H 0.4679 0.84104 0.29939 0.0
H965 H 0.50669 0.85063 0.18043 0.0
H966 H 0.52538 0.79713 0.1857 0.0
H967 H 0.51225 0.81015 0.16807 0.0
H968 H 0.48055 0.80565 0.30204 0.0
C969 C 0.47025 0.8465 0.25604 0.0
C970 C 0.50064 0.84071 0.20606 0.0
C971 C 0.46415 0.85524 0.24317 0.0
C972 C 0.52058 0.79953 0.22401 0.0
C973 C 0.51317 0.80709 0.21395 0.0
C974 C 0.4863 0.81546 0.27539 0.0
C975 C 0.4796 0.84526 0.21429 0.0
C976 C 0.48667 0.83644 0.22828 0.0
C977 C 0.50714 0.8108 0.26254 0.0
C978 C 0.50007 0.81963 0.25171 0.0
H979 H 0.47909 0.86747 0.10403 0.0
H980 H 0.48911 0.85182 0.12463 0.0
H981 H 0.46881 0.8199 0.28083 0.0
H982 H 0.51732 0.79639 0.3776 0.0
H983 H 0.504 0.80935 0.35974 0.0
C984 C 0.22398 0.7284 0.1893 0.0
C985 C 0.21773 0.73412 0.22903 0.0
C986 C 0.21712 0.71348 0.17763 0.0
C987 C 0.19177 0.67801 0.24157 0.0
H988 H 0.18346 0.66438 0.07574 0.0
C989 C 0.15291 0.61765 0.18709 0.0
C990 C 0.15507 0.61167 0.13416 0.0
C991 C 0.16125 0.63252 0.19862 0.0
C992 C 0.18591 0.66792 0.12235 0.0
H993 H 0.19903 0.72819 0.28678 0.0
H994 H 0.18763 0.70231 0.26864 0.0
H995 H 0.19714 0.69033 0.09624 0.0
H996 H 0.16787 0.61653 0.05239 0.0
H997 H 0.18288 0.64237 0.07345 0.0
H998 H 0.18098 0.65576 0.26819 0.0
C999 C 0.19784 0.70945 0.24655 0.0
C1000 C 0.19371 0.68284 0.13398 0.0
C1001 C 0.20451 0.72436 0.25728 0.0
C1002 C 0.1659 0.62086 0.09337 0.0
C1003 C 0.17444 0.63572 0.10538 0.0
C1004 C 0.18422 0.6631 0.23 0.0
C1005 C 0.204 0.70386 0.20629 0.0
C1006 C 0.19655 0.68804 0.19373 0.0
C1007 C 0.17218 0.64182 0.15803 0.0
C1008 C 0.18096 0.65779 0.17021 0.0
H1009 H 0.23423 0.73541 0.16728 0.0
H1010 H 0.22216 0.70943 0.14668 0.0
H1011 H 0.19396 0.68173 0.28808 0.0
H1012 H 0.14449 0.61087 0.21893 0.0
H1013 H 0.15886 0.63673 0.2389 0.0
C1014 C 0.3955 0.55504 0.12844 0.0
C1015 C 0.40137 0.54824 0.09282 0.0
C1016 C 0.3806 0.54811 0.14071 0.0
C1017 C 0.34515 0.5208 0.08367 0.0
H1018 H 0.33238 0.51525 0.25084 0.0
C1019 C 0.28546 0.4815 0.14658 0.0
C1020 C 0.27949 0.48431 0.19795 0.0
C1021 C 0.30024 0.49 0.13357 0.0
C1022 C 0.33566 0.51691 0.20379 0.0
H1023 H 0.39574 0.52853 0.04272 0.0
H1024 H 0.36987 0.51695 0.06163 0.0
H1025 H 0.35818 0.52926 0.22761 0.0
H1026 H 0.28427 0.4984 0.27546 0.0
H1027 H 0.30994 0.5137 0.25162 0.0
H1028 H 0.32278 0.5089 0.05915 0.0
C1029 C 0.37689 0.52764 0.08013 0.0
C1030 C 0.3505 0.52491 0.19061 0.0
C1031 C 0.39178 0.53441 0.0689 0.0
C1032 C 0.2886 0.49593 0.23576 0.0
C1033 C 0.30336 0.50464 0.22216 0.0
C1034 C 0.33031 0.51306 0.09668 0.0
C1035 C 0.37116 0.53434 0.11665 0.0
C1036 C 0.35539 0.52675 0.13047 0.0
C1037 C 0.30945 0.50176 0.17099 0.0
C1038 C 0.32531 0.51078 0.15702 0.0
H1039 H 0.40237 0.56575 0.14694 0.0
H1040 H 0.37644 0.55356 0.16864 0.0
H1041 H 0.34863 0.5222 0.03684 0.0
H1042 H 0.27874 0.47247 0.11711 0.0
H1043 H 0.30444 0.48712 0.09467 0.0
C1044 C 0.12873 0.51495 0.14421 0.0
C1045 C 0.13893 0.52957 0.13222 0.0
C1046 C 0.13318 0.50458 0.14944 0.0
C1047 C 0.1614 0.49754 0.09576 0.0
H1048 H 0.15714 0.47587 0.24288 0.0
C1049 C 0.20182 0.47969 0.15963 0.0
C1050 C 0.19739 0.46654 0.18995 0.0
C1051 C 0.192 0.48437 0.14716 0.0
C1052 C 0.15814 0.48157 0.20091 0.0
H1053 H 0.16181 0.54467 0.11698 0.0
H1054 H 0.16934 0.5267 0.12484 0.0
H1055 H 0.14443 0.48967 0.23271 0.0
H1056 H 0.17899 0.44777 0.22973 0.0
H1057 H 0.16164 0.45605 0.20788 0.0
H1058 H 0.17532 0.48988 0.06416 0.0
C1059 C 0.15796 0.52324 0.13042 0.0
C1060 C 0.15089 0.48947 0.19521 0.0
C1061 C 0.15361 0.53356 0.12628 0.0
C1062 C 0.18271 0.45793 0.20607 0.0
C1063 C 0.17282 0.46272 0.19397 0.0
C1064 C 0.16851 0.48959 0.10116 0.0
C1065 C 0.14783 0.50865 0.14146 0.0
C1066 C 0.15291 0.49797 0.14346 0.0
C1067 C 0.1774 0.47608 0.16471 0.0
C1068 C 0.16748 0.48198 0.15477 0.0
H1069 H 0.11736 0.51154 0.14915 0.0
H1070 H 0.12517 0.49338 0.15818 0.0
H1071 H 0.16299 0.50385 0.05504 0.0
H1072 H 0.21302 0.48659 0.1464 0.0
H1073 H 0.19601 0.49481 0.1255 0.0
C1074 C 0.54724 0.72624 0.23684 0.0
C1075 C 0.53852 0.73144 0.26123 0.0
C1076 C 0.54116 0.71156 0.22102 0.0
C1077 C 0.50795 0.67571 0.25073 0.0
H1078 H 0.52126 0.66256 0.11448 0.0
C1079 C 0.47389 0.61996 0.13823 0.0
C1080 C 0.48053 0.61166 0.12674 0.0
C1081 C 0.482 0.63418 0.15921 0.0
C1082 C 0.51757 0.66609 0.15314 0.0
H1083 H 0.51652 0.72559 0.28464 0.0
H1084 H 0.50588 0.70042 0.25471 0.0
H1085 H 0.53334 0.68843 0.13856 0.0
H1086 H 0.50088 0.61172 0.12846 0.0
H1087 H 0.51524 0.63693 0.16395 0.0
H1088 H 0.49178 0.65344 0.26346 0.0
C1089 C 0.51748 0.70735 0.25014 0.0
C1090 C 0.52449 0.68092 0.16705 0.0
C1091 C 0.52357 0.72187 0.26676 0.0
C1092 C 0.49547 0.61783 0.13753 0.0
C1093 C 0.50369 0.63226 0.15729 0.0
C1094 C 0.50093 0.66098 0.23625 0.0
C1095 C 0.5262 0.70184 0.22859 0.0
C1096 C 0.5196 0.68598 0.21545 0.0
C1097 C 0.49701 0.64058 0.16804 0.0
C1098 C 0.50552 0.65602 0.18684 0.0
H1099 H 0.55883 0.73336 0.23242 0.0
H1100 H 0.54827 0.70777 0.20481 0.0
H1101 H 0.50411 0.67904 0.28955 0.0
H1102 H 0.4624 0.61549 0.13025 0.0
H1103 H 0.47658 0.64036 0.16678 0.0
C1104 C 0.39724 0.88468 0.12453 0.0
C1105 C 0.40278 0.87695 0.09367 0.0
C1106 C 0.38226 0.8785 0.13392 0.0
C1107 C 0.34667 0.84801 0.07944 0.0
H1108 H 0.33191 0.85391 0.23076 0.0
C1109 C 0.28983 0.80871 0.17366 0.0
C1110 C 0.28155 0.81454 0.1968 0.0
C1111 C 0.30414 0.81778 0.15515 0.0
C1112 C 0.33588 0.85233 0.18793 0.0
H1113 H 0.39688 0.85651 0.04974 0.0
H1114 H 0.37113 0.84569 0.0676 0.0
H1115 H 0.35801 0.86697 0.21165 0.0
H1116 H 0.28171 0.83445 0.2182 0.0
H1117 H 0.30702 0.8504 0.18722 0.0
H1118 H 0.32457 0.83282 0.05726 0.0
C1119 C 0.37816 0.85669 0.08298 0.0
C1120 C 0.35085 0.85984 0.17683 0.0
C1121 C 0.39303 0.86288 0.07317 0.0
C1122 C 0.2878 0.82968 0.19995 0.0
C1123 C 0.30229 0.83878 0.18273 0.0
C1124 C 0.33178 0.84037 0.09095 0.0
C1125 C 0.37249 0.86441 0.11299 0.0
C1126 C 0.35649 0.85755 0.1229 0.0
C1127 C 0.31062 0.83289 0.1606 0.0
C1128 C 0.32624 0.84226 0.1457 0.0
H1129 H 0.40446 0.89555 0.14081 0.0
H1130 H 0.37834 0.88485 0.15683 0.0
H1131 H 0.35049 0.84625 0.03661 0.0
H1132 H 0.28529 0.79708 0.17081 0.0
H1133 H 0.31032 0.81293 0.13864 0.0
C1134 C 0.11686 0.28244 0.36514 0.0
C1135 C 0.12644 0.27891 0.39419 0.0
C1136 C 0.12062 0.29705 0.35797 0.0
C1137 C 0.14468 0.33366 0.41972 0.0
H1138 H 0.14805 0.34816 0.25592 0.0
C1139 C 0.18902 0.38999 0.35161 0.0
C1140 C 0.18648 0.39827 0.30911 0.0
C1141 C 0.17828 0.37592 0.36583 0.0
C1142 C 0.14687 0.34429 0.3021 0.0
H1143 H 0.14704 0.28771 0.44066 0.0
H1144 H 0.15333 0.31288 0.42992 0.0
H1145 H 0.1348 0.32196 0.27472 0.0
H1146 H 0.17048 0.39838 0.24896 0.0
H1147 H 0.15151 0.3734 0.27333 0.0
H1148 H 0.15722 0.35583 0.44708 0.0
C1149 C 0.14303 0.30454 0.41211 0.0
C1150 C 0.13928 0.32929 0.31283 0.0
C1151 C 0.13946 0.29011 0.41797 0.0
C1152 C 0.17271 0.39226 0.28213 0.0
C1153 C 0.16192 0.37796 0.29579 0.0
C1154 C 0.15218 0.34858 0.40911 0.0
C1155 C 0.1338 0.30823 0.38131 0.0
C1156 C 0.13866 0.32383 0.37146 0.0
C1157 C 0.16465 0.36961 0.3376 0.0
C1158 C 0.15393 0.35408 0.34987 0.0
H1159 H 0.10681 0.27399 0.346 0.0
H1160 H 0.11333 0.29961 0.33392 0.0
H1161 H 0.1442 0.32977 0.4655 0.0
H1162 H 0.19949 0.3943 0.37341 0.0
H1163 H 0.18087 0.36977 0.39748 0.0
C1164 C 0.62264 0.80497 0.28098 0.0
C1165 C 0.61173 0.79152 0.30272 0.0
C1166 C 0.63716 0.80864 0.28334 0.0
C1167 C 0.66284 0.80427 0.37252 0.0
H1168 H 0.68807 0.82227 0.23453 0.0
C1169 C 0.72612 0.83625 0.39228 0.0
C1170 C 0.73257 0.84978 0.36293 0.0
C1171 C 0.71146 0.82596 0.38188 0.0
C1172 C 0.68121 0.81728 0.27361 0.0
H1173 H 0.60739 0.77129 0.34376 0.0
H1174 H 0.63313 0.77797 0.34983 0.0
H1175 H 0.66187 0.80984 0.22104 0.0
H1176 H 0.72873 0.86289 0.29845 0.0
H1177 H 0.70359 0.8453 0.28093 0.0
H1178 H 0.68222 0.81255 0.42587 0.0
C1179 C 0.63029 0.78551 0.32995 0.0
C1180 C 0.66619 0.81008 0.26571 0.0
C1181 C 0.61561 0.78166 0.32612 0.0
C1182 C 0.72418 0.85262 0.32206 0.0
C1183 C 0.7097 0.84242 0.31146 0.0
C1184 C 0.67793 0.81163 0.38061 0.0
C1185 C 0.6412 0.7991 0.30877 0.0
C1186 C 0.65685 0.80394 0.31537 0.0
C1187 C 0.70307 0.82897 0.34133 0.0
C1188 C 0.68729 0.81871 0.33157 0.0
H1189 H 0.61994 0.81278 0.26282 0.0
H1190 H 0.64532 0.81923 0.26722 0.0
H1191 H 0.65588 0.79969 0.41165 0.0
H1192 H 0.7323 0.83374 0.42411 0.0
H1193 H 0.70669 0.8157 0.40557 0.0
C1194 C 0.23354 0.84177 0.3162 0.0
C1195 C 0.22426 0.82867 0.28661 0.0
C1196 C 0.22952 0.85243 0.32258 0.0
C1197 C 0.20609 0.86511 0.25721 0.0
H1198 H 0.1999 0.87444 0.42025 0.0
C1199 C 0.16129 0.87754 0.31071 0.0
C1200 C 0.16302 0.88768 0.35535 0.0
C1201 C 0.17205 0.87401 0.30032 0.0
C1202 C 0.20187 0.87227 0.37437 0.0
H1203 H 0.20394 0.81661 0.23854 0.0
H1204 H 0.19725 0.8353 0.24742 0.0
H1205 H 0.21347 0.8617 0.40444 0.0
H1206 H 0.17763 0.90229 0.42352 0.0
H1207 H 0.19662 0.89599 0.40551 0.0
H1208 H 0.19418 0.87518 0.22687 0.0
C1209 C 0.20748 0.83735 0.26637 0.0
C1210 C 0.20964 0.86497 0.36537 0.0
C1211 C 0.21129 0.82664 0.26144 0.0
C1212 C 0.176 0.89447 0.38869 0.0
C1213 C 0.18682 0.8908 0.37859 0.0
C1214 C 0.19848 0.87249 0.2661 0.0
C1215 C 0.2164 0.85026 0.29783 0.0
C1216 C 0.21129 0.86081 0.30682 0.0
C1217 C 0.18492 0.88046 0.33433 0.0
C1218 C 0.19569 0.87558 0.3249 0.0
H1219 H 0.24352 0.84349 0.33653 0.0
H1220 H 0.23655 0.86229 0.34716 0.0
H1221 H 0.20735 0.86218 0.21156 0.0
H1222 H 0.15147 0.87211 0.28399 0.0
H1223 H 0.17004 0.86582 0.26671 0.0
C1224 C 0.39799 0.17297 0.70949 0.0
C1225 C 0.40331 0.18653 0.68134 0.0
C1226 C 0.38359 0.16197 0.70039 0.0
C1227 C 0.35052 0.14675 0.71111 0.0
H1228 H 0.3303 0.14199 0.55925 0.0
C1229 C 0.29073 0.13084 0.69893 0.0
C1230 C 0.28195 0.12228 0.65104 0.0
C1231 C 0.30539 0.13501 0.70141 0.0
C1232 C 0.33577 0.14294 0.60179 0.0
H1233 H 0.39797 0.19886 0.6188 0.0
H1234 H 0.37308 0.17983 0.60293 0.0
H1235 H 0.35673 0.15596 0.56183 0.0
H1236 H 0.28154 0.11092 0.56913 0.0
H1237 H 0.30741 0.11838 0.573 0.0
H1238 H 0.32955 0.13409 0.75138 0.0
C1239 C 0.37992 0.17758 0.63191 0.0
C1240 C 0.35093 0.15109 0.60341 0.0
C1241 C 0.3942 0.18857 0.64141 0.0
C1242 C 0.28804 0.11747 0.60671 0.0
C1243 C 0.30286 0.12183 0.60874 0.0
C1244 C 0.33537 0.13865 0.70952 0.0
C1245 C 0.37429 0.16425 0.66238 0.0
C1246 C 0.35848 0.15349 0.65846 0.0
C1247 C 0.31175 0.13085 0.65571 0.0
C1248 C 0.32778 0.13705 0.65523 0.0
H1249 H 0.40474 0.17109 0.74062 0.0
H1250 H 0.37963 0.15179 0.72418 0.0
H1251 H 0.35592 0.14841 0.75435 0.0
H1252 H 0.28636 0.13468 0.73395 0.0
H1253 H 0.31189 0.1421 0.73779 0.0
C1254 C 0.84399 0.22679 0.72679 0.0
C1255 C 0.83149 0.22078 0.69037 0.0
C1256 C 0.85466 0.22287 0.7177 0.0
C1257 C 0.8672 0.20549 0.60445 0.0
H1258 H 0.87873 0.19129 0.74316 0.0
C1259 C 0.87734 0.15796 0.59215 0.0
C1260 C 0.88937 0.15866 0.62131 0.0
C1261 C 0.8742 0.16912 0.59846 0.0
C1262 C 0.87589 0.19551 0.7041 0.0
H1263 H 0.82071 0.20649 0.61441 0.0
H1264 H 0.83908 0.19981 0.59859 0.0
H1265 H 0.86593 0.2048 0.75874 0.0
H1266 H 0.90767 0.17161 0.67976 0.0
H1267 H 0.90186 0.19118 0.69263 0.0
H1268 H 0.87627 0.1954 0.5498 0.0
C1269 C 0.84081 0.20754 0.63402 0.0
C1270 C 0.86856 0.20325 0.71298 0.0
C1271 C 0.83017 0.21129 0.64349 0.0
C1272 C 0.89842 0.17092 0.65633 0.0
C1273 C 0.89505 0.18202 0.66396 0.0
C1274 C 0.87438 0.19769 0.59564 0.0
C1275 C 0.85312 0.21311 0.67133 0.0
C1276 C 0.8636 0.2078 0.66311 0.0
C1277 C 0.88284 0.18116 0.63518 0.0
C1278 C 0.87831 0.19213 0.64525 0.0
H1279 H 0.84527 0.23409 0.76343 0.0
H1280 H 0.86404 0.22737 0.74717 0.0
H1281 H 0.86383 0.20912 0.56505 0.0
H1282 H 0.87018 0.14862 0.56498 0.0
H1283 H 0.86464 0.16806 0.5763 0.0
C1284 C 0.80569 0.62321 0.75279 0.0
C1285 C 0.79316 0.61205 0.72562 0.0
C1286 C 0.80918 0.63762 0.7472 0.0
C1287 C 0.80668 0.66274 0.64537 0.0
H1288 H 0.82196 0.68859 0.78331 0.0
C1289 C 0.83944 0.72581 0.61978 0.0
C1290 C 0.85268 0.73205 0.65127 0.0
C1291 C 0.82866 0.71138 0.6314 0.0
C1292 C 0.81769 0.68155 0.74425 0.0
H1293 H 0.77432 0.60719 0.67151 0.0
H1294 H 0.78072 0.63279 0.66 0.0
H1295 H 0.80918 0.66245 0.79915 0.0
H1296 H 0.86469 0.72836 0.72149 0.0
H1297 H 0.8461 0.7036 0.742 0.0
H1298 H 0.81599 0.68191 0.59018 0.0
C1299 C 0.78768 0.63021 0.6865 0.0
C1300 C 0.81032 0.66656 0.7534 0.0
C1301 C 0.78398 0.6156 0.69337 0.0
C1302 C 0.85463 0.72387 0.6963 0.0
C1303 C 0.84388 0.70965 0.70841 0.0
C1304 C 0.81416 0.67781 0.63613 0.0
C1305 C 0.80038 0.64136 0.71327 0.0
C1306 C 0.80521 0.65698 0.70398 0.0
C1307 C 0.83085 0.70309 0.67552 0.0
C1308 C 0.82027 0.68738 0.68537 0.0
H1309 H 0.81296 0.62078 0.7779 0.0
H1310 H 0.81912 0.64594 0.76774 0.0
H1311 H 0.80293 0.65562 0.60639 0.0
H1312 H 0.83769 0.73185 0.58453 0.0
H1313 H 0.81872 0.70666 0.60538 0.0
C1314 C 0.06494 0.50463 0.01932 0.0
C1315 C 0.06823 0.51684 0.05485 0.0
C1316 C 0.05045 0.49357 0.01183 0.0
C1317 C 0.01427 0.47785 0.08122 0.0
H1318 H 0.99844 0.47126 0.91866 0.0
C1319 C 0.95644 0.46459 0.03633 0.0
C1320 C 0.94821 0.45532 0.98897 0.0
C1321 C 0.97081 0.46823 0.04521 0.0
C1322 C 1.00268 0.47266 0.96425 0.0
H1323 H 0.05922 0.52684 0.11225 0.0
H1324 H 0.03421 0.50746 0.10116 0.0
H1325 H 0.02476 0.48463 0.9335 0.0
H1326 H 0.94855 0.44229 0.91444 0.0
H1327 H 0.97401 0.44882 0.92971 0.0
H1328 H 0.99234 0.4664 0.11242 0.0
C1329 C 0.04266 0.50641 0.07849 0.0
C1330 C 0.01776 0.48033 0.9727 0.0
C1331 C 0.05697 0.51753 0.08465 0.0
C1332 C 0.95462 0.44942 0.95147 0.0
C1333 C 0.96919 0.45323 0.96 0.0
C1334 C 0.99927 0.47012 0.07283 0.0
C1335 C 0.03917 0.49442 0.04127 0.0
C1336 C 0.02366 0.48351 0.03141 0.0
C1337 C 0.97748 0.46278 1.00683 0.0
C1338 C 0.99326 0.468 0.0144 0.0
H1339 H 0.07346 0.50395 0.99542 0.0
H1340 H 0.04804 0.48446 0.98277 0.0
H1341 H 0.01852 0.48 0.12695 0.0
H1342 H 0.95184 0.4693 0.06625 0.0
H1343 H 0.97686 0.4758 0.08105 0.0
C1344 C 0.50904 0.56269 0.03056 0.0
C1345 C 0.49531 0.55314 0.05487 0.0
C1346 C 0.51957 0.55845 0.02611 0.0
C1347 C 0.5302 0.53332 0.09042 0.0
H1348 H 0.54288 0.52982 0.92984 0.0
C1349 C 0.54351 0.48923 0.0351 0.0
C1350 C 0.55476 0.49171 0.99497 0.0
C1351 C 0.53963 0.49976 0.04486 0.0
C1352 C 0.53975 0.53102 0.97519 0.0
H1353 H 0.482 0.53204 0.09567 0.0
H1354 H 0.50042 0.52492 0.09016 0.0
H1355 H 0.53014 0.54345 0.94414 0.0
H1356 H 0.57088 0.50739 0.93386 0.0
H1357 H 0.56397 0.52599 0.9508 0.0
H1358 H 0.53932 0.52061 0.12159 0.0
C1359 C 0.50306 0.53556 0.0738 0.0
C1360 C 0.53245 0.53882 0.98333 0.0
C1361 C 0.4925 0.53961 0.07679 0.0
C1362 C 0.56218 0.50516 0.96515 0.0
C1363 C 0.55819 0.51577 0.97466 0.0
C1364 C 0.53756 0.52567 0.08245 0.0
C1365 C 0.51662 0.54479 0.04758 0.0
C1366 C 0.52711 0.53954 0.04069 0.0
C1367 C 0.54685 0.51316 0.01481 0.0
C1368 C 0.54187 0.52386 0.02437 0.0
H1369 H 0.51139 0.57312 0.01279 0.0
H1370 H 0.52995 0.56575 1.00561 0.0
H1371 H 0.52635 0.53385 0.13525 0.0
H1372 H 0.53752 0.47903 0.05899 0.0
H1373 H 0.53066 0.4972 0.07507 0.0
C1374 C 0.52444 0.05512 0.91808 0.0
C1375 C 0.52181 0.06609 0.9384 0.0
C1376 C 0.51383 0.04058 0.92299 0.0
C1377 C 0.48393 0.01524 0.01517 0.0
H1378 H 0.47806 0.98899 0.88257 0.0
C1379 C 0.45423 0.95244 0.0468 0.0
C1380 C 0.46211 0.94621 0.02297 0.0
C1381 C 0.45801 0.96672 0.03155 0.0
C1382 C 0.47952 0.99614 0.9201 0.0
H1383 H 0.50593 0.07043 0.9795 0.0
H1384 H 0.48726 0.04462 0.98993 0.0
H1385 H 0.49117 0.01507 0.86497 0.0
H1386 H 0.47962 0.94981 0.96248 0.0
H1387 H 0.48606 0.97438 0.9358 0.0
H1388 H 0.47299 0.99628 0.07112 0.0
C1389 C 0.49757 0.04746 0.96937 0.0
C1390 C 0.48699 0.01109 0.90991 0.0
C1391 C 0.50818 0.06218 0.96315 0.0
C1392 C 0.47334 0.95428 0.98172 0.0
C1393 C 0.47697 0.96838 0.96605 0.0
C1394 C 0.47649 1.00022 0.02551 0.0
C1395 C 0.50034 0.03652 0.94931 0.0
C1396 C 0.48975 0.02083 0.95774 0.0
C1397 C 0.46956 0.97492 0.99145 0.0
C1398 C 0.47471 0.99052 0.97854 0.0
H1399 H 0.53481 0.05779 0.8986 0.0
H1400 H 0.51638 0.03244 0.90779 0.0
H1401 H 0.48596 0.02249 0.05296 0.0
H1402 H 0.44559 0.94651 0.07904 0.0
H1403 H 0.45203 0.97142 0.05173 0.0
C1404 C 0.11226 0.25053 0.68924 0.0
C1405 C 0.12093 0.24546 0.6633 0.0
C1406 C 0.10986 0.24956 0.75209 0.0
C1407 C 0.10631 0.22787 0.88234 0.0
H1408 H 0.12166 0.26207 0.98385 0.0
C1409 C 0.10897 0.22258 0.13952 0.0
C1410 C 0.10693 0.2319 0.17789 0.0
C1411 C 0.11058 0.22504 0.07717 0.0
C1412 C 0.11705 0.25238 0.95634 0.0
H1413 H 0.13349 0.23503 0.68193 0.0
H1414 H 0.12887 0.23284 0.79106 0.0
H1415 H 0.12365 0.26466 0.87347 0.0
H1416 H 0.10524 0.25125 0.18167 0.0
H1417 H 0.10746 0.25536 0.07182 0.0
H1418 H 0.0993 0.21545 0.96368 0.0
C1419 C 0.12421 0.23784 0.76319 0.0
C1420 C 0.11824 0.2539 0.89308 0.0
C1421 C 0.12688 0.23914 0.70094 0.0
C1422 C 0.10689 0.24398 0.15284 0.0
C1423 C 0.10819 0.24631 0.08991 0.0
C1424 C 0.10485 0.22631 0.94521 0.0
C1425 C 0.11577 0.24313 0.78946 0.0
C1426 C 0.11313 0.24165 0.85571 0.0
C1427 C 0.10982 0.23671 0.05097 0.0
C1428 C 0.11051 0.23854 0.98345 0.0
H1429 H 0.1076 0.25547 0.66103 0.0
H1430 H 0.10326 0.25365 0.77142 0.0
H1431 H 0.10218 0.21826 0.85436 0.0
H1432 H 0.10925 0.21331 0.158 0.0
H1433 H 0.11235 0.21768 0.04956 0.0
C1434 C 0.77069 0.89329 0.68628 0.0
C1435 C 0.76826 0.88162 0.64871 0.0
C1436 C 0.77202 0.89252 0.749 0.0
C1437 C 0.77949 0.87232 0.86747 0.0
H1438 H 0.76318 0.88915 0.97547 0.0
C1439 C 0.77389 0.86088 0.12345 0.0
C1440 C 0.77795 0.87261 0.16327 0.0
C1441 C 0.77283 0.86247 0.06124 0.0
C1442 C 0.76793 0.88454 0.94589 0.0
H1443 H 0.76513 0.85992 0.64796 0.0
H1444 H 0.76722 0.85845 0.75747 0.0
H1445 H 0.7609 0.89067 0.86603 0.0
H1446 H 0.78377 0.8952 0.16815 0.0
H1447 H 0.78173 0.89794 0.059 0.0
H1448 H 0.78631 0.86599 0.94738 0.0
C1449 C 0.76841 0.86834 0.73835 0.0
C1450 C 0.76664 0.88541 0.88308 0.0
C1451 C 0.76717 0.86915 0.6755 0.0
C1452 C 0.78055 0.88592 0.13902 0.0
C1453 C 0.77939 0.88749 0.07648 0.0
C1454 C 0.7807 0.87137 0.93016 0.0
C1455 C 0.77088 0.88003 0.77599 0.0
C1456 C 0.77235 0.87925 0.84298 0.0
C1457 C 0.77569 0.87581 0.03683 0.0
C1458 C 0.77486 0.87739 0.97016 0.0
H1459 H 0.77186 0.90317 0.66713 0.0
H1460 H 0.7742 0.90185 0.7762 0.0
H1461 H 0.78431 0.86772 0.83821 0.0
H1462 H 0.7714 0.85034 0.14014 0.0
H1463 H 0.76963 0.85317 0.03218 0.0
C1464 C 0.12981 0.87929 0.68305 0.0
C1465 C 0.13044 0.88992 0.64335 0.0
C1466 C 0.13018 0.88124 0.74582 0.0
C1467 C 0.14095 0.90972 0.86268 0.0
H1468 H 0.11747 0.87722 0.96853 0.0
C1469 C 0.14995 0.91386 0.11976 0.0
C1470 C 0.13777 0.90765 0.15798 0.0
C1471 C 0.1485 0.91121 0.05757 0.0
C1472 C 0.12399 0.88644 0.9396 0.0
H1473 H 0.1317 0.91084 0.6389 0.0
H1474 H 0.1323 0.91424 0.74816 0.0
H1475 H 0.11579 0.87374 0.85888 0.0
H1476 H 0.11452 0.89347 0.16085 0.0
H1477 H 0.1119 0.88886 0.05148 0.0
H1478 H 0.14896 0.92249 0.94302 0.0
C1479 C 0.13178 0.90449 0.7308 0.0
C1480 C 0.12317 0.88441 0.87672 0.0
C1481 C 0.13146 0.90256 0.66803 0.0
C1482 C 0.1241 0.89836 0.13257 0.0
C1483 C 0.12262 0.89573 0.06998 0.0
C1484 C 0.14176 0.91175 0.92538 0.0
C1485 C 0.13114 0.89385 0.77056 0.0
C1486 C 0.13171 0.89601 0.83746 0.0
C1487 C 0.13481 0.9023 0.03162 0.0
C1488 C 0.1334 0.90012 0.96473 0.0
H1489 H 0.12921 0.86952 0.6656 0.0
H1490 H 0.12993 0.87294 0.77495 0.0
H1491 H 0.14778 0.91888 0.83402 0.0
H1492 H 0.1607 0.92074 0.13791 0.0
H1493 H 0.15817 0.91613 0.02979 0.0
C1494 C 0.23985 0.09434 0.89872 0.0
C1495 C 0.23642 0.10249 0.8587 0.0
C1496 C 0.24089 0.09695 0.96096 0.0
C1497 C 0.24705 0.12438 0.07584 0.0
H1498 H 0.22907 0.09128 0.18392 0.0
C1499 C 0.24441 0.13088 0.33502 0.0
C1500 C 0.24617 0.12127 0.37297 0.0
C1501 C 0.24305 0.12875 0.27233 0.0
C1502 C 0.23433 0.10065 0.15454 0.0
H1503 H 0.23161 0.11998 0.85363 0.0
H1504 H 0.23366 0.12468 0.9627 0.0
H1505 H 0.22708 0.0875 0.07477 0.0
H1506 H 0.24809 0.10197 0.3745 0.0
H1507 H 0.24596 0.09834 0.26507 0.0
H1508 H 0.25453 0.13754 0.15552 0.0
C1509 C 0.23553 0.11625 0.94536 0.0
C1510 C 0.23314 0.09847 0.09188 0.0
C1511 C 0.23438 0.11356 0.88283 0.0
C1512 C 0.24657 0.10947 0.34664 0.0
C1513 C 0.24531 0.10739 0.28384 0.0
C1514 C 0.24834 0.12656 0.13861 0.0
C1515 C 0.23865 0.10785 0.98516 0.0
C1516 C 0.23954 0.1103 0.05177 0.0
C1517 C 0.24351 0.11699 0.24579 0.0
C1518 C 0.24204 0.11471 0.17885 0.0
H1519 H 0.24188 0.08597 0.88218 0.0
H1520 H 0.24362 0.09049 0.99021 0.0
H1521 H 0.25224 0.1337 0.04615 0.0
H1522 H 0.2438 0.13993 0.35385 0.0
H1523 H 0.2414 0.13622 0.24479 0.0
C1524 C 0.89684 0.13224 0.85991 0.0
C1525 C 0.90988 0.13366 0.83789 0.0
C1526 C 0.89502 0.13368 0.92201 0.0
C1527 C 0.91546 0.14715 0.06757 0.0
H1528 H 0.87882 0.1194 0.14009 0.0
C1529 C 0.90772 0.13631 0.32691 0.0
C1530 C 0.89443 0.13339 0.35249 0.0
C1531 C 0.90985 0.13788 0.26402 0.0
C1532 C 0.88907 0.12737 0.12059 0.0
H1533 H 0.93146 0.13848 0.86405 0.0
H1534 H 0.9282 0.14064 0.97151 0.0
H1535 H 0.88187 0.11948 0.03081 0.0
H1536 H 0.87333 0.13071 0.33191 0.0
H1537 H 0.87704 0.13343 0.22286 0.0
H1538 H 0.92273 0.15483 0.15774 0.0
C1539 C 0.91937 0.13849 0.94112 0.0
C1540 C 0.89081 0.12744 0.0577 0.0
C1541 C 0.92118 0.13705 0.8793 0.0
C1542 C 0.88358 0.13264 0.31379 0.0
C1543 C 0.8857 0.13418 0.25112 0.0
C1544 C 0.91373 0.14704 0.13053 0.0
C1545 C 0.90621 0.13665 0.96359 0.0
C1546 C 0.90407 0.13724 0.03028 0.0
C1547 C 0.89876 0.13656 0.2252 0.0
C1548 C 0.90054 0.13709 0.15795 0.0
H1549 H 0.8879 0.12959 0.8295 0.0
H1550 H 0.88479 0.13238 0.93747 0.0
H1551 H 0.92576 0.15502 0.04812 0.0
H1552 H 0.91626 0.13683 0.35514 0.0
H1553 H 0.92002 0.1396 0.24566 0.0
C1554 C 0.86888 0.7653 0.3315 0.0
C1555 C 0.87865 0.76127 0.35519 0.0
C1556 C 0.86768 0.76657 0.26872 0.0
C1557 C 0.87472 0.77751 0.13761 0.0
H1558 H 0.87739 0.75058 0.02754 0.0
C1559 C 0.88785 0.79056 0.88415 0.0
C1560 C 0.88066 0.77943 0.84129 0.0
C1561 C 0.88638 0.78756 0.94621 0.0
C1562 C 0.87648 0.75812 0.05751 0.0
H1563 H 0.89489 0.75558 0.32967 0.0
H1564 H 0.89267 0.75764 0.22174 0.0
H1565 H 0.87644 0.74643 0.13656 0.0
H1566 H 0.8663 0.75631 0.83089 0.0
H1567 H 0.86377 0.75103 0.93951 0.0
H1568 H 0.87475 0.7892 0.05862 0.0
C1569 C 0.88576 0.75961 0.25155 0.0
C1570 C 0.87609 0.75583 0.12016 0.0
C1571 C 0.88702 0.75841 0.31402 0.0
C1572 C 0.8721 0.76514 0.86242 0.0
C1573 C 0.87064 0.76212 0.92478 0.0
C1574 C 0.87517 0.77983 0.07499 0.0
C1575 C 0.87614 0.76377 0.22792 0.0
C1576 C 0.8754 0.7656 0.16112 0.0
C1577 C 0.87769 0.77332 0.96753 0.0
C1578 C 0.87625 0.77028 0.03407 0.0
H1579 H 0.86212 0.76745 0.36128 0.0
H1580 H 0.86005 0.76967 0.25211 0.0
H1581 H 0.87429 0.78532 0.16767 0.0
H1582 H 0.89479 0.80165 0.86985 0.0
H1583 H 0.89226 0.79643 0.97755 0.0
C1584 C 0.79304 0.57234 0.033 0.0
C1585 C 0.78734 0.57901 0.996 0.0
C1586 C 0.79032 0.57089 0.0952 0.0
C1587 C 0.78444 0.587 0.22587 0.0
H1588 H 0.76647 0.54855 0.29626 0.0
C1589 C 0.77392 0.57671 0.48602 0.0
C1590 C 0.77456 0.56487 0.51038 0.0
C1591 C 0.77494 0.57908 0.42312 0.0
C1592 C 0.77173 0.55942 0.2778 0.0
H1593 H 0.77439 0.58944 0.99464 0.0
H1594 H 0.76997 0.58732 0.10503 0.0
H1595 H 0.76902 0.55141 0.18687 0.0
H1596 H 0.77767 0.54681 0.48919 0.0
H1597 H 0.78024 0.55127 0.38077 0.0
H1598 H 0.78789 0.59512 0.31675 0.0
C1599 C 0.7764 0.58309 0.08526 0.0
C1600 C 0.77302 0.561 0.21492 0.0
C1601 C 0.77884 0.58423 0.02243 0.0
C1602 C 0.77691 0.55588 0.47131 0.0
C1603 C 0.77822 0.55838 0.40898 0.0
C1604 C 0.78341 0.58545 0.28914 0.0
C1605 C 0.78209 0.57634 0.12206 0.0
C1606 C 0.77951 0.57479 0.18836 0.0
C1607 C 0.77687 0.56977 0.38353 0.0
C1608 C 0.77726 0.57162 0.31611 0.0
H1609 H 0.79953 0.56814 0.01351 0.0
H1610 H 0.79483 0.56566 0.12259 0.0
H1611 H 0.78959 0.59777 0.20634 0.0
H1612 H 0.77202 0.58373 0.51538 0.0
H1613 H 0.77378 0.58793 0.40556 0.0
C1614 C 0.43839 0.20466 0.48697 0.0
C1615 C 0.45218 0.21491 0.50858 0.0
C1616 C 0.43608 0.20153 0.42486 0.0
C1617 C 0.4551 0.20557 0.27791 0.0
H1618 H 0.42131 0.20485 0.20892 0.0
C1619 C 0.44891 0.21213 0.01987 0.0
C1620 C 0.43495 0.20452 0.99458 0.0
C1621 C 0.45094 0.21182 0.08257 0.0
C1622 C 0.4307 0.20478 0.22732 0.0
H1623 H 0.47449 0.22925 0.48237 0.0
H1624 H 0.4705 0.2239 0.3746 0.0
H1625 H 0.42473 0.20655 0.31816 0.0
H1626 H 0.41231 0.1899 0.01508 0.0
H1627 H 0.41582 0.1892 0.12366 0.0
H1628 H 0.46115 0.20399 0.18685 0.0
C1629 C 0.46144 0.21825 0.40527 0.0
C1630 C 0.43265 0.20574 0.2902 0.0
C1631 C 0.46371 0.22143 0.4671 0.0
C1632 C 0.42317 0.19613 0.03316 0.0
C1633 C 0.42519 0.19576 0.09558 0.0
C1634 C 0.45314 0.20458 0.21494 0.0
C1635 C 0.44754 0.20849 0.38306 0.0
C1636 C 0.44495 0.2063 0.31638 0.0
C1637 C 0.43905 0.20382 0.12142 0.0
C1638 C 0.44096 0.20429 0.18869 0.0
H1639 H 0.42927 0.19952 0.51768 0.0
H1640 H 0.42526 0.19382 0.40946 0.0
H1641 H 0.46462 0.20579 0.2965 0.0
H1642 H 0.4582 0.21879 0.99158 0.0
H1643 H 0.46176 0.21827 0.10075 0.0
C1644 C 0.81852 0.24918 0.45002 0.0
C1645 C 0.80696 0.24074 0.48959 0.0
C1646 C 0.81723 0.24647 0.38782 0.0
C1647 C 0.7967 0.21872 0.27226 0.0
H1648 H 0.8113 0.25184 0.16443 0.0
C1649 C 0.78726 0.21236 0.01313 0.0
C1650 C 0.79852 0.22207 0.97495 0.0
C1651 C 0.78815 0.2144 0.07589 0.0
C1652 C 0.80735 0.24247 0.19375 0.0
H1653 H 0.78503 0.22258 0.4942 0.0
H1654 H 0.7828 0.21775 0.38515 0.0
H1655 H 0.81294 0.25556 0.27359 0.0
H1656 H 0.81965 0.24145 0.97324 0.0
H1657 H 0.82132 0.24497 0.08278 0.0
H1658 H 0.79125 0.20563 0.19241 0.0
C1659 C 0.7929 0.22648 0.40272 0.0
C1660 C 0.80825 0.2446 0.25644 0.0
C1661 C 0.79417 0.22923 0.46522 0.0
C1662 C 0.81072 0.23387 1.00121 0.0
C1663 C 0.81164 0.23589 0.06409 0.0
C1664 C 0.79587 0.21658 0.20945 0.0
C1665 C 0.80436 0.2352 0.36322 0.0
C1666 C 0.80299 0.23277 0.2965 0.0
C1667 C 0.80035 0.2262 0.10231 0.0
C1668 C 0.80122 0.22843 0.16931 0.0
H1669 H 0.82869 0.25788 0.46693 0.0
H1670 H 0.82639 0.25319 0.35893 0.0
H1671 H 0.79271 0.20939 0.30184 0.0
H1672 H 0.77758 0.20329 0.99449 0.0
H1673 H 0.77911 0.20687 0.10358 0.0
C1674 C 0.90172 0.44113 0.67836 0.0
C1675 C 0.91343 0.45369 0.70307 0.0
C1676 C 0.90018 0.43915 0.6156 0.0
C1677 C 0.91215 0.45908 0.46947 0.0
H1678 H 0.8991 0.42078 0.40391 0.0
C1679 C 0.89909 0.44526 0.21384 0.0
C1680 C 0.90311 0.43568 0.18848 0.0
C1681 C 0.90027 0.44786 0.27643 0.0
C1682 C 0.90286 0.43158 0.42134 0.0
H1683 H 0.93282 0.4739 0.68093 0.0
H1684 H 0.93025 0.47038 0.5716 0.0
H1685 H 0.90153 0.42447 0.51288 0.0
H1686 H 0.91226 0.42198 0.20869 0.0
H1687 H 0.91441 0.42657 0.31688 0.0
H1688 H 0.91386 0.46625 0.37755 0.0
C1689 C 0.92207 0.46219 0.60067 0.0
C1690 C 0.90407 0.43366 0.48403 0.0
C1691 C 0.92358 0.46419 0.66343 0.0
C1692 C 0.90871 0.42911 0.2268 0.0
C1693 C 0.90993 0.43175 0.28902 0.0
C1694 C 0.91095 0.45701 0.40663 0.0
C1695 C 0.91034 0.44965 0.57588 0.0
C1696 C 0.9088 0.44744 0.50899 0.0
C1697 C 0.90555 0.44099 0.31488 0.0
C1698 C 0.90639 0.44324 0.38175 0.0
H1699 H 0.89356 0.43295 0.70745 0.0
H1700 H 0.89088 0.42947 0.5982 0.0
H1701 H 0.91564 0.46982 0.48709 0.0
H1702 H 0.89469 0.45042 0.18551 0.0
H1703 H 0.8967 0.45498 0.29483 0.0
C1704 C 0.57056 0.47044 0.68796 0.0
C1705 C 0.55934 0.45787 0.71478 0.0
C1706 C 0.57272 0.47118 0.62524 0.0
C1707 C 0.55424 0.45356 0.48078 0.0
H1708 H 0.59329 0.47455 0.4165 0.0
C1709 C 0.56797 0.4546 0.22453 0.0
C1710 C 0.57778 0.46836 0.20084 0.0
C1711 C 0.56546 0.4526 0.2871 0.0
C1712 C 0.58231 0.4687 0.43379 0.0
H1713 H 0.54186 0.43607 0.69686 0.0
H1714 H 0.54577 0.43724 0.5879 0.0
H1715 H 0.58957 0.47246 0.52572 0.0
H1716 H 0.59224 0.49088 0.22544 0.0
H1717 H 0.5881 0.48728 0.33339 0.0
H1718 H 0.54706 0.44971 0.38837 0.0
C1719 C 0.55267 0.44669 0.61491 0.0
C1720 C 0.58016 0.46756 0.49645 0.0
C1721 C 0.55043 0.44601 0.67751 0.0
C1722 C 0.58489 0.48004 0.24144 0.0
C1723 C 0.58249 0.47801 0.30369 0.0
C1724 C 0.55641 0.4546 0.41801 0.0
C1725 C 0.56381 0.45931 0.58781 0.0
C1726 C 0.5661 0.46011 0.52089 0.0
C1727 C 0.57281 0.46428 0.32734 0.0
C1728 C 0.57046 0.46233 0.39385 0.0
H1729 H 0.57749 0.47981 0.71536 0.0
H1730 H 0.58125 0.48117 0.60604 0.0
H1731 H 0.54324 0.4479 0.49777 0.0
H1732 H 0.56239 0.44532 0.19497 0.0
H1733 H 0.55798 0.44187 0.3041 0.0
C1734 C 0.53478 0.09428 0.64204 0.0
C1735 C 0.54856 0.09971 0.66821 0.0
C1736 C 0.53336 0.09529 0.57919 0.0
C1737 C 0.55118 0.11742 0.44945 0.0
H1738 H 0.53333 0.08328 0.34726 0.0
C1739 C 0.55945 0.12313 0.1924 0.0
C1740 C 0.54832 0.1136 0.15365 0.0
C1741 C 0.55855 0.12065 0.25476 0.0
C1742 C 0.53813 0.09295 0.37495 0.0
H1743 H 0.57159 0.11083 0.65006 0.0
H1744 H 0.56915 0.11308 0.54095 0.0
H1745 H 0.53268 0.0806 0.45759 0.0
H1746 H 0.52762 0.09385 0.14929 0.0
H1747 H 0.52564 0.08969 0.2591 0.0
H1748 H 0.55633 0.12989 0.36832 0.0
C1749 C 0.55946 0.10777 0.56861 0.0
C1750 C 0.53777 0.09137 0.43819 0.0
C1751 C 0.56086 0.10645 0.63084 0.0
C1752 C 0.53637 0.1013 0.17838 0.0
C1753 C 0.53529 0.09894 0.2413 0.0
C1754 C 0.55129 0.11902 0.38659 0.0
C1755 C 0.54572 0.10211 0.54208 0.0
C1756 C 0.54455 0.10361 0.47583 0.0
C1757 C 0.5463 0.10874 0.2806 0.0
C1758 C 0.54509 0.10682 0.34809 0.0
H1759 H 0.52517 0.08903 0.67005 0.0
H1760 H 0.52265 0.09091 0.55967 0.0
H1761 H 0.55638 0.12702 0.47762 0.0
H1762 H 0.56888 0.13257 0.17423 0.0
H1763 H 0.56753 0.12819 0.28265 0.0
C1764 C 0.43318 0.90504 0.36837 0.0
C1765 C 0.44722 0.91246 0.34382 0.0
C1766 C 0.43116 0.9022 0.43088 0.0
C1767 C 0.44814 0.89643 0.56272 0.0
H1768 H 0.42932 0.9121 0.66279 0.0
C1769 C 0.45769 0.90171 0.81771 0.0
C1770 C 0.4463 0.89901 0.85726 0.0
C1771 C 0.45625 0.90273 0.75543 0.0
C1772 C 0.43438 0.90742 0.63553 0.0
H1773 H 0.47007 0.92229 0.36456 0.0
H1774 H 0.46656 0.91697 0.47278 0.0
H1775 H 0.42899 0.91409 0.55211 0.0
H1776 H 0.42462 0.89574 0.86295 0.0
H1777 H 0.42186 0.89719 0.75289 0.0
H1778 H 0.45348 0.88961 0.64482 0.0
C1779 C 0.45713 0.91357 0.44424 0.0
C1780 C 0.4342 0.90858 0.57217 0.0
C1781 C 0.45914 0.91667 0.38243 0.0
C1782 C 0.43356 0.89785 0.83328 0.0
C1783 C 0.43201 0.89868 0.77034 0.0
C1784 C 0.44815 0.89508 0.62561 0.0
C1785 C 0.44316 0.90641 0.46927 0.0
C1786 C 0.44142 0.90343 0.53537 0.0
C1787 C 0.44327 0.90084 0.73047 0.0
C1788 C 0.44169 0.90096 0.66315 0.0
H1789 H 0.42385 0.90175 0.3394 0.0
H1790 H 0.42027 0.89662 0.44914 0.0
H1791 H 0.45363 0.8922 0.53533 0.0
H1792 H 0.46775 0.90296 0.83513 0.0
H1793 H 0.46538 0.90494 0.72677 0.0
C1794 C 0.10934 0.53801 0.34858 0.0
C1795 C 0.09894 0.54111 0.32481 0.0
C1796 C 0.11029 0.53641 0.41117 0.0
C1797 C 0.09058 0.53099 0.55762 0.0
H1798 H 0.1293 0.54966 0.62535 0.0
C1799 C 0.10277 0.54273 0.81563 0.0
C1800 C 0.11429 0.54141 0.83954 0.0
C1801 C 0.09989 0.5412 0.75315 0.0
C1802 C 0.11839 0.54421 0.60728 0.0
H1803 H 0.08087 0.54413 0.34844 0.0
H1804 H 0.08272 0.54166 0.45708 0.0
H1805 H 0.12616 0.54936 0.51625 0.0
H1806 H 0.13114 0.53644 0.81695 0.0
H1807 H 0.12612 0.53372 0.70891 0.0
H1808 H 0.08287 0.52607 0.64919 0.0
C1809 C 0.09011 0.54039 0.42755 0.0
C1810 C 0.11659 0.54401 0.54448 0.0
C1811 C 0.08916 0.54198 0.36509 0.0
C1812 C 0.12241 0.53789 0.79995 0.0
C1813 C 0.11954 0.53634 0.73785 0.0
C1814 C 0.09239 0.53122 0.62062 0.0
C1815 C 0.10086 0.53785 0.45164 0.0
C1816 C 0.10266 0.53743 0.51866 0.0
C1817 C 0.10846 0.53829 0.71331 0.0
C1818 C 0.10633 0.53784 0.64628 0.0
H1819 H 0.11709 0.53733 0.31915 0.0
H1820 H 0.11856 0.53422 0.4279 0.0
H1821 H 0.07969 0.52568 0.53943 0.0
H1822 H 0.09636 0.5455 0.84479 0.0
H1823 H 0.09131 0.54283 0.73582 0.0
C1824 C 0.48447 0.58296 0.78634 0.0
C1825 C 0.47278 0.57465 0.8255 0.0
C1826 C 0.48324 0.58029 0.72409 0.0
C1827 C 0.46195 0.55289 0.60756 0.0
H1828 H 0.47774 0.58624 0.50063 0.0
C1829 C 0.45103 0.5474 0.34962 0.0
C1830 C 0.4624 0.55655 0.31058 0.0
C1831 C 0.4524 0.5494 0.41236 0.0
C1832 C 0.47345 0.5768 0.52972 0.0
H1833 H 0.45071 0.55677 0.82959 0.0
H1834 H 0.44854 0.55206 0.72051 0.0
H1835 H 0.4798 0.58981 0.60989 0.0
H1836 H 0.48421 0.57493 0.30744 0.0
H1837 H 0.48667 0.5784 0.417 0.0
H1838 H 0.45562 0.53988 0.52731 0.0
C1839 C 0.45871 0.56061 0.7383 0.0
C1840 C 0.4746 0.57885 0.59248 0.0
C1841 C 0.45994 0.5633 0.80083 0.0
C1842 C 0.47519 0.56779 0.33603 0.0
C1843 C 0.47658 0.56978 0.39892 0.0
C1844 C 0.46082 0.55084 0.54471 0.0
C1845 C 0.47029 0.56922 0.69908 0.0
C1846 C 0.4689 0.56693 0.63224 0.0
C1847 C 0.46519 0.5606 0.43794 0.0
C1848 C 0.46655 0.56277 0.50493 0.0
H1849 H 0.49465 0.59156 0.8037 0.0
H1850 H 0.49249 0.58691 0.69548 0.0
H1851 H 0.4576 0.54348 0.63681 0.0
H1852 H 0.44091 0.53881 0.33174 0.0
H1853 H 0.4433 0.5423 0.44076 0.0
C1854 C 0.57981 0.79682 0.01651 0.0
C1855 C 0.5711 0.7856 0.0569 0.0
C1856 C 0.57845 0.79451 0.95402 0.0
C1857 C 0.56503 0.76553 0.83888 0.0
H1858 H 0.56812 0.7959 0.73226 0.0
C1859 C 0.57286 0.76392 0.58227 0.0
C1860 C 0.56538 0.76836 0.5433 0.0
C1861 C 0.57291 0.76594 0.64468 0.0
C1862 C 0.56708 0.78725 0.76139 0.0
H1863 H 0.55404 0.76316 0.06309 0.0
H1864 H 0.55161 0.75911 0.9539 0.0
H1865 H 0.56907 0.79936 0.8417 0.0
H1866 H 0.55214 0.7785 0.53947 0.0
H1867 H 0.55215 0.78202 0.64902 0.0
H1868 H 0.56282 0.75334 0.75872 0.0
C1869 C 0.55965 0.76966 0.97066 0.0
C1870 C 0.5678 0.7893 0.82414 0.0
C1871 C 0.56105 0.77196 0.03328 0.0
C1872 C 0.55809 0.77507 0.56827 0.0
C1873 C 0.5581 0.77708 0.63098 0.0
C1874 C 0.56428 0.76348 0.77621 0.0
C1875 C 0.56831 0.78092 0.93026 0.0
C1876 C 0.56693 0.77852 0.86363 0.0
C1877 C 0.56544 0.77244 0.66994 0.0
C1878 C 0.56546 0.77438 0.73666 0.0
H1879 H 0.58783 0.80737 0.03322 0.0
H1880 H 0.5855 0.80334 0.92432 0.0
H1881 H 0.56442 0.75704 0.86786 0.0
H1882 H 0.57887 0.75902 0.56454 0.0
H1883 H 0.57897 0.76256 0.67312 0.0
C1884 C 0.2548 0.80287 0.54964 0.0
C1885 C 0.24472 0.80226 0.50684 0.0
C1886 C 0.25212 0.80261 0.61166 0.0
C1887 C 0.22331 0.79255 0.72565 0.0
H1888 H 0.25539 0.81885 0.82772 0.0
C1889 C 0.21616 0.79764 0.98317 0.0
C1890 C 0.22727 0.79894 0.02165 0.0
C1891 C 0.21804 0.79873 0.92024 0.0
C1892 C 0.24634 0.81132 0.80011 0.0
H1893 H 0.22368 0.80052 0.49628 0.0
H1894 H 0.21893 0.79995 0.60513 0.0
H1895 H 0.25877 0.81904 0.71863 0.0
H1896 H 0.24911 0.80242 0.02369 0.0
H1897 H 0.25238 0.80419 0.91424 0.0
H1898 H 0.21092 0.78467 0.80729 0.0
C1899 C 0.22893 0.80062 0.59029 0.0
C1900 C 0.24828 0.81144 0.7374 0.0
C1901 C 0.23164 0.80092 0.52788 0.0
C1902 C 0.24041 0.80159 0.99559 0.0
C1903 C 0.24227 0.8026 0.93264 0.0
C1904 C 0.22137 0.79238 0.78853 0.0
C1905 C 0.23926 0.80168 0.63293 0.0
C1906 C 0.23684 0.80196 0.69938 0.0
C1907 C 0.23107 0.80108 0.89399 0.0
C1908 C 0.23291 0.80167 0.82671 0.0
H1909 H 0.26482 0.80355 0.53521 0.0
H1910 H 0.26015 0.80307 0.64307 0.0
H1911 H 0.21431 0.78502 0.69781 0.0
H1912 H 0.20598 0.79581 1.00176 0.0
H1913 H 0.20927 0.79777 0.89217 0.0
C1914 C 0.2085 0.4532 0.53906 0.0
C1915 C 0.21178 0.44505 0.49855 0.0
C1916 C 0.20734 0.45039 0.60127 0.0
C1917 C 0.20224 0.42286 0.71654 0.0
H1918 H 0.22007 0.45613 0.82355 0.0
C1919 C 0.21144 0.41814 0.9728 0.0
C1920 C 0.2103 0.42769 0.01348 0.0
C1921 C 0.21042 0.41953 0.91019 0.0
C1922 C 0.21482 0.44669 0.79456 0.0
H1923 H 0.21606 0.42722 0.49237 0.0
H1924 H 0.21401 0.42227 0.60117 0.0
H1925 H 0.22065 0.45978 0.71462 0.0
H1926 H 0.20675 0.446 0.01938 0.0
H1927 H 0.20459 0.4482 0.91056 0.0
H1928 H 0.19646 0.40977 0.7967 0.0
C1929 C 0.21226 0.43083 0.58447 0.0
C1930 C 0.21518 0.44879 0.73186 0.0
C1931 C 0.21343 0.43367 0.52199 0.0
C1932 C 0.2076 0.43837 0.98977 0.0
C1933 C 0.20655 0.43976 0.92709 0.0
C1934 C 0.20185 0.42075 0.7794 0.0
C1935 C 0.2094 0.4393 0.62503 0.0
C1936 C 0.20891 0.43692 0.69193 0.0
C1937 C 0.20819 0.43051 0.88632 0.0
C1938 C 0.20815 0.43265 0.81933 0.0
H1939 H 0.2068 0.46181 0.52274 0.0
H1940 H 0.2048 0.45692 0.63083 0.0
H1941 H 0.19715 0.41346 0.68727 0.0
H1942 H 0.21333 0.40966 0.98928 0.0
H1943 H 0.21183 0.41225 0.88045 0.0
loop_
_geom_bond_atom_site_label_1
_geom_bond_atom_site_label_2
_geom_bond_distance
_geom_bond_site_symmetry_2
_ccdc_geom_bond_type
C0 C1 1.351 . S
C0 N3 1.368 . S
C0 H5 0.931 . S
C1 C0 1.351 . S
C1 N2 1.373 . S
C1 H29 0.930 . S
N2 C1 1.373 . S
N2 C4 1.340 . S
N3 C0 1.368 . S
N3 C4 1.321 . S
N3 Co6 2.135 . S
C4 N2 1.340 . S
C4 N3 1.321 . S
C4 H28 0.930 . S
H5 C0 0.931 . S
Co6 N3 2.135 . S
Co6 N9 2.121 . S
Co6 O14 2.055 . S
Co6 O17 2.039 . S
Co6 N20 2.140 . S
C7 O8 1.227 . S
C7 O17 1.265 . S
O8 C7 1.227 . S
N9 Co6 2.121 . S
N9 C11 1.375 . S
N9 C12 1.313 . S
C10 C11 1.338 . S
C10 N13 1.377 . S
C10 H30 0.930 . S
C11 N9 1.375 . S
C11 C10 1.338 . S
C11 H15 0.931 . S
C12 N9 1.313 . S
C12 N13 1.344 . S
C12 H16 0.930 . S
N13 C10 1.377 . S
N13 C12 1.344 . S
O14 Co6 2.055 . S
O14 C18 1.253 . S
H15 C11 0.931 . S
H16 C12 0.930 . S
O17 Co6 2.039 . S
O17 C7 1.265 . S
C18 O14 1.253 . S
C18 O19 1.227 . S
O19 C18 1.227 . S
N20 Co6 2.140 . S
N20 C23 1.346 . S
N20 C24 1.345 . S
C21 C22 1.387 . S
C21 C25 1.391 . S
C22 C21 1.387 . S
C22 C23 1.369 . S
C22 H31 0.929 . S
C23 N20 1.346 . S
C23 C22 1.369 . S
C23 H26 0.928 . S
C24 N20 1.345 . S
C24 C25 1.371 . S
C24 H27 0.931 . S
C25 C21 1.391 . S
C25 C24 1.371 . S
C25 H32 0.930 . S
H26 C23 0.928 . S
H27 C24 0.931 . S
H28 C4 0.930 . S
H29 C1 0.930 . S
H30 C10 0.930 . S
H31 C22 0.929 . S
H32 C25 0.930 . S
C33 C34 1.351 . S
C33 N36 1.368 . S
C33 H38 0.931 . S
C34 C33 1.351 . S
C34 N35 1.373 . S
C34 H62 0.930 . S
N35 C34 1.373 . S
N35 C37 1.340 . S
N36 C33 1.368 . S
N36 C37 1.321 . S
N36 Co39 2.135 . S
C37 N35 1.340 . S
C37 N36 1.321 . S
C37 H61 0.930 . S
H38 C33 0.931 . S
Co39 N36 2.135 . S
Co39 N42 2.121 . S
Co39 O47 2.055 . S
Co39 O50 2.039 . S
Co39 N53 2.140 . S
C40 O41 1.227 . S
C40 O50 1.265 . S
O41 C40 1.227 . S
N42 Co39 2.121 . S
N42 C44 1.375 . S
N42 C45 1.313 . S
C43 C44 1.338 . S
C43 N46 1.377 . S
C43 H63 0.930 . S
C44 N42 1.375 . S
C44 C43 1.338 . S
C44 H48 0.931 . S
C45 N42 1.313 . S
C45 N46 1.344 . S
C45 H49 0.930 . S
N46 C43 1.377 . S
N46 C45 1.344 . S
O47 Co39 2.055 . S
O47 C51 1.253 . S
H48 C44 0.931 . S
H49 C45 0.930 . S
O50 Co39 2.039 . S
O50 C40 1.265 . S
C51 O47 1.253 . S
C51 O52 1.227 . S
O52 C51 1.227 . S
N53 Co39 2.140 . S
N53 C56 1.346 . S
N53 C57 1.345 . S
C54 C55 1.387 . S
C54 C58 1.391 . S
C55 C54 1.387 . S
C55 C56 1.369 . S
C55 H64 0.929 . S
C56 N53 1.346 . S
C56 C55 1.369 . S
C56 H59 0.928 . S
C57 N53 1.345 . S
C57 C58 1.371 . S
C57 H60 0.931 . S
C58 C54 1.391 . S
C58 C57 1.371 . S
C58 H65 0.930 . S
H59 C56 0.928 . S
H60 C57 0.931 . S
H61 C37 0.930 . S
H62 C34 0.930 . S
H63 C43 0.930 . S
H64 C55 0.929 . S
H65 C58 0.930 . S
C66 C67 1.351 . S
C66 N69 1.368 . S
C66 H71 0.931 . S
C67 C66 1.351 . S
C67 N68 1.373 . S
C67 H95 0.930 . S
N68 C67 1.373 . S
N68 C70 1.340 . S
N69 C66 1.368 . S
N69 C70 1.321 . S
N69 Co72 2.135 . S
C70 N68 1.340 . S
C70 N69 1.321 . S
C70 H94 0.930 . S
H71 C66 0.931 . S
Co72 N69 2.135 . S
Co72 N75 2.121 . S
Co72 O80 2.055 . S
Co72 O83 2.039 . S
Co72 N86 2.140 . S
C73 O74 1.227 . S
C73 O83 1.265 . S
O74 C73 1.227 . S
N75 Co72 2.121 . S
N75 C77 1.375 . S
N75 C78 1.313 . S
C76 C77 1.338 . S
C76 N79 1.377 . S
C76 H96 0.930 . S
C77 N75 1.375 . S
C77 C76 1.338 . S
C77 H81 0.931 . S
C78 N75 1.313 . S
C78 N79 1.344 . S
C78 H82 0.930 . S
N79 C76 1.377 . S
N79 C78 1.344 . S
O80 Co72 2.055 . S
O80 C84 1.253 . S
H81 C77 0.931 . S
H82 C78 0.930 . S
O83 Co72 2.039 . S
O83 C73 1.265 . S
C84 O80 1.253 . S
C84 O85 1.227 . S
O85 C84 1.227 . S
N86 Co72 2.140 . S
N86 C89 1.346 . S
N86 C90 1.345 . S
C87 C88 1.387 . S
C87 C91 1.391 . S
C88 C87 1.387 . S
C88 C89 1.369 . S
C88 H97 0.929 . S
C89 N86 1.346 . S
C89 C88 1.369 . S
C89 H92 0.928 . S
C90 N86 1.345 . S
C90 C91 1.371 . S
C90 H93 0.931 . S
C91 C87 1.391 . S
C91 C90 1.371 . S
C91 H98 0.930 . S
H92 C89 0.928 . S
H93 C90 0.931 . S
H94 C70 0.930 . S
H95 C67 0.930 . S
H96 C76 0.930 . S
H97 C88 0.929 . S
H98 C91 0.930 . S
C99 C100 1.351 . S
C99 N102 1.368 . S
C99 H104 0.931 . S
C100 C99 1.351 . S
C100 N101 1.373 . S
C100 H128 0.930 . S
N101 C100 1.373 . S
N101 C103 1.340 . S
N102 C99 1.368 . S
N102 C103 1.321 . S
N102 Co105 2.135 . S
C103 N101 1.340 . S
C103 N102 1.321 . S
C103 H127 0.930 . S
H104 C99 0.931 . S
Co105 N102 2.135 . S
Co105 N108 2.121 . S
Co105 O113 2.055 . S
Co105 O116 2.039 . S
Co105 N119 2.140 . S
C106 O107 1.227 . S
C106 O116 1.265 . S
O107 C106 1.227 . S
N108 Co105 2.121 . S
N108 C110 1.375 . S
N108 C111 1.313 . S
C109 C110 1.338 . S
C109 N112 1.377 . S
C109 H129 0.930 . S
C110 N108 1.375 . S
C110 C109 1.338 . S
C110 H114 0.931 . S
C111 N108 1.313 . S
C111 N112 1.344 . S
C111 H115 0.930 . S
N112 C109 1.377 . S
N112 C111 1.344 . S
O113 Co105 2.055 . S
O113 C117 1.253 . S
H114 C110 0.931 . S
H115 C111 0.930 . S
O116 Co105 2.039 . S
O116 C106 1.265 . S
C117 O113 1.253 . S
C117 O118 1.227 . S
O118 C117 1.227 . S
N119 Co105 2.140 . S
N119 C122 1.346 . S
N119 C123 1.345 . S
C120 C121 1.387 . S
C120 C124 1.391 . S
C121 C120 1.387 . S
C121 C122 1.369 . S
C121 H130 0.929 . S
C122 N119 1.346 . S
C122 C121 1.369 . S
C122 H125 0.928 . S
C123 N119 1.345 . S
C123 C124 1.371 . S
C123 H126 0.931 . S
C124 C120 1.391 . S
C124 C123 1.371 . S
C124 H131 0.930 . S
H125 C122 0.928 . S
H126 C123 0.931 . S
H127 C103 0.930 . S
H128 C100 0.930 . S
H129 C109 0.930 . S
H130 C121 0.929 . S
H131 C124 0.930 . S
C132 C133 1.351 . S
C132 N135 1.368 . S
C132 H137 0.931 . S
C133 C132 1.351 . S
C133 N134 1.373 . S
C133 H161 0.930 . S
N134 C133 1.373 . S
N134 C136 1.340 . S
N135 C132 1.368 . S
N135 C136 1.321 . S
N135 Co138 2.135 . S
C136 N134 1.340 . S
C136 N135 1.321 . S
C136 H160 0.930 . S
H137 C132 0.931 . S
Co138 N135 2.135 . S
Co138 N141 2.121 . S
Co138 O146 2.055 . S
Co138 O149 2.039 . S
Co138 N152 2.140 . S
C139 O140 1.227 . S
C139 O149 1.265 . S
O140 C139 1.227 . S
N141 Co138 2.121 . S
N141 C143 1.375 . S
N141 C144 1.313 . S
C142 C143 1.338 . S
C142 N145 1.377 . S
C142 H162 0.930 . S
C143 N141 1.375 . S
C143 C142 1.338 . S
C143 H147 0.931 . S
C144 N141 1.313 . S
C144 N145 1.344 . S
C144 H148 0.930 . S
N145 C142 1.377 . S
N145 C144 1.344 . S
O146 Co138 2.055 . S
O146 C150 1.253 . S
H147 C143 0.931 . S
H148 C144 0.930 . S
O149 Co138 2.039 . S
O149 C139 1.265 . S
C150 O146 1.253 . S
C150 O151 1.227 . S
O151 C150 1.227 . S
N152 Co138 2.140 . S
N152 C155 1.346 . S
N152 C156 1.345 . S
C153 C154 1.387 . S
C153 C157 1.391 . S
C154 C153 1.387 . S
C154 C155 1.369 . S
C154 H163 0.929 . S
C155 N152 1.346 . S
C155 C154 1.369 . S
C155 H158 0.928 . S
C156 N152 1.345 . S
C156 C157 1.371 . S
C156 H159 0.931 . S
C157 C153 1.391 . S
C157 C156 1.371 . S
C157 H164 0.930 . S
H158 C155 0.928 . S
H159 C156 0.931 . S
H160 C136 0.930 . S
H161 C133 0.930 . S
H162 C142 0.930 . S
H163 C154 0.929 . S
H164 C157 0.930 . S
C165 C166 1.351 . S
C165 N168 1.368 . S
C165 H170 0.931 . S
C166 C165 1.351 . S
C166 N167 1.373 . S
C166 H194 0.930 . S
N167 C166 1.373 . S
N167 C169 1.340 . S
N168 C165 1.368 . S
N168 C169 1.321 . S
N168 Co171 2.135 . S
C169 N167 1.340 . S
C169 N168 1.321 . S
C169 H193 0.930 . S
H170 C165 0.931 . S
Co171 N168 2.135 . S
Co171 N174 2.121 . S
Co171 O179 2.055 . S
Co171 O182 2.039 . S
Co171 N185 2.140 . S
C172 O173 1.227 . S
C172 O182 1.265 . S
O173 C172 1.227 . S
N174 Co171 2.121 . S
N174 C176 1.375 . S
N174 C177 1.313 . S
C175 C176 1.338 . S
C175 N178 1.377 . S
C175 H195 0.930 . S
C176 N174 1.375 . S
C176 C175 1.338 . S
C176 H180 0.931 . S
C177 N174 1.313 . S
C177 N178 1.344 . S
C177 H181 0.930 . S
N178 C175 1.377 . S
N178 C177 1.344 . S
O179 Co171 2.055 . S
O179 C183 1.253 . S
H180 C176 0.931 . S
H181 C177 0.930 . S
O182 Co171 2.039 . S
O182 C172 1.265 . S
C183 O179 1.253 . S
C183 O184 1.227 . S
O184 C183 1.227 . S
N185 Co171 2.140 . S
N185 C188 1.346 . S
N185 C189 1.345 . S
C186 C187 1.387 . S
C186 C190 1.391 . S
C187 C186 1.387 . S
C187 C188 1.369 . S
C187 H196 0.929 . S
C188 N185 1.346 . S
C188 C187 1.369 . S
C188 H191 0.928 . S
C189 N185 1.345 . S
C189 C190 1.371 . S
C189 H192 0.931 . S
C190 C186 1.391 . S
C190 C189 1.371 . S
C190 H197 0.930 . S
H191 C188 0.928 . S
H192 C189 0.931 . S
H193 C169 0.930 . S
H194 C166 0.930 . S
H195 C175 0.930 . S
H196 C187 0.929 . S
H197 C190 0.930 . S
C198 C199 1.351 . S
C198 N201 1.368 . S
C198 H203 0.931 . S
C199 C198 1.351 . S
C199 N200 1.373 . S
C199 H227 0.930 . S
N200 C199 1.373 . S
N200 C202 1.340 . S
N201 C198 1.368 . S
N201 C202 1.321 . S
N201 Co204 2.135 . S
C202 N200 1.340 . S
C202 N201 1.321 . S
C202 H226 0.930 . S
H203 C198 0.931 . S
Co204 N201 2.135 . S
Co204 N207 2.121 . S
Co204 O212 2.055 . S
Co204 O215 2.039 . S
Co204 N218 2.140 . S
C205 O206 1.227 . S
C205 O215 1.265 . S
O206 C205 1.227 . S
N207 Co204 2.121 . S
N207 C209 1.375 . S
N207 C210 1.313 . S
C208 C209 1.338 . S
C208 N211 1.377 . S
C208 H228 0.930 . S
C209 N207 1.375 . S
C209 C208 1.338 . S
C209 H213 0.931 . S
C210 N207 1.313 . S
C210 N211 1.344 . S
C210 H214 0.930 . S
N211 C208 1.377 . S
N211 C210 1.344 . S
O212 Co204 2.055 . S
O212 C216 1.253 . S
H213 C209 0.931 . S
H214 C210 0.930 . S
O215 Co204 2.039 . S
O215 C205 1.265 . S
C216 O212 1.253 . S
C216 O217 1.227 . S
O217 C216 1.227 . S
N218 Co204 2.140 . S
N218 C221 1.346 . S
N218 C222 1.345 . S
C219 C220 1.387 . S
C219 C223 1.391 . S
C220 C219 1.387 . S
C220 C221 1.369 . S
C220 H229 0.929 . S
C221 N218 1.346 . S
C221 C220 1.369 . S
C221 H224 0.928 . S
C222 N218 1.345 . S
C222 C223 1.371 . S
C222 H225 0.931 . S
C223 C219 1.391 . S
C223 C222 1.371 . S
C223 H230 0.930 . S
H224 C221 0.928 . S
H225 C222 0.931 . S
H226 C202 0.930 . S
H227 C199 0.930 . S
H228 C208 0.930 . S
H229 C220 0.929 . S
H230 C223 0.930 . S
C231 C232 1.351 . S
C231 N234 1.368 . S
C231 H236 0.931 . S
C232 C231 1.351 . S
C232 N233 1.373 . S
C232 H260 0.930 . S
N233 C232 1.373 . S
N233 C235 1.340 . S
N234 C231 1.368 . S
N234 C235 1.321 . S
N234 Co237 2.135 . S
C235 N233 1.340 . S
C235 N234 1.321 . S
C235 H259 0.930 . S
H236 C231 0.931 . S
Co237 N234 2.135 . S
Co237 N240 2.121 . S
Co237 O245 2.055 . S
Co237 O248 2.039 . S
Co237 N251 2.140 . S
C238 O239 1.227 . S
C238 O248 1.265 . S
O239 C238 1.227 . S
N240 Co237 2.121 . S
N240 C242 1.375 . S
N240 C243 1.313 . S
C241 C242 1.338 . S
C241 N244 1.377 . S
C241 H261 0.930 . S
C242 N240 1.375 . S
C242 C241 1.338 . S
C242 H246 0.931 . S
C243 N240 1.313 . S
C243 N244 1.344 . S
C243 H247 0.930 . S
N244 C241 1.377 . S
N244 C243 1.344 . S
O245 Co237 2.055 . S
O245 C249 1.253 . S
H246 C242 0.931 . S
H247 C243 0.930 . S
O248 Co237 2.039 . S
O248 C238 1.265 . S
C249 O245 1.253 . S
C249 O250 1.227 . S
O250 C249 1.227 . S
N251 Co237 2.140 . S
N251 C254 1.346 . S
N251 C255 1.345 . S
C252 C253 1.387 . S
C252 C256 1.391 . S
C253 C252 1.387 . S
C253 C254 1.369 . S
C253 H262 0.929 . S
C254 N251 1.346 . S
C254 C253 1.369 . S
C254 H257 0.928 . S
C255 N251 1.345 . S
C255 C256 1.371 . S
C255 H258 0.931 . S
C256 C252 1.391 . S
C256 C255 1.371 . S
C256 H263 0.930 . S
H257 C254 0.928 . S
H258 C255 0.931 . S
H259 C235 0.930 . S
H260 C232 0.930 . S
H261 C241 0.930 . S
H262 C253 0.929 . S
H263 C256 0.930 . S
C264 C265 1.351 . S
C264 N267 1.368 . S
C264 H269 0.931 . S
C265 C264 1.351 . S
C265 N266 1.373 . S
C265 H293 0.930 . S
N266 C265 1.373 . S
N266 C268 1.340 . S
N267 C264 1.368 . S
N267 C268 1.321 . S
N267 Co270 2.135 . S
C268 N266 1.340 . S
C268 N267 1.321 . S
C268 H292 0.930 . S
H269 C264 0.931 . S
Co270 N267 2.135 . S
Co270 N273 2.121 . S
Co270 O278 2.055 . S
Co270 O281 2.039 . S
Co270 N284 2.140 . S
C271 O272 1.227 . S
C271 O281 1.265 . S
O272 C271 1.227 . S
N273 Co270 2.121 . S
N273 C275 1.375 . S
N273 C276 1.313 . S
C274 C275 1.338 . S
C274 N277 1.377 . S
C274 H294 0.930 . S
C275 N273 1.375 . S
C275 C274 1.338 . S
C275 H279 0.931 . S
C276 N273 1.313 . S
C276 N277 1.344 . S
C276 H280 0.930 . S
N277 C274 1.377 . S
N277 C276 1.344 . S
O278 Co270 2.055 . S
O278 C282 1.253 . S
H279 C275 0.931 . S
H280 C276 0.930 . S
O281 Co270 2.039 . S
O281 C271 1.265 . S
C282 O278 1.253 . S
C282 O283 1.227 . S
O283 C282 1.227 . S
N284 Co270 2.140 . S
N284 C287 1.346 . S
N284 C288 1.345 . S
C285 C286 1.387 . S
C285 C289 1.391 . S
C286 C285 1.387 . S
C286 C287 1.369 . S
C286 H295 0.929 . S
C287 N284 1.346 . S
C287 C286 1.369 . S
C287 H290 0.928 . S
C288 N284 1.345 . S
C288 C289 1.371 . S
C288 H291 0.931 . S
C289 C285 1.391 . S
C289 C288 1.371 . S
C289 H296 0.930 . S
H290 C287 0.928 . S
H291 C288 0.931 . S
H292 C268 0.930 . S
H293 C265 0.930 . S
H294 C274 0.930 . S
H295 C286 0.929 . S
H296 C289 0.930 . S
C297 C298 1.351 . S
C297 N300 1.368 . S
C297 H302 0.931 . S
C298 C297 1.351 . S
C298 N299 1.373 . S
C298 H326 0.930 . S
N299 C298 1.373 . S
N299 C301 1.340 . S
N300 C297 1.368 . S
N300 C301 1.321 . S
N300 Co303 2.135 . S
C301 N299 1.340 . S
C301 N300 1.321 . S
C301 H325 0.930 . S
H302 C297 0.931 . S
Co303 N300 2.135 . S
Co303 N306 2.121 . S
Co303 O311 2.055 . S
Co303 O314 2.039 . S
Co303 N317 2.140 . S
C304 O305 1.227 . S
C304 O314 1.265 . S
O305 C304 1.227 . S
N306 Co303 2.121 . S
N306 C308 1.375 1_556 S
N306 C309 1.313 1_556 S
C307 C308 1.338 . S
C307 N310 1.377 . S
C307 H327 0.930 . S
C308 N306 1.375 1_554 S
C308 C307 1.338 . S
C308 H312 0.931 1_554 S
C309 N306 1.313 1_554 S
C309 N310 1.344 . S
C309 H313 0.930 . S
N310 C307 1.377 . S
N310 C309 1.344 . S
O311 Co303 2.055 . S
O311 C315 1.253 . S
H312 C308 0.931 1_556 S
H313 C309 0.930 . S
O314 Co303 2.039 . S
O314 C304 1.265 . S
C315 O311 1.253 . S
C315 O316 1.227 . S
O316 C315 1.227 . S
N317 Co303 2.140 . S
N317 C320 1.346 . S
N317 C321 1.345 . S
C318 C319 1.387 . S
C318 C322 1.391 . S
C319 C318 1.387 . S
C319 C320 1.369 . S
C319 H328 0.929 . S
C320 N317 1.346 . S
C320 C319 1.369 . S
C320 H323 0.928 . S
C321 N317 1.345 . S
C321 C322 1.371 . S
C321 H324 0.931 . S
C322 C318 1.391 . S
C322 C321 1.371 . S
C322 H329 0.930 . S
H323 C320 0.928 . S
H324 C321 0.931 . S
H325 C301 0.930 . S
H326 C298 0.930 . S
H327 C307 0.930 . S
H328 C319 0.929 . S
H329 C322 0.930 . S
C330 C331 1.351 . S
C330 N333 1.368 . S
C330 H335 0.931 . S
C331 C330 1.351 . S
C331 N332 1.373 . S
C331 H359 0.930 . S
N332 C331 1.373 . S
N332 C334 1.340 . S
N333 C330 1.368 . S
N333 C334 1.321 . S
N333 Co336 2.135 . S
C334 N332 1.340 . S
C334 N333 1.321 . S
C334 H358 0.930 . S
H335 C330 0.931 . S
Co336 N333 2.135 . S
Co336 N339 2.121 . S
Co336 O344 2.055 . S
Co336 O347 2.039 . S
Co336 N350 2.140 . S
C337 O338 1.227 . S
C337 O347 1.265 . S
O338 C337 1.227 . S
N339 Co336 2.121 . S
N339 C341 1.375 1_556 S
N339 C342 1.313 1_556 S
C340 C341 1.338 . S
C340 N343 1.377 . S
C340 H360 0.930 . S
C341 N339 1.375 1_554 S
C341 C340 1.338 . S
C341 H345 0.931 1_554 S
C342 N339 1.313 1_554 S
C342 N343 1.344 . S
C342 H346 0.930 . S
N343 C340 1.377 . S
N343 C342 1.344 . S
O344 Co336 2.055 . S
O344 C348 1.253 . S
H345 C341 0.931 1_556 S
H346 C342 0.930 . S
O347 Co336 2.039 . S
O347 C337 1.265 . S
C348 O344 1.253 . S
C348 O349 1.227 . S
O349 C348 1.227 . S
N350 Co336 2.140 . S
N350 C353 1.346 . S
N350 C354 1.345 . S
C351 C352 1.387 . S
C351 C355 1.391 . S
C352 C351 1.387 . S
C352 C353 1.369 . S
C352 H361 0.929 . S
C353 N350 1.346 . S
C353 C352 1.369 . S
C353 H356 0.928 . S
C354 N350 1.345 . S
C354 C355 1.371 . S
C354 H357 0.931 . S
C355 C351 1.391 . S
C355 C354 1.371 . S
C355 H362 0.930 . S
H356 C353 0.928 . S
H357 C354 0.931 . S
H358 C334 0.930 . S
H359 C331 0.930 . S
H360 C340 0.930 . S
H361 C352 0.929 . S
H362 C355 0.930 . S
C363 C364 1.351 . S
C363 N366 1.368 . S
C363 H368 0.931 . S
C364 C363 1.351 . S
C364 N365 1.373 . S
C364 H392 0.930 . S
N365 C364 1.373 . S
N365 C367 1.340 . S
N366 C363 1.368 . S
N366 C367 1.321 . S
N366 Co369 2.135 . S
C367 N365 1.340 . S
C367 N366 1.321 . S
C367 H391 0.930 . S
H368 C363 0.931 . S
Co369 N366 2.135 . S
Co369 N372 2.121 . S
Co369 O377 2.055 . S
Co369 O380 2.039 . S
Co369 N383 2.140 . S
C370 O371 1.227 . S
C370 O380 1.265 . S
O371 C370 1.227 . S
N372 Co369 2.121 . S
N372 C374 1.375 1_556 S
N372 C375 1.313 1_556 S
C373 C374 1.338 . S
C373 N376 1.377 . S
C373 H393 0.930 . S
C374 N372 1.375 1_554 S
C374 C373 1.338 . S
C374 H378 0.931 1_554 S
C375 N372 1.313 1_554 S
C375 N376 1.344 . S
C375 H379 0.930 . S
N376 C373 1.377 . S
N376 C375 1.344 . S
O377 Co369 2.055 . S
O377 C381 1.253 . S
H378 C374 0.931 1_556 S
H379 C375 0.930 . S
O380 Co369 2.039 . S
O380 C370 1.265 . S
C381 O377 1.253 . S
C381 O382 1.227 . S
O382 C381 1.227 . S
N383 Co369 2.140 . S
N383 C386 1.346 . S
N383 C387 1.345 . S
C384 C385 1.387 . S
C384 C388 1.391 . S
C385 C384 1.387 . S
C385 C386 1.369 . S
C385 H394 0.929 . S
C386 N383 1.346 . S
C386 C385 1.369 . S
C386 H389 0.928 . S
C387 N383 1.345 . S
C387 C388 1.371 . S
C387 H390 0.931 . S
C388 C384 1.391 . S
C388 C387 1.371 . S
C388 H395 0.930 . S
H389 C386 0.928 . S
H390 C387 0.931 . S
H391 C367 0.930 . S
H392 C364 0.930 . S
H393 C373 0.930 . S
H394 C385 0.929 . S
H395 C388 0.930 . S
C396 C397 1.351 . S
C396 N399 1.368 . S
C396 H401 0.931 . S
C397 C396 1.351 . S
C397 N398 1.373 . S
C397 H425 0.930 . S
N398 C397 1.373 . S
N398 C400 1.340 . S
N399 C396 1.368 . S
N399 C400 1.321 . S
N399 Co402 2.135 . S
C400 N398 1.340 . S
C400 N399 1.321 . S
C400 H424 0.930 . S
H401 C396 0.931 . S
Co402 N399 2.135 . S
Co402 N405 2.121 . S
Co402 O410 2.055 . S
Co402 O413 2.039 . S
Co402 N416 2.140 . S
C403 O404 1.227 . S
C403 O413 1.265 . S
O404 C403 1.227 . S
N405 Co402 2.121 . S
N405 C407 1.375 1_554 S
N405 C408 1.313 1_554 S
C406 C407 1.338 . S
C406 N409 1.377 . S
C406 H426 0.930 . S
C407 N405 1.375 1_556 S
C407 C406 1.338 . S
C407 H411 0.931 1_556 S
C408 N405 1.313 1_556 S
C408 N409 1.344 . S
C408 H412 0.930 . S
N409 C406 1.377 . S
N409 C408 1.344 . S
O410 Co402 2.055 . S
O410 C414 1.253 . S
H411 C407 0.931 1_554 S
H412 C408 0.930 . S
O413 Co402 2.039 . S
O413 C403 1.265 . S
C414 O410 1.253 . S
C414 O415 1.227 . S
O415 C414 1.227 . S
N416 Co402 2.140 . S
N416 C419 1.346 . S
N416 C420 1.345 . S
C417 C418 1.387 . S
C417 C421 1.391 . S
C418 C417 1.387 . S
C418 C419 1.369 . S
C418 H427 0.929 . S
C419 N416 1.346 . S
C419 C418 1.369 . S
C419 H422 0.928 . S
C420 N416 1.345 . S
C420 C421 1.371 . S
C420 H423 0.931 . S
C421 C417 1.391 . S
C421 C420 1.371 . S
C421 H428 0.930 . S
H422 C419 0.928 . S
H423 C420 0.931 . S
H424 C400 0.930 . S
H425 C397 0.930 . S
H426 C406 0.930 . S
H427 C418 0.929 . S
H428 C421 0.930 . S
C429 C430 1.351 . S
C429 N432 1.368 . S
C429 H434 0.931 . S
C430 C429 1.351 . S
C430 N431 1.373 . S
C430 H458 0.930 . S
N431 C430 1.373 . S
N431 C433 1.340 . S
N432 C429 1.368 . S
N432 C433 1.321 . S
N432 Co435 2.135 . S
C433 N431 1.340 . S
C433 N432 1.321 . S
C433 H457 0.930 . S
H434 C429 0.931 . S
Co435 N432 2.135 . S
Co435 N438 2.121 . S
Co435 O443 2.055 . S
Co435 O446 2.039 . S
Co435 N449 2.140 . S
C436 O437 1.227 . S
C436 O446 1.265 . S
O437 C436 1.227 . S
N438 Co435 2.121 . S
N438 C440 1.375 1_554 S
N438 C441 1.313 1_554 S
C439 C440 1.338 . S
C439 N442 1.377 . S
C439 H459 0.930 . S
C440 N438 1.375 1_556 S
C440 C439 1.338 . S
C440 H444 0.931 1_556 S
C441 N438 1.313 1_556 S
C441 N442 1.344 . S
C441 H445 0.930 . S
N442 C439 1.377 . S
N442 C441 1.344 . S
O443 Co435 2.055 . S
O443 C447 1.253 . S
H444 C440 0.931 1_554 S
H445 C441 0.930 . S
O446 Co435 2.039 . S
O446 C436 1.265 . S
C447 O443 1.253 . S
C447 O448 1.227 . S
O448 C447 1.227 . S
N449 Co435 2.140 . S
N449 C452 1.346 . S
N449 C453 1.345 . S
C450 C451 1.387 . S
C450 C454 1.391 . S
C451 C450 1.387 . S
C451 C452 1.369 . S
C451 H460 0.929 . S
C452 N449 1.346 . S
C452 C451 1.369 . S
C452 H455 0.928 . S
C453 N449 1.345 . S
C453 C454 1.371 . S
C453 H456 0.931 . S
C454 C450 1.391 . S
C454 C453 1.371 . S
C454 H461 0.930 . S
H455 C452 0.928 . S
H456 C453 0.931 . S
H457 C433 0.930 . S
H458 C430 0.930 . S
H459 C439 0.930 . S
H460 C451 0.929 . S
H461 C454 0.930 . S
C462 C463 1.351 . S
C462 N465 1.368 . S
C462 H467 0.931 . S
C463 C462 1.351 . S
C463 N464 1.373 . S
C463 H491 0.930 . S
N464 C463 1.373 . S
N464 C466 1.340 . S
N465 C462 1.368 . S
N465 C466 1.321 . S
N465 Co468 2.135 . S
C466 N464 1.340 . S
C466 N465 1.321 . S
C466 H490 0.930 . S
H467 C462 0.931 . S
Co468 N465 2.135 . S
Co468 N471 2.121 . S
Co468 O476 2.055 . S
Co468 O479 2.039 . S
Co468 N482 2.140 . S
C469 O470 1.227 . S
C469 O479 1.265 . S
O470 C469 1.227 . S
N471 Co468 2.121 . S
N471 C473 1.375 1_554 S
N471 C474 1.313 1_554 S
C472 C473 1.338 . S
C472 N475 1.377 . S
C472 H492 0.930 . S
C473 N471 1.375 1_556 S
C473 C472 1.338 . S
C473 H477 0.931 1_556 S
C474 N471 1.313 1_556 S
C474 N475 1.344 . S
C474 H478 0.930 . S
N475 C472 1.377 . S
N475 C474 1.344 . S
O476 Co468 2.055 . S
O476 C480 1.253 . S
H477 C473 0.931 1_554 S
H478 C474 0.930 . S
O479 Co468 2.039 . S
O479 C469 1.265 . S
C480 O476 1.253 . S
C480 O481 1.227 . S
O481 C480 1.227 . S
N482 Co468 2.140 . S
N482 C485 1.346 . S
N482 C486 1.345 . S
C483 C484 1.387 . S
C483 C487 1.391 . S
C484 C483 1.387 . S
C484 C485 1.369 . S
C484 H493 0.929 . S
C485 N482 1.346 . S
C485 C484 1.369 . S
C485 H488 0.928 . S
C486 N482 1.345 . S
C486 C487 1.371 . S
C486 H489 0.931 . S
C487 C483 1.391 . S
C487 C486 1.371 . S
C487 H494 0.930 . S
H488 C485 0.928 . S
H489 C486 0.931 . S
H490 C466 0.930 . S
H491 C463 0.930 . S
H492 C472 0.930 . S
H493 C484 0.929 . S
H494 C487 0.930 . S
C495 C496 1.351 . S
C495 N498 1.368 . S
C495 H500 0.931 . S
C496 C495 1.351 . S
C496 N497 1.373 . S
C496 H524 0.930 . S
N497 C496 1.373 . S
N497 C499 1.340 . S
N498 C495 1.368 . S
N498 C499 1.321 . S
N498 Co501 2.135 . S
C499 N497 1.340 . S
C499 N498 1.321 . S
C499 H523 0.930 . S
H500 C495 0.931 . S
Co501 N498 2.135 . S
Co501 N504 2.121 . S
Co501 O509 2.055 . S
Co501 O512 2.039 . S
Co501 N515 2.140 . S
C502 O503 1.227 . S
C502 O512 1.265 . S
O503 C502 1.227 . S
N504 Co501 2.121 . S
N504 C506 1.375 . S
N504 C507 1.313 . S
C505 C506 1.338 . S
C505 N508 1.377 . S
C505 H525 0.930 . S
C506 N504 1.375 . S
C506 C505 1.338 . S
C506 H510 0.931 . S
C507 N504 1.313 . S
C507 N508 1.344 . S
C507 H511 0.930 . S
N508 C505 1.377 . S
N508 C507 1.344 . S
O509 Co501 2.055 . S
O509 C513 1.253 . S
H510 C506 0.931 . S
H511 C507 0.930 . S
O512 Co501 2.039 . S
O512 C502 1.265 . S
C513 O509 1.253 . S
C513 O514 1.227 . S
O514 C513 1.227 . S
N515 Co501 2.140 . S
N515 C518 1.346 . S
N515 C519 1.345 . S
C516 C517 1.387 . S
C516 C520 1.391 . S
C517 C516 1.387 . S
C517 C518 1.369 . S
C517 H526 0.929 . S
C518 N515 1.346 . S
C518 C517 1.369 . S
C518 H521 0.928 . S
C519 N515 1.345 . S
C519 C520 1.371 . S
C519 H522 0.931 . S
C520 C516 1.391 . S
C520 C519 1.371 . S
C520 H527 0.930 . S
H521 C518 0.928 . S
H522 C519 0.931 . S
H523 C499 0.930 . S
H524 C496 0.930 . S
H525 C505 0.930 . S
H526 C517 0.929 . S
H527 C520 0.930 . S
C528 C529 1.351 . S
C528 N531 1.368 . S
C528 H533 0.931 . S
C529 C528 1.351 . S
C529 N530 1.373 . S
C529 H557 0.930 . S
N530 C529 1.373 . S
N530 C532 1.340 . S
N531 C528 1.368 . S
N531 C532 1.321 . S
N531 Co534 2.135 . S
C532 N530 1.340 . S
C532 N531 1.321 . S
C532 H556 0.930 . S
H533 C528 0.931 . S
Co534 N531 2.135 . S
Co534 N537 2.121 . S
Co534 O542 2.055 . S
Co534 O545 2.039 . S
Co534 N548 2.140 . S
C535 O536 1.227 . S
C535 O545 1.265 . S
O536 C535 1.227 . S
N537 Co534 2.121 . S
N537 C539 1.375 . S
N537 C540 1.313 . S
C538 C539 1.338 . S
C538 N541 1.377 . S
C538 H558 0.930 . S
C539 N537 1.375 . S
C539 C538 1.338 . S
C539 H543 0.931 . S
C540 N537 1.313 . S
C540 N541 1.344 . S
C540 H544 0.930 . S
N541 C538 1.377 . S
N541 C540 1.344 . S
O542 Co534 2.055 . S
O542 C546 1.253 . S
H543 C539 0.931 . S
H544 C540 0.930 . S
O545 Co534 2.039 . S
O545 C535 1.265 . S
C546 O542 1.253 . S
C546 O547 1.227 . S
O547 C546 1.227 . S
N548 Co534 2.140 . S
N548 C551 1.346 . S
N548 C552 1.345 . S
C549 C550 1.387 . S
C549 C553 1.391 . S
C550 C549 1.387 . S
C550 C551 1.369 . S
C550 H559 0.929 . S
C551 N548 1.346 . S
C551 C550 1.369 . S
C551 H554 0.928 . S
C552 N548 1.345 . S
C552 C553 1.371 . S
C552 H555 0.931 . S
C553 C549 1.391 . S
C553 C552 1.371 . S
C553 H560 0.930 . S
H554 C551 0.928 . S
H555 C552 0.931 . S
H556 C532 0.930 . S
H557 C529 0.930 . S
H558 C538 0.930 . S
H559 C550 0.929 . S
H560 C553 0.930 . S
C561 C562 1.351 . S
C561 N564 1.368 . S
C561 H566 0.931 . S
C562 C561 1.351 . S
C562 N563 1.373 . S
C562 H590 0.930 . S
N563 C562 1.373 . S
N563 C565 1.340 . S
N564 C561 1.368 . S
N564 C565 1.321 . S
N564 Co567 2.135 . S
C565 N563 1.340 . S
C565 N564 1.321 . S
C565 H589 0.930 . S
H566 C561 0.931 . S
Co567 N564 2.135 . S
Co567 N570 2.121 . S
Co567 O575 2.055 . S
Co567 O578 2.039 . S
Co567 N581 2.140 . S
C568 O569 1.227 . S
C568 O578 1.265 . S
O569 C568 1.227 . S
N570 Co567 2.121 . S
N570 C572 1.375 . S
N570 C573 1.313 . S
C571 C572 1.338 . S
C571 N574 1.377 . S
C571 H591 0.930 . S
C572 N570 1.375 . S
C572 C571 1.338 . S
C572 H576 0.931 . S
C573 N570 1.313 . S
C573 N574 1.344 . S
C573 H577 0.930 . S
N574 C571 1.377 . S
N574 C573 1.344 . S
O575 Co567 2.055 . S
O575 C579 1.253 . S
H576 C572 0.931 . S
H577 C573 0.930 . S
O578 Co567 2.039 . S
O578 C568 1.265 . S
C579 O575 1.253 . S
C579 O580 1.227 . S
O580 C579 1.227 . S
N581 Co567 2.140 . S
N581 C584 1.346 . S
N581 C585 1.345 . S
C582 C583 1.387 . S
C582 C586 1.391 . S
C583 C582 1.387 . S
C583 C584 1.369 . S
C583 H592 0.929 . S
C584 N581 1.346 . S
C584 C583 1.369 . S
C584 H587 0.928 . S
C585 N581 1.345 . S
C585 C586 1.371 . S
C585 H588 0.931 . S
C586 C582 1.391 . S
C586 C585 1.371 . S
C586 H593 0.930 . S
H587 C584 0.928 . S
H588 C585 0.931 . S
H589 C565 0.930 . S
H590 C562 0.930 . S
H591 C571 0.930 . S
H592 C583 0.929 . S
H593 C586 0.930 . S
C594 C595 1.349 . S
C594 C596 1.327 . S
C594 H619 0.950 . S
C595 C594 1.349 . S
C595 C611 1.349 . S
C596 C594 1.327 . S
C596 C615 1.429 . S
C596 H620 0.950 . S
C597 C614 1.574 . S
C597 C616 1.368 . S
C597 H621 0.949 . S
H598 C602 0.949 . S
C599 C600 1.349 . S
C599 C601 1.327 . S
C599 H622 0.950 . S
C600 C599 1.349 . S
C600 C612 1.349 . S
C601 C599 1.327 . S
C601 C617 1.429 . S
C601 H623 0.950 . S
C602 H598 0.949 . S
C602 C610 1.574 . S
C602 C618 1.368 . S
H603 C611 0.950 . S
H604 C609 0.950 . S
H605 C610 0.949 . S
H606 C612 0.950 . S
H607 C613 0.950 . S
H608 C614 0.949 . S
C609 H604 0.950 . S
C609 C611 1.327 . S
C609 C615 1.429 . S
C610 C602 1.574 . S
C610 H605 0.949 . S
C610 C616 1.368 . S
C611 C595 1.349 . S
C611 H603 0.950 . S
C611 C609 1.327 . S
C612 C600 1.349 . S
C612 H606 0.950 . S
C612 C613 1.327 . S
C613 H607 0.950 . S
C613 C612 1.327 . S
C613 C617 1.429 . S
C614 C597 1.574 . S
C614 H608 0.949 . S
C614 C618 1.368 . S
C615 C596 1.429 . S
C615 C609 1.429 . S
C615 C616 1.523 . S
C616 C597 1.368 . S
C616 C610 1.368 . S
C616 C615 1.523 . S
C617 C601 1.429 . S
C617 C613 1.429 . S
C617 C618 1.523 . S
C618 C602 1.368 . S
C618 C614 1.368 . S
C618 C617 1.523 . S
H619 C594 0.950 . S
H620 C596 0.950 . S
H621 C597 0.949 . S
H622 C599 0.950 . S
H623 C601 0.950 . S
C624 C625 1.349 . S
C624 C626 1.327 . S
C624 H649 0.950 . S
C625 C624 1.349 . S
C625 C641 1.349 . S
C626 C624 1.327 . S
C626 C645 1.429 . S
C626 H650 0.950 . S
C627 C644 1.574 1_545 S
C627 C646 1.368 . S
C627 H651 0.949 . S
H628 C632 0.949 . S
C629 C630 1.349 . S
C629 C631 1.327 . S
C629 H652 0.950 . S
C630 C629 1.349 . S
C630 C642 1.349 . S
C631 C629 1.327 . S
C631 C647 1.429 . S
C631 H653 0.950 . S
C632 H628 0.949 . S
C632 C640 1.574 1_565 S
C632 C648 1.368 . S
H633 C641 0.950 . S
H634 C639 0.950 . S
H635 C640 0.949 . S
H636 C642 0.950 . S
H637 C643 0.950 . S
H638 C644 0.949 . S
C639 H634 0.950 . S
C639 C641 1.327 . S
C639 C645 1.429 . S
C640 C632 1.574 1_545 S
C640 H635 0.949 . S
C640 C646 1.368 . S
C641 C625 1.349 . S
C641 H633 0.950 . S
C641 C639 1.327 . S
C642 C630 1.349 . S
C642 H636 0.950 . S
C642 C643 1.327 . S
C643 H637 0.950 . S
C643 C642 1.327 . S
C643 C647 1.429 . S
C644 C627 1.574 1_565 S
C644 H638 0.949 . S
C644 C648 1.368 . S
C645 C626 1.429 . S
C645 C639 1.429 . S
C645 C646 1.523 . S
C646 C627 1.368 . S
C646 C640 1.368 . S
C646 C645 1.523 . S
C647 C631 1.429 . S
C647 C643 1.429 . S
C647 C648 1.523 . S
C648 C632 1.368 . S
C648 C644 1.368 . S
C648 C647 1.523 . S
H649 C624 0.950 . S
H650 C626 0.950 . S
H651 C627 0.949 . S
H652 C629 0.950 . S
H653 C631 0.950 . S
C654 C655 1.349 . S
C654 C656 1.327 . S
C654 H679 0.950 . S
C655 C654 1.349 . S
C655 C671 1.349 . S
C656 C654 1.327 . S
C656 C675 1.429 . S
C656 H680 0.950 . S
C657 C674 1.574 1_655 S
C657 C676 1.368 . S
C657 H681 0.949 . S
H658 C662 0.949 . S
C659 C660 1.349 . S
C659 C661 1.327 . S
C659 H682 0.950 . S
C660 C659 1.349 . S
C660 C672 1.349 . S
C661 C659 1.327 . S
C661 C677 1.429 . S
C661 H683 0.950 . S
C662 H658 0.949 . S
C662 C670 1.574 1_455 S
C662 C678 1.368 . S
H663 C671 0.950 . S
H664 C669 0.950 . S
H665 C670 0.949 . S
H666 C672 0.950 . S
H667 C673 0.950 . S
H668 C674 0.949 . S
C669 H664 0.950 . S
C669 C671 1.327 . S
C669 C675 1.429 . S
C670 C662 1.574 1_655 S
C670 H665 0.949 . S
C670 C676 1.368 . S
C671 C655 1.349 . S
C671 H663 0.950 . S
C671 C669 1.327 . S
C672 C660 1.349 . S
C672 H666 0.950 . S
C672 C673 1.327 . S
C673 H667 0.950 . S
C673 C672 1.327 . S
C673 C677 1.429 . S
C674 C657 1.574 1_455 S
C674 H668 0.949 . S
C674 C678 1.368 . S
C675 C656 1.429 . S
C675 C669 1.429 . S
C675 C676 1.523 . S
C676 C657 1.368 . S
C676 C670 1.368 . S
C676 C675 1.523 . S
C677 C661 1.429 . S
C677 C673 1.429 . S
C677 C678 1.523 . S
C678 C662 1.368 . S
C678 C674 1.368 . S
C678 C677 1.523 . S
H679 C654 0.950 . S
H680 C656 0.950 . S
H681 C657 0.949 . S
H682 C659 0.950 . S
H683 C661 0.950 . S
C684 C685 1.349 . S
C684 C686 1.327 . S
C684 H709 0.950 . S
C685 C684 1.349 . S
C685 C701 1.349 . S
C686 C684 1.327 . S
C686 C705 1.429 . S
C686 H710 0.950 . S
C687 C704 1.574 . S
C687 C706 1.368 . S
C687 H711 0.949 . S
H688 C692 0.949 . S
C689 C690 1.349 . S
C689 C691 1.327 . S
C689 H712 0.950 . S
C690 C689 1.349 . S
C690 C702 1.349 . S
C691 C689 1.327 . S
C691 C707 1.429 . S
C691 H713 0.950 . S
C692 H688 0.949 . S
C692 C700 1.574 . S
C692 C708 1.368 . S
H693 C701 0.950 . S
H694 C699 0.950 . S
H695 C700 0.949 . S
H696 C702 0.950 . S
H697 C703 0.950 . S
H698 C704 0.949 . S
C699 H694 0.950 . S
C699 C701 1.327 . S
C699 C705 1.429 . S
C700 C692 1.574 . S
C700 H695 0.949 . S
C700 C706 1.368 . S
C701 C685 1.349 . S
C701 H693 0.950 . S
C701 C699 1.327 . S
C702 C690 1.349 . S
C702 H696 0.950 . S
C702 C703 1.327 . S
C703 H697 0.950 . S
C703 C702 1.327 . S
C703 C707 1.429 . S
C704 C687 1.574 . S
C704 H698 0.949 . S
C704 C708 1.368 . S
C705 C686 1.429 . S
C705 C699 1.429 . S
C705 C706 1.523 . S
C706 C687 1.368 . S
C706 C700 1.368 . S
C706 C705 1.523 . S
C707 C691 1.429 . S
C707 C703 1.429 . S
C707 C708 1.523 . S
C708 C692 1.368 . S
C708 C704 1.368 . S
C708 C707 1.523 . S
H709 C684 0.950 . S
H710 C686 0.950 . S
H711 C687 0.949 . S
H712 C689 0.950 . S
H713 C691 0.950 . S
C714 C715 1.349 . S
C714 C716 1.327 . S
C714 H739 0.950 . S
C715 C714 1.349 . S
C715 C731 1.349 . S
C716 C714 1.327 . S
C716 C735 1.429 . S
C716 H740 0.950 . S
C717 C734 1.574 1_545 S
C717 C736 1.368 . S
C717 H741 0.949 . S
H718 C722 0.949 . S
C719 C720 1.349 . S
C719 C721 1.327 . S
C719 H742 0.950 . S
C720 C719 1.349 . S
C720 C732 1.349 . S
C721 C719 1.327 . S
C721 C737 1.429 . S
C721 H743 0.950 . S
C722 H718 0.949 . S
C722 C730 1.574 1_565 S
C722 C738 1.368 . S
H723 C731 0.950 . S
H724 C729 0.950 . S
H725 C730 0.949 . S
H726 C732 0.950 . S
H727 C733 0.950 . S
H728 C734 0.949 . S
C729 H724 0.950 . S
C729 C731 1.327 . S
C729 C735 1.429 . S
C730 C722 1.574 1_545 S
C730 H725 0.949 . S
C730 C736 1.368 . S
C731 C715 1.349 . S
C731 H723 0.950 . S
C731 C729 1.327 . S
C732 C720 1.349 . S
C732 H726 0.950 . S
C732 C733 1.327 . S
C733 H727 0.950 . S
C733 C732 1.327 . S
C733 C737 1.429 . S
C734 C717 1.574 1_565 S
C734 H728 0.949 . S
C734 C738 1.368 . S
C735 C716 1.429 . S
C735 C729 1.429 . S
C735 C736 1.523 . S
C736 C717 1.368 . S
C736 C730 1.368 . S
C736 C735 1.523 . S
C737 C721 1.429 . S
C737 C733 1.429 . S
C737 C738 1.523 . S
C738 C722 1.368 . S
C738 C734 1.368 . S
C738 C737 1.523 . S
H739 C714 0.950 . S
H740 C716 0.950 . S
H741 C717 0.949 . S
H742 C719 0.950 . S
H743 C721 0.950 . S
C744 C745 1.349 . S
C744 C746 1.327 . S
C744 H769 0.950 . S
C745 C744 1.349 . S
C745 C761 1.349 . S
C746 C744 1.327 . S
C746 C765 1.429 . S
C746 H770 0.950 . S
C747 C764 1.574 1_655 S
C747 C766 1.368 . S
C747 H771 0.949 . S
H748 C752 0.949 . S
C749 C750 1.349 . S
C749 C751 1.327 . S
C749 H772 0.950 . S
C750 C749 1.349 . S
C750 C762 1.349 . S
C751 C749 1.327 . S
C751 C767 1.429 . S
C751 H773 0.950 . S
C752 H748 0.949 . S
C752 C760 1.574 1_455 S
C752 C768 1.368 . S
H753 C761 0.950 . S
H754 C759 0.950 . S
H755 C760 0.949 . S
H756 C762 0.950 . S
H757 C763 0.950 . S
H758 C764 0.949 . S
C759 H754 0.950 . S
C759 C761 1.327 . S
C759 C765 1.429 . S
C760 C752 1.574 1_655 S
C760 H755 0.949 . S
C760 C766 1.368 . S
C761 C745 1.349 . S
C761 H753 0.950 . S
C761 C759 1.327 . S
C762 C750 1.349 . S
C762 H756 0.950 . S
C762 C763 1.327 . S
C763 H757 0.950 . S
C763 C762 1.327 . S
C763 C767 1.429 . S
C764 C747 1.574 1_455 S
C764 H758 0.949 . S
C764 C768 1.368 . S
C765 C746 1.429 . S
C765 C759 1.429 . S
C765 C766 1.523 . S
C766 C747 1.368 . S
C766 C760 1.368 . S
C766 C765 1.523 . S
C767 C751 1.429 . S
C767 C763 1.429 . S
C767 C768 1.523 . S
C768 C752 1.368 . S
C768 C764 1.368 . S
C768 C767 1.523 . S
H769 C744 0.950 . S
H770 C746 0.950 . S
H771 C747 0.949 . S
H772 C749 0.950 . S
H773 C751 0.950 . S
C774 C775 1.349 . S
C774 C776 1.327 . S
C774 H799 0.950 . S
C775 C774 1.349 . S
C775 C791 1.349 . S
C776 C774 1.327 . S
C776 C795 1.429 . S
C776 H800 0.950 . S
C777 C794 1.574 . S
C777 C796 1.368 . S
C777 H801 0.949 . S
H778 C782 0.949 . S
C779 C780 1.349 . S
C779 C781 1.327 . S
C779 H802 0.950 . S
C780 C779 1.349 . S
C780 C792 1.349 . S
C781 C779 1.327 . S
C781 C797 1.429 . S
C781 H803 0.950 . S
C782 H778 0.949 . S
C782 C790 1.574 . S
C782 C798 1.368 . S
H783 C791 0.950 . S
H784 C789 0.950 . S
H785 C790 0.949 . S
H786 C792 0.950 . S
H787 C793 0.950 . S
H788 C794 0.949 . S
C789 H784 0.950 . S
C789 C791 1.327 . S
C789 C795 1.429 . S
C790 C782 1.574 . S
C790 H785 0.949 . S
C790 C796 1.368 . S
C791 C775 1.349 . S
C791 H783 0.950 . S
C791 C789 1.327 . S
C792 C780 1.349 . S
C792 H786 0.950 . S
C792 C793 1.327 . S
C793 H787 0.950 . S
C793 C792 1.327 . S
C793 C797 1.429 . S
C794 C777 1.574 . S
C794 H788 0.949 . S
C794 C798 1.368 . S
C795 C776 1.429 . S
C795 C789 1.429 . S
C795 C796 1.523 . S
C796 C777 1.368 . S
C796 C790 1.368 . S
C796 C795 1.523 . S
C797 C781 1.429 . S
C797 C793 1.429 . S
C797 C798 1.523 . S
C798 C782 1.368 . S
C798 C794 1.368 . S
C798 C797 1.523 . S
H799 C774 0.950 . S
H800 C776 0.950 . S
H801 C777 0.949 . S
H802 C779 0.950 . S
H803 C781 0.950 . S
C804 C805 1.349 . S
C804 C806 1.327 . S
C804 H829 0.950 . S
C805 C804 1.349 . S
C805 C821 1.349 . S
C806 C804 1.327 . S
C806 C825 1.429 . S
C806 H830 0.950 . S
C807 C824 1.574 . S
C807 C826 1.368 . S
C807 H831 0.949 . S
H808 C812 0.949 . S
C809 C810 1.349 . S
C809 C811 1.327 . S
C809 H832 0.950 . S
C810 C809 1.349 . S
C810 C822 1.349 . S
C811 C809 1.327 . S
C811 C827 1.429 . S
C811 H833 0.950 . S
C812 H808 0.949 . S
C812 C820 1.574 . S
C812 C828 1.368 . S
H813 C821 0.950 . S
H814 C819 0.950 . S
H815 C820 0.949 . S
H816 C822 0.950 . S
H817 C823 0.950 . S
H818 C824 0.949 . S
C819 H814 0.950 . S
C819 C821 1.327 . S
C819 C825 1.429 . S
C820 C812 1.574 . S
C820 H815 0.949 . S
C820 C826 1.368 . S
C821 C805 1.349 . S
C821 H813 0.950 . S
C821 C819 1.327 . S
C822 C810 1.349 . S
C822 H816 0.950 . S
C822 C823 1.327 . S
C823 H817 0.950 . S
C823 C822 1.327 . S
C823 C827 1.429 . S
C824 C807 1.574 . S
C824 H818 0.949 . S
C824 C828 1.368 . S
C825 C806 1.429 . S
C825 C819 1.429 . S
C825 C826 1.523 . S
C826 C807 1.368 . S
C826 C820 1.368 . S
C826 C825 1.523 . S
C827 C811 1.429 . S
C827 C823 1.429 . S
C827 C828 1.523 . S
C828 C812 1.368 . S
C828 C824 1.368 . S
C828 C827 1.523 . S
H829 C804 0.950 . S
H830 C806 0.950 . S
H831 C807 0.949 . S
H832 C809 0.950 . S
H833 C811 0.950 . S
C834 C835 1.349 . S
C834 C836 1.327 . S
C834 H859 0.950 . S
C835 C834 1.349 . S
C835 C851 1.349 . S
C836 C834 1.327 . S
C836 C855 1.429 . S
C836 H860 0.950 . S
C837 C854 1.574 . S
C837 C856 1.368 . S
C837 H861 0.949 . S
H838 C842 0.949 . S
C839 C840 1.349 . S
C839 C841 1.327 . S
C839 H862 0.950 . S
C840 C839 1.349 . S
C840 C852 1.349 . S
C841 C839 1.327 . S
C841 C857 1.429 . S
C841 H863 0.950 . S
C842 H838 0.949 . S
C842 C850 1.574 . S
C842 C858 1.368 . S
H843 C851 0.950 . S
H844 C849 0.950 . S
H845 C850 0.949 . S
H846 C852 0.950 . S
H847 C853 0.950 . S
H848 C854 0.949 . S
C849 H844 0.950 . S
C849 C851 1.327 . S
C849 C855 1.429 . S
C850 C842 1.574 . S
C850 H845 0.949 . S
C850 C856 1.368 . S
C851 C835 1.349 . S
C851 H843 0.950 . S
C851 C849 1.327 . S
C852 C840 1.349 . S
C852 H846 0.950 . S
C852 C853 1.327 . S
C853 H847 0.950 . S
C853 C852 1.327 . S
C853 C857 1.429 . S
C854 C837 1.574 . S
C854 H848 0.949 . S
C854 C858 1.368 . S
C855 C836 1.429 . S
C855 C849 1.429 . S
C855 C856 1.523 . S
C856 C837 1.368 . S
C856 C850 1.368 . S
C856 C855 1.523 . S
C857 C841 1.429 . S
C857 C853 1.429 . S
C857 C858 1.523 . S
C858 C842 1.368 . S
C858 C854 1.368 . S
C858 C857 1.523 . S
H859 C834 0.950 . S
H860 C836 0.950 . S
H861 C837 0.949 . S
H862 C839 0.950 . S
H863 C841 0.950 . S
C864 C865 1.349 . S
C864 C866 1.327 . S
C864 H889 0.950 . S
C865 C864 1.349 . S
C865 C881 1.349 . S
C866 C864 1.327 . S
C866 C885 1.429 . S
C866 H890 0.950 . S
C867 C884 1.574 . S
C867 C886 1.368 . S
C867 H891 0.949 . S
H868 C872 0.949 . S
C869 C870 1.349 . S
C869 C871 1.327 . S
C869 H892 0.950 . S
C870 C869 1.349 . S
C870 C882 1.349 . S
C871 C869 1.327 . S
C871 C887 1.429 . S
C871 H893 0.950 . S
C872 H868 0.949 . S
C872 C880 1.574 . S
C872 C888 1.368 . S
H873 C881 0.950 . S
H874 C879 0.950 . S
H875 C880 0.949 . S
H876 C882 0.950 . S
H877 C883 0.950 . S
H878 C884 0.949 . S
C879 H874 0.950 . S
C879 C881 1.327 . S
C879 C885 1.429 . S
C880 C872 1.574 . S
C880 H875 0.949 . S
C880 C886 1.368 . S
C881 C865 1.349 . S
C881 H873 0.950 . S
C881 C879 1.327 . S
C882 C870 1.349 . S
C882 H876 0.950 . S
C882 C883 1.327 . S
C883 H877 0.950 . S
C883 C882 1.327 . S
C883 C887 1.429 . S
C884 C867 1.574 . S
C884 H878 0.949 . S
C884 C888 1.368 . S
C885 C866 1.429 . S
C885 C879 1.429 . S
C885 C886 1.523 . S
C886 C867 1.368 . S
C886 C880 1.368 . S
C886 C885 1.523 . S
C887 C871 1.429 . S
C887 C883 1.429 . S
C887 C888 1.523 . S
C888 C872 1.368 . S
C888 C884 1.368 . S
C888 C887 1.523 . S
H889 C864 0.950 . S
H890 C866 0.950 . S
H891 C867 0.949 . S
H892 C869 0.950 . S
H893 C871 0.950 . S
C894 C895 1.349 . S
C894 C896 1.327 . S
C894 H919 0.950 . S
C895 C894 1.349 . S
C895 C911 1.349 . S
C896 C894 1.327 . S
C896 C915 1.429 . S
C896 H920 0.950 . S
C897 C914 1.574 . S
C897 C916 1.368 . S
C897 H921 0.949 . S
H898 C902 0.949 . S
C899 C900 1.349 . S
C899 C901 1.327 . S
C899 H922 0.950 . S
C900 C899 1.349 . S
C900 C912 1.349 . S
C901 C899 1.327 . S
C901 C917 1.429 . S
C901 H923 0.950 . S
C902 H898 0.949 . S
C902 C910 1.574 . S
C902 C918 1.368 . S
H903 C911 0.950 . S
H904 C909 0.950 . S
H905 C910 0.949 . S
H906 C912 0.950 . S
H907 C913 0.950 . S
H908 C914 0.949 . S
C909 H904 0.950 . S
C909 C911 1.327 . S
C909 C915 1.429 . S
C910 C902 1.574 . S
C910 H905 0.949 . S
C910 C916 1.368 . S
C911 C895 1.349 . S
C911 H903 0.950 . S
C911 C909 1.327 . S
C912 C900 1.349 . S
C912 H906 0.950 . S
C912 C913 1.327 . S
C913 H907 0.950 . S
C913 C912 1.327 . S
C913 C917 1.429 . S
C914 C897 1.574 . S
C914 H908 0.949 . S
C914 C918 1.368 . S
C915 C896 1.429 . S
C915 C909 1.429 . S
C915 C916 1.523 . S
C916 C897 1.368 . S
C916 C910 1.368 . S
C916 C915 1.523 . S
C917 C901 1.429 . S
C917 C913 1.429 . S
C917 C918 1.523 . S
C918 C902 1.368 . S
C918 C914 1.368 . S
C918 C917 1.523 . S
H919 C894 0.950 . S
H920 C896 0.950 . S
H921 C897 0.949 . S
H922 C899 0.950 . S
H923 C901 0.950 . S
C924 C925 1.349 . S
C924 C926 1.327 . S
C924 H949 0.950 . S
C925 C924 1.349 . S
C925 C941 1.349 . S
C926 C924 1.327 . S
C926 C945 1.429 . S
C926 H950 0.950 . S
C927 C944 1.574 . S
C927 C946 1.368 . S
C927 H951 0.949 . S
H928 C932 0.949 . S
C929 C930 1.349 . S
C929 C931 1.327 . S
C929 H952 0.950 . S
C930 C929 1.349 . S
C930 C942 1.349 . S
C931 C929 1.327 . S
C931 C947 1.429 . S
C931 H953 0.950 . S
C932 H928 0.949 . S
C932 C940 1.574 . S
C932 C948 1.368 . S
H933 C941 0.950 . S
H934 C939 0.950 . S
H935 C940 0.949 . S
H936 C942 0.950 . S
H937 C943 0.950 . S
H938 C944 0.949 . S
C939 H934 0.950 . S
C939 C941 1.327 . S
C939 C945 1.429 . S
C940 C932 1.574 . S
C940 H935 0.949 . S
C940 C946 1.368 . S
C941 C925 1.349 . S
C941 H933 0.950 . S
C941 C939 1.327 . S
C942 C930 1.349 . S
C942 H936 0.950 . S
C942 C943 1.327 . S
C943 H937 0.950 . S
C943 C942 1.327 . S
C943 C947 1.429 . S
C944 C927 1.574 . S
C944 H938 0.949 . S
C944 C948 1.368 . S
C945 C926 1.429 . S
C945 C939 1.429 . S
C945 C946 1.523 . S
C946 C927 1.368 . S
C946 C940 1.368 . S
C946 C945 1.523 . S
C947 C931 1.429 . S
C947 C943 1.429 . S
C947 C948 1.523 . S
C948 C932 1.368 . S
C948 C944 1.368 . S
C948 C947 1.523 . S
H949 C924 0.950 . S
H950 C926 0.950 . S
H951 C927 0.949 . S
H952 C929 0.950 . S
H953 C931 0.950 . S
C954 C955 1.349 . S
C954 C956 1.327 . S
C954 H979 0.950 . S
C955 C954 1.349 . S
C955 C971 1.349 . S
C956 C954 1.327 . S
C956 C975 1.429 . S
C956 H980 0.950 . S
C957 C974 1.574 . S
C957 C976 1.368 . S
C957 H981 0.949 . S
H958 C962 0.949 . S
C959 C960 1.349 . S
C959 C961 1.327 . S
C959 H982 0.950 . S
C960 C959 1.349 . S
C960 C972 1.349 . S
C961 C959 1.327 . S
C961 C977 1.429 . S
C961 H983 0.950 . S
C962 H958 0.949 . S
C962 C970 1.574 . S
C962 C978 1.368 . S
H963 C971 0.950 . S
H964 C969 0.950 . S
H965 C970 0.949 . S
H966 C972 0.950 . S
H967 C973 0.950 . S
H968 C974 0.949 . S
C969 H964 0.950 . S
C969 C971 1.327 . S
C969 C975 1.429 . S
C970 C962 1.574 . S
C970 H965 0.949 . S
C970 C976 1.368 . S
C971 C955 1.349 . S
C971 H963 0.950 . S
C971 C969 1.327 . S
C972 C960 1.349 . S
C972 H966 0.950 . S
C972 C973 1.327 . S
C973 H967 0.950 . S
C973 C972 1.327 . S
C973 C977 1.429 . S
C974 C957 1.574 . S
C974 H968 0.949 . S
C974 C978 1.368 . S
C975 C956 1.429 . S
C975 C969 1.429 . S
C975 C976 1.523 . S
C976 C957 1.368 . S
C976 C970 1.368 . S
C976 C975 1.523 . S
C977 C961 1.429 . S
C977 C973 1.429 . S
C977 C978 1.523 . S
C978 C962 1.368 . S
C978 C974 1.368 . S
C978 C977 1.523 . S
H979 C954 0.950 . S
H980 C956 0.950 . S
H981 C957 0.949 . S
H982 C959 0.950 . S
H983 C961 0.950 . S
C984 C985 1.349 . S
C984 C986 1.327 . S
C984 H1009 0.950 . S
C985 C984 1.349 . S
C985 C1001 1.349 . S
C986 C984 1.327 . S
C986 C1005 1.429 . S
C986 H1010 0.950 . S
C987 C1004 1.574 . S
C987 C1006 1.368 . S
C987 H1011 0.949 . S
H988 C992 0.949 . S
C989 C990 1.349 . S
C989 C991 1.327 . S
C989 H1012 0.950 . S
C990 C989 1.349 . S
C990 C1002 1.349 . S
C991 C989 1.327 . S
C991 C1007 1.429 . S
C991 H1013 0.950 . S
C992 H988 0.949 . S
C992 C1000 1.574 . S
C992 C1008 1.368 . S
H993 C1001 0.950 . S
H994 C999 0.950 . S
H995 C1000 0.949 . S
H996 C1002 0.950 . S
H997 C1003 0.950 . S
H998 C1004 0.949 . S
C999 H994 0.950 . S
C999 C1001 1.327 . S
C999 C1005 1.429 . S
C1000 C992 1.574 . S
C1000 H995 0.949 . S
C1000 C1006 1.368 . S
C1001 C985 1.349 . S
C1001 H993 0.950 . S
C1001 C999 1.327 . S
C1002 C990 1.349 . S
C1002 H996 0.950 . S
C1002 C1003 1.327 . S
C1003 H997 0.950 . S
C1003 C1002 1.327 . S
C1003 C1007 1.429 . S
C1004 C987 1.574 . S
C1004 H998 0.949 . S
C1004 C1008 1.368 . S
C1005 C986 1.429 . S
C1005 C999 1.429 . S
C1005 C1006 1.523 . S
C1006 C987 1.368 . S
C1006 C1000 1.368 . S
C1006 C1005 1.523 . S
C1007 C991 1.429 . S
C1007 C1003 1.429 . S
C1007 C1008 1.523 . S
C1008 C992 1.368 . S
C1008 C1004 1.368 . S
C1008 C1007 1.523 . S
H1009 C984 0.950 . S
H1010 C986 0.950 . S
H1011 C987 0.949 . S
H1012 C989 0.950 . S
H1013 C991 0.950 . S
C1014 C1015 1.349 . S
C1014 C1016 1.327 . S
C1014 H1039 0.950 . S
C1015 C1014 1.349 . S
C1015 C1031 1.349 . S
C1016 C1014 1.327 . S
C1016 C1035 1.429 . S
C1016 H1040 0.950 . S
C1017 C1034 1.574 . S
C1017 C1036 1.368 . S
C1017 H1041 0.949 . S
H1018 C1022 0.949 . S
C1019 C1020 1.349 . S
C1019 C1021 1.327 . S
C1019 H1042 0.950 . S
C1020 C1019 1.349 . S
C1020 C1032 1.349 . S
C1021 C1019 1.327 . S
C1021 C1037 1.429 . S
C1021 H1043 0.950 . S
C1022 H1018 0.949 . S
C1022 C1030 1.574 . S
C1022 C1038 1.368 . S
H1023 C1031 0.950 . S
H1024 C1029 0.950 . S
H1025 C1030 0.949 . S
H1026 C1032 0.950 . S
H1027 C1033 0.950 . S
H1028 C1034 0.949 . S
C1029 H1024 0.950 . S
C1029 C1031 1.327 . S
C1029 C1035 1.429 . S
C1030 C1022 1.574 . S
C1030 H1025 0.949 . S
C1030 C1036 1.368 . S
C1031 C1015 1.349 . S
C1031 H1023 0.950 . S
C1031 C1029 1.327 . S
C1032 C1020 1.349 . S
C1032 H1026 0.950 . S
C1032 C1033 1.327 . S
C1033 H1027 0.950 . S
C1033 C1032 1.327 . S
C1033 C1037 1.429 . S
C1034 C1017 1.574 . S
C1034 H1028 0.949 . S
C1034 C1038 1.368 . S
C1035 C1016 1.429 . S
C1035 C1029 1.429 . S
C1035 C1036 1.523 . S
C1036 C1017 1.368 . S
C1036 C1030 1.368 . S
C1036 C1035 1.523 . S
C1037 C1021 1.429 . S
C1037 C1033 1.429 . S
C1037 C1038 1.523 . S
C1038 C1022 1.368 . S
C1038 C1034 1.368 . S
C1038 C1037 1.523 . S
H1039 C1014 0.950 . S
H1040 C1016 0.950 . S
H1041 C1017 0.949 . S
H1042 C1019 0.950 . S
H1043 C1021 0.950 . S
C1044 C1045 1.349 . S
C1044 C1046 1.327 . S
C1044 H1069 0.950 . S
C1045 C1044 1.349 . S
C1045 C1061 1.349 . S
C1046 C1044 1.327 . S
C1046 C1065 1.429 . S
C1046 H1070 0.950 . S
C1047 C1064 1.574 . S
C1047 C1066 1.368 . S
C1047 H1071 0.949 . S
H1048 C1052 0.949 . S
C1049 C1050 1.349 . S
C1049 C1051 1.327 . S
C1049 H1072 0.950 . S
C1050 C1049 1.349 . S
C1050 C1062 1.349 . S
C1051 C1049 1.327 . S
C1051 C1067 1.429 . S
C1051 H1073 0.950 . S
C1052 H1048 0.949 . S
C1052 C1060 1.574 . S
C1052 C1068 1.368 . S
H1053 C1061 0.950 . S
H1054 C1059 0.950 . S
H1055 C1060 0.949 . S
H1056 C1062 0.950 . S
H1057 C1063 0.950 . S
H1058 C1064 0.949 . S
C1059 H1054 0.950 . S
C1059 C1061 1.327 . S
C1059 C1065 1.429 . S
C1060 C1052 1.574 . S
C1060 H1055 0.949 . S
C1060 C1066 1.368 . S
C1061 C1045 1.349 . S
C1061 H1053 0.950 . S
C1061 C1059 1.327 . S
C1062 C1050 1.349 . S
C1062 H1056 0.950 . S
C1062 C1063 1.327 . S
C1063 H1057 0.950 . S
C1063 C1062 1.327 . S
C1063 C1067 1.429 . S
C1064 C1047 1.574 . S
C1064 H1058 0.949 . S
C1064 C1068 1.368 . S
C1065 C1046 1.429 . S
C1065 C1059 1.429 . S
C1065 C1066 1.523 . S
C1066 C1047 1.368 . S
C1066 C1060 1.368 . S
C1066 C1065 1.523 . S
C1067 C1051 1.429 . S
C1067 C1063 1.429 . S
C1067 C1068 1.523 . S
C1068 C1052 1.368 . S
C1068 C1064 1.368 . S
C1068 C1067 1.523 . S
H1069 C1044 0.950 . S
H1070 C1046 0.950 . S
H1071 C1047 0.949 . S
H1072 C1049 0.950 . S
H1073 C1051 0.950 . S
C1074 C1075 1.349 . S
C1074 C1076 1.327 . S
C1074 H1099 0.950 . S
C1075 C1074 1.349 . S
C1075 C1091 1.349 . S
C1076 C1074 1.327 . S
C1076 C1095 1.429 . S
C1076 H1100 0.950 . S
C1077 C1094 1.574 . S
C1077 C1096 1.368 . S
C1077 H1101 0.949 . S
H1078 C1082 0.949 . S
C1079 C1080 1.349 . S
C1079 C1081 1.327 . S
C1079 H1102 0.950 . S
C1080 C1079 1.349 . S
C1080 C1092 1.349 . S
C1081 C1079 1.327 . S
C1081 C1097 1.429 . S
C1081 H1103 0.950 . S
C1082 H1078 0.949 . S
C1082 C1090 1.574 . S
C1082 C1098 1.368 . S
H1083 C1091 0.950 . S
H1084 C1089 0.950 . S
H1085 C1090 0.949 . S
H1086 C1092 0.950 . S
H1087 C1093 0.950 . S
H1088 C1094 0.949 . S
C1089 H1084 0.950 . S
C1089 C1091 1.327 . S
C1089 C1095 1.429 . S
C1090 C1082 1.574 . S
C1090 H1085 0.949 . S
C1090 C1096 1.368 . S
C1091 C1075 1.349 . S
C1091 H1083 0.950 . S
C1091 C1089 1.327 . S
C1092 C1080 1.349 . S
C1092 H1086 0.950 . S
C1092 C1093 1.327 . S
C1093 H1087 0.950 . S
C1093 C1092 1.327 . S
C1093 C1097 1.429 . S
C1094 C1077 1.574 . S
C1094 H1088 0.949 . S
C1094 C1098 1.368 . S
C1095 C1076 1.429 . S
C1095 C1089 1.429 . S
C1095 C1096 1.523 . S
C1096 C1077 1.368 . S
C1096 C1090 1.368 . S
C1096 C1095 1.523 . S
C1097 C1081 1.429 . S
C1097 C1093 1.429 . S
C1097 C1098 1.523 . S
C1098 C1082 1.368 . S
C1098 C1094 1.368 . S
C1098 C1097 1.523 . S
H1099 C1074 0.950 . S
H1100 C1076 0.950 . S
H1101 C1077 0.949 . S
H1102 C1079 0.950 . S
H1103 C1081 0.950 . S
C1104 C1105 1.349 . S
C1104 C1106 1.327 . S
C1104 H1129 0.950 . S
C1105 C1104 1.349 . S
C1105 C1121 1.349 . S
C1106 C1104 1.327 . S
C1106 C1125 1.429 . S
C1106 H1130 0.950 . S
C1107 C1124 1.574 . S
C1107 C1126 1.368 . S
C1107 H1131 0.949 . S
H1108 C1112 0.949 . S
C1109 C1110 1.349 . S
C1109 C1111 1.327 . S
C1109 H1132 0.950 . S
C1110 C1109 1.349 . S
C1110 C1122 1.349 . S
C1111 C1109 1.327 . S
C1111 C1127 1.429 . S
C1111 H1133 0.950 . S
C1112 H1108 0.949 . S
C1112 C1120 1.574 . S
C1112 C1128 1.368 . S
H1113 C1121 0.950 . S
H1114 C1119 0.950 . S
H1115 C1120 0.949 . S
H1116 C1122 0.950 . S
H1117 C1123 0.950 . S
H1118 C1124 0.949 . S
C1119 H1114 0.950 . S
C1119 C1121 1.327 . S
C1119 C1125 1.429 . S
C1120 C1112 1.574 . S
C1120 H1115 0.949 . S
C1120 C1126 1.368 . S
C1121 C1105 1.349 . S
C1121 H1113 0.950 . S
C1121 C1119 1.327 . S
C1122 C1110 1.349 . S
C1122 H1116 0.950 . S
C1122 C1123 1.327 . S
C1123 H1117 0.950 . S
C1123 C1122 1.327 . S
C1123 C1127 1.429 . S
C1124 C1107 1.574 . S
C1124 H1118 0.949 . S
C1124 C1128 1.368 . S
C1125 C1106 1.429 . S
C1125 C1119 1.429 . S
C1125 C1126 1.523 . S
C1126 C1107 1.368 . S
C1126 C1120 1.368 . S
C1126 C1125 1.523 . S
C1127 C1111 1.429 . S
C1127 C1123 1.429 . S
C1127 C1128 1.523 . S
C1128 C1112 1.368 . S
C1128 C1124 1.368 . S
C1128 C1127 1.523 . S
H1129 C1104 0.950 . S
H1130 C1106 0.950 . S
H1131 C1107 0.949 . S
H1132 C1109 0.950 . S
H1133 C1111 0.950 . S
C1134 C1135 1.349 . S
C1134 C1136 1.327 . S
C1134 H1159 0.950 . S
C1135 C1134 1.349 . S
C1135 C1151 1.349 . S
C1136 C1134 1.327 . S
C1136 C1155 1.429 . S
C1136 H1160 0.950 . S
C1137 C1154 1.574 . S
C1137 C1156 1.368 . S
C1137 H1161 0.949 . S
H1138 C1142 0.949 . S
C1139 C1140 1.349 . S
C1139 C1141 1.327 . S
C1139 H1162 0.950 . S
C1140 C1139 1.349 . S
C1140 C1152 1.349 . S
C1141 C1139 1.327 . S
C1141 C1157 1.429 . S
C1141 H1163 0.950 . S
C1142 H1138 0.949 . S
C1142 C1150 1.574 . S
C1142 C1158 1.368 . S
H1143 C1151 0.950 . S
H1144 C1149 0.950 . S
H1145 C1150 0.949 . S
H1146 C1152 0.950 . S
H1147 C1153 0.950 . S
H1148 C1154 0.949 . S
C1149 H1144 0.950 . S
C1149 C1151 1.327 . S
C1149 C1155 1.429 . S
C1150 C1142 1.574 . S
C1150 H1145 0.949 . S
C1150 C1156 1.368 . S
C1151 C1135 1.349 . S
C1151 H1143 0.950 . S
C1151 C1149 1.327 . S
C1152 C1140 1.349 . S
C1152 H1146 0.950 . S
C1152 C1153 1.327 . S
C1153 H1147 0.950 . S
C1153 C1152 1.327 . S
C1153 C1157 1.429 . S
C1154 C1137 1.574 . S
C1154 H1148 0.949 . S
C1154 C1158 1.368 . S
C1155 C1136 1.429 . S
C1155 C1149 1.429 . S
C1155 C1156 1.523 . S
C1156 C1137 1.368 . S
C1156 C1150 1.368 . S
C1156 C1155 1.523 . S
C1157 C1141 1.429 . S
C1157 C1153 1.429 . S
C1157 C1158 1.523 . S
C1158 C1142 1.368 . S
C1158 C1154 1.368 . S
C1158 C1157 1.523 . S
H1159 C1134 0.950 . S
H1160 C1136 0.950 . S
H1161 C1137 0.949 . S
H1162 C1139 0.950 . S
H1163 C1141 0.950 . S
C1164 C1165 1.349 . S
C1164 C1166 1.327 . S
C1164 H1189 0.950 . S
C1165 C1164 1.349 . S
C1165 C1181 1.349 . S
C1166 C1164 1.327 . S
C1166 C1185 1.429 . S
C1166 H1190 0.950 . S
C1167 C1184 1.574 . S
C1167 C1186 1.368 . S
C1167 H1191 0.949 . S
H1168 C1172 0.949 . S
C1169 C1170 1.349 . S
C1169 C1171 1.327 . S
C1169 H1192 0.950 . S
C1170 C1169 1.349 . S
C1170 C1182 1.349 . S
C1171 C1169 1.327 . S
C1171 C1187 1.429 . S
C1171 H1193 0.950 . S
C1172 H1168 0.949 . S
C1172 C1180 1.574 . S
C1172 C1188 1.368 . S
H1173 C1181 0.950 . S
H1174 C1179 0.950 . S
H1175 C1180 0.949 . S
H1176 C1182 0.950 . S
H1177 C1183 0.950 . S
H1178 C1184 0.949 . S
C1179 H1174 0.950 . S
C1179 C1181 1.327 . S
C1179 C1185 1.429 . S
C1180 C1172 1.574 . S
C1180 H1175 0.949 . S
C1180 C1186 1.368 . S
C1181 C1165 1.349 . S
C1181 H1173 0.950 . S
C1181 C1179 1.327 . S
C1182 C1170 1.349 . S
C1182 H1176 0.950 . S
C1182 C1183 1.327 . S
C1183 H1177 0.950 . S
C1183 C1182 1.327 . S
C1183 C1187 1.429 . S
C1184 C1167 1.574 . S
C1184 H1178 0.949 . S
C1184 C1188 1.368 . S
C1185 C1166 1.429 . S
C1185 C1179 1.429 . S
C1185 C1186 1.523 . S
C1186 C1167 1.368 . S
C1186 C1180 1.368 . S
C1186 C1185 1.523 . S
C1187 C1171 1.429 . S
C1187 C1183 1.429 . S
C1187 C1188 1.523 . S
C1188 C1172 1.368 . S
C1188 C1184 1.368 . S
C1188 C1187 1.523 . S
H1189 C1164 0.950 . S
H1190 C1166 0.950 . S
H1191 C1167 0.949 . S
H1192 C1169 0.950 . S
H1193 C1171 0.950 . S
C1194 C1195 1.349 . S
C1194 C1196 1.327 . S
C1194 H1219 0.950 . S
C1195 C1194 1.349 . S
C1195 C1211 1.349 . S
C1196 C1194 1.327 . S
C1196 C1215 1.429 . S
C1196 H1220 0.950 . S
C1197 C1214 1.574 . S
C1197 C1216 1.368 . S
C1197 H1221 0.949 . S
H1198 C1202 0.949 . S
C1199 C1200 1.349 . S
C1199 C1201 1.327 . S
C1199 H1222 0.950 . S
C1200 C1199 1.349 . S
C1200 C1212 1.349 . S
C1201 C1199 1.327 . S
C1201 C1217 1.429 . S
C1201 H1223 0.950 . S
C1202 H1198 0.949 . S
C1202 C1210 1.574 . S
C1202 C1218 1.368 . S
H1203 C1211 0.950 . S
H1204 C1209 0.950 . S
H1205 C1210 0.949 . S
H1206 C1212 0.950 . S
H1207 C1213 0.950 . S
H1208 C1214 0.949 . S
C1209 H1204 0.950 . S
C1209 C1211 1.327 . S
C1209 C1215 1.429 . S
C1210 C1202 1.574 . S
C1210 H1205 0.949 . S
C1210 C1216 1.368 . S
C1211 C1195 1.349 . S
C1211 H1203 0.950 . S
C1211 C1209 1.327 . S
C1212 C1200 1.349 . S
C1212 H1206 0.950 . S
C1212 C1213 1.327 . S
C1213 H1207 0.950 . S
C1213 C1212 1.327 . S
C1213 C1217 1.429 . S
C1214 C1197 1.574 . S
C1214 H1208 0.949 . S
C1214 C1218 1.368 . S
C1215 C1196 1.429 . S
C1215 C1209 1.429 . S
C1215 C1216 1.523 . S
C1216 C1197 1.368 . S
C1216 C1210 1.368 . S
C1216 C1215 1.523 . S
C1217 C1201 1.429 . S
C1217 C1213 1.429 . S
C1217 C1218 1.523 . S
C1218 C1202 1.368 . S
C1218 C1214 1.368 . S
C1218 C1217 1.523 . S
H1219 C1194 0.950 . S
H1220 C1196 0.950 . S
H1221 C1197 0.949 . S
H1222 C1199 0.950 . S
H1223 C1201 0.950 . S
C1224 C1225 1.349 . S
C1224 C1226 1.327 . S
C1224 H1249 0.950 . S
C1225 C1224 1.349 . S
C1225 C1241 1.349 . S
C1226 C1224 1.327 . S
C1226 C1245 1.429 . S
C1226 H1250 0.950 . S
C1227 C1244 1.574 . S
C1227 C1246 1.368 . S
C1227 H1251 0.949 . S
H1228 C1232 0.949 . S
C1229 C1230 1.349 . S
C1229 C1231 1.327 . S
C1229 H1252 0.950 . S
C1230 C1229 1.349 . S
C1230 C1242 1.349 . S
C1231 C1229 1.327 . S
C1231 C1247 1.429 . S
C1231 H1253 0.950 . S
C1232 H1228 0.949 . S
C1232 C1240 1.574 . S
C1232 C1248 1.368 . S
H1233 C1241 0.950 . S
H1234 C1239 0.950 . S
H1235 C1240 0.949 . S
H1236 C1242 0.950 . S
H1237 C1243 0.950 . S
H1238 C1244 0.949 . S
C1239 H1234 0.950 . S
C1239 C1241 1.327 . S
C1239 C1245 1.429 . S
C1240 C1232 1.574 . S
C1240 H1235 0.949 . S
C1240 C1246 1.368 . S
C1241 C1225 1.349 . S
C1241 H1233 0.950 . S
C1241 C1239 1.327 . S
C1242 C1230 1.349 . S
C1242 H1236 0.950 . S
C1242 C1243 1.327 . S
C1243 H1237 0.950 . S
C1243 C1242 1.327 . S
C1243 C1247 1.429 . S
C1244 C1227 1.574 . S
C1244 H1238 0.949 . S
C1244 C1248 1.368 . S
C1245 C1226 1.429 . S
C1245 C1239 1.429 . S
C1245 C1246 1.523 . S
C1246 C1227 1.368 . S
C1246 C1240 1.368 . S
C1246 C1245 1.523 . S
C1247 C1231 1.429 . S
C1247 C1243 1.429 . S
C1247 C1248 1.523 . S
C1248 C1232 1.368 . S
C1248 C1244 1.368 . S
C1248 C1247 1.523 . S
H1249 C1224 0.950 . S
H1250 C1226 0.950 . S
H1251 C1227 0.949 . S
H1252 C1229 0.950 . S
H1253 C1231 0.950 . S
C1254 C1255 1.349 . S
C1254 C1256 1.327 . S
C1254 H1279 0.950 . S
C1255 C1254 1.349 . S
C1255 C1271 1.349 . S
C1256 C1254 1.327 . S
C1256 C1275 1.429 . S
C1256 H1280 0.950 . S
C1257 C1274 1.574 . S
C1257 C1276 1.368 . S
C1257 H1281 0.949 . S
H1258 C1262 0.949 . S
C1259 C1260 1.349 . S
C1259 C1261 1.327 . S
C1259 H1282 0.950 . S
C1260 C1259 1.349 . S
C1260 C1272 1.349 . S
C1261 C1259 1.327 . S
C1261 C1277 1.429 . S
C1261 H1283 0.950 . S
C1262 H1258 0.949 . S
C1262 C1270 1.574 . S
C1262 C1278 1.368 . S
H1263 C1271 0.950 . S
H1264 C1269 0.950 . S
H1265 C1270 0.949 . S
H1266 C1272 0.950 . S
H1267 C1273 0.950 . S
H1268 C1274 0.949 . S
C1269 H1264 0.950 . S
C1269 C1271 1.327 . S
C1269 C1275 1.429 . S
C1270 C1262 1.574 . S
C1270 H1265 0.949 . S
C1270 C1276 1.368 . S
C1271 C1255 1.349 . S
C1271 H1263 0.950 . S
C1271 C1269 1.327 . S
C1272 C1260 1.349 . S
C1272 H1266 0.950 . S
C1272 C1273 1.327 . S
C1273 H1267 0.950 . S
C1273 C1272 1.327 . S
C1273 C1277 1.429 . S
C1274 C1257 1.574 . S
C1274 H1268 0.949 . S
C1274 C1278 1.368 . S
C1275 C1256 1.429 . S
C1275 C1269 1.429 . S
C1275 C1276 1.523 . S
C1276 C1257 1.368 . S
C1276 C1270 1.368 . S
C1276 C1275 1.523 . S
C1277 C1261 1.429 . S
C1277 C1273 1.429 . S
C1277 C1278 1.523 . S
C1278 C1262 1.368 . S
C1278 C1274 1.368 . S
C1278 C1277 1.523 . S
H1279 C1254 0.950 . S
H1280 C1256 0.950 . S
H1281 C1257 0.949 . S
H1282 C1259 0.950 . S
H1283 C1261 0.950 . S
C1284 C1285 1.349 . S
C1284 C1286 1.327 . S
C1284 H1309 0.950 . S
C1285 C1284 1.349 . S
C1285 C1301 1.349 . S
C1286 C1284 1.327 . S
C1286 C1305 1.429 . S
C1286 H1310 0.950 . S
C1287 C1304 1.574 . S
C1287 C1306 1.368 . S
C1287 H1311 0.949 . S
H1288 C1292 0.949 . S
C1289 C1290 1.349 . S
C1289 C1291 1.327 . S
C1289 H1312 0.950 . S
C1290 C1289 1.349 . S
C1290 C1302 1.349 . S
C1291 C1289 1.327 . S
C1291 C1307 1.429 . S
C1291 H1313 0.950 . S
C1292 H1288 0.949 . S
C1292 C1300 1.574 . S
C1292 C1308 1.368 . S
H1293 C1301 0.950 . S
H1294 C1299 0.950 . S
H1295 C1300 0.949 . S
H1296 C1302 0.950 . S
H1297 C1303 0.950 . S
H1298 C1304 0.949 . S
C1299 H1294 0.950 . S
C1299 C1301 1.327 . S
C1299 C1305 1.429 . S
C1300 C1292 1.574 . S
C1300 H1295 0.949 . S
C1300 C1306 1.368 . S
C1301 C1285 1.349 . S
C1301 H1293 0.950 . S
C1301 C1299 1.327 . S
C1302 C1290 1.349 . S
C1302 H1296 0.950 . S
C1302 C1303 1.327 . S
C1303 H1297 0.950 . S
C1303 C1302 1.327 . S
C1303 C1307 1.429 . S
C1304 C1287 1.574 . S
C1304 H1298 0.949 . S
C1304 C1308 1.368 . S
C1305 C1286 1.429 . S
C1305 C1299 1.429 . S
C1305 C1306 1.523 . S
C1306 C1287 1.368 . S
C1306 C1300 1.368 . S
C1306 C1305 1.523 . S
C1307 C1291 1.429 . S
C1307 C1303 1.429 . S
C1307 C1308 1.523 . S
C1308 C1292 1.368 . S
C1308 C1304 1.368 . S
C1308 C1307 1.523 . S
H1309 C1284 0.950 . S
H1310 C1286 0.950 . S
H1311 C1287 0.949 . S
H1312 C1289 0.950 . S
H1313 C1291 0.950 . S
C1314 C1315 1.349 . S
C1314 C1316 1.327 . S
C1314 H1339 0.950 1_554 S
C1315 C1314 1.349 . S
C1315 C1331 1.349 . S
C1316 C1314 1.327 . S
C1316 C1335 1.429 . S
C1316 H1340 0.950 1_554 S
C1317 C1334 1.574 1_455 S
C1317 C1336 1.368 . S
C1317 H1341 0.949 . S
H1318 C1322 0.949 . S
C1319 C1320 1.349 . S
C1319 C1321 1.327 . S
C1319 H1342 0.951 1_556 S
C1320 C1319 1.349 . S
C1320 C1332 1.349 . S
C1321 C1319 1.327 . S
C1321 C1337 1.429 . S
C1321 H1343 0.950 1_556 S
C1322 H1318 0.949 . S
C1322 C1330 1.574 1_655 S
C1322 C1338 1.368 . S
H1323 C1331 0.950 . S
H1324 C1329 0.950 . S
H1325 C1330 0.949 . S
H1326 C1332 0.950 . S
H1327 C1333 0.950 . S
H1328 C1334 0.949 . S
C1329 H1324 0.950 . S
C1329 C1331 1.327 . S
C1329 C1335 1.429 . S
C1330 C1322 1.574 1_455 S
C1330 H1325 0.949 . S
C1330 C1336 1.368 1_556 S
C1331 C1315 1.349 . S
C1331 H1323 0.950 . S
C1331 C1329 1.327 . S
C1332 C1320 1.349 . S
C1332 H1326 0.950 . S
C1332 C1333 1.327 . S
C1333 H1327 0.950 . S
C1333 C1332 1.327 . S
C1333 C1337 1.429 . S
C1334 C1317 1.574 1_655 S
C1334 H1328 0.949 . S
C1334 C1338 1.368 1_554 S
C1335 C1316 1.429 . S
C1335 C1329 1.429 . S
C1335 C1336 1.523 . S
C1336 C1317 1.368 . S
C1336 C1330 1.368 1_554 S
C1336 C1335 1.523 . S
C1337 C1321 1.429 . S
C1337 C1333 1.429 . S
C1337 C1338 1.523 . S
C1338 C1322 1.368 . S
C1338 C1334 1.368 1_556 S
C1338 C1337 1.523 . S
H1339 C1314 0.950 1_556 S
H1340 C1316 0.950 1_556 S
H1341 C1317 0.949 . S
H1342 C1319 0.951 1_554 S
H1343 C1321 0.950 1_554 S
C1344 C1345 1.349 . S
C1344 C1346 1.327 . S
C1344 H1369 0.950 . S
C1345 C1344 1.349 . S
C1345 C1361 1.349 . S
C1346 C1344 1.327 . S
C1346 C1365 1.429 . S
C1346 H1370 0.950 1_554 S
C1347 C1364 1.574 . S
C1347 C1366 1.368 . S
C1347 H1371 0.949 . S
H1348 C1352 0.949 . S
C1349 C1350 1.349 . S
C1349 C1351 1.327 . S
C1349 H1372 0.950 . S
C1350 C1349 1.349 . S
C1350 C1362 1.349 . S
C1351 C1349 1.327 . S
C1351 C1367 1.429 . S
C1351 H1373 0.950 1_556 S
C1352 H1348 0.949 . S
C1352 C1360 1.574 . S
C1352 C1368 1.368 . S
H1353 C1361 0.950 . S
H1354 C1359 0.950 . S
H1355 C1360 0.949 . S
H1356 C1362 0.950 . S
H1357 C1363 0.950 . S
H1358 C1364 0.949 . S
C1359 H1354 0.950 . S
C1359 C1361 1.327 . S
C1359 C1365 1.429 . S
C1360 C1352 1.574 . S
C1360 H1355 0.949 . S
C1360 C1366 1.368 1_556 S
C1361 C1345 1.349 . S
C1361 H1353 0.950 . S
C1361 C1359 1.327 . S
C1362 C1350 1.349 . S
C1362 H1356 0.950 . S
C1362 C1363 1.327 . S
C1363 H1357 0.950 . S
C1363 C1362 1.327 . S
C1363 C1367 1.429 . S
C1364 C1347 1.574 . S
C1364 H1358 0.949 . S
C1364 C1368 1.368 1_554 S
C1365 C1346 1.429 . S
C1365 C1359 1.429 . S
C1365 C1366 1.523 . S
C1366 C1347 1.368 . S
C1366 C1360 1.368 1_554 S
C1366 C1365 1.523 . S
C1367 C1351 1.429 . S
C1367 C1363 1.429 . S
C1367 C1368 1.523 . S
C1368 C1352 1.368 . S
C1368 C1364 1.368 1_556 S
C1368 C1367 1.523 . S
H1369 C1344 0.950 . S
H1370 C1346 0.950 1_556 S
H1371 C1347 0.949 . S
H1372 C1349 0.950 . S
H1373 C1351 0.950 1_554 S
C1374 C1375 1.349 . S
C1374 C1376 1.327 . S
C1374 H1399 0.950 . S
C1375 C1374 1.349 . S
C1375 C1391 1.349 . S
C1376 C1374 1.327 . S
C1376 C1395 1.429 . S
C1376 H1400 0.950 . S
C1377 C1394 1.574 1_545 S
C1377 C1396 1.368 1_554 S
C1377 H1401 0.949 . S
H1378 C1382 0.949 . S
C1379 C1380 1.349 . S
C1379 C1381 1.327 . S
C1379 H1402 0.950 . S
C1380 C1379 1.349 . S
C1380 C1392 1.349 . S
C1381 C1379 1.327 . S
C1381 C1397 1.429 . S
C1381 H1403 0.950 . S
C1382 H1378 0.949 . S
C1382 C1390 1.574 1_565 S
C1382 C1398 1.368 1_556 S
H1383 C1391 0.950 1_554 S
H1384 C1389 0.950 . S
H1385 C1390 0.949 . S
H1386 C1392 0.950 1_556 S
H1387 C1393 0.950 . S
H1388 C1394 0.949 . S
C1389 H1384 0.950 . S
C1389 C1391 1.327 1_554 S
C1389 C1395 1.428 1_554 S
C1390 C1382 1.574 1_545 S
C1390 H1385 0.949 . S
C1390 C1396 1.368 . S
C1391 C1375 1.349 . S
C1391 H1383 0.950 1_556 S
C1391 C1389 1.327 1_556 S
C1392 C1380 1.349 . S
C1392 H1386 0.950 1_554 S
C1392 C1393 1.327 1_554 S
C1393 H1387 0.950 . S
C1393 C1392 1.327 1_556 S
C1393 C1397 1.428 1_556 S
C1394 C1377 1.574 1_565 S
C1394 H1388 0.949 . S
C1394 C1398 1.368 . S
C1395 C1376 1.429 . S
C1395 C1389 1.428 1_556 S
C1395 C1396 1.523 . S
C1396 C1377 1.368 1_556 S
C1396 C1390 1.368 . S
C1396 C1395 1.523 . S
C1397 C1381 1.429 . S
C1397 C1393 1.428 1_554 S
C1397 C1398 1.523 . S
C1398 C1382 1.368 1_554 S
C1398 C1394 1.368 . S
C1398 C1397 1.523 . S
H1399 C1374 0.950 . S
H1400 C1376 0.950 . S
H1401 C1377 0.949 . S
H1402 C1379 0.950 . S
H1403 C1381 0.950 . S
C1404 C1405 1.349 . S
C1404 C1406 1.327 . S
C1404 H1429 0.950 . S
C1405 C1404 1.349 . S
C1405 C1421 1.349 . S
C1406 C1404 1.327 . S
C1406 C1425 1.429 . S
C1406 H1430 0.950 . S
C1407 C1424 1.574 . S
C1407 C1426 1.368 . S
C1407 H1431 0.949 . S
H1408 C1412 0.949 1_554 S
C1409 C1410 1.349 . S
C1409 C1411 1.327 . S
C1409 H1432 0.950 . S
C1410 C1409 1.349 . S
C1410 C1422 1.349 . S
C1411 C1409 1.327 . S
C1411 C1427 1.429 . S
C1411 H1433 0.950 . S
C1412 H1408 0.949 1_556 S
C1412 C1420 1.574 . S
C1412 C1428 1.370 . S
H1413 C1421 0.950 . S
H1414 C1419 0.950 . S
H1415 C1420 0.949 . S
H1416 C1422 0.950 . S
H1417 C1423 0.950 . S
H1418 C1424 0.949 . S
C1419 H1414 0.950 . S
C1419 C1421 1.327 . S
C1419 C1425 1.429 . S
C1420 C1412 1.574 . S
C1420 H1415 0.949 . S
C1420 C1426 1.368 . S
C1421 C1405 1.349 . S
C1421 H1413 0.950 . S
C1421 C1419 1.327 . S
C1422 C1410 1.349 . S
C1422 H1416 0.950 . S
C1422 C1423 1.327 . S
C1423 H1417 0.950 . S
C1423 C1422 1.327 . S
C1423 C1427 1.429 . S
C1424 C1407 1.574 . S
C1424 H1418 0.949 . S
C1424 C1428 1.371 . S
C1425 C1406 1.429 . S
C1425 C1419 1.429 . S
C1425 C1426 1.523 . S
C1426 C1407 1.368 . S
C1426 C1420 1.368 . S
C1426 C1425 1.523 . S
C1427 C1411 1.429 . S
C1427 C1423 1.429 . S
C1427 C1428 1.517 1_554 S
C1428 C1412 1.370 . S
C1428 C1424 1.371 . S
C1428 C1427 1.517 1_556 S
H1429 C1404 0.950 . S
H1430 C1406 0.950 . S
H1431 C1407 0.949 . S
H1432 C1409 0.950 . S
H1433 C1411 0.950 . S
C1434 C1435 1.349 . S
C1434 C1436 1.327 . S
C1434 H1459 0.950 . S
C1435 C1434 1.349 . S
C1435 C1451 1.349 . S
C1436 C1434 1.327 . S
C1436 C1455 1.429 . S
C1436 H1460 0.950 . S
C1437 C1454 1.574 . S
C1437 C1456 1.368 . S
C1437 H1461 0.949 . S
H1438 C1442 0.949 . S
C1439 C1440 1.349 . S
C1439 C1441 1.327 . S
C1439 H1462 0.950 . S
C1440 C1439 1.349 . S
C1440 C1452 1.349 . S
C1441 C1439 1.327 . S
C1441 C1457 1.429 . S
C1441 H1463 0.950 . S
C1442 H1438 0.949 . S
C1442 C1450 1.574 . S
C1442 C1458 1.371 . S
H1443 C1451 0.950 . S
H1444 C1449 0.950 . S
H1445 C1450 0.949 . S
H1446 C1452 0.950 . S
H1447 C1453 0.950 . S
H1448 C1454 0.949 1_554 S
C1449 H1444 0.950 . S
C1449 C1451 1.327 . S
C1449 C1455 1.429 . S
C1450 C1442 1.574 . S
C1450 H1445 0.949 . S
C1450 C1456 1.368 . S
C1451 C1435 1.349 . S
C1451 H1443 0.950 . S
C1451 C1449 1.327 . S
C1452 C1440 1.349 . S
C1452 H1446 0.950 . S
C1452 C1453 1.327 . S
C1453 H1447 0.950 . S
C1453 C1452 1.327 . S
C1453 C1457 1.429 . S
C1454 C1437 1.574 . S
C1454 H1448 0.949 1_556 S
C1454 C1458 1.371 . S
C1455 C1436 1.429 . S
C1455 C1449 1.429 . S
C1455 C1456 1.523 . S
C1456 C1437 1.368 . S
C1456 C1450 1.368 . S
C1456 C1455 1.523 . S
C1457 C1441 1.429 . S
C1457 C1453 1.429 . S
C1457 C1458 1.517 1_554 S
C1458 C1442 1.371 . S
C1458 C1454 1.371 . S
C1458 C1457 1.517 1_556 S
H1459 C1434 0.950 . S
H1460 C1436 0.950 . S
H1461 C1437 0.949 . S
H1462 C1439 0.950 . S
H1463 C1441 0.950 . S
C1464 C1465 1.349 . S
C1464 C1466 1.327 . S
C1464 H1489 0.950 . S
C1465 C1464 1.349 . S
C1465 C1481 1.349 . S
C1466 C1464 1.327 . S
C1466 C1485 1.429 . S
C1466 H1490 0.950 . S
C1467 C1484 1.574 . S
C1467 C1486 1.368 . S
C1467 H1491 0.949 . S
H1468 C1472 0.940 1_554 S
C1469 C1470 1.349 . S
C1469 C1471 1.327 . S
C1469 H1492 0.950 . S
C1470 C1469 1.349 . S
C1470 C1482 1.349 . S
C1471 C1469 1.327 . S
C1471 C1487 1.429 . S
C1471 H1493 0.950 . S
C1472 H1468 0.940 1_556 S
C1472 C1480 1.574 . S
C1472 C1488 1.371 . S
H1473 C1481 0.950 . S
H1474 C1479 0.950 . S
H1475 C1480 0.949 . S
H1476 C1482 0.950 . S
H1477 C1483 0.950 . S
H1478 C1484 0.949 . S
C1479 H1474 0.950 . S
C1479 C1481 1.327 . S
C1479 C1485 1.429 . S
C1480 C1472 1.574 . S
C1480 H1475 0.949 . S
C1480 C1486 1.368 . S
C1481 C1465 1.349 . S
C1481 H1473 0.950 . S
C1481 C1479 1.327 . S
C1482 C1470 1.349 . S
C1482 H1476 0.950 . S
C1482 C1483 1.327 . S
C1483 H1477 0.950 . S
C1483 C1482 1.327 . S
C1483 C1487 1.429 . S
C1484 C1467 1.574 . S
C1484 H1478 0.949 . S
C1484 C1488 1.371 . S
C1485 C1466 1.429 . S
C1485 C1479 1.429 . S
C1485 C1486 1.523 . S
C1486 C1467 1.368 . S
C1486 C1480 1.368 . S
C1486 C1485 1.523 . S
C1487 C1471 1.429 . S
C1487 C1483 1.429 . S
C1487 C1488 1.516 1_554 S
C1488 C1472 1.371 . S
C1488 C1484 1.371 . S
C1488 C1487 1.516 1_556 S
H1489 C1464 0.950 . S
H1490 C1466 0.950 . S
H1491 C1467 0.949 . S
H1492 C1469 0.950 . S
H1493 C1471 0.950 . S
C1494 C1495 1.349 . S
C1494 C1496 1.327 . S
C1494 H1519 0.950 . S
C1495 C1494 1.349 . S
C1495 C1511 1.349 . S
C1496 C1494 1.327 . S
C1496 C1515 1.429 . S
C1496 H1520 0.950 . S
C1497 C1514 1.574 . S
C1497 C1516 1.371 . S
C1497 H1521 0.949 . S
H1498 C1502 0.949 . S
C1499 C1500 1.349 . S
C1499 C1501 1.327 . S
C1499 H1522 0.950 . S
C1500 C1499 1.349 . S
C1500 C1512 1.349 . S
C1501 C1499 1.327 . S
C1501 C1517 1.429 . S
C1501 H1523 0.950 . S
C1502 H1498 0.949 . S
C1502 C1510 1.574 . S
C1502 C1518 1.368 . S
H1503 C1511 0.950 . S
H1504 C1509 0.950 . S
H1505 C1510 0.949 1_556 S
H1506 C1512 0.950 . S
H1507 C1513 0.950 . S
H1508 C1514 0.949 . S
C1509 H1504 0.950 . S
C1509 C1511 1.327 . S
C1509 C1515 1.429 . S
C1510 C1502 1.574 . S
C1510 H1505 0.949 1_554 S
C1510 C1516 1.370 . S
C1511 C1495 1.349 . S
C1511 H1503 0.950 . S
C1511 C1509 1.327 . S
C1512 C1500 1.349 . S
C1512 H1506 0.950 . S
C1512 C1513 1.327 . S
C1513 H1507 0.950 . S
C1513 C1512 1.327 . S
C1513 C1517 1.429 . S
C1514 C1497 1.574 . S
C1514 H1508 0.949 . S
C1514 C1518 1.368 . S
C1515 C1496 1.429 . S
C1515 C1509 1.429 . S
C1515 C1516 1.517 1_556 S
C1516 C1497 1.371 . S
C1516 C1510 1.370 . S
C1516 C1515 1.517 1_554 S
C1517 C1501 1.429 . S
C1517 C1513 1.429 . S
C1517 C1518 1.523 . S
C1518 C1502 1.368 . S
C1518 C1514 1.368 . S
C1518 C1517 1.523 . S
H1519 C1494 0.950 . S
H1520 C1496 0.950 . S
H1521 C1497 0.949 . S
H1522 C1499 0.950 . S
H1523 C1501 0.950 . S
C1524 C1525 1.349 . S
C1524 C1526 1.327 . S
C1524 H1549 0.950 . S
C1525 C1524 1.349 . S
C1525 C1541 1.349 . S
C1526 C1524 1.327 . S
C1526 C1545 1.429 . S
C1526 H1550 0.950 . S
C1527 C1544 1.574 . S
C1527 C1546 1.371 . S
C1527 H1551 0.949 . S
H1528 C1532 0.949 . S
C1529 C1530 1.349 . S
C1529 C1531 1.327 . S
C1529 H1552 0.950 . S
C1530 C1529 1.349 . S
C1530 C1542 1.349 . S
C1531 C1529 1.327 . S
C1531 C1547 1.429 . S
C1531 H1553 0.950 . S
C1532 H1528 0.949 . S
C1532 C1540 1.574 . S
C1532 C1548 1.368 . S
H1533 C1541 0.950 . S
H1534 C1539 0.950 . S
H1535 C1540 0.949 1_556 S
H1536 C1542 0.950 . S
H1537 C1543 0.950 . S
H1538 C1544 0.949 . S
C1539 H1534 0.950 . S
C1539 C1541 1.327 . S
C1539 C1545 1.429 . S
C1540 C1532 1.574 . S
C1540 H1535 0.949 1_554 S
C1540 C1546 1.371 . S
C1541 C1525 1.349 . S
C1541 H1533 0.950 . S
C1541 C1539 1.327 . S
C1542 C1530 1.349 . S
C1542 H1536 0.950 . S
C1542 C1543 1.327 . S
C1543 H1537 0.950 . S
C1543 C1542 1.327 . S
C1543 C1547 1.429 . S
C1544 C1527 1.574 . S
C1544 H1538 0.949 . S
C1544 C1548 1.368 . S
C1545 C1526 1.429 . S
C1545 C1539 1.429 . S
C1545 C1546 1.516 1_556 S
C1546 C1527 1.371 . S
C1546 C1540 1.371 . S
C1546 C1545 1.516 1_554 S
C1547 C1531 1.429 . S
C1547 C1543 1.429 . S
C1547 C1548 1.523 . S
C1548 C1532 1.368 . S
C1548 C1544 1.368 . S
C1548 C1547 1.523 . S
H1549 C1524 0.950 . S
H1550 C1526 0.950 . S
H1551 C1527 0.949 . S
H1552 C1529 0.950 . S
H1553 C1531 0.950 . S
C1554 C1555 1.349 . S
C1554 C1556 1.327 . S
C1554 H1579 0.950 . S
C1555 C1554 1.349 . S
C1555 C1571 1.349 . S
C1556 C1554 1.327 . S
C1556 C1575 1.429 . S
C1556 H1580 0.950 . S
C1557 C1574 1.574 . S
C1557 C1576 1.368 . S
C1557 H1581 0.949 . S
H1558 C1562 0.949 1_556 S
C1559 C1560 1.349 . S
C1559 C1561 1.327 . S
C1559 H1582 0.950 . S
C1560 C1559 1.349 . S
C1560 C1572 1.349 . S
C1561 C1559 1.327 . S
C1561 C1577 1.429 . S
C1561 H1583 0.950 . S
C1562 H1558 0.949 1_554 S
C1562 C1570 1.574 . S
C1562 C1578 1.371 . S
H1563 C1571 0.950 . S
H1564 C1569 0.950 . S
H1565 C1570 0.949 . S
H1566 C1572 0.950 . S
H1567 C1573 0.950 . S
H1568 C1574 0.949 . S
C1569 H1564 0.950 . S
C1569 C1571 1.327 . S
C1569 C1575 1.429 . S
C1570 C1562 1.574 . S
C1570 H1565 0.949 . S
C1570 C1576 1.368 . S
C1571 C1555 1.349 . S
C1571 H1563 0.950 . S
C1571 C1569 1.327 . S
C1572 C1560 1.349 . S
C1572 H1566 0.950 . S
C1572 C1573 1.327 . S
C1573 H1567 0.950 . S
C1573 C1572 1.327 . S
C1573 C1577 1.429 . S
C1574 C1557 1.574 . S
C1574 H1568 0.949 . S
C1574 C1578 1.371 . S
C1575 C1556 1.429 . S
C1575 C1569 1.429 . S
C1575 C1576 1.523 . S
C1576 C1557 1.368 . S
C1576 C1570 1.368 . S
C1576 C1575 1.523 . S
C1577 C1561 1.429 . S
C1577 C1573 1.429 . S
C1577 C1578 1.517 1_556 S
C1578 C1562 1.371 . S
C1578 C1574 1.371 . S
C1578 C1577 1.517 1_554 S
H1579 C1554 0.950 . S
H1580 C1556 0.950 . S
H1581 C1557 0.949 . S
H1582 C1559 0.950 . S
H1583 C1561 0.950 . S
C1584 C1585 1.349 . S
C1584 C1586 1.327 . S
C1584 H1609 0.950 . S
C1585 C1584 1.349 . S
C1585 C1601 1.349 . S
C1586 C1584 1.327 . S
C1586 C1605 1.429 . S
C1586 H1610 0.950 . S
C1587 C1604 1.574 . S
C1587 C1606 1.368 . S
C1587 H1611 0.949 . S
H1588 C1592 0.949 . S
C1589 C1590 1.349 . S
C1589 C1591 1.327 . S
C1589 H1612 0.950 . S
C1590 C1589 1.349 . S
C1590 C1602 1.349 . S
C1591 C1589 1.327 . S
C1591 C1607 1.429 . S
C1591 H1613 0.950 . S
C1592 H1588 0.949 . S
C1592 C1600 1.574 . S
C1592 C1608 1.368 . S
H1593 C1601 0.950 . S
H1594 C1599 0.950 . S
H1595 C1600 0.949 . S
H1596 C1602 0.950 . S
H1597 C1603 0.950 . S
H1598 C1604 0.949 . S
C1599 H1594 0.950 . S
C1599 C1601 1.327 . S
C1599 C1605 1.429 . S
C1600 C1592 1.574 . S
C1600 H1595 0.949 . S
C1600 C1606 1.368 . S
C1601 C1585 1.349 . S
C1601 H1593 0.950 . S
C1601 C1599 1.327 . S
C1602 C1590 1.349 . S
C1602 H1596 0.950 . S
C1602 C1603 1.327 . S
C1603 H1597 0.950 . S
C1603 C1602 1.327 . S
C1603 C1607 1.429 . S
C1604 C1587 1.574 . S
C1604 H1598 0.949 . S
C1604 C1608 1.368 . S
C1605 C1586 1.429 . S
C1605 C1599 1.429 . S
C1605 C1606 1.523 . S
C1606 C1587 1.368 . S
C1606 C1600 1.368 . S
C1606 C1605 1.523 . S
C1607 C1591 1.429 . S
C1607 C1603 1.429 . S
C1607 C1608 1.523 . S
C1608 C1592 1.368 . S
C1608 C1604 1.368 . S
C1608 C1607 1.523 . S
H1609 C1584 0.950 . S
H1610 C1586 0.950 . S
H1611 C1587 0.949 . S
H1612 C1589 0.950 . S
H1613 C1591 0.950 . S
C1614 C1615 1.349 . S
C1614 C1616 1.327 . S
C1614 H1639 0.950 . S
C1615 C1614 1.349 . S
C1615 C1631 1.349 . S
C1616 C1614 1.327 . S
C1616 C1635 1.429 . S
C1616 H1640 0.950 . S
C1617 C1634 1.574 . S
C1617 C1636 1.368 . S
C1617 H1641 0.949 . S
H1618 C1622 0.949 . S
C1619 C1620 1.349 . S
C1619 C1621 1.327 . S
C1619 H1642 0.950 . S
C1620 C1619 1.349 . S
C1620 C1632 1.349 . S
C1621 C1619 1.327 . S
C1621 C1637 1.429 . S
C1621 H1643 0.950 . S
C1622 H1618 0.949 . S
C1622 C1630 1.574 . S
C1622 C1638 1.368 . S
H1623 C1631 0.950 . S
H1624 C1629 0.950 . S
H1625 C1630 0.949 . S
H1626 C1632 0.950 . S
H1627 C1633 0.950 . S
H1628 C1634 0.949 . S
C1629 H1624 0.950 . S
C1629 C1631 1.327 . S
C1629 C1635 1.429 . S
C1630 C1622 1.574 . S
C1630 H1625 0.949 . S
C1630 C1636 1.368 . S
C1631 C1615 1.349 . S
C1631 H1623 0.950 . S
C1631 C1629 1.327 . S
C1632 C1620 1.349 . S
C1632 H1626 0.950 . S
C1632 C1633 1.327 . S
C1633 H1627 0.950 . S
C1633 C1632 1.327 . S
C1633 C1637 1.429 . S
C1634 C1617 1.574 . S
C1634 H1628 0.949 . S
C1634 C1638 1.368 . S
C1635 C1616 1.429 . S
C1635 C1629 1.429 . S
C1635 C1636 1.523 . S
C1636 C1617 1.368 . S
C1636 C1630 1.368 . S
C1636 C1635 1.523 . S
C1637 C1621 1.429 . S
C1637 C1633 1.429 . S
C1637 C1638 1.523 . S
C1638 C1622 1.368 . S
C1638 C1634 1.368 . S
C1638 C1637 1.523 . S
H1639 C1614 0.950 . S
H1640 C1616 0.950 . S
H1641 C1617 0.949 . S
H1642 C1619 0.950 . S
H1643 C1621 0.950 . S
C1644 C1645 1.349 . S
C1644 C1646 1.327 . S
C1644 H1669 0.950 . S
C1645 C1644 1.349 . S
C1645 C1661 1.349 . S
C1646 C1644 1.327 . S
C1646 C1665 1.429 . S
C1646 H1670 0.950 . S
C1647 C1664 1.574 . S
C1647 C1666 1.368 . S
C1647 H1671 0.949 . S
H1648 C1652 0.949 . S
C1649 C1650 1.349 . S
C1649 C1651 1.327 . S
C1649 H1672 0.950 . S
C1650 C1649 1.349 . S
C1650 C1662 1.349 . S
C1651 C1649 1.327 . S
C1651 C1667 1.429 . S
C1651 H1673 0.950 . S
C1652 H1648 0.949 . S
C1652 C1660 1.574 . S
C1652 C1668 1.368 . S
H1653 C1661 0.950 . S
H1654 C1659 0.950 . S
H1655 C1660 0.949 . S
H1656 C1662 0.950 . S
H1657 C1663 0.950 . S
H1658 C1664 0.949 . S
C1659 H1654 0.950 . S
C1659 C1661 1.327 . S
C1659 C1665 1.429 . S
C1660 C1652 1.574 . S
C1660 H1655 0.949 . S
C1660 C1666 1.368 . S
C1661 C1645 1.349 . S
C1661 H1653 0.950 . S
C1661 C1659 1.327 . S
C1662 C1650 1.349 . S
C1662 H1656 0.950 . S
C1662 C1663 1.327 . S
C1663 H1657 0.950 . S
C1663 C1662 1.327 . S
C1663 C1667 1.429 . S
C1664 C1647 1.574 . S
C1664 H1658 0.949 . S
C1664 C1668 1.368 . S
C1665 C1646 1.429 . S
C1665 C1659 1.429 . S
C1665 C1666 1.523 . S
C1666 C1647 1.368 . S
C1666 C1660 1.368 . S
C1666 C1665 1.523 . S
C1667 C1651 1.429 . S
C1667 C1663 1.429 . S
C1667 C1668 1.523 . S
C1668 C1652 1.368 . S
C1668 C1664 1.368 . S
C1668 C1667 1.523 . S
H1669 C1644 0.950 . S
H1670 C1646 0.950 . S
H1671 C1647 0.949 . S
H1672 C1649 0.950 . S
H1673 C1651 0.950 . S
C1674 C1675 1.349 . S
C1674 C1676 1.327 . S
C1674 H1699 0.950 . S
C1675 C1674 1.349 . S
C1675 C1691 1.349 . S
C1676 C1674 1.327 . S
C1676 C1695 1.429 . S
C1676 H1700 0.950 . S
C1677 C1694 1.574 . S
C1677 C1696 1.368 . S
C1677 H1701 0.949 . S
H1678 C1682 0.949 . S
C1679 C1680 1.349 . S
C1679 C1681 1.327 . S
C1679 H1702 0.950 . S
C1680 C1679 1.349 . S
C1680 C1692 1.349 . S
C1681 C1679 1.327 . S
C1681 C1697 1.429 . S
C1681 H1703 0.950 . S
C1682 H1678 0.949 . S
C1682 C1690 1.574 . S
C1682 C1698 1.368 . S
H1683 C1691 0.950 . S
H1684 C1689 0.950 . S
H1685 C1690 0.949 . S
H1686 C1692 0.950 . S
H1687 C1693 0.950 . S
H1688 C1694 0.949 . S
C1689 H1684 0.950 . S
C1689 C1691 1.327 . S
C1689 C1695 1.429 . S
C1690 C1682 1.574 . S
C1690 H1685 0.949 . S
C1690 C1696 1.368 . S
C1691 C1675 1.349 . S
C1691 H1683 0.950 . S
C1691 C1689 1.327 . S
C1692 C1680 1.349 . S
C1692 H1686 0.950 . S
C1692 C1693 1.327 . S
C1693 H1687 0.950 . S
C1693 C1692 1.327 . S
C1693 C1697 1.429 . S
C1694 C1677 1.574 . S
C1694 H1688 0.949 . S
C1694 C1698 1.368 . S
C1695 C1676 1.429 . S
C1695 C1689 1.429 . S
C1695 C1696 1.523 . S
C1696 C1677 1.368 . S
C1696 C1690 1.368 . S
C1696 C1695 1.523 . S
C1697 C1681 1.429 . S
C1697 C1693 1.429 . S
C1697 C1698 1.523 . S
C1698 C1682 1.368 . S
C1698 C1694 1.368 . S
C1698 C1697 1.523 . S
H1699 C1674 0.950 . S
H1700 C1676 0.950 . S
H1701 C1677 0.949 . S
H1702 C1679 0.950 . S
H1703 C1681 0.950 . S
C1704 C1705 1.349 . S
C1704 C1706 1.327 . S
C1704 H1729 0.950 . S
C1705 C1704 1.349 . S
C1705 C1721 1.349 . S
C1706 C1704 1.327 . S
C1706 C1725 1.429 . S
C1706 H1730 0.950 . S
C1707 C1724 1.574 . S
C1707 C1726 1.368 . S
C1707 H1731 0.949 . S
H1708 C1712 0.949 . S
C1709 C1710 1.349 . S
C1709 C1711 1.327 . S
C1709 H1732 0.950 . S
C1710 C1709 1.349 . S
C1710 C1722 1.349 . S
C1711 C1709 1.327 . S
C1711 C1727 1.429 . S
C1711 H1733 0.950 . S
C1712 H1708 0.949 . S
C1712 C1720 1.574 . S
C1712 C1728 1.368 . S
H1713 C1721 0.950 . S
H1714 C1719 0.950 . S
H1715 C1720 0.949 . S
H1716 C1722 0.950 . S
H1717 C1723 0.950 . S
H1718 C1724 0.949 . S
C1719 H1714 0.950 . S
C1719 C1721 1.327 . S
C1719 C1725 1.429 . S
C1720 C1712 1.574 . S
C1720 H1715 0.949 . S
C1720 C1726 1.368 . S
C1721 C1705 1.349 . S
C1721 H1713 0.950 . S
C1721 C1719 1.327 . S
C1722 C1710 1.349 . S
C1722 H1716 0.950 . S
C1722 C1723 1.327 . S
C1723 H1717 0.950 . S
C1723 C1722 1.327 . S
C1723 C1727 1.429 . S
C1724 C1707 1.574 . S
C1724 H1718 0.949 . S
C1724 C1728 1.368 . S
C1725 C1706 1.429 . S
C1725 C1719 1.429 . S
C1725 C1726 1.523 . S
C1726 C1707 1.368 . S
C1726 C1720 1.368 . S
C1726 C1725 1.523 . S
C1727 C1711 1.429 . S
C1727 C1723 1.429 . S
C1727 C1728 1.523 . S
C1728 C1712 1.368 . S
C1728 C1724 1.368 . S
C1728 C1727 1.523 . S
H1729 C1704 0.950 . S
H1730 C1706 0.950 . S
H1731 C1707 0.949 . S
H1732 C1709 0.950 . S
H1733 C1711 0.950 . S
C1734 C1735 1.349 . S
C1734 C1736 1.327 . S
C1734 H1759 0.950 . S
C1735 C1734 1.349 . S
C1735 C1751 1.349 . S
C1736 C1734 1.327 . S
C1736 C1755 1.429 . S
C1736 H1760 0.950 . S
C1737 C1754 1.574 . S
C1737 C1756 1.368 . S
C1737 H1761 0.949 . S
H1738 C1742 0.949 . S
C1739 C1740 1.349 . S
C1739 C1741 1.327 . S
C1739 H1762 0.950 . S
C1740 C1739 1.349 . S
C1740 C1752 1.349 . S
C1741 C1739 1.327 . S
C1741 C1757 1.429 . S
C1741 H1763 0.950 . S
C1742 H1738 0.949 . S
C1742 C1750 1.574 . S
C1742 C1758 1.368 . S
H1743 C1751 0.950 . S
H1744 C1749 0.950 . S
H1745 C1750 0.949 . S
H1746 C1752 0.950 . S
H1747 C1753 0.950 . S
H1748 C1754 0.949 . S
C1749 H1744 0.950 . S
C1749 C1751 1.327 . S
C1749 C1755 1.429 . S
C1750 C1742 1.574 . S
C1750 H1745 0.949 . S
C1750 C1756 1.368 . S
C1751 C1735 1.349 . S
C1751 H1743 0.950 . S
C1751 C1749 1.327 . S
C1752 C1740 1.349 . S
C1752 H1746 0.950 . S
C1752 C1753 1.327 . S
C1753 H1747 0.950 . S
C1753 C1752 1.327 . S
C1753 C1757 1.429 . S
C1754 C1737 1.574 . S
C1754 H1748 0.949 . S
C1754 C1758 1.368 . S
C1755 C1736 1.429 . S
C1755 C1749 1.429 . S
C1755 C1756 1.523 . S
C1756 C1737 1.368 . S
C1756 C1750 1.368 . S
C1756 C1755 1.523 . S
C1757 C1741 1.429 . S
C1757 C1753 1.429 . S
C1757 C1758 1.523 . S
C1758 C1742 1.368 . S
C1758 C1754 1.368 . S
C1758 C1757 1.523 . S
H1759 C1734 0.950 . S
H1760 C1736 0.950 . S
H1761 C1737 0.949 . S
H1762 C1739 0.950 . S
H1763 C1741 0.950 . S
C1764 C1765 1.349 . S
C1764 C1766 1.327 . S
C1764 H1789 0.950 . S
C1765 C1764 1.349 . S
C1765 C1781 1.349 . S
C1766 C1764 1.327 . S
C1766 C1785 1.429 . S
C1766 H1790 0.950 . S
C1767 C1784 1.574 . S
C1767 C1786 1.368 . S
C1767 H1791 0.949 . S
H1768 C1772 0.949 . S
C1769 C1770 1.349 . S
C1769 C1771 1.327 . S
C1769 H1792 0.950 . S
C1770 C1769 1.349 . S
C1770 C1782 1.349 . S
C1771 C1769 1.327 . S
C1771 C1787 1.429 . S
C1771 H1793 0.950 . S
C1772 H1768 0.949 . S
C1772 C1780 1.574 . S
C1772 C1788 1.368 . S
H1773 C1781 0.950 . S
H1774 C1779 0.950 . S
H1775 C1780 0.949 . S
H1776 C1782 0.950 . S
H1777 C1783 0.950 . S
H1778 C1784 0.949 . S
C1779 H1774 0.950 . S
C1779 C1781 1.327 . S
C1779 C1785 1.429 . S
C1780 C1772 1.574 . S
C1780 H1775 0.949 . S
C1780 C1786 1.368 . S
C1781 C1765 1.349 . S
C1781 H1773 0.950 . S
C1781 C1779 1.327 . S
C1782 C1770 1.349 . S
C1782 H1776 0.950 . S
C1782 C1783 1.327 . S
C1783 H1777 0.950 . S
C1783 C1782 1.327 . S
C1783 C1787 1.429 . S
C1784 C1767 1.574 . S
C1784 H1778 0.949 . S
C1784 C1788 1.368 . S
C1785 C1766 1.429 . S
C1785 C1779 1.429 . S
C1785 C1786 1.523 . S
C1786 C1767 1.368 . S
C1786 C1780 1.368 . S
C1786 C1785 1.523 . S
C1787 C1771 1.429 . S
C1787 C1783 1.429 . S
C1787 C1788 1.523 . S
C1788 C1772 1.368 . S
C1788 C1784 1.368 . S
C1788 C1787 1.523 . S
H1789 C1764 0.950 . S
H1790 C1766 0.950 . S
H1791 C1767 0.949 . S
H1792 C1769 0.950 . S
H1793 C1771 0.950 . S
C1794 C1795 1.349 . S
C1794 C1796 1.327 . S
C1794 H1819 0.950 . S
C1795 C1794 1.349 . S
C1795 C1811 1.349 . S
C1796 C1794 1.327 . S
C1796 C1815 1.429 . S
C1796 H1820 0.950 . S
C1797 C1814 1.574 . S
C1797 C1816 1.368 . S
C1797 H1821 0.949 . S
H1798 C1802 0.949 . S
C1799 C1800 1.349 . S
C1799 C1801 1.327 . S
C1799 H1822 0.950 . S
C1800 C1799 1.349 . S
C1800 C1812 1.349 . S
C1801 C1799 1.327 . S
C1801 C1817 1.429 . S
C1801 H1823 0.950 . S
C1802 H1798 0.949 . S
C1802 C1810 1.574 . S
C1802 C1818 1.368 . S
H1803 C1811 0.950 . S
H1804 C1809 0.950 . S
H1805 C1810 0.949 . S
H1806 C1812 0.950 . S
H1807 C1813 0.950 . S
H1808 C1814 0.949 . S
C1809 H1804 0.950 . S
C1809 C1811 1.327 . S
C1809 C1815 1.429 . S
C1810 C1802 1.574 . S
C1810 H1805 0.949 . S
C1810 C1816 1.368 . S
C1811 C1795 1.349 . S
C1811 H1803 0.950 . S
C1811 C1809 1.327 . S
C1812 C1800 1.349 . S
C1812 H1806 0.950 . S
C1812 C1813 1.327 . S
C1813 H1807 0.950 . S
C1813 C1812 1.327 . S
C1813 C1817 1.429 . S
C1814 C1797 1.574 . S
C1814 H1808 0.949 . S
C1814 C1818 1.368 . S
C1815 C1796 1.429 . S
C1815 C1809 1.429 . S
C1815 C1816 1.523 . S
C1816 C1797 1.368 . S
C1816 C1810 1.368 . S
C1816 C1815 1.523 . S
C1817 C1801 1.429 . S
C1817 C1813 1.429 . S
C1817 C1818 1.523 . S
C1818 C1802 1.368 . S
C1818 C1814 1.368 . S
C1818 C1817 1.523 . S
H1819 C1794 0.950 . S
H1820 C1796 0.950 . S
H1821 C1797 0.949 . S
H1822 C1799 0.950 . S
H1823 C1801 0.950 . S
C1824 C1825 1.349 . S
C1824 C1826 1.327 . S
C1824 H1849 0.950 . S
C1825 C1824 1.349 . S
C1825 C1841 1.349 . S
C1826 C1824 1.327 . S
C1826 C1845 1.429 . S
C1826 H1850 0.950 . S
C1827 C1844 1.574 . S
C1827 C1846 1.368 . S
C1827 H1851 0.949 . S
H1828 C1832 0.949 . S
C1829 C1830 1.349 . S
C1829 C1831 1.327 . S
C1829 H1852 0.950 . S
C1830 C1829 1.349 . S
C1830 C1842 1.349 . S
C1831 C1829 1.327 . S
C1831 C1847 1.429 . S
C1831 H1853 0.950 . S
C1832 H1828 0.949 . S
C1832 C1840 1.574 . S
C1832 C1848 1.368 . S
H1833 C1841 0.950 . S
H1834 C1839 0.950 . S
H1835 C1840 0.949 . S
H1836 C1842 0.950 . S
H1837 C1843 0.950 . S
H1838 C1844 0.949 . S
C1839 H1834 0.950 . S
C1839 C1841 1.327 . S
C1839 C1845 1.429 . S
C1840 C1832 1.574 . S
C1840 H1835 0.949 . S
C1840 C1846 1.368 . S
C1841 C1825 1.349 . S
C1841 H1833 0.950 . S
C1841 C1839 1.327 . S
C1842 C1830 1.349 . S
C1842 H1836 0.950 . S
C1842 C1843 1.327 . S
C1843 H1837 0.950 . S
C1843 C1842 1.327 . S
C1843 C1847 1.429 . S
C1844 C1827 1.574 . S
C1844 H1838 0.949 . S
C1844 C1848 1.368 . S
C1845 C1826 1.429 . S
C1845 C1839 1.429 . S
C1845 C1846 1.523 . S
C1846 C1827 1.368 . S
C1846 C1840 1.368 . S
C1846 C1845 1.523 . S
C1847 C1831 1.429 . S
C1847 C1843 1.429 . S
C1847 C1848 1.523 . S
C1848 C1832 1.368 . S
C1848 C1844 1.368 . S
C1848 C1847 1.523 . S
H1849 C1824 0.950 . S
H1850 C1826 0.950 . S
H1851 C1827 0.949 . S
H1852 C1829 0.950 . S
H1853 C1831 0.950 . S
C1854 C1855 1.349 . S
C1854 C1856 1.327 . S
C1854 H1879 0.950 . S
C1855 C1854 1.349 . S
C1855 C1871 1.349 . S
C1856 C1854 1.327 . S
C1856 C1875 1.429 . S
C1856 H1880 0.950 . S
C1857 C1874 1.574 . S
C1857 C1876 1.368 . S
C1857 H1881 0.949 . S
H1858 C1862 0.949 . S
C1859 C1860 1.349 . S
C1859 C1861 1.327 . S
C1859 H1882 0.950 . S
C1860 C1859 1.349 . S
C1860 C1872 1.349 . S
C1861 C1859 1.327 . S
C1861 C1877 1.429 . S
C1861 H1883 0.950 . S
C1862 H1858 0.949 . S
C1862 C1870 1.574 . S
C1862 C1878 1.368 . S
H1863 C1871 0.950 . S
H1864 C1869 0.950 . S
H1865 C1870 0.949 . S
H1866 C1872 0.950 . S
H1867 C1873 0.950 . S
H1868 C1874 0.949 . S
C1869 H1864 0.950 . S
C1869 C1871 1.327 . S
C1869 C1875 1.429 . S
C1870 C1862 1.574 . S
C1870 H1865 0.949 . S
C1870 C1876 1.368 . S
C1871 C1855 1.349 . S
C1871 H1863 0.950 . S
C1871 C1869 1.327 . S
C1872 C1860 1.349 . S
C1872 H1866 0.950 . S
C1872 C1873 1.327 . S
C1873 H1867 0.950 . S
C1873 C1872 1.327 . S
C1873 C1877 1.429 . S
C1874 C1857 1.574 . S
C1874 H1868 0.949 . S
C1874 C1878 1.368 . S
C1875 C1856 1.429 . S
C1875 C1869 1.429 . S
C1875 C1876 1.523 . S
C1876 C1857 1.368 . S
C1876 C1870 1.368 . S
C1876 C1875 1.523 . S
C1877 C1861 1.429 . S
C1877 C1873 1.429 . S
C1877 C1878 1.523 . S
C1878 C1862 1.368 . S
C1878 C1874 1.368 . S
C1878 C1877 1.523 . S
H1879 C1854 0.950 . S
H1880 C1856 0.950 . S
H1881 C1857 0.949 . S
H1882 C1859 0.950 . S
H1883 C1861 0.950 . S
C1884 C1885 1.349 . S
C1884 C1886 1.327 . S
C1884 H1909 0.950 . S
C1885 C1884 1.349 . S
C1885 C1901 1.349 . S
C1886 C1884 1.327 . S
C1886 C1905 1.429 . S
C1886 H1910 0.950 . S
C1887 C1904 1.574 . S
C1887 C1906 1.368 . S
C1887 H1911 0.949 . S
H1888 C1892 0.949 . S
C1889 C1890 1.349 . S
C1889 C1891 1.327 . S
C1889 H1912 0.950 . S
C1890 C1889 1.349 . S
C1890 C1902 1.349 . S
C1891 C1889 1.327 . S
C1891 C1907 1.429 . S
C1891 H1913 0.950 . S
C1892 H1888 0.949 . S
C1892 C1900 1.574 . S
C1892 C1908 1.368 . S
H1893 C1901 0.950 . S
H1894 C1899 0.950 . S
H1895 C1900 0.949 . S
H1896 C1902 0.950 . S
H1897 C1903 0.950 . S
H1898 C1904 0.949 . S
C1899 H1894 0.950 . S
C1899 C1901 1.327 . S
C1899 C1905 1.429 . S
C1900 C1892 1.574 . S
C1900 H1895 0.949 . S
C1900 C1906 1.368 . S
C1901 C1885 1.349 . S
C1901 H1893 0.950 . S
C1901 C1899 1.327 . S
C1902 C1890 1.349 . S
C1902 H1896 0.950 . S
C1902 C1903 1.327 . S
C1903 H1897 0.950 . S
C1903 C1902 1.327 . S
C1903 C1907 1.429 . S
C1904 C1887 1.574 . S
C1904 H1898 0.949 . S
C1904 C1908 1.368 . S
C1905 C1886 1.429 . S
C1905 C1899 1.429 . S
C1905 C1906 1.523 . S
C1906 C1887 1.368 . S
C1906 C1900 1.368 . S
C1906 C1905 1.523 . S
C1907 C1891 1.429 . S
C1907 C1903 1.429 . S
C1907 C1908 1.523 . S
C1908 C1892 1.368 . S
C1908 C1904 1.368 . S
C1908 C1907 1.523 . S
H1909 C1884 0.950 . S
H1910 C1886 0.950 . S
H1911 C1887 0.949 . S
H1912 C1889 0.950 . S
H1913 C1891 0.950 . S
C1914 C1915 1.349 . S
C1914 C1916 1.327 . S
C1914 H1939 0.950 . S
C1915 C1914 1.349 . S
C1915 C1931 1.349 . S
C1916 C1914 1.327 . S
C1916 C1935 1.429 . S
C1916 H1940 0.950 . S
C1917 C1934 1.574 . S
C1917 C1936 1.368 . S
C1917 H1941 0.949 . S
H1918 C1922 0.949 . S
C1919 C1920 1.349 . S
C1919 C1921 1.327 . S
C1919 H1942 0.950 . S
C1920 C1919 1.349 . S
C1920 C1932 1.349 . S
C1921 C1919 1.327 . S
C1921 C1937 1.429 . S
C1921 H1943 0.950 . S
C1922 H1918 0.949 . S
C1922 C1930 1.574 . S
C1922 C1938 1.368 . S
H1923 C1931 0.950 . S
H1924 C1929 0.950 . S
H1925 C1930 0.949 . S
H1926 C1932 0.950 . S
H1927 C1933 0.950 . S
H1928 C1934 0.949 . S
C1929 H1924 0.950 . S
C1929 C1931 1.327 . S
C1929 C1935 1.429 . S
C1930 C1922 1.574 . S
C1930 H1925 0.949 . S
C1930 C1936 1.368 . S
C1931 C1915 1.349 . S
C1931 H1923 0.950 . S
C1931 C1929 1.327 . S
C1932 C1920 1.349 . S
C1932 H1926 0.950 . S
C1932 C1933 1.327 . S
C1933 H1927 0.950 . S
C1933 C1932 1.327 . S
C1933 C1937 1.429 . S
C1934 C1917 1.574 . S
C1934 H1928 0.949 . S
C1934 C1938 1.368 . S
C1935 C1916 1.429 . S
C1935 C1929 1.429 . S
C1935 C1936 1.523 . S
C1936 C1917 1.368 . S
C1936 C1930 1.368 . S
C1936 C1935 1.523 . S
C1937 C1921 1.429 . S
C1937 C1933 1.429 . S
C1937 C1938 1.523 . S
C1938 C1922 1.368 . S
C1938 C1934 1.368 . S
C1938 C1937 1.523 . S
H1939 C1914 0.950 . S
H1940 C1916 0.950 . S
H1941 C1917 0.949 . S
H1942 C1919 0.950 . S
H1943 C1921 0.950 . S
C595 C120 1.481 . S
C600 C21 1.481 . S
C625 C153 1.481 . S
C630 C54 1.481 . S
C655 C186 1.481 . S
C660 C87 1.481 . S
C685 C40 1.462 . S
C690 C172 1.462 . S
C715 C106 1.461 . S
C720 C73 1.461 . S
C745 C139 1.461 . S
C750 C7 1.461 . S
C775 C318 1.481 . S
C780 C219 1.481 . S
C805 C252 1.481 . S
C810 C351 1.481 . S
C835 C285 1.481 . S
C840 C384 1.481 . S
C865 C238 1.462 . S
C870 C370 1.462 . S
C895 C271 1.461 . S
C900 C304 1.461 . S
C925 C337 1.461 . S
C930 C205 1.461 . S
C955 C417 1.481 . S
C960 C516 1.481 . S
C985 C549 1.481 . S
C990 C450 1.481 . S
C1015 C483 1.481 . S
C1020 C582 1.481 . S
C1045 C436 1.462 . S
C1050 C568 1.462 . S
C1075 C502 1.461 . S
C1080 C469 1.461 . S
C1105 C403 1.461 . S
C1110 C535 1.461 . S
C1135 C18 1.559 . S
C1140 C579 1.559 . S
C1165 C513 1.559 . S
C1170 C51 1.559 . S
C1195 C546 1.559 . S
C1200 C84 1.559 . S
C1225 C249 1.559 . S
C1230 C117 1.559 . S
C1255 C282 1.559 . S
C1260 C150 1.559 . S
C1285 C216 1.559 . S
C1290 C183 1.559 . S
C1315 C447 1.559 . S
C1320 C315 1.559 . S
C1345 C480 1.559 . S
C1350 C348 1.559 . S
C1375 C381 1.559 . S
C1380 C414 1.559 . S
C1405 N2 1.376 . S
C1410 N13 1.378 . S
C1435 N35 1.376 . S
C1440 N46 1.378 . S
C1465 N68 1.376 . S
C1470 N79 1.378 . S
C1495 N112 1.378 . S
C1500 N101 1.376 . S
C1525 N145 1.378 . S
C1530 N134 1.376 . S
C1555 N167 1.376 . S
C1560 N178 1.378 . S
C1585 N200 1.376 1_554 S
C1590 N211 1.378 . S
C1615 N244 1.378 . S
C1620 N233 1.376 1_554 S
C1645 N277 1.378 . S
C1650 N266 1.376 1_554 S
C1675 N299 1.376 . S
C1680 N310 1.378 . S
C1705 N332 1.376 . S
C1710 N343 1.378 . S
C1735 N365 1.376 . S
C1740 N376 1.378 . S
C1765 N398 1.376 . S
C1770 N409 1.378 . S
C1795 N431 1.376 . S
C1800 N442 1.378 . S
C1825 N475 1.378 . S
C1830 N464 1.376 . S
C1855 N497 1.376 1_556 S
C1860 N508 1.378 . S
C1885 N541 1.378 . S
C1890 N530 1.376 1_556 S
C1915 N574 1.378 . S
C1920 N563 1.376 1_556 S
