# Generated by pormake.
# Topology svy, (7)-cn, num edge types: 1
# Building blocks:
#     Node 0, Type 0, BuildingBlock: HICVOG_clean_sbu_0, # of connection points: 7
#     Node 1, Type 0, BuildingBlock: HICVOG_clean_sbu_0, # of connection points: 7
#     Node 2, Type 0, BuildingBlock: HICVOG_clean_sbu_0, # of connection points: 7
#     Node 3, Type 0, BuildingBlock: HICVOG_clean_sbu_0, # of connection points: 7
#     Node 4, Type 0, BuildingBlock: HICVOG_clean_sbu_0, # of connection points: 7
#     Node 5, Type 0, BuildingBlock: HICVOG_clean_sbu_0, # of connection points: 7
#     Node 6, Type 0, BuildingBlock: HICVOG_clean_sbu_0, # of connection points: 7
#     Node 7, Type 0, BuildingBlock: HICVOG_clean_sbu_0, # of connection points: 7
#     Node 8, Type 0, BuildingBlock: HICVOG_clean_sbu_0, # of connection points: 7
#     Node 9, Type 0, BuildingBlock: HICVOG_clean_sbu_0, # of connection points: 7
#     Node 10, Type 0, BuildingBlock: HICVOG_clean_sbu_0, # of connection points: 7
#     Node 11, Type 0, BuildingBlock: HICVOG_clean_sbu_0, # of connection points: 7
#     Node 12, Type 0, BuildingBlock: HICVOG_clean_sbu_0, # of connection points: 7
#     Node 13, Type 0, BuildingBlock: HICVOG_clean_sbu_0, # of connection points: 7
#     Node 14, Type 0, BuildingBlock: HICVOG_clean_sbu_0, # of connection points: 7
#     Node 15, Type 0, BuildingBlock: HICVOG_clean_sbu_0, # of connection points: 7
#     Node 16, Type 0, BuildingBlock: HICVOG_clean_sbu_0, # of connection points: 7
#     Node 17, Type 0, BuildingBlock: HICVOG_clean_sbu_0, # of connection points: 7
#     Node 18, Type 0, BuildingBlock: HICVOG_clean_sbu_0, # of connection points: 7
#     Node 19, Type 0, BuildingBlock: HICVOG_clean_sbu_0, # of connection points: 7
#     Node 20, Type 0, BuildingBlock: HICVOG_clean_sbu_0, # of connection points: 7
#     Node 21, Type 0, BuildingBlock: HICVOG_clean_sbu_0, # of connection points: 7
#     Node 22, Type 0, BuildingBlock: HICVOG_clean_sbu_0, # of connection points: 7
#     Node 23, Type 0, BuildingBlock: HICVOG_clean_sbu_0, # of connection points: 7
#     Node 24, Type 0, BuildingBlock: HICVOG_clean_sbu_0, # of connection points: 7
#     Node 25, Type 0, BuildingBlock: HICVOG_clean_sbu_0, # of connection points: 7
#     Node 26, Type 0, BuildingBlock: HICVOG_clean_sbu_0, # of connection points: 7
#     Node 27, Type 0, BuildingBlock: HICVOG_clean_sbu_0, # of connection points: 7
#     Node 28, Type 0, BuildingBlock: HICVOG_clean_sbu_0, # of connection points: 7
#     Node 29, Type 0, BuildingBlock: HICVOG_clean_sbu_0, # of connection points: 7
#     Node 30, Type 0, BuildingBlock: HICVOG_clean_sbu_0, # of connection points: 7
#     Node 31, Type 0, BuildingBlock: HICVOG_clean_sbu_0, # of connection points: 7
#     Node 32, Type 0, BuildingBlock: HICVOG_clean_sbu_0, # of connection points: 7
#     Node 33, Type 0, BuildingBlock: HICVOG_clean_sbu_0, # of connection points: 7
#     Node 34, Type 0, BuildingBlock: HICVOG_clean_sbu_0, # of connection points: 7
#     Node 35, Type 0, BuildingBlock: HICVOG_clean_sbu_0, # of connection points: 7
#     Node 36, Type 0, BuildingBlock: HICVOG_clean_sbu_0, # of connection points: 7
#     Node 37, Type 0, BuildingBlock: HICVOG_clean_sbu_0, # of connection points: 7
#     Node 38, Type 0, BuildingBlock: HICVOG_clean_sbu_0, # of connection points: 7
#     Node 39, Type 0, BuildingBlock: HICVOG_clean_sbu_0, # of connection points: 7
#     Node 40, Type 0, BuildingBlock: HICVOG_clean_sbu_0, # of connection points: 7
#     Node 41, Type 0, BuildingBlock: HICVOG_clean_sbu_0, # of connection points: 7
#     Node 42, Type 0, BuildingBlock: HICVOG_clean_sbu_0, # of connection points: 7
#     Node 43, Type 0, BuildingBlock: HICVOG_clean_sbu_0, # of connection points: 7
#     Node 44, Type 0, BuildingBlock: HICVOG_clean_sbu_0, # of connection points: 7
#     Node 45, Type 0, BuildingBlock: HICVOG_clean_sbu_0, # of connection points: 7
#     Node 46, Type 0, BuildingBlock: HICVOG_clean_sbu_0, # of connection points: 7
#     Node 47, Type 0, BuildingBlock: HICVOG_clean_sbu_0, # of connection points: 7
#     Edge 48, Type (0, 0), BuildingBlock: XIVTED_clean_linker_0, # of connection points: 2
#     Edge 49, Type (0, 0), BuildingBlock: XIVTED_clean_linker_0, # of connection points: 2
#     Edge 50, Type (0, 0), BuildingBlock: XIVTED_clean_linker_0, # of connection points: 2
#     Edge 51, Type (0, 0), BuildingBlock: XIVTED_clean_linker_0, # of connection points: 2
#     Edge 52, Type (0, 0), BuildingBlock: XIVTED_clean_linker_0, # of connection points: 2
#     Edge 53, Type (0, 0), BuildingBlock: XIVTED_clean_linker_0, # of connection points: 2
#     Edge 54, Type (0, 0), BuildingBlock: XIVTED_clean_linker_0, # of connection points: 2
#     Edge 55, Type (0, 0), BuildingBlock: XIVTED_clean_linker_0, # of connection points: 2
#     Edge 56, Type (0, 0), BuildingBlock: XIVTED_clean_linker_0, # of connection points: 2
#     Edge 57, Type (0, 0), BuildingBlock: XIVTED_clean_linker_0, # of connection points: 2
#     Edge 58, Type (0, 0), BuildingBlock: XIVTED_clean_linker_0, # of connection points: 2
#     Edge 59, Type (0, 0), BuildingBlock: XIVTED_clean_linker_0, # of connection points: 2
#     Edge 60, Type (0, 0), BuildingBlock: XIVTED_clean_linker_0, # of connection points: 2
#     Edge 61, Type (0, 0), BuildingBlock: XIVTED_clean_linker_0, # of connection points: 2
#     Edge 62, Type (0, 0), BuildingBlock: XIVTED_clean_linker_0, # of connection points: 2
#     Edge 63, Type (0, 0), BuildingBlock: XIVTED_clean_linker_0, # of connection points: 2
#     Edge 64, Type (0, 0), BuildingBlock: XIVTED_clean_linker_0, # of connection points: 2
#     Edge 65, Type (0, 0), BuildingBlock: XIVTED_clean_linker_0, # of connection points: 2
#     Edge 66, Type (0, 0), BuildingBlock: XIVTED_clean_linker_0, # of connection points: 2
#     Edge 67, Type (0, 0), BuildingBlock: XIVTED_clean_linker_0, # of connection points: 2
#     Edge 68, Type (0, 0), BuildingBlock: XIVTED_clean_linker_0, # of connection points: 2
#     Edge 69, Type (0, 0), BuildingBlock: XIVTED_clean_linker_0, # of connection points: 2
#     Edge 70, Type (0, 0), BuildingBlock: XIVTED_clean_linker_0, # of connection points: 2
#     Edge 71, Type (0, 0), BuildingBlock: XIVTED_clean_linker_0, # of connection points: 2
#     Edge 72, Type (0, 0), BuildingBlock: XIVTED_clean_linker_0, # of connection points: 2
#     Edge 73, Type (0, 0), BuildingBlock: XIVTED_clean_linker_0, # of connection points: 2
#     Edge 74, Type (0, 0), BuildingBlock: XIVTED_clean_linker_0, # of connection points: 2
#     Edge 75, Type (0, 0), BuildingBlock: XIVTED_clean_linker_0, # of connection points: 2
#     Edge 76, Type (0, 0), BuildingBlock: XIVTED_clean_linker_0, # of connection points: 2
#     Edge 77, Type (0, 0), BuildingBlock: XIVTED_clean_linker_0, # of connection points: 2
#     Edge 78, Type (0, 0), BuildingBlock: XIVTED_clean_linker_0, # of connection points: 2
#     Edge 79, Type (0, 0), BuildingBlock: XIVTED_clean_linker_0, # of connection points: 2
#     Edge 80, Type (0, 0), BuildingBlock: XIVTED_clean_linker_0, # of connection points: 2
#     Edge 81, Type (0, 0), BuildingBlock: XIVTED_clean_linker_0, # of connection points: 2
#     Edge 82, Type (0, 0), BuildingBlock: XIVTED_clean_linker_0, # of connection points: 2
#     Edge 83, Type (0, 0), BuildingBlock: XIVTED_clean_linker_0, # of connection points: 2
#     Edge 84, Type (0, 0), BuildingBlock: XIVTED_clean_linker_0, # of connection points: 2
#     Edge 85, Type (0, 0), BuildingBlock: XIVTED_clean_linker_0, # of connection points: 2
#     Edge 86, Type (0, 0), BuildingBlock: XIVTED_clean_linker_0, # of connection points: 2
#     Edge 87, Type (0, 0), BuildingBlock: XIVTED_clean_linker_0, # of connection points: 2
#     Edge 88, Type (0, 0), BuildingBlock: XIVTED_clean_linker_0, # of connection points: 2
#     Edge 89, Type (0, 0), BuildingBlock: XIVTED_clean_linker_0, # of connection points: 2
#     Edge 90, Type (0, 0), BuildingBlock: XIVTED_clean_linker_0, # of connection points: 2
#     Edge 91, Type (0, 0), BuildingBlock: XIVTED_clean_linker_0, # of connection points: 2
#     Edge 92, Type (0, 0), BuildingBlock: XIVTED_clean_linker_0, # of connection points: 2
#     Edge 93, Type (0, 0), BuildingBlock: XIVTED_clean_linker_0, # of connection points: 2
#     Edge 94, Type (0, 0), BuildingBlock: XIVTED_clean_linker_0, # of connection points: 2
#     Edge 95, Type (0, 0), BuildingBlock: XIVTED_clean_linker_0, # of connection points: 2
#     Edge 96, Type (0, 0), BuildingBlock: XIVTED_clean_linker_0, # of connection points: 2
#     Edge 97, Type (0, 0), BuildingBlock: XIVTED_clean_linker_0, # of connection points: 2
#     Edge 98, Type (0, 0), BuildingBlock: XIVTED_clean_linker_0, # of connection points: 2
#     Edge 99, Type (0, 0), BuildingBlock: XIVTED_clean_linker_0, # of connection points: 2
#     Edge 100, Type (0, 0), BuildingBlock: XIVTED_clean_linker_0, # of connection points: 2
#     Edge 101, Type (0, 0), BuildingBlock: XIVTED_clean_linker_0, # of connection points: 2
#     Edge 102, Type (0, 0), BuildingBlock: XIVTED_clean_linker_0, # of connection points: 2
#     Edge 103, Type (0, 0), BuildingBlock: XIVTED_clean_linker_0, # of connection points: 2
#     Edge 104, Type (0, 0), BuildingBlock: XIVTED_clean_linker_0, # of connection points: 2
#     Edge 105, Type (0, 0), BuildingBlock: XIVTED_clean_linker_0, # of connection points: 2
#     Edge 106, Type (0, 0), BuildingBlock: XIVTED_clean_linker_0, # of connection points: 2
#     Edge 107, Type (0, 0), BuildingBlock: XIVTED_clean_linker_0, # of connection points: 2
#     Edge 108, Type (0, 0), BuildingBlock: XIVTED_clean_linker_0, # of connection points: 2
#     Edge 109, Type (0, 0), BuildingBlock: XIVTED_clean_linker_0, # of connection points: 2
#     Edge 110, Type (0, 0), BuildingBlock: XIVTED_clean_linker_0, # of connection points: 2
#     Edge 111, Type (0, 0), BuildingBlock: XIVTED_clean_linker_0, # of connection points: 2
#     Edge 112, Type (0, 0), BuildingBlock: XIVTED_clean_linker_0, # of connection points: 2
#     Edge 113, Type (0, 0), BuildingBlock: XIVTED_clean_linker_0, # of connection points: 2
#     Edge 114, Type (0, 0), BuildingBlock: XIVTED_clean_linker_0, # of connection points: 2
#     Edge 115, Type (0, 0), BuildingBlock: XIVTED_clean_linker_0, # of connection points: 2
#     Edge 116, Type (0, 0), BuildingBlock: XIVTED_clean_linker_0, # of connection points: 2
#     Edge 117, Type (0, 0), BuildingBlock: XIVTED_clean_linker_0, # of connection points: 2
#     Edge 118, Type (0, 0), BuildingBlock: XIVTED_clean_linker_0, # of connection points: 2
#     Edge 119, Type (0, 0), BuildingBlock: XIVTED_clean_linker_0, # of connection points: 2
#     Edge 120, Type (0, 0), BuildingBlock: XIVTED_clean_linker_0, # of connection points: 2
#     Edge 121, Type (0, 0), BuildingBlock: XIVTED_clean_linker_0, # of connection points: 2
#     Edge 122, Type (0, 0), BuildingBlock: XIVTED_clean_linker_0, # of connection points: 2
#     Edge 123, Type (0, 0), BuildingBlock: XIVTED_clean_linker_0, # of connection points: 2
#     Edge 124, Type (0, 0), BuildingBlock: XIVTED_clean_linker_0, # of connection points: 2
#     Edge 125, Type (0, 0), BuildingBlock: XIVTED_clean_linker_0, # of connection points: 2
#     Edge 126, Type (0, 0), BuildingBlock: XIVTED_clean_linker_0, # of connection points: 2
#     Edge 127, Type (0, 0), BuildingBlock: XIVTED_clean_linker_0, # of connection points: 2
#     Edge 128, Type (0, 0), BuildingBlock: XIVTED_clean_linker_0, # of connection points: 2
#     Edge 129, Type (0, 0), BuildingBlock: XIVTED_clean_linker_0, # of connection points: 2
#     Edge 130, Type (0, 0), BuildingBlock: XIVTED_clean_linker_0, # of connection points: 2
#     Edge 131, Type (0, 0), BuildingBlock: XIVTED_clean_linker_0, # of connection points: 2
#     Edge 132, Type (0, 0), BuildingBlock: XIVTED_clean_linker_0, # of connection points: 2
#     Edge 133, Type (0, 0), BuildingBlock: XIVTED_clean_linker_0, # of connection points: 2
#     Edge 134, Type (0, 0), BuildingBlock: XIVTED_clean_linker_0, # of connection points: 2
#     Edge 135, Type (0, 0), BuildingBlock: XIVTED_clean_linker_0, # of connection points: 2
#     Edge 136, Type (0, 0), BuildingBlock: XIVTED_clean_linker_0, # of connection points: 2
#     Edge 137, Type (0, 0), BuildingBlock: XIVTED_clean_linker_0, # of connection points: 2
#     Edge 138, Type (0, 0), BuildingBlock: XIVTED_clean_linker_0, # of connection points: 2
#     Edge 139, Type (0, 0), BuildingBlock: XIVTED_clean_linker_0, # of connection points: 2
#     Edge 140, Type (0, 0), BuildingBlock: XIVTED_clean_linker_0, # of connection points: 2
#     Edge 141, Type (0, 0), BuildingBlock: XIVTED_clean_linker_0, # of connection points: 2
#     Edge 142, Type (0, 0), BuildingBlock: XIVTED_clean_linker_0, # of connection points: 2
#     Edge 143, Type (0, 0), BuildingBlock: XIVTED_clean_linker_0, # of connection points: 2
#     Edge 144, Type (0, 0), BuildingBlock: XIVTED_clean_linker_0, # of connection points: 2
#     Edge 145, Type (0, 0), BuildingBlock: XIVTED_clean_linker_0, # of connection points: 2
#     Edge 146, Type (0, 0), BuildingBlock: XIVTED_clean_linker_0, # of connection points: 2
#     Edge 147, Type (0, 0), BuildingBlock: XIVTED_clean_linker_0, # of connection points: 2
#     Edge 148, Type (0, 0), BuildingBlock: XIVTED_clean_linker_0, # of connection points: 2
#     Edge 149, Type (0, 0), BuildingBlock: XIVTED_clean_linker_0, # of connection points: 2
#     Edge 150, Type (0, 0), BuildingBlock: XIVTED_clean_linker_0, # of connection points: 2
#     Edge 151, Type (0, 0), BuildingBlock: XIVTED_clean_linker_0, # of connection points: 2
#     Edge 152, Type (0, 0), BuildingBlock: XIVTED_clean_linker_0, # of connection points: 2
#     Edge 153, Type (0, 0), BuildingBlock: XIVTED_clean_linker_0, # of connection points: 2
#     Edge 154, Type (0, 0), BuildingBlock: XIVTED_clean_linker_0, # of connection points: 2
#     Edge 155, Type (0, 0), BuildingBlock: XIVTED_clean_linker_0, # of connection points: 2
#     Edge 156, Type (0, 0), BuildingBlock: XIVTED_clean_linker_0, # of connection points: 2
#     Edge 157, Type (0, 0), BuildingBlock: XIVTED_clean_linker_0, # of connection points: 2
#     Edge 158, Type (0, 0), BuildingBlock: XIVTED_clean_linker_0, # of connection points: 2
#     Edge 159, Type (0, 0), BuildingBlock: XIVTED_clean_linker_0, # of connection points: 2
#     Edge 160, Type (0, 0), BuildingBlock: XIVTED_clean_linker_0, # of connection points: 2
#     Edge 161, Type (0, 0), BuildingBlock: XIVTED_clean_linker_0, # of connection points: 2
#     Edge 162, Type (0, 0), BuildingBlock: XIVTED_clean_linker_0, # of connection points: 2
#     Edge 163, Type (0, 0), BuildingBlock: XIVTED_clean_linker_0, # of connection points: 2
#     Edge 164, Type (0, 0), BuildingBlock: XIVTED_clean_linker_0, # of connection points: 2
#     Edge 165, Type (0, 0), BuildingBlock: XIVTED_clean_linker_0, # of connection points: 2
#     Edge 166, Type (0, 0), BuildingBlock: XIVTED_clean_linker_0, # of connection points: 2
#     Edge 167, Type (0, 0), BuildingBlock: XIVTED_clean_linker_0, # of connection points: 2
#     Edge 168, Type (0, 0), BuildingBlock: XIVTED_clean_linker_0, # of connection points: 2
#     Edge 169, Type (0, 0), BuildingBlock: XIVTED_clean_linker_0, # of connection points: 2
#     Edge 170, Type (0, 0), BuildingBlock: XIVTED_clean_linker_0, # of connection points: 2
#     Edge 171, Type (0, 0), BuildingBlock: XIVTED_clean_linker_0, # of connection points: 2
#     Edge 172, Type (0, 0), BuildingBlock: XIVTED_clean_linker_0, # of connection points: 2
#     Edge 173, Type (0, 0), BuildingBlock: XIVTED_clean_linker_0, # of connection points: 2
#     Edge 174, Type (0, 0), BuildingBlock: XIVTED_clean_linker_0, # of connection points: 2
#     Edge 175, Type (0, 0), BuildingBlock: XIVTED_clean_linker_0, # of connection points: 2
#     Edge 176, Type (0, 0), BuildingBlock: XIVTED_clean_linker_0, # of connection points: 2
#     Edge 177, Type (0, 0), BuildingBlock: XIVTED_clean_linker_0, # of connection points: 2
#     Edge 178, Type (0, 0), BuildingBlock: XIVTED_clean_linker_0, # of connection points: 2
#     Edge 179, Type (0, 0), BuildingBlock: XIVTED_clean_linker_0, # of connection points: 2
#     Edge 180, Type (0, 0), BuildingBlock: XIVTED_clean_linker_0, # of connection points: 2
#     Edge 181, Type (0, 0), BuildingBlock: XIVTED_clean_linker_0, # of connection points: 2
#     Edge 182, Type (0, 0), BuildingBlock: XIVTED_clean_linker_0, # of connection points: 2
#     Edge 183, Type (0, 0), BuildingBlock: XIVTED_clean_linker_0, # of connection points: 2
#     Edge 184, Type (0, 0), BuildingBlock: XIVTED_clean_linker_0, # of connection points: 2
#     Edge 185, Type (0, 0), BuildingBlock: XIVTED_clean_linker_0, # of connection points: 2
#     Edge 186, Type (0, 0), BuildingBlock: XIVTED_clean_linker_0, # of connection points: 2
#     Edge 187, Type (0, 0), BuildingBlock: XIVTED_clean_linker_0, # of connection points: 2
#     Edge 188, Type (0, 0), BuildingBlock: XIVTED_clean_linker_0, # of connection points: 2
#     Edge 189, Type (0, 0), BuildingBlock: XIVTED_clean_linker_0, # of connection points: 2
#     Edge 190, Type (0, 0), BuildingBlock: XIVTED_clean_linker_0, # of connection points: 2
#     Edge 191, Type (0, 0), BuildingBlock: XIVTED_clean_linker_0, # of connection points: 2
#     Edge 192, Type (0, 0), BuildingBlock: XIVTED_clean_linker_0, # of connection points: 2
#     Edge 193, Type (0, 0), BuildingBlock: XIVTED_clean_linker_0, # of connection points: 2
#     Edge 194, Type (0, 0), BuildingBlock: XIVTED_clean_linker_0, # of connection points: 2
#     Edge 195, Type (0, 0), BuildingBlock: XIVTED_clean_linker_0, # of connection points: 2
#     Edge 196, Type (0, 0), BuildingBlock: XIVTED_clean_linker_0, # of connection points: 2
#     Edge 197, Type (0, 0), BuildingBlock: XIVTED_clean_linker_0, # of connection points: 2
#     Edge 198, Type (0, 0), BuildingBlock: XIVTED_clean_linker_0, # of connection points: 2
#     Edge 199, Type (0, 0), BuildingBlock: XIVTED_clean_linker_0, # of connection points: 2
#     Edge 200, Type (0, 0), BuildingBlock: XIVTED_clean_linker_0, # of connection points: 2
#     Edge 201, Type (0, 0), BuildingBlock: XIVTED_clean_linker_0, # of connection points: 2
#     Edge 202, Type (0, 0), BuildingBlock: XIVTED_clean_linker_0, # of connection points: 2
#     Edge 203, Type (0, 0), BuildingBlock: XIVTED_clean_linker_0, # of connection points: 2
#     Edge 204, Type (0, 0), BuildingBlock: XIVTED_clean_linker_0, # of connection points: 2
#     Edge 205, Type (0, 0), BuildingBlock: XIVTED_clean_linker_0, # of connection points: 2
#     Edge 206, Type (0, 0), BuildingBlock: XIVTED_clean_linker_0, # of connection points: 2
#     Edge 207, Type (0, 0), BuildingBlock: XIVTED_clean_linker_0, # of connection points: 2
#     Edge 208, Type (0, 0), BuildingBlock: XIVTED_clean_linker_0, # of connection points: 2
#     Edge 209, Type (0, 0), BuildingBlock: XIVTED_clean_linker_0, # of connection points: 2
#     Edge 210, Type (0, 0), BuildingBlock: XIVTED_clean_linker_0, # of connection points: 2
#     Edge 211, Type (0, 0), BuildingBlock: XIVTED_clean_linker_0, # of connection points: 2
#     Edge 212, Type (0, 0), BuildingBlock: XIVTED_clean_linker_0, # of connection points: 2
#     Edge 213, Type (0, 0), BuildingBlock: XIVTED_clean_linker_0, # of connection points: 2
#     Edge 214, Type (0, 0), BuildingBlock: XIVTED_clean_linker_0, # of connection points: 2
#     Edge 215, Type (0, 0), BuildingBlock: XIVTED_clean_linker_0, # of connection points: 2
# Relax obj value: 0.276
# Max RMSD: 0.283
# Mean RMSD: 0.283
data_MOF--net-svy--node1-HICVOG_clean_sbu_0--edge1-XIVTED_clean_linker_0
_symmetry_space_group_name_H-M    P1
_symmetry_Int_Tables_number       1
_symmetry_cell_setting            triclinic
loop_
_symmetry_equiv_pos_as_xyz
'x, y, z'
_cell_length_a     61.138471
_cell_length_b     61.134161
_cell_length_c     61.143894
_cell_angle_alpha  89.999359
_cell_angle_beta   90.003803
_cell_angle_gamma 89.997198
loop_
_atom_site_label
_atom_site_type_symbol
_atom_site_fract_x
_atom_site_fract_y
_atom_site_fract_z
_atom_type_partial_charge
Zn0 Zn 0.12979 0.33327 0.19676 0.0
C1 C 0.17742 0.29272 0.17279 0.0
N2 N 0.16718 0.27808 0.18548 0.0
C3 C 0.15199 0.29029 0.19574 0.0
N4 N 0.15273 0.31155 0.18953 0.0
N5 N 0.1691 0.313 0.17529 0.0
C6 C 0.16355 0.32503 0.11948 0.0
O7 O 0.14855 0.31777 0.13304 0.0
O8 O 0.1282 0.3392 0.22943 0.0
Zn9 Zn 0.18017 0.33805 0.15981 0.0
N10 N 0.10188 0.322 0.18575 0.0
C11 C 0.07807 0.32398 0.155 0.0
C12 C 0.09784 0.32897 0.16503 0.0
C13 C 0.08699 0.30939 0.19673 0.0
N14 N 0.06306 0.31196 0.16598 0.0
C15 C 0.06683 0.30433 0.18654 0.0
O16 O 0.16128 0.36388 0.1614 0.0
C17 C 0.14467 0.37351 0.16902 0.0
O18 O 0.13202 0.36396 0.18254 0.0
H19 H 0.10987 0.33863 0.1564 0.0
H20 H 0.09051 0.30385 0.21317 0.0
C21 C 0.2224 0.35825 0.15879 0.0
C22 C 0.24114 0.36754 0.16836 0.0
C23 C 0.22945 0.35453 0.20308 0.0
C24 C 0.21072 0.34575 0.19357 0.0
N25 N 0.2077 0.34758 0.17164 0.0
N26 N 0.24408 0.36531 0.19034 0.0
H27 H 0.21892 0.36027 0.14156 0.0
C28 C 0.14188 0.35262 0.23766 0.0
O29 O 0.15743 0.36053 0.22512 0.0
O30 O 0.18124 0.33262 0.12738 0.0
H31 H 0.19854 0.33771 0.20356 0.0
H32 H 0.07462 0.32968 0.13861 0.0
H33 H 0.23218 0.35314 0.22051 0.0
Zn34 Zn 0.58757 0.57988 0.10022 0.0
C35 C 0.54025 0.60838 0.06407 0.0
N36 N 0.5279 0.59314 0.07409 0.0
C37 C 0.54242 0.58277 0.08682 0.0
N38 N 0.56273 0.59107 0.08457 0.0
N39 N 0.56145 0.60753 0.07041 0.0
C40 C 0.60269 0.61805 0.02244 0.0
O41 O 0.61052 0.60248 0.03502 0.0
O42 O 0.58195 0.57896 0.13263 0.0
Zn43 Zn 0.58335 0.63035 0.06333 0.0
N44 N 0.59686 0.55218 0.08863 0.0
C45 C 0.60362 0.52992 0.0575 0.0
C46 C 0.59498 0.54886 0.06674 0.0
C47 C 0.60746 0.53763 0.10167 0.0
N48 N 0.61432 0.51542 0.07045 0.0
C49 C 0.61661 0.51868 0.09238 0.0
O50 O 0.61401 0.62788 0.07766 0.0
C51 C 0.62342 0.61505 0.09111 0.0
O52 O 0.61359 0.59851 0.09865 0.0
H53 H 0.587 0.56095 0.05658 0.0
H54 H 0.60955 0.54139 0.11883 0.0
C55 C 0.55938 0.67314 0.0633 0.0
C56 C 0.55433 0.69334 0.07341 0.0
C57 C 0.57434 0.68238 0.10483 0.0
C58 C 0.57931 0.66256 0.09488 0.0
N59 N 0.57216 0.65835 0.07424 0.0
N60 N 0.56215 0.69727 0.09387 0.0
H61 H 0.55369 0.66949 0.04694 0.0
C62 C 0.57443 0.59669 0.14048 0.0
O63 O 0.56734 0.61175 0.12688 0.0
O64 O 0.58935 0.63182 0.03065 0.0
H65 H 0.58908 0.65061 0.1035 0.0
H66 H 0.60219 0.52695 0.04012 0.0
H67 H 0.58018 0.68595 0.12114 0.0
Zn68 Zn 0.82976 0.17166 0.1599 0.0
C69 C 0.85687 0.21841 0.19773 0.0
N70 N 0.84078 0.23038 0.18862 0.0
C71 C 0.83121 0.21603 0.17511 0.0
N72 N 0.84073 0.19619 0.17608 0.0
N73 N 0.85717 0.19757 0.19023 0.0
C74 C 0.86745 0.15732 0.23771 0.0
O75 O 0.85098 0.15098 0.22543 0.0
O76 O 0.82954 0.17767 0.12757 0.0
Zn77 Zn 0.88026 0.17592 0.19676 0.0
N78 N 0.80156 0.16314 0.1709 0.0
C79 C 0.77822 0.15862 0.20164 0.0
C80 C 0.79748 0.16655 0.19247 0.0
C81 C 0.78737 0.15172 0.15811 0.0
N82 N 0.76412 0.14706 0.18899 0.0
C83 C 0.7681 0.14327 0.1674 0.0
O84 O 0.87755 0.14536 0.1824 0.0
C85 C 0.86467 0.13567 0.16919 0.0
O86 O 0.848 0.14527 0.16159 0.0
H87 H 0.80926 0.17513 0.2025 0.0
H88 H 0.79164 0.14847 0.14125 0.0
C89 C 0.92291 0.19996 0.19653 0.0
C90 C 0.94301 0.20511 0.1863 0.0
C91 C 0.9318 0.18539 0.15478 0.0
C92 C 0.91208 0.18029 0.16487 0.0
N93 N 0.90805 0.18726 0.18559 0.0
N94 N 0.94678 0.19749 0.16573 0.0
H95 H 0.91941 0.20548 0.21298 0.0
C96 C 0.84729 0.18547 0.12005 0.0
O97 O 0.86205 0.19269 0.13391 0.0
O98 O 0.88206 0.16959 0.22932 0.0
H99 H 0.90008 0.17055 0.15629 0.0
H100 H 0.77467 0.16126 0.21877 0.0
H101 H 0.93524 0.1797 0.13839 0.0
Zn102 Zn 0.42184 0.93009 0.09996 0.0
C103 C 0.46843 0.90257 0.06223 0.0
N104 N 0.48062 0.91828 0.07173 0.0
C105 C 0.46633 0.92791 0.08526 0.0
N106 N 0.44632 0.91883 0.08391 0.0
N107 N 0.44751 0.90257 0.06954 0.0
C108 C 0.4069 0.89265 0.02181 0.0
O109 O 0.40014 0.90885 0.03421 0.0
O110 O 0.42766 0.93013 0.13233 0.0
Zn111 Zn 0.42557 0.87977 0.06275 0.0
N112 N 0.41362 0.95842 0.08907 0.0
C113 C 0.4091 0.98196 0.05848 0.0
C114 C 0.41683 0.96253 0.06748 0.0
C115 C 0.40252 0.97269 0.10203 0.0
N116 N 0.3979 0.99617 0.07133 0.0
C117 C 0.39426 0.99215 0.09294 0.0
O118 O 0.39494 0.88275 0.077 0.0
C119 C 0.38545 0.89573 0.09026 0.0
O120 O 0.39532 0.91217 0.09798 0.0
H121 H 0.42514 0.95066 0.05732 0.0
H122 H 0.39938 0.96836 0.1189 0.0
C123 C 0.44937 0.83691 0.06302 0.0
C124 C 0.45419 0.81666 0.07315 0.0
C125 C 0.43384 0.82766 0.10434 0.0
C126 C 0.42909 0.84753 0.09436 0.0
N127 N 0.43652 0.85174 0.07383 0.0
N128 N 0.4461 0.81273 0.0935 0.0
H129 H 0.45528 0.84056 0.04674 0.0
C130 C 0.43521 0.91228 0.13988 0.0
O131 O 0.44222 0.89741 0.12603 0.0
O132 O 0.4194 0.87818 0.03013 0.0
H133 H 0.41926 0.85949 0.10288 0.0
H134 H 0.4116 0.98555 0.04134 0.0
H135 H 0.42778 0.82408 0.12057 0.0
Zn136 Zn 0.12964 0.67575 0.31337 0.0
C137 C 0.17917 0.71582 0.33406 0.0
N138 N 0.16982 0.73001 0.32025 0.0
C139 C 0.15342 0.71815 0.31156 0.0
N140 N 0.15277 0.69749 0.31955 0.0
N141 N 0.16928 0.69617 0.33364 0.0
C142 C 0.1619 0.68519 0.38962 0.0
O143 O 0.14707 0.69177 0.37552 0.0
O144 O 0.12755 0.66938 0.28085 0.0
Zn145 Zn 0.18034 0.67186 0.35006 0.0
N146 N 0.10187 0.68698 0.32474 0.0
C147 C 0.07811 0.68478 0.35551 0.0
C148 C 0.09784 0.6798 0.34539 0.0
C149 C 0.08699 0.69973 0.3139 0.0
N150 N 0.06312 0.69695 0.34466 0.0
C151 C 0.06687 0.70476 0.32416 0.0
O152 O 0.16256 0.64523 0.34808 0.0
C153 C 0.14594 0.63549 0.34056 0.0
O154 O 0.13273 0.64516 0.32766 0.0
H155 H 0.10983 0.66996 0.35387 0.0
H156 H 0.09049 0.70538 0.2975 0.0
C157 C 0.2229 0.65243 0.35264 0.0
C158 C 0.24252 0.64434 0.34378 0.0
C159 C 0.23305 0.65988 0.30943 0.0
C160 C 0.21345 0.66745 0.31818 0.0
N161 N 0.20888 0.66378 0.3396 0.0
N162 N 0.247 0.64841 0.32233 0.0
H163 H 0.21824 0.64897 0.36936 0.0
C164 C 0.14222 0.65724 0.27236 0.0
O165 O 0.15887 0.65112 0.28449 0.0
O166 O 0.18 0.67797 0.38237 0.0
H167 H 0.20179 0.67594 0.30793 0.0
H168 H 0.07467 0.67894 0.37185 0.0
H169 H 0.23699 0.66273 0.29242 0.0
Zn170 Zn 0.92662 0.63074 0.94675 0.0
C171 C 0.96709 0.58224 0.92452 0.0
N172 N 0.98133 0.59165 0.93826 0.0
C173 C 0.96923 0.6075 0.94764 0.0
N174 N 0.94841 0.60778 0.94007 0.0
N175 N 0.94718 0.59157 0.92564 0.0
C176 C 0.9358 0.59851 0.86978 0.0
O177 O 0.9425 0.61339 0.88376 0.0
O178 O 0.92058 0.63272 0.97936 0.0
Zn179 Zn 0.92265 0.58047 0.90952 0.0
N180 N 0.93767 0.65862 0.93541 0.0
C181 C 0.93504 0.68253 0.90477 0.0
C182 C 0.93023 0.66274 0.91487 0.0
C183 C 0.95059 0.67347 0.94612 0.0
N184 N 0.94736 0.69748 0.9155 0.0
C185 C 0.95546 0.69364 0.93587 0.0
O186 O 0.89611 0.59848 0.91145 0.0
C187 C 0.88637 0.61496 0.91927 0.0
O188 O 0.89598 0.6278 0.93259 0.0
H189 H 0.92032 0.65077 0.90644 0.0
H190 H 0.95649 0.66989 0.96242 0.0
C191 C 0.90309 0.53791 0.90756 0.0
C192 C 0.89489 0.51847 0.91673 0.0
C193 C 0.91021 0.52856 0.95101 0.0
C194 C 0.91787 0.54797 0.94194 0.0
N195 N 0.91439 0.55214 0.9204 0.0
N196 N 0.8988 0.5144 0.93829 0.0
H197 H 0.89975 0.54227 0.89074 0.0
C198 C 0.90752 0.61879 0.98775 0.0
O199 O 0.90012 0.60282 0.97542 0.0
O200 O 0.92855 0.58048 0.87718 0.0
H201 H 0.92634 0.5598 0.95202 0.0
H202 H 0.92897 0.68603 0.88852 0.0
H203 H 0.91293 0.52493 0.96811 0.0
Zn204 Zn 0.88027 0.83337 0.31304 0.0
C205 C 0.83286 0.79272 0.33722 0.0
N206 N 0.84302 0.77813 0.32441 0.0
C207 C 0.85813 0.7904 0.3141 0.0
N208 N 0.85741 0.81163 0.32039 0.0
N209 N 0.84113 0.81302 0.33474 0.0
C210 C 0.84674 0.82456 0.39062 0.0
O211 O 0.86157 0.81697 0.37705 0.0
O212 O 0.88164 0.83921 0.28035 0.0
Zn213 Zn 0.83013 0.83803 0.35032 0.0
N214 N 0.90824 0.82217 0.32398 0.0
C215 C 0.93219 0.82437 0.35462 0.0
C216 C 0.91238 0.8293 0.34463 0.0
C217 C 0.92307 0.80942 0.31306 0.0
N218 N 0.94713 0.81222 0.34369 0.0
C219 C 0.94326 0.80441 0.32321 0.0
O220 O 0.84898 0.86386 0.34862 0.0
C221 C 0.86549 0.87356 0.34086 0.0
O222 O 0.87804 0.86408 0.3272 0.0
H223 H 0.9004 0.83903 0.35324 0.0
H224 H 0.91947 0.80373 0.29669 0.0
C225 C 0.78787 0.85825 0.35151 0.0
C226 C 0.76913 0.86759 0.34198 0.0
C227 C 0.78075 0.85462 0.30721 0.0
C228 C 0.79949 0.84582 0.31668 0.0
N229 N 0.80254 0.8476 0.33861 0.0
N230 N 0.76616 0.8654 0.32 0.0
H231 H 0.79138 0.86024 0.36874 0.0
C232 C 0.86793 0.85263 0.27218 0.0
O233 O 0.85253 0.86067 0.28483 0.0
O234 O 0.82922 0.83256 0.38275 0.0
H235 H 0.81166 0.83779 0.30665 0.0
H236 H 0.93572 0.8302 0.37095 0.0
H237 H 0.77801 0.85328 0.28979 0.0
Zn238 Zn 0.08834 0.93054 0.90979 0.0
C239 C 0.04215 0.90342 0.94823 0.0
N240 N 0.03015 0.91967 0.93944 0.0
C241 C 0.04428 0.9291 0.92562 0.0
N242 N 0.06403 0.91939 0.92613 0.0
N243 N 0.06282 0.90294 0.94028 0.0
C244 C 0.1035 0.89185 0.98764 0.0
O245 O 0.11079 0.90793 0.97538 0.0
O246 O 0.08228 0.93041 0.87748 0.0
Zn247 Zn 0.0846 0.87988 0.94655 0.0
N248 N 0.0964 0.95903 0.9204 0.0
C249 C 0.10024 0.98314 0.95063 0.0
C250 C 0.09272 0.96354 0.94183 0.0
C251 C 0.10773 0.97309 0.9074 0.0
N252 N 0.11169 0.99714 0.93776 0.0
C253 C 0.11577 0.99272 0.91631 0.0
O254 O 0.11523 0.88301 0.93232 0.0
C255 C 0.12479 0.89617 0.91929 0.0
O256 O 0.11498 0.91272 0.91172 0.0
H257 H 0.08423 0.95185 0.95204 0.0
H258 H 0.1112 0.96848 0.89068 0.0
C259 C 0.0606 0.83722 0.9458 0.0
C260 C 0.05563 0.81712 0.93547 0.0
C261 C 0.07585 0.82838 0.9043 0.0
C262 C 0.08077 0.84809 0.91448 0.0
N263 N 0.07346 0.8521 0.93509 0.0
N264 N 0.06358 0.81338 0.91503 0.0
H265 H 0.05483 0.8407 0.96217 0.0
C266 C 0.07516 0.91233 0.87008 0.0
O267 O 0.06862 0.89738 0.88405 0.0
O268 O 0.09067 0.87778 0.97915 0.0
H269 H 0.09067 0.86009 0.90608 0.0
H270 H 0.09738 0.98704 0.96765 0.0
H271 H 0.0818 0.82495 0.88799 0.0
Zn272 Zn 0.15964 0.18028 0.33758 0.0
C273 C 0.19715 0.15248 0.29097 0.0
N274 N 0.18729 0.16781 0.2786 0.0
C275 C 0.17385 0.1776 0.29287 0.0
N276 N 0.17559 0.16895 0.31305 0.0
N277 N 0.19011 0.15281 0.31197 0.0
C278 C 0.23803 0.14309 0.35288 0.0
O279 O 0.22554 0.15911 0.3599 0.0
O280 O 0.12725 0.18043 0.33181 0.0
Zn281 Zn 0.19714 0.13019 0.33404 0.0
N282 N 0.17064 0.20852 0.34592 0.0
C283 C 0.20129 0.23191 0.3508 0.0
C284 C 0.19227 0.21257 0.34287 0.0
C285 C 0.15767 0.22275 0.35707 0.0
N286 N 0.18843 0.24608 0.36205 0.0
C287 C 0.16678 0.2421 0.36554 0.0
O288 O 0.18286 0.13313 0.36466 0.0
C289 C 0.1694 0.14599 0.37404 0.0
O290 O 0.16158 0.16233 0.36409 0.0
H291 H 0.20243 0.20073 0.33452 0.0
H292 H 0.14078 0.21843 0.3601 0.0
C293 C 0.19714 0.0873 0.31031 0.0
C294 C 0.18717 0.06696 0.30555 0.0
C295 C 0.15598 0.07768 0.32604 0.0
C296 C 0.16579 0.09764 0.33073 0.0
N297 N 0.18625 0.10203 0.3232 0.0
N298 N 0.1669 0.06284 0.31375 0.0
H299 H 0.21335 0.0911 0.30431 0.0
C300 C 0.11974 0.16243 0.32459 0.0
O301 O 0.13363 0.14746 0.31787 0.0
O302 O 0.22978 0.12877 0.34017 0.0
H303 H 0.1572 0.10953 0.34058 0.0
H304 H 0.21846 0.23546 0.34843 0.0
H305 H 0.13981 0.07395 0.33219 0.0
Zn306 Zn 0.43008 0.60061 0.92209 0.0
C307 C 0.40236 0.5639 0.96949 0.0
N308 N 0.41763 0.57399 0.98173 0.0
C309 C 0.42773 0.5869 0.96718 0.0
N310 N 0.41924 0.5847 0.94695 0.0
N311 N 0.40294 0.57037 0.94831 0.0
C312 C 0.39239 0.52224 0.9074 0.0
O313 O 0.40788 0.53486 0.89949 0.0
O314 O 0.43018 0.63304 0.92767 0.0
Zn315 Zn 0.38008 0.56313 0.92656 0.0
N316 N 0.45807 0.58963 0.91291 0.0
C317 C 0.48075 0.55881 0.90608 0.0
C318 C 0.46166 0.56777 0.91467 0.0
C319 C 0.47252 0.60292 0.90244 0.0
N320 N 0.49512 0.57199 0.89549 0.0
C321 C 0.4916 0.59389 0.8933 0.0
O322 O 0.3825 0.57718 0.89582 0.0
C323 C 0.39513 0.59072 0.88627 0.0
O324 O 0.41157 0.5986 0.89599 0.0
H325 H 0.44966 0.55741 0.92253 0.0
H326 H 0.46857 0.62005 0.90043 0.0
C327 C 0.33736 0.56326 0.95054 0.0
C328 C 0.31715 0.57337 0.9555 0.0
C329 C 0.32803 0.60465 0.93524 0.0
C330 C 0.34786 0.5947 0.93035 0.0
N331 N 0.35211 0.57413 0.93767 0.0
N332 N 0.31316 0.59376 0.94752 0.0
H333 H 0.34104 0.54695 0.95636 0.0
C334 C 0.41231 0.6405 0.93523 0.0
O335 O 0.39759 0.6266 0.94245 0.0
O336 O 0.37863 0.53042 0.92076 0.0
H337 H 0.35978 0.60326 0.9205 0.0
H338 H 0.48393 0.54146 0.90743 0.0
H339 H 0.32442 0.62091 0.92927 0.0
Zn340 Zn 0.8503 0.32972 0.33801 0.0
C341 C 0.81448 0.35791 0.29023 0.0
N342 N 0.82474 0.34267 0.2781 0.0
C343 C 0.83732 0.3324 0.2928 0.0
N344 N 0.83478 0.34077 0.31304 0.0
N345 N 0.8206 0.3572 0.31153 0.0
C346 C 0.77299 0.36841 0.35324 0.0
O347 O 0.78567 0.353 0.36125 0.0
O348 O 0.88269 0.32839 0.33241 0.0
Zn349 Zn 0.81366 0.38033 0.33325 0.0
N350 N 0.83847 0.30223 0.34765 0.0
C351 C 0.8072 0.28029 0.35476 0.0
C352 C 0.81653 0.29912 0.346 0.0
C353 C 0.85149 0.28754 0.35812 0.0
N354 N 0.82012 0.26565 0.36532 0.0
C355 C 0.84211 0.26868 0.36736 0.0
O356 O 0.82826 0.3783 0.36384 0.0
C357 C 0.84167 0.36549 0.37335 0.0
O358 O 0.84897 0.34873 0.36372 0.0
H359 H 0.80642 0.31129 0.33808 0.0
H360 H 0.86871 0.29112 0.35998 0.0
C361 C 0.81346 0.42321 0.30937 0.0
C362 C 0.82382 0.44317 0.30393 0.0
C363 C 0.85585 0.43136 0.32244 0.0
C364 C 0.84564 0.41179 0.32783 0.0
N365 N 0.82462 0.40811 0.3216 0.0
N366 N 0.84471 0.44657 0.3108 0.0
H367 H 0.79677 0.41998 0.30443 0.0
C368 C 0.89074 0.34591 0.3246 0.0
O369 O 0.87731 0.36096 0.31718 0.0
O370 O 0.78106 0.38198 0.33963 0.0
H371 H 0.85438 0.3996 0.3372 0.0
H372 H 0.78977 0.27749 0.35352 0.0
H373 H 0.8725 0.43452 0.32754 0.0
Zn374 Zn 0.63015 0.94686 0.92639 0.0
C375 C 0.58128 0.92451 0.9663 0.0
N376 N 0.59075 0.93797 0.98077 0.0
C377 C 0.60671 0.94738 0.96885 0.0
N378 N 0.60702 0.94009 0.94794 0.0
N379 N 0.59071 0.9258 0.94646 0.0
C380 C 0.59758 0.86988 0.93524 0.0
O381 O 0.61236 0.8838 0.94228 0.0
O382 O 0.63197 0.97949 0.92037 0.0
Zn383 Zn 0.57986 0.90972 0.92183 0.0
N384 N 0.65788 0.93566 0.93782 0.0
C385 C 0.68136 0.90462 0.93638 0.0
C386 C 0.66173 0.91479 0.93114 0.0
C387 C 0.67285 0.94667 0.9503 0.0
N388 N 0.69645 0.91563 0.94828 0.0
C389 C 0.69287 0.93634 0.95557 0.0
O390 O 0.59825 0.91164 0.89562 0.0
C391 C 0.61487 0.91934 0.88605 0.0
O392 O 0.62767 0.93261 0.89575 0.0
H393 H 0.64965 0.90618 0.92152 0.0
H394 H 0.6695 0.96323 0.95557 0.0
C395 C 0.53748 0.90783 0.90189 0.0
C396 C 0.51827 0.91709 0.89327 0.0
C397 C 0.5285 0.95149 0.9082 0.0
C398 C 0.54771 0.94234 0.91628 0.0
N399 N 0.5517 0.9207 0.91316 0.0
N400 N 0.51438 0.93875 0.89677 0.0
H401 H 0.54168 0.8909 0.89887 0.0
C402 C 0.61813 0.98778 0.90716 0.0
O403 O 0.60239 0.97531 0.8995 0.0
O404 O 0.5797 0.87735 0.92768 0.0
H405 H 0.55952 0.95242 0.92476 0.0
H406 H 0.68466 0.8881 0.93094 0.0
H407 H 0.52502 0.96867 0.9106 0.0
Zn408 Zn 0.19699 0.88045 0.17673 0.0
C409 C 0.17316 0.83269 0.21721 0.0
N410 N 0.18588 0.8429 0.23185 0.0
C411 C 0.1961 0.85812 0.21966 0.0
N412 N 0.18985 0.85744 0.19842 0.0
N413 N 0.17561 0.84106 0.19695 0.0
C414 C 0.11977 0.84614 0.18507 0.0
O415 O 0.13323 0.86117 0.19249 0.0
O416 O 0.22959 0.88193 0.17045 0.0
Zn417 Zn 0.16021 0.82998 0.17186 0.0
N418 N 0.18609 0.90836 0.18817 0.0
C419 C 0.15524 0.93208 0.18651 0.0
C420 C 0.16529 0.91235 0.1814 0.0
C421 C 0.19714 0.92327 0.20072 0.0
N422 N 0.16629 0.9471 0.19846 0.0
C423 C 0.18693 0.94339 0.2059 0.0
O424 O 0.16155 0.849 0.14612 0.0
C425 C 0.16907 0.86571 0.13656 0.0
O426 O 0.18258 0.87835 0.14613 0.0
H427 H 0.15661 0.9003 0.17181 0.0
H428 H 0.21364 0.91979 0.20611 0.0
C429 C 0.15976 0.78785 0.15136 0.0
C430 C 0.1696 0.76923 0.14209 0.0
C431 C 0.2041 0.78123 0.15543 0.0
C432 C 0.19433 0.79982 0.1642 0.0
N433 N 0.17238 0.80263 0.1622 0.0
N434 N 0.19159 0.76651 0.1445 0.0
H435 H 0.14252 0.79118 0.14922 0.0
C436 C 0.23769 0.86774 0.15751 0.0
O437 O 0.22511 0.85178 0.15048 0.0
O438 O 0.12777 0.82859 0.1773 0.0
H439 H 0.20413 0.81206 0.17241 0.0
H440 H 0.13879 0.93549 0.18097 0.0
H441 H 0.22154 0.77867 0.15696 0.0
Zn442 Zn 0.08024 0.6 0.08828 0.0
C443 C 0.10749 0.56239 0.04145 0.0
N444 N 0.09131 0.57145 0.02956 0.0
C445 C 0.08176 0.58492 0.04396 0.0
N446 N 0.09134 0.58393 0.06375 0.0
N447 N 0.10783 0.56984 0.06232 0.0
C448 C 0.11862 0.52212 0.10275 0.0
O449 O 0.10258 0.53443 0.11002 0.0
O450 O 0.08056 0.63241 0.08261 0.0
Zn451 Zn 0.13083 0.5632 0.08407 0.0
N452 N 0.05178 0.58934 0.09636 0.0
C453 C 0.02789 0.55895 0.10035 0.0
C454 C 0.04741 0.56786 0.09276 0.0
C455 C 0.03767 0.60227 0.1077 0.0
N456 N 0.01384 0.57176 0.1118 0.0
C457 C 0.01813 0.59326 0.11583 0.0
O458 O 0.12782 0.57717 0.11482 0.0
C459 C 0.11464 0.59005 0.12454 0.0
O460 O 0.09808 0.59769 0.11483 0.0
H461 H 0.05915 0.5577 0.08427 0.0
H462 H 0.0422 0.61903 0.11114 0.0
C463 C 0.17359 0.5638 0.0603 0.0
C464 C 0.19376 0.57403 0.05545 0.0
C465 C 0.18252 0.60526 0.07563 0.0
C466 C 0.16274 0.59515 0.08043 0.0
N467 N 0.15868 0.57457 0.07307 0.0
N468 N 0.19754 0.59446 0.06344 0.0
H469 H 0.17006 0.54744 0.05449 0.0
C470 C 0.09865 0.63974 0.07545 0.0
O471 O 0.11348 0.62571 0.06872 0.0
O472 O 0.13273 0.53056 0.08994 0.0
H473 H 0.15073 0.6036 0.09028 0.0
H474 H 0.02409 0.5419 0.09754 0.0
H475 H 0.18599 0.62154 0.08162 0.0
Zn476 Zn 0.8505 0.68014 0.17221 0.0
C477 C 0.81213 0.65328 0.21865 0.0
N478 N 0.82173 0.6689 0.23086 0.0
C479 C 0.83545 0.67835 0.21663 0.0
N480 N 0.83413 0.66923 0.19663 0.0
N481 N 0.81956 0.65314 0.19779 0.0
C482 C 0.77195 0.64271 0.15703 0.0
O483 O 0.78437 0.65884 0.15014 0.0
O484 O 0.8828 0.68015 0.17836 0.0
Zn485 Zn 0.81284 0.63015 0.17605 0.0
N486 N 0.83992 0.70849 0.16365 0.0
C487 C 0.80961 0.73227 0.15853 0.0
C488 C 0.81833 0.71282 0.16655 0.0
C489 C 0.85317 0.72257 0.15264 0.0
N490 N 0.82273 0.74627 0.14738 0.0
C491 C 0.84436 0.74202 0.14409 0.0
O492 O 0.82729 0.63284 0.14552 0.0
C493 C 0.84082 0.64553 0.13603 0.0
O494 O 0.84867 0.66198 0.14579 0.0
H495 H 0.80795 0.70112 0.17482 0.0
H496 H 0.87004 0.71808 0.14978 0.0
C497 C 0.81303 0.58726 0.19981 0.0
C498 C 0.82341 0.56725 0.20502 0.0
C499 C 0.85512 0.57894 0.18591 0.0
C500 C 0.84489 0.59857 0.18074 0.0
N501 N 0.824 0.60232 0.18739 0.0
N502 N 0.84415 0.56376 0.19774 0.0
H503 H 0.79645 0.59054 0.20508 0.0
C504 C 0.89031 0.66241 0.18619 0.0
O505 O 0.87644 0.64765 0.19335 0.0
O506 O 0.78023 0.62841 0.16975 0.0
H507 H 0.85349 0.61072 0.17121 0.0
H508 H 0.79247 0.73603 0.16076 0.0
H509 H 0.87165 0.57572 0.18048 0.0
Zn510 Zn 0.87988 0.94635 0.08324 0.0
C511 C 0.92843 0.92343 0.04323 0.0
N512 N 0.91827 0.93615 0.02855 0.0
C513 C 0.90273 0.94601 0.04063 0.0
N514 N 0.90318 0.93958 0.06182 0.0
N515 N 0.9197 0.92552 0.06337 0.0
C516 C 0.91477 0.86927 0.07405 0.0
O517 O 0.89994 0.88262 0.06607 0.0
O518 O 0.87793 0.97897 0.08942 0.0
Zn519 Zn 0.93047 0.90975 0.08832 0.0
N520 N 0.85239 0.93512 0.07132 0.0
C521 C 0.82982 0.90339 0.07129 0.0
C522 C 0.84917 0.91386 0.07697 0.0
C523 C 0.83706 0.94629 0.05941 0.0
N524 N 0.81438 0.91452 0.05996 0.0
C525 C 0.81734 0.93567 0.05369 0.0
O526 O 0.91116 0.91084 0.11388 0.0
C527 C 0.89433 0.91821 0.12334 0.0
O528 O 0.88174 0.93178 0.11378 0.0
H529 H 0.86153 0.90515 0.08614 0.0
H530 H 0.83993 0.96318 0.05494 0.0
C531 C 0.97244 0.90864 0.10896 0.0
C532 C 0.99109 0.91814 0.11851 0.0
C533 C 0.97947 0.95299 0.10576 0.0
C534 C 0.96084 0.94355 0.0967 0.0
N535 N 0.95783 0.92159 0.0983 0.0
N536 N 0.99401 0.94015 0.11655 0.0
H537 H 0.96897 0.89139 0.11075 0.0
C538 C 0.89161 0.98723 0.10282 0.0
O539 O 0.90731 0.97477 0.11056 0.0
O540 O 0.93195 0.87739 0.08249 0.0
H541 H 0.94873 0.95361 0.08862 0.0
H542 H 0.82702 0.88654 0.07592 0.0
H543 H 0.98219 0.97043 0.10458 0.0
Zn544 Zn 0.33829 0.16015 0.18037 0.0
C545 C 0.29161 0.19791 0.15307 0.0
N546 N 0.27968 0.18892 0.16925 0.0
C547 C 0.29404 0.17545 0.17884 0.0
N548 N 0.31384 0.17634 0.16927 0.0
N549 N 0.31245 0.19039 0.15275 0.0
C550 C 0.35277 0.23784 0.14228 0.0
O551 O 0.3593 0.22555 0.15866 0.0
O552 O 0.33236 0.12779 0.18035 0.0
Zn553 Zn 0.33414 0.19685 0.12964 0.0
N554 N 0.3466 0.17093 0.20873 0.0
C555 C 0.35092 0.2015 0.23234 0.0
C556 C 0.34313 0.19246 0.21296 0.0
C557 C 0.35796 0.15805 0.22289 0.0
N558 N 0.36243 0.18876 0.2464 0.0
C559 C 0.3663 0.1672 0.24228 0.0
O560 O 0.36476 0.18257 0.13254 0.0
C561 C 0.37443 0.1696 0.14568 0.0
O562 O 0.36474 0.1621 0.16233 0.0
H563 H 0.33461 0.20256 0.2012 0.0
H564 H 0.36127 0.14122 0.21852 0.0
C565 C 0.31007 0.1964 0.08698 0.0
C566 C 0.30499 0.18612 0.06688 0.0
C567 C 0.325 0.15478 0.07809 0.0
C568 C 0.33002 0.16491 0.0978 0.0
N569 N 0.32287 0.18557 0.10184 0.0
N570 N 0.3128 0.16562 0.06312 0.0
H571 H 0.3044 0.2128 0.09049 0.0
C572 C 0.32465 0.12032 0.16254 0.0
O573 O 0.31753 0.13423 0.14778 0.0
O574 O 0.34038 0.22944 0.12777 0.0
H575 H 0.33986 0.15641 0.10979 0.0
H576 H 0.34823 0.2186 0.236 0.0
H577 H 0.33084 0.13843 0.07464 0.0
Zn578 Zn 0.33772 0.85077 0.33038 0.0
C579 C 0.29108 0.81276 0.35743 0.0
N580 N 0.27889 0.82238 0.34182 0.0
C581 C 0.29314 0.83606 0.33233 0.0
N582 N 0.31315 0.83468 0.34141 0.0
N583 N 0.31197 0.82015 0.35753 0.0
C584 C 0.35272 0.77251 0.36861 0.0
O585 O 0.36002 0.78483 0.35258 0.0
O586 O 0.33175 0.88311 0.33007 0.0
Zn587 Zn 0.33365 0.81352 0.38059 0.0
N588 N 0.34626 0.83972 0.3022 0.0
C589 C 0.35106 0.80895 0.27896 0.0
C590 C 0.34317 0.81807 0.29826 0.0
C591 C 0.35735 0.85262 0.28787 0.0
N592 N 0.36225 0.82173 0.26469 0.0
C593 C 0.36575 0.8434 0.26853 0.0
O594 O 0.36424 0.82783 0.37788 0.0
C595 C 0.37381 0.84126 0.36514 0.0
O596 O 0.36411 0.84903 0.34862 0.0
H597 H 0.33484 0.80797 0.31016 0.0
H598 H 0.36036 0.86955 0.29205 0.0
C599 C 0.31002 0.81405 0.42352 0.0
C600 C 0.30484 0.82461 0.44345 0.0
C601 C 0.32373 0.8563 0.43134 0.0
C602 C 0.32887 0.8459 0.4118 0.0
N603 N 0.32232 0.82494 0.40829 0.0
N604 N 0.31203 0.84543 0.44668 0.0
H605 H 0.30483 0.79741 0.42043 0.0
C606 C 0.32369 0.89074 0.34765 0.0
O607 O 0.31618 0.87697 0.36234 0.0
O608 O 0.33976 0.78092 0.38261 0.0
H609 H 0.33832 0.85441 0.39953 0.0
H610 H 0.34867 0.79176 0.27551 0.0
H611 H 0.32909 0.8729 0.43436 0.0
Zn612 Zn 0.06331 0.42643 0.87985 0.0
C613 C 0.08713 0.4673 0.92733 0.0
N614 N 0.07419 0.4818 0.91717 0.0
C615 C 0.06397 0.46947 0.90206 0.0
N616 N 0.07041 0.44827 0.90277 0.0
N617 N 0.08479 0.447 0.91904 0.0
C618 C 0.14079 0.43548 0.91354 0.0
O619 O 0.12726 0.44313 0.8987 0.0
O620 O 0.03068 0.4202 0.87831 0.0
Zn621 Zn 0.10042 0.42209 0.93014 0.0
N622 N 0.07431 0.43777 0.85197 0.0
C623 C 0.1054 0.43634 0.82855 0.0
C624 C 0.09521 0.43119 0.8482 0.0
C625 C 0.06328 0.45015 0.83691 0.0
N626 N 0.09437 0.44812 0.81338 0.0
C627 C 0.07362 0.45536 0.81688 0.0
O628 O 0.09875 0.39619 0.91142 0.0
C629 C 0.09118 0.38637 0.89491 0.0
O630 O 0.07767 0.39576 0.88213 0.0
H631 H 0.10387 0.42172 0.86037 0.0
H632 H 0.04669 0.45539 0.84021 0.0
C633 C 0.10152 0.40186 0.97233 0.0
C634 C 0.09197 0.39251 0.99105 0.0
C635 C 0.05724 0.40563 0.97949 0.0
C636 C 0.06673 0.41445 0.96077 0.0
N637 N 0.08866 0.4126 0.9577 0.0
N638 N 0.07 0.39477 0.99404 0.0
H639 H 0.11874 0.3998 0.96879 0.0
C640 C 0.02248 0.4074 0.89258 0.0
O641 O 0.03498 0.40046 0.90863 0.0
O642 O 0.13288 0.42752 0.93106 0.0
H643 H 0.05672 0.42255 0.94863 0.0
H644 H 0.12194 0.43096 0.82532 0.0
H645 H 0.03982 0.40704 0.98225 0.0
Zn646 Zn 0.67157 0.66043 0.32993 0.0
C647 C 0.71851 0.6981 0.35689 0.0
N648 N 0.73035 0.68903 0.34068 0.0
C649 C 0.71588 0.67561 0.33116 0.0
N650 N 0.69613 0.67659 0.34081 0.0
N651 N 0.69764 0.69068 0.35729 0.0
C652 C 0.6578 0.73818 0.36812 0.0
O653 O 0.65141 0.72595 0.35165 0.0
O654 O 0.67746 0.62805 0.32983 0.0
Zn655 Zn 0.6762 0.69714 0.38059 0.0
N656 N 0.663 0.67132 0.3017 0.0
C657 C 0.65829 0.70202 0.27835 0.0
C658 C 0.66625 0.69292 0.29762 0.0
C659 C 0.6517 0.65844 0.28751 0.0
N660 N 0.64684 0.68928 0.26424 0.0
C661 C 0.6432 0.66766 0.26822 0.0
O662 O 0.64556 0.68298 0.37794 0.0
C663 C 0.63578 0.66994 0.36495 0.0
O664 O 0.64531 0.66237 0.34825 0.0
H665 H 0.67475 0.70301 0.30941 0.0
H666 H 0.64858 0.64155 0.29177 0.0
C667 C 0.69998 0.6962 0.42344 0.0
C668 C 0.70546 0.68529 0.44311 0.0
C669 C 0.68688 0.65361 0.43043 0.0
C670 C 0.68144 0.66437 0.41118 0.0
N671 N 0.68773 0.68546 0.40807 0.0
N672 N 0.69858 0.6643 0.4459 0.0
H673 H 0.70489 0.71298 0.42065 0.0
C674 C 0.68525 0.62053 0.34759 0.0
O675 O 0.69255 0.63441 0.36228 0.0
O676 O 0.67007 0.72974 0.3827 0.0
H677 H 0.67198 0.65601 0.3988 0.0
H678 H 0.6608 0.71917 0.2748 0.0
H679 H 0.68177 0.63688 0.43314 0.0
Zn680 Zn 0.41028 0.58824 0.43005 0.0
C681 C 0.44809 0.54148 0.40297 0.0
N682 N 0.43902 0.52956 0.41911 0.0
C683 C 0.42549 0.54393 0.42863 0.0
N684 N 0.42641 0.56372 0.41903 0.0
N685 N 0.44053 0.5623 0.40258 0.0
C686 C 0.48773 0.60277 0.39131 0.0
O687 O 0.47549 0.60976 0.40753 0.0
O688 O 0.37796 0.58218 0.43057 0.0
Zn689 Zn 0.44678 0.58381 0.37931 0.0
N690 N 0.42138 0.59678 0.45821 0.0
C691 C 0.45207 0.60124 0.48163 0.0
C692 C 0.44297 0.59345 0.46228 0.0
C693 C 0.40851 0.60799 0.47248 0.0
N694 N 0.43932 0.61255 0.49585 0.0
C695 C 0.4177 0.61626 0.49189 0.0
O696 O 0.43239 0.61437 0.38198 0.0
C697 C 0.41931 0.6241 0.39496 0.0
O698 O 0.41186 0.61456 0.41172 0.0
H699 H 0.45304 0.58501 0.45044 0.0
H700 H 0.39164 0.61115 0.4682 0.0
C701 C 0.4463 0.55993 0.33661 0.0
C702 C 0.43578 0.55454 0.31674 0.0
C703 C 0.40394 0.57324 0.32874 0.0
C704 C 0.41432 0.5786 0.34823 0.0
N705 N 0.43532 0.57223 0.35177 0.0
N706 N 0.41491 0.56153 0.31347 0.0
H707 H 0.463 0.55491 0.33972 0.0
C708 C 0.37022 0.57409 0.41305 0.0
O709 O 0.38389 0.56663 0.39825 0.0
O710 O 0.4793 0.59002 0.37714 0.0
H711 H 0.40575 0.58808 0.36045 0.0
H712 H 0.46921 0.59867 0.48518 0.0
H713 H 0.3873 0.57844 0.32569 0.0
Zn714 Zn 0.17595 0.81337 0.6298 0.0
C715 C 0.21698 0.8363 0.67749 0.0
N716 N 0.23117 0.82261 0.66794 0.0
C717 C 0.21886 0.81289 0.65247 0.0
N718 N 0.19795 0.82024 0.65254 0.0
N719 N 0.19689 0.83482 0.66861 0.0
C720 C 0.18516 0.89058 0.66198 0.0
O721 O 0.19188 0.8766 0.6471 0.0
O722 O 0.16974 0.78075 0.62818 0.0
Zn723 Zn 0.17235 0.85075 0.67997 0.0
N724 N 0.1869 0.82444 0.60178 0.0
C725 C 0.18437 0.855 0.57776 0.0
C726 C 0.17954 0.845 0.59759 0.0
C727 C 0.19973 0.8136 0.58696 0.0
N728 N 0.19661 0.84415 0.56283 0.0
C729 C 0.20461 0.82376 0.56675 0.0
O730 O 0.14581 0.84877 0.66206 0.0
C731 C 0.13589 0.84099 0.64568 0.0
O732 O 0.14532 0.82763 0.63276 0.0
H733 H 0.16972 0.85354 0.60956 0.0
H734 H 0.20558 0.79729 0.59059 0.0
C735 C 0.15268 0.85209 0.72253 0.0
C736 C 0.14436 0.84255 0.74174 0.0
C737 C 0.15987 0.8085 0.73119 0.0
C738 C 0.16764 0.81792 0.71199 0.0
N739 N 0.16413 0.83952 0.70817 0.0
N740 N 0.14832 0.82094 0.74548 0.0
H741 H 0.14929 0.86897 0.71844 0.0
C742 C 0.15729 0.7724 0.64267 0.0
O743 O 0.15068 0.78473 0.65898 0.0
O744 O 0.17802 0.88317 0.68005 0.0
H745 H 0.1762 0.80806 0.70005 0.0
H746 H 0.17838 0.87127 0.5742 0.0
H747 H 0.16262 0.79134 0.73454 0.0
Zn748 Zn 0.0631 0.58407 0.63048 0.0
C749 C 0.08479 0.54412 0.58131 0.0
N750 N 0.07157 0.52961 0.59106 0.0
C751 C 0.06239 0.54154 0.60714 0.0
N752 N 0.0696 0.56249 0.60729 0.0
N753 N 0.08359 0.56398 0.59072 0.0
C754 C 0.13966 0.57468 0.59627 0.0
O755 O 0.12609 0.56709 0.61109 0.0
O756 O 0.03048 0.59015 0.63241 0.0
Zn757 Zn 0.09941 0.58862 0.57955 0.0
N758 N 0.07441 0.57254 0.65813 0.0
C759 C 0.10568 0.5737 0.68132 0.0
C760 C 0.09536 0.57904 0.66179 0.0
C761 C 0.06345 0.56011 0.67319 0.0
N762 N 0.09472 0.56187 0.6965 0.0
C763 C 0.07392 0.55473 0.69311 0.0
O764 O 0.09774 0.61481 0.59798 0.0
C765 C 0.09042 0.62441 0.61476 0.0
O766 O 0.07746 0.61472 0.62789 0.0
H767 H 0.10393 0.5886 0.64963 0.0
H768 H 0.04682 0.55497 0.66999 0.0
C769 C 0.10058 0.6086 0.53719 0.0
C770 C 0.09106 0.61707 0.51803 0.0
C771 C 0.05689 0.60188 0.52868 0.0
C772 C 0.06631 0.59393 0.54781 0.0
N773 N 0.08796 0.59724 0.55156 0.0
N774 N 0.06939 0.61335 0.51438 0.0
H775 H 0.11752 0.61177 0.54122 0.0
C776 C 0.02214 0.60323 0.61848 0.0
O777 O 0.03455 0.61075 0.60263 0.0
O778 O 0.1318 0.58283 0.57882 0.0
H779 H 0.05644 0.58538 0.55975 0.0
H780 H 0.12226 0.57901 0.68447 0.0
H781 H 0.0397 0.59932 0.52539 0.0
Zn782 Zn 0.94699 0.92684 0.63044 0.0
C783 C 0.92364 0.96719 0.58234 0.0
N784 N 0.93652 0.98177 0.59244 0.0
C785 C 0.94651 0.96958 0.60782 0.0
N786 N 0.94 0.94842 0.60733 0.0
N787 N 0.92576 0.947 0.59095 0.0
C788 C 0.86958 0.93601 0.59659 0.0
O789 O 0.8831 0.94369 0.61143 0.0
O790 O 0.97959 0.92051 0.63199 0.0
Zn791 Zn 0.90989 0.9221 0.58019 0.0
N792 N 0.93608 0.93857 0.65816 0.0
C793 C 0.90486 0.93799 0.68143 0.0
C794 C 0.91503 0.93246 0.66187 0.0
C795 C 0.94731 0.9508 0.67319 0.0
N796 N 0.91606 0.94963 0.69657 0.0
C797 C 0.93698 0.95638 0.69312 0.0
O798 O 0.91122 0.89637 0.59927 0.0
C799 C 0.91876 0.88679 0.61596 0.0
O800 O 0.9324 0.8963 0.6285 0.0
H801 H 0.90624 0.92308 0.64973 0.0
H802 H 0.96402 0.95566 0.66994 0.0
C803 C 0.90825 0.90185 0.53809 0.0
C804 C 0.91746 0.89252 0.5192 0.0
C805 C 0.95248 0.90515 0.53044 0.0
C806 C 0.94331 0.91399 0.54931 0.0
N807 N 0.9214 0.91237 0.55262 0.0
N808 N 0.93943 0.89452 0.51597 0.0
H809 H 0.89105 0.90002 0.54181 0.0
C810 C 0.98771 0.90751 0.61785 0.0
O811 O 0.97514 0.90042 0.60192 0.0
O812 O 0.87751 0.92789 0.57916 0.0
H813 H 0.95354 0.92195 0.56136 0.0
H814 H 0.88818 0.93299 0.68461 0.0
H815 H 0.96988 0.90636 0.52749 0.0
Zn816 Zn 0.62964 0.83364 0.69686 0.0
C817 C 0.67785 0.79326 0.67391 0.0
N818 N 0.66788 0.77875 0.68696 0.0
C819 C 0.65241 0.79093 0.69681 0.0
N820 N 0.65274 0.81202 0.69005 0.0
N821 N 0.66911 0.81341 0.67581 0.0
C822 C 0.66273 0.82485 0.61985 0.0
O823 O 0.64781 0.81782 0.63363 0.0
O824 O 0.6278 0.83963 0.72947 0.0
Zn825 Zn 0.67994 0.83822 0.65984 0.0
N826 N 0.60188 0.82224 0.68563 0.0
C827 C 0.57829 0.82406 0.6547 0.0
C828 C 0.59795 0.82918 0.66487 0.0
C829 C 0.58697 0.80955 0.6965 0.0
N830 N 0.56327 0.81196 0.66558 0.0
C831 C 0.56693 0.80437 0.68617 0.0
O832 O 0.66121 0.86422 0.66141 0.0
C833 C 0.64462 0.87386 0.66909 0.0
O834 O 0.63198 0.86431 0.68262 0.0
H835 H 0.60999 0.83891 0.65633 0.0
H836 H 0.5904 0.80404 0.71297 0.0
C837 C 0.72224 0.85817 0.65789 0.0
C838 C 0.74124 0.86738 0.66704 0.0
C839 C 0.73022 0.8545 0.70204 0.0
C840 C 0.71123 0.84583 0.69295 0.0
N841 N 0.70776 0.84762 0.67108 0.0
N842 N 0.74463 0.86517 0.68896 0.0
H843 H 0.71839 0.86018 0.64074 0.0
C844 C 0.64171 0.85274 0.7378 0.0
O845 O 0.65757 0.86025 0.72539 0.0
O846 O 0.68055 0.83237 0.62749 0.0
H847 H 0.69921 0.83788 0.70322 0.0
H848 H 0.57493 0.82973 0.63827 0.0
H849 H 0.73331 0.85313 0.7194 0.0
Zn850 Zn 0.08316 0.13042 0.5628 0.0
C851 C 0.04259 0.08284 0.5868 0.0
N852 N 0.02795 0.09301 0.57406 0.0
C853 C 0.04018 0.10808 0.56364 0.0
N854 N 0.06145 0.10736 0.56984 0.0
N855 N 0.06287 0.0911 0.58421 0.0
C856 C 0.07447 0.09591 0.64018 0.0
O857 O 0.06699 0.11097 0.6268 0.0
O858 O 0.08978 0.13203 0.53025 0.0
Zn859 Zn 0.08789 0.07996 0.59966 0.0
N860 N 0.07154 0.15824 0.57367 0.0
C861 C 0.07229 0.18151 0.6049 0.0
C862 C 0.07767 0.16191 0.59473 0.0
C863 C 0.05943 0.17337 0.56244 0.0
N864 N 0.06077 0.19675 0.59369 0.0
C865 C 0.054 0.19335 0.57277 0.0
O866 O 0.11367 0.09897 0.59844 0.0
C867 C 0.12319 0.11572 0.59099 0.0
O868 O 0.11362 0.12837 0.57748 0.0
H869 H 0.08695 0.14969 0.60352 0.0
H870 H 0.05456 0.17016 0.54573 0.0
C871 C 0.1084 0.03791 0.60018 0.0
C872 C 0.11756 0.01919 0.59045 0.0
C873 C 0.10389 0.03085 0.55596 0.0
C874 C 0.09521 0.04954 0.56563 0.0
N875 N 0.09744 0.05257 0.58753 0.0
N876 N 0.11494 0.01625 0.56851 0.0
H877 H 0.1107 0.04141 0.61737 0.0
C878 C 0.10299 0.11803 0.52223 0.0
O879 O 0.11017 0.10218 0.53483 0.0
O880 O 0.08234 0.07844 0.63207 0.0
H881 H 0.08691 0.06168 0.55579 0.0
H882 H 0.07732 0.18465 0.62157 0.0
H883 H 0.1022 0.02812 0.53856 0.0
Zn884 Zn 0.32975 0.67177 0.65993 0.0
C885 C 0.35659 0.71826 0.69824 0.0
N886 N 0.34015 0.73006 0.68954 0.0
C887 C 0.33075 0.71577 0.67586 0.0
N888 N 0.34067 0.69613 0.67636 0.0
N889 N 0.35721 0.69754 0.69039 0.0
C890 C 0.36859 0.65696 0.73774 0.0
O891 O 0.35244 0.64976 0.72553 0.0
O892 O 0.33022 0.67785 0.62762 0.0
Zn893 Zn 0.38042 0.67591 0.69665 0.0
N894 N 0.30117 0.66365 0.67025 0.0
C895 C 0.2769 0.65968 0.70033 0.0
C896 C 0.29655 0.66723 0.69168 0.0
C897 C 0.28715 0.65243 0.65711 0.0
N898 N 0.26296 0.64832 0.68733 0.0
C899 C 0.26747 0.64436 0.66587 0.0
O900 O 0.37743 0.64524 0.68249 0.0
C901 C 0.36426 0.63551 0.6696 0.0
O902 O 0.34763 0.64518 0.66203 0.0
H903 H 0.30819 0.67564 0.702 0.0
H904 H 0.29183 0.64905 0.64038 0.0
C905 C 0.423 0.69995 0.69594 0.0
C906 C 0.44308 0.70501 0.68562 0.0
C907 C 0.43175 0.68505 0.6543 0.0
C908 C 0.41207 0.68003 0.66448 0.0
N909 N 0.4081 0.68718 0.68516 0.0
N910 N 0.44677 0.69723 0.6651 0.0
H911 H 0.41956 0.70558 0.71237 0.0
C912 C 0.34816 0.68546 0.62037 0.0
O913 O 0.36282 0.69242 0.63446 0.0
O914 O 0.38263 0.66983 0.72924 0.0
H915 H 0.40006 0.67018 0.65604 0.0
H916 H 0.27292 0.66245 0.71734 0.0
H917 H 0.43514 0.67922 0.63794 0.0
Zn918 Zn 0.92627 0.38045 0.56282 0.0
C919 C 0.96694 0.42795 0.58678 0.0
N920 N 0.98145 0.41788 0.5738 0.0
C921 C 0.96914 0.40276 0.56356 0.0
N922 N 0.94796 0.40339 0.57003 0.0
N923 N 0.94666 0.4196 0.58447 0.0
C924 C 0.93569 0.41384 0.64059 0.0
O925 O 0.94321 0.39897 0.62702 0.0
O926 O 0.92003 0.37917 0.53019 0.0
Zn927 Zn 0.92179 0.43042 0.60036 0.0
N928 N 0.93782 0.35255 0.57356 0.0
C929 C 0.93684 0.32901 0.60458 0.0
C930 C 0.9315 0.34868 0.59453 0.0
C931 C 0.95011 0.33756 0.56233 0.0
N932 N 0.94854 0.31392 0.59336 0.0
C933 C 0.95551 0.31752 0.57255 0.0
O934 O 0.89596 0.41148 0.5989 0.0
C935 C 0.8863 0.39493 0.59117 0.0
O936 O 0.89573 0.38248 0.57738 0.0
H937 H 0.92209 0.36079 0.60333 0.0
H938 H 0.95515 0.34094 0.5457 0.0
C939 C 0.90171 0.4726 0.60229 0.0
C940 C 0.89235 0.49155 0.59321 0.0
C941 C 0.90476 0.48044 0.55808 0.0
C942 C 0.91362 0.46151 0.56711 0.0
N943 N 0.91212 0.4581 0.58901 0.0
N944 N 0.89424 0.49487 0.57126 0.0
H945 H 0.89997 0.46881 0.61948 0.0
C946 C 0.90696 0.39327 0.52211 0.0
O947 O 0.89957 0.40899 0.53477 0.0
O948 O 0.92763 0.43132 0.63272 0.0
H949 H 0.92149 0.44948 0.55679 0.0
H950 H 0.93166 0.3257 0.62117 0.0
H951 H 0.90588 0.48347 0.54069 0.0
Zn952 Zn 0.63012 0.17636 0.81285 0.0
C953 C 0.6772 0.21728 0.83731 0.0
N954 N 0.66695 0.23182 0.82451 0.0
C955 C 0.65196 0.21947 0.81413 0.0
N956 N 0.65283 0.19823 0.82036 0.0
N957 N 0.66908 0.19693 0.83476 0.0
C958 C 0.6636 0.18488 0.89059 0.0
O959 O 0.64854 0.19205 0.87702 0.0
O960 O 0.62904 0.17022 0.78018 0.0
Zn961 Zn 0.68016 0.17191 0.85026 0.0
N962 N 0.60201 0.18755 0.82344 0.0
C963 C 0.5778 0.18549 0.85388 0.0
C964 C 0.59771 0.18055 0.8441 0.0
C965 C 0.58723 0.20016 0.81229 0.0
N966 N 0.56292 0.19751 0.84273 0.0
C967 C 0.56694 0.20519 0.82223 0.0
O968 O 0.66125 0.14607 0.8488 0.0
C969 C 0.64473 0.13636 0.84106 0.0
O970 O 0.63227 0.14577 0.82727 0.0
H971 H 0.60965 0.17093 0.85289 0.0
H972 H 0.59096 0.20575 0.79591 0.0
C973 C 0.72223 0.15147 0.85117 0.0
C974 C 0.74093 0.14213 0.84159 0.0
C975 C 0.72939 0.15542 0.80691 0.0
C976 C 0.7107 0.16425 0.81644 0.0
N977 N 0.70763 0.16231 0.83836 0.0
N978 N 0.74393 0.14447 0.81962 0.0
H979 H 0.71869 0.14937 0.86838 0.0
C980 C 0.64308 0.15708 0.77213 0.0
O981 O 0.6587 0.14958 0.78484 0.0
O982 O 0.68132 0.17738 0.88269 0.0
H983 H 0.69858 0.17244 0.80647 0.0
H984 H 0.57415 0.17977 0.87022 0.0
H985 H 0.73216 0.15689 0.7895 0.0
Zn986 Zn 0.4222 0.07987 0.41006 0.0
C987 C 0.46938 0.10794 0.44669 0.0
N988 N 0.48165 0.09251 0.43689 0.0
C989 C 0.46717 0.0823 0.42399 0.0
N990 N 0.44696 0.0909 0.42591 0.0
N991 N 0.44825 0.10738 0.44005 0.0
C992 C 0.40747 0.11886 0.4874 0.0
O993 O 0.40075 0.10251 0.47517 0.0
O994 O 0.42799 0.07871 0.37768 0.0
Zn995 Zn 0.42664 0.13067 0.44647 0.0
N996 N 0.41267 0.05229 0.42173 0.0
C997 C 0.40586 0.03009 0.45288 0.0
C998 C 0.41462 0.04894 0.4436 0.0
C999 C 0.40188 0.03783 0.40873 0.0
N1000 N 0.39498 0.01567 0.43998 0.0
C1001 C 0.39262 0.01895 0.41806 0.0
O1002 O 0.39606 0.12834 0.43198 0.0
C1003 C 0.38661 0.11543 0.41864 0.0
O1004 O 0.39632 0.09871 0.41135 0.0
H1005 H 0.42276 0.06096 0.45373 0.0
H1006 H 0.39976 0.04161 0.39158 0.0
C1007 C 0.45046 0.17353 0.44567 0.0
C1008 C 0.45617 0.1931 0.43471 0.0
C1009 C 0.43817 0.18017 0.40279 0.0
C1010 C 0.43252 0.16101 0.4136 0.0
N1011 N 0.43839 0.15808 0.43484 0.0
N1012 N 0.44968 0.19572 0.41357 0.0
H1013 H 0.45506 0.17086 0.46256 0.0
C1014 C 0.43585 0.09622 0.36969 0.0
O1015 O 0.44336 0.11118 0.38316 0.0
O1016 O 0.42027 0.13303 0.47902 0.0
H1017 H 0.42323 0.14855 0.40517 0.0
H1018 H 0.40734 0.0271 0.47025 0.0
H1019 H 0.43338 0.18274 0.38595 0.0
Zn1020 Zn 0.38054 0.33372 0.81285 0.0
C1021 C 0.33325 0.29281 0.83679 0.0
N1022 N 0.34333 0.27841 0.82368 0.0
C1023 C 0.3584 0.29081 0.81349 0.0
N1024 N 0.35772 0.31194 0.8201 0.0
N1025 N 0.34153 0.31314 0.83456 0.0
C1026 C 0.34737 0.3246 0.89053 0.0
O1027 O 0.36238 0.3175 0.87687 0.0
O1028 O 0.38187 0.33967 0.78019 0.0
Zn1029 Zn 0.33061 0.33802 0.85039 0.0
N1030 N 0.40853 0.32237 0.82359 0.0
C1031 C 0.43257 0.32413 0.85418 0.0
C1032 C 0.41274 0.32922 0.84432 0.0
C1033 C 0.42331 0.30976 0.81244 0.0
N1034 N 0.44747 0.31211 0.84303 0.0
C1035 C 0.44352 0.30459 0.82246 0.0
O1036 O 0.34953 0.36387 0.84897 0.0
C1037 C 0.366 0.37364 0.8412 0.0
O1038 O 0.37841 0.36431 0.8273 0.0
H1039 H 0.4008 0.33886 0.85309 0.0
H1040 H 0.41965 0.3043 0.796 0.0
C1041 C 0.28838 0.35812 0.85206 0.0
C1042 C 0.26951 0.36751 0.84284 0.0
C1043 C 0.28095 0.35519 0.80777 0.0
C1044 C 0.2998 0.34631 0.81695 0.0
N1045 N 0.303 0.34774 0.83889 0.0
N1046 N 0.26639 0.36567 0.82084 0.0
H1047 H 0.29202 0.35982 0.86929 0.0
C1048 C 0.36826 0.3532 0.77204 0.0
O1049 O 0.35293 0.36136 0.7847 0.0
O1050 O 0.32965 0.33221 0.88274 0.0
H1051 H 0.31192 0.33848 0.80671 0.0
H1052 H 0.43616 0.32973 0.87057 0.0
H1053 H 0.27807 0.35411 0.79035 0.0
Zn1054 Zn 0.58898 0.43068 0.41028 0.0
C1055 C 0.54124 0.40274 0.44636 0.0
N1056 N 0.52904 0.41795 0.43612 0.0
C1057 C 0.54368 0.42812 0.42338 0.0
N1058 N 0.56393 0.41973 0.42581 0.0
N1059 N 0.56248 0.4034 0.4401 0.0
C1060 C 0.60346 0.39268 0.48781 0.0
O1061 O 0.6107 0.40857 0.47528 0.0
O1062 O 0.58341 0.43215 0.37787 0.0
Zn1063 Zn 0.58403 0.38024 0.44708 0.0
N1064 N 0.59877 0.45802 0.42233 0.0
C1065 C 0.60556 0.47965 0.45389 0.0
C1066 C 0.59674 0.46101 0.44426 0.0
C1067 C 0.60962 0.47269 0.40961 0.0
N1068 N 0.61652 0.49426 0.44128 0.0
C1069 C 0.61891 0.49138 0.41931 0.0
O1070 O 0.61454 0.38205 0.43243 0.0
C1071 C 0.62409 0.39465 0.41885 0.0
O1072 O 0.61459 0.41145 0.41146 0.0
H1073 H 0.5885 0.44886 0.45414 0.0
H1074 H 0.61174 0.46925 0.39239 0.0
C1075 C 0.5599 0.33759 0.44755 0.0
C1076 C 0.55406 0.31774 0.43722 0.0
C1077 C 0.57227 0.32934 0.40497 0.0
C1078 C 0.57806 0.34883 0.41514 0.0
N1079 N 0.57214 0.35255 0.43625 0.0
N1080 N 0.56057 0.31427 0.41624 0.0
H1081 H 0.55519 0.34086 0.4643 0.0
C1082 C 0.57558 0.41464 0.36982 0.0
O1083 O 0.56806 0.39964 0.38324 0.0
O1084 O 0.59038 0.37864 0.47966 0.0
H1085 H 0.58746 0.36091 0.4063 0.0
H1086 H 0.60404 0.48234 0.47131 0.0
H1087 H 0.57709 0.32615 0.38825 0.0
Zn1088 Zn 0.66028 0.6803 0.83854 0.0
C1089 C 0.69652 0.65233 0.79097 0.0
N1090 N 0.68657 0.66773 0.77878 0.0
C1091 C 0.67377 0.67792 0.79336 0.0
N1092 N 0.6759 0.66933 0.81357 0.0
N1093 N 0.69006 0.65289 0.81214 0.0
C1094 C 0.73774 0.64145 0.85315 0.0
O1095 O 0.72529 0.6572 0.86083 0.0
O1096 O 0.62789 0.68176 0.83292 0.0
Zn1097 Zn 0.69684 0.62966 0.83366 0.0
N1098 N 0.6723 0.70771 0.8482 0.0
C1099 C 0.70383 0.72943 0.85485 0.0
C1100 C 0.69421 0.71075 0.84609 0.0
C1101 C 0.65959 0.72235 0.85911 0.0
N1102 N 0.69122 0.744 0.86586 0.0
C1103 C 0.66927 0.74106 0.86835 0.0
O1104 O 0.68234 0.63171 0.86424 0.0
C1105 C 0.66886 0.6444 0.8738 0.0
O1106 O 0.66148 0.66119 0.86428 0.0
H1107 H 0.7041 0.69862 0.83783 0.0
H1108 H 0.64239 0.71884 0.86131 0.0
C1109 C 0.69663 0.58687 0.80972 0.0
C1110 C 0.68603 0.56707 0.80414 0.0
C1111 C 0.65403 0.57926 0.82243 0.0
C1112 C 0.66446 0.59867 0.82796 0.0
N1113 N 0.68559 0.60207 0.8219 0.0
N1114 N 0.66504 0.56393 0.81084 0.0
H1115 H 0.7134 0.58987 0.80491 0.0
C1116 C 0.61974 0.66451 0.82463 0.0
O1117 O 0.63307 0.64963 0.81669 0.0
O1118 O 0.72946 0.62773 0.83981 0.0
H1119 H 0.65583 0.61095 0.8373 0.0
H1120 H 0.72124 0.73216 0.85325 0.0
H1121 H 0.6373 0.57632 0.82739 0.0
Zn1122 Zn 0.87926 0.06308 0.42603 0.0
C1123 C 0.92824 0.08516 0.46602 0.0
N1124 N 0.91847 0.07202 0.48057 0.0
C1125 C 0.90245 0.0627 0.46866 0.0
N1126 N 0.90237 0.06975 0.44766 0.0
N1127 N 0.91893 0.08375 0.44612 0.0
C1128 C 0.91277 0.13963 0.43496 0.0
O1129 O 0.89809 0.12589 0.44255 0.0
O1130 O 0.8774 0.03047 0.42011 0.0
Zn1131 Zn 0.93001 0.09953 0.42139 0.0
N1132 N 0.85157 0.07441 0.43738 0.0
C1133 C 0.82827 0.10558 0.43593 0.0
C1134 C 0.84788 0.09531 0.43076 0.0
C1135 C 0.83647 0.06344 0.44976 0.0
N1136 N 0.81306 0.09462 0.44772 0.0
C1137 C 0.81649 0.07386 0.45496 0.0
O1138 O 0.91164 0.0976 0.39522 0.0
C1139 C 0.89494 0.09016 0.38559 0.0
O1140 O 0.88182 0.07721 0.3953 0.0
H1141 H 0.86005 0.10388 0.42122 0.0
H1142 H 0.83971 0.04684 0.45499 0.0
C1143 C 0.97247 0.10096 0.40159 0.0
C1144 C 0.99152 0.09147 0.39287 0.0
C1145 C 0.98062 0.05705 0.4073 0.0
C1146 C 0.96156 0.06644 0.41545 0.0
N1147 N 0.958 0.08819 0.41267 0.0
N1148 N 0.99501 0.06969 0.39609 0.0
H1149 H 0.96856 0.11798 0.39878 0.0
C1150 C 0.89146 0.02211 0.40718 0.0
O1151 O 0.9074 0.03451 0.39983 0.0
O1152 O 0.93038 0.13197 0.42698 0.0
H1153 H 0.94953 0.05646 0.42375 0.0
H1154 H 0.8251 0.12213 0.43052 0.0
H1155 H 0.98377 0.03977 0.40946 0.0
Zn1156 Zn 0.35004 0.83019 0.83746 0.0
C1157 C 0.3142 0.85878 0.78992 0.0
N1158 N 0.32438 0.84361 0.77762 0.0
C1159 C 0.33704 0.83324 0.7922 0.0
N1160 N 0.33459 0.84146 0.81251 0.0
N1161 N 0.32042 0.85791 0.81117 0.0
C1162 C 0.27263 0.86823 0.85211 0.0
O1163 O 0.28509 0.85213 0.85899 0.0
O1164 O 0.38245 0.8289 0.83193 0.0
Zn1165 Zn 0.31344 0.88085 0.83304 0.0
N1166 N 0.33814 0.80269 0.84695 0.0
C1167 C 0.3068 0.78082 0.85399 0.0
C1168 C 0.31619 0.79964 0.84526 0.0
C1169 C 0.3511 0.78797 0.85745 0.0
N1170 N 0.31966 0.76615 0.86458 0.0
C1171 C 0.34165 0.76913 0.86668 0.0
O1172 O 0.32778 0.87841 0.8637 0.0
C1173 C 0.34119 0.86555 0.87313 0.0
O1174 O 0.34862 0.84894 0.86336 0.0
H1175 H 0.30612 0.81184 0.83734 0.0
H1176 H 0.36832 0.79153 0.85938 0.0
C1177 C 0.31365 0.92363 0.80901 0.0
C1178 C 0.32389 0.94377 0.80398 0.0
C1179 C 0.35522 0.93263 0.82403 0.0
C1180 C 0.34515 0.91286 0.82897 0.0
N1181 N 0.3245 0.90878 0.82181 0.0
N1182 N 0.34436 0.94759 0.81183 0.0
H1183 H 0.29728 0.92007 0.8033 0.0
C1184 C 0.3905 0.84649 0.82429 0.0
O1185 O 0.37707 0.86162 0.81705 0.0
O1186 O 0.28083 0.88249 0.8393 0.0
H1187 H 0.35371 0.90087 0.83874 0.0
H1188 H 0.28937 0.77806 0.8527 0.0
H1189 H 0.37155 0.93611 0.82988 0.0
Zn1190 Zn 0.13029 0.44658 0.42629 0.0
C1191 C 0.08146 0.42469 0.46645 0.0
N1192 N 0.09082 0.43846 0.48069 0.0
C1193 C 0.10667 0.44785 0.46862 0.0
N1194 N 0.10702 0.44025 0.44781 0.0
N1195 N 0.09084 0.42579 0.44656 0.0
C1196 C 0.09698 0.3695 0.43632 0.0
O1197 O 0.11167 0.3832 0.44395 0.0
O1198 O 0.13258 0.47912 0.41995 0.0
Zn1199 Zn 0.07994 0.40952 0.42207 0.0
N1200 N 0.15773 0.43488 0.43792 0.0
C1201 C 0.17982 0.40282 0.43745 0.0
C1202 C 0.16064 0.41367 0.43192 0.0
C1203 C 0.17323 0.44565 0.44998 0.0
N1204 N 0.1954 0.41354 0.44896 0.0
C1205 C 0.19282 0.43464 0.45558 0.0
O1206 O 0.09834 0.41108 0.3958 0.0
C1207 C 0.11495 0.41875 0.38617 0.0
O1208 O 0.1277 0.43217 0.39575 0.0
H1209 H 0.14815 0.40528 0.42263 0.0
H1210 H 0.17059 0.46251 0.45467 0.0
C1211 C 0.03761 0.40769 0.40208 0.0
C1212 C 0.01841 0.41694 0.39343 0.0
C1213 C 0.0287 0.45139 0.40821 0.0
C1214 C 0.04789 0.44224 0.41635 0.0
N1215 N 0.05184 0.42059 0.41331 0.0
N1216 N 0.01455 0.43863 0.39684 0.0
H1217 H 0.04178 0.39075 0.39914 0.0
C1218 C 0.11809 0.48758 0.40757 0.0
O1219 O 0.10157 0.4754 0.40119 0.0
O1220 O 0.07947 0.37721 0.42817 0.0
H1221 H 0.05971 0.45233 0.4248 0.0
H1222 H 0.18236 0.386 0.43257 0.0
H1223 H 0.02525 0.46859 0.41054 0.0
Zn1224 Zn 0.69671 0.38014 0.67632 0.0
C1225 C 0.67453 0.33175 0.71693 0.0
N1226 N 0.68842 0.34109 0.73107 0.0
C1227 C 0.69776 0.3569 0.71891 0.0
N1228 N 0.69005 0.35722 0.69815 0.0
N1229 N 0.67553 0.34109 0.69703 0.0
C1230 C 0.61961 0.34887 0.6859 0.0
O1231 O 0.63378 0.36363 0.69247 0.0
O1232 O 0.72935 0.38201 0.6703 0.0
Zn1233 Zn 0.65907 0.33011 0.6727 0.0
N1234 N 0.68545 0.40802 0.68738 0.0
C1235 C 0.65463 0.43174 0.68522 0.0
C1236 C 0.66475 0.41199 0.68029 0.0
C1237 C 0.69633 0.423 0.7 0.0
N1238 N 0.66552 0.44682 0.69724 0.0
C1239 C 0.68607 0.44313 0.70495 0.0
O1240 O 0.66129 0.3479 0.64606 0.0
C1241 C 0.66919 0.36425 0.63618 0.0
O1242 O 0.68252 0.37715 0.64568 0.0
H1243 H 0.65623 0.39993 0.67058 0.0
H1244 H 0.71277 0.41955 0.7056 0.0
C1245 C 0.65594 0.28744 0.65357 0.0
C1246 C 0.66461 0.26781 0.64527 0.0
C1247 C 0.69935 0.27733 0.6599 0.0
C1248 C 0.69078 0.29695 0.66764 0.0
N1249 N 0.66926 0.30149 0.66454 0.0
N1250 N 0.68616 0.26336 0.64878 0.0
H1251 H 0.63913 0.29206 0.65053 0.0
C1252 C 0.73771 0.36813 0.65718 0.0
O1253 O 0.72531 0.3523 0.64959 0.0
O1254 O 0.62677 0.3307 0.67876 0.0
H1255 H 0.70124 0.30863 0.67585 0.0
H1256 H 0.63825 0.43512 0.67944 0.0
H1257 H 0.71643 0.2734 0.66231 0.0
Zn1258 Zn 0.57951 0.09979 0.58805 0.0
C1259 C 0.60831 0.06429 0.54044 0.0
N1260 N 0.59319 0.07448 0.5281 0.0
C1261 C 0.58274 0.08709 0.54267 0.0
N1262 N 0.5909 0.08461 0.56301 0.0
N1263 N 0.60734 0.07043 0.5617 0.0
C1264 C 0.61803 0.02252 0.60306 0.0
O1265 O 0.60249 0.0351 0.61094 0.0
O1266 O 0.57761 0.13224 0.58272 0.0
Zn1267 Zn 0.63018 0.06336 0.58356 0.0
N1268 N 0.55233 0.08717 0.59751 0.0
C1269 C 0.53099 0.05525 0.60352 0.0
C1270 C 0.54956 0.06526 0.59497 0.0
C1271 C 0.53755 0.09948 0.60866 0.0
N1272 N 0.51625 0.06747 0.61474 0.0
C1273 C 0.51894 0.08941 0.61767 0.0
O1274 O 0.62798 0.07788 0.61416 0.0
C1275 C 0.61519 0.09137 0.62355 0.0
O1276 O 0.59849 0.09868 0.61384 0.0
H1277 H 0.56181 0.05569 0.58652 0.0
H1278 H 0.54088 0.11667 0.61121 0.0
C1279 C 0.67301 0.06319 0.55977 0.0
C1280 C 0.69303 0.07347 0.55444 0.0
C1281 C 0.68151 0.10535 0.57336 0.0
C1282 C 0.66186 0.09524 0.57863 0.0
N1283 N 0.65802 0.07431 0.57216 0.0
N1284 N 0.69661 0.09425 0.56157 0.0
H1285 H 0.66964 0.0466 0.55461 0.0
C1286 C 0.59485 0.14062 0.57462 0.0
O1287 O 0.60993 0.12748 0.56676 0.0
O1288 O 0.63173 0.03071 0.58964 0.0
H1289 H 0.64974 0.10396 0.58809 0.0
H1290 H 0.52847 0.03785 0.60158 0.0
H1291 H 0.6848 0.12191 0.57866 0.0
Zn1292 Zn 0.35068 0.18033 0.67259 0.0
C1293 C 0.3105 0.15365 0.71755 0.0
N1294 N 0.31884 0.17003 0.72968 0.0
C1295 C 0.3336 0.17898 0.71618 0.0
N1296 N 0.33395 0.16894 0.69659 0.0
N1297 N 0.31946 0.15276 0.69731 0.0
C1298 C 0.27213 0.14208 0.6564 0.0
O1299 O 0.28431 0.15826 0.6492 0.0
O1300 O 0.38294 0.17873 0.67859 0.0
Zn1301 Zn 0.3133 0.13006 0.67519 0.0
N1302 N 0.34108 0.20957 0.66582 0.0
C1303 C 0.31195 0.23531 0.66487 0.0
C1304 C 0.3203 0.21516 0.67138 0.0
C1305 C 0.35383 0.22317 0.65365 0.0
N1306 N 0.32451 0.24878 0.65251 0.0
C1307 C 0.34529 0.24333 0.64659 0.0
O1308 O 0.32738 0.13401 0.64465 0.0
C1309 C 0.3403 0.14731 0.63514 0.0
O1310 O 0.34818 0.1636 0.64518 0.0
H1311 H 0.31016 0.20387 0.68045 0.0
H1312 H 0.36998 0.21783 0.64874 0.0
C1313 C 0.31418 0.08726 0.69884 0.0
C1314 C 0.32425 0.0669 0.70332 0.0
C1315 C 0.35492 0.07766 0.68206 0.0
C1316 C 0.34498 0.09761 0.67762 0.0
N1317 N 0.32474 0.10202 0.68571 0.0
N1318 N 0.34432 0.0628 0.69461 0.0
H1319 H 0.2981 0.09104 0.70521 0.0
C1320 C 0.38956 0.16002 0.6848 0.0
O1321 O 0.37495 0.14529 0.69041 0.0
O1322 O 0.2807 0.12795 0.66911 0.0
H1323 H 0.35328 0.10948 0.66749 0.0
H1324 H 0.29546 0.24002 0.66919 0.0
H1325 H 0.37092 0.07393 0.67549 0.0
Zn1326 Zn 0.38012 0.44693 0.58327 0.0
C1327 C 0.42789 0.42358 0.54266 0.0
N1328 N 0.41802 0.43679 0.52822 0.0
C1329 C 0.40272 0.44681 0.54049 0.0
N1330 N 0.4031 0.44003 0.56157 0.0
N1331 N 0.41928 0.42557 0.56284 0.0
C1332 C 0.41466 0.36944 0.57417 0.0
O1333 O 0.39946 0.38275 0.56685 0.0
O1334 O 0.37851 0.47949 0.58979 0.0
Zn1335 Zn 0.43054 0.41 0.58764 0.0
N1336 N 0.35234 0.43608 0.57161 0.0
C1337 C 0.32895 0.40493 0.57213 0.0
C1338 C 0.34852 0.41505 0.57774 0.0
C1339 C 0.33739 0.44734 0.55929 0.0
N1340 N 0.31391 0.41616 0.56037 0.0
C1341 C 0.31747 0.43706 0.55362 0.0
O1342 O 0.41169 0.41109 0.61362 0.0
C1343 C 0.39496 0.41859 0.62317 0.0
O1344 O 0.38234 0.43217 0.61366 0.0
H1345 H 0.36059 0.40623 0.58719 0.0
H1346 H 0.34073 0.46402 0.5544 0.0
C1347 C 0.47253 0.40972 0.60819 0.0
C1348 C 0.49138 0.41953 0.61701 0.0
C1349 C 0.48018 0.45365 0.60208 0.0
C1350 C 0.46137 0.4439 0.59373 0.0
N1351 N 0.45806 0.42214 0.59676 0.0
N1352 N 0.4946 0.44132 0.6136 0.0
H1353 H 0.46881 0.39267 0.61112 0.0
C1354 C 0.39273 0.48768 0.60265 0.0
O1355 O 0.40885 0.47523 0.60953 0.0
O1356 O 0.43215 0.37763 0.58189 0.0
H1357 H 0.44936 0.4536 0.58508 0.0
H1358 H 0.32569 0.38828 0.57714 0.0
H1359 H 0.48313 0.47094 0.59976 0.0
Zn1360 Zn 0.83807 0.66029 0.6805 0.0
C1361 C 0.79047 0.69641 0.65245 0.0
N1362 N 0.77819 0.68622 0.66761 0.0
C1363 C 0.79276 0.67344 0.67785 0.0
N1364 N 0.81305 0.67581 0.66952 0.0
N1365 N 0.81169 0.69012 0.6532 0.0
C1366 C 0.85296 0.73803 0.64244 0.0
O1367 O 0.86106 0.72531 0.65776 0.0
O1368 O 0.83257 0.62785 0.68182 0.0
Zn1369 Zn 0.83331 0.69729 0.63022 0.0
N1370 N 0.84773 0.67236 0.70787 0.0
C1371 C 0.85421 0.70395 0.72956 0.0
C1372 C 0.84544 0.69425 0.71093 0.0
C1373 C 0.85884 0.65974 0.72244 0.0
N1374 N 0.86541 0.69144 0.74407 0.0
C1375 C 0.8681 0.66951 0.7411 0.0
O1376 O 0.86387 0.68275 0.63212 0.0
C1377 C 0.87337 0.66913 0.6447 0.0
O1378 O 0.86378 0.66163 0.6614 0.0
H1379 H 0.83703 0.70406 0.69884 0.0
H1380 H 0.8612 0.64256 0.71892 0.0
C1381 C 0.80938 0.6978 0.58747 0.0
C1382 C 0.80365 0.6875 0.56758 0.0
C1383 C 0.82193 0.65527 0.57918 0.0
C1384 C 0.82759 0.66541 0.59871 0.0
N1385 N 0.8216 0.6865 0.60245 0.0
N1386 N 0.81026 0.66654 0.56409 0.0
H1387 H 0.8046 0.71453 0.59076 0.0
C1388 C 0.82434 0.6198 0.6645 0.0
O1389 O 0.81645 0.63321 0.64968 0.0
O1390 O 0.83938 0.72995 0.62884 0.0
H1391 H 0.83696 0.65657 0.61082 0.0
H1392 H 0.85246 0.72134 0.7323 0.0
H1393 H 0.82682 0.63857 0.57597 0.0
Zn1394 Zn 0.83399 0.31351 0.88089 0.0
C1395 C 0.794 0.33472 0.83149 0.0
N1396 N 0.77967 0.32111 0.84094 0.0
C1397 C 0.79152 0.31222 0.85724 0.0
N1398 N 0.81229 0.31992 0.85777 0.0
N1399 N 0.81371 0.334 0.84127 0.0
C1400 C 0.82459 0.39011 0.84824 0.0
O1401 O 0.81758 0.37623 0.86307 0.0
O1402 O 0.83999 0.28088 0.8829 0.0
Zn1403 Zn 0.83814 0.35028 0.83028 0.0
N1404 N 0.82276 0.32488 0.90864 0.0
C1405 C 0.82501 0.35563 0.93244 0.0
C1406 C 0.83 0.34551 0.91271 0.0
C1407 C 0.8099 0.31409 0.92347 0.0
N1408 N 0.81274 0.34482 0.94738 0.0
C1409 C 0.80486 0.32436 0.94358 0.0
O1410 O 0.86461 0.34828 0.84828 0.0
C1411 C 0.87435 0.34071 0.86487 0.0
O1412 O 0.8647 0.32769 0.87798 0.0
H1413 H 0.83989 0.35397 0.90075 0.0
H1414 H 0.80418 0.29771 0.91993 0.0
C1415 C 0.85753 0.35284 0.78775 0.0
C1416 C 0.8658 0.34398 0.76821 0.0
C1417 C 0.8509 0.30941 0.77793 0.0
C1418 C 0.84316 0.31817 0.79746 0.0
N1419 N 0.84642 0.3397 0.80186 0.0
N1420 N 0.86214 0.32242 0.7639 0.0
H1421 H 0.86067 0.36966 0.79228 0.0
C1422 C 0.85301 0.27247 0.86896 0.0
O1423 O 0.86048 0.28482 0.85303 0.0
O1424 O 0.83216 0.38262 0.83039 0.0
H1425 H 0.83483 0.30787 0.80918 0.0
H1426 H 0.83091 0.37195 0.93591 0.0
H1427 H 0.84838 0.29232 0.77412 0.0
Zn1428 Zn 0.56343 0.92653 0.37998 0.0
C1429 C 0.58688 0.96735 0.42766 0.0
N1430 N 0.57406 0.98186 0.41739 0.0
C1431 C 0.564 0.96954 0.40217 0.0
N1432 N 0.57043 0.94835 0.4029 0.0
N1433 N 0.58465 0.94706 0.41931 0.0
C1434 C 0.64054 0.93497 0.41371 0.0
O1435 O 0.62697 0.94227 0.39874 0.0
O1436 O 0.53076 0.92058 0.37821 0.0
Zn1437 Zn 0.60019 0.92215 0.43053 0.0
N1438 N 0.57458 0.93783 0.35216 0.0
C1439 C 0.60572 0.93642 0.32883 0.0
C1440 C 0.5955 0.93127 0.34846 0.0
C1441 C 0.56355 0.95015 0.33705 0.0
N1442 N 0.59471 0.94815 0.3136 0.0
C1443 C 0.57393 0.95534 0.31704 0.0
O1444 O 0.59847 0.89618 0.41189 0.0
C1445 C 0.591 0.88637 0.39531 0.0
O1446 O 0.57768 0.89583 0.38238 0.0
H1447 H 0.60413 0.92181 0.36065 0.0
H1448 H 0.54694 0.95534 0.3403 0.0
C1449 C 0.60107 0.90195 0.47273 0.0
C1450 C 0.59143 0.8928 0.4915 0.0
C1451 C 0.5569 0.90653 0.48005 0.0
C1452 C 0.56647 0.91515 0.46128 0.0
N1453 N 0.58835 0.91291 0.45814 0.0
N1454 N 0.56951 0.89546 0.49457 0.0
H1455 H 0.61823 0.89958 0.46912 0.0
C1456 C 0.52244 0.90728 0.39195 0.0
O1457 O 0.53487 0.89953 0.40767 0.0
O1458 O 0.63267 0.92748 0.43145 0.0
H1459 H 0.55656 0.92339 0.44916 0.0
H1460 H 0.62228 0.93106 0.32564 0.0
H1461 H 0.53951 0.90824 0.48287 0.0
Zn1462 Zn 0.17136 0.16046 0.82949 0.0
C1463 C 0.21843 0.19826 0.85603 0.0
N1464 N 0.23003 0.1894 0.83953 0.0
C1465 C 0.2155 0.17594 0.83018 0.0
N1466 N 0.19593 0.1767 0.84021 0.0
N1467 N 0.19763 0.19068 0.85676 0.0
C1468 C 0.15757 0.23799 0.86767 0.0
O1469 O 0.151 0.22565 0.85134 0.0
O1470 O 0.17748 0.12816 0.82918 0.0
Zn1471 Zn 0.17631 0.19707 0.88021 0.0
N1472 N 0.1626 0.1713 0.8013 0.0
C1473 C 0.15769 0.20189 0.77784 0.0
C1474 C 0.16572 0.1929 0.79714 0.0
C1475 C 0.15141 0.15829 0.78713 0.0
N1476 N 0.14634 0.18902 0.76376 0.0
C1477 C 0.14286 0.16738 0.76781 0.0
O1478 O 0.14571 0.18271 0.87776 0.0
C1479 C 0.13583 0.16964 0.86487 0.0
O1480 O 0.14521 0.16216 0.84803 0.0
H1481 H 0.17416 0.20308 0.8089 0.0
H1482 H 0.14843 0.14138 0.79142 0.0
C1483 C 0.20059 0.19656 0.92279 0.0
C1484 C 0.20595 0.18607 0.94271 0.0
C1485 C 0.18665 0.15446 0.93102 0.0
C1486 C 0.18134 0.1648 0.91149 0.0
N1487 N 0.188 0.18569 0.90779 0.0
N1488 N 0.19864 0.16533 0.94614 0.0
H1489 H 0.20586 0.21315 0.91955 0.0
C1490 C 0.18557 0.12056 0.84677 0.0
O1491 O 0.19296 0.13436 0.86149 0.0
O1492 O 0.17002 0.22964 0.88216 0.0
H1493 H 0.17166 0.15629 0.89939 0.0
H1494 H 0.16008 0.21905 0.77424 0.0
H1495 H 0.18121 0.13792 0.9342 0.0
Zn1496 Zn 0.94682 0.08359 0.88024 0.0
C1497 C 0.92287 0.0425 0.92734 0.0
N1498 N 0.93604 0.02815 0.91727 0.0
C1499 C 0.94633 0.04063 0.90233 0.0
N1500 N 0.93971 0.06175 0.90306 0.0
N1501 N 0.92515 0.06287 0.91917 0.0
C1502 C 0.86919 0.07444 0.91338 0.0
O1503 O 0.88285 0.06723 0.89843 0.0
O1504 O 0.97944 0.08968 0.87863 0.0
Zn1505 Zn 0.90936 0.08773 0.9302 0.0
N1506 N 0.93585 0.07227 0.85236 0.0
C1507 C 0.90478 0.07352 0.82891 0.0
C1508 C 0.9149 0.07868 0.84859 0.0
C1509 C 0.94702 0.06008 0.83725 0.0
N1510 N 0.91594 0.06192 0.8137 0.0
C1511 C 0.93675 0.05487 0.81719 0.0
O1512 O 0.91084 0.11373 0.91147 0.0
C1513 C 0.91861 0.12351 0.89502 0.0
O1514 O 0.9324 0.11416 0.88252 0.0
H1515 H 0.90615 0.08803 0.86078 0.0
H1516 H 0.96366 0.05499 0.84055 0.0
C1517 C 0.90801 0.1079 0.97239 0.0
C1518 C 0.91738 0.11707 0.99129 0.0
C1519 C 0.95219 0.10391 0.98 0.0
C1520 C 0.94288 0.09524 0.96112 0.0
N1521 N 0.92099 0.09719 0.95784 0.0
N1522 N 0.93932 0.11471 0.9945 0.0
H1523 H 0.89085 0.11002 0.96867 0.0
C1524 C 0.98768 0.10303 0.89236 0.0
O1525 O 0.97518 0.11079 0.90803 0.0
O1526 O 0.87697 0.08204 0.9311 0.0
H1527 H 0.95298 0.08717 0.94905 0.0
H1528 H 0.88819 0.07876 0.82568 0.0
H1529 H 0.96958 0.10242 0.98294 0.0
Zn1530 Zn 0.67605 0.31326 0.12992 0.0
C1531 C 0.71675 0.3363 0.17789 0.0
N1532 N 0.73117 0.32307 0.16803 0.0
C1533 C 0.71897 0.31325 0.15254 0.0
N1534 N 0.69791 0.32015 0.15283 0.0
N1535 N 0.69661 0.33446 0.16913 0.0
C1536 C 0.68539 0.39038 0.16299 0.0
O1537 O 0.6928 0.37663 0.14823 0.0
O1538 O 0.67013 0.2806 0.12812 0.0
Zn1539 Zn 0.6719 0.35032 0.18026 0.0
N1540 N 0.68714 0.32449 0.10204 0.0
C1541 C 0.68476 0.35521 0.07822 0.0
C1542 C 0.67989 0.34512 0.09799 0.0
C1543 C 0.69992 0.31369 0.08715 0.0
N1544 N 0.69694 0.3444 0.06322 0.0
C1545 C 0.70486 0.32394 0.067 0.0
O1546 O 0.64569 0.34847 0.16193 0.0
C1547 C 0.63586 0.34079 0.14545 0.0
O1548 O 0.64533 0.32741 0.13259 0.0
H1549 H 0.67011 0.35362 0.11001 0.0
H1550 H 0.70569 0.29732 0.09068 0.0
C1551 C 0.65235 0.35206 0.2228 0.0
C1552 C 0.64333 0.34271 0.24179 0.0
C1553 C 0.65663 0.30793 0.23062 0.0
C1554 C 0.66506 0.31718 0.21161 0.0
N1555 N 0.66299 0.33905 0.20823 0.0
N1556 N 0.64585 0.32082 0.24511 0.0
H1557 H 0.65007 0.36919 0.21902 0.0
C1558 C 0.65697 0.27224 0.14197 0.0
O1559 O 0.64933 0.28464 0.15777 0.0
O1560 O 0.67756 0.38273 0.18067 0.0
H1561 H 0.67303 0.30704 0.1995 0.0
H1562 H 0.67884 0.37153 0.07476 0.0
H1563 H 0.65824 0.29057 0.23364 0.0
Zn1564 Zn 0.60014 0.08788 0.07996 0.0
C1565 C 0.56302 0.04073 0.10745 0.0
N1566 N 0.57291 0.0286 0.09195 0.0
C1567 C 0.58614 0.0431 0.08221 0.0
N1568 N 0.58429 0.06318 0.09105 0.0
N1569 N 0.56988 0.06181 0.10727 0.0
C1570 C 0.52223 0.10247 0.11763 0.0
O1571 O 0.53462 0.10918 0.1014 0.0
O1572 O 0.63249 0.08201 0.07912 0.0
Zn1573 Zn 0.56306 0.0835 0.13029 0.0
N1574 N 0.5887 0.0968 0.05207 0.0
C1575 C 0.55761 0.1025 0.02946 0.0
C1576 C 0.56693 0.09418 0.04849 0.0
C1577 C 0.60156 0.10779 0.03762 0.0
N1578 N 0.57035 0.11363 0.01509 0.0
C1579 C 0.59216 0.11663 0.01858 0.0
O1580 O 0.57753 0.11404 0.12783 0.0
C1581 C 0.59099 0.12363 0.11514 0.0
O1582 O 0.59864 0.11403 0.0985 0.0
H1583 H 0.55689 0.0859 0.06048 0.0
H1584 H 0.61862 0.11043 0.04152 0.0
C1585 C 0.56313 0.05969 0.17313 0.0
C1586 C 0.57347 0.05444 0.19315 0.0
C1587 C 0.60524 0.07348 0.18152 0.0
C1588 C 0.59506 0.07867 0.16188 0.0
N1589 N 0.57416 0.07209 0.15809 0.0
N1590 N 0.59421 0.06166 0.19667 0.0
H1591 H 0.54654 0.05446 0.16982 0.0
C1592 C 0.64032 0.0743 0.09677 0.0
O1593 O 0.6267 0.06714 0.11177 0.0
O1594 O 0.53049 0.08983 0.132 0.0
H1595 H 0.6037 0.08818 0.14975 0.0
H1596 H 0.54032 0.1005 0.0263 0.0
H1597 H 0.62178 0.07886 0.18477 0.0
Zn1598 Zn 0.41004 0.42197 0.07967 0.0
C1599 C 0.44614 0.46937 0.10811 0.0
N1600 N 0.43607 0.48169 0.09289 0.0
C1601 C 0.42333 0.46716 0.08256 0.0
N1602 N 0.42561 0.44686 0.09087 0.0
N1603 N 0.43981 0.44816 0.1073 0.0
C1604 C 0.48771 0.40733 0.11745 0.0
O1605 O 0.47523 0.40033 0.10141 0.0
O1606 O 0.37757 0.42738 0.07881 0.0
Zn1607 Zn 0.44685 0.42628 0.13015 0.0
N1608 N 0.42183 0.41269 0.05206 0.0
C1609 C 0.45324 0.40613 0.03014 0.0
C1610 C 0.44372 0.41483 0.0489 0.0
C1611 C 0.40905 0.40176 0.03751 0.0
N1612 N 0.44057 0.39508 0.01566 0.0
C1613 C 0.41865 0.39252 0.01875 0.0
O1614 O 0.43256 0.39561 0.12774 0.0
C1615 C 0.41919 0.38616 0.11485 0.0
O1616 O 0.4117 0.39596 0.09828 0.0
H1617 H 0.45367 0.42306 0.061 0.0
H1618 H 0.39189 0.39946 0.04113 0.0
C1619 C 0.44683 0.45002 0.17302 0.0
C1620 C 0.43656 0.45516 0.19309 0.0
C1621 C 0.40491 0.43581 0.18166 0.0
C1622 C 0.41502 0.43072 0.16196 0.0
N1623 N 0.43583 0.43751 0.15805 0.0
N1624 N 0.41591 0.44773 0.19674 0.0
H1625 H 0.46335 0.45541 0.1696 0.0
C1626 C 0.36978 0.4348 0.09661 0.0
O1627 O 0.38342 0.44197 0.11158 0.0
O1628 O 0.47949 0.42014 0.1317 0.0
H1629 H 0.40638 0.42115 0.14986 0.0
H1630 H 0.47063 0.40777 0.0273 0.0
H1631 H 0.38844 0.43027 0.185 0.0
H1632 H 0.15103 0.42647 0.35965 0.0
H1633 H 0.1096 0.34261 0.2672 0.0
H1634 H 0.08976 0.39134 0.36165 0.0
H1635 H 0.16752 0.38225 0.2596 0.0
H1636 H 0.10365 0.35902 0.30311 0.0
H1637 H 0.15859 0.40982 0.32378 0.0
C1638 C 0.13913 0.41542 0.35256 0.0
C1639 C 0.11974 0.41035 0.3638 0.0
C1640 C 0.11771 0.36412 0.29364 0.0
C1641 C 0.12839 0.39107 0.32295 0.0
C1642 C 0.12116 0.35466 0.27313 0.0
C1643 C 0.13904 0.36109 0.26026 0.0
C1644 C 0.13224 0.38017 0.30149 0.0
C1645 C 0.15348 0.37681 0.2689 0.0
C1646 C 0.14349 0.40586 0.33213 0.0
C1647 C 0.10498 0.3958 0.35377 0.0
N1648 N 0.14974 0.38585 0.28892 0.0
N1649 N 0.10964 0.3867 0.33409 0.0
H1650 H 0.59259 0.65011 0.99269 0.0
H1651 H 0.67668 0.60844 0.9005 0.0
H1652 H 0.63231 0.59228 1.00061 0.0
H1653 H 0.64083 0.66927 0.89791 0.0
H1654 H 0.65997 0.60094 0.93638 0.0
H1655 H 0.60886 0.65579 0.95667 0.0
C1656 C 0.60463 0.63851 0.98681 0.0
C1657 C 0.61112 0.62074 0.9998 0.0
C1658 C 0.65585 0.61593 0.92789 0.0
C1659 C 0.63005 0.62723 0.95845 0.0
C1660 C 0.66545 0.62024 0.90745 0.0
C1661 C 0.66022 0.63951 0.89606 0.0
C1662 C 0.64089 0.63095 0.93692 0.0
C1663 C 0.64543 0.65416 0.90591 0.0
C1664 C 0.61401 0.6418 0.96624 0.0
C1665 C 0.62683 0.60625 0.99122 0.0
N1666 N 0.63633 0.64955 0.92561 0.0
N1667 N 0.6358 0.60984 0.97114 0.0
H1668 H 0.92274 0.11317 0.35955 0.0
H1669 H 0.83928 0.13061 0.26033 0.0
H1670 H 0.85742 0.0863 0.36019 0.0
H1671 H 0.90179 0.1629 0.26606 0.0
H1672 H 0.84536 0.11337 0.296 0.0
H1673 H 0.91538 0.12972 0.32432 0.0
C1674 C 0.9068 0.11062 0.35226 0.0
C1675 C 0.89063 0.09832 0.36306 0.0
C1676 C 0.85768 0.1243 0.28948 0.0
C1677 C 0.88204 0.11759 0.32224 0.0
C1678 C 0.85423 0.13421 0.26913 0.0
C1679 C 0.87009 0.14823 0.26009 0.0
C1680 C 0.87721 0.12832 0.30088 0.0
C1681 C 0.8891 0.15224 0.27229 0.0
C1682 C 0.9026 0.12021 0.33205 0.0
C1683 C 0.87039 0.09558 0.3525 0.0
N1684 N 0.89215 0.14227 0.29194 0.0
N1685 N 0.86663 0.10521 0.33269 0.0
H1686 H 0.37936 0.92028 0.99953 0.0
H1687 H 0.36652 0.83872 0.89804 0.0
H1688 H 0.41409 0.85919 0.99275 0.0
H1689 H 0.33564 0.90226 0.89944 0.0
H1690 H 0.38284 0.84608 0.93335 0.0
H1691 H 0.36276 0.91438 0.96353 0.0
C1692 C 0.38363 0.90569 0.99043 0.0
C1693 C 0.39814 0.89016 0.99927 0.0
C1694 C 0.3725 0.85848 0.92605 0.0
C1695 C 0.37898 0.88326 0.95808 0.0
C1696 C 0.36305 0.85428 0.90578 0.0
C1697 C 0.34963 0.86993 0.89555 0.0
C1698 C 0.36863 0.87851 0.9365 0.0
C1699 C 0.3458 0.88969 0.90667 0.0
C1700 C 0.37408 0.90234 0.96989 0.0
C1701 C 0.40302 0.87161 0.98668 0.0
N1702 N 0.3553 0.89344 0.92655 0.0
N1703 N 0.3934 0.86866 0.96684 0.0
H1704 H 0.08659 0.61251 0.1508 0.0
H1705 H 0.17046 0.63077 0.24956 0.0
H1706 H 0.15217 0.58628 0.14989 0.0
H1707 H 0.10754 0.66234 0.24432 0.0
H1708 H 0.16426 0.6134 0.21399 0.0
H1709 H 0.09389 0.629 0.18609 0.0
C1710 C 0.10257 0.61007 0.15806 0.0
C1711 C 0.11884 0.59799 0.14717 0.0
C1712 C 0.15187 0.62419 0.22059 0.0
C1713 C 0.12736 0.61719 0.18802 0.0
C1714 C 0.1554 0.63419 0.24089 0.0
C1715 C 0.13946 0.64805 0.25003 0.0
C1716 C 0.13221 0.62797 0.20935 0.0
C1717 C 0.12029 0.65181 0.23799 0.0
C1718 C 0.10674 0.61962 0.1783 0.0
C1719 C 0.13912 0.59539 0.15766 0.0
N1720 N 0.11719 0.64177 0.21839 0.0
N1721 N 0.14285 0.60499 0.17749 0.0
H1722 H 0.91656 0.65173 0.01688 0.0
H1723 H 0.8336 0.60926 0.10966 0.0
H1724 H 0.87848 0.59269 0.00993 0.0
H1725 H 0.86753 0.6712 0.11126 0.0
H1726 H 0.85032 0.60182 0.07379 0.0
H1727 H 0.89989 0.65772 0.05266 0.0
C1728 C 0.9048 0.63993 0.02292 0.0
C1729 C 0.89889 0.62173 0.01028 0.0
C1730 C 0.854 0.61705 0.08205 0.0
C1731 C 0.87951 0.62856 0.05136 0.0
C1732 C 0.84438 0.62133 0.10247 0.0
C1733 C 0.84913 0.64087 0.11361 0.0
C1734 C 0.8685 0.63237 0.07278 0.0
C1735 C 0.86336 0.65586 0.10347 0.0
C1736 C 0.89519 0.6434 0.04336 0.0
C1737 C 0.88352 0.607 0.01906 0.0
N1738 N 0.87252 0.65127 0.08379 0.0
N1739 N 0.87432 0.61076 0.039 0.0
H1740 H 0.85866 0.92663 0.15024 0.0
H1741 H 0.89939 0.84171 0.24209 0.0
H1742 H 0.91863 0.8894 0.14711 0.0
H1743 H 0.84249 0.88266 0.25052 0.0
H1744 H 0.90498 0.85772 0.20595 0.0
H1745 H 0.85105 0.90998 0.18613 0.0
C1746 C 0.87024 0.91509 0.15707 0.0
C1747 C 0.88932 0.90949 0.14554 0.0
C1748 C 0.89121 0.8632 0.21565 0.0
C1749 C 0.88064 0.89025 0.1864 0.0
C1750 C 0.88797 0.85397 0.23631 0.0
C1751 C 0.87051 0.86089 0.24947 0.0
C1752 C 0.8769 0.87951 0.20797 0.0
C1753 C 0.85624 0.87685 0.24099 0.0
C1754 C 0.86587 0.90555 0.17751 0.0
C1755 C 0.90369 0.89433 0.15523 0.0
N1756 N 0.85978 0.88567 0.22084 0.0
N1757 N 0.89903 0.88528 0.17494 0.0
H1758 H 0.17666 0.90182 0.11002 0.0
H1759 H 0.09414 0.85914 0.0169 0.0
H1760 H 0.14165 0.84049 0.11212 0.0
H1761 H 0.13238 0.91807 0.00992 0.0
H1762 H 0.11034 0.85344 0.05294 0.0
H1763 H 0.16017 0.90919 0.07402 0.0
C1764 C 0.16567 0.88988 0.10293 0.0
C1765 C 0.1606 0.87052 0.11423 0.0
C1766 C 0.11518 0.86767 0.04358 0.0
C1767 C 0.14152 0.87892 0.07323 0.0
C1768 C 0.10584 0.87097 0.02298 0.0
C1769 C 0.11193 0.88906 0.01027 0.0
C1770 C 0.13078 0.88257 0.05165 0.0
C1771 C 0.12721 0.90384 0.0191 0.0
C1772 C 0.15619 0.89412 0.08243 0.0
C1773 C 0.14611 0.85569 0.10421 0.0
N1774 N 0.13615 0.90025 0.03919 0.0
N1775 N 0.13712 0.86022 0.08444 0.0
H1776 H 0.36201 0.08905 0.39252 0.0
H1777 H 0.26014 0.17033 0.38095 0.0
H1778 H 0.36014 0.15195 0.42463 0.0
H1779 H 0.26731 0.10997 0.34505 0.0
H1780 H 0.29615 0.16432 0.39746 0.0
H1781 H 0.32676 0.09659 0.37613 0.0
C1782 C 0.35418 0.1045 0.39625 0.0
C1783 C 0.36426 0.11992 0.41004 0.0
C1784 C 0.28988 0.15246 0.3859 0.0
C1785 C 0.32338 0.12871 0.39097 0.0
C1786 C 0.26932 0.15588 0.3764 0.0
C1787 C 0.26059 0.14058 0.36159 0.0
C1788 C 0.30181 0.13356 0.38065 0.0
C1789 C 0.2733 0.1222 0.35636 0.0
C1790 C 0.33395 0.10881 0.38675 0.0
C1791 C 0.35304 0.13956 0.41417 0.0
N1792 N 0.29315 0.11918 0.36595 0.0
N1793 N 0.33319 0.14341 0.40464 0.0
H1794 H 0.36057 0.49233 0.91779 0.0
H1795 H 0.40156 0.40067 0.8328 0.0
H1796 H 0.41793 0.50057 0.87748 0.0
H1797 H 0.34144 0.39743 0.86977 0.0
H1798 H 0.40908 0.43654 0.84952 0.0
H1799 H 0.35486 0.45633 0.9015 0.0
C1800 C 0.37207 0.48653 0.90562 0.0
C1801 C 0.38971 0.49959 0.89897 0.0
C1802 C 0.39424 0.42791 0.85388 0.0
C1803 C 0.38318 0.45827 0.88001 0.0
C1804 C 0.38992 0.40748 0.84428 0.0
C1805 C 0.37085 0.39591 0.84981 0.0
C1806 C 0.37943 0.43675 0.86915 0.0
C1807 C 0.3564 0.40557 0.86492 0.0
C1808 C 0.36876 0.46596 0.89622 0.0
C1809 C 0.40406 0.49111 0.88309 0.0
N1810 N 0.36101 0.42528 0.87401 0.0
N1811 N 0.40045 0.47104 0.8741 0.0
H1812 H 0.74283 0.3998 0.34232 0.0
H1813 H 0.65115 0.35912 0.42744 0.0
H1814 H 0.7515 0.34314 0.38353 0.0
H1815 H 0.64776 0.4189 0.38992 0.0
H1816 H 0.68709 0.3516 0.41086 0.0
H1817 H 0.7067 0.40537 0.35836 0.0
C1818 C 0.7371 0.38844 0.35465 0.0
C1819 C 0.75032 0.37104 0.36162 0.0
C1820 C 0.67841 0.36636 0.40635 0.0
C1821 C 0.70884 0.3774 0.38028 0.0
C1822 C 0.65793 0.37068 0.41585 0.0
C1823 C 0.64631 0.38968 0.41016 0.0
C1824 C 0.68724 0.38109 0.39099 0.0
C1825 C 0.65594 0.40402 0.39493 0.0
C1826 C 0.71645 0.39167 0.36389 0.0
C1827 C 0.74193 0.35683 0.37768 0.0
N1828 N 0.67568 0.39941 0.38592 0.0
N1829 N 0.72177 0.36035 0.38651 0.0
H1830 H 0.6089 0.1096 0.83299 0.0
H1831 H 0.65033 0.0174 0.91717 0.0
H1832 H 0.66957 0.11225 0.86911 0.0
H1833 H 0.59241 0.00966 0.87755 0.0
H1834 H 0.65613 0.05337 0.90084 0.0
H1835 H 0.60138 0.0737 0.84964 0.0
C1836 C 0.62067 0.10265 0.84426 0.0
C1837 C 0.63989 0.11407 0.84959 0.0
C1838 C 0.6421 0.04386 0.89572 0.0
C1839 C 0.6313 0.0732 0.86886 0.0
C1840 C 0.63874 0.0233 0.90514 0.0
C1841 C 0.62091 0.01039 0.89869 0.0
C1842 C 0.62753 0.05169 0.87971 0.0
C1843 C 0.60643 0.019 0.883 0.0
C1844 C 0.61634 0.0822 0.85383 0.0
C1845 C 0.65449 0.10423 0.86444 0.0
N1846 N 0.61008 0.03906 0.874 0.0
N1847 N 0.64987 0.08452 0.87351 0.0
H1848 H 0.25977 0.84031 0.12962 0.0
H1849 H 0.35999 0.92304 0.11452 0.0
H1850 H 0.26659 0.90142 0.1643 0.0
H1851 H 0.35953 0.85871 0.08534 0.0
H1852 H 0.32481 0.91554 0.13113 0.0
H1853 H 0.29541 0.84657 0.1124 0.0
C1854 C 0.2688 0.85498 0.13375 0.0
C1855 C 0.26008 0.8704 0.14843 0.0
C1856 C 0.33229 0.90301 0.12109 0.0
C1857 C 0.30084 0.87773 0.12854 0.0
C1858 C 0.35246 0.90729 0.11146 0.0
C1859 C 0.36294 0.89144 0.09849 0.0
C1860 C 0.32219 0.88268 0.11783 0.0
C1861 C 0.3521 0.87144 0.09515 0.0
C1862 C 0.28914 0.85854 0.12385 0.0
C1863 C 0.27258 0.88907 0.15311 0.0
N1864 N 0.33232 0.8676 0.10481 0.0
N1865 N 0.29221 0.89224 0.14313 0.0
H1866 H 0.10834 0.39988 0.17614 0.0
H1867 H 0.1515 0.49291 0.09379 0.0
H1868 H 0.17028 0.39819 0.14221 0.0
H1869 H 0.0922 0.49987 0.13147 0.0
H1870 H 0.15721 0.457 0.11025 0.0
H1871 H 0.101 0.43582 0.15948 0.0
C1872 C 0.12042 0.40705 0.16536 0.0
C1873 C 0.13994 0.39588 0.16062 0.0
C1874 C 0.14289 0.46633 0.11492 0.0
C1875 C 0.13157 0.43679 0.14134 0.0
C1876 C 0.13959 0.48684 0.10542 0.0
C1877 C 0.12139 0.49952 0.11128 0.0
C1878 C 0.1279 0.45829 0.13043 0.0
C1879 C 0.10651 0.49071 0.12648 0.0
C1880 C 0.1162 0.42752 0.15579 0.0
C1881 C 0.15495 0.406 0.1464 0.0
N1882 N 0.11012 0.47069 0.13557 0.0
N1883 N 0.15042 0.42572 0.1373 0.0
H1884 H 0.64826 0.58838 0.1167 0.0
H1885 H 0.74974 0.67004 0.12914 0.0
H1886 H 0.64981 0.65165 0.08531 0.0
H1887 H 0.74289 0.60926 0.1644 0.0
H1888 H 0.71381 0.66397 0.11248 0.0
H1889 H 0.68355 0.59584 0.13304 0.0
C1890 C 0.65603 0.60389 0.11312 0.0
C1891 C 0.64585 0.61945 0.09956 0.0
C1892 C 0.72014 0.65202 0.12392 0.0
C1893 C 0.68677 0.62815 0.11858 0.0
C1894 C 0.74065 0.65548 0.13352 0.0
C1895 C 0.74945 0.6401 0.1482 0.0
C1896 C 0.70832 0.63299 0.12895 0.0
C1897 C 0.73686 0.62157 0.15319 0.0
C1898 C 0.67629 0.60815 0.12259 0.0
C1899 C 0.657 0.63916 0.09559 0.0
N1900 N 0.71705 0.61852 0.14353 0.0
N1901 N 0.67686 0.64297 0.1051 0.0
H1902 H 0.85884 0.01646 0.09346 0.0
H1903 H 0.90103 0.10941 0.17638 0.0
H1904 H 0.91748 0.00935 0.13211 0.0
H1905 H 0.83903 0.11079 0.14252 0.0
H1906 H 0.90852 0.0735 0.15976 0.0
H1907 H 0.85282 0.05229 0.11002 0.0
C1908 C 0.87054 0.02247 0.10532 0.0
C1909 C 0.88865 0.00978 0.11142 0.0
C1910 C 0.89327 0.08171 0.15607 0.0
C1911 C 0.88178 0.05091 0.13068 0.0
C1912 C 0.88895 0.10216 0.16563 0.0
C1913 C 0.86939 0.11325 0.16089 0.0
C1914 C 0.87795 0.07237 0.14163 0.0
C1915 C 0.8544 0.10304 0.14671 0.0
C1916 C 0.86705 0.04294 0.11488 0.0
C1917 C 0.90326 0.01852 0.12693 0.0
N1918 N 0.85902 0.08334 0.1376 0.0
N1919 N 0.89948 0.03849 0.13606 0.0
H1920 H 0.39444 0.36098 0.08774 0.0
H1921 H 0.38002 0.26029 0.17006 0.0
H1922 H 0.42429 0.36006 0.15176 0.0
H1923 H 0.34627 0.26656 0.10838 0.0
H1924 H 0.39689 0.29613 0.16402 0.0
H1925 H 0.378 0.32571 0.09511 0.0
C1926 C 0.39766 0.35334 0.1034 0.0
C1927 C 0.41081 0.36371 0.1192 0.0
C1928 C 0.38573 0.2897 0.15187 0.0
C1929 C 0.39167 0.32282 0.12779 0.0
C1930 C 0.37602 0.26924 0.1553 0.0
C1931 C 0.36169 0.26031 0.13966 0.0
C1932 C 0.38118 0.30132 0.1326 0.0
C1933 C 0.35718 0.27271 0.12089 0.0
C1934 C 0.38814 0.3331 0.10761 0.0
C1935 C 0.41435 0.35273 0.13908 0.0
N1936 N 0.36694 0.29247 0.11787 0.0
N1937 N 0.40478 0.33288 0.14284 0.0
H1938 H 0.344 0.74348 0.40171 0.0
H1939 H 0.42586 0.65015 0.35833 0.0
H1940 H 0.38138 0.75019 0.3422 0.0
H1941 H 0.39325 0.64919 0.42099 0.0
H1942 H 0.40916 0.68605 0.35097 0.0
H1943 H 0.36062 0.70765 0.40756 0.0
C1944 C 0.35559 0.73738 0.38978 0.0
C1945 C 0.36133 0.74996 0.37148 0.0
C1946 C 0.40577 0.67793 0.36634 0.0
C1947 C 0.38065 0.70883 0.37816 0.0
C1948 C 0.41537 0.65749 0.37057 0.0
C1949 C 0.41099 0.64651 0.39029 0.0
C1950 C 0.39164 0.68739 0.38189 0.0
C1951 C 0.39714 0.65685 0.4055 0.0
C1952 C 0.36518 0.71691 0.39317 0.0
C1953 C 0.37649 0.74111 0.35659 0.0
N1954 N 0.38798 0.67653 0.40095 0.0
N1955 N 0.38566 0.72114 0.36027 0.0
H1956 H 0.89999 0.36465 0.83745 0.0
H1957 H 1.0002 0.37983 0.92018 0.0
H1958 H 0.90018 0.33598 0.902 0.0
H1959 H 0.99366 0.41407 0.8588 0.0
H1960 H 0.96446 0.36278 0.91402 0.0
H1961 H 0.93524 0.38114 0.84488 0.0
C1962 C 0.90747 0.36168 0.85323 0.0
C1963 C 0.89689 0.34888 0.86917 0.0
C1964 C 0.97081 0.37409 0.90197 0.0
C1965 C 0.93774 0.36808 0.87784 0.0
C1966 C 0.99121 0.3839 0.90547 0.0
C1967 C 1.00004 0.39842 0.88994 0.0
C1968 C 0.95915 0.3787 0.88273 0.0
C1969 C 0.98758 0.40302 0.87123 0.0
C1970 C 0.92769 0.37124 0.85748 0.0
C1971 C 0.90768 0.34565 0.88921 0.0
N1972 N 0.96789 0.39313 0.86812 0.0
N1973 N 0.92751 0.35524 0.89301 0.0
H1974 H 0.61531 0.86105 0.42268 0.0
H1975 H 0.63088 0.76074 0.34011 0.0
H1976 H 0.58632 0.8604 0.35827 0.0
H1977 H 0.66384 0.76674 0.40224 0.0
H1978 H 0.61388 0.79653 0.34611 0.0
H1979 H 0.63184 0.82579 0.41539 0.0
C1980 C 0.61229 0.85347 0.40694 0.0
C1981 C 0.59937 0.86391 0.39102 0.0
C1982 C 0.6249 0.79005 0.35837 0.0
C1983 C 0.61861 0.82304 0.38251 0.0
C1984 C 0.63468 0.76962 0.35496 0.0
C1985 C 0.64882 0.76063 0.37074 0.0
C1986 C 0.62919 0.80158 0.37775 0.0
C1987 C 0.65308 0.77294 0.38962 0.0
C1988 C 0.62186 0.83324 0.40279 0.0
C1989 C 0.59608 0.853 0.37105 0.0
N1990 N 0.64325 0.79268 0.39262 0.0
N1991 N 0.6057 0.83317 0.36733 0.0
H1992 H 0.51649 0.59477 0.35782 0.0
H1993 H 0.61004 0.67595 0.40188 0.0
H1994 H 0.51013 0.6311 0.41802 0.0
H1995 H 0.6103 0.64473 0.33851 0.0
H1996 H 0.57417 0.65917 0.40922 0.0
H1997 H 0.55217 0.61166 0.35193 0.0
C1998 C 0.52264 0.60619 0.36989 0.0
C1999 C 0.5102 0.61155 0.3884 0.0
C2000 C 0.58213 0.65611 0.3937 0.0
C2001 C 0.55115 0.63119 0.38168 0.0
C2002 C 0.60254 0.66577 0.38948 0.0
C2003 C 0.61332 0.66176 0.36958 0.0
C2004 C 0.57251 0.64232 0.37795 0.0
C2005 C 0.6028 0.64829 0.35415 0.0
C2006 C 0.54302 0.61594 0.36648 0.0
C2007 C 0.51911 0.6265 0.40347 0.0
N2008 N 0.58316 0.63906 0.3587 0.0
N2009 N 0.53899 0.63584 0.39976 0.0
H2010 H 0.13018 0.74987 0.67052 0.0
H2011 H 0.11424 0.65016 0.58734 0.0
H2012 H 0.16359 0.74381 0.60864 0.0
H2013 H 0.08609 0.64997 0.65212 0.0
H2014 H 0.13081 0.68534 0.59485 0.0
H2015 H 0.11315 0.71411 0.66437 0.0
C2016 C 0.13408 0.74098 0.6557 0.0
C2017 C 0.14834 0.74995 0.64003 0.0
C2018 C 0.12101 0.67772 0.60749 0.0
C2019 C 0.12866 0.70906 0.63283 0.0
C2020 C 0.11141 0.65754 0.6032 0.0
C2021 C 0.09872 0.64688 0.61917 0.0
C2022 C 0.11802 0.68766 0.62793 0.0
C2023 C 0.09567 0.65754 0.6393 0.0
C2024 C 0.12428 0.72057 0.6522 0.0
C2025 C 0.15273 0.73763 0.62118 0.0
N2026 N 0.1053 0.67734 0.64314 0.0
N2027 N 0.14286 0.71793 0.61808 0.0
H2028 H 0.99257 0.59341 0.65078 0.0
H2029 H 0.90012 0.67707 0.60882 0.0
H2030 H 1.00016 0.63261 0.59257 0.0
H2031 H 0.89746 0.6411 0.66957 0.0
H2032 H 0.93607 0.66046 0.60139 0.0
H2033 H 0.95654 0.60963 0.65645 0.0
C2034 C 0.98662 0.60533 0.6391 0.0
C2035 C 0.99951 0.61168 0.62122 0.0
C2036 C 0.92755 0.6563 0.61635 0.0
C2037 C 0.95813 0.63055 0.62769 0.0
C2038 C 0.90707 0.66583 0.62062 0.0
C2039 C 0.89564 0.66055 0.63984 0.0
C2040 C 0.93657 0.64134 0.63137 0.0
C2041 C 0.90549 0.64575 0.65449 0.0
C2042 C 0.96603 0.61468 0.64238 0.0
C2043 C 0.99084 0.62723 0.60662 0.0
N2044 N 0.92523 0.63671 0.64993 0.0
N2045 N 0.97075 0.63618 0.61021 0.0
H2046 H 0.11067 0.86576 0.67277 0.0
H2047 H 0.00979 0.87947 0.59058 0.0
H2048 H 0.10968 0.83554 0.60894 0.0
H2049 H 0.0167 0.91463 0.6514 0.0
H2050 H 0.04554 0.86248 0.5968 0.0
H2051 H 0.07539 0.88218 0.66532 0.0
C2052 C 0.10301 0.86244 0.65714 0.0
C2053 C 0.11336 0.84922 0.64141 0.0
C2054 C 0.03927 0.87398 0.60872 0.0
C2055 C 0.07248 0.86833 0.63272 0.0
C2056 C 0.01886 0.88376 0.60518 0.0
C2057 C 0.01013 0.89852 0.62053 0.0
C2058 C 0.05104 0.87888 0.62781 0.0
C2059 C 0.02269 0.90338 0.63911 0.0
C2060 C 0.08277 0.87195 0.65289 0.0
C2061 C 0.10235 0.84555 0.62157 0.0
N2062 N 0.04239 0.89353 0.64225 0.0
N2063 N 0.08252 0.85511 0.61775 0.0
H2064 H 0.60879 0.84374 0.76691 0.0
H2065 H 0.65147 0.92618 0.86002 0.0
H2066 H 0.6679 0.88171 0.75999 0.0
H2067 H 0.58903 0.89315 0.86093 0.0
H2068 H 0.65898 0.90948 0.82415 0.0
H2069 H 0.60282 0.8604 0.80269 0.0
C2070 C 0.62061 0.85547 0.77296 0.0
C2071 C 0.63882 0.86136 0.76033 0.0
C2072 C 0.64363 0.90601 0.83225 0.0
C2073 C 0.63201 0.88073 0.8014 0.0
C2074 C 0.6393 0.91561 0.85268 0.0
C2075 C 0.61961 0.9111 0.86363 0.0
C2076 C 0.62819 0.89175 0.82281 0.0
C2077 C 0.6045 0.89714 0.85329 0.0
C2078 C 0.61715 0.86508 0.7934 0.0
C2079 C 0.65358 0.8767 0.76912 0.0
N2080 N 0.60914 0.88798 0.83363 0.0
N2081 N 0.64983 0.88589 0.78906 0.0
H2082 H 0.13136 0.09098 0.5003 0.0
H2083 H 0.1443 0.17291 0.39911 0.0
H2084 H 0.09553 0.15139 0.4931 0.0
H2085 H 0.17514 0.10936 0.40036 0.0
H2086 H 0.12791 0.16543 0.43439 0.0
H2087 H 0.1483 0.09723 0.46454 0.0
C2088 C 0.12693 0.1055 0.49116 0.0
C2089 C 0.11199 0.12073 0.49981 0.0
C2090 C 0.13826 0.15306 0.42707 0.0
C2091 C 0.13156 0.12804 0.45889 0.0
C2092 C 0.14776 0.15734 0.40683 0.0
C2093 C 0.16115 0.1417 0.39655 0.0
C2094 C 0.14207 0.13297 0.43743 0.0
C2095 C 0.16499 0.12192 0.40763 0.0
C2096 C 0.13667 0.10905 0.47075 0.0
C2097 C 0.10692 0.1392 0.48717 0.0
N2098 N 0.15545 0.11809 0.42746 0.0
N2099 N 0.11675 0.14236 0.46746 0.0
H2100 H 0.35875 0.5836 0.86 0.0
H2101 H 0.40181 0.66563 0.76665 0.0
H2102 H 0.42094 0.61708 0.86131 0.0
H2103 H 0.34226 0.62829 0.76013 0.0
H2104 H 0.40776 0.64904 0.80247 0.0
H2105 H 0.35139 0.60016 0.82403 0.0
C2106 C 0.37089 0.59425 0.85272 0.0
C2107 C 0.39047 0.59892 0.86382 0.0
C2108 C 0.39334 0.64448 0.79326 0.0
C2109 C 0.38207 0.6181 0.82287 0.0
C2110 C 0.3899 0.65405 0.77279 0.0
C2111 C 0.37155 0.64833 0.76027 0.0
C2112 C 0.37833 0.62903 0.80139 0.0
C2113 C 0.35667 0.63318 0.76917 0.0
C2114 C 0.36665 0.60378 0.83224 0.0
C2115 C 0.40556 0.61298 0.85356 0.0
N2116 N 0.36041 0.62402 0.78914 0.0
N2117 N 0.40101 0.62204 0.83384 0.0
H2118 H 0.87836 0.42017 0.50025 0.0
H2119 H 0.86824 0.33945 0.39782 0.0
H2120 H 0.91547 0.36062 0.4925 0.0
H2121 H 0.83524 0.4019 0.3999 0.0
H2122 H 0.88451 0.34708 0.43308 0.0
H2123 H 0.862 0.4142 0.46415 0.0
C2124 C 0.8832 0.40591 0.49092 0.0
C2125 C 0.89831 0.39082 0.49952 0.0
C2126 C 0.87372 0.35919 0.42594 0.0
C2127 C 0.87943 0.38384 0.45821 0.0
C2128 C 0.86429 0.35483 0.4057 0.0
C2129 C 0.85027 0.37009 0.39567 0.0
C2130 C 0.86922 0.37898 0.43659 0.0
C2131 C 0.84588 0.38963 0.40696 0.0
C2132 C 0.87379 0.40252 0.47032 0.0
C2133 C 0.90392 0.37268 0.48663 0.0
N2134 N 0.85534 0.39354 0.42683 0.0
N2135 N 0.89441 0.36967 0.46674 0.0
H2136 H 0.6699 0.12836 0.75034 0.0
H2137 H 0.58926 0.11824 0.64783 0.0
H2138 H 0.61049 0.16567 0.74246 0.0
H2139 H 0.65149 0.08488 0.65022 0.0
H2140 H 0.59691 0.13464 0.68303 0.0
H2141 H 0.66389 0.11192 0.71429 0.0
C2142 C 0.65566 0.13323 0.74099 0.0
C2143 C 0.64062 0.14842 0.74954 0.0
C2144 C 0.60896 0.12375 0.67597 0.0
C2145 C 0.63359 0.12945 0.70828 0.0
C2146 C 0.60459 0.11424 0.65576 0.0
C2147 C 0.61978 0.10007 0.64585 0.0
C2148 C 0.6287 0.11918 0.68669 0.0
C2149 C 0.63928 0.09563 0.6572 0.0
C2150 C 0.65224 0.12378 0.72041 0.0
C2151 C 0.62252 0.15406 0.73663 0.0
N2152 N 0.64319 0.10517 0.67703 0.0
N2153 N 0.61948 0.14451 0.71676 0.0
H2154 H 0.38006 0.09142 0.50999 0.0
H2155 H 0.36395 0.17502 0.60944 0.0
H2156 H 0.4134 0.15339 0.51555 0.0
H2157 H 0.3354 0.11042 0.60917 0.0
H2158 H 0.38042 0.16763 0.57409 0.0
H2159 H 0.36269 0.09802 0.54545 0.0
C2160 C 0.38386 0.10636 0.5187 0.0
C2161 C 0.39824 0.1219 0.50969 0.0
C2162 C 0.37053 0.15504 0.58165 0.0
C2163 C 0.37815 0.12963 0.55029 0.0
C2164 C 0.36098 0.15926 0.6019 0.0
C2165 C 0.34825 0.14328 0.61248 0.0
C2166 C 0.36743 0.13464 0.57162 0.0
C2167 C 0.34502 0.12325 0.60166 0.0
C2168 C 0.37386 0.11013 0.53895 0.0
C2169 C 0.40248 0.14093 0.52179 0.0
N2170 N 0.35461 0.11947 0.58186 0.0
N2171 N 0.39242 0.14428 0.54136 0.0
H2172 H 0.39977 0.34222 0.74204 0.0
H2173 H 0.35939 0.42718 0.65011 0.0
H2174 H 0.34299 0.38335 0.75035 0.0
H2175 H 0.41927 0.3898 0.64699 0.0
H2176 H 0.35176 0.41063 0.68602 0.0
H2177 H 0.40551 0.35823 0.70592 0.0
C2178 C 0.38841 0.35452 0.73623 0.0
C2179 C 0.37093 0.36148 0.74935 0.0
C2180 C 0.36657 0.40614 0.67741 0.0
C2181 C 0.37749 0.38011 0.70788 0.0
C2182 C 0.37096 0.41564 0.65695 0.0
C2183 C 0.39001 0.40996 0.64541 0.0
C2184 C 0.38129 0.39081 0.68631 0.0
C2185 C 0.40435 0.39478 0.65512 0.0
C2186 C 0.39174 0.36375 0.71559 0.0
C2187 C 0.35674 0.3775 0.74085 0.0
N2188 N 0.39967 0.38578 0.67485 0.0
N2189 N 0.36036 0.38632 0.72071 0.0
H2190 H 0.63167 0.4197 0.50998 0.0
H2191 H 0.64439 0.33731 0.61082 0.0
H2192 H 0.59594 0.35919 0.51676 0.0
H2193 H 0.67499 0.40097 0.61004 0.0
H2194 H 0.62817 0.3449 0.57547 0.0
H2195 H 0.64849 0.41332 0.54578 0.0
C2196 C 0.62723 0.40514 0.51903 0.0
C2197 C 0.61236 0.38992 0.51026 0.0
C2198 C 0.63844 0.35727 0.58292 0.0
C2199 C 0.63179 0.38244 0.55121 0.0
C2200 C 0.64784 0.35293 0.60319 0.0
C2201 C 0.66111 0.36857 0.61362 0.0
C2202 C 0.64222 0.37743 0.57268 0.0
C2203 C 0.66494 0.38841 0.60266 0.0
C2204 C 0.6369 0.4015 0.53947 0.0
C2205 C 0.60728 0.37138 0.52279 0.0
N2206 N 0.65549 0.39231 0.58279 0.0
N2207 N 0.61704 0.36814 0.54252 0.0
H2208 H 0.76695 0.60864 0.84392 0.0
H2209 H 0.85995 0.65118 0.92659 0.0
H2210 H 0.75987 0.66743 0.88235 0.0
H2211 H 0.86147 0.58917 0.89278 0.0
H2212 H 0.82397 0.65852 0.91007 0.0
H2213 H 0.80279 0.60267 0.86049 0.0
C2214 C 0.77297 0.62038 0.85573 0.0
C2215 C 0.76028 0.63852 0.86177 0.0
C2216 C 0.83223 0.6433 0.90638 0.0
C2217 C 0.80143 0.63171 0.88103 0.0
C2218 C 0.85272 0.63906 0.91589 0.0
C2219 C 0.86388 0.61955 0.91111 0.0
C2220 C 0.8229 0.62794 0.89196 0.0
C2221 C 0.85367 0.6045 0.89698 0.0
C2222 C 0.79345 0.61693 0.8653 0.0
C2223 C 0.76903 0.65318 0.87722 0.0
N2224 N 0.83393 0.60905 0.88792 0.0
N2225 N 0.78901 0.64944 0.88635 0.0
H2226 H 0.90172 0.90001 0.33358 0.0
H2227 H 0.85876 0.99278 0.41631 0.0
H2228 H 0.83993 0.89817 0.36777 0.0
H2229 H 0.91778 1.00002 0.37826 0.0
H2230 H 0.85307 0.95688 0.39982 0.0
H2231 H 0.90906 0.93595 0.35025 0.0
C2232 C 0.88967 0.90715 0.34442 0.0
C2233 C 0.8702 0.89593 0.34924 0.0
C2234 C 0.86732 0.96627 0.39508 0.0
C2235 C 0.87857 0.93683 0.36852 0.0
C2236 C 0.87062 0.98678 0.40459 0.0
C2237 C 0.88873 0.99953 0.39864 0.0
C2238 C 0.88224 0.95832 0.37945 0.0
C2239 C 0.90354 0.9908 0.38332 0.0
C2240 C 0.89389 0.92761 0.354 0.0
C2241 C 0.85522 0.90601 0.36353 0.0
N2242 N 0.89995 0.97079 0.37421 0.0
N2243 N 0.85975 0.92572 0.37264 0.0
H2244 H 0.15034 0.9236 0.89523 0.0
H2245 H 0.25036 0.84067 0.8797 0.0
H2246 H 0.15066 0.85909 0.924 0.0
H2247 H 0.24391 0.90214 0.84558 0.0
H2248 H 0.21471 0.84693 0.89689 0.0
H2249 H 0.18554 0.91615 0.87863 0.0
C2250 C 0.15784 0.90783 0.8982 0.0
C2251 C 0.14732 0.89191 0.91106 0.0
C2252 C 0.22106 0.85899 0.88557 0.0
C2253 C 0.18809 0.8832 0.89173 0.0
C2254 C 0.2414 0.85543 0.87569 0.0
C2255 C 0.25023 0.87094 0.86117 0.0
C2256 C 0.20945 0.87827 0.88103 0.0
C2257 C 0.23783 0.88971 0.85663 0.0
C2258 C 0.17803 0.90357 0.88858 0.0
C2259 C 0.15812 0.87187 0.91429 0.0
N2260 N 0.21819 0.89287 0.8666 0.0
N2261 N 0.17791 0.86806 0.90463 0.0
H2262 H 0.09014 0.51029 0.38073 0.0
H2263 H 0.17368 0.60959 0.36386 0.0
H2264 H 0.15255 0.51581 0.41327 0.0
H2265 H 0.10861 0.60991 0.33636 0.0
H2266 H 0.1663 0.57432 0.38037 0.0
H2267 H 0.0964 0.54593 0.36353 0.0
C2268 C 0.10511 0.51903 0.38439 0.0
C2269 C 0.12088 0.50995 0.39848 0.0
C2270 C 0.15358 0.58199 0.37072 0.0
C2271 C 0.1282 0.55072 0.3786 0.0
C2272 C 0.15779 0.60221 0.36115 0.0
C2273 C 0.1417 0.61293 0.34868 0.0
C2274 C 0.13309 0.5721 0.36791 0.0
C2275 C 0.12153 0.60229 0.34577 0.0
C2276 C 0.10866 0.53937 0.3745 0.0
C2277 C 0.13992 0.52209 0.40256 0.0
N2278 N 0.11776 0.58247 0.35537 0.0
N2279 N 0.14306 0.54174 0.3926 0.0
H2280 H 0.76724 0.40043 0.66713 0.0
H2281 H 0.8596 0.35904 0.58312 0.0
H2282 H 0.75969 0.34238 0.62767 0.0
H2283 H 0.86214 0.41972 0.61922 0.0
H2284 H 0.8237 0.35147 0.59976 0.0
H2285 H 0.80322 0.40627 0.65085 0.0
C2286 C 0.77319 0.38882 0.65515 0.0
C2287 C 0.76032 0.37094 0.64873 0.0
C2288 C 0.83218 0.36644 0.60394 0.0
C2289 C 0.80163 0.37761 0.62979 0.0
C2290 C 0.85263 0.3708 0.59438 0.0
C2291 C 0.86402 0.39004 0.59971 0.0
C2292 C 0.82315 0.3814 0.61896 0.0
C2293 C 0.85415 0.40463 0.61455 0.0
C2294 C 0.79374 0.3922 0.64576 0.0
C2295 C 0.76899 0.35644 0.63309 0.0
N2296 N 0.83444 0.39998 0.62361 0.0
N2297 N 0.78905 0.36012 0.62411 0.0
H2298 H 0.60862 0.90048 0.67691 0.0
H2299 H 0.65023 0.99289 0.59307 0.0
H2300 H 0.66972 0.89826 0.64151 0.0
H2301 H 0.59233 1.00065 0.6327 0.0
H2302 H 0.65605 0.95693 0.60943 0.0
H2303 H 0.60112 0.93641 0.66031 0.0
C2304 C 0.62049 0.90753 0.66582 0.0
C2305 C 0.63982 0.89621 0.66066 0.0
C2306 C 0.64202 0.96645 0.61454 0.0
C2307 C 0.63125 0.93712 0.64144 0.0
C2308 C 0.63864 0.98699 0.60511 0.0
C2309 C 0.62081 0.99991 0.61155 0.0
C2310 C 0.62746 0.95863 0.63058 0.0
C2311 C 0.60634 0.99131 0.62726 0.0
C2312 C 0.61617 0.92799 0.65628 0.0
C2313 C 0.65455 0.90619 0.64604 0.0
N2314 N 0.61001 0.97126 0.63628 0.0
N2315 N 0.64993 0.92591 0.63698 0.0
H2316 H 0.1497 0.15184 0.58334 0.0
H2317 H 0.2429 0.10937 0.66587 0.0
H2318 H 0.14759 0.09063 0.61857 0.0
H2319 H 0.24977 0.16827 0.62757 0.0
H2320 H 0.20683 0.10364 0.64976 0.0
H2321 H 0.18568 0.15928 0.59984 0.0
C2322 C 0.15677 0.13995 0.59439 0.0
C2323 C 0.14549 0.12059 0.59951 0.0
C2324 C 0.21617 0.11787 0.64488 0.0
C2325 C 0.18647 0.12907 0.61859 0.0
C2326 C 0.23679 0.12118 0.65417 0.0
C2327 C 0.24948 0.13927 0.64803 0.0
C2328 C 0.20806 0.13275 0.6293 0.0
C2329 C 0.2406 0.15405 0.63277 0.0
C2330 C 0.17727 0.14422 0.60387 0.0
C2331 C 0.1555 0.10582 0.61406 0.0
N2332 N 0.22049 0.15043 0.62388 0.0
N2333 N 0.17526 0.11039 0.62305 0.0
H2334 H 0.33678 0.60957 0.64604 0.0
H2335 H 0.42023 0.51003 0.63026 0.0
H2336 H 0.40159 0.60996 0.67413 0.0
H2337 H 0.35873 0.51627 0.59618 0.0
H2338 H 0.41385 0.54567 0.64746 0.0
H2339 H 0.34437 0.57433 0.62955 0.0
C2340 C 0.35265 0.60222 0.64888 0.0
C2341 C 0.36861 0.61295 0.6615 0.0
C2342 C 0.40181 0.53927 0.63615 0.0
C2343 C 0.37747 0.57215 0.64231 0.0
C2344 C 0.40544 0.51893 0.62626 0.0
C2345 C 0.38995 0.51005 0.61174 0.0
C2346 C 0.38248 0.5508 0.63162 0.0
C2347 C 0.37113 0.52238 0.60723 0.0
C2348 C 0.35698 0.58201 0.63933 0.0
C2349 C 0.38877 0.60233 0.66459 0.0
N2350 N 0.3679 0.54201 0.6172 0.0
N2351 N 0.39266 0.58253 0.655 0.0
H2352 H 0.92729 0.85981 0.65154 0.0
H2353 H 0.84212 0.76813 0.61097 0.0
H2354 H 0.89001 0.863 0.59161 0.0
H2355 H 0.8832 0.75956 0.66774 0.0
H2356 H 0.85826 0.8042 0.60531 0.0
H2357 H 0.91067 0.8239 0.65912 0.0
C2358 C 0.91576 0.85299 0.63995 0.0
C2359 C 0.91012 0.86455 0.62091 0.0
C2360 C 0.86374 0.79449 0.61906 0.0
C2361 C 0.8909 0.82367 0.62957 0.0
C2362 C 0.85444 0.77387 0.62234 0.0
C2363 C 0.86134 0.76069 0.6398 0.0
C2364 C 0.88013 0.80211 0.63333 0.0
C2365 C 0.87739 0.76911 0.65401 0.0
C2366 C 0.90622 0.83253 0.64431 0.0
C2367 C 0.89496 0.85487 0.60653 0.0
N2368 N 0.88629 0.78923 0.65043 0.0
N2369 N 0.88592 0.83515 0.61119 0.0
H2370 H 0.9268 0.15046 0.85936 0.0
H2371 H 0.84325 0.24299 0.90137 0.0
H2372 H 0.89059 0.14758 0.91995 0.0
H2373 H 0.88231 0.2504 0.84304 0.0
H2374 H 0.85946 0.20694 0.90709 0.0
H2375 H 0.9103 0.18647 0.85203 0.0
C2376 C 0.91553 0.15738 0.87115 0.0
C2377 C 0.91013 0.14586 0.89029 0.0
C2378 C 0.86448 0.2164 0.89298 0.0
C2379 C 0.89105 0.18688 0.88193 0.0
C2380 C 0.85514 0.237 0.88968 0.0
C2381 C 0.86145 0.24984 0.87175 0.0
C2382 C 0.88031 0.20846 0.87827 0.0
C2383 C 0.87696 0.24112 0.85713 0.0
C2384 C 0.90606 0.17789 0.86693 0.0
C2385 C 0.89531 0.15567 0.90493 0.0
N2386 N 0.8859 0.22103 0.86074 0.0
N2387 N 0.88633 0.17545 0.90042 0.0
H2388 H 0.49317 0.91679 0.35926 0.0
H2389 H 0.40027 0.83372 0.40129 0.0
H2390 H 0.50028 0.87801 0.41782 0.0
H2391 H 0.39854 0.86821 0.33966 0.0
H2392 H 0.43621 0.85028 0.40875 0.0
H2393 H 0.45729 0.90032 0.35326 0.0
C2394 C 0.48714 0.90492 0.37095 0.0
C2395 C 0.49986 0.89876 0.38903 0.0
C2396 C 0.42791 0.85412 0.39359 0.0
C2397 C 0.45866 0.87961 0.38218 0.0
C2398 C 0.40744 0.8446 0.38929 0.0
C2399 C 0.39624 0.84953 0.36983 0.0
C2400 C 0.43718 0.86871 0.37836 0.0
C2401 C 0.40638 0.86387 0.35494 0.0
C2402 C 0.46665 0.89542 0.36748 0.0
C2403 C 0.4911 0.88325 0.40362 0.0
N2404 N 0.4261 0.87293 0.35954 0.0
N2405 N 0.4711 0.87417 0.39985 0.0
H2406 H 0.11614 0.36131 0.92193 0.0
H2407 H 0.13018 0.26032 0.83993 0.0
H2408 H 0.08592 0.36016 0.85809 0.0
H2409 H 0.16419 0.26683 0.90144 0.0
H2410 H 0.11332 0.29618 0.8459 0.0
H2411 H 0.13256 0.32603 0.91459 0.0
C2412 C 0.11283 0.35362 0.90631 0.0
C2413 C 0.09959 0.36392 0.89056 0.0
C2414 C 0.12454 0.2898 0.85803 0.0
C2415 C 0.1187 0.32301 0.882 0.0
C2416 C 0.13424 0.26932 0.85463 0.0
C2417 C 0.14863 0.26045 0.87025 0.0
C2418 C 0.12917 0.3015 0.87723 0.0
C2419 C 0.15323 0.27293 0.88895 0.0
C2420 C 0.12234 0.33337 0.90212 0.0
C2421 C 0.09595 0.35287 0.87073 0.0
N2422 N 0.14347 0.2927 0.89193 0.0
N2423 N 0.1055 0.33301 0.86699 0.0
H2424 H 0.01697 0.09352 0.85973 0.0
H2425 H 0.10997 0.17651 0.90159 0.0
H2426 H 0.00976 0.13238 0.91822 0.0
H2427 H 0.11067 0.14325 0.83926 0.0
H2428 H 0.07415 0.15976 0.90932 0.0
H2429 H 0.05276 0.11011 0.85367 0.0
C2430 C 0.02296 0.10543 0.8714 0.0
C2431 C 0.01024 0.1116 0.88946 0.0
C2432 C 0.08221 0.15624 0.89394 0.0
C2433 C 0.05133 0.13089 0.88253 0.0
C2434 C 0.1026 0.16587 0.88949 0.0
C2435 C 0.11347 0.16132 0.86976 0.0
C2436 C 0.07272 0.14192 0.8786 0.0
C2437 C 0.1031 0.14728 0.85475 0.0
C2438 C 0.0434 0.11501 0.86788 0.0
C2439 C 0.01895 0.12716 0.90403 0.0
N2440 N 0.08347 0.13809 0.85951 0.0
N2441 N 0.03891 0.13631 0.90022 0.0
H2442 H 0.58345 0.15003 0.15134 0.0
H2443 H 0.66665 0.24288 0.10943 0.0
H2444 H 0.61821 0.14825 0.08986 0.0
H2445 H 0.62771 0.2501 0.16787 0.0
H2446 H 0.65029 0.20694 0.10352 0.0
H2447 H 0.60006 0.18594 0.15888 0.0
C2448 C 0.59441 0.15718 0.13939 0.0
C2449 C 0.59939 0.14599 0.11995 0.0
C2450 C 0.64533 0.21633 0.11769 0.0
C2451 C 0.61862 0.18688 0.12856 0.0
C2452 C 0.65476 0.23687 0.12111 0.0
C2453 C 0.64852 0.24963 0.13912 0.0
C2454 C 0.62949 0.20837 0.13238 0.0
C2455 C 0.633 0.24088 0.15371 0.0
C2456 C 0.60395 0.17763 0.14374 0.0
C2457 C 0.61383 0.15609 0.10512 0.0
N2458 N 0.62398 0.22085 0.15 0.0
N2459 N 0.6229 0.17579 0.10977 0.0
H2460 H 0.40024 0.14595 0.1732 0.0
H2461 H 0.49983 0.12984 0.08992 0.0
H2462 H 0.40002 0.17401 0.10838 0.0
H2463 H 0.49365 0.09618 0.15166 0.0
H2464 H 0.46418 0.14704 0.09617 0.0
H2465 H 0.43544 0.12938 0.16569 0.0
C2466 C 0.40762 0.14877 0.15734 0.0
C2467 C 0.39695 0.16141 0.14135 0.0
C2468 C 0.47059 0.13582 0.10829 0.0
C2469 C 0.43772 0.14212 0.13259 0.0
C2470 C 0.49094 0.12593 0.10473 0.0
C2471 C 0.49984 0.11154 0.12033 0.0
C2472 C 0.45906 0.13141 0.12765 0.0
C2473 C 0.48752 0.10714 0.13917 0.0
C2474 C 0.42781 0.13916 0.15305 0.0
C2475 C 0.4076 0.16446 0.12121 0.0
N2476 N 0.46787 0.1171 0.14233 0.0
N2477 N 0.42739 0.15482 0.11737 0.0
H2478 H 0.61058 0.36554 0.17248 0.0
H2479 H 0.50994 0.37953 0.09004 0.0
H2480 H 0.6098 0.33549 0.10856 0.0
H2481 H 0.51661 0.41433 0.15109 0.0
H2482 H 0.54571 0.36257 0.09626 0.0
H2483 H 0.57534 0.382 0.16496 0.0
C2484 C 0.60297 0.36227 0.15682 0.0
C2485 C 0.61337 0.34908 0.14109 0.0
C2486 C 0.53939 0.37398 0.10823 0.0
C2487 C 0.57253 0.36824 0.13231 0.0
C2488 C 0.51897 0.38374 0.10469 0.0
C2489 C 0.51016 0.39838 0.12011 0.0
C2490 C 0.55109 0.37879 0.12739 0.0
C2491 C 0.52266 0.40317 0.13875 0.0
C2492 C 0.58276 0.37181 0.15252 0.0
C2493 C 0.60243 0.34548 0.12119 0.0
N2494 N 0.54237 0.39334 0.14189 0.0
N2495 N 0.58261 0.35506 0.11734 0.0
H2496 H 0.13613 0.17826 0.26946 0.0
H2497 H 0.15694 0.30265 0.23806 0.0
H2498 H 0.1833 0.22046 0.30017 0.0
H2499 H 0.12391 0.256 0.19698 0.0
H2500 H 0.15434 0.27695 0.2687 0.0
H2501 H 0.12046 0.21014 0.25067 0.0
C2502 C 0.14258 0.1944 0.27293 0.0
C2503 C 0.16067 0.19687 0.28678 0.0
C2504 C 0.14687 0.27265 0.25323 0.0
C2505 C 0.14333 0.23328 0.26497 0.0
C2506 C 0.14795 0.28753 0.23584 0.0
C2507 C 0.14061 0.28139 0.215 0.0
C2508 C 0.13839 0.25156 0.24963 0.0
C2509 C 0.12973 0.26132 0.21285 0.0
C2510 C 0.13374 0.21256 0.26213 0.0
C2511 C 0.16887 0.21798 0.29029 0.0
N2512 N 0.12936 0.24691 0.22979 0.0
N2513 N 0.16032 0.23534 0.27927 0.0
H2514 H 0.47044 0.58133 0.95549 0.0
H2515 H 0.50742 0.63812 0.06376 0.0
H2516 H 0.42829 0.62136 0.99506 0.0
H2517 H 0.55124 0.60292 0.02143 0.0
H2518 H 0.48149 0.64165 0.03358 0.0
H2519 H 0.50227 0.59732 0.9735 0.0
C2520 C 0.46793 0.59434 0.96713 0.0
C2521 C 0.44674 0.60047 0.97333 0.0
C2522 C 0.49708 0.63381 0.03055 0.0
C2523 C 0.48308 0.61792 0.99524 0.0
C2524 C 0.51206 0.63213 0.04773 0.0
C2525 C 0.53145 0.62021 0.04505 0.0
C2526 C 0.5013 0.62292 0.01073 0.0
C2527 C 0.53651 0.61239 0.02409 0.0
C2528 C 0.48614 0.60324 0.97778 0.0
C2529 C 0.44441 0.6164 0.98965 0.0
N2530 N 0.52123 0.61328 0.00789 0.0
N2531 N 0.46231 0.62433 1.00025 0.0
H2532 H 0.83227 0.28996 0.30581 0.0
H2533 H 0.88741 0.25045 0.19734 0.0
H2534 H 0.871 0.33119 0.26403 0.0
H2535 H 0.85142 0.20814 0.24051 0.0
H2536 H 0.89156 0.27684 0.22706 0.0
H2537 H 0.84793 0.25772 0.28824 0.0
C2538 C 0.84495 0.29222 0.29376 0.0
C2539 C 0.85078 0.31325 0.2868 0.0
C2540 C 0.88341 0.26147 0.23038 0.0
C2541 C 0.86783 0.2764 0.26544 0.0
C2542 C 0.88139 0.24622 0.21346 0.0
C2543 C 0.86908 0.22713 0.21652 0.0
C2544 C 0.87248 0.25782 0.25029 0.0
C2545 C 0.86119 0.22262 0.23757 0.0
C2546 C 0.85365 0.27376 0.28337 0.0
C2547 C 0.86626 0.3152 0.27001 0.0
N2548 N 0.86244 0.23815 0.2535 0.0
N2549 N 0.87401 0.29706 0.2597 0.0
H2550 H 0.57957 0.88559 0.98765 0.0
H2551 H 0.45584 0.90851 0.02018 0.0
H2552 H 0.53877 0.93567 0.95973 0.0
H2553 H 0.50187 0.87352 0.0603 0.0
H2554 H 0.48139 0.90613 0.98941 0.0
H2555 H 0.54727 0.86998 0.0058 0.0
C2556 C 0.56363 0.89273 0.98463 0.0
C2557 C 0.56166 0.91162 0.97182 0.0
C2558 C 0.48556 0.89818 1.00468 0.0
C2559 C 0.52483 0.89429 0.99284 0.0
C2560 C 0.47076 0.89914 0.02213 0.0
C2561 C 0.4768 0.89118 0.04276 0.0
C2562 C 0.50648 0.88919 0.00801 0.0
C2563 C 0.49663 0.8798 0.04459 0.0
C2564 C 0.54524 0.88391 0.99506 0.0
C2565 C 0.54082 0.92067 0.96887 0.0
N2566 N 0.51099 0.87956 0.0276 0.0
N2567 N 0.52325 0.91208 0.97949 0.0
H2568 H 0.12258 0.74989 0.3121 0.0
H2569 H 0.17797 0.7903 0.20392 0.0
H2570 H 0.15893 0.70807 0.26876 0.0
H2571 H 0.13978 0.83135 0.24636 0.0
H2572 H 0.16226 0.75799 0.22128 0.0
H2573 H 0.11861 0.77658 0.28262 0.0
C2574 C 0.1287 0.74582 0.29597 0.0
C2575 C 0.14108 0.72679 0.29281 0.0
C2576 C 0.15667 0.77401 0.22635 0.0
C2577 C 0.13787 0.75783 0.25933 0.0
C2578 C 0.16539 0.79252 0.21607 0.0
C2579 C 0.15973 0.81352 0.22326 0.0
C2580 C 0.14261 0.77655 0.24438 0.0
C2581 C 0.1444 0.81539 0.2402 0.0
C2582 C 0.1268 0.76125 0.2792 0.0
C2583 C 0.1491 0.7225 0.27177 0.0
N2584 N 0.13661 0.79719 0.25038 0.0
N2585 N 0.14795 0.73819 0.25599 0.0
H2586 H 0.95629 0.60116 0.98949 0.0
H2587 H 0.07937 0.62488 0.02461 0.0
H2588 H 1.00274 0.63645 0.95013 0.0
H2589 H 0.03954 0.57205 0.04856 0.0
H2590 H 0.04702 0.64044 0.00641 0.0
H2591 H 0.98163 0.60308 0.02048 0.0
C2592 C 0.97125 0.6105 0.98777 0.0
C2593 C 0.97748 0.61868 0.96728 0.0
C2594 C 0.0452 0.62589 0.01634 0.0
C2595 C 0.00687 0.6202 1.00228 0.0
C2596 C 0.0636 0.6171 0.02679 0.0
C2597 C 0.06192 0.59746 0.03849 0.0
C2598 C 0.02507 0.61481 0.01751 0.0
C2599 C 0.04133 0.58759 0.04033 0.0
C2600 C 0.98592 0.61121 0.00534 0.0
C2601 C 0.99736 0.63001 0.96573 0.0
N2602 N 0.02375 0.59625 0.02979 0.0
N2603 N 0.01158 0.63004 0.98284 0.0
H2604 H 0.8527 0.80308 0.27195 0.0
H2605 H 0.87381 0.67912 0.23897 0.0
H2606 H 0.88621 0.75612 0.31227 0.0
H2607 H 0.82541 0.72115 0.20996 0.0
H2608 H 0.88961 0.71097 0.25774 0.0
H2609 H 0.85503 0.77767 0.24105 0.0
C2610 C 0.86173 0.78796 0.27394 0.0
C2611 C 0.8693 0.78165 0.29465 0.0
C2612 C 0.87601 0.71336 0.24664 0.0
C2613 C 0.87122 0.75215 0.25972 0.0
C2614 C 0.8671 0.69523 0.23586 0.0
C2615 C 0.84862 0.69767 0.22254 0.0
C2616 C 0.86613 0.73401 0.24429 0.0
C2617 C 0.8401 0.71872 0.21947 0.0
C2618 C 0.86267 0.77325 0.25641 0.0
C2619 C 0.88022 0.76157 0.29651 0.0
N2620 N 0.84875 0.73604 0.23046 0.0
N2621 N 0.88046 0.74732 0.27943 0.0
H2622 H 0.01047 0.87251 0.94819 0.0
H2623 H 0.97085 0.92844 0.05635 0.0
H2624 H 0.0526 0.90925 0.9909 0.0
H2625 H 0.92966 0.88972 0.0145 0.0
H2626 H 1.00311 0.9127 0.03885 0.0
H2627 H 0.98413 0.86855 0.97797 0.0
C2628 C 0.01469 0.87873 0.96424 0.0
C2629 C 0.03369 0.89121 0.96713 0.0
C2630 C 0.98707 0.90702 0.03394 0.0
C2631 C 1.00305 0.88802 1.00096 0.0
C2632 C 0.96861 0.91577 0.04427 0.0
C2633 C 0.94758 0.90997 0.03725 0.0
C2634 C 0.98445 0.89278 0.01605 0.0
C2635 C 0.94564 0.89445 0.0205 0.0
C2636 C 0.99946 0.87683 0.98118 0.0
C2637 C 0.03818 0.89935 0.98809 0.0
N2638 N 0.96379 0.88663 0.01027 0.0
N2639 N 0.02267 0.8982 1.00405 0.0
H2640 H 0.23898 0.15903 0.30397 0.0
H2641 H 0.27421 0.13573 0.1809 0.0
H2642 H 0.19987 0.12364 0.25738 0.0
H2643 H 0.29896 0.18784 0.2212 0.0
H2644 H 0.25588 0.12009 0.21312 0.0
H2645 H 0.27007 0.15716 0.27875 0.0
C2646 C 0.23734 0.14968 0.289 0.0
C2647 C 0.21688 0.14145 0.2827 0.0
C2648 C 0.26599 0.1345 0.21507 0.0
C2649 C 0.252 0.14002 0.25344 0.0
C2650 C 0.27652 0.14333 0.19674 0.0
C2651 C 0.28847 0.1628 0.19859 0.0
C2652 C 0.26731 0.14538 0.23529 0.0
C2653 C 0.29049 0.17244 0.21927 0.0
C2654 C 0.25496 0.14901 0.2744 0.0
C2655 C 0.21544 0.13012 0.26281 0.0
N2656 N 0.27985 0.16376 0.23678 0.0
N2657 N 0.2326 0.13013 0.24866 0.0
H2658 H 0.37251 0.56372 1.00219 0.0
H2659 H 0.42861 0.45507 0.03988 0.0
H2660 H 0.40805 0.52119 0.95884 0.0
H2661 H 0.38937 0.49563 0.08183 0.0
H2662 H 0.41285 0.47312 0.00796 0.0
H2663 H 0.3689 0.53368 0.02828 0.0
C2664 C 0.37857 0.54767 0.99769 0.0
C2665 C 0.39058 0.54489 0.97837 0.0
C2666 C 0.40705 0.47762 0.02408 0.0
C2667 C 0.38778 0.51074 0.00872 0.0
C2668 C 0.41581 0.46695 0.04234 0.0
C2669 C 0.40985 0.47342 0.0635 0.0
C2670 C 0.39265 0.49533 0.02703 0.0
C2671 C 0.3942 0.49001 0.06574 0.0
C2672 C 0.37685 0.53057 0.01276 0.0
C2673 C 0.3985 0.52392 0.9735 0.0
N2674 N 0.38638 0.5006 0.04779 0.0
N2675 N 0.39755 0.50781 0.98887 0.0
H2676 H 0.70702 0.32707 0.22023 0.0
H2677 H 0.77224 0.35645 0.30436 0.0
H2678 H 0.7422 0.37266 0.17991 0.0
H2679 H 0.81337 0.38311 0.25387 0.0
H2680 H 0.74081 0.35944 0.27992 0.0
H2681 H 0.72467 0.34201 0.25244 0.0
C2682 C 0.71753 0.34114 0.21834 0.0
C2683 C 0.72258 0.34911 0.19749 0.0
C2684 C 0.75657 0.36501 0.27417 0.0
C2685 C 0.74406 0.36594 0.2344 0.0
C2686 C 0.77444 0.36399 0.28849 0.0
C2687 C 0.79543 0.3695 0.28109 0.0
C2688 C 0.75994 0.37113 0.2522 0.0
C2689 C 0.79743 0.3786 0.26014 0.0
C2690 C 0.72795 0.34964 0.23684 0.0
C2691 C 0.73761 0.36633 0.1958 0.0
N2692 N 0.78006 0.37864 0.24626 0.0
N2693 N 0.74807 0.37392 0.21395 0.0
H2694 H 0.62326 0.01883 0.0814 0.0
H2695 H 0.60195 0.98979 0.9568 0.0
H2696 H 0.57753 0.05195 0.03943 0.0
H2697 H 0.63544 0.9481 1.00255 0.0
H2698 H 0.60512 0.02019 0.98272 0.0
H2699 H 0.63886 1.00048 0.04928 0.0
C2700 C 0.61711 0.02289 0.06528 0.0
C2701 C 0.59942 0.03726 0.06294 0.0
C2702 C 0.61257 1.00464 0.98677 0.0
C2703 C 0.61664 0.01592 0.02623 0.0
C2704 C 0.61115 0.98739 0.97176 0.0
C2705 C 0.61847 0.96646 0.9776 0.0
C2706 C 0.6213 1.00078 0.00771 0.0
C2707 C 0.62965 0.96405 0.99747 0.0
C2708 C 0.62592 0.01235 0.04697 0.0
C2709 C 0.59163 0.04159 0.04183 0.0
N2710 N 0.6303 0.98085 0.01203 0.0
N2711 N 0.60008 0.03075 0.02431 0.0
H2712 H 0.27048 0.87423 0.33138 0.0
H2713 H 0.23836 0.85292 0.20722 0.0
H2714 H 0.30011 0.82603 0.28956 0.0
H2715 H 0.19759 0.88624 0.25392 0.0
H2716 H 0.26908 0.85536 0.23284 0.0
H2717 H 0.25177 0.88986 0.29943 0.0
C2718 C 0.27374 0.86753 0.3153 0.0
C2719 C 0.28723 0.84916 0.31296 0.0
C2720 C 0.25366 0.86293 0.23716 0.0
C2721 C 0.26553 0.86647 0.27649 0.0
C2722 C 0.23623 0.86193 0.22233 0.0
C2723 C 0.21545 0.86941 0.2285 0.0
C2724 C 0.25017 0.87147 0.25824 0.0
C2725 C 0.2134 0.88032 0.24857 0.0
C2726 C 0.26299 0.87635 0.29711 0.0
C2727 C 0.29047 0.84065 0.29193 0.0
N2728 N 0.23039 0.88062 0.26293 0.0
N2729 N 0.27951 0.8492 0.27454 0.0
H2730 H 0.13783 0.56287 0.00924 0.0
H2731 H 0.08229 0.45447 0.96983 0.0
H2732 H 0.10216 0.51957 0.05168 0.0
H2733 H 0.1206 0.49637 0.92834 0.0
H2734 H 0.09813 0.47205 1.00195 0.0
H2735 H 0.14163 0.53327 0.98266 0.0
C2736 C 0.13182 0.54673 0.01345 0.0
C2737 C 0.11968 0.54362 0.03264 0.0
C2738 C 0.10372 0.47696 0.98588 0.0
C2739 C 0.12269 0.50999 1.00174 0.0
C2740 C 0.09492 0.46655 0.96748 0.0
C2741 C 0.1006 0.47351 0.94641 0.0
C2742 C 0.11785 0.49491 0.98315 0.0
C2743 C 0.11599 0.49038 0.94436 0.0
C2744 C 0.13363 0.5299 0.99809 0.0
C2745 C 0.1118 0.52256 0.03713 0.0
N2746 N 0.12384 0.5007 0.96245 0.0
N2747 N 0.11285 0.5067 0.0215 0.0
H2748 H 0.7702 0.65952 0.20582 0.0
H2749 H 0.73628 0.63619 0.32917 0.0
H2750 H 0.8098 0.6243 0.25212 0.0
H2751 H 0.71013 0.68753 0.28876 0.0
H2752 H 0.75444 0.62058 0.29686 0.0
H2753 H 0.73924 0.65736 0.23119 0.0
C2754 C 0.77199 0.65015 0.22076 0.0
C2755 C 0.79253 0.64206 0.22694 0.0
C2756 C 0.74407 0.63481 0.29491 0.0
C2757 C 0.75758 0.64029 0.25638 0.0
C2758 C 0.73364 0.64362 0.3133 0.0
C2759 C 0.72134 0.66287 0.31144 0.0
C2760 C 0.74234 0.64551 0.27462 0.0
C2761 C 0.71888 0.67229 0.29071 0.0
C2762 C 0.75444 0.64931 0.23545 0.0
C2763 C 0.79416 0.63068 0.24678 0.0
N2764 N 0.72946 0.66366 0.27314 0.0
N2765 N 0.77708 0.63054 0.26103 0.0
H2766 H 0.92701 0.05519 0.96998 0.0
H2767 H 0.87316 0.94536 0.00769 0.0
H2768 H 0.88974 0.01307 0.92777 0.0
H2769 H 0.90735 0.9889 0.05111 0.0
H2770 H 0.86914 0.97515 0.98138 0.0
H2771 H 0.91123 0.03698 1.0018 0.0
C2772 C 0.91461 0.04291 0.96741 0.0
C2773 C 0.90923 0.03606 0.94622 0.0
C2774 C 0.87687 0.97852 0.99695 0.0
C2775 C 0.89205 0.014 0.9826 0.0
C2776 C 0.87882 0.96156 0.01214 0.0
C2777 C 0.89059 0.96471 0.03155 0.0
C2778 C 0.88733 0.99861 1.00097 0.0
C2779 C 0.898 0.98588 0.03637 0.0
C2780 C 0.90585 0.03216 0.98563 0.0
C2781 C 0.89412 0.01899 0.94388 0.0
N2782 N 0.89684 1.00188 0.0209 0.0
N2783 N 0.8863 0.00835 0.9618 0.0
H2784 H 0.25955 0.19733 0.12256 0.0
H2785 H 0.21986 0.30576 0.17769 0.0
H2786 H 0.30182 0.24074 0.15831 0.0
H2787 H 0.17859 0.26375 0.13926 0.0
H2788 H 0.25207 0.28826 0.16194 0.0
H2789 H 0.23301 0.22693 0.11849 0.0
C2790 C 0.26374 0.21349 0.12853 0.0
C2791 C 0.28286 0.21664 0.14077 0.0
C2792 C 0.23603 0.28332 0.15631 0.0
C2793 C 0.25201 0.25027 0.13746 0.0
C2794 C 0.21758 0.29368 0.16505 0.0
C2795 C 0.19654 0.28665 0.15933 0.0
C2796 C 0.23338 0.26535 0.14217 0.0
C2797 C 0.19458 0.26979 0.14392 0.0
C2798 C 0.2484 0.23033 0.12656 0.0
C2799 C 0.28732 0.23773 0.1486 0.0
N2800 N 0.21272 0.25952 0.13612 0.0
N2801 N 0.27171 0.25359 0.1474 0.0
H2802 H 0.18176 0.73407 0.37454 0.0
H2803 H 0.30436 0.77105 0.35081 0.0
H2804 H 0.22128 0.71229 0.32053 0.0
H2805 H 0.25741 0.80977 0.38616 0.0
H2806 H 0.27928 0.73983 0.35241 0.0
H2807 H 0.21402 0.75238 0.39019 0.0
C2808 C 0.19746 0.73238 0.36649 0.0
C2809 C 0.19907 0.72131 0.3465 0.0
C2810 C 0.27484 0.75488 0.36064 0.0
C2811 C 0.2358 0.74235 0.36399 0.0
C2812 C 0.28935 0.77258 0.36011 0.0
C2813 C 0.2829 0.79297 0.36839 0.0
C2814 C 0.25383 0.75769 0.36957 0.0
C2815 C 0.26296 0.79426 0.37965 0.0
C2816 C 0.2158 0.74289 0.37534 0.0
C2817 C 0.21955 0.7201 0.33631 0.0
N2818 N 0.24889 0.77701 0.37952 0.0
N2819 N 0.23708 0.73064 0.34506 0.0
H2820 H 0.98786 0.58043 0.88526 0.0
H2821 H 0.0219 0.45684 0.90803 0.0
H2822 H 0.96164 0.53977 0.93635 0.0
H2823 H 0.06186 0.50347 0.87364 0.0
H2824 H 0.99104 0.48235 0.90601 0.0
H2825 H 0.00639 0.54826 0.86977 0.0
C2826 C 0.98527 0.56453 0.89265 0.0
C2827 C 0.9728 0.56257 0.91178 0.0
C2828 C 0.0063 0.48666 0.89811 0.0
C2829 C 0.99423 0.5259 0.89455 0.0
C2830 C 0.0238 0.47189 0.89887 0.0
C2831 C 0.04441 0.47809 0.89097 0.0
C2832 C 0.00954 0.50768 0.88935 0.0
C2833 C 0.04617 0.4981 0.87987 0.0
C2834 C 0.99592 0.54622 0.88391 0.0
C2835 C 0.97045 0.5418 0.92116 0.0
N2836 N 0.02912 0.5124 0.87979 0.0
N2837 N 0.98123 0.52431 0.9126 0.0
H2838 H 0.79043 0.80587 0.33259 0.0
H2839 H 0.75074 0.69724 0.38721 0.0
H2840 H 0.83178 0.76355 0.37059 0.0
H2841 H 0.70842 0.74099 0.35194 0.0
H2842 H 0.77736 0.72675 0.39138 0.0
H2843 H 0.75825 0.7884 0.34841 0.0
C2844 C 0.79274 0.79372 0.34516 0.0
C2845 C 0.81379 0.7866 0.35074 0.0
C2846 C 0.76194 0.73024 0.38339 0.0
C2847 C 0.77698 0.76532 0.36796 0.0
C2848 C 0.74657 0.71344 0.38136 0.0
C2849 C 0.72741 0.71673 0.36923 0.0
C2850 C 0.75834 0.75026 0.37266 0.0
C2851 C 0.72296 0.73788 0.36157 0.0
C2852 C 0.77431 0.78337 0.35394 0.0
C2853 C 0.81579 0.76965 0.36604 0.0
N2854 N 0.7386 0.75369 0.36282 0.0
N2855 N 0.79765 0.75938 0.37388 0.0
H2856 H 0.55688 0.47064 0.42756 0.0
H2857 H 0.4478 0.50925 0.37264 0.0
H2858 H 0.51454 0.42886 0.39004 0.0
H2859 H 0.49084 0.55198 0.4083 0.0
H2860 H 0.47761 0.48294 0.36867 0.0
H2861 H 0.53907 0.50266 0.41167 0.0
C2862 C 0.54463 0.4682 0.41511 0.0
C2863 C 0.53756 0.44708 0.40971 0.0
C2864 C 0.48088 0.49838 0.37671 0.0
C2865 C 0.51601 0.48368 0.39235 0.0
C2866 C 0.46391 0.51358 0.37862 0.0
C2867 C 0.46691 0.53277 0.39079 0.0
C2868 C 0.50079 0.50218 0.38759 0.0
C2869 C 0.48795 0.53742 0.39863 0.0
C2870 C 0.53412 0.48653 0.40628 0.0
C2871 C 0.52059 0.44491 0.39446 0.0
N2872 N 0.50394 0.52194 0.39749 0.0
N2873 N 0.51019 0.46294 0.38656 0.0
H2874 H 0.32807 0.73406 0.6354 0.0
H2875 H 0.20562 0.77125 0.65957 0.0
H2876 H 0.28866 0.71212 0.68942 0.0
H2877 H 0.25234 0.80961 0.62355 0.0
H2878 H 0.23065 0.73998 0.65805 0.0
H2879 H 0.29577 0.75238 0.61985 0.0
C2880 C 0.31238 0.73234 0.64347 0.0
C2881 C 0.31082 0.72121 0.66344 0.0
C2882 C 0.23505 0.75495 0.64967 0.0
C2883 C 0.27405 0.7423 0.64608 0.0
C2884 C 0.22056 0.77268 0.65016 0.0
C2885 C 0.22696 0.79298 0.64164 0.0
C2886 C 0.25599 0.75766 0.64056 0.0
C2887 C 0.24683 0.79416 0.63024 0.0
C2888 C 0.29402 0.74286 0.63468 0.0
C2889 C 0.29035 0.71997 0.67366 0.0
N2890 N 0.26087 0.7769 0.63042 0.0
N2891 N 0.27281 0.73054 0.66497 0.0
H2892 H 0.95398 0.47048 0.58242 0.0
H2893 H 0.06298 0.50907 0.63722 0.0
H2894 H 0.99608 0.42865 0.62017 0.0
H2895 H 0.01957 0.55197 0.60222 0.0
H2896 H 0.03328 0.48266 0.6412 0.0
H2897 H 0.97175 0.50247 0.59836 0.0
C2898 C 0.96616 0.46803 0.59495 0.0
C2899 C 0.97315 0.44691 0.60042 0.0
C2900 C 0.0299 0.49815 0.63331 0.0
C2901 C 0.9947 0.48348 0.61779 0.0
C2902 C 0.04681 0.51341 0.63139 0.0
C2903 C 0.04368 0.53268 0.61939 0.0
C2904 C 0.00991 0.50198 0.6226 0.0
C2905 C 0.02257 0.53734 0.61175 0.0
C2906 C 0.97666 0.48635 0.60381 0.0
C2907 C 0.99008 0.44471 0.61571 0.0
N2908 N 0.00663 0.52181 0.61289 0.0
N2909 N 1.00048 0.46273 0.62362 0.0
H2910 H 0.05541 0.04023 0.58243 0.0
H2911 H 0.94634 1.00228 0.63767 0.0
H2912 H 0.01369 0.08226 0.62037 0.0
H2913 H 0.98929 0.95906 0.60249 0.0
H2914 H 0.97623 0.02852 0.64144 0.0
H2915 H 0.03746 0.00832 0.59836 0.0
C2916 C 0.04328 0.04274 0.59499 0.0
C2917 C 0.03643 0.0639 0.6005 0.0
C2918 C 0.97946 0.013 0.63354 0.0
C2919 C 0.0147 0.02743 0.61789 0.0
C2920 C 0.96245 0.99784 0.63173 0.0
C2921 C 0.96539 0.97853 0.61976 0.0
C2922 C 0.99938 0.00903 0.62273 0.0
C2923 C 0.98643 0.97373 0.612 0.0
C2924 C 0.03268 0.02447 0.60384 0.0
C2925 C 0.01958 0.06617 0.61586 0.0
N2926 N 1.00247 0.98917 0.61302 0.0
N2927 N 0.00909 0.0482 0.62378 0.0
H2928 H 0.62244 0.75834 0.69711 0.0
H2929 H 0.67864 0.72058 0.80586 0.0
H2930 H 0.65825 0.80161 0.73947 0.0
H2931 H 0.63994 0.67859 0.76479 0.0
H2932 H 0.66281 0.75251 0.78779 0.0
H2933 H 0.61893 0.73223 0.72714 0.0
C2934 C 0.62857 0.76282 0.71312 0.0
C2935 C 0.64062 0.78212 0.71586 0.0
C2936 C 0.65715 0.73637 0.78318 0.0
C2937 C 0.63796 0.75175 0.75 0.0
C2938 C 0.66596 0.7181 0.79383 0.0
C2939 C 0.6602 0.69694 0.7872 0.0
C2940 C 0.64288 0.7334 0.76537 0.0
C2941 C 0.64464 0.69468 0.77052 0.0
C2942 C 0.62692 0.74773 0.73022 0.0
C2943 C 0.64865 0.78696 0.73679 0.0
N2944 N 0.63676 0.71264 0.75998 0.0
N2945 N 0.64777 0.77159 0.7529 0.0
H2946 H 0.05469 0.10565 0.52163 0.0
H2947 H 0.97034 0.07352 0.45835 0.0
H2948 H 1.00391 0.1334 0.56167 0.0
H2949 H 0.93101 0.12333 0.48862 0.0
H2950 H 1.00268 0.08858 0.47577 0.0
H2951 H 0.0305 0.10797 0.48989 0.0
C2952 C 0.03883 0.1133 0.5235 0.0
C2953 C 0.03124 0.1193 0.54429 0.0
C2954 C 0.98731 0.09705 0.47792 0.0
C2955 C 1.00272 0.12025 0.50852 0.0
C2956 C 0.96876 0.08844 0.4677 0.0
C2957 C 0.94814 0.09764 0.47147 0.0
C2958 C 0.98511 0.11467 0.4926 0.0
C2959 C 0.94675 0.11605 0.48503 0.0
C2960 C 0.02468 0.11396 0.50549 0.0
C2961 C 0.01031 0.12853 0.54589 0.0
N2962 N 0.96491 0.12373 0.49541 0.0
N2963 N 0.99659 0.12824 0.52839 0.0
H2964 H 0.38725 0.75015 0.69734 0.0
H2965 H 0.33197 0.79086 0.80531 0.0
H2966 H 0.35147 0.70831 0.74112 0.0
H2967 H 0.37041 0.83181 0.76301 0.0
H2968 H 0.34773 0.75851 0.78809 0.0
H2969 H 0.39126 0.777 0.72666 0.0
C2970 C 0.38127 0.74612 0.71353 0.0
C2971 C 0.36902 0.72704 0.71686 0.0
C2972 C 0.35336 0.77452 0.78301 0.0
C2973 C 0.37227 0.75824 0.75016 0.0
C2974 C 0.34462 0.79304 0.79322 0.0
C2975 C 0.35037 0.81403 0.78606 0.0
C2976 C 0.3675 0.77701 0.76504 0.0
C2977 C 0.36574 0.81586 0.76916 0.0
C2978 C 0.3832 0.76164 0.73021 0.0
C2979 C 0.36118 0.72279 0.73798 0.0
N2980 N 0.37354 0.79764 0.75902 0.0
N2981 N 0.36234 0.73856 0.75367 0.0
H2982 H 0.08032 0.38621 0.48856 0.0
H2983 H 0.9565 0.40825 0.52141 0.0
H2984 H 0.03877 0.43512 0.4597 0.0
H2985 H 1.0032 0.37442 0.56177 0.0
H2986 H 0.98192 0.40574 0.49053 0.0
H2987 H 0.04831 0.3706 0.50719 0.0
C2988 C 0.06428 0.39307 0.48545 0.0
C2989 C 0.06202 0.41165 0.47223 0.0
C2990 C 0.98627 0.39807 0.5059 0.0
C2991 C 0.02551 0.39435 0.49383 0.0
C2992 C 0.97156 0.39911 0.52341 0.0
C2993 C 0.9778 0.39151 0.54412 0.0
C2994 C 0.00731 0.38937 0.50923 0.0
C2995 C 0.9978 0.38044 0.54601 0.0
C2996 C 0.04606 0.38427 0.49615 0.0
C2997 C 0.04105 0.42037 0.46916 0.0
N2998 N 0.01206 0.3801 0.52894 0.0
N2999 N 0.02364 0.41181 0.48008 0.0
H3000 H 0.6352 0.33016 0.7376 0.0
H3001 H 0.65772 0.2067 0.77208 0.0
H3002 H 0.68627 0.28926 0.71169 0.0
H3003 H 0.62373 0.25364 0.81202 0.0
H3004 H 0.65554 0.23203 0.74111 0.0
H3005 H 0.61957 0.29809 0.75621 0.0
C3006 C 0.64255 0.31423 0.73509 0.0
C3007 C 0.66172 0.31216 0.72271 0.0
C3008 C 0.64776 0.23645 0.75639 0.0
C3009 C 0.64432 0.27563 0.74419 0.0
C3010 C 0.64861 0.22179 0.77396 0.0
C3011 C 0.64088 0.22814 0.79459 0.0
C3012 C 0.63908 0.25752 0.75958 0.0
C3013 C 0.62985 0.24818 0.79632 0.0
C3014 C 0.63373 0.29599 0.74578 0.0
C3015 C 0.67106 0.29136 0.72045 0.0
N3016 N 0.62967 0.26237 0.77919 0.0
N3017 N 0.6624 0.27394 0.73125 0.0
H3018 H 0.50187 0.13801 0.44646 0.0
H3019 H 0.54012 0.08285 0.55557 0.0
H3020 H 0.45883 0.10268 0.48946 0.0
H3021 H 0.58209 0.12035 0.51341 0.0
H3022 H 0.50819 0.09876 0.53764 0.0
H3023 H 0.52819 0.14177 0.47628 0.0
C3024 C 0.49748 0.13205 0.46257 0.0
C3025 C 0.4782 0.12002 0.46554 0.0
C3026 C 0.52433 0.10415 0.53275 0.0
C3027 C 0.50881 0.12297 0.49944 0.0
C3028 C 0.54262 0.0953 0.54334 0.0
C3029 C 0.56377 0.10069 0.53636 0.0
C3030 C 0.52726 0.11809 0.51468 0.0
C3031 C 0.56601 0.11593 0.51939 0.0
C3032 C 0.51269 0.13384 0.47954 0.0
C3033 C 0.47347 0.11223 0.48658 0.0
N3034 N 0.54803 0.12385 0.50893 0.0
N3035 N 0.48896 0.11323 0.50257 0.0
H3036 H 0.38809 0.25798 0.81062 0.0
H3037 H 0.37679 0.18411 0.72678 0.0
H3038 H 0.35029 0.30277 0.77169 0.0
H3039 H 0.31625 0.21943 0.72011 0.0
H3040 H 0.39299 0.21619 0.74501 0.0
H3041 H 0.38963 0.23278 0.77969 0.0
C3042 C 0.38124 0.26306 0.79508 0.0
C3043 C 0.36916 0.28249 0.79363 0.0
C3044 C 0.37632 0.21708 0.73911 0.0
C3045 C 0.36991 0.25333 0.75839 0.0
C3046 C 0.36719 0.1989 0.72849 0.0
C3047 C 0.34527 0.19932 0.72182 0.0
C3048 C 0.3633 0.23566 0.74306 0.0
C3049 C 0.33329 0.21861 0.72484 0.0
C3050 C 0.38195 0.24856 0.7774 0.0
C3051 C 0.36001 0.28804 0.77335 0.0
N3052 N 0.34241 0.23596 0.73532 0.0
N3053 N 0.35986 0.27318 0.75677 0.0
H3054 H 0.4282 0.38729 0.51723 0.0
H3055 H 0.55313 0.40733 0.48888 0.0
H3056 H 0.47083 0.43098 0.5522 0.0
H3057 H 0.5072 0.37439 0.44695 0.0
H3058 H 0.52711 0.40423 0.51921 0.0
H3059 H 0.46012 0.37166 0.49861 0.0
C3060 C 0.44441 0.39297 0.52161 0.0
C3061 C 0.44698 0.41012 0.53659 0.0
C3062 C 0.52303 0.3969 0.50362 0.0
C3063 C 0.48351 0.39292 0.51488 0.0
C3064 C 0.5381 0.39828 0.4864 0.0
C3065 C 0.53225 0.3911 0.46542 0.0
C3066 C 0.50203 0.38833 0.49969 0.0
C3067 C 0.51229 0.3801 0.46293 0.0
C3068 C 0.46261 0.38416 0.51091 0.0
C3069 C 0.46822 0.41731 0.54133 0.0
N3070 N 0.49769 0.37947 0.4797 0.0
N3071 N 0.48565 0.40892 0.53028 0.0
H3072 H 0.69632 0.62252 0.75823 0.0
H3073 H 0.80566 0.67754 0.72048 0.0
H3074 H 0.7393 0.65755 0.80154 0.0
H3075 H 0.76364 0.64008 0.67832 0.0
H3076 H 0.7876 0.66159 0.75233 0.0
H3077 H 0.72621 0.61878 0.732 0.0
C3078 C 0.71243 0.62843 0.76269 0.0
C3079 C 0.71539 0.64036 0.78203 0.0
C3080 C 0.78277 0.65622 0.73616 0.0
C3081 C 0.74938 0.63742 0.75153 0.0
C3082 C 0.79342 0.66509 0.71792 0.0
C3083 C 0.78651 0.65973 0.69675 0.0
C3084 C 0.7647 0.64229 0.73315 0.0
C3085 C 0.76956 0.64447 0.69442 0.0
C3086 C 0.72945 0.62664 0.74754 0.0
C3087 C 0.73644 0.64808 0.78685 0.0
N3088 N 0.75904 0.63653 0.71236 0.0
N3089 N 0.75248 0.64708 0.77142 0.0
H3090 H 0.92838 0.95443 0.53978 0.0
H3091 H 0.87245 0.06294 0.50121 0.0
H3092 H 0.88994 0.99595 0.58155 0.0
H3093 H 0.90783 0.01993 0.45823 0.0
H3094 H 0.86885 0.03319 0.52762 0.0
H3095 H 0.91242 0.97218 0.50776 0.0
C3096 C 0.91572 0.96648 0.5422 0.0
C3097 C 0.91005 0.97331 0.56332 0.0
C3098 C 0.87675 0.0299 0.51211 0.0
C3099 C 0.89262 0.99483 0.52673 0.0
C3100 C 0.87844 0.04684 0.49685 0.0
C3101 C 0.89043 0.04385 0.47755 0.0
C3102 C 0.88767 0.01002 0.50826 0.0
C3103 C 0.8983 0.02282 0.47288 0.0
C3104 C 0.90684 0.97696 0.52388 0.0
C3105 C 0.89455 0.99007 0.56549 0.0
N3106 N 0.89738 0.00687 0.48841 0.0
N3107 N 0.88662 1.00045 0.54747 0.0
H3108 H 0.272 0.85358 0.80253 0.0
H3109 H 0.23925 0.87473 0.67844 0.0
H3110 H 0.31257 0.88693 0.75567 0.0
H3111 H 0.21063 0.82592 0.72025 0.0
H3112 H 0.258 0.89046 0.71035 0.0
H3113 H 0.24123 0.85585 0.77695 0.0
C3114 C 0.27407 0.86257 0.7874 0.0
C3115 C 0.29482 0.87009 0.78116 0.0
C3116 C 0.24698 0.87679 0.71268 0.0
C3117 C 0.26004 0.87196 0.75148 0.0
C3118 C 0.23621 0.86792 0.69452 0.0
C3119 C 0.22298 0.84936 0.69688 0.0
C3120 C 0.24468 0.86681 0.73328 0.0
C3121 C 0.22002 0.8407 0.71789 0.0
C3122 C 0.25661 0.86347 0.77259 0.0
C3123 C 0.29678 0.88098 0.76107 0.0
N3124 N 0.23097 0.84933 0.73524 0.0
N3125 N 0.27977 0.88118 0.74673 0.0
H3126 H 0.10071 0.48987 0.45594 0.0
H3127 H 0.12366 0.52273 0.57958 0.0
H3128 H 0.13566 0.44986 0.50209 0.0
H3129 H 0.07354 0.55057 0.53878 0.0
H3130 H 0.13922 0.50448 0.54732 0.0
H3131 H 0.10303 0.5207 0.48144 0.0
C3132 C 0.11005 0.48796 0.47088 0.0
C3133 C 0.11803 0.46734 0.47696 0.0
C3134 C 0.12528 0.51522 0.54528 0.0
C3135 C 0.11996 0.50216 0.50657 0.0
C3136 C 0.1165 0.5257 0.56365 0.0
C3137 C 0.09761 0.53852 0.56168 0.0
C3138 C 0.11488 0.51738 0.52488 0.0
C3139 C 0.08853 0.54142 0.54084 0.0
C3140 C 0.11099 0.50544 0.48564 0.0
C3141 C 0.12938 0.46556 0.49681 0.0
N3142 N 0.09709 0.53074 0.52329 0.0
N3143 N 0.1296 0.48258 0.51113 0.0
H3144 H 0.73961 0.35047 0.70599 0.0
H3145 H 0.77456 0.37463 0.829 0.0
H3146 H 0.70028 0.38605 0.75224 0.0
H3147 H 0.7988 0.32182 0.7893 0.0
H3148 H 0.75641 0.3901 0.79658 0.0
H3149 H 0.77061 0.3525 0.73132 0.0
C3150 C 0.7379 0.35989 0.7209 0.0
C3151 C 0.71741 0.36812 0.72708 0.0
C3152 C 0.76639 0.37557 0.79481 0.0
C3153 C 0.75242 0.36977 0.75647 0.0
C3154 C 0.77681 0.36683 0.81324 0.0
C3155 C 0.78855 0.34722 0.81162 0.0
C3156 C 0.76763 0.36446 0.7747 0.0
C3157 C 0.79049 0.33733 0.79105 0.0
C3158 C 0.75547 0.36067 0.73556 0.0
C3159 C 0.71588 0.37957 0.74689 0.0
N3160 N 0.77998 0.34593 0.77343 0.0
N3161 N 0.73299 0.37966 0.76112 0.0
H3162 H 0.63799 0.06406 0.50759 0.0
H3163 H 0.58173 0.95535 0.47039 0.0
H3164 H 0.6028 0.02159 0.55126 0.0
H3165 H 0.62088 0.99576 0.42821 0.0
H3166 H 0.59763 0.97348 0.50221 0.0
H3167 H 0.64148 0.03398 0.48154 0.0
C3168 C 0.63199 0.04802 0.51216 0.0
C3169 C 0.6201 0.04527 0.53155 0.0
C3170 C 0.60338 0.97792 0.48606 0.0
C3171 C 0.62276 0.01106 0.50127 0.0
C3172 C 0.59454 0.96722 0.46785 0.0
C3173 C 0.60042 0.97363 0.44666 0.0
C3174 C 0.61779 0.99561 0.48301 0.0
C3175 C 0.6161 0.9902 0.44432 0.0
C3176 C 0.63364 0.03089 0.49712 0.0
C3177 C 0.61226 0.0243 0.53653 0.0
N3178 N 0.62399 1.00082 0.46222 0.0
N3179 N 0.61312 0.00815 0.5212 0.0
H3180 H 0.26886 0.16084 0.70451 0.0
H3181 H 0.23476 0.13596 0.82742 0.0
H3182 H 0.30755 0.12329 0.74972 0.0
H3183 H 0.21007 0.18881 0.78805 0.0
H3184 H 0.25229 0.12036 0.79474 0.0
H3185 H 0.23791 0.15886 0.72987 0.0
C3186 C 0.27041 0.151 0.71917 0.0
C3187 C 0.29074 0.14222 0.72508 0.0
C3188 C 0.24237 0.13495 0.79311 0.0
C3189 C 0.25583 0.14068 0.75457 0.0
C3190 C 0.2323 0.14376 0.8117 0.0
C3191 C 0.22063 0.16342 0.81024 0.0
C3192 C 0.24088 0.14605 0.77301 0.0
C3193 C 0.21838 0.17329 0.78969 0.0
C3194 C 0.25288 0.15025 0.73387 0.0
C3195 C 0.29208 0.13021 0.74458 0.0
N3196 N 0.22859 0.16463 0.77192 0.0
N3197 N 0.27504 0.13022 0.75889 0.0
H3198 H 0.40856 0.48876 0.55351 0.0
H3199 H 0.38625 0.52322 0.43012 0.0
H3200 H 0.37432 0.44911 0.50651 0.0
H3201 H 0.43691 0.54965 0.47119 0.0
H3202 H 0.37048 0.50475 0.46217 0.0
H3203 H 0.40642 0.51986 0.5283 0.0
C3204 C 0.39941 0.48697 0.53844 0.0
C3205 C 0.39159 0.4664 0.53202 0.0
C3206 C 0.38459 0.51524 0.46432 0.0
C3207 C 0.38983 0.50153 0.5028 0.0
C3208 C 0.39349 0.52585 0.44608 0.0
C3209 C 0.4126 0.5383 0.44819 0.0
C3210 C 0.39507 0.51695 0.48472 0.0
C3211 C 0.42178 0.54076 0.46904 0.0
C3212 C 0.39857 0.50461 0.52385 0.0
C3213 C 0.38049 0.46478 0.51203 0.0
N3214 N 0.41308 0.52999 0.48646 0.0
N3215 N 0.38034 0.48196 0.4979 0.0
H3216 H 0.75757 0.69676 0.62282 0.0
H3217 H 0.72054 0.80489 0.67977 0.0
H3218 H 0.80142 0.73905 0.65802 0.0
H3219 H 0.67852 0.76562 0.63928 0.0
H3220 H 0.75242 0.78688 0.66385 0.0
H3221 H 0.73166 0.72697 0.61929 0.0
C3222 C 0.76221 0.71278 0.62882 0.0
C3223 C 0.78161 0.71546 0.64072 0.0
C3224 C 0.73631 0.78267 0.65781 0.0
C3225 C 0.75149 0.7498 0.63803 0.0
C3226 C 0.71807 0.7933 0.66668 0.0
C3227 C 0.69691 0.78717 0.6604 0.0
C3228 C 0.73329 0.76531 0.64302 0.0
C3229 C 0.69463 0.77097 0.64436 0.0
C3230 C 0.74725 0.72999 0.62714 0.0
C3231 C 0.78668 0.7364 0.64856 0.0
N3232 N 0.71254 0.76038 0.63646 0.0
N3233 N 0.77142 0.75262 0.64768 0.0
H3234 H 0.71966 0.20403 0.83296 0.0
H3235 H 0.75945 0.31285 0.88773 0.0
H3236 H 0.67825 0.24681 0.87037 0.0
H3237 H 0.80162 0.26937 0.85196 0.0
H3238 H 0.73278 0.28335 0.89166 0.0
H3239 H 0.75182 0.22166 0.8487 0.0
C3240 C 0.71732 0.21632 0.84539 0.0
C3241 C 0.69626 0.22352 0.85082 0.0
C3242 C 0.74817 0.27991 0.88361 0.0
C3243 C 0.73306 0.24494 0.86796 0.0
C3244 C 0.76359 0.2967 0.88173 0.0
C3245 C 0.78273 0.2935 0.86953 0.0
C3246 C 0.75172 0.25998 0.87269 0.0
C3247 C 0.78711 0.27241 0.86165 0.0
C3248 C 0.73575 0.22676 0.85411 0.0
C3249 C 0.69425 0.24064 0.86594 0.0
N3250 N 0.77144 0.25661 0.86278 0.0
N3251 N 0.71237 0.25095 0.87374 0.0
H3252 H 0.4552 0.03957 0.42926 0.0
H3253 H 0.56358 1.00228 0.37236 0.0
H3254 H 0.49544 0.08171 0.38989 0.0
H3255 H 0.52137 0.95866 0.40793 0.0
H3256 H 0.53347 0.02833 0.36904 0.0
H3257 H 0.47325 0.00772 0.41331 0.0
C3258 C 0.46703 0.04209 0.41641 0.0
C3259 C 0.47342 0.06327 0.41047 0.0
C3260 C 0.53044 0.01276 0.37692 0.0
C3261 C 0.49528 0.0269 0.39302 0.0
C3262 C 0.54758 0.99771 0.37847 0.0
C3263 C 0.54492 0.97834 0.39042 0.0
C3264 C 0.51069 0.00863 0.38796 0.0
C3265 C 0.52401 0.97338 0.39842 0.0
C3266 C 0.47768 0.02386 0.40753 0.0
C3267 C 0.4899 0.0656 0.39471 0.0
N3268 N 0.50786 0.98872 0.39765 0.0
N3269 N 0.50047 0.04768 0.38677 0.0
H3270 H 0.29085 0.30614 0.83244 0.0
H3271 H 0.25077 0.19706 0.88622 0.0
H3272 H 0.33215 0.2631 0.86969 0.0
H3273 H 0.2086 0.24123 0.85129 0.0
H3274 H 0.27759 0.22638 0.89043 0.0
H3275 H 0.25865 0.28854 0.84811 0.0
C3276 C 0.29315 0.29379 0.84482 0.0
C3277 C 0.31419 0.28652 0.85024 0.0
C3278 C 0.26217 0.23 0.88251 0.0
C3279 C 0.27734 0.26512 0.86727 0.0
C3280 C 0.24668 0.21332 0.88046 0.0
C3281 C 0.22749 0.21678 0.86842 0.0
C3282 C 0.25865 0.25011 0.87189 0.0
C3283 C 0.22316 0.23798 0.86086 0.0
C3284 C 0.27471 0.28338 0.85351 0.0
C3285 C 0.31617 0.26934 0.86528 0.0
N3286 N 0.2389 0.2537 0.86213 0.0
N3287 N 0.29802 0.25902 0.87303 0.0
H3288 H 0.98807 0.05393 0.90894 0.0
H3289 H 0.02538 0.93136 0.88543 0.0
H3290 H 0.94941 0.00666 0.87393 0.0
H3291 H 0.04801 0.97134 0.93875 0.0
H3292 H 0.00671 0.96345 0.86988 0.0
H3293 H 0.0194 0.02898 0.90729 0.0
C3294 C 0.98656 0.03887 0.89972 0.0
C3295 C 0.96618 0.0323 0.89154 0.0
C3296 C 0.01645 0.96536 0.88455 0.0
C3297 C 1.00159 1.00338 0.8903 0.0
C3298 C 0.02717 0.94712 0.89333 0.0
C3299 C 0.0386 0.94891 0.91311 0.0
C3300 C 0.01711 0.98545 0.89575 0.0
C3301 C 0.03994 0.96948 0.92312 0.0
C3302 C 1.00433 0.02443 0.89916 0.0
C3303 C 0.96492 0.0123 0.88038 0.0
N3304 N 0.02916 0.9869 0.91445 0.0
N3305 N 0.98224 0.99832 0.88047 0.0
H3306 H 0.82956 0.23689 0.13593 0.0
H3307 H 0.70611 0.27127 0.15857 0.0
H3308 H 0.78867 0.21036 0.18668 0.0
H3309 H 0.75287 0.31094 0.12404 0.0
H3310 H 0.73145 0.24028 0.15655 0.0
H3311 H 0.79747 0.25548 0.12037 0.0
C3312 C 0.81362 0.23426 0.14323 0.0
C3313 C 0.81158 0.22171 0.16229 0.0
C3314 C 0.73583 0.2555 0.14862 0.0
C3315 C 0.775 0.24323 0.14501 0.0
C3316 C 0.72116 0.27308 0.14938 0.0
C3317 C 0.72745 0.29365 0.14143 0.0
C3318 C 0.75685 0.25862 0.13982 0.0
C3319 C 0.74743 0.29529 0.1303 0.0
C3320 C 0.79537 0.24494 0.13445 0.0
C3321 C 0.79077 0.21928 0.17156 0.0
N3322 N 0.76164 0.27816 0.13022 0.0
N3323 N 0.77332 0.23012 0.16298 0.0
H3324 H 0.5209 0.0533 0.10178 0.0
H3325 H 0.48788 0.92944 0.12409 0.0
H3326 H 0.56121 0.00678 0.13591 0.0
H3327 H 0.4603 0.97048 0.07403 0.0
H3328 H 0.50637 0.96158 0.13965 0.0
H3329 H 0.49013 0.0277 0.10399 0.0
C3330 C 0.5229 0.03824 0.11092 0.0
C3331 C 0.54358 0.0321 0.1187 0.0
C3332 C 0.49562 0.9637 0.12573 0.0
C3333 C 0.50882 1.00241 0.12051 0.0
C3334 C 0.485 0.94541 0.11695 0.0
C3335 C 0.47215 0.94748 0.09809 0.0
C3336 C 0.49355 0.98414 0.11538 0.0
C3337 C 0.46941 0.96835 0.08902 0.0
C3338 C 0.50545 0.02343 0.11179 0.0
C3339 C 0.54547 0.01211 0.12978 0.0
N3340 N 0.4802 0.98583 0.0976 0.0
N3341 N 0.52847 0.99775 0.12996 0.0
H3342 H 0.55455 0.54011 0.08151 0.0
H3343 H 0.44624 0.50203 0.13801 0.0
H3344 H 0.5139 0.58197 0.12075 0.0
H3345 H 0.48886 0.45877 0.10248 0.0
H3346 H 0.47615 0.52828 0.14146 0.0
H3347 H 0.53666 0.50814 0.09737 0.0
C3348 C 0.54268 0.54254 0.09433 0.0
C3349 C 0.53615 0.56369 0.10026 0.0
C3350 C 0.47931 0.51275 0.13355 0.0
C3351 C 0.51442 0.52716 0.11758 0.0
C3352 C 0.46229 0.49758 0.13194 0.0
C3353 C 0.46512 0.47825 0.11995 0.0
C3354 C 0.49912 0.50878 0.12256 0.0
C3355 C 0.48609 0.47345 0.11201 0.0
C3356 C 0.5321 0.52425 0.10314 0.0
C3357 C 0.51956 0.5659 0.11593 0.0
N3358 N 0.50213 0.4889 0.11285 0.0
N3359 N 0.50907 0.54791 0.12381 0.0
H3360 H 0.07789 0.35781 0.01496 0.0
H3361 H 0.1845 0.35144 0.08967 0.0
H3362 H 0.13515 0.3976 1.00381 0.0
H3363 H 0.12796 0.30987 0.09737 0.0
H3364 H 0.1691 0.36524 0.05538 0.0
H3365 H 0.09786 0.3375 0.04277 0.0
C3366 C 0.09472 0.36223 0.01829 0.0
C3367 C 0.10479 0.37949 0.00702 0.0
C3368 C 0.16026 0.35283 0.06439 0.0
C3369 C 0.12787 0.35624 0.03904 0.0
C3370 C 0.16911 0.34482 0.08391 0.0
C3371 C 0.15735 0.32968 0.09657 0.0
C3372 C 0.1395 0.34567 0.05757 0.0
C3373 C 0.13748 0.32173 0.0883 0.0
C3374 C 0.10618 0.35052 0.03412 0.0
C3375 C 0.12675 0.38429 0.0119 0.0
N3376 N 0.12907 0.33002 0.0695 0.0
N3377 N 0.13748 0.37287 0.02771 0.0
H3378 H 0.60928 0.68254 0.24377 0.0
H3379 H 0.60019 0.57531 0.17056 0.0
H3380 H 0.64637 0.62392 0.2569 0.0
H3381 H 0.5597 0.63257 0.16242 0.0
H3382 H 0.61404 0.59056 0.2049 0.0
H3383 H 0.58839 0.66275 0.21626 0.0
C3384 C 0.61297 0.66544 0.24093 0.0
C3385 C 0.62966 0.65493 0.25263 0.0
C3386 C 0.60184 0.59959 0.19578 0.0
C3387 C 0.60579 0.63206 0.22094 0.0
C3388 C 0.59381 0.59083 0.17623 0.0
C3389 C 0.57899 0.60284 0.16342 0.0
C3390 C 0.59503 0.62051 0.20248 0.0
C3391 C 0.57132 0.62287 0.1716 0.0
C3392 C 0.60093 0.65409 0.22528 0.0
C3393 C 0.63354 0.63266 0.24842 0.0
N3394 N 0.57965 0.63119 0.19041 0.0
N3395 N 0.62184 0.62202 0.23273 0.0
H3396 H 0.8831 0.20105 0.09853 0.0
H3397 H 0.8738 0.11248 1.00291 0.0
H3398 H 0.82687 0.15927 0.08974 0.0
H3399 H 0.93149 0.15093 0.01645 0.0
H3400 H 0.85402 0.13321 0.03083 0.0
H3401 H 0.8982 0.18731 0.06431 0.0
C3402 C 0.87372 0.18928 0.08919 0.0
C3403 C 0.85383 0.18109 0.09718 0.0
C3404 C 0.87095 0.13724 0.0275 0.0
C3405 C 0.87125 0.16493 0.05809 0.0
C3406 C 0.88225 0.12547 0.01147 0.0
C3407 C 0.90441 0.12994 0.00728 0.0
C3408 C 0.88185 0.15359 0.03941 0.0
C3409 C 0.91452 0.14673 0.01925 0.0
C3410 C 0.88242 0.18133 0.06967 0.0
C3411 C 0.84233 0.16596 0.08426 0.0
N3412 N 0.90321 0.15785 0.03477 0.0
N3413 N 0.85137 0.1581 0.06551 0.0
H3414 H 0.3628 0.88736 0.25787 0.0
H3415 H 0.45028 0.87625 0.16139 0.0
H3416 H 0.39883 0.82849 0.24287 0.0
H3417 H 0.40952 0.93321 0.17029 0.0
H3418 H 0.43647 0.86146 0.19572 0.0
H3419 H 0.38394 0.90682 0.22997 0.0
C3420 C 0.37536 0.87858 0.24899 0.0
C3421 C 0.37901 0.85619 0.25273 0.0
C3422 C 0.43073 0.87733 0.19034 0.0
C3423 C 0.40312 0.87837 0.22069 0.0
C3424 C 0.43872 0.88586 0.17077 0.0
C3425 C 0.43082 0.90586 0.16278 0.0
C3426 C 0.41458 0.88879 0.20199 0.0
C3427 C 0.41597 0.91765 0.17576 0.0
C3428 C 0.38735 0.8897 0.23299 0.0
C3429 C 0.39527 0.84566 0.24041 0.0
N3430 N 0.40806 0.90878 0.19458 0.0
N3431 N 0.40663 0.8568 0.22494 0.0
H3432 H 0.07559 0.65035 0.493 0.0
H3433 H 0.1836 0.66119 0.42088 0.0
H3434 H 0.13485 0.61446 0.50668 0.0
H3435 H 0.1247 0.69864 0.41022 0.0
H3436 H 0.16817 0.64758 0.45523 0.0
H3437 H 0.09503 0.67115 0.46517 0.0
C3438 C 0.09275 0.6469 0.49022 0.0
C3439 C 0.10354 0.63057 0.50219 0.0
C3440 C 0.15879 0.65906 0.44554 0.0
C3441 C 0.12601 0.65437 0.47015 0.0
C3442 C 0.16764 0.66696 0.42599 0.0
C3443 C 0.15528 0.68085 0.41249 0.0
C3444 C 0.13743 0.66507 0.45156 0.0
C3445 C 0.13471 0.68775 0.41995 0.0
C3446 C 0.10389 0.65889 0.47438 0.0
C3447 C 0.12587 0.62702 0.49802 0.0
N3448 N 0.12633 0.67957 0.43881 0.0
N3449 N 0.13631 0.63867 0.48218 0.0
H3450 H 0.91113 0.57701 0.83892 0.0
H3451 H 0.90222 0.68439 0.76541 0.0
H3452 H 0.94968 0.63533 0.8488 0.0
H3453 H 0.86408 0.62613 0.7536 0.0
H3454 H 0.92276 0.66482 0.79334 0.0
H3455 H 0.89746 0.59243 0.8046 0.0
C3456 C 0.91712 0.59283 0.83365 0.0
C3457 C 0.93135 0.60504 0.84692 0.0
C3458 C 0.91006 0.6562 0.78452 0.0
C3459 C 0.91551 0.62289 0.80787 0.0
C3460 C 0.89821 0.66742 0.76861 0.0
C3461 C 0.88134 0.65695 0.75711 0.0
C3462 C 0.90487 0.63434 0.78927 0.0
C3463 C 0.87708 0.63485 0.76184 0.0
C3464 C 0.90918 0.60169 0.81411 0.0
C3465 C 0.93853 0.62544 0.83925 0.0
N3466 N 0.88863 0.62434 0.77771 0.0
N3467 N 0.93032 0.63383 0.8204 0.0
H3468 H 0.87406 0.89805 0.50735 0.0
H3469 H 0.88158 0.80799 0.41293 0.0
H3470 H 0.93089 0.85816 0.49437 0.0
H3471 H 0.82682 0.85196 0.42021 0.0
H3472 H 0.89669 0.82173 0.44716 0.0
H3473 H 0.85391 0.87756 0.4795 0.0
C3474 C 0.88224 0.88479 0.49893 0.0
C3475 C 0.90427 0.87983 0.50325 0.0
C3476 C 0.88121 0.82819 0.44146 0.0
C3477 C 0.88129 0.85645 0.47122 0.0
C3478 C 0.8725 0.82025 0.42195 0.0
C3479 C 0.85306 0.82904 0.41353 0.0
C3480 C 0.87051 0.84519 0.4526 0.0
C3481 C 0.84193 0.84479 0.42603 0.0
C3482 C 0.87072 0.87316 0.48294 0.0
C3483 C 0.91403 0.86272 0.49146 0.0
N3484 N 0.85099 0.85262 0.4448 0.0
N3485 N 0.90252 0.85173 0.47599 0.0
H3486 H 0.0992 0.93436 0.83908 0.0
H3487 H 0.11112 0.82675 0.76659 0.0
H3488 H 0.06194 0.87523 0.84915 0.0
H3489 H 0.14649 0.88636 0.75311 0.0
H3490 H 0.09003 0.84596 0.79435 0.0
H3491 H 0.11306 0.91921 0.8047 0.0
C3492 C 0.09353 0.91841 0.83384 0.0
C3493 C 0.07962 0.9059 0.84718 0.0
C3494 C 0.10224 0.85495 0.7852 0.0
C3495 C 0.09568 0.88838 0.80807 0.0
C3496 C 0.11439 0.84394 0.7694 0.0
C3497 C 0.13067 0.8549 0.75752 0.0
C3498 C 0.10653 0.8771 0.78949 0.0
C3499 C 0.13399 0.87726 0.76171 0.0
C3500 C 0.10156 0.90972 0.81426 0.0
C3501 C 0.07284 0.88536 0.83954 0.0
N3502 N 0.12218 0.88757 0.77753 0.0
N3503 N 0.08115 0.87714 0.82067 0.0
H3504 H 0.01605 0.07647 0.35902 0.0
H3505 H 0.08912 0.18395 0.34956 0.0
H3506 H 1.00333 0.13508 0.39631 0.0
H3507 H 0.09846 0.12588 0.31051 0.0
H3508 H 0.0548 0.1686 0.36334 0.0
H3509 H 0.04378 0.09611 0.33829 0.0
C3510 C 0.01902 0.09353 0.36279 0.0
C3511 C 0.00735 0.10408 0.37949 0.0
C3512 C 0.06419 0.15939 0.35148 0.0
C3513 C 0.03928 0.12678 0.35576 0.0
C3514 C 0.08372 0.16821 0.34348 0.0
C3515 C 0.09685 0.15603 0.32909 0.0
C3516 C 0.05782 0.13826 0.34505 0.0
C3517 C 0.08903 0.13573 0.3218 0.0
C3518 C 0.03481 0.10479 0.35084 0.0
C3519 C 0.01176 0.1263 0.38346 0.0
N3520 N 0.0702 0.12738 0.33007 0.0
N3521 N 0.02755 0.13685 0.37183 0.0
H3522 H 0.37641 0.66195 0.95068 0.0
H3523 H 0.38512 0.75723 0.86164 0.0
H3524 H 0.43247 0.67068 0.90867 0.0
H3525 H 0.3277 0.74393 0.90057 0.0
H3526 H 0.40497 0.72926 0.88224 0.0
H3527 H 0.36111 0.69601 0.93673 0.0
C3528 C 0.38572 0.67125 0.93881 0.0
C3529 C 0.40562 0.66329 0.93063 0.0
C3530 C 0.38809 0.73265 0.8864 0.0
C3531 C 0.38797 0.70218 0.91423 0.0
C3532 C 0.37674 0.74871 0.87471 0.0
C3533 C 0.35464 0.753 0.87937 0.0
C3534 C 0.37729 0.72081 0.90287 0.0
C3535 C 0.34462 0.74106 0.89623 0.0
C3536 C 0.3769 0.69066 0.93074 0.0
C3537 C 0.41702 0.67614 0.91536 0.0
N3538 N 0.35598 0.72552 0.90728 0.0
N3539 N 0.40787 0.6948 0.9074 0.0
H3540 H 0.92048 0.32469 0.35088 0.0
H3541 H 0.99417 0.43162 0.35925 0.0
H3542 H 0.91306 0.38141 0.3095 0.0
H3543 H 0.00684 0.37331 0.39699 0.0
H3544 H 0.9667 0.41174 0.3384 0.0
H3545 H 0.9548 0.33992 0.36481 0.0
C3546 C 0.92631 0.34008 0.34432 0.0
C3547 C 0.9137 0.35196 0.32923 0.0
C3548 C 0.97561 0.40316 0.35108 0.0
C3549 C 0.95273 0.3696 0.34535 0.0
C3550 C 0.99124 0.41457 0.36309 0.0
C3551 C 1.0028 0.40417 0.37995 0.0
C3552 C 0.97116 0.3812 0.35612 0.0
C3553 C 0.99847 0.38196 0.38402 0.0
C3554 C 0.94585 0.34883 0.3524 0.0
C3555 C 0.92208 0.37181 0.32134 0.0
N3556 N 0.98281 0.37127 0.37234 0.0
N3557 N 0.94087 0.38013 0.32971 0.0
H3558 H 0.68382 0.76551 0.9025 0.0
H3559 H 0.57642 0.83913 0.91013 0.0
H3560 H 0.62594 0.75356 0.86385 0.0
H3561 H 0.63417 0.8488 0.94958 0.0
H3562 H 0.59199 0.80482 0.89658 0.0
H3563 H 0.66406 0.79352 0.92276 0.0
C3564 C 0.6669 0.7687 0.89833 0.0
C3565 C 0.65659 0.75714 0.8814 0.0
C3566 C 0.60109 0.81428 0.90847 0.0
C3567 C 0.63375 0.78937 0.9046 0.0
C3568 C 0.59214 0.83381 0.91633 0.0
C3569 C 0.60415 0.84702 0.9308 0.0
C3570 C 0.62218 0.80798 0.91509 0.0
C3571 C 0.62443 0.83929 0.93825 0.0
C3572 C 0.65557 0.78465 0.91 0.0
C3573 C 0.63454 0.76186 0.8769 0.0
N3574 N 0.63291 0.82046 0.9301 0.0
N3575 N 0.62392 0.77776 0.8883 0.0
H3576 H 0.01487 0.93179 0.15348 0.0
H3577 H 0.09012 0.82546 0.15826 0.0
H3578 H 1.00404 0.87509 0.11279 0.0
H3579 H 0.09739 0.88132 0.20082 0.0
H3580 H 0.05576 0.8409 0.14465 0.0
H3581 H 0.04273 0.91162 0.17353 0.0
C3582 C 0.01828 0.91504 0.14881 0.0
C3583 C 0.00708 0.90518 0.13138 0.0
C3584 C 0.0647 0.84958 0.15724 0.0
C3585 C 0.03917 0.88188 0.15432 0.0
C3586 C 0.08425 0.8407 0.16514 0.0
C3587 C 0.09681 0.85227 0.1805 0.0
C3588 C 0.05774 0.87017 0.16474 0.0
C3589 C 0.0884 0.87195 0.18878 0.0
C3590 C 0.03414 0.90346 0.16037 0.0
C3591 C 0.01207 0.88333 0.12624 0.0
N3592 N 0.06958 0.8804 0.18059 0.0
N3593 N 0.02791 0.87248 0.13753 0.0
H3594 H 0.07723 0.67067 0.10011 0.0
H3595 H 0.18436 0.74475 0.10805 0.0
H3596 H 0.13553 0.66063 0.06159 0.0
H3597 H 0.12635 0.75639 0.1466 0.0
H3598 H 0.16485 0.7165 0.08789 0.0
H3599 H 0.09264 0.70507 0.11363 0.0
C3600 C 0.09304 0.67592 0.0941 0.0
C3601 C 0.10524 0.6626 0.07991 0.0
C3602 C 0.15627 0.72535 0.10061 0.0
C3603 C 0.12308 0.70174 0.09556 0.0
C3604 C 0.16747 0.74144 0.11223 0.0
C3605 C 0.15705 0.753 0.1291 0.0
C3606 C 0.13449 0.72048 0.10601 0.0
C3607 C 0.13503 0.74812 0.13359 0.0
C3608 C 0.1019 0.6955 0.10195 0.0
C3609 C 0.12565 0.67023 0.07271 0.0
N3610 N 0.12455 0.73208 0.12225 0.0
N3611 N 0.13402 0.68913 0.08081 0.0
H3612 H 0.00821 0.63742 0.11373 0.0
H3613 H 0.91164 0.62618 0.20109 0.0
H3614 H 0.99231 0.57814 0.14867 0.0
H3615 H 0.92091 0.68339 0.16076 0.0
H3616 H 0.94589 0.61129 0.18718 0.0
H3617 H 0.98062 0.65692 0.13524 0.0
C3618 C 0.9992 0.62856 0.12613 0.0
C3619 C 1.00257 0.60605 0.12936 0.0
C3620 C 0.94062 0.62724 0.18157 0.0
C3621 C 0.9709 0.62827 0.1539 0.0
C3622 C 0.92109 0.63582 0.18962 0.0
C3623 C 0.91321 0.65591 0.18184 0.0
C3624 C 0.95233 0.63875 0.1655 0.0
C3625 C 0.92628 0.66775 0.1671 0.0
C3626 C 0.98337 0.6397 0.13834 0.0
C3627 C 0.99011 0.59541 0.14544 0.0
N3628 N 0.94505 0.65883 0.15914 0.0
N3629 N 0.97483 0.60657 0.15701 0.0
H3630 H 0.88006 0.84664 0.05759 0.0
H3631 H 0.88831 0.75237 0.14782 0.0
H3632 H 0.93493 0.83986 0.1015 0.0
H3633 H 0.83036 0.7672 0.11027 0.0
H3634 H 0.90846 0.77976 0.12662 0.0
H3635 H 0.86508 0.81248 0.07164 0.0
C3636 C 0.8892 0.83774 0.06989 0.0
C3637 C 0.90861 0.84631 0.07861 0.0
C3638 C 0.89139 0.77682 0.1229 0.0
C3639 C 0.89132 0.80731 0.09509 0.0
C3640 C 0.87989 0.76111 0.13492 0.0
C3641 C 0.85755 0.75749 0.13085 0.0
C3642 C 0.88052 0.78889 0.10665 0.0
C3643 C 0.84747 0.76959 0.11415 0.0
C3644 C 0.88056 0.81828 0.07801 0.0
C3645 C 0.91983 0.83394 0.09441 0.0
N3646 N 0.85899 0.78475 0.10274 0.0
N3647 N 0.91084 0.81522 0.1024 0.0
H3648 H 0.39701 1.00242 0.137 0.0
H3649 H 0.30958 0.09902 0.12638 0.0
H3650 H 0.36131 0.01801 0.07809 0.0
H3651 H 0.35031 0.08976 0.1833 0.0
H3652 H 0.32342 0.06479 0.11138 0.0
H3653 H 0.37581 0.03016 0.1566 0.0
C3654 C 0.38451 0.01139 0.12824 0.0
C3655 C 0.38097 0.00787 0.1058 0.0
C3656 C 0.32914 0.07006 0.12729 0.0
C3657 C 0.35678 0.03973 0.12815 0.0
C3658 C 0.32113 0.08957 0.13593 0.0
C3659 C 0.32903 0.09745 0.15598 0.0
C3660 C 0.34529 0.05835 0.13868 0.0
C3661 C 0.34388 0.08439 0.16771 0.0
C3662 C 0.37248 0.02731 0.13944 0.0
C3663 C 0.36479 0.02031 0.0953 0.0
N3664 N 0.35179 0.06563 0.15872 0.0
N3665 N 0.35338 0.03569 0.10652 0.0
H3666 H 0.3972 0.00741 0.37447 0.0
H3667 H 0.30794 0.91241 0.38331 0.0
H3668 H 0.35858 0.99398 0.43206 0.0
H3669 H 0.35014 0.9209 0.32735 0.0
H3670 H 0.3218 0.94657 0.39847 0.0
H3671 H 0.37631 0.97971 0.35457 0.0
C3672 C 0.38414 0.99892 0.38287 0.0
C3673 C 0.37966 1.00307 0.40504 0.0
C3674 C 0.32784 0.94115 0.38273 0.0
C3675 C 0.35582 0.97118 0.38234 0.0
C3676 C 0.31983 0.92167 0.37399 0.0
C3677 C 0.32812 0.9136 0.35418 0.0
C3678 C 0.3444 0.95261 0.37167 0.0
C3679 C 0.34339 0.92642 0.34275 0.0
C3680 C 0.37228 0.98301 0.3715 0.0
C3681 C 0.36278 0.9912 0.41508 0.0
N3682 N 0.3513 0.94514 0.35183 0.0
N3683 N 0.35156 0.97579 0.40371 0.0
H3684 H 0.25747 0.36172 0.88616 0.0
H3685 H 0.16323 0.45204 0.87879 0.0
H3686 H 0.24474 0.40195 0.82951 0.0
H3687 H 0.17022 0.40783 0.93338 0.0
H3688 H 0.19743 0.43823 0.8637 0.0
H3689 H 0.22952 0.38211 0.9063 0.0
C3690 C 0.24908 0.37502 0.87803 0.0
C3691 C 0.2535 0.38011 0.85604 0.0
C3692 C 0.19167 0.43172 0.87913 0.0
C3693 C 0.22138 0.40338 0.87902 0.0
C3694 C 0.17218 0.43971 0.88783 0.0
C3695 C 0.16369 0.43088 0.90723 0.0
C3696 C 0.20274 0.41464 0.88979 0.0
C3697 C 0.1761 0.41503 0.91831 0.0
C3698 C 0.23303 0.38659 0.88954 0.0
C3699 C 0.24176 0.39728 0.84633 0.0
N3700 N 0.19486 0.40716 0.90926 0.0
N3701 N 0.22624 0.40822 0.85784 0.0
H3702 H 0.65309 0.51587 0.43376 0.0
H3703 H 0.66005 0.58979 0.32652 0.0
H3704 H 0.61417 0.504 0.37604 0.0
H3705 H 0.69974 0.59942 0.38412 0.0
H3706 H 0.64662 0.55543 0.34208 0.0
H3707 H 0.67318 0.54399 0.41399 0.0
C3708 C 0.64882 0.5191 0.41687 0.0
C3709 C 0.63186 0.50752 0.40661 0.0
C3710 C 0.65853 0.5649 0.35115 0.0
C3711 C 0.65487 0.5399 0.38376 0.0
C3712 C 0.66633 0.58446 0.3422 0.0
C3713 C 0.68084 0.59766 0.35417 0.0
C3714 C 0.66527 0.55857 0.37219 0.0
C3715 C 0.68838 0.58992 0.37441 0.0
C3716 C 0.6604 0.53512 0.40553 0.0
C3717 C 0.62725 0.5123 0.3846 0.0
N3718 N 0.6803 0.57105 0.38289 0.0
N3719 N 0.63855 0.52828 0.37397 0.0
H3720 H 0.34842 0.55862 0.37734 0.0
H3721 H 0.25234 0.64664 0.38794 0.0
H3722 H 0.33997 0.60007 0.43388 0.0
H3723 H 0.26822 0.6113 0.3289 0.0
H3724 H 0.27987 0.62517 0.4076 0.0
H3725 H 0.31413 0.5725 0.36252 0.0
C3726 C 0.33914 0.57034 0.38686 0.0
C3727 C 0.34727 0.57844 0.40673 0.0
C3728 C 0.27712 0.62198 0.3904 0.0
C3729 C 0.3081 0.59473 0.38963 0.0
C3730 C 0.26133 0.63416 0.37917 0.0
C3731 C 0.25798 0.63081 0.35668 0.0
C3732 C 0.28955 0.60631 0.37908 0.0
C3733 C 0.2704 0.61463 0.34615 0.0
C3734 C 0.31959 0.57836 0.37832 0.0
C3735 C 0.33441 0.59348 0.41842 0.0
N3736 N 0.28564 0.60307 0.35741 0.0
N3737 N 0.31561 0.60141 0.40952 0.0
H3738 H 0.15158 0.99466 0.57571 0.0
H3739 H 0.16005 0.92128 0.68322 0.0
H3740 H 0.1133 0.00672 0.63381 0.0
H3741 H 0.19918 0.91162 0.62526 0.0
H3742 H 0.14627 0.95551 0.66765 0.0
H3743 H 0.17197 0.96669 0.59539 0.0
C3744 C 0.14751 0.9915 0.59266 0.0
C3745 C 0.13065 1.00309 0.60306 0.0
C3746 C 0.15814 0.94606 0.65851 0.0
C3747 C 0.15401 0.9709 0.62581 0.0
C3748 C 0.16614 0.92659 0.66746 0.0
C3749 C 0.18058 0.91341 0.65539 0.0
C3750 C 0.16462 0.95234 0.63736 0.0
C3751 C 0.18787 0.92111 0.63504 0.0
C3752 C 0.15926 0.97557 0.60395 0.0
C3753 C 0.1263 0.99841 0.62515 0.0
N3754 N 0.17961 0.93989 0.62657 0.0
N3755 N 0.13777 0.98252 0.63573 0.0
H3756 H 0.25765 0.64705 0.62174 0.0
H3757 H 0.16172 0.55876 0.63159 0.0
H3758 H 0.24177 0.6112 0.68047 0.0
H3759 H 0.16968 0.6011 0.57566 0.0
H3760 H 0.19605 0.57253 0.64643 0.0
H3761 H 0.23007 0.62579 0.6019 0.0
C3762 C 0.24865 0.6345 0.6304 0.0
C3763 C 0.252 0.63095 0.65286 0.0
C3764 C 0.19047 0.57862 0.63076 0.0
C3765 C 0.2204 0.60667 0.63026 0.0
C3766 C 0.1709 0.57066 0.62221 0.0
C3767 C 0.16262 0.57903 0.60252 0.0
C3768 C 0.20183 0.5952 0.61964 0.0
C3769 C 0.17536 0.59429 0.59098 0.0
C3770 C 0.23283 0.62244 0.61907 0.0
C3771 C 0.23958 0.61469 0.66325 0.0
N3772 N 0.19419 0.60216 0.59989 0.0
N3773 N 0.22433 0.60324 0.65191 0.0
H3774 H 0.84717 0.95243 0.63145 0.0
H3775 H 0.75286 0.86224 0.62353 0.0
H3776 H 0.84006 0.90861 0.57655 0.0
H3777 H 0.76606 0.90166 0.68062 0.0
H3778 H 0.78065 0.88291 0.60344 0.0
H3779 H 0.81296 0.93856 0.64647 0.0
C3780 C 0.83819 0.94018 0.62232 0.0
C3781 C 0.84666 0.93146 0.60287 0.0
C3782 C 0.77727 0.88716 0.6203 0.0
C3783 C 0.80761 0.91515 0.62022 0.0
C3784 C 0.76132 0.87543 0.63178 0.0
C3785 C 0.75709 0.8802 0.65387 0.0
C3786 C 0.78902 0.90379 0.63096 0.0
C3787 C 0.7689 0.89724 0.66372 0.0
C3788 C 0.81869 0.93215 0.63099 0.0
C3789 C 0.83421 0.91571 0.59168 0.0
N3790 N 0.78432 0.90834 0.65224 0.0
N3791 N 0.81545 0.9078 0.60069 0.0
H3792 H 0.57677 0.85857 0.51576 0.0
H3793 H 0.684 0.85028 0.58944 0.0
H3794 H 0.6348 0.89703 0.50391 0.0
H3795 H 0.62639 0.81045 0.59839 0.0
H3796 H 0.66856 0.86409 0.55518 0.0
H3797 H 0.59651 0.83803 0.54357 0.0
C3798 C 0.59372 0.86265 0.51894 0.0
C3799 C 0.60408 0.87961 0.50747 0.0
C3800 C 0.65947 0.85206 0.56447 0.0
C3801 C 0.62689 0.85608 0.53948 0.0
C3802 C 0.66835 0.84404 0.58397 0.0
C3803 C 0.65632 0.8294 0.59697 0.0
C3804 C 0.63844 0.84541 0.558 0.0
C3805 C 0.63613 0.82192 0.58905 0.0
C3806 C 0.60504 0.8508 0.53477 0.0
C3807 C 0.62617 0.88397 0.51215 0.0
N3808 N 0.62771 0.83022 0.57026 0.0
N3809 N 0.63678 0.87241 0.52796 0.0
H3810 H 0.10106 0.07489 0.6698 0.0
H3811 H 0.10869 0.18185 0.74345 0.0
H3812 H 0.059 0.13115 0.66264 0.0
H3813 H 0.14657 0.12371 0.75646 0.0
H3814 H 0.08798 0.16181 0.716 0.0
H3815 H 0.11489 0.09018 0.70413 0.0
C3816 C 0.09434 0.09018 0.67569 0.0
C3817 C 0.07907 0.10192 0.66315 0.0
C3818 C 0.10065 0.1533 0.72498 0.0
C3819 C 0.09509 0.11965 0.70219 0.0
C3820 C 0.11259 0.1648 0.7406 0.0
C3821 C 0.12945 0.1545 0.75225 0.0
C3822 C 0.10577 0.13134 0.72062 0.0
C3823 C 0.1336 0.13228 0.74801 0.0
C3824 C 0.10235 0.09898 0.69524 0.0
C3825 C 0.07098 0.12166 0.6716 0.0
N3826 N 0.122 0.1215 0.73234 0.0
N3827 N 0.0793 0.13003 0.69039 0.0
H3828 H 0.37362 0.61373 0.50215 0.0
H3829 H 0.38479 0.70011 0.59958 0.0
H3830 H 0.43275 0.64899 0.51793 0.0
H3831 H 0.32729 0.66042 0.58938 0.0
H3832 H 0.39986 0.68642 0.56532 0.0
H3833 H 0.35416 0.63486 0.53001 0.0
C3834 C 0.38246 0.62612 0.51118 0.0
C3835 C 0.40492 0.62956 0.50767 0.0
C3836 C 0.38381 0.6809 0.5704 0.0
C3837 C 0.38273 0.65366 0.53971 0.0
C3838 C 0.37513 0.68882 0.58993 0.0
C3839 C 0.35488 0.68117 0.59753 0.0
C3840 C 0.37225 0.66508 0.5584 0.0
C3841 C 0.34304 0.66666 0.58422 0.0
C3842 C 0.37134 0.63811 0.52718 0.0
C3843 C 0.41552 0.6456 0.52021 0.0
N3844 N 0.35205 0.65881 0.56544 0.0
N3845 N 0.40437 0.65696 0.53568 0.0
H3846 H 0.86268 0.38802 0.75806 0.0
H3847 H 0.95164 0.37859 0.66274 0.0
H3848 H 0.89918 0.32954 0.7427 0.0
H3849 H 0.90901 0.43435 0.67045 0.0
H3850 H 0.93772 0.36368 0.69697 0.0
H3851 H 0.88393 0.40793 0.73054 0.0
C3852 C 0.87536 0.37943 0.74918 0.0
C3853 C 0.87912 0.35702 0.75268 0.0
C3854 C 0.9316 0.37933 0.69136 0.0
C3855 C 0.90337 0.37971 0.72112 0.0
C3856 C 0.93965 0.38792 0.67185 0.0
C3857 C 0.93125 0.40758 0.66353 0.0
C3858 C 0.9149 0.39038 0.70262 0.0
C3859 C 0.91585 0.41905 0.67617 0.0
C3860 C 0.88742 0.3908 0.7334 0.0
C3861 C 0.89554 0.34672 0.7404 0.0
N3862 N 0.90791 0.4101 0.69494 0.0
N3863 N 0.90698 0.35811 0.72517 0.0
H3864 H 0.68468 0.15861 0.92044 0.0
H3865 H 0.57764 0.15082 0.99423 0.0
H3866 H 0.62791 0.19987 0.91266 0.0
H3867 H 0.63566 0.11252 0.00661 0.0
H3868 H 0.59754 0.1714 0.96658 0.0
H3869 H 0.66929 0.1447 0.9547 0.0
C3870 C 0.66924 0.16514 0.92618 0.0
C3871 C 0.65741 0.18021 0.9135 0.0
C3872 C 0.60605 0.15866 0.97546 0.0
C3873 C 0.63958 0.1641 0.95245 0.0
C3874 C 0.59463 0.14679 0.9912 0.0
C3875 C 0.60493 0.12987 1.00276 0.0
C3876 C 0.62794 0.15341 0.97091 0.0
C3877 C 0.62707 0.12556 0.99827 0.0
C3878 C 0.66039 0.15707 0.94568 0.0
C3879 C 0.63748 0.18805 0.92175 0.0
N3880 N 0.63778 0.13711 0.98252 0.0
N3881 N 0.62908 0.17969 0.94051 0.0
H3882 H 0.40981 0.07491 0.33978 0.0
H3883 H 0.40007 0.18223 0.26685 0.0
H3884 H 0.45049 0.13209 0.34761 0.0
H3885 H 0.36347 0.12339 0.25338 0.0
H3886 H 0.4211 0.16247 0.29428 0.0
H3887 H 0.39573 0.09019 0.30555 0.0
C3888 C 0.41618 0.09042 0.33406 0.0
C3889 C 0.43113 0.10239 0.34676 0.0
C3890 C 0.40864 0.15375 0.2852 0.0
C3891 C 0.41482 0.1201 0.30783 0.0
C3892 C 0.39652 0.16509 0.2696 0.0
C3893 C 0.37992 0.15451 0.25783 0.0
C3894 C 0.40396 0.13167 0.28942 0.0
C3895 C 0.37622 0.13219 0.26193 0.0
C3896 C 0.40803 0.0992 0.31457 0.0
C3897 C 0.43878 0.1224 0.33852 0.0
N3898 N 0.38799 0.12156 0.27758 0.0
N3899 N 0.43032 0.13074 0.31977 0.0
H3900 H 0.43308 0.35802 0.99476 0.0
H3901 H 0.32616 0.35043 0.92064 0.0
H3902 H 0.37534 0.39702 0.00625 0.0
H3903 H 0.38328 0.30975 0.91237 0.0
H3904 H 0.34152 0.36422 0.95494 0.0
H3905 H 0.41323 0.33745 0.96705 0.0
C3906 C 0.41617 0.36221 0.99152 0.0
C3907 C 0.40592 0.37933 1.00286 0.0
C3908 C 0.35051 0.352 0.9458 0.0
C3909 C 0.38299 0.35578 0.97096 0.0
C3910 C 0.34168 0.344 0.92628 0.0
C3911 C 0.35361 0.32913 0.91345 0.0
C3912 C 0.37141 0.34512 0.95246 0.0
C3913 C 0.37363 0.32141 0.92158 0.0
C3914 C 0.40478 0.35035 0.97575 0.0
C3915 C 0.38388 0.38384 0.99811 0.0
N3916 N 0.38202 0.3297 0.94038 0.0
N3917 N 0.37321 0.37227 0.98235 0.0
H3918 H 0.60879 0.32868 0.2659 0.0
H3919 H 0.60245 0.43541 0.34028 0.0
H3920 H 0.64822 0.38605 0.25409 0.0
H3921 H 0.5601 0.37937 0.34741 0.0
H3922 H 0.61635 0.41997 0.30604 0.0
H3923 H 0.58843 0.34879 0.29356 0.0
C3924 C 0.61312 0.34557 0.26907 0.0
C3925 C 0.63029 0.35563 0.25766 0.0
C3926 C 0.60374 0.41125 0.31492 0.0
C3927 C 0.607 0.37888 0.28952 0.0
C3928 C 0.59568 0.42014 0.3344 0.0
C3929 C 0.58029 0.40851 0.34689 0.0
C3930 C 0.59639 0.3906 0.30797 0.0
C3931 C 0.57216 0.38878 0.33847 0.0
C3932 C 0.60139 0.35711 0.28481 0.0
C3933 C 0.63499 0.37766 0.26231 0.0
N3934 N 0.58051 0.38033 0.31973 0.0
N3935 N 0.62355 0.38848 0.27806 0.0
H3936 H 0.50317 0.63739 0.89866 0.0
H3937 H 0.59688 0.63016 0.80778 0.0
H3938 H 0.5163 0.58055 0.85886 0.0
H3939 H 0.59061 0.68437 0.85257 0.0
H3940 H 0.56267 0.61518 0.82169 0.0
H3941 H 0.53089 0.65765 0.87802 0.0
C3942 C 0.5116 0.62924 0.8854 0.0
C3943 C 0.5074 0.60717 0.88051 0.0
C3944 C 0.56859 0.63051 0.8283 0.0
C3945 C 0.5392 0.63026 0.85694 0.0
C3946 C 0.58808 0.63915 0.82026 0.0
C3947 C 0.59679 0.65839 0.82923 0.0
C3948 C 0.55774 0.64107 0.84558 0.0
C3949 C 0.58456 0.66942 0.84526 0.0
C3950 C 0.52751 0.64081 0.87369 0.0
C3951 C 0.51915 0.59743 0.86337 0.0
N3952 N 0.5658 0.66042 0.85318 0.0
N3953 N 0.53451 0.609 0.85229 0.0
H3954 H 0.88552 0.25674 0.36199 0.0
H3955 H 0.87734 0.16141 0.45102 0.0
H3956 H 0.82839 0.24351 0.40136 0.0
H3957 H 0.93278 0.16965 0.4081 0.0
H3958 H 0.86212 0.19561 0.43734 0.0
H3959 H 0.90548 0.22869 0.38237 0.0
C3960 C 0.87724 0.24822 0.37511 0.0
C3961 C 0.85518 0.25255 0.37996 0.0
C3962 C 0.87776 0.19013 0.43109 0.0
C3963 C 0.87795 0.22026 0.4032 0.0
C3964 C 0.88653 0.17063 0.43901 0.0
C3965 C 0.90622 0.16249 0.43049 0.0
C3966 C 0.88866 0.20156 0.41441 0.0
C3967 C 0.91748 0.17525 0.41505 0.0
C3968 C 0.88864 0.23211 0.38667 0.0
C3969 C 0.84528 0.24061 0.39689 0.0
N3970 N 0.90837 0.194 0.40725 0.0
N3971 N 0.85669 0.22501 0.40781 0.0
H3972 H 0.42025 0.82509 0.85043 0.0
H3973 H 0.4941 0.93188 0.8591 0.0
H3974 H 0.41286 0.882 0.80929 0.0
H3975 H 0.5067 0.87344 0.89667 0.0
H3976 H 0.46662 0.91209 0.83817 0.0
H3977 H 0.45463 0.8402 0.86434 0.0
C3978 C 0.4261 0.8405 0.84392 0.0
C3979 C 0.41348 0.85247 0.8289 0.0
C3980 C 0.47552 0.90347 0.85083 0.0
C3981 C 0.45257 0.86997 0.84501 0.0
C3982 C 0.49116 0.91482 0.86289 0.0
C3983 C 0.50269 0.90436 0.87973 0.0
C3984 C 0.47104 0.88149 0.8558 0.0
C3985 C 0.49834 0.88214 0.88372 0.0
C3986 C 0.44567 0.84918 0.85199 0.0
C3987 C 0.42188 0.87233 0.82107 0.0
N3988 N 0.48267 0.8715 0.872 0.0
N3989 N 0.44071 0.88059 0.82944 0.0
H3990 H 0.13293 0.34786 0.45149 0.0
H3991 H 0.12277 0.25248 0.36268 0.0
H3992 H 0.07635 0.33932 0.41012 0.0
H3993 H 0.18154 0.26761 0.39881 0.0
H3994 H 0.10308 0.27996 0.38414 0.0
H3995 H 0.14798 0.3138 0.4373 0.0
C3996 C 0.12345 0.3386 0.43973 0.0
C3997 C 0.10349 0.34664 0.43175 0.0
C3998 C 0.12023 0.27707 0.3875 0.0
C3999 C 0.12086 0.30774 0.41509 0.0
C4000 C 0.13148 0.2613 0.37532 0.0
C4001 C 0.1539 0.25772 0.37892 0.0
C4002 C 0.13145 0.28929 0.40341 0.0
C4003 C 0.16434 0.26996 0.39529 0.0
C4004 C 0.13213 0.31919 0.43152 0.0
C4005 C 0.09187 0.33382 0.41663 0.0
N4006 N 0.15307 0.2852 0.40684 0.0
N4007 N 0.10089 0.31515 0.40852 0.0
H4008 H 0.58825 0.3271 0.66212 0.0
H4009 H 0.51617 0.43517 0.65044 0.0
H4010 H 0.59925 0.38641 0.69884 0.0
H4011 H 0.50323 0.37588 0.6143 0.0
H4012 H 0.54401 0.41587 0.67139 0.0
H4013 H 0.55404 0.34258 0.64826 0.0
C4014 C 0.58325 0.34317 0.66767 0.0
C4015 C 0.59681 0.35561 0.68143 0.0
C4016 C 0.53495 0.40698 0.65904 0.0
C4017 C 0.55788 0.37351 0.66536 0.0
C4018 C 0.5191 0.41804 0.64696 0.0
C4019 C 0.50732 0.40719 0.63053 0.0
C4020 C 0.53935 0.38489 0.65452 0.0
C4021 C 0.5117 0.3849 0.62695 0.0
C4022 C 0.56378 0.35205 0.65962 0.0
C4023 C 0.58947 0.37632 0.68806 0.0
N4024 N 0.52752 0.37455 0.63871 0.0
N4025 N 0.57067 0.38472 0.67974 0.0
H4026 H 0.62898 0.1639 0.55797 0.0
H4027 H 0.62065 0.25753 0.64892 0.0
H4028 H 0.57462 0.16943 0.60266 0.0
H4029 H 0.67862 0.24274 0.61142 0.0
H4030 H 0.60051 0.23011 0.62766 0.0
H4031 H 0.6437 0.19809 0.57222 0.0
C4032 C 0.61989 0.17253 0.5705 0.0
C4033 C 0.60071 0.16361 0.57936 0.0
C4034 C 0.61758 0.23308 0.62397 0.0
C4035 C 0.61772 0.20264 0.59607 0.0
C4036 C 0.62907 0.24879 0.63602 0.0
C4037 C 0.65141 0.2524 0.63198 0.0
C4038 C 0.62847 0.22104 0.6077 0.0
C4039 C 0.6615 0.24034 0.61527 0.0
C4040 C 0.62839 0.19201 0.57873 0.0
C4041 C 0.58954 0.17565 0.59544 0.0
N4042 N 0.65 0.2252 0.60382 0.0
N4043 N 0.59839 0.19441 0.60354 0.0
H4044 H 0.49393 0.07377 0.65096 0.0
H4045 H 0.42168 0.18194 0.66223 0.0
H4046 H 0.50648 0.13288 0.61439 0.0
H4047 H 0.40903 0.12179 0.69699 0.0
H4048 H 0.45602 0.16639 0.64877 0.0
H4049 H 0.46565 0.09291 0.67144 0.0
C4050 C 0.49083 0.09082 0.64729 0.0
C4051 C 0.50265 0.10166 0.63088 0.0
C4052 C 0.44589 0.15674 0.65961 0.0
C4053 C 0.47012 0.12379 0.65435 0.0
C4054 C 0.42634 0.16566 0.66744 0.0
C4055 C 0.41232 0.15303 0.68054 0.0
C4056 C 0.4514 0.13506 0.66493 0.0
C4057 C 0.4192 0.13203 0.68673 0.0
C4058 C 0.47471 0.10179 0.65909 0.0
C4059 C 0.49802 0.12386 0.62704 0.0
N4060 N 0.4381 0.12363 0.67866 0.0
N4061 N 0.48198 0.13413 0.63856 0.0
H4062 H 0.43662 0.33968 0.59986 0.0
H4063 H 0.3291 0.26847 0.61386 0.0
H4064 H 0.37884 0.34704 0.55996 0.0
H4065 H 0.38957 0.25256 0.64659 0.0
H4066 H 0.34847 0.29535 0.5918 0.0
H4067 H 0.42171 0.30543 0.61431 0.0
C4068 C 0.42106 0.33385 0.59372 0.0
C4069 C 0.40879 0.34645 0.57893 0.0
C4070 C 0.35763 0.28584 0.6036 0.0
C4071 C 0.39151 0.30751 0.59567 0.0
C4072 C 0.34652 0.27056 0.61631 0.0
C4073 C 0.35769 0.25832 0.63216 0.0
C4074 C 0.38009 0.28929 0.60698 0.0
C4075 C 0.38033 0.26155 0.63446 0.0
C4076 C 0.4125 0.31434 0.60208 0.0
C4077 C 0.38874 0.33805 0.57157 0.0
N4078 N 0.39075 0.27695 0.6222 0.0
N4079 N 0.3806 0.31932 0.58026 0.0
H4080 H 0.80734 0.5971 0.63013 0.0
H4081 H 0.89824 0.50335 0.63657 0.0
H4082 H 0.85239 0.59058 0.68409 0.0
H4083 H 0.85779 0.51628 0.58014 0.0
H4084 H 0.87782 0.53111 0.65696 0.0
H4085 H 0.82116 0.56294 0.61494 0.0
C4086 C 0.81986 0.58826 0.63902 0.0
C4087 C 0.82892 0.59688 0.65826 0.0
C4088 C 0.87329 0.52768 0.64018 0.0
C4089 C 0.84516 0.55788 0.6407 0.0
C4090 C 0.88488 0.51175 0.62854 0.0
C4091 C 0.87974 0.50744 0.60655 0.0
C4092 C 0.85643 0.53934 0.62979 0.0
C4093 C 0.8625 0.51918 0.59696 0.0
C4094 C 0.82785 0.56879 0.63026 0.0
C4095 C 0.845 0.5846 0.66915 0.0
N4096 N 0.85154 0.53458 0.60859 0.0
N4097 N 0.85286 0.56587 0.66004 0.0
H4098 H 0.89707 0.50818 0.87264 0.0
H4099 H 0.80994 0.41146 0.88456 0.0
H4100 H 0.86206 0.4927 0.93199 0.0
H4101 H 0.8499 0.42069 0.82709 0.0
H4102 H 0.82387 0.44576 0.8993 0.0
H4103 H 0.87563 0.48039 0.85334 0.0
C4104 C 0.88467 0.49922 0.88156 0.0
C4105 C 0.8814 0.50278 0.90404 0.0
C4106 C 0.8294 0.44047 0.88333 0.0
C4107 C 0.85695 0.47087 0.88204 0.0
C4108 C 0.82134 0.42091 0.87483 0.0
C4109 C 0.829 0.41301 0.8547 0.0
C4110 C 0.84537 0.4522 0.8717 0.0
C4111 C 0.84365 0.42608 0.84276 0.0
C4112 C 0.87251 0.48327 0.87054 0.0
C4113 C 0.86533 0.49037 0.91475 0.0
N4114 N 0.85163 0.44489 0.85159 0.0
N4115 N 0.8538 0.47496 0.90369 0.0
H4116 H 0.7451 0.90223 0.32795 0.0
H4117 H 0.6703 0.9084 0.43455 0.0
H4118 H 0.75632 0.86236 0.38514 0.0
H4119 H 0.66263 0.95003 0.37806 0.0
H4120 H 0.70456 0.89453 0.4191 0.0
H4121 H 0.7172 0.92241 0.34791 0.0
C4122 C 0.74176 0.89776 0.34477 0.0
C4123 C 0.75309 0.88052 0.35482 0.0
C4124 C 0.69556 0.90697 0.41027 0.0
C4125 C 0.72094 0.90362 0.3779 0.0
C4126 C 0.67606 0.91502 0.41916 0.0
C4127 C 0.66342 0.93021 0.40743 0.0
C4128 C 0.70238 0.91415 0.38953 0.0
C4129 C 0.67168 0.93814 0.38755 0.0
C4130 C 0.72587 0.90939 0.35622 0.0
C4131 C 0.74819 0.87565 0.37675 0.0
N4132 N 0.69046 0.92982 0.37912 0.0
N4133 N 0.73232 0.88701 0.38749 0.0
H4134 H 0.11354 1.00246 0.87213 0.0
H4135 H 0.2009 0.09911 0.88274 0.0
H4136 H 0.14861 0.01865 0.93124 0.0
H4137 H 0.15992 0.09002 0.82597 0.0
H4138 H 0.18715 0.06482 0.89769 0.0
H4139 H 0.13492 0.03004 0.85247 0.0
C4140 C 0.12594 0.01153 0.88092 0.0
C4141 C 0.12924 0.00825 0.90343 0.0
C4142 C 0.18136 0.07014 0.88182 0.0
C4143 C 0.15364 0.0399 0.88103 0.0
C4144 C 0.18932 0.08969 0.8732 0.0
C4145 C 0.18131 0.09764 0.85323 0.0
C4146 C 0.16516 0.05847 0.87046 0.0
C4147 C 0.16643 0.0846 0.84151 0.0
C4148 C 0.13807 0.02735 0.86969 0.0
C4149 C 0.14532 0.02078 0.91397 0.0
N4150 N 0.15857 0.06581 0.85047 0.0
N4151 N 0.15683 0.03606 0.90272 0.0
H4152 H 0.83916 0.10058 0.93434 0.0
H4153 H 0.76498 0.10756 0.82737 0.0
H4154 H 0.84735 0.05952 0.87749 0.0
H4155 H 0.75358 0.147 0.88482 0.0
H4156 H 0.79276 0.08717 0.84732 0.0
H4157 H 0.80493 0.11442 0.91883 0.0
C4158 C 0.83352 0.09408 0.91885 0.0
C4159 C 0.8463 0.07907 0.90705 0.0
C4160 C 0.78406 0.10013 0.85568 0.0
C4161 C 0.80738 0.09511 0.88908 0.0
C4162 C 0.76825 0.11189 0.84424 0.0
C4163 C 0.75691 0.12907 0.85437 0.0
C4164 C 0.78888 0.10572 0.87743 0.0
C4165 C 0.76171 0.13376 0.87637 0.0
C4166 C 0.81404 0.10211 0.90994 0.0
C4167 C 0.83818 0.07127 0.88705 0.0
N4168 N 0.7775 0.12228 0.88709 0.0
N4169 N 0.81942 0.07959 0.87859 0.0
H4170 H 0.70126 0.4122 0.1275 0.0
H4171 H 0.61177 0.50708 0.13594 0.0
H4172 H 0.65858 0.42034 0.18314 0.0
H4173 H 0.65062 0.4936 0.07851 0.0
H4174 H 0.63252 0.4793 0.15591 0.0
H4175 H 0.68735 0.44633 0.11231 0.0
C4176 C 0.68925 0.42139 0.13674 0.0
C4177 C 0.68086 0.41323 0.15648 0.0
C4178 C 0.63663 0.48261 0.139 0.0
C4179 C 0.66451 0.45219 0.13894 0.0
C4180 C 0.62485 0.49856 0.12759 0.0
C4181 C 0.62944 0.50273 0.10545 0.0
C4182 C 0.65312 0.47077 0.12823 0.0
C4183 C 0.64634 0.49081 0.09547 0.0
C4184 C 0.68121 0.44084 0.12799 0.0
C4185 C 0.66543 0.42595 0.16781 0.0
N4186 N 0.65748 0.47538 0.10688 0.0
N4187 N 0.65749 0.44465 0.15871 0.0
H4188 H 0.6706 0.09967 0.07523 0.0
H4189 H 0.74358 0.10949 0.18253 0.0
H4190 H 0.66211 0.05977 0.13285 0.0
H4191 H 0.75685 0.14607 0.12363 0.0
H4192 H 0.71608 0.08847 0.16287 0.0
H4193 H 0.70496 0.1135 0.09043 0.0
C4194 C 0.67619 0.09342 0.09083 0.0
C4195 C 0.66328 0.07878 0.10295 0.0
C4196 C 0.72513 0.10092 0.15412 0.0
C4197 C 0.70236 0.0948 0.12056 0.0
C4198 C 0.74078 0.11303 0.1654 0.0
C4199 C 0.75252 0.12963 0.15477 0.0
C4200 C 0.72084 0.1056 0.13205 0.0
C4201 C 0.74835 0.13332 0.13246 0.0
C4202 C 0.69576 0.10143 0.09956 0.0
C4203 C 0.67137 0.07125 0.12306 0.0
N4204 N 0.73266 0.12156 0.1219 0.0
N4205 N 0.6902 0.07957 0.13135 0.0
H4206 H 0.33987 0.40843 0.07572 0.0
H4207 H 0.26529 0.40207 0.18248 0.0
H4208 H 0.34785 0.44977 0.13239 0.0
H4209 H 0.25391 0.36241 0.12517 0.0
H4210 H 0.29323 0.42223 0.16254 0.0
H4211 H 0.30561 0.39461 0.09121 0.0
C4212 C 0.33418 0.415 0.09116 0.0
C4213 C 0.3469 0.43009 0.10292 0.0
C4214 C 0.2845 0.40927 0.1542 0.0
C4215 C 0.30795 0.41408 0.12086 0.0
C4216 C 0.2686 0.39764 0.16564 0.0
C4217 C 0.25722 0.38047 0.15555 0.0
C4218 C 0.28939 0.40356 0.1325 0.0
C4219 C 0.26208 0.37565 0.1336 0.0
C4220 C 0.31468 0.40697 0.10006 0.0
C4221 C 0.33873 0.43796 0.12286 0.0
N4222 N 0.27796 0.387 0.12287 0.0
N4223 N 0.31995 0.42966 0.13131 0.0
H4224 H 0.07011 0.26288 0.20371 0.0
H4225 H 0.93968 0.24654 0.20351 0.0
H4226 H 0.02392 0.31457 0.19103 0.0
H4227 H 0.98594 0.19493 0.19079 0.0
H4228 H 0.9704 0.27148 0.21111 0.0
H4229 H 0.03936 0.23794 0.21117 0.0
C4230 C 0.05354 0.26916 0.20326 0.0
C4231 C 0.0495 0.29079 0.19678 0.0
C4232 C 0.97378 0.25454 0.20719 0.0
C4233 C 0.01434 0.26244 0.20504 0.0
C4234 C 0.95625 0.24028 0.20307 0.0
C4235 C 0.96033 0.21867 0.19654 0.0
C4236 C 0.99545 0.24702 0.20498 0.0
C4237 C 0.98214 0.21149 0.19578 0.0
C4238 C 0.036 0.2549 0.2073 0.0
C4239 C 0.02769 0.29799 0.19599 0.0
N4240 N 0.99886 0.22563 0.19977 0.0
N4241 N 0.01095 0.28385 0.19989 0.0
H4242 H 0.51283 0.68978 0.05638 0.0
H4243 H 0.49575 0.82015 0.05621 0.0
H4244 H 0.56426 0.73631 0.0688 0.0
H4245 H 0.4443 0.77365 0.06871 0.0
H4246 H 0.52088 0.78954 0.04882 0.0
H4247 H 0.48769 0.72037 0.04888 0.0
C4248 C 0.519 0.70639 0.05677 0.0
C4249 C 0.54063 0.71057 0.06319 0.0
C4250 C 0.50394 0.78608 0.05265 0.0
C4251 C 0.51205 0.74555 0.05489 0.0
C4252 C 0.48957 0.80355 0.05665 0.0
C4253 C 0.46794 0.79938 0.06306 0.0
C4254 C 0.49652 0.76438 0.05487 0.0
C4255 C 0.46088 0.77752 0.06382 0.0
C4256 C 0.50463 0.72384 0.05272 0.0
C4257 C 0.54769 0.73243 0.0639 0.0
N4258 N 0.47512 0.76087 0.05995 0.0
N4259 N 0.53344 0.74907 0.05998 0.0
H4260 H 0.93982 0.76274 0.30664 0.0
H4261 H 0.07022 0.74604 0.30653 0.0
H4262 H 0.98616 0.81451 0.31834 0.0
H4263 H 0.02385 0.69475 0.32016 0.0
H4264 H 0.03953 0.77099 0.29877 0.0
H4265 H 0.97049 0.73763 0.29945 0.0
C4266 C 0.9564 0.76899 0.30692 0.0
C4267 C 0.96051 0.79071 0.31305 0.0
C4268 C 0.03612 0.75411 0.30294 0.0
C4269 C 0.99558 0.76215 0.30511 0.0
C4270 C 0.05362 0.73985 0.30715 0.0
C4271 C 0.04952 0.71833 0.31398 0.0
C4272 C 0.01444 0.74669 0.30535 0.0
C4273 C 0.02768 0.71125 0.31496 0.0
C4274 C 0.9739 0.75463 0.30304 0.0
C4275 C 0.98234 0.79787 0.31365 0.0
N4276 N 0.01099 0.72538 0.31086 0.0
N4277 N 0.99903 0.78363 0.30991 0.0
H4278 H 0.01422 0.82053 0.95278 0.0
H4279 H 0.9971 0.69016 0.95256 0.0
H4280 H 0.06548 0.77405 0.93943 0.0
H4281 H 0.94558 0.73665 0.94032 0.0
H4282 H 0.02228 0.72077 0.9598 0.0
H4283 H 0.98912 0.78989 0.96025 0.0
C4284 C 0.02036 0.80392 0.95216 0.0
C4285 C 0.04192 0.79977 0.9455 0.0
C4286 C 0.00532 0.72422 0.95606 0.0
C4287 C 0.0134 0.76475 0.95379 0.0
C4288 C 0.99093 0.70676 0.95215 0.0
C4289 C 0.96926 0.71092 0.94586 0.0
C4290 C 0.99788 0.74593 0.95388 0.0
C4291 C 0.96219 0.73278 0.94512 0.0
C4292 C 0.00602 0.78645 0.9562 0.0
C4293 C 0.04895 0.77791 0.94451 0.0
N4294 N 0.97645 0.74944 0.94891 0.0
N4295 N 0.03474 0.76125 0.94845 0.0
H4296 H 0.20457 0.94012 0.24716 0.0
H4297 H 0.20359 0.07053 0.26381 0.0
H4298 H 0.19107 0.98635 0.19573 0.0
H4299 H 0.1923 0.02405 0.31554 0.0
H4300 H 0.21104 0.03993 0.23867 0.0
H4301 H 0.21212 0.97086 0.27208 0.0
C4302 C 0.20396 0.9567 0.24093 0.0
C4303 C 0.19723 0.96075 0.21938 0.0
C4304 C 0.20746 0.03648 0.25567 0.0
C4305 C 0.20558 0.9959 0.24772 0.0
C4306 C 0.20343 0.05394 0.27004 0.0
C4307 C 0.19735 0.04977 0.29176 0.0
C4308 C 0.2056 0.01477 0.26318 0.0
C4309 C 0.19693 0.02793 0.2989 0.0
C4310 C 0.20804 0.97423 0.25518 0.0
C4311 C 0.19623 0.98257 0.21225 0.0
N4312 N 0.20082 0.01127 0.28466 0.0
N4313 N 0.20018 0.9993 0.22638 0.0
H4314 H 0.1904 0.55632 0.0142 0.0
H4315 H 0.32076 0.55695 0.99722 0.0
H4316 H 0.23682 0.57025 0.06536 0.0
H4317 H 0.27423 0.56834 0.94554 0.0
H4318 H 0.29018 0.54969 0.02242 0.0
H4319 H 0.22107 0.54863 0.98922 0.0
C4320 C 0.20701 0.55703 0.02035 0.0
C4321 C 0.21113 0.56393 0.04184 0.0
C4322 C 0.28671 0.55324 0.00542 0.0
C4323 C 0.24618 0.55537 0.01345 0.0
C4324 C 0.30416 0.55716 0.99102 0.0
C4325 C 0.29996 0.56322 0.9693 0.0
C4326 C 0.265 0.55519 0.99795 0.0
C4327 C 0.27812 0.56371 0.96219 0.0
C4328 C 0.22449 0.55286 0.00607 0.0
C4329 C 0.23298 0.565 0.04889 0.0
N4330 N 0.26148 0.55992 0.97647 0.0
N4331 N 0.24966 0.56094 0.03473 0.0
H4332 H 0.81786 0.52483 0.1935 0.0
H4333 H 0.81846 0.48558 0.31557 0.0
H4334 H 0.80747 0.56943 0.24699 0.0
H4335 H 0.80735 0.44103 0.26217 0.0
H4336 H 0.81062 0.51637 0.29123 0.0
H4337 H 0.8102 0.49407 0.21793 0.0
C4338 C 0.81331 0.52814 0.2103 0.0
C4339 C 0.81313 0.54969 0.21821 0.0
C4340 C 0.80932 0.49988 0.28489 0.0
C4341 C 0.80517 0.51447 0.24659 0.0
C4342 C 0.8137 0.48229 0.29882 0.0
C4343 C 0.81338 0.46074 0.2909 0.0
C4344 C 0.80521 0.496 0.26262 0.0
C4345 C 0.8075 0.45738 0.26898 0.0
C4346 C 0.80902 0.51056 0.22429 0.0
C4347 C 0.8075 0.55308 0.24019 0.0
N4348 N 0.80408 0.47484 0.25549 0.0
N4349 N 0.80417 0.53563 0.25373 0.0
H4350 H 0.77491 0.93997 0.06562 0.0
H4351 H 0.73511 0.94278 0.94389 0.0
H4352 H 0.81905 0.9533 0.01239 0.0
H4353 H 0.69063 0.95154 0.99777 0.0
H4354 H 0.76587 0.95047 0.96832 0.0
H4355 H 0.7439 0.94799 0.04162 0.0
C4356 C 0.77805 0.94525 0.04899 0.0
C4357 C 0.79954 0.94614 0.041 0.0
C4358 C 0.74939 0.95129 0.97477 0.0
C4359 C 0.76406 0.95452 0.0131 0.0
C4360 C 0.73182 0.94699 0.96079 0.0
C4361 C 0.71032 0.9467 0.96881 0.0
C4362 C 0.74554 0.95467 0.99716 0.0
C4363 C 0.70695 0.95188 0.9909 0.0
C4364 C 0.76033 0.94974 0.03526 0.0
C4365 C 0.80273 0.95269 0.01925 0.0
N4366 N 0.7244 0.95522 1.00441 0.0
N4367 N 0.78516 0.9562 0.00592 0.0
H4368 H 0.24723 0.20367 0.93969 0.0
H4369 H 0.26335 0.20282 0.07017 0.0
H4370 H 0.19564 0.18993 0.98566 0.0
H4371 H 0.3152 0.19084 0.02399 0.0
H4372 H 0.23838 0.21023 0.03941 0.0
H4373 H 0.27205 0.21111 0.97056 0.0
C4374 C 0.24095 0.20298 0.95624 0.0
C4375 C 0.21938 0.19622 0.96018 0.0
C4376 C 0.25537 0.20651 0.03606 0.0
C4377 C 0.24759 0.20446 0.99547 0.0
C4378 C 0.26964 0.20251 0.0536 0.0
C4379 C 0.29134 0.19625 0.04956 0.0
C4380 C 0.26297 0.20446 0.0144 0.0
C4381 C 0.29857 0.19563 0.02776 0.0
C4382 C 0.25513 0.207 0.97385 0.0
C4383 C 0.21217 0.19512 0.98197 0.0
N4384 N 0.28442 0.19951 0.01102 0.0
N4385 N 0.22623 0.19902 0.99877 0.0
H4386 H 0.31602 0.82072 0.48614 0.0
H4387 H 0.19365 0.81732 0.5243 0.0
H4388 H 0.26344 0.8071 0.44129 0.0
H4389 H 0.247 0.809 0.56953 0.0
H4390 H 0.21858 0.80991 0.49389 0.0
H4391 H 0.29158 0.81285 0.51683 0.0
C4392 C 0.29943 0.81546 0.48278 0.0
C4393 C 0.29176 0.81443 0.46117 0.0
C4394 C 0.2248 0.80914 0.51045 0.0
C4395 C 0.26336 0.80617 0.49629 0.0
C4396 C 0.21054 0.81328 0.52783 0.0
C4397 C 0.21826 0.81362 0.54945 0.0
C4398 C 0.24717 0.80595 0.51461 0.0
C4399 C 0.24035 0.80863 0.55312 0.0
C4400 C 0.28545 0.81103 0.50031 0.0
C4401 C 0.27006 0.80784 0.4577 0.0
N4402 N 0.25413 0.80544 0.53584 0.0
N4403 N 0.25649 0.80438 0.4751 0.0
H4404 H 0.06872 0.56612 0.7356 0.0
H4405 H 0.0682 0.44393 0.77442 0.0
H4406 H 0.05755 0.51292 0.69083 0.0
H4407 H 0.05749 0.49726 0.81916 0.0
H4408 H 0.06056 0.46845 0.74373 0.0
H4409 H 0.06089 0.54165 0.76628 0.0
C4410 C 0.06398 0.54938 0.73224 0.0
C4411 C 0.06362 0.54155 0.71067 0.0
C4412 C 0.05931 0.47475 0.76023 0.0
C4413 C 0.05546 0.51313 0.74579 0.0
C4414 C 0.06358 0.46072 0.77777 0.0
C4415 C 0.06331 0.46856 0.79934 0.0
C4416 C 0.05537 0.49703 0.7642 0.0
C4417 C 0.05759 0.49051 0.80279 0.0
C4418 C 0.05959 0.53537 0.74977 0.0
C4419 C 0.05773 0.51965 0.70721 0.0
N4420 N 0.05428 0.50409 0.78538 0.0
N4421 N 0.05431 0.50608 0.72461 0.0
H4422 H 0.74325 0.71006 0.44038 0.0
H4423 H 0.81628 0.69584 0.52597 0.0
H4424 H 0.69787 0.6824 0.4867 0.0
H4425 H 0.76091 0.70085 0.56915 0.0
H4426 H 0.79235 0.70291 0.49478 0.0
H4427 H 0.76803 0.71896 0.47079 0.0
C4428 C 0.73829 0.70631 0.45697 0.0
C4429 C 0.71857 0.69527 0.46101 0.0
C4430 C 0.78543 0.70337 0.51106 0.0
C4431 C 0.74703 0.70478 0.49581 0.0
C4432 C 0.79915 0.69932 0.52891 0.0
C4433 C 0.79059 0.6981 0.55016 0.0
C4434 C 0.7628 0.70569 0.51441 0.0
C4435 C 0.76819 0.70206 0.55305 0.0
C4436 C 0.75258 0.71108 0.47432 0.0
C4437 C 0.71304 0.69067 0.48284 0.0
N4438 N 0.75499 0.70519 0.53533 0.0
N4439 N 0.72721 0.69529 0.49934 0.0
H4440 H 0.44037 0.56595 0.27418 0.0
H4441 H 0.44248 0.44383 0.2355 0.0
H4442 H 0.45289 0.51301 0.31892 0.0
H4443 H 0.45219 0.49723 0.19062 0.0
H4444 H 0.45005 0.46847 0.26611 0.0
H4445 H 0.44839 0.54159 0.24347 0.0
C4446 C 0.44544 0.5493 0.27752 0.0
C4447 C 0.44611 0.5415 0.2991 0.0
C4448 C 0.4511 0.47476 0.24959 0.0
C4449 C 0.45452 0.5132 0.26395 0.0
C4450 C 0.44687 0.46066 0.2321 0.0
C4451 C 0.44686 0.46849 0.21052 0.0
C4452 C 0.45471 0.49709 0.24556 0.0
C4453 C 0.45229 0.4905 0.207 0.0
C4454 C 0.44994 0.53536 0.25998 0.0
C4455 C 0.45244 0.51972 0.30254 0.0
N4456 N 0.45556 0.50414 0.22437 0.0
N4457 N 0.45597 0.5062 0.28512 0.0
H4458 H 0.94212 0.06659 0.77481 0.0
H4459 H 0.94286 0.94464 0.73542 0.0
H4460 H 0.95337 0.01315 0.81929 0.0
H4461 H 0.95312 0.99824 0.69091 0.0
H4462 H 0.95069 0.96899 0.7662 0.0
H4463 H 0.9501 0.04233 0.74401 0.0
C4464 C 0.94692 0.04984 0.77808 0.0
C4465 C 0.94723 0.04188 0.79961 0.0
C4466 C 0.95182 0.97538 0.74972 0.0
C4467 C 0.95557 0.0137 0.76434 0.0
C4468 C 0.94744 0.96144 0.73214 0.0
C4469 C 0.94752 0.96942 0.71062 0.0
C4470 C 0.95565 0.9977 0.74585 0.0
C4471 C 0.95316 0.9914 0.70725 0.0
C4472 C 0.9514 0.03596 0.76048 0.0
C4473 C 0.95321 0.01998 0.80295 0.0
N4474 N 0.95657 1.00489 0.72471 0.0
N4475 N 0.95671 0.00653 0.78548 0.0
H4476 H 0.43978 0.7464 0.70297 0.0
H4477 H 0.5702 0.76288 0.7032 0.0
H4478 H 0.48606 0.69492 0.68977 0.0
H4479 H 0.524 0.81456 0.69058 0.0
H4480 H 0.53945 0.73788 0.71049 0.0
H4481 H 0.4705 0.77134 0.7106 0.0
C4482 C 0.45636 0.74017 0.70241 0.0
C4483 C 0.46044 0.7186 0.69575 0.0
C4484 C 0.53609 0.75485 0.70667 0.0
C4485 C 0.49555 0.74694 0.70424 0.0
C4486 C 0.55363 0.76913 0.70273 0.0
C4487 C 0.54958 0.79078 0.69632 0.0
C4488 C 0.51443 0.76238 0.70439 0.0
C4489 C 0.52777 0.79796 0.69549 0.0
C4490 C 0.47388 0.75443 0.70656 0.0
C4491 C 0.48226 0.71146 0.69486 0.0
N4492 N 0.51104 0.7838 0.69931 0.0
N4493 N 0.49897 0.72559 0.69889 0.0
H4494 H 0.06579 0.23573 0.56746 0.0
H4495 H 0.9438 0.27524 0.56638 0.0
H4496 H 0.01232 0.19134 0.55607 0.0
H4497 H 0.99751 0.31976 0.55673 0.0
H4498 H 0.96818 0.24447 0.55858 0.0
H4499 H 0.04157 0.26659 0.55953 0.0
C4500 C 0.04905 0.23249 0.56262 0.0
C4501 C 0.04107 0.21097 0.56225 0.0
C4502 C 0.97459 0.26095 0.55758 0.0
C4503 C 0.01292 0.24631 0.55399 0.0
C4504 C 0.96064 0.27854 0.56194 0.0
C4505 C 0.96863 0.30005 0.56202 0.0
C4506 C 0.99694 0.26482 0.55392 0.0
C4507 C 0.99065 0.30342 0.55655 0.0
C4508 C 0.03518 0.25012 0.55819 0.0
C4509 C 0.01917 0.20767 0.55626 0.0
N4510 N 1.00415 0.28597 0.55316 0.0
N4511 N 0.00574 0.22517 0.5528 0.0
H4512 H 0.44004 0.26321 0.80515 0.0
H4513 H 0.57043 0.24666 0.80517 0.0
H4514 H 0.48641 0.31477 0.81766 0.0
H4515 H 0.52407 0.195 0.81727 0.0
H4516 H 0.53977 0.27167 0.79757 0.0
H4517 H 0.4707 0.23823 0.79743 0.0
C4518 C 0.45662 0.26945 0.80551 0.0
C4519 C 0.46074 0.29106 0.81202 0.0
C4520 C 0.53636 0.25471 0.80134 0.0
C4521 C 0.4958 0.26266 0.80348 0.0
C4522 C 0.55385 0.24041 0.80545 0.0
C4523 C 0.54973 0.21876 0.81182 0.0
C4524 C 0.51467 0.2472 0.80343 0.0
C4525 C 0.52791 0.21159 0.8124 0.0
C4526 C 0.47411 0.25517 0.80132 0.0
C4527 C 0.48257 0.29821 0.81268 0.0
N4528 N 0.51122 0.22577 0.80845 0.0
N4529 N 0.49926 0.28405 0.80865 0.0
H4530 H 0.4937 0.19052 0.45986 0.0
H4531 H 0.56672 0.27621 0.44594 0.0
H4532 H 0.4485 0.23666 0.43157 0.0
H4533 H 0.51121 0.31929 0.45016 0.0
H4534 H 0.5428 0.245 0.45295 0.0
H4535 H 0.51836 0.22102 0.46884 0.0
C4536 C 0.48875 0.2071 0.456 0.0
C4537 C 0.46912 0.21106 0.44477 0.0
C4538 C 0.53583 0.26126 0.45326 0.0
C4539 C 0.49745 0.24595 0.45437 0.0
C4540 C 0.54955 0.27912 0.44924 0.0
C4541 C 0.54096 0.30035 0.44782 0.0
C4542 C 0.51317 0.26458 0.45533 0.0
C4543 C 0.51851 0.30322 0.45154 0.0
C4544 C 0.50297 0.22449 0.46082 0.0
C4545 C 0.4636 0.23286 0.44002 0.0
N4546 N 0.50532 0.28548 0.45464 0.0
N4547 N 0.4777 0.2494 0.44469 0.0
H4548 H 0.6907 0.52456 0.81571 0.0
H4549 H 0.69191 0.48557 0.69362 0.0
H4550 H 0.70295 0.56911 0.76256 0.0
H4551 H 0.70167 0.44074 0.74706 0.0
H4552 H 0.69965 0.51619 0.71818 0.0
H4553 H 0.69841 0.49374 0.79137 0.0
C4554 C 0.69567 0.52783 0.79902 0.0
C4555 C 0.69635 0.54939 0.79115 0.0
C4556 C 0.70066 0.49968 0.7245 0.0
C4557 C 0.70438 0.51411 0.76288 0.0
C4558 C 0.69632 0.48218 0.71044 0.0
C4559 C 0.6963 0.46061 0.7183 0.0
C4560 C 0.70437 0.49569 0.74681 0.0
C4561 C 0.70178 0.45711 0.7403 0.0
C4562 C 0.69998 0.51022 0.78509 0.0
C4563 C 0.70251 0.55274 0.76931 0.0
N4564 N 0.70516 0.4745 0.7539 0.0
N4565 N 0.70586 0.53527 0.75582 0.0
H4566 H 0.77394 0.06902 0.44364 0.0
H4567 H 0.73545 0.06769 0.56579 0.0
H4568 H 0.81881 0.05703 0.4966 0.0
H4569 H 0.69052 0.05749 0.51252 0.0
H4570 H 0.76604 0.05998 0.54118 0.0
H4571 H 0.74329 0.06105 0.46809 0.0
C4572 C 0.77732 0.06408 0.46032 0.0
C4573 C 0.79891 0.06355 0.4681 0.0
C4574 C 0.74951 0.05884 0.53492 0.0
C4575 C 0.76383 0.0552 0.49649 0.0
C4576 C 0.73204 0.06316 0.549 0.0
C4577 C 0.71045 0.06307 0.5412 0.0
C4578 C 0.74547 0.05506 0.51263 0.0
C4579 C 0.70691 0.05746 0.51923 0.0
C4580 C 0.75981 0.0596 0.47431 0.0
C4581 C 0.80241 0.05737 0.48991 0.0
N4582 N 0.72427 0.05412 0.5056 0.0
N4583 N 0.78502 0.05387 0.50348 0.0
H4584 H 0.30688 0.94025 0.76248 0.0
H4585 H 0.30754 0.07058 0.74498 0.0
H4586 H 0.31959 0.98681 0.81382 0.0
H4587 H 0.31987 0.02381 0.69373 0.0
H4588 H 0.30005 0.04009 0.77025 0.0
H4589 H 0.29968 0.97084 0.73726 0.0
C4590 C 0.3074 0.95687 0.76861 0.0
C4591 C 0.3138 0.96105 0.79024 0.0
C4592 C 0.30389 0.03655 0.75332 0.0
C4593 C 0.30585 0.99603 0.76156 0.0
C4594 C 0.30795 0.05394 0.73888 0.0
C4595 C 0.31434 0.04967 0.71726 0.0
C4596 C 0.306 0.01481 0.74599 0.0
C4597 C 0.31504 0.02778 0.7103 0.0
C4598 C 0.30351 0.97432 0.7542 0.0
C4599 C 0.31469 0.98292 0.79725 0.0
N4600 N 0.31109 0.0112 0.72461 0.0
N4601 N 0.31093 0.99957 0.78296 0.0
H4602 H 0.19035 0.45989 0.49306 0.0
H4603 H 0.27593 0.44585 0.56619 0.0
H4604 H 0.23638 0.43126 0.44798 0.0
H4605 H 0.31907 0.44982 0.51071 0.0
H4606 H 0.24475 0.45283 0.54221 0.0
H4607 H 0.22087 0.4688 0.51771 0.0
C4608 C 0.20691 0.45593 0.48813 0.0
C4609 C 0.21082 0.44462 0.46854 0.0
C4610 C 0.26103 0.45309 0.53526 0.0
C4611 C 0.24574 0.45414 0.49686 0.0
C4612 C 0.27887 0.44909 0.54901 0.0
C4613 C 0.3001 0.44761 0.54045 0.0
C4614 C 0.26437 0.45509 0.5126 0.0
C4615 C 0.30299 0.45125 0.51799 0.0
C4616 C 0.22431 0.46071 0.50235 0.0
C4617 C 0.23261 0.43976 0.46305 0.0
N4618 N 0.28527 0.45434 0.50477 0.0
N4619 N 0.24916 0.44439 0.47715 0.0
H4620 H 0.7634 0.30722 0.94007 0.0
H4621 H 0.74635 0.30689 0.07041 0.0
H4622 H 0.81475 0.32005 0.98659 0.0
H4623 H 0.69491 0.31968 0.02399 0.0
H4624 H 0.77147 0.29958 0.03977 0.0
H4625 H 0.73829 0.29968 0.97067 0.0
C4626 C 0.76956 0.30771 0.95668 0.0
C4627 C 0.79115 0.31425 0.96086 0.0
C4628 C 0.75453 0.30346 0.03634 0.0
C4629 C 0.76261 0.30586 0.99583 0.0
C4630 C 0.74017 0.30741 0.05381 0.0
C4631 C 0.71855 0.31387 0.04968 0.0
C4632 C 0.7471 0.30577 0.01465 0.0
C4633 C 0.71148 0.31474 0.02784 0.0
C4634 C 0.75521 0.30362 0.97413 0.0
C4635 C 0.7982 0.31506 0.98271 0.0
N4636 N 0.72571 0.31091 0.01116 0.0
N4637 N 0.78398 0.31109 0.99935 0.0
H4638 H 0.56774 0.06594 0.23554 0.0
H4639 H 0.56891 0.94384 0.27456 0.0
H4640 H 0.55759 0.01245 0.19086 0.0
H4641 H 0.55724 0.99704 0.31921 0.0
H4642 H 0.56101 0.9682 0.24382 0.0
H4643 H 0.5601 0.04143 0.26625 0.0
C4644 C 0.56324 0.04912 0.23221 0.0
C4645 C 0.56314 0.04123 0.21065 0.0
C4646 C 0.55961 0.9745 0.26031 0.0
C4647 C 0.5552 0.01278 0.24581 0.0
C4648 C 0.56404 0.96056 0.27788 0.0
C4649 C 0.56359 0.96842 0.29944 0.0
C4650 C 0.55531 0.99672 0.26424 0.0
C4651 C 0.55752 0.99029 0.30284 0.0
C4652 C 0.55897 0.0351 0.24975 0.0
C4653 C 0.55757 0.01924 0.20722 0.0
N4654 N 0.55405 1.0038 0.28541 0.0
N4655 N 0.55426 0.00567 0.22464 0.0
loop_
_geom_bond_atom_site_label_1
_geom_bond_atom_site_label_2
_geom_bond_distance
_geom_bond_site_symmetry_2
_ccdc_geom_bond_type
Zn0 N4 2.020 . S
Zn0 O8 2.019 . S
Zn0 N10 2.119 . S
Zn0 O18 1.975 . S
C1 N2 1.334 . S
C1 N5 1.336 . S
N2 C1 1.334 . S
N2 C3 1.334 . S
C3 N2 1.334 . S
C3 N4 1.336 . S
N4 Zn0 2.020 . S
N4 C3 1.336 . S
N4 N5 1.354 . S
N5 C1 1.336 . S
N5 N4 1.354 . S
N5 Zn9 2.020 . S
C6 O7 1.244 . S
C6 O30 1.257 . S
O7 C6 1.244 . S
O8 Zn0 2.019 . S
O8 C28 1.257 . S
Zn9 N5 2.020 . S
Zn9 O16 1.975 . S
Zn9 N25 2.119 . S
Zn9 O30 2.019 . S
N10 Zn0 2.119 . S
N10 C12 1.334 . S
N10 C13 1.328 . S
C11 C12 1.391 . S
C11 N14 1.329 . S
C11 H32 0.930 . S
C12 N10 1.334 . S
C12 C11 1.391 . S
C12 H19 0.930 . S
C13 N10 1.328 . S
C13 C15 1.392 . S
C13 H20 0.930 . S
N14 C11 1.329 . S
N14 C15 1.331 . S
C15 C13 1.392 . S
C15 N14 1.331 . S
O16 Zn9 1.975 . S
O16 C17 1.252 . S
C17 O16 1.252 . S
C17 O18 1.252 . S
O18 Zn0 1.975 . S
O18 C17 1.252 . S
H19 C12 0.930 . S
H20 C13 0.930 . S
C21 C22 1.392 . S
C21 N25 1.328 . S
C21 H27 0.930 . S
C22 C21 1.392 . S
C22 N26 1.331 . S
C23 C24 1.391 . S
C23 N26 1.329 . S
C23 H33 0.930 . S
C24 C23 1.391 . S
C24 N25 1.334 . S
C24 H31 0.930 . S
N25 Zn9 2.119 . S
N25 C21 1.328 . S
N25 C24 1.334 . S
N26 C22 1.331 . S
N26 C23 1.329 . S
H27 C21 0.930 . S
C28 O8 1.257 . S
C28 O29 1.244 . S
O29 C28 1.244 . S
O30 C6 1.257 . S
O30 Zn9 2.019 . S
H31 C24 0.930 . S
H32 C11 0.930 . S
H33 C23 0.930 . S
Zn34 N38 2.020 . S
Zn34 O42 2.019 . S
Zn34 N44 2.119 . S
Zn34 O52 1.975 . S
C35 N36 1.334 . S
C35 N39 1.336 . S
N36 C35 1.334 . S
N36 C37 1.334 . S
C37 N36 1.334 . S
C37 N38 1.336 . S
N38 Zn34 2.020 . S
N38 C37 1.336 . S
N38 N39 1.354 . S
N39 C35 1.336 . S
N39 N38 1.354 . S
N39 Zn43 2.020 . S
C40 O41 1.244 . S
C40 O64 1.257 . S
O41 C40 1.244 . S
O42 Zn34 2.019 . S
O42 C62 1.257 . S
Zn43 N39 2.020 . S
Zn43 O50 1.975 . S
Zn43 N59 2.119 . S
Zn43 O64 2.019 . S
N44 Zn34 2.119 . S
N44 C46 1.334 . S
N44 C47 1.328 . S
C45 C46 1.391 . S
C45 N48 1.329 . S
C45 H66 0.930 . S
C46 N44 1.334 . S
C46 C45 1.391 . S
C46 H53 0.930 . S
C47 N44 1.328 . S
C47 C49 1.392 . S
C47 H54 0.930 . S
N48 C45 1.329 . S
N48 C49 1.331 . S
C49 C47 1.392 . S
C49 N48 1.331 . S
O50 Zn43 1.975 . S
O50 C51 1.252 . S
C51 O50 1.252 . S
C51 O52 1.252 . S
O52 Zn34 1.975 . S
O52 C51 1.252 . S
H53 C46 0.930 . S
H54 C47 0.930 . S
C55 C56 1.392 . S
C55 N59 1.328 . S
C55 H61 0.930 . S
C56 C55 1.392 . S
C56 N60 1.331 . S
C57 C58 1.391 . S
C57 N60 1.329 . S
C57 H67 0.930 . S
C58 C57 1.391 . S
C58 N59 1.334 . S
C58 H65 0.930 . S
N59 Zn43 2.119 . S
N59 C55 1.328 . S
N59 C58 1.334 . S
N60 C56 1.331 . S
N60 C57 1.329 . S
H61 C55 0.930 . S
C62 O42 1.257 . S
C62 O63 1.244 . S
O63 C62 1.244 . S
O64 C40 1.257 . S
O64 Zn43 2.019 . S
H65 C58 0.930 . S
H66 C45 0.930 . S
H67 C57 0.930 . S
Zn68 N72 2.020 . S
Zn68 O76 2.019 . S
Zn68 N78 2.119 . S
Zn68 O86 1.975 . S
C69 N70 1.334 . S
C69 N73 1.336 . S
N70 C69 1.334 . S
N70 C71 1.334 . S
C71 N70 1.334 . S
C71 N72 1.336 . S
N72 Zn68 2.020 . S
N72 C71 1.336 . S
N72 N73 1.354 . S
N73 C69 1.336 . S
N73 N72 1.354 . S
N73 Zn77 2.020 . S
C74 O75 1.244 . S
C74 O98 1.257 . S
O75 C74 1.244 . S
O76 Zn68 2.019 . S
O76 C96 1.257 . S
Zn77 N73 2.020 . S
Zn77 O84 1.975 . S
Zn77 N93 2.119 . S
Zn77 O98 2.019 . S
N78 Zn68 2.119 . S
N78 C80 1.334 . S
N78 C81 1.328 . S
C79 C80 1.391 . S
C79 N82 1.329 . S
C79 H100 0.930 . S
C80 N78 1.334 . S
C80 C79 1.391 . S
C80 H87 0.930 . S
C81 N78 1.328 . S
C81 C83 1.392 . S
C81 H88 0.930 . S
N82 C79 1.329 . S
N82 C83 1.331 . S
C83 C81 1.392 . S
C83 N82 1.331 . S
O84 Zn77 1.975 . S
O84 C85 1.252 . S
C85 O84 1.252 . S
C85 O86 1.252 . S
O86 Zn68 1.975 . S
O86 C85 1.252 . S
H87 C80 0.930 . S
H88 C81 0.930 . S
C89 C90 1.392 . S
C89 N93 1.328 . S
C89 H95 0.930 . S
C90 C89 1.392 . S
C90 N94 1.331 . S
C91 C92 1.391 . S
C91 N94 1.329 . S
C91 H101 0.930 . S
C92 C91 1.391 . S
C92 N93 1.334 . S
C92 H99 0.930 . S
N93 Zn77 2.119 . S
N93 C89 1.328 . S
N93 C92 1.334 . S
N94 C90 1.331 . S
N94 C91 1.329 . S
H95 C89 0.930 . S
C96 O76 1.257 . S
C96 O97 1.244 . S
O97 C96 1.244 . S
O98 C74 1.257 . S
O98 Zn77 2.019 . S
H99 C92 0.930 . S
H100 C79 0.930 . S
H101 C91 0.930 . S
Zn102 N106 2.020 . S
Zn102 O110 2.019 . S
Zn102 N112 2.119 . S
Zn102 O120 1.975 . S
C103 N104 1.334 . S
C103 N107 1.336 . S
N104 C103 1.334 . S
N104 C105 1.334 . S
C105 N104 1.334 . S
C105 N106 1.336 . S
N106 Zn102 2.020 . S
N106 C105 1.336 . S
N106 N107 1.354 . S
N107 C103 1.336 . S
N107 N106 1.354 . S
N107 Zn111 2.020 . S
C108 O109 1.244 . S
C108 O132 1.257 . S
O109 C108 1.244 . S
O110 Zn102 2.019 . S
O110 C130 1.257 . S
Zn111 N107 2.020 . S
Zn111 O118 1.975 . S
Zn111 N127 2.119 . S
Zn111 O132 2.019 . S
N112 Zn102 2.119 . S
N112 C114 1.334 . S
N112 C115 1.328 . S
C113 C114 1.391 . S
C113 N116 1.329 . S
C113 H134 0.930 . S
C114 N112 1.334 . S
C114 C113 1.391 . S
C114 H121 0.930 . S
C115 N112 1.328 . S
C115 C117 1.392 . S
C115 H122 0.930 . S
N116 C113 1.329 . S
N116 C117 1.331 . S
C117 C115 1.392 . S
C117 N116 1.331 . S
O118 Zn111 1.975 . S
O118 C119 1.252 . S
C119 O118 1.252 . S
C119 O120 1.252 . S
O120 Zn102 1.975 . S
O120 C119 1.252 . S
H121 C114 0.930 . S
H122 C115 0.930 . S
C123 C124 1.392 . S
C123 N127 1.328 . S
C123 H129 0.930 . S
C124 C123 1.392 . S
C124 N128 1.331 . S
C125 C126 1.391 . S
C125 N128 1.329 . S
C125 H135 0.930 . S
C126 C125 1.391 . S
C126 N127 1.334 . S
C126 H133 0.930 . S
N127 Zn111 2.119 . S
N127 C123 1.328 . S
N127 C126 1.334 . S
N128 C124 1.331 . S
N128 C125 1.329 . S
H129 C123 0.930 . S
C130 O110 1.257 . S
C130 O131 1.244 . S
O131 C130 1.244 . S
O132 C108 1.257 . S
O132 Zn111 2.019 . S
H133 C126 0.930 . S
H134 C113 0.930 . S
H135 C125 0.930 . S
Zn136 N140 2.020 . S
Zn136 O144 2.019 . S
Zn136 N146 2.119 . S
Zn136 O154 1.975 . S
C137 N138 1.334 . S
C137 N141 1.336 . S
N138 C137 1.334 . S
N138 C139 1.334 . S
C139 N138 1.334 . S
C139 N140 1.336 . S
N140 Zn136 2.020 . S
N140 C139 1.336 . S
N140 N141 1.354 . S
N141 C137 1.336 . S
N141 N140 1.354 . S
N141 Zn145 2.020 . S
C142 O143 1.244 . S
C142 O166 1.257 . S
O143 C142 1.244 . S
O144 Zn136 2.019 . S
O144 C164 1.257 . S
Zn145 N141 2.020 . S
Zn145 O152 1.975 . S
Zn145 N161 2.119 . S
Zn145 O166 2.019 . S
N146 Zn136 2.119 . S
N146 C148 1.334 . S
N146 C149 1.328 . S
C147 C148 1.391 . S
C147 N150 1.329 . S
C147 H168 0.930 . S
C148 N146 1.334 . S
C148 C147 1.391 . S
C148 H155 0.930 . S
C149 N146 1.328 . S
C149 C151 1.392 . S
C149 H156 0.930 . S
N150 C147 1.329 . S
N150 C151 1.331 . S
C151 C149 1.392 . S
C151 N150 1.331 . S
O152 Zn145 1.975 . S
O152 C153 1.252 . S
C153 O152 1.252 . S
C153 O154 1.252 . S
O154 Zn136 1.975 . S
O154 C153 1.252 . S
H155 C148 0.930 . S
H156 C149 0.930 . S
C157 C158 1.392 . S
C157 N161 1.328 . S
C157 H163 0.930 . S
C158 C157 1.392 . S
C158 N162 1.331 . S
C159 C160 1.391 . S
C159 N162 1.329 . S
C159 H169 0.930 . S
C160 C159 1.391 . S
C160 N161 1.334 . S
C160 H167 0.930 . S
N161 Zn145 2.119 . S
N161 C157 1.328 . S
N161 C160 1.334 . S
N162 C158 1.331 . S
N162 C159 1.329 . S
H163 C157 0.930 . S
C164 O144 1.257 . S
C164 O165 1.244 . S
O165 C164 1.244 . S
O166 C142 1.257 . S
O166 Zn145 2.019 . S
H167 C160 0.930 . S
H168 C147 0.930 . S
H169 C159 0.930 . S
Zn170 N174 2.020 . S
Zn170 O178 2.019 . S
Zn170 N180 2.119 . S
Zn170 O188 1.975 . S
C171 N172 1.334 . S
C171 N175 1.336 . S
N172 C171 1.334 . S
N172 C173 1.334 . S
C173 N172 1.334 . S
C173 N174 1.336 . S
N174 Zn170 2.020 . S
N174 C173 1.336 . S
N174 N175 1.354 . S
N175 C171 1.336 . S
N175 N174 1.354 . S
N175 Zn179 2.020 . S
C176 O177 1.244 . S
C176 O200 1.257 . S
O177 C176 1.244 . S
O178 Zn170 2.019 . S
O178 C198 1.257 . S
Zn179 N175 2.020 . S
Zn179 O186 1.975 . S
Zn179 N195 2.119 . S
Zn179 O200 2.019 . S
N180 Zn170 2.119 . S
N180 C182 1.334 . S
N180 C183 1.328 . S
C181 C182 1.391 . S
C181 N184 1.329 . S
C181 H202 0.930 . S
C182 N180 1.334 . S
C182 C181 1.391 . S
C182 H189 0.930 . S
C183 N180 1.328 . S
C183 C185 1.392 . S
C183 H190 0.930 . S
N184 C181 1.329 . S
N184 C185 1.331 . S
C185 C183 1.392 . S
C185 N184 1.331 . S
O186 Zn179 1.975 . S
O186 C187 1.252 . S
C187 O186 1.252 . S
C187 O188 1.252 . S
O188 Zn170 1.975 . S
O188 C187 1.252 . S
H189 C182 0.930 . S
H190 C183 0.930 . S
C191 C192 1.392 . S
C191 N195 1.328 . S
C191 H197 0.930 . S
C192 C191 1.392 . S
C192 N196 1.331 . S
C193 C194 1.391 . S
C193 N196 1.329 . S
C193 H203 0.930 . S
C194 C193 1.391 . S
C194 N195 1.334 . S
C194 H201 0.930 . S
N195 Zn179 2.119 . S
N195 C191 1.328 . S
N195 C194 1.334 . S
N196 C192 1.331 . S
N196 C193 1.329 . S
H197 C191 0.930 . S
C198 O178 1.257 . S
C198 O199 1.244 . S
O199 C198 1.244 . S
O200 C176 1.257 . S
O200 Zn179 2.019 . S
H201 C194 0.930 . S
H202 C181 0.930 . S
H203 C193 0.930 . S
Zn204 N208 2.020 . S
Zn204 O212 2.019 . S
Zn204 N214 2.119 . S
Zn204 O222 1.975 . S
C205 N206 1.334 . S
C205 N209 1.336 . S
N206 C205 1.334 . S
N206 C207 1.334 . S
C207 N206 1.334 . S
C207 N208 1.336 . S
N208 Zn204 2.020 . S
N208 C207 1.336 . S
N208 N209 1.354 . S
N209 C205 1.336 . S
N209 N208 1.354 . S
N209 Zn213 2.020 . S
C210 O211 1.244 . S
C210 O234 1.257 . S
O211 C210 1.244 . S
O212 Zn204 2.019 . S
O212 C232 1.257 . S
Zn213 N209 2.020 . S
Zn213 O220 1.975 . S
Zn213 N229 2.119 . S
Zn213 O234 2.019 . S
N214 Zn204 2.119 . S
N214 C216 1.334 . S
N214 C217 1.328 . S
C215 C216 1.391 . S
C215 N218 1.329 . S
C215 H236 0.930 . S
C216 N214 1.334 . S
C216 C215 1.391 . S
C216 H223 0.930 . S
C217 N214 1.328 . S
C217 C219 1.392 . S
C217 H224 0.930 . S
N218 C215 1.329 . S
N218 C219 1.331 . S
C219 C217 1.392 . S
C219 N218 1.331 . S
O220 Zn213 1.975 . S
O220 C221 1.252 . S
C221 O220 1.252 . S
C221 O222 1.252 . S
O222 Zn204 1.975 . S
O222 C221 1.252 . S
H223 C216 0.930 . S
H224 C217 0.930 . S
C225 C226 1.392 . S
C225 N229 1.328 . S
C225 H231 0.930 . S
C226 C225 1.392 . S
C226 N230 1.331 . S
C227 C228 1.391 . S
C227 N230 1.329 . S
C227 H237 0.930 . S
C228 C227 1.391 . S
C228 N229 1.334 . S
C228 H235 0.930 . S
N229 Zn213 2.119 . S
N229 C225 1.328 . S
N229 C228 1.334 . S
N230 C226 1.331 . S
N230 C227 1.329 . S
H231 C225 0.930 . S
C232 O212 1.257 . S
C232 O233 1.244 . S
O233 C232 1.244 . S
O234 C210 1.257 . S
O234 Zn213 2.019 . S
H235 C228 0.930 . S
H236 C215 0.930 . S
H237 C227 0.930 . S
Zn238 N242 2.020 . S
Zn238 O246 2.019 . S
Zn238 N248 2.119 . S
Zn238 O256 1.975 . S
C239 N240 1.334 . S
C239 N243 1.336 . S
N240 C239 1.334 . S
N240 C241 1.334 . S
C241 N240 1.334 . S
C241 N242 1.336 . S
N242 Zn238 2.020 . S
N242 C241 1.336 . S
N242 N243 1.354 . S
N243 C239 1.336 . S
N243 N242 1.354 . S
N243 Zn247 2.020 . S
C244 O245 1.244 . S
C244 O268 1.257 . S
O245 C244 1.244 . S
O246 Zn238 2.019 . S
O246 C266 1.257 . S
Zn247 N243 2.020 . S
Zn247 O254 1.975 . S
Zn247 N263 2.119 . S
Zn247 O268 2.019 . S
N248 Zn238 2.119 . S
N248 C250 1.334 . S
N248 C251 1.328 . S
C249 C250 1.391 . S
C249 N252 1.329 . S
C249 H270 0.930 . S
C250 N248 1.334 . S
C250 C249 1.391 . S
C250 H257 0.930 . S
C251 N248 1.328 . S
C251 C253 1.392 . S
C251 H258 0.930 . S
N252 C249 1.329 . S
N252 C253 1.331 . S
C253 C251 1.392 . S
C253 N252 1.331 . S
O254 Zn247 1.975 . S
O254 C255 1.252 . S
C255 O254 1.252 . S
C255 O256 1.252 . S
O256 Zn238 1.975 . S
O256 C255 1.252 . S
H257 C250 0.930 . S
H258 C251 0.930 . S
C259 C260 1.392 . S
C259 N263 1.328 . S
C259 H265 0.930 . S
C260 C259 1.392 . S
C260 N264 1.331 . S
C261 C262 1.391 . S
C261 N264 1.329 . S
C261 H271 0.930 . S
C262 C261 1.391 . S
C262 N263 1.334 . S
C262 H269 0.930 . S
N263 Zn247 2.119 . S
N263 C259 1.328 . S
N263 C262 1.334 . S
N264 C260 1.331 . S
N264 C261 1.329 . S
H265 C259 0.930 . S
C266 O246 1.257 . S
C266 O267 1.244 . S
O267 C266 1.244 . S
O268 C244 1.257 . S
O268 Zn247 2.019 . S
H269 C262 0.930 . S
H270 C249 0.930 . S
H271 C261 0.930 . S
Zn272 N276 2.020 . S
Zn272 O280 2.019 . S
Zn272 N282 2.119 . S
Zn272 O290 1.975 . S
C273 N274 1.334 . S
C273 N277 1.336 . S
N274 C273 1.334 . S
N274 C275 1.334 . S
C275 N274 1.334 . S
C275 N276 1.336 . S
N276 Zn272 2.020 . S
N276 C275 1.336 . S
N276 N277 1.354 . S
N277 C273 1.336 . S
N277 N276 1.354 . S
N277 Zn281 2.020 . S
C278 O279 1.244 . S
C278 O302 1.257 . S
O279 C278 1.244 . S
O280 Zn272 2.019 . S
O280 C300 1.257 . S
Zn281 N277 2.020 . S
Zn281 O288 1.975 . S
Zn281 N297 2.119 . S
Zn281 O302 2.019 . S
N282 Zn272 2.119 . S
N282 C284 1.334 . S
N282 C285 1.328 . S
C283 C284 1.391 . S
C283 N286 1.329 . S
C283 H304 0.930 . S
C284 N282 1.334 . S
C284 C283 1.391 . S
C284 H291 0.930 . S
C285 N282 1.328 . S
C285 C287 1.392 . S
C285 H292 0.930 . S
N286 C283 1.329 . S
N286 C287 1.331 . S
C287 C285 1.392 . S
C287 N286 1.331 . S
O288 Zn281 1.975 . S
O288 C289 1.252 . S
C289 O288 1.252 . S
C289 O290 1.252 . S
O290 Zn272 1.975 . S
O290 C289 1.252 . S
H291 C284 0.930 . S
H292 C285 0.930 . S
C293 C294 1.392 . S
C293 N297 1.328 . S
C293 H299 0.930 . S
C294 C293 1.392 . S
C294 N298 1.331 . S
C295 C296 1.391 . S
C295 N298 1.329 . S
C295 H305 0.930 . S
C296 C295 1.391 . S
C296 N297 1.334 . S
C296 H303 0.930 . S
N297 Zn281 2.119 . S
N297 C293 1.328 . S
N297 C296 1.334 . S
N298 C294 1.331 . S
N298 C295 1.329 . S
H299 C293 0.930 . S
C300 O280 1.257 . S
C300 O301 1.244 . S
O301 C300 1.244 . S
O302 C278 1.257 . S
O302 Zn281 2.019 . S
H303 C296 0.930 . S
H304 C283 0.930 . S
H305 C295 0.930 . S
Zn306 N310 2.020 . S
Zn306 O314 2.019 . S
Zn306 N316 2.119 . S
Zn306 O324 1.975 . S
C307 N308 1.334 . S
C307 N311 1.336 . S
N308 C307 1.334 . S
N308 C309 1.334 . S
C309 N308 1.334 . S
C309 N310 1.336 . S
N310 Zn306 2.020 . S
N310 C309 1.336 . S
N310 N311 1.354 . S
N311 C307 1.336 . S
N311 N310 1.354 . S
N311 Zn315 2.020 . S
C312 O313 1.244 . S
C312 O336 1.257 . S
O313 C312 1.244 . S
O314 Zn306 2.019 . S
O314 C334 1.257 . S
Zn315 N311 2.020 . S
Zn315 O322 1.975 . S
Zn315 N331 2.119 . S
Zn315 O336 2.019 . S
N316 Zn306 2.119 . S
N316 C318 1.334 . S
N316 C319 1.328 . S
C317 C318 1.391 . S
C317 N320 1.329 . S
C317 H338 0.930 . S
C318 N316 1.334 . S
C318 C317 1.391 . S
C318 H325 0.930 . S
C319 N316 1.328 . S
C319 C321 1.392 . S
C319 H326 0.930 . S
N320 C317 1.329 . S
N320 C321 1.331 . S
C321 C319 1.392 . S
C321 N320 1.331 . S
O322 Zn315 1.975 . S
O322 C323 1.252 . S
C323 O322 1.252 . S
C323 O324 1.252 . S
O324 Zn306 1.975 . S
O324 C323 1.252 . S
H325 C318 0.930 . S
H326 C319 0.930 . S
C327 C328 1.392 . S
C327 N331 1.328 . S
C327 H333 0.930 . S
C328 C327 1.392 . S
C328 N332 1.331 . S
C329 C330 1.391 . S
C329 N332 1.329 . S
C329 H339 0.930 . S
C330 C329 1.391 . S
C330 N331 1.334 . S
C330 H337 0.930 . S
N331 Zn315 2.119 . S
N331 C327 1.328 . S
N331 C330 1.334 . S
N332 C328 1.331 . S
N332 C329 1.329 . S
H333 C327 0.930 . S
C334 O314 1.257 . S
C334 O335 1.244 . S
O335 C334 1.244 . S
O336 C312 1.257 . S
O336 Zn315 2.019 . S
H337 C330 0.930 . S
H338 C317 0.930 . S
H339 C329 0.930 . S
Zn340 N344 2.020 . S
Zn340 O348 2.019 . S
Zn340 N350 2.119 . S
Zn340 O358 1.975 . S
C341 N342 1.334 . S
C341 N345 1.336 . S
N342 C341 1.334 . S
N342 C343 1.334 . S
C343 N342 1.334 . S
C343 N344 1.336 . S
N344 Zn340 2.020 . S
N344 C343 1.336 . S
N344 N345 1.354 . S
N345 C341 1.336 . S
N345 N344 1.354 . S
N345 Zn349 2.020 . S
C346 O347 1.244 . S
C346 O370 1.257 . S
O347 C346 1.244 . S
O348 Zn340 2.019 . S
O348 C368 1.257 . S
Zn349 N345 2.020 . S
Zn349 O356 1.975 . S
Zn349 N365 2.119 . S
Zn349 O370 2.019 . S
N350 Zn340 2.119 . S
N350 C352 1.334 . S
N350 C353 1.328 . S
C351 C352 1.391 . S
C351 N354 1.329 . S
C351 H372 0.930 . S
C352 N350 1.334 . S
C352 C351 1.391 . S
C352 H359 0.930 . S
C353 N350 1.328 . S
C353 C355 1.392 . S
C353 H360 0.930 . S
N354 C351 1.329 . S
N354 C355 1.331 . S
C355 C353 1.392 . S
C355 N354 1.331 . S
O356 Zn349 1.975 . S
O356 C357 1.252 . S
C357 O356 1.252 . S
C357 O358 1.252 . S
O358 Zn340 1.975 . S
O358 C357 1.252 . S
H359 C352 0.930 . S
H360 C353 0.930 . S
C361 C362 1.392 . S
C361 N365 1.328 . S
C361 H367 0.930 . S
C362 C361 1.392 . S
C362 N366 1.331 . S
C363 C364 1.391 . S
C363 N366 1.329 . S
C363 H373 0.930 . S
C364 C363 1.391 . S
C364 N365 1.334 . S
C364 H371 0.930 . S
N365 Zn349 2.119 . S
N365 C361 1.328 . S
N365 C364 1.334 . S
N366 C362 1.331 . S
N366 C363 1.329 . S
H367 C361 0.930 . S
C368 O348 1.257 . S
C368 O369 1.244 . S
O369 C368 1.244 . S
O370 C346 1.257 . S
O370 Zn349 2.019 . S
H371 C364 0.930 . S
H372 C351 0.930 . S
H373 C363 0.930 . S
Zn374 N378 2.020 . S
Zn374 O382 2.019 . S
Zn374 N384 2.119 . S
Zn374 O392 1.975 . S
C375 N376 1.334 . S
C375 N379 1.336 . S
N376 C375 1.334 . S
N376 C377 1.334 . S
C377 N376 1.334 . S
C377 N378 1.336 . S
N378 Zn374 2.020 . S
N378 C377 1.336 . S
N378 N379 1.354 . S
N379 C375 1.336 . S
N379 N378 1.354 . S
N379 Zn383 2.020 . S
C380 O381 1.244 . S
C380 O404 1.257 . S
O381 C380 1.244 . S
O382 Zn374 2.019 . S
O382 C402 1.257 . S
Zn383 N379 2.020 . S
Zn383 O390 1.975 . S
Zn383 N399 2.119 . S
Zn383 O404 2.019 . S
N384 Zn374 2.119 . S
N384 C386 1.334 . S
N384 C387 1.328 . S
C385 C386 1.391 . S
C385 N388 1.329 . S
C385 H406 0.930 . S
C386 N384 1.334 . S
C386 C385 1.391 . S
C386 H393 0.930 . S
C387 N384 1.328 . S
C387 C389 1.392 . S
C387 H394 0.930 . S
N388 C385 1.329 . S
N388 C389 1.331 . S
C389 C387 1.392 . S
C389 N388 1.331 . S
O390 Zn383 1.975 . S
O390 C391 1.252 . S
C391 O390 1.252 . S
C391 O392 1.252 . S
O392 Zn374 1.975 . S
O392 C391 1.252 . S
H393 C386 0.930 . S
H394 C387 0.930 . S
C395 C396 1.392 . S
C395 N399 1.328 . S
C395 H401 0.930 . S
C396 C395 1.392 . S
C396 N400 1.331 . S
C397 C398 1.391 . S
C397 N400 1.329 . S
C397 H407 0.930 . S
C398 C397 1.391 . S
C398 N399 1.334 . S
C398 H405 0.930 . S
N399 Zn383 2.119 . S
N399 C395 1.328 . S
N399 C398 1.334 . S
N400 C396 1.331 . S
N400 C397 1.329 . S
H401 C395 0.930 . S
C402 O382 1.257 . S
C402 O403 1.244 . S
O403 C402 1.244 . S
O404 C380 1.257 . S
O404 Zn383 2.019 . S
H405 C398 0.930 . S
H406 C385 0.930 . S
H407 C397 0.930 . S
Zn408 N412 2.020 . S
Zn408 O416 2.019 . S
Zn408 N418 2.119 . S
Zn408 O426 1.975 . S
C409 N410 1.334 . S
C409 N413 1.336 . S
N410 C409 1.334 . S
N410 C411 1.334 . S
C411 N410 1.334 . S
C411 N412 1.336 . S
N412 Zn408 2.020 . S
N412 C411 1.336 . S
N412 N413 1.354 . S
N413 C409 1.336 . S
N413 N412 1.354 . S
N413 Zn417 2.020 . S
C414 O415 1.244 . S
C414 O438 1.257 . S
O415 C414 1.244 . S
O416 Zn408 2.019 . S
O416 C436 1.257 . S
Zn417 N413 2.020 . S
Zn417 O424 1.975 . S
Zn417 N433 2.119 . S
Zn417 O438 2.019 . S
N418 Zn408 2.119 . S
N418 C420 1.334 . S
N418 C421 1.328 . S
C419 C420 1.391 . S
C419 N422 1.329 . S
C419 H440 0.930 . S
C420 N418 1.334 . S
C420 C419 1.391 . S
C420 H427 0.930 . S
C421 N418 1.328 . S
C421 C423 1.392 . S
C421 H428 0.930 . S
N422 C419 1.329 . S
N422 C423 1.331 . S
C423 C421 1.392 . S
C423 N422 1.331 . S
O424 Zn417 1.975 . S
O424 C425 1.252 . S
C425 O424 1.252 . S
C425 O426 1.252 . S
O426 Zn408 1.975 . S
O426 C425 1.252 . S
H427 C420 0.930 . S
H428 C421 0.930 . S
C429 C430 1.392 . S
C429 N433 1.328 . S
C429 H435 0.930 . S
C430 C429 1.392 . S
C430 N434 1.331 . S
C431 C432 1.391 . S
C431 N434 1.329 . S
C431 H441 0.930 . S
C432 C431 1.391 . S
C432 N433 1.334 . S
C432 H439 0.930 . S
N433 Zn417 2.119 . S
N433 C429 1.328 . S
N433 C432 1.334 . S
N434 C430 1.331 . S
N434 C431 1.329 . S
H435 C429 0.930 . S
C436 O416 1.257 . S
C436 O437 1.244 . S
O437 C436 1.244 . S
O438 C414 1.257 . S
O438 Zn417 2.019 . S
H439 C432 0.930 . S
H440 C419 0.930 . S
H441 C431 0.930 . S
Zn442 N446 2.020 . S
Zn442 O450 2.019 . S
Zn442 N452 2.119 . S
Zn442 O460 1.975 . S
C443 N444 1.334 . S
C443 N447 1.336 . S
N444 C443 1.334 . S
N444 C445 1.334 . S
C445 N444 1.334 . S
C445 N446 1.336 . S
N446 Zn442 2.020 . S
N446 C445 1.336 . S
N446 N447 1.354 . S
N447 C443 1.336 . S
N447 N446 1.354 . S
N447 Zn451 2.020 . S
C448 O449 1.244 . S
C448 O472 1.257 . S
O449 C448 1.244 . S
O450 Zn442 2.019 . S
O450 C470 1.257 . S
Zn451 N447 2.020 . S
Zn451 O458 1.975 . S
Zn451 N467 2.119 . S
Zn451 O472 2.019 . S
N452 Zn442 2.119 . S
N452 C454 1.334 . S
N452 C455 1.328 . S
C453 C454 1.391 . S
C453 N456 1.329 . S
C453 H474 0.930 . S
C454 N452 1.334 . S
C454 C453 1.391 . S
C454 H461 0.930 . S
C455 N452 1.328 . S
C455 C457 1.392 . S
C455 H462 0.930 . S
N456 C453 1.329 . S
N456 C457 1.331 . S
C457 C455 1.392 . S
C457 N456 1.331 . S
O458 Zn451 1.975 . S
O458 C459 1.252 . S
C459 O458 1.252 . S
C459 O460 1.252 . S
O460 Zn442 1.975 . S
O460 C459 1.252 . S
H461 C454 0.930 . S
H462 C455 0.930 . S
C463 C464 1.392 . S
C463 N467 1.328 . S
C463 H469 0.930 . S
C464 C463 1.392 . S
C464 N468 1.331 . S
C465 C466 1.391 . S
C465 N468 1.329 . S
C465 H475 0.930 . S
C466 C465 1.391 . S
C466 N467 1.334 . S
C466 H473 0.930 . S
N467 Zn451 2.119 . S
N467 C463 1.328 . S
N467 C466 1.334 . S
N468 C464 1.331 . S
N468 C465 1.329 . S
H469 C463 0.930 . S
C470 O450 1.257 . S
C470 O471 1.244 . S
O471 C470 1.244 . S
O472 C448 1.257 . S
O472 Zn451 2.019 . S
H473 C466 0.930 . S
H474 C453 0.930 . S
H475 C465 0.930 . S
Zn476 N480 2.020 . S
Zn476 O484 2.019 . S
Zn476 N486 2.119 . S
Zn476 O494 1.975 . S
C477 N478 1.334 . S
C477 N481 1.336 . S
N478 C477 1.334 . S
N478 C479 1.334 . S
C479 N478 1.334 . S
C479 N480 1.336 . S
N480 Zn476 2.020 . S
N480 C479 1.336 . S
N480 N481 1.354 . S
N481 C477 1.336 . S
N481 N480 1.354 . S
N481 Zn485 2.020 . S
C482 O483 1.244 . S
C482 O506 1.257 . S
O483 C482 1.244 . S
O484 Zn476 2.019 . S
O484 C504 1.257 . S
Zn485 N481 2.020 . S
Zn485 O492 1.975 . S
Zn485 N501 2.119 . S
Zn485 O506 2.019 . S
N486 Zn476 2.119 . S
N486 C488 1.334 . S
N486 C489 1.328 . S
C487 C488 1.391 . S
C487 N490 1.329 . S
C487 H508 0.930 . S
C488 N486 1.334 . S
C488 C487 1.391 . S
C488 H495 0.930 . S
C489 N486 1.328 . S
C489 C491 1.392 . S
C489 H496 0.930 . S
N490 C487 1.329 . S
N490 C491 1.331 . S
C491 C489 1.392 . S
C491 N490 1.331 . S
O492 Zn485 1.975 . S
O492 C493 1.252 . S
C493 O492 1.252 . S
C493 O494 1.252 . S
O494 Zn476 1.975 . S
O494 C493 1.252 . S
H495 C488 0.930 . S
H496 C489 0.930 . S
C497 C498 1.392 . S
C497 N501 1.328 . S
C497 H503 0.930 . S
C498 C497 1.392 . S
C498 N502 1.331 . S
C499 C500 1.391 . S
C499 N502 1.329 . S
C499 H509 0.930 . S
C500 C499 1.391 . S
C500 N501 1.334 . S
C500 H507 0.930 . S
N501 Zn485 2.119 . S
N501 C497 1.328 . S
N501 C500 1.334 . S
N502 C498 1.331 . S
N502 C499 1.329 . S
H503 C497 0.930 . S
C504 O484 1.257 . S
C504 O505 1.244 . S
O505 C504 1.244 . S
O506 C482 1.257 . S
O506 Zn485 2.019 . S
H507 C500 0.930 . S
H508 C487 0.930 . S
H509 C499 0.930 . S
Zn510 N514 2.020 . S
Zn510 O518 2.019 . S
Zn510 N520 2.119 . S
Zn510 O528 1.975 . S
C511 N512 1.334 . S
C511 N515 1.336 . S
N512 C511 1.334 . S
N512 C513 1.334 . S
C513 N512 1.334 . S
C513 N514 1.336 . S
N514 Zn510 2.020 . S
N514 C513 1.336 . S
N514 N515 1.354 . S
N515 C511 1.336 . S
N515 N514 1.354 . S
N515 Zn519 2.020 . S
C516 O517 1.244 . S
C516 O540 1.257 . S
O517 C516 1.244 . S
O518 Zn510 2.019 . S
O518 C538 1.257 . S
Zn519 N515 2.020 . S
Zn519 O526 1.975 . S
Zn519 N535 2.119 . S
Zn519 O540 2.019 . S
N520 Zn510 2.119 . S
N520 C522 1.334 . S
N520 C523 1.328 . S
C521 C522 1.391 . S
C521 N524 1.329 . S
C521 H542 0.930 . S
C522 N520 1.334 . S
C522 C521 1.391 . S
C522 H529 0.930 . S
C523 N520 1.328 . S
C523 C525 1.392 . S
C523 H530 0.930 . S
N524 C521 1.329 . S
N524 C525 1.331 . S
C525 C523 1.392 . S
C525 N524 1.331 . S
O526 Zn519 1.975 . S
O526 C527 1.252 . S
C527 O526 1.252 . S
C527 O528 1.252 . S
O528 Zn510 1.975 . S
O528 C527 1.252 . S
H529 C522 0.930 . S
H530 C523 0.930 . S
C531 C532 1.392 . S
C531 N535 1.328 . S
C531 H537 0.930 . S
C532 C531 1.392 . S
C532 N536 1.331 . S
C533 C534 1.391 . S
C533 N536 1.329 . S
C533 H543 0.930 . S
C534 C533 1.391 . S
C534 N535 1.334 . S
C534 H541 0.930 . S
N535 Zn519 2.119 . S
N535 C531 1.328 . S
N535 C534 1.334 . S
N536 C532 1.331 . S
N536 C533 1.329 . S
H537 C531 0.930 . S
C538 O518 1.257 . S
C538 O539 1.244 . S
O539 C538 1.244 . S
O540 C516 1.257 . S
O540 Zn519 2.019 . S
H541 C534 0.930 . S
H542 C521 0.930 . S
H543 C533 0.930 . S
Zn544 N548 2.020 . S
Zn544 O552 2.019 . S
Zn544 N554 2.119 . S
Zn544 O562 1.975 . S
C545 N546 1.334 . S
C545 N549 1.336 . S
N546 C545 1.334 . S
N546 C547 1.334 . S
C547 N546 1.334 . S
C547 N548 1.336 . S
N548 Zn544 2.020 . S
N548 C547 1.336 . S
N548 N549 1.354 . S
N549 C545 1.336 . S
N549 N548 1.354 . S
N549 Zn553 2.020 . S
C550 O551 1.244 . S
C550 O574 1.257 . S
O551 C550 1.244 . S
O552 Zn544 2.019 . S
O552 C572 1.257 . S
Zn553 N549 2.020 . S
Zn553 O560 1.975 . S
Zn553 N569 2.119 . S
Zn553 O574 2.019 . S
N554 Zn544 2.119 . S
N554 C556 1.334 . S
N554 C557 1.328 . S
C555 C556 1.391 . S
C555 N558 1.329 . S
C555 H576 0.930 . S
C556 N554 1.334 . S
C556 C555 1.391 . S
C556 H563 0.930 . S
C557 N554 1.328 . S
C557 C559 1.392 . S
C557 H564 0.930 . S
N558 C555 1.329 . S
N558 C559 1.331 . S
C559 C557 1.392 . S
C559 N558 1.331 . S
O560 Zn553 1.975 . S
O560 C561 1.252 . S
C561 O560 1.252 . S
C561 O562 1.252 . S
O562 Zn544 1.975 . S
O562 C561 1.252 . S
H563 C556 0.930 . S
H564 C557 0.930 . S
C565 C566 1.392 . S
C565 N569 1.328 . S
C565 H571 0.930 . S
C566 C565 1.392 . S
C566 N570 1.331 . S
C567 C568 1.391 . S
C567 N570 1.329 . S
C567 H577 0.930 . S
C568 C567 1.391 . S
C568 N569 1.334 . S
C568 H575 0.930 . S
N569 Zn553 2.119 . S
N569 C565 1.328 . S
N569 C568 1.334 . S
N570 C566 1.331 . S
N570 C567 1.329 . S
H571 C565 0.930 . S
C572 O552 1.257 . S
C572 O573 1.244 . S
O573 C572 1.244 . S
O574 C550 1.257 . S
O574 Zn553 2.019 . S
H575 C568 0.930 . S
H576 C555 0.930 . S
H577 C567 0.930 . S
Zn578 N582 2.020 . S
Zn578 O586 2.019 . S
Zn578 N588 2.119 . S
Zn578 O596 1.975 . S
C579 N580 1.334 . S
C579 N583 1.336 . S
N580 C579 1.334 . S
N580 C581 1.334 . S
C581 N580 1.334 . S
C581 N582 1.336 . S
N582 Zn578 2.020 . S
N582 C581 1.336 . S
N582 N583 1.354 . S
N583 C579 1.336 . S
N583 N582 1.354 . S
N583 Zn587 2.020 . S
C584 O585 1.244 . S
C584 O608 1.257 . S
O585 C584 1.244 . S
O586 Zn578 2.019 . S
O586 C606 1.257 . S
Zn587 N583 2.020 . S
Zn587 O594 1.975 . S
Zn587 N603 2.119 . S
Zn587 O608 2.019 . S
N588 Zn578 2.119 . S
N588 C590 1.334 . S
N588 C591 1.328 . S
C589 C590 1.391 . S
C589 N592 1.329 . S
C589 H610 0.930 . S
C590 N588 1.334 . S
C590 C589 1.391 . S
C590 H597 0.930 . S
C591 N588 1.328 . S
C591 C593 1.392 . S
C591 H598 0.930 . S
N592 C589 1.329 . S
N592 C593 1.331 . S
C593 C591 1.392 . S
C593 N592 1.331 . S
O594 Zn587 1.975 . S
O594 C595 1.252 . S
C595 O594 1.252 . S
C595 O596 1.252 . S
O596 Zn578 1.975 . S
O596 C595 1.252 . S
H597 C590 0.930 . S
H598 C591 0.930 . S
C599 C600 1.392 . S
C599 N603 1.328 . S
C599 H605 0.930 . S
C600 C599 1.392 . S
C600 N604 1.331 . S
C601 C602 1.391 . S
C601 N604 1.329 . S
C601 H611 0.930 . S
C602 C601 1.391 . S
C602 N603 1.334 . S
C602 H609 0.930 . S
N603 Zn587 2.119 . S
N603 C599 1.328 . S
N603 C602 1.334 . S
N604 C600 1.331 . S
N604 C601 1.329 . S
H605 C599 0.930 . S
C606 O586 1.257 . S
C606 O607 1.244 . S
O607 C606 1.244 . S
O608 C584 1.257 . S
O608 Zn587 2.019 . S
H609 C602 0.930 . S
H610 C589 0.930 . S
H611 C601 0.930 . S
Zn612 N616 2.020 . S
Zn612 O620 2.019 . S
Zn612 N622 2.119 . S
Zn612 O630 1.975 . S
C613 N614 1.334 . S
C613 N617 1.336 . S
N614 C613 1.334 . S
N614 C615 1.334 . S
C615 N614 1.334 . S
C615 N616 1.336 . S
N616 Zn612 2.020 . S
N616 C615 1.336 . S
N616 N617 1.354 . S
N617 C613 1.336 . S
N617 N616 1.354 . S
N617 Zn621 2.020 . S
C618 O619 1.244 . S
C618 O642 1.257 . S
O619 C618 1.244 . S
O620 Zn612 2.019 . S
O620 C640 1.257 . S
Zn621 N617 2.020 . S
Zn621 O628 1.975 . S
Zn621 N637 2.119 . S
Zn621 O642 2.019 . S
N622 Zn612 2.119 . S
N622 C624 1.334 . S
N622 C625 1.328 . S
C623 C624 1.391 . S
C623 N626 1.329 . S
C623 H644 0.930 . S
C624 N622 1.334 . S
C624 C623 1.391 . S
C624 H631 0.930 . S
C625 N622 1.328 . S
C625 C627 1.392 . S
C625 H632 0.930 . S
N626 C623 1.329 . S
N626 C627 1.331 . S
C627 C625 1.392 . S
C627 N626 1.331 . S
O628 Zn621 1.975 . S
O628 C629 1.252 . S
C629 O628 1.252 . S
C629 O630 1.252 . S
O630 Zn612 1.975 . S
O630 C629 1.252 . S
H631 C624 0.930 . S
H632 C625 0.930 . S
C633 C634 1.392 . S
C633 N637 1.328 . S
C633 H639 0.930 . S
C634 C633 1.392 . S
C634 N638 1.331 . S
C635 C636 1.391 . S
C635 N638 1.329 . S
C635 H645 0.930 . S
C636 C635 1.391 . S
C636 N637 1.334 . S
C636 H643 0.930 . S
N637 Zn621 2.119 . S
N637 C633 1.328 . S
N637 C636 1.334 . S
N638 C634 1.331 . S
N638 C635 1.329 . S
H639 C633 0.930 . S
C640 O620 1.257 . S
C640 O641 1.244 . S
O641 C640 1.244 . S
O642 C618 1.257 . S
O642 Zn621 2.019 . S
H643 C636 0.930 . S
H644 C623 0.930 . S
H645 C635 0.930 . S
Zn646 N650 2.020 . S
Zn646 O654 2.019 . S
Zn646 N656 2.119 . S
Zn646 O664 1.975 . S
C647 N648 1.334 . S
C647 N651 1.336 . S
N648 C647 1.334 . S
N648 C649 1.334 . S
C649 N648 1.334 . S
C649 N650 1.336 . S
N650 Zn646 2.020 . S
N650 C649 1.336 . S
N650 N651 1.354 . S
N651 C647 1.336 . S
N651 N650 1.354 . S
N651 Zn655 2.020 . S
C652 O653 1.244 . S
C652 O676 1.257 . S
O653 C652 1.244 . S
O654 Zn646 2.019 . S
O654 C674 1.257 . S
Zn655 N651 2.020 . S
Zn655 O662 1.975 . S
Zn655 N671 2.119 . S
Zn655 O676 2.019 . S
N656 Zn646 2.119 . S
N656 C658 1.334 . S
N656 C659 1.328 . S
C657 C658 1.391 . S
C657 N660 1.329 . S
C657 H678 0.930 . S
C658 N656 1.334 . S
C658 C657 1.391 . S
C658 H665 0.930 . S
C659 N656 1.328 . S
C659 C661 1.392 . S
C659 H666 0.930 . S
N660 C657 1.329 . S
N660 C661 1.331 . S
C661 C659 1.392 . S
C661 N660 1.331 . S
O662 Zn655 1.975 . S
O662 C663 1.252 . S
C663 O662 1.252 . S
C663 O664 1.252 . S
O664 Zn646 1.975 . S
O664 C663 1.252 . S
H665 C658 0.930 . S
H666 C659 0.930 . S
C667 C668 1.392 . S
C667 N671 1.328 . S
C667 H673 0.930 . S
C668 C667 1.392 . S
C668 N672 1.331 . S
C669 C670 1.391 . S
C669 N672 1.329 . S
C669 H679 0.930 . S
C670 C669 1.391 . S
C670 N671 1.334 . S
C670 H677 0.930 . S
N671 Zn655 2.119 . S
N671 C667 1.328 . S
N671 C670 1.334 . S
N672 C668 1.331 . S
N672 C669 1.329 . S
H673 C667 0.930 . S
C674 O654 1.257 . S
C674 O675 1.244 . S
O675 C674 1.244 . S
O676 C652 1.257 . S
O676 Zn655 2.019 . S
H677 C670 0.930 . S
H678 C657 0.930 . S
H679 C669 0.930 . S
Zn680 N684 2.020 . S
Zn680 O688 2.019 . S
Zn680 N690 2.119 . S
Zn680 O698 1.975 . S
C681 N682 1.334 . S
C681 N685 1.336 . S
N682 C681 1.334 . S
N682 C683 1.334 . S
C683 N682 1.334 . S
C683 N684 1.336 . S
N684 Zn680 2.020 . S
N684 C683 1.336 . S
N684 N685 1.354 . S
N685 C681 1.336 . S
N685 N684 1.354 . S
N685 Zn689 2.020 . S
C686 O687 1.244 . S
C686 O710 1.257 . S
O687 C686 1.244 . S
O688 Zn680 2.019 . S
O688 C708 1.257 . S
Zn689 N685 2.020 . S
Zn689 O696 1.975 . S
Zn689 N705 2.119 . S
Zn689 O710 2.019 . S
N690 Zn680 2.119 . S
N690 C692 1.334 . S
N690 C693 1.328 . S
C691 C692 1.391 . S
C691 N694 1.329 . S
C691 H712 0.930 . S
C692 N690 1.334 . S
C692 C691 1.391 . S
C692 H699 0.930 . S
C693 N690 1.328 . S
C693 C695 1.392 . S
C693 H700 0.930 . S
N694 C691 1.329 . S
N694 C695 1.331 . S
C695 C693 1.392 . S
C695 N694 1.331 . S
O696 Zn689 1.975 . S
O696 C697 1.252 . S
C697 O696 1.252 . S
C697 O698 1.252 . S
O698 Zn680 1.975 . S
O698 C697 1.252 . S
H699 C692 0.930 . S
H700 C693 0.930 . S
C701 C702 1.392 . S
C701 N705 1.328 . S
C701 H707 0.930 . S
C702 C701 1.392 . S
C702 N706 1.331 . S
C703 C704 1.391 . S
C703 N706 1.329 . S
C703 H713 0.930 . S
C704 C703 1.391 . S
C704 N705 1.334 . S
C704 H711 0.930 . S
N705 Zn689 2.119 . S
N705 C701 1.328 . S
N705 C704 1.334 . S
N706 C702 1.331 . S
N706 C703 1.329 . S
H707 C701 0.930 . S
C708 O688 1.257 . S
C708 O709 1.244 . S
O709 C708 1.244 . S
O710 C686 1.257 . S
O710 Zn689 2.019 . S
H711 C704 0.930 . S
H712 C691 0.930 . S
H713 C703 0.930 . S
Zn714 N718 2.020 . S
Zn714 O722 2.019 . S
Zn714 N724 2.119 . S
Zn714 O732 1.975 . S
C715 N716 1.334 . S
C715 N719 1.336 . S
N716 C715 1.334 . S
N716 C717 1.334 . S
C717 N716 1.334 . S
C717 N718 1.336 . S
N718 Zn714 2.020 . S
N718 C717 1.336 . S
N718 N719 1.354 . S
N719 C715 1.336 . S
N719 N718 1.354 . S
N719 Zn723 2.020 . S
C720 O721 1.244 . S
C720 O744 1.257 . S
O721 C720 1.244 . S
O722 Zn714 2.019 . S
O722 C742 1.257 . S
Zn723 N719 2.020 . S
Zn723 O730 1.975 . S
Zn723 N739 2.119 . S
Zn723 O744 2.019 . S
N724 Zn714 2.119 . S
N724 C726 1.334 . S
N724 C727 1.328 . S
C725 C726 1.391 . S
C725 N728 1.329 . S
C725 H746 0.930 . S
C726 N724 1.334 . S
C726 C725 1.391 . S
C726 H733 0.930 . S
C727 N724 1.328 . S
C727 C729 1.392 . S
C727 H734 0.930 . S
N728 C725 1.329 . S
N728 C729 1.331 . S
C729 C727 1.392 . S
C729 N728 1.331 . S
O730 Zn723 1.975 . S
O730 C731 1.252 . S
C731 O730 1.252 . S
C731 O732 1.252 . S
O732 Zn714 1.975 . S
O732 C731 1.252 . S
H733 C726 0.930 . S
H734 C727 0.930 . S
C735 C736 1.392 . S
C735 N739 1.328 . S
C735 H741 0.930 . S
C736 C735 1.392 . S
C736 N740 1.331 . S
C737 C738 1.391 . S
C737 N740 1.329 . S
C737 H747 0.930 . S
C738 C737 1.391 . S
C738 N739 1.334 . S
C738 H745 0.930 . S
N739 Zn723 2.119 . S
N739 C735 1.328 . S
N739 C738 1.334 . S
N740 C736 1.331 . S
N740 C737 1.329 . S
H741 C735 0.930 . S
C742 O722 1.257 . S
C742 O743 1.244 . S
O743 C742 1.244 . S
O744 C720 1.257 . S
O744 Zn723 2.019 . S
H745 C738 0.930 . S
H746 C725 0.930 . S
H747 C737 0.930 . S
Zn748 N752 2.020 . S
Zn748 O756 2.019 . S
Zn748 N758 2.119 . S
Zn748 O766 1.975 . S
C749 N750 1.334 . S
C749 N753 1.336 . S
N750 C749 1.334 . S
N750 C751 1.334 . S
C751 N750 1.334 . S
C751 N752 1.336 . S
N752 Zn748 2.020 . S
N752 C751 1.336 . S
N752 N753 1.354 . S
N753 C749 1.336 . S
N753 N752 1.354 . S
N753 Zn757 2.020 . S
C754 O755 1.244 . S
C754 O778 1.257 . S
O755 C754 1.244 . S
O756 Zn748 2.019 . S
O756 C776 1.257 . S
Zn757 N753 2.020 . S
Zn757 O764 1.975 . S
Zn757 N773 2.119 . S
Zn757 O778 2.019 . S
N758 Zn748 2.119 . S
N758 C760 1.334 . S
N758 C761 1.328 . S
C759 C760 1.391 . S
C759 N762 1.329 . S
C759 H780 0.930 . S
C760 N758 1.334 . S
C760 C759 1.391 . S
C760 H767 0.930 . S
C761 N758 1.328 . S
C761 C763 1.392 . S
C761 H768 0.930 . S
N762 C759 1.329 . S
N762 C763 1.331 . S
C763 C761 1.392 . S
C763 N762 1.331 . S
O764 Zn757 1.975 . S
O764 C765 1.252 . S
C765 O764 1.252 . S
C765 O766 1.252 . S
O766 Zn748 1.975 . S
O766 C765 1.252 . S
H767 C760 0.930 . S
H768 C761 0.930 . S
C769 C770 1.392 . S
C769 N773 1.328 . S
C769 H775 0.930 . S
C770 C769 1.392 . S
C770 N774 1.331 . S
C771 C772 1.391 . S
C771 N774 1.329 . S
C771 H781 0.930 . S
C772 C771 1.391 . S
C772 N773 1.334 . S
C772 H779 0.930 . S
N773 Zn757 2.119 . S
N773 C769 1.328 . S
N773 C772 1.334 . S
N774 C770 1.331 . S
N774 C771 1.329 . S
H775 C769 0.930 . S
C776 O756 1.257 . S
C776 O777 1.244 . S
O777 C776 1.244 . S
O778 C754 1.257 . S
O778 Zn757 2.019 . S
H779 C772 0.930 . S
H780 C759 0.930 . S
H781 C771 0.930 . S
Zn782 N786 2.020 . S
Zn782 O790 2.019 . S
Zn782 N792 2.119 . S
Zn782 O800 1.975 . S
C783 N784 1.334 . S
C783 N787 1.336 . S
N784 C783 1.334 . S
N784 C785 1.334 . S
C785 N784 1.334 . S
C785 N786 1.336 . S
N786 Zn782 2.020 . S
N786 C785 1.336 . S
N786 N787 1.354 . S
N787 C783 1.336 . S
N787 N786 1.354 . S
N787 Zn791 2.020 . S
C788 O789 1.244 . S
C788 O812 1.257 . S
O789 C788 1.244 . S
O790 Zn782 2.019 . S
O790 C810 1.257 . S
Zn791 N787 2.020 . S
Zn791 O798 1.975 . S
Zn791 N807 2.119 . S
Zn791 O812 2.019 . S
N792 Zn782 2.119 . S
N792 C794 1.334 . S
N792 C795 1.328 . S
C793 C794 1.391 . S
C793 N796 1.329 . S
C793 H814 0.930 . S
C794 N792 1.334 . S
C794 C793 1.391 . S
C794 H801 0.930 . S
C795 N792 1.328 . S
C795 C797 1.392 . S
C795 H802 0.930 . S
N796 C793 1.329 . S
N796 C797 1.331 . S
C797 C795 1.392 . S
C797 N796 1.331 . S
O798 Zn791 1.975 . S
O798 C799 1.252 . S
C799 O798 1.252 . S
C799 O800 1.252 . S
O800 Zn782 1.975 . S
O800 C799 1.252 . S
H801 C794 0.930 . S
H802 C795 0.930 . S
C803 C804 1.392 . S
C803 N807 1.328 . S
C803 H809 0.930 . S
C804 C803 1.392 . S
C804 N808 1.331 . S
C805 C806 1.391 . S
C805 N808 1.329 . S
C805 H815 0.930 . S
C806 C805 1.391 . S
C806 N807 1.334 . S
C806 H813 0.930 . S
N807 Zn791 2.119 . S
N807 C803 1.328 . S
N807 C806 1.334 . S
N808 C804 1.331 . S
N808 C805 1.329 . S
H809 C803 0.930 . S
C810 O790 1.257 . S
C810 O811 1.244 . S
O811 C810 1.244 . S
O812 C788 1.257 . S
O812 Zn791 2.019 . S
H813 C806 0.930 . S
H814 C793 0.930 . S
H815 C805 0.930 . S
Zn816 N820 2.020 . S
Zn816 O824 2.019 . S
Zn816 N826 2.119 . S
Zn816 O834 1.975 . S
C817 N818 1.334 . S
C817 N821 1.336 . S
N818 C817 1.334 . S
N818 C819 1.334 . S
C819 N818 1.334 . S
C819 N820 1.336 . S
N820 Zn816 2.020 . S
N820 C819 1.336 . S
N820 N821 1.354 . S
N821 C817 1.336 . S
N821 N820 1.354 . S
N821 Zn825 2.020 . S
C822 O823 1.244 . S
C822 O846 1.257 . S
O823 C822 1.244 . S
O824 Zn816 2.019 . S
O824 C844 1.257 . S
Zn825 N821 2.020 . S
Zn825 O832 1.975 . S
Zn825 N841 2.119 . S
Zn825 O846 2.019 . S
N826 Zn816 2.119 . S
N826 C828 1.334 . S
N826 C829 1.328 . S
C827 C828 1.391 . S
C827 N830 1.329 . S
C827 H848 0.930 . S
C828 N826 1.334 . S
C828 C827 1.391 . S
C828 H835 0.930 . S
C829 N826 1.328 . S
C829 C831 1.392 . S
C829 H836 0.930 . S
N830 C827 1.329 . S
N830 C831 1.331 . S
C831 C829 1.392 . S
C831 N830 1.331 . S
O832 Zn825 1.975 . S
O832 C833 1.252 . S
C833 O832 1.252 . S
C833 O834 1.252 . S
O834 Zn816 1.975 . S
O834 C833 1.252 . S
H835 C828 0.930 . S
H836 C829 0.930 . S
C837 C838 1.392 . S
C837 N841 1.328 . S
C837 H843 0.930 . S
C838 C837 1.392 . S
C838 N842 1.331 . S
C839 C840 1.391 . S
C839 N842 1.329 . S
C839 H849 0.930 . S
C840 C839 1.391 . S
C840 N841 1.334 . S
C840 H847 0.930 . S
N841 Zn825 2.119 . S
N841 C837 1.328 . S
N841 C840 1.334 . S
N842 C838 1.331 . S
N842 C839 1.329 . S
H843 C837 0.930 . S
C844 O824 1.257 . S
C844 O845 1.244 . S
O845 C844 1.244 . S
O846 C822 1.257 . S
O846 Zn825 2.019 . S
H847 C840 0.930 . S
H848 C827 0.930 . S
H849 C839 0.930 . S
Zn850 N854 2.020 . S
Zn850 O858 2.019 . S
Zn850 N860 2.119 . S
Zn850 O868 1.975 . S
C851 N852 1.334 . S
C851 N855 1.336 . S
N852 C851 1.334 . S
N852 C853 1.334 . S
C853 N852 1.334 . S
C853 N854 1.336 . S
N854 Zn850 2.020 . S
N854 C853 1.336 . S
N854 N855 1.354 . S
N855 C851 1.336 . S
N855 N854 1.354 . S
N855 Zn859 2.020 . S
C856 O857 1.244 . S
C856 O880 1.257 . S
O857 C856 1.244 . S
O858 Zn850 2.019 . S
O858 C878 1.257 . S
Zn859 N855 2.020 . S
Zn859 O866 1.975 . S
Zn859 N875 2.119 . S
Zn859 O880 2.019 . S
N860 Zn850 2.119 . S
N860 C862 1.334 . S
N860 C863 1.328 . S
C861 C862 1.391 . S
C861 N864 1.329 . S
C861 H882 0.930 . S
C862 N860 1.334 . S
C862 C861 1.391 . S
C862 H869 0.930 . S
C863 N860 1.328 . S
C863 C865 1.392 . S
C863 H870 0.930 . S
N864 C861 1.329 . S
N864 C865 1.331 . S
C865 C863 1.392 . S
C865 N864 1.331 . S
O866 Zn859 1.975 . S
O866 C867 1.252 . S
C867 O866 1.252 . S
C867 O868 1.252 . S
O868 Zn850 1.975 . S
O868 C867 1.252 . S
H869 C862 0.930 . S
H870 C863 0.930 . S
C871 C872 1.392 . S
C871 N875 1.328 . S
C871 H877 0.930 . S
C872 C871 1.392 . S
C872 N876 1.331 . S
C873 C874 1.391 . S
C873 N876 1.329 . S
C873 H883 0.930 . S
C874 C873 1.391 . S
C874 N875 1.334 . S
C874 H881 0.930 . S
N875 Zn859 2.119 . S
N875 C871 1.328 . S
N875 C874 1.334 . S
N876 C872 1.331 . S
N876 C873 1.329 . S
H877 C871 0.930 . S
C878 O858 1.257 . S
C878 O879 1.244 . S
O879 C878 1.244 . S
O880 C856 1.257 . S
O880 Zn859 2.019 . S
H881 C874 0.930 . S
H882 C861 0.930 . S
H883 C873 0.930 . S
Zn884 N888 2.020 . S
Zn884 O892 2.019 . S
Zn884 N894 2.119 . S
Zn884 O902 1.975 . S
C885 N886 1.334 . S
C885 N889 1.336 . S
N886 C885 1.334 . S
N886 C887 1.334 . S
C887 N886 1.334 . S
C887 N888 1.336 . S
N888 Zn884 2.020 . S
N888 C887 1.336 . S
N888 N889 1.354 . S
N889 C885 1.336 . S
N889 N888 1.354 . S
N889 Zn893 2.020 . S
C890 O891 1.244 . S
C890 O914 1.257 . S
O891 C890 1.244 . S
O892 Zn884 2.019 . S
O892 C912 1.257 . S
Zn893 N889 2.020 . S
Zn893 O900 1.975 . S
Zn893 N909 2.119 . S
Zn893 O914 2.019 . S
N894 Zn884 2.119 . S
N894 C896 1.334 . S
N894 C897 1.328 . S
C895 C896 1.391 . S
C895 N898 1.329 . S
C895 H916 0.930 . S
C896 N894 1.334 . S
C896 C895 1.391 . S
C896 H903 0.930 . S
C897 N894 1.328 . S
C897 C899 1.392 . S
C897 H904 0.930 . S
N898 C895 1.329 . S
N898 C899 1.331 . S
C899 C897 1.392 . S
C899 N898 1.331 . S
O900 Zn893 1.975 . S
O900 C901 1.252 . S
C901 O900 1.252 . S
C901 O902 1.252 . S
O902 Zn884 1.975 . S
O902 C901 1.252 . S
H903 C896 0.930 . S
H904 C897 0.930 . S
C905 C906 1.392 . S
C905 N909 1.328 . S
C905 H911 0.930 . S
C906 C905 1.392 . S
C906 N910 1.331 . S
C907 C908 1.391 . S
C907 N910 1.329 . S
C907 H917 0.930 . S
C908 C907 1.391 . S
C908 N909 1.334 . S
C908 H915 0.930 . S
N909 Zn893 2.119 . S
N909 C905 1.328 . S
N909 C908 1.334 . S
N910 C906 1.331 . S
N910 C907 1.329 . S
H911 C905 0.930 . S
C912 O892 1.257 . S
C912 O913 1.244 . S
O913 C912 1.244 . S
O914 C890 1.257 . S
O914 Zn893 2.019 . S
H915 C908 0.930 . S
H916 C895 0.930 . S
H917 C907 0.930 . S
Zn918 N922 2.020 . S
Zn918 O926 2.019 . S
Zn918 N928 2.119 . S
Zn918 O936 1.975 . S
C919 N920 1.334 . S
C919 N923 1.336 . S
N920 C919 1.334 . S
N920 C921 1.334 . S
C921 N920 1.334 . S
C921 N922 1.336 . S
N922 Zn918 2.020 . S
N922 C921 1.336 . S
N922 N923 1.354 . S
N923 C919 1.336 . S
N923 N922 1.354 . S
N923 Zn927 2.020 . S
C924 O925 1.244 . S
C924 O948 1.257 . S
O925 C924 1.244 . S
O926 Zn918 2.019 . S
O926 C946 1.257 . S
Zn927 N923 2.020 . S
Zn927 O934 1.975 . S
Zn927 N943 2.119 . S
Zn927 O948 2.019 . S
N928 Zn918 2.119 . S
N928 C930 1.334 . S
N928 C931 1.328 . S
C929 C930 1.391 . S
C929 N932 1.329 . S
C929 H950 0.930 . S
C930 N928 1.334 . S
C930 C929 1.391 . S
C930 H937 0.930 . S
C931 N928 1.328 . S
C931 C933 1.392 . S
C931 H938 0.930 . S
N932 C929 1.329 . S
N932 C933 1.331 . S
C933 C931 1.392 . S
C933 N932 1.331 . S
O934 Zn927 1.975 . S
O934 C935 1.252 . S
C935 O934 1.252 . S
C935 O936 1.252 . S
O936 Zn918 1.975 . S
O936 C935 1.252 . S
H937 C930 0.930 . S
H938 C931 0.930 . S
C939 C940 1.392 . S
C939 N943 1.328 . S
C939 H945 0.930 . S
C940 C939 1.392 . S
C940 N944 1.331 . S
C941 C942 1.391 . S
C941 N944 1.329 . S
C941 H951 0.930 . S
C942 C941 1.391 . S
C942 N943 1.334 . S
C942 H949 0.930 . S
N943 Zn927 2.119 . S
N943 C939 1.328 . S
N943 C942 1.334 . S
N944 C940 1.331 . S
N944 C941 1.329 . S
H945 C939 0.930 . S
C946 O926 1.257 . S
C946 O947 1.244 . S
O947 C946 1.244 . S
O948 C924 1.257 . S
O948 Zn927 2.019 . S
H949 C942 0.930 . S
H950 C929 0.930 . S
H951 C941 0.930 . S
Zn952 N956 2.020 . S
Zn952 O960 2.019 . S
Zn952 N962 2.119 . S
Zn952 O970 1.975 . S
C953 N954 1.334 . S
C953 N957 1.336 . S
N954 C953 1.334 . S
N954 C955 1.334 . S
C955 N954 1.334 . S
C955 N956 1.336 . S
N956 Zn952 2.020 . S
N956 C955 1.336 . S
N956 N957 1.354 . S
N957 C953 1.336 . S
N957 N956 1.354 . S
N957 Zn961 2.020 . S
C958 O959 1.244 . S
C958 O982 1.257 . S
O959 C958 1.244 . S
O960 Zn952 2.019 . S
O960 C980 1.257 . S
Zn961 N957 2.020 . S
Zn961 O968 1.975 . S
Zn961 N977 2.119 . S
Zn961 O982 2.019 . S
N962 Zn952 2.119 . S
N962 C964 1.334 . S
N962 C965 1.328 . S
C963 C964 1.391 . S
C963 N966 1.329 . S
C963 H984 0.930 . S
C964 N962 1.334 . S
C964 C963 1.391 . S
C964 H971 0.930 . S
C965 N962 1.328 . S
C965 C967 1.392 . S
C965 H972 0.930 . S
N966 C963 1.329 . S
N966 C967 1.331 . S
C967 C965 1.392 . S
C967 N966 1.331 . S
O968 Zn961 1.975 . S
O968 C969 1.252 . S
C969 O968 1.252 . S
C969 O970 1.252 . S
O970 Zn952 1.975 . S
O970 C969 1.252 . S
H971 C964 0.930 . S
H972 C965 0.930 . S
C973 C974 1.392 . S
C973 N977 1.328 . S
C973 H979 0.930 . S
C974 C973 1.392 . S
C974 N978 1.331 . S
C975 C976 1.391 . S
C975 N978 1.329 . S
C975 H985 0.930 . S
C976 C975 1.391 . S
C976 N977 1.334 . S
C976 H983 0.930 . S
N977 Zn961 2.119 . S
N977 C973 1.328 . S
N977 C976 1.334 . S
N978 C974 1.331 . S
N978 C975 1.329 . S
H979 C973 0.930 . S
C980 O960 1.257 . S
C980 O981 1.244 . S
O981 C980 1.244 . S
O982 C958 1.257 . S
O982 Zn961 2.019 . S
H983 C976 0.930 . S
H984 C963 0.930 . S
H985 C975 0.930 . S
Zn986 N990 2.020 . S
Zn986 O994 2.019 . S
Zn986 N996 2.119 . S
Zn986 O1004 1.975 . S
C987 N988 1.334 . S
C987 N991 1.336 . S
N988 C987 1.334 . S
N988 C989 1.334 . S
C989 N988 1.334 . S
C989 N990 1.336 . S
N990 Zn986 2.020 . S
N990 C989 1.336 . S
N990 N991 1.354 . S
N991 C987 1.336 . S
N991 N990 1.354 . S
N991 Zn995 2.020 . S
C992 O993 1.244 . S
C992 O1016 1.257 . S
O993 C992 1.244 . S
O994 Zn986 2.019 . S
O994 C1014 1.257 . S
Zn995 N991 2.020 . S
Zn995 O1002 1.975 . S
Zn995 N1011 2.119 . S
Zn995 O1016 2.019 . S
N996 Zn986 2.119 . S
N996 C998 1.334 . S
N996 C999 1.328 . S
C997 C998 1.391 . S
C997 N1000 1.329 . S
C997 H1018 0.930 . S
C998 N996 1.334 . S
C998 C997 1.391 . S
C998 H1005 0.930 . S
C999 N996 1.328 . S
C999 C1001 1.392 . S
C999 H1006 0.930 . S
N1000 C997 1.329 . S
N1000 C1001 1.331 . S
C1001 C999 1.392 . S
C1001 N1000 1.331 . S
O1002 Zn995 1.975 . S
O1002 C1003 1.252 . S
C1003 O1002 1.252 . S
C1003 O1004 1.252 . S
O1004 Zn986 1.975 . S
O1004 C1003 1.252 . S
H1005 C998 0.930 . S
H1006 C999 0.930 . S
C1007 C1008 1.392 . S
C1007 N1011 1.328 . S
C1007 H1013 0.930 . S
C1008 C1007 1.392 . S
C1008 N1012 1.331 . S
C1009 C1010 1.391 . S
C1009 N1012 1.329 . S
C1009 H1019 0.930 . S
C1010 C1009 1.391 . S
C1010 N1011 1.334 . S
C1010 H1017 0.930 . S
N1011 Zn995 2.119 . S
N1011 C1007 1.328 . S
N1011 C1010 1.334 . S
N1012 C1008 1.331 . S
N1012 C1009 1.329 . S
H1013 C1007 0.930 . S
C1014 O994 1.257 . S
C1014 O1015 1.244 . S
O1015 C1014 1.244 . S
O1016 C992 1.257 . S
O1016 Zn995 2.019 . S
H1017 C1010 0.930 . S
H1018 C997 0.930 . S
H1019 C1009 0.930 . S
Zn1020 N1024 2.020 . S
Zn1020 O1028 2.019 . S
Zn1020 N1030 2.119 . S
Zn1020 O1038 1.975 . S
C1021 N1022 1.334 . S
C1021 N1025 1.336 . S
N1022 C1021 1.334 . S
N1022 C1023 1.334 . S
C1023 N1022 1.334 . S
C1023 N1024 1.336 . S
N1024 Zn1020 2.020 . S
N1024 C1023 1.336 . S
N1024 N1025 1.354 . S
N1025 C1021 1.336 . S
N1025 N1024 1.354 . S
N1025 Zn1029 2.020 . S
C1026 O1027 1.244 . S
C1026 O1050 1.257 . S
O1027 C1026 1.244 . S
O1028 Zn1020 2.019 . S
O1028 C1048 1.257 . S
Zn1029 N1025 2.020 . S
Zn1029 O1036 1.975 . S
Zn1029 N1045 2.119 . S
Zn1029 O1050 2.019 . S
N1030 Zn1020 2.119 . S
N1030 C1032 1.334 . S
N1030 C1033 1.328 . S
C1031 C1032 1.391 . S
C1031 N1034 1.329 . S
C1031 H1052 0.930 . S
C1032 N1030 1.334 . S
C1032 C1031 1.391 . S
C1032 H1039 0.930 . S
C1033 N1030 1.328 . S
C1033 C1035 1.392 . S
C1033 H1040 0.930 . S
N1034 C1031 1.329 . S
N1034 C1035 1.331 . S
C1035 C1033 1.392 . S
C1035 N1034 1.331 . S
O1036 Zn1029 1.975 . S
O1036 C1037 1.252 . S
C1037 O1036 1.252 . S
C1037 O1038 1.252 . S
O1038 Zn1020 1.975 . S
O1038 C1037 1.252 . S
H1039 C1032 0.930 . S
H1040 C1033 0.930 . S
C1041 C1042 1.392 . S
C1041 N1045 1.328 . S
C1041 H1047 0.930 . S
C1042 C1041 1.392 . S
C1042 N1046 1.331 . S
C1043 C1044 1.391 . S
C1043 N1046 1.329 . S
C1043 H1053 0.930 . S
C1044 C1043 1.391 . S
C1044 N1045 1.334 . S
C1044 H1051 0.930 . S
N1045 Zn1029 2.119 . S
N1045 C1041 1.328 . S
N1045 C1044 1.334 . S
N1046 C1042 1.331 . S
N1046 C1043 1.329 . S
H1047 C1041 0.930 . S
C1048 O1028 1.257 . S
C1048 O1049 1.244 . S
O1049 C1048 1.244 . S
O1050 C1026 1.257 . S
O1050 Zn1029 2.019 . S
H1051 C1044 0.930 . S
H1052 C1031 0.930 . S
H1053 C1043 0.930 . S
Zn1054 N1058 2.020 . S
Zn1054 O1062 2.019 . S
Zn1054 N1064 2.119 . S
Zn1054 O1072 1.975 . S
C1055 N1056 1.334 . S
C1055 N1059 1.336 . S
N1056 C1055 1.334 . S
N1056 C1057 1.334 . S
C1057 N1056 1.334 . S
C1057 N1058 1.336 . S
N1058 Zn1054 2.020 . S
N1058 C1057 1.336 . S
N1058 N1059 1.354 . S
N1059 C1055 1.336 . S
N1059 N1058 1.354 . S
N1059 Zn1063 2.020 . S
C1060 O1061 1.244 . S
C1060 O1084 1.257 . S
O1061 C1060 1.244 . S
O1062 Zn1054 2.019 . S
O1062 C1082 1.257 . S
Zn1063 N1059 2.020 . S
Zn1063 O1070 1.975 . S
Zn1063 N1079 2.119 . S
Zn1063 O1084 2.019 . S
N1064 Zn1054 2.119 . S
N1064 C1066 1.334 . S
N1064 C1067 1.328 . S
C1065 C1066 1.391 . S
C1065 N1068 1.329 . S
C1065 H1086 0.930 . S
C1066 N1064 1.334 . S
C1066 C1065 1.391 . S
C1066 H1073 0.930 . S
C1067 N1064 1.328 . S
C1067 C1069 1.392 . S
C1067 H1074 0.930 . S
N1068 C1065 1.329 . S
N1068 C1069 1.331 . S
C1069 C1067 1.392 . S
C1069 N1068 1.331 . S
O1070 Zn1063 1.975 . S
O1070 C1071 1.252 . S
C1071 O1070 1.252 . S
C1071 O1072 1.252 . S
O1072 Zn1054 1.975 . S
O1072 C1071 1.252 . S
H1073 C1066 0.930 . S
H1074 C1067 0.930 . S
C1075 C1076 1.392 . S
C1075 N1079 1.328 . S
C1075 H1081 0.930 . S
C1076 C1075 1.392 . S
C1076 N1080 1.331 . S
C1077 C1078 1.391 . S
C1077 N1080 1.329 . S
C1077 H1087 0.930 . S
C1078 C1077 1.391 . S
C1078 N1079 1.334 . S
C1078 H1085 0.930 . S
N1079 Zn1063 2.119 . S
N1079 C1075 1.328 . S
N1079 C1078 1.334 . S
N1080 C1076 1.331 . S
N1080 C1077 1.329 . S
H1081 C1075 0.930 . S
C1082 O1062 1.257 . S
C1082 O1083 1.244 . S
O1083 C1082 1.244 . S
O1084 C1060 1.257 . S
O1084 Zn1063 2.019 . S
H1085 C1078 0.930 . S
H1086 C1065 0.930 . S
H1087 C1077 0.930 . S
Zn1088 N1092 2.020 . S
Zn1088 O1096 2.019 . S
Zn1088 N1098 2.119 . S
Zn1088 O1106 1.975 . S
C1089 N1090 1.334 . S
C1089 N1093 1.336 . S
N1090 C1089 1.334 . S
N1090 C1091 1.334 . S
C1091 N1090 1.334 . S
C1091 N1092 1.336 . S
N1092 Zn1088 2.020 . S
N1092 C1091 1.336 . S
N1092 N1093 1.354 . S
N1093 C1089 1.336 . S
N1093 N1092 1.354 . S
N1093 Zn1097 2.020 . S
C1094 O1095 1.244 . S
C1094 O1118 1.257 . S
O1095 C1094 1.244 . S
O1096 Zn1088 2.019 . S
O1096 C1116 1.257 . S
Zn1097 N1093 2.020 . S
Zn1097 O1104 1.975 . S
Zn1097 N1113 2.119 . S
Zn1097 O1118 2.019 . S
N1098 Zn1088 2.119 . S
N1098 C1100 1.334 . S
N1098 C1101 1.328 . S
C1099 C1100 1.391 . S
C1099 N1102 1.329 . S
C1099 H1120 0.930 . S
C1100 N1098 1.334 . S
C1100 C1099 1.391 . S
C1100 H1107 0.930 . S
C1101 N1098 1.328 . S
C1101 C1103 1.392 . S
C1101 H1108 0.930 . S
N1102 C1099 1.329 . S
N1102 C1103 1.331 . S
C1103 C1101 1.392 . S
C1103 N1102 1.331 . S
O1104 Zn1097 1.975 . S
O1104 C1105 1.252 . S
C1105 O1104 1.252 . S
C1105 O1106 1.252 . S
O1106 Zn1088 1.975 . S
O1106 C1105 1.252 . S
H1107 C1100 0.930 . S
H1108 C1101 0.930 . S
C1109 C1110 1.392 . S
C1109 N1113 1.328 . S
C1109 H1115 0.930 . S
C1110 C1109 1.392 . S
C1110 N1114 1.331 . S
C1111 C1112 1.391 . S
C1111 N1114 1.329 . S
C1111 H1121 0.930 . S
C1112 C1111 1.391 . S
C1112 N1113 1.334 . S
C1112 H1119 0.930 . S
N1113 Zn1097 2.119 . S
N1113 C1109 1.328 . S
N1113 C1112 1.334 . S
N1114 C1110 1.331 . S
N1114 C1111 1.329 . S
H1115 C1109 0.930 . S
C1116 O1096 1.257 . S
C1116 O1117 1.244 . S
O1117 C1116 1.244 . S
O1118 C1094 1.257 . S
O1118 Zn1097 2.019 . S
H1119 C1112 0.930 . S
H1120 C1099 0.930 . S
H1121 C1111 0.930 . S
Zn1122 N1126 2.020 . S
Zn1122 O1130 2.019 . S
Zn1122 N1132 2.119 . S
Zn1122 O1140 1.975 . S
C1123 N1124 1.334 . S
C1123 N1127 1.336 . S
N1124 C1123 1.334 . S
N1124 C1125 1.334 . S
C1125 N1124 1.334 . S
C1125 N1126 1.336 . S
N1126 Zn1122 2.020 . S
N1126 C1125 1.336 . S
N1126 N1127 1.354 . S
N1127 C1123 1.336 . S
N1127 N1126 1.354 . S
N1127 Zn1131 2.020 . S
C1128 O1129 1.244 . S
C1128 O1152 1.257 . S
O1129 C1128 1.244 . S
O1130 Zn1122 2.019 . S
O1130 C1150 1.257 . S
Zn1131 N1127 2.020 . S
Zn1131 O1138 1.975 . S
Zn1131 N1147 2.119 . S
Zn1131 O1152 2.019 . S
N1132 Zn1122 2.119 . S
N1132 C1134 1.334 . S
N1132 C1135 1.328 . S
C1133 C1134 1.391 . S
C1133 N1136 1.329 . S
C1133 H1154 0.930 . S
C1134 N1132 1.334 . S
C1134 C1133 1.391 . S
C1134 H1141 0.930 . S
C1135 N1132 1.328 . S
C1135 C1137 1.392 . S
C1135 H1142 0.930 . S
N1136 C1133 1.329 . S
N1136 C1137 1.331 . S
C1137 C1135 1.392 . S
C1137 N1136 1.331 . S
O1138 Zn1131 1.975 . S
O1138 C1139 1.252 . S
C1139 O1138 1.252 . S
C1139 O1140 1.252 . S
O1140 Zn1122 1.975 . S
O1140 C1139 1.252 . S
H1141 C1134 0.930 . S
H1142 C1135 0.930 . S
C1143 C1144 1.392 . S
C1143 N1147 1.328 . S
C1143 H1149 0.930 . S
C1144 C1143 1.392 . S
C1144 N1148 1.331 . S
C1145 C1146 1.391 . S
C1145 N1148 1.329 . S
C1145 H1155 0.930 . S
C1146 C1145 1.391 . S
C1146 N1147 1.334 . S
C1146 H1153 0.930 . S
N1147 Zn1131 2.119 . S
N1147 C1143 1.328 . S
N1147 C1146 1.334 . S
N1148 C1144 1.331 . S
N1148 C1145 1.329 . S
H1149 C1143 0.930 . S
C1150 O1130 1.257 . S
C1150 O1151 1.244 . S
O1151 C1150 1.244 . S
O1152 C1128 1.257 . S
O1152 Zn1131 2.019 . S
H1153 C1146 0.930 . S
H1154 C1133 0.930 . S
H1155 C1145 0.930 . S
Zn1156 N1160 2.020 . S
Zn1156 O1164 2.019 . S
Zn1156 N1166 2.119 . S
Zn1156 O1174 1.975 . S
C1157 N1158 1.334 . S
C1157 N1161 1.336 . S
N1158 C1157 1.334 . S
N1158 C1159 1.334 . S
C1159 N1158 1.334 . S
C1159 N1160 1.336 . S
N1160 Zn1156 2.020 . S
N1160 C1159 1.336 . S
N1160 N1161 1.354 . S
N1161 C1157 1.336 . S
N1161 N1160 1.354 . S
N1161 Zn1165 2.020 . S
C1162 O1163 1.244 . S
C1162 O1186 1.257 . S
O1163 C1162 1.244 . S
O1164 Zn1156 2.019 . S
O1164 C1184 1.257 . S
Zn1165 N1161 2.020 . S
Zn1165 O1172 1.975 . S
Zn1165 N1181 2.119 . S
Zn1165 O1186 2.019 . S
N1166 Zn1156 2.119 . S
N1166 C1168 1.334 . S
N1166 C1169 1.328 . S
C1167 C1168 1.391 . S
C1167 N1170 1.329 . S
C1167 H1188 0.930 . S
C1168 N1166 1.334 . S
C1168 C1167 1.391 . S
C1168 H1175 0.930 . S
C1169 N1166 1.328 . S
C1169 C1171 1.392 . S
C1169 H1176 0.930 . S
N1170 C1167 1.329 . S
N1170 C1171 1.331 . S
C1171 C1169 1.392 . S
C1171 N1170 1.331 . S
O1172 Zn1165 1.975 . S
O1172 C1173 1.252 . S
C1173 O1172 1.252 . S
C1173 O1174 1.252 . S
O1174 Zn1156 1.975 . S
O1174 C1173 1.252 . S
H1175 C1168 0.930 . S
H1176 C1169 0.930 . S
C1177 C1178 1.392 . S
C1177 N1181 1.328 . S
C1177 H1183 0.930 . S
C1178 C1177 1.392 . S
C1178 N1182 1.331 . S
C1179 C1180 1.391 . S
C1179 N1182 1.329 . S
C1179 H1189 0.930 . S
C1180 C1179 1.391 . S
C1180 N1181 1.334 . S
C1180 H1187 0.930 . S
N1181 Zn1165 2.119 . S
N1181 C1177 1.328 . S
N1181 C1180 1.334 . S
N1182 C1178 1.331 . S
N1182 C1179 1.329 . S
H1183 C1177 0.930 . S
C1184 O1164 1.257 . S
C1184 O1185 1.244 . S
O1185 C1184 1.244 . S
O1186 C1162 1.257 . S
O1186 Zn1165 2.019 . S
H1187 C1180 0.930 . S
H1188 C1167 0.930 . S
H1189 C1179 0.930 . S
Zn1190 N1194 2.020 . S
Zn1190 O1198 2.019 . S
Zn1190 N1200 2.119 . S
Zn1190 O1208 1.975 . S
C1191 N1192 1.334 . S
C1191 N1195 1.336 . S
N1192 C1191 1.334 . S
N1192 C1193 1.334 . S
C1193 N1192 1.334 . S
C1193 N1194 1.336 . S
N1194 Zn1190 2.020 . S
N1194 C1193 1.336 . S
N1194 N1195 1.354 . S
N1195 C1191 1.336 . S
N1195 N1194 1.354 . S
N1195 Zn1199 2.020 . S
C1196 O1197 1.244 . S
C1196 O1220 1.257 . S
O1197 C1196 1.244 . S
O1198 Zn1190 2.019 . S
O1198 C1218 1.257 . S
Zn1199 N1195 2.020 . S
Zn1199 O1206 1.975 . S
Zn1199 N1215 2.119 . S
Zn1199 O1220 2.019 . S
N1200 Zn1190 2.119 . S
N1200 C1202 1.334 . S
N1200 C1203 1.328 . S
C1201 C1202 1.391 . S
C1201 N1204 1.329 . S
C1201 H1222 0.930 . S
C1202 N1200 1.334 . S
C1202 C1201 1.391 . S
C1202 H1209 0.930 . S
C1203 N1200 1.328 . S
C1203 C1205 1.392 . S
C1203 H1210 0.930 . S
N1204 C1201 1.329 . S
N1204 C1205 1.331 . S
C1205 C1203 1.392 . S
C1205 N1204 1.331 . S
O1206 Zn1199 1.975 . S
O1206 C1207 1.252 . S
C1207 O1206 1.252 . S
C1207 O1208 1.252 . S
O1208 Zn1190 1.975 . S
O1208 C1207 1.252 . S
H1209 C1202 0.930 . S
H1210 C1203 0.930 . S
C1211 C1212 1.392 . S
C1211 N1215 1.328 . S
C1211 H1217 0.930 . S
C1212 C1211 1.392 . S
C1212 N1216 1.331 . S
C1213 C1214 1.391 . S
C1213 N1216 1.329 . S
C1213 H1223 0.930 . S
C1214 C1213 1.391 . S
C1214 N1215 1.334 . S
C1214 H1221 0.930 . S
N1215 Zn1199 2.119 . S
N1215 C1211 1.328 . S
N1215 C1214 1.334 . S
N1216 C1212 1.331 . S
N1216 C1213 1.329 . S
H1217 C1211 0.930 . S
C1218 O1198 1.257 . S
C1218 O1219 1.244 . S
O1219 C1218 1.244 . S
O1220 C1196 1.257 . S
O1220 Zn1199 2.019 . S
H1221 C1214 0.930 . S
H1222 C1201 0.930 . S
H1223 C1213 0.930 . S
Zn1224 N1228 2.020 . S
Zn1224 O1232 2.019 . S
Zn1224 N1234 2.119 . S
Zn1224 O1242 1.975 . S
C1225 N1226 1.334 . S
C1225 N1229 1.336 . S
N1226 C1225 1.334 . S
N1226 C1227 1.334 . S
C1227 N1226 1.334 . S
C1227 N1228 1.336 . S
N1228 Zn1224 2.020 . S
N1228 C1227 1.336 . S
N1228 N1229 1.354 . S
N1229 C1225 1.336 . S
N1229 N1228 1.354 . S
N1229 Zn1233 2.020 . S
C1230 O1231 1.244 . S
C1230 O1254 1.257 . S
O1231 C1230 1.244 . S
O1232 Zn1224 2.019 . S
O1232 C1252 1.257 . S
Zn1233 N1229 2.020 . S
Zn1233 O1240 1.975 . S
Zn1233 N1249 2.119 . S
Zn1233 O1254 2.019 . S
N1234 Zn1224 2.119 . S
N1234 C1236 1.334 . S
N1234 C1237 1.328 . S
C1235 C1236 1.391 . S
C1235 N1238 1.329 . S
C1235 H1256 0.930 . S
C1236 N1234 1.334 . S
C1236 C1235 1.391 . S
C1236 H1243 0.930 . S
C1237 N1234 1.328 . S
C1237 C1239 1.392 . S
C1237 H1244 0.930 . S
N1238 C1235 1.329 . S
N1238 C1239 1.331 . S
C1239 C1237 1.392 . S
C1239 N1238 1.331 . S
O1240 Zn1233 1.975 . S
O1240 C1241 1.252 . S
C1241 O1240 1.252 . S
C1241 O1242 1.252 . S
O1242 Zn1224 1.975 . S
O1242 C1241 1.252 . S
H1243 C1236 0.930 . S
H1244 C1237 0.930 . S
C1245 C1246 1.392 . S
C1245 N1249 1.328 . S
C1245 H1251 0.930 . S
C1246 C1245 1.392 . S
C1246 N1250 1.331 . S
C1247 C1248 1.391 . S
C1247 N1250 1.329 . S
C1247 H1257 0.930 . S
C1248 C1247 1.391 . S
C1248 N1249 1.334 . S
C1248 H1255 0.930 . S
N1249 Zn1233 2.119 . S
N1249 C1245 1.328 . S
N1249 C1248 1.334 . S
N1250 C1246 1.331 . S
N1250 C1247 1.329 . S
H1251 C1245 0.930 . S
C1252 O1232 1.257 . S
C1252 O1253 1.244 . S
O1253 C1252 1.244 . S
O1254 C1230 1.257 . S
O1254 Zn1233 2.019 . S
H1255 C1248 0.930 . S
H1256 C1235 0.930 . S
H1257 C1247 0.930 . S
Zn1258 N1262 2.020 . S
Zn1258 O1266 2.019 . S
Zn1258 N1268 2.119 . S
Zn1258 O1276 1.975 . S
C1259 N1260 1.334 . S
C1259 N1263 1.336 . S
N1260 C1259 1.334 . S
N1260 C1261 1.334 . S
C1261 N1260 1.334 . S
C1261 N1262 1.336 . S
N1262 Zn1258 2.020 . S
N1262 C1261 1.336 . S
N1262 N1263 1.354 . S
N1263 C1259 1.336 . S
N1263 N1262 1.354 . S
N1263 Zn1267 2.020 . S
C1264 O1265 1.244 . S
C1264 O1288 1.257 . S
O1265 C1264 1.244 . S
O1266 Zn1258 2.019 . S
O1266 C1286 1.257 . S
Zn1267 N1263 2.020 . S
Zn1267 O1274 1.975 . S
Zn1267 N1283 2.119 . S
Zn1267 O1288 2.019 . S
N1268 Zn1258 2.119 . S
N1268 C1270 1.334 . S
N1268 C1271 1.328 . S
C1269 C1270 1.391 . S
C1269 N1272 1.329 . S
C1269 H1290 0.930 . S
C1270 N1268 1.334 . S
C1270 C1269 1.391 . S
C1270 H1277 0.930 . S
C1271 N1268 1.328 . S
C1271 C1273 1.392 . S
C1271 H1278 0.930 . S
N1272 C1269 1.329 . S
N1272 C1273 1.331 . S
C1273 C1271 1.392 . S
C1273 N1272 1.331 . S
O1274 Zn1267 1.975 . S
O1274 C1275 1.252 . S
C1275 O1274 1.252 . S
C1275 O1276 1.252 . S
O1276 Zn1258 1.975 . S
O1276 C1275 1.252 . S
H1277 C1270 0.930 . S
H1278 C1271 0.930 . S
C1279 C1280 1.392 . S
C1279 N1283 1.328 . S
C1279 H1285 0.930 . S
C1280 C1279 1.392 . S
C1280 N1284 1.331 . S
C1281 C1282 1.391 . S
C1281 N1284 1.329 . S
C1281 H1291 0.930 . S
C1282 C1281 1.391 . S
C1282 N1283 1.334 . S
C1282 H1289 0.930 . S
N1283 Zn1267 2.119 . S
N1283 C1279 1.328 . S
N1283 C1282 1.334 . S
N1284 C1280 1.331 . S
N1284 C1281 1.329 . S
H1285 C1279 0.930 . S
C1286 O1266 1.257 . S
C1286 O1287 1.244 . S
O1287 C1286 1.244 . S
O1288 C1264 1.257 . S
O1288 Zn1267 2.019 . S
H1289 C1282 0.930 . S
H1290 C1269 0.930 . S
H1291 C1281 0.930 . S
Zn1292 N1296 2.020 . S
Zn1292 O1300 2.019 . S
Zn1292 N1302 2.119 . S
Zn1292 O1310 1.975 . S
C1293 N1294 1.334 . S
C1293 N1297 1.336 . S
N1294 C1293 1.334 . S
N1294 C1295 1.334 . S
C1295 N1294 1.334 . S
C1295 N1296 1.336 . S
N1296 Zn1292 2.020 . S
N1296 C1295 1.336 . S
N1296 N1297 1.354 . S
N1297 C1293 1.336 . S
N1297 N1296 1.354 . S
N1297 Zn1301 2.020 . S
C1298 O1299 1.244 . S
C1298 O1322 1.257 . S
O1299 C1298 1.244 . S
O1300 Zn1292 2.019 . S
O1300 C1320 1.257 . S
Zn1301 N1297 2.020 . S
Zn1301 O1308 1.975 . S
Zn1301 N1317 2.119 . S
Zn1301 O1322 2.019 . S
N1302 Zn1292 2.119 . S
N1302 C1304 1.334 . S
N1302 C1305 1.328 . S
C1303 C1304 1.391 . S
C1303 N1306 1.329 . S
C1303 H1324 0.930 . S
C1304 N1302 1.334 . S
C1304 C1303 1.391 . S
C1304 H1311 0.930 . S
C1305 N1302 1.328 . S
C1305 C1307 1.392 . S
C1305 H1312 0.930 . S
N1306 C1303 1.329 . S
N1306 C1307 1.331 . S
C1307 C1305 1.392 . S
C1307 N1306 1.331 . S
O1308 Zn1301 1.975 . S
O1308 C1309 1.252 . S
C1309 O1308 1.252 . S
C1309 O1310 1.252 . S
O1310 Zn1292 1.975 . S
O1310 C1309 1.252 . S
H1311 C1304 0.930 . S
H1312 C1305 0.930 . S
C1313 C1314 1.392 . S
C1313 N1317 1.328 . S
C1313 H1319 0.930 . S
C1314 C1313 1.392 . S
C1314 N1318 1.331 . S
C1315 C1316 1.391 . S
C1315 N1318 1.329 . S
C1315 H1325 0.930 . S
C1316 C1315 1.391 . S
C1316 N1317 1.334 . S
C1316 H1323 0.930 . S
N1317 Zn1301 2.119 . S
N1317 C1313 1.328 . S
N1317 C1316 1.334 . S
N1318 C1314 1.331 . S
N1318 C1315 1.329 . S
H1319 C1313 0.930 . S
C1320 O1300 1.257 . S
C1320 O1321 1.244 . S
O1321 C1320 1.244 . S
O1322 C1298 1.257 . S
O1322 Zn1301 2.019 . S
H1323 C1316 0.930 . S
H1324 C1303 0.930 . S
H1325 C1315 0.930 . S
Zn1326 N1330 2.020 . S
Zn1326 O1334 2.019 . S
Zn1326 N1336 2.119 . S
Zn1326 O1344 1.975 . S
C1327 N1328 1.334 . S
C1327 N1331 1.336 . S
N1328 C1327 1.334 . S
N1328 C1329 1.334 . S
C1329 N1328 1.334 . S
C1329 N1330 1.336 . S
N1330 Zn1326 2.020 . S
N1330 C1329 1.336 . S
N1330 N1331 1.354 . S
N1331 C1327 1.336 . S
N1331 N1330 1.354 . S
N1331 Zn1335 2.020 . S
C1332 O1333 1.244 . S
C1332 O1356 1.257 . S
O1333 C1332 1.244 . S
O1334 Zn1326 2.019 . S
O1334 C1354 1.257 . S
Zn1335 N1331 2.020 . S
Zn1335 O1342 1.975 . S
Zn1335 N1351 2.119 . S
Zn1335 O1356 2.019 . S
N1336 Zn1326 2.119 . S
N1336 C1338 1.334 . S
N1336 C1339 1.328 . S
C1337 C1338 1.391 . S
C1337 N1340 1.329 . S
C1337 H1358 0.930 . S
C1338 N1336 1.334 . S
C1338 C1337 1.391 . S
C1338 H1345 0.930 . S
C1339 N1336 1.328 . S
C1339 C1341 1.392 . S
C1339 H1346 0.930 . S
N1340 C1337 1.329 . S
N1340 C1341 1.331 . S
C1341 C1339 1.392 . S
C1341 N1340 1.331 . S
O1342 Zn1335 1.975 . S
O1342 C1343 1.252 . S
C1343 O1342 1.252 . S
C1343 O1344 1.252 . S
O1344 Zn1326 1.975 . S
O1344 C1343 1.252 . S
H1345 C1338 0.930 . S
H1346 C1339 0.930 . S
C1347 C1348 1.392 . S
C1347 N1351 1.328 . S
C1347 H1353 0.930 . S
C1348 C1347 1.392 . S
C1348 N1352 1.331 . S
C1349 C1350 1.391 . S
C1349 N1352 1.329 . S
C1349 H1359 0.930 . S
C1350 C1349 1.391 . S
C1350 N1351 1.334 . S
C1350 H1357 0.930 . S
N1351 Zn1335 2.119 . S
N1351 C1347 1.328 . S
N1351 C1350 1.334 . S
N1352 C1348 1.331 . S
N1352 C1349 1.329 . S
H1353 C1347 0.930 . S
C1354 O1334 1.257 . S
C1354 O1355 1.244 . S
O1355 C1354 1.244 . S
O1356 C1332 1.257 . S
O1356 Zn1335 2.019 . S
H1357 C1350 0.930 . S
H1358 C1337 0.930 . S
H1359 C1349 0.930 . S
Zn1360 N1364 2.020 . S
Zn1360 O1368 2.019 . S
Zn1360 N1370 2.119 . S
Zn1360 O1378 1.975 . S
C1361 N1362 1.334 . S
C1361 N1365 1.336 . S
N1362 C1361 1.334 . S
N1362 C1363 1.334 . S
C1363 N1362 1.334 . S
C1363 N1364 1.336 . S
N1364 Zn1360 2.020 . S
N1364 C1363 1.336 . S
N1364 N1365 1.354 . S
N1365 C1361 1.336 . S
N1365 N1364 1.354 . S
N1365 Zn1369 2.020 . S
C1366 O1367 1.244 . S
C1366 O1390 1.257 . S
O1367 C1366 1.244 . S
O1368 Zn1360 2.019 . S
O1368 C1388 1.257 . S
Zn1369 N1365 2.020 . S
Zn1369 O1376 1.975 . S
Zn1369 N1385 2.119 . S
Zn1369 O1390 2.019 . S
N1370 Zn1360 2.119 . S
N1370 C1372 1.334 . S
N1370 C1373 1.328 . S
C1371 C1372 1.391 . S
C1371 N1374 1.329 . S
C1371 H1392 0.930 . S
C1372 N1370 1.334 . S
C1372 C1371 1.391 . S
C1372 H1379 0.930 . S
C1373 N1370 1.328 . S
C1373 C1375 1.392 . S
C1373 H1380 0.930 . S
N1374 C1371 1.329 . S
N1374 C1375 1.331 . S
C1375 C1373 1.392 . S
C1375 N1374 1.331 . S
O1376 Zn1369 1.975 . S
O1376 C1377 1.252 . S
C1377 O1376 1.252 . S
C1377 O1378 1.252 . S
O1378 Zn1360 1.975 . S
O1378 C1377 1.252 . S
H1379 C1372 0.930 . S
H1380 C1373 0.930 . S
C1381 C1382 1.392 . S
C1381 N1385 1.328 . S
C1381 H1387 0.930 . S
C1382 C1381 1.392 . S
C1382 N1386 1.331 . S
C1383 C1384 1.391 . S
C1383 N1386 1.329 . S
C1383 H1393 0.930 . S
C1384 C1383 1.391 . S
C1384 N1385 1.334 . S
C1384 H1391 0.930 . S
N1385 Zn1369 2.119 . S
N1385 C1381 1.328 . S
N1385 C1384 1.334 . S
N1386 C1382 1.331 . S
N1386 C1383 1.329 . S
H1387 C1381 0.930 . S
C1388 O1368 1.257 . S
C1388 O1389 1.244 . S
O1389 C1388 1.244 . S
O1390 C1366 1.257 . S
O1390 Zn1369 2.019 . S
H1391 C1384 0.930 . S
H1392 C1371 0.930 . S
H1393 C1383 0.930 . S
Zn1394 N1398 2.020 . S
Zn1394 O1402 2.019 . S
Zn1394 N1404 2.119 . S
Zn1394 O1412 1.975 . S
C1395 N1396 1.334 . S
C1395 N1399 1.336 . S
N1396 C1395 1.334 . S
N1396 C1397 1.334 . S
C1397 N1396 1.334 . S
C1397 N1398 1.336 . S
N1398 Zn1394 2.020 . S
N1398 C1397 1.336 . S
N1398 N1399 1.354 . S
N1399 C1395 1.336 . S
N1399 N1398 1.354 . S
N1399 Zn1403 2.020 . S
C1400 O1401 1.244 . S
C1400 O1424 1.257 . S
O1401 C1400 1.244 . S
O1402 Zn1394 2.019 . S
O1402 C1422 1.257 . S
Zn1403 N1399 2.020 . S
Zn1403 O1410 1.975 . S
Zn1403 N1419 2.119 . S
Zn1403 O1424 2.019 . S
N1404 Zn1394 2.119 . S
N1404 C1406 1.334 . S
N1404 C1407 1.328 . S
C1405 C1406 1.391 . S
C1405 N1408 1.329 . S
C1405 H1426 0.930 . S
C1406 N1404 1.334 . S
C1406 C1405 1.391 . S
C1406 H1413 0.930 . S
C1407 N1404 1.328 . S
C1407 C1409 1.392 . S
C1407 H1414 0.930 . S
N1408 C1405 1.329 . S
N1408 C1409 1.331 . S
C1409 C1407 1.392 . S
C1409 N1408 1.331 . S
O1410 Zn1403 1.975 . S
O1410 C1411 1.252 . S
C1411 O1410 1.252 . S
C1411 O1412 1.252 . S
O1412 Zn1394 1.975 . S
O1412 C1411 1.252 . S
H1413 C1406 0.930 . S
H1414 C1407 0.930 . S
C1415 C1416 1.392 . S
C1415 N1419 1.328 . S
C1415 H1421 0.930 . S
C1416 C1415 1.392 . S
C1416 N1420 1.331 . S
C1417 C1418 1.391 . S
C1417 N1420 1.329 . S
C1417 H1427 0.930 . S
C1418 C1417 1.391 . S
C1418 N1419 1.334 . S
C1418 H1425 0.930 . S
N1419 Zn1403 2.119 . S
N1419 C1415 1.328 . S
N1419 C1418 1.334 . S
N1420 C1416 1.331 . S
N1420 C1417 1.329 . S
H1421 C1415 0.930 . S
C1422 O1402 1.257 . S
C1422 O1423 1.244 . S
O1423 C1422 1.244 . S
O1424 C1400 1.257 . S
O1424 Zn1403 2.019 . S
H1425 C1418 0.930 . S
H1426 C1405 0.930 . S
H1427 C1417 0.930 . S
Zn1428 N1432 2.020 . S
Zn1428 O1436 2.019 . S
Zn1428 N1438 2.119 . S
Zn1428 O1446 1.975 . S
C1429 N1430 1.334 . S
C1429 N1433 1.336 . S
N1430 C1429 1.334 . S
N1430 C1431 1.334 . S
C1431 N1430 1.334 . S
C1431 N1432 1.336 . S
N1432 Zn1428 2.020 . S
N1432 C1431 1.336 . S
N1432 N1433 1.354 . S
N1433 C1429 1.336 . S
N1433 N1432 1.354 . S
N1433 Zn1437 2.020 . S
C1434 O1435 1.244 . S
C1434 O1458 1.257 . S
O1435 C1434 1.244 . S
O1436 Zn1428 2.019 . S
O1436 C1456 1.257 . S
Zn1437 N1433 2.020 . S
Zn1437 O1444 1.975 . S
Zn1437 N1453 2.119 . S
Zn1437 O1458 2.019 . S
N1438 Zn1428 2.119 . S
N1438 C1440 1.334 . S
N1438 C1441 1.328 . S
C1439 C1440 1.391 . S
C1439 N1442 1.329 . S
C1439 H1460 0.930 . S
C1440 N1438 1.334 . S
C1440 C1439 1.391 . S
C1440 H1447 0.930 . S
C1441 N1438 1.328 . S
C1441 C1443 1.392 . S
C1441 H1448 0.930 . S
N1442 C1439 1.329 . S
N1442 C1443 1.331 . S
C1443 C1441 1.392 . S
C1443 N1442 1.331 . S
O1444 Zn1437 1.975 . S
O1444 C1445 1.252 . S
C1445 O1444 1.252 . S
C1445 O1446 1.252 . S
O1446 Zn1428 1.975 . S
O1446 C1445 1.252 . S
H1447 C1440 0.930 . S
H1448 C1441 0.930 . S
C1449 C1450 1.392 . S
C1449 N1453 1.328 . S
C1449 H1455 0.930 . S
C1450 C1449 1.392 . S
C1450 N1454 1.331 . S
C1451 C1452 1.391 . S
C1451 N1454 1.329 . S
C1451 H1461 0.930 . S
C1452 C1451 1.391 . S
C1452 N1453 1.334 . S
C1452 H1459 0.930 . S
N1453 Zn1437 2.119 . S
N1453 C1449 1.328 . S
N1453 C1452 1.334 . S
N1454 C1450 1.331 . S
N1454 C1451 1.329 . S
H1455 C1449 0.930 . S
C1456 O1436 1.257 . S
C1456 O1457 1.244 . S
O1457 C1456 1.244 . S
O1458 C1434 1.257 . S
O1458 Zn1437 2.019 . S
H1459 C1452 0.930 . S
H1460 C1439 0.930 . S
H1461 C1451 0.930 . S
Zn1462 N1466 2.020 . S
Zn1462 O1470 2.019 . S
Zn1462 N1472 2.119 . S
Zn1462 O1480 1.975 . S
C1463 N1464 1.334 . S
C1463 N1467 1.336 . S
N1464 C1463 1.334 . S
N1464 C1465 1.334 . S
C1465 N1464 1.334 . S
C1465 N1466 1.336 . S
N1466 Zn1462 2.020 . S
N1466 C1465 1.336 . S
N1466 N1467 1.354 . S
N1467 C1463 1.336 . S
N1467 N1466 1.354 . S
N1467 Zn1471 2.020 . S
C1468 O1469 1.244 . S
C1468 O1492 1.257 . S
O1469 C1468 1.244 . S
O1470 Zn1462 2.019 . S
O1470 C1490 1.257 . S
Zn1471 N1467 2.020 . S
Zn1471 O1478 1.975 . S
Zn1471 N1487 2.119 . S
Zn1471 O1492 2.019 . S
N1472 Zn1462 2.119 . S
N1472 C1474 1.334 . S
N1472 C1475 1.328 . S
C1473 C1474 1.391 . S
C1473 N1476 1.329 . S
C1473 H1494 0.930 . S
C1474 N1472 1.334 . S
C1474 C1473 1.391 . S
C1474 H1481 0.930 . S
C1475 N1472 1.328 . S
C1475 C1477 1.392 . S
C1475 H1482 0.930 . S
N1476 C1473 1.329 . S
N1476 C1477 1.331 . S
C1477 C1475 1.392 . S
C1477 N1476 1.331 . S
O1478 Zn1471 1.975 . S
O1478 C1479 1.252 . S
C1479 O1478 1.252 . S
C1479 O1480 1.252 . S
O1480 Zn1462 1.975 . S
O1480 C1479 1.252 . S
H1481 C1474 0.930 . S
H1482 C1475 0.930 . S
C1483 C1484 1.392 . S
C1483 N1487 1.328 . S
C1483 H1489 0.930 . S
C1484 C1483 1.392 . S
C1484 N1488 1.331 . S
C1485 C1486 1.391 . S
C1485 N1488 1.329 . S
C1485 H1495 0.930 . S
C1486 C1485 1.391 . S
C1486 N1487 1.334 . S
C1486 H1493 0.930 . S
N1487 Zn1471 2.119 . S
N1487 C1483 1.328 . S
N1487 C1486 1.334 . S
N1488 C1484 1.331 . S
N1488 C1485 1.329 . S
H1489 C1483 0.930 . S
C1490 O1470 1.257 . S
C1490 O1491 1.244 . S
O1491 C1490 1.244 . S
O1492 C1468 1.257 . S
O1492 Zn1471 2.019 . S
H1493 C1486 0.930 . S
H1494 C1473 0.930 . S
H1495 C1485 0.930 . S
Zn1496 N1500 2.020 . S
Zn1496 O1504 2.019 . S
Zn1496 N1506 2.119 . S
Zn1496 O1514 1.975 . S
C1497 N1498 1.334 . S
C1497 N1501 1.336 . S
N1498 C1497 1.334 . S
N1498 C1499 1.334 . S
C1499 N1498 1.334 . S
C1499 N1500 1.336 . S
N1500 Zn1496 2.020 . S
N1500 C1499 1.336 . S
N1500 N1501 1.354 . S
N1501 C1497 1.336 . S
N1501 N1500 1.354 . S
N1501 Zn1505 2.020 . S
C1502 O1503 1.244 . S
C1502 O1526 1.257 . S
O1503 C1502 1.244 . S
O1504 Zn1496 2.019 . S
O1504 C1524 1.257 . S
Zn1505 N1501 2.020 . S
Zn1505 O1512 1.975 . S
Zn1505 N1521 2.119 . S
Zn1505 O1526 2.019 . S
N1506 Zn1496 2.119 . S
N1506 C1508 1.334 . S
N1506 C1509 1.328 . S
C1507 C1508 1.391 . S
C1507 N1510 1.329 . S
C1507 H1528 0.930 . S
C1508 N1506 1.334 . S
C1508 C1507 1.391 . S
C1508 H1515 0.930 . S
C1509 N1506 1.328 . S
C1509 C1511 1.392 . S
C1509 H1516 0.930 . S
N1510 C1507 1.329 . S
N1510 C1511 1.331 . S
C1511 C1509 1.392 . S
C1511 N1510 1.331 . S
O1512 Zn1505 1.975 . S
O1512 C1513 1.252 . S
C1513 O1512 1.252 . S
C1513 O1514 1.252 . S
O1514 Zn1496 1.975 . S
O1514 C1513 1.252 . S
H1515 C1508 0.930 . S
H1516 C1509 0.930 . S
C1517 C1518 1.392 . S
C1517 N1521 1.328 . S
C1517 H1523 0.930 . S
C1518 C1517 1.392 . S
C1518 N1522 1.331 . S
C1519 C1520 1.391 . S
C1519 N1522 1.329 . S
C1519 H1529 0.930 . S
C1520 C1519 1.391 . S
C1520 N1521 1.334 . S
C1520 H1527 0.930 . S
N1521 Zn1505 2.119 . S
N1521 C1517 1.328 . S
N1521 C1520 1.334 . S
N1522 C1518 1.331 . S
N1522 C1519 1.329 . S
H1523 C1517 0.930 . S
C1524 O1504 1.257 . S
C1524 O1525 1.244 . S
O1525 C1524 1.244 . S
O1526 C1502 1.257 . S
O1526 Zn1505 2.019 . S
H1527 C1520 0.930 . S
H1528 C1507 0.930 . S
H1529 C1519 0.930 . S
Zn1530 N1534 2.020 . S
Zn1530 O1538 2.019 . S
Zn1530 N1540 2.119 . S
Zn1530 O1548 1.975 . S
C1531 N1532 1.334 . S
C1531 N1535 1.336 . S
N1532 C1531 1.334 . S
N1532 C1533 1.334 . S
C1533 N1532 1.334 . S
C1533 N1534 1.336 . S
N1534 Zn1530 2.020 . S
N1534 C1533 1.336 . S
N1534 N1535 1.354 . S
N1535 C1531 1.336 . S
N1535 N1534 1.354 . S
N1535 Zn1539 2.020 . S
C1536 O1537 1.244 . S
C1536 O1560 1.257 . S
O1537 C1536 1.244 . S
O1538 Zn1530 2.019 . S
O1538 C1558 1.257 . S
Zn1539 N1535 2.020 . S
Zn1539 O1546 1.975 . S
Zn1539 N1555 2.119 . S
Zn1539 O1560 2.019 . S
N1540 Zn1530 2.119 . S
N1540 C1542 1.334 . S
N1540 C1543 1.328 . S
C1541 C1542 1.391 . S
C1541 N1544 1.329 . S
C1541 H1562 0.930 . S
C1542 N1540 1.334 . S
C1542 C1541 1.391 . S
C1542 H1549 0.930 . S
C1543 N1540 1.328 . S
C1543 C1545 1.392 . S
C1543 H1550 0.930 . S
N1544 C1541 1.329 . S
N1544 C1545 1.331 . S
C1545 C1543 1.392 . S
C1545 N1544 1.331 . S
O1546 Zn1539 1.975 . S
O1546 C1547 1.252 . S
C1547 O1546 1.252 . S
C1547 O1548 1.252 . S
O1548 Zn1530 1.975 . S
O1548 C1547 1.252 . S
H1549 C1542 0.930 . S
H1550 C1543 0.930 . S
C1551 C1552 1.392 . S
C1551 N1555 1.328 . S
C1551 H1557 0.930 . S
C1552 C1551 1.392 . S
C1552 N1556 1.331 . S
C1553 C1554 1.391 . S
C1553 N1556 1.329 . S
C1553 H1563 0.930 . S
C1554 C1553 1.391 . S
C1554 N1555 1.334 . S
C1554 H1561 0.930 . S
N1555 Zn1539 2.119 . S
N1555 C1551 1.328 . S
N1555 C1554 1.334 . S
N1556 C1552 1.331 . S
N1556 C1553 1.329 . S
H1557 C1551 0.930 . S
C1558 O1538 1.257 . S
C1558 O1559 1.244 . S
O1559 C1558 1.244 . S
O1560 C1536 1.257 . S
O1560 Zn1539 2.019 . S
H1561 C1554 0.930 . S
H1562 C1541 0.930 . S
H1563 C1553 0.930 . S
Zn1564 N1568 2.020 . S
Zn1564 O1572 2.019 . S
Zn1564 N1574 2.119 . S
Zn1564 O1582 1.975 . S
C1565 N1566 1.334 . S
C1565 N1569 1.336 . S
N1566 C1565 1.334 . S
N1566 C1567 1.334 . S
C1567 N1566 1.334 . S
C1567 N1568 1.336 . S
N1568 Zn1564 2.020 . S
N1568 C1567 1.336 . S
N1568 N1569 1.354 . S
N1569 C1565 1.336 . S
N1569 N1568 1.354 . S
N1569 Zn1573 2.020 . S
C1570 O1571 1.244 . S
C1570 O1594 1.257 . S
O1571 C1570 1.244 . S
O1572 Zn1564 2.019 . S
O1572 C1592 1.257 . S
Zn1573 N1569 2.020 . S
Zn1573 O1580 1.975 . S
Zn1573 N1589 2.119 . S
Zn1573 O1594 2.019 . S
N1574 Zn1564 2.119 . S
N1574 C1576 1.334 . S
N1574 C1577 1.328 . S
C1575 C1576 1.391 . S
C1575 N1578 1.329 . S
C1575 H1596 0.930 . S
C1576 N1574 1.334 . S
C1576 C1575 1.391 . S
C1576 H1583 0.930 . S
C1577 N1574 1.328 . S
C1577 C1579 1.392 . S
C1577 H1584 0.930 . S
N1578 C1575 1.329 . S
N1578 C1579 1.331 . S
C1579 C1577 1.392 . S
C1579 N1578 1.331 . S
O1580 Zn1573 1.975 . S
O1580 C1581 1.252 . S
C1581 O1580 1.252 . S
C1581 O1582 1.252 . S
O1582 Zn1564 1.975 . S
O1582 C1581 1.252 . S
H1583 C1576 0.930 . S
H1584 C1577 0.930 . S
C1585 C1586 1.392 . S
C1585 N1589 1.328 . S
C1585 H1591 0.930 . S
C1586 C1585 1.392 . S
C1586 N1590 1.331 . S
C1587 C1588 1.391 . S
C1587 N1590 1.329 . S
C1587 H1597 0.930 . S
C1588 C1587 1.391 . S
C1588 N1589 1.334 . S
C1588 H1595 0.930 . S
N1589 Zn1573 2.119 . S
N1589 C1585 1.328 . S
N1589 C1588 1.334 . S
N1590 C1586 1.331 . S
N1590 C1587 1.329 . S
H1591 C1585 0.930 . S
C1592 O1572 1.257 . S
C1592 O1593 1.244 . S
O1593 C1592 1.244 . S
O1594 C1570 1.257 . S
O1594 Zn1573 2.019 . S
H1595 C1588 0.930 . S
H1596 C1575 0.930 . S
H1597 C1587 0.930 . S
Zn1598 N1602 2.020 . S
Zn1598 O1606 2.019 . S
Zn1598 N1608 2.119 . S
Zn1598 O1616 1.975 . S
C1599 N1600 1.334 . S
C1599 N1603 1.336 . S
N1600 C1599 1.334 . S
N1600 C1601 1.334 . S
C1601 N1600 1.334 . S
C1601 N1602 1.336 . S
N1602 Zn1598 2.020 . S
N1602 C1601 1.336 . S
N1602 N1603 1.354 . S
N1603 C1599 1.336 . S
N1603 N1602 1.354 . S
N1603 Zn1607 2.020 . S
C1604 O1605 1.244 . S
C1604 O1628 1.257 . S
O1605 C1604 1.244 . S
O1606 Zn1598 2.019 . S
O1606 C1626 1.257 . S
Zn1607 N1603 2.020 . S
Zn1607 O1614 1.975 . S
Zn1607 N1623 2.119 . S
Zn1607 O1628 2.019 . S
N1608 Zn1598 2.119 . S
N1608 C1610 1.334 . S
N1608 C1611 1.328 . S
C1609 C1610 1.391 . S
C1609 N1612 1.329 . S
C1609 H1630 0.930 . S
C1610 N1608 1.334 . S
C1610 C1609 1.391 . S
C1610 H1617 0.930 . S
C1611 N1608 1.328 . S
C1611 C1613 1.392 . S
C1611 H1618 0.930 . S
N1612 C1609 1.329 . S
N1612 C1613 1.331 . S
C1613 C1611 1.392 . S
C1613 N1612 1.331 . S
O1614 Zn1607 1.975 . S
O1614 C1615 1.252 . S
C1615 O1614 1.252 . S
C1615 O1616 1.252 . S
O1616 Zn1598 1.975 . S
O1616 C1615 1.252 . S
H1617 C1610 0.930 . S
H1618 C1611 0.930 . S
C1619 C1620 1.392 . S
C1619 N1623 1.328 . S
C1619 H1625 0.930 . S
C1620 C1619 1.392 . S
C1620 N1624 1.331 . S
C1621 C1622 1.391 . S
C1621 N1624 1.329 . S
C1621 H1631 0.930 . S
C1622 C1621 1.391 . S
C1622 N1623 1.334 . S
C1622 H1629 0.930 . S
N1623 Zn1607 2.119 . S
N1623 C1619 1.328 . S
N1623 C1622 1.334 . S
N1624 C1620 1.331 . S
N1624 C1621 1.329 . S
H1625 C1619 0.930 . S
C1626 O1606 1.257 . S
C1626 O1627 1.244 . S
O1627 C1626 1.244 . S
O1628 C1604 1.257 . S
O1628 Zn1607 2.019 . S
H1629 C1622 0.930 . S
H1630 C1609 0.930 . S
H1631 C1621 0.930 . S
H1632 C1638 0.930 . S
H1633 C1642 0.930 . S
H1634 C1647 0.929 . S
H1635 C1645 0.929 . S
H1636 C1640 0.929 . S
H1637 C1646 0.929 . S
C1638 H1632 0.930 . S
C1638 C1639 1.367 . S
C1638 C1646 1.378 . S
C1639 C1638 1.367 . S
C1639 C1647 1.433 . S
C1640 H1636 0.929 . S
C1640 C1642 1.378 . S
C1640 C1644 1.350 . S
C1641 C1644 1.463 . S
C1641 C1646 1.350 . S
C1641 N1649 1.427 . S
C1642 H1633 0.930 . S
C1642 C1640 1.378 . S
C1642 C1643 1.367 . S
C1643 C1642 1.367 . S
C1643 C1645 1.433 . S
C1644 C1640 1.350 . S
C1644 C1641 1.463 . S
C1644 N1648 1.427 . S
C1645 H1635 0.929 . S
C1645 C1643 1.433 . S
C1645 N1648 1.384 . S
C1646 H1637 0.929 . S
C1646 C1638 1.378 . S
C1646 C1641 1.350 . S
C1647 H1634 0.929 . S
C1647 C1639 1.433 . S
C1647 N1649 1.384 . S
N1648 C1644 1.427 . S
N1648 C1645 1.384 . S
N1649 C1641 1.427 . S
N1649 C1647 1.384 . S
H1650 C1656 0.930 . S
H1651 C1660 0.930 . S
H1652 C1665 0.929 . S
H1653 C1663 0.929 . S
H1654 C1658 0.929 . S
H1655 C1664 0.929 . S
C1656 H1650 0.930 . S
C1656 C1657 1.367 . S
C1656 C1664 1.378 . S
C1657 C1656 1.367 . S
C1657 C1665 1.433 . S
C1658 H1654 0.929 . S
C1658 C1660 1.378 . S
C1658 C1662 1.350 . S
C1659 C1662 1.463 . S
C1659 C1664 1.350 . S
C1659 N1667 1.427 . S
C1660 H1651 0.930 . S
C1660 C1658 1.378 . S
C1660 C1661 1.367 . S
C1661 C1660 1.367 . S
C1661 C1663 1.433 . S
C1662 C1658 1.350 . S
C1662 C1659 1.463 . S
C1662 N1666 1.427 . S
C1663 H1653 0.929 . S
C1663 C1661 1.433 . S
C1663 N1666 1.384 . S
C1664 H1655 0.929 . S
C1664 C1656 1.378 . S
C1664 C1659 1.350 . S
C1665 H1652 0.929 . S
C1665 C1657 1.433 . S
C1665 N1667 1.384 . S
N1666 C1662 1.427 . S
N1666 C1663 1.384 . S
N1667 C1659 1.427 . S
N1667 C1665 1.384 . S
H1668 C1674 0.930 . S
H1669 C1678 0.930 . S
H1670 C1683 0.929 . S
H1671 C1681 0.929 . S
H1672 C1676 0.929 . S
H1673 C1682 0.929 . S
C1674 H1668 0.930 . S
C1674 C1675 1.367 . S
C1674 C1682 1.378 . S
C1675 C1674 1.367 . S
C1675 C1683 1.433 . S
C1676 H1672 0.929 . S
C1676 C1678 1.378 . S
C1676 C1680 1.350 . S
C1677 C1680 1.463 . S
C1677 C1682 1.350 . S
C1677 N1685 1.427 . S
C1678 H1669 0.930 . S
C1678 C1676 1.378 . S
C1678 C1679 1.367 . S
C1679 C1678 1.367 . S
C1679 C1681 1.433 . S
C1680 C1676 1.350 . S
C1680 C1677 1.463 . S
C1680 N1684 1.427 . S
C1681 H1671 0.929 . S
C1681 C1679 1.433 . S
C1681 N1684 1.384 . S
C1682 H1673 0.929 . S
C1682 C1674 1.378 . S
C1682 C1677 1.350 . S
C1683 H1670 0.929 . S
C1683 C1675 1.433 . S
C1683 N1685 1.384 . S
N1684 C1680 1.427 . S
N1684 C1681 1.384 . S
N1685 C1677 1.427 . S
N1685 C1683 1.384 . S
H1686 C1692 0.930 . S
H1687 C1696 0.930 . S
H1688 C1701 0.929 . S
H1689 C1699 0.929 . S
H1690 C1694 0.929 . S
H1691 C1700 0.929 . S
C1692 H1686 0.930 . S
C1692 C1693 1.367 . S
C1692 C1700 1.378 . S
C1693 C1692 1.367 . S
C1693 C1701 1.433 . S
C1694 H1690 0.929 . S
C1694 C1696 1.378 . S
C1694 C1698 1.350 . S
C1695 C1698 1.463 . S
C1695 C1700 1.350 . S
C1695 N1703 1.427 . S
C1696 H1687 0.930 . S
C1696 C1694 1.378 . S
C1696 C1697 1.367 . S
C1697 C1696 1.367 . S
C1697 C1699 1.433 . S
C1698 C1694 1.350 . S
C1698 C1695 1.463 . S
C1698 N1702 1.427 . S
C1699 H1689 0.929 . S
C1699 C1697 1.433 . S
C1699 N1702 1.384 . S
C1700 H1691 0.929 . S
C1700 C1692 1.378 . S
C1700 C1695 1.350 . S
C1701 H1688 0.929 . S
C1701 C1693 1.433 . S
C1701 N1703 1.384 . S
N1702 C1698 1.427 . S
N1702 C1699 1.384 . S
N1703 C1695 1.427 . S
N1703 C1701 1.384 . S
H1704 C1710 0.930 . S
H1705 C1714 0.930 . S
H1706 C1719 0.929 . S
H1707 C1717 0.929 . S
H1708 C1712 0.929 . S
H1709 C1718 0.929 . S
C1710 H1704 0.930 . S
C1710 C1711 1.367 . S
C1710 C1718 1.378 . S
C1711 C1710 1.367 . S
C1711 C1719 1.433 . S
C1712 H1708 0.929 . S
C1712 C1714 1.378 . S
C1712 C1716 1.350 . S
C1713 C1716 1.463 . S
C1713 C1718 1.350 . S
C1713 N1721 1.427 . S
C1714 H1705 0.930 . S
C1714 C1712 1.378 . S
C1714 C1715 1.367 . S
C1715 C1714 1.367 . S
C1715 C1717 1.433 . S
C1716 C1712 1.350 . S
C1716 C1713 1.463 . S
C1716 N1720 1.427 . S
C1717 H1707 0.929 . S
C1717 C1715 1.433 . S
C1717 N1720 1.384 . S
C1718 H1709 0.929 . S
C1718 C1710 1.378 . S
C1718 C1713 1.350 . S
C1719 H1706 0.929 . S
C1719 C1711 1.433 . S
C1719 N1721 1.384 . S
N1720 C1716 1.427 . S
N1720 C1717 1.384 . S
N1721 C1713 1.427 . S
N1721 C1719 1.384 . S
H1722 C1728 0.930 1_556 S
H1723 C1732 0.930 . S
H1724 C1737 0.929 . S
H1725 C1735 0.929 . S
H1726 C1730 0.929 . S
H1727 C1736 0.929 . S
C1728 H1722 0.930 1_554 S
C1728 C1729 1.367 . S
C1728 C1736 1.378 . S
C1729 C1728 1.367 . S
C1729 C1737 1.433 . S
C1730 H1726 0.929 . S
C1730 C1732 1.378 . S
C1730 C1734 1.350 . S
C1731 C1734 1.463 . S
C1731 C1736 1.350 . S
C1731 N1739 1.427 . S
C1732 H1723 0.930 . S
C1732 C1730 1.378 . S
C1732 C1733 1.367 . S
C1733 C1732 1.367 . S
C1733 C1735 1.433 . S
C1734 C1730 1.350 . S
C1734 C1731 1.463 . S
C1734 N1738 1.427 . S
C1735 H1725 0.929 . S
C1735 C1733 1.433 . S
C1735 N1738 1.384 . S
C1736 H1727 0.929 . S
C1736 C1728 1.378 . S
C1736 C1731 1.350 . S
C1737 H1724 0.929 . S
C1737 C1729 1.433 . S
C1737 N1739 1.384 . S
N1738 C1734 1.427 . S
N1738 C1735 1.384 . S
N1739 C1731 1.427 . S
N1739 C1737 1.384 . S
H1740 C1746 0.930 . S
H1741 C1750 0.930 . S
H1742 C1755 0.929 . S
H1743 C1753 0.929 . S
H1744 C1748 0.929 . S
H1745 C1754 0.929 . S
C1746 H1740 0.930 . S
C1746 C1747 1.367 . S
C1746 C1754 1.378 . S
C1747 C1746 1.367 . S
C1747 C1755 1.433 . S
C1748 H1744 0.929 . S
C1748 C1750 1.378 . S
C1748 C1752 1.350 . S
C1749 C1752 1.463 . S
C1749 C1754 1.350 . S
C1749 N1757 1.427 . S
C1750 H1741 0.930 . S
C1750 C1748 1.378 . S
C1750 C1751 1.367 . S
C1751 C1750 1.367 . S
C1751 C1753 1.433 . S
C1752 C1748 1.350 . S
C1752 C1749 1.463 . S
C1752 N1756 1.427 . S
C1753 H1743 0.929 . S
C1753 C1751 1.433 . S
C1753 N1756 1.384 . S
C1754 H1745 0.929 . S
C1754 C1746 1.378 . S
C1754 C1749 1.350 . S
C1755 H1742 0.929 . S
C1755 C1747 1.433 . S
C1755 N1757 1.384 . S
N1756 C1752 1.427 . S
N1756 C1753 1.384 . S
N1757 C1749 1.427 . S
N1757 C1755 1.384 . S
H1758 C1764 0.930 . S
H1759 C1768 0.930 . S
H1760 C1773 0.929 . S
H1761 C1771 0.929 . S
H1762 C1766 0.929 . S
H1763 C1772 0.929 . S
C1764 H1758 0.930 . S
C1764 C1765 1.367 . S
C1764 C1772 1.378 . S
C1765 C1764 1.367 . S
C1765 C1773 1.433 . S
C1766 H1762 0.929 . S
C1766 C1768 1.378 . S
C1766 C1770 1.350 . S
C1767 C1770 1.463 . S
C1767 C1772 1.350 . S
C1767 N1775 1.427 . S
C1768 H1759 0.930 . S
C1768 C1766 1.378 . S
C1768 C1769 1.367 . S
C1769 C1768 1.367 . S
C1769 C1771 1.433 . S
C1770 C1766 1.350 . S
C1770 C1767 1.463 . S
C1770 N1774 1.427 . S
C1771 H1761 0.929 . S
C1771 C1769 1.433 . S
C1771 N1774 1.384 . S
C1772 H1763 0.929 . S
C1772 C1764 1.378 . S
C1772 C1767 1.350 . S
C1773 H1760 0.929 . S
C1773 C1765 1.433 . S
C1773 N1775 1.384 . S
N1774 C1770 1.427 . S
N1774 C1771 1.384 . S
N1775 C1767 1.427 . S
N1775 C1773 1.384 . S
H1776 C1782 0.930 . S
H1777 C1786 0.930 . S
H1778 C1791 0.929 . S
H1779 C1789 0.929 . S
H1780 C1784 0.929 . S
H1781 C1790 0.929 . S
C1782 H1776 0.930 . S
C1782 C1783 1.367 . S
C1782 C1790 1.378 . S
C1783 C1782 1.367 . S
C1783 C1791 1.433 . S
C1784 H1780 0.929 . S
C1784 C1786 1.378 . S
C1784 C1788 1.350 . S
C1785 C1788 1.463 . S
C1785 C1790 1.350 . S
C1785 N1793 1.427 . S
C1786 H1777 0.930 . S
C1786 C1784 1.378 . S
C1786 C1787 1.367 . S
C1787 C1786 1.367 . S
C1787 C1789 1.433 . S
C1788 C1784 1.350 . S
C1788 C1785 1.463 . S
C1788 N1792 1.427 . S
C1789 H1779 0.929 . S
C1789 C1787 1.433 . S
C1789 N1792 1.384 . S
C1790 H1781 0.929 . S
C1790 C1782 1.378 . S
C1790 C1785 1.350 . S
C1791 H1778 0.929 . S
C1791 C1783 1.433 . S
C1791 N1793 1.384 . S
N1792 C1788 1.427 . S
N1792 C1789 1.384 . S
N1793 C1785 1.427 . S
N1793 C1791 1.384 . S
H1794 C1800 0.930 . S
H1795 C1804 0.930 . S
H1796 C1809 0.929 . S
H1797 C1807 0.929 . S
H1798 C1802 0.929 . S
H1799 C1808 0.929 . S
C1800 H1794 0.930 . S
C1800 C1801 1.367 . S
C1800 C1808 1.378 . S
C1801 C1800 1.367 . S
C1801 C1809 1.433 . S
C1802 H1798 0.929 . S
C1802 C1804 1.378 . S
C1802 C1806 1.350 . S
C1803 C1806 1.463 . S
C1803 C1808 1.350 . S
C1803 N1811 1.427 . S
C1804 H1795 0.930 . S
C1804 C1802 1.378 . S
C1804 C1805 1.367 . S
C1805 C1804 1.367 . S
C1805 C1807 1.433 . S
C1806 C1802 1.350 . S
C1806 C1803 1.463 . S
C1806 N1810 1.427 . S
C1807 H1797 0.929 . S
C1807 C1805 1.433 . S
C1807 N1810 1.384 . S
C1808 H1799 0.929 . S
C1808 C1800 1.378 . S
C1808 C1803 1.350 . S
C1809 H1796 0.929 . S
C1809 C1801 1.433 . S
C1809 N1811 1.384 . S
N1810 C1806 1.427 . S
N1810 C1807 1.384 . S
N1811 C1803 1.427 . S
N1811 C1809 1.384 . S
H1812 C1818 0.930 . S
H1813 C1822 0.930 . S
H1814 C1827 0.929 . S
H1815 C1825 0.929 . S
H1816 C1820 0.929 . S
H1817 C1826 0.929 . S
C1818 H1812 0.930 . S
C1818 C1819 1.367 . S
C1818 C1826 1.378 . S
C1819 C1818 1.367 . S
C1819 C1827 1.433 . S
C1820 H1816 0.929 . S
C1820 C1822 1.378 . S
C1820 C1824 1.350 . S
C1821 C1824 1.463 . S
C1821 C1826 1.350 . S
C1821 N1829 1.427 . S
C1822 H1813 0.930 . S
C1822 C1820 1.378 . S
C1822 C1823 1.367 . S
C1823 C1822 1.367 . S
C1823 C1825 1.433 . S
C1824 C1820 1.350 . S
C1824 C1821 1.463 . S
C1824 N1828 1.427 . S
C1825 H1815 0.929 . S
C1825 C1823 1.433 . S
C1825 N1828 1.384 . S
C1826 H1817 0.929 . S
C1826 C1818 1.378 . S
C1826 C1821 1.350 . S
C1827 H1814 0.929 . S
C1827 C1819 1.433 . S
C1827 N1829 1.384 . S
N1828 C1824 1.427 . S
N1828 C1825 1.384 . S
N1829 C1821 1.427 . S
N1829 C1827 1.384 . S
H1830 C1836 0.930 . S
H1831 C1840 0.948 . S
H1832 C1845 0.929 . S
H1833 C1843 0.929 . S
H1834 C1838 0.929 . S
H1835 C1844 0.929 . S
C1836 H1830 0.930 . S
C1836 C1837 1.367 . S
C1836 C1844 1.378 . S
C1837 C1836 1.367 . S
C1837 C1845 1.433 . S
C1838 H1834 0.929 . S
C1838 C1840 1.378 . S
C1838 C1842 1.350 . S
C1839 C1842 1.463 . S
C1839 C1844 1.350 . S
C1839 N1847 1.427 . S
C1840 H1831 0.948 . S
C1840 C1838 1.378 . S
C1840 C1841 1.367 . S
C1841 C1840 1.367 . S
C1841 C1843 1.433 . S
C1842 C1838 1.350 . S
C1842 C1839 1.463 . S
C1842 N1846 1.427 . S
C1843 H1833 0.929 . S
C1843 C1841 1.433 . S
C1843 N1846 1.384 . S
C1844 H1835 0.929 . S
C1844 C1836 1.378 . S
C1844 C1839 1.350 . S
C1845 H1832 0.929 . S
C1845 C1837 1.433 . S
C1845 N1847 1.384 . S
N1846 C1842 1.427 . S
N1846 C1843 1.384 . S
N1847 C1839 1.427 . S
N1847 C1845 1.384 . S
H1848 C1854 0.930 . S
H1849 C1858 0.930 . S
H1850 C1863 0.929 . S
H1851 C1861 0.929 . S
H1852 C1856 0.929 . S
H1853 C1862 0.929 . S
C1854 H1848 0.930 . S
C1854 C1855 1.367 . S
C1854 C1862 1.378 . S
C1855 C1854 1.367 . S
C1855 C1863 1.433 . S
C1856 H1852 0.929 . S
C1856 C1858 1.378 . S
C1856 C1860 1.350 . S
C1857 C1860 1.463 . S
C1857 C1862 1.350 . S
C1857 N1865 1.427 . S
C1858 H1849 0.930 . S
C1858 C1856 1.378 . S
C1858 C1859 1.367 . S
C1859 C1858 1.367 . S
C1859 C1861 1.433 . S
C1860 C1856 1.350 . S
C1860 C1857 1.463 . S
C1860 N1864 1.427 . S
C1861 H1851 0.929 . S
C1861 C1859 1.433 . S
C1861 N1864 1.384 . S
C1862 H1853 0.929 . S
C1862 C1854 1.378 . S
C1862 C1857 1.350 . S
C1863 H1850 0.929 . S
C1863 C1855 1.433 . S
C1863 N1865 1.384 . S
N1864 C1860 1.427 . S
N1864 C1861 1.384 . S
N1865 C1857 1.427 . S
N1865 C1863 1.384 . S
H1866 C1872 0.930 . S
H1867 C1876 0.930 . S
H1868 C1881 0.929 . S
H1869 C1879 0.929 . S
H1870 C1874 0.929 . S
H1871 C1880 0.929 . S
C1872 H1866 0.930 . S
C1872 C1873 1.367 . S
C1872 C1880 1.378 . S
C1873 C1872 1.367 . S
C1873 C1881 1.433 . S
C1874 H1870 0.929 . S
C1874 C1876 1.378 . S
C1874 C1878 1.350 . S
C1875 C1878 1.463 . S
C1875 C1880 1.350 . S
C1875 N1883 1.427 . S
C1876 H1867 0.930 . S
C1876 C1874 1.378 . S
C1876 C1877 1.367 . S
C1877 C1876 1.367 . S
C1877 C1879 1.433 . S
C1878 C1874 1.350 . S
C1878 C1875 1.463 . S
C1878 N1882 1.427 . S
C1879 H1869 0.929 . S
C1879 C1877 1.433 . S
C1879 N1882 1.384 . S
C1880 H1871 0.929 . S
C1880 C1872 1.378 . S
C1880 C1875 1.350 . S
C1881 H1868 0.929 . S
C1881 C1873 1.433 . S
C1881 N1883 1.384 . S
N1882 C1878 1.427 . S
N1882 C1879 1.384 . S
N1883 C1875 1.427 . S
N1883 C1881 1.384 . S
H1884 C1890 0.930 . S
H1885 C1894 0.930 . S
H1886 C1899 0.929 . S
H1887 C1897 0.929 . S
H1888 C1892 0.929 . S
H1889 C1898 0.929 . S
C1890 H1884 0.930 . S
C1890 C1891 1.367 . S
C1890 C1898 1.378 . S
C1891 C1890 1.367 . S
C1891 C1899 1.433 . S
C1892 H1888 0.929 . S
C1892 C1894 1.378 . S
C1892 C1896 1.350 . S
C1893 C1896 1.463 . S
C1893 C1898 1.350 . S
C1893 N1901 1.427 . S
C1894 H1885 0.930 . S
C1894 C1892 1.378 . S
C1894 C1895 1.367 . S
C1895 C1894 1.367 . S
C1895 C1897 1.433 . S
C1896 C1892 1.350 . S
C1896 C1893 1.463 . S
C1896 N1900 1.427 . S
C1897 H1887 0.929 . S
C1897 C1895 1.433 . S
C1897 N1900 1.384 . S
C1898 H1889 0.929 . S
C1898 C1890 1.378 . S
C1898 C1893 1.350 . S
C1899 H1886 0.929 . S
C1899 C1891 1.433 . S
C1899 N1901 1.384 . S
N1900 C1896 1.427 . S
N1900 C1897 1.384 . S
N1901 C1893 1.427 . S
N1901 C1899 1.384 . S
H1902 C1908 0.930 . S
H1903 C1912 0.930 . S
H1904 C1917 0.929 1_565 S
H1905 C1915 0.929 . S
H1906 C1910 0.929 . S
H1907 C1916 0.929 . S
C1908 H1902 0.930 . S
C1908 C1909 1.367 . S
C1908 C1916 1.378 . S
C1909 C1908 1.367 . S
C1909 C1917 1.433 . S
C1910 H1906 0.929 . S
C1910 C1912 1.378 . S
C1910 C1914 1.350 . S
C1911 C1914 1.463 . S
C1911 C1916 1.350 . S
C1911 N1919 1.427 . S
C1912 H1903 0.930 . S
C1912 C1910 1.378 . S
C1912 C1913 1.367 . S
C1913 C1912 1.367 . S
C1913 C1915 1.433 . S
C1914 C1910 1.350 . S
C1914 C1911 1.463 . S
C1914 N1918 1.427 . S
C1915 H1905 0.929 . S
C1915 C1913 1.433 . S
C1915 N1918 1.384 . S
C1916 H1907 0.929 . S
C1916 C1908 1.378 . S
C1916 C1911 1.350 . S
C1917 H1904 0.929 1_545 S
C1917 C1909 1.433 . S
C1917 N1919 1.384 . S
N1918 C1914 1.427 . S
N1918 C1915 1.384 . S
N1919 C1911 1.427 . S
N1919 C1917 1.384 . S
H1920 C1926 0.930 . S
H1921 C1930 0.930 . S
H1922 C1935 0.929 . S
H1923 C1933 0.929 . S
H1924 C1928 0.929 . S
H1925 C1934 0.929 . S
C1926 H1920 0.930 . S
C1926 C1927 1.367 . S
C1926 C1934 1.378 . S
C1927 C1926 1.367 . S
C1927 C1935 1.433 . S
C1928 H1924 0.929 . S
C1928 C1930 1.378 . S
C1928 C1932 1.350 . S
C1929 C1932 1.463 . S
C1929 C1934 1.350 . S
C1929 N1937 1.427 . S
C1930 H1921 0.930 . S
C1930 C1928 1.378 . S
C1930 C1931 1.367 . S
C1931 C1930 1.367 . S
C1931 C1933 1.433 . S
C1932 C1928 1.350 . S
C1932 C1929 1.463 . S
C1932 N1936 1.427 . S
C1933 H1923 0.929 . S
C1933 C1931 1.433 . S
C1933 N1936 1.384 . S
C1934 H1925 0.929 . S
C1934 C1926 1.378 . S
C1934 C1929 1.350 . S
C1935 H1922 0.929 . S
C1935 C1927 1.433 . S
C1935 N1937 1.384 . S
N1936 C1932 1.427 . S
N1936 C1933 1.384 . S
N1937 C1929 1.427 . S
N1937 C1935 1.384 . S
H1938 C1944 0.930 . S
H1939 C1948 0.930 . S
H1940 C1953 0.929 . S
H1941 C1951 0.929 . S
H1942 C1946 0.929 . S
H1943 C1952 0.929 . S
C1944 H1938 0.930 . S
C1944 C1945 1.367 . S
C1944 C1952 1.378 . S
C1945 C1944 1.367 . S
C1945 C1953 1.433 . S
C1946 H1942 0.929 . S
C1946 C1948 1.378 . S
C1946 C1950 1.350 . S
C1947 C1950 1.463 . S
C1947 C1952 1.350 . S
C1947 N1955 1.427 . S
C1948 H1939 0.930 . S
C1948 C1946 1.378 . S
C1948 C1949 1.367 . S
C1949 C1948 1.367 . S
C1949 C1951 1.433 . S
C1950 C1946 1.350 . S
C1950 C1947 1.463 . S
C1950 N1954 1.427 . S
C1951 H1941 0.929 . S
C1951 C1949 1.433 . S
C1951 N1954 1.384 . S
C1952 H1943 0.929 . S
C1952 C1944 1.378 . S
C1952 C1947 1.350 . S
C1953 H1940 0.929 . S
C1953 C1945 1.433 . S
C1953 N1955 1.384 . S
N1954 C1950 1.427 . S
N1954 C1951 1.384 . S
N1955 C1947 1.427 . S
N1955 C1953 1.384 . S
H1956 C1962 0.930 . S
H1957 C1966 0.930 . S
H1958 C1971 0.929 . S
H1959 C1969 0.929 . S
H1960 C1964 0.929 . S
H1961 C1970 0.929 . S
C1962 H1956 0.930 . S
C1962 C1963 1.367 . S
C1962 C1970 1.378 . S
C1963 C1962 1.367 . S
C1963 C1971 1.433 . S
C1964 H1960 0.929 . S
C1964 C1966 1.378 . S
C1964 C1968 1.350 . S
C1965 C1968 1.463 . S
C1965 C1970 1.350 . S
C1965 N1973 1.427 . S
C1966 H1957 0.930 . S
C1966 C1964 1.378 . S
C1966 C1967 1.367 . S
C1967 C1966 1.367 . S
C1967 C1969 1.433 . S
C1968 C1964 1.350 . S
C1968 C1965 1.463 . S
C1968 N1972 1.427 . S
C1969 H1959 0.929 . S
C1969 C1967 1.433 . S
C1969 N1972 1.384 . S
C1970 H1961 0.929 . S
C1970 C1962 1.378 . S
C1970 C1965 1.350 . S
C1971 H1958 0.929 . S
C1971 C1963 1.433 . S
C1971 N1973 1.384 . S
N1972 C1968 1.427 . S
N1972 C1969 1.384 . S
N1973 C1965 1.427 . S
N1973 C1971 1.384 . S
H1974 C1980 0.930 . S
H1975 C1984 0.930 . S
H1976 C1989 0.929 . S
H1977 C1987 0.929 . S
H1978 C1982 0.929 . S
H1979 C1988 0.929 . S
C1980 H1974 0.930 . S
C1980 C1981 1.367 . S
C1980 C1988 1.378 . S
C1981 C1980 1.367 . S
C1981 C1989 1.433 . S
C1982 H1978 0.929 . S
C1982 C1984 1.378 . S
C1982 C1986 1.350 . S
C1983 C1986 1.463 . S
C1983 C1988 1.350 . S
C1983 N1991 1.427 . S
C1984 H1975 0.930 . S
C1984 C1982 1.378 . S
C1984 C1985 1.367 . S
C1985 C1984 1.367 . S
C1985 C1987 1.433 . S
C1986 C1982 1.350 . S
C1986 C1983 1.463 . S
C1986 N1990 1.427 . S
C1987 H1977 0.929 . S
C1987 C1985 1.433 . S
C1987 N1990 1.384 . S
C1988 H1979 0.929 . S
C1988 C1980 1.378 . S
C1988 C1983 1.350 . S
C1989 H1976 0.929 . S
C1989 C1981 1.433 . S
C1989 N1991 1.384 . S
N1990 C1986 1.427 . S
N1990 C1987 1.384 . S
N1991 C1983 1.427 . S
N1991 C1989 1.384 . S
H1992 C1998 0.930 . S
H1993 C2002 0.930 . S
H1994 C2007 0.929 . S
H1995 C2005 0.929 . S
H1996 C2000 0.929 . S
H1997 C2006 0.929 . S
C1998 H1992 0.930 . S
C1998 C1999 1.367 . S
C1998 C2006 1.378 . S
C1999 C1998 1.367 . S
C1999 C2007 1.433 . S
C2000 H1996 0.929 . S
C2000 C2002 1.378 . S
C2000 C2004 1.350 . S
C2001 C2004 1.463 . S
C2001 C2006 1.350 . S
C2001 N2009 1.427 . S
C2002 H1993 0.930 . S
C2002 C2000 1.378 . S
C2002 C2003 1.367 . S
C2003 C2002 1.367 . S
C2003 C2005 1.433 . S
C2004 C2000 1.350 . S
C2004 C2001 1.463 . S
C2004 N2008 1.427 . S
C2005 H1995 0.929 . S
C2005 C2003 1.433 . S
C2005 N2008 1.384 . S
C2006 H1997 0.929 . S
C2006 C1998 1.378 . S
C2006 C2001 1.350 . S
C2007 H1994 0.929 . S
C2007 C1999 1.433 . S
C2007 N2009 1.384 . S
N2008 C2004 1.427 . S
N2008 C2005 1.384 . S
N2009 C2001 1.427 . S
N2009 C2007 1.384 . S
H2010 C2016 0.930 . S
H2011 C2020 0.930 . S
H2012 C2025 0.929 . S
H2013 C2023 0.929 . S
H2014 C2018 0.929 . S
H2015 C2024 0.929 . S
C2016 H2010 0.930 . S
C2016 C2017 1.367 . S
C2016 C2024 1.378 . S
C2017 C2016 1.367 . S
C2017 C2025 1.433 . S
C2018 H2014 0.929 . S
C2018 C2020 1.378 . S
C2018 C2022 1.350 . S
C2019 C2022 1.463 . S
C2019 C2024 1.350 . S
C2019 N2027 1.427 . S
C2020 H2011 0.930 . S
C2020 C2018 1.378 . S
C2020 C2021 1.367 . S
C2021 C2020 1.367 . S
C2021 C2023 1.433 . S
C2022 C2018 1.350 . S
C2022 C2019 1.463 . S
C2022 N2026 1.427 . S
C2023 H2013 0.929 . S
C2023 C2021 1.433 . S
C2023 N2026 1.384 . S
C2024 H2015 0.929 . S
C2024 C2016 1.378 . S
C2024 C2019 1.350 . S
C2025 H2012 0.929 . S
C2025 C2017 1.433 . S
C2025 N2027 1.384 . S
N2026 C2022 1.427 . S
N2026 C2023 1.384 . S
N2027 C2019 1.427 . S
N2027 C2025 1.384 . S
H2028 C2034 0.930 . S
H2029 C2038 0.930 . S
H2030 C2043 0.929 1_455 S
H2031 C2041 0.929 . S
H2032 C2036 0.929 . S
H2033 C2042 0.929 . S
C2034 H2028 0.930 . S
C2034 C2035 1.367 . S
C2034 C2042 1.378 . S
C2035 C2034 1.367 . S
C2035 C2043 1.433 . S
C2036 H2032 0.929 . S
C2036 C2038 1.378 . S
C2036 C2040 1.350 . S
C2037 C2040 1.463 . S
C2037 C2042 1.350 . S
C2037 N2045 1.427 . S
C2038 H2029 0.930 . S
C2038 C2036 1.378 . S
C2038 C2039 1.367 . S
C2039 C2038 1.367 . S
C2039 C2041 1.433 . S
C2040 C2036 1.350 . S
C2040 C2037 1.463 . S
C2040 N2044 1.427 . S
C2041 H2031 0.929 . S
C2041 C2039 1.433 . S
C2041 N2044 1.384 . S
C2042 H2033 0.929 . S
C2042 C2034 1.378 . S
C2042 C2037 1.350 . S
C2043 H2030 0.929 1_655 S
C2043 C2035 1.433 . S
C2043 N2045 1.384 . S
N2044 C2040 1.427 . S
N2044 C2041 1.384 . S
N2045 C2037 1.427 . S
N2045 C2043 1.384 . S
H2046 C2052 0.930 . S
H2047 C2056 0.930 . S
H2048 C2061 0.929 . S
H2049 C2059 0.929 . S
H2050 C2054 0.929 . S
H2051 C2060 0.929 . S
C2052 H2046 0.930 . S
C2052 C2053 1.367 . S
C2052 C2060 1.378 . S
C2053 C2052 1.367 . S
C2053 C2061 1.433 . S
C2054 H2050 0.929 . S
C2054 C2056 1.378 . S
C2054 C2058 1.350 . S
C2055 C2058 1.463 . S
C2055 C2060 1.350 . S
C2055 N2063 1.427 . S
C2056 H2047 0.930 . S
C2056 C2054 1.378 . S
C2056 C2057 1.367 . S
C2057 C2056 1.367 . S
C2057 C2059 1.433 . S
C2058 C2054 1.350 . S
C2058 C2055 1.463 . S
C2058 N2062 1.427 . S
C2059 H2049 0.929 . S
C2059 C2057 1.433 . S
C2059 N2062 1.384 . S
C2060 H2051 0.929 . S
C2060 C2052 1.378 . S
C2060 C2055 1.350 . S
C2061 H2048 0.929 . S
C2061 C2053 1.433 . S
C2061 N2063 1.384 . S
N2062 C2058 1.427 . S
N2062 C2059 1.384 . S
N2063 C2055 1.427 . S
N2063 C2061 1.384 . S
H2064 C2070 0.930 . S
H2065 C2074 0.930 . S
H2066 C2079 0.929 . S
H2067 C2077 0.929 . S
H2068 C2072 0.929 . S
H2069 C2078 0.929 . S
C2070 H2064 0.930 . S
C2070 C2071 1.367 . S
C2070 C2078 1.378 . S
C2071 C2070 1.367 . S
C2071 C2079 1.433 . S
C2072 H2068 0.929 . S
C2072 C2074 1.378 . S
C2072 C2076 1.350 . S
C2073 C2076 1.463 . S
C2073 C2078 1.350 . S
C2073 N2081 1.427 . S
C2074 H2065 0.930 . S
C2074 C2072 1.378 . S
C2074 C2075 1.367 . S
C2075 C2074 1.367 . S
C2075 C2077 1.433 . S
C2076 C2072 1.350 . S
C2076 C2073 1.463 . S
C2076 N2080 1.427 . S
C2077 H2067 0.929 . S
C2077 C2075 1.433 . S
C2077 N2080 1.384 . S
C2078 H2069 0.929 . S
C2078 C2070 1.378 . S
C2078 C2073 1.350 . S
C2079 H2066 0.929 . S
C2079 C2071 1.433 . S
C2079 N2081 1.384 . S
N2080 C2076 1.427 . S
N2080 C2077 1.384 . S
N2081 C2073 1.427 . S
N2081 C2079 1.384 . S
H2082 C2088 0.930 . S
H2083 C2092 0.930 . S
H2084 C2097 0.929 . S
H2085 C2095 0.929 . S
H2086 C2090 0.929 . S
H2087 C2096 0.929 . S
C2088 H2082 0.930 . S
C2088 C2089 1.367 . S
C2088 C2096 1.378 . S
C2089 C2088 1.367 . S
C2089 C2097 1.433 . S
C2090 H2086 0.929 . S
C2090 C2092 1.378 . S
C2090 C2094 1.350 . S
C2091 C2094 1.463 . S
C2091 C2096 1.350 . S
C2091 N2099 1.427 . S
C2092 H2083 0.930 . S
C2092 C2090 1.378 . S
C2092 C2093 1.367 . S
C2093 C2092 1.367 . S
C2093 C2095 1.433 . S
C2094 C2090 1.350 . S
C2094 C2091 1.463 . S
C2094 N2098 1.427 . S
C2095 H2085 0.929 . S
C2095 C2093 1.433 . S
C2095 N2098 1.384 . S
C2096 H2087 0.929 . S
C2096 C2088 1.378 . S
C2096 C2091 1.350 . S
C2097 H2084 0.929 . S
C2097 C2089 1.433 . S
C2097 N2099 1.384 . S
N2098 C2094 1.427 . S
N2098 C2095 1.384 . S
N2099 C2091 1.427 . S
N2099 C2097 1.384 . S
H2100 C2106 0.930 . S
H2101 C2110 0.930 . S
H2102 C2115 0.929 . S
H2103 C2113 0.929 . S
H2104 C2108 0.929 . S
H2105 C2114 0.929 . S
C2106 H2100 0.930 . S
C2106 C2107 1.367 . S
C2106 C2114 1.378 . S
C2107 C2106 1.367 . S
C2107 C2115 1.433 . S
C2108 H2104 0.929 . S
C2108 C2110 1.378 . S
C2108 C2112 1.350 . S
C2109 C2112 1.463 . S
C2109 C2114 1.350 . S
C2109 N2117 1.427 . S
C2110 H2101 0.930 . S
C2110 C2108 1.378 . S
C2110 C2111 1.367 . S
C2111 C2110 1.367 . S
C2111 C2113 1.433 . S
C2112 C2108 1.350 . S
C2112 C2109 1.463 . S
C2112 N2116 1.427 . S
C2113 H2103 0.929 . S
C2113 C2111 1.433 . S
C2113 N2116 1.384 . S
C2114 H2105 0.929 . S
C2114 C2106 1.378 . S
C2114 C2109 1.350 . S
C2115 H2102 0.929 . S
C2115 C2107 1.433 . S
C2115 N2117 1.384 . S
N2116 C2112 1.427 . S
N2116 C2113 1.384 . S
N2117 C2109 1.427 . S
N2117 C2115 1.384 . S
H2118 C2124 0.930 . S
H2119 C2128 0.930 . S
H2120 C2133 0.929 . S
H2121 C2131 0.929 . S
H2122 C2126 0.929 . S
H2123 C2132 0.929 . S
C2124 H2118 0.930 . S
C2124 C2125 1.367 . S
C2124 C2132 1.378 . S
C2125 C2124 1.367 . S
C2125 C2133 1.433 . S
C2126 H2122 0.929 . S
C2126 C2128 1.378 . S
C2126 C2130 1.350 . S
C2127 C2130 1.463 . S
C2127 C2132 1.350 . S
C2127 N2135 1.427 . S
C2128 H2119 0.930 . S
C2128 C2126 1.378 . S
C2128 C2129 1.367 . S
C2129 C2128 1.367 . S
C2129 C2131 1.433 . S
C2130 C2126 1.350 . S
C2130 C2127 1.463 . S
C2130 N2134 1.427 . S
C2131 H2121 0.929 . S
C2131 C2129 1.433 . S
C2131 N2134 1.384 . S
C2132 H2123 0.929 . S
C2132 C2124 1.378 . S
C2132 C2127 1.350 . S
C2133 H2120 0.929 . S
C2133 C2125 1.433 . S
C2133 N2135 1.384 . S
N2134 C2130 1.427 . S
N2134 C2131 1.384 . S
N2135 C2127 1.427 . S
N2135 C2133 1.384 . S
H2136 C2142 0.930 . S
H2137 C2146 0.930 . S
H2138 C2151 0.929 . S
H2139 C2149 0.929 . S
H2140 C2144 0.929 . S
H2141 C2150 0.929 . S
C2142 H2136 0.930 . S
C2142 C2143 1.367 . S
C2142 C2150 1.378 . S
C2143 C2142 1.367 . S
C2143 C2151 1.433 . S
C2144 H2140 0.929 . S
C2144 C2146 1.378 . S
C2144 C2148 1.350 . S
C2145 C2148 1.463 . S
C2145 C2150 1.350 . S
C2145 N2153 1.427 . S
C2146 H2137 0.930 . S
C2146 C2144 1.378 . S
C2146 C2147 1.367 . S
C2147 C2146 1.367 . S
C2147 C2149 1.433 . S
C2148 C2144 1.350 . S
C2148 C2145 1.463 . S
C2148 N2152 1.427 . S
C2149 H2139 0.929 . S
C2149 C2147 1.433 . S
C2149 N2152 1.384 . S
C2150 H2141 0.929 . S
C2150 C2142 1.378 . S
C2150 C2145 1.350 . S
C2151 H2138 0.929 . S
C2151 C2143 1.433 . S
C2151 N2153 1.384 . S
N2152 C2148 1.427 . S
N2152 C2149 1.384 . S
N2153 C2145 1.427 . S
N2153 C2151 1.384 . S
H2154 C2160 0.930 . S
H2155 C2164 0.930 . S
H2156 C2169 0.929 . S
H2157 C2167 0.929 . S
H2158 C2162 0.929 . S
H2159 C2168 0.929 . S
C2160 H2154 0.930 . S
C2160 C2161 1.367 . S
C2160 C2168 1.378 . S
C2161 C2160 1.367 . S
C2161 C2169 1.433 . S
C2162 H2158 0.929 . S
C2162 C2164 1.378 . S
C2162 C2166 1.350 . S
C2163 C2166 1.463 . S
C2163 C2168 1.350 . S
C2163 N2171 1.427 . S
C2164 H2155 0.930 . S
C2164 C2162 1.378 . S
C2164 C2165 1.367 . S
C2165 C2164 1.367 . S
C2165 C2167 1.433 . S
C2166 C2162 1.350 . S
C2166 C2163 1.463 . S
C2166 N2170 1.427 . S
C2167 H2157 0.929 . S
C2167 C2165 1.433 . S
C2167 N2170 1.384 . S
C2168 H2159 0.929 . S
C2168 C2160 1.378 . S
C2168 C2163 1.350 . S
C2169 H2156 0.929 . S
C2169 C2161 1.433 . S
C2169 N2171 1.384 . S
N2170 C2166 1.427 . S
N2170 C2167 1.384 . S
N2171 C2163 1.427 . S
N2171 C2169 1.384 . S
H2172 C2178 0.930 . S
H2173 C2182 0.930 . S
H2174 C2187 0.929 . S
H2175 C2185 0.929 . S
H2176 C2180 0.929 . S
H2177 C2186 0.929 . S
C2178 H2172 0.930 . S
C2178 C2179 1.367 . S
C2178 C2186 1.378 . S
C2179 C2178 1.367 . S
C2179 C2187 1.433 . S
C2180 H2176 0.929 . S
C2180 C2182 1.378 . S
C2180 C2184 1.350 . S
C2181 C2184 1.463 . S
C2181 C2186 1.350 . S
C2181 N2189 1.427 . S
C2182 H2173 0.930 . S
C2182 C2180 1.378 . S
C2182 C2183 1.367 . S
C2183 C2182 1.367 . S
C2183 C2185 1.433 . S
C2184 C2180 1.350 . S
C2184 C2181 1.463 . S
C2184 N2188 1.427 . S
C2185 H2175 0.929 . S
C2185 C2183 1.433 . S
C2185 N2188 1.384 . S
C2186 H2177 0.929 . S
C2186 C2178 1.378 . S
C2186 C2181 1.350 . S
C2187 H2174 0.929 . S
C2187 C2179 1.433 . S
C2187 N2189 1.384 . S
N2188 C2184 1.427 . S
N2188 C2185 1.384 . S
N2189 C2181 1.427 . S
N2189 C2187 1.384 . S
H2190 C2196 0.930 . S
H2191 C2200 0.930 . S
H2192 C2205 0.929 . S
H2193 C2203 0.929 . S
H2194 C2198 0.929 . S
H2195 C2204 0.929 . S
C2196 H2190 0.930 . S
C2196 C2197 1.367 . S
C2196 C2204 1.378 . S
C2197 C2196 1.367 . S
C2197 C2205 1.433 . S
C2198 H2194 0.929 . S
C2198 C2200 1.378 . S
C2198 C2202 1.350 . S
C2199 C2202 1.463 . S
C2199 C2204 1.350 . S
C2199 N2207 1.427 . S
C2200 H2191 0.930 . S
C2200 C2198 1.378 . S
C2200 C2201 1.367 . S
C2201 C2200 1.367 . S
C2201 C2203 1.433 . S
C2202 C2198 1.350 . S
C2202 C2199 1.463 . S
C2202 N2206 1.427 . S
C2203 H2193 0.929 . S
C2203 C2201 1.433 . S
C2203 N2206 1.384 . S
C2204 H2195 0.929 . S
C2204 C2196 1.378 . S
C2204 C2199 1.350 . S
C2205 H2192 0.929 . S
C2205 C2197 1.433 . S
C2205 N2207 1.384 . S
N2206 C2202 1.427 . S
N2206 C2203 1.384 . S
N2207 C2199 1.427 . S
N2207 C2205 1.384 . S
H2208 C2214 0.930 . S
H2209 C2218 0.930 . S
H2210 C2223 0.929 . S
H2211 C2221 0.929 . S
H2212 C2216 0.929 . S
H2213 C2222 0.929 . S
C2214 H2208 0.930 . S
C2214 C2215 1.367 . S
C2214 C2222 1.378 . S
C2215 C2214 1.367 . S
C2215 C2223 1.433 . S
C2216 H2212 0.929 . S
C2216 C2218 1.378 . S
C2216 C2220 1.350 . S
C2217 C2220 1.463 . S
C2217 C2222 1.350 . S
C2217 N2225 1.427 . S
C2218 H2209 0.930 . S
C2218 C2216 1.378 . S
C2218 C2219 1.367 . S
C2219 C2218 1.367 . S
C2219 C2221 1.433 . S
C2220 C2216 1.350 . S
C2220 C2217 1.463 . S
C2220 N2224 1.427 . S
C2221 H2211 0.929 . S
C2221 C2219 1.433 . S
C2221 N2224 1.384 . S
C2222 H2213 0.929 . S
C2222 C2214 1.378 . S
C2222 C2217 1.350 . S
C2223 H2210 0.929 . S
C2223 C2215 1.433 . S
C2223 N2225 1.384 . S
N2224 C2220 1.427 . S
N2224 C2221 1.384 . S
N2225 C2217 1.427 . S
N2225 C2223 1.384 . S
H2226 C2232 0.930 . S
H2227 C2236 0.930 1_545 S
H2228 C2241 0.929 . S
H2229 C2239 0.929 . S
H2230 C2234 0.929 . S
H2231 C2240 0.929 . S
C2232 H2226 0.930 . S
C2232 C2233 1.367 . S
C2232 C2240 1.378 . S
C2233 C2232 1.367 . S
C2233 C2241 1.433 . S
C2234 H2230 0.929 . S
C2234 C2236 1.378 . S
C2234 C2238 1.350 . S
C2235 C2238 1.463 . S
C2235 C2240 1.350 . S
C2235 N2243 1.427 . S
C2236 H2227 0.930 1_565 S
C2236 C2234 1.378 . S
C2236 C2237 1.367 . S
C2237 C2236 1.367 . S
C2237 C2239 1.433 . S
C2238 C2234 1.350 . S
C2238 C2235 1.463 . S
C2238 N2242 1.427 . S
C2239 H2229 0.929 . S
C2239 C2237 1.433 . S
C2239 N2242 1.384 . S
C2240 H2231 0.929 . S
C2240 C2232 1.378 . S
C2240 C2235 1.350 . S
C2241 H2228 0.929 . S
C2241 C2233 1.433 . S
C2241 N2243 1.384 . S
N2242 C2238 1.427 . S
N2242 C2239 1.384 . S
N2243 C2235 1.427 . S
N2243 C2241 1.384 . S
H2244 C2250 0.930 . S
H2245 C2254 0.930 . S
H2246 C2259 0.929 . S
H2247 C2257 0.929 . S
H2248 C2252 0.929 . S
H2249 C2258 0.929 . S
C2250 H2244 0.930 . S
C2250 C2251 1.367 . S
C2250 C2258 1.378 . S
C2251 C2250 1.367 . S
C2251 C2259 1.433 . S
C2252 H2248 0.929 . S
C2252 C2254 1.378 . S
C2252 C2256 1.350 . S
C2253 C2256 1.463 . S
C2253 C2258 1.350 . S
C2253 N2261 1.427 . S
C2254 H2245 0.930 . S
C2254 C2252 1.378 . S
C2254 C2255 1.367 . S
C2255 C2254 1.367 . S
C2255 C2257 1.433 . S
C2256 C2252 1.350 . S
C2256 C2253 1.463 . S
C2256 N2260 1.427 . S
C2257 H2247 0.929 . S
C2257 C2255 1.433 . S
C2257 N2260 1.384 . S
C2258 H2249 0.929 . S
C2258 C2250 1.378 . S
C2258 C2253 1.350 . S
C2259 H2246 0.929 . S
C2259 C2251 1.433 . S
C2259 N2261 1.384 . S
N2260 C2256 1.427 . S
N2260 C2257 1.384 . S
N2261 C2253 1.427 . S
N2261 C2259 1.384 . S
H2262 C2268 0.930 . S
H2263 C2272 0.930 . S
H2264 C2277 0.929 . S
H2265 C2275 0.929 . S
H2266 C2270 0.929 . S
H2267 C2276 0.929 . S
C2268 H2262 0.930 . S
C2268 C2269 1.367 . S
C2268 C2276 1.378 . S
C2269 C2268 1.367 . S
C2269 C2277 1.433 . S
C2270 H2266 0.929 . S
C2270 C2272 1.378 . S
C2270 C2274 1.350 . S
C2271 C2274 1.463 . S
C2271 C2276 1.350 . S
C2271 N2279 1.427 . S
C2272 H2263 0.930 . S
C2272 C2270 1.378 . S
C2272 C2273 1.367 . S
C2273 C2272 1.367 . S
C2273 C2275 1.433 . S
C2274 C2270 1.350 . S
C2274 C2271 1.463 . S
C2274 N2278 1.427 . S
C2275 H2265 0.929 . S
C2275 C2273 1.433 . S
C2275 N2278 1.384 . S
C2276 H2267 0.929 . S
C2276 C2268 1.378 . S
C2276 C2271 1.350 . S
C2277 H2264 0.929 . S
C2277 C2269 1.433 . S
C2277 N2279 1.384 . S
N2278 C2274 1.427 . S
N2278 C2275 1.384 . S
N2279 C2271 1.427 . S
N2279 C2277 1.384 . S
H2280 C2286 0.930 . S
H2281 C2290 0.930 . S
H2282 C2295 0.929 . S
H2283 C2293 0.929 . S
H2284 C2288 0.929 . S
H2285 C2294 0.929 . S
C2286 H2280 0.930 . S
C2286 C2287 1.367 . S
C2286 C2294 1.378 . S
C2287 C2286 1.367 . S
C2287 C2295 1.433 . S
C2288 H2284 0.929 . S
C2288 C2290 1.378 . S
C2288 C2292 1.350 . S
C2289 C2292 1.463 . S
C2289 C2294 1.350 . S
C2289 N2297 1.427 . S
C2290 H2281 0.930 . S
C2290 C2288 1.378 . S
C2290 C2291 1.367 . S
C2291 C2290 1.367 . S
C2291 C2293 1.433 . S
C2292 C2288 1.350 . S
C2292 C2289 1.463 . S
C2292 N2296 1.427 . S
C2293 H2283 0.929 . S
C2293 C2291 1.433 . S
C2293 N2296 1.384 . S
C2294 H2285 0.929 . S
C2294 C2286 1.378 . S
C2294 C2289 1.350 . S
C2295 H2282 0.929 . S
C2295 C2287 1.433 . S
C2295 N2297 1.384 . S
N2296 C2292 1.427 . S
N2296 C2293 1.384 . S
N2297 C2289 1.427 . S
N2297 C2295 1.384 . S
H2298 C2304 0.930 . S
H2299 C2308 0.930 . S
H2300 C2313 0.929 . S
H2301 C2311 0.929 . S
H2302 C2306 0.929 . S
H2303 C2312 0.929 . S
C2304 H2298 0.930 . S
C2304 C2305 1.367 . S
C2304 C2312 1.378 . S
C2305 C2304 1.367 . S
C2305 C2313 1.433 . S
C2306 H2302 0.929 . S
C2306 C2308 1.378 . S
C2306 C2310 1.350 . S
C2307 C2310 1.463 . S
C2307 C2312 1.350 . S
C2307 N2315 1.427 . S
C2308 H2299 0.930 . S
C2308 C2306 1.378 . S
C2308 C2309 1.367 . S
C2309 C2308 1.367 . S
C2309 C2311 1.433 . S
C2310 C2306 1.350 . S
C2310 C2307 1.463 . S
C2310 N2314 1.427 . S
C2311 H2301 0.929 . S
C2311 C2309 1.433 . S
C2311 N2314 1.384 . S
C2312 H2303 0.929 . S
C2312 C2304 1.378 . S
C2312 C2307 1.350 . S
C2313 H2300 0.929 . S
C2313 C2305 1.433 . S
C2313 N2315 1.384 . S
N2314 C2310 1.427 . S
N2314 C2311 1.384 . S
N2315 C2307 1.427 . S
N2315 C2313 1.384 . S
H2316 C2322 0.930 . S
H2317 C2326 0.930 . S
H2318 C2331 0.929 . S
H2319 C2329 0.929 . S
H2320 C2324 0.929 . S
H2321 C2330 0.929 . S
C2322 H2316 0.930 . S
C2322 C2323 1.367 . S
C2322 C2330 1.378 . S
C2323 C2322 1.367 . S
C2323 C2331 1.433 . S
C2324 H2320 0.929 . S
C2324 C2326 1.378 . S
C2324 C2328 1.350 . S
C2325 C2328 1.463 . S
C2325 C2330 1.350 . S
C2325 N2333 1.427 . S
C2326 H2317 0.930 . S
C2326 C2324 1.378 . S
C2326 C2327 1.367 . S
C2327 C2326 1.367 . S
C2327 C2329 1.433 . S
C2328 C2324 1.350 . S
C2328 C2325 1.463 . S
C2328 N2332 1.427 . S
C2329 H2319 0.929 . S
C2329 C2327 1.433 . S
C2329 N2332 1.384 . S
C2330 H2321 0.929 . S
C2330 C2322 1.378 . S
C2330 C2325 1.350 . S
C2331 H2318 0.929 . S
C2331 C2323 1.433 . S
C2331 N2333 1.384 . S
N2332 C2328 1.427 . S
N2332 C2329 1.384 . S
N2333 C2325 1.427 . S
N2333 C2331 1.384 . S
H2334 C2340 0.930 . S
H2335 C2344 0.930 . S
H2336 C2349 0.929 . S
H2337 C2347 0.929 . S
H2338 C2342 0.929 . S
H2339 C2348 0.929 . S
C2340 H2334 0.930 . S
C2340 C2341 1.367 . S
C2340 C2348 1.378 . S
C2341 C2340 1.367 . S
C2341 C2349 1.433 . S
C2342 H2338 0.929 . S
C2342 C2344 1.378 . S
C2342 C2346 1.350 . S
C2343 C2346 1.463 . S
C2343 C2348 1.350 . S
C2343 N2351 1.427 . S
C2344 H2335 0.930 . S
C2344 C2342 1.378 . S
C2344 C2345 1.367 . S
C2345 C2344 1.367 . S
C2345 C2347 1.433 . S
C2346 C2342 1.350 . S
C2346 C2343 1.463 . S
C2346 N2350 1.427 . S
C2347 H2337 0.929 . S
C2347 C2345 1.433 . S
C2347 N2350 1.384 . S
C2348 H2339 0.929 . S
C2348 C2340 1.378 . S
C2348 C2343 1.350 . S
C2349 H2336 0.929 . S
C2349 C2341 1.433 . S
C2349 N2351 1.384 . S
N2350 C2346 1.427 . S
N2350 C2347 1.384 . S
N2351 C2343 1.427 . S
N2351 C2349 1.384 . S
H2352 C2358 0.930 . S
H2353 C2362 0.930 . S
H2354 C2367 0.929 . S
H2355 C2365 0.929 . S
H2356 C2360 0.929 . S
H2357 C2366 0.929 . S
C2358 H2352 0.930 . S
C2358 C2359 1.367 . S
C2358 C2366 1.378 . S
C2359 C2358 1.367 . S
C2359 C2367 1.433 . S
C2360 H2356 0.929 . S
C2360 C2362 1.378 . S
C2360 C2364 1.350 . S
C2361 C2364 1.463 . S
C2361 C2366 1.350 . S
C2361 N2369 1.427 . S
C2362 H2353 0.930 . S
C2362 C2360 1.378 . S
C2362 C2363 1.367 . S
C2363 C2362 1.367 . S
C2363 C2365 1.433 . S
C2364 C2360 1.350 . S
C2364 C2361 1.463 . S
C2364 N2368 1.427 . S
C2365 H2355 0.929 . S
C2365 C2363 1.433 . S
C2365 N2368 1.384 . S
C2366 H2357 0.929 . S
C2366 C2358 1.378 . S
C2366 C2361 1.350 . S
C2367 H2354 0.929 . S
C2367 C2359 1.433 . S
C2367 N2369 1.384 . S
N2368 C2364 1.427 . S
N2368 C2365 1.384 . S
N2369 C2361 1.427 . S
N2369 C2367 1.384 . S
H2370 C2376 0.930 . S
H2371 C2380 0.930 . S
H2372 C2385 0.929 . S
H2373 C2383 0.929 . S
H2374 C2378 0.929 . S
H2375 C2384 0.929 . S
C2376 H2370 0.930 . S
C2376 C2377 1.367 . S
C2376 C2384 1.378 . S
C2377 C2376 1.367 . S
C2377 C2385 1.433 . S
C2378 H2374 0.929 . S
C2378 C2380 1.378 . S
C2378 C2382 1.350 . S
C2379 C2382 1.463 . S
C2379 C2384 1.350 . S
C2379 N2387 1.427 . S
C2380 H2371 0.930 . S
C2380 C2378 1.378 . S
C2380 C2381 1.367 . S
C2381 C2380 1.367 . S
C2381 C2383 1.433 . S
C2382 C2378 1.350 . S
C2382 C2379 1.463 . S
C2382 N2386 1.427 . S
C2383 H2373 0.929 . S
C2383 C2381 1.433 . S
C2383 N2386 1.384 . S
C2384 H2375 0.929 . S
C2384 C2376 1.378 . S
C2384 C2379 1.350 . S
C2385 H2372 0.929 . S
C2385 C2377 1.433 . S
C2385 N2387 1.384 . S
N2386 C2382 1.427 . S
N2386 C2383 1.384 . S
N2387 C2379 1.427 . S
N2387 C2385 1.384 . S
H2388 C2394 0.930 . S
H2389 C2398 0.930 . S
H2390 C2403 0.929 . S
H2391 C2401 0.929 . S
H2392 C2396 0.929 . S
H2393 C2402 0.929 . S
C2394 H2388 0.930 . S
C2394 C2395 1.367 . S
C2394 C2402 1.378 . S
C2395 C2394 1.367 . S
C2395 C2403 1.433 . S
C2396 H2392 0.929 . S
C2396 C2398 1.378 . S
C2396 C2400 1.350 . S
C2397 C2400 1.463 . S
C2397 C2402 1.350 . S
C2397 N2405 1.427 . S
C2398 H2389 0.930 . S
C2398 C2396 1.378 . S
C2398 C2399 1.367 . S
C2399 C2398 1.367 . S
C2399 C2401 1.433 . S
C2400 C2396 1.350 . S
C2400 C2397 1.463 . S
C2400 N2404 1.427 . S
C2401 H2391 0.929 . S
C2401 C2399 1.433 . S
C2401 N2404 1.384 . S
C2402 H2393 0.929 . S
C2402 C2394 1.378 . S
C2402 C2397 1.350 . S
C2403 H2390 0.929 . S
C2403 C2395 1.433 . S
C2403 N2405 1.384 . S
N2404 C2400 1.427 . S
N2404 C2401 1.384 . S
N2405 C2397 1.427 . S
N2405 C2403 1.384 . S
H2406 C2412 0.930 . S
H2407 C2416 0.930 . S
H2408 C2421 0.929 . S
H2409 C2419 0.929 . S
H2410 C2414 0.929 . S
H2411 C2420 0.929 . S
C2412 H2406 0.930 . S
C2412 C2413 1.367 . S
C2412 C2420 1.378 . S
C2413 C2412 1.367 . S
C2413 C2421 1.433 . S
C2414 H2410 0.929 . S
C2414 C2416 1.378 . S
C2414 C2418 1.350 . S
C2415 C2418 1.463 . S
C2415 C2420 1.350 . S
C2415 N2423 1.427 . S
C2416 H2407 0.930 . S
C2416 C2414 1.378 . S
C2416 C2417 1.367 . S
C2417 C2416 1.367 . S
C2417 C2419 1.433 . S
C2418 C2414 1.350 . S
C2418 C2415 1.463 . S
C2418 N2422 1.427 . S
C2419 H2409 0.929 . S
C2419 C2417 1.433 . S
C2419 N2422 1.384 . S
C2420 H2411 0.929 . S
C2420 C2412 1.378 . S
C2420 C2415 1.350 . S
C2421 H2408 0.929 . S
C2421 C2413 1.433 . S
C2421 N2423 1.384 . S
N2422 C2418 1.427 . S
N2422 C2419 1.384 . S
N2423 C2415 1.427 . S
N2423 C2421 1.384 . S
H2424 C2430 0.930 . S
H2425 C2434 0.930 . S
H2426 C2439 0.929 . S
H2427 C2437 0.929 . S
H2428 C2432 0.929 . S
H2429 C2438 0.929 . S
C2430 H2424 0.930 . S
C2430 C2431 1.367 . S
C2430 C2438 1.378 . S
C2431 C2430 1.367 . S
C2431 C2439 1.433 . S
C2432 H2428 0.929 . S
C2432 C2434 1.378 . S
C2432 C2436 1.350 . S
C2433 C2436 1.463 . S
C2433 C2438 1.350 . S
C2433 N2441 1.427 . S
C2434 H2425 0.930 . S
C2434 C2432 1.378 . S
C2434 C2435 1.367 . S
C2435 C2434 1.367 . S
C2435 C2437 1.433 . S
C2436 C2432 1.350 . S
C2436 C2433 1.463 . S
C2436 N2440 1.427 . S
C2437 H2427 0.929 . S
C2437 C2435 1.433 . S
C2437 N2440 1.384 . S
C2438 H2429 0.929 . S
C2438 C2430 1.378 . S
C2438 C2433 1.350 . S
C2439 H2426 0.929 . S
C2439 C2431 1.433 . S
C2439 N2441 1.384 . S
N2440 C2436 1.427 . S
N2440 C2437 1.384 . S
N2441 C2433 1.427 . S
N2441 C2439 1.384 . S
H2442 C2448 0.930 . S
H2443 C2452 0.930 . S
H2444 C2457 0.929 . S
H2445 C2455 0.929 . S
H2446 C2450 0.929 . S
H2447 C2456 0.929 . S
C2448 H2442 0.930 . S
C2448 C2449 1.367 . S
C2448 C2456 1.378 . S
C2449 C2448 1.367 . S
C2449 C2457 1.433 . S
C2450 H2446 0.929 . S
C2450 C2452 1.378 . S
C2450 C2454 1.350 . S
C2451 C2454 1.463 . S
C2451 C2456 1.350 . S
C2451 N2459 1.427 . S
C2452 H2443 0.930 . S
C2452 C2450 1.378 . S
C2452 C2453 1.367 . S
C2453 C2452 1.367 . S
C2453 C2455 1.433 . S
C2454 C2450 1.350 . S
C2454 C2451 1.463 . S
C2454 N2458 1.427 . S
C2455 H2445 0.929 . S
C2455 C2453 1.433 . S
C2455 N2458 1.384 . S
C2456 H2447 0.929 . S
C2456 C2448 1.378 . S
C2456 C2451 1.350 . S
C2457 H2444 0.929 . S
C2457 C2449 1.433 . S
C2457 N2459 1.384 . S
N2458 C2454 1.427 . S
N2458 C2455 1.384 . S
N2459 C2451 1.427 . S
N2459 C2457 1.384 . S
H2460 C2466 0.930 . S
H2461 C2470 0.930 . S
H2462 C2475 0.929 . S
H2463 C2473 0.929 . S
H2464 C2468 0.929 . S
H2465 C2474 0.929 . S
C2466 H2460 0.930 . S
C2466 C2467 1.367 . S
C2466 C2474 1.378 . S
C2467 C2466 1.367 . S
C2467 C2475 1.433 . S
C2468 H2464 0.929 . S
C2468 C2470 1.378 . S
C2468 C2472 1.350 . S
C2469 C2472 1.463 . S
C2469 C2474 1.350 . S
C2469 N2477 1.427 . S
C2470 H2461 0.930 . S
C2470 C2468 1.378 . S
C2470 C2471 1.367 . S
C2471 C2470 1.367 . S
C2471 C2473 1.433 . S
C2472 C2468 1.350 . S
C2472 C2469 1.463 . S
C2472 N2476 1.427 . S
C2473 H2463 0.929 . S
C2473 C2471 1.433 . S
C2473 N2476 1.384 . S
C2474 H2465 0.929 . S
C2474 C2466 1.378 . S
C2474 C2469 1.350 . S
C2475 H2462 0.929 . S
C2475 C2467 1.433 . S
C2475 N2477 1.384 . S
N2476 C2472 1.427 . S
N2476 C2473 1.384 . S
N2477 C2469 1.427 . S
N2477 C2475 1.384 . S
H2478 C2484 0.930 . S
H2479 C2488 0.930 . S
H2480 C2493 0.929 . S
H2481 C2491 0.929 . S
H2482 C2486 0.929 . S
H2483 C2492 0.929 . S
C2484 H2478 0.930 . S
C2484 C2485 1.367 . S
C2484 C2492 1.378 . S
C2485 C2484 1.367 . S
C2485 C2493 1.433 . S
C2486 H2482 0.929 . S
C2486 C2488 1.378 . S
C2486 C2490 1.350 . S
C2487 C2490 1.463 . S
C2487 C2492 1.350 . S
C2487 N2495 1.427 . S
C2488 H2479 0.930 . S
C2488 C2486 1.378 . S
C2488 C2489 1.367 . S
C2489 C2488 1.367 . S
C2489 C2491 1.433 . S
C2490 C2486 1.350 . S
C2490 C2487 1.463 . S
C2490 N2494 1.427 . S
C2491 H2481 0.929 . S
C2491 C2489 1.433 . S
C2491 N2494 1.384 . S
C2492 H2483 0.929 . S
C2492 C2484 1.378 . S
C2492 C2487 1.350 . S
C2493 H2480 0.929 . S
C2493 C2485 1.433 . S
C2493 N2495 1.384 . S
N2494 C2490 1.427 . S
N2494 C2491 1.384 . S
N2495 C2487 1.427 . S
N2495 C2493 1.384 . S
H2496 C2502 0.930 . S
H2497 C2506 0.930 . S
H2498 C2511 0.929 . S
H2499 C2509 0.929 . S
H2500 C2504 0.929 . S
H2501 C2510 0.929 . S
C2502 H2496 0.930 . S
C2502 C2503 1.367 . S
C2502 C2510 1.378 . S
C2503 C2502 1.367 . S
C2503 C2511 1.433 . S
C2504 H2500 0.929 . S
C2504 C2506 1.378 . S
C2504 C2508 1.350 . S
C2505 C2508 1.463 . S
C2505 C2510 1.350 . S
C2505 N2513 1.427 . S
C2506 H2497 0.930 . S
C2506 C2504 1.378 . S
C2506 C2507 1.367 . S
C2507 C2506 1.367 . S
C2507 C2509 1.433 . S
C2508 C2504 1.350 . S
C2508 C2505 1.463 . S
C2508 N2512 1.427 . S
C2509 H2499 0.929 . S
C2509 C2507 1.433 . S
C2509 N2512 1.384 . S
C2510 H2501 0.929 . S
C2510 C2502 1.378 . S
C2510 C2505 1.350 . S
C2511 H2498 0.929 . S
C2511 C2503 1.433 . S
C2511 N2513 1.384 . S
N2512 C2508 1.427 . S
N2512 C2509 1.384 . S
N2513 C2505 1.427 . S
N2513 C2511 1.384 . S
H2514 C2520 0.930 . S
H2515 C2524 0.930 . S
H2516 C2529 0.929 . S
H2517 C2527 0.929 . S
H2518 C2522 0.929 . S
H2519 C2528 0.929 . S
C2520 H2514 0.930 . S
C2520 C2521 1.367 . S
C2520 C2528 1.378 . S
C2521 C2520 1.367 . S
C2521 C2529 1.433 . S
C2522 H2518 0.929 . S
C2522 C2524 1.378 . S
C2522 C2526 1.350 . S
C2523 C2526 1.463 1_556 S
C2523 C2528 1.350 . S
C2523 N2531 1.419 1_556 S
C2524 H2515 0.930 . S
C2524 C2522 1.378 . S
C2524 C2525 1.367 . S
C2525 C2524 1.367 . S
C2525 C2527 1.433 . S
C2526 C2522 1.350 . S
C2526 C2523 1.463 1_554 S
C2526 N2530 1.427 . S
C2527 H2517 0.929 . S
C2527 C2525 1.433 . S
C2527 N2530 1.384 . S
C2528 H2519 0.929 . S
C2528 C2520 1.378 . S
C2528 C2523 1.350 . S
C2529 H2516 0.929 . S
C2529 C2521 1.433 . S
C2529 N2531 1.349 1_556 S
N2530 C2526 1.427 . S
N2530 C2527 1.384 . S
N2531 C2523 1.419 1_554 S
N2531 C2529 1.349 1_554 S
H2532 C2538 0.930 . S
H2533 C2542 0.930 . S
H2534 C2547 0.929 . S
H2535 C2545 0.929 . S
H2536 C2540 0.929 . S
H2537 C2546 0.929 . S
C2538 H2532 0.930 . S
C2538 C2539 1.367 . S
C2538 C2546 1.378 . S
C2539 C2538 1.367 . S
C2539 C2547 1.433 . S
C2540 H2536 0.929 . S
C2540 C2542 1.378 . S
C2540 C2544 1.350 . S
C2541 C2544 1.463 . S
C2541 C2546 1.350 . S
C2541 N2549 1.427 . S
C2542 H2533 0.930 . S
C2542 C2540 1.378 . S
C2542 C2543 1.367 . S
C2543 C2542 1.367 . S
C2543 C2545 1.433 . S
C2544 C2540 1.350 . S
C2544 C2541 1.463 . S
C2544 N2548 1.427 . S
C2545 H2535 0.929 . S
C2545 C2543 1.433 . S
C2545 N2548 1.384 . S
C2546 H2537 0.929 . S
C2546 C2538 1.378 . S
C2546 C2541 1.350 . S
C2547 H2534 0.929 . S
C2547 C2539 1.433 . S
C2547 N2549 1.384 . S
N2548 C2544 1.427 . S
N2548 C2545 1.384 . S
N2549 C2541 1.427 . S
N2549 C2547 1.384 . S
H2550 C2556 0.930 . S
H2551 C2560 0.930 . S
H2552 C2565 0.929 . S
H2553 C2563 0.929 . S
H2554 C2558 0.929 1_556 S
H2555 C2564 0.954 . S
C2556 H2550 0.930 . S
C2556 C2557 1.367 . S
C2556 C2564 1.357 1_556 S
C2557 C2556 1.367 . S
C2557 C2565 1.433 . S
C2558 H2554 0.929 1_554 S
C2558 C2560 1.378 . S
C2558 C2562 1.350 . S
C2559 C2562 1.463 1_556 S
C2559 C2564 1.346 1_556 S
C2559 N2567 1.427 . S
C2560 H2551 0.930 . S
C2560 C2558 1.378 . S
C2560 C2561 1.367 . S
C2561 C2560 1.367 . S
C2561 C2563 1.433 . S
C2562 C2558 1.350 . S
C2562 C2559 1.463 1_554 S
C2562 N2566 1.427 . S
C2563 H2553 0.929 . S
C2563 C2561 1.433 . S
C2563 N2566 1.384 . S
C2564 H2555 0.954 . S
C2564 C2556 1.357 1_554 S
C2564 C2559 1.346 1_554 S
C2565 H2552 0.929 . S
C2565 C2557 1.433 . S
C2565 N2567 1.384 . S
N2566 C2562 1.427 . S
N2566 C2563 1.384 . S
N2567 C2559 1.427 . S
N2567 C2565 1.384 . S
H2568 C2574 0.930 . S
H2569 C2578 0.930 . S
H2570 C2583 0.929 . S
H2571 C2581 0.929 . S
H2572 C2576 0.929 . S
H2573 C2582 0.929 . S
C2574 H2568 0.930 . S
C2574 C2575 1.367 . S
C2574 C2582 1.378 . S
C2575 C2574 1.367 . S
C2575 C2583 1.433 . S
C2576 H2572 0.929 . S
C2576 C2578 1.378 . S
C2576 C2580 1.350 . S
C2577 C2580 1.463 . S
C2577 C2582 1.350 . S
C2577 N2585 1.427 . S
C2578 H2569 0.930 . S
C2578 C2576 1.378 . S
C2578 C2579 1.367 . S
C2579 C2578 1.367 . S
C2579 C2581 1.433 . S
C2580 C2576 1.350 . S
C2580 C2577 1.463 . S
C2580 N2584 1.427 . S
C2581 H2571 0.929 . S
C2581 C2579 1.433 . S
C2581 N2584 1.384 . S
C2582 H2573 0.929 . S
C2582 C2574 1.378 . S
C2582 C2577 1.350 . S
C2583 H2570 0.929 . S
C2583 C2575 1.433 . S
C2583 N2585 1.384 . S
N2584 C2580 1.427 . S
N2584 C2581 1.384 . S
N2585 C2577 1.427 . S
N2585 C2583 1.384 . S
H2586 C2592 0.930 . S
H2587 C2596 0.930 . S
H2588 C2601 0.929 . S
H2589 C2599 0.929 . S
H2590 C2594 0.929 . S
H2591 C2600 0.929 1_554 S
C2592 H2586 0.930 . S
C2592 C2593 1.367 . S
C2592 C2600 1.378 . S
C2593 C2592 1.367 . S
C2593 C2601 1.433 . S
C2594 H2590 0.929 . S
C2594 C2596 1.378 1_556 S
C2594 C2598 1.350 1_556 S
C2595 C2598 1.463 1_556 S
C2595 C2600 1.350 1_455 S
C2595 N2603 1.427 . S
C2596 H2587 0.930 . S
C2596 C2594 1.378 1_554 S
C2596 C2597 1.367 . S
C2597 C2596 1.367 . S
C2597 C2599 1.433 . S
C2598 C2594 1.350 1_554 S
C2598 C2595 1.463 1_554 S
C2598 N2602 1.427 . S
C2599 H2589 0.929 . S
C2599 C2597 1.433 . S
C2599 N2602 1.384 . S
C2600 H2591 0.929 1_556 S
C2600 C2592 1.378 . S
C2600 C2595 1.350 1_655 S
C2601 H2588 0.929 . S
C2601 C2593 1.433 . S
C2601 N2603 1.384 1_655 S
N2602 C2598 1.427 . S
N2602 C2599 1.384 . S
N2603 C2595 1.427 . S
N2603 C2601 1.384 1_455 S
H2604 C2610 0.930 . S
H2605 C2614 0.930 . S
H2606 C2619 0.929 . S
H2607 C2617 0.929 . S
H2608 C2612 0.929 . S
H2609 C2618 0.929 . S
C2610 H2604 0.930 . S
C2610 C2611 1.367 . S
C2610 C2618 1.378 . S
C2611 C2610 1.367 . S
C2611 C2619 1.433 . S
C2612 H2608 0.929 . S
C2612 C2614 1.378 . S
C2612 C2616 1.350 . S
C2613 C2616 1.463 . S
C2613 C2618 1.350 . S
C2613 N2621 1.427 . S
C2614 H2605 0.930 . S
C2614 C2612 1.378 . S
C2614 C2615 1.367 . S
C2615 C2614 1.367 . S
C2615 C2617 1.433 . S
C2616 C2612 1.350 . S
C2616 C2613 1.463 . S
C2616 N2620 1.427 . S
C2617 H2607 0.929 . S
C2617 C2615 1.433 . S
C2617 N2620 1.384 . S
C2618 H2609 0.929 . S
C2618 C2610 1.378 . S
C2618 C2613 1.350 . S
C2619 H2606 0.929 . S
C2619 C2611 1.433 . S
C2619 N2621 1.384 . S
N2620 C2616 1.427 . S
N2620 C2617 1.384 . S
N2621 C2613 1.427 . S
N2621 C2619 1.384 . S
H2622 C2628 0.930 . S
H2623 C2632 0.930 . S
H2624 C2637 0.929 . S
H2625 C2635 0.929 . S
H2626 C2630 0.929 1_556 S
H2627 C2636 0.929 . S
C2628 H2622 0.930 . S
C2628 C2629 1.367 . S
C2628 C2636 1.378 . S
C2629 C2628 1.367 . S
C2629 C2637 1.433 . S
C2630 H2626 0.929 1_554 S
C2630 C2632 1.378 . S
C2630 C2634 1.350 . S
C2631 C2634 1.463 1_556 S
C2631 C2636 1.350 1_655 S
C2631 N2639 1.428 1_655 S
C2632 H2623 0.930 . S
C2632 C2630 1.378 . S
C2632 C2633 1.367 . S
C2633 C2632 1.367 . S
C2633 C2635 1.433 . S
C2634 C2630 1.350 . S
C2634 C2631 1.463 1_554 S
C2634 N2638 1.427 . S
C2635 H2625 0.929 . S
C2635 C2633 1.433 . S
C2635 N2638 1.384 . S
C2636 H2627 0.929 . S
C2636 C2628 1.378 . S
C2636 C2631 1.350 1_455 S
C2637 H2624 0.929 . S
C2637 C2629 1.433 . S
C2637 N2639 1.382 . S
N2638 C2634 1.427 . S
N2638 C2635 1.384 . S
N2639 C2631 1.428 1_455 S
N2639 C2637 1.382 . S
H2640 C2646 0.930 . S
H2641 C2650 0.930 . S
H2642 C2655 0.929 . S
H2643 C2653 0.929 . S
H2644 C2648 0.929 . S
H2645 C2654 0.929 . S
C2646 H2640 0.930 . S
C2646 C2647 1.367 . S
C2646 C2654 1.378 . S
C2647 C2646 1.367 . S
C2647 C2655 1.433 . S
C2648 H2644 0.929 . S
C2648 C2650 1.378 . S
C2648 C2652 1.350 . S
C2649 C2652 1.463 . S
C2649 C2654 1.350 . S
C2649 N2657 1.427 . S
C2650 H2641 0.930 . S
C2650 C2648 1.378 . S
C2650 C2651 1.367 . S
C2651 C2650 1.367 . S
C2651 C2653 1.433 . S
C2652 C2648 1.350 . S
C2652 C2649 1.463 . S
C2652 N2656 1.427 . S
C2653 H2643 0.929 . S
C2653 C2651 1.433 . S
C2653 N2656 1.384 . S
C2654 H2645 0.929 . S
C2654 C2646 1.378 . S
C2654 C2649 1.350 . S
C2655 H2642 0.929 . S
C2655 C2647 1.433 . S
C2655 N2657 1.384 . S
N2656 C2652 1.427 . S
N2656 C2653 1.384 . S
N2657 C2649 1.427 . S
N2657 C2655 1.384 . S
H2658 C2664 0.930 . S
H2659 C2668 0.930 . S
H2660 C2673 0.929 . S
H2661 C2671 0.929 . S
H2662 C2666 0.929 . S
H2663 C2672 0.929 . S
C2664 H2658 0.930 . S
C2664 C2665 1.367 . S
C2664 C2672 1.378 . S
C2665 C2664 1.367 . S
C2665 C2673 1.433 . S
C2666 H2662 0.929 . S
C2666 C2668 1.378 . S
C2666 C2670 1.350 . S
C2667 C2670 1.463 . S
C2667 C2672 1.350 1_554 S
C2667 N2675 1.427 . S
C2668 H2659 0.930 . S
C2668 C2666 1.378 . S
C2668 C2669 1.367 . S
C2669 C2668 1.367 . S
C2669 C2671 1.433 . S
C2670 C2666 1.350 . S
C2670 C2667 1.463 . S
C2670 N2674 1.427 . S
C2671 H2661 0.929 . S
C2671 C2669 1.433 . S
C2671 N2674 1.384 . S
C2672 H2663 0.929 . S
C2672 C2664 1.378 . S
C2672 C2667 1.350 1_556 S
C2673 H2660 0.929 . S
C2673 C2665 1.433 . S
C2673 N2675 1.384 1_556 S
N2674 C2670 1.427 . S
N2674 C2671 1.384 . S
N2675 C2667 1.427 . S
N2675 C2673 1.384 1_554 S
H2676 C2682 0.930 . S
H2677 C2686 0.930 . S
H2678 C2691 0.929 . S
H2679 C2689 0.929 . S
H2680 C2684 0.929 . S
H2681 C2690 0.929 . S
C2682 H2676 0.930 . S
C2682 C2683 1.367 . S
C2682 C2690 1.378 . S
C2683 C2682 1.367 . S
C2683 C2691 1.433 . S
C2684 H2680 0.929 . S
C2684 C2686 1.378 . S
C2684 C2688 1.350 . S
C2685 C2688 1.463 . S
C2685 C2690 1.350 . S
C2685 N2693 1.427 . S
C2686 H2677 0.930 . S
C2686 C2684 1.378 . S
C2686 C2687 1.367 . S
C2687 C2686 1.367 . S
C2687 C2689 1.433 . S
C2688 C2684 1.350 . S
C2688 C2685 1.463 . S
C2688 N2692 1.427 . S
C2689 H2679 0.929 . S
C2689 C2687 1.433 . S
C2689 N2692 1.384 . S
C2690 H2681 0.929 . S
C2690 C2682 1.378 . S
C2690 C2685 1.350 . S
C2691 H2678 0.929 . S
C2691 C2683 1.433 . S
C2691 N2693 1.384 . S
N2692 C2688 1.427 . S
N2692 C2689 1.384 . S
N2693 C2685 1.427 . S
N2693 C2691 1.384 . S
H2694 C2700 0.930 . S
H2695 C2704 0.930 . S
H2696 C2709 0.929 . S
H2697 C2707 0.929 . S
H2698 C2702 0.929 1_545 S
H2699 C2708 0.929 . S
C2700 H2694 0.930 . S
C2700 C2701 1.367 . S
C2700 C2708 1.378 1_545 S
C2701 C2700 1.367 . S
C2701 C2709 1.433 . S
C2702 H2698 0.929 1_565 S
C2702 C2704 1.378 . S
C2702 C2706 1.350 1_556 S
C2703 C2706 1.463 1_545 S
C2703 C2708 1.350 1_545 S
C2703 N2711 1.427 . S
C2704 H2695 0.930 . S
C2704 C2702 1.378 . S
C2704 C2705 1.367 . S
C2705 C2704 1.367 . S
C2705 C2707 1.433 . S
C2706 C2702 1.350 1_554 S
C2706 C2703 1.463 1_565 S
C2706 N2710 1.427 . S
C2707 H2697 0.929 . S
C2707 C2705 1.433 . S
C2707 N2710 1.384 1_556 S
C2708 H2699 0.929 . S
C2708 C2700 1.378 1_565 S
C2708 C2703 1.350 1_565 S
C2709 H2696 0.929 . S
C2709 C2701 1.433 . S
C2709 N2711 1.384 . S
N2710 C2706 1.427 . S
N2710 C2707 1.384 1_554 S
N2711 C2703 1.427 . S
N2711 C2709 1.384 . S
H2712 C2718 0.930 . S
H2713 C2722 0.930 . S
H2714 C2727 0.929 . S
H2715 C2725 0.929 . S
H2716 C2720 0.929 . S
H2717 C2726 0.929 . S
C2718 H2712 0.930 . S
C2718 C2719 1.367 . S
C2718 C2726 1.378 . S
C2719 C2718 1.367 . S
C2719 C2727 1.433 . S
C2720 H2716 0.929 . S
C2720 C2722 1.378 . S
C2720 C2724 1.350 . S
C2721 C2724 1.463 . S
C2721 C2726 1.350 . S
C2721 N2729 1.427 . S
C2722 H2713 0.930 . S
C2722 C2720 1.378 . S
C2722 C2723 1.367 . S
C2723 C2722 1.367 . S
C2723 C2725 1.433 . S
C2724 C2720 1.350 . S
C2724 C2721 1.463 . S
C2724 N2728 1.427 . S
C2725 H2715 0.929 . S
C2725 C2723 1.433 . S
C2725 N2728 1.384 . S
C2726 H2717 0.929 . S
C2726 C2718 1.378 . S
C2726 C2721 1.350 . S
C2727 H2714 0.929 . S
C2727 C2719 1.433 . S
C2727 N2729 1.384 . S
N2728 C2724 1.427 . S
N2728 C2725 1.384 . S
N2729 C2721 1.427 . S
N2729 C2727 1.384 . S
H2730 C2736 0.930 . S
H2731 C2740 0.930 . S
H2732 C2745 0.929 . S
H2733 C2743 0.929 . S
H2734 C2738 0.929 . S
H2735 C2744 0.929 . S
C2736 H2730 0.930 . S
C2736 C2737 1.367 . S
C2736 C2744 1.378 1_554 S
C2737 C2736 1.367 . S
C2737 C2745 1.433 . S
C2738 H2734 0.929 . S
C2738 C2740 1.378 . S
C2738 C2742 1.350 . S
C2739 C2742 1.463 . S
C2739 C2744 1.350 . S
C2739 N2747 1.427 1_556 S
C2740 H2731 0.930 . S
C2740 C2738 1.378 . S
C2740 C2741 1.367 . S
C2741 C2740 1.367 . S
C2741 C2743 1.433 . S
C2742 C2738 1.350 . S
C2742 C2739 1.463 . S
C2742 N2746 1.427 . S
C2743 H2733 0.929 . S
C2743 C2741 1.433 . S
C2743 N2746 1.384 . S
C2744 H2735 0.929 . S
C2744 C2736 1.378 1_556 S
C2744 C2739 1.350 . S
C2745 H2732 0.929 . S
C2745 C2737 1.433 . S
C2745 N2747 1.384 . S
N2746 C2742 1.427 . S
N2746 C2743 1.384 . S
N2747 C2739 1.427 1_554 S
N2747 C2745 1.384 . S
H2748 C2754 0.930 . S
H2749 C2758 0.930 . S
H2750 C2763 0.929 . S
H2751 C2761 0.929 . S
H2752 C2756 0.929 . S
H2753 C2762 0.929 . S
C2754 H2748 0.930 . S
C2754 C2755 1.367 . S
C2754 C2762 1.378 . S
C2755 C2754 1.367 . S
C2755 C2763 1.433 . S
C2756 H2752 0.929 . S
C2756 C2758 1.378 . S
C2756 C2760 1.350 . S
C2757 C2760 1.463 . S
C2757 C2762 1.350 . S
C2757 N2765 1.427 . S
C2758 H2749 0.930 . S
C2758 C2756 1.378 . S
C2758 C2759 1.367 . S
C2759 C2758 1.367 . S
C2759 C2761 1.433 . S
C2760 C2756 1.350 . S
C2760 C2757 1.463 . S
C2760 N2764 1.427 . S
C2761 H2751 0.929 . S
C2761 C2759 1.433 . S
C2761 N2764 1.384 . S
C2762 H2753 0.929 . S
C2762 C2754 1.378 . S
C2762 C2757 1.350 . S
C2763 H2750 0.929 . S
C2763 C2755 1.433 . S
C2763 N2765 1.384 . S
N2764 C2760 1.427 . S
N2764 C2761 1.384 . S
N2765 C2757 1.427 . S
N2765 C2763 1.384 . S
H2766 C2772 0.930 . S
H2767 C2776 0.930 . S
H2768 C2781 0.929 . S
H2769 C2779 0.929 . S
H2770 C2774 0.929 . S
H2771 C2780 0.929 . S
C2772 H2766 0.930 . S
C2772 C2773 1.367 . S
C2772 C2780 1.378 . S
C2773 C2772 1.367 . S
C2773 C2781 1.433 . S
C2774 H2770 0.929 . S
C2774 C2776 1.378 1_556 S
C2774 C2778 1.350 . S
C2775 C2778 1.463 1_545 S
C2775 C2780 1.350 . S
C2775 N2783 1.427 1_545 S
C2776 H2767 0.930 . S
C2776 C2774 1.378 1_554 S
C2776 C2777 1.367 . S
C2777 C2776 1.367 . S
C2777 C2779 1.433 . S
C2778 C2774 1.350 . S
C2778 C2775 1.463 1_565 S
C2778 N2782 1.427 1_556 S
C2779 H2769 0.929 . S
C2779 C2777 1.433 . S
C2779 N2782 1.384 . S
C2780 H2771 0.929 . S
C2780 C2772 1.378 . S
C2780 C2775 1.350 . S
C2781 H2768 0.929 . S
C2781 C2773 1.433 . S
C2781 N2783 1.384 1_545 S
N2782 C2778 1.427 1_554 S
N2782 C2779 1.384 . S
N2783 C2775 1.427 1_565 S
N2783 C2781 1.384 1_565 S
H2784 C2790 0.930 . S
H2785 C2794 0.930 . S
H2786 C2799 0.929 . S
H2787 C2797 0.929 . S
H2788 C2792 0.929 . S
H2789 C2798 0.929 . S
C2790 H2784 0.930 . S
C2790 C2791 1.367 . S
C2790 C2798 1.378 . S
C2791 C2790 1.367 . S
C2791 C2799 1.433 . S
C2792 H2788 0.929 . S
C2792 C2794 1.378 . S
C2792 C2796 1.350 . S
C2793 C2796 1.463 . S
C2793 C2798 1.350 . S
C2793 N2801 1.427 . S
C2794 H2785 0.930 . S
C2794 C2792 1.378 . S
C2794 C2795 1.367 . S
C2795 C2794 1.367 . S
C2795 C2797 1.433 . S
C2796 C2792 1.350 . S
C2796 C2793 1.463 . S
C2796 N2800 1.427 . S
C2797 H2787 0.929 . S
C2797 C2795 1.433 . S
C2797 N2800 1.384 . S
C2798 H2789 0.929 . S
C2798 C2790 1.378 . S
C2798 C2793 1.350 . S
C2799 H2786 0.929 . S
C2799 C2791 1.433 . S
C2799 N2801 1.384 . S
N2800 C2796 1.427 . S
N2800 C2797 1.384 . S
N2801 C2793 1.427 . S
N2801 C2799 1.384 . S
H2802 C2808 0.930 . S
H2803 C2812 0.930 . S
H2804 C2817 0.929 . S
H2805 C2815 0.929 . S
H2806 C2810 0.929 . S
H2807 C2816 0.929 . S
C2808 H2802 0.930 . S
C2808 C2809 1.367 . S
C2808 C2816 1.378 . S
C2809 C2808 1.367 . S
C2809 C2817 1.433 . S
C2810 H2806 0.929 . S
C2810 C2812 1.378 . S
C2810 C2814 1.350 . S
C2811 C2814 1.463 . S
C2811 C2816 1.350 . S
C2811 N2819 1.427 . S
C2812 H2803 0.930 . S
C2812 C2810 1.378 . S
C2812 C2813 1.367 . S
C2813 C2812 1.367 . S
C2813 C2815 1.433 . S
C2814 C2810 1.350 . S
C2814 C2811 1.463 . S
C2814 N2818 1.427 . S
C2815 H2805 0.929 . S
C2815 C2813 1.433 . S
C2815 N2818 1.384 . S
C2816 H2807 0.929 . S
C2816 C2808 1.378 . S
C2816 C2811 1.350 . S
C2817 H2804 0.929 . S
C2817 C2809 1.433 . S
C2817 N2819 1.384 . S
N2818 C2814 1.427 . S
N2818 C2815 1.384 . S
N2819 C2811 1.427 . S
N2819 C2817 1.384 . S
H2820 C2826 0.930 . S
H2821 C2830 0.930 . S
H2822 C2835 0.929 . S
H2823 C2833 0.929 . S
H2824 C2828 0.929 . S
H2825 C2834 0.947 . S
C2826 H2820 0.930 . S
C2826 C2827 1.367 . S
C2826 C2834 1.378 . S
C2827 C2826 1.367 . S
C2827 C2835 1.433 . S
C2828 H2824 0.929 . S
C2828 C2830 1.378 . S
C2828 C2832 1.350 . S
C2829 C2832 1.463 1_655 S
C2829 C2834 1.350 . S
C2829 N2837 1.427 . S
C2830 H2821 0.930 . S
C2830 C2828 1.378 . S
C2830 C2831 1.367 . S
C2831 C2830 1.367 . S
C2831 C2833 1.433 . S
C2832 C2828 1.350 . S
C2832 C2829 1.463 1_455 S
C2832 N2836 1.427 . S
C2833 H2823 0.929 . S
C2833 C2831 1.433 . S
C2833 N2836 1.384 . S
C2834 H2825 0.947 . S
C2834 C2826 1.378 . S
C2834 C2829 1.350 . S
C2835 H2822 0.929 . S
C2835 C2827 1.433 . S
C2835 N2837 1.384 . S
N2836 C2832 1.427 . S
N2836 C2833 1.384 . S
N2837 C2829 1.427 . S
N2837 C2835 1.384 . S
H2838 C2844 0.930 . S
H2839 C2848 0.930 . S
H2840 C2853 0.929 . S
H2841 C2851 0.929 . S
H2842 C2846 0.929 . S
H2843 C2852 0.929 . S
C2844 H2838 0.930 . S
C2844 C2845 1.367 . S
C2844 C2852 1.378 . S
C2845 C2844 1.367 . S
C2845 C2853 1.433 . S
C2846 H2842 0.929 . S
C2846 C2848 1.378 . S
C2846 C2850 1.350 . S
C2847 C2850 1.463 . S
C2847 C2852 1.350 . S
C2847 N2855 1.427 . S
C2848 H2839 0.930 . S
C2848 C2846 1.378 . S
C2848 C2849 1.367 . S
C2849 C2848 1.367 . S
C2849 C2851 1.433 . S
C2850 C2846 1.350 . S
C2850 C2847 1.463 . S
C2850 N2854 1.427 . S
C2851 H2841 0.929 . S
C2851 C2849 1.433 . S
C2851 N2854 1.384 . S
C2852 H2843 0.929 . S
C2852 C2844 1.378 . S
C2852 C2847 1.350 . S
C2853 H2840 0.929 . S
C2853 C2845 1.433 . S
C2853 N2855 1.384 . S
N2854 C2850 1.427 . S
N2854 C2851 1.384 . S
N2855 C2847 1.427 . S
N2855 C2853 1.384 . S
H2856 C2862 0.930 . S
H2857 C2866 0.930 . S
H2858 C2871 0.929 . S
H2859 C2869 0.929 . S
H2860 C2864 0.929 . S
H2861 C2870 0.929 . S
C2862 H2856 0.930 . S
C2862 C2863 1.367 . S
C2862 C2870 1.378 . S
C2863 C2862 1.367 . S
C2863 C2871 1.433 . S
C2864 H2860 0.929 . S
C2864 C2866 1.378 . S
C2864 C2868 1.350 . S
C2865 C2868 1.463 . S
C2865 C2870 1.350 . S
C2865 N2873 1.427 . S
C2866 H2857 0.930 . S
C2866 C2864 1.378 . S
C2866 C2867 1.367 . S
C2867 C2866 1.367 . S
C2867 C2869 1.433 . S
C2868 C2864 1.350 . S
C2868 C2865 1.463 . S
C2868 N2872 1.427 . S
C2869 H2859 0.929 . S
C2869 C2867 1.433 . S
C2869 N2872 1.384 . S
C2870 H2861 0.929 . S
C2870 C2862 1.378 . S
C2870 C2865 1.350 . S
C2871 H2858 0.929 . S
C2871 C2863 1.433 . S
C2871 N2873 1.384 . S
N2872 C2868 1.427 . S
N2872 C2869 1.384 . S
N2873 C2865 1.427 . S
N2873 C2871 1.384 . S
H2874 C2880 0.930 . S
H2875 C2884 0.930 . S
H2876 C2889 0.929 . S
H2877 C2887 0.929 . S
H2878 C2882 0.929 . S
H2879 C2888 0.929 . S
C2880 H2874 0.930 . S
C2880 C2881 1.367 . S
C2880 C2888 1.378 . S
C2881 C2880 1.367 . S
C2881 C2889 1.433 . S
C2882 H2878 0.929 . S
C2882 C2884 1.378 . S
C2882 C2886 1.350 . S
C2883 C2886 1.463 . S
C2883 C2888 1.350 . S
C2883 N2891 1.427 . S
C2884 H2875 0.930 . S
C2884 C2882 1.378 . S
C2884 C2885 1.367 . S
C2885 C2884 1.367 . S
C2885 C2887 1.433 . S
C2886 C2882 1.350 . S
C2886 C2883 1.463 . S
C2886 N2890 1.427 . S
C2887 H2877 0.929 . S
C2887 C2885 1.433 . S
C2887 N2890 1.384 . S
C2888 H2879 0.929 . S
C2888 C2880 1.378 . S
C2888 C2883 1.350 . S
C2889 H2876 0.929 . S
C2889 C2881 1.433 . S
C2889 N2891 1.384 . S
N2890 C2886 1.427 . S
N2890 C2887 1.384 . S
N2891 C2883 1.427 . S
N2891 C2889 1.384 . S
H2892 C2898 0.930 . S
H2893 C2902 0.930 . S
H2894 C2907 0.929 . S
H2895 C2905 0.929 . S
H2896 C2900 0.929 . S
H2897 C2906 0.929 . S
C2898 H2892 0.930 . S
C2898 C2899 1.367 . S
C2898 C2906 1.378 . S
C2899 C2898 1.367 . S
C2899 C2907 1.433 . S
C2900 H2896 0.929 . S
C2900 C2902 1.378 . S
C2900 C2904 1.350 . S
C2901 C2904 1.463 1_655 S
C2901 C2906 1.350 . S
C2901 N2909 1.427 . S
C2902 H2893 0.930 . S
C2902 C2900 1.378 . S
C2902 C2903 1.367 . S
C2903 C2902 1.367 . S
C2903 C2905 1.433 . S
C2904 C2900 1.350 . S
C2904 C2901 1.463 1_455 S
C2904 N2908 1.427 . S
C2905 H2895 0.929 . S
C2905 C2903 1.433 . S
C2905 N2908 1.384 . S
C2906 H2897 0.929 . S
C2906 C2898 1.378 . S
C2906 C2901 1.350 . S
C2907 H2894 0.929 . S
C2907 C2899 1.433 . S
C2907 N2909 1.384 . S
N2908 C2904 1.427 . S
N2908 C2905 1.384 . S
N2909 C2901 1.427 . S
N2909 C2907 1.384 . S
H2910 C2916 0.930 . S
H2911 C2920 0.930 . S
H2912 C2925 0.929 . S
H2913 C2923 0.929 . S
H2914 C2918 0.929 . S
H2915 C2924 0.929 . S
C2916 H2910 0.930 . S
C2916 C2917 1.367 . S
C2916 C2924 1.378 . S
C2917 C2916 1.367 . S
C2917 C2925 1.433 . S
C2918 H2914 0.929 . S
C2918 C2920 1.378 1_545 S
C2918 C2922 1.350 . S
C2919 C2922 1.463 1_455 S
C2919 C2924 1.350 . S
C2919 N2927 1.427 1_455 S
C2920 H2911 0.930 . S
C2920 C2918 1.378 1_565 S
C2920 C2921 1.367 . S
C2921 C2920 1.367 . S
C2921 C2923 1.433 . S
C2922 C2918 1.350 . S
C2922 C2919 1.463 1_655 S
C2922 N2926 1.427 1_545 S
C2923 H2913 0.929 . S
C2923 C2921 1.433 . S
C2923 N2926 1.384 . S
C2924 H2915 0.929 . S
C2924 C2916 1.378 . S
C2924 C2919 1.350 . S
C2925 H2912 0.929 . S
C2925 C2917 1.433 . S
C2925 N2927 1.384 1_455 S
N2926 C2922 1.427 1_565 S
N2926 C2923 1.384 . S
N2927 C2919 1.427 1_655 S
N2927 C2925 1.384 1_655 S
H2928 C2934 0.930 . S
H2929 C2938 0.930 . S
H2930 C2943 0.929 . S
H2931 C2941 0.929 . S
H2932 C2936 0.929 . S
H2933 C2942 0.929 . S
C2934 H2928 0.930 . S
C2934 C2935 1.367 . S
C2934 C2942 1.378 . S
C2935 C2934 1.367 . S
C2935 C2943 1.433 . S
C2936 H2932 0.929 . S
C2936 C2938 1.378 . S
C2936 C2940 1.350 . S
C2937 C2940 1.463 . S
C2937 C2942 1.350 . S
C2937 N2945 1.427 . S
C2938 H2929 0.930 . S
C2938 C2936 1.378 . S
C2938 C2939 1.367 . S
C2939 C2938 1.367 . S
C2939 C2941 1.433 . S
C2940 C2936 1.350 . S
C2940 C2937 1.463 . S
C2940 N2944 1.427 . S
C2941 H2931 0.929 . S
C2941 C2939 1.433 . S
C2941 N2944 1.384 . S
C2942 H2933 0.929 . S
C2942 C2934 1.378 . S
C2942 C2937 1.350 . S
C2943 H2930 0.929 . S
C2943 C2935 1.433 . S
C2943 N2945 1.384 . S
N2944 C2940 1.427 . S
N2944 C2941 1.384 . S
N2945 C2937 1.427 . S
N2945 C2943 1.384 . S
H2946 C2952 0.930 . S
H2947 C2956 0.930 . S
H2948 C2961 0.929 . S
H2949 C2959 0.929 . S
H2950 C2954 0.929 . S
H2951 C2960 0.929 . S
C2952 H2946 0.930 . S
C2952 C2953 1.367 . S
C2952 C2960 1.378 1_455 S
C2953 C2952 1.367 . S
C2953 C2961 1.433 . S
C2954 H2950 0.929 . S
C2954 C2956 1.378 . S
C2954 C2958 1.350 . S
C2955 C2958 1.463 . S
C2955 C2960 1.350 . S
C2955 N2963 1.427 1_655 S
C2956 H2947 0.930 . S
C2956 C2954 1.378 . S
C2956 C2957 1.367 . S
C2957 C2956 1.367 . S
C2957 C2959 1.433 . S
C2958 C2954 1.350 . S
C2958 C2955 1.463 . S
C2958 N2962 1.427 . S
C2959 H2949 0.929 . S
C2959 C2957 1.433 . S
C2959 N2962 1.384 . S
C2960 H2951 0.929 . S
C2960 C2952 1.378 1_655 S
C2960 C2955 1.350 . S
C2961 H2948 0.929 . S
C2961 C2953 1.433 . S
C2961 N2963 1.384 . S
N2962 C2958 1.427 . S
N2962 C2959 1.384 . S
N2963 C2955 1.427 1_455 S
N2963 C2961 1.384 . S
H2964 C2970 0.930 . S
H2965 C2974 0.930 . S
H2966 C2979 0.929 . S
H2967 C2977 0.929 . S
H2968 C2972 0.929 . S
H2969 C2978 0.929 . S
C2970 H2964 0.930 . S
C2970 C2971 1.367 . S
C2970 C2978 1.378 . S
C2971 C2970 1.367 . S
C2971 C2979 1.433 . S
C2972 H2968 0.929 . S
C2972 C2974 1.378 . S
C2972 C2976 1.350 . S
C2973 C2976 1.463 . S
C2973 C2978 1.350 . S
C2973 N2981 1.427 . S
C2974 H2965 0.930 . S
C2974 C2972 1.378 . S
C2974 C2975 1.367 . S
C2975 C2974 1.367 . S
C2975 C2977 1.433 . S
C2976 C2972 1.350 . S
C2976 C2973 1.463 . S
C2976 N2980 1.427 . S
C2977 H2967 0.929 . S
C2977 C2975 1.433 . S
C2977 N2980 1.384 . S
C2978 H2969 0.929 . S
C2978 C2970 1.378 . S
C2978 C2973 1.350 . S
C2979 H2966 0.929 . S
C2979 C2971 1.433 . S
C2979 N2981 1.384 . S
N2980 C2976 1.427 . S
N2980 C2977 1.384 . S
N2981 C2973 1.427 . S
N2981 C2979 1.384 . S
H2982 C2988 0.930 . S
H2983 C2992 0.930 . S
H2984 C2997 0.929 . S
H2985 C2995 0.929 . S
H2986 C2990 0.929 . S
H2987 C2996 0.929 . S
C2988 H2982 0.930 . S
C2988 C2989 1.367 . S
C2988 C2996 1.378 . S
C2989 C2988 1.367 . S
C2989 C2997 1.433 . S
C2990 H2986 0.929 . S
C2990 C2992 1.378 . S
C2990 C2994 1.350 1_655 S
C2991 C2994 1.463 . S
C2991 C2996 1.350 . S
C2991 N2999 1.427 . S
C2992 H2983 0.930 . S
C2992 C2990 1.378 . S
C2992 C2993 1.367 . S
C2993 C2992 1.367 . S
C2993 C2995 1.433 . S
C2994 C2990 1.350 1_455 S
C2994 C2991 1.463 . S
C2994 N2998 1.427 . S
C2995 H2985 0.929 . S
C2995 C2993 1.433 . S
C2995 N2998 1.384 1_655 S
C2996 H2987 0.929 . S
C2996 C2988 1.378 . S
C2996 C2991 1.350 . S
C2997 H2984 0.929 . S
C2997 C2989 1.433 . S
C2997 N2999 1.384 . S
N2998 C2994 1.427 . S
N2998 C2995 1.384 1_455 S
N2999 C2991 1.427 . S
N2999 C2997 1.384 . S
H3000 C3006 0.930 . S
H3001 C3010 0.930 . S
H3002 C3015 0.929 . S
H3003 C3013 0.929 . S
H3004 C3008 0.929 . S
H3005 C3014 0.929 . S
C3006 H3000 0.930 . S
C3006 C3007 1.367 . S
C3006 C3014 1.378 . S
C3007 C3006 1.367 . S
C3007 C3015 1.433 . S
C3008 H3004 0.929 . S
C3008 C3010 1.378 . S
C3008 C3012 1.350 . S
C3009 C3012 1.463 . S
C3009 C3014 1.350 . S
C3009 N3017 1.427 . S
C3010 H3001 0.930 . S
C3010 C3008 1.378 . S
C3010 C3011 1.367 . S
C3011 C3010 1.367 . S
C3011 C3013 1.433 . S
C3012 C3008 1.350 . S
C3012 C3009 1.463 . S
C3012 N3016 1.427 . S
C3013 H3003 0.929 . S
C3013 C3011 1.433 . S
C3013 N3016 1.384 . S
C3014 H3005 0.929 . S
C3014 C3006 1.378 . S
C3014 C3009 1.350 . S
C3015 H3002 0.929 . S
C3015 C3007 1.433 . S
C3015 N3017 1.384 . S
N3016 C3012 1.427 . S
N3016 C3013 1.384 . S
N3017 C3009 1.427 . S
N3017 C3015 1.384 . S
H3018 C3024 0.930 . S
H3019 C3028 0.930 . S
H3020 C3033 0.929 . S
H3021 C3031 0.929 . S
H3022 C3026 0.929 . S
H3023 C3032 0.929 . S
C3024 H3018 0.930 . S
C3024 C3025 1.367 . S
C3024 C3032 1.378 . S
C3025 C3024 1.367 . S
C3025 C3033 1.433 . S
C3026 H3022 0.929 . S
C3026 C3028 1.378 . S
C3026 C3030 1.350 . S
C3027 C3030 1.463 . S
C3027 C3032 1.350 . S
C3027 N3035 1.427 . S
C3028 H3019 0.930 . S
C3028 C3026 1.378 . S
C3028 C3029 1.367 . S
C3029 C3028 1.367 . S
C3029 C3031 1.433 . S
C3030 C3026 1.350 . S
C3030 C3027 1.463 . S
C3030 N3034 1.427 . S
C3031 H3021 0.929 . S
C3031 C3029 1.433 . S
C3031 N3034 1.384 . S
C3032 H3023 0.929 . S
C3032 C3024 1.378 . S
C3032 C3027 1.350 . S
C3033 H3020 0.929 . S
C3033 C3025 1.433 . S
C3033 N3035 1.384 . S
N3034 C3030 1.427 . S
N3034 C3031 1.384 . S
N3035 C3027 1.427 . S
N3035 C3033 1.384 . S
H3036 C3042 0.930 . S
H3037 C3046 0.930 . S
H3038 C3051 0.929 . S
H3039 C3049 0.929 . S
H3040 C3044 0.929 . S
H3041 C3050 0.929 . S
C3042 H3036 0.930 . S
C3042 C3043 1.367 . S
C3042 C3050 1.378 . S
C3043 C3042 1.367 . S
C3043 C3051 1.433 . S
C3044 H3040 0.929 . S
C3044 C3046 1.378 . S
C3044 C3048 1.350 . S
C3045 C3048 1.463 . S
C3045 C3050 1.350 . S
C3045 N3053 1.427 . S
C3046 H3037 0.930 . S
C3046 C3044 1.378 . S
C3046 C3047 1.367 . S
C3047 C3046 1.367 . S
C3047 C3049 1.433 . S
C3048 C3044 1.350 . S
C3048 C3045 1.463 . S
C3048 N3052 1.427 . S
C3049 H3039 0.929 . S
C3049 C3047 1.433 . S
C3049 N3052 1.384 . S
C3050 H3041 0.929 . S
C3050 C3042 1.378 . S
C3050 C3045 1.350 . S
C3051 H3038 0.929 . S
C3051 C3043 1.433 . S
C3051 N3053 1.384 . S
N3052 C3048 1.427 . S
N3052 C3049 1.384 . S
N3053 C3045 1.427 . S
N3053 C3051 1.384 . S
H3054 C3060 0.930 . S
H3055 C3064 0.930 . S
H3056 C3069 0.929 . S
H3057 C3067 0.929 . S
H3058 C3062 0.929 . S
H3059 C3068 0.929 . S
C3060 H3054 0.930 . S
C3060 C3061 1.367 . S
C3060 C3068 1.378 . S
C3061 C3060 1.367 . S
C3061 C3069 1.433 . S
C3062 H3058 0.929 . S
C3062 C3064 1.378 . S
C3062 C3066 1.350 . S
C3063 C3066 1.463 . S
C3063 C3068 1.350 . S
C3063 N3071 1.427 . S
C3064 H3055 0.930 . S
C3064 C3062 1.378 . S
C3064 C3065 1.367 . S
C3065 C3064 1.367 . S
C3065 C3067 1.433 . S
C3066 C3062 1.350 . S
C3066 C3063 1.463 . S
C3066 N3070 1.427 . S
C3067 H3057 0.929 . S
C3067 C3065 1.433 . S
C3067 N3070 1.384 . S
C3068 H3059 0.929 . S
C3068 C3060 1.378 . S
C3068 C3063 1.350 . S
C3069 H3056 0.929 . S
C3069 C3061 1.433 . S
C3069 N3071 1.384 . S
N3070 C3066 1.427 . S
N3070 C3067 1.384 . S
N3071 C3063 1.427 . S
N3071 C3069 1.384 . S
H3072 C3078 0.930 . S
H3073 C3082 0.930 . S
H3074 C3087 0.929 . S
H3075 C3085 0.929 . S
H3076 C3080 0.929 . S
H3077 C3086 0.929 . S
C3078 H3072 0.930 . S
C3078 C3079 1.367 . S
C3078 C3086 1.378 . S
C3079 C3078 1.367 . S
C3079 C3087 1.433 . S
C3080 H3076 0.929 . S
C3080 C3082 1.378 . S
C3080 C3084 1.350 . S
C3081 C3084 1.463 . S
C3081 C3086 1.350 . S
C3081 N3089 1.427 . S
C3082 H3073 0.930 . S
C3082 C3080 1.378 . S
C3082 C3083 1.367 . S
C3083 C3082 1.367 . S
C3083 C3085 1.433 . S
C3084 C3080 1.350 . S
C3084 C3081 1.463 . S
C3084 N3088 1.427 . S
C3085 H3075 0.929 . S
C3085 C3083 1.433 . S
C3085 N3088 1.384 . S
C3086 H3077 0.929 . S
C3086 C3078 1.378 . S
C3086 C3081 1.350 . S
C3087 H3074 0.929 . S
C3087 C3079 1.433 . S
C3087 N3089 1.384 . S
N3088 C3084 1.427 . S
N3088 C3085 1.384 . S
N3089 C3081 1.427 . S
N3089 C3087 1.384 . S
H3090 C3096 0.930 . S
H3091 C3100 0.930 . S
H3092 C3105 0.929 . S
H3093 C3103 0.929 . S
H3094 C3098 0.929 . S
H3095 C3104 0.929 . S
C3096 H3090 0.930 . S
C3096 C3097 1.367 . S
C3096 C3104 1.378 . S
C3097 C3096 1.367 . S
C3097 C3105 1.433 . S
C3098 H3094 0.929 . S
C3098 C3100 1.378 . S
C3098 C3102 1.350 . S
C3099 C3102 1.463 1_565 S
C3099 C3104 1.350 . S
C3099 N3107 1.427 . S
C3100 H3091 0.930 . S
C3100 C3098 1.378 . S
C3100 C3101 1.367 . S
C3101 C3100 1.367 . S
C3101 C3103 1.433 . S
C3102 C3098 1.350 . S
C3102 C3099 1.463 1_545 S
C3102 N3106 1.427 . S
C3103 H3093 0.929 . S
C3103 C3101 1.433 . S
C3103 N3106 1.384 . S
C3104 H3095 0.929 . S
C3104 C3096 1.378 . S
C3104 C3099 1.350 . S
C3105 H3092 0.929 . S
C3105 C3097 1.433 . S
C3105 N3107 1.384 . S
N3106 C3102 1.427 . S
N3106 C3103 1.384 . S
N3107 C3099 1.427 . S
N3107 C3105 1.384 . S
H3108 C3114 0.930 . S
H3109 C3118 0.930 . S
H3110 C3123 0.929 . S
H3111 C3121 0.929 . S
H3112 C3116 0.929 . S
H3113 C3122 0.929 . S
C3114 H3108 0.930 . S
C3114 C3115 1.367 . S
C3114 C3122 1.378 . S
C3115 C3114 1.367 . S
C3115 C3123 1.433 . S
C3116 H3112 0.929 . S
C3116 C3118 1.378 . S
C3116 C3120 1.350 . S
C3117 C3120 1.463 . S
C3117 C3122 1.350 . S
C3117 N3125 1.427 . S
C3118 H3109 0.930 . S
C3118 C3116 1.378 . S
C3118 C3119 1.367 . S
C3119 C3118 1.367 . S
C3119 C3121 1.433 . S
C3120 C3116 1.350 . S
C3120 C3117 1.463 . S
C3120 N3124 1.427 . S
C3121 H3111 0.929 . S
C3121 C3119 1.433 . S
C3121 N3124 1.384 . S
C3122 H3113 0.929 . S
C3122 C3114 1.378 . S
C3122 C3117 1.350 . S
C3123 H3110 0.929 . S
C3123 C3115 1.433 . S
C3123 N3125 1.384 . S
N3124 C3120 1.427 . S
N3124 C3121 1.384 . S
N3125 C3117 1.427 . S
N3125 C3123 1.384 . S
H3126 C3132 0.930 . S
H3127 C3136 0.930 . S
H3128 C3141 0.929 . S
H3129 C3139 0.929 . S
H3130 C3134 0.929 . S
H3131 C3140 0.929 . S
C3132 H3126 0.930 . S
C3132 C3133 1.367 . S
C3132 C3140 1.378 . S
C3133 C3132 1.367 . S
C3133 C3141 1.433 . S
C3134 H3130 0.929 . S
C3134 C3136 1.378 . S
C3134 C3138 1.350 . S
C3135 C3138 1.463 . S
C3135 C3140 1.350 . S
C3135 N3143 1.427 . S
C3136 H3127 0.930 . S
C3136 C3134 1.378 . S
C3136 C3137 1.367 . S
C3137 C3136 1.367 . S
C3137 C3139 1.433 . S
C3138 C3134 1.350 . S
C3138 C3135 1.463 . S
C3138 N3142 1.427 . S
C3139 H3129 0.929 . S
C3139 C3137 1.433 . S
C3139 N3142 1.384 . S
C3140 H3131 0.929 . S
C3140 C3132 1.378 . S
C3140 C3135 1.350 . S
C3141 H3128 0.929 . S
C3141 C3133 1.433 . S
C3141 N3143 1.384 . S
N3142 C3138 1.427 . S
N3142 C3139 1.384 . S
N3143 C3135 1.427 . S
N3143 C3141 1.384 . S
H3144 C3150 0.930 . S
H3145 C3154 0.930 . S
H3146 C3159 0.929 . S
H3147 C3157 0.929 . S
H3148 C3152 0.929 . S
H3149 C3158 0.929 . S
C3150 H3144 0.930 . S
C3150 C3151 1.367 . S
C3150 C3158 1.378 . S
C3151 C3150 1.367 . S
C3151 C3159 1.433 . S
C3152 H3148 0.929 . S
C3152 C3154 1.378 . S
C3152 C3156 1.350 . S
C3153 C3156 1.463 . S
C3153 C3158 1.350 . S
C3153 N3161 1.427 . S
C3154 H3145 0.930 . S
C3154 C3152 1.378 . S
C3154 C3155 1.367 . S
C3155 C3154 1.367 . S
C3155 C3157 1.433 . S
C3156 C3152 1.350 . S
C3156 C3153 1.463 . S
C3156 N3160 1.427 . S
C3157 H3147 0.929 . S
C3157 C3155 1.433 . S
C3157 N3160 1.384 . S
C3158 H3149 0.929 . S
C3158 C3150 1.378 . S
C3158 C3153 1.350 . S
C3159 H3146 0.929 . S
C3159 C3151 1.433 . S
C3159 N3161 1.384 . S
N3160 C3156 1.427 . S
N3160 C3157 1.384 . S
N3161 C3153 1.427 . S
N3161 C3159 1.384 . S
H3162 C3168 0.930 . S
H3163 C3172 0.930 . S
H3164 C3177 0.929 . S
H3165 C3175 0.929 . S
H3166 C3170 0.929 . S
H3167 C3176 0.929 . S
C3168 H3162 0.930 . S
C3168 C3169 1.367 . S
C3168 C3176 1.378 . S
C3169 C3168 1.367 . S
C3169 C3177 1.433 . S
C3170 H3166 0.929 . S
C3170 C3172 1.378 . S
C3170 C3174 1.350 . S
C3171 C3174 1.463 1_545 S
C3171 C3176 1.350 . S
C3171 N3179 1.427 . S
C3172 H3163 0.930 . S
C3172 C3170 1.378 . S
C3172 C3173 1.367 . S
C3173 C3172 1.367 . S
C3173 C3175 1.433 . S
C3174 C3170 1.350 . S
C3174 C3171 1.463 1_565 S
C3174 N3178 1.421 1_565 S
C3175 H3165 0.929 . S
C3175 C3173 1.433 . S
C3175 N3178 1.357 1_565 S
C3176 H3167 0.929 . S
C3176 C3168 1.378 . S
C3176 C3171 1.350 . S
C3177 H3164 0.929 . S
C3177 C3169 1.433 . S
C3177 N3179 1.384 . S
N3178 C3174 1.421 1_545 S
N3178 C3175 1.357 1_545 S
N3179 C3171 1.427 . S
N3179 C3177 1.384 . S
H3180 C3186 0.930 . S
H3181 C3190 0.930 . S
H3182 C3195 0.929 . S
H3183 C3193 0.929 . S
H3184 C3188 0.929 . S
H3185 C3194 0.929 . S
C3186 H3180 0.930 . S
C3186 C3187 1.367 . S
C3186 C3194 1.378 . S
C3187 C3186 1.367 . S
C3187 C3195 1.433 . S
C3188 H3184 0.929 . S
C3188 C3190 1.378 . S
C3188 C3192 1.350 . S
C3189 C3192 1.463 . S
C3189 C3194 1.350 . S
C3189 N3197 1.427 . S
C3190 H3181 0.930 . S
C3190 C3188 1.378 . S
C3190 C3191 1.367 . S
C3191 C3190 1.367 . S
C3191 C3193 1.433 . S
C3192 C3188 1.350 . S
C3192 C3189 1.463 . S
C3192 N3196 1.427 . S
C3193 H3183 0.929 . S
C3193 C3191 1.433 . S
C3193 N3196 1.384 . S
C3194 H3185 0.929 . S
C3194 C3186 1.378 . S
C3194 C3189 1.350 . S
C3195 H3182 0.929 . S
C3195 C3187 1.433 . S
C3195 N3197 1.384 . S
N3196 C3192 1.427 . S
N3196 C3193 1.384 . S
N3197 C3189 1.427 . S
N3197 C3195 1.384 . S
H3198 C3204 0.930 . S
H3199 C3208 0.930 . S
H3200 C3213 0.929 . S
H3201 C3211 0.929 . S
H3202 C3206 0.929 . S
H3203 C3212 0.929 . S
C3204 H3198 0.930 . S
C3204 C3205 1.367 . S
C3204 C3212 1.378 . S
C3205 C3204 1.367 . S
C3205 C3213 1.433 . S
C3206 H3202 0.929 . S
C3206 C3208 1.378 . S
C3206 C3210 1.350 . S
C3207 C3210 1.463 . S
C3207 C3212 1.350 . S
C3207 N3215 1.427 . S
C3208 H3199 0.930 . S
C3208 C3206 1.378 . S
C3208 C3209 1.367 . S
C3209 C3208 1.367 . S
C3209 C3211 1.433 . S
C3210 C3206 1.350 . S
C3210 C3207 1.463 . S
C3210 N3214 1.427 . S
C3211 H3201 0.929 . S
C3211 C3209 1.433 . S
C3211 N3214 1.384 . S
C3212 H3203 0.929 . S
C3212 C3204 1.378 . S
C3212 C3207 1.350 . S
C3213 H3200 0.929 . S
C3213 C3205 1.433 . S
C3213 N3215 1.384 . S
N3214 C3210 1.427 . S
N3214 C3211 1.384 . S
N3215 C3207 1.427 . S
N3215 C3213 1.384 . S
H3216 C3222 0.930 . S
H3217 C3226 0.930 . S
H3218 C3231 0.929 . S
H3219 C3229 0.929 . S
H3220 C3224 0.929 . S
H3221 C3230 0.929 . S
C3222 H3216 0.930 . S
C3222 C3223 1.367 . S
C3222 C3230 1.378 . S
C3223 C3222 1.367 . S
C3223 C3231 1.433 . S
C3224 H3220 0.929 . S
C3224 C3226 1.378 . S
C3224 C3228 1.350 . S
C3225 C3228 1.463 . S
C3225 C3230 1.350 . S
C3225 N3233 1.427 . S
C3226 H3217 0.930 . S
C3226 C3224 1.378 . S
C3226 C3227 1.367 . S
C3227 C3226 1.367 . S
C3227 C3229 1.433 . S
C3228 C3224 1.350 . S
C3228 C3225 1.463 . S
C3228 N3232 1.427 . S
C3229 H3219 0.929 . S
C3229 C3227 1.433 . S
C3229 N3232 1.384 . S
C3230 H3221 0.929 . S
C3230 C3222 1.378 . S
C3230 C3225 1.350 . S
C3231 H3218 0.929 . S
C3231 C3223 1.433 . S
C3231 N3233 1.384 . S
N3232 C3228 1.427 . S
N3232 C3229 1.384 . S
N3233 C3225 1.427 . S
N3233 C3231 1.384 . S
H3234 C3240 0.930 . S
H3235 C3244 0.930 . S
H3236 C3249 0.929 . S
H3237 C3247 0.929 . S
H3238 C3242 0.929 . S
H3239 C3248 0.929 . S
C3240 H3234 0.930 . S
C3240 C3241 1.367 . S
C3240 C3248 1.378 . S
C3241 C3240 1.367 . S
C3241 C3249 1.433 . S
C3242 H3238 0.929 . S
C3242 C3244 1.378 . S
C3242 C3246 1.350 . S
C3243 C3246 1.463 . S
C3243 C3248 1.350 . S
C3243 N3251 1.427 . S
C3244 H3235 0.930 . S
C3244 C3242 1.378 . S
C3244 C3245 1.367 . S
C3245 C3244 1.367 . S
C3245 C3247 1.433 . S
C3246 C3242 1.350 . S
C3246 C3243 1.463 . S
C3246 N3250 1.427 . S
C3247 H3237 0.929 . S
C3247 C3245 1.433 . S
C3247 N3250 1.384 . S
C3248 H3239 0.929 . S
C3248 C3240 1.378 . S
C3248 C3243 1.350 . S
C3249 H3236 0.929 . S
C3249 C3241 1.433 . S
C3249 N3251 1.384 . S
N3250 C3246 1.427 . S
N3250 C3247 1.384 . S
N3251 C3243 1.427 . S
N3251 C3249 1.384 . S
H3252 C3258 0.930 . S
H3253 C3262 0.930 . S
H3254 C3267 0.929 . S
H3255 C3265 0.929 . S
H3256 C3260 0.929 . S
H3257 C3266 0.929 . S
C3258 H3252 0.930 . S
C3258 C3259 1.367 . S
C3258 C3266 1.378 . S
C3259 C3258 1.367 . S
C3259 C3267 1.433 . S
C3260 H3256 0.929 . S
C3260 C3262 1.378 1_545 S
C3260 C3264 1.350 . S
C3261 C3264 1.463 . S
C3261 C3266 1.350 . S
C3261 N3269 1.427 . S
C3262 H3253 0.930 . S
C3262 C3260 1.378 1_565 S
C3262 C3263 1.367 . S
C3263 C3262 1.367 . S
C3263 C3265 1.433 . S
C3264 C3260 1.350 . S
C3264 C3261 1.463 . S
C3264 N3268 1.427 1_545 S
C3265 H3255 0.929 . S
C3265 C3263 1.433 . S
C3265 N3268 1.384 . S
C3266 H3257 0.929 . S
C3266 C3258 1.378 . S
C3266 C3261 1.350 . S
C3267 H3254 0.929 . S
C3267 C3259 1.433 . S
C3267 N3269 1.384 . S
N3268 C3264 1.427 1_565 S
N3268 C3265 1.384 . S
N3269 C3261 1.427 . S
N3269 C3267 1.384 . S
H3270 C3276 0.930 . S
H3271 C3280 0.930 . S
H3272 C3285 0.929 . S
H3273 C3283 0.929 . S
H3274 C3278 0.929 . S
H3275 C3284 0.929 . S
C3276 H3270 0.930 . S
C3276 C3277 1.367 . S
C3276 C3284 1.378 . S
C3277 C3276 1.367 . S
C3277 C3285 1.433 . S
C3278 H3274 0.929 . S
C3278 C3280 1.378 . S
C3278 C3282 1.350 . S
C3279 C3282 1.463 . S
C3279 C3284 1.350 . S
C3279 N3287 1.427 . S
C3280 H3271 0.930 . S
C3280 C3278 1.378 . S
C3280 C3281 1.367 . S
C3281 C3280 1.367 . S
C3281 C3283 1.433 . S
C3282 C3278 1.350 . S
C3282 C3279 1.463 . S
C3282 N3286 1.427 . S
C3283 H3273 0.929 . S
C3283 C3281 1.433 . S
C3283 N3286 1.384 . S
C3284 H3275 0.929 . S
C3284 C3276 1.378 . S
C3284 C3279 1.350 . S
C3285 H3272 0.929 . S
C3285 C3277 1.433 . S
C3285 N3287 1.384 . S
N3286 C3282 1.427 . S
N3286 C3283 1.384 . S
N3287 C3279 1.427 . S
N3287 C3285 1.384 . S
H3288 C3294 0.930 . S
H3289 C3298 0.930 . S
H3290 C3303 0.929 . S
H3291 C3301 0.929 . S
H3292 C3296 0.928 . S
H3293 C3302 0.929 1_455 S
C3294 H3288 0.930 . S
C3294 C3295 1.367 . S
C3294 C3302 1.378 . S
C3295 C3294 1.367 . S
C3295 C3303 1.433 . S
C3296 H3292 0.928 . S
C3296 C3298 1.379 1_655 S
C3296 C3300 1.350 1_655 S
C3297 C3300 1.463 1_655 S
C3297 C3302 1.350 1_565 S
C3297 N3305 1.427 . S
C3298 H3289 0.930 . S
C3298 C3296 1.379 1_455 S
C3298 C3299 1.367 . S
C3299 C3298 1.367 . S
C3299 C3301 1.433 . S
C3300 C3296 1.350 1_455 S
C3300 C3297 1.463 1_455 S
C3300 N3304 1.427 . S
C3301 H3291 0.929 . S
C3301 C3299 1.433 . S
C3301 N3304 1.384 . S
C3302 H3293 0.929 1_655 S
C3302 C3294 1.378 . S
C3302 C3297 1.350 1_545 S
C3303 H3290 0.929 . S
C3303 C3295 1.433 . S
C3303 N3305 1.384 1_545 S
N3304 C3300 1.427 . S
N3304 C3301 1.384 . S
N3305 C3297 1.427 . S
N3305 C3303 1.384 1_565 S
H3306 C3312 0.930 . S
H3307 C3316 0.930 . S
H3308 C3321 0.929 . S
H3309 C3319 0.929 . S
H3310 C3314 0.929 . S
H3311 C3320 0.929 . S
C3312 H3306 0.930 . S
C3312 C3313 1.367 . S
C3312 C3320 1.378 . S
C3313 C3312 1.367 . S
C3313 C3321 1.433 . S
C3314 H3310 0.929 . S
C3314 C3316 1.378 . S
C3314 C3318 1.350 . S
C3315 C3318 1.463 . S
C3315 C3320 1.350 . S
C3315 N3323 1.427 . S
C3316 H3307 0.930 . S
C3316 C3314 1.378 . S
C3316 C3317 1.367 . S
C3317 C3316 1.367 . S
C3317 C3319 1.433 . S
C3318 C3314 1.350 . S
C3318 C3315 1.463 . S
C3318 N3322 1.427 . S
C3319 H3309 0.929 . S
C3319 C3317 1.433 . S
C3319 N3322 1.384 . S
C3320 H3311 0.929 . S
C3320 C3312 1.378 . S
C3320 C3315 1.350 . S
C3321 H3308 0.929 . S
C3321 C3313 1.433 . S
C3321 N3323 1.384 . S
N3322 C3318 1.427 . S
N3322 C3319 1.384 . S
N3323 C3315 1.427 . S
N3323 C3321 1.384 . S
H3324 C3330 0.930 . S
H3325 C3334 0.930 . S
H3326 C3339 0.929 . S
H3327 C3337 0.929 . S
H3328 C3332 0.929 . S
H3329 C3338 0.929 . S
C3330 H3324 0.930 . S
C3330 C3331 1.367 . S
C3330 C3338 1.378 1_545 S
C3331 C3330 1.367 . S
C3331 C3339 1.433 . S
C3332 H3328 0.929 . S
C3332 C3334 1.378 . S
C3332 C3336 1.350 . S
C3333 C3336 1.463 . S
C3333 C3338 1.350 . S
C3333 N3341 1.427 1_565 S
C3334 H3325 0.930 . S
C3334 C3332 1.378 . S
C3334 C3335 1.367 . S
C3335 C3334 1.367 . S
C3335 C3337 1.433 . S
C3336 C3332 1.350 . S
C3336 C3333 1.463 . S
C3336 N3340 1.427 . S
C3337 H3327 0.929 . S
C3337 C3335 1.433 . S
C3337 N3340 1.384 . S
C3338 H3329 0.929 . S
C3338 C3330 1.378 1_565 S
C3338 C3333 1.350 . S
C3339 H3326 0.929 . S
C3339 C3331 1.433 . S
C3339 N3341 1.384 . S
N3340 C3336 1.427 . S
N3340 C3337 1.384 . S
N3341 C3333 1.427 1_545 S
N3341 C3339 1.384 . S
H3342 C3348 0.930 . S
H3343 C3352 0.930 . S
H3344 C3357 0.929 . S
H3345 C3355 0.929 . S
H3346 C3350 0.929 . S
H3347 C3356 0.929 . S
C3348 H3342 0.930 . S
C3348 C3349 1.367 . S
C3348 C3356 1.378 . S
C3349 C3348 1.367 . S
C3349 C3357 1.433 . S
C3350 H3346 0.929 . S
C3350 C3352 1.378 . S
C3350 C3354 1.350 . S
C3351 C3354 1.463 . S
C3351 C3356 1.350 . S
C3351 N3359 1.427 . S
C3352 H3343 0.930 . S
C3352 C3350 1.378 . S
C3352 C3353 1.367 . S
C3353 C3352 1.367 . S
C3353 C3355 1.433 . S
C3354 C3350 1.350 . S
C3354 C3351 1.463 . S
C3354 N3358 1.427 . S
C3355 H3345 0.929 . S
C3355 C3353 1.433 . S
C3355 N3358 1.384 . S
C3356 H3347 0.929 . S
C3356 C3348 1.378 . S
C3356 C3351 1.350 . S
C3357 H3344 0.929 . S
C3357 C3349 1.433 . S
C3357 N3359 1.384 . S
N3358 C3354 1.427 . S
N3358 C3355 1.384 . S
N3359 C3351 1.427 . S
N3359 C3357 1.384 . S
H3360 C3366 0.909 1_556 S
H3361 C3370 0.930 . S
H3362 C3375 0.929 1_556 S
H3363 C3373 0.929 . S
H3364 C3368 0.929 . S
H3365 C3374 0.929 . S
C3366 H3360 0.909 1_554 S
C3366 C3367 1.348 1_554 S
C3366 C3374 1.420 . S
C3367 C3366 1.348 1_556 S
C3367 C3375 1.433 1_556 S
C3368 H3364 0.929 . S
C3368 C3370 1.378 . S
C3368 C3372 1.350 . S
C3369 C3372 1.463 . S
C3369 C3374 1.350 . S
C3369 N3377 1.427 . S
C3370 H3361 0.930 . S
C3370 C3368 1.378 . S
C3370 C3371 1.367 . S
C3371 C3370 1.367 . S
C3371 C3373 1.433 . S
C3372 C3368 1.350 . S
C3372 C3369 1.463 . S
C3372 N3376 1.427 . S
C3373 H3363 0.929 . S
C3373 C3371 1.433 . S
C3373 N3376 1.384 . S
C3374 H3365 0.929 . S
C3374 C3366 1.420 . S
C3374 C3369 1.350 . S
C3375 H3362 0.929 1_554 S
C3375 C3367 1.433 1_554 S
C3375 N3377 1.384 . S
N3376 C3372 1.427 . S
N3376 C3373 1.384 . S
N3377 C3369 1.427 . S
N3377 C3375 1.384 . S
H3378 C3384 0.930 . S
H3379 C3388 0.930 . S
H3380 C3393 0.929 . S
H3381 C3391 0.929 . S
H3382 C3386 0.929 . S
H3383 C3392 0.929 . S
C3384 H3378 0.930 . S
C3384 C3385 1.367 . S
C3384 C3392 1.378 . S
C3385 C3384 1.367 . S
C3385 C3393 1.433 . S
C3386 H3382 0.929 . S
C3386 C3388 1.378 . S
C3386 C3390 1.350 . S
C3387 C3390 1.463 . S
C3387 C3392 1.350 . S
C3387 N3395 1.427 . S
C3388 H3379 0.930 . S
C3388 C3386 1.378 . S
C3388 C3389 1.367 . S
C3389 C3388 1.367 . S
C3389 C3391 1.433 . S
C3390 C3386 1.350 . S
C3390 C3387 1.463 . S
C3390 N3394 1.427 . S
C3391 H3381 0.929 . S
C3391 C3389 1.433 . S
C3391 N3394 1.384 . S
C3392 H3383 0.929 . S
C3392 C3384 1.378 . S
C3392 C3387 1.350 . S
C3393 H3380 0.929 . S
C3393 C3385 1.433 . S
C3393 N3395 1.384 . S
N3394 C3390 1.427 . S
N3394 C3391 1.384 . S
N3395 C3387 1.427 . S
N3395 C3393 1.384 . S
H3396 C3402 0.930 . S
H3397 C3406 0.930 . S
H3398 C3411 0.929 . S
H3399 C3409 0.929 . S
H3400 C3404 0.929 . S
H3401 C3410 0.929 . S
C3402 H3396 0.930 . S
C3402 C3403 1.367 . S
C3402 C3410 1.378 . S
C3403 C3402 1.367 . S
C3403 C3411 1.433 . S
C3404 H3400 0.929 . S
C3404 C3406 1.378 1_554 S
C3404 C3408 1.350 . S
C3405 C3408 1.463 . S
C3405 C3410 1.350 . S
C3405 N3413 1.427 . S
C3406 H3397 0.930 . S
C3406 C3404 1.378 1_556 S
C3406 C3407 1.367 . S
C3407 C3406 1.367 . S
C3407 C3409 1.433 1_556 S
C3408 C3404 1.350 . S
C3408 C3405 1.463 . S
C3408 N3412 1.427 . S
C3409 H3399 0.929 . S
C3409 C3407 1.433 1_554 S
C3409 N3412 1.384 . S
C3410 H3401 0.929 . S
C3410 C3402 1.378 . S
C3410 C3405 1.350 . S
C3411 H3398 0.929 . S
C3411 C3403 1.433 . S
C3411 N3413 1.384 . S
N3412 C3408 1.427 . S
N3412 C3409 1.384 . S
N3413 C3405 1.427 . S
N3413 C3411 1.384 . S
H3414 C3420 0.930 . S
H3415 C3424 0.930 . S
H3416 C3429 0.929 . S
H3417 C3427 0.929 . S
H3418 C3422 0.929 . S
H3419 C3428 0.929 . S
C3420 H3414 0.930 . S
C3420 C3421 1.367 . S
C3420 C3428 1.378 . S
C3421 C3420 1.367 . S
C3421 C3429 1.433 . S
C3422 H3418 0.929 . S
C3422 C3424 1.378 . S
C3422 C3426 1.350 . S
C3423 C3426 1.463 . S
C3423 C3428 1.350 . S
C3423 N3431 1.427 . S
C3424 H3415 0.930 . S
C3424 C3422 1.378 . S
C3424 C3425 1.367 . S
C3425 C3424 1.367 . S
C3425 C3427 1.433 . S
C3426 C3422 1.350 . S
C3426 C3423 1.463 . S
C3426 N3430 1.427 . S
C3427 H3417 0.929 . S
C3427 C3425 1.433 . S
C3427 N3430 1.384 . S
C3428 H3419 0.929 . S
C3428 C3420 1.378 . S
C3428 C3423 1.350 . S
C3429 H3416 0.929 . S
C3429 C3421 1.433 . S
C3429 N3431 1.384 . S
N3430 C3426 1.427 . S
N3430 C3427 1.384 . S
N3431 C3423 1.427 . S
N3431 C3429 1.384 . S
H3432 C3438 0.930 . S
H3433 C3442 0.930 . S
H3434 C3447 0.929 . S
H3435 C3445 0.929 . S
H3436 C3440 0.929 . S
H3437 C3446 0.929 . S
C3438 H3432 0.930 . S
C3438 C3439 1.367 . S
C3438 C3446 1.378 . S
C3439 C3438 1.367 . S
C3439 C3447 1.433 . S
C3440 H3436 0.929 . S
C3440 C3442 1.378 . S
C3440 C3444 1.350 . S
C3441 C3444 1.463 . S
C3441 C3446 1.350 . S
C3441 N3449 1.427 . S
C3442 H3433 0.930 . S
C3442 C3440 1.378 . S
C3442 C3443 1.367 . S
C3443 C3442 1.367 . S
C3443 C3445 1.433 . S
C3444 C3440 1.350 . S
C3444 C3441 1.463 . S
C3444 N3448 1.427 . S
C3445 H3435 0.929 . S
C3445 C3443 1.433 . S
C3445 N3448 1.384 . S
C3446 H3437 0.929 . S
C3446 C3438 1.378 . S
C3446 C3441 1.350 . S
C3447 H3434 0.929 . S
C3447 C3439 1.433 . S
C3447 N3449 1.384 . S
N3448 C3444 1.427 . S
N3448 C3445 1.384 . S
N3449 C3441 1.427 . S
N3449 C3447 1.384 . S
H3450 C3456 0.930 . S
H3451 C3460 0.930 . S
H3452 C3465 0.929 . S
H3453 C3463 0.929 . S
H3454 C3458 0.929 . S
H3455 C3464 0.929 . S
C3456 H3450 0.930 . S
C3456 C3457 1.367 . S
C3456 C3464 1.378 . S
C3457 C3456 1.367 . S
C3457 C3465 1.433 . S
C3458 H3454 0.929 . S
C3458 C3460 1.378 . S
C3458 C3462 1.350 . S
C3459 C3462 1.463 . S
C3459 C3464 1.350 . S
C3459 N3467 1.427 . S
C3460 H3451 0.930 . S
C3460 C3458 1.378 . S
C3460 C3461 1.367 . S
C3461 C3460 1.367 . S
C3461 C3463 1.433 . S
C3462 C3458 1.350 . S
C3462 C3459 1.463 . S
C3462 N3466 1.427 . S
C3463 H3453 0.929 . S
C3463 C3461 1.433 . S
C3463 N3466 1.384 . S
C3464 H3455 0.929 . S
C3464 C3456 1.378 . S
C3464 C3459 1.350 . S
C3465 H3452 0.929 . S
C3465 C3457 1.433 . S
C3465 N3467 1.384 . S
N3466 C3462 1.427 . S
N3466 C3463 1.384 . S
N3467 C3459 1.427 . S
N3467 C3465 1.384 . S
H3468 C3474 0.930 . S
H3469 C3478 0.930 . S
H3470 C3483 0.929 . S
H3471 C3481 0.929 . S
H3472 C3476 0.929 . S
H3473 C3482 0.929 . S
C3474 H3468 0.930 . S
C3474 C3475 1.367 . S
C3474 C3482 1.378 . S
C3475 C3474 1.367 . S
C3475 C3483 1.433 . S
C3476 H3472 0.929 . S
C3476 C3478 1.378 . S
C3476 C3480 1.350 . S
C3477 C3480 1.463 . S
C3477 C3482 1.350 . S
C3477 N3485 1.427 . S
C3478 H3469 0.930 . S
C3478 C3476 1.378 . S
C3478 C3479 1.367 . S
C3479 C3478 1.367 . S
C3479 C3481 1.433 . S
C3480 C3476 1.350 . S
C3480 C3477 1.463 . S
C3480 N3484 1.427 . S
C3481 H3471 0.929 . S
C3481 C3479 1.433 . S
C3481 N3484 1.384 . S
C3482 H3473 0.929 . S
C3482 C3474 1.378 . S
C3482 C3477 1.350 . S
C3483 H3470 0.929 . S
C3483 C3475 1.433 . S
C3483 N3485 1.384 . S
N3484 C3480 1.427 . S
N3484 C3481 1.384 . S
N3485 C3477 1.427 . S
N3485 C3483 1.384 . S
H3486 C3492 0.930 . S
H3487 C3496 0.930 . S
H3488 C3501 0.929 . S
H3489 C3499 0.929 . S
H3490 C3494 0.929 . S
H3491 C3500 0.929 . S
C3492 H3486 0.930 . S
C3492 C3493 1.367 . S
C3492 C3500 1.378 . S
C3493 C3492 1.367 . S
C3493 C3501 1.433 . S
C3494 H3490 0.929 . S
C3494 C3496 1.378 . S
C3494 C3498 1.350 . S
C3495 C3498 1.463 . S
C3495 C3500 1.350 . S
C3495 N3503 1.427 . S
C3496 H3487 0.930 . S
C3496 C3494 1.378 . S
C3496 C3497 1.367 . S
C3497 C3496 1.367 . S
C3497 C3499 1.433 . S
C3498 C3494 1.350 . S
C3498 C3495 1.463 . S
C3498 N3502 1.427 . S
C3499 H3489 0.929 . S
C3499 C3497 1.433 . S
C3499 N3502 1.384 . S
C3500 H3491 0.929 . S
C3500 C3492 1.378 . S
C3500 C3495 1.350 . S
C3501 H3488 0.929 . S
C3501 C3493 1.433 . S
C3501 N3503 1.384 . S
N3502 C3498 1.427 . S
N3502 C3499 1.384 . S
N3503 C3495 1.427 . S
N3503 C3501 1.384 . S
H3504 C3510 0.930 . S
H3505 C3514 0.930 . S
H3506 C3519 0.929 . S
H3507 C3517 0.929 . S
H3508 C3512 0.929 . S
H3509 C3518 0.929 . S
C3510 H3504 0.930 . S
C3510 C3511 1.367 . S
C3510 C3518 1.378 1_655 S
C3511 C3510 1.367 . S
C3511 C3519 1.433 1_655 S
C3512 H3508 0.929 . S
C3512 C3514 1.378 . S
C3512 C3516 1.350 . S
C3513 C3516 1.463 . S
C3513 C3518 1.350 . S
C3513 N3521 1.427 . S
C3514 H3505 0.930 . S
C3514 C3512 1.378 . S
C3514 C3515 1.367 . S
C3515 C3514 1.367 . S
C3515 C3517 1.433 . S
C3516 C3512 1.350 . S
C3516 C3513 1.463 . S
C3516 N3520 1.427 . S
C3517 H3507 0.929 . S
C3517 C3515 1.433 . S
C3517 N3520 1.384 . S
C3518 H3509 0.929 . S
C3518 C3510 1.378 1_455 S
C3518 C3513 1.350 . S
C3519 H3506 0.929 . S
C3519 C3511 1.433 1_455 S
C3519 N3521 1.384 . S
N3520 C3516 1.427 . S
N3520 C3517 1.384 . S
N3521 C3513 1.427 . S
N3521 C3519 1.384 . S
H3522 C3528 0.930 . S
H3523 C3532 0.930 . S
H3524 C3537 0.929 . S
H3525 C3535 0.929 . S
H3526 C3530 0.929 . S
H3527 C3536 0.929 . S
C3528 H3522 0.930 . S
C3528 C3529 1.367 . S
C3528 C3536 1.378 . S
C3529 C3528 1.367 . S
C3529 C3537 1.433 . S
C3530 H3526 0.929 . S
C3530 C3532 1.378 . S
C3530 C3534 1.350 . S
C3531 C3534 1.463 . S
C3531 C3536 1.350 . S
C3531 N3539 1.427 . S
C3532 H3523 0.930 . S
C3532 C3530 1.378 . S
C3532 C3533 1.367 . S
C3533 C3532 1.367 . S
C3533 C3535 1.433 . S
C3534 C3530 1.350 . S
C3534 C3531 1.463 . S
C3534 N3538 1.427 . S
C3535 H3525 0.929 . S
C3535 C3533 1.433 . S
C3535 N3538 1.384 . S
C3536 H3527 0.929 . S
C3536 C3528 1.378 . S
C3536 C3531 1.350 . S
C3537 H3524 0.929 . S
C3537 C3529 1.433 . S
C3537 N3539 1.384 . S
N3538 C3534 1.427 . S
N3538 C3535 1.384 . S
N3539 C3531 1.427 . S
N3539 C3537 1.384 . S
H3540 C3546 0.930 . S
H3541 C3550 0.930 . S
H3542 C3555 0.929 . S
H3543 C3553 0.929 . S
H3544 C3548 0.929 . S
H3545 C3554 0.929 . S
C3546 H3540 0.930 . S
C3546 C3547 1.367 . S
C3546 C3554 1.378 . S
C3547 C3546 1.367 . S
C3547 C3555 1.433 . S
C3548 H3544 0.929 . S
C3548 C3550 1.378 1_655 S
C3548 C3552 1.350 . S
C3549 C3552 1.463 . S
C3549 C3554 1.350 . S
C3549 N3557 1.427 . S
C3550 H3541 0.930 . S
C3550 C3548 1.378 1_455 S
C3550 C3551 1.367 . S
C3551 C3550 1.367 . S
C3551 C3553 1.433 1_455 S
C3552 C3548 1.350 . S
C3552 C3549 1.463 . S
C3552 N3556 1.427 . S
C3553 H3543 0.929 . S
C3553 C3551 1.433 1_655 S
C3553 N3556 1.384 . S
C3554 H3545 0.929 . S
C3554 C3546 1.378 . S
C3554 C3549 1.350 . S
C3555 H3542 0.929 . S
C3555 C3547 1.433 . S
C3555 N3557 1.384 . S
N3556 C3552 1.427 . S
N3556 C3553 1.384 . S
N3557 C3549 1.427 . S
N3557 C3555 1.384 . S
H3558 C3564 0.930 . S
H3559 C3568 0.930 . S
H3560 C3573 0.929 . S
H3561 C3571 0.929 . S
H3562 C3566 0.929 . S
H3563 C3572 0.929 . S
C3564 H3558 0.930 . S
C3564 C3565 1.367 . S
C3564 C3572 1.378 . S
C3565 C3564 1.367 . S
C3565 C3573 1.433 . S
C3566 H3562 0.929 . S
C3566 C3568 1.378 . S
C3566 C3570 1.350 . S
C3567 C3570 1.463 . S
C3567 C3572 1.350 . S
C3567 N3575 1.427 . S
C3568 H3559 0.930 . S
C3568 C3566 1.378 . S
C3568 C3569 1.367 . S
C3569 C3568 1.367 . S
C3569 C3571 1.433 . S
C3570 C3566 1.350 . S
C3570 C3567 1.463 . S
C3570 N3574 1.427 . S
C3571 H3561 0.929 . S
C3571 C3569 1.433 . S
C3571 N3574 1.384 . S
C3572 H3563 0.929 . S
C3572 C3564 1.378 . S
C3572 C3567 1.350 . S
C3573 H3560 0.929 . S
C3573 C3565 1.433 . S
C3573 N3575 1.384 . S
N3574 C3570 1.427 . S
N3574 C3571 1.384 . S
N3575 C3567 1.427 . S
N3575 C3573 1.384 . S
H3576 C3582 0.930 . S
H3577 C3586 0.930 . S
H3578 C3591 0.929 . S
H3579 C3589 0.929 . S
H3580 C3584 0.929 . S
H3581 C3590 0.929 . S
C3582 H3576 0.930 . S
C3582 C3583 1.367 . S
C3582 C3590 1.378 1_655 S
C3583 C3582 1.367 . S
C3583 C3591 1.433 1_655 S
C3584 H3580 0.929 . S
C3584 C3586 1.378 . S
C3584 C3588 1.350 . S
C3585 C3588 1.463 . S
C3585 C3590 1.350 . S
C3585 N3593 1.427 . S
C3586 H3577 0.930 . S
C3586 C3584 1.378 . S
C3586 C3587 1.367 . S
C3587 C3586 1.367 . S
C3587 C3589 1.433 . S
C3588 C3584 1.350 . S
C3588 C3585 1.463 . S
C3588 N3592 1.427 . S
C3589 H3579 0.929 . S
C3589 C3587 1.433 . S
C3589 N3592 1.384 . S
C3590 H3581 0.929 . S
C3590 C3582 1.378 1_455 S
C3590 C3585 1.350 . S
C3591 H3578 0.929 . S
C3591 C3583 1.433 1_455 S
C3591 N3593 1.384 . S
N3592 C3588 1.427 . S
N3592 C3589 1.384 . S
N3593 C3585 1.427 . S
N3593 C3591 1.384 . S
H3594 C3600 0.930 . S
H3595 C3604 0.930 . S
H3596 C3609 0.929 . S
H3597 C3607 0.929 . S
H3598 C3602 0.929 . S
H3599 C3608 0.929 . S
C3600 H3594 0.930 . S
C3600 C3601 1.367 . S
C3600 C3608 1.378 . S
C3601 C3600 1.367 . S
C3601 C3609 1.433 . S
C3602 H3598 0.929 . S
C3602 C3604 1.378 . S
C3602 C3606 1.350 . S
C3603 C3606 1.463 . S
C3603 C3608 1.350 . S
C3603 N3611 1.427 . S
C3604 H3595 0.930 . S
C3604 C3602 1.378 . S
C3604 C3605 1.367 . S
C3605 C3604 1.367 . S
C3605 C3607 1.433 . S
C3606 C3602 1.350 . S
C3606 C3603 1.463 . S
C3606 N3610 1.427 . S
C3607 H3597 0.929 . S
C3607 C3605 1.433 . S
C3607 N3610 1.384 . S
C3608 H3599 0.929 . S
C3608 C3600 1.378 . S
C3608 C3603 1.350 . S
C3609 H3596 0.929 . S
C3609 C3601 1.433 . S
C3609 N3611 1.384 . S
N3610 C3606 1.427 . S
N3610 C3607 1.384 . S
N3611 C3603 1.427 . S
N3611 C3609 1.384 . S
H3612 C3618 0.930 . S
H3613 C3622 0.930 . S
H3614 C3627 0.929 . S
H3615 C3625 0.929 . S
H3616 C3620 0.929 . S
H3617 C3626 0.929 . S
C3618 H3612 0.930 . S
C3618 C3619 1.367 1_655 S
C3618 C3626 1.378 . S
C3619 C3618 1.367 1_455 S
C3619 C3627 1.433 . S
C3620 H3616 0.929 . S
C3620 C3622 1.378 . S
C3620 C3624 1.350 . S
C3621 C3624 1.463 . S
C3621 C3626 1.350 . S
C3621 N3629 1.427 . S
C3622 H3613 0.930 . S
C3622 C3620 1.378 . S
C3622 C3623 1.367 . S
C3623 C3622 1.367 . S
C3623 C3625 1.433 . S
C3624 C3620 1.350 . S
C3624 C3621 1.463 . S
C3624 N3628 1.427 . S
C3625 H3615 0.929 . S
C3625 C3623 1.433 . S
C3625 N3628 1.384 . S
C3626 H3617 0.929 . S
C3626 C3618 1.378 . S
C3626 C3621 1.350 . S
C3627 H3614 0.929 . S
C3627 C3619 1.433 . S
C3627 N3629 1.384 1_455 S
N3628 C3624 1.427 . S
N3628 C3625 1.384 . S
N3629 C3621 1.427 . S
N3629 C3627 1.384 1_655 S
H3630 C3636 0.930 . S
H3631 C3640 0.930 . S
H3632 C3645 0.929 . S
H3633 C3643 0.929 . S
H3634 C3638 0.929 . S
H3635 C3644 0.929 . S
C3636 H3630 0.930 . S
C3636 C3637 1.367 . S
C3636 C3644 1.378 . S
C3637 C3636 1.367 . S
C3637 C3645 1.433 . S
C3638 H3634 0.929 . S
C3638 C3640 1.378 . S
C3638 C3642 1.350 . S
C3639 C3642 1.463 . S
C3639 C3644 1.350 . S
C3639 N3647 1.427 . S
C3640 H3631 0.930 . S
C3640 C3638 1.378 . S
C3640 C3641 1.367 . S
C3641 C3640 1.367 . S
C3641 C3643 1.433 . S
C3642 C3638 1.350 . S
C3642 C3639 1.463 . S
C3642 N3646 1.427 . S
C3643 H3633 0.929 . S
C3643 C3641 1.433 . S
C3643 N3646 1.384 . S
C3644 H3635 0.929 . S
C3644 C3636 1.378 . S
C3644 C3639 1.350 . S
C3645 H3632 0.929 . S
C3645 C3637 1.433 . S
C3645 N3647 1.384 . S
N3646 C3642 1.427 . S
N3646 C3643 1.384 . S
N3647 C3639 1.427 . S
N3647 C3645 1.384 . S
H3648 C3654 0.930 . S
H3649 C3658 0.930 . S
H3650 C3663 0.929 . S
H3651 C3661 0.929 . S
H3652 C3656 0.929 . S
H3653 C3662 0.929 . S
C3654 H3648 0.930 . S
C3654 C3655 1.367 . S
C3654 C3662 1.378 1_565 S
C3655 C3654 1.367 . S
C3655 C3663 1.433 1_565 S
C3656 H3652 0.929 . S
C3656 C3658 1.378 . S
C3656 C3660 1.350 . S
C3657 C3660 1.463 . S
C3657 C3662 1.350 . S
C3657 N3665 1.427 . S
C3658 H3649 0.930 . S
C3658 C3656 1.378 . S
C3658 C3659 1.367 . S
C3659 C3658 1.367 . S
C3659 C3661 1.433 . S
C3660 C3656 1.350 . S
C3660 C3657 1.463 . S
C3660 N3664 1.427 . S
C3661 H3651 0.929 . S
C3661 C3659 1.433 . S
C3661 N3664 1.384 . S
C3662 H3653 0.929 . S
C3662 C3654 1.378 1_545 S
C3662 C3657 1.350 . S
C3663 H3650 0.929 . S
C3663 C3655 1.433 1_545 S
C3663 N3665 1.384 . S
N3664 C3660 1.427 . S
N3664 C3661 1.384 . S
N3665 C3657 1.427 . S
N3665 C3663 1.384 . S
H3666 C3672 0.930 . S
H3667 C3676 0.930 . S
H3668 C3681 0.929 . S
H3669 C3679 0.929 . S
H3670 C3674 0.929 . S
H3671 C3680 0.929 . S
C3672 H3666 0.930 . S
C3672 C3673 1.367 . S
C3672 C3680 1.378 1_545 S
C3673 C3672 1.367 . S
C3673 C3681 1.433 1_545 S
C3674 H3670 0.929 . S
C3674 C3676 1.378 . S
C3674 C3678 1.350 . S
C3675 C3678 1.463 . S
C3675 C3680 1.350 . S
C3675 N3683 1.427 . S
C3676 H3667 0.930 . S
C3676 C3674 1.378 . S
C3676 C3677 1.367 . S
C3677 C3676 1.367 . S
C3677 C3679 1.433 . S
C3678 C3674 1.350 . S
C3678 C3675 1.463 . S
C3678 N3682 1.427 . S
C3679 H3669 0.929 . S
C3679 C3677 1.433 . S
C3679 N3682 1.384 . S
C3680 H3671 0.929 . S
C3680 C3672 1.378 1_565 S
C3680 C3675 1.350 . S
C3681 H3668 0.929 . S
C3681 C3673 1.433 1_565 S
C3681 N3683 1.384 . S
N3682 C3678 1.427 . S
N3682 C3679 1.384 . S
N3683 C3675 1.427 . S
N3683 C3681 1.384 . S
H3684 C3690 0.930 . S
H3685 C3694 0.930 . S
H3686 C3699 0.929 . S
H3687 C3697 0.929 . S
H3688 C3692 0.929 . S
H3689 C3698 0.929 . S
C3690 H3684 0.930 . S
C3690 C3691 1.367 . S
C3690 C3698 1.378 . S
C3691 C3690 1.367 . S
C3691 C3699 1.433 . S
C3692 H3688 0.929 . S
C3692 C3694 1.378 . S
C3692 C3696 1.350 . S
C3693 C3696 1.463 . S
C3693 C3698 1.350 . S
C3693 N3701 1.427 . S
C3694 H3685 0.930 . S
C3694 C3692 1.378 . S
C3694 C3695 1.367 . S
C3695 C3694 1.367 . S
C3695 C3697 1.433 . S
C3696 C3692 1.350 . S
C3696 C3693 1.463 . S
C3696 N3700 1.427 . S
C3697 H3687 0.929 . S
C3697 C3695 1.433 . S
C3697 N3700 1.384 . S
C3698 H3689 0.929 . S
C3698 C3690 1.378 . S
C3698 C3693 1.350 . S
C3699 H3686 0.929 . S
C3699 C3691 1.433 . S
C3699 N3701 1.384 . S
N3700 C3696 1.427 . S
N3700 C3697 1.384 . S
N3701 C3693 1.427 . S
N3701 C3699 1.384 . S
H3702 C3708 0.930 . S
H3703 C3712 0.930 . S
H3704 C3717 0.929 . S
H3705 C3715 0.929 . S
H3706 C3710 0.929 . S
H3707 C3716 0.929 . S
C3708 H3702 0.930 . S
C3708 C3709 1.367 . S
C3708 C3716 1.378 . S
C3709 C3708 1.367 . S
C3709 C3717 1.433 . S
C3710 H3706 0.929 . S
C3710 C3712 1.378 . S
C3710 C3714 1.350 . S
C3711 C3714 1.463 . S
C3711 C3716 1.350 . S
C3711 N3719 1.427 . S
C3712 H3703 0.930 . S
C3712 C3710 1.378 . S
C3712 C3713 1.367 . S
C3713 C3712 1.367 . S
C3713 C3715 1.433 . S
C3714 C3710 1.350 . S
C3714 C3711 1.463 . S
C3714 N3718 1.427 . S
C3715 H3705 0.929 . S
C3715 C3713 1.433 . S
C3715 N3718 1.384 . S
C3716 H3707 0.929 . S
C3716 C3708 1.378 . S
C3716 C3711 1.350 . S
C3717 H3704 0.929 . S
C3717 C3709 1.433 . S
C3717 N3719 1.384 . S
N3718 C3714 1.427 . S
N3718 C3715 1.384 . S
N3719 C3711 1.427 . S
N3719 C3717 1.384 . S
H3720 C3726 0.930 . S
H3721 C3730 0.930 . S
H3722 C3735 0.929 . S
H3723 C3733 0.929 . S
H3724 C3728 0.929 . S
H3725 C3734 0.929 . S
C3726 H3720 0.930 . S
C3726 C3727 1.367 . S
C3726 C3734 1.378 . S
C3727 C3726 1.367 . S
C3727 C3735 1.433 . S
C3728 H3724 0.929 . S
C3728 C3730 1.378 . S
C3728 C3732 1.350 . S
C3729 C3732 1.463 . S
C3729 C3734 1.350 . S
C3729 N3737 1.427 . S
C3730 H3721 0.930 . S
C3730 C3728 1.378 . S
C3730 C3731 1.367 . S
C3731 C3730 1.367 . S
C3731 C3733 1.433 . S
C3732 C3728 1.350 . S
C3732 C3729 1.463 . S
C3732 N3736 1.427 . S
C3733 H3723 0.929 . S
C3733 C3731 1.433 . S
C3733 N3736 1.384 . S
C3734 H3725 0.929 . S
C3734 C3726 1.378 . S
C3734 C3729 1.350 . S
C3735 H3722 0.929 . S
C3735 C3727 1.433 . S
C3735 N3737 1.384 . S
N3736 C3732 1.427 . S
N3736 C3733 1.384 . S
N3737 C3729 1.427 . S
N3737 C3735 1.384 . S
H3738 C3744 0.930 . S
H3739 C3748 0.930 . S
H3740 C3753 0.929 . S
H3741 C3751 0.929 . S
H3742 C3746 0.929 . S
H3743 C3752 0.929 . S
C3744 H3738 0.930 . S
C3744 C3745 1.367 1_565 S
C3744 C3752 1.378 . S
C3745 C3744 1.367 1_545 S
C3745 C3753 1.433 . S
C3746 H3742 0.929 . S
C3746 C3748 1.378 . S
C3746 C3750 1.350 . S
C3747 C3750 1.463 . S
C3747 C3752 1.350 . S
C3747 N3755 1.427 . S
C3748 H3739 0.930 . S
C3748 C3746 1.378 . S
C3748 C3749 1.367 . S
C3749 C3748 1.367 . S
C3749 C3751 1.433 . S
C3750 C3746 1.350 . S
C3750 C3747 1.463 . S
C3750 N3754 1.427 . S
C3751 H3741 0.929 . S
C3751 C3749 1.433 . S
C3751 N3754 1.384 . S
C3752 H3743 0.929 . S
C3752 C3744 1.378 . S
C3752 C3747 1.350 . S
C3753 H3740 0.929 . S
C3753 C3745 1.433 . S
C3753 N3755 1.384 1_545 S
N3754 C3750 1.427 . S
N3754 C3751 1.384 . S
N3755 C3747 1.427 . S
N3755 C3753 1.384 1_565 S
H3756 C3762 0.930 . S
H3757 C3766 0.930 . S
H3758 C3771 0.929 . S
H3759 C3769 0.929 . S
H3760 C3764 0.929 . S
H3761 C3770 0.929 . S
C3762 H3756 0.930 . S
C3762 C3763 1.367 . S
C3762 C3770 1.378 . S
C3763 C3762 1.367 . S
C3763 C3771 1.433 . S
C3764 H3760 0.929 . S
C3764 C3766 1.378 . S
C3764 C3768 1.350 . S
C3765 C3768 1.463 . S
C3765 C3770 1.350 . S
C3765 N3773 1.427 . S
C3766 H3757 0.930 . S
C3766 C3764 1.378 . S
C3766 C3767 1.367 . S
C3767 C3766 1.367 . S
C3767 C3769 1.433 . S
C3768 C3764 1.350 . S
C3768 C3765 1.463 . S
C3768 N3772 1.427 . S
C3769 H3759 0.929 . S
C3769 C3767 1.433 . S
C3769 N3772 1.384 . S
C3770 H3761 0.929 . S
C3770 C3762 1.378 . S
C3770 C3765 1.350 . S
C3771 H3758 0.929 . S
C3771 C3763 1.433 . S
C3771 N3773 1.384 . S
N3772 C3768 1.427 . S
N3772 C3769 1.384 . S
N3773 C3765 1.427 . S
N3773 C3771 1.384 . S
H3774 C3780 0.930 . S
H3775 C3784 0.930 . S
H3776 C3789 0.929 . S
H3777 C3787 0.929 . S
H3778 C3782 0.929 . S
H3779 C3788 0.929 . S
C3780 H3774 0.930 . S
C3780 C3781 1.367 . S
C3780 C3788 1.378 . S
C3781 C3780 1.367 . S
C3781 C3789 1.433 . S
C3782 H3778 0.929 . S
C3782 C3784 1.378 . S
C3782 C3786 1.350 . S
C3783 C3786 1.463 . S
C3783 C3788 1.350 . S
C3783 N3791 1.427 . S
C3784 H3775 0.930 . S
C3784 C3782 1.378 . S
C3784 C3785 1.367 . S
C3785 C3784 1.367 . S
C3785 C3787 1.433 . S
C3786 C3782 1.350 . S
C3786 C3783 1.463 . S
C3786 N3790 1.427 . S
C3787 H3777 0.929 . S
C3787 C3785 1.433 . S
C3787 N3790 1.384 . S
C3788 H3779 0.929 . S
C3788 C3780 1.378 . S
C3788 C3783 1.350 . S
C3789 H3776 0.929 . S
C3789 C3781 1.433 . S
C3789 N3791 1.384 . S
N3790 C3786 1.427 . S
N3790 C3787 1.384 . S
N3791 C3783 1.427 . S
N3791 C3789 1.384 . S
H3792 C3798 0.930 . S
H3793 C3802 0.930 . S
H3794 C3807 0.929 . S
H3795 C3805 0.929 . S
H3796 C3800 0.929 . S
H3797 C3806 0.929 . S
C3798 H3792 0.930 . S
C3798 C3799 1.367 . S
C3798 C3806 1.378 . S
C3799 C3798 1.367 . S
C3799 C3807 1.433 . S
C3800 H3796 0.929 . S
C3800 C3802 1.378 . S
C3800 C3804 1.350 . S
C3801 C3804 1.463 . S
C3801 C3806 1.350 . S
C3801 N3809 1.427 . S
C3802 H3793 0.930 . S
C3802 C3800 1.378 . S
C3802 C3803 1.367 . S
C3803 C3802 1.367 . S
C3803 C3805 1.433 . S
C3804 C3800 1.350 . S
C3804 C3801 1.463 . S
C3804 N3808 1.427 . S
C3805 H3795 0.929 . S
C3805 C3803 1.433 . S
C3805 N3808 1.384 . S
C3806 H3797 0.929 . S
C3806 C3798 1.378 . S
C3806 C3801 1.350 . S
C3807 H3794 0.929 . S
C3807 C3799 1.433 . S
C3807 N3809 1.384 . S
N3808 C3804 1.427 . S
N3808 C3805 1.384 . S
N3809 C3801 1.427 . S
N3809 C3807 1.384 . S
H3810 C3816 0.930 . S
H3811 C3820 0.930 . S
H3812 C3825 0.929 . S
H3813 C3823 0.929 . S
H3814 C3818 0.929 . S
H3815 C3824 0.929 . S
C3816 H3810 0.930 . S
C3816 C3817 1.367 . S
C3816 C3824 1.378 . S
C3817 C3816 1.367 . S
C3817 C3825 1.433 . S
C3818 H3814 0.929 . S
C3818 C3820 1.378 . S
C3818 C3822 1.350 . S
C3819 C3822 1.463 . S
C3819 C3824 1.350 . S
C3819 N3827 1.427 . S
C3820 H3811 0.930 . S
C3820 C3818 1.378 . S
C3820 C3821 1.367 . S
C3821 C3820 1.367 . S
C3821 C3823 1.433 . S
C3822 C3818 1.350 . S
C3822 C3819 1.463 . S
C3822 N3826 1.427 . S
C3823 H3813 0.929 . S
C3823 C3821 1.433 . S
C3823 N3826 1.384 . S
C3824 H3815 0.929 . S
C3824 C3816 1.378 . S
C3824 C3819 1.350 . S
C3825 H3812 0.929 . S
C3825 C3817 1.433 . S
C3825 N3827 1.384 . S
N3826 C3822 1.427 . S
N3826 C3823 1.384 . S
N3827 C3819 1.427 . S
N3827 C3825 1.384 . S
H3828 C3834 0.930 . S
H3829 C3838 0.930 . S
H3830 C3843 0.929 . S
H3831 C3841 0.929 . S
H3832 C3836 0.929 . S
H3833 C3842 0.929 . S
C3834 H3828 0.930 . S
C3834 C3835 1.367 . S
C3834 C3842 1.378 . S
C3835 C3834 1.367 . S
C3835 C3843 1.433 . S
C3836 H3832 0.929 . S
C3836 C3838 1.378 . S
C3836 C3840 1.350 . S
C3837 C3840 1.463 . S
C3837 C3842 1.350 . S
C3837 N3845 1.427 . S
C3838 H3829 0.930 . S
C3838 C3836 1.378 . S
C3838 C3839 1.367 . S
C3839 C3838 1.367 . S
C3839 C3841 1.433 . S
C3840 C3836 1.350 . S
C3840 C3837 1.463 . S
C3840 N3844 1.427 . S
C3841 H3831 0.929 . S
C3841 C3839 1.433 . S
C3841 N3844 1.384 . S
C3842 H3833 0.929 . S
C3842 C3834 1.378 . S
C3842 C3837 1.350 . S
C3843 H3830 0.929 . S
C3843 C3835 1.433 . S
C3843 N3845 1.384 . S
N3844 C3840 1.427 . S
N3844 C3841 1.384 . S
N3845 C3837 1.427 . S
N3845 C3843 1.384 . S
H3846 C3852 0.930 . S
H3847 C3856 0.930 . S
H3848 C3861 0.929 . S
H3849 C3859 0.929 . S
H3850 C3854 0.929 . S
H3851 C3860 0.929 . S
C3852 H3846 0.930 . S
C3852 C3853 1.367 . S
C3852 C3860 1.378 . S
C3853 C3852 1.367 . S
C3853 C3861 1.433 . S
C3854 H3850 0.929 . S
C3854 C3856 1.378 . S
C3854 C3858 1.350 . S
C3855 C3858 1.463 . S
C3855 C3860 1.350 . S
C3855 N3863 1.427 . S
C3856 H3847 0.930 . S
C3856 C3854 1.378 . S
C3856 C3857 1.367 . S
C3857 C3856 1.367 . S
C3857 C3859 1.433 . S
C3858 C3854 1.350 . S
C3858 C3855 1.463 . S
C3858 N3862 1.427 . S
C3859 H3849 0.929 . S
C3859 C3857 1.433 . S
C3859 N3862 1.384 . S
C3860 H3851 0.929 . S
C3860 C3852 1.378 . S
C3860 C3855 1.350 . S
C3861 H3848 0.929 . S
C3861 C3853 1.433 . S
C3861 N3863 1.384 . S
N3862 C3858 1.427 . S
N3862 C3859 1.384 . S
N3863 C3855 1.427 . S
N3863 C3861 1.384 . S
H3864 C3870 0.930 . S
H3865 C3874 0.930 1_554 S
H3866 C3879 0.929 . S
H3867 C3877 0.930 1_554 S
H3868 C3872 0.929 . S
H3869 C3878 0.929 . S
C3870 H3864 0.930 . S
C3870 C3871 1.367 . S
C3870 C3878 1.378 . S
C3871 C3870 1.367 . S
C3871 C3879 1.433 . S
C3872 H3868 0.929 . S
C3872 C3874 1.378 . S
C3872 C3876 1.350 . S
C3873 C3876 1.463 . S
C3873 C3878 1.350 . S
C3873 N3881 1.427 . S
C3874 H3865 0.930 1_556 S
C3874 C3872 1.378 . S
C3874 C3875 1.367 1_556 S
C3875 C3874 1.367 1_554 S
C3875 C3877 1.434 1_554 S
C3876 C3872 1.350 . S
C3876 C3873 1.463 . S
C3876 N3880 1.427 . S
C3877 H3867 0.930 1_556 S
C3877 C3875 1.434 1_556 S
C3877 N3880 1.382 . S
C3878 H3869 0.929 . S
C3878 C3870 1.378 . S
C3878 C3873 1.350 . S
C3879 H3866 0.929 . S
C3879 C3871 1.433 . S
C3879 N3881 1.384 . S
N3880 C3876 1.427 . S
N3880 C3877 1.382 . S
N3881 C3873 1.427 . S
N3881 C3879 1.384 . S
H3882 C3888 0.930 . S
H3883 C3892 0.930 . S
H3884 C3897 0.929 . S
H3885 C3895 0.929 . S
H3886 C3890 0.929 . S
H3887 C3896 0.929 . S
C3888 H3882 0.930 . S
C3888 C3889 1.367 . S
C3888 C3896 1.378 . S
C3889 C3888 1.367 . S
C3889 C3897 1.433 . S
C3890 H3886 0.929 . S
C3890 C3892 1.378 . S
C3890 C3894 1.350 . S
C3891 C3894 1.463 . S
C3891 C3896 1.350 . S
C3891 N3899 1.427 . S
C3892 H3883 0.930 . S
C3892 C3890 1.378 . S
C3892 C3893 1.367 . S
C3893 C3892 1.367 . S
C3893 C3895 1.433 . S
C3894 C3890 1.350 . S
C3894 C3891 1.463 . S
C3894 N3898 1.427 . S
C3895 H3885 0.929 . S
C3895 C3893 1.433 . S
C3895 N3898 1.384 . S
C3896 H3887 0.929 . S
C3896 C3888 1.378 . S
C3896 C3891 1.350 . S
C3897 H3884 0.929 . S
C3897 C3889 1.433 . S
C3897 N3899 1.384 . S
N3898 C3894 1.427 . S
N3898 C3895 1.384 . S
N3899 C3891 1.427 . S
N3899 C3897 1.384 . S
H3900 C3906 0.930 . S
H3901 C3910 0.930 . S
H3902 C3915 0.929 . S
H3903 C3913 0.929 . S
H3904 C3908 0.929 . S
H3905 C3914 0.929 . S
C3906 H3900 0.930 . S
C3906 C3907 1.367 1_556 S
C3906 C3914 1.378 . S
C3907 C3906 1.367 1_554 S
C3907 C3915 1.433 . S
C3908 H3904 0.929 . S
C3908 C3910 1.378 . S
C3908 C3912 1.350 . S
C3909 C3912 1.463 . S
C3909 C3914 1.350 . S
C3909 N3917 1.427 . S
C3910 H3901 0.930 . S
C3910 C3908 1.378 . S
C3910 C3911 1.367 . S
C3911 C3910 1.367 . S
C3911 C3913 1.433 . S
C3912 C3908 1.350 . S
C3912 C3909 1.463 . S
C3912 N3916 1.427 . S
C3913 H3903 0.929 . S
C3913 C3911 1.433 . S
C3913 N3916 1.384 . S
C3914 H3905 0.929 . S
C3914 C3906 1.378 . S
C3914 C3909 1.350 . S
C3915 H3902 0.929 . S
C3915 C3907 1.433 . S
C3915 N3917 1.384 1_554 S
N3916 C3912 1.427 . S
N3916 C3913 1.384 . S
N3917 C3909 1.427 . S
N3917 C3915 1.384 1_556 S
H3918 C3924 0.930 . S
H3919 C3928 0.930 . S
H3920 C3933 0.929 . S
H3921 C3931 0.929 . S
H3922 C3926 0.929 . S
H3923 C3932 0.929 . S
C3924 H3918 0.930 . S
C3924 C3925 1.367 . S
C3924 C3932 1.378 . S
C3925 C3924 1.367 . S
C3925 C3933 1.433 . S
C3926 H3922 0.929 . S
C3926 C3928 1.378 . S
C3926 C3930 1.350 . S
C3927 C3930 1.463 . S
C3927 C3932 1.350 . S
C3927 N3935 1.427 . S
C3928 H3919 0.930 . S
C3928 C3926 1.378 . S
C3928 C3929 1.367 . S
C3929 C3928 1.367 . S
C3929 C3931 1.433 . S
C3930 C3926 1.350 . S
C3930 C3927 1.463 . S
C3930 N3934 1.427 . S
C3931 H3921 0.929 . S
C3931 C3929 1.433 . S
C3931 N3934 1.384 . S
C3932 H3923 0.929 . S
C3932 C3924 1.378 . S
C3932 C3927 1.350 . S
C3933 H3920 0.929 . S
C3933 C3925 1.433 . S
C3933 N3935 1.384 . S
N3934 C3930 1.427 . S
N3934 C3931 1.384 . S
N3935 C3927 1.427 . S
N3935 C3933 1.384 . S
H3936 C3942 0.930 . S
H3937 C3946 0.930 . S
H3938 C3951 0.929 . S
H3939 C3949 0.929 . S
H3940 C3944 0.929 . S
H3941 C3950 0.929 . S
C3942 H3936 0.930 . S
C3942 C3943 1.367 . S
C3942 C3950 1.378 . S
C3943 C3942 1.367 . S
C3943 C3951 1.433 . S
C3944 H3940 0.929 . S
C3944 C3946 1.378 . S
C3944 C3948 1.350 . S
C3945 C3948 1.463 . S
C3945 C3950 1.350 . S
C3945 N3953 1.427 . S
C3946 H3937 0.930 . S
C3946 C3944 1.378 . S
C3946 C3947 1.367 . S
C3947 C3946 1.367 . S
C3947 C3949 1.433 . S
C3948 C3944 1.350 . S
C3948 C3945 1.463 . S
C3948 N3952 1.427 . S
C3949 H3939 0.929 . S
C3949 C3947 1.433 . S
C3949 N3952 1.384 . S
C3950 H3941 0.929 . S
C3950 C3942 1.378 . S
C3950 C3945 1.350 . S
C3951 H3938 0.929 . S
C3951 C3943 1.433 . S
C3951 N3953 1.384 . S
N3952 C3948 1.427 . S
N3952 C3949 1.384 . S
N3953 C3945 1.427 . S
N3953 C3951 1.384 . S
H3954 C3960 0.930 . S
H3955 C3964 0.930 . S
H3956 C3969 0.929 . S
H3957 C3967 0.929 . S
H3958 C3962 0.929 . S
H3959 C3968 0.929 . S
C3960 H3954 0.930 . S
C3960 C3961 1.367 . S
C3960 C3968 1.378 . S
C3961 C3960 1.367 . S
C3961 C3969 1.433 . S
C3962 H3958 0.929 . S
C3962 C3964 1.378 . S
C3962 C3966 1.350 . S
C3963 C3966 1.463 . S
C3963 C3968 1.350 . S
C3963 N3971 1.427 . S
C3964 H3955 0.930 . S
C3964 C3962 1.378 . S
C3964 C3965 1.367 . S
C3965 C3964 1.367 . S
C3965 C3967 1.433 . S
C3966 C3962 1.350 . S
C3966 C3963 1.463 . S
C3966 N3970 1.427 . S
C3967 H3957 0.929 . S
C3967 C3965 1.433 . S
C3967 N3970 1.384 . S
C3968 H3959 0.929 . S
C3968 C3960 1.378 . S
C3968 C3963 1.350 . S
C3969 H3956 0.929 . S
C3969 C3961 1.433 . S
C3969 N3971 1.384 . S
N3970 C3966 1.427 . S
N3970 C3967 1.384 . S
N3971 C3963 1.427 . S
N3971 C3969 1.384 . S
H3972 C3978 0.930 . S
H3973 C3982 0.930 . S
H3974 C3987 0.929 . S
H3975 C3985 0.929 . S
H3976 C3980 0.929 . S
H3977 C3986 0.929 . S
C3978 H3972 0.930 . S
C3978 C3979 1.367 . S
C3978 C3986 1.378 . S
C3979 C3978 1.367 . S
C3979 C3987 1.433 . S
C3980 H3976 0.929 . S
C3980 C3982 1.378 . S
C3980 C3984 1.350 . S
C3981 C3984 1.463 . S
C3981 C3986 1.350 . S
C3981 N3989 1.427 . S
C3982 H3973 0.930 . S
C3982 C3980 1.378 . S
C3982 C3983 1.367 . S
C3983 C3982 1.367 . S
C3983 C3985 1.433 . S
C3984 C3980 1.350 . S
C3984 C3981 1.463 . S
C3984 N3988 1.427 . S
C3985 H3975 0.929 . S
C3985 C3983 1.433 . S
C3985 N3988 1.384 . S
C3986 H3977 0.929 . S
C3986 C3978 1.378 . S
C3986 C3981 1.350 . S
C3987 H3974 0.929 . S
C3987 C3979 1.433 . S
C3987 N3989 1.384 . S
N3988 C3984 1.427 . S
N3988 C3985 1.384 . S
N3989 C3981 1.427 . S
N3989 C3987 1.384 . S
H3990 C3996 0.930 . S
H3991 C4000 0.930 . S
H3992 C4005 0.929 . S
H3993 C4003 0.929 . S
H3994 C3998 0.929 . S
H3995 C4004 0.929 . S
C3996 H3990 0.930 . S
C3996 C3997 1.367 . S
C3996 C4004 1.378 . S
C3997 C3996 1.367 . S
C3997 C4005 1.433 . S
C3998 H3994 0.929 . S
C3998 C4000 1.378 . S
C3998 C4002 1.350 . S
C3999 C4002 1.463 . S
C3999 C4004 1.350 . S
C3999 N4007 1.427 . S
C4000 H3991 0.930 . S
C4000 C3998 1.378 . S
C4000 C4001 1.367 . S
C4001 C4000 1.367 . S
C4001 C4003 1.433 . S
C4002 C3998 1.350 . S
C4002 C3999 1.463 . S
C4002 N4006 1.427 . S
C4003 H3993 0.929 . S
C4003 C4001 1.433 . S
C4003 N4006 1.384 . S
C4004 H3995 0.929 . S
C4004 C3996 1.378 . S
C4004 C3999 1.350 . S
C4005 H3992 0.929 . S
C4005 C3997 1.433 . S
C4005 N4007 1.384 . S
N4006 C4002 1.427 . S
N4006 C4003 1.384 . S
N4007 C3999 1.427 . S
N4007 C4005 1.384 . S
H4008 C4014 0.930 . S
H4009 C4018 0.930 . S
H4010 C4023 0.929 . S
H4011 C4021 0.929 . S
H4012 C4016 0.929 . S
H4013 C4022 0.929 . S
C4014 H4008 0.930 . S
C4014 C4015 1.367 . S
C4014 C4022 1.378 . S
C4015 C4014 1.367 . S
C4015 C4023 1.433 . S
C4016 H4012 0.929 . S
C4016 C4018 1.378 . S
C4016 C4020 1.350 . S
C4017 C4020 1.463 . S
C4017 C4022 1.350 . S
C4017 N4025 1.427 . S
C4018 H4009 0.930 . S
C4018 C4016 1.378 . S
C4018 C4019 1.367 . S
C4019 C4018 1.367 . S
C4019 C4021 1.433 . S
C4020 C4016 1.350 . S
C4020 C4017 1.463 . S
C4020 N4024 1.427 . S
C4021 H4011 0.929 . S
C4021 C4019 1.433 . S
C4021 N4024 1.384 . S
C4022 H4013 0.929 . S
C4022 C4014 1.378 . S
C4022 C4017 1.350 . S
C4023 H4010 0.929 . S
C4023 C4015 1.433 . S
C4023 N4025 1.384 . S
N4024 C4020 1.427 . S
N4024 C4021 1.384 . S
N4025 C4017 1.427 . S
N4025 C4023 1.384 . S
H4026 C4032 0.930 . S
H4027 C4036 0.930 . S
H4028 C4041 0.929 . S
H4029 C4039 0.929 . S
H4030 C4034 0.929 . S
H4031 C4040 0.929 . S
C4032 H4026 0.930 . S
C4032 C4033 1.367 . S
C4032 C4040 1.378 . S
C4033 C4032 1.367 . S
C4033 C4041 1.433 . S
C4034 H4030 0.929 . S
C4034 C4036 1.378 . S
C4034 C4038 1.350 . S
C4035 C4038 1.463 . S
C4035 C4040 1.350 . S
C4035 N4043 1.427 . S
C4036 H4027 0.930 . S
C4036 C4034 1.378 . S
C4036 C4037 1.367 . S
C4037 C4036 1.367 . S
C4037 C4039 1.433 . S
C4038 C4034 1.350 . S
C4038 C4035 1.463 . S
C4038 N4042 1.427 . S
C4039 H4029 0.929 . S
C4039 C4037 1.433 . S
C4039 N4042 1.384 . S
C4040 H4031 0.929 . S
C4040 C4032 1.378 . S
C4040 C4035 1.350 . S
C4041 H4028 0.929 . S
C4041 C4033 1.433 . S
C4041 N4043 1.384 . S
N4042 C4038 1.427 . S
N4042 C4039 1.384 . S
N4043 C4035 1.427 . S
N4043 C4041 1.384 . S
H4044 C4050 0.930 . S
H4045 C4054 0.930 . S
H4046 C4059 0.929 . S
H4047 C4057 0.929 . S
H4048 C4052 0.929 . S
H4049 C4058 0.929 . S
C4050 H4044 0.930 . S
C4050 C4051 1.367 . S
C4050 C4058 1.378 . S
C4051 C4050 1.367 . S
C4051 C4059 1.433 . S
C4052 H4048 0.929 . S
C4052 C4054 1.378 . S
C4052 C4056 1.350 . S
C4053 C4056 1.463 . S
C4053 C4058 1.350 . S
C4053 N4061 1.427 . S
C4054 H4045 0.930 . S
C4054 C4052 1.378 . S
C4054 C4055 1.367 . S
C4055 C4054 1.367 . S
C4055 C4057 1.433 . S
C4056 C4052 1.350 . S
C4056 C4053 1.463 . S
C4056 N4060 1.427 . S
C4057 H4047 0.929 . S
C4057 C4055 1.433 . S
C4057 N4060 1.384 . S
C4058 H4049 0.929 . S
C4058 C4050 1.378 . S
C4058 C4053 1.350 . S
C4059 H4046 0.929 . S
C4059 C4051 1.433 . S
C4059 N4061 1.384 . S
N4060 C4056 1.427 . S
N4060 C4057 1.384 . S
N4061 C4053 1.427 . S
N4061 C4059 1.384 . S
H4062 C4068 0.930 . S
H4063 C4072 0.930 . S
H4064 C4077 0.929 . S
H4065 C4075 0.929 . S
H4066 C4070 0.929 . S
H4067 C4076 0.929 . S
C4068 H4062 0.930 . S
C4068 C4069 1.367 . S
C4068 C4076 1.378 . S
C4069 C4068 1.367 . S
C4069 C4077 1.433 . S
C4070 H4066 0.929 . S
C4070 C4072 1.378 . S
C4070 C4074 1.350 . S
C4071 C4074 1.463 . S
C4071 C4076 1.350 . S
C4071 N4079 1.427 . S
C4072 H4063 0.930 . S
C4072 C4070 1.378 . S
C4072 C4073 1.367 . S
C4073 C4072 1.367 . S
C4073 C4075 1.433 . S
C4074 C4070 1.350 . S
C4074 C4071 1.463 . S
C4074 N4078 1.427 . S
C4075 H4065 0.929 . S
C4075 C4073 1.433 . S
C4075 N4078 1.384 . S
C4076 H4067 0.929 . S
C4076 C4068 1.378 . S
C4076 C4071 1.350 . S
C4077 H4064 0.929 . S
C4077 C4069 1.433 . S
C4077 N4079 1.384 . S
N4078 C4074 1.427 . S
N4078 C4075 1.384 . S
N4079 C4071 1.427 . S
N4079 C4077 1.384 . S
H4080 C4086 0.930 . S
H4081 C4090 0.930 . S
H4082 C4095 0.929 . S
H4083 C4093 0.929 . S
H4084 C4088 0.929 . S
H4085 C4094 0.929 . S
C4086 H4080 0.930 . S
C4086 C4087 1.367 . S
C4086 C4094 1.378 . S
C4087 C4086 1.367 . S
C4087 C4095 1.433 . S
C4088 H4084 0.929 . S
C4088 C4090 1.378 . S
C4088 C4092 1.350 . S
C4089 C4092 1.463 . S
C4089 C4094 1.350 . S
C4089 N4097 1.427 . S
C4090 H4081 0.930 . S
C4090 C4088 1.378 . S
C4090 C4091 1.367 . S
C4091 C4090 1.367 . S
C4091 C4093 1.433 . S
C4092 C4088 1.350 . S
C4092 C4089 1.463 . S
C4092 N4096 1.427 . S
C4093 H4083 0.929 . S
C4093 C4091 1.433 . S
C4093 N4096 1.384 . S
C4094 H4085 0.929 . S
C4094 C4086 1.378 . S
C4094 C4089 1.350 . S
C4095 H4082 0.929 . S
C4095 C4087 1.433 . S
C4095 N4097 1.384 . S
N4096 C4092 1.427 . S
N4096 C4093 1.384 . S
N4097 C4089 1.427 . S
N4097 C4095 1.384 . S
H4098 C4104 0.930 . S
H4099 C4108 0.930 . S
H4100 C4113 0.929 . S
H4101 C4111 0.929 . S
H4102 C4106 0.929 . S
H4103 C4112 0.929 . S
C4104 H4098 0.930 . S
C4104 C4105 1.367 . S
C4104 C4112 1.378 . S
C4105 C4104 1.367 . S
C4105 C4113 1.433 . S
C4106 H4102 0.929 . S
C4106 C4108 1.378 . S
C4106 C4110 1.350 . S
C4107 C4110 1.463 . S
C4107 C4112 1.350 . S
C4107 N4115 1.427 . S
C4108 H4099 0.930 . S
C4108 C4106 1.378 . S
C4108 C4109 1.367 . S
C4109 C4108 1.367 . S
C4109 C4111 1.433 . S
C4110 C4106 1.350 . S
C4110 C4107 1.463 . S
C4110 N4114 1.427 . S
C4111 H4101 0.929 . S
C4111 C4109 1.433 . S
C4111 N4114 1.384 . S
C4112 H4103 0.929 . S
C4112 C4104 1.378 . S
C4112 C4107 1.350 . S
C4113 H4100 0.929 . S
C4113 C4105 1.433 . S
C4113 N4115 1.384 . S
N4114 C4110 1.427 . S
N4114 C4111 1.384 . S
N4115 C4107 1.427 . S
N4115 C4113 1.384 . S
H4116 C4122 0.930 . S
H4117 C4126 0.930 . S
H4118 C4131 0.929 . S
H4119 C4129 0.929 . S
H4120 C4124 0.929 . S
H4121 C4130 0.929 . S
C4122 H4116 0.930 . S
C4122 C4123 1.367 . S
C4122 C4130 1.378 . S
C4123 C4122 1.367 . S
C4123 C4131 1.433 . S
C4124 H4120 0.929 . S
C4124 C4126 1.378 . S
C4124 C4128 1.350 . S
C4125 C4128 1.463 . S
C4125 C4130 1.350 . S
C4125 N4133 1.427 . S
C4126 H4117 0.930 . S
C4126 C4124 1.378 . S
C4126 C4127 1.367 . S
C4127 C4126 1.367 . S
C4127 C4129 1.433 . S
C4128 C4124 1.350 . S
C4128 C4125 1.463 . S
C4128 N4132 1.427 . S
C4129 H4119 0.929 . S
C4129 C4127 1.433 . S
C4129 N4132 1.384 . S
C4130 H4121 0.929 . S
C4130 C4122 1.378 . S
C4130 C4125 1.350 . S
C4131 H4118 0.929 . S
C4131 C4123 1.433 . S
C4131 N4133 1.384 . S
N4132 C4128 1.427 . S
N4132 C4129 1.384 . S
N4133 C4125 1.427 . S
N4133 C4131 1.384 . S
H4134 C4140 0.930 . S
H4135 C4144 0.930 . S
H4136 C4149 0.929 . S
H4137 C4147 0.929 . S
H4138 C4142 0.929 . S
H4139 C4148 0.929 . S
C4140 H4134 0.930 . S
C4140 C4141 1.367 . S
C4140 C4148 1.378 1_565 S
C4141 C4140 1.367 . S
C4141 C4149 1.433 1_565 S
C4142 H4138 0.929 . S
C4142 C4144 1.378 . S
C4142 C4146 1.350 . S
C4143 C4146 1.463 . S
C4143 C4148 1.350 . S
C4143 N4151 1.427 . S
C4144 H4135 0.930 . S
C4144 C4142 1.378 . S
C4144 C4145 1.367 . S
C4145 C4144 1.367 . S
C4145 C4147 1.433 . S
C4146 C4142 1.350 . S
C4146 C4143 1.463 . S
C4146 N4150 1.427 . S
C4147 H4137 0.929 . S
C4147 C4145 1.433 . S
C4147 N4150 1.384 . S
C4148 H4139 0.929 . S
C4148 C4140 1.378 1_545 S
C4148 C4143 1.350 . S
C4149 H4136 0.929 . S
C4149 C4141 1.433 1_545 S
C4149 N4151 1.384 . S
N4150 C4146 1.427 . S
N4150 C4147 1.384 . S
N4151 C4143 1.427 . S
N4151 C4149 1.384 . S
H4152 C4158 0.930 . S
H4153 C4162 0.930 . S
H4154 C4167 0.929 . S
H4155 C4165 0.929 . S
H4156 C4160 0.929 . S
H4157 C4166 0.929 . S
C4158 H4152 0.930 . S
C4158 C4159 1.367 . S
C4158 C4166 1.378 . S
C4159 C4158 1.367 . S
C4159 C4167 1.433 . S
C4160 H4156 0.929 . S
C4160 C4162 1.378 . S
C4160 C4164 1.350 . S
C4161 C4164 1.463 . S
C4161 C4166 1.350 . S
C4161 N4169 1.427 . S
C4162 H4153 0.930 . S
C4162 C4160 1.378 . S
C4162 C4163 1.367 . S
C4163 C4162 1.367 . S
C4163 C4165 1.433 . S
C4164 C4160 1.350 . S
C4164 C4161 1.463 . S
C4164 N4168 1.427 . S
C4165 H4155 0.929 . S
C4165 C4163 1.433 . S
C4165 N4168 1.384 . S
C4166 H4157 0.929 . S
C4166 C4158 1.378 . S
C4166 C4161 1.350 . S
C4167 H4154 0.929 . S
C4167 C4159 1.433 . S
C4167 N4169 1.384 . S
N4168 C4164 1.427 . S
N4168 C4165 1.384 . S
N4169 C4161 1.427 . S
N4169 C4167 1.384 . S
H4170 C4176 0.930 . S
H4171 C4180 0.930 . S
H4172 C4185 0.929 . S
H4173 C4183 0.929 . S
H4174 C4178 0.929 . S
H4175 C4184 0.929 . S
C4176 H4170 0.930 . S
C4176 C4177 1.367 . S
C4176 C4184 1.378 . S
C4177 C4176 1.367 . S
C4177 C4185 1.433 . S
C4178 H4174 0.929 . S
C4178 C4180 1.378 . S
C4178 C4182 1.350 . S
C4179 C4182 1.463 . S
C4179 C4184 1.350 . S
C4179 N4187 1.427 . S
C4180 H4171 0.930 . S
C4180 C4178 1.378 . S
C4180 C4181 1.367 . S
C4181 C4180 1.367 . S
C4181 C4183 1.433 . S
C4182 C4178 1.350 . S
C4182 C4179 1.463 . S
C4182 N4186 1.427 . S
C4183 H4173 0.929 . S
C4183 C4181 1.433 . S
C4183 N4186 1.384 . S
C4184 H4175 0.929 . S
C4184 C4176 1.378 . S
C4184 C4179 1.350 . S
C4185 H4172 0.929 . S
C4185 C4177 1.433 . S
C4185 N4187 1.384 . S
N4186 C4182 1.427 . S
N4186 C4183 1.384 . S
N4187 C4179 1.427 . S
N4187 C4185 1.384 . S
H4188 C4194 0.930 . S
H4189 C4198 0.930 . S
H4190 C4203 0.929 . S
H4191 C4201 0.929 . S
H4192 C4196 0.929 . S
H4193 C4202 0.929 . S
C4194 H4188 0.930 . S
C4194 C4195 1.367 . S
C4194 C4202 1.378 . S
C4195 C4194 1.367 . S
C4195 C4203 1.433 . S
C4196 H4192 0.929 . S
C4196 C4198 1.378 . S
C4196 C4200 1.350 . S
C4197 C4200 1.463 . S
C4197 C4202 1.350 . S
C4197 N4205 1.427 . S
C4198 H4189 0.930 . S
C4198 C4196 1.378 . S
C4198 C4199 1.367 . S
C4199 C4198 1.367 . S
C4199 C4201 1.433 . S
C4200 C4196 1.350 . S
C4200 C4197 1.463 . S
C4200 N4204 1.427 . S
C4201 H4191 0.929 . S
C4201 C4199 1.433 . S
C4201 N4204 1.384 . S
C4202 H4193 0.929 . S
C4202 C4194 1.378 . S
C4202 C4197 1.350 . S
C4203 H4190 0.929 . S
C4203 C4195 1.433 . S
C4203 N4205 1.384 . S
N4204 C4200 1.427 . S
N4204 C4201 1.384 . S
N4205 C4197 1.427 . S
N4205 C4203 1.384 . S
H4206 C4212 0.930 . S
H4207 C4216 0.930 . S
H4208 C4221 0.929 . S
H4209 C4219 0.929 . S
H4210 C4214 0.929 . S
H4211 C4220 0.929 . S
C4212 H4206 0.930 . S
C4212 C4213 1.367 . S
C4212 C4220 1.378 . S
C4213 C4212 1.367 . S
C4213 C4221 1.433 . S
C4214 H4210 0.929 . S
C4214 C4216 1.378 . S
C4214 C4218 1.350 . S
C4215 C4218 1.463 . S
C4215 C4220 1.350 . S
C4215 N4223 1.427 . S
C4216 H4207 0.930 . S
C4216 C4214 1.378 . S
C4216 C4217 1.367 . S
C4217 C4216 1.367 . S
C4217 C4219 1.433 . S
C4218 C4214 1.350 . S
C4218 C4215 1.463 . S
C4218 N4222 1.427 . S
C4219 H4209 0.929 . S
C4219 C4217 1.433 . S
C4219 N4222 1.384 . S
C4220 H4211 0.929 . S
C4220 C4212 1.378 . S
C4220 C4215 1.350 . S
C4221 H4208 0.929 . S
C4221 C4213 1.433 . S
C4221 N4223 1.384 . S
N4222 C4218 1.427 . S
N4222 C4219 1.384 . S
N4223 C4215 1.427 . S
N4223 C4221 1.384 . S
H4224 C4230 0.930 . S
H4225 C4234 0.930 . S
H4226 C4239 0.929 . S
H4227 C4237 0.929 . S
H4228 C4232 0.929 . S
H4229 C4238 0.929 . S
C4230 H4224 0.930 . S
C4230 C4231 1.367 . S
C4230 C4238 1.378 . S
C4231 C4230 1.367 . S
C4231 C4239 1.433 . S
C4232 H4228 0.929 . S
C4232 C4234 1.378 . S
C4232 C4236 1.350 . S
C4233 C4236 1.463 1_455 S
C4233 C4238 1.350 . S
C4233 N4241 1.427 . S
C4234 H4225 0.930 . S
C4234 C4232 1.378 . S
C4234 C4235 1.367 . S
C4235 C4234 1.367 . S
C4235 C4237 1.433 . S
C4236 C4232 1.350 . S
C4236 C4233 1.463 1_655 S
C4236 N4240 1.427 . S
C4237 H4227 0.929 . S
C4237 C4235 1.433 . S
C4237 N4240 1.384 . S
C4238 H4229 0.929 . S
C4238 C4230 1.378 . S
C4238 C4233 1.350 . S
C4239 H4226 0.929 . S
C4239 C4231 1.433 . S
C4239 N4241 1.384 . S
N4240 C4236 1.427 . S
N4240 C4237 1.384 . S
N4241 C4233 1.427 . S
N4241 C4239 1.384 . S
H4242 C4248 0.930 . S
H4243 C4252 0.930 . S
H4244 C4257 0.929 . S
H4245 C4255 0.929 . S
H4246 C4250 0.929 . S
H4247 C4256 0.929 . S
C4248 H4242 0.930 . S
C4248 C4249 1.367 . S
C4248 C4256 1.378 . S
C4249 C4248 1.367 . S
C4249 C4257 1.433 . S
C4250 H4246 0.929 . S
C4250 C4252 1.378 . S
C4250 C4254 1.350 . S
C4251 C4254 1.463 . S
C4251 C4256 1.350 . S
C4251 N4259 1.427 . S
C4252 H4243 0.930 . S
C4252 C4250 1.378 . S
C4252 C4253 1.367 . S
C4253 C4252 1.367 . S
C4253 C4255 1.433 . S
C4254 C4250 1.350 . S
C4254 C4251 1.463 . S
C4254 N4258 1.427 . S
C4255 H4245 0.929 . S
C4255 C4253 1.433 . S
C4255 N4258 1.384 . S
C4256 H4247 0.929 . S
C4256 C4248 1.378 . S
C4256 C4251 1.350 . S
C4257 H4244 0.929 . S
C4257 C4249 1.433 . S
C4257 N4259 1.384 . S
N4258 C4254 1.427 . S
N4258 C4255 1.384 . S
N4259 C4251 1.427 . S
N4259 C4257 1.384 . S
H4260 C4266 0.930 . S
H4261 C4270 0.930 . S
H4262 C4275 0.929 . S
H4263 C4273 0.929 . S
H4264 C4268 0.929 . S
H4265 C4274 0.929 . S
C4266 H4260 0.930 . S
C4266 C4267 1.367 . S
C4266 C4274 1.378 . S
C4267 C4266 1.367 . S
C4267 C4275 1.433 . S
C4268 H4264 0.929 . S
C4268 C4270 1.378 . S
C4268 C4272 1.350 . S
C4269 C4272 1.463 1_655 S
C4269 C4274 1.350 . S
C4269 N4277 1.427 . S
C4270 H4261 0.930 . S
C4270 C4268 1.378 . S
C4270 C4271 1.367 . S
C4271 C4270 1.367 . S
C4271 C4273 1.433 . S
C4272 C4268 1.350 . S
C4272 C4269 1.463 1_455 S
C4272 N4276 1.427 . S
C4273 H4263 0.929 . S
C4273 C4271 1.433 . S
C4273 N4276 1.384 . S
C4274 H4265 0.929 . S
C4274 C4266 1.378 . S
C4274 C4269 1.350 . S
C4275 H4262 0.929 . S
C4275 C4267 1.433 . S
C4275 N4277 1.384 . S
N4276 C4272 1.427 . S
N4276 C4273 1.384 . S
N4277 C4269 1.427 . S
N4277 C4275 1.384 . S
H4278 C4284 0.930 . S
H4279 C4288 0.930 . S
H4280 C4293 0.929 . S
H4281 C4291 0.929 . S
H4282 C4286 0.929 . S
H4283 C4292 0.929 . S
C4284 H4278 0.930 . S
C4284 C4285 1.367 . S
C4284 C4292 1.378 . S
C4285 C4284 1.367 . S
C4285 C4293 1.433 . S
C4286 H4282 0.929 . S
C4286 C4288 1.378 . S
C4286 C4290 1.350 . S
C4287 C4290 1.463 1_455 S
C4287 C4292 1.350 . S
C4287 N4295 1.427 . S
C4288 H4279 0.930 . S
C4288 C4286 1.378 . S
C4288 C4289 1.367 . S
C4289 C4288 1.367 . S
C4289 C4291 1.433 . S
C4290 C4286 1.350 . S
C4290 C4287 1.463 1_655 S
C4290 N4294 1.427 . S
C4291 H4281 0.929 . S
C4291 C4289 1.433 . S
C4291 N4294 1.384 . S
C4292 H4283 0.929 . S
C4292 C4284 1.378 . S
C4292 C4287 1.350 . S
C4293 H4280 0.929 . S
C4293 C4285 1.433 . S
C4293 N4295 1.384 . S
N4294 C4290 1.427 . S
N4294 C4291 1.384 . S
N4295 C4287 1.427 . S
N4295 C4293 1.384 . S
H4296 C4302 0.930 . S
H4297 C4306 0.930 . S
H4298 C4311 0.929 . S
H4299 C4309 0.929 . S
H4300 C4304 0.929 . S
H4301 C4310 0.929 . S
C4302 H4296 0.930 . S
C4302 C4303 1.367 . S
C4302 C4310 1.378 . S
C4303 C4302 1.367 . S
C4303 C4311 1.433 . S
C4304 H4300 0.929 . S
C4304 C4306 1.378 . S
C4304 C4308 1.350 . S
C4305 C4308 1.463 1_565 S
C4305 C4310 1.350 . S
C4305 N4313 1.427 . S
C4306 H4297 0.930 . S
C4306 C4304 1.378 . S
C4306 C4307 1.367 . S
C4307 C4306 1.367 . S
C4307 C4309 1.433 . S
C4308 C4304 1.350 . S
C4308 C4305 1.463 1_545 S
C4308 N4312 1.427 . S
C4309 H4299 0.929 . S
C4309 C4307 1.433 . S
C4309 N4312 1.384 . S
C4310 H4301 0.929 . S
C4310 C4302 1.378 . S
C4310 C4305 1.350 . S
C4311 H4298 0.929 . S
C4311 C4303 1.433 . S
C4311 N4313 1.384 . S
N4312 C4308 1.427 . S
N4312 C4309 1.384 . S
N4313 C4305 1.427 . S
N4313 C4311 1.384 . S
H4314 C4320 0.930 . S
H4315 C4324 0.930 . S
H4316 C4329 0.929 . S
H4317 C4327 0.929 . S
H4318 C4322 0.929 . S
H4319 C4328 0.929 . S
C4320 H4314 0.930 . S
C4320 C4321 1.367 . S
C4320 C4328 1.378 . S
C4321 C4320 1.367 . S
C4321 C4329 1.433 . S
C4322 H4318 0.929 . S
C4322 C4324 1.378 . S
C4322 C4326 1.350 . S
C4323 C4326 1.463 1_554 S
C4323 C4328 1.350 . S
C4323 N4331 1.427 . S
C4324 H4315 0.930 . S
C4324 C4322 1.378 . S
C4324 C4325 1.367 . S
C4325 C4324 1.367 . S
C4325 C4327 1.433 . S
C4326 C4322 1.350 . S
C4326 C4323 1.463 1_556 S
C4326 N4330 1.427 . S
C4327 H4317 0.929 . S
C4327 C4325 1.433 . S
C4327 N4330 1.384 . S
C4328 H4319 0.929 . S
C4328 C4320 1.378 . S
C4328 C4323 1.350 . S
C4329 H4316 0.929 . S
C4329 C4321 1.433 . S
C4329 N4331 1.384 . S
N4330 C4326 1.427 . S
N4330 C4327 1.384 . S
N4331 C4323 1.427 . S
N4331 C4329 1.384 . S
H4332 C4338 0.930 . S
H4333 C4342 0.930 . S
H4334 C4347 0.929 . S
H4335 C4345 0.929 . S
H4336 C4340 0.929 . S
H4337 C4346 0.929 . S
C4338 H4332 0.930 . S
C4338 C4339 1.367 . S
C4338 C4346 1.378 . S
C4339 C4338 1.367 . S
C4339 C4347 1.433 . S
C4340 H4336 0.929 . S
C4340 C4342 1.378 . S
C4340 C4344 1.350 . S
C4341 C4344 1.463 . S
C4341 C4346 1.350 . S
C4341 N4349 1.427 . S
C4342 H4333 0.930 . S
C4342 C4340 1.378 . S
C4342 C4343 1.367 . S
C4343 C4342 1.367 . S
C4343 C4345 1.433 . S
C4344 C4340 1.350 . S
C4344 C4341 1.463 . S
C4344 N4348 1.427 . S
C4345 H4335 0.929 . S
C4345 C4343 1.433 . S
C4345 N4348 1.384 . S
C4346 H4337 0.929 . S
C4346 C4338 1.378 . S
C4346 C4341 1.350 . S
C4347 H4334 0.929 . S
C4347 C4339 1.433 . S
C4347 N4349 1.384 . S
N4348 C4344 1.427 . S
N4348 C4345 1.384 . S
N4349 C4341 1.427 . S
N4349 C4347 1.384 . S
H4350 C4356 0.930 . S
H4351 C4360 0.930 . S
H4352 C4365 0.929 . S
H4353 C4363 0.929 . S
H4354 C4358 0.929 . S
H4355 C4364 0.929 . S
C4356 H4350 0.930 . S
C4356 C4357 1.367 . S
C4356 C4364 1.378 . S
C4357 C4356 1.367 . S
C4357 C4365 1.433 . S
C4358 H4354 0.929 . S
C4358 C4360 1.378 . S
C4358 C4362 1.350 . S
C4359 C4362 1.463 1_554 S
C4359 C4364 1.350 . S
C4359 N4367 1.427 . S
C4360 H4351 0.930 . S
C4360 C4358 1.378 . S
C4360 C4361 1.367 . S
C4361 C4360 1.367 . S
C4361 C4363 1.433 . S
C4362 C4358 1.350 . S
C4362 C4359 1.463 1_556 S
C4362 N4366 1.427 . S
C4363 H4353 0.929 . S
C4363 C4361 1.433 . S
C4363 N4366 1.384 . S
C4364 H4355 0.929 . S
C4364 C4356 1.378 . S
C4364 C4359 1.350 . S
C4365 H4352 0.929 . S
C4365 C4357 1.433 . S
C4365 N4367 1.384 . S
N4366 C4362 1.427 . S
N4366 C4363 1.384 . S
N4367 C4359 1.427 . S
N4367 C4365 1.384 . S
H4368 C4374 0.930 . S
H4369 C4378 0.930 . S
H4370 C4383 0.929 . S
H4371 C4381 0.929 . S
H4372 C4376 0.929 . S
H4373 C4382 0.929 . S
C4374 H4368 0.930 . S
C4374 C4375 1.367 . S
C4374 C4382 1.378 . S
C4375 C4374 1.367 . S
C4375 C4383 1.433 . S
C4376 H4372 0.929 . S
C4376 C4378 1.378 . S
C4376 C4380 1.350 . S
C4377 C4380 1.463 1_556 S
C4377 C4382 1.350 . S
C4377 N4385 1.427 . S
C4378 H4369 0.930 . S
C4378 C4376 1.378 . S
C4378 C4379 1.367 . S
C4379 C4378 1.367 . S
C4379 C4381 1.433 . S
C4380 C4376 1.350 . S
C4380 C4377 1.463 1_554 S
C4380 N4384 1.427 . S
C4381 H4371 0.929 . S
C4381 C4379 1.433 . S
C4381 N4384 1.384 . S
C4382 H4373 0.929 . S
C4382 C4374 1.378 . S
C4382 C4377 1.350 . S
C4383 H4370 0.929 . S
C4383 C4375 1.433 . S
C4383 N4385 1.384 . S
N4384 C4380 1.427 . S
N4384 C4381 1.384 . S
N4385 C4377 1.427 . S
N4385 C4383 1.384 . S
H4386 C4392 0.930 . S
H4387 C4396 0.930 . S
H4388 C4401 0.929 . S
H4389 C4399 0.929 . S
H4390 C4394 0.929 . S
H4391 C4400 0.929 . S
C4392 H4386 0.930 . S
C4392 C4393 1.367 . S
C4392 C4400 1.378 . S
C4393 C4392 1.367 . S
C4393 C4401 1.433 . S
C4394 H4390 0.929 . S
C4394 C4396 1.378 . S
C4394 C4398 1.350 . S
C4395 C4398 1.463 . S
C4395 C4400 1.350 . S
C4395 N4403 1.427 . S
C4396 H4387 0.930 . S
C4396 C4394 1.378 . S
C4396 C4397 1.367 . S
C4397 C4396 1.367 . S
C4397 C4399 1.433 . S
C4398 C4394 1.350 . S
C4398 C4395 1.463 . S
C4398 N4402 1.427 . S
C4399 H4389 0.929 . S
C4399 C4397 1.433 . S
C4399 N4402 1.384 . S
C4400 H4391 0.929 . S
C4400 C4392 1.378 . S
C4400 C4395 1.350 . S
C4401 H4388 0.929 . S
C4401 C4393 1.433 . S
C4401 N4403 1.384 . S
N4402 C4398 1.427 . S
N4402 C4399 1.384 . S
N4403 C4395 1.427 . S
N4403 C4401 1.384 . S
H4404 C4410 0.930 . S
H4405 C4414 0.930 . S
H4406 C4419 0.929 . S
H4407 C4417 0.929 . S
H4408 C4412 0.929 . S
H4409 C4418 0.929 . S
C4410 H4404 0.930 . S
C4410 C4411 1.367 . S
C4410 C4418 1.378 . S
C4411 C4410 1.367 . S
C4411 C4419 1.433 . S
C4412 H4408 0.929 . S
C4412 C4414 1.378 . S
C4412 C4416 1.350 . S
C4413 C4416 1.463 . S
C4413 C4418 1.350 . S
C4413 N4421 1.427 . S
C4414 H4405 0.930 . S
C4414 C4412 1.378 . S
C4414 C4415 1.367 . S
C4415 C4414 1.367 . S
C4415 C4417 1.433 . S
C4416 C4412 1.350 . S
C4416 C4413 1.463 . S
C4416 N4420 1.427 . S
C4417 H4407 0.929 . S
C4417 C4415 1.433 . S
C4417 N4420 1.384 . S
C4418 H4409 0.929 . S
C4418 C4410 1.378 . S
C4418 C4413 1.350 . S
C4419 H4406 0.929 . S
C4419 C4411 1.433 . S
C4419 N4421 1.384 . S
N4420 C4416 1.427 . S
N4420 C4417 1.384 . S
N4421 C4413 1.427 . S
N4421 C4419 1.384 . S
H4422 C4428 0.930 . S
H4423 C4432 0.930 . S
H4424 C4437 0.929 . S
H4425 C4435 0.929 . S
H4426 C4430 0.929 . S
H4427 C4436 0.929 . S
C4428 H4422 0.930 . S
C4428 C4429 1.367 . S
C4428 C4436 1.378 . S
C4429 C4428 1.367 . S
C4429 C4437 1.433 . S
C4430 H4426 0.929 . S
C4430 C4432 1.378 . S
C4430 C4434 1.350 . S
C4431 C4434 1.463 . S
C4431 C4436 1.350 . S
C4431 N4439 1.427 . S
C4432 H4423 0.930 . S
C4432 C4430 1.378 . S
C4432 C4433 1.367 . S
C4433 C4432 1.367 . S
C4433 C4435 1.433 . S
C4434 C4430 1.350 . S
C4434 C4431 1.463 . S
C4434 N4438 1.427 . S
C4435 H4425 0.929 . S
C4435 C4433 1.433 . S
C4435 N4438 1.384 . S
C4436 H4427 0.929 . S
C4436 C4428 1.378 . S
C4436 C4431 1.350 . S
C4437 H4424 0.929 . S
C4437 C4429 1.433 . S
C4437 N4439 1.384 . S
N4438 C4434 1.427 . S
N4438 C4435 1.384 . S
N4439 C4431 1.427 . S
N4439 C4437 1.384 . S
H4440 C4446 0.930 . S
H4441 C4450 0.930 . S
H4442 C4455 0.929 . S
H4443 C4453 0.929 . S
H4444 C4448 0.929 . S
H4445 C4454 0.929 . S
C4446 H4440 0.930 . S
C4446 C4447 1.367 . S
C4446 C4454 1.378 . S
C4447 C4446 1.367 . S
C4447 C4455 1.433 . S
C4448 H4444 0.929 . S
C4448 C4450 1.378 . S
C4448 C4452 1.350 . S
C4449 C4452 1.463 . S
C4449 C4454 1.350 . S
C4449 N4457 1.427 . S
C4450 H4441 0.930 . S
C4450 C4448 1.378 . S
C4450 C4451 1.367 . S
C4451 C4450 1.367 . S
C4451 C4453 1.433 . S
C4452 C4448 1.350 . S
C4452 C4449 1.463 . S
C4452 N4456 1.427 . S
C4453 H4443 0.929 . S
C4453 C4451 1.433 . S
C4453 N4456 1.384 . S
C4454 H4445 0.929 . S
C4454 C4446 1.378 . S
C4454 C4449 1.350 . S
C4455 H4442 0.929 . S
C4455 C4447 1.433 . S
C4455 N4457 1.384 . S
N4456 C4452 1.427 . S
N4456 C4453 1.384 . S
N4457 C4449 1.427 . S
N4457 C4455 1.384 . S
H4458 C4464 0.930 . S
H4459 C4468 0.930 . S
H4460 C4473 0.929 . S
H4461 C4471 0.929 . S
H4462 C4466 0.929 . S
H4463 C4472 0.929 . S
C4464 H4458 0.930 . S
C4464 C4465 1.367 . S
C4464 C4472 1.378 . S
C4465 C4464 1.367 . S
C4465 C4473 1.433 . S
C4466 H4462 0.929 . S
C4466 C4468 1.378 . S
C4466 C4470 1.350 . S
C4467 C4470 1.463 1_545 S
C4467 C4472 1.350 . S
C4467 N4475 1.427 . S
C4468 H4459 0.930 . S
C4468 C4466 1.378 . S
C4468 C4469 1.367 . S
C4469 C4468 1.367 . S
C4469 C4471 1.433 . S
C4470 C4466 1.350 . S
C4470 C4467 1.463 1_565 S
C4470 N4474 1.427 . S
C4471 H4461 0.929 . S
C4471 C4469 1.433 . S
C4471 N4474 1.384 . S
C4472 H4463 0.929 . S
C4472 C4464 1.378 . S
C4472 C4467 1.350 . S
C4473 H4460 0.929 . S
C4473 C4465 1.433 . S
C4473 N4475 1.384 . S
N4474 C4470 1.427 . S
N4474 C4471 1.384 . S
N4475 C4467 1.427 . S
N4475 C4473 1.384 . S
H4476 C4482 0.930 . S
H4477 C4486 0.930 . S
H4478 C4491 0.929 . S
H4479 C4489 0.929 . S
H4480 C4484 0.929 . S
H4481 C4490 0.929 . S
C4482 H4476 0.930 . S
C4482 C4483 1.367 . S
C4482 C4490 1.378 . S
C4483 C4482 1.367 . S
C4483 C4491 1.433 . S
C4484 H4480 0.929 . S
C4484 C4486 1.378 . S
C4484 C4488 1.350 . S
C4485 C4488 1.463 . S
C4485 C4490 1.350 . S
C4485 N4493 1.427 . S
C4486 H4477 0.930 . S
C4486 C4484 1.378 . S
C4486 C4487 1.367 . S
C4487 C4486 1.367 . S
C4487 C4489 1.433 . S
C4488 C4484 1.350 . S
C4488 C4485 1.463 . S
C4488 N4492 1.427 . S
C4489 H4479 0.929 . S
C4489 C4487 1.433 . S
C4489 N4492 1.384 . S
C4490 H4481 0.929 . S
C4490 C4482 1.378 . S
C4490 C4485 1.350 . S
C4491 H4478 0.929 . S
C4491 C4483 1.433 . S
C4491 N4493 1.384 . S
N4492 C4488 1.427 . S
N4492 C4489 1.384 . S
N4493 C4485 1.427 . S
N4493 C4491 1.384 . S
H4494 C4500 0.930 . S
H4495 C4504 0.930 . S
H4496 C4509 0.929 . S
H4497 C4507 0.929 . S
H4498 C4502 0.929 . S
H4499 C4508 0.929 . S
C4500 H4494 0.930 . S
C4500 C4501 1.367 . S
C4500 C4508 1.378 . S
C4501 C4500 1.367 . S
C4501 C4509 1.433 . S
C4502 H4498 0.929 . S
C4502 C4504 1.378 . S
C4502 C4506 1.350 . S
C4503 C4506 1.463 1_455 S
C4503 C4508 1.350 . S
C4503 N4511 1.427 . S
C4504 H4495 0.930 . S
C4504 C4502 1.378 . S
C4504 C4505 1.367 . S
C4505 C4504 1.367 . S
C4505 C4507 1.433 . S
C4506 C4502 1.350 . S
C4506 C4503 1.463 1_655 S
C4506 N4510 1.427 . S
C4507 H4497 0.929 . S
C4507 C4505 1.433 . S
C4507 N4510 1.384 . S
C4508 H4499 0.929 . S
C4508 C4500 1.378 . S
C4508 C4503 1.350 . S
C4509 H4496 0.929 . S
C4509 C4501 1.433 . S
C4509 N4511 1.384 . S
N4510 C4506 1.427 . S
N4510 C4507 1.384 . S
N4511 C4503 1.427 . S
N4511 C4509 1.384 . S
H4512 C4518 0.930 . S
H4513 C4522 0.930 . S
H4514 C4527 0.929 . S
H4515 C4525 0.929 . S
H4516 C4520 0.929 . S
H4517 C4526 0.929 . S
C4518 H4512 0.930 . S
C4518 C4519 1.367 . S
C4518 C4526 1.378 . S
C4519 C4518 1.367 . S
C4519 C4527 1.433 . S
C4520 H4516 0.929 . S
C4520 C4522 1.378 . S
C4520 C4524 1.350 . S
C4521 C4524 1.463 . S
C4521 C4526 1.350 . S
C4521 N4529 1.427 . S
C4522 H4513 0.930 . S
C4522 C4520 1.378 . S
C4522 C4523 1.367 . S
C4523 C4522 1.367 . S
C4523 C4525 1.433 . S
C4524 C4520 1.350 . S
C4524 C4521 1.463 . S
C4524 N4528 1.427 . S
C4525 H4515 0.929 . S
C4525 C4523 1.433 . S
C4525 N4528 1.384 . S
C4526 H4517 0.929 . S
C4526 C4518 1.378 . S
C4526 C4521 1.350 . S
C4527 H4514 0.929 . S
C4527 C4519 1.433 . S
C4527 N4529 1.384 . S
N4528 C4524 1.427 . S
N4528 C4525 1.384 . S
N4529 C4521 1.427 . S
N4529 C4527 1.384 . S
H4530 C4536 0.930 . S
H4531 C4540 0.930 . S
H4532 C4545 0.929 . S
H4533 C4543 0.929 . S
H4534 C4538 0.929 . S
H4535 C4544 0.929 . S
C4536 H4530 0.930 . S
C4536 C4537 1.367 . S
C4536 C4544 1.378 . S
C4537 C4536 1.367 . S
C4537 C4545 1.433 . S
C4538 H4534 0.929 . S
C4538 C4540 1.378 . S
C4538 C4542 1.350 . S
C4539 C4542 1.463 . S
C4539 C4544 1.350 . S
C4539 N4547 1.427 . S
C4540 H4531 0.930 . S
C4540 C4538 1.378 . S
C4540 C4541 1.367 . S
C4541 C4540 1.367 . S
C4541 C4543 1.433 . S
C4542 C4538 1.350 . S
C4542 C4539 1.463 . S
C4542 N4546 1.427 . S
C4543 H4533 0.929 . S
C4543 C4541 1.433 . S
C4543 N4546 1.384 . S
C4544 H4535 0.929 . S
C4544 C4536 1.378 . S
C4544 C4539 1.350 . S
C4545 H4532 0.929 . S
C4545 C4537 1.433 . S
C4545 N4547 1.384 . S
N4546 C4542 1.427 . S
N4546 C4543 1.384 . S
N4547 C4539 1.427 . S
N4547 C4545 1.384 . S
H4548 C4554 0.930 . S
H4549 C4558 0.930 . S
H4550 C4563 0.929 . S
H4551 C4561 0.929 . S
H4552 C4556 0.929 . S
H4553 C4562 0.929 . S
C4554 H4548 0.930 . S
C4554 C4555 1.367 . S
C4554 C4562 1.378 . S
C4555 C4554 1.367 . S
C4555 C4563 1.433 . S
C4556 H4552 0.929 . S
C4556 C4558 1.378 . S
C4556 C4560 1.350 . S
C4557 C4560 1.463 . S
C4557 C4562 1.350 . S
C4557 N4565 1.427 . S
C4558 H4549 0.930 . S
C4558 C4556 1.378 . S
C4558 C4559 1.367 . S
C4559 C4558 1.367 . S
C4559 C4561 1.433 . S
C4560 C4556 1.350 . S
C4560 C4557 1.463 . S
C4560 N4564 1.427 . S
C4561 H4551 0.929 . S
C4561 C4559 1.433 . S
C4561 N4564 1.384 . S
C4562 H4553 0.929 . S
C4562 C4554 1.378 . S
C4562 C4557 1.350 . S
C4563 H4550 0.929 . S
C4563 C4555 1.433 . S
C4563 N4565 1.384 . S
N4564 C4560 1.427 . S
N4564 C4561 1.384 . S
N4565 C4557 1.427 . S
N4565 C4563 1.384 . S
H4566 C4572 0.930 . S
H4567 C4576 0.930 . S
H4568 C4581 0.929 . S
H4569 C4579 0.929 . S
H4570 C4574 0.929 . S
H4571 C4580 0.929 . S
C4572 H4566 0.930 . S
C4572 C4573 1.367 . S
C4572 C4580 1.378 . S
C4573 C4572 1.367 . S
C4573 C4581 1.433 . S
C4574 H4570 0.929 . S
C4574 C4576 1.378 . S
C4574 C4578 1.350 . S
C4575 C4578 1.463 . S
C4575 C4580 1.350 . S
C4575 N4583 1.427 . S
C4576 H4567 0.930 . S
C4576 C4574 1.378 . S
C4576 C4577 1.367 . S
C4577 C4576 1.367 . S
C4577 C4579 1.433 . S
C4578 C4574 1.350 . S
C4578 C4575 1.463 . S
C4578 N4582 1.427 . S
C4579 H4569 0.929 . S
C4579 C4577 1.433 . S
C4579 N4582 1.384 . S
C4580 H4571 0.929 . S
C4580 C4572 1.378 . S
C4580 C4575 1.350 . S
C4581 H4568 0.929 . S
C4581 C4573 1.433 . S
C4581 N4583 1.384 . S
N4582 C4578 1.427 . S
N4582 C4579 1.384 . S
N4583 C4575 1.427 . S
N4583 C4581 1.384 . S
H4584 C4590 0.930 . S
H4585 C4594 0.930 . S
H4586 C4599 0.929 . S
H4587 C4597 0.929 . S
H4588 C4592 0.929 . S
H4589 C4598 0.929 . S
C4590 H4584 0.930 . S
C4590 C4591 1.367 . S
C4590 C4598 1.378 . S
C4591 C4590 1.367 . S
C4591 C4599 1.433 . S
C4592 H4588 0.929 . S
C4592 C4594 1.378 . S
C4592 C4596 1.350 . S
C4593 C4596 1.463 1_565 S
C4593 C4598 1.350 . S
C4593 N4601 1.427 . S
C4594 H4585 0.930 . S
C4594 C4592 1.378 . S
C4594 C4595 1.367 . S
C4595 C4594 1.367 . S
C4595 C4597 1.433 . S
C4596 C4592 1.350 . S
C4596 C4593 1.463 1_545 S
C4596 N4600 1.427 . S
C4597 H4587 0.929 . S
C4597 C4595 1.433 . S
C4597 N4600 1.384 . S
C4598 H4589 0.929 . S
C4598 C4590 1.378 . S
C4598 C4593 1.350 . S
C4599 H4586 0.929 . S
C4599 C4591 1.433 . S
C4599 N4601 1.384 . S
N4600 C4596 1.427 . S
N4600 C4597 1.384 . S
N4601 C4593 1.427 . S
N4601 C4599 1.384 . S
H4602 C4608 0.930 . S
H4603 C4612 0.930 . S
H4604 C4617 0.929 . S
H4605 C4615 0.929 . S
H4606 C4610 0.929 . S
H4607 C4616 0.929 . S
C4608 H4602 0.930 . S
C4608 C4609 1.367 . S
C4608 C4616 1.378 . S
C4609 C4608 1.367 . S
C4609 C4617 1.433 . S
C4610 H4606 0.929 . S
C4610 C4612 1.378 . S
C4610 C4614 1.350 . S
C4611 C4614 1.463 . S
C4611 C4616 1.350 . S
C4611 N4619 1.427 . S
C4612 H4603 0.930 . S
C4612 C4610 1.378 . S
C4612 C4613 1.367 . S
C4613 C4612 1.367 . S
C4613 C4615 1.433 . S
C4614 C4610 1.350 . S
C4614 C4611 1.463 . S
C4614 N4618 1.427 . S
C4615 H4605 0.929 . S
C4615 C4613 1.433 . S
C4615 N4618 1.384 . S
C4616 H4607 0.929 . S
C4616 C4608 1.378 . S
C4616 C4611 1.350 . S
C4617 H4604 0.929 . S
C4617 C4609 1.433 . S
C4617 N4619 1.384 . S
N4618 C4614 1.427 . S
N4618 C4615 1.384 . S
N4619 C4611 1.427 . S
N4619 C4617 1.384 . S
H4620 C4626 0.930 . S
H4621 C4630 0.930 . S
H4622 C4635 0.929 . S
H4623 C4633 0.929 . S
H4624 C4628 0.929 . S
H4625 C4634 0.929 . S
C4626 H4620 0.930 . S
C4626 C4627 1.367 . S
C4626 C4634 1.378 . S
C4627 C4626 1.367 . S
C4627 C4635 1.433 . S
C4628 H4624 0.929 . S
C4628 C4630 1.378 . S
C4628 C4632 1.350 . S
C4629 C4632 1.463 1_556 S
C4629 C4634 1.350 . S
C4629 N4637 1.427 . S
C4630 H4621 0.930 . S
C4630 C4628 1.378 . S
C4630 C4631 1.367 . S
C4631 C4630 1.367 . S
C4631 C4633 1.433 . S
C4632 C4628 1.350 . S
C4632 C4629 1.463 1_554 S
C4632 N4636 1.427 . S
C4633 H4623 0.929 . S
C4633 C4631 1.433 . S
C4633 N4636 1.384 . S
C4634 H4625 0.929 . S
C4634 C4626 1.378 . S
C4634 C4629 1.350 . S
C4635 H4622 0.929 . S
C4635 C4627 1.433 . S
C4635 N4637 1.384 . S
N4636 C4632 1.427 . S
N4636 C4633 1.384 . S
N4637 C4629 1.427 . S
N4637 C4635 1.384 . S
H4638 C4644 0.930 . S
H4639 C4648 0.930 . S
H4640 C4653 0.929 . S
H4641 C4651 0.929 . S
H4642 C4646 0.929 . S
H4643 C4652 0.929 . S
C4644 H4638 0.930 . S
C4644 C4645 1.367 . S
C4644 C4652 1.378 . S
C4645 C4644 1.367 . S
C4645 C4653 1.433 . S
C4646 H4642 0.929 . S
C4646 C4648 1.378 . S
C4646 C4650 1.350 . S
C4647 C4650 1.463 1_545 S
C4647 C4652 1.350 . S
C4647 N4655 1.427 . S
C4648 H4639 0.930 . S
C4648 C4646 1.378 . S
C4648 C4649 1.367 . S
C4649 C4648 1.367 . S
C4649 C4651 1.433 . S
C4650 C4646 1.350 . S
C4650 C4647 1.463 1_565 S
C4650 N4654 1.427 . S
C4651 H4641 0.929 . S
C4651 C4649 1.433 . S
C4651 N4654 1.384 . S
C4652 H4643 0.929 . S
C4652 C4644 1.378 . S
C4652 C4647 1.350 . S
C4653 H4640 0.929 . S
C4653 C4645 1.433 . S
C4653 N4655 1.384 . S
N4654 C4650 1.427 . S
N4654 C4651 1.384 . S
N4655 C4647 1.427 . S
N4655 C4653 1.384 . S
C1639 C1207 1.789 . S
C1643 C28 1.813 . S
C1657 C40 1.811 1_556 S
C1661 C1105 1.789 . S
C1675 C1139 1.784 . S
C1679 C74 1.811 . S
C1693 C108 1.810 1_556 S
C1697 C1173 1.784 . S
C1711 C459 1.783 . S
C1715 C164 1.808 . S
C1729 C198 1.809 1_554 S
C1733 C493 1.786 . S
C1747 C527 1.791 . S
C1751 C232 1.813 . S
C1765 C425 1.791 . S
C1769 C244 1.813 1_554 S
C1783 C1003 1.782 . S
C1787 C278 1.808 . S
C1801 C312 1.813 . S
C1805 C1037 1.790 . S
C1819 C346 1.813 . S
C1823 C1071 1.791 . S
C1837 C969 1.788 . S
C1841 C402 1.810 1_545 S
C1855 C436 1.811 . S
C1859 C119 1.784 . S
C1873 C17 1.786 . S
C1877 C448 1.809 . S
C1891 C51 1.782 . S
C1895 C482 1.808 . S
C1909 C538 1.813 1_545 S
C1913 C85 1.788 . S
C1927 C1615 1.782 . S
C1931 C550 1.809 . S
C1945 C584 1.811 . S
C1949 C697 1.790 . S
C1963 C1411 1.782 . S
C1967 C640 1.809 1_655 S
C1981 C1445 1.785 . S
C1985 C652 1.811 . S
C1999 C686 1.812 . S
C2003 C663 1.791 . S
C2017 C742 1.811 . S
C2021 C765 1.784 . S
C2035 C776 1.813 1_655 S
C2039 C1377 1.789 . S
C2053 C731 1.783 . S
C2057 C810 1.809 1_455 S
C2071 C844 1.810 . S
C2075 C391 1.788 . S
C2089 C878 1.812 . S
C2093 C289 1.787 . S
C2107 C323 1.791 . S
C2111 C890 1.813 . S
C2125 C946 1.810 . S
C2129 C357 1.783 . S
C2143 C980 1.810 . S
C2147 C1275 1.784 . S
C2161 C992 1.808 . S
C2165 C1309 1.782 . S
C2179 C1048 1.813 . S
C2183 C1343 1.788 . S
C2197 C1060 1.812 . S
C2201 C1241 1.786 . S
C2215 C1094 1.812 . S
C2219 C187 1.791 . S
C2233 C221 1.786 . S
C2237 C1150 1.809 1_565 S
C2251 C255 1.784 . S
C2255 C1162 1.811 . S
C2269 C1218 1.808 . S
C2273 C153 1.782 . S
C2287 C1252 1.812 . S
C2291 C935 1.790 . S
C2305 C833 1.791 . S
C2309 C1264 1.813 1_565 S
C2323 C867 1.790 . S
C2327 C1298 1.811 . S
C2341 C901 1.783 . S
C2345 C1354 1.808 . S
C2359 C799 1.787 . S
C2363 C1366 1.812 . S
C2377 C1513 1.788 . S
C2381 C1422 1.812 . S
C2395 C1456 1.810 . S
C2399 C595 1.788 . S
C2413 C629 1.782 . S
C2417 C1468 1.809 . S
C2431 C1524 1.812 1_455 S
C2435 C1479 1.791 . S
C2449 C1581 1.787 . S
C2453 C1558 1.810 . S
C2467 C561 1.782 . S
C2471 C1570 1.809 . S
C2485 C1547 1.782 . S
C2489 C1604 1.808 . S
C2503 C275 1.261 . S
C2507 C3 1.335 . S
C2521 C309 1.252 . S
C2525 C35 1.333 . S
C2539 C343 1.245 . S
C2543 C69 1.339 . S
C2557 C375 1.245 . S
C2561 C103 1.343 . S
C2575 C139 1.325 . S
C2579 C409 1.265 . S
C2593 C173 1.338 . S
C2597 C445 1.255 . S
C2611 C207 1.331 . S
C2615 C479 1.266 . S
C2629 C239 1.341 . S
C2633 C511 1.244 . S
C2647 C273 1.341 . S
C2651 C547 1.250 . S
C2665 C307 1.342 . S
C2669 C1601 1.244 . S
C2683 C1531 1.269 . S
C2687 C341 1.324 . S
C2701 C1567 1.259 . S
C2705 C377 1.336 . S
C2719 C581 1.245 . S
C2723 C411 1.343 . S
C2737 C443 1.331 . S
C2741 C613 1.256 . S
C2755 C477 1.337 . S
C2759 C649 1.257 . S
C2773 C1497 1.268 . S
C2777 C513 1.324 . S
C2791 C545 1.330 . S
C2795 C1 1.257 . S
C2809 C137 1.270 . S
C2813 C579 1.326 . S
C2827 C171 1.268 . S
C2831 C615 1.328 . S
C2845 C205 1.254 . S
C2849 C647 1.332 . S
C2863 C1057 1.254 . S
C2867 C681 1.332 . S
C2881 C887 1.267 . S
C2885 C717 1.329 . S
C2899 C919 1.246 . S
C2903 C751 1.338 . S
C2917 C851 1.256 . S
C2921 C785 1.330 . S
C2935 C819 1.326 . S
C2939 C1091 1.263 . S
C2953 C853 1.324 . S
C2957 C1123 1.269 . S
C2971 C885 1.326 . S
C2975 C1159 1.264 . S
C2989 C1191 1.256 . S
C2993 C921 1.338 . S
C3007 C1225 1.259 . S
C3011 C955 1.336 . S
C3025 C987 1.340 . S
C3029 C1261 1.245 . S
C3043 C1023 1.343 . S
C3047 C1295 1.245 . S
C3061 C1327 1.264 . S
C3065 C1055 1.332 . S
C3079 C1089 1.338 . S
C3083 C1363 1.246 . S
C3097 C783 1.249 . S
C3101 C1125 1.335 . S
C3115 C1157 1.343 . S
C3119 C715 1.245 . S
C3133 C1193 1.326 . S
C3137 C749 1.270 . S
C3151 C1227 1.327 . S
C3155 C1395 1.270 . S
C3169 C1259 1.333 . S
C3173 C1429 1.252 . S
C3187 C1293 1.325 . S
C3191 C1465 1.270 . S
C3205 C1329 1.337 . S
C3209 C683 1.257 . S
C3223 C1361 1.328 . S
C3227 C817 1.259 . S
C3241 C953 1.244 . S
C3245 C1397 1.342 . S
C3259 C989 1.248 . S
C3263 C1431 1.337 . S
C3277 C1021 1.257 . S
C3281 C1463 1.330 . S
C3295 C1499 1.343 . S
C3299 C241 1.245 . S
C3313 C71 1.270 . S
C3317 C1533 1.326 . S
C3331 C1565 1.325 . S
C3335 C105 1.270 . S
C3349 C37 1.245 . S
C3353 C1599 1.340 . S
C3367 C634 1.178 . S
C3371 C6 1.109 . S
C3385 C661 1.180 . S
C3389 C62 1.122 . S
C3403 C96 1.105 . S
C3407 C1518 1.186 . S
C3421 C593 1.186 . S
C3425 C130 1.103 . S
C3439 C770 1.180 . S
C3443 C142 1.122 . S
C3457 C176 1.109 . S
C3461 C1375 1.178 . S
C3475 C804 1.183 . S
C3479 C210 1.096 . S
C3493 C266 1.115 . S
C3497 C736 1.178 . S
C3511 C1144 1.181 . S
C3515 C300 1.097 . S
C3529 C334 1.096 . S
C3533 C1171 1.182 . S
C3547 C368 1.103 . S
C3551 C1212 1.179 . S
C3565 C1103 1.178 . S
C3569 C380 1.112 . S
C3583 C532 1.178 . S
C3587 C414 1.105 . S
C3601 C470 1.098 . S
C3605 C430 1.180 . S
C3619 C457 1.184 . S
C3623 C504 1.117 . S
C3637 C516 1.097 . S
C3641 C491 1.184 . S
C3655 C117 1.186 . S
C3659 C572 1.105 . S
C3673 C1001 1.185 . S
C3677 C606 1.103 . S
C3691 C1042 1.186 . S
C3695 C618 1.105 . S
C3709 C1069 1.178 . S
C3713 C674 1.111 . S
C3727 C708 1.101 . S
C3731 C158 1.185 . S
C3745 C872 1.179 . S
C3749 C720 1.122 . S
C3763 C899 1.185 . S
C3767 C754 1.112 . S
C3781 C788 1.110 . S
C3785 C838 1.185 . S
C3799 C1450 1.178 . S
C3803 C822 1.120 . S
C3817 C856 1.122 . S
C3821 C1477 1.179 . S
C3835 C695 1.181 . S
C3839 C912 1.097 . S
C3853 C1416 1.185 . S
C3857 C924 1.099 . S
C3871 C958 1.111 . S
C3875 C1579 1.178 . S
C3889 C1014 1.116 . S
C3893 C559 1.178 . S
C3907 C1613 1.178 . S
C3911 C1026 1.117 . S
C3925 C1552 1.178 . S
C3929 C1082 1.119 . S
C3943 C321 1.183 . S
C3947 C1116 1.121 . S
C3961 C355 1.185 . S
C3965 C1128 1.111 . S
C3979 C1184 1.112 . S
C3983 C396 1.178 . S
C3997 C1196 1.117 . S
C4001 C287 1.184 . S
C4015 C1230 1.101 . S
C4019 C1348 1.179 . S
C4033 C1286 1.122 . S
C4037 C1246 1.182 . S
C4051 C1273 1.178 . S
C4055 C1320 1.111 . S
C4069 C1332 1.108 . S
C4073 C1307 1.178 . S
C4087 C1388 1.097 . S
C4091 C940 1.184 . S
C4105 C192 1.185 . S
C4109 C1400 1.114 . S
C4123 C226 1.180 . S
C4127 C1434 1.099 . S
C4141 C253 1.183 . S
C4145 C1490 1.097 . S
C4159 C1502 1.121 . S
C4163 C974 1.179 . S
C4177 C1536 1.096 . S
C4181 C49 1.182 . S
C4195 C1592 1.117 . S
C4199 C83 1.178 . S
C4213 C1626 1.100 . S
C4217 C22 1.180 . S
C4231 C15 2.062 . S
C4235 C90 2.052 . S
C4249 C56 2.060 . S
C4253 C124 2.052 . S
C4267 C219 2.052 . S
C4271 C151 2.062 . S
C4285 C260 2.064 . S
C4289 C185 2.052 . S
C4303 C423 2.059 . S
C4307 C294 2.052 . S
C4321 C464 2.063 . S
C4325 C328 2.052 . S
C4339 C498 2.065 . S
C4343 C362 2.062 . S
C4357 C525 2.054 . S
C4361 C389 2.066 . S
C4375 C1484 2.064 . S
C4379 C566 2.052 . S
C4393 C600 2.055 . S
C4397 C729 2.066 . S
C4411 C763 2.066 . S
C4415 C627 2.057 . S
C4429 C668 2.066 . S
C4433 C1382 2.053 . S
C4447 C702 2.066 . S
C4451 C1620 2.058 . S
C4465 C1511 2.061 . S
C4469 C797 2.065 . S
C4483 C906 2.052 . S
C4487 C831 2.062 . S
C4501 C865 2.060 . S
C4505 C933 2.066 . S
C4519 C1035 2.052 . S
C4523 C967 2.060 . S
C4537 C1008 2.066 . S
C4541 C1076 2.053 . S
C4555 C1110 2.060 . S
C4559 C1239 2.065 . S
C4573 C1137 2.061 . S
C4577 C1280 2.065 . S
C4591 C1178 2.058 . S
C4595 C1314 2.053 . S
C4609 C1205 2.066 . S
C4613 C1341 2.053 . S
C4627 C1409 2.052 . S
C4631 C1545 2.064 . S
C4645 C1586 2.066 . S
C4649 C1443 2.058 . S
