# Generated by pormake.
# Topology bcg, (8)-cn, num edge types: 1
# Building blocks:
#     Node 0, Type 0, BuildingBlock: EYACOX_clean_sbu_0, # of connection points: 8
#     Node 1, Type 0, BuildingBlock: EYACOX_clean_sbu_0, # of connection points: 8
#     Node 2, Type 0, BuildingBlock: EYACOX_clean_sbu_0, # of connection points: 8
#     Node 3, Type 0, BuildingBlock: EYACOX_clean_sbu_0, # of connection points: 8
#     Edge 4, Type (0, 0), BuildingBlock: ZUJKAS_clean_linker_0, # of connection points: 2
#     Edge 5, Type (0, 0), BuildingBlock: ZUJKAS_clean_linker_0, # of connection points: 2
#     Edge 6, Type (0, 0), BuildingBlock: ZUJKAS_clean_linker_0, # of connection points: 2
#     Edge 7, Type (0, 0), BuildingBlock: ZUJKAS_clean_linker_0, # of connection points: 2
#     Edge 8, Type (0, 0), BuildingBlock: ZUJKAS_clean_linker_0, # of connection points: 2
#     Edge 9, Type (0, 0), BuildingBlock: ZUJKAS_clean_linker_0, # of connection points: 2
#     Edge 10, Type (0, 0), BuildingBlock: ZUJKAS_clean_linker_0, # of connection points: 2
#     Edge 11, Type (0, 0), BuildingBlock: ZUJKAS_clean_linker_0, # of connection points: 2
#     Edge 12, Type (0, 0), BuildingBlock: ZUJKAS_clean_linker_0, # of connection points: 2
#     Edge 13, Type (0, 0), BuildingBlock: ZUJKAS_clean_linker_0, # of connection points: 2
#     Edge 14, Type (0, 0), BuildingBlock: ZUJKAS_clean_linker_0, # of connection points: 2
#     Edge 15, Type (0, 0), BuildingBlock: ZUJKAS_clean_linker_0, # of connection points: 2
#     Edge 16, Type (0, 0), BuildingBlock: ZUJKAS_clean_linker_0, # of connection points: 2
#     Edge 17, Type (0, 0), BuildingBlock: ZUJKAS_clean_linker_0, # of connection points: 2
#     Edge 18, Type (0, 0), BuildingBlock: ZUJKAS_clean_linker_0, # of connection points: 2
#     Edge 19, Type (0, 0), BuildingBlock: ZUJKAS_clean_linker_0, # of connection points: 2
# Relax obj value: 0.090
# Max RMSD: 0.165
# Mean RMSD: 0.165
data_MOF--net-bcg--node1-EYACOX_clean_sbu_0--edge1-ZUJKAS_clean_linker_0
_symmetry_space_group_name_H-M    P1
_symmetry_Int_Tables_number       1
_symmetry_cell_setting            triclinic
loop_
_symmetry_equiv_pos_as_xyz
'x, y, z'
_cell_length_a     26.680507
_cell_length_b     27.596447
_cell_length_c     39.954555
_cell_angle_alpha  89.899659
_cell_angle_beta   118.17655
_cell_angle_gamma 89.974869
loop_
_atom_site_label
_atom_site_type_symbol
_atom_site_fract_x
_atom_site_fract_y
_atom_site_fract_z
_atom_type_partial_charge
Eu0 Eu 0.2554 0.23899 0.94284 0.0
Eu1 Eu 0.19583 0.29909 0.98939 0.0
O2 O 0.26389 0.23081 0.89117 0.0
O3 O 0.31178 0.18395 0.9392 0.0
O4 O 0.1393 0.23553 0.96035 0.0
O5 O 0.20163 0.1842 0.95294 0.0
O6 O 0.3169 0.23877 0.00573 0.0
O7 O 0.24956 0.23801 0.0258 0.0
C8 C 0.35388 0.20416 0.89975 0.0
C9 C 0.4484 0.21645 0.88757 0.0
C10 C 0.45377 0.2253 0.9235 0.0
C11 C 0.40664 0.21913 0.92981 0.0
C12 C 0.39725 0.20075 0.85768 0.0
C13 C 0.34961 0.1947 0.86362 0.0
C14 C 0.30325 0.19767 0.90561 0.0
C15 C 0.15489 0.19199 0.95551 0.0
O16 O 0.19963 0.32737 0.04185 0.0
O17 O 0.12366 0.33774 0.98798 0.0
C18 C 0.30161 0.22953 0.03195 0.0
O19 O 0.27499 0.34099 0.00096 0.0
O20 O 0.28668 0.31511 0.95009 0.0
O21 O 0.17175 0.33744 0.9344 0.0
O22 O 0.17027 0.26975 0.90114 0.0
C23 C 0.11131 0.33219 0.04315 0.0
C24 C 0.08864 0.34745 0.0947 0.0
C25 C 0.1233 0.35558 0.07755 0.0
C26 C 0.04248 0.31599 0.07761 0.0
C27 C 0.02849 0.29397 0.04285 0.0
C28 C 0.063 0.30192 0.02554 0.0
C29 C 0.14711 0.34279 0.02479 0.0
C30 C 0.29659 0.34574 0.97758 0.0
C31 C 0.15627 0.31523 0.90206 0.0
H32 H 0.48534 0.22037 0.88311 0.0
H33 H 0.41111 0.22573 0.95782 0.0
H34 H 0.30974 0.18238 0.84048 0.0
H35 H 0.15862 0.38064 0.09046 0.0
H36 H 1.01466 0.31129 0.0903 0.0
H37 H 0.05158 0.28544 -0.00172 0.0
Eu38 Eu 0.85508 0.68416 0.00586 0.0
Eu39 Eu 0.79598 0.74355 0.0531 0.0
O40 O 0.85084 0.65621 0.95319 0.0
O41 O 0.92708 0.64562 0.00685 0.0
O42 O 0.76376 0.66762 0.04462 0.0
O43 O 0.77469 0.64352 0.99308 0.0
O44 O 0.87828 0.64487 0.06043 0.0
O45 O 0.88124 0.71246 0.09415 0.0
C46 C 0.93883 0.65122 0.95138 0.0
C47 C 1.0066 0.6677 0.91615 0.0
C48 C 1.02178 0.68884 0.95139 0.0
C49 C 0.98778 0.68075 0.96906 0.0
C50 C 0.95965 0.63701 0.89884 0.0
C51 C 0.92566 0.62865 0.91647 0.0
C52 C 0.90334 0.64071 0.97002 0.0
C53 C 0.75288 0.63814 0.01629 0.0
O54 O 0.78732 0.75048 0.1048 0.0
O55 O 0.74023 0.79862 0.0575 0.0
C56 C 0.89462 0.66687 0.09294 0.0
O57 O 0.85044 0.79849 0.04386 0.0
O58 O 0.91204 0.74736 0.0354 0.0
O59 O 0.73498 0.74569 0.99017 0.0
O60 O 0.8026 0.74633 0.9703 0.0
C61 C 0.69798 0.77826 0.09688 0.0
C62 C 0.65519 0.78222 0.13928 0.0
C63 C 0.70275 0.7876 0.13316 0.0
C64 C 0.60361 0.76727 0.1094 0.0
C65 C 0.59774 0.7584 0.07334 0.0
C66 C 0.64481 0.764 0.06685 0.0
C67 C 0.7486 0.78421 0.0909 0.0
C68 C 0.89698 0.79075 0.04103 0.0
C69 C 0.7507 0.75546 0.96424 0.0
H70 H 0.03398 0.67256 0.90315 0.0
H71 H 1.0 0.69667 -0.00338 0.0
H72 H 0.88971 0.60426 0.90338 0.0
H73 H 0.74295 0.79931 0.1563 0.0
H74 H 0.5668 0.76378 0.11406 0.0
H75 H 0.64004 0.75738 0.03876 0.0
Eu76 Eu 0.24385 0.68722 0.53566 0.0
Eu77 Eu 0.30245 0.74928 0.489 0.0
O78 O 0.24342 0.66035 0.58728 0.0
O79 O 0.17298 0.64425 0.5319 0.0
O80 O 0.34961 0.6794 0.50718 0.0
O81 O 0.32711 0.64921 0.5527 0.0
O82 O 0.23008 0.64507 0.48413 0.0
O83 O 0.22134 0.71203 0.44861 0.0
C84 C 0.1524 0.64833 0.58371 0.0
C85 C 0.07438 0.65722 0.61174 0.0
C86 C 0.06128 0.67715 0.57643 0.0
C87 C 0.10025 0.67287 0.56227 0.0
C88 C 0.12464 0.63143 0.63271 0.0
C89 C 0.16393 0.62696 0.6188 0.0
C90 C 0.19299 0.641 0.56861 0.0
C91 C 0.35822 0.64989 0.53518 0.0
O92 O 0.30767 0.75425 0.43613 0.0
O93 O 0.35537 0.80455 0.4815 0.0
C94 C 0.21247 0.66574 0.45101 0.0
O95 O 0.24401 0.80211 0.49557 0.0
O96 O 0.18408 0.7483 0.50345 0.0
O97 O 0.36008 0.75877 0.55178 0.0
O98 O 0.29298 0.75006 0.57205 0.0
C99 C 0.39594 0.77971 0.44225 0.0
C100 C 0.44014 0.78275 0.4007 0.0
C101 C 0.39373 0.79282 0.40726 0.0
C102 C 0.48776 0.75938 0.42879 0.0
C103 C 0.49097 0.74667 0.4636 0.0
C104 C 0.44521 0.75696 0.47056 0.0
C105 C 0.34598 0.78827 0.44834 0.0
C106 C 0.19677 0.79223 0.4969 0.0
C107 C 0.3435 0.76411 0.57781 0.0
H108 H 0.04333 0.65926 0.62204 0.0
H109 H 0.08943 0.68766 0.53453 0.0
H110 H 0.20259 0.60622 0.63476 0.0
H111 H 0.35636 0.81067 0.38542 0.0
H112 H 0.5239 0.75239 0.42393 0.0
H113 H 0.44788 0.74725 0.49766 0.0
Eu114 Eu 0.75046 0.23392 0.50831 0.0
Eu115 Eu 0.81019 0.29541 0.46183 0.0
O116 O 0.74715 0.22609 0.5617 0.0
O117 O 0.69425 0.18053 0.51419 0.0
O118 O 0.87012 0.23509 0.49543 0.0
O119 O 0.80938 0.18116 0.50224 0.0
O120 O 0.69327 0.225 0.44538 0.0
O121 O 0.76126 0.23223 0.42585 0.0
C122 C 0.65768 0.20501 0.55578 0.0
C123 C 0.56929 0.22908 0.5719 0.0
C124 C 0.56529 0.24228 0.53696 0.0
C125 C 0.60935 0.23016 0.5287 0.0
C126 C 0.61585 0.20322 0.59873 0.0
C127 C 0.66049 0.19118 0.59081 0.0
C128 C 0.70604 0.19455 0.54834 0.0
C129 C 0.8572 0.19112 0.50173 0.0
O130 O 0.80948 0.32224 0.40985 0.0
O131 O 0.88184 0.33653 0.46481 0.0
C132 C 0.71021 0.21916 0.41959 0.0
O133 O 0.72738 0.33418 0.44521 0.0
O134 O 0.70367 0.30387 0.49018 0.0
O135 O 0.82351 0.33919 0.51256 0.0
O136 O 0.82921 0.27383 0.54912 0.0
C137 C 0.89966 0.3325 0.4117 0.0
C138 C 0.92392 0.34824 0.36087 0.0
C139 C 0.88609 0.35295 0.37595 0.0
C140 C 0.97474 0.32294 0.38129 0.0
C141 C 0.99 0.30407 0.41729 0.0
C142 C 0.95248 0.30871 0.4326 0.0
C143 C 0.86063 0.34038 0.42802 0.0
C144 C 0.6959 0.33364 0.4625 0.0
C145 C 0.83813 0.31992 0.54582 0.0
H146 H 0.53435 0.23738 0.57774 0.0
H147 H 0.60607 0.24028 0.5015 0.0
H148 H 0.69701 0.17133 0.61165 0.0
H149 H 0.84707 0.3734 0.36043 0.0
H150 H 1.00468 0.32086 0.37007 0.0
H151 H 0.96497 0.29483 0.46085 0.0
H152 H 0.50949 0.31048 0.93426 0.0
H153 H 0.61291 0.31698 0.96089 0.0
H154 H 0.63199 0.1707 0.00307 0.0
H155 H 0.52846 0.16406 0.97642 0.0
H156 H 0.72364 0.26938 0.04656 0.0
H157 H 0.66958 0.20181 0.90188 0.0
H158 H 0.6228 0.24368 0.90821 0.0
H159 H 0.62933 0.18283 0.92539 0.0
C160 C 0.53604 0.28086 0.95126 0.0
C161 C 0.51131 0.23696 0.95375 0.0
C162 C 0.59495 0.28439 0.96604 0.0
C163 C 0.62967 0.24414 0.98348 0.0
C164 C 0.60568 0.20213 0.98974 0.0
H165 H 0.99436 0.21454 0.06697 0.0
H166 H 0.89551 0.19502 0.04969 0.0
C167 C 0.54669 0.19859 0.97499 0.0
C168 C 0.68861 0.24333 0.98929 0.0
H169 H 0.76559 0.22 0.94284 0.0
C170 C 0.73309 0.25824 0.02412 0.0
C171 C 0.70025 0.22922 0.95963 0.0
C172 C 0.65324 0.21336 0.92156 0.0
C173 C 0.78931 0.25996 0.03 0.0
C174 C 0.80119 0.24544 0.00041 0.0
C175 C 0.75647 0.2305 0.96556 0.0
C176 C 0.85945 0.24835 0.00469 0.0
C177 C 0.83524 0.27885 0.06739 0.0
C178 C 0.87157 0.28169 0.98289 0.0
C179 C 0.928 0.29212 0.99222 0.0
C180 C 0.97283 0.26936 0.02348 0.0
C181 C 0.96041 0.23226 0.04257 0.0
C182 C 0.90407 0.22166 0.03311 0.0
H183 H 0.81727 0.29859 0.08352 0.0
H184 H 0.86065 0.24795 0.08507 0.0
H185 H 0.86439 0.30356 0.0629 0.0
H186 H 0.83766 0.30237 0.96062 0.0
H187 H 0.93653 0.32136 0.9775 0.0
H188 H 0.11391 0.66105 0.01647 0.0
H189 H 0.21264 0.68137 0.03448 0.0
H190 H 0.15512 0.789 0.94554 0.0
H191 H 0.05631 0.76777 0.92699 0.0
H192 H 0.22441 0.72382 0.93842 0.0
H193 H 0.32489 0.78836 0.08706 0.0
H194 H 0.28846 0.73193 0.08137 0.0
H195 H 0.24868 0.78547 0.05792 0.0
C196 C 0.12242 0.69068 0.00206 0.0
C197 C 0.07768 0.71318 0.97062 0.0
C198 C 0.1789 0.70215 0.0122 0.0
C199 C 0.19142 0.73679 0.99138 0.0
C200 C 0.14654 0.76215 0.96198 0.0
H201 H 0.52375 0.81848 0.01854 0.0
H202 H 0.41993 0.81255 0.99087 0.0
C203 C 0.09016 0.75044 0.95168 0.0
C204 C 0.25032 0.74178 -0.00313 0.0
H205 H 0.38812 0.75994 0.06402 0.0
C206 C 0.26008 0.73247 0.96577 0.0
C207 C 0.29695 0.75289 0.03254 0.0
C208 C 0.28921 0.76571 0.06651 0.0
C209 C 0.31533 0.73252 0.96976 0.0
C210 C 0.36178 0.74194 0.00566 0.0
C211 C 0.35214 0.75231 0.03654 0.0
C212 C 0.42124 0.74038 0.01241 0.0
C213 C 0.32424 0.72126 0.93605 0.0
C214 C 0.45565 0.70066 0.03161 0.0
C215 C 0.51465 0.70365 0.04677 0.0
C216 C 0.53998 0.74668 0.04329 0.0
C217 C 0.5051 0.78454 0.02076 0.0
C218 C 0.44593 0.78143 0.00541 0.0
H219 H 0.28366 0.71345 0.9101 0.0
H220 H 0.34527 0.75245 0.93024 0.0
H221 H 0.35294 0.68948 0.94257 0.0
H222 H 0.43723 0.66889 0.03748 0.0
H223 H 0.54075 0.67446 0.06473 0.0
H224 H 0.57155 0.79502 0.52339 0.0
H225 H 0.67344 0.78099 0.54748 0.0
H226 H 0.63714 0.64363 0.4895 0.0
H227 H 0.53525 0.65766 0.46541 0.0
H228 H 0.74848 0.653 0.5635 0.0
H229 H 0.70632 0.79297 0.45277 0.0
H230 H 0.6854 0.80834 0.48815 0.0
H231 H 0.65013 0.75982 0.4556 0.0
C232 C 0.58556 0.76048 0.5179 0.0
C233 C 0.54587 0.7274 0.49264 0.0
C234 C 0.64367 0.75282 0.53115 0.0
C235 C 0.66244 0.71189 0.5194 0.0
C236 C 0.62335 0.67558 0.49865 0.0
H237 H 0.97509 0.63397 0.51604 0.0
H238 H 0.87395 0.64511 0.49727 0.0
C239 C 0.56523 0.6833 0.48531 0.0
C240 C 0.72006 0.71114 0.52276 0.0
H241 H 0.80117 0.76548 0.48797 0.0
C242 C 0.76011 0.67751 0.54706 0.0
C243 C 0.73452 0.74274 0.50065 0.0
C244 C 0.69186 0.77781 0.47254 0.0
C245 C 0.81502 0.67555 0.55059 0.0
C246 C 0.82969 0.70772 0.52898 0.0
C247 C 0.78953 0.741 0.50442 0.0
C248 C 0.88752 0.70792 0.53281 0.0
C249 C 0.85745 0.63957 0.57772 0.0
C250 C 0.92765 0.74143 0.55705 0.0
C251 C 0.98518 0.7353 0.56756 0.0
C252 C 1.00304 0.69582 0.55367 0.0
C253 C 0.9621 0.6653 0.52638 0.0
C254 C 0.90456 0.67121 0.51609 0.0
H255 H 0.84112 0.62025 0.595 0.0
H256 H 0.86771 0.61236 0.56142 0.0
H257 H 0.89763 0.65827 0.59712 0.0
H258 H 0.91509 0.76997 0.57016 0.0
H259 H 1.01621 0.75859 0.58925 0.0
H260 H 0.07501 0.3462 0.47927 0.0
H261 H 0.17656 0.33787 0.49848 0.0
H262 H 0.13947 0.21709 0.42206 0.0
H263 H 0.03795 0.22593 0.40241 0.0
H264 H 0.26133 0.2636 0.52536 0.0
H265 H 0.20259 0.32228 0.37834 0.0
H266 H 0.15395 0.32593 0.39785 0.0
H267 H 0.1662 0.26895 0.38118 0.0
C268 C 0.08896 0.31645 0.46802 0.0
C269 C 0.04898 0.28657 0.43952 0.0
C270 C 0.14681 0.3121 0.4786 0.0
C271 C 0.16513 0.27783 0.46077 0.0
C272 C 0.12592 0.24449 0.43547 0.0
H273 H 0.48334 0.19889 0.47455 0.0
H274 H 0.38178 0.21522 0.4501 0.0
C275 C 0.06816 0.24899 0.42475 0.0
C276 C 0.22375 0.27998 0.46574 0.0
H277 H 0.29892 0.29945 0.41735 0.0
C278 C 0.26962 0.27168 0.50185 0.0
C279 C 0.23434 0.29109 0.43498 0.0
C280 C 0.18677 0.30304 0.39596 0.0
C281 C 0.32585 0.27264 0.50781 0.0
C282 C 0.33633 0.28296 0.47691 0.0
C283 C 0.29058 0.29178 0.4409 0.0
C284 C 0.39472 0.2818 0.4816 0.0
C285 C 0.37368 0.26137 0.54692 0.0
C286 C 0.43499 0.31609 0.50465 0.0
C287 C 0.4929 0.30707 0.51824 0.0
C288 C 0.51093 0.26366 0.5089 0.0
C289 C 0.47037 0.23289 0.48166 0.0
C290 C 0.4124 0.24189 0.4681 0.0
H291 H 0.35786 0.24627 0.56599 0.0
H292 H 0.4039 0.23507 0.5452 0.0
H293 H 0.39752 0.2951 0.55994 0.0
H294 H 0.42198 0.34742 0.51497 0.0
H295 H 0.52352 0.33099 0.53957 0.0
H296 H 0.74203 0.58924 0.07084 0.0
H297 H 0.66335 0.53686 0.06236 0.0
H298 H 0.59345 0.54788 0.94072 0.0
H299 H 0.67305 0.60018 0.9491 0.0
H300 H 0.55114 0.57545 0.02276 0.0
H301 H 0.57616 0.40231 0.96065 0.0
H302 H 0.63526 0.44242 0.98734 0.0
H303 H 0.58415 0.45737 0.93949 0.0
C304 C 0.7106 0.5795 0.04229 0.0
C305 C 0.71291 0.59886 0.01054 0.0
C306 C 0.66588 0.54966 0.03753 0.0
C307 C 0.62287 0.53887 0.001 0.0
C308 C 0.62686 0.55554 0.96913 0.0
H309 H 0.30365 0.39334 0.92115 0.0
H310 H 0.37962 0.44756 0.92726 0.0
C311 C 0.67214 0.58523 0.9739 0.0
C312 C 0.57094 0.51519 -0.00329 0.0
H313 H 0.4922 0.41236 0.96564 0.0
C314 C 0.53811 0.53974 0.01031 0.0
C315 C 0.5545 0.46889 0.98036 0.0
C316 C 0.58942 0.44086 0.96631 0.0
C317 C 0.48866 0.51903 0.00785 0.0
C318 C 0.47242 0.47257 0.99174 0.0
C319 C 0.50509 0.44815 0.97793 0.0
C320 C 0.42157 0.44815 0.98865 0.0
C321 C 0.45379 0.5471 0.02191 0.0
C322 C 0.41918 0.43234 0.0213 0.0
C323 C 0.37546 0.40157 0.01789 0.0
C324 C 0.33467 0.38602 0.98185 0.0
C325 C 0.33519 0.40457 0.94928 0.0
C326 C 0.37835 0.43547 0.95267 0.0
H327 H 0.46554 0.58605 0.02598 0.0
H328 H 0.40772 0.54392 0.00173 0.0
H329 H 0.46116 0.53198 0.04962 0.0
H330 H 0.45281 0.44142 0.04931 0.0
H331 H 0.3759 0.38731 0.04331 0.0
H332 H 0.58648 0.31775 0.44335 0.0
H333 H 0.52439 0.37526 0.45244 0.0
H334 H 0.64865 0.48819 0.47624 0.0
H335 H 0.70984 0.43086 0.46574 0.0
H336 H 0.56588 0.41029 0.52324 0.0
H337 H 0.50188 0.56293 0.42073 0.0
H338 H 0.52867 0.50638 0.41278 0.0
H339 H 0.57693 0.55142 0.44382 0.0
C340 C 0.59886 0.35554 0.44842 0.0
C341 C 0.6523 0.37041 0.45365 0.0
C342 C 0.56372 0.38819 0.45387 0.0
C343 C 0.58209 0.43583 0.46511 0.0
C344 C 0.63326 0.45182 0.46688 0.0
H345 H 0.46736 0.6673 0.55431 0.0
H346 H 0.53096 0.61047 0.54618 0.0
C347 C 0.66812 0.4192 0.46079 0.0
C348 C 0.55334 0.46541 0.48159 0.0
H349 H 0.49145 0.57489 0.47614 0.0
C350 C 0.54914 0.44619 0.51278 0.0
C351 C 0.53254 0.51234 0.46822 0.0
C352 C 0.53474 0.53432 0.43433 0.0
C353 C 0.52488 0.47288 0.53122 0.0
C354 C 0.50392 0.51976 0.51778 0.0
C355 C 0.50826 0.53903 0.48664 0.0
C356 C 0.47445 0.54909 0.5339 0.0
C357 C 0.52276 0.45088 0.56513 0.0
C358 C 0.42344 0.53247 0.53206 0.0
C359 C 0.38774 0.56471 0.53762 0.0
C360 C 0.40253 0.61374 0.54429 0.0
C361 C 0.45577 0.62932 0.54958 0.0
C362 C 0.49178 0.59705 0.54469 0.0
H363 H 0.55622 0.42282 0.57903 0.0
H364 H 0.52798 0.47889 0.58645 0.0
H365 H 0.48093 0.43305 0.55557 0.0
H366 H 0.40882 0.49585 0.52301 0.0
H367 H 0.3462 0.55248 0.53265 0.0
H368 H 0.0606 0.19309 0.96586 0.0
H369 H 1.01712 0.12407 0.98048 0.0
H370 H 0.13163 0.02698 0.96553 0.0
H371 H 0.17605 0.09575 0.95124 0.0
H372 H 0.96605 0.03727 0.93984 0.0
H373 H 0.16187 0.00233 0.07584 0.0
H374 H 0.15042 0.05801 0.0494 0.0
H375 H 0.1718 0.00405 0.03439 0.0
C376 C 0.07611 0.15705 0.96509 0.0
C377 C 0.12231 0.15 0.95779 0.0
C378 C 0.05122 0.11769 0.97353 0.0
C379 C 0.07212 0.07076 0.97487 0.0
C380 C 0.11583 0.06319 0.96539 0.0
H381 H 0.99142 0.78999 0.03082 0.0
H382 H 0.03529 0.85935 0.01693 0.0
C383 C 0.14084 0.10251 0.95696 0.0
C384 C 0.04955 0.03001 0.98762 0.0
H385 H 0.08659 0.94614 0.05831 0.0
C386 C 0.99223 0.01737 0.96576 0.0
C387 C 0.08404 0.00446 0.02157 0.0
C388 C 0.14534 0.01803 0.04691 0.0
C389 C 0.96859 0.979 0.9766 0.0
C390 C 1.0031 0.9534 0.01052 0.0
C391 C 0.0604 0.96607 0.0324 0.0
C392 C 0.98059 0.91245 0.02311 0.0
C393 C 0.90728 0.96545 0.95128 0.0
C394 C 0.93697 0.91978 0.03271 0.0
C395 C 0.91174 0.88027 0.04072 0.0
C396 C 0.92995 0.83282 0.03934 0.0
C397 C 0.97613 0.82599 0.03199 0.0
C398 C 1.00126 0.86554 0.02398 0.0
H399 H 0.8906 0.98142 0.92243 0.0
H400 H 0.90227 0.92547 0.94859 0.0
H401 H 0.8809 0.97912 0.96396 0.0
H402 H 0.92133 0.95596 0.0329 0.0
H403 H 0.87654 0.88687 0.0465 0.0
H404 H 0.95454 0.19459 0.49487 0.0
H405 H 1.01227 0.12607 0.49438 0.0
H406 H 0.90592 0.02815 0.51701 0.0
H407 H 0.84755 0.09613 0.51728 0.0
H408 H 0.07193 0.05345 0.5506 0.0
H409 H 0.89884 0.97677 0.41763 0.0
H410 H 0.89689 0.03789 0.43304 0.0
H411 H 0.88013 0.98768 0.45467 0.0
C412 C 0.94368 0.15857 0.50013 0.0
C413 C 0.89607 0.15078 0.50576 0.0
C414 C 0.97668 0.11951 0.49977 0.0
C415 C 0.96249 0.07217 0.5049 0.0
C416 C 0.91667 0.06444 0.51221 0.0
H417 H 0.09995 0.78862 0.50437 0.0
H418 H 0.04253 0.85704 0.50545 0.0
C419 C 0.88361 0.10339 0.51255 0.0
C420 C 0.99497 0.03071 0.50186 0.0
H421 H 0.98271 0.92973 0.44936 0.0
C422 C 0.05261 0.02645 0.52844 0.0
C423 C 0.96934 -0.00427 0.47282 0.0
C424 C 0.90802 -0.00023 0.44268 0.0
C425 C 0.08529 0.98743 0.52715 0.0
C426 C 0.05967 0.95247 0.49811 0.0
C427 C 1.00202 0.95672 0.47154 0.0
C428 C 0.09217 0.91111 0.49496 0.0
C429 C 0.14662 0.98339 0.55729 0.0
C430 C 0.13784 0.91898 0.48751 0.0
C431 C 0.17071 0.88008 0.48682 0.0
C432 C 0.15823 0.83261 0.49341 0.0
C433 C 0.11084 0.82471 0.49926 0.0
C434 C 0.07801 0.86371 0.49996 0.0
H435 H 0.15579 0.00633 0.58235 0.0
H436 H 0.15777 0.94525 0.56688 0.0
H437 H 0.17449 -0.00446 0.54529 0.0
H438 H 0.14857 0.95533 0.48281 0.0
H439 H 0.20662 0.88744 0.48196 0.0
H440 H 0.59764 0.19687 0.39259 0.0
H441 H 0.5275 0.18151 0.3266 0.0
H442 H 0.65932 0.1901 0.29337 0.0
H443 H 0.72976 0.20453 0.3591 0.0
H444 H 0.50573 0.24871 0.27123 0.0
H445 H 0.56766 0.07506 0.23156 0.0
H446 H 0.59331 0.0932 0.28035 0.0
H447 H 0.62551 0.11712 0.25313 0.0
C448 C 0.61198 0.19429 0.37142 0.0
C449 C 0.66928 0.20228 0.38112 0.0
C450 C 0.57182 0.18551 0.33371 0.0
C451 C 0.58827 0.18423 0.30513 0.0
C452 C 0.64582 0.18988 0.31503 0.0
H453 H 0.41776 0.22632 0.06211 0.0
H454 H 0.48724 0.20968 0.12841 0.0
C455 C 0.68601 0.19857 0.35267 0.0
C456 C 0.5447 0.18358 0.26465 0.0
H457 H 0.50403 0.12589 0.18012 0.0
C458 C 0.50487 0.22146 0.25142 0.0
C459 C 0.54416 0.14831 0.23882 0.0
C460 C 0.58462 0.10586 0.25172 0.0
C461 C 0.46533 0.22574 0.21292 0.0
C462 C 0.46508 0.19077 0.18703 0.0
C463 C 0.50452 0.15261 0.20015 0.0
C464 C 0.42394 0.19395 0.14619 0.0
C465 C 0.42511 0.26845 0.20006 0.0
C466 C 0.36569 0.18895 0.13421 0.0
C467 C 0.32607 0.19859 0.09662 0.0
C468 C 0.34403 0.21318 0.07023 0.0
C469 C 0.40261 0.21533 0.08179 0.0
C470 C 0.44232 0.20579 0.11958 0.0
H471 H 0.43892 0.29736 0.22193 0.0
H472 H 0.42156 0.28419 0.17342 0.0
H473 H 0.38219 0.25616 0.19432 0.0
H474 H 0.35082 0.17921 0.15431 0.0
H475 H 0.28129 0.19597 0.08857 0.0
H476 H 0.67448 0.71994 0.1969 0.0
H477 H 0.63875 0.72975 0.24299 0.0
H478 H 0.59218 0.87744 0.20605 0.0
H479 H 0.62795 0.86759 0.16003 0.0
H480 H 0.656 0.79944 0.30332 0.0
H481 H 0.43944 0.80555 0.17928 0.0
H482 H 0.50094 0.78514 0.17559 0.0
H483 H 0.48956 0.84871 0.17876 0.0
C484 C 0.65927 0.75517 0.20003 0.0
C485 C 0.65524 0.79337 0.17557 0.0
C486 C 0.63815 0.7606 0.226 0.0
C487 C 0.61188 0.80408 0.22753 0.0
C488 C 0.61174 0.84342 0.20513 0.0
H489 H 0.48505 0.8652 0.38928 0.0
H490 H 0.52342 0.87485 0.34463 0.0
C491 C 0.63308 0.83806 0.1793 0.0
C492 C 0.58012 0.80668 0.24979 0.0
H493 H 0.44564 0.81411 0.23991 0.0
C494 C 0.61009 0.80301 0.28951 0.0
C495 C 0.52 0.81043 0.23167 0.0
C496 C 0.4853 0.8123 0.18897 0.0
C497 C 0.58167 0.80345 0.3116 0.0
C498 C 0.52162 0.80807 0.29351 0.0
C499 C 0.49162 0.81126 0.25377 0.0
C500 C 0.48943 0.80715 0.31553 0.0
C501 C 0.616 0.79766 0.35411 0.0
C502 C 0.45447 0.76748 0.31242 0.0
C503 C 0.43187 0.76231 0.3376 0.0
C504 C 0.44315 0.79707 0.36593 0.0
C505 C 0.47435 0.83861 0.36702 0.0
C506 C 0.49713 0.84369 0.34196 0.0
H507 H 0.65991 0.78477 0.36281 0.0
H508 H 0.61891 0.83317 0.3679 0.0
H509 H 0.59515 0.77172 0.3649 0.0
H510 H 0.44788 0.73886 0.29223 0.0
H511 H 0.40952 0.72926 0.33694 0.0
H512 H 0.32465 0.77817 0.63863 0.0
H513 H 0.39529 0.79433 0.70397 0.0
H514 H 0.52544 0.80637 0.66941 0.0
H515 H 0.4551 0.78923 0.60378 0.0
H516 H 0.55034 0.73966 0.72525 0.0
H517 H 0.48367 0.91094 0.76477 0.0
H518 H 0.42701 0.8677 0.74383 0.0
H519 H 0.45771 0.89257 0.71599 0.0
C520 C 0.36804 0.78525 0.64466 0.0
C521 C 0.38431 0.78195 0.61597 0.0
C522 C 0.40832 0.79495 0.68208 0.0
C523 C 0.46549 0.80208 0.6915 0.0
C524 C 0.4814 0.80125 0.66265 0.0
H525 H 0.77216 0.79193 0.9089 0.0
H526 H 0.70336 0.80997 0.8432 0.0
C527 C 0.44113 0.79143 0.62517 0.0
C528 C 0.50945 0.80353 0.73185 0.0
H529 H 0.54835 0.8606 0.81639 0.0
C530 C 0.55045 0.76657 0.74505 0.0
C531 C 0.50901 0.83835 0.75767 0.0
C532 C 0.4673 0.8799 0.7448 0.0
C533 C 0.59006 0.76258 0.78355 0.0
C534 C 0.58918 0.79696 0.80946 0.0
C535 C 0.54873 0.83435 0.79634 0.0
C536 C 0.62977 0.79361 0.85038 0.0
C537 C 0.63141 0.72065 0.7964 0.0
C538 C 0.61082 0.78056 0.87647 0.0
C539 C 0.65009 0.77032 0.91422 0.0
C540 C 0.70876 0.77293 0.92623 0.0
C541 C 0.72727 0.78889 0.90044 0.0
C542 C 0.68809 0.79928 0.86289 0.0
H543 H 0.61859 0.69195 0.77442 0.0
H544 H 0.67408 0.73396 0.80242 0.0
H545 H 0.63505 0.70429 0.82288 0.0
H546 H 0.56584 0.77612 0.86723 0.0
H547 H 0.63453 0.75827 0.93345 0.0
H548 H 0.42584 0.11536 0.8379 0.0
H549 H 0.46283 0.10533 0.79254 0.0
H550 H 0.41509 0.25248 0.75436 0.0
H551 H 0.37815 0.26246 0.79978 0.0
H552 H 0.39949 0.18293 0.69483 0.0
H553 H 0.61523 0.17752 0.81973 0.0
H554 H 0.56514 0.13417 0.82003 0.0
H555 H 0.55329 0.19769 0.82297 0.0
C556 C 0.42073 0.1447 0.81848 0.0
C557 C 0.39788 0.1893 0.82166 0.0
C558 C 0.44278 0.13926 0.79305 0.0
C559 C 0.44267 0.17843 0.77051 0.0
C560 C 0.41571 0.22178 0.77148 0.0
H561 H 0.64543 0.25613 0.66258 0.0
H562 H 0.60708 0.24515 0.70714 0.0
C563 C 0.39389 0.22728 0.79705 0.0
C564 C 0.47495 0.17582 0.74861 0.0
H565 H 0.60995 0.16897 0.75934 0.0
C566 C 0.44543 0.17947 0.70888 0.0
C567 C 0.5351 0.17227 0.76705 0.0
C568 C 0.56934 0.17058 0.8098 0.0
C569 C 0.4743 0.17928 0.6871 0.0
C570 C 0.53437 0.17484 0.70548 0.0
C571 C 0.56394 0.1716 0.74524 0.0
C572 C 0.56699 0.17641 0.68377 0.0
C573 C 0.44045 0.18527 0.64458 0.0
C574 C 0.56014 0.14009 0.65735 0.0
C575 C 0.58296 0.14596 0.63236 0.0
C576 C 0.61327 0.18812 0.6335 0.0
C577 C 0.62377 0.22265 0.66187 0.0
C578 C 0.60119 0.21667 0.68698 0.0
H579 H 0.39626 0.19758 0.63562 0.0
H580 H 0.46123 0.21179 0.63415 0.0
H581 H 0.43837 0.14999 0.6307 0.0
H582 H 0.53439 0.10851 0.65458 0.0
H583 H 0.57284 0.11953 0.61007 0.0
H584 H 0.18042 0.69516 0.37887 0.0
H585 H 0.1269 0.64979 0.32056 0.0
H586 H 0.1217 0.52588 0.38478 0.0
H587 H 0.17572 0.57143 0.44402 0.0
H588 H 0.15179 0.55078 0.29867 0.0
H589 H 0.95082 0.56665 0.30838 0.0
H590 H 1.00746 0.60892 0.33462 0.0
H591 H 1.01612 0.54621 0.34809 0.0
C592 C 0.16825 0.65824 0.38082 0.0
C593 C 0.18175 0.63709 0.41602 0.0
C594 C 0.13808 0.63221 0.34747 0.0
C595 C 0.12067 0.58457 0.34854 0.0
C596 C 0.13501 0.56263 0.38357 0.0
H597 H 0.91807 0.56937 0.10156 0.0
H598 H 0.96631 0.52387 0.1614 0.0
C599 C 0.1656 0.58876 0.41722 0.0
C600 C 0.08337 0.56101 0.31211 0.0
H601 H 0.94349 0.56847 0.24706 0.0
C602 C 0.10599 0.55214 0.28737 0.0
C603 C 1.02385 0.56228 0.2978 0.0
C604 C 0.99773 0.57136 0.32347 0.0
C605 C 0.07093 0.55268 0.24797 0.0
C606 C 1.01228 0.56177 0.2336 0.0
C607 C 0.98874 0.56204 0.25841 0.0
C608 C 0.98018 0.5867 0.19687 0.0
C609 C 0.09771 0.55071 0.22216 0.0
C610 C 0.97214 0.63689 0.19731 0.0
C611 C 0.9449 0.66289 0.16356 0.0
C612 C 0.92526 0.63921 0.12859 0.0
C613 C 0.93322 0.58873 0.12813 0.0
C614 C 0.96049 0.56258 0.16215 0.0
H615 H 0.143 0.53933 0.23751 0.0
H616 H 0.07413 0.52498 0.19863 0.0
H617 H 0.09529 0.58703 0.20948 0.0
H618 H 0.98767 0.65613 0.224 0.0
H619 H 0.93938 0.7016 0.16496 0.0
H620 H 0.95225 0.44072 0.35513 0.0
H621 H 0.97758 0.47042 0.30725 0.0
H622 H 0.91156 0.33937 0.2429 0.0
H623 H 0.88676 0.3095 0.29087 0.0
H624 H 0.05718 0.42279 0.29668 0.0
H625 H 0.86368 0.4397 0.15866 0.0
H626 H 0.8615 0.43899 0.20318 0.0
H627 H 0.86437 0.38305 0.18094 0.0
C628 C 0.94014 0.41963 0.3296 0.0
C629 C 0.91628 0.37336 0.32611 0.0
C630 C 0.95519 0.43643 0.30248 0.0
C631 C 0.94603 0.40754 0.27123 0.0
C632 C 0.91787 0.36296 0.2662 0.0
H633 H 0.13047 0.31418 0.1667 0.0
H634 H 0.10368 0.34452 0.21342 0.0
C635 C 0.9033 0.34594 0.29349 0.0
C636 C 0.97412 0.4194 0.24773 0.0
H637 H 0.95057 0.41925 0.15609 0.0
C638 C 0.03374 0.42316 0.26591 0.0
C639 C 0.94381 0.42107 0.20765 0.0
C640 C 0.87974 0.42103 0.18651 0.0
C641 C 0.06392 0.42394 0.24507 0.0
C642 C 0.03378 0.42046 0.20504 0.0
C643 C 0.97399 0.42121 0.18682 0.0
C644 C 0.06257 0.40948 0.18181 0.0
C645 C 0.12791 0.42673 0.26629 0.0
C646 C 0.0502 0.4365 0.14895 0.0
C647 C 0.06623 0.4193 0.12241 0.0
C648 C 0.0943 0.37459 0.12813 0.0
C649 C 0.11048 0.34947 0.16227 0.0
C650 C 0.09485 0.36679 0.18891 0.0
H651 H 0.14257 0.44713 0.29324 0.0
H652 H 0.14564 0.38954 0.2737 0.0
H653 H 0.14528 0.4443 0.24894 0.0
H654 H 1.02477 0.46914 0.14252 0.0
H655 H 0.05178 0.43852 0.09575 0.0
H656 H 0.1294 0.28479 0.8308 0.0
H657 H 0.082 0.33057 0.77196 0.0
H658 H 0.06871 0.45434 0.83296 0.0
H659 H 0.11626 0.40854 0.89258 0.0
H660 H 0.96851 0.43353 0.77152 0.0
H661 H 0.13245 0.43821 0.72571 0.0
H662 H 0.13217 0.37898 0.744 0.0
H663 H 0.14936 0.43087 0.77494 0.0
C664 C 0.11679 0.32182 0.83191 0.0
C665 C 0.12646 0.34292 0.86635 0.0
C666 C 0.0905 0.34829 0.7983 0.0
C667 C 0.07361 0.39648 0.79836 0.0
C668 C 0.08269 0.41767 0.83258 0.0
H669 H 0.89015 0.40818 0.55428 0.0
H670 H 0.94151 0.45449 0.61338 0.0
C671 C 0.10938 0.39123 0.86644 0.0
C672 C 0.04032 0.42134 0.76162 0.0
H673 H 0.03425 0.41818 0.67482 0.0
C674 C 0.98326 0.43231 0.75046 0.0
C675 C 0.05989 0.42258 0.7344 0.0
C676 C 0.12208 0.41766 0.74558 0.0
C677 C 0.94357 0.43528 0.71188 0.0
C678 C 0.96164 0.42567 0.68452 0.0
C679 C 1.01999 0.42379 0.69585 0.0
C680 C 0.92251 0.4042 0.64744 0.0
C681 C 0.88192 0.44384 0.70075 0.0
C682 C 0.89524 0.36061 0.64718 0.0
C683 C 0.86712 0.33383 0.61397 0.0
C684 C 0.86555 0.35009 0.58022 0.0
C685 C 0.89088 0.39475 0.57999 0.0
C686 C 0.91981 0.42139 0.61355 0.0
H687 H 0.8779 0.46959 0.72071 0.0
H688 H 0.85824 0.45841 0.67141 0.0
H689 H 0.86215 0.40912 0.70234 0.0
H690 H 0.8982 0.34587 0.6732 0.0
H691 H 0.84756 0.29984 0.61497 0.0
H692 H 0.0989 0.53792 0.63862 0.0
H693 H 0.07018 0.50774 0.68472 0.0
H694 H 0.12743 0.64098 0.74767 0.0
H695 H 0.15627 0.67094 0.70169 0.0
H696 H 0.1441 0.56077 0.7944 0.0
H697 H 0.923 0.56603 0.67433 0.0
H698 H 0.9739 0.52849 0.66918 0.0
H699 H 0.98174 0.5931 0.67065 0.0
C700 C 0.1081 0.55953 0.66347 0.0
C701 C 0.13063 0.60639 0.66707 0.0
C702 C 0.09076 0.54261 0.68946 0.0
C703 C 0.0955 0.57242 0.71926 0.0
C704 C 0.12323 0.61729 0.72489 0.0
H705 H 0.92771 0.67578 0.82943 0.0
H706 H 0.95304 0.64355 0.78247 0.0
C707 C 0.14035 0.63425 0.69889 0.0
C708 C 0.06599 0.56064 0.7419 0.0
H709 H 0.93359 0.56054 0.7356 0.0
C710 C 0.09811 0.55938 0.7816 0.0
C711 C 1.00582 0.55924 0.72502 0.0
C712 C 0.96879 0.56201 0.68252 0.0
C713 C 0.0719 0.56052 0.80494 0.0
C714 C 1.01175 0.56162 0.78808 0.0
C715 C 0.9796 0.5593 0.7484 0.0
C716 C 0.98255 0.57441 0.81068 0.0
C717 C 0.10887 0.56534 0.84733 0.0
C718 C 0.98692 0.545 0.8407 0.0
C719 C 0.9719 0.56338 0.86747 0.0
C720 C 0.95204 0.61121 0.86433 0.0
C721 C 0.94202 0.63853 0.83209 0.0
C722 C 0.95695 0.62022 0.80542 0.0
H723 H 0.15464 0.56909 0.8554 0.0
H724 H 0.09568 0.59744 0.85801 0.0
H725 H 0.10392 0.53289 0.8619 0.0
H726 H 1.00571 0.50926 0.84498 0.0
H727 H 0.98094 0.54196 0.89244 0.0
loop_
_geom_bond_atom_site_label_1
_geom_bond_atom_site_label_2
_geom_bond_distance
_geom_bond_site_symmetry_2
_ccdc_geom_bond_type
Eu0 O2 2.489 . S
Eu0 O3 2.516 1_556 S
Eu0 O5 2.325 1_556 S
Eu0 O6 2.374 1_556 S
Eu0 C14 2.850 . S
Eu0 O20 2.397 1_556 S
Eu0 O22 2.327 . S
Eu1 O4 2.396 . S
Eu1 O7 2.323 . S
Eu1 O16 2.472 . S
Eu1 O17 2.517 1_554 S
Eu1 O19 2.336 1_554 S
Eu1 O21 2.389 1_554 S
Eu1 C29 2.835 . S
O2 Eu0 2.489 . S
O2 C14 1.258 . S
O3 Eu0 2.516 1_554 S
O3 C14 1.246 1_554 S
O4 Eu1 2.396 . S
O4 C15 1.216 . S
O5 Eu0 2.325 1_554 S
O5 C15 1.279 . S
O6 Eu0 2.374 1_554 S
O6 C18 1.239 . S
O7 Eu1 2.323 . S
O7 C18 1.249 . S
C8 C11 1.390 . S
C8 C13 1.370 . S
C8 C14 1.489 . S
C9 C10 1.344 . S
C9 C12 1.413 . S
C9 H32 0.931 . S
C10 C9 1.344 . S
C10 C11 1.423 . S
C11 C8 1.390 . S
C11 C10 1.423 . S
C11 H33 0.930 1_556 S
C12 C9 1.413 . S
C12 C13 1.397 . S
C13 C8 1.370 . S
C13 C12 1.397 . S
C13 H34 0.932 . S
C14 Eu0 2.850 . S
C14 O2 1.258 . S
C14 O3 1.246 1_556 S
C14 C8 1.489 . S
C15 O4 1.216 . S
C15 O5 1.279 . S
O16 Eu1 2.472 . S
O16 C29 1.258 . S
O17 Eu1 2.517 1_556 S
O17 C29 1.227 1_556 S
C18 O6 1.239 . S
C18 O7 1.249 . S
O19 Eu1 2.336 1_556 S
O19 C30 1.279 1_556 S
O20 Eu0 2.397 1_554 S
O20 C30 1.216 . S
O21 Eu1 2.389 1_556 S
O21 C31 1.239 . S
O22 Eu0 2.327 . S
O22 C31 1.249 . S
C23 C25 1.370 . S
C23 C28 1.390 . S
C23 C29 1.489 . S
C24 C25 1.397 . S
C24 C26 1.413 . S
C25 C23 1.370 . S
C25 C24 1.397 . S
C25 H35 0.932 . S
C26 C24 1.413 . S
C26 C27 1.344 1_455 S
C26 H36 0.940 . S
C27 C26 1.344 1_655 S
C27 C28 1.423 1_655 S
C28 C23 1.390 . S
C28 C27 1.423 1_455 S
C28 H37 0.930 . S
C29 Eu1 2.835 . S
C29 O16 1.258 . S
C29 O17 1.227 1_554 S
C29 C23 1.489 . S
C30 O19 1.279 1_554 S
C30 O20 1.216 . S
C31 O21 1.239 . S
C31 O22 1.249 . S
H32 C9 0.931 . S
H33 C11 0.930 1_554 S
H34 C13 0.932 . S
H35 C25 0.932 . S
H36 C26 0.940 . S
H37 C28 0.930 . S
Eu38 O40 2.489 . S
Eu38 O41 2.516 1_556 S
Eu38 O43 2.325 1_556 S
Eu38 O44 2.374 1_556 S
Eu38 C52 2.850 . S
Eu38 O58 2.397 1_556 S
Eu38 O60 2.327 . S
Eu39 O42 2.396 . S
Eu39 O45 2.323 . S
Eu39 O54 2.472 . S
Eu39 O55 2.517 1_554 S
Eu39 O57 2.336 1_554 S
Eu39 O59 2.389 1_554 S
Eu39 C67 2.835 . S
O40 Eu38 2.489 . S
O40 C52 1.258 . S
O41 Eu38 2.516 1_554 S
O41 C52 1.246 1_554 S
O42 Eu39 2.396 . S
O42 C53 1.216 . S
O43 Eu38 2.325 1_554 S
O43 C53 1.279 . S
O44 Eu38 2.374 1_554 S
O44 C56 1.239 . S
O45 Eu39 2.323 . S
O45 C56 1.249 . S
C46 C49 1.390 . S
C46 C51 1.370 . S
C46 C52 1.489 . S
C47 C48 1.344 1_655 S
C47 C50 1.413 . S
C47 H70 0.939 . S
C48 C47 1.344 1_455 S
C48 C49 1.423 1_455 S
C49 C46 1.390 . S
C49 C48 1.423 1_655 S
C49 H71 0.930 1_556 S
C50 C47 1.413 . S
C50 C51 1.397 . S
C51 C46 1.370 . S
C51 C50 1.397 . S
C51 H72 0.932 . S
C52 Eu38 2.850 . S
C52 O40 1.258 . S
C52 O41 1.246 1_556 S
C52 C46 1.489 . S
C53 O42 1.216 . S
C53 O43 1.279 . S
O54 Eu39 2.472 . S
O54 C67 1.258 . S
O55 Eu39 2.517 1_556 S
O55 C67 1.227 1_556 S
C56 O44 1.239 . S
C56 O45 1.249 . S
O57 Eu39 2.336 1_556 S
O57 C68 1.279 1_556 S
O58 Eu38 2.397 1_554 S
O58 C68 1.216 . S
O59 Eu39 2.389 1_556 S
O59 C69 1.239 . S
O60 Eu38 2.327 . S
O60 C69 1.249 . S
C61 C63 1.370 . S
C61 C66 1.390 . S
C61 C67 1.489 . S
C62 C63 1.397 . S
C62 C64 1.413 . S
C63 C61 1.370 . S
C63 C62 1.397 . S
C63 H73 0.932 . S
C64 C62 1.413 . S
C64 C65 1.344 . S
C64 H74 0.931 . S
C65 C64 1.344 . S
C65 C66 1.423 . S
C66 C61 1.390 . S
C66 C65 1.423 . S
C66 H75 0.930 . S
C67 Eu39 2.835 . S
C67 O54 1.258 . S
C67 O55 1.227 1_554 S
C67 C61 1.489 . S
C68 O57 1.279 1_554 S
C68 O58 1.216 . S
C69 O59 1.239 . S
C69 O60 1.249 . S
H70 C47 0.939 . S
H71 C49 0.930 1_554 S
H72 C51 0.932 . S
H73 C63 0.932 . S
H74 C64 0.931 . S
H75 C66 0.930 . S
Eu76 O78 2.472 . S
Eu76 O79 2.507 . S
Eu76 O81 2.336 . S
Eu76 O82 2.389 . S
Eu76 C90 2.835 . S
Eu76 O96 2.396 . S
Eu76 O98 2.323 . S
Eu77 O80 2.396 . S
Eu77 O83 2.323 . S
Eu77 O92 2.472 . S
Eu77 O93 2.507 . S
Eu77 O95 2.336 . S
Eu77 O97 2.389 . S
Eu77 C105 2.835 . S
O78 Eu76 2.472 . S
O78 C90 1.258 . S
O79 Eu76 2.507 . S
O79 C90 1.246 . S
O80 Eu77 2.396 . S
O80 C91 1.216 . S
O81 Eu76 2.336 . S
O81 C91 1.279 . S
O82 Eu76 2.389 . S
O82 C94 1.239 . S
O83 Eu77 2.323 . S
O83 C94 1.249 . S
C84 C87 1.390 . S
C84 C89 1.370 . S
C84 C90 1.489 . S
C85 C86 1.344 1_455 S
C85 C88 1.413 . S
C85 H108 0.939 . S
C86 C85 1.344 1_655 S
C86 C87 1.423 1_655 S
C87 C84 1.390 . S
C87 C86 1.423 1_455 S
C87 H109 0.930 . S
C88 C85 1.413 . S
C88 C89 1.397 . S
C89 C84 1.370 . S
C89 C88 1.397 . S
C89 H110 0.932 . S
C90 Eu76 2.835 . S
C90 O78 1.258 . S
C90 O79 1.246 . S
C90 C84 1.489 . S
C91 O80 1.216 . S
C91 O81 1.279 . S
O92 Eu77 2.472 . S
O92 C105 1.258 . S
O93 Eu77 2.507 . S
O93 C105 1.246 . S
C94 O82 1.239 . S
C94 O83 1.249 . S
O95 Eu77 2.336 . S
O95 C106 1.279 . S
O96 Eu76 2.396 . S
O96 C106 1.216 . S
O97 Eu77 2.389 . S
O97 C107 1.239 . S
O98 Eu76 2.323 . S
O98 C107 1.249 . S
C99 C101 1.370 . S
C99 C104 1.390 . S
C99 C105 1.489 . S
C100 C101 1.397 . S
C100 C102 1.413 . S
C101 C99 1.370 . S
C101 C100 1.397 . S
C101 H111 0.932 . S
C102 C100 1.413 . S
C102 C103 1.344 . S
C102 H112 0.931 . S
C103 C102 1.344 . S
C103 C104 1.423 . S
C104 C99 1.390 . S
C104 C103 1.423 . S
C104 H113 0.930 . S
C105 Eu77 2.835 . S
C105 O92 1.258 . S
C105 O93 1.246 . S
C105 C99 1.489 . S
C106 O95 1.279 . S
C106 O96 1.216 . S
C107 O97 1.239 . S
C107 O98 1.249 . S
H108 C85 0.939 . S
H109 C87 0.930 . S
H110 C89 0.932 . S
H111 C101 0.932 . S
H112 C102 0.931 . S
H113 C104 0.930 . S
Eu114 O116 2.472 . S
Eu114 O117 2.507 . S
Eu114 O119 2.336 . S
Eu114 O120 2.389 . S
Eu114 C128 2.835 . S
Eu114 O134 2.396 . S
Eu114 O136 2.323 . S
Eu115 O118 2.396 . S
Eu115 O121 2.323 . S
Eu115 O130 2.472 . S
Eu115 O131 2.507 . S
Eu115 O133 2.336 . S
Eu115 O135 2.389 . S
Eu115 C143 2.835 . S
O116 Eu114 2.472 . S
O116 C128 1.258 . S
O117 Eu114 2.507 . S
O117 C128 1.246 . S
O118 Eu115 2.396 . S
O118 C129 1.216 . S
O119 Eu114 2.336 . S
O119 C129 1.279 . S
O120 Eu114 2.389 . S
O120 C132 1.239 . S
O121 Eu115 2.323 . S
O121 C132 1.249 . S
C122 C125 1.390 . S
C122 C127 1.370 . S
C122 C128 1.489 . S
C123 C124 1.344 . S
C123 C126 1.413 . S
C123 H146 0.931 . S
C124 C123 1.344 . S
C124 C125 1.423 . S
C125 C122 1.390 . S
C125 C124 1.423 . S
C125 H147 0.930 . S
C126 C123 1.413 . S
C126 C127 1.397 . S
C127 C122 1.370 . S
C127 C126 1.397 . S
C127 H148 0.932 . S
C128 Eu114 2.835 . S
C128 O116 1.258 . S
C128 O117 1.246 . S
C128 C122 1.489 . S
C129 O118 1.216 . S
C129 O119 1.279 . S
O130 Eu115 2.472 . S
O130 C143 1.258 . S
O131 Eu115 2.507 . S
O131 C143 1.246 . S
C132 O120 1.239 . S
C132 O121 1.249 . S
O133 Eu115 2.336 . S
O133 C144 1.279 . S
O134 Eu114 2.396 . S
O134 C144 1.216 . S
O135 Eu115 2.389 . S
O135 C145 1.239 . S
O136 Eu114 2.323 . S
O136 C145 1.249 . S
C137 C139 1.370 . S
C137 C142 1.390 . S
C137 C143 1.489 . S
C138 C139 1.397 . S
C138 C140 1.413 . S
C139 C137 1.370 . S
C139 C138 1.397 . S
C139 H149 0.932 . S
C140 C138 1.413 . S
C140 C141 1.344 1_655 S
C140 H150 0.940 . S
C141 C140 1.344 1_455 S
C141 C142 1.423 1_455 S
C142 C137 1.390 . S
C142 C141 1.423 1_655 S
C142 H151 0.930 . S
C143 Eu115 2.835 . S
C143 O130 1.258 . S
C143 O131 1.246 . S
C143 C137 1.489 . S
C144 O133 1.279 . S
C144 O134 1.216 . S
C145 O135 1.239 . S
C145 O136 1.249 . S
H146 C123 0.931 . S
H147 C125 0.930 . S
H148 C127 0.932 . S
H149 C139 0.932 . S
H150 C140 0.940 . S
H151 C142 0.930 . S
H152 C160 0.929 1_554 S
H153 C162 0.930 . S
H154 C164 0.930 . S
H155 C167 0.929 . S
H156 C170 0.930 . S
H157 C172 0.960 . S
H158 C172 0.960 . S
H159 C172 0.960 . S
C160 H152 0.929 1_556 S
C160 C161 1.377 . S
C160 C162 1.384 1_556 S
C161 C160 1.377 . S
C161 C167 1.390 . S
C162 H153 0.930 . S
C162 C160 1.384 1_554 S
C162 C163 1.372 1_554 S
C163 C162 1.372 1_556 S
C163 C164 1.400 . S
C163 C168 1.490 . S
C164 H154 0.930 . S
C164 C163 1.400 . S
C164 C167 1.386 . S
H165 C181 0.930 . S
H166 C182 0.931 1_556 S
C167 H155 0.929 . S
C167 C161 1.390 . S
C167 C164 1.386 . S
C168 C163 1.490 . S
C168 C170 1.395 1_556 S
C168 C171 1.403 . S
H169 C175 0.930 . S
C170 H156 0.930 . S
C170 C168 1.395 1_554 S
C170 C173 1.403 . S
C171 C168 1.403 . S
C171 C172 1.524 . S
C171 C175 1.400 . S
C172 H157 0.960 . S
C172 H158 0.960 . S
C172 H159 0.960 . S
C172 C171 1.524 . S
C173 C170 1.403 . S
C173 C174 1.392 . S
C173 C177 1.495 . S
C174 C173 1.392 . S
C174 C175 1.385 1_554 S
C174 C176 1.478 . S
C175 H169 0.930 . S
C175 C171 1.400 . S
C175 C174 1.385 1_556 S
C176 C174 1.478 . S
C176 C178 1.381 . S
C176 C182 1.383 . S
C177 C173 1.495 . S
C177 H183 0.959 . S
C177 H184 0.961 . S
C177 H185 0.960 . S
C178 C176 1.381 . S
C178 C179 1.394 . S
C178 H186 0.930 . S
C179 C178 1.394 . S
C179 C180 1.383 . S
C179 H187 0.929 . S
C180 C179 1.383 . S
C180 C181 1.377 . S
C181 H165 0.930 . S
C181 C180 1.377 . S
C181 C182 1.379 . S
C182 H166 0.931 1_554 S
C182 C176 1.383 . S
C182 C181 1.379 . S
H183 C177 0.959 . S
H184 C177 0.961 . S
H185 C177 0.960 . S
H186 C178 0.930 . S
H187 C179 0.929 . S
H188 C196 0.929 . S
H189 C198 0.930 . S
H190 C200 0.930 . S
H191 C203 0.929 . S
H192 C206 0.930 . S
H193 C208 0.960 . S
H194 C208 0.960 . S
H195 C208 0.960 . S
C196 H188 0.929 . S
C196 C197 1.377 . S
C196 C198 1.384 . S
C197 C196 1.377 . S
C197 C203 1.390 1_556 S
C198 H189 0.930 . S
C198 C196 1.384 . S
C198 C199 1.372 . S
C199 C198 1.372 . S
C199 C200 1.400 1_556 S
C199 C204 1.490 . S
C200 H190 0.930 . S
C200 C199 1.400 1_554 S
C200 C203 1.386 . S
H201 C217 0.930 . S
H202 C218 0.931 . S
C203 H191 0.929 . S
C203 C197 1.390 1_554 S
C203 C200 1.386 . S
C204 C199 1.490 . S
C204 C206 1.395 . S
C204 C207 1.403 1_556 S
H205 C211 0.930 . S
C206 H192 0.930 . S
C206 C204 1.395 . S
C206 C209 1.403 . S
C207 C204 1.403 1_554 S
C207 C208 1.524 . S
C207 C211 1.400 . S
C208 H193 0.960 . S
C208 H194 0.960 . S
C208 H195 0.960 . S
C208 C207 1.524 . S
C209 C206 1.403 . S
C209 C210 1.392 1_556 S
C209 C213 1.495 . S
C210 C209 1.392 1_554 S
C210 C211 1.385 . S
C210 C212 1.478 . S
C211 H205 0.930 . S
C211 C207 1.400 . S
C211 C210 1.385 . S
C212 C210 1.478 . S
C212 C214 1.381 1_554 S
C212 C218 1.383 . S
C213 C209 1.495 . S
C213 H219 0.959 . S
C213 H220 0.961 . S
C213 H221 0.960 . S
C214 C212 1.381 1_556 S
C214 C215 1.394 1_556 S
C214 H222 0.930 . S
C215 C214 1.394 1_554 S
C215 C216 1.383 . S
C215 H223 0.929 1_554 S
C216 C215 1.383 . S
C216 C217 1.377 . S
C217 H201 0.930 . S
C217 C216 1.377 . S
C217 C218 1.379 . S
C218 H202 0.931 . S
C218 C212 1.383 . S
C218 C217 1.379 . S
H219 C213 0.959 . S
H220 C213 0.961 . S
H221 C213 0.960 . S
H222 C214 0.930 . S
H223 C215 0.929 1_556 S
H224 C232 0.929 . S
H225 C234 0.930 . S
H226 C236 0.930 . S
H227 C239 0.929 . S
H228 C242 0.930 . S
H229 C244 0.960 . S
H230 C244 0.960 . S
H231 C244 0.960 . S
C232 H224 0.929 . S
C232 C233 1.377 . S
C232 C234 1.384 . S
C233 C232 1.377 . S
C233 C239 1.390 . S
C234 H225 0.930 . S
C234 C232 1.384 . S
C234 C235 1.372 . S
C235 C234 1.372 . S
C235 C236 1.400 . S
C235 C240 1.490 . S
C236 H226 0.930 . S
C236 C235 1.400 . S
C236 C239 1.386 . S
H237 C253 0.930 . S
H238 C254 0.931 . S
C239 H227 0.929 . S
C239 C233 1.390 . S
C239 C236 1.386 . S
C240 C235 1.490 . S
C240 C242 1.395 . S
C240 C243 1.403 . S
H241 C247 0.930 . S
C242 H228 0.930 . S
C242 C240 1.395 . S
C242 C245 1.403 . S
C243 C240 1.403 . S
C243 C244 1.524 . S
C243 C247 1.400 . S
C244 H229 0.960 . S
C244 H230 0.960 . S
C244 H231 0.960 . S
C244 C243 1.524 . S
C245 C242 1.403 . S
C245 C246 1.392 . S
C245 C249 1.495 . S
C246 C245 1.392 . S
C246 C247 1.385 . S
C246 C248 1.478 . S
C247 H241 0.930 . S
C247 C243 1.400 . S
C247 C246 1.385 . S
C248 C246 1.478 . S
C248 C250 1.381 . S
C248 C254 1.383 . S
C249 C245 1.495 . S
C249 H255 0.959 . S
C249 H256 0.961 . S
C249 H257 0.960 . S
C250 C248 1.381 . S
C250 C251 1.394 . S
C250 H258 0.930 . S
C251 C250 1.394 . S
C251 C252 1.383 . S
C251 H259 0.929 . S
C252 C251 1.383 . S
C252 C253 1.377 . S
C253 H237 0.930 . S
C253 C252 1.377 . S
C253 C254 1.379 . S
C254 H238 0.931 . S
C254 C248 1.383 . S
C254 C253 1.379 . S
H255 C249 0.959 . S
H256 C249 0.961 . S
H257 C249 0.960 . S
H258 C250 0.930 . S
H259 C251 0.929 . S
H260 C268 0.929 . S
H261 C270 0.930 . S
H262 C272 0.930 . S
H263 C275 0.929 . S
H264 C278 0.930 . S
H265 C280 0.960 . S
H266 C280 0.960 . S
H267 C280 0.960 . S
C268 H260 0.929 . S
C268 C269 1.377 . S
C268 C270 1.384 . S
C269 C268 1.377 . S
C269 C275 1.390 . S
C270 H261 0.930 . S
C270 C268 1.384 . S
C270 C271 1.372 . S
C271 C270 1.372 . S
C271 C272 1.400 . S
C271 C276 1.490 . S
C272 H262 0.930 . S
C272 C271 1.400 . S
C272 C275 1.386 . S
H273 C289 0.930 . S
H274 C290 0.931 . S
C275 H263 0.929 . S
C275 C269 1.390 . S
C275 C272 1.386 . S
C276 C271 1.490 . S
C276 C278 1.395 . S
C276 C279 1.403 . S
H277 C283 0.930 . S
C278 H264 0.930 . S
C278 C276 1.395 . S
C278 C281 1.403 . S
C279 C276 1.403 . S
C279 C280 1.524 . S
C279 C283 1.400 . S
C280 H265 0.960 . S
C280 H266 0.960 . S
C280 H267 0.960 . S
C280 C279 1.524 . S
C281 C278 1.403 . S
C281 C282 1.392 . S
C281 C285 1.495 . S
C282 C281 1.392 . S
C282 C283 1.385 . S
C282 C284 1.478 . S
C283 H277 0.930 . S
C283 C279 1.400 . S
C283 C282 1.385 . S
C284 C282 1.478 . S
C284 C286 1.381 . S
C284 C290 1.383 . S
C285 C281 1.495 . S
C285 H291 0.959 . S
C285 H292 0.961 . S
C285 H293 0.960 . S
C286 C284 1.381 . S
C286 C287 1.394 . S
C286 H294 0.930 . S
C287 C286 1.394 . S
C287 C288 1.383 . S
C287 H295 0.929 . S
C288 C287 1.383 . S
C288 C289 1.377 . S
C289 H273 0.930 . S
C289 C288 1.377 . S
C289 C290 1.379 . S
C290 H274 0.931 . S
C290 C284 1.383 . S
C290 C289 1.379 . S
H291 C285 0.959 . S
H292 C285 0.961 . S
H293 C285 0.960 . S
H294 C286 0.930 . S
H295 C287 0.929 . S
H296 C304 0.929 . S
H297 C306 0.930 . S
H298 C308 0.930 . S
H299 C311 0.929 . S
H300 C314 0.930 . S
H301 C316 0.960 . S
H302 C316 0.960 . S
H303 C316 0.960 . S
C304 H296 0.929 . S
C304 C305 1.388 . S
C304 C306 1.384 . S
C305 C304 1.388 . S
C305 C311 1.385 1_554 S
C306 H297 0.930 . S
C306 C304 1.384 . S
C306 C307 1.372 . S
C307 C306 1.372 . S
C307 C308 1.400 1_554 S
C307 C312 1.490 . S
C308 H298 0.930 . S
C308 C307 1.400 1_556 S
C308 C311 1.386 . S
H309 C325 0.930 . S
H310 C326 0.931 . S
C311 H299 0.929 . S
C311 C305 1.385 1_556 S
C311 C308 1.386 . S
C312 C307 1.490 . S
C312 C314 1.395 . S
C312 C315 1.403 1_554 S
H313 C319 0.930 . S
C314 H300 0.930 . S
C314 C312 1.395 . S
C314 C317 1.403 . S
C315 C312 1.403 1_556 S
C315 C316 1.524 . S
C315 C319 1.400 . S
C316 H301 0.960 . S
C316 H302 0.960 . S
C316 H303 0.960 . S
C316 C315 1.524 . S
C317 C314 1.403 . S
C317 C318 1.392 . S
C317 C321 1.495 . S
C318 C317 1.392 . S
C318 C319 1.385 1_554 S
C318 C320 1.478 . S
C319 H313 0.930 . S
C319 C315 1.400 . S
C319 C318 1.385 1_556 S
C320 C318 1.478 . S
C320 C322 1.381 . S
C320 C326 1.383 1_554 S
C321 C317 1.495 . S
C321 H327 0.959 . S
C321 H328 0.961 . S
C321 H329 0.960 . S
C322 C320 1.381 . S
C322 C323 1.394 . S
C322 H330 0.930 . S
C323 C322 1.394 . S
C323 C324 1.383 . S
C323 H331 0.929 . S
C324 C323 1.383 . S
C324 C325 1.377 1_554 S
C325 H309 0.930 . S
C325 C324 1.377 1_556 S
C325 C326 1.379 . S
C326 H310 0.931 . S
C326 C320 1.383 1_556 S
C326 C325 1.379 . S
H327 C321 0.959 . S
H328 C321 0.961 . S
H329 C321 0.960 . S
H330 C322 0.930 . S
H331 C323 0.929 . S
H332 C340 0.929 . S
H333 C342 0.930 . S
H334 C344 0.930 . S
H335 C347 0.929 . S
H336 C350 0.930 . S
H337 C352 0.960 . S
H338 C352 0.960 . S
H339 C352 0.960 . S
C340 H332 0.929 . S
C340 C341 1.377 . S
C340 C342 1.384 . S
C341 C340 1.377 . S
C341 C347 1.390 . S
C342 H333 0.930 . S
C342 C340 1.384 . S
C342 C343 1.372 . S
C343 C342 1.372 . S
C343 C344 1.400 . S
C343 C348 1.490 . S
C344 H334 0.930 . S
C344 C343 1.400 . S
C344 C347 1.386 . S
H345 C361 0.930 . S
H346 C362 0.931 . S
C347 H335 0.929 . S
C347 C341 1.390 . S
C347 C344 1.386 . S
C348 C343 1.490 . S
C348 C350 1.395 . S
C348 C351 1.403 . S
H349 C355 0.930 . S
C350 H336 0.930 . S
C350 C348 1.395 . S
C350 C353 1.403 . S
C351 C348 1.403 . S
C351 C352 1.524 . S
C351 C355 1.400 . S
C352 H337 0.960 . S
C352 H338 0.960 . S
C352 H339 0.960 . S
C352 C351 1.524 . S
C353 C350 1.403 . S
C353 C354 1.392 . S
C353 C357 1.495 . S
C354 C353 1.392 . S
C354 C355 1.385 . S
C354 C356 1.478 . S
C355 H349 0.930 . S
C355 C351 1.400 . S
C355 C354 1.385 . S
C356 C354 1.478 . S
C356 C358 1.381 . S
C356 C362 1.383 . S
C357 C353 1.495 . S
C357 H363 0.959 . S
C357 H364 0.961 . S
C357 H365 0.960 . S
C358 C356 1.381 . S
C358 C359 1.394 . S
C358 H366 0.930 . S
C359 C358 1.394 . S
C359 C360 1.383 . S
C359 H367 0.929 . S
C360 C359 1.383 . S
C360 C361 1.377 . S
C361 H345 0.930 . S
C361 C360 1.377 . S
C361 C362 1.379 . S
C362 H346 0.931 . S
C362 C356 1.383 . S
C362 C361 1.379 . S
H363 C357 0.959 . S
H364 C357 0.961 . S
H365 C357 0.960 . S
H366 C358 0.930 . S
H367 C359 0.929 . S
H368 C376 0.929 . S
H369 C378 0.930 . S
H370 C380 0.930 . S
H371 C383 0.929 . S
H372 C386 0.930 . S
H373 C388 0.960 . S
H374 C388 0.960 . S
H375 C388 0.960 . S
C376 H368 0.929 . S
C376 C377 1.396 . S
C376 C378 1.384 . S
C377 C376 1.396 . S
C377 C383 1.383 1_554 S
C378 H369 0.930 . S
C378 C376 1.384 . S
C378 C379 1.372 . S
C379 C378 1.372 . S
C379 C380 1.400 1_554 S
C379 C384 1.490 . S
C380 H370 0.930 . S
C380 C379 1.400 1_556 S
C380 C383 1.386 . S
H381 C397 0.930 . S
H382 C398 0.931 . S
C383 H371 0.929 . S
C383 C377 1.383 1_556 S
C383 C380 1.386 . S
C384 C379 1.490 . S
C384 C386 1.395 1_454 S
C384 C387 1.403 1_545 S
H385 C391 0.930 . S
C386 H372 0.930 . S
C386 C384 1.395 1_656 S
C386 C389 1.403 . S
C387 C384 1.403 1_565 S
C387 C388 1.524 . S
C387 C391 1.400 . S
C388 H373 0.960 . S
C388 H374 0.960 . S
C388 H375 0.960 . S
C388 C387 1.524 . S
C389 C386 1.403 . S
C389 C390 1.396 1_545 S
C389 C393 1.495 . S
C390 C389 1.396 1_565 S
C390 C391 1.385 1_656 S
C390 C392 1.482 . S
C391 H385 0.930 . S
C391 C387 1.400 . S
C391 C390 1.385 1_454 S
C392 C390 1.482 . S
C392 C394 1.365 1_556 S
C392 C398 1.390 . S
C393 C389 1.495 . S
C393 H399 0.959 . S
C393 H400 0.961 . S
C393 H401 0.960 . S
C394 C392 1.365 1_554 S
C394 C395 1.394 . S
C394 H402 0.930 . S
C395 C394 1.394 . S
C395 C396 1.383 . S
C395 H403 0.929 . S
C396 C395 1.383 . S
C396 C397 1.377 1_554 S
C397 H381 0.930 . S
C397 C396 1.377 1_556 S
C397 C398 1.379 . S
C398 H382 0.931 . S
C398 C392 1.390 . S
C398 C397 1.379 . S
H399 C393 0.959 . S
H400 C393 0.961 . S
H401 C393 0.960 . S
H402 C394 0.930 . S
H403 C395 0.929 . S
H404 C412 0.929 . S
H405 C414 0.930 . S
H406 C416 0.930 . S
H407 C419 0.929 . S
H408 C422 0.930 . S
H409 C424 0.960 1_565 S
H410 C424 0.960 . S
H411 C424 0.960 . S
C412 H404 0.929 . S
C412 C413 1.377 . S
C412 C414 1.384 . S
C413 C412 1.377 . S
C413 C419 1.390 . S
C414 H405 0.930 . S
C414 C412 1.384 . S
C414 C415 1.372 . S
C415 C414 1.372 . S
C415 C416 1.400 . S
C415 C420 1.490 . S
C416 H406 0.930 . S
C416 C415 1.400 . S
C416 C419 1.386 . S
H417 C433 0.930 . S
H418 C434 0.931 . S
C419 H407 0.929 . S
C419 C413 1.390 . S
C419 C416 1.386 . S
C420 C415 1.490 . S
C420 C422 1.395 1_655 S
C420 C423 1.403 . S
H421 C427 0.930 . S
C422 H408 0.930 . S
C422 C420 1.395 1_455 S
C422 C425 1.403 1_545 S
C423 C420 1.403 . S
C423 C424 1.524 . S
C423 C427 1.400 1_545 S
C424 H409 0.960 1_545 S
C424 H410 0.960 . S
C424 H411 0.960 . S
C424 C423 1.524 . S
C425 C422 1.403 1_565 S
C425 C426 1.392 . S
C425 C429 1.495 . S
C426 C425 1.392 . S
C426 C427 1.385 1_455 S
C426 C428 1.478 . S
C427 H421 0.930 . S
C427 C423 1.400 1_565 S
C427 C426 1.385 1_655 S
C428 C426 1.478 . S
C428 C430 1.381 . S
C428 C434 1.383 . S
C429 C425 1.495 . S
C429 H435 0.959 1_565 S
C429 H436 0.961 . S
C429 H437 0.965 . S
C430 C428 1.381 . S
C430 C431 1.394 . S
C430 H438 0.930 . S
C431 C430 1.394 . S
C431 C432 1.383 . S
C431 H439 0.929 . S
C432 C431 1.383 . S
C432 C433 1.377 . S
C433 H417 0.930 . S
C433 C432 1.377 . S
C433 C434 1.379 . S
C434 H418 0.931 . S
C434 C428 1.383 . S
C434 C433 1.379 . S
H435 C429 0.959 1_545 S
H436 C429 0.961 . S
H437 C429 0.965 . S
H438 C430 0.930 . S
H439 C431 0.929 . S
H440 C448 0.929 . S
H441 C450 0.930 . S
H442 C452 0.930 . S
H443 C455 0.929 . S
H444 C458 0.930 . S
H445 C460 0.960 . S
H446 C460 0.960 . S
H447 C460 0.960 . S
C448 H440 0.929 . S
C448 C449 1.377 . S
C448 C450 1.384 . S
C449 C448 1.377 . S
C449 C455 1.390 . S
C450 H441 0.930 . S
C450 C448 1.384 . S
C450 C451 1.372 . S
C451 C450 1.372 . S
C451 C452 1.400 . S
C451 C456 1.490 . S
C452 H442 0.930 . S
C452 C451 1.400 . S
C452 C455 1.386 . S
H453 C469 0.930 . S
H454 C470 0.931 . S
C455 H443 0.929 . S
C455 C449 1.390 . S
C455 C452 1.386 . S
C456 C451 1.490 . S
C456 C458 1.395 . S
C456 C459 1.403 . S
H457 C463 0.930 . S
C458 H444 0.930 . S
C458 C456 1.395 . S
C458 C461 1.403 . S
C459 C456 1.403 . S
C459 C460 1.524 . S
C459 C463 1.400 . S
C460 H445 0.960 . S
C460 H446 0.960 . S
C460 H447 0.960 . S
C460 C459 1.524 . S
C461 C458 1.403 . S
C461 C462 1.392 . S
C461 C465 1.495 . S
C462 C461 1.392 . S
C462 C463 1.385 . S
C462 C464 1.478 . S
C463 H457 0.930 . S
C463 C459 1.400 . S
C463 C462 1.385 . S
C464 C462 1.478 . S
C464 C466 1.381 . S
C464 C470 1.383 . S
C465 C461 1.495 . S
C465 H471 0.959 . S
C465 H472 0.961 . S
C465 H473 0.960 . S
C466 C464 1.381 . S
C466 C467 1.394 . S
C466 H474 0.930 . S
C467 C466 1.394 . S
C467 C468 1.383 . S
C467 H475 0.929 . S
C468 C467 1.383 . S
C468 C469 1.377 . S
C469 H453 0.930 . S
C469 C468 1.377 . S
C469 C470 1.379 . S
C470 H454 0.931 . S
C470 C464 1.383 . S
C470 C469 1.379 . S
H471 C465 0.959 . S
H472 C465 0.961 . S
H473 C465 0.960 . S
H474 C466 0.930 . S
H475 C467 0.929 . S
H476 C484 0.929 . S
H477 C486 0.930 . S
H478 C488 0.930 . S
H479 C491 0.929 . S
H480 C494 0.930 . S
H481 C496 0.960 . S
H482 C496 0.960 . S
H483 C496 0.960 . S
C484 H476 0.929 . S
C484 C485 1.377 . S
C484 C486 1.384 . S
C485 C484 1.377 . S
C485 C491 1.390 . S
C486 H477 0.930 . S
C486 C484 1.384 . S
C486 C487 1.372 . S
C487 C486 1.372 . S
C487 C488 1.400 . S
C487 C492 1.490 . S
C488 H478 0.930 . S
C488 C487 1.400 . S
C488 C491 1.386 . S
H489 C505 0.930 . S
H490 C506 0.931 . S
C491 H479 0.929 . S
C491 C485 1.390 . S
C491 C488 1.386 . S
C492 C487 1.490 . S
C492 C494 1.395 . S
C492 C495 1.403 . S
H493 C499 0.930 . S
C494 H480 0.930 . S
C494 C492 1.395 . S
C494 C497 1.403 . S
C495 C492 1.403 . S
C495 C496 1.524 . S
C495 C499 1.400 . S
C496 H481 0.960 . S
C496 H482 0.960 . S
C496 H483 0.960 . S
C496 C495 1.524 . S
C497 C494 1.403 . S
C497 C498 1.392 . S
C497 C501 1.495 . S
C498 C497 1.392 . S
C498 C499 1.385 . S
C498 C500 1.478 . S
C499 H493 0.930 . S
C499 C495 1.400 . S
C499 C498 1.385 . S
C500 C498 1.478 . S
C500 C502 1.381 . S
C500 C506 1.383 . S
C501 C497 1.495 . S
C501 H507 0.959 . S
C501 H508 0.961 . S
C501 H509 0.960 . S
C502 C500 1.381 . S
C502 C503 1.394 . S
C502 H510 0.930 . S
C503 C502 1.394 . S
C503 C504 1.383 . S
C503 H511 0.929 . S
C504 C503 1.383 . S
C504 C505 1.377 . S
C505 H489 0.930 . S
C505 C504 1.377 . S
C505 C506 1.379 . S
C506 H490 0.931 . S
C506 C500 1.383 . S
C506 C505 1.379 . S
H507 C501 0.959 . S
H508 C501 0.961 . S
H509 C501 0.960 . S
H510 C502 0.930 . S
H511 C503 0.929 . S
H512 C520 0.929 . S
H513 C522 0.930 . S
H514 C524 0.930 . S
H515 C527 0.929 . S
H516 C530 0.930 . S
H517 C532 0.960 . S
H518 C532 0.960 . S
H519 C532 0.960 . S
C520 H512 0.929 . S
C520 C521 1.377 . S
C520 C522 1.384 . S
C521 C520 1.377 . S
C521 C527 1.390 . S
C522 H513 0.930 . S
C522 C520 1.384 . S
C522 C523 1.372 . S
C523 C522 1.372 . S
C523 C524 1.400 . S
C523 C528 1.490 . S
C524 H514 0.930 . S
C524 C523 1.400 . S
C524 C527 1.386 . S
H525 C541 0.930 . S
H526 C542 0.931 . S
C527 H515 0.929 . S
C527 C521 1.390 . S
C527 C524 1.386 . S
C528 C523 1.490 . S
C528 C530 1.395 . S
C528 C531 1.403 . S
H529 C535 0.930 . S
C530 H516 0.930 . S
C530 C528 1.395 . S
C530 C533 1.403 . S
C531 C528 1.403 . S
C531 C532 1.524 . S
C531 C535 1.400 . S
C532 H517 0.960 . S
C532 H518 0.960 . S
C532 H519 0.960 . S
C532 C531 1.524 . S
C533 C530 1.403 . S
C533 C534 1.392 . S
C533 C537 1.495 . S
C534 C533 1.392 . S
C534 C535 1.385 . S
C534 C536 1.478 . S
C535 H529 0.930 . S
C535 C531 1.400 . S
C535 C534 1.385 . S
C536 C534 1.478 . S
C536 C538 1.381 . S
C536 C542 1.383 . S
C537 C533 1.495 . S
C537 H543 0.959 . S
C537 H544 0.961 . S
C537 H545 0.960 . S
C538 C536 1.381 . S
C538 C539 1.394 . S
C538 H546 0.930 . S
C539 C538 1.394 . S
C539 C540 1.383 . S
C539 H547 0.929 . S
C540 C539 1.383 . S
C540 C541 1.377 . S
C541 H525 0.930 . S
C541 C540 1.377 . S
C541 C542 1.379 . S
C542 H526 0.931 . S
C542 C536 1.383 . S
C542 C541 1.379 . S
H543 C537 0.959 . S
H544 C537 0.961 . S
H545 C537 0.960 . S
H546 C538 0.930 . S
H547 C539 0.929 . S
H548 C556 0.929 . S
H549 C558 0.930 . S
H550 C560 0.930 . S
H551 C563 0.929 . S
H552 C566 0.930 . S
H553 C568 0.960 . S
H554 C568 0.960 . S
H555 C568 0.960 . S
C556 H548 0.929 . S
C556 C557 1.377 . S
C556 C558 1.384 . S
C557 C556 1.377 . S
C557 C563 1.390 . S
C558 H549 0.930 . S
C558 C556 1.384 . S
C558 C559 1.372 . S
C559 C558 1.372 . S
C559 C560 1.400 . S
C559 C564 1.490 . S
C560 H550 0.930 . S
C560 C559 1.400 . S
C560 C563 1.386 . S
H561 C577 0.930 . S
H562 C578 0.931 . S
C563 H551 0.929 . S
C563 C557 1.390 . S
C563 C560 1.386 . S
C564 C559 1.490 . S
C564 C566 1.395 . S
C564 C567 1.403 . S
H565 C571 0.930 . S
C566 H552 0.930 . S
C566 C564 1.395 . S
C566 C569 1.403 . S
C567 C564 1.403 . S
C567 C568 1.524 . S
C567 C571 1.400 . S
C568 H553 0.960 . S
C568 H554 0.960 . S
C568 H555 0.960 . S
C568 C567 1.524 . S
C569 C566 1.403 . S
C569 C570 1.392 . S
C569 C573 1.495 . S
C570 C569 1.392 . S
C570 C571 1.385 . S
C570 C572 1.478 . S
C571 H565 0.930 . S
C571 C567 1.400 . S
C571 C570 1.385 . S
C572 C570 1.478 . S
C572 C574 1.381 . S
C572 C578 1.383 . S
C573 C569 1.495 . S
C573 H579 0.959 . S
C573 H580 0.961 . S
C573 H581 0.960 . S
C574 C572 1.381 . S
C574 C575 1.394 . S
C574 H582 0.930 . S
C575 C574 1.394 . S
C575 C576 1.383 . S
C575 H583 0.929 . S
C576 C575 1.383 . S
C576 C577 1.377 . S
C577 H561 0.930 . S
C577 C576 1.377 . S
C577 C578 1.379 . S
C578 H562 0.931 . S
C578 C572 1.383 . S
C578 C577 1.379 . S
H579 C573 0.959 . S
H580 C573 0.961 . S
H581 C573 0.960 . S
H582 C574 0.930 . S
H583 C575 0.929 . S
H584 C592 0.929 . S
H585 C594 0.930 . S
H586 C596 0.930 . S
H587 C599 0.929 . S
H588 C602 0.930 . S
H589 C604 0.960 . S
H590 C604 0.960 . S
H591 C604 0.960 . S
C592 H584 0.929 . S
C592 C593 1.377 . S
C592 C594 1.384 . S
C593 C592 1.377 . S
C593 C599 1.390 . S
C594 H585 0.930 . S
C594 C592 1.384 . S
C594 C595 1.372 . S
C595 C594 1.372 . S
C595 C596 1.400 . S
C595 C600 1.490 . S
C596 H586 0.930 . S
C596 C595 1.400 . S
C596 C599 1.386 . S
H597 C613 0.930 . S
H598 C614 0.931 . S
C599 H587 0.929 . S
C599 C593 1.390 . S
C599 C596 1.386 . S
C600 C595 1.490 . S
C600 C602 1.395 . S
C600 C603 1.403 1_455 S
H601 C607 0.930 . S
C602 H588 0.930 . S
C602 C600 1.395 . S
C602 C605 1.403 . S
C603 C600 1.403 1_655 S
C603 C604 1.524 . S
C603 C607 1.400 . S
C604 H589 0.960 . S
C604 H590 0.960 . S
C604 H591 0.960 . S
C604 C603 1.524 . S
C605 C602 1.403 . S
C605 C606 1.392 1_455 S
C605 C609 1.495 . S
C606 C605 1.392 1_655 S
C606 C607 1.385 . S
C606 C608 1.478 . S
C607 H601 0.930 . S
C607 C603 1.400 . S
C607 C606 1.385 . S
C608 C606 1.478 . S
C608 C610 1.381 . S
C608 C614 1.383 . S
C609 C605 1.495 . S
C609 H615 0.959 . S
C609 H616 0.961 . S
C609 H617 0.960 . S
C610 C608 1.381 . S
C610 C611 1.394 . S
C610 H618 0.930 . S
C611 C610 1.394 . S
C611 C612 1.383 . S
C611 H619 0.929 . S
C612 C611 1.383 . S
C612 C613 1.377 . S
C613 H597 0.930 . S
C613 C612 1.377 . S
C613 C614 1.379 . S
C614 H598 0.931 . S
C614 C608 1.383 . S
C614 C613 1.379 . S
H615 C609 0.959 . S
H616 C609 0.961 . S
H617 C609 0.960 . S
H618 C610 0.930 . S
H619 C611 0.929 . S
H620 C628 0.929 . S
H621 C630 0.930 . S
H622 C632 0.930 . S
H623 C635 0.929 . S
H624 C638 0.930 . S
H625 C640 0.960 . S
H626 C640 0.960 . S
H627 C640 0.960 . S
C628 H620 0.929 . S
C628 C629 1.377 . S
C628 C630 1.384 . S
C629 C628 1.377 . S
C629 C635 1.390 . S
C630 H621 0.930 . S
C630 C628 1.384 . S
C630 C631 1.372 . S
C631 C630 1.372 . S
C631 C632 1.400 . S
C631 C636 1.490 . S
C632 H622 0.930 . S
C632 C631 1.400 . S
C632 C635 1.386 . S
H633 C649 0.930 . S
H634 C650 0.931 . S
C635 H623 0.929 . S
C635 C629 1.390 . S
C635 C632 1.386 . S
C636 C631 1.490 . S
C636 C638 1.395 1_655 S
C636 C639 1.403 . S
H637 C643 0.930 . S
C638 H624 0.930 . S
C638 C636 1.395 1_455 S
C638 C641 1.403 . S
C639 C636 1.403 . S
C639 C640 1.524 . S
C639 C643 1.400 . S
C640 H625 0.960 . S
C640 H626 0.960 . S
C640 H627 0.960 . S
C640 C639 1.524 . S
C641 C638 1.403 . S
C641 C642 1.392 . S
C641 C645 1.495 . S
C642 C641 1.392 . S
C642 C643 1.385 1_455 S
C642 C644 1.478 . S
C643 H637 0.930 . S
C643 C639 1.400 . S
C643 C642 1.385 1_655 S
C644 C642 1.478 . S
C644 C646 1.381 . S
C644 C650 1.383 . S
C645 C641 1.495 . S
C645 H651 0.959 . S
C645 H652 0.961 . S
C645 H653 0.960 . S
C646 C644 1.381 . S
C646 C647 1.394 . S
C646 H654 0.930 . S
C647 C646 1.394 . S
C647 C648 1.383 . S
C647 H655 0.929 . S
C648 C647 1.383 . S
C648 C649 1.377 . S
C649 H633 0.930 . S
C649 C648 1.377 . S
C649 C650 1.379 . S
C650 H634 0.931 . S
C650 C644 1.383 . S
C650 C649 1.379 . S
H651 C645 0.959 . S
H652 C645 0.961 . S
H653 C645 0.960 . S
H654 C646 0.930 . S
H655 C647 0.929 . S
H656 C664 0.929 . S
H657 C666 0.930 . S
H658 C668 0.930 . S
H659 C671 0.929 . S
H660 C674 0.930 . S
H661 C676 0.960 . S
H662 C676 0.960 . S
H663 C676 0.960 . S
C664 H656 0.929 . S
C664 C665 1.377 . S
C664 C666 1.384 . S
C665 C664 1.377 . S
C665 C671 1.390 . S
C666 H657 0.930 . S
C666 C664 1.384 . S
C666 C667 1.372 . S
C667 C666 1.372 . S
C667 C668 1.400 . S
C667 C672 1.490 . S
C668 H658 0.930 . S
C668 C667 1.400 . S
C668 C671 1.386 . S
H669 C685 0.930 . S
H670 C686 0.931 . S
C671 H659 0.929 . S
C671 C665 1.390 . S
C671 C668 1.386 . S
C672 C667 1.490 . S
C672 C674 1.395 1_455 S
C672 C675 1.403 . S
H673 C679 0.930 . S
C674 H660 0.930 . S
C674 C672 1.395 1_655 S
C674 C677 1.403 . S
C675 C672 1.403 . S
C675 C676 1.524 . S
C675 C679 1.400 . S
C676 H661 0.960 . S
C676 H662 0.960 . S
C676 H663 0.960 . S
C676 C675 1.524 . S
C677 C674 1.403 . S
C677 C678 1.392 . S
C677 C681 1.495 . S
C678 C677 1.392 . S
C678 C679 1.385 1_655 S
C678 C680 1.478 . S
C679 H673 0.930 . S
C679 C675 1.400 . S
C679 C678 1.385 1_455 S
C680 C678 1.478 . S
C680 C682 1.381 . S
C680 C686 1.383 . S
C681 C677 1.495 . S
C681 H687 0.959 . S
C681 H688 0.961 . S
C681 H689 0.960 . S
C682 C680 1.381 . S
C682 C683 1.394 . S
C682 H690 0.930 . S
C683 C682 1.394 . S
C683 C684 1.383 . S
C683 H691 0.929 . S
C684 C683 1.383 . S
C684 C685 1.377 . S
C685 H669 0.930 . S
C685 C684 1.377 . S
C685 C686 1.379 . S
C686 H670 0.931 . S
C686 C680 1.383 . S
C686 C685 1.379 . S
H687 C681 0.959 . S
H688 C681 0.961 . S
H689 C681 0.960 . S
H690 C682 0.930 . S
H691 C683 0.929 . S
H692 C700 0.929 . S
H693 C702 0.930 . S
H694 C704 0.930 1_655 S
H695 C707 0.929 1_655 S
H696 C710 0.930 . S
H697 C712 0.960 . S
H698 C712 0.960 1_455 S
H699 C712 0.960 . S
C700 H692 0.929 . S
C700 C701 1.377 . S
C700 C702 1.384 . S
C701 C700 1.377 . S
C701 C707 1.390 . S
C702 H693 0.930 . S
C702 C700 1.384 . S
C702 C703 1.372 . S
C703 C702 1.372 . S
C703 C704 1.400 . S
C703 C708 1.490 . S
C704 H694 0.930 1_455 S
C704 C703 1.400 . S
C704 C707 1.386 . S
H705 C721 0.930 . S
H706 C722 0.931 . S
C707 H695 0.929 1_455 S
C707 C701 1.390 . S
C707 C704 1.386 . S
C708 C703 1.490 . S
C708 C710 1.395 . S
C708 C711 1.403 1_455 S
H709 C715 0.930 . S
C710 H696 0.930 . S
C710 C708 1.395 . S
C710 C713 1.403 . S
C711 C708 1.403 1_655 S
C711 C712 1.524 . S
C711 C715 1.400 . S
C712 H697 0.960 . S
C712 H698 0.960 1_655 S
C712 H699 0.960 . S
C712 C711 1.524 . S
C713 C710 1.403 . S
C713 C714 1.392 1_455 S
C713 C717 1.495 . S
C714 C713 1.392 1_655 S
C714 C715 1.385 . S
C714 C716 1.478 . S
C715 H709 0.930 . S
C715 C711 1.400 . S
C715 C714 1.385 . S
C716 C714 1.478 . S
C716 C718 1.381 1_655 S
C716 C722 1.383 . S
C717 C713 1.495 . S
C717 H723 0.959 . S
C717 H724 0.961 1_455 S
C717 H725 0.960 . S
C718 C716 1.381 1_455 S
C718 C719 1.394 1_455 S
C718 H726 0.930 . S
C719 C718 1.394 1_655 S
C719 C720 1.383 . S
C719 H727 0.929 1_655 S
C720 C719 1.383 . S
C720 C721 1.377 . S
C721 H705 0.930 . S
C721 C720 1.377 . S
C721 C722 1.379 . S
C722 H706 0.931 . S
C722 C716 1.383 . S
C722 C721 1.379 . S
H723 C717 0.959 . S
H724 C717 0.961 1_655 S
H725 C717 0.960 . S
H726 C718 0.930 . S
H727 C719 0.929 1_455 S
C161 C10 0.649 . S
C180 C27 0.603 . S
C197 C48 0.666 . S
C216 C65 0.716 . S
C233 C103 0.665 . S
C252 C86 0.631 . S
C269 C141 0.653 . S
C288 C124 0.599 . S
C305 C53 1.595 . S
C324 C30 1.615 . S
C341 C144 1.599 . S
C360 C91 1.614 . S
C377 C15 1.585 . S
C396 C68 1.600 . S
C413 C129 1.591 . S
C432 C106 1.584 . S
C449 C132 0.596 . S
C468 C18 0.641 . S
C485 C62 2.039 . S
C504 C100 2.011 . S
C521 C107 0.607 . S
C540 C69 0.629 . S
C557 C12 2.041 . S
C576 C126 2.013 . S
C593 C94 0.593 . S
C612 C56 0.549 . S
C629 C138 2.046 . S
C648 C24 2.064 . S
C665 C31 0.602 . S
C684 C145 0.645 . S
C701 C88 2.046 . S
C720 C50 2.031 . S
