# Generated by pormake.
# Topology wkf, (6)-cn, num edge types: 1
# Building blocks:
#     Node 0, Type 0, BuildingBlock: CUKXOW_clean_sbu_0, # of connection points: 6
#     Node 1, Type 0, BuildingBlock: CUKXOW_clean_sbu_0, # of connection points: 6
#     Node 2, Type 0, BuildingBlock: CUKXOW_clean_sbu_0, # of connection points: 6
#     Node 3, Type 0, BuildingBlock: CUKXOW_clean_sbu_0, # of connection points: 6
#     Node 4, Type 0, BuildingBlock: CUKXOW_clean_sbu_0, # of connection points: 6
#     Node 5, Type 0, BuildingBlock: CUKXOW_clean_sbu_0, # of connection points: 6
#     Node 6, Type 0, BuildingBlock: CUKXOW_clean_sbu_0, # of connection points: 6
#     Node 7, Type 0, BuildingBlock: CUKXOW_clean_sbu_0, # of connection points: 6
#     Node 8, Type 0, BuildingBlock: CUKXOW_clean_sbu_0, # of connection points: 6
#     Node 9, Type 0, BuildingBlock: CUKXOW_clean_sbu_0, # of connection points: 6
#     Node 10, Type 0, BuildingBlock: CUKXOW_clean_sbu_0, # of connection points: 6
#     Node 11, Type 0, BuildingBlock: CUKXOW_clean_sbu_0, # of connection points: 6
#     Edge 12, Type (0, 0), BuildingBlock: OJICUG_clean_linker_0, # of connection points: 2
#     Edge 13, Type (0, 0), BuildingBlock: OJICUG_clean_linker_0, # of connection points: 2
#     Edge 14, Type (0, 0), BuildingBlock: OJICUG_clean_linker_0, # of connection points: 2
#     Edge 15, Type (0, 0), BuildingBlock: OJICUG_clean_linker_0, # of connection points: 2
#     Edge 16, Type (0, 0), BuildingBlock: OJICUG_clean_linker_0, # of connection points: 2
#     Edge 17, Type (0, 0), BuildingBlock: OJICUG_clean_linker_0, # of connection points: 2
#     Edge 18, Type (0, 0), BuildingBlock: OJICUG_clean_linker_0, # of connection points: 2
#     Edge 19, Type (0, 0), BuildingBlock: OJICUG_clean_linker_0, # of connection points: 2
#     Edge 20, Type (0, 0), BuildingBlock: OJICUG_clean_linker_0, # of connection points: 2
#     Edge 21, Type (0, 0), BuildingBlock: OJICUG_clean_linker_0, # of connection points: 2
#     Edge 22, Type (0, 0), BuildingBlock: OJICUG_clean_linker_0, # of connection points: 2
#     Edge 23, Type (0, 0), BuildingBlock: OJICUG_clean_linker_0, # of connection points: 2
#     Edge 24, Type (0, 0), BuildingBlock: OJICUG_clean_linker_0, # of connection points: 2
#     Edge 25, Type (0, 0), BuildingBlock: OJICUG_clean_linker_0, # of connection points: 2
#     Edge 26, Type (0, 0), BuildingBlock: OJICUG_clean_linker_0, # of connection points: 2
#     Edge 27, Type (0, 0), BuildingBlock: OJICUG_clean_linker_0, # of connection points: 2
#     Edge 28, Type (0, 0), BuildingBlock: OJICUG_clean_linker_0, # of connection points: 2
#     Edge 29, Type (0, 0), BuildingBlock: OJICUG_clean_linker_0, # of connection points: 2
#     Edge 30, Type (0, 0), BuildingBlock: OJICUG_clean_linker_0, # of connection points: 2
#     Edge 31, Type (0, 0), BuildingBlock: OJICUG_clean_linker_0, # of connection points: 2
#     Edge 32, Type (0, 0), BuildingBlock: OJICUG_clean_linker_0, # of connection points: 2
#     Edge 33, Type (0, 0), BuildingBlock: OJICUG_clean_linker_0, # of connection points: 2
#     Edge 34, Type (0, 0), BuildingBlock: OJICUG_clean_linker_0, # of connection points: 2
#     Edge 35, Type (0, 0), BuildingBlock: OJICUG_clean_linker_0, # of connection points: 2
#     Edge 36, Type (0, 0), BuildingBlock: OJICUG_clean_linker_0, # of connection points: 2
#     Edge 37, Type (0, 0), BuildingBlock: OJICUG_clean_linker_0, # of connection points: 2
#     Edge 38, Type (0, 0), BuildingBlock: OJICUG_clean_linker_0, # of connection points: 2
#     Edge 39, Type (0, 0), BuildingBlock: OJICUG_clean_linker_0, # of connection points: 2
#     Edge 40, Type (0, 0), BuildingBlock: OJICUG_clean_linker_0, # of connection points: 2
#     Edge 41, Type (0, 0), BuildingBlock: OJICUG_clean_linker_0, # of connection points: 2
#     Edge 42, Type (0, 0), BuildingBlock: OJICUG_clean_linker_0, # of connection points: 2
#     Edge 43, Type (0, 0), BuildingBlock: OJICUG_clean_linker_0, # of connection points: 2
#     Edge 44, Type (0, 0), BuildingBlock: OJICUG_clean_linker_0, # of connection points: 2
#     Edge 45, Type (0, 0), BuildingBlock: OJICUG_clean_linker_0, # of connection points: 2
#     Edge 46, Type (0, 0), BuildingBlock: OJICUG_clean_linker_0, # of connection points: 2
#     Edge 47, Type (0, 0), BuildingBlock: OJICUG_clean_linker_0, # of connection points: 2
# Relax obj value: 0.112
# Max RMSD: 0.282
# Mean RMSD: 0.282
data_MOF--net-wkf--node1-CUKXOW_clean_sbu_0--edge1-OJICUG_clean_linker_0
_symmetry_space_group_name_H-M    P1
_symmetry_Int_Tables_number       1
_symmetry_cell_setting            triclinic
loop_
_symmetry_equiv_pos_as_xyz
'x, y, z'
_cell_length_a     19.661554
_cell_length_b     19.55653
_cell_length_c     58.15801
_cell_angle_alpha  90.000097
_cell_angle_beta   89.959888
_cell_angle_gamma 120.19931
loop_
_atom_site_label
_atom_site_type_symbol
_atom_site_fract_x
_atom_site_fract_y
_atom_site_fract_z
_atom_type_partial_charge
Tb0 Tb 0.33881 0.19802 0.4063 0.0
C1 C 0.31966 0.02961 0.41459 0.0
Tb2 Tb 0.43229 0.14906 0.37558 0.0
O3 O 0.26012 0.1786 0.37602 0.0
O4 O 0.31501 0.11369 0.38086 0.0
O5 O 0.30751 0.08561 0.4229 0.0
C6 C 0.48838 0.06963 0.35356 0.0
O7 O 0.36443 0.04145 0.39625 0.0
C8 C 0.52328 0.27608 0.39887 0.0
C9 C 0.42263 0.30186 0.36417 0.0
O10 O 0.49889 0.08808 0.37522 0.0
O11 O 0.44797 0.09818 0.3439 0.0
O12 O 0.54154 0.25648 0.37964 0.0
O13 O 0.45853 0.21809 0.40663 0.0
O14 O 0.42523 0.24046 0.35483 0.0
O15 O 0.40027 0.30192 0.38564 0.0
C16 C 0.28455 0.23674 0.44363 0.0
O17 O 0.24167 0.19408 0.42655 0.0
O18 O 0.35765 0.25968 0.43913 0.0
C19 C 0.27208 0.12409 0.3673 0.0
Tb20 Tb 0.17777 0.33281 0.57483 0.0
C21 C 0.32226 0.30565 0.58302 0.0
Tb22 Tb 0.32895 0.42841 0.54593 0.0
O23 O 0.11971 0.26182 0.54313 0.0
O24 O 0.2387 0.31173 0.549 0.0
O25 O 0.25493 0.29621 0.59121 0.0
C26 C 0.45741 0.47587 0.5216 0.0
O27 O 0.35939 0.35234 0.56533 0.0
C28 C 0.30524 0.52006 0.57304 0.0
C29 C 0.17468 0.43472 0.53486 0.0
O30 O 0.45496 0.48126 0.54377 0.0
O31 O 0.38714 0.44515 0.51277 0.0
O32 O 0.35428 0.54417 0.55605 0.0
O33 O 0.28318 0.44727 0.57699 0.0
O34 O 0.23802 0.43634 0.52574 0.0
O35 O 0.14711 0.40621 0.55556 0.0
C36 C 0.07801 0.27581 0.6105 0.0
O37 O 0.08471 0.23317 0.59451 0.0
O38 O 0.12559 0.35005 0.60589 0.0
C39 C 0.18614 0.27345 0.53461 0.0
Tb40 Tb 0.85405 0.15375 0.73917 0.0
C41 C 1.02183 0.30505 0.74609 0.0
Tb42 Tb 0.89139 0.30146 0.7133 0.0
O43 O 0.87918 0.10349 0.70796 0.0
O44 O 0.93438 0.2241 0.71388 0.0
O45 O 0.96446 0.2412 0.75611 0.0
C46 C 0.94572 0.43421 0.68896 0.0
O47 O 1.00766 0.33207 0.72686 0.0
C48 C 0.7994 0.27701 0.74971 0.0
C49 C 0.7356 0.13704 0.70102 0.0
O50 O 0.94313 0.42879 0.7111 0.0
O51 O 0.91368 0.36348 0.6801 0.0
O52 O 0.85917 0.34397 0.74368 0.0
O53 O 0.80014 0.22626 0.73651 0.0
O54 O 0.78828 0.21006 0.69363 0.0
O55 O 0.74512 0.10657 0.72034 0.0
C56 C 0.82187 0.06336 0.77669 0.0
O57 O 0.81559 0.12599 0.77463 0.0
O58 O 0.84438 0.04916 0.75706 0.0
C59 C 0.92518 0.17353 0.69922 0.0
Tb60 Tb 0.71506 0.84749 0.90593 0.0
C61 C 0.73546 1.01757 0.91277 0.0
Tb62 Tb 0.61783 0.89496 0.87529 0.0
O63 O 0.79237 0.86578 0.87535 0.0
O64 O 0.73509 0.92868 0.87996 0.0
O65 O 0.74807 0.96215 0.92144 0.0
C66 C 0.55993 0.97294 0.85331 0.0
O67 O 0.68881 1.00425 0.89483 0.0
C68 C 0.53078 0.77137 0.90026 0.0
C69 C 0.62684 0.74147 0.86427 0.0
O70 O 0.55181 0.95662 0.87513 0.0
O71 O 0.59904 0.94313 0.8435 0.0
O72 O 0.50854 0.78886 0.88138 0.0
O73 O 0.5969 0.82988 0.90678 0.0
O74 O 0.62285 0.80203 0.85486 0.0
O75 O 0.65152 0.74275 0.88556 0.0
C76 C 0.76889 0.80856 0.94328 0.0
O77 O 0.81219 0.85249 0.9264 0.0
O78 O 0.69573 0.7848 0.93859 0.0
C79 C 0.77773 0.91812 0.86632 0.0
Tb80 Tb 0.8773 0.70885 0.07415 0.0
C81 C 0.73351 0.7371 0.08215 0.0
Tb82 Tb 0.72437 0.60913 0.04621 0.0
O83 O 0.93344 0.78038 0.04239 0.0
O84 O 0.81396 0.72652 0.04835 0.0
O85 O 0.80123 0.74747 0.09024 0.0
C86 C 0.58867 0.5527 0.02468 0.0
O87 O 0.69559 0.68842 0.06489 0.0
C88 C 0.75864 0.52308 0.07237 0.0
C89 C 0.87928 0.60716 0.03347 0.0
O90 O 0.59673 0.54829 0.0467 0.0
O91 O 0.65726 0.58745 0.01458 0.0
O92 O 0.71171 0.49686 0.05494 0.0
O93 O 0.77359 0.59331 0.07718 0.0
O94 O 0.81466 0.60414 0.02485 0.0
O95 O 0.90889 0.63725 0.05394 0.0
C96 C 0.97664 0.7642 0.11011 0.0
O97 O 0.92876 0.69027 0.10524 0.0
O98 O 0.97072 0.80747 0.09414 0.0
C99 C 0.86593 0.76556 0.03383 0.0
Tb100 Tb 0.19494 0.8876 0.23996 0.0
C101 C 1.02556 0.73743 0.24711 0.0
Tb102 Tb 0.15659 0.73636 0.21612 0.0
O103 O 0.17169 0.93581 0.20807 0.0
O104 O 0.11512 0.81529 0.21474 0.0
O105 O 0.08256 0.80275 0.25663 0.0
C106 C 0.10506 0.601 0.19366 0.0
O107 O 0.03999 0.70772 0.22853 0.0
C108 C 0.24899 0.76574 0.25269 0.0
C109 C 0.3132 0.89655 0.20245 0.0
O110 O 0.1063 0.60899 0.21571 0.0
O111 O 0.13615 0.67033 0.18393 0.0
O112 O 0.18823 0.69831 0.24758 0.0
O113 O 0.24782 0.81433 0.23873 0.0
O114 O 0.25986 0.82305 0.1958 0.0
O115 O 0.30401 0.93038 0.22114 0.0
C116 C 0.22731 0.9782 0.27755 0.0
O117 O 0.20806 0.99425 0.25762 0.0
O118 O 0.23043 0.91376 0.27569 0.0
C119 C 0.12609 0.86522 0.19956 0.0
Tb120 Tb 0.86384 0.69918 0.43564 0.0
C121 C 0.03821 0.74125 0.43486 0.0
Tb122 Tb 0.91363 0.60142 0.46592 0.0
O123 O 0.94024 0.80643 0.45715 0.0
O124 O 0.89156 0.6941 0.47022 0.0
O125 O 0.98026 0.7355 0.42192 0.0
C126 C 0.99598 0.55033 0.48817 0.0
O127 O 1.02479 0.70171 0.4543 0.0
C128 C 0.81262 0.51674 0.43459 0.0
C129 C 0.74638 0.58276 0.47355 0.0
O130 O 0.99278 0.55485 0.46601 0.0
O131 O 0.95146 0.57363 0.49809 0.0
O132 O 0.83065 0.48813 0.45209 0.0
O133 O 0.86483 0.59037 0.43262 0.0
O134 O 0.80454 0.57583 0.4832 0.0
O135 O 0.75482 0.62356 0.45429 0.0
C136 C 0.81026 0.74612 0.39994 0.0
O137 O 0.83552 0.78399 0.41929 0.0
O138 O 0.81233 0.68098 0.40127 0.0
C139 C 0.93714 0.76469 0.47499 0.0
Tb140 Tb 0.16157 0.84952 0.6038 0.0
C141 C 0.31682 1.01733 0.59899 0.0
Tb142 Tb 0.3087 0.88122 0.63079 0.0
O143 O 0.11196 0.87983 0.63411 0.0
O144 O 0.23165 0.92519 0.62989 0.0
O145 O 0.25081 0.96368 0.58901 0.0
C146 C 0.44183 0.93805 0.65456 0.0
O147 O 0.34351 0.99943 0.61757 0.0
C148 C 0.27783 0.78797 0.5937 0.0
C149 C 0.14377 0.72792 0.64196 0.0
O150 O 0.43565 0.93598 0.63242 0.0
O151 O 0.37162 0.90345 0.66373 0.0
O152 O 0.3469 0.83821 0.60149 0.0
O153 O 0.23144 0.79489 0.60692 0.0
O154 O 0.21501 0.78045 0.6503 0.0
O155 O 0.11729 0.7375 0.62178 0.0
C156 C 0.08295 0.82855 0.56442 0.0
O157 O 0.05167 0.81588 0.58494 0.0
O158 O 0.1568 0.85029 0.56628 0.0
C159 C 0.18083 0.91876 0.64402 0.0
Tb160 Tb 0.3309 0.15929 0.77072 0.0
C161 C 0.30929 0.30719 0.76272 0.0
Tb162 Tb 0.44195 0.31205 0.79442 0.0
O163 O 0.26014 0.11094 0.80272 0.0
O164 O 0.32178 0.23146 0.79573 0.0
O165 O 0.30351 0.24286 0.75324 0.0
C166 C 0.52248 0.44734 0.81713 0.0
O167 O 0.35243 0.33772 0.78145 0.0
C168 C 0.50637 0.28239 0.75813 0.0
C169 C 0.43997 0.15319 0.80886 0.0
O170 O 0.51583 0.43989 0.79505 0.0
O171 O 0.48592 0.37768 0.82672 0.0
O172 O 0.51413 0.35025 0.76334 0.0
O173 O 0.45652 0.23429 0.77215 0.0
O174 O 0.45982 0.22696 0.81512 0.0
O175 O 0.39646 0.11779 0.79039 0.0
C176 C 0.27634 0.06462 0.73387 0.0
O177 O 0.23618 0.05505 0.75266 0.0
O178 O 0.34636 0.12521 0.73639 0.0
C179 C 0.28344 0.18151 0.81101 0.0
Tb180 Tb 0.19026 0.33509 0.93712 0.0
C181 C 1.01791 0.30684 0.9297 0.0
Tb182 Tb 0.13723 0.43385 0.96569 0.0
O183 O 0.17533 0.26266 0.96863 0.0
O184 O 0.10951 0.31654 0.96312 0.0
O185 O 0.07488 0.29609 0.92146 0.0
C186 C 0.05746 0.48992 0.98717 0.0
O187 O 0.02911 0.35542 0.94701 0.0
C188 C 0.25744 0.52047 0.93957 0.0
C189 C 0.29382 0.43518 0.97809 0.0
O190 O 0.07076 0.495 0.9652 0.0
O191 O 0.0909 0.45483 0.99729 0.0
O192 O 0.23735 0.54611 0.95727 0.0
O193 O 0.20189 0.4506 0.93456 0.0
O194 O 0.23224 0.43793 0.98687 0.0
O195 O 0.29344 0.406 0.95746 0.0
C196 C 0.23421 0.28133 0.90068 0.0
O197 O 0.18619 0.23749 0.91683 0.0
O198 O 0.25918 0.355 0.90564 0.0
C199 C 0.12266 0.27709 0.97744 0.0
Tb200 Tb 0.89479 0.19738 0.10615 0.0
C201 C 0.74409 0.02813 0.09944 0.0
Tb202 Tb 0.75089 0.15267 0.13665 0.0
O203 O 0.95284 0.17832 0.13688 0.0
O204 O 0.83279 0.1169 0.1322 0.0
O205 O 0.81242 0.08284 0.09072 0.0
C206 C 0.61453 0.07691 0.15848 0.0
O207 O 0.71131 0.04245 0.11735 0.0
C208 C 0.78926 0.27657 0.11161 0.0
C209 C 0.91458 0.30492 0.14754 0.0
O210 O 0.62328 0.09247 0.13662 0.0
O211 O 0.68317 0.10623 0.16841 0.0
O212 O 0.75019 0.25995 0.13061 0.0
O213 O 0.79545 0.21722 0.10504 0.0
O214 O 0.84956 0.24509 0.15702 0.0
O215 O 0.93779 0.30271 0.1263 0.0
C216 C 0.9867 0.23538 0.06859 0.0
O217 O 0.98604 0.19132 0.08543 0.0
O218 O 0.93794 0.25978 0.07345 0.0
C219 C 0.88545 0.12676 0.14593 0.0
Tb220 Tb 0.71928 0.88402 0.27187 0.0
C221 C 0.7381 0.73469 0.2628 0.0
Tb222 Tb 0.60573 0.73031 0.29443 0.0
O223 O 0.78753 0.92851 0.30441 0.0
O224 O 0.72607 0.80896 0.29628 0.0
O225 O 0.74661 0.80105 0.25403 0.0
C226 C 0.52374 0.59553 0.31725 0.0
O227 O 0.69308 0.70237 0.28109 0.0
C228 C 0.54368 0.76277 0.25826 0.0
C229 C 0.60801 0.88919 0.30927 0.0
O230 O 0.52697 0.60305 0.29516 0.0
O231 O 0.56431 0.66489 0.32678 0.0
O232 O 0.53617 0.69463 0.26293 0.0
O233 O 0.59315 0.81013 0.2725 0.0
O234 O 0.58745 0.815 0.31527 0.0
O235 O 0.65246 0.92521 0.29099 0.0
C236 C 0.77998 0.97939 0.23533 0.0
O237 O 0.81593 0.99058 0.25501 0.0
O238 O 0.71049 0.91727 0.23692 0.0
C239 C 0.76339 0.85698 0.31201 0.0
C240 C 0.22441 0.08349 0.30297 0.0
C241 C 0.23755 1.01946 0.29983 0.0
H242 H 0.22413 0.16785 0.32708 0.0
C243 C 0.25815 0.99026 0.31896 0.0
H244 H 0.20789 0.1069 0.28851 0.0
C245 C 0.26609 0.02366 0.34054 0.0
C246 C 0.25422 0.08795 0.34399 0.0
H247 H 0.2686 0.94109 0.31734 0.0
H248 H 0.28345 0.99955 0.35458 0.0
C249 C 0.23277 0.11772 0.325 0.0
C250 C 0.15293 0.23638 0.49234 0.0
C251 C 0.2049 0.25801 0.51108 0.0
H252 H 0.13721 0.21226 0.45587 0.0
C253 C 0.28098 0.2706 0.50725 0.0
H254 H 0.09395 0.22626 0.49476 0.0
C255 C 0.30629 0.26559 0.4853 0.0
C256 C 0.25552 0.24507 0.46644 0.0
H257 H 0.32232 0.28612 0.52129 0.0
H258 H 0.36586 0.2769 0.4832 0.0
C259 C 0.17793 0.22916 0.47013 0.0
C260 C 0.94932 0.13969 0.65888 0.0
C261 C 0.96147 0.19547 0.67601 0.0
H262 H 0.97693 0.12126 0.62434 0.0
C263 C 1.00983 0.27631 0.67092 0.0
H264 H 0.91242 0.07703 0.66229 0.0
C265 C 0.04474 0.30136 0.64943 0.0
C266 C 0.0339 0.24636 0.63236 0.0
H267 H 1.02158 0.32122 0.68362 0.0
H268 H 0.08187 0.36429 0.6464 0.0
C269 C 0.98577 0.16503 0.63719 0.0
C270 C 0.78773 0.04926 0.81781 0.0
C271 C 0.81163 0.02219 0.79892 0.0
H272 H 0.76031 0.03868 0.85325 0.0
C273 C 0.82804 0.96042 0.80223 0.0
H274 H 0.77476 0.0967 0.81602 0.0
C275 C 0.81966 0.92623 0.82426 0.0
C276 C 0.79499 0.95391 0.84301 0.0
H277 H 0.84721 0.93882 0.78793 0.0
H278 H 0.83101 0.87791 0.82651 0.0
C279 C 0.77993 1.01603 0.83937 0.0
C280 C 0.87596 0.81807 0.9699 0.0
C281 C 0.79722 0.79786 0.96592 0.0
H282 H 0.96063 0.82323 0.99461 0.0
C283 C 0.74433 0.77038 0.98439 0.0
H284 H 0.91826 0.8402 0.95596 0.0
C285 C 0.76888 0.76324 0.00625 0.0
C286 C 0.84654 0.78096 0.01037 0.0
H287 H 0.68368 0.75541 0.98209 0.0
H288 H 0.72601 0.74289 0.02002 0.0
C289 C 0.90039 0.80901 0.99198 0.0
C290 C 0.10355 0.89885 0.15903 0.0
C291 C 0.09085 0.84287 0.17617 0.0
H292 H 0.07732 0.91808 0.12442 0.0
C293 C 0.04292 0.7621 0.17092 0.0
H294 H 0.14013 0.96147 0.16253 0.0
C295 C 1.00868 0.73746 0.14927 0.0
C296 C 1.02002 0.7928 0.1322 0.0
H297 H 0.03091 0.71713 0.18366 0.0
H298 H 0.97167 0.67461 0.14611 0.0
C299 C 0.06799 0.87397 0.13722 0.0
C300 C 0.08398 0.86737 0.52321 0.0
C301 C 0.04253 0.81943 0.54217 0.0
H302 H 0.0815 0.89113 0.48711 0.0
C303 C 0.9641 0.75983 0.5392 0.0
H304 H 0.14455 0.91431 0.52513 0.0
C305 C 0.92946 0.7449 0.51739 0.0
C306 C 0.9715 0.79096 0.49822 0.0
H307 H 0.93085 0.72213 0.55347 0.0
H308 H 0.86997 0.69585 0.51541 0.0
C309 C 0.04812 0.85436 0.50149 0.0
C310 C 0.14413 0.93776 0.68459 0.0
C311 C 0.2009 0.95279 0.66755 0.0
H312 H 0.12318 0.96059 0.71948 0.0
C313 C 0.2808 1.00115 0.67313 0.0
H314 H 0.08212 0.90037 0.68083 0.0
C315 C 0.30392 0.03456 0.69486 0.0
C316 C 0.24801 0.02091 0.71188 0.0
H317 H 0.32638 1.01436 0.66059 0.0
H318 H 0.36625 0.07228 0.6982 0.0
C319 C 0.16762 0.97154 0.7067 0.0
C320 C 0.2913 0.30876 0.86122 0.0
C321 C 0.24908 0.25329 0.87847 0.0
H322 H 0.33267 0.32934 0.82666 0.0
C323 C 0.21782 0.1723 0.87356 0.0
H324 H 0.31561 0.37146 0.86429 0.0
C325 C 0.22872 0.14772 0.85172 0.0
C326 C 0.27026 0.20375 0.83441 0.0
H327 H 0.18447 0.12806 0.88649 0.0
H328 H 0.20425 0.08522 0.84833 0.0
C329 C 0.30109 0.28437 0.83953 0.0
C330 C 0.99831 0.2725 0.02745 0.0
C331 C 1.02463 0.24543 0.04577 0.0
H332 H 1.00581 0.29944 0.99182 0.0
C333 C 0.08296 0.22516 0.04149 0.0
H334 H 0.95273 0.28749 0.02997 0.0
C335 C 0.11543 0.2339 0.01925 0.0
C336 C 0.08877 0.26165 1.00103 0.0
H337 H 0.1038 0.20332 0.05531 0.0
H338 H 0.1614 0.21977 0.01638 0.0
C339 C 0.02895 0.2793 0.00545 0.0
C340 C 0.76138 0.99711 0.19438 0.0
C341 C 0.81218 0.02199 0.2133 0.0
H342 H 0.74555 1.00913 0.15899 0.0
C343 C 0.89121 0.08215 0.21007 0.0
H344 H 0.70034 0.95096 0.19606 0.0
C345 C 0.918 0.11673 0.18809 0.0
C346 C 0.86585 0.09096 0.16928 0.0
H347 H 0.93193 0.10204 0.22438 0.0
H348 H 0.97839 0.1637 0.18591 0.0
C349 C 0.78778 0.0305 0.17288 0.0
C350 C 0.81638 0.85623 0.37535 0.0
C351 C 0.79355 0.77597 0.37843 0.0
H352 H 0.82592 0.94596 0.35175 0.0
C353 C 0.76019 0.72406 0.35982 0.0
H354 H 0.84296 0.89779 0.38938 0.0
C355 C 0.75084 0.75136 0.33858 0.0
C356 C 0.77488 0.83161 0.33513 0.0
H357 H 0.74213 0.66203 0.36156 0.0
H358 H 0.72527 0.70902 0.32472 0.0
C359 C 0.80735 0.88395 0.35381 0.0
C360 C 0.55059 0.9766 0.30772 0.0
C361 C 0.57242 0.93031 0.32088 0.0
H362 H 0.50525 0.0559 0.30779 0.0
C363 C 0.56353 0.92765 0.3448 0.0
H364 H 0.55651 0.97926 0.28918 0.0
C365 C 0.53616 0.97339 0.35547 0.0
C366 C 0.51545 0.02047 0.34225 0.0
H367 H 0.58019 0.89254 0.35524 0.0
H368 H 0.5313 0.97202 0.37404 0.0
C369 C 0.52133 0.02047 0.3183 0.0
C370 C 0.53144 0.50422 0.4849 0.0
C371 C 0.52961 0.49874 0.50891 0.0
H372 H 0.60311 0.53573 0.45469 0.0
C373 C 0.59803 0.51622 0.52109 0.0
H374 H 0.47888 0.49018 0.47524 0.0
C375 C 0.6683 0.54092 0.50945 0.0
C376 C 0.67112 0.54962 0.48552 0.0
H377 H 0.5975 0.51152 0.53966 0.0
H378 H 0.72079 0.55571 0.51925 0.0
C379 C 0.60219 0.53025 0.47325 0.0
C380 C 0.09456 0.64886 0.67806 0.0
C381 C 0.09418 0.65266 0.65404 0.0
H382 H 0.04549 0.57668 0.70792 0.0
C383 C 0.04309 0.58425 0.64143 0.0
H384 H 0.13288 0.70083 0.68813 0.0
C385 C 0.99361 0.51296 0.65268 0.0
C386 C 0.99334 0.50948 0.67671 0.0
H387 H 0.04204 0.58557 0.62282 0.0
H388 H 0.95593 0.46074 0.64262 0.0
C389 C 0.04394 0.57803 0.68931 0.0
C390 C 0.49714 0.06544 0.8074 0.0
C391 C 0.47508 0.11164 0.82053 0.0
H392 H 0.54267 0.98628 0.80751 0.0
C393 C 0.48366 0.11412 0.84447 0.0
H394 H 0.4917 0.06311 0.78884 0.0
C395 C 0.51112 0.06849 0.85515 0.0
C396 C 0.53213 0.02154 0.84197 0.0
H397 H 0.46688 0.14917 0.8549 0.0
H398 H 0.51591 0.06992 0.87372 0.0
C399 C 0.52631 0.02152 0.81801 0.0
C400 C 0.37124 0.46975 0.01471 0.0
C401 C 0.36856 0.46925 0.99065 0.0
H402 H 0.44433 0.49579 0.04453 0.0
C403 C 0.43887 0.49882 0.978 0.0
H404 H 0.31779 0.44712 0.02477 0.0
C405 C 0.51051 0.52685 0.98914 0.0
C406 C 0.51312 0.52498 0.01313 0.0
H407 H 0.43866 0.50013 0.95938 0.0
H408 H 0.56364 0.54896 0.97895 0.0
C409 C 0.44329 0.49701 0.02592 0.0
C410 C 1.01567 0.45489 0.19493 0.0
C411 C 0.06031 0.5245 0.18201 0.0
H412 H 0.93283 0.32993 0.19415 0.0
C413 C 0.05599 0.52123 0.15804 0.0
H414 H 1.01752 0.45632 0.21354 0.0
C415 C 1.00785 0.44951 0.14709 0.0
C416 C 0.96268 0.3797 0.15991 0.0
H417 H 0.08884 0.57421 0.14776 0.0
H418 H 1.0053 0.44912 0.12848 0.0
C419 C 0.96666 0.38288 0.18394 0.0
C420 C 0.04084 0.51655 0.52386 0.0
C421 C 0.04402 0.5235 0.49995 0.0
H422 H 0.08044 0.48369 0.55356 0.0
C423 C 0.09319 0.50428 0.4873 0.0
H424 H 1.00394 0.53173 0.53393 0.0
C425 C 0.13773 0.47689 0.49852 0.0
C426 C 0.13273 0.46779 0.52244 0.0
H427 H 0.09677 0.50984 0.46875 0.0
H428 H 0.17438 0.46124 0.4885 0.0
C429 C 0.08458 0.48874 0.535 0.0
C430 C 0.58437 0.03998 0.65389 0.0
C431 C 0.51703 0.98718 0.66658 0.0
H432 H 0.70632 0.13064 0.65487 0.0
C433 C 0.52158 0.98626 0.69056 0.0
H434 H 0.58214 0.0426 0.63532 0.0
C435 C 0.59273 0.03613 0.70164 0.0
C436 C 0.66018 0.08891 0.68896 0.0
H437 H 0.47037 0.94703 0.70073 0.0
H438 H 0.59481 0.03359 0.72022 0.0
C439 C 0.6552 0.09103 0.665 0.0
C440 C 0.601 0.66486 0.82761 0.0
C441 C 0.60012 0.66712 0.85165 0.0
H442 H 0.57872 0.59261 0.79773 0.0
C443 C 0.57547 0.59685 0.86422 0.0
H444 H 0.62011 0.71818 0.81758 0.0
C445 C 0.55213 0.52562 0.85301 0.0
C446 C 0.55336 0.5233 0.82902 0.0
H447 H 0.57324 0.59651 0.88284 0.0
H448 H 0.53216 0.47229 0.8631 0.0
C449 C 0.57815 0.59333 0.81635 0.0
C450 C 0.92234 0.5723 0.9969 0.0
C451 C 0.9195 0.57248 0.02096 0.0
H452 H 0.97037 0.54684 0.96717 0.0
C453 C 0.95977 0.5426 0.03367 0.0
H454 H 0.89192 0.59521 0.98679 0.0
C455 C 1.00371 0.51476 0.02261 0.0
C456 C 1.00905 0.51716 0.99864 0.0
H457 H 0.9578 0.54112 0.05229 0.0
H458 H 0.03445 0.49252 0.03286 0.0
C459 C 0.96751 0.54526 0.98578 0.0
C460 C 0.47054 0.98041 0.15651 0.0
C461 C 0.53784 0.02903 0.16972 0.0
H462 H 0.34595 0.89823 0.15665 0.0
C463 C 0.53116 0.03121 0.19361 0.0
H464 H 0.47463 0.97735 0.138 0.0
C465 C 0.45777 0.98749 0.2041 0.0
C466 C 0.39019 0.93922 0.19095 0.0
H467 H 0.58228 0.06787 0.20412 0.0
H468 H 0.45402 0.99146 0.22259 0.0
C469 C 0.39722 0.93489 0.1671 0.0
C470 C 0.46462 0.44893 0.31636 0.0
C471 C 0.49349 0.51951 0.32906 0.0
H472 H 0.42029 0.32351 0.31752 0.0
C473 C 0.50014 0.51784 0.35292 0.0
H474 H 0.45998 0.44921 0.2978 0.0
C475 C 0.47806 0.44677 0.364 0.0
C476 C 0.44908 0.37589 0.35144 0.0
H477 H 0.52345 0.57158 0.363 0.0
H478 H 0.48447 0.44763 0.38252 0.0
C479 C 0.44287 0.37738 0.3275 0.0
C480 C 0.14594 0.82552 0.40729 0.0
C481 C 0.11935 0.80531 0.42996 0.0
H482 H 0.23397 0.91055 0.38492 0.0
C483 C 0.16727 0.85336 0.44802 0.0
H484 H 0.11035 0.78941 0.39309 0.0
C485 C 0.23633 0.92491 0.44332 0.0
C486 C 0.26087 0.9471 0.42054 0.0
H487 H 0.14846 0.83856 0.4657 0.0
H488 H 0.26853 0.9644 0.45737 0.0
C489 C 0.21702 0.8948 0.40268 0.0
C490 C 0.35898 0.20722 0.57047 0.0
C491 C 0.34224 0.24434 0.58862 0.0
H492 H 0.36213 0.10402 0.55938 0.0
C493 C 0.32951 0.21175 0.61072 0.0
H494 H 0.36773 0.23036 0.55313 0.0
C495 C 0.32949 0.14109 0.61436 0.0
C496 C 0.33919 0.10055 0.59579 0.0
H497 H 0.31546 0.23857 0.62487 0.0
H498 H 0.31522 0.11477 0.63135 0.0
C499 C 0.35567 0.13487 0.57393 0.0
C500 C 0.22033 0.32526 0.73571 0.0
C501 C 0.2457 0.32473 0.75817 0.0
H502 H 0.13067 0.32331 0.71439 0.0
C503 C 0.20157 0.32824 0.77677 0.0
H504 H 0.25264 0.32148 0.72114 0.0
C505 C 0.1303 0.32639 0.773 0.0
C506 C 0.10356 0.3242 0.75054 0.0
H507 H 0.21906 0.32636 0.79432 0.0
H508 H 0.09461 0.32337 0.78759 0.0
C509 C 0.15067 0.32659 0.73192 0.0
C510 C 0.83572 0.15178 0.89939 0.0
C511 C 0.79478 0.10058 0.91784 0.0
H512 H 0.94074 0.25713 0.8885 0.0
C513 C 0.82256 0.12427 0.94025 0.0
H514 H 0.81634 0.13454 0.88187 0.0
C515 C 0.89193 0.19613 0.94403 0.0
C516 C 0.93635 0.24376 0.92541 0.0
H517 H 0.79292 0.08549 0.95468 0.0
H518 H 0.91419 0.21121 0.96143 0.0
C519 C 0.90703 0.22191 0.90308 0.0
C520 C 0.711 0.89433 0.11294 0.0
C521 C 0.71944 0.94478 0.09448 0.0
H522 H 0.71095 0.78902 0.12366 0.0
C523 C 0.72066 0.91987 0.072 0.0
H524 H 0.7113 0.9126 0.13051 0.0
C525 C 0.71698 0.84746 0.06811 0.0
C526 C 0.71547 0.80044 0.08668 0.0
H527 H 0.72848 0.95811 0.05754 0.0
H528 H 0.72202 0.83149 0.05062 0.0
C529 C 0.71095 0.82362 0.10911 0.0
C530 C 0.82817 0.718 0.23595 0.0
C531 C 0.80114 0.71648 0.25833 0.0
H532 H 0.91965 0.72211 0.21496 0.0
C533 C 0.84384 0.71143 0.27706 0.0
H534 H 0.79699 0.72315 0.22131 0.0
C535 C 0.91546 0.71392 0.27354 0.0
C536 C 0.94383 0.71822 0.2512 0.0
H537 H 0.82507 0.71183 0.29456 0.0
H538 H 0.95012 0.71576 0.28825 0.0
C539 C 0.89819 0.71725 0.2324 0.0
C540 C 0.67167 0.41572 0.44152 0.0
C541 C 0.72932 0.47283 0.42652 0.0
H542 H 0.55943 0.30887 0.44487 0.0
C543 C 0.70861 0.4739 0.40362 0.0
H544 H 0.68519 0.41358 0.45946 0.0
C545 C 0.63553 0.41372 0.39544 0.0
C546 C 0.58211 0.35131 0.40992 0.0
H547 H 0.75108 0.51633 0.39166 0.0
H548 H 0.62369 0.41211 0.37719 0.0
C549 C 0.59879 0.35568 0.43334 0.0
C550 C 0.25994 0.68272 0.56608 0.0
C551 C 0.26366 0.70764 0.58871 0.0
H552 H 0.26695 0.60081 0.54362 0.0
C553 C 0.26313 0.65887 0.60676 0.0
H554 H 0.26028 0.71897 0.55194 0.0
C555 C 0.26602 0.58969 0.60209 0.0
C556 C 0.26921 0.56846 0.57928 0.0
H557 H 0.2661 0.67732 0.62447 0.0
H558 H 0.27324 0.55756 0.61614 0.0
C559 C 0.26255 0.61402 0.56145 0.0
C560 C 0.57938 0.20712 0.75315 0.0
C561 C 0.58013 0.27954 0.7541 0.0
H562 H 0.6477 0.14892 0.75142 0.0
C563 C 0.65365 0.34982 0.75499 0.0
H564 H 0.52392 0.1518 0.75284 0.0
C565 C 0.72389 0.34803 0.75519 0.0
C566 C 0.7237 0.27602 0.75385 0.0
H567 H 0.65733 0.40686 0.75616 0.0
H568 H 0.77878 0.40389 0.7558 0.0
C569 C 0.65029 0.2054 0.75279 0.0
C570 C 0.42401 0.63126 0.89764 0.0
C571 C 0.47772 0.6949 0.91165 0.0
H572 H 0.31119 0.52441 0.89533 0.0
C573 C 0.46608 0.68939 0.93538 0.0
H574 H 0.43226 0.63372 0.87916 0.0
C575 C 0.39681 0.62648 0.94452 0.0
C576 C 0.33821 0.56812 0.93013 0.0
H577 H 0.50606 0.73712 0.94655 0.0
H578 H 0.38632 0.62704 0.96279 0.0
C579 C 0.35465 0.56828 0.90678 0.0
C580 C 0.79974 0.35477 0.0762 0.0
C581 C 0.81059 0.35187 0.0998 0.0
H582 H 0.77658 0.41376 0.04906 0.0
C583 C 0.82242 0.41671 0.11358 0.0
H584 H 0.79027 0.30602 0.06522 0.0
C585 C 0.8136 0.47833 0.10451 0.0
C586 C 0.79292 0.47596 0.08145 0.0
H587 H 0.83161 0.41617 0.13194 0.0
H588 H 0.81581 0.52321 0.11591 0.0
C589 C 0.79096 0.41631 0.06714 0.0
C590 C 0.46922 0.837 0.25487 0.0
C591 C 0.46936 0.765 0.25479 0.0
H592 H 0.39978 0.89412 0.25496 0.0
C593 C 0.39622 0.69416 0.2554 0.0
H594 H 0.52434 0.89266 0.25472 0.0
C595 C 0.32555 0.69503 0.25641 0.0
C596 C 0.32493 0.76674 0.25622 0.0
H597 H 0.39319 0.63732 0.25575 0.0
H598 H 0.27102 0.6388 0.2567 0.0
C599 C 0.39792 0.83786 0.25541 0.0
loop_
_geom_bond_atom_site_label_1
_geom_bond_atom_site_label_2
_geom_bond_distance
_geom_bond_site_symmetry_2
_ccdc_geom_bond_type
Tb0 O3 2.453 . S
Tb0 O4 2.596 . S
Tb0 O5 2.374 . S
Tb0 O13 2.343 . S
Tb0 O15 2.353 . S
Tb0 O17 2.427 . S
Tb0 O18 2.513 . S
C1 O5 1.251 1_565 S
C1 O7 1.263 . S
Tb2 O4 2.343 . S
Tb2 O7 2.353 1_545 S
Tb2 O10 2.427 1_545 S
Tb2 O11 2.513 . S
Tb2 O12 2.453 . S
Tb2 O13 2.596 . S
Tb2 O14 2.374 . S
O3 Tb0 2.453 . S
O3 C19 1.245 . S
O4 Tb0 2.596 . S
O4 Tb2 2.343 . S
O4 C19 1.259 . S
O5 Tb0 2.374 . S
O5 C1 1.251 1_545 S
C6 O10 1.275 . S
C6 O11 1.246 1_565 S
O7 C1 1.263 . S
O7 Tb2 2.353 1_565 S
C8 O12 1.245 . S
C8 O13 1.259 . S
C9 O14 1.250 . S
C9 O15 1.263 . S
O10 Tb2 2.427 1_565 S
O10 C6 1.275 . S
O11 Tb2 2.513 . S
O11 C6 1.246 1_545 S
O12 Tb2 2.453 . S
O12 C8 1.245 . S
O13 Tb0 2.343 . S
O13 Tb2 2.596 . S
O13 C8 1.259 . S
O14 Tb2 2.374 . S
O14 C9 1.250 . S
O15 Tb0 2.353 . S
O15 C9 1.263 . S
C16 O17 1.275 . S
C16 O18 1.246 . S
O17 Tb0 2.427 . S
O17 C16 1.275 . S
O18 Tb0 2.513 . S
O18 C16 1.246 . S
C19 O3 1.245 . S
C19 O4 1.259 . S
Tb20 O23 2.453 . S
Tb20 O24 2.596 . S
Tb20 O25 2.374 . S
Tb20 O33 2.343 . S
Tb20 O35 2.353 . S
Tb20 O37 2.427 . S
Tb20 O38 2.513 . S
C21 O25 1.251 . S
C21 O27 1.263 . S
Tb22 O24 2.343 . S
Tb22 O27 2.353 . S
Tb22 O30 2.427 . S
Tb22 O31 2.513 . S
Tb22 O32 2.453 . S
Tb22 O33 2.596 . S
Tb22 O34 2.374 . S
O23 Tb20 2.453 . S
O23 C39 1.245 . S
O24 Tb20 2.596 . S
O24 Tb22 2.343 . S
O24 C39 1.259 . S
O25 Tb20 2.374 . S
O25 C21 1.251 . S
C26 O30 1.275 . S
C26 O31 1.246 . S
O27 C21 1.263 . S
O27 Tb22 2.353 . S
C28 O32 1.245 . S
C28 O33 1.259 . S
C29 O34 1.250 . S
C29 O35 1.263 . S
O30 Tb22 2.427 . S
O30 C26 1.275 . S
O31 Tb22 2.513 . S
O31 C26 1.246 . S
O32 Tb22 2.453 . S
O32 C28 1.245 . S
O33 Tb20 2.343 . S
O33 Tb22 2.596 . S
O33 C28 1.259 . S
O34 Tb22 2.374 . S
O34 C29 1.250 . S
O35 Tb20 2.353 . S
O35 C29 1.263 . S
C36 O37 1.275 . S
C36 O38 1.246 . S
O37 Tb20 2.427 . S
O37 C36 1.275 . S
O38 Tb20 2.513 . S
O38 C36 1.246 . S
C39 O23 1.245 . S
C39 O24 1.259 . S
Tb40 O43 2.453 . S
Tb40 O44 2.596 . S
Tb40 O45 2.374 . S
Tb40 O53 2.343 . S
Tb40 O55 2.353 . S
Tb40 O57 2.427 . S
Tb40 O58 2.513 . S
C41 O45 1.251 1_455 S
C41 O47 1.263 . S
Tb42 O44 2.343 . S
Tb42 O47 2.353 1_655 S
Tb42 O50 2.427 1_655 S
Tb42 O51 2.513 . S
Tb42 O52 2.453 . S
Tb42 O53 2.596 . S
Tb42 O54 2.374 . S
O43 Tb40 2.453 . S
O43 C59 1.245 . S
O44 Tb40 2.596 . S
O44 Tb42 2.343 . S
O44 C59 1.259 . S
O45 Tb40 2.374 . S
O45 C41 1.251 1_655 S
C46 O50 1.275 . S
C46 O51 1.246 1_455 S
O47 C41 1.263 . S
O47 Tb42 2.353 1_455 S
C48 O52 1.245 . S
C48 O53 1.259 . S
C49 O54 1.250 . S
C49 O55 1.263 . S
O50 Tb42 2.427 1_455 S
O50 C46 1.275 . S
O51 Tb42 2.513 . S
O51 C46 1.246 1_655 S
O52 Tb42 2.453 . S
O52 C48 1.245 . S
O53 Tb40 2.343 . S
O53 Tb42 2.596 . S
O53 C48 1.259 . S
O54 Tb42 2.374 . S
O54 C49 1.250 . S
O55 Tb40 2.353 . S
O55 C49 1.263 . S
C56 O57 1.275 . S
C56 O58 1.246 . S
O57 Tb40 2.427 . S
O57 C56 1.275 . S
O58 Tb40 2.513 . S
O58 C56 1.246 . S
C59 O43 1.245 . S
C59 O44 1.259 . S
Tb60 O63 2.453 . S
Tb60 O64 2.596 . S
Tb60 O65 2.374 . S
Tb60 O73 2.343 . S
Tb60 O75 2.353 . S
Tb60 O77 2.427 . S
Tb60 O78 2.513 . S
C61 O65 1.251 1_545 S
C61 O67 1.263 . S
Tb62 O64 2.343 . S
Tb62 O67 2.353 1_565 S
Tb62 O70 2.427 1_565 S
Tb62 O71 2.513 . S
Tb62 O72 2.453 . S
Tb62 O73 2.596 . S
Tb62 O74 2.374 . S
O63 Tb60 2.453 . S
O63 C79 1.245 . S
O64 Tb60 2.596 . S
O64 Tb62 2.343 . S
O64 C79 1.259 . S
O65 Tb60 2.374 . S
O65 C61 1.251 1_565 S
C66 O70 1.275 . S
C66 O71 1.246 1_545 S
O67 C61 1.263 . S
O67 Tb62 2.353 1_545 S
C68 O72 1.245 . S
C68 O73 1.259 . S
C69 O74 1.250 . S
C69 O75 1.263 . S
O70 Tb62 2.427 1_545 S
O70 C66 1.275 . S
O71 Tb62 2.513 . S
O71 C66 1.246 1_565 S
O72 Tb62 2.453 . S
O72 C68 1.245 . S
O73 Tb60 2.343 . S
O73 Tb62 2.596 . S
O73 C68 1.259 . S
O74 Tb62 2.374 . S
O74 C69 1.250 . S
O75 Tb60 2.353 . S
O75 C69 1.263 . S
C76 O77 1.275 . S
C76 O78 1.246 . S
O77 Tb60 2.427 . S
O77 C76 1.275 . S
O78 Tb60 2.513 . S
O78 C76 1.246 . S
C79 O63 1.245 . S
C79 O64 1.259 . S
Tb80 O83 2.453 . S
Tb80 O84 2.596 . S
Tb80 O85 2.374 . S
Tb80 O93 2.343 . S
Tb80 O95 2.353 . S
Tb80 O97 2.427 . S
Tb80 O98 2.513 . S
C81 O85 1.251 . S
C81 O87 1.263 . S
Tb82 O84 2.343 . S
Tb82 O87 2.353 . S
Tb82 O90 2.427 . S
Tb82 O91 2.513 . S
Tb82 O92 2.453 . S
Tb82 O93 2.596 . S
Tb82 O94 2.374 . S
O83 Tb80 2.453 . S
O83 C99 1.245 . S
O84 Tb80 2.596 . S
O84 Tb82 2.343 . S
O84 C99 1.259 . S
O85 Tb80 2.374 . S
O85 C81 1.251 . S
C86 O90 1.275 . S
C86 O91 1.246 . S
O87 C81 1.263 . S
O87 Tb82 2.353 . S
C88 O92 1.245 . S
C88 O93 1.259 . S
C89 O94 1.250 . S
C89 O95 1.263 . S
O90 Tb82 2.427 . S
O90 C86 1.275 . S
O91 Tb82 2.513 . S
O91 C86 1.246 . S
O92 Tb82 2.453 . S
O92 C88 1.245 . S
O93 Tb80 2.343 . S
O93 Tb82 2.596 . S
O93 C88 1.259 . S
O94 Tb82 2.374 . S
O94 C89 1.250 . S
O95 Tb80 2.353 . S
O95 C89 1.263 . S
C96 O97 1.275 . S
C96 O98 1.246 . S
O97 Tb80 2.427 . S
O97 C96 1.275 . S
O98 Tb80 2.513 . S
O98 C96 1.246 . S
C99 O83 1.245 . S
C99 O84 1.259 . S
Tb100 O103 2.453 . S
Tb100 O104 2.596 . S
Tb100 O105 2.374 . S
Tb100 O113 2.343 . S
Tb100 O115 2.353 . S
Tb100 O117 2.427 . S
Tb100 O118 2.513 . S
C101 O105 1.251 1_655 S
C101 O107 1.263 . S
Tb102 O104 2.343 . S
Tb102 O107 2.353 1_455 S
Tb102 O110 2.427 1_455 S
Tb102 O111 2.513 . S
Tb102 O112 2.453 . S
Tb102 O113 2.596 . S
Tb102 O114 2.374 . S
O103 Tb100 2.453 . S
O103 C119 1.245 . S
O104 Tb100 2.596 . S
O104 Tb102 2.343 . S
O104 C119 1.259 . S
O105 Tb100 2.374 . S
O105 C101 1.251 1_455 S
C106 O110 1.275 . S
C106 O111 1.246 1_655 S
O107 C101 1.263 . S
O107 Tb102 2.353 1_655 S
C108 O112 1.245 . S
C108 O113 1.259 . S
C109 O114 1.250 . S
C109 O115 1.263 . S
O110 Tb102 2.427 1_655 S
O110 C106 1.275 . S
O111 Tb102 2.513 . S
O111 C106 1.246 1_455 S
O112 Tb102 2.453 . S
O112 C108 1.245 . S
O113 Tb100 2.343 . S
O113 Tb102 2.596 . S
O113 C108 1.259 . S
O114 Tb102 2.374 . S
O114 C109 1.250 . S
O115 Tb100 2.353 . S
O115 C109 1.263 . S
C116 O117 1.275 . S
C116 O118 1.246 . S
O117 Tb100 2.427 . S
O117 C116 1.275 . S
O118 Tb100 2.513 . S
O118 C116 1.246 . S
C119 O103 1.245 . S
C119 O104 1.259 . S
Tb120 O123 2.453 . S
Tb120 O124 2.596 . S
Tb120 O125 2.374 . S
Tb120 O133 2.343 . S
Tb120 O135 2.353 . S
Tb120 O137 2.427 . S
Tb120 O138 2.513 . S
C121 O125 1.251 1_455 S
C121 O127 1.263 . S
Tb122 O124 2.343 . S
Tb122 O127 2.353 1_655 S
Tb122 O130 2.427 1_655 S
Tb122 O131 2.513 . S
Tb122 O132 2.453 . S
Tb122 O133 2.596 . S
Tb122 O134 2.374 . S
O123 Tb120 2.453 . S
O123 C139 1.245 . S
O124 Tb120 2.596 . S
O124 Tb122 2.343 . S
O124 C139 1.259 . S
O125 Tb120 2.374 . S
O125 C121 1.251 1_655 S
C126 O130 1.275 . S
C126 O131 1.246 1_455 S
O127 C121 1.263 . S
O127 Tb122 2.353 1_455 S
C128 O132 1.245 . S
C128 O133 1.259 . S
C129 O134 1.250 . S
C129 O135 1.263 . S
O130 Tb122 2.427 1_455 S
O130 C126 1.275 . S
O131 Tb122 2.513 . S
O131 C126 1.246 1_655 S
O132 Tb122 2.453 . S
O132 C128 1.245 . S
O133 Tb120 2.343 . S
O133 Tb122 2.596 . S
O133 C128 1.259 . S
O134 Tb122 2.374 . S
O134 C129 1.250 . S
O135 Tb120 2.353 . S
O135 C129 1.263 . S
C136 O137 1.275 . S
C136 O138 1.246 . S
O137 Tb120 2.427 . S
O137 C136 1.275 . S
O138 Tb120 2.513 . S
O138 C136 1.246 . S
C139 O123 1.245 . S
C139 O124 1.259 . S
Tb140 O143 2.453 . S
Tb140 O144 2.596 . S
Tb140 O145 2.374 . S
Tb140 O153 2.343 . S
Tb140 O155 2.353 . S
Tb140 O157 2.427 . S
Tb140 O158 2.513 . S
C141 O145 1.251 1_545 S
C141 O147 1.263 . S
Tb142 O144 2.343 . S
Tb142 O147 2.353 1_565 S
Tb142 O150 2.427 1_565 S
Tb142 O151 2.513 . S
Tb142 O152 2.453 . S
Tb142 O153 2.596 . S
Tb142 O154 2.374 . S
O143 Tb140 2.453 . S
O143 C159 1.245 . S
O144 Tb140 2.596 . S
O144 Tb142 2.343 . S
O144 C159 1.259 . S
O145 Tb140 2.374 . S
O145 C141 1.251 1_565 S
C146 O150 1.275 . S
C146 O151 1.246 1_545 S
O147 C141 1.263 . S
O147 Tb142 2.353 1_545 S
C148 O152 1.245 . S
C148 O153 1.259 . S
C149 O154 1.250 . S
C149 O155 1.263 . S
O150 Tb142 2.427 1_545 S
O150 C146 1.275 . S
O151 Tb142 2.513 . S
O151 C146 1.246 1_565 S
O152 Tb142 2.453 . S
O152 C148 1.245 . S
O153 Tb140 2.343 . S
O153 Tb142 2.596 . S
O153 C148 1.259 . S
O154 Tb142 2.374 . S
O154 C149 1.250 . S
O155 Tb140 2.353 . S
O155 C149 1.263 . S
C156 O157 1.275 . S
C156 O158 1.246 . S
O157 Tb140 2.427 . S
O157 C156 1.275 . S
O158 Tb140 2.513 . S
O158 C156 1.246 . S
C159 O143 1.245 . S
C159 O144 1.259 . S
Tb160 O163 2.453 . S
Tb160 O164 2.596 . S
Tb160 O165 2.374 . S
Tb160 O173 2.343 . S
Tb160 O175 2.353 . S
Tb160 O177 2.427 . S
Tb160 O178 2.513 . S
C161 O165 1.251 . S
C161 O167 1.263 . S
Tb162 O164 2.343 . S
Tb162 O167 2.353 . S
Tb162 O170 2.427 . S
Tb162 O171 2.513 . S
Tb162 O172 2.453 . S
Tb162 O173 2.596 . S
Tb162 O174 2.374 . S
O163 Tb160 2.453 . S
O163 C179 1.245 . S
O164 Tb160 2.596 . S
O164 Tb162 2.343 . S
O164 C179 1.259 . S
O165 Tb160 2.374 . S
O165 C161 1.251 . S
C166 O170 1.275 . S
C166 O171 1.246 . S
O167 C161 1.263 . S
O167 Tb162 2.353 . S
C168 O172 1.245 . S
C168 O173 1.259 . S
C169 O174 1.250 . S
C169 O175 1.263 . S
O170 Tb162 2.427 . S
O170 C166 1.275 . S
O171 Tb162 2.513 . S
O171 C166 1.246 . S
O172 Tb162 2.453 . S
O172 C168 1.245 . S
O173 Tb160 2.343 . S
O173 Tb162 2.596 . S
O173 C168 1.259 . S
O174 Tb162 2.374 . S
O174 C169 1.250 . S
O175 Tb160 2.353 . S
O175 C169 1.263 . S
C176 O177 1.275 . S
C176 O178 1.246 . S
O177 Tb160 2.427 . S
O177 C176 1.275 . S
O178 Tb160 2.513 . S
O178 C176 1.246 . S
C179 O163 1.245 . S
C179 O164 1.259 . S
Tb180 O183 2.453 . S
Tb180 O184 2.596 . S
Tb180 O185 2.374 . S
Tb180 O193 2.343 . S
Tb180 O195 2.353 . S
Tb180 O197 2.427 . S
Tb180 O198 2.513 . S
C181 O185 1.251 1_655 S
C181 O187 1.263 . S
Tb182 O184 2.343 . S
Tb182 O187 2.353 1_455 S
Tb182 O190 2.427 1_455 S
Tb182 O191 2.513 . S
Tb182 O192 2.453 . S
Tb182 O193 2.596 . S
Tb182 O194 2.374 . S
O183 Tb180 2.453 . S
O183 C199 1.245 . S
O184 Tb180 2.596 . S
O184 Tb182 2.343 . S
O184 C199 1.259 . S
O185 Tb180 2.374 . S
O185 C181 1.251 1_455 S
C186 O190 1.275 . S
C186 O191 1.246 1_655 S
O187 C181 1.263 . S
O187 Tb182 2.353 1_655 S
C188 O192 1.245 . S
C188 O193 1.259 . S
C189 O194 1.250 . S
C189 O195 1.263 . S
O190 Tb182 2.427 1_655 S
O190 C186 1.275 . S
O191 Tb182 2.513 . S
O191 C186 1.246 1_455 S
O192 Tb182 2.453 . S
O192 C188 1.245 . S
O193 Tb180 2.343 . S
O193 Tb182 2.596 . S
O193 C188 1.259 . S
O194 Tb182 2.374 . S
O194 C189 1.250 . S
O195 Tb180 2.353 . S
O195 C189 1.263 . S
C196 O197 1.275 . S
C196 O198 1.246 . S
O197 Tb180 2.427 . S
O197 C196 1.275 . S
O198 Tb180 2.513 . S
O198 C196 1.246 . S
C199 O183 1.245 . S
C199 O184 1.259 . S
Tb200 O203 2.453 . S
Tb200 O204 2.596 . S
Tb200 O205 2.374 . S
Tb200 O213 2.343 . S
Tb200 O215 2.353 . S
Tb200 O217 2.427 . S
Tb200 O218 2.513 . S
C201 O205 1.251 1_565 S
C201 O207 1.263 . S
Tb202 O204 2.343 . S
Tb202 O207 2.353 1_545 S
Tb202 O210 2.427 1_545 S
Tb202 O211 2.513 . S
Tb202 O212 2.453 . S
Tb202 O213 2.596 . S
Tb202 O214 2.374 . S
O203 Tb200 2.453 . S
O203 C219 1.245 . S
O204 Tb200 2.596 . S
O204 Tb202 2.343 . S
O204 C219 1.259 . S
O205 Tb200 2.374 . S
O205 C201 1.251 1_545 S
C206 O210 1.275 . S
C206 O211 1.246 1_565 S
O207 C201 1.263 . S
O207 Tb202 2.353 1_565 S
C208 O212 1.245 . S
C208 O213 1.259 . S
C209 O214 1.250 . S
C209 O215 1.263 . S
O210 Tb202 2.427 1_565 S
O210 C206 1.275 . S
O211 Tb202 2.513 . S
O211 C206 1.246 1_545 S
O212 Tb202 2.453 . S
O212 C208 1.245 . S
O213 Tb200 2.343 . S
O213 Tb202 2.596 . S
O213 C208 1.259 . S
O214 Tb202 2.374 . S
O214 C209 1.250 . S
O215 Tb200 2.353 . S
O215 C209 1.263 . S
C216 O217 1.275 . S
C216 O218 1.246 . S
O217 Tb200 2.427 . S
O217 C216 1.275 . S
O218 Tb200 2.513 . S
O218 C216 1.246 . S
C219 O203 1.245 . S
C219 O204 1.259 . S
Tb220 O223 2.453 . S
Tb220 O224 2.596 . S
Tb220 O225 2.374 . S
Tb220 O233 2.343 . S
Tb220 O235 2.353 . S
Tb220 O237 2.427 . S
Tb220 O238 2.513 . S
C221 O225 1.251 . S
C221 O227 1.263 . S
Tb222 O224 2.343 . S
Tb222 O227 2.353 . S
Tb222 O230 2.427 . S
Tb222 O231 2.513 . S
Tb222 O232 2.453 . S
Tb222 O233 2.596 . S
Tb222 O234 2.374 . S
O223 Tb220 2.453 . S
O223 C239 1.245 . S
O224 Tb220 2.596 . S
O224 Tb222 2.343 . S
O224 C239 1.259 . S
O225 Tb220 2.374 . S
O225 C221 1.251 . S
C226 O230 1.275 . S
C226 O231 1.246 . S
O227 C221 1.263 . S
O227 Tb222 2.353 . S
C228 O232 1.245 . S
C228 O233 1.259 . S
C229 O234 1.250 . S
C229 O235 1.263 . S
O230 Tb222 2.427 . S
O230 C226 1.275 . S
O231 Tb222 2.513 . S
O231 C226 1.246 . S
O232 Tb222 2.453 . S
O232 C228 1.245 . S
O233 Tb220 2.343 . S
O233 Tb222 2.596 . S
O233 C228 1.259 . S
O234 Tb222 2.374 . S
O234 C229 1.250 . S
O235 Tb220 2.353 . S
O235 C229 1.263 . S
C236 O237 1.275 . S
C236 O238 1.246 . S
O237 Tb220 2.427 . S
O237 C236 1.275 . S
O238 Tb220 2.513 . S
O238 C236 1.246 . S
C239 O223 1.245 . S
C239 O224 1.259 . S
C240 C241 1.387 . S
C240 H244 0.950 . S
C240 C249 1.390 . S
C241 C240 1.387 . S
C241 C243 1.387 . S
H242 C249 0.950 1_545 S
C243 C241 1.387 . S
C243 C245 1.390 . S
C243 H247 0.950 . S
H244 C240 0.950 . S
C245 C243 1.390 . S
C245 C246 1.387 . S
C245 H248 0.950 . S
C246 C245 1.387 . S
C246 C249 1.387 . S
H247 C243 0.950 . S
H248 C245 0.950 . S
C249 C240 1.390 . S
C249 H242 0.950 1_565 S
C249 C246 1.387 . S
C250 C251 1.387 . S
C250 H254 0.950 . S
C250 C259 1.390 . S
C251 C250 1.387 . S
C251 C253 1.387 . S
H252 C259 0.950 . S
C253 C251 1.387 . S
C253 C255 1.390 . S
C253 H257 0.950 . S
H254 C250 0.950 . S
C255 C253 1.390 . S
C255 C256 1.387 . S
C255 H258 0.950 . S
C256 C255 1.387 . S
C256 C259 1.387 . S
H257 C253 0.950 . S
H258 C255 0.950 . S
C259 C250 1.390 . S
C259 H252 0.950 . S
C259 C256 1.387 . S
C260 C261 1.387 . S
C260 H264 0.950 1_455 S
C260 C269 1.390 . S
C261 C260 1.387 . S
C261 C263 1.387 . S
H262 C269 0.950 . S
C263 C261 1.387 . S
C263 C265 1.390 . S
C263 H267 0.950 . S
H264 C260 0.950 1_655 S
C265 C263 1.390 . S
C265 C266 1.387 . S
C265 H268 0.950 . S
C266 C265 1.387 . S
C266 C269 1.387 . S
H267 C263 0.950 . S
H268 C265 0.950 . S
C269 C260 1.390 . S
C269 H262 0.950 . S
C269 C266 1.387 . S
C270 C271 1.387 . S
C270 H274 0.950 . S
C270 C279 1.390 . S
C271 C270 1.387 . S
C271 C273 1.387 . S
H272 C279 0.950 . S
C273 C271 1.387 . S
C273 C275 1.390 . S
C273 H277 0.950 . S
H274 C270 0.950 . S
C275 C273 1.390 . S
C275 C276 1.387 . S
C275 H278 0.950 . S
C276 C275 1.387 . S
C276 C279 1.387 . S
H277 C273 0.950 . S
H278 C275 0.950 . S
C279 C270 1.390 . S
C279 H272 0.950 . S
C279 C276 1.387 . S
C280 C281 1.387 . S
C280 H284 0.950 . S
C280 C289 1.390 . S
C281 C280 1.387 . S
C281 C283 1.387 . S
H282 C289 0.950 . S
C283 C281 1.387 . S
C283 C285 1.390 . S
C283 H287 0.950 . S
H284 C280 0.950 . S
C285 C283 1.390 . S
C285 C286 1.387 . S
C285 H288 0.950 . S
C286 C285 1.387 . S
C286 C289 1.387 . S
H287 C283 0.950 . S
H288 C285 0.950 . S
C289 C280 1.390 . S
C289 H282 0.950 . S
C289 C286 1.387 . S
C290 C291 1.387 . S
C290 H294 0.950 . S
C290 C299 1.390 . S
C291 C290 1.387 . S
C291 C293 1.387 . S
H292 C299 0.950 . S
C293 C291 1.387 . S
C293 C295 1.390 . S
C293 H297 0.950 . S
H294 C290 0.950 . S
C295 C293 1.390 . S
C295 C296 1.387 . S
C295 H298 0.950 . S
C296 C295 1.387 . S
C296 C299 1.387 . S
H297 C293 0.950 . S
H298 C295 0.950 . S
C299 C290 1.390 . S
C299 H292 0.950 . S
C299 C296 1.387 . S
C300 C301 1.387 . S
C300 H304 0.950 . S
C300 C309 1.390 . S
C301 C300 1.387 . S
C301 C303 1.387 . S
H302 C309 0.950 . S
C303 C301 1.387 . S
C303 C305 1.390 . S
C303 H307 0.950 . S
H304 C300 0.950 . S
C305 C303 1.390 . S
C305 C306 1.387 . S
C305 H308 0.950 1_455 S
C306 C305 1.387 . S
C306 C309 1.387 . S
H307 C303 0.950 . S
H308 C305 0.950 1_655 S
C309 C300 1.390 . S
C309 H302 0.950 . S
C309 C306 1.387 . S
C310 C311 1.387 . S
C310 H314 0.950 . S
C310 C319 1.390 . S
C311 C310 1.387 . S
C311 C313 1.387 . S
H312 C319 0.950 . S
C313 C311 1.387 . S
C313 C315 1.390 . S
C313 H317 0.950 . S
H314 C310 0.950 . S
C315 C313 1.390 . S
C315 C316 1.387 . S
C315 H318 0.950 . S
C316 C315 1.387 . S
C316 C319 1.387 . S
H317 C313 0.950 . S
H318 C315 0.950 . S
C319 C310 1.390 . S
C319 H312 0.950 . S
C319 C316 1.387 . S
C320 C321 1.387 . S
C320 H324 0.950 . S
C320 C329 1.390 . S
C321 C320 1.387 . S
C321 C323 1.387 . S
H322 C329 0.950 . S
C323 C321 1.387 . S
C323 C325 1.390 . S
C323 H327 0.950 . S
H324 C320 0.950 . S
C325 C323 1.390 . S
C325 C326 1.387 . S
C325 H328 0.950 . S
C326 C325 1.387 . S
C326 C329 1.387 . S
H327 C323 0.950 . S
H328 C325 0.950 . S
C329 C320 1.390 . S
C329 H322 0.950 . S
C329 C326 1.387 . S
C330 C331 1.387 . S
C330 H334 0.950 . S
C330 C339 1.390 . S
C331 C330 1.387 . S
C331 C333 1.387 . S
H332 C339 0.974 . S
C333 C331 1.387 . S
C333 C335 1.390 . S
C333 H337 0.950 . S
H334 C330 0.950 . S
C335 C333 1.390 . S
C335 C336 1.387 . S
C335 H338 0.950 . S
C336 C335 1.387 . S
C336 C339 1.387 . S
H337 C333 0.950 . S
H338 C335 0.950 . S
C339 C330 1.390 . S
C339 H332 0.974 . S
C339 C336 1.387 . S
C340 C341 1.387 . S
C340 H344 0.950 . S
C340 C349 1.390 . S
C341 C340 1.387 . S
C341 C343 1.387 . S
H342 C349 0.950 . S
C343 C341 1.387 . S
C343 C345 1.390 . S
C343 H347 0.950 . S
H344 C340 0.950 . S
C345 C343 1.390 . S
C345 C346 1.387 . S
C345 H348 0.950 . S
C346 C345 1.387 . S
C346 C349 1.387 . S
H347 C343 0.950 . S
H348 C345 0.950 . S
C349 C340 1.390 . S
C349 H342 0.950 . S
C349 C346 1.387 . S
C350 C351 1.387 . S
C350 H354 0.950 . S
C350 C359 1.390 . S
C351 C350 1.387 . S
C351 C353 1.387 . S
H352 C359 0.950 . S
C353 C351 1.387 . S
C353 C355 1.390 . S
C353 H357 0.950 . S
H354 C350 0.950 . S
C355 C353 1.390 . S
C355 C356 1.387 . S
C355 H358 0.950 . S
C356 C355 1.387 . S
C356 C359 1.387 . S
H357 C353 0.950 . S
H358 C355 0.950 . S
C359 C350 1.390 . S
C359 H352 0.950 . S
C359 C356 1.387 . S
C360 C361 1.387 . S
C360 H364 0.950 . S
C360 C369 1.390 . S
C361 C360 1.387 . S
C361 C363 1.387 . S
H362 C369 0.950 . S
C363 C361 1.387 . S
C363 C365 1.390 . S
C363 H367 0.950 . S
H364 C360 0.950 . S
C365 C363 1.390 . S
C365 C366 1.387 . S
C365 H368 0.950 . S
C366 C365 1.387 . S
C366 C369 1.387 . S
H367 C363 0.950 . S
H368 C365 0.950 . S
C369 C360 1.390 . S
C369 H362 0.950 . S
C369 C366 1.387 . S
C370 C371 1.387 . S
C370 H374 0.950 . S
C370 C379 1.390 . S
C371 C370 1.387 . S
C371 C373 1.387 . S
H372 C379 0.950 . S
C373 C371 1.387 . S
C373 C375 1.390 . S
C373 H377 0.950 . S
H374 C370 0.950 . S
C375 C373 1.390 . S
C375 C376 1.387 . S
C375 H378 0.950 . S
C376 C375 1.387 . S
C376 C379 1.387 . S
H377 C373 0.950 . S
H378 C375 0.950 . S
C379 C370 1.390 . S
C379 H372 0.950 . S
C379 C376 1.387 . S
C380 C381 1.387 . S
C380 H384 0.950 . S
C380 C389 1.390 . S
C381 C380 1.387 . S
C381 C383 1.387 . S
H382 C389 0.950 . S
C383 C381 1.387 . S
C383 C385 1.390 . S
C383 H387 0.950 . S
H384 C380 0.950 . S
C385 C383 1.390 . S
C385 C386 1.387 . S
C385 H388 0.950 . S
C386 C385 1.387 . S
C386 C389 1.387 . S
H387 C383 0.950 . S
H388 C385 0.950 . S
C389 C380 1.390 . S
C389 H382 0.950 . S
C389 C386 1.387 . S
C390 C391 1.387 . S
C390 H394 0.950 . S
C390 C399 1.390 . S
C391 C390 1.387 . S
C391 C393 1.387 . S
H392 C399 0.950 . S
C393 C391 1.387 . S
C393 C395 1.390 . S
C393 H397 0.950 . S
H394 C390 0.950 . S
C395 C393 1.390 . S
C395 C396 1.387 . S
C395 H398 0.950 . S
C396 C395 1.387 . S
C396 C399 1.387 . S
H397 C393 0.950 . S
H398 C395 0.950 . S
C399 C390 1.390 . S
C399 H392 0.950 . S
C399 C396 1.387 . S
C400 C401 1.387 . S
C400 H404 0.950 . S
C400 C409 1.390 . S
C401 C400 1.387 . S
C401 C403 1.387 . S
H402 C409 0.950 1_554 S
C403 C401 1.387 . S
C403 C405 1.390 . S
C403 H407 0.950 . S
H404 C400 0.950 . S
C405 C403 1.390 . S
C405 C406 1.387 . S
C405 H408 0.950 . S
C406 C405 1.387 . S
C406 C409 1.387 . S
H407 C403 0.950 . S
H408 C405 0.950 . S
C409 C400 1.390 . S
C409 H402 0.950 1_556 S
C409 C406 1.387 . S
C410 C411 1.387 . S
C410 H414 0.950 . S
C410 C419 1.390 . S
C411 C410 1.387 . S
C411 C413 1.387 . S
H412 C419 0.950 . S
C413 C411 1.387 . S
C413 C415 1.390 . S
C413 H417 0.950 . S
H414 C410 0.950 . S
C415 C413 1.390 . S
C415 C416 1.387 . S
C415 H418 0.950 . S
C416 C415 1.387 . S
C416 C419 1.387 . S
H417 C413 0.950 . S
H418 C415 0.950 . S
C419 C410 1.390 . S
C419 H412 0.950 . S
C419 C416 1.387 . S
C420 C421 1.387 . S
C420 H424 0.950 . S
C420 C429 1.390 . S
C421 C420 1.387 . S
C421 C423 1.387 . S
H422 C429 0.950 . S
C423 C421 1.387 . S
C423 C425 1.390 . S
C423 H427 0.950 . S
H424 C420 0.950 . S
C425 C423 1.390 . S
C425 C426 1.387 . S
C425 H428 0.950 . S
C426 C425 1.387 . S
C426 C429 1.387 . S
H427 C423 0.950 . S
H428 C425 0.950 . S
C429 C420 1.390 . S
C429 H422 0.950 . S
C429 C426 1.387 . S
C430 C431 1.387 . S
C430 H434 0.950 . S
C430 C439 1.390 . S
C431 C430 1.387 . S
C431 C433 1.387 . S
H432 C439 0.950 . S
C433 C431 1.387 . S
C433 C435 1.390 . S
C433 H437 0.950 . S
H434 C430 0.950 . S
C435 C433 1.390 . S
C435 C436 1.387 . S
C435 H438 0.950 . S
C436 C435 1.387 . S
C436 C439 1.387 . S
H437 C433 0.950 . S
H438 C435 0.950 . S
C439 C430 1.390 . S
C439 H432 0.950 . S
C439 C436 1.387 . S
C440 C441 1.387 . S
C440 H444 0.950 . S
C440 C449 1.390 . S
C441 C440 1.387 . S
C441 C443 1.387 . S
H442 C449 0.950 . S
C443 C441 1.387 . S
C443 C445 1.390 . S
C443 H447 0.950 . S
H444 C440 0.950 . S
C445 C443 1.390 . S
C445 C446 1.387 . S
C445 H448 0.950 . S
C446 C445 1.387 . S
C446 C449 1.387 . S
H447 C443 0.950 . S
H448 C445 0.950 . S
C449 C440 1.390 . S
C449 H442 0.950 . S
C449 C446 1.387 . S
C450 C451 1.387 . S
C450 H454 0.950 . S
C450 C459 1.390 . S
C451 C450 1.387 . S
C451 C453 1.387 . S
H452 C459 0.950 1_556 S
C453 C451 1.387 . S
C453 C455 1.390 . S
C453 H457 0.950 . S
H454 C450 0.950 . S
C455 C453 1.390 . S
C455 C456 1.387 . S
C455 H458 0.950 . S
C456 C455 1.387 . S
C456 C459 1.387 . S
H457 C453 0.950 . S
H458 C455 0.950 . S
C459 C450 1.390 . S
C459 H452 0.950 1_554 S
C459 C456 1.387 . S
C460 C461 1.387 . S
C460 H464 0.950 . S
C460 C469 1.390 . S
C461 C460 1.387 . S
C461 C463 1.387 . S
H462 C469 0.950 . S
C463 C461 1.387 . S
C463 C465 1.390 . S
C463 H467 0.950 . S
H464 C460 0.950 . S
C465 C463 1.390 . S
C465 C466 1.387 . S
C465 H468 0.950 . S
C466 C465 1.387 . S
C466 C469 1.387 . S
H467 C463 0.950 . S
H468 C465 0.950 . S
C469 C460 1.390 . S
C469 H462 0.950 . S
C469 C466 1.387 . S
C470 C471 1.387 . S
C470 H474 0.950 . S
C470 C479 1.390 . S
C471 C470 1.387 . S
C471 C473 1.387 . S
H472 C479 0.950 . S
C473 C471 1.387 . S
C473 C475 1.390 . S
C473 H477 0.950 . S
H474 C470 0.950 . S
C475 C473 1.390 . S
C475 C476 1.387 . S
C475 H478 0.950 . S
C476 C475 1.387 . S
C476 C479 1.387 . S
H477 C473 0.950 . S
H478 C475 0.950 . S
C479 C470 1.390 . S
C479 H472 0.950 . S
C479 C476 1.387 . S
C480 C481 1.387 . S
C480 H484 0.950 . S
C480 C489 1.390 . S
C481 C480 1.387 . S
C481 C483 1.387 . S
H482 C489 0.950 . S
C483 C481 1.387 . S
C483 C485 1.390 . S
C483 H487 0.950 . S
H484 C480 0.950 . S
C485 C483 1.390 . S
C485 C486 1.387 . S
C485 H488 0.950 . S
C486 C485 1.387 . S
C486 C489 1.387 . S
H487 C483 0.950 . S
H488 C485 0.950 . S
C489 C480 1.390 . S
C489 H482 0.950 . S
C489 C486 1.387 . S
C490 C491 1.387 . S
C490 H494 0.950 . S
C490 C499 1.390 . S
C491 C490 1.387 . S
C491 C493 1.387 . S
H492 C499 0.950 . S
C493 C491 1.387 . S
C493 C495 1.390 . S
C493 H497 0.950 . S
H494 C490 0.950 . S
C495 C493 1.390 . S
C495 C496 1.387 . S
C495 H498 0.950 . S
C496 C495 1.387 . S
C496 C499 1.387 . S
H497 C493 0.950 . S
H498 C495 0.950 . S
C499 C490 1.390 . S
C499 H492 0.950 . S
C499 C496 1.387 . S
C500 C501 1.387 . S
C500 H504 0.950 . S
C500 C509 1.390 . S
C501 C500 1.387 . S
C501 C503 1.387 . S
H502 C509 0.950 . S
C503 C501 1.387 . S
C503 C505 1.390 . S
C503 H507 0.950 . S
H504 C500 0.950 . S
C505 C503 1.390 . S
C505 C506 1.387 . S
C505 H508 0.950 . S
C506 C505 1.387 . S
C506 C509 1.387 . S
H507 C503 0.950 . S
H508 C505 0.950 . S
C509 C500 1.390 . S
C509 H502 0.950 . S
C509 C506 1.387 . S
C510 C511 1.387 . S
C510 H514 0.950 . S
C510 C519 1.390 . S
C511 C510 1.387 . S
C511 C513 1.387 . S
H512 C519 0.950 . S
C513 C511 1.387 . S
C513 C515 1.390 . S
C513 H517 0.950 . S
H514 C510 0.950 . S
C515 C513 1.390 . S
C515 C516 1.387 . S
C515 H518 0.950 . S
C516 C515 1.387 . S
C516 C519 1.387 . S
H517 C513 0.950 . S
H518 C515 0.950 . S
C519 C510 1.390 . S
C519 H512 0.950 . S
C519 C516 1.387 . S
C520 C521 1.387 . S
C520 H524 0.950 . S
C520 C529 1.390 . S
C521 C520 1.387 . S
C521 C523 1.387 . S
H522 C529 0.950 . S
C523 C521 1.387 . S
C523 C525 1.390 . S
C523 H527 0.950 . S
H524 C520 0.950 . S
C525 C523 1.390 . S
C525 C526 1.387 . S
C525 H528 0.950 . S
C526 C525 1.387 . S
C526 C529 1.387 . S
H527 C523 0.950 . S
H528 C525 0.950 . S
C529 C520 1.390 . S
C529 H522 0.950 . S
C529 C526 1.387 . S
C530 C531 1.387 . S
C530 H534 0.950 . S
C530 C539 1.390 . S
C531 C530 1.387 . S
C531 C533 1.387 . S
H532 C539 0.950 . S
C533 C531 1.387 . S
C533 C535 1.390 . S
C533 H537 0.950 . S
H534 C530 0.950 . S
C535 C533 1.390 . S
C535 C536 1.387 . S
C535 H538 0.950 . S
C536 C535 1.387 . S
C536 C539 1.387 . S
H537 C533 0.950 . S
H538 C535 0.950 . S
C539 C530 1.390 . S
C539 H532 0.950 . S
C539 C536 1.387 . S
C540 C541 1.387 . S
C540 H544 0.950 . S
C540 C549 1.390 . S
C541 C540 1.387 . S
C541 C543 1.387 . S
H542 C549 0.950 . S
C543 C541 1.387 . S
C543 C545 1.390 . S
C543 H547 0.950 . S
H544 C540 0.950 . S
C545 C543 1.390 . S
C545 C546 1.387 . S
C545 H548 0.950 . S
C546 C545 1.387 . S
C546 C549 1.387 . S
H547 C543 0.950 . S
H548 C545 0.950 . S
C549 C540 1.390 . S
C549 H542 0.950 . S
C549 C546 1.387 . S
C550 C551 1.387 . S
C550 H554 0.950 . S
C550 C559 1.390 . S
C551 C550 1.387 . S
C551 C553 1.387 . S
H552 C559 0.950 . S
C553 C551 1.387 . S
C553 C555 1.390 . S
C553 H557 0.950 . S
H554 C550 0.950 . S
C555 C553 1.390 . S
C555 C556 1.387 . S
C555 H558 0.950 . S
C556 C555 1.387 . S
C556 C559 1.387 . S
H557 C553 0.950 . S
H558 C555 0.950 . S
C559 C550 1.390 . S
C559 H552 0.950 . S
C559 C556 1.387 . S
C560 C561 1.387 . S
C560 H564 0.950 . S
C560 C569 1.390 . S
C561 C560 1.387 . S
C561 C563 1.387 . S
H562 C569 0.950 . S
C563 C561 1.387 . S
C563 C565 1.390 . S
C563 H567 0.950 . S
H564 C560 0.950 . S
C565 C563 1.390 . S
C565 C566 1.387 . S
C565 H568 0.950 . S
C566 C565 1.387 . S
C566 C569 1.387 . S
H567 C563 0.950 . S
H568 C565 0.950 . S
C569 C560 1.390 . S
C569 H562 0.950 . S
C569 C566 1.387 . S
C570 C571 1.387 . S
C570 H574 0.950 . S
C570 C579 1.390 . S
C571 C570 1.387 . S
C571 C573 1.387 . S
H572 C579 0.950 . S
C573 C571 1.387 . S
C573 C575 1.390 . S
C573 H577 0.950 . S
H574 C570 0.950 . S
C575 C573 1.390 . S
C575 C576 1.387 . S
C575 H578 0.950 . S
C576 C575 1.387 . S
C576 C579 1.387 . S
H577 C573 0.950 . S
H578 C575 0.950 . S
C579 C570 1.390 . S
C579 H572 0.950 . S
C579 C576 1.387 . S
C580 C581 1.387 . S
C580 H584 0.950 . S
C580 C589 1.390 . S
C581 C580 1.387 . S
C581 C583 1.387 . S
H582 C589 0.950 . S
C583 C581 1.387 . S
C583 C585 1.390 . S
C583 H587 0.950 . S
H584 C580 0.950 . S
C585 C583 1.390 . S
C585 C586 1.387 . S
C585 H588 0.950 . S
C586 C585 1.387 . S
C586 C589 1.387 . S
H587 C583 0.950 . S
H588 C585 0.950 . S
C589 C580 1.390 . S
C589 H582 0.950 . S
C589 C586 1.387 . S
C590 C591 1.387 . S
C590 H594 0.950 . S
C590 C599 1.390 . S
C591 C590 1.387 . S
C591 C593 1.387 . S
H592 C599 0.950 . S
C593 C591 1.387 . S
C593 C595 1.390 . S
C593 H597 0.950 . S
H594 C590 0.950 . S
C595 C593 1.390 . S
C595 C596 1.387 . S
C595 H598 0.950 . S
C596 C595 1.387 . S
C596 C599 1.387 . S
H597 C593 0.950 . S
H598 C595 0.950 . S
C599 C590 1.390 . S
C599 H592 0.950 . S
C599 C596 1.387 . S
C241 C116 1.744 . S
C246 C19 1.700 1_565 S
C251 C39 1.700 . S
C256 C16 1.744 . S
C261 C59 1.702 1_455 S
C266 C36 1.745 . S
C271 C56 1.743 . S
C276 C79 1.700 1_545 S
C281 C76 1.743 . S
C286 C99 1.699 1_556 S
C291 C119 1.703 1_655 S
C296 C96 1.744 . S
C301 C156 1.744 . S
C306 C139 1.703 1_455 S
C311 C159 1.702 1_545 S
C316 C176 1.745 . S
C321 C196 1.743 . S
C326 C179 1.700 . S
C331 C216 1.744 . S
C336 C199 1.703 1_654 S
C341 C236 1.743 . S
C346 C219 1.700 1_565 S
C351 C136 1.745 . S
C356 C239 1.702 . S
C361 C229 1.414 . S
C366 C6 1.419 . S
C371 C26 1.417 . S
C376 C129 1.415 . S
C381 C149 1.417 . S
C386 C46 1.417 . S
C391 C169 1.414 . S
C396 C66 1.419 . S
C401 C189 1.416 . S
C406 C86 1.419 1_556 S
C411 C106 1.420 . S
C416 C209 1.416 . S
C421 C126 1.417 . S
C426 C29 1.414 . S
C431 C146 1.417 . S
C436 C49 1.417 . S
C441 C69 1.417 . S
C446 C166 1.418 . S
C451 C89 1.416 . S
C456 C186 1.420 1_554 S
C461 C206 1.417 . S
C466 C109 1.417 . S
C471 C226 1.417 . S
C476 C9 1.417 . S
C481 C121 1.768 . S
C486 C1 1.767 . S
C491 C21 1.766 . S
C496 C141 1.768 . S
C501 C161 1.767 . S
C506 C41 1.767 . S
C511 C61 1.766 . S
C516 C181 1.768 . S
C521 C201 1.766 . S
C526 C81 1.768 . S
C531 C221 1.768 . S
C536 C101 1.768 . S
C541 C128 1.774 . S
C546 C8 1.777 . S
C551 C148 1.777 . S
C556 C28 1.774 . S
C561 C168 1.774 . S
C566 C48 1.774 . S
C571 C68 1.774 . S
C576 C188 1.777 . S
C581 C208 1.777 . S
C586 C88 1.774 . S
C591 C228 1.774 . S
C596 C108 1.774 . S
