# Generated by pormake.
# Topology snz, (6)-cn, num edge types: 1
# Building blocks:
#     Node 0, Type 0, BuildingBlock: UKALOJ_clean_sbu_0, # of connection points: 6
#     Node 1, Type 0, BuildingBlock: UKALOJ_clean_sbu_0, # of connection points: 6
#     Node 2, Type 0, BuildingBlock: UKALOJ_clean_sbu_0, # of connection points: 6
#     Node 3, Type 0, BuildingBlock: UKALOJ_clean_sbu_0, # of connection points: 6
#     Node 4, Type 0, BuildingBlock: UKALOJ_clean_sbu_0, # of connection points: 6
#     Node 5, Type 0, BuildingBlock: UKALOJ_clean_sbu_0, # of connection points: 6
#     Node 6, Type 0, BuildingBlock: UKALOJ_clean_sbu_0, # of connection points: 6
#     Node 7, Type 0, BuildingBlock: UKALOJ_clean_sbu_0, # of connection points: 6
#     Node 8, Type 0, BuildingBlock: UKALOJ_clean_sbu_0, # of connection points: 6
#     Edge 9, Type (0, 0), BuildingBlock: XIVTED_clean_linker_0, # of connection points: 2
#     Edge 10, Type (0, 0), BuildingBlock: XIVTED_clean_linker_0, # of connection points: 2
#     Edge 11, Type (0, 0), BuildingBlock: XIVTED_clean_linker_0, # of connection points: 2
#     Edge 12, Type (0, 0), BuildingBlock: XIVTED_clean_linker_0, # of connection points: 2
#     Edge 13, Type (0, 0), BuildingBlock: XIVTED_clean_linker_0, # of connection points: 2
#     Edge 14, Type (0, 0), BuildingBlock: XIVTED_clean_linker_0, # of connection points: 2
#     Edge 15, Type (0, 0), BuildingBlock: XIVTED_clean_linker_0, # of connection points: 2
#     Edge 16, Type (0, 0), BuildingBlock: XIVTED_clean_linker_0, # of connection points: 2
#     Edge 17, Type (0, 0), BuildingBlock: XIVTED_clean_linker_0, # of connection points: 2
#     Edge 18, Type (0, 0), BuildingBlock: XIVTED_clean_linker_0, # of connection points: 2
#     Edge 19, Type (0, 0), BuildingBlock: XIVTED_clean_linker_0, # of connection points: 2
#     Edge 20, Type (0, 0), BuildingBlock: XIVTED_clean_linker_0, # of connection points: 2
#     Edge 21, Type (0, 0), BuildingBlock: XIVTED_clean_linker_0, # of connection points: 2
#     Edge 22, Type (0, 0), BuildingBlock: XIVTED_clean_linker_0, # of connection points: 2
#     Edge 23, Type (0, 0), BuildingBlock: XIVTED_clean_linker_0, # of connection points: 2
#     Edge 24, Type (0, 0), BuildingBlock: XIVTED_clean_linker_0, # of connection points: 2
#     Edge 25, Type (0, 0), BuildingBlock: XIVTED_clean_linker_0, # of connection points: 2
#     Edge 26, Type (0, 0), BuildingBlock: XIVTED_clean_linker_0, # of connection points: 2
#     Edge 27, Type (0, 0), BuildingBlock: XIVTED_clean_linker_0, # of connection points: 2
#     Edge 28, Type (0, 0), BuildingBlock: XIVTED_clean_linker_0, # of connection points: 2
#     Edge 29, Type (0, 0), BuildingBlock: XIVTED_clean_linker_0, # of connection points: 2
#     Edge 30, Type (0, 0), BuildingBlock: XIVTED_clean_linker_0, # of connection points: 2
#     Edge 31, Type (0, 0), BuildingBlock: XIVTED_clean_linker_0, # of connection points: 2
#     Edge 32, Type (0, 0), BuildingBlock: XIVTED_clean_linker_0, # of connection points: 2
#     Edge 33, Type (0, 0), BuildingBlock: XIVTED_clean_linker_0, # of connection points: 2
#     Edge 34, Type (0, 0), BuildingBlock: XIVTED_clean_linker_0, # of connection points: 2
#     Edge 35, Type (0, 0), BuildingBlock: XIVTED_clean_linker_0, # of connection points: 2
# Relax obj value: 0.473
# Max RMSD: 0.299
# Mean RMSD: 0.257
data_MOF--net-snz--node1-UKALOJ_clean_sbu_0--edge1-XIVTED_clean_linker_0
_symmetry_space_group_name_H-M    P1
_symmetry_Int_Tables_number       1
_symmetry_cell_setting            triclinic
loop_
_symmetry_equiv_pos_as_xyz
'x, y, z'
_cell_length_a     50.405546
_cell_length_b     55.268937
_cell_length_c     15.701176
_cell_angle_alpha  90.460262
_cell_angle_beta   90.519776
_cell_angle_gamma 120.44717
loop_
_atom_site_label
_atom_site_type_symbol
_atom_site_fract_x
_atom_site_fract_y
_atom_site_fract_z
_atom_type_partial_charge
Zn0 Zn 0.98596 0.47207 0.1583 0.0
O1 O 0.95707 0.42987 0.11795 0.0
C2 C 0.0352 0.46199 0.2217 0.0
Zn3 Zn 0.01985 0.47978 0.05849 0.0
C4 C 0.96535 0.42127 0.05388 0.0
O5 O 0.9911 0.43752 0.01996 0.0
C6 C 0.04006 0.53093 0.15971 0.0
O7 O -0.00528 0.49041 0.97004 0.0
O8 O 0.96281 0.48388 0.07259 0.0
N9 N 0.0506 0.48334 0.97001 0.0
C10 C 0.05699 0.49657 0.89543 0.0
C11 C 0.06958 0.46547 0.88569 0.0
N12 N 0.05962 0.46471 0.96536 0.0
N13 N 0.06713 0.48465 0.83868 0.0
C14 C 0.94667 0.45375 0.31837 0.0
C15 C 0.93242 0.48374 0.32674 0.0
N16 N 0.95484 0.46825 0.24599 0.0
N17 N 0.94488 0.48621 0.24958 0.0
N18 N 0.93407 0.46403 0.37311 0.0
H19 H 0.95797 0.42236 0.28029 0.0
H20 H 0.93388 0.41367 0.37168 0.0
H21 H 0.97399 0.43958 0.38214 0.0
C22 C 0.95364 0.43105 0.33883 0.0
C23 C 0.05012 0.51934 0.87476 0.0
H24 H 0.02871 0.51054 0.83561 0.0
H25 H 0.06912 0.5358 0.83712 0.0
H26 H 0.0477 0.52925 0.93347 0.0
O27 O 0.04795 0.52189 0.09595 0.0
O28 O 0.01509 0.5146 0.19729 0.0
C29 C 0.97091 0.49033 0.99615 0.0
O30 O 0.0106 0.4608 0.2462 0.0
O31 O 0.04375 0.46888 0.14566 0.0
Zn32 Zn 0.54103 0.52055 0.0832 0.0
O33 O 0.5063 0.51463 0.17438 0.0
C34 C 0.50349 0.46389 1.01107 0.0
Zn35 Zn 0.51128 0.52031 0.9791 0.0
C36 C 0.48057 0.51051 0.14621 0.0
O37 O 0.47679 0.51132 0.06662 0.0
C38 C 0.57104 0.52929 0.91494 0.0
O39 O 0.52744 0.56328 0.99683 0.0
O40 O 0.56001 0.5647 0.09297 0.0
N41 N 0.4816 0.51752 0.8865 0.0
C42 C 0.48764 0.53043 0.81134 0.0
C43 C 0.44201 0.49574 0.8037 0.0
N44 N 0.4528 0.49649 0.88301 0.0
N45 N 0.46362 0.51657 0.75627 0.0
C46 C 0.56464 0.51114 0.25207 0.0
C47 C 0.61084 0.54501 0.25676 0.0
N48 N 0.57069 0.52336 0.17579 0.0
N49 N 0.59977 0.54387 0.17754 0.0
N50 N 0.58913 0.52486 0.30571 0.0
H51 H 0.51768 0.47785 0.22378 0.0
H52 H 0.52277 0.49769 0.32018 0.0
H53 H 0.53512 0.47242 0.31574 0.0
C54 C 0.5332 0.48848 0.27873 0.0
C55 C 0.51877 0.5542 0.78723 0.0
H56 H 0.53358 0.56479 0.84349 0.0
H57 H 0.51616 0.57005 0.75112 0.0
H58 H 0.53031 0.54611 0.74564 0.0
O59 O 0.54682 0.52888 0.88933 0.0
O60 O 0.57432 0.52616 0.99352 0.0
C61 C 0.54931 0.57725 0.04958 0.0
O62 O 0.52241 0.47687 0.0716 0.0
O63 O 0.49517 0.4771 0.96214 0.0
Zn64 Zn 0.48266 0.02483 0.01981 0.0
O65 O 0.46163 0.04926 1.00649 0.0
C66 C 0.42493 0.97671 0.08504 0.0
Zn67 Zn 0.45387 -0.0046 0.91649 0.0
C68 C 0.44022 0.0414 0.95109 0.0
O69 O 0.43248 0.01971 0.90536 0.0
C70 C 0.49543 0.97805 0.98592 0.0
O71 O 0.48839 0.02091 0.82692 0.0
O72 O 0.51559 0.04977 0.93091 0.0
N73 N 0.42652 0.96869 0.82272 0.0
C74 C 0.42271 0.9744 0.74218 0.0
C75 C 0.40574 0.93052 0.74766 0.0
N76 N 0.41524 0.94128 0.82682 0.0
N77 N 0.41008 0.95087 0.69305 0.0
C78 C 0.50488 0.05515 0.19143 0.0
C79 C 0.55123 0.06457 0.19503 0.0
N80 N 0.51171 0.05067 0.11274 0.0
N81 N 0.54095 0.05757 0.11406 0.0
N82 N 0.52878 0.06253 0.24605 0.0
H83 H 0.4584 0.04589 0.16256 0.0
H84 H 0.47513 0.0656 0.25906 0.0
H85 H 0.46256 0.02892 0.25555 0.0
C86 C 0.47333 0.04842 0.21789 0.0
C87 C 0.43606 0.0036 0.70781 0.0
H88 H 0.4432 0.01969 0.75841 0.0
H89 H 0.41876 0.00479 0.66671 0.0
H90 H 0.45634 0.00867 0.66834 0.0
O91 O 0.47497 0.97142 0.9286 0.0
O92 O 0.50318 -0.0006 0.03341 0.0
C93 C 0.51245 0.04311 0.8525 0.0
O94 O 0.44903 -0.00094 0.10932 0.0
O95 O 0.42087 0.96996 1.00651 0.0
Zn96 Zn 0.70387 0.84507 0.11328 0.0
O97 O 0.72924 0.88874 0.13216 0.0
C98 C 0.67984 0.83868 0.29101 0.0
Zn99 Zn 0.65817 0.8423 0.11299 0.0
C100 C 0.71342 0.90064 0.13981 0.0
O101 O 0.68436 0.88624 0.12956 0.0
C102 C 0.64847 0.78627 0.0945 0.0
O103 O 0.65928 0.8462 0.97678 0.0
O104 O 0.70441 0.8495 0.97702 0.0
N105 N 0.6192 0.84509 0.12418 0.0
C106 C 0.60186 0.85023 0.06958 0.0
C107 C 0.58972 0.85538 0.19517 0.0
N108 N 0.61123 0.84798 0.20202 0.0
N109 N 0.58354 0.85728 0.1127 0.0
C110 C 0.76358 0.84424 0.16259 0.0
C111 C 0.76985 0.82619 0.0504 0.0
N112 N 0.74319 0.84292 0.10399 0.0
N113 N 0.74778 0.83239 0.03343 0.0
N114 N 0.78017 0.83325 0.1315 0.0
H115 H 0.75833 0.8698 0.25747 0.0
H116 H 0.78938 0.86345 0.27805 0.0
H117 H 0.7506 0.83548 0.29238 0.0
C118 C 0.7655 0.8539 0.25289 0.0
C119 C 0.60114 0.84606 0.97509 0.0
H120 H 0.60268 0.82716 0.96028 0.0
H121 H 0.62103 0.86463 0.94664 0.0
H122 H 0.57949 0.8431 0.94631 0.0
O123 O 0.63265 0.79828 0.09869 0.0
O124 O 0.6777 0.80097 0.09802 0.0
C125 C 0.68209 0.84858 0.9356 0.0
O126 O 0.70229 0.84037 0.24977 0.0
O127 O 0.65795 0.83839 0.24948 0.0
Zn128 Zn 0.17008 0.84308 0.40901 0.0
O129 O 0.12167 0.81845 0.41676 0.0
C130 C 0.17654 0.82549 0.5863 0.0
Zn131 Zn 0.17443 0.80508 0.40744 0.0
C132 C 0.10936 0.792 0.42156 0.0
O133 O 0.12622 0.78108 0.41817 0.0
C134 C 0.23521 0.856 0.39535 0.0
O135 O 0.17146 0.80455 0.27055 0.0
O136 O 0.16683 0.84185 0.27231 0.0
N137 N 0.17641 0.76913 0.40556 0.0
C138 C 0.16117 0.7458 0.35645 0.0
C139 C 0.187 0.73797 0.44914 0.0
N140 N 0.19254 0.76427 0.46294 0.0
N141 N 0.16766 0.72614 0.38203 0.0
C142 C 0.15497 0.88856 0.46561 0.0
C143 C 0.18143 0.92156 0.3799 0.0
N144 N 0.16795 0.87894 0.41054 0.0
N145 N 0.18403 0.89936 0.35643 0.0
N146 N 0.16287 0.91514 0.44747 0.0
H147 H 0.1276 0.85041 0.53658 0.0
H148 H 0.11785 0.87736 0.55196 0.0
H149 H 0.15231 0.8815 0.59946 0.0
C150 C 0.13703 0.87328 0.5424 0.0
C151 C 0.1382 0.74132 0.28748 0.0
H152 H 0.12912 0.75566 0.2944 0.0
H153 H 0.11863 0.71938 0.28764 0.0
H154 H 0.14954 0.745 0.22486 0.0
O155 O 0.22252 0.82945 0.39788 0.0
O156 O 0.21869 0.86731 0.40065 0.0
C157 C 0.16863 0.82299 0.23009 0.0
O158 O 0.17387 0.84405 0.54593 0.0
O159 O 0.17786 0.8064 0.54402 0.0
Zn160 Zn 0.15075 0.33492 0.5297 0.0
O161 O 0.16473 0.30557 0.53994 0.0
C162 C 0.17291 0.35575 0.70811 0.0
Zn163 Zn 0.19877 0.37093 0.53086 0.0
C164 C 0.19308 0.31427 0.55142 0.0
O165 O 0.21235 0.34047 0.54844 0.0
C166 C 0.15445 0.3905 0.51414 0.0
O167 O 0.2006 0.36772 0.39423 0.0
O168 O 0.15263 0.33361 0.39308 0.0
N169 N 0.24457 0.40141 0.53628 0.0
C170 C 0.26312 0.42046 0.4792 0.0
C171 C 0.29194 0.41897 0.5765 0.0
N172 N 0.26256 0.40077 0.59711 0.0
N173 N 0.2931 0.43149 0.50217 0.0
C174 C 0.08809 0.28212 0.57307 0.0
C175 C 0.06154 0.278 0.46167 0.0
N176 N 0.10621 0.30331 0.52116 0.0
N177 N 0.08971 0.3006 0.45183 0.0
N178 N 0.05998 0.26598 0.53709 0.0
H179 H 0.12298 0.28274 0.6551 0.0
H180 H 0.08443 0.25379 0.67209 0.0
H181 H 0.09513 0.28867 0.70739 0.0
C182 C 0.09832 0.27639 0.65654 0.0
C183 C 0.25159 0.42927 0.40416 0.0
H184 H 0.24854 0.41562 0.34862 0.0
H185 H 0.26824 0.45135 0.38756 0.0
H186 H 0.229 0.42714 0.41781 0.0
O187 O 0.18348 0.40053 0.51496 0.0
O188 O 0.13645 0.36423 0.5209 0.0
C189 C 0.17672 0.35007 0.35228 0.0
O190 O 0.1496 0.33702 0.66642 0.0
O191 O 0.19643 0.37345 0.66721 0.0
Zn192 Zn 0.30829 0.18379 0.86997 0.0
O193 O 0.3082 0.1865 1.00711 0.0
C194 C 0.31959 0.13767 0.88717 0.0
Zn195 Zn 0.2635 0.1437 0.86988 0.0
C196 C 0.28522 0.16793 0.04783 0.0
O197 O 0.26273 0.14839 1.00587 0.0
C198 C 0.28701 0.15993 0.69197 0.0
O199 O 0.23783 0.16405 0.84994 0.0
O200 O 0.28231 0.20334 0.86023 0.0
N201 N 0.224 0.10503 0.87888 0.0
C202 C 0.20475 0.08612 0.82037 0.0
C203 C 0.19574 0.06507 0.93834 0.0
N204 N 0.21772 0.09198 0.95266 0.0
N205 N 0.18708 0.06068 0.85553 0.0
C206 C 0.37043 0.23912 0.913 0.0
C207 C 0.37652 0.26084 0.79673 0.0
N208 N 0.34693 0.22206 0.86027 0.0
N209 N 0.35094 0.23558 0.78802 0.0
N210 N 0.38928 0.26371 0.87459 0.0
H211 H 0.36234 0.23543 0.04662 0.0
H212 H 0.40039 0.24316 0.01793 0.0
H213 H 0.3676 0.20824 1.00058 0.0
C214 C 0.37565 0.23101 0.99953 0.0
C215 C 0.20495 0.09182 0.72729 0.0
H216 H 0.20977 0.11353 0.71781 0.0
H217 H 0.18245 0.07727 0.69655 0.0
H218 H 0.22276 0.08882 0.69614 0.0
O219 O 0.26559 0.13998 0.73317 0.0
O220 O 0.3079 0.18076 0.73363 0.0
C221 C 0.25336 0.19073 0.84846 0.0
O222 O 0.33404 0.16406 0.87766 0.0
O223 O 0.2903 0.12409 0.88838 0.0
Zn224 Zn 0.78864 0.16544 0.66364 0.0
O225 O 0.74187 0.15434 0.66061 0.0
C226 C 0.7822 0.14098 0.83951 0.0
Zn227 Zn 0.77747 0.12104 0.65951 0.0
C228 C 0.72201 0.12826 0.656 0.0
O229 O 0.73087 0.11041 0.65505 0.0
C230 C 0.84396 0.15836 0.66846 0.0
O231 O 0.77809 0.1233 0.52365 0.0
O232 O 0.78954 0.16708 0.52628 0.0
N233 N 0.76421 0.07959 0.64871 0.0
C234 C 0.77288 0.06646 0.59225 0.0
C235 C 0.73267 0.03497 0.65288 0.0
N236 N 0.73946 0.05994 0.68724 0.0
N237 N 0.75347 0.03851 0.5936 0.0
C238 C 0.80379 0.2244 0.72978 0.0
C239 C 0.83618 0.25037 0.63743 0.0
N240 N 0.80406 0.20739 0.66825 0.0
N241 N 0.82393 0.22362 0.61046 0.0
N242 N 0.82424 0.25158 0.71276 0.0
H243 H 0.76016 0.19491 0.78358 0.0
H244 H 0.77636 0.23086 0.82137 0.0
H245 H 0.79206 0.20987 0.85736 0.0
C246 C 0.78171 0.21445 0.80206 0.0
C247 C 0.79801 0.08078 0.52831 0.0
H248 H 0.78779 0.07605 0.46312 0.0
H249 H 0.81376 0.07232 0.5325 0.0
H250 H 0.81173 0.1037 0.538 0.0
O251 O 0.82429 0.13235 0.66457 0.0
O252 O 0.835 0.17606 0.66792 0.0
C253 C 0.78387 0.14526 0.48364 0.0
O254 O 0.78803 0.16315 0.80001 0.0
O255 O 0.77626 0.11909 0.79649 0.0
Zn256 Zn 0.82922 0.61279 0.59036 0.0
O257 O 0.83392 0.6164 0.72738 0.0
C258 C 0.76379 0.59559 0.60393 0.0
Zn259 Zn 0.82353 0.65009 0.59014 0.0
C260 C 0.83076 0.63473 0.76845 0.0
O261 O 0.82618 0.65198 0.72682 0.0
C262 C 0.82195 0.62829 0.41215 0.0
O263 O 0.87118 0.67789 0.58418 0.0
O264 O 0.87704 0.64131 0.57785 0.0
N265 N 0.81612 0.68304 0.59003 0.0
C266 C 0.82607 0.70507 0.53762 0.0
C267 C 0.79363 0.70628 0.62089 0.0
N268 N 0.79628 0.68404 0.64254 0.0
N269 N 0.81245 0.72004 0.55603 0.0
C270 C 0.83731 0.56311 0.64791 0.0
C271 C 0.86684 0.56334 0.55143 0.0
N272 N 0.83928 0.58128 0.58816 0.0
N273 N 0.8573 0.58107 0.52772 0.0
N274 N 0.85496 0.55193 0.62728 0.0
H275 H 0.7958 0.55651 0.70678 0.0
H276 H 0.82848 0.56934 0.77696 0.0
H277 H 0.80904 0.53321 0.74221 0.0
C278 C 0.81635 0.55494 0.72265 0.0
C279 C 0.84643 0.71043 0.46245 0.0
H280 H 0.85819 0.69819 0.46447 0.0
H281 H 0.86412 0.73303 0.4601 0.0
H282 H 0.83233 0.70505 0.4031 0.0
O283 O 0.8204 0.64742 0.45339 0.0
O284 O 0.82479 0.61 0.4536 0.0
C285 C 0.88865 0.66774 0.57666 0.0
O286 O 0.78091 0.58477 0.60331 0.0
O287 O 0.77585 0.62199 0.59673 0.0
H288 H 0.02094 0.43465 0.78278 0.0
H289 H 0.97502 0.51362 0.44565 0.0
H290 H 0.0813 0.51997 0.70599 0.0
H291 H 0.91737 0.42568 0.49892 0.0
H292 H 0.01082 0.51745 0.55621 0.0
H293 H 0.98302 0.43013 0.67781 0.0
C294 C 0.02683 0.45209 0.74093 0.0
C295 C 0.05396 0.47808 0.75452 0.0
C296 C 0.99014 0.49734 0.5448 0.0
C297 C 0.01005 0.47341 0.63727 0.0
C298 C 0.96916 0.49528 0.48328 0.0
C299 C 0.94389 0.46891 0.46065 0.0
C300 C 0.98549 0.47293 0.58451 0.0
C301 C 0.93725 0.44611 0.51258 0.0
C302 C 0.00476 0.44971 0.68261 0.0
C303 C 0.06036 0.49985 0.69848 0.0
N304 N 0.95854 0.44836 0.57061 0.0
N305 N 0.03811 0.49733 0.64361 0.0
H306 H 0.4619 0.47089 0.69005 0.0
H307 H 0.59183 0.57099 0.37144 0.0
H308 H 0.48003 0.5535 0.62716 0.0
H309 H 0.57388 0.48859 0.43601 0.0
H310 H 0.55438 0.56686 0.47531 0.0
H311 H 0.4999 0.47545 0.58768 0.0
C312 C 0.47278 0.48949 0.65125 0.0
C313 C 0.46899 0.51245 0.66949 0.0
C314 C 0.55902 0.54985 0.46831 0.0
C315 C 0.51336 0.51833 0.55552 0.0
C316 C 0.58118 0.55258 0.41104 0.0
C317 C 0.58474 0.52949 0.39284 0.0
C318 C 0.54106 0.52409 0.50845 0.0
C319 C 0.5709 0.50643 0.4468 0.0
C320 C 0.49525 0.49245 0.59484 0.0
C321 C 0.48317 0.53575 0.61645 0.0
N322 N 0.54862 0.50376 0.50031 0.0
N323 N 0.50574 0.53863 0.5637 0.0
H324 H 0.38746 0.96502 0.55832 0.0
H325 H 0.50824 0.07673 0.38546 0.0
H326 H 0.45297 0.94063 0.63115 0.0
H327 H 0.53493 0.01875 0.29215 0.0
H328 H 0.47302 0.04079 0.48426 0.0
H329 H 0.42282 -0.00497 0.44829 0.0
C330 C 0.4085 0.96474 0.54769 0.0
C331 C 0.41816 0.95159 0.60575 0.0
C332 C 0.48704 0.03624 0.44272 0.0
C333 C 0.45856 0.98597 0.48419 0.0
C334 C 0.50768 0.05692 0.38858 0.0
C335 C 0.52339 0.05019 0.32859 0.0
C336 C 0.48318 0.00926 0.43799 0.0
C337 C 0.52258 0.02447 0.33625 0.0
C338 C 0.429 0.98247 0.48718 0.0
C339 C 0.44528 0.95126 0.58875 0.0
N340 N 0.50211 0.00452 0.38875 0.0
N341 N 0.46528 0.96916 0.53099 0.0
H342 H 0.72503 0.8435 0.40211 0.0
H343 H 0.63692 0.84414 0.82517 0.0
H344 H 0.63523 0.83522 0.39848 0.0
H345 H 0.72664 0.85218 0.82776 0.0
H346 H 0.63603 0.8413 0.66952 0.0
H347 H 0.72586 0.84647 0.55743 0.0
C348 C 0.70534 0.84205 0.43367 0.0
C349 C 0.67997 0.83892 0.38629 0.0
C350 C 0.65597 0.84378 0.70405 0.0
C351 C 0.6809 0.84268 0.56573 0.0
C352 C 0.65655 0.84551 0.79326 0.0
C353 C 0.68193 0.8485 0.84036 0.0
C354 C 0.68093 0.84496 0.66091 0.0
C355 C 0.70658 0.84996 0.79463 0.0
C356 C 0.70589 0.84389 0.52279 0.0
C357 C 0.65529 0.83752 0.4318 0.0
N358 N 0.70542 0.84813 0.70787 0.0
N359 N 0.6564 0.83943 0.51858 0.0
H360 H 0.17788 0.78691 0.69326 0.0
H361 H 0.16546 0.86059 0.12268 0.0
H362 H 0.17525 0.86371 0.69718 0.0
H363 H 0.17273 0.78609 0.11989 0.0
H364 H 0.16796 0.86154 0.96701 0.0
H365 H 0.1756 0.78602 0.84897 0.0
C366 C 0.17693 0.80367 0.72669 0.0
C367 C 0.17665 0.82539 0.68143 0.0
C368 C 0.16895 0.84494 1.00037 0.0
C369 C 0.17382 0.82438 0.86068 0.0
C370 C 0.16743 0.84433 0.08948 0.0
C371 C 0.16882 0.82318 0.135 0.0
C372 C 0.17185 0.82424 0.95579 0.0
C373 C 0.17149 0.80277 0.08793 0.0
C374 C 0.17555 0.8031 0.81582 0.0
C375 C 0.17533 0.84645 0.72882 0.0
N376 N 0.17293 0.80382 1.00127 0.0
N377 N 0.1739 0.84538 0.81547 0.0
H378 H 0.22127 0.38878 0.81704 0.0
H379 H 0.12766 0.31875 0.24373 0.0
H380 H 0.12597 0.32291 0.81721 0.0
H381 H 0.22453 0.38051 0.2425 0.0
H382 H 0.12647 0.32032 0.08814 0.0
H383 H 0.22254 0.38699 0.97264 0.0
C384 C 0.20052 0.37403 0.84963 0.0
C385 C 0.17344 0.35595 0.80331 0.0
C386 C 0.14802 0.33353 0.12182 0.0
C387 C 0.17483 0.35367 0.98257 0.0
C388 C 0.14876 0.3326 0.21094 0.0
C389 C 0.17623 0.34968 0.25704 0.0
C390 C 0.17493 0.35173 0.07769 0.0
C391 C 0.20275 0.36719 0.21033 0.0
C392 C 0.20132 0.37294 0.93873 0.0
C393 C 0.14739 0.33721 0.84969 0.0
N394 N 0.20141 0.36781 0.12362 0.0
N395 N 0.14874 0.33656 0.93637 0.0
H396 H 0.24332 0.12122 0.57961 0.0
H397 H 0.32963 0.20583 0.1598 0.0
H398 H 0.33017 0.19916 0.5859 0.0
H399 H 0.24117 0.12951 0.15407 0.0
H400 H 0.33036 0.20364 0.31536 0.0
H401 H 0.24256 0.1234 0.42416 0.0
C402 C 0.26236 0.13869 0.5486 0.0
C403 C 0.28689 0.15996 0.5967 0.0
C404 C 0.31073 0.1874 0.28016 0.0
C405 C 0.28604 0.16276 0.41741 0.0
C406 C 0.31026 0.18869 0.19103 0.0
C407 C 0.28528 0.16788 0.14308 0.0
C408 C 0.28608 0.16507 0.32235 0.0
C409 C 0.26092 0.14611 0.18789 0.0
C410 C 0.26184 0.14 0.45948 0.0
C411 C 0.31077 0.1822 0.552 0.0
N412 N 0.26197 0.14526 0.27457 0.0
N413 N 0.30973 0.18302 0.46532 0.0
H414 H 0.80133 0.18963 0.37527 0.0
H415 H 0.76052 0.09583 0.94697 0.0
H416 H 0.76615 0.10037 0.37476 0.0
H417 H 0.80565 0.18617 0.94979 0.0
H418 H 0.76093 0.09671 0.10326 0.0
H419 H 0.80118 0.1885 0.21921 0.0
C420 C 0.79356 0.16979 0.34249 0.0
C421 C 0.78383 0.14509 0.38864 0.0
C422 C 0.77064 0.11635 0.0696 0.0
C423 C 0.78354 0.1436 0.20928 0.0
C424 C 0.77043 0.11586 0.98023 0.0
C425 C 0.78259 0.14095 0.93459 0.0
C426 C 0.78313 0.14214 0.11406 0.0
C427 C 0.79526 0.16625 0.98163 0.0
C428 C 0.79353 0.16915 0.25322 0.0
C429 C 0.77404 0.12 0.34223 0.0
N430 N 0.79512 0.16619 0.06834 0.0
N431 N 0.77409 0.11989 0.25546 0.0
H432 H 0.83187 0.59447 0.30336 0.0
H433 H 0.81628 0.66575 0.87604 0.0
H434 H 0.81296 0.66236 0.3033 0.0
H435 H 0.84542 0.60463 0.87918 0.0
H436 H 0.81368 0.66406 0.0317 0.0
H437 H 0.83474 0.5965 0.14778 0.0
C438 C 0.82814 0.60972 0.27076 0.0
C439 C 0.82215 0.62827 0.31703 0.0
C440 C 0.82064 0.65099 0.99836 0.0
C441 C 0.82557 0.63081 0.13793 0.0
C442 C 0.82222 0.652 0.90924 0.0
C443 C 0.83079 0.63508 0.86367 0.0
C444 C 0.8276 0.63287 0.0429 0.0
C445 C 0.83819 0.6177 0.91085 0.0
C446 C 0.82992 0.61095 0.18172 0.0
C447 C 0.81768 0.64765 0.27074 0.0
N448 N 0.83632 0.61698 0.99746 0.0
N449 N 0.81947 0.64839 0.1841 0.0
H450 H 0.09932 0.38174 0.56774 0.0
H451 H 0.02504 0.44642 0.39001 0.0
H452 H 0.17744 0.43795 0.41777 0.0
H453 H 0.08955 0.46462 0.18729 0.0
H454 H 0.05655 0.43515 0.48209 0.0
H455 H 0.07109 0.4033 0.51246 0.0
C456 C 0.11083 0.39925 0.5249 0.0
C457 C 0.1407 0.40804 0.49697 0.0
C458 C 0.06364 0.44132 0.4172 0.0
C459 C 0.10845 0.43294 0.43292 0.0
C460 C 0.04566 0.44785 0.36464 0.0
C461 C 0.05421 0.45583 0.28009 0.0
C462 C 0.0903 0.4427 0.38474 0.0
C463 C 0.08169 0.45807 0.25149 0.0
C464 C 0.09472 0.41171 0.49361 0.0
C465 C 0.15451 0.43068 0.4412 0.0
N466 N 0.09863 0.4514 0.30351 0.0
N467 N 0.13799 0.44196 0.40947 0.0
H468 H 0.5265 0.60922 0.98662 0.0
H469 H 0.67487 0.75436 0.1197 0.0
H470 H 0.6025 0.61496 0.1329 0.0
H471 H 0.588 0.74795 0.05566 0.0
H472 H 0.65008 0.7034 0.11117 0.0
H473 H 0.54994 0.66023 0.99883 0.0
C474 C 0.54807 0.6212 0.02146 0.0
C475 C 0.56262 0.60785 0.05877 0.0
C476 C 0.63641 0.71312 0.09918 0.0
C477 C 0.58956 0.66608 0.07217 0.0
C478 C 0.65056 0.74223 0.10358 0.0
C479 C 0.63344 0.75542 0.08828 0.0
C480 C 0.60497 0.69702 0.07829 0.0
C481 C 0.602 0.7386 0.06809 0.0
C482 C 0.56135 0.65026 0.02854 0.0
C483 C 0.59048 0.62437 0.10328 0.0
N484 N 0.58877 0.71021 0.06322 0.0
N485 N 0.60316 0.65266 0.10824 0.0
H486 H 0.41116 0.99242 0.23652 0.0
H487 H 0.2729 0.83825 0.33249 0.0
H488 H 0.38537 0.92036 0.0738 0.0
H489 H 0.27218 0.91314 0.40897 0.0
H490 H 0.32385 0.86761 0.27203 0.0
H491 H 0.36935 0.96253 0.3326 0.0
C492 C 0.39707 0.97026 0.22183 0.0
C493 C 0.40154 0.95882 0.14697 0.0
C494 C 0.31269 0.87754 0.30341 0.0
C495 C 0.35404 0.92472 0.25619 0.0
C496 C 0.28373 0.86085 0.33835 0.0
C497 C 0.26811 0.8733 0.37464 0.0
C498 C 0.32624 0.90683 0.30577 0.0
C499 C 0.28328 0.90271 0.3805 0.0
C500 C 0.37318 0.9533 0.27634 0.0
C501 C 0.38241 0.93003 0.13038 0.0
N502 N 0.31148 0.91854 0.34564 0.0
N503 N 0.35942 0.91394 0.18452 0.0
H504 H 0.42138 0.05346 0.80312 0.0
H505 H 0.30713 0.09426 0.99229 0.0
H506 H 0.42125 0.06342 0.07587 0.0
H507 H 0.37122 0.14813 0.80399 0.0
H508 H 0.33789 0.07135 1.01024 0.0
H509 H 0.39196 0.07763 0.7874 0.0
C510 C 0.41513 0.06077 0.85949 0.0
C511 C 0.42377 0.05675 0.94082 0.0
C512 C 0.34501 0.08817 0.96506 0.0
C513 C 0.38965 0.08322 0.92338 0.0
C514 C 0.32751 0.10104 0.95442 0.0
C515 C 0.33686 0.12302 0.89675 0.0
C516 C 0.37124 0.09683 0.91554 0.0
C517 C 0.36348 0.1313 0.84936 0.0
C518 C 0.39851 0.07449 0.85046 0.0
C519 C 0.41518 0.06647 1.01214 0.0
N520 N 0.37963 0.11792 0.85898 0.0
N521 N 0.39811 0.07898 1.0019 0.0
H522 H 0.8492 0.30531 0.66497 0.0
H523 H 0.91497 0.37516 0.12042 0.0
H524 H 0.83301 0.25389 0.88563 0.0
H525 H 0.9652 0.40735 0.8876 0.0
H526 H 0.87612 0.33332 0.0406 0.0
H527 H 0.88241 0.34697 0.75267 0.0
C528 C 0.85187 0.30285 0.7323 0.0
C529 C 0.8378 0.27603 0.76793 0.0
C530 C 0.89579 0.34959 1.00759 0.0
C531 C 0.87584 0.32344 0.86829 0.0
C532 C 0.91794 0.3733 0.0529 0.0
C533 C 0.94345 0.39457 1.01067 0.0
C534 C 0.89884 0.34771 0.91939 0.0
C535 C 0.94611 0.3913 0.92296 0.0
C536 C 0.87096 0.32653 0.782 0.0
C537 C 0.84234 0.274 0.85558 0.0
N538 N 0.92391 0.36847 0.8801 0.0
N539 N 0.86107 0.29742 0.90279 0.0
H540 H 0.71848 0.60695 0.56417 0.0
H541 H 0.61514 0.51536 0.93893 0.0
H542 H 0.73439 0.54679 0.69356 0.0
H543 H 0.58241 0.55217 0.75492 0.0
H544 H 0.6578 0.52514 0.84584 0.0
H545 H 0.66723 0.58533 0.62578 0.0
C546 C 0.7109 0.58878 0.60415 0.0
C547 C 0.73079 0.57878 0.62446 0.0
C548 C 0.64111 0.53078 0.82517 0.0
C549 C 0.67249 0.55441 0.69683 0.0
C550 C 0.61684 0.52539 0.8786 0.0
C551 C 0.5954 0.5333 0.85513 0.0
C552 C 0.64439 0.5447 0.74821 0.0
C553 C 0.59852 0.54587 0.77568 0.0
C554 C 0.68164 0.57647 0.63935 0.0
C555 C 0.71979 0.55516 0.67629 0.0
N556 N 0.62288 0.55161 0.72559 0.0
N557 N 0.69159 0.54413 0.71215 0.0
H558 H 0.87435 0.51666 0.57609 0.0
H559 H 0.92854 0.50399 0.04428 0.0
H560 H 0.86582 0.5583 0.79868 0.0
H561 H 0.97053 0.49273 0.82046 0.0
H562 H 0.8972 0.51543 0.95364 0.0
H563 H 0.90193 0.49946 0.66384 0.0
C564 C 0.8775 0.52154 0.64366 0.0
C565 C 0.86669 0.53816 0.68038 0.0
C566 C 0.91326 0.51048 0.9242 0.0
C567 C 0.89832 0.5189 0.78042 0.0
C568 C 0.93118 0.5039 0.97589 0.0
C569 C 0.95239 0.4976 0.93991 0.0
C570 C 0.91622 0.51054 0.83551 0.0
C571 C 0.95471 0.49779 0.85079 0.0
C572 C 0.89339 0.51192 0.69334 0.0
C573 C 0.87205 0.54443 0.76786 0.0
N574 N 0.93674 0.50412 0.80136 0.0
N575 N 0.88738 0.53476 0.81466 0.0
H576 H 0.48731 0.4362 0.8591 0.0
H577 H 0.39383 0.2863 0.03279 0.0
H578 H 0.49358 0.42374 0.12783 0.0
H579 H 0.43909 0.30167 0.79093 0.0
H580 H 0.42861 0.33536 0.0737 0.0
H581 H 0.46658 0.38608 0.83356 0.0
C582 C 0.48432 0.42284 0.91266 0.0
C583 C 0.49188 0.4339 0.99566 0.0
C584 C 0.4315 0.32772 1.01277 0.0
C585 C 0.46808 0.37675 0.9671 0.0
C586 C 0.41189 0.29961 0.98972 0.0
C587 C 0.41379 0.28985 0.90846 0.0
C588 C 0.45236 0.34615 0.95315 0.0
C589 C 0.43689 0.30848 0.85396 0.0
C590 C 0.47282 0.39437 0.89802 0.0
C591 C 0.48793 0.41585 0.0629 0.0
N592 N 0.45486 0.3359 0.87649 0.0
N593 N 0.47571 0.38791 0.04739 0.0
H594 H 0.67482 0.07645 0.60924 0.0
H595 H 0.52271 0.02774 0.69477 0.0
H596 H 0.6935 0.15717 0.70421 0.0
H597 H 0.56144 0.09567 0.87977 0.0
H598 H 0.57133 0.05102 0.61786 0.0
H599 H 0.62011 0.05796 0.62951 0.0
C600 C 0.6673 0.09044 0.63284 0.0
C601 C 0.68875 0.11829 0.65615 0.0
C602 C 0.56914 0.06085 0.67515 0.0
C603 C 0.62592 0.09736 0.67847 0.0
C604 C 0.54127 0.04774 0.71846 0.0
C605 C 0.53842 0.05941 0.79509 0.0
C606 C 0.59415 0.08567 0.70918 0.0
C607 C 0.56296 0.08558 0.82211 0.0
C608 C 0.63593 0.07994 0.64339 0.0
C609 C 0.67774 0.13553 0.68586 0.0
N610 N 0.58993 0.09764 0.77983 0.0
N611 N 0.64709 0.1246 0.69793 0.0
H612 H 0.5084 0.94982 0.86607 0.0
H613 H 0.53503 0.85564 0.18904 0.0
H614 H 0.51174 0.96503 0.13697 0.0
H615 H 0.59576 0.89166 0.97611 0.0
H616 H 0.51261 0.88492 0.15597 0.0
H617 H 0.52804 0.91779 0.89139 0.0
C618 C 0.51332 0.9464 0.93073 0.0
C619 C 0.50875 0.96011 0.99965 0.0
C620 C 0.5304 0.88579 0.11569 0.0
C621 C 0.5299 0.92309 0.02867 0.0
C622 C 0.54304 0.86905 0.13401 0.0
C623 C 0.56678 0.87053 0.08406 0.0
C624 C 0.54122 0.90377 0.04606 0.0
C625 C 0.57665 0.88867 1.01418 0.0
C626 C 0.52443 0.92822 0.94494 0.0
C627 C 0.51533 0.95502 0.08225 0.0
N628 N 0.5637 0.90452 0.99699 0.0
N629 N 0.52526 0.93659 0.09468 0.0
H630 H 0.13709 0.68008 0.47746 0.0
H631 H 0.08855 0.57424 0.07925 0.0
H632 H 0.16573 0.70758 0.22152 0.0
H633 H 0.03813 0.5532 0.31407 0.0
H634 H 0.12281 0.62167 0.13567 0.0
H635 H 0.10711 0.63139 0.4244 0.0
C636 C 0.13736 0.67565 0.41027 0.0
C637 C 0.1535 0.69754 0.35334 0.0
C638 C 0.10423 0.60664 0.17472 0.0
C639 C 0.11946 0.64247 0.29222 0.0
C640 C 0.08468 0.5796 0.14264 0.0
C641 C 0.06037 0.55983 0.19192 0.0
C642 C 0.09967 0.61381 0.25702 0.0
C643 C 0.05644 0.56788 0.27367 0.0
C644 C 0.12013 0.64806 0.37991 0.0
C645 C 0.1532 0.69108 0.2668 0.0
N646 N 0.07597 0.59426 0.30381 0.0
N647 N 0.13631 0.66407 0.23863 0.0
H648 H 0.42305 0.49825 0.09913 0.0
H649 H 0.35058 0.46756 0.56305 0.0
H650 H 0.47794 0.50652 0.32237 0.0
H651 H 0.29947 0.42995 0.33032 0.0
H652 H 0.39833 0.49045 0.48041 0.0
H653 H 0.37845 0.48285 0.18837 0.0
C654 C 0.42585 0.49699 0.16714 0.0
C655 C 0.45433 0.50338 0.20302 0.0
C656 C 0.37646 0.47759 0.44771 0.0
C657 C 0.40286 0.48561 0.30605 0.0
C658 C 0.34927 0.46466 0.49454 0.0
C659 C 0.32067 0.44761 0.4534 0.0
C660 C 0.37494 0.47351 0.35908 0.0
C661 C 0.3204 0.44401 0.36476 0.0
C662 C 0.40024 0.4881 0.21807 0.0
C663 C 0.45637 0.50153 0.29189 0.0
N664 N 0.34701 0.4569 0.32084 0.0
N665 N 0.43086 0.49267 0.34057 0.0
H666 H 0.85704 0.77226 0.51277 0.0
H667 H 0.75125 0.77743 0.14184 0.0
H668 H 0.76165 0.71006 0.47114 0.0
H669 H 0.82989 0.85335 0.23831 0.0
H670 H 0.76101 0.75053 0.24681 0.0
H671 H 0.85254 0.80144 0.40175 0.0
C672 C 0.83514 0.76504 0.48065 0.0
C673 C 0.8096 0.73899 0.5004 0.0
C674 C 0.77637 0.77304 0.24479 0.0
C675 C 0.80445 0.7714 0.37377 0.0
C676 C 0.77107 0.78828 0.18415 0.0
C677 C 0.78985 0.81752 0.18187 0.0
C678 C 0.80068 0.78712 0.30377 0.0
C679 C 0.81493 0.83079 0.23881 0.0
C680 C 0.83259 0.78152 0.41763 0.0
C681 C 0.78167 0.73021 0.45774 0.0
N682 N 0.81961 0.81546 0.29824 0.0
N683 N 0.77989 0.74627 0.39583 0.0
H684 H 0.21351 0.02936 0.86503 0.0
H685 H 0.11661 0.925 0.48117 0.0
H686 H 0.13878 0.03333 0.74439 0.0
H687 H 0.20973 0.94927 0.54988 0.0
H688 H 0.11764 0.9576 0.59196 0.0
H689 H 0.20415 0.99079 0.76931 0.0
C690 C 0.1946 0.02153 0.81943 0.0
C691 C 0.17703 0.03452 0.81164 0.0
C692 C 0.13782 0.9558 0.58234 0.0
C693 C 0.1667 0.99104 0.70031 0.0
C694 C 0.13725 0.93746 0.51935 0.0
C695 C 0.16332 0.93512 0.50662 0.0
C696 C 0.16444 0.97117 0.63326 0.0
C697 C 0.18947 0.95105 0.5577 0.0
C698 C 0.18951 -0.00018 0.76414 0.0
C699 C 0.15296 0.0239 0.75119 0.0
N700 N 0.18935 0.96834 0.61905 0.0
N701 N 0.14864 0.00286 0.69674 0.0
H702 H 0.88844 0.20491 0.74959 0.0
H703 H 0.01875 0.21718 0.46126 0.0
H704 H 0.87447 0.13505 0.59178 0.0
H705 H 0.03772 0.26584 0.69282 0.0
H706 H 0.96679 0.18451 0.51198 0.0
H707 H 0.94393 0.22574 0.73604 0.0
C708 C 0.89719 0.19381 0.71298 0.0
C709 C 0.87707 0.16849 0.67081 0.0
C710 C 0.98262 0.20186 0.55281 0.0
C711 C 0.94036 0.19235 0.65367 0.0
C712 C 0.01212 0.22044 0.52381 0.0
C713 C 0.03235 0.24398 0.57331 0.0
C714 C 0.97319 0.20746 0.6307 0.0
C715 C 0.02289 0.24765 0.65354 0.0
C716 C 0.92883 0.2056 0.70562 0.0
C717 C 0.8894 0.15472 0.62489 0.0
N718 N -0.00626 0.22986 0.67916 0.0
N719 N 0.92039 0.16717 0.61584 0.0
H720 H 0.19797 0.17213 0.76513 0.0
H721 H 0.24982 0.327 0.61132 0.0
H722 H 0.27859 0.24727 0.85962 0.0
H723 H 0.15763 0.25726 0.56802 0.0
H724 H 0.26227 0.29608 0.68974 0.0
H725 H 0.18269 0.20154 0.68694 0.0
C726 C 0.21204 0.19476 0.77111 0.0
C727 C 0.2397 0.20729 0.8184 0.0
C728 C 0.23935 0.28749 0.66268 0.0
C729 C 0.22294 0.24081 0.72751 0.0
C730 C 0.23235 0.30507 0.61694 0.0
C731 C 0.20261 0.29475 0.58339 0.0
C732 C 0.21652 0.25934 0.67468 0.0
C733 C 0.18086 0.26612 0.59306 0.0
C734 C 0.2035 0.2115 0.72575 0.0
C735 C 0.25722 0.2367 0.82329 0.0
N736 N 0.1882 0.24941 0.63828 0.0
N737 N 0.24874 0.25242 0.77758 0.0
H738 H 0.76844 0.93 0.22653 0.0
H739 H 0.70436 0.01279 0.48898 0.0
H740 H 0.68783 0.93369 0.15312 0.0
H741 H 0.79272 0.02157 0.54274 0.0
H742 H 0.69898 0.98444 0.36257 0.0
H743 H 0.78081 0.9666 0.33402 0.0
C744 C 0.7539 0.93915 0.23095 0.0
C745 C 0.72676 0.92845 0.18172 0.0
C746 C 0.71961 0.99251 0.40176 0.0
C747 C 0.74028 0.96962 0.30607 0.0
C748 C 0.72238 0.00828 0.47439 0.0
C749 C 0.74883 0.01913 0.526 0.0
C750 C 0.74341 0.9874 0.38096 0.0
C751 C 0.77199 0.01339 0.50405 0.0
C752 C 0.76078 0.9598 0.29314 0.0
C753 C 0.70874 0.94103 0.19054 0.0
N754 N 0.76872 -0.00223 0.43312 0.0
N755 N 0.71551 0.96056 0.25269 0.0
H756 H 0.93213 0.65274 0.55396 0.0
H757 H 0.06709 0.8084 0.44977 0.0
H758 H 0.92023 0.72482 0.55805 0.0
H759 H 0.07622 0.73492 0.43269 0.0
H760 H 0.01331 0.77843 0.48986 0.0
H761 H 0.98555 0.68305 0.51327 0.0
C762 C 0.94082 0.67499 0.54697 0.0
C763 C 0.92168 0.68626 0.55945 0.0
C764 C 0.02707 0.76888 0.47694 0.0
C765 C 0.98279 0.72108 0.51197 0.0
C766 C 0.05772 0.78595 0.45366 0.0
C767 C 0.07617 0.77414 0.43801 0.0
C768 C 0.01488 0.73984 0.48479 0.0
C769 C 0.06287 0.74495 0.44439 0.0
C770 C 0.9713 0.69228 0.52332 0.0
C771 C 0.93419 0.71525 0.54926 0.0
N772 N 0.03309 0.72884 0.4676 0.0
N773 N 0.96396 0.73166 0.52587 0.0
loop_
_geom_bond_atom_site_label_1
_geom_bond_atom_site_label_2
_geom_bond_distance
_geom_bond_site_symmetry_2
_ccdc_geom_bond_type
Zn0 O1 2.055 1_455 S
Zn0 O8 2.046 1_455 S
Zn0 N16 2.036 . S
Zn0 O28 2.053 . S
Zn0 O30 2.066 . S
O1 Zn0 2.055 1_655 S
O1 C4 1.259 . S
C2 O30 1.256 . S
C2 O31 1.244 . S
Zn3 O5 2.046 . S
Zn3 O7 2.055 . S
Zn3 N9 2.036 . S
Zn3 O27 2.066 . S
Zn3 O31 2.053 1_556 S
C4 O1 1.259 . S
C4 O5 1.254 1_654 S
O5 Zn3 2.046 . S
O5 C4 1.254 1_456 S
C6 O27 1.256 1_554 S
C6 O28 1.244 . S
O7 Zn3 2.055 . S
O7 C29 1.259 1_456 S
O8 Zn0 2.046 1_655 S
O8 C29 1.254 . S
N9 Zn3 2.036 . S
N9 C10 1.298 . S
N9 N12 1.398 . S
C10 N9 1.298 . S
C10 N13 1.367 . S
C10 C23 1.481 . S
C11 N12 1.299 . S
C11 N13 1.379 . S
N12 N9 1.398 . S
N12 C11 1.299 . S
N13 C10 1.367 . S
N13 C11 1.379 . S
C14 N16 1.298 . S
C14 N18 1.367 . S
C14 C22 1.481 1_455 S
C15 N17 1.299 . S
C15 N18 1.379 . S
N16 Zn0 2.036 . S
N16 C14 1.298 . S
N16 N17 1.398 . S
N17 C15 1.299 . S
N17 N16 1.398 . S
N18 C14 1.367 . S
N18 C15 1.379 . S
H19 C22 0.980 . S
H20 C22 0.981 . S
H21 C22 0.981 1_455 S
C22 C14 1.481 1_655 S
C22 H19 0.980 . S
C22 H20 0.981 . S
C22 H21 0.981 1_655 S
C23 C10 1.481 . S
C23 H24 0.980 . S
C23 H25 0.981 . S
C23 H26 0.981 . S
H24 C23 0.980 . S
H25 C23 0.981 . S
H26 C23 0.981 . S
O27 Zn3 2.066 . S
O27 C6 1.256 1_556 S
O28 Zn0 2.053 . S
O28 C6 1.244 . S
C29 O7 1.259 1_654 S
C29 O8 1.254 . S
O30 Zn0 2.066 . S
O30 C2 1.256 . S
O31 C2 1.244 . S
O31 Zn3 2.053 1_554 S
Zn32 O33 2.055 . S
Zn32 O40 2.046 . S
Zn32 N48 2.036 . S
Zn32 O60 2.053 . S
Zn32 O62 2.066 . S
O33 Zn32 2.055 . S
O33 C36 1.259 . S
C34 O62 1.256 . S
C34 O63 1.244 1_554 S
Zn35 O37 2.046 . S
Zn35 O39 2.055 . S
Zn35 N41 2.036 . S
Zn35 O59 2.066 . S
Zn35 O63 2.053 . S
C36 O33 1.259 . S
C36 O37 1.254 1_554 S
O37 Zn35 2.046 . S
O37 C36 1.254 1_556 S
C38 O59 1.256 . S
C38 O60 1.244 1_556 S
O39 Zn35 2.055 . S
O39 C61 1.259 1_556 S
O40 Zn32 2.046 . S
O40 C61 1.254 . S
N41 Zn35 2.036 . S
N41 C42 1.298 . S
N41 N44 1.398 . S
C42 N41 1.298 . S
C42 N45 1.367 . S
C42 C55 1.481 . S
C43 N44 1.299 . S
C43 N45 1.379 . S
N44 N41 1.398 . S
N44 C43 1.299 . S
N45 C42 1.367 . S
N45 C43 1.379 . S
C46 N48 1.298 . S
C46 N50 1.367 . S
C46 C54 1.481 . S
C47 N49 1.299 . S
C47 N50 1.379 . S
N48 Zn32 2.036 . S
N48 C46 1.298 . S
N48 N49 1.398 . S
N49 C47 1.299 . S
N49 N48 1.398 . S
N50 C46 1.367 . S
N50 C47 1.379 . S
H51 C54 0.980 . S
H52 C54 0.981 . S
H53 C54 0.981 . S
C54 C46 1.481 . S
C54 H51 0.980 . S
C54 H52 0.981 . S
C54 H53 0.981 . S
C55 C42 1.481 . S
C55 H56 0.980 . S
C55 H57 0.981 . S
C55 H58 0.981 . S
H56 C55 0.980 . S
H57 C55 0.981 . S
H58 C55 0.981 . S
O59 Zn35 2.066 . S
O59 C38 1.256 . S
O60 Zn32 2.053 . S
O60 C38 1.244 1_554 S
C61 O39 1.259 1_554 S
C61 O40 1.254 . S
O62 Zn32 2.066 . S
O62 C34 1.256 . S
O63 C34 1.244 1_556 S
O63 Zn35 2.053 . S
Zn64 O65 2.055 . S
Zn64 O72 2.046 . S
Zn64 N80 2.036 . S
Zn64 O92 2.053 1_545 S
Zn64 O94 2.066 1_545 S
O65 Zn64 2.055 . S
O65 C68 1.259 1_554 S
C66 O94 1.256 . S
C66 O95 1.244 1_554 S
Zn67 O69 2.046 . S
Zn67 O71 2.055 . S
Zn67 N73 2.036 1_545 S
Zn67 O91 2.066 1_545 S
Zn67 O95 2.053 1_545 S
C68 O65 1.259 1_556 S
C68 O69 1.254 . S
O69 Zn67 2.046 . S
O69 C68 1.254 . S
C70 O91 1.256 1_554 S
C70 O92 1.244 . S
O71 Zn67 2.055 . S
O71 C93 1.259 . S
O72 Zn64 2.046 . S
O72 C93 1.254 1_554 S
N73 Zn67 2.036 1_565 S
N73 C74 1.298 . S
N73 N76 1.398 . S
C74 N73 1.298 . S
C74 N77 1.367 . S
C74 C87 1.481 1_565 S
C75 N76 1.299 . S
C75 N77 1.379 . S
N76 N73 1.398 . S
N76 C75 1.299 . S
N77 C74 1.367 . S
N77 C75 1.379 . S
C78 N80 1.298 . S
C78 N82 1.367 . S
C78 C86 1.481 . S
C79 N81 1.299 . S
C79 N82 1.379 . S
N80 Zn64 2.036 . S
N80 C78 1.298 . S
N80 N81 1.398 . S
N81 C79 1.299 . S
N81 N80 1.398 . S
N82 C78 1.367 . S
N82 C79 1.379 . S
H83 C86 0.980 . S
H84 C86 0.981 . S
H85 C86 0.981 . S
C86 C78 1.481 . S
C86 H83 0.980 . S
C86 H84 0.981 . S
C86 H85 0.981 . S
C87 C74 1.481 1_545 S
C87 H88 0.980 . S
C87 H89 0.981 . S
C87 H90 0.981 1_545 S
H88 C87 0.980 . S
H89 C87 0.981 . S
H90 C87 0.981 1_565 S
O91 Zn67 2.066 1_565 S
O91 C70 1.256 1_556 S
O92 Zn64 2.053 1_565 S
O92 C70 1.244 . S
C93 O71 1.259 . S
C93 O72 1.254 1_556 S
O94 Zn64 2.066 1_565 S
O94 C66 1.256 . S
O95 C66 1.244 1_556 S
O95 Zn67 2.053 1_565 S
Zn96 O97 2.055 . S
Zn96 O104 2.046 . S
Zn96 N112 2.036 . S
Zn96 O124 2.053 . S
Zn96 O126 2.066 . S
O97 Zn96 2.055 . S
O97 C100 1.259 . S
C98 O126 1.256 . S
C98 O127 1.244 . S
Zn99 O101 2.046 . S
Zn99 O103 2.055 . S
Zn99 N105 2.036 . S
Zn99 O123 2.066 . S
Zn99 O127 2.053 . S
C100 O97 1.259 . S
C100 O101 1.254 . S
O101 Zn99 2.046 . S
O101 C100 1.254 . S
C102 O123 1.256 . S
C102 O124 1.244 . S
O103 Zn99 2.055 . S
O103 C125 1.259 . S
O104 Zn96 2.046 . S
O104 C125 1.254 . S
N105 Zn99 2.036 . S
N105 C106 1.298 . S
N105 N108 1.398 . S
C106 N105 1.298 . S
C106 N109 1.367 . S
C106 C119 1.481 . S
C107 N108 1.299 . S
C107 N109 1.379 . S
N108 N105 1.398 . S
N108 C107 1.299 . S
N109 C106 1.367 . S
N109 C107 1.379 . S
C110 N112 1.298 . S
C110 N114 1.367 . S
C110 C118 1.481 . S
C111 N113 1.299 . S
C111 N114 1.379 . S
N112 Zn96 2.036 . S
N112 C110 1.298 . S
N112 N113 1.398 . S
N113 C111 1.299 . S
N113 N112 1.398 . S
N114 C110 1.367 . S
N114 C111 1.379 . S
H115 C118 0.980 . S
H116 C118 0.981 . S
H117 C118 0.981 . S
C118 C110 1.481 . S
C118 H115 0.980 . S
C118 H116 0.981 . S
C118 H117 0.981 . S
C119 C106 1.481 . S
C119 H120 0.980 . S
C119 H121 0.981 1_554 S
C119 H122 0.981 . S
H120 C119 0.980 . S
H121 C119 0.981 1_556 S
H122 C119 0.981 . S
O123 Zn99 2.066 . S
O123 C102 1.256 . S
O124 Zn96 2.053 . S
O124 C102 1.244 . S
C125 O103 1.259 . S
C125 O104 1.254 . S
O126 Zn96 2.066 . S
O126 C98 1.256 . S
O127 C98 1.244 . S
O127 Zn99 2.053 . S
Zn128 O129 2.055 . S
Zn128 O136 2.046 . S
Zn128 N144 2.036 . S
Zn128 O156 2.053 . S
Zn128 O158 2.066 . S
O129 Zn128 2.055 . S
O129 C132 1.259 . S
C130 O158 1.256 . S
C130 O159 1.244 . S
Zn131 O133 2.046 . S
Zn131 O135 2.055 . S
Zn131 N137 2.036 . S
Zn131 O155 2.066 . S
Zn131 O159 2.053 . S
C132 O129 1.259 . S
C132 O133 1.254 . S
O133 Zn131 2.046 . S
O133 C132 1.254 . S
C134 O155 1.256 . S
C134 O156 1.244 . S
O135 Zn131 2.055 . S
O135 C157 1.259 . S
O136 Zn128 2.046 . S
O136 C157 1.254 . S
N137 Zn131 2.036 . S
N137 C138 1.298 . S
N137 N140 1.398 . S
C138 N137 1.298 . S
C138 N141 1.367 . S
C138 C151 1.481 . S
C139 N140 1.299 . S
C139 N141 1.379 . S
N140 N137 1.398 . S
N140 C139 1.299 . S
N141 C138 1.367 . S
N141 C139 1.379 . S
C142 N144 1.298 . S
C142 N146 1.367 . S
C142 C150 1.481 . S
C143 N145 1.299 . S
C143 N146 1.379 . S
N144 Zn128 2.036 . S
N144 C142 1.298 . S
N144 N145 1.398 . S
N145 C143 1.299 . S
N145 N144 1.398 . S
N146 C142 1.367 . S
N146 C143 1.379 . S
H147 C150 0.980 . S
H148 C150 0.981 . S
H149 C150 0.981 . S
C150 C142 1.481 . S
C150 H147 0.980 . S
C150 H148 0.981 . S
C150 H149 0.981 . S
C151 C138 1.481 . S
C151 H152 0.980 . S
C151 H153 0.981 . S
C151 H154 0.981 . S
H152 C151 0.980 . S
H153 C151 0.981 . S
H154 C151 0.981 . S
O155 Zn131 2.066 . S
O155 C134 1.256 . S
O156 Zn128 2.053 . S
O156 C134 1.244 . S
C157 O135 1.259 . S
C157 O136 1.254 . S
O158 Zn128 2.066 . S
O158 C130 1.256 . S
O159 C130 1.244 . S
O159 Zn131 2.053 . S
Zn160 O161 2.055 . S
Zn160 O168 2.046 . S
Zn160 N176 2.036 . S
Zn160 O188 2.053 . S
Zn160 O190 2.066 . S
O161 Zn160 2.055 . S
O161 C164 1.259 . S
C162 O190 1.256 . S
C162 O191 1.244 . S
Zn163 O165 2.046 . S
Zn163 O167 2.055 . S
Zn163 N169 2.036 . S
Zn163 O187 2.066 . S
Zn163 O191 2.053 . S
C164 O161 1.259 . S
C164 O165 1.254 . S
O165 Zn163 2.046 . S
O165 C164 1.254 . S
C166 O187 1.256 . S
C166 O188 1.244 . S
O167 Zn163 2.055 . S
O167 C189 1.259 . S
O168 Zn160 2.046 . S
O168 C189 1.254 . S
N169 Zn163 2.036 . S
N169 C170 1.298 . S
N169 N172 1.398 . S
C170 N169 1.298 . S
C170 N173 1.367 . S
C170 C183 1.481 . S
C171 N172 1.299 . S
C171 N173 1.379 . S
N172 N169 1.398 . S
N172 C171 1.299 . S
N173 C170 1.367 . S
N173 C171 1.379 . S
C174 N176 1.298 . S
C174 N178 1.367 . S
C174 C182 1.481 . S
C175 N177 1.299 . S
C175 N178 1.379 . S
N176 Zn160 2.036 . S
N176 C174 1.298 . S
N176 N177 1.398 . S
N177 C175 1.299 . S
N177 N176 1.398 . S
N178 C174 1.367 . S
N178 C175 1.379 . S
H179 C182 0.980 . S
H180 C182 0.981 . S
H181 C182 0.981 . S
C182 C174 1.481 . S
C182 H179 0.980 . S
C182 H180 0.981 . S
C182 H181 0.981 . S
C183 C170 1.481 . S
C183 H184 0.980 . S
C183 H185 0.981 . S
C183 H186 0.981 . S
H184 C183 0.980 . S
H185 C183 0.981 . S
H186 C183 0.981 . S
O187 Zn163 2.066 . S
O187 C166 1.256 . S
O188 Zn160 2.053 . S
O188 C166 1.244 . S
C189 O167 1.259 . S
C189 O168 1.254 . S
O190 Zn160 2.066 . S
O190 C162 1.256 . S
O191 C162 1.244 . S
O191 Zn163 2.053 . S
Zn192 O193 2.055 . S
Zn192 O200 2.046 . S
Zn192 N208 2.036 . S
Zn192 O220 2.053 . S
Zn192 O222 2.066 . S
O193 Zn192 2.055 . S
O193 C196 1.259 . S
C194 O222 1.256 . S
C194 O223 1.244 . S
Zn195 O197 2.046 . S
Zn195 O199 2.055 . S
Zn195 N201 2.036 . S
Zn195 O219 2.066 . S
Zn195 O223 2.053 . S
C196 O193 1.259 . S
C196 O197 1.254 . S
O197 Zn195 2.046 . S
O197 C196 1.254 . S
C198 O219 1.256 . S
C198 O220 1.244 . S
O199 Zn195 2.055 . S
O199 C221 1.259 . S
O200 Zn192 2.046 . S
O200 C221 1.254 . S
N201 Zn195 2.036 . S
N201 C202 1.298 . S
N201 N204 1.398 . S
C202 N201 1.298 . S
C202 N205 1.367 . S
C202 C215 1.481 . S
C203 N204 1.299 . S
C203 N205 1.379 . S
N204 N201 1.398 . S
N204 C203 1.299 . S
N205 C202 1.367 . S
N205 C203 1.379 . S
C206 N208 1.298 . S
C206 N210 1.367 . S
C206 C214 1.481 . S
C207 N209 1.299 . S
C207 N210 1.379 . S
N208 Zn192 2.036 . S
N208 C206 1.298 . S
N208 N209 1.398 . S
N209 C207 1.299 . S
N209 N208 1.398 . S
N210 C206 1.367 . S
N210 C207 1.379 . S
H211 C214 0.980 . S
H212 C214 0.981 1_554 S
H213 C214 0.981 . S
C214 C206 1.481 . S
C214 H211 0.980 . S
C214 H212 0.981 1_556 S
C214 H213 0.981 . S
C215 C202 1.481 . S
C215 H216 0.980 . S
C215 H217 0.981 . S
C215 H218 0.981 . S
H216 C215 0.980 . S
H217 C215 0.981 . S
H218 C215 0.981 . S
O219 Zn195 2.066 . S
O219 C198 1.256 . S
O220 Zn192 2.053 . S
O220 C198 1.244 . S
C221 O199 1.259 . S
C221 O200 1.254 . S
O222 Zn192 2.066 . S
O222 C194 1.256 . S
O223 C194 1.244 . S
O223 Zn195 2.053 . S
Zn224 O225 2.055 . S
Zn224 O232 2.046 . S
Zn224 N240 2.036 . S
Zn224 O252 2.053 . S
Zn224 O254 2.066 . S
O225 Zn224 2.055 . S
O225 C228 1.259 . S
C226 O254 1.256 . S
C226 O255 1.244 . S
Zn227 O229 2.046 . S
Zn227 O231 2.055 . S
Zn227 N233 2.036 . S
Zn227 O251 2.066 . S
Zn227 O255 2.053 . S
C228 O225 1.259 . S
C228 O229 1.254 . S
O229 Zn227 2.046 . S
O229 C228 1.254 . S
C230 O251 1.256 . S
C230 O252 1.244 . S
O231 Zn227 2.055 . S
O231 C253 1.259 . S
O232 Zn224 2.046 . S
O232 C253 1.254 . S
N233 Zn227 2.036 . S
N233 C234 1.298 . S
N233 N236 1.398 . S
C234 N233 1.298 . S
C234 N237 1.367 . S
C234 C247 1.481 . S
C235 N236 1.299 . S
C235 N237 1.379 . S
N236 N233 1.398 . S
N236 C235 1.299 . S
N237 C234 1.367 . S
N237 C235 1.379 . S
C238 N240 1.298 . S
C238 N242 1.367 . S
C238 C246 1.481 . S
C239 N241 1.299 . S
C239 N242 1.379 . S
N240 Zn224 2.036 . S
N240 C238 1.298 . S
N240 N241 1.398 . S
N241 C239 1.299 . S
N241 N240 1.398 . S
N242 C238 1.367 . S
N242 C239 1.379 . S
H243 C246 0.980 . S
H244 C246 0.981 . S
H245 C246 0.981 . S
C246 C238 1.481 . S
C246 H243 0.980 . S
C246 H244 0.981 . S
C246 H245 0.981 . S
C247 C234 1.481 . S
C247 H248 0.980 . S
C247 H249 0.981 . S
C247 H250 0.981 . S
H248 C247 0.980 . S
H249 C247 0.981 . S
H250 C247 0.981 . S
O251 Zn227 2.066 . S
O251 C230 1.256 . S
O252 Zn224 2.053 . S
O252 C230 1.244 . S
C253 O231 1.259 . S
C253 O232 1.254 . S
O254 Zn224 2.066 . S
O254 C226 1.256 . S
O255 C226 1.244 . S
O255 Zn227 2.053 . S
Zn256 O257 2.055 . S
Zn256 O264 2.046 . S
Zn256 N272 2.036 . S
Zn256 O284 2.053 . S
Zn256 O286 2.066 . S
O257 Zn256 2.055 . S
O257 C260 1.259 . S
C258 O286 1.256 . S
C258 O287 1.244 . S
Zn259 O261 2.046 . S
Zn259 O263 2.055 . S
Zn259 N265 2.036 . S
Zn259 O283 2.066 . S
Zn259 O287 2.053 . S
C260 O257 1.259 . S
C260 O261 1.254 . S
O261 Zn259 2.046 . S
O261 C260 1.254 . S
C262 O283 1.256 . S
C262 O284 1.244 . S
O263 Zn259 2.055 . S
O263 C285 1.259 . S
O264 Zn256 2.046 . S
O264 C285 1.254 . S
N265 Zn259 2.036 . S
N265 C266 1.298 . S
N265 N268 1.398 . S
C266 N265 1.298 . S
C266 N269 1.367 . S
C266 C279 1.481 . S
C267 N268 1.299 . S
C267 N269 1.379 . S
N268 N265 1.398 . S
N268 C267 1.299 . S
N269 C266 1.367 . S
N269 C267 1.379 . S
C270 N272 1.298 . S
C270 N274 1.367 . S
C270 C278 1.481 . S
C271 N273 1.299 . S
C271 N274 1.379 . S
N272 Zn256 2.036 . S
N272 C270 1.298 . S
N272 N273 1.398 . S
N273 C271 1.299 . S
N273 N272 1.398 . S
N274 C270 1.367 . S
N274 C271 1.379 . S
H275 C278 0.980 . S
H276 C278 0.981 . S
H277 C278 0.981 . S
C278 C270 1.481 . S
C278 H275 0.980 . S
C278 H276 0.981 . S
C278 H277 0.981 . S
C279 C266 1.481 . S
C279 H280 0.980 . S
C279 H281 0.981 . S
C279 H282 0.981 . S
H280 C279 0.980 . S
H281 C279 0.981 . S
H282 C279 0.981 . S
O283 Zn259 2.066 . S
O283 C262 1.256 . S
O284 Zn256 2.053 . S
O284 C262 1.244 . S
C285 O263 1.259 . S
C285 O264 1.254 . S
O286 Zn256 2.066 . S
O286 C258 1.256 . S
O287 C258 1.244 . S
O287 Zn259 2.053 . S
H288 C294 0.930 . S
H289 C298 0.930 . S
H290 C303 0.929 . S
H291 C301 0.929 . S
H292 C296 0.929 1_655 S
H293 C302 0.929 . S
C294 H288 0.930 . S
C294 C295 1.367 . S
C294 C302 1.378 . S
C295 C294 1.367 . S
C295 C303 1.433 . S
C296 H292 0.929 1_455 S
C296 C298 1.378 1_455 S
C296 C300 1.350 . S
C297 C300 1.463 . S
C297 C302 1.350 . S
C297 N305 1.427 . S
C298 H289 0.930 . S
C298 C296 1.378 1_655 S
C298 C299 1.367 . S
C299 C298 1.367 . S
C299 C301 1.433 1_655 S
C300 C296 1.350 . S
C300 C297 1.463 . S
C300 N304 1.427 . S
C301 H291 0.929 . S
C301 C299 1.433 1_455 S
C301 N304 1.384 . S
C302 H293 0.929 . S
C302 C294 1.378 . S
C302 C297 1.350 . S
C303 H290 0.929 . S
C303 C295 1.433 . S
C303 N305 1.384 . S
N304 C300 1.427 . S
N304 C301 1.384 . S
N305 C297 1.427 . S
N305 C303 1.384 . S
H306 C312 0.930 . S
H307 C316 0.930 . S
H308 C321 0.929 . S
H309 C319 0.929 . S
H310 C314 0.929 . S
H311 C320 0.929 . S
C312 H306 0.930 . S
C312 C313 1.367 . S
C312 C320 1.378 . S
C313 C312 1.367 . S
C313 C321 1.433 . S
C314 H310 0.929 . S
C314 C316 1.378 . S
C314 C318 1.350 . S
C315 C318 1.463 . S
C315 C320 1.350 . S
C315 N323 1.427 . S
C316 H307 0.930 . S
C316 C314 1.378 . S
C316 C317 1.367 . S
C317 C316 1.367 . S
C317 C319 1.433 . S
C318 C314 1.350 . S
C318 C315 1.463 . S
C318 N322 1.427 . S
C319 H309 0.929 . S
C319 C317 1.433 . S
C319 N322 1.384 . S
C320 H311 0.929 . S
C320 C312 1.378 . S
C320 C315 1.350 . S
C321 H308 0.929 . S
C321 C313 1.433 . S
C321 N323 1.384 . S
N322 C318 1.427 . S
N322 C319 1.384 . S
N323 C315 1.427 . S
N323 C321 1.384 . S
H324 C330 0.930 . S
H325 C334 0.930 . S
H326 C339 0.927 1_545 S
H327 C337 0.929 . S
H328 C332 0.929 . S
H329 C338 0.929 . S
C330 H324 0.930 . S
C330 C331 1.367 . S
C330 C338 1.378 . S
C331 C330 1.367 . S
C331 C339 1.433 . S
C332 H328 0.929 . S
C332 C334 1.378 . S
C332 C336 1.350 . S
C333 C336 1.463 1_565 S
C333 C338 1.350 . S
C333 N341 1.427 1_565 S
C334 H325 0.930 . S
C334 C332 1.378 . S
C334 C335 1.367 . S
C335 C334 1.367 . S
C335 C337 1.433 . S
C336 C332 1.350 . S
C336 C333 1.463 1_545 S
C336 N340 1.427 1_545 S
C337 H327 0.929 . S
C337 C335 1.433 . S
C337 N340 1.384 1_545 S
C338 H329 0.929 . S
C338 C330 1.378 . S
C338 C333 1.350 . S
C339 H326 0.927 1_565 S
C339 C331 1.433 . S
C339 N341 1.384 1_565 S
N340 C336 1.427 1_565 S
N340 C337 1.384 1_565 S
N341 C333 1.427 1_545 S
N341 C339 1.384 1_545 S
H342 C348 0.930 . S
H343 C352 0.930 . S
H344 C357 0.929 . S
H345 C355 0.929 . S
H346 C350 0.929 . S
H347 C356 0.929 . S
C348 H342 0.930 . S
C348 C349 1.367 . S
C348 C356 1.378 . S
C349 C348 1.367 . S
C349 C357 1.433 . S
C350 H346 0.929 . S
C350 C352 1.378 . S
C350 C354 1.350 . S
C351 C354 1.463 . S
C351 C356 1.350 . S
C351 N359 1.427 . S
C352 H343 0.930 . S
C352 C350 1.378 . S
C352 C353 1.367 . S
C353 C352 1.367 . S
C353 C355 1.433 . S
C354 C350 1.350 . S
C354 C351 1.463 . S
C354 N358 1.427 . S
C355 H345 0.929 . S
C355 C353 1.433 . S
C355 N358 1.384 . S
C356 H347 0.929 . S
C356 C348 1.378 . S
C356 C351 1.350 . S
C357 H344 0.929 . S
C357 C349 1.433 . S
C357 N359 1.384 . S
N358 C354 1.427 . S
N358 C355 1.384 . S
N359 C351 1.427 . S
N359 C357 1.384 . S
H360 C366 0.930 . S
H361 C370 0.930 . S
H362 C375 0.929 . S
H363 C373 0.929 . S
H364 C368 0.929 . S
H365 C374 0.929 . S
C366 H360 0.930 . S
C366 C367 1.367 . S
C366 C374 1.378 . S
C367 C366 1.367 . S
C367 C375 1.433 . S
C368 H364 0.929 . S
C368 C370 1.378 . S
C368 C372 1.350 . S
C369 C372 1.463 . S
C369 C374 1.350 . S
C369 N377 1.427 . S
C370 H361 0.930 . S
C370 C368 1.378 . S
C370 C371 1.367 . S
C371 C370 1.367 . S
C371 C373 1.433 . S
C372 C368 1.350 . S
C372 C369 1.463 . S
C372 N376 1.427 . S
C373 H363 0.929 . S
C373 C371 1.433 . S
C373 N376 1.384 . S
C374 H365 0.929 . S
C374 C366 1.378 . S
C374 C369 1.350 . S
C375 H362 0.929 . S
C375 C367 1.433 . S
C375 N377 1.384 . S
N376 C372 1.427 . S
N376 C373 1.384 . S
N377 C369 1.427 . S
N377 C375 1.384 . S
H378 C384 0.930 . S
H379 C388 0.930 . S
H380 C393 0.929 . S
H381 C391 0.929 . S
H382 C386 0.929 . S
H383 C392 0.929 . S
C384 H378 0.930 . S
C384 C385 1.367 . S
C384 C392 1.378 . S
C385 C384 1.367 . S
C385 C393 1.433 . S
C386 H382 0.929 . S
C386 C388 1.378 1_556 S
C386 C390 1.350 . S
C387 C390 1.463 . S
C387 C392 1.350 . S
C387 N395 1.427 . S
C388 H379 0.930 . S
C388 C386 1.378 1_554 S
C388 C389 1.367 . S
C389 C388 1.367 . S
C389 C391 1.433 . S
C390 C386 1.350 . S
C390 C387 1.463 . S
C390 N394 1.427 . S
C391 H381 0.929 . S
C391 C389 1.433 . S
C391 N394 1.384 1_554 S
C392 H383 0.929 . S
C392 C384 1.378 . S
C392 C387 1.350 . S
C393 H380 0.929 . S
C393 C385 1.433 . S
C393 N395 1.384 . S
N394 C390 1.427 . S
N394 C391 1.384 1_556 S
N395 C387 1.427 . S
N395 C393 1.384 . S
H396 C402 0.930 . S
H397 C406 0.930 . S
H398 C411 0.929 . S
H399 C409 0.929 . S
H400 C404 0.929 . S
H401 C410 0.929 . S
C402 H396 0.930 . S
C402 C403 1.367 . S
C402 C410 1.378 . S
C403 C402 1.367 . S
C403 C411 1.433 . S
C404 H400 0.929 . S
C404 C406 1.378 . S
C404 C408 1.350 . S
C405 C408 1.463 . S
C405 C410 1.350 . S
C405 N413 1.427 . S
C406 H397 0.930 . S
C406 C404 1.378 . S
C406 C407 1.367 . S
C407 C406 1.367 . S
C407 C409 1.433 . S
C408 C404 1.350 . S
C408 C405 1.463 . S
C408 N412 1.427 . S
C409 H399 0.929 . S
C409 C407 1.433 . S
C409 N412 1.384 . S
C410 H401 0.929 . S
C410 C402 1.378 . S
C410 C405 1.350 . S
C411 H398 0.929 . S
C411 C403 1.433 . S
C411 N413 1.384 . S
N412 C408 1.427 . S
N412 C409 1.384 . S
N413 C405 1.427 . S
N413 C411 1.384 . S
H414 C420 0.930 . S
H415 C424 0.930 . S
H416 C429 0.929 . S
H417 C427 0.929 . S
H418 C422 0.929 . S
H419 C428 0.929 . S
C420 H414 0.930 . S
C420 C421 1.367 . S
C420 C428 1.378 . S
C421 C420 1.367 . S
C421 C429 1.433 . S
C422 H418 0.929 . S
C422 C424 1.378 . S
C422 C426 1.350 . S
C423 C426 1.463 . S
C423 C428 1.350 . S
C423 N431 1.427 . S
C424 H415 0.930 . S
C424 C422 1.378 . S
C424 C425 1.367 . S
C425 C424 1.367 . S
C425 C427 1.433 . S
C426 C422 1.350 . S
C426 C423 1.463 . S
C426 N430 1.427 . S
C427 H417 0.929 . S
C427 C425 1.433 . S
C427 N430 1.384 . S
C428 H419 0.929 . S
C428 C420 1.378 . S
C428 C423 1.350 . S
C429 H416 0.929 . S
C429 C421 1.433 . S
C429 N431 1.384 . S
N430 C426 1.427 . S
N430 C427 1.384 . S
N431 C423 1.427 . S
N431 C429 1.384 . S
H432 C438 0.930 . S
H433 C442 0.930 . S
H434 C447 0.929 . S
H435 C445 0.929 1_556 S
H436 C440 0.929 . S
H437 C446 0.929 . S
C438 H432 0.930 . S
C438 C439 1.367 . S
C438 C446 1.378 . S
C439 C438 1.367 . S
C439 C447 1.433 . S
C440 H436 0.929 . S
C440 C442 1.378 . S
C440 C444 1.350 . S
C441 C444 1.463 . S
C441 C446 1.350 . S
C441 N449 1.427 . S
C442 H433 0.930 . S
C442 C440 1.378 . S
C442 C443 1.361 1_554 S
C443 C442 1.361 1_556 S
C443 C445 1.430 1_556 S
C444 C440 1.350 . S
C444 C441 1.463 . S
C444 N448 1.427 . S
C445 H435 0.929 1_554 S
C445 C443 1.430 1_554 S
C445 N448 1.384 . S
C446 H437 0.929 . S
C446 C438 1.378 . S
C446 C441 1.350 . S
C447 H434 0.929 . S
C447 C439 1.433 . S
C447 N449 1.384 . S
N448 C444 1.427 . S
N448 C445 1.384 . S
N449 C441 1.427 . S
N449 C447 1.384 . S
H450 C456 0.930 . S
H451 C460 0.930 . S
H452 C465 0.929 . S
H453 C463 0.929 . S
H454 C458 0.929 . S
H455 C464 0.929 . S
C456 H450 0.930 . S
C456 C457 1.367 . S
C456 C464 1.378 . S
C457 C456 1.367 . S
C457 C465 1.433 . S
C458 H454 0.929 . S
C458 C460 1.378 . S
C458 C462 1.350 . S
C459 C462 1.463 . S
C459 C464 1.350 . S
C459 N467 1.427 . S
C460 H451 0.930 . S
C460 C458 1.378 . S
C460 C461 1.367 . S
C461 C460 1.367 . S
C461 C463 1.433 . S
C462 C458 1.350 . S
C462 C459 1.463 . S
C462 N466 1.427 . S
C463 H453 0.929 . S
C463 C461 1.433 . S
C463 N466 1.384 . S
C464 H455 0.929 . S
C464 C456 1.378 . S
C464 C459 1.350 . S
C465 H452 0.929 . S
C465 C457 1.433 . S
C465 N467 1.384 . S
N466 C462 1.427 . S
N466 C463 1.384 . S
N467 C459 1.427 . S
N467 C465 1.384 . S
H468 C474 0.924 1_556 S
H469 C478 0.930 . S
H470 C483 0.929 . S
H471 C481 0.929 . S
H472 C476 0.929 . S
H473 C482 0.929 1_556 S
C474 H468 0.924 1_554 S
C474 C475 1.371 . S
C474 C482 1.380 . S
C475 C474 1.371 . S
C475 C483 1.433 . S
C476 H472 0.929 . S
C476 C478 1.378 . S
C476 C480 1.350 . S
C477 C480 1.463 . S
C477 C482 1.350 . S
C477 N485 1.427 . S
C478 H469 0.930 . S
C478 C476 1.378 . S
C478 C479 1.367 . S
C479 C478 1.367 . S
C479 C481 1.433 . S
C480 C476 1.350 . S
C480 C477 1.463 . S
C480 N484 1.427 . S
C481 H471 0.929 . S
C481 C479 1.433 . S
C481 N484 1.384 . S
C482 H473 0.929 1_554 S
C482 C474 1.380 . S
C482 C477 1.350 . S
C483 H470 0.929 . S
C483 C475 1.433 . S
C483 N485 1.384 . S
N484 C480 1.427 . S
N484 C481 1.384 . S
N485 C477 1.427 . S
N485 C483 1.384 . S
H486 C492 0.930 . S
H487 C496 0.930 . S
H488 C501 0.929 1_556 S
H489 C499 0.929 . S
H490 C494 0.929 . S
H491 C500 0.929 . S
C492 H486 0.930 . S
C492 C493 1.367 . S
C492 C500 1.378 . S
C493 C492 1.367 . S
C493 C501 1.433 . S
C494 H490 0.929 . S
C494 C496 1.378 . S
C494 C498 1.350 . S
C495 C498 1.463 . S
C495 C500 1.350 . S
C495 N503 1.427 . S
C496 H487 0.930 . S
C496 C494 1.378 . S
C496 C497 1.367 . S
C497 C496 1.367 . S
C497 C499 1.433 . S
C498 C494 1.350 . S
C498 C495 1.463 . S
C498 N502 1.427 . S
C499 H489 0.929 . S
C499 C497 1.433 . S
C499 N502 1.384 . S
C500 H491 0.929 . S
C500 C492 1.378 . S
C500 C495 1.350 . S
C501 H488 0.929 1_554 S
C501 C493 1.433 . S
C501 N503 1.384 . S
N502 C498 1.427 . S
N502 C499 1.384 . S
N503 C495 1.427 . S
N503 C501 1.384 . S
H504 C510 0.930 . S
H505 C514 0.930 . S
H506 C519 0.929 . S
H507 C517 0.929 . S
H508 C512 0.929 . S
H509 C518 0.929 . S
C510 H504 0.930 . S
C510 C511 1.367 . S
C510 C518 1.378 . S
C511 C510 1.367 . S
C511 C519 1.433 1_556 S
C512 H508 0.929 . S
C512 C514 1.378 . S
C512 C516 1.350 . S
C513 C516 1.463 . S
C513 C518 1.350 . S
C513 N521 1.427 . S
C514 H505 0.930 . S
C514 C512 1.378 . S
C514 C515 1.367 . S
C515 C514 1.367 . S
C515 C517 1.433 . S
C516 C512 1.350 . S
C516 C513 1.463 . S
C516 N520 1.427 . S
C517 H507 0.929 . S
C517 C515 1.433 . S
C517 N520 1.384 . S
C518 H509 0.929 . S
C518 C510 1.378 . S
C518 C513 1.350 . S
C519 H506 0.929 . S
C519 C511 1.433 1_554 S
C519 N521 1.384 1_554 S
N520 C516 1.427 . S
N520 C517 1.384 . S
N521 C513 1.427 . S
N521 C519 1.384 1_556 S
H522 C528 0.930 . S
H523 C532 0.930 . S
H524 C537 0.929 1_554 S
H525 C535 0.929 . S
H526 C530 0.929 . S
H527 C536 0.929 . S
C528 H522 0.930 . S
C528 C529 1.367 . S
C528 C536 1.378 . S
C529 C528 1.367 . S
C529 C537 1.433 . S
C530 H526 0.929 . S
C530 C532 1.378 . S
C530 C534 1.350 1_554 S
C531 C534 1.463 . S
C531 C536 1.350 . S
C531 N539 1.427 . S
C532 H523 0.930 . S
C532 C530 1.378 . S
C532 C533 1.367 . S
C533 C532 1.367 . S
C533 C535 1.433 1_554 S
C534 C530 1.350 1_556 S
C534 C531 1.463 . S
C534 N538 1.427 . S
C535 H525 0.929 . S
C535 C533 1.433 1_556 S
C535 N538 1.384 . S
C536 H527 0.929 . S
C536 C528 1.378 . S
C536 C531 1.350 . S
C537 H524 0.929 1_556 S
C537 C529 1.433 . S
C537 N539 1.384 . S
N538 C534 1.427 . S
N538 C535 1.384 . S
N539 C531 1.427 . S
N539 C537 1.384 . S
H540 C546 0.930 . S
H541 C550 0.930 . S
H542 C555 0.929 . S
H543 C553 0.929 . S
H544 C548 0.929 . S
H545 C554 0.929 . S
C546 H540 0.930 . S
C546 C547 1.367 . S
C546 C554 1.378 . S
C547 C546 1.367 . S
C547 C555 1.433 . S
C548 H544 0.929 . S
C548 C550 1.378 . S
C548 C552 1.350 . S
C549 C552 1.463 . S
C549 C554 1.350 . S
C549 N557 1.427 . S
C550 H541 0.930 . S
C550 C548 1.378 . S
C550 C551 1.367 . S
C551 C550 1.367 . S
C551 C553 1.433 . S
C552 C548 1.350 . S
C552 C549 1.463 . S
C552 N556 1.427 . S
C553 H543 0.929 . S
C553 C551 1.433 . S
C553 N556 1.384 . S
C554 H545 0.929 . S
C554 C546 1.378 . S
C554 C549 1.350 . S
C555 H542 0.929 . S
C555 C547 1.433 . S
C555 N557 1.384 . S
N556 C552 1.427 . S
N556 C553 1.384 . S
N557 C549 1.427 . S
N557 C555 1.384 . S
H558 C564 0.930 . S
H559 C568 0.930 . S
H560 C573 0.929 . S
H561 C571 0.929 . S
H562 C566 0.929 . S
H563 C572 0.929 . S
C564 H558 0.930 . S
C564 C565 1.367 . S
C564 C572 1.378 . S
C565 C564 1.367 . S
C565 C573 1.433 . S
C566 H562 0.929 . S
C566 C568 1.378 . S
C566 C570 1.350 1_554 S
C567 C570 1.463 . S
C567 C572 1.350 . S
C567 N575 1.427 . S
C568 H559 0.930 . S
C568 C566 1.378 . S
C568 C569 1.367 1_554 S
C569 C568 1.367 1_556 S
C569 C571 1.433 . S
C570 C566 1.350 1_556 S
C570 C567 1.463 . S
C570 N574 1.427 . S
C571 H561 0.929 . S
C571 C569 1.433 . S
C571 N574 1.384 . S
C572 H563 0.929 . S
C572 C564 1.378 . S
C572 C567 1.350 . S
C573 H560 0.929 . S
C573 C565 1.433 . S
C573 N575 1.384 . S
N574 C570 1.427 . S
N574 C571 1.384 . S
N575 C567 1.427 . S
N575 C573 1.384 . S
H576 C582 0.930 . S
H577 C586 0.930 . S
H578 C591 0.929 . S
H579 C589 0.929 . S
H580 C584 0.929 1_554 S
H581 C590 0.929 . S
C582 H576 0.930 . S
C582 C583 1.367 . S
C582 C590 1.378 . S
C583 C582 1.367 . S
C583 C591 1.433 1_556 S
C584 H580 0.929 1_556 S
C584 C586 1.378 . S
C584 C588 1.350 . S
C585 C588 1.463 . S
C585 C590 1.350 . S
C585 N593 1.427 1_556 S
C586 H577 0.930 . S
C586 C584 1.378 . S
C586 C587 1.367 . S
C587 C586 1.367 . S
C587 C589 1.433 . S
C588 C584 1.350 . S
C588 C585 1.463 . S
C588 N592 1.427 . S
C589 H579 0.929 . S
C589 C587 1.433 . S
C589 N592 1.384 . S
C590 H581 0.929 . S
C590 C582 1.378 . S
C590 C585 1.350 . S
C591 H578 0.929 . S
C591 C583 1.433 1_554 S
C591 N593 1.384 . S
N592 C588 1.427 . S
N592 C589 1.384 . S
N593 C585 1.427 1_554 S
N593 C591 1.384 . S
H594 C600 0.930 . S
H595 C604 0.930 . S
H596 C609 0.929 . S
H597 C607 0.929 1_554 S
H598 C602 0.929 . S
H599 C608 0.929 . S
C600 H594 0.930 . S
C600 C601 1.367 . S
C600 C608 1.378 . S
C601 C600 1.367 . S
C601 C609 1.433 . S
C602 H598 0.929 . S
C602 C604 1.378 . S
C602 C606 1.350 . S
C603 C606 1.463 . S
C603 C608 1.350 . S
C603 N611 1.427 . S
C604 H595 0.930 . S
C604 C602 1.378 . S
C604 C605 1.367 . S
C605 C604 1.367 . S
C605 C607 1.433 . S
C606 C602 1.350 . S
C606 C603 1.463 . S
C606 N610 1.427 . S
C607 H597 0.929 1_556 S
C607 C605 1.433 . S
C607 N610 1.384 . S
C608 H599 0.929 . S
C608 C600 1.378 . S
C608 C603 1.350 . S
C609 H596 0.929 . S
C609 C601 1.433 . S
C609 N611 1.384 . S
N610 C606 1.427 . S
N610 C607 1.384 . S
N611 C603 1.427 . S
N611 C609 1.384 . S
H612 C618 0.930 . S
H613 C622 0.930 . S
H614 C627 0.929 . S
H615 C625 0.929 1_556 S
H616 C620 0.929 . S
H617 C626 0.929 . S
C618 H612 0.930 . S
C618 C619 1.367 1_556 S
C618 C626 1.378 . S
C619 C618 1.367 1_554 S
C619 C627 1.433 . S
C620 H616 0.929 . S
C620 C622 1.378 . S
C620 C624 1.350 . S
C621 C624 1.463 . S
C621 C626 1.350 1_554 S
C621 N629 1.427 . S
C622 H613 0.930 . S
C622 C620 1.378 . S
C622 C623 1.367 . S
C623 C622 1.367 . S
C623 C625 1.433 . S
C624 C620 1.350 . S
C624 C621 1.463 . S
C624 N628 1.427 . S
C625 H615 0.929 1_554 S
C625 C623 1.433 . S
C625 N628 1.384 . S
C626 H617 0.929 . S
C626 C618 1.378 . S
C626 C621 1.350 1_556 S
C627 H614 0.929 . S
C627 C619 1.433 . S
C627 N629 1.384 . S
N628 C624 1.427 . S
N628 C625 1.384 . S
N629 C621 1.427 . S
N629 C627 1.384 . S
H630 C636 0.930 . S
H631 C640 0.930 1_556 S
H632 C645 0.929 . S
H633 C643 0.929 . S
H634 C638 0.929 1_556 S
H635 C644 0.929 . S
C636 H630 0.930 . S
C636 C637 1.367 . S
C636 C644 1.378 . S
C637 C636 1.367 . S
C637 C645 1.433 . S
C638 H634 0.929 1_554 S
C638 C640 1.378 . S
C638 C642 1.350 . S
C639 C642 1.463 . S
C639 C644 1.350 . S
C639 N647 1.427 . S
C640 H631 0.930 1_554 S
C640 C638 1.378 . S
C640 C641 1.367 . S
C641 C640 1.367 . S
C641 C643 1.433 . S
C642 C638 1.350 . S
C642 C639 1.463 . S
C642 N646 1.427 . S
C643 H633 0.929 . S
C643 C641 1.433 . S
C643 N646 1.384 . S
C644 H635 0.929 . S
C644 C636 1.378 . S
C644 C639 1.350 . S
C645 H632 0.929 . S
C645 C637 1.433 . S
C645 N647 1.384 . S
N646 C642 1.427 . S
N646 C643 1.384 . S
N647 C639 1.427 . S
N647 C645 1.384 . S
H648 C654 0.930 1_556 S
H649 C658 0.930 . S
H650 C663 0.929 . S
H651 C661 0.929 . S
H652 C656 0.929 . S
H653 C662 0.929 . S
C654 H648 0.930 1_554 S
C654 C655 1.367 . S
C654 C662 1.378 . S
C655 C654 1.367 . S
C655 C663 1.433 . S
C656 H652 0.929 . S
C656 C658 1.378 . S
C656 C660 1.350 . S
C657 C660 1.463 . S
C657 C662 1.350 . S
C657 N665 1.427 . S
C658 H649 0.930 . S
C658 C656 1.378 . S
C658 C659 1.367 . S
C659 C658 1.367 . S
C659 C661 1.433 . S
C660 C656 1.350 . S
C660 C657 1.463 . S
C660 N664 1.427 . S
C661 H651 0.929 . S
C661 C659 1.433 . S
C661 N664 1.384 . S
C662 H653 0.929 . S
C662 C654 1.378 . S
C662 C657 1.350 . S
C663 H650 0.929 . S
C663 C655 1.433 . S
C663 N665 1.384 . S
N664 C660 1.427 . S
N664 C661 1.384 . S
N665 C657 1.427 . S
N665 C663 1.384 . S
H666 C672 0.930 . S
H667 C676 0.930 . S
H668 C681 0.929 . S
H669 C679 0.929 . S
H670 C674 0.929 . S
H671 C680 0.929 . S
C672 H666 0.930 . S
C672 C673 1.367 . S
C672 C680 1.378 . S
C673 C672 1.367 . S
C673 C681 1.433 . S
C674 H670 0.929 . S
C674 C676 1.378 . S
C674 C678 1.350 . S
C675 C678 1.463 . S
C675 C680 1.350 . S
C675 N683 1.427 . S
C676 H667 0.930 . S
C676 C674 1.378 . S
C676 C677 1.367 . S
C677 C676 1.367 . S
C677 C679 1.433 . S
C678 C674 1.350 . S
C678 C675 1.463 . S
C678 N682 1.427 . S
C679 H669 0.929 . S
C679 C677 1.433 . S
C679 N682 1.384 . S
C680 H671 0.929 . S
C680 C672 1.378 . S
C680 C675 1.350 . S
C681 H668 0.929 . S
C681 C673 1.433 . S
C681 N683 1.384 . S
N682 C678 1.427 . S
N682 C679 1.384 . S
N683 C675 1.427 . S
N683 C681 1.384 . S
H684 C690 0.930 . S
H685 C694 0.930 . S
H686 C699 0.929 . S
H687 C697 0.929 . S
H688 C692 0.929 . S
H689 C698 0.929 . S
C690 H684 0.930 . S
C690 C691 1.367 . S
C690 C698 1.378 . S
C691 C690 1.367 . S
C691 C699 1.433 . S
C692 H688 0.929 . S
C692 C694 1.378 . S
C692 C696 1.350 . S
C693 C696 1.463 1_545 S
C693 C698 1.350 . S
C693 N701 1.427 . S
C694 H685 0.930 . S
C694 C692 1.378 . S
C694 C695 1.367 . S
C695 C694 1.367 . S
C695 C697 1.433 . S
C696 C692 1.350 . S
C696 C693 1.463 1_565 S
C696 N700 1.427 . S
C697 H687 0.929 . S
C697 C695 1.433 . S
C697 N700 1.384 . S
C698 H689 0.929 . S
C698 C690 1.378 . S
C698 C693 1.350 . S
C699 H686 0.929 . S
C699 C691 1.433 . S
C699 N701 1.384 . S
N700 C696 1.427 . S
N700 C697 1.384 . S
N701 C693 1.427 . S
N701 C699 1.384 . S
H702 C708 0.930 . S
H703 C712 0.930 . S
H704 C717 0.929 . S
H705 C715 0.929 . S
H706 C710 0.929 . S
H707 C716 0.929 . S
C708 H702 0.930 . S
C708 C709 1.367 . S
C708 C716 1.378 . S
C709 C708 1.367 . S
C709 C717 1.433 . S
C710 H706 0.929 . S
C710 C712 1.378 1_655 S
C710 C714 1.350 . S
C711 C714 1.463 . S
C711 C716 1.350 . S
C711 N719 1.427 . S
C712 H703 0.930 . S
C712 C710 1.378 1_455 S
C712 C713 1.367 . S
C713 C712 1.367 . S
C713 C715 1.433 1_455 S
C714 C710 1.350 . S
C714 C711 1.463 . S
C714 N718 1.427 . S
C715 H705 0.929 . S
C715 C713 1.433 1_655 S
C715 N718 1.384 . S
C716 H707 0.929 . S
C716 C708 1.378 . S
C716 C711 1.350 . S
C717 H704 0.929 . S
C717 C709 1.433 . S
C717 N719 1.384 . S
N718 C714 1.427 . S
N718 C715 1.384 . S
N719 C711 1.427 . S
N719 C717 1.384 . S
H720 C726 0.930 . S
H721 C730 0.930 . S
H722 C735 0.929 . S
H723 C733 0.929 . S
H724 C728 0.929 . S
H725 C734 0.929 . S
C726 H720 0.930 . S
C726 C727 1.367 . S
C726 C734 1.378 . S
C727 C726 1.367 . S
C727 C735 1.433 . S
C728 H724 0.929 . S
C728 C730 1.378 . S
C728 C732 1.350 . S
C729 C732 1.463 . S
C729 C734 1.350 . S
C729 N737 1.427 . S
C730 H721 0.930 . S
C730 C728 1.378 . S
C730 C731 1.367 . S
C731 C730 1.367 . S
C731 C733 1.433 . S
C732 C728 1.350 . S
C732 C729 1.463 . S
C732 N736 1.427 . S
C733 H723 0.929 . S
C733 C731 1.433 . S
C733 N736 1.384 . S
C734 H725 0.929 . S
C734 C726 1.378 . S
C734 C729 1.350 . S
C735 H722 0.929 . S
C735 C727 1.433 . S
C735 N737 1.384 . S
N736 C732 1.427 . S
N736 C733 1.384 . S
N737 C729 1.427 . S
N737 C735 1.384 . S
H738 C744 0.930 . S
H739 C748 0.930 . S
H740 C753 0.929 . S
H741 C751 0.929 . S
H742 C746 0.929 . S
H743 C752 0.929 . S
C744 H738 0.930 . S
C744 C745 1.367 . S
C744 C752 1.378 . S
C745 C744 1.367 . S
C745 C753 1.433 . S
C746 H742 0.929 . S
C746 C748 1.378 1_565 S
C746 C750 1.350 . S
C747 C750 1.463 . S
C747 C752 1.350 . S
C747 N755 1.427 . S
C748 H739 0.930 . S
C748 C746 1.378 1_545 S
C748 C749 1.367 . S
C749 C748 1.367 . S
C749 C751 1.433 1_545 S
C750 C746 1.350 . S
C750 C747 1.463 . S
C750 N754 1.427 . S
C751 H741 0.929 . S
C751 C749 1.433 1_565 S
C751 N754 1.384 . S
C752 H743 0.929 . S
C752 C744 1.378 . S
C752 C747 1.350 . S
C753 H740 0.929 . S
C753 C745 1.433 . S
C753 N755 1.384 . S
N754 C750 1.427 . S
N754 C751 1.384 . S
N755 C747 1.427 . S
N755 C753 1.384 . S
H756 C762 0.930 . S
H757 C766 0.930 . S
H758 C771 0.929 . S
H759 C769 0.929 . S
H760 C764 0.929 . S
H761 C770 0.929 . S
C762 H756 0.930 . S
C762 C763 1.367 . S
C762 C770 1.378 . S
C763 C762 1.367 . S
C763 C771 1.433 . S
C764 H760 0.929 . S
C764 C766 1.378 . S
C764 C768 1.350 . S
C765 C768 1.463 1_655 S
C765 C770 1.350 . S
C765 N773 1.436 . S
C766 H757 0.930 . S
C766 C764 1.378 . S
C766 C767 1.367 . S
C767 C766 1.367 . S
C767 C769 1.433 . S
C768 C764 1.350 . S
C768 C765 1.463 1_455 S
C768 N772 1.427 . S
C769 H759 0.929 . S
C769 C767 1.433 . S
C769 N772 1.384 . S
C770 H761 0.929 . S
C770 C762 1.378 . S
C770 C765 1.350 . S
C771 H758 0.929 . S
C771 C763 1.433 . S
C771 N773 1.401 . S
N772 C768 1.427 . S
N772 C769 1.384 . S
N773 C765 1.436 . S
N773 C771 1.401 . S
C295 N13 0.965 . S
C299 N18 0.846 1_655 S
C313 N45 0.845 . S
C317 N50 0.971 . S
C331 N77 1.030 . S
C335 N82 0.908 . S
C349 C98 2.182 . S
C353 C125 2.194 1_556 S
C367 C130 2.186 . S
C371 C157 2.198 1_556 S
C385 C162 2.186 . S
C389 C189 2.198 . S
C403 C198 2.162 . S
C407 C196 2.174 1_554 S
C421 C253 2.204 . S
C425 C226 2.192 1_554 S
C439 C262 2.210 . S
C443 C260 2.234 . S
C457 C166 1.574 . S
C461 C2 1.557 . S
C475 C61 1.582 . S
C479 C102 1.553 . S
C493 C66 1.623 . S
C497 C134 1.612 . S
C511 C68 1.753 . S
C515 C194 1.736 . S
C529 N242 1.072 . S
C533 C4 1.151 . S
C547 C258 1.662 . S
C551 C38 1.686 . S
C565 N274 1.161 . S
C569 C29 1.214 1_556 S
C583 C34 1.225 1_556 S
C587 N210 1.163 . S
C601 C228 1.598 . S
C605 C93 1.595 . S
C619 C70 1.349 . S
C623 N109 1.200 . S
C637 N141 1.158 . S
C641 C6 1.208 . S
C655 C36 1.461 . S
C659 N173 1.434 . S
C673 N269 0.582 . S
C677 N114 0.561 . S
C691 N205 0.747 . S
C695 N146 0.765 . S
C709 C230 1.031 . S
C713 N178 1.025 . S
C727 C221 1.322 . S
C731 C164 1.309 . S
C745 C100 1.084 . S
C749 N237 1.058 . S
C763 C285 0.976 . S
C767 C132 0.971 . S
