# Generated by pormake.
# Topology qtz-a, (4)-cn, num edge types: 1
# Building blocks:
#     Node 0, Type 0, BuildingBlock: TATPOV_clean_sbu_0, # of connection points: 4
#     Node 1, Type 0, BuildingBlock: TATPOV_clean_sbu_0, # of connection points: 4
#     Node 2, Type 0, BuildingBlock: TATPOV_clean_sbu_0, # of connection points: 4
#     Node 3, Type 0, BuildingBlock: TATPOV_clean_sbu_0, # of connection points: 4
#     Node 4, Type 0, BuildingBlock: TATPOV_clean_sbu_0, # of connection points: 4
#     Node 5, Type 0, BuildingBlock: TATPOV_clean_sbu_0, # of connection points: 4
#     Node 6, Type 0, BuildingBlock: TATPOV_clean_sbu_0, # of connection points: 4
#     Node 7, Type 0, BuildingBlock: TATPOV_clean_sbu_0, # of connection points: 4
#     Node 8, Type 0, BuildingBlock: TATPOV_clean_sbu_0, # of connection points: 4
#     Node 9, Type 0, BuildingBlock: TATPOV_clean_sbu_0, # of connection points: 4
#     Node 10, Type 0, BuildingBlock: TATPOV_clean_sbu_0, # of connection points: 4
#     Node 11, Type 0, BuildingBlock: TATPOV_clean_sbu_0, # of connection points: 4
#     Edge 12, Type (0, 0), BuildingBlock: AJUNOK_clean_linker_0, # of connection points: 2
#     Edge 13, Type (0, 0), BuildingBlock: AJUNOK_clean_linker_0, # of connection points: 2
#     Edge 14, Type (0, 0), BuildingBlock: AJUNOK_clean_linker_0, # of connection points: 2
#     Edge 15, Type (0, 0), BuildingBlock: AJUNOK_clean_linker_0, # of connection points: 2
#     Edge 16, Type (0, 0), BuildingBlock: AJUNOK_clean_linker_0, # of connection points: 2
#     Edge 17, Type (0, 0), BuildingBlock: AJUNOK_clean_linker_0, # of connection points: 2
#     Edge 18, Type (0, 0), BuildingBlock: AJUNOK_clean_linker_0, # of connection points: 2
#     Edge 19, Type (0, 0), BuildingBlock: AJUNOK_clean_linker_0, # of connection points: 2
#     Edge 20, Type (0, 0), BuildingBlock: AJUNOK_clean_linker_0, # of connection points: 2
#     Edge 21, Type (0, 0), BuildingBlock: AJUNOK_clean_linker_0, # of connection points: 2
#     Edge 22, Type (0, 0), BuildingBlock: AJUNOK_clean_linker_0, # of connection points: 2
#     Edge 23, Type (0, 0), BuildingBlock: AJUNOK_clean_linker_0, # of connection points: 2
#     Edge 24, Type (0, 0), BuildingBlock: AJUNOK_clean_linker_0, # of connection points: 2
#     Edge 25, Type (0, 0), BuildingBlock: AJUNOK_clean_linker_0, # of connection points: 2
#     Edge 26, Type (0, 0), BuildingBlock: AJUNOK_clean_linker_0, # of connection points: 2
#     Edge 27, Type (0, 0), BuildingBlock: AJUNOK_clean_linker_0, # of connection points: 2
#     Edge 28, Type (0, 0), BuildingBlock: AJUNOK_clean_linker_0, # of connection points: 2
#     Edge 29, Type (0, 0), BuildingBlock: AJUNOK_clean_linker_0, # of connection points: 2
#     Edge 30, Type (0, 0), BuildingBlock: AJUNOK_clean_linker_0, # of connection points: 2
#     Edge 31, Type (0, 0), BuildingBlock: AJUNOK_clean_linker_0, # of connection points: 2
#     Edge 32, Type (0, 0), BuildingBlock: AJUNOK_clean_linker_0, # of connection points: 2
#     Edge 33, Type (0, 0), BuildingBlock: AJUNOK_clean_linker_0, # of connection points: 2
#     Edge 34, Type (0, 0), BuildingBlock: AJUNOK_clean_linker_0, # of connection points: 2
#     Edge 35, Type (0, 0), BuildingBlock: AJUNOK_clean_linker_0, # of connection points: 2
# Relax obj value: 0.791
# Max RMSD: 0.379
# Mean RMSD: 0.297
data_MOF--net-qtz-a--node1-TATPOV_clean_sbu_0--edge1-AJUNOK_clean_linker_0
_symmetry_space_group_name_H-M    P1
_symmetry_Int_Tables_number       1
_symmetry_cell_setting            triclinic
loop_
_symmetry_equiv_pos_as_xyz
'x, y, z'
_cell_length_a     30.183306
_cell_length_b     38.65457
_cell_length_c     31.035885
_cell_angle_alpha  77.066975
_cell_angle_beta   90.518325
_cell_angle_gamma 112.7071
loop_
_atom_site_label
_atom_site_type_symbol
_atom_site_fract_x
_atom_site_fract_y
_atom_site_fract_z
_atom_type_partial_charge
Zn0 Zn 0.36756 0.95419 0.10093 0.0
Zn1 Zn 0.39806 0.02008 0.10863 0.0
O2 O 0.41771 -0.01471 0.16167 0.0
O3 O 0.38033 0.92538 0.15722 0.0
O4 O 0.40704 0.06987 0.12683 0.0
O5 O 0.42108 0.97716 0.04886 0.0
O6 O 0.45244 0.0352 0.06202 0.0
C7 C 0.40947 0.94945 0.17621 0.0
C8 C 0.30121 0.9753 0.06659 0.0
O9 O 0.33604 0.00556 0.07225 0.0
O10 O 0.30019 0.94272 0.08645 0.0
C11 C 0.39374 0.09523 0.10365 0.0
O12 O 0.37188 0.08841 0.06781 0.0
C13 C 0.4533 0.0113 0.04014 0.0
Zn14 Zn 0.34754 0.48119 0.34002 0.0
Zn15 Zn 0.26138 0.43114 0.35019 0.0
O16 O 0.28495 0.43174 0.41327 0.0
O17 O 0.35688 0.47802 0.40453 0.0
O18 O 0.18941 0.40024 0.36184 0.0
O19 O 0.33642 0.52551 0.30172 0.0
O20 O 0.26828 0.47818 0.29772 0.0
C21 C 0.32262 0.45095 0.43002 0.0
C22 C 0.33131 0.41063 0.30766 0.0
O23 O 0.28811 0.39835 0.32437 0.0
O24 O 0.36148 0.44398 0.30912 0.0
C25 C 0.1543 0.39857 0.38601 0.0
O26 O 0.11156 0.37194 0.38418 0.0
C27 C 0.29775 0.51317 0.28327 0.0
Zn28 Zn 0.86631 0.45174 0.79631 0.0
Zn29 Zn 0.88487 0.39582 0.79805 0.0
O30 O 0.91581 0.4227 0.84886 0.0
O31 O 0.88395 0.46364 0.85492 0.0
O32 O 0.86948 0.33796 0.81515 0.0
O33 O 0.79969 0.43961 0.77532 0.0
O34 O 0.83169 0.40216 0.758 0.0
C35 C 0.91397 0.44872 0.86717 0.0
C36 C 0.94847 0.45739 0.73346 0.0
O37 O 0.94067 0.42237 0.75181 0.0
O38 O 0.92266 0.47332 0.74617 0.0
C39 C 0.8256 0.31531 0.81526 0.0
O40 O 0.79293 0.33008 0.80788 0.0
C41 C 0.80091 0.41751 0.75125 0.0
Zn42 Zn 0.61767 0.95467 0.08398 0.0
Zn43 Zn 0.59133 0.88447 0.09441 0.0
O44 O 0.56485 0.89573 0.15028 0.0
O45 O 0.59905 0.95817 0.14317 0.0
O46 O 0.58109 0.82779 0.11143 0.0
O47 O 0.56831 0.95028 0.03675 0.0
O48 O 0.54265 0.88689 0.04996 0.0
C49 C 0.57003 0.92546 0.1648 0.0
C50 C 0.69286 0.94828 0.04889 0.0
O51 O 0.65963 0.91417 0.05783 0.0
O52 O 0.68674 0.97387 0.06418 0.0
C53 C 0.58318 0.81002 0.08204 0.0
O54 O 0.59375 0.82938 0.04033 0.0
C55 C 0.54015 0.91834 0.02937 0.0
Zn56 Zn 0.44531 0.35092 0.43135 0.0
Zn57 Zn 0.51897 0.40502 0.44543 0.0
O58 O 0.46414 0.39772 0.49045 0.0
O59 O 0.40084 0.34914 0.47982 0.0
O60 O 0.57851 0.44076 0.46659 0.0
O61 O 0.47208 0.3106 0.43548 0.0
O62 O 0.5378 0.36276 0.42878 0.0
C63 C 0.4194 0.37622 0.49928 0.0
C64 C 0.48048 0.42302 0.36012 0.0
O65 O 0.51002 0.43677 0.3873 0.0
O66 O 0.45161 0.38776 0.36999 0.0
C67 C 0.58698 0.47654 0.45938 0.0
O68 O 0.55668 0.4896 0.43807 0.0
C69 C 0.51714 0.32763 0.42622 0.0
Zn70 Zn 0.13486 0.57259 0.75001 0.0
Zn71 Zn 0.1497 0.63483 0.76936 0.0
O72 O 0.10854 0.58958 0.82375 0.0
O73 O 0.10838 0.5369 0.80848 0.0
O74 O 0.17769 0.68293 0.79345 0.0
O75 O 0.19992 0.58109 0.7266 0.0
O76 O 0.21088 0.63895 0.73298 0.0
C77 C 0.09572 0.55289 0.83451 0.0
C78 C 0.08024 0.61681 0.70263 0.0
O79 O 0.10175 0.64163 0.72479 0.0
O80 O 0.08818 0.58627 0.70741 0.0
C81 C 0.17845 0.71604 0.77471 0.0
O82 O 0.1561 0.71988 0.73855 0.0
C83 C 0.22645 0.6166 0.71911 0.0
Zn84 Zn 0.94871 0.52383 0.54323 0.0
Zn85 Zn 0.86269 0.57656 0.52709 0.0
O86 O 0.89921 0.59773 0.46327 0.0
O87 O 0.92327 0.55754 0.50343 0.0
O88 O 0.79554 0.57493 0.52558 0.0
O89 O 0.88747 0.47883 0.57311 0.0
O90 O 0.85044 0.51952 0.56121 0.0
C91 C 0.92838 0.58129 0.46713 0.0
C92 C 0.94205 0.59941 0.57597 0.0
O93 O 0.90664 0.60907 0.56596 0.0
O94 O 0.94441 0.57091 0.56355 0.0
C95 C 0.77692 0.57842 0.48885 0.0
O96 O 0.80522 0.5937 0.45182 0.0
C97 C 0.85021 0.48603 0.57859 0.0
Zn98 Zn 0.37601 -0.00185 0.84402 0.0
Zn99 Zn 0.33567 0.93253 0.84271 0.0
O100 O 0.39195 0.96569 0.79067 0.0
O101 O 0.40514 0.02646 0.78305 0.0
O102 O 0.28988 0.88481 0.82352 0.0
O103 O 0.41679 0.97478 0.88658 0.0
O104 O 0.37241 0.91365 0.88969 0.0
C105 C 0.41512 0.00122 0.77061 0.0
C106 C 0.29572 0.98098 0.89068 0.0
O107 O 0.29447 0.94969 0.88217 0.0
O108 O 0.32857 0.01249 0.87078 0.0
C109 C 0.30194 0.85621 0.82706 0.0
O110 O 0.3443 0.85933 0.84075 0.0
C111 C 0.40784 0.93916 0.90195 0.0
Zn112 Zn 0.54245 0.3692 0.19518 0.0
Zn113 Zn 0.48493 0.31108 0.18432 0.0
O114 O 0.50376 0.35788 0.12635 0.0
O115 O 0.57196 0.4023 0.13611 0.0
O116 O 0.46711 0.26011 0.16623 0.0
O117 O 0.58469 0.35668 0.2399 0.0
O118 O 0.52112 0.30394 0.2423 0.0
C119 C 0.53817 0.39105 0.1118 0.0
C120 C 0.43524 0.34538 0.22247 0.0
O121 O 0.4262 0.3141 0.21052 0.0
O122 O 0.47831 0.37054 0.21826 0.0
C123 C 0.43238 0.2447 0.14401 0.0
O124 O 0.40461 0.2631 0.12918 0.0
C125 C 0.55862 0.32253 0.26 0.0
Zn126 Zn 0.15446 0.6305 0.52947 0.0
Zn127 Zn 0.16862 0.57393 0.51713 0.0
O128 O 0.12868 0.59247 0.46875 0.0
O129 O 0.13349 0.64978 0.47131 0.0
O130 O 0.18406 0.53565 0.4922 0.0
O131 O 0.2198 0.65898 0.54637 0.0
O132 O 0.23104 0.60723 0.54188 0.0
C133 C 0.11786 0.6215 0.45346 0.0
C134 C 0.09686 0.55477 0.59072 0.0
O135 O 0.12213 0.5422 0.5712 0.0
O136 O 0.10238 0.58993 0.57816 0.0
C137 C 0.15066 0.50267 0.4942 0.0
O138 O 0.10846 0.49426 0.51444 0.0
C139 C 0.24544 0.63936 0.55325 0.0
Zn140 Zn 0.63807 0.00691 0.83998 0.0
Zn141 Zn 0.67891 0.07399 0.83801 0.0
O142 O 0.62979 0.06173 0.78807 0.0
O143 O 0.61887 0.00463 0.77914 0.0
O144 O 0.72044 0.13134 0.8202 0.0
O145 O 0.59016 0.01059 0.88486 0.0
O146 O 0.63593 0.0695 0.88963 0.0
C147 C 0.6101 0.03463 0.76797 0.0
C148 C 0.71884 0.0098 0.87755 0.0
O149 O 0.72152 0.04457 0.86883 0.0
O150 O 0.68492 -0.0151 0.86331 0.0
C151 C 0.75522 0.14827 0.84158 0.0
O152 O 0.7677 0.12751 0.87517 0.0
C153 C 0.59816 0.03899 0.90228 0.0
Zn154 Zn 0.40806 0.50765 0.10566 0.0
Zn155 Zn 0.47508 0.56733 0.10887 0.0
O156 O 0.4952 0.53508 0.07153 0.0
O157 O 0.42847 0.4947 0.05297 0.0
O158 O 0.51943 0.62438 0.09292 0.0
O159 O 0.34925 0.51932 0.10629 0.0
O160 O 0.40819 0.56924 0.11955 0.0
C161 C 0.47387 0.50782 0.05207 0.0
C162 C 0.46393 0.50904 0.18731 0.0
O163 O 0.48734 0.54485 0.17053 0.0
O164 O 0.43176 0.48863 0.16624 0.0
C165 C 0.51712 0.64208 0.12236 0.0
O166 O 0.49018 0.62185 0.15953 0.0
C167 C 0.36305 0.5506 0.11851 0.0
C168 C 0.47898 0.0179 0.96205 0.0
C169 C 0.49155 0.02263 0.0046 0.0
C170 C 0.51429 0.02505 0.92847 0.0
C171 C 0.56302 0.0363 0.93669 0.0
H172 H 0.44152 0.00824 0.95493 0.0
H173 H 0.50349 0.02108 0.89597 0.0
S174 S 0.61441 0.05237 0.04279 0.0
N175 N 0.55596 0.03986 0.05323 0.0
N176 N 0.62237 0.0524 -0.00985 0.0
C177 C 0.57627 0.04208 -0.02121 0.0
C178 C 0.54038 0.03529 0.01287 0.0
C179 C 0.34961 0.58191 0.17564 0.0
C180 C 0.32929 0.55656 0.14783 0.0
C181 C 0.33292 0.57106 0.22058 0.0
C182 C 0.29494 0.53513 0.23822 0.0
H183 H 0.38346 0.60657 0.16507 0.0
H184 H 0.35449 0.58797 0.24245 0.0
S185 S 0.2124 0.47206 0.17258 0.0
N186 N 0.25674 0.50415 0.1361 0.0
N187 N 0.22486 0.48388 0.22056 0.0
C188 C 0.26637 0.51585 0.20802 0.0
C189 C 0.28359 0.52683 0.16232 0.0
C190 C 0.79324 0.47567 0.64226 0.0
C191 C 0.81338 0.45974 0.61518 0.0
C192 C 0.77857 0.45717 0.68716 0.0
C193 C 0.78416 0.42252 0.70601 0.0
H194 H 0.79491 0.50478 0.6307 0.0
H195 H 0.77008 0.47308 0.70818 0.0
S196 S 0.81414 0.36171 0.64404 0.0
N197 N 0.82286 0.40201 0.60656 0.0
N198 N 0.79444 0.36692 0.69067 0.0
C199 C 0.79345 0.40253 0.6768 0.0
C200 C 0.80885 0.42149 0.63132 0.0
C201 C 0.51983 0.93325 0.95171 0.0
C202 C 0.50443 0.91814 -0.00303 0.0
C203 C 0.48747 0.93805 0.92055 0.0
C204 C 0.43892 0.92802 0.93395 0.0
H205 H 0.55737 0.94225 0.9406 0.0
H206 H 0.5008 0.95098 0.886 0.0
S207 S 0.38035 0.88515 0.04844 0.0
N208 N 0.43731 0.89131 0.0536 0.0
N209 N 0.37634 0.90056 -0.00504 0.0
C210 C 0.42262 0.91127 -0.02113 0.0
C211 C 0.45555 0.90632 0.01054 0.0
C212 C 0.51056 0.28242 0.37826 0.0
C213 C 0.54039 0.31291 0.39654 0.0
C214 C 0.52094 0.28131 0.33476 0.0
C215 C 0.56179 0.31033 0.30855 0.0
H216 H 0.4756 0.26262 0.39482 0.0
H217 H 0.4935 0.26082 0.31997 0.0
S218 S 0.66253 0.38376 0.34923 0.0
N219 N 0.62047 0.36363 0.39121 0.0
N220 N 0.64054 0.361 0.30981 0.0
C221 C 0.59708 0.33494 0.33028 0.0
C222 C 0.58626 0.33633 0.37442 0.0
C223 C 0.28216 0.67631 0.60904 0.0
C224 C 0.27837 0.64581 0.58934 0.0
C225 C 0.27472 0.66949 0.65529 0.0
C226 C 0.26537 0.63256 0.6824 0.0
H227 H 0.28096 0.70271 0.58895 0.0
H228 H 0.26826 0.69093 0.66855 0.0
S229 S 0.286 0.55387 0.64783 0.0
N230 N 0.2893 0.58534 0.60086 0.0
N231 N 0.27703 0.57292 0.68787 0.0
C232 C 0.27747 0.60704 0.66369 0.0
C233 C 0.28419 0.61378 0.61664 0.0
C234 C 0.28956 0.01306 -0.00595 0.0
C235 C 0.27508 0.97756 0.02568 0.0
C236 C 0.28773 0.01427 0.94856 0.0
C237 C 0.27221 0.98002 0.93326 0.0
H238 H 0.30822 0.03993 0.00379 0.0
H239 H 0.30485 0.04217 0.9255 0.0
S240 S 0.20976 0.88082 0.00331 0.0
N241 N 0.22828 0.90823 0.03909 0.0
N242 N 0.22675 0.91051 0.9536 0.0
C243 C 0.24808 0.94498 0.96468 0.0
C244 C 0.24906 0.94378 0.01106 0.0
C245 C 0.38535 0.38387 0.21783 0.0
C246 C 0.39705 0.35358 0.24176 0.0
C247 C 0.36092 0.40061 0.23911 0.0
C248 C 0.34691 0.38721 0.28481 0.0
H249 H 0.39838 0.39664 0.18318 0.0
H250 H 0.35529 0.42555 0.22021 0.0
S251 S 0.36493 0.30621 0.36135 0.0
N252 N 0.39007 0.30914 0.31284 0.0
N253 N 0.34291 0.34004 0.35266 0.0
C254 C 0.35517 0.35511 0.30843 0.0
C255 C 0.38056 0.33833 0.28687 0.0
C256 C 0.0172 0.5344 0.63164 0.0
C257 C 0.05958 0.52838 0.62677 0.0
C258 C -0.01865 0.51086 0.66579 0.0
C259 C -0.01359 0.48011 0.69658 0.0
H260 H 0.01153 0.55732 0.60844 0.0
H261 H 0.94922 0.51672 0.66787 0.0
S262 S 0.09075 0.45175 0.69822 0.0
N263 N 0.10474 0.48915 0.65514 0.0
N264 N 0.03713 0.44453 0.71975 0.0
C265 C 0.02827 0.47312 0.69166 0.0
C266 C 0.06493 0.49731 0.65666 0.0
C267 C 0.71852 0.93823 -0.02172 0.0
C268 C 0.72745 0.96158 0.00887 0.0
C269 C 0.72612 0.95495 0.93249 0.0
C270 C 0.74182 -0.00467 0.9163 0.0
H271 H 0.69883 0.90726 -0.01084 0.0
H272 H 0.71213 0.93589 0.91036 0.0
S273 S 0.79521 0.06786 -0.01737 0.0
N274 N 0.77229 0.02612 0.01973 0.0
N275 N 0.78484 0.05749 0.93374 0.0
C276 C 0.76247 0.01838 0.94621 0.0
C277 C 0.75559 0.00136 -0.00721 0.0
C278 C 0.47839 0.45494 0.2363 0.0
C279 C 0.47379 0.49039 0.23101 0.0
C280 C 0.48124 0.43362 0.27833 0.0
C281 C 0.48063 0.44745 0.3163 0.0
H282 H 0.47888 0.44333 0.20772 0.0
H283 H 0.48372 0.406 0.28137 0.0
S284 S 0.47154 0.53958 0.32011 0.0
N285 N 0.4703 0.53913 0.26697 0.0
N286 N 0.47712 0.49939 0.34612 0.0
C287 C 0.47847 0.48376 0.31133 0.0
C288 C 0.47484 0.50526 0.26852 0.0
C289 C 0.05891 0.63855 0.62668 0.0
C290 C 0.04462 0.62209 0.67207 0.0
C291 C 0.02458 0.63479 0.59527 0.0
C292 C 0.97504 0.61484 0.60849 0.0
H293 H 0.09685 0.65187 0.61515 0.0
H294 H 0.03698 0.64491 0.56031 0.0
S295 S 0.91952 0.56775 0.72354 0.0
N296 N 0.97804 0.58634 0.72884 0.0
N297 N 0.91347 0.57974 0.66993 0.0
C298 C 0.96033 0.60039 0.65398 0.0
C299 C -0.00477 0.60385 0.68583 0.0
C300 C 0.53328 0.96028 0.20147 0.0
C301 C 0.53154 0.92469 0.19525 0.0
C302 C 0.49098 0.96695 0.20424 0.0
C303 C 0.44579 0.93798 0.20163 0.0
H304 H 0.56742 -0.0151 0.19725 0.0
H305 H 0.49458 -0.00366 0.20169 0.0
S306 S 0.42127 0.8348 0.21028 0.0
N307 N 0.48066 0.85662 0.20436 0.0
N308 N 0.40115 0.86877 0.21125 0.0
C309 C 0.44338 0.90002 0.20742 0.0
C310 C 0.48648 0.89338 0.20379 0.0
C311 C 0.40531 0.43257 0.51013 0.0
C312 C 0.38702 0.39218 0.5157 0.0
C313 C 0.3789 0.45353 0.48919 0.0
C314 C 0.33341 0.43427 0.47485 0.0
H315 H 0.44306 0.44856 0.5135 0.0
H316 H 0.39746 0.48457 0.47767 0.0
S317 S 0.25947 0.32921 0.51045 0.0
N318 N 0.31355 0.33408 0.52628 0.0
N319 N 0.26326 0.37335 0.48792 0.0
C320 C 0.30986 0.39438 0.49354 0.0
C321 C 0.33699 0.37313 0.5144 0.0
C322 C 0.04489 0.48759 0.87998 0.0
C323 C 0.05494 0.52745 0.86838 0.0
C324 C -0.00275 0.4601 0.88877 0.0
C325 C 0.95823 0.47169 0.88626 0.0
H326 H 0.0732 0.47757 0.87596 0.0
H327 H -0.00894 0.43019 0.89099 0.0
S328 S 0.96718 0.57151 0.87821 0.0
N329 N 0.02347 0.57634 0.87013 0.0
N330 N 0.93407 0.52474 0.88778 0.0
C331 C 0.96873 0.51076 0.88537 0.0
C332 C 0.01729 0.5388 0.87599 0.0
C333 C -0.00798 0.56698 0.43547 0.0
C334 C 0.97268 0.59435 0.43776 0.0
C335 C 0.04194 0.57766 0.43055 0.0
C336 C 0.07376 0.61585 0.42935 0.0
H337 H 0.96892 0.53648 0.44348 0.0
H338 H 0.05509 0.55478 0.43498 0.0
S339 S 0.0401 0.70017 0.41536 0.0
N340 N -0.01195 0.66246 0.42416 0.0
N341 N 0.08218 0.68274 0.41516 0.0
C342 C 0.05451 0.64442 0.42167 0.0
C343 C 0.00357 0.63352 0.42627 0.0
C344 C 0.48176 -0.01465 0.74503 0.0
C345 C 0.46365 0.0135 0.74708 0.0
C346 C 0.53147 -0.00586 0.74419 0.0
C347 C 0.56478 0.03123 0.74623 0.0
H348 H 0.45743 0.95539 0.74938 0.0
H349 H 0.5429 0.97038 0.74766 0.0
S350 S 0.53724 0.11833 0.73319 0.0
N351 N 0.48409 0.08256 0.73614 0.0
N352 N 0.5772 0.09852 0.73663 0.0
C353 C 0.54784 0.06098 0.73972 0.0
C354 C 0.49725 0.05222 0.73958 0.0
C355 C 0.48456 0.41323 0.06097 0.0
C356 C 0.53057 0.421 0.07639 0.0
C357 C 0.46868 0.44313 0.0454 0.0
C358 C 0.49787 0.48181 0.04558 0.0
H359 H 0.45861 0.38373 0.06565 0.0
H360 H 0.43121 0.435 0.03861 0.0
S361 S 0.62732 0.51856 0.06568 0.0
N362 N 0.60997 0.47117 0.07726 0.0
N363 N 0.57931 0.52703 0.05 0.0
C364 C 0.54656 0.49047 0.05308 0.0
C365 C 0.56309 0.46008 0.06802 0.0
C366 C 0.39 0.19251 0.1044 0.0
C367 C 0.4231 0.20624 0.13502 0.0
C368 C 0.3807 0.15664 0.09484 0.0
C369 C 0.40367 0.13261 0.11577 0.0
H370 H 0.37127 0.20972 0.08723 0.0
H371 H 0.3551 0.14773 0.07077 0.0
S372 S 0.49306 0.15453 0.19925 0.0
N373 N 0.47877 0.19253 0.18667 0.0
N374 N 0.46096 0.12513 0.16896 0.0
C375 C 0.43653 0.14572 0.14685 0.0
C376 C 0.44635 0.18248 0.15635 0.0
C377 C 0.12164 0.43772 0.47724 0.0
C378 C 0.15677 0.47558 0.46998 0.0
C379 C 0.12284 0.41288 0.45105 0.0
C380 C 0.159 0.42475 0.41615 0.0
H381 H 0.09214 0.42734 0.50271 0.0
H382 H 0.09423 0.38429 0.45765 0.0
S383 S 0.26058 0.52091 0.38469 0.0
N384 N 0.23032 0.52331 0.42706 0.0
N385 N 0.23135 0.47721 0.3768 0.0
C386 C 0.19525 0.46218 0.40961 0.0
C387 C 0.19445 0.4874 0.43676 0.0
C388 C 0.75071 0.21208 0.81009 0.0
C389 C 0.77656 0.19111 0.83258 0.0
C390 C 0.76727 0.2521 0.8046 0.0
C391 C 0.81079 0.27311 0.82073 0.0
H392 H 0.71656 0.19739 0.79764 0.0
H393 H 0.74549 0.26665 0.78757 0.0
S394 S 0.89388 0.23247 0.87951 0.0
N395 N 0.84905 0.19463 0.86965 0.0
N396 N 0.88063 0.27017 0.85849 0.0
C397 C 0.83796 0.25282 0.84198 0.0
C398 C 0.8207 0.21178 0.84817 0.0
C399 C 0.55373 0.70763 0.06977 0.0
C400 C 0.53905 0.68502 0.11344 0.0
C401 C 0.56906 0.748 0.06018 0.0
C402 C 0.57053 0.76753 0.09386 0.0
H403 H 0.55186 0.69402 0.04248 0.0
H404 H 0.57874 0.76387 0.02583 0.0
S405 S 0.54051 0.72195 0.21443 0.0
N406 N 0.53046 0.68547 0.1912 0.0
N407 N 0.55908 0.76101 0.17325 0.0
C408 C 0.55787 0.74535 0.13793 0.0
C409 C 0.54221 0.70426 0.14767 0.0
C410 C 0.7007 0.56634 0.45151 0.0
C411 C 0.72537 0.55493 0.48686 0.0
C412 C 0.65477 0.54137 0.44417 0.0
C413 C 0.63257 0.50373 0.47116 0.0
H414 H 0.71766 0.59432 0.42855 0.0
H415 H 0.63761 0.55098 0.41583 0.0
S416 S 0.6809 0.4604 0.56944 0.0
N417 N 0.72298 0.50413 0.55069 0.0
N418 N 0.63734 0.45692 0.53597 0.0
C419 C 0.6561 0.49238 0.50748 0.0
C420 C 0.70232 0.51809 0.51561 0.0
C421 C 0.20196 0.78566 0.77605 0.0
C422 C 0.20812 0.7507 0.79094 0.0
C423 C 0.23161 0.81944 0.78861 0.0
C424 C 0.26915 0.81979 0.81598 0.0
H425 H 0.17422 0.78709 0.75419 0.0
H426 H 0.22575 0.84568 0.7759 0.0
S427 S 0.29951 0.73566 0.8654 0.0
N428 N 0.25386 0.71843 0.8359 0.0
N429 N 0.30958 0.78168 0.85903 0.0
C430 C 0.27516 0.78488 0.83174 0.0
C431 C 0.24466 0.75043 0.8194 0.0
loop_
_geom_bond_atom_site_label_1
_geom_bond_atom_site_label_2
_geom_bond_distance
_geom_bond_site_symmetry_2
_ccdc_geom_bond_type
Zn0 O3 2.031 1_545 S
Zn0 O5 2.049 . S
Zn0 O10 2.067 . S
Zn1 O2 1.962 . S
Zn1 O4 1.986 . S
Zn1 O6 1.996 . S
Zn1 O9 1.943 . S
O2 Zn1 1.962 . S
O2 C7 1.254 1_545 S
O3 Zn0 2.031 1_565 S
O3 C7 1.269 . S
O4 Zn1 1.986 . S
O4 C11 1.262 . S
O5 Zn0 2.049 . S
O5 C13 1.260 . S
O6 Zn1 1.996 . S
O6 C13 1.257 . S
C7 O2 1.254 1_565 S
C7 O3 1.269 . S
C8 O9 1.249 . S
C8 O10 1.270 . S
O9 Zn1 1.943 . S
O9 C8 1.249 . S
O10 Zn0 2.067 . S
O10 C8 1.270 . S
C11 O4 1.262 . S
C11 O12 1.232 . S
O12 C11 1.232 . S
C13 O5 1.260 . S
C13 O6 1.257 . S
Zn14 O17 2.031 . S
Zn14 O19 2.049 . S
Zn14 O24 2.067 . S
Zn15 O16 1.962 . S
Zn15 O18 1.986 . S
Zn15 O20 1.996 . S
Zn15 O23 1.943 . S
O16 Zn15 1.962 . S
O16 C21 1.254 . S
O17 Zn14 2.031 . S
O17 C21 1.269 . S
O18 Zn15 1.986 . S
O18 C25 1.262 . S
O19 Zn14 2.049 . S
O19 C27 1.260 . S
O20 Zn15 1.996 . S
O20 C27 1.257 . S
C21 O16 1.254 . S
C21 O17 1.269 . S
C22 O23 1.249 . S
C22 O24 1.270 . S
O23 Zn15 1.943 . S
O23 C22 1.249 . S
O24 Zn14 2.067 . S
O24 C22 1.270 . S
C25 O18 1.262 . S
C25 O26 1.232 . S
O26 C25 1.232 . S
C27 O19 1.260 . S
C27 O20 1.257 . S
Zn28 O31 2.031 . S
Zn28 O33 2.049 . S
Zn28 O38 2.067 . S
Zn29 O30 1.962 . S
Zn29 O32 1.986 . S
Zn29 O34 1.996 . S
Zn29 O37 1.943 . S
O30 Zn29 1.962 . S
O30 C35 1.254 . S
O31 Zn28 2.031 . S
O31 C35 1.269 . S
O32 Zn29 1.986 . S
O32 C39 1.262 . S
O33 Zn28 2.049 . S
O33 C41 1.260 . S
O34 Zn29 1.996 . S
O34 C41 1.257 . S
C35 O30 1.254 . S
C35 O31 1.269 . S
C36 O37 1.249 . S
C36 O38 1.270 . S
O37 Zn29 1.943 . S
O37 C36 1.249 . S
O38 Zn28 2.067 . S
O38 C36 1.270 . S
C39 O32 1.262 . S
C39 O40 1.232 . S
O40 C39 1.232 . S
C41 O33 1.260 . S
C41 O34 1.257 . S
Zn42 O45 2.031 . S
Zn42 O47 2.049 . S
Zn42 O52 2.067 . S
Zn43 O44 1.962 . S
Zn43 O46 1.986 . S
Zn43 O48 1.996 . S
Zn43 O51 1.943 . S
O44 Zn43 1.962 . S
O44 C49 1.254 . S
O45 Zn42 2.031 . S
O45 C49 1.269 . S
O46 Zn43 1.986 . S
O46 C53 1.262 . S
O47 Zn42 2.049 . S
O47 C55 1.260 . S
O48 Zn43 1.996 . S
O48 C55 1.257 . S
C49 O44 1.254 . S
C49 O45 1.269 . S
C50 O51 1.249 . S
C50 O52 1.270 . S
O51 Zn43 1.943 . S
O51 C50 1.249 . S
O52 Zn42 2.067 . S
O52 C50 1.270 . S
C53 O46 1.262 . S
C53 O54 1.232 . S
O54 C53 1.232 . S
C55 O47 1.260 . S
C55 O48 1.257 . S
Zn56 O59 2.031 . S
Zn56 O61 2.049 . S
Zn56 O66 2.067 . S
Zn57 O58 1.962 . S
Zn57 O60 1.986 . S
Zn57 O62 1.996 . S
Zn57 O65 1.943 . S
O58 Zn57 1.962 . S
O58 C63 1.254 . S
O59 Zn56 2.031 . S
O59 C63 1.269 . S
O60 Zn57 1.986 . S
O60 C67 1.262 . S
O61 Zn56 2.049 . S
O61 C69 1.260 . S
O62 Zn57 1.996 . S
O62 C69 1.257 . S
C63 O58 1.254 . S
C63 O59 1.269 . S
C64 O65 1.249 . S
C64 O66 1.270 . S
O65 Zn57 1.943 . S
O65 C64 1.249 . S
O66 Zn56 2.067 . S
O66 C64 1.270 . S
C67 O60 1.262 . S
C67 O68 1.232 . S
O68 C67 1.232 . S
C69 O61 1.260 . S
C69 O62 1.257 . S
Zn70 O73 2.031 . S
Zn70 O75 2.049 . S
Zn70 O80 2.067 . S
Zn71 O72 1.962 . S
Zn71 O74 1.986 . S
Zn71 O76 1.996 . S
Zn71 O79 1.943 . S
O72 Zn71 1.962 . S
O72 C77 1.254 . S
O73 Zn70 2.031 . S
O73 C77 1.269 . S
O74 Zn71 1.986 . S
O74 C81 1.262 . S
O75 Zn70 2.049 . S
O75 C83 1.260 . S
O76 Zn71 1.996 . S
O76 C83 1.257 . S
C77 O72 1.254 . S
C77 O73 1.269 . S
C78 O79 1.249 . S
C78 O80 1.270 . S
O79 Zn71 1.943 . S
O79 C78 1.249 . S
O80 Zn70 2.067 . S
O80 C78 1.270 . S
C81 O74 1.262 . S
C81 O82 1.232 . S
O82 C81 1.232 . S
C83 O75 1.260 . S
C83 O76 1.257 . S
Zn84 O87 2.031 . S
Zn84 O89 2.049 . S
Zn84 O94 2.067 . S
Zn85 O86 1.962 . S
Zn85 O88 1.986 . S
Zn85 O90 1.996 . S
Zn85 O93 1.943 . S
O86 Zn85 1.962 . S
O86 C91 1.254 . S
O87 Zn84 2.031 . S
O87 C91 1.269 . S
O88 Zn85 1.986 . S
O88 C95 1.262 . S
O89 Zn84 2.049 . S
O89 C97 1.260 . S
O90 Zn85 1.996 . S
O90 C97 1.257 . S
C91 O86 1.254 . S
C91 O87 1.269 . S
C92 O93 1.249 . S
C92 O94 1.270 . S
O93 Zn85 1.943 . S
O93 C92 1.249 . S
O94 Zn84 2.067 . S
O94 C92 1.270 . S
C95 O88 1.262 . S
C95 O96 1.232 . S
O96 C95 1.232 . S
C97 O89 1.260 . S
C97 O90 1.257 . S
Zn98 O101 2.031 1_565 S
Zn98 O103 2.049 . S
Zn98 O108 2.067 . S
Zn99 O100 1.962 . S
Zn99 O102 1.986 . S
Zn99 O104 1.996 . S
Zn99 O107 1.943 . S
O100 Zn99 1.962 . S
O100 C105 1.254 1_565 S
O101 Zn98 2.031 1_545 S
O101 C105 1.269 . S
O102 Zn99 1.986 . S
O102 C109 1.262 . S
O103 Zn98 2.049 . S
O103 C111 1.260 . S
O104 Zn99 1.996 . S
O104 C111 1.257 . S
C105 O100 1.254 1_545 S
C105 O101 1.269 . S
C106 O107 1.249 . S
C106 O108 1.270 . S
O107 Zn99 1.943 . S
O107 C106 1.249 . S
O108 Zn98 2.067 . S
O108 C106 1.270 . S
C109 O102 1.262 . S
C109 O110 1.232 . S
O110 C109 1.232 . S
C111 O103 1.260 . S
C111 O104 1.257 . S
Zn112 O115 2.031 . S
Zn112 O117 2.049 . S
Zn112 O122 2.067 . S
Zn113 O114 1.962 . S
Zn113 O116 1.986 . S
Zn113 O118 1.996 . S
Zn113 O121 1.943 . S
O114 Zn113 1.962 . S
O114 C119 1.254 . S
O115 Zn112 2.031 . S
O115 C119 1.269 . S
O116 Zn113 1.986 . S
O116 C123 1.262 . S
O117 Zn112 2.049 . S
O117 C125 1.260 . S
O118 Zn113 1.996 . S
O118 C125 1.257 . S
C119 O114 1.254 . S
C119 O115 1.269 . S
C120 O121 1.249 . S
C120 O122 1.270 . S
O121 Zn113 1.943 . S
O121 C120 1.249 . S
O122 Zn112 2.067 . S
O122 C120 1.270 . S
C123 O116 1.262 . S
C123 O124 1.232 . S
O124 C123 1.232 . S
C125 O117 1.260 . S
C125 O118 1.257 . S
Zn126 O129 2.031 . S
Zn126 O131 2.049 . S
Zn126 O136 2.067 . S
Zn127 O128 1.962 . S
Zn127 O130 1.986 . S
Zn127 O132 1.996 . S
Zn127 O135 1.943 . S
O128 Zn127 1.962 . S
O128 C133 1.254 . S
O129 Zn126 2.031 . S
O129 C133 1.269 . S
O130 Zn127 1.986 . S
O130 C137 1.262 . S
O131 Zn126 2.049 . S
O131 C139 1.260 . S
O132 Zn127 1.996 . S
O132 C139 1.257 . S
C133 O128 1.254 . S
C133 O129 1.269 . S
C134 O135 1.249 . S
C134 O136 1.270 . S
O135 Zn127 1.943 . S
O135 C134 1.249 . S
O136 Zn126 2.067 . S
O136 C134 1.270 . S
C137 O130 1.262 . S
C137 O138 1.232 . S
O138 C137 1.232 . S
C139 O131 1.260 . S
C139 O132 1.257 . S
Zn140 O143 2.031 . S
Zn140 O145 2.049 . S
Zn140 O150 2.067 . S
Zn141 O142 1.962 . S
Zn141 O144 1.986 . S
Zn141 O146 1.996 . S
Zn141 O149 1.943 . S
O142 Zn141 1.962 . S
O142 C147 1.254 . S
O143 Zn140 2.031 . S
O143 C147 1.269 . S
O144 Zn141 1.986 . S
O144 C151 1.262 . S
O145 Zn140 2.049 . S
O145 C153 1.260 . S
O146 Zn141 1.996 . S
O146 C153 1.257 . S
C147 O142 1.254 . S
C147 O143 1.269 . S
C148 O149 1.249 . S
C148 O150 1.270 . S
O149 Zn141 1.943 . S
O149 C148 1.249 . S
O150 Zn140 2.067 . S
O150 C148 1.270 . S
C151 O144 1.262 . S
C151 O152 1.232 . S
O152 C151 1.232 . S
C153 O145 1.260 . S
C153 O146 1.257 . S
Zn154 O157 2.031 . S
Zn154 O159 2.049 . S
Zn154 O164 2.067 . S
Zn155 O156 1.962 . S
Zn155 O158 1.986 . S
Zn155 O160 1.996 . S
Zn155 O163 1.943 . S
O156 Zn155 1.962 . S
O156 C161 1.254 . S
O157 Zn154 2.031 . S
O157 C161 1.269 . S
O158 Zn155 1.986 . S
O158 C165 1.262 . S
O159 Zn154 2.049 . S
O159 C167 1.260 . S
O160 Zn155 1.996 . S
O160 C167 1.257 . S
C161 O156 1.254 . S
C161 O157 1.269 . S
C162 O163 1.249 . S
C162 O164 1.270 . S
O163 Zn155 1.943 . S
O163 C162 1.249 . S
O164 Zn154 2.067 . S
O164 C162 1.270 . S
C165 O158 1.262 . S
C165 O166 1.232 . S
O166 C165 1.232 . S
C167 O159 1.260 . S
C167 O160 1.257 . S
C168 C169 1.369 1_556 S
C168 C170 1.419 . S
C168 H172 0.930 . S
C169 C168 1.369 1_554 S
C169 C178 1.429 . S
C170 C168 1.419 . S
C170 C171 1.363 . S
C170 H173 0.929 . S
C171 C170 1.363 . S
C171 C177 1.428 1_556 S
H172 C168 0.930 . S
H173 C170 0.929 . S
S174 N175 1.613 . S
S174 N176 1.610 . S
N175 S174 1.613 . S
N175 C178 1.350 . S
N176 S174 1.610 . S
N176 C177 1.351 . S
C177 C171 1.428 1_554 S
C177 N176 1.351 . S
C177 C178 1.434 . S
C178 C169 1.429 . S
C178 N175 1.350 . S
C178 C177 1.434 . S
C179 C180 1.369 . S
C179 C181 1.419 . S
C179 H183 0.930 . S
C180 C179 1.369 . S
C180 C189 1.429 . S
C181 C179 1.419 . S
C181 C182 1.363 . S
C181 H184 0.929 . S
C182 C181 1.363 . S
C182 C188 1.428 . S
H183 C179 0.930 . S
H184 C181 0.929 . S
S185 N186 1.613 . S
S185 N187 1.610 . S
N186 S185 1.613 . S
N186 C189 1.350 . S
N187 S185 1.610 . S
N187 C188 1.351 . S
C188 C182 1.428 . S
C188 N187 1.351 . S
C188 C189 1.434 . S
C189 C180 1.429 . S
C189 N186 1.350 . S
C189 C188 1.434 . S
C190 C191 1.369 . S
C190 C192 1.419 . S
C190 H194 0.930 . S
C191 C190 1.369 . S
C191 C200 1.429 . S
C192 C190 1.419 . S
C192 C193 1.363 . S
C192 H195 0.929 . S
C193 C192 1.363 . S
C193 C199 1.428 . S
H194 C190 0.930 . S
H195 C192 0.929 . S
S196 N197 1.613 . S
S196 N198 1.610 . S
N197 S196 1.613 . S
N197 C200 1.350 . S
N198 S196 1.610 . S
N198 C199 1.351 . S
C199 C193 1.428 . S
C199 N198 1.351 . S
C199 C200 1.434 . S
C200 C191 1.429 . S
C200 N197 1.350 . S
C200 C199 1.434 . S
C201 C202 1.369 1_556 S
C201 C203 1.419 . S
C201 H205 0.930 . S
C202 C201 1.369 1_554 S
C202 C211 1.429 . S
C203 C201 1.419 . S
C203 C204 1.363 . S
C203 H206 0.929 . S
C204 C203 1.363 . S
C204 C210 1.428 1_556 S
H205 C201 0.930 . S
H206 C203 0.929 . S
S207 N208 1.613 . S
S207 N209 1.610 . S
N208 S207 1.613 . S
N208 C211 1.350 . S
N209 S207 1.610 . S
N209 C210 1.351 . S
C210 C204 1.428 1_554 S
C210 N209 1.351 . S
C210 C211 1.434 . S
C211 C202 1.429 . S
C211 N208 1.350 . S
C211 C210 1.434 . S
C212 C213 1.369 . S
C212 C214 1.419 . S
C212 H216 0.930 . S
C213 C212 1.369 . S
C213 C222 1.429 . S
C214 C212 1.419 . S
C214 C215 1.363 . S
C214 H217 0.929 . S
C215 C214 1.363 . S
C215 C221 1.428 . S
H216 C212 0.930 . S
H217 C214 0.929 . S
S218 N219 1.613 . S
S218 N220 1.610 . S
N219 S218 1.613 . S
N219 C222 1.350 . S
N220 S218 1.610 . S
N220 C221 1.351 . S
C221 C215 1.428 . S
C221 N220 1.351 . S
C221 C222 1.434 . S
C222 C213 1.429 . S
C222 N219 1.350 . S
C222 C221 1.434 . S
C223 C224 1.369 . S
C223 C225 1.419 . S
C223 H227 0.930 . S
C224 C223 1.369 . S
C224 C233 1.429 . S
C225 C223 1.419 . S
C225 C226 1.363 . S
C225 H228 0.929 . S
C226 C225 1.363 . S
C226 C232 1.428 . S
H227 C223 0.930 . S
H228 C225 0.929 . S
S229 N230 1.613 . S
S229 N231 1.610 . S
N230 S229 1.613 . S
N230 C233 1.350 . S
N231 S229 1.610 . S
N231 C232 1.351 . S
C232 C226 1.428 . S
C232 N231 1.351 . S
C232 C233 1.434 . S
C233 C224 1.429 . S
C233 N230 1.350 . S
C233 C232 1.434 . S
C234 C235 1.369 . S
C234 C236 1.419 1_554 S
C234 H238 0.930 . S
C235 C234 1.369 . S
C235 C244 1.429 1_545 S
C236 C234 1.419 1_556 S
C236 C237 1.363 1_545 S
C236 H239 0.929 . S
C237 C236 1.363 1_565 S
C237 C243 1.428 . S
H238 C234 0.930 . S
H239 C236 0.929 . S
S240 N241 1.613 . S
S240 N242 1.610 1_554 S
N241 S240 1.613 . S
N241 C244 1.350 . S
N242 S240 1.610 1_556 S
N242 C243 1.351 . S
C243 C237 1.428 . S
C243 N242 1.351 . S
C243 C244 1.434 1_556 S
C244 C235 1.429 1_565 S
C244 N241 1.350 . S
C244 C243 1.434 1_554 S
C245 C246 1.369 . S
C245 C247 1.419 . S
C245 H249 0.930 . S
C246 C245 1.369 . S
C246 C255 1.429 . S
C247 C245 1.419 . S
C247 C248 1.363 . S
C247 H250 0.929 . S
C248 C247 1.363 . S
C248 C254 1.428 . S
H249 C245 0.930 . S
H250 C247 0.929 . S
S251 N252 1.613 . S
S251 N253 1.610 . S
N252 S251 1.613 . S
N252 C255 1.350 . S
N253 S251 1.610 . S
N253 C254 1.351 . S
C254 C248 1.428 . S
C254 N253 1.351 . S
C254 C255 1.434 . S
C255 C246 1.429 . S
C255 N252 1.350 . S
C255 C254 1.434 . S
C256 C257 1.369 . S
C256 C258 1.419 . S
C256 H260 0.930 . S
C257 C256 1.369 . S
C257 C266 1.429 . S
C258 C256 1.419 . S
C258 C259 1.363 . S
C258 H261 0.929 . S
C259 C258 1.363 . S
C259 C265 1.428 . S
H260 C256 0.930 . S
H261 C258 0.929 . S
S262 N263 1.613 . S
S262 N264 1.610 1_455 S
N263 S262 1.613 . S
N263 C266 1.350 . S
N264 S262 1.610 1_655 S
N264 C265 1.351 1_655 S
C265 C259 1.428 . S
C265 N264 1.351 1_455 S
C265 C266 1.434 . S
C266 C257 1.429 . S
C266 N263 1.350 . S
C266 C265 1.434 . S
C267 C268 1.369 . S
C267 C269 1.419 1_554 S
C267 H271 0.930 . S
C268 C267 1.369 . S
C268 C277 1.429 1_565 S
C269 C267 1.419 1_556 S
C269 C270 1.363 1_565 S
C269 H272 0.929 . S
C270 C269 1.363 1_545 S
C270 C276 1.428 . S
H271 C267 0.930 . S
H272 C269 0.929 . S
S273 N274 1.613 . S
S273 N275 1.610 1_554 S
N274 S273 1.613 . S
N274 C277 1.350 . S
N275 S273 1.610 1_556 S
N275 C276 1.351 . S
C276 C270 1.428 . S
C276 N275 1.351 . S
C276 C277 1.434 1_556 S
C277 C268 1.429 1_545 S
C277 N274 1.350 . S
C277 C276 1.434 1_554 S
C278 C279 1.369 . S
C278 C280 1.419 . S
C278 H282 0.930 . S
C279 C278 1.369 . S
C279 C288 1.429 . S
C280 C278 1.419 . S
C280 C281 1.363 . S
C280 H283 0.929 . S
C281 C280 1.363 . S
C281 C287 1.428 . S
H282 C278 0.930 . S
H283 C280 0.929 . S
S284 N285 1.613 . S
S284 N286 1.610 . S
N285 S284 1.613 . S
N285 C288 1.350 . S
N286 S284 1.610 . S
N286 C287 1.351 . S
C287 C281 1.428 . S
C287 N286 1.351 . S
C287 C288 1.434 . S
C288 C279 1.429 . S
C288 N285 1.350 . S
C288 C287 1.434 . S
C289 C290 1.369 . S
C289 C291 1.419 . S
C289 H293 0.930 . S
C290 C289 1.369 . S
C290 C299 1.429 1_455 S
C291 C289 1.419 . S
C291 C292 1.363 1_455 S
C291 H294 0.929 . S
C292 C291 1.363 1_655 S
C292 C298 1.428 . S
H293 C289 0.930 . S
H294 C291 0.929 . S
S295 N296 1.613 . S
S295 N297 1.610 . S
N296 S295 1.613 . S
N296 C299 1.350 . S
N297 S295 1.610 . S
N297 C298 1.351 . S
C298 C292 1.428 . S
C298 N297 1.351 . S
C298 C299 1.434 . S
C299 C290 1.429 1_655 S
C299 N296 1.350 . S
C299 C298 1.434 . S
C300 C301 1.369 . S
C300 C302 1.419 . S
C300 H304 0.930 . S
C301 C300 1.369 . S
C301 C310 1.429 . S
C302 C300 1.419 . S
C302 C303 1.363 . S
C302 H305 0.929 1_565 S
C303 C302 1.363 . S
C303 C309 1.428 . S
H304 C300 0.930 . S
H305 C302 0.929 1_545 S
S306 N307 1.613 . S
S306 N308 1.610 . S
N307 S306 1.613 . S
N307 C310 1.350 . S
N308 S306 1.610 . S
N308 C309 1.351 . S
C309 C303 1.428 . S
C309 N308 1.351 . S
C309 C310 1.434 . S
C310 C301 1.429 . S
C310 N307 1.350 . S
C310 C309 1.434 . S
C311 C312 1.369 . S
C311 C313 1.419 . S
C311 H315 0.930 . S
C312 C311 1.369 . S
C312 C321 1.429 . S
C313 C311 1.419 . S
C313 C314 1.363 . S
C313 H316 0.929 . S
C314 C313 1.363 . S
C314 C320 1.428 . S
H315 C311 0.930 . S
H316 C313 0.929 . S
S317 N318 1.613 . S
S317 N319 1.610 . S
N318 S317 1.613 . S
N318 C321 1.350 . S
N319 S317 1.610 . S
N319 C320 1.351 . S
C320 C314 1.428 . S
C320 N319 1.351 . S
C320 C321 1.434 . S
C321 C312 1.429 . S
C321 N318 1.350 . S
C321 C320 1.434 . S
C322 C323 1.369 . S
C322 C324 1.419 . S
C322 H326 0.930 . S
C323 C322 1.369 . S
C323 C332 1.429 . S
C324 C322 1.419 . S
C324 C325 1.362 1_455 S
C324 H327 0.929 . S
C325 C324 1.362 1_655 S
C325 C331 1.427 1_655 S
H326 C322 0.930 . S
H327 C324 0.929 . S
S328 N329 1.613 1_554 S
S328 N330 1.610 1_554 S
N329 S328 1.613 1_556 S
N329 C332 1.350 . S
N330 S328 1.610 1_556 S
N330 C331 1.351 . S
C331 C325 1.427 1_455 S
C331 N330 1.351 . S
C331 C332 1.434 . S
C332 C323 1.429 . S
C332 N329 1.350 . S
C332 C331 1.434 . S
C333 C334 1.369 1_455 S
C333 C335 1.419 . S
C333 H337 0.930 1_455 S
C334 C333 1.369 1_655 S
C334 C343 1.429 1_655 S
C335 C333 1.419 . S
C335 C336 1.363 . S
C335 H338 0.929 . S
C336 C335 1.363 . S
C336 C342 1.428 . S
H337 C333 0.930 1_655 S
H338 C335 0.929 . S
S339 N340 1.613 1_455 S
S339 N341 1.610 . S
N340 S339 1.613 1_655 S
N340 C343 1.350 1_655 S
N341 S339 1.610 . S
N341 C342 1.351 . S
C342 C336 1.428 . S
C342 N341 1.351 . S
C342 C343 1.434 . S
C343 C334 1.429 1_455 S
C343 N340 1.350 1_455 S
C343 C342 1.434 . S
C344 C345 1.369 . S
C344 C346 1.419 . S
C344 H348 0.930 1_545 S
C345 C344 1.369 . S
C345 C354 1.429 . S
C346 C344 1.419 . S
C346 C347 1.363 . S
C346 H349 0.929 . S
C347 C346 1.363 . S
C347 C353 1.428 . S
H348 C344 0.930 1_565 S
H349 C346 0.929 . S
S350 N351 1.613 . S
S350 N352 1.610 . S
N351 S350 1.613 . S
N351 C354 1.350 . S
N352 S350 1.610 . S
N352 C353 1.351 . S
C353 C347 1.428 . S
C353 N352 1.351 . S
C353 C354 1.434 . S
C354 C345 1.429 . S
C354 N351 1.350 . S
C354 C353 1.434 . S
C355 C356 1.369 . S
C355 C357 1.419 . S
C355 H359 0.930 . S
C356 C355 1.369 . S
C356 C365 1.429 . S
C357 C355 1.419 . S
C357 C358 1.363 . S
C357 H360 0.929 . S
C358 C357 1.363 . S
C358 C364 1.428 . S
H359 C355 0.930 . S
H360 C357 0.929 . S
S361 N362 1.613 . S
S361 N363 1.610 . S
N362 S361 1.613 . S
N362 C365 1.350 . S
N363 S361 1.610 . S
N363 C364 1.351 . S
C364 C358 1.428 . S
C364 N363 1.351 . S
C364 C365 1.434 . S
C365 C356 1.429 . S
C365 N362 1.350 . S
C365 C364 1.434 . S
C366 C367 1.369 . S
C366 C368 1.419 . S
C366 H370 0.930 . S
C367 C366 1.369 . S
C367 C376 1.429 . S
C368 C366 1.419 . S
C368 C369 1.363 . S
C368 H371 0.929 . S
C369 C368 1.363 . S
C369 C375 1.428 . S
H370 C366 0.930 . S
H371 C368 0.929 . S
S372 N373 1.613 . S
S372 N374 1.610 . S
N373 S372 1.613 . S
N373 C376 1.350 . S
N374 S372 1.610 . S
N374 C375 1.351 . S
C375 C369 1.428 . S
C375 N374 1.351 . S
C375 C376 1.434 . S
C376 C367 1.429 . S
C376 N373 1.350 . S
C376 C375 1.434 . S
C377 C378 1.369 . S
C377 C379 1.419 . S
C377 H381 0.930 . S
C378 C377 1.369 . S
C378 C387 1.429 . S
C379 C377 1.419 . S
C379 C380 1.363 . S
C379 H382 0.929 . S
C380 C379 1.363 . S
C380 C386 1.428 . S
H381 C377 0.930 . S
H382 C379 0.929 . S
S383 N384 1.613 . S
S383 N385 1.610 . S
N384 S383 1.613 . S
N384 C387 1.350 . S
N385 S383 1.610 . S
N385 C386 1.351 . S
C386 C380 1.428 . S
C386 N385 1.351 . S
C386 C387 1.434 . S
C387 C378 1.429 . S
C387 N384 1.350 . S
C387 C386 1.434 . S
C388 C389 1.369 . S
C388 C390 1.419 . S
C388 H392 0.930 . S
C389 C388 1.369 . S
C389 C398 1.429 . S
C390 C388 1.419 . S
C390 C391 1.363 . S
C390 H393 0.929 . S
C391 C390 1.363 . S
C391 C397 1.428 . S
H392 C388 0.930 . S
H393 C390 0.929 . S
S394 N395 1.613 . S
S394 N396 1.610 . S
N395 S394 1.613 . S
N395 C398 1.350 . S
N396 S394 1.610 . S
N396 C397 1.351 . S
C397 C391 1.428 . S
C397 N396 1.351 . S
C397 C398 1.434 . S
C398 C389 1.429 . S
C398 N395 1.350 . S
C398 C397 1.434 . S
C399 C400 1.369 . S
C399 C401 1.419 . S
C399 H403 0.930 . S
C400 C399 1.369 . S
C400 C409 1.429 . S
C401 C399 1.419 . S
C401 C402 1.363 . S
C401 H404 0.929 . S
C402 C401 1.363 . S
C402 C408 1.428 . S
H403 C399 0.930 . S
H404 C401 0.929 . S
S405 N406 1.613 . S
S405 N407 1.610 . S
N406 S405 1.613 . S
N406 C409 1.350 . S
N407 S405 1.610 . S
N407 C408 1.351 . S
C408 C402 1.428 . S
C408 N407 1.351 . S
C408 C409 1.434 . S
C409 C400 1.429 . S
C409 N406 1.350 . S
C409 C408 1.434 . S
C410 C411 1.369 . S
C410 C412 1.419 . S
C410 H414 0.930 . S
C411 C410 1.369 . S
C411 C420 1.429 . S
C412 C410 1.419 . S
C412 C413 1.363 . S
C412 H415 0.929 . S
C413 C412 1.363 . S
C413 C419 1.428 . S
H414 C410 0.930 . S
H415 C412 0.929 . S
S416 N417 1.613 . S
S416 N418 1.610 . S
N417 S416 1.613 . S
N417 C420 1.350 . S
N418 S416 1.610 . S
N418 C419 1.351 . S
C419 C413 1.428 . S
C419 N418 1.351 . S
C419 C420 1.434 . S
C420 C411 1.429 . S
C420 N417 1.350 . S
C420 C419 1.434 . S
C421 C422 1.369 . S
C421 C423 1.419 . S
C421 H425 0.930 . S
C422 C421 1.369 . S
C422 C431 1.429 . S
C423 C421 1.419 . S
C423 C424 1.363 . S
C423 H426 0.929 . S
C424 C423 1.363 . S
C424 C430 1.428 . S
H425 C421 0.930 . S
H426 C423 0.929 . S
S427 N428 1.613 . S
S427 N429 1.610 . S
N428 S427 1.613 . S
N428 C431 1.350 . S
N429 S427 1.610 . S
N429 C430 1.351 . S
C430 C424 1.428 . S
C430 N429 1.351 . S
C430 C431 1.434 . S
C431 C422 1.429 . S
C431 N428 1.350 . S
C431 C430 1.434 . S
C169 C13 0.707 . S
C171 C153 0.709 . S
C180 C167 0.734 . S
C182 C27 0.660 . S
C191 C97 0.654 . S
C193 C41 0.730 . S
C202 C55 0.707 . S
C204 C111 0.709 . S
C213 C69 0.761 . S
C215 C125 0.720 . S
C224 C139 0.756 . S
C226 C83 0.716 . S
C235 C8 1.161 . S
C237 C106 1.152 . S
C246 C120 1.984 . S
C248 C22 1.331 . S
C257 C134 1.159 . S
C259 C36 1.131 1_455 S
C268 C50 1.148 . S
C270 C148 1.145 . S
C279 C162 1.135 . S
C281 C64 1.156 . S
C290 C78 1.987 . S
C292 C92 1.331 . S
C301 C49 1.111 . S
C303 C7 1.122 . S
C312 C63 0.781 . S
C314 C21 0.817 . S
C323 C77 0.846 . S
C325 C35 0.810 . S
C334 C91 0.826 . S
C336 C133 0.803 . S
C345 C105 1.128 . S
C347 C147 1.119 . S
C356 C119 0.839 . S
C358 C161 0.799 . S
C367 C123 1.630 . S
C369 C11 1.578 . S
C378 C137 1.919 . S
C380 C25 1.742 . S
C389 C151 1.679 . S
C391 C39 1.688 . S
C400 C165 1.693 . S
C402 C53 1.673 . S
C411 C95 1.740 . S
C413 C67 1.918 . S
C422 C81 1.623 . S
C424 C109 1.584 . S
