# Generated by pormake.
# Topology uox, (4)-cn, num edge types: 1
# Building blocks:
#     Node 0, Type 0, BuildingBlock: NAHDIM_clean_sbu_0, # of connection points: 4
#     Node 1, Type 0, BuildingBlock: NAHDIM_clean_sbu_0, # of connection points: 4
#     Node 2, Type 0, BuildingBlock: NAHDIM_clean_sbu_0, # of connection points: 4
#     Node 3, Type 0, BuildingBlock: NAHDIM_clean_sbu_0, # of connection points: 4
#     Node 4, Type 0, BuildingBlock: NAHDIM_clean_sbu_0, # of connection points: 4
#     Node 5, Type 0, BuildingBlock: NAHDIM_clean_sbu_0, # of connection points: 4
#     Node 6, Type 0, BuildingBlock: NAHDIM_clean_sbu_0, # of connection points: 4
#     Node 7, Type 0, BuildingBlock: NAHDIM_clean_sbu_0, # of connection points: 4
#     Node 8, Type 0, BuildingBlock: NAHDIM_clean_sbu_0, # of connection points: 4
#     Node 9, Type 0, BuildingBlock: NAHDIM_clean_sbu_0, # of connection points: 4
#     Node 10, Type 0, BuildingBlock: NAHDIM_clean_sbu_0, # of connection points: 4
#     Node 11, Type 0, BuildingBlock: NAHDIM_clean_sbu_0, # of connection points: 4
#     Node 12, Type 0, BuildingBlock: NAHDIM_clean_sbu_0, # of connection points: 4
#     Node 13, Type 0, BuildingBlock: NAHDIM_clean_sbu_0, # of connection points: 4
#     Node 14, Type 0, BuildingBlock: NAHDIM_clean_sbu_0, # of connection points: 4
#     Node 15, Type 0, BuildingBlock: NAHDIM_clean_sbu_0, # of connection points: 4
#     Node 16, Type 0, BuildingBlock: NAHDIM_clean_sbu_0, # of connection points: 4
#     Node 17, Type 0, BuildingBlock: NAHDIM_clean_sbu_0, # of connection points: 4
#     Node 18, Type 0, BuildingBlock: NAHDIM_clean_sbu_0, # of connection points: 4
#     Node 19, Type 0, BuildingBlock: NAHDIM_clean_sbu_0, # of connection points: 4
#     Node 20, Type 0, BuildingBlock: NAHDIM_clean_sbu_0, # of connection points: 4
#     Node 21, Type 0, BuildingBlock: NAHDIM_clean_sbu_0, # of connection points: 4
#     Node 22, Type 0, BuildingBlock: NAHDIM_clean_sbu_0, # of connection points: 4
#     Node 23, Type 0, BuildingBlock: NAHDIM_clean_sbu_0, # of connection points: 4
#     Node 24, Type 0, BuildingBlock: NAHDIM_clean_sbu_0, # of connection points: 4
#     Node 25, Type 0, BuildingBlock: NAHDIM_clean_sbu_0, # of connection points: 4
#     Node 26, Type 0, BuildingBlock: NAHDIM_clean_sbu_0, # of connection points: 4
#     Node 27, Type 0, BuildingBlock: NAHDIM_clean_sbu_0, # of connection points: 4
#     Node 28, Type 0, BuildingBlock: NAHDIM_clean_sbu_0, # of connection points: 4
#     Node 29, Type 0, BuildingBlock: NAHDIM_clean_sbu_0, # of connection points: 4
#     Node 30, Type 0, BuildingBlock: NAHDIM_clean_sbu_0, # of connection points: 4
#     Node 31, Type 0, BuildingBlock: NAHDIM_clean_sbu_0, # of connection points: 4
#     Edge 32, Type (0, 0), BuildingBlock: UVAHIK_clean_linker_0, # of connection points: 2
#     Edge 33, Type (0, 0), BuildingBlock: UVAHIK_clean_linker_0, # of connection points: 2
#     Edge 34, Type (0, 0), BuildingBlock: UVAHIK_clean_linker_0, # of connection points: 2
#     Edge 35, Type (0, 0), BuildingBlock: UVAHIK_clean_linker_0, # of connection points: 2
#     Edge 36, Type (0, 0), BuildingBlock: UVAHIK_clean_linker_0, # of connection points: 2
#     Edge 37, Type (0, 0), BuildingBlock: UVAHIK_clean_linker_0, # of connection points: 2
#     Edge 38, Type (0, 0), BuildingBlock: UVAHIK_clean_linker_0, # of connection points: 2
#     Edge 39, Type (0, 0), BuildingBlock: UVAHIK_clean_linker_0, # of connection points: 2
#     Edge 40, Type (0, 0), BuildingBlock: UVAHIK_clean_linker_0, # of connection points: 2
#     Edge 41, Type (0, 0), BuildingBlock: UVAHIK_clean_linker_0, # of connection points: 2
#     Edge 42, Type (0, 0), BuildingBlock: UVAHIK_clean_linker_0, # of connection points: 2
#     Edge 43, Type (0, 0), BuildingBlock: UVAHIK_clean_linker_0, # of connection points: 2
#     Edge 44, Type (0, 0), BuildingBlock: UVAHIK_clean_linker_0, # of connection points: 2
#     Edge 45, Type (0, 0), BuildingBlock: UVAHIK_clean_linker_0, # of connection points: 2
#     Edge 46, Type (0, 0), BuildingBlock: UVAHIK_clean_linker_0, # of connection points: 2
#     Edge 47, Type (0, 0), BuildingBlock: UVAHIK_clean_linker_0, # of connection points: 2
#     Edge 48, Type (0, 0), BuildingBlock: UVAHIK_clean_linker_0, # of connection points: 2
#     Edge 49, Type (0, 0), BuildingBlock: UVAHIK_clean_linker_0, # of connection points: 2
#     Edge 50, Type (0, 0), BuildingBlock: UVAHIK_clean_linker_0, # of connection points: 2
#     Edge 51, Type (0, 0), BuildingBlock: UVAHIK_clean_linker_0, # of connection points: 2
#     Edge 52, Type (0, 0), BuildingBlock: UVAHIK_clean_linker_0, # of connection points: 2
#     Edge 53, Type (0, 0), BuildingBlock: UVAHIK_clean_linker_0, # of connection points: 2
#     Edge 54, Type (0, 0), BuildingBlock: UVAHIK_clean_linker_0, # of connection points: 2
#     Edge 55, Type (0, 0), BuildingBlock: UVAHIK_clean_linker_0, # of connection points: 2
#     Edge 56, Type (0, 0), BuildingBlock: UVAHIK_clean_linker_0, # of connection points: 2
#     Edge 57, Type (0, 0), BuildingBlock: UVAHIK_clean_linker_0, # of connection points: 2
#     Edge 58, Type (0, 0), BuildingBlock: UVAHIK_clean_linker_0, # of connection points: 2
#     Edge 59, Type (0, 0), BuildingBlock: UVAHIK_clean_linker_0, # of connection points: 2
#     Edge 60, Type (0, 0), BuildingBlock: UVAHIK_clean_linker_0, # of connection points: 2
#     Edge 61, Type (0, 0), BuildingBlock: UVAHIK_clean_linker_0, # of connection points: 2
#     Edge 62, Type (0, 0), BuildingBlock: UVAHIK_clean_linker_0, # of connection points: 2
#     Edge 63, Type (0, 0), BuildingBlock: UVAHIK_clean_linker_0, # of connection points: 2
#     Edge 64, Type (0, 0), BuildingBlock: UVAHIK_clean_linker_0, # of connection points: 2
#     Edge 65, Type (0, 0), BuildingBlock: UVAHIK_clean_linker_0, # of connection points: 2
#     Edge 66, Type (0, 0), BuildingBlock: UVAHIK_clean_linker_0, # of connection points: 2
#     Edge 67, Type (0, 0), BuildingBlock: UVAHIK_clean_linker_0, # of connection points: 2
#     Edge 68, Type (0, 0), BuildingBlock: UVAHIK_clean_linker_0, # of connection points: 2
#     Edge 69, Type (0, 0), BuildingBlock: UVAHIK_clean_linker_0, # of connection points: 2
#     Edge 70, Type (0, 0), BuildingBlock: UVAHIK_clean_linker_0, # of connection points: 2
#     Edge 71, Type (0, 0), BuildingBlock: UVAHIK_clean_linker_0, # of connection points: 2
#     Edge 72, Type (0, 0), BuildingBlock: UVAHIK_clean_linker_0, # of connection points: 2
#     Edge 73, Type (0, 0), BuildingBlock: UVAHIK_clean_linker_0, # of connection points: 2
#     Edge 74, Type (0, 0), BuildingBlock: UVAHIK_clean_linker_0, # of connection points: 2
#     Edge 75, Type (0, 0), BuildingBlock: UVAHIK_clean_linker_0, # of connection points: 2
#     Edge 76, Type (0, 0), BuildingBlock: UVAHIK_clean_linker_0, # of connection points: 2
#     Edge 77, Type (0, 0), BuildingBlock: UVAHIK_clean_linker_0, # of connection points: 2
#     Edge 78, Type (0, 0), BuildingBlock: UVAHIK_clean_linker_0, # of connection points: 2
#     Edge 79, Type (0, 0), BuildingBlock: UVAHIK_clean_linker_0, # of connection points: 2
#     Edge 80, Type (0, 0), BuildingBlock: UVAHIK_clean_linker_0, # of connection points: 2
#     Edge 81, Type (0, 0), BuildingBlock: UVAHIK_clean_linker_0, # of connection points: 2
#     Edge 82, Type (0, 0), BuildingBlock: UVAHIK_clean_linker_0, # of connection points: 2
#     Edge 83, Type (0, 0), BuildingBlock: UVAHIK_clean_linker_0, # of connection points: 2
#     Edge 84, Type (0, 0), BuildingBlock: UVAHIK_clean_linker_0, # of connection points: 2
#     Edge 85, Type (0, 0), BuildingBlock: UVAHIK_clean_linker_0, # of connection points: 2
#     Edge 86, Type (0, 0), BuildingBlock: UVAHIK_clean_linker_0, # of connection points: 2
#     Edge 87, Type (0, 0), BuildingBlock: UVAHIK_clean_linker_0, # of connection points: 2
#     Edge 88, Type (0, 0), BuildingBlock: UVAHIK_clean_linker_0, # of connection points: 2
#     Edge 89, Type (0, 0), BuildingBlock: UVAHIK_clean_linker_0, # of connection points: 2
#     Edge 90, Type (0, 0), BuildingBlock: UVAHIK_clean_linker_0, # of connection points: 2
#     Edge 91, Type (0, 0), BuildingBlock: UVAHIK_clean_linker_0, # of connection points: 2
#     Edge 92, Type (0, 0), BuildingBlock: UVAHIK_clean_linker_0, # of connection points: 2
#     Edge 93, Type (0, 0), BuildingBlock: UVAHIK_clean_linker_0, # of connection points: 2
#     Edge 94, Type (0, 0), BuildingBlock: UVAHIK_clean_linker_0, # of connection points: 2
#     Edge 95, Type (0, 0), BuildingBlock: UVAHIK_clean_linker_0, # of connection points: 2
# Relax obj value: 0.108
# Max RMSD: 0.138
# Mean RMSD: 0.138
data_MOF--net-uox--node1-NAHDIM_clean_sbu_0--edge1-UVAHIK_clean_linker_0
_symmetry_space_group_name_H-M    P1
_symmetry_Int_Tables_number       1
_symmetry_cell_setting            triclinic
loop_
_symmetry_equiv_pos_as_xyz
'x, y, z'
_cell_length_a     57.680533
_cell_length_b     57.656522
_cell_length_c     104.56058
_cell_angle_alpha  89.947831
_cell_angle_beta   90.039544
_cell_angle_gamma 89.988722
loop_
_atom_site_label
_atom_site_type_symbol
_atom_site_fract_x
_atom_site_fract_y
_atom_site_fract_z
_atom_type_partial_charge
C0 C 0.44816 0.00083 0.17823 0.0
O1 O 0.45345 0.98394 0.17033 0.0
O2 O 0.46688 0.03047 0.14676 0.0
Zn3 Zn 0.43603 0.02326 0.15472 0.0
O4 O 0.42274 0.99358 0.14771 0.0
C5 C 0.39948 0.04896 0.14204 0.0
O6 O 0.39839 0.0302 0.13495 0.0
O7 O 0.44038 0.01979 0.17373 0.0
C8 C 0.40477 0.9856 0.15318 0.0
O9 O 0.39609 -0.00309 0.16299 0.0
C10 C 0.46873 0.03556 0.13497 0.0
O11 O 0.45014 0.03519 0.12771 0.0
O12 O 0.41412 0.04986 0.15113 0.0
C13 C 0.22944 0.18427 0.42937 0.0
O14 O 0.24087 0.19943 0.42242 0.0
O15 O 0.20367 0.20239 0.39927 0.0
Zn16 Zn 0.21417 0.17048 0.40466 0.0
O17 O 0.2456 0.16174 0.39776 0.0
C18 C 0.17879 0.15039 0.38875 0.0
O19 O 0.18279 0.16914 0.38195 0.0
O20 O 0.2163 0.16975 0.42381 0.0
C21 C 0.24876 0.15429 0.38646 0.0
O22 O 0.2311 0.15338 0.37854 0.0
C23 C 0.21189 0.21447 0.39017 0.0
O24 O 0.22952 0.2065 0.38355 0.0
O25 O 0.19031 0.14704 0.39895 0.0
C26 C 0.04449 0.98502 0.67629 0.0
O27 O 0.04363 0.00327 0.66878 0.0
O28 O 0.0311 0.95686 0.64234 0.0
Zn29 Zn 0.05932 0.96373 0.653 0.0
O30 O 0.07531 0.99352 0.64824 0.0
C31 C 0.09324 0.93658 0.64004 0.0
O32 O 0.09033 0.95307 0.6315 0.0
O33 O 0.05051 0.96558 0.67161 0.0
C34 C 0.07273 0.00552 0.63814 0.0
O35 O 0.05799 -0.0013 0.62934 0.0
C36 C 0.01312 0.96949 0.64144 0.0
O37 O 0.01249 0.98951 0.64743 0.0
O38 O 0.08177 0.93743 0.6504 0.0
C39 C 0.26317 0.80067 0.93327 0.0
O40 O 0.25398 0.78347 0.92677 0.0
O41 O 0.28434 0.78089 0.90334 0.0
Zn42 Zn 0.27788 0.81417 0.90823 0.0
O43 O 0.24835 0.82655 0.90041 0.0
C44 C 0.3169 0.82867 0.89294 0.0
O45 O 0.31183 0.80957 0.8867 0.0
O46 O 0.27462 0.81612 0.92734 0.0
C47 C 0.24769 0.83455 0.88909 0.0
O48 O 0.26644 0.83368 0.88199 0.0
C49 C 0.2765 0.77079 0.89344 0.0
O50 O 0.26233 0.78201 0.88579 0.0
O51 O 0.30481 0.83425 0.90263 0.0
C52 C 0.44409 0.97294 0.3147 0.0
O53 O 0.44438 0.99151 0.32197 0.0
O54 O 0.45933 0.94199 0.34877 0.0
Zn55 Zn 0.43146 0.95147 0.33847 0.0
O56 O 0.41813 0.98199 0.34417 0.0
C57 C 0.40107 0.92324 0.35279 0.0
O58 O 0.41054 0.93558 0.36197 0.0
O59 O 0.43936 0.9534 0.31972 0.0
C60 C 0.4232 0.99296 0.35432 0.0
O61 O 0.43872 0.98436 0.36221 0.0
C62 C 0.4794 0.95095 0.34801 0.0
O63 O 0.48292 0.96842 0.34017 0.0
O64 O 0.40717 0.927 0.3413 0.0
C65 C 0.2639 0.1762 0.56574 0.0
O66 O 0.25526 0.15919 0.57261 0.0
O67 O 0.28933 0.2233 0.5963 0.0
Zn68 Zn 0.27875 0.19179 0.5904 0.0
O69 O 0.24855 0.18169 0.59824 0.0
C70 C 0.32258 0.16804 0.58924 0.0
O71 O 0.32617 0.18259 0.57977 0.0
O72 O 0.27498 0.19234 0.57131 0.0
C73 C 0.24815 0.17197 0.60915 0.0
O74 O 0.2675 0.17025 0.61572 0.0
C75 C 0.28383 0.2331 0.60674 0.0
O76 O 0.26925 0.22279 0.61453 0.0
O77 O 0.30334 0.16862 0.59513 0.0
C78 C 0.04234 0.00999 0.81254 0.0
O79 O 0.04446 0.99145 0.81976 0.0
O80 O 0.02745 0.04003 0.84703 0.0
Zn81 Zn 0.05507 0.03317 0.83591 0.0
O82 O 0.0721 0.00434 0.84136 0.0
C83 C 0.08909 0.0623 0.84754 0.0
O84 O 0.08714 0.04665 0.85661 0.0
O85 O 0.04557 0.02988 0.81746 0.0
C86 C 0.06925 0.99337 0.85178 0.0
O87 O 0.05372 0.00067 0.86003 0.0
C88 C 0.00725 0.03203 0.84505 0.0
O89 O 0.0039 0.01753 0.83554 0.0
O90 O 0.07697 0.06018 0.83745 0.0
C91 C 0.21813 0.8247 0.06808 0.0
O92 O 0.2222 0.8446 0.07377 0.0
O93 O 0.19104 0.78342 0.10119 0.0
Zn94 Zn 0.20339 0.81266 0.09329 0.0
O95 O 0.23209 0.82325 0.10251 0.0
C96 C 0.17399 0.84322 0.10678 0.0
O97 O 0.18453 0.83285 0.11635 0.0
O98 O 0.20989 0.80801 0.07458 0.0
C99 C 0.25269 0.81948 0.09875 0.0
O100 O 0.25617 0.80713 0.08838 0.0
C101 C 0.19952 0.76345 0.09909 0.0
O102 O 0.21751 0.76144 0.09147 0.0
O103 O 0.17924 0.83745 0.09542 0.0
C104 C 0.54742 0.97699 0.81084 0.0
O105 O 0.54708 0.99471 0.81873 0.0
O106 O 0.52975 0.94493 0.84378 0.0
Zn107 Zn 0.55875 0.95292 0.83402 0.0
O108 O 0.57276 0.98263 0.84043 0.0
C109 C 0.60209 0.9292 0.84031 0.0
O110 O 0.60981 0.9502 0.84263 0.0
O111 O 0.55168 0.95685 0.81524 0.0
C112 C 0.57375 0.98891 0.85205 0.0
O113 O 0.56494 0.97545 0.86095 0.0
C114 C 0.50999 0.95375 0.84147 0.0
O115 O 0.50803 0.9695 0.83245 0.0
O116 O 0.58137 0.9265 0.8364 0.0
C117 C 0.76109 0.79725 0.56633 0.0
O118 O 0.74288 0.797 0.57386 0.0
O119 O 0.79009 0.78468 0.60083 0.0
Zn120 Zn 0.78287 0.81207 0.5895 0.0
O121 O 0.75293 0.82758 0.59434 0.0
C122 C 0.81362 0.84164 0.60298 0.0
O123 O 0.80202 0.83268 0.6126 0.0
O124 O 0.78074 0.80264 0.57098 0.0
C125 C 0.74307 0.82663 0.60518 0.0
O126 O 0.75251 0.81439 0.61442 0.0
C127 C 0.78409 0.76391 0.59848 0.0
O128 O 0.77163 0.75947 0.58826 0.0
O129 O 0.80853 0.83539 0.59167 0.0
C130 C 0.93497 0.01178 0.31538 0.0
O131 O 0.93211 0.99379 0.32293 0.0
O132 O 0.96022 0.04059 0.34827 0.0
Zn133 Zn 0.92988 0.03641 0.33908 0.0
O134 O 0.91168 0.00939 0.3458 0.0
C135 C 0.90636 0.07076 0.35339 0.0
O136 O 0.91504 0.05821 0.36274 0.0
O137 O 0.93507 0.03203 0.32019 0.0
C138 C 0.9166 -0.00354 0.35526 0.0
O139 O 0.93563 0.00029 0.36183 0.0
C140 C 0.9787 0.02987 0.3453 0.0
O141 O 0.97818 0.01449 0.33605 0.0
O142 O 0.91057 0.06492 0.34191 0.0
C143 C 0.72976 0.19938 0.0649 0.0
O144 O 0.74779 0.19822 0.07256 0.0
O145 O 0.69828 0.21804 0.09827 0.0
Zn146 Zn 0.7054 0.18923 0.08819 0.0
O147 O 0.73395 0.17273 0.09444 0.0
C148 C 0.67558 0.15708 0.10072 0.0
O149 O 0.6905 0.16073 0.11 0.0
O150 O 0.70955 0.1967 0.06952 0.0
C151 C 0.74531 0.17688 0.10459 0.0
O152 O 0.73849 0.1936 0.11224 0.0
C153 C 0.70901 0.23718 0.0972 0.0
O154 O 0.72668 0.23868 0.08932 0.0
O155 O 0.67836 0.16752 0.09012 0.0
C156 C 0.54688 0.01173 0.67489 0.0
O157 O 0.54607 0.99368 0.66725 0.0
O158 O 0.53008 0.04294 0.64142 0.0
Zn159 Zn 0.55877 0.03479 0.65146 0.0
O160 O 0.57266 0.00488 0.64524 0.0
C161 C 0.60175 0.05842 0.64427 0.0
O162 O 0.609 0.03752 0.64128 0.0
O163 O 0.5516 0.03156 0.67024 0.0
C164 C 0.57309 -0.00132 0.6336 0.0
O165 O 0.56368 0.01215 0.62488 0.0
C166 C 0.50947 0.03927 0.64521 0.0
O167 O 0.50604 0.02871 0.65618 0.0
O168 O 0.58155 0.06101 0.64892 0.0
C169 C 0.73477 0.79389 0.42984 0.0
O170 O 0.753 0.79193 0.42238 0.0
O171 O 0.70652 0.77326 0.39724 0.0
Zn172 Zn 0.71249 0.80384 0.40593 0.0
O173 O 0.74169 0.81892 0.3994 0.0
C174 C 0.66485 0.81976 0.40385 0.0
O175 O 0.65994 0.79909 0.4084 0.0
O176 O 0.71524 0.79881 0.4249 0.0
C177 C 0.74077 0.83167 0.3895 0.0
O178 O 0.72096 0.83386 0.38341 0.0
C179 C 0.69867 0.77261 0.38589 0.0
O180 O 0.69521 0.79215 0.37972 0.0
O181 O 0.68592 0.82548 0.4023 0.0
C182 C 0.93644 0.98552 0.17856 0.0
O183 O 0.94385 0.00259 0.17129 0.0
O184 O 0.96217 0.96211 0.14854 0.0
Zn185 Zn 0.92895 0.96594 0.15411 0.0
O186 O 0.91502 0.99578 0.14762 0.0
C187 C 0.91521 0.92808 0.13781 0.0
O188 O 0.93328 0.93519 0.13127 0.0
O189 O 0.9288 0.9672 0.17329 0.0
C190 C 0.90523 -0.00237 0.13678 0.0
O191 O 0.90469 0.97962 0.12911 0.0
C192 C 0.97107 0.97044 0.1384 0.0
O193 O 0.95826 0.98313 0.13072 0.0
O194 O 0.90984 0.93857 0.14809 0.0
C195 C 0.75426 0.18755 0.9284 0.0
O196 O 0.7367 0.19304 0.92098 0.0
O197 O 0.77998 0.20802 0.8961 0.0
Zn198 Zn 0.77413 0.17675 0.90421 0.0
O199 O 0.74409 0.16299 0.89825 0.0
C200 C 0.82048 0.15759 0.9029 0.0
O201 O 0.82551 0.17499 0.91052 0.0
O202 O 0.77274 0.1798 0.92336 0.0
C203 C 0.7378 0.16288 0.88661 0.0
O204 O 0.75103 0.17289 0.87799 0.0
C205 C 0.78923 0.22407 0.90269 0.0
O206 O 0.79428 0.22008 0.91474 0.0
O207 O 0.7997 0.15493 0.89915 0.0
C208 C 0.94259 0.53344 0.68354 0.0
O209 O 0.9578 0.54814 0.67887 0.0
O210 O 0.95919 0.54009 0.65145 0.0
Zn211 Zn 0.92714 0.53094 0.6572 0.0
O212 O 0.9162 0.50194 0.64839 0.0
C213 C 0.9071 0.57704 0.65792 0.0
O214 O 0.92408 0.58106 0.666 0.0
O215 O 0.92766 0.52443 0.6761 0.0
C216 C 0.90531 0.50279 0.63783 0.0
O217 O 0.90201 0.52298 0.63229 0.0
C218 C 0.96451 0.54356 0.63982 0.0
O219 O 0.94876 0.54039 0.63092 0.0
O220 O 0.90492 0.55689 0.65316 0.0
C221 C 0.7432 0.6954 0.92155 0.0
O222 O 0.76212 0.69331 0.91466 0.0
O223 O 0.71423 0.71068 0.88684 0.0
Zn224 Zn 0.72136 0.68285 0.89776 0.0
O225 O 0.75105 0.66698 0.89265 0.0
C226 C 0.69392 0.64643 0.88646 0.0
O227 O 0.71115 0.64596 0.87825 0.0
O228 O 0.72359 0.69216 0.91629 0.0
C229 C 0.76143 0.66953 0.88203 0.0
O230 O 0.75265 0.68352 0.87336 0.0
C231 C 0.72338 0.73055 0.88827 0.0
O232 O 0.73942 0.73344 0.89705 0.0
O233 O 0.6947 0.66058 0.89576 0.0
C234 C 0.5441 0.49245 0.17253 0.0
O235 O 0.54365 0.51038 0.16477 0.0
O236 O 0.52501 0.46098 0.13969 0.0
Zn237 Zn 0.55457 0.46832 0.14919 0.0
O238 O 0.5695 0.49731 0.14237 0.0
C239 C 0.59729 0.44267 0.14375 0.0
O240 O 0.60667 0.46329 0.14242 0.0
O241 O 0.54828 0.47243 0.168 0.0
C242 C 0.57225 0.50125 0.13052 0.0
O243 O 0.56459 0.48606 0.12216 0.0
C244 C 0.50491 0.46442 0.14429 0.0
O245 O 0.50286 0.4743 0.15554 0.0
O246 O 0.57599 0.44103 0.14675 0.0
C247 C 0.75092 0.31094 0.42368 0.0
O248 O 0.73344 0.30503 0.41631 0.0
O249 O 0.7806 0.28542 0.39398 0.0
Zn250 Zn 0.77261 0.31796 0.39941 0.0
O251 O 0.74231 0.32912 0.392 0.0
C252 C 0.81073 0.33579 0.38449 0.0
O253 O 0.80617 0.31738 0.37755 0.0
O254 O 0.76978 0.31753 0.41855 0.0
C255 C 0.7407 0.33854 0.38104 0.0
O256 O 0.7593 0.3403 0.37387 0.0
C257 C 0.77522 0.27562 0.38351 0.0
O258 O 0.76263 0.28689 0.37507 0.0
O259 O 0.79856 0.33979 0.39439 0.0
C260 C 0.95138 0.46999 0.81648 0.0
O261 O 0.96084 0.48487 0.82443 0.0
O262 O 0.96373 0.43978 0.84881 0.0
Zn263 Zn 0.93491 0.4514 0.84 0.0
O264 O 0.92492 0.48317 0.84576 0.0
C265 C 0.90616 0.42312 0.8555 0.0
O266 O 0.91909 0.43289 0.86432 0.0
O267 O 0.93968 0.45318 0.82097 0.0
C268 C 0.92616 0.49185 0.8569 0.0
O269 O 0.93548 0.47976 0.86623 0.0
C270 C 0.98208 0.45093 0.85152 0.0
O271 O 0.98363 0.47301 0.84854 0.0
O272 O 0.90943 0.42854 0.84386 0.0
C273 C 0.76252 0.69838 0.0582 0.0
O274 O 0.74515 0.7035 0.06582 0.0
O275 O 0.78864 0.71476 0.09074 0.0
Zn276 Zn 0.78264 0.68433 0.08191 0.0
O277 O 0.75279 0.66915 0.08724 0.0
C278 C 0.81063 0.65252 0.0964 0.0
O279 O 0.79417 0.65577 0.10489 0.0
O280 O 0.78093 0.68988 0.06296 0.0
C281 C 0.74203 0.67199 0.09772 0.0
O282 O 0.75039 0.68632 0.10633 0.0
C283 C 0.80567 0.72598 0.08614 0.0
O284 O 0.81698 0.71711 0.0764 0.0
O285 O 0.80934 0.66287 0.08569 0.0
C286 C 0.53742 0.51694 0.30885 0.0
O287 O 0.53781 0.49811 0.31594 0.0
O288 O 0.52344 0.54588 0.34358 0.0
Zn289 Zn 0.55096 0.53829 0.33255 0.0
O290 O 0.56657 0.50852 0.33772 0.0
C291 C 0.58515 0.56549 0.34521 0.0
O292 O 0.58181 0.54958 0.35402 0.0
O293 O 0.54194 0.53639 0.31399 0.0
C294 C 0.56155 0.4962 0.34741 0.0
O295 O 0.54457 0.50265 0.35498 0.0
C296 C 0.50297 0.53849 0.34172 0.0
O297 O 0.49898 0.52405 0.33226 0.0
O298 O 0.57385 0.56421 0.33479 0.0
C299 C 0.73225 0.29827 0.56069 0.0
O300 O 0.75104 0.29839 0.5678 0.0
O301 O 0.70528 0.27889 0.59507 0.0
Zn302 Zn 0.71118 0.30788 0.58489 0.0
O303 O 0.74047 0.32413 0.59007 0.0
C304 C 0.68075 0.33478 0.6 0.0
O305 O 0.69337 0.32506 0.60899 0.0
O306 O 0.71265 0.30126 0.566 0.0
C307 C 0.7525 0.32069 0.60006 0.0
O308 O 0.74617 0.30461 0.60825 0.0
C309 C 0.71454 0.25923 0.59309 0.0
O310 O 0.72994 0.257 0.58393 0.0
O311 O 0.68498 0.32994 0.58838 0.0
C312 C 0.05632 0.47143 0.30986 0.0
O313 O 0.05071 0.48901 0.31722 0.0
O314 O 0.02912 0.44379 0.33988 0.0
Zn315 Zn 0.06194 0.44995 0.33421 0.0
O316 O 0.0751 0.47969 0.34117 0.0
C317 C 0.07798 0.41226 0.34991 0.0
O318 O 0.05999 0.4184 0.35682 0.0
O319 O 0.06194 0.45226 0.31502 0.0
C320 C 0.07992 0.48353 0.35283 0.0
O321 O 0.07533 0.46759 0.36145 0.0
C322 C 0.01705 0.45551 0.34773 0.0
O323 O 0.02586 0.47422 0.35298 0.0
O324 O 0.08235 0.4233 0.33966 0.0
C325 C 0.2644 0.28734 0.06201 0.0
O326 O 0.24538 0.28847 0.06888 0.0
O327 O 0.28993 0.26963 0.09691 0.0
Zn328 Zn 0.28489 0.29833 0.08624 0.0
O329 O 0.25546 0.31519 0.0907 0.0
C330 C 0.31144 0.33213 0.09969 0.0
O331 O 0.2941 0.32984 0.10773 0.0
O332 O 0.28388 0.29047 0.06745 0.0
C333 C 0.24233 0.3117 0.10026 0.0
O334 O 0.24756 0.29533 0.10852 0.0
C335 C 0.28327 0.24956 0.09349 0.0
O336 O 0.27149 0.24724 0.08281 0.0
O337 O 0.31152 0.32012 0.0895 0.0
C338 C 0.44121 0.51791 0.81695 0.0
O339 O 0.44093 0.49933 0.82423 0.0
O340 O 0.46435 0.54539 0.8503 0.0
Zn341 Zn 0.43403 0.53987 0.8412 0.0
O342 O 0.41838 0.51065 0.84707 0.0
C343 C 0.40924 0.57173 0.85675 0.0
O344 O 0.42025 0.56007 0.86569 0.0
O345 O 0.43893 0.53775 0.82211 0.0
C346 C 0.42356 0.49836 0.85675 0.0
O347 O 0.44087 0.50461 0.86415 0.0
C348 C 0.48362 0.53767 0.84623 0.0
O349 O 0.48398 0.52481 0.83586 0.0
O350 O 0.41252 0.56636 0.84511 0.0
C351 C 0.22401 0.67002 0.56794 0.0
O352 O 0.2287 0.65014 0.57352 0.0
O353 O 0.20582 0.71333 0.60208 0.0
Zn354 Zn 0.21156 0.68258 0.59358 0.0
O355 O 0.23936 0.66691 0.60128 0.0
C356 C 0.17865 0.65771 0.60825 0.0
O357 O 0.19202 0.66566 0.61743 0.0
O358 O 0.21619 0.68665 0.57464 0.0
C359 C 0.25998 0.67164 0.5979 0.0
O360 O 0.26353 0.68791 0.58932 0.0
C361 C 0.21018 0.73268 0.59679 0.0
O362 O 0.21971 0.73297 0.58538 0.0
O363 O 0.18364 0.66256 0.59672 0.0
C364 C 0.05365 0.49691 0.17281 0.0
O365 O 0.05253 0.4785 0.16545 0.0
O366 O 0.02446 0.52717 0.14184 0.0
Zn367 Zn 0.05649 0.5202 0.14853 0.0
O368 O 0.06953 0.49088 0.14095 0.0
C369 C 0.07256 0.56733 0.14716 0.0
O370 O 0.0534 0.57116 0.15362 0.0
O371 O 0.05524 0.51685 0.16769 0.0
C372 C 0.07923 0.49061 0.13005 0.0
O373 O 0.07984 0.50976 0.12324 0.0
C374 C 0.02177 0.53683 0.13101 0.0
O375 O 0.0401 0.54132 0.12398 0.0
O376 O 0.07768 0.54668 0.14403 0.0
C377 C 0.24286 0.28964 0.92535 0.0
O378 O 0.26031 0.28561 0.91759 0.0
O379 O 0.21538 0.2718 0.89309 0.0
Zn380 Zn 0.22133 0.30236 0.90179 0.0
O381 O 0.25097 0.31702 0.89568 0.0
C382 C 0.17396 0.3169 0.89949 0.0
O383 O 0.17032 0.29567 0.9036 0.0
O384 O 0.22384 0.29697 0.92073 0.0
C385 C 0.2517 0.32906 0.88551 0.0
O386 O 0.23283 0.33132 0.87858 0.0
C387 C 0.20709 0.2709 0.88183 0.0
O388 O 0.20338 0.29032 0.87557 0.0
O389 O 0.19468 0.32396 0.89814 0.0
C390 C 0.44866 0.49103 0.68012 0.0
O391 O 0.45299 0.50868 0.67254 0.0
O392 O 0.47497 0.46044 0.64987 0.0
Zn393 Zn 0.44266 0.46742 0.65615 0.0
O394 O 0.42967 0.49671 0.64835 0.0
C395 C 0.42491 0.42762 0.64239 0.0
O396 O 0.44281 0.43181 0.63499 0.0
O397 O 0.44385 0.47143 0.67524 0.0
C398 C 0.4188 0.49676 0.63777 0.0
O399 O 0.41667 0.47729 0.63137 0.0
C400 C 0.48294 0.46665 0.63907 0.0
O401 O 0.46992 0.47909 0.63137 0.0
O402 O 0.42141 0.44048 0.65207 0.0
C403 C 0.261 0.69527 0.43244 0.0
O404 O 0.25184 0.71271 0.42611 0.0
O405 O 0.27912 0.71303 0.40115 0.0
Zn406 Zn 0.2728 0.68026 0.40709 0.0
O407 O 0.24286 0.66736 0.40014 0.0
C408 C 0.31979 0.66349 0.40376 0.0
O409 O 0.32514 0.68147 0.41089 0.0
O410 O 0.27126 0.6793 0.42628 0.0
C411 C 0.24256 0.65734 0.38932 0.0
O412 O 0.26163 0.65654 0.38248 0.0
C413 C 0.27692 0.7193 0.38955 0.0
O414 O 0.26932 0.70431 0.3811 0.0
O415 O 0.29866 0.65963 0.40109 0.0
C416 C 0.44888 -0.00302 0.29496 0.0
C417 C 0.44787 0.97501 0.30076 0.0
C418 C 0.45115 -0.00093 0.28172 0.0
C419 C 0.44174 0.9661 0.25183 0.0
H420 H 0.47659 0.01672 0.23674 0.0
C421 C 0.45498 0.97541 0.19729 0.0
C422 C 0.45047 -0.00247 0.1922 0.0
C423 C 0.45638 0.9721 0.21051 0.0
C424 C 0.46672 0.00256 0.24084 0.0
H425 H 0.4492 0.93798 0.29723 0.0
H426 H 0.45374 0.9416 0.27413 0.0
H427 H 0.47658 0.01161 0.25991 0.0
H428 H 0.44435 0.03362 0.19699 0.0
H429 H 0.44698 0.02785 0.22007 0.0
H430 H 0.43202 0.95703 0.23271 0.0
C431 C 0.45222 0.95725 0.27979 0.0
C432 C 0.46664 -0.00035 0.25411 0.0
C433 C 0.44975 0.95516 0.29304 0.0
C434 C 0.44781 0.01636 0.20061 0.0
C435 C 0.44945 0.01309 0.21382 0.0
C436 C 0.44199 0.9689 0.23856 0.0
C437 C 0.45267 0.97923 0.27394 0.0
C438 C 0.45393 0.98154 0.25978 0.0
C439 C 0.45356 0.9909 0.2189 0.0
C440 C 0.45428 0.9873 0.23294 0.0
H441 H 0.44737 0.01264 0.30062 0.0
H442 H 0.45107 0.01627 0.27755 0.0
H443 H 0.43144 0.9522 0.25585 0.0
H444 H 0.45712 0.96054 0.19107 0.0
H445 H 0.45976 0.95485 0.21417 0.0
C446 C 0.27066 0.19434 0.54429 0.0
C447 C 0.26041 0.17682 0.55172 0.0
C448 C 0.26709 0.19511 0.53108 0.0
C449 C 0.2491 0.15894 0.50364 0.0
H450 H 0.23906 0.21836 0.48713 0.0
C451 C 0.22098 0.16679 0.45082 0.0
C452 C 0.23226 0.18375 0.44343 0.0
C453 C 0.22407 0.16602 0.46406 0.0
C454 C 0.24205 0.20166 0.49159 0.0
H455 H 0.23837 0.14634 0.55112 0.0
H456 H 0.23192 0.14787 0.5281 0.0
H457 H 0.2452 0.21676 0.51019 0.0
H458 H 0.2555 0.21331 0.44417 0.0
H459 H 0.26095 0.21189 0.46728 0.0
H460 H 0.24586 0.14385 0.48503 0.0
C461 C 0.24299 0.16083 0.53245 0.0
C462 C 0.2456 0.20073 0.50479 0.0
C463 C 0.24659 0.16003 0.54566 0.0
C464 C 0.24653 0.20004 0.44959 0.0
C465 C 0.24956 0.19931 0.46284 0.0
C466 C 0.24549 0.15986 0.49044 0.0
C467 C 0.25316 0.17841 0.52501 0.0
C468 C 0.24922 0.17937 0.51097 0.0
C469 C 0.23844 0.18224 0.47021 0.0
C470 C 0.24198 0.18124 0.48426 0.0
H471 H 0.28149 0.20749 0.54865 0.0
H472 H 0.27547 0.20868 0.5256 0.0
H473 H 0.25218 0.14223 0.50807 0.0
H474 H 0.20982 0.15402 0.44637 0.0
H475 H 0.21504 0.15283 0.46951 0.0
C476 C 0.03464 0.0274 0.79099 0.0
C477 C 0.03788 0.00765 0.79866 0.0
C478 C 0.03209 0.02526 0.77775 0.0
C479 C 0.02006 0.98282 0.75183 0.0
H480 H 0.05438 0.02675 0.73108 0.0
C481 C 0.04117 0.96814 0.69834 0.0
C482 C 0.03991 0.98745 0.69014 0.0
C483 C 0.03825 0.97081 0.71152 0.0
C484 C 0.04443 0.01453 0.73672 0.0
H485 H 0.04031 0.9701 0.79851 0.0
H486 H 0.0363 0.9664 0.77542 0.0
H487 H 0.05393 0.03114 0.75421 0.0
H488 H 0.03384 0.02457 0.68934 0.0
H489 H 0.0287 0.02917 0.71232 0.0
H490 H 0.01105 0.96593 0.73427 0.0
C491 C 0.03539 0.98353 0.77962 0.0
C492 C 0.04413 0.01707 0.74999 0.0
C493 C 0.03783 0.98567 0.79287 0.0
C494 C 0.03506 0.00936 0.69538 0.0
C495 C 0.03222 0.01203 0.70856 0.0
C496 C 0.02045 0.98023 0.73854 0.0
C497 C 0.03282 0.00333 0.77189 0.0
C498 C 0.03206 0.00118 0.75772 0.0
C499 C 0.03408 0.99284 0.71679 0.0
C500 C 0.03274 0.996 0.73085 0.0
H501 H 0.0344 0.04458 0.79517 0.0
H502 H 0.02972 0.04083 0.7721 0.0
H503 H 0.01033 0.97046 0.75749 0.0
H504 H 0.04485 0.95102 0.6946 0.0
H505 H 0.03997 0.95573 0.71764 0.0
C506 C 0.24812 0.78461 0.95392 0.0
C507 C 0.25964 0.80236 0.94726 0.0
C508 C 0.24428 0.78645 0.96708 0.0
C509 C 0.26392 0.81792 -0.00398 0.0
H510 H 0.20459 0.79821 0.00966 0.0
C511 C 0.23416 0.83954 0.04738 0.0
C512 C 0.22331 0.82171 0.05432 0.0
C513 C 0.23905 0.83674 0.03438 0.0
C514 C 0.22133 0.80356 0.00601 0.0
H515 H 0.27627 0.83593 0.94919 0.0
H516 H 0.26922 0.83931 0.97207 0.0
H517 H 0.21238 0.79412 0.98686 0.0
H518 H 0.20913 0.78692 0.05308 0.0
H519 H 0.21767 0.78207 0.03039 0.0
H520 H 0.27271 0.82763 0.01518 0.0
C521 C 0.26348 0.82378 0.96719 0.0
C522 C 0.22582 0.80118 0.99295 0.0
C523 C 0.26741 0.8219 0.95404 0.0
C524 C 0.21746 0.80102 0.04799 0.0
C525 C 0.22224 0.79827 0.03498 0.0
C526 C 0.25938 0.82039 0.00907 0.0
C527 C 0.25179 0.80612 0.97386 0.0
C528 C 0.24716 0.80836 0.98779 0.0
C529 C 0.23309 0.8161 0.02804 0.0
C530 C 0.23803 0.81326 0.0142 0.0
H531 H 0.24203 0.76926 0.94899 0.0
H532 H 0.23554 0.77236 0.97195 0.0
H533 H 0.28067 0.82328 0.9924 0.0
H534 H 0.23889 0.8557 0.05196 0.0
H535 H 0.2472 0.85088 0.02925 0.0
C536 C 0.54146 0.00329 0.7921 0.0
C537 C 0.54395 0.9807 0.79697 0.0
C538 C 0.53944 0.00705 0.77895 0.0
C539 C 0.52506 0.97858 0.74842 0.0
H540 H 0.56354 0.02688 0.73373 0.0
C541 C 0.54145 0.98647 0.69413 0.0
C542 C 0.54344 0.00878 0.68882 0.0
C543 C 0.5395 0.98353 0.70735 0.0
C544 C 0.55237 0.01358 0.73768 0.0
H545 H 0.54564 0.94427 0.79189 0.0
H546 H 0.54213 0.95087 0.76889 0.0
H547 H 0.5636 0.02079 0.75677 0.0
H548 H 0.54416 0.04555 0.69317 0.0
H549 H 0.54032 0.04045 0.71621 0.0
H550 H 0.51385 0.97134 0.72932 0.0
C551 C 0.54165 0.96565 0.77527 0.0
C552 C 0.55246 0.01006 0.75089 0.0
C553 C 0.54379 0.96189 0.78843 0.0
C554 C 0.54284 0.02812 0.69697 0.0
C555 C 0.54077 0.02518 0.71019 0.0
C556 C 0.52487 0.98218 0.7352 0.0
C557 C 0.53974 0.9883 0.77039 0.0
C558 C 0.53892 0.99244 0.75639 0.0
C559 C 0.53937 0.00284 0.71555 0.0
C560 C 0.53866 -0.00037 0.72966 0.0
H561 H 0.54141 0.01817 0.79841 0.0
H562 H 0.53769 0.02467 0.77548 0.0
H563 H 0.51424 0.96504 0.75242 0.0
H564 H 0.5419 0.9712 0.68812 0.0
H565 H 0.53877 0.96607 0.71115 0.0
C566 C 0.71737 0.79089 0.45171 0.0
C567 C 0.7371 0.79116 0.44385 0.0
C568 C 0.71962 0.78912 0.46498 0.0
C569 C 0.76122 0.77339 0.49073 0.0
H570 H 0.72108 0.81191 0.51153 0.0
C571 C 0.77778 0.79281 0.54431 0.0
C572 C 0.7584 0.79294 0.55246 0.0
C573 C 0.77495 0.79034 0.5311 0.0
C574 C 0.73222 0.80082 0.50586 0.0
H575 H 0.77468 0.78952 0.44372 0.0
H576 H 0.77863 0.78697 0.46687 0.0
H577 H 0.71654 0.81196 0.4884 0.0
H578 H 0.72092 0.78985 0.55316 0.0
H579 H 0.71604 0.78558 0.53014 0.0
H580 H 0.77723 0.76273 0.50829 0.0
C581 C 0.76138 0.78768 0.46279 0.0
C582 C 0.7296 0.80081 0.4926 0.0
C583 C 0.75912 0.78929 0.44951 0.0
C584 C 0.73621 0.78993 0.54716 0.0
C585 C 0.73338 0.7876 0.53396 0.0
C586 C 0.76394 0.77352 0.50402 0.0
C587 C 0.74166 0.78775 0.4707 0.0
C588 C 0.7441 0.78714 0.48485 0.0
C589 C 0.75268 0.78809 0.52578 0.0
C590 C 0.74949 0.78729 0.51171 0.0
H591 H 0.70014 0.79211 0.44764 0.0
H592 H 0.70405 0.78881 0.47076 0.0
H593 H 0.77245 0.76239 0.48507 0.0
H594 H 0.79511 0.79505 0.54811 0.0
H595 H 0.79013 0.79094 0.52502 0.0
C596 C 0.94156 0.02748 0.29332 0.0
C597 C 0.93701 0.00853 0.3014 0.0
C598 C 0.94259 0.02447 0.28007 0.0
C599 C 0.9218 0.9862 0.25454 0.0
H600 H 0.96984 0.01549 0.23425 0.0
C601 C 0.93149 0.96868 0.20049 0.0
C602 C 0.93705 0.98768 0.19264 0.0
C603 C 0.93217 0.97078 0.2138 0.0
C604 C 0.95614 0.00741 0.23976 0.0
H605 H 0.9303 0.9715 0.30193 0.0
H606 H 0.93206 0.96631 0.27881 0.0
H607 H 0.96996 0.02009 0.25744 0.0
H608 H 0.94755 0.02381 0.1926 0.0
H609 H 0.94826 0.0276 0.21578 0.0
H610 H 0.90772 0.97383 0.2369 0.0
C611 C 0.93467 0.9835 0.28273 0.0
C612 C 0.95626 0.01001 0.25304 0.0
C613 C 0.9338 0.98647 0.29597 0.0
C614 C 0.94327 0.00881 0.19838 0.0
C615 C 0.94383 0.01094 0.21168 0.0
C616 C 0.9216 0.9837 0.24126 0.0
C617 C 0.93893 0.00249 0.27464 0.0
C618 C 0.93908 -0.00055 0.26056 0.0
C619 C 0.9383 0.99195 0.21955 0.0
C620 C 0.93874 0.99431 0.2337 0.0
H621 H 0.94413 0.0447 0.29721 0.0
H622 H 0.94571 0.03946 0.27406 0.0
H623 H 0.90814 0.97813 0.26009 0.0
H624 H 0.92675 0.95212 0.19636 0.0
H625 H 0.92813 0.95572 0.21957 0.0
C626 C 0.77222 0.1879 0.95022 0.0
C627 C 0.75256 0.19055 0.94241 0.0
C628 C 0.77055 0.19073 0.96345 0.0
C629 C 0.73271 0.21543 0.98875 0.0
H630 H 0.76655 0.17308 0.01073 0.0
C631 C 0.71391 0.20411 0.04273 0.0
C632 C 0.73308 0.20186 0.05094 0.0
C633 C 0.71701 0.20476 0.02948 0.0
C634 C 0.75722 0.18522 0.00472 0.0
H635 H 0.71574 0.1982 0.94235 0.0
H636 H 0.71271 0.20257 0.96544 0.0
H637 H 0.77052 0.16995 0.98761 0.0
H638 H 0.77059 0.19919 0.0517 0.0
H639 H 0.77594 0.20025 0.02858 0.0
H640 H 0.719 0.23029 0.00593 0.0
C641 C 0.72953 0.1988 0.96134 0.0
C642 C 0.75951 0.18346 0.99146 0.0
C643 C 0.73123 0.19613 0.9481 0.0
C644 C 0.75544 0.20087 0.04564 0.0
C645 C 0.75852 0.20134 0.0324 0.0
C646 C 0.7303 0.21707 0.00201 0.0
C647 C 0.74916 0.19611 0.96919 0.0
C648 C 0.74721 0.19847 0.9833 0.0
C649 C 0.73932 0.20301 0.02418 0.0
C650 C 0.74247 0.20193 0.01012 0.0
H651 H 0.78895 0.18377 0.94611 0.0
H652 H 0.78609 0.18888 0.96918 0.0
H653 H 0.72329 0.22753 0.98276 0.0
H654 H 0.69645 0.20496 0.04651 0.0
H655 H 0.70188 0.20588 0.02337 0.0
C656 C 0.95906 0.5374 0.7056 0.0
C657 C 0.94348 0.52659 0.69717 0.0
C658 C 0.96039 0.53042 0.71838 0.0
C659 C 0.92774 0.49894 0.74345 0.0
H660 H 0.98782 0.49545 0.76002 0.0
C661 C 0.93918 0.46072 0.79405 0.0
C662 C 0.95261 0.47403 0.80253 0.0
C663 C 0.9389 0.46588 0.78098 0.0
C664 C 0.97092 0.49647 0.75553 0.0
H665 H 0.91703 0.49999 0.69554 0.0
H666 H 0.91962 0.48758 0.71775 0.0
H667 H 0.98533 0.5073 0.73765 0.0
H668 H 0.9769 0.50266 0.80389 0.0
H669 H 0.97644 0.51158 0.7811 0.0
H670 H 0.91336 0.48804 0.76134 0.0
C671 C 0.93056 0.50171 0.71457 0.0
C672 C 0.96947 0.50333 0.74274 0.0
C673 C 0.92915 0.50876 0.70181 0.0
C674 C 0.96633 0.4921 0.79762 0.0
C675 C 0.96616 0.49715 0.78455 0.0
C676 C 0.92921 0.49197 0.75622 0.0
C677 C 0.94624 0.5124 0.723 0.0
C678 C 0.94784 0.50478 0.73656 0.0
C679 C 0.95218 0.48432 0.77613 0.0
C680 C 0.9508 0.49077 0.76241 0.0
H681 H 0.97027 0.55126 0.70234 0.0
H682 H 0.97239 0.53929 0.72467 0.0
H683 H 0.91077 0.50021 0.73906 0.0
H684 H 0.92845 0.44665 0.79752 0.0
H685 H 0.92817 0.45552 0.77469 0.0
C686 C 0.73889 0.70768 0.03876 0.0
C687 C 0.76034 0.70167 0.04422 0.0
C688 C 0.73658 0.70978 0.02551 0.0
C689 C 0.76965 0.71845 -0.00424 0.0
H690 H 0.71794 0.68674 0.97978 0.0
C691 C 0.76638 0.69948 0.94166 0.0
C692 C 0.74478 0.69997 0.93544 0.0
C693 C 0.76779 0.7022 0.95491 0.0
C694 C 0.73225 0.69606 0.98407 0.0
H695 H 0.79633 0.69372 0.04008 0.0
H696 H 0.79228 0.69745 0.01694 0.0
H697 H 0.72128 0.68711 0.00299 0.0
H698 H 0.7078 0.70461 0.93819 0.0
H699 H 0.7103 0.70988 0.96127 0.0
H700 H 0.78068 0.7274 0.97686 0.0
C701 C 0.77728 0.7006 0.02292 0.0
C702 C 0.73418 0.69621 -0.00262 0.0
C703 C 0.77955 0.69832 0.03617 0.0
C704 C 0.72469 0.70395 0.94271 0.0
C705 C 0.72612 0.70684 0.95595 0.0
C706 C 0.76765 0.71845 0.98244 0.0
C707 C 0.75571 0.70611 0.01745 0.0
C708 C 0.75303 0.70718 0.00336 0.0
C709 C 0.74765 0.70566 0.96224 0.0
C710 C 0.74906 0.70702 0.97642 0.0
H711 H 0.72376 0.71043 0.0447 0.0
H712 H 0.7198 0.71427 0.02155 0.0
H713 H 0.78421 0.72731 0.00012 0.0
H714 H 0.78219 0.69638 0.93635 0.0
H715 H 0.78463 0.70088 0.95943 0.0
C716 C 0.53262 0.53541 0.28731 0.0
C717 C 0.53355 0.51529 0.29489 0.0
C718 C 0.53073 0.53376 0.27402 0.0
C719 C 0.51647 0.49307 0.24762 0.0
H720 H 0.55622 0.53367 0.22778 0.0
C721 C 0.53936 0.47635 0.19465 0.0
C722 C 0.54009 0.49559 0.18639 0.0
C723 C 0.53624 0.47941 0.20779 0.0
C724 C 0.54478 0.52242 0.23316 0.0
H725 H 0.53256 0.47768 0.2945 0.0
H726 H 0.52968 0.4748 0.27134 0.0
H727 H 0.55457 0.53793 0.25091 0.0
H728 H 0.53772 0.53312 0.18544 0.0
H729 H 0.5323 0.53843 0.20838 0.0
H730 H 0.50714 0.47723 0.22982 0.0
C731 C 0.53007 0.49187 0.27565 0.0
C732 C 0.54378 0.52488 0.24643 0.0
C733 C 0.53186 0.49352 0.28894 0.0
C734 C 0.53733 0.51793 0.19154 0.0
C735 C 0.53432 0.521 0.20469 0.0
C736 C 0.51754 0.49054 0.23434 0.0
C737 C 0.52983 0.51196 0.26801 0.0
C738 C 0.52976 0.51013 0.25383 0.0
C739 C 0.5339 0.50178 0.21296 0.0
C740 C 0.53185 0.50509 0.22698 0.0
H741 H 0.5337 0.55245 0.29161 0.0
H742 H 0.53017 0.54958 0.26844 0.0
H743 H 0.50522 0.48165 0.25301 0.0
H744 H 0.5414 0.4589 0.19098 0.0
H745 H 0.53624 0.46429 0.21394 0.0
C746 C 0.71412 0.29566 0.53893 0.0
C747 C 0.7341 0.29672 0.54661 0.0
C748 C 0.71594 0.29588 0.5256 0.0
C749 C 0.7545 0.31573 0.50008 0.0
H750 H 0.71851 0.27479 0.47839 0.0
C751 C 0.76853 0.31196 0.44557 0.0
C752 C 0.74889 0.30931 0.43775 0.0
C753 C 0.7667 0.30989 0.45884 0.0
C754 C 0.72845 0.28656 0.4843 0.0
H755 H 0.7717 0.29822 0.54632 0.0
H756 H 0.77482 0.29869 0.52308 0.0
H757 H 0.71527 0.27159 0.5016 0.0
H758 H 0.71187 0.30269 0.43773 0.0
H759 H 0.70856 0.29966 0.46089 0.0
H760 H 0.76739 0.33104 0.48288 0.0
C761 C 0.75776 0.29786 0.52738 0.0
C762 C 0.72664 0.28465 0.49759 0.0
C763 C 0.75596 0.29745 0.54069 0.0
C764 C 0.72736 0.30472 0.44349 0.0
C765 C 0.72549 0.30282 0.45677 0.0
C766 C 0.75618 0.31776 0.48681 0.0
C767 C 0.73777 0.29736 0.5197 0.0
C768 C 0.73971 0.29917 0.5056 0.0
C769 C 0.74515 0.3053 0.46461 0.0
C770 C 0.74323 0.30317 0.47874 0.0
H771 H 0.69703 0.29505 0.54321 0.0
H772 H 0.70024 0.29561 0.51992 0.0
H773 H 0.76449 0.32741 0.50603 0.0
H774 H 0.78541 0.31535 0.44144 0.0
H775 H 0.78227 0.31154 0.46456 0.0
C776 C 0.05247 0.49584 0.29017 0.0
C777 C 0.05608 0.47397 0.29578 0.0
C778 C 0.05225 0.49832 0.27688 0.0
C779 C 0.04273 0.46585 0.24717 0.0
H780 H 0.07626 0.51661 0.23135 0.0
C781 C 0.05473 0.47228 0.19252 0.0
C782 C 0.0535 0.49438 0.18689 0.0
C783 C 0.05495 0.46983 0.20581 0.0
C784 C 0.06654 0.50253 0.23562 0.0
H785 H 0.06225 0.43755 0.29185 0.0
H786 H 0.06176 0.44191 0.26862 0.0
H787 H 0.07681 0.51227 0.25455 0.0
H788 H 0.05126 0.53126 0.1908 0.0
H789 H 0.05115 0.52697 0.21399 0.0
H790 H 0.03219 0.45622 0.2283 0.0
C791 C 0.05901 0.4571 0.27452 0.0
C792 C 0.06691 0.50002 0.2489 0.0
C793 C 0.05941 0.45463 0.28782 0.0
C794 C 0.05233 0.51398 0.19484 0.0
C795 C 0.05241 0.51153 0.20814 0.0
C796 C 0.04222 0.46844 0.23389 0.0
C797 C 0.05546 0.47898 0.26892 0.0
C798 C 0.05505 0.48163 0.25482 0.0
C799 C 0.0538 0.48942 0.21379 0.0
C800 C 0.05416 0.48678 0.22794 0.0
H801 H 0.04985 0.51109 0.29603 0.0
H802 H 0.04924 0.51536 0.27283 0.0
H803 H 0.03316 0.4517 0.25148 0.0
H804 H 0.05577 0.45682 0.18667 0.0
H805 H 0.05639 0.45257 0.20983 0.0
C806 C 0.24134 0.28366 0.04186 0.0
C807 C 0.26299 0.28375 0.04803 0.0
C808 C 0.23993 0.28167 0.02858 0.0
C809 C 0.27467 0.29096 -0.00061 0.0
H810 H 0.22403 0.25794 0.98314 0.0
C811 C 0.26744 0.28134 0.94456 0.0
C812 C 0.24556 0.28632 0.93929 0.0
C813 C 0.27017 0.27899 0.95778 0.0
C814 C 0.2382 0.26731 0.98756 0.0
H815 H 0.30012 0.28103 0.04513 0.0
H816 H 0.29764 0.27708 0.02194 0.0
H817 H 0.22802 0.25687 0.00637 0.0
H818 H 0.20931 0.29227 0.94375 0.0
H819 H 0.21411 0.2881 0.96682 0.0
H820 H 0.28481 0.30139 0.98055 0.0
C821 C 0.28176 0.27905 0.02736 0.0
C822 C 0.24048 0.26674 0.00086 0.0
C823 C 0.28318 0.28119 0.04065 0.0
C824 C 0.2264 0.28847 0.94751 0.0
C825 C 0.22911 0.28594 0.96071 0.0
C826 C 0.27248 0.29138 0.98609 0.0
C827 C 0.26012 0.27955 0.02114 0.0
C828 C 0.25858 0.2788 0.00695 0.0
C829 C 0.25105 0.28137 0.96599 0.0
C830 C 0.25407 0.27979 0.98005 0.0
H831 H 0.22544 0.28567 0.04725 0.0
H832 H 0.223 0.28246 0.02412 0.0
H833 H 0.28859 0.30076 0.00375 0.0
H834 H 0.28255 0.27954 0.9385 0.0
H835 H 0.28725 0.27525 0.96157 0.0
C836 C 0.44502 0.5353 0.79504 0.0
C837 C 0.44346 0.5156 0.80292 0.0
C838 C 0.44643 0.53294 0.78175 0.0
C839 C 0.43191 0.49242 0.75587 0.0
H840 H 0.47529 0.52871 0.73581 0.0
C841 C 0.44641 0.47475 0.7023 0.0
C842 C 0.449 0.494 0.69417 0.0
C843 C 0.44634 0.47758 0.71556 0.0
C844 C 0.46288 0.51865 0.74126 0.0
H845 H 0.44247 0.47796 0.80304 0.0
H846 H 0.44491 0.4739 0.7799 0.0
H847 H 0.47402 0.53353 0.759 0.0
H848 H 0.45363 0.53132 0.69361 0.0
H849 H 0.45308 0.53632 0.71675 0.0
H850 H 0.42052 0.47773 0.73819 0.0
C851 C 0.44485 0.49116 0.78398 0.0
C852 C 0.46219 0.52139 0.75453 0.0
C853 C 0.44358 0.49351 0.79725 0.0
C854 C 0.45167 0.51612 0.6996 0.0
C855 C 0.45149 0.51897 0.71288 0.0
C856 C 0.4325 0.48977 0.7426 0.0
C857 C 0.44613 0.51084 0.77608 0.0
C858 C 0.44677 0.50822 0.76198 0.0
C859 C 0.44873 0.49974 0.72102 0.0
C860 C 0.44806 0.50277 0.73513 0.0
H861 H 0.44498 0.55256 0.79911 0.0
H862 H 0.44724 0.54842 0.77589 0.0
H863 H 0.41957 0.48231 0.76133 0.0
H864 H 0.44446 0.45744 0.69843 0.0
H865 H 0.44458 0.46234 0.72155 0.0
C866 C 0.23851 0.65541 0.54686 0.0
C867 C 0.22818 0.67316 0.55408 0.0
C868 C 0.24266 0.65844 0.5338 0.0
C869 C 0.22374 0.69245 0.5059 0.0
H870 H 0.28216 0.6724 0.49127 0.0
C871 C 0.24782 0.71168 0.4534 0.0
C872 C 0.25858 0.69375 0.44651 0.0
C873 C 0.24482 0.70987 0.46662 0.0
C874 C 0.26566 0.67787 0.49517 0.0
H875 H 0.21408 0.70803 0.55325 0.0
H876 H 0.22133 0.71328 0.53045 0.0
H877 H 0.27533 0.66768 0.51414 0.0
H878 H 0.27482 0.65992 0.44813 0.0
H879 H 0.26928 0.65661 0.47114 0.0
H880 H 0.21392 0.70238 0.48694 0.0
C881 C 0.22607 0.69697 0.53488 0.0
C882 C 0.26176 0.67518 0.50828 0.0
C883 C 0.22202 0.69398 0.54796 0.0
C884 C 0.26652 0.67409 0.45315 0.0
C885 C 0.26346 0.67225 0.46637 0.0
C886 C 0.2276 0.69506 0.49278 0.0
C887 C 0.23647 0.67924 0.52767 0.0
C888 C 0.24074 0.68238 0.51378 0.0
C889 C 0.25245 0.69005 0.47325 0.0
C890 C 0.24858 0.68775 0.48726 0.0
H891 H 0.24345 0.63914 0.55128 0.0
H892 H 0.25045 0.64436 0.52846 0.0
H893 H 0.20724 0.69788 0.50982 0.0
H894 H 0.24161 0.72712 0.44858 0.0
H895 H 0.2366 0.72406 0.47166 0.0
C896 C 0.40186 0.9526 0.13763 0.0
C897 C 0.39315 0.9645 0.14833 0.0
C898 C 0.39016 0.93328 0.13276 0.0
C899 C 0.3448 0.88985 0.14077 0.0
H900 H 0.33557 0.88759 0.10406 0.0
C901 C 0.26864 0.84233 0.11704 0.0
C902 C 0.27228 0.83088 0.10536 0.0
C903 C 0.28645 0.85502 0.12274 0.0
C904 C 0.33833 0.88769 0.11431 0.0
H905 H 0.36562 0.96518 0.16245 0.0
H906 H 0.3451 0.93184 0.15386 0.0
H907 H 0.36126 0.91677 0.11317 0.0
H908 H 0.29775 0.82305 0.09073 0.0
H909 H 0.32892 0.84538 0.10071 0.0
H910 H 0.32118 0.86127 0.14191 0.0
C911 C 0.36113 0.93715 0.14933 0.0
C912 C 0.35307 0.90442 0.11954 0.0
C913 C 0.37281 0.95641 0.1542 0.0
C914 C 0.29438 0.83172 0.09972 0.0
C915 C 0.31219 0.84458 0.10539 0.0
C916 C 0.33 0.87318 0.13555 0.0
C917 C 0.36953 0.92547 0.13849 0.0
C918 C 0.35606 0.90603 0.13285 0.0
C919 C 0.30829 0.85666 0.11686 0.0
C920 C 0.32622 0.87226 0.12228 0.0
H921 H 0.41756 0.95834 0.13292 0.0
H922 H 0.39722 0.92452 0.12447 0.0
H923 H 0.3471 0.89032 0.15105 0.0
H924 H 0.25183 0.84198 0.12166 0.0
H925 H 0.28281 0.86434 0.13151 0.0
C926 C 0.27469 0.135 0.3705 0.0
C927 C 0.27144 0.14435 0.38277 0.0
C928 C 0.29513 0.12324 0.36746 0.0
C929 C 0.3406 0.08924 0.38303 0.0
H930 H 0.36881 0.09048 0.34939 0.0
C931 C 0.41369 0.02563 0.3693 0.0
C932 C 0.41056 0.01455 0.35746 0.0
C933 C 0.40037 0.04505 0.37252 0.0
C934 C 0.3611 0.08991 0.35882 0.0
H935 H 0.28763 0.14977 0.40127 0.0
H936 H 0.32334 0.12927 0.39594 0.0
H937 H 0.33869 0.11861 0.35472 0.0
H938 H 0.3916 0.0157 0.33953 0.0
H939 H 0.36828 0.04919 0.34519 0.0
H940 H 0.36233 0.06006 0.387 0.0
C941 C 0.30993 0.1308 0.38873 0.0
C942 C 0.34387 0.10603 0.36187 0.0
C943 C 0.28951 0.14262 0.39175 0.0
C944 C 0.39442 0.02376 0.34875 0.0
C945 C 0.38116 0.04313 0.35196 0.0
C946 C 0.35778 0.0731 0.37997 0.0
C947 C 0.31276 0.12054 0.37664 0.0
C948 C 0.33306 0.10552 0.37391 0.0
C949 C 0.38371 0.05381 0.36395 0.0
C950 C 0.36783 0.0729 0.36773 0.0
H951 H 0.26114 0.13608 0.36334 0.0
H952 H 0.29666 0.11535 0.3581 0.0
H953 H 0.33241 0.08819 0.39233 0.0
H954 H 0.42607 0.01904 0.3762 0.0
H955 H 0.40291 0.05305 0.38179 0.0
C956 C 0.10294 0.03331 0.64577 0.0
C957 C 0.08751 0.02619 0.63613 0.0
C958 C 0.11818 0.05169 0.64369 0.0
C959 C 0.13024 0.10228 0.62309 0.0
H960 H 0.19389 0.09071 0.63323 0.0
C961 C 0.20799 0.15696 0.6053 0.0
C962 C 0.22693 0.16006 0.6136 0.0
C963 C 0.18923 0.1431 0.60892 0.0
C964 C 0.17614 0.09447 0.63054 0.0
H965 H 0.07539 0.0334 0.61689 0.0
H966 H 0.10224 0.06554 0.61321 0.0
H967 H 0.16432 0.0619 0.63778 0.0
H968 H 0.24032 0.15232 0.63251 0.0
H969 H 0.20737 0.1286 0.63893 0.0
H970 H 0.14222 0.13486 0.61574 0.0
C971 C 0.10239 0.0569 0.62241 0.0
C972 C 0.15918 0.07789 0.63312 0.0
C973 C 0.0871 0.03843 0.6245 0.0
C974 C 0.22612 0.15006 0.62585 0.0
C975 C 0.2073 0.13634 0.62949 0.0
C976 C 0.14724 0.11898 0.62054 0.0
C977 C 0.11838 0.06343 0.63191 0.0
C978 C 0.13607 0.08155 0.62939 0.0
C979 C 0.18892 0.13217 0.62094 0.0
C980 C 0.17043 0.11521 0.6242 0.0
H981 H 0.10357 0.02444 0.6549 0.0
H982 H 0.13001 0.05658 0.65127 0.0
H983 H 0.11252 0.10566 0.6202 0.0
H984 H 0.20808 0.16442 0.59579 0.0
H985 H 0.17548 0.14013 0.60205 0.0
C986 C 0.08406 0.96302 0.86698 0.0
C987 C 0.08462 0.97358 0.85486 0.0
C988 C 0.09991 0.94551 0.8701 0.0
C989 C 0.15788 0.92489 0.86105 0.0
H990 H 0.14201 0.87047 0.88102 0.0
C991 C 0.22579 0.85484 0.87171 0.0
C992 C 0.2267 0.84656 0.88434 0.0
C993 C 0.20696 0.86808 0.86754 0.0
C994 C 0.14672 0.88567 0.87551 0.0
H995 H 0.10155 0.97329 0.83632 0.0
H996 H 0.12892 0.94274 0.84173 0.0
H997 H 0.11163 0.89792 0.87488 0.0
H998 H 0.20813 0.84492 0.90236 0.0
H999 H 0.17546 0.86834 0.89513 0.0
H1000 H 0.19292 0.91305 0.86183 0.0
C1001 C 0.11656 0.94825 0.8489 0.0
C1002 C 0.12934 0.90137 0.872 0.0
C1003 C 0.10079 0.96571 0.84579 0.0
C1004 C 0.20796 0.85106 0.89256 0.0
C1005 C 0.18916 0.86439 0.8884 0.0
C1006 C 0.17521 0.90928 0.86457 0.0
C1007 C 0.1166 0.93825 0.86116 0.0
C1008 C 0.13475 0.92117 0.86473 0.0
C1009 C 0.18867 0.87344 0.87591 0.0
C1010 C 0.16988 0.88948 0.87185 0.0
H1011 H 0.0718 0.96867 0.87417 0.0
H1012 H 0.0996 0.93824 0.87965 0.0
H1013 H 0.16271 0.94021 0.85567 0.0
H1014 H 0.23983 0.8515 0.86509 0.0
H1015 H 0.2069 0.87438 0.85778 0.0
C1016 C 0.70387 0.13764 0.89195 0.0
C1017 C 0.71695 0.14968 0.88275 0.0
C1018 C 0.68551 0.12337 0.88826 0.0
C1019 C 0.6658 0.08933 0.8607 0.0
H1020 H 0.60994 0.08156 0.88088 0.0
C1021 C 0.59495 0.02495 0.84576 0.0
C1022 C 0.58634 0.01039 0.85545 0.0
C1023 C 0.6084 0.04428 0.84881 0.0
C1024 C 0.6255 0.08347 0.87519 0.0
H1025 H 0.72026 0.15705 0.86248 0.0
H1026 H 0.68799 0.13231 0.85604 0.0
H1027 H 0.63773 0.11184 0.88656 0.0
H1028 H 0.5844 0.0052 0.87597 0.0
H1029 H 0.60817 0.03889 0.88129 0.0
H1030 H 0.65387 0.06079 0.84947 0.0
C1031 C 0.69224 0.1336 0.86611 0.0
C1032 C 0.64141 0.10081 0.87843 0.0
C1033 C 0.71065 0.14787 0.8698 0.0
C1034 C 0.5908 0.01606 0.86828 0.0
C1035 C 0.60431 0.03543 0.87134 0.0
C1036 C 0.64991 0.07207 0.85745 0.0
C1037 C 0.67975 0.12083 0.87528 0.0
C1038 C 0.66186 0.10377 0.8713 0.0
C1039 C 0.6136 0.04951 0.86161 0.0
C1040 C 0.6297 0.06878 0.86473 0.0
H1041 H 0.70822 0.13868 0.90202 0.0
H1042 H 0.67643 0.1136 0.89556 0.0
H1043 H 0.68157 0.09082 0.85514 0.0
H1044 H 0.59165 0.02123 0.83577 0.0
H1045 H 0.61495 0.05501 0.84111 0.0
C1046 C 0.5956 0.96308 0.63934 0.0
C1047 C 0.58597 0.97755 0.62989 0.0
C1048 C 0.60945 0.94422 0.63594 0.0
C1049 C 0.64755 0.92484 0.61013 0.0
H1050 H 0.64698 0.86637 0.62851 0.0
C1051 C 0.71074 0.85161 0.59718 0.0
C1052 C 0.72186 0.84045 0.60745 0.0
C1053 C 0.69175 0.86609 0.59932 0.0
C1054 C 0.64743 0.88266 0.62334 0.0
H1055 H 0.58257 0.98298 0.60945 0.0
H1056 H 0.60673 0.94992 0.60351 0.0
H1057 H 0.61759 0.89569 0.63319 0.0
H1058 H 0.7213 0.83513 0.62798 0.0
H1059 H 0.68835 0.86078 0.63176 0.0
H1060 H 0.67766 0.9122 0.60051 0.0
C1061 C 0.60375 0.95338 0.61355 0.0
C1062 C 0.63059 0.89942 0.62601 0.0
C1063 C 0.58982 0.97224 0.61695 0.0
C1064 C 0.71311 0.84349 0.61987 0.0
C1065 C 0.69414 0.85809 0.62202 0.0
C1066 C 0.6644 0.90815 0.60749 0.0
C1067 C 0.61402 0.9394 0.62302 0.0
C1068 C 0.63062 0.92079 0.61952 0.0
C1069 C 0.68349 0.86986 0.61179 0.0
C1070 C 0.66469 0.88694 0.61415 0.0
H1071 H 0.59292 0.96664 0.6494 0.0
H1072 H 0.61728 0.93394 0.64347 0.0
H1073 H 0.64832 0.94128 0.60513 0.0
H1074 H 0.71688 0.84943 0.58747 0.0
H1075 H 0.68368 0.87453 0.5912 0.0
C1076 C 0.75975 0.85959 0.37455 0.0
C1077 C 0.76103 0.84563 0.38554 0.0
C1078 C 0.77792 0.87446 0.37138 0.0
C1079 C 0.83973 0.88735 0.37719 0.0
H1080 H 0.82135 0.94919 0.36663 0.0
C1081 C 0.90443 0.9638 0.36974 0.0
C1082 C 0.90043 0.97768 0.3589 0.0
C1083 C 0.88843 0.94671 0.37329 0.0
C1084 C 0.82678 0.93193 0.36945 0.0
H1085 H 0.78281 0.83564 0.40156 0.0
H1086 H 0.81456 0.86185 0.39604 0.0
H1087 H 0.7918 0.92078 0.37203 0.0
H1088 H 0.87682 0.98402 0.34307 0.0
H1089 H 0.84921 0.95431 0.34921 0.0
H1090 H 0.87483 0.89872 0.37457 0.0
C1091 C 0.7995 0.86115 0.38985 0.0
C1092 C 0.80985 0.91564 0.37252 0.0
C1093 C 0.78129 0.84621 0.39303 0.0
C1094 C 0.88038 0.97381 0.35155 0.0
C1095 C 0.86446 0.95683 0.3551 0.0
C1096 C 0.85675 0.90373 0.3741 0.0
C1097 C 0.79779 0.87577 0.37913 0.0
C1098 C 0.81609 0.89308 0.37626 0.0
C1099 C 0.86813 0.94329 0.36608 0.0
C1100 C 0.8504 0.9261 0.37004 0.0
H1101 H 0.74449 0.8594 0.3685 0.0
H1102 H 0.77629 0.88515 0.3629 0.0
H1103 H 0.84506 0.87007 0.38 0.0
H1104 H 0.91974 0.96634 0.37558 0.0
H1105 H 0.89165 0.93658 0.38184 0.0
C1106 C 0.7728 0.14478 0.09938 0.0
C1107 C 0.76548 0.16217 0.10788 0.0
C1108 C 0.79108 0.13005 0.1026 0.0
C1109 C 0.82144 0.10602 0.13043 0.0
H1110 H 0.86462 0.08407 0.10471 0.0
C1111 C 0.89172 0.03786 0.14195 0.0
C1112 C 0.89325 0.01939 0.13321 0.0
C1113 C 0.87898 0.05774 0.13893 0.0
C1114 C 0.85264 0.08999 0.11199 0.0
H1115 H 0.77203 0.17812 0.12631 0.0
H1116 H 0.80416 0.15236 0.13192 0.0
H1117 H 0.83728 0.1149 0.09939 0.0
H1118 H 0.88322 0.00765 0.1143 0.0
H1119 H 0.86093 0.04227 0.10906 0.0
H1120 H 0.8365 0.08079 0.14295 0.0
C1121 C 0.79553 0.15002 0.12281 0.0
C1122 C 0.83699 0.10764 0.10894 0.0
C1123 C 0.7772 0.16483 0.11958 0.0
C1124 C 0.88237 0.02154 0.12125 0.0
C1125 C 0.86971 0.04145 0.11821 0.0
C1126 C 0.83714 0.0884 0.13348 0.0
C1127 C 0.80253 0.13234 0.11439 0.0
C1128 C 0.82088 0.11551 0.11805 0.0
C1129 C 0.86761 0.05963 0.12709 0.0
C1130 C 0.8526 0.07989 0.12421 0.0
H1131 H 0.76419 0.14224 0.09028 0.0
H1132 H 0.79577 0.11641 0.09598 0.0
H1133 H 0.80909 0.11148 0.13762 0.0
H1134 H 0.89999 0.0368 0.15124 0.0
H1135 H 0.87789 0.07158 0.14591 0.0
C1136 C 0.77881 0.35316 0.59382 0.0
C1137 C 0.77237 0.33614 0.60278 0.0
C1138 C 0.79605 0.36926 0.59672 0.0
C1139 C 0.84482 0.38243 0.6183 0.0
H1140 H 0.82781 0.44622 0.61114 0.0
C1141 C 0.89293 0.46132 0.63988 0.0
C1142 C 0.89444 0.48167 0.63252 0.0
C1143 C 0.88049 0.44218 0.6354 0.0
C1144 C 0.8331 0.42851 0.613 0.0
H1145 H 0.77978 0.32203 0.62158 0.0
H1146 H 0.80997 0.35038 0.62666 0.0
H1147 H 0.80183 0.41508 0.60494 0.0
H1148 H 0.88529 0.49744 0.61437 0.0
H1149 H 0.86411 0.4639 0.6064 0.0
H1150 H 0.87612 0.39597 0.62642 0.0
C1151 C 0.80164 0.35112 0.61738 0.0
C1152 C 0.81813 0.41065 0.60947 0.0
C1153 C 0.78429 0.33497 0.6145 0.0
C1154 C 0.88421 0.48211 0.62034 0.0
C1155 C 0.87196 0.46292 0.6158 0.0
C1156 C 0.85992 0.40035 0.62177 0.0
C1157 C 0.8073 0.36874 0.60862 0.0
C1158 C 0.82377 0.38743 0.61211 0.0
C1159 C 0.86945 0.44294 0.62341 0.0
C1160 C 0.85417 0.42363 0.6192 0.0
H1161 H 0.77018 0.35442 0.58464 0.0
H1162 H 0.80033 0.3824 0.58969 0.0
H1163 H 0.84967 0.36467 0.62036 0.0
H1164 H 0.90061 0.46043 0.64933 0.0
H1165 H 0.87875 0.42718 0.64156 0.0
C1166 C 0.90822 0.52874 0.84918 0.0
C1167 C 0.91492 0.51443 0.85943 0.0
C1168 C 0.89526 0.54879 0.85135 0.0
C1169 C 0.8744 0.58904 0.87669 0.0
H1170 H 0.82281 0.59753 0.85333 0.0
C1171 C 0.79272 0.64224 0.88898 0.0
C1172 C 0.78243 0.65568 0.87928 0.0
C1173 C 0.8116 0.62791 0.88628 0.0
C1174 C 0.83734 0.59568 0.85982 0.0
H1175 H 0.91414 0.51047 0.88004 0.0
H1176 H 0.89101 0.54521 0.88383 0.0
H1177 H 0.85112 0.56724 0.84921 0.0
H1178 H 0.78442 0.6652 0.85924 0.0
H1179 H 0.81743 0.64005 0.85452 0.0
H1180 H 0.85998 0.61708 0.88753 0.0
C1181 C 0.89608 0.54115 0.87412 0.0
C1182 C 0.85363 0.57831 0.85746 0.0
C1183 C 0.90926 0.52116 0.87195 0.0
C1184 C 0.79188 0.65499 0.86691 0.0
C1185 C 0.81072 0.64053 0.86419 0.0
C1186 C 0.858 0.60637 0.87909 0.0
C1187 C 0.88847 0.55491 0.86381 0.0
C1188 C 0.87223 0.57458 0.86593 0.0
C1189 C 0.82058 0.62661 0.87382 0.0
C1190 C 0.83915 0.60968 0.87076 0.0
H1191 H 0.91258 0.52419 0.83942 0.0
H1192 H 0.89017 0.55926 0.84322 0.0
H1193 H 0.88869 0.58687 0.88331 0.0
H1194 H 0.78593 0.64244 0.89863 0.0
H1195 H 0.81865 0.61723 0.89387 0.0
C1196 C 0.71116 0.64443 0.09065 0.0
C1197 C 0.72116 0.65789 0.1004 0.0
C1198 C 0.69258 0.6297 0.09326 0.0
C1199 C 0.64705 0.61608 0.11714 0.0
H1200 H 0.65092 0.55465 0.1022 0.0
C1201 C 0.5941 0.5377 0.13537 0.0
C1202 C 0.58572 0.52172 0.12633 0.0
C1203 C 0.60835 0.55605 0.1316 0.0
C1204 C 0.64934 0.57183 0.10629 0.0
H1205 H 0.71898 0.667 0.12048 0.0
H1206 H 0.68669 0.64092 0.12511 0.0
H1207 H 0.68001 0.58356 0.09686 0.0
H1208 H 0.58504 0.513 0.10615 0.0
H1209 H 0.60984 0.54514 0.09956 0.0
H1210 H 0.61657 0.60404 0.12679 0.0
C1211 C 0.69308 0.64199 0.11539 0.0
C1212 C 0.66604 0.58844 0.10323 0.0
C1213 C 0.71165 0.65686 0.11276 0.0
C1214 C 0.5913 0.52493 0.11337 0.0
C1215 C 0.6056 0.54327 0.1096 0.0
C1216 C 0.63034 0.59942 0.12023 0.0
C1217 C 0.68359 0.62795 0.10571 0.0
C1218 C 0.66519 0.61072 0.10866 0.0
C1219 C 0.61458 0.55882 0.1187 0.0
C1220 C 0.6314 0.57706 0.11489 0.0
H1221 H 0.71789 0.64502 0.08098 0.0
H1222 H 0.68538 0.61949 0.08553 0.0
H1223 H 0.64573 0.63317 0.12136 0.0
H1224 H 0.59009 0.53577 0.14544 0.0
H1225 H 0.61514 0.56758 0.13886 0.0
C1226 C 0.69937 0.34959 0.38519 0.0
C1227 C 0.7186 0.34924 0.37693 0.0
C1228 C 0.67922 0.36158 0.38179 0.0
C1229 C 0.64834 0.38857 0.35447 0.0
H1230 H 0.624 0.43018 0.38031 0.0
C1231 C 0.5937 0.46876 0.34213 0.0
C1232 C 0.57575 0.47552 0.35041 0.0
C1233 C 0.60816 0.45021 0.34525 0.0
C1234 C 0.63024 0.41835 0.37305 0.0
H1235 H 0.73141 0.36039 0.35842 0.0
H1236 H 0.69634 0.3814 0.35254 0.0
H1237 H 0.65469 0.403 0.38591 0.0
H1238 H 0.55842 0.46755 0.36829 0.0
H1239 H 0.58369 0.43496 0.37372 0.0
H1240 H 0.62424 0.40432 0.34154 0.0
C1241 C 0.69676 0.37228 0.3616 0.0
C1242 C 0.64787 0.40277 0.37625 0.0
C1243 C 0.71692 0.36036 0.36501 0.0
C1244 C 0.57217 0.46286 0.36173 0.0
C1245 C 0.5867 0.44426 0.36487 0.0
C1246 C 0.63068 0.40412 0.35127 0.0
C1247 C 0.67784 0.37338 0.37005 0.0
C1248 C 0.65744 0.38804 0.36694 0.0
C1249 C 0.60504 0.43792 0.35673 0.0
C1250 C 0.62178 0.41953 0.36046 0.0
H1251 H 0.70004 0.3411 0.39442 0.0
H1252 H 0.66482 0.36187 0.38843 0.0
H1253 H 0.65511 0.37717 0.34714 0.0
H1254 H 0.59693 0.4781 0.33332 0.0
H1255 H 0.62231 0.44602 0.33885 0.0
C1256 C 0.09618 0.51061 0.36933 0.0
C1257 C 0.09231 0.50501 0.35642 0.0
C1258 C 0.10951 0.52999 0.37261 0.0
C1259 C 0.15731 0.5641 0.36036 0.0
H1260 H 0.14075 0.60929 0.38622 0.0
C1261 C 0.21917 0.63871 0.37209 0.0
C1262 C 0.22181 0.64456 0.38502 0.0
C1263 C 0.20095 0.62446 0.36816 0.0
C1264 C 0.14575 0.59668 0.37907 0.0
H1265 H 0.0987 0.51582 0.33684 0.0
H1266 H 0.12221 0.54934 0.34259 0.0
H1267 H 0.11324 0.57873 0.38049 0.0
H1268 H 0.20706 0.64077 0.40397 0.0
H1269 H 0.17582 0.61512 0.39725 0.0
H1270 H 0.19008 0.58103 0.35925 0.0
C1271 C 0.11494 0.53874 0.35015 0.0
C1272 C 0.12995 0.57927 0.37577 0.0
C1273 C 0.10142 0.51958 0.34687 0.0
C1274 C 0.20539 0.6366 0.39391 0.0
C1275 C 0.18739 0.62197 0.39003 0.0
C1276 C 0.1732 0.58122 0.36377 0.0
C1277 C 0.1194 0.54392 0.36302 0.0
C1278 C 0.13562 0.56284 0.36638 0.0
C1279 C 0.18523 0.61531 0.37713 0.0
C1280 C 0.16768 0.59776 0.37318 0.0
H1281 H 0.08931 0.49978 0.3769 0.0
H1282 H 0.11282 0.53357 0.38261 0.0
H1283 H 0.16225 0.55139 0.35323 0.0
H1284 H 0.23142 0.64486 0.365 0.0
H1285 H 0.19949 0.62028 0.3581 0.0
C1286 C 0.21642 0.34391 0.0931 0.0
C1287 C 0.22223 0.32718 0.10235 0.0
C1288 C 0.19863 0.35976 0.09533 0.0
C1289 C 0.14748 0.37207 0.11545 0.0
H1290 H 0.16191 0.43597 0.10702 0.0
C1291 C 0.09428 0.45041 0.13384 0.0
C1292 C 0.09176 0.46967 0.1257 0.0
C1293 C 0.10809 0.43161 0.13024 0.0
C1294 C 0.15739 0.41819 0.10923 0.0
H1295 H 0.2133 0.31346 0.12103 0.0
H1296 H 0.18223 0.34141 0.12498 0.0
H1297 H 0.18985 0.40567 0.10224 0.0
H1298 H 0.10075 0.48374 0.1071 0.0
H1299 H 0.12451 0.45079 0.10074 0.0
H1300 H 0.11503 0.38475 0.12256 0.0
C1301 C 0.19141 0.34209 0.11596 0.0
C1302 C 0.17345 0.4008 0.10652 0.0
C1303 C 0.20927 0.32616 0.11372 0.0
C1304 C 0.10252 0.46928 0.11365 0.0
C1305 C 0.11625 0.45044 0.11003 0.0
C1306 C 0.13133 0.38951 0.11815 0.0
C1307 C 0.18621 0.35933 0.10687 0.0
C1308 C 0.16872 0.37755 0.1096 0.0
C1309 C 0.11961 0.43162 0.1184 0.0
C1310 C 0.13615 0.41279 0.11509 0.0
H1311 H 0.22586 0.34503 0.08416 0.0
H1312 H 0.19474 0.37254 0.08803 0.0
H1313 H 0.14326 0.35428 0.11783 0.0
H1314 H 0.08621 0.45016 0.14319 0.0
H1315 H 0.11046 0.41749 0.13695 0.0
C1316 C 0.39181 0.47065 0.85129 0.0
C1317 C 0.40968 0.47742 0.85963 0.0
C1318 C 0.37803 0.45145 0.85407 0.0
C1319 C 0.35752 0.41618 0.88096 0.0
H1320 H 0.33509 0.37617 0.85382 0.0
C1321 C 0.29211 0.34232 0.89045 0.0
C1322 C 0.27301 0.34189 0.88208 0.0
C1323 C 0.31151 0.35593 0.88766 0.0
C1324 C 0.34118 0.38722 0.86149 0.0
H1325 H 0.42739 0.469 0.87734 0.0
H1326 H 0.40325 0.43524 0.88219 0.0
H1327 H 0.36459 0.40528 0.84914 0.0
H1328 H 0.25966 0.35476 0.86402 0.0
H1329 H 0.29346 0.37849 0.85918 0.0
H1330 H 0.33375 0.39841 0.89325 0.0
C1331 C 0.39984 0.44501 0.87354 0.0
C1332 C 0.35805 0.4039 0.85882 0.0
C1333 C 0.41371 0.46428 0.87074 0.0
C1334 C 0.27405 0.35474 0.87068 0.0
C1335 C 0.2935 0.36823 0.86786 0.0
C1336 C 0.34068 0.39944 0.88364 0.0
C1337 C 0.38176 0.43847 0.86526 0.0
C1338 C 0.36601 0.41893 0.86845 0.0
C1339 C 0.31229 0.36924 0.87641 0.0
C1340 C 0.33197 0.38514 0.87387 0.0
H1341 H 0.38821 0.48036 0.84263 0.0
H1342 H 0.36402 0.44716 0.84759 0.0
H1343 H 0.36309 0.42764 0.88856 0.0
H1344 H 0.29188 0.33256 0.89931 0.0
H1345 H 0.32584 0.35619 0.89437 0.0
C1346 C 0.39464 0.51799 0.62169 0.0
C1347 C 0.4072 0.5181 0.63321 0.0
C1348 C 0.3821 0.53753 0.61786 0.0
C1349 C 0.3531 0.58842 0.63137 0.0
H1350 H 0.34697 0.60654 0.5958 0.0
C1351 C 0.27564 0.64091 0.61243 0.0
C1352 C 0.27952 0.65771 0.60292 0.0
C1353 C 0.29365 0.62661 0.61659 0.0
C1354 C 0.34872 0.60193 0.6058 0.0
H1355 H 0.41718 0.53914 0.64951 0.0
H1356 H 0.39534 0.57329 0.64279 0.0
H1357 H 0.37503 0.57675 0.60178 0.0
H1358 H 0.30553 0.67307 0.59056 0.0
H1359 H 0.33706 0.64803 0.59787 0.0
H1360 H 0.32665 0.61342 0.63537 0.0
C1361 C 0.39498 0.55797 0.6368 0.0
C1362 C 0.36462 0.58469 0.6092 0.0
C1363 C 0.40757 0.53844 0.64061 0.0
C1364 C 0.30196 0.66027 0.59788 0.0
C1365 C 0.31999 0.64585 0.60201 0.0
C1366 C 0.33717 0.6056 0.62796 0.0
C1367 C 0.38182 0.55761 0.62548 0.0
C1368 C 0.36669 0.57747 0.622 0.0
C1369 C 0.31595 0.62871 0.61132 0.0
C1370 C 0.33451 0.61224 0.61511 0.0
H1371 H 0.39401 0.50262 0.61575 0.0
H1372 H 0.37193 0.53658 0.60917 0.0
H1373 H 0.35413 0.58313 0.6413 0.0
H1374 H 0.25856 0.63849 0.61651 0.0
H1375 H 0.28989 0.61338 0.62365 0.0
C1376 C 0.38678 0.08996 0.14598 0.0
C1377 C 0.3846 0.06919 0.13905 0.0
C1378 C 0.37354 0.1094 0.14269 0.0
C1379 C 0.3215 0.12799 0.12453 0.0
H1380 H 0.35389 0.18677 0.12231 0.0
C1381 C 0.28649 0.20645 0.09605 0.0
C1382 C 0.2909 0.22885 0.10075 0.0
C1383 C 0.29574 0.18699 0.1022 0.0
C1384 C 0.34444 0.1706 0.12309 0.0
H1385 H 0.36638 0.05237 0.12345 0.0
H1386 H 0.34348 0.08628 0.11766 0.0
H1387 H 0.37413 0.15276 0.1304 0.0
H1388 H 0.30751 0.2483 0.11597 0.0
H1389 H 0.32337 0.21435 0.12677 0.0
H1390 H 0.2919 0.14582 0.117 0.0
C1391 C 0.35525 0.08751 0.12571 0.0
C1392 C 0.35607 0.15108 0.12772 0.0
C1393 C 0.36851 0.06811 0.12897 0.0
C1394 C 0.30395 0.2313 0.11203 0.0
C1395 C 0.31315 0.21185 0.11819 0.0
C1396 C 0.30984 0.14755 0.1199 0.0
C1397 C 0.35779 0.10846 0.13243 0.0
C1398 C 0.34483 0.12949 0.12835 0.0
C1399 C 0.30956 0.18949 0.1132 0.0
C1400 C 0.32126 0.16903 0.11899 0.0
H1401 H 0.39895 0.09135 0.15383 0.0
H1402 H 0.3757 0.1252 0.14815 0.0
H1403 H 0.31227 0.11167 0.12507 0.0
H1404 H 0.27651 0.20394 0.08739 0.0
H1405 H 0.29281 0.17006 0.09803 0.0
C1406 C 0.15498 0.11451 0.3923 0.0
C1407 C 0.16079 0.1337 0.38464 0.0
C1408 C 0.13732 0.09932 0.38856 0.0
C1409 C 0.10255 0.08102 0.36053 0.0
H1410 H 0.05635 0.06428 0.38583 0.0
C1411 C 0.00127 0.05293 0.36128 0.0
C1412 C 0.0009 0.03637 0.35143 0.0
C1413 C 0.02229 0.06087 0.36624 0.0
C1414 C 0.06915 0.06876 0.37866 0.0
H1415 H 0.15291 0.15172 0.36693 0.0
H1416 H 0.1221 0.12542 0.36049 0.0
H1417 H 0.09066 0.08603 0.39236 0.0
H1418 H 0.02232 0.01436 0.33946 0.0
H1419 H 0.05908 0.02819 0.34819 0.0
H1420 H 0.0806 0.06466 0.34674 0.0
C1421 C 0.13132 0.12193 0.36932 0.0
C1422 C 0.08891 0.08102 0.38242 0.0
C1423 C 0.14888 0.13712 0.37306 0.0
C1424 C 0.02201 0.02723 0.347 0.0
C1425 C 0.04307 0.03522 0.35195 0.0
C1426 C 0.08283 0.06874 0.35678 0.0
C1427 C 0.12521 0.10296 0.37706 0.0
C1428 C 0.10557 0.08773 0.37334 0.0
C1429 C 0.04345 0.05245 0.36146 0.0
C1430 C 0.06565 0.06291 0.36575 0.0
H1431 H 0.16388 0.11134 0.40126 0.0
H1432 H 0.13313 0.08474 0.39468 0.0
H1433 H 0.11524 0.08567 0.35334 0.0
H1434 H 0.98533 0.06029 0.36494 0.0
H1435 H 0.02195 0.07432 0.37346 0.0
C1436 C 0.12162 0.91616 0.62588 0.0
C1437 C 0.10875 0.91676 0.63729 0.0
C1438 C 0.1353 0.89692 0.6229 0.0
C1439 C 0.13983 0.83462 0.62944 0.0
H1440 H 0.19975 0.84053 0.61295 0.0
C1441 C 0.19279 0.75417 0.61524 0.0
C1442 C 0.20266 0.75451 0.60295 0.0
C1443 C 0.18384 0.77442 0.62064 0.0
C1444 C 0.18298 0.8386 0.61748 0.0
H1445 H 0.10068 0.89789 0.65468 0.0
H1446 H 0.12464 0.8643 0.64947 0.0
H1447 H 0.17944 0.87524 0.62026 0.0
H1448 H 0.21158 0.77658 0.58688 0.0
H1449 H 0.19563 0.81184 0.59621 0.0
H1450 H 0.14302 0.79812 0.62642 0.0
C1451 C 0.12393 0.87864 0.64278 0.0
C1452 C 0.17136 0.85848 0.62167 0.0
C1453 C 0.1103 0.89793 0.64579 0.0
C1454 C 0.20409 0.77571 0.59636 0.0
C1455 C 0.19506 0.79597 0.60175 0.0
C1456 C 0.1514 0.81478 0.62523 0.0
C1457 C 0.13638 0.87782 0.63124 0.0
C1458 C 0.14955 0.85671 0.62758 0.0
C1459 C 0.18447 0.79548 0.61386 0.0
C1460 C 0.17301 0.81654 0.61908 0.0
H1461 H 0.12085 0.93039 0.61912 0.0
H1462 H 0.14447 0.89672 0.61386 0.0
H1463 H 0.12289 0.8327 0.63378 0.0
H1464 H 0.19158 0.73815 0.62062 0.0
H1465 H 0.17617 0.77353 0.63008 0.0
C1466 C 0.49144 0.92848 0.85805 0.0
C1467 C 0.48921 0.945 0.84822 0.0
C1468 C 0.4718 0.91884 0.86377 0.0
C1469 C 0.42711 0.90842 0.87815 0.0
H1470 H 0.37897 0.88765 0.85492 0.0
C1471 C 0.34254 0.86362 0.89533 0.0
C1472 C 0.33592 0.84379 0.88841 0.0
C1473 C 0.36043 0.87789 0.89089 0.0
C1474 C 0.39228 0.89334 0.86152 0.0
H1475 H 0.46458 0.96495 0.83702 0.0
H1476 H 0.43028 0.9481 0.84704 0.0
H1477 H 0.41179 0.90964 0.84663 0.0
H1478 H 0.34292 0.82342 0.8714 0.0
H1479 H 0.37404 0.84824 0.8637 0.0
H1480 H 0.40785 0.89149 0.89298 0.0
C1481 C 0.44725 0.94246 0.85022 0.0
C1482 C 0.41094 0.90616 0.8568 0.0
C1483 C 0.46691 0.95219 0.84452 0.0
C1484 C 0.34755 0.83857 0.87696 0.0
C1485 C 0.36529 0.85288 0.87249 0.0
C1486 C 0.40835 0.89568 0.88288 0.0
C1487 C 0.44949 0.92543 0.85977 0.0
C1488 C 0.42874 0.91355 0.86503 0.0
C1489 C 0.37191 0.87271 0.87938 0.0
C1490 C 0.39094 0.88768 0.87458 0.0
H1491 H 0.50837 0.92259 0.86115 0.0
H1492 H 0.47412 0.90559 0.87101 0.0
H1493 H 0.44046 0.91406 0.88473 0.0
H1494 H 0.33391 0.86812 0.90419 0.0
H1495 H 0.36507 0.89314 0.89636 0.0
C1496 C 0.28449 0.74867 0.3724 0.0
C1497 C 0.28477 0.74257 0.38541 0.0
C1498 C 0.29375 0.76982 0.36833 0.0
C1499 C 0.31229 0.82783 0.37948 0.0
H1500 H 0.35434 0.82479 0.35061 0.0
C1501 C 0.37934 0.89928 0.36873 0.0
C1502 C 0.38442 0.90455 0.35591 0.0
C1503 C 0.36457 0.8809 0.37178 0.0
C1504 C 0.34235 0.82609 0.35854 0.0
H1505 H 0.29421 0.75429 0.40443 0.0
H1506 H 0.31045 0.79113 0.39732 0.0
H1507 H 0.33282 0.79036 0.35695 0.0
H1508 H 0.3774 0.89509 0.33621 0.0
H1509 H 0.35135 0.86317 0.34153 0.0
H1510 H 0.32206 0.86351 0.38116 0.0
C1511 C 0.30295 0.77962 0.39027 0.0
C1512 C 0.33002 0.80632 0.36218 0.0
C1513 C 0.29375 0.75844 0.39433 0.0
C1514 C 0.37396 0.89138 0.34619 0.0
C1515 C 0.35912 0.87302 0.34924 0.0
C1516 C 0.32457 0.84764 0.3758 0.0
C1517 C 0.30341 0.78536 0.3772 0.0
C1518 C 0.31508 0.80688 0.3728 0.0
C1519 C 0.35446 0.8674 0.36208 0.0
C1520 C 0.34 0.84691 0.3654 0.0
H1521 H 0.27758 0.73691 0.36528 0.0
H1522 H 0.29356 0.7739 0.35822 0.0
H1523 H 0.30066 0.82888 0.38759 0.0
H1524 H 0.38712 0.90906 0.37646 0.0
H1525 H 0.36164 0.87687 0.38177 0.0
C1526 C 0.33762 0.13717 0.60396 0.0
C1527 C 0.34111 0.15197 0.59344 0.0
C1528 C 0.3555 0.12286 0.60834 0.0
C1529 C 0.41911 0.11841 0.60833 0.0
H1530 H 0.40764 0.05612 0.62086 0.0
C1531 C 0.4935 0.06046 0.62623 0.0
C1532 C 0.48968 0.04869 0.63782 0.0
C1533 C 0.47514 0.07108 0.61977 0.0
C1534 C 0.41108 0.07354 0.61747 0.0
H1535 H 0.36592 0.16285 0.57905 0.0
H1536 H 0.39705 0.13774 0.58665 0.0
H1537 H 0.37594 0.07838 0.61138 0.0
H1538 H 0.46341 0.03816 0.65148 0.0
H1539 H 0.43139 0.0569 0.64026 0.0
H1540 H 0.4541 0.11377 0.61456 0.0
C1541 C 0.38058 0.13745 0.59162 0.0
C1542 C 0.39293 0.08629 0.61204 0.0
C1543 C 0.3627 0.15176 0.58723 0.0
C1544 C 0.46695 0.0471 0.64258 0.0
C1545 C 0.44857 0.05774 0.63611 0.0
C1546 C 0.43722 0.10568 0.61374 0.0
C1547 C 0.37727 0.12303 0.60232 0.0
C1548 C 0.39671 0.10894 0.6075 0.0
C1549 C 0.45253 0.07019 0.62475 0.0
C1550 C 0.4334 0.08316 0.61845 0.0
H1551 H 0.32119 0.1369 0.60897 0.0
H1552 H 0.35244 0.11217 0.6167 0.0
H1553 H 0.42253 0.13595 0.60514 0.0
H1554 H 0.51077 0.06187 0.62224 0.0
H1555 H 0.47871 0.08019 0.61093 0.0
C1556 C 0.10538 0.10031 0.84007 0.0
C1557 C 0.10449 0.08258 0.84929 0.0
C1558 C 0.1191 0.11996 0.84207 0.0
C1559 C 0.16781 0.1427 0.86146 0.0
H1560 H 0.13922 0.2024 0.8549 0.0
C1561 C 0.20111 0.22799 0.88361 0.0
C1562 C 0.19952 0.24848 0.87637 0.0
C1563 C 0.192 0.20721 0.87893 0.0
C1564 C 0.14766 0.1859 0.85657 0.0
H1565 H 0.11777 0.07133 0.86771 0.0
H1566 H 0.14151 0.10566 0.87122 0.0
H1567 H 0.1187 0.16702 0.84917 0.0
H1568 H 0.18802 0.26299 0.85829 0.0
H1569 H 0.17238 0.22666 0.85007 0.0
H1570 H 0.19662 0.16162 0.86907 0.0
C1571 C 0.13178 0.10429 0.86239 0.0
C1572 C 0.13587 0.1656 0.8533 0.0
C1573 C 0.11803 0.08468 0.86041 0.0
C1574 C 0.18939 0.24755 0.86415 0.0
C1575 C 0.1803 0.22675 0.85946 0.0
C1576 C 0.17963 0.16302 0.86472 0.0
C1577 C 0.13228 0.12227 0.85331 0.0
C1578 C 0.14566 0.14377 0.85587 0.0
C1579 C 0.18113 0.20643 0.8669 0.0
C1580 C 0.16955 0.18485 0.86248 0.0
H1581 H 0.09524 0.09918 0.83137 0.0
H1582 H 0.11932 0.13341 0.83483 0.0
H1583 H 0.17596 0.12613 0.86339 0.0
H1584 H 0.2088 0.2281 0.89306 0.0
H1585 H 0.19271 0.19195 0.88497 0.0
C1586 C 0.14512 0.87268 0.09911 0.0
C1587 C 0.15583 0.86076 0.10925 0.0
C1588 C 0.12736 0.88863 0.1015 0.0
C1589 C 0.09995 0.92306 0.12751 0.0
H1590 H 0.04544 0.91992 0.10585 0.0
C1591 C 0.00935 0.95246 0.1436 0.0
C1592 C 0.99485 0.96361 0.13471 0.0
C1593 C 0.03096 0.94395 0.13988 0.0
C1594 C 0.06069 0.92132 0.11186 0.0
H1595 H 0.15655 0.8565 0.12986 0.0
H1596 H 0.12538 0.88383 0.134 0.0
H1597 H 0.07964 0.89719 0.10039 0.0
H1598 H 0.99198 0.97531 0.11505 0.0
H1599 H 0.02979 0.96021 0.10852 0.0
H1600 H 0.08056 0.94653 0.13924 0.0
C1601 C 0.13092 0.88125 0.12421 0.0
C1602 C 0.08031 0.90831 0.10873 0.0
C1603 C 0.1487 0.86541 0.12183 0.0
C1604 C 0.00276 0.96678 0.12212 0.0
C1605 C 0.02433 0.95804 0.11836 0.0
C1606 C 0.08027 0.93597 0.13068 0.0
C1607 C 0.11991 0.89294 0.11408 0.0
C1608 C 0.10001 0.90865 0.11666 0.0
C1609 C 0.03849 0.94624 0.12717 0.0
C1610 C 0.06029 0.93487 0.12302 0.0
H1611 H 0.15032 0.8696 0.0893 0.0
H1612 H 0.11945 0.89754 0.09349 0.0
H1613 H 0.11499 0.92411 0.13368 0.0
H1614 H 0.0038 0.94983 0.15339 0.0
H1615 H 0.04138 0.93474 0.14685 0.0
C1616 C 0.72243 0.77317 0.88333 0.0
C1617 C 0.71422 0.75061 0.881 0.0
C1618 C 0.71211 0.79228 0.87734 0.0
C1619 C 0.65643 0.80979 0.86344 0.0
H1620 H 0.6906 0.86278 0.85056 0.0
C1621 C 0.60933 0.88636 0.83967 0.0
C1622 C 0.61682 0.90874 0.84302 0.0
C1623 C 0.62249 0.86692 0.84298 0.0
C1624 C 0.68081 0.84819 0.85422 0.0
H1625 H 0.68944 0.73036 0.87006 0.0
H1626 H 0.67158 0.76361 0.85962 0.0
H1627 H 0.71164 0.82906 0.85874 0.0
H1628 H 0.64434 0.92827 0.85219 0.0
H1629 H 0.66705 0.89434 0.85819 0.0
H1630 H 0.62564 0.82892 0.85927 0.0
C1631 C 0.68576 0.76657 0.86622 0.0
C1632 C 0.69287 0.82888 0.85887 0.0
C1633 C 0.69609 0.74751 0.87217 0.0
C1634 C 0.63808 0.91128 0.84945 0.0
C1635 C 0.65119 0.89181 0.85283 0.0
C1636 C 0.6444 0.82908 0.85886 0.0
C1637 C 0.69333 0.7892 0.86893 0.0
C1638 C 0.68079 0.80949 0.86356 0.0
C1639 C 0.64339 0.86936 0.84979 0.0
C1640 C 0.65641 0.84856 0.85421 0.0
H1641 H 0.7364 0.77616 0.89006 0.0
H1642 H 0.71825 0.80952 0.87967 0.0
H1643 H 0.64661 0.79531 0.86721 0.0
H1644 H 0.59313 0.88381 0.83462 0.0
H1645 H 0.61619 0.84993 0.84026 0.0
C1646 C 0.97168 0.97336 0.63437 0.0
C1647 C 0.9924 0.96055 0.6347 0.0
C1648 C 0.95158 0.96382 0.62903 0.0
C1649 C 0.90935 0.93271 0.6264 0.0
H1650 H 0.91134 0.89042 0.59761 0.0
C1651 C 0.83898 0.86393 0.61797 0.0
C1652 C 0.83262 0.85834 0.60538 0.0
C1653 C 0.85732 0.87913 0.62034 0.0
C1654 C 0.91035 0.90243 0.60554 0.0
H1655 H 0.00847 0.928 0.6292 0.0
H1656 H 0.97352 0.9113 0.62014 0.0
H1657 H 0.94568 0.91285 0.60314 0.0
H1658 H 0.84023 0.86472 0.58536 0.0
H1659 H 0.87213 0.89152 0.58951 0.0
H1660 H 0.87401 0.92235 0.62878 0.0
C1661 C 0.97275 0.92883 0.62384 0.0
C1662 C 0.93014 0.9151 0.60881 0.0
C1663 C 0.9928 0.93836 0.62913 0.0
C1664 C 0.84478 0.86858 0.59518 0.0
C1665 C 0.86312 0.88386 0.59756 0.0
C1666 C 0.88955 0.92011 0.62311 0.0
C1667 C 0.95179 0.94126 0.62391 0.0
C1668 C 0.93004 0.92999 0.61946 0.0
C1669 C 0.8697 0.8892 0.61018 0.0
C1670 C 0.88996 0.90442 0.61282 0.0
H1671 H 0.97081 0.99056 0.6385 0.0
H1672 H 0.93579 0.97399 0.62907 0.0
H1673 H 0.90867 0.94387 0.63472 0.0
H1674 H 0.83003 0.85632 0.62605 0.0
H1675 H 0.86215 0.88251 0.63017 0.0
C1676 C 0.79677 0.23989 0.38993 0.0
C1677 C 0.78542 0.25278 0.38039 0.0
C1678 C 0.80838 0.2194 0.38688 0.0
C1679 C 0.81509 0.17431 0.36189 0.0
H1680 H 0.87487 0.16547 0.37821 0.0
C1681 C 0.88082 0.10361 0.34635 0.0
C1682 C 0.89182 0.09124 0.35624 0.0
C1683 C 0.86706 0.12294 0.34911 0.0
C1684 C 0.85811 0.16757 0.37367 0.0
H1685 H 0.7767 0.25389 0.36022 0.0
H1686 H 0.79734 0.21823 0.35484 0.0
H1687 H 0.85181 0.19952 0.38337 0.0
H1688 H 0.89689 0.08941 0.37678 0.0
H1689 H 0.87295 0.1231 0.38157 0.0
H1690 H 0.8217 0.14237 0.35207 0.0
C1691 C 0.79702 0.22384 0.36472 0.0
C1692 C 0.84485 0.18706 0.37665 0.0
C1693 C 0.78525 0.24431 0.36779 0.0
C1694 C 0.88873 0.09858 0.36893 0.0
C1695 C 0.8751 0.11795 0.37168 0.0
C1696 C 0.82845 0.15482 0.35887 0.0
C1697 C 0.80908 0.21138 0.3742 0.0
C1698 C 0.82311 0.19061 0.37087 0.0
C1699 C 0.86415 0.13037 0.36181 0.0
C1700 C 0.85004 0.15119 0.36479 0.0
H1701 H 0.79702 0.2458 0.39976 0.0
H1702 H 0.81701 0.20996 0.39447 0.0
H1703 H 0.79834 0.17641 0.35736 0.0
H1704 H 0.88283 0.09838 0.33647 0.0
H1705 H 0.859 0.1323 0.3413 0.0
C1706 C 0.65265 0.12991 0.11444 0.0
C1707 C 0.65549 0.14154 0.10273 0.0
C1708 C 0.63331 0.11586 0.11656 0.0
C1709 C 0.57328 0.10743 0.10583 0.0
H1710 H 0.57817 0.04993 0.12492 0.0
C1711 C 0.49292 0.05152 0.1171 0.0
C1712 C 0.49118 0.04372 0.1298 0.0
C1713 C 0.51366 0.06098 0.11255 0.0
C1714 C 0.57651 0.066 0.11962 0.0
H1715 H 0.64046 0.14715 0.08395 0.0
H1716 H 0.60671 0.12251 0.08765 0.0
H1717 H 0.61325 0.0712 0.11922 0.0
H1718 H 0.5101 0.03903 0.14757 0.0
H1719 H 0.5461 0.0557 0.13969 0.0
H1720 H 0.53655 0.10252 0.10645 0.0
C1721 C 0.61936 0.12448 0.09523 0.0
C1722 C 0.5966 0.07818 0.11637 0.0
C1723 C 0.63874 0.13851 0.0931 0.0
C1724 C 0.51083 0.04489 0.13773 0.0
C1725 C 0.53154 0.05432 0.13319 0.0
C1726 C 0.55319 0.09525 0.10909 0.0
C1727 C 0.61635 0.11312 0.10702 0.0
C1728 C 0.59519 0.09921 0.1096 0.0
C1729 C 0.5331 0.06279 0.12061 0.0
C1730 C 0.55456 0.07458 0.11619 0.0
H1731 H 0.66522 0.13186 0.12206 0.0
H1732 H 0.63136 0.10761 0.12581 0.0
H1733 H 0.57157 0.12372 0.10075 0.0
H1734 H 0.47813 0.05076 0.11072 0.0
H1735 H 0.5144 0.06708 0.10276 0.0
C1736 C 0.6895 0.2414 0.60996 0.0
C1737 C 0.70644 0.23878 0.60041 0.0
C1738 C 0.68024 0.22204 0.61613 0.0
C1739 C 0.68915 0.1597 0.62268 0.0
H1740 H 0.62209 0.15894 0.62528 0.0
C1741 C 0.63648 0.07667 0.63396 0.0
C1742 C 0.61617 0.07895 0.64128 0.0
C1743 C 0.64901 0.09628 0.63021 0.0
C1744 C 0.64085 0.15898 0.62486 0.0
H1745 H 0.72763 0.21378 0.59023 0.0
H1746 H 0.7113 0.17989 0.601 0.0
H1747 H 0.64145 0.19288 0.61659 0.0
H1748 H 0.59374 0.10353 0.65093 0.0
H1749 H 0.61583 0.13765 0.64462 0.0
H1750 H 0.68847 0.12565 0.6309 0.0
C1751 C 0.70529 0.19699 0.60374 0.0
C1752 C 0.65195 0.17846 0.61984 0.0
C1753 C 0.71456 0.21639 0.59752 0.0
C1754 C 0.60917 0.10118 0.64518 0.0
C1755 C 0.62177 0.12076 0.6415 0.0
C1756 C 0.67802 0.14019 0.62777 0.0
C1757 C 0.68769 0.1996 0.61292 0.0
C1758 C 0.67621 0.17903 0.61865 0.0
C1759 C 0.64159 0.1186 0.63376 0.0
C1760 C 0.65371 0.13958 0.62887 0.0
H1761 H 0.68299 0.2584 0.61251 0.0
H1762 H 0.66699 0.22464 0.62333 0.0
H1763 H 0.70788 0.15972 0.62199 0.0
H1764 H 0.64234 0.05978 0.63078 0.0
H1765 H 0.66405 0.09397 0.62415 0.0
C1766 C 0.49493 0.92125 0.36323 0.0
C1767 C 0.4988 0.94068 0.35537 0.0
C1768 C 0.51332 0.91054 0.36959 0.0
C1769 C 0.57662 0.90326 0.36779 0.0
H1770 H 0.56894 0.87664 0.40161 0.0
C1771 C 0.65157 0.85709 0.39401 0.0
C1772 C 0.64615 0.83574 0.39979 0.0
C1773 C 0.63401 0.87167 0.38953 0.0
C1774 C 0.5713 0.88387 0.39214 0.0
H1775 H 0.52497 0.96451 0.34837 0.0
H1776 H 0.5571 0.94593 0.35964 0.0
H1777 H 0.53764 0.89951 0.39222 0.0
H1778 H 0.61797 0.81321 0.40565 0.0
H1779 H 0.5873 0.83864 0.39777 0.0
H1780 H 0.61017 0.88744 0.36766 0.0
C1781 C 0.53985 0.93878 0.36069 0.0
C1782 C 0.55338 0.89697 0.38675 0.0
C1783 C 0.52142 0.94951 0.35429 0.0
C1784 C 0.62274 0.82954 0.40125 0.0
C1785 C 0.60516 0.84417 0.3968 0.0
C1786 C 0.59456 0.89023 0.37319 0.0
C1787 C 0.53604 0.91901 0.36831 0.0
C1788 C 0.55571 0.90658 0.37445 0.0
C1789 C 0.61061 0.86528 0.39076 0.0
C1790 C 0.592 0.88017 0.38536 0.0
H1791 H 0.47773 0.91397 0.36428 0.0
H1792 H 0.50978 0.89517 0.37522 0.0
H1793 H 0.57888 0.91009 0.35822 0.0
H1794 H 0.66943 0.86245 0.39276 0.0
H1795 H 0.63875 0.88795 0.38507 0.0
C1796 C 0.80333 0.75691 0.10305 0.0
C1797 C 0.81322 0.74832 0.09171 0.0
C1798 C 0.8113 0.7777 0.10841 0.0
C1799 C 0.84386 0.83105 0.10035 0.0
H1800 H 0.85836 0.83313 0.13656 0.0
C1801 C 0.90648 0.89815 0.12124 0.0
C1802 C 0.90108 0.90848 0.13303 0.0
C1803 C 0.89323 0.87979 0.11656 0.0
C1804 C 0.85407 0.83296 0.12647 0.0
H1805 H 0.83898 0.75496 0.07704 0.0
H1806 H 0.85282 0.79093 0.08636 0.0
H1807 H 0.83921 0.79895 0.12764 0.0
H1808 H 0.87753 0.90756 0.1492 0.0
H1809 H 0.85431 0.87532 0.14098 0.0
H1810 H 0.85911 0.86478 0.0991 0.0
C1811 C 0.83879 0.78182 0.09107 0.0
C1812 C 0.84308 0.8134 0.12137 0.0
C1813 C 0.83095 0.76107 0.08577 0.0
C1814 C 0.88214 0.89996 0.14008 0.0
C1815 C 0.8689 0.88146 0.1354 0.0
C1816 C 0.85482 0.85054 0.10544 0.0
C1817 C 0.82915 0.79035 0.10247 0.0
C1818 C 0.83835 0.81203 0.1082 0.0
C1819 C 0.87426 0.87125 0.12356 0.0
C1820 C 0.86052 0.85151 0.1185 0.0
H1821 H 0.78964 0.74747 0.10786 0.0
H1822 H 0.80344 0.78392 0.11716 0.0
H1823 H 0.84 0.83072 0.09021 0.0
H1824 H 0.92098 0.90423 0.11558 0.0
H1825 H 0.89807 0.87205 0.10752 0.0
C1826 C 0.99104 0.05706 0.86244 0.0
C1827 C 0.98743 0.04073 0.85266 0.0
C1828 C 0.97227 0.06688 0.86889 0.0
C1829 C 0.91038 0.07962 0.86444 0.0
H1830 H 0.91257 0.09471 0.90056 0.0
C1831 C 0.83345 0.12333 0.89004 0.0
C1832 C 0.83889 0.14175 0.89832 0.0
C1833 C 0.85091 0.10895 0.88525 0.0
C1834 C 0.91177 0.09074 0.89045 0.0
H1835 H 0.96127 0.02122 0.84235 0.0
H1836 H 0.92848 0.03823 0.85371 0.0
H1837 H 0.94418 0.07263 0.89093 0.0
H1838 H 0.8669 0.15922 0.90825 0.0
H1839 H 0.89738 0.13427 0.8998 0.0
H1840 H 0.87819 0.09801 0.86388 0.0
C1841 C 0.94585 0.04369 0.85624 0.0
C1842 C 0.92986 0.07808 0.88494 0.0
C1843 C 0.96465 0.03385 0.84978 0.0
C1844 C 0.86212 0.14518 0.9019 0.0
C1845 C 0.87958 0.13079 0.89711 0.0
C1846 C 0.8923 0.09226 0.86995 0.0
C1847 C 0.94943 0.0606 0.86573 0.0
C1848 C 0.92949 0.07258 0.87184 0.0
C1849 C 0.8742 0.11265 0.88864 0.0
C1850 C 0.89289 0.09817 0.88299 0.0
H1851 H 0.00837 0.06275 0.86491 0.0
H1852 H 0.97565 0.08003 0.87605 0.0
H1853 H 0.90971 0.07603 0.85428 0.0
H1854 H 0.81572 0.1201 0.88713 0.0
H1855 H 0.84614 0.09493 0.87889 0.0
C1856 C 0.80654 0.74962 0.61743 0.0
C1857 C 0.79287 0.74478 0.60662 0.0
C1858 C 0.81655 0.73164 0.62449 0.0
C1859 C 0.81447 0.66821 0.63031 0.0
H1860 H 0.87926 0.67644 0.63912 0.0
C1861 C 0.87454 0.59215 0.64439 0.0
C1862 C 0.89151 0.59604 0.6538 0.0
C1863 C 0.86076 0.61038 0.63993 0.0
C1864 C 0.86107 0.67396 0.63693 0.0
H1865 H 0.77829 0.7172 0.59503 0.0
H1866 H 0.79596 0.68582 0.60728 0.0
H1867 H 0.85809 0.70808 0.62909 0.0
H1868 H 0.90675 0.622 0.66623 0.0
H1869 H 0.88254 0.65376 0.65854 0.0
H1870 H 0.81763 0.6339 0.63799 0.0
C1871 C 0.79878 0.70353 0.61037 0.0
C1872 C 0.84892 0.69213 0.63117 0.0
C1873 C 0.78874 0.72153 0.6033 0.0
C1874 C 0.89396 0.61844 0.65891 0.0
C1875 C 0.88015 0.63668 0.65446 0.0
C1876 C 0.82664 0.65002 0.63609 0.0
C1877 C 0.81314 0.7084 0.6209 0.0
C1878 C 0.82553 0.68942 0.62769 0.0
C1879 C 0.86361 0.63293 0.64479 0.0
C1880 C 0.85016 0.65262 0.63936 0.0
H1881 H 0.80992 0.76734 0.62032 0.0
H1882 H 0.82719 0.73596 0.63268 0.0
H1883 H 0.79638 0.66568 0.62789 0.0
H1884 H 0.8722 0.57509 0.64024 0.0
H1885 H 0.84838 0.60693 0.63238 0.0
C1886 C 0.67233 0.6161 0.87412 0.0
C1887 C 0.67317 0.63179 0.88439 0.0
C1888 C 0.65218 0.60341 0.87163 0.0
C1889 C 0.58932 0.60634 0.87635 0.0
H1890 H 0.59048 0.54232 0.86503 0.0
C1891 C 0.50513 0.55802 0.86375 0.0
C1892 C 0.50552 0.54479 0.85247 0.0
C1893 C 0.52571 0.5664 0.86907 0.0
C1894 C 0.58988 0.56025 0.8681 0.0
H1895 H 0.65375 0.64588 0.90036 0.0
H1896 H 0.61862 0.6237 0.89601 0.0
H1897 H 0.62643 0.56108 0.87177 0.0
H1898 H 0.52792 0.52933 0.83816 0.0
H1899 H 0.56376 0.54429 0.8473 0.0
H1900 H 0.55298 0.60582 0.87239 0.0
C1901 C 0.63347 0.62141 0.88981 0.0
C1902 C 0.61047 0.57097 0.87197 0.0
C1903 C 0.65365 0.63403 0.89233 0.0
C1904 C 0.527 0.53947 0.84686 0.0
C1905 C 0.54759 0.54794 0.85215 0.0
C1906 C 0.56878 0.59567 0.87244 0.0
C1907 C 0.63242 0.6062 0.87933 0.0
C1908 C 0.61043 0.59421 0.87602 0.0
C1909 C 0.54716 0.56184 0.8632 0.0
C1910 C 0.56883 0.57256 0.86815 0.0
H1911 H 0.68708 0.61392 0.86783 0.0
H1912 H 0.65185 0.592 0.86341 0.0
H1913 H 0.58876 0.62438 0.87922 0.0
H1914 H 0.48888 0.56226 0.86838 0.0
H1915 H 0.52479 0.57669 0.87771 0.0
C1916 C 0.60152 0.39948 0.1435 0.0
C1917 C 0.61089 0.4215 0.14098 0.0
C1918 C 0.61361 0.37943 0.1401 0.0
C1919 C 0.67145 0.35724 0.13034 0.0
H1920 H 0.63487 0.30807 0.11511 0.0
C1921 C 0.71063 0.27978 0.10213 0.0
C1922 C 0.70031 0.25795 0.10399 0.0
C1923 C 0.70107 0.29962 0.10775 0.0
C1924 C 0.64532 0.3215 0.11949 0.0
H1925 H 0.64062 0.43974 0.13321 0.0
H1926 H 0.66153 0.40473 0.12704 0.0
H1927 H 0.6157 0.34283 0.12287 0.0
H1928 H 0.67245 0.23971 0.11368 0.0
H1929 H 0.65594 0.27421 0.12348 0.0
H1930 H 0.70116 0.33587 0.12667 0.0
C1931 C 0.64497 0.40295 0.13182 0.0
C1932 C 0.63432 0.34144 0.12397 0.0
C1933 C 0.63292 0.42303 0.1353 0.0
C1934 C 0.68074 0.25628 0.11195 0.0
C1935 C 0.67119 0.27607 0.11753 0.0
C1936 C 0.6825 0.33727 0.12579 0.0
C1937 C 0.6353 0.38091 0.13401 0.0
C1938 C 0.64722 0.35956 0.12948 0.0
C1939 C 0.68098 0.29801 0.11531 0.0
C1940 C 0.66951 0.31917 0.12034 0.0
H1941 H 0.58469 0.39768 0.14798 0.0
H1942 H 0.60586 0.36274 0.14217 0.0
H1943 H 0.68188 0.37076 0.13465 0.0
H1944 H 0.72574 0.28166 0.09608 0.0
H1945 H 0.70893 0.31632 0.10581 0.0
C1946 C 0.83551 0.37099 0.38824 0.0
C1947 C 0.8298 0.35157 0.38075 0.0
C1948 C 0.85385 0.38554 0.38469 0.0
C1949 C 0.89066 0.4014 0.357 0.0
H1950 H 0.93537 0.41995 0.38275 0.0
C1951 C 0.98339 0.42889 0.34449 0.0
C1952 C 0.99357 0.44737 0.35122 0.0
C1953 C 0.9617 0.42036 0.34803 0.0
C1954 C 0.92283 0.41525 0.37548 0.0
H1955 H 0.83876 0.33229 0.36363 0.0
H1956 H 0.87072 0.3574 0.35756 0.0
H1957 H 0.90038 0.39911 0.38915 0.0
H1958 H 0.98877 0.4716 0.36685 0.0
H1959 H 0.95074 0.45654 0.37309 0.0
H1960 H 0.91339 0.41696 0.34329 0.0
C1961 C 0.86089 0.36164 0.36607 0.0
C1962 C 0.90279 0.40332 0.37914 0.0
C1963 C 0.84265 0.34712 0.36961 0.0
C1964 C 0.98139 0.45735 0.36148 0.0
C1965 C 0.95969 0.44867 0.36509 0.0
C1966 C 0.91068 0.41326 0.35334 0.0
C1967 C 0.86676 0.38099 0.37357 0.0
C1968 C 0.88675 0.3958 0.3699 0.0
C1969 C 0.94968 0.43002 0.35843 0.0
C1970 C 0.92723 0.41986 0.3625 0.0
H1971 H 0.82591 0.37492 0.39687 0.0
H1972 H 0.85785 0.4004 0.39062 0.0
H1973 H 0.87839 0.39629 0.34968 0.0
H1974 H 0.99228 0.4208 0.33654 0.0
H1975 H 0.95462 0.40576 0.34282 0.0
C1976 C 0.88484 0.40036 0.87208 0.0
C1977 C 0.88897 0.40523 0.85911 0.0
C1978 C 0.86972 0.38261 0.87562 0.0
C1979 C 0.84589 0.32778 0.86391 0.0
H1980 H 0.80657 0.33313 0.89384 0.0
C1981 C 0.79344 0.24999 0.88351 0.0
C1982 C 0.79556 0.2465 0.89677 0.0
C1983 C 0.80101 0.2707 0.87791 0.0
C1984 C 0.81749 0.33136 0.88547 0.0
H1985 H 0.87998 0.39566 0.83967 0.0
H1986 H 0.85347 0.36453 0.84589 0.0
H1987 H 0.82673 0.3673 0.88573 0.0
H1988 H 0.8066 0.2623 0.91459 0.0
H1989 H 0.81986 0.2982 0.90485 0.0
H1990 H 0.83718 0.29169 0.86387 0.0
C1991 C 0.86211 0.37441 0.8533 0.0
C1992 C 0.82903 0.35092 0.88083 0.0
C1993 C 0.87721 0.39229 0.84975 0.0
C1994 C 0.80475 0.26439 0.90435 0.0
C1995 C 0.81219 0.28508 0.89877 0.0
C1996 C 0.83434 0.3082 0.86855 0.0
C1997 C 0.85838 0.36924 0.86628 0.0
C1998 C 0.84381 0.34922 0.87019 0.0
C1999 C 0.81069 0.28837 0.88548 0.0
C2000 C 0.82047 0.30966 0.87958 0.0
H2001 H 0.89359 0.41001 0.87954 0.0
H2002 H 0.8675 0.37887 0.8857 0.0
H2003 H 0.85732 0.32584 0.85577 0.0
H2004 H 0.78638 0.23655 0.87741 0.0
H2005 H 0.79944 0.27282 0.86765 0.0
C2006 C 0.99565 0.5556 0.1149 0.0
C2007 C -0.00146 0.54471 0.12682 0.0
C2008 C 0.97411 0.5646 0.11132 0.0
C2009 C 0.92034 0.58703 0.12535 0.0
H2010 H 0.89694 0.58273 0.09066 0.0
C2011 C 0.83177 0.62553 0.11113 0.0
C2012 C 0.83081 0.63766 0.09948 0.0
C2013 C 0.85118 0.61218 0.11427 0.0
C2014 C 0.90334 0.58424 0.10036 0.0
H2015 H 0.98087 0.53409 0.14418 0.0
H2016 H 0.94325 0.54974 0.1379 0.0
H2017 H 0.93271 0.56265 0.09645 0.0
H2018 H 0.84936 0.64501 0.08189 0.0
H2019 H 0.88337 0.62203 0.08746 0.0
H2020 H 0.89131 0.60897 0.12923 0.0
C2021 C 0.95773 0.55153 0.13138 0.0
C2022 C 0.9238 0.57271 0.10368 0.0
C2023 C 0.97926 0.54245 0.13495 0.0
C2024 C 0.84953 0.63584 0.09094 0.0
C2025 C 0.86897 0.62254 0.0941 0.0
C2026 C 0.89994 0.59861 0.12203 0.0
C2027 C 0.955 0.56297 0.1196 0.0
C2028 C 0.93261 0.57411 0.11619 0.0
C2029 C 0.87011 0.6107 0.10585 0.0
C2030 C 0.89127 0.5975 0.10947 0.0
H2031 H 0.01014 0.55761 0.10841 0.0
H2032 H 0.97263 0.57351 0.10223 0.0
H2033 H 0.92687 0.58877 0.13502 0.0
H2034 H 0.81758 0.62643 0.11789 0.0
H2035 H 0.85134 0.603 0.12331 0.0
C2036 C 0.60309 0.60329 0.3387 0.0
C2037 C 0.60079 0.58531 0.3477 0.0
C2038 C 0.61668 0.62272 0.34144 0.0
C2039 C 0.66249 0.6448 0.36311 0.0
H2040 H 0.63451 0.7046 0.356 0.0
C2041 C 0.69245 0.72966 0.38723 0.0
C2042 C 0.69168 0.7503 0.38008 0.0
C2043 C 0.68402 0.70896 0.38208 0.0
C2044 C 0.6428 0.68808 0.35785 0.0
H2045 H 0.61155 0.57329 0.36646 0.0
H2046 H 0.63507 0.60725 0.37127 0.0
H2047 H 0.61506 0.66936 0.34906 0.0
H2048 H 0.68243 0.76517 0.3617 0.0
H2049 H 0.66803 0.72899 0.35266 0.0
H2050 H 0.69006 0.66358 0.3721 0.0
C2051 C 0.62654 0.60626 0.36205 0.0
C2052 C 0.63163 0.66786 0.35387 0.0
C2053 C 0.61292 0.58685 0.35932 0.0
C2054 C 0.68309 0.74961 0.3675 0.0
C2055 C 0.67473 0.7289 0.36234 0.0
C2056 C 0.6737 0.66505 0.36707 0.0
C2057 C 0.6283 0.62456 0.35322 0.0
C2058 C 0.64118 0.64599 0.3566 0.0
C2059 C 0.67471 0.70842 0.36965 0.0
C2060 C 0.66383 0.68692 0.36463 0.0
H2061 H 0.59407 0.60258 0.32962 0.0
H2062 H 0.61795 0.63641 0.33438 0.0
H2063 H 0.67044 0.6282 0.36519 0.0
H2064 H 0.69896 0.7296 0.39695 0.0
H2065 H 0.68404 0.69356 0.38802 0.0
C2066 C 0.65611 0.35474 0.61629 0.0
C2067 C 0.6619 0.35104 0.60341 0.0
C2068 C 0.63819 0.36987 0.61958 0.0
C2069 C 0.58557 0.39745 0.60643 0.0
H2070 H 0.59022 0.43536 0.63695 0.0
C2071 C 0.5124 0.45979 0.62186 0.0
C2072 C 0.50566 0.45774 0.63473 0.0
C2073 C 0.53288 0.44944 0.61756 0.0
C2074 C 0.58867 0.42483 0.62841 0.0
H2075 H 0.65364 0.36061 0.58386 0.0
H2076 H 0.62254 0.38732 0.58962 0.0
H2077 H 0.62337 0.41215 0.63018 0.0
H2078 H 0.5156 0.44404 0.65328 0.0
H2079 H 0.55131 0.4261 0.64578 0.0
H2080 H 0.55079 0.41004 0.60474 0.0
C2081 C 0.63163 0.37822 0.59717 0.0
C2082 C 0.60761 0.41148 0.62456 0.0
C2083 C 0.64951 0.36298 0.59388 0.0
C2084 C 0.52026 0.44589 0.64329 0.0
C2085 C 0.5408 0.43572 0.63902 0.0
C2086 C 0.56667 0.41092 0.61025 0.0
C2087 C 0.6257 0.38178 0.61007 0.0
C2088 C 0.60617 0.39732 0.61363 0.0
C2089 C 0.54714 0.43705 0.62606 0.0
C2090 C 0.5679 0.42446 0.6214 0.0
H2091 H 0.66525 0.34576 0.62387 0.0
H2092 H 0.63384 0.37187 0.6296 0.0
H2093 H 0.58374 0.38653 0.59807 0.0
H2094 H 0.50155 0.46883 0.61502 0.0
H2095 H 0.53746 0.45093 0.60754 0.0
C2096 C 0.08765 0.38037 0.36526 0.0
C2097 C 0.09283 0.39267 0.35401 0.0
C2098 C 0.10139 0.36169 0.3691 0.0
C2099 C 0.15922 0.33525 0.36503 0.0
H2100 H 0.12849 0.28027 0.37803 0.0
C2101 C 0.20716 0.24864 0.37548 0.0
C2102 C 0.20026 0.23635 0.38645 0.0
C2103 C 0.19495 0.26837 0.37153 0.0
C2104 C 0.13737 0.29559 0.37456 0.0
H2105 H 0.11668 0.39509 0.33803 0.0
H2106 H 0.1406 0.36229 0.34471 0.0
H2107 H 0.10541 0.31326 0.37102 0.0
H2108 H 0.17565 0.23567 0.40215 0.0
H2109 H 0.15465 0.27012 0.39536 0.0
H2110 H 0.19121 0.31745 0.36859 0.0
C2111 C 0.126 0.36727 0.35061 0.0
C2112 C 0.12413 0.3145 0.37054 0.0
C2113 C 0.11221 0.38598 0.34674 0.0
C2114 C 0.18134 0.2446 0.39359 0.0
C2115 C 0.16918 0.26428 0.38966 0.0
C2116 C 0.17249 0.31629 0.36907 0.0
C2117 C 0.12066 0.35484 0.3618 0.0
C2118 C 0.13489 0.33461 0.3658 0.0
C2119 C 0.17561 0.2762 0.37848 0.0
C2120 C 0.1617 0.2963 0.37396 0.0
H2121 H 0.07292 0.38513 0.37112 0.0
H2122 H 0.09701 0.3527 0.37787 0.0
H2123 H 0.16803 0.35059 0.36154 0.0
H2124 H 0.22165 0.24273 0.36976 0.0
H2125 H 0.20025 0.2771 0.36283 0.0
C2126 C 0.35024 0.34953 0.09461 0.0
C2127 C 0.33071 0.34823 0.10261 0.0
C2128 C 0.36868 0.36429 0.09763 0.0
C2129 C 0.38435 0.41542 0.11719 0.0
H2130 H 0.44659 0.3903 0.11517 0.0
C2131 C 0.46233 0.45603 0.14349 0.0
C2132 C 0.48424 0.45512 0.13765 0.0
C2133 C 0.44323 0.44522 0.13783 0.0
C2134 C 0.42938 0.39777 0.11558 0.0
H2135 H 0.31505 0.36174 0.11994 0.0
H2136 H 0.34722 0.38732 0.12523 0.0
H2137 H 0.41394 0.36714 0.10779 0.0
H2138 H 0.50304 0.44307 0.12095 0.0
H2139 H 0.46965 0.42449 0.111 0.0
H2140 H 0.39978 0.44594 0.12515 0.0
C2141 C 0.34822 0.3771 0.11656 0.0
C2142 C 0.41065 0.38446 0.11136 0.0
C2143 C 0.32985 0.36229 0.11357 0.0
C2144 C 0.48643 0.44395 0.12576 0.0
C2145 C 0.46732 0.43317 0.12009 0.0
C2146 C 0.40309 0.42877 0.12138 0.0
C2147 C 0.36791 0.37814 0.10868 0.0
C2148 C 0.3879 0.393 0.11228 0.0
C2149 C 0.4456 0.4333 0.12617 0.0
C2150 C 0.42581 0.41997 0.12079 0.0
H2151 H 0.35141 0.33898 0.08607 0.0
H2152 H 0.38353 0.36488 0.09131 0.0
H2153 H 0.36704 0.42261 0.11784 0.0
H2154 H 0.46002 0.46449 0.15265 0.0
H2155 H 0.42681 0.44546 0.14285 0.0
C2156 C 0.28177 0.73876 0.87751 0.0
C2157 C 0.28553 0.74768 0.88984 0.0
C2158 C 0.29235 0.71806 0.87371 0.0
C2159 C 0.32127 0.66526 0.88583 0.0
H2160 H 0.35432 0.66703 0.85356 0.0
C2161 C 0.39139 0.5981 0.87299 0.0
C2162 C 0.39317 0.59071 0.86023 0.0
C2163 C 0.37634 0.61609 0.87632 0.0
C2164 C 0.34488 0.66604 0.86249 0.0
H2165 H 0.3025 0.74136 0.90805 0.0
H2166 H 0.32082 0.70524 0.90143 0.0
H2167 H 0.33052 0.69996 0.85991 0.0
H2168 H 0.38028 0.59619 0.84097 0.0
H2169 H 0.35372 0.62733 0.84681 0.0
H2170 H 0.33568 0.6314 0.88846 0.0
C2171 C 0.30971 0.71422 0.8947 0.0
C2172 C 0.33124 0.68494 0.86613 0.0
C2173 C 0.29931 0.73499 0.89846 0.0
C2174 C 0.37942 0.60158 0.85088 0.0
C2175 C 0.36427 0.6195 0.85422 0.0
C2176 C 0.33478 0.64628 0.88216 0.0
C2177 C 0.3067 0.70576 0.88221 0.0
C2178 C 0.31955 0.68488 0.87791 0.0
C2179 C 0.3626 0.62703 0.86698 0.0
C2180 C 0.34703 0.64658 0.87052 0.0
H2181 H 0.27124 0.7481 0.87065 0.0
H2182 H 0.28953 0.71181 0.86407 0.0
H2183 H 0.31221 0.66461 0.89489 0.0
H2184 H 0.40179 0.59015 0.88043 0.0
H2185 H 0.37582 0.62169 0.8862 0.0
C2186 C 0.00363 0.5585 0.64611 0.0
C2187 C 0.98774 0.55257 0.63646 0.0
C2188 C 0.02501 0.56835 0.64301 0.0
C2189 C 0.06683 0.57643 0.61665 0.0
H2190 H 0.08643 0.62965 0.63657 0.0
C2191 C 0.14299 0.63588 0.60162 0.0
C2192 C 0.15772 0.64399 0.61136 0.0
C2193 C 0.12282 0.6236 0.60464 0.0
C2194 C 0.08138 0.61462 0.63102 0.0
H2195 H 0.98212 0.55175 0.61594 0.0
H2196 H 0.01947 0.56903 0.61053 0.0
H2197 H 0.0504 0.60994 0.64194 0.0
H2198 H 0.16303 0.64515 0.6319 0.0
H2199 H 0.12802 0.62358 0.63714 0.0
H2200 H 0.09784 0.58121 0.6057 0.0
C2201 C 0.0154 0.56594 0.6205 0.0
C2202 C 0.06073 0.60333 0.6341 0.0
C2203 C 0.99395 0.55616 0.62361 0.0
C2204 C 0.15202 0.63925 0.62416 0.0
C2205 C 0.13187 0.627 0.62717 0.0
C2206 C 0.08755 0.58772 0.61358 0.0
C2207 C 0.03103 0.57243 0.63018 0.0
C2208 C 0.05321 0.58411 0.62696 0.0
C2209 C 0.11693 0.61919 0.61746 0.0
C2210 C 0.09506 0.60696 0.62074 0.0
H2211 H -0.00057 0.55589 0.65611 0.0
H2212 H 0.03682 0.57286 0.65067 0.0
H2213 H 0.06162 0.56151 0.61106 0.0
H2214 H 0.14688 0.63924 0.59166 0.0
H2215 H 0.11157 0.61802 0.59694 0.0
C2216 C 0.0816 0.60981 0.14631 0.0
C2217 C 0.08753 0.58688 0.14316 0.0
C2218 C 0.09534 0.62831 0.14218 0.0
C2219 C 0.13802 0.6441 0.11745 0.0
H2220 H 0.14966 0.69676 0.13958 0.0
C2221 C 0.19701 0.72034 0.10218 0.0
C2222 C 0.18866 0.7427 0.1049 0.0
C2223 C 0.18616 0.70078 0.10738 0.0
C2224 C 0.14642 0.68225 0.13325 0.0
H2225 H 0.11275 0.56537 0.13334 0.0
H2226 H 0.1368 0.59765 0.12623 0.0
H2227 H 0.12792 0.66361 0.14772 0.0
H2228 H 0.16253 0.76205 0.11535 0.0
H2229 H 0.14357 0.72803 0.12428 0.0
H2230 H 0.15629 0.66285 0.10294 0.0
C2231 C 0.12137 0.60134 0.13177 0.0
C2232 C 0.13396 0.66327 0.13792 0.0
C2233 C 0.10765 0.58284 0.13591 0.0
C2234 C 0.16944 0.74508 0.11306 0.0
C2235 C 0.15864 0.72557 0.11826 0.0
C2236 C 0.15049 0.66309 0.11279 0.0
C2237 C 0.11531 0.62431 0.13479 0.0
C2238 C 0.12944 0.64406 0.13003 0.0
C2239 C 0.16678 0.70318 0.11542 0.0
C2240 C 0.15464 0.68248 0.1206 0.0
H2241 H 0.0662 0.61353 0.15186 0.0
H2242 H 0.09002 0.64581 0.14454 0.0
H2243 H 0.13457 0.62972 0.11107 0.0
H2244 H 0.21182 0.7179 0.09596 0.0
H2245 H 0.193 0.68378 0.10512 0.0
C2246 C 0.158 0.35475 0.89152 0.0
C2247 C 0.15424 0.3319 0.89576 0.0
C2248 C 0.13943 0.36849 0.88744 0.0
C2249 C 0.08049 0.36355 0.87443 0.0
H2250 H 0.07484 0.42838 0.88378 0.0
C2251 C -0.00115 0.41577 0.86204 0.0
C2252 C 0.00174 0.43861 0.8576 0.0
C2253 C 0.01749 0.40355 0.86723 0.0
C2254 C 0.07631 0.41037 0.88097 0.0
H2255 H 0.12795 0.30576 0.8993 0.0
H2256 H 0.09561 0.32975 0.8922 0.0
H2257 H 0.10738 0.40555 0.89193 0.0
H2258 H 0.02642 0.46669 0.85538 0.0
H2259 H 0.05917 0.44515 0.86429 0.0
H2260 H 0.04972 0.36828 0.86336 0.0
C2261 C 0.11294 0.33695 0.89191 0.0
C2262 C 0.09493 0.3973 0.88565 0.0
C2263 C 0.13147 0.32325 0.89605 0.0
C2264 C 0.02362 0.44913 0.85873 0.0
C2265 C 0.04236 0.43681 0.86388 0.0
C2266 C 0.06199 0.3766 0.86972 0.0
C2267 C 0.11674 0.35964 0.88745 0.0
C2268 C 0.09713 0.37371 0.88249 0.0
C2269 C 0.03956 0.41377 0.86806 0.0
C2270 C 0.05957 0.40014 0.87298 0.0
H2271 H 0.17534 0.36194 0.89118 0.0
H2272 H 0.14292 0.38584 0.88396 0.0
H2273 H 0.08195 0.34554 0.87161 0.0
H2274 H 0.98216 0.40722 0.86145 0.0
H2275 H 0.01457 0.38603 0.87061 0.0
C2276 C 0.29005 0.26594 0.62214 0.0
C2277 C 0.29509 0.2552 0.6104 0.0
C2278 C 0.30177 0.28611 0.62583 0.0
C2279 C 0.3381 0.33399 0.61304 0.0
H2280 H 0.36076 0.33813 0.6479 0.0
C2281 C 0.41108 0.39642 0.62766 0.0
C2282 C 0.40858 0.40872 0.63917 0.0
C2283 C 0.39552 0.37884 0.62442 0.0
C2284 C 0.35429 0.33737 0.63818 0.0
H2285 H 0.31613 0.25746 0.59324 0.0
H2286 H 0.33668 0.29227 0.59972 0.0
H2287 H 0.33616 0.3056 0.64166 0.0
H2288 H 0.38782 0.41208 0.65637 0.0
H2289 H 0.36066 0.38119 0.65072 0.0
H2290 H 0.35669 0.36546 0.60949 0.0
C2291 C 0.32346 0.28539 0.60602 0.0
C2292 C 0.34016 0.31876 0.6346 0.0
C2293 C 0.31176 0.2653 0.60233 0.0
C2294 C 0.39023 0.40293 0.64743 0.0
C2295 C 0.37473 0.38519 0.64422 0.0
C2296 C 0.3523 0.3525 0.6166 0.0
C2297 C 0.31875 0.29595 0.61785 0.0
C2298 C 0.33218 0.31668 0.62194 0.0
C2299 C 0.37716 0.37305 0.63265 0.0
C2300 C 0.36082 0.35421 0.62915 0.0
H2301 H 0.27725 0.25864 0.62856 0.0
H2302 H 0.29754 0.29398 0.63493 0.0
H2303 H 0.33187 0.33317 0.60328 0.0
H2304 H 0.42503 0.40041 0.62108 0.0
H2305 H 0.39805 0.36956 0.61553 0.0
C2306 C 0.48798 0.56415 0.35915 0.0
C2307 C 0.48365 0.54768 0.34953 0.0
C2308 C 0.4697 0.57426 0.36588 0.0
C2309 C 0.40748 0.58709 0.36278 0.0
H2310 H 0.41254 0.60261 0.39876 0.0
C2311 C 0.33228 0.62962 0.39046 0.0
C2312 C 0.33812 0.64824 0.39853 0.0
C2313 C 0.34955 0.61567 0.38515 0.0
C2314 C 0.41095 0.59853 0.38869 0.0
H2315 H 0.45671 0.52828 0.33978 0.0
H2316 H 0.42477 0.54574 0.35167 0.0
H2317 H 0.44342 0.58053 0.38845 0.0
H2318 H 0.36668 0.66657 0.40747 0.0
H2319 H 0.39684 0.64227 0.3981 0.0
H2320 H 0.37515 0.60526 0.36298 0.0
C2321 C 0.44233 0.55112 0.35384 0.0
C2322 C 0.42862 0.58587 0.38278 0.0
C2323 C 0.46064 0.541 0.34708 0.0
C2324 C 0.36159 0.65237 0.40131 0.0
C2325 C 0.37888 0.63835 0.396 0.0
C2326 C 0.38981 0.59969 0.36869 0.0
C2327 C 0.44664 0.5681 0.3632 0.0
C2328 C 0.4272 0.58019 0.36972 0.0
C2329 C 0.37305 0.61996 0.38778 0.0
C2330 C 0.39143 0.60573 0.38168 0.0
H2331 H 0.5055 0.5697 0.36129 0.0
H2332 H 0.47365 0.58747 0.37291 0.0
H2333 H 0.406 0.58336 0.35266 0.0
H2334 H 0.31436 0.6259 0.38816 0.0
H2335 H 0.34448 0.60145 0.37898 0.0
loop_
_geom_bond_atom_site_label_1
_geom_bond_atom_site_label_2
_geom_bond_distance
_geom_bond_site_symmetry_2
_ccdc_geom_bond_type
C0 O1 1.160 . S
C0 O7 1.185 . S
O1 C0 1.160 . S
O2 Zn3 1.899 . S
O2 C10 1.284 . S
Zn3 O2 1.899 . S
Zn3 O4 2.032 . S
Zn3 O7 2.086 . S
Zn3 O12 1.977 . S
O4 Zn3 2.032 . S
O4 C8 1.278 . S
C5 O6 1.203 . S
C5 O12 1.267 . S
O6 C5 1.203 . S
O7 C0 1.185 . S
O7 Zn3 2.086 . S
C8 O4 1.278 . S
C8 O9 1.211 . S
O9 C8 1.211 . S
C10 O2 1.284 . S
C10 O11 1.273 . S
O11 C10 1.273 . S
O12 Zn3 1.977 . S
O12 C5 1.267 . S
C13 O14 1.160 . S
C13 O20 1.185 . S
O14 C13 1.160 . S
O15 Zn16 1.899 . S
O15 C23 1.284 . S
Zn16 O15 1.899 . S
Zn16 O17 2.032 . S
Zn16 O20 2.086 . S
Zn16 O25 1.977 . S
O17 Zn16 2.032 . S
O17 C21 1.278 . S
C18 O19 1.203 . S
C18 O25 1.267 . S
O19 C18 1.203 . S
O20 C13 1.185 . S
O20 Zn16 2.086 . S
C21 O17 1.278 . S
C21 O22 1.211 . S
O22 C21 1.211 . S
C23 O15 1.284 . S
C23 O24 1.273 . S
O24 C23 1.273 . S
O25 Zn16 1.977 . S
O25 C18 1.267 . S
C26 O27 1.160 . S
C26 O33 1.185 . S
O27 C26 1.160 . S
O28 Zn29 1.899 . S
O28 C36 1.284 . S
Zn29 O28 1.899 . S
Zn29 O30 2.032 . S
Zn29 O33 2.086 . S
Zn29 O38 1.977 . S
O30 Zn29 2.032 . S
O30 C34 1.278 . S
C31 O32 1.203 . S
C31 O38 1.267 . S
O32 C31 1.203 . S
O33 C26 1.185 . S
O33 Zn29 2.086 . S
C34 O30 1.278 . S
C34 O35 1.211 . S
O35 C34 1.211 . S
C36 O28 1.284 . S
C36 O37 1.273 . S
O37 C36 1.273 . S
O38 Zn29 1.977 . S
O38 C31 1.267 . S
C39 O40 1.160 . S
C39 O46 1.185 . S
O40 C39 1.160 . S
O41 Zn42 1.899 . S
O41 C49 1.284 . S
Zn42 O41 1.899 . S
Zn42 O43 2.032 . S
Zn42 O46 2.086 . S
Zn42 O51 1.977 . S
O43 Zn42 2.032 . S
O43 C47 1.278 . S
C44 O45 1.203 . S
C44 O51 1.267 . S
O45 C44 1.203 . S
O46 C39 1.185 . S
O46 Zn42 2.086 . S
C47 O43 1.278 . S
C47 O48 1.211 . S
O48 C47 1.211 . S
C49 O41 1.284 . S
C49 O50 1.273 . S
O50 C49 1.273 . S
O51 Zn42 1.977 . S
O51 C44 1.267 . S
C52 O53 1.160 . S
C52 O59 1.185 . S
O53 C52 1.160 . S
O54 Zn55 1.899 . S
O54 C62 1.284 . S
Zn55 O54 1.899 . S
Zn55 O56 2.032 . S
Zn55 O59 2.086 . S
Zn55 O64 1.977 . S
O56 Zn55 2.032 . S
O56 C60 1.278 . S
C57 O58 1.203 . S
C57 O64 1.267 . S
O58 C57 1.203 . S
O59 C52 1.185 . S
O59 Zn55 2.086 . S
C60 O56 1.278 . S
C60 O61 1.211 . S
O61 C60 1.211 . S
C62 O54 1.284 . S
C62 O63 1.273 . S
O63 C62 1.273 . S
O64 Zn55 1.977 . S
O64 C57 1.267 . S
C65 O66 1.160 . S
C65 O72 1.185 . S
O66 C65 1.160 . S
O67 Zn68 1.899 . S
O67 C75 1.284 . S
Zn68 O67 1.899 . S
Zn68 O69 2.032 . S
Zn68 O72 2.086 . S
Zn68 O77 1.977 . S
O69 Zn68 2.032 . S
O69 C73 1.278 . S
C70 O71 1.203 . S
C70 O77 1.267 . S
O71 C70 1.203 . S
O72 C65 1.185 . S
O72 Zn68 2.086 . S
C73 O69 1.278 . S
C73 O74 1.211 . S
O74 C73 1.211 . S
C75 O67 1.284 . S
C75 O76 1.273 . S
O76 C75 1.273 . S
O77 Zn68 1.977 . S
O77 C70 1.267 . S
C78 O79 1.160 . S
C78 O85 1.185 . S
O79 C78 1.160 . S
O80 Zn81 1.899 . S
O80 C88 1.284 . S
Zn81 O80 1.899 . S
Zn81 O82 2.032 . S
Zn81 O85 2.086 . S
Zn81 O90 1.977 . S
O82 Zn81 2.032 . S
O82 C86 1.278 . S
C83 O84 1.203 . S
C83 O90 1.267 . S
O84 C83 1.203 . S
O85 C78 1.185 . S
O85 Zn81 2.086 . S
C86 O82 1.278 . S
C86 O87 1.211 . S
O87 C86 1.211 . S
C88 O80 1.284 . S
C88 O89 1.273 . S
O89 C88 1.273 . S
O90 Zn81 1.977 . S
O90 C83 1.267 . S
C91 O92 1.160 . S
C91 O98 1.185 . S
O92 C91 1.160 . S
O93 Zn94 1.899 . S
O93 C101 1.284 . S
Zn94 O93 1.899 . S
Zn94 O95 2.032 . S
Zn94 O98 2.086 . S
Zn94 O103 1.977 . S
O95 Zn94 2.032 . S
O95 C99 1.278 . S
C96 O97 1.203 . S
C96 O103 1.267 . S
O97 C96 1.203 . S
O98 C91 1.185 . S
O98 Zn94 2.086 . S
C99 O95 1.278 . S
C99 O100 1.211 . S
O100 C99 1.211 . S
C101 O93 1.284 . S
C101 O102 1.273 . S
O102 C101 1.273 . S
O103 Zn94 1.977 . S
O103 C96 1.267 . S
C104 O105 1.160 . S
C104 O111 1.185 . S
O105 C104 1.160 . S
O106 Zn107 1.899 . S
O106 C114 1.284 . S
Zn107 O106 1.899 . S
Zn107 O108 2.032 . S
Zn107 O111 2.086 . S
Zn107 O116 1.977 . S
O108 Zn107 2.032 . S
O108 C112 1.278 . S
C109 O110 1.203 . S
C109 O116 1.267 . S
O110 C109 1.203 . S
O111 C104 1.185 . S
O111 Zn107 2.086 . S
C112 O108 1.278 . S
C112 O113 1.211 . S
O113 C112 1.211 . S
C114 O106 1.284 . S
C114 O115 1.273 . S
O115 C114 1.273 . S
O116 Zn107 1.977 . S
O116 C109 1.267 . S
C117 O118 1.160 . S
C117 O124 1.185 . S
O118 C117 1.160 . S
O119 Zn120 1.899 . S
O119 C127 1.284 . S
Zn120 O119 1.899 . S
Zn120 O121 2.032 . S
Zn120 O124 2.086 . S
Zn120 O129 1.977 . S
O121 Zn120 2.032 . S
O121 C125 1.278 . S
C122 O123 1.203 . S
C122 O129 1.267 . S
O123 C122 1.203 . S
O124 C117 1.185 . S
O124 Zn120 2.086 . S
C125 O121 1.278 . S
C125 O126 1.211 . S
O126 C125 1.211 . S
C127 O119 1.284 . S
C127 O128 1.273 . S
O128 C127 1.273 . S
O129 Zn120 1.977 . S
O129 C122 1.267 . S
C130 O131 1.160 . S
C130 O137 1.185 . S
O131 C130 1.160 . S
O132 Zn133 1.899 . S
O132 C140 1.284 . S
Zn133 O132 1.899 . S
Zn133 O134 2.032 . S
Zn133 O137 2.086 . S
Zn133 O142 1.977 . S
O134 Zn133 2.032 . S
O134 C138 1.278 . S
C135 O136 1.203 . S
C135 O142 1.267 . S
O136 C135 1.203 . S
O137 C130 1.185 . S
O137 Zn133 2.086 . S
C138 O134 1.278 . S
C138 O139 1.211 . S
O139 C138 1.211 . S
C140 O132 1.284 . S
C140 O141 1.273 . S
O141 C140 1.273 . S
O142 Zn133 1.977 . S
O142 C135 1.267 . S
C143 O144 1.160 . S
C143 O150 1.185 . S
O144 C143 1.160 . S
O145 Zn146 1.899 . S
O145 C153 1.284 . S
Zn146 O145 1.899 . S
Zn146 O147 2.032 . S
Zn146 O150 2.086 . S
Zn146 O155 1.977 . S
O147 Zn146 2.032 . S
O147 C151 1.278 . S
C148 O149 1.203 . S
C148 O155 1.267 . S
O149 C148 1.203 . S
O150 C143 1.185 . S
O150 Zn146 2.086 . S
C151 O147 1.278 . S
C151 O152 1.211 . S
O152 C151 1.211 . S
C153 O145 1.284 . S
C153 O154 1.273 . S
O154 C153 1.273 . S
O155 Zn146 1.977 . S
O155 C148 1.267 . S
C156 O157 1.160 . S
C156 O163 1.185 . S
O157 C156 1.160 . S
O158 Zn159 1.899 . S
O158 C166 1.284 . S
Zn159 O158 1.899 . S
Zn159 O160 2.032 . S
Zn159 O163 2.086 . S
Zn159 O168 1.977 . S
O160 Zn159 2.032 . S
O160 C164 1.278 . S
C161 O162 1.203 . S
C161 O168 1.267 . S
O162 C161 1.203 . S
O163 C156 1.185 . S
O163 Zn159 2.086 . S
C164 O160 1.278 . S
C164 O165 1.211 . S
O165 C164 1.211 . S
C166 O158 1.284 . S
C166 O167 1.273 . S
O167 C166 1.273 . S
O168 Zn159 1.977 . S
O168 C161 1.267 . S
C169 O170 1.160 . S
C169 O176 1.185 . S
O170 C169 1.160 . S
O171 Zn172 1.899 . S
O171 C179 1.284 . S
Zn172 O171 1.899 . S
Zn172 O173 2.032 . S
Zn172 O176 2.086 . S
Zn172 O181 1.977 . S
O173 Zn172 2.032 . S
O173 C177 1.278 . S
C174 O175 1.203 . S
C174 O181 1.267 . S
O175 C174 1.203 . S
O176 C169 1.185 . S
O176 Zn172 2.086 . S
C177 O173 1.278 . S
C177 O178 1.211 . S
O178 C177 1.211 . S
C179 O171 1.284 . S
C179 O180 1.273 . S
O180 C179 1.273 . S
O181 Zn172 1.977 . S
O181 C174 1.267 . S
C182 O183 1.160 . S
C182 O189 1.185 . S
O183 C182 1.160 . S
O184 Zn185 1.899 . S
O184 C192 1.284 . S
Zn185 O184 1.899 . S
Zn185 O186 2.032 . S
Zn185 O189 2.086 . S
Zn185 O194 1.977 . S
O186 Zn185 2.032 . S
O186 C190 1.278 . S
C187 O188 1.203 . S
C187 O194 1.267 . S
O188 C187 1.203 . S
O189 C182 1.185 . S
O189 Zn185 2.086 . S
C190 O186 1.278 . S
C190 O191 1.211 . S
O191 C190 1.211 . S
C192 O184 1.284 . S
C192 O193 1.273 . S
O193 C192 1.273 . S
O194 Zn185 1.977 . S
O194 C187 1.267 . S
C195 O196 1.160 . S
C195 O202 1.185 . S
O196 C195 1.160 . S
O197 Zn198 1.899 . S
O197 C205 1.284 . S
Zn198 O197 1.899 . S
Zn198 O199 2.032 . S
Zn198 O202 2.086 . S
Zn198 O207 1.977 . S
O199 Zn198 2.032 . S
O199 C203 1.278 . S
C200 O201 1.203 . S
C200 O207 1.267 . S
O201 C200 1.203 . S
O202 C195 1.185 . S
O202 Zn198 2.086 . S
C203 O199 1.278 . S
C203 O204 1.211 . S
O204 C203 1.211 . S
C205 O197 1.284 . S
C205 O206 1.273 . S
O206 C205 1.273 . S
O207 Zn198 1.977 . S
O207 C200 1.267 . S
C208 O209 1.160 . S
C208 O215 1.185 . S
O209 C208 1.160 . S
O210 Zn211 1.899 . S
O210 C218 1.284 . S
Zn211 O210 1.899 . S
Zn211 O212 2.032 . S
Zn211 O215 2.086 . S
Zn211 O220 1.977 . S
O212 Zn211 2.032 . S
O212 C216 1.278 . S
C213 O214 1.203 . S
C213 O220 1.267 . S
O214 C213 1.203 . S
O215 C208 1.185 . S
O215 Zn211 2.086 . S
C216 O212 1.278 . S
C216 O217 1.211 . S
O217 C216 1.211 . S
C218 O210 1.284 . S
C218 O219 1.273 . S
O219 C218 1.273 . S
O220 Zn211 1.977 . S
O220 C213 1.267 . S
C221 O222 1.160 . S
C221 O228 1.185 . S
O222 C221 1.160 . S
O223 Zn224 1.899 . S
O223 C231 1.284 . S
Zn224 O223 1.899 . S
Zn224 O225 2.032 . S
Zn224 O228 2.086 . S
Zn224 O233 1.977 . S
O225 Zn224 2.032 . S
O225 C229 1.278 . S
C226 O227 1.203 . S
C226 O233 1.267 . S
O227 C226 1.203 . S
O228 C221 1.185 . S
O228 Zn224 2.086 . S
C229 O225 1.278 . S
C229 O230 1.211 . S
O230 C229 1.211 . S
C231 O223 1.284 . S
C231 O232 1.273 . S
O232 C231 1.273 . S
O233 Zn224 1.977 . S
O233 C226 1.267 . S
C234 O235 1.160 . S
C234 O241 1.185 . S
O235 C234 1.160 . S
O236 Zn237 1.899 . S
O236 C244 1.284 . S
Zn237 O236 1.899 . S
Zn237 O238 2.032 . S
Zn237 O241 2.086 . S
Zn237 O246 1.977 . S
O238 Zn237 2.032 . S
O238 C242 1.278 . S
C239 O240 1.203 . S
C239 O246 1.267 . S
O240 C239 1.203 . S
O241 C234 1.185 . S
O241 Zn237 2.086 . S
C242 O238 1.278 . S
C242 O243 1.211 . S
O243 C242 1.211 . S
C244 O236 1.284 . S
C244 O245 1.273 . S
O245 C244 1.273 . S
O246 Zn237 1.977 . S
O246 C239 1.267 . S
C247 O248 1.160 . S
C247 O254 1.185 . S
O248 C247 1.160 . S
O249 Zn250 1.899 . S
O249 C257 1.284 . S
Zn250 O249 1.899 . S
Zn250 O251 2.032 . S
Zn250 O254 2.086 . S
Zn250 O259 1.977 . S
O251 Zn250 2.032 . S
O251 C255 1.278 . S
C252 O253 1.203 . S
C252 O259 1.267 . S
O253 C252 1.203 . S
O254 C247 1.185 . S
O254 Zn250 2.086 . S
C255 O251 1.278 . S
C255 O256 1.211 . S
O256 C255 1.211 . S
C257 O249 1.284 . S
C257 O258 1.273 . S
O258 C257 1.273 . S
O259 Zn250 1.977 . S
O259 C252 1.267 . S
C260 O261 1.160 . S
C260 O267 1.185 . S
O261 C260 1.160 . S
O262 Zn263 1.899 . S
O262 C270 1.284 . S
Zn263 O262 1.899 . S
Zn263 O264 2.032 . S
Zn263 O267 2.086 . S
Zn263 O272 1.977 . S
O264 Zn263 2.032 . S
O264 C268 1.278 . S
C265 O266 1.203 . S
C265 O272 1.267 . S
O266 C265 1.203 . S
O267 C260 1.185 . S
O267 Zn263 2.086 . S
C268 O264 1.278 . S
C268 O269 1.211 . S
O269 C268 1.211 . S
C270 O262 1.284 . S
C270 O271 1.273 . S
O271 C270 1.273 . S
O272 Zn263 1.977 . S
O272 C265 1.267 . S
C273 O274 1.160 . S
C273 O280 1.185 . S
O274 C273 1.160 . S
O275 Zn276 1.899 . S
O275 C283 1.284 . S
Zn276 O275 1.899 . S
Zn276 O277 2.032 . S
Zn276 O280 2.086 . S
Zn276 O285 1.977 . S
O277 Zn276 2.032 . S
O277 C281 1.278 . S
C278 O279 1.203 . S
C278 O285 1.267 . S
O279 C278 1.203 . S
O280 C273 1.185 . S
O280 Zn276 2.086 . S
C281 O277 1.278 . S
C281 O282 1.211 . S
O282 C281 1.211 . S
C283 O275 1.284 . S
C283 O284 1.273 . S
O284 C283 1.273 . S
O285 Zn276 1.977 . S
O285 C278 1.267 . S
C286 O287 1.160 . S
C286 O293 1.185 . S
O287 C286 1.160 . S
O288 Zn289 1.899 . S
O288 C296 1.284 . S
Zn289 O288 1.899 . S
Zn289 O290 2.032 . S
Zn289 O293 2.086 . S
Zn289 O298 1.977 . S
O290 Zn289 2.032 . S
O290 C294 1.278 . S
C291 O292 1.203 . S
C291 O298 1.267 . S
O292 C291 1.203 . S
O293 C286 1.185 . S
O293 Zn289 2.086 . S
C294 O290 1.278 . S
C294 O295 1.211 . S
O295 C294 1.211 . S
C296 O288 1.284 . S
C296 O297 1.273 . S
O297 C296 1.273 . S
O298 Zn289 1.977 . S
O298 C291 1.267 . S
C299 O300 1.160 . S
C299 O306 1.185 . S
O300 C299 1.160 . S
O301 Zn302 1.899 . S
O301 C309 1.284 . S
Zn302 O301 1.899 . S
Zn302 O303 2.032 . S
Zn302 O306 2.086 . S
Zn302 O311 1.977 . S
O303 Zn302 2.032 . S
O303 C307 1.278 . S
C304 O305 1.203 . S
C304 O311 1.267 . S
O305 C304 1.203 . S
O306 C299 1.185 . S
O306 Zn302 2.086 . S
C307 O303 1.278 . S
C307 O308 1.211 . S
O308 C307 1.211 . S
C309 O301 1.284 . S
C309 O310 1.273 . S
O310 C309 1.273 . S
O311 Zn302 1.977 . S
O311 C304 1.267 . S
C312 O313 1.160 . S
C312 O319 1.185 . S
O313 C312 1.160 . S
O314 Zn315 1.899 . S
O314 C322 1.284 . S
Zn315 O314 1.899 . S
Zn315 O316 2.032 . S
Zn315 O319 2.086 . S
Zn315 O324 1.977 . S
O316 Zn315 2.032 . S
O316 C320 1.278 . S
C317 O318 1.203 . S
C317 O324 1.267 . S
O318 C317 1.203 . S
O319 C312 1.185 . S
O319 Zn315 2.086 . S
C320 O316 1.278 . S
C320 O321 1.211 . S
O321 C320 1.211 . S
C322 O314 1.284 . S
C322 O323 1.273 . S
O323 C322 1.273 . S
O324 Zn315 1.977 . S
O324 C317 1.267 . S
C325 O326 1.160 . S
C325 O332 1.185 . S
O326 C325 1.160 . S
O327 Zn328 1.899 . S
O327 C335 1.284 . S
Zn328 O327 1.899 . S
Zn328 O329 2.032 . S
Zn328 O332 2.086 . S
Zn328 O337 1.977 . S
O329 Zn328 2.032 . S
O329 C333 1.278 . S
C330 O331 1.203 . S
C330 O337 1.267 . S
O331 C330 1.203 . S
O332 C325 1.185 . S
O332 Zn328 2.086 . S
C333 O329 1.278 . S
C333 O334 1.211 . S
O334 C333 1.211 . S
C335 O327 1.284 . S
C335 O336 1.273 . S
O336 C335 1.273 . S
O337 Zn328 1.977 . S
O337 C330 1.267 . S
C338 O339 1.160 . S
C338 O345 1.185 . S
O339 C338 1.160 . S
O340 Zn341 1.899 . S
O340 C348 1.284 . S
Zn341 O340 1.899 . S
Zn341 O342 2.032 . S
Zn341 O345 2.086 . S
Zn341 O350 1.977 . S
O342 Zn341 2.032 . S
O342 C346 1.278 . S
C343 O344 1.203 . S
C343 O350 1.267 . S
O344 C343 1.203 . S
O345 C338 1.185 . S
O345 Zn341 2.086 . S
C346 O342 1.278 . S
C346 O347 1.211 . S
O347 C346 1.211 . S
C348 O340 1.284 . S
C348 O349 1.273 . S
O349 C348 1.273 . S
O350 Zn341 1.977 . S
O350 C343 1.267 . S
C351 O352 1.160 . S
C351 O358 1.185 . S
O352 C351 1.160 . S
O353 Zn354 1.899 . S
O353 C361 1.284 . S
Zn354 O353 1.899 . S
Zn354 O355 2.032 . S
Zn354 O358 2.086 . S
Zn354 O363 1.977 . S
O355 Zn354 2.032 . S
O355 C359 1.278 . S
C356 O357 1.203 . S
C356 O363 1.267 . S
O357 C356 1.203 . S
O358 C351 1.185 . S
O358 Zn354 2.086 . S
C359 O355 1.278 . S
C359 O360 1.211 . S
O360 C359 1.211 . S
C361 O353 1.284 . S
C361 O362 1.273 . S
O362 C361 1.273 . S
O363 Zn354 1.977 . S
O363 C356 1.267 . S
C364 O365 1.160 . S
C364 O371 1.185 . S
O365 C364 1.160 . S
O366 Zn367 1.899 . S
O366 C374 1.284 . S
Zn367 O366 1.899 . S
Zn367 O368 2.032 . S
Zn367 O371 2.086 . S
Zn367 O376 1.977 . S
O368 Zn367 2.032 . S
O368 C372 1.278 . S
C369 O370 1.203 . S
C369 O376 1.267 . S
O370 C369 1.203 . S
O371 C364 1.185 . S
O371 Zn367 2.086 . S
C372 O368 1.278 . S
C372 O373 1.211 . S
O373 C372 1.211 . S
C374 O366 1.284 . S
C374 O375 1.273 . S
O375 C374 1.273 . S
O376 Zn367 1.977 . S
O376 C369 1.267 . S
C377 O378 1.160 . S
C377 O384 1.185 . S
O378 C377 1.160 . S
O379 Zn380 1.899 . S
O379 C387 1.284 . S
Zn380 O379 1.899 . S
Zn380 O381 2.032 . S
Zn380 O384 2.086 . S
Zn380 O389 1.977 . S
O381 Zn380 2.032 . S
O381 C385 1.278 . S
C382 O383 1.203 . S
C382 O389 1.267 . S
O383 C382 1.203 . S
O384 C377 1.185 . S
O384 Zn380 2.086 . S
C385 O381 1.278 . S
C385 O386 1.211 . S
O386 C385 1.211 . S
C387 O379 1.284 . S
C387 O388 1.273 . S
O388 C387 1.273 . S
O389 Zn380 1.977 . S
O389 C382 1.267 . S
C390 O391 1.160 . S
C390 O397 1.185 . S
O391 C390 1.160 . S
O392 Zn393 1.899 . S
O392 C400 1.284 . S
Zn393 O392 1.899 . S
Zn393 O394 2.032 . S
Zn393 O397 2.086 . S
Zn393 O402 1.977 . S
O394 Zn393 2.032 . S
O394 C398 1.278 . S
C395 O396 1.203 . S
C395 O402 1.267 . S
O396 C395 1.203 . S
O397 C390 1.185 . S
O397 Zn393 2.086 . S
C398 O394 1.278 . S
C398 O399 1.211 . S
O399 C398 1.211 . S
C400 O392 1.284 . S
C400 O401 1.273 . S
O401 C400 1.273 . S
O402 Zn393 1.977 . S
O402 C395 1.267 . S
C403 O404 1.160 . S
C403 O410 1.185 . S
O404 C403 1.160 . S
O405 Zn406 1.899 . S
O405 C413 1.284 . S
Zn406 O405 1.899 . S
Zn406 O407 2.032 . S
Zn406 O410 2.086 . S
Zn406 O415 1.977 . S
O407 Zn406 2.032 . S
O407 C411 1.278 . S
C408 O409 1.203 . S
C408 O415 1.267 . S
O409 C408 1.203 . S
O410 C403 1.185 . S
O410 Zn406 2.086 . S
C411 O407 1.278 . S
C411 O412 1.211 . S
O412 C411 1.211 . S
C413 O405 1.284 . S
C413 O414 1.273 . S
O414 C413 1.273 . S
O415 Zn406 1.977 . S
O415 C408 1.267 . S
C416 C417 1.349 . S
C416 C418 1.327 . S
C416 H441 0.950 . S
C417 C416 1.349 . S
C417 C433 1.349 . S
C418 C416 1.327 . S
C418 C437 1.429 . S
C418 H442 0.950 . S
C419 C436 1.574 . S
C419 C438 1.368 . S
C419 H443 0.949 . S
H420 C424 0.949 . S
C421 C422 1.349 . S
C421 C423 1.327 . S
C421 H444 0.950 . S
C422 C421 1.349 . S
C422 C434 1.349 . S
C423 C421 1.327 . S
C423 C439 1.429 . S
C423 H445 0.950 . S
C424 H420 0.949 . S
C424 C432 1.574 . S
C424 C440 1.368 . S
H425 C433 0.950 . S
H426 C431 0.950 . S
H427 C432 0.949 . S
H428 C434 0.950 . S
H429 C435 0.950 . S
H430 C436 0.949 . S
C431 H426 0.950 . S
C431 C433 1.327 . S
C431 C437 1.429 . S
C432 C424 1.574 . S
C432 H427 0.949 . S
C432 C438 1.368 1_545 S
C433 C417 1.349 . S
C433 H425 0.950 . S
C433 C431 1.327 . S
C434 C422 1.349 . S
C434 H428 0.950 . S
C434 C435 1.327 . S
C435 H429 0.950 . S
C435 C434 1.327 . S
C435 C439 1.429 . S
C436 C419 1.574 . S
C436 H430 0.949 . S
C436 C440 1.368 1_565 S
C437 C418 1.429 . S
C437 C431 1.429 . S
C437 C438 1.523 . S
C438 C419 1.368 . S
C438 C432 1.368 1_565 S
C438 C437 1.523 . S
C439 C423 1.429 . S
C439 C435 1.429 . S
C439 C440 1.523 . S
C440 C424 1.368 . S
C440 C436 1.368 1_545 S
C440 C439 1.523 . S
H441 C416 0.950 . S
H442 C418 0.950 . S
H443 C419 0.949 . S
H444 C421 0.950 . S
H445 C423 0.950 . S
C446 C447 1.349 . S
C446 C448 1.327 . S
C446 H471 0.950 . S
C447 C446 1.349 . S
C447 C463 1.349 . S
C448 C446 1.327 . S
C448 C467 1.429 . S
C448 H472 0.950 . S
C449 C466 1.574 . S
C449 C468 1.368 . S
C449 H473 0.949 . S
H450 C454 0.949 . S
C451 C452 1.349 . S
C451 C453 1.327 . S
C451 H474 0.950 . S
C452 C451 1.349 . S
C452 C464 1.349 . S
C453 C451 1.327 . S
C453 C469 1.429 . S
C453 H475 0.950 . S
C454 H450 0.949 . S
C454 C462 1.574 . S
C454 C470 1.368 . S
H455 C463 0.950 . S
H456 C461 0.950 . S
H457 C462 0.949 . S
H458 C464 0.950 . S
H459 C465 0.950 . S
H460 C466 0.949 . S
C461 H456 0.950 . S
C461 C463 1.327 . S
C461 C467 1.429 . S
C462 C454 1.574 . S
C462 H457 0.949 . S
C462 C468 1.368 . S
C463 C447 1.349 . S
C463 H455 0.950 . S
C463 C461 1.327 . S
C464 C452 1.349 . S
C464 H458 0.950 . S
C464 C465 1.327 . S
C465 H459 0.950 . S
C465 C464 1.327 . S
C465 C469 1.429 . S
C466 C449 1.574 . S
C466 H460 0.949 . S
C466 C470 1.368 . S
C467 C448 1.429 . S
C467 C461 1.429 . S
C467 C468 1.523 . S
C468 C449 1.368 . S
C468 C462 1.368 . S
C468 C467 1.523 . S
C469 C453 1.429 . S
C469 C465 1.429 . S
C469 C470 1.523 . S
C470 C454 1.368 . S
C470 C466 1.368 . S
C470 C469 1.523 . S
H471 C446 0.950 . S
H472 C448 0.950 . S
H473 C449 0.949 . S
H474 C451 0.950 . S
H475 C453 0.950 . S
C476 C477 1.349 . S
C476 C478 1.327 . S
C476 H501 0.950 . S
C477 C476 1.349 . S
C477 C493 1.349 . S
C478 C476 1.327 . S
C478 C497 1.429 . S
C478 H502 0.950 . S
C479 C496 1.574 . S
C479 C498 1.368 1_565 S
C479 H503 0.949 . S
H480 C484 0.949 . S
C481 C482 1.349 . S
C481 C483 1.327 . S
C481 H504 0.950 . S
C482 C481 1.349 . S
C482 C494 1.349 . S
C483 C481 1.327 . S
C483 C499 1.429 . S
C483 H505 0.950 . S
C484 H480 0.949 . S
C484 C492 1.574 . S
C484 C500 1.368 1_545 S
H485 C493 0.950 1_565 S
H486 C491 0.954 1_565 S
H487 C492 0.949 . S
H488 C494 0.950 1_545 S
H489 C495 0.954 1_545 S
H490 C496 0.949 . S
C491 H486 0.954 1_545 S
C491 C493 1.325 . S
C491 C497 1.426 . S
C492 C484 1.574 . S
C492 H487 0.949 . S
C492 C498 1.368 . S
C493 C477 1.349 . S
C493 H485 0.950 1_545 S
C493 C491 1.325 . S
C494 C482 1.349 . S
C494 H488 0.950 1_565 S
C494 C495 1.325 . S
C495 H489 0.954 1_565 S
C495 C494 1.325 . S
C495 C499 1.426 . S
C496 C479 1.574 . S
C496 H490 0.949 . S
C496 C500 1.368 . S
C497 C478 1.429 . S
C497 C491 1.426 . S
C497 C498 1.523 . S
C498 C479 1.368 1_545 S
C498 C492 1.368 . S
C498 C497 1.523 . S
C499 C483 1.429 . S
C499 C495 1.426 . S
C499 C500 1.523 . S
C500 C484 1.368 1_565 S
C500 C496 1.368 . S
C500 C499 1.523 . S
H501 C476 0.950 . S
H502 C478 0.950 . S
H503 C479 0.949 . S
H504 C481 0.950 . S
H505 C483 0.950 . S
C506 C507 1.349 . S
C506 C508 1.327 . S
C506 H531 0.950 . S
C507 C506 1.349 . S
C507 C523 1.349 . S
C508 C506 1.327 . S
C508 C527 1.429 . S
C508 H532 0.950 . S
C509 C526 1.574 1_556 S
C509 C528 1.368 . S
C509 H533 0.949 . S
H510 C514 0.949 . S
C511 C512 1.349 . S
C511 C513 1.327 . S
C511 H534 0.950 . S
C512 C511 1.349 . S
C512 C524 1.349 . S
C513 C511 1.327 . S
C513 C529 1.429 . S
C513 H535 0.950 . S
C514 H510 0.949 . S
C514 C522 1.574 1_554 S
C514 C530 1.368 . S
H515 C523 0.950 . S
H516 C521 0.950 . S
H517 C522 0.949 . S
H518 C524 0.950 . S
H519 C525 0.950 . S
H520 C526 0.949 . S
C521 H516 0.950 . S
C521 C523 1.327 . S
C521 C527 1.429 . S
C522 C514 1.574 1_556 S
C522 H517 0.949 . S
C522 C528 1.368 . S
C523 C507 1.349 . S
C523 H515 0.950 . S
C523 C521 1.327 . S
C524 C512 1.349 . S
C524 H518 0.950 . S
C524 C525 1.327 . S
C525 H519 0.950 . S
C525 C524 1.327 . S
C525 C529 1.429 . S
C526 C509 1.574 1_554 S
C526 H520 0.949 . S
C526 C530 1.368 . S
C527 C508 1.429 . S
C527 C521 1.429 . S
C527 C528 1.523 . S
C528 C509 1.368 . S
C528 C522 1.368 . S
C528 C527 1.523 . S
C529 C513 1.429 . S
C529 C525 1.429 . S
C529 C530 1.523 . S
C530 C514 1.368 . S
C530 C526 1.368 . S
C530 C529 1.523 . S
H531 C506 0.950 . S
H532 C508 0.950 . S
H533 C509 0.949 . S
H534 C511 0.950 . S
H535 C513 0.950 . S
C536 C537 1.349 . S
C536 C538 1.330 . S
C536 H561 0.950 1_565 S
C537 C536 1.349 . S
C537 C553 1.349 . S
C538 C536 1.330 . S
C538 C557 1.433 . S
C538 H562 0.942 1_565 S
C539 C556 1.574 . S
C539 C558 1.368 . S
C539 H563 0.949 . S
H540 C544 0.949 . S
C541 C542 1.349 . S
C541 C543 1.330 . S
C541 H564 0.950 1_545 S
C542 C541 1.349 . S
C542 C554 1.349 . S
C543 C541 1.330 . S
C543 C559 1.433 . S
C543 H565 0.942 1_545 S
C544 H540 0.949 . S
C544 C552 1.574 . S
C544 C560 1.368 . S
H545 C553 0.950 . S
H546 C551 0.950 . S
H547 C552 0.949 . S
H548 C554 0.950 . S
H549 C555 0.950 . S
H550 C556 0.949 . S
C551 H546 0.950 . S
C551 C553 1.327 . S
C551 C557 1.429 . S
C552 C544 1.574 . S
C552 H547 0.949 . S
C552 C558 1.368 1_545 S
C553 C537 1.349 . S
C553 H545 0.950 . S
C553 C551 1.327 . S
C554 C542 1.349 . S
C554 H548 0.950 . S
C554 C555 1.327 . S
C555 H549 0.950 . S
C555 C554 1.327 . S
C555 C559 1.429 . S
C556 C539 1.574 . S
C556 H550 0.949 . S
C556 C560 1.368 1_565 S
C557 C538 1.433 . S
C557 C551 1.429 . S
C557 C558 1.523 . S
C558 C539 1.368 . S
C558 C552 1.368 1_565 S
C558 C557 1.523 . S
C559 C543 1.433 . S
C559 C555 1.429 . S
C559 C560 1.523 . S
C560 C544 1.368 . S
C560 C556 1.368 1_545 S
C560 C559 1.523 . S
H561 C536 0.950 1_545 S
H562 C538 0.942 1_545 S
H563 C539 0.949 . S
H564 C541 0.950 1_565 S
H565 C543 0.942 1_565 S
C566 C567 1.349 . S
C566 C568 1.327 . S
C566 H591 0.950 . S
C567 C566 1.349 . S
C567 C583 1.349 . S
C568 C566 1.327 . S
C568 C587 1.429 . S
C568 H592 0.950 . S
C569 C586 1.574 . S
C569 C588 1.368 . S
C569 H593 0.949 . S
H570 C574 0.949 . S
C571 C572 1.349 . S
C571 C573 1.327 . S
C571 H594 0.950 . S
C572 C571 1.349 . S
C572 C584 1.349 . S
C573 C571 1.327 . S
C573 C589 1.429 . S
C573 H595 0.950 . S
C574 H570 0.949 . S
C574 C582 1.574 . S
C574 C590 1.368 . S
H575 C583 0.950 . S
H576 C581 0.950 . S
H577 C582 0.949 . S
H578 C584 0.950 . S
H579 C585 0.950 . S
H580 C586 0.949 . S
C581 H576 0.950 . S
C581 C583 1.327 . S
C581 C587 1.429 . S
C582 C574 1.574 . S
C582 H577 0.949 . S
C582 C588 1.368 . S
C583 C567 1.349 . S
C583 H575 0.950 . S
C583 C581 1.327 . S
C584 C572 1.349 . S
C584 H578 0.950 . S
C584 C585 1.327 . S
C585 H579 0.950 . S
C585 C584 1.327 . S
C585 C589 1.429 . S
C586 C569 1.574 . S
C586 H580 0.949 . S
C586 C590 1.368 . S
C587 C568 1.429 . S
C587 C581 1.429 . S
C587 C588 1.523 . S
C588 C569 1.368 . S
C588 C582 1.368 . S
C588 C587 1.523 . S
C589 C573 1.429 . S
C589 C585 1.429 . S
C589 C590 1.523 . S
C590 C574 1.368 . S
C590 C586 1.368 . S
C590 C589 1.523 . S
H591 C566 0.950 . S
H592 C568 0.950 . S
H593 C569 0.949 . S
H594 C571 0.950 . S
H595 C573 0.950 . S
C596 C597 1.349 . S
C596 C598 1.327 . S
C596 H621 0.950 . S
C597 C596 1.349 . S
C597 C613 1.349 . S
C598 C596 1.327 . S
C598 C617 1.429 . S
C598 H622 0.950 . S
C599 C616 1.574 . S
C599 C618 1.368 1_565 S
C599 H623 0.949 . S
H600 C604 0.949 . S
C601 C602 1.349 . S
C601 C603 1.327 . S
C601 H624 0.950 . S
C602 C601 1.349 . S
C602 C614 1.349 . S
C603 C601 1.327 . S
C603 C619 1.429 . S
C603 H625 0.950 . S
C604 H600 0.949 . S
C604 C612 1.574 . S
C604 C620 1.368 1_545 S
H605 C613 0.963 . S
H606 C611 0.950 1_565 S
H607 C612 0.949 . S
H608 C614 0.963 . S
H609 C615 0.950 1_545 S
H610 C616 0.949 . S
C611 H606 0.950 1_545 S
C611 C613 1.327 . S
C611 C617 1.429 . S
C612 C604 1.574 . S
C612 H607 0.949 . S
C612 C618 1.368 . S
C613 C597 1.349 . S
C613 H605 0.963 . S
C613 C611 1.327 . S
C614 C602 1.349 . S
C614 H608 0.963 . S
C614 C615 1.327 . S
C615 H609 0.950 1_565 S
C615 C614 1.327 . S
C615 C619 1.429 . S
C616 C599 1.574 . S
C616 H610 0.949 . S
C616 C620 1.368 . S
C617 C598 1.429 . S
C617 C611 1.429 . S
C617 C618 1.523 . S
C618 C599 1.368 1_545 S
C618 C612 1.368 . S
C618 C617 1.523 . S
C619 C603 1.429 . S
C619 C615 1.429 . S
C619 C620 1.523 . S
C620 C604 1.368 1_565 S
C620 C616 1.368 . S
C620 C619 1.523 . S
H621 C596 0.950 . S
H622 C598 0.950 . S
H623 C599 0.949 . S
H624 C601 0.950 . S
H625 C603 0.950 . S
C626 C627 1.349 . S
C626 C628 1.327 . S
C626 H651 0.950 . S
C627 C626 1.349 . S
C627 C643 1.349 . S
C628 C626 1.327 . S
C628 C647 1.429 . S
C628 H652 0.950 . S
C629 C646 1.574 1_556 S
C629 C648 1.368 . S
C629 H653 0.949 . S
H630 C634 0.949 . S
C631 C632 1.349 . S
C631 C633 1.327 . S
C631 H654 0.950 . S
C632 C631 1.349 . S
C632 C644 1.349 . S
C633 C631 1.327 . S
C633 C649 1.429 . S
C633 H655 0.950 . S
C634 H630 0.949 . S
C634 C642 1.574 1_554 S
C634 C650 1.368 . S
H635 C643 0.950 . S
H636 C641 0.950 . S
H637 C642 0.949 . S
H638 C644 0.950 . S
H639 C645 0.950 . S
H640 C646 0.949 . S
C641 H636 0.950 . S
C641 C643 1.327 . S
C641 C647 1.429 . S
C642 C634 1.574 1_556 S
C642 H637 0.949 . S
C642 C648 1.368 . S
C643 C627 1.349 . S
C643 H635 0.950 . S
C643 C641 1.327 . S
C644 C632 1.349 . S
C644 H638 0.950 . S
C644 C645 1.327 . S
C645 H639 0.950 . S
C645 C644 1.327 . S
C645 C649 1.429 . S
C646 C629 1.574 1_554 S
C646 H640 0.949 . S
C646 C650 1.368 . S
C647 C628 1.429 . S
C647 C641 1.429 . S
C647 C648 1.523 . S
C648 C629 1.368 . S
C648 C642 1.368 . S
C648 C647 1.523 . S
C649 C633 1.429 . S
C649 C645 1.429 . S
C649 C650 1.523 . S
C650 C634 1.368 . S
C650 C646 1.368 . S
C650 C649 1.523 . S
H651 C626 0.950 . S
H652 C628 0.950 . S
H653 C629 0.949 . S
H654 C631 0.950 . S
H655 C633 0.950 . S
C656 C657 1.349 . S
C656 C658 1.327 . S
C656 H681 0.950 . S
C657 C656 1.349 . S
C657 C673 1.349 . S
C658 C656 1.327 . S
C658 C677 1.429 . S
C658 H682 0.950 . S
C659 C676 1.574 . S
C659 C678 1.368 . S
C659 H683 0.949 . S
H660 C664 0.949 . S
C661 C662 1.349 . S
C661 C663 1.327 . S
C661 H684 0.950 . S
C662 C661 1.349 . S
C662 C674 1.349 . S
C663 C661 1.327 . S
C663 C679 1.429 . S
C663 H685 0.950 . S
C664 H660 0.949 . S
C664 C672 1.574 . S
C664 C680 1.368 . S
H665 C673 0.950 . S
H666 C671 0.950 . S
H667 C672 0.949 . S
H668 C674 0.950 . S
H669 C675 0.950 . S
H670 C676 0.949 . S
C671 H666 0.950 . S
C671 C673 1.327 . S
C671 C677 1.429 . S
C672 C664 1.574 . S
C672 H667 0.949 . S
C672 C678 1.368 . S
C673 C657 1.349 . S
C673 H665 0.950 . S
C673 C671 1.327 . S
C674 C662 1.349 . S
C674 H668 0.950 . S
C674 C675 1.327 . S
C675 H669 0.950 . S
C675 C674 1.327 . S
C675 C679 1.429 . S
C676 C659 1.574 . S
C676 H670 0.949 . S
C676 C680 1.368 . S
C677 C658 1.429 . S
C677 C671 1.429 . S
C677 C678 1.523 . S
C678 C659 1.368 . S
C678 C672 1.368 . S
C678 C677 1.523 . S
C679 C663 1.429 . S
C679 C675 1.429 . S
C679 C680 1.523 . S
C680 C664 1.368 . S
C680 C676 1.368 . S
C680 C679 1.523 . S
H681 C656 0.950 . S
H682 C658 0.950 . S
H683 C659 0.949 . S
H684 C661 0.950 . S
H685 C663 0.950 . S
C686 C687 1.349 . S
C686 C688 1.327 . S
C686 H711 0.950 . S
C687 C686 1.349 . S
C687 C703 1.349 . S
C688 C686 1.327 . S
C688 C707 1.429 . S
C688 H712 0.950 . S
C689 C706 1.574 1_554 S
C689 C708 1.368 . S
C689 H713 0.949 . S
H690 C694 0.949 . S
C691 C692 1.349 . S
C691 C693 1.327 . S
C691 H714 0.950 . S
C692 C691 1.349 . S
C692 C704 1.349 . S
C693 C691 1.327 . S
C693 C709 1.429 . S
C693 H715 0.950 . S
C694 H690 0.949 . S
C694 C702 1.574 1_556 S
C694 C710 1.368 . S
H695 C703 0.950 . S
H696 C701 0.950 . S
H697 C702 0.949 . S
H698 C704 0.950 . S
H699 C705 0.950 . S
H700 C706 0.949 . S
C701 H696 0.950 . S
C701 C703 1.327 . S
C701 C707 1.429 . S
C702 C694 1.574 1_554 S
C702 H697 0.949 . S
C702 C708 1.368 . S
C703 C687 1.349 . S
C703 H695 0.950 . S
C703 C701 1.327 . S
C704 C692 1.349 . S
C704 H698 0.950 . S
C704 C705 1.327 . S
C705 H699 0.950 . S
C705 C704 1.327 . S
C705 C709 1.429 . S
C706 C689 1.574 1_556 S
C706 H700 0.949 . S
C706 C710 1.368 . S
C707 C688 1.429 . S
C707 C701 1.429 . S
C707 C708 1.523 . S
C708 C689 1.368 . S
C708 C702 1.368 . S
C708 C707 1.523 . S
C709 C693 1.429 . S
C709 C705 1.429 . S
C709 C710 1.523 . S
C710 C694 1.368 . S
C710 C706 1.368 . S
C710 C709 1.523 . S
H711 C686 0.950 . S
H712 C688 0.950 . S
H713 C689 0.949 . S
H714 C691 0.950 . S
H715 C693 0.950 . S
C716 C717 1.349 . S
C716 C718 1.327 . S
C716 H741 0.950 . S
C717 C716 1.349 . S
C717 C733 1.349 . S
C718 C716 1.327 . S
C718 C737 1.429 . S
C718 H742 0.950 . S
C719 C736 1.574 . S
C719 C738 1.368 . S
C719 H743 0.949 . S
H720 C724 0.949 . S
C721 C722 1.349 . S
C721 C723 1.327 . S
C721 H744 0.950 . S
C722 C721 1.349 . S
C722 C734 1.349 . S
C723 C721 1.327 . S
C723 C739 1.429 . S
C723 H745 0.950 . S
C724 H720 0.949 . S
C724 C732 1.574 . S
C724 C740 1.368 . S
H725 C733 0.950 . S
H726 C731 0.950 . S
H727 C732 0.949 . S
H728 C734 0.950 . S
H729 C735 0.950 . S
H730 C736 0.949 . S
C731 H726 0.950 . S
C731 C733 1.327 . S
C731 C737 1.429 . S
C732 C724 1.574 . S
C732 H727 0.949 . S
C732 C738 1.368 . S
C733 C717 1.349 . S
C733 H725 0.950 . S
C733 C731 1.327 . S
C734 C722 1.349 . S
C734 H728 0.950 . S
C734 C735 1.327 . S
C735 H729 0.950 . S
C735 C734 1.327 . S
C735 C739 1.429 . S
C736 C719 1.574 . S
C736 H730 0.949 . S
C736 C740 1.368 . S
C737 C718 1.429 . S
C737 C731 1.429 . S
C737 C738 1.523 . S
C738 C719 1.368 . S
C738 C732 1.368 . S
C738 C737 1.523 . S
C739 C723 1.429 . S
C739 C735 1.429 . S
C739 C740 1.523 . S
C740 C724 1.368 . S
C740 C736 1.368 . S
C740 C739 1.523 . S
H741 C716 0.950 . S
H742 C718 0.950 . S
H743 C719 0.949 . S
H744 C721 0.950 . S
H745 C723 0.950 . S
C746 C747 1.349 . S
C746 C748 1.327 . S
C746 H771 0.950 . S
C747 C746 1.349 . S
C747 C763 1.349 . S
C748 C746 1.327 . S
C748 C767 1.429 . S
C748 H772 0.950 . S
C749 C766 1.574 . S
C749 C768 1.368 . S
C749 H773 0.949 . S
H750 C754 0.949 . S
C751 C752 1.349 . S
C751 C753 1.327 . S
C751 H774 0.950 . S
C752 C751 1.349 . S
C752 C764 1.349 . S
C753 C751 1.327 . S
C753 C769 1.429 . S
C753 H775 0.950 . S
C754 H750 0.949 . S
C754 C762 1.574 . S
C754 C770 1.368 . S
H755 C763 0.950 . S
H756 C761 0.950 . S
H757 C762 0.949 . S
H758 C764 0.950 . S
H759 C765 0.950 . S
H760 C766 0.949 . S
C761 H756 0.950 . S
C761 C763 1.327 . S
C761 C767 1.429 . S
C762 C754 1.574 . S
C762 H757 0.949 . S
C762 C768 1.368 . S
C763 C747 1.349 . S
C763 H755 0.950 . S
C763 C761 1.327 . S
C764 C752 1.349 . S
C764 H758 0.950 . S
C764 C765 1.327 . S
C765 H759 0.950 . S
C765 C764 1.327 . S
C765 C769 1.429 . S
C766 C749 1.574 . S
C766 H760 0.949 . S
C766 C770 1.368 . S
C767 C748 1.429 . S
C767 C761 1.429 . S
C767 C768 1.523 . S
C768 C749 1.368 . S
C768 C762 1.368 . S
C768 C767 1.523 . S
C769 C753 1.429 . S
C769 C765 1.429 . S
C769 C770 1.523 . S
C770 C754 1.368 . S
C770 C766 1.368 . S
C770 C769 1.523 . S
H771 C746 0.950 . S
H772 C748 0.950 . S
H773 C749 0.949 . S
H774 C751 0.950 . S
H775 C753 0.950 . S
C776 C777 1.349 . S
C776 C778 1.327 . S
C776 H801 0.950 . S
C777 C776 1.349 . S
C777 C793 1.349 . S
C778 C776 1.327 . S
C778 C797 1.429 . S
C778 H802 0.950 . S
C779 C796 1.574 . S
C779 C798 1.368 . S
C779 H803 0.949 . S
H780 C784 0.949 . S
C781 C782 1.349 . S
C781 C783 1.327 . S
C781 H804 0.950 . S
C782 C781 1.349 . S
C782 C794 1.349 . S
C783 C781 1.327 . S
C783 C799 1.429 . S
C783 H805 0.950 . S
C784 H780 0.949 . S
C784 C792 1.574 . S
C784 C800 1.368 . S
H785 C793 0.950 . S
H786 C791 0.950 . S
H787 C792 0.949 . S
H788 C794 0.950 . S
H789 C795 0.950 . S
H790 C796 0.949 . S
C791 H786 0.950 . S
C791 C793 1.327 . S
C791 C797 1.429 . S
C792 C784 1.574 . S
C792 H787 0.949 . S
C792 C798 1.368 . S
C793 C777 1.349 . S
C793 H785 0.950 . S
C793 C791 1.327 . S
C794 C782 1.349 . S
C794 H788 0.950 . S
C794 C795 1.327 . S
C795 H789 0.950 . S
C795 C794 1.327 . S
C795 C799 1.429 . S
C796 C779 1.574 . S
C796 H790 0.949 . S
C796 C800 1.368 . S
C797 C778 1.429 . S
C797 C791 1.429 . S
C797 C798 1.523 . S
C798 C779 1.368 . S
C798 C792 1.368 . S
C798 C797 1.523 . S
C799 C783 1.429 . S
C799 C795 1.429 . S
C799 C800 1.523 . S
C800 C784 1.368 . S
C800 C796 1.368 . S
C800 C799 1.523 . S
H801 C776 0.950 . S
H802 C778 0.950 . S
H803 C779 0.949 . S
H804 C781 0.950 . S
H805 C783 0.950 . S
C806 C807 1.349 . S
C806 C808 1.327 . S
C806 H831 0.950 . S
C807 C806 1.349 . S
C807 C823 1.349 . S
C808 C806 1.327 . S
C808 C827 1.429 . S
C808 H832 0.950 . S
C809 C826 1.574 1_554 S
C809 C828 1.368 . S
C809 H833 0.949 . S
H810 C814 0.949 . S
C811 C812 1.349 . S
C811 C813 1.327 . S
C811 H834 0.950 . S
C812 C811 1.349 . S
C812 C824 1.349 . S
C813 C811 1.327 . S
C813 C829 1.429 . S
C813 H835 0.950 . S
C814 H810 0.949 . S
C814 C822 1.574 1_556 S
C814 C830 1.368 . S
H815 C823 0.950 . S
H816 C821 0.950 . S
H817 C822 0.949 . S
H818 C824 0.950 . S
H819 C825 0.950 . S
H820 C826 0.949 . S
C821 H816 0.950 . S
C821 C823 1.327 . S
C821 C827 1.429 . S
C822 C814 1.574 1_554 S
C822 H817 0.949 . S
C822 C828 1.368 . S
C823 C807 1.349 . S
C823 H815 0.950 . S
C823 C821 1.327 . S
C824 C812 1.349 . S
C824 H818 0.950 . S
C824 C825 1.327 . S
C825 H819 0.950 . S
C825 C824 1.327 . S
C825 C829 1.429 . S
C826 C809 1.574 1_556 S
C826 H820 0.949 . S
C826 C830 1.368 . S
C827 C808 1.429 . S
C827 C821 1.429 . S
C827 C828 1.523 . S
C828 C809 1.368 . S
C828 C822 1.368 . S
C828 C827 1.523 . S
C829 C813 1.429 . S
C829 C825 1.429 . S
C829 C830 1.523 . S
C830 C814 1.368 . S
C830 C826 1.368 . S
C830 C829 1.523 . S
H831 C806 0.950 . S
H832 C808 0.950 . S
H833 C809 0.949 . S
H834 C811 0.950 . S
H835 C813 0.950 . S
C836 C837 1.349 . S
C836 C838 1.327 . S
C836 H861 0.950 . S
C837 C836 1.349 . S
C837 C853 1.349 . S
C838 C836 1.327 . S
C838 C857 1.429 . S
C838 H862 0.950 . S
C839 C856 1.574 . S
C839 C858 1.368 . S
C839 H863 0.949 . S
H840 C844 0.949 . S
C841 C842 1.349 . S
C841 C843 1.327 . S
C841 H864 0.950 . S
C842 C841 1.349 . S
C842 C854 1.349 . S
C843 C841 1.327 . S
C843 C859 1.429 . S
C843 H865 0.950 . S
C844 H840 0.949 . S
C844 C852 1.574 . S
C844 C860 1.368 . S
H845 C853 0.950 . S
H846 C851 0.950 . S
H847 C852 0.949 . S
H848 C854 0.950 . S
H849 C855 0.950 . S
H850 C856 0.949 . S
C851 H846 0.950 . S
C851 C853 1.327 . S
C851 C857 1.429 . S
C852 C844 1.574 . S
C852 H847 0.949 . S
C852 C858 1.368 . S
C853 C837 1.349 . S
C853 H845 0.950 . S
C853 C851 1.327 . S
C854 C842 1.349 . S
C854 H848 0.950 . S
C854 C855 1.327 . S
C855 H849 0.950 . S
C855 C854 1.327 . S
C855 C859 1.429 . S
C856 C839 1.574 . S
C856 H850 0.949 . S
C856 C860 1.368 . S
C857 C838 1.429 . S
C857 C851 1.429 . S
C857 C858 1.523 . S
C858 C839 1.368 . S
C858 C852 1.368 . S
C858 C857 1.523 . S
C859 C843 1.429 . S
C859 C855 1.429 . S
C859 C860 1.523 . S
C860 C844 1.368 . S
C860 C856 1.368 . S
C860 C859 1.523 . S
H861 C836 0.950 . S
H862 C838 0.950 . S
H863 C839 0.949 . S
H864 C841 0.950 . S
H865 C843 0.950 . S
C866 C867 1.349 . S
C866 C868 1.327 . S
C866 H891 0.950 . S
C867 C866 1.349 . S
C867 C883 1.349 . S
C868 C866 1.327 . S
C868 C887 1.429 . S
C868 H892 0.950 . S
C869 C886 1.574 . S
C869 C888 1.368 . S
C869 H893 0.949 . S
H870 C874 0.949 . S
C871 C872 1.349 . S
C871 C873 1.327 . S
C871 H894 0.950 . S
C872 C871 1.349 . S
C872 C884 1.349 . S
C873 C871 1.327 . S
C873 C889 1.429 . S
C873 H895 0.950 . S
C874 H870 0.949 . S
C874 C882 1.574 . S
C874 C890 1.368 . S
H875 C883 0.950 . S
H876 C881 0.950 . S
H877 C882 0.949 . S
H878 C884 0.950 . S
H879 C885 0.950 . S
H880 C886 0.949 . S
C881 H876 0.950 . S
C881 C883 1.327 . S
C881 C887 1.429 . S
C882 C874 1.574 . S
C882 H877 0.949 . S
C882 C888 1.368 . S
C883 C867 1.349 . S
C883 H875 0.950 . S
C883 C881 1.327 . S
C884 C872 1.349 . S
C884 H878 0.950 . S
C884 C885 1.327 . S
C885 H879 0.950 . S
C885 C884 1.327 . S
C885 C889 1.429 . S
C886 C869 1.574 . S
C886 H880 0.949 . S
C886 C890 1.368 . S
C887 C868 1.429 . S
C887 C881 1.429 . S
C887 C888 1.523 . S
C888 C869 1.368 . S
C888 C882 1.368 . S
C888 C887 1.523 . S
C889 C873 1.429 . S
C889 C885 1.429 . S
C889 C890 1.523 . S
C890 C874 1.368 . S
C890 C886 1.368 . S
C890 C889 1.523 . S
H891 C866 0.950 . S
H892 C868 0.950 . S
H893 C869 0.949 . S
H894 C871 0.950 . S
H895 C873 0.950 . S
C896 C897 1.349 1_565 S
C896 C898 1.327 . S
C896 H921 0.950 . S
C897 C896 1.349 1_545 S
C897 C913 1.349 . S
C898 C896 1.327 . S
C898 C917 1.429 . S
C898 H922 0.950 . S
C899 C916 1.574 . S
C899 C918 1.368 . S
C899 H923 0.949 . S
H900 C904 0.949 . S
C901 C902 1.349 . S
C901 C903 1.327 . S
C901 H924 0.950 . S
C902 C901 1.349 . S
C902 C914 1.349 . S
C903 C901 1.327 . S
C903 C919 1.429 . S
C903 H925 0.950 . S
C904 H900 0.949 . S
C904 C912 1.574 . S
C904 C920 1.368 . S
H905 C913 0.950 . S
H906 C911 0.950 . S
H907 C912 0.949 . S
H908 C914 0.950 . S
H909 C915 0.950 . S
H910 C916 0.949 . S
C911 H906 0.950 . S
C911 C913 1.327 . S
C911 C917 1.429 1_545 S
C912 C904 1.574 . S
C912 H907 0.949 . S
C912 C918 1.368 . S
C913 C897 1.349 . S
C913 H905 0.950 . S
C913 C911 1.327 . S
C914 C902 1.349 . S
C914 H908 0.950 . S
C914 C915 1.327 . S
C915 H909 0.950 . S
C915 C914 1.327 . S
C915 C919 1.429 . S
C916 C899 1.574 . S
C916 H910 0.949 . S
C916 C920 1.368 . S
C917 C898 1.429 . S
C917 C911 1.429 1_565 S
C917 C918 1.523 . S
C918 C899 1.368 . S
C918 C912 1.368 . S
C918 C917 1.523 . S
C919 C903 1.429 . S
C919 C915 1.429 . S
C919 C920 1.523 . S
C920 C904 1.368 . S
C920 C916 1.368 . S
C920 C919 1.523 . S
H921 C896 0.950 . S
H922 C898 0.950 . S
H923 C899 0.949 . S
H924 C901 0.950 . S
H925 C903 0.950 . S
C926 C927 1.349 . S
C926 C928 1.327 . S
C926 H951 0.950 . S
C927 C926 1.349 . S
C927 C943 1.349 . S
C928 C926 1.327 . S
C928 C947 1.429 . S
C928 H952 0.950 . S
C929 C946 1.574 . S
C929 C948 1.368 . S
C929 H953 0.949 . S
H930 C934 0.949 . S
C931 C932 1.349 . S
C931 C933 1.327 . S
C931 H954 0.950 . S
C932 C931 1.349 . S
C932 C944 1.349 1_565 S
C933 C931 1.327 . S
C933 C949 1.429 1_565 S
C933 H955 0.950 . S
C934 H930 0.949 . S
C934 C942 1.574 . S
C934 C950 1.368 . S
H935 C943 0.950 . S
H936 C941 0.950 . S
H937 C942 0.949 . S
H938 C944 0.950 . S
H939 C945 0.950 . S
H940 C946 0.949 . S
C941 H936 0.950 . S
C941 C943 1.327 . S
C941 C947 1.429 . S
C942 C934 1.574 . S
C942 H937 0.949 . S
C942 C948 1.368 . S
C943 C927 1.349 . S
C943 H935 0.950 . S
C943 C941 1.327 . S
C944 C932 1.349 1_545 S
C944 H938 0.950 . S
C944 C945 1.327 . S
C945 H939 0.950 . S
C945 C944 1.327 . S
C945 C949 1.429 . S
C946 C929 1.574 . S
C946 H940 0.949 . S
C946 C950 1.368 . S
C947 C928 1.429 . S
C947 C941 1.429 . S
C947 C948 1.523 . S
C948 C929 1.368 . S
C948 C942 1.368 . S
C948 C947 1.523 . S
C949 C933 1.429 1_545 S
C949 C945 1.429 . S
C949 C950 1.523 . S
C950 C934 1.368 . S
C950 C946 1.368 . S
C950 C949 1.523 . S
H951 C926 0.950 . S
H952 C928 0.950 . S
H953 C929 0.949 . S
H954 C931 0.950 . S
H955 C933 0.950 . S
C956 C957 1.349 . S
C956 C958 1.327 1_565 S
C956 H981 0.950 . S
C957 C956 1.349 . S
C957 C973 1.349 1_565 S
C958 C956 1.327 1_545 S
C958 C977 1.429 . S
C958 H982 0.950 . S
C959 C976 1.574 . S
C959 C978 1.368 . S
C959 H983 0.949 . S
H960 C964 0.949 . S
C961 C962 1.349 . S
C961 C963 1.327 . S
C961 H984 0.950 . S
C962 C961 1.349 . S
C962 C974 1.349 . S
C963 C961 1.327 . S
C963 C979 1.429 . S
C963 H985 0.950 . S
C964 H960 0.949 . S
C964 C972 1.574 . S
C964 C980 1.368 . S
H965 C973 0.950 1_565 S
H966 C971 0.950 . S
H967 C972 0.949 . S
H968 C974 0.950 . S
H969 C975 0.950 . S
H970 C976 0.949 . S
C971 H966 0.950 . S
C971 C973 1.327 . S
C971 C977 1.429 . S
C972 C964 1.574 . S
C972 H967 0.949 . S
C972 C978 1.368 . S
C973 C957 1.349 1_545 S
C973 H965 0.950 1_545 S
C973 C971 1.327 . S
C974 C962 1.349 . S
C974 H968 0.950 . S
C974 C975 1.327 . S
C975 H969 0.950 . S
C975 C974 1.327 . S
C975 C979 1.429 . S
C976 C959 1.574 . S
C976 H970 0.949 . S
C976 C980 1.368 . S
C977 C958 1.429 . S
C977 C971 1.429 . S
C977 C978 1.523 . S
C978 C959 1.368 . S
C978 C972 1.368 . S
C978 C977 1.523 . S
C979 C963 1.429 . S
C979 C975 1.429 . S
C979 C980 1.523 . S
C980 C964 1.368 . S
C980 C976 1.368 . S
C980 C979 1.523 . S
H981 C956 0.950 . S
H982 C958 0.950 . S
H983 C959 0.949 . S
H984 C961 0.950 . S
H985 C963 0.950 . S
C986 C987 1.349 . S
C986 C988 1.327 1_545 S
C986 H1011 0.950 . S
C987 C986 1.349 . S
C987 C1003 1.349 . S
C988 C986 1.327 1_565 S
C988 C1007 1.429 . S
C988 H1012 0.950 . S
C989 C1006 1.574 . S
C989 C1008 1.368 . S
C989 H1013 0.949 . S
H990 C994 0.949 . S
C991 C992 1.349 . S
C991 C993 1.327 . S
C991 H1014 0.950 . S
C992 C991 1.349 . S
C992 C1004 1.349 . S
C993 C991 1.327 . S
C993 C1009 1.429 . S
C993 H1015 0.950 . S
C994 H990 0.949 . S
C994 C1002 1.574 . S
C994 C1010 1.368 . S
H995 C1003 0.950 . S
H996 C1001 0.950 . S
H997 C1002 0.949 . S
H998 C1004 0.950 . S
H999 C1005 0.950 . S
H1000 C1006 0.949 . S
C1001 H996 0.950 . S
C1001 C1003 1.327 1_565 S
C1001 C1007 1.429 . S
C1002 C994 1.574 . S
C1002 H997 0.949 . S
C1002 C1008 1.368 . S
C1003 C987 1.349 . S
C1003 H995 0.950 . S
C1003 C1001 1.327 1_545 S
C1004 C992 1.349 . S
C1004 H998 0.950 . S
C1004 C1005 1.327 . S
C1005 H999 0.950 . S
C1005 C1004 1.327 . S
C1005 C1009 1.429 . S
C1006 C989 1.574 . S
C1006 H1000 0.949 . S
C1006 C1010 1.368 . S
C1007 C988 1.429 . S
C1007 C1001 1.429 . S
C1007 C1008 1.523 . S
C1008 C989 1.368 . S
C1008 C1002 1.368 . S
C1008 C1007 1.523 . S
C1009 C993 1.429 . S
C1009 C1005 1.429 . S
C1009 C1010 1.523 . S
C1010 C994 1.368 . S
C1010 C1006 1.368 . S
C1010 C1009 1.523 . S
H1011 C986 0.950 . S
H1012 C988 0.950 . S
H1013 C989 0.949 . S
H1014 C991 0.950 . S
H1015 C993 0.950 . S
C1016 C1017 1.349 . S
C1016 C1018 1.327 . S
C1016 H1041 0.950 . S
C1017 C1016 1.349 . S
C1017 C1033 1.349 . S
C1018 C1016 1.327 . S
C1018 C1037 1.429 . S
C1018 H1042 0.950 . S
C1019 C1036 1.574 . S
C1019 C1038 1.368 . S
C1019 H1043 0.949 . S
H1020 C1024 0.949 . S
C1021 C1022 1.349 . S
C1021 C1023 1.327 1_565 S
C1021 H1044 0.950 . S
C1022 C1021 1.349 . S
C1022 C1034 1.349 . S
C1023 C1021 1.327 1_545 S
C1023 C1039 1.429 . S
C1023 H1045 0.950 . S
C1024 H1020 0.949 . S
C1024 C1032 1.574 . S
C1024 C1040 1.368 . S
H1025 C1033 0.950 . S
H1026 C1031 0.950 . S
H1027 C1032 0.949 . S
H1028 C1034 0.950 . S
H1029 C1035 0.950 . S
H1030 C1036 0.949 . S
C1031 H1026 0.950 . S
C1031 C1033 1.327 . S
C1031 C1037 1.429 . S
C1032 C1024 1.574 . S
C1032 H1027 0.949 . S
C1032 C1038 1.368 . S
C1033 C1017 1.349 . S
C1033 H1025 0.950 . S
C1033 C1031 1.327 . S
C1034 C1022 1.349 . S
C1034 H1028 0.950 . S
C1034 C1035 1.327 1_565 S
C1035 H1029 0.950 . S
C1035 C1034 1.327 1_545 S
C1035 C1039 1.429 . S
C1036 C1019 1.574 . S
C1036 H1030 0.949 . S
C1036 C1040 1.368 . S
C1037 C1018 1.429 . S
C1037 C1031 1.429 . S
C1037 C1038 1.523 . S
C1038 C1019 1.368 . S
C1038 C1032 1.368 . S
C1038 C1037 1.523 . S
C1039 C1023 1.429 . S
C1039 C1035 1.429 . S
C1039 C1040 1.523 . S
C1040 C1024 1.368 . S
C1040 C1036 1.368 . S
C1040 C1039 1.523 . S
H1041 C1016 0.950 . S
H1042 C1018 0.950 . S
H1043 C1019 0.949 . S
H1044 C1021 0.950 . S
H1045 C1023 0.950 . S
C1046 C1047 1.349 1_565 S
C1046 C1048 1.327 . S
C1046 H1071 0.950 . S
C1047 C1046 1.349 1_545 S
C1047 C1063 1.349 . S
C1048 C1046 1.327 . S
C1048 C1067 1.429 . S
C1048 H1072 0.950 . S
C1049 C1066 1.574 . S
C1049 C1068 1.368 . S
C1049 H1073 0.949 . S
H1050 C1054 0.949 . S
C1051 C1052 1.349 . S
C1051 C1053 1.327 . S
C1051 H1074 0.950 . S
C1052 C1051 1.349 . S
C1052 C1064 1.349 . S
C1053 C1051 1.327 . S
C1053 C1069 1.429 . S
C1053 H1075 0.950 . S
C1054 H1050 0.949 . S
C1054 C1062 1.574 . S
C1054 C1070 1.368 . S
H1055 C1063 0.950 . S
H1056 C1061 0.950 . S
H1057 C1062 0.949 . S
H1058 C1064 0.950 . S
H1059 C1065 0.950 . S
H1060 C1066 0.949 . S
C1061 H1056 0.950 . S
C1061 C1063 1.327 . S
C1061 C1067 1.429 1_545 S
C1062 C1054 1.574 . S
C1062 H1057 0.949 . S
C1062 C1068 1.368 . S
C1063 C1047 1.349 . S
C1063 H1055 0.950 . S
C1063 C1061 1.327 . S
C1064 C1052 1.349 . S
C1064 H1058 0.950 . S
C1064 C1065 1.327 . S
C1065 H1059 0.950 . S
C1065 C1064 1.327 . S
C1065 C1069 1.429 . S
C1066 C1049 1.574 . S
C1066 H1060 0.949 . S
C1066 C1070 1.368 . S
C1067 C1048 1.429 . S
C1067 C1061 1.429 1_565 S
C1067 C1068 1.523 . S
C1068 C1049 1.368 . S
C1068 C1062 1.368 . S
C1068 C1067 1.523 . S
C1069 C1053 1.429 . S
C1069 C1065 1.429 . S
C1069 C1070 1.523 . S
C1070 C1054 1.368 . S
C1070 C1066 1.368 . S
C1070 C1069 1.523 . S
H1071 C1046 0.950 . S
H1072 C1048 0.950 . S
H1073 C1049 0.949 . S
H1074 C1051 0.950 . S
H1075 C1053 0.950 . S
C1076 C1077 1.349 . S
C1076 C1078 1.327 . S
C1076 H1101 0.950 . S
C1077 C1076 1.349 . S
C1077 C1093 1.349 . S
C1078 C1076 1.327 . S
C1078 C1097 1.429 . S
C1078 H1102 0.950 . S
C1079 C1096 1.574 . S
C1079 C1098 1.368 . S
C1079 H1103 0.949 . S
H1080 C1084 0.949 . S
C1081 C1082 1.349 1_565 S
C1081 C1083 1.327 . S
C1081 H1104 0.950 . S
C1082 C1081 1.349 1_545 S
C1082 C1094 1.349 . S
C1083 C1081 1.327 . S
C1083 C1099 1.429 . S
C1083 H1105 0.950 . S
C1084 H1080 0.949 . S
C1084 C1092 1.574 . S
C1084 C1100 1.368 . S
H1085 C1093 0.950 . S
H1086 C1091 0.950 . S
H1087 C1092 0.949 . S
H1088 C1094 0.950 . S
H1089 C1095 0.950 . S
H1090 C1096 0.949 . S
C1091 H1086 0.950 . S
C1091 C1093 1.327 . S
C1091 C1097 1.429 . S
C1092 C1084 1.574 . S
C1092 H1087 0.949 . S
C1092 C1098 1.368 . S
C1093 C1077 1.349 . S
C1093 H1085 0.950 . S
C1093 C1091 1.327 . S
C1094 C1082 1.349 . S
C1094 H1088 0.950 . S
C1094 C1095 1.327 1_545 S
C1095 H1089 0.950 . S
C1095 C1094 1.327 1_565 S
C1095 C1099 1.429 . S
C1096 C1079 1.574 . S
C1096 H1090 0.949 . S
C1096 C1100 1.368 . S
C1097 C1078 1.429 . S
C1097 C1091 1.429 . S
C1097 C1098 1.523 . S
C1098 C1079 1.368 . S
C1098 C1092 1.368 . S
C1098 C1097 1.523 . S
C1099 C1083 1.429 . S
C1099 C1095 1.429 . S
C1099 C1100 1.523 . S
C1100 C1084 1.368 . S
C1100 C1096 1.368 . S
C1100 C1099 1.523 . S
H1101 C1076 0.950 . S
H1102 C1078 0.950 . S
H1103 C1079 0.949 . S
H1104 C1081 0.950 . S
H1105 C1083 0.950 . S
C1106 C1107 1.349 . S
C1106 C1108 1.327 . S
C1106 H1131 0.950 . S
C1107 C1106 1.349 . S
C1107 C1123 1.349 . S
C1108 C1106 1.327 . S
C1108 C1127 1.429 . S
C1108 H1132 0.950 . S
C1109 C1126 1.574 . S
C1109 C1128 1.368 . S
C1109 H1133 0.949 . S
H1110 C1114 0.949 . S
C1111 C1112 1.349 1_545 S
C1111 C1113 1.327 . S
C1111 H1134 0.950 1_545 S
C1112 C1111 1.349 1_565 S
C1112 C1124 1.349 . S
C1113 C1111 1.327 . S
C1113 C1129 1.429 . S
C1113 H1135 0.950 . S
C1114 H1110 0.949 . S
C1114 C1122 1.574 . S
C1114 C1130 1.368 . S
H1115 C1123 0.950 . S
H1116 C1121 0.950 . S
H1117 C1122 0.949 . S
H1118 C1124 0.950 . S
H1119 C1125 0.950 . S
H1120 C1126 0.949 . S
C1121 H1116 0.950 . S
C1121 C1123 1.327 . S
C1121 C1127 1.429 . S
C1122 C1114 1.574 . S
C1122 H1117 0.949 . S
C1122 C1128 1.368 . S
C1123 C1107 1.349 . S
C1123 H1115 0.950 . S
C1123 C1121 1.327 . S
C1124 C1112 1.349 . S
C1124 H1118 0.950 . S
C1124 C1125 1.327 1_565 S
C1125 H1119 0.950 . S
C1125 C1124 1.327 1_545 S
C1125 C1129 1.429 . S
C1126 C1109 1.574 . S
C1126 H1120 0.949 . S
C1126 C1130 1.368 . S
C1127 C1108 1.429 . S
C1127 C1121 1.429 . S
C1127 C1128 1.523 . S
C1128 C1109 1.368 . S
C1128 C1122 1.368 . S
C1128 C1127 1.523 . S
C1129 C1113 1.429 . S
C1129 C1125 1.429 . S
C1129 C1130 1.523 . S
C1130 C1114 1.368 . S
C1130 C1126 1.368 . S
C1130 C1129 1.523 . S
H1131 C1106 0.950 . S
H1132 C1108 0.950 . S
H1133 C1109 0.949 . S
H1134 C1111 0.950 1_565 S
H1135 C1113 0.950 . S
C1136 C1137 1.349 . S
C1136 C1138 1.327 . S
C1136 H1161 0.950 . S
C1137 C1136 1.349 . S
C1137 C1153 1.349 . S
C1138 C1136 1.327 . S
C1138 C1157 1.429 . S
C1138 H1162 0.950 . S
C1139 C1156 1.574 . S
C1139 C1158 1.368 . S
C1139 H1163 0.949 . S
H1140 C1144 0.949 . S
C1141 C1142 1.349 . S
C1141 C1143 1.327 . S
C1141 H1164 0.950 . S
C1142 C1141 1.349 . S
C1142 C1154 1.349 . S
C1143 C1141 1.327 . S
C1143 C1159 1.429 . S
C1143 H1165 0.950 . S
C1144 H1140 0.949 . S
C1144 C1152 1.574 . S
C1144 C1160 1.368 . S
H1145 C1153 0.950 . S
H1146 C1151 0.950 . S
H1147 C1152 0.949 . S
H1148 C1154 0.950 . S
H1149 C1155 0.950 . S
H1150 C1156 0.949 . S
C1151 H1146 0.950 . S
C1151 C1153 1.327 . S
C1151 C1157 1.429 . S
C1152 C1144 1.574 . S
C1152 H1147 0.949 . S
C1152 C1158 1.368 . S
C1153 C1137 1.349 . S
C1153 H1145 0.950 . S
C1153 C1151 1.327 . S
C1154 C1142 1.349 . S
C1154 H1148 0.950 . S
C1154 C1155 1.327 . S
C1155 H1149 0.950 . S
C1155 C1154 1.327 . S
C1155 C1159 1.429 . S
C1156 C1139 1.574 . S
C1156 H1150 0.949 . S
C1156 C1160 1.368 . S
C1157 C1138 1.429 . S
C1157 C1151 1.429 . S
C1157 C1158 1.523 . S
C1158 C1139 1.368 . S
C1158 C1152 1.368 . S
C1158 C1157 1.523 . S
C1159 C1143 1.429 . S
C1159 C1155 1.429 . S
C1159 C1160 1.523 . S
C1160 C1144 1.368 . S
C1160 C1156 1.368 . S
C1160 C1159 1.523 . S
H1161 C1136 0.950 . S
H1162 C1138 0.950 . S
H1163 C1139 0.949 . S
H1164 C1141 0.950 . S
H1165 C1143 0.950 . S
C1166 C1167 1.349 . S
C1166 C1168 1.327 . S
C1166 H1191 0.950 . S
C1167 C1166 1.349 . S
C1167 C1183 1.349 . S
C1168 C1166 1.327 . S
C1168 C1187 1.429 . S
C1168 H1192 0.950 . S
C1169 C1186 1.574 . S
C1169 C1188 1.368 . S
C1169 H1193 0.949 . S
H1170 C1174 0.949 . S
C1171 C1172 1.349 . S
C1171 C1173 1.327 . S
C1171 H1194 0.950 . S
C1172 C1171 1.349 . S
C1172 C1184 1.349 . S
C1173 C1171 1.327 . S
C1173 C1189 1.429 . S
C1173 H1195 0.950 . S
C1174 H1170 0.949 . S
C1174 C1182 1.574 . S
C1174 C1190 1.368 . S
H1175 C1183 0.950 . S
H1176 C1181 0.950 . S
H1177 C1182 0.949 . S
H1178 C1184 0.950 . S
H1179 C1185 0.950 . S
H1180 C1186 0.949 . S
C1181 H1176 0.950 . S
C1181 C1183 1.327 . S
C1181 C1187 1.429 . S
C1182 C1174 1.574 . S
C1182 H1177 0.949 . S
C1182 C1188 1.368 . S
C1183 C1167 1.349 . S
C1183 H1175 0.950 . S
C1183 C1181 1.327 . S
C1184 C1172 1.349 . S
C1184 H1178 0.950 . S
C1184 C1185 1.327 . S
C1185 H1179 0.950 . S
C1185 C1184 1.327 . S
C1185 C1189 1.429 . S
C1186 C1169 1.574 . S
C1186 H1180 0.949 . S
C1186 C1190 1.368 . S
C1187 C1168 1.429 . S
C1187 C1181 1.429 . S
C1187 C1188 1.523 . S
C1188 C1169 1.368 . S
C1188 C1182 1.368 . S
C1188 C1187 1.523 . S
C1189 C1173 1.429 . S
C1189 C1185 1.429 . S
C1189 C1190 1.523 . S
C1190 C1174 1.368 . S
C1190 C1186 1.368 . S
C1190 C1189 1.523 . S
H1191 C1166 0.950 . S
H1192 C1168 0.950 . S
H1193 C1169 0.949 . S
H1194 C1171 0.950 . S
H1195 C1173 0.950 . S
C1196 C1197 1.349 . S
C1196 C1198 1.327 . S
C1196 H1221 0.950 . S
C1197 C1196 1.349 . S
C1197 C1213 1.349 . S
C1198 C1196 1.327 . S
C1198 C1217 1.429 . S
C1198 H1222 0.950 . S
C1199 C1216 1.574 . S
C1199 C1218 1.368 . S
C1199 H1223 0.949 . S
H1200 C1204 0.949 . S
C1201 C1202 1.349 . S
C1201 C1203 1.327 . S
C1201 H1224 0.950 . S
C1202 C1201 1.349 . S
C1202 C1214 1.349 . S
C1203 C1201 1.327 . S
C1203 C1219 1.429 . S
C1203 H1225 0.950 . S
C1204 H1200 0.949 . S
C1204 C1212 1.574 . S
C1204 C1220 1.368 . S
H1205 C1213 0.950 . S
H1206 C1211 0.950 . S
H1207 C1212 0.949 . S
H1208 C1214 0.950 . S
H1209 C1215 0.950 . S
H1210 C1216 0.949 . S
C1211 H1206 0.950 . S
C1211 C1213 1.327 . S
C1211 C1217 1.429 . S
C1212 C1204 1.574 . S
C1212 H1207 0.949 . S
C1212 C1218 1.368 . S
C1213 C1197 1.349 . S
C1213 H1205 0.950 . S
C1213 C1211 1.327 . S
C1214 C1202 1.349 . S
C1214 H1208 0.950 . S
C1214 C1215 1.327 . S
C1215 H1209 0.950 . S
C1215 C1214 1.327 . S
C1215 C1219 1.429 . S
C1216 C1199 1.574 . S
C1216 H1210 0.949 . S
C1216 C1220 1.368 . S
C1217 C1198 1.429 . S
C1217 C1211 1.429 . S
C1217 C1218 1.523 . S
C1218 C1199 1.368 . S
C1218 C1212 1.368 . S
C1218 C1217 1.523 . S
C1219 C1203 1.429 . S
C1219 C1215 1.429 . S
C1219 C1220 1.523 . S
C1220 C1204 1.368 . S
C1220 C1216 1.368 . S
C1220 C1219 1.523 . S
H1221 C1196 0.950 . S
H1222 C1198 0.950 . S
H1223 C1199 0.949 . S
H1224 C1201 0.950 . S
H1225 C1203 0.950 . S
C1226 C1227 1.349 . S
C1226 C1228 1.327 . S
C1226 H1251 0.950 . S
C1227 C1226 1.349 . S
C1227 C1243 1.349 . S
C1228 C1226 1.327 . S
C1228 C1247 1.429 . S
C1228 H1252 0.950 . S
C1229 C1246 1.574 . S
C1229 C1248 1.368 . S
C1229 H1253 0.949 . S
H1230 C1234 0.949 . S
C1231 C1232 1.349 . S
C1231 C1233 1.327 . S
C1231 H1254 0.950 . S
C1232 C1231 1.349 . S
C1232 C1244 1.349 . S
C1233 C1231 1.327 . S
C1233 C1249 1.429 . S
C1233 H1255 0.950 . S
C1234 H1230 0.949 . S
C1234 C1242 1.574 . S
C1234 C1250 1.368 . S
H1235 C1243 0.950 . S
H1236 C1241 0.950 . S
H1237 C1242 0.949 . S
H1238 C1244 0.950 . S
H1239 C1245 0.950 . S
H1240 C1246 0.949 . S
C1241 H1236 0.950 . S
C1241 C1243 1.327 . S
C1241 C1247 1.429 . S
C1242 C1234 1.574 . S
C1242 H1237 0.949 . S
C1242 C1248 1.368 . S
C1243 C1227 1.349 . S
C1243 H1235 0.950 . S
C1243 C1241 1.327 . S
C1244 C1232 1.349 . S
C1244 H1238 0.950 . S
C1244 C1245 1.327 . S
C1245 H1239 0.950 . S
C1245 C1244 1.327 . S
C1245 C1249 1.429 . S
C1246 C1229 1.574 . S
C1246 H1240 0.949 . S
C1246 C1250 1.368 . S
C1247 C1228 1.429 . S
C1247 C1241 1.429 . S
C1247 C1248 1.523 . S
C1248 C1229 1.368 . S
C1248 C1242 1.368 . S
C1248 C1247 1.523 . S
C1249 C1233 1.429 . S
C1249 C1245 1.429 . S
C1249 C1250 1.523 . S
C1250 C1234 1.368 . S
C1250 C1246 1.368 . S
C1250 C1249 1.523 . S
H1251 C1226 0.950 . S
H1252 C1228 0.950 . S
H1253 C1229 0.949 . S
H1254 C1231 0.950 . S
H1255 C1233 0.950 . S
C1256 C1257 1.349 . S
C1256 C1258 1.327 . S
C1256 H1281 0.950 . S
C1257 C1256 1.349 . S
C1257 C1273 1.349 . S
C1258 C1256 1.327 . S
C1258 C1277 1.429 . S
C1258 H1282 0.950 . S
C1259 C1276 1.574 . S
C1259 C1278 1.368 . S
C1259 H1283 0.949 . S
H1260 C1264 0.949 . S
C1261 C1262 1.349 . S
C1261 C1263 1.327 . S
C1261 H1284 0.950 . S
C1262 C1261 1.349 . S
C1262 C1274 1.349 . S
C1263 C1261 1.327 . S
C1263 C1279 1.429 . S
C1263 H1285 0.950 . S
C1264 H1260 0.949 . S
C1264 C1272 1.574 . S
C1264 C1280 1.368 . S
H1265 C1273 0.950 . S
H1266 C1271 0.950 . S
H1267 C1272 0.949 . S
H1268 C1274 0.950 . S
H1269 C1275 0.950 . S
H1270 C1276 0.949 . S
C1271 H1266 0.950 . S
C1271 C1273 1.327 . S
C1271 C1277 1.429 . S
C1272 C1264 1.574 . S
C1272 H1267 0.949 . S
C1272 C1278 1.368 . S
C1273 C1257 1.349 . S
C1273 H1265 0.950 . S
C1273 C1271 1.327 . S
C1274 C1262 1.349 . S
C1274 H1268 0.950 . S
C1274 C1275 1.327 . S
C1275 H1269 0.950 . S
C1275 C1274 1.327 . S
C1275 C1279 1.429 . S
C1276 C1259 1.574 . S
C1276 H1270 0.949 . S
C1276 C1280 1.368 . S
C1277 C1258 1.429 . S
C1277 C1271 1.429 . S
C1277 C1278 1.523 . S
C1278 C1259 1.368 . S
C1278 C1272 1.368 . S
C1278 C1277 1.523 . S
C1279 C1263 1.429 . S
C1279 C1275 1.429 . S
C1279 C1280 1.523 . S
C1280 C1264 1.368 . S
C1280 C1276 1.368 . S
C1280 C1279 1.523 . S
H1281 C1256 0.950 . S
H1282 C1258 0.950 . S
H1283 C1259 0.949 . S
H1284 C1261 0.950 . S
H1285 C1263 0.950 . S
C1286 C1287 1.349 . S
C1286 C1288 1.327 . S
C1286 H1311 0.950 . S
C1287 C1286 1.349 . S
C1287 C1303 1.349 . S
C1288 C1286 1.327 . S
C1288 C1307 1.429 . S
C1288 H1312 0.950 . S
C1289 C1306 1.574 . S
C1289 C1308 1.368 . S
C1289 H1313 0.949 . S
H1290 C1294 0.949 . S
C1291 C1292 1.349 . S
C1291 C1293 1.327 . S
C1291 H1314 0.950 . S
C1292 C1291 1.349 . S
C1292 C1304 1.349 . S
C1293 C1291 1.327 . S
C1293 C1309 1.429 . S
C1293 H1315 0.950 . S
C1294 H1290 0.949 . S
C1294 C1302 1.574 . S
C1294 C1310 1.368 . S
H1295 C1303 0.950 . S
H1296 C1301 0.950 . S
H1297 C1302 0.949 . S
H1298 C1304 0.950 . S
H1299 C1305 0.950 . S
H1300 C1306 0.949 . S
C1301 H1296 0.950 . S
C1301 C1303 1.327 . S
C1301 C1307 1.429 . S
C1302 C1294 1.574 . S
C1302 H1297 0.949 . S
C1302 C1308 1.368 . S
C1303 C1287 1.349 . S
C1303 H1295 0.950 . S
C1303 C1301 1.327 . S
C1304 C1292 1.349 . S
C1304 H1298 0.950 . S
C1304 C1305 1.327 . S
C1305 H1299 0.950 . S
C1305 C1304 1.327 . S
C1305 C1309 1.429 . S
C1306 C1289 1.574 . S
C1306 H1300 0.949 . S
C1306 C1310 1.368 . S
C1307 C1288 1.429 . S
C1307 C1301 1.429 . S
C1307 C1308 1.523 . S
C1308 C1289 1.368 . S
C1308 C1302 1.368 . S
C1308 C1307 1.523 . S
C1309 C1293 1.429 . S
C1309 C1305 1.429 . S
C1309 C1310 1.523 . S
C1310 C1294 1.368 . S
C1310 C1306 1.368 . S
C1310 C1309 1.523 . S
H1311 C1286 0.950 . S
H1312 C1288 0.950 . S
H1313 C1289 0.949 . S
H1314 C1291 0.950 . S
H1315 C1293 0.950 . S
C1316 C1317 1.349 . S
C1316 C1318 1.327 . S
C1316 H1341 0.950 . S
C1317 C1316 1.349 . S
C1317 C1333 1.349 . S
C1318 C1316 1.327 . S
C1318 C1337 1.429 . S
C1318 H1342 0.950 . S
C1319 C1336 1.574 . S
C1319 C1338 1.368 . S
C1319 H1343 0.949 . S
H1320 C1324 0.949 . S
C1321 C1322 1.349 . S
C1321 C1323 1.327 . S
C1321 H1344 0.950 . S
C1322 C1321 1.349 . S
C1322 C1334 1.349 . S
C1323 C1321 1.327 . S
C1323 C1339 1.429 . S
C1323 H1345 0.950 . S
C1324 H1320 0.949 . S
C1324 C1332 1.574 . S
C1324 C1340 1.368 . S
H1325 C1333 0.950 . S
H1326 C1331 0.950 . S
H1327 C1332 0.949 . S
H1328 C1334 0.950 . S
H1329 C1335 0.950 . S
H1330 C1336 0.949 . S
C1331 H1326 0.950 . S
C1331 C1333 1.327 . S
C1331 C1337 1.429 . S
C1332 C1324 1.574 . S
C1332 H1327 0.949 . S
C1332 C1338 1.368 . S
C1333 C1317 1.349 . S
C1333 H1325 0.950 . S
C1333 C1331 1.327 . S
C1334 C1322 1.349 . S
C1334 H1328 0.950 . S
C1334 C1335 1.327 . S
C1335 H1329 0.950 . S
C1335 C1334 1.327 . S
C1335 C1339 1.429 . S
C1336 C1319 1.574 . S
C1336 H1330 0.949 . S
C1336 C1340 1.368 . S
C1337 C1318 1.429 . S
C1337 C1331 1.429 . S
C1337 C1338 1.523 . S
C1338 C1319 1.368 . S
C1338 C1332 1.368 . S
C1338 C1337 1.523 . S
C1339 C1323 1.429 . S
C1339 C1335 1.429 . S
C1339 C1340 1.523 . S
C1340 C1324 1.368 . S
C1340 C1336 1.368 . S
C1340 C1339 1.523 . S
H1341 C1316 0.950 . S
H1342 C1318 0.950 . S
H1343 C1319 0.949 . S
H1344 C1321 0.950 . S
H1345 C1323 0.950 . S
C1346 C1347 1.349 . S
C1346 C1348 1.327 . S
C1346 H1371 0.950 . S
C1347 C1346 1.349 . S
C1347 C1363 1.349 . S
C1348 C1346 1.327 . S
C1348 C1367 1.429 . S
C1348 H1372 0.950 . S
C1349 C1366 1.574 . S
C1349 C1368 1.368 . S
C1349 H1373 0.949 . S
H1350 C1354 0.949 . S
C1351 C1352 1.349 . S
C1351 C1353 1.327 . S
C1351 H1374 0.950 . S
C1352 C1351 1.349 . S
C1352 C1364 1.349 . S
C1353 C1351 1.327 . S
C1353 C1369 1.429 . S
C1353 H1375 0.950 . S
C1354 H1350 0.949 . S
C1354 C1362 1.574 . S
C1354 C1370 1.368 . S
H1355 C1363 0.950 . S
H1356 C1361 0.950 . S
H1357 C1362 0.949 . S
H1358 C1364 0.950 . S
H1359 C1365 0.950 . S
H1360 C1366 0.949 . S
C1361 H1356 0.950 . S
C1361 C1363 1.327 . S
C1361 C1367 1.429 . S
C1362 C1354 1.574 . S
C1362 H1357 0.949 . S
C1362 C1368 1.368 . S
C1363 C1347 1.349 . S
C1363 H1355 0.950 . S
C1363 C1361 1.327 . S
C1364 C1352 1.349 . S
C1364 H1358 0.950 . S
C1364 C1365 1.327 . S
C1365 H1359 0.950 . S
C1365 C1364 1.327 . S
C1365 C1369 1.429 . S
C1366 C1349 1.574 . S
C1366 H1360 0.949 . S
C1366 C1370 1.368 . S
C1367 C1348 1.429 . S
C1367 C1361 1.429 . S
C1367 C1368 1.523 . S
C1368 C1349 1.368 . S
C1368 C1362 1.368 . S
C1368 C1367 1.523 . S
C1369 C1353 1.429 . S
C1369 C1365 1.429 . S
C1369 C1370 1.523 . S
C1370 C1354 1.368 . S
C1370 C1366 1.368 . S
C1370 C1369 1.523 . S
H1371 C1346 0.950 . S
H1372 C1348 0.950 . S
H1373 C1349 0.949 . S
H1374 C1351 0.950 . S
H1375 C1353 0.950 . S
C1376 C1377 1.349 . S
C1376 C1378 1.327 . S
C1376 H1401 0.950 . S
C1377 C1376 1.349 . S
C1377 C1393 1.349 . S
C1378 C1376 1.327 . S
C1378 C1397 1.429 . S
C1378 H1402 0.950 . S
C1379 C1396 1.574 . S
C1379 C1398 1.368 . S
C1379 H1403 0.949 . S
H1380 C1384 0.949 . S
C1381 C1382 1.349 . S
C1381 C1383 1.327 . S
C1381 H1404 0.950 . S
C1382 C1381 1.349 . S
C1382 C1394 1.349 . S
C1383 C1381 1.327 . S
C1383 C1399 1.429 . S
C1383 H1405 0.950 . S
C1384 H1380 0.949 . S
C1384 C1392 1.574 . S
C1384 C1400 1.368 . S
H1385 C1393 0.950 . S
H1386 C1391 0.950 . S
H1387 C1392 0.949 . S
H1388 C1394 0.950 . S
H1389 C1395 0.950 . S
H1390 C1396 0.949 . S
C1391 H1386 0.950 . S
C1391 C1393 1.327 . S
C1391 C1397 1.429 . S
C1392 C1384 1.574 . S
C1392 H1387 0.949 . S
C1392 C1398 1.368 . S
C1393 C1377 1.349 . S
C1393 H1385 0.950 . S
C1393 C1391 1.327 . S
C1394 C1382 1.349 . S
C1394 H1388 0.950 . S
C1394 C1395 1.327 . S
C1395 H1389 0.950 . S
C1395 C1394 1.327 . S
C1395 C1399 1.429 . S
C1396 C1379 1.574 . S
C1396 H1390 0.949 . S
C1396 C1400 1.368 . S
C1397 C1378 1.429 . S
C1397 C1391 1.429 . S
C1397 C1398 1.523 . S
C1398 C1379 1.368 . S
C1398 C1392 1.368 . S
C1398 C1397 1.523 . S
C1399 C1383 1.429 . S
C1399 C1395 1.429 . S
C1399 C1400 1.523 . S
C1400 C1384 1.368 . S
C1400 C1396 1.368 . S
C1400 C1399 1.523 . S
H1401 C1376 0.950 . S
H1402 C1378 0.950 . S
H1403 C1379 0.949 . S
H1404 C1381 0.950 . S
H1405 C1383 0.950 . S
C1406 C1407 1.349 . S
C1406 C1408 1.327 . S
C1406 H1431 0.950 . S
C1407 C1406 1.349 . S
C1407 C1423 1.349 . S
C1408 C1406 1.327 . S
C1408 C1427 1.429 . S
C1408 H1432 0.950 . S
C1409 C1426 1.574 . S
C1409 C1428 1.368 . S
C1409 H1433 0.949 . S
H1410 C1414 0.949 . S
C1411 C1412 1.349 . S
C1411 C1413 1.327 . S
C1411 H1434 0.950 . S
C1412 C1411 1.349 . S
C1412 C1424 1.349 . S
C1413 C1411 1.327 . S
C1413 C1429 1.429 1_655 S
C1413 H1435 0.950 . S
C1414 H1410 0.949 . S
C1414 C1422 1.574 . S
C1414 C1430 1.368 . S
H1415 C1423 0.950 . S
H1416 C1421 0.950 . S
H1417 C1422 0.949 . S
H1418 C1424 0.950 . S
H1419 C1425 0.950 . S
H1420 C1426 0.949 . S
C1421 H1416 0.950 . S
C1421 C1423 1.327 . S
C1421 C1427 1.429 . S
C1422 C1414 1.574 . S
C1422 H1417 0.949 . S
C1422 C1428 1.368 . S
C1423 C1407 1.349 . S
C1423 H1415 0.950 . S
C1423 C1421 1.327 . S
C1424 C1412 1.349 . S
C1424 H1418 0.950 . S
C1424 C1425 1.327 1_655 S
C1425 H1419 0.950 . S
C1425 C1424 1.327 1_455 S
C1425 C1429 1.429 . S
C1426 C1409 1.574 . S
C1426 H1420 0.949 . S
C1426 C1430 1.368 . S
C1427 C1408 1.429 . S
C1427 C1421 1.429 . S
C1427 C1428 1.523 . S
C1428 C1409 1.368 . S
C1428 C1422 1.368 . S
C1428 C1427 1.523 . S
C1429 C1413 1.429 1_455 S
C1429 C1425 1.429 . S
C1429 C1430 1.523 . S
C1430 C1414 1.368 . S
C1430 C1426 1.368 . S
C1430 C1429 1.523 . S
H1431 C1406 0.950 . S
H1432 C1408 0.950 . S
H1433 C1409 0.949 . S
H1434 C1411 0.950 . S
H1435 C1413 0.950 . S
C1436 C1437 1.349 . S
C1436 C1438 1.327 . S
C1436 H1461 0.950 . S
C1437 C1436 1.349 . S
C1437 C1453 1.349 . S
C1438 C1436 1.327 . S
C1438 C1457 1.429 . S
C1438 H1462 0.950 . S
C1439 C1456 1.574 . S
C1439 C1458 1.368 . S
C1439 H1463 0.949 . S
H1440 C1444 0.949 . S
C1441 C1442 1.349 . S
C1441 C1443 1.327 . S
C1441 H1464 0.950 . S
C1442 C1441 1.349 . S
C1442 C1454 1.349 . S
C1443 C1441 1.327 . S
C1443 C1459 1.429 . S
C1443 H1465 0.950 . S
C1444 H1440 0.949 . S
C1444 C1452 1.574 . S
C1444 C1460 1.368 . S
H1445 C1453 0.950 . S
H1446 C1451 0.950 . S
H1447 C1452 0.949 . S
H1448 C1454 0.950 . S
H1449 C1455 0.950 . S
H1450 C1456 0.949 . S
C1451 H1446 0.950 . S
C1451 C1453 1.327 . S
C1451 C1457 1.429 . S
C1452 C1444 1.574 . S
C1452 H1447 0.949 . S
C1452 C1458 1.368 . S
C1453 C1437 1.349 . S
C1453 H1445 0.950 . S
C1453 C1451 1.327 . S
C1454 C1442 1.349 . S
C1454 H1448 0.950 . S
C1454 C1455 1.327 . S
C1455 H1449 0.950 . S
C1455 C1454 1.327 . S
C1455 C1459 1.429 . S
C1456 C1439 1.574 . S
C1456 H1450 0.949 . S
C1456 C1460 1.368 . S
C1457 C1438 1.429 . S
C1457 C1451 1.429 . S
C1457 C1458 1.523 . S
C1458 C1439 1.368 . S
C1458 C1452 1.368 . S
C1458 C1457 1.523 . S
C1459 C1443 1.429 . S
C1459 C1455 1.429 . S
C1459 C1460 1.523 . S
C1460 C1444 1.368 . S
C1460 C1456 1.368 . S
C1460 C1459 1.523 . S
H1461 C1436 0.950 . S
H1462 C1438 0.950 . S
H1463 C1439 0.949 . S
H1464 C1441 0.950 . S
H1465 C1443 0.950 . S
C1466 C1467 1.349 . S
C1466 C1468 1.327 . S
C1466 H1491 0.950 . S
C1467 C1466 1.349 . S
C1467 C1483 1.349 . S
C1468 C1466 1.327 . S
C1468 C1487 1.429 . S
C1468 H1492 0.950 . S
C1469 C1486 1.574 . S
C1469 C1488 1.368 . S
C1469 H1493 0.949 . S
H1470 C1474 0.949 . S
C1471 C1472 1.349 . S
C1471 C1473 1.327 . S
C1471 H1494 0.950 . S
C1472 C1471 1.349 . S
C1472 C1484 1.349 . S
C1473 C1471 1.327 . S
C1473 C1489 1.429 . S
C1473 H1495 0.950 . S
C1474 H1470 0.949 . S
C1474 C1482 1.574 . S
C1474 C1490 1.368 . S
H1475 C1483 0.950 . S
H1476 C1481 0.950 . S
H1477 C1482 0.949 . S
H1478 C1484 0.950 . S
H1479 C1485 0.950 . S
H1480 C1486 0.949 . S
C1481 H1476 0.950 . S
C1481 C1483 1.327 . S
C1481 C1487 1.429 . S
C1482 C1474 1.574 . S
C1482 H1477 0.949 . S
C1482 C1488 1.368 . S
C1483 C1467 1.349 . S
C1483 H1475 0.950 . S
C1483 C1481 1.327 . S
C1484 C1472 1.349 . S
C1484 H1478 0.950 . S
C1484 C1485 1.327 . S
C1485 H1479 0.950 . S
C1485 C1484 1.327 . S
C1485 C1489 1.429 . S
C1486 C1469 1.574 . S
C1486 H1480 0.949 . S
C1486 C1490 1.368 . S
C1487 C1468 1.429 . S
C1487 C1481 1.429 . S
C1487 C1488 1.523 . S
C1488 C1469 1.368 . S
C1488 C1482 1.368 . S
C1488 C1487 1.523 . S
C1489 C1473 1.429 . S
C1489 C1485 1.429 . S
C1489 C1490 1.523 . S
C1490 C1474 1.368 . S
C1490 C1486 1.368 . S
C1490 C1489 1.523 . S
H1491 C1466 0.950 . S
H1492 C1468 0.950 . S
H1493 C1469 0.949 . S
H1494 C1471 0.950 . S
H1495 C1473 0.950 . S
C1496 C1497 1.349 . S
C1496 C1498 1.327 . S
C1496 H1521 0.950 . S
C1497 C1496 1.349 . S
C1497 C1513 1.349 . S
C1498 C1496 1.327 . S
C1498 C1517 1.429 . S
C1498 H1522 0.950 . S
C1499 C1516 1.574 . S
C1499 C1518 1.368 . S
C1499 H1523 0.949 . S
H1500 C1504 0.949 . S
C1501 C1502 1.349 . S
C1501 C1503 1.327 . S
C1501 H1524 0.950 . S
C1502 C1501 1.349 . S
C1502 C1514 1.349 . S
C1503 C1501 1.327 . S
C1503 C1519 1.429 . S
C1503 H1525 0.950 . S
C1504 H1500 0.949 . S
C1504 C1512 1.574 . S
C1504 C1520 1.368 . S
H1505 C1513 0.950 . S
H1506 C1511 0.950 . S
H1507 C1512 0.949 . S
H1508 C1514 0.950 . S
H1509 C1515 0.950 . S
H1510 C1516 0.949 . S
C1511 H1506 0.950 . S
C1511 C1513 1.327 . S
C1511 C1517 1.429 . S
C1512 C1504 1.574 . S
C1512 H1507 0.949 . S
C1512 C1518 1.368 . S
C1513 C1497 1.349 . S
C1513 H1505 0.950 . S
C1513 C1511 1.327 . S
C1514 C1502 1.349 . S
C1514 H1508 0.950 . S
C1514 C1515 1.327 . S
C1515 H1509 0.950 . S
C1515 C1514 1.327 . S
C1515 C1519 1.429 . S
C1516 C1499 1.574 . S
C1516 H1510 0.949 . S
C1516 C1520 1.368 . S
C1517 C1498 1.429 . S
C1517 C1511 1.429 . S
C1517 C1518 1.523 . S
C1518 C1499 1.368 . S
C1518 C1512 1.368 . S
C1518 C1517 1.523 . S
C1519 C1503 1.429 . S
C1519 C1515 1.429 . S
C1519 C1520 1.523 . S
C1520 C1504 1.368 . S
C1520 C1516 1.368 . S
C1520 C1519 1.523 . S
H1521 C1496 0.950 . S
H1522 C1498 0.950 . S
H1523 C1499 0.949 . S
H1524 C1501 0.950 . S
H1525 C1503 0.950 . S
C1526 C1527 1.349 . S
C1526 C1528 1.327 . S
C1526 H1551 0.950 . S
C1527 C1526 1.349 . S
C1527 C1543 1.349 . S
C1528 C1526 1.327 . S
C1528 C1547 1.429 . S
C1528 H1552 0.950 . S
C1529 C1546 1.574 . S
C1529 C1548 1.368 . S
C1529 H1553 0.949 . S
H1530 C1534 0.949 . S
C1531 C1532 1.349 . S
C1531 C1533 1.327 . S
C1531 H1554 0.950 . S
C1532 C1531 1.349 . S
C1532 C1544 1.349 . S
C1533 C1531 1.327 . S
C1533 C1549 1.429 . S
C1533 H1555 0.950 . S
C1534 H1530 0.949 . S
C1534 C1542 1.574 . S
C1534 C1550 1.368 . S
H1535 C1543 0.950 . S
H1536 C1541 0.950 . S
H1537 C1542 0.949 . S
H1538 C1544 0.950 . S
H1539 C1545 0.950 . S
H1540 C1546 0.949 . S
C1541 H1536 0.950 . S
C1541 C1543 1.327 . S
C1541 C1547 1.429 . S
C1542 C1534 1.574 . S
C1542 H1537 0.949 . S
C1542 C1548 1.368 . S
C1543 C1527 1.349 . S
C1543 H1535 0.950 . S
C1543 C1541 1.327 . S
C1544 C1532 1.349 . S
C1544 H1538 0.950 . S
C1544 C1545 1.327 . S
C1545 H1539 0.950 . S
C1545 C1544 1.327 . S
C1545 C1549 1.429 . S
C1546 C1529 1.574 . S
C1546 H1540 0.949 . S
C1546 C1550 1.368 . S
C1547 C1528 1.429 . S
C1547 C1541 1.429 . S
C1547 C1548 1.523 . S
C1548 C1529 1.368 . S
C1548 C1542 1.368 . S
C1548 C1547 1.523 . S
C1549 C1533 1.429 . S
C1549 C1545 1.429 . S
C1549 C1550 1.523 . S
C1550 C1534 1.368 . S
C1550 C1546 1.368 . S
C1550 C1549 1.523 . S
H1551 C1526 0.950 . S
H1552 C1528 0.950 . S
H1553 C1529 0.949 . S
H1554 C1531 0.950 . S
H1555 C1533 0.950 . S
C1556 C1557 1.349 . S
C1556 C1558 1.327 . S
C1556 H1581 0.950 . S
C1557 C1556 1.349 . S
C1557 C1573 1.349 . S
C1558 C1556 1.327 . S
C1558 C1577 1.429 . S
C1558 H1582 0.950 . S
C1559 C1576 1.574 . S
C1559 C1578 1.368 . S
C1559 H1583 0.949 . S
H1560 C1564 0.949 . S
C1561 C1562 1.349 . S
C1561 C1563 1.327 . S
C1561 H1584 0.950 . S
C1562 C1561 1.349 . S
C1562 C1574 1.349 . S
C1563 C1561 1.327 . S
C1563 C1579 1.429 . S
C1563 H1585 0.950 . S
C1564 H1560 0.949 . S
C1564 C1572 1.574 . S
C1564 C1580 1.368 . S
H1565 C1573 0.950 . S
H1566 C1571 0.950 . S
H1567 C1572 0.949 . S
H1568 C1574 0.950 . S
H1569 C1575 0.950 . S
H1570 C1576 0.949 . S
C1571 H1566 0.950 . S
C1571 C1573 1.327 . S
C1571 C1577 1.429 . S
C1572 C1564 1.574 . S
C1572 H1567 0.949 . S
C1572 C1578 1.368 . S
C1573 C1557 1.349 . S
C1573 H1565 0.950 . S
C1573 C1571 1.327 . S
C1574 C1562 1.349 . S
C1574 H1568 0.950 . S
C1574 C1575 1.327 . S
C1575 H1569 0.950 . S
C1575 C1574 1.327 . S
C1575 C1579 1.429 . S
C1576 C1559 1.574 . S
C1576 H1570 0.949 . S
C1576 C1580 1.368 . S
C1577 C1558 1.429 . S
C1577 C1571 1.429 . S
C1577 C1578 1.523 . S
C1578 C1559 1.368 . S
C1578 C1572 1.368 . S
C1578 C1577 1.523 . S
C1579 C1563 1.429 . S
C1579 C1575 1.429 . S
C1579 C1580 1.523 . S
C1580 C1564 1.368 . S
C1580 C1576 1.368 . S
C1580 C1579 1.523 . S
H1581 C1556 0.950 . S
H1582 C1558 0.950 . S
H1583 C1559 0.949 . S
H1584 C1561 0.950 . S
H1585 C1563 0.950 . S
C1586 C1587 1.349 . S
C1586 C1588 1.327 . S
C1586 H1611 0.950 . S
C1587 C1586 1.349 . S
C1587 C1603 1.349 . S
C1588 C1586 1.327 . S
C1588 C1607 1.429 . S
C1588 H1612 0.950 . S
C1589 C1606 1.574 . S
C1589 C1608 1.368 . S
C1589 H1613 0.949 . S
H1590 C1594 0.949 . S
C1591 C1592 1.349 . S
C1591 C1593 1.327 1_655 S
C1591 H1614 0.950 . S
C1592 C1591 1.349 . S
C1592 C1604 1.349 . S
C1593 C1591 1.327 1_455 S
C1593 C1609 1.429 . S
C1593 H1615 0.950 . S
C1594 H1590 0.949 . S
C1594 C1602 1.574 . S
C1594 C1610 1.368 . S
H1595 C1603 0.950 . S
H1596 C1601 0.950 . S
H1597 C1602 0.949 . S
H1598 C1604 0.950 . S
H1599 C1605 0.950 . S
H1600 C1606 0.949 . S
C1601 H1596 0.950 . S
C1601 C1603 1.327 . S
C1601 C1607 1.429 . S
C1602 C1594 1.574 . S
C1602 H1597 0.949 . S
C1602 C1608 1.368 . S
C1603 C1587 1.349 . S
C1603 H1595 0.950 . S
C1603 C1601 1.327 . S
C1604 C1592 1.349 . S
C1604 H1598 0.950 . S
C1604 C1605 1.327 . S
C1605 H1599 0.950 . S
C1605 C1604 1.327 . S
C1605 C1609 1.429 1_655 S
C1606 C1589 1.574 . S
C1606 H1600 0.949 . S
C1606 C1610 1.368 . S
C1607 C1588 1.429 . S
C1607 C1601 1.429 . S
C1607 C1608 1.523 . S
C1608 C1589 1.368 . S
C1608 C1602 1.368 . S
C1608 C1607 1.523 . S
C1609 C1593 1.429 . S
C1609 C1605 1.429 1_455 S
C1609 C1610 1.523 . S
C1610 C1594 1.368 . S
C1610 C1606 1.368 . S
C1610 C1609 1.523 . S
H1611 C1586 0.950 . S
H1612 C1588 0.950 . S
H1613 C1589 0.949 . S
H1614 C1591 0.950 . S
H1615 C1593 0.950 . S
C1616 C1617 1.349 . S
C1616 C1618 1.327 . S
C1616 H1641 0.950 . S
C1617 C1616 1.349 . S
C1617 C1633 1.349 . S
C1618 C1616 1.327 . S
C1618 C1637 1.429 . S
C1618 H1642 0.950 . S
C1619 C1636 1.574 . S
C1619 C1638 1.368 . S
C1619 H1643 0.949 . S
H1620 C1624 0.949 . S
C1621 C1622 1.349 . S
C1621 C1623 1.327 . S
C1621 H1644 0.950 . S
C1622 C1621 1.349 . S
C1622 C1634 1.349 . S
C1623 C1621 1.327 . S
C1623 C1639 1.429 . S
C1623 H1645 0.950 . S
C1624 H1620 0.949 . S
C1624 C1632 1.574 . S
C1624 C1640 1.368 . S
H1625 C1633 0.950 . S
H1626 C1631 0.950 . S
H1627 C1632 0.949 . S
H1628 C1634 0.950 . S
H1629 C1635 0.950 . S
H1630 C1636 0.949 . S
C1631 H1626 0.950 . S
C1631 C1633 1.327 . S
C1631 C1637 1.429 . S
C1632 C1624 1.574 . S
C1632 H1627 0.949 . S
C1632 C1638 1.368 . S
C1633 C1617 1.349 . S
C1633 H1625 0.950 . S
C1633 C1631 1.327 . S
C1634 C1622 1.349 . S
C1634 H1628 0.950 . S
C1634 C1635 1.327 . S
C1635 H1629 0.950 . S
C1635 C1634 1.327 . S
C1635 C1639 1.429 . S
C1636 C1619 1.574 . S
C1636 H1630 0.949 . S
C1636 C1640 1.368 . S
C1637 C1618 1.429 . S
C1637 C1631 1.429 . S
C1637 C1638 1.523 . S
C1638 C1619 1.368 . S
C1638 C1632 1.368 . S
C1638 C1637 1.523 . S
C1639 C1623 1.429 . S
C1639 C1635 1.429 . S
C1639 C1640 1.523 . S
C1640 C1624 1.368 . S
C1640 C1636 1.368 . S
C1640 C1639 1.523 . S
H1641 C1616 0.950 . S
H1642 C1618 0.950 . S
H1643 C1619 0.949 . S
H1644 C1621 0.950 . S
H1645 C1623 0.950 . S
C1646 C1647 1.349 . S
C1646 C1648 1.318 1_455 S
C1646 H1671 0.950 . S
C1647 C1646 1.349 . S
C1647 C1663 1.349 . S
C1648 C1646 1.318 1_655 S
C1648 C1667 1.431 . S
C1648 H1672 0.957 . S
C1649 C1666 1.574 . S
C1649 C1668 1.368 . S
C1649 H1673 0.949 . S
H1650 C1654 0.949 . S
C1651 C1652 1.349 . S
C1651 C1653 1.327 . S
C1651 H1674 0.950 . S
C1652 C1651 1.349 . S
C1652 C1664 1.349 . S
C1653 C1651 1.327 . S
C1653 C1669 1.429 . S
C1653 H1675 0.950 . S
C1654 H1650 0.949 . S
C1654 C1662 1.574 . S
C1654 C1670 1.368 . S
H1655 C1663 0.950 . S
H1656 C1661 0.950 . S
H1657 C1662 0.949 . S
H1658 C1664 0.950 . S
H1659 C1665 0.950 . S
H1660 C1666 0.949 . S
C1661 H1656 0.950 . S
C1661 C1663 1.327 . S
C1661 C1667 1.429 1_455 S
C1662 C1654 1.574 . S
C1662 H1657 0.949 . S
C1662 C1668 1.368 . S
C1663 C1647 1.349 . S
C1663 H1655 0.950 . S
C1663 C1661 1.327 . S
C1664 C1652 1.349 . S
C1664 H1658 0.950 . S
C1664 C1665 1.327 . S
C1665 H1659 0.950 . S
C1665 C1664 1.327 . S
C1665 C1669 1.429 . S
C1666 C1649 1.574 . S
C1666 H1660 0.949 . S
C1666 C1670 1.368 . S
C1667 C1648 1.431 . S
C1667 C1661 1.429 1_655 S
C1667 C1668 1.523 . S
C1668 C1649 1.368 . S
C1668 C1662 1.368 . S
C1668 C1667 1.523 . S
C1669 C1653 1.429 . S
C1669 C1665 1.429 . S
C1669 C1670 1.523 . S
C1670 C1654 1.368 . S
C1670 C1666 1.368 . S
C1670 C1669 1.523 . S
H1671 C1646 0.950 . S
H1672 C1648 0.957 . S
H1673 C1649 0.949 . S
H1674 C1651 0.950 . S
H1675 C1653 0.950 . S
C1676 C1677 1.349 . S
C1676 C1678 1.327 . S
C1676 H1701 0.950 . S
C1677 C1676 1.349 . S
C1677 C1693 1.349 . S
C1678 C1676 1.327 . S
C1678 C1697 1.429 . S
C1678 H1702 0.950 . S
C1679 C1696 1.574 . S
C1679 C1698 1.368 . S
C1679 H1703 0.949 . S
H1680 C1684 0.949 . S
C1681 C1682 1.349 . S
C1681 C1683 1.327 . S
C1681 H1704 0.950 . S
C1682 C1681 1.349 . S
C1682 C1694 1.349 . S
C1683 C1681 1.327 . S
C1683 C1699 1.429 . S
C1683 H1705 0.950 . S
C1684 H1680 0.949 . S
C1684 C1692 1.574 . S
C1684 C1700 1.368 . S
H1685 C1693 0.950 . S
H1686 C1691 0.950 . S
H1687 C1692 0.949 . S
H1688 C1694 0.950 . S
H1689 C1695 0.950 . S
H1690 C1696 0.949 . S
C1691 H1686 0.950 . S
C1691 C1693 1.327 . S
C1691 C1697 1.429 . S
C1692 C1684 1.574 . S
C1692 H1687 0.949 . S
C1692 C1698 1.368 . S
C1693 C1677 1.349 . S
C1693 H1685 0.950 . S
C1693 C1691 1.327 . S
C1694 C1682 1.349 . S
C1694 H1688 0.950 . S
C1694 C1695 1.327 . S
C1695 H1689 0.950 . S
C1695 C1694 1.327 . S
C1695 C1699 1.429 . S
C1696 C1679 1.574 . S
C1696 H1690 0.949 . S
C1696 C1700 1.368 . S
C1697 C1678 1.429 . S
C1697 C1691 1.429 . S
C1697 C1698 1.523 . S
C1698 C1679 1.368 . S
C1698 C1692 1.368 . S
C1698 C1697 1.523 . S
C1699 C1683 1.429 . S
C1699 C1695 1.429 . S
C1699 C1700 1.523 . S
C1700 C1684 1.368 . S
C1700 C1696 1.368 . S
C1700 C1699 1.523 . S
H1701 C1676 0.950 . S
H1702 C1678 0.950 . S
H1703 C1679 0.949 . S
H1704 C1681 0.950 . S
H1705 C1683 0.950 . S
C1706 C1707 1.349 . S
C1706 C1708 1.327 . S
C1706 H1731 0.950 . S
C1707 C1706 1.349 . S
C1707 C1723 1.349 . S
C1708 C1706 1.327 . S
C1708 C1727 1.429 . S
C1708 H1732 0.950 . S
C1709 C1726 1.574 . S
C1709 C1728 1.368 . S
C1709 H1733 0.949 . S
H1710 C1714 0.949 . S
C1711 C1712 1.349 . S
C1711 C1713 1.327 . S
C1711 H1734 0.950 . S
C1712 C1711 1.349 . S
C1712 C1724 1.349 . S
C1713 C1711 1.327 . S
C1713 C1729 1.429 . S
C1713 H1735 0.950 . S
C1714 H1710 0.949 . S
C1714 C1722 1.574 . S
C1714 C1730 1.368 . S
H1715 C1723 0.950 . S
H1716 C1721 0.950 . S
H1717 C1722 0.949 . S
H1718 C1724 0.950 . S
H1719 C1725 0.950 . S
H1720 C1726 0.949 . S
C1721 H1716 0.950 . S
C1721 C1723 1.327 . S
C1721 C1727 1.429 . S
C1722 C1714 1.574 . S
C1722 H1717 0.949 . S
C1722 C1728 1.368 . S
C1723 C1707 1.349 . S
C1723 H1715 0.950 . S
C1723 C1721 1.327 . S
C1724 C1712 1.349 . S
C1724 H1718 0.950 . S
C1724 C1725 1.327 . S
C1725 H1719 0.950 . S
C1725 C1724 1.327 . S
C1725 C1729 1.429 . S
C1726 C1709 1.574 . S
C1726 H1720 0.949 . S
C1726 C1730 1.368 . S
C1727 C1708 1.429 . S
C1727 C1721 1.429 . S
C1727 C1728 1.523 . S
C1728 C1709 1.368 . S
C1728 C1722 1.368 . S
C1728 C1727 1.523 . S
C1729 C1713 1.429 . S
C1729 C1725 1.429 . S
C1729 C1730 1.523 . S
C1730 C1714 1.368 . S
C1730 C1726 1.368 . S
C1730 C1729 1.523 . S
H1731 C1706 0.950 . S
H1732 C1708 0.950 . S
H1733 C1709 0.949 . S
H1734 C1711 0.950 . S
H1735 C1713 0.950 . S
C1736 C1737 1.349 . S
C1736 C1738 1.327 . S
C1736 H1761 0.950 . S
C1737 C1736 1.349 . S
C1737 C1753 1.349 . S
C1738 C1736 1.327 . S
C1738 C1757 1.429 . S
C1738 H1762 0.950 . S
C1739 C1756 1.574 . S
C1739 C1758 1.368 . S
C1739 H1763 0.949 . S
H1740 C1744 0.949 . S
C1741 C1742 1.349 . S
C1741 C1743 1.327 . S
C1741 H1764 0.950 . S
C1742 C1741 1.349 . S
C1742 C1754 1.349 . S
C1743 C1741 1.327 . S
C1743 C1759 1.429 . S
C1743 H1765 0.950 . S
C1744 H1740 0.949 . S
C1744 C1752 1.574 . S
C1744 C1760 1.368 . S
H1745 C1753 0.950 . S
H1746 C1751 0.950 . S
H1747 C1752 0.949 . S
H1748 C1754 0.950 . S
H1749 C1755 0.950 . S
H1750 C1756 0.949 . S
C1751 H1746 0.950 . S
C1751 C1753 1.327 . S
C1751 C1757 1.429 . S
C1752 C1744 1.574 . S
C1752 H1747 0.949 . S
C1752 C1758 1.368 . S
C1753 C1737 1.349 . S
C1753 H1745 0.950 . S
C1753 C1751 1.327 . S
C1754 C1742 1.349 . S
C1754 H1748 0.950 . S
C1754 C1755 1.327 . S
C1755 H1749 0.950 . S
C1755 C1754 1.327 . S
C1755 C1759 1.429 . S
C1756 C1739 1.574 . S
C1756 H1750 0.949 . S
C1756 C1760 1.368 . S
C1757 C1738 1.429 . S
C1757 C1751 1.429 . S
C1757 C1758 1.523 . S
C1758 C1739 1.368 . S
C1758 C1752 1.368 . S
C1758 C1757 1.523 . S
C1759 C1743 1.429 . S
C1759 C1755 1.429 . S
C1759 C1760 1.523 . S
C1760 C1744 1.368 . S
C1760 C1756 1.368 . S
C1760 C1759 1.523 . S
H1761 C1736 0.950 . S
H1762 C1738 0.950 . S
H1763 C1739 0.949 . S
H1764 C1741 0.950 . S
H1765 C1743 0.950 . S
C1766 C1767 1.349 . S
C1766 C1768 1.327 . S
C1766 H1791 0.950 . S
C1767 C1766 1.349 . S
C1767 C1783 1.349 . S
C1768 C1766 1.327 . S
C1768 C1787 1.429 . S
C1768 H1792 0.950 . S
C1769 C1786 1.574 . S
C1769 C1788 1.368 . S
C1769 H1793 0.949 . S
H1770 C1774 0.949 . S
C1771 C1772 1.349 . S
C1771 C1773 1.327 . S
C1771 H1794 0.950 . S
C1772 C1771 1.349 . S
C1772 C1784 1.349 . S
C1773 C1771 1.327 . S
C1773 C1789 1.429 . S
C1773 H1795 0.950 . S
C1774 H1770 0.949 . S
C1774 C1782 1.574 . S
C1774 C1790 1.368 . S
H1775 C1783 0.950 . S
H1776 C1781 0.950 . S
H1777 C1782 0.949 . S
H1778 C1784 0.950 . S
H1779 C1785 0.950 . S
H1780 C1786 0.949 . S
C1781 H1776 0.950 . S
C1781 C1783 1.327 . S
C1781 C1787 1.429 . S
C1782 C1774 1.574 . S
C1782 H1777 0.949 . S
C1782 C1788 1.368 . S
C1783 C1767 1.349 . S
C1783 H1775 0.950 . S
C1783 C1781 1.327 . S
C1784 C1772 1.349 . S
C1784 H1778 0.950 . S
C1784 C1785 1.327 . S
C1785 H1779 0.950 . S
C1785 C1784 1.327 . S
C1785 C1789 1.429 . S
C1786 C1769 1.574 . S
C1786 H1780 0.949 . S
C1786 C1790 1.368 . S
C1787 C1768 1.429 . S
C1787 C1781 1.429 . S
C1787 C1788 1.523 . S
C1788 C1769 1.368 . S
C1788 C1782 1.368 . S
C1788 C1787 1.523 . S
C1789 C1773 1.429 . S
C1789 C1785 1.429 . S
C1789 C1790 1.523 . S
C1790 C1774 1.368 . S
C1790 C1786 1.368 . S
C1790 C1789 1.523 . S
H1791 C1766 0.950 . S
H1792 C1768 0.950 . S
H1793 C1769 0.949 . S
H1794 C1771 0.950 . S
H1795 C1773 0.950 . S
C1796 C1797 1.349 . S
C1796 C1798 1.327 . S
C1796 H1821 0.950 . S
C1797 C1796 1.349 . S
C1797 C1813 1.349 . S
C1798 C1796 1.327 . S
C1798 C1817 1.429 . S
C1798 H1822 0.950 . S
C1799 C1816 1.574 . S
C1799 C1818 1.368 . S
C1799 H1823 0.949 . S
H1800 C1804 0.949 . S
C1801 C1802 1.349 . S
C1801 C1803 1.327 . S
C1801 H1824 0.950 . S
C1802 C1801 1.349 . S
C1802 C1814 1.349 . S
C1803 C1801 1.327 . S
C1803 C1819 1.429 . S
C1803 H1825 0.950 . S
C1804 H1800 0.949 . S
C1804 C1812 1.574 . S
C1804 C1820 1.368 . S
H1805 C1813 0.950 . S
H1806 C1811 0.950 . S
H1807 C1812 0.949 . S
H1808 C1814 0.950 . S
H1809 C1815 0.950 . S
H1810 C1816 0.949 . S
C1811 H1806 0.950 . S
C1811 C1813 1.327 . S
C1811 C1817 1.429 . S
C1812 C1804 1.574 . S
C1812 H1807 0.949 . S
C1812 C1818 1.368 . S
C1813 C1797 1.349 . S
C1813 H1805 0.950 . S
C1813 C1811 1.327 . S
C1814 C1802 1.349 . S
C1814 H1808 0.950 . S
C1814 C1815 1.327 . S
C1815 H1809 0.950 . S
C1815 C1814 1.327 . S
C1815 C1819 1.429 . S
C1816 C1799 1.574 . S
C1816 H1810 0.949 . S
C1816 C1820 1.368 . S
C1817 C1798 1.429 . S
C1817 C1811 1.429 . S
C1817 C1818 1.523 . S
C1818 C1799 1.368 . S
C1818 C1812 1.368 . S
C1818 C1817 1.523 . S
C1819 C1803 1.429 . S
C1819 C1815 1.429 . S
C1819 C1820 1.523 . S
C1820 C1804 1.368 . S
C1820 C1816 1.368 . S
C1820 C1819 1.523 . S
H1821 C1796 0.950 . S
H1822 C1798 0.950 . S
H1823 C1799 0.949 . S
H1824 C1801 0.950 . S
H1825 C1803 0.950 . S
C1826 C1827 1.349 . S
C1826 C1828 1.327 . S
C1826 H1851 0.950 . S
C1827 C1826 1.349 . S
C1827 C1843 1.349 . S
C1828 C1826 1.327 . S
C1828 C1847 1.429 1_455 S
C1828 H1852 0.946 1_455 S
C1829 C1846 1.574 . S
C1829 C1848 1.368 . S
C1829 H1853 0.949 . S
H1830 C1834 0.949 . S
C1831 C1832 1.349 . S
C1831 C1833 1.327 . S
C1831 H1854 0.950 . S
C1832 C1831 1.349 . S
C1832 C1844 1.349 . S
C1833 C1831 1.327 . S
C1833 C1849 1.429 . S
C1833 H1855 0.950 . S
C1834 H1830 0.949 . S
C1834 C1842 1.574 . S
C1834 C1850 1.368 . S
H1835 C1843 0.950 . S
H1836 C1841 0.950 1_655 S
H1837 C1842 0.949 . S
H1838 C1844 0.950 . S
H1839 C1845 0.950 . S
H1840 C1846 0.949 . S
C1841 H1836 0.950 1_455 S
C1841 C1843 1.327 . S
C1841 C1847 1.429 1_455 S
C1842 C1834 1.574 . S
C1842 H1837 0.949 . S
C1842 C1848 1.368 . S
C1843 C1827 1.349 . S
C1843 H1835 0.950 . S
C1843 C1841 1.327 . S
C1844 C1832 1.349 . S
C1844 H1838 0.950 . S
C1844 C1845 1.327 . S
C1845 H1839 0.950 . S
C1845 C1844 1.327 . S
C1845 C1849 1.429 . S
C1846 C1829 1.574 . S
C1846 H1840 0.949 . S
C1846 C1850 1.368 . S
C1847 C1828 1.429 1_655 S
C1847 C1841 1.429 1_655 S
C1847 C1848 1.523 . S
C1848 C1829 1.368 . S
C1848 C1842 1.368 . S
C1848 C1847 1.523 . S
C1849 C1833 1.429 . S
C1849 C1845 1.429 . S
C1849 C1850 1.523 . S
C1850 C1834 1.368 . S
C1850 C1846 1.368 . S
C1850 C1849 1.523 . S
H1851 C1826 0.950 . S
H1852 C1828 0.946 1_655 S
H1853 C1829 0.949 . S
H1854 C1831 0.950 . S
H1855 C1833 0.950 . S
C1856 C1857 1.349 . S
C1856 C1858 1.327 . S
C1856 H1881 0.950 . S
C1857 C1856 1.349 . S
C1857 C1873 1.349 . S
C1858 C1856 1.327 . S
C1858 C1877 1.429 . S
C1858 H1882 0.950 . S
C1859 C1876 1.574 . S
C1859 C1878 1.368 . S
C1859 H1883 0.949 . S
H1860 C1864 0.949 . S
C1861 C1862 1.349 . S
C1861 C1863 1.327 . S
C1861 H1884 0.950 . S
C1862 C1861 1.349 . S
C1862 C1874 1.349 . S
C1863 C1861 1.327 . S
C1863 C1879 1.429 . S
C1863 H1885 0.950 . S
C1864 H1860 0.949 . S
C1864 C1872 1.574 . S
C1864 C1880 1.368 . S
H1865 C1873 0.950 . S
H1866 C1871 0.950 . S
H1867 C1872 0.949 . S
H1868 C1874 0.950 . S
H1869 C1875 0.950 . S
H1870 C1876 0.949 . S
C1871 H1866 0.950 . S
C1871 C1873 1.327 . S
C1871 C1877 1.429 . S
C1872 C1864 1.574 . S
C1872 H1867 0.949 . S
C1872 C1878 1.368 . S
C1873 C1857 1.349 . S
C1873 H1865 0.950 . S
C1873 C1871 1.327 . S
C1874 C1862 1.349 . S
C1874 H1868 0.950 . S
C1874 C1875 1.327 . S
C1875 H1869 0.950 . S
C1875 C1874 1.327 . S
C1875 C1879 1.429 . S
C1876 C1859 1.574 . S
C1876 H1870 0.949 . S
C1876 C1880 1.368 . S
C1877 C1858 1.429 . S
C1877 C1871 1.429 . S
C1877 C1878 1.523 . S
C1878 C1859 1.368 . S
C1878 C1872 1.368 . S
C1878 C1877 1.523 . S
C1879 C1863 1.429 . S
C1879 C1875 1.429 . S
C1879 C1880 1.523 . S
C1880 C1864 1.368 . S
C1880 C1876 1.368 . S
C1880 C1879 1.523 . S
H1881 C1856 0.950 . S
H1882 C1858 0.950 . S
H1883 C1859 0.949 . S
H1884 C1861 0.950 . S
H1885 C1863 0.950 . S
C1886 C1887 1.349 . S
C1886 C1888 1.327 . S
C1886 H1911 0.950 . S
C1887 C1886 1.349 . S
C1887 C1903 1.349 . S
C1888 C1886 1.327 . S
C1888 C1907 1.429 . S
C1888 H1912 0.950 . S
C1889 C1906 1.574 . S
C1889 C1908 1.368 . S
C1889 H1913 0.949 . S
H1890 C1894 0.949 . S
C1891 C1892 1.349 . S
C1891 C1893 1.327 . S
C1891 H1914 0.950 . S
C1892 C1891 1.349 . S
C1892 C1904 1.349 . S
C1893 C1891 1.327 . S
C1893 C1909 1.429 . S
C1893 H1915 0.950 . S
C1894 H1890 0.949 . S
C1894 C1902 1.574 . S
C1894 C1910 1.368 . S
H1895 C1903 0.950 . S
H1896 C1901 0.950 . S
H1897 C1902 0.949 . S
H1898 C1904 0.950 . S
H1899 C1905 0.950 . S
H1900 C1906 0.949 . S
C1901 H1896 0.950 . S
C1901 C1903 1.327 . S
C1901 C1907 1.429 . S
C1902 C1894 1.574 . S
C1902 H1897 0.949 . S
C1902 C1908 1.368 . S
C1903 C1887 1.349 . S
C1903 H1895 0.950 . S
C1903 C1901 1.327 . S
C1904 C1892 1.349 . S
C1904 H1898 0.950 . S
C1904 C1905 1.327 . S
C1905 H1899 0.950 . S
C1905 C1904 1.327 . S
C1905 C1909 1.429 . S
C1906 C1889 1.574 . S
C1906 H1900 0.949 . S
C1906 C1910 1.368 . S
C1907 C1888 1.429 . S
C1907 C1901 1.429 . S
C1907 C1908 1.523 . S
C1908 C1889 1.368 . S
C1908 C1902 1.368 . S
C1908 C1907 1.523 . S
C1909 C1893 1.429 . S
C1909 C1905 1.429 . S
C1909 C1910 1.523 . S
C1910 C1894 1.368 . S
C1910 C1906 1.368 . S
C1910 C1909 1.523 . S
H1911 C1886 0.950 . S
H1912 C1888 0.950 . S
H1913 C1889 0.949 . S
H1914 C1891 0.950 . S
H1915 C1893 0.950 . S
C1916 C1917 1.349 . S
C1916 C1918 1.327 . S
C1916 H1941 0.950 . S
C1917 C1916 1.349 . S
C1917 C1933 1.349 . S
C1918 C1916 1.327 . S
C1918 C1937 1.429 . S
C1918 H1942 0.950 . S
C1919 C1936 1.574 . S
C1919 C1938 1.368 . S
C1919 H1943 0.949 . S
H1920 C1924 0.949 . S
C1921 C1922 1.349 . S
C1921 C1923 1.327 . S
C1921 H1944 0.950 . S
C1922 C1921 1.349 . S
C1922 C1934 1.349 . S
C1923 C1921 1.327 . S
C1923 C1939 1.429 . S
C1923 H1945 0.950 . S
C1924 H1920 0.949 . S
C1924 C1932 1.574 . S
C1924 C1940 1.368 . S
H1925 C1933 0.950 . S
H1926 C1931 0.950 . S
H1927 C1932 0.949 . S
H1928 C1934 0.950 . S
H1929 C1935 0.950 . S
H1930 C1936 0.949 . S
C1931 H1926 0.950 . S
C1931 C1933 1.327 . S
C1931 C1937 1.429 . S
C1932 C1924 1.574 . S
C1932 H1927 0.949 . S
C1932 C1938 1.368 . S
C1933 C1917 1.349 . S
C1933 H1925 0.950 . S
C1933 C1931 1.327 . S
C1934 C1922 1.349 . S
C1934 H1928 0.950 . S
C1934 C1935 1.327 . S
C1935 H1929 0.950 . S
C1935 C1934 1.327 . S
C1935 C1939 1.429 . S
C1936 C1919 1.574 . S
C1936 H1930 0.949 . S
C1936 C1940 1.368 . S
C1937 C1918 1.429 . S
C1937 C1931 1.429 . S
C1937 C1938 1.523 . S
C1938 C1919 1.368 . S
C1938 C1932 1.368 . S
C1938 C1937 1.523 . S
C1939 C1923 1.429 . S
C1939 C1935 1.429 . S
C1939 C1940 1.523 . S
C1940 C1924 1.368 . S
C1940 C1936 1.368 . S
C1940 C1939 1.523 . S
H1941 C1916 0.950 . S
H1942 C1918 0.950 . S
H1943 C1919 0.949 . S
H1944 C1921 0.950 . S
H1945 C1923 0.950 . S
C1946 C1947 1.349 . S
C1946 C1948 1.327 . S
C1946 H1971 0.950 . S
C1947 C1946 1.349 . S
C1947 C1963 1.349 . S
C1948 C1946 1.327 . S
C1948 C1967 1.429 . S
C1948 H1972 0.950 . S
C1949 C1966 1.574 . S
C1949 C1968 1.368 . S
C1949 H1973 0.949 . S
H1950 C1954 0.949 . S
C1951 C1952 1.349 . S
C1951 C1953 1.327 1_455 S
C1951 H1974 0.950 . S
C1952 C1951 1.349 . S
C1952 C1964 1.349 . S
C1953 C1951 1.327 1_655 S
C1953 C1969 1.429 . S
C1953 H1975 0.950 . S
C1954 H1950 0.949 . S
C1954 C1962 1.574 . S
C1954 C1970 1.368 . S
H1955 C1963 0.950 . S
H1956 C1961 0.950 . S
H1957 C1962 0.949 . S
H1958 C1964 0.950 . S
H1959 C1965 0.950 . S
H1960 C1966 0.949 . S
C1961 H1956 0.950 . S
C1961 C1963 1.327 . S
C1961 C1967 1.429 . S
C1962 C1954 1.574 . S
C1962 H1957 0.949 . S
C1962 C1968 1.368 . S
C1963 C1947 1.349 . S
C1963 H1955 0.950 . S
C1963 C1961 1.327 . S
C1964 C1952 1.349 . S
C1964 H1958 0.950 . S
C1964 C1965 1.327 . S
C1965 H1959 0.950 . S
C1965 C1964 1.327 . S
C1965 C1969 1.429 1_455 S
C1966 C1949 1.574 . S
C1966 H1960 0.949 . S
C1966 C1970 1.368 . S
C1967 C1948 1.429 . S
C1967 C1961 1.429 . S
C1967 C1968 1.523 . S
C1968 C1949 1.368 . S
C1968 C1962 1.368 . S
C1968 C1967 1.523 . S
C1969 C1953 1.429 . S
C1969 C1965 1.429 1_655 S
C1969 C1970 1.523 . S
C1970 C1954 1.368 . S
C1970 C1966 1.368 . S
C1970 C1969 1.523 . S
H1971 C1946 0.950 . S
H1972 C1948 0.950 . S
H1973 C1949 0.949 . S
H1974 C1951 0.950 . S
H1975 C1953 0.950 . S
C1976 C1977 1.349 . S
C1976 C1978 1.327 . S
C1976 H2001 0.950 . S
C1977 C1976 1.349 . S
C1977 C1993 1.349 . S
C1978 C1976 1.327 . S
C1978 C1997 1.429 . S
C1978 H2002 0.950 . S
C1979 C1996 1.574 . S
C1979 C1998 1.368 . S
C1979 H2003 0.949 . S
H1980 C1984 0.949 . S
C1981 C1982 1.349 . S
C1981 C1983 1.327 . S
C1981 H2004 0.950 . S
C1982 C1981 1.349 . S
C1982 C1994 1.349 . S
C1983 C1981 1.327 . S
C1983 C1999 1.429 . S
C1983 H2005 0.950 . S
C1984 H1980 0.949 . S
C1984 C1992 1.574 . S
C1984 C2000 1.368 . S
H1985 C1993 0.950 . S
H1986 C1991 0.950 . S
H1987 C1992 0.949 . S
H1988 C1994 0.950 . S
H1989 C1995 0.950 . S
H1990 C1996 0.949 . S
C1991 H1986 0.950 . S
C1991 C1993 1.327 . S
C1991 C1997 1.429 . S
C1992 C1984 1.574 . S
C1992 H1987 0.949 . S
C1992 C1998 1.368 . S
C1993 C1977 1.349 . S
C1993 H1985 0.950 . S
C1993 C1991 1.327 . S
C1994 C1982 1.349 . S
C1994 H1988 0.950 . S
C1994 C1995 1.327 . S
C1995 H1989 0.950 . S
C1995 C1994 1.327 . S
C1995 C1999 1.429 . S
C1996 C1979 1.574 . S
C1996 H1990 0.949 . S
C1996 C2000 1.368 . S
C1997 C1978 1.429 . S
C1997 C1991 1.429 . S
C1997 C1998 1.523 . S
C1998 C1979 1.368 . S
C1998 C1992 1.368 . S
C1998 C1997 1.523 . S
C1999 C1983 1.429 . S
C1999 C1995 1.429 . S
C1999 C2000 1.523 . S
C2000 C1984 1.368 . S
C2000 C1996 1.368 . S
C2000 C1999 1.523 . S
H2001 C1976 0.950 . S
H2002 C1978 0.950 . S
H2003 C1979 0.949 . S
H2004 C1981 0.950 . S
H2005 C1983 0.950 . S
C2006 C2007 1.349 . S
C2006 C2008 1.327 . S
C2006 H2031 0.950 . S
C2007 C2006 1.349 . S
C2007 C2023 1.349 . S
C2008 C2006 1.327 . S
C2008 C2027 1.429 1_455 S
C2008 H2032 0.950 1_455 S
C2009 C2026 1.574 . S
C2009 C2028 1.368 . S
C2009 H2033 0.949 . S
H2010 C2014 0.949 . S
C2011 C2012 1.349 . S
C2011 C2013 1.327 . S
C2011 H2034 0.950 . S
C2012 C2011 1.349 . S
C2012 C2024 1.349 . S
C2013 C2011 1.327 . S
C2013 C2029 1.429 . S
C2013 H2035 0.950 . S
C2014 H2010 0.949 . S
C2014 C2022 1.574 . S
C2014 C2030 1.368 . S
H2015 C2023 0.950 . S
H2016 C2021 0.956 . S
H2017 C2022 0.949 . S
H2018 C2024 0.950 . S
H2019 C2025 0.950 . S
H2020 C2026 0.949 . S
C2021 H2016 0.956 . S
C2021 C2023 1.327 . S
C2021 C2027 1.429 1_455 S
C2022 C2014 1.574 . S
C2022 H2017 0.949 . S
C2022 C2028 1.368 . S
C2023 C2007 1.349 . S
C2023 H2015 0.950 . S
C2023 C2021 1.327 . S
C2024 C2012 1.349 . S
C2024 H2018 0.950 . S
C2024 C2025 1.327 . S
C2025 H2019 0.950 . S
C2025 C2024 1.327 . S
C2025 C2029 1.429 . S
C2026 C2009 1.574 . S
C2026 H2020 0.949 . S
C2026 C2030 1.368 . S
C2027 C2008 1.429 1_655 S
C2027 C2021 1.429 1_655 S
C2027 C2028 1.523 . S
C2028 C2009 1.368 . S
C2028 C2022 1.368 . S
C2028 C2027 1.523 . S
C2029 C2013 1.429 . S
C2029 C2025 1.429 . S
C2029 C2030 1.523 . S
C2030 C2014 1.368 . S
C2030 C2026 1.368 . S
C2030 C2029 1.523 . S
H2031 C2006 0.950 . S
H2032 C2008 0.950 1_655 S
H2033 C2009 0.949 . S
H2034 C2011 0.950 . S
H2035 C2013 0.950 . S
C2036 C2037 1.349 . S
C2036 C2038 1.327 . S
C2036 H2061 0.950 . S
C2037 C2036 1.349 . S
C2037 C2053 1.349 . S
C2038 C2036 1.327 . S
C2038 C2057 1.429 . S
C2038 H2062 0.950 . S
C2039 C2056 1.574 . S
C2039 C2058 1.368 . S
C2039 H2063 0.949 . S
H2040 C2044 0.949 . S
C2041 C2042 1.349 . S
C2041 C2043 1.327 . S
C2041 H2064 0.950 . S
C2042 C2041 1.349 . S
C2042 C2054 1.349 . S
C2043 C2041 1.327 . S
C2043 C2059 1.429 . S
C2043 H2065 0.950 . S
C2044 H2040 0.949 . S
C2044 C2052 1.574 . S
C2044 C2060 1.368 . S
H2045 C2053 0.950 . S
H2046 C2051 0.950 . S
H2047 C2052 0.949 . S
H2048 C2054 0.950 . S
H2049 C2055 0.950 . S
H2050 C2056 0.949 . S
C2051 H2046 0.950 . S
C2051 C2053 1.327 . S
C2051 C2057 1.429 . S
C2052 C2044 1.574 . S
C2052 H2047 0.949 . S
C2052 C2058 1.368 . S
C2053 C2037 1.349 . S
C2053 H2045 0.950 . S
C2053 C2051 1.327 . S
C2054 C2042 1.349 . S
C2054 H2048 0.950 . S
C2054 C2055 1.327 . S
C2055 H2049 0.950 . S
C2055 C2054 1.327 . S
C2055 C2059 1.429 . S
C2056 C2039 1.574 . S
C2056 H2050 0.949 . S
C2056 C2060 1.368 . S
C2057 C2038 1.429 . S
C2057 C2051 1.429 . S
C2057 C2058 1.523 . S
C2058 C2039 1.368 . S
C2058 C2052 1.368 . S
C2058 C2057 1.523 . S
C2059 C2043 1.429 . S
C2059 C2055 1.429 . S
C2059 C2060 1.523 . S
C2060 C2044 1.368 . S
C2060 C2056 1.368 . S
C2060 C2059 1.523 . S
H2061 C2036 0.950 . S
H2062 C2038 0.950 . S
H2063 C2039 0.949 . S
H2064 C2041 0.950 . S
H2065 C2043 0.950 . S
C2066 C2067 1.349 . S
C2066 C2068 1.327 . S
C2066 H2091 0.950 . S
C2067 C2066 1.349 . S
C2067 C2083 1.349 . S
C2068 C2066 1.327 . S
C2068 C2087 1.429 . S
C2068 H2092 0.950 . S
C2069 C2086 1.574 . S
C2069 C2088 1.368 . S
C2069 H2093 0.949 . S
H2070 C2074 0.949 . S
C2071 C2072 1.349 . S
C2071 C2073 1.327 . S
C2071 H2094 0.950 . S
C2072 C2071 1.349 . S
C2072 C2084 1.349 . S
C2073 C2071 1.327 . S
C2073 C2089 1.429 . S
C2073 H2095 0.950 . S
C2074 H2070 0.949 . S
C2074 C2082 1.574 . S
C2074 C2090 1.368 . S
H2075 C2083 0.950 . S
H2076 C2081 0.950 . S
H2077 C2082 0.949 . S
H2078 C2084 0.950 . S
H2079 C2085 0.950 . S
H2080 C2086 0.949 . S
C2081 H2076 0.950 . S
C2081 C2083 1.327 . S
C2081 C2087 1.429 . S
C2082 C2074 1.574 . S
C2082 H2077 0.949 . S
C2082 C2088 1.368 . S
C2083 C2067 1.349 . S
C2083 H2075 0.950 . S
C2083 C2081 1.327 . S
C2084 C2072 1.349 . S
C2084 H2078 0.950 . S
C2084 C2085 1.327 . S
C2085 H2079 0.950 . S
C2085 C2084 1.327 . S
C2085 C2089 1.429 . S
C2086 C2069 1.574 . S
C2086 H2080 0.949 . S
C2086 C2090 1.368 . S
C2087 C2068 1.429 . S
C2087 C2081 1.429 . S
C2087 C2088 1.523 . S
C2088 C2069 1.368 . S
C2088 C2082 1.368 . S
C2088 C2087 1.523 . S
C2089 C2073 1.429 . S
C2089 C2085 1.429 . S
C2089 C2090 1.523 . S
C2090 C2074 1.368 . S
C2090 C2086 1.368 . S
C2090 C2089 1.523 . S
H2091 C2066 0.950 . S
H2092 C2068 0.950 . S
H2093 C2069 0.949 . S
H2094 C2071 0.950 . S
H2095 C2073 0.950 . S
C2096 C2097 1.349 . S
C2096 C2098 1.327 . S
C2096 H2121 0.950 . S
C2097 C2096 1.349 . S
C2097 C2113 1.349 . S
C2098 C2096 1.327 . S
C2098 C2117 1.429 . S
C2098 H2122 0.950 . S
C2099 C2116 1.574 . S
C2099 C2118 1.368 . S
C2099 H2123 0.949 . S
H2100 C2104 0.949 . S
C2101 C2102 1.349 . S
C2101 C2103 1.327 . S
C2101 H2124 0.950 . S
C2102 C2101 1.349 . S
C2102 C2114 1.349 . S
C2103 C2101 1.327 . S
C2103 C2119 1.429 . S
C2103 H2125 0.950 . S
C2104 H2100 0.949 . S
C2104 C2112 1.574 . S
C2104 C2120 1.368 . S
H2105 C2113 0.950 . S
H2106 C2111 0.950 . S
H2107 C2112 0.949 . S
H2108 C2114 0.950 . S
H2109 C2115 0.950 . S
H2110 C2116 0.949 . S
C2111 H2106 0.950 . S
C2111 C2113 1.327 . S
C2111 C2117 1.429 . S
C2112 C2104 1.574 . S
C2112 H2107 0.949 . S
C2112 C2118 1.368 . S
C2113 C2097 1.349 . S
C2113 H2105 0.950 . S
C2113 C2111 1.327 . S
C2114 C2102 1.349 . S
C2114 H2108 0.950 . S
C2114 C2115 1.327 . S
C2115 H2109 0.950 . S
C2115 C2114 1.327 . S
C2115 C2119 1.429 . S
C2116 C2099 1.574 . S
C2116 H2110 0.949 . S
C2116 C2120 1.368 . S
C2117 C2098 1.429 . S
C2117 C2111 1.429 . S
C2117 C2118 1.523 . S
C2118 C2099 1.368 . S
C2118 C2112 1.368 . S
C2118 C2117 1.523 . S
C2119 C2103 1.429 . S
C2119 C2115 1.429 . S
C2119 C2120 1.523 . S
C2120 C2104 1.368 . S
C2120 C2116 1.368 . S
C2120 C2119 1.523 . S
H2121 C2096 0.950 . S
H2122 C2098 0.950 . S
H2123 C2099 0.949 . S
H2124 C2101 0.950 . S
H2125 C2103 0.950 . S
C2126 C2127 1.349 . S
C2126 C2128 1.327 . S
C2126 H2151 0.950 . S
C2127 C2126 1.349 . S
C2127 C2143 1.349 . S
C2128 C2126 1.327 . S
C2128 C2147 1.429 . S
C2128 H2152 0.950 . S
C2129 C2146 1.574 . S
C2129 C2148 1.368 . S
C2129 H2153 0.949 . S
H2130 C2134 0.949 . S
C2131 C2132 1.349 . S
C2131 C2133 1.327 . S
C2131 H2154 0.950 . S
C2132 C2131 1.349 . S
C2132 C2144 1.349 . S
C2133 C2131 1.327 . S
C2133 C2149 1.429 . S
C2133 H2155 0.950 . S
C2134 H2130 0.949 . S
C2134 C2142 1.574 . S
C2134 C2150 1.368 . S
H2135 C2143 0.950 . S
H2136 C2141 0.950 . S
H2137 C2142 0.949 . S
H2138 C2144 0.950 . S
H2139 C2145 0.950 . S
H2140 C2146 0.949 . S
C2141 H2136 0.950 . S
C2141 C2143 1.327 . S
C2141 C2147 1.429 . S
C2142 C2134 1.574 . S
C2142 H2137 0.949 . S
C2142 C2148 1.368 . S
C2143 C2127 1.349 . S
C2143 H2135 0.950 . S
C2143 C2141 1.327 . S
C2144 C2132 1.349 . S
C2144 H2138 0.950 . S
C2144 C2145 1.327 . S
C2145 H2139 0.950 . S
C2145 C2144 1.327 . S
C2145 C2149 1.429 . S
C2146 C2129 1.574 . S
C2146 H2140 0.949 . S
C2146 C2150 1.368 . S
C2147 C2128 1.429 . S
C2147 C2141 1.429 . S
C2147 C2148 1.523 . S
C2148 C2129 1.368 . S
C2148 C2142 1.368 . S
C2148 C2147 1.523 . S
C2149 C2133 1.429 . S
C2149 C2145 1.429 . S
C2149 C2150 1.523 . S
C2150 C2134 1.368 . S
C2150 C2146 1.368 . S
C2150 C2149 1.523 . S
H2151 C2126 0.950 . S
H2152 C2128 0.950 . S
H2153 C2129 0.949 . S
H2154 C2131 0.950 . S
H2155 C2133 0.950 . S
C2156 C2157 1.349 . S
C2156 C2158 1.327 . S
C2156 H2181 0.950 . S
C2157 C2156 1.349 . S
C2157 C2173 1.349 . S
C2158 C2156 1.327 . S
C2158 C2177 1.429 . S
C2158 H2182 0.950 . S
C2159 C2176 1.574 . S
C2159 C2178 1.368 . S
C2159 H2183 0.949 . S
H2160 C2164 0.949 . S
C2161 C2162 1.349 . S
C2161 C2163 1.327 . S
C2161 H2184 0.950 . S
C2162 C2161 1.349 . S
C2162 C2174 1.349 . S
C2163 C2161 1.327 . S
C2163 C2179 1.429 . S
C2163 H2185 0.950 . S
C2164 H2160 0.949 . S
C2164 C2172 1.574 . S
C2164 C2180 1.368 . S
H2165 C2173 0.950 . S
H2166 C2171 0.950 . S
H2167 C2172 0.949 . S
H2168 C2174 0.950 . S
H2169 C2175 0.950 . S
H2170 C2176 0.949 . S
C2171 H2166 0.950 . S
C2171 C2173 1.327 . S
C2171 C2177 1.429 . S
C2172 C2164 1.574 . S
C2172 H2167 0.949 . S
C2172 C2178 1.368 . S
C2173 C2157 1.349 . S
C2173 H2165 0.950 . S
C2173 C2171 1.327 . S
C2174 C2162 1.349 . S
C2174 H2168 0.950 . S
C2174 C2175 1.327 . S
C2175 H2169 0.950 . S
C2175 C2174 1.327 . S
C2175 C2179 1.429 . S
C2176 C2159 1.574 . S
C2176 H2170 0.949 . S
C2176 C2180 1.368 . S
C2177 C2158 1.429 . S
C2177 C2171 1.429 . S
C2177 C2178 1.523 . S
C2178 C2159 1.368 . S
C2178 C2172 1.368 . S
C2178 C2177 1.523 . S
C2179 C2163 1.429 . S
C2179 C2175 1.429 . S
C2179 C2180 1.523 . S
C2180 C2164 1.368 . S
C2180 C2176 1.368 . S
C2180 C2179 1.523 . S
H2181 C2156 0.950 . S
H2182 C2158 0.950 . S
H2183 C2159 0.949 . S
H2184 C2161 0.950 . S
H2185 C2163 0.950 . S
C2186 C2187 1.349 . S
C2186 C2188 1.327 . S
C2186 H2211 0.950 . S
C2187 C2186 1.349 . S
C2187 C2203 1.349 . S
C2188 C2186 1.327 . S
C2188 C2207 1.429 1_655 S
C2188 H2212 0.950 1_655 S
C2189 C2206 1.574 . S
C2189 C2208 1.368 . S
C2189 H2213 0.949 . S
H2190 C2194 0.949 . S
C2191 C2192 1.349 . S
C2191 C2193 1.327 . S
C2191 H2214 0.950 . S
C2192 C2191 1.349 . S
C2192 C2204 1.349 . S
C2193 C2191 1.327 . S
C2193 C2209 1.429 . S
C2193 H2215 0.950 . S
C2194 H2190 0.949 . S
C2194 C2202 1.574 . S
C2194 C2210 1.368 . S
H2195 C2203 0.950 . S
H2196 C2201 0.936 1_455 S
H2197 C2202 0.949 . S
H2198 C2204 0.950 . S
H2199 C2205 0.950 . S
H2200 C2206 0.949 . S
C2201 H2196 0.936 1_655 S
C2201 C2203 1.327 . S
C2201 C2207 1.429 1_655 S
C2202 C2194 1.574 . S
C2202 H2197 0.949 . S
C2202 C2208 1.368 . S
C2203 C2187 1.349 . S
C2203 H2195 0.950 . S
C2203 C2201 1.327 . S
C2204 C2192 1.349 . S
C2204 H2198 0.950 . S
C2204 C2205 1.327 . S
C2205 H2199 0.950 . S
C2205 C2204 1.327 . S
C2205 C2209 1.429 . S
C2206 C2189 1.574 . S
C2206 H2200 0.949 . S
C2206 C2210 1.368 . S
C2207 C2188 1.429 1_455 S
C2207 C2201 1.429 1_455 S
C2207 C2208 1.523 . S
C2208 C2189 1.368 . S
C2208 C2202 1.368 . S
C2208 C2207 1.523 . S
C2209 C2193 1.429 . S
C2209 C2205 1.429 . S
C2209 C2210 1.523 . S
C2210 C2194 1.368 . S
C2210 C2206 1.368 . S
C2210 C2209 1.523 . S
H2211 C2186 0.950 . S
H2212 C2188 0.950 1_455 S
H2213 C2189 0.949 . S
H2214 C2191 0.950 . S
H2215 C2193 0.950 . S
C2216 C2217 1.349 . S
C2216 C2218 1.327 . S
C2216 H2241 0.950 . S
C2217 C2216 1.349 . S
C2217 C2233 1.349 . S
C2218 C2216 1.327 . S
C2218 C2237 1.429 . S
C2218 H2242 0.950 . S
C2219 C2236 1.574 . S
C2219 C2238 1.368 . S
C2219 H2243 0.949 . S
H2220 C2224 0.949 . S
C2221 C2222 1.349 . S
C2221 C2223 1.327 . S
C2221 H2244 0.950 . S
C2222 C2221 1.349 . S
C2222 C2234 1.349 . S
C2223 C2221 1.327 . S
C2223 C2239 1.429 . S
C2223 H2245 0.950 . S
C2224 H2220 0.949 . S
C2224 C2232 1.574 . S
C2224 C2240 1.368 . S
H2225 C2233 0.950 . S
H2226 C2231 0.950 . S
H2227 C2232 0.949 . S
H2228 C2234 0.950 . S
H2229 C2235 0.950 . S
H2230 C2236 0.949 . S
C2231 H2226 0.950 . S
C2231 C2233 1.327 . S
C2231 C2237 1.429 . S
C2232 C2224 1.574 . S
C2232 H2227 0.949 . S
C2232 C2238 1.368 . S
C2233 C2217 1.349 . S
C2233 H2225 0.950 . S
C2233 C2231 1.327 . S
C2234 C2222 1.349 . S
C2234 H2228 0.950 . S
C2234 C2235 1.327 . S
C2235 H2229 0.950 . S
C2235 C2234 1.327 . S
C2235 C2239 1.429 . S
C2236 C2219 1.574 . S
C2236 H2230 0.949 . S
C2236 C2240 1.368 . S
C2237 C2218 1.429 . S
C2237 C2231 1.429 . S
C2237 C2238 1.523 . S
C2238 C2219 1.368 . S
C2238 C2232 1.368 . S
C2238 C2237 1.523 . S
C2239 C2223 1.429 . S
C2239 C2235 1.429 . S
C2239 C2240 1.523 . S
C2240 C2224 1.368 . S
C2240 C2236 1.368 . S
C2240 C2239 1.523 . S
H2241 C2216 0.950 . S
H2242 C2218 0.950 . S
H2243 C2219 0.949 . S
H2244 C2221 0.950 . S
H2245 C2223 0.950 . S
C2246 C2247 1.349 . S
C2246 C2248 1.327 . S
C2246 H2271 0.950 . S
C2247 C2246 1.349 . S
C2247 C2263 1.349 . S
C2248 C2246 1.327 . S
C2248 C2267 1.429 . S
C2248 H2272 0.950 . S
C2249 C2266 1.574 . S
C2249 C2268 1.368 . S
C2249 H2273 0.949 . S
H2250 C2254 0.949 . S
C2251 C2252 1.349 . S
C2251 C2253 1.327 1_655 S
C2251 H2274 0.950 . S
C2252 C2251 1.349 . S
C2252 C2264 1.349 . S
C2253 C2251 1.327 1_455 S
C2253 C2269 1.429 . S
C2253 H2275 0.950 . S
C2254 H2250 0.949 . S
C2254 C2262 1.574 . S
C2254 C2270 1.368 . S
H2255 C2263 0.950 . S
H2256 C2261 0.950 . S
H2257 C2262 0.949 . S
H2258 C2264 0.950 . S
H2259 C2265 0.950 . S
H2260 C2266 0.949 . S
C2261 H2256 0.950 . S
C2261 C2263 1.327 . S
C2261 C2267 1.429 . S
C2262 C2254 1.574 . S
C2262 H2257 0.949 . S
C2262 C2268 1.368 . S
C2263 C2247 1.349 . S
C2263 H2255 0.950 . S
C2263 C2261 1.327 . S
C2264 C2252 1.349 . S
C2264 H2258 0.950 . S
C2264 C2265 1.327 . S
C2265 H2259 0.950 . S
C2265 C2264 1.327 . S
C2265 C2269 1.429 1_655 S
C2266 C2249 1.574 . S
C2266 H2260 0.949 . S
C2266 C2270 1.368 . S
C2267 C2248 1.429 . S
C2267 C2261 1.429 . S
C2267 C2268 1.523 . S
C2268 C2249 1.368 . S
C2268 C2262 1.368 . S
C2268 C2267 1.523 . S
C2269 C2253 1.429 . S
C2269 C2265 1.429 1_455 S
C2269 C2270 1.523 . S
C2270 C2254 1.368 . S
C2270 C2266 1.368 . S
C2270 C2269 1.523 . S
H2271 C2246 0.950 . S
H2272 C2248 0.950 . S
H2273 C2249 0.949 . S
H2274 C2251 0.950 . S
H2275 C2253 0.950 . S
C2276 C2277 1.349 . S
C2276 C2278 1.327 . S
C2276 H2301 0.950 . S
C2277 C2276 1.349 . S
C2277 C2293 1.349 . S
C2278 C2276 1.327 . S
C2278 C2297 1.429 . S
C2278 H2302 0.950 . S
C2279 C2296 1.574 . S
C2279 C2298 1.368 . S
C2279 H2303 0.949 . S
H2280 C2284 0.949 . S
C2281 C2282 1.349 . S
C2281 C2283 1.327 . S
C2281 H2304 0.950 . S
C2282 C2281 1.349 . S
C2282 C2294 1.349 . S
C2283 C2281 1.327 . S
C2283 C2299 1.429 . S
C2283 H2305 0.950 . S
C2284 H2280 0.949 . S
C2284 C2292 1.574 . S
C2284 C2300 1.368 . S
H2285 C2293 0.950 . S
H2286 C2291 0.950 . S
H2287 C2292 0.949 . S
H2288 C2294 0.950 . S
H2289 C2295 0.950 . S
H2290 C2296 0.949 . S
C2291 H2286 0.950 . S
C2291 C2293 1.327 . S
C2291 C2297 1.429 . S
C2292 C2284 1.574 . S
C2292 H2287 0.949 . S
C2292 C2298 1.368 . S
C2293 C2277 1.349 . S
C2293 H2285 0.950 . S
C2293 C2291 1.327 . S
C2294 C2282 1.349 . S
C2294 H2288 0.950 . S
C2294 C2295 1.327 . S
C2295 H2289 0.950 . S
C2295 C2294 1.327 . S
C2295 C2299 1.429 . S
C2296 C2279 1.574 . S
C2296 H2290 0.949 . S
C2296 C2300 1.368 . S
C2297 C2278 1.429 . S
C2297 C2291 1.429 . S
C2297 C2298 1.523 . S
C2298 C2279 1.368 . S
C2298 C2292 1.368 . S
C2298 C2297 1.523 . S
C2299 C2283 1.429 . S
C2299 C2295 1.429 . S
C2299 C2300 1.523 . S
C2300 C2284 1.368 . S
C2300 C2296 1.368 . S
C2300 C2299 1.523 . S
H2301 C2276 0.950 . S
H2302 C2278 0.950 . S
H2303 C2279 0.949 . S
H2304 C2281 0.950 . S
H2305 C2283 0.950 . S
C2306 C2307 1.349 . S
C2306 C2308 1.327 . S
C2306 H2331 0.950 . S
C2307 C2306 1.349 . S
C2307 C2323 1.349 . S
C2308 C2306 1.327 . S
C2308 C2327 1.429 . S
C2308 H2332 0.950 . S
C2309 C2326 1.574 . S
C2309 C2328 1.368 . S
C2309 H2333 0.949 . S
H2310 C2314 0.949 . S
C2311 C2312 1.349 . S
C2311 C2313 1.327 . S
C2311 H2334 0.950 . S
C2312 C2311 1.349 . S
C2312 C2324 1.349 . S
C2313 C2311 1.327 . S
C2313 C2329 1.429 . S
C2313 H2335 0.950 . S
C2314 H2310 0.949 . S
C2314 C2322 1.574 . S
C2314 C2330 1.368 . S
H2315 C2323 0.950 . S
H2316 C2321 0.950 . S
H2317 C2322 0.949 . S
H2318 C2324 0.950 . S
H2319 C2325 0.950 . S
H2320 C2326 0.949 . S
C2321 H2316 0.950 . S
C2321 C2323 1.327 . S
C2321 C2327 1.429 . S
C2322 C2314 1.574 . S
C2322 H2317 0.949 . S
C2322 C2328 1.368 . S
C2323 C2307 1.349 . S
C2323 H2315 0.950 . S
C2323 C2321 1.327 . S
C2324 C2312 1.349 . S
C2324 H2318 0.950 . S
C2324 C2325 1.327 . S
C2325 H2319 0.950 . S
C2325 C2324 1.327 . S
C2325 C2329 1.429 . S
C2326 C2309 1.574 . S
C2326 H2320 0.949 . S
C2326 C2330 1.368 . S
C2327 C2308 1.429 . S
C2327 C2321 1.429 . S
C2327 C2328 1.523 . S
C2328 C2309 1.368 . S
C2328 C2322 1.368 . S
C2328 C2327 1.523 . S
C2329 C2313 1.429 . S
C2329 C2325 1.429 . S
C2329 C2330 1.523 . S
C2330 C2314 1.368 . S
C2330 C2326 1.368 . S
C2330 C2329 1.523 . S
H2331 C2306 0.950 . S
H2332 C2308 0.950 . S
H2333 C2309 0.949 . S
H2334 C2311 0.950 . S
H2335 C2313 0.950 . S
C417 C52 1.453 . S
C422 C0 1.453 . S
C447 C65 1.453 . S
C452 C13 1.453 . S
C477 C78 1.453 . S
C482 C26 1.453 . S
C507 C39 1.453 . S
C512 C91 1.453 . S
C537 C104 1.453 . S
C542 C156 1.453 . S
C567 C169 1.453 . S
C572 C117 1.453 . S
C597 C130 1.453 . S
C602 C182 1.453 . S
C627 C195 1.453 . S
C632 C143 1.453 . S
C657 C208 1.453 . S
C662 C260 1.453 . S
C687 C273 1.453 . S
C692 C221 1.453 . S
C717 C286 1.453 . S
C722 C234 1.453 . S
C747 C299 1.453 . S
C752 C247 1.453 . S
C777 C312 1.453 . S
C782 C364 1.453 . S
C807 C325 1.453 . S
C812 C377 1.453 . S
C837 C338 1.453 . S
C842 C390 1.453 . S
C867 C351 1.453 . S
C872 C403 1.453 . S
C897 C8 0.684 . S
C902 C99 0.684 . S
C927 C21 0.685 . S
C932 C60 0.685 . S
C957 C34 0.685 . S
C962 C73 0.685 . S
C987 C86 0.685 . S
C992 C47 0.685 . S
C1017 C203 0.684 . S
C1022 C112 0.684 . S
C1047 C164 0.685 . S
C1052 C125 0.685 . S
C1077 C177 0.685 . S
C1082 C138 0.685 . S
C1107 C151 0.685 . S
C1112 C190 0.685 . S
C1137 C307 0.684 . S
C1142 C216 0.684 . S
C1167 C268 0.685 . S
C1172 C229 0.685 . S
C1197 C281 0.685 . S
C1202 C242 0.685 . S
C1227 C255 0.685 . S
C1232 C294 0.685 . S
C1257 C320 0.684 . S
C1262 C411 0.684 . S
C1287 C333 0.685 . S
C1292 C372 0.685 . S
C1317 C346 0.685 . S
C1322 C385 0.685 . S
C1347 C398 0.685 . S
C1352 C359 0.685 . S
C1377 C5 1.369 . S
C1382 C335 1.404 . S
C1407 C18 1.369 . S
C1412 C140 1.404 . S
C1437 C31 1.369 . S
C1442 C361 1.404 . S
C1467 C114 1.404 . S
C1472 C44 1.369 . S
C1497 C413 1.404 . S
C1502 C57 1.369 . S
C1527 C70 1.369 . S
C1532 C166 1.404 . S
C1557 C83 1.369 . S
C1562 C387 1.404 . S
C1587 C96 1.369 . S
C1592 C192 1.404 . S
C1617 C231 1.404 . S
C1622 C109 1.369 . S
C1647 C36 1.404 . S
C1652 C122 1.369 . S
C1677 C257 1.404 . S
C1682 C135 1.369 . S
C1707 C148 1.369 . S
C1712 C10 1.404 . S
C1737 C309 1.404 . S
C1742 C161 1.369 . S
C1767 C62 1.404 . S
C1772 C174 1.369 . S
C1797 C283 1.404 . S
C1802 C187 1.369 . S
C1827 C88 1.404 . S
C1832 C200 1.369 . S
C1857 C127 1.404 . S
C1862 C213 1.369 . S
C1887 C226 1.369 . S
C1892 C348 1.404 . S
C1917 C239 1.369 . S
C1922 C153 1.404 . S
C1947 C252 1.369 . S
C1952 C322 1.404 . S
C1977 C265 1.369 . S
C1982 C205 1.404 . S
C2007 C374 1.404 . S
C2012 C278 1.369 . S
C2037 C291 1.369 . S
C2042 C179 1.404 . S
C2067 C304 1.369 . S
C2072 C400 1.404 . S
C2097 C317 1.369 . S
C2102 C23 1.404 . S
C2127 C330 1.369 . S
C2132 C244 1.404 . S
C2157 C49 1.404 . S
C2162 C343 1.369 . S
C2187 C218 1.404 . S
C2192 C356 1.369 . S
C2217 C369 1.369 . S
C2222 C101 1.404 . S
C2247 C382 1.369 . S
C2252 C270 1.404 . S
C2277 C75 1.404 . S
C2282 C395 1.369 . S
C2307 C296 1.404 . S
C2312 C408 1.369 . S
