# Generated by pormake.
# Topology dft, (4)-cn, num edge types: 1
# Building blocks:
#     Node 0, Type 0, BuildingBlock: KUFVIS_clean_sbu_0, # of connection points: 4
#     Node 1, Type 0, BuildingBlock: KUFVIS_clean_sbu_0, # of connection points: 4
#     Node 2, Type 0, BuildingBlock: KUFVIS_clean_sbu_0, # of connection points: 4
#     Node 3, Type 0, BuildingBlock: KUFVIS_clean_sbu_0, # of connection points: 4
#     Node 4, Type 0, BuildingBlock: KUFVIS_clean_sbu_0, # of connection points: 4
#     Node 5, Type 0, BuildingBlock: KUFVIS_clean_sbu_0, # of connection points: 4
#     Node 6, Type 0, BuildingBlock: KUFVIS_clean_sbu_0, # of connection points: 4
#     Node 7, Type 0, BuildingBlock: KUFVIS_clean_sbu_0, # of connection points: 4
#     Edge 8, Type (0, 0), BuildingBlock: UVAHIK_clean_linker_0, # of connection points: 2
#     Edge 9, Type (0, 0), BuildingBlock: UVAHIK_clean_linker_0, # of connection points: 2
#     Edge 10, Type (0, 0), BuildingBlock: UVAHIK_clean_linker_0, # of connection points: 2
#     Edge 11, Type (0, 0), BuildingBlock: UVAHIK_clean_linker_0, # of connection points: 2
#     Edge 12, Type (0, 0), BuildingBlock: UVAHIK_clean_linker_0, # of connection points: 2
#     Edge 13, Type (0, 0), BuildingBlock: UVAHIK_clean_linker_0, # of connection points: 2
#     Edge 14, Type (0, 0), BuildingBlock: UVAHIK_clean_linker_0, # of connection points: 2
#     Edge 15, Type (0, 0), BuildingBlock: UVAHIK_clean_linker_0, # of connection points: 2
#     Edge 16, Type (0, 0), BuildingBlock: UVAHIK_clean_linker_0, # of connection points: 2
#     Edge 17, Type (0, 0), BuildingBlock: UVAHIK_clean_linker_0, # of connection points: 2
#     Edge 18, Type (0, 0), BuildingBlock: UVAHIK_clean_linker_0, # of connection points: 2
#     Edge 19, Type (0, 0), BuildingBlock: UVAHIK_clean_linker_0, # of connection points: 2
#     Edge 20, Type (0, 0), BuildingBlock: UVAHIK_clean_linker_0, # of connection points: 2
#     Edge 21, Type (0, 0), BuildingBlock: UVAHIK_clean_linker_0, # of connection points: 2
#     Edge 22, Type (0, 0), BuildingBlock: UVAHIK_clean_linker_0, # of connection points: 2
#     Edge 23, Type (0, 0), BuildingBlock: UVAHIK_clean_linker_0, # of connection points: 2
# Relax obj value: 0.171
# Max RMSD: 0.159
# Mean RMSD: 0.159
data_MOF--net-dft--node1-KUFVIS_clean_sbu_0--edge1-UVAHIK_clean_linker_0
_symmetry_space_group_name_H-M    P1
_symmetry_Int_Tables_number       1
_symmetry_cell_setting            triclinic
loop_
_symmetry_equiv_pos_as_xyz
'x, y, z'
_cell_length_a     44.0473
_cell_length_b     44.004869
_cell_length_c     52.578828
_cell_angle_alpha  90.019151
_cell_angle_beta   89.928195
_cell_angle_gamma 89.963912
loop_
_atom_site_label
_atom_site_type_symbol
_atom_site_fract_x
_atom_site_fract_y
_atom_site_fract_z
_atom_type_partial_charge
Mn0 Mn 0.32112 0.05004 0.18467 0.0
Mn1 Mn 0.33757 0.12165 0.16628 0.0
C2 C 0.30889 0.0913 0.21008 0.0
C3 C 0.28828 0.00876 0.18829 0.0
C4 C 0.38491 0.07749 0.18561 0.0
O5 O 0.3275 0.04515 0.14633 0.0
O6 O 0.33683 0.09425 0.13643 0.0
C7 C 0.28173 0.13401 0.1367 0.0
N8 N 0.30092 0.14143 0.15602 0.0
C9 C 0.27028 0.18465 0.16743 0.0
C10 C 0.25033 0.1776 0.14754 0.0
C11 C 0.25603 0.15211 0.13216 0.0
C12 C 0.2955 0.16576 0.17106 0.0
H13 H 0.28594 0.11439 0.12489 0.0
C14 C 0.3331 0.06632 0.13026 0.0
O15 O 0.31747 0.00543 0.19028 0.0
O16 O 0.2784 0.03566 0.18247 0.0
N17 N 0.33825 0.15036 0.19363 0.0
C18 C 0.3588 0.1531 0.21284 0.0
C19 C 0.3559 0.17707 0.23032 0.0
C20 C 0.33207 0.19808 0.22776 0.0
C21 C 0.31131 0.1949 0.20774 0.0
C22 C 0.31537 0.17059 0.19089 0.0
H23 H 0.37721 0.13706 0.21484 0.0
O24 O 0.31241 0.06465 0.2202 0.0
O25 O 0.3135 0.09287 0.18583 0.0
O26 O 0.36663 0.05559 0.1896 0.0
O27 O 0.37656 0.10332 0.17701 0.0
C28 C 0.28657 0.21471 0.204 0.0
C29 C 0.26594 0.20945 0.18399 0.0
H30 H 0.23044 0.19146 0.14401 0.0
H31 H 0.24064 0.14641 0.11686 0.0
H32 H 0.372 0.17935 0.24574 0.0
H33 H 0.32983 0.21646 0.24135 0.0
H34 H 0.28304 0.23392 0.21654 0.0
H35 H 0.24672 0.22454 0.18159 0.0
Mn36 Mn 0.04091 0.32099 0.68898 0.0
Mn37 Mn 0.97417 0.33978 0.66158 0.0
C38 C 0.99523 0.30617 0.70665 0.0
C39 C 0.08128 0.28789 0.69641 0.0
C40 C 0.01191 0.38439 0.69146 0.0
O41 O 0.05382 0.33075 0.65262 0.0
O42 O 0.00792 0.3443 0.63688 0.0
C43 C 0.9711 0.28895 0.62473 0.0
N44 N 0.95869 0.30471 0.64448 0.0
C45 C 0.91549 0.27128 0.64577 0.0
C46 C 0.92774 0.2548 0.62536 0.0
C47 C 0.9557 0.26366 0.61483 0.0
C48 C 0.93184 0.29633 0.6548 0.0
H49 H 0.99262 0.29558 0.61661 0.0
C50 C 0.03663 0.34029 0.63474 0.0
O51 O 0.0836 0.3168 0.70094 0.0
O52 O 0.0562 0.27858 0.6861 0.0
N53 N 0.9397 0.33577 0.68355 0.0
C54 C 0.93162 0.35327 0.70384 0.0
C55 C 0.90443 0.34707 0.71682 0.0
C56 C 0.88578 0.32306 0.70873 0.0
C57 C 0.89445 0.30551 0.68767 0.0
C58 C 0.92169 0.3129 0.67538 0.0
H59 H 0.94591 0.3717 0.71017 0.0
O60 O 0.01907 0.3089 0.72094 0.0
O61 O -0.00127 0.31322 0.68294 0.0
O62 O 0.03368 0.36612 0.69609 0.0
O63 O 0.98807 0.37682 0.67921 0.0
C64 C 0.87734 0.28074 0.6786 0.0
C65 C 0.88792 0.26355 0.65774 0.0
H66 H 0.91599 0.2352 0.61774 0.0
H67 H 0.96537 0.25098 0.59915 0.0
H68 H 0.89792 0.36069 0.73307 0.0
H69 H 0.86496 0.31818 0.71892 0.0
H70 H 0.85615 0.27452 0.68767 0.0
H71 H 0.87476 0.24431 0.65117 0.0
Mn72 Mn 0.76833 0.03839 0.18574 0.0
Mn73 Mn 0.74983 0.96659 0.16956 0.0
C74 C 0.78022 0.99775 0.21204 0.0
C75 C 0.80214 0.07902 0.18769 0.0
C76 C 0.70383 0.01309 0.1876 0.0
O77 O 0.76125 0.04174 0.14731 0.0
O78 O 0.75212 0.99219 0.13872 0.0
C79 C 0.80583 0.95053 0.14133 0.0
N80 N 0.78585 0.94483 0.16053 0.0
C81 C 0.81412 0.90075 0.17367 0.0
C82 C 0.83482 0.90596 0.15387 0.0
C83 C 0.83074 0.93106 0.13772 0.0
C84 C 0.78984 0.92104 0.17643 0.0
H85 H 0.80287 0.96987 0.12896 0.0
C86 C 0.75597 0.01986 0.13181 0.0
O87 O 0.77307 0.08306 0.19001 0.0
O88 O 0.81134 0.05169 0.18246 0.0
N89 N 0.74761 0.93965 0.19806 0.0
C90 C 0.72677 0.93899 0.21722 0.0
C91 C 0.72819 0.91576 0.2355 0.0
C92 C 0.7508 0.89332 0.23373 0.0
C93 C 0.77192 0.89444 0.21378 0.0
C94 C 0.76946 0.91817 0.19619 0.0
H95 H 0.7092 0.95604 0.21854 0.0
O96 O 0.7776 0.02485 0.22153 0.0
O97 O 0.77479 0.99552 0.18799 0.0
O98 O 0.72288 0.03427 0.19162 0.0
O99 O 0.71132 0.98693 0.17909 0.0
C100 C 0.79546 0.87305 0.21076 0.0
C101 C 0.81676 0.8764 0.19091 0.0
H102 H 0.85405 0.89098 0.15102 0.0
H103 H 0.84675 0.93537 0.12252 0.0
H104 H 0.71183 0.91509 0.25086 0.0
H105 H 0.75184 0.87546 0.24788 0.0
H106 H 0.79757 0.85411 0.22378 0.0
H107 H 0.83516 0.86018 0.18915 0.0
Mn108 Mn 0.03279 0.76387 0.68159 0.0
Mn109 Mn 0.10477 0.74349 0.66713 0.0
C110 C 0.07344 0.78253 0.70446 0.0
C111 C 0.9909 0.79619 0.68059 0.0
C112 C 0.06076 0.70167 0.69373 0.0
O113 O 0.0286 0.74922 0.64483 0.0
O114 O 0.07756 0.73584 0.63789 0.0
C115 C 0.11742 0.78956 0.62746 0.0
N116 N 0.12455 0.77638 0.65012 0.0
C117 C 0.16778 0.80923 0.65535 0.0
C118 C 0.16095 0.82306 0.63203 0.0
C119 C 0.13563 0.81321 0.61806 0.0
C120 C 0.14887 0.78568 0.66372 0.0
H121 H 0.09797 0.7821 0.61666 0.0
C122 C 0.04986 0.73854 0.63074 0.0
O123 O 0.98822 0.76772 0.68659 0.0
O124 O 0.01749 0.80526 0.67306 0.0
N125 N 0.13319 0.75047 0.69401 0.0
C126 C 0.13549 0.73609 0.71687 0.0
C127 C 0.15905 0.74403 0.73357 0.0
C128 C 0.18008 0.76651 0.72654 0.0
C129 C 0.17734 0.78087 0.70285 0.0
C130 C 0.15348 0.77191 0.68695 0.0
H131 H 0.11936 0.71882 0.72237 0.0
O132 O 0.04691 0.78059 0.7151 0.0
O133 O 0.07553 0.77218 0.68149 0.0
O134 O 0.03858 0.72021 0.69363 0.0
O135 O 0.08689 0.70819 0.68479 0.0
C136 C 0.19701 0.80412 0.69459 0.0
C137 C 0.1922 0.81832 0.67088 0.0
H138 H 0.17484 0.84143 0.62477 0.0
H139 H 0.13014 0.82386 0.60009 0.0
H140 H 0.16096 0.73291 0.75185 0.0
H141 H 0.19807 0.77275 0.73955 0.0
H142 H 0.21561 0.81159 0.70651 0.0
H143 H 0.20717 0.83651 0.66493 0.0
Mn144 Mn 0.31804 0.03149 0.80825 0.0
Mn145 Mn 0.34214 0.96069 0.8227 0.0
C146 C 0.30326 0.99021 0.78405 0.0
C147 C 0.28375 0.07178 0.80947 0.0
C148 C 0.38256 0.00841 0.79897 0.0
O149 O 0.33049 0.03555 0.84551 0.0
O150 O 0.34448 0.98695 0.85329 0.0
C151 C 0.29418 0.94181 0.8589 0.0
N152 N 0.30975 0.93724 0.83683 0.0
C153 C 0.28187 0.89138 0.82819 0.0
C154 C 0.26559 0.89556 0.85086 0.0
C155 C 0.27173 0.92092 0.86624 0.0
C156 C 0.30406 0.91287 0.82191 0.0
H157 H 0.29882 0.96126 0.8708 0.0
C158 C 0.33988 0.01449 0.86039 0.0
O159 O 0.31221 0.0759 0.8042 0.0
O160 O 0.27547 0.04442 0.81566 0.0
N161 N 0.34003 0.93341 0.7944 0.0
C162 C 0.35595 0.93409 0.77218 0.0
C163 C 0.35137 0.91111 0.75406 0.0
C164 C 0.3306 0.88763 0.75902 0.0
C165 C 0.3145 0.88742 0.78204 0.0
C166 C 0.32002 0.91091 0.79939 0.0
H167 H 0.3719 0.95212 0.76827 0.0
O168 O 0.30398 0.01715 0.77398 0.0
O169 O 0.31248 0.98826 0.80737 0.0
O170 O 0.3623 0.02888 0.79754 0.0
O171 O 0.37752 0.98206 0.8081 0.0
C172 C 0.29284 0.86509 0.78828 0.0
C173 C 0.27652 0.86707 0.81133 0.0
H174 H 0.24814 0.87958 0.85652 0.0
H175 H 0.25918 0.92436 0.88372 0.0
H176 H 0.36379 0.91151 0.73629 0.0
H177 H 0.32702 0.87002 0.74494 0.0
H178 H 0.28818 0.84657 0.77529 0.0
H179 H 0.25953 0.85006 0.8157 0.0
Mn180 Mn 0.04592 0.32263 0.31343 0.0
Mn181 Mn 0.11344 0.34314 0.33851 0.0
C182 C 0.0911 0.30759 0.29493 0.0
C183 C 0.00528 0.2895 0.30753 0.0
C184 C 0.07407 0.3862 0.30864 0.0
O185 O 0.03433 0.33332 0.34991 0.0
O186 O 0.08054 0.34836 0.36394 0.0
C187 C 0.11842 0.29391 0.3767 0.0
N188 N 0.12992 0.30893 0.35619 0.0
C189 C 0.17341 0.27583 0.35471 0.0
C190 C 0.1621 0.26012 0.37589 0.0
C191 C 0.13446 0.26918 0.3869 0.0
C192 C 0.15647 0.30036 0.34542 0.0
H193 H 0.09715 0.30069 0.38519 0.0
C194 C 0.05202 0.3439 0.36703 0.0
O195 O 0.00289 0.3183 0.30268 0.0
O196 O 0.03071 0.28024 0.31732 0.0
N197 N 0.14716 0.33854 0.31581 0.0
C198 C 0.15433 0.3553 0.29486 0.0
C199 C 0.1811 0.3488 0.28137 0.0
C200 C 0.20027 0.32526 0.28962 0.0
C201 C 0.19254 0.3085 0.31135 0.0
C202 C 0.1657 0.31616 0.32414 0.0
H203 H 0.13964 0.37336 0.28841 0.0
O204 O 0.06673 0.30973 0.28119 0.0
O205 O 0.08841 0.31538 0.31856 0.0
O206 O 0.05242 0.36749 0.30523 0.0
O207 O 0.09858 0.37941 0.32025 0.0
C208 C 0.21022 0.28423 0.32064 0.0
C209 C 0.2006 0.26784 0.34225 0.0
H210 H 0.17434 0.24095 0.38376 0.0
H211 H 0.12551 0.25709 0.40318 0.0
H212 H 0.18689 0.36182 0.2646 0.0
H213 H 0.22076 0.32014 0.27904 0.0
H214 H 0.23111 0.2778 0.31118 0.0
H215 H 0.21419 0.24898 0.34901 0.0
Mn216 Mn 0.75929 0.04768 0.80786 0.0
Mn217 Mn 0.74242 0.11934 0.82602 0.0
C218 C 0.77426 0.08903 0.78379 0.0
C219 C 0.79119 0.00557 0.80486 0.0
C220 C 0.69641 0.07694 0.80271 0.0
O221 O 0.75009 0.04225 0.84572 0.0
O222 O 0.73868 0.09104 0.85509 0.0
C223 C 0.79458 0.12895 0.86061 0.0
N224 N 0.77822 0.13751 0.83984 0.0
C225 C 0.81152 0.17984 0.83208 0.0
C226 C 0.82864 0.17155 0.85345 0.0
C227 C 0.82016 0.14595 0.86773 0.0
C228 C 0.78627 0.16201 0.82588 0.0
H229 H 0.78819 0.10929 0.87165 0.0
C230 C 0.74202 0.06309 0.86136 0.0
O231 O 0.76209 0.00317 0.80164 0.0
O232 O 0.80142 0.03197 0.81178 0.0
N233 N 0.7459 0.14898 0.79953 0.0
C234 C 0.72768 0.15324 0.77891 0.0
C235 C 0.73339 0.17768 0.76241 0.0
C236 C 0.7576 0.19759 0.76738 0.0
C237 C 0.77588 0.19288 0.78884 0.0
C238 C 0.76904 0.16821 0.80464 0.0
H239 H 0.709 0.13806 0.77505 0.0
O240 O 0.77082 0.06269 0.77309 0.0
O241 O 0.76793 0.09039 0.80779 0.0
O242 O 0.71439 0.05441 0.80061 0.0
O243 O 0.70449 0.10272 0.81156 0.0
C244 C 0.80076 0.21156 0.79506 0.0
C245 C 0.8187 0.20492 0.81655 0.0
H246 H 0.84842 0.18458 0.85898 0.0
H247 H 0.83332 0.13934 0.8842 0.0
H248 H 0.71919 0.18115 0.74588 0.0
H249 H 0.76203 0.21631 0.75454 0.0
H250 H 0.80646 0.23096 0.78333 0.0
H251 H 0.83803 0.2192 0.82092 0.0
Mn252 Mn 0.04474 0.76378 0.30957 0.0
Mn253 Mn 0.97533 0.74226 0.33009 0.0
C254 C 0.00107 0.78109 0.28995 0.0
C255 C 0.08611 0.79666 0.30729 0.0
C256 C 0.01649 0.70102 0.29995 0.0
O257 O 0.05371 0.7496 0.34583 0.0
O258 O 0.00624 0.73472 0.3566 0.0
C259 C 0.96804 0.78852 0.37055 0.0
N260 N 0.95788 0.7752 0.34878 0.0
C261 C 0.91436 0.80823 0.34746 0.0
C262 C 0.92429 0.82222 0.36992 0.0
C263 C 0.95129 0.81236 0.38147 0.0
C264 C 0.93203 0.78463 0.33742 0.0
H265 H 0.98878 0.78105 0.37952 0.0
C266 C 0.03455 0.73807 0.36142 0.0
O267 O 0.08846 0.76825 0.30101 0.0
O268 O 0.06024 0.80549 0.31662 0.0
N269 N 0.94334 0.74894 0.30613 0.0
C270 C 0.93751 0.73384 0.28405 0.0
C271 C 0.91152 0.7413 0.26992 0.0
C272 C 0.89168 0.764 0.27875 0.0
C273 C 0.89801 0.77903 0.30165 0.0
C274 C 0.92421 0.77058 0.31493 0.0
H275 H 0.95264 0.71629 0.27726 0.0
O276 O 0.02635 0.77978 0.27728 0.0
O277 O 0.00203 0.77123 0.3131 0.0
O278 O 0.03829 0.71991 0.2984 0.0
O279 O 0.99126 0.70715 0.31078 0.0
C280 C 0.87948 0.80222 0.31173 0.0
C281 C 0.88776 0.81696 0.33451 0.0
H282 H 0.91144 0.84063 0.37839 0.0
H283 H 0.95917 0.82311 0.39876 0.0
H284 H 0.90679 0.7296 0.25226 0.0
H285 H 0.87173 0.7698 0.26773 0.0
H286 H 0.8589 0.80905 0.30204 0.0
H287 H 0.87355 0.83505 0.34187 0.0
C288 C 0.33741 0.02932 0.09371 0.0
C289 C 0.33447 0.05925 0.10274 0.0
C290 C 0.33898 0.02362 0.06749 0.0
C291 C 0.31793 0.05695 0.00595 0.0
H292 H 0.38196 0.00673 0.97773 0.0
C293 C 0.33782 0.05012 0.89785 0.0
C294 C 0.34363 0.02106 0.88787 0.0
C295 C 0.33849 0.05503 0.92415 0.0
C296 C 0.36374 0.02057 0.98532 0.0
H297 H 0.33048 0.10658 0.09118 0.0
H298 H 0.333 0.09652 0.04601 0.0
H299 H 0.37782 0.01275 0.0238 0.0
H300 H 0.35571 0.97462 0.89784 0.0
H301 H 0.35623 0.9831 0.94325 0.0
H302 H 0.30347 0.06454 0.96771 0.0
C303 C 0.33408 0.07749 0.05905 0.0
C304 C 0.36137 0.02393 0.01168 0.0
C305 C 0.33286 0.0832 0.08504 0.0
C306 C 0.35112 0.99736 0.90473 0.0
C307 C 0.35162 0.00223 0.9309 0.0
C308 C 0.32013 0.05343 0.97965 0.0
C309 C 0.33715 0.04772 0.04998 0.0
C310 C 0.33857 0.04233 0.02221 0.0
C311 C 0.34487 0.03098 0.94099 0.0
C312 C 0.34315 0.03533 0.96898 0.0
H313 H 0.33876 0.01041 0.10684 0.0
H314 H 0.34125 0.0004 0.0609 0.0
H315 H 0.29992 0.07103 0.01361 0.0
H316 H 0.33211 0.06891 0.88545 0.0
H317 H 0.33371 0.07762 0.93129 0.0
C318 C 0.04533 0.37183 0.5965 0.0
C319 C 0.04887 0.34391 0.60903 0.0
C320 C 0.04789 0.37346 0.57006 0.0
C321 C 0.02677 0.33031 0.51637 0.0
H322 H 0.07929 0.38139 0.47556 0.0
C323 C 0.0307 0.32271 0.4068 0.0
C324 C 0.04077 0.34802 0.39305 0.0
C325 C 0.02933 0.3238 0.43335 0.0
C326 C 0.0639 0.3675 0.48663 0.0
H327 H 0.05858 0.29605 0.6043 0.0
H328 H 0.0624 0.29874 0.55777 0.0
H329 H 0.08567 0.38005 0.5216 0.0
H330 H 0.05503 0.39492 0.39558 0.0
H331 H 0.05034 0.39779 0.44172 0.0
H332 H 0.00395 0.31866 0.48191 0.0
C333 C 0.05836 0.31939 0.56848 0.0
C334 C 0.06795 0.36647 0.51296 0.0
C335 C 0.05656 0.31793 0.59499 0.0
C336 C 0.04698 0.3752 0.40592 0.0
C337 C 0.04487 0.37657 0.43238 0.0
C338 C 0.02223 0.33182 0.49011 0.0
C339 C 0.05312 0.34699 0.55583 0.0
C340 C 0.04963 0.34763 0.52795 0.0
C341 C 0.03752 0.35045 0.44656 0.0
C342 C 0.04088 0.35026 0.4748 0.0
H343 H 0.03871 0.39196 0.60702 0.0
H344 H 0.04359 0.39491 0.56062 0.0
H345 H 0.01202 0.31603 0.52774 0.0
H346 H 0.02649 0.30131 0.39722 0.0
H347 H 0.02384 0.30309 0.44345 0.0
C348 C 0.74778 0.02805 0.89903 0.0
C349 C 0.73826 0.05595 0.88874 0.0
C350 C 0.74761 0.02355 0.92543 0.0
C351 C 0.75336 0.06712 0.98446 0.0
H352 H 0.723 0.99447 0.01734 0.0
C353 C 0.74802 0.05465 0.09429 0.0
C354 C 0.75462 0.02574 0.10414 0.0
C355 C 0.74504 0.05884 0.06797 0.0
C356 C 0.73195 0.01477 0.00845 0.0
H357 H 0.71935 0.10027 0.89816 0.0
H358 H 0.71929 0.09233 0.94373 0.0
H359 H 0.71942 -0.00068 0.97123 0.0
H360 H 0.76461 0.97888 0.09399 0.0
H361 H 0.7605 0.9864 0.04866 0.0
H362 H 0.76658 0.08236 0.02146 0.0
C363 C 0.72732 0.07418 0.93151 0.0
C364 C 0.7298 0.0175 0.98205 0.0
C365 C 0.72727 0.0786 0.90532 0.0
C366 C 0.75907 0.00142 0.08715 0.0
C367 C 0.75646 0.00566 0.06104 0.0
C368 C 0.75581 0.06427 0.01083 0.0
C369 C 0.73811 0.04693 0.94188 0.0
C370 C 0.74048 0.0437 0.96982 0.0
C371 C 0.74892 0.03424 0.05108 0.0
C372 C 0.74525 0.03799 0.02315 0.0
H373 H 0.75637 0.01015 0.88684 0.0
H374 H 0.75604 0.00228 0.93302 0.0
H375 H 0.76207 0.08746 0.97544 0.0
H376 H 0.74439 0.07378 0.1069 0.0
H377 H 0.73904 0.08117 0.06092 0.0
C378 C 0.06419 0.74861 0.40109 0.0
C379 C 0.04387 0.73019 0.3875 0.0
C380 C 0.06655 0.74567 0.42755 0.0
C381 C 0.07349 0.7266 0.48355 0.0
H382 H 0.99477 0.72086 0.51659 0.0
C383 C 0.06355 0.71095 0.59111 0.0
C384 C 0.04374 0.73088 0.60388 0.0
C385 C 0.06247 0.70804 0.56478 0.0
C386 C 0.01686 0.72255 0.50763 0.0
H387 H 0.01243 0.69242 0.39033 0.0
H388 H 0.01702 0.68697 0.43619 0.0
H389 H -0.00206 0.72083 0.47023 0.0
H390 H 0.0059 0.76185 0.59922 0.0
H391 H 0.00386 0.75661 0.55283 0.0
H392 H 0.09236 0.72885 0.52097 0.0
C393 C 0.03043 0.7042 0.42668 0.0
C394 C 0.01875 0.72222 0.48113 0.0
C395 C 0.02802 0.70717 0.40041 0.0
C396 C 0.02134 0.74623 0.5899 0.0
C397 C 0.02027 0.74331 0.56337 0.0
C398 C 0.07161 0.72674 0.51008 0.0
C399 C 0.04869 0.72425 0.44066 0.0
C400 C 0.04709 0.72418 0.46881 0.0
C401 C 0.04156 0.72498 0.55053 0.0
C402 C 0.04328 0.72466 0.52238 0.0
H403 H 0.07646 0.76667 0.3916 0.0
H404 H 0.08087 0.7614 0.43788 0.0
H405 H 0.09559 0.72813 0.47459 0.0
H406 H 0.0808 0.69845 0.60141 0.0
H407 H 0.07861 0.69314 0.55547 0.0
C408 C 0.43829 0.09646 0.19088 0.0
C409 C 0.41762 0.07216 0.19033 0.0
C410 C 0.46934 0.09103 0.19399 0.0
C411 C 0.52503 0.03133 0.21295 0.0
H412 H 0.58011 0.07869 0.17126 0.0
C413 C 0.64936 0.99657 0.19116 0.0
C414 C 0.67128 0.01977 0.19205 0.0
C415 C 0.61852 0.00346 0.19382 0.0
C416 C 0.56504 0.06551 0.18323 0.0
H417 H 0.41339 0.02309 0.19298 0.0
H418 H 0.46735 0.01364 0.19767 0.0
H419 H 0.52609 0.09023 0.17075 0.0
H420 H 0.6779 0.06834 0.19712 0.0
H421 H 0.62421 0.08019 0.20157 0.0
H422 H 0.56417 0.00598 0.22471 0.0
C423 C 0.45964 0.03696 0.1963 0.0
C424 C 0.53407 0.07219 0.18304 0.0
C425 C 0.42863 0.04239 0.19345 0.0
C426 C 0.6617 0.04987 0.19627 0.0
C427 C 0.63091 0.05675 0.19869 0.0
C428 C 0.55602 0.02446 0.21293 0.0
C429 C 0.48045 0.06116 0.19637 0.0
C430 C 0.51362 0.05508 0.19777 0.0
C431 C 0.609 0.03369 0.19719 0.0
C432 C 0.57628 0.04141 0.19799 0.0
H433 H 0.43054 0.11968 0.18877 0.0
H434 H 0.48466 0.11026 0.19441 0.0
H435 H 0.51003 0.018 0.22486 0.0
H436 H 0.65596 0.97315 0.18805 0.0
H437 H 0.60205 0.98527 0.19245 0.0
C438 C 0.04379 0.42868 0.70481 0.0
C439 C 0.01501 0.4164 0.69964 0.0
C440 C 0.0471 0.45962 0.71006 0.0
C441 C 0.00748 0.53233 0.69889 0.0
H442 H 0.07165 0.56475 0.74143 0.0
C443 C 0.02548 0.66062 0.70843 0.0
C444 C 0.05519 0.67028 0.70281 0.0
C445 C 0.01944 0.63008 0.71346 0.0
C446 C 0.05361 0.55595 0.72954 0.0
H447 H 0.96689 0.42657 0.69753 0.0
H448 H 0.9725 0.48029 0.70752 0.0
H449 H 0.06231 0.50999 0.74068 0.0
H450 H 0.10215 0.65564 0.69991 0.0
H451 H 0.0915 0.60228 0.70873 0.0
H452 H -0.00107 0.57819 0.68762 0.0
C453 C 0.99269 0.46627 0.70668 0.0
C454 C 0.04831 0.52462 0.729 0.0
C455 C 0.98943 0.43542 0.70107 0.0
C456 C 0.07898 0.64897 0.70395 0.0
C457 C 0.07293 0.61842 0.70916 0.0
C458 C 0.01256 0.56358 0.69964 0.0
C459 C 0.02164 0.47893 0.71059 0.0
C460 C 0.0255 0.51237 0.71331 0.0
C461 C 0.04298 0.60856 0.7132 0.0
C462 C 0.03597 0.57568 0.71464 0.0
H463 H 0.06398 0.41466 0.70377 0.0
H464 H 0.06978 0.46855 0.71262 0.0
H465 H 0.99015 0.5238 0.68617 0.0
H466 H 0.0066 0.67639 0.70792 0.0
H467 H 0.9962 0.62313 0.71685 0.0
C468 C 0.65313 0.04291 0.79115 0.0
C469 C 0.66432 0.07241 0.79532 0.0
C470 C 0.62248 0.03816 0.78593 0.0
C471 C 0.54803 0.07438 0.79541 0.0
H472 H 0.52022 0.00719 0.75371 0.0
C473 C 0.42135 0.0467 0.78542 0.0
C474 C 0.41385 0.01637 0.79111 0.0
C475 C 0.45142 0.05502 0.78085 0.0
C476 C 0.52771 0.02605 0.76537 0.0
H477 H 0.65226 0.12022 0.79604 0.0
H478 H 0.59875 0.11195 0.78635 0.0
H479 H 0.57414 0.02014 0.75446 0.0
H480 H 0.43195 0.9707 0.7949 0.0
H481 H 0.48452 0.98533 0.78688 0.0
H482 H 0.50165 0.08008 0.80648 0.0
C483 C 0.61362 0.09242 0.78775 0.0
C484 C 0.55855 0.03343 0.76589 0.0
C485 C 0.64431 0.09717 0.79322 0.0
C486 C 0.43694 0.99429 0.79077 0.0
C487 C 0.46703 0.00261 0.78601 0.0
C488 C 0.5172 0.06719 0.79468 0.0
C489 C 0.60224 0.0628 0.78449 0.0
C490 C 0.56917 0.05726 0.78138 0.0
C491 C 0.47462 0.03318 0.78164 0.0
C492 C 0.50683 0.04259 0.78007 0.0
H493 H 0.66785 0.02327 0.7927 0.0
H494 H 0.6145 0.01501 0.78397 0.0
H495 H 0.55537 0.09253 0.80787 0.0
H496 H 0.40417 0.06432 0.78535 0.0
H497 H 0.45664 0.07869 0.77724 0.0
C498 C 0.04056 0.42918 0.29525 0.0
C499 C 0.06989 0.41778 0.29969 0.0
C500 C 0.0362 0.45969 0.28901 0.0
C501 C 0.07455 0.53388 0.29547 0.0
H502 H 0.0061 0.56205 0.25552 0.0
C503 C 0.05116 0.66078 0.28286 0.0
C504 C 0.02191 0.66964 0.29076 0.0
C505 C 0.05773 0.63031 0.27805 0.0
C506 C 0.02534 0.55444 0.26664 0.0
H507 H 0.11781 0.42905 0.2996 0.0
H508 H 0.11033 0.48207 0.28781 0.0
H509 H 0.0175 0.50772 0.25749 0.0
H510 H 0.97607 0.65358 0.29781 0.0
H511 H 0.98767 0.60027 0.28927 0.0
H512 H 0.0823 0.58055 0.30465 0.0
C513 C 0.09056 0.46769 0.28998 0.0
C514 C 0.03183 0.52335 0.2679 0.0
C515 C 0.09489 0.43725 0.29662 0.0
C516 C -0.00111 0.64754 0.29198 0.0
C517 C 0.00546 0.61703 0.28695 0.0
C518 C 0.06832 0.56489 0.29391 0.0
C519 C 0.0611 0.47949 0.28669 0.0
C520 C 0.05615 0.51263 0.28279 0.0
C521 C 0.03518 0.60804 0.28077 0.0
C522 C 0.04335 0.57543 0.27988 0.0
H523 H 0.02079 0.41481 0.29757 0.0
H524 H 0.01317 0.46794 0.28705 0.0
H525 H 0.09307 0.52659 0.30753 0.0
H526 H 0.06944 0.67715 0.28148 0.0
H527 H 0.08074 0.62399 0.273 0.0
C528 C 0.132 0.29071 0.2649 0.0
C529 C 0.11534 0.28666 0.28737 0.0
C530 C 0.15533 0.27035 0.25873 0.0
C531 C 0.17579 0.19223 0.26454 0.0
H532 H 0.26012 0.21553 0.25593 0.0
C533 C 0.29602 0.12713 0.24567 0.0
C534 C 0.28892 0.11354 0.22229 0.0
C535 C 0.27637 0.14889 0.25614 0.0
C536 C 0.23665 0.20886 0.25836 0.0
H537 H 0.10822 0.25772 0.32018 0.0
H538 H 0.14827 0.22178 0.30901 0.0
H539 H 0.22208 0.25426 0.26723 0.0
H540 H 0.25551 0.11016 0.19222 0.0
H541 H 0.22107 0.14741 0.21069 0.0
H542 H 0.18984 0.14727 0.25448 0.0
C543 C 0.14404 0.241 0.29663 0.0
C544 C 0.21501 0.23089 0.26467 0.0
C545 C 0.12127 0.26152 0.30298 0.0
C546 C 0.26158 0.12079 0.2101 0.0
C547 C 0.24186 0.14192 0.22069 0.0
C548 C 0.19718 0.17047 0.25759 0.0
C549 C 0.16135 0.24534 0.27458 0.0
C550 C 0.18444 0.22265 0.26768 0.0
C551 C 0.24911 0.15625 0.24368 0.0
C552 C 0.22769 0.17866 0.25419 0.0
H553 H 0.12739 0.30982 0.25252 0.0
H554 H 0.1683 0.27377 0.24145 0.0
H555 H 0.1523 0.18546 0.26688 0.0
H556 H 0.31693 0.12148 0.2554 0.0
H557 H 0.28222 0.15971 0.27397 0.0
C558 C 0.95335 0.28973 0.73584 0.0
C559 C 0.97104 0.28517 0.714 0.0
C560 C 0.93011 0.26921 0.74178 0.0
C561 C 0.91078 0.19057 0.73661 0.0
H562 H 0.82584 0.21331 0.74159 0.0
C563 C 0.79002 0.12475 0.74906 0.0
C564 C 0.79525 0.11114 0.77276 0.0
C565 C 0.81037 0.14659 0.73981 0.0
C566 C 0.84949 0.20679 0.74016 0.0
H567 H 0.9801 0.25522 0.68214 0.0
H568 H 0.94016 0.21908 0.69291 0.0
H569 H 0.86419 0.25224 0.73174 0.0
H570 H 0.8262 0.10763 0.80462 0.0
H571 H 0.86192 0.14504 0.78825 0.0
H572 H 0.8965 0.14553 0.74615 0.0
C573 C 0.94355 0.23875 0.70498 0.0
C574 C 0.87129 0.22895 0.7347 0.0
C575 C 0.96624 0.25939 0.69884 0.0
C576 C 0.82155 0.11832 0.78647 0.0
C577 C 0.84199 0.13954 0.77709 0.0
C578 C 0.88918 0.16869 0.74271 0.0
C579 C 0.92522 0.24358 0.72636 0.0
C580 C 0.90205 0.22088 0.73291 0.0
C581 C 0.83648 0.15401 0.75384 0.0
C582 C 0.85844 0.17666 0.74467 0.0
H583 H 0.9571 0.30935 0.74788 0.0
H584 H 0.9163 0.27304 0.75854 0.0
H585 H 0.93443 0.18394 0.73524 0.0
H586 H 0.76995 0.11913 0.73816 0.0
H587 H 0.8059 0.1575 0.72173 0.0
C588 C 0.96204 0.80076 0.25947 0.0
C589 C 0.9776 0.80295 0.28263 0.0
C590 C 0.93903 0.82164 0.25375 0.0
C591 C 0.91664 0.89882 0.26331 0.0
H592 H 0.83296 0.87395 0.25395 0.0
C593 C 0.82813 0.96936 0.21104 0.0
C594 C 0.80098 0.97595 0.22385 0.0
C595 C 0.84862 0.94866 0.2211 0.0
C596 C 0.85623 0.88107 0.2565 0.0
H597 H 0.98321 0.82923 0.31717 0.0
H598 H 0.94377 0.86616 0.30678 0.0
H599 H 0.87204 0.83551 0.2626 0.0
H600 H 0.77395 0.96702 0.2574 0.0
H601 H 0.80999 0.92936 0.27497 0.0
H602 H 0.90133 0.94404 0.25541 0.0
C603 C 0.94863 0.84799 0.29347 0.0
C604 C 0.87847 0.85921 0.26143 0.0
C605 C 0.97104 0.82691 0.29938 0.0
C606 C 0.79476 0.96197 0.24723 0.0
C607 C 0.81518 0.94056 0.25715 0.0
C608 C 0.89464 0.92048 0.25748 0.0
C609 C 0.93228 0.84536 0.27077 0.0
C610 C 0.90879 0.868 0.26484 0.0
C611 C 0.8423 0.93399 0.24411 0.0
C612 C 0.86434 0.91171 0.25382 0.0
H613 H 0.96713 0.78258 0.24625 0.0
H614 H 0.92673 0.81951 0.23601 0.0
H615 H 0.93994 0.90601 0.266 0.0
H616 H 0.83347 0.98022 0.19308 0.0
H617 H 0.86928 0.94372 0.21066 0.0
C618 C 0.10567 0.82718 0.69647 0.0
C619 C 0.09551 0.80491 0.71351 0.0
C620 C 0.1284 0.84737 0.70348 0.0
C621 C 0.19037 0.85561 0.75047 0.0
H622 H 0.19484 0.9371 0.7225 0.0
C623 C 0.26097 0.95429 0.79023 0.0
C624 C 0.28256 0.96714 0.77381 0.0
C625 C 0.24038 0.93292 0.78133 0.0
C626 C 0.19402 0.91421 0.73006 0.0
H627 H 0.09836 0.788 0.752 0.0
H628 H 0.13788 0.82412 0.76489 0.0
H629 H 0.15155 0.90486 0.71227 0.0
H630 H 0.29826 0.96974 0.73486 0.0
H631 H 0.26081 0.93266 0.71878 0.0
H632 H 0.23192 0.8661 0.76958 0.0
C633 C 0.12928 0.8251 0.74563 0.0
C634 C 0.16926 0.89569 0.72429 0.0
C635 C 0.10653 0.80463 0.73845 0.0
C636 C 0.28223 0.95948 0.74791 0.0
C637 C 0.26101 0.93839 0.73881 0.0
C638 C 0.21474 0.8744 0.75666 0.0
C639 C 0.14103 0.8462 0.72797 0.0
C640 C 0.16705 0.86617 0.73451 0.0
C641 C 0.24018 0.92486 0.75561 0.0
C642 C 0.21668 0.9038 0.74653 0.0
H643 H 0.09672 0.82832 0.6773 0.0
H644 H 0.13688 0.86298 0.68924 0.0
H645 H 0.18991 0.8328 0.75817 0.0
H646 H 0.25983 0.96097 0.81003 0.0
H647 H 0.22403 0.92324 0.79445 0.0
C648 C 0.80059 0.95246 0.78951 0.0
C649 C 0.81202 0.98106 0.7966 0.0
C650 C 0.81922 0.93132 0.77712 0.0
C651 C 0.88449 0.92927 0.7345 0.0
H652 H 0.88888 0.84357 0.751 0.0
C653 C 0.97335 0.84917 0.68936 0.0
C654 C 0.96655 0.81813 0.68689 0.0
C655 C 0.95265 0.86902 0.70083 0.0
C656 C 0.88749 0.86732 0.74575 0.0
H657 H 0.85236 0.00931 0.79737 0.0
H658 H 0.88473 0.97249 0.77563 0.0
H659 H 0.85741 0.87725 0.7768 0.0
H660 H 0.93177 0.78401 0.69269 0.0
H661 H 0.89509 0.81884 0.71163 0.0
H662 H 0.91391 0.91952 0.70318 0.0
C663 C 0.86133 0.96652 0.77955 0.0
C664 C 0.86961 0.88663 0.76072 0.0
C665 C 0.84285 0.98747 0.79222 0.0
C666 C 0.93774 0.80779 0.69444 0.0
C667 C 0.91687 0.82772 0.70562 0.0
C668 C 0.90202 0.90994 0.71932 0.0
C669 C 0.84951 0.93856 0.7713 0.0
C670 C 0.86822 0.91785 0.75541 0.0
C671 C 0.92445 0.85839 0.70981 0.0
C672 C 0.90404 0.87871 0.72487 0.0
H673 H 0.77692 0.94687 0.79258 0.0
H674 H 0.80951 0.90994 0.77098 0.0
H675 H 0.88336 0.95318 0.72967 0.0
H676 H 0.99544 0.85784 0.68393 0.0
H677 H 0.95954 0.89235 0.70385 0.0
C678 C 0.27799 0.95515 0.20194 0.0
C679 C 0.26714 0.98434 0.1961 0.0
C680 C 0.25887 0.9336 0.21322 0.0
C681 C 0.17752 0.9176 0.22878 0.0
H682 H 0.21264 0.86735 0.28175 0.0
C683 C 0.10315 0.84984 0.29859 0.0
C684 C 0.11 0.8187 0.30016 0.0
C685 C 0.12348 0.86998 0.28707 0.0
C686 C 0.20258 0.88117 0.26694 0.0
H687 H 0.22743 0.01349 0.19668 0.0
H688 H 0.19442 0.97645 0.21679 0.0
H689 H 0.24514 0.90155 0.25737 0.0
H690 H 0.14434 0.7846 0.29239 0.0
H691 H 0.18017 0.81999 0.27281 0.0
H692 H 0.13483 0.8977 0.23893 0.0
C693 C 0.21746 0.96975 0.21229 0.0
C694 C 0.2212 0.90062 0.25278 0.0
C695 C 0.23646 0.99112 0.20076 0.0
C696 C 0.13843 0.80847 0.29147 0.0
C697 C 0.15894 0.82871 0.28026 0.0
C698 C 0.15888 0.89848 0.24316 0.0
C699 C 0.22854 0.94088 0.21917 0.0
C700 C 0.20892 0.91916 0.23352 0.0
C701 C 0.15125 0.85948 0.27722 0.0
C702 C 0.17119 0.88014 0.26242 0.0
H703 H 0.3015 0.9492 0.1985 0.0
H704 H 0.26806 0.91141 0.21766 0.0
H705 H 0.16725 0.931 0.21381 0.0
H706 H 0.0814 0.85843 0.30503 0.0
H707 H 0.11716 0.89368 0.28527 0.0
C708 C 0.13186 0.27642 0.71604 0.0
C709 C 0.10432 0.26608 0.70569 0.0
C710 C 0.15173 0.25611 0.72797 0.0
C711 C 0.15158 0.18382 0.76232 0.0
H712 H 0.23826 0.18355 0.74969 0.0
C713 C 0.23096 0.08898 0.79954 0.0
C714 C 0.26142 0.09617 0.80458 0.0
C715 C 0.21126 0.11101 0.78974 0.0
C716 C 0.2142 0.18367 0.75389 0.0
H717 H 0.0765 0.22619 0.69905 0.0
H718 H 0.11113 0.19087 0.71998 0.0
H719 H 0.20587 0.21903 0.72673 0.0
H720 H 0.29456 0.13252 0.80518 0.0
H721 H 0.25997 0.17125 0.78921 0.0
H722 H 0.15977 0.14888 0.78975 0.0
C723 C 0.11724 0.21468 0.71896 0.0
C724 C 0.19563 0.20391 0.74055 0.0
C725 C 0.09757 0.23489 0.70677 0.0
C726 C 0.27124 0.12626 0.80129 0.0
C727 C 0.25147 0.14838 0.79184 0.0
C728 C 0.17018 0.16382 0.7759 0.0
C729 C 0.14428 0.22516 0.73006 0.0
C730 C 0.16411 0.204 0.74445 0.0
C731 C 0.22151 0.14081 0.78506 0.0
C732 C 0.20174 0.16329 0.77174 0.0
H733 H 0.13766 0.30032 0.71557 0.0
H734 H 0.1724 0.26483 0.73641 0.0
H735 H 0.12738 0.18375 0.76601 0.0
H736 H 0.22279 0.06591 0.80168 0.0
H737 H 0.18847 0.10417 0.7846 0.0
C738 C 0.98861 0.23668 0.29689 0.0
C739 C 0.98179 0.26779 0.29892 0.0
C740 C 0.96848 0.21687 0.28476 0.0
C741 C 0.88948 0.20669 0.26416 0.0
H742 H 0.92467 0.1555 0.21178 0.0
C743 C 0.81359 0.13287 0.19982 0.0
C744 C 0.82385 0.10326 0.1947 0.0
C745 C 0.83306 0.15437 0.21066 0.0
C746 C 0.91445 0.16933 0.22652 0.0
H747 H 0.94783 0.30222 0.29107 0.0
H748 H 0.91238 0.26742 0.27037 0.0
H749 H 0.95731 0.18877 0.23674 0.0
H750 H 0.86295 0.07334 0.19599 0.0
H751 H 0.89662 0.11039 0.21534 0.0
H752 H 0.84675 0.1868 0.25454 0.0
C753 C 0.93341 0.25846 0.27797 0.0
C754 C 0.9332 0.18841 0.24081 0.0
C755 C 0.95371 0.27837 0.28982 0.0
C756 C 0.85437 0.09603 0.19953 0.0
C757 C 0.87375 0.11739 0.21062 0.0
C758 C 0.87074 0.18733 0.25008 0.0
C759 C 0.94096 0.22767 0.27472 0.0
C760 C 0.92093 0.20722 0.25983 0.0
C761 C 0.86317 0.14664 0.2169 0.0
C762 C 0.88298 0.16831 0.23108 0.0
H763 H 0.01009 0.22784 0.30364 0.0
H764 H 0.97469 0.19315 0.28281 0.0
H765 H 0.87944 0.22082 0.2788 0.0
H766 H 0.79021 0.13918 0.19621 0.0
H767 H 0.82429 0.17687 0.21462 0.0
loop_
_geom_bond_atom_site_label_1
_geom_bond_atom_site_label_2
_geom_bond_distance
_geom_bond_site_symmetry_2
_ccdc_geom_bond_type
Mn0 O5 2.095 . S
Mn0 O15 2.162 . S
Mn0 O16 2.297 . S
Mn0 O24 2.385 . S
Mn0 O25 2.209 . S
Mn0 O26 2.094 . S
Mn1 O6 2.121 . S
Mn1 N8 2.257 . S
Mn1 N17 2.282 . S
Mn1 O25 2.215 . S
Mn1 O27 2.117 . S
C2 O24 1.234 . S
C2 O25 1.283 . S
C3 O15 1.281 . S
C3 O16 1.236 . S
C4 O26 1.240 . S
C4 O27 1.264 . S
O5 Mn0 2.095 . S
O5 C14 1.250 . S
O6 Mn1 2.121 . S
O6 C14 1.258 . S
C7 N8 1.326 . S
C7 C11 1.460 . S
C7 H13 0.929 . S
N8 Mn1 2.257 . S
N8 C7 1.326 . S
N8 C12 1.362 . S
C9 C10 1.258 . S
C9 C12 1.431 . S
C9 C29 1.449 . S
C10 C9 1.258 . S
C10 C11 1.477 . S
C10 H30 0.931 . S
C11 C7 1.460 . S
C11 C10 1.477 . S
C11 H31 0.930 . S
C12 N8 1.362 . S
C12 C9 1.431 . S
C12 C22 1.476 . S
H13 C7 0.929 . S
C14 O5 1.250 . S
C14 O6 1.258 . S
O15 Mn0 2.162 . S
O15 C3 1.281 . S
O16 Mn0 2.297 . S
O16 C3 1.236 . S
N17 Mn1 2.282 . S
N17 C18 1.328 . S
N17 C22 1.318 . S
C18 N17 1.328 . S
C18 C19 1.457 . S
C18 H23 0.929 . S
C19 C18 1.457 . S
C19 C20 1.291 . S
C19 H32 0.931 . S
C20 C19 1.291 . S
C20 C21 1.373 . S
C20 H33 0.929 . S
C21 C20 1.373 . S
C21 C22 1.396 . S
C21 C28 1.403 . S
C22 C12 1.476 . S
C22 N17 1.318 . S
C22 C21 1.396 . S
H23 C18 0.929 . S
O24 Mn0 2.385 . S
O24 C2 1.234 . S
O25 Mn0 2.209 . S
O25 Mn1 2.215 . S
O25 C2 1.283 . S
O26 Mn0 2.094 . S
O26 C4 1.240 . S
O27 Mn1 2.117 . S
O27 C4 1.264 . S
C28 C21 1.403 . S
C28 C29 1.399 . S
C28 H34 0.929 . S
C29 C9 1.449 . S
C29 C28 1.399 . S
C29 H35 0.930 . S
H30 C10 0.931 . S
H31 C11 0.930 . S
H32 C19 0.931 . S
H33 C20 0.929 . S
H34 C28 0.929 . S
H35 C29 0.930 . S
Mn36 O41 2.095 . S
Mn36 O51 2.162 . S
Mn36 O52 2.297 . S
Mn36 O60 2.385 . S
Mn36 O61 2.209 1_455 S
Mn36 O62 2.094 . S
Mn37 O42 2.121 1_655 S
Mn37 N44 2.257 . S
Mn37 N53 2.282 . S
Mn37 O61 2.215 . S
Mn37 O63 2.117 . S
C38 O60 1.234 1_655 S
C38 O61 1.283 . S
C39 O51 1.281 . S
C39 O52 1.236 . S
C40 O62 1.240 . S
C40 O63 1.264 1_455 S
O41 Mn36 2.095 . S
O41 C50 1.250 . S
O42 Mn37 2.121 1_455 S
O42 C50 1.258 . S
C43 N44 1.326 . S
C43 C47 1.460 . S
C43 H49 0.929 . S
N44 Mn37 2.257 . S
N44 C43 1.326 . S
N44 C48 1.362 . S
C45 C46 1.258 . S
C45 C48 1.431 . S
C45 C65 1.449 . S
C46 C45 1.258 . S
C46 C47 1.477 . S
C46 H66 0.931 . S
C47 C43 1.460 . S
C47 C46 1.477 . S
C47 H67 0.930 . S
C48 N44 1.362 . S
C48 C45 1.431 . S
C48 C58 1.476 . S
H49 C43 0.929 . S
C50 O41 1.250 . S
C50 O42 1.258 . S
O51 Mn36 2.162 . S
O51 C39 1.281 . S
O52 Mn36 2.297 . S
O52 C39 1.236 . S
N53 Mn37 2.282 . S
N53 C54 1.328 . S
N53 C58 1.318 . S
C54 N53 1.328 . S
C54 C55 1.457 . S
C54 H59 0.929 . S
C55 C54 1.457 . S
C55 C56 1.291 . S
C55 H68 0.931 . S
C56 C55 1.291 . S
C56 C57 1.373 . S
C56 H69 0.929 . S
C57 C56 1.373 . S
C57 C58 1.396 . S
C57 C64 1.403 . S
C58 C48 1.476 . S
C58 N53 1.318 . S
C58 C57 1.396 . S
H59 C54 0.929 . S
O60 Mn36 2.385 . S
O60 C38 1.234 1_455 S
O61 Mn36 2.209 1_655 S
O61 Mn37 2.215 . S
O61 C38 1.283 . S
O62 Mn36 2.094 . S
O62 C40 1.240 . S
O63 Mn37 2.117 . S
O63 C40 1.264 1_655 S
C64 C57 1.403 . S
C64 C65 1.399 . S
C64 H70 0.929 . S
C65 C45 1.449 . S
C65 C64 1.399 . S
C65 H71 0.930 . S
H66 C46 0.931 . S
H67 C47 0.930 . S
H68 C55 0.931 . S
H69 C56 0.929 . S
H70 C64 0.929 . S
H71 C65 0.930 . S
Mn72 O77 2.095 . S
Mn72 O87 2.162 . S
Mn72 O88 2.297 . S
Mn72 O96 2.385 . S
Mn72 O97 2.209 1_545 S
Mn72 O98 2.094 . S
Mn73 O78 2.121 1_565 S
Mn73 N80 2.257 . S
Mn73 N89 2.282 . S
Mn73 O97 2.215 . S
Mn73 O99 2.117 . S
C74 O96 1.234 1_565 S
C74 O97 1.283 . S
C75 O87 1.281 . S
C75 O88 1.236 . S
C76 O98 1.240 . S
C76 O99 1.264 1_545 S
O77 Mn72 2.095 . S
O77 C86 1.250 . S
O78 Mn73 2.121 1_545 S
O78 C86 1.258 . S
C79 N80 1.326 . S
C79 C83 1.460 . S
C79 H85 0.929 . S
N80 Mn73 2.257 . S
N80 C79 1.326 . S
N80 C84 1.362 . S
C81 C82 1.258 . S
C81 C84 1.431 . S
C81 C101 1.449 . S
C82 C81 1.258 . S
C82 C83 1.477 . S
C82 H102 0.931 . S
C83 C79 1.460 . S
C83 C82 1.477 . S
C83 H103 0.930 . S
C84 N80 1.362 . S
C84 C81 1.431 . S
C84 C94 1.476 . S
H85 C79 0.929 . S
C86 O77 1.250 . S
C86 O78 1.258 . S
O87 Mn72 2.162 . S
O87 C75 1.281 . S
O88 Mn72 2.297 . S
O88 C75 1.236 . S
N89 Mn73 2.282 . S
N89 C90 1.328 . S
N89 C94 1.318 . S
C90 N89 1.328 . S
C90 C91 1.457 . S
C90 H95 0.929 . S
C91 C90 1.457 . S
C91 C92 1.291 . S
C91 H104 0.931 . S
C92 C91 1.291 . S
C92 C93 1.373 . S
C92 H105 0.929 . S
C93 C92 1.373 . S
C93 C94 1.396 . S
C93 C100 1.403 . S
C94 C84 1.476 . S
C94 N89 1.318 . S
C94 C93 1.396 . S
H95 C90 0.929 . S
O96 Mn72 2.385 . S
O96 C74 1.234 1_545 S
O97 Mn72 2.209 1_565 S
O97 Mn73 2.215 . S
O97 C74 1.283 . S
O98 Mn72 2.094 . S
O98 C76 1.240 . S
O99 Mn73 2.117 . S
O99 C76 1.264 1_565 S
C100 C93 1.403 . S
C100 C101 1.399 . S
C100 H106 0.929 . S
C101 C81 1.449 . S
C101 C100 1.399 . S
C101 H107 0.930 . S
H102 C82 0.931 . S
H103 C83 0.930 . S
H104 C91 0.931 . S
H105 C92 0.929 . S
H106 C100 0.929 . S
H107 C101 0.930 . S
Mn108 O113 2.095 . S
Mn108 O123 2.162 . S
Mn108 O124 2.297 . S
Mn108 O132 2.385 . S
Mn108 O133 2.209 . S
Mn108 O134 2.094 . S
Mn109 O114 2.121 . S
Mn109 N116 2.257 . S
Mn109 N125 2.282 . S
Mn109 O133 2.215 . S
Mn109 O135 2.117 . S
C110 O132 1.234 . S
C110 O133 1.283 . S
C111 O123 1.281 . S
C111 O124 1.236 . S
C112 O134 1.240 . S
C112 O135 1.264 . S
O113 Mn108 2.095 . S
O113 C122 1.250 . S
O114 Mn109 2.121 . S
O114 C122 1.258 . S
C115 N116 1.326 . S
C115 C119 1.460 . S
C115 H121 0.929 . S
N116 Mn109 2.257 . S
N116 C115 1.326 . S
N116 C120 1.362 . S
C117 C118 1.258 . S
C117 C120 1.431 . S
C117 C137 1.449 . S
C118 C117 1.258 . S
C118 C119 1.477 . S
C118 H138 0.931 . S
C119 C115 1.460 . S
C119 C118 1.477 . S
C119 H139 0.930 . S
C120 N116 1.362 . S
C120 C117 1.431 . S
C120 C130 1.476 . S
H121 C115 0.929 . S
C122 O113 1.250 . S
C122 O114 1.258 . S
O123 Mn108 2.162 . S
O123 C111 1.281 . S
O124 Mn108 2.297 . S
O124 C111 1.236 . S
N125 Mn109 2.282 . S
N125 C126 1.328 . S
N125 C130 1.318 . S
C126 N125 1.328 . S
C126 C127 1.457 . S
C126 H131 0.929 . S
C127 C126 1.457 . S
C127 C128 1.291 . S
C127 H140 0.931 . S
C128 C127 1.291 . S
C128 C129 1.373 . S
C128 H141 0.929 . S
C129 C128 1.373 . S
C129 C130 1.396 . S
C129 C136 1.403 . S
C130 C120 1.476 . S
C130 N125 1.318 . S
C130 C129 1.396 . S
H131 C126 0.929 . S
O132 Mn108 2.385 . S
O132 C110 1.234 . S
O133 Mn108 2.209 . S
O133 Mn109 2.215 . S
O133 C110 1.283 . S
O134 Mn108 2.094 . S
O134 C112 1.240 . S
O135 Mn109 2.117 . S
O135 C112 1.264 . S
C136 C129 1.403 . S
C136 C137 1.399 . S
C136 H142 0.929 . S
C137 C117 1.449 . S
C137 C136 1.399 . S
C137 H143 0.930 . S
H138 C118 0.931 . S
H139 C119 0.930 . S
H140 C127 0.931 . S
H141 C128 0.929 . S
H142 C136 0.929 . S
H143 C137 0.930 . S
Mn144 O149 2.095 . S
Mn144 O159 2.162 . S
Mn144 O160 2.297 . S
Mn144 O168 2.385 . S
Mn144 O169 2.209 1_545 S
Mn144 O170 2.094 . S
Mn145 O150 2.121 1_565 S
Mn145 N152 2.257 . S
Mn145 N161 2.282 . S
Mn145 O169 2.215 . S
Mn145 O171 2.117 . S
C146 O168 1.234 1_565 S
C146 O169 1.283 . S
C147 O159 1.281 . S
C147 O160 1.236 . S
C148 O170 1.240 . S
C148 O171 1.264 1_545 S
O149 Mn144 2.095 . S
O149 C158 1.250 . S
O150 Mn145 2.121 1_545 S
O150 C158 1.258 . S
C151 N152 1.326 . S
C151 C155 1.460 . S
C151 H157 0.929 . S
N152 Mn145 2.257 . S
N152 C151 1.326 . S
N152 C156 1.362 . S
C153 C154 1.258 . S
C153 C156 1.431 . S
C153 C173 1.449 . S
C154 C153 1.258 . S
C154 C155 1.477 . S
C154 H174 0.931 . S
C155 C151 1.460 . S
C155 C154 1.477 . S
C155 H175 0.930 . S
C156 N152 1.362 . S
C156 C153 1.431 . S
C156 C166 1.476 . S
H157 C151 0.929 . S
C158 O149 1.250 . S
C158 O150 1.258 . S
O159 Mn144 2.162 . S
O159 C147 1.281 . S
O160 Mn144 2.297 . S
O160 C147 1.236 . S
N161 Mn145 2.282 . S
N161 C162 1.328 . S
N161 C166 1.318 . S
C162 N161 1.328 . S
C162 C163 1.457 . S
C162 H167 0.929 . S
C163 C162 1.457 . S
C163 C164 1.291 . S
C163 H176 0.931 . S
C164 C163 1.291 . S
C164 C165 1.373 . S
C164 H177 0.929 . S
C165 C164 1.373 . S
C165 C166 1.396 . S
C165 C172 1.403 . S
C166 C156 1.476 . S
C166 N161 1.318 . S
C166 C165 1.396 . S
H167 C162 0.929 . S
O168 Mn144 2.385 . S
O168 C146 1.234 1_545 S
O169 Mn144 2.209 1_565 S
O169 Mn145 2.215 . S
O169 C146 1.283 . S
O170 Mn144 2.094 . S
O170 C148 1.240 . S
O171 Mn145 2.117 . S
O171 C148 1.264 1_565 S
C172 C165 1.403 . S
C172 C173 1.399 . S
C172 H178 0.929 . S
C173 C153 1.449 . S
C173 C172 1.399 . S
C173 H179 0.930 . S
H174 C154 0.931 . S
H175 C155 0.930 . S
H176 C163 0.931 . S
H177 C164 0.929 . S
H178 C172 0.929 . S
H179 C173 0.930 . S
Mn180 O185 2.095 . S
Mn180 O195 2.162 . S
Mn180 O196 2.297 . S
Mn180 O204 2.385 . S
Mn180 O205 2.209 . S
Mn180 O206 2.094 . S
Mn181 O186 2.121 . S
Mn181 N188 2.257 . S
Mn181 N197 2.282 . S
Mn181 O205 2.215 . S
Mn181 O207 2.117 . S
C182 O204 1.234 . S
C182 O205 1.283 . S
C183 O195 1.281 . S
C183 O196 1.236 . S
C184 O206 1.240 . S
C184 O207 1.264 . S
O185 Mn180 2.095 . S
O185 C194 1.250 . S
O186 Mn181 2.121 . S
O186 C194 1.258 . S
C187 N188 1.326 . S
C187 C191 1.460 . S
C187 H193 0.929 . S
N188 Mn181 2.257 . S
N188 C187 1.326 . S
N188 C192 1.362 . S
C189 C190 1.258 . S
C189 C192 1.431 . S
C189 C209 1.449 . S
C190 C189 1.258 . S
C190 C191 1.477 . S
C190 H210 0.931 . S
C191 C187 1.460 . S
C191 C190 1.477 . S
C191 H211 0.930 . S
C192 N188 1.362 . S
C192 C189 1.431 . S
C192 C202 1.476 . S
H193 C187 0.929 . S
C194 O185 1.250 . S
C194 O186 1.258 . S
O195 Mn180 2.162 . S
O195 C183 1.281 . S
O196 Mn180 2.297 . S
O196 C183 1.236 . S
N197 Mn181 2.282 . S
N197 C198 1.328 . S
N197 C202 1.318 . S
C198 N197 1.328 . S
C198 C199 1.457 . S
C198 H203 0.929 . S
C199 C198 1.457 . S
C199 C200 1.291 . S
C199 H212 0.931 . S
C200 C199 1.291 . S
C200 C201 1.373 . S
C200 H213 0.929 . S
C201 C200 1.373 . S
C201 C202 1.396 . S
C201 C208 1.403 . S
C202 C192 1.476 . S
C202 N197 1.318 . S
C202 C201 1.396 . S
H203 C198 0.929 . S
O204 Mn180 2.385 . S
O204 C182 1.234 . S
O205 Mn180 2.209 . S
O205 Mn181 2.215 . S
O205 C182 1.283 . S
O206 Mn180 2.094 . S
O206 C184 1.240 . S
O207 Mn181 2.117 . S
O207 C184 1.264 . S
C208 C201 1.403 . S
C208 C209 1.399 . S
C208 H214 0.929 . S
C209 C189 1.449 . S
C209 C208 1.399 . S
C209 H215 0.930 . S
H210 C190 0.931 . S
H211 C191 0.930 . S
H212 C199 0.931 . S
H213 C200 0.929 . S
H214 C208 0.929 . S
H215 C209 0.930 . S
Mn216 O221 2.095 . S
Mn216 O231 2.162 . S
Mn216 O232 2.297 . S
Mn216 O240 2.385 . S
Mn216 O241 2.209 . S
Mn216 O242 2.094 . S
Mn217 O222 2.121 . S
Mn217 N224 2.257 . S
Mn217 N233 2.282 . S
Mn217 O241 2.215 . S
Mn217 O243 2.117 . S
C218 O240 1.234 . S
C218 O241 1.283 . S
C219 O231 1.281 . S
C219 O232 1.236 . S
C220 O242 1.240 . S
C220 O243 1.264 . S
O221 Mn216 2.095 . S
O221 C230 1.250 . S
O222 Mn217 2.121 . S
O222 C230 1.258 . S
C223 N224 1.326 . S
C223 C227 1.460 . S
C223 H229 0.929 . S
N224 Mn217 2.257 . S
N224 C223 1.326 . S
N224 C228 1.362 . S
C225 C226 1.258 . S
C225 C228 1.431 . S
C225 C245 1.449 . S
C226 C225 1.258 . S
C226 C227 1.477 . S
C226 H246 0.931 . S
C227 C223 1.460 . S
C227 C226 1.477 . S
C227 H247 0.930 . S
C228 N224 1.362 . S
C228 C225 1.431 . S
C228 C238 1.476 . S
H229 C223 0.929 . S
C230 O221 1.250 . S
C230 O222 1.258 . S
O231 Mn216 2.162 . S
O231 C219 1.281 . S
O232 Mn216 2.297 . S
O232 C219 1.236 . S
N233 Mn217 2.282 . S
N233 C234 1.328 . S
N233 C238 1.318 . S
C234 N233 1.328 . S
C234 C235 1.457 . S
C234 H239 0.929 . S
C235 C234 1.457 . S
C235 C236 1.291 . S
C235 H248 0.931 . S
C236 C235 1.291 . S
C236 C237 1.373 . S
C236 H249 0.929 . S
C237 C236 1.373 . S
C237 C238 1.396 . S
C237 C244 1.403 . S
C238 C228 1.476 . S
C238 N233 1.318 . S
C238 C237 1.396 . S
H239 C234 0.929 . S
O240 Mn216 2.385 . S
O240 C218 1.234 . S
O241 Mn216 2.209 . S
O241 Mn217 2.215 . S
O241 C218 1.283 . S
O242 Mn216 2.094 . S
O242 C220 1.240 . S
O243 Mn217 2.117 . S
O243 C220 1.264 . S
C244 C237 1.403 . S
C244 C245 1.399 . S
C244 H250 0.929 . S
C245 C225 1.449 . S
C245 C244 1.399 . S
C245 H251 0.930 . S
H246 C226 0.931 . S
H247 C227 0.930 . S
H248 C235 0.931 . S
H249 C236 0.929 . S
H250 C244 0.929 . S
H251 C245 0.930 . S
Mn252 O257 2.095 . S
Mn252 O267 2.162 . S
Mn252 O268 2.297 . S
Mn252 O276 2.385 . S
Mn252 O277 2.209 1_455 S
Mn252 O278 2.094 . S
Mn253 O258 2.121 1_655 S
Mn253 N260 2.257 . S
Mn253 N269 2.282 . S
Mn253 O277 2.215 . S
Mn253 O279 2.117 . S
C254 O276 1.234 1_655 S
C254 O277 1.283 . S
C255 O267 1.281 . S
C255 O268 1.236 . S
C256 O278 1.240 . S
C256 O279 1.264 1_455 S
O257 Mn252 2.095 . S
O257 C266 1.250 . S
O258 Mn253 2.121 1_455 S
O258 C266 1.258 . S
C259 N260 1.326 . S
C259 C263 1.460 . S
C259 H265 0.929 . S
N260 Mn253 2.257 . S
N260 C259 1.326 . S
N260 C264 1.362 . S
C261 C262 1.258 . S
C261 C264 1.431 . S
C261 C281 1.449 . S
C262 C261 1.258 . S
C262 C263 1.477 . S
C262 H282 0.931 . S
C263 C259 1.460 . S
C263 C262 1.477 . S
C263 H283 0.930 . S
C264 N260 1.362 . S
C264 C261 1.431 . S
C264 C274 1.476 . S
H265 C259 0.929 . S
C266 O257 1.250 . S
C266 O258 1.258 . S
O267 Mn252 2.162 . S
O267 C255 1.281 . S
O268 Mn252 2.297 . S
O268 C255 1.236 . S
N269 Mn253 2.282 . S
N269 C270 1.328 . S
N269 C274 1.318 . S
C270 N269 1.328 . S
C270 C271 1.457 . S
C270 H275 0.929 . S
C271 C270 1.457 . S
C271 C272 1.291 . S
C271 H284 0.931 . S
C272 C271 1.291 . S
C272 C273 1.373 . S
C272 H285 0.929 . S
C273 C272 1.373 . S
C273 C274 1.396 . S
C273 C280 1.403 . S
C274 C264 1.476 . S
C274 N269 1.318 . S
C274 C273 1.396 . S
H275 C270 0.929 . S
O276 Mn252 2.385 . S
O276 C254 1.234 1_455 S
O277 Mn252 2.209 1_655 S
O277 Mn253 2.215 . S
O277 C254 1.283 . S
O278 Mn252 2.094 . S
O278 C256 1.240 . S
O279 Mn253 2.117 . S
O279 C256 1.264 1_655 S
C280 C273 1.403 . S
C280 C281 1.399 . S
C280 H286 0.929 . S
C281 C261 1.449 . S
C281 C280 1.399 . S
C281 H287 0.930 . S
H282 C262 0.931 . S
H283 C263 0.930 . S
H284 C271 0.931 . S
H285 C272 0.929 . S
H286 C280 0.929 . S
H287 C281 0.930 . S
C288 C289 1.349 . S
C288 C290 1.327 . S
C288 H313 0.950 . S
C289 C288 1.349 . S
C289 C305 1.349 . S
C290 C288 1.327 . S
C290 C309 1.429 . S
C290 H314 0.950 . S
C291 C308 1.574 1_554 S
C291 C310 1.368 . S
C291 H315 0.949 . S
H292 C296 0.949 . S
C293 C294 1.349 . S
C293 C295 1.327 . S
C293 H316 0.950 . S
C294 C293 1.349 . S
C294 C306 1.349 . S
C295 C293 1.327 . S
C295 C311 1.429 . S
C295 H317 0.950 . S
C296 H292 0.949 . S
C296 C304 1.574 1_556 S
C296 C312 1.368 . S
H297 C305 0.950 . S
H298 C303 0.950 . S
H299 C304 0.949 . S
H300 C306 0.950 . S
H301 C307 0.950 . S
H302 C308 0.949 . S
C303 H298 0.950 . S
C303 C305 1.327 . S
C303 C309 1.429 . S
C304 C296 1.574 1_554 S
C304 H299 0.949 . S
C304 C310 1.368 . S
C305 C289 1.349 . S
C305 H297 0.950 . S
C305 C303 1.327 . S
C306 C294 1.349 . S
C306 H300 0.950 . S
C306 C307 1.327 . S
C307 H301 0.950 . S
C307 C306 1.327 . S
C307 C311 1.429 . S
C308 C291 1.574 1_556 S
C308 H302 0.949 . S
C308 C312 1.368 . S
C309 C290 1.429 . S
C309 C303 1.429 . S
C309 C310 1.523 . S
C310 C291 1.368 . S
C310 C304 1.368 . S
C310 C309 1.523 . S
C311 C295 1.429 . S
C311 C307 1.429 . S
C311 C312 1.523 . S
C312 C296 1.368 . S
C312 C308 1.368 . S
C312 C311 1.523 . S
H313 C288 0.950 . S
H314 C290 0.950 . S
H315 C291 0.949 . S
H316 C293 0.950 . S
H317 C295 0.950 . S
C318 C319 1.349 . S
C318 C320 1.327 . S
C318 H343 0.950 . S
C319 C318 1.349 . S
C319 C335 1.349 . S
C320 C318 1.327 . S
C320 C339 1.429 . S
C320 H344 0.950 . S
C321 C338 1.574 . S
C321 C340 1.368 . S
C321 H345 0.949 . S
H322 C326 0.949 . S
C323 C324 1.349 . S
C323 C325 1.327 . S
C323 H346 0.950 . S
C324 C323 1.349 . S
C324 C336 1.349 . S
C325 C323 1.327 . S
C325 C341 1.429 . S
C325 H347 0.950 . S
C326 H322 0.949 . S
C326 C334 1.574 . S
C326 C342 1.368 . S
H327 C335 0.950 . S
H328 C333 0.950 . S
H329 C334 0.949 . S
H330 C336 0.950 . S
H331 C337 0.950 . S
H332 C338 0.949 . S
C333 H328 0.950 . S
C333 C335 1.327 . S
C333 C339 1.429 . S
C334 C326 1.574 . S
C334 H329 0.949 . S
C334 C340 1.368 . S
C335 C319 1.349 . S
C335 H327 0.950 . S
C335 C333 1.327 . S
C336 C324 1.349 . S
C336 H330 0.950 . S
C336 C337 1.327 . S
C337 H331 0.950 . S
C337 C336 1.327 . S
C337 C341 1.429 . S
C338 C321 1.574 . S
C338 H332 0.949 . S
C338 C342 1.368 . S
C339 C320 1.429 . S
C339 C333 1.429 . S
C339 C340 1.523 . S
C340 C321 1.368 . S
C340 C334 1.368 . S
C340 C339 1.523 . S
C341 C325 1.429 . S
C341 C337 1.429 . S
C341 C342 1.523 . S
C342 C326 1.368 . S
C342 C338 1.368 . S
C342 C341 1.523 . S
H343 C318 0.950 . S
H344 C320 0.950 . S
H345 C321 0.949 . S
H346 C323 0.950 . S
H347 C325 0.950 . S
C348 C349 1.349 . S
C348 C350 1.327 . S
C348 H373 0.950 . S
C349 C348 1.349 . S
C349 C365 1.349 . S
C350 C348 1.327 . S
C350 C369 1.429 . S
C350 H374 0.950 . S
C351 C368 1.574 1_556 S
C351 C370 1.368 . S
C351 H375 0.949 . S
H352 C356 0.949 . S
C353 C354 1.349 . S
C353 C355 1.327 . S
C353 H376 0.950 . S
C354 C353 1.349 . S
C354 C366 1.349 . S
C355 C353 1.327 . S
C355 C371 1.429 . S
C355 H377 0.950 . S
C356 H352 0.949 . S
C356 C364 1.574 1_554 S
C356 C372 1.368 . S
H357 C365 0.950 . S
H358 C363 0.950 . S
H359 C364 0.949 . S
H360 C366 0.950 . S
H361 C367 0.950 . S
H362 C368 0.949 . S
C363 H358 0.950 . S
C363 C365 1.327 . S
C363 C369 1.429 . S
C364 C356 1.574 1_556 S
C364 H359 0.949 . S
C364 C370 1.368 . S
C365 C349 1.349 . S
C365 H357 0.950 . S
C365 C363 1.327 . S
C366 C354 1.349 . S
C366 H360 0.950 . S
C366 C367 1.327 . S
C367 H361 0.950 . S
C367 C366 1.327 . S
C367 C371 1.429 . S
C368 C351 1.574 1_554 S
C368 H362 0.949 . S
C368 C372 1.368 . S
C369 C350 1.429 . S
C369 C363 1.429 . S
C369 C370 1.523 . S
C370 C351 1.368 . S
C370 C364 1.368 . S
C370 C369 1.523 . S
C371 C355 1.429 . S
C371 C367 1.429 . S
C371 C372 1.523 . S
C372 C356 1.368 . S
C372 C368 1.368 . S
C372 C371 1.523 . S
H373 C348 0.950 . S
H374 C350 0.950 . S
H375 C351 0.949 . S
H376 C353 0.950 . S
H377 C355 0.950 . S
C378 C379 1.349 . S
C378 C380 1.327 . S
C378 H403 0.950 . S
C379 C378 1.349 . S
C379 C395 1.349 . S
C380 C378 1.327 . S
C380 C399 1.429 . S
C380 H404 0.950 . S
C381 C398 1.574 . S
C381 C400 1.368 . S
C381 H405 0.949 . S
H382 C386 0.949 . S
C383 C384 1.349 . S
C383 C385 1.327 . S
C383 H406 0.950 . S
C384 C383 1.349 . S
C384 C396 1.349 . S
C385 C383 1.327 . S
C385 C401 1.429 . S
C385 H407 0.950 . S
C386 H382 0.949 . S
C386 C394 1.574 . S
C386 C402 1.368 . S
H387 C395 0.950 . S
H388 C393 0.950 . S
H389 C394 0.949 . S
H390 C396 0.950 . S
H391 C397 0.950 . S
H392 C398 0.949 . S
C393 H388 0.950 . S
C393 C395 1.327 . S
C393 C399 1.429 . S
C394 C386 1.574 . S
C394 H389 0.949 . S
C394 C400 1.368 . S
C395 C379 1.349 . S
C395 H387 0.950 . S
C395 C393 1.327 . S
C396 C384 1.349 . S
C396 H390 0.950 . S
C396 C397 1.327 . S
C397 H391 0.950 . S
C397 C396 1.327 . S
C397 C401 1.429 . S
C398 C381 1.574 . S
C398 H392 0.949 . S
C398 C402 1.368 . S
C399 C380 1.429 . S
C399 C393 1.429 . S
C399 C400 1.523 . S
C400 C381 1.368 . S
C400 C394 1.368 . S
C400 C399 1.523 . S
C401 C385 1.429 . S
C401 C397 1.429 . S
C401 C402 1.523 . S
C402 C386 1.368 . S
C402 C398 1.368 . S
C402 C401 1.523 . S
H403 C378 0.950 . S
H404 C380 0.950 . S
H405 C381 0.949 . S
H406 C383 0.950 . S
H407 C385 0.950 . S
C408 C409 1.349 . S
C408 C410 1.327 . S
C408 H433 0.950 . S
C409 C408 1.349 . S
C409 C425 1.349 . S
C410 C408 1.327 . S
C410 C429 1.429 . S
C410 H434 0.950 . S
C411 C428 1.574 . S
C411 C430 1.368 . S
C411 H435 0.949 . S
H412 C416 0.949 . S
C413 C414 1.349 . S
C413 C415 1.327 . S
C413 H436 0.950 1_545 S
C414 C413 1.349 . S
C414 C426 1.349 . S
C415 C413 1.327 . S
C415 C431 1.429 . S
C415 H437 0.950 . S
C416 H412 0.949 . S
C416 C424 1.574 . S
C416 C432 1.368 . S
H417 C425 0.950 . S
H418 C423 0.950 . S
H419 C424 0.949 . S
H420 C426 0.950 . S
H421 C427 0.950 . S
H422 C428 0.949 . S
C423 H418 0.950 . S
C423 C425 1.327 . S
C423 C429 1.429 . S
C424 C416 1.574 . S
C424 H419 0.949 . S
C424 C430 1.368 . S
C425 C409 1.349 . S
C425 H417 0.950 . S
C425 C423 1.327 . S
C426 C414 1.349 . S
C426 H420 0.950 . S
C426 C427 1.327 . S
C427 H421 0.950 . S
C427 C426 1.327 . S
C427 C431 1.429 . S
C428 C411 1.574 . S
C428 H422 0.949 . S
C428 C432 1.368 . S
C429 C410 1.429 . S
C429 C423 1.429 . S
C429 C430 1.523 . S
C430 C411 1.368 . S
C430 C424 1.368 . S
C430 C429 1.523 . S
C431 C415 1.429 . S
C431 C427 1.429 . S
C431 C432 1.523 . S
C432 C416 1.368 . S
C432 C428 1.368 . S
C432 C431 1.523 . S
H433 C408 0.950 . S
H434 C410 0.950 . S
H435 C411 0.949 . S
H436 C413 0.950 1_565 S
H437 C415 0.950 . S
C438 C439 1.349 . S
C438 C440 1.327 . S
C438 H463 0.950 . S
C439 C438 1.349 . S
C439 C455 1.349 . S
C440 C438 1.327 . S
C440 C459 1.429 . S
C440 H464 0.950 . S
C441 C458 1.574 . S
C441 C460 1.368 . S
C441 H465 0.949 . S
H442 C446 0.949 . S
C443 C444 1.349 . S
C443 C445 1.327 . S
C443 H466 0.950 . S
C444 C443 1.349 . S
C444 C456 1.349 . S
C445 C443 1.327 . S
C445 C461 1.429 . S
C445 H467 0.950 . S
C446 H442 0.949 . S
C446 C454 1.574 . S
C446 C462 1.368 . S
H447 C455 0.950 1_655 S
H448 C453 0.950 . S
H449 C454 0.949 . S
H450 C456 0.950 . S
H451 C457 0.950 . S
H452 C458 0.949 . S
C453 H448 0.950 . S
C453 C455 1.327 . S
C453 C459 1.429 . S
C454 C446 1.574 . S
C454 H449 0.949 . S
C454 C460 1.368 . S
C455 C439 1.349 . S
C455 H447 0.950 1_455 S
C455 C453 1.327 . S
C456 C444 1.349 . S
C456 H450 0.950 . S
C456 C457 1.327 . S
C457 H451 0.950 . S
C457 C456 1.327 . S
C457 C461 1.429 . S
C458 C441 1.574 . S
C458 H452 0.949 . S
C458 C462 1.368 . S
C459 C440 1.429 . S
C459 C453 1.429 . S
C459 C460 1.523 . S
C460 C441 1.368 . S
C460 C454 1.368 . S
C460 C459 1.523 . S
C461 C445 1.429 . S
C461 C457 1.429 . S
C461 C462 1.523 . S
C462 C446 1.368 . S
C462 C458 1.368 . S
C462 C461 1.523 . S
H463 C438 0.950 . S
H464 C440 0.950 . S
H465 C441 0.949 . S
H466 C443 0.950 . S
H467 C445 0.950 . S
C468 C469 1.349 . S
C468 C470 1.327 . S
C468 H493 0.950 . S
C469 C468 1.349 . S
C469 C485 1.349 . S
C470 C468 1.327 . S
C470 C489 1.429 . S
C470 H494 0.950 . S
C471 C488 1.574 . S
C471 C490 1.368 . S
C471 H495 0.949 . S
H472 C476 0.949 . S
C473 C474 1.349 . S
C473 C475 1.327 . S
C473 H496 0.950 . S
C474 C473 1.349 . S
C474 C486 1.349 . S
C475 C473 1.327 . S
C475 C491 1.429 . S
C475 H497 0.950 . S
C476 H472 0.949 . S
C476 C484 1.574 . S
C476 C492 1.368 . S
H477 C485 0.950 . S
H478 C483 0.950 . S
H479 C484 0.949 . S
H480 C486 0.950 1_565 S
H481 C487 0.950 . S
H482 C488 0.949 . S
C483 H478 0.950 . S
C483 C485 1.327 . S
C483 C489 1.429 . S
C484 C476 1.574 . S
C484 H479 0.949 . S
C484 C490 1.368 . S
C485 C469 1.349 . S
C485 H477 0.950 . S
C485 C483 1.327 . S
C486 C474 1.349 . S
C486 H480 0.950 1_545 S
C486 C487 1.327 . S
C487 H481 0.950 . S
C487 C486 1.327 . S
C487 C491 1.429 . S
C488 C471 1.574 . S
C488 H482 0.949 . S
C488 C492 1.368 . S
C489 C470 1.429 . S
C489 C483 1.429 . S
C489 C490 1.523 . S
C490 C471 1.368 . S
C490 C484 1.368 . S
C490 C489 1.523 . S
C491 C475 1.429 . S
C491 C487 1.429 . S
C491 C492 1.523 . S
C492 C476 1.368 . S
C492 C488 1.368 . S
C492 C491 1.523 . S
H493 C468 0.950 . S
H494 C470 0.950 . S
H495 C471 0.949 . S
H496 C473 0.950 . S
H497 C475 0.950 . S
C498 C499 1.349 . S
C498 C500 1.327 . S
C498 H523 0.950 . S
C499 C498 1.349 . S
C499 C515 1.349 . S
C500 C498 1.327 . S
C500 C519 1.429 . S
C500 H524 0.950 . S
C501 C518 1.574 . S
C501 C520 1.368 . S
C501 H525 0.949 . S
H502 C506 0.949 . S
C503 C504 1.349 . S
C503 C505 1.327 . S
C503 H526 0.950 . S
C504 C503 1.349 . S
C504 C516 1.349 . S
C505 C503 1.327 . S
C505 C521 1.429 . S
C505 H527 0.950 . S
C506 H502 0.949 . S
C506 C514 1.574 . S
C506 C522 1.368 . S
H507 C515 0.950 . S
H508 C513 0.950 . S
H509 C514 0.949 . S
H510 C516 0.950 1_655 S
H511 C517 0.950 . S
H512 C518 0.949 . S
C513 H508 0.950 . S
C513 C515 1.327 . S
C513 C519 1.429 . S
C514 C506 1.574 . S
C514 H509 0.949 . S
C514 C520 1.368 . S
C515 C499 1.349 . S
C515 H507 0.950 . S
C515 C513 1.327 . S
C516 C504 1.349 . S
C516 H510 0.950 1_455 S
C516 C517 1.327 . S
C517 H511 0.950 . S
C517 C516 1.327 . S
C517 C521 1.429 . S
C518 C501 1.574 . S
C518 H512 0.949 . S
C518 C522 1.368 . S
C519 C500 1.429 . S
C519 C513 1.429 . S
C519 C520 1.523 . S
C520 C501 1.368 . S
C520 C514 1.368 . S
C520 C519 1.523 . S
C521 C505 1.429 . S
C521 C517 1.429 . S
C521 C522 1.523 . S
C522 C506 1.368 . S
C522 C518 1.368 . S
C522 C521 1.523 . S
H523 C498 0.950 . S
H524 C500 0.950 . S
H525 C501 0.949 . S
H526 C503 0.950 . S
H527 C505 0.950 . S
C528 C529 1.349 . S
C528 C530 1.327 . S
C528 H553 0.950 . S
C529 C528 1.349 . S
C529 C545 1.349 . S
C530 C528 1.327 . S
C530 C549 1.429 . S
C530 H554 0.950 . S
C531 C548 1.574 . S
C531 C550 1.368 . S
C531 H555 0.949 . S
H532 C536 0.949 . S
C533 C534 1.349 . S
C533 C535 1.327 . S
C533 H556 0.950 . S
C534 C533 1.349 . S
C534 C546 1.349 . S
C535 C533 1.327 . S
C535 C551 1.429 . S
C535 H557 0.950 . S
C536 H532 0.949 . S
C536 C544 1.574 . S
C536 C552 1.368 . S
H537 C545 0.950 . S
H538 C543 0.950 . S
H539 C544 0.949 . S
H540 C546 0.950 . S
H541 C547 0.950 . S
H542 C548 0.949 . S
C543 H538 0.950 . S
C543 C545 1.327 . S
C543 C549 1.429 . S
C544 C536 1.574 . S
C544 H539 0.949 . S
C544 C550 1.368 . S
C545 C529 1.349 . S
C545 H537 0.950 . S
C545 C543 1.327 . S
C546 C534 1.349 . S
C546 H540 0.950 . S
C546 C547 1.327 . S
C547 H541 0.950 . S
C547 C546 1.327 . S
C547 C551 1.429 . S
C548 C531 1.574 . S
C548 H542 0.949 . S
C548 C552 1.368 . S
C549 C530 1.429 . S
C549 C543 1.429 . S
C549 C550 1.523 . S
C550 C531 1.368 . S
C550 C544 1.368 . S
C550 C549 1.523 . S
C551 C535 1.429 . S
C551 C547 1.429 . S
C551 C552 1.523 . S
C552 C536 1.368 . S
C552 C548 1.368 . S
C552 C551 1.523 . S
H553 C528 0.950 . S
H554 C530 0.950 . S
H555 C531 0.949 . S
H556 C533 0.950 . S
H557 C535 0.950 . S
C558 C559 1.349 . S
C558 C560 1.327 . S
C558 H583 0.950 . S
C559 C558 1.349 . S
C559 C575 1.349 . S
C560 C558 1.327 . S
C560 C579 1.429 . S
C560 H584 0.950 . S
C561 C578 1.574 . S
C561 C580 1.368 . S
C561 H585 0.949 . S
H562 C566 0.949 . S
C563 C564 1.349 . S
C563 C565 1.327 . S
C563 H586 0.950 . S
C564 C563 1.349 . S
C564 C576 1.349 . S
C565 C563 1.327 . S
C565 C581 1.429 . S
C565 H587 0.950 . S
C566 H562 0.949 . S
C566 C574 1.574 . S
C566 C582 1.368 . S
H567 C575 0.950 . S
H568 C573 0.950 . S
H569 C574 0.949 . S
H570 C576 0.950 . S
H571 C577 0.950 . S
H572 C578 0.949 . S
C573 H568 0.950 . S
C573 C575 1.327 . S
C573 C579 1.429 . S
C574 C566 1.574 . S
C574 H569 0.949 . S
C574 C580 1.368 . S
C575 C559 1.349 . S
C575 H567 0.950 . S
C575 C573 1.327 . S
C576 C564 1.349 . S
C576 H570 0.950 . S
C576 C577 1.327 . S
C577 H571 0.950 . S
C577 C576 1.327 . S
C577 C581 1.429 . S
C578 C561 1.574 . S
C578 H572 0.949 . S
C578 C582 1.368 . S
C579 C560 1.429 . S
C579 C573 1.429 . S
C579 C580 1.523 . S
C580 C561 1.368 . S
C580 C574 1.368 . S
C580 C579 1.523 . S
C581 C565 1.429 . S
C581 C577 1.429 . S
C581 C582 1.523 . S
C582 C566 1.368 . S
C582 C578 1.368 . S
C582 C581 1.523 . S
H583 C558 0.950 . S
H584 C560 0.950 . S
H585 C561 0.949 . S
H586 C563 0.950 . S
H587 C565 0.950 . S
C588 C589 1.349 . S
C588 C590 1.327 . S
C588 H613 0.950 . S
C589 C588 1.349 . S
C589 C605 1.349 . S
C590 C588 1.327 . S
C590 C609 1.429 . S
C590 H614 0.950 . S
C591 C608 1.574 . S
C591 C610 1.368 . S
C591 H615 0.949 . S
H592 C596 0.949 . S
C593 C594 1.349 . S
C593 C595 1.327 . S
C593 H616 0.950 . S
C594 C593 1.349 . S
C594 C606 1.349 . S
C595 C593 1.327 . S
C595 C611 1.429 . S
C595 H617 0.950 . S
C596 H592 0.949 . S
C596 C604 1.574 . S
C596 C612 1.368 . S
H597 C605 0.950 . S
H598 C603 0.950 . S
H599 C604 0.949 . S
H600 C606 0.950 . S
H601 C607 0.950 . S
H602 C608 0.949 . S
C603 H598 0.950 . S
C603 C605 1.327 . S
C603 C609 1.429 . S
C604 C596 1.574 . S
C604 H599 0.949 . S
C604 C610 1.368 . S
C605 C589 1.349 . S
C605 H597 0.950 . S
C605 C603 1.327 . S
C606 C594 1.349 . S
C606 H600 0.950 . S
C606 C607 1.327 . S
C607 H601 0.950 . S
C607 C606 1.327 . S
C607 C611 1.429 . S
C608 C591 1.574 . S
C608 H602 0.949 . S
C608 C612 1.368 . S
C609 C590 1.429 . S
C609 C603 1.429 . S
C609 C610 1.523 . S
C610 C591 1.368 . S
C610 C604 1.368 . S
C610 C609 1.523 . S
C611 C595 1.429 . S
C611 C607 1.429 . S
C611 C612 1.523 . S
C612 C596 1.368 . S
C612 C608 1.368 . S
C612 C611 1.523 . S
H613 C588 0.950 . S
H614 C590 0.950 . S
H615 C591 0.949 . S
H616 C593 0.950 . S
H617 C595 0.950 . S
C618 C619 1.349 . S
C618 C620 1.327 . S
C618 H643 0.950 . S
C619 C618 1.349 . S
C619 C635 1.349 . S
C620 C618 1.327 . S
C620 C639 1.429 . S
C620 H644 0.950 . S
C621 C638 1.574 . S
C621 C640 1.368 . S
C621 H645 0.949 . S
H622 C626 0.949 . S
C623 C624 1.349 . S
C623 C625 1.327 . S
C623 H646 0.950 . S
C624 C623 1.349 . S
C624 C636 1.349 . S
C625 C623 1.327 . S
C625 C641 1.429 . S
C625 H647 0.950 . S
C626 H622 0.949 . S
C626 C634 1.574 . S
C626 C642 1.368 . S
H627 C635 0.950 . S
H628 C633 0.950 . S
H629 C634 0.949 . S
H630 C636 0.950 . S
H631 C637 0.950 . S
H632 C638 0.949 . S
C633 H628 0.950 . S
C633 C635 1.327 . S
C633 C639 1.429 . S
C634 C626 1.574 . S
C634 H629 0.949 . S
C634 C640 1.368 . S
C635 C619 1.349 . S
C635 H627 0.950 . S
C635 C633 1.327 . S
C636 C624 1.349 . S
C636 H630 0.950 . S
C636 C637 1.327 . S
C637 H631 0.950 . S
C637 C636 1.327 . S
C637 C641 1.429 . S
C638 C621 1.574 . S
C638 H632 0.949 . S
C638 C642 1.368 . S
C639 C620 1.429 . S
C639 C633 1.429 . S
C639 C640 1.523 . S
C640 C621 1.368 . S
C640 C634 1.368 . S
C640 C639 1.523 . S
C641 C625 1.429 . S
C641 C637 1.429 . S
C641 C642 1.523 . S
C642 C626 1.368 . S
C642 C638 1.368 . S
C642 C641 1.523 . S
H643 C618 0.950 . S
H644 C620 0.950 . S
H645 C621 0.949 . S
H646 C623 0.950 . S
H647 C625 0.950 . S
C648 C649 1.349 . S
C648 C650 1.327 . S
C648 H673 0.950 . S
C649 C648 1.349 . S
C649 C665 1.349 . S
C650 C648 1.327 . S
C650 C669 1.429 . S
C650 H674 0.950 . S
C651 C668 1.574 . S
C651 C670 1.368 . S
C651 H675 0.949 . S
H652 C656 0.949 . S
C653 C654 1.349 . S
C653 C655 1.327 . S
C653 H676 0.950 1_655 S
C654 C653 1.349 . S
C654 C666 1.349 . S
C655 C653 1.327 . S
C655 C671 1.429 . S
C655 H677 0.950 . S
C656 H652 0.949 . S
C656 C664 1.574 . S
C656 C672 1.368 . S
H657 C665 0.950 1_545 S
H658 C663 0.950 . S
H659 C664 0.949 . S
H660 C666 0.950 . S
H661 C667 0.950 . S
H662 C668 0.949 . S
C663 H658 0.950 . S
C663 C665 1.327 . S
C663 C669 1.429 . S
C664 C656 1.574 . S
C664 H659 0.949 . S
C664 C670 1.368 . S
C665 C649 1.349 . S
C665 H657 0.950 1_565 S
C665 C663 1.327 . S
C666 C654 1.349 . S
C666 H660 0.950 . S
C666 C667 1.327 . S
C667 H661 0.950 . S
C667 C666 1.327 . S
C667 C671 1.429 . S
C668 C651 1.574 . S
C668 H662 0.949 . S
C668 C672 1.368 . S
C669 C650 1.429 . S
C669 C663 1.429 . S
C669 C670 1.523 . S
C670 C651 1.368 . S
C670 C664 1.368 . S
C670 C669 1.523 . S
C671 C655 1.429 . S
C671 C667 1.429 . S
C671 C672 1.523 . S
C672 C656 1.368 . S
C672 C668 1.368 . S
C672 C671 1.523 . S
H673 C648 0.950 . S
H674 C650 0.950 . S
H675 C651 0.949 . S
H676 C653 0.950 1_455 S
H677 C655 0.950 . S
C678 C679 1.349 . S
C678 C680 1.327 . S
C678 H703 0.950 . S
C679 C678 1.349 . S
C679 C695 1.349 . S
C680 C678 1.327 . S
C680 C699 1.429 . S
C680 H704 0.950 . S
C681 C698 1.574 . S
C681 C700 1.368 . S
C681 H705 0.949 . S
H682 C686 0.949 . S
C683 C684 1.349 . S
C683 C685 1.327 . S
C683 H706 0.950 . S
C684 C683 1.349 . S
C684 C696 1.349 . S
C685 C683 1.327 . S
C685 C701 1.429 . S
C685 H707 0.950 . S
C686 H682 0.949 . S
C686 C694 1.574 . S
C686 C702 1.368 . S
H687 C695 0.950 1_545 S
H688 C693 0.950 . S
H689 C694 0.949 . S
H690 C696 0.950 . S
H691 C697 0.950 . S
H692 C698 0.949 . S
C693 H688 0.950 . S
C693 C695 1.327 . S
C693 C699 1.429 . S
C694 C686 1.574 . S
C694 H689 0.949 . S
C694 C700 1.368 . S
C695 C679 1.349 . S
C695 H687 0.950 1_565 S
C695 C693 1.327 . S
C696 C684 1.349 . S
C696 H690 0.950 . S
C696 C697 1.327 . S
C697 H691 0.950 . S
C697 C696 1.327 . S
C697 C701 1.429 . S
C698 C681 1.574 . S
C698 H692 0.949 . S
C698 C702 1.368 . S
C699 C680 1.429 . S
C699 C693 1.429 . S
C699 C700 1.523 . S
C700 C681 1.368 . S
C700 C694 1.368 . S
C700 C699 1.523 . S
C701 C685 1.429 . S
C701 C697 1.429 . S
C701 C702 1.523 . S
C702 C686 1.368 . S
C702 C698 1.368 . S
C702 C701 1.523 . S
H703 C678 0.950 . S
H704 C680 0.950 . S
H705 C681 0.949 . S
H706 C683 0.950 . S
H707 C685 0.950 . S
C708 C709 1.349 . S
C708 C710 1.327 . S
C708 H733 0.950 . S
C709 C708 1.349 . S
C709 C725 1.349 . S
C710 C708 1.327 . S
C710 C729 1.429 . S
C710 H734 0.950 . S
C711 C728 1.574 . S
C711 C730 1.368 . S
C711 H735 0.949 . S
H712 C716 0.949 . S
C713 C714 1.349 . S
C713 C715 1.327 . S
C713 H736 0.950 . S
C714 C713 1.349 . S
C714 C726 1.349 . S
C715 C713 1.327 . S
C715 C731 1.429 . S
C715 H737 0.950 . S
C716 H712 0.949 . S
C716 C724 1.574 . S
C716 C732 1.368 . S
H717 C725 0.950 . S
H718 C723 0.950 . S
H719 C724 0.949 . S
H720 C726 0.950 . S
H721 C727 0.950 . S
H722 C728 0.949 . S
C723 H718 0.950 . S
C723 C725 1.327 . S
C723 C729 1.429 . S
C724 C716 1.574 . S
C724 H719 0.949 . S
C724 C730 1.368 . S
C725 C709 1.349 . S
C725 H717 0.950 . S
C725 C723 1.327 . S
C726 C714 1.349 . S
C726 H720 0.950 . S
C726 C727 1.327 . S
C727 H721 0.950 . S
C727 C726 1.327 . S
C727 C731 1.429 . S
C728 C711 1.574 . S
C728 H722 0.949 . S
C728 C732 1.368 . S
C729 C710 1.429 . S
C729 C723 1.429 . S
C729 C730 1.523 . S
C730 C711 1.368 . S
C730 C724 1.368 . S
C730 C729 1.523 . S
C731 C715 1.429 . S
C731 C727 1.429 . S
C731 C732 1.523 . S
C732 C716 1.368 . S
C732 C728 1.368 . S
C732 C731 1.523 . S
H733 C708 0.950 . S
H734 C710 0.950 . S
H735 C711 0.949 . S
H736 C713 0.950 . S
H737 C715 0.950 . S
C738 C739 1.349 . S
C738 C740 1.327 . S
C738 H763 0.950 1_655 S
C739 C738 1.349 . S
C739 C755 1.349 . S
C740 C738 1.327 . S
C740 C759 1.429 . S
C740 H764 0.950 . S
C741 C758 1.574 . S
C741 C760 1.368 . S
C741 H765 0.949 . S
H742 C746 0.949 . S
C743 C744 1.349 . S
C743 C745 1.327 . S
C743 H766 0.950 . S
C744 C743 1.349 . S
C744 C756 1.349 . S
C745 C743 1.327 . S
C745 C761 1.429 . S
C745 H767 0.950 . S
C746 H742 0.949 . S
C746 C754 1.574 . S
C746 C762 1.368 . S
H747 C755 0.950 . S
H748 C753 0.950 . S
H749 C754 0.949 . S
H750 C756 0.950 . S
H751 C757 0.950 . S
H752 C758 0.949 . S
C753 H748 0.950 . S
C753 C755 1.327 . S
C753 C759 1.429 . S
C754 C746 1.574 . S
C754 H749 0.949 . S
C754 C760 1.368 . S
C755 C739 1.349 . S
C755 H747 0.950 . S
C755 C753 1.327 . S
C756 C744 1.349 . S
C756 H750 0.950 . S
C756 C757 1.327 . S
C757 H751 0.950 . S
C757 C756 1.327 . S
C757 C761 1.429 . S
C758 C741 1.574 . S
C758 H752 0.949 . S
C758 C762 1.368 . S
C759 C740 1.429 . S
C759 C753 1.429 . S
C759 C760 1.523 . S
C760 C741 1.368 . S
C760 C754 1.368 . S
C760 C759 1.523 . S
C761 C745 1.429 . S
C761 C757 1.429 . S
C761 C762 1.523 . S
C762 C746 1.368 . S
C762 C758 1.368 . S
C762 C761 1.523 . S
H763 C738 0.950 1_455 S
H764 C740 0.950 . S
H765 C741 0.949 . S
H766 C743 0.950 . S
H767 C745 0.950 . S
C289 C14 1.521 . S
C294 C158 1.521 . S
C319 C50 1.521 . S
C324 C194 1.521 . S
C349 C230 1.521 . S
C354 C86 1.521 . S
C379 C266 1.521 . S
C384 C122 1.521 . S
C409 C4 1.122 . S
C414 C76 1.122 . S
C439 C40 1.122 . S
C444 C112 1.122 . S
C469 C220 1.122 . S
C474 C148 1.122 . S
C499 C184 1.122 . S
C504 C256 1.122 . S
C529 C182 1.146 . S
C534 C2 1.146 . S
C559 C38 1.146 . S
C564 C218 1.146 . S
C589 C254 1.146 . S
C594 C74 1.146 . S
C619 C110 1.146 . S
C624 C146 1.146 . S
C649 C219 1.303 1_565 S
C654 C111 1.303 1_655 S
C679 C3 1.303 1_565 S
C684 C255 1.303 . S
C709 C39 1.303 . S
C714 C147 1.303 . S
C739 C183 1.303 1_655 S
C744 C75 1.303 . S
