# Generated by pormake.
# Topology sod-f, (3)-cn, num edge types: 1
# Building blocks:
#     Node 0, Type 0, BuildingBlock: OLANEW_clean_sbu_2, # of connection points: 3
#     Node 1, Type 0, BuildingBlock: OLANEW_clean_sbu_2, # of connection points: 3
#     Node 2, Type 0, BuildingBlock: OLANEW_clean_sbu_2, # of connection points: 3
#     Node 3, Type 0, BuildingBlock: OLANEW_clean_sbu_2, # of connection points: 3
#     Node 4, Type 0, BuildingBlock: OLANEW_clean_sbu_2, # of connection points: 3
#     Node 5, Type 0, BuildingBlock: OLANEW_clean_sbu_2, # of connection points: 3
#     Node 6, Type 0, BuildingBlock: OLANEW_clean_sbu_2, # of connection points: 3
#     Node 7, Type 0, BuildingBlock: OLANEW_clean_sbu_2, # of connection points: 3
#     Node 8, Type 0, BuildingBlock: OLANEW_clean_sbu_2, # of connection points: 3
#     Node 9, Type 0, BuildingBlock: OLANEW_clean_sbu_2, # of connection points: 3
#     Node 10, Type 0, BuildingBlock: OLANEW_clean_sbu_2, # of connection points: 3
#     Node 11, Type 0, BuildingBlock: OLANEW_clean_sbu_2, # of connection points: 3
#     Node 12, Type 0, BuildingBlock: OLANEW_clean_sbu_2, # of connection points: 3
#     Node 13, Type 0, BuildingBlock: OLANEW_clean_sbu_2, # of connection points: 3
#     Node 14, Type 0, BuildingBlock: OLANEW_clean_sbu_2, # of connection points: 3
#     Node 15, Type 0, BuildingBlock: OLANEW_clean_sbu_2, # of connection points: 3
#     Node 16, Type 0, BuildingBlock: OLANEW_clean_sbu_2, # of connection points: 3
#     Node 17, Type 0, BuildingBlock: OLANEW_clean_sbu_2, # of connection points: 3
#     Node 18, Type 0, BuildingBlock: OLANEW_clean_sbu_2, # of connection points: 3
#     Node 19, Type 0, BuildingBlock: OLANEW_clean_sbu_2, # of connection points: 3
#     Node 20, Type 0, BuildingBlock: OLANEW_clean_sbu_2, # of connection points: 3
#     Node 21, Type 0, BuildingBlock: OLANEW_clean_sbu_2, # of connection points: 3
#     Node 22, Type 0, BuildingBlock: OLANEW_clean_sbu_2, # of connection points: 3
#     Node 23, Type 0, BuildingBlock: OLANEW_clean_sbu_2, # of connection points: 3
#     Node 24, Type 0, BuildingBlock: OLANEW_clean_sbu_2, # of connection points: 3
#     Node 25, Type 0, BuildingBlock: OLANEW_clean_sbu_2, # of connection points: 3
#     Node 26, Type 0, BuildingBlock: OLANEW_clean_sbu_2, # of connection points: 3
#     Node 27, Type 0, BuildingBlock: OLANEW_clean_sbu_2, # of connection points: 3
#     Node 28, Type 0, BuildingBlock: OLANEW_clean_sbu_2, # of connection points: 3
#     Node 29, Type 0, BuildingBlock: OLANEW_clean_sbu_2, # of connection points: 3
#     Node 30, Type 0, BuildingBlock: OLANEW_clean_sbu_2, # of connection points: 3
#     Node 31, Type 0, BuildingBlock: OLANEW_clean_sbu_2, # of connection points: 3
#     Node 32, Type 0, BuildingBlock: OLANEW_clean_sbu_2, # of connection points: 3
#     Node 33, Type 0, BuildingBlock: OLANEW_clean_sbu_2, # of connection points: 3
#     Node 34, Type 0, BuildingBlock: OLANEW_clean_sbu_2, # of connection points: 3
#     Node 35, Type 0, BuildingBlock: OLANEW_clean_sbu_2, # of connection points: 3
#     Node 36, Type 0, BuildingBlock: OLANEW_clean_sbu_2, # of connection points: 3
#     Node 37, Type 0, BuildingBlock: OLANEW_clean_sbu_2, # of connection points: 3
#     Node 38, Type 0, BuildingBlock: OLANEW_clean_sbu_2, # of connection points: 3
#     Node 39, Type 0, BuildingBlock: OLANEW_clean_sbu_2, # of connection points: 3
#     Node 40, Type 0, BuildingBlock: OLANEW_clean_sbu_2, # of connection points: 3
#     Node 41, Type 0, BuildingBlock: OLANEW_clean_sbu_2, # of connection points: 3
#     Node 42, Type 0, BuildingBlock: OLANEW_clean_sbu_2, # of connection points: 3
#     Node 43, Type 0, BuildingBlock: OLANEW_clean_sbu_2, # of connection points: 3
#     Node 44, Type 0, BuildingBlock: OLANEW_clean_sbu_2, # of connection points: 3
#     Node 45, Type 0, BuildingBlock: OLANEW_clean_sbu_2, # of connection points: 3
#     Node 46, Type 0, BuildingBlock: OLANEW_clean_sbu_2, # of connection points: 3
#     Node 47, Type 0, BuildingBlock: OLANEW_clean_sbu_2, # of connection points: 3
#     Edge 48, Type (0, 0), BuildingBlock: OJICUG_clean_linker_0, # of connection points: 2
#     Edge 49, Type (0, 0), BuildingBlock: OJICUG_clean_linker_0, # of connection points: 2
#     Edge 50, Type (0, 0), BuildingBlock: OJICUG_clean_linker_0, # of connection points: 2
#     Edge 51, Type (0, 0), BuildingBlock: OJICUG_clean_linker_0, # of connection points: 2
#     Edge 52, Type (0, 0), BuildingBlock: OJICUG_clean_linker_0, # of connection points: 2
#     Edge 53, Type (0, 0), BuildingBlock: OJICUG_clean_linker_0, # of connection points: 2
#     Edge 54, Type (0, 0), BuildingBlock: OJICUG_clean_linker_0, # of connection points: 2
#     Edge 55, Type (0, 0), BuildingBlock: OJICUG_clean_linker_0, # of connection points: 2
#     Edge 56, Type (0, 0), BuildingBlock: OJICUG_clean_linker_0, # of connection points: 2
#     Edge 57, Type (0, 0), BuildingBlock: OJICUG_clean_linker_0, # of connection points: 2
#     Edge 58, Type (0, 0), BuildingBlock: OJICUG_clean_linker_0, # of connection points: 2
#     Edge 59, Type (0, 0), BuildingBlock: OJICUG_clean_linker_0, # of connection points: 2
#     Edge 60, Type (0, 0), BuildingBlock: OJICUG_clean_linker_0, # of connection points: 2
#     Edge 61, Type (0, 0), BuildingBlock: OJICUG_clean_linker_0, # of connection points: 2
#     Edge 62, Type (0, 0), BuildingBlock: OJICUG_clean_linker_0, # of connection points: 2
#     Edge 63, Type (0, 0), BuildingBlock: OJICUG_clean_linker_0, # of connection points: 2
#     Edge 64, Type (0, 0), BuildingBlock: OJICUG_clean_linker_0, # of connection points: 2
#     Edge 65, Type (0, 0), BuildingBlock: OJICUG_clean_linker_0, # of connection points: 2
#     Edge 66, Type (0, 0), BuildingBlock: OJICUG_clean_linker_0, # of connection points: 2
#     Edge 67, Type (0, 0), BuildingBlock: OJICUG_clean_linker_0, # of connection points: 2
#     Edge 68, Type (0, 0), BuildingBlock: OJICUG_clean_linker_0, # of connection points: 2
#     Edge 69, Type (0, 0), BuildingBlock: OJICUG_clean_linker_0, # of connection points: 2
#     Edge 70, Type (0, 0), BuildingBlock: OJICUG_clean_linker_0, # of connection points: 2
#     Edge 71, Type (0, 0), BuildingBlock: OJICUG_clean_linker_0, # of connection points: 2
#     Edge 72, Type (0, 0), BuildingBlock: OJICUG_clean_linker_0, # of connection points: 2
#     Edge 73, Type (0, 0), BuildingBlock: OJICUG_clean_linker_0, # of connection points: 2
#     Edge 74, Type (0, 0), BuildingBlock: OJICUG_clean_linker_0, # of connection points: 2
#     Edge 75, Type (0, 0), BuildingBlock: OJICUG_clean_linker_0, # of connection points: 2
#     Edge 76, Type (0, 0), BuildingBlock: OJICUG_clean_linker_0, # of connection points: 2
#     Edge 77, Type (0, 0), BuildingBlock: OJICUG_clean_linker_0, # of connection points: 2
#     Edge 78, Type (0, 0), BuildingBlock: OJICUG_clean_linker_0, # of connection points: 2
#     Edge 79, Type (0, 0), BuildingBlock: OJICUG_clean_linker_0, # of connection points: 2
#     Edge 80, Type (0, 0), BuildingBlock: OJICUG_clean_linker_0, # of connection points: 2
#     Edge 81, Type (0, 0), BuildingBlock: OJICUG_clean_linker_0, # of connection points: 2
#     Edge 82, Type (0, 0), BuildingBlock: OJICUG_clean_linker_0, # of connection points: 2
#     Edge 83, Type (0, 0), BuildingBlock: OJICUG_clean_linker_0, # of connection points: 2
#     Edge 84, Type (0, 0), BuildingBlock: OJICUG_clean_linker_0, # of connection points: 2
#     Edge 85, Type (0, 0), BuildingBlock: OJICUG_clean_linker_0, # of connection points: 2
#     Edge 86, Type (0, 0), BuildingBlock: OJICUG_clean_linker_0, # of connection points: 2
#     Edge 87, Type (0, 0), BuildingBlock: OJICUG_clean_linker_0, # of connection points: 2
#     Edge 88, Type (0, 0), BuildingBlock: OJICUG_clean_linker_0, # of connection points: 2
#     Edge 89, Type (0, 0), BuildingBlock: OJICUG_clean_linker_0, # of connection points: 2
#     Edge 90, Type (0, 0), BuildingBlock: OJICUG_clean_linker_0, # of connection points: 2
#     Edge 91, Type (0, 0), BuildingBlock: OJICUG_clean_linker_0, # of connection points: 2
#     Edge 92, Type (0, 0), BuildingBlock: OJICUG_clean_linker_0, # of connection points: 2
#     Edge 93, Type (0, 0), BuildingBlock: OJICUG_clean_linker_0, # of connection points: 2
#     Edge 94, Type (0, 0), BuildingBlock: OJICUG_clean_linker_0, # of connection points: 2
#     Edge 95, Type (0, 0), BuildingBlock: OJICUG_clean_linker_0, # of connection points: 2
#     Edge 96, Type (0, 0), BuildingBlock: OJICUG_clean_linker_0, # of connection points: 2
#     Edge 97, Type (0, 0), BuildingBlock: OJICUG_clean_linker_0, # of connection points: 2
#     Edge 98, Type (0, 0), BuildingBlock: OJICUG_clean_linker_0, # of connection points: 2
#     Edge 99, Type (0, 0), BuildingBlock: OJICUG_clean_linker_0, # of connection points: 2
#     Edge 100, Type (0, 0), BuildingBlock: OJICUG_clean_linker_0, # of connection points: 2
#     Edge 101, Type (0, 0), BuildingBlock: OJICUG_clean_linker_0, # of connection points: 2
#     Edge 102, Type (0, 0), BuildingBlock: OJICUG_clean_linker_0, # of connection points: 2
#     Edge 103, Type (0, 0), BuildingBlock: OJICUG_clean_linker_0, # of connection points: 2
#     Edge 104, Type (0, 0), BuildingBlock: OJICUG_clean_linker_0, # of connection points: 2
#     Edge 105, Type (0, 0), BuildingBlock: OJICUG_clean_linker_0, # of connection points: 2
#     Edge 106, Type (0, 0), BuildingBlock: OJICUG_clean_linker_0, # of connection points: 2
#     Edge 107, Type (0, 0), BuildingBlock: OJICUG_clean_linker_0, # of connection points: 2
#     Edge 108, Type (0, 0), BuildingBlock: OJICUG_clean_linker_0, # of connection points: 2
#     Edge 109, Type (0, 0), BuildingBlock: OJICUG_clean_linker_0, # of connection points: 2
#     Edge 110, Type (0, 0), BuildingBlock: OJICUG_clean_linker_0, # of connection points: 2
#     Edge 111, Type (0, 0), BuildingBlock: OJICUG_clean_linker_0, # of connection points: 2
#     Edge 112, Type (0, 0), BuildingBlock: OJICUG_clean_linker_0, # of connection points: 2
#     Edge 113, Type (0, 0), BuildingBlock: OJICUG_clean_linker_0, # of connection points: 2
#     Edge 114, Type (0, 0), BuildingBlock: OJICUG_clean_linker_0, # of connection points: 2
#     Edge 115, Type (0, 0), BuildingBlock: OJICUG_clean_linker_0, # of connection points: 2
#     Edge 116, Type (0, 0), BuildingBlock: OJICUG_clean_linker_0, # of connection points: 2
#     Edge 117, Type (0, 0), BuildingBlock: OJICUG_clean_linker_0, # of connection points: 2
#     Edge 118, Type (0, 0), BuildingBlock: OJICUG_clean_linker_0, # of connection points: 2
#     Edge 119, Type (0, 0), BuildingBlock: OJICUG_clean_linker_0, # of connection points: 2
# Relax obj value: 0.023
# Max RMSD: 0.081
# Mean RMSD: 0.050
data_MOF--net-sod-f--node1-OLANEW_clean_sbu_2--edge1-OJICUG_clean_linker_0
_symmetry_space_group_name_H-M    P1
_symmetry_Int_Tables_number       1
_symmetry_cell_setting            triclinic
loop_
_symmetry_equiv_pos_as_xyz
'x, y, z'
_cell_length_a     76.63508
_cell_length_b     70.68831
_cell_length_c     71.404536
_cell_angle_alpha  88.133023
_cell_angle_beta   92.754469
_cell_angle_gamma 96.167717
loop_
_atom_site_label
_atom_site_type_symbol
_atom_site_fract_x
_atom_site_fract_y
_atom_site_fract_z
_atom_type_partial_charge
O0 O 0.05286 0.30941 0.43954 0.0
Cd1 Cd 0.031 0.30996 0.41346 0.0
O2 O 0.05691 0.27931 0.43678 0.0
Cd3 Cd 0.03377 0.27544 0.4177 0.0
O4 O 0.00573 0.27678 0.42074 0.0
C5 C 0.99663 0.26231 0.42753 0.0
O6 O 0.00392 0.24638 0.43023 0.0
C7 C 0.06091 0.29515 0.44471 0.0
C8 C 0.04319 0.33264 0.38315 0.0
O9 O 0.04574 0.31501 0.3846 0.0
O10 O 0.03495 0.33954 0.39609 0.0
O11 O 0.73712 0.03752 0.44462 0.0
Cd12 Cd 0.73036 0.0136 0.42063 0.0
O13 O 0.76226 0.02745 0.45457 0.0
Cd14 Cd 0.76095 0.00205 0.43792 0.0
O15 O 0.76789 0.97328 0.44375 0.0
C16 C 0.75831 0.95823 0.43915 0.0
O17 O 0.74367 0.95961 0.42908 0.0
C18 C 0.75085 0.03914 0.45542 0.0
C19 C 0.70352 0.02395 0.3957 0.0
O20 O 0.70005 0.01478 0.41109 0.0
O21 O 0.7197 0.02809 0.39198 0.0
O22 O 0.07635 0.76655 0.38666 0.0
Cd23 Cd 0.06129 0.76831 0.3558 0.0
O24 O 0.05049 0.76654 0.39847 0.0
Cd25 Cd 0.0325 0.76787 0.42127 0.0
O26 O 0.01521 0.76812 0.44475 0.0
C27 C 0.00357 0.77966 0.44462 0.0
O28 O 0.0021 0.79148 0.43018 0.0
C29 C 0.06699 0.76596 0.40092 0.0
C30 C 0.05547 0.73293 0.3391 0.0
O31 O 0.06904 0.74447 0.33551 0.0
O32 O 0.04469 0.7381 0.35063 0.0
O33 O 0.29676 0.06749 0.44404 0.0
Cd34 Cd 0.30589 0.09691 0.42665 0.0
O35 O 0.2846 0.08113 0.46666 0.0
Cd36 Cd 0.28873 0.11046 0.45606 0.0
O37 O 0.28441 0.13902 0.46415 0.0
C38 C 0.27092 0.13946 0.47375 0.0
O39 O 0.26083 0.12351 0.47673 0.0
C40 C 0.28888 0.06624 0.45936 0.0
C41 C 0.33109 0.08944 0.40171 0.0
O42 O 0.3355 0.09438 0.41854 0.0
O43 O 0.31478 0.08845 0.39653 0.0
O44 O 0.04962 0.78951 0.60843 0.0
Cd45 Cd 0.02625 0.78952 0.63056 0.0
O46 O 0.04711 0.81897 0.59863 0.0
Cd47 Cd 0.02158 0.81947 0.61071 0.0
O48 O 0.99313 0.81541 0.60556 0.0
C49 C 0.98804 0.80586 0.59115 0.0
O50 O 0.99991 0.79917 0.58124 0.0
C51 C 0.05513 0.80412 0.59866 0.0
C52 C 0.03575 0.7729 0.66503 0.0
O53 O 0.04063 0.79043 0.6611 0.0
O54 O 0.02629 0.76319 0.65269 0.0
O55 O 0.27952 0.9719 0.63485 0.0
Cd56 Cd 0.28575 0.99195 0.66212 0.0
O57 O 0.27575 0.9972 0.61735 0.0
Cd58 Cd 0.2719 0.01586 0.5927 0.0
O59 O 0.26924 0.04216 0.57625 0.0
C60 C 0.2626 0.0553 0.5843 0.0
O61 O 0.2574 0.05214 0.6015 0.0
C62 C 0.27614 0.97924 0.61878 0.0
C63 C 0.31866 0.01283 0.66009 0.0
O64 O 0.317 0.996 0.66749 0.0
O65 O 0.30473 0.01985 0.65378 0.0
O66 O 0.06669 0.29662 0.67759 0.0
Cd67 Cd 0.0525 0.29397 0.70764 0.0
O68 O 0.03995 0.29257 0.66519 0.0
Cd69 Cd 0.01947 0.29096 0.64263 0.0
O70 O 0.99942 0.28848 0.61978 0.0
C71 C 0.98595 0.27637 0.62084 0.0
O72 O 0.98415 0.2654 0.63599 0.0
C73 C 0.05645 0.29488 0.66308 0.0
C74 C 0.04389 0.32865 0.72004 0.0
O75 O 0.05805 0.32191 0.72607 0.0
O76 O 0.0339 0.3191 0.70802 0.0
O77 O 0.78405 0.07388 0.65512 0.0
Cd78 Cd 0.79178 0.04881 0.67747 0.0
O79 O 0.7817 0.05396 0.63214 0.0
Cd80 Cd 0.77937 0.04222 0.60396 0.0
O81 O 0.77884 0.01977 0.58339 0.0
C82 C 0.78521 0.00463 0.58917 0.0
O83 O 0.79172 0.00372 0.6065 0.0
C84 C 0.78136 0.07083 0.63771 0.0
C85 C 0.76671 0.03629 0.70346 0.0
O86 O 0.77703 0.0516 0.70594 0.0
O87 O 0.76791 0.02715 0.68844 0.0
O88 O 0.42695 0.08083 0.31766 0.0
Cd89 Cd 0.40683 0.05429 0.32913 0.0
O90 O 0.43681 0.06416 0.29572 0.0
Cd91 Cd 0.42335 0.03681 0.30473 0.0
O92 O 0.4291 0.00799 0.31276 0.0
C93 C 0.43073 0.99629 0.29997 0.0
O94 O 0.42695 0.00124 0.28247 0.0
C95 C 0.43673 0.07985 0.30391 0.0
C96 C 0.38236 0.06668 0.3524 0.0
O97 O 0.3974 0.06261 0.359 0.0
O98 O 0.37887 0.06486 0.33477 0.0
O99 O 0.10195 0.42124 0.29068 0.0
Cd100 Cd 0.07463 0.40029 0.28625 0.0
O101 O 0.08823 0.44411 0.27766 0.0
Cd102 Cd 0.08133 0.47176 0.26658 0.0
O103 O 0.0644 0.49134 0.2524 0.0
C104 C 0.05018 0.48367 0.24472 0.0
O105 O 0.04686 0.46504 0.24575 0.0
C106 C 0.10229 0.43853 0.28511 0.0
C107 C 0.0655 0.37873 0.31841 0.0
O108 O 0.07489 0.37234 0.30616 0.0
O109 O 0.06055 0.39537 0.3155 0.0
O110 O 0.60194 0.02648 0.31114 0.0
Cd111 Cd 0.62008 0.05549 0.32049 0.0
O112 O 0.58992 0.03856 0.28541 0.0
Cd113 Cd 0.60037 0.06822 0.28945 0.0
O114 O 0.59659 0.09852 0.28759 0.0
C115 C 0.58284 0.10262 0.27833 0.0
O116 O 0.5724 0.08879 0.27057 0.0
C117 C 0.5919 0.02441 0.29648 0.0
C118 C 0.6476 0.04618 0.34502 0.0
O119 O 0.64979 0.04858 0.32739 0.0
O120 O 0.63249 0.04842 0.35106 0.0
O121 O 0.05949 0.60513 0.29251 0.0
Cd122 Cd 0.03578 0.62526 0.2859 0.0
O123 O 0.05723 0.59454 0.26377 0.0
Cd124 Cd 0.03398 0.60821 0.25467 0.0
O125 O 0.00955 0.60737 0.23766 0.0
C126 C 0.99939 0.59199 0.23887 0.0
O127 O 0.0037 0.57861 0.25089 0.0
C128 C 0.06481 0.59499 0.28 0.0
C129 C 0.04239 0.66015 0.30344 0.0
O130 O 0.03315 0.64611 0.31119 0.0
O131 O 0.04849 0.65767 0.2874 0.0
O132 O 0.43706 0.0843 0.67264 0.0
Cd133 Cd 0.42007 0.07352 0.64439 0.0
O134 O 0.44737 0.05648 0.67449 0.0
Cd135 Cd 0.46605 0.03737 0.68634 0.0
O136 O 0.48515 0.0203 0.7006 0.0
C137 C 0.49916 0.02809 0.70862 0.0
O138 O 0.50224 0.04674 0.70815 0.0
C139 C 0.44687 0.07297 0.68094 0.0
C140 C 0.38721 0.05431 0.65142 0.0
O141 O 0.401 0.04549 0.65195 0.0
O142 O 0.389 0.07228 0.64781 0.0
O143 O 0.03669 0.45624 0.76664 0.0
Cd144 Cd 0.01247 0.43094 0.76294 0.0
O145 O 0.04256 0.44828 0.79613 0.0
Cd146 Cd 0.01753 0.43043 0.79721 0.0
O147 O 0.99004 0.43609 0.79528 0.0
C148 C 0.98358 0.44232 0.80963 0.0
O149 O 0.99296 0.44285 0.82554 0.0
C150 C 0.04631 0.45855 0.7816 0.0
C151 C 0.02334 0.39817 0.74852 0.0
O152 O 0.01618 0.41029 0.73776 0.0
O153 O 0.02537 0.40156 0.76606 0.0
O154 O 0.67893 0.9739 0.79091 0.0
Cd155 Cd 0.70809 0.991 0.79654 0.0
O156 O 0.66629 0.00025 0.78908 0.0
Cd157 Cd 0.64536 0.01879 0.78429 0.0
O158 O 0.6246 0.03744 0.77967 0.0
C159 C 0.62046 0.04779 0.79264 0.0
O160 O 0.62885 0.04714 0.80909 0.0
C161 C 0.66501 0.98215 0.78873 0.0
C162 C 0.72421 0.0059 0.76423 0.0
O163 O 0.72451 0.98835 0.76921 0.0
O164 O 0.71601 0.01639 0.77434 0.0
O165 O 0.07299 0.69557 0.77598 0.0
Cd166 Cd 0.06181 0.72677 0.77395 0.0
O167 O 0.04533 0.68415 0.77614 0.0
Cd168 Cd 0.02281 0.66227 0.7762 0.0
O169 O 0.00083 0.64008 0.77863 0.0
C170 C 0.98833 0.64228 0.78917 0.0
O171 O 0.98874 0.65816 0.79832 0.0
C172 C 0.06148 0.68129 0.77712 0.0
C173 C 0.05434 0.74021 0.73759 0.0
O174 O 0.06909 0.74533 0.74617 0.0
O175 O 0.04325 0.72846 0.74606 0.0
O176 O 0.27052 0.37802 0.95856 0.0
Cd177 Cd 0.2743 0.34461 0.96591 0.0
O178 O 0.27495 0.38584 0.98807 0.0
Cd179 Cd 0.27819 0.40705 0.01015 0.0
O180 O 0.2827 0.43083 0.02936 0.0
C181 C 0.27169 0.44304 0.02969 0.0
O182 O 0.25742 0.44093 0.01871 0.0
C183 C 0.27116 0.39045 0.9711 0.0
C184 C 0.302 0.33728 0.991 0.0
O185 O 0.30405 0.33839 0.97327 0.0
O186 O 0.28701 0.34027 0.99688 0.0
O187 O 0.27229 0.65114 0.09791 0.0
Cd188 Cd 0.27595 0.68313 0.08366 0.0
O189 O 0.27209 0.63748 0.07082 0.0
Cd190 Cd 0.27001 0.61441 0.05092 0.0
O191 O 0.26781 0.59483 0.02771 0.0
C192 C 0.25697 0.59712 0.01399 0.0
O193 O 0.24711 0.61122 0.01416 0.0
C194 C 0.27154 0.63604 0.08859 0.0
C195 C 0.30966 0.69178 0.07057 0.0
O196 O 0.30673 0.69278 0.088 0.0
O197 O 0.29666 0.68677 0.0592 0.0
O198 O 0.40179 0.29914 0.07674 0.0
Cd199 Cd 0.37295 0.28409 0.06604 0.0
O200 O 0.41152 0.29506 0.04895 0.0
Cd201 Cd 0.43197 0.29426 0.02859 0.0
O202 O 0.45247 0.2948 0.00823 0.0
C203 C 0.45786 0.2794 0.00329 0.0
O204 O 0.45098 0.26317 0.01064 0.0
C205 C 0.4144 0.30066 0.06569 0.0
C206 C 0.35282 0.30596 0.04205 0.0
O207 O 0.35129 0.30586 0.05985 0.0
O208 O 0.36424 0.29617 0.03565 0.0
O209 O 0.76443 0.41012 0.06091 0.0
Cd210 Cd 0.76184 0.38911 0.03417 0.0
O211 O 0.7628 0.43375 0.04062 0.0
Cd212 Cd 0.76482 0.46327 0.03031 0.0
O213 O 0.76829 0.49071 0.01542 0.0
C214 C 0.77477 0.49146 0.99933 0.0
O215 O 0.77911 0.47575 0.99232 0.0
C216 C 0.7645 0.4279 0.05757 0.0
C217 C 0.72806 0.37094 0.02774 0.0
O218 O 0.73949 0.36308 0.03816 0.0
O219 O 0.73258 0.38748 0.02052 0.0
O220 O 0.61105 0.78509 0.01778 0.0
Cd221 Cd 0.62646 0.78533 0.04855 0.0
O222 O 0.59942 0.81156 0.02256 0.0
Cd223 Cd 0.60598 0.81158 0.05269 0.0
O224 O 0.59909 0.81008 0.08212 0.0
C225 C 0.58438 0.8157 0.08555 0.0
O226 O 0.57481 0.82235 0.07157 0.0
C227 C 0.60213 0.79835 0.01172 0.0
C228 C 0.66051 0.77562 0.04532 0.0
O229 O 0.65696 0.79283 0.04259 0.0
O230 O 0.648 0.76301 0.04979 0.0
O231 O 0.7653 0.72025 0.00916 0.0
Cd232 Cd 0.76448 0.74548 0.03164 0.0
O233 O 0.75887 0.70022 0.03253 0.0
Cd234 Cd 0.75599 0.67143 0.04521 0.0
O235 O 0.75498 0.64254 0.05736 0.0
C236 C 0.7607 0.62919 0.04871 0.0
O237 O 0.7672 0.63288 0.03213 0.0
C238 C 0.76217 0.70323 0.01533 0.0
C239 C 0.73059 0.75514 0.03597 0.0
O240 O 0.74085 0.76454 0.02451 0.0
O241 O 0.73632 0.74112 0.0453 0.0
O242 O 0.43143 0.7376 0.05893 0.0
Cd243 Cd 0.41429 0.71985 0.03424 0.0
O244 O 0.44285 0.76088 0.04065 0.0
Cd245 Cd 0.43253 0.74813 0.01439 0.0
O246 O 0.44201 0.74136 0.98731 0.0
C247 C 0.44456 0.75464 0.97501 0.0
O248 O 0.43952 0.77138 0.97823 0.0
C249 C 0.44107 0.75326 0.05691 0.0
C250 C 0.37993 0.71003 0.04504 0.0
O251 O 0.39243 0.70047 0.05108 0.0
O252 O 0.38357 0.72415 0.03367 0.0
O253 O 0.60747 0.31422 0.03267 0.0
Cd254 Cd 0.6252 0.31358 0.0052 0.0
O255 O 0.60806 0.28379 0.0398 0.0
Cd256 Cd 0.6184 0.27891 0.01267 0.0
O257 O 0.61291 0.27573 0.98259 0.0
C258 C 0.59829 0.26638 0.97807 0.0
O259 O 0.58839 0.25882 0.99147 0.0
C260 C 0.60371 0.30002 0.04371 0.0
C261 C 0.65871 0.33219 0.01227 0.0
O262 O 0.65525 0.31443 0.01631 0.0
O263 O 0.64634 0.34112 0.00473 0.0
O264 O 0.55282 0.80606 0.93613 0.0
Cd265 Cd 0.53118 0.80469 0.90977 0.0
O266 O 0.55925 0.77671 0.93348 0.0
Cd267 Cd 0.53618 0.77057 0.91468 0.0
O268 O 0.50796 0.76734 0.91874 0.0
C269 C 0.50123 0.75184 0.92617 0.0
O270 O 0.51103 0.73775 0.92888 0.0
C271 C 0.56201 0.79272 0.94136 0.0
C272 C 0.54294 0.82743 0.87928 0.0
O273 O 0.54621 0.81004 0.8811 0.0
O274 O 0.53413 0.83406 0.89191 0.0
O275 O 0.23564 0.54294 0.94249 0.0
Cd276 Cd 0.22852 0.51916 0.9184 0.0
O277 O 0.25946 0.53077 0.95352 0.0
Cd278 Cd 0.25705 0.50589 0.93595 0.0
O279 O 0.26032 0.47558 0.93692 0.0
C280 C 0.25566 0.46709 0.95213 0.0
O281 O 0.24878 0.4768 0.96477 0.0
C282 C 0.24889 0.54341 0.95395 0.0
C283 C 0.20228 0.52987 0.89291 0.0
O284 O 0.19842 0.52092 0.90831 0.0
O285 O 0.21857 0.53371 0.88949 0.0
O286 O 0.58015 0.26717 0.88769 0.0
Cd287 Cd 0.56598 0.26921 0.8564 0.0
O288 O 0.55372 0.26562 0.89841 0.0
Cd289 Cd 0.53453 0.26562 0.92023 0.0
O290 O 0.51522 0.26507 0.94189 0.0
C291 C 0.51065 0.28053 0.94773 0.0
O292 O 0.51775 0.29677 0.94061 0.0
C293 C 0.57023 0.26578 0.90153 0.0
C294 C 0.5593 0.23385 0.83979 0.0
O295 O 0.57328 0.24486 0.83647 0.0
O296 O 0.54853 0.23954 0.85103 0.0
O297 O 0.79584 0.56467 0.94392 0.0
Cd298 Cd 0.80487 0.5939 0.92619 0.0
O299 O 0.78276 0.57844 0.96576 0.0
Cd300 Cd 0.78691 0.60764 0.95483 0.0
O301 O 0.78303 0.6364 0.9627 0.0
C302 C 0.76977 0.63714 0.97257 0.0
O303 O 0.75961 0.62133 0.97595 0.0
C304 C 0.7875 0.56353 0.95894 0.0
C305 C 0.83027 0.58633 0.90152 0.0
O306 O 0.81397 0.58515 0.89626 0.0
O307 O 0.83457 0.59149 0.91831 0.0
O308 O 0.54889 0.2911 0.11102 0.0
Cd309 Cd 0.52581 0.29124 0.13346 0.0
O310 O 0.54561 0.32014 0.10042 0.0
Cd311 Cd 0.52019 0.32049 0.11281 0.0
O312 O 0.49169 0.3169 0.10782 0.0
C313 C 0.48613 0.32201 0.09157 0.0
O314 O 0.49757 0.32966 0.07963 0.0
C315 C 0.55396 0.30552 0.10077 0.0
C316 C 0.53554 0.2742 0.16765 0.0
O317 O 0.54053 0.29173 0.16383 0.0
O318 O 0.52585 0.26471 0.15534 0.0
O319 O 0.77947 0.47179 0.13593 0.0
Cd320 Cd 0.78581 0.49215 0.16296 0.0
O321 O 0.77558 0.49687 0.11814 0.0
Cd322 Cd 0.77159 0.5152 0.09328 0.0
O323 O 0.76892 0.54131 0.07653 0.0
C324 C 0.76254 0.55467 0.0845 0.0
O325 O 0.75758 0.55183 0.10182 0.0
C326 C 0.77601 0.47893 0.11979 0.0
C327 C 0.81866 0.51308 0.16057 0.0
O328 O 0.81708 0.49631 0.16808 0.0
O329 O 0.80467 0.52003 0.15431 0.0
O330 O 0.56646 0.80645 0.1741 0.0
Cd331 Cd 0.552 0.79975 0.20372 0.0
O332 O 0.53984 0.80325 0.1613 0.0
Cd333 Cd 0.5198 0.79983 0.13838 0.0
O334 O 0.49996 0.79319 0.11588 0.0
C335 C 0.48673 0.78123 0.11896 0.0
O336 O 0.48516 0.77335 0.1358 0.0
C337 C 0.55635 0.80647 0.15947 0.0
C338 C 0.54172 0.83233 0.21909 0.0
O339 O 0.55616 0.82587 0.2246 0.0
O340 O 0.53218 0.82343 0.20627 0.0
O341 O 0.27939 0.57176 0.15207 0.0
Cd342 Cd 0.28928 0.54783 0.17448 0.0
O343 O 0.27985 0.55212 0.1291 0.0
Cd344 Cd 0.27662 0.54083 0.10082 0.0
O345 O 0.27317 0.51957 0.07899 0.0
C346 C 0.28333 0.50645 0.07974 0.0
O347 O 0.29578 0.50667 0.09307 0.0
C348 C 0.27748 0.56854 0.13464 0.0
C349 C 0.26605 0.53589 0.20246 0.0
O350 O 0.27628 0.55141 0.20384 0.0
O351 O 0.26651 0.5262 0.18766 0.0
O352 O 0.92668 0.57927 0.81839 0.0
Cd353 Cd 0.90702 0.55219 0.82958 0.0
O354 O 0.93696 0.5633 0.79617 0.0
Cd355 Cd 0.92414 0.53549 0.80475 0.0
O356 O 0.93076 0.50673 0.81172 0.0
C357 C 0.93259 0.49561 0.79849 0.0
O358 O 0.92851 0.50104 0.7812 0.0
C359 C 0.93651 0.57879 0.8046 0.0
C360 C 0.88213 0.56397 0.85269 0.0
O361 O 0.89722 0.56018 0.85938 0.0
O362 O 0.87877 0.56212 0.83505 0.0
O363 O 0.6001 0.91585 0.78444 0.0
Cd364 Cd 0.57276 0.89464 0.78157 0.0
O365 O 0.58466 0.9395 0.77709 0.0
Cd366 Cd 0.57884 0.96826 0.76855 0.0
O367 O 0.56239 0.98868 0.75498 0.0
C368 C 0.5483 0.98142 0.74672 0.0
O369 O 0.54488 0.96279 0.74694 0.0
C370 C 0.59949 0.93357 0.78127 0.0
C371 C 0.56451 0.87347 0.81422 0.0
O372 O 0.5737 0.86701 0.80182 0.0
O373 O 0.55943 0.89004 0.81128 0.0
O374 O 0.10321 0.5297 0.80526 0.0
Cd375 Cd 0.1204 0.55931 0.81457 0.0
O376 O 0.09162 0.54082 0.77885 0.0
Cd377 Cd 0.10122 0.57076 0.78269 0.0
O378 O 0.09701 0.60096 0.78111 0.0
C379 C 0.08244 0.60515 0.78674 0.0
O380 O 0.07143 0.59149 0.79372 0.0
C381 C 0.09365 0.52701 0.79034 0.0
C382 C 0.14746 0.55109 0.84023 0.0
O383 O 0.13209 0.55313 0.84567 0.0
O384 O 0.15013 0.55322 0.82267 0.0
O385 O 0.55956 0.10596 0.79171 0.0
Cd386 Cd 0.53631 0.12685 0.78593 0.0
O387 O 0.55701 0.09648 0.76257 0.0
Cd388 Cd 0.53387 0.11066 0.7542 0.0
O389 O 0.50926 0.10942 0.73749 0.0
C390 C 0.49918 0.09402 0.73907 0.0
O391 O 0.50365 0.08092 0.75133 0.0
C392 C 0.56466 0.09621 0.77876 0.0
C393 C 0.54408 0.16146 0.80377 0.0
O394 O 0.54986 0.15894 0.78759 0.0
O395 O 0.53462 0.1476 0.81154 0.0
O396 O 0.93708 0.5842 0.17249 0.0
Cd397 Cd 0.91983 0.57409 0.14419 0.0
O398 O 0.94742 0.55639 0.17342 0.0
Cd399 Cd 0.96625 0.53715 0.18464 0.0
O400 O 0.98575 0.52053 0.19879 0.0
C401 C 0.99985 0.52867 0.20632 0.0
O402 O 0.00273 0.54733 0.20533 0.0
C403 C 0.94696 0.57268 0.18036 0.0
C404 C 0.88705 0.55473 0.15133 0.0
O405 O 0.90083 0.54593 0.15149 0.0
O406 O 0.8888 0.57276 0.14801 0.0
O407 O 0.53295 0.95564 0.27241 0.0
Cd408 Cd 0.50853 0.93069 0.26818 0.0
O409 O 0.53933 0.94652 0.30147 0.0
Cd410 Cd 0.51415 0.92893 0.30237 0.0
O411 O 0.48678 0.93499 0.29981 0.0
C412 C 0.48029 0.94187 0.31381 0.0
O413 O 0.48953 0.94277 0.32981 0.0
C414 C 0.54288 0.95729 0.28721 0.0
C415 C 0.51932 0.89877 0.25205 0.0
O416 O 0.52145 0.9013 0.26974 0.0
O417 O 0.51202 0.9113 0.24197 0.0
O418 O 0.18239 0.47707 0.29566 0.0
Cd419 Cd 0.21193 0.49369 0.29965 0.0
O420 O 0.17026 0.50368 0.29149 0.0
Cd421 Cd 0.14814 0.52079 0.2883 0.0
O422 O 0.12648 0.53821 0.28334 0.0
C423 C 0.12208 0.54893 0.29587 0.0
O424 O 0.13073 0.54941 0.31222 0.0
C425 C 0.16871 0.4856 0.29266 0.0
C426 C 0.2267 0.50752 0.26628 0.0
O427 O 0.22701 0.49007 0.2716 0.0
O428 O 0.21914 0.51842 0.27658 0.0
O429 O 0.57495 0.19379 0.274 0.0
Cd430 Cd 0.56408 0.22505 0.27455 0.0
O431 O 0.54721 0.18254 0.27307 0.0
Cd432 Cd 0.52473 0.16071 0.27454 0.0
O433 O 0.50242 0.13899 0.27744 0.0
C434 C 0.48984 0.14183 0.28763 0.0
O435 O 0.49039 0.15807 0.2962 0.0
C436 C 0.56332 0.17955 0.27354 0.0
C437 C 0.55543 0.24002 0.23909 0.0
O438 O 0.57047 0.24474 0.24724 0.0
O439 O 0.54457 0.22805 0.2476 0.0
O440 O 0.76831 0.87103 0.46751 0.0
Cd441 Cd 0.76789 0.84043 0.48457 0.0
O442 O 0.7735 0.8867 0.49358 0.0
Cd443 Cd 0.77507 0.91269 0.50991 0.0
O444 O 0.77609 0.93862 0.52614 0.0
C445 C 0.78339 0.93881 0.54251 0.0
O446 O 0.79014 0.92348 0.54908 0.0
C447 C 0.7706 0.88675 0.47589 0.0
C448 C 0.79864 0.83286 0.50467 0.0
O449 O 0.79595 0.82824 0.48747 0.0
O450 O 0.78706 0.84165 0.51215 0.0
O451 O 0.77305 0.1521 0.59493 0.0
Cd452 Cd 0.77073 0.17892 0.57281 0.0
O453 O 0.77035 0.13465 0.57013 0.0
Cd454 Cd 0.77014 0.11016 0.55229 0.0
O455 O 0.76862 0.09068 0.52912 0.0
C456 C 0.75735 0.09244 0.5157 0.0
O457 O 0.74672 0.10578 0.51631 0.0
C458 C 0.77237 0.13575 0.58787 0.0
C459 C 0.80373 0.19514 0.56222 0.0
O460 O 0.79587 0.20218 0.57538 0.0
O461 O 0.79598 0.18046 0.55406 0.0
O462 O 0.90319 0.79016 0.5816 0.0
Cd463 Cd 0.87224 0.77889 0.57515 0.0
O464 O 0.90918 0.78693 0.55222 0.0
Cd465 Cd 0.92636 0.78863 0.52836 0.0
O466 O 0.94433 0.78966 0.50535 0.0
C467 C 0.9567 0.77899 0.50598 0.0
O468 O 0.95847 0.76747 0.52061 0.0
C469 C 0.9144 0.79082 0.56899 0.0
C470 C 0.85252 0.8012 0.55118 0.0
O471 O 0.85367 0.80378 0.5689 0.0
O472 O 0.86124 0.78855 0.54472 0.0
O473 O 0.26475 0.91128 0.55893 0.0
Cd474 Cd 0.26233 0.89067 0.53189 0.0
O475 O 0.26343 0.93521 0.53895 0.0
Cd476 Cd 0.26571 0.96489 0.52912 0.0
O477 O 0.26944 0.99259 0.51475 0.0
C478 C 0.27565 0.99355 0.49853 0.0
O479 O 0.27957 0.97788 0.49106 0.0
C480 C 0.26494 0.9291 0.55584 0.0
C481 C 0.22878 0.87188 0.52556 0.0
O482 O 0.24044 0.86417 0.53577 0.0
O483 O 0.23296 0.88857 0.51849 0.0
O484 O 0.10894 0.28323 0.52115 0.0
Cd485 Cd 0.12424 0.28241 0.55195 0.0
O486 O 0.0994 0.31086 0.52597 0.0
Cd487 Cd 0.10582 0.31023 0.55613 0.0
O488 O 0.09886 0.30823 0.58555 0.0
C489 C 0.0844 0.29846 0.58903 0.0
O490 O 0.07517 0.28997 0.57512 0.0
C491 C 0.1011 0.29733 0.5151 0.0
C492 C 0.15855 0.27363 0.54836 0.0
O493 O 0.15469 0.2908 0.54629 0.0
O494 O 0.14621 0.26061 0.55234 0.0
O495 O 0.26488 0.22183 0.51122 0.0
Cd496 Cd 0.26342 0.24662 0.53403 0.0
O497 O 0.25828 0.20139 0.53421 0.0
Cd498 Cd 0.25551 0.17241 0.54645 0.0
O499 O 0.2546 0.14336 0.5582 0.0
C500 C 0.26061 0.13023 0.54947 0.0
O501 O 0.26735 0.13426 0.53306 0.0
C502 C 0.26184 0.2047 0.51712 0.0
C503 C 0.22921 0.25524 0.53851 0.0
O504 O 0.23932 0.2651 0.52721 0.0
O505 O 0.23526 0.24125 0.54761 0.0
O506 O 0.92535 0.25121 0.55641 0.0
Cd507 Cd 0.90496 0.24511 0.52934 0.0
O508 O 0.93985 0.27552 0.54196 0.0
Cd509 Cd 0.928 0.26902 0.51418 0.0
O510 O 0.93634 0.26153 0.48683 0.0
C511 C 0.94122 0.27469 0.47506 0.0
O512 O 0.93915 0.29235 0.47885 0.0
C513 C 0.93727 0.26519 0.55669 0.0
C514 C 0.87205 0.22874 0.54007 0.0
O515 O 0.87609 0.2468 0.54021 0.0
O516 O 0.88357 0.21838 0.53483 0.0
O517 O 0.10894 0.81315 0.53092 0.0
Cd518 Cd 0.12662 0.8127 0.50339 0.0
O519 O 0.10915 0.78258 0.53756 0.0
Cd520 Cd 0.11922 0.77795 0.51023 0.0
O521 O 0.11271 0.77499 0.48031 0.0
C522 C 0.09772 0.76613 0.47638 0.0
O523 O 0.08813 0.75898 0.4902 0.0
C524 C 0.10503 0.79883 0.54175 0.0
C525 C 0.15991 0.8319 0.51031 0.0
O526 O 0.15673 0.81411 0.51439 0.0
O527 O 0.14736 0.84057 0.5028 0.0
C528 C 0.08542 0.31371 0.48874 0.0
C529 C 0.09288 0.29751 0.49589 0.0
H530 H 0.06975 0.32579 0.46686 0.0
C531 C 0.09133 0.28112 0.48503 0.0
H532 H 0.08651 0.32664 0.49665 0.0
C533 C 0.08163 0.28061 0.4679 0.0
C534 C 0.07339 0.29651 0.46124 0.0
H535 H 0.09699 0.26841 0.49008 0.0
H536 H 0.08008 0.26751 0.46024 0.0
C537 C 0.07584 0.31324 0.4716 0.0
C538 C 0.76855 0.0665 0.49818 0.0
C539 C 0.75609 0.07948 0.49972 0.0
H540 H 0.77681 0.04381 0.48291 0.0
C541 C 0.74233 0.07978 0.48599 0.0
H542 H 0.77938 0.06598 0.50845 0.0
C543 C 0.74081 0.067 0.47131 0.0
C544 C 0.75309 0.05374 0.47 0.0
H545 H 0.73254 0.08966 0.48675 0.0
H546 H 0.72987 0.06732 0.46117 0.0
C547 C 0.76711 0.05383 0.48347 0.0
C548 C 0.9785 0.79202 0.46004 0.0
C549 C 0.99171 0.77965 0.46042 0.0
H550 H 0.95711 0.80154 0.47406 0.0
C551 C 0.99341 0.76719 0.476 0.0
H552 H 0.97684 0.80181 0.44826 0.0
C553 C 0.9821 0.76705 0.49081 0.0
C554 C 0.96882 0.77934 0.49038 0.0
H555 H 0.00345 0.75749 0.47677 0.0
H556 H 0.98374 0.75723 0.50257 0.0
C557 C 0.96718 0.79186 0.47484 0.0
C558 C 0.28944 0.03079 0.4612 0.0
C559 C 0.28503 0.04752 0.46906 0.0
H560 H 0.28992 0.00064 0.4643 0.0
C561 C 0.27724 0.04628 0.48656 0.0
H562 H 0.29545 0.03124 0.44775 0.0
C563 C 0.27411 0.02876 0.49607 0.0
C564 C 0.27866 0.01206 0.48828 0.0
H565 H 0.27367 0.05888 0.49304 0.0
H566 H 0.26819 0.02834 0.50957 0.0
C567 C 0.28627 0.01325 0.4707 0.0
C568 C 0.08809 0.81826 0.56159 0.0
C569 C 0.09429 0.80075 0.55814 0.0
H570 H 0.07097 0.8331 0.57717 0.0
C571 C 0.08888 0.7848 0.56953 0.0
H572 H 0.09206 0.83087 0.55317 0.0
C573 C 0.07679 0.78609 0.58336 0.0
C574 C 0.0698 0.80335 0.58604 0.0
H575 H 0.09349 0.77112 0.56732 0.0
H576 H 0.07239 0.77336 0.59141 0.0
C577 C 0.07596 0.81954 0.57536 0.0
C578 C 0.26734 0.09628 0.54854 0.0
C579 C 0.26052 0.11082 0.55799 0.0
H580 H 0.27329 0.06732 0.54935 0.0
C581 C 0.25391 0.10673 0.57586 0.0
H582 H 0.27249 0.09894 0.53472 0.0
C583 C 0.25437 0.08863 0.58422 0.0
C584 C 0.26144 0.07418 0.57493 0.0
H585 H 0.24852 0.11756 0.58352 0.0
H586 H 0.24933 0.08607 0.59809 0.0
C587 C 0.26779 0.07815 0.55691 0.0
C588 C 0.97463 0.28618 0.58889 0.0
C589 C 0.97284 0.27419 0.60492 0.0
H590 H 0.96477 0.29288 0.56124 0.0
C591 C 0.95868 0.2598 0.60535 0.0
H592 H 0.98533 0.29747 0.58812 0.0
C593 C 0.94684 0.25714 0.58989 0.0
C594 C 0.94889 0.26885 0.57368 0.0
H595 H 0.95689 0.25034 0.61751 0.0
H596 H 0.93628 0.24569 0.59053 0.0
C597 C 0.96279 0.28357 0.57347 0.0
C598 C 0.79173 0.95565 0.57245 0.0
C599 C 0.78407 0.95588 0.55417 0.0
H600 H 0.79809 0.97077 0.59772 0.0
C601 C 0.777 0.97246 0.54732 0.0
H602 H 0.79732 0.94315 0.57818 0.0
C603 C 0.77746 0.98839 0.55857 0.0
C604 C 0.78499 0.98806 0.57692 0.0
H605 H 0.77103 0.97311 0.53328 0.0
H606 H 0.77182 0.0009 0.55293 0.0
C607 C 0.79217 0.97153 0.58367 0.0
C608 C 0.46259 0.12872 0.30377 0.0
C609 C 0.47531 0.12662 0.29065 0.0
H610 H 0.44036 0.11566 0.31819 0.0
C611 C 0.4744 0.10953 0.28096 0.0
H612 H 0.46287 0.14173 0.31142 0.0
C613 C 0.46144 0.09464 0.28475 0.0
C614 C 0.44913 0.09644 0.2984 0.0
H615 H 0.48392 0.10749 0.27067 0.0
H616 H 0.46141 0.08151 0.27734 0.0
C617 C 0.44966 0.11377 0.30763 0.0
C618 C 0.04052 0.5153 0.23399 0.0
C619 C 0.03744 0.49533 0.23487 0.0
H620 H 0.03107 0.54151 0.22432 0.0
C621 C 0.02193 0.48647 0.22627 0.0
H622 H 0.05232 0.52258 0.24049 0.0
C623 C 0.00978 0.49729 0.21701 0.0
C624 C 0.01282 0.51726 0.21611 0.0
H625 H 0.01913 0.47112 0.22667 0.0
H626 H 0.99798 0.48997 0.21055 0.0
C627 C 0.02833 0.52615 0.22471 0.0
C628 C 0.56821 0.97522 0.30486 0.0
C629 C 0.55734 0.97296 0.28848 0.0
H630 H 0.58782 0.99314 0.32017 0.0
C631 C 0.55933 0.98686 0.27398 0.0
H632 H 0.56709 0.96473 0.31626 0.0
C633 C 0.57113 0.00319 0.27627 0.0
C634 C 0.58131 0.00595 0.29305 0.0
H635 H 0.55124 0.98555 0.26114 0.0
H636 H 0.57183 0.01395 0.26509 0.0
C637 C 0.58012 0.99151 0.3071 0.0
C638 C 0.08477 0.57158 0.27048 0.0
C639 C 0.0796 0.58341 0.2842 0.0
H640 H 0.10211 0.55145 0.2634 0.0
C641 C 0.08855 0.58382 0.30186 0.0
H642 H 0.07815 0.57085 0.25673 0.0
C643 C 0.10236 0.57263 0.30569 0.0
C644 C 0.10748 0.56079 0.29195 0.0
H645 H 0.08488 0.59276 0.31274 0.0
H646 H 0.109 0.57326 0.31943 0.0
C647 C 0.09852 0.5604 0.27431 0.0
C648 C 0.52044 0.98509 0.72785 0.0
C649 C 0.53585 0.99352 0.737 0.0
H650 H 0.49685 0.9893 0.71177 0.0
C651 C 0.53912 0.01348 0.73676 0.0
H652 H 0.51749 0.96976 0.72776 0.0
C653 C 0.52722 0.02474 0.72754 0.0
C654 C 0.51181 0.01626 0.71838 0.0
H655 H 0.55086 0.02043 0.74369 0.0
H656 H 0.5301 0.04007 0.72762 0.0
C657 C 0.50857 0.99631 0.71866 0.0
C658 C 0.06245 0.48811 0.76796 0.0
C659 C 0.0605 0.47452 0.78274 0.0
H660 H 0.07448 0.51531 0.75873 0.0
C661 C 0.07103 0.47742 0.79928 0.0
H662 H 0.05461 0.4863 0.75499 0.0
C663 C 0.08251 0.49405 0.8014 0.0
C664 C 0.08361 0.5082 0.78707 0.0
H665 H 0.06993 0.46718 0.8109 0.0
H666 H 0.08992 0.49617 0.8146 0.0
C667 C 0.07383 0.50479 0.77013 0.0
C668 C 0.5975 0.06104 0.77151 0.0
C669 C 0.60634 0.06038 0.78918 0.0
H670 H 0.57754 0.07283 0.75439 0.0
C671 C 0.6015 0.0718 0.80343 0.0
H672 H 0.60088 0.05244 0.76021 0.0
C673 C 0.58805 0.08356 0.80008 0.0
C674 C 0.57918 0.08415 0.78241 0.0
H675 H 0.60806 0.07163 0.8172 0.0
H676 H 0.58457 0.09213 0.81136 0.0
C677 C 0.5841 0.07278 0.76816 0.0
C678 C 0.9614 0.62815 0.80528 0.0
C679 C 0.97409 0.62669 0.79196 0.0
H680 H 0.9395 0.61423 0.81965 0.0
C681 C 0.97346 0.60988 0.78187 0.0
H682 H 0.96147 0.64094 0.81324 0.0
C683 C 0.96081 0.59461 0.78548 0.0
C684 C 0.94854 0.59576 0.79932 0.0
H685 H 0.98296 0.60833 0.77143 0.0
H686 H 0.961 0.5817 0.77776 0.0
C687 C 0.94878 0.61284 0.80894 0.0
C688 C 0.28942 0.46107 0.05507 0.0
C689 C 0.27489 0.45947 0.04223 0.0
H690 H 0.3035 0.47713 0.07692 0.0
C691 C 0.26339 0.47372 0.0415 0.0
H692 H 0.29856 0.45036 0.05597 0.0
C693 C 0.26627 0.48914 0.05345 0.0
C694 C 0.28067 0.4906 0.06647 0.0
H695 H 0.25211 0.47298 0.03171 0.0
H696 H 0.25708 0.4998 0.05262 0.0
C697 C 0.29226 0.47644 0.06708 0.0
C698 C 0.24216 0.58519 0.98389 0.0
C699 C 0.25532 0.58394 0.99816 0.0
H700 H 0.2298 0.57344 0.9587 0.0
C701 C 0.26678 0.56979 0.99729 0.0
H702 H 0.23314 0.59597 0.98413 0.0
C703 C 0.26495 0.55698 0.98267 0.0
C704 C 0.25154 0.55794 0.96861 0.0
H705 H 0.27712 0.56848 0.008 0.0
H706 H 0.27387 0.5461 0.98261 0.0
C707 C 0.24026 0.5723 0.9693 0.0
C708 C 0.4791 0.29705 0.98154 0.0
C709 C 0.47155 0.27971 0.98927 0.0
H710 H 0.49736 0.31093 0.96244 0.0
C711 C 0.47711 0.26264 0.98336 0.0
H712 H 0.47514 0.31047 0.9858 0.0
C713 C 0.48984 0.2629 0.96994 0.0
C714 C 0.49733 0.28024 0.96214 0.0
H715 H 0.47158 0.24903 0.98902 0.0
H716 H 0.49377 0.24948 0.96565 0.0
C717 C 0.49186 0.29732 0.96814 0.0
C718 C 0.78865 0.52819 0.96157 0.0
C719 C 0.78374 0.54494 0.96891 0.0
H720 H 0.78965 0.49816 0.96538 0.0
C721 C 0.77555 0.54388 0.98619 0.0
H722 H 0.79497 0.5285 0.9483 0.0
C723 C 0.77254 0.52651 0.996 0.0
C724 C 0.77762 0.50979 0.98874 0.0
H725 H 0.77159 0.5565 0.99227 0.0
H726 H 0.76633 0.52623 0.00933 0.0
C727 C 0.7856 0.51079 0.97137 0.0
C728 C 0.5755 0.81186 0.96825 0.0
C729 C 0.5744 0.79516 0.95789 0.0
H730 H 0.58511 0.82598 0.9933 0.0
C731 C 0.58396 0.78022 0.96455 0.0
H732 H 0.56838 0.82369 0.96352 0.0
C733 C 0.59363 0.78156 0.98166 0.0
C734 C 0.59386 0.79783 0.99253 0.0
H735 H 0.58346 0.76718 0.95688 0.0
H736 H 0.60034 0.76954 0.98671 0.0
C737 C 0.58506 0.81315 0.98539 0.0
C738 C 0.7675 0.57706 0.05673 0.0
C739 C 0.76141 0.57344 0.0749 0.0
H740 H 0.77204 0.59748 0.03419 0.0
C741 C 0.75463 0.58814 0.08411 0.0
H742 H 0.77278 0.56604 0.04923 0.0
C743 C 0.7542 0.60613 0.07552 0.0
C744 C 0.76056 0.60988 0.05749 0.0
H745 H 0.74979 0.58584 0.0981 0.0
H746 H 0.74905 0.61716 0.08312 0.0
C747 C 0.76709 0.5951 0.04812 0.0
C748 C 0.46418 0.77735 0.07062 0.0
C749 C 0.45142 0.76175 0.0732 0.0
H750 H 0.48533 0.79572 0.08299 0.0
C751 C 0.4496 0.75348 0.09128 0.0
H752 H 0.46593 0.78408 0.0569 0.0
C753 C 0.46072 0.7602 0.10626 0.0
C754 C 0.47396 0.77526 0.10349 0.0
H755 H 0.43987 0.74149 0.09378 0.0
H756 H 0.45923 0.75321 0.1199 0.0
C757 C 0.47535 0.78399 0.08558 0.0
C758 C 0.58639 0.31947 0.06313 0.0
C759 C 0.59294 0.30206 0.06005 0.0
H760 H 0.56906 0.33426 0.07846 0.0
C761 C 0.58789 0.28627 0.07181 0.0
H762 H 0.59008 0.33196 0.05441 0.0
C763 C 0.57584 0.28762 0.08568 0.0
C764 C 0.56853 0.30475 0.08802 0.0
H765 H 0.59276 0.27268 0.06989 0.0
H766 H 0.57174 0.275 0.09404 0.0
C767 C 0.57431 0.3208 0.07693 0.0
C768 C 0.96377 0.79023 0.57052 0.0
C769 C 0.96917 0.80235 0.5854 0.0
H770 H 0.94225 0.77652 0.55421 0.0
C771 C 0.95641 0.81093 0.59464 0.0
H772 H 0.97322 0.78318 0.56324 0.0
C773 C 0.93861 0.80744 0.58908 0.0
C774 C 0.93326 0.79539 0.57413 0.0
H775 H 0.96014 0.82032 0.60618 0.0
H776 H 0.92903 0.81416 0.5965 0.0
C777 C 0.94601 0.78667 0.56506 0.0
C778 C 0.26088 0.95992 0.57095 0.0
C779 C 0.2678 0.94227 0.57165 0.0
H780 H 0.25767 0.98531 0.58541 0.0
C781 C 0.27729 0.93694 0.58793 0.0
H782 H 0.25287 0.96408 0.55895 0.0
C783 C 0.28004 0.94908 0.60305 0.0
C784 C 0.27335 0.96686 0.60232 0.0
H785 H 0.28272 0.92339 0.58894 0.0
H786 H 0.28752 0.94454 0.61534 0.0
C787 C 0.26363 0.97211 0.58614 0.0
C788 C 0.05498 0.28513 0.62959 0.0
C789 C 0.06371 0.29568 0.64421 0.0
H790 H 0.05465 0.2777 0.60079 0.0
C791 C 0.07973 0.30661 0.64078 0.0
H792 H 0.04308 0.27587 0.63199 0.0
C793 C 0.08659 0.30743 0.62291 0.0
C794 C 0.07761 0.29721 0.60816 0.0
H795 H 0.08684 0.31474 0.65186 0.0
H796 H 0.09883 0.31618 0.62064 0.0
C797 C 0.0618 0.28595 0.61175 0.0
C798 C 0.78526 0.10561 0.62994 0.0
C799 C 0.77894 0.08709 0.62455 0.0
H800 H 0.78832 0.13527 0.62256 0.0
C801 C 0.77023 0.08461 0.60689 0.0
H802 H 0.79203 0.10806 0.64346 0.0
C803 C 0.76804 0.10034 0.59485 0.0
C804 C 0.77462 0.11882 0.6002 0.0
H805 H 0.76467 0.07064 0.60256 0.0
H806 H 0.76075 0.09802 0.58165 0.0
C807 C 0.78314 0.12124 0.61794 0.0
C808 C 0.95739 0.25226 0.45771 0.0
C809 C 0.95247 0.27067 0.45967 0.0
H810 H 0.97511 0.23511 0.44576 0.0
C811 C 0.96024 0.28565 0.44841 0.0
H812 H 0.95153 0.24035 0.466 0.0
C813 C 0.97377 0.28263 0.43677 0.0
C814 C 0.97981 0.26458 0.43617 0.0
H815 H 0.95662 0.29997 0.44941 0.0
H816 H 0.98019 0.29472 0.42914 0.0
C817 C 0.97093 0.24925 0.44609 0.0
C818 C 0.77626 0.93872 0.46089 0.0
C819 C 0.7626 0.93959 0.4471 0.0
H820 H 0.78969 0.92122 0.48059 0.0
C821 C 0.75246 0.92265 0.44192 0.0
H822 H 0.78443 0.95146 0.46511 0.0
C823 C 0.75551 0.90533 0.45085 0.0
C824 C 0.76856 0.9047 0.4653 0.0
H825 H 0.74192 0.92282 0.43128 0.0
H826 H 0.74722 0.89255 0.44695 0.0
C827 C 0.77918 0.92144 0.46992 0.0
C828 C 0.09219 0.77446 0.42376 0.0
C829 C 0.07529 0.76519 0.41999 0.0
H830 H 0.11257 0.78213 0.44459 0.0
C831 C 0.0664 0.7552 0.4346 0.0
H832 H 0.0994 0.78211 0.41268 0.0
C833 C 0.07388 0.75521 0.45281 0.0
C834 C 0.0905 0.76508 0.45679 0.0
H835 H 0.05373 0.7472 0.43195 0.0
H836 H 0.06653 0.74759 0.46381 0.0
C837 C 0.09971 0.77447 0.44201 0.0
C838 C 0.25357 0.15652 0.49523 0.0
C839 C 0.2676 0.15697 0.48319 0.0
H840 H 0.24062 0.17143 0.51516 0.0
C841 C 0.2789 0.1739 0.48124 0.0
H842 H 0.24449 0.1438 0.49691 0.0
C843 C 0.27665 0.18975 0.49178 0.0
C844 C 0.26321 0.18881 0.50459 0.0
H845 H 0.28976 0.17475 0.47198 0.0
H846 H 0.28581 0.20245 0.49047 0.0
C847 C 0.25143 0.17227 0.50584 0.0
C848 C 0.64752 0.95189 0.77919 0.0
C849 C 0.64788 0.97047 0.78576 0.0
H850 H 0.63196 0.92577 0.77261 0.0
C851 C 0.63198 0.977 0.79044 0.0
H852 H 0.65951 0.94633 0.77555 0.0
C853 C 0.6161 0.96528 0.78841 0.0
C854 C 0.61588 0.94665 0.78207 0.0
H855 H 0.6318 0.99077 0.79649 0.0
H856 H 0.60413 0.97049 0.79259 0.0
C857 C 0.63174 0.94009 0.77748 0.0
C858 C 0.08277 0.65746 0.77258 0.0
C859 C 0.06692 0.66186 0.77964 0.0
H860 H 0.10013 0.63609 0.7692 0.0
C861 C 0.05667 0.64772 0.78969 0.0
H862 H 0.09105 0.66815 0.76495 0.0
C863 C 0.0618 0.62939 0.79208 0.0
C864 C 0.07746 0.62483 0.78469 0.0
H865 H 0.04487 0.65088 0.79614 0.0
H866 H 0.05351 0.61882 0.79983 0.0
C867 C 0.08797 0.63911 0.77504 0.0
C868 C 0.48022 0.10285 0.71117 0.0
C869 C 0.48407 0.08974 0.72564 0.0
H870 H 0.46523 0.10776 0.68566 0.0
C871 C 0.47419 0.0718 0.72627 0.0
H872 H 0.48749 0.11684 0.71037 0.0
C873 C 0.46155 0.06664 0.71211 0.0
C874 C 0.45852 0.0793 0.69707 0.0
H875 H 0.47665 0.06144 0.73733 0.0
H876 H 0.45437 0.05259 0.71275 0.0
C877 C 0.46747 0.09769 0.69705 0.0
C878 C 0.96199 0.4619 0.82283 0.0
C879 C 0.96771 0.45261 0.8075 0.0
H880 H 0.94617 0.48264 0.83207 0.0
C881 C 0.95957 0.45534 0.78969 0.0
H882 H 0.96784 0.45996 0.83678 0.0
C883 C 0.94713 0.46838 0.78699 0.0
C884 C 0.94258 0.47893 0.80203 0.0
H885 H 0.96353 0.44826 0.77761 0.0
H886 H 0.94186 0.47095 0.7729 0.0
C887 C 0.94954 0.47493 0.82012 0.0
C888 C 0.58899 0.13743 0.2852 0.0
C889 C 0.57823 0.12247 0.27666 0.0
H890 H 0.59267 0.16724 0.29087 0.0
C891 C 0.56279 0.12658 0.26662 0.0
H892 H 0.60102 0.13477 0.29297 0.0
C893 C 0.55804 0.14514 0.26542 0.0
C894 C 0.56856 0.15999 0.27432 0.0
H895 H 0.5543 0.11546 0.25966 0.0
H896 H 0.54628 0.14787 0.25724 0.0
C897 C 0.58423 0.15602 0.28397 0.0
C898 C 0.98054 0.60159 0.21118 0.0
C899 C 0.9843 0.5881 0.22532 0.0
H900 H 0.96555 0.60723 0.18583 0.0
C901 C 0.97434 0.57021 0.22554 0.0
H902 H 0.98788 0.61556 0.21071 0.0
C903 C 0.96166 0.56548 0.21129 0.0
C904 C 0.95868 0.57854 0.19658 0.0
H905 H 0.97673 0.55956 0.23634 0.0
H906 H 0.9544 0.55146 0.2116 0.0
C907 C 0.96775 0.59687 0.19698 0.0
C908 C 0.4568 0.95482 0.29306 0.0
C909 C 0.46467 0.95248 0.31106 0.0
H910 H 0.43967 0.97039 0.27545 0.0
C911 C 0.45898 0.96247 0.32594 0.0
H912 H 0.46074 0.94721 0.28131 0.0
C913 C 0.44689 0.97578 0.32257 0.0
C914 C 0.44024 0.97938 0.30426 0.0
H915 H 0.46462 0.96085 0.34003 0.0
H916 H 0.44356 0.98402 0.33417 0.0
C917 C 0.44471 0.96814 0.28969 0.0
C918 C 0.13785 0.47991 0.27885 0.0
C919 C 0.15132 0.47433 0.29119 0.0
H920 H 0.11198 0.47284 0.26681 0.0
C921 C 0.14839 0.45722 0.30163 0.0
H922 H 0.13997 0.49265 0.27009 0.0
C923 C 0.13233 0.44594 0.29986 0.0
C924 C 0.11882 0.45139 0.28747 0.0
H925 H 0.15855 0.45253 0.31121 0.0
H926 H 0.13058 0.43281 0.30814 0.0
C927 C 0.12176 0.46852 0.27698 0.0
C928 C 0.77634 0.68769 0.98991 0.0
C929 C 0.76316 0.68711 0.00298 0.0
H930 H 0.7889 0.67221 0.97003 0.0
C931 C 0.75126 0.6707 0.00466 0.0
H932 H 0.78559 0.70027 0.98827 0.0
C933 C 0.75304 0.65475 0.9942 0.0
C934 C 0.76682 0.65485 0.98188 0.0
H935 H 0.74063 0.67013 0.01419 0.0
H936 H 0.74388 0.64215 0.9962 0.0
C937 C 0.77823 0.67163 0.97951 0.0
C938 C 0.77991 0.44859 0.10441 0.0
C939 C 0.77315 0.46633 0.10349 0.0
H940 H 0.78256 0.42271 0.09061 0.0
C941 C 0.76331 0.47134 0.08732 0.0
H942 H 0.78748 0.44423 0.1167 0.0
C943 C 0.76048 0.45893 0.0723 0.0
C944 C 0.76746 0.44131 0.07318 0.0
H945 H 0.75731 0.48451 0.08645 0.0
H946 H 0.75238 0.4629 0.06031 0.0
C947 C 0.77708 0.43623 0.08946 0.0
C948 C 0.58716 0.80583 0.1196 0.0
C949 C 0.57764 0.81403 0.1047 0.0
H950 H 0.58783 0.797 0.14862 0.0
C951 C 0.56132 0.82031 0.10816 0.0
H952 H 0.5998 0.80092 0.11744 0.0
C953 C 0.55451 0.81808 0.12599 0.0
C954 C 0.56378 0.8094 0.14074 0.0
H955 H 0.55373 0.82692 0.09708 0.0
H956 H 0.5421 0.82344 0.12827 0.0
C957 C 0.58032 0.8036 0.13746 0.0
C958 C 0.27991 0.58558 0.10325 0.0
C959 C 0.27344 0.58419 0.12139 0.0
H960 H 0.28474 0.60324 0.07871 0.0
C961 C 0.26489 0.5992 0.12775 0.0
H962 H 0.28706 0.57454 0.09817 0.0
C963 C 0.26349 0.61559 0.11659 0.0
C964 C 0.27064 0.6174 0.09879 0.0
H965 H 0.25978 0.59857 0.14168 0.0
H966 H 0.25731 0.62715 0.12218 0.0
C967 C 0.27855 0.60207 0.09205 0.0
C968 C 0.44427 0.31777 0.06087 0.0
C969 C 0.43234 0.30752 0.07271 0.0
H970 H 0.47058 0.33049 0.05755 0.0
C971 C 0.43784 0.30335 0.09131 0.0
H972 H 0.4402 0.32188 0.04673 0.0
C973 C 0.45521 0.30846 0.09764 0.0
C974 C 0.46737 0.31799 0.08552 0.0
H975 H 0.42886 0.29557 0.10079 0.0
H976 H 0.45918 0.30456 0.11188 0.0
C977 C 0.46162 0.32291 0.06718 0.0
C978 C 0.27245 0.41872 0.94894 0.0
C979 C 0.2671 0.40993 0.96595 0.0
H980 H 0.27315 0.44384 0.9312 0.0
C981 C 0.25716 0.41959 0.97773 0.0
H982 H 0.27991 0.41141 0.93948 0.0
C983 C 0.25316 0.43798 0.97297 0.0
C984 C 0.25901 0.44712 0.9563 0.0
H985 H 0.25219 0.4128 0.9905 0.0
H986 H 0.2455 0.44506 0.98241 0.0
C987 C 0.26853 0.43723 0.9442 0.0
C988 C 0.60129 0.27503 0.94389 0.0
C989 C 0.5918 0.2652 0.95824 0.0
H990 H 0.60182 0.28291 0.91464 0.0
C991 C 0.57559 0.25479 0.95357 0.0
H992 H 0.61385 0.28312 0.947 0.0
C993 C 0.56875 0.25466 0.93509 0.0
C994 C 0.57789 0.26508 0.9209 0.0
H995 H 0.56805 0.24683 0.96422 0.0
H996 H 0.55639 0.24625 0.93191 0.0
C997 C 0.59441 0.27491 0.92537 0.0
C998 C 0.47798 0.73493 0.94593 0.0
C999 C 0.48423 0.75115 0.93534 0.0
H1000 H 0.46033 0.72318 0.96664 0.0
C1001 C 0.47531 0.76751 0.93568 0.0
H1002 H 0.48442 0.72202 0.94584 0.0
C1003 C 0.46148 0.76818 0.94763 0.0
C1004 C 0.45629 0.75251 0.95948 0.0
H1005 H 0.47966 0.7802 0.92755 0.0
H1006 H 0.45556 0.78136 0.94835 0.0
C1007 C 0.46415 0.73559 0.95787 0.0
C1008 C 0.0591 0.33716 0.35319 0.0
C1009 C 0.04933 0.34459 0.36685 0.0
H1010 H 0.07193 0.34211 0.32724 0.0
C1011 C 0.04526 0.36348 0.36465 0.0
H1012 H 0.06249 0.32267 0.35449 0.0
C1013 C 0.05063 0.3746 0.349 0.0
C1014 C 0.06025 0.36711 0.33524 0.0
H1015 H 0.03776 0.36964 0.37492 0.0
H1016 H 0.04714 0.38905 0.34764 0.0
C1017 C 0.06453 0.34831 0.33758 0.0
C1018 C 0.69282 0.03635 0.36438 0.0
C1019 C 0.68926 0.02968 0.38271 0.0
H1020 H 0.68243 0.04665 0.33804 0.0
C1021 C 0.67192 0.02861 0.38856 0.0
H1022 H 0.70604 0.03731 0.35944 0.0
C1023 C 0.65845 0.03418 0.37639 0.0
C1024 C 0.66197 0.04069 0.35801 0.0
H1025 H 0.66875 0.0236 0.40262 0.0
H1026 H 0.64523 0.03319 0.38134 0.0
C1027 C 0.67929 0.04167 0.35211 0.0
C1028 C 0.03632 0.68261 0.32817 0.0
C1029 C 0.04585 0.67869 0.31268 0.0
H1030 H 0.03177 0.70287 0.34856 0.0
C1031 C 0.05867 0.6927 0.30604 0.0
H1032 H 0.02633 0.67212 0.33359 0.0
C1033 C 0.06193 0.71024 0.31475 0.0
C1034 C 0.05226 0.71423 0.33011 0.0
H1035 H 0.06628 0.69009 0.29417 0.0
H1036 H 0.0719 0.72074 0.30931 0.0
C1037 C 0.03941 0.70024 0.33672 0.0
C1038 C 0.35211 0.07507 0.35806 0.0
C1039 C 0.36937 0.0731 0.36482 0.0
H1040 H 0.32647 0.08173 0.36439 0.0
C1041 C 0.37406 0.07711 0.38366 0.0
H1042 H 0.34809 0.07209 0.34361 0.0
C1043 C 0.36172 0.08278 0.39553 0.0
C1044 C 0.34437 0.08441 0.38886 0.0
H1045 H 0.38727 0.07581 0.3893 0.0
H1046 H 0.36572 0.08559 0.41001 0.0
C1047 C 0.33972 0.08059 0.36997 0.0
C1048 C 0.05943 0.7649 0.71195 0.0
C1049 C 0.05 0.74812 0.71871 0.0
H1050 H 0.06215 0.78603 0.6898 0.0
C1051 C 0.03607 0.73931 0.7075 0.0
H1052 H 0.07019 0.77206 0.7203 0.0
C1053 C 0.03162 0.74718 0.68991 0.0
C1054 C 0.04081 0.76419 0.68334 0.0
H1055 H 0.02859 0.72634 0.71232 0.0
H1056 H 0.02079 0.74011 0.6816 0.0
C1057 C 0.05477 0.77295 0.69453 0.0
C1058 C 0.35436 0.05293 0.65055 0.0
C1059 C 0.36969 0.04394 0.65439 0.0
H1060 H 0.32623 0.05014 0.64923 0.0
C1061 C 0.36809 0.02479 0.66061 0.0
H1062 H 0.35515 0.06767 0.64571 0.0
C1063 C 0.35152 0.01479 0.66275 0.0
C1064 C 0.33619 0.02366 0.65855 0.0
H1065 H 0.37964 0.01747 0.66373 0.0
H1066 H 0.35074 -0.0 0.66743 0.0
C1067 C 0.33779 0.04287 0.65252 0.0
C1068 C 0.02672 0.35687 0.71687 0.0
C1069 C 0.03902 0.34674 0.72703 0.0
H1070 H 0.01233 0.38128 0.71557 0.0
C1071 C 0.04637 0.35383 0.74415 0.0
H1072 H 0.02089 0.35177 0.70361 0.0
C1073 C 0.04123 0.37052 0.75115 0.0
C1074 C 0.02893 0.38067 0.74098 0.0
H1075 H 0.05583 0.34628 0.75231 0.0
H1076 H 0.04696 0.37553 0.76449 0.0
C1077 C 0.02186 0.37379 0.72369 0.0
C1078 C 0.7484 0.0094 0.71903 0.0
C1079 C 0.75449 0.02886 0.71802 0.0
H1080 H 0.7342 0.98683 0.73459 0.0
C1081 C 0.74965 0.04089 0.73172 0.0
H1082 H 0.75196 0.99976 0.70871 0.0
C1083 C 0.73921 0.03354 0.74634 0.0
C1084 C 0.73375 0.01395 0.74779 0.0
H1085 H 0.75411 0.05597 0.73126 0.0
H1086 H 0.73593 0.0431 0.75688 0.0
C1087 C 0.73829 0.00198 0.73388 0.0
C1088 C 0.32638 0.32368 0.03602 0.0
C1089 C 0.34095 0.31603 0.02917 0.0
H1090 H 0.30266 0.33643 0.02934 0.0
C1091 C 0.34335 0.31692 0.00976 0.0
H1092 H 0.32417 0.32325 0.0509 0.0
C1093 C 0.33107 0.3246 0.9974 0.0
C1094 C 0.31606 0.3314 0.00419 0.0
H1095 H 0.35448 0.31124 0.00404 0.0
H1096 H 0.33305 0.32457 0.98249 0.0
C1097 C 0.31404 0.33121 0.02366 0.0
C1098 C 0.34219 0.69278 0.07559 0.0
C1099 C 0.32758 0.69623 0.06384 0.0
H1100 H 0.37025 0.69406 0.0786 0.0
C1101 C 0.33027 0.70406 0.04574 0.0
H1102 H 0.34047 0.68668 0.08958 0.0
C1103 C 0.34732 0.70875 0.03965 0.0
C1104 C 0.36192 0.70512 0.05134 0.0
H1105 H 0.3192 0.7069 0.03645 0.0
H1106 H 0.34908 0.71502 0.02573 0.0
C1107 C 0.3592 0.69692 0.06929 0.0
C1108 C 0.68059 0.36111 0.01017 0.0
C1109 C 0.67643 0.34213 0.01627 0.0
H1110 H 0.70015 0.38508 0.00895 0.0
C1111 C 0.68935 0.33275 0.02631 0.0
H1112 H 0.67093 0.36874 0.0024 0.0
C1113 C 0.70607 0.34216 0.03017 0.0
C1114 C 0.71026 0.36111 0.02396 0.0
H1115 H 0.68655 0.31814 0.03126 0.0
H1116 H 0.71573 0.33452 0.03792 0.0
C1117 C 0.69734 0.37048 0.01392 0.0
C1118 C 0.68326 0.75272 0.04984 0.0
C1119 C 0.67849 0.77044 0.04311 0.0
H1120 H 0.70352 0.73407 0.05302 0.0
C1121 C 0.69099 0.78308 0.03404 0.0
H1122 H 0.67391 0.74268 0.05691 0.0
C1123 C 0.70787 0.77805 0.03159 0.0
C1124 C 0.71267 0.76038 0.03841 0.0
H1125 H 0.6877 0.79681 0.02864 0.0
H1126 H 0.71719 0.78808 0.02448 0.0
C1127 C 0.70022 0.7478 0.04764 0.0
C1128 C 0.54969 0.86926 0.84485 0.0
C1129 C 0.55955 0.86193 0.83121 0.0
H1130 H 0.53676 0.86417 0.87073 0.0
C1131 C 0.56424 0.8433 0.83373 0.0
H1132 H 0.54587 0.88357 0.84335 0.0
C1133 C 0.55897 0.83215 0.84941 0.0
C1134 C 0.54893 0.83941 0.86294 0.0
H1135 H 0.57183 0.83722 0.82349 0.0
H1136 H 0.56267 0.8178 0.85085 0.0
C1137 C 0.54446 0.85813 0.86055 0.0
C1138 C 0.19232 0.54195 0.86117 0.0
C1139 C 0.18833 0.53556 0.87948 0.0
H1140 H 0.18254 0.55174 0.83437 0.0
C1141 C 0.17084 0.53459 0.88483 0.0
H1142 H 0.20567 0.54284 0.85661 0.0
C1143 C 0.15763 0.5399 0.87216 0.0
C1144 C 0.16158 0.54606 0.85379 0.0
H1145 H 0.16734 0.52979 0.89885 0.0
H1146 H 0.14427 0.53894 0.87672 0.0
C1147 C 0.17907 0.54702 0.84842 0.0
C1148 C 0.54235 0.20163 0.83728 0.0
C1149 C 0.55559 0.21522 0.83077 0.0
H1150 H 0.52845 0.17391 0.83399 0.0
C1151 C 0.56513 0.2109 0.81542 0.0
H1152 H 0.5348 0.20452 0.84911 0.0
C1153 C 0.56136 0.19347 0.80662 0.0
C1154 C 0.54813 0.17987 0.81315 0.0
H1155 H 0.57539 0.2211 0.81005 0.0
H1156 H 0.56886 0.19061 0.79474 0.0
C1157 C 0.53874 0.18408 0.82865 0.0
C1158 C 0.86102 0.57991 0.8956 0.0
C1159 C 0.84367 0.58132 0.88882 0.0
H1160 H 0.88672 0.57324 0.88958 0.0
C1161 C 0.83915 0.57732 0.86994 0.0
H1162 H 0.86493 0.58286 0.91009 0.0
C1163 C 0.85168 0.57189 0.85814 0.0
C1164 C 0.86896 0.57019 0.86502 0.0
H1165 H 0.8259 0.57828 0.86427 0.0
H1166 H 0.84776 0.56881 0.84369 0.0
C1167 C 0.8735 0.57434 0.88386 0.0
C1168 C 0.55997 0.26533 0.21394 0.0
C1169 C 0.55061 0.24846 0.22059 0.0
H1170 H 0.56238 0.28683 0.19211 0.0
C1171 C 0.53638 0.23997 0.20957 0.0
H1172 H 0.57096 0.27224 0.22215 0.0
C1173 C 0.53163 0.24818 0.19224 0.0
C1174 C 0.5408 0.26524 0.18575 0.0
H1175 H 0.52895 0.22694 0.21431 0.0
H1176 H 0.5206 0.24133 0.18406 0.0
C1177 C 0.55501 0.27373 0.19678 0.0
C1178 C 0.85421 0.55328 0.15079 0.0
C1179 C 0.86957 0.54431 0.15441 0.0
H1180 H 0.82608 0.55044 0.14978 0.0
C1181 C 0.86806 0.52513 0.16053 0.0
H1182 H 0.85493 0.56804 0.14603 0.0
C1183 C 0.85153 0.51509 0.16282 0.0
C1184 C 0.83616 0.52395 0.15886 0.0
H1185 H 0.87964 0.51783 0.16349 0.0
H1186 H 0.85081 0.50029 0.16743 0.0
C1187 C 0.83767 0.54318 0.1529 0.0
C1188 C 0.53763 0.87147 0.25306 0.0
C1189 C 0.52513 0.88186 0.24354 0.0
H1190 H 0.55288 0.84783 0.25263 0.0
C1191 C 0.51822 0.87592 0.22586 0.0
H1192 H 0.54323 0.87576 0.26668 0.0
C1193 C 0.52353 0.85975 0.21796 0.0
C1194 C 0.53612 0.84944 0.22742 0.0
H1195 H 0.50853 0.88362 0.21822 0.0
H1196 H 0.51788 0.85541 0.20437 0.0
C1197 C 0.5432 0.85553 0.24499 0.0
C1198 C 0.25057 0.54141 0.23158 0.0
C1199 C 0.25471 0.52891 0.21795 0.0
H1200 H 0.23813 0.54448 0.25738 0.0
C1201 C 0.24871 0.50948 0.2198 0.0
H1202 H 0.25497 0.55647 0.23047 0.0
C1203 C 0.23936 0.50256 0.23537 0.0
C1204 C 0.23549 0.51501 0.24918 0.0
H1205 H 0.25174 0.4995 0.20955 0.0
H1206 H 0.2353 0.48744 0.23669 0.0
C1207 C 0.24088 0.53455 0.24694 0.0
C1208 C 0.82944 0.82369 0.5463 0.0
C1209 C 0.84038 0.81141 0.53875 0.0
H1210 H 0.80774 0.8402 0.54144 0.0
C1211 C 0.83856 0.80778 0.51948 0.0
H1212 H 0.83053 0.82685 0.56108 0.0
C1213 C 0.8255 0.81546 0.5082 0.0
C1214 C 0.81395 0.82692 0.51597 0.0
H1215 H 0.84683 0.79846 0.5132 0.0
H1216 H 0.82406 0.81184 0.49355 0.0
C1217 C 0.81635 0.83134 0.53503 0.0
C1218 C 0.84397 0.23052 0.55614 0.0
C1219 C 0.8546 0.22011 0.54577 0.0
H1220 H 0.81965 0.23068 0.56969 0.0
C1221 C 0.84839 0.20141 0.54089 0.0
H1222 H 0.84843 0.24494 0.56017 0.0
C1223 C 0.83179 0.19335 0.5461 0.0
C1224 C 0.82123 0.20371 0.5566 0.0
H1225 H 0.85626 0.19306 0.53286 0.0
H1226 H 0.82732 0.17894 0.54205 0.0
C1227 C 0.82752 0.22234 0.56165 0.0
C1228 C 0.20726 0.8427 0.52796 0.0
C1229 C 0.2111 0.86173 0.52184 0.0
H1230 H 0.18813 0.81834 0.52904 0.0
C1231 C 0.19796 0.87087 0.51192 0.0
H1232 H 0.2171 0.83524 0.53561 0.0
C1233 C 0.18133 0.86121 0.50821 0.0
C1234 C 0.17751 0.84215 0.51425 0.0
H1235 H 0.2005 0.88553 0.50701 0.0
H1236 H 0.17149 0.86866 0.50054 0.0
C1237 C 0.19066 0.833 0.52416 0.0
C1238 C 0.206 0.27761 0.5347 0.0
C1239 C 0.21114 0.25993 0.54105 0.0
H1240 H 0.18542 0.29589 0.53225 0.0
C1241 C 0.19888 0.24682 0.54993 0.0
H1242 H 0.21517 0.28804 0.52787 0.0
C1243 C 0.18177 0.25124 0.55225 0.0
C1244 C 0.17666 0.26896 0.546 0.0
H1245 H 0.20244 0.23307 0.55494 0.0
H1246 H 0.17258 0.2408 0.55904 0.0
C1247 C 0.18897 0.28214 0.53728 0.0
loop_
_geom_bond_atom_site_label_1
_geom_bond_atom_site_label_2
_geom_bond_distance
_geom_bond_site_symmetry_2
_ccdc_geom_bond_type
O0 Cd1 2.300 . S
O0 C7 1.275 . S
Cd1 O0 2.300 . S
Cd1 O9 2.381 . S
Cd1 O10 2.378 . S
O2 Cd3 2.385 . S
O2 C7 1.255 . S
Cd3 O2 2.385 . S
Cd3 O4 2.317 . S
O4 Cd3 2.317 . S
O4 C5 1.232 . S
C5 O4 1.232 . S
C5 O6 1.218 . S
O6 C5 1.218 . S
C7 O0 1.275 . S
C7 O2 1.255 . S
C8 O9 1.258 . S
C8 O10 1.256 . S
O9 Cd1 2.381 . S
O9 C8 1.258 . S
O10 Cd1 2.378 . S
O10 C8 1.256 . S
O11 Cd12 2.300 . S
O11 C18 1.275 . S
Cd12 O11 2.300 . S
Cd12 O20 2.381 . S
Cd12 O21 2.378 . S
O13 Cd14 2.385 . S
O13 C18 1.255 . S
Cd14 O13 2.385 . S
Cd14 O15 2.317 1_545 S
O15 Cd14 2.317 1_565 S
O15 C16 1.232 . S
C16 O15 1.232 . S
C16 O17 1.218 . S
O17 C16 1.218 . S
C18 O11 1.275 . S
C18 O13 1.255 . S
C19 O20 1.258 . S
C19 O21 1.256 . S
O20 Cd12 2.381 . S
O20 C19 1.258 . S
O21 Cd12 2.378 . S
O21 C19 1.256 . S
O22 Cd23 2.300 . S
O22 C29 1.275 . S
Cd23 O22 2.300 . S
Cd23 O31 2.381 . S
Cd23 O32 2.378 . S
O24 Cd25 2.385 . S
O24 C29 1.255 . S
Cd25 O24 2.385 . S
Cd25 O26 2.317 1_455 S
O26 Cd25 2.317 1_655 S
O26 C27 1.232 . S
C27 O26 1.232 . S
C27 O28 1.215 1_655 S
O28 C27 1.215 1_455 S
C29 O22 1.275 . S
C29 O24 1.255 . S
C30 O31 1.258 . S
C30 O32 1.256 . S
O31 Cd23 2.381 . S
O31 C30 1.258 . S
O32 Cd23 2.378 . S
O32 C30 1.256 . S
O33 Cd34 2.300 . S
O33 C40 1.275 . S
Cd34 O33 2.300 . S
Cd34 O42 2.381 . S
Cd34 O43 2.378 . S
O35 Cd36 2.385 . S
O35 C40 1.255 . S
Cd36 O35 2.385 . S
Cd36 O37 2.317 . S
O37 Cd36 2.317 . S
O37 C38 1.232 . S
C38 O37 1.232 . S
C38 O39 1.218 . S
O39 C38 1.218 . S
C40 O33 1.275 . S
C40 O35 1.255 . S
C41 O42 1.258 . S
C41 O43 1.256 . S
O42 Cd34 2.381 . S
O42 C41 1.258 . S
O43 Cd34 2.378 . S
O43 C41 1.256 . S
O44 Cd45 2.300 . S
O44 C51 1.275 . S
Cd45 O44 2.300 . S
Cd45 O53 2.381 . S
Cd45 O54 2.378 . S
O46 Cd47 2.385 . S
O46 C51 1.255 . S
Cd47 O46 2.385 . S
Cd47 O48 2.317 . S
O48 Cd47 2.317 . S
O48 C49 1.232 1_455 S
C49 O48 1.232 1_655 S
C49 O50 1.218 1_655 S
O50 C49 1.218 1_455 S
C51 O44 1.275 . S
C51 O46 1.255 . S
C52 O53 1.258 . S
C52 O54 1.256 . S
O53 Cd45 2.381 . S
O53 C52 1.258 . S
O54 Cd45 2.378 . S
O54 C52 1.256 . S
O55 Cd56 2.300 . S
O55 C62 1.275 . S
Cd56 O55 2.300 . S
Cd56 O64 2.381 . S
Cd56 O65 2.378 . S
O57 Cd58 2.385 . S
O57 C62 1.255 . S
Cd58 O57 2.385 . S
Cd58 O59 2.317 . S
O59 Cd58 2.317 . S
O59 C60 1.232 . S
C60 O59 1.232 . S
C60 O61 1.218 . S
O61 C60 1.218 . S
C62 O55 1.275 . S
C62 O57 1.255 . S
C63 O64 1.258 . S
C63 O65 1.256 . S
O64 Cd56 2.381 . S
O64 C63 1.258 . S
O65 Cd56 2.378 . S
O65 C63 1.256 . S
O66 Cd67 2.300 . S
O66 C73 1.275 . S
Cd67 O66 2.300 . S
Cd67 O75 2.381 . S
Cd67 O76 2.378 . S
O68 Cd69 2.385 . S
O68 C73 1.255 . S
Cd69 O68 2.385 . S
Cd69 O70 2.317 1_455 S
O70 Cd69 2.317 1_655 S
O70 C71 1.232 . S
C71 O70 1.232 . S
C71 O72 1.218 . S
O72 C71 1.218 . S
C73 O66 1.275 . S
C73 O68 1.255 . S
C74 O75 1.258 . S
C74 O76 1.256 . S
O75 Cd67 2.381 . S
O75 C74 1.258 . S
O76 Cd67 2.378 . S
O76 C74 1.256 . S
O77 Cd78 2.300 . S
O77 C84 1.275 . S
Cd78 O77 2.300 . S
Cd78 O86 2.381 . S
Cd78 O87 2.378 . S
O79 Cd80 2.385 . S
O79 C84 1.255 . S
Cd80 O79 2.385 . S
Cd80 O81 2.317 1_545 S
O81 Cd80 2.317 1_565 S
O81 C82 1.232 . S
C82 O81 1.232 . S
C82 O83 1.218 . S
O83 C82 1.218 . S
C84 O77 1.275 . S
C84 O79 1.255 . S
C85 O86 1.258 . S
C85 O87 1.256 . S
O86 Cd78 2.381 . S
O86 C85 1.258 . S
O87 Cd78 2.378 . S
O87 C85 1.256 . S
O88 Cd89 2.300 . S
O88 C95 1.275 . S
Cd89 O88 2.300 . S
Cd89 O97 2.381 . S
Cd89 O98 2.378 . S
O90 Cd91 2.385 . S
O90 C95 1.255 . S
Cd91 O90 2.385 . S
Cd91 O92 2.317 . S
O92 Cd91 2.317 . S
O92 C93 1.232 . S
C93 O92 1.232 . S
C93 O94 1.218 . S
O94 C93 1.218 . S
C95 O88 1.275 . S
C95 O90 1.255 . S
C96 O97 1.258 . S
C96 O98 1.256 . S
O97 Cd89 2.381 . S
O97 C96 1.258 . S
O98 Cd89 2.378 . S
O98 C96 1.256 . S
O99 Cd100 2.300 . S
O99 C106 1.275 . S
Cd100 O99 2.300 . S
Cd100 O108 2.381 . S
Cd100 O109 2.378 . S
O101 Cd102 2.385 . S
O101 C106 1.255 . S
Cd102 O101 2.385 . S
Cd102 O103 2.317 . S
O103 Cd102 2.317 . S
O103 C104 1.232 . S
C104 O103 1.232 . S
C104 O105 1.218 . S
O105 C104 1.218 . S
C106 O99 1.275 . S
C106 O101 1.255 . S
C107 O108 1.258 . S
C107 O109 1.256 . S
O108 Cd100 2.381 . S
O108 C107 1.258 . S
O109 Cd100 2.378 . S
O109 C107 1.256 . S
O110 Cd111 2.300 . S
O110 C117 1.275 . S
Cd111 O110 2.300 . S
Cd111 O119 2.381 . S
Cd111 O120 2.378 . S
O112 Cd113 2.385 . S
O112 C117 1.255 . S
Cd113 O112 2.385 . S
Cd113 O114 2.317 . S
O114 Cd113 2.317 . S
O114 C115 1.232 . S
C115 O114 1.232 . S
C115 O116 1.218 . S
O116 C115 1.218 . S
C117 O110 1.275 . S
C117 O112 1.255 . S
C118 O119 1.258 . S
C118 O120 1.256 . S
O119 Cd111 2.381 . S
O119 C118 1.258 . S
O120 Cd111 2.378 . S
O120 C118 1.256 . S
O121 Cd122 2.300 . S
O121 C128 1.275 . S
Cd122 O121 2.300 . S
Cd122 O130 2.381 . S
Cd122 O131 2.378 . S
O123 Cd124 2.385 . S
O123 C128 1.255 . S
Cd124 O123 2.385 . S
Cd124 O125 2.317 . S
O125 Cd124 2.317 . S
O125 C126 1.232 . S
C126 O125 1.232 . S
C126 O127 1.218 . S
O127 C126 1.218 . S
C128 O121 1.275 . S
C128 O123 1.255 . S
C129 O130 1.258 . S
C129 O131 1.256 . S
O130 Cd122 2.381 . S
O130 C129 1.258 . S
O131 Cd122 2.378 . S
O131 C129 1.256 . S
O132 Cd133 2.300 . S
O132 C139 1.275 . S
Cd133 O132 2.300 . S
Cd133 O141 2.381 . S
Cd133 O142 2.378 . S
O134 Cd135 2.385 . S
O134 C139 1.255 . S
Cd135 O134 2.385 . S
Cd135 O136 2.317 1_545 S
O136 Cd135 2.317 1_565 S
O136 C137 1.232 . S
C137 O136 1.232 . S
C137 O138 1.218 . S
O138 C137 1.218 . S
C139 O132 1.275 . S
C139 O134 1.255 . S
C140 O141 1.258 . S
C140 O142 1.256 . S
O141 Cd133 2.381 . S
O141 C140 1.258 . S
O142 Cd133 2.378 . S
O142 C140 1.256 . S
O143 Cd144 2.300 . S
O143 C150 1.275 . S
Cd144 O143 2.300 . S
Cd144 O152 2.381 . S
Cd144 O153 2.378 . S
O145 Cd146 2.385 . S
O145 C150 1.255 . S
Cd146 O145 2.385 . S
Cd146 O147 2.317 1_455 S
O147 Cd146 2.317 1_655 S
O147 C148 1.232 . S
C148 O147 1.232 . S
C148 O149 1.218 . S
O149 C148 1.218 . S
C150 O143 1.275 . S
C150 O145 1.255 . S
C151 O152 1.258 . S
C151 O153 1.256 . S
O152 Cd144 2.381 . S
O152 C151 1.258 . S
O153 Cd144 2.378 . S
O153 C151 1.256 . S
O154 Cd155 2.300 . S
O154 C161 1.275 . S
Cd155 O154 2.300 . S
Cd155 O163 2.381 . S
Cd155 O164 2.378 . S
O156 Cd157 2.385 . S
O156 C161 1.255 . S
Cd157 O156 2.385 . S
Cd157 O158 2.317 . S
O158 Cd157 2.317 . S
O158 C159 1.232 . S
C159 O158 1.232 . S
C159 O160 1.218 . S
O160 C159 1.218 . S
C161 O154 1.275 . S
C161 O156 1.255 . S
C162 O163 1.258 . S
C162 O164 1.256 . S
O163 Cd155 2.381 . S
O163 C162 1.258 . S
O164 Cd155 2.378 . S
O164 C162 1.256 . S
O165 Cd166 2.300 . S
O165 C172 1.275 . S
Cd166 O165 2.300 . S
Cd166 O174 2.381 . S
Cd166 O175 2.378 . S
O167 Cd168 2.385 . S
O167 C172 1.255 . S
Cd168 O167 2.385 . S
Cd168 O169 2.317 1_455 S
O169 Cd168 2.317 1_655 S
O169 C170 1.232 . S
C170 O169 1.232 . S
C170 O171 1.218 . S
O171 C170 1.218 . S
C172 O165 1.275 . S
C172 O167 1.255 . S
C173 O174 1.258 . S
C173 O175 1.256 . S
O174 Cd166 2.381 . S
O174 C173 1.258 . S
O175 Cd166 2.378 . S
O175 C173 1.256 . S
O176 Cd177 2.300 . S
O176 C183 1.275 . S
Cd177 O176 2.300 . S
Cd177 O185 2.381 . S
Cd177 O186 2.378 . S
O178 Cd179 2.385 . S
O178 C183 1.255 . S
Cd179 O178 2.385 . S
Cd179 O180 2.317 . S
O180 Cd179 2.317 . S
O180 C181 1.232 . S
C181 O180 1.232 . S
C181 O182 1.218 . S
O182 C181 1.218 . S
C183 O176 1.275 . S
C183 O178 1.255 . S
C184 O185 1.258 . S
C184 O186 1.256 . S
O185 Cd177 2.381 . S
O185 C184 1.258 . S
O186 Cd177 2.378 . S
O186 C184 1.256 . S
O187 Cd188 2.300 . S
O187 C194 1.275 . S
Cd188 O187 2.300 . S
Cd188 O196 2.381 . S
Cd188 O197 2.378 . S
O189 Cd190 2.385 . S
O189 C194 1.255 . S
Cd190 O189 2.385 . S
Cd190 O191 2.317 . S
O191 Cd190 2.317 . S
O191 C192 1.232 . S
C192 O191 1.232 . S
C192 O193 1.218 . S
O193 C192 1.218 . S
C194 O187 1.275 . S
C194 O189 1.255 . S
C195 O196 1.258 . S
C195 O197 1.256 . S
O196 Cd188 2.381 . S
O196 C195 1.258 . S
O197 Cd188 2.378 . S
O197 C195 1.256 . S
O198 Cd199 2.300 . S
O198 C205 1.275 . S
Cd199 O198 2.300 . S
Cd199 O207 2.381 . S
Cd199 O208 2.378 1_554 S
O200 Cd201 2.385 1_554 S
O200 C205 1.255 . S
Cd201 O200 2.385 1_556 S
Cd201 O202 2.317 . S
O202 Cd201 2.317 . S
O202 C203 1.232 . S
C203 O202 1.232 . S
C203 O204 1.218 . S
O204 C203 1.218 . S
C205 O198 1.275 . S
C205 O200 1.255 . S
C206 O207 1.258 . S
C206 O208 1.256 1_554 S
O207 Cd199 2.381 . S
O207 C206 1.258 . S
O208 Cd199 2.378 1_556 S
O208 C206 1.256 1_556 S
O209 Cd210 2.300 . S
O209 C216 1.275 . S
Cd210 O209 2.300 . S
Cd210 O218 2.381 . S
Cd210 O219 2.378 . S
O211 Cd212 2.385 . S
O211 C216 1.255 . S
Cd212 O211 2.385 . S
Cd212 O213 2.317 1_554 S
O213 Cd212 2.317 1_556 S
O213 C214 1.232 . S
C214 O213 1.232 . S
C214 O215 1.218 1_556 S
O215 C214 1.218 1_554 S
C216 O209 1.275 . S
C216 O211 1.255 . S
C217 O218 1.258 . S
C217 O219 1.256 . S
O218 Cd210 2.381 . S
O218 C217 1.258 . S
O219 Cd210 2.378 . S
O219 C217 1.256 . S
O220 Cd221 2.300 . S
O220 C227 1.275 . S
Cd221 O220 2.300 . S
Cd221 O229 2.381 . S
Cd221 O230 2.378 . S
O222 Cd223 2.385 . S
O222 C227 1.255 . S
Cd223 O222 2.385 . S
Cd223 O224 2.317 . S
O224 Cd223 2.317 . S
O224 C225 1.232 . S
C225 O224 1.232 . S
C225 O226 1.218 . S
O226 C225 1.218 . S
C227 O220 1.275 . S
C227 O222 1.255 . S
C228 O229 1.258 . S
C228 O230 1.256 . S
O229 Cd221 2.381 . S
O229 C228 1.258 . S
O230 Cd221 2.378 . S
O230 C228 1.256 . S
O231 Cd232 2.300 . S
O231 C238 1.275 . S
Cd232 O231 2.300 . S
Cd232 O240 2.381 . S
Cd232 O241 2.378 . S
O233 Cd234 2.385 . S
O233 C238 1.255 . S
Cd234 O233 2.385 . S
Cd234 O235 2.317 . S
O235 Cd234 2.317 . S
O235 C236 1.232 . S
C236 O235 1.232 . S
C236 O237 1.218 . S
O237 C236 1.218 . S
C238 O231 1.275 . S
C238 O233 1.255 . S
C239 O240 1.258 . S
C239 O241 1.256 . S
O240 Cd232 2.381 . S
O240 C239 1.258 . S
O241 Cd232 2.378 . S
O241 C239 1.256 . S
O242 Cd243 2.300 . S
O242 C249 1.275 . S
Cd243 O242 2.300 . S
Cd243 O251 2.381 . S
Cd243 O252 2.378 . S
O244 Cd245 2.385 . S
O244 C249 1.255 . S
Cd245 O244 2.385 . S
Cd245 O246 2.317 . S
O246 Cd245 2.317 . S
O246 C247 1.232 . S
C247 O246 1.232 . S
C247 O248 1.218 . S
O248 C247 1.218 . S
C249 O242 1.275 . S
C249 O244 1.255 . S
C250 O251 1.258 . S
C250 O252 1.256 . S
O251 Cd243 2.381 . S
O251 C250 1.258 . S
O252 Cd243 2.378 . S
O252 C250 1.256 . S
O253 Cd254 2.300 . S
O253 C260 1.275 . S
Cd254 O253 2.300 . S
Cd254 O262 2.381 . S
Cd254 O263 2.378 . S
O255 Cd256 2.385 . S
O255 C260 1.255 . S
Cd256 O255 2.385 . S
Cd256 O257 2.317 1_554 S
O257 Cd256 2.317 1_556 S
O257 C258 1.232 . S
C258 O257 1.232 . S
C258 O259 1.218 . S
O259 C258 1.218 . S
C260 O253 1.275 . S
C260 O255 1.255 . S
C261 O262 1.258 . S
C261 O263 1.256 . S
O262 Cd254 2.381 . S
O262 C261 1.258 . S
O263 Cd254 2.378 . S
O263 C261 1.256 . S
O264 Cd265 2.300 . S
O264 C271 1.275 . S
Cd265 O264 2.300 . S
Cd265 O273 2.381 . S
Cd265 O274 2.378 . S
O266 Cd267 2.385 . S
O266 C271 1.255 . S
Cd267 O266 2.385 . S
Cd267 O268 2.317 . S
O268 Cd267 2.317 . S
O268 C269 1.232 . S
C269 O268 1.232 . S
C269 O270 1.218 . S
O270 C269 1.218 . S
C271 O264 1.275 . S
C271 O266 1.255 . S
C272 O273 1.258 . S
C272 O274 1.256 . S
O273 Cd265 2.381 . S
O273 C272 1.258 . S
O274 Cd265 2.378 . S
O274 C272 1.256 . S
O275 Cd276 2.300 . S
O275 C282 1.275 . S
Cd276 O275 2.300 . S
Cd276 O284 2.381 . S
Cd276 O285 2.378 . S
O277 Cd278 2.385 . S
O277 C282 1.255 . S
Cd278 O277 2.385 . S
Cd278 O279 2.317 . S
O279 Cd278 2.317 . S
O279 C280 1.232 . S
C280 O279 1.232 . S
C280 O281 1.218 . S
O281 C280 1.218 . S
C282 O275 1.275 . S
C282 O277 1.255 . S
C283 O284 1.258 . S
C283 O285 1.256 . S
O284 Cd276 2.381 . S
O284 C283 1.258 . S
O285 Cd276 2.378 . S
O285 C283 1.256 . S
O286 Cd287 2.300 . S
O286 C293 1.275 . S
Cd287 O286 2.300 . S
Cd287 O295 2.381 . S
Cd287 O296 2.378 . S
O288 Cd289 2.385 . S
O288 C293 1.255 . S
Cd289 O288 2.385 . S
Cd289 O290 2.317 . S
O290 Cd289 2.317 . S
O290 C291 1.232 . S
C291 O290 1.232 . S
C291 O292 1.218 . S
O292 C291 1.218 . S
C293 O286 1.275 . S
C293 O288 1.255 . S
C294 O295 1.258 . S
C294 O296 1.256 . S
O295 Cd287 2.381 . S
O295 C294 1.258 . S
O296 Cd287 2.378 . S
O296 C294 1.256 . S
O297 Cd298 2.300 . S
O297 C304 1.275 . S
Cd298 O297 2.300 . S
Cd298 O306 2.381 . S
Cd298 O307 2.378 . S
O299 Cd300 2.385 . S
O299 C304 1.255 . S
Cd300 O299 2.385 . S
Cd300 O301 2.317 . S
O301 Cd300 2.317 . S
O301 C302 1.232 . S
C302 O301 1.232 . S
C302 O303 1.218 . S
O303 C302 1.218 . S
C304 O297 1.275 . S
C304 O299 1.255 . S
C305 O306 1.258 . S
C305 O307 1.256 . S
O306 Cd298 2.381 . S
O306 C305 1.258 . S
O307 Cd298 2.378 . S
O307 C305 1.256 . S
O308 Cd309 2.300 . S
O308 C315 1.275 . S
Cd309 O308 2.300 . S
Cd309 O317 2.381 . S
Cd309 O318 2.378 . S
O310 Cd311 2.385 . S
O310 C315 1.255 . S
Cd311 O310 2.385 . S
Cd311 O312 2.317 . S
O312 Cd311 2.317 . S
O312 C313 1.232 . S
C313 O312 1.232 . S
C313 O314 1.218 . S
O314 C313 1.218 . S
C315 O308 1.275 . S
C315 O310 1.255 . S
C316 O317 1.258 . S
C316 O318 1.256 . S
O317 Cd309 2.381 . S
O317 C316 1.258 . S
O318 Cd309 2.378 . S
O318 C316 1.256 . S
O319 Cd320 2.300 . S
O319 C326 1.275 . S
Cd320 O319 2.300 . S
Cd320 O328 2.381 . S
Cd320 O329 2.378 . S
O321 Cd322 2.385 . S
O321 C326 1.255 . S
Cd322 O321 2.385 . S
Cd322 O323 2.317 . S
O323 Cd322 2.317 . S
O323 C324 1.232 . S
C324 O323 1.232 . S
C324 O325 1.218 . S
O325 C324 1.218 . S
C326 O319 1.275 . S
C326 O321 1.255 . S
C327 O328 1.258 . S
C327 O329 1.256 . S
O328 Cd320 2.381 . S
O328 C327 1.258 . S
O329 Cd320 2.378 . S
O329 C327 1.256 . S
O330 Cd331 2.300 . S
O330 C337 1.275 . S
Cd331 O330 2.300 . S
Cd331 O339 2.381 . S
Cd331 O340 2.378 . S
O332 Cd333 2.385 . S
O332 C337 1.255 . S
Cd333 O332 2.385 . S
Cd333 O334 2.317 . S
O334 Cd333 2.317 . S
O334 C335 1.232 . S
C335 O334 1.232 . S
C335 O336 1.218 . S
O336 C335 1.218 . S
C337 O330 1.275 . S
C337 O332 1.255 . S
C338 O339 1.258 . S
C338 O340 1.256 . S
O339 Cd331 2.381 . S
O339 C338 1.258 . S
O340 Cd331 2.378 . S
O340 C338 1.256 . S
O341 Cd342 2.300 . S
O341 C348 1.275 . S
Cd342 O341 2.300 . S
Cd342 O350 2.381 . S
Cd342 O351 2.378 . S
O343 Cd344 2.385 . S
O343 C348 1.255 . S
Cd344 O343 2.385 . S
Cd344 O345 2.317 . S
O345 Cd344 2.317 . S
O345 C346 1.232 . S
C346 O345 1.232 . S
C346 O347 1.218 . S
O347 C346 1.218 . S
C348 O341 1.275 . S
C348 O343 1.255 . S
C349 O350 1.258 . S
C349 O351 1.256 . S
O350 Cd342 2.381 . S
O350 C349 1.258 . S
O351 Cd342 2.378 . S
O351 C349 1.256 . S
O352 Cd353 2.300 . S
O352 C359 1.275 . S
Cd353 O352 2.300 . S
Cd353 O361 2.381 . S
Cd353 O362 2.378 . S
O354 Cd355 2.385 . S
O354 C359 1.255 . S
Cd355 O354 2.385 . S
Cd355 O356 2.317 . S
O356 Cd355 2.317 . S
O356 C357 1.232 . S
C357 O356 1.232 . S
C357 O358 1.218 . S
O358 C357 1.218 . S
C359 O352 1.275 . S
C359 O354 1.255 . S
C360 O361 1.258 . S
C360 O362 1.256 . S
O361 Cd353 2.381 . S
O361 C360 1.258 . S
O362 Cd353 2.378 . S
O362 C360 1.256 . S
O363 Cd364 2.300 . S
O363 C370 1.275 . S
Cd364 O363 2.300 . S
Cd364 O372 2.381 . S
Cd364 O373 2.378 . S
O365 Cd366 2.385 . S
O365 C370 1.255 . S
Cd366 O365 2.385 . S
Cd366 O367 2.317 . S
O367 Cd366 2.317 . S
O367 C368 1.232 . S
C368 O367 1.232 . S
C368 O369 1.218 . S
O369 C368 1.218 . S
C370 O363 1.275 . S
C370 O365 1.255 . S
C371 O372 1.258 . S
C371 O373 1.256 . S
O372 Cd364 2.381 . S
O372 C371 1.258 . S
O373 Cd364 2.378 . S
O373 C371 1.256 . S
O374 Cd375 2.300 . S
O374 C381 1.275 . S
Cd375 O374 2.300 . S
Cd375 O383 2.381 . S
Cd375 O384 2.378 . S
O376 Cd377 2.385 . S
O376 C381 1.255 . S
Cd377 O376 2.385 . S
Cd377 O378 2.317 . S
O378 Cd377 2.317 . S
O378 C379 1.232 . S
C379 O378 1.232 . S
C379 O380 1.218 . S
O380 C379 1.218 . S
C381 O374 1.275 . S
C381 O376 1.255 . S
C382 O383 1.258 . S
C382 O384 1.256 . S
O383 Cd375 2.381 . S
O383 C382 1.258 . S
O384 Cd375 2.378 . S
O384 C382 1.256 . S
O385 Cd386 2.300 . S
O385 C392 1.275 . S
Cd386 O385 2.300 . S
Cd386 O394 2.381 . S
Cd386 O395 2.378 . S
O387 Cd388 2.385 . S
O387 C392 1.255 . S
Cd388 O387 2.385 . S
Cd388 O389 2.317 . S
O389 Cd388 2.317 . S
O389 C390 1.232 . S
C390 O389 1.232 . S
C390 O391 1.218 . S
O391 C390 1.218 . S
C392 O385 1.275 . S
C392 O387 1.255 . S
C393 O394 1.258 . S
C393 O395 1.256 . S
O394 Cd386 2.381 . S
O394 C393 1.258 . S
O395 Cd386 2.378 . S
O395 C393 1.256 . S
O396 Cd397 2.300 . S
O396 C403 1.275 . S
Cd397 O396 2.300 . S
Cd397 O405 2.381 . S
Cd397 O406 2.378 . S
O398 Cd399 2.385 . S
O398 C403 1.255 . S
Cd399 O398 2.385 . S
Cd399 O400 2.317 . S
O400 Cd399 2.317 . S
O400 C401 1.232 . S
C401 O400 1.232 . S
C401 O402 1.218 1_655 S
O402 C401 1.218 1_455 S
C403 O396 1.275 . S
C403 O398 1.255 . S
C404 O405 1.258 . S
C404 O406 1.256 . S
O405 Cd397 2.381 . S
O405 C404 1.258 . S
O406 Cd397 2.378 . S
O406 C404 1.256 . S
O407 Cd408 2.300 . S
O407 C414 1.275 . S
Cd408 O407 2.300 . S
Cd408 O416 2.381 . S
Cd408 O417 2.378 . S
O409 Cd410 2.385 . S
O409 C414 1.255 . S
Cd410 O409 2.385 . S
Cd410 O411 2.317 . S
O411 Cd410 2.317 . S
O411 C412 1.232 . S
C412 O411 1.232 . S
C412 O413 1.218 . S
O413 C412 1.218 . S
C414 O407 1.275 . S
C414 O409 1.255 . S
C415 O416 1.258 . S
C415 O417 1.256 . S
O416 Cd408 2.381 . S
O416 C415 1.258 . S
O417 Cd408 2.378 . S
O417 C415 1.256 . S
O418 Cd419 2.300 . S
O418 C425 1.275 . S
Cd419 O418 2.300 . S
Cd419 O427 2.381 . S
Cd419 O428 2.378 . S
O420 Cd421 2.385 . S
O420 C425 1.255 . S
Cd421 O420 2.385 . S
Cd421 O422 2.317 . S
O422 Cd421 2.317 . S
O422 C423 1.232 . S
C423 O422 1.232 . S
C423 O424 1.218 . S
O424 C423 1.218 . S
C425 O418 1.275 . S
C425 O420 1.255 . S
C426 O427 1.258 . S
C426 O428 1.256 . S
O427 Cd419 2.381 . S
O427 C426 1.258 . S
O428 Cd419 2.378 . S
O428 C426 1.256 . S
O429 Cd430 2.300 . S
O429 C436 1.275 . S
Cd430 O429 2.300 . S
Cd430 O438 2.381 . S
Cd430 O439 2.378 . S
O431 Cd432 2.385 . S
O431 C436 1.255 . S
Cd432 O431 2.385 . S
Cd432 O433 2.317 . S
O433 Cd432 2.317 . S
O433 C434 1.232 . S
C434 O433 1.232 . S
C434 O435 1.218 . S
O435 C434 1.218 . S
C436 O429 1.275 . S
C436 O431 1.255 . S
C437 O438 1.258 . S
C437 O439 1.256 . S
O438 Cd430 2.381 . S
O438 C437 1.258 . S
O439 Cd430 2.378 . S
O439 C437 1.256 . S
O440 Cd441 2.300 . S
O440 C447 1.275 . S
Cd441 O440 2.300 . S
Cd441 O449 2.381 . S
Cd441 O450 2.378 . S
O442 Cd443 2.385 . S
O442 C447 1.255 . S
Cd443 O442 2.385 . S
Cd443 O444 2.317 . S
O444 Cd443 2.317 . S
O444 C445 1.232 . S
C445 O444 1.232 . S
C445 O446 1.218 . S
O446 C445 1.218 . S
C447 O440 1.275 . S
C447 O442 1.255 . S
C448 O449 1.258 . S
C448 O450 1.256 . S
O449 Cd441 2.381 . S
O449 C448 1.258 . S
O450 Cd441 2.378 . S
O450 C448 1.256 . S
O451 Cd452 2.300 . S
O451 C458 1.275 . S
Cd452 O451 2.300 . S
Cd452 O460 2.381 . S
Cd452 O461 2.378 . S
O453 Cd454 2.385 . S
O453 C458 1.255 . S
Cd454 O453 2.385 . S
Cd454 O455 2.317 . S
O455 Cd454 2.317 . S
O455 C456 1.232 . S
C456 O455 1.232 . S
C456 O457 1.218 . S
O457 C456 1.218 . S
C458 O451 1.275 . S
C458 O453 1.255 . S
C459 O460 1.258 . S
C459 O461 1.256 . S
O460 Cd452 2.381 . S
O460 C459 1.258 . S
O461 Cd452 2.378 . S
O461 C459 1.256 . S
O462 Cd463 2.300 . S
O462 C469 1.275 . S
Cd463 O462 2.300 . S
Cd463 O471 2.381 . S
Cd463 O472 2.378 . S
O464 Cd465 2.385 . S
O464 C469 1.255 . S
Cd465 O464 2.385 . S
Cd465 O466 2.317 . S
O466 Cd465 2.317 . S
O466 C467 1.232 . S
C467 O466 1.232 . S
C467 O468 1.218 . S
O468 C467 1.218 . S
C469 O462 1.275 . S
C469 O464 1.255 . S
C470 O471 1.258 . S
C470 O472 1.256 . S
O471 Cd463 2.381 . S
O471 C470 1.258 . S
O472 Cd463 2.378 . S
O472 C470 1.256 . S
O473 Cd474 2.300 . S
O473 C480 1.275 . S
Cd474 O473 2.300 . S
Cd474 O482 2.381 . S
Cd474 O483 2.378 . S
O475 Cd476 2.385 1_565 S
O475 C480 1.255 . S
Cd476 O475 2.385 1_545 S
Cd476 O477 2.317 1_545 S
O477 Cd476 2.317 1_565 S
O477 C478 1.232 1_565 S
C478 O477 1.232 1_545 S
C478 O479 1.218 . S
O479 C478 1.218 . S
C480 O473 1.275 . S
C480 O475 1.255 . S
C481 O482 1.258 . S
C481 O483 1.256 . S
O482 Cd474 2.381 . S
O482 C481 1.258 . S
O483 Cd474 2.378 . S
O483 C481 1.256 . S
O484 Cd485 2.300 . S
O484 C491 1.275 . S
Cd485 O484 2.300 . S
Cd485 O493 2.381 . S
Cd485 O494 2.378 . S
O486 Cd487 2.385 . S
O486 C491 1.255 . S
Cd487 O486 2.385 . S
Cd487 O488 2.317 . S
O488 Cd487 2.317 . S
O488 C489 1.232 . S
C489 O488 1.232 . S
C489 O490 1.218 . S
O490 C489 1.218 . S
C491 O484 1.275 . S
C491 O486 1.255 . S
C492 O493 1.258 . S
C492 O494 1.256 . S
O493 Cd485 2.381 . S
O493 C492 1.258 . S
O494 Cd485 2.378 . S
O494 C492 1.256 . S
O495 Cd496 2.300 . S
O495 C502 1.275 . S
Cd496 O495 2.300 . S
Cd496 O504 2.381 . S
Cd496 O505 2.378 . S
O497 Cd498 2.385 . S
O497 C502 1.255 . S
Cd498 O497 2.385 . S
Cd498 O499 2.317 . S
O499 Cd498 2.317 . S
O499 C500 1.232 . S
C500 O499 1.232 . S
C500 O501 1.218 . S
O501 C500 1.218 . S
C502 O495 1.275 . S
C502 O497 1.255 . S
C503 O504 1.258 . S
C503 O505 1.256 . S
O504 Cd496 2.381 . S
O504 C503 1.258 . S
O505 Cd496 2.378 . S
O505 C503 1.256 . S
O506 Cd507 2.300 . S
O506 C513 1.275 . S
Cd507 O506 2.300 . S
Cd507 O515 2.381 . S
Cd507 O516 2.378 . S
O508 Cd509 2.385 . S
O508 C513 1.255 . S
Cd509 O508 2.385 . S
Cd509 O510 2.317 . S
O510 Cd509 2.317 . S
O510 C511 1.232 . S
C511 O510 1.232 . S
C511 O512 1.218 . S
O512 C511 1.218 . S
C513 O506 1.275 . S
C513 O508 1.255 . S
C514 O515 1.258 . S
C514 O516 1.256 . S
O515 Cd507 2.381 . S
O515 C514 1.258 . S
O516 Cd507 2.378 . S
O516 C514 1.256 . S
O517 Cd518 2.300 . S
O517 C524 1.275 . S
Cd518 O517 2.300 . S
Cd518 O526 2.381 . S
Cd518 O527 2.378 . S
O519 Cd520 2.385 . S
O519 C524 1.255 . S
Cd520 O519 2.385 . S
Cd520 O521 2.317 . S
O521 Cd520 2.317 . S
O521 C522 1.232 . S
C522 O521 1.232 . S
C522 O523 1.218 . S
O523 C522 1.218 . S
C524 O517 1.275 . S
C524 O519 1.255 . S
C525 O526 1.258 . S
C525 O527 1.256 . S
O526 Cd518 2.381 . S
O526 C525 1.258 . S
O527 Cd518 2.378 . S
O527 C525 1.256 . S
C528 C529 1.387 . S
C528 H532 0.950 . S
C528 C537 1.390 . S
C529 C528 1.387 . S
C529 C531 1.387 . S
H530 C537 0.950 . S
C531 C529 1.387 . S
C531 C533 1.390 . S
C531 H535 0.950 . S
H532 C528 0.950 . S
C533 C531 1.390 . S
C533 C534 1.387 . S
C533 H536 0.950 . S
C534 C533 1.387 . S
C534 C537 1.387 . S
H535 C531 0.950 . S
H536 C533 0.950 . S
C537 C528 1.390 . S
C537 H530 0.950 . S
C537 C534 1.387 . S
C538 C539 1.387 . S
C538 H542 0.950 . S
C538 C547 1.390 . S
C539 C538 1.387 . S
C539 C541 1.387 . S
H540 C547 0.950 . S
C541 C539 1.387 . S
C541 C543 1.390 . S
C541 H545 0.950 . S
H542 C538 0.950 . S
C543 C541 1.390 . S
C543 C544 1.387 . S
C543 H546 0.950 . S
C544 C543 1.387 . S
C544 C547 1.387 . S
H545 C541 0.950 . S
H546 C543 0.950 . S
C547 C538 1.390 . S
C547 H540 0.950 . S
C547 C544 1.387 . S
C548 C549 1.387 . S
C548 H552 0.950 . S
C548 C557 1.390 . S
C549 C548 1.387 . S
C549 C551 1.387 . S
H550 C557 0.950 . S
C551 C549 1.387 . S
C551 C553 1.390 . S
C551 H555 0.950 . S
H552 C548 0.950 . S
C553 C551 1.390 . S
C553 C554 1.387 . S
C553 H556 0.950 . S
C554 C553 1.387 . S
C554 C557 1.387 . S
H555 C551 0.950 . S
H556 C553 0.950 . S
C557 C548 1.390 . S
C557 H550 0.950 . S
C557 C554 1.387 . S
C558 C559 1.387 . S
C558 H562 0.950 . S
C558 C567 1.390 . S
C559 C558 1.387 . S
C559 C561 1.387 . S
H560 C567 0.950 . S
C561 C559 1.387 . S
C561 C563 1.390 . S
C561 H565 0.950 . S
H562 C558 0.950 . S
C563 C561 1.390 . S
C563 C564 1.387 . S
C563 H566 0.950 . S
C564 C563 1.387 . S
C564 C567 1.387 . S
H565 C561 0.950 . S
H566 C563 0.950 . S
C567 C558 1.390 . S
C567 H560 0.950 . S
C567 C564 1.387 . S
C568 C569 1.387 . S
C568 H572 0.950 . S
C568 C577 1.390 . S
C569 C568 1.387 . S
C569 C571 1.387 . S
H570 C577 0.950 . S
C571 C569 1.387 . S
C571 C573 1.390 . S
C571 H575 0.950 . S
H572 C568 0.950 . S
C573 C571 1.390 . S
C573 C574 1.387 . S
C573 H576 0.950 . S
C574 C573 1.387 . S
C574 C577 1.387 . S
H575 C571 0.950 . S
H576 C573 0.950 . S
C577 C568 1.390 . S
C577 H570 0.950 . S
C577 C574 1.387 . S
C578 C579 1.387 . S
C578 H582 0.950 . S
C578 C587 1.390 . S
C579 C578 1.387 . S
C579 C581 1.387 . S
H580 C587 0.950 . S
C581 C579 1.387 . S
C581 C583 1.390 . S
C581 H585 0.950 . S
H582 C578 0.950 . S
C583 C581 1.390 . S
C583 C584 1.387 . S
C583 H586 0.950 . S
C584 C583 1.387 . S
C584 C587 1.387 . S
H585 C581 0.950 . S
H586 C583 0.950 . S
C587 C578 1.390 . S
C587 H580 0.950 . S
C587 C584 1.387 . S
C588 C589 1.387 . S
C588 H592 0.950 . S
C588 C597 1.390 . S
C589 C588 1.387 . S
C589 C591 1.387 . S
H590 C597 0.950 . S
C591 C589 1.387 . S
C591 C593 1.390 . S
C591 H595 0.950 . S
H592 C588 0.950 . S
C593 C591 1.390 . S
C593 C594 1.387 . S
C593 H596 0.950 . S
C594 C593 1.387 . S
C594 C597 1.387 . S
H595 C591 0.950 . S
H596 C593 0.950 . S
C597 C588 1.390 . S
C597 H590 0.950 . S
C597 C594 1.387 . S
C598 C599 1.387 . S
C598 H602 0.950 . S
C598 C607 1.390 . S
C599 C598 1.387 . S
C599 C601 1.387 . S
H600 C607 0.950 . S
C601 C599 1.387 . S
C601 C603 1.390 . S
C601 H605 0.950 . S
H602 C598 0.950 . S
C603 C601 1.390 . S
C603 C604 1.387 . S
C603 H606 0.950 . S
C604 C603 1.387 . S
C604 C607 1.387 . S
H605 C601 0.950 . S
H606 C603 0.950 . S
C607 C598 1.390 . S
C607 H600 0.950 . S
C607 C604 1.387 . S
C608 C609 1.387 . S
C608 H612 0.950 . S
C608 C617 1.390 . S
C609 C608 1.387 . S
C609 C611 1.387 . S
H610 C617 0.950 . S
C611 C609 1.387 . S
C611 C613 1.390 . S
C611 H615 0.950 . S
H612 C608 0.950 . S
C613 C611 1.390 . S
C613 C614 1.387 . S
C613 H616 0.950 . S
C614 C613 1.387 . S
C614 C617 1.387 . S
H615 C611 0.950 . S
H616 C613 0.950 . S
C617 C608 1.390 . S
C617 H610 0.950 . S
C617 C614 1.387 . S
C618 C619 1.387 . S
C618 H622 0.950 . S
C618 C627 1.439 . S
C619 C618 1.387 . S
C619 C621 1.387 . S
H620 C627 0.922 1_655 S
C621 C619 1.387 . S
C621 C623 1.390 . S
C621 H625 0.950 . S
H622 C618 0.950 . S
C623 C621 1.390 . S
C623 C624 1.387 1_455 S
C623 H626 0.950 1_455 S
C624 C623 1.387 1_655 S
C624 C627 1.370 1_655 S
H625 C621 0.950 . S
H626 C623 0.950 1_655 S
C627 C618 1.439 . S
C627 H620 0.922 1_455 S
C627 C624 1.370 1_455 S
C628 C629 1.387 . S
C628 H632 0.950 . S
C628 C637 1.390 . S
C629 C628 1.387 . S
C629 C631 1.387 . S
H630 C637 0.951 1_545 S
C631 C629 1.387 . S
C631 C633 1.363 1_565 S
C631 H635 0.950 . S
H632 C628 0.950 . S
C633 C631 1.363 1_545 S
C633 C634 1.397 . S
C633 H636 0.969 . S
C634 C633 1.397 . S
C634 C637 1.387 1_545 S
H635 C631 0.950 . S
H636 C633 0.969 . S
C637 C628 1.390 . S
C637 H630 0.951 1_565 S
C637 C634 1.387 1_565 S
C638 C639 1.387 . S
C638 H642 0.950 . S
C638 C647 1.390 . S
C639 C638 1.387 . S
C639 C641 1.387 . S
H640 C647 0.950 . S
C641 C639 1.387 . S
C641 C643 1.390 . S
C641 H645 0.950 . S
H642 C638 0.950 . S
C643 C641 1.390 . S
C643 C644 1.387 . S
C643 H646 0.950 . S
C644 C643 1.387 . S
C644 C647 1.387 . S
H645 C641 0.950 . S
H646 C643 0.950 . S
C647 C638 1.390 . S
C647 H640 0.950 . S
C647 C644 1.387 . S
C648 C649 1.387 . S
C648 H652 0.950 . S
C648 C657 1.390 . S
C649 C648 1.387 . S
C649 C651 1.387 . S
H650 C657 0.950 . S
C651 C649 1.387 . S
C651 C653 1.390 . S
C651 H655 0.950 . S
H652 C648 0.950 . S
C653 C651 1.390 . S
C653 C654 1.387 . S
C653 H656 0.950 . S
C654 C653 1.387 . S
C654 C657 1.387 . S
H655 C651 0.950 . S
H656 C653 0.950 . S
C657 C648 1.390 . S
C657 H650 0.950 . S
C657 C654 1.387 . S
C658 C659 1.387 . S
C658 H662 0.950 . S
C658 C667 1.390 . S
C659 C658 1.387 . S
C659 C661 1.387 . S
H660 C667 0.950 . S
C661 C659 1.387 . S
C661 C663 1.390 . S
C661 H665 0.950 . S
H662 C658 0.950 . S
C663 C661 1.390 . S
C663 C664 1.387 . S
C663 H666 0.950 . S
C664 C663 1.387 . S
C664 C667 1.387 . S
H665 C661 0.950 . S
H666 C663 0.950 . S
C667 C658 1.390 . S
C667 H660 0.950 . S
C667 C664 1.387 . S
C668 C669 1.387 . S
C668 H672 0.950 . S
C668 C677 1.390 . S
C669 C668 1.387 . S
C669 C671 1.387 . S
H670 C677 0.950 . S
C671 C669 1.387 . S
C671 C673 1.390 . S
C671 H675 0.950 . S
H672 C668 0.950 . S
C673 C671 1.390 . S
C673 C674 1.387 . S
C673 H676 0.950 . S
C674 C673 1.387 . S
C674 C677 1.387 . S
H675 C671 0.950 . S
H676 C673 0.950 . S
C677 C668 1.390 . S
C677 H670 0.950 . S
C677 C674 1.387 . S
C678 C679 1.387 . S
C678 H682 0.950 . S
C678 C687 1.390 . S
C679 C678 1.387 . S
C679 C681 1.387 . S
H680 C687 0.950 . S
C681 C679 1.387 . S
C681 C683 1.390 . S
C681 H685 0.950 . S
H682 C678 0.950 . S
C683 C681 1.390 . S
C683 C684 1.387 . S
C683 H686 0.950 . S
C684 C683 1.387 . S
C684 C687 1.387 . S
H685 C681 0.950 . S
H686 C683 0.950 . S
C687 C678 1.390 . S
C687 H680 0.950 . S
C687 C684 1.387 . S
C688 C689 1.387 . S
C688 H692 0.950 . S
C688 C697 1.390 . S
C689 C688 1.387 . S
C689 C691 1.387 . S
H690 C697 0.950 . S
C691 C689 1.387 . S
C691 C693 1.390 . S
C691 H695 0.950 . S
H692 C688 0.950 . S
C693 C691 1.390 . S
C693 C694 1.387 . S
C693 H696 0.950 . S
C694 C693 1.387 . S
C694 C697 1.387 . S
H695 C691 0.950 . S
H696 C693 0.950 . S
C697 C688 1.390 . S
C697 H690 0.950 . S
C697 C694 1.387 . S
C698 C699 1.387 . S
C698 H702 0.950 . S
C698 C707 1.390 . S
C699 C698 1.387 . S
C699 C701 1.387 . S
H700 C707 0.950 . S
C701 C699 1.387 . S
C701 C703 1.390 . S
C701 H705 0.950 1_556 S
H702 C698 0.950 . S
C703 C701 1.390 . S
C703 C704 1.387 . S
C703 H706 0.950 . S
C704 C703 1.387 . S
C704 C707 1.387 . S
H705 C701 0.950 1_554 S
H706 C703 0.950 . S
C707 C698 1.390 . S
C707 H700 0.950 . S
C707 C704 1.387 . S
C708 C709 1.387 . S
C708 H712 0.950 . S
C708 C717 1.390 . S
C709 C708 1.387 . S
C709 C711 1.387 . S
H710 C717 0.950 . S
C711 C709 1.387 . S
C711 C713 1.390 . S
C711 H715 0.950 . S
H712 C708 0.950 . S
C713 C711 1.390 . S
C713 C714 1.387 . S
C713 H716 0.950 . S
C714 C713 1.387 . S
C714 C717 1.387 . S
H715 C711 0.950 . S
H716 C713 0.950 . S
C717 C708 1.390 . S
C717 H710 0.950 . S
C717 C714 1.387 . S
C718 C719 1.387 . S
C718 H722 0.950 . S
C718 C727 1.390 . S
C719 C718 1.387 . S
C719 C721 1.387 . S
H720 C727 0.950 . S
C721 C719 1.387 . S
C721 C723 1.390 . S
C721 H725 0.950 . S
H722 C718 0.950 . S
C723 C721 1.390 . S
C723 C724 1.387 . S
C723 H726 0.950 . S
C724 C723 1.387 . S
C724 C727 1.387 . S
H725 C721 0.950 . S
H726 C723 0.950 . S
C727 C718 1.390 . S
C727 H720 0.950 . S
C727 C724 1.387 . S
C728 C729 1.387 . S
C728 H732 0.950 . S
C728 C737 1.390 . S
C729 C728 1.387 . S
C729 C731 1.387 . S
H730 C737 0.950 1_554 S
C731 C729 1.387 . S
C731 C733 1.390 . S
C731 H735 0.950 . S
H732 C728 0.950 . S
C733 C731 1.390 . S
C733 C734 1.387 1_556 S
C733 H736 0.950 1_556 S
C734 C733 1.387 1_554 S
C734 C737 1.387 1_554 S
H735 C731 0.950 . S
H736 C733 0.950 1_554 S
C737 C728 1.390 . S
C737 H730 0.950 1_556 S
C737 C734 1.387 1_556 S
C738 C739 1.387 . S
C738 H742 0.950 . S
C738 C747 1.390 . S
C739 C738 1.387 . S
C739 C741 1.387 . S
H740 C747 0.950 . S
C741 C739 1.387 . S
C741 C743 1.390 . S
C741 H745 0.950 . S
H742 C738 0.950 . S
C743 C741 1.390 . S
C743 C744 1.387 . S
C743 H746 0.950 . S
C744 C743 1.387 . S
C744 C747 1.387 . S
H745 C741 0.950 . S
H746 C743 0.950 . S
C747 C738 1.390 . S
C747 H740 0.950 . S
C747 C744 1.387 . S
C748 C749 1.387 . S
C748 H752 0.950 . S
C748 C757 1.390 . S
C749 C748 1.387 . S
C749 C751 1.387 . S
H750 C757 0.950 . S
C751 C749 1.387 . S
C751 C753 1.390 . S
C751 H755 0.950 . S
H752 C748 0.950 . S
C753 C751 1.390 . S
C753 C754 1.387 . S
C753 H756 0.950 . S
C754 C753 1.387 . S
C754 C757 1.387 . S
H755 C751 0.950 . S
H756 C753 0.950 . S
C757 C748 1.390 . S
C757 H750 0.950 . S
C757 C754 1.387 . S
C758 C759 1.387 . S
C758 H762 0.950 . S
C758 C767 1.390 . S
C759 C758 1.387 . S
C759 C761 1.387 . S
H760 C767 0.950 . S
C761 C759 1.387 . S
C761 C763 1.390 . S
C761 H765 0.950 . S
H762 C758 0.950 . S
C763 C761 1.390 . S
C763 C764 1.387 . S
C763 H766 0.950 . S
C764 C763 1.387 . S
C764 C767 1.387 . S
H765 C761 0.950 . S
H766 C763 0.950 . S
C767 C758 1.390 . S
C767 H760 0.950 . S
C767 C764 1.387 . S
C768 C769 1.387 . S
C768 H772 0.950 . S
C768 C777 1.390 . S
C769 C768 1.387 . S
C769 C771 1.387 . S
H770 C777 0.950 . S
C771 C769 1.387 . S
C771 C773 1.390 . S
C771 H775 0.950 . S
H772 C768 0.950 . S
C773 C771 1.390 . S
C773 C774 1.387 . S
C773 H776 0.950 . S
C774 C773 1.387 . S
C774 C777 1.387 . S
H775 C771 0.950 . S
H776 C773 0.950 . S
C777 C768 1.390 . S
C777 H770 0.950 . S
C777 C774 1.387 . S
C778 C779 1.387 . S
C778 H782 0.950 . S
C778 C787 1.365 1_565 S
C779 C778 1.387 . S
C779 C781 1.387 . S
H780 C787 0.978 . S
C781 C779 1.387 . S
C781 C783 1.390 . S
C781 H785 0.950 . S
H782 C778 0.950 . S
C783 C781 1.390 . S
C783 C784 1.387 1_565 S
C783 H786 0.950 . S
C784 C783 1.387 1_545 S
C784 C787 1.387 . S
H785 C781 0.950 . S
H786 C783 0.950 . S
C787 C778 1.365 1_545 S
C787 H780 0.978 . S
C787 C784 1.387 . S
C788 C789 1.387 . S
C788 H792 0.950 . S
C788 C797 1.390 . S
C789 C788 1.387 . S
C789 C791 1.387 . S
H790 C797 0.950 . S
C791 C789 1.387 . S
C791 C793 1.390 . S
C791 H795 0.950 . S
H792 C788 0.950 . S
C793 C791 1.390 . S
C793 C794 1.387 . S
C793 H796 0.950 . S
C794 C793 1.387 . S
C794 C797 1.387 . S
H795 C791 0.950 . S
H796 C793 0.950 . S
C797 C788 1.390 . S
C797 H790 0.950 . S
C797 C794 1.387 . S
C798 C799 1.387 . S
C798 H802 0.950 . S
C798 C807 1.390 . S
C799 C798 1.387 . S
C799 C801 1.387 . S
H800 C807 0.950 . S
C801 C799 1.387 . S
C801 C803 1.390 . S
C801 H805 0.950 . S
H802 C798 0.950 . S
C803 C801 1.390 . S
C803 C804 1.387 . S
C803 H806 0.950 . S
C804 C803 1.387 . S
C804 C807 1.387 . S
H805 C801 0.950 . S
H806 C803 0.950 . S
C807 C798 1.390 . S
C807 H800 0.950 . S
C807 C804 1.387 . S
C808 C809 1.387 . S
C808 H812 0.950 . S
C808 C817 1.390 . S
C809 C808 1.387 . S
C809 C811 1.387 . S
H810 C817 0.950 . S
C811 C809 1.387 . S
C811 C813 1.390 . S
C811 H815 0.950 . S
H812 C808 0.950 . S
C813 C811 1.390 . S
C813 C814 1.387 . S
C813 H816 0.950 . S
C814 C813 1.387 . S
C814 C817 1.387 . S
H815 C811 0.950 . S
H816 C813 0.950 . S
C817 C808 1.390 . S
C817 H810 0.950 . S
C817 C814 1.387 . S
C818 C819 1.387 . S
C818 H822 0.950 . S
C818 C827 1.390 . S
C819 C818 1.387 . S
C819 C821 1.387 . S
H820 C827 0.950 . S
C821 C819 1.387 . S
C821 C823 1.390 . S
C821 H825 0.950 . S
H822 C818 0.950 . S
C823 C821 1.390 . S
C823 C824 1.387 . S
C823 H826 0.950 . S
C824 C823 1.387 . S
C824 C827 1.387 . S
H825 C821 0.950 . S
H826 C823 0.950 . S
C827 C818 1.390 . S
C827 H820 0.950 . S
C827 C824 1.387 . S
C828 C829 1.387 . S
C828 H832 0.950 . S
C828 C837 1.390 . S
C829 C828 1.387 . S
C829 C831 1.387 . S
H830 C837 0.950 . S
C831 C829 1.387 . S
C831 C833 1.390 . S
C831 H835 0.950 . S
H832 C828 0.950 . S
C833 C831 1.390 . S
C833 C834 1.387 . S
C833 H836 0.950 . S
C834 C833 1.387 . S
C834 C837 1.387 . S
H835 C831 0.950 . S
H836 C833 0.950 . S
C837 C828 1.390 . S
C837 H830 0.950 . S
C837 C834 1.387 . S
C838 C839 1.387 . S
C838 H842 0.950 . S
C838 C847 1.390 . S
C839 C838 1.387 . S
C839 C841 1.387 . S
H840 C847 0.950 . S
C841 C839 1.387 . S
C841 C843 1.390 . S
C841 H845 0.950 . S
H842 C838 0.950 . S
C843 C841 1.390 . S
C843 C844 1.387 . S
C843 H846 0.950 . S
C844 C843 1.387 . S
C844 C847 1.387 . S
H845 C841 0.950 . S
H846 C843 0.950 . S
C847 C838 1.390 . S
C847 H840 0.950 . S
C847 C844 1.387 . S
C848 C849 1.387 . S
C848 H852 0.950 . S
C848 C857 1.390 . S
C849 C848 1.387 . S
C849 C851 1.387 . S
H850 C857 0.950 . S
C851 C849 1.387 . S
C851 C853 1.390 . S
C851 H855 0.950 . S
H852 C848 0.950 . S
C853 C851 1.390 . S
C853 C854 1.387 . S
C853 H856 0.950 . S
C854 C853 1.387 . S
C854 C857 1.387 . S
H855 C851 0.950 . S
H856 C853 0.950 . S
C857 C848 1.390 . S
C857 H850 0.950 . S
C857 C854 1.387 . S
C858 C859 1.387 . S
C858 H862 0.950 . S
C858 C867 1.390 . S
C859 C858 1.387 . S
C859 C861 1.387 . S
H860 C867 0.950 . S
C861 C859 1.387 . S
C861 C863 1.390 . S
C861 H865 0.950 . S
H862 C858 0.950 . S
C863 C861 1.390 . S
C863 C864 1.387 . S
C863 H866 0.950 . S
C864 C863 1.387 . S
C864 C867 1.387 . S
H865 C861 0.950 . S
H866 C863 0.950 . S
C867 C858 1.390 . S
C867 H860 0.950 . S
C867 C864 1.387 . S
C868 C869 1.387 . S
C868 H872 0.950 . S
C868 C877 1.390 . S
C869 C868 1.387 . S
C869 C871 1.387 . S
H870 C877 0.950 . S
C871 C869 1.387 . S
C871 C873 1.390 . S
C871 H875 0.950 . S
H872 C868 0.950 . S
C873 C871 1.390 . S
C873 C874 1.387 . S
C873 H876 0.950 . S
C874 C873 1.387 . S
C874 C877 1.387 . S
H875 C871 0.950 . S
H876 C873 0.950 . S
C877 C868 1.390 . S
C877 H870 0.950 . S
C877 C874 1.387 . S
C878 C879 1.387 . S
C878 H882 0.950 . S
C878 C887 1.390 . S
C879 C878 1.387 . S
C879 C881 1.387 . S
H880 C887 0.950 . S
C881 C879 1.387 . S
C881 C883 1.390 . S
C881 H885 0.950 . S
H882 C878 0.950 . S
C883 C881 1.390 . S
C883 C884 1.387 . S
C883 H886 0.950 . S
C884 C883 1.387 . S
C884 C887 1.387 . S
H885 C881 0.950 . S
H886 C883 0.950 . S
C887 C878 1.390 . S
C887 H880 0.950 . S
C887 C884 1.387 . S
C888 C889 1.387 . S
C888 H892 0.950 . S
C888 C897 1.390 . S
C889 C888 1.387 . S
C889 C891 1.387 . S
H890 C897 0.950 . S
C891 C889 1.387 . S
C891 C893 1.390 . S
C891 H895 0.950 . S
H892 C888 0.950 . S
C893 C891 1.390 . S
C893 C894 1.387 . S
C893 H896 0.950 . S
C894 C893 1.387 . S
C894 C897 1.387 . S
H895 C891 0.950 . S
H896 C893 0.950 . S
C897 C888 1.390 . S
C897 H890 0.950 . S
C897 C894 1.387 . S
C898 C899 1.387 1_655 S
C898 H902 0.955 . S
C898 C907 1.390 . S
C899 C898 1.387 1_455 S
C899 C901 1.387 . S
H900 C907 0.950 . S
C901 C899 1.387 . S
C901 C903 1.390 1_455 S
C901 H905 0.950 . S
H902 C898 0.955 . S
C903 C901 1.390 1_655 S
C903 C904 1.387 . S
C903 H906 0.950 . S
C904 C903 1.387 . S
C904 C907 1.387 . S
H905 C901 0.950 . S
H906 C903 0.950 . S
C907 C898 1.390 . S
C907 H900 0.950 . S
C907 C904 1.387 . S
C908 C909 1.387 . S
C908 H912 0.950 . S
C908 C917 1.390 1_565 S
C909 C908 1.387 . S
C909 C911 1.387 . S
H910 C917 0.950 . S
C911 C909 1.387 . S
C911 C913 1.390 1_565 S
C911 H915 0.950 . S
H912 C908 0.950 . S
C913 C911 1.390 1_545 S
C913 C914 1.387 . S
C913 H916 0.950 . S
C914 C913 1.387 . S
C914 C917 1.387 . S
H915 C911 0.950 . S
H916 C913 0.950 . S
C917 C908 1.390 1_545 S
C917 H910 0.950 . S
C917 C914 1.387 . S
C918 C919 1.387 . S
C918 H922 0.950 . S
C918 C927 1.390 . S
C919 C918 1.387 . S
C919 C921 1.387 . S
H920 C927 0.950 . S
C921 C919 1.387 . S
C921 C923 1.390 . S
C921 H925 0.950 . S
H922 C918 0.950 . S
C923 C921 1.390 . S
C923 C924 1.387 . S
C923 H926 0.950 . S
C924 C923 1.387 . S
C924 C927 1.387 . S
H925 C921 0.950 . S
H926 C923 0.950 . S
C927 C918 1.390 . S
C927 H920 0.950 . S
C927 C924 1.387 . S
C928 C929 1.405 . S
C928 H932 0.950 . S
C928 C937 1.390 . S
C929 C928 1.405 . S
C929 C931 1.406 . S
H930 C937 0.950 . S
C931 C929 1.406 . S
C931 C933 1.390 . S
C931 H935 0.950 . S
H932 C928 0.950 . S
C933 C931 1.390 . S
C933 C934 1.387 . S
C933 H936 0.950 . S
C934 C933 1.387 . S
C934 C937 1.387 . S
H935 C931 0.950 . S
H936 C933 0.950 . S
C937 C928 1.390 . S
C937 H930 0.950 . S
C937 C934 1.387 . S
C938 C939 1.387 . S
C938 H942 0.950 . S
C938 C947 1.390 . S
C939 C938 1.387 . S
C939 C941 1.387 . S
H940 C947 0.950 . S
C941 C939 1.387 . S
C941 C943 1.390 . S
C941 H945 0.950 . S
H942 C938 0.950 . S
C943 C941 1.390 . S
C943 C944 1.387 . S
C943 H946 0.950 . S
C944 C943 1.387 . S
C944 C947 1.387 . S
H945 C941 0.950 . S
H946 C943 0.950 . S
C947 C938 1.390 . S
C947 H940 0.950 . S
C947 C944 1.387 . S
C948 C949 1.387 . S
C948 H952 0.950 . S
C948 C957 1.390 . S
C949 C948 1.387 . S
C949 C951 1.387 . S
H950 C957 0.950 . S
C951 C949 1.387 . S
C951 C953 1.390 . S
C951 H955 0.950 . S
H952 C948 0.950 . S
C953 C951 1.390 . S
C953 C954 1.387 . S
C953 H956 0.950 . S
C954 C953 1.387 . S
C954 C957 1.387 . S
H955 C951 0.950 . S
H956 C953 0.950 . S
C957 C948 1.390 . S
C957 H950 0.950 . S
C957 C954 1.387 . S
C958 C959 1.387 . S
C958 H962 0.950 . S
C958 C967 1.390 . S
C959 C958 1.387 . S
C959 C961 1.387 . S
H960 C967 0.950 . S
C961 C959 1.387 . S
C961 C963 1.390 . S
C961 H965 0.950 . S
H962 C958 0.950 . S
C963 C961 1.390 . S
C963 C964 1.387 . S
C963 H966 0.950 . S
C964 C963 1.387 . S
C964 C967 1.387 . S
H965 C961 0.950 . S
H966 C963 0.950 . S
C967 C958 1.390 . S
C967 H960 0.950 . S
C967 C964 1.387 . S
C968 C969 1.387 . S
C968 H972 0.950 . S
C968 C977 1.390 . S
C969 C968 1.387 . S
C969 C971 1.387 . S
H970 C977 0.950 . S
C971 C969 1.387 . S
C971 C973 1.390 . S
C971 H975 0.950 . S
H972 C968 0.950 . S
C973 C971 1.390 . S
C973 C974 1.387 . S
C973 H976 0.950 . S
C974 C973 1.387 . S
C974 C977 1.387 . S
H975 C971 0.950 . S
H976 C973 0.950 . S
C977 C968 1.390 . S
C977 H970 0.950 . S
C977 C974 1.387 . S
C978 C979 1.387 . S
C978 H982 0.950 . S
C978 C987 1.390 . S
C979 C978 1.387 . S
C979 C981 1.387 . S
H980 C987 0.950 . S
C981 C979 1.387 . S
C981 C983 1.390 . S
C981 H985 0.950 1_556 S
H982 C978 0.950 . S
C983 C981 1.390 . S
C983 C984 1.387 . S
C983 H986 0.950 . S
C984 C983 1.387 . S
C984 C987 1.387 . S
H985 C981 0.950 1_554 S
H986 C983 0.950 . S
C987 C978 1.390 . S
C987 H980 0.950 . S
C987 C984 1.387 . S
C988 C989 1.387 . S
C988 H992 0.950 . S
C988 C997 1.390 . S
C989 C988 1.387 . S
C989 C991 1.387 . S
H990 C997 0.950 . S
C991 C989 1.387 . S
C991 C993 1.390 . S
C991 H995 0.950 . S
H992 C988 0.950 . S
C993 C991 1.390 . S
C993 C994 1.387 . S
C993 H996 0.950 . S
C994 C993 1.387 . S
C994 C997 1.387 . S
H995 C991 0.950 . S
H996 C993 0.950 . S
C997 C988 1.390 . S
C997 H990 0.950 . S
C997 C994 1.387 . S
C998 C999 1.387 . S
C998 H1002 0.950 . S
C998 C1007 1.390 . S
C999 C998 1.387 . S
C999 C1001 1.387 . S
H1000 C1007 0.950 . S
C1001 C999 1.387 . S
C1001 C1003 1.390 . S
C1001 H1005 0.950 . S
H1002 C998 0.950 . S
C1003 C1001 1.390 . S
C1003 C1004 1.387 . S
C1003 H1006 0.950 . S
C1004 C1003 1.387 . S
C1004 C1007 1.387 . S
H1005 C1001 0.950 . S
H1006 C1003 0.950 . S
C1007 C998 1.390 . S
C1007 H1000 0.950 . S
C1007 C1004 1.387 . S
C1008 C1009 1.387 . S
C1008 H1012 0.950 . S
C1008 C1017 1.390 . S
C1009 C1008 1.387 . S
C1009 C1011 1.387 . S
H1010 C1017 0.950 . S
C1011 C1009 1.387 . S
C1011 C1013 1.390 . S
C1011 H1015 0.950 . S
H1012 C1008 0.950 . S
C1013 C1011 1.390 . S
C1013 C1014 1.387 . S
C1013 H1016 0.950 . S
C1014 C1013 1.387 . S
C1014 C1017 1.387 . S
H1015 C1011 0.950 . S
H1016 C1013 0.950 . S
C1017 C1008 1.390 . S
C1017 H1010 0.950 . S
C1017 C1014 1.387 . S
C1018 C1019 1.387 . S
C1018 H1022 0.950 1_545 S
C1018 C1027 1.390 . S
C1019 C1018 1.387 . S
C1019 C1021 1.387 . S
H1020 C1027 0.950 . S
C1021 C1019 1.387 . S
C1021 C1023 1.390 . S
C1021 H1025 0.950 . S
H1022 C1018 0.950 1_565 S
C1023 C1021 1.390 . S
C1023 C1024 1.387 . S
C1023 H1026 0.950 . S
C1024 C1023 1.387 . S
C1024 C1027 1.387 . S
H1025 C1021 0.950 . S
H1026 C1023 0.950 . S
C1027 C1018 1.390 . S
C1027 H1020 0.950 . S
C1027 C1024 1.387 . S
C1028 C1029 1.387 . S
C1028 H1032 0.950 . S
C1028 C1037 1.390 . S
C1029 C1028 1.387 . S
C1029 C1031 1.387 . S
H1030 C1037 0.950 . S
C1031 C1029 1.387 . S
C1031 C1033 1.390 . S
C1031 H1035 0.950 . S
H1032 C1028 0.950 . S
C1033 C1031 1.390 . S
C1033 C1034 1.387 . S
C1033 H1036 0.950 . S
C1034 C1033 1.387 . S
C1034 C1037 1.387 . S
H1035 C1031 0.950 . S
H1036 C1033 0.950 . S
C1037 C1028 1.390 . S
C1037 H1030 0.950 . S
C1037 C1034 1.387 . S
C1038 C1039 1.387 . S
C1038 H1042 0.950 . S
C1038 C1047 1.390 . S
C1039 C1038 1.387 . S
C1039 C1041 1.387 . S
H1040 C1047 0.950 . S
C1041 C1039 1.387 . S
C1041 C1043 1.390 . S
C1041 H1045 0.950 . S
H1042 C1038 0.950 . S
C1043 C1041 1.390 . S
C1043 C1044 1.387 . S
C1043 H1046 0.950 . S
C1044 C1043 1.387 . S
C1044 C1047 1.387 . S
H1045 C1041 0.950 . S
H1046 C1043 0.950 . S
C1047 C1038 1.390 . S
C1047 H1040 0.950 . S
C1047 C1044 1.387 . S
C1048 C1049 1.387 . S
C1048 H1052 0.950 . S
C1048 C1057 1.390 . S
C1049 C1048 1.387 . S
C1049 C1051 1.387 . S
H1050 C1057 0.950 . S
C1051 C1049 1.387 . S
C1051 C1053 1.390 . S
C1051 H1055 0.950 . S
H1052 C1048 0.950 . S
C1053 C1051 1.390 . S
C1053 C1054 1.387 . S
C1053 H1056 0.950 . S
C1054 C1053 1.387 . S
C1054 C1057 1.387 . S
H1055 C1051 0.950 . S
H1056 C1053 0.950 . S
C1057 C1048 1.390 . S
C1057 H1050 0.950 . S
C1057 C1054 1.387 . S
C1058 C1059 1.387 . S
C1058 H1062 0.950 . S
C1058 C1067 1.390 . S
C1059 C1058 1.387 . S
C1059 C1061 1.387 . S
H1060 C1067 0.950 . S
C1061 C1059 1.387 . S
C1061 C1063 1.390 . S
C1061 H1065 0.950 . S
H1062 C1058 0.950 . S
C1063 C1061 1.390 . S
C1063 C1064 1.387 . S
C1063 H1066 0.950 . S
C1064 C1063 1.387 . S
C1064 C1067 1.387 . S
H1065 C1061 0.950 . S
H1066 C1063 0.950 . S
C1067 C1058 1.390 . S
C1067 H1060 0.950 . S
C1067 C1064 1.387 . S
C1068 C1069 1.387 . S
C1068 H1072 0.950 . S
C1068 C1077 1.390 . S
C1069 C1068 1.387 . S
C1069 C1071 1.387 . S
H1070 C1077 0.950 . S
C1071 C1069 1.387 . S
C1071 C1073 1.390 . S
C1071 H1075 0.950 1_455 S
H1072 C1068 0.950 . S
C1073 C1071 1.390 . S
C1073 C1074 1.387 . S
C1073 H1076 0.950 1_455 S
C1074 C1073 1.387 . S
C1074 C1077 1.387 . S
H1075 C1071 0.950 1_655 S
H1076 C1073 0.950 1_655 S
C1077 C1068 1.390 . S
C1077 H1070 0.950 . S
C1077 C1074 1.387 . S
C1078 C1079 1.387 . S
C1078 H1082 0.950 . S
C1078 C1087 1.390 . S
C1079 C1078 1.387 . S
C1079 C1081 1.387 . S
H1080 C1087 0.950 . S
C1081 C1079 1.387 . S
C1081 C1083 1.390 . S
C1081 H1085 0.950 . S
H1082 C1078 0.950 . S
C1083 C1081 1.390 . S
C1083 C1084 1.387 . S
C1083 H1086 0.950 . S
C1084 C1083 1.387 . S
C1084 C1087 1.387 . S
H1085 C1081 0.950 . S
H1086 C1083 0.950 . S
C1087 C1078 1.390 . S
C1087 H1080 0.950 . S
C1087 C1084 1.387 . S
C1088 C1089 1.387 . S
C1088 H1092 0.950 . S
C1088 C1097 1.390 . S
C1089 C1088 1.387 . S
C1089 C1091 1.387 1_554 S
H1090 C1097 0.950 . S
C1091 C1089 1.387 1_556 S
C1091 C1093 1.394 . S
C1091 H1095 0.950 . S
H1092 C1088 0.950 . S
C1093 C1091 1.394 . S
C1093 C1094 1.368 1_556 S
C1093 H1096 0.966 . S
C1094 C1093 1.368 1_554 S
C1094 C1097 1.387 . S
H1095 C1091 0.950 . S
H1096 C1093 0.966 . S
C1097 C1088 1.390 . S
C1097 H1090 0.950 . S
C1097 C1094 1.387 . S
C1098 C1099 1.387 . S
C1098 H1102 0.950 . S
C1098 C1107 1.390 . S
C1099 C1098 1.387 . S
C1099 C1101 1.387 . S
H1100 C1107 0.950 . S
C1101 C1099 1.387 . S
C1101 C1103 1.390 . S
C1101 H1105 0.950 . S
H1102 C1098 0.950 . S
C1103 C1101 1.390 . S
C1103 C1104 1.387 . S
C1103 H1106 0.950 . S
C1104 C1103 1.387 . S
C1104 C1107 1.387 . S
H1105 C1101 0.950 . S
H1106 C1103 0.950 . S
C1107 C1098 1.390 . S
C1107 H1100 0.950 . S
C1107 C1104 1.387 . S
C1108 C1109 1.387 . S
C1108 H1112 0.948 . S
C1108 C1117 1.390 . S
C1109 C1108 1.387 . S
C1109 C1111 1.387 . S
H1110 C1117 0.904 1_556 S
C1111 C1109 1.387 . S
C1111 C1113 1.390 . S
C1111 H1115 0.950 . S
H1112 C1108 0.948 . S
C1113 C1111 1.390 . S
C1113 C1114 1.387 . S
C1113 H1116 0.950 . S
C1114 C1113 1.387 . S
C1114 C1117 1.387 . S
H1115 C1111 0.950 . S
H1116 C1113 0.950 . S
C1117 C1108 1.390 . S
C1117 H1110 0.904 1_554 S
C1117 C1114 1.387 . S
C1118 C1119 1.387 . S
C1118 H1122 0.950 . S
C1118 C1127 1.390 . S
C1119 C1118 1.387 . S
C1119 C1121 1.387 . S
H1120 C1127 0.950 . S
C1121 C1119 1.387 . S
C1121 C1123 1.390 . S
C1121 H1125 0.950 . S
H1122 C1118 0.950 . S
C1123 C1121 1.390 . S
C1123 C1124 1.387 . S
C1123 H1126 0.950 . S
C1124 C1123 1.387 . S
C1124 C1127 1.387 . S
H1125 C1121 0.950 . S
H1126 C1123 0.950 . S
C1127 C1118 1.390 . S
C1127 H1120 0.950 . S
C1127 C1124 1.387 . S
C1128 C1129 1.387 . S
C1128 H1132 0.950 . S
C1128 C1137 1.390 . S
C1129 C1128 1.387 . S
C1129 C1131 1.387 . S
H1130 C1137 0.950 . S
C1131 C1129 1.387 . S
C1131 C1133 1.390 . S
C1131 H1135 0.950 . S
H1132 C1128 0.950 . S
C1133 C1131 1.390 . S
C1133 C1134 1.387 . S
C1133 H1136 0.950 . S
C1134 C1133 1.387 . S
C1134 C1137 1.387 . S
H1135 C1131 0.950 . S
H1136 C1133 0.950 . S
C1137 C1128 1.390 . S
C1137 H1130 0.950 . S
C1137 C1134 1.387 . S
C1138 C1139 1.387 . S
C1138 H1142 0.950 . S
C1138 C1147 1.390 . S
C1139 C1138 1.387 . S
C1139 C1141 1.387 . S
H1140 C1147 0.950 . S
C1141 C1139 1.387 . S
C1141 C1143 1.390 . S
C1141 H1145 0.950 . S
H1142 C1138 0.950 . S
C1143 C1141 1.390 . S
C1143 C1144 1.387 . S
C1143 H1146 0.950 . S
C1144 C1143 1.387 . S
C1144 C1147 1.387 . S
H1145 C1141 0.950 . S
H1146 C1143 0.950 . S
C1147 C1138 1.390 . S
C1147 H1140 0.950 . S
C1147 C1144 1.387 . S
C1148 C1149 1.387 . S
C1148 H1152 0.950 . S
C1148 C1157 1.390 . S
C1149 C1148 1.387 . S
C1149 C1151 1.387 . S
H1150 C1157 0.950 . S
C1151 C1149 1.387 . S
C1151 C1153 1.390 . S
C1151 H1155 0.950 . S
H1152 C1148 0.950 . S
C1153 C1151 1.390 . S
C1153 C1154 1.387 . S
C1153 H1156 0.950 . S
C1154 C1153 1.387 . S
C1154 C1157 1.387 . S
H1155 C1151 0.950 . S
H1156 C1153 0.950 . S
C1157 C1148 1.390 . S
C1157 H1150 0.950 . S
C1157 C1154 1.387 . S
C1158 C1159 1.387 . S
C1158 H1162 0.950 . S
C1158 C1167 1.390 . S
C1159 C1158 1.387 . S
C1159 C1161 1.387 . S
H1160 C1167 0.950 . S
C1161 C1159 1.387 . S
C1161 C1163 1.390 . S
C1161 H1165 0.950 . S
H1162 C1158 0.950 . S
C1163 C1161 1.390 . S
C1163 C1164 1.387 . S
C1163 H1166 0.950 . S
C1164 C1163 1.387 . S
C1164 C1167 1.387 . S
H1165 C1161 0.950 . S
H1166 C1163 0.950 . S
C1167 C1158 1.390 . S
C1167 H1160 0.950 . S
C1167 C1164 1.387 . S
C1168 C1169 1.387 . S
C1168 H1172 0.950 . S
C1168 C1177 1.390 . S
C1169 C1168 1.387 . S
C1169 C1171 1.387 . S
H1170 C1177 0.950 . S
C1171 C1169 1.387 . S
C1171 C1173 1.390 . S
C1171 H1175 0.950 . S
H1172 C1168 0.950 . S
C1173 C1171 1.390 . S
C1173 C1174 1.387 . S
C1173 H1176 0.950 . S
C1174 C1173 1.387 . S
C1174 C1177 1.387 . S
H1175 C1171 0.950 . S
H1176 C1173 0.950 . S
C1177 C1168 1.390 . S
C1177 H1170 0.950 . S
C1177 C1174 1.387 . S
C1178 C1179 1.387 . S
C1178 H1182 0.950 . S
C1178 C1187 1.390 . S
C1179 C1178 1.387 . S
C1179 C1181 1.387 . S
H1180 C1187 0.950 . S
C1181 C1179 1.387 . S
C1181 C1183 1.390 . S
C1181 H1185 0.950 . S
H1182 C1178 0.950 . S
C1183 C1181 1.390 . S
C1183 C1184 1.387 . S
C1183 H1186 0.950 . S
C1184 C1183 1.387 . S
C1184 C1187 1.387 . S
H1185 C1181 0.950 . S
H1186 C1183 0.950 . S
C1187 C1178 1.390 . S
C1187 H1180 0.950 . S
C1187 C1184 1.387 . S
C1188 C1189 1.387 . S
C1188 H1192 0.950 . S
C1188 C1197 1.390 . S
C1189 C1188 1.387 . S
C1189 C1191 1.387 . S
H1190 C1197 0.950 . S
C1191 C1189 1.387 . S
C1191 C1193 1.390 . S
C1191 H1195 0.950 . S
H1192 C1188 0.950 . S
C1193 C1191 1.390 . S
C1193 C1194 1.387 . S
C1193 H1196 0.950 . S
C1194 C1193 1.387 . S
C1194 C1197 1.387 . S
H1195 C1191 0.950 . S
H1196 C1193 0.950 . S
C1197 C1188 1.390 . S
C1197 H1190 0.950 . S
C1197 C1194 1.387 . S
C1198 C1199 1.387 . S
C1198 H1202 0.950 . S
C1198 C1207 1.390 . S
C1199 C1198 1.387 . S
C1199 C1201 1.387 . S
H1200 C1207 0.950 . S
C1201 C1199 1.387 . S
C1201 C1203 1.390 . S
C1201 H1205 0.950 . S
H1202 C1198 0.950 . S
C1203 C1201 1.390 . S
C1203 C1204 1.387 . S
C1203 H1206 0.950 . S
C1204 C1203 1.387 . S
C1204 C1207 1.387 . S
H1205 C1201 0.950 . S
H1206 C1203 0.950 . S
C1207 C1198 1.390 . S
C1207 H1200 0.950 . S
C1207 C1204 1.387 . S
C1208 C1209 1.387 . S
C1208 H1212 0.950 . S
C1208 C1217 1.390 . S
C1209 C1208 1.387 . S
C1209 C1211 1.387 . S
H1210 C1217 0.950 . S
C1211 C1209 1.387 . S
C1211 C1213 1.390 . S
C1211 H1215 0.950 . S
H1212 C1208 0.950 . S
C1213 C1211 1.390 . S
C1213 C1214 1.387 . S
C1213 H1216 0.950 . S
C1214 C1213 1.387 . S
C1214 C1217 1.387 . S
H1215 C1211 0.950 . S
H1216 C1213 0.950 . S
C1217 C1208 1.390 . S
C1217 H1210 0.950 . S
C1217 C1214 1.387 . S
C1218 C1219 1.387 . S
C1218 H1222 0.950 . S
C1218 C1227 1.390 . S
C1219 C1218 1.387 . S
C1219 C1221 1.387 . S
H1220 C1227 0.950 . S
C1221 C1219 1.387 . S
C1221 C1223 1.390 . S
C1221 H1225 0.950 . S
H1222 C1218 0.950 . S
C1223 C1221 1.390 . S
C1223 C1224 1.387 . S
C1223 H1226 0.950 . S
C1224 C1223 1.387 . S
C1224 C1227 1.387 . S
H1225 C1221 0.950 . S
H1226 C1223 0.950 . S
C1227 C1218 1.390 . S
C1227 H1220 0.950 . S
C1227 C1224 1.387 . S
C1228 C1229 1.387 . S
C1228 H1232 0.950 . S
C1228 C1237 1.390 . S
C1229 C1228 1.387 . S
C1229 C1231 1.387 . S
H1230 C1237 0.950 . S
C1231 C1229 1.387 . S
C1231 C1233 1.390 . S
C1231 H1235 0.950 . S
H1232 C1228 0.950 . S
C1233 C1231 1.390 . S
C1233 C1234 1.387 . S
C1233 H1236 0.950 . S
C1234 C1233 1.387 . S
C1234 C1237 1.387 . S
H1235 C1231 0.950 . S
H1236 C1233 0.950 . S
C1237 C1228 1.390 . S
C1237 H1230 0.950 . S
C1237 C1234 1.387 . S
C1238 C1239 1.387 . S
C1238 H1242 0.950 . S
C1238 C1247 1.390 . S
C1239 C1238 1.387 . S
C1239 C1241 1.387 . S
H1240 C1247 0.950 . S
C1241 C1239 1.387 . S
C1241 C1243 1.390 . S
C1241 H1245 0.950 . S
H1242 C1238 0.950 . S
C1243 C1241 1.390 . S
C1243 C1244 1.387 . S
C1243 H1246 0.950 . S
C1244 C1243 1.387 . S
C1244 C1247 1.387 . S
H1245 C1241 0.950 . S
H1246 C1243 0.950 . S
C1247 C1238 1.390 . S
C1247 H1240 0.950 . S
C1247 C1244 1.387 . S
C529 C491 1.697 . S
C534 C7 1.725 . S
C539 C456 1.352 . S
C544 C18 1.786 . S
C549 C27 1.062 . S
C554 C467 1.049 . S
C559 C40 1.733 . S
C564 C478 1.391 . S
C569 C524 1.886 . S
C574 C51 1.895 . S
C579 C500 1.296 . S
C584 C60 1.267 . S
C589 C71 1.139 . S
C594 C513 1.548 . S
C599 C445 1.268 . S
C604 C82 1.254 . S
C609 C434 1.191 . S
C614 C95 1.634 . S
C619 C104 1.133 . S
C624 C401 1.227 . S
C629 C414 1.780 . S
C634 C117 1.757 . S
C639 C128 1.788 . S
C644 C423 1.306 . S
C649 C368 1.131 . S
C654 C137 1.233 . S
C659 C150 1.779 . S
C664 C381 1.758 . S
C669 C159 1.304 . S
C674 C392 1.787 . S
C679 C170 1.192 . S
C684 C359 1.634 . S
C689 C181 1.266 . S
C694 C346 1.248 . S
C699 C192 1.349 1_556 S
C704 C282 1.784 . S
C709 C203 1.051 . S
C714 C291 1.064 . S
C719 C304 1.732 . S
C724 C214 1.390 . S
C729 C271 1.724 . S
C734 C227 1.697 . S
C739 C324 1.267 . S
C744 C236 1.296 . S
C749 C249 1.548 . S
C754 C335 1.139 . S
C759 C260 1.886 . S
C764 C315 1.895 . S
C769 C49 1.673 . S
C774 C469 1.607 . S
C779 C480 1.603 . S
C784 C62 1.534 . S
C789 C73 1.751 . S
C794 C489 1.873 . S
C799 C84 1.625 . S
C804 C458 1.618 . S
C809 C511 1.514 . S
C814 C5 1.530 1_655 S
C819 C16 1.494 . S
C824 C447 1.451 . S
C829 C29 1.653 . S
C834 C522 1.763 . S
C839 C38 1.606 . S
C844 C502 1.547 . S
C849 C161 1.648 1_565 S
C854 C370 1.695 . S
C859 C172 1.733 . S
C864 C379 1.860 . S
C869 C390 1.363 . S
C874 C139 1.439 . S
C879 C148 1.517 . S
C884 C357 1.494 . S
C889 C115 1.859 . S
C894 C436 1.734 . S
C899 C126 1.362 . S
C904 C403 1.440 . S
C909 C412 1.517 . S
C914 C93 1.494 . S
C919 C425 1.649 . S
C924 C106 1.696 . S
C929 C238 1.514 1_556 S
C934 C302 1.606 . S
C939 C326 1.533 . S
C944 C216 1.602 . S
C949 C225 1.874 . S
C954 C337 1.749 . S
C959 C348 1.627 . S
C964 C194 1.620 . S
C969 C205 1.606 . S
C974 C313 1.675 . S
C979 C183 1.449 1_556 S
C984 C280 1.496 . S
C989 C258 1.762 . S
C994 C293 1.654 . S
C999 C269 1.530 . S
C1004 C247 1.514 1_556 S
C1009 C8 1.620 . S
C1014 C107 1.580 . S
C1019 C19 1.667 . S
C1024 C118 1.673 . S
C1029 C129 1.537 . S
C1034 C30 1.514 . S
C1039 C96 1.641 . S
C1044 C41 1.640 . S
C1049 C173 1.696 . S
C1054 C52 1.739 . S
C1059 C140 1.710 . S
C1064 C63 1.578 . S
C1069 C74 1.635 . S
C1074 C151 1.670 . S
C1079 C85 1.679 . S
C1084 C162 1.657 . S
C1089 C206 1.562 . S
C1094 C184 1.512 . S
C1099 C195 1.543 . S
C1104 C250 1.590 . S
C1109 C261 1.709 . S
C1114 C217 1.695 . S
C1119 C228 1.682 . S
C1124 C239 1.657 . S
C1129 C371 1.578 . S
C1134 C272 1.620 . S
C1139 C283 1.668 . S
C1144 C382 1.673 . S
C1149 C294 1.512 . S
C1154 C393 1.537 . S
C1159 C305 1.640 . S
C1164 C360 1.641 . S
C1169 C437 1.696 . S
C1174 C316 1.740 . S
C1179 C404 1.709 . S
C1184 C327 1.578 . S
C1189 C415 1.669 . S
C1194 C338 1.635 . S
C1199 C349 1.681 . S
C1204 C426 1.654 . S
C1209 C470 1.561 . S
C1214 C448 1.512 . S
C1219 C514 1.590 . S
C1224 C459 1.543 . S
C1229 C481 1.696 . S
C1234 C525 1.708 . S
C1239 C503 1.659 . S
C1244 C492 1.682 . S
