# Generated by pormake.
# Topology ukf, (4)-cn, num edge types: 1
# Building blocks:
#     Node 0, Type 0, BuildingBlock: TATPOV_clean_sbu_0, # of connection points: 4
#     Node 1, Type 0, BuildingBlock: TATPOV_clean_sbu_0, # of connection points: 4
#     Node 2, Type 0, BuildingBlock: TATPOV_clean_sbu_0, # of connection points: 4
#     Node 3, Type 0, BuildingBlock: TATPOV_clean_sbu_0, # of connection points: 4
#     Node 4, Type 0, BuildingBlock: TATPOV_clean_sbu_0, # of connection points: 4
#     Node 5, Type 0, BuildingBlock: TATPOV_clean_sbu_0, # of connection points: 4
#     Node 6, Type 0, BuildingBlock: TATPOV_clean_sbu_0, # of connection points: 4
#     Node 7, Type 0, BuildingBlock: TATPOV_clean_sbu_0, # of connection points: 4
#     Node 8, Type 0, BuildingBlock: TATPOV_clean_sbu_0, # of connection points: 4
#     Node 9, Type 0, BuildingBlock: TATPOV_clean_sbu_0, # of connection points: 4
#     Node 10, Type 0, BuildingBlock: TATPOV_clean_sbu_0, # of connection points: 4
#     Node 11, Type 0, BuildingBlock: TATPOV_clean_sbu_0, # of connection points: 4
#     Edge 12, Type (0, 0), BuildingBlock: AJUNOK_clean_linker_0, # of connection points: 2
#     Edge 13, Type (0, 0), BuildingBlock: AJUNOK_clean_linker_0, # of connection points: 2
#     Edge 14, Type (0, 0), BuildingBlock: AJUNOK_clean_linker_0, # of connection points: 2
#     Edge 15, Type (0, 0), BuildingBlock: AJUNOK_clean_linker_0, # of connection points: 2
#     Edge 16, Type (0, 0), BuildingBlock: AJUNOK_clean_linker_0, # of connection points: 2
#     Edge 17, Type (0, 0), BuildingBlock: AJUNOK_clean_linker_0, # of connection points: 2
#     Edge 18, Type (0, 0), BuildingBlock: AJUNOK_clean_linker_0, # of connection points: 2
#     Edge 19, Type (0, 0), BuildingBlock: AJUNOK_clean_linker_0, # of connection points: 2
#     Edge 20, Type (0, 0), BuildingBlock: AJUNOK_clean_linker_0, # of connection points: 2
#     Edge 21, Type (0, 0), BuildingBlock: AJUNOK_clean_linker_0, # of connection points: 2
#     Edge 22, Type (0, 0), BuildingBlock: AJUNOK_clean_linker_0, # of connection points: 2
#     Edge 23, Type (0, 0), BuildingBlock: AJUNOK_clean_linker_0, # of connection points: 2
#     Edge 24, Type (0, 0), BuildingBlock: AJUNOK_clean_linker_0, # of connection points: 2
#     Edge 25, Type (0, 0), BuildingBlock: AJUNOK_clean_linker_0, # of connection points: 2
#     Edge 26, Type (0, 0), BuildingBlock: AJUNOK_clean_linker_0, # of connection points: 2
#     Edge 27, Type (0, 0), BuildingBlock: AJUNOK_clean_linker_0, # of connection points: 2
#     Edge 28, Type (0, 0), BuildingBlock: AJUNOK_clean_linker_0, # of connection points: 2
#     Edge 29, Type (0, 0), BuildingBlock: AJUNOK_clean_linker_0, # of connection points: 2
#     Edge 30, Type (0, 0), BuildingBlock: AJUNOK_clean_linker_0, # of connection points: 2
#     Edge 31, Type (0, 0), BuildingBlock: AJUNOK_clean_linker_0, # of connection points: 2
#     Edge 32, Type (0, 0), BuildingBlock: AJUNOK_clean_linker_0, # of connection points: 2
#     Edge 33, Type (0, 0), BuildingBlock: AJUNOK_clean_linker_0, # of connection points: 2
#     Edge 34, Type (0, 0), BuildingBlock: AJUNOK_clean_linker_0, # of connection points: 2
#     Edge 35, Type (0, 0), BuildingBlock: AJUNOK_clean_linker_0, # of connection points: 2
# Relax obj value: 0.149
# Max RMSD: 0.164
# Mean RMSD: 0.164
data_MOF--net-ukf--node1-TATPOV_clean_sbu_0--edge1-AJUNOK_clean_linker_0
_symmetry_space_group_name_H-M    P1
_symmetry_Int_Tables_number       1
_symmetry_cell_setting            triclinic
loop_
_symmetry_equiv_pos_as_xyz
'x, y, z'
_cell_length_a     23.352519
_cell_length_b     23.283949
_cell_length_c     47.38941
_cell_angle_alpha  90.065252
_cell_angle_beta   90.402675
_cell_angle_gamma 120.09211
loop_
_atom_site_label
_atom_site_type_symbol
_atom_site_fract_x
_atom_site_fract_y
_atom_site_fract_z
_atom_type_partial_charge
Zn0 Zn 0.38208 0.2457 1.0188 0.0
Zn1 Zn 0.38888 0.23204 0.07307 0.0
O2 O 0.29379 0.16199 0.05973 0.0
O3 O 0.28442 0.18676 1.01587 0.0
O4 O 0.39283 0.21969 0.11534 0.0
O5 O 0.42574 0.34357 0.02273 0.0
O6 O 0.42586 0.33331 0.06892 0.0
C7 C 0.25924 0.15013 0.03715 0.0
C8 C 0.47005 0.19867 0.03314 0.0
O9 O 0.45625 0.20823 0.05804 0.0
O10 O 0.4416 0.20763 1.01216 0.0
C11 C 0.34716 0.20613 0.13307 0.0
O12 O 0.29017 0.19781 0.12402 0.0
C13 C 0.44088 0.36965 0.04703 0.0
Zn14 Zn 0.11147 0.37559 0.34886 0.0
Zn15 Zn 0.13536 0.38642 0.40416 0.0
O16 O 0.11299 0.2912 0.39239 0.0
O17 O 0.08595 0.28025 0.34743 0.0
O18 O 0.14965 0.39153 0.44675 0.0
O19 O 0.04405 0.40314 0.35356 0.0
O20 O 0.06508 0.41507 0.39919 0.0
C21 C 0.09475 0.25616 0.36982 0.0
C22 C 0.24592 0.47321 0.36349 0.0
O23 O 0.22518 0.4565 0.38863 0.0
O24 O 0.20698 0.44545 0.34279 0.0
C25 C 0.16522 0.35441 0.46055 0.0
O26 O 0.17356 0.31015 0.44685 0.0
C27 C 0.03399 0.41907 0.37777 0.0
Zn28 Zn 0.75775 0.12078 0.67696 0.0
Zn29 Zn 0.77685 0.13969 0.73185 0.0
O30 O 0.84298 0.11316 0.71622 0.0
O31 O 0.81917 0.08537 0.67165 0.0
O32 O 0.79945 0.15225 0.7736 0.0
O33 O 0.66109 0.0629 0.68361 0.0
O34 O 0.67582 0.07479 0.72964 0.0
C35 C 0.85481 0.093 0.69309 0.0
C36 C 0.804 0.25573 0.69364 0.0
O37 O 0.79854 0.2319 0.71833 0.0
O38 O 0.79209 0.21876 0.67222 0.0
C39 C 0.76687 0.16414 0.79177 0.0
O40 O 0.71484 0.16742 0.78338 0.0
C41 C 0.63741 0.05151 0.70824 0.0
Zn42 Zn 0.6139 0.76643 1.00835 0.0
Zn43 Zn 0.61968 0.79326 0.06375 0.0
O44 O 0.70929 0.86379 0.0467 0.0
O45 O 0.70659 0.83905 1.00173 0.0
O46 O 0.62962 0.81577 0.10566 0.0
O47 O 0.59361 0.67449 1.01742 0.0
O48 O 0.59341 0.69438 0.06285 0.0
C49 C 0.73691 0.87628 0.02255 0.0
C50 C 0.51688 0.80112 0.02614 0.0
O51 O 0.54299 0.8057 0.05036 0.0
O52 O 0.5387 0.7856 1.00478 0.0
C53 C 0.58301 0.78058 0.12261 0.0
O54 O 0.52844 0.73028 0.11235 0.0
C55 C 0.58542 0.65471 0.0427 0.0
Zn56 Zn 0.82224 0.61364 0.34417 0.0
Zn57 Zn 0.80884 0.61846 0.39858 0.0
O58 O 0.8298 0.70935 0.38125 0.0
O59 O 0.85501 0.70919 0.33674 0.0
O60 O 0.80327 0.63045 0.44099 0.0
O61 O 0.88166 0.57636 0.34913 0.0
O62 O 0.87418 0.58287 0.39519 0.0
C63 C 0.84722 0.73876 0.35742 0.0
C64 C 0.69015 0.52342 0.3626 0.0
O65 O 0.71587 0.54435 0.38698 0.0
O66 O 0.72475 0.54783 0.34073 0.0
C67 C 0.79724 0.58586 0.45823 0.0
O68 O 0.79401 0.53176 0.4481 0.0
C69 C 0.89505 0.56575 0.37379 0.0
Zn70 Zn 0.2321 0.82793 0.67858 0.0
Zn71 Zn 0.21437 0.80923 0.73362 0.0
O72 O 0.1426 0.83046 0.71888 0.0
O73 O 0.16341 0.85368 0.67385 0.0
O74 O 0.19864 0.79405 0.77594 0.0
O75 O 0.32633 0.89562 0.68494 0.0
O76 O 0.31394 0.88042 0.73078 0.0
C77 C 0.12854 0.84701 0.6952 0.0
C78 C 0.19566 0.69564 0.69451 0.0
O79 O 0.19729 0.71875 0.7191 0.0
O80 O 0.20766 0.73244 0.67314 0.0
C81 C 0.20352 0.83813 0.79329 0.0
O82 O 0.21847 0.89679 0.78357 0.0
C83 C 0.35078 0.90866 0.7096 0.0
Zn84 Zn 0.75963 0.59151 0.69535 0.0
Zn85 Zn 0.77174 0.58815 0.64036 0.0
O86 O 0.84279 0.68295 0.65383 0.0
O87 O 0.82337 0.68824 0.69876 0.0
O88 O 0.78312 0.58542 0.59788 0.0
O89 O 0.66288 0.55502 0.69132 0.0
O90 O 0.67157 0.55409 0.64517 0.0
C91 C 0.85738 0.71546 0.67709 0.0
C92 C 0.80159 0.50074 0.67902 0.0
O93 O 0.79417 0.51858 0.6545 0.0
O94 O 0.79204 0.52672 0.70065 0.0
C95 C 0.77818 0.62267 0.57955 0.0
O96 O 0.76617 0.66931 0.58804 0.0
C97 C 0.636 0.54144 0.66713 0.0
Zn98 Zn 0.14048 0.77096 0.02912 0.0
Zn99 Zn 0.159 0.79309 0.9747 0.0
O100 O 0.14134 0.86526 0.99222 0.0
O101 O 0.11734 0.84056 0.03689 0.0
O102 O 0.16941 0.81478 0.93263 0.0
O103 O 0.07113 0.67747 0.02208 0.0
O104 O 0.08662 0.6934 0.9764 0.0
C105 C 0.12564 0.87817 1.01627 0.0
C106 C 0.2716 0.80498 1.01199 0.0
O107 O 0.24914 0.80578 0.98745 0.0
O108 O 0.23511 0.79275 0.03337 0.0
C109 C 0.1718 0.77636 0.91411 0.0
O110 O 0.16764 0.72057 0.9224 0.0
C111 C 0.05787 0.65494 0.99713 0.0
Zn112 Zn 0.35478 0.13759 0.36818 0.0
Zn113 Zn 0.34824 0.15652 0.31273 0.0
O114 O 0.25838 0.13554 0.32985 0.0
O115 O 0.26127 0.11422 0.37487 0.0
O116 O 0.33701 0.1668 0.27078 0.0
O117 O 0.3785 0.06819 0.35965 0.0
O118 O 0.3777 0.08639 0.3141 0.0
C119 C 0.23072 0.12026 0.35399 0.0
C120 C 0.44802 0.27074 0.34983 0.0
O121 O 0.42274 0.24776 0.3256 0.0
O122 O 0.42728 0.23365 0.37131 0.0
C123 C 0.38529 0.18378 0.25407 0.0
O124 O 0.44216 0.19497 0.26463 0.0
C125 C 0.38719 0.05636 0.33446 0.0
Zn126 Zn 0.22771 0.35018 0.69672 0.0
Zn127 Zn 0.21223 0.3529 0.64146 0.0
O128 O 0.14082 0.26042 0.65588 0.0
O129 O 0.15994 0.25444 0.70089 0.0
O130 O 0.19765 0.34409 0.599 0.0
O131 O 0.32326 0.38027 0.69185 0.0
O132 O 0.31164 0.38409 0.64596 0.0
C133 C 0.12576 0.22779 0.67891 0.0
C134 C 0.19048 0.44605 0.67906 0.0
O135 O 0.19391 0.42624 0.65435 0.0
O136 O 0.20097 0.42004 0.70049 0.0
C137 C 0.20471 0.39061 0.58274 0.0
O138 O 0.22189 0.44898 0.59369 0.0
C139 C 0.34838 0.39356 0.6675 0.0
Zn140 Zn 0.84939 0.24508 0.02503 0.0
Zn141 Zn 0.82381 0.22943 0.97051 0.0
O142 O 0.85073 0.16058 0.9826 0.0
O143 O 0.88508 0.18321 0.02658 0.0
O144 O 0.80363 0.21314 0.92863 0.0
O145 O 0.90615 0.34251 1.01953 0.0
O146 O 0.88966 0.33044 0.97359 0.0
C147 C 0.87376 0.14777 1.00475 0.0
C148 C 0.71337 0.19918 1.0124 0.0
O149 O 0.73432 0.20662 0.98715 0.0
O150 O 0.75269 0.20985 0.03284 0.0
C151 C 0.84272 0.20918 0.91122 0.0
O152 O 0.89882 0.21602 0.92069 0.0
C153 C 0.91513 0.36768 0.99518 0.0
Zn154 Zn 0.588 0.84874 0.35824 0.0
Zn155 Zn 0.5796 0.82765 0.30359 0.0
O156 O 0.67472 0.85161 0.31623 0.0
O157 O 0.68505 0.88295 0.3606 0.0
O158 O 0.57466 0.80982 0.26138 0.0
O159 O 0.54928 0.90717 0.35393 0.0
O160 O 0.54538 0.894 0.30778 0.0
C161 C 0.70964 0.87272 0.33881 0.0
C162 C 0.49449 0.7145 0.34398 0.0
O163 O 0.51011 0.7374 0.31907 0.0
O164 O 0.52363 0.75173 0.365 0.0
C165 C 0.61838 0.84514 0.24337 0.0
O166 O 0.67273 0.89817 0.25209 0.0
C167 C 0.53319 0.91755 0.32975 0.0
C168 C 0.151 0.99005 0.99952 0.0
C169 C 0.13311 0.94448 0.02175 0.0
C170 C 0.1834 0.05843 1.00488 0.0
C171 C 0.20017 0.08355 0.03268 0.0
H172 H 0.14607 0.97347 0.9778 0.0
H173 H 0.2022 0.09142 0.98695 0.0
S174 S 0.14231 0.98472 0.09821 0.0
N175 N 0.11703 0.9289 0.07261 0.0
N176 N 0.18008 0.05765 0.08251 0.0
C177 C 0.17241 0.03848 0.05499 0.0
C178 C 0.13834 0.96872 0.04956 0.0
C179 C 0.12827 0.17912 0.39076 0.0
C180 C 0.10177 0.19632 0.3677 0.0
C181 C 0.16272 0.14498 0.38665 0.0
C182 C 0.17215 0.12744 0.35931 0.0
H183 H 0.12891 0.19826 0.41167 0.0
H184 H 0.1884 0.13946 0.40464 0.0
S185 S 0.08977 0.13712 0.29386 0.0
N186 N 0.06953 0.17479 0.31804 0.0
N187 N 0.13594 0.11217 0.31032 0.0
C188 C 0.13574 0.13354 0.337 0.0
C189 C 0.09988 0.16754 0.34123 0.0
C190 C 0.96331 0.11546 0.71273 0.0
C191 C 0.92009 0.09762 0.68938 0.0
C192 C 0.03196 0.14975 0.70907 0.0
C193 C 0.05952 0.16782 0.68192 0.0
H194 H 0.94454 0.10981 0.734 0.0
H195 H 0.06298 0.16888 0.72775 0.0
S196 S 0.96789 0.10872 0.61411 0.0
N197 N 0.90967 0.08191 0.63832 0.0
N198 N 0.03891 0.1477 0.63154 0.0
C199 C 0.01706 0.13922 0.65855 0.0
C200 C 0.94705 0.10357 0.66228 0.0
C201 C 0.80639 0.96792 0.98954 0.0
C202 C 0.79568 0.94219 1.01713 0.0
C203 C 0.84164 0.03647 0.98488 0.0
C204 C 0.86767 0.0814 1.00765 0.0
H205 H 0.78118 0.93582 0.97166 0.0
H206 H 0.84175 0.05407 0.96372 0.0
S207 S 0.87644 0.03752 0.08231 0.0
N208 N 0.83027 0.96547 0.06627 0.0
N209 N 0.89814 0.09444 0.05756 0.0
C210 C 0.8684 0.05567 0.03452 0.0
C211 C 0.83167 0.98582 0.03929 0.0
C212 C 0.78934 0.86019 0.36977 0.0
C213 C 0.76947 0.86635 0.34228 0.0
C214 C 0.82355 0.82598 0.37458 0.0
C215 C 0.84001 0.79775 0.35207 0.0
H216 H 0.77182 0.87478 0.388 0.0
H217 H 0.83078 0.81573 0.3962 0.0
S218 S 0.82284 0.82398 0.2758 0.0
N219 N 0.78533 0.85851 0.29212 0.0
N220 N 0.8515 0.79593 0.30098 0.0
C221 C 0.83177 0.81496 0.32437 0.0
C222 C 0.79593 0.84891 0.31951 0.0
C223 C 0.96807 0.79709 0.6582 0.0
C224 C 0.92386 0.77523 0.68092 0.0
C225 C 0.03652 0.82989 0.66295 0.0
C226 C 0.06291 0.84117 0.6906 0.0
H227 H 0.94999 0.78235 0.63678 0.0
H228 H 0.06804 0.83923 0.64485 0.0
S229 S 0.9695 0.81824 0.75647 0.0
N230 N 0.91216 0.78637 0.73146 0.0
N231 N 0.04093 0.84604 0.7403 0.0
C232 C 0.01999 0.83067 0.71306 0.0
C233 C 0.95023 0.79827 0.70822 0.0
C234 C 0.60709 0.18876 0.99556 0.0
C235 C 0.64536 0.18573 1.01792 0.0
C236 C 0.5481 0.18855 1.00062 0.0
C237 C 0.52495 0.18538 0.02825 0.0
H238 H 0.62434 0.1948 0.97401 0.0
H239 H 0.52241 0.19441 0.98271 0.0
S240 S 0.59982 0.16323 0.09374 0.0
N241 N 0.65084 0.16945 0.06845 0.0
N242 N 0.5399 0.16932 0.07793 0.0
C243 C 0.55968 0.17653 0.05062 0.0
C244 C 0.61989 0.17666 0.04546 0.0
C245 C 0.35135 0.5704 0.38088 0.0
C246 C 0.31391 0.52871 0.35838 0.0
C247 C 0.41164 0.62847 0.37615 0.0
C248 C 0.43702 0.6473 0.34872 0.0
H249 H 0.33273 0.55982 0.40224 0.0
H250 H 0.43691 0.66026 0.3941 0.0
S251 S 0.36383 0.54943 0.2831 0.0
N252 N 0.3107 0.50588 0.30802 0.0
N253 N 0.42399 0.6152 0.29916 0.0
C254 C 0.40249 0.60363 0.32626 0.0
C255 C 0.34098 0.54437 0.33108 0.0
C256 C 0.81058 0.35852 0.71315 0.0
C257 C 0.81624 0.32416 0.68991 0.0
C258 C 0.80969 0.41767 0.70954 0.0
C259 C 0.81442 0.44491 0.68255 0.0
H260 H 0.80333 0.33799 0.73419 0.0
H261 H 0.80203 0.44036 0.72802 0.0
S262 S 0.84278 0.38095 0.61541 0.0
N263 N 0.83604 0.32658 0.63939 0.0
N264 N 0.83416 0.43775 0.63264 0.0
C265 C 0.82549 0.41395 0.6594 0.0
C266 C 0.82645 0.35361 0.66307 0.0
C267 C 0.3698 0.80307 0.99247 0.0
C268 C 0.33826 0.81282 1.0156 0.0
C269 C 0.42862 0.80157 0.99601 0.0
C270 C 0.45852 0.81003 0.02281 0.0
H271 H 0.34766 0.79391 0.97159 0.0
H272 H 0.44966 0.79178 0.97759 0.0
S273 S 0.40019 0.84595 0.08968 0.0
N274 N 0.34454 0.83749 0.06586 0.0
N275 N 0.45502 0.83466 0.0725 0.0
C276 C 0.42938 0.82346 0.04589 0.0
C277 C 0.36932 0.82483 0.04229 0.0
C278 C 0.53544 0.36154 0.37961 0.0
C279 C 0.50443 0.33948 0.35304 0.0
C280 C 0.59336 0.42304 0.38286 0.0
C281 C 0.62279 0.46499 0.35967 0.0
H282 H 0.51635 0.33012 0.398 0.0
H283 H 0.61684 0.43617 0.40349 0.0
S284 S 0.55587 0.43555 0.2864 0.0
N285 N 0.50354 0.36812 0.3037 0.0
N286 N 0.61239 0.48378 0.30981 0.0
C287 C 0.58997 0.44566 0.33333 0.0
C288 C 0.53086 0.38293 0.33001 0.0
C289 C 0.19102 0.54629 0.65997 0.0
C290 C 0.18122 0.50408 0.68287 0.0
C291 C 0.19282 0.60679 0.66382 0.0
C292 C 0.18479 0.62759 0.69071 0.0
H293 H 0.20034 0.53409 0.63907 0.0
H294 H 0.20309 0.6385 0.64562 0.0
S295 S 0.14712 0.53021 0.75683 0.0
N296 N 0.15563 0.48362 0.73286 0.0
N297 N 0.15911 0.59739 0.74006 0.0
C298 C 0.17062 0.58385 0.71347 0.0
C299 C 0.16881 0.52215 0.70956 0.0
C300 C 0.30656 0.18249 0.18306 0.0
C301 C 0.3584 0.20063 0.16376 0.0
C302 C 0.31572 0.17729 0.21208 0.0
C303 C 0.3772 0.19007 0.22316 0.0
H304 H 0.2582 0.17205 0.17577 0.0
H305 H 0.27403 0.16305 0.22591 0.0
S306 S 0.52955 0.23985 0.18173 0.0
N307 N 0.47392 0.23169 0.15798 0.0
N308 N 0.49111 0.22208 0.21229 0.0
C309 C 0.4296 0.20839 0.2041 0.0
C310 C 0.42023 0.21358 0.17452 0.0
C311 C 0.18217 0.41908 0.50529 0.0
C312 C 0.17461 0.36181 0.49173 0.0
C313 C 0.19197 0.42787 0.53459 0.0
C314 C 0.19395 0.37946 0.55171 0.0
H315 H 0.18118 0.45798 0.49316 0.0
H316 H 0.1978 0.47306 0.54386 0.0
S317 S 0.17508 0.2194 0.5268 0.0
N318 N 0.16888 0.25529 0.49784 0.0
N319 N 0.18672 0.27148 0.5528 0.0
C320 C 0.18584 0.32157 0.53847 0.0
C321 C 0.1764 0.31288 0.50856 0.0
C322 C 0.76564 0.19275 0.87086 0.0
C323 C 0.82487 0.19726 0.88065 0.0
C324 C 0.74746 0.18196 0.84222 0.0
C325 C 0.78753 0.17494 0.82204 0.0
H326 H 0.73281 0.19777 0.8854 0.0
H327 H 0.70138 0.17903 0.83594 0.0
S328 S 0.94791 0.18266 0.83648 0.0
N329 N 0.92377 0.19378 0.86764 0.0
N330 N 0.88961 0.17342 0.81397 0.0
C331 C 0.84689 0.17913 0.83151 0.0
C332 C 0.86553 0.19032 0.86071 0.0
C333 C 0.64851 0.85098 0.16411 0.0
C334 C 0.59048 0.79575 0.15348 0.0
C335 C 0.65701 0.86634 0.19307 0.0
C336 C 0.60793 0.82716 0.21276 0.0
H337 H 0.68795 0.88289 0.14997 0.0
H338 H 0.70265 0.90946 0.19999 0.0
S339 S 0.44656 0.67657 0.19608 0.0
N340 N 0.48295 0.70145 0.16522 0.0
N341 N 0.49892 0.73016 0.21941 0.0
C342 C 0.54962 0.77164 0.20245 0.0
C343 C 0.54091 0.75603 0.17294 0.0
C344 C 0.78371 0.65713 0.52886 0.0
C345 C 0.78435 0.61263 0.54882 0.0
C346 C 0.78835 0.64839 0.49978 0.0
C347 C 0.79344 0.59451 0.48928 0.0
H348 H 0.77952 0.69928 0.53568 0.0
H349 H 0.7874 0.68407 0.48542 0.0
S350 S 0.79823 0.46385 0.53258 0.0
N351 N 0.79132 0.51274 0.55585 0.0
N352 N 0.79974 0.49623 0.50144 0.0
C353 C 0.79446 0.54972 0.50901 0.0
C354 C 0.79004 0.55879 0.53865 0.0
C355 C 0.17709 0.74802 0.86338 0.0
C356 C 0.17916 0.79367 0.88349 0.0
C357 C 0.18439 0.76263 0.83444 0.0
C358 C 0.19435 0.82372 0.82418 0.0
H359 H 0.1698 0.7003 0.86996 0.0
H360 H 0.18262 0.72562 0.82003 0.0
S361 S 0.20285 0.96055 0.86787 0.0
N362 N 0.19123 0.90266 0.89091 0.0
N363 N 0.20504 0.93015 0.83668 0.0
C364 C 0.19615 0.86981 0.84403 0.0
C365 C 0.18853 0.85482 0.87356 0.0
C366 C 0.51082 0.54995 0.06875 0.0
C367 C 0.55877 0.58331 0.0478 0.0
C368 C 0.474 0.48014 0.06942 0.0
C369 C 0.48399 0.44225 0.04902 0.0
H370 H 0.4989 0.57777 0.08359 0.0
H371 H 0.43542 0.45594 0.08497 0.0
S372 S 0.61289 0.50587 0.99369 0.0
N373 N 0.62084 0.57312 1.0091 0.0
N374 N 0.55189 0.44271 1.01023 0.0
C375 C 0.53536 0.47516 0.02951 0.0
C376 C 0.57276 0.54558 0.02895 0.0
C377 C 0.97254 0.53628 0.39854 0.0
C378 C 0.92606 0.52434 0.37703 0.0
C379 C 0.00496 0.49913 0.39992 0.0
C380 C -0.00886 0.4487 0.37999 0.0
H381 H 0.98584 0.57614 0.4136 0.0
H382 H 0.04324 0.51214 0.41577 0.0
S383 S 0.86342 0.38955 0.32334 0.0
N384 N 0.86108 0.45262 0.33802 0.0
N385 N 0.9212 0.38291 0.34078 0.0
C386 C 0.94112 0.4333 0.35981 0.0
C387 C 0.90879 0.47114 0.35828 0.0
C388 C 0.5276 0.02109 0.68825 0.0
C389 C 0.56465 0.01801 0.71111 0.0
C390 C 0.45884 0.98906 0.68898 0.0
C391 C 0.42347 0.95167 0.7125 0.0
H392 H 0.55184 0.04823 0.66932 0.0
H393 H 0.43317 0.99216 0.67042 0.0
S394 S 0.49703 0.93224 0.77898 0.0
N395 N 0.56151 0.97892 0.75894 0.0
N396 N 0.43091 0.91681 0.76017 0.0
C397 C 0.45974 0.95056 0.73618 0.0
C398 C 0.5306 0.9841 0.73551 0.0
C399 C 0.52741 0.47157 0.68986 0.0
C400 C 0.56277 0.50357 0.6654 0.0
C401 C 0.45863 0.43384 0.68971 0.0
C402 C 0.42141 0.42665 0.66516 0.0
H403 H 0.55296 0.47521 0.70954 0.0
H404 H 0.43454 0.41116 0.70937 0.0
S405 S 0.48975 0.4983 0.595 0.0
N406 N 0.55571 0.52368 0.61549 0.0
N407 N 0.42522 0.45326 0.61525 0.0
C408 C 0.45588 0.45705 0.64023 0.0
C409 C 0.52672 0.4954 0.64034 0.0
C410 C 0.97673 0.54525 1.01646 0.0
C411 C 0.0144 0.58237 0.99333 0.0
C412 C 0.94473 0.47623 1.01639 0.0
C413 C 0.94811 0.44075 0.99307 0.0
H414 H 0.97354 0.56971 0.03536 0.0
H415 H 0.91747 0.45051 0.03508 0.0
S416 S 0.03453 0.51327 0.92589 0.0
N417 N 0.0497 0.57824 0.94549 0.0
N418 N 0.98763 0.4472 0.94521 0.0
C419 C 0.98214 0.47656 0.96901 0.0
C420 C 0.01567 0.54766 0.96916 0.0
C421 C 0.4995 -0.00542 0.30761 0.0
C422 C 0.49061 0.94748 0.3282 0.0
C423 C 0.46238 0.02708 0.3084 0.0
C424 C 0.41518 0.01273 0.32966 0.0
H425 H 0.53727 0.00855 0.29171 0.0
H426 H 0.47327 0.06607 0.2933 0.0
S427 S 0.36419 0.88322 0.38458 0.0
N428 N 0.42468 0.88115 0.36768 0.0
N429 N 0.3552 0.94161 0.36903 0.0
C430 C 0.40249 0.96193 0.34884 0.0
C431 C 0.44019 0.92945 0.34815 0.0
loop_
_geom_bond_atom_site_label_1
_geom_bond_atom_site_label_2
_geom_bond_distance
_geom_bond_site_symmetry_2
_ccdc_geom_bond_type
Zn0 O3 2.024 1_556 S
Zn0 O5 2.043 1_556 S
Zn0 O10 2.067 1_556 S
Zn1 O2 1.962 . S
Zn1 O4 1.986 . S
Zn1 O6 1.996 . S
Zn1 O9 1.943 . S
O2 Zn1 1.962 . S
O2 C7 1.254 . S
O3 Zn0 2.024 1_554 S
O3 C7 1.289 . S
O4 Zn1 1.986 . S
O4 C11 1.262 . S
O5 Zn0 2.043 1_554 S
O5 C13 1.288 . S
O6 Zn1 1.996 . S
O6 C13 1.257 . S
C7 O2 1.254 . S
C7 O3 1.289 . S
C8 O9 1.249 . S
C8 O10 1.270 . S
O9 Zn1 1.943 . S
O9 C8 1.249 . S
O10 Zn0 2.067 1_554 S
O10 C8 1.270 . S
C11 O4 1.262 . S
C11 O12 1.232 . S
O12 C11 1.232 . S
C13 O5 1.288 . S
C13 O6 1.257 . S
Zn14 O17 2.031 . S
Zn14 O19 2.049 . S
Zn14 O24 2.067 . S
Zn15 O16 1.962 . S
Zn15 O18 1.986 . S
Zn15 O20 1.996 . S
Zn15 O23 1.943 . S
O16 Zn15 1.962 . S
O16 C21 1.254 . S
O17 Zn14 2.031 . S
O17 C21 1.269 . S
O18 Zn15 1.986 . S
O18 C25 1.262 . S
O19 Zn14 2.049 . S
O19 C27 1.260 . S
O20 Zn15 1.996 . S
O20 C27 1.257 . S
C21 O16 1.254 . S
C21 O17 1.269 . S
C22 O23 1.249 . S
C22 O24 1.270 . S
O23 Zn15 1.943 . S
O23 C22 1.249 . S
O24 Zn14 2.067 . S
O24 C22 1.270 . S
C25 O18 1.262 . S
C25 O26 1.232 . S
O26 C25 1.232 . S
C27 O19 1.260 . S
C27 O20 1.257 . S
Zn28 O31 2.031 . S
Zn28 O33 2.049 . S
Zn28 O38 2.067 . S
Zn29 O30 1.962 . S
Zn29 O32 1.986 . S
Zn29 O34 1.996 . S
Zn29 O37 1.943 . S
O30 Zn29 1.962 . S
O30 C35 1.254 . S
O31 Zn28 2.031 . S
O31 C35 1.269 . S
O32 Zn29 1.986 . S
O32 C39 1.262 . S
O33 Zn28 2.049 . S
O33 C41 1.260 . S
O34 Zn29 1.996 . S
O34 C41 1.257 . S
C35 O30 1.254 . S
C35 O31 1.269 . S
C36 O37 1.249 . S
C36 O38 1.270 . S
O37 Zn29 1.943 . S
O37 C36 1.249 . S
O38 Zn28 2.067 . S
O38 C36 1.270 . S
C39 O32 1.262 . S
C39 O40 1.232 . S
O40 C39 1.232 . S
C41 O33 1.260 . S
C41 O34 1.257 . S
Zn42 O45 2.024 1_556 S
Zn42 O47 2.043 1_556 S
Zn42 O52 2.067 1_556 S
Zn43 O44 1.962 . S
Zn43 O46 1.986 . S
Zn43 O48 1.996 . S
Zn43 O51 1.943 . S
O44 Zn43 1.962 . S
O44 C49 1.254 . S
O45 Zn42 2.024 1_554 S
O45 C49 1.289 . S
O46 Zn43 1.986 . S
O46 C53 1.262 . S
O47 Zn42 2.043 1_554 S
O47 C55 1.288 . S
O48 Zn43 1.996 . S
O48 C55 1.257 . S
C49 O44 1.254 . S
C49 O45 1.289 . S
C50 O51 1.249 . S
C50 O52 1.270 . S
O51 Zn43 1.943 . S
O51 C50 1.249 . S
O52 Zn42 2.067 1_554 S
O52 C50 1.270 . S
C53 O46 1.262 . S
C53 O54 1.232 . S
O54 C53 1.232 . S
C55 O47 1.288 . S
C55 O48 1.257 . S
Zn56 O59 2.031 . S
Zn56 O61 2.049 . S
Zn56 O66 2.067 . S
Zn57 O58 1.962 . S
Zn57 O60 1.986 . S
Zn57 O62 1.996 . S
Zn57 O65 1.943 . S
O58 Zn57 1.962 . S
O58 C63 1.254 . S
O59 Zn56 2.031 . S
O59 C63 1.269 . S
O60 Zn57 1.986 . S
O60 C67 1.262 . S
O61 Zn56 2.049 . S
O61 C69 1.260 . S
O62 Zn57 1.996 . S
O62 C69 1.257 . S
C63 O58 1.254 . S
C63 O59 1.269 . S
C64 O65 1.249 . S
C64 O66 1.270 . S
O65 Zn57 1.943 . S
O65 C64 1.249 . S
O66 Zn56 2.067 . S
O66 C64 1.270 . S
C67 O60 1.262 . S
C67 O68 1.232 . S
O68 C67 1.232 . S
C69 O61 1.260 . S
C69 O62 1.257 . S
Zn70 O73 2.031 . S
Zn70 O75 2.049 . S
Zn70 O80 2.067 . S
Zn71 O72 1.962 . S
Zn71 O74 1.986 . S
Zn71 O76 1.996 . S
Zn71 O79 1.943 . S
O72 Zn71 1.962 . S
O72 C77 1.254 . S
O73 Zn70 2.031 . S
O73 C77 1.269 . S
O74 Zn71 1.986 . S
O74 C81 1.262 . S
O75 Zn70 2.049 . S
O75 C83 1.260 . S
O76 Zn71 1.996 . S
O76 C83 1.257 . S
C77 O72 1.254 . S
C77 O73 1.269 . S
C78 O79 1.249 . S
C78 O80 1.270 . S
O79 Zn71 1.943 . S
O79 C78 1.249 . S
O80 Zn70 2.067 . S
O80 C78 1.270 . S
C81 O74 1.262 . S
C81 O82 1.232 . S
O82 C81 1.232 . S
C83 O75 1.260 . S
C83 O76 1.257 . S
Zn84 O87 2.031 . S
Zn84 O89 2.049 . S
Zn84 O94 2.067 . S
Zn85 O86 1.962 . S
Zn85 O88 1.986 . S
Zn85 O90 1.996 . S
Zn85 O93 1.943 . S
O86 Zn85 1.962 . S
O86 C91 1.254 . S
O87 Zn84 2.031 . S
O87 C91 1.269 . S
O88 Zn85 1.986 . S
O88 C95 1.262 . S
O89 Zn84 2.049 . S
O89 C97 1.260 . S
O90 Zn85 1.996 . S
O90 C97 1.257 . S
C91 O86 1.254 . S
C91 O87 1.269 . S
C92 O93 1.249 . S
C92 O94 1.270 . S
O93 Zn85 1.943 . S
O93 C92 1.249 . S
O94 Zn84 2.067 . S
O94 C92 1.270 . S
C95 O88 1.262 . S
C95 O96 1.232 . S
O96 C95 1.232 . S
C97 O89 1.260 . S
C97 O90 1.257 . S
Zn98 O101 2.024 1_554 S
Zn98 O103 2.043 1_554 S
Zn98 O108 2.067 1_554 S
Zn99 O100 1.962 . S
Zn99 O102 1.986 . S
Zn99 O104 1.996 . S
Zn99 O107 1.943 . S
O100 Zn99 1.962 . S
O100 C105 1.254 . S
O101 Zn98 2.024 1_556 S
O101 C105 1.289 . S
O102 Zn99 1.986 . S
O102 C109 1.262 . S
O103 Zn98 2.043 1_556 S
O103 C111 1.288 . S
O104 Zn99 1.996 . S
O104 C111 1.257 . S
C105 O100 1.254 . S
C105 O101 1.289 . S
C106 O107 1.249 . S
C106 O108 1.270 . S
O107 Zn99 1.943 . S
O107 C106 1.249 . S
O108 Zn98 2.067 1_556 S
O108 C106 1.270 . S
C109 O102 1.262 . S
C109 O110 1.232 . S
O110 C109 1.232 . S
C111 O103 1.288 . S
C111 O104 1.257 . S
Zn112 O115 2.031 . S
Zn112 O117 2.049 . S
Zn112 O122 2.067 . S
Zn113 O114 1.962 . S
Zn113 O116 1.986 . S
Zn113 O118 1.996 . S
Zn113 O121 1.943 . S
O114 Zn113 1.962 . S
O114 C119 1.254 . S
O115 Zn112 2.031 . S
O115 C119 1.269 . S
O116 Zn113 1.986 . S
O116 C123 1.262 . S
O117 Zn112 2.049 . S
O117 C125 1.260 . S
O118 Zn113 1.996 . S
O118 C125 1.257 . S
C119 O114 1.254 . S
C119 O115 1.269 . S
C120 O121 1.249 . S
C120 O122 1.270 . S
O121 Zn113 1.943 . S
O121 C120 1.249 . S
O122 Zn112 2.067 . S
O122 C120 1.270 . S
C123 O116 1.262 . S
C123 O124 1.232 . S
O124 C123 1.232 . S
C125 O117 1.260 . S
C125 O118 1.257 . S
Zn126 O129 2.031 . S
Zn126 O131 2.049 . S
Zn126 O136 2.067 . S
Zn127 O128 1.962 . S
Zn127 O130 1.986 . S
Zn127 O132 1.996 . S
Zn127 O135 1.943 . S
O128 Zn127 1.962 . S
O128 C133 1.254 . S
O129 Zn126 2.031 . S
O129 C133 1.269 . S
O130 Zn127 1.986 . S
O130 C137 1.262 . S
O131 Zn126 2.049 . S
O131 C139 1.260 . S
O132 Zn127 1.996 . S
O132 C139 1.257 . S
C133 O128 1.254 . S
C133 O129 1.269 . S
C134 O135 1.249 . S
C134 O136 1.270 . S
O135 Zn127 1.943 . S
O135 C134 1.249 . S
O136 Zn126 2.067 . S
O136 C134 1.270 . S
C137 O130 1.262 . S
C137 O138 1.232 . S
O138 C137 1.232 . S
C139 O131 1.260 . S
C139 O132 1.257 . S
Zn140 O143 2.024 1_554 S
Zn140 O145 2.043 1_554 S
Zn140 O150 2.067 1_554 S
Zn141 O142 1.962 . S
Zn141 O144 1.986 . S
Zn141 O146 1.996 . S
Zn141 O149 1.943 . S
O142 Zn141 1.962 . S
O142 C147 1.254 . S
O143 Zn140 2.024 1_556 S
O143 C147 1.289 . S
O144 Zn141 1.986 . S
O144 C151 1.262 . S
O145 Zn140 2.043 1_556 S
O145 C153 1.288 . S
O146 Zn141 1.996 . S
O146 C153 1.257 . S
C147 O142 1.254 . S
C147 O143 1.289 . S
C148 O149 1.249 . S
C148 O150 1.270 . S
O149 Zn141 1.943 . S
O149 C148 1.249 . S
O150 Zn140 2.067 1_556 S
O150 C148 1.270 . S
C151 O144 1.262 . S
C151 O152 1.232 . S
O152 C151 1.232 . S
C153 O145 1.288 . S
C153 O146 1.257 . S
Zn154 O157 2.031 . S
Zn154 O159 2.049 . S
Zn154 O164 2.067 . S
Zn155 O156 1.962 . S
Zn155 O158 1.986 . S
Zn155 O160 1.996 . S
Zn155 O163 1.943 . S
O156 Zn155 1.962 . S
O156 C161 1.254 . S
O157 Zn154 2.031 . S
O157 C161 1.269 . S
O158 Zn155 1.986 . S
O158 C165 1.262 . S
O159 Zn154 2.049 . S
O159 C167 1.260 . S
O160 Zn155 1.996 . S
O160 C167 1.257 . S
C161 O156 1.254 . S
C161 O157 1.269 . S
C162 O163 1.249 . S
C162 O164 1.270 . S
O163 Zn155 1.943 . S
O163 C162 1.249 . S
O164 Zn154 2.067 . S
O164 C162 1.270 . S
C165 O158 1.262 . S
C165 O166 1.232 . S
O166 C165 1.232 . S
C167 O159 1.260 . S
C167 O160 1.257 . S
C168 C169 1.369 . S
C168 C170 1.419 1_565 S
C168 H172 0.930 . S
C169 C168 1.369 . S
C169 C178 1.429 1_556 S
C170 C168 1.419 1_545 S
C170 C171 1.363 1_556 S
C170 H173 0.929 . S
C171 C170 1.363 1_554 S
C171 C177 1.428 . S
H172 C168 0.930 . S
H173 C170 0.929 . S
S174 N175 1.613 . S
S174 N176 1.610 1_565 S
N175 S174 1.613 . S
N175 C178 1.350 . S
N176 S174 1.610 1_545 S
N176 C177 1.351 . S
C177 C171 1.428 . S
C177 N176 1.351 . S
C177 C178 1.434 1_545 S
C178 C169 1.429 1_554 S
C178 N175 1.350 . S
C178 C177 1.434 1_565 S
C179 C180 1.369 . S
C179 C181 1.419 . S
C179 H183 0.930 . S
C180 C179 1.369 . S
C180 C189 1.429 . S
C181 C179 1.419 . S
C181 C182 1.363 . S
C181 H184 0.929 . S
C182 C181 1.363 . S
C182 C188 1.428 . S
H183 C179 0.930 . S
H184 C181 0.929 . S
S185 N186 1.613 . S
S185 N187 1.610 . S
N186 S185 1.613 . S
N186 C189 1.350 . S
N187 S185 1.610 . S
N187 C188 1.351 . S
C188 C182 1.428 . S
C188 N187 1.351 . S
C188 C189 1.434 . S
C189 C180 1.429 . S
C189 N186 1.350 . S
C189 C188 1.434 . S
C190 C191 1.369 . S
C190 C192 1.419 1_655 S
C190 H194 0.930 . S
C191 C190 1.369 . S
C191 C200 1.429 . S
C192 C190 1.419 1_455 S
C192 C193 1.363 . S
C192 H195 0.929 . S
C193 C192 1.363 . S
C193 C199 1.428 . S
H194 C190 0.930 . S
H195 C192 0.929 . S
S196 N197 1.613 . S
S196 N198 1.610 1_655 S
N197 S196 1.613 . S
N197 C200 1.350 . S
N198 S196 1.610 1_455 S
N198 C199 1.351 . S
C199 C193 1.428 . S
C199 N198 1.351 . S
C199 C200 1.434 1_455 S
C200 C191 1.429 . S
C200 N197 1.350 . S
C200 C199 1.434 1_655 S
C201 C202 1.369 1_556 S
C201 C203 1.419 1_565 S
C201 H205 0.930 . S
C202 C201 1.369 1_554 S
C202 C211 1.429 . S
C203 C201 1.419 1_545 S
C203 C204 1.363 . S
C203 H206 0.929 . S
C204 C203 1.363 . S
C204 C210 1.428 1_556 S
H205 C201 0.930 . S
H206 C203 0.929 . S
S207 N208 1.613 1_545 S
S207 N209 1.610 . S
N208 S207 1.613 1_565 S
N208 C211 1.350 . S
N209 S207 1.610 . S
N209 C210 1.351 . S
C210 C204 1.428 1_554 S
C210 N209 1.351 . S
C210 C211 1.434 1_545 S
C211 C202 1.429 . S
C211 N208 1.350 . S
C211 C210 1.434 1_565 S
C212 C213 1.369 . S
C212 C214 1.419 . S
C212 H216 0.930 . S
C213 C212 1.369 . S
C213 C222 1.429 . S
C214 C212 1.419 . S
C214 C215 1.363 . S
C214 H217 0.929 . S
C215 C214 1.363 . S
C215 C221 1.428 . S
H216 C212 0.930 . S
H217 C214 0.929 . S
S218 N219 1.613 . S
S218 N220 1.610 . S
N219 S218 1.613 . S
N219 C222 1.350 . S
N220 S218 1.610 . S
N220 C221 1.351 . S
C221 C215 1.428 . S
C221 N220 1.351 . S
C221 C222 1.434 . S
C222 C213 1.429 . S
C222 N219 1.350 . S
C222 C221 1.434 . S
C223 C224 1.369 . S
C223 C225 1.419 1_655 S
C223 H227 0.930 . S
C224 C223 1.369 . S
C224 C233 1.429 . S
C225 C223 1.419 1_455 S
C225 C226 1.363 . S
C225 H228 0.929 . S
C226 C225 1.363 . S
C226 C232 1.428 . S
H227 C223 0.930 . S
H228 C225 0.929 . S
S229 N230 1.613 . S
S229 N231 1.610 1_655 S
N230 S229 1.613 . S
N230 C233 1.350 . S
N231 S229 1.610 1_455 S
N231 C232 1.351 . S
C232 C226 1.428 . S
C232 N231 1.351 . S
C232 C233 1.434 1_455 S
C233 C224 1.429 . S
C233 N230 1.350 . S
C233 C232 1.434 1_655 S
C234 C235 1.369 . S
C234 C236 1.419 1_556 S
C234 H238 0.930 . S
C235 C234 1.369 . S
C235 C244 1.437 . S
C236 C234 1.419 1_554 S
C236 C237 1.363 . S
C236 H239 0.929 . S
C237 C236 1.363 . S
C237 C243 1.428 . S
H238 C234 0.930 . S
H239 C236 0.929 . S
S240 N241 1.613 . S
S240 N242 1.610 . S
N241 S240 1.613 . S
N241 C244 1.349 1_554 S
N242 S240 1.610 . S
N242 C243 1.351 . S
C243 C237 1.428 . S
C243 N242 1.351 . S
C243 C244 1.426 1_554 S
C244 C235 1.437 . S
C244 N241 1.349 1_556 S
C244 C243 1.426 1_556 S
C245 C246 1.369 . S
C245 C247 1.419 . S
C245 H249 0.930 . S
C246 C245 1.369 . S
C246 C255 1.429 . S
C247 C245 1.419 . S
C247 C248 1.363 . S
C247 H250 0.929 . S
C248 C247 1.363 . S
C248 C254 1.428 . S
H249 C245 0.930 . S
H250 C247 0.929 . S
S251 N252 1.613 . S
S251 N253 1.610 . S
N252 S251 1.613 . S
N252 C255 1.350 . S
N253 S251 1.610 . S
N253 C254 1.351 . S
C254 C248 1.428 . S
C254 N253 1.351 . S
C254 C255 1.434 . S
C255 C246 1.429 . S
C255 N252 1.350 . S
C255 C254 1.434 . S
C256 C257 1.369 . S
C256 C258 1.419 . S
C256 H260 0.930 . S
C257 C256 1.369 . S
C257 C266 1.429 . S
C258 C256 1.419 . S
C258 C259 1.363 . S
C258 H261 0.929 . S
C259 C258 1.363 . S
C259 C265 1.428 . S
H260 C256 0.930 . S
H261 C258 0.929 . S
S262 N263 1.613 . S
S262 N264 1.610 . S
N263 S262 1.613 . S
N263 C266 1.350 . S
N264 S262 1.610 . S
N264 C265 1.351 . S
C265 C259 1.428 . S
C265 N264 1.351 . S
C265 C266 1.434 . S
C266 C257 1.429 . S
C266 N263 1.350 . S
C266 C265 1.434 . S
C267 C268 1.369 . S
C267 C269 1.419 . S
C267 H271 0.930 . S
C268 C267 1.369 . S
C268 C277 1.429 1_556 S
C269 C267 1.419 . S
C269 C270 1.363 1_556 S
C269 H272 0.929 . S
C270 C269 1.363 1_554 S
C270 C276 1.428 . S
H271 C267 0.930 . S
H272 C269 0.929 . S
S273 N274 1.613 . S
S273 N275 1.610 . S
N274 S273 1.613 . S
N274 C277 1.350 . S
N275 S273 1.610 . S
N275 C276 1.351 . S
C276 C270 1.428 . S
C276 N275 1.351 . S
C276 C277 1.434 . S
C277 C268 1.429 1_554 S
C277 N274 1.350 . S
C277 C276 1.434 . S
C278 C279 1.369 . S
C278 C280 1.419 . S
C278 H282 0.930 . S
C279 C278 1.369 . S
C279 C288 1.429 . S
C280 C278 1.419 . S
C280 C281 1.363 . S
C280 H283 0.929 . S
C281 C280 1.363 . S
C281 C287 1.428 . S
H282 C278 0.930 . S
H283 C280 0.929 . S
S284 N285 1.613 . S
S284 N286 1.610 . S
N285 S284 1.613 . S
N285 C288 1.350 . S
N286 S284 1.610 . S
N286 C287 1.351 . S
C287 C281 1.428 . S
C287 N286 1.351 . S
C287 C288 1.434 . S
C288 C279 1.429 . S
C288 N285 1.350 . S
C288 C287 1.434 . S
C289 C290 1.369 . S
C289 C291 1.419 . S
C289 H293 0.930 . S
C290 C289 1.369 . S
C290 C299 1.429 . S
C291 C289 1.419 . S
C291 C292 1.363 . S
C291 H294 0.929 . S
C292 C291 1.363 . S
C292 C298 1.428 . S
H293 C289 0.930 . S
H294 C291 0.929 . S
S295 N296 1.613 . S
S295 N297 1.610 . S
N296 S295 1.613 . S
N296 C299 1.350 . S
N297 S295 1.610 . S
N297 C298 1.351 . S
C298 C292 1.428 . S
C298 N297 1.351 . S
C298 C299 1.434 . S
C299 C290 1.429 . S
C299 N296 1.350 . S
C299 C298 1.434 . S
C300 C301 1.369 . S
C300 C302 1.419 . S
C300 H304 0.930 . S
C301 C300 1.369 . S
C301 C310 1.429 . S
C302 C300 1.419 . S
C302 C303 1.363 . S
C302 H305 0.929 . S
C303 C302 1.363 . S
C303 C309 1.428 . S
H304 C300 0.930 . S
H305 C302 0.929 . S
S306 N307 1.613 . S
S306 N308 1.610 . S
N307 S306 1.613 . S
N307 C310 1.350 . S
N308 S306 1.610 . S
N308 C309 1.351 . S
C309 C303 1.428 . S
C309 N308 1.351 . S
C309 C310 1.434 . S
C310 C301 1.429 . S
C310 N307 1.350 . S
C310 C309 1.434 . S
C311 C312 1.369 . S
C311 C313 1.419 . S
C311 H315 0.930 . S
C312 C311 1.369 . S
C312 C321 1.429 . S
C313 C311 1.419 . S
C313 C314 1.363 . S
C313 H316 0.929 . S
C314 C313 1.363 . S
C314 C320 1.428 . S
H315 C311 0.930 . S
H316 C313 0.929 . S
S317 N318 1.613 . S
S317 N319 1.610 . S
N318 S317 1.613 . S
N318 C321 1.350 . S
N319 S317 1.610 . S
N319 C320 1.351 . S
C320 C314 1.428 . S
C320 N319 1.351 . S
C320 C321 1.434 . S
C321 C312 1.429 . S
C321 N318 1.350 . S
C321 C320 1.434 . S
C322 C323 1.369 . S
C322 C324 1.419 . S
C322 H326 0.930 . S
C323 C322 1.369 . S
C323 C332 1.429 . S
C324 C322 1.419 . S
C324 C325 1.363 . S
C324 H327 0.929 . S
C325 C324 1.363 . S
C325 C331 1.428 . S
H326 C322 0.930 . S
H327 C324 0.929 . S
S328 N329 1.613 . S
S328 N330 1.610 . S
N329 S328 1.613 . S
N329 C332 1.350 . S
N330 S328 1.610 . S
N330 C331 1.351 . S
C331 C325 1.428 . S
C331 N330 1.351 . S
C331 C332 1.434 . S
C332 C323 1.429 . S
C332 N329 1.350 . S
C332 C331 1.434 . S
C333 C334 1.369 . S
C333 C335 1.419 . S
C333 H337 0.930 . S
C334 C333 1.369 . S
C334 C343 1.429 . S
C335 C333 1.419 . S
C335 C336 1.363 . S
C335 H338 0.929 . S
C336 C335 1.363 . S
C336 C342 1.428 . S
H337 C333 0.930 . S
H338 C335 0.929 . S
S339 N340 1.613 . S
S339 N341 1.610 . S
N340 S339 1.613 . S
N340 C343 1.350 . S
N341 S339 1.610 . S
N341 C342 1.351 . S
C342 C336 1.428 . S
C342 N341 1.351 . S
C342 C343 1.434 . S
C343 C334 1.429 . S
C343 N340 1.350 . S
C343 C342 1.434 . S
C344 C345 1.369 . S
C344 C346 1.419 . S
C344 H348 0.930 . S
C345 C344 1.369 . S
C345 C354 1.429 . S
C346 C344 1.419 . S
C346 C347 1.363 . S
C346 H349 0.929 . S
C347 C346 1.363 . S
C347 C353 1.428 . S
H348 C344 0.930 . S
H349 C346 0.929 . S
S350 N351 1.613 . S
S350 N352 1.610 . S
N351 S350 1.613 . S
N351 C354 1.350 . S
N352 S350 1.610 . S
N352 C353 1.351 . S
C353 C347 1.428 . S
C353 N352 1.351 . S
C353 C354 1.434 . S
C354 C345 1.429 . S
C354 N351 1.350 . S
C354 C353 1.434 . S
C355 C356 1.369 . S
C355 C357 1.419 . S
C355 H359 0.930 . S
C356 C355 1.369 . S
C356 C365 1.429 . S
C357 C355 1.419 . S
C357 C358 1.363 . S
C357 H360 0.929 . S
C358 C357 1.363 . S
C358 C364 1.428 . S
H359 C355 0.930 . S
H360 C357 0.929 . S
S361 N362 1.613 . S
S361 N363 1.610 . S
N362 S361 1.613 . S
N362 C365 1.350 . S
N363 S361 1.610 . S
N363 C364 1.351 . S
C364 C358 1.428 . S
C364 N363 1.351 . S
C364 C365 1.434 . S
C365 C356 1.429 . S
C365 N362 1.350 . S
C365 C364 1.434 . S
C366 C367 1.369 . S
C366 C368 1.419 . S
C366 H370 0.930 . S
C367 C366 1.369 . S
C367 C376 1.429 . S
C368 C366 1.419 . S
C368 C369 1.363 . S
C368 H371 0.929 . S
C369 C368 1.363 . S
C369 C375 1.428 . S
H370 C366 0.930 . S
H371 C368 0.929 . S
S372 N373 1.613 . S
S372 N374 1.610 . S
N373 S372 1.613 . S
N373 C376 1.350 . S
N374 S372 1.610 . S
N374 C375 1.351 . S
C375 C369 1.428 . S
C375 N374 1.351 . S
C375 C376 1.434 . S
C376 C367 1.429 . S
C376 N373 1.350 . S
C376 C375 1.434 . S
C377 C378 1.369 1_455 S
C377 C379 1.419 . S
C377 H381 0.930 . S
C378 C377 1.369 1_655 S
C378 C387 1.429 . S
C379 C377 1.419 . S
C379 C380 1.363 . S
C379 H382 0.929 . S
C380 C379 1.363 . S
C380 C386 1.428 1_455 S
H381 C377 0.930 . S
H382 C379 0.929 . S
S383 N384 1.613 . S
S383 N385 1.610 . S
N384 S383 1.613 . S
N384 C387 1.350 . S
N385 S383 1.610 . S
N385 C386 1.351 . S
C386 C380 1.428 1_655 S
C386 N385 1.351 . S
C386 C387 1.434 . S
C387 C378 1.429 . S
C387 N384 1.350 . S
C387 C386 1.434 . S
C388 C389 1.369 . S
C388 C390 1.419 . S
C388 H392 0.930 . S
C389 C388 1.369 . S
C389 C398 1.429 1_545 S
C390 C388 1.419 . S
C390 C391 1.363 1_545 S
C390 H393 0.929 . S
C391 C390 1.363 1_565 S
C391 C397 1.428 . S
H392 C388 0.930 . S
H393 C390 0.929 . S
S394 N395 1.613 . S
S394 N396 1.610 . S
N395 S394 1.613 . S
N395 C398 1.350 . S
N396 S394 1.610 . S
N396 C397 1.351 . S
C397 C391 1.428 . S
C397 N396 1.351 . S
C397 C398 1.434 . S
C398 C389 1.429 1_565 S
C398 N395 1.350 . S
C398 C397 1.434 . S
C399 C400 1.369 . S
C399 C401 1.419 . S
C399 H403 0.930 . S
C400 C399 1.369 . S
C400 C409 1.429 . S
C401 C399 1.419 . S
C401 C402 1.363 . S
C401 H404 0.929 . S
C402 C401 1.363 . S
C402 C408 1.428 . S
H403 C399 0.930 . S
H404 C401 0.929 . S
S405 N406 1.613 . S
S405 N407 1.610 . S
N406 S405 1.613 . S
N406 C409 1.350 . S
N407 S405 1.610 . S
N407 C408 1.351 . S
C408 C402 1.428 . S
C408 N407 1.351 . S
C408 C409 1.434 . S
C409 C400 1.429 . S
C409 N406 1.350 . S
C409 C408 1.434 . S
C410 C411 1.369 1_655 S
C410 C412 1.419 . S
C410 H414 0.930 . S
C411 C410 1.369 1_455 S
C411 C420 1.429 . S
C412 C410 1.419 . S
C412 C413 1.363 . S
C412 H415 0.929 . S
C413 C412 1.363 . S
C413 C419 1.428 1_655 S
H414 C410 0.930 . S
H415 C412 0.929 . S
S416 N417 1.613 . S
S416 N418 1.610 . S
N417 S416 1.613 . S
N417 C420 1.350 . S
N418 S416 1.610 . S
N418 C419 1.351 . S
C419 C413 1.428 1_455 S
C419 N418 1.351 . S
C419 C420 1.434 . S
C420 C411 1.429 . S
C420 N417 1.350 . S
C420 C419 1.434 . S
C421 C422 1.369 1_545 S
C421 C423 1.419 . S
C421 H425 0.930 . S
C422 C421 1.369 1_565 S
C422 C431 1.429 . S
C423 C421 1.419 . S
C423 C424 1.363 . S
C423 H426 0.929 . S
C424 C423 1.363 . S
C424 C430 1.428 1_545 S
H425 C421 0.930 . S
H426 C423 0.929 . S
S427 N428 1.613 . S
S427 N429 1.610 . S
N428 S427 1.613 . S
N428 C431 1.350 . S
N429 S427 1.610 . S
N429 C430 1.351 . S
C430 C424 1.428 1_565 S
C430 N429 1.351 . S
C430 C431 1.434 . S
C431 C422 1.429 . S
C431 N428 1.350 . S
C431 C430 1.434 . S
C169 C105 1.413 . S
C171 C7 1.413 . S
C180 C21 1.416 . S
C182 C119 1.415 . S
C191 C35 1.417 . S
C193 C133 1.416 . S
C202 C49 1.415 . S
C204 C147 1.416 . S
C213 C161 1.411 . S
C215 C63 1.412 . S
C224 C91 1.412 . S
C226 C77 1.412 . S
C235 C148 1.352 . S
C237 C8 1.355 . S
C246 C22 1.352 . S
C248 C162 1.355 . S
C257 C36 1.352 . S
C259 C92 1.357 . S
C268 C106 1.355 . S
C270 C50 1.358 . S
C279 C120 1.352 . S
C281 C64 1.354 . S
C290 C134 1.352 . S
C292 C78 1.356 . S
C301 C11 1.562 . S
C303 C123 1.562 . S
C312 C25 1.561 . S
C314 C137 1.562 . S
C323 C151 1.561 . S
C325 C39 1.561 . S
C334 C53 1.561 . S
C336 C165 1.562 . S
C345 C95 1.562 . S
C347 C67 1.562 . S
C356 C109 1.562 . S
C358 C81 1.561 . S
C367 C55 1.392 . S
C369 C13 1.386 . S
C378 C69 1.384 . S
C380 C27 1.390 . S
C389 C41 1.395 . S
C391 C83 1.387 . S
C400 C97 1.396 . S
C402 C139 1.388 . S
C411 C111 1.391 . S
C413 C153 1.395 . S
C422 C167 1.386 . S
C424 C125 1.394 . S
