# Generated by pormake.
# Topology ict, (4)-cn, num edge types: 1
# Building blocks:
#     Node 0, Type 0, BuildingBlock: QUQFOY_clean_sbu_3, # of connection points: 4
#     Node 1, Type 0, BuildingBlock: QUQFOY_clean_sbu_3, # of connection points: 4
#     Node 2, Type 0, BuildingBlock: QUQFOY_clean_sbu_3, # of connection points: 4
#     Node 3, Type 0, BuildingBlock: QUQFOY_clean_sbu_3, # of connection points: 4
#     Node 4, Type 0, BuildingBlock: QUQFOY_clean_sbu_3, # of connection points: 4
#     Node 5, Type 0, BuildingBlock: QUQFOY_clean_sbu_3, # of connection points: 4
#     Node 6, Type 0, BuildingBlock: QUQFOY_clean_sbu_3, # of connection points: 4
#     Node 7, Type 0, BuildingBlock: QUQFOY_clean_sbu_3, # of connection points: 4
#     Node 8, Type 0, BuildingBlock: QUQFOY_clean_sbu_3, # of connection points: 4
#     Node 9, Type 0, BuildingBlock: QUQFOY_clean_sbu_3, # of connection points: 4
#     Node 10, Type 0, BuildingBlock: QUQFOY_clean_sbu_3, # of connection points: 4
#     Node 11, Type 0, BuildingBlock: QUQFOY_clean_sbu_3, # of connection points: 4
#     Node 12, Type 0, BuildingBlock: QUQFOY_clean_sbu_3, # of connection points: 4
#     Node 13, Type 0, BuildingBlock: QUQFOY_clean_sbu_3, # of connection points: 4
#     Node 14, Type 0, BuildingBlock: QUQFOY_clean_sbu_3, # of connection points: 4
#     Node 15, Type 0, BuildingBlock: QUQFOY_clean_sbu_3, # of connection points: 4
#     Node 16, Type 0, BuildingBlock: QUQFOY_clean_sbu_3, # of connection points: 4
#     Node 17, Type 0, BuildingBlock: QUQFOY_clean_sbu_3, # of connection points: 4
#     Node 18, Type 0, BuildingBlock: QUQFOY_clean_sbu_3, # of connection points: 4
#     Node 19, Type 0, BuildingBlock: QUQFOY_clean_sbu_3, # of connection points: 4
#     Node 20, Type 0, BuildingBlock: QUQFOY_clean_sbu_3, # of connection points: 4
#     Node 21, Type 0, BuildingBlock: QUQFOY_clean_sbu_3, # of connection points: 4
#     Node 22, Type 0, BuildingBlock: QUQFOY_clean_sbu_3, # of connection points: 4
#     Node 23, Type 0, BuildingBlock: QUQFOY_clean_sbu_3, # of connection points: 4
#     Node 24, Type 0, BuildingBlock: QUQFOY_clean_sbu_3, # of connection points: 4
#     Node 25, Type 0, BuildingBlock: QUQFOY_clean_sbu_3, # of connection points: 4
#     Node 26, Type 0, BuildingBlock: QUQFOY_clean_sbu_3, # of connection points: 4
#     Node 27, Type 0, BuildingBlock: QUQFOY_clean_sbu_3, # of connection points: 4
#     Node 28, Type 0, BuildingBlock: QUQFOY_clean_sbu_3, # of connection points: 4
#     Node 29, Type 0, BuildingBlock: QUQFOY_clean_sbu_3, # of connection points: 4
#     Node 30, Type 0, BuildingBlock: QUQFOY_clean_sbu_3, # of connection points: 4
#     Node 31, Type 0, BuildingBlock: QUQFOY_clean_sbu_3, # of connection points: 4
#     Node 32, Type 0, BuildingBlock: QUQFOY_clean_sbu_3, # of connection points: 4
#     Node 33, Type 0, BuildingBlock: QUQFOY_clean_sbu_3, # of connection points: 4
#     Node 34, Type 0, BuildingBlock: QUQFOY_clean_sbu_3, # of connection points: 4
#     Node 35, Type 0, BuildingBlock: QUQFOY_clean_sbu_3, # of connection points: 4
#     Edge 36, Type (0, 0), BuildingBlock: OJICUG_clean_linker_0, # of connection points: 2
#     Edge 37, Type (0, 0), BuildingBlock: OJICUG_clean_linker_0, # of connection points: 2
#     Edge 38, Type (0, 0), BuildingBlock: OJICUG_clean_linker_0, # of connection points: 2
#     Edge 39, Type (0, 0), BuildingBlock: OJICUG_clean_linker_0, # of connection points: 2
#     Edge 40, Type (0, 0), BuildingBlock: OJICUG_clean_linker_0, # of connection points: 2
#     Edge 41, Type (0, 0), BuildingBlock: OJICUG_clean_linker_0, # of connection points: 2
#     Edge 42, Type (0, 0), BuildingBlock: OJICUG_clean_linker_0, # of connection points: 2
#     Edge 43, Type (0, 0), BuildingBlock: OJICUG_clean_linker_0, # of connection points: 2
#     Edge 44, Type (0, 0), BuildingBlock: OJICUG_clean_linker_0, # of connection points: 2
#     Edge 45, Type (0, 0), BuildingBlock: OJICUG_clean_linker_0, # of connection points: 2
#     Edge 46, Type (0, 0), BuildingBlock: OJICUG_clean_linker_0, # of connection points: 2
#     Edge 47, Type (0, 0), BuildingBlock: OJICUG_clean_linker_0, # of connection points: 2
#     Edge 48, Type (0, 0), BuildingBlock: OJICUG_clean_linker_0, # of connection points: 2
#     Edge 49, Type (0, 0), BuildingBlock: OJICUG_clean_linker_0, # of connection points: 2
#     Edge 50, Type (0, 0), BuildingBlock: OJICUG_clean_linker_0, # of connection points: 2
#     Edge 51, Type (0, 0), BuildingBlock: OJICUG_clean_linker_0, # of connection points: 2
#     Edge 52, Type (0, 0), BuildingBlock: OJICUG_clean_linker_0, # of connection points: 2
#     Edge 53, Type (0, 0), BuildingBlock: OJICUG_clean_linker_0, # of connection points: 2
#     Edge 54, Type (0, 0), BuildingBlock: OJICUG_clean_linker_0, # of connection points: 2
#     Edge 55, Type (0, 0), BuildingBlock: OJICUG_clean_linker_0, # of connection points: 2
#     Edge 56, Type (0, 0), BuildingBlock: OJICUG_clean_linker_0, # of connection points: 2
#     Edge 57, Type (0, 0), BuildingBlock: OJICUG_clean_linker_0, # of connection points: 2
#     Edge 58, Type (0, 0), BuildingBlock: OJICUG_clean_linker_0, # of connection points: 2
#     Edge 59, Type (0, 0), BuildingBlock: OJICUG_clean_linker_0, # of connection points: 2
#     Edge 60, Type (0, 0), BuildingBlock: OJICUG_clean_linker_0, # of connection points: 2
#     Edge 61, Type (0, 0), BuildingBlock: OJICUG_clean_linker_0, # of connection points: 2
#     Edge 62, Type (0, 0), BuildingBlock: OJICUG_clean_linker_0, # of connection points: 2
#     Edge 63, Type (0, 0), BuildingBlock: OJICUG_clean_linker_0, # of connection points: 2
#     Edge 64, Type (0, 0), BuildingBlock: OJICUG_clean_linker_0, # of connection points: 2
#     Edge 65, Type (0, 0), BuildingBlock: OJICUG_clean_linker_0, # of connection points: 2
#     Edge 66, Type (0, 0), BuildingBlock: OJICUG_clean_linker_0, # of connection points: 2
#     Edge 67, Type (0, 0), BuildingBlock: OJICUG_clean_linker_0, # of connection points: 2
#     Edge 68, Type (0, 0), BuildingBlock: OJICUG_clean_linker_0, # of connection points: 2
#     Edge 69, Type (0, 0), BuildingBlock: OJICUG_clean_linker_0, # of connection points: 2
#     Edge 70, Type (0, 0), BuildingBlock: OJICUG_clean_linker_0, # of connection points: 2
#     Edge 71, Type (0, 0), BuildingBlock: OJICUG_clean_linker_0, # of connection points: 2
#     Edge 72, Type (0, 0), BuildingBlock: OJICUG_clean_linker_0, # of connection points: 2
#     Edge 73, Type (0, 0), BuildingBlock: OJICUG_clean_linker_0, # of connection points: 2
#     Edge 74, Type (0, 0), BuildingBlock: OJICUG_clean_linker_0, # of connection points: 2
#     Edge 75, Type (0, 0), BuildingBlock: OJICUG_clean_linker_0, # of connection points: 2
#     Edge 76, Type (0, 0), BuildingBlock: OJICUG_clean_linker_0, # of connection points: 2
#     Edge 77, Type (0, 0), BuildingBlock: OJICUG_clean_linker_0, # of connection points: 2
#     Edge 78, Type (0, 0), BuildingBlock: OJICUG_clean_linker_0, # of connection points: 2
#     Edge 79, Type (0, 0), BuildingBlock: OJICUG_clean_linker_0, # of connection points: 2
#     Edge 80, Type (0, 0), BuildingBlock: OJICUG_clean_linker_0, # of connection points: 2
#     Edge 81, Type (0, 0), BuildingBlock: OJICUG_clean_linker_0, # of connection points: 2
#     Edge 82, Type (0, 0), BuildingBlock: OJICUG_clean_linker_0, # of connection points: 2
#     Edge 83, Type (0, 0), BuildingBlock: OJICUG_clean_linker_0, # of connection points: 2
#     Edge 84, Type (0, 0), BuildingBlock: OJICUG_clean_linker_0, # of connection points: 2
#     Edge 85, Type (0, 0), BuildingBlock: OJICUG_clean_linker_0, # of connection points: 2
#     Edge 86, Type (0, 0), BuildingBlock: OJICUG_clean_linker_0, # of connection points: 2
#     Edge 87, Type (0, 0), BuildingBlock: OJICUG_clean_linker_0, # of connection points: 2
#     Edge 88, Type (0, 0), BuildingBlock: OJICUG_clean_linker_0, # of connection points: 2
#     Edge 89, Type (0, 0), BuildingBlock: OJICUG_clean_linker_0, # of connection points: 2
#     Edge 90, Type (0, 0), BuildingBlock: OJICUG_clean_linker_0, # of connection points: 2
#     Edge 91, Type (0, 0), BuildingBlock: OJICUG_clean_linker_0, # of connection points: 2
#     Edge 92, Type (0, 0), BuildingBlock: OJICUG_clean_linker_0, # of connection points: 2
#     Edge 93, Type (0, 0), BuildingBlock: OJICUG_clean_linker_0, # of connection points: 2
#     Edge 94, Type (0, 0), BuildingBlock: OJICUG_clean_linker_0, # of connection points: 2
#     Edge 95, Type (0, 0), BuildingBlock: OJICUG_clean_linker_0, # of connection points: 2
#     Edge 96, Type (0, 0), BuildingBlock: OJICUG_clean_linker_0, # of connection points: 2
#     Edge 97, Type (0, 0), BuildingBlock: OJICUG_clean_linker_0, # of connection points: 2
#     Edge 98, Type (0, 0), BuildingBlock: OJICUG_clean_linker_0, # of connection points: 2
#     Edge 99, Type (0, 0), BuildingBlock: OJICUG_clean_linker_0, # of connection points: 2
#     Edge 100, Type (0, 0), BuildingBlock: OJICUG_clean_linker_0, # of connection points: 2
#     Edge 101, Type (0, 0), BuildingBlock: OJICUG_clean_linker_0, # of connection points: 2
#     Edge 102, Type (0, 0), BuildingBlock: OJICUG_clean_linker_0, # of connection points: 2
#     Edge 103, Type (0, 0), BuildingBlock: OJICUG_clean_linker_0, # of connection points: 2
#     Edge 104, Type (0, 0), BuildingBlock: OJICUG_clean_linker_0, # of connection points: 2
#     Edge 105, Type (0, 0), BuildingBlock: OJICUG_clean_linker_0, # of connection points: 2
#     Edge 106, Type (0, 0), BuildingBlock: OJICUG_clean_linker_0, # of connection points: 2
#     Edge 107, Type (0, 0), BuildingBlock: OJICUG_clean_linker_0, # of connection points: 2
# Relax obj value: 0.103
# Max RMSD: 0.126
# Mean RMSD: 0.126
data_MOF--net-ict--node1-QUQFOY_clean_sbu_3--edge1-OJICUG_clean_linker_0
_symmetry_space_group_name_H-M    P1
_symmetry_Int_Tables_number       1
_symmetry_cell_setting            triclinic
loop_
_symmetry_equiv_pos_as_xyz
'x, y, z'
_cell_length_a     49.229687
_cell_length_b     49.10301
_cell_length_c     27.788069
_cell_angle_alpha  89.928191
_cell_angle_beta   90.09494
_cell_angle_gamma 120.10401
loop_
_atom_site_label
_atom_site_type_symbol
_atom_site_fract_x
_atom_site_fract_y
_atom_site_fract_z
_atom_type_partial_charge
C0 C 0.14708 0.21924 0.02286 0.0
O1 O 0.13941 0.19066 0.02919 0.0
Cd2 Cd 0.17307 0.16978 0.03896 0.0
O3 O 0.17594 0.24069 0.01946 0.0
Cd4 Cd 0.22806 0.24189 0.02289 0.0
C5 C 0.21383 0.21618 0.1373 0.0
O6 O 0.21169 0.19377 0.97907 0.0
O7 O 0.25425 0.20931 0.01884 0.0
O8 O 0.24661 0.277 0.95349 0.0
C9 C 0.23446 0.18976 0.98928 0.0
O10 O 0.19514 0.18987 0.11761 0.0
C11 C 0.27335 0.29615 0.97096 0.0
O12 O 0.22885 0.24104 0.11196 0.0
O13 O 0.27821 0.29144 0.01432 0.0
C14 C 0.76709 0.92567 0.02247 0.0
O15 O 0.79566 0.94622 0.02957 0.0
Cd16 Cd 0.81735 0.00083 0.04109 0.0
O17 O 0.74604 0.93358 0.01903 0.0
Cd18 Cd 0.74574 0.98511 0.02358 0.0
C19 C 0.77021 0.99413 0.13871 0.0
O20 O 0.79432 0.01657 0.98107 0.0
O21 O 0.77904 0.04407 0.01991 0.0
O22 O 0.71094 0.96952 0.95388 0.0
C23 C 0.79872 0.04356 0.99112 0.0
O24 O 0.79652 0.0014 0.11968 0.0
C25 C 0.69204 0.97729 0.97152 0.0
O26 O 0.74588 0.98563 0.11272 0.0
O27 O 0.6968 0.98662 0.01499 0.0
C28 C 0.06003 0.8418 0.01946 0.0
O29 O 0.03936 0.84963 0.02617 0.0
Cd30 Cd 0.98508 0.81615 0.03899 0.0
O31 O 0.05237 0.8128 0.01688 0.0
Cd32 Cd 0.00134 0.76051 0.02216 0.0
C33 C -0.00682 0.7766 0.13707 0.0
O34 O 0.96915 0.77679 0.97986 0.0
O35 O 0.94245 0.7341 0.01971 0.0
O36 O 0.01695 0.7416 0.95235 0.0
C37 C 0.94244 0.754 0.99063 0.0
O38 O 0.98563 0.79545 0.1179 0.0
C39 C 0.00961 0.71495 0.97005 0.0
O40 O 0.0015 0.7606 0.1112 0.0
O41 O 0.00049 0.71026 0.01361 0.0
C42 C 0.21707 0.15067 0.46054 0.0
O43 O 0.18842 0.14233 0.45388 0.0
Cd44 Cd 0.16649 0.17501 0.44304 0.0
O45 O 0.23799 0.17978 0.46409 0.0
Cd46 Cd 0.23803 0.23146 0.46054 0.0
C47 C 0.21355 0.2162 0.34552 0.0
O48 O 0.18942 0.21382 0.50308 0.0
O49 O 0.20467 0.2568 0.46435 0.0
O50 O 0.27263 0.2505 0.53044 0.0
C51 C 0.185 0.23641 0.49309 0.0
O52 O 0.18729 0.19686 0.36456 0.0
C53 C 0.29158 0.27737 0.51301 0.0
O54 O 0.23788 0.23221 0.37148 0.0
O55 O 0.28694 0.28212 0.46955 0.0
C56 C 0.83646 0.06325 0.46213 0.0
O57 O 0.844 0.04232 0.45557 0.0
Cd58 Cd 0.81025 0.98767 0.44557 0.0
O59 O 0.80762 0.0558 0.46545 0.0
Cd60 Cd 0.75539 0.00471 0.46143 0.0
C61 C 0.76978 0.99339 0.34699 0.0
O62 O 0.77176 0.97313 0.50559 0.0
O63 O 0.72914 0.94574 0.46614 0.0
O64 O 0.73662 0.02132 0.53028 0.0
C65 C 0.74899 0.94619 0.49569 0.0
O66 O 0.7884 0.98577 0.36673 0.0
C67 C 0.70999 0.01367 0.51244 0.0
O68 O 0.75478 0.00314 0.37231 0.0
O69 O 0.70527 0.00395 0.46917 0.0
C70 C 0.92545 0.77505 0.46057 0.0
O71 O 0.9463 0.80362 0.45395 0.0
Cd72 Cd 0.00083 0.8244 0.44349 0.0
O73 O 0.93292 0.75365 0.46382 0.0
Cd74 Cd 0.98372 0.75232 0.45984 0.0
C75 C -0.00514 0.77793 0.34525 0.0
O76 O 0.01576 0.80055 0.50343 0.0
O77 O 0.04251 0.78452 0.46428 0.0
O78 O 0.96705 0.71697 0.52896 0.0
C79 C 0.04247 0.80433 0.49343 0.0
O80 O 0.00255 0.80431 0.36474 0.0
C81 C 0.97424 0.69764 0.51114 0.0
O82 O 0.98511 0.75316 0.3708 0.0
O83 O 0.98381 0.7025 0.46782 0.0
C84 C 0.83606 0.77159 0.96328 0.0
O85 O 0.84379 0.80017 0.95677 0.0
Cd86 Cd 0.81025 0.82087 0.94455 0.0
O87 O 0.80716 0.75011 0.96598 0.0
Cd88 Cd 0.75498 0.74885 0.9611 0.0
C89 C 0.77089 0.77337 0.84627 0.0
O90 O 0.77124 0.7972 0.00401 0.0
O91 O 0.7289 0.78165 0.96369 0.0
O92 O 0.73608 0.71398 0.03076 0.0
C93 C 0.74859 0.80127 -0.00671 0.0
O94 O 0.78962 0.7998 0.86558 0.0
C95 C 0.70938 0.69485 0.01316 0.0
O96 O 0.75495 0.74889 0.87203 0.0
O97 O 0.70469 0.69947 0.96967 0.0
C98 C 0.21607 0.06544 0.95979 0.0
O99 O 0.18757 0.04485 0.95227 0.0
Cd100 Cd 0.16627 0.99037 0.94018 0.0
O101 O 0.23715 0.0576 0.9636 0.0
Cd102 Cd 0.23782 0.00625 0.9594 0.0
C103 C 0.21465 -0.00194 0.84379 0.0
O104 O 0.18893 0.97464 0.00085 0.0
O105 O 0.20457 0.94721 0.96265 0.0
O106 O 0.27211 0.02178 0.02972 0.0
C107 C 0.18465 0.94767 0.99096 0.0
O108 O 0.18813 0.99072 0.86206 0.0
C109 C 0.29127 0.01425 0.01237 0.0
O110 O 0.23863 0.00615 0.87042 0.0
O111 O 0.28684 0.00504 0.96885 0.0
C112 C 0.92339 0.1493 0.96284 0.0
O113 O 0.94406 0.14143 0.95645 0.0
Cd114 Cd -0.00133 0.17486 0.94602 0.0
O115 O 0.93112 0.17829 0.96587 0.0
Cd116 Cd 0.98227 0.23041 0.96171 0.0
C117 C -0.0068 0.21549 0.84732 0.0
O118 O 0.01398 0.21398 0.0054 0.0
O119 O 0.04101 0.25683 0.96604 0.0
O120 O 0.96607 0.24933 0.03082 0.0
C121 C 0.04078 0.23685 -0.00477 0.0
O122 O 0.00056 0.19667 0.86712 0.0
C123 C 0.9735 0.27596 0.01291 0.0
O124 O 0.98374 0.2308 0.87258 0.0
O125 O 0.98293 0.28061 0.96952 0.0
C126 C 0.76857 0.84106 0.52442 0.0
O127 O 0.79717 0.84937 0.53156 0.0
Cd128 Cd 0.81933 0.81673 0.54093 0.0
O129 O 0.74774 0.81198 0.5201 0.0
Cd130 Cd 0.74791 0.76045 0.52308 0.0
C131 C 0.77297 0.77426 0.6381 0.0
O132 O 0.79653 0.77843 0.48015 0.0
O133 O 0.78121 0.73513 0.51798 0.0
O134 O 0.71313 0.74159 0.45336 0.0
C135 C 0.80093 0.75576 0.48955 0.0
O136 O 0.79921 0.79359 0.61901 0.0
C137 C 0.69414 0.71473 0.47076 0.0
O138 O 0.74841 0.75907 0.61223 0.0
O139 O 0.69888 0.70987 0.51411 0.0
C140 C 0.14935 0.92831 0.52162 0.0
O141 O 0.14177 0.94925 0.52777 0.0
Cd142 Cd 0.17539 0.00403 0.53689 0.0
O143 O 0.17818 0.93578 0.51825 0.0
Cd144 Cd 0.23033 0.98695 0.52172 0.0
C145 C 0.21611 -0.00093 0.63573 0.0
O146 O 0.21411 0.01858 0.47734 0.0
O147 O 0.25657 0.04586 0.51723 0.0
O148 O 0.24914 0.9704 0.4529 0.0
C149 C 0.23681 0.0455 0.48757 0.0
O150 O 0.19757 0.00667 0.61567 0.0
C151 C 0.27581 0.97817 0.47069 0.0
O152 O 0.23089 0.98889 0.61077 0.0
O153 O 0.28051 0.98783 0.51399 0.0
C154 C 0.06055 0.21717 0.52242 0.0
O155 O 0.03982 0.18859 0.52932 0.0
Cd156 Cd 0.98547 0.1677 0.54125 0.0
O157 O 0.05295 0.23851 0.51936 0.0
Cd158 Cd 0.00202 0.23965 0.524 0.0
C159 C -0.00719 0.21511 0.63905 0.0
O160 O 0.96999 0.1911 0.48133 0.0
O161 O 0.94317 0.20706 0.52046 0.0
O162 O 0.01805 0.27448 0.45426 0.0
C163 C 0.94326 0.18719 0.49147 0.0
O164 O 0.98528 0.18867 0.61997 0.0
C165 C 0.01073 0.29377 0.47183 0.0
O166 O 0.00151 0.23955 0.6131 0.0
O167 O 0.00143 0.28919 0.51528 0.0
C168 C 0.81267 0.55052 0.35404 0.0
O169 O 0.80496 0.52196 0.3607 0.0
Cd170 Cd 0.83878 0.50152 0.37302 0.0
O171 O 0.84156 0.57199 0.35121 0.0
Cd172 Cd 0.8939 0.57367 0.3557 0.0
C173 C 0.87857 0.54946 0.47073 0.0
O174 O 0.8777 0.52514 0.31338 0.0
O175 O 0.9205 0.54138 0.3528 0.0
O176 O 0.91214 0.60831 0.28575 0.0
C177 C 0.9006 0.52138 0.32382 0.0
O178 O 0.85975 0.52294 0.45172 0.0
C179 C 0.93877 0.62784 0.30315 0.0
O180 O 0.89433 0.57385 0.44472 0.0
O181 O 0.94376 0.62344 0.34661 0.0
C182 C 0.43473 0.26144 0.35369 0.0
O183 O 0.4632 0.28236 0.36048 0.0
Cd184 Cd 0.48412 0.33691 0.37139 0.0
O185 O 0.41333 0.26888 0.35044 0.0
Cd186 Cd 0.41226 0.32003 0.35499 0.0
C187 C 0.43754 0.3302 0.46971 0.0
O188 O 0.46032 0.35179 0.31142 0.0
O189 O 0.44513 0.37904 0.35113 0.0
O190 O 0.37697 0.30389 0.28586 0.0
C191 C 0.46456 0.3787 0.32161 0.0
O192 O 0.46385 0.33792 0.45026 0.0
C193 C 0.35805 0.31155 0.30377 0.0
O194 O 0.41292 0.32089 0.44409 0.0
O195 O 0.36302 0.32102 0.34716 0.0
C196 C 0.72872 0.17482 0.35667 0.0
O197 O 0.70844 0.18317 0.36332 0.0
Cd198 Cd 0.65368 0.15063 0.37326 0.0
O199 O 0.72049 0.14572 0.35309 0.0
Cd200 Cd 0.6688 0.09416 0.35681 0.0
C201 C 0.65823 0.10905 0.47139 0.0
O202 O 0.63791 0.11172 0.31348 0.0
O203 O 0.61013 0.06874 0.35218 0.0
O204 O 0.68448 0.07499 0.28741 0.0
C205 C 0.61088 0.08913 0.32334 0.0
O206 O 0.65132 0.12827 0.45181 0.0
C207 C 0.67654 0.04817 0.30501 0.0
O208 O 0.6673 0.09349 0.44595 0.0
O209 O 0.66707 0.04348 0.34839 0.0
C210 C 0.88205 0.48371 0.79394 0.0
O211 O 0.85348 0.47565 0.78724 0.0
Cd212 Cd 0.83182 0.50867 0.77711 0.0
O213 O 0.90316 0.51275 0.79742 0.0
Cd214 Cd 0.90357 0.56458 0.79346 0.0
C215 C 0.87789 0.54988 0.67891 0.0
O216 O 0.8553 0.5476 0.83683 0.0
O217 O 0.87068 0.5904 0.79752 0.0
O218 O 0.93862 0.58377 0.8628 0.0
C219 C 0.85106 0.57028 0.82663 0.0
O220 O 0.8517 0.53091 0.69848 0.0
C221 C 0.9576 0.6105 0.84502 0.0
O222 O 0.90263 0.56516 0.70436 0.0
O223 O 0.95276 0.6151 0.80159 0.0
C224 C 0.50298 0.39671 0.79401 0.0
O225 O 0.51062 0.37586 0.78728 0.0
Cd226 Cd 0.47695 0.32132 0.77603 0.0
O227 O 0.47412 0.38917 0.79717 0.0
Cd228 Cd 0.42183 0.33813 0.79286 0.0
C229 C 0.43682 0.32839 0.67799 0.0
O230 O 0.43831 0.30632 0.83593 0.0
O231 O 0.39549 0.2791 0.79685 0.0
O232 O 0.40345 0.35463 0.86231 0.0
C233 C 0.41552 0.27942 0.82592 0.0
O234 O 0.45555 0.32076 0.69729 0.0
C235 C 0.37677 0.34714 0.84484 0.0
O236 O 0.42137 0.3374 0.70375 0.0
O237 O 0.37181 0.33749 0.80153 0.0
C238 C 0.58997 0.10614 0.79501 0.0
O239 O 0.61071 0.13477 0.78859 0.0
Cd240 Cd 0.66517 0.15591 0.7777 0.0
O241 O 0.59759 0.08483 0.79822 0.0
Cd242 Cd 0.64869 0.08393 0.79446 0.0
C243 C 0.6584 0.10888 0.67967 0.0
O244 O 0.68047 0.13237 0.83757 0.0
O245 O 0.70748 0.11676 0.79821 0.0
O246 O 0.63268 0.04892 0.86401 0.0
C247 C 0.70726 0.13645 0.82741 0.0
O248 O 0.66586 0.13524 0.69897 0.0
C249 C 0.64022 0.02981 0.84634 0.0
O250 O 0.64955 0.08432 0.7054 0.0
O251 O 0.64956 0.03454 0.80291 0.0
C252 C 0.50554 0.10823 0.29387 0.0
O253 O 0.51327 0.13676 0.28682 0.0
Cd254 Cd 0.47946 0.1572 0.27447 0.0
O255 O 0.47664 0.08681 0.29697 0.0
Cd256 Cd 0.42436 0.08525 0.29239 0.0
C257 C 0.43932 0.10913 0.17714 0.0
O258 O 0.44079 0.13389 0.33459 0.0
O259 O 0.39787 0.11764 0.29552 0.0
O260 O 0.40607 0.05066 0.36242 0.0
C261 C 0.41786 0.13764 0.3244 0.0
O262 O 0.45823 0.13569 0.19592 0.0
C263 C 0.37944 0.03114 0.34502 0.0
O264 O 0.42365 0.08483 0.20337 0.0
O265 O 0.37447 0.03554 0.30156 0.0
C266 C 0.88343 0.39737 0.29595 0.0
O267 O 0.85491 0.37648 0.28943 0.0
Cd268 Cd 0.8339 0.32195 0.27837 0.0
O269 O 0.9048 0.38987 0.29903 0.0
Cd270 Cd 0.90574 0.33865 0.29466 0.0
C271 C 0.88058 0.32896 0.17996 0.0
O272 O 0.85767 0.30693 0.33817 0.0
O273 O 0.87277 0.27965 0.2983 0.0
O274 O 0.94085 0.35471 0.36398 0.0
C275 C 0.8534 0.28001 0.32791 0.0
O276 O 0.85431 0.32135 0.19943 0.0
C277 C 0.95971 0.34688 0.34634 0.0
O278 O 0.90516 0.33793 0.20555 0.0
O279 O 0.95485 0.33742 0.30294 0.0
C280 C 0.58932 0.4839 0.29346 0.0
O281 O 0.60962 0.47555 0.28691 0.0
Cd282 Cd 0.66438 0.50807 0.27687 0.0
O283 O 0.59754 0.513 0.29693 0.0
Cd284 Cd 0.64921 0.56459 0.29319 0.0
C285 C 0.65965 0.54952 0.17866 0.0
O286 O 0.68024 0.54714 0.33634 0.0
O287 O 0.70789 0.59007 0.29746 0.0
O288 O 0.63359 0.58375 0.36266 0.0
C289 C 0.70724 0.56971 0.32624 0.0
O290 O 0.66661 0.53035 0.1983 0.0
C291 C 0.64148 0.61057 0.34506 0.0
O292 O 0.65058 0.5651 0.20406 0.0
O293 O 0.6509 0.61526 0.30165 0.0
C294 C 0.43448 0.17376 0.85383 0.0
O295 O 0.4631 0.18187 0.86018 0.0
Cd296 Cd 0.48488 0.14894 0.8703 0.0
O297 O 0.41336 0.14471 0.85064 0.0
Cd298 Cd 0.41298 0.0929 0.85462 0.0
C299 C 0.43907 0.108 0.96894 0.0
O300 O 0.46116 0.10971 0.81109 0.0
O301 O 0.44577 0.06699 0.85061 0.0
O302 O 0.37782 0.07371 0.78543 0.0
C303 C 0.46541 0.08706 0.82147 0.0
O304 O 0.46518 0.12693 0.9491 0.0
C305 C 0.35882 0.04701 0.80329 0.0
O306 O 0.41424 0.0926 0.94373 0.0
O307 O 0.3637 0.04243 0.84671 0.0
C308 C 0.81358 0.26074 0.85656 0.0
O309 O 0.80591 0.28156 0.86338 0.0
Cd310 Cd 0.83957 0.33621 0.87374 0.0
O311 O 0.84244 0.26833 0.85302 0.0
Cd312 Cd 0.89461 0.31948 0.85684 0.0
C313 C 0.88032 0.33017 0.97167 0.0
O314 O 0.87795 0.35107 0.81342 0.0
O315 O 0.92084 0.37846 0.85226 0.0
O316 O 0.91301 0.30292 0.78748 0.0
C317 C 0.90078 0.37801 0.82316 0.0
O318 O 0.86154 0.33772 0.95235 0.0
C319 C 0.93971 0.3105 0.80495 0.0
O320 O 0.89546 0.32076 0.94597 0.0
O321 O 0.94467 0.3202 0.84823 0.0
C322 C 0.72665 0.55134 0.85444 0.0
O323 O 0.70593 0.52274 0.86118 0.0
Cd324 Cd 0.65154 0.50166 0.87264 0.0
O325 O 0.71904 0.57265 0.85123 0.0
Cd326 Cd 0.668 0.57364 0.85546 0.0
C327 C 0.65878 0.54906 0.97042 0.0
O328 O 0.63614 0.5251 0.81274 0.0
O329 O 0.60916 0.54081 0.85198 0.0
O330 O 0.68385 0.60857 0.78583 0.0
C331 C 0.60935 0.52103 0.82294 0.0
O332 O 0.65126 0.52263 0.95132 0.0
C333 C 0.67643 0.62774 0.8036 0.0
O334 O 0.66748 0.57352 0.9445 0.0
O335 O 0.66718 0.62305 0.84708 0.0
C336 C 0.47937 0.8853 0.68767 0.0
O337 O 0.47168 0.85676 0.69457 0.0
Cd338 Cd 0.5053 0.83616 0.70695 0.0
O339 O 0.50827 0.90678 0.68473 0.0
Cd340 Cd 0.5605 0.90818 0.68971 0.0
C341 C 0.54497 0.88397 0.80476 0.0
O342 O 0.54413 0.85968 0.64718 0.0
O343 O 0.58671 0.87549 0.68696 0.0
O344 O 0.5793 0.94292 0.61987 0.0
C345 C 0.56687 0.85572 0.65768 0.0
O346 O 0.52617 0.85746 0.78572 0.0
C347 C 0.60596 0.96218 0.63747 0.0
O348 O 0.56079 0.90836 0.77877 0.0
O349 O 0.61068 0.95765 0.68099 0.0
C350 C 0.09983 0.59258 0.68799 0.0
O351 O 0.12838 0.61327 0.69481 0.0
Cd352 Cd 0.14982 0.66789 0.70579 0.0
O353 O 0.07866 0.60033 0.6845 0.0
Cd354 Cd 0.07807 0.6517 0.68846 0.0
C355 C 0.10271 0.66124 0.80341 0.0
O356 O 0.12651 0.68326 0.64574 0.0
O357 O 0.1112 0.71067 0.68478 0.0
O358 O 0.0433 0.63592 0.61875 0.0
C359 C 0.13084 0.71022 0.65583 0.0
O360 O 0.12903 0.66862 0.78433 0.0
C361 C 0.02435 0.64366 0.63632 0.0
O362 O 0.0783 0.65248 0.7775 0.0
O363 O 0.02904 0.65299 0.67978 0.0
C364 C 0.39305 0.50822 0.68891 0.0
O365 O 0.3725 0.51624 0.69527 0.0
Cd366 Cd 0.31785 0.48306 0.70558 0.0
O367 O 0.38518 0.47919 0.68579 0.0
Cd368 Cd 0.33391 0.4272 0.68976 0.0
C369 C 0.32323 0.44228 0.80416 0.0
O370 O 0.30243 0.44394 0.64619 0.0
O371 O 0.27518 0.40102 0.68528 0.0
O372 O 0.35013 0.40831 0.62065 0.0
C373 C 0.27556 0.42114 0.65625 0.0
O374 O 0.31599 0.4612 0.78441 0.0
C375 C 0.34255 0.38161 0.63842 0.0
O376 O 0.3325 0.42682 0.77886 0.0
O377 O 0.33299 0.37688 0.68175 0.0
C378 C 0.54795 0.81752 0.12739 0.0
O379 O 0.51938 0.80943 0.1206 0.0
Cd380 Cd 0.49766 0.84244 0.1108 0.0
O381 O 0.56902 0.84656 0.13116 0.0
Cd382 Cd 0.56944 0.89838 0.12766 0.0
C383 C 0.5439 0.88407 0.01296 0.0
O384 O 0.52107 0.88114 0.17088 0.0
O385 O 0.53657 0.92422 0.13233 0.0
O386 O 0.60439 0.91719 0.19715 0.0
C387 C 0.51684 0.90387 0.16107 0.0
O388 O 0.51769 0.86501 0.03239 0.0
C389 C 0.62351 0.94395 0.17957 0.0
O390 O 0.56859 0.89928 0.03853 0.0
O391 O 0.61874 0.94876 0.13621 0.0
C392 C 0.16867 0.73055 0.12648 0.0
O393 O 0.17633 0.70968 0.12016 0.0
Cd394 Cd 0.14269 0.65498 0.11023 0.0
O395 O 0.13981 0.723 0.12972 0.0
Cd396 Cd 0.08766 0.67183 0.12596 0.0
C397 C 0.10223 0.6607 0.01163 0.0
O398 O 0.10398 0.64014 0.16996 0.0
O399 O 0.06139 0.6129 0.13032 0.0
O400 O 0.06896 0.68836 0.19495 0.0
C401 C 0.08121 0.61324 0.15985 0.0
O402 O 0.12088 0.65315 0.03141 0.0
C403 C 0.04227 0.68062 0.17727 0.0
O404 O 0.0871 0.67034 0.0369 0.0
O405 O 0.0375 0.67094 0.13397 0.0
C406 C 0.25547 0.44012 0.12837 0.0
O407 O 0.27616 0.46873 0.12161 0.0
Cd408 Cd 0.33059 0.4899 0.11029 0.0
O409 O 0.26311 0.41883 0.1316 0.0
Cd410 Cd 0.31417 0.41793 0.12735 0.0
C411 C 0.32369 0.44271 0.01242 0.0
O412 O 0.34598 0.46645 0.17019 0.0
O413 O 0.37298 0.45072 0.13104 0.0
O414 O 0.29832 0.38299 0.19695 0.0
C415 C 0.37277 0.4705 0.16006 0.0
O416 O 0.33116 0.46912 0.03159 0.0
C417 C 0.30577 0.36383 0.17921 0.0
O418 O 0.31488 0.41822 0.03828 0.0
O419 O 0.31501 0.36852 0.13572 0.0
C420 C 0.16948 0.43911 0.62801 0.0
O421 O 0.17714 0.46768 0.62165 0.0
Cd422 Cd 0.14344 0.48841 0.61079 0.0
O423 O 0.14061 0.41761 0.63101 0.0
Cd424 Cd 0.08838 0.41617 0.62693 0.0
C425 C 0.10329 0.44159 0.51239 0.0
O426 O 0.10455 0.46438 0.67031 0.0
O427 O 0.06197 0.44858 0.63049 0.0
O428 O 0.06986 0.38116 0.69642 0.0
C429 C 0.08174 0.46828 0.65991 0.0
O430 O 0.12198 0.46794 0.53197 0.0
C431 C 0.04317 0.3619 0.67891 0.0
O432 O 0.08792 0.41684 0.53786 0.0
O433 O 0.03831 0.36654 0.6355 0.0
C434 C 0.54874 0.73142 0.6289 0.0
O435 O 0.52018 0.71074 0.62208 0.0
Cd436 Cd 0.49868 0.65611 0.611 0.0
O437 O 0.56991 0.72366 0.63217 0.0
Cd438 Cd 0.57043 0.67226 0.62766 0.0
C439 C 0.54533 0.66259 0.51285 0.0
O440 O 0.52213 0.64074 0.67082 0.0
O441 O 0.53731 0.61329 0.63157 0.0
O442 O 0.60557 0.6881 0.69694 0.0
C443 C 0.51777 0.61376 0.66071 0.0
O444 O 0.51907 0.65516 0.5322 0.0
C445 C 0.62444 0.68035 0.67907 0.0
O446 O 0.56985 0.67148 0.53855 0.0
O447 O 0.6195 0.67094 0.63565 0.0
C448 C 0.25555 0.81583 0.62777 0.0
O449 O 0.27611 0.80784 0.62111 0.0
Cd450 Cd 0.33055 0.84112 0.6094 0.0
O451 O 0.26339 0.84486 0.63077 0.0
Cd452 Cd 0.31461 0.89693 0.6263 0.0
C453 C 0.32356 0.88139 0.51143 0.0
O454 O 0.34637 0.88023 0.66896 0.0
O455 O 0.37343 0.92305 0.62957 0.0
O456 O 0.29892 0.91585 0.696 0.0
C457 C 0.37318 0.903 0.6586 0.0
O458 O 0.33091 0.86239 0.53063 0.0
C459 C 0.30642 0.94255 0.67834 0.0
O460 O 0.31505 0.89725 0.53727 0.0
O461 O 0.31566 0.94726 0.63485 0.0
C462 C 0.09986 0.5075 0.18872 0.0
O463 O 0.12845 0.51562 0.19542 0.0
Cd464 Cd 0.15012 0.48269 0.2061 0.0
O465 O 0.07877 0.47845 0.18531 0.0
Cd466 Cd 0.0784 0.42661 0.18938 0.0
C467 C 0.1036 0.44174 0.30412 0.0
O468 O 0.12678 0.44373 0.14637 0.0
O469 O 0.11143 0.40093 0.18564 0.0
O470 O 0.04353 0.40734 0.11982 0.0
C471 C 0.13106 0.42109 0.15658 0.0
O472 O 0.12982 0.46083 0.28476 0.0
C473 C 0.02459 0.38058 0.13756 0.0
O474 O 0.07903 0.42608 0.27847 0.0
O475 O 0.02933 0.37602 0.18106 0.0
C476 C 0.47923 0.59474 0.18906 0.0
O477 O 0.47164 0.61563 0.19569 0.0
Cd478 Cd 0.5054 0.67023 0.20629 0.0
O479 O 0.50808 0.60223 0.18581 0.0
Cd480 Cd 0.56035 0.65325 0.18989 0.0
C481 C 0.5457 0.66379 0.30456 0.0
O482 O 0.54394 0.68495 0.14628 0.0
O483 O 0.58674 0.71224 0.18539 0.0
O484 O 0.57889 0.63661 0.12078 0.0
C485 C 0.56677 0.71187 0.15614 0.0
O486 O 0.52702 0.67143 0.28508 0.0
C487 C 0.60551 0.6441 0.13849 0.0
O488 O 0.56093 0.65442 0.27898 0.0
O489 O 0.61036 0.65381 0.18176 0.0
C490 C 0.3923 0.88471 0.18832 0.0
O491 O 0.3715 0.85608 0.1946 0.0
Cd492 Cd 0.31692 0.83489 0.20468 0.0
O493 O 0.38472 0.90604 0.18513 0.0
Cd494 Cd 0.33369 0.90697 0.18883 0.0
C495 C 0.32265 0.88107 0.30322 0.0
O496 O 0.30191 0.85879 0.14498 0.0
O497 O 0.27493 0.87443 0.1844 0.0
O498 O 0.35016 0.94246 0.1199 0.0
C499 C 0.27513 0.85478 0.15507 0.0
O500 O 0.31511 0.85479 0.28353 0.0
C501 C 0.34261 0.96151 0.13776 0.0
O502 O 0.33223 0.9059 0.27786 0.0
O503 O 0.33302 0.9565 0.18106 0.0
C504 C 0.3557 0.34818 0.9262 0.0
C505 C 0.35098 0.34382 0.8762 0.0
H506 H 0.33446 0.33677 -0.00403 0.0
C507 C 0.32027 0.33047 0.85806 0.0
H508 H 0.37911 0.35885 0.94134 0.0
C509 C 0.29464 0.31795 0.88946 0.0
C510 C 0.29932 0.31844 0.93949 0.0
H511 H 0.31586 0.32723 0.8197 0.0
H512 H 0.27121 0.3054 0.87432 0.0
C513 C 0.33007 0.33552 0.9576 0.0
C514 C 0.6399 0.00774 0.92762 0.0
C515 C 0.64394 0.00741 0.87756 0.0
H516 H 0.65172 -0.00211 -0.00284 0.0
C517 C 0.65735 0.99021 0.85911 0.0
H518 H 0.62923 0.02039 0.94301 0.0
C519 C 0.67012 0.97715 0.89023 0.0
C520 C 0.66983 0.98123 0.9403 0.0
H521 H 0.66037 0.98908 0.8207 0.0
H522 H 0.68261 0.96633 0.87484 0.0
C523 C 0.65281 0.99483 0.95875 0.0
C524 C -0.00743 0.65816 0.95729 0.0
C525 C 0.00588 0.68886 0.93882 0.0
H526 H 0.96735 0.60889 0.9416 0.0
C527 C 0.00982 0.69332 0.88874 0.0
H528 H 0.98964 0.65395 -0.00429 0.0
C529 C -0.00312 0.66745 0.85763 0.0
C530 C 0.97994 0.63673 0.87613 0.0
H531 H 0.02042 0.71671 0.87334 0.0
H532 H -0.00213 0.67165 0.81923 0.0
C533 C 0.97978 0.6323 0.92618 0.0
C534 C 0.32554 0.32483 0.62576 0.0
C535 C 0.33906 0.35556 0.60735 0.0
H536 H 0.30039 0.27558 0.60986 0.0
C537 C 0.34348 0.36009 0.55735 0.0
H538 H 0.32224 0.32055 0.66414 0.0
C539 C 0.33078 0.33428 0.52615 0.0
C540 C 0.31363 0.30353 0.54448 0.0
H541 H 0.35427 0.38351 0.54201 0.0
H542 H 0.33215 0.33855 0.48773 0.0
C543 C 0.313 0.29901 0.59456 0.0
C544 C 0.66266 0.00178 0.62455 0.0
C545 C 0.63201 0.98447 0.60612 0.0
H546 H 0.71179 0.02549 0.60884 0.0
C547 C 0.62755 0.98386 0.55603 0.0
H548 H 0.66689 0.00314 0.66297 0.0
C549 C 0.65332 -0.00345 0.52491 0.0
C550 C 0.68397 0.01019 0.54341 0.0
H551 H 0.60419 0.97113 0.54066 0.0
H552 H 0.64909 0.99323 0.48652 0.0
C553 C 0.68844 0.01462 0.59342 0.0
C554 C 0.99052 0.65738 0.5237 0.0
C555 C 0.97732 0.67478 0.54215 0.0
H556 H 0.01526 0.63299 0.53952 0.0
C557 C 0.97292 0.67482 0.59216 0.0
H558 H -0.00621 0.65646 0.48532 0.0
C559 C 0.98539 0.66148 0.62332 0.0
C560 C 0.0023 0.64776 0.60495 0.0
H561 H 0.96237 0.68758 0.60753 0.0
H562 H 0.98409 0.66436 0.66174 0.0
C563 C 0.00284 0.6439 0.55486 0.0
C564 C 0.62685 0.64299 0.05738 0.0
C565 C 0.6314 0.64738 0.1074 0.0
H566 H 0.64832 0.65432 0.98777 0.0
C567 C 0.66205 0.66073 0.1258 0.0
H568 H 0.60349 0.63233 0.04204 0.0
C569 C 0.68778 0.6732 0.0946 0.0
C570 C 0.68328 0.67267 0.04453 0.0
H571 H 0.66633 0.66399 0.16418 0.0
H572 H 0.71116 0.68573 0.10992 0.0
C573 C 0.65258 0.65561 0.02619 0.0
C574 C 0.32535 0.00101 0.12518 0.0
C575 C 0.3391 0.98413 0.10677 0.0
H576 H 0.29985 0.02464 0.10928 0.0
C577 C 0.34364 0.98424 0.05678 0.0
H578 H 0.32194 0.0018 0.16355 0.0
C579 C 0.33082 -0.00279 0.02558 0.0
C580 C 0.31341 0.01041 0.0439 0.0
H581 H 0.35461 0.97186 0.04144 0.0
H582 H 0.33229 0.99447 0.98716 0.0
C583 C 0.31266 0.01412 0.09399 0.0
C584 C 0.9855 0.32358 0.12494 0.0
C585 C 0.00245 0.35428 0.10637 0.0
H586 H 0.96216 0.2743 0.10943 0.0
C587 C 0.00285 0.35863 0.05627 0.0
H588 H 0.98432 0.31944 0.16338 0.0
C589 C 0.99029 0.33272 0.02525 0.0
C590 C 0.97697 0.30206 0.04387 0.0
H591 H 0.0153 0.38202 0.04079 0.0
H592 H -0.00658 0.33688 0.98684 0.0
C593 C 0.97278 0.29767 0.09392 0.0
C594 C 0.65926 0.66751 0.35805 0.0
C595 C 0.64548 0.63674 0.37635 0.0
H596 H 0.68503 0.71673 0.37404 0.0
C597 C 0.64128 0.63218 0.42638 0.0
H598 H 0.66242 0.67181 0.31966 0.0
C599 C 0.6544 0.65797 0.45764 0.0
C600 C 0.67179 0.68871 0.43936 0.0
H601 H 0.63031 0.60873 0.44165 0.0
H602 H 0.65317 0.65365 0.49604 0.0
C603 C 0.67224 0.6933 0.38931 0.0
C604 C 0.29734 0.9775 0.38957 0.0
C605 C 0.30191 0.982 0.43957 0.0
H606 H 0.31867 0.98932 0.31988 0.0
C607 C 0.33264 -0.00386 0.45786 0.0
H608 H 0.27393 0.96624 0.37432 0.0
C609 C 0.35832 0.00926 0.42656 0.0
C610 C 0.35367 0.00857 0.37651 0.0
H611 H 0.33695 -0.00047 0.49622 0.0
H612 H 0.3817 0.02236 0.44178 0.0
C613 C 0.32302 0.99076 0.35828 0.0
C614 C -0.00138 0.32897 0.35925 0.0
C615 C 0.98185 0.34285 0.3776 0.0
H616 H 0.02177 0.30301 0.37515 0.0
C617 C 0.98159 0.34701 0.42765 0.0
H618 H -0.00032 0.32583 0.32085 0.0
C619 C -0.00589 0.33375 0.45887 0.0
C620 C 0.00725 0.31628 0.44051 0.0
H621 H 0.96928 0.35805 0.44296 0.0
H622 H 0.9911 0.33495 0.49726 0.0
C623 C 0.0113 0.31586 0.39046 0.0
C624 C 0.9855 0.6628 0.19025 0.0
C625 C 0.01624 0.67685 0.20847 0.0
H626 H 0.93645 0.6367 0.20643 0.0
C627 C 0.02086 0.68134 0.25846 0.0
H628 H 0.98115 0.65942 0.1519 0.0
C629 C -0.0048 0.66815 0.28981 0.0
C630 C 0.96453 0.65041 0.27165 0.0
H631 H 0.04428 0.69254 0.27366 0.0
H632 H -0.00041 0.66957 0.3282 0.0
C633 C 0.95984 0.64975 0.22161 0.0
C634 C 0.33567 0.31111 0.22275 0.0
C635 C 0.33562 0.31533 0.27281 0.0
H636 H 0.32566 0.32293 0.15332 0.0
C637 C 0.31873 0.329 0.29145 0.0
H638 H 0.34807 0.30023 0.20723 0.0
C639 C 0.30571 0.34188 0.26046 0.0
C640 C 0.30954 0.34144 0.21036 0.0
H641 H 0.31782 0.33216 0.32987 0.0
H642 H 0.29515 0.3546 0.27597 0.0
C643 C 0.3228 0.32415 0.19176 0.0
C644 C 0.66339 0.00069 0.19248 0.0
C645 C 0.64601 0.96996 0.21084 0.0
H646 H 0.68757 0.04993 0.20837 0.0
C647 C 0.64567 0.96541 0.26088 0.0
H648 H 0.66454 0.00497 0.15408 0.0
C649 C 0.65874 0.99122 0.2921 0.0
C650 C 0.67251 0.02198 0.27374 0.0
H651 H 0.6329 0.94199 0.27619 0.0
H652 H 0.65567 0.98696 0.33049 0.0
C653 C 0.67662 0.02649 0.22369 0.0
C654 C 0.30636 0.96422 0.75968 0.0
C655 C 0.31024 0.96866 0.7096 0.0
H656 H 0.31847 0.98589 0.82918 0.0
C657 C 0.32357 -0.00064 0.69112 0.0
H658 H 0.29574 0.94082 0.77509 0.0
C659 C 0.33646 0.02523 0.72221 0.0
C660 C 0.33637 0.02081 0.77226 0.0
H661 H 0.32645 0.00356 0.65269 0.0
H662 H 0.34891 0.04863 0.70678 0.0
C663 C 0.31941 0.99009 0.79077 0.0
C664 C 0.0219 0.34 0.76037 0.0
C665 C 0.01722 0.33953 0.71035 0.0
H666 H 0.00066 0.33059 0.83012 0.0
C667 C 0.98649 0.32236 0.69221 0.0
H668 H 0.04532 0.35261 0.77552 0.0
C669 C 0.96085 0.30957 0.7236 0.0
C670 C 0.96555 0.31391 0.7736 0.0
H671 H 0.9821 0.32111 0.65384 0.0
H672 H 0.93744 0.29884 0.70843 0.0
C673 C -0.00374 0.32736 0.79176 0.0
C674 C 0.65946 0.66748 0.7911 0.0
C675 C 0.67272 0.65019 0.77248 0.0
H676 H 0.63426 0.69147 0.77567 0.0
C677 C 0.67661 0.64982 0.72238 0.0
H678 H 0.65656 0.66864 0.82955 0.0
C679 C 0.66367 0.66279 0.69141 0.0
C680 C 0.64677 0.67646 0.71006 0.0
H681 H 0.68717 0.63711 0.70687 0.0
H682 H 0.66463 0.65969 0.65298 0.0
C683 C 0.64666 0.68059 0.76013 0.0
C684 C 0.20375 0.10763 0.94182 0.0
C685 C 0.22396 0.0987 0.96332 0.0
H686 H 0.19166 0.14332 0.93236 0.0
C687 C 0.2499 0.12116 0.98985 0.0
H688 H 0.18385 0.09107 0.92044 0.0
C689 C 0.25433 0.15145 -0.00298 0.0
C690 C 0.23304 0.15969 0.97733 0.0
H691 H 0.2659 0.11493 0.00668 0.0
H692 H 0.27371 0.16798 0.01924 0.0
C693 C 0.2083 0.1377 0.94853 0.0
C694 C 0.88151 0.09429 0.94622 0.0
C695 C 0.8902 0.12383 0.9662 0.0
H696 H 0.84592 0.0463 0.93761 0.0
C697 C 0.86751 0.1277 0.99105 0.0
H698 H 0.89825 0.0906 0.92619 0.0
C699 C 0.83716 0.1019 -0.00202 0.0
C700 C 0.82908 0.07204 0.97968 0.0
H701 H 0.87354 0.15024 0.00672 0.0
H702 H 0.8204 0.10511 0.01882 0.0
C703 C 0.85138 0.06883 0.95265 0.0
C704 C 0.89078 0.78489 0.94561 0.0
C705 C 0.86161 0.76408 0.96655 0.0
H706 H 0.93863 0.7976 0.93598 0.0
C707 C 0.85825 0.73783 -0.00788 0.0
H708 H 0.89406 0.80506 0.92498 0.0
C709 C 0.88422 0.73362 -0.0012 0.0
C710 C 0.91373 0.75542 0.97953 0.0
H711 H 0.836 0.72137 0.00851 0.0
H712 H 0.88144 0.71393 0.02021 0.0
C713 C 0.91639 0.78054 0.95179 0.0
C714 C 0.13234 0.20863 0.53153 0.0
C715 C 0.15466 0.23436 0.50464 0.0
H716 H 0.08551 0.18331 0.55818 0.0
C717 C 0.14667 0.25626 0.48666 0.0
H718 H 0.13773 0.19146 0.54632 0.0
C719 C 0.11639 0.25164 0.49381 0.0
C720 C 0.09366 0.22489 0.51859 0.0
H721 H 0.16346 0.2764 0.46592 0.0
H722 H 0.11043 0.26825 0.47843 0.0
C723 C 0.10227 0.2039 0.53821 0.0
C724 C 0.73425 0.86232 0.49492 0.0
C725 C 0.76027 0.86611 0.52144 0.0
H726 H 0.71012 0.88494 0.46561 0.0
C727 C 0.78021 0.89531 0.54319 0.0
H728 H 0.71844 0.84003 0.47788 0.0
C729 C 0.77536 0.92065 0.53664 0.0
C730 C 0.75059 0.91764 0.50775 0.0
H731 H 0.80017 0.89888 0.56455 0.0
H732 H 0.79183 0.94299 0.55294 0.0
C733 C 0.72952 0.888 0.48791 0.0
C734 C 0.10081 0.84201 0.4863 0.0
C735 C 0.07129 0.83433 0.50524 0.0
H736 H 0.14915 0.87799 0.47691 0.0
C737 C 0.06877 0.85678 0.53308 0.0
H738 H 0.1035 0.82511 0.46483 0.0
C739 C 0.09454 0.88676 0.53953 0.0
C740 C 0.1237 0.89513 0.51873 0.0
H741 H 0.04652 0.85161 0.54866 0.0
H742 H 0.09137 0.9037 0.56009 0.0
C743 C 0.12692 0.8722 0.49322 0.0
C744 C 0.73326 0.86998 -0.00776 0.0
C745 C 0.75909 0.89238 0.01903 0.0
H746 H 0.70955 0.82319 0.96266 0.0
C747 C 0.77917 0.88338 0.0408 0.0
H748 H 0.71737 0.87627 0.97518 0.0
C749 C 0.77461 0.8533 0.03411 0.0
C750 C 0.75 0.83137 0.00506 0.0
H751 H 0.79899 0.89989 0.06237 0.0
H752 H 0.79115 0.84763 0.05053 0.0
C753 C 0.72883 0.83967 0.98508 0.0
C754 C 0.14624 0.88929 0.984 0.0
C755 C 0.15426 0.91917 0.00219 0.0
H756 H 0.10992 0.8409 0.97546 0.0
C757 C 0.1319 0.92238 0.02902 0.0
H758 H 0.16305 0.88609 0.96331 0.0
C759 C 0.1018 0.89691 0.03547 0.0
C760 C 0.09317 0.86733 0.01569 0.0
H761 H 0.13731 0.94492 0.04398 0.0
H762 H 0.08504 0.90061 0.05544 0.0
C763 C 0.1159 0.86346 0.99095 0.0
C764 C 0.09227 0.20579 0.04047 0.0
C765 C 0.12153 0.22677 0.01992 0.0
H766 H 0.04432 0.19294 0.04959 0.0
C767 C 0.12499 0.25319 -0.00522 0.0
H768 H 0.08891 0.18546 0.06074 0.0
C769 C 0.09904 0.25741 0.98803 0.0
C770 C 0.06943 0.23544 0.00678 0.0
H771 H 0.1473 0.26978 0.97869 0.0
H772 H 0.10192 0.27723 0.96689 0.0
C773 C 0.06665 0.21014 0.0342 0.0
C774 C 0.88393 0.78873 0.44526 0.0
C775 C 0.89235 0.76743 0.46418 0.0
H776 H 0.84858 0.80138 0.43764 0.0
C777 C 0.86943 0.74038 0.48815 0.0
H778 H 0.90084 0.80957 0.42595 0.0
C779 C 0.83913 0.73574 0.49521 0.0
C780 C 0.8313 0.75792 0.47793 0.0
H781 H 0.87523 0.72352 0.50299 0.0
H782 H 0.82219 0.71534 0.51532 0.0
C783 C 0.85383 0.78397 0.45184 0.0
C784 C 0.25148 0.12934 0.48942 0.0
C785 C 0.22535 0.1256 0.46328 0.0
H786 H 0.27575 0.10667 0.51796 0.0
C787 C 0.20533 0.09645 0.44144 0.0
H788 H 0.26734 0.15159 0.50649 0.0
C789 C 0.21023 0.07111 0.4475 0.0
C790 C 0.23513 0.07407 0.47599 0.0
H791 H 0.18529 0.09292 0.42034 0.0
H792 H 0.19372 0.04881 0.43112 0.0
C793 C 0.25625 0.10365 0.49596 0.0
C794 C 0.88491 0.14941 0.49838 0.0
C795 C 0.9145 0.15715 0.47964 0.0
H796 H 0.83653 0.11341 0.50723 0.0
C797 C 0.91713 0.13476 0.45179 0.0
H798 H 0.88215 0.16625 0.51984 0.0
C799 C 0.89138 0.10481 0.44502 0.0
C800 C 0.86213 0.0964 0.46552 0.0
H801 H 0.93944 0.13998 0.43637 0.0
H802 H 0.89464 0.08795 0.4244 0.0
C803 C 0.85883 0.11924 0.49114 0.0
C804 C 0.8745 0.46892 0.28431 0.0
C805 C 0.89939 0.49134 0.31241 0.0
H806 H 0.85025 0.42207 0.2571 0.0
C807 C 0.92113 0.4836 0.33179 0.0
H808 H 0.85751 0.47413 0.26839 0.0
C809 C 0.91703 0.4534 0.32495 0.0
C810 C 0.89097 0.43053 0.29909 0.0
H811 H 0.94064 0.50047 0.35347 0.0
H812 H 0.93339 0.44757 0.34152 0.0
C813 C 0.87027 0.43895 0.27794 0.0
C814 C 0.54673 0.42963 0.27471 0.0
C815 C 0.55598 0.45883 0.29641 0.0
H816 H 0.51068 0.38195 0.26481 0.0
C817 C 0.53372 0.46259 0.32276 0.0
H818 H 0.56315 0.42608 0.25347 0.0
C819 C 0.50331 0.43689 0.32965 0.0
C820 C 0.49475 0.40727 0.30982 0.0
H821 H 0.5402 0.48488 0.33975 0.0
H822 H 0.48694 0.43993 0.3518 0.0
C823 C 0.51654 0.40428 0.28111 0.0
C824 C 0.527 0.07378 0.32226 0.0
C825 C 0.53103 0.10064 0.29779 0.0
H826 H 0.54933 0.04894 0.34989 0.0
C827 C 0.56065 0.12179 0.27851 0.0
H828 H 0.50441 0.05704 0.33737 0.0
C829 C 0.58601 0.11707 0.28517 0.0
C830 C 0.58261 0.09121 0.31172 0.0
H831 H 0.56449 0.14247 0.25879 0.0
H832 H 0.6086 0.13435 0.27064 0.0
C833 C 0.55269 0.06918 0.32941 0.0
C834 C 0.79846 0.54298 0.86529 0.0
C835 C 0.82081 0.56845 0.83802 0.0
H836 H 0.75158 0.51787 0.8918 0.0
C837 C 0.81285 0.59022 0.81932 0.0
H838 H 0.80383 0.52592 0.88064 0.0
C839 C 0.78256 0.58567 0.82607 0.0
C840 C 0.7598 0.5591 0.85115 0.0
H841 H 0.82966 0.61017 0.79828 0.0
H842 H 0.77662 0.60214 0.8101 0.0
C843 C 0.76838 0.5383 0.87156 0.0
C844 C 0.4469 0.22834 0.87192 0.0
C845 C 0.42649 0.19904 0.85081 0.0
H846 H 0.459 0.27616 0.88145 0.0
C847 C 0.40024 0.19533 0.82505 0.0
H848 H 0.46706 0.23187 0.8927 0.0
C849 C 0.39567 0.22113 0.81822 0.0
C850 C 0.41713 0.25081 0.83752 0.0
H851 H 0.38408 0.17297 0.80851 0.0
H852 H 0.37603 0.2181 0.79657 0.0
C853 C 0.44221 0.25379 0.86558 0.0
C854 C 0.73312 0.1889 0.86706 0.0
C855 C 0.73591 0.1666 0.8392 0.0
H856 H 0.75538 0.23573 0.89437 0.0
C857 C 0.76553 0.17454 0.82038 0.0
H858 H 0.71079 0.18353 0.88254 0.0
C859 C 0.79149 0.2048 0.82753 0.0
C860 C 0.78802 0.22754 0.85316 0.0
H861 H 0.76841 0.15777 0.7989 0.0
H862 H 0.81381 0.21076 0.81138 0.0
C863 C 0.75875 0.21894 0.87374 0.0
C864 C 0.39722 0.17536 0.31705 0.0
C865 C 0.41903 0.16763 0.33612 0.0
H866 H 0.38481 0.21133 0.30791 0.0
C867 C 0.44393 0.18999 0.36428 0.0
H868 H 0.3777 0.15853 0.29533 0.0
C869 C 0.44807 0.2199 0.37103 0.0
C870 C 0.42729 0.22832 0.3502 0.0
H871 H 0.46098 0.18478 0.37997 0.0
H872 H 0.4681 0.23674 0.39191 0.0
C873 C 0.40124 0.2055 0.32426 0.0
C874 C 0.81464 0.22182 0.31998 0.0
C875 C 0.82324 0.25145 0.33984 0.0
H876 H 0.77773 0.17382 0.31001 0.0
C877 C 0.80153 0.25443 0.36875 0.0
H878 H 0.83095 0.21878 0.29768 0.0
C879 C 0.77136 0.22908 0.37533 0.0
C880 C 0.76207 0.19988 0.3536 0.0
H881 H 0.80743 0.27676 0.38508 0.0
H882 H 0.755 0.23262 0.39672 0.0
C883 C 0.78425 0.19611 0.32704 0.0
C884 C 0.75757 0.53686 0.36981 0.0
C885 C 0.78715 0.55809 0.35046 0.0
H886 H 0.70965 0.52427 0.37816 0.0
C887 C 0.79112 0.58504 0.32636 0.0
H888 H 0.75379 0.51611 0.38926 0.0
C889 C 0.76541 0.58967 0.31964 0.0
C890 C 0.73554 0.56758 0.33741 0.0
H891 H 0.81368 0.60184 0.31121 0.0
H892 H 0.76872 0.60999 0.29944 0.0
C893 C 0.7322 0.54161 0.36359 0.0
C894 C 0.54829 0.11917 0.77738 0.0
C895 C 0.5568 0.09834 0.79791 0.0
H896 H 0.51286 0.13153 0.76789 0.0
C897 C 0.53393 0.07172 0.82275 0.0
H898 H 0.56518 0.13965 0.75733 0.0
C899 C 0.5036 0.06713 0.82917 0.0
C900 C 0.49571 0.08892 0.81035 0.0
H901 H 0.53982 0.05523 0.83881 0.0
H902 H 0.48671 0.04713 0.85004 0.0
C903 C 0.51817 0.11445 0.7833 0.0
C904 C 0.86954 0.42904 0.77633 0.0
C905 C 0.88999 0.45841 0.79722 0.0
H906 H 0.85733 0.38114 0.76732 0.0
C907 C 0.91623 0.46216 0.82308 0.0
H908 H 0.84938 0.42547 0.75549 0.0
C909 C 0.92073 0.43635 0.83023 0.0
C910 C 0.89921 0.4066 0.81117 0.0
H911 H 0.93242 0.48456 0.83945 0.0
H912 H 0.94036 0.43942 0.85195 0.0
C913 C 0.87416 0.40357 0.78301 0.0
C914 C 0.55107 0.48296 0.83001 0.0
C915 C 0.58071 0.49083 0.81132 0.0
H916 H 0.50275 0.44678 0.83891 0.0
C917 C 0.58351 0.46846 0.78372 0.0
H918 H 0.54817 0.49979 0.85129 0.0
C919 C 0.55789 0.43841 0.77711 0.0
C920 C 0.52858 0.42988 0.79751 0.0
H921 H 0.60586 0.47377 0.76836 0.0
H922 H 0.56127 0.42158 0.75664 0.0
C923 C 0.5251 0.45269 0.82292 0.0
C924 C 0.58256 0.78724 0.65858 0.0
C925 C 0.55658 0.76466 0.63224 0.0
H926 H 0.60632 0.83416 0.6877 0.0
C927 C 0.53623 0.77345 0.61085 0.0
H928 H 0.59866 0.78112 0.67535 0.0
C929 C 0.54069 0.80349 0.61745 0.0
C930 C 0.56548 0.82562 0.64603 0.0
H931 H 0.51628 0.75679 0.58964 0.0
H932 H 0.52396 0.80899 0.60132 0.0
C933 C 0.58689 0.81752 0.66565 0.0
C934 C 0.18335 0.73558 0.61697 0.0
C935 C 0.16117 0.73872 0.64442 0.0
H936 H 0.23016 0.75736 0.59026 0.0
C937 C 0.16937 0.76851 0.66321 0.0
H938 H 0.17778 0.71312 0.60153 0.0
C939 C 0.19975 0.79428 0.65638 0.0
C940 C 0.22234 0.79045 0.63114 0.0
H941 H 0.1527 0.77167 0.68438 0.0
H942 H 0.2059 0.81675 0.67243 0.0
C943 C 0.2135 0.76101 0.61063 0.0
C944 C 0.2173 0.40069 0.66298 0.0
C945 C 0.24702 0.42276 0.6447 0.0
H946 H 0.16899 0.3883 0.67175 0.0
C947 C 0.25001 0.44829 0.61771 0.0
H948 H 0.21426 0.38069 0.68379 0.0
C949 C 0.22445 0.45273 0.61131 0.0
C950 C 0.19505 0.43161 0.6313 0.0
H951 H 0.27243 0.46558 0.60269 0.0
H952 H 0.22797 0.47321 0.59132 0.0
C953 C 0.19141 0.405 0.65609 0.0
C954 C 0.43392 0.87146 0.20522 0.0
C955 C 0.42545 0.89247 0.18529 0.0
H956 H 0.46931 0.85897 0.21402 0.0
C957 C 0.44836 0.91928 0.16083 0.0
H958 H 0.41701 0.85083 0.22496 0.0
C959 C 0.47868 0.92389 0.1542 0.0
C960 C 0.48653 0.90193 0.17241 0.0
H961 H 0.44251 0.93591 0.14523 0.0
H962 H 0.4956 0.94404 0.13363 0.0
C963 C 0.46403 0.87619 0.19908 0.0
C964 C 0.06131 0.55495 0.15231 0.0
C965 C 0.08269 0.58461 0.17179 0.0
H966 H 0.04972 0.50679 0.14265 0.0
C967 C 0.10757 0.58752 0.20028 0.0
H968 H 0.04182 0.55197 0.13032 0.0
C969 C 0.11218 0.56203 0.20685 0.0
C970 C 0.09188 0.53277 0.18553 0.0
H971 H 0.12427 0.60988 0.21629 0.0
H972 H 0.13221 0.56552 0.22794 0.0
C973 C 0.06579 0.52912 0.15935 0.0
C974 C 0.42428 0.55311 0.20594 0.0
C975 C 0.4536 0.56157 0.18563 0.0
H976 H 0.37628 0.51781 0.21457 0.0
C977 C 0.45706 0.53873 0.1603 0.0
H978 H 0.42091 0.56997 0.22633 0.0
C979 C 0.43107 0.50848 0.15319 0.0
C980 C 0.40142 0.50067 0.17176 0.0
H981 H 0.47941 0.54459 0.14437 0.0
H982 H 0.43396 0.49163 0.13195 0.0
C983 C 0.39863 0.52308 0.1993 0.0
C984 C 0.06601 0.53669 0.65865 0.0
C985 C 0.09199 0.55933 0.68491 0.0
H986 H 0.04226 0.48973 0.62975 0.0
C987 C 0.11232 0.55059 0.7065 0.0
H988 H 0.04992 0.54278 0.64175 0.0
C989 C 0.10785 0.52052 0.70011 0.0
C990 C 0.08308 0.49835 0.67155 0.0
H991 H 0.13226 0.56729 0.72767 0.0
H992 H 0.12458 0.51505 0.71633 0.0
C993 C 0.06167 0.50641 0.65179 0.0
C994 C 0.43517 0.56299 0.70626 0.0
C995 C 0.4263 0.53355 0.68571 0.0
H996 H 0.47092 0.61088 0.71531 0.0
C997 C 0.44886 0.52971 0.6604 0.0
H998 H 0.41853 0.56664 0.72667 0.0
C999 C 0.47923 0.55547 0.6535 0.0
C1000 C 0.48746 0.58526 0.6723 0.0
H1001 H 0.44268 0.50725 0.64429 0.0
H1002 H 0.49586 0.55231 0.63224 0.0
C1003 C 0.46533 0.58841 0.69986 0.0
C1004 C 0.39891 0.87623 0.69775 0.0
C1005 C 0.40178 0.90149 0.67013 0.0
H1006 H 0.42104 0.8516 0.72489 0.0
C1007 C 0.43143 0.92337 0.6514 0.0
H1008 H 0.37655 0.8591 0.71314 0.0
C1009 C 0.45736 0.91913 0.6585 0.0
C1010 C 0.45381 0.89278 0.68396 0.0
H1011 H 0.43438 0.94316 0.6301 0.0
H1012 H 0.47972 0.93568 0.64251 0.0
C1013 C 0.42448 0.87187 0.70437 0.0
C1014 C 0.16931 0.4012 0.16378 0.0
C1015 C 0.16132 0.42295 0.14513 0.0
H1016 H 0.20559 0.38932 0.17285 0.0
C1017 C 0.18361 0.44841 0.11779 0.0
H1018 H 0.15255 0.38126 0.18487 0.0
C1019 C 0.21369 0.45311 0.1114 0.0
C1020 C 0.22232 0.43233 0.13175 0.0
H1021 H 0.17821 0.46545 0.10248 0.0
H1022 H 0.23045 0.47353 0.09112 0.0
C1023 C 0.1996 0.40577 0.15691 0.0
C1024 C 0.53562 0.76296 0.10931 0.0
C1025 C 0.55595 0.79226 0.13051 0.0
H1026 H 0.52354 0.71512 0.09996 0.0
C1027 C 0.5821 0.79596 0.15655 0.0
H1028 H 0.51553 0.75944 0.08834 0.0
C1029 C 0.58664 0.77016 0.16358 0.0
C1030 C 0.56523 0.74047 0.14423 0.0
H1031 H 0.5982 0.81831 0.17317 0.0
H1032 H 0.60619 0.77318 0.18546 0.0
C1033 C 0.54027 0.73751 0.11587 0.0
C1034 C 0.19084 0.78659 0.15503 0.0
C1035 C 0.19425 0.76375 0.1296 0.0
H1036 H 0.214 0.83368 0.18341 0.0
C1037 C 0.22349 0.77225 0.10899 0.0
H1038 H 0.16854 0.7807 0.17118 0.0
C1039 C 0.24916 0.8023 0.11551 0.0
C1040 C 0.24644 0.82468 0.14324 0.0
H1041 H 0.22681 0.75539 0.08849 0.0
H1042 H 0.27147 0.80759 0.10007 0.0
C1043 C 0.21683 0.81684 0.16203 0.0
C1044 C 0.23881 0.24334 0.21619 0.0
C1045 C 0.21556 0.21725 0.19059 0.0
H1046 H 0.25689 0.26352 0.28598 0.0
C1047 C 0.19262 0.19134 0.21653 0.0
H1048 H 0.25682 0.26364 0.19718 0.0
C1049 C 0.19242 0.19148 0.26641 0.0
C1050 C 0.21534 0.21737 0.29233 0.0
H1051 H 0.17426 0.17082 0.19834 0.0
H1052 H 0.17414 0.17095 0.2847 0.0
C1053 C 0.23888 0.24326 0.26686 0.0
C1054 C 0.79153 0.99089 0.21789 0.0
C1055 C 0.76841 0.9934 0.19193 0.0
H1056 H 0.80981 0.98866 0.28602 0.0
C1057 C 0.74465 0.99522 0.21738 0.0
H1058 H 0.80998 0.98907 0.19964 0.0
C1059 C 0.74469 0.99529 0.26806 0.0
C1060 C 0.76812 0.99287 0.29369 0.0
H1061 H 0.72648 -0.00288 0.19825 0.0
H1062 H 0.72649 -0.00287 0.28704 0.0
C1063 C 0.79129 0.99045 0.26779 0.0
C1064 C -0.00162 0.80247 0.26571 0.0
C1065 C -0.00464 0.77664 0.29197 0.0
H1066 H -2e-05 0.82247 0.19723 0.0
C1067 C -0.00775 0.75035 0.26671 0.0
H1068 H 0.00077 0.82314 0.28365 0.0
C1069 C -0.00791 0.75012 0.21604 0.0
C1070 C -0.0056 0.7759 0.19025 0.0
H1071 H 0.98994 0.73011 0.28596 0.0
H1072 H 0.98956 0.72967 0.1972 0.0
C1073 C -0.00227 0.80203 0.21581 0.0
C1074 C 0.79668 0.79442 0.76786 0.0
C1075 C 0.77039 0.77162 0.79309 0.0
H1076 H 0.81811 0.8128 0.70034 0.0
C1077 C 0.74467 0.74836 0.76697 0.0
H1078 H 0.81709 0.81243 0.7867 0.0
C1079 C 0.7451 0.74871 0.7163 0.0
C1080 C 0.77153 0.77196 0.69136 0.0
H1081 H 0.72412 0.73044 0.78558 0.0
H1082 H 0.72488 0.73098 0.69679 0.0
C1083 C 0.79732 0.79449 0.71797 0.0
C1084 C 0.19627 0.00515 0.71467 0.0
C1085 C 0.21797 0.00017 0.68903 0.0
H1086 H 0.17839 0.00829 0.78268 0.0
C1087 C 0.23993 0.9955 0.71495 0.0
H1088 H 0.179 0.0089 0.69626 0.0
C1089 C 0.23974 0.99548 0.76562 0.0
C1090 C 0.21719 -0.0005 0.79072 0.0
H1091 H 0.25701 0.99168 0.69621 0.0
H1092 H 0.2566 0.99157 0.78499 0.0
C1093 C 0.19577 0.00462 0.76455 0.0
C1094 C -0.00817 0.24084 0.71767 0.0
C1095 C -0.00653 0.21691 0.69226 0.0
H1096 H 0.98996 0.25912 0.78729 0.0
C1097 C -0.00431 0.19358 0.71826 0.0
H1098 H 0.99014 0.25916 0.69851 0.0
C1099 C -0.00399 0.19378 0.76816 0.0
C1100 C -0.00623 0.21713 0.79402 0.0
H1101 H -0.00264 0.17498 0.70003 0.0
H1102 H -0.00242 0.17511 0.78643 0.0
C1103 C 0.99166 0.24077 0.76835 0.0
C1104 C 0.85349 0.52855 0.54964 0.0
C1105 C 0.87945 0.55142 0.52389 0.0
H1106 H 0.83264 0.51043 0.61759 0.0
C1107 C 0.90523 0.575 0.5495 0.0
H1108 H 0.83304 0.51027 0.53119 0.0
C1109 C 0.90515 0.57495 0.60017 0.0
C1110 C 0.87903 0.55169 0.62562 0.0
H1111 H 0.92555 0.59298 0.53051 0.0
H1112 H 0.92539 0.59297 0.61929 0.0
C1113 C 0.85319 0.52878 0.59952 0.0
C1114 C 0.4608 0.33038 0.54894 0.0
C1115 C 0.43611 0.32999 0.52298 0.0
H1116 H 0.48012 0.33003 0.6171 0.0
C1117 C 0.41095 0.32904 0.54851 0.0
H1118 H 0.48048 0.33089 0.53072 0.0
C1119 C 0.41089 0.32884 0.59919 0.0
C1120 C 0.43566 0.3289 0.62474 0.0
H1121 H 0.39159 0.32872 0.52945 0.0
H1122 H 0.39143 0.32827 0.61824 0.0
C1123 C 0.46049 0.32967 0.59883 0.0
C1124 C 0.65628 0.13099 0.60059 0.0
C1125 C 0.65794 0.1073 0.62644 0.0
H1126 H 0.65483 0.14985 0.53257 0.0
C1127 C 0.65911 0.08316 0.60087 0.0
H1128 H 0.655 0.14978 0.61892 0.0
C1129 C 0.65929 0.08334 0.55019 0.0
C1130 C 0.65768 0.10731 0.52468 0.0
H1131 H 0.66035 0.06456 0.6199 0.0
H1132 H 0.66059 0.0648 0.53112 0.0
C1133 C 0.65598 0.13091 0.5507 0.0
C1134 C 0.41233 0.08329 0.09868 0.0
C1135 C 0.43819 0.107 0.12398 0.0
H1136 H 0.39187 0.06506 0.02913 0.0
C1137 C 0.46401 0.12983 0.09793 0.0
H1138 H 0.39211 0.06535 0.11791 0.0
C1139 C 0.46408 0.12943 0.04804 0.0
C1140 C 0.43816 0.10639 0.02225 0.0
H1141 H 0.48451 0.1482 0.11613 0.0
H1142 H 0.48453 0.14775 0.02974 0.0
C1143 C 0.41218 0.08317 0.04801 0.0
C1144 C 0.85822 0.33103 0.10107 0.0
C1145 C 0.88203 0.32954 0.12671 0.0
H1146 H 0.83929 0.33262 0.03319 0.0
C1147 C 0.90622 0.32873 0.10091 0.0
H1148 H 0.83938 0.33201 0.11957 0.0
C1149 C 0.90602 0.32879 0.05023 0.0
C1150 C 0.88199 0.33032 0.02495 0.0
H1151 H 0.9249 0.32761 0.11977 0.0
H1152 H 0.92462 0.3278 0.03098 0.0
C1153 C 0.8583 0.33159 0.05118 0.0
C1154 C 0.6622 0.52775 0.09943 0.0
C1155 C 0.66015 0.55118 0.12536 0.0
H1156 H 0.66327 0.50885 0.03126 0.0
C1157 C 0.65806 0.57485 0.09977 0.0
H1158 H 0.66375 0.50904 0.11762 0.0
C1159 C 0.65807 0.57487 0.04909 0.0
C1160 C 0.65953 0.55086 0.02362 0.0
H1161 H 0.65649 0.59326 0.11877 0.0
H1162 H 0.65641 0.59323 0.02998 0.0
C1163 C 0.66172 0.5275 0.04954 0.0
C1164 C 0.57138 0.90922 0.93436 0.0
C1165 C 0.54511 0.88605 0.95967 0.0
H1166 H 0.59199 0.92724 0.86479 0.0
C1167 C 0.51923 0.86333 0.93342 0.0
H1168 H 0.59166 0.92709 0.95358 0.0
C1169 C 0.51962 0.86317 0.88354 0.0
C1170 C 0.54574 0.88593 0.85793 0.0
H1171 H 0.49856 0.84506 0.95136 0.0
H1172 H 0.49914 0.84503 0.86498 0.0
C1173 C 0.57156 0.90935 0.88368 0.0
C1174 C 0.07704 0.66227 0.93266 0.0
C1175 C 0.10066 0.66025 0.95835 0.0
H1176 H 0.05867 0.66372 0.86282 0.0
C1177 C 0.12409 0.65824 0.93252 0.0
H1178 H 0.05865 0.66382 0.9516 0.0
C1179 C 0.12434 0.65864 0.88263 0.0
C1180 C 0.10098 0.66069 0.85661 0.0
H1181 H 0.14277 0.65678 0.95081 0.0
H1182 H 0.14298 0.65711 0.86443 0.0
C1183 C 0.07701 0.66217 0.88199 0.0
C1184 C 0.32431 0.4168 0.93381 0.0
C1185 C 0.32318 0.44101 0.95921 0.0
H1186 H 0.32568 0.39822 0.86419 0.0
C1187 C 0.32154 0.46466 0.93319 0.0
H1188 H 0.32555 0.39823 0.95297 0.0
C1189 C 0.32118 0.46443 0.88329 0.0
C1190 C 0.32281 0.44073 0.85745 0.0
H1191 H 0.3203 0.48351 0.95139 0.0
H1192 H 0.32003 0.48333 0.86501 0.0
C1193 C 0.32444 0.41683 0.88313 0.0
C1194 C 0.07751 0.41524 0.43348 0.0
C1195 C 0.10196 0.4403 0.45912 0.0
H1196 H 0.05838 0.39603 0.36367 0.0
C1197 C 0.12631 0.46509 0.43329 0.0
H1198 H 0.05843 0.3958 0.45246 0.0
C1199 C 0.12651 0.46501 0.3834 0.0
C1200 C 0.10218 0.44031 0.35737 0.0
H1201 H 0.14568 0.4847 0.45161 0.0
H1202 H 0.14583 0.48473 0.36523 0.0
C1203 C 0.07746 0.4154 0.38281 0.0
C1204 C 0.57135 0.66276 0.38336 0.0
C1205 C 0.54712 0.66376 0.35784 0.0
H1206 H 0.59028 0.66206 0.45307 0.0
C1207 C 0.523 0.6644 0.38381 0.0
H1208 H 0.59027 0.66226 0.36429 0.0
C1209 C 0.52278 0.66383 0.4337 0.0
C1210 C 0.54684 0.66298 0.45959 0.0
H1211 H 0.50381 0.66497 0.3656 0.0
H1212 H 0.50362 0.66436 0.45198 0.0
C1213 C 0.57139 0.66269 0.43404 0.0
C1214 C 0.32002 0.85662 0.38248 0.0
C1215 C 0.32221 0.8822 0.3565 0.0
H1216 H 0.31884 0.83657 0.45072 0.0
C1217 C 0.32447 0.90804 0.38202 0.0
H1218 H 0.31836 0.83633 0.36432 0.0
C1219 C 0.32446 0.90802 0.43269 0.0
C1220 C 0.32283 0.88246 0.45823 0.0
H1221 H 0.32615 0.92808 0.36296 0.0
H1222 H 0.32622 0.92808 0.45173 0.0
C1223 C 0.3205 0.85684 0.43238 0.0
loop_
_geom_bond_atom_site_label_1
_geom_bond_atom_site_label_2
_geom_bond_distance
_geom_bond_site_symmetry_2
_ccdc_geom_bond_type
C0 O1 1.306 . S
C0 O3 1.160 . S
O1 C0 1.306 . S
O1 Cd2 2.228 . S
Cd2 O1 2.228 . S
Cd2 O6 2.273 . S
Cd2 O10 2.277 . S
O3 C0 1.160 . S
O3 Cd4 2.203 . S
Cd4 O3 2.203 . S
Cd4 O6 2.411 . S
Cd4 O7 2.333 . S
Cd4 O8 2.352 1_554 S
Cd4 O12 2.277 . S
Cd4 O13 2.356 . S
C5 O10 1.209 . S
C5 O12 1.226 . S
O6 Cd2 2.273 . S
O6 Cd4 2.411 . S
O6 C9 1.320 . S
O7 Cd4 2.333 . S
O7 C9 1.214 . S
O8 Cd4 2.352 1_556 S
O8 C11 1.258 . S
C9 O6 1.320 . S
C9 O7 1.214 . S
O10 Cd2 2.277 . S
O10 C5 1.209 . S
C11 O8 1.258 . S
C11 O13 1.282 1_556 S
O12 Cd4 2.277 . S
O12 C5 1.226 . S
O13 Cd4 2.356 . S
O13 C11 1.282 1_554 S
C14 O15 1.306 . S
C14 O17 1.160 . S
O15 C14 1.306 . S
O15 Cd16 2.228 1_565 S
Cd16 O15 2.228 1_545 S
Cd16 O20 2.273 . S
Cd16 O24 2.277 . S
O17 C14 1.160 . S
O17 Cd18 2.203 1_565 S
Cd18 O17 2.203 1_545 S
Cd18 O20 2.411 . S
Cd18 O21 2.333 . S
Cd18 O22 2.352 1_554 S
Cd18 O26 2.277 . S
Cd18 O27 2.356 . S
C19 O24 1.209 . S
C19 O26 1.226 . S
O20 Cd16 2.273 . S
O20 Cd18 2.411 . S
O20 C23 1.320 . S
O21 Cd18 2.333 . S
O21 C23 1.214 . S
O22 Cd18 2.352 1_556 S
O22 C25 1.258 . S
C23 O20 1.320 . S
C23 O21 1.214 . S
O24 Cd16 2.277 . S
O24 C19 1.209 . S
C25 O22 1.258 . S
C25 O27 1.282 1_556 S
O26 Cd18 2.277 . S
O26 C19 1.226 . S
O27 Cd18 2.356 . S
O27 C25 1.282 1_554 S
C28 O29 1.306 . S
C28 O31 1.160 . S
O29 C28 1.306 . S
O29 Cd30 2.228 1_455 S
Cd30 O29 2.228 1_655 S
Cd30 O34 2.273 . S
Cd30 O38 2.277 . S
O31 C28 1.160 . S
O31 Cd32 2.203 1_455 S
Cd32 O31 2.203 1_655 S
Cd32 O34 2.411 . S
Cd32 O35 2.333 . S
Cd32 O36 2.352 1_554 S
Cd32 O40 2.277 . S
Cd32 O41 2.356 . S
C33 O38 1.209 . S
C33 O40 1.226 . S
O34 Cd30 2.273 . S
O34 Cd32 2.411 . S
O34 C37 1.320 . S
O35 Cd32 2.333 . S
O35 C37 1.214 . S
O36 Cd32 2.352 1_556 S
O36 C39 1.258 . S
C37 O34 1.320 . S
C37 O35 1.214 . S
O38 Cd30 2.277 . S
O38 C33 1.209 . S
C39 O36 1.258 . S
C39 O41 1.282 1_556 S
O40 Cd32 2.277 . S
O40 C33 1.226 . S
O41 Cd32 2.356 . S
O41 C39 1.282 1_554 S
C42 O43 1.306 . S
C42 O45 1.160 . S
O43 C42 1.306 . S
O43 Cd44 2.228 . S
Cd44 O43 2.228 . S
Cd44 O48 2.273 . S
Cd44 O52 2.277 . S
O45 C42 1.160 . S
O45 Cd46 2.203 . S
Cd46 O45 2.203 . S
Cd46 O48 2.411 . S
Cd46 O49 2.333 . S
Cd46 O50 2.352 . S
Cd46 O54 2.277 . S
Cd46 O55 2.356 . S
C47 O52 1.209 . S
C47 O54 1.226 . S
O48 Cd44 2.273 . S
O48 Cd46 2.411 . S
O48 C51 1.320 . S
O49 Cd46 2.333 . S
O49 C51 1.214 . S
O50 Cd46 2.352 . S
O50 C53 1.258 . S
C51 O48 1.320 . S
C51 O49 1.214 . S
O52 Cd44 2.277 . S
O52 C47 1.209 . S
C53 O50 1.258 . S
C53 O55 1.282 . S
O54 Cd46 2.277 . S
O54 C47 1.226 . S
O55 Cd46 2.356 . S
O55 C53 1.282 . S
C56 O57 1.306 . S
C56 O59 1.160 . S
O57 C56 1.306 . S
O57 Cd58 2.228 1_545 S
Cd58 O57 2.228 1_565 S
Cd58 O62 2.273 . S
Cd58 O66 2.277 . S
O59 C56 1.160 . S
O59 Cd60 2.203 1_545 S
Cd60 O59 2.203 1_565 S
Cd60 O62 2.411 . S
Cd60 O63 2.333 . S
Cd60 O64 2.352 . S
Cd60 O68 2.277 . S
Cd60 O69 2.356 . S
C61 O66 1.209 . S
C61 O68 1.226 . S
O62 Cd58 2.273 . S
O62 Cd60 2.411 . S
O62 C65 1.320 . S
O63 Cd60 2.333 . S
O63 C65 1.214 . S
O64 Cd60 2.352 . S
O64 C67 1.258 . S
C65 O62 1.320 . S
C65 O63 1.214 . S
O66 Cd58 2.277 . S
O66 C61 1.209 . S
C67 O64 1.258 . S
C67 O69 1.282 . S
O68 Cd60 2.277 . S
O68 C61 1.226 . S
O69 Cd60 2.356 . S
O69 C67 1.282 . S
C70 O71 1.306 . S
C70 O73 1.160 . S
O71 C70 1.306 . S
O71 Cd72 2.228 1_655 S
Cd72 O71 2.228 1_455 S
Cd72 O76 2.273 . S
Cd72 O80 2.277 . S
O73 C70 1.160 . S
O73 Cd74 2.203 1_655 S
Cd74 O73 2.203 1_455 S
Cd74 O76 2.411 . S
Cd74 O77 2.333 . S
Cd74 O78 2.352 . S
Cd74 O82 2.277 . S
Cd74 O83 2.356 . S
C75 O80 1.209 . S
C75 O82 1.226 . S
O76 Cd72 2.273 . S
O76 Cd74 2.411 . S
O76 C79 1.320 . S
O77 Cd74 2.333 . S
O77 C79 1.214 . S
O78 Cd74 2.352 . S
O78 C81 1.258 . S
C79 O76 1.320 . S
C79 O77 1.214 . S
O80 Cd72 2.277 . S
O80 C75 1.209 . S
C81 O78 1.258 . S
C81 O83 1.282 . S
O82 Cd74 2.277 . S
O82 C75 1.226 . S
O83 Cd74 2.356 . S
O83 C81 1.282 . S
C84 O85 1.306 . S
C84 O87 1.160 . S
O85 C84 1.306 . S
O85 Cd86 2.228 . S
Cd86 O85 2.228 . S
Cd86 O90 2.273 . S
Cd86 O94 2.277 . S
O87 C84 1.160 . S
O87 Cd88 2.203 . S
Cd88 O87 2.203 . S
Cd88 O90 2.411 . S
Cd88 O91 2.333 . S
Cd88 O92 2.352 1_556 S
Cd88 O96 2.277 . S
Cd88 O97 2.356 . S
C89 O94 1.209 . S
C89 O96 1.226 . S
O90 Cd86 2.273 . S
O90 Cd88 2.411 . S
O90 C93 1.320 . S
O91 Cd88 2.333 . S
O91 C93 1.214 . S
O92 Cd88 2.352 1_554 S
O92 C95 1.258 . S
C93 O90 1.320 . S
C93 O91 1.214 . S
O94 Cd86 2.277 . S
O94 C89 1.209 . S
C95 O92 1.258 . S
C95 O97 1.282 1_554 S
O96 Cd88 2.277 . S
O96 C89 1.226 . S
O97 Cd88 2.356 . S
O97 C95 1.282 1_556 S
C98 O99 1.306 . S
C98 O101 1.160 . S
O99 C98 1.306 . S
O99 Cd100 2.228 1_545 S
Cd100 O99 2.228 1_565 S
Cd100 O104 2.273 . S
Cd100 O108 2.277 . S
O101 C98 1.160 . S
O101 Cd102 2.203 1_545 S
Cd102 O101 2.203 1_565 S
Cd102 O104 2.411 . S
Cd102 O105 2.333 . S
Cd102 O106 2.352 1_556 S
Cd102 O110 2.277 . S
Cd102 O111 2.356 . S
C103 O108 1.209 . S
C103 O110 1.226 . S
O104 Cd100 2.273 . S
O104 Cd102 2.411 . S
O104 C107 1.320 . S
O105 Cd102 2.333 . S
O105 C107 1.214 . S
O106 Cd102 2.352 1_554 S
O106 C109 1.258 . S
C107 O104 1.320 . S
C107 O105 1.214 . S
O108 Cd100 2.277 . S
O108 C103 1.209 . S
C109 O106 1.258 . S
C109 O111 1.282 1_554 S
O110 Cd102 2.277 . S
O110 C103 1.226 . S
O111 Cd102 2.356 . S
O111 C109 1.282 1_556 S
C112 O113 1.306 . S
C112 O115 1.160 . S
O113 C112 1.306 . S
O113 Cd114 2.228 1_655 S
Cd114 O113 2.228 1_455 S
Cd114 O118 2.273 . S
Cd114 O122 2.277 . S
O115 C112 1.160 . S
O115 Cd116 2.203 1_655 S
Cd116 O115 2.203 1_455 S
Cd116 O118 2.411 . S
Cd116 O119 2.333 . S
Cd116 O120 2.352 1_556 S
Cd116 O124 2.277 . S
Cd116 O125 2.356 . S
C117 O122 1.209 . S
C117 O124 1.226 . S
O118 Cd114 2.273 . S
O118 Cd116 2.411 . S
O118 C121 1.320 . S
O119 Cd116 2.333 . S
O119 C121 1.214 . S
O120 Cd116 2.352 1_554 S
O120 C123 1.258 . S
C121 O118 1.320 . S
C121 O119 1.214 . S
O122 Cd114 2.277 . S
O122 C117 1.209 . S
C123 O120 1.258 . S
C123 O125 1.282 1_554 S
O124 Cd116 2.277 . S
O124 C117 1.226 . S
O125 Cd116 2.356 . S
O125 C123 1.282 1_556 S
C126 O127 1.306 . S
C126 O129 1.160 . S
O127 C126 1.306 . S
O127 Cd128 2.228 . S
Cd128 O127 2.228 . S
Cd128 O132 2.273 . S
Cd128 O136 2.277 . S
O129 C126 1.160 . S
O129 Cd130 2.203 . S
Cd130 O129 2.203 . S
Cd130 O132 2.411 . S
Cd130 O133 2.333 . S
Cd130 O134 2.352 . S
Cd130 O138 2.277 . S
Cd130 O139 2.356 . S
C131 O136 1.209 . S
C131 O138 1.226 . S
O132 Cd128 2.273 . S
O132 Cd130 2.411 . S
O132 C135 1.320 . S
O133 Cd130 2.333 . S
O133 C135 1.214 . S
O134 Cd130 2.352 . S
O134 C137 1.258 . S
C135 O132 1.320 . S
C135 O133 1.214 . S
O136 Cd128 2.277 . S
O136 C131 1.209 . S
C137 O134 1.258 . S
C137 O139 1.282 . S
O138 Cd130 2.277 . S
O138 C131 1.226 . S
O139 Cd130 2.356 . S
O139 C137 1.282 . S
C140 O141 1.306 . S
C140 O143 1.160 . S
O141 C140 1.306 . S
O141 Cd142 2.228 1_565 S
Cd142 O141 2.228 1_545 S
Cd142 O146 2.273 . S
Cd142 O150 2.277 . S
O143 C140 1.160 . S
O143 Cd144 2.203 1_565 S
Cd144 O143 2.203 1_545 S
Cd144 O146 2.411 . S
Cd144 O147 2.333 . S
Cd144 O148 2.352 . S
Cd144 O152 2.277 . S
Cd144 O153 2.356 . S
C145 O150 1.209 . S
C145 O152 1.226 . S
O146 Cd142 2.273 . S
O146 Cd144 2.411 . S
O146 C149 1.320 . S
O147 Cd144 2.333 . S
O147 C149 1.214 . S
O148 Cd144 2.352 . S
O148 C151 1.258 . S
C149 O146 1.320 . S
C149 O147 1.214 . S
O150 Cd142 2.277 . S
O150 C145 1.209 . S
C151 O148 1.258 . S
C151 O153 1.282 . S
O152 Cd144 2.277 . S
O152 C145 1.226 . S
O153 Cd144 2.356 . S
O153 C151 1.282 . S
C154 O155 1.306 . S
C154 O157 1.160 . S
O155 C154 1.306 . S
O155 Cd156 2.228 1_455 S
Cd156 O155 2.228 1_655 S
Cd156 O160 2.273 . S
Cd156 O164 2.277 . S
O157 C154 1.160 . S
O157 Cd158 2.203 1_455 S
Cd158 O157 2.203 1_655 S
Cd158 O160 2.411 . S
Cd158 O161 2.333 . S
Cd158 O162 2.352 . S
Cd158 O166 2.277 . S
Cd158 O167 2.356 . S
C159 O164 1.209 . S
C159 O166 1.226 . S
O160 Cd156 2.273 . S
O160 Cd158 2.411 . S
O160 C163 1.320 . S
O161 Cd158 2.333 . S
O161 C163 1.214 . S
O162 Cd158 2.352 . S
O162 C165 1.258 . S
C163 O160 1.320 . S
C163 O161 1.214 . S
O164 Cd156 2.277 . S
O164 C159 1.209 . S
C165 O162 1.258 . S
C165 O167 1.282 . S
O166 Cd158 2.277 . S
O166 C159 1.226 . S
O167 Cd158 2.356 . S
O167 C165 1.282 . S
C168 O169 1.306 . S
C168 O171 1.160 . S
O169 C168 1.306 . S
O169 Cd170 2.228 . S
Cd170 O169 2.228 . S
Cd170 O174 2.273 . S
Cd170 O178 2.277 . S
O171 C168 1.160 . S
O171 Cd172 2.203 . S
Cd172 O171 2.203 . S
Cd172 O174 2.411 . S
Cd172 O175 2.333 . S
Cd172 O176 2.352 . S
Cd172 O180 2.277 . S
Cd172 O181 2.356 . S
C173 O178 1.209 . S
C173 O180 1.226 . S
O174 Cd170 2.273 . S
O174 Cd172 2.411 . S
O174 C177 1.320 . S
O175 Cd172 2.333 . S
O175 C177 1.214 . S
O176 Cd172 2.352 . S
O176 C179 1.258 . S
C177 O174 1.320 . S
C177 O175 1.214 . S
O178 Cd170 2.277 . S
O178 C173 1.209 . S
C179 O176 1.258 . S
C179 O181 1.282 . S
O180 Cd172 2.277 . S
O180 C173 1.226 . S
O181 Cd172 2.356 . S
O181 C179 1.282 . S
C182 O183 1.306 . S
C182 O185 1.160 . S
O183 C182 1.306 . S
O183 Cd184 2.228 . S
Cd184 O183 2.228 . S
Cd184 O188 2.273 . S
Cd184 O192 2.277 . S
O185 C182 1.160 . S
O185 Cd186 2.203 . S
Cd186 O185 2.203 . S
Cd186 O188 2.411 . S
Cd186 O189 2.333 . S
Cd186 O190 2.352 . S
Cd186 O194 2.277 . S
Cd186 O195 2.356 . S
C187 O192 1.209 . S
C187 O194 1.226 . S
O188 Cd184 2.273 . S
O188 Cd186 2.411 . S
O188 C191 1.320 . S
O189 Cd186 2.333 . S
O189 C191 1.214 . S
O190 Cd186 2.352 . S
O190 C193 1.258 . S
C191 O188 1.320 . S
C191 O189 1.214 . S
O192 Cd184 2.277 . S
O192 C187 1.209 . S
C193 O190 1.258 . S
C193 O195 1.282 . S
O194 Cd186 2.277 . S
O194 C187 1.226 . S
O195 Cd186 2.356 . S
O195 C193 1.282 . S
C196 O197 1.306 . S
C196 O199 1.160 . S
O197 C196 1.306 . S
O197 Cd198 2.228 . S
Cd198 O197 2.228 . S
Cd198 O202 2.273 . S
Cd198 O206 2.277 . S
O199 C196 1.160 . S
O199 Cd200 2.203 . S
Cd200 O199 2.203 . S
Cd200 O202 2.411 . S
Cd200 O203 2.333 . S
Cd200 O204 2.352 . S
Cd200 O208 2.277 . S
Cd200 O209 2.356 . S
C201 O206 1.209 . S
C201 O208 1.226 . S
O202 Cd198 2.273 . S
O202 Cd200 2.411 . S
O202 C205 1.320 . S
O203 Cd200 2.333 . S
O203 C205 1.214 . S
O204 Cd200 2.352 . S
O204 C207 1.258 . S
C205 O202 1.320 . S
C205 O203 1.214 . S
O206 Cd198 2.277 . S
O206 C201 1.209 . S
C207 O204 1.258 . S
C207 O209 1.282 . S
O208 Cd200 2.277 . S
O208 C201 1.226 . S
O209 Cd200 2.356 . S
O209 C207 1.282 . S
C210 O211 1.306 . S
C210 O213 1.160 . S
O211 C210 1.306 . S
O211 Cd212 2.228 . S
Cd212 O211 2.228 . S
Cd212 O216 2.273 . S
Cd212 O220 2.277 . S
O213 C210 1.160 . S
O213 Cd214 2.203 . S
Cd214 O213 2.203 . S
Cd214 O216 2.411 . S
Cd214 O217 2.333 . S
Cd214 O218 2.352 . S
Cd214 O222 2.277 . S
Cd214 O223 2.356 . S
C215 O220 1.209 . S
C215 O222 1.226 . S
O216 Cd212 2.273 . S
O216 Cd214 2.411 . S
O216 C219 1.320 . S
O217 Cd214 2.333 . S
O217 C219 1.214 . S
O218 Cd214 2.352 . S
O218 C221 1.258 . S
C219 O216 1.320 . S
C219 O217 1.214 . S
O220 Cd212 2.277 . S
O220 C215 1.209 . S
C221 O218 1.258 . S
C221 O223 1.282 . S
O222 Cd214 2.277 . S
O222 C215 1.226 . S
O223 Cd214 2.356 . S
O223 C221 1.282 . S
C224 O225 1.306 . S
C224 O227 1.160 . S
O225 C224 1.306 . S
O225 Cd226 2.228 . S
Cd226 O225 2.228 . S
Cd226 O230 2.273 . S
Cd226 O234 2.277 . S
O227 C224 1.160 . S
O227 Cd228 2.203 . S
Cd228 O227 2.203 . S
Cd228 O230 2.411 . S
Cd228 O231 2.333 . S
Cd228 O232 2.352 . S
Cd228 O236 2.277 . S
Cd228 O237 2.356 . S
C229 O234 1.209 . S
C229 O236 1.226 . S
O230 Cd226 2.273 . S
O230 Cd228 2.411 . S
O230 C233 1.320 . S
O231 Cd228 2.333 . S
O231 C233 1.214 . S
O232 Cd228 2.352 . S
O232 C235 1.258 . S
C233 O230 1.320 . S
C233 O231 1.214 . S
O234 Cd226 2.277 . S
O234 C229 1.209 . S
C235 O232 1.258 . S
C235 O237 1.282 . S
O236 Cd228 2.277 . S
O236 C229 1.226 . S
O237 Cd228 2.356 . S
O237 C235 1.282 . S
C238 O239 1.306 . S
C238 O241 1.160 . S
O239 C238 1.306 . S
O239 Cd240 2.228 . S
Cd240 O239 2.228 . S
Cd240 O244 2.273 . S
Cd240 O248 2.277 . S
O241 C238 1.160 . S
O241 Cd242 2.203 . S
Cd242 O241 2.203 . S
Cd242 O244 2.411 . S
Cd242 O245 2.333 . S
Cd242 O246 2.352 . S
Cd242 O250 2.277 . S
Cd242 O251 2.356 . S
C243 O248 1.209 . S
C243 O250 1.226 . S
O244 Cd240 2.273 . S
O244 Cd242 2.411 . S
O244 C247 1.320 . S
O245 Cd242 2.333 . S
O245 C247 1.214 . S
O246 Cd242 2.352 . S
O246 C249 1.258 . S
C247 O244 1.320 . S
C247 O245 1.214 . S
O248 Cd240 2.277 . S
O248 C243 1.209 . S
C249 O246 1.258 . S
C249 O251 1.282 . S
O250 Cd242 2.277 . S
O250 C243 1.226 . S
O251 Cd242 2.356 . S
O251 C249 1.282 . S
C252 O253 1.306 . S
C252 O255 1.160 . S
O253 C252 1.306 . S
O253 Cd254 2.228 . S
Cd254 O253 2.228 . S
Cd254 O258 2.273 . S
Cd254 O262 2.277 . S
O255 C252 1.160 . S
O255 Cd256 2.203 . S
Cd256 O255 2.203 . S
Cd256 O258 2.411 . S
Cd256 O259 2.333 . S
Cd256 O260 2.352 . S
Cd256 O264 2.277 . S
Cd256 O265 2.356 . S
C257 O262 1.209 . S
C257 O264 1.226 . S
O258 Cd254 2.273 . S
O258 Cd256 2.411 . S
O258 C261 1.320 . S
O259 Cd256 2.333 . S
O259 C261 1.214 . S
O260 Cd256 2.352 . S
O260 C263 1.258 . S
C261 O258 1.320 . S
C261 O259 1.214 . S
O262 Cd254 2.277 . S
O262 C257 1.209 . S
C263 O260 1.258 . S
C263 O265 1.282 . S
O264 Cd256 2.277 . S
O264 C257 1.226 . S
O265 Cd256 2.356 . S
O265 C263 1.282 . S
C266 O267 1.306 . S
C266 O269 1.160 . S
O267 C266 1.306 . S
O267 Cd268 2.228 . S
Cd268 O267 2.228 . S
Cd268 O272 2.273 . S
Cd268 O276 2.277 . S
O269 C266 1.160 . S
O269 Cd270 2.203 . S
Cd270 O269 2.203 . S
Cd270 O272 2.411 . S
Cd270 O273 2.333 . S
Cd270 O274 2.352 . S
Cd270 O278 2.277 . S
Cd270 O279 2.356 . S
C271 O276 1.209 . S
C271 O278 1.226 . S
O272 Cd268 2.273 . S
O272 Cd270 2.411 . S
O272 C275 1.320 . S
O273 Cd270 2.333 . S
O273 C275 1.214 . S
O274 Cd270 2.352 . S
O274 C277 1.258 . S
C275 O272 1.320 . S
C275 O273 1.214 . S
O276 Cd268 2.277 . S
O276 C271 1.209 . S
C277 O274 1.258 . S
C277 O279 1.282 . S
O278 Cd270 2.277 . S
O278 C271 1.226 . S
O279 Cd270 2.356 . S
O279 C277 1.282 . S
C280 O281 1.306 . S
C280 O283 1.160 . S
O281 C280 1.306 . S
O281 Cd282 2.228 . S
Cd282 O281 2.228 . S
Cd282 O286 2.273 . S
Cd282 O290 2.277 . S
O283 C280 1.160 . S
O283 Cd284 2.203 . S
Cd284 O283 2.203 . S
Cd284 O286 2.411 . S
Cd284 O287 2.333 . S
Cd284 O288 2.352 . S
Cd284 O292 2.277 . S
Cd284 O293 2.356 . S
C285 O290 1.209 . S
C285 O292 1.226 . S
O286 Cd282 2.273 . S
O286 Cd284 2.411 . S
O286 C289 1.320 . S
O287 Cd284 2.333 . S
O287 C289 1.214 . S
O288 Cd284 2.352 . S
O288 C291 1.258 . S
C289 O286 1.320 . S
C289 O287 1.214 . S
O290 Cd282 2.277 . S
O290 C285 1.209 . S
C291 O288 1.258 . S
C291 O293 1.282 . S
O292 Cd284 2.277 . S
O292 C285 1.226 . S
O293 Cd284 2.356 . S
O293 C291 1.282 . S
C294 O295 1.306 . S
C294 O297 1.160 . S
O295 C294 1.306 . S
O295 Cd296 2.228 . S
Cd296 O295 2.228 . S
Cd296 O300 2.273 . S
Cd296 O304 2.277 . S
O297 C294 1.160 . S
O297 Cd298 2.203 . S
Cd298 O297 2.203 . S
Cd298 O300 2.411 . S
Cd298 O301 2.333 . S
Cd298 O302 2.352 . S
Cd298 O306 2.277 . S
Cd298 O307 2.356 . S
C299 O304 1.209 . S
C299 O306 1.226 . S
O300 Cd296 2.273 . S
O300 Cd298 2.411 . S
O300 C303 1.320 . S
O301 Cd298 2.333 . S
O301 C303 1.214 . S
O302 Cd298 2.352 . S
O302 C305 1.258 . S
C303 O300 1.320 . S
C303 O301 1.214 . S
O304 Cd296 2.277 . S
O304 C299 1.209 . S
C305 O302 1.258 . S
C305 O307 1.282 . S
O306 Cd298 2.277 . S
O306 C299 1.226 . S
O307 Cd298 2.356 . S
O307 C305 1.282 . S
C308 O309 1.306 . S
C308 O311 1.160 . S
O309 C308 1.306 . S
O309 Cd310 2.228 . S
Cd310 O309 2.228 . S
Cd310 O314 2.273 . S
Cd310 O318 2.277 . S
O311 C308 1.160 . S
O311 Cd312 2.203 . S
Cd312 O311 2.203 . S
Cd312 O314 2.411 . S
Cd312 O315 2.333 . S
Cd312 O316 2.352 . S
Cd312 O320 2.277 . S
Cd312 O321 2.356 . S
C313 O318 1.209 . S
C313 O320 1.226 . S
O314 Cd310 2.273 . S
O314 Cd312 2.411 . S
O314 C317 1.320 . S
O315 Cd312 2.333 . S
O315 C317 1.214 . S
O316 Cd312 2.352 . S
O316 C319 1.258 . S
C317 O314 1.320 . S
C317 O315 1.214 . S
O318 Cd310 2.277 . S
O318 C313 1.209 . S
C319 O316 1.258 . S
C319 O321 1.282 . S
O320 Cd312 2.277 . S
O320 C313 1.226 . S
O321 Cd312 2.356 . S
O321 C319 1.282 . S
C322 O323 1.306 . S
C322 O325 1.160 . S
O323 C322 1.306 . S
O323 Cd324 2.228 . S
Cd324 O323 2.228 . S
Cd324 O328 2.273 . S
Cd324 O332 2.277 . S
O325 C322 1.160 . S
O325 Cd326 2.203 . S
Cd326 O325 2.203 . S
Cd326 O328 2.411 . S
Cd326 O329 2.333 . S
Cd326 O330 2.352 . S
Cd326 O334 2.277 . S
Cd326 O335 2.356 . S
C327 O332 1.209 . S
C327 O334 1.226 . S
O328 Cd324 2.273 . S
O328 Cd326 2.411 . S
O328 C331 1.320 . S
O329 Cd326 2.333 . S
O329 C331 1.214 . S
O330 Cd326 2.352 . S
O330 C333 1.258 . S
C331 O328 1.320 . S
C331 O329 1.214 . S
O332 Cd324 2.277 . S
O332 C327 1.209 . S
C333 O330 1.258 . S
C333 O335 1.282 . S
O334 Cd326 2.277 . S
O334 C327 1.226 . S
O335 Cd326 2.356 . S
O335 C333 1.282 . S
C336 O337 1.306 . S
C336 O339 1.160 . S
O337 C336 1.306 . S
O337 Cd338 2.228 . S
Cd338 O337 2.228 . S
Cd338 O342 2.273 . S
Cd338 O346 2.277 . S
O339 C336 1.160 . S
O339 Cd340 2.203 . S
Cd340 O339 2.203 . S
Cd340 O342 2.411 . S
Cd340 O343 2.333 . S
Cd340 O344 2.352 . S
Cd340 O348 2.277 . S
Cd340 O349 2.356 . S
C341 O346 1.209 . S
C341 O348 1.226 . S
O342 Cd338 2.273 . S
O342 Cd340 2.411 . S
O342 C345 1.320 . S
O343 Cd340 2.333 . S
O343 C345 1.214 . S
O344 Cd340 2.352 . S
O344 C347 1.258 . S
C345 O342 1.320 . S
C345 O343 1.214 . S
O346 Cd338 2.277 . S
O346 C341 1.209 . S
C347 O344 1.258 . S
C347 O349 1.282 . S
O348 Cd340 2.277 . S
O348 C341 1.226 . S
O349 Cd340 2.356 . S
O349 C347 1.282 . S
C350 O351 1.306 . S
C350 O353 1.160 . S
O351 C350 1.306 . S
O351 Cd352 2.228 . S
Cd352 O351 2.228 . S
Cd352 O356 2.273 . S
Cd352 O360 2.277 . S
O353 C350 1.160 . S
O353 Cd354 2.203 . S
Cd354 O353 2.203 . S
Cd354 O356 2.411 . S
Cd354 O357 2.333 . S
Cd354 O358 2.352 . S
Cd354 O362 2.277 . S
Cd354 O363 2.356 . S
C355 O360 1.209 . S
C355 O362 1.226 . S
O356 Cd352 2.273 . S
O356 Cd354 2.411 . S
O356 C359 1.320 . S
O357 Cd354 2.333 . S
O357 C359 1.214 . S
O358 Cd354 2.352 . S
O358 C361 1.258 . S
C359 O356 1.320 . S
C359 O357 1.214 . S
O360 Cd352 2.277 . S
O360 C355 1.209 . S
C361 O358 1.258 . S
C361 O363 1.282 . S
O362 Cd354 2.277 . S
O362 C355 1.226 . S
O363 Cd354 2.356 . S
O363 C361 1.282 . S
C364 O365 1.306 . S
C364 O367 1.160 . S
O365 C364 1.306 . S
O365 Cd366 2.228 . S
Cd366 O365 2.228 . S
Cd366 O370 2.273 . S
Cd366 O374 2.277 . S
O367 C364 1.160 . S
O367 Cd368 2.203 . S
Cd368 O367 2.203 . S
Cd368 O370 2.411 . S
Cd368 O371 2.333 . S
Cd368 O372 2.352 . S
Cd368 O376 2.277 . S
Cd368 O377 2.356 . S
C369 O374 1.209 . S
C369 O376 1.226 . S
O370 Cd366 2.273 . S
O370 Cd368 2.411 . S
O370 C373 1.320 . S
O371 Cd368 2.333 . S
O371 C373 1.214 . S
O372 Cd368 2.352 . S
O372 C375 1.258 . S
C373 O370 1.320 . S
C373 O371 1.214 . S
O374 Cd366 2.277 . S
O374 C369 1.209 . S
C375 O372 1.258 . S
C375 O377 1.282 . S
O376 Cd368 2.277 . S
O376 C369 1.226 . S
O377 Cd368 2.356 . S
O377 C375 1.282 . S
C378 O379 1.306 . S
C378 O381 1.160 . S
O379 C378 1.306 . S
O379 Cd380 2.228 . S
Cd380 O379 2.228 . S
Cd380 O384 2.273 . S
Cd380 O388 2.277 . S
O381 C378 1.160 . S
O381 Cd382 2.203 . S
Cd382 O381 2.203 . S
Cd382 O384 2.411 . S
Cd382 O385 2.333 . S
Cd382 O386 2.352 . S
Cd382 O390 2.277 . S
Cd382 O391 2.356 . S
C383 O388 1.209 . S
C383 O390 1.226 . S
O384 Cd380 2.273 . S
O384 Cd382 2.411 . S
O384 C387 1.320 . S
O385 Cd382 2.333 . S
O385 C387 1.214 . S
O386 Cd382 2.352 . S
O386 C389 1.258 . S
C387 O384 1.320 . S
C387 O385 1.214 . S
O388 Cd380 2.277 . S
O388 C383 1.209 . S
C389 O386 1.258 . S
C389 O391 1.282 . S
O390 Cd382 2.277 . S
O390 C383 1.226 . S
O391 Cd382 2.356 . S
O391 C389 1.282 . S
C392 O393 1.306 . S
C392 O395 1.160 . S
O393 C392 1.306 . S
O393 Cd394 2.228 . S
Cd394 O393 2.228 . S
Cd394 O398 2.273 . S
Cd394 O402 2.277 . S
O395 C392 1.160 . S
O395 Cd396 2.203 . S
Cd396 O395 2.203 . S
Cd396 O398 2.411 . S
Cd396 O399 2.333 . S
Cd396 O400 2.352 . S
Cd396 O404 2.277 . S
Cd396 O405 2.356 . S
C397 O402 1.209 . S
C397 O404 1.226 . S
O398 Cd394 2.273 . S
O398 Cd396 2.411 . S
O398 C401 1.320 . S
O399 Cd396 2.333 . S
O399 C401 1.214 . S
O400 Cd396 2.352 . S
O400 C403 1.258 . S
C401 O398 1.320 . S
C401 O399 1.214 . S
O402 Cd394 2.277 . S
O402 C397 1.209 . S
C403 O400 1.258 . S
C403 O405 1.282 . S
O404 Cd396 2.277 . S
O404 C397 1.226 . S
O405 Cd396 2.356 . S
O405 C403 1.282 . S
C406 O407 1.306 . S
C406 O409 1.160 . S
O407 C406 1.306 . S
O407 Cd408 2.228 . S
Cd408 O407 2.228 . S
Cd408 O412 2.273 . S
Cd408 O416 2.277 . S
O409 C406 1.160 . S
O409 Cd410 2.203 . S
Cd410 O409 2.203 . S
Cd410 O412 2.411 . S
Cd410 O413 2.333 . S
Cd410 O414 2.352 . S
Cd410 O418 2.277 . S
Cd410 O419 2.356 . S
C411 O416 1.209 . S
C411 O418 1.226 . S
O412 Cd408 2.273 . S
O412 Cd410 2.411 . S
O412 C415 1.320 . S
O413 Cd410 2.333 . S
O413 C415 1.214 . S
O414 Cd410 2.352 . S
O414 C417 1.258 . S
C415 O412 1.320 . S
C415 O413 1.214 . S
O416 Cd408 2.277 . S
O416 C411 1.209 . S
C417 O414 1.258 . S
C417 O419 1.282 . S
O418 Cd410 2.277 . S
O418 C411 1.226 . S
O419 Cd410 2.356 . S
O419 C417 1.282 . S
C420 O421 1.306 . S
C420 O423 1.160 . S
O421 C420 1.306 . S
O421 Cd422 2.228 . S
Cd422 O421 2.228 . S
Cd422 O426 2.273 . S
Cd422 O430 2.277 . S
O423 C420 1.160 . S
O423 Cd424 2.203 . S
Cd424 O423 2.203 . S
Cd424 O426 2.411 . S
Cd424 O427 2.333 . S
Cd424 O428 2.352 . S
Cd424 O432 2.277 . S
Cd424 O433 2.356 . S
C425 O430 1.209 . S
C425 O432 1.226 . S
O426 Cd422 2.273 . S
O426 Cd424 2.411 . S
O426 C429 1.320 . S
O427 Cd424 2.333 . S
O427 C429 1.214 . S
O428 Cd424 2.352 . S
O428 C431 1.258 . S
C429 O426 1.320 . S
C429 O427 1.214 . S
O430 Cd422 2.277 . S
O430 C425 1.209 . S
C431 O428 1.258 . S
C431 O433 1.282 . S
O432 Cd424 2.277 . S
O432 C425 1.226 . S
O433 Cd424 2.356 . S
O433 C431 1.282 . S
C434 O435 1.306 . S
C434 O437 1.160 . S
O435 C434 1.306 . S
O435 Cd436 2.228 . S
Cd436 O435 2.228 . S
Cd436 O440 2.273 . S
Cd436 O444 2.277 . S
O437 C434 1.160 . S
O437 Cd438 2.203 . S
Cd438 O437 2.203 . S
Cd438 O440 2.411 . S
Cd438 O441 2.333 . S
Cd438 O442 2.352 . S
Cd438 O446 2.277 . S
Cd438 O447 2.356 . S
C439 O444 1.209 . S
C439 O446 1.226 . S
O440 Cd436 2.273 . S
O440 Cd438 2.411 . S
O440 C443 1.320 . S
O441 Cd438 2.333 . S
O441 C443 1.214 . S
O442 Cd438 2.352 . S
O442 C445 1.258 . S
C443 O440 1.320 . S
C443 O441 1.214 . S
O444 Cd436 2.277 . S
O444 C439 1.209 . S
C445 O442 1.258 . S
C445 O447 1.282 . S
O446 Cd438 2.277 . S
O446 C439 1.226 . S
O447 Cd438 2.356 . S
O447 C445 1.282 . S
C448 O449 1.306 . S
C448 O451 1.160 . S
O449 C448 1.306 . S
O449 Cd450 2.228 . S
Cd450 O449 2.228 . S
Cd450 O454 2.273 . S
Cd450 O458 2.277 . S
O451 C448 1.160 . S
O451 Cd452 2.203 . S
Cd452 O451 2.203 . S
Cd452 O454 2.411 . S
Cd452 O455 2.333 . S
Cd452 O456 2.352 . S
Cd452 O460 2.277 . S
Cd452 O461 2.356 . S
C453 O458 1.209 . S
C453 O460 1.226 . S
O454 Cd450 2.273 . S
O454 Cd452 2.411 . S
O454 C457 1.320 . S
O455 Cd452 2.333 . S
O455 C457 1.214 . S
O456 Cd452 2.352 . S
O456 C459 1.258 . S
C457 O454 1.320 . S
C457 O455 1.214 . S
O458 Cd450 2.277 . S
O458 C453 1.209 . S
C459 O456 1.258 . S
C459 O461 1.282 . S
O460 Cd452 2.277 . S
O460 C453 1.226 . S
O461 Cd452 2.356 . S
O461 C459 1.282 . S
C462 O463 1.306 . S
C462 O465 1.160 . S
O463 C462 1.306 . S
O463 Cd464 2.228 . S
Cd464 O463 2.228 . S
Cd464 O468 2.273 . S
Cd464 O472 2.277 . S
O465 C462 1.160 . S
O465 Cd466 2.203 . S
Cd466 O465 2.203 . S
Cd466 O468 2.411 . S
Cd466 O469 2.333 . S
Cd466 O470 2.352 . S
Cd466 O474 2.277 . S
Cd466 O475 2.356 . S
C467 O472 1.209 . S
C467 O474 1.226 . S
O468 Cd464 2.273 . S
O468 Cd466 2.411 . S
O468 C471 1.320 . S
O469 Cd466 2.333 . S
O469 C471 1.214 . S
O470 Cd466 2.352 . S
O470 C473 1.258 . S
C471 O468 1.320 . S
C471 O469 1.214 . S
O472 Cd464 2.277 . S
O472 C467 1.209 . S
C473 O470 1.258 . S
C473 O475 1.282 . S
O474 Cd466 2.277 . S
O474 C467 1.226 . S
O475 Cd466 2.356 . S
O475 C473 1.282 . S
C476 O477 1.306 . S
C476 O479 1.160 . S
O477 C476 1.306 . S
O477 Cd478 2.228 . S
Cd478 O477 2.228 . S
Cd478 O482 2.273 . S
Cd478 O486 2.277 . S
O479 C476 1.160 . S
O479 Cd480 2.203 . S
Cd480 O479 2.203 . S
Cd480 O482 2.411 . S
Cd480 O483 2.333 . S
Cd480 O484 2.352 . S
Cd480 O488 2.277 . S
Cd480 O489 2.356 . S
C481 O486 1.209 . S
C481 O488 1.226 . S
O482 Cd478 2.273 . S
O482 Cd480 2.411 . S
O482 C485 1.320 . S
O483 Cd480 2.333 . S
O483 C485 1.214 . S
O484 Cd480 2.352 . S
O484 C487 1.258 . S
C485 O482 1.320 . S
C485 O483 1.214 . S
O486 Cd478 2.277 . S
O486 C481 1.209 . S
C487 O484 1.258 . S
C487 O489 1.282 . S
O488 Cd480 2.277 . S
O488 C481 1.226 . S
O489 Cd480 2.356 . S
O489 C487 1.282 . S
C490 O491 1.306 . S
C490 O493 1.160 . S
O491 C490 1.306 . S
O491 Cd492 2.228 . S
Cd492 O491 2.228 . S
Cd492 O496 2.273 . S
Cd492 O500 2.277 . S
O493 C490 1.160 . S
O493 Cd494 2.203 . S
Cd494 O493 2.203 . S
Cd494 O496 2.411 . S
Cd494 O497 2.333 . S
Cd494 O498 2.352 . S
Cd494 O502 2.277 . S
Cd494 O503 2.356 . S
C495 O500 1.209 . S
C495 O502 1.226 . S
O496 Cd492 2.273 . S
O496 Cd494 2.411 . S
O496 C499 1.320 . S
O497 Cd494 2.333 . S
O497 C499 1.214 . S
O498 Cd494 2.352 . S
O498 C501 1.258 . S
C499 O496 1.320 . S
C499 O497 1.214 . S
O500 Cd492 2.277 . S
O500 C495 1.209 . S
C501 O498 1.258 . S
C501 O503 1.282 . S
O502 Cd494 2.277 . S
O502 C495 1.226 . S
O503 Cd494 2.356 . S
O503 C501 1.282 . S
C504 C505 1.387 . S
C504 H508 0.950 . S
C504 C513 1.390 . S
C505 C504 1.387 . S
C505 C507 1.387 . S
H506 C513 0.950 1_554 S
C507 C505 1.387 . S
C507 C509 1.390 . S
C507 H511 0.950 . S
H508 C504 0.950 . S
C509 C507 1.390 . S
C509 C510 1.387 . S
C509 H512 0.950 . S
C510 C509 1.387 . S
C510 C513 1.387 . S
H511 C507 0.950 . S
H512 C509 0.950 . S
C513 C504 1.390 . S
C513 H506 0.950 1_556 S
C513 C510 1.387 . S
C514 C515 1.387 . S
C514 H518 0.950 . S
C514 C523 1.390 . S
C515 C514 1.387 . S
C515 C517 1.387 . S
H516 C523 0.950 . S
C517 C515 1.387 . S
C517 C519 1.390 . S
C517 H521 0.950 . S
H518 C514 0.950 . S
C519 C517 1.390 . S
C519 C520 1.387 . S
C519 H522 0.950 . S
C520 C519 1.387 . S
C520 C523 1.387 . S
H521 C517 0.950 . S
H522 C519 0.950 . S
C523 C514 1.390 . S
C523 H516 0.950 . S
C523 C520 1.387 . S
C524 C525 1.387 . S
C524 H528 0.950 . S
C524 C533 1.390 . S
C525 C524 1.387 . S
C525 C527 1.387 . S
H526 C533 0.950 . S
C527 C525 1.387 . S
C527 C529 1.390 . S
C527 H531 0.950 . S
H528 C524 0.950 . S
C529 C527 1.390 . S
C529 C530 1.387 . S
C529 H532 0.950 . S
C530 C529 1.387 . S
C530 C533 1.387 . S
H531 C527 0.950 . S
H532 C529 0.950 . S
C533 C524 1.390 . S
C533 H526 0.950 . S
C533 C530 1.387 . S
C534 C535 1.387 . S
C534 H538 0.950 . S
C534 C543 1.390 . S
C535 C534 1.387 . S
C535 C537 1.387 . S
H536 C543 0.950 . S
C537 C535 1.387 . S
C537 C539 1.390 . S
C537 H541 0.950 . S
H538 C534 0.950 . S
C539 C537 1.390 . S
C539 C540 1.387 . S
C539 H542 0.950 . S
C540 C539 1.387 . S
C540 C543 1.387 . S
H541 C537 0.950 . S
H542 C539 0.950 . S
C543 C534 1.390 . S
C543 H536 0.950 . S
C543 C540 1.387 . S
C544 C545 1.387 . S
C544 H548 0.950 . S
C544 C553 1.390 . S
C545 C544 1.387 . S
C545 C547 1.387 . S
H546 C553 0.950 . S
C547 C545 1.387 . S
C547 C549 1.390 . S
C547 H551 0.950 . S
H548 C544 0.950 . S
C549 C547 1.390 . S
C549 C550 1.387 . S
C549 H552 0.950 . S
C550 C549 1.387 . S
C550 C553 1.387 . S
H551 C547 0.950 . S
H552 C549 0.950 . S
C553 C544 1.390 . S
C553 H546 0.950 . S
C553 C550 1.387 . S
C554 C555 1.387 . S
C554 H558 0.950 . S
C554 C563 1.390 . S
C555 C554 1.387 . S
C555 C557 1.387 . S
H556 C563 0.950 . S
C557 C555 1.387 . S
C557 C559 1.390 . S
C557 H561 0.950 . S
H558 C554 0.950 . S
C559 C557 1.390 . S
C559 C560 1.387 . S
C559 H562 0.950 . S
C560 C559 1.387 . S
C560 C563 1.387 . S
H561 C557 0.950 . S
H562 C559 0.950 . S
C563 C554 1.390 . S
C563 H556 0.950 . S
C563 C560 1.387 . S
C564 C565 1.387 . S
C564 H568 0.950 . S
C564 C573 1.390 . S
C565 C564 1.387 . S
C565 C567 1.387 . S
H566 C573 0.950 . S
C567 C565 1.387 . S
C567 C569 1.390 . S
C567 H571 0.950 . S
H568 C564 0.950 . S
C569 C567 1.390 . S
C569 C570 1.387 . S
C569 H572 0.950 . S
C570 C569 1.387 . S
C570 C573 1.387 . S
H571 C567 0.950 . S
H572 C569 0.950 . S
C573 C564 1.390 . S
C573 H566 0.950 . S
C573 C570 1.387 . S
C574 C575 1.387 . S
C574 H578 0.950 . S
C574 C583 1.390 . S
C575 C574 1.387 . S
C575 C577 1.387 . S
H576 C583 0.950 . S
C577 C575 1.387 . S
C577 C579 1.390 . S
C577 H581 0.950 . S
H578 C574 0.950 . S
C579 C577 1.390 . S
C579 C580 1.387 . S
C579 H582 0.950 . S
C580 C579 1.387 . S
C580 C583 1.387 . S
H581 C577 0.950 . S
H582 C579 0.950 . S
C583 C574 1.390 . S
C583 H576 0.950 . S
C583 C580 1.387 . S
C584 C585 1.387 . S
C584 H588 0.950 . S
C584 C593 1.390 . S
C585 C584 1.387 . S
C585 C587 1.387 . S
H586 C593 0.950 . S
C587 C585 1.387 . S
C587 C589 1.390 . S
C587 H591 0.950 . S
H588 C584 0.950 . S
C589 C587 1.390 . S
C589 C590 1.387 . S
C589 H592 0.950 . S
C590 C589 1.387 . S
C590 C593 1.387 . S
H591 C587 0.950 . S
H592 C589 0.950 . S
C593 C584 1.390 . S
C593 H586 0.950 . S
C593 C590 1.387 . S
C594 C595 1.387 . S
C594 H598 0.950 . S
C594 C603 1.390 . S
C595 C594 1.387 . S
C595 C597 1.387 . S
H596 C603 0.950 . S
C597 C595 1.387 . S
C597 C599 1.390 . S
C597 H601 0.950 . S
H598 C594 0.950 . S
C599 C597 1.390 . S
C599 C600 1.387 . S
C599 H602 0.950 . S
C600 C599 1.387 . S
C600 C603 1.387 . S
H601 C597 0.950 . S
H602 C599 0.950 . S
C603 C594 1.390 . S
C603 H596 0.950 . S
C603 C600 1.387 . S
C604 C605 1.387 . S
C604 H608 0.951 . S
C604 C613 1.390 . S
C605 C604 1.387 . S
C605 C607 1.387 . S
H606 C613 0.950 . S
C607 C605 1.387 . S
C607 C609 1.390 . S
C607 H611 0.950 . S
H608 C604 0.951 . S
C609 C607 1.390 . S
C609 C610 1.387 . S
C609 H612 0.950 . S
C610 C609 1.387 . S
C610 C613 1.387 . S
H611 C607 0.950 . S
H612 C609 0.950 . S
C613 C604 1.390 . S
C613 H606 0.950 . S
C613 C610 1.387 . S
C614 C615 1.387 . S
C614 H618 0.950 . S
C614 C623 1.390 . S
C615 C614 1.387 . S
C615 C617 1.387 . S
H616 C623 0.950 . S
C617 C615 1.387 . S
C617 C619 1.390 . S
C617 H621 0.950 . S
H618 C614 0.950 . S
C619 C617 1.390 . S
C619 C620 1.387 . S
C619 H622 0.950 . S
C620 C619 1.387 . S
C620 C623 1.387 . S
H621 C617 0.950 . S
H622 C619 0.950 . S
C623 C614 1.390 . S
C623 H616 0.950 . S
C623 C620 1.387 . S
C624 C625 1.405 . S
C624 H628 0.961 . S
C624 C633 1.363 1_455 S
C625 C624 1.405 . S
C625 C627 1.387 . S
H626 C633 0.950 . S
C627 C625 1.387 . S
C627 C629 1.362 1_455 S
C627 H631 0.950 . S
H628 C624 0.961 . S
C629 C627 1.362 1_655 S
C629 C630 1.405 . S
C629 H632 0.962 . S
C630 C629 1.405 . S
C630 C633 1.387 . S
H631 C627 0.950 . S
H632 C629 0.962 . S
C633 C624 1.363 1_655 S
C633 H626 0.950 . S
C633 C630 1.387 . S
C634 C635 1.387 . S
C634 H638 0.950 . S
C634 C643 1.390 . S
C635 C634 1.387 . S
C635 C637 1.387 . S
H636 C643 0.950 . S
C637 C635 1.387 . S
C637 C639 1.390 . S
C637 H641 0.950 . S
H638 C634 0.950 . S
C639 C637 1.390 . S
C639 C640 1.387 . S
C639 H642 0.950 . S
C640 C639 1.387 . S
C640 C643 1.387 . S
H641 C637 0.950 . S
H642 C639 0.950 . S
C643 C634 1.390 . S
C643 H636 0.950 . S
C643 C640 1.387 . S
C644 C645 1.387 . S
C644 H648 0.950 . S
C644 C653 1.390 1_565 S
C645 C644 1.387 . S
C645 C647 1.387 . S
H646 C653 0.950 . S
C647 C645 1.387 . S
C647 C649 1.390 1_565 S
C647 H651 0.950 . S
H648 C644 0.950 . S
C649 C647 1.390 1_545 S
C649 C650 1.387 . S
C649 H652 0.950 . S
C650 C649 1.387 . S
C650 C653 1.387 . S
H651 C647 0.950 . S
H652 C649 0.950 . S
C653 C644 1.390 1_545 S
C653 H646 0.950 . S
C653 C650 1.387 . S
C654 C655 1.387 . S
C654 H658 0.950 . S
C654 C663 1.390 1_565 S
C655 C654 1.387 . S
C655 C657 1.387 . S
H656 C663 0.950 . S
C657 C655 1.387 . S
C657 C659 1.390 1_565 S
C657 H661 0.950 . S
H658 C654 0.950 . S
C659 C657 1.390 1_545 S
C659 C660 1.387 . S
C659 H662 0.950 . S
C660 C659 1.387 . S
C660 C663 1.387 . S
H661 C657 0.950 . S
H662 C659 0.950 . S
C663 C654 1.390 1_545 S
C663 H656 0.950 . S
C663 C660 1.387 . S
C664 C665 1.387 . S
C664 H668 0.950 . S
C664 C673 1.390 . S
C665 C664 1.387 . S
C665 C667 1.387 1_455 S
H666 C673 0.950 . S
C667 C665 1.387 1_655 S
C667 C669 1.390 . S
C667 H671 0.950 . S
H668 C664 0.950 . S
C669 C667 1.390 . S
C669 C670 1.387 . S
C669 H672 0.950 . S
C670 C669 1.387 . S
C670 C673 1.387 1_655 S
H671 C667 0.950 . S
H672 C669 0.950 . S
C673 C664 1.390 . S
C673 H666 0.950 . S
C673 C670 1.387 1_455 S
C674 C675 1.387 . S
C674 H678 0.950 . S
C674 C683 1.390 . S
C675 C674 1.387 . S
C675 C677 1.387 . S
H676 C683 0.950 . S
C677 C675 1.387 . S
C677 C679 1.390 . S
C677 H681 0.950 . S
H678 C674 0.950 . S
C679 C677 1.390 . S
C679 C680 1.387 . S
C679 H682 0.950 . S
C680 C679 1.387 . S
C680 C683 1.387 . S
H681 C677 0.950 . S
H682 C679 0.950 . S
C683 C674 1.390 . S
C683 H676 0.950 . S
C683 C680 1.387 . S
C684 C685 1.387 . S
C684 H688 0.950 . S
C684 C693 1.390 . S
C685 C684 1.387 . S
C685 C687 1.387 1_556 S
H686 C693 0.950 . S
C687 C685 1.387 1_554 S
C687 C689 1.390 . S
C687 H691 0.950 . S
H688 C684 0.950 . S
C689 C687 1.390 . S
C689 C690 1.387 . S
C689 H692 0.950 . S
C690 C689 1.387 . S
C690 C693 1.387 1_554 S
H691 C687 0.950 . S
H692 C689 0.950 . S
C693 C684 1.390 . S
C693 H686 0.950 . S
C693 C690 1.387 1_556 S
C694 C695 1.387 1_554 S
C694 H698 0.950 . S
C694 C703 1.390 . S
C695 C694 1.387 1_556 S
C695 C697 1.387 . S
H696 C703 0.950 . S
C697 C695 1.387 . S
C697 C699 1.390 . S
C697 H701 0.950 . S
H698 C694 0.950 . S
C699 C697 1.390 . S
C699 C700 1.387 1_556 S
C699 H702 0.950 . S
C700 C699 1.387 1_554 S
C700 C703 1.387 . S
H701 C697 0.950 . S
H702 C699 0.950 . S
C703 C694 1.390 . S
C703 H696 0.950 . S
C703 C700 1.387 . S
C704 C705 1.387 . S
C704 H708 0.950 . S
C704 C713 1.390 1_556 S
C705 C704 1.387 . S
C705 C707 1.387 1_556 S
H706 C713 0.950 . S
C707 C705 1.387 1_554 S
C707 C709 1.390 . S
C707 H711 0.950 . S
H708 C704 0.950 . S
C709 C707 1.390 . S
C709 C710 1.387 . S
C709 H712 0.950 . S
C710 C709 1.387 . S
C710 C713 1.387 . S
H711 C707 0.950 . S
H712 C709 0.950 . S
C713 C704 1.390 1_554 S
C713 H706 0.950 . S
C713 C710 1.387 . S
C714 C715 1.387 . S
C714 H718 0.950 . S
C714 C723 1.390 . S
C715 C714 1.387 . S
C715 C717 1.387 . S
H716 C723 0.950 . S
C717 C715 1.387 . S
C717 C719 1.390 . S
C717 H721 0.950 . S
H718 C714 0.950 . S
C719 C717 1.390 . S
C719 C720 1.387 . S
C719 H722 0.950 . S
C720 C719 1.387 . S
C720 C723 1.387 . S
H721 C717 0.950 . S
H722 C719 0.950 . S
C723 C714 1.390 . S
C723 H716 0.950 . S
C723 C720 1.387 . S
C724 C725 1.387 . S
C724 H728 0.950 . S
C724 C733 1.390 . S
C725 C724 1.387 . S
C725 C727 1.387 . S
H726 C733 0.950 . S
C727 C725 1.387 . S
C727 C729 1.390 . S
C727 H731 0.950 . S
H728 C724 0.950 . S
C729 C727 1.390 . S
C729 C730 1.387 . S
C729 H732 0.950 . S
C730 C729 1.387 . S
C730 C733 1.387 . S
H731 C727 0.950 . S
H732 C729 0.950 . S
C733 C724 1.390 . S
C733 H726 0.950 . S
C733 C730 1.387 . S
C734 C735 1.387 . S
C734 H738 0.950 . S
C734 C743 1.390 . S
C735 C734 1.387 . S
C735 C737 1.387 . S
H736 C743 0.950 . S
C737 C735 1.387 . S
C737 C739 1.390 . S
C737 H741 0.950 . S
H738 C734 0.950 . S
C739 C737 1.390 . S
C739 C740 1.387 . S
C739 H742 0.950 . S
C740 C739 1.387 . S
C740 C743 1.387 . S
H741 C737 0.950 . S
H742 C739 0.950 . S
C743 C734 1.390 . S
C743 H736 0.950 . S
C743 C740 1.387 . S
C744 C745 1.387 1_556 S
C744 H748 0.950 . S
C744 C753 1.390 . S
C745 C744 1.387 1_554 S
C745 C747 1.387 . S
H746 C753 0.950 . S
C747 C745 1.387 . S
C747 C749 1.390 . S
C747 H751 0.950 . S
H748 C744 0.950 . S
C749 C747 1.390 . S
C749 C750 1.387 1_554 S
C749 H752 0.950 . S
C750 C749 1.387 1_556 S
C750 C753 1.387 . S
H751 C747 0.950 . S
H752 C749 0.950 . S
C753 C744 1.390 . S
C753 H746 0.950 . S
C753 C750 1.387 . S
C754 C755 1.387 1_554 S
C754 H758 0.950 . S
C754 C763 1.390 . S
C755 C754 1.387 1_556 S
C755 C757 1.387 . S
H756 C763 0.950 . S
C757 C755 1.387 . S
C757 C759 1.390 . S
C757 H761 0.950 . S
H758 C754 0.950 . S
C759 C757 1.390 . S
C759 C760 1.387 1_556 S
C759 H762 0.950 . S
C760 C759 1.387 1_554 S
C760 C763 1.387 . S
H761 C757 0.950 . S
H762 C759 0.950 . S
C763 C754 1.390 . S
C763 H756 0.950 . S
C763 C760 1.387 . S
C764 C765 1.387 . S
C764 H768 0.950 . S
C764 C773 1.390 1_554 S
C765 C764 1.387 . S
C765 C767 1.387 1_554 S
H766 C773 0.950 . S
C767 C765 1.387 1_556 S
C767 C769 1.390 . S
C767 H771 0.950 . S
H768 C764 0.950 . S
C769 C767 1.390 . S
C769 C770 1.387 . S
C769 H772 0.950 . S
C770 C769 1.387 . S
C770 C773 1.387 . S
H771 C767 0.950 . S
H772 C769 0.950 . S
C773 C764 1.390 1_556 S
C773 H766 0.950 . S
C773 C770 1.387 . S
C774 C775 1.387 . S
C774 H778 0.950 . S
C774 C783 1.390 . S
C775 C774 1.387 . S
C775 C777 1.387 . S
H776 C783 0.950 . S
C777 C775 1.387 . S
C777 C779 1.390 . S
C777 H781 0.950 . S
H778 C774 0.950 . S
C779 C777 1.390 . S
C779 C780 1.387 . S
C779 H782 0.950 . S
C780 C779 1.387 . S
C780 C783 1.387 . S
H781 C777 0.950 . S
H782 C779 0.950 . S
C783 C774 1.390 . S
C783 H776 0.950 . S
C783 C780 1.387 . S
C784 C785 1.387 . S
C784 H788 0.950 . S
C784 C793 1.390 . S
C785 C784 1.387 . S
C785 C787 1.387 . S
H786 C793 0.950 . S
C787 C785 1.387 . S
C787 C789 1.390 . S
C787 H791 0.950 . S
H788 C784 0.950 . S
C789 C787 1.390 . S
C789 C790 1.387 . S
C789 H792 0.950 . S
C790 C789 1.387 . S
C790 C793 1.387 . S
H791 C787 0.950 . S
H792 C789 0.950 . S
C793 C784 1.390 . S
C793 H786 0.950 . S
C793 C790 1.387 . S
C794 C795 1.387 . S
C794 H798 0.950 . S
C794 C803 1.390 . S
C795 C794 1.387 . S
C795 C797 1.387 . S
H796 C803 0.950 . S
C797 C795 1.387 . S
C797 C799 1.390 . S
C797 H801 0.950 . S
H798 C794 0.950 . S
C799 C797 1.390 . S
C799 C800 1.387 . S
C799 H802 0.950 . S
C800 C799 1.387 . S
C800 C803 1.387 . S
H801 C797 0.950 . S
H802 C799 0.950 . S
C803 C794 1.390 . S
C803 H796 0.950 . S
C803 C800 1.387 . S
C804 C805 1.387 . S
C804 H808 0.950 . S
C804 C813 1.390 . S
C805 C804 1.387 . S
C805 C807 1.387 . S
H806 C813 0.950 . S
C807 C805 1.387 . S
C807 C809 1.390 . S
C807 H811 0.950 . S
H808 C804 0.950 . S
C809 C807 1.390 . S
C809 C810 1.387 . S
C809 H812 0.950 . S
C810 C809 1.387 . S
C810 C813 1.387 . S
H811 C807 0.950 . S
H812 C809 0.950 . S
C813 C804 1.390 . S
C813 H806 0.950 . S
C813 C810 1.387 . S
C814 C815 1.387 . S
C814 H818 0.950 . S
C814 C823 1.390 . S
C815 C814 1.387 . S
C815 C817 1.387 . S
H816 C823 0.950 . S
C817 C815 1.387 . S
C817 C819 1.390 . S
C817 H821 0.950 . S
H818 C814 0.950 . S
C819 C817 1.390 . S
C819 C820 1.387 . S
C819 H822 0.950 . S
C820 C819 1.387 . S
C820 C823 1.387 . S
H821 C817 0.950 . S
H822 C819 0.950 . S
C823 C814 1.390 . S
C823 H816 0.950 . S
C823 C820 1.387 . S
C824 C825 1.387 . S
C824 H828 0.950 . S
C824 C833 1.390 . S
C825 C824 1.387 . S
C825 C827 1.387 . S
H826 C833 0.950 . S
C827 C825 1.387 . S
C827 C829 1.390 . S
C827 H831 0.950 . S
H828 C824 0.950 . S
C829 C827 1.390 . S
C829 C830 1.387 . S
C829 H832 0.950 . S
C830 C829 1.387 . S
C830 C833 1.387 . S
H831 C827 0.950 . S
H832 C829 0.950 . S
C833 C824 1.390 . S
C833 H826 0.950 . S
C833 C830 1.387 . S
C834 C835 1.387 . S
C834 H838 0.950 . S
C834 C843 1.390 . S
C835 C834 1.387 . S
C835 C837 1.387 . S
H836 C843 0.950 . S
C837 C835 1.387 . S
C837 C839 1.390 . S
C837 H841 0.950 . S
H838 C834 0.950 . S
C839 C837 1.390 . S
C839 C840 1.387 . S
C839 H842 0.950 . S
C840 C839 1.387 . S
C840 C843 1.387 . S
H841 C837 0.950 . S
H842 C839 0.950 . S
C843 C834 1.390 . S
C843 H836 0.950 . S
C843 C840 1.387 . S
C844 C845 1.387 . S
C844 H848 0.950 . S
C844 C853 1.390 . S
C845 C844 1.387 . S
C845 C847 1.387 . S
H846 C853 0.950 . S
C847 C845 1.387 . S
C847 C849 1.390 . S
C847 H851 0.950 . S
H848 C844 0.950 . S
C849 C847 1.390 . S
C849 C850 1.387 . S
C849 H852 0.950 . S
C850 C849 1.387 . S
C850 C853 1.387 . S
H851 C847 0.950 . S
H852 C849 0.950 . S
C853 C844 1.390 . S
C853 H846 0.950 . S
C853 C850 1.387 . S
C854 C855 1.387 . S
C854 H858 0.950 . S
C854 C863 1.390 . S
C855 C854 1.387 . S
C855 C857 1.387 . S
H856 C863 0.950 . S
C857 C855 1.387 . S
C857 C859 1.390 . S
C857 H861 0.950 . S
H858 C854 0.950 . S
C859 C857 1.390 . S
C859 C860 1.387 . S
C859 H862 0.950 . S
C860 C859 1.387 . S
C860 C863 1.387 . S
H861 C857 0.950 . S
H862 C859 0.950 . S
C863 C854 1.390 . S
C863 H856 0.950 . S
C863 C860 1.387 . S
C864 C865 1.387 . S
C864 H868 0.950 . S
C864 C873 1.390 . S
C865 C864 1.387 . S
C865 C867 1.387 . S
H866 C873 0.950 . S
C867 C865 1.387 . S
C867 C869 1.390 . S
C867 H871 0.950 . S
H868 C864 0.950 . S
C869 C867 1.390 . S
C869 C870 1.387 . S
C869 H872 0.950 . S
C870 C869 1.387 . S
C870 C873 1.387 . S
H871 C867 0.950 . S
H872 C869 0.950 . S
C873 C864 1.390 . S
C873 H866 0.950 . S
C873 C870 1.387 . S
C874 C875 1.387 . S
C874 H878 0.950 . S
C874 C883 1.390 . S
C875 C874 1.387 . S
C875 C877 1.387 . S
H876 C883 0.950 . S
C877 C875 1.387 . S
C877 C879 1.390 . S
C877 H881 0.950 . S
H878 C874 0.950 . S
C879 C877 1.390 . S
C879 C880 1.387 . S
C879 H882 0.950 . S
C880 C879 1.387 . S
C880 C883 1.387 . S
H881 C877 0.950 . S
H882 C879 0.950 . S
C883 C874 1.390 . S
C883 H876 0.950 . S
C883 C880 1.387 . S
C884 C885 1.387 . S
C884 H888 0.950 . S
C884 C893 1.390 . S
C885 C884 1.387 . S
C885 C887 1.387 . S
H886 C893 0.950 . S
C887 C885 1.387 . S
C887 C889 1.390 . S
C887 H891 0.950 . S
H888 C884 0.950 . S
C889 C887 1.390 . S
C889 C890 1.387 . S
C889 H892 0.950 . S
C890 C889 1.387 . S
C890 C893 1.387 . S
H891 C887 0.950 . S
H892 C889 0.950 . S
C893 C884 1.390 . S
C893 H886 0.950 . S
C893 C890 1.387 . S
C894 C895 1.387 . S
C894 H898 0.950 . S
C894 C903 1.390 . S
C895 C894 1.387 . S
C895 C897 1.387 . S
H896 C903 0.950 . S
C897 C895 1.387 . S
C897 C899 1.390 . S
C897 H901 0.950 . S
H898 C894 0.950 . S
C899 C897 1.390 . S
C899 C900 1.387 . S
C899 H902 0.950 . S
C900 C899 1.387 . S
C900 C903 1.387 . S
H901 C897 0.950 . S
H902 C899 0.950 . S
C903 C894 1.390 . S
C903 H896 0.950 . S
C903 C900 1.387 . S
C904 C905 1.387 . S
C904 H908 0.950 . S
C904 C913 1.390 . S
C905 C904 1.387 . S
C905 C907 1.387 . S
H906 C913 0.950 . S
C907 C905 1.387 . S
C907 C909 1.390 . S
C907 H911 0.950 . S
H908 C904 0.950 . S
C909 C907 1.390 . S
C909 C910 1.387 . S
C909 H912 0.950 . S
C910 C909 1.387 . S
C910 C913 1.387 . S
H911 C907 0.950 . S
H912 C909 0.950 . S
C913 C904 1.390 . S
C913 H906 0.950 . S
C913 C910 1.387 . S
C914 C915 1.387 . S
C914 H918 0.950 . S
C914 C923 1.390 . S
C915 C914 1.387 . S
C915 C917 1.387 . S
H916 C923 0.950 . S
C917 C915 1.387 . S
C917 C919 1.390 . S
C917 H921 0.950 . S
H918 C914 0.950 . S
C919 C917 1.390 . S
C919 C920 1.387 . S
C919 H922 0.950 . S
C920 C919 1.387 . S
C920 C923 1.387 . S
H921 C917 0.950 . S
H922 C919 0.950 . S
C923 C914 1.390 . S
C923 H916 0.950 . S
C923 C920 1.387 . S
C924 C925 1.387 . S
C924 H928 0.950 . S
C924 C933 1.390 . S
C925 C924 1.387 . S
C925 C927 1.387 . S
H926 C933 0.950 . S
C927 C925 1.387 . S
C927 C929 1.390 . S
C927 H931 0.950 . S
H928 C924 0.950 . S
C929 C927 1.390 . S
C929 C930 1.387 . S
C929 H932 0.950 . S
C930 C929 1.387 . S
C930 C933 1.387 . S
H931 C927 0.950 . S
H932 C929 0.950 . S
C933 C924 1.390 . S
C933 H926 0.950 . S
C933 C930 1.387 . S
C934 C935 1.387 . S
C934 H938 0.950 . S
C934 C943 1.390 . S
C935 C934 1.387 . S
C935 C937 1.387 . S
H936 C943 0.950 . S
C937 C935 1.387 . S
C937 C939 1.390 . S
C937 H941 0.950 . S
H938 C934 0.950 . S
C939 C937 1.390 . S
C939 C940 1.387 . S
C939 H942 0.950 . S
C940 C939 1.387 . S
C940 C943 1.387 . S
H941 C937 0.950 . S
H942 C939 0.950 . S
C943 C934 1.390 . S
C943 H936 0.950 . S
C943 C940 1.387 . S
C944 C945 1.387 . S
C944 H948 0.950 . S
C944 C953 1.390 . S
C945 C944 1.387 . S
C945 C947 1.387 . S
H946 C953 0.950 . S
C947 C945 1.387 . S
C947 C949 1.390 . S
C947 H951 0.950 . S
H948 C944 0.950 . S
C949 C947 1.390 . S
C949 C950 1.387 . S
C949 H952 0.950 . S
C950 C949 1.387 . S
C950 C953 1.387 . S
H951 C947 0.950 . S
H952 C949 0.950 . S
C953 C944 1.390 . S
C953 H946 0.950 . S
C953 C950 1.387 . S
C954 C955 1.387 . S
C954 H958 0.950 . S
C954 C963 1.390 . S
C955 C954 1.387 . S
C955 C957 1.387 . S
H956 C963 0.950 . S
C957 C955 1.387 . S
C957 C959 1.390 . S
C957 H961 0.950 . S
H958 C954 0.950 . S
C959 C957 1.390 . S
C959 C960 1.387 . S
C959 H962 0.950 . S
C960 C959 1.387 . S
C960 C963 1.387 . S
H961 C957 0.950 . S
H962 C959 0.950 . S
C963 C954 1.390 . S
C963 H956 0.950 . S
C963 C960 1.387 . S
C964 C965 1.387 . S
C964 H968 0.950 . S
C964 C973 1.390 . S
C965 C964 1.387 . S
C965 C967 1.387 . S
H966 C973 0.950 . S
C967 C965 1.387 . S
C967 C969 1.390 . S
C967 H971 0.950 . S
H968 C964 0.950 . S
C969 C967 1.390 . S
C969 C970 1.387 . S
C969 H972 0.950 . S
C970 C969 1.387 . S
C970 C973 1.387 . S
H971 C967 0.950 . S
H972 C969 0.950 . S
C973 C964 1.390 . S
C973 H966 0.950 . S
C973 C970 1.387 . S
C974 C975 1.387 . S
C974 H978 0.950 . S
C974 C983 1.390 . S
C975 C974 1.387 . S
C975 C977 1.387 . S
H976 C983 0.950 . S
C977 C975 1.387 . S
C977 C979 1.390 . S
C977 H981 0.950 . S
H978 C974 0.950 . S
C979 C977 1.390 . S
C979 C980 1.387 . S
C979 H982 0.950 . S
C980 C979 1.387 . S
C980 C983 1.387 . S
H981 C977 0.950 . S
H982 C979 0.950 . S
C983 C974 1.390 . S
C983 H976 0.950 . S
C983 C980 1.387 . S
C984 C985 1.387 . S
C984 H988 0.950 . S
C984 C993 1.390 . S
C985 C984 1.387 . S
C985 C987 1.387 . S
H986 C993 0.950 . S
C987 C985 1.387 . S
C987 C989 1.390 . S
C987 H991 0.950 . S
H988 C984 0.950 . S
C989 C987 1.390 . S
C989 C990 1.387 . S
C989 H992 0.950 . S
C990 C989 1.387 . S
C990 C993 1.387 . S
H991 C987 0.950 . S
H992 C989 0.950 . S
C993 C984 1.390 . S
C993 H986 0.950 . S
C993 C990 1.387 . S
C994 C995 1.387 . S
C994 H998 0.950 . S
C994 C1003 1.390 . S
C995 C994 1.387 . S
C995 C997 1.387 . S
H996 C1003 0.950 . S
C997 C995 1.387 . S
C997 C999 1.390 . S
C997 H1001 0.950 . S
H998 C994 0.950 . S
C999 C997 1.390 . S
C999 C1000 1.387 . S
C999 H1002 0.950 . S
C1000 C999 1.387 . S
C1000 C1003 1.387 . S
H1001 C997 0.950 . S
H1002 C999 0.950 . S
C1003 C994 1.390 . S
C1003 H996 0.950 . S
C1003 C1000 1.387 . S
C1004 C1005 1.387 . S
C1004 H1008 0.950 . S
C1004 C1013 1.390 . S
C1005 C1004 1.387 . S
C1005 C1007 1.387 . S
H1006 C1013 0.950 . S
C1007 C1005 1.387 . S
C1007 C1009 1.390 . S
C1007 H1011 0.950 . S
H1008 C1004 0.950 . S
C1009 C1007 1.390 . S
C1009 C1010 1.387 . S
C1009 H1012 0.950 . S
C1010 C1009 1.387 . S
C1010 C1013 1.387 . S
H1011 C1007 0.950 . S
H1012 C1009 0.950 . S
C1013 C1004 1.390 . S
C1013 H1006 0.950 . S
C1013 C1010 1.387 . S
C1014 C1015 1.387 . S
C1014 H1018 0.950 . S
C1014 C1023 1.390 . S
C1015 C1014 1.387 . S
C1015 C1017 1.387 . S
H1016 C1023 0.950 . S
C1017 C1015 1.387 . S
C1017 C1019 1.390 . S
C1017 H1021 0.950 . S
H1018 C1014 0.950 . S
C1019 C1017 1.390 . S
C1019 C1020 1.387 . S
C1019 H1022 0.950 . S
C1020 C1019 1.387 . S
C1020 C1023 1.387 . S
H1021 C1017 0.950 . S
H1022 C1019 0.950 . S
C1023 C1014 1.390 . S
C1023 H1016 0.950 . S
C1023 C1020 1.387 . S
C1024 C1025 1.387 . S
C1024 H1028 0.950 . S
C1024 C1033 1.390 . S
C1025 C1024 1.387 . S
C1025 C1027 1.387 . S
H1026 C1033 0.950 . S
C1027 C1025 1.387 . S
C1027 C1029 1.390 . S
C1027 H1031 0.950 . S
H1028 C1024 0.950 . S
C1029 C1027 1.390 . S
C1029 C1030 1.387 . S
C1029 H1032 0.950 . S
C1030 C1029 1.387 . S
C1030 C1033 1.387 . S
H1031 C1027 0.950 . S
H1032 C1029 0.950 . S
C1033 C1024 1.390 . S
C1033 H1026 0.950 . S
C1033 C1030 1.387 . S
C1034 C1035 1.387 . S
C1034 H1038 0.950 . S
C1034 C1043 1.390 . S
C1035 C1034 1.387 . S
C1035 C1037 1.387 . S
H1036 C1043 0.950 . S
C1037 C1035 1.387 . S
C1037 C1039 1.390 . S
C1037 H1041 0.950 . S
H1038 C1034 0.950 . S
C1039 C1037 1.390 . S
C1039 C1040 1.387 . S
C1039 H1042 0.950 . S
C1040 C1039 1.387 . S
C1040 C1043 1.387 . S
H1041 C1037 0.950 . S
H1042 C1039 0.950 . S
C1043 C1034 1.390 . S
C1043 H1036 0.950 . S
C1043 C1040 1.387 . S
C1044 C1045 1.387 . S
C1044 H1048 0.950 . S
C1044 C1053 1.390 . S
C1045 C1044 1.387 . S
C1045 C1047 1.387 . S
H1046 C1053 0.950 . S
C1047 C1045 1.387 . S
C1047 C1049 1.390 . S
C1047 H1051 0.950 . S
H1048 C1044 0.950 . S
C1049 C1047 1.390 . S
C1049 C1050 1.387 . S
C1049 H1052 0.950 . S
C1050 C1049 1.387 . S
C1050 C1053 1.387 . S
H1051 C1047 0.950 . S
H1052 C1049 0.950 . S
C1053 C1044 1.390 . S
C1053 H1046 0.950 . S
C1053 C1050 1.387 . S
C1054 C1055 1.387 . S
C1054 H1058 0.950 . S
C1054 C1063 1.390 1_545 S
C1055 C1054 1.387 . S
C1055 C1057 1.387 . S
H1056 C1063 0.950 . S
C1057 C1055 1.387 . S
C1057 C1059 1.390 1_545 S
C1057 H1061 0.950 . S
H1058 C1054 0.950 . S
C1059 C1057 1.390 1_565 S
C1059 C1060 1.387 . S
C1059 H1062 0.950 . S
C1060 C1059 1.387 . S
C1060 C1063 1.387 . S
H1061 C1057 0.950 . S
H1062 C1059 0.950 . S
C1063 C1054 1.390 1_565 S
C1063 H1056 0.950 . S
C1063 C1060 1.387 . S
C1064 C1065 1.387 . S
C1064 H1068 0.950 . S
C1064 C1073 1.390 . S
C1065 C1064 1.387 . S
C1065 C1067 1.387 1_455 S
H1066 C1073 0.950 . S
C1067 C1065 1.387 1_655 S
C1067 C1069 1.390 . S
C1067 H1071 0.950 . S
H1068 C1064 0.950 . S
C1069 C1067 1.390 . S
C1069 C1070 1.387 . S
C1069 H1072 0.950 . S
C1070 C1069 1.387 . S
C1070 C1073 1.387 1_655 S
H1071 C1067 0.950 . S
H1072 C1069 0.950 . S
C1073 C1064 1.390 . S
C1073 H1066 0.950 . S
C1073 C1070 1.387 1_455 S
C1074 C1075 1.387 . S
C1074 H1078 0.950 . S
C1074 C1083 1.390 . S
C1075 C1074 1.387 . S
C1075 C1077 1.387 . S
H1076 C1083 0.950 . S
C1077 C1075 1.387 . S
C1077 C1079 1.390 . S
C1077 H1081 0.950 . S
H1078 C1074 0.950 . S
C1079 C1077 1.390 . S
C1079 C1080 1.387 . S
C1079 H1082 0.950 . S
C1080 C1079 1.387 . S
C1080 C1083 1.387 . S
H1081 C1077 0.950 . S
H1082 C1079 0.950 . S
C1083 C1074 1.390 . S
C1083 H1076 0.950 . S
C1083 C1080 1.387 . S
C1084 C1085 1.387 . S
C1084 H1088 0.950 . S
C1084 C1093 1.390 1_545 S
C1085 C1084 1.387 . S
C1085 C1087 1.387 . S
H1086 C1093 0.950 . S
C1087 C1085 1.387 . S
C1087 C1089 1.390 1_545 S
C1087 H1091 0.950 . S
H1088 C1084 0.950 . S
C1089 C1087 1.390 1_565 S
C1089 C1090 1.387 . S
C1089 H1092 0.950 . S
C1090 C1089 1.387 . S
C1090 C1093 1.387 . S
H1091 C1087 0.950 . S
H1092 C1089 0.950 . S
C1093 C1084 1.390 1_565 S
C1093 H1086 0.950 . S
C1093 C1090 1.387 . S
C1094 C1095 1.387 1_455 S
C1094 H1098 0.950 . S
C1094 C1103 1.390 . S
C1095 C1094 1.387 1_655 S
C1095 C1097 1.387 . S
H1096 C1103 0.950 . S
C1097 C1095 1.387 . S
C1097 C1099 1.390 . S
C1097 H1101 0.950 . S
H1098 C1094 0.950 . S
C1099 C1097 1.390 . S
C1099 C1100 1.387 1_655 S
C1099 H1102 0.950 . S
C1100 C1099 1.387 1_455 S
C1100 C1103 1.387 . S
H1101 C1097 0.950 . S
H1102 C1099 0.950 . S
C1103 C1094 1.390 . S
C1103 H1096 0.950 . S
C1103 C1100 1.387 . S
C1104 C1105 1.387 . S
C1104 H1108 0.950 . S
C1104 C1113 1.390 . S
C1105 C1104 1.387 . S
C1105 C1107 1.387 . S
H1106 C1113 0.950 . S
C1107 C1105 1.387 . S
C1107 C1109 1.390 . S
C1107 H1111 0.950 . S
H1108 C1104 0.950 . S
C1109 C1107 1.390 . S
C1109 C1110 1.387 . S
C1109 H1112 0.950 . S
C1110 C1109 1.387 . S
C1110 C1113 1.387 . S
H1111 C1107 0.950 . S
H1112 C1109 0.950 . S
C1113 C1104 1.390 . S
C1113 H1106 0.950 . S
C1113 C1110 1.387 . S
C1114 C1115 1.387 . S
C1114 H1118 0.950 . S
C1114 C1123 1.390 . S
C1115 C1114 1.387 . S
C1115 C1117 1.387 . S
H1116 C1123 0.950 . S
C1117 C1115 1.387 . S
C1117 C1119 1.390 . S
C1117 H1121 0.950 . S
H1118 C1114 0.950 . S
C1119 C1117 1.390 . S
C1119 C1120 1.387 . S
C1119 H1122 0.950 . S
C1120 C1119 1.387 . S
C1120 C1123 1.387 . S
H1121 C1117 0.950 . S
H1122 C1119 0.950 . S
C1123 C1114 1.390 . S
C1123 H1116 0.950 . S
C1123 C1120 1.387 . S
C1124 C1125 1.387 . S
C1124 H1128 0.950 . S
C1124 C1133 1.390 . S
C1125 C1124 1.387 . S
C1125 C1127 1.387 . S
H1126 C1133 0.950 . S
C1127 C1125 1.387 . S
C1127 C1129 1.390 . S
C1127 H1131 0.950 . S
H1128 C1124 0.950 . S
C1129 C1127 1.390 . S
C1129 C1130 1.387 . S
C1129 H1132 0.950 . S
C1130 C1129 1.387 . S
C1130 C1133 1.387 . S
H1131 C1127 0.950 . S
H1132 C1129 0.950 . S
C1133 C1124 1.390 . S
C1133 H1126 0.950 . S
C1133 C1130 1.387 . S
C1134 C1135 1.387 . S
C1134 H1138 0.950 . S
C1134 C1143 1.390 . S
C1135 C1134 1.387 . S
C1135 C1137 1.387 . S
H1136 C1143 0.950 . S
C1137 C1135 1.387 . S
C1137 C1139 1.390 . S
C1137 H1141 0.950 . S
H1138 C1134 0.950 . S
C1139 C1137 1.390 . S
C1139 C1140 1.387 . S
C1139 H1142 0.950 . S
C1140 C1139 1.387 . S
C1140 C1143 1.387 . S
H1141 C1137 0.950 . S
H1142 C1139 0.950 . S
C1143 C1134 1.390 . S
C1143 H1136 0.950 . S
C1143 C1140 1.387 . S
C1144 C1145 1.387 . S
C1144 H1148 0.950 . S
C1144 C1153 1.390 . S
C1145 C1144 1.387 . S
C1145 C1147 1.387 . S
H1146 C1153 0.950 . S
C1147 C1145 1.387 . S
C1147 C1149 1.390 . S
C1147 H1151 0.950 . S
H1148 C1144 0.950 . S
C1149 C1147 1.390 . S
C1149 C1150 1.387 . S
C1149 H1152 0.950 . S
C1150 C1149 1.387 . S
C1150 C1153 1.387 . S
H1151 C1147 0.950 . S
H1152 C1149 0.950 . S
C1153 C1144 1.390 . S
C1153 H1146 0.950 . S
C1153 C1150 1.387 . S
C1154 C1155 1.387 . S
C1154 H1158 0.950 . S
C1154 C1163 1.390 . S
C1155 C1154 1.387 . S
C1155 C1157 1.387 . S
H1156 C1163 0.950 . S
C1157 C1155 1.387 . S
C1157 C1159 1.390 . S
C1157 H1161 0.950 . S
H1158 C1154 0.950 . S
C1159 C1157 1.390 . S
C1159 C1160 1.387 . S
C1159 H1162 0.950 . S
C1160 C1159 1.387 . S
C1160 C1163 1.387 . S
H1161 C1157 0.950 . S
H1162 C1159 0.950 . S
C1163 C1154 1.390 . S
C1163 H1156 0.950 . S
C1163 C1160 1.387 . S
C1164 C1165 1.387 . S
C1164 H1168 0.950 . S
C1164 C1173 1.390 . S
C1165 C1164 1.387 . S
C1165 C1167 1.387 . S
H1166 C1173 0.950 . S
C1167 C1165 1.387 . S
C1167 C1169 1.390 . S
C1167 H1171 0.950 . S
H1168 C1164 0.950 . S
C1169 C1167 1.390 . S
C1169 C1170 1.387 . S
C1169 H1172 0.950 . S
C1170 C1169 1.387 . S
C1170 C1173 1.387 . S
H1171 C1167 0.950 . S
H1172 C1169 0.950 . S
C1173 C1164 1.390 . S
C1173 H1166 0.950 . S
C1173 C1170 1.387 . S
C1174 C1175 1.387 . S
C1174 H1178 0.950 . S
C1174 C1183 1.390 . S
C1175 C1174 1.387 . S
C1175 C1177 1.387 . S
H1176 C1183 0.950 . S
C1177 C1175 1.387 . S
C1177 C1179 1.390 . S
C1177 H1181 0.950 . S
H1178 C1174 0.950 . S
C1179 C1177 1.390 . S
C1179 C1180 1.387 . S
C1179 H1182 0.950 . S
C1180 C1179 1.387 . S
C1180 C1183 1.387 . S
H1181 C1177 0.950 . S
H1182 C1179 0.950 . S
C1183 C1174 1.390 . S
C1183 H1176 0.950 . S
C1183 C1180 1.387 . S
C1184 C1185 1.387 . S
C1184 H1188 0.950 . S
C1184 C1193 1.390 . S
C1185 C1184 1.387 . S
C1185 C1187 1.387 . S
H1186 C1193 0.950 . S
C1187 C1185 1.387 . S
C1187 C1189 1.390 . S
C1187 H1191 0.950 . S
H1188 C1184 0.950 . S
C1189 C1187 1.390 . S
C1189 C1190 1.387 . S
C1189 H1192 0.950 . S
C1190 C1189 1.387 . S
C1190 C1193 1.387 . S
H1191 C1187 0.950 . S
H1192 C1189 0.950 . S
C1193 C1184 1.390 . S
C1193 H1186 0.950 . S
C1193 C1190 1.387 . S
C1194 C1195 1.387 . S
C1194 H1198 0.950 . S
C1194 C1203 1.390 . S
C1195 C1194 1.387 . S
C1195 C1197 1.387 . S
H1196 C1203 0.950 . S
C1197 C1195 1.387 . S
C1197 C1199 1.390 . S
C1197 H1201 0.950 . S
H1198 C1194 0.950 . S
C1199 C1197 1.390 . S
C1199 C1200 1.387 . S
C1199 H1202 0.950 . S
C1200 C1199 1.387 . S
C1200 C1203 1.387 . S
H1201 C1197 0.950 . S
H1202 C1199 0.950 . S
C1203 C1194 1.390 . S
C1203 H1196 0.950 . S
C1203 C1200 1.387 . S
C1204 C1205 1.387 . S
C1204 H1208 0.950 . S
C1204 C1213 1.390 . S
C1205 C1204 1.387 . S
C1205 C1207 1.387 . S
H1206 C1213 0.950 . S
C1207 C1205 1.387 . S
C1207 C1209 1.390 . S
C1207 H1211 0.950 . S
H1208 C1204 0.950 . S
C1209 C1207 1.390 . S
C1209 C1210 1.387 . S
C1209 H1212 0.950 . S
C1210 C1209 1.387 . S
C1210 C1213 1.387 . S
H1211 C1207 0.950 . S
H1212 C1209 0.950 . S
C1213 C1204 1.390 . S
C1213 H1206 0.950 . S
C1213 C1210 1.387 . S
C1214 C1215 1.387 . S
C1214 H1218 0.950 . S
C1214 C1223 1.390 . S
C1215 C1214 1.387 . S
C1215 C1217 1.387 . S
H1216 C1223 0.950 . S
C1217 C1215 1.387 . S
C1217 C1219 1.390 . S
C1217 H1221 0.950 . S
H1218 C1214 0.950 . S
C1219 C1217 1.390 . S
C1219 C1220 1.387 . S
C1219 H1222 0.950 . S
C1220 C1219 1.387 . S
C1220 C1223 1.387 . S
H1221 C1217 0.950 . S
H1222 C1219 0.950 . S
C1223 C1214 1.390 . S
C1223 H1216 0.950 . S
C1223 C1220 1.387 . S
C505 C235 1.251 . S
C510 C11 1.253 . S
C515 C249 1.250 . S
C520 C25 1.252 . S
C525 C39 1.251 . S
C530 C221 1.251 . S
C535 C375 1.251 . S
C540 C53 1.251 . S
C545 C347 1.251 . S
C550 C67 1.251 . S
C555 C81 1.253 . S
C560 C361 1.252 . S
C565 C487 1.253 . S
C570 C95 1.252 . S
C575 C501 1.250 . S
C580 C109 1.251 . S
C585 C473 1.252 . S
C590 C123 1.252 . S
C595 C291 1.251 . S
C600 C137 1.251 . S
C605 C151 1.251 . S
C610 C263 1.251 . S
C615 C277 1.251 . S
C620 C165 1.253 . S
C625 C403 1.252 . S
C630 C179 1.251 . S
C635 C193 1.252 . S
C640 C417 1.252 . S
C645 C389 1.251 . S
C650 C207 1.251 . S
C655 C459 1.252 . S
C660 C305 1.252 . S
C665 C431 1.253 . S
C670 C319 1.251 . S
C675 C333 1.252 . S
C680 C445 1.252 . S
C685 C98 1.524 . S
C690 C9 1.535 . S
C695 C112 1.522 . S
C700 C23 1.534 . S
C705 C84 1.523 . S
C710 C37 1.535 . S
C715 C51 1.535 . S
C720 C154 1.523 . S
C725 C126 1.522 . S
C730 C65 1.533 . S
C735 C79 1.533 . S
C740 C140 1.524 . S
C745 C14 1.524 . S
C750 C93 1.534 . S
C755 C107 1.534 . S
C760 C28 1.522 . S
C765 C0 1.523 . S
C770 C121 1.533 . S
C775 C70 1.523 . S
C780 C135 1.533 . S
C785 C42 1.524 . S
C790 C149 1.534 . S
C795 C163 1.534 . S
C800 C56 1.522 . S
C805 C177 1.533 . S
C810 C266 1.522 . S
C815 C280 1.524 . S
C820 C191 1.535 . S
C825 C252 1.523 . S
C830 C205 1.533 . S
C835 C219 1.535 . S
C840 C322 1.523 . S
C845 C294 1.524 . S
C850 C233 1.535 . S
C855 C247 1.533 . S
C860 C308 1.522 . S
C865 C261 1.533 . S
C870 C182 1.522 . S
C875 C275 1.535 . S
C880 C196 1.524 . S
C885 C168 1.523 . S
C890 C289 1.533 . S
C895 C238 1.524 . S
C900 C303 1.534 . S
C905 C210 1.522 . S
C910 C317 1.533 . S
C915 C331 1.534 . S
C920 C224 1.522 . S
C925 C434 1.524 . S
C930 C345 1.534 . S
C935 C359 1.534 . S
C940 C448 1.522 . S
C945 C373 1.533 . S
C950 C420 1.523 . S
C955 C490 1.523 . S
C960 C387 1.535 . S
C965 C401 1.533 . S
C970 C462 1.522 . S
C975 C476 1.522 . S
C980 C415 1.533 . S
C985 C350 1.524 . S
C990 C429 1.535 . S
C995 C364 1.522 . S
C1000 C443 1.533 . S
C1005 C457 1.534 . S
C1010 C336 1.524 . S
C1015 C471 1.535 . S
C1020 C406 1.523 . S
C1025 C378 1.522 . S
C1030 C485 1.533 . S
C1035 C392 1.524 . S
C1040 C499 1.535 . S
C1045 C5 1.566 . S
C1050 C47 1.566 . S
C1055 C19 1.565 . S
C1060 C61 1.565 . S
C1065 C75 1.565 . S
C1070 C33 1.565 . S
C1075 C89 1.566 . S
C1080 C131 1.566 . S
C1085 C145 1.566 . S
C1090 C103 1.566 . S
C1095 C159 1.565 . S
C1100 C117 1.565 . S
C1105 C173 1.565 . S
C1110 C215 1.565 . S
C1115 C187 1.565 . S
C1120 C229 1.565 . S
C1125 C243 1.565 . S
C1130 C201 1.565 . S
C1135 C257 1.565 . S
C1140 C299 1.565 1_554 S
C1145 C271 1.566 . S
C1150 C313 1.566 1_554 S
C1155 C285 1.566 . S
C1160 C327 1.566 1_554 S
C1165 C383 1.566 1_556 S
C1170 C341 1.566 . S
C1175 C397 1.566 1_556 S
C1180 C355 1.566 . S
C1185 C411 1.566 1_556 S
C1190 C369 1.566 . S
C1195 C425 1.565 . S
C1200 C467 1.565 . S
C1205 C481 1.565 . S
C1210 C439 1.565 . S
C1215 C495 1.566 . S
C1220 C453 1.566 . S
