# Generated by pormake.
# Topology wjd, (6)-cn, num edge types: 1
# Building blocks:
#     Node 0, Type 0, BuildingBlock: KUMJIN_clean_sbu_0, # of connection points: 6
#     Node 1, Type 0, BuildingBlock: KUMJIN_clean_sbu_0, # of connection points: 6
#     Node 2, Type 0, BuildingBlock: KUMJIN_clean_sbu_0, # of connection points: 6
#     Node 3, Type 0, BuildingBlock: KUMJIN_clean_sbu_0, # of connection points: 6
#     Node 4, Type 0, BuildingBlock: KUMJIN_clean_sbu_0, # of connection points: 6
#     Node 5, Type 0, BuildingBlock: KUMJIN_clean_sbu_0, # of connection points: 6
#     Node 6, Type 0, BuildingBlock: KUMJIN_clean_sbu_0, # of connection points: 6
#     Node 7, Type 0, BuildingBlock: KUMJIN_clean_sbu_0, # of connection points: 6
#     Node 8, Type 0, BuildingBlock: KUMJIN_clean_sbu_0, # of connection points: 6
#     Node 9, Type 0, BuildingBlock: KUMJIN_clean_sbu_0, # of connection points: 6
#     Node 10, Type 0, BuildingBlock: KUMJIN_clean_sbu_0, # of connection points: 6
#     Node 11, Type 0, BuildingBlock: KUMJIN_clean_sbu_0, # of connection points: 6
#     Edge 12, Type (0, 0), BuildingBlock: TEMPAE_clean_linker_10, # of connection points: 2
#     Edge 13, Type (0, 0), BuildingBlock: TEMPAE_clean_linker_10, # of connection points: 2
#     Edge 14, Type (0, 0), BuildingBlock: TEMPAE_clean_linker_10, # of connection points: 2
#     Edge 15, Type (0, 0), BuildingBlock: TEMPAE_clean_linker_10, # of connection points: 2
#     Edge 16, Type (0, 0), BuildingBlock: TEMPAE_clean_linker_10, # of connection points: 2
#     Edge 17, Type (0, 0), BuildingBlock: TEMPAE_clean_linker_10, # of connection points: 2
#     Edge 18, Type (0, 0), BuildingBlock: TEMPAE_clean_linker_10, # of connection points: 2
#     Edge 19, Type (0, 0), BuildingBlock: TEMPAE_clean_linker_10, # of connection points: 2
#     Edge 20, Type (0, 0), BuildingBlock: TEMPAE_clean_linker_10, # of connection points: 2
#     Edge 21, Type (0, 0), BuildingBlock: TEMPAE_clean_linker_10, # of connection points: 2
#     Edge 22, Type (0, 0), BuildingBlock: TEMPAE_clean_linker_10, # of connection points: 2
#     Edge 23, Type (0, 0), BuildingBlock: TEMPAE_clean_linker_10, # of connection points: 2
#     Edge 24, Type (0, 0), BuildingBlock: TEMPAE_clean_linker_10, # of connection points: 2
#     Edge 25, Type (0, 0), BuildingBlock: TEMPAE_clean_linker_10, # of connection points: 2
#     Edge 26, Type (0, 0), BuildingBlock: TEMPAE_clean_linker_10, # of connection points: 2
#     Edge 27, Type (0, 0), BuildingBlock: TEMPAE_clean_linker_10, # of connection points: 2
#     Edge 28, Type (0, 0), BuildingBlock: TEMPAE_clean_linker_10, # of connection points: 2
#     Edge 29, Type (0, 0), BuildingBlock: TEMPAE_clean_linker_10, # of connection points: 2
#     Edge 30, Type (0, 0), BuildingBlock: TEMPAE_clean_linker_10, # of connection points: 2
#     Edge 31, Type (0, 0), BuildingBlock: TEMPAE_clean_linker_10, # of connection points: 2
#     Edge 32, Type (0, 0), BuildingBlock: TEMPAE_clean_linker_10, # of connection points: 2
#     Edge 33, Type (0, 0), BuildingBlock: TEMPAE_clean_linker_10, # of connection points: 2
#     Edge 34, Type (0, 0), BuildingBlock: TEMPAE_clean_linker_10, # of connection points: 2
#     Edge 35, Type (0, 0), BuildingBlock: TEMPAE_clean_linker_10, # of connection points: 2
#     Edge 36, Type (0, 0), BuildingBlock: TEMPAE_clean_linker_10, # of connection points: 2
#     Edge 37, Type (0, 0), BuildingBlock: TEMPAE_clean_linker_10, # of connection points: 2
#     Edge 38, Type (0, 0), BuildingBlock: TEMPAE_clean_linker_10, # of connection points: 2
#     Edge 39, Type (0, 0), BuildingBlock: TEMPAE_clean_linker_10, # of connection points: 2
#     Edge 40, Type (0, 0), BuildingBlock: TEMPAE_clean_linker_10, # of connection points: 2
#     Edge 41, Type (0, 0), BuildingBlock: TEMPAE_clean_linker_10, # of connection points: 2
#     Edge 42, Type (0, 0), BuildingBlock: TEMPAE_clean_linker_10, # of connection points: 2
#     Edge 43, Type (0, 0), BuildingBlock: TEMPAE_clean_linker_10, # of connection points: 2
#     Edge 44, Type (0, 0), BuildingBlock: TEMPAE_clean_linker_10, # of connection points: 2
#     Edge 45, Type (0, 0), BuildingBlock: TEMPAE_clean_linker_10, # of connection points: 2
#     Edge 46, Type (0, 0), BuildingBlock: TEMPAE_clean_linker_10, # of connection points: 2
#     Edge 47, Type (0, 0), BuildingBlock: TEMPAE_clean_linker_10, # of connection points: 2
# Relax obj value: 0.097
# Max RMSD: 0.214
# Mean RMSD: 0.214
data_MOF--net-wjd--node1-KUMJIN_clean_sbu_0--edge1-TEMPAE_clean_linker_10
_symmetry_space_group_name_H-M    P1
_symmetry_Int_Tables_number       1
_symmetry_cell_setting            triclinic
loop_
_symmetry_equiv_pos_as_xyz
'x, y, z'
_cell_length_a     38.909645
_cell_length_b     38.968291
_cell_length_c     55.491665
_cell_angle_alpha  90.039474
_cell_angle_beta   89.932164
_cell_angle_gamma 119.96198
loop_
_atom_site_label
_atom_site_type_symbol
_atom_site_fract_x
_atom_site_fract_y
_atom_site_fract_z
_atom_type_partial_charge
Eu0 Eu 0.37481 0.19106 0.10706 0.0
C1 C 0.35255 0.0568 0.17761 0.0
C2 C 0.39067 0.03031 0.15898 0.0
C3 C 0.38314 0.02813 0.20252 0.0
C4 C 0.36786 0.04918 0.15715 0.0
C5 C 0.35899 0.0453 0.20046 0.0
C6 C 0.39911 0.0208 0.18181 0.0
C7 C 0.31475 0.06575 0.21731 0.0
N8 N 0.32938 0.07346 0.175 0.0
C9 C 0.30965 0.07716 0.19432 0.0
C10 C 0.33989 0.0502 0.22043 0.0
Eu11 Eu 0.32237 0.0924 0.1356 0.0
N12 N 0.35848 0.05807 0.13538 0.0
C13 C 0.36854 0.0462 0.11467 0.0
C14 C 0.40321 0.0204 0.13778 0.0
C15 C 0.3916 0.02787 0.11554 0.0
H16 H 0.29026 0.08928 0.19208 0.0
H17 H 0.40046 0.01961 0.09903 0.0
H18 H 0.41693 1.00669 0.18358 0.0
H19 H 0.29914 0.06875 0.23258 0.0
H20 H 0.36001 0.05184 0.0973 0.0
H21 H 0.33445 0.29376 0.14585 0.0
H22 H 0.42084 1.00596 0.13841 0.0
H23 H 0.39316 0.18238 0.04882 0.0
H24 H 0.35275 0.24194 0.14641 0.0
H25 H 0.37904 0.19948 0.00859 0.0
H26 H 0.38884 0.01954 0.21998 0.0
H27 H 0.31789 0.31376 0.10726 0.0
H28 H 0.30526 0.3025 0.06293 0.0
H29 H 0.34349 0.04109 0.23819 0.0
H30 H 0.31501 0.27463 0.0255 0.0
N31 N 0.34558 0.23152 0.10861 0.0
C32 C 0.34442 0.24938 0.12953 0.0
C33 C 0.32423 0.2897 0.10756 0.0
C34 C 0.32438 0.27064 0.08627 0.0
C35 C 0.33407 0.27887 0.1293 0.0
C36 C 0.33656 0.24213 0.08726 0.0
H37 H 0.34301 0.23656 1.00502 0.0
N38 N 0.36193 0.20596 0.06771 0.0
C39 C 0.36866 0.20738 0.02461 0.0
C40 C 0.34367 0.22777 0.06618 0.0
C41 C 0.3765 0.19766 0.0474 0.0
C42 C 0.34813 0.22811 0.02268 0.0
C43 C 0.33663 0.23982 0.0436 0.0
O44 O 0.4347 0.23006 0.09296 0.0
O45 O 0.38106 0.14129 0.12202 0.0
O46 O 0.36639 0.13332 0.16269 0.0
O47 O 0.37525 0.19395 0.14925 0.0
O48 O 0.41063 0.16613 0.09028 0.0
O49 O 0.41689 0.24575 0.12594 0.0
O50 O 0.25927 0.05826 0.14469 0.0
O51 O 0.31697 0.14356 0.12116 0.0
O52 O 0.3304 0.14535 0.07988 0.0
O53 O 0.32373 0.08665 0.09508 0.0
O54 O 0.2879 0.1189 0.1531 0.0
O55 O 0.28372 0.03429 0.11931 0.0
C56 C 0.40449 0.14017 0.10658 0.0
C57 C 0.45984 0.29879 0.10036 0.0
C58 C 0.50449 0.37085 0.10387 0.0
C59 C 0.49148 0.33177 0.11213 0.0
C60 C 0.48546 0.37617 0.08388 0.0
C61 C 0.4426 0.3055 0.08003 0.0
C62 C 0.45499 0.34378 0.07204 0.0
C63 C 0.37709 0.1708 0.16641 0.0
C64 C 0.44397 0.25752 0.10924 0.0
C65 C 0.32088 0.26528 0.04265 0.0
C66 C 0.31532 0.28115 0.06395 0.0
C67 C 0.29486 0.14562 0.13717 0.0
C68 C 0.22952 0.98885 0.14336 0.0
C69 C 0.1885 0.96447 0.13889 0.0
C70 C 0.16649 0.92769 0.15084 0.0
C71 C 0.18625 0.91654 0.16768 0.0
C72 C 0.24834 0.97638 0.15979 0.0
C73 C 0.22676 0.94058 0.17197 0.0
C74 C 0.31997 0.10733 0.07757 0.0
C75 C 0.25237 0.02782 0.13154 0.0
H76 H 0.50561 0.32712 0.12761 0.0
H77 H 0.49498 0.40557 0.07694 0.0
H78 H 0.41966 0.28113 0.07011 0.0
H79 H 0.44113 0.34833 0.05641 0.0
H80 H 0.17403 0.97389 0.12596 0.0
H81 H 0.17031 0.88916 0.17772 0.0
H82 H 0.27971 0.99442 0.16333 0.0
H83 H 0.24148 0.93143 0.18485 0.0
Eu84 Eu 0.8012 0.71097 0.37731 0.0
C85 C 0.91097 0.68769 0.4495 0.0
C86 C 0.97633 0.71169 0.43266 0.0
C87 C 0.96812 0.7113 0.47605 0.0
C88 C 0.93547 0.6977 0.42959 0.0
C89 C 0.92693 0.69365 0.47297 0.0
C90 C 0.99275 0.7198 0.4559 0.0
C91 C 0.86009 0.65753 0.4885 0.0
N92 N 0.87122 0.66793 0.44585 0.0
C93 C 0.84577 0.651 0.46487 0.0
C94 C 0.90088 0.67944 0.4926 0.0
Eu95 Eu 0.84894 0.65888 0.40524 0.0
N96 N 0.91876 0.68937 0.40732 0.0
C97 C 0.94084 0.69218 0.38752 0.0
C98 C 0.99892 0.71433 0.41245 0.0
C99 C 0.98098 0.70409 0.38982 0.0
H100 H 0.81421 0.63351 0.46185 0.0
H101 H 0.99777 0.70444 0.37419 0.0
H102 H 0.02422 0.73125 0.45853 0.0
H103 H 0.83969 0.64522 0.50349 0.0
H104 H 0.92733 0.68401 0.36993 0.0
H105 H 0.64731 0.62384 0.40786 0.0
H106 H 0.02976 0.72249 0.41436 0.0
H107 H 0.83268 0.75645 0.32428 0.0
H108 H 0.71959 0.66646 0.41236 0.0
H109 H 0.80735 0.75271 0.28305 0.0
H110 H 0.98097 0.71641 0.49392 0.0
H111 H 0.61739 0.60678 0.36721 0.0
H112 H 0.62632 0.61645 0.32238 0.0
H113 H 0.91198 0.68365 0.5109 0.0
H114 H 0.67009 0.65219 0.28818 0.0
N115 N 0.73105 0.67164 0.37463 0.0
C116 C 0.7071 0.65903 0.3945 0.0
C117 C 0.64926 0.62499 0.36908 0.0
C118 C 0.67364 0.64059 0.34882 0.0
C119 C 0.66601 0.63482 0.39204 0.0
C120 C 0.71494 0.66434 0.35227 0.0
H121 H 0.73728 0.70522 0.27383 0.0
N122 N 0.77833 0.70917 0.33759 0.0
C123 C 0.78807 0.73278 0.29687 0.0
C124 C 0.73943 0.68396 0.33307 0.0
C125 C 0.80236 0.73466 0.32019 0.0
C126 C 0.74855 0.70556 0.29163 0.0
C127 C 0.72349 0.68099 0.30986 0.0
O128 O 0.82872 0.7752 0.37289 0.0
O129 O 0.85748 0.71636 0.39201 0.0
O130 O 0.84598 0.70215 0.43265 0.0
O131 O 0.7914 0.70434 0.41766 0.0
O132 O 0.86317 0.75107 0.36247 0.0
O133 O 0.77658 0.7442 0.39502 0.0
O134 O 0.82906 0.59815 0.4172 0.0
O135 O 0.79308 0.65188 0.38897 0.0
O136 O 0.80892 0.6768 0.3472 0.0
O137 O 0.85691 0.6636 0.36349 0.0
O138 O 0.7874 0.62037 0.42007 0.0
O139 O 0.86376 0.61975 0.38478 0.0
C140 C 0.88238 0.74191 0.37759 0.0
C141 C 0.78523 0.80058 0.37371 0.0
C142 C 0.78625 0.8632 0.36691 0.0
C143 C 0.80147 0.84134 0.37849 0.0
C144 C 0.75522 0.84363 0.35014 0.0
C145 C 0.75387 0.78182 0.35729 0.0
C146 C 0.73915 0.80331 0.34549 0.0
C147 C 0.81693 0.71058 0.43502 0.0
C148 C 0.8018 0.77796 0.38523 0.0
C149 C 0.6828 0.65533 0.30597 0.0
C150 C 0.6579 0.635 0.32543 0.0
C151 C 0.7681 0.62681 0.40359 0.0
C152 C 0.8738 0.57493 0.40835 0.0
C153 C 0.87332 0.54244 0.39653 0.0
C154 C 0.89971 0.5292 0.40375 0.0
C155 C 0.92618 0.54884 0.4228 0.0
C156 C 0.89994 0.59296 0.42767 0.0
C157 C 0.9261 0.58027 0.43469 0.0
C158 C 0.83619 0.66615 0.34503 0.0
C159 C 0.84815 0.59098 0.40039 0.0
H160 H 0.82543 0.85574 0.39139 0.0
H161 H 0.74341 0.85957 0.34044 0.0
H162 H 0.74081 0.75057 0.35351 0.0
H163 H 0.7152 0.78867 0.33264 0.0
H164 H 0.8529 0.52783 0.38179 0.0
H165 H 0.94636 0.53913 0.42897 0.0
H166 H 0.90004 0.6168 0.4375 0.0
H167 H 0.9462 0.59468 0.44958 0.0
Eu168 Eu 0.84159 0.19212 0.10752 0.0
C169 C 0.9706 0.31103 0.17898 0.0
C170 C 0.99554 0.37472 0.15964 0.0
C171 C 0.99366 0.37047 0.20331 0.0
C172 C 0.97864 0.3332 0.15827 0.0
C173 C 0.97879 0.32946 0.20174 0.0
C174 C 1.00211 0.39311 0.18227 0.0
C175 C 0.96035 0.26612 0.21965 0.0
N176 N 0.95633 0.27153 0.17682 0.0
C177 C 0.9525 0.24914 0.19667 0.0
C178 C 0.97268 0.3063 0.22221 0.0
Eu179 Eu 0.9395 0.24394 0.1376 0.0
N180 N 0.9718 0.31442 0.13676 0.0
C181 C 0.98387 0.33594 0.11593 0.0
C182 C 1.00628 0.39661 0.13827 0.0
C183 C 1.00081 0.37715 0.11632 0.0
H184 H 0.94223 0.21791 0.19486 0.0
H185 H 1.00947 0.39382 0.09967 0.0
H186 H 1.01455 0.42487 0.18368 0.0
H187 H 0.95647 0.24817 0.23537 0.0
H188 H 0.97961 0.32165 0.09879 0.0
H189 H 0.74112 0.04305 0.13866 0.0
H190 H 1.0197 0.42855 0.13856 0.0
H191 H 0.8559 0.22567 0.05023 0.0
H192 H 0.78851 0.11422 0.14287 0.0
H193 H 0.84605 0.19915 0.00889 0.0
H194 H 0.99971 0.38508 0.22068 0.0
H195 H 0.73196 1.01012 0.09904 0.0
H196 H 0.74866 0.01559 0.05516 0.0
H197 H 0.97794 0.31943 0.23997 0.0
H198 H 0.77832 0.05833 0.01974 0.0
N199 N 0.80467 0.12233 0.10582 0.0
C200 C 0.78477 0.10035 0.12548 0.0
C201 C 0.75294 0.04146 0.10086 0.0
C202 C 0.77331 0.0641 0.08077 0.0
C203 C 0.75817 0.05983 0.12323 0.0
C204 C 0.79841 0.10525 0.08372 0.0
H205 H 0.81421 0.12688 1.00227 0.0
N206 N 0.8324 0.16918 0.06701 0.0
C207 C 0.8369 0.17919 0.02414 0.0
C208 C 0.81365 0.1294 0.06372 0.0
C209 C 0.84233 0.19409 0.0476 0.0
C210 C 0.81915 0.13841 0.02049 0.0
C211 C 0.80616 0.11289 0.04035 0.0
O212 O 0.79951 0.20932 0.09373 0.0
O213 O 0.8885 0.24938 0.12317 0.0
O214 O 0.89462 0.24201 0.16389 0.0
O215 O 0.83698 0.18691 0.14956 0.0
O216 O 0.86265 0.25293 0.09163 0.0
O217 O 0.7854 0.17478 0.12621 0.0
O218 O 0.97547 0.21728 0.14727 0.0
O219 O 0.89069 0.18576 0.1233 0.0
O220 O 0.89025 0.19468 0.08209 0.0
O221 O 0.94408 0.25159 0.0971 0.0
O222 O 0.91655 0.18372 0.15535 0.0
O223 O 0.99766 0.26405 0.12091 0.0
C224 C 0.888 0.27345 0.10803 0.0
C225 C 0.73132 0.16296 0.101 0.0
C226 C 0.659 0.13616 0.10285 0.0
C227 C 0.69788 0.16304 0.11121 0.0
C228 C 0.65449 0.1097 0.08423 0.0
C229 C 0.72538 0.13661 0.08214 0.0
C230 C 0.68736 0.11008 0.07397 0.0
C231 C 0.85806 0.21235 0.16714 0.0
C232 C 0.77235 0.18956 0.10995 0.0
C233 C 0.78416 0.07159 0.03752 0.0
C234 C 0.76732 0.04725 0.05769 0.0
C235 C 0.89043 0.16253 0.1394 0.0
C236 C 0.0448 0.25643 0.14404 0.0
C237 C 0.0689 0.23975 0.1386 0.0
C238 C 0.10663 0.2548 0.14938 0.0
C239 C 0.11918 0.2862 0.16599 0.0
C240 C 0.05831 0.28783 0.16047 0.0
C241 C 0.09526 0.30251 0.1714 0.0
C242 C 0.92688 0.22537 0.07974 0.0
C243 C 1.00501 0.23998 0.13329 0.0
H244 H 0.70204 0.18355 0.12561 0.0
H245 H 0.62538 0.08919 0.07711 0.0
H246 H 0.75021 0.13669 0.07354 0.0
H247 H 0.68337 0.08989 0.05942 0.0
H248 H 0.0585 0.21555 0.12582 0.0
H249 H 0.14753 0.29807 0.17501 0.0
H250 H 0.04014 0.30078 0.16497 0.0
H251 H 0.10541 0.3266 0.18421 0.0
Eu252 Eu 0.33318 0.09403 0.37667 0.0
C253 C 0.35025 0.22494 0.44926 0.0
C254 C 0.32515 0.26514 0.43217 0.0
C255 C 0.32442 0.25681 0.47556 0.0
C256 C 0.34046 0.23936 0.42925 0.0
C257 C 0.34298 0.23407 0.47267 0.0
C258 C 0.31596 0.27274 0.45534 0.0
C259 C 0.3788 0.20337 0.48864 0.0
N260 N 0.37056 0.20541 0.44584 0.0
C261 C 0.38651 0.19627 0.4651 0.0
C262 C 0.35652 0.22194 0.49246 0.0
Eu263 Eu 0.3816 0.19355 0.40527 0.0
N264 N 0.34973 0.23158 0.40706 0.0
C265 C 0.34661 0.25048 0.38721 0.0
C266 C 0.3219 0.28452 0.41189 0.0
C267 C 0.33331 0.27763 0.38937 0.0
H268 H 0.4041 0.18224 0.46235 0.0
H269 H 0.33268 0.2938 0.37373 0.0
H270 H 0.30354 0.29194 0.45785 0.0
H271 H 0.39042 0.1949 0.5038 0.0
H272 H 0.35546 0.24558 0.3697 0.0
H273 H 0.41177 0.02526 0.41829 0.0
H274 H 0.31213 0.306 0.41364 0.0
H275 H 0.30144 0.08311 0.31974 0.0
H276 H 0.36928 0.05511 0.41751 0.0
H277 H 0.31806 0.06708 0.27975 0.0
H278 H 0.31831 0.26388 0.49338 0.0
H279 H 0.43783 1.01401 0.38029 0.0
H280 H 0.44088 0.01766 0.33509 0.0
H281 H 0.3513 0.22818 0.51071 0.0
H282 H 0.41574 0.02964 0.29717 0.0
N283 N 0.37197 0.06246 0.37931 0.0
C284 C 0.38034 0.05071 0.40068 0.0
C285 C 0.41953 0.0277 0.3798 0.0
C286 C 0.40924 0.03786 0.3579 0.0
C287 C 0.40459 0.0337 0.40126 0.0
C288 C 0.38465 0.05489 0.35826 0.0
H289 H 0.36955 0.0475 0.27646 0.0
N290 N 0.34439 0.07476 0.33831 0.0
C291 C 0.33334 0.06574 0.29569 0.0
C292 C 0.37054 0.06148 0.33704 0.0
C293 C 0.32411 0.07495 0.31828 0.0
C294 C 0.36237 0.05475 0.29387 0.0
C295 C 0.38061 0.05147 0.31475 0.0
O296 O 0.27073 0.05757 0.36676 0.0
O297 O 0.32542 0.14379 0.39075 0.0
O298 O 0.33625 0.14739 0.43171 0.0
O299 O 0.33464 0.09049 0.41743 0.0
O300 O 0.29407 0.11553 0.35993 0.0
O301 O 0.29526 0.0364 0.39379 0.0
O302 O 0.44203 0.23477 0.4177 0.0
O303 O 0.39045 0.14548 0.38969 0.0
O304 O 0.37052 0.13767 0.34785 0.0
O305 O 0.37836 0.19714 0.36353 0.0
O306 O 0.42048 0.17148 0.42107 0.0
O307 O 0.42032 0.24853 0.38561 0.0
C308 C 0.30084 0.14288 0.37542 0.0
C309 C 0.24205 0.98862 0.37015 0.0
C310 C 0.17962 0.9263 0.36403 0.0
C311 C 0.20135 0.96373 0.37524 0.0
C312 C 0.19947 0.91483 0.3474 0.0
C313 C 0.26104 0.97604 0.35387 0.0
C314 C 0.23977 0.93939 0.34252 0.0
C315 C 0.32785 0.11006 0.43437 0.0
C316 C 0.26408 0.02838 0.38095 0.0
C317 C 0.4072 0.03699 0.31415 0.0
C318 C 0.42147 0.03013 0.33573 0.0
C319 C 0.41496 0.14576 0.40478 0.0
C320 C 0.46457 0.3028 0.40987 0.0
C321 C 0.49769 0.3354 0.39887 0.0
C322 C 0.51063 0.37462 0.4068 0.0
C323 C 0.49004 0.3804 0.42578 0.0
C324 C 0.44555 0.30991 0.4291 0.0
C325 C 0.45796 0.34832 0.43685 0.0
C326 C 0.37899 0.17488 0.34539 0.0
C327 C 0.44902 0.26149 0.40129 0.0
H328 H 0.18686 0.97343 0.38801 0.0
H329 H 0.18377 0.8869 0.33789 0.0
H330 H 0.29221 0.99472 0.34975 0.0
H331 H 0.25453 0.93005 0.32975 0.0
H332 H 0.51301 0.33034 0.38418 0.0
H333 H 0.49945 0.40988 0.43254 0.0
H334 H 0.42117 0.28571 0.4383 0.0
H335 H 0.44281 0.35323 0.45167 0.0
Eu336 Eu 0.83814 0.66038 0.1074 0.0
C337 C 0.72034 0.67055 0.17965 0.0
C338 C 0.65685 0.63284 0.15979 0.0
C339 C 0.66028 0.63368 0.20348 0.0
C340 C 0.69847 0.65739 0.15873 0.0
C341 C 0.70142 0.65966 0.20227 0.0
C342 C 0.63802 0.62028 0.18225 0.0
C343 C 0.76464 0.70351 0.22081 0.0
N344 N 0.76 0.69549 0.17788 0.0
C345 C 0.78212 0.71325 0.19795 0.0
C346 C 0.72424 0.67595 0.22298 0.0
Eu347 Eu 0.78826 0.70757 0.13884 0.0
N348 N 0.71767 0.67006 0.13736 0.0
C349 C 0.69647 0.66147 0.11639 0.0
C350 C 0.63532 0.62244 0.13828 0.0
C351 C 0.65519 0.63726 0.11651 0.0
H352 H 0.8135 0.73401 0.19636 0.0
H353 H 0.63877 0.62984 0.09977 0.0
H354 H 0.60617 0.601 0.18341 0.0
H355 H 0.78238 0.7169 0.23672 0.0
H356 H 0.711 0.67198 0.0993 0.0
H357 H 0.9881 0.70829 0.1368 0.0
H358 H 0.60334 0.6038 0.13832 0.0
H359 H 0.80262 0.64001 0.05058 0.0
H360 H 0.91707 0.68532 0.14183 0.0
H361 H 0.82785 0.6548 0.0089 0.0
H362 H 0.6453 0.62459 0.22073 0.0
H363 H 1.01976 0.73024 0.09668 0.0
H364 H 1.01308 0.74042 0.05284 0.0
H365 H 0.71064 0.66775 0.2406 0.0
H366 H 0.96922 0.72672 0.01793 0.0
N367 N 0.90793 0.69251 0.10484 0.0
C368 C 0.93046 0.69485 0.12426 0.0
C369 C 0.98856 0.72047 0.0989 0.0
C370 C 0.96537 0.71796 0.07906 0.0
C371 C 0.97088 0.70825 0.12153 0.0
C372 C 0.92434 0.70251 0.08251 0.0
H373 H 0.90004 0.69418 1.00133 0.0
N374 N 0.85981 0.67284 0.06662 0.0
C375 C 0.84835 0.6659 0.02388 0.0
C376 C 0.89954 0.69328 0.06281 0.0
C377 C 0.83418 0.65752 0.04755 0.0
C378 C 0.88909 0.68835 0.01969 0.0
C379 C 0.9153 0.70132 0.03923 0.0
O380 O 0.8193 0.60058 0.09389 0.0
O381 O 0.78177 0.65115 0.12384 0.0
O382 O 0.79021 0.66426 0.1647 0.0
O383 O 0.84418 0.6604 0.14937 0.0
O384 O 0.77669 0.62168 0.0921 0.0
O385 O 0.85555 0.62136 0.12568 0.0
O386 O 0.81641 0.76996 0.1493 0.0
O387 O 0.84562 0.71606 0.12358 0.0
O388 O 0.83563 0.70647 0.082 0.0
O389 O 0.78073 0.70604 0.09847 0.0
O390 O 0.84892 0.74329 0.15624 0.0
O391 O 0.76842 0.74688 0.12379 0.0
C392 C 0.75698 0.62693 0.1089 0.0
C393 C 0.865 0.57761 0.10039 0.0
C394 C 0.89069 0.53117 0.10202 0.0
C395 C 0.86462 0.54406 0.11071 0.0
C396 C 0.91655 0.5522 0.08295 0.0
C397 C 0.89077 0.59711 0.08112 0.0
C398 C 0.91642 0.58468 0.07258 0.0
C399 C 0.81933 0.65634 0.1673 0.0
C400 C 0.83947 0.59312 0.10975 0.0
C401 C 0.95653 0.72004 0.03588 0.0
C402 C 0.98151 0.72791 0.05576 0.0
C403 C 0.86937 0.73832 0.13972 0.0
C404 C 0.77815 0.80132 0.14813 0.0
C405 C 0.79474 0.84215 0.14301 0.0
C406 C 0.78106 0.86507 0.15512 0.0
C407 C 0.75114 0.84628 0.17269 0.0
C408 C 0.74808 0.78355 0.16546 0.0
C409 C 0.73481 0.80599 0.17769 0.0
C410 C 0.80621 0.71461 0.08069 0.0
C411 C 0.79346 0.77775 0.13622 0.0
H412 H 0.84462 0.52844 0.12547 0.0
H413 H 0.93645 0.54293 0.07562 0.0
H414 H 0.89097 0.62195 0.0725 0.0
H415 H 0.93618 0.60019 0.05772 0.0
H416 H 0.81786 0.85583 0.12951 0.0
H417 H 0.74048 0.86284 0.18284 0.0
H418 H 0.73515 0.7524 0.16969 0.0
H419 H 0.71184 0.79213 0.19122 0.0
Eu420 Eu 0.94748 0.24045 0.37399 0.0
C421 C 0.82299 0.13761 0.45228 0.0
C422 C 0.78134 0.07029 0.43857 0.0
C423 C 0.79371 0.08373 0.48137 0.0
C424 C 0.80686 0.11079 0.43356 0.0
C425 C 0.81597 0.12445 0.47643 0.0
C426 C 0.776 0.0567 0.46247 0.0
C427 C 0.84742 0.1928 0.48908 0.0
N428 N 0.84199 0.17678 0.44691 0.0
C429 C 0.85262 0.20436 0.46489 0.0
C430 C 0.82952 0.15268 0.49489 0.0
Eu431 Eu 0.85024 0.19403 0.40536 0.0
N432 N 0.8124 0.12477 0.41063 0.0
C433 C 0.79126 0.10031 0.39209 0.0
C434 C 0.75974 0.04514 0.41963 0.0
C435 C 0.76423 0.0604 0.39636 0.0
H436 H 0.86644 0.23548 0.46061 0.0
H437 H 0.74627 0.04171 0.38176 0.0
H438 H 0.75704 0.02557 0.46658 0.0
H439 H 0.85704 0.21484 0.50321 0.0
H440 H 0.79436 0.11177 0.37403 0.0
H441 H 1.01411 0.39675 0.3986 0.0
H442 H 0.73832 1.01433 0.42302 0.0
H443 H 0.95807 0.20363 0.32194 0.0
H444 H 0.98576 0.32529 0.4058 0.0
H445 H 0.97845 0.22508 0.28005 0.0
H446 H 0.78827 0.07302 0.49978 0.0
H447 H 0.02431 0.42241 0.35689 0.0
H448 H 0.02339 0.40909 0.31251 0.0
H449 H 0.82491 0.14375 0.51365 0.0
H450 H 1.0146 0.36224 0.28008 0.0
N451 N 0.97717 0.30998 0.3686 0.0
C452 C 0.9895 0.33589 0.3875 0.0
C453 C 1.01115 0.39087 0.35995 0.0
C454 C 1.00164 0.36455 0.34066 0.0
C455 C 1.00571 0.37653 0.38351 0.0
C456 C 0.9846 0.32375 0.34565 0.0
H457 H 1.00116 0.29418 0.2684 0.0
N458 N 0.9656 0.2591 0.33334 0.0
C459 C 0.97808 0.24556 0.29309 0.0
C460 C 0.97896 0.29744 0.32739 0.0
C461 C 0.96632 0.23346 0.31683 0.0
C462 C 0.99034 0.28451 0.28647 0.0
C463 C 0.99107 0.31112 0.30367 0.0
O464 O 0.98367 0.21187 0.37164 0.0
O465 O 0.89834 0.18522 0.39074 0.0
O466 O 0.89958 0.19922 0.43118 0.0
O467 O 0.95223 0.25422 0.41382 0.0
O468 O 0.92535 0.17773 0.36068 0.0
O469 O 1.00743 0.26843 0.3891 0.0
O470 O 0.80967 0.21427 0.41758 0.0
O471 O 0.89685 0.24863 0.38674 0.0
O472 O 0.90288 0.22939 0.34499 0.0
O473 O 0.84329 0.18287 0.36382 0.0
O474 O 0.87297 0.25649 0.41816 0.0
O475 O 0.79382 0.1756 0.38684 0.0
C476 C 0.89824 0.15951 0.3767 0.0
C477 C 0.05246 0.25469 0.36838 0.0
C478 C 0.11257 0.25092 0.3607 0.0
C479 C 0.07698 0.23853 0.37365 0.0
C480 C 0.12241 0.27888 0.34206 0.0
C481 C 0.06356 0.28306 0.35006 0.0
C482 C 0.09817 0.29483 0.3369 0.0
C483 C 0.93676 0.22939 0.43201 0.0
C484 C 1.0148 0.24115 0.38144 0.0
C485 C 1.00569 0.35127 0.29827 0.0
C486 C 1.01071 0.37793 0.31674 0.0
C487 C 0.89715 0.27454 0.40074 0.0
C488 C 0.74108 0.16828 0.41173 0.0
C489 C 0.70793 0.16812 0.401 0.0
C490 C 0.66911 0.14279 0.40996 0.0
C491 C 0.66425 0.1181 0.42968 0.0
C492 C 0.73495 0.14386 0.43171 0.0
C493 C 0.6969 0.11883 0.44048 0.0
C494 C 0.86482 0.202 0.34438 0.0
C495 C 0.78189 0.19295 0.40205 0.0
H496 H 0.06866 0.21691 0.38798 0.0
H497 H 0.14891 0.2884 0.33132 0.0
H498 H 0.04542 0.29606 0.34586 0.0
H499 H 0.10627 0.31644 0.32262 0.0
H500 H 0.71225 0.18716 0.38572 0.0
H501 H 0.63507 0.09877 0.43717 0.0
H502 H 0.75965 0.14423 0.44066 0.0
H503 H 0.69272 0.10005 0.45586 0.0
Eu504 Eu 0.10236 0.3239 0.63901 0.0
C505 C 0.22478 0.33786 0.56214 0.0
C506 C 0.26555 0.31174 0.57691 0.0
C507 C 0.25215 0.30974 0.53405 0.0
C508 C 0.24097 0.32812 0.58126 0.0
C509 C 0.2307 0.32935 0.53826 0.0
C510 C 0.26997 0.30138 0.55334 0.0
C511 C 0.1994 0.36576 0.52426 0.0
N512 N 0.20651 0.35905 0.56674 0.0
C513 C 0.1955 0.37465 0.54817 0.0
C514 C 0.21668 0.34261 0.51928 0.0
Eu515 Eu 0.19934 0.37133 0.60795 0.0
N516 N 0.23621 0.3385 0.60387 0.0
C517 C 0.25739 0.33588 0.62264 0.0
C518 C 0.28703 0.30872 0.59613 0.0
C519 C 0.28353 0.32163 0.61898 0.0
H520 H 0.18222 0.3927 0.55181 0.0
H521 H 0.30153 0.32143 0.63373 0.0
H522 H 0.2882 0.28815 0.54974 0.0
H523 H 0.18941 0.37707 0.50969 0.0
H524 H 0.25507 0.34577 0.64042 0.0
H525 H 0.02423 0.39452 0.59789 0.0
H526 H 0.30756 0.29797 0.59325 0.0
H527 H 0.09569 0.2989 0.69788 0.0
H528 H 0.04891 0.348 0.59967 0.0
H529 H 0.08916 0.32489 0.7371 0.0
H530 H 0.25678 0.3027 0.51587 0.0
H531 H 0.0267 0.43253 0.63408 0.0
H532 H 0.04147 0.44561 0.67817 0.0
H533 H 0.22039 0.33642 0.50072 0.0
H534 H 0.0595 0.42675 0.71635 0.0
N535 N 0.07062 0.36266 0.63564 0.0
C536 C 0.05263 0.36574 0.61524 0.0
C537 C 0.03907 0.41308 0.63476 0.0
C538 C 0.0539 0.40699 0.65626 0.0
C539 C 0.03754 0.3916 0.61431 0.0
C540 C 0.06895 0.38065 0.65625 0.0
H541 H 0.07674 0.38147 0.73851 0.0
N542 N 0.08887 0.34122 0.67744 0.0
C543 C 0.08622 0.33791 0.72061 0.0
C544 C 0.07864 0.36976 0.6778 0.0
C545 C 0.08986 0.3232 0.69838 0.0
C546 C 0.07937 0.36984 0.72132 0.0
C547 C 0.07406 0.38522 0.69979 0.0
O548 O 0.06608 0.26541 0.62219 0.0
O549 O 0.15119 0.31523 0.62416 0.0
O550 O 0.14983 0.32579 0.58311 0.0
O551 O 0.09646 0.32944 0.59869 0.0
O552 O 0.12608 0.28711 0.65643 0.0
O553 O 0.04306 0.28167 0.65249 0.0
O554 O 0.24015 0.43067 0.59386 0.0
O555 O 0.1531 0.38134 0.62573 0.0
O556 O 0.1491 0.35607 0.66746 0.0
O557 O 0.2091 0.37047 0.64918 0.0
O558 O 0.17681 0.41093 0.59387 0.0
O559 O 0.25628 0.41037 0.62564 0.0
C560 C 0.15173 0.29209 0.64003 0.0
C561 C 0.02478 0.21407 0.64921 0.0
C562 C 0.98133 0.14182 0.65026 0.0
C563 C 0.99308 0.17901 0.63947 0.0
C564 C 1.00188 0.14048 0.67076 0.0
C565 C 0.044 0.21157 0.66997 0.0
C566 C 0.03285 0.17506 0.6805 0.0
C567 C 0.11365 0.32104 0.58091 0.0
C568 C 0.03768 0.25319 0.63799 0.0
C569 C 0.06249 0.41404 0.69965 0.0
C570 C 0.05226 0.4248 0.67791 0.0
C571 C 0.15256 0.40588 0.61105 0.0
C572 C 0.30878 0.45337 0.59979 0.0
C573 C 0.34211 0.48718 0.60968 0.0
C574 C 0.38081 0.49983 0.60073 0.0
C575 C 0.38531 0.47834 0.58181 0.0
C576 C 0.31458 0.43329 0.58066 0.0
C577 C 0.35249 0.44554 0.57185 0.0
C578 C 0.18735 0.36798 0.66838 0.0
C579 C 0.26811 0.43828 0.60949 0.0
H580 H 0.97774 0.18066 0.62361 0.0
H581 H 0.99326 0.11266 0.67975 0.0
H582 H 0.06743 0.2378 0.67833 0.0
H583 H 0.04797 0.1736 0.69649 0.0
H584 H 0.33803 0.50318 0.62435 0.0
H585 H 0.41435 0.48747 0.57432 0.0
H586 H 0.28974 0.40816 0.57238 0.0
H587 H 0.35643 0.42962 0.5571 0.0
Eu588 Eu 0.19781 0.83529 0.90569 0.0
C589 C 0.31072 0.96771 0.83411 0.0
C590 C 0.37547 0.99045 0.85157 0.0
C591 C 0.36878 0.99343 0.8082 0.0
C592 C 0.33404 0.97343 0.85406 0.0
C593 C 0.32793 0.97892 0.81104 0.0
C594 C 0.39254 0.99914 0.82846 0.0
C595 C 0.2642 0.96552 0.79589 0.0
N596 N 0.27159 0.95439 0.83757 0.0
C597 C 0.24863 0.95496 0.81916 0.0
C598 C 0.30389 0.97697 0.79176 0.0
Eu599 Eu 0.24626 0.93453 0.87702 0.0
N600 N 0.31659 0.9655 0.87608 0.0
C601 C 0.33935 0.97713 0.89644 0.0
C602 C 0.39864 0.99992 0.8724 0.0
C603 C 0.38055 0.9938 0.89494 0.0
H604 H 0.21812 0.94679 0.82238 0.0
H605 H 0.3983 1.00189 0.91118 0.0
H606 H 0.42424 1.0117 0.82616 0.0
H607 H 0.24571 0.96516 0.78123 0.0
H608 H 0.3259 0.97256 0.91401 0.0
H609 H 0.04872 0.7338 0.87458 0.0
H610 H 0.43059 1.01332 0.87128 0.0
H611 H 0.23181 0.8438 0.96238 0.0
H612 H 0.11957 0.78248 0.87038 0.0
H613 H 0.20596 0.8305 1.00397 0.0
H614 H 0.38249 1.00169 0.79055 0.0
H615 H 1.01617 0.72161 0.91457 0.0
H616 H 1.0217 0.73606 0.9587 0.0
H617 H 0.31603 0.98573 0.77386 0.0
H618 H 0.06482 0.76379 0.99415 0.0
N619 N 0.1279 0.79695 0.90768 0.0
C620 C 0.10586 0.77766 0.8879 0.0
C621 C 0.04729 0.74344 0.9127 0.0
C622 C 0.06993 0.76314 0.93291 0.0
C623 C 0.06549 0.75026 0.89016 0.0
C624 C 0.11097 0.78916 0.9299 0.0
H625 H 0.13371 0.79844 0.01125 0.0
N626 N 0.17511 0.82261 0.94627 0.0
C627 C 0.18574 0.82293 0.98894 0.0
C628 C 0.13533 0.80341 0.94984 0.0
C629 C 0.20028 0.83046 0.96534 0.0
C630 C 0.14498 0.80507 0.99297 0.0
C631 C 0.11913 0.79382 0.97329 0.0
O632 O 0.21743 0.79428 0.91795 0.0
O633 O 0.25399 0.88372 0.88948 0.0
O634 O 0.24007 0.89206 0.84764 0.0
O635 O 0.19085 0.83154 0.86382 0.0
O636 O 0.25921 0.85813 0.92078 0.0
O637 O 0.18182 0.78039 0.88597 0.0
O638 O 0.21832 0.97051 0.87067 0.0
O639 O 0.18948 0.88414 0.89168 0.0
O640 O 0.20092 0.88184 0.93301 0.0
O641 O 0.25463 0.93885 0.91749 0.0
O642 O 0.1849 0.91213 0.86121 0.0
O643 O 0.26959 0.99304 0.89363 0.0
C644 C 0.27879 0.8837 0.90428 0.0
C645 C 0.17188 0.72614 0.91024 0.0
C646 C 0.14526 0.65415 0.90697 0.0
C647 C 0.1717 0.69333 0.89897 0.0
C648 C 0.1195 0.64862 0.92625 0.0
C649 C 0.14635 0.71921 0.92978 0.0
C650 C 0.12023 0.68086 0.93757 0.0
C651 C 0.21254 0.85435 0.84544 0.0
C652 C 0.19763 0.76747 0.9016 0.0
C653 C 0.07785 0.77116 0.9763 0.0
C654 C 0.0533 0.75542 0.95612 0.0
C655 C 0.16509 0.88444 0.87663 0.0
C656 C 0.2603 0.03957 0.87124 0.0
C657 C 0.24381 0.06399 0.87595 0.0
C658 C 0.25853 0.10079 0.86407 0.0
C659 C 0.28933 0.11203 0.84712 0.0
C660 C 0.29137 0.05197 0.85459 0.0
C661 C 0.30562 0.08789 0.84253 0.0
C662 C 0.22935 0.91965 0.93499 0.0
C663 C 0.24423 1.00066 0.88307 0.0
H664 H 0.19161 0.69819 0.88405 0.0
H665 H 0.09933 0.61918 0.93303 0.0
H666 H 0.14669 0.7435 0.93918 0.0
H667 H 0.10063 0.67613 0.95263 0.0
H668 H 0.22003 0.05458 0.889 0.0
H669 H 0.30079 0.13952 0.83719 0.0
H670 H 0.30452 0.03379 0.85081 0.0
H671 H 0.32936 0.09705 0.82952 0.0
Eu672 Eu 0.71734 0.78724 0.63393 0.0
C673 C 0.70797 0.90452 0.56317 0.0
C674 C 0.7403 0.9691 0.58205 0.0
C675 C 0.74101 0.96391 0.53844 0.0
C676 C 0.71955 0.92742 0.5838 0.0
C677 C 0.71777 0.92252 0.54022 0.0
C678 C 0.75203 0.98719 0.55933 0.0
C679 C 0.67603 0.85802 0.52257 0.0
N680 N 0.68391 0.86484 0.56553 0.0
C681 C 0.66634 0.84173 0.54571 0.0
C682 C 0.70229 0.89854 0.51979 0.0
Eu683 Eu 0.67008 0.83899 0.60534 0.0
N684 N 0.70739 0.90906 0.60546 0.0
C685 C 0.71267 0.93067 0.62591 0.0
C686 C 0.74683 0.99133 0.60305 0.0
C687 C 0.7328 0.97203 0.62507 0.0
H688 H 0.64587 0.81039 0.54778 0.0
H689 H 0.73711 0.98896 0.64138 0.0
H690 H 0.76852 0.01917 0.55769 0.0
H691 H 0.66302 0.83937 0.50692 0.0
H692 H 0.70164 0.91616 0.64303 0.0
H693 H 0.64498 0.64309 0.58631 0.0
H694 H 0.76128 0.0233 0.60231 0.0
H695 H 0.74225 0.80091 0.69257 0.0
H696 H 0.68816 0.71402 0.58943 0.0
H697 H 0.7185 0.76391 0.73088 0.0
H698 H 0.74916 0.97828 0.52099 0.0
H699 H 0.61237 0.60317 0.62241 0.0
H700 H 0.60202 0.59988 0.66693 0.0
H701 H 0.70925 0.91122 0.50186 0.0
H702 H 0.6213 0.6328 0.70635 0.0
N703 N 0.67933 0.71709 0.62747 0.0
C704 C 0.67405 0.69837 0.60569 0.0
C705 C 0.63089 0.63498 0.62406 0.0
C706 C 0.63803 0.65356 0.64648 0.0
C707 C 0.64946 0.6574 0.60367 0.0
C708 C 0.66326 0.69508 0.64776 0.0
H709 H 0.66496 0.69355 0.73028 0.0
N710 N 0.70117 0.75273 0.67098 0.0
C711 C 0.70551 0.74944 0.71396 0.0
C712 C 0.67425 0.7135 0.67008 0.0
C713 C 0.71885 0.77029 0.69231 0.0
C714 C 0.67532 0.70986 0.71356 0.0
C715 C 0.66019 0.69107 0.69146 0.0
O716 O 0.76154 0.77189 0.64636 0.0
O717 O 0.72587 0.84514 0.62074 0.0
O718 O 0.71265 0.83401 0.57824 0.0
O719 O 0.71585 0.78002 0.59359 0.0
O720 O 0.75258 0.84612 0.65332 0.0
O721 O 0.77715 0.8155 0.61859 0.0
O722 O 0.61121 0.82333 0.59141 0.0
O723 O 0.65992 0.78152 0.62113 0.0
O724 O 0.68486 0.79911 0.66357 0.0
O725 O 0.66822 0.8441 0.64689 0.0
O726 O 0.6306 0.77817 0.5895 0.0
O727 O 0.63232 0.8577 0.6239 0.0
C728 C 0.74808 0.86767 0.63729 0.0
C729 C 0.81327 0.78179 0.61956 0.0
C730 C 0.87743 0.78554 0.61359 0.0
C731 C 0.85408 0.79932 0.62481 0.0
C732 C 0.85947 0.75449 0.59678 0.0
C733 C 0.7961 0.75114 0.60257 0.0
C734 C 0.8192 0.73766 0.59123 0.0
C735 C 0.72144 0.8052 0.57614 0.0
C736 C 0.78923 0.79613 0.63177 0.0
C737 C 0.63287 0.65036 0.69011 0.0
C738 C 0.62192 0.63162 0.66767 0.0
C739 C 0.63557 0.75764 0.60585 0.0
C740 C 0.5906 0.87056 0.59903 0.0
C741 C 0.55632 0.86961 0.60865 0.0
C742 C 0.54494 0.89718 0.60075 0.0
C743 C 0.56817 0.92504 0.58303 0.0
C744 C 0.61261 0.89863 0.58128 0.0
C745 C 0.60154 0.92564 0.57341 0.0
C746 C 0.67161 0.82429 0.66542 0.0
C747 C 0.60436 0.84334 0.60772 0.0
H748 H 0.86742 0.82302 0.63795 0.0
H749 H 0.87672 0.74336 0.58784 0.0
H750 H 0.76492 0.7377 0.59813 0.0
H751 H 0.80581 0.71394 0.57815 0.0
H752 H 0.539 0.848 0.62235 0.0
H753 H 0.56006 0.94607 0.5762 0.0
H754 H 0.6384 0.89969 0.5734 0.0
H755 H 0.61888 0.94709 0.55966 0.0
Eu756 Eu 0.19359 0.36679 0.90563 0.0
C757 C 0.06483 0.34751 0.82991 0.0
C758 C 0.03824 0.38694 0.84648 0.0
C759 C 0.03738 0.37719 0.8032 0.0
C760 C 0.05658 0.36383 0.84961 0.0
C761 C 0.05409 0.35288 0.80656 0.0
C762 C 0.02971 0.39444 0.82314 0.0
C763 C 0.07437 0.30738 0.79177 0.0
N764 N 0.08098 0.32417 0.83375 0.0
C765 C 0.08523 0.30355 0.81517 0.0
C766 C 0.05897 0.33234 0.78742 0.0
Eu767 Eu 0.0971 0.31763 0.87397 0.0
N768 N 0.06417 0.35504 0.87191 0.0
C769 C 0.05158 0.36615 0.8919 0.0
C770 C 0.02771 0.4006 0.86694 0.0
C771 C 0.03392 0.38969 0.88975 0.0
H772 H 0.09689 0.28399 0.8183 0.0
H773 H 0.02512 0.39938 0.9057 0.0
H774 H 1.01597 0.4124 0.82037 0.0
H775 H 0.07737 0.29065 0.77717 0.0
H776 H 0.05607 0.35806 0.90969 0.0
H777 H 0.29779 0.32118 0.87684 0.0
H778 H 1.01369 0.41851 0.86531 0.0
H779 H 0.17731 0.38704 0.96219 0.0
H780 H 0.24867 0.34269 0.87151 0.0
H781 H 0.18803 0.37323 1.00403 0.0
H782 H 0.0294 0.38206 0.78534 0.0
H783 H 0.30839 0.30084 0.91721 0.0
H784 H 0.29127 0.29075 0.96102 0.0
H785 H 0.04963 0.33448 0.76943 0.0
H786 H 0.26018 0.30388 0.99573 0.0
N787 N 0.23219 0.33572 0.9085 0.0
C788 C 0.25276 0.33364 0.88916 0.0
C789 C 0.2863 0.30969 0.91482 0.0
C790 C 0.26516 0.31183 0.93457 0.0
C791 C 0.28042 0.32112 0.89207 0.0
C792 C 0.23882 0.3263 0.93092 0.0
H793 H 0.22216 0.33524 0.01198 0.0
N794 N 0.20273 0.35493 0.94649 0.0
C795 C 0.19784 0.36227 0.98915 0.0
C796 C 0.22271 0.33524 0.95049 0.0
C797 C 0.19187 0.37007 0.96541 0.0
C798 C 0.21687 0.34059 0.99356 0.0
C799 C 0.23065 0.32784 0.97416 0.0
O800 O 0.23428 0.42657 0.91923 0.0
O801 O 0.1463 0.37515 0.88862 0.0
O802 O 0.14155 0.36033 0.84766 0.0
O803 O 0.20003 0.3665 0.86365 0.0
O804 O 0.17016 0.40524 0.92033 0.0
O805 O 0.24965 0.4063 0.8871 0.0
O806 O 0.06294 0.25382 0.86702 0.0
O807 O 0.14629 0.31039 0.88991 0.0
O808 O 0.14437 0.32098 0.93103 0.0
O809 O 0.09079 0.3222 0.91406 0.0
O810 O 0.12259 0.28155 0.85773 0.0
O811 O 0.03725 0.28095 0.88876 0.0
C812 C 0.14543 0.39959 0.90333 0.0
C813 C 0.30296 0.44991 0.91227 0.0
C814 C 0.37514 0.49559 0.90968 0.0
C815 C 0.33606 0.48269 0.9013 0.0
C816 C 0.38022 0.47533 0.92908 0.0
C817 C 0.30944 0.43121 0.9319 0.0
C818 C 0.34768 0.44362 0.9401 0.0
C819 C 0.17909 0.36971 0.8455 0.0
C820 C 0.26182 0.43433 0.90318 0.0
C821 C 0.25396 0.31004 0.97772 0.0
C822 C 0.27161 0.30251 0.95796 0.0
C823 C 0.14832 0.28781 0.87423 0.0
C824 C 0.99347 0.22437 0.86576 0.0
C825 C 0.96909 0.1836 0.87093 0.0
C826 C 0.93318 0.16052 0.85824 0.0
C827 C 0.92289 0.17894 0.84002 0.0
C828 C 0.98196 0.24181 0.84778 0.0
C829 C 0.94699 0.21915 0.83495 0.0
C830 C 0.10678 0.31294 0.93198 0.0
C831 C 0.03147 0.24838 0.87849 0.0
H832 H 0.33151 0.49772 0.88628 0.0
H833 H 0.40953 0.48468 0.93617 0.0
H834 H 0.28487 0.40705 0.94104 0.0
H835 H 0.3521 0.42873 0.95522 0.0
H836 H 0.97781 0.17013 0.88494 0.0
H837 H 0.89615 0.16215 0.82949 0.0
H838 H 1.00012 0.27293 0.84358 0.0
H839 H 0.93854 0.23281 0.82094 0.0
Eu840 Eu 0.25287 0.93987 0.6362 0.0
C841 C 0.13634 0.80478 0.56645 0.0
C842 C 0.07338 0.76584 0.58665 0.0
C843 C 0.07572 0.76916 0.54294 0.0
C844 C 0.11468 0.79207 0.58753 0.0
C845 C 0.11721 0.79271 0.54389 0.0
C846 C 0.05387 0.75537 0.56431 0.0
C847 C 0.18169 0.82153 0.52509 0.0
N848 N 0.17646 0.82508 0.56806 0.0
C849 C 0.1992 0.8315 0.54789 0.0
C850 C 0.14048 0.80255 0.52304 0.0
Eu851 Eu 0.20441 0.84112 0.60735 0.0
N852 N 0.13438 0.80253 0.60886 0.0
C853 C 0.11475 0.78624 0.6299 0.0
C854 C 0.0532 0.74933 0.60816 0.0
C855 C 0.07408 0.75928 0.62986 0.0
H856 H 0.23106 0.84546 0.54941 0.0
H857 H 0.05896 0.74586 0.64656 0.0
H858 H 1.02206 0.73574 0.56334 0.0
H859 H 0.19996 0.82798 0.50915 0.0
H860 H 0.13042 0.79329 0.6468 0.0
H861 H 0.39909 1.01239 0.59276 0.0
H862 H 1.02183 0.72788 0.60807 0.0
H863 H 0.23122 0.94394 0.69408 0.0
H864 H 0.32659 0.98035 0.59432 0.0
H865 H 0.26556 0.96289 0.73352 0.0
H866 H 0.06047 0.75986 0.5258 0.0
H867 H 0.4377 0.02558 0.63034 0.0
H868 H 0.43852 0.02373 0.67552 0.0
H869 H 0.12691 0.794 0.50539 0.0
H870 H 0.40221 1.01053 0.71387 0.0
N871 N 0.32316 0.97397 0.63259 0.0
C872 C 0.34262 0.98581 0.611 0.0
C873 C 0.40565 1.01123 0.6312 0.0
C874 C 0.38581 1.0011 0.65333 0.0
C875 C 0.38398 1.00404 0.60996 0.0
C876 C 0.34402 0.98259 0.65345 0.0
H877 H 0.33813 0.98894 0.73545 0.0
N878 N 0.28371 0.95885 0.67436 0.0
C879 C 0.2822 0.96625 0.71719 0.0
C880 C 0.32367 0.97493 0.675 0.0
C881 C 0.2629 0.95569 0.6949 0.0
C882 C 0.32306 0.98081 0.71827 0.0
C883 C 0.34441 0.98583 0.69702 0.0
O884 O 0.22577 0.97426 0.64843 0.0
O885 O 0.19598 0.88999 0.6214 0.0
O886 O 0.20706 0.88649 0.57943 0.0
O887 O 0.25662 0.94608 0.59564 0.0
O888 O 0.19204 0.91412 0.65376 0.0
O889 O 0.27035 0.99795 0.62053 0.0
O890 O 0.22476 0.80121 0.59407 0.0
O891 O 0.26097 0.89031 0.62218 0.0
O892 O 0.25438 0.8976 0.66309 0.0
O893 O 0.20113 0.83821 0.64945 0.0
O894 O 0.26493 0.86523 0.59036 0.0
O895 O 0.19068 0.78663 0.62678 0.0
C896 C 0.17192 0.88849 0.63731 0.0
C897 C 0.2638 0.0437 0.64564 0.0
C898 C 0.26231 0.10521 0.65238 0.0
C899 C 0.24717 0.06799 0.64095 0.0
C900 C 0.29384 0.11704 0.66884 0.0
C901 C 0.29556 0.05666 0.66177 0.0
C902 C 0.31033 0.09306 0.67335 0.0
C903 C 0.23326 0.92508 0.57776 0.0
C904 C 0.24696 1.00431 0.63438 0.0
C905 C 0.38581 1.00245 0.69709 0.0
C906 C 0.40648 1.00999 0.67526 0.0
C907 C 0.28515 0.89122 0.60655 0.0
C908 C 0.18079 0.73287 0.60208 0.0
C909 C 0.18119 0.70052 0.61347 0.0
C910 C 0.15495 0.6612 0.60576 0.0
C911 C 0.1287 0.65494 0.58669 0.0
C912 C 0.1549 0.72533 0.58268 0.0
C913 C 0.1289 0.68676 0.57519 0.0
C914 C 0.22636 0.86053 0.66673 0.0
C915 C 0.20623 0.77429 0.61057 0.0
H916 H 0.22286 0.05807 0.62828 0.0
H917 H 0.30567 0.14483 0.67848 0.0
H918 H 0.30873 0.03852 0.66554 0.0
H919 H 0.33461 0.10268 0.68599 0.0
H920 H 0.20139 0.70582 0.62827 0.0
H921 H 0.10858 0.62525 0.58024 0.0
H922 H 0.15483 0.74926 0.57314 0.0
H923 H 0.10897 0.68154 0.56027 0.0
Eu924 Eu 0.66458 0.83292 0.90302 0.0
C925 C 0.68144 0.71952 0.82931 0.0
C926 C 0.64069 0.65409 0.84623 0.0
C927 C 0.64995 0.66213 0.80288 0.0
C928 C 0.66463 0.69546 0.84913 0.0
C929 C 0.67519 0.70304 0.80601 0.0
C930 C 0.63262 0.6377 0.82297 0.0
C931 C 0.72175 0.76808 0.79083 0.0
N932 N 0.7057 0.75889 0.83297 0.0
C933 C 0.72661 0.78315 0.81422 0.0
C934 C 0.69554 0.72796 0.78667 0.0
Eu935 Eu 0.71205 0.78241 0.87307 0.0
N936 N 0.67358 0.71222 0.87133 0.0
C937 C 0.66183 0.68893 0.89145 0.0
C938 C 0.62665 0.63035 0.86683 0.0
C939 C 0.6377 0.64783 0.88954 0.0
H940 H 0.74692 0.81423 0.81714 0.0
H941 H 0.62758 0.62968 0.90561 0.0
H942 H 0.61397 0.60605 0.82038 0.0
H943 H 0.73841 0.78733 0.77606 0.0
H944 H 0.66988 0.70189 0.90914 0.0
H945 H 0.71254 0.98164 0.87139 0.0
H946 H 0.60824 0.59848 0.86538 0.0
H947 H 0.6453 0.79959 0.96032 0.0
H948 H 0.68935 0.91052 0.86742 0.0
H949 H 0.66134 0.82632 1.00165 0.0
H950 H 0.64444 0.649 0.78508 0.0
H951 H 0.7348 0.01464 0.91111 0.0
H952 H 0.74561 1.00958 0.95506 0.0
H953 H 0.69206 0.71635 0.76859 0.0
H954 H 0.73274 0.96712 0.99058 0.0
N955 N 0.6968 0.90269 0.90458 0.0
C956 C 0.69904 0.9245 0.88481 0.0
C957 C 0.72497 0.98341 0.90934 0.0
C958 C 0.72266 0.96098 0.92953 0.0
C959 C 0.71254 0.96496 0.88695 0.0
C960 C 0.70715 0.91989 0.92667 0.0
H961 H 0.70084 0.89869 0.00817 0.0
N962 N 0.67782 0.85608 0.94349 0.0
C963 C 0.67205 0.84623 0.98637 0.0
C964 C 0.69836 0.89588 0.94671 0.0
C965 C 0.66295 0.83121 0.96292 0.0
C966 C 0.69455 0.88707 0.98997 0.0
C967 C 0.70695 0.9125 0.97006 0.0
O968 O 0.6051 0.81517 0.91677 0.0
O969 O 0.65486 0.77596 0.88724 0.0
O970 O 0.66969 0.78391 0.84639 0.0
O971 O 0.66541 0.838 0.86095 0.0
O972 O 0.62514 0.77209 0.91881 0.0
O973 O 0.62534 0.84947 0.88416 0.0
O974 O 0.77594 0.81044 0.86664 0.0
O975 O 0.72056 0.84004 0.88774 0.0
O976 O 0.7102 0.82984 0.92857 0.0
O977 O 0.70696 0.773 0.91338 0.0
O978 O 0.74986 0.84314 0.8561 0.0
O979 O 0.74726 0.75852 0.88909 0.0
C980 C 0.63017 0.75177 0.90234 0.0
C981 C 0.5825 0.86078 0.90918 0.0
C982 C 0.53641 0.88679 0.9069 0.0
C983 C 0.54889 0.86017 0.89877 0.0
C984 C 0.55793 0.91351 0.92549 0.0
C985 C 0.60248 0.88734 0.92801 0.0
C986 C 0.59049 0.91361 0.93596 0.0
C987 C 0.6617 0.81284 0.84333 0.0
C988 C 0.59746 0.83453 0.90042 0.0
C989 C 0.72566 0.95378 0.97282 0.0
C990 C 0.73304 0.97796 0.9526 0.0
C991 C 0.74389 0.86375 0.87195 0.0
C992 C 0.80408 0.76935 0.86694 0.0
C993 C 0.8447 0.78551 0.87252 0.0
C994 C 0.86784 0.77207 0.8605 0.0
C995 C 0.84958 0.74281 0.84255 0.0
C996 C 0.78675 0.73991 0.84924 0.0
C997 C 0.80945 0.72686 0.83709 0.0
C998 C 0.71608 0.7991 0.93081 0.0
C999 C 0.78035 0.78443 0.87883 0.0
H1000 H 0.53287 0.83949 0.88438 0.0
H1001 H 0.54894 0.93385 0.9324 0.0
H1002 H 0.62728 0.88763 0.93676 0.0
H1003 H 0.60637 0.934 0.95048 0.0
H1004 H 0.85802 0.80811 0.88632 0.0
H1005 H 0.86644 0.73237 0.83248 0.0
H1006 H 0.75573 0.72723 0.84468 0.0
H1007 H 0.79593 0.70438 0.82327 0.0
C1008 C 0.17437 0.26518 0.14056 0.0
C1009 C 0.13368 0.23886 0.1435 0.0
C1010 C 0.20149 0.25167 0.13769 0.0
C1011 C 0.18801 0.2105 0.13701 0.0
C1012 C 0.14658 0.18358 0.13891 0.0
C1013 C 0.11994 0.19802 0.14213 0.0
C1014 C 0.2446 0.282 0.13512 0.0
C1015 C 0.13054 0.13946 0.13843 0.0
C1016 C 0.25643 0.17211 0.11445 0.0
C1017 C 0.27106 0.16601 0.13617 0.0
C1018 C 0.2302 0.18743 0.1143 0.0
C1019 C 0.21726 0.19572 0.1364 0.0
C1020 C 0.23239 0.18985 0.15829 0.0
C1021 C 0.25883 0.17506 0.15788 0.0
C1022 C 0.21607 0.19443 0.09051 0.0
C1023 C 0.22047 0.19904 0.18227 0.0
H1024 H 0.18528 0.29679 0.14081 0.0
H1025 H 0.08856 0.1773 0.14442 0.0
H1026 H 0.26342 0.27301 0.14513 0.0
H1027 H 0.252 0.28453 0.11571 0.0
H1028 H 0.25133 0.31167 0.14166 0.0
H1029 H 0.09759 0.12242 0.13847 0.0
H1030 H 0.14146 0.1312 0.12219 0.0
H1031 H 0.14144 0.13063 0.15441 0.0
H1032 H 0.26497 0.1643 0.09763 0.0
H1033 H 0.26971 0.17008 0.17475 0.0
H1034 H 0.22372 0.22586 0.08917 0.0
H1035 H 0.1833 0.17599 0.08937 0.0
H1036 H 0.22947 0.18741 0.07494 0.0
H1037 H 0.22877 0.23072 0.1829 0.0
H1038 H 0.23477 0.19285 0.19768 0.0
H1039 H 0.1878 0.1812 0.1845 0.0
C1040 C 0.12199 0.85784 0.37043 0.0
C1041 C 0.13656 0.89876 0.36935 0.0
C1042 C 0.08134 0.8307 0.37287 0.0
C1043 C 0.05395 0.8444 0.37548 0.0
C1044 C 0.06857 0.88588 0.37528 0.0
C1045 C 0.10958 0.91251 0.37217 0.0
C1046 C 0.0683 0.78735 0.37263 0.0
C1047 C 0.04065 0.90208 0.37732 0.0
C1048 C 0.94676 0.77566 0.35597 0.0
C1049 C 0.92647 0.76332 0.37799 0.0
C1050 C 0.98798 0.80156 0.35498 0.0
C1051 C 1.01002 0.81555 0.37661 0.0
C1052 C 0.98984 0.80237 0.399 0.0
C1053 C 0.94817 0.77715 0.39944 0.0
C1054 C 1.00785 0.81454 0.33068 0.0
C1055 C 1.01223 0.81523 0.42247 0.0
H1056 H 0.1425 0.84673 0.36904 0.0
H1057 H 0.12028 0.94403 0.37116 0.0
H1058 H 0.0653 0.77735 0.39153 0.0
H1059 H 0.03958 0.76992 0.36327 0.0
H1060 H 0.09044 0.78148 0.36372 0.0
H1061 H 0.05665 0.93497 0.37789 0.0
H1062 H 1.02014 0.89201 0.36169 0.0
H1063 H 1.02225 0.89053 0.39382 0.0
H1064 H 0.93003 0.7657 0.33932 0.0
H1065 H 0.93251 0.76886 0.4165 0.0
H1066 H 0.03084 0.80582 0.32871 0.0
H1067 H 0.02301 0.8473 0.32921 0.0
H1068 H 0.98648 0.80142 0.31554 0.0
H1069 H 0.03621 0.80767 0.42251 0.0
H1070 H 0.99266 0.80097 0.43828 0.0
H1071 H 0.02647 0.84784 0.42441 0.0
C1072 C 0.86407 0.09607 0.11849 0.0
C1073 C 0.87054 0.11838 0.13958 0.0
C1074 C 0.84875 0.0546 0.11951 0.0
C1075 C 0.84181 0.03521 0.14218 0.0
C1076 C 0.84947 0.05804 0.16347 0.0
C1077 C 0.86321 0.09895 0.16188 0.0
C1078 C 0.83988 0.03149 0.09633 0.0
C1079 C 0.84342 0.03929 0.18806 0.0
C1080 C 0.77122 0.92357 0.14951 0.0
C1081 C 0.79707 0.90825 0.14978 0.0
C1082 C 0.7852 0.96433 0.14718 0.0
C1083 C 0.8263 0.99118 0.14387 0.0
C1084 C 0.85267 0.97585 0.14356 0.0
C1085 C 0.8378 0.9347 0.14645 0.0
C1086 C 0.75521 0.97789 0.14841 0.0
C1087 C 0.89688 1.00317 0.14141 0.0
H1088 H 0.87121 0.11106 0.10122 0.0
H1089 H 0.86901 0.11609 0.1783 0.0
H1090 H 0.85883 0.01779 0.09482 0.0
H1091 H 0.80855 1.00707 0.09635 0.0
H1092 H 0.84494 0.05038 0.08023 0.0
H1093 H 0.85313 0.06146 0.20283 0.0
H1094 H 0.81158 0.01732 0.19076 0.0
H1095 H 0.86017 0.0232 0.18942 0.0
H1096 H 0.7396 0.90354 0.15149 0.0
H1097 H 0.85824 0.92345 0.14695 0.0
H1098 H 0.74474 0.978 0.12992 0.0
H1099 H 0.76784 1.00787 0.15628 0.0
H1100 H 0.72893 0.9573 0.15932 0.0
H1101 H 0.90393 0.02143 0.12487 0.0
H1102 H 0.9134 0.98676 0.1409 0.0
H1103 H 0.90761 0.02382 0.15698 0.0
C1104 C 0.26343 0.17152 0.39695 0.0
C1105 C 0.27737 0.16348 0.37558 0.0
C1106 C 0.23737 0.18697 0.39636 0.0
C1107 C 0.22322 0.19244 0.37391 0.0
C1108 C 0.23663 0.1834 0.35237 0.0
C1109 C 0.26366 0.1695 0.35349 0.0
C1110 C 0.22492 0.19738 0.41972 0.0
C1111 C 0.22208 0.18803 0.32803 0.0
C1112 C 0.12628 0.19538 0.37068 0.0
C1113 C 0.14016 0.23572 0.36637 0.0
C1114 C 0.15292 0.18103 0.37378 0.0
C1115 C 0.19449 0.2076 0.37264 0.0
C1116 C 0.20833 0.24836 0.36852 0.0
C1117 C 0.1812 0.26185 0.36598 0.0
C1118 C 0.13654 0.13711 0.37698 0.0
C1119 C 0.25176 0.27837 0.36656 0.0
H1120 H 0.27253 0.16533 0.41409 0.0
H1121 H 0.27348 0.16238 0.33691 0.0
H1122 H 0.23191 0.2287 0.41919 0.0
H1123 H 0.19238 0.17872 0.42213 0.0
H1124 H 0.23991 0.19322 0.43555 0.0
H1125 H 0.23367 0.17771 0.31307 0.0
H1126 H 0.18917 0.17102 0.32752 0.0
H1127 H 0.23141 0.21961 0.32488 0.0
H1128 H 0.09461 0.17481 0.37074 0.0
H1129 H 0.19234 0.29322 0.36326 0.0
H1130 H 0.14911 0.13134 0.39338 0.0
H1131 H 0.14539 0.12536 0.3614 0.0
H1132 H 0.10367 0.12054 0.37841 0.0
H1133 H 0.26318 0.28896 0.38491 0.0
H1134 H 0.2569 0.3045 0.35574 0.0
H1135 H 0.26878 0.26565 0.35825 0.0
C1136 C 0.10854 0.85929 0.14525 0.0
C1137 C 0.12328 0.90026 0.146 0.0
C1138 C 0.06779 0.83218 0.14342 0.0
C1139 C 0.04045 0.84598 0.14109 0.0
C1140 C 0.05518 0.8875 0.1411 0.0
C1141 C 0.09634 0.91411 0.14355 0.0
C1142 C 0.05473 0.78879 0.1441 0.0
C1143 C 0.02728 0.90379 0.13972 0.0
C1144 C 0.93461 0.7781 0.1176 0.0
C1145 C 0.91343 0.76263 0.1391 0.0
C1146 C 0.97609 0.80432 0.11786 0.0
C1147 C 0.99652 0.81715 0.14017 0.0
C1148 C 0.97487 0.80218 0.16188 0.0
C1149 C 0.93393 0.77495 0.16104 0.0
C1150 C 0.99807 0.81825 0.09428 0.0
C1151 C 0.99494 0.81515 0.18611 0.0
H1152 H 0.12902 0.84811 0.14647 0.0
H1153 H 0.10724 0.94568 0.14438 0.0
H1154 H 0.02552 0.77124 0.15295 0.0
H1155 H 0.05288 0.77845 0.12535 0.0
H1156 H 0.07647 0.78322 0.15377 0.0
H1157 H 0.04331 0.93669 0.13924 0.0
H1158 H 1.00839 0.89239 0.12343 0.0
H1159 H 1.00722 0.89364 0.1556 0.0
H1160 H 0.91874 0.76989 0.10063 0.0
H1161 H 0.9176 0.76374 0.17776 0.0
H1162 H 1.02255 0.81142 0.09372 0.0
H1163 H 1.01164 0.85084 0.0927 0.0
H1164 H 0.97838 0.80414 0.07852 0.0
H1165 H 1.01753 0.80591 0.18804 0.0
H1166 H 0.97361 0.8024 0.20132 0.0
H1167 H 1.01059 0.84794 0.1875 0.0
C1168 C 0.7753 0.92053 0.37372 0.0
C1169 C 0.80179 0.90613 0.3721 0.0
C1170 C 0.78874 0.96113 0.37592 0.0
C1171 C 0.82993 0.98856 0.37754 0.0
C1172 C 0.85696 0.9741 0.37679 0.0
C1173 C 0.8426 0.9331 0.37408 0.0
C1174 C 0.75836 0.97418 0.37636 0.0
C1175 C 0.90117 1.00212 0.37764 0.0
C1176 C 0.86601 0.09427 0.35639 0.0
C1177 C 0.87569 0.11562 0.37805 0.0
C1178 C 0.851 0.05316 0.35605 0.0
C1179 C 0.84483 0.03235 0.37801 0.0
C1180 C 0.85363 0.05362 0.40008 0.0
C1181 C 0.86993 0.09519 0.39982 0.0
C1182 C 0.84263 0.03215 0.33206 0.0
C1183 C 0.84625 0.03251 0.42391 0.0
H1184 H 0.74366 0.89989 0.37288 0.0
H1185 H 0.86341 0.92237 0.37264 0.0
H1186 H 0.75432 0.98035 0.39526 0.0
H1187 H 0.76821 1.00133 0.36549 0.0
H1188 H 0.7291 0.95095 0.36942 0.0
H1189 H 0.91821 0.98622 0.37794 0.0
H1190 H 0.91046 0.02182 0.36163 0.0
H1191 H 0.90907 0.02129 0.39383 0.0
H1192 H 0.8713 0.11009 0.33948 0.0
H1193 H 0.87877 0.11174 0.41655 0.0
H1194 H 0.81089 1.00898 0.33096 0.0
H1195 H 0.86036 0.01712 0.33031 0.0
H1196 H 0.84968 0.05272 0.3166 0.0
H1197 H 0.81493 1.00821 0.42494 0.0
H1198 H 0.85241 0.05279 0.43944 0.0
H1199 H 0.86525 0.01887 0.42547 0.0
C1200 C 0.27197 0.17324 0.64615 0.0
C1201 C 0.24608 0.13223 0.64739 0.0
C1202 C 0.25787 0.19994 0.64397 0.0
C1203 C 0.21659 0.18564 0.64185 0.0
C1204 C 0.19015 0.14408 0.64237 0.0
C1205 C 0.20516 0.11791 0.64513 0.0
C1206 C 0.2878 0.24347 0.64404 0.0
C1207 C 0.14586 0.12729 0.64114 0.0
C1208 C 0.17994 0.25581 0.66152 0.0
C1209 C 0.17186 0.26812 0.63954 0.0
C1210 C 0.19413 0.22899 0.66245 0.0
C1211 C 0.20103 0.21408 0.64081 0.0
C1212 C 0.19316 0.22656 0.61845 0.0
C1213 C 0.17778 0.25268 0.6181 0.0
C1214 C 0.20145 0.21636 0.68674 0.0
C1215 C 0.20086 0.21219 0.59492 0.0
H1216 H 0.3037 0.18476 0.64719 0.0
H1217 H 0.18473 0.08632 0.64633 0.0
H1218 H 0.29472 0.25349 0.62512 0.0
H1219 H 0.27633 0.26082 0.65339 0.0
H1220 H 0.31595 0.24973 0.65289 0.0
H1221 H 0.12931 0.09439 0.64079 0.0
H1222 H 0.1359 0.13741 0.65701 0.0
H1223 H 0.13799 0.13834 0.62484 0.0
H1224 H 0.1744 0.26667 0.6782 0.0
H1225 H 0.16999 0.26067 0.6011 0.0
H1226 H 0.2333 0.22558 0.68857 0.0
H1227 H 0.18427 0.1836 0.6883 0.0
H1228 H 0.19306 0.22936 0.7019 0.0
H1229 H 0.23217 0.21901 0.59422 0.0
H1230 H 0.19499 0.22595 0.5791 0.0
H1231 H 0.18183 0.17957 0.59359 0.0
C1232 C 0.09869 0.85491 0.89801 0.0
C1233 C 0.12092 0.86267 0.87676 0.0
C1234 C 0.05702 0.83869 0.89721 0.0
C1235 C 0.03743 0.83212 0.87464 0.0
C1236 C 0.06011 0.8407 0.85322 0.0
C1237 C 0.10122 0.8554 0.85457 0.0
C1238 C 0.03398 0.82871 0.92048 0.0
C1239 C 0.04104 0.83492 0.82874 0.0
C1240 C 0.92592 0.76182 0.86673 0.0
C1241 C 0.91076 0.78774 0.86635 0.0
C1242 C 0.96662 0.77566 0.86952 0.0
C1243 C 0.9934 0.8166 0.87312 0.0
C1244 C 0.97815 0.843 0.87349 0.0
C1245 C 0.9371 0.8283 0.87013 0.0
C1246 C 0.9803 0.7458 0.86843 0.0
C1247 C 1.00547 0.88705 0.87619 0.0
H1248 H 0.11389 0.86195 0.91521 0.0
H1249 H 0.11832 0.86222 0.83805 0.0
H1250 H 1.01972 0.8471 0.92243 0.0
H1251 H 1.00994 0.79725 0.92021 0.0
H1252 H 0.0531 0.83359 0.93645 0.0
H1253 H 0.06303 0.8446 0.81384 0.0
H1254 H 1.01881 0.80321 0.82603 0.0
H1255 H 0.02513 0.85187 0.82762 0.0
H1256 H 0.90585 0.73031 0.86446 0.0
H1257 H 0.9259 0.84876 0.86961 0.0
H1258 H 0.98223 0.73698 0.88708 0.0
H1259 H 1.00964 0.75814 0.85964 0.0
H1260 H 0.95899 0.71865 0.8585 0.0
H1261 H 0.02353 0.89348 0.89278 0.0
H1262 H 0.98901 0.90352 0.87698 0.0
H1263 H 0.02635 0.89833 0.86072 0.0
C1264 C 0.79087 0.93316 0.65641 0.0
C1265 C 0.77697 0.91061 0.63532 0.0
C1266 C 0.82206 0.97261 0.65579 0.0
C1267 C 0.84023 0.99008 0.63351 0.0
C1268 C 0.82523 0.96785 0.61198 0.0
C1269 C 0.79416 0.92815 0.61317 0.0
C1270 C 0.83657 0.99517 0.67917 0.0
C1271 C 0.84272 0.98562 0.5878 0.0
C1272 C 0.91024 0.10214 0.63672 0.0
C1273 C 0.94662 0.10426 0.64146 0.0
C1274 C 0.87555 0.06542 0.63287 0.0
C1275 C 0.87729 0.0299 0.63341 0.0
C1276 C 0.91455 0.03227 0.63659 0.0
C1277 C 0.94862 0.06927 0.64054 0.0
C1278 C 0.83705 0.06485 0.6287 0.0
C1279 C 0.91815 0.99544 0.63724 0.0
H1280 H 0.77781 0.91954 0.67357 0.0
H1281 H 0.78398 0.91054 0.59687 0.0
H1282 H 0.86752 1.00223 0.6826 0.0
H1283 H 0.8367 0.02366 0.67794 0.0
H1284 H 0.81792 0.97819 0.69478 0.0
H1285 H 0.82559 0.96574 0.57266 0.0
H1286 H 0.84345 1.01426 0.58554 0.0
H1287 H 0.87376 0.99175 0.58676 0.0
H1288 H 0.90844 0.12901 0.63729 0.0
H1289 H 0.97678 0.07071 0.64376 0.0
H1290 H 0.81255 0.04079 0.63913 0.0
H1291 H 0.82968 0.05947 0.60928 0.0
H1292 H 0.83903 0.09341 0.63362 0.0
H1293 H 0.90246 0.97754 0.65334 0.0
H1294 H 0.94954 1.00246 0.63795 0.0
H1295 H 0.9039 0.97684 0.62113 0.0
C1296 C 0.17806 0.25236 0.85353 0.0
C1297 C 0.16897 0.2644 0.8753 0.0
C1298 C 0.19247 0.2257 0.85302 0.0
C1299 C 0.1988 0.21093 0.87489 0.0
C1300 C 0.19044 0.22362 0.89704 0.0
C1301 C 0.17458 0.24933 0.89696 0.0
C1302 C 0.20051 0.21297 0.82895 0.0
C1303 C 0.19822 0.21 0.92079 0.0
C1304 C 0.20186 0.11416 0.87136 0.0
C1305 C 0.2427 0.1281 0.86911 0.0
C1306 C 0.18723 0.14068 0.87391 0.0
C1307 C 0.214 0.18219 0.87427 0.0
C1308 C 0.25522 0.19607 0.87231 0.0
C1309 C 0.26893 0.16904 0.87027 0.0
C1310 C 0.143 0.12432 0.87503 0.0
C1311 C 0.28549 0.23949 0.87231 0.0
H1312 H 0.17307 0.2633 0.83669 0.0
H1313 H 0.16628 0.25738 0.91379 0.0
H1314 H 0.18337 0.1802 0.82743 0.0
H1315 H 0.1926 0.22591 0.81357 0.0
H1316 H 0.23241 0.22217 0.82749 0.0
H1317 H 0.19201 0.22396 0.9364 0.0
H1318 H 0.17954 0.17737 0.92237 0.0
H1319 H 0.22967 0.21731 0.92164 0.0
H1320 H 0.18122 0.08261 0.87025 0.0
H1321 H 0.3006 0.18021 0.86922 0.0
H1322 H 0.13338 0.13454 0.85908 0.0
H1323 H 0.13519 0.13561 0.89126 0.0
H1324 H 0.12616 0.09142 0.87543 0.0
H1325 H 0.27448 0.25704 0.86279 0.0
H1326 H 0.31375 0.24547 0.86371 0.0
H1327 H 0.292 0.24941 0.89125 0.0
C1328 C 0.10533 0.86728 0.65532 0.0
C1329 C 0.12831 0.87206 0.63473 0.0
C1330 C 0.06465 0.85498 0.65363 0.0
C1331 C 0.04585 0.84595 0.63079 0.0
C1332 C 0.06899 0.85076 0.6099 0.0
C1333 C 0.11009 0.86493 0.61207 0.0
C1334 C 0.04181 0.85158 0.67634 0.0
C1335 C 0.05028 0.84047 0.58522 0.0
C1336 C 0.93346 0.77654 0.62746 0.0
C1337 C 0.92006 0.80206 0.61988 0.0
C1338 C 0.97372 0.79057 0.63234 0.0
C1339 C 1.00205 0.8312 0.62868 0.0
C1340 C 0.98823 0.85755 0.62234 0.0
C1341 C 0.94744 0.84267 0.61797 0.0
C1342 C 0.98449 0.76101 0.64185 0.0
C1343 C 1.0164 0.90157 0.62033 0.0
H1344 H 0.11938 0.87366 0.67289 0.0
H1345 H 0.12794 0.87019 0.59602 0.0
H1346 H 0.02386 0.86627 0.67394 0.0
H1347 H 1.02104 0.81989 0.68033 0.0
H1348 H 0.06165 0.86497 0.69213 0.0
H1349 H 0.0242 0.81005 0.58533 0.0
H1350 H 0.03952 0.861 0.58023 0.0
H1351 H 0.07141 0.84222 0.57113 0.0
H1352 H 0.91222 0.74529 0.62976 0.0
H1353 H 0.93708 0.86266 0.61251 0.0
H1354 H 0.96802 0.74809 0.65888 0.0
H1355 H 1.01641 0.77392 0.6456 0.0
H1356 H 0.9746 0.73616 0.6289 0.0
H1357 H 1.00044 0.91854 0.62012 0.0
H1358 H 0.03378 0.9081 0.60343 0.0
H1359 H 0.03771 0.91223 0.63557 0.0
C1360 C 0.86463 0.10258 0.86369 0.0
C1361 C 0.90572 0.11754 0.8637 0.0
C1362 C 0.83757 0.0619 0.86595 0.0
C1363 C 0.85148 0.03484 0.86941 0.0
C1364 C 0.89312 0.04985 0.87009 0.0
C1365 C 0.91969 0.09094 0.8673 0.0
C1366 C 0.79411 0.04866 0.86443 0.0
C1367 C 0.90964 0.02227 0.87245 0.0
C1368 C 0.78311 0.92952 0.89364 0.0
C1369 C 0.76809 0.90783 0.87228 0.0
C1370 C 0.80936 0.97098 0.89309 0.0
C1371 C 0.82274 0.99089 0.87064 0.0
C1372 C 0.80834 0.96869 0.84908 0.0
C1373 C 0.78103 0.92781 0.8502 0.0
C1374 C 0.82268 0.9935 0.9165 0.0
C1375 C 0.82199 0.98809 0.82472 0.0
H1376 H 0.85336 0.12283 0.86147 0.0
H1377 H 0.95137 0.10202 0.86705 0.0
H1378 H 0.77669 0.01867 0.85659 0.0
H1379 H 0.78326 0.04873 0.88283 0.0
H1380 H 0.78883 0.06934 0.85337 0.0
H1381 H 0.94256 0.03849 0.87342 0.0
H1382 H 0.89767 1.0037 0.88883 0.0
H1383 H 0.90024 1.00193 0.85674 0.0
H1384 H 0.77459 0.91407 0.91075 0.0
H1385 H 0.77028 0.91111 0.83358 0.0
H1386 H 0.81559 0.01779 0.91652 0.0
H1387 H 0.8553 1.00734 0.91839 0.0
H1388 H 0.80832 0.97417 0.93237 0.0
H1389 H 0.81228 1.01017 0.82203 0.0
H1390 H 0.81006 0.96633 0.80972 0.0
H1391 H 0.85488 1.00418 0.82377 0.0
C1392 C 0.41878 0.21527 0.30971 0.0
C1393 C 0.38215 0.18876 0.32016 0.0
C1394 C 0.42238 0.22143 0.28448 0.0
C1395 C 0.38876 0.19984 0.2694 0.0
C1396 C 0.35138 0.17488 0.28024 0.0
C1397 C 0.34857 0.17007 0.3054 0.0
C1398 C 0.46256 0.2493 0.27388 0.0
C1399 C 0.31467 0.15097 0.26519 0.0
C1400 C 0.38177 0.21475 0.20155 0.0
C1401 C 0.38762 0.18476 0.19186 0.0
C1402 C 0.38473 0.2221 0.22668 0.0
C1403 C 0.39308 0.1985 0.2425 0.0
C1404 C 0.40134 0.16992 0.23253 0.0
C1405 C 0.39902 0.16385 0.2075 0.0
C1406 C 0.37695 0.25376 0.23633 0.0
C1407 C 0.40975 0.14348 0.24839 0.0
H1408 H 0.44488 0.2297 0.32106 0.0
H1409 H 0.32016 0.14998 0.31349 0.0
H1410 H 0.47504 0.23195 0.26562 0.0
H1411 H 0.46003 0.26764 0.25946 0.0
H1412 H 0.48367 0.26916 0.28778 0.0
H1413 H 0.28777 0.13331 0.27638 0.0
H1414 H 0.30947 0.17081 0.25333 0.0
H1415 H 0.31898 0.13045 0.25339 0.0
H1416 H 0.37303 0.23117 0.18972 0.0
H1417 H 0.40438 0.1411 0.20027 0.0
H1418 H 0.39771 0.27036 0.25121 0.0
H1419 H 0.34637 0.23977 0.24367 0.0
H1420 H 0.37983 0.27498 0.22203 0.0
H1421 H 0.4339 0.16138 0.2613 0.0
H1422 H 0.41822 0.12459 0.23783 0.0
H1423 H 0.38287 0.12392 0.25907 0.0
C1424 C 0.85905 0.69444 0.30427 0.0
C1425 C 0.84675 0.66216 0.31988 0.0
C1426 C 0.85943 0.68999 0.27917 0.0
C1427 C 0.84843 0.65236 0.26925 0.0
C1428 C 0.83992 0.62046 0.28514 0.0
C1429 C 0.83862 0.62557 0.31032 0.0
C1430 C 0.8688 0.72501 0.26325 0.0
C1431 C 0.82993 0.58036 0.2755 0.0
C1432 C 0.79498 0.63429 0.20927 0.0
C1433 C 0.82611 0.64742 0.19247 0.0
C1434 C 0.80159 0.63387 0.23412 0.0
C1435 C 0.84021 0.64564 0.24267 0.0
C1436 C 0.87112 0.65543 0.22567 0.0
C1437 C 0.86384 0.65664 0.20078 0.0
C1438 C 0.76765 0.62373 0.2513 0.0
C1439 C 0.91244 0.66672 0.23372 0.0
H1440 H 0.86661 0.72303 0.31172 0.0
H1441 H 0.82922 0.60051 0.32233 0.0
H1442 H 0.89328 0.73076 0.2507 0.0
H1443 H 0.84248 0.71837 0.25216 0.0
H1444 H 0.87743 0.75239 0.27378 0.0
H1445 H 0.83216 0.56148 0.28971 0.0
H1446 H 0.79915 0.56499 0.26846 0.0
H1447 H 0.84998 0.58346 0.26037 0.0
H1448 H 0.76548 0.62625 0.20309 0.0
H1449 H 0.88813 0.66668 0.18805 0.0
H1450 H 0.77357 0.65063 0.26154 0.0
H1451 H 0.76487 0.60124 0.26457 0.0
H1452 H 0.73884 0.61218 0.2418 0.0
H1453 H 0.92888 0.69863 0.23844 0.0
H1454 H 0.9291 0.66176 0.21915 0.0
H1455 H 0.91176 0.64964 0.24989 0.0
C1456 C 0.81672 0.1678 0.20147 0.0
C1457 C 0.84353 0.20568 0.19261 0.0
C1458 C 0.80981 0.16089 0.22652 0.0
C1459 C 0.83085 0.19239 0.24313 0.0
C1460 C 0.85588 0.23108 0.23405 0.0
C1461 C 0.86132 0.23725 0.20907 0.0
C1462 C 0.78157 0.11937 0.23502 0.0
C1463 C 0.87964 0.26567 0.25075 0.0
C1464 C 0.81775 0.19615 0.31127 0.0
C1465 C 0.8479 0.18965 0.31983 0.0
C1466 C 0.80894 0.19334 0.28636 0.0
C1467 C 0.8316 0.185 0.26969 0.0
C1468 C 0.85974 0.17527 0.2787 0.0
C1469 C 0.86706 0.17722 0.30358 0.0
C1470 C 0.77686 0.20132 0.27778 0.0
C1471 C 0.88388 0.16495 0.26197 0.0
H1472 H 0.80266 0.14314 0.18902 0.0
H1473 H 0.88154 0.26682 0.20247 0.0
H1474 H 0.79784 0.10288 0.23683 0.0
H1475 H 0.76819 0.11917 0.25273 0.0
H1476 H 0.75742 0.10329 0.22171 0.0
H1477 H 0.89574 0.29425 0.24092 0.0
H1478 H 0.86006 0.26815 0.26431 0.0
H1479 H 0.90161 0.26083 0.2607 0.0
H1480 H 0.80261 0.20548 0.32379 0.0
H1481 H 0.88929 0.17074 0.31031 0.0
H1482 H 0.75924 0.18038 0.26319 0.0
H1483 H 0.79048 0.23173 0.27031 0.0
H1484 H 0.7566 0.19875 0.29267 0.0
H1485 H 0.86399 0.13705 0.25231 0.0
H1486 H 0.90661 0.16103 0.27172 0.0
H1487 H 0.89899 0.18843 0.24821 0.0
C1488 C 0.18343 0.33889 0.70859 0.0
C1489 C 0.2032 0.3715 0.69317 0.0
C1490 C 0.1887 0.34268 0.73366 0.0
C1491 C 0.21533 0.38009 0.74382 0.0
C1492 C 0.23817 0.41251 0.72813 0.0
C1493 C 0.23153 0.40796 0.70293 0.0
C1494 C 0.16297 0.30728 0.74934 0.0
C1495 C 0.26771 0.45264 0.73795 0.0
C1496 C 0.17833 0.39464 0.80425 0.0
C1497 C 0.1957 0.38027 0.82061 0.0
C1498 C 0.18648 0.39718 0.77947 0.0
C1499 C 0.21357 0.38592 0.77052 0.0
C1500 C 0.23406 0.3749 0.7872 0.0
C1501 C 0.22463 0.37183 0.81205 0.0
C1502 C 0.16472 0.41067 0.76292 0.0
C1503 C 0.26461 0.36455 0.77877 0.0
H1504 H 0.16161 0.31065 0.70111 0.0
H1505 H 0.2467 0.43341 0.69114 0.0
H1506 H 0.18176 0.30025 0.76096 0.0
H1507 H 0.14448 0.31425 0.76136 0.0
H1508 H 0.14303 0.28053 0.73862 0.0
H1509 H 0.29029 0.47084 0.72419 0.0
H1510 H 0.25196 0.46856 0.74335 0.0
H1511 H 0.28298 0.44988 0.7541 0.0
H1512 H 0.15672 0.40234 0.81071 0.0
H1513 H 0.23846 0.36095 0.8245 0.0
H1514 H 0.15548 0.39325 0.74602 0.0
H1515 H 0.18478 0.44211 0.758 0.0
H1516 H 0.13796 0.40847 0.77165 0.0
H1517 H 0.2495 0.33349 0.77227 0.0
H1518 H 0.28499 0.36727 0.7936 0.0
H1519 H 0.28235 0.38393 0.76361 0.0
C1520 C 0.18883 0.85896 0.80478 0.0
C1521 C 0.2025 0.83995 0.82022 0.0
C1522 C 0.18902 0.85484 0.77962 0.0
C1523 C 0.20199 0.82986 0.76945 0.0
C1524 C 0.2124 0.80767 0.78514 0.0
C1525 C 0.21312 0.81342 0.81037 0.0
C1526 C 0.17814 0.87962 0.76392 0.0
C1527 C 0.22507 0.77964 0.77525 0.0
C1528 C 0.1846 0.81645 0.70117 0.0
C1529 C 0.22124 0.84624 0.69224 0.0
C1530 C 0.17851 0.8086 0.7262 0.0
C1531 C 0.20951 0.83153 0.74273 0.0
C1532 C 0.24719 0.85982 0.73357 0.0
C1533 C 0.25267 0.86631 0.7086 0.0
C1534 C 0.1383 0.77709 0.73497 0.0
C1535 C 0.28114 0.88551 0.75024 0.0
H1536 H 0.17988 0.87886 0.81241 0.0
H1537 H 0.22392 0.79877 0.82222 0.0
H1538 H 0.2043 0.90062 0.75312 0.0
H1539 H 0.15442 0.86046 0.75109 0.0
H1540 H 0.16782 0.89688 0.77462 0.0
H1541 H 0.22424 0.75894 0.7893 0.0
H1542 H 0.20574 0.76221 0.76002 0.0
H1543 H 0.25585 0.79683 0.76829 0.0
H1544 H 0.16012 0.80052 0.6888 0.0
H1545 H 0.28144 0.88873 0.70196 0.0
H1546 H 0.12181 0.79126 0.74217 0.0
H1547 H 0.1413 0.75964 0.74978 0.0
H1548 H 0.12045 0.7566 0.72024 0.0
H1549 H 0.2738 0.90551 0.76043 0.0
H1550 H 0.30937 0.90388 0.74034 0.0
H1551 H 0.28585 0.86709 0.76357 0.0
C1552 C 0.63056 0.82732 0.6998 0.0
C1553 C 0.66715 0.83478 0.69049 0.0
C1554 C 0.62529 0.82923 0.72491 0.0
C1555 C 0.65714 0.83814 0.74096 0.0
C1556 C 0.69479 0.84851 0.73125 0.0
C1557 C 0.69931 0.84702 0.70625 0.0
C1558 C 0.58509 0.81953 0.73436 0.0
C1559 C 0.72993 0.85888 0.74735 0.0
C1560 C 0.66147 0.85596 0.80914 0.0
C1561 C 0.65268 0.81871 0.818 0.0
C1562 C 0.66008 0.86229 0.78413 0.0
C1563 C 0.65033 0.83085 0.7676 0.0
C1564 C 0.63905 0.79271 0.77672 0.0
C1565 C 0.63984 0.78708 0.80165 0.0
C1566 C 0.67127 0.90321 0.77544 0.0
C1567 C 0.62927 0.75832 0.76007 0.0
H1568 H 0.60562 0.81794 0.68767 0.0
H1569 H 0.72787 0.85372 0.69902 0.0
H1570 H 0.57 0.78928 0.74215 0.0
H1571 H 0.58817 0.84043 0.74892 0.0
H1572 H 0.56597 0.82068 0.71989 0.0
H1573 H 0.75645 0.86361 0.73705 0.0
H1574 H 0.73774 0.88627 0.75757 0.0
H1575 H 0.72231 0.83496 0.76067 0.0
H1576 H 0.6714 0.88063 0.82153 0.0
H1577 H 0.63229 0.75796 0.80824 0.0
H1578 H 0.65412 0.90192 0.75916 0.0
H1579 H 0.70322 0.91949 0.77068 0.0
H1580 H 0.6663 0.92034 0.78968 0.0
H1581 H 0.60613 0.75442 0.74696 0.0
H1582 H 0.61877 0.73004 0.76999 0.0
H1583 H 0.65613 0.76455 0.74965 0.0
C1584 C 0.23278 0.97878 0.9549 0.0
C1585 C 0.23397 0.94347 0.95712 0.0
C1586 C 0.24427 1.00633 0.97398 0.0
C1587 C 0.25818 0.99907 0.99593 0.0
C1588 C 0.25862 0.96296 0.99845 0.0
C1589 C 0.24659 0.93571 0.97906 0.0
C1590 C 0.24266 0.04388 0.97032 0.0
C1591 C 0.27352 0.95387 0.02129 0.0
C1592 C 0.32828 0.08739 0.03588 0.0
C1593 C 0.30317 0.08535 0.05465 0.0
C1594 C 0.31396 0.06006 0.01654 0.0
C1595 C 0.27344 0.02975 0.01584 0.0
C1596 C 0.2478 0.02844 0.03448 0.0
C1597 C 0.26304 0.05582 0.05372 0.0
C1598 C 0.34268 0.06262 0.99737 0.0
C1599 C 0.20443 0.99724 0.03455 0.0
H1600 H 0.22373 0.98537 0.93786 0.0
H1601 H 0.24917 0.90943 0.98069 0.0
H1602 H 0.22544 0.0475 0.98506 0.0
H1603 H 0.2731 0.06985 0.97096 0.0
H1604 H 0.22901 0.04415 0.9528 0.0
H1605 H 0.26992 0.92373 0.02105 0.0
H1606 H 0.30542 0.97587 0.02374 0.0
H1607 H 0.25745 0.95632 0.03713 0.0
H1608 H 0.35959 0.10915 0.03693 0.0
H1609 H 0.24375 0.05334 0.06855 0.0
H1610 H 0.33169 0.06454 0.97927 0.0
H1611 H 0.34494 0.03534 0.99768 0.0
H1612 H 0.37279 0.08863 0.99991 0.0
H1613 H 0.19058 0.99748 0.01713 0.0
H1614 H 0.18786 1.0017 0.04939 0.0
H1615 H 0.2013 0.96749 0.03658 0.0
C1616 C 0.81749 0.76725 0.45629 0.0
C1617 C 0.81199 0.72884 0.45739 0.0
C1618 C 0.80551 0.78299 0.47532 0.0
C1619 C 0.78664 0.75953 0.49593 0.0
C1620 C 0.7818 0.72092 0.49733 0.0
C1621 C 0.79443 0.70605 0.47806 0.0
C1622 C 0.81189 0.82436 0.47297 0.0
C1623 C 0.76152 0.69451 0.5187 0.0
C1624 C 0.77866 0.80676 0.55482 0.0
C1625 C 0.73983 0.80032 0.55383 0.0
C1626 C 0.79457 0.79465 0.53595 0.0
C1627 C 0.7709 0.77485 0.51559 0.0
C1628 C 0.73179 0.76894 0.51433 0.0
C1629 C 0.71678 0.78177 0.53342 0.0
C1630 C 0.8364 0.80208 0.53818 0.0
C1631 C 0.70512 0.74747 0.49328 0.0
H1632 H 0.83017 0.78465 0.4401 0.0
H1633 H 0.78865 0.67586 0.47867 0.0
H1634 H 0.78282 0.82315 0.47217 0.0
H1635 H 0.82781 0.84224 0.48902 0.0
H1636 H 0.82912 0.8397 0.45656 0.0
H1637 H 0.76287 0.66671 0.51807 0.0
H1638 H 0.77529 0.71027 0.53574 0.0
H1639 H 0.72993 0.68673 0.51913 0.0
H1640 H 0.79633 0.82035 0.57077 0.0
H1641 H 0.68634 0.77551 0.53292 0.0
H1642 H 0.85422 0.81918 0.52237 0.0
H1643 H 0.83617 0.77351 0.53828 0.0
H1644 H 0.85127 0.8186 0.55486 0.0
H1645 H 0.71973 0.7621 0.47613 0.0
H1646 H 0.67611 0.74642 0.49451 0.0
H1647 H 0.69965 0.71668 0.49255 0.0
C1648 C 0.04134 0.28769 0.95309 0.0
C1649 C 0.0806 0.29471 0.95372 0.0
C1650 C 1.01546 0.27194 0.97285 0.0
C1651 C 0.02854 0.26267 0.99435 0.0
C1652 C 0.06769 0.26846 0.99509 0.0
C1653 C 0.09316 0.28421 0.97478 0.0
C1654 C 0.97441 0.26686 0.97097 0.0
C1655 C 0.08302 0.25897 0.01757 0.0
C1656 C 0.97931 0.27258 0.05142 0.0
C1657 C 0.95039 0.23332 0.05689 0.0
C1658 C 1.00525 0.28208 0.03172 0.0
C1659 C 1.0027 0.25165 0.01659 0.0
C1660 C 0.97319 0.21178 0.02167 0.0
C1661 C 0.94726 0.20308 0.04166 0.0
C1662 C 0.03516 0.32509 0.02695 0.0
C1663 C 0.96922 0.17834 0.00605 0.0
H1664 H 0.03051 0.2951 0.93709 0.0
H1665 H 0.12294 0.28867 0.97554 0.0
H1666 H 0.95164 0.23656 0.97655 0.0
H1667 H 0.97197 0.28796 0.98331 0.0
H1668 H 0.96744 0.27216 0.9524 0.0
H1669 H 0.11267 0.26195 0.01479 0.0
H1670 H 0.08527 0.27925 0.03231 0.0
H1671 H 0.06194 0.22834 0.0236 0.0
H1672 H 0.98173 0.29641 0.06257 0.0
H1673 H 0.92529 0.17265 0.0457 0.0
H1674 H 0.02905 0.33411 0.00923 0.0
H1675 H 0.06552 0.32931 0.02612 0.0
H1676 H 0.03458 0.34512 0.04099 0.0
H1677 H 0.96189 0.18231 0.98732 0.0
H1678 H 0.94586 0.14895 0.01271 0.0
H1679 H 0.9979 0.1787 1.00539 0.0
C1680 C 0.33505 0.08796 0.47548 0.0
C1681 C 0.31037 0.08791 0.45709 0.0
C1682 C 0.31969 0.0607 0.49477 0.0
C1683 C 0.27856 0.03225 0.49568 0.0
C1684 C 0.25344 0.03275 0.47732 0.0
C1685 C 0.26967 0.06026 0.4582 0.0
C1686 C 0.3478 0.06143 0.51374 0.0
C1687 C 0.20952 1.0034 0.47746 0.0
C1688 C 0.24804 0.93825 0.53322 0.0
C1689 C 0.23761 0.94803 0.55531 0.0
C1690 C 0.26032 0.96478 0.51345 0.0
C1691 C 0.2621 1.00201 0.51573 0.0
C1692 C 0.24989 1.01109 0.53774 0.0
C1693 C 0.23824 0.98431 0.55719 0.0
C1694 C 0.2733 0.95377 0.49051 0.0
C1695 C 0.25059 0.04988 0.54112 0.0
H1696 H 0.36671 0.1083 0.47425 0.0
H1697 H 0.25069 0.05928 0.44361 0.0
H1698 H 0.33779 0.06468 0.5319 0.0
H1699 H 0.3478 0.03296 0.51355 0.0
H1700 H 0.37866 0.08598 0.5109 0.0
H1701 H 0.19366 1.0089 0.46266 0.0
H1702 H 0.20454 0.97291 0.47553 0.0
H1703 H 0.19631 1.00473 0.49492 0.0
H1704 H 0.2489 0.91101 0.53177 0.0
H1705 H 0.23063 0.99231 0.57429 0.0
H1706 H 0.30556 0.97401 0.48776 0.0
H1707 H 0.25777 0.95734 0.47479 0.0
H1708 H 0.26747 0.92281 0.49086 0.0
H1709 H 0.28165 0.07473 0.54035 0.0
H1710 H 0.23744 0.05128 0.55862 0.0
H1711 H 0.23409 0.05441 0.52634 0.0
C1712 C 0.82313 0.74388 0.03806 0.0
C1713 C 0.79849 0.73203 0.05849 0.0
C1714 C 0.81389 0.75917 0.01736 0.0
C1715 C 0.77915 0.76266 0.01696 0.0
C1716 C 0.75494 0.7517 0.03777 0.0
C1717 C 0.76495 0.73697 0.05805 0.0
C1718 C 0.84089 0.7709 0.99573 0.0
C1719 C 0.71727 0.75396 0.03836 0.0
C1720 C 0.7564 0.82123 0.96971 0.0
C1721 C 0.7319 0.79119 0.95352 0.0
C1722 C 0.77344 0.81292 0.9899 0.0
C1723 C 0.76531 0.77356 0.9943 0.0
C1724 C 0.74023 0.74327 0.9781 0.0
C1725 C 0.7242 0.75244 0.95808 0.0
C1726 C 0.8002 0.84625 0.00653 0.0
C1727 C 0.72943 0.7007 0.98218 0.0
H1728 H 0.84946 0.74109 0.03815 0.0
H1729 H 0.74561 0.72871 0.07359 0.0
H1730 H 0.82505 0.75082 0.98044 0.0
H1731 H 0.8493 0.80137 0.98997 0.0
H1732 H 0.86829 0.76962 0.99943 0.0
H1733 H 0.70272 0.74632 0.05633 0.0
H1734 H 0.72361 0.78416 0.03348 0.0
H1735 H 0.69599 0.73321 0.02486 0.0
H1736 H 0.76289 0.85128 0.96635 0.0
H1737 H 0.70509 0.72873 0.94599 0.0
H1738 H 0.82905 0.84719 0.00846 0.0
H1739 H 0.7867 0.84107 0.02473 0.0
H1740 H 0.80573 0.87549 0.99992 0.0
H1741 H 0.75665 0.69843 0.98367 0.0
H1742 H 0.71076 0.68081 0.96746 0.0
H1743 H 0.71296 0.68988 0.99941 0.0
C1744 C 0.0643 0.31963 0.55141 0.0
C1745 C 0.0907 0.3065 0.5579 0.0
C1746 C 0.03859 0.30372 0.53159 0.0
C1747 C 0.03951 0.27419 0.51717 0.0
C1748 C 0.06707 0.26159 0.52307 0.0
C1749 C 0.09233 0.27787 0.54334 0.0
C1750 C 1.01054 0.3189 0.526 0.0
C1751 C 0.06972 0.23078 0.50801 0.0
C1752 C 0.9495 0.21616 0.47532 0.0
C1753 C 0.96267 0.2382 0.4539 0.0
C1754 C 0.9744 0.2266 0.49588 0.0
C1755 C 1.01379 0.25935 0.49495 0.0
C1756 C 0.02759 0.28057 0.47308 0.0
C1757 C 1.00205 0.27002 0.45312 0.0
C1758 C 0.95821 0.20324 0.51881 0.0
C1759 C 0.06917 0.31548 0.4709 0.0
H1760 H 0.06392 0.34291 0.56178 0.0
H1761 H 0.11267 0.26756 0.54809 0.0
H1762 H 1.01803 0.33389 0.50821 0.0
H1763 H 0.97963 0.29382 0.52489 0.0
H1764 H 1.01174 0.34017 0.53977 0.0
H1765 H 0.09229 0.22379 0.51498 0.0
H1766 H 0.04047 0.20315 0.50761 0.0
H1767 H 0.07739 0.24131 0.48915 0.0
H1768 H 0.91964 0.19112 0.47617 0.0
H1769 H 1.01324 0.28741 0.43682 0.0
H1770 H 0.9572 0.2227 0.53307 0.0
H1771 H 0.97811 0.19246 0.52529 0.0
H1772 H 0.92789 0.17748 0.51641 0.0
H1773 H 0.07225 0.34005 0.48252 0.0
H1774 H 0.07668 0.32658 0.4521 0.0
H1775 H 0.09117 0.3073 0.47721 0.0
C1776 C 0.58801 0.09944 0.117 0.0
C1777 C 0.62254 0.13573 0.11212 0.0
C1778 C 0.55101 0.0971 0.1205 0.0
C1779 C 0.54813 0.13185 0.11905 0.0
C1780 C 0.5834 0.16895 0.11602 0.0
C1781 C 0.62014 0.17046 0.11265 0.0
C1782 C 0.51457 0.05705 0.12423 0.0
C1783 C 0.58192 0.20684 0.11463 0.0
C1784 C 0.45562 0.12551 0.09124 0.0
C1785 C 0.43633 0.13044 0.11116 0.0
C1786 C 0.49105 0.12457 0.09379 0.0
C1787 C 0.50814 0.12884 0.11693 0.0
C1788 C 0.48762 0.13166 0.13737 0.0
C1789 C 0.45208 0.13273 0.13424 0.0
C1790 C 0.5111 0.1207 0.07146 0.0
C1791 C 0.50409 0.13562 0.16243 0.0
H1792 H 0.58962 0.07246 0.11699 0.0
H1793 H 0.6465 0.19859 0.10883 0.0
H1794 H 0.49752 0.05786 0.14004 0.0
H1795 H 0.49487 0.04929 0.10828 0.0
H1796 H 0.52207 0.03332 0.12703 0.0
H1797 H 0.612 0.23348 0.11512 0.0
H1798 H 0.5672 0.2073 0.09761 0.0
H1799 H 0.56413 0.2085 0.12975 0.0
H1800 H 0.44363 0.12387 0.07337 0.0
H1801 H 0.43772 0.13716 0.1497 0.0
H1802 H 0.51669 0.09558 0.07344 0.0
H1803 H 0.54028 0.14797 0.069 0.0
H1804 H 0.49312 0.11589 0.05494 0.0
H1805 H 0.51622 0.11548 0.16506 0.0
H1806 H 0.4812 0.12915 0.17643 0.0
H1807 H 0.52877 0.16638 0.16509 0.0
C1808 C 0.71455 0.57956 0.37505 0.0
C1809 C 0.72698 0.59494 0.3983 0.0
C1810 C 0.67806 0.54417 0.37143 0.0
C1811 C 0.65387 0.52355 0.39155 0.0
C1812 C 0.66574 0.54027 0.41484 0.0
C1813 C 0.702 0.57547 0.41788 0.0
C1814 C 0.66658 0.52801 0.34623 0.0
C1815 C 0.64086 0.52014 0.43684 0.0
C1816 C 0.54472 0.4445 0.39122 0.0
C1817 C 0.5464 0.41015 0.39674 0.0
C1818 C 0.57943 0.48113 0.38731 0.0
C1819 C 0.61698 0.48377 0.38905 0.0
C1820 C 0.61867 0.44853 0.39254 0.0
C1821 C 0.58339 0.41215 0.3963 0.0
C1822 C 0.57602 0.51752 0.38293 0.0
C1823 C 0.65796 0.44977 0.39422 0.0
H1824 H 0.73402 0.59416 0.35988 0.0
H1825 H 0.7116 0.58724 0.43588 0.0
H1826 H 0.6738 0.50409 0.34356 0.0
H1827 H 0.63426 0.51506 0.34324 0.0
H1828 H 0.68289 0.55129 0.33245 0.0
H1829 H 0.65348 0.5378 0.45353 0.0
H1830 H 0.61034 0.51499 0.4344 0.0
H1831 H 0.63854 0.4908 0.43934 0.0
H1832 H 0.51617 0.44309 0.39117 0.0
H1833 H 0.58502 0.38587 0.4006 0.0
H1834 H 0.59321 0.53328 0.36665 0.0
H1835 H 0.58884 0.5382 0.39838 0.0
H1836 H 0.54476 0.51024 0.38048 0.0
H1837 H 0.67771 0.46749 0.37921 0.0
H1838 H 0.65441 0.41966 0.39379 0.0
H1839 H 0.67286 0.46438 0.41133 0.0
C1840 C 0.90218 0.33869 0.09219 0.0
C1841 C 0.89739 0.31497 0.11232 0.0
C1842 C 0.90286 0.37495 0.09438 0.0
C1843 C 0.89842 0.3882 0.11736 0.0
C1844 C 0.89566 0.36534 0.13801 0.0
C1845 C 0.89482 0.3288 0.13523 0.0
C1846 C 0.90676 0.39834 0.07184 0.0
C1847 C 0.89158 0.37831 0.16292 0.0
C1848 C 0.92753 0.49733 0.11653 0.0
C1849 C 0.89115 0.49538 0.11157 0.0
C1850 C 0.92999 0.46286 0.12032 0.0
C1851 C 0.89527 0.42515 0.11908 0.0
C1852 C 0.85807 0.42316 0.1159 0.0
C1853 C 0.85643 0.45823 0.11223 0.0
C1854 C 0.97011 0.46671 0.12435 0.0
C1855 C 0.82019 0.38376 0.11468 0.0
H1856 H 0.90399 0.32805 0.07443 0.0
H1857 H 0.89039 0.31035 0.15084 0.0
H1858 H 0.87948 0.40024 0.06925 0.0
H1859 H 0.93197 0.42904 0.07364 0.0
H1860 H 0.91155 0.38482 0.05547 0.0
H1861 H 0.89836 0.36244 0.1771 0.0
H1862 H 0.91146 0.41064 0.16531 0.0
H1863 H 0.86066 0.37192 0.16554 0.0
H1864 H 0.95449 0.52594 0.11638 0.0
H1865 H 0.82824 0.45632 0.10833 0.0
H1866 H 0.97714 0.45239 0.10933 0.0
H1867 H 0.96965 0.45118 0.14119 0.0
H1868 H 0.99416 0.4981 0.12566 0.0
H1869 H 0.81987 0.36823 0.09783 0.0
H1870 H 0.79346 0.38709 0.11495 0.0
H1871 H 0.81852 0.36471 0.13001 0.0
C1872 C 0.46287 0.13883 0.3771 0.0
C1873 C 0.44704 0.13644 0.40017 0.0
C1874 C 0.49838 0.1377 0.37395 0.0
C1875 C 0.51886 0.13494 0.39439 0.0
C1876 C 0.5018 0.1308 0.41755 0.0
C1877 C 0.46637 0.13171 0.4201 0.0
C1878 C 0.51479 0.14142 0.34887 0.0
C1879 C 0.52184 0.12707 0.43989 0.0
C1880 C 0.59878 0.10581 0.39515 0.0
C1881 C 0.63308 0.14219 0.40004 0.0
C1882 C 0.56189 0.10336 0.39118 0.0
C1883 C 0.55887 0.13807 0.3923 0.0
C1884 C 0.59401 0.17526 0.39531 0.0
C1885 C 0.63069 0.1769 0.39908 0.0
C1886 C 0.52566 0.06327 0.38734 0.0
C1887 C 0.5924 0.2131 0.39639 0.0
H1888 H 0.44848 0.14322 0.36165 0.0
H1889 H 0.45432 0.13008 0.43798 0.0
H1890 H 0.53899 0.17233 0.34596 0.0
H1891 H 0.52748 0.12173 0.34639 0.0
H1892 H 0.49167 0.1342 0.33493 0.0
H1893 H 0.50395 0.12252 0.45643 0.0
H1894 H 0.52726 0.10181 0.438 0.0
H1895 H 0.5511 0.15428 0.44223 0.0
H1896 H 0.60049 0.07888 0.39558 0.0
H1897 H 0.65696 0.20508 0.40292 0.0
H1898 H 0.50924 0.06394 0.37118 0.0
H1899 H 0.50545 0.05568 0.40304 0.0
H1900 H 0.53328 0.03953 0.38498 0.0
H1901 H 0.5747 0.21449 0.38115 0.0
H1902 H 0.62244 0.23979 0.39586 0.0
H1903 H 0.57751 0.21375 0.41332 0.0
C1904 C 0.57665 0.41039 0.11519 0.0
C1905 C 0.53897 0.40679 0.11455 0.0
C1906 C 0.611 0.4475 0.11909 0.0
C1907 C 0.60762 0.48182 0.12257 0.0
C1908 C 0.56933 0.47752 0.12416 0.0
C1909 C 0.53559 0.44021 0.12002 0.0
C1910 C 0.65111 0.4505 0.1175 0.0
C1911 C 0.56413 0.51288 0.12854 0.0
C1912 C 0.70338 0.57889 0.13709 0.0
C1913 C 0.71583 0.59481 0.11394 0.0
C1914 C 0.66727 0.54307 0.14053 0.0
C1915 C 0.64359 0.52234 0.12029 0.0
C1916 C 0.65536 0.53957 0.0971 0.0
C1917 C 0.69116 0.57536 0.09426 0.0
C1918 C 0.65574 0.52657 0.16566 0.0
C1919 C 0.63107 0.51923 0.07497 0.0
H1920 H 0.57956 0.38483 0.11086 0.0
H1921 H 0.5065 0.43757 0.11976 0.0
H1922 H 0.66596 0.46575 0.10051 0.0
H1923 H 0.67025 0.46842 0.13266 0.0
H1924 H 0.64885 0.42093 0.11777 0.0
H1925 H 0.5326 0.50418 0.13162 0.0
H1926 H 0.58181 0.52981 0.1444 0.0
H1927 H 0.57528 0.53303 0.11275 0.0
H1928 H 0.7226 0.59338 0.15235 0.0
H1929 H 0.70079 0.58749 0.07633 0.0
H1930 H 0.66378 0.50324 0.16832 0.0
H1931 H 0.62329 0.51282 0.16851 0.0
H1932 H 0.67137 0.54988 0.17953 0.0
H1933 H 0.62994 0.49045 0.07229 0.0
H1934 H 0.64344 0.53732 0.0584 0.0
H1935 H 0.60014 0.5129 0.07736 0.0
C1936 C 0.86458 0.45681 0.39304 0.0
C1937 C 0.89933 0.49389 0.39292 0.0
C1938 C 0.86594 0.42177 0.3889 0.0
C1939 C 0.90289 0.42386 0.38443 0.0
C1940 C 0.93736 0.46151 0.38194 0.0
C1941 C 0.93522 0.49597 0.38632 0.0
C1942 C 0.82833 0.38236 0.39143 0.0
C1943 C 0.97709 0.46527 0.37645 0.0
C1944 C 0.91287 0.34128 0.41384 0.0
C1945 C 0.90601 0.31521 0.39468 0.0
C1946 C 0.91334 0.37714 0.41042 0.0
C1947 C 0.90662 0.38752 0.38715 0.0
C1948 C 0.90183 0.3623 0.36736 0.0
C1949 C 0.90124 0.32616 0.37139 0.0
C1950 C 0.9193 0.40309 0.43207 0.0
C1951 C 0.89528 0.37228 0.34217 0.0
H1952 H 0.83679 0.45492 0.39817 0.0
H1953 H 0.96214 0.52462 0.3859 0.0
H1954 H 0.82575 0.36227 0.37649 0.0
H1955 H 0.82924 0.36813 0.40856 0.0
H1956 H 0.8015 0.38553 0.39157 0.0
H1957 H 1.00029 0.4964 0.37278 0.0
H1958 H 0.98679 0.45419 0.39195 0.0
H1959 H 0.97461 0.44683 0.3606 0.0
H1960 H 0.91645 0.33279 0.43188 0.0
H1961 H 0.89535 0.30582 0.35657 0.0
H1962 H 0.89228 0.40531 0.43512 0.0
H1963 H 0.94428 0.43349 0.42881 0.0
H1964 H 0.92562 0.39148 0.44875 0.0
H1965 H 0.86373 0.36407 0.34012 0.0
H1966 H 0.90214 0.35579 0.32843 0.0
H1967 H 0.91371 0.40448 0.33855 0.0
C1968 C 0.18884 0.62213 0.61479 0.0
C1969 C 0.15493 0.62593 0.61623 0.0
C1970 C 0.18647 0.58521 0.61863 0.0
C1971 C 0.14938 0.55134 0.62423 0.0
C1972 C 0.11591 0.55603 0.62783 0.0
C1973 C 0.11901 0.59308 0.62362 0.0
C1974 C 0.22303 0.58181 0.61472 0.0
C1975 C 0.07602 0.52127 0.63429 0.0
C1976 C 0.13501 0.45537 0.59703 0.0
C1977 C 0.14352 0.43783 0.6164 0.0
C1978 C 0.13522 0.4913 0.59969 0.0
C1979 C 0.14441 0.51063 0.62237 0.0
C1980 C 0.1509 0.4919 0.64241 0.0
C1981 C 0.15088 0.45592 0.63913 0.0
C1982 C 0.12759 0.50957 0.57781 0.0
C1983 C 0.1597 0.51068 0.66705 0.0
H1984 H 0.21658 0.6473 0.60891 0.0
H1985 H 0.09271 0.59589 0.62486 0.0
H1986 H 0.22669 0.56504 0.62968 0.0
H1987 H 0.21972 0.56519 0.59782 0.0
H1988 H 0.25034 0.61127 0.61333 0.0
H1989 H 0.05506 0.53083 0.64074 0.0
H1990 H 0.063 0.50232 0.61816 0.0
H1991 H 0.07916 0.50299 0.64847 0.0
H1992 H 0.12975 0.44163 0.57939 0.0
H1993 H 0.1583 0.4429 0.65407 0.0
H1994 H 0.15466 0.53801 0.57339 0.0
H1995 H 0.10351 0.51619 0.58161 0.0
H1996 H 0.11914 0.48994 0.56177 0.0
H1997 H 0.19053 0.53601 0.66739 0.0
H1998 H 0.15665 0.48936 0.68134 0.0
H1999 H 0.13959 0.52237 0.67129 0.0
C2000 C 0.34473 0.89791 0.91878 0.0
C2001 C 0.31995 0.8926 0.89913 0.0
C2002 C 0.38089 0.89854 0.91587 0.0
C2003 C 0.39286 0.89341 0.89264 0.0
C2004 C 0.36886 0.88999 0.87246 0.0
C2005 C 0.33248 0.88933 0.87595 0.0
C2006 C 0.40556 0.90316 0.93793 0.0
C2007 C 0.38041 0.88499 0.84732 0.0
C2008 C 0.50205 0.92279 0.8919 0.0
C2009 C 0.50035 0.88674 0.89737 0.0
C2010 C 0.46735 0.92495 0.88829 0.0
C2011 C 0.42973 0.89026 0.89024 0.0
C2012 C 0.42796 0.8533 0.89379 0.0
C2013 C 0.46324 0.85195 0.89726 0.0
C2014 C 0.4709 0.96479 0.88389 0.0
C2015 C 0.38861 0.81545 0.8957 0.0
H2016 H 0.33505 0.90027 0.93673 0.0
H2017 H 0.31316 0.88454 0.86072 0.0
H2018 H 0.40763 0.87602 0.94056 0.0
H2019 H 0.43617 0.92829 0.93547 0.0
H2020 H 0.39292 0.90846 0.95454 0.0
H2021 H 0.36406 0.89173 0.83344 0.0
H2022 H 0.41272 0.90435 0.8443 0.0
H2023 H 0.37334 0.85388 0.84486 0.0
H2024 H 0.53065 0.94977 0.89158 0.0
H2025 H 0.46156 0.82401 0.90153 0.0
H2026 H 0.45805 0.97272 0.89932 0.0
H2027 H 0.45379 0.96346 0.86759 0.0
H2028 H 0.50219 0.98864 0.88143 0.0
H2029 H 0.37383 0.81549 0.91281 0.0
H2030 H 0.39204 0.78881 0.8954 0.0
H2031 H 0.36881 0.81335 0.8807 0.0
C2032 C 0.58675 0.7028 0.63306 0.0
C2033 C 0.60343 0.7162 0.61016 0.0
C2034 C 0.55114 0.66625 0.6359 0.0
C2035 C 0.53135 0.64301 0.61532 0.0
C2036 C 0.5492 0.65592 0.59236 0.0
C2037 C 0.58473 0.69221 0.5901 0.0
C2038 C 0.5339 0.65348 0.6608 0.0
C2039 C 0.52988 0.6322 0.56988 0.0
C2040 C 0.45147 0.53393 0.61505 0.0
C2041 C 0.41707 0.5358 0.60995 0.0
C2042 C 0.48834 0.56845 0.61874 0.0
C2043 C 0.49131 0.60611 0.61714 0.0
C2044 C 0.45611 0.60805 0.61377 0.0
C2045 C 0.41943 0.57291 0.61029 0.0
C2046 C 0.52458 0.56459 0.62272 0.0
C2047 C 0.45763 0.64741 0.61212 0.0
H2048 H 0.60062 0.72157 0.6486 0.0
H2049 H 0.59736 0.70262 0.57235 0.0
H2050 H 0.508 0.65788 0.66284 0.0
H2051 H 0.52328 0.62154 0.66362 0.0
H2052 H 0.55586 0.67075 0.67505 0.0
H2053 H 0.54834 0.64548 0.55354 0.0
H2054 H 0.52434 0.60153 0.57191 0.0
H2055 H 0.50073 0.63027 0.56709 0.0
H2056 H 0.44985 0.50533 0.61509 0.0
H2057 H 0.39311 0.57469 0.60628 0.0
H2058 H 0.54268 0.5841 0.63768 0.0
H2059 H 0.54315 0.5741 0.6062 0.0
H2060 H 0.51678 0.53366 0.62693 0.0
H2061 H 0.47501 0.66683 0.62732 0.0
H2062 H 0.42755 0.64406 0.61227 0.0
H2063 H 0.47281 0.66255 0.59518 0.0
C2064 C 0.10826 0.5845 0.89102 0.0
C2065 C 0.14467 0.61832 0.89668 0.0
C2066 C 0.10543 0.54746 0.88704 0.0
C2067 C 0.13976 0.54383 0.88894 0.0
C2068 C 0.1771 0.57854 0.89262 0.0
C2069 C 0.17913 0.61536 0.89638 0.0
C2070 C 0.06521 0.51165 0.88253 0.0
C2071 C 0.21457 0.57625 0.89453 0.0
C2072 C 0.1304 0.4508 0.91756 0.0
C2073 C 0.13617 0.43146 0.89801 0.0
C2074 C 0.13011 0.48642 0.91458 0.0
C2075 C 0.13582 0.50358 0.89136 0.0
C2076 C 0.13936 0.48295 0.87123 0.0
C2077 C 0.13984 0.44724 0.87481 0.0
C2078 C 0.12551 0.50662 0.93659 0.0
C2079 C 0.14474 0.49945 0.84608 0.0
H2080 H 0.08152 0.58662 0.89096 0.0
H2081 H 0.20731 0.64121 0.90083 0.0
H2082 H 0.0666 0.49462 0.8669 0.0
H2083 H 0.05606 0.49175 0.89844 0.0
H2084 H 0.04214 0.51987 0.87903 0.0
H2085 H 0.24159 0.60605 0.89432 0.0
H2086 H 0.21414 0.56121 0.9116 0.0
H2087 H 0.21639 0.55846 0.87949 0.0
H2088 H 0.12768 0.43875 0.93552 0.0
H2089 H 0.14491 0.43278 0.85965 0.0
H2090 H 0.10071 0.51258 0.934 0.0
H2091 H 0.15292 0.53556 0.93934 0.0
H2092 H 0.11971 0.48861 0.95319 0.0
H2093 H 0.12562 0.51266 0.84297 0.0
H2094 H 0.13788 0.47631 0.83222 0.0
H2095 H 0.17601 0.52324 0.84368 0.0
C2096 C 0.3507 0.90635 0.59053 0.0
C2097 C 0.32687 0.90111 0.61071 0.0
C2098 C 0.38724 0.90754 0.59263 0.0
C2099 C 0.40057 0.90306 0.61555 0.0
C2100 C 0.37756 0.89981 0.63625 0.0
C2101 C 0.3408 0.89857 0.63357 0.0
C2102 C 0.41083 0.91193 0.57005 0.0
C2103 C 0.39059 0.89556 0.6611 0.0
C2104 C 0.47151 0.86227 0.61007 0.0
C2105 C 0.50855 0.89716 0.60977 0.0
C2106 C 0.43616 0.86344 0.61371 0.0
C2107 C 0.43774 0.90033 0.61718 0.0
C2108 C 0.47526 0.93521 0.61876 0.0
C2109 C 0.51004 0.93321 0.61505 0.0
C2110 C 0.3969 0.82541 0.61221 0.0
C2111 C 0.47861 0.97506 0.62288 0.0
H2112 H 0.33994 0.90812 0.57281 0.0
H2113 H 0.32225 0.89382 0.64922 0.0
H2114 H 0.44153 0.9371 0.57198 0.0
H2115 H 0.4128 0.88478 0.56719 0.0
H2116 H 0.39733 0.91698 0.55378 0.0
H2117 H 0.37422 0.90151 0.67539 0.0
H2118 H 0.38492 0.86488 0.66341 0.0
H2119 H 0.42286 0.91594 0.66359 0.0
H2120 H 0.46993 0.83432 0.60599 0.0
H2121 H 0.53855 0.9603 0.6153 0.0
H2122 H 0.38148 0.82519 0.59534 0.0
H2123 H 0.37754 0.82327 0.62751 0.0
H2124 H 0.40055 0.7989 0.61231 0.0
H2125 H 0.46653 0.98297 0.60707 0.0
H2126 H 0.50979 0.99888 0.62572 0.0
H2127 H 0.46076 0.97384 0.6388 0.0
C2128 C 0.57902 0.68662 0.91808 0.0
C2129 C 0.59803 0.71036 0.89797 0.0
C2130 C 0.54338 0.65047 0.91588 0.0
C2131 C 0.52579 0.63731 0.8929 0.0
C2132 C 0.54601 0.66012 0.87225 0.0
C2133 C 0.58175 0.69661 0.87504 0.0
C2134 C 0.52368 0.62717 0.93844 0.0
C2135 C 0.52907 0.64719 0.84732 0.0
C2136 C 0.44545 0.52851 0.89447 0.0
C2137 C 0.41125 0.53085 0.89954 0.0
C2138 C 0.4824 0.56274 0.89023 0.0
C2139 C 0.48561 0.60055 0.89121 0.0
C2140 C 0.45059 0.60287 0.89443 0.0
C2141 C 0.41385 0.56804 0.89849 0.0
C2142 C 0.51852 0.5586 0.88617 0.0
C2143 C 0.45239 0.64242 0.89539 0.0
H2144 H 0.59143 0.69722 0.93585 0.0
H2145 H 0.59593 0.71506 0.85944 0.0
H2146 H 0.49455 0.62543 0.94098 0.0
H2147 H 0.51804 0.59642 0.93669 0.0
H2148 H 0.54192 0.64067 0.95481 0.0
H2149 H 0.55192 0.66272 0.83317 0.0
H2150 H 0.51614 0.61477 0.84502 0.0
H2151 H 0.50493 0.6541 0.84459 0.0
H2152 H 0.44363 0.49983 0.89493 0.0
H2153 H 0.38773 0.57022 0.90247 0.0
H2154 H 0.53938 0.57191 0.9015 0.0
H2155 H 0.53434 0.57491 0.86967 0.0
H2156 H 0.51081 0.52717 0.88429 0.0
H2157 H 0.46767 0.65814 0.91217 0.0
H2158 H 0.4224 0.63926 0.89509 0.0
H2159 H 0.46983 0.66118 0.87997 0.0
loop_
_geom_bond_atom_site_label_1
_geom_bond_atom_site_label_2
_geom_bond_distance
_geom_bond_site_symmetry_2
_ccdc_geom_bond_type
Eu0 N31 2.657 . S
Eu0 N38 2.609 . S
Eu0 O44 2.558 . S
Eu0 O45 2.612 . S
Eu0 O47 2.339 . S
Eu0 O48 2.563 . S
Eu0 O49 2.419 . S
Eu0 O51 2.380 . S
Eu0 O52 2.432 . S
Eu0 C64 2.848 . S
C1 C4 1.429 . S
C1 C5 1.411 . S
C1 N8 1.377 . S
C2 C4 1.420 . S
C2 C6 1.423 . S
C2 C14 1.392 . S
C3 C5 1.420 . S
C3 C6 1.351 . S
C3 H26 0.931 1_545 S
C4 C1 1.429 . S
C4 C2 1.420 . S
C4 N12 1.362 . S
C5 C1 1.411 . S
C5 C3 1.420 . S
C5 C10 1.395 . S
C6 C2 1.423 . S
C6 C3 1.351 . S
C6 H18 0.930 1_545 S
C7 C9 1.400 . S
C7 C10 1.386 . S
C7 H19 0.930 . S
N8 C1 1.377 . S
N8 C9 1.321 . S
N8 Eu11 2.609 . S
C9 C7 1.400 . S
C9 N8 1.321 . S
C9 H16 0.930 . S
C10 C5 1.395 . S
C10 C7 1.386 . S
C10 H29 0.930 . S
Eu11 N8 2.609 . S
Eu11 N12 2.657 . S
Eu11 O45 2.380 . S
Eu11 O46 2.432 . S
Eu11 O50 2.558 . S
Eu11 O51 2.612 . S
Eu11 O53 2.339 . S
Eu11 O54 2.563 . S
Eu11 O55 2.419 . S
Eu11 C75 2.848 . S
N12 C4 1.362 . S
N12 Eu11 2.657 . S
N12 C13 1.334 . S
C13 N12 1.334 . S
C13 C15 1.413 . S
C13 H20 0.929 . S
C14 C2 1.392 . S
C14 C15 1.367 . S
C14 H22 0.930 . S
C15 C13 1.413 . S
C15 C14 1.367 . S
C15 H17 0.930 . S
H16 C9 0.930 . S
H17 C15 0.930 . S
H18 C6 0.930 1_565 S
H19 C7 0.930 . S
H20 C13 0.929 . S
H21 C35 0.930 . S
H22 C14 0.930 . S
H23 C41 0.930 . S
H24 C32 0.929 . S
H25 C39 0.930 . S
H26 C3 0.931 1_565 S
H27 C33 0.930 . S
H28 C66 0.930 . S
H29 C10 0.930 . S
H30 C65 0.931 . S
N31 Eu0 2.657 . S
N31 C32 1.334 . S
N31 C36 1.362 . S
C32 H24 0.929 . S
C32 N31 1.334 . S
C32 C35 1.413 . S
C33 H27 0.930 . S
C33 C34 1.392 . S
C33 C35 1.367 . S
C34 C33 1.392 . S
C34 C36 1.420 . S
C34 C66 1.423 . S
C35 H21 0.930 . S
C35 C32 1.413 . S
C35 C33 1.367 . S
C36 N31 1.362 . S
C36 C34 1.420 . S
C36 C40 1.429 . S
H37 C42 0.930 . S
N38 Eu0 2.609 . S
N38 C40 1.377 . S
N38 C41 1.321 . S
C39 H25 0.930 . S
C39 C41 1.400 . S
C39 C42 1.386 . S
C40 C36 1.429 . S
C40 N38 1.377 . S
C40 C43 1.411 . S
C41 H23 0.930 . S
C41 N38 1.321 . S
C41 C39 1.400 . S
C42 H37 0.930 . S
C42 C39 1.386 . S
C42 C43 1.395 . S
C43 C40 1.411 . S
C43 C42 1.395 . S
C43 C65 1.420 . S
O44 Eu0 2.558 . S
O44 C64 1.257 . S
O45 Eu0 2.612 . S
O45 Eu11 2.380 . S
O45 C56 1.276 . S
O46 Eu11 2.432 . S
O46 C63 1.264 . S
O47 Eu0 2.339 . S
O47 C63 1.254 . S
O48 Eu0 2.563 . S
O48 C56 1.235 . S
O49 Eu0 2.419 . S
O49 C64 1.249 . S
O50 Eu11 2.558 . S
O50 C75 1.257 . S
O51 Eu0 2.380 . S
O51 Eu11 2.612 . S
O51 C67 1.276 . S
O52 Eu0 2.432 . S
O52 C74 1.264 . S
O53 Eu11 2.339 . S
O53 C74 1.254 . S
O54 Eu11 2.563 . S
O54 C67 1.235 . S
O55 Eu11 2.419 . S
O55 C75 1.249 . S
C56 O45 1.276 . S
C56 O48 1.235 . S
C57 C59 1.393 . S
C57 C61 1.395 . S
C57 C64 1.492 . S
C58 C59 1.392 . S
C58 C60 1.386 . S
C59 C57 1.393 . S
C59 C58 1.392 . S
C59 H76 0.930 . S
C60 C58 1.386 . S
C60 C62 1.395 . S
C60 H77 0.930 . S
C61 C57 1.395 . S
C61 C62 1.379 . S
C61 H78 0.930 . S
C62 C60 1.395 . S
C62 C61 1.379 . S
C62 H79 0.930 . S
C63 O46 1.264 . S
C63 O47 1.254 . S
C64 Eu0 2.848 . S
C64 O44 1.257 . S
C64 O49 1.249 . S
C64 C57 1.492 . S
C65 H30 0.931 . S
C65 C43 1.420 . S
C65 C66 1.351 . S
C66 H28 0.930 . S
C66 C34 1.423 . S
C66 C65 1.351 . S
C67 O51 1.276 . S
C67 O54 1.235 . S
C68 C69 1.393 . S
C68 C72 1.395 . S
C68 C75 1.492 1_565 S
C69 C68 1.393 . S
C69 C70 1.392 . S
C69 H80 0.930 . S
C70 C69 1.392 . S
C70 C71 1.386 . S
C71 C70 1.386 . S
C71 C73 1.395 . S
C71 H81 0.930 . S
C72 C68 1.395 . S
C72 C73 1.379 . S
C72 H82 0.930 . S
C73 C71 1.395 . S
C73 C72 1.379 . S
C73 H83 0.930 . S
C74 O52 1.264 . S
C74 O53 1.254 . S
C75 Eu11 2.848 . S
C75 O50 1.257 . S
C75 O55 1.249 . S
C75 C68 1.492 1_545 S
H76 C59 0.930 . S
H77 C60 0.930 . S
H78 C61 0.930 . S
H79 C62 0.930 . S
H80 C69 0.930 . S
H81 C71 0.930 . S
H82 C72 0.930 . S
H83 C73 0.930 . S
Eu84 N115 2.657 . S
Eu84 N122 2.609 . S
Eu84 O128 2.558 . S
Eu84 O129 2.612 . S
Eu84 O131 2.339 . S
Eu84 O132 2.563 . S
Eu84 O133 2.419 . S
Eu84 O135 2.380 . S
Eu84 O136 2.432 . S
Eu84 C148 2.848 . S
C85 C88 1.429 . S
C85 C89 1.411 . S
C85 N92 1.377 . S
C86 C88 1.420 . S
C86 C90 1.423 1_655 S
C86 C98 1.392 . S
C87 C89 1.420 1_455 S
C87 C90 1.351 . S
C87 H110 0.931 . S
C88 C85 1.429 . S
C88 C86 1.420 . S
C88 N96 1.362 . S
C89 C85 1.411 . S
C89 C87 1.420 1_655 S
C89 C94 1.395 . S
C90 C86 1.423 1_455 S
C90 C87 1.351 . S
C90 H102 0.930 . S
C91 C93 1.400 . S
C91 C94 1.386 . S
C91 H103 0.930 . S
N92 C85 1.377 . S
N92 C93 1.321 . S
N92 Eu95 2.609 . S
C93 C91 1.400 . S
C93 N92 1.321 . S
C93 H100 0.930 . S
C94 C89 1.395 . S
C94 C91 1.386 . S
C94 H113 0.930 . S
Eu95 N92 2.609 . S
Eu95 N96 2.657 . S
Eu95 O129 2.380 . S
Eu95 O130 2.432 . S
Eu95 O134 2.558 . S
Eu95 O135 2.612 . S
Eu95 O137 2.339 . S
Eu95 O138 2.563 . S
Eu95 O139 2.419 . S
Eu95 C159 2.848 . S
N96 C88 1.362 . S
N96 Eu95 2.657 . S
N96 C97 1.334 . S
C97 N96 1.334 . S
C97 C99 1.413 . S
C97 H104 0.929 . S
C98 C86 1.392 . S
C98 C99 1.367 . S
C98 H106 0.930 1_655 S
C99 C97 1.413 . S
C99 C98 1.367 . S
C99 H101 0.930 . S
H100 C93 0.930 . S
H101 C99 0.930 . S
H102 C90 0.930 . S
H103 C91 0.930 . S
H104 C97 0.929 . S
H105 C119 0.930 . S
H106 C98 0.930 1_455 S
H107 C125 0.930 . S
H108 C116 0.929 . S
H109 C123 0.930 . S
H110 C87 0.931 . S
H111 C117 0.930 . S
H112 C150 0.930 . S
H113 C94 0.930 . S
H114 C149 0.931 . S
N115 Eu84 2.657 . S
N115 C116 1.334 . S
N115 C120 1.362 . S
C116 H108 0.929 . S
C116 N115 1.334 . S
C116 C119 1.413 . S
C117 H111 0.930 . S
C117 C118 1.392 . S
C117 C119 1.367 . S
C118 C117 1.392 . S
C118 C120 1.420 . S
C118 C150 1.423 . S
C119 H105 0.930 . S
C119 C116 1.413 . S
C119 C117 1.367 . S
C120 N115 1.362 . S
C120 C118 1.420 . S
C120 C124 1.429 . S
H121 C126 0.930 . S
N122 Eu84 2.609 . S
N122 C124 1.377 . S
N122 C125 1.321 . S
C123 H109 0.930 . S
C123 C125 1.400 . S
C123 C126 1.386 . S
C124 C120 1.429 . S
C124 N122 1.377 . S
C124 C127 1.411 . S
C125 H107 0.930 . S
C125 N122 1.321 . S
C125 C123 1.400 . S
C126 H121 0.930 . S
C126 C123 1.386 . S
C126 C127 1.395 . S
C127 C124 1.411 . S
C127 C126 1.395 . S
C127 C149 1.420 . S
O128 Eu84 2.558 . S
O128 C148 1.257 . S
O129 Eu84 2.612 . S
O129 Eu95 2.380 . S
O129 C140 1.276 . S
O130 Eu95 2.432 . S
O130 C147 1.264 . S
O131 Eu84 2.339 . S
O131 C147 1.254 . S
O132 Eu84 2.563 . S
O132 C140 1.235 . S
O133 Eu84 2.419 . S
O133 C148 1.249 . S
O134 Eu95 2.558 . S
O134 C159 1.257 . S
O135 Eu84 2.380 . S
O135 Eu95 2.612 . S
O135 C151 1.276 . S
O136 Eu84 2.432 . S
O136 C158 1.264 . S
O137 Eu95 2.339 . S
O137 C158 1.254 . S
O138 Eu95 2.563 . S
O138 C151 1.235 . S
O139 Eu95 2.419 . S
O139 C159 1.249 . S
C140 O129 1.276 . S
C140 O132 1.235 . S
C141 C143 1.393 . S
C141 C145 1.395 . S
C141 C148 1.492 . S
C142 C143 1.392 . S
C142 C144 1.386 . S
C143 C141 1.393 . S
C143 C142 1.392 . S
C143 H160 0.930 . S
C144 C142 1.386 . S
C144 C146 1.395 . S
C144 H161 0.930 . S
C145 C141 1.395 . S
C145 C146 1.379 . S
C145 H162 0.930 . S
C146 C144 1.395 . S
C146 C145 1.379 . S
C146 H163 0.930 . S
C147 O130 1.264 . S
C147 O131 1.254 . S
C148 Eu84 2.848 . S
C148 O128 1.257 . S
C148 O133 1.249 . S
C148 C141 1.492 . S
C149 H114 0.931 . S
C149 C127 1.420 . S
C149 C150 1.351 . S
C150 H112 0.930 . S
C150 C118 1.423 . S
C150 C149 1.351 . S
C151 O135 1.276 . S
C151 O138 1.235 . S
C152 C153 1.393 . S
C152 C156 1.395 . S
C152 C159 1.492 . S
C153 C152 1.393 . S
C153 C154 1.392 . S
C153 H164 0.930 . S
C154 C153 1.392 . S
C154 C155 1.386 . S
C155 C154 1.386 . S
C155 C157 1.395 . S
C155 H165 0.930 . S
C156 C152 1.395 . S
C156 C157 1.379 . S
C156 H166 0.930 . S
C157 C155 1.395 . S
C157 C156 1.379 . S
C157 H167 0.930 . S
C158 O136 1.264 . S
C158 O137 1.254 . S
C159 Eu95 2.848 . S
C159 O134 1.257 . S
C159 O139 1.249 . S
C159 C152 1.492 . S
H160 C143 0.930 . S
H161 C144 0.930 . S
H162 C145 0.930 . S
H163 C146 0.930 . S
H164 C153 0.930 . S
H165 C155 0.930 . S
H166 C156 0.930 . S
H167 C157 0.930 . S
Eu168 N199 2.657 . S
Eu168 N206 2.609 . S
Eu168 O212 2.558 . S
Eu168 O213 2.612 . S
Eu168 O215 2.339 . S
Eu168 O216 2.563 . S
Eu168 O217 2.419 . S
Eu168 O219 2.380 . S
Eu168 O220 2.432 . S
Eu168 C232 2.848 . S
C169 C172 1.429 . S
C169 C173 1.411 . S
C169 N176 1.377 . S
C170 C172 1.420 . S
C170 C174 1.423 . S
C170 C182 1.392 . S
C171 C173 1.420 . S
C171 C174 1.351 . S
C171 H194 0.931 1_655 S
C172 C169 1.429 . S
C172 C170 1.420 . S
C172 N180 1.362 . S
C173 C169 1.411 . S
C173 C171 1.420 . S
C173 C178 1.395 . S
C174 C170 1.423 . S
C174 C171 1.351 . S
C174 H186 0.930 1_655 S
C175 C177 1.400 . S
C175 C178 1.386 . S
C175 H187 0.930 . S
N176 C169 1.377 . S
N176 C177 1.321 . S
N176 Eu179 2.609 . S
C177 C175 1.400 . S
C177 N176 1.321 . S
C177 H184 0.930 . S
C178 C173 1.395 . S
C178 C175 1.386 . S
C178 H197 0.930 . S
Eu179 N176 2.609 . S
Eu179 N180 2.657 . S
Eu179 O213 2.380 . S
Eu179 O214 2.432 . S
Eu179 O218 2.558 . S
Eu179 O219 2.612 . S
Eu179 O221 2.339 . S
Eu179 O222 2.563 . S
Eu179 O223 2.419 . S
Eu179 C243 2.848 . S
N180 C172 1.362 . S
N180 Eu179 2.657 . S
N180 C181 1.334 . S
C181 N180 1.334 . S
C181 C183 1.413 . S
C181 H188 0.929 . S
C182 C170 1.392 . S
C182 C183 1.367 . S
C182 H190 0.930 . S
C183 C181 1.413 . S
C183 C182 1.367 . S
C183 H185 0.930 . S
H184 C177 0.930 . S
H185 C183 0.930 . S
H186 C174 0.930 1_455 S
H187 C175 0.930 . S
H188 C181 0.929 . S
H189 C203 0.930 . S
H190 C182 0.930 . S
H191 C209 0.930 . S
H192 C200 0.929 . S
H193 C207 0.930 . S
H194 C171 0.931 1_455 S
H195 C201 0.930 1_565 S
H196 C234 0.930 . S
H197 C178 0.930 . S
H198 C233 0.931 . S
N199 Eu168 2.657 . S
N199 C200 1.334 . S
N199 C204 1.362 . S
C200 H192 0.929 . S
C200 N199 1.334 . S
C200 C203 1.413 . S
C201 H195 0.930 1_545 S
C201 C202 1.392 . S
C201 C203 1.367 . S
C202 C201 1.392 . S
C202 C204 1.420 . S
C202 C234 1.423 1_545 S
C203 H189 0.930 . S
C203 C200 1.413 . S
C203 C201 1.367 . S
C204 N199 1.362 . S
C204 C202 1.420 . S
C204 C208 1.429 . S
H205 C210 0.930 . S
N206 Eu168 2.609 . S
N206 C208 1.377 . S
N206 C209 1.321 . S
C207 H193 0.930 . S
C207 C209 1.400 . S
C207 C210 1.386 . S
C208 C204 1.429 . S
C208 N206 1.377 . S
C208 C211 1.411 . S
C209 H191 0.930 . S
C209 N206 1.321 . S
C209 C207 1.400 . S
C210 H205 0.930 . S
C210 C207 1.386 . S
C210 C211 1.395 . S
C211 C208 1.411 . S
C211 C210 1.395 . S
C211 C233 1.420 1_545 S
O212 Eu168 2.558 . S
O212 C232 1.257 . S
O213 Eu168 2.612 . S
O213 Eu179 2.380 . S
O213 C224 1.276 . S
O214 Eu179 2.432 . S
O214 C231 1.264 . S
O215 Eu168 2.339 . S
O215 C231 1.254 . S
O216 Eu168 2.563 . S
O216 C224 1.235 . S
O217 Eu168 2.419 . S
O217 C232 1.249 . S
O218 Eu179 2.558 . S
O218 C243 1.257 . S
O219 Eu168 2.380 . S
O219 Eu179 2.612 . S
O219 C235 1.276 . S
O220 Eu168 2.432 . S
O220 C242 1.264 . S
O221 Eu179 2.339 . S
O221 C242 1.254 . S
O222 Eu179 2.563 . S
O222 C235 1.235 . S
O223 Eu179 2.419 . S
O223 C243 1.249 . S
C224 O213 1.276 . S
C224 O216 1.235 . S
C225 C227 1.393 . S
C225 C229 1.395 . S
C225 C232 1.492 . S
C226 C227 1.392 . S
C226 C228 1.386 . S
C227 C225 1.393 . S
C227 C226 1.392 . S
C227 H244 0.930 . S
C228 C226 1.386 . S
C228 C230 1.395 . S
C228 H245 0.930 . S
C229 C225 1.395 . S
C229 C230 1.379 . S
C229 H246 0.930 . S
C230 C228 1.395 . S
C230 C229 1.379 . S
C230 H247 0.930 . S
C231 O214 1.264 . S
C231 O215 1.254 . S
C232 Eu168 2.848 . S
C232 O212 1.257 . S
C232 O217 1.249 . S
C232 C225 1.492 . S
C233 H198 0.931 . S
C233 C211 1.420 1_565 S
C233 C234 1.351 . S
C234 H196 0.930 . S
C234 C202 1.423 1_565 S
C234 C233 1.351 . S
C235 O219 1.276 . S
C235 O222 1.235 . S
C236 C237 1.393 . S
C236 C240 1.395 . S
C236 C243 1.492 1_455 S
C237 C236 1.393 . S
C237 C238 1.392 . S
C237 H248 0.930 . S
C238 C237 1.392 . S
C238 C239 1.386 . S
C239 C238 1.386 . S
C239 C241 1.395 . S
C239 H249 0.930 . S
C240 C236 1.395 . S
C240 C241 1.379 . S
C240 H250 0.930 . S
C241 C239 1.395 . S
C241 C240 1.379 . S
C241 H251 0.930 . S
C242 O220 1.264 . S
C242 O221 1.254 . S
C243 Eu179 2.848 . S
C243 O218 1.257 . S
C243 O223 1.249 . S
C243 C236 1.492 1_655 S
H244 C227 0.930 . S
H245 C228 0.930 . S
H246 C229 0.930 . S
H247 C230 0.930 . S
H248 C237 0.930 . S
H249 C239 0.930 . S
H250 C240 0.930 . S
H251 C241 0.930 . S
Eu252 N283 2.657 . S
Eu252 N290 2.609 . S
Eu252 O296 2.558 . S
Eu252 O297 2.612 . S
Eu252 O299 2.339 . S
Eu252 O300 2.563 . S
Eu252 O301 2.419 . S
Eu252 O303 2.380 . S
Eu252 O304 2.432 . S
Eu252 C316 2.848 . S
C253 C256 1.429 . S
C253 C257 1.411 . S
C253 N260 1.377 . S
C254 C256 1.420 . S
C254 C258 1.423 . S
C254 C266 1.392 . S
C255 C257 1.420 . S
C255 C258 1.351 . S
C255 H278 0.931 . S
C256 C253 1.429 . S
C256 C254 1.420 . S
C256 N264 1.362 . S
C257 C253 1.411 . S
C257 C255 1.420 . S
C257 C262 1.395 . S
C258 C254 1.423 . S
C258 C255 1.351 . S
C258 H270 0.930 . S
C259 C261 1.400 . S
C259 C262 1.386 . S
C259 H271 0.930 . S
N260 C253 1.377 . S
N260 C261 1.321 . S
N260 Eu263 2.609 . S
C261 C259 1.400 . S
C261 N260 1.321 . S
C261 H268 0.930 . S
C262 C257 1.395 . S
C262 C259 1.386 . S
C262 H281 0.930 . S
Eu263 N260 2.609 . S
Eu263 N264 2.657 . S
Eu263 O297 2.380 . S
Eu263 O298 2.432 . S
Eu263 O302 2.558 . S
Eu263 O303 2.612 . S
Eu263 O305 2.339 . S
Eu263 O306 2.563 . S
Eu263 O307 2.419 . S
Eu263 C327 2.848 . S
N264 C256 1.362 . S
N264 Eu263 2.657 . S
N264 C265 1.334 . S
C265 N264 1.334 . S
C265 C267 1.413 . S
C265 H272 0.929 . S
C266 C254 1.392 . S
C266 C267 1.367 . S
C266 H274 0.930 . S
C267 C265 1.413 . S
C267 C266 1.367 . S
C267 H269 0.930 . S
H268 C261 0.930 . S
H269 C267 0.930 . S
H270 C258 0.930 . S
H271 C259 0.930 . S
H272 C265 0.929 . S
H273 C287 0.930 . S
H274 C266 0.930 . S
H275 C293 0.930 . S
H276 C284 0.929 . S
H277 C291 0.930 . S
H278 C255 0.931 . S
H279 C285 0.930 . S
H280 C318 0.930 1_565 S
H281 C262 0.930 . S
H282 C317 0.931 1_565 S
N283 Eu252 2.657 . S
N283 C284 1.334 . S
N283 C288 1.362 . S
C284 H276 0.929 . S
C284 N283 1.334 . S
C284 C287 1.413 . S
C285 H279 0.930 . S
C285 C286 1.392 . S
C285 C287 1.367 . S
C286 C285 1.392 . S
C286 C288 1.420 . S
C286 C318 1.423 . S
C287 H273 0.930 . S
C287 C284 1.413 . S
C287 C285 1.367 . S
C288 N283 1.362 . S
C288 C286 1.420 . S
C288 C292 1.429 . S
H289 C294 0.930 . S
N290 Eu252 2.609 . S
N290 C292 1.377 . S
N290 C293 1.321 . S
C291 H277 0.930 . S
C291 C293 1.400 . S
C291 C294 1.386 . S
C292 C288 1.429 . S
C292 N290 1.377 . S
C292 C295 1.411 . S
C293 H275 0.930 . S
C293 N290 1.321 . S
C293 C291 1.400 . S
C294 H289 0.930 . S
C294 C291 1.386 . S
C294 C295 1.395 . S
C295 C292 1.411 . S
C295 C294 1.395 . S
C295 C317 1.420 . S
O296 Eu252 2.558 . S
O296 C316 1.257 . S
O297 Eu252 2.612 . S
O297 Eu263 2.380 . S
O297 C308 1.276 . S
O298 Eu263 2.432 . S
O298 C315 1.264 . S
O299 Eu252 2.339 . S
O299 C315 1.254 . S
O300 Eu252 2.563 . S
O300 C308 1.235 . S
O301 Eu252 2.419 . S
O301 C316 1.249 . S
O302 Eu263 2.558 . S
O302 C327 1.257 . S
O303 Eu252 2.380 . S
O303 Eu263 2.612 . S
O303 C319 1.276 . S
O304 Eu252 2.432 . S
O304 C326 1.264 . S
O305 Eu263 2.339 . S
O305 C326 1.254 . S
O306 Eu263 2.563 . S
O306 C319 1.235 . S
O307 Eu263 2.419 . S
O307 C327 1.249 . S
C308 O297 1.276 . S
C308 O300 1.235 . S
C309 C311 1.393 . S
C309 C313 1.395 . S
C309 C316 1.492 1_565 S
C310 C311 1.392 . S
C310 C312 1.386 . S
C311 C309 1.393 . S
C311 C310 1.392 . S
C311 H328 0.930 . S
C312 C310 1.386 . S
C312 C314 1.395 . S
C312 H329 0.930 . S
C313 C309 1.395 . S
C313 C314 1.379 . S
C313 H330 0.930 . S
C314 C312 1.395 . S
C314 C313 1.379 . S
C314 H331 0.930 . S
C315 O298 1.264 . S
C315 O299 1.254 . S
C316 Eu252 2.848 . S
C316 O296 1.257 . S
C316 O301 1.249 . S
C316 C309 1.492 1_545 S
C317 H282 0.931 1_545 S
C317 C295 1.420 . S
C317 C318 1.351 . S
C318 H280 0.930 1_545 S
C318 C286 1.423 . S
C318 C317 1.351 . S
C319 O303 1.276 . S
C319 O306 1.235 . S
C320 C321 1.393 . S
C320 C324 1.395 . S
C320 C327 1.492 . S
C321 C320 1.393 . S
C321 C322 1.392 . S
C321 H332 0.930 . S
C322 C321 1.392 . S
C322 C323 1.386 . S
C323 C322 1.386 . S
C323 C325 1.395 . S
C323 H333 0.930 . S
C324 C320 1.395 . S
C324 C325 1.379 . S
C324 H334 0.930 . S
C325 C323 1.395 . S
C325 C324 1.379 . S
C325 H335 0.930 . S
C326 O304 1.264 . S
C326 O305 1.254 . S
C327 Eu263 2.848 . S
C327 O302 1.257 . S
C327 O307 1.249 . S
C327 C320 1.492 . S
H328 C311 0.930 . S
H329 C312 0.930 . S
H330 C313 0.930 . S
H331 C314 0.930 . S
H332 C321 0.930 . S
H333 C323 0.930 . S
H334 C324 0.930 . S
H335 C325 0.930 . S
Eu336 N367 2.657 . S
Eu336 N374 2.609 . S
Eu336 O380 2.558 . S
Eu336 O381 2.612 . S
Eu336 O383 2.339 . S
Eu336 O384 2.563 . S
Eu336 O385 2.419 . S
Eu336 O387 2.380 . S
Eu336 O388 2.432 . S
Eu336 C400 2.848 . S
C337 C340 1.429 . S
C337 C341 1.411 . S
C337 N344 1.377 . S
C338 C340 1.420 . S
C338 C342 1.423 . S
C338 C350 1.392 . S
C339 C341 1.420 . S
C339 C342 1.351 . S
C339 H362 0.931 . S
C340 C337 1.429 . S
C340 C338 1.420 . S
C340 N348 1.362 . S
C341 C337 1.411 . S
C341 C339 1.420 . S
C341 C346 1.395 . S
C342 C338 1.423 . S
C342 C339 1.351 . S
C342 H354 0.930 . S
C343 C345 1.400 . S
C343 C346 1.386 . S
C343 H355 0.930 . S
N344 C337 1.377 . S
N344 C345 1.321 . S
N344 Eu347 2.609 . S
C345 C343 1.400 . S
C345 N344 1.321 . S
C345 H352 0.930 . S
C346 C341 1.395 . S
C346 C343 1.386 . S
C346 H365 0.930 . S
Eu347 N344 2.609 . S
Eu347 N348 2.657 . S
Eu347 O381 2.380 . S
Eu347 O382 2.432 . S
Eu347 O386 2.558 . S
Eu347 O387 2.612 . S
Eu347 O389 2.339 . S
Eu347 O390 2.563 . S
Eu347 O391 2.419 . S
Eu347 C411 2.848 . S
N348 C340 1.362 . S
N348 Eu347 2.657 . S
N348 C349 1.334 . S
C349 N348 1.334 . S
C349 C351 1.413 . S
C349 H356 0.929 . S
C350 C338 1.392 . S
C350 C351 1.367 . S
C350 H358 0.930 . S
C351 C349 1.413 . S
C351 C350 1.367 . S
C351 H353 0.930 . S
H352 C345 0.930 . S
H353 C351 0.930 . S
H354 C342 0.930 . S
H355 C343 0.930 . S
H356 C349 0.929 . S
H357 C371 0.930 . S
H358 C350 0.930 . S
H359 C377 0.930 . S
H360 C368 0.929 . S
H361 C375 0.930 . S
H362 C339 0.931 . S
H363 C369 0.930 1_455 S
H364 C402 0.930 . S
H365 C346 0.930 . S
H366 C401 0.931 . S
N367 Eu336 2.657 . S
N367 C368 1.334 . S
N367 C372 1.362 . S
C368 H360 0.929 . S
C368 N367 1.334 . S
C368 C371 1.413 . S
C369 H363 0.930 1_655 S
C369 C370 1.392 . S
C369 C371 1.367 . S
C370 C369 1.392 . S
C370 C372 1.420 . S
C370 C402 1.423 1_655 S
C371 H357 0.930 . S
C371 C368 1.413 . S
C371 C369 1.367 . S
C372 N367 1.362 . S
C372 C370 1.420 . S
C372 C376 1.429 . S
H373 C378 0.930 . S
N374 Eu336 2.609 . S
N374 C376 1.377 . S
N374 C377 1.321 . S
C375 H361 0.930 . S
C375 C377 1.400 . S
C375 C378 1.386 . S
C376 C372 1.429 . S
C376 N374 1.377 . S
C376 C379 1.411 . S
C377 H359 0.930 . S
C377 N374 1.321 . S
C377 C375 1.400 . S
C378 H373 0.930 . S
C378 C375 1.386 . S
C378 C379 1.395 . S
C379 C376 1.411 . S
C379 C378 1.395 . S
C379 C401 1.420 1_655 S
O380 Eu336 2.558 . S
O380 C400 1.257 . S
O381 Eu336 2.612 . S
O381 Eu347 2.380 . S
O381 C392 1.276 . S
O382 Eu347 2.432 . S
O382 C399 1.264 . S
O383 Eu336 2.339 . S
O383 C399 1.254 . S
O384 Eu336 2.563 . S
O384 C392 1.235 . S
O385 Eu336 2.419 . S
O385 C400 1.249 . S
O386 Eu347 2.558 . S
O386 C411 1.257 . S
O387 Eu336 2.380 . S
O387 Eu347 2.612 . S
O387 C403 1.276 . S
O388 Eu336 2.432 . S
O388 C410 1.264 . S
O389 Eu347 2.339 . S
O389 C410 1.254 . S
O390 Eu347 2.563 . S
O390 C403 1.235 . S
O391 Eu347 2.419 . S
O391 C411 1.249 . S
C392 O381 1.276 . S
C392 O384 1.235 . S
C393 C395 1.393 . S
C393 C397 1.395 . S
C393 C400 1.492 . S
C394 C395 1.392 . S
C394 C396 1.386 . S
C395 C393 1.393 . S
C395 C394 1.392 . S
C395 H412 0.930 . S
C396 C394 1.386 . S
C396 C398 1.395 . S
C396 H413 0.930 . S
C397 C393 1.395 . S
C397 C398 1.379 . S
C397 H414 0.930 . S
C398 C396 1.395 . S
C398 C397 1.379 . S
C398 H415 0.930 . S
C399 O382 1.264 . S
C399 O383 1.254 . S
C400 Eu336 2.848 . S
C400 O380 1.257 . S
C400 O385 1.249 . S
C400 C393 1.492 . S
C401 H366 0.931 . S
C401 C379 1.420 1_455 S
C401 C402 1.351 . S
C402 H364 0.930 . S
C402 C370 1.423 1_455 S
C402 C401 1.351 . S
C403 O387 1.276 . S
C403 O390 1.235 . S
C404 C405 1.393 . S
C404 C408 1.395 . S
C404 C411 1.492 . S
C405 C404 1.393 . S
C405 C406 1.392 . S
C405 H416 0.930 . S
C406 C405 1.392 . S
C406 C407 1.386 . S
C407 C406 1.386 . S
C407 C409 1.395 . S
C407 H417 0.930 . S
C408 C404 1.395 . S
C408 C409 1.379 . S
C408 H418 0.930 . S
C409 C407 1.395 . S
C409 C408 1.379 . S
C409 H419 0.930 . S
C410 O388 1.264 . S
C410 O389 1.254 . S
C411 Eu347 2.848 . S
C411 O386 1.257 . S
C411 O391 1.249 . S
C411 C404 1.492 . S
H412 C395 0.930 . S
H413 C396 0.930 . S
H414 C397 0.930 . S
H415 C398 0.930 . S
H416 C405 0.930 . S
H417 C407 0.930 . S
H418 C408 0.930 . S
H419 C409 0.930 . S
Eu420 N451 2.657 . S
Eu420 N458 2.609 . S
Eu420 O464 2.558 . S
Eu420 O465 2.612 . S
Eu420 O467 2.339 . S
Eu420 O468 2.563 . S
Eu420 O469 2.419 . S
Eu420 O471 2.380 . S
Eu420 O472 2.432 . S
Eu420 C484 2.848 . S
C421 C424 1.429 . S
C421 C425 1.411 . S
C421 N428 1.377 . S
C422 C424 1.420 . S
C422 C426 1.423 1_545 S
C422 C434 1.392 . S
C423 C425 1.420 1_565 S
C423 C426 1.351 . S
C423 H446 0.931 . S
C424 C421 1.429 . S
C424 C422 1.420 . S
C424 N432 1.362 . S
C425 C421 1.411 . S
C425 C423 1.420 1_545 S
C425 C430 1.395 . S
C426 C422 1.423 1_565 S
C426 C423 1.351 . S
C426 H438 0.930 . S
C427 C429 1.400 . S
C427 C430 1.386 . S
C427 H439 0.930 . S
N428 C421 1.377 . S
N428 C429 1.321 . S
N428 Eu431 2.609 . S
C429 C427 1.400 . S
C429 N428 1.321 . S
C429 H436 0.930 . S
C430 C425 1.395 . S
C430 C427 1.386 . S
C430 H449 0.930 . S
Eu431 N428 2.609 . S
Eu431 N432 2.657 . S
Eu431 O465 2.380 . S
Eu431 O466 2.432 . S
Eu431 O470 2.558 . S
Eu431 O471 2.612 . S
Eu431 O473 2.339 . S
Eu431 O474 2.563 . S
Eu431 O475 2.419 . S
Eu431 C495 2.848 . S
N432 C424 1.362 . S
N432 Eu431 2.657 . S
N432 C433 1.334 . S
C433 N432 1.334 . S
C433 C435 1.413 . S
C433 H440 0.929 . S
C434 C422 1.392 . S
C434 C435 1.367 . S
C434 H442 0.930 1_545 S
C435 C433 1.413 . S
C435 C434 1.367 . S
C435 H437 0.930 . S
H436 C429 0.930 . S
H437 C435 0.930 . S
H438 C426 0.930 . S
H439 C427 0.930 . S
H440 C433 0.929 . S
H441 C455 0.930 . S
H442 C434 0.930 1_565 S
H443 C461 0.930 . S
H444 C452 0.929 . S
H445 C459 0.930 . S
H446 C423 0.931 . S
H447 C453 0.930 . S
H448 C486 0.930 1_455 S
H449 C430 0.930 . S
H450 C485 0.931 1_455 S
N451 Eu420 2.657 . S
N451 C452 1.334 . S
N451 C456 1.362 . S
C452 H444 0.929 . S
C452 N451 1.334 . S
C452 C455 1.413 . S
C453 H447 0.930 . S
C453 C454 1.392 . S
C453 C455 1.367 . S
C454 C453 1.392 . S
C454 C456 1.420 . S
C454 C486 1.423 . S
C455 H441 0.930 . S
C455 C452 1.413 . S
C455 C453 1.367 . S
C456 N451 1.362 . S
C456 C454 1.420 . S
C456 C460 1.429 . S
H457 C462 0.930 . S
N458 Eu420 2.609 . S
N458 C460 1.377 . S
N458 C461 1.321 . S
C459 H445 0.930 . S
C459 C461 1.400 . S
C459 C462 1.386 . S
C460 C456 1.429 . S
C460 N458 1.377 . S
C460 C463 1.411 . S
C461 H443 0.930 . S
C461 N458 1.321 . S
C461 C459 1.400 . S
C462 H457 0.930 . S
C462 C459 1.386 . S
C462 C463 1.395 . S
C463 C460 1.411 . S
C463 C462 1.395 . S
C463 C485 1.420 . S
O464 Eu420 2.558 . S
O464 C484 1.257 . S
O465 Eu420 2.612 . S
O465 Eu431 2.380 . S
O465 C476 1.276 . S
O466 Eu431 2.432 . S
O466 C483 1.264 . S
O467 Eu420 2.339 . S
O467 C483 1.254 . S
O468 Eu420 2.563 . S
O468 C476 1.235 . S
O469 Eu420 2.419 . S
O469 C484 1.249 . S
O470 Eu431 2.558 . S
O470 C495 1.257 . S
O471 Eu420 2.380 . S
O471 Eu431 2.612 . S
O471 C487 1.276 . S
O472 Eu420 2.432 . S
O472 C494 1.264 . S
O473 Eu431 2.339 . S
O473 C494 1.254 . S
O474 Eu431 2.563 . S
O474 C487 1.235 . S
O475 Eu431 2.419 . S
O475 C495 1.249 . S
C476 O465 1.276 . S
C476 O468 1.235 . S
C477 C479 1.393 . S
C477 C481 1.395 . S
C477 C484 1.492 1_455 S
C478 C479 1.392 . S
C478 C480 1.386 . S
C479 C477 1.393 . S
C479 C478 1.392 . S
C479 H496 0.930 . S
C480 C478 1.386 . S
C480 C482 1.395 . S
C480 H497 0.930 . S
C481 C477 1.395 . S
C481 C482 1.379 . S
C481 H498 0.930 . S
C482 C480 1.395 . S
C482 C481 1.379 . S
C482 H499 0.930 . S
C483 O466 1.264 . S
C483 O467 1.254 . S
C484 Eu420 2.848 . S
C484 O464 1.257 . S
C484 O469 1.249 . S
C484 C477 1.492 1_655 S
C485 H450 0.931 1_655 S
C485 C463 1.420 . S
C485 C486 1.351 . S
C486 H448 0.930 1_655 S
C486 C454 1.423 . S
C486 C485 1.351 . S
C487 O471 1.276 . S
C487 O474 1.235 . S
C488 C489 1.393 . S
C488 C492 1.395 . S
C488 C495 1.492 . S
C489 C488 1.393 . S
C489 C490 1.392 . S
C489 H500 0.930 . S
C490 C489 1.392 . S
C490 C491 1.386 . S
C491 C490 1.386 . S
C491 C493 1.395 . S
C491 H501 0.930 . S
C492 C488 1.395 . S
C492 C493 1.379 . S
C492 H502 0.930 . S
C493 C491 1.395 . S
C493 C492 1.379 . S
C493 H503 0.930 . S
C494 O472 1.264 . S
C494 O473 1.254 . S
C495 Eu431 2.848 . S
C495 O470 1.257 . S
C495 O475 1.249 . S
C495 C488 1.492 . S
H496 C479 0.930 . S
H497 C480 0.930 . S
H498 C481 0.930 . S
H499 C482 0.930 . S
H500 C489 0.930 . S
H501 C491 0.930 . S
H502 C492 0.930 . S
H503 C493 0.930 . S
Eu504 N535 2.657 . S
Eu504 N542 2.609 . S
Eu504 O548 2.558 . S
Eu504 O549 2.612 . S
Eu504 O551 2.339 . S
Eu504 O552 2.563 . S
Eu504 O553 2.419 . S
Eu504 O555 2.380 . S
Eu504 O556 2.432 . S
Eu504 C568 2.848 . S
C505 C508 1.429 . S
C505 C509 1.411 . S
C505 N512 1.377 . S
C506 C508 1.420 . S
C506 C510 1.423 . S
C506 C518 1.392 . S
C507 C509 1.420 . S
C507 C510 1.351 . S
C507 H530 0.931 . S
C508 C505 1.429 . S
C508 C506 1.420 . S
C508 N516 1.362 . S
C509 C505 1.411 . S
C509 C507 1.420 . S
C509 C514 1.395 . S
C510 C506 1.423 . S
C510 C507 1.351 . S
C510 H522 0.930 . S
C511 C513 1.400 . S
C511 C514 1.386 . S
C511 H523 0.930 . S
N512 C505 1.377 . S
N512 C513 1.321 . S
N512 Eu515 2.609 . S
C513 C511 1.400 . S
C513 N512 1.321 . S
C513 H520 0.930 . S
C514 C509 1.395 . S
C514 C511 1.386 . S
C514 H533 0.930 . S
Eu515 N512 2.609 . S
Eu515 N516 2.657 . S
Eu515 O549 2.380 . S
Eu515 O550 2.432 . S
Eu515 O554 2.558 . S
Eu515 O555 2.612 . S
Eu515 O557 2.339 . S
Eu515 O558 2.563 . S
Eu515 O559 2.419 . S
Eu515 C579 2.848 . S
N516 C508 1.362 . S
N516 Eu515 2.657 . S
N516 C517 1.334 . S
C517 N516 1.334 . S
C517 C519 1.413 . S
C517 H524 0.929 . S
C518 C506 1.392 . S
C518 C519 1.367 . S
C518 H526 0.930 . S
C519 C517 1.413 . S
C519 C518 1.367 . S
C519 H521 0.930 . S
H520 C513 0.930 . S
H521 C519 0.930 . S
H522 C510 0.930 . S
H523 C511 0.930 . S
H524 C517 0.929 . S
H525 C539 0.930 . S
H526 C518 0.930 . S
H527 C545 0.930 . S
H528 C536 0.929 . S
H529 C543 0.930 . S
H530 C507 0.931 . S
H531 C537 0.930 . S
H532 C570 0.930 1_655 S
H533 C514 0.930 . S
H534 C569 0.931 1_655 S
N535 Eu504 2.657 . S
N535 C536 1.334 . S
N535 C540 1.362 . S
C536 H528 0.929 . S
C536 N535 1.334 . S
C536 C539 1.413 . S
C537 H531 0.930 . S
C537 C538 1.392 . S
C537 C539 1.367 . S
C538 C537 1.392 . S
C538 C540 1.420 . S
C538 C570 1.423 . S
C539 H525 0.930 . S
C539 C536 1.413 . S
C539 C537 1.367 . S
C540 N535 1.362 . S
C540 C538 1.420 . S
C540 C544 1.429 . S
H541 C546 0.930 . S
N542 Eu504 2.609 . S
N542 C544 1.377 . S
N542 C545 1.321 . S
C543 H529 0.930 . S
C543 C545 1.400 . S
C543 C546 1.386 . S
C544 C540 1.429 . S
C544 N542 1.377 . S
C544 C547 1.411 . S
C545 H527 0.930 . S
C545 N542 1.321 . S
C545 C543 1.400 . S
C546 H541 0.930 . S
C546 C543 1.386 . S
C546 C547 1.395 . S
C547 C544 1.411 . S
C547 C546 1.395 . S
C547 C569 1.420 . S
O548 Eu504 2.558 . S
O548 C568 1.257 . S
O549 Eu504 2.612 . S
O549 Eu515 2.380 . S
O549 C560 1.276 . S
O550 Eu515 2.432 . S
O550 C567 1.264 . S
O551 Eu504 2.339 . S
O551 C567 1.254 . S
O552 Eu504 2.563 . S
O552 C560 1.235 . S
O553 Eu504 2.419 . S
O553 C568 1.249 . S
O554 Eu515 2.558 . S
O554 C579 1.257 . S
O555 Eu504 2.380 . S
O555 Eu515 2.612 . S
O555 C571 1.276 . S
O556 Eu504 2.432 . S
O556 C578 1.264 . S
O557 Eu515 2.339 . S
O557 C578 1.254 . S
O558 Eu515 2.563 . S
O558 C571 1.235 . S
O559 Eu515 2.419 . S
O559 C579 1.249 . S
C560 O549 1.276 . S
C560 O552 1.235 . S
C561 C563 1.393 . S
C561 C565 1.395 . S
C561 C568 1.492 1_655 S
C562 C563 1.392 . S
C562 C564 1.386 . S
C563 C561 1.393 . S
C563 C562 1.392 . S
C563 H580 0.930 . S
C564 C562 1.386 . S
C564 C566 1.395 . S
C564 H581 0.930 . S
C565 C561 1.395 . S
C565 C566 1.379 . S
C565 H582 0.930 . S
C566 C564 1.395 . S
C566 C565 1.379 . S
C566 H583 0.930 . S
C567 O550 1.264 . S
C567 O551 1.254 . S
C568 Eu504 2.848 . S
C568 O548 1.257 . S
C568 O553 1.249 . S
C568 C561 1.492 1_455 S
C569 H534 0.931 1_455 S
C569 C547 1.420 . S
C569 C570 1.351 . S
C570 H532 0.930 1_455 S
C570 C538 1.423 . S
C570 C569 1.351 . S
C571 O555 1.276 . S
C571 O558 1.235 . S
C572 C573 1.393 . S
C572 C576 1.395 . S
C572 C579 1.492 . S
C573 C572 1.393 . S
C573 C574 1.392 . S
C573 H584 0.930 . S
C574 C573 1.392 . S
C574 C575 1.386 . S
C575 C574 1.386 . S
C575 C577 1.395 . S
C575 H585 0.930 . S
C576 C572 1.395 . S
C576 C577 1.379 . S
C576 H586 0.930 . S
C577 C575 1.395 . S
C577 C576 1.379 . S
C577 H587 0.930 . S
C578 O556 1.264 . S
C578 O557 1.254 . S
C579 Eu515 2.848 . S
C579 O554 1.257 . S
C579 O559 1.249 . S
C579 C572 1.492 . S
H580 C563 0.930 . S
H581 C564 0.930 . S
H582 C565 0.930 . S
H583 C566 0.930 . S
H584 C573 0.930 . S
H585 C575 0.930 . S
H586 C576 0.930 . S
H587 C577 0.930 . S
Eu588 N619 2.657 . S
Eu588 N626 2.609 . S
Eu588 O632 2.558 . S
Eu588 O633 2.612 . S
Eu588 O635 2.339 . S
Eu588 O636 2.563 . S
Eu588 O637 2.419 . S
Eu588 O639 2.380 . S
Eu588 O640 2.432 . S
Eu588 C652 2.848 . S
C589 C592 1.429 . S
C589 C593 1.411 . S
C589 N596 1.377 . S
C590 C592 1.420 . S
C590 C594 1.423 . S
C590 C602 1.392 . S
C591 C593 1.420 . S
C591 C594 1.351 . S
C591 H614 0.931 1_565 S
C592 C589 1.429 . S
C592 C590 1.420 . S
C592 N600 1.362 . S
C593 C589 1.411 . S
C593 C591 1.420 . S
C593 C598 1.395 . S
C594 C590 1.423 . S
C594 C591 1.351 . S
C594 H606 0.930 1_565 S
C595 C597 1.400 . S
C595 C598 1.386 . S
C595 H607 0.930 . S
N596 C589 1.377 . S
N596 C597 1.321 . S
N596 Eu599 2.609 . S
C597 C595 1.400 . S
C597 N596 1.321 . S
C597 H604 0.930 . S
C598 C593 1.395 . S
C598 C595 1.386 . S
C598 H617 0.930 . S
Eu599 N596 2.609 . S
Eu599 N600 2.657 . S
Eu599 O633 2.380 . S
Eu599 O634 2.432 . S
Eu599 O638 2.558 . S
Eu599 O639 2.612 . S
Eu599 O641 2.339 . S
Eu599 O642 2.563 . S
Eu599 O643 2.419 . S
Eu599 C663 2.848 . S
N600 C592 1.362 . S
N600 Eu599 2.657 . S
N600 C601 1.334 . S
C601 N600 1.334 . S
C601 C603 1.413 . S
C601 H608 0.929 . S
C602 C590 1.392 . S
C602 C603 1.367 . S
C602 H610 0.930 . S
C603 C601 1.413 . S
C603 C602 1.367 . S
C603 H605 0.930 . S
H604 C597 0.930 . S
H605 C603 0.930 . S
H606 C594 0.930 1_545 S
H607 C595 0.930 . S
H608 C601 0.929 . S
H609 C623 0.930 . S
H610 C602 0.930 . S
H611 C629 0.930 . S
H612 C620 0.929 . S
H613 C627 0.930 . S
H614 C591 0.931 1_545 S
H615 C621 0.930 1_655 S
H616 C654 0.930 . S
H617 C598 0.930 . S
H618 C653 0.931 . S
N619 Eu588 2.657 . S
N619 C620 1.334 . S
N619 C624 1.362 . S
C620 H612 0.929 . S
C620 N619 1.334 . S
C620 C623 1.413 . S
C621 H615 0.930 1_455 S
C621 C622 1.392 . S
C621 C623 1.367 . S
C622 C621 1.392 . S
C622 C624 1.420 . S
C622 C654 1.423 1_455 S
C623 H609 0.930 . S
C623 C620 1.413 . S
C623 C621 1.367 . S
C624 N619 1.362 . S
C624 C622 1.420 . S
C624 C628 1.429 . S
H625 C630 0.930 . S
N626 Eu588 2.609 . S
N626 C628 1.377 . S
N626 C629 1.321 . S
C627 H613 0.930 . S
C627 C629 1.400 . S
C627 C630 1.386 . S
C628 C624 1.429 . S
C628 N626 1.377 . S
C628 C631 1.411 . S
C629 H611 0.930 . S
C629 N626 1.321 . S
C629 C627 1.400 . S
C630 H625 0.930 . S
C630 C627 1.386 . S
C630 C631 1.395 . S
C631 C628 1.411 . S
C631 C630 1.395 . S
C631 C653 1.420 1_455 S
O632 Eu588 2.558 . S
O632 C652 1.257 . S
O633 Eu588 2.612 . S
O633 Eu599 2.380 . S
O633 C644 1.276 . S
O634 Eu599 2.432 . S
O634 C651 1.264 . S
O635 Eu588 2.339 . S
O635 C651 1.254 . S
O636 Eu588 2.563 . S
O636 C644 1.235 . S
O637 Eu588 2.419 . S
O637 C652 1.249 . S
O638 Eu599 2.558 . S
O638 C663 1.257 . S
O639 Eu588 2.380 . S
O639 Eu599 2.612 . S
O639 C655 1.276 . S
O640 Eu588 2.432 . S
O640 C662 1.264 . S
O641 Eu599 2.339 . S
O641 C662 1.254 . S
O642 Eu599 2.563 . S
O642 C655 1.235 . S
O643 Eu599 2.419 . S
O643 C663 1.249 . S
C644 O633 1.276 . S
C644 O636 1.235 . S
C645 C647 1.393 . S
C645 C649 1.395 . S
C645 C652 1.492 . S
C646 C647 1.392 . S
C646 C648 1.386 . S
C647 C645 1.393 . S
C647 C646 1.392 . S
C647 H664 0.930 . S
C648 C646 1.386 . S
C648 C650 1.395 . S
C648 H665 0.930 . S
C649 C645 1.395 . S
C649 C650 1.379 . S
C649 H666 0.930 . S
C650 C648 1.395 . S
C650 C649 1.379 . S
C650 H667 0.930 . S
C651 O634 1.264 . S
C651 O635 1.254 . S
C652 Eu588 2.848 . S
C652 O632 1.257 . S
C652 O637 1.249 . S
C652 C645 1.492 . S
C653 H618 0.931 . S
C653 C631 1.420 1_655 S
C653 C654 1.351 . S
C654 H616 0.930 . S
C654 C622 1.423 1_655 S
C654 C653 1.351 . S
C655 O639 1.276 . S
C655 O642 1.235 . S
C656 C657 1.393 . S
C656 C660 1.395 . S
C656 C663 1.492 1_545 S
C657 C656 1.393 . S
C657 C658 1.392 . S
C657 H668 0.930 . S
C658 C657 1.392 . S
C658 C659 1.386 . S
C659 C658 1.386 . S
C659 C661 1.395 . S
C659 H669 0.930 . S
C660 C656 1.395 . S
C660 C661 1.379 . S
C660 H670 0.930 . S
C661 C659 1.395 . S
C661 C660 1.379 . S
C661 H671 0.930 . S
C662 O640 1.264 . S
C662 O641 1.254 . S
C663 Eu599 2.848 . S
C663 O638 1.257 . S
C663 O643 1.249 . S
C663 C656 1.492 1_565 S
H664 C647 0.930 . S
H665 C648 0.930 . S
H666 C649 0.930 . S
H667 C650 0.930 . S
H668 C657 0.930 . S
H669 C659 0.930 . S
H670 C660 0.930 . S
H671 C661 0.930 . S
Eu672 N703 2.657 . S
Eu672 N710 2.609 . S
Eu672 O716 2.558 . S
Eu672 O717 2.612 . S
Eu672 O719 2.339 . S
Eu672 O720 2.563 . S
Eu672 O721 2.419 . S
Eu672 O723 2.380 . S
Eu672 O724 2.432 . S
Eu672 C736 2.848 . S
C673 C676 1.429 . S
C673 C677 1.411 . S
C673 N680 1.377 . S
C674 C676 1.420 . S
C674 C678 1.423 1_565 S
C674 C686 1.392 . S
C675 C677 1.420 1_545 S
C675 C678 1.351 . S
C675 H698 0.931 . S
C676 C673 1.429 . S
C676 C674 1.420 . S
C676 N684 1.362 . S
C677 C673 1.411 . S
C677 C675 1.420 1_565 S
C677 C682 1.395 . S
C678 C674 1.423 1_545 S
C678 C675 1.351 . S
C678 H690 0.930 . S
C679 C681 1.400 . S
C679 C682 1.386 . S
C679 H691 0.930 . S
N680 C673 1.377 . S
N680 C681 1.321 . S
N680 Eu683 2.609 . S
C681 C679 1.400 . S
C681 N680 1.321 . S
C681 H688 0.930 . S
C682 C677 1.395 . S
C682 C679 1.386 . S
C682 H701 0.930 . S
Eu683 N680 2.609 . S
Eu683 N684 2.657 . S
Eu683 O717 2.380 . S
Eu683 O718 2.432 . S
Eu683 O722 2.558 . S
Eu683 O723 2.612 . S
Eu683 O725 2.339 . S
Eu683 O726 2.563 . S
Eu683 O727 2.419 . S
Eu683 C747 2.848 . S
N684 C676 1.362 . S
N684 Eu683 2.657 . S
N684 C685 1.334 . S
C685 N684 1.334 . S
C685 C687 1.413 . S
C685 H692 0.929 . S
C686 C674 1.392 . S
C686 C687 1.367 . S
C686 H694 0.930 1_565 S
C687 C685 1.413 . S
C687 C686 1.367 . S
C687 H689 0.930 . S
H688 C681 0.930 . S
H689 C687 0.930 . S
H690 C678 0.930 . S
H691 C679 0.930 . S
H692 C685 0.929 . S
H693 C707 0.930 . S
H694 C686 0.930 1_545 S
H695 C713 0.930 . S
H696 C704 0.929 . S
H697 C711 0.930 . S
H698 C675 0.931 . S
H699 C705 0.930 . S
H700 C738 0.930 . S
H701 C682 0.930 . S
H702 C737 0.931 . S
N703 Eu672 2.657 . S
N703 C704 1.334 . S
N703 C708 1.362 . S
C704 H696 0.929 . S
C704 N703 1.334 . S
C704 C707 1.413 . S
C705 H699 0.930 . S
C705 C706 1.392 . S
C705 C707 1.367 . S
C706 C705 1.392 . S
C706 C708 1.420 . S
C706 C738 1.423 . S
C707 H693 0.930 . S
C707 C704 1.413 . S
C707 C705 1.367 . S
C708 N703 1.362 . S
C708 C706 1.420 . S
C708 C712 1.429 . S
H709 C714 0.930 . S
N710 Eu672 2.609 . S
N710 C712 1.377 . S
N710 C713 1.321 . S
C711 H697 0.930 . S
C711 C713 1.400 . S
C711 C714 1.386 . S
C712 C708 1.429 . S
C712 N710 1.377 . S
C712 C715 1.411 . S
C713 H695 0.930 . S
C713 N710 1.321 . S
C713 C711 1.400 . S
C714 H709 0.930 . S
C714 C711 1.386 . S
C714 C715 1.395 . S
C715 C712 1.411 . S
C715 C714 1.395 . S
C715 C737 1.420 . S
O716 Eu672 2.558 . S
O716 C736 1.257 . S
O717 Eu672 2.612 . S
O717 Eu683 2.380 . S
O717 C728 1.276 . S
O718 Eu683 2.432 . S
O718 C735 1.264 . S
O719 Eu672 2.339 . S
O719 C735 1.254 . S
O720 Eu672 2.563 . S
O720 C728 1.235 . S
O721 Eu672 2.419 . S
O721 C736 1.249 . S
O722 Eu683 2.558 . S
O722 C747 1.257 . S
O723 Eu672 2.380 . S
O723 Eu683 2.612 . S
O723 C739 1.276 . S
O724 Eu672 2.432 . S
O724 C746 1.264 . S
O725 Eu683 2.339 . S
O725 C746 1.254 . S
O726 Eu683 2.563 . S
O726 C739 1.235 . S
O727 Eu683 2.419 . S
O727 C747 1.249 . S
C728 O717 1.276 . S
C728 O720 1.235 . S
C729 C731 1.393 . S
C729 C733 1.395 . S
C729 C736 1.492 . S
C730 C731 1.392 . S
C730 C732 1.386 . S
C731 C729 1.393 . S
C731 C730 1.392 . S
C731 H748 0.930 . S
C732 C730 1.386 . S
C732 C734 1.395 . S
C732 H749 0.930 . S
C733 C729 1.395 . S
C733 C734 1.379 . S
C733 H750 0.930 . S
C734 C732 1.395 . S
C734 C733 1.379 . S
C734 H751 0.930 . S
C735 O718 1.264 . S
C735 O719 1.254 . S
C736 Eu672 2.848 . S
C736 O716 1.257 . S
C736 O721 1.249 . S
C736 C729 1.492 . S
C737 H702 0.931 . S
C737 C715 1.420 . S
C737 C738 1.351 . S
C738 H700 0.930 . S
C738 C706 1.423 . S
C738 C737 1.351 . S
C739 O723 1.276 . S
C739 O726 1.235 . S
C740 C741 1.393 . S
C740 C744 1.395 . S
C740 C747 1.492 . S
C741 C740 1.393 . S
C741 C742 1.392 . S
C741 H752 0.930 . S
C742 C741 1.392 . S
C742 C743 1.386 . S
C743 C742 1.386 . S
C743 C745 1.395 . S
C743 H753 0.930 . S
C744 C740 1.395 . S
C744 C745 1.379 . S
C744 H754 0.930 . S
C745 C743 1.395 . S
C745 C744 1.379 . S
C745 H755 0.930 . S
C746 O724 1.264 . S
C746 O725 1.254 . S
C747 Eu683 2.848 . S
C747 O722 1.257 . S
C747 O727 1.249 . S
C747 C740 1.492 . S
H748 C731 0.930 . S
H749 C732 0.930 . S
H750 C733 0.930 . S
H751 C734 0.930 . S
H752 C741 0.930 . S
H753 C743 0.930 . S
H754 C744 0.930 . S
H755 C745 0.930 . S
Eu756 N787 2.657 . S
Eu756 N794 2.609 . S
Eu756 O800 2.558 . S
Eu756 O801 2.612 . S
Eu756 O803 2.339 . S
Eu756 O804 2.563 . S
Eu756 O805 2.419 . S
Eu756 O807 2.380 . S
Eu756 O808 2.432 . S
Eu756 C820 2.848 . S
C757 C760 1.429 . S
C757 C761 1.411 . S
C757 N764 1.377 . S
C758 C760 1.420 . S
C758 C762 1.423 . S
C758 C770 1.392 . S
C759 C761 1.420 . S
C759 C762 1.351 . S
C759 H782 0.931 1_455 S
C760 C757 1.429 . S
C760 C758 1.420 . S
C760 N768 1.362 . S
C761 C757 1.411 . S
C761 C759 1.420 . S
C761 C766 1.395 . S
C762 C758 1.423 . S
C762 C759 1.351 . S
C762 H774 0.930 1_455 S
C763 C765 1.400 . S
C763 C766 1.386 . S
C763 H775 0.930 . S
N764 C757 1.377 . S
N764 C765 1.321 . S
N764 Eu767 2.609 . S
C765 C763 1.400 . S
C765 N764 1.321 . S
C765 H772 0.930 . S
C766 C761 1.395 . S
C766 C763 1.386 . S
C766 H785 0.930 . S
Eu767 N764 2.609 . S
Eu767 N768 2.657 . S
Eu767 O801 2.380 . S
Eu767 O802 2.432 . S
Eu767 O806 2.558 . S
Eu767 O807 2.612 . S
Eu767 O809 2.339 . S
Eu767 O810 2.563 . S
Eu767 O811 2.419 . S
Eu767 C831 2.848 . S
N768 C760 1.362 . S
N768 Eu767 2.657 . S
N768 C769 1.334 . S
C769 N768 1.334 . S
C769 C771 1.413 . S
C769 H776 0.929 . S
C770 C758 1.392 . S
C770 C771 1.367 . S
C770 H778 0.930 . S
C771 C769 1.413 . S
C771 C770 1.367 . S
C771 H773 0.930 . S
H772 C765 0.930 . S
H773 C771 0.930 . S
H774 C762 0.930 1_655 S
H775 C763 0.930 . S
H776 C769 0.929 . S
H777 C791 0.930 . S
H778 C770 0.930 . S
H779 C797 0.930 . S
H780 C788 0.929 . S
H781 C795 0.930 . S
H782 C759 0.931 1_655 S
H783 C789 0.930 . S
H784 C822 0.930 . S
H785 C766 0.930 . S
H786 C821 0.931 . S
N787 Eu756 2.657 . S
N787 C788 1.334 . S
N787 C792 1.362 . S
C788 H780 0.929 . S
C788 N787 1.334 . S
C788 C791 1.413 . S
C789 H783 0.930 . S
C789 C790 1.392 . S
C789 C791 1.367 . S
C790 C789 1.392 . S
C790 C792 1.420 . S
C790 C822 1.423 . S
C791 H777 0.930 . S
C791 C788 1.413 . S
C791 C789 1.367 . S
C792 N787 1.362 . S
C792 C790 1.420 . S
C792 C796 1.429 . S
H793 C798 0.930 . S
N794 Eu756 2.609 . S
N794 C796 1.377 . S
N794 C797 1.321 . S
C795 H781 0.930 . S
C795 C797 1.400 . S
C795 C798 1.386 . S
C796 C792 1.429 . S
C796 N794 1.377 . S
C796 C799 1.411 . S
C797 H779 0.930 . S
C797 N794 1.321 . S
C797 C795 1.400 . S
C798 H793 0.930 . S
C798 C795 1.386 . S
C798 C799 1.395 . S
C799 C796 1.411 . S
C799 C798 1.395 . S
C799 C821 1.420 . S
O800 Eu756 2.558 . S
O800 C820 1.257 . S
O801 Eu756 2.612 . S
O801 Eu767 2.380 . S
O801 C812 1.276 . S
O802 Eu767 2.432 . S
O802 C819 1.264 . S
O803 Eu756 2.339 . S
O803 C819 1.254 . S
O804 Eu756 2.563 . S
O804 C812 1.235 . S
O805 Eu756 2.419 . S
O805 C820 1.249 . S
O806 Eu767 2.558 . S
O806 C831 1.257 . S
O807 Eu756 2.380 . S
O807 Eu767 2.612 . S
O807 C823 1.276 . S
O808 Eu756 2.432 . S
O808 C830 1.264 . S
O809 Eu767 2.339 . S
O809 C830 1.254 . S
O810 Eu767 2.563 . S
O810 C823 1.235 . S
O811 Eu767 2.419 . S
O811 C831 1.249 . S
C812 O801 1.276 . S
C812 O804 1.235 . S
C813 C815 1.393 . S
C813 C817 1.395 . S
C813 C820 1.492 . S
C814 C815 1.392 . S
C814 C816 1.386 . S
C815 C813 1.393 . S
C815 C814 1.392 . S
C815 H832 0.930 . S
C816 C814 1.386 . S
C816 C818 1.395 . S
C816 H833 0.930 . S
C817 C813 1.395 . S
C817 C818 1.379 . S
C817 H834 0.930 . S
C818 C816 1.395 . S
C818 C817 1.379 . S
C818 H835 0.930 . S
C819 O802 1.264 . S
C819 O803 1.254 . S
C820 Eu756 2.848 . S
C820 O800 1.257 . S
C820 O805 1.249 . S
C820 C813 1.492 . S
C821 H786 0.931 . S
C821 C799 1.420 . S
C821 C822 1.351 . S
C822 H784 0.930 . S
C822 C790 1.423 . S
C822 C821 1.351 . S
C823 O807 1.276 . S
C823 O810 1.235 . S
C824 C825 1.393 . S
C824 C828 1.395 . S
C824 C831 1.492 1_655 S
C825 C824 1.393 . S
C825 C826 1.392 . S
C825 H836 0.930 . S
C826 C825 1.392 . S
C826 C827 1.386 . S
C827 C826 1.386 . S
C827 C829 1.395 . S
C827 H837 0.930 . S
C828 C824 1.395 . S
C828 C829 1.379 . S
C828 H838 0.930 . S
C829 C827 1.395 . S
C829 C828 1.379 . S
C829 H839 0.930 . S
C830 O808 1.264 . S
C830 O809 1.254 . S
C831 Eu767 2.848 . S
C831 O806 1.257 . S
C831 O811 1.249 . S
C831 C824 1.492 1_455 S
H832 C815 0.930 . S
H833 C816 0.930 . S
H834 C817 0.930 . S
H835 C818 0.930 . S
H836 C825 0.930 . S
H837 C827 0.930 . S
H838 C828 0.930 . S
H839 C829 0.930 . S
Eu840 N871 2.657 . S
Eu840 N878 2.609 . S
Eu840 O884 2.558 . S
Eu840 O885 2.612 . S
Eu840 O887 2.339 . S
Eu840 O888 2.563 . S
Eu840 O889 2.419 . S
Eu840 O891 2.380 . S
Eu840 O892 2.432 . S
Eu840 C904 2.848 . S
C841 C844 1.429 . S
C841 C845 1.411 . S
C841 N848 1.377 . S
C842 C844 1.420 . S
C842 C846 1.423 1_455 S
C842 C854 1.392 . S
C843 C845 1.420 1_655 S
C843 C846 1.351 . S
C843 H866 0.931 . S
C844 C841 1.429 . S
C844 C842 1.420 . S
C844 N852 1.362 . S
C845 C841 1.411 . S
C845 C843 1.420 1_455 S
C845 C850 1.395 . S
C846 C842 1.423 1_655 S
C846 C843 1.351 . S
C846 H858 0.930 . S
C847 C849 1.400 . S
C847 C850 1.386 . S
C847 H859 0.930 . S
N848 C841 1.377 . S
N848 C849 1.321 . S
N848 Eu851 2.609 . S
C849 C847 1.400 . S
C849 N848 1.321 . S
C849 H856 0.930 . S
C850 C845 1.395 . S
C850 C847 1.386 . S
C850 H869 0.930 . S
Eu851 N848 2.609 . S
Eu851 N852 2.657 . S
Eu851 O885 2.380 . S
Eu851 O886 2.432 . S
Eu851 O890 2.558 . S
Eu851 O891 2.612 . S
Eu851 O893 2.339 . S
Eu851 O894 2.563 . S
Eu851 O895 2.419 . S
Eu851 C915 2.848 . S
N852 C844 1.362 . S
N852 Eu851 2.657 . S
N852 C853 1.334 . S
C853 N852 1.334 . S
C853 C855 1.413 . S
C853 H860 0.929 . S
C854 C842 1.392 . S
C854 C855 1.367 . S
C854 H862 0.930 1_455 S
C855 C853 1.413 . S
C855 C854 1.367 . S
C855 H857 0.930 . S
H856 C849 0.930 . S
H857 C855 0.930 . S
H858 C846 0.930 . S
H859 C847 0.930 . S
H860 C853 0.929 . S
H861 C875 0.930 . S
H862 C854 0.930 1_655 S
H863 C881 0.930 . S
H864 C872 0.929 . S
H865 C879 0.930 . S
H866 C843 0.931 . S
H867 C873 0.930 . S
H868 C906 0.930 1_545 S
H869 C850 0.930 . S
H870 C905 0.931 1_545 S
N871 Eu840 2.657 . S
N871 C872 1.334 . S
N871 C876 1.362 . S
C872 H864 0.929 . S
C872 N871 1.334 . S
C872 C875 1.413 . S
C873 H867 0.930 . S
C873 C874 1.392 . S
C873 C875 1.367 . S
C874 C873 1.392 . S
C874 C876 1.420 . S
C874 C906 1.423 . S
C875 H861 0.930 . S
C875 C872 1.413 . S
C875 C873 1.367 . S
C876 N871 1.362 . S
C876 C874 1.420 . S
C876 C880 1.429 . S
H877 C882 0.930 . S
N878 Eu840 2.609 . S
N878 C880 1.377 . S
N878 C881 1.321 . S
C879 H865 0.930 . S
C879 C881 1.400 . S
C879 C882 1.386 . S
C880 C876 1.429 . S
C880 N878 1.377 . S
C880 C883 1.411 . S
C881 H863 0.930 . S
C881 N878 1.321 . S
C881 C879 1.400 . S
C882 H877 0.930 . S
C882 C879 1.386 . S
C882 C883 1.395 . S
C883 C880 1.411 . S
C883 C882 1.395 . S
C883 C905 1.420 . S
O884 Eu840 2.558 . S
O884 C904 1.257 . S
O885 Eu840 2.612 . S
O885 Eu851 2.380 . S
O885 C896 1.276 . S
O886 Eu851 2.432 . S
O886 C903 1.264 . S
O887 Eu840 2.339 . S
O887 C903 1.254 . S
O888 Eu840 2.563 . S
O888 C896 1.235 . S
O889 Eu840 2.419 . S
O889 C904 1.249 . S
O890 Eu851 2.558 . S
O890 C915 1.257 . S
O891 Eu840 2.380 . S
O891 Eu851 2.612 . S
O891 C907 1.276 . S
O892 Eu840 2.432 . S
O892 C914 1.264 . S
O893 Eu851 2.339 . S
O893 C914 1.254 . S
O894 Eu851 2.563 . S
O894 C907 1.235 . S
O895 Eu851 2.419 . S
O895 C915 1.249 . S
C896 O885 1.276 . S
C896 O888 1.235 . S
C897 C899 1.393 . S
C897 C901 1.395 . S
C897 C904 1.492 1_545 S
C898 C899 1.392 . S
C898 C900 1.386 . S
C899 C897 1.393 . S
C899 C898 1.392 . S
C899 H916 0.930 . S
C900 C898 1.386 . S
C900 C902 1.395 . S
C900 H917 0.930 . S
C901 C897 1.395 . S
C901 C902 1.379 . S
C901 H918 0.930 . S
C902 C900 1.395 . S
C902 C901 1.379 . S
C902 H919 0.930 . S
C903 O886 1.264 . S
C903 O887 1.254 . S
C904 Eu840 2.848 . S
C904 O884 1.257 . S
C904 O889 1.249 . S
C904 C897 1.492 1_565 S
C905 H870 0.931 1_565 S
C905 C883 1.420 . S
C905 C906 1.351 . S
C906 H868 0.930 1_565 S
C906 C874 1.423 . S
C906 C905 1.351 . S
C907 O891 1.276 . S
C907 O894 1.235 . S
C908 C909 1.393 . S
C908 C912 1.395 . S
C908 C915 1.492 . S
C909 C908 1.393 . S
C909 C910 1.392 . S
C909 H920 0.930 . S
C910 C909 1.392 . S
C910 C911 1.386 . S
C911 C910 1.386 . S
C911 C913 1.395 . S
C911 H921 0.930 . S
C912 C908 1.395 . S
C912 C913 1.379 . S
C912 H922 0.930 . S
C913 C911 1.395 . S
C913 C912 1.379 . S
C913 H923 0.930 . S
C914 O892 1.264 . S
C914 O893 1.254 . S
C915 Eu851 2.848 . S
C915 O890 1.257 . S
C915 O895 1.249 . S
C915 C908 1.492 . S
H916 C899 0.930 . S
H917 C900 0.930 . S
H918 C901 0.930 . S
H919 C902 0.930 . S
H920 C909 0.930 . S
H921 C911 0.930 . S
H922 C912 0.930 . S
H923 C913 0.930 . S
Eu924 N955 2.657 . S
Eu924 N962 2.609 . S
Eu924 O968 2.558 . S
Eu924 O969 2.612 . S
Eu924 O971 2.339 . S
Eu924 O972 2.563 . S
Eu924 O973 2.419 . S
Eu924 O975 2.380 . S
Eu924 O976 2.432 . S
Eu924 C988 2.848 . S
C925 C928 1.429 . S
C925 C929 1.411 . S
C925 N932 1.377 . S
C926 C928 1.420 . S
C926 C930 1.423 . S
C926 C938 1.392 . S
C927 C929 1.420 . S
C927 C930 1.351 . S
C927 H950 0.931 . S
C928 C925 1.429 . S
C928 C926 1.420 . S
C928 N936 1.362 . S
C929 C925 1.411 . S
C929 C927 1.420 . S
C929 C934 1.395 . S
C930 C926 1.423 . S
C930 C927 1.351 . S
C930 H942 0.930 . S
C931 C933 1.400 . S
C931 C934 1.386 . S
C931 H943 0.930 . S
N932 C925 1.377 . S
N932 C933 1.321 . S
N932 Eu935 2.609 . S
C933 C931 1.400 . S
C933 N932 1.321 . S
C933 H940 0.930 . S
C934 C929 1.395 . S
C934 C931 1.386 . S
C934 H953 0.930 . S
Eu935 N932 2.609 . S
Eu935 N936 2.657 . S
Eu935 O969 2.380 . S
Eu935 O970 2.432 . S
Eu935 O974 2.558 . S
Eu935 O975 2.612 . S
Eu935 O977 2.339 . S
Eu935 O978 2.563 . S
Eu935 O979 2.419 . S
Eu935 C999 2.848 . S
N936 C928 1.362 . S
N936 Eu935 2.657 . S
N936 C937 1.334 . S
C937 N936 1.334 . S
C937 C939 1.413 . S
C937 H944 0.929 . S
C938 C926 1.392 . S
C938 C939 1.367 . S
C938 H946 0.930 . S
C939 C937 1.413 . S
C939 C938 1.367 . S
C939 H941 0.930 . S
H940 C933 0.930 . S
H941 C939 0.930 . S
H942 C930 0.930 . S
H943 C931 0.930 . S
H944 C937 0.929 . S
H945 C959 0.930 . S
H946 C938 0.930 . S
H947 C965 0.930 . S
H948 C956 0.929 . S
H949 C963 0.930 . S
H950 C927 0.931 . S
H951 C957 0.930 1_545 S
H952 C990 0.930 . S
H953 C934 0.930 . S
H954 C989 0.931 . S
N955 Eu924 2.657 . S
N955 C956 1.334 . S
N955 C960 1.362 . S
C956 H948 0.929 . S
C956 N955 1.334 . S
C956 C959 1.413 . S
C957 H951 0.930 1_565 S
C957 C958 1.392 . S
C957 C959 1.367 . S
C958 C957 1.392 . S
C958 C960 1.420 . S
C958 C990 1.423 1_565 S
C959 H945 0.930 . S
C959 C956 1.413 . S
C959 C957 1.367 . S
C960 N955 1.362 . S
C960 C958 1.420 . S
C960 C964 1.429 . S
H961 C966 0.930 . S
N962 Eu924 2.609 . S
N962 C964 1.377 . S
N962 C965 1.321 . S
C963 H949 0.930 . S
C963 C965 1.400 . S
C963 C966 1.386 . S
C964 C960 1.429 . S
C964 N962 1.377 . S
C964 C967 1.411 . S
C965 H947 0.930 . S
C965 N962 1.321 . S
C965 C963 1.400 . S
C966 H961 0.930 . S
C966 C963 1.386 . S
C966 C967 1.395 . S
C967 C964 1.411 . S
C967 C966 1.395 . S
C967 C989 1.420 1_565 S
O968 Eu924 2.558 . S
O968 C988 1.257 . S
O969 Eu924 2.612 . S
O969 Eu935 2.380 . S
O969 C980 1.276 . S
O970 Eu935 2.432 . S
O970 C987 1.264 . S
O971 Eu924 2.339 . S
O971 C987 1.254 . S
O972 Eu924 2.563 . S
O972 C980 1.235 . S
O973 Eu924 2.419 . S
O973 C988 1.249 . S
O974 Eu935 2.558 . S
O974 C999 1.257 . S
O975 Eu924 2.380 . S
O975 Eu935 2.612 . S
O975 C991 1.276 . S
O976 Eu924 2.432 . S
O976 C998 1.264 . S
O977 Eu935 2.339 . S
O977 C998 1.254 . S
O978 Eu935 2.563 . S
O978 C991 1.235 . S
O979 Eu935 2.419 . S
O979 C999 1.249 . S
C980 O969 1.276 . S
C980 O972 1.235 . S
C981 C983 1.393 . S
C981 C985 1.395 . S
C981 C988 1.492 . S
C982 C983 1.392 . S
C982 C984 1.386 . S
C983 C981 1.393 . S
C983 C982 1.392 . S
C983 H1000 0.930 . S
C984 C982 1.386 . S
C984 C986 1.395 . S
C984 H1001 0.930 . S
C985 C981 1.395 . S
C985 C986 1.379 . S
C985 H1002 0.930 . S
C986 C984 1.395 . S
C986 C985 1.379 . S
C986 H1003 0.930 . S
C987 O970 1.264 . S
C987 O971 1.254 . S
C988 Eu924 2.848 . S
C988 O968 1.257 . S
C988 O973 1.249 . S
C988 C981 1.492 . S
C989 H954 0.931 . S
C989 C967 1.420 1_545 S
C989 C990 1.351 . S
C990 H952 0.930 . S
C990 C958 1.423 1_545 S
C990 C989 1.351 . S
C991 O975 1.276 . S
C991 O978 1.235 . S
C992 C993 1.393 . S
C992 C996 1.395 . S
C992 C999 1.492 . S
C993 C992 1.393 . S
C993 C994 1.392 . S
C993 H1004 0.930 . S
C994 C993 1.392 . S
C994 C995 1.386 . S
C995 C994 1.386 . S
C995 C997 1.395 . S
C995 H1005 0.930 . S
C996 C992 1.395 . S
C996 C997 1.379 . S
C996 H1006 0.930 . S
C997 C995 1.395 . S
C997 C996 1.379 . S
C997 H1007 0.930 . S
C998 O976 1.264 . S
C998 O977 1.254 . S
C999 Eu935 2.848 . S
C999 O974 1.257 . S
C999 O979 1.249 . S
C999 C992 1.492 . S
H1000 C983 0.930 . S
H1001 C984 0.930 . S
H1002 C985 0.930 . S
H1003 C986 0.930 . S
H1004 C993 0.930 . S
H1005 C995 0.930 . S
H1006 C996 0.930 . S
H1007 C997 0.930 . S
C1008 C1009 1.391 . S
C1008 C1010 1.394 . S
C1008 H1024 0.931 . S
C1009 C1008 1.391 . S
C1009 C1013 1.376 . S
C1010 C1008 1.394 . S
C1010 C1011 1.369 . S
C1010 C1014 1.531 . S
C1011 C1010 1.369 . S
C1011 C1012 1.410 . S
C1011 C1019 1.503 . S
C1012 C1011 1.410 . S
C1012 C1013 1.392 . S
C1012 C1015 1.511 . S
C1013 C1009 1.376 . S
C1013 C1012 1.392 . S
C1013 H1025 0.929 . S
C1014 C1010 1.531 . S
C1014 H1026 0.960 . S
C1014 H1027 0.962 . S
C1014 H1028 0.960 . S
C1015 C1012 1.511 . S
C1015 H1029 0.961 . S
C1015 H1030 0.961 . S
C1015 H1031 0.961 . S
C1016 C1017 1.370 . S
C1016 C1018 1.363 . S
C1016 H1032 0.931 . S
C1017 C1016 1.370 . S
C1017 C1021 1.408 . S
C1018 C1016 1.363 . S
C1018 C1019 1.370 . S
C1018 C1022 1.524 . S
C1019 C1011 1.503 . S
C1019 C1018 1.370 . S
C1019 C1020 1.403 . S
C1020 C1019 1.403 . S
C1020 C1021 1.404 . S
C1020 C1023 1.539 . S
C1021 C1017 1.408 . S
C1021 C1020 1.404 . S
C1021 H1033 0.930 . S
C1022 C1018 1.524 . S
C1022 H1034 0.956 . S
C1022 H1035 0.961 . S
C1022 H1036 0.961 . S
C1023 C1020 1.539 . S
C1023 H1037 0.958 . S
C1023 H1038 0.961 . S
C1023 H1039 0.960 . S
H1024 C1008 0.931 . S
H1025 C1013 0.929 . S
H1026 C1014 0.960 . S
H1027 C1014 0.962 . S
H1028 C1014 0.960 . S
H1029 C1015 0.961 . S
H1030 C1015 0.961 . S
H1031 C1015 0.961 . S
H1032 C1016 0.931 . S
H1033 C1021 0.930 . S
H1034 C1022 0.956 . S
H1035 C1022 0.961 . S
H1036 C1022 0.961 . S
H1037 C1023 0.958 . S
H1038 C1023 0.961 . S
H1039 C1023 0.960 . S
C1040 C1041 1.391 . S
C1040 C1042 1.394 . S
C1040 H1056 0.931 . S
C1041 C1040 1.391 . S
C1041 C1045 1.376 . S
C1042 C1040 1.394 . S
C1042 C1043 1.369 . S
C1042 C1046 1.531 . S
C1043 C1042 1.369 . S
C1043 C1044 1.410 . S
C1043 C1051 1.503 1_455 S
C1044 C1043 1.410 . S
C1044 C1045 1.392 . S
C1044 C1047 1.511 . S
C1045 C1041 1.376 . S
C1045 C1044 1.392 . S
C1045 H1057 0.929 . S
C1046 C1042 1.531 . S
C1046 H1058 0.960 . S
C1046 H1059 0.962 . S
C1046 H1060 0.960 . S
C1047 C1044 1.511 . S
C1047 H1061 0.961 . S
C1047 H1062 0.961 . S
C1047 H1063 0.961 . S
C1048 C1049 1.370 . S
C1048 C1050 1.363 . S
C1048 H1064 0.931 . S
C1049 C1048 1.370 . S
C1049 C1053 1.408 . S
C1050 C1048 1.363 . S
C1050 C1051 1.370 . S
C1050 C1054 1.524 1_655 S
C1051 C1043 1.503 1_655 S
C1051 C1050 1.370 . S
C1051 C1052 1.403 . S
C1052 C1051 1.403 . S
C1052 C1053 1.404 . S
C1052 C1055 1.539 . S
C1053 C1049 1.408 . S
C1053 C1052 1.404 . S
C1053 H1065 0.930 . S
C1054 C1050 1.524 1_455 S
C1054 H1066 0.956 . S
C1054 H1067 0.961 . S
C1054 H1068 0.961 . S
C1055 C1052 1.539 . S
C1055 H1069 0.958 . S
C1055 H1070 0.961 . S
C1055 H1071 0.960 . S
H1056 C1040 0.931 . S
H1057 C1045 0.929 . S
H1058 C1046 0.960 . S
H1059 C1046 0.962 . S
H1060 C1046 0.960 . S
H1061 C1047 0.961 . S
H1062 C1047 0.961 . S
H1063 C1047 0.961 . S
H1064 C1048 0.931 . S
H1065 C1053 0.930 . S
H1066 C1054 0.956 . S
H1067 C1054 0.961 . S
H1068 C1054 0.961 . S
H1069 C1055 0.958 . S
H1070 C1055 0.961 . S
H1071 C1055 0.960 . S
C1072 C1073 1.391 . S
C1072 C1074 1.394 . S
C1072 H1088 0.931 . S
C1073 C1072 1.391 . S
C1073 C1077 1.376 . S
C1074 C1072 1.394 . S
C1074 C1075 1.369 . S
C1074 C1078 1.531 1_545 S
C1075 C1074 1.369 . S
C1075 C1076 1.410 . S
C1075 C1083 1.503 1_545 S
C1076 C1075 1.410 . S
C1076 C1077 1.392 . S
C1076 C1079 1.511 . S
C1077 C1073 1.376 . S
C1077 C1076 1.392 . S
C1077 H1089 0.929 . S
C1078 C1074 1.531 1_565 S
C1078 H1090 0.960 . S
C1078 H1091 0.962 . S
C1078 H1092 0.960 . S
C1079 C1076 1.511 . S
C1079 H1093 0.961 . S
C1079 H1094 0.961 . S
C1079 H1095 0.961 . S
C1080 C1081 1.370 . S
C1080 C1082 1.363 . S
C1080 H1096 0.931 . S
C1081 C1080 1.370 . S
C1081 C1085 1.408 . S
C1082 C1080 1.363 . S
C1082 C1083 1.370 . S
C1082 C1086 1.524 . S
C1083 C1075 1.503 1_565 S
C1083 C1082 1.370 . S
C1083 C1084 1.403 . S
C1084 C1083 1.403 . S
C1084 C1085 1.404 . S
C1084 C1087 1.539 . S
C1085 C1081 1.408 . S
C1085 C1084 1.404 . S
C1085 H1097 0.930 . S
C1086 C1082 1.524 . S
C1086 H1098 0.956 . S
C1086 H1099 0.961 . S
C1086 H1100 0.961 . S
C1087 C1084 1.539 . S
C1087 H1101 0.958 . S
C1087 H1102 0.961 . S
C1087 H1103 0.960 1_565 S
H1088 C1072 0.931 . S
H1089 C1077 0.929 . S
H1090 C1078 0.960 . S
H1091 C1078 0.962 . S
H1092 C1078 0.960 . S
H1093 C1079 0.961 . S
H1094 C1079 0.961 . S
H1095 C1079 0.961 . S
H1096 C1080 0.931 . S
H1097 C1085 0.930 . S
H1098 C1086 0.956 . S
H1099 C1086 0.961 . S
H1100 C1086 0.961 . S
H1101 C1087 0.958 . S
H1102 C1087 0.961 . S
H1103 C1087 0.960 1_545 S
C1104 C1105 1.391 . S
C1104 C1106 1.394 . S
C1104 H1120 0.931 . S
C1105 C1104 1.391 . S
C1105 C1109 1.376 . S
C1106 C1104 1.394 . S
C1106 C1107 1.369 . S
C1106 C1110 1.531 . S
C1107 C1106 1.369 . S
C1107 C1108 1.410 . S
C1107 C1115 1.503 . S
C1108 C1107 1.410 . S
C1108 C1109 1.392 . S
C1108 C1111 1.511 . S
C1109 C1105 1.376 . S
C1109 C1108 1.392 . S
C1109 H1121 0.929 . S
C1110 C1106 1.531 . S
C1110 H1122 0.960 . S
C1110 H1123 0.962 . S
C1110 H1124 0.960 . S
C1111 C1108 1.511 . S
C1111 H1125 0.961 . S
C1111 H1126 0.961 . S
C1111 H1127 0.961 . S
C1112 C1113 1.370 . S
C1112 C1114 1.363 . S
C1112 H1128 0.931 . S
C1113 C1112 1.370 . S
C1113 C1117 1.408 . S
C1114 C1112 1.363 . S
C1114 C1115 1.370 . S
C1114 C1118 1.524 . S
C1115 C1107 1.503 . S
C1115 C1114 1.370 . S
C1115 C1116 1.403 . S
C1116 C1115 1.403 . S
C1116 C1117 1.404 . S
C1116 C1119 1.539 . S
C1117 C1113 1.408 . S
C1117 C1116 1.404 . S
C1117 H1129 0.930 . S
C1118 C1114 1.524 . S
C1118 H1130 0.956 . S
C1118 H1131 0.961 . S
C1118 H1132 0.961 . S
C1119 C1116 1.539 . S
C1119 H1133 0.958 . S
C1119 H1134 0.961 . S
C1119 H1135 0.960 . S
H1120 C1104 0.931 . S
H1121 C1109 0.929 . S
H1122 C1110 0.960 . S
H1123 C1110 0.962 . S
H1124 C1110 0.960 . S
H1125 C1111 0.961 . S
H1126 C1111 0.961 . S
H1127 C1111 0.961 . S
H1128 C1112 0.931 . S
H1129 C1117 0.930 . S
H1130 C1118 0.956 . S
H1131 C1118 0.961 . S
H1132 C1118 0.961 . S
H1133 C1119 0.958 . S
H1134 C1119 0.961 . S
H1135 C1119 0.960 . S
C1136 C1137 1.391 . S
C1136 C1138 1.394 . S
C1136 H1152 0.931 . S
C1137 C1136 1.391 . S
C1137 C1141 1.376 . S
C1138 C1136 1.394 . S
C1138 C1139 1.369 . S
C1138 C1142 1.531 . S
C1139 C1138 1.369 . S
C1139 C1140 1.410 . S
C1139 C1147 1.503 1_455 S
C1140 C1139 1.410 . S
C1140 C1141 1.392 . S
C1140 C1143 1.511 . S
C1141 C1137 1.376 . S
C1141 C1140 1.392 . S
C1141 H1153 0.929 . S
C1142 C1138 1.531 . S
C1142 H1154 0.960 . S
C1142 H1155 0.962 . S
C1142 H1156 0.960 . S
C1143 C1140 1.511 . S
C1143 H1157 0.961 . S
C1143 H1158 0.961 1_455 S
C1143 H1159 0.961 . S
C1144 C1145 1.370 . S
C1144 C1146 1.363 . S
C1144 H1160 0.931 . S
C1145 C1144 1.370 . S
C1145 C1149 1.408 . S
C1146 C1144 1.363 . S
C1146 C1147 1.370 . S
C1146 C1150 1.524 1_655 S
C1147 C1139 1.503 1_655 S
C1147 C1146 1.370 . S
C1147 C1148 1.403 . S
C1148 C1147 1.403 . S
C1148 C1149 1.404 . S
C1148 C1151 1.539 . S
C1149 C1145 1.408 . S
C1149 C1148 1.404 . S
C1149 H1161 0.930 . S
C1150 C1146 1.524 1_455 S
C1150 H1162 0.956 . S
C1150 H1163 0.961 . S
C1150 H1164 0.961 . S
C1151 C1148 1.539 . S
C1151 H1165 0.958 . S
C1151 H1166 0.961 . S
C1151 H1167 0.960 . S
H1152 C1136 0.931 . S
H1153 C1141 0.929 . S
H1154 C1142 0.960 . S
H1155 C1142 0.962 . S
H1156 C1142 0.960 . S
H1157 C1143 0.961 . S
H1158 C1143 0.961 1_655 S
H1159 C1143 0.961 . S
H1160 C1144 0.931 . S
H1161 C1149 0.930 . S
H1162 C1150 0.956 . S
H1163 C1150 0.961 . S
H1164 C1150 0.961 . S
H1165 C1151 0.958 . S
H1166 C1151 0.961 . S
H1167 C1151 0.960 . S
C1168 C1169 1.391 . S
C1168 C1170 1.394 . S
C1168 H1184 0.931 . S
C1169 C1168 1.391 . S
C1169 C1173 1.376 . S
C1170 C1168 1.394 . S
C1170 C1171 1.369 . S
C1170 C1174 1.531 . S
C1171 C1170 1.369 . S
C1171 C1172 1.410 . S
C1171 C1179 1.503 1_565 S
C1172 C1171 1.410 . S
C1172 C1173 1.392 . S
C1172 C1175 1.511 . S
C1173 C1169 1.376 . S
C1173 C1172 1.392 . S
C1173 H1185 0.929 . S
C1174 C1170 1.531 . S
C1174 H1186 0.960 . S
C1174 H1187 0.962 . S
C1174 H1188 0.960 . S
C1175 C1172 1.511 . S
C1175 H1189 0.961 . S
C1175 H1190 0.961 1_565 S
C1175 H1191 0.961 1_565 S
C1176 C1177 1.370 . S
C1176 C1178 1.363 . S
C1176 H1192 0.931 . S
C1177 C1176 1.370 . S
C1177 C1181 1.408 . S
C1178 C1176 1.363 . S
C1178 C1179 1.370 . S
C1178 C1182 1.524 1_545 S
C1179 C1171 1.503 1_545 S
C1179 C1178 1.370 . S
C1179 C1180 1.403 . S
C1180 C1179 1.403 . S
C1180 C1181 1.404 . S
C1180 C1183 1.539 . S
C1181 C1177 1.408 . S
C1181 C1180 1.404 . S
C1181 H1193 0.930 . S
C1182 C1178 1.524 1_565 S
C1182 H1194 0.956 . S
C1182 H1195 0.961 . S
C1182 H1196 0.961 1_565 S
C1183 C1180 1.539 . S
C1183 H1197 0.958 . S
C1183 H1198 0.961 . S
C1183 H1199 0.960 . S
H1184 C1168 0.931 . S
H1185 C1173 0.929 . S
H1186 C1174 0.960 . S
H1187 C1174 0.962 . S
H1188 C1174 0.960 . S
H1189 C1175 0.961 . S
H1190 C1175 0.961 1_545 S
H1191 C1175 0.961 1_545 S
H1192 C1176 0.931 . S
H1193 C1181 0.930 . S
H1194 C1182 0.956 . S
H1195 C1182 0.961 . S
H1196 C1182 0.961 1_545 S
H1197 C1183 0.958 . S
H1198 C1183 0.961 . S
H1199 C1183 0.960 . S
C1200 C1201 1.391 . S
C1200 C1202 1.394 . S
C1200 H1216 0.931 . S
C1201 C1200 1.391 . S
C1201 C1205 1.376 . S
C1202 C1200 1.394 . S
C1202 C1203 1.369 . S
C1202 C1206 1.531 . S
C1203 C1202 1.369 . S
C1203 C1204 1.410 . S
C1203 C1211 1.503 . S
C1204 C1203 1.410 . S
C1204 C1205 1.392 . S
C1204 C1207 1.511 . S
C1205 C1201 1.376 . S
C1205 C1204 1.392 . S
C1205 H1217 0.929 . S
C1206 C1202 1.531 . S
C1206 H1218 0.960 . S
C1206 H1219 0.962 . S
C1206 H1220 0.960 . S
C1207 C1204 1.511 . S
C1207 H1221 0.961 . S
C1207 H1222 0.961 . S
C1207 H1223 0.961 . S
C1208 C1209 1.370 . S
C1208 C1210 1.363 . S
C1208 H1224 0.931 . S
C1209 C1208 1.370 . S
C1209 C1213 1.408 . S
C1210 C1208 1.363 . S
C1210 C1211 1.370 . S
C1210 C1214 1.524 . S
C1211 C1203 1.503 . S
C1211 C1210 1.370 . S
C1211 C1212 1.403 . S
C1212 C1211 1.403 . S
C1212 C1213 1.404 . S
C1212 C1215 1.539 . S
C1213 C1209 1.408 . S
C1213 C1212 1.404 . S
C1213 H1225 0.930 . S
C1214 C1210 1.524 . S
C1214 H1226 0.956 . S
C1214 H1227 0.961 . S
C1214 H1228 0.961 . S
C1215 C1212 1.539 . S
C1215 H1229 0.958 . S
C1215 H1230 0.961 . S
C1215 H1231 0.960 . S
H1216 C1200 0.931 . S
H1217 C1205 0.929 . S
H1218 C1206 0.960 . S
H1219 C1206 0.962 . S
H1220 C1206 0.960 . S
H1221 C1207 0.961 . S
H1222 C1207 0.961 . S
H1223 C1207 0.961 . S
H1224 C1208 0.931 . S
H1225 C1213 0.930 . S
H1226 C1214 0.956 . S
H1227 C1214 0.961 . S
H1228 C1214 0.961 . S
H1229 C1215 0.958 . S
H1230 C1215 0.961 . S
H1231 C1215 0.960 . S
C1232 C1233 1.391 . S
C1232 C1234 1.394 . S
C1232 H1248 0.931 . S
C1233 C1232 1.391 . S
C1233 C1237 1.376 . S
C1234 C1232 1.394 . S
C1234 C1235 1.369 . S
C1234 C1238 1.531 . S
C1235 C1234 1.369 . S
C1235 C1236 1.410 . S
C1235 C1243 1.503 1_455 S
C1236 C1235 1.410 . S
C1236 C1237 1.392 . S
C1236 C1239 1.511 . S
C1237 C1233 1.376 . S
C1237 C1236 1.392 . S
C1237 H1249 0.929 . S
C1238 C1234 1.531 . S
C1238 H1250 0.960 1_455 S
C1238 H1251 0.962 1_455 S
C1238 H1252 0.960 . S
C1239 C1236 1.511 . S
C1239 H1253 0.961 . S
C1239 H1254 0.961 1_455 S
C1239 H1255 0.961 . S
C1240 C1241 1.370 . S
C1240 C1242 1.363 . S
C1240 H1256 0.931 . S
C1241 C1240 1.370 . S
C1241 C1245 1.408 . S
C1242 C1240 1.363 . S
C1242 C1243 1.370 . S
C1242 C1246 1.524 . S
C1243 C1235 1.503 1_655 S
C1243 C1242 1.370 . S
C1243 C1244 1.403 . S
C1244 C1243 1.403 . S
C1244 C1245 1.404 . S
C1244 C1247 1.539 . S
C1245 C1241 1.408 . S
C1245 C1244 1.404 . S
C1245 H1257 0.930 . S
C1246 C1242 1.524 . S
C1246 H1258 0.956 . S
C1246 H1259 0.961 . S
C1246 H1260 0.961 . S
C1247 C1244 1.539 . S
C1247 H1261 0.958 1_655 S
C1247 H1262 0.961 . S
C1247 H1263 0.960 1_655 S
H1248 C1232 0.931 . S
H1249 C1237 0.929 . S
H1250 C1238 0.960 1_655 S
H1251 C1238 0.962 1_655 S
H1252 C1238 0.960 . S
H1253 C1239 0.961 . S
H1254 C1239 0.961 1_655 S
H1255 C1239 0.961 . S
H1256 C1240 0.931 . S
H1257 C1245 0.930 . S
H1258 C1246 0.956 . S
H1259 C1246 0.961 . S
H1260 C1246 0.961 . S
H1261 C1247 0.958 1_455 S
H1262 C1247 0.961 . S
H1263 C1247 0.960 1_455 S
C1264 C1265 1.391 . S
C1264 C1266 1.394 . S
C1264 H1280 0.931 . S
C1265 C1264 1.391 . S
C1265 C1269 1.376 . S
C1266 C1264 1.394 . S
C1266 C1267 1.369 . S
C1266 C1270 1.531 . S
C1267 C1266 1.369 . S
C1267 C1268 1.410 . S
C1267 C1275 1.503 1_565 S
C1268 C1267 1.410 . S
C1268 C1269 1.392 . S
C1268 C1271 1.511 1_565 S
C1269 C1265 1.376 . S
C1269 C1268 1.392 . S
C1269 H1281 0.929 . S
C1270 C1266 1.531 . S
C1270 H1282 0.960 . S
C1270 H1283 0.962 . S
C1270 H1284 0.960 . S
C1271 C1268 1.511 1_545 S
C1271 H1285 0.961 . S
C1271 H1286 0.961 . S
C1271 H1287 0.961 . S
C1272 C1273 1.370 . S
C1272 C1274 1.363 . S
C1272 H1288 0.931 . S
C1273 C1272 1.370 . S
C1273 C1277 1.408 . S
C1274 C1272 1.363 . S
C1274 C1275 1.370 . S
C1274 C1278 1.524 . S
C1275 C1267 1.503 1_545 S
C1275 C1274 1.370 . S
C1275 C1276 1.403 . S
C1276 C1275 1.403 . S
C1276 C1277 1.404 . S
C1276 C1279 1.539 . S
C1277 C1273 1.408 . S
C1277 C1276 1.404 . S
C1277 H1289 0.930 . S
C1278 C1274 1.524 . S
C1278 H1290 0.956 . S
C1278 H1291 0.961 . S
C1278 H1292 0.961 . S
C1279 C1276 1.539 . S
C1279 H1293 0.958 . S
C1279 H1294 0.961 . S
C1279 H1295 0.956 1_545 S
H1280 C1264 0.931 . S
H1281 C1269 0.929 . S
H1282 C1270 0.960 . S
H1283 C1270 0.962 . S
H1284 C1270 0.960 . S
H1285 C1271 0.961 . S
H1286 C1271 0.961 . S
H1287 C1271 0.961 . S
H1288 C1272 0.931 . S
H1289 C1277 0.930 . S
H1290 C1278 0.956 . S
H1291 C1278 0.961 . S
H1292 C1278 0.961 . S
H1293 C1279 0.958 . S
H1294 C1279 0.961 . S
H1295 C1279 0.956 1_565 S
C1296 C1297 1.391 . S
C1296 C1298 1.394 . S
C1296 H1312 0.931 . S
C1297 C1296 1.391 . S
C1297 C1301 1.376 . S
C1298 C1296 1.394 . S
C1298 C1299 1.369 . S
C1298 C1302 1.531 . S
C1299 C1298 1.369 . S
C1299 C1300 1.410 . S
C1299 C1307 1.503 . S
C1300 C1299 1.410 . S
C1300 C1301 1.392 . S
C1300 C1303 1.511 . S
C1301 C1297 1.376 . S
C1301 C1300 1.392 . S
C1301 H1313 0.929 . S
C1302 C1298 1.531 . S
C1302 H1314 0.960 . S
C1302 H1315 0.962 . S
C1302 H1316 0.960 . S
C1303 C1300 1.511 . S
C1303 H1317 0.961 . S
C1303 H1318 0.961 . S
C1303 H1319 0.961 . S
C1304 C1305 1.370 . S
C1304 C1306 1.363 . S
C1304 H1320 0.931 . S
C1305 C1304 1.370 . S
C1305 C1309 1.408 . S
C1306 C1304 1.363 . S
C1306 C1307 1.370 . S
C1306 C1310 1.524 . S
C1307 C1299 1.503 . S
C1307 C1306 1.370 . S
C1307 C1308 1.403 . S
C1308 C1307 1.403 . S
C1308 C1309 1.404 . S
C1308 C1311 1.539 . S
C1309 C1305 1.408 . S
C1309 C1308 1.404 . S
C1309 H1321 0.930 . S
C1310 C1306 1.524 . S
C1310 H1322 0.956 . S
C1310 H1323 0.961 . S
C1310 H1324 0.961 . S
C1311 C1308 1.539 . S
C1311 H1325 0.958 . S
C1311 H1326 0.961 . S
C1311 H1327 0.960 . S
H1312 C1296 0.931 . S
H1313 C1301 0.929 . S
H1314 C1302 0.960 . S
H1315 C1302 0.962 . S
H1316 C1302 0.960 . S
H1317 C1303 0.961 . S
H1318 C1303 0.961 . S
H1319 C1303 0.961 . S
H1320 C1304 0.931 . S
H1321 C1309 0.930 . S
H1322 C1310 0.956 . S
H1323 C1310 0.961 . S
H1324 C1310 0.961 . S
H1325 C1311 0.958 . S
H1326 C1311 0.961 . S
H1327 C1311 0.960 . S
C1328 C1329 1.391 . S
C1328 C1330 1.394 . S
C1328 H1344 0.931 . S
C1329 C1328 1.391 . S
C1329 C1333 1.376 . S
C1330 C1328 1.394 . S
C1330 C1331 1.369 . S
C1330 C1334 1.531 . S
C1331 C1330 1.369 . S
C1331 C1332 1.410 . S
C1331 C1339 1.503 1_455 S
C1332 C1331 1.410 . S
C1332 C1333 1.392 . S
C1332 C1335 1.511 1_455 S
C1333 C1329 1.376 . S
C1333 C1332 1.392 . S
C1333 H1345 0.929 . S
C1334 C1330 1.531 . S
C1334 H1346 0.960 . S
C1334 H1347 0.962 . S
C1334 H1348 0.960 . S
C1335 C1332 1.511 1_655 S
C1335 H1349 0.961 . S
C1335 H1350 0.961 . S
C1335 H1351 0.961 . S
C1336 C1337 1.370 . S
C1336 C1338 1.363 . S
C1336 H1352 0.931 . S
C1337 C1336 1.370 . S
C1337 C1341 1.408 . S
C1338 C1336 1.363 . S
C1338 C1339 1.370 . S
C1338 C1342 1.524 . S
C1339 C1331 1.503 1_655 S
C1339 C1338 1.370 . S
C1339 C1340 1.403 . S
C1340 C1339 1.403 . S
C1340 C1341 1.404 . S
C1340 C1343 1.539 . S
C1341 C1337 1.408 . S
C1341 C1340 1.404 . S
C1341 H1353 0.930 . S
C1342 C1338 1.524 . S
C1342 H1354 0.956 . S
C1342 H1355 0.961 . S
C1342 H1356 0.961 . S
C1343 C1340 1.539 . S
C1343 H1357 0.958 . S
C1343 H1358 0.961 . S
C1343 H1359 0.960 . S
H1344 C1328 0.931 . S
H1345 C1333 0.929 . S
H1346 C1334 0.960 . S
H1347 C1334 0.962 . S
H1348 C1334 0.960 . S
H1349 C1335 0.961 . S
H1350 C1335 0.961 . S
H1351 C1335 0.961 . S
H1352 C1336 0.931 . S
H1353 C1341 0.930 . S
H1354 C1342 0.956 . S
H1355 C1342 0.961 . S
H1356 C1342 0.961 . S
H1357 C1343 0.958 . S
H1358 C1343 0.961 . S
H1359 C1343 0.960 . S
C1360 C1361 1.391 . S
C1360 C1362 1.394 . S
C1360 H1376 0.931 . S
C1361 C1360 1.391 . S
C1361 C1365 1.376 . S
C1362 C1360 1.394 . S
C1362 C1363 1.369 . S
C1362 C1366 1.531 . S
C1363 C1362 1.369 . S
C1363 C1364 1.410 . S
C1363 C1371 1.503 1_545 S
C1364 C1363 1.410 . S
C1364 C1365 1.392 . S
C1364 C1367 1.511 . S
C1365 C1361 1.376 . S
C1365 C1364 1.392 . S
C1365 H1377 0.929 . S
C1366 C1362 1.531 . S
C1366 H1378 0.960 . S
C1366 H1379 0.962 . S
C1366 H1380 0.960 . S
C1367 C1364 1.511 . S
C1367 H1381 0.961 . S
C1367 H1382 0.961 1_545 S
C1367 H1383 0.961 . S
C1368 C1369 1.370 . S
C1368 C1370 1.363 . S
C1368 H1384 0.931 . S
C1369 C1368 1.370 . S
C1369 C1373 1.408 . S
C1370 C1368 1.363 . S
C1370 C1371 1.370 . S
C1370 C1374 1.524 . S
C1371 C1363 1.503 1_565 S
C1371 C1370 1.370 . S
C1371 C1372 1.403 . S
C1372 C1371 1.403 . S
C1372 C1373 1.404 . S
C1372 C1375 1.539 1_565 S
C1373 C1369 1.408 . S
C1373 C1372 1.404 . S
C1373 H1385 0.930 . S
C1374 C1370 1.524 . S
C1374 H1386 0.956 . S
C1374 H1387 0.961 . S
C1374 H1388 0.961 . S
C1375 C1372 1.539 1_545 S
C1375 H1389 0.958 . S
C1375 H1390 0.961 . S
C1375 H1391 0.960 . S
H1376 C1360 0.931 . S
H1377 C1365 0.929 . S
H1378 C1366 0.960 . S
H1379 C1366 0.962 . S
H1380 C1366 0.960 . S
H1381 C1367 0.961 . S
H1382 C1367 0.961 1_565 S
H1383 C1367 0.961 . S
H1384 C1368 0.931 . S
H1385 C1373 0.930 . S
H1386 C1374 0.956 . S
H1387 C1374 0.961 . S
H1388 C1374 0.961 . S
H1389 C1375 0.958 . S
H1390 C1375 0.961 . S
H1391 C1375 0.960 . S
C1392 C1393 1.391 . S
C1392 C1394 1.394 . S
C1392 H1408 0.931 . S
C1393 C1392 1.391 . S
C1393 C1397 1.376 . S
C1394 C1392 1.394 . S
C1394 C1395 1.369 . S
C1394 C1398 1.531 . S
C1395 C1394 1.369 . S
C1395 C1396 1.410 . S
C1395 C1403 1.503 . S
C1396 C1395 1.410 . S
C1396 C1397 1.392 . S
C1396 C1399 1.511 . S
C1397 C1393 1.376 . S
C1397 C1396 1.392 . S
C1397 H1409 0.929 . S
C1398 C1394 1.531 . S
C1398 H1410 0.960 . S
C1398 H1411 0.962 . S
C1398 H1412 0.960 . S
C1399 C1396 1.511 . S
C1399 H1413 0.961 . S
C1399 H1414 0.961 . S
C1399 H1415 0.961 . S
C1400 C1401 1.370 . S
C1400 C1402 1.363 . S
C1400 H1416 0.931 . S
C1401 C1400 1.370 . S
C1401 C1405 1.408 . S
C1402 C1400 1.363 . S
C1402 C1403 1.370 . S
C1402 C1406 1.524 . S
C1403 C1395 1.503 . S
C1403 C1402 1.370 . S
C1403 C1404 1.403 . S
C1404 C1403 1.403 . S
C1404 C1405 1.404 . S
C1404 C1407 1.539 . S
C1405 C1401 1.408 . S
C1405 C1404 1.404 . S
C1405 H1417 0.930 . S
C1406 C1402 1.524 . S
C1406 H1418 0.956 . S
C1406 H1419 0.961 . S
C1406 H1420 0.961 . S
C1407 C1404 1.539 . S
C1407 H1421 0.958 . S
C1407 H1422 0.961 . S
C1407 H1423 0.960 . S
H1408 C1392 0.931 . S
H1409 C1397 0.929 . S
H1410 C1398 0.960 . S
H1411 C1398 0.962 . S
H1412 C1398 0.960 . S
H1413 C1399 0.961 . S
H1414 C1399 0.961 . S
H1415 C1399 0.961 . S
H1416 C1400 0.931 . S
H1417 C1405 0.930 . S
H1418 C1406 0.956 . S
H1419 C1406 0.961 . S
H1420 C1406 0.961 . S
H1421 C1407 0.958 . S
H1422 C1407 0.961 . S
H1423 C1407 0.960 . S
C1424 C1425 1.391 . S
C1424 C1426 1.394 . S
C1424 H1440 0.931 . S
C1425 C1424 1.391 . S
C1425 C1429 1.376 . S
C1426 C1424 1.394 . S
C1426 C1427 1.369 . S
C1426 C1430 1.531 . S
C1427 C1426 1.369 . S
C1427 C1428 1.410 . S
C1427 C1435 1.503 . S
C1428 C1427 1.410 . S
C1428 C1429 1.392 . S
C1428 C1431 1.511 . S
C1429 C1425 1.376 . S
C1429 C1428 1.392 . S
C1429 H1441 0.929 . S
C1430 C1426 1.531 . S
C1430 H1442 0.960 . S
C1430 H1443 0.962 . S
C1430 H1444 0.960 . S
C1431 C1428 1.511 . S
C1431 H1445 0.961 . S
C1431 H1446 0.961 . S
C1431 H1447 0.961 . S
C1432 C1433 1.370 . S
C1432 C1434 1.363 . S
C1432 H1448 0.931 . S
C1433 C1432 1.370 . S
C1433 C1437 1.408 . S
C1434 C1432 1.363 . S
C1434 C1435 1.370 . S
C1434 C1438 1.524 . S
C1435 C1427 1.503 . S
C1435 C1434 1.370 . S
C1435 C1436 1.403 . S
C1436 C1435 1.403 . S
C1436 C1437 1.404 . S
C1436 C1439 1.539 . S
C1437 C1433 1.408 . S
C1437 C1436 1.404 . S
C1437 H1449 0.930 . S
C1438 C1434 1.524 . S
C1438 H1450 0.956 . S
C1438 H1451 0.961 . S
C1438 H1452 0.961 . S
C1439 C1436 1.539 . S
C1439 H1453 0.958 . S
C1439 H1454 0.961 . S
C1439 H1455 0.960 . S
H1440 C1424 0.931 . S
H1441 C1429 0.929 . S
H1442 C1430 0.960 . S
H1443 C1430 0.962 . S
H1444 C1430 0.960 . S
H1445 C1431 0.961 . S
H1446 C1431 0.961 . S
H1447 C1431 0.961 . S
H1448 C1432 0.931 . S
H1449 C1437 0.930 . S
H1450 C1438 0.956 . S
H1451 C1438 0.961 . S
H1452 C1438 0.961 . S
H1453 C1439 0.958 . S
H1454 C1439 0.961 . S
H1455 C1439 0.960 . S
C1456 C1457 1.391 . S
C1456 C1458 1.394 . S
C1456 H1472 0.931 . S
C1457 C1456 1.391 . S
C1457 C1461 1.376 . S
C1458 C1456 1.394 . S
C1458 C1459 1.369 . S
C1458 C1462 1.531 . S
C1459 C1458 1.369 . S
C1459 C1460 1.410 . S
C1459 C1467 1.503 . S
C1460 C1459 1.410 . S
C1460 C1461 1.392 . S
C1460 C1463 1.511 . S
C1461 C1457 1.376 . S
C1461 C1460 1.392 . S
C1461 H1473 0.929 . S
C1462 C1458 1.531 . S
C1462 H1474 0.960 . S
C1462 H1475 0.962 . S
C1462 H1476 0.960 . S
C1463 C1460 1.511 . S
C1463 H1477 0.961 . S
C1463 H1478 0.961 . S
C1463 H1479 0.961 . S
C1464 C1465 1.370 . S
C1464 C1466 1.363 . S
C1464 H1480 0.931 . S
C1465 C1464 1.370 . S
C1465 C1469 1.408 . S
C1466 C1464 1.363 . S
C1466 C1467 1.370 . S
C1466 C1470 1.524 . S
C1467 C1459 1.503 . S
C1467 C1466 1.370 . S
C1467 C1468 1.403 . S
C1468 C1467 1.403 . S
C1468 C1469 1.404 . S
C1468 C1471 1.539 . S
C1469 C1465 1.408 . S
C1469 C1468 1.404 . S
C1469 H1481 0.930 . S
C1470 C1466 1.524 . S
C1470 H1482 0.956 . S
C1470 H1483 0.961 . S
C1470 H1484 0.961 . S
C1471 C1468 1.539 . S
C1471 H1485 0.958 . S
C1471 H1486 0.961 . S
C1471 H1487 0.960 . S
H1472 C1456 0.931 . S
H1473 C1461 0.929 . S
H1474 C1462 0.960 . S
H1475 C1462 0.962 . S
H1476 C1462 0.960 . S
H1477 C1463 0.961 . S
H1478 C1463 0.961 . S
H1479 C1463 0.961 . S
H1480 C1464 0.931 . S
H1481 C1469 0.930 . S
H1482 C1470 0.956 . S
H1483 C1470 0.961 . S
H1484 C1470 0.961 . S
H1485 C1471 0.958 . S
H1486 C1471 0.961 . S
H1487 C1471 0.960 . S
C1488 C1489 1.391 . S
C1488 C1490 1.394 . S
C1488 H1504 0.931 . S
C1489 C1488 1.391 . S
C1489 C1493 1.376 . S
C1490 C1488 1.394 . S
C1490 C1491 1.369 . S
C1490 C1494 1.531 . S
C1491 C1490 1.369 . S
C1491 C1492 1.410 . S
C1491 C1499 1.503 . S
C1492 C1491 1.410 . S
C1492 C1493 1.392 . S
C1492 C1495 1.511 . S
C1493 C1489 1.376 . S
C1493 C1492 1.392 . S
C1493 H1505 0.929 . S
C1494 C1490 1.531 . S
C1494 H1506 0.960 . S
C1494 H1507 0.962 . S
C1494 H1508 0.960 . S
C1495 C1492 1.511 . S
C1495 H1509 0.961 . S
C1495 H1510 0.961 . S
C1495 H1511 0.961 . S
C1496 C1497 1.370 . S
C1496 C1498 1.363 . S
C1496 H1512 0.931 . S
C1497 C1496 1.370 . S
C1497 C1501 1.408 . S
C1498 C1496 1.363 . S
C1498 C1499 1.370 . S
C1498 C1502 1.524 . S
C1499 C1491 1.503 . S
C1499 C1498 1.370 . S
C1499 C1500 1.403 . S
C1500 C1499 1.403 . S
C1500 C1501 1.404 . S
C1500 C1503 1.539 . S
C1501 C1497 1.408 . S
C1501 C1500 1.404 . S
C1501 H1513 0.930 . S
C1502 C1498 1.524 . S
C1502 H1514 0.956 . S
C1502 H1515 0.961 . S
C1502 H1516 0.961 . S
C1503 C1500 1.539 . S
C1503 H1517 0.958 . S
C1503 H1518 0.961 . S
C1503 H1519 0.960 . S
H1504 C1488 0.931 . S
H1505 C1493 0.929 . S
H1506 C1494 0.960 . S
H1507 C1494 0.962 . S
H1508 C1494 0.960 . S
H1509 C1495 0.961 . S
H1510 C1495 0.961 . S
H1511 C1495 0.961 . S
H1512 C1496 0.931 . S
H1513 C1501 0.930 . S
H1514 C1502 0.956 . S
H1515 C1502 0.961 . S
H1516 C1502 0.961 . S
H1517 C1503 0.958 . S
H1518 C1503 0.961 . S
H1519 C1503 0.960 . S
C1520 C1521 1.391 . S
C1520 C1522 1.394 . S
C1520 H1536 0.931 . S
C1521 C1520 1.391 . S
C1521 C1525 1.376 . S
C1522 C1520 1.394 . S
C1522 C1523 1.369 . S
C1522 C1526 1.531 . S
C1523 C1522 1.369 . S
C1523 C1524 1.410 . S
C1523 C1531 1.503 . S
C1524 C1523 1.410 . S
C1524 C1525 1.392 . S
C1524 C1527 1.511 . S
C1525 C1521 1.376 . S
C1525 C1524 1.392 . S
C1525 H1537 0.929 . S
C1526 C1522 1.531 . S
C1526 H1538 0.960 . S
C1526 H1539 0.962 . S
C1526 H1540 0.960 . S
C1527 C1524 1.511 . S
C1527 H1541 0.961 . S
C1527 H1542 0.961 . S
C1527 H1543 0.961 . S
C1528 C1529 1.370 . S
C1528 C1530 1.363 . S
C1528 H1544 0.931 . S
C1529 C1528 1.370 . S
C1529 C1533 1.408 . S
C1530 C1528 1.363 . S
C1530 C1531 1.370 . S
C1530 C1534 1.524 . S
C1531 C1523 1.503 . S
C1531 C1530 1.370 . S
C1531 C1532 1.403 . S
C1532 C1531 1.403 . S
C1532 C1533 1.404 . S
C1532 C1535 1.539 . S
C1533 C1529 1.408 . S
C1533 C1532 1.404 . S
C1533 H1545 0.930 . S
C1534 C1530 1.524 . S
C1534 H1546 0.956 . S
C1534 H1547 0.961 . S
C1534 H1548 0.961 . S
C1535 C1532 1.539 . S
C1535 H1549 0.958 . S
C1535 H1550 0.961 . S
C1535 H1551 0.960 . S
H1536 C1520 0.931 . S
H1537 C1525 0.929 . S
H1538 C1526 0.960 . S
H1539 C1526 0.962 . S
H1540 C1526 0.960 . S
H1541 C1527 0.961 . S
H1542 C1527 0.961 . S
H1543 C1527 0.961 . S
H1544 C1528 0.931 . S
H1545 C1533 0.930 . S
H1546 C1534 0.956 . S
H1547 C1534 0.961 . S
H1548 C1534 0.961 . S
H1549 C1535 0.958 . S
H1550 C1535 0.961 . S
H1551 C1535 0.960 . S
C1552 C1553 1.391 . S
C1552 C1554 1.394 . S
C1552 H1568 0.931 . S
C1553 C1552 1.391 . S
C1553 C1557 1.376 . S
C1554 C1552 1.394 . S
C1554 C1555 1.369 . S
C1554 C1558 1.531 . S
C1555 C1554 1.369 . S
C1555 C1556 1.410 . S
C1555 C1563 1.503 . S
C1556 C1555 1.410 . S
C1556 C1557 1.392 . S
C1556 C1559 1.511 . S
C1557 C1553 1.376 . S
C1557 C1556 1.392 . S
C1557 H1569 0.929 . S
C1558 C1554 1.531 . S
C1558 H1570 0.960 . S
C1558 H1571 0.962 . S
C1558 H1572 0.960 . S
C1559 C1556 1.511 . S
C1559 H1573 0.961 . S
C1559 H1574 0.961 . S
C1559 H1575 0.961 . S
C1560 C1561 1.370 . S
C1560 C1562 1.363 . S
C1560 H1576 0.931 . S
C1561 C1560 1.370 . S
C1561 C1565 1.408 . S
C1562 C1560 1.363 . S
C1562 C1563 1.370 . S
C1562 C1566 1.524 . S
C1563 C1555 1.503 . S
C1563 C1562 1.370 . S
C1563 C1564 1.403 . S
C1564 C1563 1.403 . S
C1564 C1565 1.404 . S
C1564 C1567 1.539 . S
C1565 C1561 1.408 . S
C1565 C1564 1.404 . S
C1565 H1577 0.930 . S
C1566 C1562 1.524 . S
C1566 H1578 0.956 . S
C1566 H1579 0.961 . S
C1566 H1580 0.961 . S
C1567 C1564 1.539 . S
C1567 H1581 0.958 . S
C1567 H1582 0.961 . S
C1567 H1583 0.960 . S
H1568 C1552 0.931 . S
H1569 C1557 0.929 . S
H1570 C1558 0.960 . S
H1571 C1558 0.962 . S
H1572 C1558 0.960 . S
H1573 C1559 0.961 . S
H1574 C1559 0.961 . S
H1575 C1559 0.961 . S
H1576 C1560 0.931 . S
H1577 C1565 0.930 . S
H1578 C1566 0.956 . S
H1579 C1566 0.961 . S
H1580 C1566 0.961 . S
H1581 C1567 0.958 . S
H1582 C1567 0.961 . S
H1583 C1567 0.960 . S
C1584 C1585 1.391 . S
C1584 C1586 1.394 . S
C1584 H1600 0.931 . S
C1585 C1584 1.391 . S
C1585 C1589 1.376 . S
C1586 C1584 1.394 . S
C1586 C1587 1.369 . S
C1586 C1590 1.531 1_565 S
C1587 C1586 1.369 . S
C1587 C1588 1.410 1_556 S
C1587 C1595 1.503 1_566 S
C1588 C1587 1.410 1_554 S
C1588 C1589 1.392 1_554 S
C1588 C1591 1.511 . S
C1589 C1585 1.376 . S
C1589 C1588 1.392 1_556 S
C1589 H1601 0.929 . S
C1590 C1586 1.531 1_545 S
C1590 H1602 0.960 . S
C1590 H1603 0.962 . S
C1590 H1604 0.960 . S
C1591 C1588 1.511 . S
C1591 H1605 0.961 . S
C1591 H1606 0.961 . S
C1591 H1607 0.961 . S
C1592 C1593 1.370 . S
C1592 C1594 1.363 . S
C1592 H1608 0.931 . S
C1593 C1592 1.370 . S
C1593 C1597 1.408 . S
C1594 C1592 1.363 . S
C1594 C1595 1.370 . S
C1594 C1598 1.524 1_554 S
C1595 C1587 1.503 1_544 S
C1595 C1594 1.370 . S
C1595 C1596 1.403 . S
C1596 C1595 1.403 . S
C1596 C1597 1.404 . S
C1596 C1599 1.539 1_545 S
C1597 C1593 1.408 . S
C1597 C1596 1.404 . S
C1597 H1609 0.930 . S
C1598 C1594 1.524 1_556 S
C1598 H1610 0.956 . S
C1598 H1611 0.961 . S
C1598 H1612 0.961 . S
C1599 C1596 1.539 1_565 S
C1599 H1613 0.948 1_565 S
C1599 H1614 0.961 . S
C1599 H1615 0.960 . S
H1600 C1584 0.931 . S
H1601 C1589 0.929 . S
H1602 C1590 0.960 . S
H1603 C1590 0.962 . S
H1604 C1590 0.960 . S
H1605 C1591 0.961 . S
H1606 C1591 0.961 . S
H1607 C1591 0.961 . S
H1608 C1592 0.931 . S
H1609 C1597 0.930 . S
H1610 C1598 0.956 . S
H1611 C1598 0.961 . S
H1612 C1598 0.961 . S
H1613 C1599 0.948 1_545 S
H1614 C1599 0.961 . S
H1615 C1599 0.960 . S
C1616 C1617 1.391 . S
C1616 C1618 1.394 . S
C1616 H1632 0.931 . S
C1617 C1616 1.391 . S
C1617 C1621 1.376 . S
C1618 C1616 1.394 . S
C1618 C1619 1.369 . S
C1618 C1622 1.531 . S
C1619 C1618 1.369 . S
C1619 C1620 1.410 . S
C1619 C1627 1.503 . S
C1620 C1619 1.410 . S
C1620 C1621 1.392 . S
C1620 C1623 1.511 . S
C1621 C1617 1.376 . S
C1621 C1620 1.392 . S
C1621 H1633 0.929 . S
C1622 C1618 1.531 . S
C1622 H1634 0.960 . S
C1622 H1635 0.962 . S
C1622 H1636 0.960 . S
C1623 C1620 1.511 . S
C1623 H1637 0.961 . S
C1623 H1638 0.961 . S
C1623 H1639 0.961 . S
C1624 C1625 1.370 . S
C1624 C1626 1.363 . S
C1624 H1640 0.931 . S
C1625 C1624 1.370 . S
C1625 C1629 1.408 . S
C1626 C1624 1.363 . S
C1626 C1627 1.370 . S
C1626 C1630 1.524 . S
C1627 C1619 1.503 . S
C1627 C1626 1.370 . S
C1627 C1628 1.403 . S
C1628 C1627 1.403 . S
C1628 C1629 1.404 . S
C1628 C1631 1.539 . S
C1629 C1625 1.408 . S
C1629 C1628 1.404 . S
C1629 H1641 0.930 . S
C1630 C1626 1.524 . S
C1630 H1642 0.956 . S
C1630 H1643 0.961 . S
C1630 H1644 0.961 . S
C1631 C1628 1.539 . S
C1631 H1645 0.958 . S
C1631 H1646 0.961 . S
C1631 H1647 0.960 . S
H1632 C1616 0.931 . S
H1633 C1621 0.929 . S
H1634 C1622 0.960 . S
H1635 C1622 0.962 . S
H1636 C1622 0.960 . S
H1637 C1623 0.961 . S
H1638 C1623 0.961 . S
H1639 C1623 0.961 . S
H1640 C1624 0.931 . S
H1641 C1629 0.930 . S
H1642 C1630 0.956 . S
H1643 C1630 0.961 . S
H1644 C1630 0.961 . S
H1645 C1631 0.958 . S
H1646 C1631 0.961 . S
H1647 C1631 0.960 . S
C1648 C1649 1.391 . S
C1648 C1650 1.394 . S
C1648 H1664 0.931 . S
C1649 C1648 1.391 . S
C1649 C1653 1.376 . S
C1650 C1648 1.394 . S
C1650 C1651 1.369 . S
C1650 C1654 1.531 1_455 S
C1651 C1650 1.369 . S
C1651 C1652 1.410 . S
C1651 C1659 1.503 1_456 S
C1652 C1651 1.410 . S
C1652 C1653 1.392 . S
C1652 C1655 1.511 1_556 S
C1653 C1649 1.376 . S
C1653 C1652 1.392 . S
C1653 H1665 0.929 . S
C1654 C1650 1.531 1_655 S
C1654 H1666 0.960 . S
C1654 H1667 0.962 . S
C1654 H1668 0.960 . S
C1655 C1652 1.511 1_554 S
C1655 H1669 0.961 . S
C1655 H1670 0.961 . S
C1655 H1671 0.961 . S
C1656 C1657 1.370 . S
C1656 C1658 1.363 . S
C1656 H1672 0.931 . S
C1657 C1656 1.370 . S
C1657 C1661 1.408 . S
C1658 C1656 1.363 . S
C1658 C1659 1.370 . S
C1658 C1662 1.524 1_655 S
C1659 C1651 1.503 1_654 S
C1659 C1658 1.370 . S
C1659 C1660 1.403 . S
C1660 C1659 1.403 . S
C1660 C1661 1.404 . S
C1660 C1663 1.539 1_554 S
C1661 C1657 1.408 . S
C1661 C1660 1.404 . S
C1661 H1673 0.930 . S
C1662 C1658 1.524 1_455 S
C1662 H1674 0.956 . S
C1662 H1675 0.961 . S
C1662 H1676 0.961 1_455 S
C1663 C1660 1.539 1_556 S
C1663 H1677 0.958 . S
C1663 H1678 0.961 1_556 S
C1663 H1679 0.960 . S
H1664 C1648 0.931 . S
H1665 C1653 0.929 . S
H1666 C1654 0.960 . S
H1667 C1654 0.962 . S
H1668 C1654 0.960 . S
H1669 C1655 0.961 . S
H1670 C1655 0.961 . S
H1671 C1655 0.961 . S
H1672 C1656 0.931 . S
H1673 C1661 0.930 . S
H1674 C1662 0.956 . S
H1675 C1662 0.961 . S
H1676 C1662 0.961 1_655 S
H1677 C1663 0.958 . S
H1678 C1663 0.961 1_554 S
H1679 C1663 0.960 . S
C1680 C1681 1.391 . S
C1680 C1682 1.394 . S
C1680 H1696 0.931 . S
C1681 C1680 1.391 . S
C1681 C1685 1.376 . S
C1682 C1680 1.394 . S
C1682 C1683 1.369 . S
C1682 C1686 1.531 . S
C1683 C1682 1.369 . S
C1683 C1684 1.410 . S
C1683 C1691 1.503 1_545 S
C1684 C1683 1.410 . S
C1684 C1685 1.392 . S
C1684 C1687 1.511 . S
C1685 C1681 1.376 . S
C1685 C1684 1.392 . S
C1685 H1697 0.929 . S
C1686 C1682 1.531 . S
C1686 H1698 0.960 . S
C1686 H1699 0.962 . S
C1686 H1700 0.960 . S
C1687 C1684 1.511 . S
C1687 H1701 0.961 . S
C1687 H1702 0.961 1_545 S
C1687 H1703 0.961 . S
C1688 C1689 1.370 . S
C1688 C1690 1.363 . S
C1688 H1704 0.931 . S
C1689 C1688 1.370 . S
C1689 C1693 1.408 . S
C1690 C1688 1.363 . S
C1690 C1691 1.370 . S
C1690 C1694 1.524 . S
C1691 C1683 1.503 1_565 S
C1691 C1690 1.370 . S
C1691 C1692 1.403 . S
C1692 C1691 1.403 . S
C1692 C1693 1.404 . S
C1692 C1695 1.539 1_565 S
C1693 C1689 1.408 . S
C1693 C1692 1.404 . S
C1693 H1705 0.930 . S
C1694 C1690 1.524 . S
C1694 H1706 0.956 . S
C1694 H1707 0.961 . S
C1694 H1708 0.961 . S
C1695 C1692 1.539 1_545 S
C1695 H1709 0.958 . S
C1695 H1710 0.961 . S
C1695 H1711 0.960 . S
H1696 C1680 0.931 . S
H1697 C1685 0.929 . S
H1698 C1686 0.960 . S
H1699 C1686 0.962 . S
H1700 C1686 0.960 . S
H1701 C1687 0.961 . S
H1702 C1687 0.961 1_565 S
H1703 C1687 0.961 . S
H1704 C1688 0.931 . S
H1705 C1693 0.930 . S
H1706 C1694 0.956 . S
H1707 C1694 0.961 . S
H1708 C1694 0.961 . S
H1709 C1695 0.958 . S
H1710 C1695 0.961 . S
H1711 C1695 0.960 . S
C1712 C1713 1.391 . S
C1712 C1714 1.394 1_554 S
C1712 H1728 0.931 . S
C1713 C1712 1.391 . S
C1713 C1717 1.376 . S
C1714 C1712 1.394 1_556 S
C1714 C1715 1.369 1_556 S
C1714 C1718 1.531 . S
C1715 C1714 1.369 1_554 S
C1715 C1716 1.410 . S
C1715 C1723 1.503 1_554 S
C1716 C1715 1.410 . S
C1716 C1717 1.392 . S
C1716 C1719 1.511 . S
C1717 C1713 1.376 . S
C1717 C1716 1.392 . S
C1717 H1729 0.929 . S
C1718 C1714 1.531 . S
C1718 H1730 0.960 . S
C1718 H1731 0.962 . S
C1718 H1732 0.960 . S
C1719 C1716 1.511 . S
C1719 H1733 0.961 . S
C1719 H1734 0.961 . S
C1719 H1735 0.961 . S
C1720 C1721 1.370 . S
C1720 C1722 1.363 . S
C1720 H1736 0.931 . S
C1721 C1720 1.370 . S
C1721 C1725 1.408 . S
C1722 C1720 1.363 . S
C1722 C1723 1.370 . S
C1722 C1726 1.524 1_556 S
C1723 C1715 1.503 1_556 S
C1723 C1722 1.370 . S
C1723 C1724 1.403 . S
C1724 C1723 1.403 . S
C1724 C1725 1.404 . S
C1724 C1727 1.539 . S
C1725 C1721 1.408 . S
C1725 C1724 1.404 . S
C1725 H1737 0.930 . S
C1726 C1722 1.524 1_554 S
C1726 H1738 0.956 1_554 S
C1726 H1739 0.961 . S
C1726 H1740 0.962 . S
C1727 C1724 1.539 . S
C1727 H1741 0.958 . S
C1727 H1742 0.961 . S
C1727 H1743 0.960 . S
H1728 C1712 0.931 . S
H1729 C1717 0.929 . S
H1730 C1718 0.960 . S
H1731 C1718 0.962 . S
H1732 C1718 0.960 . S
H1733 C1719 0.961 . S
H1734 C1719 0.961 . S
H1735 C1719 0.961 . S
H1736 C1720 0.931 . S
H1737 C1725 0.930 . S
H1738 C1726 0.956 1_556 S
H1739 C1726 0.961 . S
H1740 C1726 0.962 . S
H1741 C1727 0.958 . S
H1742 C1727 0.961 . S
H1743 C1727 0.960 . S
C1744 C1745 1.391 . S
C1744 C1746 1.394 . S
C1744 H1760 0.931 . S
C1745 C1744 1.391 . S
C1745 C1749 1.376 . S
C1746 C1744 1.394 . S
C1746 C1747 1.369 . S
C1746 C1750 1.531 1_455 S
C1747 C1746 1.369 . S
C1747 C1748 1.410 . S
C1747 C1755 1.503 1_455 S
C1748 C1747 1.410 . S
C1748 C1749 1.392 . S
C1748 C1751 1.511 . S
C1749 C1745 1.376 . S
C1749 C1748 1.392 . S
C1749 H1761 0.929 . S
C1750 C1746 1.531 1_655 S
C1750 H1762 0.960 . S
C1750 H1763 0.962 . S
C1750 H1764 0.960 1_655 S
C1751 C1748 1.511 . S
C1751 H1765 0.961 . S
C1751 H1766 0.961 . S
C1751 H1767 0.961 . S
C1752 C1753 1.370 . S
C1752 C1754 1.363 . S
C1752 H1768 0.931 . S
C1753 C1752 1.370 . S
C1753 C1757 1.408 . S
C1754 C1752 1.363 . S
C1754 C1755 1.370 . S
C1754 C1758 1.524 . S
C1755 C1747 1.503 1_655 S
C1755 C1754 1.370 . S
C1755 C1756 1.403 . S
C1756 C1755 1.403 . S
C1756 C1757 1.404 . S
C1756 C1759 1.539 1_655 S
C1757 C1753 1.408 . S
C1757 C1756 1.404 . S
C1757 H1769 0.930 . S
C1758 C1754 1.524 . S
C1758 H1770 0.956 . S
C1758 H1771 0.961 . S
C1758 H1772 0.961 . S
C1759 C1756 1.539 1_455 S
C1759 H1773 0.958 . S
C1759 H1774 0.961 . S
C1759 H1775 0.960 . S
H1760 C1744 0.931 . S
H1761 C1749 0.929 . S
H1762 C1750 0.960 . S
H1763 C1750 0.962 . S
H1764 C1750 0.960 1_455 S
H1765 C1751 0.961 . S
H1766 C1751 0.961 . S
H1767 C1751 0.961 . S
H1768 C1752 0.931 . S
H1769 C1757 0.930 . S
H1770 C1758 0.956 . S
H1771 C1758 0.961 . S
H1772 C1758 0.961 . S
H1773 C1759 0.958 . S
H1774 C1759 0.961 . S
H1775 C1759 0.960 . S
C1776 C1777 1.391 . S
C1776 C1778 1.394 . S
C1776 H1792 0.931 . S
C1777 C1776 1.391 . S
C1777 C1781 1.376 . S
C1778 C1776 1.394 . S
C1778 C1779 1.369 . S
C1778 C1782 1.531 . S
C1779 C1778 1.369 . S
C1779 C1780 1.410 . S
C1779 C1787 1.503 . S
C1780 C1779 1.410 . S
C1780 C1781 1.392 . S
C1780 C1783 1.511 . S
C1781 C1777 1.376 . S
C1781 C1780 1.392 . S
C1781 H1793 0.929 . S
C1782 C1778 1.531 . S
C1782 H1794 0.960 . S
C1782 H1795 0.962 . S
C1782 H1796 0.960 . S
C1783 C1780 1.511 . S
C1783 H1797 0.961 . S
C1783 H1798 0.961 . S
C1783 H1799 0.961 . S
C1784 C1785 1.370 . S
C1784 C1786 1.363 . S
C1784 H1800 0.931 . S
C1785 C1784 1.370 . S
C1785 C1789 1.408 . S
C1786 C1784 1.363 . S
C1786 C1787 1.370 . S
C1786 C1790 1.524 . S
C1787 C1779 1.503 . S
C1787 C1786 1.370 . S
C1787 C1788 1.403 . S
C1788 C1787 1.403 . S
C1788 C1789 1.404 . S
C1788 C1791 1.539 . S
C1789 C1785 1.408 . S
C1789 C1788 1.404 . S
C1789 H1801 0.930 . S
C1790 C1786 1.524 . S
C1790 H1802 0.956 . S
C1790 H1803 0.961 . S
C1790 H1804 0.961 . S
C1791 C1788 1.539 . S
C1791 H1805 0.958 . S
C1791 H1806 0.961 . S
C1791 H1807 0.960 . S
H1792 C1776 0.931 . S
H1793 C1781 0.929 . S
H1794 C1782 0.960 . S
H1795 C1782 0.962 . S
H1796 C1782 0.960 . S
H1797 C1783 0.961 . S
H1798 C1783 0.961 . S
H1799 C1783 0.961 . S
H1800 C1784 0.931 . S
H1801 C1789 0.930 . S
H1802 C1790 0.956 . S
H1803 C1790 0.961 . S
H1804 C1790 0.961 . S
H1805 C1791 0.958 . S
H1806 C1791 0.961 . S
H1807 C1791 0.960 . S
C1808 C1809 1.391 . S
C1808 C1810 1.394 . S
C1808 H1824 0.931 . S
C1809 C1808 1.391 . S
C1809 C1813 1.376 . S
C1810 C1808 1.394 . S
C1810 C1811 1.369 . S
C1810 C1814 1.531 . S
C1811 C1810 1.369 . S
C1811 C1812 1.410 . S
C1811 C1819 1.503 . S
C1812 C1811 1.410 . S
C1812 C1813 1.392 . S
C1812 C1815 1.511 . S
C1813 C1809 1.376 . S
C1813 C1812 1.392 . S
C1813 H1825 0.929 . S
C1814 C1810 1.531 . S
C1814 H1826 0.960 . S
C1814 H1827 0.962 . S
C1814 H1828 0.960 . S
C1815 C1812 1.511 . S
C1815 H1829 0.961 . S
C1815 H1830 0.961 . S
C1815 H1831 0.961 . S
C1816 C1817 1.370 . S
C1816 C1818 1.363 . S
C1816 H1832 0.931 . S
C1817 C1816 1.370 . S
C1817 C1821 1.408 . S
C1818 C1816 1.363 . S
C1818 C1819 1.370 . S
C1818 C1822 1.524 . S
C1819 C1811 1.503 . S
C1819 C1818 1.370 . S
C1819 C1820 1.403 . S
C1820 C1819 1.403 . S
C1820 C1821 1.404 . S
C1820 C1823 1.539 . S
C1821 C1817 1.408 . S
C1821 C1820 1.404 . S
C1821 H1833 0.930 . S
C1822 C1818 1.524 . S
C1822 H1834 0.956 . S
C1822 H1835 0.961 . S
C1822 H1836 0.961 . S
C1823 C1820 1.539 . S
C1823 H1837 0.958 . S
C1823 H1838 0.961 . S
C1823 H1839 0.960 . S
H1824 C1808 0.931 . S
H1825 C1813 0.929 . S
H1826 C1814 0.960 . S
H1827 C1814 0.962 . S
H1828 C1814 0.960 . S
H1829 C1815 0.961 . S
H1830 C1815 0.961 . S
H1831 C1815 0.961 . S
H1832 C1816 0.931 . S
H1833 C1821 0.930 . S
H1834 C1822 0.956 . S
H1835 C1822 0.961 . S
H1836 C1822 0.961 . S
H1837 C1823 0.958 . S
H1838 C1823 0.961 . S
H1839 C1823 0.960 . S
C1840 C1841 1.391 . S
C1840 C1842 1.394 . S
C1840 H1856 0.931 . S
C1841 C1840 1.391 . S
C1841 C1845 1.376 . S
C1842 C1840 1.394 . S
C1842 C1843 1.369 . S
C1842 C1846 1.531 . S
C1843 C1842 1.369 . S
C1843 C1844 1.410 . S
C1843 C1851 1.503 . S
C1844 C1843 1.410 . S
C1844 C1845 1.392 . S
C1844 C1847 1.511 . S
C1845 C1841 1.376 . S
C1845 C1844 1.392 . S
C1845 H1857 0.929 . S
C1846 C1842 1.531 . S
C1846 H1858 0.960 . S
C1846 H1859 0.962 . S
C1846 H1860 0.960 . S
C1847 C1844 1.511 . S
C1847 H1861 0.961 . S
C1847 H1862 0.961 . S
C1847 H1863 0.961 . S
C1848 C1849 1.370 . S
C1848 C1850 1.363 . S
C1848 H1864 0.931 . S
C1849 C1848 1.370 . S
C1849 C1853 1.408 . S
C1850 C1848 1.363 . S
C1850 C1851 1.370 . S
C1850 C1854 1.524 . S
C1851 C1843 1.503 . S
C1851 C1850 1.370 . S
C1851 C1852 1.403 . S
C1852 C1851 1.403 . S
C1852 C1853 1.404 . S
C1852 C1855 1.539 . S
C1853 C1849 1.408 . S
C1853 C1852 1.404 . S
C1853 H1865 0.930 . S
C1854 C1850 1.524 . S
C1854 H1866 0.956 . S
C1854 H1867 0.961 . S
C1854 H1868 0.961 . S
C1855 C1852 1.539 . S
C1855 H1869 0.958 . S
C1855 H1870 0.961 . S
C1855 H1871 0.960 . S
H1856 C1840 0.931 . S
H1857 C1845 0.929 . S
H1858 C1846 0.960 . S
H1859 C1846 0.962 . S
H1860 C1846 0.960 . S
H1861 C1847 0.961 . S
H1862 C1847 0.961 . S
H1863 C1847 0.961 . S
H1864 C1848 0.931 . S
H1865 C1853 0.930 . S
H1866 C1854 0.956 . S
H1867 C1854 0.961 . S
H1868 C1854 0.961 . S
H1869 C1855 0.958 . S
H1870 C1855 0.961 . S
H1871 C1855 0.960 . S
C1872 C1873 1.391 . S
C1872 C1874 1.394 . S
C1872 H1888 0.931 . S
C1873 C1872 1.391 . S
C1873 C1877 1.376 . S
C1874 C1872 1.394 . S
C1874 C1875 1.369 . S
C1874 C1878 1.531 . S
C1875 C1874 1.369 . S
C1875 C1876 1.410 . S
C1875 C1883 1.503 . S
C1876 C1875 1.410 . S
C1876 C1877 1.392 . S
C1876 C1879 1.511 . S
C1877 C1873 1.376 . S
C1877 C1876 1.392 . S
C1877 H1889 0.929 . S
C1878 C1874 1.531 . S
C1878 H1890 0.960 . S
C1878 H1891 0.962 . S
C1878 H1892 0.960 . S
C1879 C1876 1.511 . S
C1879 H1893 0.961 . S
C1879 H1894 0.961 . S
C1879 H1895 0.961 . S
C1880 C1881 1.370 . S
C1880 C1882 1.363 . S
C1880 H1896 0.931 . S
C1881 C1880 1.370 . S
C1881 C1885 1.408 . S
C1882 C1880 1.363 . S
C1882 C1883 1.370 . S
C1882 C1886 1.524 . S
C1883 C1875 1.503 . S
C1883 C1882 1.370 . S
C1883 C1884 1.403 . S
C1884 C1883 1.403 . S
C1884 C1885 1.404 . S
C1884 C1887 1.539 . S
C1885 C1881 1.408 . S
C1885 C1884 1.404 . S
C1885 H1897 0.930 . S
C1886 C1882 1.524 . S
C1886 H1898 0.956 . S
C1886 H1899 0.961 . S
C1886 H1900 0.961 . S
C1887 C1884 1.539 . S
C1887 H1901 0.958 . S
C1887 H1902 0.961 . S
C1887 H1903 0.960 . S
H1888 C1872 0.931 . S
H1889 C1877 0.929 . S
H1890 C1878 0.960 . S
H1891 C1878 0.962 . S
H1892 C1878 0.960 . S
H1893 C1879 0.961 . S
H1894 C1879 0.961 . S
H1895 C1879 0.961 . S
H1896 C1880 0.931 . S
H1897 C1885 0.930 . S
H1898 C1886 0.956 . S
H1899 C1886 0.961 . S
H1900 C1886 0.961 . S
H1901 C1887 0.958 . S
H1902 C1887 0.961 . S
H1903 C1887 0.960 . S
C1904 C1905 1.391 . S
C1904 C1906 1.394 . S
C1904 H1920 0.931 . S
C1905 C1904 1.391 . S
C1905 C1909 1.376 . S
C1906 C1904 1.394 . S
C1906 C1907 1.369 . S
C1906 C1910 1.531 . S
C1907 C1906 1.369 . S
C1907 C1908 1.410 . S
C1907 C1915 1.503 . S
C1908 C1907 1.410 . S
C1908 C1909 1.392 . S
C1908 C1911 1.511 . S
C1909 C1905 1.376 . S
C1909 C1908 1.392 . S
C1909 H1921 0.929 . S
C1910 C1906 1.531 . S
C1910 H1922 0.960 . S
C1910 H1923 0.962 . S
C1910 H1924 0.960 . S
C1911 C1908 1.511 . S
C1911 H1925 0.961 . S
C1911 H1926 0.961 . S
C1911 H1927 0.961 . S
C1912 C1913 1.370 . S
C1912 C1914 1.363 . S
C1912 H1928 0.931 . S
C1913 C1912 1.370 . S
C1913 C1917 1.408 . S
C1914 C1912 1.363 . S
C1914 C1915 1.370 . S
C1914 C1918 1.524 . S
C1915 C1907 1.503 . S
C1915 C1914 1.370 . S
C1915 C1916 1.403 . S
C1916 C1915 1.403 . S
C1916 C1917 1.404 . S
C1916 C1919 1.539 . S
C1917 C1913 1.408 . S
C1917 C1916 1.404 . S
C1917 H1929 0.930 . S
C1918 C1914 1.524 . S
C1918 H1930 0.956 . S
C1918 H1931 0.961 . S
C1918 H1932 0.961 . S
C1919 C1916 1.539 . S
C1919 H1933 0.958 . S
C1919 H1934 0.961 . S
C1919 H1935 0.960 . S
H1920 C1904 0.931 . S
H1921 C1909 0.929 . S
H1922 C1910 0.960 . S
H1923 C1910 0.962 . S
H1924 C1910 0.960 . S
H1925 C1911 0.961 . S
H1926 C1911 0.961 . S
H1927 C1911 0.961 . S
H1928 C1912 0.931 . S
H1929 C1917 0.930 . S
H1930 C1918 0.956 . S
H1931 C1918 0.961 . S
H1932 C1918 0.961 . S
H1933 C1919 0.958 . S
H1934 C1919 0.961 . S
H1935 C1919 0.960 . S
C1936 C1937 1.391 . S
C1936 C1938 1.394 . S
C1936 H1952 0.931 . S
C1937 C1936 1.391 . S
C1937 C1941 1.376 . S
C1938 C1936 1.394 . S
C1938 C1939 1.369 . S
C1938 C1942 1.531 . S
C1939 C1938 1.369 . S
C1939 C1940 1.410 . S
C1939 C1947 1.503 . S
C1940 C1939 1.410 . S
C1940 C1941 1.392 . S
C1940 C1943 1.511 . S
C1941 C1937 1.376 . S
C1941 C1940 1.392 . S
C1941 H1953 0.929 . S
C1942 C1938 1.531 . S
C1942 H1954 0.960 . S
C1942 H1955 0.962 . S
C1942 H1956 0.960 . S
C1943 C1940 1.511 . S
C1943 H1957 0.961 . S
C1943 H1958 0.961 . S
C1943 H1959 0.961 . S
C1944 C1945 1.370 . S
C1944 C1946 1.363 . S
C1944 H1960 0.931 . S
C1945 C1944 1.370 . S
C1945 C1949 1.408 . S
C1946 C1944 1.363 . S
C1946 C1947 1.370 . S
C1946 C1950 1.524 . S
C1947 C1939 1.503 . S
C1947 C1946 1.370 . S
C1947 C1948 1.403 . S
C1948 C1947 1.403 . S
C1948 C1949 1.404 . S
C1948 C1951 1.539 . S
C1949 C1945 1.408 . S
C1949 C1948 1.404 . S
C1949 H1961 0.930 . S
C1950 C1946 1.524 . S
C1950 H1962 0.956 . S
C1950 H1963 0.961 . S
C1950 H1964 0.961 . S
C1951 C1948 1.539 . S
C1951 H1965 0.958 . S
C1951 H1966 0.961 . S
C1951 H1967 0.960 . S
H1952 C1936 0.931 . S
H1953 C1941 0.929 . S
H1954 C1942 0.960 . S
H1955 C1942 0.962 . S
H1956 C1942 0.960 . S
H1957 C1943 0.961 . S
H1958 C1943 0.961 . S
H1959 C1943 0.961 . S
H1960 C1944 0.931 . S
H1961 C1949 0.930 . S
H1962 C1950 0.956 . S
H1963 C1950 0.961 . S
H1964 C1950 0.961 . S
H1965 C1951 0.958 . S
H1966 C1951 0.961 . S
H1967 C1951 0.960 . S
C1968 C1969 1.391 . S
C1968 C1970 1.394 . S
C1968 H1984 0.931 . S
C1969 C1968 1.391 . S
C1969 C1973 1.376 . S
C1970 C1968 1.394 . S
C1970 C1971 1.369 . S
C1970 C1974 1.531 . S
C1971 C1970 1.369 . S
C1971 C1972 1.410 . S
C1971 C1979 1.503 . S
C1972 C1971 1.410 . S
C1972 C1973 1.392 . S
C1972 C1975 1.511 . S
C1973 C1969 1.376 . S
C1973 C1972 1.392 . S
C1973 H1985 0.929 . S
C1974 C1970 1.531 . S
C1974 H1986 0.960 . S
C1974 H1987 0.962 . S
C1974 H1988 0.960 . S
C1975 C1972 1.511 . S
C1975 H1989 0.961 . S
C1975 H1990 0.961 . S
C1975 H1991 0.961 . S
C1976 C1977 1.370 . S
C1976 C1978 1.363 . S
C1976 H1992 0.931 . S
C1977 C1976 1.370 . S
C1977 C1981 1.408 . S
C1978 C1976 1.363 . S
C1978 C1979 1.370 . S
C1978 C1982 1.524 . S
C1979 C1971 1.503 . S
C1979 C1978 1.370 . S
C1979 C1980 1.403 . S
C1980 C1979 1.403 . S
C1980 C1981 1.404 . S
C1980 C1983 1.539 . S
C1981 C1977 1.408 . S
C1981 C1980 1.404 . S
C1981 H1993 0.930 . S
C1982 C1978 1.524 . S
C1982 H1994 0.956 . S
C1982 H1995 0.961 . S
C1982 H1996 0.961 . S
C1983 C1980 1.539 . S
C1983 H1997 0.958 . S
C1983 H1998 0.961 . S
C1983 H1999 0.960 . S
H1984 C1968 0.931 . S
H1985 C1973 0.929 . S
H1986 C1974 0.960 . S
H1987 C1974 0.962 . S
H1988 C1974 0.960 . S
H1989 C1975 0.961 . S
H1990 C1975 0.961 . S
H1991 C1975 0.961 . S
H1992 C1976 0.931 . S
H1993 C1981 0.930 . S
H1994 C1982 0.956 . S
H1995 C1982 0.961 . S
H1996 C1982 0.961 . S
H1997 C1983 0.958 . S
H1998 C1983 0.961 . S
H1999 C1983 0.960 . S
C2000 C2001 1.391 . S
C2000 C2002 1.394 . S
C2000 H2016 0.931 . S
C2001 C2000 1.391 . S
C2001 C2005 1.376 . S
C2002 C2000 1.394 . S
C2002 C2003 1.369 . S
C2002 C2006 1.531 . S
C2003 C2002 1.369 . S
C2003 C2004 1.410 . S
C2003 C2011 1.503 . S
C2004 C2003 1.410 . S
C2004 C2005 1.392 . S
C2004 C2007 1.511 . S
C2005 C2001 1.376 . S
C2005 C2004 1.392 . S
C2005 H2017 0.929 . S
C2006 C2002 1.531 . S
C2006 H2018 0.960 . S
C2006 H2019 0.962 . S
C2006 H2020 0.960 . S
C2007 C2004 1.511 . S
C2007 H2021 0.961 . S
C2007 H2022 0.961 . S
C2007 H2023 0.961 . S
C2008 C2009 1.370 . S
C2008 C2010 1.363 . S
C2008 H2024 0.931 . S
C2009 C2008 1.370 . S
C2009 C2013 1.408 . S
C2010 C2008 1.363 . S
C2010 C2011 1.370 . S
C2010 C2014 1.524 . S
C2011 C2003 1.503 . S
C2011 C2010 1.370 . S
C2011 C2012 1.403 . S
C2012 C2011 1.403 . S
C2012 C2013 1.404 . S
C2012 C2015 1.539 . S
C2013 C2009 1.408 . S
C2013 C2012 1.404 . S
C2013 H2025 0.930 . S
C2014 C2010 1.524 . S
C2014 H2026 0.956 . S
C2014 H2027 0.961 . S
C2014 H2028 0.961 . S
C2015 C2012 1.539 . S
C2015 H2029 0.958 . S
C2015 H2030 0.961 . S
C2015 H2031 0.960 . S
H2016 C2000 0.931 . S
H2017 C2005 0.929 . S
H2018 C2006 0.960 . S
H2019 C2006 0.962 . S
H2020 C2006 0.960 . S
H2021 C2007 0.961 . S
H2022 C2007 0.961 . S
H2023 C2007 0.961 . S
H2024 C2008 0.931 . S
H2025 C2013 0.930 . S
H2026 C2014 0.956 . S
H2027 C2014 0.961 . S
H2028 C2014 0.961 . S
H2029 C2015 0.958 . S
H2030 C2015 0.961 . S
H2031 C2015 0.960 . S
C2032 C2033 1.391 . S
C2032 C2034 1.394 . S
C2032 H2048 0.931 . S
C2033 C2032 1.391 . S
C2033 C2037 1.376 . S
C2034 C2032 1.394 . S
C2034 C2035 1.369 . S
C2034 C2038 1.531 . S
C2035 C2034 1.369 . S
C2035 C2036 1.410 . S
C2035 C2043 1.503 . S
C2036 C2035 1.410 . S
C2036 C2037 1.392 . S
C2036 C2039 1.511 . S
C2037 C2033 1.376 . S
C2037 C2036 1.392 . S
C2037 H2049 0.929 . S
C2038 C2034 1.531 . S
C2038 H2050 0.960 . S
C2038 H2051 0.962 . S
C2038 H2052 0.960 . S
C2039 C2036 1.511 . S
C2039 H2053 0.961 . S
C2039 H2054 0.961 . S
C2039 H2055 0.961 . S
C2040 C2041 1.370 . S
C2040 C2042 1.363 . S
C2040 H2056 0.931 . S
C2041 C2040 1.370 . S
C2041 C2045 1.408 . S
C2042 C2040 1.363 . S
C2042 C2043 1.370 . S
C2042 C2046 1.524 . S
C2043 C2035 1.503 . S
C2043 C2042 1.370 . S
C2043 C2044 1.403 . S
C2044 C2043 1.403 . S
C2044 C2045 1.404 . S
C2044 C2047 1.539 . S
C2045 C2041 1.408 . S
C2045 C2044 1.404 . S
C2045 H2057 0.930 . S
C2046 C2042 1.524 . S
C2046 H2058 0.956 . S
C2046 H2059 0.961 . S
C2046 H2060 0.961 . S
C2047 C2044 1.539 . S
C2047 H2061 0.958 . S
C2047 H2062 0.961 . S
C2047 H2063 0.960 . S
H2048 C2032 0.931 . S
H2049 C2037 0.929 . S
H2050 C2038 0.960 . S
H2051 C2038 0.962 . S
H2052 C2038 0.960 . S
H2053 C2039 0.961 . S
H2054 C2039 0.961 . S
H2055 C2039 0.961 . S
H2056 C2040 0.931 . S
H2057 C2045 0.930 . S
H2058 C2046 0.956 . S
H2059 C2046 0.961 . S
H2060 C2046 0.961 . S
H2061 C2047 0.958 . S
H2062 C2047 0.961 . S
H2063 C2047 0.960 . S
C2064 C2065 1.391 . S
C2064 C2066 1.394 . S
C2064 H2080 0.931 . S
C2065 C2064 1.391 . S
C2065 C2069 1.376 . S
C2066 C2064 1.394 . S
C2066 C2067 1.369 . S
C2066 C2070 1.531 . S
C2067 C2066 1.369 . S
C2067 C2068 1.410 . S
C2067 C2075 1.503 . S
C2068 C2067 1.410 . S
C2068 C2069 1.392 . S
C2068 C2071 1.511 . S
C2069 C2065 1.376 . S
C2069 C2068 1.392 . S
C2069 H2081 0.929 . S
C2070 C2066 1.531 . S
C2070 H2082 0.960 . S
C2070 H2083 0.962 . S
C2070 H2084 0.960 . S
C2071 C2068 1.511 . S
C2071 H2085 0.961 . S
C2071 H2086 0.961 . S
C2071 H2087 0.961 . S
C2072 C2073 1.370 . S
C2072 C2074 1.363 . S
C2072 H2088 0.931 . S
C2073 C2072 1.370 . S
C2073 C2077 1.408 . S
C2074 C2072 1.363 . S
C2074 C2075 1.370 . S
C2074 C2078 1.524 . S
C2075 C2067 1.503 . S
C2075 C2074 1.370 . S
C2075 C2076 1.403 . S
C2076 C2075 1.403 . S
C2076 C2077 1.404 . S
C2076 C2079 1.539 . S
C2077 C2073 1.408 . S
C2077 C2076 1.404 . S
C2077 H2089 0.930 . S
C2078 C2074 1.524 . S
C2078 H2090 0.956 . S
C2078 H2091 0.961 . S
C2078 H2092 0.961 . S
C2079 C2076 1.539 . S
C2079 H2093 0.958 . S
C2079 H2094 0.961 . S
C2079 H2095 0.960 . S
H2080 C2064 0.931 . S
H2081 C2069 0.929 . S
H2082 C2070 0.960 . S
H2083 C2070 0.962 . S
H2084 C2070 0.960 . S
H2085 C2071 0.961 . S
H2086 C2071 0.961 . S
H2087 C2071 0.961 . S
H2088 C2072 0.931 . S
H2089 C2077 0.930 . S
H2090 C2078 0.956 . S
H2091 C2078 0.961 . S
H2092 C2078 0.961 . S
H2093 C2079 0.958 . S
H2094 C2079 0.961 . S
H2095 C2079 0.960 . S
C2096 C2097 1.391 . S
C2096 C2098 1.394 . S
C2096 H2112 0.931 . S
C2097 C2096 1.391 . S
C2097 C2101 1.376 . S
C2098 C2096 1.394 . S
C2098 C2099 1.369 . S
C2098 C2102 1.531 . S
C2099 C2098 1.369 . S
C2099 C2100 1.410 . S
C2099 C2107 1.503 . S
C2100 C2099 1.410 . S
C2100 C2101 1.392 . S
C2100 C2103 1.511 . S
C2101 C2097 1.376 . S
C2101 C2100 1.392 . S
C2101 H2113 0.929 . S
C2102 C2098 1.531 . S
C2102 H2114 0.960 . S
C2102 H2115 0.962 . S
C2102 H2116 0.960 . S
C2103 C2100 1.511 . S
C2103 H2117 0.961 . S
C2103 H2118 0.961 . S
C2103 H2119 0.961 . S
C2104 C2105 1.370 . S
C2104 C2106 1.363 . S
C2104 H2120 0.931 . S
C2105 C2104 1.370 . S
C2105 C2109 1.408 . S
C2106 C2104 1.363 . S
C2106 C2107 1.370 . S
C2106 C2110 1.524 . S
C2107 C2099 1.503 . S
C2107 C2106 1.370 . S
C2107 C2108 1.403 . S
C2108 C2107 1.403 . S
C2108 C2109 1.404 . S
C2108 C2111 1.539 . S
C2109 C2105 1.408 . S
C2109 C2108 1.404 . S
C2109 H2121 0.930 . S
C2110 C2106 1.524 . S
C2110 H2122 0.956 . S
C2110 H2123 0.961 . S
C2110 H2124 0.961 . S
C2111 C2108 1.539 . S
C2111 H2125 0.958 . S
C2111 H2126 0.961 . S
C2111 H2127 0.960 . S
H2112 C2096 0.931 . S
H2113 C2101 0.929 . S
H2114 C2102 0.960 . S
H2115 C2102 0.962 . S
H2116 C2102 0.960 . S
H2117 C2103 0.961 . S
H2118 C2103 0.961 . S
H2119 C2103 0.961 . S
H2120 C2104 0.931 . S
H2121 C2109 0.930 . S
H2122 C2110 0.956 . S
H2123 C2110 0.961 . S
H2124 C2110 0.961 . S
H2125 C2111 0.958 . S
H2126 C2111 0.961 . S
H2127 C2111 0.960 . S
C2128 C2129 1.391 . S
C2128 C2130 1.394 . S
C2128 H2144 0.931 . S
C2129 C2128 1.391 . S
C2129 C2133 1.376 . S
C2130 C2128 1.394 . S
C2130 C2131 1.369 . S
C2130 C2134 1.531 . S
C2131 C2130 1.369 . S
C2131 C2132 1.410 . S
C2131 C2139 1.503 . S
C2132 C2131 1.410 . S
C2132 C2133 1.392 . S
C2132 C2135 1.511 . S
C2133 C2129 1.376 . S
C2133 C2132 1.392 . S
C2133 H2145 0.929 . S
C2134 C2130 1.531 . S
C2134 H2146 0.960 . S
C2134 H2147 0.962 . S
C2134 H2148 0.960 . S
C2135 C2132 1.511 . S
C2135 H2149 0.961 . S
C2135 H2150 0.961 . S
C2135 H2151 0.961 . S
C2136 C2137 1.370 . S
C2136 C2138 1.363 . S
C2136 H2152 0.931 . S
C2137 C2136 1.370 . S
C2137 C2141 1.408 . S
C2138 C2136 1.363 . S
C2138 C2139 1.370 . S
C2138 C2142 1.524 . S
C2139 C2131 1.503 . S
C2139 C2138 1.370 . S
C2139 C2140 1.403 . S
C2140 C2139 1.403 . S
C2140 C2141 1.404 . S
C2140 C2143 1.539 . S
C2141 C2137 1.408 . S
C2141 C2140 1.404 . S
C2141 H2153 0.930 . S
C2142 C2138 1.524 . S
C2142 H2154 0.956 . S
C2142 H2155 0.961 . S
C2142 H2156 0.961 . S
C2143 C2140 1.539 . S
C2143 H2157 0.958 . S
C2143 H2158 0.961 . S
C2143 H2159 0.960 . S
H2144 C2128 0.931 . S
H2145 C2133 0.929 . S
H2146 C2134 0.960 . S
H2147 C2134 0.962 . S
H2148 C2134 0.960 . S
H2149 C2135 0.961 . S
H2150 C2135 0.961 . S
H2151 C2135 0.961 . S
H2152 C2136 0.931 . S
H2153 C2141 0.930 . S
H2154 C2142 0.956 . S
H2155 C2142 0.961 . S
H2156 C2142 0.961 . S
H2157 C2143 0.958 . S
H2158 C2143 0.961 . S
H2159 C2143 0.960 . S
C1009 C238 1.170 . S
C1017 C67 1.294 . S
C1041 C310 1.234 . S
C1049 C140 1.299 . S
C1073 C235 1.326 . S
C1081 C406 1.239 . S
C1105 C308 1.287 . S
C1113 C478 1.191 . S
C1137 C70 1.205 . S
C1145 C403 1.297 . S
C1169 C142 1.269 . S
C1177 C476 1.312 . S
C1201 C898 1.268 . S
C1209 C560 1.320 . S
C1233 C655 1.282 . S
C1241 C994 1.217 . S
C1265 C728 1.317 . S
C1273 C562 1.240 . S
C1297 C823 1.339 . S
C1305 C658 1.238 . S
C1329 C896 1.329 . S
C1337 C730 1.240 . S
C1361 C826 1.177 . S
C1369 C991 1.310 . S
C1393 C326 1.914 . S
C1401 C63 1.926 . S
C1425 C158 1.907 . S
C1433 C399 1.926 . S
C1457 C231 1.902 . S
C1465 C494 1.924 . S
C1489 C578 1.909 . S
C1497 C819 1.927 . S
C1521 C651 1.940 . S
C1529 C914 1.940 . S
C1553 C746 1.927 . S
C1561 C987 1.931 . S
C1585 C662 2.168 . S
C1593 C74 2.148 . S
C1617 C147 2.127 . S
C1625 C735 2.153 . S
C1649 C830 2.154 . S
C1657 C242 2.156 . S
C1681 C315 2.164 . S
C1689 C903 2.144 . S
C1713 C410 2.124 . S
C1721 C998 2.137 . S
C1745 C567 2.145 . S
C1753 C483 2.136 . S
C1777 C226 1.312 . S
C1785 C56 1.426 . S
C1809 C151 1.393 . S
C1817 C322 1.331 . S
C1841 C224 1.422 . S
C1849 C394 1.338 . S
C1873 C319 1.366 . S
C1881 C490 1.310 . S
C1905 C58 1.254 . S
C1913 C392 1.406 . S
C1937 C154 1.362 . S
C1945 C487 1.409 . S
C1969 C910 1.368 . S
C1977 C571 1.415 . S
C2001 C644 1.365 . S
C2009 C982 1.311 . S
C2033 C739 1.409 . S
C2041 C574 1.336 . S
C2065 C646 1.368 . S
C2073 C812 1.409 . S
C2097 C907 1.386 . S
C2105 C742 1.291 . S
C2129 C980 1.370 . S
C2137 C814 1.300 . S
