# Generated by pormake.
# Topology vby, (6)-cn, num edge types: 1
# Building blocks:
#     Node 0, Type 0, BuildingBlock: MIFKUJ_clean_sbu_0, # of connection points: 6
#     Node 1, Type 0, BuildingBlock: MIFKUJ_clean_sbu_0, # of connection points: 6
#     Node 2, Type 0, BuildingBlock: MIFKUJ_clean_sbu_0, # of connection points: 6
#     Node 3, Type 0, BuildingBlock: MIFKUJ_clean_sbu_0, # of connection points: 6
#     Node 4, Type 0, BuildingBlock: MIFKUJ_clean_sbu_0, # of connection points: 6
#     Node 5, Type 0, BuildingBlock: MIFKUJ_clean_sbu_0, # of connection points: 6
#     Node 6, Type 0, BuildingBlock: MIFKUJ_clean_sbu_0, # of connection points: 6
#     Node 7, Type 0, BuildingBlock: MIFKUJ_clean_sbu_0, # of connection points: 6
#     Edge 8, Type (0, 0), BuildingBlock: CIFDUS_clean_linker_0, # of connection points: 2
#     Edge 9, Type (0, 0), BuildingBlock: CIFDUS_clean_linker_0, # of connection points: 2
#     Edge 10, Type (0, 0), BuildingBlock: CIFDUS_clean_linker_0, # of connection points: 2
#     Edge 11, Type (0, 0), BuildingBlock: CIFDUS_clean_linker_0, # of connection points: 2
#     Edge 12, Type (0, 0), BuildingBlock: CIFDUS_clean_linker_0, # of connection points: 2
#     Edge 13, Type (0, 0), BuildingBlock: CIFDUS_clean_linker_0, # of connection points: 2
#     Edge 14, Type (0, 0), BuildingBlock: CIFDUS_clean_linker_0, # of connection points: 2
#     Edge 15, Type (0, 0), BuildingBlock: CIFDUS_clean_linker_0, # of connection points: 2
#     Edge 16, Type (0, 0), BuildingBlock: CIFDUS_clean_linker_0, # of connection points: 2
#     Edge 17, Type (0, 0), BuildingBlock: CIFDUS_clean_linker_0, # of connection points: 2
#     Edge 18, Type (0, 0), BuildingBlock: CIFDUS_clean_linker_0, # of connection points: 2
#     Edge 19, Type (0, 0), BuildingBlock: CIFDUS_clean_linker_0, # of connection points: 2
#     Edge 20, Type (0, 0), BuildingBlock: CIFDUS_clean_linker_0, # of connection points: 2
#     Edge 21, Type (0, 0), BuildingBlock: CIFDUS_clean_linker_0, # of connection points: 2
#     Edge 22, Type (0, 0), BuildingBlock: CIFDUS_clean_linker_0, # of connection points: 2
#     Edge 23, Type (0, 0), BuildingBlock: CIFDUS_clean_linker_0, # of connection points: 2
#     Edge 24, Type (0, 0), BuildingBlock: CIFDUS_clean_linker_0, # of connection points: 2
#     Edge 25, Type (0, 0), BuildingBlock: CIFDUS_clean_linker_0, # of connection points: 2
#     Edge 26, Type (0, 0), BuildingBlock: CIFDUS_clean_linker_0, # of connection points: 2
#     Edge 27, Type (0, 0), BuildingBlock: CIFDUS_clean_linker_0, # of connection points: 2
#     Edge 28, Type (0, 0), BuildingBlock: CIFDUS_clean_linker_0, # of connection points: 2
#     Edge 29, Type (0, 0), BuildingBlock: CIFDUS_clean_linker_0, # of connection points: 2
#     Edge 30, Type (0, 0), BuildingBlock: CIFDUS_clean_linker_0, # of connection points: 2
#     Edge 31, Type (0, 0), BuildingBlock: CIFDUS_clean_linker_0, # of connection points: 2
# Relax obj value: 0.110
# Max RMSD: 0.161
# Mean RMSD: 0.161
data_MOF--net-vby--node1-MIFKUJ_clean_sbu_0--edge1-CIFDUS_clean_linker_0
_symmetry_space_group_name_H-M    P1
_symmetry_Int_Tables_number       1
_symmetry_cell_setting            triclinic
loop_
_symmetry_equiv_pos_as_xyz
'x, y, z'
_cell_length_a     15.743075
_cell_length_b     64.671939
_cell_length_c     24.197303
_cell_angle_alpha  89.780338
_cell_angle_beta   90.034686
_cell_angle_gamma 90.079219
loop_
_atom_site_label
_atom_site_type_symbol
_atom_site_fract_x
_atom_site_fract_y
_atom_site_fract_z
_atom_type_partial_charge
Zn0 Zn 0.15677 0.35223 -0.00392 0.0
Zn1 Zn 0.99965 0.39877 0.98695 0.0
C2 C 0.33358 0.36016 0.96738 0.0
O3 O 0.32401 0.34334 0.93773 0.0
C4 C 0.82037 0.39537 0.98296 0.0
O5 O 0.83038 0.40947 0.02139 0.0
O6 O 0.18193 0.32181 0.00304 0.0
O7 O 0.0952 0.36067 0.06672 0.0
O8 O 0.01253 0.38869 0.06501 0.0
C9 C 0.21184 0.31463 0.04799 0.0
O10 O 0.22534 0.32729 0.08943 0.0
O11 O 0.27037 0.36709 0.99437 0.0
C12 C 0.98535 0.44013 0.94395 0.0
O13 O 0.9772 0.43034 0.89682 0.0
O14 O 0.99557 0.4298 0.9882 0.0
O15 O 0.09613 0.38973 0.93911 0.0
O16 O 0.0945 0.35654 0.92373 0.0
O17 O 0.88609 0.38809 0.95942 0.0
C18 C 0.04724 0.37372 0.09083 0.0
C19 C 0.0798 0.37479 0.90711 0.0
Zn20 Zn 0.83796 0.64873 0.9891 0.0
Zn21 Zn 0.02457 0.60165 0.96704 0.0
C22 C 0.66488 0.64738 0.95905 0.0
O23 O 0.69045 0.6632 0.92912 0.0
C24 C 0.20146 0.5981 0.98241 0.0
O25 O 0.17464 0.58357 0.01631 0.0
O26 O 0.8329 0.67871 0.01114 0.0
O27 O 0.90813 0.63119 0.04583 0.0
O28 O 1.00348 0.60558 0.04759 0.0
C29 C 0.79399 0.68462 0.05428 0.0
O30 O 0.76162 0.67067 0.08785 0.0
O31 O 0.71812 0.63822 0.9901 0.0
C32 C 0.03777 0.56192 0.91178 0.0
O33 O 0.09865 0.57095 0.88345 0.0
O34 O 0.99651 0.57221 0.94745 0.0
O35 O 0.95133 0.62288 0.93497 0.0
O36 O 0.87313 0.648 0.90777 0.0
O37 O 0.14738 0.60806 0.95387 0.0
C38 C 0.95668 0.61871 0.07237 0.0
C39 C 0.92509 0.6339 0.89542 0.0
Zn40 Zn 0.15231 0.65635 0.48168 0.0
Zn41 Zn 0.99258 0.61004 0.50519 0.0
C42 C 0.32425 0.64672 0.51507 0.0
O43 O 0.3152 0.66405 0.54259 0.0
C44 C 0.81089 0.61149 0.50727 0.0
O45 O 0.82206 0.59681 0.4706 0.0
O46 O 0.1867 0.68632 0.4703 0.0
O47 O 0.08543 0.64719 0.41436 0.0
O48 O 1.0032 0.61924 0.42496 0.0
C49 C 0.18542 0.6954 0.42357 0.0
O50 O 0.16104 0.68509 0.37968 0.0
O51 O 0.26162 0.63983 0.4873 0.0
C52 C 0.97582 0.56977 0.55457 0.0
O53 O 0.95629 0.58122 0.59746 0.0
O54 O 0.99506 0.57868 0.5093 0.0
O55 O 0.08164 0.6216 0.55655 0.0
O56 O 0.08629 0.65544 0.55266 0.0
O57 O 0.8759 0.61961 0.52983 0.0
C58 C 0.03495 0.63358 0.39504 0.0
C59 C 0.06639 0.63901 0.57841 0.0
Zn60 Zn 0.82333 0.35526 0.49466 0.0
Zn61 Zn 0.97722 0.40332 0.49091 0.0
C62 C 0.64021 0.36049 0.47715 0.0
O63 O 0.64243 0.3405 0.46815 0.0
C64 C 0.16081 0.40132 0.48082 0.0
O65 O 0.15638 0.41951 0.50465 0.0
O66 O 0.80255 0.32427 0.4991 0.0
O67 O 0.89253 0.36041 0.4259 0.0
O68 O 0.88852 0.39389 0.43714 0.0
C69 C 0.79995 0.31303 0.45602 0.0
O70 O 0.81099 0.32171 0.40737 0.0
O71 O 0.70905 0.36998 0.48841 0.0
C72 C 0.97075 0.44616 0.53134 0.0
O73 O 0.95416 0.43741 0.57922 0.0
O74 O 0.98218 0.43478 0.48919 0.0
O75 O 0.95741 0.39264 0.56841 0.0
O76 O 0.87901 0.36382 0.56711 0.0
O77 O 0.09227 0.39184 0.46897 0.0
C78 C 0.90833 0.37842 0.40782 0.0
C79 C 0.92343 0.37721 0.59289 0.0
Zn80 Zn 0.67742 0.84884 0.00913 0.0
Zn81 Zn 0.48837 0.89351 -0.00136 0.0
C82 C 0.83695 0.86258 0.97111 0.0
O83 O 0.80889 0.8529 0.92706 0.0
C84 C 0.31383 0.89623 0.03408 0.0
O85 O 0.3489 0.9018 0.08102 0.0
O86 O 0.70654 0.81841 0.00649 0.0
O87 O 0.61087 0.85391 0.07897 0.0
O88 O 0.51258 0.87825 0.06809 0.0
C89 C 0.70251 0.80613 0.04759 0.0
O90 O 0.67665 0.81313 0.0956 0.0
O91 O 0.78953 0.86357 0.01351 0.0
C92 C 0.47723 0.9377 0.98853 0.0
O93 O 0.4006 0.93293 0.9713 0.0
O94 O 0.52775 0.92329 0.00277 0.0
O95 O 0.53031 0.88073 0.92959 0.0
O96 O 0.62564 0.85538 0.93484 0.0
O97 O 0.36108 0.89247 0.99276 0.0
C98 C 0.55072 0.86496 0.09754 0.0
C99 C 0.57665 0.8671 0.90721 0.0
Zn100 Zn 0.33627 0.15182 0.98505 0.0
Zn101 Zn 0.49679 0.10493 0.9808 0.0
C102 C 0.16453 0.14077 0.95272 0.0
O103 O 0.17482 0.15556 0.91594 0.0
C104 C 0.67614 0.11008 0.98471 0.0
O105 O 0.66226 0.10283 0.03471 0.0
O106 O 0.30663 0.18211 0.98556 0.0
O107 O 0.39598 0.14445 0.05654 0.0
O108 O 0.48535 0.11762 0.05684 0.0
C109 C 0.30752 0.19354 0.02814 0.0
O110 O 0.32868 0.18552 0.07616 0.0
O111 O 0.22598 0.13606 0.98444 0.0
C112 C 0.53871 0.06015 0.98166 0.0
O113 O 0.61708 0.0655 0.96977 0.0
O114 O 0.48244 0.07403 0.98801 0.0
O115 O 0.40674 0.11419 0.92789 0.0
O116 O 0.40216 0.14754 0.91518 0.0
O117 O 0.61357 0.11226 0.95194 0.0
C118 C 0.44752 0.13239 0.08132 0.0
C119 C 0.42282 0.12979 0.89793 0.0
Zn120 Zn 0.68352 0.15279 0.49016 0.0
Zn121 Zn 0.4913 0.10619 0.5024 0.0
C122 C 0.85213 0.1477 0.52451 0.0
O123 O 0.82724 0.16247 0.55793 0.0
C124 C 0.31355 0.09955 0.48749 0.0
O125 O 0.34079 0.08665 0.44964 0.0
O126 O 0.6965 0.18342 0.47609 0.0
O127 O 0.61172 0.13958 0.42947 0.0
O128 O 0.5098 0.11569 0.42438 0.0
C129 C 0.7163 0.19138 0.42976 0.0
O130 O 0.72664 0.17928 0.3868 0.0
O131 O 0.79979 0.14053 0.48949 0.0
C132 C 0.50855 0.06446 0.55016 0.0
O133 O 0.47673 0.07264 0.59521 0.0
O134 O 0.52299 0.07595 0.50844 0.0
O135 O 0.54974 0.12537 0.55369 0.0
O136 O 0.64075 0.15033 0.56814 0.0
O137 O 0.36727 0.10923 0.51679 0.0
C138 C 0.55898 0.12884 0.40166 0.0
C139 C 0.58669 0.13756 0.58669 0.0
Zn140 Zn 0.36853 0.85345 0.50269 0.0
Zn141 Zn 0.55618 0.90163 0.52095 0.0
C142 C 0.19619 0.85592 0.52976 0.0
O143 O 0.22226 0.84053 0.56101 0.0
C144 C 0.73191 0.90526 0.51213 0.0
O145 O 0.7048 0.91917 0.47655 0.0
O146 O 0.36303 0.82269 0.48919 0.0
O147 O 0.45156 0.86801 0.44741 0.0
O148 O 0.54801 0.89353 0.44187 0.0
C149 C 0.32054 0.8141 0.45092 0.0
O150 O 0.2814 0.8257 0.41422 0.0
O151 O 0.24935 0.86472 0.49774 0.0
C152 C 0.55602 0.94164 0.57399 0.0
O153 O 0.599 0.93152 0.61194 0.0
O154 O 0.52871 0.93198 0.53182 0.0
O155 O 0.47528 0.88156 0.5504 0.0
O156 O 0.40302 0.85614 0.58306 0.0
O157 O 0.67757 0.89549 0.54113 0.0
C158 C 0.50535 0.87885 0.41996 0.0
C159 C 0.45396 0.87086 0.59166 0.0
H160 H 0.48145 0.34894 0.91675 0.0
H161 H 0.37668 0.39374 0.02961 0.0
H162 H 0.51715 0.40893 0.04248 0.0
H163 H 0.67024 0.40872 0.02481 0.0
H164 H 0.7764 0.364 0.91241 0.0
H165 H 0.63474 0.34966 0.89609 0.0
C166 C 0.48916 0.3621 0.94393 0.0
C167 C 0.41835 0.3701 0.97234 0.0
C168 C 0.57044 0.37076 0.95138 0.0
C169 C 0.4298 0.38721 0.00727 0.0
C170 C 0.51025 0.39591 0.01475 0.0
C171 C 0.66257 0.39589 -0.00349 0.0
C172 C 0.73413 0.38739 0.97015 0.0
C173 C 0.5811 0.38768 0.98749 0.0
C174 C 0.7226 0.37083 0.93339 0.0
C175 C 0.64156 0.3626 0.92409 0.0
H176 H 0.27454 0.62956 0.92466 0.0
H177 H 0.33252 0.5796 0.03735 0.0
H178 H 0.48115 0.5903 0.03962 0.0
H179 H 0.5938 0.6144 0.01174 0.0
H180 H 0.53541 0.66452 0.89963 0.0
H181 H 0.38775 0.65318 0.89519 0.0
C182 C 0.31974 0.62092 0.94947 0.0
C183 C 0.29235 0.60384 0.98087 0.0
C184 C 0.40497 0.62725 0.95097 0.0
C185 C 0.35181 0.59284 0.01282 0.0
C186 C 0.43685 0.59896 0.01425 0.0
C187 C 0.54883 0.62285 0.9863 0.0
C188 C 0.57563 0.64032 0.95624 0.0
C189 C 0.46396 0.61626 0.9839 0.0
C190 C 0.51653 0.65103 0.92331 0.0
C191 C 0.43202 0.64456 0.92069 0.0
H192 H 0.66125 0.59717 0.46603 0.0
H193 H 0.76526 0.64354 0.57476 0.0
H194 H 0.62334 0.65786 0.58886 0.0
H195 H 0.47078 0.65827 0.56672 0.0
H196 H 0.36751 0.612 0.45734 0.0
H197 H 0.50806 0.59656 0.44744 0.0
C198 C 0.653 0.61034 0.49309 0.0
C199 C 0.72414 0.61933 0.51898 0.0
C200 C 0.57127 0.61857 0.50081 0.0
C201 C 0.71186 0.63633 0.55413 0.0
C202 C 0.63065 0.64456 0.56217 0.0
C203 C 0.47876 0.64471 0.541 0.0
C204 C 0.40845 0.6364 0.51259 0.0
C205 C 0.56003 0.63596 0.53517 0.0
C206 C 0.42028 0.61878 0.47961 0.0
C207 C 0.50078 0.60995 0.47382 0.0
H208 H 0.484 0.34446 0.45501 0.0
H209 H 0.61055 0.40152 0.49733 0.0
H210 H 0.47383 0.41934 0.49977 0.0
H211 H 0.31788 0.41842 0.49345 0.0
H212 H 0.19191 0.36133 0.45077 0.0
H213 H 0.32899 0.34389 0.44474 0.0
C214 C 0.48192 0.36082 0.46457 0.0
C215 C 0.55766 0.37158 0.47628 0.0
C216 C 0.40308 0.37098 0.46595 0.0
C217 C 0.55341 0.39281 0.48834 0.0
C218 C 0.47517 0.40302 0.48978 0.0
C219 C 0.32035 0.40219 0.48249 0.0
C220 C 0.24447 0.39121 0.47281 0.0
C221 C 0.39952 0.39222 0.47918 0.0
C222 C 0.24912 0.3702 0.45836 0.0
C223 C 0.32756 0.36018 0.45508 0.0
H224 H 0.92137 0.87899 0.059 0.0
H225 H 0.95073 0.86386 0.88638 0.0
H226 H 0.09967 0.87409 0.89002 0.0
H227 H 0.22338 0.88532 0.94321 0.0
H228 H 0.19573 0.89987 0.11626 0.0
H229 H 0.04414 0.892 0.11124 0.0
C230 C 0.96013 0.87811 0.02205 0.0
C231 C 0.92502 0.87053 0.97262 0.0
C232 C 0.04613 0.88381 0.02451 0.0
C233 C 0.97616 0.86952 0.92509 0.0
C234 C 0.06145 0.87535 0.9271 0.0
C235 C 0.18419 0.88691 0.9798 0.0
C236 C 0.22101 0.89304 0.03011 0.0
C237 C 0.09738 0.88219 0.97678 0.0
C238 C 0.16911 0.89513 0.07701 0.0
C239 C 0.08241 0.89059 0.07422 0.0
H240 H 0.02023 0.14664 0.89214 0.0
H241 H 0.11801 0.11383 0.03434 0.0
H242 H 0.97616 0.10096 0.0554 0.0
H243 H 0.82341 0.10051 0.03674 0.0
H244 H 0.72439 0.13278 0.89424 0.0
H245 H 0.86774 0.14427 0.86993 0.0
C246 C 0.01066 0.13653 0.92746 0.0
C247 C 0.07974 0.13137 0.96179 0.0
C248 C 0.92861 0.12917 0.93952 0.0
C249 C 0.06615 0.11813 0.00721 0.0
C250 C 0.98489 0.11079 0.01945 0.0
C251 C 0.83311 0.11 0.00023 0.0
C252 C 0.76321 0.11595 0.96769 0.0
C253 C 0.91553 0.11648 0.98644 0.0
C254 C 0.7771 0.12803 0.92011 0.0
C255 C 0.85904 0.13464 0.90624 0.0
H256 H 0.24022 0.12751 0.55577 0.0
H257 H 0.18193 0.08293 0.42879 0.0
H258 H 0.03306 0.09347 0.43037 0.0
H259 H 0.92125 0.11653 0.46442 0.0
H260 H 0.9807 0.16139 0.59049 0.0
H261 H 0.12758 0.14951 0.5925 0.0
C262 C 0.19493 0.11996 0.5287 0.0
C263 C 0.22228 0.10454 0.49198 0.0
C264 C 0.1098 0.12624 0.52935 0.0
C265 C 0.16263 0.09489 0.45734 0.0
C266 C 0.07752 0.10094 0.4581 0.0
C267 C 0.96625 0.12367 0.49247 0.0
C268 C 0.94016 0.13991 0.52697 0.0
C269 C 0.05071 0.11681 0.49334 0.0
C270 C 0.99914 0.14891 0.56332 0.0
C271 C 0.08319 0.14213 0.56454 0.0
H272 H 0.80621 0.87343 0.56818 0.0
H273 H 0.86236 0.92434 0.45814 0.0
H274 H 0.01069 0.91367 0.45376 0.0
H275 H 0.12403 0.88929 0.47892 0.0
H276 H 0.0674 0.83829 0.58858 0.0
H277 H 0.92012 0.84956 0.59507 0.0
C278 C 0.85101 0.8823 0.54364 0.0
C279 C 0.82304 0.89964 0.51354 0.0
C280 C 0.93624 0.87598 0.54081 0.0
C281 C 0.88202 0.9109 0.48173 0.0
C282 C 0.96695 0.90479 0.47904 0.0
C283 C 0.07947 0.88064 0.5042 0.0
C284 C 0.10683 0.86294 0.53302 0.0
C285 C 0.99463 0.88723 0.50794 0.0
C286 C 0.04822 0.85197 0.56584 0.0
C287 C 0.96384 0.85841 0.56967 0.0
H288 H 0.98097 0.53584 0.99108 0.0
H289 H 0.06619 0.53772 0.82177 0.0
H290 H 0.0523 0.50008 0.81565 0.0
H291 H 0.02225 0.46656 0.86003 0.0
H292 H 0.94833 0.46472 0.03168 0.0
H293 H 0.95151 0.50246 0.03542 0.0
C294 C 0.9955 0.52802 0.95266 0.0
C295 C 0.024 0.53946 0.9068 0.0
C296 C 0.99002 0.5064 0.95007 0.0
C297 C 0.04413 0.52916 0.85757 0.0
C298 C 0.03628 0.50767 0.8541 0.0
C299 C 0.00622 0.47445 0.89809 0.0
C300 C 0.98492 0.46292 0.94547 0.0
C301 C 0.01026 0.49612 0.90031 0.0
C302 C 0.96528 0.47329 0.99473 0.0
C303 C 0.96692 0.49485 -0.00312 0.0
H304 H 0.94547 0.47463 0.61232 0.0
H305 H 0.00841 0.46922 0.43937 0.0
H306 H 0.01665 0.50684 0.43132 0.0
H307 H 0.00483 0.54139 0.4732 0.0
H308 H 0.94119 0.54654 0.64616 0.0
H309 H 0.93459 0.50899 0.65419 0.0
C310 C 0.96106 0.48164 0.57282 0.0
C311 C 0.97614 0.46904 0.52654 0.0
C312 C 0.96559 0.5033 0.56841 0.0
C313 C 0.99629 0.47849 0.47572 0.0
C314 C 1.00108 0.50003 0.47105 0.0
C315 C 0.98969 0.53431 0.51269 0.0
C316 C 0.97351 0.54685 0.55897 0.0
C317 C 0.98569 0.51261 0.51709 0.0
C318 C 0.95388 0.53734 0.60977 0.0
C319 C 0.95004 0.51582 0.61447 0.0
H320 H 0.37523 0.97123 0.988 0.0
H321 H 0.63894 0.95328 0.99343 0.0
H322 H 0.68172 0.9897 0.99213 0.0
H323 H 0.64359 0.02665 0.98712 0.0
H324 H 0.37887 0.04409 0.98463 0.0
H325 H 0.33722 0.00782 0.98726 0.0
C326 C 0.44212 0.97526 0.98892 0.0
C327 C 0.50383 0.9596 0.99038 0.0
C328 C 0.46606 0.99614 0.98866 0.0
C329 C 0.5902 0.96508 0.99232 0.0
C330 C 0.61467 0.98588 0.99142 0.0
C331 C 0.57683 0.0225 0.98723 0.0
C332 C 0.51451 0.03808 0.98534 0.0
C333 C 0.55309 1.00155 0.98922 0.0
C334 C 0.42823 0.03244 0.98604 0.0
C335 C 0.40424 0.01169 0.98745 0.0
H336 H 0.51967 0.03627 0.634 0.0
H337 H 0.5214 0.04161 0.45615 0.0
H338 H 0.53183 0.00412 0.44781 0.0
H339 H 0.5402 0.96968 0.49082 0.0
H340 H 0.54812 0.96431 0.66841 0.0
H341 H 0.53365 1.00183 0.6771 0.0
C342 C 0.52254 0.02922 0.59345 0.0
C343 C 0.51963 0.04175 0.54582 0.0
C344 C 0.52977 0.0076 0.58888 0.0
C345 C 0.52403 0.03237 0.49355 0.0
C346 C 0.52957 0.0109 0.48868 0.0
C347 C 0.53809 0.97673 0.53139 0.0
C348 C 0.54436 0.96425 0.57891 0.0
C349 C 0.53219 0.99835 0.53602 0.0
C350 C 0.54322 0.97361 0.63122 0.0
C351 C 0.53502 0.99506 0.6362 0.0
H352 H 0.20494 0.28524 0.96795 0.0
H353 H 0.26424 0.29397 0.14053 0.0
H354 H 0.29828 0.25731 0.14976 0.0
H355 H 0.31195 0.22278 0.10882 0.0
H356 H 0.25399 0.21423 0.93594 0.0
H357 H 0.21876 0.25079 0.92701 0.0
C358 C 0.22515 0.27914 0.00763 0.0
C359 C 0.23193 0.29236 0.05346 0.0
C360 C 0.24498 0.25805 0.01265 0.0
C361 C 0.25854 0.28417 0.10451 0.0
C362 C 0.278 0.26318 0.10988 0.0
C363 C 0.29149 0.22889 0.0692 0.0
C364 C 0.28562 0.21574 0.02319 0.0
C365 C 0.27155 0.24999 0.06422 0.0
C366 C 0.25917 0.22397 0.97211 0.0
C367 C 0.23895 0.2449 0.96691 0.0
H368 H 0.68478 0.77492 0.12271 0.0
H369 H 0.77614 0.78795 0.95797 0.0
H370 H 0.81629 0.7518 0.94676 0.0
H371 H 0.82251 0.71635 0.98262 0.0
H372 H 0.72747 0.70294 0.1462 0.0
H373 H 0.69231 0.7394 0.159 0.0
C374 C 0.71369 0.76988 0.0844 0.0
C375 C 0.72726 0.78416 0.04126 0.0
C376 C 0.73614 0.74899 0.078 0.0
C377 C 0.7646 0.77731 0.99182 0.0
C378 C 0.78777 0.75662 0.98537 0.0
C379 C 0.79478 0.7214 0.0213 0.0
C380 C 0.77786 0.70691 0.06344 0.0
C381 C 0.77353 0.74232 0.02807 0.0
C382 C 0.74122 0.71375 0.11307 0.0
C383 C 0.72093 0.7346 0.1204 0.0
H384 H 0.27042 0.71882 0.49871 0.0
H385 H 0.15361 0.72165 0.33747 0.0
H386 H 0.18745 0.75845 0.33072 0.0
H387 H 0.24604 0.79014 0.37196 0.0
H388 H 0.36605 0.78694 0.53226 0.0
H389 H 0.33568 0.75003 0.53769 0.0
C390 C 0.25243 0.72748 0.46206 0.0
C391 C 0.20896 0.71752 0.41887 0.0
C392 C 0.27276 0.7486 0.45819 0.0
C393 C 0.18705 0.72893 0.37138 0.0
C394 C 0.20627 0.74999 0.36749 0.0
C395 C 0.26601 0.78135 0.40793 0.0
C396 C 0.30789 0.79138 0.4517 0.0
C397 C 0.24855 0.76003 0.41082 0.0
C398 C 0.33378 0.77968 0.49787 0.0
C399 C 0.31617 0.75854 0.50117 0.0
H400 H 0.79347 0.28497 0.37253 0.0
H401 H 0.76617 0.29052 0.5494 0.0
H402 H 0.73619 0.25356 0.55657 0.0
H403 H 0.71876 0.21963 0.51289 0.0
H404 H 0.74776 0.21396 0.33617 0.0
H405 H 0.77571 0.25103 0.3288 0.0
C406 C 0.78095 0.27813 0.4127 0.0
C407 C 0.78218 0.29056 0.46035 0.0
C408 C 0.76391 0.25683 0.41658 0.0
C409 C 0.76582 0.28136 0.51202 0.0
C410 C 0.74855 0.2602 0.51618 0.0
C411 C 0.73086 0.22649 0.47267 0.0
C412 C 0.73105 0.21398 0.42514 0.0
C413 C 0.7475 0.24779 0.46875 0.0
C414 C 0.74727 0.22317 0.37346 0.0
C415 C 0.76331 0.24439 0.36919 0.0
H416 H 0.99589 0.4035 0.16223 0.0
H417 H 0.06305 0.33889 0.15441 0.0
H418 H 0.02915 0.3348 0.25243 0.0
H419 H 0.97429 0.34925 0.33931 0.0
H420 H 0.91216 0.41418 0.34751 0.0
H421 H 0.95102 0.41846 0.25052 0.0
C422 C 1.00322 0.38852 0.18196 0.0
C423 C 0.03103 0.37148 0.15086 0.0
C424 C 0.98455 0.38632 0.23842 0.0
C425 C 0.04158 0.35226 0.17733 0.0
C426 C 0.02205 0.34989 0.23337 0.0
C427 C 0.96967 0.36437 0.31996 0.0
C428 C 0.93933 0.38131 0.3505 0.0
C429 C 0.99259 0.36677 0.26417 0.0
C430 C 0.93489 0.40084 0.32497 0.0
C431 C 0.95687 0.40331 0.26942 0.0
H432 H 0.96536 0.65169 0.14174 0.0
H433 H 0.95269 0.58512 0.13907 0.0
H434 H 0.96928 0.58385 0.23944 0.0
H435 H 0.99717 0.60148 0.32729 0.0
H436 H 0.02309 0.66784 0.32942 0.0
H437 H 0.99219 0.66944 0.23045 0.0
C438 C 0.96499 0.63698 0.16345 0.0
C439 C 0.95733 0.61853 0.13337 0.0
C440 C 0.97813 0.63632 0.22103 0.0
C441 C 0.95845 0.59951 0.16158 0.0
C442 C 0.96815 0.59877 0.2189 0.0
C443 C 0.99537 0.61629 0.30612 0.0
C444 C 0.01291 0.63449 0.33555 0.0
C445 C 0.97963 0.61704 0.24895 0.0
C446 C 0.01103 0.65357 0.3075 0.0
C447 C 0.99291 0.65451 0.25095 0.0
H448 H 0.91106 0.66132 0.81084 0.0
H449 H 0.00644 0.60077 0.85096 0.0
H450 H 0.0553 0.59629 0.75562 0.0
H451 H 0.07239 0.61007 0.6608 0.0
H452 H 0.98103 0.67139 0.62282 0.0
H453 H 0.92817 0.67504 0.71702 0.0
C454 C 0.94259 0.64714 0.79874 0.0
C455 C 0.95595 0.63139 0.83802 0.0
C456 C 0.97074 0.64482 0.74405 0.0
C457 C 0.99687 0.61316 0.82164 0.0
C458 C 0.02417 0.61058 0.76706 0.0
C459 C 0.04031 0.62415 0.67311 0.0
C460 C 0.03062 0.64043 0.63484 0.0
C461 C 0.01164 0.62635 0.72788 0.0
C462 C 0.98965 0.65866 0.65153 0.0
C463 C 0.95941 0.66078 0.70541 0.0
H464 H 0.99869 0.40415 0.66412 0.0
H465 H 0.88487 0.34342 0.65688 0.0
H466 H 0.92105 0.33746 0.75374 0.0
H467 H 0.9909 0.3489 0.83972 0.0
H468 H 0.10436 0.4096 0.84609 0.0
H469 H 0.06193 0.41616 0.75067 0.0
C470 C 0.98132 0.38963 0.68367 0.0
C471 C 0.93961 0.37422 0.65289 0.0
C472 C 1.00238 0.38626 0.73939 0.0
C473 C 0.91709 0.35558 0.67934 0.0
C474 C 0.93799 0.35211 0.73479 0.0
C475 C 0.00599 0.36357 0.82017 0.0
C476 C 0.05026 0.37878 0.85002 0.0
C477 C 0.98162 0.36723 0.76504 0.0
C478 C 0.06918 0.39775 0.82429 0.0
C479 C 0.04544 0.40148 0.76958 0.0
H480 H 0.65708 0.86316 0.18427 0.0
H481 H 0.39172 0.86428 0.14083 0.0
H482 H 0.35262 0.86638 0.23863 0.0
H483 H 0.39525 0.87106 0.33612 0.0
H484 H 0.66151 0.87441 0.37682 0.0
H485 H 0.69942 0.86729 0.28093 0.0
C486 C 0.59079 0.86347 0.19653 0.0
C487 C 0.52724 0.86346 0.15605 0.0
C488 C 0.56919 0.8657 0.25232 0.0
C489 C 0.44147 0.86429 0.17179 0.0
C490 C 0.4192 0.86554 0.22752 0.0
C491 C 0.46132 0.86999 0.32375 0.0
C492 C 0.52563 0.87327 0.36283 0.0
C493 C 0.48262 0.86675 0.2681 0.0
C494 C 0.61119 0.87208 0.34687 0.0
C495 C 0.63287 0.86797 0.29224 0.0
H496 H 0.59241 0.129 0.14208 0.0
H497 H 0.32326 0.1402 0.15541 0.0
H498 H 0.334 0.14037 0.25616 0.0
H499 H 0.41873 0.13544 0.34058 0.0
H500 H 0.6898 0.12783 0.3284 0.0
H501 H 0.6802 0.12829 0.22712 0.0
C502 C 0.53648 0.13163 0.16724 0.0
C503 C 0.45705 0.13436 0.14168 0.0
C504 C 0.54355 0.1323 0.22517 0.0
C505 C 0.38503 0.13807 0.17437 0.0
C506 C 0.39105 0.13809 0.2319 0.0
C507 C 0.4756 0.13409 0.31554 0.0
C508 C 0.55465 0.13139 0.34132 0.0
C509 C 0.46972 0.13494 0.25772 0.0
C510 C 0.62834 0.12992 0.309 0.0
C511 C 0.62276 0.1301 0.25127 0.0
H512 H 0.47511 0.16012 0.82842 0.0
H513 H 0.44523 0.09389 0.83973 0.0
H514 H 0.49125 0.09035 0.74363 0.0
H515 H 0.53761 0.10634 0.65543 0.0
H516 H 0.5737 0.1724 0.64734 0.0
H517 H 0.52661 0.17577 0.7429 0.0
C518 C 0.47882 0.14488 0.81002 0.0
C519 C 0.45607 0.12733 0.8411 0.0
C520 C 0.50589 0.14295 0.75512 0.0
C521 C 0.46215 0.10769 0.81668 0.0
C522 C 0.48821 0.10564 0.76167 0.0
C523 C 0.53491 0.12142 0.6748 0.0
C524 C 0.55885 0.13909 0.64462 0.0
C525 C 0.50961 0.1232 0.73033 0.0
C526 C 0.55613 0.15856 0.67003 0.0
C527 C 0.52909 0.16051 0.72458 0.0
H528 H 0.51271 0.84153 0.66086 0.0
H529 H 0.47359 0.90717 0.64481 0.0
H530 H 0.51592 0.91216 0.74131 0.0
H531 H 0.54943 0.8972 0.83208 0.0
H532 H 0.59164 0.83156 0.84794 0.0
H533 H 0.56324 0.82706 0.7492 0.0
C534 C 0.51491 0.85692 0.67852 0.0
C535 C 0.49081 0.87404 0.64644 0.0
C536 C 0.53887 0.85956 0.73377 0.0
C537 C 0.49381 0.89394 0.66896 0.0
C538 C 0.51693 0.89671 0.7241 0.0
C539 C 0.55317 0.88196 0.81368 0.0
C540 C 0.57102 0.86467 0.84699 0.0
C541 C 0.53747 0.87956 0.75716 0.0
C542 C 0.57757 0.84504 0.82287 0.0
C543 C 0.56102 0.84247 0.76662 0.0
loop_
_geom_bond_atom_site_label_1
_geom_bond_atom_site_label_2
_geom_bond_distance
_geom_bond_site_symmetry_2
_ccdc_geom_bond_type
Zn0 O6 1.969 . S
Zn0 O7 1.965 1_556 S
Zn0 O11 2.024 1_556 S
Zn0 O16 1.969 . S
Zn1 O8 1.969 . S
Zn1 O14 1.969 . S
Zn1 O15 1.965 1_654 S
Zn1 O17 2.024 1_554 S
C2 O3 1.229 . S
C2 O11 1.058 1_556 S
O3 C2 1.229 . S
C4 O5 1.229 . S
C4 O17 1.058 1_554 S
O5 C4 1.229 . S
O6 Zn0 1.969 . S
O6 C9 1.267 1_556 S
O7 Zn0 1.965 1_554 S
O7 C18 1.260 . S
O8 Zn1 1.969 . S
O8 C18 1.258 1_655 S
C9 O6 1.267 1_554 S
C9 O10 1.228 . S
O10 C9 1.228 . S
O11 Zn0 2.024 1_554 S
O11 C2 1.058 1_554 S
C12 O13 1.228 . S
C12 O14 1.267 1_556 S
O13 C12 1.228 . S
O14 Zn1 1.969 . S
O14 C12 1.267 1_554 S
O15 Zn1 1.965 1_456 S
O15 C19 1.260 . S
O16 Zn0 1.969 . S
O16 C19 1.258 . S
O17 Zn1 2.024 1_556 S
O17 C4 1.058 1_556 S
C18 O7 1.260 . S
C18 O8 1.258 1_455 S
C19 O15 1.260 . S
C19 O16 1.258 . S
Zn20 O26 1.969 . S
Zn20 O27 1.965 1_556 S
Zn20 O31 2.024 1_556 S
Zn20 O36 1.969 . S
Zn21 O28 1.969 . S
Zn21 O34 1.969 . S
Zn21 O35 1.965 1_454 S
Zn21 O37 2.024 1_554 S
C22 O23 1.229 . S
C22 O31 1.058 1_556 S
O23 C22 1.229 . S
C24 O25 1.229 . S
C24 O37 1.058 1_554 S
O25 C24 1.229 . S
O26 Zn20 1.969 . S
O26 C29 1.267 1_556 S
O27 Zn20 1.965 1_554 S
O27 C38 1.260 . S
O28 Zn21 1.969 . S
O28 C38 1.258 1_455 S
C29 O26 1.267 1_554 S
C29 O30 1.228 . S
O30 C29 1.228 . S
O31 Zn20 2.024 1_554 S
O31 C22 1.058 1_554 S
C32 O33 1.228 . S
C32 O34 1.267 1_556 S
O33 C32 1.228 . S
O34 Zn21 1.969 . S
O34 C32 1.267 1_554 S
O35 Zn21 1.965 1_656 S
O35 C39 1.260 . S
O36 Zn20 1.969 . S
O36 C39 1.258 . S
O37 Zn21 2.024 1_556 S
O37 C24 1.058 1_556 S
C38 O27 1.260 . S
C38 O28 1.258 1_655 S
C39 O35 1.260 . S
C39 O36 1.258 . S
Zn40 O46 1.969 . S
Zn40 O47 1.965 . S
Zn40 O51 2.024 . S
Zn40 O56 1.969 . S
Zn41 O48 1.969 . S
Zn41 O54 1.969 . S
Zn41 O55 1.965 1_655 S
Zn41 O57 2.024 . S
C42 O43 1.229 . S
C42 O51 1.058 . S
O43 C42 1.229 . S
C44 O45 1.229 . S
C44 O57 1.058 . S
O45 C44 1.229 . S
O46 Zn40 1.969 . S
O46 C49 1.267 . S
O47 Zn40 1.965 . S
O47 C58 1.260 . S
O48 Zn41 1.969 . S
O48 C58 1.258 1_655 S
C49 O46 1.267 . S
C49 O50 1.228 . S
O50 C49 1.228 . S
O51 Zn40 2.024 . S
O51 C42 1.058 . S
C52 O53 1.228 . S
C52 O54 1.267 . S
O53 C52 1.228 . S
O54 Zn41 1.969 . S
O54 C52 1.267 . S
O55 Zn41 1.965 1_455 S
O55 C59 1.260 . S
O56 Zn40 1.969 . S
O56 C59 1.258 . S
O57 Zn41 2.024 . S
O57 C44 1.058 . S
C58 O47 1.260 . S
C58 O48 1.258 1_455 S
C59 O55 1.260 . S
C59 O56 1.258 . S
Zn60 O66 1.969 . S
Zn60 O67 1.965 . S
Zn60 O71 2.024 . S
Zn60 O76 1.969 . S
Zn61 O68 1.969 . S
Zn61 O74 1.969 . S
Zn61 O75 1.965 1_455 S
Zn61 O77 2.024 . S
C62 O63 1.229 . S
C62 O71 1.058 . S
O63 C62 1.229 . S
C64 O65 1.229 . S
C64 O77 1.058 . S
O65 C64 1.229 . S
O66 Zn60 1.969 . S
O66 C69 1.267 . S
O67 Zn60 1.965 . S
O67 C78 1.260 . S
O68 Zn61 1.969 . S
O68 C78 1.258 1_455 S
C69 O66 1.267 . S
C69 O70 1.228 . S
O70 C69 1.228 . S
O71 Zn60 2.024 . S
O71 C62 1.058 . S
C72 O73 1.228 . S
C72 O74 1.267 . S
O73 C72 1.228 . S
O74 Zn61 1.969 . S
O74 C72 1.267 . S
O75 Zn61 1.965 1_655 S
O75 C79 1.260 . S
O76 Zn60 1.969 . S
O76 C79 1.258 . S
O77 Zn61 2.024 . S
O77 C64 1.058 . S
C78 O67 1.260 . S
C78 O68 1.258 1_655 S
C79 O75 1.260 . S
C79 O76 1.258 . S
Zn80 O86 1.969 . S
Zn80 O87 1.965 1_556 S
Zn80 O91 2.024 1_556 S
Zn80 O96 1.969 . S
Zn81 O88 1.969 . S
Zn81 O94 1.969 . S
Zn81 O95 1.965 1_554 S
Zn81 O97 2.024 1_554 S
C82 O83 1.229 . S
C82 O91 1.058 1_556 S
O83 C82 1.229 . S
C84 O85 1.229 . S
C84 O97 1.058 1_554 S
O85 C84 1.229 . S
O86 Zn80 1.969 . S
O86 C89 1.267 1_556 S
O87 Zn80 1.965 1_554 S
O87 C98 1.260 . S
O88 Zn81 1.969 . S
O88 C98 1.258 . S
C89 O86 1.267 1_554 S
C89 O90 1.228 . S
O90 C89 1.228 . S
O91 Zn80 2.024 1_554 S
O91 C82 1.058 1_554 S
C92 O93 1.228 . S
C92 O94 1.267 1_556 S
O93 C92 1.228 . S
O94 Zn81 1.969 . S
O94 C92 1.267 1_554 S
O95 Zn81 1.965 1_556 S
O95 C99 1.260 . S
O96 Zn80 1.969 . S
O96 C99 1.258 . S
O97 Zn81 2.024 1_556 S
O97 C84 1.058 1_556 S
C98 O87 1.260 . S
C98 O88 1.258 . S
C99 O95 1.260 . S
C99 O96 1.258 . S
Zn100 O106 1.969 . S
Zn100 O107 1.965 1_556 S
Zn100 O111 2.024 1_556 S
Zn100 O116 1.969 . S
Zn101 O108 1.969 . S
Zn101 O114 1.969 . S
Zn101 O115 1.965 1_554 S
Zn101 O117 2.024 1_554 S
C102 O103 1.229 . S
C102 O111 1.058 1_556 S
O103 C102 1.229 . S
C104 O105 1.229 . S
C104 O117 1.058 1_554 S
O105 C104 1.229 . S
O106 Zn100 1.969 . S
O106 C109 1.267 1_556 S
O107 Zn100 1.965 1_554 S
O107 C118 1.260 . S
O108 Zn101 1.969 . S
O108 C118 1.258 . S
C109 O106 1.267 1_554 S
C109 O110 1.228 . S
O110 C109 1.228 . S
O111 Zn100 2.024 1_554 S
O111 C102 1.058 1_554 S
C112 O113 1.228 . S
C112 O114 1.267 1_556 S
O113 C112 1.228 . S
O114 Zn101 1.969 . S
O114 C112 1.267 1_554 S
O115 Zn101 1.965 1_556 S
O115 C119 1.260 . S
O116 Zn100 1.969 . S
O116 C119 1.258 . S
O117 Zn101 2.024 1_556 S
O117 C104 1.058 1_556 S
C118 O107 1.260 . S
C118 O108 1.258 . S
C119 O115 1.260 . S
C119 O116 1.258 . S
Zn120 O126 1.969 . S
Zn120 O127 1.965 . S
Zn120 O131 2.024 . S
Zn120 O136 1.969 . S
Zn121 O128 1.969 . S
Zn121 O134 1.969 . S
Zn121 O135 1.965 . S
Zn121 O137 2.024 . S
C122 O123 1.229 . S
C122 O131 1.058 . S
O123 C122 1.229 . S
C124 O125 1.229 . S
C124 O137 1.058 . S
O125 C124 1.229 . S
O126 Zn120 1.969 . S
O126 C129 1.267 . S
O127 Zn120 1.965 . S
O127 C138 1.260 . S
O128 Zn121 1.969 . S
O128 C138 1.258 . S
C129 O126 1.267 . S
C129 O130 1.228 . S
O130 C129 1.228 . S
O131 Zn120 2.024 . S
O131 C122 1.058 . S
C132 O133 1.228 . S
C132 O134 1.267 . S
O133 C132 1.228 . S
O134 Zn121 1.969 . S
O134 C132 1.267 . S
O135 Zn121 1.965 . S
O135 C139 1.260 . S
O136 Zn120 1.969 . S
O136 C139 1.258 . S
O137 Zn121 2.024 . S
O137 C124 1.058 . S
C138 O127 1.260 . S
C138 O128 1.258 . S
C139 O135 1.260 . S
C139 O136 1.258 . S
Zn140 O146 1.969 . S
Zn140 O147 1.965 . S
Zn140 O151 2.024 . S
Zn140 O156 1.969 . S
Zn141 O148 1.969 . S
Zn141 O154 1.969 . S
Zn141 O155 1.965 . S
Zn141 O157 2.024 . S
C142 O143 1.229 . S
C142 O151 1.058 . S
O143 C142 1.229 . S
C144 O145 1.229 . S
C144 O157 1.058 . S
O145 C144 1.229 . S
O146 Zn140 1.969 . S
O146 C149 1.267 . S
O147 Zn140 1.965 . S
O147 C158 1.260 . S
O148 Zn141 1.969 . S
O148 C158 1.258 . S
C149 O146 1.267 . S
C149 O150 1.228 . S
O150 C149 1.228 . S
O151 Zn140 2.024 . S
O151 C142 1.058 . S
C152 O153 1.228 . S
C152 O154 1.267 . S
O153 C152 1.228 . S
O154 Zn141 1.969 . S
O154 C152 1.267 . S
O155 Zn141 1.965 . S
O155 C159 1.260 . S
O156 Zn140 1.969 . S
O156 C159 1.258 . S
O157 Zn141 2.024 . S
O157 C144 1.058 . S
C158 O147 1.260 . S
C158 O148 1.258 . S
C159 O155 1.260 . S
C159 O156 1.258 . S
H160 C166 0.930 . S
H161 C169 0.930 . S
H162 C170 0.930 . S
H163 C171 0.930 . S
H164 C174 0.930 . S
H165 C175 0.930 . S
C166 H160 0.930 . S
C166 C167 1.354 1_556 S
C166 C168 1.415 . S
C167 C166 1.354 1_554 S
C167 C169 1.421 . S
C168 C166 1.415 . S
C168 C173 1.425 1_556 S
C168 C175 1.409 . S
C169 H161 0.930 . S
C169 C167 1.421 . S
C169 C170 1.362 . S
C170 H162 0.930 . S
C170 C169 1.362 . S
C170 C173 1.409 . S
C171 H163 0.930 . S
C171 C172 1.354 1_554 S
C171 C173 1.415 . S
C172 C171 1.354 1_556 S
C172 C174 1.420 . S
C173 C168 1.425 1_554 S
C173 C170 1.409 . S
C173 C171 1.415 . S
C174 H164 0.930 . S
C174 C172 1.420 . S
C174 C175 1.362 . S
C175 H165 0.930 . S
C175 C168 1.409 . S
C175 C174 1.362 . S
H176 C182 0.930 . S
H177 C185 0.930 . S
H178 C186 0.930 . S
H179 C187 0.930 . S
H180 C190 0.930 . S
H181 C191 0.930 . S
C182 H176 0.930 . S
C182 C183 1.355 . S
C182 C184 1.415 . S
C183 C182 1.355 . S
C183 C185 1.419 1_554 S
C184 C182 1.415 . S
C184 C189 1.425 1_554 S
C184 C191 1.409 . S
C185 H177 0.930 . S
C185 C183 1.419 1_556 S
C185 C186 1.362 . S
C186 H178 0.930 . S
C186 C185 1.362 . S
C186 C189 1.409 . S
C187 H179 0.930 . S
C187 C188 1.355 . S
C187 C189 1.415 . S
C188 C187 1.355 . S
C188 C190 1.419 1_556 S
C189 C184 1.425 1_556 S
C189 C186 1.409 . S
C189 C187 1.415 . S
C190 H180 0.930 . S
C190 C188 1.419 1_554 S
C190 C191 1.362 . S
C191 H181 0.930 . S
C191 C184 1.409 . S
C191 C190 1.362 . S
H192 C198 0.930 . S
H193 C201 0.930 . S
H194 C202 0.930 . S
H195 C203 0.930 . S
H196 C206 0.930 . S
H197 C207 0.930 . S
C198 H192 0.930 . S
C198 C199 1.355 . S
C198 C200 1.415 . S
C199 C198 1.355 . S
C199 C201 1.419 . S
C200 C198 1.415 . S
C200 C205 1.425 . S
C200 C207 1.409 . S
C201 H193 0.930 . S
C201 C199 1.419 . S
C201 C202 1.362 . S
C202 H194 0.930 . S
C202 C201 1.362 . S
C202 C205 1.409 . S
C203 H195 0.930 . S
C203 C204 1.355 . S
C203 C205 1.415 . S
C204 C203 1.355 . S
C204 C206 1.419 . S
C205 C200 1.425 . S
C205 C202 1.409 . S
C205 C203 1.415 . S
C206 H196 0.930 . S
C206 C204 1.419 . S
C206 C207 1.362 . S
C207 H197 0.930 . S
C207 C200 1.409 . S
C207 C206 1.362 . S
H208 C214 0.930 . S
H209 C217 0.930 . S
H210 C218 0.930 . S
H211 C219 0.930 . S
H212 C222 0.930 . S
H213 C223 0.930 . S
C214 H208 0.930 . S
C214 C215 1.355 . S
C214 C216 1.415 . S
C215 C214 1.355 . S
C215 C217 1.419 . S
C216 C214 1.415 . S
C216 C221 1.425 . S
C216 C223 1.409 . S
C217 H209 0.930 . S
C217 C215 1.419 . S
C217 C218 1.362 . S
C218 H210 0.930 . S
C218 C217 1.362 . S
C218 C221 1.409 . S
C219 H211 0.930 . S
C219 C220 1.355 . S
C219 C221 1.415 . S
C220 C219 1.355 . S
C220 C222 1.419 . S
C221 C216 1.425 . S
C221 C218 1.409 . S
C221 C219 1.415 . S
C222 H212 0.930 . S
C222 C220 1.419 . S
C222 C223 1.362 . S
C223 H213 0.930 . S
C223 C216 1.409 . S
C223 C222 1.362 . S
H224 C230 0.930 . S
H225 C233 0.930 . S
H226 C234 0.930 . S
H227 C235 0.930 . S
H228 C238 0.930 . S
H229 C239 0.930 . S
C230 H224 0.930 . S
C230 C231 1.355 1_554 S
C230 C232 1.415 1_655 S
C231 C230 1.355 1_556 S
C231 C233 1.419 . S
C232 C230 1.415 1_455 S
C232 C237 1.425 1_554 S
C232 C239 1.409 . S
C233 H225 0.930 . S
C233 C231 1.419 . S
C233 C234 1.362 1_655 S
C234 H226 0.930 . S
C234 C233 1.362 1_455 S
C234 C237 1.409 . S
C235 H227 0.930 . S
C235 C236 1.355 1_556 S
C235 C237 1.415 . S
C236 C235 1.355 1_554 S
C236 C238 1.419 . S
C237 C232 1.425 1_556 S
C237 C234 1.409 . S
C237 C235 1.415 . S
C238 H228 0.930 . S
C238 C236 1.419 . S
C238 C239 1.362 . S
C239 H229 0.930 . S
C239 C232 1.409 . S
C239 C238 1.362 . S
H240 C246 0.930 . S
H241 C249 0.930 . S
H242 C250 0.930 . S
H243 C251 0.930 . S
H244 C254 0.930 . S
H245 C255 0.930 . S
C246 H240 0.930 . S
C246 C247 1.361 . S
C246 C248 1.415 1_455 S
C247 C246 1.361 . S
C247 C249 1.411 1_556 S
C248 C246 1.415 1_655 S
C248 C253 1.425 1_556 S
C248 C255 1.409 . S
C249 H241 0.930 . S
C249 C247 1.411 1_554 S
C249 C250 1.362 1_455 S
C250 H242 0.930 . S
C250 C249 1.362 1_655 S
C250 C253 1.409 . S
C251 H243 0.930 . S
C251 C252 1.363 . S
C251 C253 1.415 . S
C252 C251 1.363 . S
C252 C254 1.409 1_554 S
C253 C248 1.425 1_554 S
C253 C250 1.409 . S
C253 C251 1.415 . S
C254 H244 0.930 . S
C254 C252 1.409 1_556 S
C254 C255 1.362 . S
C255 H245 0.930 . S
C255 C248 1.409 . S
C255 C254 1.362 . S
H256 C262 0.930 . S
H257 C265 0.930 . S
H258 C266 0.930 . S
H259 C267 0.930 . S
H260 C270 0.930 . S
H261 C271 0.930 . S
C262 H256 0.930 . S
C262 C263 1.355 . S
C262 C264 1.415 . S
C263 C262 1.355 . S
C263 C265 1.419 . S
C264 C262 1.415 . S
C264 C269 1.425 . S
C264 C271 1.409 . S
C265 H257 0.930 . S
C265 C263 1.419 . S
C265 C266 1.362 . S
C266 H258 0.930 . S
C266 C265 1.362 . S
C266 C269 1.409 . S
C267 H259 0.930 . S
C267 C268 1.355 . S
C267 C269 1.415 1_655 S
C268 C267 1.355 . S
C268 C270 1.419 . S
C269 C264 1.425 . S
C269 C266 1.409 . S
C269 C267 1.415 1_455 S
C270 H260 0.930 . S
C270 C268 1.419 . S
C270 C271 1.362 1_655 S
C271 H261 0.930 . S
C271 C264 1.409 . S
C271 C270 1.362 1_455 S
H272 C278 0.930 . S
H273 C281 0.930 . S
H274 C282 0.930 . S
H275 C283 0.930 . S
H276 C286 0.930 . S
H277 C287 0.930 . S
C278 H272 0.930 . S
C278 C279 1.355 . S
C278 C280 1.415 . S
C279 C278 1.355 . S
C279 C281 1.419 . S
C280 C278 1.415 . S
C280 C285 1.425 . S
C280 C287 1.409 . S
C281 H273 0.930 . S
C281 C279 1.419 . S
C281 C282 1.362 . S
C282 H274 0.930 . S
C282 C281 1.362 . S
C282 C285 1.409 . S
C283 H275 0.930 . S
C283 C284 1.355 . S
C283 C285 1.415 1_455 S
C284 C283 1.355 . S
C284 C286 1.419 . S
C285 C280 1.425 . S
C285 C282 1.409 . S
C285 C283 1.415 1_655 S
C286 H276 0.930 . S
C286 C284 1.419 . S
C286 C287 1.362 1_455 S
C287 H277 0.930 . S
C287 C280 1.409 . S
C287 C286 1.362 1_655 S
H288 C294 0.930 . S
H289 C297 0.930 . S
H290 C298 0.930 . S
H291 C299 0.930 . S
H292 C302 0.930 . S
H293 C303 0.930 . S
C294 H288 0.930 . S
C294 C295 1.355 1_654 S
C294 C296 1.415 . S
C295 C294 1.355 1_456 S
C295 C297 1.419 . S
C296 C294 1.415 . S
C296 C301 1.425 1_654 S
C296 C303 1.409 . S
C297 H289 0.930 . S
C297 C295 1.419 . S
C297 C298 1.362 . S
C298 H290 0.930 . S
C298 C297 1.362 . S
C298 C301 1.409 . S
C299 H291 0.930 . S
C299 C300 1.355 1_455 S
C299 C301 1.415 . S
C300 C299 1.355 1_655 S
C300 C302 1.419 1_556 S
C301 C296 1.425 1_456 S
C301 C298 1.409 . S
C301 C299 1.415 . S
C302 H292 0.930 . S
C302 C300 1.419 1_554 S
C302 C303 1.362 . S
C303 H293 0.930 . S
C303 C296 1.409 . S
C303 C302 1.362 . S
H304 C310 0.930 . S
H305 C313 0.930 . S
H306 C314 0.930 . S
H307 C315 0.930 . S
H308 C318 0.930 . S
H309 C319 0.930 . S
C310 H304 0.930 . S
C310 C311 1.355 1_655 S
C310 C312 1.415 . S
C311 C310 1.355 1_455 S
C311 C313 1.419 . S
C312 C310 1.415 . S
C312 C317 1.425 1_655 S
C312 C319 1.409 . S
C313 H305 0.930 . S
C313 C311 1.419 . S
C313 C314 1.362 . S
C314 H306 0.930 . S
C314 C313 1.362 . S
C314 C317 1.409 . S
C315 H307 0.930 . S
C315 C316 1.355 1_455 S
C315 C317 1.415 . S
C316 C315 1.355 1_655 S
C316 C318 1.419 . S
C317 C312 1.425 1_455 S
C317 C314 1.409 . S
C317 C315 1.415 . S
C318 H308 0.930 . S
C318 C316 1.419 . S
C318 C319 1.362 . S
C319 H309 0.930 . S
C319 C312 1.409 . S
C319 C318 1.362 . S
H320 C326 0.926 1_554 S
H321 C329 0.930 . S
H322 C330 0.930 . S
H323 C331 0.930 . S
H324 C334 0.930 . S
H325 C335 0.930 . S
C326 H320 0.926 1_556 S
C326 C327 1.358 . S
C326 C328 1.415 . S
C327 C326 1.358 . S
C327 C329 1.419 . S
C328 C326 1.415 . S
C328 C333 1.425 1_565 S
C328 C335 1.409 1_566 S
C329 H321 0.930 . S
C329 C327 1.419 . S
C329 C330 1.362 . S
C330 H322 0.930 . S
C330 C329 1.362 . S
C330 C333 1.409 1_565 S
C331 H323 0.930 . S
C331 C332 1.355 . S
C331 C333 1.415 . S
C332 C331 1.355 . S
C332 C334 1.419 1_556 S
C333 C328 1.425 1_545 S
C333 C330 1.409 1_545 S
C333 C331 1.415 . S
C334 H324 0.930 . S
C334 C332 1.419 1_554 S
C334 C335 1.362 . S
C335 H325 0.930 . S
C335 C328 1.409 1_544 S
C335 C334 1.362 . S
H336 C342 0.930 . S
H337 C345 0.930 . S
H338 C346 0.949 . S
H339 C347 0.930 . S
H340 C350 0.930 . S
H341 C351 0.949 . S
C342 H336 0.930 . S
C342 C343 1.355 . S
C342 C344 1.415 . S
C343 C342 1.355 . S
C343 C345 1.419 . S
C344 C342 1.415 . S
C344 C349 1.425 1_545 S
C344 C351 1.409 1_545 S
C345 H337 0.930 . S
C345 C343 1.419 . S
C345 C346 1.362 . S
C346 H338 0.949 . S
C346 C345 1.362 . S
C346 C349 1.409 1_545 S
C347 H339 0.930 . S
C347 C348 1.355 . S
C347 C349 1.415 . S
C348 C347 1.355 . S
C348 C350 1.419 . S
C349 C344 1.425 1_565 S
C349 C346 1.409 1_565 S
C349 C347 1.415 . S
C350 H340 0.930 . S
C350 C348 1.419 . S
C350 C351 1.362 . S
C351 H341 0.949 . S
C351 C344 1.409 1_565 S
C351 C350 1.362 . S
H352 C358 0.930 . S
H353 C361 0.930 . S
H354 C362 0.930 . S
H355 C363 0.930 . S
H356 C366 0.930 . S
H357 C367 0.930 . S
C358 H352 0.930 . S
C358 C359 1.355 1_556 S
C358 C360 1.415 . S
C359 C358 1.355 1_554 S
C359 C361 1.419 . S
C360 C358 1.415 . S
C360 C365 1.425 1_556 S
C360 C367 1.409 . S
C361 H353 0.930 . S
C361 C359 1.419 . S
C361 C362 1.362 . S
C362 H354 0.930 . S
C362 C361 1.362 . S
C362 C365 1.409 . S
C363 H355 0.930 . S
C363 C364 1.355 . S
C363 C365 1.415 . S
C364 C363 1.355 . S
C364 C366 1.419 1_554 S
C365 C360 1.425 1_554 S
C365 C362 1.409 . S
C365 C363 1.415 . S
C366 H356 0.930 . S
C366 C364 1.419 1_556 S
C366 C367 1.362 . S
C367 H357 0.930 . S
C367 C360 1.409 . S
C367 C366 1.362 . S
H368 C374 0.930 . S
H369 C377 0.930 1_556 S
H370 C378 0.936 . S
H371 C379 0.930 1_556 S
H372 C382 0.930 . S
H373 C383 0.930 . S
C374 H368 0.930 . S
C374 C375 1.355 . S
C374 C376 1.415 . S
C375 C374 1.355 . S
C375 C377 1.419 . S
C376 C374 1.415 . S
C376 C381 1.425 . S
C376 C383 1.409 . S
C377 H369 0.930 1_554 S
C377 C375 1.419 . S
C377 C378 1.361 1_554 S
C378 H370 0.936 . S
C378 C377 1.361 1_556 S
C378 C381 1.405 1_556 S
C379 H371 0.930 1_554 S
C379 C380 1.355 . S
C379 C381 1.415 . S
C380 C379 1.355 . S
C380 C382 1.419 . S
C381 C376 1.425 . S
C381 C378 1.405 1_554 S
C381 C379 1.415 . S
C382 H372 0.930 . S
C382 C380 1.419 . S
C382 C383 1.362 . S
C383 H373 0.930 . S
C383 C376 1.409 . S
C383 C382 1.362 . S
H384 C390 0.930 . S
H385 C393 0.930 . S
H386 C394 0.930 . S
H387 C395 0.930 . S
H388 C398 0.930 . S
H389 C399 0.930 . S
C390 H384 0.930 . S
C390 C391 1.355 . S
C390 C392 1.415 . S
C391 C390 1.355 . S
C391 C393 1.419 . S
C392 C390 1.415 . S
C392 C397 1.425 . S
C392 C399 1.409 . S
C393 H385 0.930 . S
C393 C391 1.419 . S
C393 C394 1.362 . S
C394 H386 0.930 . S
C394 C393 1.362 . S
C394 C397 1.409 . S
C395 H387 0.930 . S
C395 C396 1.355 . S
C395 C397 1.415 . S
C396 C395 1.355 . S
C396 C398 1.419 . S
C397 C392 1.425 . S
C397 C394 1.409 . S
C397 C395 1.415 . S
C398 H388 0.930 . S
C398 C396 1.419 . S
C398 C399 1.362 . S
C399 H389 0.930 . S
C399 C392 1.409 . S
C399 C398 1.362 . S
H400 C406 0.930 . S
H401 C409 0.930 . S
H402 C410 0.930 . S
H403 C411 0.930 . S
H404 C414 0.930 . S
H405 C415 0.930 . S
C406 H400 0.930 . S
C406 C407 1.355 . S
C406 C408 1.415 . S
C407 C406 1.355 . S
C407 C409 1.419 . S
C408 C406 1.415 . S
C408 C413 1.425 . S
C408 C415 1.409 . S
C409 H401 0.930 . S
C409 C407 1.419 . S
C409 C410 1.362 . S
C410 H402 0.930 . S
C410 C409 1.362 . S
C410 C413 1.409 . S
C411 H403 0.930 . S
C411 C412 1.355 . S
C411 C413 1.415 . S
C412 C411 1.355 . S
C412 C414 1.419 . S
C413 C408 1.425 . S
C413 C410 1.409 . S
C413 C411 1.415 . S
C414 H404 0.930 . S
C414 C412 1.419 . S
C414 C415 1.362 . S
C415 H405 0.930 . S
C415 C408 1.409 . S
C415 C414 1.362 . S
H416 C422 0.930 . S
H417 C425 0.930 . S
H418 C426 0.930 . S
H419 C427 0.930 . S
H420 C430 0.930 . S
H421 C431 0.930 . S
C422 H416 0.930 . S
C422 C423 1.355 1_655 S
C422 C424 1.415 . S
C423 C422 1.355 1_455 S
C423 C425 1.419 . S
C424 C422 1.415 . S
C424 C429 1.425 1_655 S
C424 C431 1.409 . S
C425 H417 0.930 . S
C425 C423 1.419 . S
C425 C426 1.362 . S
C426 H418 0.930 . S
C426 C425 1.362 . S
C426 C429 1.409 . S
C427 H419 0.930 . S
C427 C428 1.355 1_455 S
C427 C429 1.415 . S
C428 C427 1.355 1_655 S
C428 C430 1.419 . S
C429 C424 1.425 1_455 S
C429 C426 1.409 . S
C429 C427 1.415 . S
C430 H420 0.930 . S
C430 C428 1.419 . S
C430 C431 1.362 . S
C431 H421 0.930 . S
C431 C424 1.409 . S
C431 C430 1.362 . S
H432 C438 0.930 1_455 S
H433 C441 0.930 . S
H434 C442 0.930 . S
H435 C443 0.930 1_655 S
H436 C446 0.930 . S
H437 C447 0.930 . S
C438 H432 0.930 1_655 S
C438 C439 1.355 . S
C438 C440 1.415 1_655 S
C439 C438 1.355 . S
C439 C441 1.419 . S
C440 C438 1.415 1_455 S
C440 C445 1.425 1_455 S
C440 C447 1.409 . S
C441 H433 0.930 . S
C441 C439 1.419 . S
C441 C442 1.362 . S
C442 H434 0.930 . S
C442 C441 1.362 . S
C442 C445 1.409 . S
C443 H435 0.930 1_455 S
C443 C444 1.355 . S
C443 C445 1.415 1_455 S
C444 C443 1.355 . S
C444 C446 1.419 . S
C445 C440 1.425 1_655 S
C445 C442 1.409 . S
C445 C443 1.415 1_655 S
C446 H436 0.930 . S
C446 C444 1.419 . S
C446 C447 1.362 . S
C447 H437 0.930 . S
C447 C440 1.409 . S
C447 C446 1.362 . S
H448 C454 0.930 . S
H449 C457 0.930 . S
H450 C458 0.930 . S
H451 C459 0.930 . S
H452 C462 0.930 . S
H453 C463 0.930 . S
C454 H448 0.930 . S
C454 C455 1.355 . S
C454 C456 1.415 . S
C455 C454 1.355 . S
C455 C457 1.419 . S
C456 C454 1.415 . S
C456 C461 1.425 1_655 S
C456 C463 1.409 . S
C457 H449 0.930 . S
C457 C455 1.419 . S
C457 C458 1.362 1_655 S
C458 H450 0.930 . S
C458 C457 1.362 1_455 S
C458 C461 1.409 . S
C459 H451 0.930 . S
C459 C460 1.355 . S
C459 C461 1.415 . S
C460 C459 1.355 . S
C460 C462 1.419 . S
C461 C456 1.425 1_455 S
C461 C458 1.409 . S
C461 C459 1.415 . S
C462 H452 0.930 . S
C462 C460 1.419 . S
C462 C463 1.362 1_455 S
C463 H453 0.930 . S
C463 C456 1.409 . S
C463 C462 1.362 1_655 S
H464 C470 0.930 . S
H465 C473 0.930 . S
H466 C474 0.930 . S
H467 C475 0.930 . S
H468 C478 0.930 . S
H469 C479 0.930 . S
C470 H464 0.930 . S
C470 C471 1.355 1_455 S
C470 C472 1.415 . S
C471 C470 1.355 1_655 S
C471 C473 1.419 . S
C472 C470 1.415 . S
C472 C477 1.425 1_455 S
C472 C479 1.409 . S
C473 H465 0.930 . S
C473 C471 1.419 . S
C473 C474 1.362 . S
C474 H466 0.930 . S
C474 C473 1.362 . S
C474 C477 1.409 . S
C475 H467 0.930 . S
C475 C476 1.355 1_655 S
C475 C477 1.415 . S
C476 C475 1.355 1_455 S
C476 C478 1.419 . S
C477 C472 1.425 1_655 S
C477 C474 1.409 . S
C477 C475 1.415 . S
C478 H468 0.930 . S
C478 C476 1.419 . S
C478 C479 1.362 . S
C479 H469 0.930 . S
C479 C472 1.409 . S
C479 C478 1.362 . S
H480 C486 0.930 . S
H481 C489 0.930 . S
H482 C490 0.930 . S
H483 C491 0.930 . S
H484 C494 0.930 . S
H485 C495 0.930 . S
C486 H480 0.930 . S
C486 C487 1.355 . S
C486 C488 1.415 . S
C487 C486 1.355 . S
C487 C489 1.419 . S
C488 C486 1.415 . S
C488 C493 1.425 . S
C488 C495 1.409 . S
C489 H481 0.930 . S
C489 C487 1.419 . S
C489 C490 1.362 . S
C490 H482 0.930 . S
C490 C489 1.362 . S
C490 C493 1.409 . S
C491 H483 0.930 . S
C491 C492 1.355 . S
C491 C493 1.415 . S
C492 C491 1.355 . S
C492 C494 1.419 . S
C493 C488 1.425 . S
C493 C490 1.409 . S
C493 C491 1.415 . S
C494 H484 0.930 . S
C494 C492 1.419 . S
C494 C495 1.362 . S
C495 H485 0.930 . S
C495 C488 1.409 . S
C495 C494 1.362 . S
H496 C502 0.930 . S
H497 C505 0.930 . S
H498 C506 0.930 . S
H499 C507 0.930 . S
H500 C510 0.930 . S
H501 C511 0.930 . S
C502 H496 0.930 . S
C502 C503 1.355 . S
C502 C504 1.415 . S
C503 C502 1.355 . S
C503 C505 1.419 . S
C504 C502 1.415 . S
C504 C509 1.425 . S
C504 C511 1.409 . S
C505 H497 0.930 . S
C505 C503 1.419 . S
C505 C506 1.362 . S
C506 H498 0.930 . S
C506 C505 1.362 . S
C506 C509 1.409 . S
C507 H499 0.930 . S
C507 C508 1.355 . S
C507 C509 1.415 . S
C508 C507 1.355 . S
C508 C510 1.419 . S
C509 C504 1.425 . S
C509 C506 1.409 . S
C509 C507 1.415 . S
C510 H500 0.930 . S
C510 C508 1.419 . S
C510 C511 1.362 . S
C511 H501 0.930 . S
C511 C504 1.409 . S
C511 C510 1.362 . S
H512 C518 0.930 . S
H513 C521 0.930 . S
H514 C522 0.930 . S
H515 C523 0.930 . S
H516 C526 0.930 . S
H517 C527 0.930 . S
C518 H512 0.930 . S
C518 C519 1.355 . S
C518 C520 1.415 . S
C519 C518 1.355 . S
C519 C521 1.419 . S
C520 C518 1.415 . S
C520 C525 1.425 . S
C520 C527 1.409 . S
C521 H513 0.930 . S
C521 C519 1.419 . S
C521 C522 1.362 . S
C522 H514 0.930 . S
C522 C521 1.362 . S
C522 C525 1.409 . S
C523 H515 0.930 . S
C523 C524 1.355 . S
C523 C525 1.415 . S
C524 C523 1.355 . S
C524 C526 1.419 . S
C525 C520 1.425 . S
C525 C522 1.409 . S
C525 C523 1.415 . S
C526 H516 0.930 . S
C526 C524 1.419 . S
C526 C527 1.362 . S
C527 H517 0.930 . S
C527 C520 1.409 . S
C527 C526 1.362 . S
H528 C534 0.930 . S
H529 C537 0.930 . S
H530 C538 0.930 . S
H531 C539 0.930 . S
H532 C542 0.930 . S
H533 C543 0.930 . S
C534 H528 0.930 . S
C534 C535 1.355 . S
C534 C536 1.415 . S
C535 C534 1.355 . S
C535 C537 1.419 . S
C536 C534 1.415 . S
C536 C541 1.425 . S
C536 C543 1.409 . S
C537 H529 0.930 . S
C537 C535 1.419 . S
C537 C538 1.362 . S
C538 H530 0.930 . S
C538 C537 1.362 . S
C538 C541 1.409 . S
C539 H531 0.930 . S
C539 C540 1.355 . S
C539 C541 1.415 . S
C540 C539 1.355 . S
C540 C542 1.419 . S
C541 C536 1.425 . S
C541 C538 1.409 . S
C541 C539 1.415 . S
C542 H532 0.930 . S
C542 C540 1.419 . S
C542 C543 1.362 . S
C543 H533 0.930 . S
C543 C536 1.409 . S
C543 C542 1.362 . S
C167 C2 1.616 1_554 S
C172 C4 1.616 1_556 S
C183 C24 1.568 . S
C188 C22 1.568 . S
C199 C44 1.610 . S
C204 C42 1.610 . S
C215 C62 1.591 . S
C220 C64 1.591 . S
C231 C82 1.580 . S
C236 C84 1.580 . S
C247 C102 1.568 . S
C252 C104 1.568 . S
C263 C124 1.564 . S
C268 C122 1.564 . S
C279 C144 1.564 . S
C284 C142 1.564 . S
C295 C32 1.865 . S
C300 C12 1.870 . S
C311 C72 1.870 . S
C316 C52 1.864 . S
C327 C92 1.857 . S
C332 C112 1.863 . S
C343 C132 1.870 . S
C348 C152 1.862 . S
C359 C9 1.500 . S
C364 C109 1.510 . S
C375 C89 1.482 . S
C380 C29 1.482 . S
C391 C49 1.545 . S
C396 C149 1.547 . S
C407 C69 1.488 . S
C412 C129 1.483 . S
C423 C18 1.581 . S
C428 C78 1.577 . S
C439 C38 1.540 . S
C444 C58 1.551 . S
C455 C39 1.618 . S
C460 C59 1.608 . S
C471 C79 1.607 . S
C476 C19 1.613 . S
C487 C98 1.503 . S
C492 C158 1.501 . S
C503 C118 1.571 . S
C508 C138 1.576 . S
C519 C119 1.619 . S
C524 C139 1.613 . S
C535 C159 1.617 . S
C540 C99 1.607 . S
