# Generated by pormake.
# Topology crr, (4)-cn, num edge types: 1
# Building blocks:
#     Node 0, Type 0, BuildingBlock: ESEHIV_clean_sbu_0, # of connection points: 4
#     Node 1, Type 0, BuildingBlock: ESEHIV_clean_sbu_0, # of connection points: 4
#     Node 2, Type 0, BuildingBlock: ESEHIV_clean_sbu_0, # of connection points: 4
#     Node 3, Type 0, BuildingBlock: ESEHIV_clean_sbu_0, # of connection points: 4
#     Node 4, Type 0, BuildingBlock: ESEHIV_clean_sbu_0, # of connection points: 4
#     Node 5, Type 0, BuildingBlock: ESEHIV_clean_sbu_0, # of connection points: 4
#     Node 6, Type 0, BuildingBlock: ESEHIV_clean_sbu_0, # of connection points: 4
#     Node 7, Type 0, BuildingBlock: ESEHIV_clean_sbu_0, # of connection points: 4
#     Node 8, Type 0, BuildingBlock: ESEHIV_clean_sbu_0, # of connection points: 4
#     Node 9, Type 0, BuildingBlock: ESEHIV_clean_sbu_0, # of connection points: 4
#     Node 10, Type 0, BuildingBlock: ESEHIV_clean_sbu_0, # of connection points: 4
#     Node 11, Type 0, BuildingBlock: ESEHIV_clean_sbu_0, # of connection points: 4
#     Edge 12, Type (0, 0), BuildingBlock: XIVTED_clean_linker_0, # of connection points: 2
#     Edge 13, Type (0, 0), BuildingBlock: XIVTED_clean_linker_0, # of connection points: 2
#     Edge 14, Type (0, 0), BuildingBlock: XIVTED_clean_linker_0, # of connection points: 2
#     Edge 15, Type (0, 0), BuildingBlock: XIVTED_clean_linker_0, # of connection points: 2
#     Edge 16, Type (0, 0), BuildingBlock: XIVTED_clean_linker_0, # of connection points: 2
#     Edge 17, Type (0, 0), BuildingBlock: XIVTED_clean_linker_0, # of connection points: 2
#     Edge 18, Type (0, 0), BuildingBlock: XIVTED_clean_linker_0, # of connection points: 2
#     Edge 19, Type (0, 0), BuildingBlock: XIVTED_clean_linker_0, # of connection points: 2
#     Edge 20, Type (0, 0), BuildingBlock: XIVTED_clean_linker_0, # of connection points: 2
#     Edge 21, Type (0, 0), BuildingBlock: XIVTED_clean_linker_0, # of connection points: 2
#     Edge 22, Type (0, 0), BuildingBlock: XIVTED_clean_linker_0, # of connection points: 2
#     Edge 23, Type (0, 0), BuildingBlock: XIVTED_clean_linker_0, # of connection points: 2
#     Edge 24, Type (0, 0), BuildingBlock: XIVTED_clean_linker_0, # of connection points: 2
#     Edge 25, Type (0, 0), BuildingBlock: XIVTED_clean_linker_0, # of connection points: 2
#     Edge 26, Type (0, 0), BuildingBlock: XIVTED_clean_linker_0, # of connection points: 2
#     Edge 27, Type (0, 0), BuildingBlock: XIVTED_clean_linker_0, # of connection points: 2
#     Edge 28, Type (0, 0), BuildingBlock: XIVTED_clean_linker_0, # of connection points: 2
#     Edge 29, Type (0, 0), BuildingBlock: XIVTED_clean_linker_0, # of connection points: 2
#     Edge 30, Type (0, 0), BuildingBlock: XIVTED_clean_linker_0, # of connection points: 2
#     Edge 31, Type (0, 0), BuildingBlock: XIVTED_clean_linker_0, # of connection points: 2
#     Edge 32, Type (0, 0), BuildingBlock: XIVTED_clean_linker_0, # of connection points: 2
#     Edge 33, Type (0, 0), BuildingBlock: XIVTED_clean_linker_0, # of connection points: 2
#     Edge 34, Type (0, 0), BuildingBlock: XIVTED_clean_linker_0, # of connection points: 2
#     Edge 35, Type (0, 0), BuildingBlock: XIVTED_clean_linker_0, # of connection points: 2
# Relax obj value: 0.030
# Max RMSD: 0.140
# Mean RMSD: 0.117
data_MOF--net-crr--node1-ESEHIV_clean_sbu_0--edge1-XIVTED_clean_linker_0
_symmetry_space_group_name_H-M    P1
_symmetry_Int_Tables_number       1
_symmetry_cell_setting            triclinic
loop_
_symmetry_equiv_pos_as_xyz
'x, y, z'
_cell_length_a     42.306586
_cell_length_b     47.82896
_cell_length_c     43.063099
_cell_angle_alpha  91.897062
_cell_angle_beta   85.800559
_cell_angle_gamma 87.799067
loop_
_atom_site_label
_atom_site_type_symbol
_atom_site_fract_x
_atom_site_fract_y
_atom_site_fract_z
_atom_type_partial_charge
Cu0 Cu 0.13775 0.35793 0.36062 0.0
N1 N 0.10313 0.37443 0.34217 0.0
N2 N 0.064 0.4046 0.33094 0.0
C3 C 0.08749 0.39914 0.34992 0.0
C4 C 0.06498 0.38233 0.31069 0.0
C5 C 0.08902 0.36388 0.31765 0.0
O6 O 0.13062 0.36612 0.40531 0.0
C7 C 0.20468 0.36733 0.34758 0.0
O8 O 0.20982 0.35106 0.37082 0.0
H9 H 0.09372 0.41309 0.36861 0.0
H10 H 0.09591 0.34416 0.30554 0.0
N11 N 0.13782 0.31898 0.35345 0.0
N12 N 0.15375 0.27371 0.34969 0.0
C13 C 0.16282 0.3005 0.34897 0.0
C14 C 0.11213 0.3033 0.35664 0.0
C15 C 0.12184 0.27543 0.35438 0.0
C16 C 0.13497 0.34811 0.42593 0.0
O17 O 0.14944 0.32395 0.41764 0.0
H18 H 0.18724 0.30648 0.34715 0.0
H19 H 0.0881 0.31161 0.36174 0.0
O20 O 0.17629 0.37309 0.34111 0.0
H21 H 0.04939 0.37946 0.29211 0.0
H22 H 0.10664 0.25783 0.35691 0.0
Cu23 Cu 0.36142 0.89727 0.65817 0.0
N24 N 0.32152 0.88152 0.65998 0.0
N25 N 0.28611 0.8488 0.65313 0.0
C26 C 0.3169 0.85517 0.64979 0.0
C27 C 0.27069 0.87204 0.66611 0.0
C28 C 0.29267 0.89215 0.67058 0.0
O29 O 0.38864 0.8692 0.67598 0.0
C30 C 0.35075 0.92537 0.60611 0.0
O31 O 0.32369 0.92859 0.62304 0.0
H32 H 0.3358 0.84108 0.63964 0.0
H33 H 0.28788 0.91301 0.68065 0.0
N34 N 0.36448 0.92979 0.68295 0.0
N35 N 0.39117 0.9633 0.70571 0.0
C36 C 0.39245 0.93716 0.69294 0.0
C37 C 0.34448 0.95212 0.68962 0.0
C38 C 0.36097 0.9729 0.70368 0.0
C39 C 0.38098 0.86753 0.70506 0.0
O40 O 0.35746 0.88367 0.71791 0.0
H41 H 0.41399 0.92421 0.68869 0.0
H42 H 0.32032 0.95387 0.68309 0.0
O43 O 0.37238 0.90932 0.61593 0.0
H44 H 0.24543 0.87421 0.67226 0.0
H45 H 0.35179 0.99379 0.71063 0.0
Cu46 Cu 0.9202 0.64146 0.33463 0.0
N47 N 0.91472 0.64877 0.29269 0.0
N48 N 0.88744 0.65683 0.25103 0.0
C49 C 0.88587 0.65327 0.28202 0.0
C50 C 0.91858 0.65454 0.24164 0.0
C51 C 0.93543 0.64985 0.26747 0.0
O52 O 0.88474 0.66267 0.35725 0.0
C53 C 0.94537 0.58796 0.32247 0.0
O54 O 0.96149 0.60215 0.30158 0.0
H55 H 0.86397 0.65324 0.2967 0.0
H56 H 0.96089 0.64708 0.26764 0.0
N57 N 0.95672 0.65549 0.35032 0.0
N58 N 0.98777 0.66888 0.38753 0.0
C59 C 0.95989 0.6581 0.38111 0.0
C60 C 0.98365 0.66482 0.33646 0.0
C61 C 1.00294 0.67304 0.35944 0.0
C62 C 0.88798 0.68906 0.35578 0.0
O63 O 0.91362 0.69805 0.34087 0.0
H64 H 0.94199 0.65179 0.39843 0.0
H65 H 0.98885 0.66572 0.31158 0.0
O66 O 0.92374 0.60089 0.34029 0.0
H67 H 0.92842 0.65627 0.2179 0.0
H68 H 0.02611 0.6817 0.35569 0.0
Cu69 Cu 0.64864 0.1062 0.65161 0.0
N70 N 0.69184 0.11215 0.65426 0.0
N71 N 0.73526 0.13752 0.65219 0.0
C72 C 0.70369 0.13752 0.65942 0.0
C73 C 0.74374 0.11105 0.64231 0.0
C74 C 0.7169 0.09542 0.64366 0.0
O75 O 0.6275 0.14316 0.65955 0.0
C76 C 0.64875 0.06177 0.60875 0.0
O77 O 0.65992 0.04927 0.63258 0.0
H78 H 0.68906 0.15622 0.6656 0.0
H79 H 0.71549 0.07399 0.63527 0.0
N80 N 0.63153 0.08229 0.68138 0.0
N81 N 0.59387 0.058 0.70603 0.0
C82 C 0.6006 0.07667 0.68398 0.0
C83 C 0.64515 0.06662 0.70253 0.0
C84 C 0.62188 0.05143 0.71773 0.0
C85 C 0.62047 0.15065 0.68803 0.0
O86 O 0.62565 0.13282 0.7098 0.0
H87 H 0.58354 0.08558 0.66916 0.0
H88 H 0.67018 0.06591 0.70619 0.0
O89 O 0.64247 0.08814 0.61106 0.0
H90 H 0.76731 0.10387 0.63326 0.0
H91 H 0.62533 0.03667 0.73581 0.0
Cu92 Cu 0.1243 0.64415 0.6554 0.0
N93 N 0.13244 0.6521 0.69689 0.0
N94 N 0.1614 0.65277 0.73837 0.0
C95 C 0.16035 0.64479 0.70815 0.0
C96 C 0.1329 0.66571 0.74649 0.0
C97 C 0.11513 0.66544 0.72078 0.0
O98 O 0.16187 0.65745 0.63223 0.0
C99 C 0.08898 0.60015 0.67016 0.0
O100 O 0.0776 0.62054 0.68945 0.0
H101 H 0.17944 0.63353 0.69434 0.0
H102 H 0.09141 0.67435 0.71968 0.0
N103 N 0.09002 0.66384 0.6399 0.0
N104 N 0.06002 0.67834 0.60236 0.0
C105 C 0.08738 0.66531 0.60907 0.0
C106 C 0.06328 0.67641 0.6535 0.0
C107 C 0.04466 0.68537 0.63032 0.0
C108 C 0.16194 0.68413 0.63497 0.0
O109 O 0.13829 0.69758 0.65125 0.0
H110 H 0.10483 0.65579 0.59189 0.0
H111 H 0.05723 0.67823 0.67831 0.0
O112 O 0.11306 0.60489 0.65169 0.0
H113 H 0.12557 0.6751 0.76922 0.0
H114 H 0.02148 0.69585 0.63384 0.0
Cu115 Cu 0.64815 0.88937 0.37853 0.0
N116 N 0.6916 0.8798 0.37485 0.0
N117 N 0.73592 0.85275 0.37516 0.0
C118 C 0.7041 0.85434 0.38067 0.0
C119 C 0.7438 0.87845 0.36585 0.0
C120 C 0.71638 0.89509 0.36566 0.0
O121 O 0.62677 0.85433 0.37336 0.0
C122 C 0.64637 0.93597 0.41833 0.0
O123 O 0.66035 0.94581 0.39296 0.0
H124 H 0.68996 0.83725 0.38869 0.0
H125 H 0.71461 0.91664 0.35889 0.0
N126 N 0.63517 0.91188 0.34682 0.0
N127 N 0.60186 0.93862 0.32142 0.0
C128 C 0.60563 0.92322 0.34668 0.0
C129 C 0.65089 0.92026 0.32068 0.0
C130 C 0.63037 0.93692 0.30499 0.0
C131 C 0.63628 0.84118 0.34793 0.0
O132 O 0.65753 0.85242 0.32893 0.0
H133 H 0.58749 0.92062 0.36529 0.0
H134 H 0.67543 0.91469 0.31356 0.0
O135 O 0.63837 0.91049 0.41792 0.0
H136 H 0.76755 0.88461 0.35887 0.0
H137 H 0.63599 0.9468 0.28314 0.0
Cu138 Cu 0.93038 0.35599 0.65512 0.0
N139 N 0.89598 0.34071 0.63651 0.0
N140 N 0.85915 0.30956 0.62804 0.0
C141 C 0.88185 0.31753 0.64647 0.0
C142 C 0.85883 0.32852 0.60554 0.0
C143 C 0.88143 0.34789 0.61096 0.0
O144 O 0.92636 0.34196 0.69731 0.0
C145 C 0.97177 0.35768 0.60376 0.0
O146 O 0.94763 0.37354 0.59638 0.0
H147 H 0.88886 0.30613 0.66632 0.0
H148 H 0.88703 0.36567 0.59702 0.0
N149 N 0.92852 0.39521 0.6566 0.0
N150 N 0.94641 0.43861 0.6568 0.0
C151 C 0.95425 0.411 0.65556 0.0
C152 C 0.90337 0.41343 0.6586 0.0
C153 C 0.91436 0.4403 0.65892 0.0
C154 C 0.92134 0.35791 0.72162 0.0
O155 O 0.92751 0.38453 0.71988 0.0
H156 H 0.97833 0.4023 0.65438 0.0
H157 H 0.87887 0.40759 0.65982 0.0
O158 O 0.96951 0.34532 0.62961 0.0
H159 H 0.84338 0.32838 0.58658 0.0
H160 H 0.89992 0.45954 0.66033 0.0
Cu161 Cu 0.3779 0.10266 0.3647 0.0
N162 N 0.40206 0.13285 0.3532 0.0
N163 N 0.41428 0.16942 0.32451 0.0
C164 C 0.39085 0.15414 0.33704 0.0
C165 C 0.44143 0.1575 0.33343 0.0
C166 C 0.43378 0.13496 0.35141 0.0
O167 O 0.33543 0.11273 0.35278 0.0
C168 C 0.41474 0.06864 0.31868 0.0
O169 O 0.4162 0.09142 0.3025 0.0
H170 H 0.36628 0.15669 0.3319 0.0
H171 H 0.45024 0.11979 0.36015 0.0
N172 N 0.37854 0.09741 0.40735 0.0
N173 N 0.37887 0.07549 0.45231 0.0
C174 C 0.3804 0.07251 0.42097 0.0
C175 C 0.37613 0.11686 0.43077 0.0
C176 C 0.37608 0.10336 0.45861 0.0
C177 C 0.31112 0.11687 0.37186 0.0
O178 O 0.31229 0.10891 0.40065 0.0
H179 H 0.38164 0.05258 0.40818 0.0
H180 H 0.37381 0.13919 0.42779 0.0
O181 O 0.39712 0.06885 0.34396 0.0
H182 H 0.46509 0.16357 0.32592 0.0
H183 H 0.37379 0.11324 0.48169 0.0
Cu184 Cu 0.39199 0.37195 0.12181 0.0
N185 N 0.37842 0.33566 0.12721 0.0
N186 N 0.37323 0.29619 0.15297 0.0
C187 C 0.37949 0.3235 0.15481 0.0
C188 C 0.3679 0.29069 0.12293 0.0
C189 C 0.37082 0.31526 0.10704 0.0
O190 O 0.38474 0.38858 0.16434 0.0
C191 C 0.43801 0.3575 0.07557 0.0
O192 O 0.4117 0.35089 0.06325 0.0
H193 H 0.38685 0.33407 0.17552 0.0
H194 H 0.36877 0.31767 0.0824 0.0
N195 N 0.36814 0.39203 0.0945 0.0
N196 N 0.35144 0.42876 0.06846 0.0
C197 C 0.37347 0.41852 0.08665 0.0
C198 C 0.34211 0.38495 0.08036 0.0
C199 C 0.33179 0.40761 0.06414 0.0
C200 C 0.36041 0.40465 0.17207 0.0
O201 O 0.34466 0.41577 0.1501 0.0
H202 H 0.39279 0.43023 0.09487 0.0
H203 H 0.33098 0.36505 0.08238 0.0
O204 O 0.43589 0.36862 0.10307 0.0
H205 H 0.36307 0.27031 0.11309 0.0
H206 H 0.31082 0.40876 0.0512 0.0
Cu207 Cu 0.38414 0.66217 0.91193 0.0
N208 N 0.37709 0.69972 0.90329 0.0
N209 N 0.37976 0.73759 0.87444 0.0
C210 C 0.38793 0.71023 0.87617 0.0
C211 C 0.36304 0.74463 0.9017 0.0
C212 C 0.36124 0.72109 0.91946 0.0
O213 O 0.363 0.64267 0.87908 0.0
C214 C 0.44114 0.67434 0.93336 0.0
O215 O 0.42212 0.69493 0.94524 0.0
H216 H 0.40173 0.6979 0.85809 0.0
H217 H 0.34907 0.71963 0.94227 0.0
N218 N 0.36541 0.65108 0.94996 0.0
N219 N 0.35005 0.62023 0.98533 0.0
C220 C 0.35888 0.62428 0.95515 0.0
C221 C 0.36058 0.66469 0.97786 0.0
C222 C 0.35109 0.64564 0.9998 0.0
C223 C 0.33285 0.64621 0.88314 0.0
O224 O 0.32076 0.66034 0.90818 0.0
H225 H 0.36256 0.60772 0.93735 0.0
H226 H 0.36516 0.68649 0.98227 0.0
O227 O 0.42984 0.65604 0.91539 0.0
H228 H 0.35227 0.76511 0.90806 0.0
H229 H 0.34635 0.64998 0.02457 0.0
Cu230 Cu 0.63116 0.64353 0.13083 0.0
N231 N 0.62432 0.60527 0.12912 0.0
N232 N 0.62588 0.562 0.10763 0.0
C233 C 0.64084 0.58633 0.10998 0.0
C234 C 0.5994 0.56553 0.12712 0.0
C235 C 0.5985 0.59225 0.1403 0.0
O236 O 0.6148 0.65891 0.09333 0.0
C237 C 0.68773 0.6718 0.14223 0.0
O238 O 0.66924 0.69459 0.1437 0.0
H239 H 0.66198 0.59125 0.09593 0.0
H240 H 0.57922 0.60214 0.15509 0.0
N241 N 0.60714 0.65992 0.16538 0.0
N242 N 0.59345 0.68397 0.21017 0.0
C243 C 0.61751 0.672 0.19124 0.0
C244 C 0.57542 0.66401 0.16818 0.0
C245 C 0.56689 0.6788 0.19571 0.0
C246 C 0.62157 0.64838 0.06595 0.0
O247 O 0.64441 0.62904 0.06132 0.0
H248 H 0.64234 0.67302 0.19541 0.0
H249 H 0.55969 0.65732 0.15092 0.0
O250 O 0.67624 0.64843 0.13513 0.0
H251 H 0.58094 0.55062 0.13021 0.0
H252 H 0.54301 0.68567 0.20402 0.0
Cu253 Cu 0.67132 0.36109 0.87769 0.0
N254 N 0.66936 0.39927 0.88751 0.0
N255 N 0.66388 0.43808 0.91791 0.0
C256 C 0.65673 0.41099 0.91464 0.0
C257 C 0.68164 0.4437 0.89169 0.0
C258 C 0.68501 0.41964 0.87295 0.0
O259 O 0.64661 0.34441 0.9121 0.0
C260 C 0.72786 0.329 0.85652 0.0
O261 O 0.70851 0.31051 0.84642 0.0
H262 H 0.64458 0.39931 0.93266 0.0
H263 H 0.69937 0.41674 0.85116 0.0
N264 N 0.65403 0.3542 0.83945 0.0
N265 N 0.63597 0.33097 0.79886 0.0
C266 C 0.64331 0.32978 0.82882 0.0
C267 C 0.65317 0.37152 0.8155 0.0
C268 C 0.64211 0.35724 0.7904 0.0
C269 C 0.61648 0.34608 0.91174 0.0
O270 O 0.60388 0.35607 0.88721 0.0
H271 H 0.64248 0.3111 0.84233 0.0
H272 H 0.66104 0.39275 0.81589 0.0
O273 O 0.71643 0.35026 0.87277 0.0
H274 H 0.69241 0.46343 0.88693 0.0
H275 H 0.63939 0.3654 0.76756 0.0
H276 H 0.14223 0.22619 0.38066 0.0
H277 H 0.30853 0.1501 0.32122 0.0
H278 H 0.21182 0.26422 0.31908 0.0
H279 H 0.25344 0.12747 0.40431 0.0
H280 H 0.26837 0.18676 0.31305 0.0
H281 H 0.17808 0.18503 0.38259 0.0
C282 C 0.16489 0.22575 0.36721 0.0
C283 C 0.17405 0.24874 0.34969 0.0
C284 C 0.26495 0.17357 0.33288 0.0
C285 C 0.21527 0.20162 0.35187 0.0
C286 C 0.28776 0.15247 0.33748 0.0
C287 C 0.28453 0.13575 0.36368 0.0
C288 C 0.23846 0.17779 0.35438 0.0
C289 C 0.25705 0.13993 0.38391 0.0
C290 C 0.18543 0.2023 0.3685 0.0
C291 C 0.20395 0.2471 0.3331 0.0
N292 N 0.23516 0.16058 0.37891 0.0
N293 N 0.22348 0.22395 0.33457 0.0
H294 H 0.31248 0.79636 0.65605 0.0
H295 H 0.15854 0.72644 0.59578 0.0
H296 H 0.22911 0.84179 0.62999 0.0
H297 H 0.22337 0.68207 0.65106 0.0
H298 H 0.19363 0.76581 0.59398 0.0
H299 H 0.28805 0.75216 0.6425 0.0
C300 C 0.28918 0.79701 0.64717 0.0
C301 C 0.27262 0.82273 0.64437 0.0
C302 C 0.20071 0.74719 0.60579 0.0
C303 C 0.24488 0.77246 0.62843 0.0
C304 C 0.18096 0.72454 0.60636 0.0
C305 C 0.18832 0.70095 0.62329 0.0
C306 C 0.22786 0.74641 0.62266 0.0
C307 C 0.21722 0.69974 0.63728 0.0
C308 C 0.27529 0.77183 0.63951 0.0
C309 C 0.24245 0.82243 0.63294 0.0
N310 N 0.23578 0.72245 0.63715 0.0
N311 N 0.22959 0.79773 0.62539 0.0
H312 H 0.79828 0.85168 0.38611 0.0
H313 H 0.82276 0.68535 0.35919 0.0
H314 H 0.72132 0.7979 0.3693 0.0
H315 H 0.89715 0.7413 0.37787 0.0
H316 H 0.78373 0.7249 0.36847 0.0
H317 H 0.83372 0.8104 0.38766 0.0
C318 C 0.78882 0.83119 0.38271 0.0
C319 C 0.75679 0.82837 0.37737 0.0
C320 C 0.80856 0.72836 0.37102 0.0
C321 C 0.79731 0.78069 0.37926 0.0
C322 C 0.83074 0.70575 0.36603 0.0
C323 C 0.86318 0.71015 0.36762 0.0
C324 C 0.81907 0.75537 0.37766 0.0
C325 C 0.87236 0.73705 0.37612 0.0
C326 C 0.80903 0.80754 0.3838 0.0
C327 C 0.74577 0.80114 0.37369 0.0
N328 N 0.85054 0.75859 0.38055 0.0
N329 N 0.76602 0.77838 0.37445 0.0
H330 H 0.84152 0.27501 0.5818 0.0
H331 H 0.73278 0.18233 0.69243 0.0
H332 H 0.83456 0.28821 0.68158 0.0
H333 H 0.78026 0.14859 0.60662 0.0
H334 H 0.7631 0.22496 0.68683 0.0
H335 H 0.81167 0.2322 0.58806 0.0
C336 C 0.83344 0.269 0.60497 0.0
C337 C 0.8405 0.28508 0.63122 0.0
C338 C 0.76698 0.20813 0.66935 0.0
C339 C 0.8063 0.23643 0.63855 0.0
C340 C 0.7497 0.18391 0.67251 0.0
C341 C 0.75425 0.16188 0.65009 0.0
C342 C 0.78836 0.21063 0.64315 0.0
C343 C 0.7764 0.16493 0.62463 0.0
C344 C 0.81668 0.24452 0.60855 0.0
C345 C 0.82978 0.27624 0.66079 0.0
N346 N 0.7924 0.18897 0.62167 0.0
N347 N 0.81301 0.25262 0.66367 0.0
H348 H 0.35218 0.30463 0.21317 0.0
H349 H 0.45097 0.17393 0.27079 0.0
H350 H 0.40243 0.24468 0.14887 0.0
H351 H 0.36826 0.20993 0.32402 0.0
H352 H 0.43983 0.20463 0.22795 0.0
H353 H 0.36297 0.27419 0.25622 0.0
C354 C 0.36522 0.28486 0.2082 0.0
C355 C 0.37628 0.27694 0.17757 0.0
C356 C 0.42426 0.20589 0.2491 0.0
C357 C 0.38943 0.24251 0.2265 0.0
C358 C 0.43084 0.18869 0.27363 0.0
C359 C 0.41055 0.18961 0.30093 0.0
C360 C 0.39754 0.22439 0.2522 0.0
C361 C 0.3844 0.20869 0.30328 0.0
C362 C 0.37141 0.26758 0.23266 0.0
C363 C 0.39319 0.25125 0.17217 0.0
N364 N 0.37868 0.22543 0.27927 0.0
N365 N 0.3996 0.23503 0.1965 0.0
H366 H 0.2732 0.62932 0.89439 0.0
H367 H 0.22444 0.6486 0.72004 0.0
H368 H 0.3416 0.64619 0.81886 0.0
H369 H 0.1582 0.64641 0.80086 0.0
H370 H 0.2683 0.641 0.75345 0.0
H371 H 0.23206 0.62716 0.85783 0.0
C372 C 0.27968 0.63199 0.86988 0.0
C373 C 0.31083 0.63803 0.85964 0.0
C374 C 0.24416 0.64207 0.76381 0.0
C375 C 0.26345 0.63636 0.81754 0.0
C376 C 0.21908 0.64631 0.74476 0.0
C377 C 0.18751 0.64824 0.75769 0.0
C378 C 0.23764 0.63946 0.796 0.0
C379 C 0.18208 0.64545 0.78993 0.0
C380 C 0.25608 0.63099 0.84902 0.0
C381 C 0.3179 0.64127 0.82764 0.0
N382 N 0.20682 0.64119 0.80789 0.0
N383 N 0.29424 0.64078 0.8077 0.0
H384 H 0.64226 0.68437 0.24797 0.0
H385 H 0.57575 0.82415 0.34199 0.0
H386 H 0.55086 0.72415 0.23578 0.0
H387 H 0.67386 0.79545 0.33279 0.0
H388 H 0.56176 0.78083 0.3145 0.0
H389 H 0.64956 0.7184 0.28998 0.0
C390 C 0.62363 0.70012 0.25413 0.0
C391 C 0.59618 0.70162 0.23769 0.0
C392 C 0.58623 0.78376 0.3192 0.0
C393 C 0.60427 0.74058 0.28626 0.0
C394 C 0.59411 0.80826 0.33514 0.0
C395 C 0.62593 0.81313 0.33957 0.0
C396 C 0.61042 0.76416 0.30799 0.0
C397 C 0.64903 0.79232 0.32976 0.0
C398 C 0.62774 0.71947 0.27831 0.0
C399 C 0.57247 0.7221 0.24757 0.0
N400 N 0.64088 0.76885 0.31424 0.0
N401 N 0.57722 0.74097 0.27094 0.0
H402 H 0.75936 0.28893 0.81748 0.0
H403 H 0.90432 0.38659 0.77683 0.0
H404 H 0.77324 0.36736 0.86611 0.0
H405 H 0.89025 0.3086 0.72741 0.0
H406 H 0.86162 0.37589 0.81532 0.0
H407 H 0.8117 0.29192 0.79004 0.0
C408 C 0.77359 0.30657 0.82281 0.0
C409 C 0.7616 0.32809 0.84394 0.0
C410 C 0.86817 0.36089 0.79633 0.0
C411 C 0.82166 0.33176 0.81225 0.0
C412 C 0.89271 0.36694 0.77436 0.0
C413 C 0.90074 0.34867 0.74852 0.0
C414 C 0.85126 0.33645 0.79244 0.0
C415 C 0.88484 0.32344 0.74676 0.0
C416 C 0.80351 0.30829 0.80703 0.0
C417 C 0.78131 0.35036 0.84989 0.0
N418 N 0.86059 0.3183 0.76811 0.0
N419 N 0.81012 0.35177 0.83387 0.0
H420 H 0.4045 0.87883 0.76014 0.0
H421 H 0.38791 0.7215 0.81318 0.0
H422 H 0.38796 0.81053 0.69644 0.0
H423 H 0.38791 0.79357 0.87609 0.0
H424 H 0.39868 0.75171 0.76921 0.0
H425 H 0.41149 0.8456 0.8011 0.0
C426 C 0.40346 0.85663 0.75457 0.0
C427 C 0.3958 0.84728 0.72499 0.0
C428 C 0.3966 0.76086 0.79265 0.0
C429 C 0.40233 0.80921 0.77204 0.0
C430 C 0.39052 0.74364 0.81779 0.0
C431 C 0.38681 0.75508 0.8484 0.0
C432 C 0.39919 0.78973 0.79813 0.0
C433 C 0.39008 0.78395 0.85291 0.0
C434 C 0.40704 0.8377 0.77804 0.0
C435 C 0.39426 0.81843 0.71893 0.0
N436 N 0.396 0.80026 0.82806 0.0
N437 N 0.39691 0.80035 0.74249 0.0
H438 H 0.71136 0.71229 0.17934 0.0
H439 H 0.88049 0.63496 0.19307 0.0
H440 H 0.73697 0.63255 0.13262 0.0
H441 H 0.83395 0.68854 0.26633 0.0
H442 H 0.83334 0.64039 0.16314 0.0
H443 H 0.7619 0.71053 0.20363 0.0
C444 C 0.72781 0.69462 0.17376 0.0
C445 C 0.71984 0.67248 0.15396 0.0
C446 C 0.83361 0.65107 0.18569 0.0
C447 C 0.7778 0.67043 0.18168 0.0
C448 C 0.8605 0.64812 0.20263 0.0
C449 C 0.86097 0.66123 0.23223 0.0
C450 C 0.80735 0.66774 0.19818 0.0
C451 C 0.83436 0.67787 0.24373 0.0
C452 C 0.75655 0.69356 0.18782 0.0
C453 C 0.74207 0.65001 0.14784 0.0
N454 N 0.8087 0.68074 0.22666 0.0
N455 N 0.77006 0.64956 0.16163 0.0
H456 H 0.58341 0.16867 0.73907 0.0
H457 H 0.6492 0.32283 0.73632 0.0
H458 H 0.63989 0.19899 0.6608 0.0
H459 H 0.60212 0.28656 0.81665 0.0
H460 H 0.63766 0.28143 0.7047 0.0
H461 H 0.58061 0.21553 0.76332 0.0
C462 C 0.59462 0.18544 0.72666 0.0
C463 C 0.61206 0.17996 0.69801 0.0
C464 C 0.62956 0.28269 0.72917 0.0
C465 C 0.60978 0.23363 0.72607 0.0
C466 C 0.63601 0.30637 0.74722 0.0
C467 C 0.62688 0.30803 0.7793 0.0
C468 C 0.6137 0.2606 0.74326 0.0
C469 C 0.6101 0.28595 0.79219 0.0
C470 C 0.5932 0.21217 0.74061 0.0
C471 C 0.62608 0.20241 0.68287 0.0
N472 N 0.60423 0.26314 0.7742 0.0
N473 N 0.62512 0.22824 0.69736 0.0
H474 H 0.3137 0.44118 0.19699 0.0
H475 H 0.26692 0.34764 0.34299 0.0
H476 H 0.36991 0.36854 0.21974 0.0
H477 H 0.20384 0.40821 0.3046 0.0
H478 H 0.30945 0.36048 0.30485 0.0
H479 H 0.2789 0.43544 0.24378 0.0
C480 C 0.31914 0.4243 0.21216 0.0
C481 C 0.34463 0.40512 0.20411 0.0
C482 C 0.28638 0.37113 0.30503 0.0
C483 C 0.30429 0.39813 0.25777 0.0
C484 C 0.2621 0.3639 0.32686 0.0
C485 C 0.23163 0.37674 0.3269 0.0
C486 C 0.28028 0.39158 0.28331 0.0
C487 C 0.22681 0.39758 0.30533 0.0
C488 C 0.29907 0.42093 0.23883 0.0
C489 C 0.35052 0.38379 0.2249 0.0
N490 N 0.25078 0.40425 0.28444 0.0
N491 N 0.33023 0.38063 0.25056 0.0
H492 H 0.02009 0.3166 0.59558 0.0
H493 H 0.103 0.39524 0.45141 0.0
H494 H 0.99069 0.39783 0.56479 0.0
H495 H 0.12817 0.30987 0.47199 0.0
H496 H 0.06826 0.39893 0.49918 0.0
H497 H 0.06567 0.31583 0.5563 0.0
C498 C 0.02343 0.33434 0.58086 0.0
C499 C 1.00132 0.35707 0.58305 0.0
C500 C 0.0816 0.37944 0.49347 0.0
C501 C 0.05315 0.3565 0.53853 0.0
C502 C 0.10159 0.37737 0.46618 0.0
C503 C 0.11827 0.35211 0.45739 0.0
C504 C 0.07795 0.35602 0.51214 0.0
C505 C 0.11559 0.32972 0.4777 0.0
C506 C 0.04933 0.33389 0.55844 0.0
C507 C 1.00677 0.37959 0.56352 0.0
N508 N 0.09546 0.33206 0.50392 0.0
N509 N 0.03192 0.37866 0.54209 0.0
H510 H 0.34337 0.0761 0.50703 0.0
H511 H 0.40542 0.93055 0.56699 0.0
H512 H 0.41012 0.0246 0.44759 0.0
H513 H 0.30915 0.9636 0.58529 0.0
H514 H 0.41429 0.96678 0.52799 0.0
H515 H 0.33815 0.03772 0.54289 0.0
C516 C 0.3572 0.05679 0.50174 0.0
C517 C 0.37711 0.05346 0.47431 0.0
C518 C 0.39124 0.96573 0.54051 0.0
C519 C 0.3713 0.00942 0.51522 0.0
C520 C 0.38613 0.94509 0.56263 0.0
C521 C 0.35657 0.94408 0.57964 0.0
C522 C 0.3668 0.98565 0.53606 0.0
C523 C 0.33244 0.96355 0.57306 0.0
C524 C 0.35404 0.03483 0.52204 0.0
C525 C 0.39428 0.02782 0.4684 0.0
N526 N 0.33822 0.98364 0.5522 0.0
N527 N 0.39112 0.00672 0.4888 0.0
H528 H 0.99887 0.68291 0.58653 0.0
H529 H 0.04885 0.67144 0.40328 0.0
H530 H 0.0959 0.6809 0.54763 0.0
H531 H 0.95178 0.67842 0.44212 0.0
H532 H 0.06658 0.67745 0.4558 0.0
H533 H 0.98109 0.68402 0.5338 0.0
C534 C 0.01646 0.68301 0.56699 0.0
C535 C 0.04897 0.68148 0.57164 0.0
C536 C 0.04139 0.67777 0.4528 0.0
C537 C 0.02877 0.6824 0.51101 0.0
C538 C 0.03124 0.67447 0.42274 0.0
C539 C 0.99874 0.67408 0.41814 0.0
C540 C 0.0189 0.68073 0.47854 0.0
C541 C 0.97706 0.67792 0.44445 0.0
C542 C 1.00629 0.68348 0.53681 0.0
C543 C 0.07063 0.68145 0.54524 0.0
N544 N 0.98751 0.68093 0.47343 0.0
N545 N 0.06016 0.68171 0.51615 0.0
H546 H 0.64058 0.07892 0.54904 0.0
H547 H 0.63141 0.92169 0.47901 0.0
H548 H 0.64507 1.00522 0.60397 0.0
H549 H 0.65011 0.99274 0.42224 0.0
H550 H 0.62777 0.95309 0.5255 0.0
H551 H 0.63568 0.0486 0.5025 0.0
C552 C 0.64028 0.05646 0.55136 0.0
C553 C 0.64357 0.04461 0.58037 0.0
C554 C 0.63249 0.96179 0.50281 0.0
C555 C 0.6378 0.00986 0.52747 0.0
C556 C 0.63446 0.94388 0.47629 0.0
C557 C 0.64138 0.95452 0.44672 0.0
C558 C 0.6372 0.99059 0.49971 0.0
C559 C 0.64508 0.98352 0.4446 0.0
C560 C 0.63758 0.03915 0.52483 0.0
C561 C 0.64299 0.01531 0.58204 0.0
N562 N 0.64304 1.00049 0.47068 0.0
N563 N 0.64024 0.99901 0.55604 0.0
H564 H 0.41645 0.01707 0.34439 0.0
H565 H 0.5976 0.98475 0.2862 0.0
H566 H 0.46784 0.06737 0.27801 0.0
H567 H 0.54101 0.92863 0.34117 0.0
H568 H 0.54962 0.01344 0.27938 0.0
H569 H 0.46062 0.98249 0.33989 0.0
C570 C 0.43681 0.02063 0.32846 0.0
C571 C 0.43851 0.04529 0.31175 0.0
C572 C 0.54769 0.9947 0.29271 0.0
C573 C 0.48956 1.00595 0.3069 0.0
C574 C 0.5751 0.97824 0.29652 0.0
C575 C 0.57353 0.95443 0.31472 0.0
C576 C 0.51849 0.98735 0.30726 0.0
C577 C 0.54362 0.94716 0.32765 0.0
C578 C 0.46211 1.00089 0.32596 0.0
C579 C 0.46549 0.04871 0.2914 0.0
N580 N 0.51742 0.96366 0.32391 0.0
N581 N 0.49015 0.02947 0.28989 0.0
H582 H 0.03993 0.586 0.70972 0.0
H583 H 1.00565 0.43963 0.62771 0.0
H584 H 0.09671 0.55481 0.62755 0.0
H585 H 0.93656 0.48934 0.68649 0.0
H586 H 0.04273 0.47785 0.63052 0.0
H587 H 1.00621 0.54649 0.70553 0.0
C588 C 0.04552 0.57073 0.69078 0.0
C589 C 0.07119 0.574 0.66876 0.0
C590 C 0.01941 0.48036 0.64267 0.0
C591 C 0.03209 0.52824 0.66387 0.0
C592 C 0.99831 0.45856 0.64123 0.0
C593 C 0.96796 0.46129 0.65701 0.0
C594 C 1.01027 0.50485 0.66043 0.0
C595 C 0.95954 0.48639 0.67381 0.0
C596 C 0.02602 0.54815 0.68837 0.0
C597 C 0.07718 0.55319 0.64501 0.0
N598 N 0.98062 0.50704 0.67526 0.0
N599 N 0.05768 0.53114 0.64312 0.0
H600 H 0.53609 0.08346 0.70191 0.0
H601 H 0.44455 0.94235 0.72901 0.0
H602 H 0.58177 1.00608 0.72677 0.0
H603 H 0.39981 0.01917 0.70127 0.0
H604 H 0.49339 0.96692 0.73526 0.0
H605 H 0.48476 0.06193 0.70827 0.0
C606 C 0.53531 0.06193 0.70882 0.0
C607 C 0.56335 0.04641 0.71334 0.0
C608 C 0.47282 0.97851 0.72814 0.0
C609 C 0.50449 0.02158 0.72083 0.0
C610 C 0.44493 0.96447 0.7245 0.0
C611 C 0.41817 0.97862 0.71416 0.0
C612 C 0.47408 0.00695 0.72127 0.0
C613 C 0.4198 0.00742 0.7093 0.0
C614 C 0.50595 0.04968 0.71261 0.0
C615 C 0.5608 0.01881 0.72305 0.0
N616 N 0.44741 0.02054 0.71252 0.0
N617 N 0.53192 0.00718 0.72612 0.0
H618 H 0.94937 0.55818 0.37611 0.0
H619 H 0.03579 0.42561 0.28161 0.0
H620 H 0.96499 0.5505 0.27612 0.0
H621 H 0.04466 0.44068 0.37986 0.0
H622 H 1.00166 0.46764 0.28113 0.0
H623 H 0.9757 0.51152 0.37975 0.0
C624 C 0.95759 0.54639 0.35496 0.0
C625 C 0.95497 0.55814 0.32576 0.0
C626 C 1.01092 0.46177 0.30289 0.0
C627 C 0.98523 0.5052 0.32969 0.0
C628 C 0.03036 0.43757 0.30322 0.0
C629 C 0.04329 0.42944 0.33082 0.0
C630 C 1.00404 0.47822 0.33036 0.0
C631 C 0.03559 0.44627 0.35797 0.0
C632 C 0.97291 0.51996 0.35704 0.0
C633 C 0.96655 0.54223 0.2991 0.0
N634 N 0.01649 0.46987 0.35707 0.0
N635 N 0.98115 0.51674 0.30171 0.0
H636 H 0.37008 0.47608 0.0971 0.0
H637 H 0.32671 0.57418 0.95837 0.0
H638 H 0.3256 0.44615 0.01608 0.0
H639 H 0.36271 0.60503 0.04359 0.0
H640 H 0.32427 0.52753 0.97972 0.0
H641 H 0.36631 0.52358 0.07839 0.0
C642 C 0.35966 0.47947 0.07525 0.0
C643 C 0.34846 0.457 0.05794 0.0
C644 C 0.33247 0.54453 0.99387 0.0
C645 C 0.34373 0.51158 0.03647 0.0
C646 C 0.33396 0.57115 0.98165 0.0
C647 C 0.34519 0.59351 0.99911 0.0
C648 C 0.3425 0.54009 0.02375 0.0
C649 C 0.35376 0.58848 0.02936 0.0
C650 C 0.35727 0.50668 0.0647 0.0
C651 C 0.33446 0.46283 0.03018 0.0
N652 N 0.35253 0.56226 0.0406 0.0
N653 N 0.3327 0.48951 0.02019 0.0
H654 H 0.47336 0.71552 0.95985 0.0
H655 H 0.61441 0.61653 0.01301 0.0
H656 H 0.4822 0.6276 0.93336 0.0
H657 H 0.57959 0.693 0.062 0.0
H658 H 0.57445 0.62349 0.97517 0.0
H659 H 0.52111 0.71068 0.98768 0.0
C660 C 0.48561 0.69518 0.95951 0.0
C661 C 0.47343 0.67181 0.94457 0.0
C662 C 0.57585 0.63886 0.99402 0.0
C663 C 0.52838 0.66617 0.97678 0.0
C664 C 0.59876 0.63505 0.01553 0.0
C665 C 0.60032 0.65423 0.0408 0.0
C666 C 0.5547 0.66225 0.9975 0.0
C667 C 0.57921 0.67765 0.043 0.0
C668 C 0.51287 0.69247 0.97556 0.0
C669 C 0.49069 0.64614 0.94462 0.0
N670 N 0.55731 0.68098 0.02167 0.0
N671 N 0.5172 0.64391 0.96083 0.0
H672 H 0.61287 0.43759 0.95963 0.0
H673 H 0.68298 0.5483 0.07666 0.0
H674 H 0.70112 0.47802 0.93995 0.0
H675 H 0.58467 0.52643 0.08287 0.0
H676 H 0.69251 0.51727 0.03054 0.0
H677 H 0.60429 0.46543 1.00848 0.0
C678 C 0.6304 0.45237 0.9656 0.0
C679 C 0.65768 0.4556 0.94568 0.0
C680 C 0.66889 0.5192 0.04213 0.0
C681 C 0.64821 0.48727 1.00156 0.0
C682 C 0.6634 0.53692 0.0685 0.0
C683 C 0.63284 0.54044 0.08356 0.0
C684 C 0.64373 0.50462 0.03081 0.0
C685 C 0.60863 0.52447 0.07226 0.0
C686 C 0.62548 0.46825 0.99342 0.0
C687 C 0.67957 0.47516 0.95441 0.0
N688 N 0.61457 0.5074 0.04646 0.0
N689 N 0.67444 0.49016 0.98178 0.0
H690 H 0.49717 0.38 0.08185 0.0
H691 H 0.56061 0.32058 0.91272 0.0
H692 H 0.4484 0.32156 0.02582 0.0
H693 H 0.62287 0.36114 0.97325 0.0
H694 H 0.52031 0.31962 0.95599 0.0
H695 H 0.54459 0.37277 0.04493 0.0
C696 C 0.49654 0.36543 0.06213 0.0
C697 C 0.46857 0.35173 0.05669 0.0
C698 C 0.54289 0.32839 0.96017 0.0
C699 C 0.52237 0.34343 0.01455 0.0
C700 C 0.56597 0.3288 0.93541 0.0
C701 C 0.59514 0.34071 0.93949 0.0
C702 C 0.54853 0.34069 0.98927 0.0
C703 C 0.60077 0.35139 0.96931 0.0
C704 C 0.52355 0.36133 0.04108 0.0
C705 C 0.46912 0.33304 0.03077 0.0
N706 N 0.57744 0.35156 0.99303 0.0
N707 N 0.49531 0.32968 0.01071 0.0
loop_
_geom_bond_atom_site_label_1
_geom_bond_atom_site_label_2
_geom_bond_distance
_geom_bond_site_symmetry_2
_ccdc_geom_bond_type
Cu0 N1 1.999 . S
Cu0 O6 1.974 . S
Cu0 N11 1.985 . S
Cu0 O20 1.959 . S
N1 Cu0 1.999 . S
N1 C3 1.263 . S
N1 C5 1.389 . S
N2 C3 1.358 . S
N2 C4 1.400 . S
C3 N1 1.263 . S
C3 N2 1.358 . S
C3 H9 0.930 . S
C4 N2 1.400 . S
C4 C5 1.351 . S
C4 H21 0.930 . S
C5 N1 1.389 . S
C5 C4 1.351 . S
C5 H10 0.930 . S
O6 Cu0 1.974 . S
O6 C16 1.282 . S
C7 O8 1.261 . S
C7 O20 1.251 . S
O8 C7 1.261 . S
H9 C3 0.930 . S
H10 C5 0.930 . S
N11 Cu0 1.985 . S
N11 C13 1.335 . S
N11 C14 1.390 . S
N12 C13 1.345 . S
N12 C15 1.336 . S
C13 N11 1.335 . S
C13 N12 1.345 . S
C13 H18 0.930 . S
C14 N11 1.390 . S
C14 C15 1.346 . S
C14 H19 0.930 . S
C15 N12 1.336 . S
C15 C14 1.346 . S
C15 H22 0.929 . S
C16 O6 1.282 . S
C16 O17 1.216 . S
O17 C16 1.216 . S
H18 C13 0.930 . S
H19 C14 0.930 . S
O20 Cu0 1.959 . S
O20 C7 1.251 . S
H21 C4 0.930 . S
H22 C15 0.929 . S
Cu23 N24 1.999 . S
Cu23 O29 1.974 . S
Cu23 N34 1.985 . S
Cu23 O43 1.959 . S
N24 Cu23 1.999 . S
N24 C26 1.263 . S
N24 C28 1.389 . S
N25 C26 1.358 . S
N25 C27 1.400 . S
C26 N24 1.263 . S
C26 N25 1.358 . S
C26 H32 0.930 . S
C27 N25 1.400 . S
C27 C28 1.351 . S
C27 H44 0.930 . S
C28 N24 1.389 . S
C28 C27 1.351 . S
C28 H33 0.930 . S
O29 Cu23 1.974 . S
O29 C39 1.282 . S
C30 O31 1.261 . S
C30 O43 1.251 . S
O31 C30 1.261 . S
H32 C26 0.930 . S
H33 C28 0.930 . S
N34 Cu23 1.985 . S
N34 C36 1.335 . S
N34 C37 1.390 . S
N35 C36 1.345 . S
N35 C38 1.336 . S
C36 N34 1.335 . S
C36 N35 1.345 . S
C36 H41 0.930 . S
C37 N34 1.390 . S
C37 C38 1.346 . S
C37 H42 0.930 . S
C38 N35 1.336 . S
C38 C37 1.346 . S
C38 H45 0.929 . S
C39 O29 1.282 . S
C39 O40 1.216 . S
O40 C39 1.216 . S
H41 C36 0.930 . S
H42 C37 0.930 . S
O43 Cu23 1.959 . S
O43 C30 1.251 . S
H44 C27 0.930 . S
H45 C38 0.929 . S
Cu46 N47 1.999 . S
Cu46 O52 1.974 . S
Cu46 N57 1.985 . S
Cu46 O66 1.959 . S
N47 Cu46 1.999 . S
N47 C49 1.263 . S
N47 C51 1.389 . S
N48 C49 1.358 . S
N48 C50 1.400 . S
C49 N47 1.263 . S
C49 N48 1.358 . S
C49 H55 0.930 . S
C50 N48 1.400 . S
C50 C51 1.351 . S
C50 H67 0.930 . S
C51 N47 1.389 . S
C51 C50 1.351 . S
C51 H56 0.930 . S
O52 Cu46 1.974 . S
O52 C62 1.282 . S
C53 O54 1.261 . S
C53 O66 1.251 . S
O54 C53 1.261 . S
H55 C49 0.930 . S
H56 C51 0.930 . S
N57 Cu46 1.985 . S
N57 C59 1.335 . S
N57 C60 1.390 . S
N58 C59 1.345 . S
N58 C61 1.336 . S
C59 N57 1.335 . S
C59 N58 1.345 . S
C59 H64 0.930 . S
C60 N57 1.390 . S
C60 C61 1.346 . S
C60 H65 0.930 . S
C61 N58 1.336 . S
C61 C60 1.346 . S
C61 H68 0.929 . S
C62 O52 1.282 . S
C62 O63 1.216 . S
O63 C62 1.216 . S
H64 C59 0.930 . S
H65 C60 0.930 . S
O66 Cu46 1.959 . S
O66 C53 1.251 . S
H67 C50 0.930 . S
H68 C61 0.929 . S
Cu69 N70 1.999 . S
Cu69 O75 1.974 . S
Cu69 N80 1.985 . S
Cu69 O89 1.959 . S
N70 Cu69 1.999 . S
N70 C72 1.263 . S
N70 C74 1.389 . S
N71 C72 1.358 . S
N71 C73 1.400 . S
C72 N70 1.263 . S
C72 N71 1.358 . S
C72 H78 0.930 . S
C73 N71 1.400 . S
C73 C74 1.351 . S
C73 H90 0.930 . S
C74 N70 1.389 . S
C74 C73 1.351 . S
C74 H79 0.930 . S
O75 Cu69 1.974 . S
O75 C85 1.282 . S
C76 O77 1.261 . S
C76 O89 1.251 . S
O77 C76 1.261 . S
H78 C72 0.930 . S
H79 C74 0.930 . S
N80 Cu69 1.985 . S
N80 C82 1.335 . S
N80 C83 1.390 . S
N81 C82 1.345 . S
N81 C84 1.336 . S
C82 N80 1.335 . S
C82 N81 1.345 . S
C82 H87 0.930 . S
C83 N80 1.390 . S
C83 C84 1.346 . S
C83 H88 0.930 . S
C84 N81 1.336 . S
C84 C83 1.346 . S
C84 H91 0.929 . S
C85 O75 1.282 . S
C85 O86 1.216 . S
O86 C85 1.216 . S
H87 C82 0.930 . S
H88 C83 0.930 . S
O89 Cu69 1.959 . S
O89 C76 1.251 . S
H90 C73 0.930 . S
H91 C84 0.929 . S
Cu92 N93 1.999 . S
Cu92 O98 1.974 . S
Cu92 N103 1.985 . S
Cu92 O112 1.959 . S
N93 Cu92 1.999 . S
N93 C95 1.263 . S
N93 C97 1.389 . S
N94 C95 1.358 . S
N94 C96 1.400 . S
C95 N93 1.263 . S
C95 N94 1.358 . S
C95 H101 0.930 . S
C96 N94 1.400 . S
C96 C97 1.351 . S
C96 H113 0.930 . S
C97 N93 1.389 . S
C97 C96 1.351 . S
C97 H102 0.930 . S
O98 Cu92 1.974 . S
O98 C108 1.282 . S
C99 O100 1.261 . S
C99 O112 1.251 . S
O100 C99 1.261 . S
H101 C95 0.930 . S
H102 C97 0.930 . S
N103 Cu92 1.985 . S
N103 C105 1.335 . S
N103 C106 1.390 . S
N104 C105 1.345 . S
N104 C107 1.336 . S
C105 N103 1.335 . S
C105 N104 1.345 . S
C105 H110 0.930 . S
C106 N103 1.390 . S
C106 C107 1.346 . S
C106 H111 0.930 . S
C107 N104 1.336 . S
C107 C106 1.346 . S
C107 H114 0.929 . S
C108 O98 1.282 . S
C108 O109 1.216 . S
O109 C108 1.216 . S
H110 C105 0.930 . S
H111 C106 0.930 . S
O112 Cu92 1.959 . S
O112 C99 1.251 . S
H113 C96 0.930 . S
H114 C107 0.929 . S
Cu115 N116 1.999 . S
Cu115 O121 1.974 . S
Cu115 N126 1.985 . S
Cu115 O135 1.959 . S
N116 Cu115 1.999 . S
N116 C118 1.263 . S
N116 C120 1.389 . S
N117 C118 1.358 . S
N117 C119 1.400 . S
C118 N116 1.263 . S
C118 N117 1.358 . S
C118 H124 0.930 . S
C119 N117 1.400 . S
C119 C120 1.351 . S
C119 H136 0.930 . S
C120 N116 1.389 . S
C120 C119 1.351 . S
C120 H125 0.930 . S
O121 Cu115 1.974 . S
O121 C131 1.282 . S
C122 O123 1.261 . S
C122 O135 1.251 . S
O123 C122 1.261 . S
H124 C118 0.930 . S
H125 C120 0.930 . S
N126 Cu115 1.985 . S
N126 C128 1.335 . S
N126 C129 1.390 . S
N127 C128 1.345 . S
N127 C130 1.336 . S
C128 N126 1.335 . S
C128 N127 1.345 . S
C128 H133 0.930 . S
C129 N126 1.390 . S
C129 C130 1.346 . S
C129 H134 0.930 . S
C130 N127 1.336 . S
C130 C129 1.346 . S
C130 H137 0.929 . S
C131 O121 1.282 . S
C131 O132 1.216 . S
O132 C131 1.216 . S
H133 C128 0.930 . S
H134 C129 0.930 . S
O135 Cu115 1.959 . S
O135 C122 1.251 . S
H136 C119 0.930 . S
H137 C130 0.929 . S
Cu138 N139 1.999 . S
Cu138 O144 1.974 . S
Cu138 N149 1.985 . S
Cu138 O158 1.959 . S
N139 Cu138 1.999 . S
N139 C141 1.263 . S
N139 C143 1.389 . S
N140 C141 1.358 . S
N140 C142 1.400 . S
C141 N139 1.263 . S
C141 N140 1.358 . S
C141 H147 0.930 . S
C142 N140 1.400 . S
C142 C143 1.351 . S
C142 H159 0.930 . S
C143 N139 1.389 . S
C143 C142 1.351 . S
C143 H148 0.930 . S
O144 Cu138 1.974 . S
O144 C154 1.282 . S
C145 O146 1.261 . S
C145 O158 1.251 . S
O146 C145 1.261 . S
H147 C141 0.930 . S
H148 C143 0.930 . S
N149 Cu138 1.985 . S
N149 C151 1.335 . S
N149 C152 1.390 . S
N150 C151 1.345 . S
N150 C153 1.336 . S
C151 N149 1.335 . S
C151 N150 1.345 . S
C151 H156 0.930 . S
C152 N149 1.390 . S
C152 C153 1.346 . S
C152 H157 0.930 . S
C153 N150 1.336 . S
C153 C152 1.346 . S
C153 H160 0.929 . S
C154 O144 1.282 . S
C154 O155 1.216 . S
O155 C154 1.216 . S
H156 C151 0.930 . S
H157 C152 0.930 . S
O158 Cu138 1.959 . S
O158 C145 1.251 . S
H159 C142 0.930 . S
H160 C153 0.929 . S
Cu161 N162 1.999 . S
Cu161 O167 1.974 . S
Cu161 N172 1.985 . S
Cu161 O181 1.959 . S
N162 Cu161 1.999 . S
N162 C164 1.263 . S
N162 C166 1.389 . S
N163 C164 1.358 . S
N163 C165 1.400 . S
C164 N162 1.263 . S
C164 N163 1.358 . S
C164 H170 0.930 . S
C165 N163 1.400 . S
C165 C166 1.351 . S
C165 H182 0.930 . S
C166 N162 1.389 . S
C166 C165 1.351 . S
C166 H171 0.930 . S
O167 Cu161 1.974 . S
O167 C177 1.282 . S
C168 O169 1.261 . S
C168 O181 1.251 . S
O169 C168 1.261 . S
H170 C164 0.930 . S
H171 C166 0.930 . S
N172 Cu161 1.985 . S
N172 C174 1.335 . S
N172 C175 1.390 . S
N173 C174 1.345 . S
N173 C176 1.336 . S
C174 N172 1.335 . S
C174 N173 1.345 . S
C174 H179 0.930 . S
C175 N172 1.390 . S
C175 C176 1.346 . S
C175 H180 0.930 . S
C176 N173 1.336 . S
C176 C175 1.346 . S
C176 H183 0.929 . S
C177 O167 1.282 . S
C177 O178 1.216 . S
O178 C177 1.216 . S
H179 C174 0.930 . S
H180 C175 0.930 . S
O181 Cu161 1.959 . S
O181 C168 1.251 . S
H182 C165 0.930 . S
H183 C176 0.929 . S
Cu184 N185 1.999 . S
Cu184 O190 1.974 . S
Cu184 N195 1.985 . S
Cu184 O204 1.959 . S
N185 Cu184 1.999 . S
N185 C187 1.263 . S
N185 C189 1.389 . S
N186 C187 1.358 . S
N186 C188 1.400 . S
C187 N185 1.263 . S
C187 N186 1.358 . S
C187 H193 0.930 . S
C188 N186 1.400 . S
C188 C189 1.351 . S
C188 H205 0.930 . S
C189 N185 1.389 . S
C189 C188 1.351 . S
C189 H194 0.930 . S
O190 Cu184 1.974 . S
O190 C200 1.282 . S
C191 O192 1.261 . S
C191 O204 1.251 . S
O192 C191 1.261 . S
H193 C187 0.930 . S
H194 C189 0.930 . S
N195 Cu184 1.985 . S
N195 C197 1.335 . S
N195 C198 1.390 . S
N196 C197 1.345 . S
N196 C199 1.336 . S
C197 N195 1.335 . S
C197 N196 1.345 . S
C197 H202 0.930 . S
C198 N195 1.390 . S
C198 C199 1.346 . S
C198 H203 0.930 . S
C199 N196 1.336 . S
C199 C198 1.346 . S
C199 H206 0.929 . S
C200 O190 1.282 . S
C200 O201 1.216 . S
O201 C200 1.216 . S
H202 C197 0.930 . S
H203 C198 0.930 . S
O204 Cu184 1.959 . S
O204 C191 1.251 . S
H205 C188 0.930 . S
H206 C199 0.929 . S
Cu207 N208 1.999 . S
Cu207 O213 1.974 . S
Cu207 N218 1.985 . S
Cu207 O227 1.959 . S
N208 Cu207 1.999 . S
N208 C210 1.263 . S
N208 C212 1.389 . S
N209 C210 1.358 . S
N209 C211 1.400 . S
C210 N208 1.263 . S
C210 N209 1.358 . S
C210 H216 0.930 . S
C211 N209 1.400 . S
C211 C212 1.351 . S
C211 H228 0.930 . S
C212 N208 1.389 . S
C212 C211 1.351 . S
C212 H217 0.930 . S
O213 Cu207 1.974 . S
O213 C223 1.282 . S
C214 O215 1.261 . S
C214 O227 1.251 . S
O215 C214 1.261 . S
H216 C210 0.930 . S
H217 C212 0.930 . S
N218 Cu207 1.985 . S
N218 C220 1.335 . S
N218 C221 1.390 . S
N219 C220 1.345 . S
N219 C222 1.336 . S
C220 N218 1.335 . S
C220 N219 1.345 . S
C220 H225 0.930 . S
C221 N218 1.390 . S
C221 C222 1.346 . S
C221 H226 0.930 . S
C222 N219 1.336 . S
C222 C221 1.346 . S
C222 H229 0.929 . S
C223 O213 1.282 . S
C223 O224 1.216 . S
O224 C223 1.216 . S
H225 C220 0.930 . S
H226 C221 0.930 . S
O227 Cu207 1.959 . S
O227 C214 1.251 . S
H228 C211 0.930 . S
H229 C222 0.929 . S
Cu230 N231 1.999 . S
Cu230 O236 1.974 . S
Cu230 N241 1.985 . S
Cu230 O250 1.959 . S
N231 Cu230 1.999 . S
N231 C233 1.263 . S
N231 C235 1.389 . S
N232 C233 1.358 . S
N232 C234 1.400 . S
C233 N231 1.263 . S
C233 N232 1.358 . S
C233 H239 0.930 . S
C234 N232 1.400 . S
C234 C235 1.351 . S
C234 H251 0.930 . S
C235 N231 1.389 . S
C235 C234 1.351 . S
C235 H240 0.930 . S
O236 Cu230 1.974 . S
O236 C246 1.282 . S
C237 O238 1.261 . S
C237 O250 1.251 . S
O238 C237 1.261 . S
H239 C233 0.930 . S
H240 C235 0.930 . S
N241 Cu230 1.985 . S
N241 C243 1.335 . S
N241 C244 1.390 . S
N242 C243 1.345 . S
N242 C245 1.336 . S
C243 N241 1.335 . S
C243 N242 1.345 . S
C243 H248 0.930 . S
C244 N241 1.390 . S
C244 C245 1.346 . S
C244 H249 0.930 . S
C245 N242 1.336 . S
C245 C244 1.346 . S
C245 H252 0.929 . S
C246 O236 1.282 . S
C246 O247 1.216 . S
O247 C246 1.216 . S
H248 C243 0.930 . S
H249 C244 0.930 . S
O250 Cu230 1.959 . S
O250 C237 1.251 . S
H251 C234 0.930 . S
H252 C245 0.929 . S
Cu253 N254 1.999 . S
Cu253 O259 1.974 . S
Cu253 N264 1.985 . S
Cu253 O273 1.959 . S
N254 Cu253 1.999 . S
N254 C256 1.263 . S
N254 C258 1.389 . S
N255 C256 1.358 . S
N255 C257 1.400 . S
C256 N254 1.263 . S
C256 N255 1.358 . S
C256 H262 0.930 . S
C257 N255 1.400 . S
C257 C258 1.351 . S
C257 H274 0.930 . S
C258 N254 1.389 . S
C258 C257 1.351 . S
C258 H263 0.930 . S
O259 Cu253 1.974 . S
O259 C269 1.282 . S
C260 O261 1.261 . S
C260 O273 1.251 . S
O261 C260 1.261 . S
H262 C256 0.930 . S
H263 C258 0.930 . S
N264 Cu253 1.985 . S
N264 C266 1.335 . S
N264 C267 1.390 . S
N265 C266 1.345 . S
N265 C268 1.336 . S
C266 N264 1.335 . S
C266 N265 1.345 . S
C266 H271 0.930 . S
C267 N264 1.390 . S
C267 C268 1.346 . S
C267 H272 0.930 . S
C268 N265 1.336 . S
C268 C267 1.346 . S
C268 H275 0.929 . S
C269 O259 1.282 . S
C269 O270 1.216 . S
O270 C269 1.216 . S
H271 C266 0.930 . S
H272 C267 0.930 . S
O273 Cu253 1.959 . S
O273 C260 1.251 . S
H274 C257 0.930 . S
H275 C268 0.929 . S
H276 C282 0.930 . S
H277 C286 0.930 . S
H278 C291 0.929 . S
H279 C289 0.929 . S
H280 C284 0.929 . S
H281 C290 0.929 . S
C282 H276 0.930 . S
C282 C283 1.367 . S
C282 C290 1.378 . S
C283 C282 1.367 . S
C283 C291 1.433 . S
C284 H280 0.929 . S
C284 C286 1.378 . S
C284 C288 1.350 . S
C285 C288 1.463 . S
C285 C290 1.350 . S
C285 N293 1.427 . S
C286 H277 0.930 . S
C286 C284 1.378 . S
C286 C287 1.367 . S
C287 C286 1.367 . S
C287 C289 1.433 . S
C288 C284 1.350 . S
C288 C285 1.463 . S
C288 N292 1.427 . S
C289 H279 0.929 . S
C289 C287 1.433 . S
C289 N292 1.384 . S
C290 H281 0.929 . S
C290 C282 1.378 . S
C290 C285 1.350 . S
C291 H278 0.929 . S
C291 C283 1.433 . S
C291 N293 1.384 . S
N292 C288 1.427 . S
N292 C289 1.384 . S
N293 C285 1.427 . S
N293 C291 1.384 . S
H294 C300 0.930 . S
H295 C304 0.930 . S
H296 C309 0.929 . S
H297 C307 0.929 . S
H298 C302 0.929 . S
H299 C308 0.929 . S
C300 H294 0.930 . S
C300 C301 1.367 . S
C300 C308 1.378 . S
C301 C300 1.367 . S
C301 C309 1.433 . S
C302 H298 0.929 . S
C302 C304 1.378 . S
C302 C306 1.350 . S
C303 C306 1.463 . S
C303 C308 1.350 . S
C303 N311 1.427 . S
C304 H295 0.930 . S
C304 C302 1.378 . S
C304 C305 1.367 . S
C305 C304 1.367 . S
C305 C307 1.433 . S
C306 C302 1.350 . S
C306 C303 1.463 . S
C306 N310 1.427 . S
C307 H297 0.929 . S
C307 C305 1.433 . S
C307 N310 1.384 . S
C308 H299 0.929 . S
C308 C300 1.378 . S
C308 C303 1.350 . S
C309 H296 0.929 . S
C309 C301 1.433 . S
C309 N311 1.384 . S
N310 C306 1.427 . S
N310 C307 1.384 . S
N311 C303 1.427 . S
N311 C309 1.384 . S
H312 C318 0.930 . S
H313 C322 0.930 . S
H314 C327 0.929 . S
H315 C325 0.929 . S
H316 C320 0.929 . S
H317 C326 0.929 . S
C318 H312 0.930 . S
C318 C319 1.367 . S
C318 C326 1.378 . S
C319 C318 1.367 . S
C319 C327 1.433 . S
C320 H316 0.929 . S
C320 C322 1.378 . S
C320 C324 1.350 . S
C321 C324 1.463 . S
C321 C326 1.350 . S
C321 N329 1.427 . S
C322 H313 0.930 . S
C322 C320 1.378 . S
C322 C323 1.367 . S
C323 C322 1.367 . S
C323 C325 1.433 . S
C324 C320 1.350 . S
C324 C321 1.463 . S
C324 N328 1.427 . S
C325 H315 0.929 . S
C325 C323 1.433 . S
C325 N328 1.384 . S
C326 H317 0.929 . S
C326 C318 1.378 . S
C326 C321 1.350 . S
C327 H314 0.929 . S
C327 C319 1.433 . S
C327 N329 1.384 . S
N328 C324 1.427 . S
N328 C325 1.384 . S
N329 C321 1.427 . S
N329 C327 1.384 . S
H330 C336 0.930 . S
H331 C340 0.930 . S
H332 C345 0.929 . S
H333 C343 0.929 . S
H334 C338 0.929 . S
H335 C344 0.929 . S
C336 H330 0.930 . S
C336 C337 1.367 . S
C336 C344 1.378 . S
C337 C336 1.367 . S
C337 C345 1.433 . S
C338 H334 0.929 . S
C338 C340 1.378 . S
C338 C342 1.350 . S
C339 C342 1.463 . S
C339 C344 1.350 . S
C339 N347 1.427 . S
C340 H331 0.930 . S
C340 C338 1.378 . S
C340 C341 1.367 . S
C341 C340 1.367 . S
C341 C343 1.433 . S
C342 C338 1.350 . S
C342 C339 1.463 . S
C342 N346 1.427 . S
C343 H333 0.929 . S
C343 C341 1.433 . S
C343 N346 1.384 . S
C344 H335 0.929 . S
C344 C336 1.378 . S
C344 C339 1.350 . S
C345 H332 0.929 . S
C345 C337 1.433 . S
C345 N347 1.384 . S
N346 C342 1.427 . S
N346 C343 1.384 . S
N347 C339 1.427 . S
N347 C345 1.384 . S
H348 C354 0.930 . S
H349 C358 0.930 . S
H350 C363 0.929 . S
H351 C361 0.929 . S
H352 C356 0.929 . S
H353 C362 0.929 . S
C354 H348 0.930 . S
C354 C355 1.367 . S
C354 C362 1.378 . S
C355 C354 1.367 . S
C355 C363 1.433 . S
C356 H352 0.929 . S
C356 C358 1.378 . S
C356 C360 1.350 . S
C357 C360 1.463 . S
C357 C362 1.350 . S
C357 N365 1.427 . S
C358 H349 0.930 . S
C358 C356 1.378 . S
C358 C359 1.367 . S
C359 C358 1.367 . S
C359 C361 1.433 . S
C360 C356 1.350 . S
C360 C357 1.463 . S
C360 N364 1.427 . S
C361 H351 0.929 . S
C361 C359 1.433 . S
C361 N364 1.384 . S
C362 H353 0.929 . S
C362 C354 1.378 . S
C362 C357 1.350 . S
C363 H350 0.929 . S
C363 C355 1.433 . S
C363 N365 1.384 . S
N364 C360 1.427 . S
N364 C361 1.384 . S
N365 C357 1.427 . S
N365 C363 1.384 . S
H366 C372 0.930 . S
H367 C376 0.930 . S
H368 C381 0.929 . S
H369 C379 0.929 . S
H370 C374 0.929 . S
H371 C380 0.929 . S
C372 H366 0.930 . S
C372 C373 1.367 . S
C372 C380 1.378 . S
C373 C372 1.367 . S
C373 C381 1.433 . S
C374 H370 0.929 . S
C374 C376 1.378 . S
C374 C378 1.350 . S
C375 C378 1.463 . S
C375 C380 1.350 . S
C375 N383 1.427 . S
C376 H367 0.930 . S
C376 C374 1.378 . S
C376 C377 1.367 . S
C377 C376 1.367 . S
C377 C379 1.433 . S
C378 C374 1.350 . S
C378 C375 1.463 . S
C378 N382 1.427 . S
C379 H369 0.929 . S
C379 C377 1.433 . S
C379 N382 1.384 . S
C380 H371 0.929 . S
C380 C372 1.378 . S
C380 C375 1.350 . S
C381 H368 0.929 . S
C381 C373 1.433 . S
C381 N383 1.384 . S
N382 C378 1.427 . S
N382 C379 1.384 . S
N383 C375 1.427 . S
N383 C381 1.384 . S
H384 C390 0.930 . S
H385 C394 0.930 . S
H386 C399 0.929 . S
H387 C397 0.929 . S
H388 C392 0.929 . S
H389 C398 0.929 . S
C390 H384 0.930 . S
C390 C391 1.367 . S
C390 C398 1.378 . S
C391 C390 1.367 . S
C391 C399 1.433 . S
C392 H388 0.929 . S
C392 C394 1.378 . S
C392 C396 1.350 . S
C393 C396 1.463 . S
C393 C398 1.350 . S
C393 N401 1.427 . S
C394 H385 0.930 . S
C394 C392 1.378 . S
C394 C395 1.367 . S
C395 C394 1.367 . S
C395 C397 1.433 . S
C396 C392 1.350 . S
C396 C393 1.463 . S
C396 N400 1.427 . S
C397 H387 0.929 . S
C397 C395 1.433 . S
C397 N400 1.384 . S
C398 H389 0.929 . S
C398 C390 1.378 . S
C398 C393 1.350 . S
C399 H386 0.929 . S
C399 C391 1.433 . S
C399 N401 1.384 . S
N400 C396 1.427 . S
N400 C397 1.384 . S
N401 C393 1.427 . S
N401 C399 1.384 . S
H402 C408 0.930 . S
H403 C412 0.930 . S
H404 C417 0.929 . S
H405 C415 0.929 . S
H406 C410 0.929 . S
H407 C416 0.929 . S
C408 H402 0.930 . S
C408 C409 1.367 . S
C408 C416 1.378 . S
C409 C408 1.367 . S
C409 C417 1.433 . S
C410 H406 0.929 . S
C410 C412 1.378 . S
C410 C414 1.350 . S
C411 C414 1.463 . S
C411 C416 1.350 . S
C411 N419 1.427 . S
C412 H403 0.930 . S
C412 C410 1.378 . S
C412 C413 1.367 . S
C413 C412 1.367 . S
C413 C415 1.433 . S
C414 C410 1.350 . S
C414 C411 1.463 . S
C414 N418 1.427 . S
C415 H405 0.929 . S
C415 C413 1.433 . S
C415 N418 1.384 . S
C416 H407 0.929 . S
C416 C408 1.378 . S
C416 C411 1.350 . S
C417 H404 0.929 . S
C417 C409 1.433 . S
C417 N419 1.384 . S
N418 C414 1.427 . S
N418 C415 1.384 . S
N419 C411 1.427 . S
N419 C417 1.384 . S
H420 C426 0.930 . S
H421 C430 0.930 . S
H422 C435 0.929 . S
H423 C433 0.929 . S
H424 C428 0.929 . S
H425 C434 0.929 . S
C426 H420 0.930 . S
C426 C427 1.367 . S
C426 C434 1.378 . S
C427 C426 1.367 . S
C427 C435 1.433 . S
C428 H424 0.929 . S
C428 C430 1.378 . S
C428 C432 1.350 . S
C429 C432 1.463 . S
C429 C434 1.350 . S
C429 N437 1.427 . S
C430 H421 0.930 . S
C430 C428 1.378 . S
C430 C431 1.367 . S
C431 C430 1.367 . S
C431 C433 1.433 . S
C432 C428 1.350 . S
C432 C429 1.463 . S
C432 N436 1.427 . S
C433 H423 0.929 . S
C433 C431 1.433 . S
C433 N436 1.384 . S
C434 H425 0.929 . S
C434 C426 1.378 . S
C434 C429 1.350 . S
C435 H422 0.929 . S
C435 C427 1.433 . S
C435 N437 1.384 . S
N436 C432 1.427 . S
N436 C433 1.384 . S
N437 C429 1.427 . S
N437 C435 1.384 . S
H438 C444 0.930 . S
H439 C448 0.930 . S
H440 C453 0.929 . S
H441 C451 0.929 . S
H442 C446 0.929 . S
H443 C452 0.929 . S
C444 H438 0.930 . S
C444 C445 1.367 . S
C444 C452 1.378 . S
C445 C444 1.367 . S
C445 C453 1.433 . S
C446 H442 0.929 . S
C446 C448 1.378 . S
C446 C450 1.350 . S
C447 C450 1.463 . S
C447 C452 1.350 . S
C447 N455 1.427 . S
C448 H439 0.930 . S
C448 C446 1.378 . S
C448 C449 1.367 . S
C449 C448 1.367 . S
C449 C451 1.433 . S
C450 C446 1.350 . S
C450 C447 1.463 . S
C450 N454 1.427 . S
C451 H441 0.929 . S
C451 C449 1.433 . S
C451 N454 1.384 . S
C452 H443 0.929 . S
C452 C444 1.378 . S
C452 C447 1.350 . S
C453 H440 0.929 . S
C453 C445 1.433 . S
C453 N455 1.384 . S
N454 C450 1.427 . S
N454 C451 1.384 . S
N455 C447 1.427 . S
N455 C453 1.384 . S
H456 C462 0.930 . S
H457 C466 0.930 . S
H458 C471 0.929 . S
H459 C469 0.929 . S
H460 C464 0.929 . S
H461 C470 0.929 . S
C462 H456 0.930 . S
C462 C463 1.367 . S
C462 C470 1.378 . S
C463 C462 1.367 . S
C463 C471 1.433 . S
C464 H460 0.929 . S
C464 C466 1.378 . S
C464 C468 1.350 . S
C465 C468 1.463 . S
C465 C470 1.350 . S
C465 N473 1.427 . S
C466 H457 0.930 . S
C466 C464 1.378 . S
C466 C467 1.367 . S
C467 C466 1.367 . S
C467 C469 1.433 . S
C468 C464 1.350 . S
C468 C465 1.463 . S
C468 N472 1.427 . S
C469 H459 0.929 . S
C469 C467 1.433 . S
C469 N472 1.384 . S
C470 H461 0.929 . S
C470 C462 1.378 . S
C470 C465 1.350 . S
C471 H458 0.929 . S
C471 C463 1.433 . S
C471 N473 1.384 . S
N472 C468 1.427 . S
N472 C469 1.384 . S
N473 C465 1.427 . S
N473 C471 1.384 . S
H474 C480 0.930 . S
H475 C484 0.930 . S
H476 C489 0.929 . S
H477 C487 0.929 . S
H478 C482 0.929 . S
H479 C488 0.929 . S
C480 H474 0.930 . S
C480 C481 1.367 . S
C480 C488 1.378 . S
C481 C480 1.367 . S
C481 C489 1.433 . S
C482 H478 0.929 . S
C482 C484 1.378 . S
C482 C486 1.350 . S
C483 C486 1.463 . S
C483 C488 1.350 . S
C483 N491 1.427 . S
C484 H475 0.930 . S
C484 C482 1.378 . S
C484 C485 1.367 . S
C485 C484 1.367 . S
C485 C487 1.433 . S
C486 C482 1.350 . S
C486 C483 1.463 . S
C486 N490 1.427 . S
C487 H477 0.929 . S
C487 C485 1.433 . S
C487 N490 1.384 . S
C488 H479 0.929 . S
C488 C480 1.378 . S
C488 C483 1.350 . S
C489 H476 0.929 . S
C489 C481 1.433 . S
C489 N491 1.384 . S
N490 C486 1.427 . S
N490 C487 1.384 . S
N491 C483 1.427 . S
N491 C489 1.384 . S
H492 C498 0.940 . S
H493 C502 0.930 1_655 S
H494 C507 0.929 . S
H495 C505 0.929 . S
H496 C500 0.929 . S
H497 C506 0.929 . S
C498 H492 0.940 . S
C498 C499 1.352 1_455 S
C498 C506 1.383 . S
C499 C498 1.352 1_655 S
C499 C507 1.433 . S
C500 H496 0.929 . S
C500 C502 1.378 1_655 S
C500 C504 1.350 1_655 S
C501 C504 1.463 1_655 S
C501 C506 1.350 1_655 S
C501 N509 1.427 . S
C502 H493 0.930 1_455 S
C502 C500 1.378 1_455 S
C502 C503 1.367 . S
C503 C502 1.367 . S
C503 C505 1.433 . S
C504 C500 1.350 1_455 S
C504 C501 1.463 1_455 S
C504 N508 1.427 . S
C505 H495 0.929 . S
C505 C503 1.433 . S
C505 N508 1.384 . S
C506 H497 0.929 . S
C506 C498 1.383 . S
C506 C501 1.350 1_455 S
C507 H494 0.929 . S
C507 C499 1.433 . S
C507 N509 1.384 . S
N508 C504 1.427 . S
N508 C505 1.384 . S
N509 C501 1.427 . S
N509 C507 1.384 . S
H510 C516 0.930 . S
H511 C520 0.930 . S
H512 C525 0.929 . S
H513 C523 0.915 1_545 S
H514 C518 0.929 . S
H515 C524 0.929 . S
C516 H510 0.930 . S
C516 C517 1.367 . S
C516 C524 1.378 . S
C517 C516 1.367 . S
C517 C525 1.433 1_545 S
C518 H514 0.929 . S
C518 C520 1.378 . S
C518 C522 1.350 . S
C519 C522 1.463 . S
C519 C524 1.350 1_565 S
C519 N527 1.427 . S
C520 H511 0.930 . S
C520 C518 1.378 . S
C520 C521 1.367 . S
C521 C520 1.367 . S
C521 C523 1.433 . S
C522 C518 1.350 . S
C522 C519 1.463 . S
C522 N526 1.427 . S
C523 H513 0.915 1_565 S
C523 C521 1.433 . S
C523 N526 1.384 . S
C524 H515 0.929 . S
C524 C516 1.378 . S
C524 C519 1.350 1_545 S
C525 H512 0.929 . S
C525 C517 1.433 1_565 S
C525 N527 1.384 . S
N526 C522 1.427 . S
N526 C523 1.384 . S
N527 C519 1.427 . S
N527 C525 1.384 . S
H528 C534 0.930 . S
H529 C538 0.930 1_455 S
H530 C543 0.929 . S
H531 C541 0.929 . S
H532 C536 0.929 . S
H533 C542 0.929 . S
C534 H528 0.930 . S
C534 C535 1.367 1_655 S
C534 C542 1.378 . S
C535 C534 1.367 1_455 S
C535 C543 1.433 . S
C536 H532 0.929 . S
C536 C538 1.378 1_455 S
C536 C540 1.350 1_455 S
C537 C540 1.456 1_455 S
C537 C542 1.340 1_455 S
C537 N545 1.445 . S
C538 H529 0.930 1_655 S
C538 C536 1.378 1_655 S
C538 C539 1.367 . S
C539 C538 1.367 . S
C539 C541 1.433 . S
C540 C536 1.350 1_655 S
C540 C537 1.456 1_655 S
C540 N544 1.427 . S
C541 H531 0.929 . S
C541 C539 1.433 . S
C541 N544 1.384 . S
C542 H533 0.929 . S
C542 C534 1.378 . S
C542 C537 1.340 1_655 S
C543 H530 0.929 . S
C543 C535 1.433 . S
C543 N545 1.384 . S
N544 C540 1.427 . S
N544 C541 1.384 . S
N545 C537 1.445 . S
N545 C543 1.384 . S
H546 C552 0.930 . S
H547 C556 0.930 . S
H548 C561 0.929 . S
H549 C559 0.929 . S
H550 C554 0.929 . S
H551 C560 0.929 . S
C552 H546 0.930 . S
C552 C553 1.367 . S
C552 C560 1.378 . S
C553 C552 1.367 . S
C553 C561 1.433 . S
C554 H550 0.929 . S
C554 C556 1.378 . S
C554 C558 1.350 . S
C555 C558 1.463 1_545 S
C555 C560 1.350 . S
C555 N563 1.427 . S
C556 H547 0.930 . S
C556 C554 1.378 . S
C556 C557 1.367 . S
C557 C556 1.367 . S
C557 C559 1.433 . S
C558 C554 1.350 . S
C558 C555 1.463 1_565 S
C558 N562 1.427 . S
C559 H549 0.929 . S
C559 C557 1.433 . S
C559 N562 1.384 . S
C560 H551 0.929 . S
C560 C552 1.378 . S
C560 C555 1.350 . S
C561 H548 0.929 . S
C561 C553 1.433 . S
C561 N563 1.384 . S
N562 C558 1.427 . S
N562 C559 1.384 . S
N563 C555 1.427 . S
N563 C561 1.384 . S
H564 C570 0.930 1_565 S
H565 C574 0.930 . S
H566 C579 0.929 . S
H567 C577 0.929 . S
H568 C572 0.929 . S
H569 C578 0.929 . S
C570 H564 0.930 1_545 S
C570 C571 1.367 . S
C570 C578 1.378 1_545 S
C571 C570 1.367 . S
C571 C579 1.433 . S
C572 H568 0.929 . S
C572 C574 1.378 . S
C572 C576 1.350 . S
C573 C576 1.463 . S
C573 C578 1.350 1_545 S
C573 N581 1.427 . S
C574 H565 0.930 . S
C574 C572 1.378 . S
C574 C575 1.367 1_545 S
C575 C574 1.367 1_565 S
C575 C577 1.433 . S
C576 C572 1.350 . S
C576 C573 1.463 . S
C576 N580 1.427 1_545 S
C577 H567 0.929 . S
C577 C575 1.433 . S
C577 N580 1.384 . S
C578 H569 0.929 . S
C578 C570 1.378 1_565 S
C578 C573 1.350 1_565 S
C579 H566 0.929 . S
C579 C571 1.433 . S
C579 N581 1.384 . S
N580 C576 1.427 1_565 S
N580 C577 1.384 . S
N581 C573 1.427 . S
N581 C579 1.384 . S
H582 C588 0.930 . S
H583 C592 0.930 . S
H584 C597 0.929 . S
H585 C595 0.929 . S
H586 C590 0.929 . S
H587 C596 0.929 1_655 S
C588 H582 0.930 . S
C588 C589 1.367 . S
C588 C596 1.378 . S
C589 C588 1.367 . S
C589 C597 1.433 . S
C590 H586 0.929 . S
C590 C592 1.378 . S
C590 C594 1.350 . S
C591 C594 1.463 . S
C591 C596 1.350 . S
C591 N599 1.427 . S
C592 H583 0.930 . S
C592 C590 1.378 . S
C592 C593 1.367 1_455 S
C593 C592 1.367 1_655 S
C593 C595 1.433 . S
C594 C590 1.350 . S
C594 C591 1.463 . S
C594 N598 1.427 1_455 S
C595 H585 0.929 . S
C595 C593 1.433 . S
C595 N598 1.384 . S
C596 H587 0.929 1_455 S
C596 C588 1.378 . S
C596 C591 1.350 . S
C597 H584 0.929 . S
C597 C589 1.433 . S
C597 N599 1.384 . S
N598 C594 1.427 1_655 S
N598 C595 1.384 . S
N599 C591 1.427 . S
N599 C597 1.384 . S
H600 C606 0.930 . S
H601 C610 0.930 . S
H602 C615 0.929 . S
H603 C613 0.920 1_545 S
H604 C608 0.929 . S
H605 C614 0.929 . S
C606 H600 0.930 . S
C606 C607 1.367 . S
C606 C614 1.378 . S
C607 C606 1.367 . S
C607 C615 1.433 1_545 S
C608 H604 0.929 . S
C608 C610 1.378 . S
C608 C612 1.350 . S
C609 C612 1.477 . S
C609 C614 1.316 1_565 S
C609 N617 1.450 . S
C610 H601 0.930 . S
C610 C608 1.378 . S
C610 C611 1.367 . S
C611 C610 1.367 . S
C611 C613 1.447 . S
C612 C608 1.350 . S
C612 C609 1.477 . S
C612 N616 1.427 1_565 S
C613 H603 0.920 1_565 S
C613 C611 1.447 . S
C613 N616 1.379 1_565 S
C614 H605 0.929 . S
C614 C606 1.378 . S
C614 C609 1.316 1_545 S
C615 H602 0.929 . S
C615 C607 1.433 1_565 S
C615 N617 1.384 . S
N616 C612 1.427 1_545 S
N616 C613 1.379 1_545 S
N617 C609 1.450 . S
N617 C615 1.384 . S
H618 C624 0.930 . S
H619 C628 0.930 . S
H620 C633 0.929 . S
H621 C631 0.929 . S
H622 C626 0.929 . S
H623 C632 0.929 . S
C624 H618 0.930 . S
C624 C625 1.367 . S
C624 C632 1.378 . S
C625 C624 1.367 . S
C625 C633 1.433 . S
C626 H622 0.929 . S
C626 C628 1.378 . S
C626 C630 1.350 1_455 S
C627 C630 1.463 . S
C627 C632 1.350 . S
C627 N635 1.427 . S
C628 H619 0.930 . S
C628 C626 1.378 . S
C628 C629 1.367 . S
C629 C628 1.367 . S
C629 C631 1.433 1_455 S
C630 C626 1.350 1_655 S
C630 C627 1.463 . S
C630 N634 1.427 . S
C631 H621 0.929 . S
C631 C629 1.433 1_655 S
C631 N634 1.384 . S
C632 H623 0.929 . S
C632 C624 1.378 . S
C632 C627 1.350 . S
C633 H620 0.929 . S
C633 C625 1.433 . S
C633 N635 1.384 . S
N634 C630 1.427 . S
N634 C631 1.384 . S
N635 C627 1.427 . S
N635 C633 1.384 . S
H636 C642 0.930 . S
H637 C646 0.930 . S
H638 C651 0.929 1_556 S
H639 C649 0.929 . S
H640 C644 0.929 . S
H641 C650 0.929 . S
C642 H636 0.930 . S
C642 C643 1.367 . S
C642 C650 1.378 . S
C643 C642 1.367 . S
C643 C651 1.433 . S
C644 H640 0.929 . S
C644 C646 1.378 . S
C644 C648 1.350 1_556 S
C645 C648 1.463 . S
C645 C650 1.350 . S
C645 N653 1.427 1_554 S
C646 H637 0.930 . S
C646 C644 1.378 . S
C646 C647 1.367 . S
C647 C646 1.367 . S
C647 C649 1.433 1_556 S
C648 C644 1.350 1_554 S
C648 C645 1.463 . S
C648 N652 1.427 . S
C649 H639 0.929 . S
C649 C647 1.433 1_554 S
C649 N652 1.384 . S
C650 H641 0.929 . S
C650 C642 1.378 . S
C650 C645 1.350 . S
C651 H638 0.929 1_554 S
C651 C643 1.433 . S
C651 N653 1.384 1_554 S
N652 C648 1.427 . S
N652 C649 1.384 . S
N653 C645 1.427 1_556 S
N653 C651 1.384 1_556 S
H654 C660 0.930 . S
H655 C664 0.930 . S
H656 C669 0.929 . S
H657 C667 0.929 . S
H658 C662 0.929 . S
H659 C668 0.929 . S
C660 H654 0.930 . S
C660 C661 1.367 1_554 S
C660 C668 1.378 . S
C661 C660 1.367 1_556 S
C661 C669 1.433 . S
C662 H658 0.929 . S
C662 C664 1.378 . S
C662 C666 1.350 1_556 S
C663 C666 1.463 1_556 S
C663 C668 1.350 1_556 S
C663 N671 1.427 . S
C664 H655 0.930 . S
C664 C662 1.378 . S
C664 C665 1.367 1_556 S
C665 C664 1.367 1_554 S
C665 C667 1.433 . S
C666 C662 1.350 1_554 S
C666 C663 1.463 1_554 S
C666 N670 1.427 . S
C667 H657 0.929 . S
C667 C665 1.433 . S
C667 N670 1.384 . S
C668 H659 0.929 . S
C668 C660 1.378 . S
C668 C663 1.350 1_554 S
C669 H656 0.929 . S
C669 C661 1.433 . S
C669 N671 1.384 . S
N670 C666 1.427 . S
N670 C667 1.384 . S
N671 C663 1.427 . S
N671 C669 1.384 . S
H672 C678 0.930 . S
H673 C682 0.930 1_556 S
H674 C687 0.929 . S
H675 C685 0.929 . S
H676 C680 0.929 . S
H677 C686 0.929 1_554 S
C678 H672 0.930 . S
C678 C679 1.367 . S
C678 C686 1.378 . S
C679 C678 1.367 . S
C679 C687 1.433 . S
C680 H676 0.929 . S
C680 C682 1.378 1_556 S
C680 C684 1.350 . S
C681 C684 1.463 . S
C681 C686 1.350 . S
C681 N689 1.427 . S
C682 H673 0.930 1_554 S
C682 C680 1.378 1_554 S
C682 C683 1.367 . S
C683 C682 1.367 . S
C683 C685 1.433 . S
C684 C680 1.350 . S
C684 C681 1.463 . S
C684 N688 1.427 1_556 S
C685 H675 0.929 . S
C685 C683 1.433 . S
C685 N688 1.384 . S
C686 H677 0.929 1_556 S
C686 C678 1.378 . S
C686 C681 1.350 . S
C687 H674 0.929 . S
C687 C679 1.433 . S
C687 N689 1.384 . S
N688 C684 1.427 1_554 S
N688 C685 1.384 . S
N689 C681 1.427 . S
N689 C687 1.384 . S
H690 C696 0.930 . S
H691 C700 0.930 . S
H692 C705 0.929 . S
H693 C703 0.929 . S
H694 C698 0.929 1_554 S
H695 C704 0.912 1_556 S
C696 H690 0.930 . S
C696 C697 1.367 . S
C696 C704 1.389 . S
C697 C696 1.367 . S
C697 C705 1.433 . S
C698 H694 0.929 1_556 S
C698 C700 1.378 . S
C698 C702 1.350 . S
C699 C702 1.463 1_554 S
C699 C704 1.357 . S
C699 N707 1.427 . S
C700 H691 0.930 . S
C700 C698 1.378 . S
C700 C701 1.367 . S
C701 C700 1.367 . S
C701 C703 1.433 . S
C702 C698 1.350 . S
C702 C699 1.463 1_556 S
C702 N706 1.427 . S
C703 H693 0.929 . S
C703 C701 1.433 . S
C703 N706 1.384 . S
C704 H695 0.912 1_554 S
C704 C696 1.389 . S
C704 C699 1.357 . S
C705 H692 0.929 . S
C705 C697 1.433 . S
C705 N707 1.384 . S
N706 C702 1.427 . S
N706 C703 1.384 . S
N707 C699 1.427 . S
N707 C705 1.384 . S
C283 N12 1.400 . S
C287 C177 1.439 . S
C301 N25 1.351 . S
C305 C108 1.393 . S
C319 N117 1.387 . S
C323 C62 1.421 . S
C337 N140 1.280 . S
C341 N71 1.271 . S
C355 N186 1.250 . S
C359 N163 1.259 . S
C373 C223 1.415 . S
C377 N94 1.377 . S
C391 N242 1.457 . S
C395 C131 1.465 . S
C409 C260 1.629 . S
C413 C154 1.627 . S
C427 C39 1.453 . S
C431 N209 1.429 . S
C445 C237 1.416 . S
C449 N48 1.389 . S
C463 C85 1.409 . S
C467 N265 1.393 . S
C481 C200 1.610 . S
C485 C7 1.608 . S
C499 C145 1.579 . S
C503 C16 1.554 . S
C517 N173 1.738 . S
C521 C30 1.813 . S
C535 N104 1.341 . S
C539 N58 1.333 . S
C553 C76 1.943 . S
C557 C122 1.940 . S
C571 C168 1.596 . S
C575 N127 1.554 . S
C589 C99 1.790 . S
C593 N150 1.720 . S
C607 N81 1.432 . S
C611 N35 1.448 . S
C625 C53 1.805 . S
C629 N2 1.767 . S
C643 N196 1.415 . S
C647 N219 1.414 . S
C661 C214 1.827 . S
C665 C246 1.838 . S
C679 N255 1.426 . S
C683 N232 1.426 . S
C697 C191 1.781 . S
C701 C269 1.788 . S
