# Generated by pormake.
# Topology pcl, (4)-cn, num edge types: 1
# Building blocks:
#     Node 0, Type 0, BuildingBlock: UXUYUI_clean_sbu_0, # of connection points: 4
#     Node 1, Type 0, BuildingBlock: UXUYUI_clean_sbu_0, # of connection points: 4
#     Node 2, Type 0, BuildingBlock: UXUYUI_clean_sbu_0, # of connection points: 4
#     Node 3, Type 0, BuildingBlock: UXUYUI_clean_sbu_0, # of connection points: 4
#     Node 4, Type 0, BuildingBlock: UXUYUI_clean_sbu_0, # of connection points: 4
#     Node 5, Type 0, BuildingBlock: UXUYUI_clean_sbu_0, # of connection points: 4
#     Node 6, Type 0, BuildingBlock: UXUYUI_clean_sbu_0, # of connection points: 4
#     Node 7, Type 0, BuildingBlock: UXUYUI_clean_sbu_0, # of connection points: 4
#     Node 8, Type 0, BuildingBlock: UXUYUI_clean_sbu_0, # of connection points: 4
#     Node 9, Type 0, BuildingBlock: UXUYUI_clean_sbu_0, # of connection points: 4
#     Node 10, Type 0, BuildingBlock: UXUYUI_clean_sbu_0, # of connection points: 4
#     Node 11, Type 0, BuildingBlock: UXUYUI_clean_sbu_0, # of connection points: 4
#     Node 12, Type 0, BuildingBlock: UXUYUI_clean_sbu_0, # of connection points: 4
#     Node 13, Type 0, BuildingBlock: UXUYUI_clean_sbu_0, # of connection points: 4
#     Node 14, Type 0, BuildingBlock: UXUYUI_clean_sbu_0, # of connection points: 4
#     Node 15, Type 0, BuildingBlock: UXUYUI_clean_sbu_0, # of connection points: 4
#     Edge 16, Type (0, 0), BuildingBlock: ZUJKAS_clean_linker_0, # of connection points: 2
#     Edge 17, Type (0, 0), BuildingBlock: ZUJKAS_clean_linker_0, # of connection points: 2
#     Edge 18, Type (0, 0), BuildingBlock: ZUJKAS_clean_linker_0, # of connection points: 2
#     Edge 19, Type (0, 0), BuildingBlock: ZUJKAS_clean_linker_0, # of connection points: 2
#     Edge 20, Type (0, 0), BuildingBlock: ZUJKAS_clean_linker_0, # of connection points: 2
#     Edge 21, Type (0, 0), BuildingBlock: ZUJKAS_clean_linker_0, # of connection points: 2
#     Edge 22, Type (0, 0), BuildingBlock: ZUJKAS_clean_linker_0, # of connection points: 2
#     Edge 23, Type (0, 0), BuildingBlock: ZUJKAS_clean_linker_0, # of connection points: 2
#     Edge 24, Type (0, 0), BuildingBlock: ZUJKAS_clean_linker_0, # of connection points: 2
#     Edge 25, Type (0, 0), BuildingBlock: ZUJKAS_clean_linker_0, # of connection points: 2
#     Edge 26, Type (0, 0), BuildingBlock: ZUJKAS_clean_linker_0, # of connection points: 2
#     Edge 27, Type (0, 0), BuildingBlock: ZUJKAS_clean_linker_0, # of connection points: 2
#     Edge 28, Type (0, 0), BuildingBlock: ZUJKAS_clean_linker_0, # of connection points: 2
#     Edge 29, Type (0, 0), BuildingBlock: ZUJKAS_clean_linker_0, # of connection points: 2
#     Edge 30, Type (0, 0), BuildingBlock: ZUJKAS_clean_linker_0, # of connection points: 2
#     Edge 31, Type (0, 0), BuildingBlock: ZUJKAS_clean_linker_0, # of connection points: 2
#     Edge 32, Type (0, 0), BuildingBlock: ZUJKAS_clean_linker_0, # of connection points: 2
#     Edge 33, Type (0, 0), BuildingBlock: ZUJKAS_clean_linker_0, # of connection points: 2
#     Edge 34, Type (0, 0), BuildingBlock: ZUJKAS_clean_linker_0, # of connection points: 2
#     Edge 35, Type (0, 0), BuildingBlock: ZUJKAS_clean_linker_0, # of connection points: 2
#     Edge 36, Type (0, 0), BuildingBlock: ZUJKAS_clean_linker_0, # of connection points: 2
#     Edge 37, Type (0, 0), BuildingBlock: ZUJKAS_clean_linker_0, # of connection points: 2
#     Edge 38, Type (0, 0), BuildingBlock: ZUJKAS_clean_linker_0, # of connection points: 2
#     Edge 39, Type (0, 0), BuildingBlock: ZUJKAS_clean_linker_0, # of connection points: 2
#     Edge 40, Type (0, 0), BuildingBlock: ZUJKAS_clean_linker_0, # of connection points: 2
#     Edge 41, Type (0, 0), BuildingBlock: ZUJKAS_clean_linker_0, # of connection points: 2
#     Edge 42, Type (0, 0), BuildingBlock: ZUJKAS_clean_linker_0, # of connection points: 2
#     Edge 43, Type (0, 0), BuildingBlock: ZUJKAS_clean_linker_0, # of connection points: 2
#     Edge 44, Type (0, 0), BuildingBlock: ZUJKAS_clean_linker_0, # of connection points: 2
#     Edge 45, Type (0, 0), BuildingBlock: ZUJKAS_clean_linker_0, # of connection points: 2
#     Edge 46, Type (0, 0), BuildingBlock: ZUJKAS_clean_linker_0, # of connection points: 2
#     Edge 47, Type (0, 0), BuildingBlock: ZUJKAS_clean_linker_0, # of connection points: 2
# Relax obj value: 0.133
# Max RMSD: 0.100
# Mean RMSD: 0.099
data_MOF--net-pcl--node1-UXUYUI_clean_sbu_0--edge1-ZUJKAS_clean_linker_0
_symmetry_space_group_name_H-M    P1
_symmetry_Int_Tables_number       1
_symmetry_cell_setting            triclinic
loop_
_symmetry_equiv_pos_as_xyz
'x, y, z'
_cell_length_a     75.705198
_cell_length_b     88.084158
_cell_length_c     77.837895
_cell_angle_alpha  90.001868
_cell_angle_beta   90.000676
_cell_angle_gamma 89.999555
loop_
_atom_site_label
_atom_site_type_symbol
_atom_site_fract_x
_atom_site_fract_y
_atom_site_fract_z
_atom_type_partial_charge
Li0 Li 0.18348 0.36777 0.09832 0.0
Li1 Li 0.18632 0.35456 0.07193 0.0
Li2 Li 0.18326 0.38319 0.07239 0.0
Li3 Li 0.1583 0.36534 0.07944 0.0
C4 C 0.21766 0.37286 0.09059 0.0
N5 N 0.24774 0.3782 0.10977 0.0
C6 C 0.22487 0.36132 0.10073 0.0
C7 C 0.22581 0.3871 0.09014 0.0
C8 C 0.24006 0.36425 0.11037 0.0
C9 C 0.241 0.38958 0.09994 0.0
C10 C 0.17341 0.33371 0.09172 0.0
C11 C 0.16739 0.30889 0.07997 0.0
N12 N 0.17919 0.30272 0.09114 0.0
C13 C 0.18546 0.3271 0.10311 0.0
C14 C 0.16425 0.32452 0.0801 0.0
C15 C 0.18818 0.31142 0.10262 0.0
C16 C 0.18055 0.35863 0.13271 0.0
N17 N 0.1892 0.36859 0.12237 0.0
C18 C 0.20315 0.38002 0.14673 0.0
C19 C 0.20013 0.37934 0.12904 0.0
C20 C 0.19457 0.36972 0.1577 0.0
C21 C 0.1831 0.35895 0.15045 0.0
H22 H 0.17132 0.35063 0.1272 0.0
H23 H 0.20625 0.38761 0.12072 0.0
C24 C 0.19243 0.33563 0.04319 0.0
N25 N 0.19748 0.33836 0.05967 0.0
C26 C 0.19979 0.32358 0.03401 0.0
C27 C 0.21757 0.31744 0.05884 0.0
C28 C 0.21002 0.32972 0.06746 0.0
C29 C 0.21241 0.31422 0.04191 0.0
H30 H 0.18262 0.34277 0.03718 0.0
H31 H 0.21402 0.33221 0.08045 0.0
C32 C 0.16214 0.39039 0.10672 0.0
N33 N 0.15461 0.40277 0.13847 0.0
C34 C 0.14914 0.38387 0.11711 0.0
C35 C 0.17123 0.40325 0.11239 0.0
C36 C 0.14555 0.39029 0.13315 0.0
C37 C 0.16724 0.40933 0.12851 0.0
C38 C 0.15783 0.36894 0.04565 0.0
C39 C 0.15362 0.38297 0.03834 0.0
C40 C 0.14796 0.3561 0.04125 0.0
C41 C 0.13943 0.38396 0.02691 0.0
C42 C 0.13386 0.35756 0.0298 0.0
N43 N 0.12991 0.37135 0.02293 0.0
C44 C 0.20222 0.40253 0.04999 0.0
C45 C 0.17869 0.41408 0.06528 0.0
C46 C 0.20552 0.41604 0.04113 0.0
N47 N 0.18894 0.40182 0.0617 0.0
C48 C 0.18148 0.42777 0.05672 0.0
C49 C 0.19491 0.42883 0.04431 0.0
H50 H 0.21002 0.39251 0.04731 0.0
H51 H 0.16807 0.4131 0.07449 0.0
C52 C 0.12507 0.35102 0.0844 0.0
N53 N 0.13327 0.36371 0.07847 0.0
C54 C 0.10667 0.34995 0.08396 0.0
C55 C 0.10554 0.37506 0.07145 0.0
C56 C 0.12393 0.37571 0.0723 0.0
C57 C 0.09668 0.36206 0.07736 0.0
H58 H 0.13278 0.3418 0.08962 0.0
H59 H 0.1308 0.38581 0.06811 0.0
O60 O 0.20287 0.37023 0.08097 0.0
O61 O 0.17074 0.34908 0.09182 0.0
O62 O 0.16621 0.38399 0.09122 0.0
O63 O 0.17149 0.36779 0.05711 0.0
H64 H 0.21861 0.35032 0.10144 0.0
H65 H 0.22041 0.39617 0.08239 0.0
H66 H 0.24569 0.35546 0.11838 0.0
H67 H 0.24742 0.40055 0.09975 0.0
H68 H 0.16046 0.30167 0.07097 0.0
H69 H 0.19285 0.33401 0.11206 0.0
H70 H 0.15494 0.32941 0.07115 0.0
H71 H 0.19753 0.30618 0.1113 0.0
H72 H 0.21208 0.38855 0.15172 0.0
H73 H 0.17579 0.35107 0.15842 0.0
H74 H 0.19542 0.32143 0.02098 0.0
H75 H 0.22745 0.31062 0.0653 0.0
H76 H 0.14207 0.37385 0.11293 0.0
H77 H 0.18146 0.40833 0.10455 0.0
H78 H 0.13561 0.38532 0.14139 0.0
H79 H 0.17426 0.41922 0.13314 0.0
H80 H 0.16112 0.39302 0.04151 0.0
H81 H 0.15103 0.34515 0.04675 0.0
H82 H 0.13598 0.39477 0.02122 0.0
H83 H 0.12603 0.34774 0.02639 0.0
H84 H 0.21586 0.41632 0.03153 0.0
H85 H 0.17312 0.4374 0.05968 0.0
H86 H 0.10033 0.33973 0.08863 0.0
H87 H 0.09831 0.38475 0.06657 0.0
Li88 Li 0.81639 0.62986 0.60023 0.0
Li89 Li 0.81237 0.64515 0.57419 0.0
Li90 Li 0.8171 0.61709 0.57294 0.0
Li91 Li 0.84186 0.63391 0.57969 0.0
C92 C 0.78204 0.62804 0.5928 0.0
N93 N 0.75217 0.62724 0.61317 0.0
C94 C 0.77116 0.64081 0.59407 0.0
C95 C 0.77762 0.6148 0.60172 0.0
C96 C 0.75614 0.64019 0.60447 0.0
C97 C 0.7625 0.61465 0.61201 0.0
C98 C 0.83221 0.66377 0.59795 0.0
C99 C 0.84828 0.68707 0.5933 0.0
N100 N 0.83952 0.69355 0.60667 0.0
C101 C 0.82356 0.6706 0.61181 0.0
C102 C 0.84484 0.67202 0.58875 0.0
C103 C 0.82736 0.68569 0.61595 0.0
C104 C 0.82025 0.61787 0.63341 0.0
N105 N 0.81085 0.62811 0.62409 0.0
C106 C 0.79569 0.63646 0.64934 0.0
C107 C 0.79866 0.63728 0.63165 0.0
C108 C 0.80545 0.62617 0.65936 0.0
C109 C 0.81771 0.61666 0.65111 0.0
H110 H 0.83 0.61083 0.62716 0.0
H111 H 0.79151 0.64548 0.62404 0.0
C112 C 0.79602 0.66037 0.54687 0.0
N113 N 0.80041 0.66183 0.56372 0.0
C114 C 0.78809 0.67239 0.5381 0.0
C115 C 0.78867 0.68701 0.56437 0.0
C116 C 0.79663 0.67471 0.57261 0.0
C117 C 0.78448 0.68601 0.54682 0.0
H118 H 0.79889 0.6499 0.54018 0.0
H119 H 0.79978 0.67548 0.58608 0.0
C120 C 0.83838 0.60009 0.59161 0.0
N121 N 0.84586 0.56943 0.58987 0.0
C122 C 0.8543 0.59512 0.58447 0.0
C123 C 0.82636 0.58948 0.59807 0.0
C124 C 0.85781 0.57957 0.58366 0.0
C125 C 0.83035 0.57403 0.597 0.0
C126 C 0.83591 0.63953 0.54437 0.0
C127 C 0.84054 0.63057 0.53023 0.0
C128 C 0.83947 0.65509 0.54408 0.0
C129 C 0.84898 0.6373 0.5162 0.0
C130 C 0.8479 0.6614 0.5298 0.0
N131 N 0.85247 0.65244 0.51628 0.0
C132 C 0.79565 0.59222 0.56176 0.0
C133 C 0.82506 0.59281 0.55132 0.0
C134 C 0.79242 0.57866 0.55296 0.0
N135 N 0.8118 0.59893 0.56081 0.0
C136 C 0.82243 0.57932 0.54234 0.0
C137 C 0.80593 0.57206 0.54306 0.0
H138 H 0.78531 0.59738 0.56935 0.0
H139 H 0.8378 0.59834 0.55094 0.0
C140 C 0.87543 0.6433 0.59114 0.0
N141 N 0.86671 0.63652 0.57795 0.0
C142 C 0.89377 0.6449 0.5906 0.0
C143 C 0.89386 0.63221 0.56306 0.0
C144 C 0.87551 0.63095 0.56409 0.0
C145 C 0.90323 0.63923 0.57646 0.0
H146 H 0.86813 0.64732 0.60219 0.0
H147 H 0.86834 0.62523 0.554 0.0
O148 O 0.79685 0.62846 0.58274 0.0
O149 O 0.82871 0.64894 0.59381 0.0
O150 O 0.83452 0.61526 0.59217 0.0
O151 O 0.82768 0.63308 0.55824 0.0
H152 H 0.77432 0.65111 0.58717 0.0
H153 H 0.78583 0.6048 0.60082 0.0
H154 H 0.74765 0.65001 0.60564 0.0
H155 H 0.75898 0.60452 0.61909 0.0
H156 H 0.85798 0.69358 0.58624 0.0
H157 H 0.81391 0.6644 0.61921 0.0
H158 H 0.85212 0.66684 0.57836 0.0
H159 H 0.82064 0.69114 0.62655 0.0
H160 H 0.78628 0.64415 0.65518 0.0
H161 H 0.82538 0.60844 0.65828 0.0
H162 H 0.78477 0.67101 0.52466 0.0
H163 H 0.78617 0.6973 0.57158 0.0
H164 H 0.86377 0.60317 0.57948 0.0
H165 H 0.81404 0.59314 0.60373 0.0
H166 H 0.87003 0.57555 0.57807 0.0
H167 H 0.82111 0.56569 0.60183 0.0
H168 H 0.83769 0.61855 0.53008 0.0
H169 H 0.83552 0.66227 0.55461 0.0
H170 H 0.85272 0.63048 0.50523 0.0
H171 H 0.85073 0.67343 0.52944 0.0
H172 H 0.77947 0.57349 0.55374 0.0
H173 H 0.83331 0.57451 0.53515 0.0
H174 H 0.90051 0.65015 0.60134 0.0
H175 H 0.90063 0.62772 0.55191 0.0
Li176 Li 0.18378 0.6156 0.92535 0.0
Li177 Li 0.15895 0.63371 0.91903 0.0
Li178 Li 0.18439 0.63226 0.90034 0.0
Li179 Li 0.18673 0.6441 0.92751 0.0
C180 C 0.16246 0.61044 0.89029 0.0
N181 N 0.15383 0.6004 0.85775 0.0
C182 C 0.14972 0.61812 0.88063 0.0
C183 C 0.17076 0.59762 0.88346 0.0
C184 C 0.14556 0.61287 0.86418 0.0
C185 C 0.16621 0.59273 0.86696 0.0
C186 C 0.15765 0.62824 0.95222 0.0
C187 C 0.13266 0.63833 0.96774 0.0
N188 N 0.12884 0.62414 0.97355 0.0
C189 C 0.15351 0.61378 0.95843 0.0
C190 C 0.1472 0.64064 0.957 0.0
C191 C 0.13889 0.61194 0.96918 0.0
C192 C 0.20189 0.59523 0.94727 0.0
N193 N 0.18931 0.59645 0.93489 0.0
C194 C 0.18236 0.57011 0.93729 0.0
C195 C 0.17964 0.58428 0.92977 0.0
C196 C 0.19506 0.56848 0.95034 0.0
C197 C 0.20504 0.58125 0.95519 0.0
H198 H 0.20921 0.60519 0.95121 0.0
H199 H 0.16953 0.58566 0.92009 0.0
C200 C 0.12537 0.64819 0.91621 0.0
N201 N 0.13388 0.63499 0.91983 0.0
C202 C 0.10696 0.64889 0.91691 0.0
C203 C 0.10644 0.62233 0.92473 0.0
C204 C 0.12484 0.62214 0.92384 0.0
C205 C 0.09724 0.63584 0.92125 0.0
H206 H 0.13286 0.65813 0.91262 0.0
H207 H 0.13197 0.61175 0.92643 0.0
C208 C 0.21829 0.62631 0.90809 0.0
N209 N 0.24831 0.62099 0.88881 0.0
C210 C 0.22579 0.638 0.89837 0.0
C211 C 0.22611 0.61194 0.90807 0.0
C212 C 0.24093 0.63507 0.88867 0.0
C213 C 0.24128 0.60947 0.89823 0.0
C214 C 0.17472 0.66585 0.90905 0.0
C215 C 0.18749 0.67266 0.8986 0.0
C216 C 0.16558 0.67465 0.92106 0.0
C217 C 0.19091 0.68817 0.90037 0.0
C218 C 0.16942 0.69011 0.92248 0.0
N219 N 0.1819 0.6965 0.91219 0.0
C220 C 0.18238 0.64293 0.86635 0.0
C221 C 0.20082 0.62137 0.86935 0.0
C222 C 0.1849 0.64292 0.84859 0.0
N223 N 0.19042 0.63234 0.87636 0.0
C224 C 0.20377 0.62097 0.85166 0.0
C225 C 0.19568 0.63181 0.841 0.0
H226 H 0.17355 0.65112 0.8721 0.0
H227 H 0.20645 0.61265 0.87741 0.0
C228 C 0.19097 0.66317 0.95647 0.0
N229 N 0.19773 0.65974 0.94077 0.0
C230 C 0.19804 0.67508 0.96609 0.0
C231 C 0.21924 0.67947 0.94342 0.0
C232 C 0.21176 0.66746 0.93426 0.0
C233 C 0.21228 0.6835 0.95952 0.0
H234 H 0.18001 0.65673 0.9615 0.0
H235 H 0.21693 0.66453 0.92178 0.0
O236 O 0.16712 0.6157 0.90619 0.0
O237 O 0.17173 0.63022 0.94141 0.0
O238 O 0.20352 0.62894 0.91778 0.0
O239 O 0.17143 0.6506 0.90775 0.0
H240 H 0.14331 0.62816 0.88567 0.0
H241 H 0.18082 0.59167 0.89068 0.0
H242 H 0.13581 0.61875 0.85651 0.0
H243 H 0.17261 0.58289 0.86145 0.0
H244 H 0.12439 0.6478 0.9714 0.0
H245 H 0.16142 0.60405 0.95495 0.0
H246 H 0.15009 0.65189 0.95224 0.0
H247 H 0.1355 0.6008 0.97402 0.0
H248 H 0.17451 0.56056 0.93302 0.0
H249 H 0.21479 0.58055 0.96534 0.0
H250 H 0.1004 0.65947 0.9138 0.0
H251 H 0.09951 0.61204 0.92826 0.0
H252 H 0.21978 0.64912 0.89801 0.0
H253 H 0.22051 0.60276 0.9155 0.0
H254 H 0.24679 0.64398 0.88098 0.0
H255 H 0.24745 0.5984 0.89806 0.0
H256 H 0.19487 0.66603 0.88937 0.0
H257 H 0.15582 0.66957 0.9294 0.0
H258 H 0.2008 0.69356 0.89242 0.0
H259 H 0.16254 0.69703 0.93181 0.0
H260 H 0.178 0.65124 0.84086 0.0
H261 H 0.21217 0.61219 0.84639 0.0
H262 H 0.19246 0.67763 0.97858 0.0
H263 H 0.23008 0.68574 0.93777 0.0
Li264 Li 0.81806 0.38282 0.42771 0.0
Li265 Li 0.8421 0.36514 0.42089 0.0
Li266 Li 0.81645 0.36816 0.40062 0.0
Li267 Li 0.81365 0.35441 0.4278 0.0
C268 C 0.83729 0.39727 0.40079 0.0
N269 N 0.84302 0.42552 0.38635 0.0
C270 C 0.85366 0.40443 0.40264 0.0
C271 C 0.82395 0.40437 0.39132 0.0
C272 C 0.85626 0.41875 0.39533 0.0
C273 C 0.82708 0.41867 0.38418 0.0
C274 C 0.84177 0.3661 0.45507 0.0
C275 C 0.86375 0.35147 0.47023 0.0
N276 N 0.86849 0.36411 0.47915 0.0
C277 C 0.84675 0.3789 0.46451 0.0
C278 C 0.85021 0.35223 0.45807 0.0
C279 C 0.86033 0.37767 0.47659 0.0
C280 C 0.79679 0.4046 0.44532 0.0
N281 N 0.81302 0.40166 0.43861 0.0
C282 C 0.82364 0.42586 0.44779 0.0
C283 C 0.8264 0.41187 0.43989 0.0
C284 C 0.80696 0.42935 0.45463 0.0
C285 C 0.79343 0.41848 0.45341 0.0
H286 H 0.78646 0.39615 0.44441 0.0
H287 H 0.83936 0.40902 0.43507 0.0
C288 C 0.87494 0.3506 0.41481 0.0
N289 N 0.86703 0.3628 0.42223 0.0
C290 C 0.89328 0.34895 0.41553 0.0
C291 C 0.89493 0.3724 0.43161 0.0
C292 C 0.8766 0.37366 0.43043 0.0
C293 C 0.9035 0.35994 0.42404 0.0
H294 H 0.86702 0.34221 0.40823 0.0
H295 H 0.86999 0.38337 0.43598 0.0
C296 C 0.78178 0.37505 0.41242 0.0
N297 N 0.74918 0.38399 0.39999 0.0
C298 C 0.76798 0.36456 0.41114 0.0
C299 C 0.77887 0.39015 0.40767 0.0
C300 C 0.75163 0.36928 0.40475 0.0
C301 C 0.76234 0.39443 0.40134 0.0
C302 C 0.82654 0.33423 0.4052 0.0
C303 C 0.81567 0.32922 0.39183 0.0
C304 C 0.83474 0.32361 0.4159 0.0
C305 C 0.81294 0.31366 0.38958 0.0
C306 C 0.83165 0.30815 0.41325 0.0
N307 N 0.8209 0.30354 0.40027 0.0
C308 C 0.8238 0.37297 0.36607 0.0
C309 C 0.79417 0.36536 0.37072 0.0
C310 C 0.82096 0.37374 0.3484 0.0
N311 N 0.81046 0.36897 0.37684 0.0
C312 C 0.79074 0.36594 0.35309 0.0
C313 C 0.80424 0.37021 0.34167 0.0
H314 H 0.83673 0.37548 0.37125 0.0
H315 H 0.78389 0.36182 0.37943 0.0
C316 C 0.80524 0.33556 0.45596 0.0
N317 N 0.80207 0.33791 0.43898 0.0
C318 C 0.79764 0.32322 0.46443 0.0
C319 C 0.78337 0.31606 0.43786 0.0
C320 C 0.79119 0.32859 0.42993 0.0
C321 C 0.78664 0.3132 0.45533 0.0
H322 H 0.81378 0.34322 0.46293 0.0
H323 H 0.7887 0.33079 0.4165 0.0
O324 O 0.83453 0.38324 0.40789 0.0
O325 O 0.82868 0.36713 0.443 0.0
O326 O 0.79786 0.37061 0.41869 0.0
O327 O 0.82922 0.34942 0.4077 0.0
H328 H 0.86421 0.39904 0.40973 0.0
H329 H 0.81142 0.39882 0.38927 0.0
H330 H 0.86882 0.42446 0.39679 0.0
H331 H 0.81685 0.42429 0.37685 0.0
H332 H 0.87048 0.34084 0.47258 0.0
H333 H 0.84025 0.38968 0.4625 0.0
H334 H 0.84643 0.3422 0.45098 0.0
H335 H 0.86438 0.38751 0.48391 0.0
H336 H 0.83457 0.43373 0.44884 0.0
H337 H 0.78039 0.42072 0.45853 0.0
H338 H 0.89939 0.33915 0.4096 0.0
H339 H 0.90234 0.38124 0.43805 0.0
H340 H 0.76988 0.35289 0.41497 0.0
H341 H 0.78918 0.39854 0.40905 0.0
H342 H 0.74089 0.36125 0.40358 0.0
H343 H 0.75995 0.40607 0.39757 0.0
H344 H 0.80928 0.33726 0.38337 0.0
H345 H 0.84333 0.32727 0.42619 0.0
H346 H 0.80447 0.30964 0.37936 0.0
H347 H 0.83781 0.29982 0.42152 0.0
H348 H 0.83185 0.37677 0.34006 0.0
H349 H 0.77765 0.36314 0.34846 0.0
H350 H 0.80062 0.32138 0.47788 0.0
H351 H 0.77477 0.30877 0.43042 0.0
Li352 Li 0.81826 0.64568 0.92914 0.0
Li353 Li 0.82085 0.61801 0.92885 0.0
Li354 Li 0.84554 0.63433 0.92199 0.0
Li355 Li 0.82059 0.63236 0.90209 0.0
C356 C 0.84655 0.63412 0.95557 0.0
N357 N 0.87491 0.6368 0.97774 0.0
C358 C 0.85127 0.622 0.96621 0.0
C359 C 0.85605 0.6477 0.95647 0.0
C360 C 0.86569 0.62356 0.97728 0.0
C361 C 0.87041 0.64881 0.96767 0.0
C362 C 0.78636 0.62983 0.92906 0.0
C363 C 0.75473 0.62766 0.93194 0.0
N364 N 0.75641 0.62831 0.94932 0.0
C365 C 0.78777 0.63051 0.94697 0.0
C366 C 0.7697 0.62844 0.92148 0.0
C367 C 0.77248 0.62971 0.95697 0.0
C368 C 0.79353 0.66965 0.93214 0.0
N369 N 0.80703 0.66241 0.94025 0.0
C370 C 0.80448 0.67897 0.96442 0.0
C371 C 0.81246 0.6667 0.95616 0.0
C372 C 0.79074 0.68687 0.95623 0.0
C373 C 0.78524 0.68205 0.93988 0.0
H374 H 0.7892 0.66576 0.91965 0.0
H375 H 0.82294 0.66058 0.9625 0.0
C376 C 0.82987 0.59049 0.94344 0.0
N377 N 0.81546 0.59878 0.93894 0.0
C378 C 0.8279 0.57642 0.95142 0.0
C379 C 0.79623 0.57924 0.94921 0.0
C380 C 0.79883 0.5933 0.94128 0.0
C381 C 0.8109 0.5707 0.95463 0.0
H382 H 0.84294 0.59489 0.94089 0.0
H383 H 0.78753 0.59975 0.93704 0.0
C384 C 0.82946 0.66566 0.90655 0.0
N385 N 0.82011 0.6957 0.90174 0.0
C386 C 0.81677 0.66955 0.89426 0.0
C387 C 0.83751 0.67707 0.91628 0.0
C388 C 0.81222 0.68479 0.89204 0.0
C389 C 0.83255 0.69218 0.9137 0.0
C390 C 0.83399 0.60315 0.90041 0.0
C391 C 0.84798 0.59427 0.89442 0.0
C392 C 0.81659 0.59859 0.89727 0.0
C393 C 0.84435 0.58096 0.88532 0.0
C394 C 0.8135 0.58521 0.88812 0.0
N395 N 0.82733 0.57675 0.88238 0.0
C396 C 0.87952 0.62282 0.92799 0.0
C397 C 0.8791 0.64831 0.91819 0.0
C398 C 0.89794 0.62295 0.92864 0.0
N399 N 0.87056 0.63538 0.92284 0.0
C400 C 0.89752 0.64896 0.91869 0.0
C401 C 0.90719 0.63613 0.9239 0.0
H402 H 0.87231 0.6127 0.93159 0.0
H403 H 0.87161 0.65808 0.914 0.0
C404 C 0.79804 0.62966 0.87276 0.0
N405 N 0.81487 0.63162 0.87844 0.0
C406 C 0.79453 0.62917 0.85513 0.0
C407 C 0.82572 0.63269 0.84969 0.0
C408 C 0.82861 0.63308 0.86737 0.0
C409 C 0.80848 0.63076 0.84334 0.0
H410 H 0.78739 0.62851 0.88191 0.0
H411 H 0.84185 0.63453 0.87233 0.0
O412 O 0.83263 0.63273 0.94442 0.0
O413 O 0.80107 0.63083 0.91889 0.0
O414 O 0.83387 0.65076 0.90914 0.0
O415 O 0.83741 0.61617 0.90939 0.0
H416 H 0.84383 0.61155 0.96607 0.0
H417 H 0.85252 0.65722 0.94842 0.0
H418 H 0.86953 0.61424 0.98552 0.0
H419 H 0.87798 0.6592 0.96833 0.0
H420 H 0.74176 0.62656 0.92623 0.0
H421 H 0.80047 0.6316 0.95314 0.0
H422 H 0.76834 0.62797 0.90765 0.0
H423 H 0.77339 0.63021 0.97083 0.0
H424 H 0.80917 0.68235 0.97699 0.0
H425 H 0.7745 0.68768 0.93324 0.0
H426 H 0.83958 0.57005 0.95496 0.0
H427 H 0.78289 0.57523 0.95137 0.0
H428 H 0.81033 0.66091 0.88667 0.0
H429 H 0.84737 0.67432 0.92581 0.0
H430 H 0.80234 0.68795 0.88265 0.0
H431 H 0.83859 0.70111 0.92122 0.0
H432 H 0.86152 0.59765 0.8968 0.0
H433 H 0.80558 0.60527 0.90185 0.0
H434 H 0.85505 0.57398 0.8806 0.0
H435 H 0.80012 0.58155 0.88559 0.0
H436 H 0.90486 0.61287 0.93291 0.0
H437 H 0.90413 0.65928 0.9147 0.0
H438 H 0.78104 0.62778 0.85079 0.0
H439 H 0.8369 0.63369 0.84109 0.0
Li440 Li 0.18013 0.38096 0.42706 0.0
Li441 Li 0.18444 0.35333 0.42808 0.0
Li442 Li 0.18002 0.36692 0.40058 0.0
Li443 Li 0.15489 0.3632 0.41966 0.0
C444 C 0.21489 0.37653 0.42111 0.0
N445 N 0.24515 0.39236 0.42963 0.0
C446 C 0.227 0.37035 0.43271 0.0
C447 C 0.21823 0.39071 0.41373 0.0
C448 C 0.24221 0.37854 0.43688 0.0
C449 C 0.23359 0.39855 0.41824 0.0
C450 C 0.16441 0.36319 0.45866 0.0
C451 C 0.14674 0.35179 0.48102 0.0
N452 N 0.15733 0.35826 0.49308 0.0
C453 C 0.17498 0.36987 0.47129 0.0
C454 C 0.15005 0.35419 0.46358 0.0
C455 C 0.17125 0.36718 0.48861 0.0
C456 C 0.17372 0.41148 0.43461 0.0
N457 N 0.18501 0.39989 0.43809 0.0
C458 C 0.20123 0.41556 0.45762 0.0
C459 C 0.19857 0.40166 0.44938 0.0
C460 C 0.18969 0.42773 0.45437 0.0
C461 C 0.17582 0.42554 0.44262 0.0
H462 H 0.16287 0.40973 0.4258 0.0
H463 H 0.20725 0.39225 0.45217 0.0
C464 C 0.19989 0.32421 0.43016 0.0
N465 N 0.1965 0.33704 0.43929 0.0
C466 C 0.20789 0.31175 0.43806 0.0
C467 C 0.20969 0.32622 0.46437 0.0
C468 C 0.20149 0.33834 0.45601 0.0
C469 C 0.21276 0.31264 0.45543 0.0
H470 H 0.19626 0.32358 0.41675 0.0
H471 H 0.19919 0.34879 0.46285 0.0
C472 C 0.15879 0.38929 0.39309 0.0
N473 N 0.15212 0.40269 0.36167 0.0
C474 C 0.14458 0.38436 0.38308 0.0
C475 C 0.1695 0.40113 0.38723 0.0
C476 C 0.14145 0.39127 0.36721 0.0
C477 C 0.16594 0.40772 0.37128 0.0
C478 C 0.16173 0.33324 0.40922 0.0
C479 C 0.15905 0.32445 0.3945 0.0
C480 C 0.1568 0.32751 0.42525 0.0
C481 C 0.15131 0.31012 0.39607 0.0
C482 C 0.14912 0.31312 0.4263 0.0
N483 N 0.14653 0.3048 0.4118 0.0
C484 C 0.20025 0.37472 0.37079 0.0
C485 C 0.17417 0.36044 0.36595 0.0
C486 C 0.20349 0.37549 0.35314 0.0
N487 N 0.18571 0.36737 0.37678 0.0
C488 C 0.17695 0.36084 0.34825 0.0
C489 C 0.19173 0.3685 0.34163 0.0
H490 H 0.20924 0.38008 0.37967 0.0
H491 H 0.16259 0.35487 0.37109 0.0
C492 C 0.12109 0.36944 0.43251 0.0
N493 N 0.13 0.3607 0.42103 0.0
C494 C 0.10272 0.36851 0.43371 0.0
C495 C 0.10303 0.34964 0.41115 0.0
C496 C 0.12138 0.35101 0.41034 0.0
C497 C 0.09342 0.35851 0.42291 0.0
H498 H 0.12829 0.37726 0.44064 0.0
H499 H 0.12868 0.34447 0.40101 0.0
O500 O 0.19995 0.36864 0.41687 0.0
O501 O 0.16769 0.36592 0.44162 0.0
O502 O 0.16239 0.38237 0.40841 0.0
O503 O 0.1692 0.34734 0.40787 0.0
H504 H 0.2247 0.35934 0.43844 0.0
H505 H 0.20895 0.39572 0.40484 0.0
H506 H 0.25168 0.37391 0.44587 0.0
H507 H 0.23627 0.40959 0.41273 0.0
H508 H 0.1357 0.34481 0.48498 0.0
H509 H 0.1861 0.37687 0.46779 0.0
H510 H 0.14143 0.34917 0.45407 0.0
H511 H 0.17944 0.37219 0.49849 0.0
H512 H 0.21221 0.41674 0.46644 0.0
H513 H 0.16638 0.43447 0.43995 0.0
H514 H 0.21034 0.30157 0.43062 0.0
H515 H 0.21327 0.32738 0.47778 0.0
H516 H 0.1362 0.37518 0.38742 0.0
H517 H 0.18051 0.4051 0.39486 0.0
H518 H 0.13058 0.3875 0.35926 0.0
H519 H 0.17419 0.41683 0.36652 0.0
H520 H 0.1629 0.32865 0.38199 0.0
H521 H 0.15914 0.334 0.43677 0.0
H522 H 0.1491 0.30321 0.38477 0.0
H523 H 0.14528 0.30856 0.43865 0.0
H524 H 0.21511 0.3814 0.34855 0.0
H525 H 0.16742 0.3555 0.33981 0.0
H526 H 0.09588 0.37578 0.44273 0.0
H527 H 0.09647 0.34171 0.40266 0.0
Li528 Li 0.81968 0.36951 0.09919 0.0
Li529 Li 0.84475 0.36501 0.07855 0.0
Li530 Li 0.82024 0.3812 0.07078 0.0
Li531 Li 0.81641 0.35462 0.07166 0.0
C532 C 0.84255 0.3985 0.08843 0.0
N533 N 0.85255 0.42836 0.08373 0.0
C534 C 0.85533 0.40219 0.07616 0.0
C535 C 0.83491 0.40996 0.09837 0.0
C536 C 0.86018 0.41737 0.07396 0.0
C537 C 0.84014 0.425 0.09579 0.0
C538 C 0.84409 0.34132 0.09956 0.0
C539 C 0.86799 0.32332 0.09714 0.0
N540 N 0.87114 0.32471 0.11427 0.0
C541 C 0.8475 0.34249 0.11716 0.0
C542 C 0.85435 0.33157 0.08948 0.0
C543 C 0.86125 0.33403 0.12435 0.0
C544 C 0.80038 0.36263 0.12928 0.0
N545 N 0.81386 0.37103 0.12276 0.0
C546 C 0.82124 0.38026 0.15069 0.0
C547 C 0.82418 0.37981 0.13301 0.0
C548 C 0.8076 0.3715 0.1579 0.0
C549 C 0.79694 0.36274 0.14692 0.0
H550 H 0.79255 0.3556 0.1208 0.0
H551 H 0.83499 0.38617 0.12749 0.0
C552 C 0.87837 0.36131 0.06277 0.0
N553 N 0.86977 0.36306 0.07796 0.0
C554 C 0.89679 0.36044 0.06238 0.0
C555 C 0.89711 0.3633 0.09326 0.0
C556 C 0.87872 0.36424 0.09303 0.0
C557 C 0.90643 0.36144 0.07778 0.0
H558 H 0.87096 0.36089 0.05091 0.0
H559 H 0.87155 0.36598 0.10488 0.0
C560 C 0.78632 0.3798 0.08005 0.0
N561 N 0.7581 0.39943 0.07632 0.0
C562 C 0.77886 0.38224 0.06385 0.0
C563 C 0.77936 0.38729 0.09436 0.0
C564 C 0.76462 0.39223 0.06223 0.0
C565 C 0.7651 0.39718 0.09221 0.0
C566 C 0.82971 0.35795 0.04165 0.0
C567 C 0.81694 0.36259 0.02978 0.0
C568 C 0.83917 0.34457 0.03873 0.0
C569 C 0.81381 0.35372 0.01521 0.0
C570 C 0.83561 0.33599 0.02403 0.0
N571 N 0.82311 0.34071 0.01268 0.0
C572 C 0.82301 0.40179 0.04334 0.0
C573 C 0.80598 0.41134 0.06646 0.0
C574 C 0.82093 0.41535 0.03432 0.0
N575 N 0.8154 0.39994 0.05902 0.0
C576 C 0.80354 0.4251 0.05788 0.0
C577 C 0.81111 0.42725 0.04158 0.0
H578 H 0.831 0.39282 0.03794 0.0
H579 H 0.80069 0.4099 0.07924 0.0
C580 C 0.81058 0.32325 0.06583 0.0
N581 N 0.80463 0.33741 0.06199 0.0
C582 C 0.80275 0.31051 0.05834 0.0
C583 C 0.78264 0.32713 0.04328 0.0
C584 C 0.79075 0.33953 0.05117 0.0
C585 C 0.7887 0.31239 0.04677 0.0
H586 H 0.8215 0.32183 0.07459 0.0
H587 H 0.78615 0.35086 0.04843 0.0
O588 O 0.83726 0.38377 0.09041 0.0
O589 O 0.83083 0.34969 0.09224 0.0
O590 O 0.8002 0.37 0.08196 0.0
O591 O 0.8327 0.3663 0.05621 0.0
H592 H 0.86124 0.39346 0.06826 0.0
H593 H 0.82486 0.4073 0.10779 0.0
H594 H 0.86996 0.42041 0.06443 0.0
H595 H 0.83427 0.43401 0.10331 0.0
H596 H 0.87611 0.31583 0.08945 0.0
H597 H 0.83969 0.34989 0.12521 0.0
H598 H 0.85196 0.33053 0.07585 0.0
H599 H 0.86407 0.33488 0.13794 0.0
H600 H 0.82966 0.38728 0.15865 0.0
H601 H 0.78644 0.35568 0.15195 0.0
H602 H 0.90339 0.35936 0.0501 0.0
H603 H 0.90393 0.36398 0.10547 0.0
H604 H 0.78421 0.37674 0.05259 0.0
H605 H 0.78496 0.38558 0.10699 0.0
H606 H 0.75882 0.39432 0.04975 0.0
H607 H 0.75962 0.40309 0.10317 0.0
H608 H 0.8093 0.37279 0.03191 0.0
H609 H 0.84902 0.34074 0.04779 0.0
H610 H 0.80389 0.35713 0.00599 0.0
H611 H 0.84276 0.32557 0.02167 0.0
H612 H 0.82697 0.41648 0.02177 0.0
H613 H 0.79622 0.4341 0.06414 0.0
H614 H 0.80788 0.29933 0.06131 0.0
H615 H 0.77167 0.32906 0.03461 0.0
Li616 Li 0.17982 0.63112 0.59776 0.0
Li617 Li 0.15463 0.63413 0.5789 0.0
Li618 Li 0.17973 0.61735 0.57144 0.0
Li619 Li 0.18366 0.64454 0.57031 0.0
C620 C 0.15951 0.60852 0.60579 0.0
N621 N 0.15425 0.59534 0.63758 0.0
C622 C 0.14687 0.61445 0.61702 0.0
C623 C 0.16933 0.59578 0.61063 0.0
C624 C 0.14445 0.60765 0.63307 0.0
C625 C 0.16651 0.58931 0.62678 0.0
C626 C 0.16135 0.66442 0.58724 0.0
C627 C 0.14566 0.68184 0.56883 0.0
N628 N 0.14749 0.69289 0.5809 0.0
C629 C 0.1631 0.67595 0.59944 0.0
C630 C 0.15257 0.66737 0.57179 0.0
C631 C 0.15599 0.69027 0.596 0.0
C632 C 0.19864 0.62223 0.62808 0.0
N633 N 0.18569 0.63122 0.62155 0.0
C634 C 0.17853 0.64039 0.64958 0.0
C635 C 0.17575 0.64028 0.63186 0.0
C636 C 0.19163 0.63106 0.65675 0.0
C637 C 0.20183 0.62193 0.64575 0.0
H638 H 0.20636 0.61514 0.61964 0.0
H639 H 0.16539 0.64718 0.62633 0.0
C640 C 0.12077 0.62891 0.56553 0.0
N641 N 0.12972 0.63643 0.57802 0.0
C642 C 0.10241 0.62996 0.56453 0.0
C643 C 0.1028 0.64636 0.58944 0.0
C644 C 0.12117 0.64502 0.58991 0.0
C645 C 0.09315 0.63874 0.57663 0.0
H646 H 0.12792 0.62198 0.55643 0.0
H647 H 0.12861 0.6507 0.59988 0.0
C648 C 0.21455 0.62136 0.5781 0.0
N649 N 0.24477 0.60473 0.57155 0.0
C650 C 0.22779 0.62731 0.56754 0.0
C651 C 0.21676 0.607 0.58543 0.0
C652 C 0.24295 0.61871 0.56436 0.0
C653 C 0.2321 0.59875 0.58193 0.0
C654 C 0.17169 0.62985 0.53958 0.0
C655 C 0.18936 0.63088 0.53454 0.0
C656 C 0.15879 0.62632 0.52737 0.0
C657 C 0.19387 0.6283 0.51739 0.0
C658 C 0.16381 0.62383 0.51033 0.0
N659 N 0.1811 0.62485 0.50573 0.0
C660 C 0.17226 0.58738 0.56291 0.0
C661 C 0.19845 0.59615 0.54952 0.0
C662 C 0.1738 0.57337 0.55471 0.0
N663 N 0.18449 0.59843 0.56024 0.0
C664 C 0.20058 0.58225 0.54114 0.0
C665 C 0.18806 0.57069 0.54359 0.0
H666 H 0.16114 0.58953 0.57128 0.0
H667 H 0.20786 0.60514 0.54728 0.0
C668 C 0.20889 0.66777 0.56741 0.0
N669 N 0.19459 0.6615 0.5596 0.0
C670 C 0.217 0.68058 0.56038 0.0
C671 C 0.19541 0.6803 0.5375 0.0
C672 C 0.18771 0.66752 0.54498 0.0
C673 C 0.21025 0.68703 0.54523 0.0
H674 H 0.21389 0.66286 0.57918 0.0
H675 H 0.17615 0.66246 0.53917 0.0
O676 O 0.1625 0.61534 0.59028 0.0
O677 O 0.1684 0.65039 0.59041 0.0
O678 O 0.19965 0.62966 0.58139 0.0
O679 O 0.167 0.63225 0.55635 0.0
H680 H 0.13922 0.62434 0.6135 0.0
H681 H 0.17908 0.59099 0.60204 0.0
H682 H 0.13483 0.6122 0.64196 0.0
H683 H 0.17408 0.5795 0.63074 0.0
H684 H 0.13885 0.68428 0.55693 0.0
H685 H 0.16992 0.67386 0.61144 0.0
H686 H 0.15112 0.65862 0.56215 0.0
H687 H 0.15725 0.6993 0.60534 0.0
H688 H 0.17019 0.64743 0.65761 0.0
H689 H 0.21217 0.61468 0.65074 0.0
H690 H 0.09557 0.62401 0.55434 0.0
H691 H 0.09621 0.65304 0.59921 0.0
H692 H 0.22638 0.63844 0.56182 0.0
H693 H 0.20658 0.60214 0.59344 0.0
H694 H 0.25327 0.62316 0.55617 0.0
H695 H 0.2339 0.58757 0.58741 0.0
H696 H 0.19951 0.63358 0.54379 0.0
H697 H 0.14503 0.62554 0.53099 0.0
H698 H 0.20751 0.62903 0.51335 0.0
H699 H 0.15395 0.62108 0.50076 0.0
H700 H 0.16392 0.56472 0.55705 0.0
H701 H 0.21165 0.5807 0.53249 0.0
H702 H 0.22823 0.68553 0.56693 0.0
H703 H 0.18986 0.68478 0.52572 0.0
Li704 Li 0.68233 0.86917 0.09889 0.0
Li705 Li 0.68611 0.85501 0.07202 0.0
Li706 Li 0.68176 0.8833 0.07227 0.0
Li707 Li 0.65685 0.86624 0.07808 0.0
C708 C 0.71683 0.87173 0.09125 0.0
N709 N 0.7471 0.87272 0.11105 0.0
C710 C 0.72784 0.85903 0.09232 0.0
C711 C 0.72136 0.88501 0.10003 0.0
C712 C 0.74306 0.85974 0.10245 0.0
C713 C 0.73667 0.88526 0.11005 0.0
C714 C 0.66716 0.83531 0.09426 0.0
C715 C 0.65299 0.8116 0.08716 0.0
N716 N 0.66187 0.8047 0.10019 0.0
C717 C 0.67594 0.82803 0.10775 0.0
C718 C 0.65541 0.82707 0.08402 0.0
C719 C 0.67317 0.81254 0.11047 0.0
C720 C 0.67813 0.87959 0.13262 0.0
N721 N 0.6879 0.86999 0.1228 0.0
C722 C 0.70369 0.86138 0.14758 0.0
C723 C 0.70052 0.86096 0.12989 0.0
C724 C 0.69366 0.8711 0.15806 0.0
C725 C 0.68085 0.88038 0.15032 0.0
H726 H 0.668 0.8865 0.12676 0.0
H727 H 0.70788 0.85319 0.1219 0.0
C728 C 0.70025 0.83958 0.04351 0.0
N729 N 0.69776 0.83856 0.06077 0.0
C730 C 0.70799 0.82761 0.03448 0.0
C731 C 0.71124 0.81402 0.06126 0.0
C732 C 0.70334 0.82621 0.06975 0.0
C733 C 0.71348 0.81456 0.04335 0.0
H734 H 0.69611 0.84967 0.03672 0.0
H735 H 0.70175 0.82584 0.08351 0.0
C736 C 0.66046 0.89937 0.09299 0.0
N737 N 0.65273 0.92995 0.09546 0.0
C738 C 0.64407 0.90483 0.08753 0.0
C739 C 0.67281 0.90942 0.09998 0.0
C740 C 0.64044 0.92034 0.08882 0.0
C741 C 0.66869 0.92485 0.10104 0.0
C742 C 0.66184 0.86369 0.04249 0.0
C743 C 0.65709 0.87452 0.03019 0.0
C744 C 0.65721 0.8485 0.03996 0.0
C745 C 0.64746 0.87 0.01576 0.0
C746 C 0.6476 0.84442 0.02535 0.0
N747 N 0.64293 0.85517 0.01367 0.0
C748 C 0.70422 0.90729 0.06077 0.0
C749 C 0.67374 0.90995 0.05444 0.0
C750 C 0.70786 0.9213 0.05308 0.0
N751 N 0.68736 0.902 0.06139 0.0
C752 C 0.67673 0.92403 0.04684 0.0
C753 C 0.69395 0.9299 0.04616 0.0
H754 H 0.71482 0.90067 0.06629 0.0
H755 H 0.66051 0.90537 0.0549 0.0
C756 C 0.62319 0.85531 0.08767 0.0
N757 N 0.63197 0.86393 0.07598 0.0
C758 C 0.60483 0.85392 0.08684 0.0
C759 C 0.60489 0.87049 0.06207 0.0
C760 C 0.62323 0.87151 0.06337 0.0
C761 C 0.59543 0.86165 0.07396 0.0
H762 H 0.63043 0.8497 0.09783 0.0
H763 H 0.63045 0.87866 0.05456 0.0
O764 O 0.70182 0.87121 0.08147 0.0
O765 O 0.66971 0.85051 0.09146 0.0
O766 O 0.66438 0.88425 0.09156 0.0
O767 O 0.67118 0.86794 0.05676 0.0
H768 H 0.72464 0.84871 0.08549 0.0
H769 H 0.71314 0.895 0.09916 0.0
H770 H 0.75164 0.84996 0.10347 0.0
H771 H 0.74027 0.89543 0.117 0.0
H772 H 0.64397 0.80508 0.07929 0.0
H773 H 0.68491 0.83424 0.11594 0.0
H774 H 0.64804 0.83257 0.07391 0.0
H775 H 0.68001 0.80674 0.12076 0.0
H776 H 0.71353 0.85386 0.15303 0.0
H777 H 0.67293 0.88816 0.15786 0.0
H778 H 0.70979 0.82862 0.02072 0.0
H779 H 0.71528 0.80417 0.0686 0.0
H780 H 0.63429 0.89721 0.08225 0.0
H781 H 0.68544 0.90536 0.10448 0.0
H782 H 0.62785 0.92474 0.08452 0.0
H783 H 0.67818 0.93277 0.1063 0.0
H784 H 0.66075 0.88629 0.03179 0.0
H785 H 0.6612 0.8399 0.04905 0.0
H786 H 0.64361 0.87828 0.0062 0.0
H787 H 0.64391 0.8327 0.02327 0.0
H788 H 0.72131 0.92546 0.0528 0.0
H789 H 0.66569 0.93019 0.04138 0.0
H790 H 0.59804 0.84722 0.09645 0.0
H791 H 0.59819 0.87659 0.05191 0.0
Li792 Li 0.31446 0.14459 0.5731 0.0
Li793 Li 0.31702 0.13064 0.59877 0.0
Li794 Li 0.34308 0.13421 0.58102 0.0
Li795 Li 0.31738 0.11685 0.57187 0.0
C796 C 0.32284 0.16215 0.60165 0.0
N797 N 0.30948 0.18702 0.61893 0.0
C798 C 0.30483 0.16301 0.60543 0.0
C799 C 0.33407 0.17392 0.60668 0.0
C800 C 0.29832 0.17567 0.61418 0.0
C801 C 0.32706 0.18641 0.6154 0.0
C802 C 0.28191 0.12361 0.58661 0.0
C803 C 0.26273 0.10272 0.59395 0.0
N804 N 0.24936 0.11269 0.59691 0.0
C805 C 0.26791 0.13364 0.58952 0.0
C806 C 0.27926 0.10801 0.58866 0.0
C807 C 0.25159 0.1279 0.59481 0.0
C808 C 0.28814 0.15929 0.55353 0.0
N809 N 0.30374 0.16136 0.56183 0.0
C810 C 0.30467 0.18737 0.55326 0.0
C811 C 0.3121 0.17502 0.56182 0.0
C812 C 0.28859 0.18559 0.5445 0.0
C813 C 0.28031 0.17131 0.54466 0.0
H814 H 0.28189 0.14825 0.55366 0.0
H815 H 0.32467 0.17625 0.56826 0.0
C816 C 0.32337 0.13586 0.63338 0.0
N817 N 0.31109 0.1296 0.62278 0.0
C818 C 0.32133 0.13516 0.65115 0.0
C819 C 0.29378 0.12183 0.64695 0.0
C820 C 0.29643 0.1227 0.6292 0.0
C821 C 0.30643 0.12798 0.65815 0.0
H822 H 0.335 0.14117 0.62799 0.0
H823 H 0.28692 0.11761 0.62072 0.0
C824 C 0.33048 0.14071 0.54372 0.0
N825 N 0.32855 0.15847 0.51454 0.0
C826 C 0.31791 0.13753 0.53108 0.0
C827 C 0.34215 0.15285 0.5415 0.0
C828 C 0.31712 0.14666 0.51643 0.0
C829 C 0.34094 0.1617 0.52666 0.0
C830 C 0.33696 0.10705 0.60622 0.0
C831 C 0.35098 0.11084 0.61708 0.0
C832 C 0.32534 0.09544 0.61092 0.0
C833 C 0.35296 0.10312 0.63264 0.0
C834 C 0.32776 0.088 0.62659 0.0
N835 N 0.34139 0.09197 0.63705 0.0
C836 C 0.37627 0.1437 0.59341 0.0
C837 C 0.37678 0.13135 0.56633 0.0
C838 C 0.39463 0.1453 0.59313 0.0
N839 N 0.36783 0.13673 0.58018 0.0
C840 C 0.39511 0.13283 0.56544 0.0
C841 C 0.40427 0.1398 0.57902 0.0
H842 H 0.36874 0.14789 0.60423 0.0
H843 H 0.36965 0.12584 0.55602 0.0
C844 C 0.29831 0.09784 0.54888 0.0
N845 N 0.31227 0.09874 0.55981 0.0
C846 C 0.29521 0.0845 0.53963 0.0
C847 C 0.3208 0.07332 0.55326 0.0
C848 C 0.32339 0.08684 0.56222 0.0
C849 C 0.30667 0.07206 0.54164 0.0
H850 H 0.28969 0.10754 0.54725 0.0
H851 H 0.33437 0.08791 0.57102 0.0
O852 O 0.32954 0.1499 0.59304 0.0
O853 O 0.29787 0.12904 0.5811 0.0
O854 O 0.33107 0.13223 0.55841 0.0
O855 O 0.33448 0.1148 0.59119 0.0
H856 H 0.296 0.15397 0.60172 0.0
H857 H 0.34806 0.17342 0.60383 0.0
H858 H 0.2844 0.17647 0.61719 0.0
H859 H 0.3356 0.19562 0.61935 0.0
H860 H 0.26054 0.09068 0.59569 0.0
H861 H 0.26958 0.14572 0.58763 0.0
H862 H 0.28984 0.10006 0.58634 0.0
H863 H 0.24067 0.13554 0.59718 0.0
H864 H 0.31159 0.19813 0.55322 0.0
H865 H 0.26785 0.16951 0.53813 0.0
H866 H 0.33131 0.14019 0.65933 0.0
H867 H 0.2822 0.11606 0.65184 0.0
H868 H 0.30873 0.12822 0.53267 0.0
H869 H 0.35186 0.15552 0.55125 0.0
H870 H 0.30739 0.14441 0.50658 0.0
H871 H 0.34981 0.1712 0.52481 0.0
H872 H 0.3601 0.11978 0.61363 0.0
H873 H 0.31451 0.09228 0.60262 0.0
H874 H 0.36366 0.10604 0.64124 0.0
H875 H 0.31878 0.07907 0.63045 0.0
H876 H 0.40118 0.15087 0.60377 0.0
H877 H 0.40208 0.12829 0.55442 0.0
H878 H 0.28425 0.08406 0.5307 0.0
H879 H 0.32979 0.06394 0.55542 0.0
Li880 Li 0.68313 0.11593 0.92652 0.0
Li881 Li 0.65844 0.13333 0.9207 0.0
Li882 Li 0.6841 0.132 0.90046 0.0
Li883 Li 0.6864 0.14439 0.92847 0.0
C884 C 0.66483 0.10309 0.89717 0.0
N885 N 0.66096 0.07707 0.87769 0.0
C886 C 0.6484 0.0959 0.89609 0.0
C887 C 0.67922 0.09714 0.88817 0.0
C888 C 0.64673 0.08272 0.88624 0.0
C889 C 0.67701 0.08396 0.87843 0.0
C890 C 0.65836 0.12993 0.95441 0.0
C891 C 0.63546 0.14228 0.9708 0.0
N892 N 0.63082 0.12864 0.97764 0.0
C893 C 0.65346 0.11606 0.9617 0.0
C894 C 0.6494 0.14318 0.95908 0.0
C895 C 0.63947 0.11564 0.97339 0.0
C896 C 0.70392 0.09603 0.94652 0.0
N897 N 0.68923 0.09698 0.93652 0.0
C898 C 0.68208 0.07106 0.94223 0.0
C899 C 0.67833 0.08488 0.93431 0.0
C900 C 0.69707 0.06974 0.95275 0.0
C901 C 0.70811 0.08243 0.95483 0.0
H902 H 0.71223 0.1059 0.94821 0.0
H903 H 0.66644 0.08605 0.92678 0.0
C904 C 0.62518 0.1478 0.91685 0.0
N905 N 0.63344 0.13491 0.92208 0.0
C906 C 0.6068 0.14892 0.9177 0.0
C907 C 0.60581 0.1235 0.92936 0.0
C908 C 0.62418 0.12283 0.92815 0.0
C909 C 0.59683 0.13665 0.92402 0.0
H910 H 0.63285 0.15715 0.91184 0.0
H911 H 0.63109 0.11267 0.93208 0.0
C912 C 0.71923 0.12523 0.91268 0.0
N913 N 0.75271 0.11729 0.90173 0.0
C914 C 0.73253 0.1362 0.91164 0.0
C915 C 0.72307 0.11016 0.90845 0.0
C916 C 0.74934 0.13198 0.90598 0.0
C917 C 0.74004 0.10639 0.90286 0.0
C918 C 0.67308 0.16535 0.90724 0.0
C919 C 0.6834 0.17127 0.89395 0.0
C920 C 0.66511 0.17519 0.91902 0.0
C921 C 0.68577 0.18697 0.89278 0.0
C922 C 0.66783 0.19081 0.91744 0.0
N923 N 0.67803 0.19633 0.90447 0.0
C924 C 0.67601 0.13072 0.86587 0.0
C925 C 0.70654 0.13497 0.87058 0.0
C926 C 0.67849 0.13111 0.84813 0.0
N927 N 0.68993 0.13258 0.87668 0.0
C928 C 0.70963 0.13544 0.85288 0.0
C929 C 0.69547 0.13354 0.84141 0.0
H930 H 0.66293 0.12893 0.87109 0.0
H931 H 0.71735 0.13672 0.87935 0.0
C932 C 0.69449 0.16157 0.958 0.0
N933 N 0.6975 0.16043 0.94084 0.0
C934 C 0.70197 0.17341 0.96745 0.0
C935 C 0.7157 0.18259 0.94142 0.0
C936 C 0.70804 0.17052 0.93251 0.0
C937 C 0.71266 0.1842 0.95914 0.0
H938 H 0.68627 0.15327 0.96437 0.0
H939 H 0.71035 0.16932 0.91889 0.0
O940 O 0.66664 0.11601 0.90678 0.0
O941 O 0.67184 0.13053 0.94273 0.0
O942 O 0.70273 0.12917 0.91834 0.0
O943 O 0.67072 0.15001 0.90866 0.0
H944 H 0.63708 0.10041 0.90284 0.0
H945 H 0.69189 0.10275 0.88848 0.0
H946 H 0.63412 0.077 0.88537 0.0
H947 H 0.68805 0.07925 0.8714 0.0
H948 H 0.62833 0.15242 0.97443 0.0
H949 H 0.66029 0.10571 0.95828 0.0
H950 H 0.65307 0.154 0.9536 0.0
H951 H 0.63546 0.10497 0.97907 0.0
H952 H 0.67302 0.06166 0.9406 0.0
H953 H 0.71979 0.08185 0.96284 0.0
H954 H 0.60046 0.15918 0.91316 0.0
H955 H 0.59875 0.11383 0.93453 0.0
H956 H 0.72988 0.14787 0.91505 0.0
H957 H 0.71314 0.10142 0.90963 0.0
H958 H 0.75971 0.14038 0.90499 0.0
H959 H 0.74316 0.09478 0.8995 0.0
H960 H 0.68961 0.16383 0.88469 0.0
H961 H 0.65704 0.17079 0.92934 0.0
H962 H 0.6938 0.19171 0.88262 0.0
H963 H 0.66186 0.19855 0.92653 0.0
H964 H 0.66722 0.12941 0.83977 0.0
H965 H 0.72289 0.13755 0.84824 0.0
H966 H 0.69952 0.17401 0.98114 0.0
H967 H 0.72367 0.19071 0.93442 0.0
Li968 Li 0.34154 0.86493 0.41974 0.0
Li969 Li 0.31722 0.88356 0.42595 0.0
Li970 Li 0.31357 0.85516 0.42851 0.0
Li971 Li 0.31609 0.86669 0.40113 0.0
C972 C 0.34337 0.87075 0.45263 0.0
N973 N 0.37284 0.87459 0.47315 0.0
C974 C 0.34826 0.88525 0.45816 0.0
C975 C 0.35342 0.85819 0.45765 0.0
C976 C 0.3632 0.88696 0.46851 0.0
C977 C 0.3683 0.86037 0.46798 0.0
C978 C 0.33826 0.88817 0.39076 0.0
C979 C 0.33413 0.90569 0.3673 0.0
N980 N 0.34653 0.89806 0.35806 0.0
C981 C 0.351 0.88052 0.38106 0.0
C982 C 0.32977 0.90088 0.38387 0.0
C983 C 0.35498 0.8857 0.36454 0.0
C984 C 0.37461 0.84951 0.41792 0.0
N985 N 0.36658 0.86313 0.4204 0.0
C986 C 0.39449 0.8754 0.42388 0.0
C987 C 0.37608 0.87598 0.4232 0.0
C988 C 0.40318 0.86145 0.42159 0.0
C989 C 0.39299 0.84839 0.41857 0.0
H990 H 0.36677 0.83953 0.41532 0.0
H991 H 0.36932 0.88669 0.42496 0.0
C992 C 0.29968 0.90429 0.44781 0.0
N993 N 0.31207 0.90287 0.43529 0.0
C994 C 0.29662 0.91839 0.45549 0.0
C995 C 0.31903 0.92925 0.43708 0.0
C996 C 0.32167 0.91496 0.42981 0.0
C997 C 0.30649 0.93109 0.45024 0.0
H998 H 0.29239 0.89439 0.45202 0.0
H999 H 0.33165 0.91344 0.42002 0.0
C1000 C 0.32465 0.83303 0.41006 0.0
N1001 N 0.31619 0.80261 0.41318 0.0
C1002 C 0.3118 0.82656 0.39942 0.0
C1003 C 0.3332 0.824 0.42227 0.0
C1004 C 0.30774 0.81116 0.40118 0.0
C1005 C 0.32872 0.80866 0.42367 0.0
C1006 C 0.28236 0.87334 0.40899 0.0
C1007 C 0.27446 0.86171 0.39947 0.0
C1008 C 0.27491 0.88786 0.40886 0.0
C1009 C 0.2593 0.86484 0.38987 0.0
C1010 C 0.25972 0.89053 0.39912 0.0
N1011 N 0.2523 0.87906 0.3899 0.0
C1012 C 0.30892 0.83638 0.45771 0.0
C1013 C 0.28802 0.8323 0.43555 0.0
C1014 C 0.30165 0.8246 0.4674 0.0
N1015 N 0.30221 0.83984 0.442 0.0
C1016 C 0.28033 0.82043 0.44478 0.0
C1017 C 0.28725 0.81635 0.46088 0.0
H1018 H 0.32003 0.84268 0.46268 0.0
H1019 H 0.2829 0.83524 0.42306 0.0
C1020 C 0.31835 0.85585 0.36731 0.0
N1021 N 0.31008 0.86644 0.37713 0.0
C1022 C 0.31599 0.85566 0.34954 0.0
C1023 C 0.29678 0.87744 0.35218 0.0
C1024 C 0.2996 0.87724 0.36991 0.0
C1025 C 0.3051 0.86658 0.34172 0.0
H1026 H 0.32725 0.8478 0.37322 0.0
H1027 H 0.29381 0.886 0.3778 0.0
O1028 O 0.329 0.86889 0.44216 0.0
O1029 O 0.3338 0.88299 0.40674 0.0
O1030 O 0.32857 0.84816 0.40876 0.0
O1031 O 0.29713 0.87051 0.4186 0.0
H1032 H 0.34068 0.89511 0.45444 0.0
H1033 H 0.34997 0.84689 0.45338 0.0
H1034 H 0.36717 0.89813 0.47282 0.0
H1035 H 0.37627 0.85076 0.47182 0.0
H1036 H 0.32758 0.91544 0.36175 0.0
H1037 H 0.35757 0.87058 0.38614 0.0
H1038 H 0.3197 0.90679 0.39112 0.0
H1039 H 0.36474 0.87984 0.35685 0.0
H1040 H 0.40183 0.88573 0.42636 0.0
H1041 H 0.39919 0.83746 0.41644 0.0
H1042 H 0.28699 0.91923 0.46573 0.0
H1043 H 0.32681 0.93874 0.43249 0.0
H1044 H 0.30485 0.83336 0.39005 0.0
H1045 H 0.34295 0.82882 0.43081 0.0
H1046 H 0.29778 0.80604 0.39308 0.0
H1047 H 0.33514 0.80158 0.43316 0.0
H1048 H 0.28017 0.85048 0.39918 0.0
H1049 H 0.28083 0.897 0.41613 0.0
H1050 H 0.25314 0.85598 0.38234 0.0
H1051 H 0.25385 0.90172 0.39887 0.0
H1052 H 0.30721 0.82201 0.47988 0.0
H1053 H 0.26937 0.81428 0.43917 0.0
H1054 H 0.32308 0.84734 0.34197 0.0
H1055 H 0.2883 0.88609 0.34674 0.0
Li1056 Li 0.3162 0.1445 0.92865 0.0
Li1057 Li 0.3199 0.11684 0.9273 0.0
Li1058 Li 0.34547 0.13422 0.9203 0.0
Li1059 Li 0.32044 0.13088 0.90089 0.0
C1060 C 0.33785 0.13516 0.95852 0.0
N1061 N 0.34897 0.14216 0.99144 0.0
C1062 C 0.33004 0.12813 0.97272 0.0
C1063 C 0.35154 0.14559 0.9611 0.0
C1064 C 0.33577 0.13188 0.98924 0.0
C1065 C 0.35691 0.14901 0.97783 0.0
C1066 C 0.28558 0.12182 0.92211 0.0
C1067 C 0.26615 0.10022 0.91983 0.0
N1068 N 0.2557 0.10623 0.93231 0.0
C1069 C 0.27461 0.12783 0.93485 0.0
C1070 C 0.28128 0.10795 0.91444 0.0
C1071 C 0.25957 0.11976 0.93985 0.0
C1072 C 0.29752 0.17197 0.92955 0.0
N1073 N 0.30438 0.16088 0.9397 0.0
C1074 C 0.29472 0.17385 0.96496 0.0
C1075 C 0.30295 0.16151 0.95708 0.0
C1076 C 0.28769 0.18561 0.95484 0.0
C1077 C 0.28908 0.18449 0.93687 0.0
H1078 H 0.29871 0.17109 0.91573 0.0
H1079 H 0.30822 0.15248 0.96489 0.0
C1080 C 0.32232 0.08532 0.93301 0.0
N1081 N 0.31396 0.09817 0.93826 0.0
C1082 C 0.31903 0.07152 0.94123 0.0
C1083 C 0.29849 0.08438 0.96002 0.0
C1084 C 0.30216 0.09793 0.95143 0.0
C1085 C 0.3071 0.07096 0.95504 0.0
H1086 H 0.33181 0.08585 0.92267 0.0
H1087 H 0.29577 0.1083 0.95543 0.0
C1088 C 0.33857 0.16447 0.90834 0.0
N1089 N 0.35302 0.19329 0.90778 0.0
C1090 C 0.34193 0.17169 0.89268 0.0
C1091 C 0.34236 0.17201 0.9237 0.0
C1092 C 0.34931 0.18623 0.89267 0.0
C1093 C 0.34969 0.18655 0.92316 0.0
C1094 C 0.34177 0.10833 0.89356 0.0
C1095 C 0.35729 0.11215 0.88486 0.0
C1096 C 0.33022 0.09767 0.88644 0.0
C1097 C 0.3609 0.10536 0.86903 0.0
C1098 C 0.33429 0.09115 0.87057 0.0
N1099 N 0.34941 0.0951 0.86226 0.0
C1100 C 0.3789 0.12662 0.93271 0.0
C1101 C 0.37944 0.14664 0.91237 0.0
C1102 C 0.39725 0.12712 0.93427 0.0
N1103 N 0.37041 0.13633 0.92194 0.0
C1104 C 0.39781 0.1476 0.9136 0.0
C1105 C 0.40695 0.13771 0.92461 0.0
H1106 H 0.37135 0.11845 0.94005 0.0
H1107 H 0.37248 0.15396 0.90355 0.0
C1108 C 0.29922 0.12505 0.87122 0.0
N1109 N 0.31487 0.13056 0.87709 0.0
C1110 C 0.29602 0.12412 0.85356 0.0
C1111 C 0.32497 0.13479 0.84844 0.0
C1112 C 0.32758 0.13552 0.86614 0.0
C1113 C 0.30908 0.1289 0.84191 0.0
H1114 H 0.28933 0.12119 0.88022 0.0
H1115 H 0.33993 0.13978 0.8712 0.0
O1116 O 0.33247 0.1315 0.94222 0.0
O1117 O 0.30039 0.12953 0.91711 0.0
O1118 O 0.33136 0.15022 0.90853 0.0
O1119 O 0.33777 0.11516 0.90885 0.0
H1120 H 0.31955 0.11997 0.97104 0.0
H1121 H 0.35812 0.15089 0.95036 0.0
H1122 H 0.32973 0.12659 0.00033 0.0
H1123 H 0.36746 0.15708 0.97998 0.0
H1124 H 0.26273 0.08942 0.9141 0.0
H1125 H 0.2777 0.13858 0.94087 0.0
H1126 H 0.28965 0.10312 0.9046 0.0
H1127 H 0.251 0.12425 0.94974 0.0
H1128 H 0.29414 0.17426 0.97885 0.0
H1129 H 0.28362 0.19314 0.92854 0.0
H1130 H 0.32616 0.06149 0.93714 0.0
H1131 H 0.28907 0.08444 0.97049 0.0
H1132 H 0.3389 0.16613 0.88065 0.0
H1133 H 0.33942 0.1668 0.93591 0.0
H1134 H 0.35205 0.19192 0.88064 0.0
H1135 H 0.35268 0.19249 0.93497 0.0
H1136 H 0.36636 0.1204 0.89018 0.0
H1137 H 0.31816 0.09459 0.89302 0.0
H1138 H 0.37281 0.10828 0.86209 0.0
H1139 H 0.32541 0.08297 0.86483 0.0
H1140 H 0.40378 0.11936 0.94299 0.0
H1141 H 0.40482 0.15574 0.90571 0.0
H1142 H 0.28364 0.11939 0.84909 0.0
H1143 H 0.33529 0.13882 0.83996 0.0
Li1144 Li 0.68362 0.85486 0.42882 0.0
Li1145 Li 0.68005 0.88245 0.42624 0.0
Li1146 Li 0.65447 0.86487 0.41982 0.0
Li1147 Li 0.67961 0.86755 0.40031 0.0
C1148 C 0.66366 0.86433 0.45841 0.0
N1149 N 0.6562 0.85649 0.49204 0.0
C1150 C 0.67211 0.87178 0.47197 0.0
C1151 C 0.65114 0.85311 0.462 0.0
C1152 C 0.66825 0.86759 0.48887 0.0
C1153 C 0.64762 0.84925 0.47906 0.0
C1154 C 0.71448 0.87727 0.42111 0.0
C1155 C 0.73416 0.89852 0.41713 0.0
N1156 N 0.74457 0.89318 0.43003 0.0
C1157 C 0.72545 0.87193 0.43422 0.0
C1158 C 0.71893 0.8906 0.41238 0.0
C1159 C 0.74058 0.88015 0.43857 0.0
C1160 C 0.69884 0.82584 0.43178 0.0
N1161 N 0.69516 0.83871 0.44072 0.0
C1162 C 0.70723 0.82792 0.46633 0.0
C1163 C 0.69948 0.84005 0.4576 0.0
C1164 C 0.71071 0.81431 0.45756 0.0
C1165 C 0.70657 0.81341 0.43999 0.0
H1166 H 0.69554 0.82514 0.41828 0.0
H1167 H 0.69705 0.85056 0.46429 0.0
C1168 C 0.67635 0.91388 0.43077 0.0
N1169 N 0.68571 0.90164 0.43623 0.0
C1170 C 0.6791 0.92811 0.43818 0.0
C1171 C 0.70123 0.91693 0.45665 0.0
C1172 C 0.698 0.9029 0.44889 0.0
C1173 C 0.69157 0.92974 0.45143 0.0
H1174 H 0.6665 0.91257 0.42083 0.0
H1175 H 0.70507 0.89296 0.45323 0.0
C1176 C 0.6598 0.83497 0.40799 0.0
N1177 N 0.6419 0.80766 0.40615 0.0
C1178 C 0.65498 0.82896 0.39204 0.0
C1179 C 0.65575 0.82696 0.42297 0.0
C1180 C 0.64587 0.81518 0.39139 0.0
C1181 C 0.64665 0.81321 0.42179 0.0
C1182 C 0.65871 0.89053 0.39228 0.0
C1183 C 0.64294 0.88751 0.3836 0.0
C1184 C 0.67084 0.90076 0.38525 0.0
C1185 C 0.6397 0.89459 0.36784 0.0
C1186 C 0.66713 0.90758 0.36946 0.0
N1187 N 0.65177 0.90437 0.36115 0.0
C1188 C 0.62096 0.86932 0.4346 0.0
C1189 C 0.62059 0.8548 0.40898 0.0
C1190 C 0.60261 0.86828 0.43597 0.0
N1191 N 0.62954 0.86253 0.42134 0.0
C1192 C 0.60223 0.85352 0.40979 0.0
C1193 C 0.59298 0.86033 0.42342 0.0
H1194 H 0.62837 0.87563 0.44409 0.0
H1195 H 0.62765 0.84994 0.39825 0.0
C1196 C 0.70215 0.87063 0.37115 0.0
N1197 N 0.68559 0.86707 0.37658 0.0
C1198 C 0.70612 0.87069 0.35361 0.0
C1199 C 0.67599 0.86324 0.34768 0.0
C1200 C 0.67263 0.86333 0.36529 0.0
C1201 C 0.69292 0.86698 0.34161 0.0
H1202 H 0.71225 0.87346 0.38041 0.0
H1203 H 0.65956 0.86063 0.36997 0.0
O1204 O 0.66725 0.86837 0.44177 0.0
O1205 O 0.69956 0.8694 0.41673 0.0
O1206 O 0.66865 0.84851 0.40885 0.0
O1207 O 0.66228 0.88348 0.40755 0.0
H1208 H 0.68167 0.88061 0.46951 0.0
H1209 H 0.64399 0.84756 0.45176 0.0
H1210 H 0.67482 0.87318 0.49947 0.0
H1211 H 0.63799 0.84055 0.48199 0.0
H1212 H 0.7377 0.90891 0.41057 0.0
H1213 H 0.72229 0.86157 0.44101 0.0
H1214 H 0.71066 0.89485 0.40214 0.0
H1215 H 0.74914 0.87619 0.44875 0.0
H1216 H 0.71059 0.82924 0.47977 0.0
H1217 H 0.70894 0.80312 0.43274 0.0
H1218 H 0.67149 0.93771 0.43364 0.0
H1219 H 0.71078 0.91762 0.46697 0.0
H1220 H 0.65819 0.83487 0.38029 0.0
H1221 H 0.65983 0.83117 0.43536 0.0
H1222 H 0.64196 0.81045 0.37914 0.0
H1223 H 0.64343 0.80691 0.43331 0.0
H1224 H 0.63337 0.87969 0.38888 0.0
H1225 H 0.68303 0.90332 0.39187 0.0
H1226 H 0.6276 0.89227 0.36093 0.0
H1227 H 0.67646 0.91543 0.36381 0.0
H1228 H 0.59607 0.87361 0.44677 0.0
H1229 H 0.59535 0.84758 0.39962 0.0
H1230 H 0.71939 0.87349 0.3495 0.0
H1231 H 0.66534 0.86056 0.33891 0.0
Li1232 Li 0.31922 0.86815 0.09837 0.0
Li1233 Li 0.34399 0.86519 0.07862 0.0
Li1234 Li 0.31825 0.88266 0.07229 0.0
Li1235 Li 0.3146 0.85505 0.07048 0.0
C1236 C 0.34014 0.89069 0.10606 0.0
N1237 N 0.34728 0.90356 0.13767 0.0
C1238 C 0.35538 0.88659 0.11506 0.0
C1239 C 0.32863 0.90145 0.11303 0.0
C1240 C 0.35874 0.8932 0.13105 0.0
C1241 C 0.33244 0.90779 0.12906 0.0
C1242 C 0.33813 0.835 0.08941 0.0
C1243 C 0.35025 0.81422 0.07302 0.0
N1244 N 0.35414 0.80682 0.08788 0.0
C1245 C 0.34209 0.82712 0.10452 0.0
C1246 C 0.34212 0.82844 0.07354 0.0
C1247 C 0.35025 0.81292 0.10348 0.0
C1248 C 0.2987 0.87371 0.12862 0.0
N1249 N 0.31399 0.8679 0.12224 0.0
C1250 C 0.32397 0.86159 0.15044 0.0
C1251 C 0.32653 0.86191 0.13272 0.0
C1252 C 0.30837 0.86758 0.15746 0.0
C1253 C 0.29564 0.87375 0.14633 0.0
H1254 H 0.28893 0.87838 0.11999 0.0
H1255 H 0.33867 0.8576 0.12728 0.0
C1256 C 0.37744 0.87126 0.06467 0.0
N1257 N 0.36888 0.86301 0.07686 0.0
C1258 C 0.3958 0.87054 0.06329 0.0
C1259 C 0.39622 0.85298 0.08717 0.0
C1260 C 0.37785 0.85404 0.08807 0.0
C1261 C 0.40546 0.86135 0.07469 0.0
H1262 H 0.36996 0.87846 0.05608 0.0
H1263 H 0.37081 0.84798 0.09799 0.0
C1264 C 0.28396 0.8776 0.07804 0.0
N1265 N 0.25379 0.89335 0.06901 0.0
C1266 C 0.27256 0.87176 0.06556 0.0
C1267 C 0.27993 0.89137 0.08606 0.0
C1268 C 0.25739 0.87991 0.06115 0.0
C1269 C 0.26465 0.89919 0.08126 0.0
C1270 C 0.33431 0.86472 0.04008 0.0
C1271 C 0.32456 0.87145 0.02686 0.0
C1272 C 0.34819 0.85489 0.03596 0.0
C1273 C 0.32855 0.86794 0.00979 0.0
C1274 C 0.35179 0.85168 0.01874 0.0
N1275 N 0.34196 0.8582 0.00611 0.0
C1276 C 0.32186 0.91402 0.06708 0.0
C1277 C 0.29985 0.90278 0.04957 0.0
C1278 C 0.31889 0.92816 0.05952 0.0
N1279 N 0.31242 0.90169 0.062 0.0
C1280 C 0.29649 0.91669 0.0416 0.0
C1281 C 0.30617 0.92959 0.04648 0.0
H1282 H 0.33196 0.91283 0.0768 0.0
H1283 H 0.29255 0.89283 0.04567 0.0
C1284 C 0.29876 0.82627 0.06902 0.0
N1285 N 0.30266 0.83869 0.05937 0.0
C1286 C 0.29064 0.81367 0.06155 0.0
C1287 C 0.28997 0.82712 0.0345 0.0
C1288 C 0.29821 0.83942 0.04248 0.0
C1289 C 0.28623 0.81394 0.04401 0.0
H1290 H 0.30217 0.82607 0.0825 0.0
H1291 H 0.30089 0.84957 0.03521 0.0
O1292 O 0.33638 0.88402 0.09061 0.0
O1293 O 0.3302 0.84896 0.09024 0.0
O1294 O 0.29891 0.8698 0.08248 0.0
O1295 O 0.33074 0.86825 0.05689 0.0
H1296 H 0.36443 0.87827 0.10986 0.0
H1297 H 0.3168 0.90477 0.10621 0.0
H1298 H 0.37042 0.89007 0.13822 0.0
H1299 H 0.32357 0.91605 0.13467 0.0
H1300 H 0.35338 0.80903 0.0608 0.0
H1301 H 0.33892 0.8319 0.11694 0.0
H1302 H 0.33867 0.83414 0.06176 0.0
H1303 H 0.35346 0.80674 0.11507 0.0
H1304 H 0.33424 0.85697 0.1586 0.0
H1305 H 0.28339 0.87838 0.15126 0.0
H1306 H 0.40236 0.87709 0.0534 0.0
H1307 H 0.40315 0.84602 0.09644 0.0
H1308 H 0.2754 0.86107 0.05932 0.0
H1309 H 0.28861 0.89608 0.09571 0.0
H1310 H 0.24849 0.87555 0.05146 0.0
H1311 H 0.26144 0.90992 0.08726 0.0
H1312 H 0.31389 0.87916 0.02971 0.0
H1313 H 0.35628 0.84989 0.04589 0.0
H1314 H 0.32099 0.87297 0.99946 0.0
H1315 H 0.36246 0.84406 0.0154 0.0
H1316 H 0.32685 0.93776 0.06348 0.0
H1317 H 0.28647 0.91733 0.0317 0.0
H1318 H 0.28816 0.80374 0.06938 0.0
H1319 H 0.28642 0.828 0.02106 0.0
Li1320 Li 0.65562 0.13324 0.57899 0.0
Li1321 Li 0.68027 0.13031 0.59912 0.0
Li1322 Li 0.6838 0.14389 0.57081 0.0
Li1323 Li 0.68126 0.11621 0.57164 0.0
C1324 C 0.6564 0.1596 0.59595 0.0
N1325 N 0.63016 0.1796 0.60583 0.0
C1326 C 0.65218 0.16134 0.61332 0.0
C1327 C 0.64745 0.16822 0.58363 0.0
C1328 C 0.63884 0.17147 0.61805 0.0
C1329 C 0.63418 0.17821 0.58887 0.0
C1330 C 0.66116 0.10252 0.60148 0.0
C1331 C 0.6712 0.07918 0.61443 0.0
N1332 N 0.65575 0.07818 0.62327 0.0
C1333 C 0.64528 0.10113 0.6105 0.0
C1334 C 0.67414 0.09136 0.60329 0.0
C1335 C 0.64284 0.0888 0.62153 0.0
C1336 C 0.62221 0.13483 0.56259 0.0
N1337 N 0.63063 0.13525 0.578 0.0
C1338 C 0.6032 0.13824 0.59277 0.0
C1339 C 0.62155 0.13684 0.59294 0.0
C1340 C 0.59405 0.13778 0.57707 0.0
C1341 C 0.60383 0.13607 0.56182 0.0
H1342 H 0.62975 0.13335 0.55092 0.0
H1343 H 0.62857 0.137 0.60503 0.0
C1344 C 0.70244 0.13369 0.62852 0.0
N1345 N 0.68594 0.13009 0.62293 0.0
C1346 C 0.70615 0.13405 0.64611 0.0
C1347 C 0.67576 0.12727 0.65179 0.0
C1348 C 0.67268 0.12698 0.63414 0.0
C1349 C 0.69266 0.13092 0.658 0.0
H1350 H 0.71265 0.13649 0.61934 0.0
H1351 H 0.65956 0.12465 0.62939 0.0
C1352 C 0.67016 0.13588 0.54036 0.0
N1353 N 0.67495 0.14675 0.50738 0.0
C1354 C 0.68117 0.12816 0.52889 0.0
C1355 C 0.6614 0.14901 0.53497 0.0
C1356 C 0.68346 0.13386 0.51229 0.0
C1357 C 0.66405 0.15436 0.51828 0.0
C1358 C 0.71606 0.12212 0.5837 0.0
C1359 C 0.73007 0.12627 0.57299 0.0
C1360 C 0.71865 0.11096 0.59621 0.0
C1361 C 0.74633 0.11893 0.57472 0.0
C1362 C 0.73511 0.10389 0.59755 0.0
N1363 N 0.74849 0.10797 0.58684 0.0
C1364 C 0.69163 0.17479 0.56465 0.0
C1365 C 0.7061 0.1576 0.54595 0.0
C1366 C 0.69918 0.18713 0.55614 0.0
N1367 N 0.69504 0.16039 0.55934 0.0
C1368 C 0.71392 0.1696 0.53704 0.0
C1369 C 0.71042 0.18463 0.54206 0.0
H1370 H 0.68305 0.17672 0.57552 0.0
H1371 H 0.70872 0.14604 0.54207 0.0
C1372 C 0.67395 0.08718 0.55951 0.0
N1373 N 0.68722 0.0975 0.5608 0.0
C1374 C 0.67678 0.07331 0.55131 0.0
C1375 C 0.70689 0.08096 0.54571 0.0
C1376 C 0.70346 0.0947 0.55404 0.0
C1377 C 0.69343 0.07005 0.54423 0.0
H1378 H 0.66107 0.08982 0.56472 0.0
H1379 H 0.71368 0.1032 0.5548 0.0
O1380 O 0.66926 0.14957 0.59104 0.0
O1381 O 0.66372 0.11453 0.59057 0.0
O1382 O 0.66792 0.13056 0.55672 0.0
O1383 O 0.70004 0.1292 0.58215 0.0
H1384 H 0.6591 0.15493 0.62305 0.0
H1385 H 0.65065 0.16712 0.57016 0.0
H1386 H 0.63538 0.17286 0.63144 0.0
H1387 H 0.62706 0.18485 0.57945 0.0
H1388 H 0.68117 0.07049 0.61597 0.0
H1389 H 0.63497 0.10953 0.60908 0.0
H1390 H 0.68626 0.09194 0.59602 0.0
H1391 H 0.63066 0.08766 0.6287 0.0
H1392 H 0.5963 0.13976 0.60483 0.0
H1393 H 0.59734 0.1354 0.54945 0.0
H1394 H 0.71929 0.13713 0.65037 0.0
H1395 H 0.665 0.1247 0.66048 0.0
H1396 H 0.688 0.11796 0.53279 0.0
H1397 H 0.65267 0.15502 0.54359 0.0
H1398 H 0.69204 0.12806 0.50332 0.0
H1399 H 0.65744 0.16457 0.51398 0.0
H1400 H 0.7284 0.13501 0.56339 0.0
H1401 H 0.70817 0.10793 0.60497 0.0
H1402 H 0.75725 0.12196 0.56643 0.0
H1403 H 0.73727 0.09521 0.60715 0.0
H1404 H 0.69638 0.19851 0.56066 0.0
H1405 H 0.72238 0.16712 0.52618 0.0
H1406 H 0.66591 0.06539 0.55017 0.0
H1407 H 0.71994 0.07891 0.5405 0.0
H1408 H 0.07467 0.37012 0.05107 0.0
H1409 H 0.04234 0.36946 0.05075 0.0
H1410 H 0.04222 0.35182 0.10246 0.0
H1411 H 0.07455 0.35225 0.10276 0.0
H1412 H 0.01894 0.33693 0.08203 0.0
H1413 H 0.01008 0.39912 0.07501 0.0
H1414 H 0.02334 0.39088 0.05834 0.0
H1415 H 0.03112 0.39066 0.08018 0.0
C1416 C 0.06773 0.36618 0.0624 0.0
C1417 C 0.07711 0.36132 0.07698 0.0
C1418 C 0.04927 0.36584 0.06222 0.0
C1419 C 0.03987 0.36087 0.0767 0.0
C1420 C 0.04922 0.35575 0.09116 0.0
H1421 H 0.92937 0.37804 0.09751 0.0
H1422 H 0.96158 0.37708 0.0975 0.0
C1423 C 0.06767 0.35596 0.0913 0.0
C1424 C 0.02028 0.36091 0.0768 0.0
H1425 H 0.98433 0.38394 0.07216 0.0
C1426 C 0.01136 0.34721 0.07991 0.0
C1427 C 0.01042 0.37438 0.07429 0.0
C1428 C 0.01921 0.38962 0.07194 0.0
C1429 C 0.99283 0.34657 0.08041 0.0
C1430 C 0.98297 0.35995 0.07731 0.0
C1431 C 0.9919 0.37367 0.07436 0.0
C1432 C 0.96338 0.36008 0.0775 0.0
C1433 C 0.98404 0.33166 0.08466 0.0
C1434 C 0.95367 0.35091 0.06618 0.0
C1435 C 0.9352 0.35125 0.06634 0.0
C1436 C 0.92608 0.36092 0.07768 0.0
C1437 C 0.93591 0.37023 0.08885 0.0
C1438 C 0.95435 0.3698 0.08876 0.0
H1439 H 0.99323 0.3238 0.09135 0.0
H1440 H 0.97224 0.3334 0.0929 0.0
H1441 H 0.97973 0.32609 0.07258 0.0
H1442 H 0.96036 0.34356 0.05713 0.0
H1443 H 0.92809 0.34384 0.05766 0.0
H1444 H 0.92656 0.61717 0.56675 0.0
H1445 H 0.95881 0.61854 0.5665 0.0
H1446 H 0.95642 0.66476 0.58465 0.0
H1447 H 0.92411 0.66345 0.58502 0.0
H1448 H 0.98101 0.63772 0.54868 0.0
H1449 H 0.98973 0.645 0.61907 0.0
H1450 H 0.96901 0.63925 0.60964 0.0
H1451 H 0.97559 0.65886 0.60921 0.0
C1452 C 0.93289 0.62767 0.57058 0.0
C1453 C 0.9228 0.64019 0.57596 0.0
C1454 C 0.95132 0.62841 0.5705 0.0
C1455 C 0.96001 0.64167 0.57582 0.0
C1456 C 0.94999 0.6543 0.58089 0.0
H1457 H 0.07222 0.66361 0.58272 0.0
H1458 H 0.03991 0.66494 0.58211 0.0
C1459 C 0.93154 0.65354 0.58107 0.0
C1460 C 0.97957 0.64224 0.57584 0.0
H1461 H 0.01547 0.64679 0.60192 0.0
C1462 C 0.98855 0.6397 0.56032 0.0
C1463 C 0.98937 0.64485 0.59105 0.0
C1464 C 0.98047 0.64701 0.60823 0.0
C1465 C 0.00707 0.63971 0.55959 0.0
C1466 C 0.01683 0.64217 0.57481 0.0
C1467 C 0.00789 0.64494 0.59028 0.0
C1468 C 0.03635 0.64139 0.57505 0.0
C1469 C 0.01605 0.6372 0.54252 0.0
C1470 C 0.04497 0.62766 0.57151 0.0
C1471 C 0.06338 0.62681 0.572 0.0
C1472 C 0.07354 0.6397 0.57607 0.0
C1473 C 0.06481 0.65344 0.57972 0.0
C1474 C 0.04637 0.65425 0.57928 0.0
H1475 H 0.00692 0.6392 0.53157 0.0
H1476 H 0.02769 0.64478 0.54111 0.0
H1477 H 0.02075 0.62529 0.54178 0.0
H1478 H 0.03743 0.61753 0.56857 0.0
H1479 H 0.06963 0.61598 0.56948 0.0
H1480 H 0.92893 0.65893 0.93511 0.0
H1481 H 0.96129 0.65949 0.93464 0.0
H1482 H 0.96209 0.61445 0.91298 0.0
H1483 H 0.9298 0.61392 0.91301 0.0
H1484 H 0.98535 0.63893 0.95076 0.0
H1485 H 0.99293 0.63966 0.87979 0.0
H1486 H 0.97232 0.64412 0.89034 0.0
H1487 H 0.97912 0.62469 0.88789 0.0
C1488 C 0.936 0.6492 0.9301 0.0
C1489 C 0.9268 0.6364 0.92403 0.0
C1490 C 0.95446 0.64951 0.92993 0.0
C1491 C 0.96403 0.6371 0.92356 0.0
C1492 C 0.95492 0.62423 0.9177 0.0
H1493 H 0.07401 0.61432 0.90974 0.0
H1494 H 0.04176 0.61491 0.91109 0.0
C1495 C 0.93648 0.62389 0.9179 0.0
C1496 C 0.98357 0.63749 0.92321 0.0
H1497 H 0.01901 0.63592 0.89616 0.0
C1498 C 0.99275 0.63837 0.93884 0.0
C1499 C 0.99312 0.63675 0.90762 0.0
C1500 C 0.98391 0.63639 0.89043 0.0
C1501 C 0.01129 0.63814 0.93932 0.0
C1502 C 0.02084 0.63728 0.92373 0.0
C1503 C 0.01164 0.63654 0.9081 0.0
C1504 C 0.04039 0.63694 0.92331 0.0
C1505 C 0.02047 0.63837 0.95653 0.0
C1506 C 0.0503 0.64919 0.92961 0.0
C1507 C 0.06875 0.64884 0.92899 0.0
C1508 C 0.07763 0.63626 0.92195 0.0
C1509 C 0.06761 0.62407 0.9155 0.0
C1510 C 0.04918 0.62443 0.91615 0.0
H1511 H 0.01139 0.63518 0.96714 0.0
H1512 H 0.03193 0.6305 0.95663 0.0
H1513 H 0.02543 0.65 0.9591 0.0
H1514 H 0.04377 0.65908 0.93491 0.0
H1515 H 0.07607 0.65837 0.93416 0.0
H1516 H 0.07207 0.3596 0.45139 0.0
H1517 H 0.03977 0.35887 0.45234 0.0
H1518 H 0.03804 0.3544 0.39722 0.0
H1519 H 0.07027 0.35553 0.39604 0.0
H1520 H 0.016 0.37959 0.43372 0.0
H1521 H 0.00669 0.31889 0.41633 0.0
H1522 H 0.02728 0.32618 0.4247 0.0
H1523 H 0.0213 0.32959 0.40272 0.0
C1524 C 0.06484 0.35855 0.43945 0.0
C1525 C 0.07381 0.3576 0.42364 0.0
C1526 C 0.0464 0.35804 0.44004 0.0
C1527 C 0.03659 0.35639 0.42488 0.0
C1528 C 0.04543 0.35539 0.40909 0.0
H1529 H 0.92595 0.3525 0.39788 0.0
H1530 H 0.95826 0.35154 0.39868 0.0
C1531 C 0.06385 0.356 0.40846 0.0
C1532 C 0.01707 0.35631 0.42546 0.0
H1533 H 0.98098 0.33417 0.41754 0.0
C1534 C 0.0083 0.36966 0.43031 0.0
C1535 C 0.00716 0.34334 0.42088 0.0
C1536 C 0.01603 0.32862 0.41597 0.0
C1537 C 0.98979 0.3705 0.43031 0.0
C1538 C 0.97983 0.3575 0.42577 0.0
C1539 C 0.98864 0.34411 0.42104 0.0
C1540 C 0.96024 0.35765 0.42555 0.0
C1541 C 0.98112 0.38546 0.43463 0.0
C1542 C 0.95063 0.36109 0.44047 0.0
C1543 C 0.9322 0.36171 0.44003 0.0
C1544 C 0.92302 0.35868 0.4247 0.0
C1545 C 0.93266 0.35478 0.4099 0.0
C1546 C 0.9511 0.35429 0.41033 0.0
H1547 H 0.99041 0.39513 0.43311 0.0
H1548 H 0.9694 0.38751 0.42637 0.0
H1549 H 0.97669 0.38524 0.44822 0.0
H1550 H 0.95739 0.36331 0.45247 0.0
H1551 H 0.9251 0.36448 0.4517 0.0
H1552 H 0.42706 0.83659 0.07835 0.0
H1553 H 0.45941 0.83609 0.07824 0.0
H1554 H 0.46048 0.8843 0.06869 0.0
H1555 H 0.42822 0.88501 0.06933 0.0
H1556 H 0.48312 0.84484 0.05217 0.0
H1557 H 0.49208 0.87945 0.11112 0.0
H1558 H 0.47116 0.87102 0.10536 0.0
H1559 H 0.47838 0.88823 0.09511 0.0
C1560 C 0.43419 0.84711 0.07639 0.0
C1561 C 0.42506 0.86086 0.07395 0.0
C1562 C 0.45265 0.84678 0.07622 0.0
C1563 C 0.4623 0.86019 0.07372 0.0
C1564 C 0.45326 0.87387 0.07094 0.0
H1565 H 0.57239 0.88496 0.06808 0.0
H1566 H 0.54012 0.88392 0.06741 0.0
C1567 C 0.43482 0.87422 0.07111 0.0
C1568 C 0.48185 0.85989 0.07393 0.0
H1569 H 0.51782 0.87446 0.09461 0.0
C1570 C 0.49073 0.85122 0.0615 0.0
C1571 C 0.49171 0.86822 0.08616 0.0
C1572 C 0.48288 0.87715 0.1003 0.0
C1573 C 0.50926 0.85099 0.06069 0.0
C1574 C 0.51909 0.85948 0.07279 0.0
C1575 C 0.51021 0.86802 0.08531 0.0
C1576 C 0.53863 0.85983 0.0726 0.0
C1577 C 0.51817 0.84199 0.04666 0.0
C1578 C 0.54846 0.84662 0.07582 0.0
C1579 C 0.56691 0.84716 0.07614 0.0
C1580 C 0.57585 0.86093 0.07327 0.0
C1581 C 0.56592 0.87413 0.07006 0.0
C1582 C 0.54749 0.87358 0.06978 0.0
H1583 H 0.50883 0.83898 0.03618 0.0
H1584 H 0.52938 0.84846 0.04108 0.0
H1585 H 0.52348 0.8313 0.05214 0.0
H1586 H 0.54184 0.83594 0.07829 0.0
H1587 H 0.57418 0.83679 0.07856 0.0
H1588 H 0.57036 0.12535 0.59968 0.0
H1589 H 0.53817 0.12731 0.59917 0.0
H1590 H 0.54092 0.15404 0.55289 0.0
H1591 H 0.57322 0.15261 0.55353 0.0
H1592 H 0.51717 0.15733 0.59686 0.0
H1593 H 0.50657 0.11588 0.54375 0.0
H1594 H 0.5262 0.11559 0.55696 0.0
H1595 H 0.5234 0.13016 0.54111 0.0
C1596 C 0.56419 0.13182 0.5895 0.0
C1597 C 0.57443 0.13885 0.57666 0.0
C1598 C 0.54578 0.13284 0.58918 0.0
C1599 C 0.53726 0.14074 0.57595 0.0
C1600 C 0.54733 0.14777 0.56311 0.0
H1601 H 0.42515 0.14837 0.55203 0.0
H1602 H 0.45745 0.14975 0.5512 0.0
C1603 C 0.56577 0.14686 0.56347 0.0
C1604 C 0.51778 0.14164 0.57569 0.0
H1605 H 0.48132 0.12734 0.55568 0.0
C1606 C 0.50928 0.15083 0.58785 0.0
C1607 C 0.50765 0.13321 0.56382 0.0
C1608 C 0.51631 0.12307 0.55067 0.0
C1609 C 0.49079 0.15182 0.58846 0.0
C1610 C 0.48058 0.14304 0.5769 0.0
C1611 C 0.48916 0.13403 0.56456 0.0
C1612 C 0.46101 0.14272 0.57762 0.0
C1613 C 0.4824 0.16243 0.60131 0.0
C1614 C 0.4523 0.1382 0.5927 0.0
C1615 C 0.43387 0.13747 0.59322 0.0
C1616 C 0.42381 0.14104 0.57859 0.0
C1617 C 0.43256 0.14546 0.56346 0.0
C1618 C 0.451 0.1463 0.56299 0.0
H1619 H 0.49166 0.17158 0.60523 0.0
H1620 H 0.47025 0.16772 0.59603 0.0
H1621 H 0.47879 0.15593 0.61301 0.0
H1622 H 0.45975 0.13496 0.60399 0.0
H1623 H 0.42751 0.13376 0.60496 0.0
H1624 H 0.57299 0.11404 0.91711 0.0
H1625 H 0.54078 0.11535 0.91855 0.0
H1626 H 0.54386 0.16236 0.93358 0.0
H1627 H 0.57616 0.1611 0.93272 0.0
H1628 H 0.51932 0.12582 0.94937 0.0
H1629 H 0.51023 0.15978 0.88964 0.0
H1630 H 0.52986 0.14863 0.89353 0.0
H1631 H 0.52657 0.16613 0.90484 0.0
C1632 C 0.56688 0.12462 0.92094 0.0
C1633 C 0.57721 0.13747 0.92481 0.0
C1634 C 0.54846 0.12536 0.92164 0.0
C1635 C 0.54002 0.13897 0.92604 0.0
C1636 C 0.55019 0.1518 0.92997 0.0
H1637 H 0.42822 0.16275 0.92683 0.0
H1638 H 0.46054 0.16344 0.92826 0.0
C1639 C 0.56863 0.15106 0.92938 0.0
C1640 C 0.52053 0.13965 0.92662 0.0
H1641 H 0.48462 0.15336 0.90517 0.0
C1642 C 0.51168 0.13185 0.93975 0.0
C1643 C 0.51073 0.14763 0.91411 0.0
C1644 C 0.51973 0.15598 0.89963 0.0
C1645 C 0.49317 0.13184 0.94072 0.0
C1646 C 0.48329 0.13948 0.92793 0.0
C1647 C 0.4922 0.14748 0.91494 0.0
C1648 C 0.46371 0.13903 0.92751 0.0
C1649 C 0.48441 0.12383 0.9556 0.0
C1650 C 0.45479 0.12509 0.92641 0.0
C1651 C 0.43637 0.12467 0.92566 0.0
C1652 C 0.42651 0.13819 0.92574 0.0
C1653 C 0.43547 0.15215 0.92664 0.0
C1654 C 0.45391 0.15256 0.92752 0.0
H1655 H 0.49349 0.12277 0.96675 0.0
H1656 H 0.47232 0.12992 0.95981 0.0
H1657 H 0.4806 0.1122 0.95156 0.0
H1658 H 0.46209 0.11453 0.92588 0.0
H1659 H 0.42985 0.11376 0.92464 0.0
H1660 H 0.42694 0.88093 0.40698 0.0
H1661 H 0.4592 0.87949 0.40791 0.0
H1662 H 0.45595 0.83854 0.43809 0.0
H1663 H 0.42363 0.84004 0.43749 0.0
H1664 H 0.48028 0.86111 0.45073 0.0
H1665 H 0.49005 0.84814 0.38153 0.0
H1666 H 0.47632 0.86434 0.38585 0.0
H1667 H 0.46905 0.84576 0.39221 0.0
C1668 C 0.43309 0.87167 0.4139 0.0
C1669 C 0.42274 0.86057 0.42213 0.0
C1670 C 0.4515 0.87078 0.41428 0.0
C1671 C 0.45991 0.8588 0.42288 0.0
C1672 C 0.44967 0.84781 0.43129 0.0
H1673 H 0.57169 0.83607 0.41573 0.0
H1674 H 0.53938 0.83506 0.41627 0.0
C1675 C 0.43124 0.84864 0.43084 0.0
C1676 C 0.47942 0.85791 0.42332 0.0
H1677 H 0.51574 0.8542 0.39768 0.0
C1678 C 0.48806 0.85952 0.43916 0.0
C1679 C 0.48946 0.85566 0.40822 0.0
C1680 C 0.48079 0.85324 0.39099 0.0
C1681 C 0.50656 0.85933 0.44024 0.0
C1682 C 0.51662 0.85763 0.42505 0.0
C1683 C 0.50797 0.85561 0.40928 0.0
C1684 C 0.53616 0.85814 0.4252 0.0
C1685 C 0.51522 0.8609 0.45761 0.0
C1686 C 0.54499 0.8715 0.42991 0.0
C1687 C 0.56342 0.87217 0.42947 0.0
C1688 C 0.57338 0.85948 0.42428 0.0
C1689 C 0.56444 0.8461 0.4196 0.0
C1690 C 0.54599 0.84546 0.41999 0.0
H1691 H 0.50586 0.85836 0.46822 0.0
H1692 H 0.52679 0.8532 0.45872 0.0
H1693 H 0.51996 0.87273 0.45924 0.0
H1694 H 0.5376 0.88151 0.43363 0.0
H1695 H 0.56984 0.88275 0.43283 0.0
H1696 H 0.19743 0.39503 0.17805 0.0
H1697 H 0.20055 0.39606 0.20929 0.0
H1698 H 0.19947 0.34714 0.21151 0.0
H1699 H 0.19724 0.34598 0.18028 0.0
H1700 H 0.17741 0.38589 0.23291 0.0
H1701 H 0.24126 0.35632 0.24182 0.0
H1702 H 0.2339 0.36304 0.22112 0.0
H1703 H 0.2259 0.34527 0.22952 0.0
C1704 C 0.19828 0.38448 0.18514 0.0
C1705 C 0.19714 0.37042 0.17663 0.0
C1706 C 0.19993 0.38509 0.20301 0.0
C1707 C 0.20053 0.37168 0.21272 0.0
C1708 C 0.19946 0.35764 0.20427 0.0
H1709 H 0.18861 0.34564 0.31812 0.0
H1710 H 0.19182 0.34739 0.28687 0.0
C1711 C 0.19791 0.357 0.18641 0.0
C1712 C 0.20106 0.37234 0.23175 0.0
H1713 H 0.22302 0.35881 0.26691 0.0
C1714 C 0.18752 0.38016 0.24034 0.0
C1715 C 0.21429 0.36486 0.24143 0.0
C1716 C 0.22975 0.35703 0.23299 0.0
C1717 C 0.18648 0.38022 0.25834 0.0
C1718 C 0.19938 0.37233 0.26796 0.0
C1719 C 0.21313 0.36479 0.25943 0.0
C1720 C 0.19833 0.37129 0.28688 0.0
C1721 C 0.17128 0.38827 0.26696 0.0
C1722 C 0.20121 0.38412 0.29717 0.0
C1723 C 0.19939 0.38317 0.31501 0.0
C1724 C 0.19461 0.36937 0.32281 0.0
C1725 C 0.19209 0.35647 0.31245 0.0
C1726 C 0.19402 0.35742 0.29464 0.0
H1727 H 0.16098 0.39183 0.25763 0.0
H1728 H 0.16512 0.38081 0.27679 0.0
H1729 H 0.17629 0.39855 0.27361 0.0
H1730 H 0.20467 0.3949 0.29137 0.0
H1731 H 0.2013 0.39331 0.32266 0.0
H1732 H 0.77497 0.62813 0.67836 0.0
H1733 H 0.77218 0.6283 0.70975 0.0
H1734 H 0.82866 0.62363 0.71459 0.0
H1735 H 0.8316 0.62359 0.68337 0.0
H1736 H 0.80921 0.60393 0.73599 0.0
H1737 H 0.78657 0.66384 0.74138 0.0
H1738 H 0.77395 0.65189 0.72723 0.0
H1739 H 0.79647 0.65636 0.72206 0.0
C1740 C 0.7868 0.62723 0.68612 0.0
C1741 C 0.80351 0.62584 0.67835 0.0
C1742 C 0.78518 0.62733 0.70403 0.0
C1743 C 0.80023 0.62613 0.71446 0.0
C1744 C 0.81687 0.62454 0.70675 0.0
H1745 H 0.82324 0.64881 0.81866 0.0
H1746 H 0.81946 0.64711 0.78756 0.0
C1747 C 0.81851 0.62444 0.6889 0.0
C1748 C 0.79885 0.62657 0.73343 0.0
H1749 H 0.78898 0.6499 0.76713 0.0
C1750 C 0.80465 0.61392 0.74283 0.0
C1751 C 0.79305 0.63969 0.74225 0.0
C1752 C 0.78727 0.65379 0.73278 0.0
C1753 C 0.80509 0.61412 0.76085 0.0
C1754 C 0.79932 0.62725 0.76968 0.0
C1755 C 0.79325 0.63982 0.76029 0.0
C1756 C 0.80074 0.62858 0.7886 0.0
C1757 C 0.81237 0.60051 0.77026 0.0
C1758 C 0.79122 0.61888 0.79951 0.0
C1759 C 0.79347 0.61974 0.81733 0.0
C1760 C 0.80524 0.63035 0.82452 0.0
C1761 C 0.81433 0.64033 0.81353 0.0
C1762 C 0.81207 0.63946 0.79576 0.0
H1763 H 0.81954 0.59267 0.76153 0.0
H1764 H 0.82149 0.60411 0.78067 0.0
H1765 H 0.80131 0.59413 0.77622 0.0
H1766 H 0.78221 0.61055 0.79424 0.0
H1767 H 0.78633 0.61185 0.82543 0.0
H1768 H 0.1964 0.60661 0.82037 0.0
H1769 H 0.19877 0.6057 0.78907 0.0
H1770 H 0.20107 0.65459 0.78731 0.0
H1771 H 0.19951 0.6556 0.81863 0.0
H1772 H 0.1756 0.61759 0.7661 0.0
H1773 H 0.24172 0.64311 0.75614 0.0
H1774 H 0.23427 0.63656 0.77689 0.0
H1775 H 0.2274 0.65479 0.76889 0.0
C1776 C 0.19783 0.61717 0.81337 0.0
C1777 C 0.19785 0.63119 0.82203 0.0
C1778 C 0.19905 0.61662 0.79547 0.0
C1779 C 0.20036 0.63006 0.78587 0.0
C1780 C 0.20046 0.64406 0.79446 0.0
H1781 H 0.19232 0.65497 0.67915 0.0
H1782 H 0.1951 0.65404 0.71048 0.0
C1783 C 0.19932 0.64463 0.81237 0.0
C1784 C 0.20045 0.62948 0.76684 0.0
H1785 H 0.22328 0.64101 0.73131 0.0
C1786 C 0.18612 0.62256 0.75849 0.0
C1787 C 0.21418 0.63599 0.75695 0.0
C1788 C 0.23035 0.6429 0.76517 0.0
C1789 C 0.18489 0.62236 0.74051 0.0
C1790 C 0.19846 0.62911 0.73065 0.0
C1791 C 0.2129 0.63587 0.73895 0.0
C1792 C 0.1976 0.6296 0.71167 0.0
C1793 C 0.16885 0.61532 0.7322 0.0
C1794 C 0.19839 0.61618 0.70201 0.0
C1795 C 0.19676 0.61666 0.68413 0.0
C1796 C 0.19431 0.6306 0.67563 0.0
C1797 C 0.19394 0.64405 0.68536 0.0
C1798 C 0.19564 0.64355 0.70322 0.0
H1799 H 0.15802 0.61338 0.74158 0.0
H1800 H 0.16382 0.62265 0.72167 0.0
H1801 H 0.17255 0.6042 0.72655 0.0
H1802 H 0.2001 0.60531 0.70832 0.0
H1803 H 0.19697 0.6061 0.67702 0.0
H1804 H 0.83299 0.37019 0.18279 0.0
H1805 H 0.82888 0.36941 0.21388 0.0
H1806 H 0.77237 0.37056 0.20706 0.0
H1807 H 0.77637 0.37178 0.17582 0.0
H1808 H 0.7848 0.39069 0.23235 0.0
H1809 H 0.81175 0.33281 0.24185 0.0
H1810 H 0.82637 0.34504 0.2301 0.0
H1811 H 0.80535 0.33994 0.22101 0.0
C1812 C 0.81967 0.37041 0.18788 0.0
C1813 C 0.805 0.37106 0.17682 0.0
C1814 C 0.81735 0.36978 0.20565 0.0
C1815 C 0.80032 0.36967 0.21274 0.0
C1816 C 0.78562 0.37049 0.2018 0.0
H1817 H 0.78581 0.34983 0.32201 0.0
H1818 H 0.78218 0.3499 0.29075 0.0
C1819 C 0.78793 0.37111 0.18398 0.0
C1820 C 0.798 0.36905 0.23162 0.0
H1821 H 0.80891 0.3482 0.26701 0.0
C1822 C 0.78988 0.38133 0.23994 0.0
C1823 C 0.80438 0.35671 0.24145 0.0
C1824 C 0.81229 0.3428 0.23315 0.0
C1825 C 0.78868 0.38192 0.25793 0.0
C1826 C 0.79603 0.37 0.2678 0.0
C1827 C 0.80344 0.35741 0.25943 0.0
C1828 C 0.79694 0.37064 0.28681 0.0
C1829 C 0.77962 0.39531 0.2662 0.0
C1830 C 0.80643 0.38229 0.29494 0.0
C1831 C 0.80845 0.38233 0.31277 0.0
C1832 C 0.80113 0.37065 0.32283 0.0
C1833 C 0.79142 0.3591 0.31466 0.0
C1834 C 0.78941 0.35907 0.2968 0.0
H1835 H 0.7702 0.40083 0.25722 0.0
H1836 H 0.77237 0.39185 0.27797 0.0
H1837 H 0.7897 0.40386 0.26987 0.0
H1838 H 0.81265 0.39117 0.28745 0.0
H1839 H 0.81586 0.39146 0.31867 0.0
H1840 H 0.68178 0.84668 0.31732 0.0
H1841 H 0.68599 0.84804 0.28626 0.0
H1842 H 0.71684 0.88885 0.29233 0.0
H1843 H 0.71218 0.88787 0.32345 0.0
H1844 H 0.69115 0.89171 0.26789 0.0
H1845 H 0.72907 0.83888 0.25687 0.0
H1846 H 0.70911 0.83561 0.26874 0.0
H1847 H 0.72633 0.84711 0.27796 0.0
C1848 C 0.68949 0.85594 0.31207 0.0
C1849 C 0.69661 0.86719 0.32286 0.0
C1850 C 0.69208 0.85658 0.29432 0.0
C1851 C 0.70198 0.8684 0.28701 0.0
C1852 C 0.70931 0.87955 0.29774 0.0
H1853 H 0.72469 0.87002 0.1763 0.0
H1854 H 0.72832 0.87025 0.20761 0.0
C1855 C 0.70671 0.87892 0.31552 0.0
C1856 C 0.7035 0.86968 0.26808 0.0
H1857 H 0.71511 0.8499 0.23208 0.0
C1858 C 0.6966 0.88266 0.26007 0.0
C1859 C 0.71085 0.85796 0.2579 0.0
C1860 C 0.71943 0.84418 0.26581 0.0
C1861 C 0.69611 0.88393 0.24211 0.0
C1862 C 0.7024 0.87178 0.23193 0.0
C1863 C 0.71008 0.85912 0.23993 0.0
C1864 C 0.70034 0.8717 0.21301 0.0
C1865 C 0.68871 0.89822 0.23421 0.0
C1866 C 0.68341 0.87217 0.20572 0.0
C1867 C 0.68129 0.87199 0.18792 0.0
C1868 C 0.69607 0.87124 0.177 0.0
C1869 C 0.71304 0.87053 0.18435 0.0
C1870 C 0.71514 0.87072 0.20221 0.0
H1871 H 0.68944 0.90795 0.24327 0.0
H1872 H 0.69589 0.90126 0.22225 0.0
H1873 H 0.67461 0.89638 0.23093 0.0
H1874 H 0.67179 0.87253 0.21383 0.0
H1875 H 0.66803 0.87219 0.1827 0.0
H1876 H 0.33299 0.11983 0.81771 0.0
H1877 H 0.32906 0.11882 0.7866 0.0
H1878 H 0.27496 0.13329 0.79229 0.0
H1879 H 0.27896 0.13488 0.82347 0.0
H1880 H 0.3054 0.10192 0.76697 0.0
H1881 H 0.29499 0.16394 0.7579 0.0
H1882 H 0.30353 0.15606 0.77763 0.0
H1883 H 0.28034 0.15488 0.77289 0.0
C1884 C 0.3203 0.12297 0.81235 0.0
C1885 C 0.30635 0.12762 0.82307 0.0
C1886 C 0.31804 0.12226 0.79458 0.0
C1887 C 0.30181 0.1262 0.78713 0.0
C1888 C 0.28769 0.13047 0.79777 0.0
H1889 H 0.27661 0.13288 0.67731 0.0
H1890 H 0.27362 0.13138 0.70866 0.0
C1891 C 0.28995 0.13121 0.81559 0.0
C1892 C 0.29988 0.12588 0.7682 0.0
H1893 H 0.29362 0.14858 0.73315 0.0
C1894 C 0.30272 0.1121 0.75957 0.0
C1895 C 0.29633 0.13918 0.7586 0.0
C1896 C 0.29375 0.15439 0.76716 0.0
C1897 C 0.30238 0.1113 0.74157 0.0
C1898 C 0.29934 0.12467 0.73198 0.0
C1899 C 0.29593 0.13836 0.74059 0.0
C1900 C 0.30082 0.12491 0.71303 0.0
C1901 C 0.30538 0.09618 0.73295 0.0
C1902 C 0.31712 0.12187 0.70519 0.0
C1903 C 0.31887 0.12274 0.68737 0.0
C1904 C 0.30434 0.12671 0.67704 0.0
C1905 C 0.28798 0.12965 0.68493 0.0
C1906 C 0.28627 0.12886 0.7028 0.0
H1907 H 0.30265 0.08657 0.74181 0.0
H1908 H 0.29691 0.09497 0.72138 0.0
H1909 H 0.31938 0.09538 0.72883 0.0
H1910 H 0.32857 0.11904 0.71289 0.0
H1911 H 0.33159 0.12027 0.68165 0.0
H1912 H 0.72243 0.12096 0.82267 0.0
H1913 H 0.72635 0.12153 0.7914 0.0
H1914 H 0.67849 0.1477 0.78632 0.0
H1915 H 0.67475 0.14757 0.81746 0.0
H1916 H 0.70313 0.11009 0.76688 0.0
H1917 H 0.71347 0.17172 0.75717 0.0
H1918 H 0.71539 0.16279 0.77797 0.0
H1919 H 0.69401 0.16763 0.76948 0.0
C1920 C 0.71291 0.12705 0.8149 0.0
C1921 C 0.69828 0.13422 0.82254 0.0
C1922 C 0.71512 0.1273 0.79705 0.0
C1923 C 0.70285 0.13485 0.78658 0.0
C1924 C 0.6883 0.14207 0.79418 0.0
H1925 H 0.67153 0.14371 0.68242 0.0
H1926 H 0.67623 0.14438 0.71346 0.0
C1927 C 0.68607 0.14181 0.81198 0.0
C1928 C 0.70457 0.13449 0.76763 0.0
H1929 H 0.70532 0.15732 0.7322 0.0
C1930 C 0.70391 0.12039 0.75927 0.0
C1931 C 0.70563 0.14795 0.75778 0.0
C1932 C 0.70735 0.16337 0.76606 0.0
C1933 C 0.70335 0.11943 0.74127 0.0
C1934 C 0.70368 0.13293 0.73145 0.0
C1935 C 0.705 0.147 0.7398 0.0
C1936 C 0.70138 0.13275 0.71258 0.0
C1937 C 0.70155 0.10404 0.73292 0.0
C1938 C 0.7141 0.12616 0.7018 0.0
C1939 C 0.71142 0.12569 0.68402 0.0
C1940 C 0.69594 0.1318 0.67677 0.0
C1941 C 0.68343 0.13866 0.68763 0.0
C1942 C 0.68615 0.13916 0.70535 0.0
H1943 H 0.69842 0.095 0.74239 0.0
H1944 H 0.69104 0.10424 0.72297 0.0
H1945 H 0.71417 0.10105 0.7265 0.0
H1946 H 0.72606 0.12133 0.70714 0.0
H1947 H 0.72127 0.1203 0.67598 0.0
H1948 H 0.31433 0.84421 0.1797 0.0
H1949 H 0.31133 0.84438 0.21098 0.0
H1950 H 0.29362 0.89091 0.20913 0.0
H1951 H 0.29638 0.89073 0.17777 0.0
H1952 H 0.32902 0.86221 0.23342 0.0
H1953 H 0.25692 0.87188 0.24025 0.0
H1954 H 0.26693 0.86645 0.22013 0.0
H1955 H 0.26787 0.88585 0.22728 0.0
C1956 C 0.30971 0.85445 0.18596 0.0
C1957 C 0.30558 0.86746 0.17631 0.0
C1958 C 0.30795 0.85452 0.20381 0.0
C1959 C 0.30204 0.86759 0.21237 0.0
C1960 C 0.29778 0.88057 0.20276 0.0
H1961 H 0.30391 0.89153 0.32066 0.0
H1962 H 0.30215 0.89197 0.28926 0.0
C1963 C 0.29941 0.88048 0.18487 0.0
C1964 C 0.3014 0.86782 0.23141 0.0
H1965 H 0.27413 0.87353 0.26581 0.0
C1966 C 0.31699 0.86462 0.24048 0.0
C1967 C 0.28568 0.87099 0.24061 0.0
C1968 C 0.26836 0.87385 0.23159 0.0
C1969 C 0.31733 0.86458 0.25848 0.0
C1970 C 0.30168 0.86781 0.26762 0.0
C1971 C 0.28609 0.87111 0.25866 0.0
C1972 C 0.30135 0.86756 0.28657 0.0
C1973 C 0.33441 0.86118 0.2677 0.0
C1974 C 0.30119 0.85367 0.29535 0.0
C1975 C 0.302 0.85336 0.31327 0.0
C1976 C 0.30308 0.86695 0.32273 0.0
C1977 C 0.30285 0.88087 0.31382 0.0
C1978 C 0.30194 0.88115 0.29589 0.0
H1979 H 0.34584 0.86065 0.25876 0.0
H1980 H 0.33705 0.86999 0.27758 0.0
H1981 H 0.33327 0.8501 0.27439 0.0
H1982 H 0.30066 0.84307 0.2883 0.0
H1983 H 0.30186 0.84246 0.31971 0.0
H1984 H 0.26637 0.18617 0.98334 0.0
H1985 H 0.2535 0.20837 0.99746 0.0
H1986 H 0.27633 0.2375 0.95892 0.0
H1987 H 0.28979 0.21545 0.94497 0.0
H1988 H 0.2755 0.23635 0.00846 0.0
H1989 H 0.2206 0.24733 0.96242 0.0
H1990 H 0.23034 0.22873 0.96498 0.0
H1991 H 0.24222 0.24332 0.95385 0.0
C1992 C 0.26879 0.19729 0.97791 0.0
C1993 C 0.27917 0.199 0.96302 0.0
C1994 C 0.26133 0.20993 0.98594 0.0
C1995 C 0.26391 0.22449 0.97913 0.0
C1996 C 0.27406 0.22629 0.96422 0.0
H1997 H 0.22493 0.31347 0.00899 0.0
H1998 H 0.23792 0.2918 0.99382 0.0
C1999 C 0.28165 0.21367 0.95623 0.0
C2000 C 0.25648 0.23785 0.988 0.0
H2001 H 0.22398 0.26456 0.98535 0.0
C2002 C 0.26422 0.24254 0.00347 0.0
C2003 C 0.24191 0.2459 0.98129 0.0
C2004 C 0.23314 0.2411 0.96476 0.0
C2005 C 0.25782 0.25523 0.01241 0.0
C2006 C 0.24296 0.26313 0.00592 0.0
C2007 C 0.23532 0.25847 0.99034 0.0
C2008 C 0.23507 0.27621 0.01514 0.0
C2009 C 0.26731 0.26023 0.0285 0.0
C2010 C 0.22892 0.27457 0.03205 0.0
C2011 C 0.22164 0.28694 0.04076 0.0
C2012 C 0.22009 0.30111 0.03261 0.0
C2013 C 0.22589 0.30265 0.01555 0.0
C2014 C 0.23334 0.29031 0.0069 0.0
H2015 H 0.28115 0.25603 0.02877 0.0
H2016 H 0.26748 0.27279 0.02965 0.0
H2017 H 0.2604 0.2555 0.03988 0.0
H2018 H 0.22964 0.26369 0.03849 0.0
H2019 H 0.21697 0.28536 0.0538 0.0
H2020 H 0.79247 0.69633 0.51459 0.0
H2021 H 0.77983 0.71817 0.49958 0.0
H2022 H 0.74623 0.7273 0.5431 0.0
H2023 H 0.75869 0.7054 0.55818 0.0
H2024 H 0.74432 0.72384 0.49091 0.0
H2025 H 0.77097 0.76815 0.53458 0.0
H2026 H 0.7791 0.74888 0.53452 0.0
H2027 H 0.75868 0.7534 0.54511 0.0
C2028 C 0.78229 0.70291 0.52093 0.0
C2029 C 0.77663 0.69915 0.53761 0.0
C2030 C 0.77516 0.71542 0.51236 0.0
C2031 C 0.76231 0.72447 0.52034 0.0
C2032 C 0.75643 0.72065 0.53688 0.0
H2033 H 0.70262 0.80393 0.48974 0.0
H2034 H 0.71514 0.78201 0.5047 0.0
C2035 C 0.76356 0.70814 0.54546 0.0
C2036 C 0.75486 0.73775 0.51121 0.0
H2037 H 0.75061 0.77629 0.51335 0.0
C2038 C 0.74574 0.73533 0.49576 0.0
C2039 C 0.75675 0.75269 0.51761 0.0
C2040 C 0.76703 0.75602 0.53378 0.0
C2041 C 0.73817 0.74744 0.48665 0.0
C2042 C 0.74006 0.76239 0.49305 0.0
C2043 C 0.74918 0.76481 0.5085 0.0
C2044 C 0.73262 0.77568 0.48392 0.0
C2045 C 0.7279 0.74412 0.47047 0.0
C2046 C 0.73851 0.77949 0.46739 0.0
C2047 C 0.73144 0.79204 0.45883 0.0
C2048 C 0.71844 0.80108 0.46671 0.0
C2049 C 0.71275 0.79731 0.48338 0.0
C2050 C 0.71982 0.78475 0.49192 0.0
H2051 H 0.72394 0.73199 0.46968 0.0
H2052 H 0.71584 0.75127 0.46972 0.0
H2053 H 0.73627 0.74672 0.45914 0.0
H2054 H 0.74867 0.77282 0.46115 0.0
H2055 H 0.73633 0.79479 0.44613 0.0
H2056 H 0.2926 0.8026 0.01182 0.0
H2057 H 0.27902 0.78049 0.99819 0.0
H2058 H 0.24805 0.7724 0.04374 0.0
H2059 H 0.26114 0.79477 0.05736 0.0
H2060 H 0.26794 0.74608 0.02885 0.0
H2061 H 0.2255 0.77724 0.98235 0.0
H2062 H 0.24819 0.78321 0.98372 0.0
H2063 H 0.23382 0.78587 0.00179 0.0
C2064 C 0.2827 0.79629 0.01887 0.0
C2065 C 0.27792 0.80052 0.03568 0.0
C2066 C 0.27503 0.78361 0.01109 0.0
C2067 C 0.26249 0.77493 0.01995 0.0
C2068 C 0.25774 0.779 0.03673 0.0
H2069 H 0.19414 0.70529 0.97728 0.0
H2070 H 0.20626 0.72702 0.99292 0.0
C2071 C 0.26531 0.79173 0.04451 0.0
C2072 C 0.25452 0.76144 0.01176 0.0
H2073 H 0.22711 0.75056 0.97923 0.0
C2074 C 0.25896 0.74701 0.01804 0.0
C2075 C 0.24271 0.76279 0.9978 0.0
C2076 C 0.23711 0.77809 0.99102 0.0
C2077 C 0.25213 0.73381 0.01044 0.0
C2078 C 0.2407 0.73514 0.99615 0.0
C2079 C 0.23598 0.74959 0.99012 0.0
C2080 C 0.23352 0.72166 0.9872 0.0
C2081 C 0.25707 0.71856 0.01786 0.0
C2082 C 0.24485 0.71152 0.97874 0.0
C2083 C 0.23798 0.69905 0.96988 0.0
C2084 C 0.21964 0.69654 0.96925 0.0
C2085 C 0.20834 0.70676 0.97774 0.0
C2086 C 0.21522 0.71923 0.98658 0.0
H2087 H 0.26222 0.7196 0.03117 0.0
H2088 H 0.24554 0.71077 0.01794 0.0
H2089 H 0.26755 0.71336 0.00982 0.0
H2090 H 0.259 0.71334 0.97883 0.0
H2091 H 0.24705 0.69134 0.96357 0.0
H2092 H 0.69478 0.21156 0.5333 0.0
H2093 H 0.70805 0.23303 0.51816 0.0
H2094 H 0.75713 0.20846 0.51394 0.0
H2095 H 0.74415 0.18711 0.52961 0.0
H2096 H 0.76152 0.23817 0.52486 0.0
H2097 H 0.71907 0.23564 0.46684 0.0
H2098 H 0.70693 0.23667 0.48662 0.0
H2099 H 0.72034 0.22029 0.48216 0.0
C2100 C 0.70844 0.21075 0.52926 0.0
C2101 C 0.7184 0.1976 0.53264 0.0
C2102 C 0.71593 0.22296 0.52043 0.0
C2103 C 0.73347 0.22223 0.51469 0.0
C2104 C 0.74351 0.20919 0.51815 0.0
H2105 H 0.78361 0.2843 0.44279 0.0
H2106 H 0.77106 0.2621 0.45724 0.0
C2107 C 0.73604 0.19697 0.52699 0.0
C2108 C 0.74151 0.23522 0.50549 0.0
H2109 H 0.73722 0.25754 0.46987 0.0
C2110 C 0.75627 0.24238 0.5128 0.0
C2111 C 0.73476 0.24055 0.48965 0.0
C2112 C 0.71951 0.23282 0.48074 0.0
C2113 C 0.76426 0.25493 0.50486 0.0
C2114 C 0.75709 0.26061 0.48936 0.0
C2115 C 0.74256 0.25326 0.48186 0.0
C2116 C 0.76455 0.27411 0.48064 0.0
C2117 C 0.78044 0.26186 0.51303 0.0
C2118 C 0.7648 0.28826 0.48893 0.0
C2119 C 0.77192 0.30096 0.48071 0.0
C2120 C 0.7788 0.29977 0.46397 0.0
C2121 C 0.77827 0.28562 0.45561 0.0
C2122 C 0.77118 0.27292 0.46387 0.0
H2123 H 0.78694 0.25386 0.52208 0.0
H2124 H 0.7902 0.26534 0.50313 0.0
H2125 H 0.77651 0.27211 0.52039 0.0
H2126 H 0.75937 0.2895 0.50173 0.0
H2127 H 0.77186 0.31175 0.48737 0.0
H2128 H 0.70255 0.80212 0.01298 0.0
H2129 H 0.71545 0.78051 0.99767 0.0
H2130 H 0.75491 0.77587 0.03726 0.0
H2131 H 0.74229 0.79764 0.05252 0.0
H2132 H 0.76799 0.77507 0.0023 0.0
H2133 H 0.71203 0.73539 0.01358 0.0
H2134 H 0.70623 0.7536 0.00478 0.0
H2135 H 0.71519 0.75245 0.02609 0.0
C2136 C 0.71405 0.79657 0.01836 0.0
C2137 C 0.72138 0.80155 0.03398 0.0
C2138 C 0.72129 0.78416 0.00968 0.0
C2139 C 0.73598 0.77652 0.01646 0.0
C2140 C 0.7435 0.78158 0.0319 0.0
H2141 H 0.78053 0.68933 0.98979 0.0
H2142 H 0.76732 0.71135 0.00404 0.0
C2143 C 0.73622 0.79395 0.04064 0.0
C2144 C 0.74362 0.76332 0.00738 0.0
H2145 H 0.73491 0.72683 0.99526 0.0
C2146 C 0.76079 0.76452 0.00074 0.0
C2147 C 0.73419 0.74956 0.00553 0.0
C2148 C 0.71594 0.74754 0.01297 0.0
C2149 C 0.76875 0.75231 0.99212 0.0
C2150 C 0.75921 0.73864 0.99001 0.0
C2151 C 0.74211 0.73739 0.9968 0.0
C2152 C 0.76697 0.72534 0.98121 0.0
C2153 C 0.78741 0.75402 0.98559 0.0
C2154 C 0.77091 0.72589 0.96361 0.0
C2155 C 0.77847 0.71334 0.95543 0.0
C2156 C 0.78223 0.70004 0.96475 0.0
C2157 C 0.77802 0.69949 0.98233 0.0
C2158 C 0.77039 0.712 0.99047 0.0
H2159 H 0.79414 0.76403 0.99129 0.0
H2160 H 0.7953 0.7437 0.9885 0.0
H2161 H 0.78715 0.75549 0.97143 0.0
H2162 H 0.76816 0.73603 0.95621 0.0
H2163 H 0.78166 0.71414 0.9419 0.0
H2164 H 0.27435 0.18561 0.51223 0.0
H2165 H 0.26151 0.20719 0.4967 0.0
H2166 H 0.27205 0.23629 0.54003 0.0
H2167 H 0.28481 0.21478 0.55569 0.0
H2168 H 0.23546 0.23702 0.52416 0.0
H2169 H 0.29132 0.24518 0.4785 0.0
H2170 H 0.28322 0.22613 0.48145 0.0
H2171 H 0.29399 0.23566 0.49891 0.0
C2172 C 0.27382 0.19659 0.51847 0.0
C2173 C 0.2806 0.19854 0.53515 0.0
C2174 C 0.26661 0.20889 0.50956 0.0
C2175 C 0.26599 0.22329 0.51721 0.0
C2176 C 0.27252 0.22525 0.53392 0.0
H2177 H 0.24135 0.31243 0.47691 0.0
H2178 H 0.25416 0.29056 0.49191 0.0
C2179 C 0.27986 0.21299 0.54279 0.0
C2180 C 0.2584 0.23633 0.50785 0.0
H2181 H 0.26619 0.26072 0.47461 0.0
C2182 C 0.24213 0.24221 0.51331 0.0
C2183 C 0.26727 0.24307 0.49382 0.0
C2184 C 0.28498 0.23731 0.4878 0.0
C2185 C 0.23437 0.25464 0.50492 0.0
C2186 C 0.24315 0.26128 0.49078 0.0
C2187 C 0.2595 0.2555 0.48543 0.0
C2188 C 0.23556 0.27436 0.4815 0.0
C2189 C 0.21693 0.26072 0.51128 0.0
C2190 C 0.22101 0.27237 0.47061 0.0
C2191 C 0.21371 0.28479 0.46199 0.0
C2192 C 0.22082 0.29941 0.46422 0.0
C2193 C 0.23549 0.30132 0.47509 0.0
C2194 C 0.24287 0.28886 0.48358 0.0
H2195 H 0.21306 0.25568 0.52381 0.0
H2196 H 0.21757 0.27325 0.51267 0.0
H2197 H 0.20647 0.25809 0.50174 0.0
H2198 H 0.21527 0.26121 0.46882 0.0
H2199 H 0.20232 0.283 0.45382 0.0
H2200 H 0.77981 0.30935 0.01296 0.0
H2201 H 0.76642 0.28735 0.99887 0.0
H2202 H 0.76571 0.26339 0.0472 0.0
H2203 H 0.77929 0.28532 0.06134 0.0
H2204 H 0.77796 0.24576 0.02119 0.0
H2205 H 0.71547 0.2736 0.00162 0.0
H2206 H 0.73473 0.28341 0.99405 0.0
H2207 H 0.73058 0.28209 0.01677 0.0
C2208 C 0.77662 0.29945 0.02061 0.0
C2209 C 0.78048 0.29908 0.03827 0.0
C2210 C 0.76894 0.28691 0.01255 0.0
C2211 C 0.76477 0.27384 0.02205 0.0
C2212 C 0.76876 0.27339 0.03965 0.0
H2213 H 0.69739 0.20096 0.98482 0.0
H2214 H 0.71032 0.22205 0.00086 0.0
C2215 C 0.77655 0.28589 0.0477 0.0
C2216 C 0.75667 0.2605 0.01352 0.0
H2217 H 0.72143 0.24939 0.98923 0.0
C2218 C 0.76555 0.24652 0.01428 0.0
C2219 C 0.74034 0.26147 0.00474 0.0
C2220 C 0.72963 0.27591 0.00437 0.0
C2221 C 0.75873 0.23355 0.00618 0.0
C2222 C 0.74281 0.23469 0.99675 0.0
C2223 C 0.73374 0.24858 0.9963 0.0
C2224 C 0.73526 0.2216 0.98729 0.0
C2225 C 0.76852 0.21872 0.00802 0.0
C2226 C 0.74494 0.21441 0.97425 0.0
C2227 C 0.73768 0.20221 0.9652 0.0
C2228 C 0.72049 0.19707 0.96888 0.0
C2229 C 0.71077 0.20443 0.98185 0.0
C2230 C 0.71808 0.21657 0.99094 0.0
H2231 H 0.77728 0.21874 0.01948 0.0
H2232 H 0.75922 0.20902 0.00909 0.0
H2233 H 0.77693 0.21691 0.99652 0.0
H2234 H 0.75808 0.21831 0.97096 0.0
H2235 H 0.7456 0.19675 0.95541 0.0
H2236 H 0.24552 0.69361 0.54241 0.0
H2237 H 0.25905 0.71618 0.52968 0.0
H2238 H 0.2074 0.7337 0.5173 0.0
H2239 H 0.19374 0.7115 0.53059 0.0
H2240 H 0.25641 0.72617 0.49623 0.0
H2241 H 0.23045 0.76975 0.54103 0.0
H2242 H 0.2297 0.7497 0.54577 0.0
H2243 H 0.21356 0.75806 0.53169 0.0
C2244 C 0.23702 0.70238 0.53724 0.0
C2245 C 0.21853 0.70076 0.53758 0.0
C2246 C 0.24478 0.71522 0.52987 0.0
C2247 C 0.23422 0.72671 0.52279 0.0
C2248 C 0.21579 0.72511 0.52301 0.0
H2249 H 0.25237 0.809 0.46505 0.0
H2250 H 0.24005 0.78709 0.48023 0.0
C2251 C 0.20801 0.71231 0.53041 0.0
C2252 C 0.2425 0.74009 0.51451 0.0
H2253 H 0.24397 0.77883 0.51536 0.0
C2254 C 0.25382 0.73768 0.50049 0.0
C2255 C 0.23906 0.75508 0.5201 0.0
C2256 C 0.22766 0.75834 0.53557 0.0
C2257 C 0.26146 0.7499 0.49163 0.0
C2258 C 0.25786 0.76489 0.4971 0.0
C2259 C 0.24665 0.7673 0.51119 0.0
C2260 C 0.26541 0.77824 0.48819 0.0
C2261 C 0.27294 0.74668 0.4762 0.0
C2262 C 0.28373 0.7806 0.48787 0.0
C2263 C 0.29082 0.79305 0.47913 0.0
C2264 C 0.27969 0.8034 0.47063 0.0
C2265 C 0.26131 0.80112 0.47126 0.0
C2266 C 0.25424 0.78868 0.48001 0.0
H2267 H 0.27105 0.73494 0.47131 0.0
H2268 H 0.27009 0.75479 0.46564 0.0
H2269 H 0.28702 0.748 0.47986 0.0
H2270 H 0.29256 0.77279 0.49434 0.0
H2271 H 0.30503 0.79441 0.47878 0.0
H2272 H 0.22591 0.55482 0.96068 0.0
H2273 H 0.22924 0.53043 0.97555 0.0
H2274 H 0.1727 0.52449 0.9751 0.0
H2275 H 0.16923 0.54881 0.9605 0.0
H2276 H 0.21461 0.52135 0.00749 0.0
H2277 H 0.19125 0.48468 0.9543 0.0
H2278 H 0.19799 0.50414 0.95105 0.0
H2279 H 0.17631 0.49991 0.95921 0.0
C2280 C 0.21419 0.54833 0.9638 0.0
C2281 C 0.19731 0.55369 0.95925 0.0
C2282 C 0.21613 0.53439 0.97221 0.0
C2283 C 0.20124 0.52555 0.97611 0.0
C2284 C 0.18439 0.53096 0.9718 0.0
H2285 H 0.1692 0.44674 0.03046 0.0
H2286 H 0.17285 0.47007 0.01389 0.0
C2287 C 0.18244 0.54486 0.96343 0.0
C2288 C 0.20307 0.51087 0.98517 0.0
H2289 H 0.19193 0.47341 0.98229 0.0
C2290 C 0.20993 0.5108 0.00192 0.0
C2291 C 0.197 0.49715 0.9778 0.0
C2292 C 0.19038 0.4964 0.95954 0.0
C2293 C 0.21 0.49749 0.01186 0.0
C2294 C 0.20324 0.48392 0.00471 0.0
C2295 C 0.19701 0.48387 0.98774 0.0
C2296 C 0.2014 0.46987 0.01497 0.0
C2297 C 0.21653 0.49816 0.03015 0.0
C2298 C 0.21628 0.46199 0.02097 0.0
C2299 C 0.21423 0.44865 0.03054 0.0
C2300 C 0.19727 0.44301 0.03426 0.0
C2301 C 0.18243 0.45093 0.02809 0.0
C2302 C 0.18449 0.46419 0.01852 0.0
H2303 H 0.21847 0.51002 0.03463 0.0
H2304 H 0.20709 0.49241 0.03891 0.0
H2305 H 0.22938 0.49215 0.03108 0.0
H2306 H 0.22945 0.4661 0.01815 0.0
H2307 H 0.22591 0.44284 0.03516 0.0
H2308 H 0.81699 0.5648 0.51068 0.0
H2309 H 0.81433 0.5404 0.49598 0.0
H2310 H 0.78574 0.5222 0.53924 0.0
H2311 H 0.7885 0.54658 0.55416 0.0
H2312 H 0.82782 0.51273 0.50918 0.0
H2313 H 0.75546 0.50961 0.49722 0.0
H2314 H 0.76661 0.52723 0.5021 0.0
H2315 H 0.76203 0.51383 0.5189 0.0
C2316 C 0.8101 0.55562 0.51707 0.0
C2317 C 0.80304 0.5576 0.53363 0.0
C2318 C 0.80851 0.54172 0.50861 0.0
C2319 C 0.79972 0.52955 0.51647 0.0
C2320 C 0.7923 0.53154 0.53283 0.0
H2321 H 0.78919 0.43485 0.48469 0.0
H2322 H 0.78654 0.4591 0.49998 0.0
C2323 C 0.79389 0.54548 0.54133 0.0
C2324 C 0.79949 0.51453 0.50795 0.0
H2325 H 0.77241 0.488 0.48976 0.0
C2326 C 0.81571 0.50732 0.50491 0.0
C2327 C 0.78365 0.50748 0.50257 0.0
C2328 C 0.76592 0.51494 0.50521 0.0
C2329 C 0.81655 0.49324 0.49657 0.0
C2330 C 0.80076 0.48634 0.49081 0.0
C2331 C 0.78449 0.49338 0.49413 0.0
C2332 C 0.80106 0.47196 0.48098 0.0
C2333 C 0.83435 0.4858 0.49416 0.0
C2334 C 0.80964 0.4713 0.46503 0.0
C2335 C 0.81115 0.45753 0.45629 0.0
C2336 C 0.80401 0.44416 0.46329 0.0
C2337 C 0.79475 0.44497 0.47893 0.0
C2338 C 0.79328 0.45878 0.4877 0.0
H2339 H 0.84436 0.49045 0.50317 0.0
H2340 H 0.83347 0.47333 0.49608 0.0
H2341 H 0.83904 0.48793 0.48087 0.0
H2342 H 0.8154 0.48143 0.45945 0.0
H2343 H 0.81804 0.45733 0.44409 0.0
H2344 H 0.78155 0.4451 0.03893 0.0
H2345 H 0.77856 0.46927 0.02361 0.0
H2346 H 0.83319 0.46673 0.00823 0.0
H2347 H 0.83636 0.4427 0.02358 0.0
H2348 H 0.79721 0.49632 0.02857 0.0
H2349 H 0.80729 0.47405 0.9627 0.0
H2350 H 0.80237 0.4619 0.98077 0.0
H2351 H 0.8245 0.4687 0.97737 0.0
C2352 C 0.79294 0.44972 0.03233 0.0
C2353 C 0.80916 0.44192 0.03235 0.0
C2354 C 0.79118 0.46348 0.02353 0.0
C2355 C 0.80556 0.46963 0.01453 0.0
C2356 C 0.82181 0.46198 0.01472 0.0
H2357 H 0.82921 0.56028 0.98246 0.0
H2358 H 0.82609 0.53584 0.99696 0.0
C2359 C 0.82359 0.44825 0.0235 0.0
C2360 C 0.80384 0.48429 0.00537 0.0
H2361 H 0.80946 0.50096 0.96617 0.0
C2362 C 0.7997 0.49733 0.0149 0.0
C2363 C 0.80682 0.48553 0.98749 0.0
C2364 C 0.81032 0.47178 0.97643 0.0
C2365 C 0.7992 0.51171 0.00713 0.0
C2366 C 0.80319 0.51305 0.98944 0.0
C2367 C 0.80659 0.49992 0.97977 0.0
C2368 C 0.80465 0.528 0.98086 0.0
C2369 C 0.79447 0.52533 0.01793 0.0
C2370 C 0.79388 0.53156 0.96675 0.0
C2371 C 0.79576 0.54548 0.95829 0.0
C2372 C 0.80857 0.55601 0.96371 0.0
C2373 C 0.81933 0.55236 0.97786 0.0
C2374 C 0.81742 0.53848 0.9863 0.0
H2375 H 0.78686 0.522 0.02955 0.0
H2376 H 0.80677 0.53101 0.02226 0.0
H2377 H 0.78658 0.53366 0.01046 0.0
H2378 H 0.78405 0.52355 0.96226 0.0
H2379 H 0.78741 0.54788 0.94732 0.0
H2380 H 0.19916 0.43243 0.48798 0.0
H2381 H 0.20119 0.45657 0.50328 0.0
H2382 H 0.18604 0.48045 0.45721 0.0
H2383 H 0.18483 0.45643 0.44156 0.0
H2384 H 0.21286 0.49476 0.47434 0.0
H2385 H 0.15833 0.48038 0.51917 0.0
H2386 H 0.17625 0.46703 0.51942 0.0
H2387 H 0.16314 0.46921 0.50031 0.0
C2388 C 0.19653 0.44282 0.481 0.0
C2389 C 0.1917 0.44245 0.46354 0.0
C2390 C 0.19748 0.4566 0.48984 0.0
C2391 C 0.1934 0.47027 0.48148 0.0
C2392 C 0.18909 0.47001 0.46395 0.0
H2393 H 0.16188 0.55513 0.5272 0.0
H2394 H 0.16413 0.53088 0.51209 0.0
C2395 C 0.18825 0.45625 0.45506 0.0
C2396 C 0.19331 0.48484 0.491 0.0
H2397 H 0.17361 0.50334 0.52444 0.0
C2398 C 0.2043 0.49665 0.48531 0.0
C2399 C 0.18195 0.48733 0.50517 0.0
C2400 C 0.16912 0.47538 0.51131 0.0
C2401 C 0.20425 0.5109 0.49341 0.0
C2402 C 0.19317 0.51327 0.5078 0.0
C2403 C 0.1822 0.50145 0.51349 0.0
C2404 C 0.19213 0.52811 0.51675 0.0
C2405 C 0.21567 0.5234 0.48616 0.0
C2406 C 0.20711 0.53457 0.52449 0.0
C2407 C 0.20587 0.54847 0.53308 0.0
C2408 C 0.18956 0.55604 0.5343 0.0
C2409 C 0.17458 0.54948 0.52664 0.0
C2410 C 0.17586 0.53566 0.51796 0.0
H2411 H 0.21971 0.52099 0.47271 0.0
H2412 H 0.20867 0.53447 0.48647 0.0
H2413 H 0.22783 0.52443 0.49403 0.0
H2414 H 0.21972 0.52876 0.52407 0.0
H2415 H 0.21758 0.55317 0.53906 0.0
H2416 H 0.69551 0.04082 0.94019 0.0
H2417 H 0.69808 0.0171 0.95639 0.0
H2418 H 0.70866 0.04249 0.00263 0.0
H2419 H 0.7063 0.06627 0.98647 0.0
H2420 H 0.72955 0.01645 0.99957 0.0
H2421 H 0.65861 0.00369 0.98874 0.0
H2422 H 0.671 0.0064 0.96932 0.0
H2423 H 0.66815 0.02198 0.984 0.0
C2424 C 0.69848 0.04133 0.9538 0.0
C2425 C 0.70052 0.05538 0.96212 0.0
C2426 C 0.69993 0.02779 0.96302 0.0
C2427 C 0.7032 0.02807 0.98076 0.0
C2428 C 0.70607 0.04204 0.98895 0.0
H2429 H 0.67551 0.95608 0.05109 0.0
H2430 H 0.67924 0.98027 0.03612 0.0
C2431 C 0.70475 0.0556 0.9797 0.0
C2432 C 0.7027 0.01386 0.99093 0.0
H2433 H 0.67563 0.98453 0.00213 0.0
C2434 C 0.71778 0.00946 0.00018 0.0
C2435 C 0.68721 0.00492 0.99191 0.0
C2436 C 0.67026 0.00953 0.98311 0.0
C2437 C 0.71784 0.99619 0.01022 0.0
C2438 C 0.7025 0.98702 0.01076 0.0
C2439 C 0.68741 0.99153 0.00162 0.0
C2440 C 0.70154 0.9728 0.0209 0.0
C2441 C 0.73416 0.99232 0.02044 0.0
C2442 C 0.71296 0.96061 0.01745 0.0
C2443 C 0.7109 0.94678 0.02607 0.0
C2444 C 0.69722 0.94487 0.03809 0.0
C2445 C 0.68604 0.95719 0.04175 0.0
C2446 C 0.6882 0.97101 0.03325 0.0
H2447 H 0.74271 0.00242 0.02241 0.0
H2448 H 0.73064 0.98753 0.03318 0.0
H2449 H 0.74196 0.98369 0.01334 0.0
H2450 H 0.72309 0.96161 0.00769 0.0
H2451 H 0.71957 0.93741 0.02287 0.0
H2452 H 0.27567 0.94472 0.46073 0.0
H2453 H 0.27232 0.96935 0.47505 0.0
H2454 H 0.32875 0.9758 0.47342 0.0
H2455 H 0.33227 0.95122 0.45942 0.0
H2456 H 0.28781 0.97909 0.50664 0.0
H2457 H 0.30892 0.01506 0.45194 0.0
H2458 H 0.30225 0.9955 0.44933 0.0
H2459 H 0.32412 1e-05 0.45679 0.0
C2460 C 0.28737 0.95136 0.46348 0.0
C2461 C 0.30423 0.94605 0.45878 0.0
C2462 C 0.28541 0.96545 0.47158 0.0
C2463 C 0.30026 0.97449 0.47499 0.0
C2464 C 0.31709 0.96915 0.47051 0.0
H2465 H 0.33217 0.05506 0.52604 0.0
H2466 H 0.32849 0.03157 0.5098 0.0
C2467 C 0.31906 0.9551 0.46247 0.0
C2468 C 0.2984 0.98932 0.48374 0.0
H2469 H 0.30856 0.02688 0.47959 0.0
C2470 C 0.29207 0.9896 0.50068 0.0
C2471 C 0.30394 0.00298 0.47587 0.0
C2472 C 0.31003 0.00345 0.45742 0.0
C2473 C 0.29202 0.00309 0.51029 0.0
C2474 C 0.29821 0.01664 0.50261 0.0
C2475 C 0.3039 0.01645 0.48546 0.0
C2476 C 0.30006 0.03093 0.51247 0.0
C2477 C 0.28615 0.00262 0.52881 0.0
C2478 C 0.28524 0.03843 0.51921 0.0
C2479 C 0.28732 0.05184 0.52864 0.0
C2480 C 0.30425 0.05797 0.53144 0.0
C2481 C 0.31899 0.0505 0.52441 0.0
C2482 C 0.3169 0.03714 0.51501 0.0
H2483 H 0.28499 0.99081 0.53369 0.0
H2484 H 0.29556 0.00893 0.53711 0.0
H2485 H 0.27303 0.00813 0.52997 0.0
H2486 H 0.2721 0.03393 0.51716 0.0
H2487 H 0.27571 0.05729 0.53394 0.0
H2488 H 0.30227 0.93455 0.01201 0.0
H2489 H 0.30011 0.95896 0.99717 0.0
H2490 H 0.30216 0.98231 0.04583 0.0
H2491 H 0.30436 0.95793 0.06078 0.0
H2492 H 0.27578 0.9828 -0.00024 0.0
H2493 H 0.34313 0.00114 0.01907 0.0
H2494 H 0.33557 0.98183 0.02147 0.0
H2495 H 0.32897 0.99611 0.03668 0.0
C2496 C 0.30204 0.94487 0.01957 0.0
C2497 C 0.30362 0.94433 0.03757 0.0
C2498 C 0.30087 0.95881 0.01106 0.0
C2499 C 0.3013 0.97243 0.02038 0.0
C2500 C 0.30223 0.97192 0.03838 0.0
H2501 H 0.3047 0.06719 0.98982 0.0
H2502 H 0.30159 0.04341 0.00575 0.0
C2503 C 0.30347 0.958 0.04689 0.0
C2504 C 0.30117 0.98717 0.01121 0.0
H2505 H 0.32565 0.01914 0.00428 0.0
C2506 C 0.28667 0.99076 0.00072 0.0
C2507 C 0.31544 0.99749 0.01247 0.0
C2508 C 0.33174 0.99394 0.0229 0.0
C2509 C 0.28597 0.00451 0.99161 0.0
C2510 C 0.30025 0.01479 0.99287 0.0
C2511 C 0.31469 0.01123 0.00342 0.0
C2512 C 0.30073 0.0292 0.9831 0.0
C2513 C 0.26987 0.00801 0.9809 0.0
C2514 C 0.30126 0.02908 0.96508 0.0
C2515 C 0.30298 0.04265 0.95593 0.0
C2516 C 0.30425 0.0566 0.96465 0.0
C2517 C 0.30348 0.05667 0.98271 0.0
C2518 C 0.30181 0.0431 0.99184 0.0
H2519 H 0.25838 0.00093 0.9847 0.0
H2520 H 0.26616 0.02017 0.98204 0.0
H2521 H 0.27285 0.00564 0.9672 0.0
H2522 H 0.30075 0.01845 0.9581 0.0
H2523 H 0.30341 0.04222 0.94203 0.0
H2524 H 0.68165 0.04167 0.55291 0.0
H2525 H 0.68486 0.01819 0.53653 0.0
H2526 H 0.71561 0.04191 0.49838 0.0
H2527 H 0.71189 0.06561 0.51436 0.0
H2528 H 0.68949 0.02488 0.48415 0.0
H2529 H 0.72703 0.99021 0.53089 0.0
H2530 H 0.70729 0.9981 0.53999 0.0
H2531 H 0.72473 0.01053 0.53297 0.0
C2532 C 0.68911 0.04191 0.54104 0.0
C2533 C 0.69649 0.05554 0.53494 0.0
C2534 C 0.69114 0.02843 0.53181 0.0
C2535 C 0.70072 0.02825 0.51638 0.0
C2536 C 0.7083 0.04178 0.51035 0.0
H2537 H 0.72252 0.94321 0.46163 0.0
H2538 H 0.72612 0.96757 0.47648 0.0
C2539 C 0.70625 0.05529 0.51956 0.0
C2540 C 0.70176 0.01417 0.50599 0.0
H2541 H 0.71282 0.97664 0.50798 0.0
C2542 C 0.69479 0.01437 0.48929 0.0
C2543 C 0.70891 0.00053 0.5126 0.0
C2544 C 0.71758 -0.00017 0.53003 0.0
C2545 C 0.6941 0.00114 0.47927 0.0
C2546 C 0.70024 0.9873 0.48629 0.0
C2547 C 0.70791 0.98723 0.50271 0.0
C2548 C 0.69817 0.97269 0.47707 0.0
C2549 C 0.68675 0.00211 0.46128 0.0
C2550 C 0.68127 0.96743 0.47271 0.0
C2551 C 0.67918 0.95356 0.46429 0.0
C2552 C 0.69395 0.9446 0.46016 0.0
C2553 C 0.71088 0.94982 0.46471 0.0
C2554 C 0.71296 0.96374 0.47313 0.0
H2555 H 0.6877 0.01384 0.45609 0.0
H2556 H 0.6938 0.99428 0.45245 0.0
H2557 H 0.67258 0.99889 0.46149 0.0
H2558 H 0.66965 0.97397 0.47605 0.0
H2559 H 0.66594 0.94972 0.46131 0.0
loop_
_geom_bond_atom_site_label_1
_geom_bond_atom_site_label_2
_geom_bond_distance
_geom_bond_site_symmetry_2
_ccdc_geom_bond_type
Li0 N17 1.990 . S
Li0 O60 1.956 . S
Li0 O61 1.970 . S
Li0 O62 1.961 . S
Li1 N25 1.990 . S
Li1 O60 1.970 . S
Li1 O61 1.956 . S
Li1 O63 1.961 . S
Li2 N47 1.990 . S
Li2 O60 1.961 . S
Li2 O62 1.956 . S
Li2 O63 1.970 . S
Li3 N53 1.990 . S
Li3 O61 1.961 . S
Li3 O62 1.970 . S
Li3 O63 1.956 . S
C4 C6 1.348 . S
C4 C7 1.356 . S
C4 O60 1.325 . S
N5 C8 1.314 . S
N5 C9 1.279 . S
C6 C4 1.348 . S
C6 C8 1.353 . S
C6 H64 0.929 . S
C7 C4 1.356 . S
C7 C9 1.358 . S
C7 H65 0.930 . S
C8 N5 1.314 . S
C8 C6 1.353 . S
C8 H66 0.930 . S
C9 N5 1.279 . S
C9 C7 1.358 . S
C9 H67 0.930 . S
C10 C13 1.348 . S
C10 C14 1.356 . S
C10 O61 1.325 . S
C11 N12 1.279 . S
C11 C14 1.358 . S
C11 H68 0.930 . S
N12 C11 1.279 . S
N12 C15 1.314 . S
C13 C10 1.348 . S
C13 C15 1.353 . S
C13 H69 0.929 . S
C14 C10 1.356 . S
C14 C11 1.358 . S
C14 H70 0.930 . S
C15 N12 1.314 . S
C15 C13 1.353 . S
C15 H71 0.930 . S
C16 N17 1.314 . S
C16 C21 1.353 . S
C16 H22 0.930 . S
N17 Li0 1.990 . S
N17 C16 1.314 . S
N17 C19 1.279 . S
C18 C19 1.358 . S
C18 C20 1.356 . S
C18 H72 0.930 . S
C19 N17 1.279 . S
C19 C18 1.358 . S
C19 H23 0.930 . S
C20 C18 1.356 . S
C20 C21 1.348 . S
C21 C16 1.353 . S
C21 C20 1.348 . S
C21 H73 0.929 . S
H22 C16 0.930 . S
H23 C19 0.930 . S
C24 N25 1.314 . S
C24 C26 1.353 . S
C24 H30 0.930 . S
N25 Li1 1.990 . S
N25 C24 1.314 . S
N25 C28 1.279 . S
C26 C24 1.353 . S
C26 C29 1.348 . S
C26 H74 0.929 . S
C27 C28 1.358 . S
C27 C29 1.356 . S
C27 H75 0.930 . S
C28 N25 1.279 . S
C28 C27 1.358 . S
C28 H31 0.930 . S
C29 C26 1.348 . S
C29 C27 1.356 . S
H30 C24 0.930 . S
H31 C28 0.930 . S
C32 C34 1.348 . S
C32 C35 1.356 . S
C32 O62 1.325 . S
N33 C36 1.314 . S
N33 C37 1.279 . S
C34 C32 1.348 . S
C34 C36 1.353 . S
C34 H76 0.929 . S
C35 C32 1.356 . S
C35 C37 1.358 . S
C35 H77 0.930 . S
C36 N33 1.314 . S
C36 C34 1.353 . S
C36 H78 0.930 . S
C37 N33 1.279 . S
C37 C35 1.358 . S
C37 H79 0.930 . S
C38 C39 1.348 . S
C38 C40 1.356 . S
C38 O63 1.325 . S
C39 C38 1.348 . S
C39 C41 1.353 . S
C39 H80 0.929 . S
C40 C38 1.356 . S
C40 C42 1.358 . S
C40 H81 0.930 . S
C41 C39 1.353 . S
C41 N43 1.314 . S
C41 H82 0.930 . S
C42 C40 1.358 . S
C42 N43 1.279 . S
C42 H83 0.930 . S
N43 C41 1.314 . S
N43 C42 1.279 . S
C44 C46 1.353 . S
C44 N47 1.314 . S
C44 H50 0.930 . S
C45 N47 1.279 . S
C45 C48 1.358 . S
C45 H51 0.930 . S
C46 C44 1.353 . S
C46 C49 1.348 . S
C46 H84 0.929 . S
N47 Li2 1.990 . S
N47 C44 1.314 . S
N47 C45 1.279 . S
C48 C45 1.358 . S
C48 C49 1.356 . S
C48 H85 0.930 . S
C49 C46 1.348 . S
C49 C48 1.356 . S
H50 C44 0.930 . S
H51 C45 0.930 . S
C52 N53 1.314 . S
C52 C54 1.353 . S
C52 H58 0.930 . S
N53 Li3 1.990 . S
N53 C52 1.314 . S
N53 C56 1.279 . S
C54 C52 1.353 . S
C54 C57 1.348 . S
C54 H86 0.929 . S
C55 C56 1.358 . S
C55 C57 1.356 . S
C55 H87 0.930 . S
C56 N53 1.279 . S
C56 C55 1.358 . S
C56 H59 0.930 . S
C57 C54 1.348 . S
C57 C55 1.356 . S
H58 C52 0.930 . S
H59 C56 0.930 . S
O60 Li0 1.956 . S
O60 Li1 1.970 . S
O60 Li2 1.961 . S
O60 C4 1.325 . S
O61 Li0 1.970 . S
O61 Li1 1.956 . S
O61 Li3 1.961 . S
O61 C10 1.325 . S
O62 Li0 1.961 . S
O62 Li2 1.956 . S
O62 Li3 1.970 . S
O62 C32 1.325 . S
O63 Li1 1.961 . S
O63 Li2 1.970 . S
O63 Li3 1.956 . S
O63 C38 1.325 . S
H64 C6 0.929 . S
H65 C7 0.930 . S
H66 C8 0.930 . S
H67 C9 0.930 . S
H68 C11 0.930 . S
H69 C13 0.929 . S
H70 C14 0.930 . S
H71 C15 0.930 . S
H72 C18 0.930 . S
H73 C21 0.929 . S
H74 C26 0.929 . S
H75 C27 0.930 . S
H76 C34 0.929 . S
H77 C35 0.930 . S
H78 C36 0.930 . S
H79 C37 0.930 . S
H80 C39 0.929 . S
H81 C40 0.930 . S
H82 C41 0.930 . S
H83 C42 0.930 . S
H84 C46 0.929 . S
H85 C48 0.930 . S
H86 C54 0.929 . S
H87 C55 0.930 . S
Li88 N105 1.990 . S
Li88 O148 1.956 . S
Li88 O149 1.970 . S
Li88 O150 1.961 . S
Li89 N113 1.990 . S
Li89 O148 1.970 . S
Li89 O149 1.956 . S
Li89 O151 1.961 . S
Li90 N135 1.990 . S
Li90 O148 1.961 . S
Li90 O150 1.956 . S
Li90 O151 1.970 . S
Li91 N141 1.990 . S
Li91 O149 1.961 . S
Li91 O150 1.970 . S
Li91 O151 1.956 . S
C92 C94 1.348 . S
C92 C95 1.356 . S
C92 O148 1.325 . S
N93 C96 1.314 . S
N93 C97 1.279 . S
C94 C92 1.348 . S
C94 C96 1.353 . S
C94 H152 0.929 . S
C95 C92 1.356 . S
C95 C97 1.358 . S
C95 H153 0.930 . S
C96 N93 1.314 . S
C96 C94 1.353 . S
C96 H154 0.930 . S
C97 N93 1.279 . S
C97 C95 1.358 . S
C97 H155 0.930 . S
C98 C101 1.348 . S
C98 C102 1.356 . S
C98 O149 1.325 . S
C99 N100 1.279 . S
C99 C102 1.358 . S
C99 H156 0.930 . S
N100 C99 1.279 . S
N100 C103 1.314 . S
C101 C98 1.348 . S
C101 C103 1.353 . S
C101 H157 0.929 . S
C102 C98 1.356 . S
C102 C99 1.358 . S
C102 H158 0.930 . S
C103 N100 1.314 . S
C103 C101 1.353 . S
C103 H159 0.930 . S
C104 N105 1.314 . S
C104 C109 1.353 . S
C104 H110 0.930 . S
N105 Li88 1.990 . S
N105 C104 1.314 . S
N105 C107 1.279 . S
C106 C107 1.358 . S
C106 C108 1.356 . S
C106 H160 0.930 . S
C107 N105 1.279 . S
C107 C106 1.358 . S
C107 H111 0.930 . S
C108 C106 1.356 . S
C108 C109 1.348 . S
C109 C104 1.353 . S
C109 C108 1.348 . S
C109 H161 0.929 . S
H110 C104 0.930 . S
H111 C107 0.930 . S
C112 N113 1.314 . S
C112 C114 1.353 . S
C112 H118 0.930 . S
N113 Li89 1.990 . S
N113 C112 1.314 . S
N113 C116 1.279 . S
C114 C112 1.353 . S
C114 C117 1.348 . S
C114 H162 0.929 . S
C115 C116 1.358 . S
C115 C117 1.356 . S
C115 H163 0.930 . S
C116 N113 1.279 . S
C116 C115 1.358 . S
C116 H119 0.930 . S
C117 C114 1.348 . S
C117 C115 1.356 . S
H118 C112 0.930 . S
H119 C116 0.930 . S
C120 C122 1.348 . S
C120 C123 1.356 . S
C120 O150 1.325 . S
N121 C124 1.314 . S
N121 C125 1.279 . S
C122 C120 1.348 . S
C122 C124 1.353 . S
C122 H164 0.929 . S
C123 C120 1.356 . S
C123 C125 1.358 . S
C123 H165 0.930 . S
C124 N121 1.314 . S
C124 C122 1.353 . S
C124 H166 0.930 . S
C125 N121 1.279 . S
C125 C123 1.358 . S
C125 H167 0.930 . S
C126 C127 1.348 . S
C126 C128 1.356 . S
C126 O151 1.325 . S
C127 C126 1.348 . S
C127 C129 1.353 . S
C127 H168 0.929 . S
C128 C126 1.356 . S
C128 C130 1.358 . S
C128 H169 0.930 . S
C129 C127 1.353 . S
C129 N131 1.314 . S
C129 H170 0.930 . S
C130 C128 1.358 . S
C130 N131 1.279 . S
C130 H171 0.930 . S
N131 C129 1.314 . S
N131 C130 1.279 . S
C132 C134 1.353 . S
C132 N135 1.314 . S
C132 H138 0.930 . S
C133 N135 1.279 . S
C133 C136 1.358 . S
C133 H139 0.930 . S
C134 C132 1.353 . S
C134 C137 1.348 . S
C134 H172 0.929 . S
N135 Li90 1.990 . S
N135 C132 1.314 . S
N135 C133 1.279 . S
C136 C133 1.358 . S
C136 C137 1.356 . S
C136 H173 0.930 . S
C137 C134 1.348 . S
C137 C136 1.356 . S
H138 C132 0.930 . S
H139 C133 0.930 . S
C140 N141 1.314 . S
C140 C142 1.353 . S
C140 H146 0.930 . S
N141 Li91 1.990 . S
N141 C140 1.314 . S
N141 C144 1.279 . S
C142 C140 1.353 . S
C142 C145 1.348 . S
C142 H174 0.929 . S
C143 C144 1.358 . S
C143 C145 1.356 . S
C143 H175 0.930 . S
C144 N141 1.279 . S
C144 C143 1.358 . S
C144 H147 0.930 . S
C145 C142 1.348 . S
C145 C143 1.356 . S
H146 C140 0.930 . S
H147 C144 0.930 . S
O148 Li88 1.956 . S
O148 Li89 1.970 . S
O148 Li90 1.961 . S
O148 C92 1.325 . S
O149 Li88 1.970 . S
O149 Li89 1.956 . S
O149 Li91 1.961 . S
O149 C98 1.325 . S
O150 Li88 1.961 . S
O150 Li90 1.956 . S
O150 Li91 1.970 . S
O150 C120 1.325 . S
O151 Li89 1.961 . S
O151 Li90 1.970 . S
O151 Li91 1.956 . S
O151 C126 1.325 . S
H152 C94 0.929 . S
H153 C95 0.930 . S
H154 C96 0.930 . S
H155 C97 0.930 . S
H156 C99 0.930 . S
H157 C101 0.929 . S
H158 C102 0.930 . S
H159 C103 0.930 . S
H160 C106 0.930 . S
H161 C109 0.929 . S
H162 C114 0.929 . S
H163 C115 0.930 . S
H164 C122 0.929 . S
H165 C123 0.930 . S
H166 C124 0.930 . S
H167 C125 0.930 . S
H168 C127 0.929 . S
H169 C128 0.930 . S
H170 C129 0.930 . S
H171 C130 0.930 . S
H172 C134 0.929 . S
H173 C136 0.930 . S
H174 C142 0.929 . S
H175 C143 0.930 . S
Li176 N193 1.990 . S
Li176 O236 1.956 . S
Li176 O237 1.970 . S
Li176 O238 1.961 . S
Li177 N201 1.990 . S
Li177 O236 1.970 . S
Li177 O237 1.956 . S
Li177 O239 1.961 . S
Li178 N223 1.990 . S
Li178 O236 1.961 . S
Li178 O238 1.956 . S
Li178 O239 1.970 . S
Li179 N229 1.990 . S
Li179 O237 1.961 . S
Li179 O238 1.970 . S
Li179 O239 1.956 . S
C180 C182 1.348 . S
C180 C183 1.356 . S
C180 O236 1.325 . S
N181 C184 1.314 . S
N181 C185 1.279 . S
C182 C180 1.348 . S
C182 C184 1.353 . S
C182 H240 0.929 . S
C183 C180 1.356 . S
C183 C185 1.358 . S
C183 H241 0.930 . S
C184 N181 1.314 . S
C184 C182 1.353 . S
C184 H242 0.930 . S
C185 N181 1.279 . S
C185 C183 1.358 . S
C185 H243 0.930 . S
C186 C189 1.348 . S
C186 C190 1.356 . S
C186 O237 1.325 . S
C187 N188 1.279 . S
C187 C190 1.358 . S
C187 H244 0.930 . S
N188 C187 1.279 . S
N188 C191 1.314 . S
C189 C186 1.348 . S
C189 C191 1.353 . S
C189 H245 0.929 . S
C190 C186 1.356 . S
C190 C187 1.358 . S
C190 H246 0.930 . S
C191 N188 1.314 . S
C191 C189 1.353 . S
C191 H247 0.930 . S
C192 N193 1.314 . S
C192 C197 1.353 . S
C192 H198 0.930 . S
N193 Li176 1.990 . S
N193 C192 1.314 . S
N193 C195 1.279 . S
C194 C195 1.358 . S
C194 C196 1.356 . S
C194 H248 0.930 . S
C195 N193 1.279 . S
C195 C194 1.358 . S
C195 H199 0.930 . S
C196 C194 1.356 . S
C196 C197 1.348 . S
C197 C192 1.353 . S
C197 C196 1.348 . S
C197 H249 0.929 . S
H198 C192 0.930 . S
H199 C195 0.930 . S
C200 N201 1.314 . S
C200 C202 1.353 . S
C200 H206 0.930 . S
N201 Li177 1.990 . S
N201 C200 1.314 . S
N201 C204 1.279 . S
C202 C200 1.353 . S
C202 C205 1.348 . S
C202 H250 0.929 . S
C203 C204 1.358 . S
C203 C205 1.356 . S
C203 H251 0.930 . S
C204 N201 1.279 . S
C204 C203 1.358 . S
C204 H207 0.930 . S
C205 C202 1.348 . S
C205 C203 1.356 . S
H206 C200 0.930 . S
H207 C204 0.930 . S
C208 C210 1.348 . S
C208 C211 1.356 . S
C208 O238 1.325 . S
N209 C212 1.314 . S
N209 C213 1.279 . S
C210 C208 1.348 . S
C210 C212 1.353 . S
C210 H252 0.929 . S
C211 C208 1.356 . S
C211 C213 1.358 . S
C211 H253 0.930 . S
C212 N209 1.314 . S
C212 C210 1.353 . S
C212 H254 0.930 . S
C213 N209 1.279 . S
C213 C211 1.358 . S
C213 H255 0.930 . S
C214 C215 1.348 . S
C214 C216 1.356 . S
C214 O239 1.325 . S
C215 C214 1.348 . S
C215 C217 1.353 . S
C215 H256 0.929 . S
C216 C214 1.356 . S
C216 C218 1.358 . S
C216 H257 0.930 . S
C217 C215 1.353 . S
C217 N219 1.314 . S
C217 H258 0.930 . S
C218 C216 1.358 . S
C218 N219 1.279 . S
C218 H259 0.930 . S
N219 C217 1.314 . S
N219 C218 1.279 . S
C220 C222 1.353 . S
C220 N223 1.314 . S
C220 H226 0.930 . S
C221 N223 1.279 . S
C221 C224 1.358 . S
C221 H227 0.930 . S
C222 C220 1.353 . S
C222 C225 1.348 . S
C222 H260 0.929 . S
N223 Li178 1.990 . S
N223 C220 1.314 . S
N223 C221 1.279 . S
C224 C221 1.358 . S
C224 C225 1.356 . S
C224 H261 0.930 . S
C225 C222 1.348 . S
C225 C224 1.356 . S
H226 C220 0.930 . S
H227 C221 0.930 . S
C228 N229 1.314 . S
C228 C230 1.353 . S
C228 H234 0.930 . S
N229 Li179 1.990 . S
N229 C228 1.314 . S
N229 C232 1.279 . S
C230 C228 1.353 . S
C230 C233 1.348 . S
C230 H262 0.929 . S
C231 C232 1.358 . S
C231 C233 1.356 . S
C231 H263 0.930 . S
C232 N229 1.279 . S
C232 C231 1.358 . S
C232 H235 0.930 . S
C233 C230 1.348 . S
C233 C231 1.356 . S
H234 C228 0.930 . S
H235 C232 0.930 . S
O236 Li176 1.956 . S
O236 Li177 1.970 . S
O236 Li178 1.961 . S
O236 C180 1.325 . S
O237 Li176 1.970 . S
O237 Li177 1.956 . S
O237 Li179 1.961 . S
O237 C186 1.325 . S
O238 Li176 1.961 . S
O238 Li178 1.956 . S
O238 Li179 1.970 . S
O238 C208 1.325 . S
O239 Li177 1.961 . S
O239 Li178 1.970 . S
O239 Li179 1.956 . S
O239 C214 1.325 . S
H240 C182 0.929 . S
H241 C183 0.930 . S
H242 C184 0.930 . S
H243 C185 0.930 . S
H244 C187 0.930 . S
H245 C189 0.929 . S
H246 C190 0.930 . S
H247 C191 0.930 . S
H248 C194 0.930 . S
H249 C197 0.929 . S
H250 C202 0.929 . S
H251 C203 0.930 . S
H252 C210 0.929 . S
H253 C211 0.930 . S
H254 C212 0.930 . S
H255 C213 0.930 . S
H256 C215 0.929 . S
H257 C216 0.930 . S
H258 C217 0.930 . S
H259 C218 0.930 . S
H260 C222 0.929 . S
H261 C224 0.930 . S
H262 C230 0.929 . S
H263 C231 0.930 . S
Li264 N281 1.990 . S
Li264 O324 1.956 . S
Li264 O325 1.970 . S
Li264 O326 1.961 . S
Li265 N289 1.990 . S
Li265 O324 1.970 . S
Li265 O325 1.956 . S
Li265 O327 1.961 . S
Li266 N311 1.990 . S
Li266 O324 1.961 . S
Li266 O326 1.956 . S
Li266 O327 1.970 . S
Li267 N317 1.990 . S
Li267 O325 1.961 . S
Li267 O326 1.970 . S
Li267 O327 1.956 . S
C268 C270 1.348 . S
C268 C271 1.356 . S
C268 O324 1.325 . S
N269 C272 1.314 . S
N269 C273 1.279 . S
C270 C268 1.348 . S
C270 C272 1.353 . S
C270 H328 0.929 . S
C271 C268 1.356 . S
C271 C273 1.358 . S
C271 H329 0.930 . S
C272 N269 1.314 . S
C272 C270 1.353 . S
C272 H330 0.930 . S
C273 N269 1.279 . S
C273 C271 1.358 . S
C273 H331 0.930 . S
C274 C277 1.348 . S
C274 C278 1.356 . S
C274 O325 1.325 . S
C275 N276 1.279 . S
C275 C278 1.358 . S
C275 H332 0.930 . S
N276 C275 1.279 . S
N276 C279 1.314 . S
C277 C274 1.348 . S
C277 C279 1.353 . S
C277 H333 0.929 . S
C278 C274 1.356 . S
C278 C275 1.358 . S
C278 H334 0.930 . S
C279 N276 1.314 . S
C279 C277 1.353 . S
C279 H335 0.930 . S
C280 N281 1.314 . S
C280 C285 1.353 . S
C280 H286 0.930 . S
N281 Li264 1.990 . S
N281 C280 1.314 . S
N281 C283 1.279 . S
C282 C283 1.358 . S
C282 C284 1.356 . S
C282 H336 0.930 . S
C283 N281 1.279 . S
C283 C282 1.358 . S
C283 H287 0.930 . S
C284 C282 1.356 . S
C284 C285 1.348 . S
C285 C280 1.353 . S
C285 C284 1.348 . S
C285 H337 0.929 . S
H286 C280 0.930 . S
H287 C283 0.930 . S
C288 N289 1.314 . S
C288 C290 1.353 . S
C288 H294 0.930 . S
N289 Li265 1.990 . S
N289 C288 1.314 . S
N289 C292 1.279 . S
C290 C288 1.353 . S
C290 C293 1.348 . S
C290 H338 0.929 . S
C291 C292 1.358 . S
C291 C293 1.356 . S
C291 H339 0.930 . S
C292 N289 1.279 . S
C292 C291 1.358 . S
C292 H295 0.930 . S
C293 C290 1.348 . S
C293 C291 1.356 . S
H294 C288 0.930 . S
H295 C292 0.930 . S
C296 C298 1.348 . S
C296 C299 1.356 . S
C296 O326 1.325 . S
N297 C300 1.314 . S
N297 C301 1.279 . S
C298 C296 1.348 . S
C298 C300 1.353 . S
C298 H340 0.929 . S
C299 C296 1.356 . S
C299 C301 1.358 . S
C299 H341 0.930 . S
C300 N297 1.314 . S
C300 C298 1.353 . S
C300 H342 0.930 . S
C301 N297 1.279 . S
C301 C299 1.358 . S
C301 H343 0.930 . S
C302 C303 1.348 . S
C302 C304 1.356 . S
C302 O327 1.325 . S
C303 C302 1.348 . S
C303 C305 1.353 . S
C303 H344 0.929 . S
C304 C302 1.356 . S
C304 C306 1.358 . S
C304 H345 0.930 . S
C305 C303 1.353 . S
C305 N307 1.314 . S
C305 H346 0.930 . S
C306 C304 1.358 . S
C306 N307 1.279 . S
C306 H347 0.930 . S
N307 C305 1.314 . S
N307 C306 1.279 . S
C308 C310 1.353 . S
C308 N311 1.314 . S
C308 H314 0.930 . S
C309 N311 1.279 . S
C309 C312 1.358 . S
C309 H315 0.930 . S
C310 C308 1.353 . S
C310 C313 1.348 . S
C310 H348 0.929 . S
N311 Li266 1.990 . S
N311 C308 1.314 . S
N311 C309 1.279 . S
C312 C309 1.358 . S
C312 C313 1.356 . S
C312 H349 0.930 . S
C313 C310 1.348 . S
C313 C312 1.356 . S
H314 C308 0.930 . S
H315 C309 0.930 . S
C316 N317 1.314 . S
C316 C318 1.353 . S
C316 H322 0.930 . S
N317 Li267 1.990 . S
N317 C316 1.314 . S
N317 C320 1.279 . S
C318 C316 1.353 . S
C318 C321 1.348 . S
C318 H350 0.929 . S
C319 C320 1.358 . S
C319 C321 1.356 . S
C319 H351 0.930 . S
C320 N317 1.279 . S
C320 C319 1.358 . S
C320 H323 0.930 . S
C321 C318 1.348 . S
C321 C319 1.356 . S
H322 C316 0.930 . S
H323 C320 0.930 . S
O324 Li264 1.956 . S
O324 Li265 1.970 . S
O324 Li266 1.961 . S
O324 C268 1.325 . S
O325 Li264 1.970 . S
O325 Li265 1.956 . S
O325 Li267 1.961 . S
O325 C274 1.325 . S
O326 Li264 1.961 . S
O326 Li266 1.956 . S
O326 Li267 1.970 . S
O326 C296 1.325 . S
O327 Li265 1.961 . S
O327 Li266 1.970 . S
O327 Li267 1.956 . S
O327 C302 1.325 . S
H328 C270 0.929 . S
H329 C271 0.930 . S
H330 C272 0.930 . S
H331 C273 0.930 . S
H332 C275 0.930 . S
H333 C277 0.929 . S
H334 C278 0.930 . S
H335 C279 0.930 . S
H336 C282 0.930 . S
H337 C285 0.929 . S
H338 C290 0.929 . S
H339 C291 0.930 . S
H340 C298 0.929 . S
H341 C299 0.930 . S
H342 C300 0.930 . S
H343 C301 0.930 . S
H344 C303 0.929 . S
H345 C304 0.930 . S
H346 C305 0.930 . S
H347 C306 0.930 . S
H348 C310 0.929 . S
H349 C312 0.930 . S
H350 C318 0.929 . S
H351 C319 0.930 . S
Li352 N369 1.990 . S
Li352 O412 1.956 . S
Li352 O413 1.970 . S
Li352 O414 1.961 . S
Li353 N377 1.990 . S
Li353 O412 1.970 . S
Li353 O413 1.956 . S
Li353 O415 1.961 . S
Li354 N399 1.990 . S
Li354 O412 1.961 . S
Li354 O414 1.956 . S
Li354 O415 1.970 . S
Li355 N405 1.990 . S
Li355 O413 1.961 . S
Li355 O414 1.970 . S
Li355 O415 1.956 . S
C356 C358 1.348 . S
C356 C359 1.356 . S
C356 O412 1.325 . S
N357 C360 1.314 . S
N357 C361 1.279 . S
C358 C356 1.348 . S
C358 C360 1.353 . S
C358 H416 0.929 . S
C359 C356 1.356 . S
C359 C361 1.358 . S
C359 H417 0.930 . S
C360 N357 1.314 . S
C360 C358 1.353 . S
C360 H418 0.930 . S
C361 N357 1.279 . S
C361 C359 1.358 . S
C361 H419 0.930 . S
C362 C365 1.348 . S
C362 C366 1.356 . S
C362 O413 1.325 . S
C363 N364 1.279 . S
C363 C366 1.358 . S
C363 H420 0.930 . S
N364 C363 1.279 . S
N364 C367 1.314 . S
C365 C362 1.348 . S
C365 C367 1.353 . S
C365 H421 0.929 . S
C366 C362 1.356 . S
C366 C363 1.358 . S
C366 H422 0.930 . S
C367 N364 1.314 . S
C367 C365 1.353 . S
C367 H423 0.930 . S
C368 N369 1.314 . S
C368 C373 1.353 . S
C368 H374 0.930 . S
N369 Li352 1.990 . S
N369 C368 1.314 . S
N369 C371 1.279 . S
C370 C371 1.358 . S
C370 C372 1.356 . S
C370 H424 0.930 . S
C371 N369 1.279 . S
C371 C370 1.358 . S
C371 H375 0.930 . S
C372 C370 1.356 . S
C372 C373 1.348 . S
C373 C368 1.353 . S
C373 C372 1.348 . S
C373 H425 0.929 . S
H374 C368 0.930 . S
H375 C371 0.930 . S
C376 N377 1.314 . S
C376 C378 1.353 . S
C376 H382 0.930 . S
N377 Li353 1.990 . S
N377 C376 1.314 . S
N377 C380 1.279 . S
C378 C376 1.353 . S
C378 C381 1.348 . S
C378 H426 0.929 . S
C379 C380 1.358 . S
C379 C381 1.356 . S
C379 H427 0.930 . S
C380 N377 1.279 . S
C380 C379 1.358 . S
C380 H383 0.930 . S
C381 C378 1.348 . S
C381 C379 1.356 . S
H382 C376 0.930 . S
H383 C380 0.930 . S
C384 C386 1.348 . S
C384 C387 1.356 . S
C384 O414 1.325 . S
N385 C388 1.314 . S
N385 C389 1.279 . S
C386 C384 1.348 . S
C386 C388 1.353 . S
C386 H428 0.929 . S
C387 C384 1.356 . S
C387 C389 1.358 . S
C387 H429 0.930 . S
C388 N385 1.314 . S
C388 C386 1.353 . S
C388 H430 0.930 . S
C389 N385 1.279 . S
C389 C387 1.358 . S
C389 H431 0.930 . S
C390 C391 1.348 . S
C390 C392 1.356 . S
C390 O415 1.325 . S
C391 C390 1.348 . S
C391 C393 1.353 . S
C391 H432 0.929 . S
C392 C390 1.356 . S
C392 C394 1.358 . S
C392 H433 0.930 . S
C393 C391 1.353 . S
C393 N395 1.314 . S
C393 H434 0.930 . S
C394 C392 1.358 . S
C394 N395 1.279 . S
C394 H435 0.930 . S
N395 C393 1.314 . S
N395 C394 1.279 . S
C396 C398 1.353 . S
C396 N399 1.314 . S
C396 H402 0.930 . S
C397 N399 1.279 . S
C397 C400 1.358 . S
C397 H403 0.930 . S
C398 C396 1.353 . S
C398 C401 1.348 . S
C398 H436 0.929 . S
N399 Li354 1.990 . S
N399 C396 1.314 . S
N399 C397 1.279 . S
C400 C397 1.358 . S
C400 C401 1.356 . S
C400 H437 0.930 . S
C401 C398 1.348 . S
C401 C400 1.356 . S
H402 C396 0.930 . S
H403 C397 0.930 . S
C404 N405 1.314 . S
C404 C406 1.353 . S
C404 H410 0.930 . S
N405 Li355 1.990 . S
N405 C404 1.314 . S
N405 C408 1.279 . S
C406 C404 1.353 . S
C406 C409 1.348 . S
C406 H438 0.929 . S
C407 C408 1.358 . S
C407 C409 1.356 . S
C407 H439 0.930 . S
C408 N405 1.279 . S
C408 C407 1.358 . S
C408 H411 0.930 . S
C409 C406 1.348 . S
C409 C407 1.356 . S
H410 C404 0.930 . S
H411 C408 0.930 . S
O412 Li352 1.956 . S
O412 Li353 1.970 . S
O412 Li354 1.961 . S
O412 C356 1.325 . S
O413 Li352 1.970 . S
O413 Li353 1.956 . S
O413 Li355 1.961 . S
O413 C362 1.325 . S
O414 Li352 1.961 . S
O414 Li354 1.956 . S
O414 Li355 1.970 . S
O414 C384 1.325 . S
O415 Li353 1.961 . S
O415 Li354 1.970 . S
O415 Li355 1.956 . S
O415 C390 1.325 . S
H416 C358 0.929 . S
H417 C359 0.930 . S
H418 C360 0.930 . S
H419 C361 0.930 . S
H420 C363 0.930 . S
H421 C365 0.929 . S
H422 C366 0.930 . S
H423 C367 0.930 . S
H424 C370 0.930 . S
H425 C373 0.929 . S
H426 C378 0.929 . S
H427 C379 0.930 . S
H428 C386 0.929 . S
H429 C387 0.930 . S
H430 C388 0.930 . S
H431 C389 0.930 . S
H432 C391 0.929 . S
H433 C392 0.930 . S
H434 C393 0.930 . S
H435 C394 0.930 . S
H436 C398 0.929 . S
H437 C400 0.930 . S
H438 C406 0.929 . S
H439 C407 0.930 . S
Li440 N457 1.990 . S
Li440 O500 1.956 . S
Li440 O501 1.970 . S
Li440 O502 1.961 . S
Li441 N465 1.990 . S
Li441 O500 1.970 . S
Li441 O501 1.956 . S
Li441 O503 1.961 . S
Li442 N487 1.990 . S
Li442 O500 1.961 . S
Li442 O502 1.956 . S
Li442 O503 1.970 . S
Li443 N493 1.990 . S
Li443 O501 1.961 . S
Li443 O502 1.970 . S
Li443 O503 1.956 . S
C444 C446 1.348 . S
C444 C447 1.356 . S
C444 O500 1.325 . S
N445 C448 1.314 . S
N445 C449 1.279 . S
C446 C444 1.348 . S
C446 C448 1.353 . S
C446 H504 0.929 . S
C447 C444 1.356 . S
C447 C449 1.358 . S
C447 H505 0.930 . S
C448 N445 1.314 . S
C448 C446 1.353 . S
C448 H506 0.930 . S
C449 N445 1.279 . S
C449 C447 1.358 . S
C449 H507 0.930 . S
C450 C453 1.348 . S
C450 C454 1.356 . S
C450 O501 1.325 . S
C451 N452 1.279 . S
C451 C454 1.358 . S
C451 H508 0.930 . S
N452 C451 1.279 . S
N452 C455 1.314 . S
C453 C450 1.348 . S
C453 C455 1.353 . S
C453 H509 0.929 . S
C454 C450 1.356 . S
C454 C451 1.358 . S
C454 H510 0.930 . S
C455 N452 1.314 . S
C455 C453 1.353 . S
C455 H511 0.930 . S
C456 N457 1.314 . S
C456 C461 1.353 . S
C456 H462 0.930 . S
N457 Li440 1.990 . S
N457 C456 1.314 . S
N457 C459 1.279 . S
C458 C459 1.358 . S
C458 C460 1.356 . S
C458 H512 0.930 . S
C459 N457 1.279 . S
C459 C458 1.358 . S
C459 H463 0.930 . S
C460 C458 1.356 . S
C460 C461 1.348 . S
C461 C456 1.353 . S
C461 C460 1.348 . S
C461 H513 0.929 . S
H462 C456 0.930 . S
H463 C459 0.930 . S
C464 N465 1.314 . S
C464 C466 1.353 . S
C464 H470 0.930 . S
N465 Li441 1.990 . S
N465 C464 1.314 . S
N465 C468 1.279 . S
C466 C464 1.353 . S
C466 C469 1.348 . S
C466 H514 0.929 . S
C467 C468 1.358 . S
C467 C469 1.356 . S
C467 H515 0.930 . S
C468 N465 1.279 . S
C468 C467 1.358 . S
C468 H471 0.930 . S
C469 C466 1.348 . S
C469 C467 1.356 . S
H470 C464 0.930 . S
H471 C468 0.930 . S
C472 C474 1.348 . S
C472 C475 1.356 . S
C472 O502 1.325 . S
N473 C476 1.314 . S
N473 C477 1.279 . S
C474 C472 1.348 . S
C474 C476 1.353 . S
C474 H516 0.929 . S
C475 C472 1.356 . S
C475 C477 1.358 . S
C475 H517 0.930 . S
C476 N473 1.314 . S
C476 C474 1.353 . S
C476 H518 0.930 . S
C477 N473 1.279 . S
C477 C475 1.358 . S
C477 H519 0.930 . S
C478 C479 1.348 . S
C478 C480 1.356 . S
C478 O503 1.325 . S
C479 C478 1.348 . S
C479 C481 1.353 . S
C479 H520 0.929 . S
C480 C478 1.356 . S
C480 C482 1.358 . S
C480 H521 0.930 . S
C481 C479 1.353 . S
C481 N483 1.314 . S
C481 H522 0.930 . S
C482 C480 1.358 . S
C482 N483 1.279 . S
C482 H523 0.930 . S
N483 C481 1.314 . S
N483 C482 1.279 . S
C484 C486 1.353 . S
C484 N487 1.314 . S
C484 H490 0.930 . S
C485 N487 1.279 . S
C485 C488 1.358 . S
C485 H491 0.930 . S
C486 C484 1.353 . S
C486 C489 1.348 . S
C486 H524 0.929 . S
N487 Li442 1.990 . S
N487 C484 1.314 . S
N487 C485 1.279 . S
C488 C485 1.358 . S
C488 C489 1.356 . S
C488 H525 0.930 . S
C489 C486 1.348 . S
C489 C488 1.356 . S
H490 C484 0.930 . S
H491 C485 0.930 . S
C492 N493 1.314 . S
C492 C494 1.353 . S
C492 H498 0.930 . S
N493 Li443 1.990 . S
N493 C492 1.314 . S
N493 C496 1.279 . S
C494 C492 1.353 . S
C494 C497 1.348 . S
C494 H526 0.929 . S
C495 C496 1.358 . S
C495 C497 1.356 . S
C495 H527 0.930 . S
C496 N493 1.279 . S
C496 C495 1.358 . S
C496 H499 0.930 . S
C497 C494 1.348 . S
C497 C495 1.356 . S
H498 C492 0.930 . S
H499 C496 0.930 . S
O500 Li440 1.956 . S
O500 Li441 1.970 . S
O500 Li442 1.961 . S
O500 C444 1.325 . S
O501 Li440 1.970 . S
O501 Li441 1.956 . S
O501 Li443 1.961 . S
O501 C450 1.325 . S
O502 Li440 1.961 . S
O502 Li442 1.956 . S
O502 Li443 1.970 . S
O502 C472 1.325 . S
O503 Li441 1.961 . S
O503 Li442 1.970 . S
O503 Li443 1.956 . S
O503 C478 1.325 . S
H504 C446 0.929 . S
H505 C447 0.930 . S
H506 C448 0.930 . S
H507 C449 0.930 . S
H508 C451 0.930 . S
H509 C453 0.929 . S
H510 C454 0.930 . S
H511 C455 0.930 . S
H512 C458 0.930 . S
H513 C461 0.929 . S
H514 C466 0.929 . S
H515 C467 0.930 . S
H516 C474 0.929 . S
H517 C475 0.930 . S
H518 C476 0.930 . S
H519 C477 0.930 . S
H520 C479 0.929 . S
H521 C480 0.930 . S
H522 C481 0.930 . S
H523 C482 0.930 . S
H524 C486 0.929 . S
H525 C488 0.930 . S
H526 C494 0.929 . S
H527 C495 0.930 . S
Li528 N545 1.990 . S
Li528 O588 1.956 . S
Li528 O589 1.970 . S
Li528 O590 1.961 . S
Li529 N553 1.990 . S
Li529 O588 1.970 . S
Li529 O589 1.956 . S
Li529 O591 1.961 . S
Li530 N575 1.990 . S
Li530 O588 1.961 . S
Li530 O590 1.956 . S
Li530 O591 1.970 . S
Li531 N581 1.990 . S
Li531 O589 1.961 . S
Li531 O590 1.970 . S
Li531 O591 1.956 . S
C532 C534 1.348 . S
C532 C535 1.356 . S
C532 O588 1.325 . S
N533 C536 1.314 . S
N533 C537 1.279 . S
C534 C532 1.348 . S
C534 C536 1.353 . S
C534 H592 0.929 . S
C535 C532 1.356 . S
C535 C537 1.358 . S
C535 H593 0.930 . S
C536 N533 1.314 . S
C536 C534 1.353 . S
C536 H594 0.930 . S
C537 N533 1.279 . S
C537 C535 1.358 . S
C537 H595 0.930 . S
C538 C541 1.348 . S
C538 C542 1.356 . S
C538 O589 1.325 . S
C539 N540 1.279 . S
C539 C542 1.358 . S
C539 H596 0.930 . S
N540 C539 1.279 . S
N540 C543 1.314 . S
C541 C538 1.348 . S
C541 C543 1.353 . S
C541 H597 0.929 . S
C542 C538 1.356 . S
C542 C539 1.358 . S
C542 H598 0.930 . S
C543 N540 1.314 . S
C543 C541 1.353 . S
C543 H599 0.930 . S
C544 N545 1.314 . S
C544 C549 1.353 . S
C544 H550 0.930 . S
N545 Li528 1.990 . S
N545 C544 1.314 . S
N545 C547 1.279 . S
C546 C547 1.358 . S
C546 C548 1.356 . S
C546 H600 0.930 . S
C547 N545 1.279 . S
C547 C546 1.358 . S
C547 H551 0.930 . S
C548 C546 1.356 . S
C548 C549 1.348 . S
C549 C544 1.353 . S
C549 C548 1.348 . S
C549 H601 0.929 . S
H550 C544 0.930 . S
H551 C547 0.930 . S
C552 N553 1.314 . S
C552 C554 1.353 . S
C552 H558 0.930 . S
N553 Li529 1.990 . S
N553 C552 1.314 . S
N553 C556 1.279 . S
C554 C552 1.353 . S
C554 C557 1.348 . S
C554 H602 0.929 . S
C555 C556 1.358 . S
C555 C557 1.356 . S
C555 H603 0.930 . S
C556 N553 1.279 . S
C556 C555 1.358 . S
C556 H559 0.930 . S
C557 C554 1.348 . S
C557 C555 1.356 . S
H558 C552 0.930 . S
H559 C556 0.930 . S
C560 C562 1.348 . S
C560 C563 1.356 . S
C560 O590 1.325 . S
N561 C564 1.314 . S
N561 C565 1.279 . S
C562 C560 1.348 . S
C562 C564 1.353 . S
C562 H604 0.929 . S
C563 C560 1.356 . S
C563 C565 1.358 . S
C563 H605 0.930 . S
C564 N561 1.314 . S
C564 C562 1.353 . S
C564 H606 0.930 . S
C565 N561 1.279 . S
C565 C563 1.358 . S
C565 H607 0.930 . S
C566 C567 1.348 . S
C566 C568 1.356 . S
C566 O591 1.325 . S
C567 C566 1.348 . S
C567 C569 1.353 . S
C567 H608 0.929 . S
C568 C566 1.356 . S
C568 C570 1.358 . S
C568 H609 0.930 . S
C569 C567 1.353 . S
C569 N571 1.314 . S
C569 H610 0.930 . S
C570 C568 1.358 . S
C570 N571 1.279 . S
C570 H611 0.930 . S
N571 C569 1.314 . S
N571 C570 1.279 . S
C572 C574 1.353 . S
C572 N575 1.314 . S
C572 H578 0.930 . S
C573 N575 1.279 . S
C573 C576 1.358 . S
C573 H579 0.930 . S
C574 C572 1.353 . S
C574 C577 1.348 . S
C574 H612 0.929 . S
N575 Li530 1.990 . S
N575 C572 1.314 . S
N575 C573 1.279 . S
C576 C573 1.358 . S
C576 C577 1.356 . S
C576 H613 0.930 . S
C577 C574 1.348 . S
C577 C576 1.356 . S
H578 C572 0.930 . S
H579 C573 0.930 . S
C580 N581 1.314 . S
C580 C582 1.353 . S
C580 H586 0.930 . S
N581 Li531 1.990 . S
N581 C580 1.314 . S
N581 C584 1.279 . S
C582 C580 1.353 . S
C582 C585 1.348 . S
C582 H614 0.929 . S
C583 C584 1.358 . S
C583 C585 1.356 . S
C583 H615 0.930 . S
C584 N581 1.279 . S
C584 C583 1.358 . S
C584 H587 0.930 . S
C585 C582 1.348 . S
C585 C583 1.356 . S
H586 C580 0.930 . S
H587 C584 0.930 . S
O588 Li528 1.956 . S
O588 Li529 1.970 . S
O588 Li530 1.961 . S
O588 C532 1.325 . S
O589 Li528 1.970 . S
O589 Li529 1.956 . S
O589 Li531 1.961 . S
O589 C538 1.325 . S
O590 Li528 1.961 . S
O590 Li530 1.956 . S
O590 Li531 1.970 . S
O590 C560 1.325 . S
O591 Li529 1.961 . S
O591 Li530 1.970 . S
O591 Li531 1.956 . S
O591 C566 1.325 . S
H592 C534 0.929 . S
H593 C535 0.930 . S
H594 C536 0.930 . S
H595 C537 0.930 . S
H596 C539 0.930 . S
H597 C541 0.929 . S
H598 C542 0.930 . S
H599 C543 0.930 . S
H600 C546 0.930 . S
H601 C549 0.929 . S
H602 C554 0.929 . S
H603 C555 0.930 . S
H604 C562 0.929 . S
H605 C563 0.930 . S
H606 C564 0.930 . S
H607 C565 0.930 . S
H608 C567 0.929 . S
H609 C568 0.930 . S
H610 C569 0.930 . S
H611 C570 0.930 . S
H612 C574 0.929 . S
H613 C576 0.930 . S
H614 C582 0.929 . S
H615 C583 0.930 . S
Li616 N633 1.990 . S
Li616 O676 1.956 . S
Li616 O677 1.970 . S
Li616 O678 1.961 . S
Li617 N641 1.990 . S
Li617 O676 1.970 . S
Li617 O677 1.956 . S
Li617 O679 1.961 . S
Li618 N663 1.990 . S
Li618 O676 1.961 . S
Li618 O678 1.956 . S
Li618 O679 1.970 . S
Li619 N669 1.990 . S
Li619 O677 1.961 . S
Li619 O678 1.970 . S
Li619 O679 1.956 . S
C620 C622 1.348 . S
C620 C623 1.356 . S
C620 O676 1.325 . S
N621 C624 1.314 . S
N621 C625 1.279 . S
C622 C620 1.348 . S
C622 C624 1.353 . S
C622 H680 0.929 . S
C623 C620 1.356 . S
C623 C625 1.358 . S
C623 H681 0.930 . S
C624 N621 1.314 . S
C624 C622 1.353 . S
C624 H682 0.930 . S
C625 N621 1.279 . S
C625 C623 1.358 . S
C625 H683 0.930 . S
C626 C629 1.348 . S
C626 C630 1.356 . S
C626 O677 1.325 . S
C627 N628 1.279 . S
C627 C630 1.358 . S
C627 H684 0.930 . S
N628 C627 1.279 . S
N628 C631 1.314 . S
C629 C626 1.348 . S
C629 C631 1.353 . S
C629 H685 0.929 . S
C630 C626 1.356 . S
C630 C627 1.358 . S
C630 H686 0.930 . S
C631 N628 1.314 . S
C631 C629 1.353 . S
C631 H687 0.930 . S
C632 N633 1.314 . S
C632 C637 1.353 . S
C632 H638 0.930 . S
N633 Li616 1.990 . S
N633 C632 1.314 . S
N633 C635 1.279 . S
C634 C635 1.358 . S
C634 C636 1.356 . S
C634 H688 0.930 . S
C635 N633 1.279 . S
C635 C634 1.358 . S
C635 H639 0.930 . S
C636 C634 1.356 . S
C636 C637 1.348 . S
C637 C632 1.353 . S
C637 C636 1.348 . S
C637 H689 0.929 . S
H638 C632 0.930 . S
H639 C635 0.930 . S
C640 N641 1.314 . S
C640 C642 1.353 . S
C640 H646 0.930 . S
N641 Li617 1.990 . S
N641 C640 1.314 . S
N641 C644 1.279 . S
C642 C640 1.353 . S
C642 C645 1.348 . S
C642 H690 0.929 . S
C643 C644 1.358 . S
C643 C645 1.356 . S
C643 H691 0.930 . S
C644 N641 1.279 . S
C644 C643 1.358 . S
C644 H647 0.930 . S
C645 C642 1.348 . S
C645 C643 1.356 . S
H646 C640 0.930 . S
H647 C644 0.930 . S
C648 C650 1.348 . S
C648 C651 1.356 . S
C648 O678 1.325 . S
N649 C652 1.314 . S
N649 C653 1.279 . S
C650 C648 1.348 . S
C650 C652 1.353 . S
C650 H692 0.929 . S
C651 C648 1.356 . S
C651 C653 1.358 . S
C651 H693 0.930 . S
C652 N649 1.314 . S
C652 C650 1.353 . S
C652 H694 0.930 . S
C653 N649 1.279 . S
C653 C651 1.358 . S
C653 H695 0.930 . S
C654 C655 1.348 . S
C654 C656 1.356 . S
C654 O679 1.325 . S
C655 C654 1.348 . S
C655 C657 1.353 . S
C655 H696 0.929 . S
C656 C654 1.356 . S
C656 C658 1.358 . S
C656 H697 0.930 . S
C657 C655 1.353 . S
C657 N659 1.314 . S
C657 H698 0.930 . S
C658 C656 1.358 . S
C658 N659 1.279 . S
C658 H699 0.930 . S
N659 C657 1.314 . S
N659 C658 1.279 . S
C660 C662 1.353 . S
C660 N663 1.314 . S
C660 H666 0.930 . S
C661 N663 1.279 . S
C661 C664 1.358 . S
C661 H667 0.930 . S
C662 C660 1.353 . S
C662 C665 1.348 . S
C662 H700 0.929 . S
N663 Li618 1.990 . S
N663 C660 1.314 . S
N663 C661 1.279 . S
C664 C661 1.358 . S
C664 C665 1.356 . S
C664 H701 0.930 . S
C665 C662 1.348 . S
C665 C664 1.356 . S
H666 C660 0.930 . S
H667 C661 0.930 . S
C668 N669 1.314 . S
C668 C670 1.353 . S
C668 H674 0.930 . S
N669 Li619 1.990 . S
N669 C668 1.314 . S
N669 C672 1.279 . S
C670 C668 1.353 . S
C670 C673 1.348 . S
C670 H702 0.929 . S
C671 C672 1.358 . S
C671 C673 1.356 . S
C671 H703 0.930 . S
C672 N669 1.279 . S
C672 C671 1.358 . S
C672 H675 0.930 . S
C673 C670 1.348 . S
C673 C671 1.356 . S
H674 C668 0.930 . S
H675 C672 0.930 . S
O676 Li616 1.956 . S
O676 Li617 1.970 . S
O676 Li618 1.961 . S
O676 C620 1.325 . S
O677 Li616 1.970 . S
O677 Li617 1.956 . S
O677 Li619 1.961 . S
O677 C626 1.325 . S
O678 Li616 1.961 . S
O678 Li618 1.956 . S
O678 Li619 1.970 . S
O678 C648 1.325 . S
O679 Li617 1.961 . S
O679 Li618 1.970 . S
O679 Li619 1.956 . S
O679 C654 1.325 . S
H680 C622 0.929 . S
H681 C623 0.930 . S
H682 C624 0.930 . S
H683 C625 0.930 . S
H684 C627 0.930 . S
H685 C629 0.929 . S
H686 C630 0.930 . S
H687 C631 0.930 . S
H688 C634 0.930 . S
H689 C637 0.929 . S
H690 C642 0.929 . S
H691 C643 0.930 . S
H692 C650 0.929 . S
H693 C651 0.930 . S
H694 C652 0.930 . S
H695 C653 0.930 . S
H696 C655 0.929 . S
H697 C656 0.930 . S
H698 C657 0.930 . S
H699 C658 0.930 . S
H700 C662 0.929 . S
H701 C664 0.930 . S
H702 C670 0.929 . S
H703 C671 0.930 . S
Li704 N721 1.990 . S
Li704 O764 1.956 . S
Li704 O765 1.970 . S
Li704 O766 1.961 . S
Li705 N729 1.990 . S
Li705 O764 1.970 . S
Li705 O765 1.956 . S
Li705 O767 1.961 . S
Li706 N751 1.990 . S
Li706 O764 1.961 . S
Li706 O766 1.956 . S
Li706 O767 1.970 . S
Li707 N757 1.990 . S
Li707 O765 1.961 . S
Li707 O766 1.970 . S
Li707 O767 1.956 . S
C708 C710 1.348 . S
C708 C711 1.356 . S
C708 O764 1.325 . S
N709 C712 1.314 . S
N709 C713 1.279 . S
C710 C708 1.348 . S
C710 C712 1.353 . S
C710 H768 0.929 . S
C711 C708 1.356 . S
C711 C713 1.358 . S
C711 H769 0.930 . S
C712 N709 1.314 . S
C712 C710 1.353 . S
C712 H770 0.930 . S
C713 N709 1.279 . S
C713 C711 1.358 . S
C713 H771 0.930 . S
C714 C717 1.348 . S
C714 C718 1.356 . S
C714 O765 1.325 . S
C715 N716 1.279 . S
C715 C718 1.358 . S
C715 H772 0.930 . S
N716 C715 1.279 . S
N716 C719 1.314 . S
C717 C714 1.348 . S
C717 C719 1.353 . S
C717 H773 0.929 . S
C718 C714 1.356 . S
C718 C715 1.358 . S
C718 H774 0.930 . S
C719 N716 1.314 . S
C719 C717 1.353 . S
C719 H775 0.930 . S
C720 N721 1.314 . S
C720 C725 1.353 . S
C720 H726 0.930 . S
N721 Li704 1.990 . S
N721 C720 1.314 . S
N721 C723 1.279 . S
C722 C723 1.358 . S
C722 C724 1.356 . S
C722 H776 0.930 . S
C723 N721 1.279 . S
C723 C722 1.358 . S
C723 H727 0.930 . S
C724 C722 1.356 . S
C724 C725 1.348 . S
C725 C720 1.353 . S
C725 C724 1.348 . S
C725 H777 0.929 . S
H726 C720 0.930 . S
H727 C723 0.930 . S
C728 N729 1.314 . S
C728 C730 1.353 . S
C728 H734 0.930 . S
N729 Li705 1.990 . S
N729 C728 1.314 . S
N729 C732 1.279 . S
C730 C728 1.353 . S
C730 C733 1.348 . S
C730 H778 0.929 . S
C731 C732 1.358 . S
C731 C733 1.356 . S
C731 H779 0.930 . S
C732 N729 1.279 . S
C732 C731 1.358 . S
C732 H735 0.930 . S
C733 C730 1.348 . S
C733 C731 1.356 . S
H734 C728 0.930 . S
H735 C732 0.930 . S
C736 C738 1.348 . S
C736 C739 1.356 . S
C736 O766 1.325 . S
N737 C740 1.314 . S
N737 C741 1.279 . S
C738 C736 1.348 . S
C738 C740 1.353 . S
C738 H780 0.929 . S
C739 C736 1.356 . S
C739 C741 1.358 . S
C739 H781 0.930 . S
C740 N737 1.314 . S
C740 C738 1.353 . S
C740 H782 0.930 . S
C741 N737 1.279 . S
C741 C739 1.358 . S
C741 H783 0.930 . S
C742 C743 1.348 . S
C742 C744 1.356 . S
C742 O767 1.325 . S
C743 C742 1.348 . S
C743 C745 1.353 . S
C743 H784 0.929 . S
C744 C742 1.356 . S
C744 C746 1.358 . S
C744 H785 0.930 . S
C745 C743 1.353 . S
C745 N747 1.314 . S
C745 H786 0.930 . S
C746 C744 1.358 . S
C746 N747 1.279 . S
C746 H787 0.930 . S
N747 C745 1.314 . S
N747 C746 1.279 . S
C748 C750 1.353 . S
C748 N751 1.314 . S
C748 H754 0.930 . S
C749 N751 1.279 . S
C749 C752 1.358 . S
C749 H755 0.930 . S
C750 C748 1.353 . S
C750 C753 1.348 . S
C750 H788 0.929 . S
N751 Li706 1.990 . S
N751 C748 1.314 . S
N751 C749 1.279 . S
C752 C749 1.358 . S
C752 C753 1.356 . S
C752 H789 0.930 . S
C753 C750 1.348 . S
C753 C752 1.356 . S
H754 C748 0.930 . S
H755 C749 0.930 . S
C756 N757 1.314 . S
C756 C758 1.353 . S
C756 H762 0.930 . S
N757 Li707 1.990 . S
N757 C756 1.314 . S
N757 C760 1.279 . S
C758 C756 1.353 . S
C758 C761 1.348 . S
C758 H790 0.929 . S
C759 C760 1.358 . S
C759 C761 1.356 . S
C759 H791 0.930 . S
C760 N757 1.279 . S
C760 C759 1.358 . S
C760 H763 0.930 . S
C761 C758 1.348 . S
C761 C759 1.356 . S
H762 C756 0.930 . S
H763 C760 0.930 . S
O764 Li704 1.956 . S
O764 Li705 1.970 . S
O764 Li706 1.961 . S
O764 C708 1.325 . S
O765 Li704 1.970 . S
O765 Li705 1.956 . S
O765 Li707 1.961 . S
O765 C714 1.325 . S
O766 Li704 1.961 . S
O766 Li706 1.956 . S
O766 Li707 1.970 . S
O766 C736 1.325 . S
O767 Li705 1.961 . S
O767 Li706 1.970 . S
O767 Li707 1.956 . S
O767 C742 1.325 . S
H768 C710 0.929 . S
H769 C711 0.930 . S
H770 C712 0.930 . S
H771 C713 0.930 . S
H772 C715 0.930 . S
H773 C717 0.929 . S
H774 C718 0.930 . S
H775 C719 0.930 . S
H776 C722 0.930 . S
H777 C725 0.929 . S
H778 C730 0.929 . S
H779 C731 0.930 . S
H780 C738 0.929 . S
H781 C739 0.930 . S
H782 C740 0.930 . S
H783 C741 0.930 . S
H784 C743 0.929 . S
H785 C744 0.930 . S
H786 C745 0.930 . S
H787 C746 0.930 . S
H788 C750 0.929 . S
H789 C752 0.930 . S
H790 C758 0.929 . S
H791 C759 0.930 . S
Li792 N809 1.990 . S
Li792 O852 1.956 . S
Li792 O853 1.970 . S
Li792 O854 1.961 . S
Li793 N817 1.990 . S
Li793 O852 1.970 . S
Li793 O853 1.956 . S
Li793 O855 1.961 . S
Li794 N839 1.990 . S
Li794 O852 1.961 . S
Li794 O854 1.956 . S
Li794 O855 1.970 . S
Li795 N845 1.990 . S
Li795 O853 1.961 . S
Li795 O854 1.970 . S
Li795 O855 1.956 . S
C796 C798 1.348 . S
C796 C799 1.356 . S
C796 O852 1.325 . S
N797 C800 1.314 . S
N797 C801 1.279 . S
C798 C796 1.348 . S
C798 C800 1.353 . S
C798 H856 0.929 . S
C799 C796 1.356 . S
C799 C801 1.358 . S
C799 H857 0.930 . S
C800 N797 1.314 . S
C800 C798 1.353 . S
C800 H858 0.930 . S
C801 N797 1.279 . S
C801 C799 1.358 . S
C801 H859 0.930 . S
C802 C805 1.348 . S
C802 C806 1.356 . S
C802 O853 1.325 . S
C803 N804 1.279 . S
C803 C806 1.358 . S
C803 H860 0.930 . S
N804 C803 1.279 . S
N804 C807 1.314 . S
C805 C802 1.348 . S
C805 C807 1.353 . S
C805 H861 0.929 . S
C806 C802 1.356 . S
C806 C803 1.358 . S
C806 H862 0.930 . S
C807 N804 1.314 . S
C807 C805 1.353 . S
C807 H863 0.930 . S
C808 N809 1.314 . S
C808 C813 1.353 . S
C808 H814 0.930 . S
N809 Li792 1.990 . S
N809 C808 1.314 . S
N809 C811 1.279 . S
C810 C811 1.358 . S
C810 C812 1.356 . S
C810 H864 0.930 . S
C811 N809 1.279 . S
C811 C810 1.358 . S
C811 H815 0.930 . S
C812 C810 1.356 . S
C812 C813 1.348 . S
C813 C808 1.353 . S
C813 C812 1.348 . S
C813 H865 0.929 . S
H814 C808 0.930 . S
H815 C811 0.930 . S
C816 N817 1.314 . S
C816 C818 1.353 . S
C816 H822 0.930 . S
N817 Li793 1.990 . S
N817 C816 1.314 . S
N817 C820 1.279 . S
C818 C816 1.353 . S
C818 C821 1.348 . S
C818 H866 0.929 . S
C819 C820 1.358 . S
C819 C821 1.356 . S
C819 H867 0.930 . S
C820 N817 1.279 . S
C820 C819 1.358 . S
C820 H823 0.930 . S
C821 C818 1.348 . S
C821 C819 1.356 . S
H822 C816 0.930 . S
H823 C820 0.930 . S
C824 C826 1.348 . S
C824 C827 1.356 . S
C824 O854 1.325 . S
N825 C828 1.314 . S
N825 C829 1.279 . S
C826 C824 1.348 . S
C826 C828 1.353 . S
C826 H868 0.929 . S
C827 C824 1.356 . S
C827 C829 1.358 . S
C827 H869 0.930 . S
C828 N825 1.314 . S
C828 C826 1.353 . S
C828 H870 0.930 . S
C829 N825 1.279 . S
C829 C827 1.358 . S
C829 H871 0.930 . S
C830 C831 1.348 . S
C830 C832 1.356 . S
C830 O855 1.325 . S
C831 C830 1.348 . S
C831 C833 1.353 . S
C831 H872 0.929 . S
C832 C830 1.356 . S
C832 C834 1.358 . S
C832 H873 0.930 . S
C833 C831 1.353 . S
C833 N835 1.314 . S
C833 H874 0.930 . S
C834 C832 1.358 . S
C834 N835 1.279 . S
C834 H875 0.930 . S
N835 C833 1.314 . S
N835 C834 1.279 . S
C836 C838 1.353 . S
C836 N839 1.314 . S
C836 H842 0.930 . S
C837 N839 1.279 . S
C837 C840 1.358 . S
C837 H843 0.930 . S
C838 C836 1.353 . S
C838 C841 1.348 . S
C838 H876 0.929 . S
N839 Li794 1.990 . S
N839 C836 1.314 . S
N839 C837 1.279 . S
C840 C837 1.358 . S
C840 C841 1.356 . S
C840 H877 0.930 . S
C841 C838 1.348 . S
C841 C840 1.356 . S
H842 C836 0.930 . S
H843 C837 0.930 . S
C844 N845 1.314 . S
C844 C846 1.353 . S
C844 H850 0.930 . S
N845 Li795 1.990 . S
N845 C844 1.314 . S
N845 C848 1.279 . S
C846 C844 1.353 . S
C846 C849 1.348 . S
C846 H878 0.929 . S
C847 C848 1.358 . S
C847 C849 1.356 . S
C847 H879 0.930 . S
C848 N845 1.279 . S
C848 C847 1.358 . S
C848 H851 0.930 . S
C849 C846 1.348 . S
C849 C847 1.356 . S
H850 C844 0.930 . S
H851 C848 0.930 . S
O852 Li792 1.956 . S
O852 Li793 1.970 . S
O852 Li794 1.961 . S
O852 C796 1.325 . S
O853 Li792 1.970 . S
O853 Li793 1.956 . S
O853 Li795 1.961 . S
O853 C802 1.325 . S
O854 Li792 1.961 . S
O854 Li794 1.956 . S
O854 Li795 1.970 . S
O854 C824 1.325 . S
O855 Li793 1.961 . S
O855 Li794 1.970 . S
O855 Li795 1.956 . S
O855 C830 1.325 . S
H856 C798 0.929 . S
H857 C799 0.930 . S
H858 C800 0.930 . S
H859 C801 0.930 . S
H860 C803 0.930 . S
H861 C805 0.929 . S
H862 C806 0.930 . S
H863 C807 0.930 . S
H864 C810 0.930 . S
H865 C813 0.929 . S
H866 C818 0.929 . S
H867 C819 0.930 . S
H868 C826 0.929 . S
H869 C827 0.930 . S
H870 C828 0.930 . S
H871 C829 0.930 . S
H872 C831 0.929 . S
H873 C832 0.930 . S
H874 C833 0.930 . S
H875 C834 0.930 . S
H876 C838 0.929 . S
H877 C840 0.930 . S
H878 C846 0.929 . S
H879 C847 0.930 . S
Li880 N897 1.990 . S
Li880 O940 1.956 . S
Li880 O941 1.970 . S
Li880 O942 1.961 . S
Li881 N905 1.990 . S
Li881 O940 1.970 . S
Li881 O941 1.956 . S
Li881 O943 1.961 . S
Li882 N927 1.990 . S
Li882 O940 1.961 . S
Li882 O942 1.956 . S
Li882 O943 1.970 . S
Li883 N933 1.990 . S
Li883 O941 1.961 . S
Li883 O942 1.970 . S
Li883 O943 1.956 . S
C884 C886 1.348 . S
C884 C887 1.356 . S
C884 O940 1.325 . S
N885 C888 1.314 . S
N885 C889 1.279 . S
C886 C884 1.348 . S
C886 C888 1.353 . S
C886 H944 0.929 . S
C887 C884 1.356 . S
C887 C889 1.358 . S
C887 H945 0.930 . S
C888 N885 1.314 . S
C888 C886 1.353 . S
C888 H946 0.930 . S
C889 N885 1.279 . S
C889 C887 1.358 . S
C889 H947 0.930 . S
C890 C893 1.348 . S
C890 C894 1.356 . S
C890 O941 1.325 . S
C891 N892 1.279 . S
C891 C894 1.358 . S
C891 H948 0.930 . S
N892 C891 1.279 . S
N892 C895 1.314 . S
C893 C890 1.348 . S
C893 C895 1.353 . S
C893 H949 0.929 . S
C894 C890 1.356 . S
C894 C891 1.358 . S
C894 H950 0.930 . S
C895 N892 1.314 . S
C895 C893 1.353 . S
C895 H951 0.930 . S
C896 N897 1.314 . S
C896 C901 1.353 . S
C896 H902 0.930 . S
N897 Li880 1.990 . S
N897 C896 1.314 . S
N897 C899 1.279 . S
C898 C899 1.358 . S
C898 C900 1.356 . S
C898 H952 0.930 . S
C899 N897 1.279 . S
C899 C898 1.358 . S
C899 H903 0.930 . S
C900 C898 1.356 . S
C900 C901 1.348 . S
C901 C896 1.353 . S
C901 C900 1.348 . S
C901 H953 0.929 . S
H902 C896 0.930 . S
H903 C899 0.930 . S
C904 N905 1.314 . S
C904 C906 1.353 . S
C904 H910 0.930 . S
N905 Li881 1.990 . S
N905 C904 1.314 . S
N905 C908 1.279 . S
C906 C904 1.353 . S
C906 C909 1.348 . S
C906 H954 0.929 . S
C907 C908 1.358 . S
C907 C909 1.356 . S
C907 H955 0.930 . S
C908 N905 1.279 . S
C908 C907 1.358 . S
C908 H911 0.930 . S
C909 C906 1.348 . S
C909 C907 1.356 . S
H910 C904 0.930 . S
H911 C908 0.930 . S
C912 C914 1.348 . S
C912 C915 1.356 . S
C912 O942 1.325 . S
N913 C916 1.314 . S
N913 C917 1.279 . S
C914 C912 1.348 . S
C914 C916 1.353 . S
C914 H956 0.929 . S
C915 C912 1.356 . S
C915 C917 1.358 . S
C915 H957 0.930 . S
C916 N913 1.314 . S
C916 C914 1.353 . S
C916 H958 0.930 . S
C917 N913 1.279 . S
C917 C915 1.358 . S
C917 H959 0.930 . S
C918 C919 1.348 . S
C918 C920 1.356 . S
C918 O943 1.325 . S
C919 C918 1.348 . S
C919 C921 1.353 . S
C919 H960 0.929 . S
C920 C918 1.356 . S
C920 C922 1.358 . S
C920 H961 0.930 . S
C921 C919 1.353 . S
C921 N923 1.314 . S
C921 H962 0.930 . S
C922 C920 1.358 . S
C922 N923 1.279 . S
C922 H963 0.930 . S
N923 C921 1.314 . S
N923 C922 1.279 . S
C924 C926 1.353 . S
C924 N927 1.314 . S
C924 H930 0.930 . S
C925 N927 1.279 . S
C925 C928 1.358 . S
C925 H931 0.930 . S
C926 C924 1.353 . S
C926 C929 1.348 . S
C926 H964 0.929 . S
N927 Li882 1.990 . S
N927 C924 1.314 . S
N927 C925 1.279 . S
C928 C925 1.358 . S
C928 C929 1.356 . S
C928 H965 0.930 . S
C929 C926 1.348 . S
C929 C928 1.356 . S
H930 C924 0.930 . S
H931 C925 0.930 . S
C932 N933 1.314 . S
C932 C934 1.353 . S
C932 H938 0.930 . S
N933 Li883 1.990 . S
N933 C932 1.314 . S
N933 C936 1.279 . S
C934 C932 1.353 . S
C934 C937 1.348 . S
C934 H966 0.929 . S
C935 C936 1.358 . S
C935 C937 1.356 . S
C935 H967 0.930 . S
C936 N933 1.279 . S
C936 C935 1.358 . S
C936 H939 0.930 . S
C937 C934 1.348 . S
C937 C935 1.356 . S
H938 C932 0.930 . S
H939 C936 0.930 . S
O940 Li880 1.956 . S
O940 Li881 1.970 . S
O940 Li882 1.961 . S
O940 C884 1.325 . S
O941 Li880 1.970 . S
O941 Li881 1.956 . S
O941 Li883 1.961 . S
O941 C890 1.325 . S
O942 Li880 1.961 . S
O942 Li882 1.956 . S
O942 Li883 1.970 . S
O942 C912 1.325 . S
O943 Li881 1.961 . S
O943 Li882 1.970 . S
O943 Li883 1.956 . S
O943 C918 1.325 . S
H944 C886 0.929 . S
H945 C887 0.930 . S
H946 C888 0.930 . S
H947 C889 0.930 . S
H948 C891 0.930 . S
H949 C893 0.929 . S
H950 C894 0.930 . S
H951 C895 0.930 . S
H952 C898 0.930 . S
H953 C901 0.929 . S
H954 C906 0.929 . S
H955 C907 0.930 . S
H956 C914 0.929 . S
H957 C915 0.930 . S
H958 C916 0.930 . S
H959 C917 0.930 . S
H960 C919 0.929 . S
H961 C920 0.930 . S
H962 C921 0.930 . S
H963 C922 0.930 . S
H964 C926 0.929 . S
H965 C928 0.930 . S
H966 C934 0.929 . S
H967 C935 0.930 . S
Li968 N985 1.990 . S
Li968 O1028 1.956 . S
Li968 O1029 1.970 . S
Li968 O1030 1.961 . S
Li969 N993 1.990 . S
Li969 O1028 1.970 . S
Li969 O1029 1.956 . S
Li969 O1031 1.961 . S
Li970 N1015 1.990 . S
Li970 O1028 1.961 . S
Li970 O1030 1.956 . S
Li970 O1031 1.970 . S
Li971 N1021 1.990 . S
Li971 O1029 1.961 . S
Li971 O1030 1.970 . S
Li971 O1031 1.956 . S
C972 C974 1.348 . S
C972 C975 1.356 . S
C972 O1028 1.325 . S
N973 C976 1.314 . S
N973 C977 1.279 . S
C974 C972 1.348 . S
C974 C976 1.353 . S
C974 H1032 0.929 . S
C975 C972 1.356 . S
C975 C977 1.358 . S
C975 H1033 0.930 . S
C976 N973 1.314 . S
C976 C974 1.353 . S
C976 H1034 0.930 . S
C977 N973 1.279 . S
C977 C975 1.358 . S
C977 H1035 0.930 . S
C978 C981 1.348 . S
C978 C982 1.356 . S
C978 O1029 1.325 . S
C979 N980 1.279 . S
C979 C982 1.358 . S
C979 H1036 0.930 . S
N980 C979 1.279 . S
N980 C983 1.314 . S
C981 C978 1.348 . S
C981 C983 1.353 . S
C981 H1037 0.929 . S
C982 C978 1.356 . S
C982 C979 1.358 . S
C982 H1038 0.930 . S
C983 N980 1.314 . S
C983 C981 1.353 . S
C983 H1039 0.930 . S
C984 N985 1.314 . S
C984 C989 1.353 . S
C984 H990 0.930 . S
N985 Li968 1.990 . S
N985 C984 1.314 . S
N985 C987 1.279 . S
C986 C987 1.358 . S
C986 C988 1.356 . S
C986 H1040 0.930 . S
C987 N985 1.279 . S
C987 C986 1.358 . S
C987 H991 0.930 . S
C988 C986 1.356 . S
C988 C989 1.348 . S
C989 C984 1.353 . S
C989 C988 1.348 . S
C989 H1041 0.929 . S
H990 C984 0.930 . S
H991 C987 0.930 . S
C992 N993 1.314 . S
C992 C994 1.353 . S
C992 H998 0.930 . S
N993 Li969 1.990 . S
N993 C992 1.314 . S
N993 C996 1.279 . S
C994 C992 1.353 . S
C994 C997 1.348 . S
C994 H1042 0.929 . S
C995 C996 1.358 . S
C995 C997 1.356 . S
C995 H1043 0.930 . S
C996 N993 1.279 . S
C996 C995 1.358 . S
C996 H999 0.930 . S
C997 C994 1.348 . S
C997 C995 1.356 . S
H998 C992 0.930 . S
H999 C996 0.930 . S
C1000 C1002 1.348 . S
C1000 C1003 1.356 . S
C1000 O1030 1.325 . S
N1001 C1004 1.314 . S
N1001 C1005 1.279 . S
C1002 C1000 1.348 . S
C1002 C1004 1.353 . S
C1002 H1044 0.929 . S
C1003 C1000 1.356 . S
C1003 C1005 1.358 . S
C1003 H1045 0.930 . S
C1004 N1001 1.314 . S
C1004 C1002 1.353 . S
C1004 H1046 0.930 . S
C1005 N1001 1.279 . S
C1005 C1003 1.358 . S
C1005 H1047 0.930 . S
C1006 C1007 1.348 . S
C1006 C1008 1.356 . S
C1006 O1031 1.325 . S
C1007 C1006 1.348 . S
C1007 C1009 1.353 . S
C1007 H1048 0.929 . S
C1008 C1006 1.356 . S
C1008 C1010 1.358 . S
C1008 H1049 0.930 . S
C1009 C1007 1.353 . S
C1009 N1011 1.314 . S
C1009 H1050 0.930 . S
C1010 C1008 1.358 . S
C1010 N1011 1.279 . S
C1010 H1051 0.930 . S
N1011 C1009 1.314 . S
N1011 C1010 1.279 . S
C1012 C1014 1.353 . S
C1012 N1015 1.314 . S
C1012 H1018 0.930 . S
C1013 N1015 1.279 . S
C1013 C1016 1.358 . S
C1013 H1019 0.930 . S
C1014 C1012 1.353 . S
C1014 C1017 1.348 . S
C1014 H1052 0.929 . S
N1015 Li970 1.990 . S
N1015 C1012 1.314 . S
N1015 C1013 1.279 . S
C1016 C1013 1.358 . S
C1016 C1017 1.356 . S
C1016 H1053 0.930 . S
C1017 C1014 1.348 . S
C1017 C1016 1.356 . S
H1018 C1012 0.930 . S
H1019 C1013 0.930 . S
C1020 N1021 1.314 . S
C1020 C1022 1.353 . S
C1020 H1026 0.930 . S
N1021 Li971 1.990 . S
N1021 C1020 1.314 . S
N1021 C1024 1.279 . S
C1022 C1020 1.353 . S
C1022 C1025 1.348 . S
C1022 H1054 0.929 . S
C1023 C1024 1.358 . S
C1023 C1025 1.356 . S
C1023 H1055 0.930 . S
C1024 N1021 1.279 . S
C1024 C1023 1.358 . S
C1024 H1027 0.930 . S
C1025 C1022 1.348 . S
C1025 C1023 1.356 . S
H1026 C1020 0.930 . S
H1027 C1024 0.930 . S
O1028 Li968 1.956 . S
O1028 Li969 1.970 . S
O1028 Li970 1.961 . S
O1028 C972 1.325 . S
O1029 Li968 1.970 . S
O1029 Li969 1.956 . S
O1029 Li971 1.961 . S
O1029 C978 1.325 . S
O1030 Li968 1.961 . S
O1030 Li970 1.956 . S
O1030 Li971 1.970 . S
O1030 C1000 1.325 . S
O1031 Li969 1.961 . S
O1031 Li970 1.970 . S
O1031 Li971 1.956 . S
O1031 C1006 1.325 . S
H1032 C974 0.929 . S
H1033 C975 0.930 . S
H1034 C976 0.930 . S
H1035 C977 0.930 . S
H1036 C979 0.930 . S
H1037 C981 0.929 . S
H1038 C982 0.930 . S
H1039 C983 0.930 . S
H1040 C986 0.930 . S
H1041 C989 0.929 . S
H1042 C994 0.929 . S
H1043 C995 0.930 . S
H1044 C1002 0.929 . S
H1045 C1003 0.930 . S
H1046 C1004 0.930 . S
H1047 C1005 0.930 . S
H1048 C1007 0.929 . S
H1049 C1008 0.930 . S
H1050 C1009 0.930 . S
H1051 C1010 0.930 . S
H1052 C1014 0.929 . S
H1053 C1016 0.930 . S
H1054 C1022 0.929 . S
H1055 C1023 0.930 . S
Li1056 N1073 1.990 . S
Li1056 O1116 1.956 . S
Li1056 O1117 1.970 . S
Li1056 O1118 1.961 . S
Li1057 N1081 1.990 . S
Li1057 O1116 1.970 . S
Li1057 O1117 1.956 . S
Li1057 O1119 1.961 . S
Li1058 N1103 1.990 . S
Li1058 O1116 1.961 . S
Li1058 O1118 1.956 . S
Li1058 O1119 1.970 . S
Li1059 N1109 1.990 . S
Li1059 O1117 1.961 . S
Li1059 O1118 1.970 . S
Li1059 O1119 1.956 . S
C1060 C1062 1.348 . S
C1060 C1063 1.356 . S
C1060 O1116 1.325 . S
N1061 C1064 1.314 . S
N1061 C1065 1.279 . S
C1062 C1060 1.348 . S
C1062 C1064 1.353 . S
C1062 H1120 0.929 . S
C1063 C1060 1.356 . S
C1063 C1065 1.358 . S
C1063 H1121 0.930 . S
C1064 N1061 1.314 . S
C1064 C1062 1.353 . S
C1064 H1122 0.930 . S
C1065 N1061 1.279 . S
C1065 C1063 1.358 . S
C1065 H1123 0.930 . S
C1066 C1069 1.348 . S
C1066 C1070 1.356 . S
C1066 O1117 1.325 . S
C1067 N1068 1.279 . S
C1067 C1070 1.358 . S
C1067 H1124 0.930 . S
N1068 C1067 1.279 . S
N1068 C1071 1.314 . S
C1069 C1066 1.348 . S
C1069 C1071 1.353 . S
C1069 H1125 0.929 . S
C1070 C1066 1.356 . S
C1070 C1067 1.358 . S
C1070 H1126 0.930 . S
C1071 N1068 1.314 . S
C1071 C1069 1.353 . S
C1071 H1127 0.930 . S
C1072 N1073 1.314 . S
C1072 C1077 1.353 . S
C1072 H1078 0.930 . S
N1073 Li1056 1.990 . S
N1073 C1072 1.314 . S
N1073 C1075 1.279 . S
C1074 C1075 1.358 . S
C1074 C1076 1.356 . S
C1074 H1128 0.930 . S
C1075 N1073 1.279 . S
C1075 C1074 1.358 . S
C1075 H1079 0.930 . S
C1076 C1074 1.356 . S
C1076 C1077 1.348 . S
C1077 C1072 1.353 . S
C1077 C1076 1.348 . S
C1077 H1129 0.929 . S
H1078 C1072 0.930 . S
H1079 C1075 0.930 . S
C1080 N1081 1.314 . S
C1080 C1082 1.353 . S
C1080 H1086 0.930 . S
N1081 Li1057 1.990 . S
N1081 C1080 1.314 . S
N1081 C1084 1.279 . S
C1082 C1080 1.353 . S
C1082 C1085 1.348 . S
C1082 H1130 0.929 . S
C1083 C1084 1.358 . S
C1083 C1085 1.356 . S
C1083 H1131 0.930 . S
C1084 N1081 1.279 . S
C1084 C1083 1.358 . S
C1084 H1087 0.930 . S
C1085 C1082 1.348 . S
C1085 C1083 1.356 . S
H1086 C1080 0.930 . S
H1087 C1084 0.930 . S
C1088 C1090 1.348 . S
C1088 C1091 1.356 . S
C1088 O1118 1.325 . S
N1089 C1092 1.314 . S
N1089 C1093 1.279 . S
C1090 C1088 1.348 . S
C1090 C1092 1.353 . S
C1090 H1132 0.929 . S
C1091 C1088 1.356 . S
C1091 C1093 1.358 . S
C1091 H1133 0.930 . S
C1092 N1089 1.314 . S
C1092 C1090 1.353 . S
C1092 H1134 0.930 . S
C1093 N1089 1.279 . S
C1093 C1091 1.358 . S
C1093 H1135 0.930 . S
C1094 C1095 1.348 . S
C1094 C1096 1.356 . S
C1094 O1119 1.325 . S
C1095 C1094 1.348 . S
C1095 C1097 1.353 . S
C1095 H1136 0.929 . S
C1096 C1094 1.356 . S
C1096 C1098 1.358 . S
C1096 H1137 0.930 . S
C1097 C1095 1.353 . S
C1097 N1099 1.314 . S
C1097 H1138 0.930 . S
C1098 C1096 1.358 . S
C1098 N1099 1.279 . S
C1098 H1139 0.930 . S
N1099 C1097 1.314 . S
N1099 C1098 1.279 . S
C1100 C1102 1.353 . S
C1100 N1103 1.314 . S
C1100 H1106 0.930 . S
C1101 N1103 1.279 . S
C1101 C1104 1.358 . S
C1101 H1107 0.930 . S
C1102 C1100 1.353 . S
C1102 C1105 1.348 . S
C1102 H1140 0.929 . S
N1103 Li1058 1.990 . S
N1103 C1100 1.314 . S
N1103 C1101 1.279 . S
C1104 C1101 1.358 . S
C1104 C1105 1.356 . S
C1104 H1141 0.930 . S
C1105 C1102 1.348 . S
C1105 C1104 1.356 . S
H1106 C1100 0.930 . S
H1107 C1101 0.930 . S
C1108 N1109 1.314 . S
C1108 C1110 1.353 . S
C1108 H1114 0.930 . S
N1109 Li1059 1.990 . S
N1109 C1108 1.314 . S
N1109 C1112 1.279 . S
C1110 C1108 1.353 . S
C1110 C1113 1.348 . S
C1110 H1142 0.929 . S
C1111 C1112 1.358 . S
C1111 C1113 1.356 . S
C1111 H1143 0.930 . S
C1112 N1109 1.279 . S
C1112 C1111 1.358 . S
C1112 H1115 0.930 . S
C1113 C1110 1.348 . S
C1113 C1111 1.356 . S
H1114 C1108 0.930 . S
H1115 C1112 0.930 . S
O1116 Li1056 1.956 . S
O1116 Li1057 1.970 . S
O1116 Li1058 1.961 . S
O1116 C1060 1.325 . S
O1117 Li1056 1.970 . S
O1117 Li1057 1.956 . S
O1117 Li1059 1.961 . S
O1117 C1066 1.325 . S
O1118 Li1056 1.961 . S
O1118 Li1058 1.956 . S
O1118 Li1059 1.970 . S
O1118 C1088 1.325 . S
O1119 Li1057 1.961 . S
O1119 Li1058 1.970 . S
O1119 Li1059 1.956 . S
O1119 C1094 1.325 . S
H1120 C1062 0.929 . S
H1121 C1063 0.930 . S
H1122 C1064 0.930 . S
H1123 C1065 0.930 . S
H1124 C1067 0.930 . S
H1125 C1069 0.929 . S
H1126 C1070 0.930 . S
H1127 C1071 0.930 . S
H1128 C1074 0.930 . S
H1129 C1077 0.929 . S
H1130 C1082 0.929 . S
H1131 C1083 0.930 . S
H1132 C1090 0.929 . S
H1133 C1091 0.930 . S
H1134 C1092 0.930 . S
H1135 C1093 0.930 . S
H1136 C1095 0.929 . S
H1137 C1096 0.930 . S
H1138 C1097 0.930 . S
H1139 C1098 0.930 . S
H1140 C1102 0.929 . S
H1141 C1104 0.930 . S
H1142 C1110 0.929 . S
H1143 C1111 0.930 . S
Li1144 N1161 1.990 . S
Li1144 O1204 1.956 . S
Li1144 O1205 1.970 . S
Li1144 O1206 1.961 . S
Li1145 N1169 1.990 . S
Li1145 O1204 1.970 . S
Li1145 O1205 1.956 . S
Li1145 O1207 1.961 . S
Li1146 N1191 1.990 . S
Li1146 O1204 1.961 . S
Li1146 O1206 1.956 . S
Li1146 O1207 1.970 . S
Li1147 N1197 1.990 . S
Li1147 O1205 1.961 . S
Li1147 O1206 1.970 . S
Li1147 O1207 1.956 . S
C1148 C1150 1.348 . S
C1148 C1151 1.356 . S
C1148 O1204 1.325 . S
N1149 C1152 1.314 . S
N1149 C1153 1.279 . S
C1150 C1148 1.348 . S
C1150 C1152 1.353 . S
C1150 H1208 0.929 . S
C1151 C1148 1.356 . S
C1151 C1153 1.358 . S
C1151 H1209 0.930 . S
C1152 N1149 1.314 . S
C1152 C1150 1.353 . S
C1152 H1210 0.930 . S
C1153 N1149 1.279 . S
C1153 C1151 1.358 . S
C1153 H1211 0.930 . S
C1154 C1157 1.348 . S
C1154 C1158 1.356 . S
C1154 O1205 1.325 . S
C1155 N1156 1.279 . S
C1155 C1158 1.358 . S
C1155 H1212 0.930 . S
N1156 C1155 1.279 . S
N1156 C1159 1.314 . S
C1157 C1154 1.348 . S
C1157 C1159 1.353 . S
C1157 H1213 0.929 . S
C1158 C1154 1.356 . S
C1158 C1155 1.358 . S
C1158 H1214 0.930 . S
C1159 N1156 1.314 . S
C1159 C1157 1.353 . S
C1159 H1215 0.930 . S
C1160 N1161 1.314 . S
C1160 C1165 1.353 . S
C1160 H1166 0.930 . S
N1161 Li1144 1.990 . S
N1161 C1160 1.314 . S
N1161 C1163 1.279 . S
C1162 C1163 1.358 . S
C1162 C1164 1.356 . S
C1162 H1216 0.930 . S
C1163 N1161 1.279 . S
C1163 C1162 1.358 . S
C1163 H1167 0.930 . S
C1164 C1162 1.356 . S
C1164 C1165 1.348 . S
C1165 C1160 1.353 . S
C1165 C1164 1.348 . S
C1165 H1217 0.929 . S
H1166 C1160 0.930 . S
H1167 C1163 0.930 . S
C1168 N1169 1.314 . S
C1168 C1170 1.353 . S
C1168 H1174 0.930 . S
N1169 Li1145 1.990 . S
N1169 C1168 1.314 . S
N1169 C1172 1.279 . S
C1170 C1168 1.353 . S
C1170 C1173 1.348 . S
C1170 H1218 0.929 . S
C1171 C1172 1.358 . S
C1171 C1173 1.356 . S
C1171 H1219 0.930 . S
C1172 N1169 1.279 . S
C1172 C1171 1.358 . S
C1172 H1175 0.930 . S
C1173 C1170 1.348 . S
C1173 C1171 1.356 . S
H1174 C1168 0.930 . S
H1175 C1172 0.930 . S
C1176 C1178 1.348 . S
C1176 C1179 1.356 . S
C1176 O1206 1.325 . S
N1177 C1180 1.314 . S
N1177 C1181 1.279 . S
C1178 C1176 1.348 . S
C1178 C1180 1.353 . S
C1178 H1220 0.929 . S
C1179 C1176 1.356 . S
C1179 C1181 1.358 . S
C1179 H1221 0.930 . S
C1180 N1177 1.314 . S
C1180 C1178 1.353 . S
C1180 H1222 0.930 . S
C1181 N1177 1.279 . S
C1181 C1179 1.358 . S
C1181 H1223 0.930 . S
C1182 C1183 1.348 . S
C1182 C1184 1.356 . S
C1182 O1207 1.325 . S
C1183 C1182 1.348 . S
C1183 C1185 1.353 . S
C1183 H1224 0.929 . S
C1184 C1182 1.356 . S
C1184 C1186 1.358 . S
C1184 H1225 0.930 . S
C1185 C1183 1.353 . S
C1185 N1187 1.314 . S
C1185 H1226 0.930 . S
C1186 C1184 1.358 . S
C1186 N1187 1.279 . S
C1186 H1227 0.930 . S
N1187 C1185 1.314 . S
N1187 C1186 1.279 . S
C1188 C1190 1.353 . S
C1188 N1191 1.314 . S
C1188 H1194 0.930 . S
C1189 N1191 1.279 . S
C1189 C1192 1.358 . S
C1189 H1195 0.930 . S
C1190 C1188 1.353 . S
C1190 C1193 1.348 . S
C1190 H1228 0.929 . S
N1191 Li1146 1.990 . S
N1191 C1188 1.314 . S
N1191 C1189 1.279 . S
C1192 C1189 1.358 . S
C1192 C1193 1.356 . S
C1192 H1229 0.930 . S
C1193 C1190 1.348 . S
C1193 C1192 1.356 . S
H1194 C1188 0.930 . S
H1195 C1189 0.930 . S
C1196 N1197 1.314 . S
C1196 C1198 1.353 . S
C1196 H1202 0.930 . S
N1197 Li1147 1.990 . S
N1197 C1196 1.314 . S
N1197 C1200 1.279 . S
C1198 C1196 1.353 . S
C1198 C1201 1.348 . S
C1198 H1230 0.929 . S
C1199 C1200 1.358 . S
C1199 C1201 1.356 . S
C1199 H1231 0.930 . S
C1200 N1197 1.279 . S
C1200 C1199 1.358 . S
C1200 H1203 0.930 . S
C1201 C1198 1.348 . S
C1201 C1199 1.356 . S
H1202 C1196 0.930 . S
H1203 C1200 0.930 . S
O1204 Li1144 1.956 . S
O1204 Li1145 1.970 . S
O1204 Li1146 1.961 . S
O1204 C1148 1.325 . S
O1205 Li1144 1.970 . S
O1205 Li1145 1.956 . S
O1205 Li1147 1.961 . S
O1205 C1154 1.325 . S
O1206 Li1144 1.961 . S
O1206 Li1146 1.956 . S
O1206 Li1147 1.970 . S
O1206 C1176 1.325 . S
O1207 Li1145 1.961 . S
O1207 Li1146 1.970 . S
O1207 Li1147 1.956 . S
O1207 C1182 1.325 . S
H1208 C1150 0.929 . S
H1209 C1151 0.930 . S
H1210 C1152 0.930 . S
H1211 C1153 0.930 . S
H1212 C1155 0.930 . S
H1213 C1157 0.929 . S
H1214 C1158 0.930 . S
H1215 C1159 0.930 . S
H1216 C1162 0.930 . S
H1217 C1165 0.929 . S
H1218 C1170 0.929 . S
H1219 C1171 0.930 . S
H1220 C1178 0.929 . S
H1221 C1179 0.930 . S
H1222 C1180 0.930 . S
H1223 C1181 0.930 . S
H1224 C1183 0.929 . S
H1225 C1184 0.930 . S
H1226 C1185 0.930 . S
H1227 C1186 0.930 . S
H1228 C1190 0.929 . S
H1229 C1192 0.930 . S
H1230 C1198 0.929 . S
H1231 C1199 0.930 . S
Li1232 N1249 1.990 . S
Li1232 O1292 1.956 . S
Li1232 O1293 1.970 . S
Li1232 O1294 1.961 . S
Li1233 N1257 1.990 . S
Li1233 O1292 1.970 . S
Li1233 O1293 1.956 . S
Li1233 O1295 1.961 . S
Li1234 N1279 1.990 . S
Li1234 O1292 1.961 . S
Li1234 O1294 1.956 . S
Li1234 O1295 1.970 . S
Li1235 N1285 1.990 . S
Li1235 O1293 1.961 . S
Li1235 O1294 1.970 . S
Li1235 O1295 1.956 . S
C1236 C1238 1.348 . S
C1236 C1239 1.356 . S
C1236 O1292 1.325 . S
N1237 C1240 1.314 . S
N1237 C1241 1.279 . S
C1238 C1236 1.348 . S
C1238 C1240 1.353 . S
C1238 H1296 0.929 . S
C1239 C1236 1.356 . S
C1239 C1241 1.358 . S
C1239 H1297 0.930 . S
C1240 N1237 1.314 . S
C1240 C1238 1.353 . S
C1240 H1298 0.930 . S
C1241 N1237 1.279 . S
C1241 C1239 1.358 . S
C1241 H1299 0.930 . S
C1242 C1245 1.348 . S
C1242 C1246 1.356 . S
C1242 O1293 1.325 . S
C1243 N1244 1.279 . S
C1243 C1246 1.358 . S
C1243 H1300 0.930 . S
N1244 C1243 1.279 . S
N1244 C1247 1.314 . S
C1245 C1242 1.348 . S
C1245 C1247 1.353 . S
C1245 H1301 0.929 . S
C1246 C1242 1.356 . S
C1246 C1243 1.358 . S
C1246 H1302 0.930 . S
C1247 N1244 1.314 . S
C1247 C1245 1.353 . S
C1247 H1303 0.930 . S
C1248 N1249 1.314 . S
C1248 C1253 1.353 . S
C1248 H1254 0.930 . S
N1249 Li1232 1.990 . S
N1249 C1248 1.314 . S
N1249 C1251 1.279 . S
C1250 C1251 1.358 . S
C1250 C1252 1.356 . S
C1250 H1304 0.930 . S
C1251 N1249 1.279 . S
C1251 C1250 1.358 . S
C1251 H1255 0.930 . S
C1252 C1250 1.356 . S
C1252 C1253 1.348 . S
C1253 C1248 1.353 . S
C1253 C1252 1.348 . S
C1253 H1305 0.929 . S
H1254 C1248 0.930 . S
H1255 C1251 0.930 . S
C1256 N1257 1.314 . S
C1256 C1258 1.353 . S
C1256 H1262 0.930 . S
N1257 Li1233 1.990 . S
N1257 C1256 1.314 . S
N1257 C1260 1.279 . S
C1258 C1256 1.353 . S
C1258 C1261 1.348 . S
C1258 H1306 0.929 . S
C1259 C1260 1.358 . S
C1259 C1261 1.356 . S
C1259 H1307 0.930 . S
C1260 N1257 1.279 . S
C1260 C1259 1.358 . S
C1260 H1263 0.930 . S
C1261 C1258 1.348 . S
C1261 C1259 1.356 . S
H1262 C1256 0.930 . S
H1263 C1260 0.930 . S
C1264 C1266 1.348 . S
C1264 C1267 1.356 . S
C1264 O1294 1.325 . S
N1265 C1268 1.314 . S
N1265 C1269 1.279 . S
C1266 C1264 1.348 . S
C1266 C1268 1.353 . S
C1266 H1308 0.929 . S
C1267 C1264 1.356 . S
C1267 C1269 1.358 . S
C1267 H1309 0.930 . S
C1268 N1265 1.314 . S
C1268 C1266 1.353 . S
C1268 H1310 0.930 . S
C1269 N1265 1.279 . S
C1269 C1267 1.358 . S
C1269 H1311 0.930 . S
C1270 C1271 1.348 . S
C1270 C1272 1.356 . S
C1270 O1295 1.325 . S
C1271 C1270 1.348 . S
C1271 C1273 1.353 . S
C1271 H1312 0.929 . S
C1272 C1270 1.356 . S
C1272 C1274 1.358 . S
C1272 H1313 0.930 . S
C1273 C1271 1.353 . S
C1273 N1275 1.314 . S
C1273 H1314 0.930 . S
C1274 C1272 1.358 . S
C1274 N1275 1.279 . S
C1274 H1315 0.930 . S
N1275 C1273 1.314 . S
N1275 C1274 1.279 . S
C1276 C1278 1.353 . S
C1276 N1279 1.314 . S
C1276 H1282 0.930 . S
C1277 N1279 1.279 . S
C1277 C1280 1.358 . S
C1277 H1283 0.930 . S
C1278 C1276 1.353 . S
C1278 C1281 1.348 . S
C1278 H1316 0.929 . S
N1279 Li1234 1.990 . S
N1279 C1276 1.314 . S
N1279 C1277 1.279 . S
C1280 C1277 1.358 . S
C1280 C1281 1.356 . S
C1280 H1317 0.930 . S
C1281 C1278 1.348 . S
C1281 C1280 1.356 . S
H1282 C1276 0.930 . S
H1283 C1277 0.930 . S
C1284 N1285 1.314 . S
C1284 C1286 1.353 . S
C1284 H1290 0.930 . S
N1285 Li1235 1.990 . S
N1285 C1284 1.314 . S
N1285 C1288 1.279 . S
C1286 C1284 1.353 . S
C1286 C1289 1.348 . S
C1286 H1318 0.929 . S
C1287 C1288 1.358 . S
C1287 C1289 1.356 . S
C1287 H1319 0.930 . S
C1288 N1285 1.279 . S
C1288 C1287 1.358 . S
C1288 H1291 0.930 . S
C1289 C1286 1.348 . S
C1289 C1287 1.356 . S
H1290 C1284 0.930 . S
H1291 C1288 0.930 . S
O1292 Li1232 1.956 . S
O1292 Li1233 1.970 . S
O1292 Li1234 1.961 . S
O1292 C1236 1.325 . S
O1293 Li1232 1.970 . S
O1293 Li1233 1.956 . S
O1293 Li1235 1.961 . S
O1293 C1242 1.325 . S
O1294 Li1232 1.961 . S
O1294 Li1234 1.956 . S
O1294 Li1235 1.970 . S
O1294 C1264 1.325 . S
O1295 Li1233 1.961 . S
O1295 Li1234 1.970 . S
O1295 Li1235 1.956 . S
O1295 C1270 1.325 . S
H1296 C1238 0.929 . S
H1297 C1239 0.930 . S
H1298 C1240 0.930 . S
H1299 C1241 0.930 . S
H1300 C1243 0.930 . S
H1301 C1245 0.929 . S
H1302 C1246 0.930 . S
H1303 C1247 0.930 . S
H1304 C1250 0.930 . S
H1305 C1253 0.929 . S
H1306 C1258 0.929 . S
H1307 C1259 0.930 . S
H1308 C1266 0.929 . S
H1309 C1267 0.930 . S
H1310 C1268 0.930 . S
H1311 C1269 0.930 . S
H1312 C1271 0.929 . S
H1313 C1272 0.930 . S
H1314 C1273 0.930 . S
H1315 C1274 0.930 . S
H1316 C1278 0.929 . S
H1317 C1280 0.930 . S
H1318 C1286 0.929 . S
H1319 C1287 0.930 . S
Li1320 N1337 1.990 . S
Li1320 O1380 1.956 . S
Li1320 O1381 1.970 . S
Li1320 O1382 1.961 . S
Li1321 N1345 1.990 . S
Li1321 O1380 1.970 . S
Li1321 O1381 1.956 . S
Li1321 O1383 1.961 . S
Li1322 N1367 1.990 . S
Li1322 O1380 1.961 . S
Li1322 O1382 1.956 . S
Li1322 O1383 1.970 . S
Li1323 N1373 1.990 . S
Li1323 O1381 1.961 . S
Li1323 O1382 1.970 . S
Li1323 O1383 1.956 . S
C1324 C1326 1.348 . S
C1324 C1327 1.356 . S
C1324 O1380 1.325 . S
N1325 C1328 1.314 . S
N1325 C1329 1.279 . S
C1326 C1324 1.348 . S
C1326 C1328 1.353 . S
C1326 H1384 0.929 . S
C1327 C1324 1.356 . S
C1327 C1329 1.358 . S
C1327 H1385 0.930 . S
C1328 N1325 1.314 . S
C1328 C1326 1.353 . S
C1328 H1386 0.930 . S
C1329 N1325 1.279 . S
C1329 C1327 1.358 . S
C1329 H1387 0.930 . S
C1330 C1333 1.348 . S
C1330 C1334 1.356 . S
C1330 O1381 1.325 . S
C1331 N1332 1.279 . S
C1331 C1334 1.358 . S
C1331 H1388 0.930 . S
N1332 C1331 1.279 . S
N1332 C1335 1.314 . S
C1333 C1330 1.348 . S
C1333 C1335 1.353 . S
C1333 H1389 0.929 . S
C1334 C1330 1.356 . S
C1334 C1331 1.358 . S
C1334 H1390 0.930 . S
C1335 N1332 1.314 . S
C1335 C1333 1.353 . S
C1335 H1391 0.930 . S
C1336 N1337 1.314 . S
C1336 C1341 1.353 . S
C1336 H1342 0.930 . S
N1337 Li1320 1.990 . S
N1337 C1336 1.314 . S
N1337 C1339 1.279 . S
C1338 C1339 1.358 . S
C1338 C1340 1.356 . S
C1338 H1392 0.930 . S
C1339 N1337 1.279 . S
C1339 C1338 1.358 . S
C1339 H1343 0.930 . S
C1340 C1338 1.356 . S
C1340 C1341 1.348 . S
C1341 C1336 1.353 . S
C1341 C1340 1.348 . S
C1341 H1393 0.929 . S
H1342 C1336 0.930 . S
H1343 C1339 0.930 . S
C1344 N1345 1.314 . S
C1344 C1346 1.353 . S
C1344 H1350 0.930 . S
N1345 Li1321 1.990 . S
N1345 C1344 1.314 . S
N1345 C1348 1.279 . S
C1346 C1344 1.353 . S
C1346 C1349 1.348 . S
C1346 H1394 0.929 . S
C1347 C1348 1.358 . S
C1347 C1349 1.356 . S
C1347 H1395 0.930 . S
C1348 N1345 1.279 . S
C1348 C1347 1.358 . S
C1348 H1351 0.930 . S
C1349 C1346 1.348 . S
C1349 C1347 1.356 . S
H1350 C1344 0.930 . S
H1351 C1348 0.930 . S
C1352 C1354 1.348 . S
C1352 C1355 1.356 . S
C1352 O1382 1.325 . S
N1353 C1356 1.314 . S
N1353 C1357 1.279 . S
C1354 C1352 1.348 . S
C1354 C1356 1.353 . S
C1354 H1396 0.929 . S
C1355 C1352 1.356 . S
C1355 C1357 1.358 . S
C1355 H1397 0.930 . S
C1356 N1353 1.314 . S
C1356 C1354 1.353 . S
C1356 H1398 0.930 . S
C1357 N1353 1.279 . S
C1357 C1355 1.358 . S
C1357 H1399 0.930 . S
C1358 C1359 1.348 . S
C1358 C1360 1.356 . S
C1358 O1383 1.325 . S
C1359 C1358 1.348 . S
C1359 C1361 1.353 . S
C1359 H1400 0.929 . S
C1360 C1358 1.356 . S
C1360 C1362 1.358 . S
C1360 H1401 0.930 . S
C1361 C1359 1.353 . S
C1361 N1363 1.314 . S
C1361 H1402 0.930 . S
C1362 C1360 1.358 . S
C1362 N1363 1.279 . S
C1362 H1403 0.930 . S
N1363 C1361 1.314 . S
N1363 C1362 1.279 . S
C1364 C1366 1.353 . S
C1364 N1367 1.314 . S
C1364 H1370 0.930 . S
C1365 N1367 1.279 . S
C1365 C1368 1.358 . S
C1365 H1371 0.930 . S
C1366 C1364 1.353 . S
C1366 C1369 1.348 . S
C1366 H1404 0.929 . S
N1367 Li1322 1.990 . S
N1367 C1364 1.314 . S
N1367 C1365 1.279 . S
C1368 C1365 1.358 . S
C1368 C1369 1.356 . S
C1368 H1405 0.930 . S
C1369 C1366 1.348 . S
C1369 C1368 1.356 . S
H1370 C1364 0.930 . S
H1371 C1365 0.930 . S
C1372 N1373 1.314 . S
C1372 C1374 1.353 . S
C1372 H1378 0.930 . S
N1373 Li1323 1.990 . S
N1373 C1372 1.314 . S
N1373 C1376 1.279 . S
C1374 C1372 1.353 . S
C1374 C1377 1.348 . S
C1374 H1406 0.929 . S
C1375 C1376 1.358 . S
C1375 C1377 1.356 . S
C1375 H1407 0.930 . S
C1376 N1373 1.279 . S
C1376 C1375 1.358 . S
C1376 H1379 0.930 . S
C1377 C1374 1.348 . S
C1377 C1375 1.356 . S
H1378 C1372 0.930 . S
H1379 C1376 0.930 . S
O1380 Li1320 1.956 . S
O1380 Li1321 1.970 . S
O1380 Li1322 1.961 . S
O1380 C1324 1.325 . S
O1381 Li1320 1.970 . S
O1381 Li1321 1.956 . S
O1381 Li1323 1.961 . S
O1381 C1330 1.325 . S
O1382 Li1320 1.961 . S
O1382 Li1322 1.956 . S
O1382 Li1323 1.970 . S
O1382 C1352 1.325 . S
O1383 Li1321 1.961 . S
O1383 Li1322 1.970 . S
O1383 Li1323 1.956 . S
O1383 C1358 1.325 . S
H1384 C1326 0.929 . S
H1385 C1327 0.930 . S
H1386 C1328 0.930 . S
H1387 C1329 0.930 . S
H1388 C1331 0.930 . S
H1389 C1333 0.929 . S
H1390 C1334 0.930 . S
H1391 C1335 0.930 . S
H1392 C1338 0.930 . S
H1393 C1341 0.929 . S
H1394 C1346 0.929 . S
H1395 C1347 0.930 . S
H1396 C1354 0.929 . S
H1397 C1355 0.930 . S
H1398 C1356 0.930 . S
H1399 C1357 0.930 . S
H1400 C1359 0.929 . S
H1401 C1360 0.930 . S
H1402 C1361 0.930 . S
H1403 C1362 0.930 . S
H1404 C1366 0.929 . S
H1405 C1368 0.930 . S
H1406 C1374 0.929 . S
H1407 C1375 0.930 . S
H1408 C1416 0.929 . S
H1409 C1418 0.930 . S
H1410 C1420 0.930 . S
H1411 C1423 0.929 . S
H1412 C1426 0.930 . S
H1413 C1428 0.960 . S
H1414 C1428 0.960 . S
H1415 C1428 0.960 . S
C1416 H1408 0.929 . S
C1416 C1417 1.377 . S
C1416 C1418 1.384 . S
C1417 C1416 1.377 . S
C1417 C1423 1.390 . S
C1418 H1409 0.930 . S
C1418 C1416 1.384 . S
C1418 C1419 1.372 . S
C1419 C1418 1.372 . S
C1419 C1420 1.400 . S
C1419 C1424 1.490 . S
C1420 H1410 0.930 . S
C1420 C1419 1.400 . S
C1420 C1423 1.386 . S
H1421 C1437 0.930 . S
H1422 C1438 0.931 . S
C1423 H1411 0.929 . S
C1423 C1417 1.390 . S
C1423 C1420 1.386 . S
C1424 C1419 1.490 . S
C1424 C1426 1.395 . S
C1424 C1427 1.403 . S
H1425 C1431 0.930 . S
C1426 H1412 0.930 . S
C1426 C1424 1.395 . S
C1426 C1429 1.403 1_455 S
C1427 C1424 1.403 . S
C1427 C1428 1.524 . S
C1427 C1431 1.400 1_455 S
C1428 H1413 0.960 . S
C1428 H1414 0.960 . S
C1428 H1415 0.960 . S
C1428 C1427 1.524 . S
C1429 C1426 1.403 1_655 S
C1429 C1430 1.392 . S
C1429 C1433 1.495 . S
C1430 C1429 1.392 . S
C1430 C1431 1.385 . S
C1430 C1432 1.478 . S
C1431 H1425 0.930 . S
C1431 C1427 1.400 1_655 S
C1431 C1430 1.385 . S
C1432 C1430 1.478 . S
C1432 C1434 1.381 . S
C1432 C1438 1.383 . S
C1433 C1429 1.495 . S
C1433 H1439 0.959 . S
C1433 H1440 0.961 . S
C1433 H1441 0.960 . S
C1434 C1432 1.381 . S
C1434 C1435 1.394 . S
C1434 H1442 0.930 . S
C1435 C1434 1.394 . S
C1435 C1436 1.383 . S
C1435 H1443 0.929 . S
C1436 C1435 1.383 . S
C1436 C1437 1.377 . S
C1437 H1421 0.930 . S
C1437 C1436 1.377 . S
C1437 C1438 1.379 . S
C1438 H1422 0.931 . S
C1438 C1432 1.383 . S
C1438 C1437 1.379 . S
H1439 C1433 0.959 . S
H1440 C1433 0.961 . S
H1441 C1433 0.960 . S
H1442 C1434 0.930 . S
H1443 C1435 0.929 . S
H1444 C1452 0.929 . S
H1445 C1454 0.930 . S
H1446 C1456 0.930 . S
H1447 C1459 0.929 . S
H1448 C1462 0.930 . S
H1449 C1464 0.960 . S
H1450 C1464 0.960 . S
H1451 C1464 0.960 . S
C1452 H1444 0.929 . S
C1452 C1453 1.377 . S
C1452 C1454 1.384 . S
C1453 C1452 1.377 . S
C1453 C1459 1.390 . S
C1454 H1445 0.930 . S
C1454 C1452 1.384 . S
C1454 C1455 1.372 . S
C1455 C1454 1.372 . S
C1455 C1456 1.400 . S
C1455 C1460 1.490 . S
C1456 H1446 0.930 . S
C1456 C1455 1.400 . S
C1456 C1459 1.386 . S
H1457 C1473 0.930 . S
H1458 C1474 0.931 . S
C1459 H1447 0.929 . S
C1459 C1453 1.390 . S
C1459 C1456 1.386 . S
C1460 C1455 1.490 . S
C1460 C1462 1.395 . S
C1460 C1463 1.403 . S
H1461 C1467 0.930 . S
C1462 H1448 0.930 . S
C1462 C1460 1.395 . S
C1462 C1465 1.403 1_655 S
C1463 C1460 1.403 . S
C1463 C1464 1.524 . S
C1463 C1467 1.400 1_655 S
C1464 H1449 0.960 . S
C1464 H1450 0.960 . S
C1464 H1451 0.960 . S
C1464 C1463 1.524 . S
C1465 C1462 1.403 1_455 S
C1465 C1466 1.392 . S
C1465 C1469 1.495 . S
C1466 C1465 1.392 . S
C1466 C1467 1.385 . S
C1466 C1468 1.478 . S
C1467 H1461 0.930 . S
C1467 C1463 1.400 1_455 S
C1467 C1466 1.385 . S
C1468 C1466 1.478 . S
C1468 C1470 1.381 . S
C1468 C1474 1.383 . S
C1469 C1465 1.495 . S
C1469 H1475 0.959 . S
C1469 H1476 0.961 . S
C1469 H1477 0.960 . S
C1470 C1468 1.381 . S
C1470 C1471 1.394 . S
C1470 H1478 0.930 . S
C1471 C1470 1.394 . S
C1471 C1472 1.383 . S
C1471 H1479 0.929 . S
C1472 C1471 1.383 . S
C1472 C1473 1.377 . S
C1473 H1457 0.930 . S
C1473 C1472 1.377 . S
C1473 C1474 1.379 . S
C1474 H1458 0.931 . S
C1474 C1468 1.383 . S
C1474 C1473 1.379 . S
H1475 C1469 0.959 . S
H1476 C1469 0.961 . S
H1477 C1469 0.960 . S
H1478 C1470 0.930 . S
H1479 C1471 0.929 . S
H1480 C1488 0.929 . S
H1481 C1490 0.930 . S
H1482 C1492 0.930 . S
H1483 C1495 0.929 . S
H1484 C1498 0.930 . S
H1485 C1500 0.960 . S
H1486 C1500 0.960 . S
H1487 C1500 0.960 . S
C1488 H1480 0.929 . S
C1488 C1489 1.377 . S
C1488 C1490 1.384 . S
C1489 C1488 1.377 . S
C1489 C1495 1.390 . S
C1490 H1481 0.930 . S
C1490 C1488 1.384 . S
C1490 C1491 1.372 . S
C1491 C1490 1.372 . S
C1491 C1492 1.400 . S
C1491 C1496 1.490 . S
C1492 H1482 0.930 . S
C1492 C1491 1.400 . S
C1492 C1495 1.386 . S
H1493 C1509 0.930 . S
H1494 C1510 0.931 . S
C1495 H1483 0.929 . S
C1495 C1489 1.390 . S
C1495 C1492 1.386 . S
C1496 C1491 1.490 . S
C1496 C1498 1.395 . S
C1496 C1499 1.403 . S
H1497 C1503 0.930 . S
C1498 H1484 0.930 . S
C1498 C1496 1.395 . S
C1498 C1501 1.403 1_655 S
C1499 C1496 1.403 . S
C1499 C1500 1.524 . S
C1499 C1503 1.400 1_655 S
C1500 H1485 0.960 . S
C1500 H1486 0.960 . S
C1500 H1487 0.960 . S
C1500 C1499 1.524 . S
C1501 C1498 1.403 1_455 S
C1501 C1502 1.392 . S
C1501 C1505 1.495 . S
C1502 C1501 1.392 . S
C1502 C1503 1.385 . S
C1502 C1504 1.478 . S
C1503 H1497 0.930 . S
C1503 C1499 1.400 1_455 S
C1503 C1502 1.385 . S
C1504 C1502 1.478 . S
C1504 C1506 1.381 . S
C1504 C1510 1.383 . S
C1505 C1501 1.495 . S
C1505 H1511 0.959 . S
C1505 H1512 0.961 . S
C1505 H1513 0.960 . S
C1506 C1504 1.381 . S
C1506 C1507 1.394 . S
C1506 H1514 0.930 . S
C1507 C1506 1.394 . S
C1507 C1508 1.383 . S
C1507 H1515 0.929 . S
C1508 C1507 1.383 . S
C1508 C1509 1.377 . S
C1509 H1493 0.930 . S
C1509 C1508 1.377 . S
C1509 C1510 1.379 . S
C1510 H1494 0.931 . S
C1510 C1504 1.383 . S
C1510 C1509 1.379 . S
H1511 C1505 0.959 . S
H1512 C1505 0.961 . S
H1513 C1505 0.960 . S
H1514 C1506 0.930 . S
H1515 C1507 0.929 . S
H1516 C1524 0.929 . S
H1517 C1526 0.930 . S
H1518 C1528 0.930 . S
H1519 C1531 0.929 . S
H1520 C1534 0.930 . S
H1521 C1536 0.960 . S
H1522 C1536 0.960 . S
H1523 C1536 0.960 . S
C1524 H1516 0.929 . S
C1524 C1525 1.377 . S
C1524 C1526 1.384 . S
C1525 C1524 1.377 . S
C1525 C1531 1.390 . S
C1526 H1517 0.930 . S
C1526 C1524 1.384 . S
C1526 C1527 1.372 . S
C1527 C1526 1.372 . S
C1527 C1528 1.400 . S
C1527 C1532 1.490 . S
C1528 H1518 0.930 . S
C1528 C1527 1.400 . S
C1528 C1531 1.386 . S
H1529 C1545 0.930 . S
H1530 C1546 0.931 . S
C1531 H1519 0.929 . S
C1531 C1525 1.390 . S
C1531 C1528 1.386 . S
C1532 C1527 1.490 . S
C1532 C1534 1.395 . S
C1532 C1535 1.403 . S
H1533 C1539 0.930 . S
C1534 H1520 0.930 . S
C1534 C1532 1.395 . S
C1534 C1537 1.403 1_455 S
C1535 C1532 1.403 . S
C1535 C1536 1.524 . S
C1535 C1539 1.400 1_455 S
C1536 H1521 0.960 . S
C1536 H1522 0.960 . S
C1536 H1523 0.960 . S
C1536 C1535 1.524 . S
C1537 C1534 1.403 1_655 S
C1537 C1538 1.392 . S
C1537 C1541 1.495 . S
C1538 C1537 1.392 . S
C1538 C1539 1.385 . S
C1538 C1540 1.478 . S
C1539 H1533 0.930 . S
C1539 C1535 1.400 1_655 S
C1539 C1538 1.385 . S
C1540 C1538 1.478 . S
C1540 C1542 1.381 . S
C1540 C1546 1.383 . S
C1541 C1537 1.495 . S
C1541 H1547 0.959 . S
C1541 H1548 0.961 . S
C1541 H1549 0.960 . S
C1542 C1540 1.381 . S
C1542 C1543 1.394 . S
C1542 H1550 0.930 . S
C1543 C1542 1.394 . S
C1543 C1544 1.383 . S
C1543 H1551 0.929 . S
C1544 C1543 1.383 . S
C1544 C1545 1.377 . S
C1545 H1529 0.930 . S
C1545 C1544 1.377 . S
C1545 C1546 1.379 . S
C1546 H1530 0.931 . S
C1546 C1540 1.383 . S
C1546 C1545 1.379 . S
H1547 C1541 0.959 . S
H1548 C1541 0.961 . S
H1549 C1541 0.960 . S
H1550 C1542 0.930 . S
H1551 C1543 0.929 . S
H1552 C1560 0.929 . S
H1553 C1562 0.930 . S
H1554 C1564 0.930 . S
H1555 C1567 0.929 . S
H1556 C1570 0.930 . S
H1557 C1572 0.960 . S
H1558 C1572 0.960 . S
H1559 C1572 0.960 . S
C1560 H1552 0.929 . S
C1560 C1561 1.377 . S
C1560 C1562 1.384 . S
C1561 C1560 1.377 . S
C1561 C1567 1.390 . S
C1562 H1553 0.930 . S
C1562 C1560 1.384 . S
C1562 C1563 1.372 . S
C1563 C1562 1.372 . S
C1563 C1564 1.400 . S
C1563 C1568 1.490 . S
C1564 H1554 0.930 . S
C1564 C1563 1.400 . S
C1564 C1567 1.386 . S
H1565 C1581 0.930 . S
H1566 C1582 0.931 . S
C1567 H1555 0.929 . S
C1567 C1561 1.390 . S
C1567 C1564 1.386 . S
C1568 C1563 1.490 . S
C1568 C1570 1.395 . S
C1568 C1571 1.403 . S
H1569 C1575 0.930 . S
C1570 H1556 0.930 . S
C1570 C1568 1.395 . S
C1570 C1573 1.403 . S
C1571 C1568 1.403 . S
C1571 C1572 1.524 . S
C1571 C1575 1.400 . S
C1572 H1557 0.960 . S
C1572 H1558 0.960 . S
C1572 H1559 0.960 . S
C1572 C1571 1.524 . S
C1573 C1570 1.403 . S
C1573 C1574 1.392 . S
C1573 C1577 1.495 . S
C1574 C1573 1.392 . S
C1574 C1575 1.385 . S
C1574 C1576 1.478 . S
C1575 H1569 0.930 . S
C1575 C1571 1.400 . S
C1575 C1574 1.385 . S
C1576 C1574 1.478 . S
C1576 C1578 1.381 . S
C1576 C1582 1.383 . S
C1577 C1573 1.495 . S
C1577 H1583 0.959 . S
C1577 H1584 0.961 . S
C1577 H1585 0.960 . S
C1578 C1576 1.381 . S
C1578 C1579 1.394 . S
C1578 H1586 0.930 . S
C1579 C1578 1.394 . S
C1579 C1580 1.383 . S
C1579 H1587 0.929 . S
C1580 C1579 1.383 . S
C1580 C1581 1.377 . S
C1581 H1565 0.930 . S
C1581 C1580 1.377 . S
C1581 C1582 1.379 . S
C1582 H1566 0.931 . S
C1582 C1576 1.383 . S
C1582 C1581 1.379 . S
H1583 C1577 0.959 . S
H1584 C1577 0.961 . S
H1585 C1577 0.960 . S
H1586 C1578 0.930 . S
H1587 C1579 0.929 . S
H1588 C1596 0.929 . S
H1589 C1598 0.930 . S
H1590 C1600 0.930 . S
H1591 C1603 0.929 . S
H1592 C1606 0.930 . S
H1593 C1608 0.960 . S
H1594 C1608 0.960 . S
H1595 C1608 0.960 . S
C1596 H1588 0.929 . S
C1596 C1597 1.377 . S
C1596 C1598 1.384 . S
C1597 C1596 1.377 . S
C1597 C1603 1.390 . S
C1598 H1589 0.930 . S
C1598 C1596 1.384 . S
C1598 C1599 1.372 . S
C1599 C1598 1.372 . S
C1599 C1600 1.400 . S
C1599 C1604 1.490 . S
C1600 H1590 0.930 . S
C1600 C1599 1.400 . S
C1600 C1603 1.386 . S
H1601 C1617 0.930 . S
H1602 C1618 0.931 . S
C1603 H1591 0.929 . S
C1603 C1597 1.390 . S
C1603 C1600 1.386 . S
C1604 C1599 1.490 . S
C1604 C1606 1.395 . S
C1604 C1607 1.403 . S
H1605 C1611 0.930 . S
C1606 H1592 0.930 . S
C1606 C1604 1.395 . S
C1606 C1609 1.403 . S
C1607 C1604 1.403 . S
C1607 C1608 1.524 . S
C1607 C1611 1.400 . S
C1608 H1593 0.960 . S
C1608 H1594 0.960 . S
C1608 H1595 0.960 . S
C1608 C1607 1.524 . S
C1609 C1606 1.403 . S
C1609 C1610 1.392 . S
C1609 C1613 1.495 . S
C1610 C1609 1.392 . S
C1610 C1611 1.385 . S
C1610 C1612 1.478 . S
C1611 H1605 0.930 . S
C1611 C1607 1.400 . S
C1611 C1610 1.385 . S
C1612 C1610 1.478 . S
C1612 C1614 1.381 . S
C1612 C1618 1.383 . S
C1613 C1609 1.495 . S
C1613 H1619 0.959 . S
C1613 H1620 0.961 . S
C1613 H1621 0.960 . S
C1614 C1612 1.381 . S
C1614 C1615 1.394 . S
C1614 H1622 0.930 . S
C1615 C1614 1.394 . S
C1615 C1616 1.383 . S
C1615 H1623 0.929 . S
C1616 C1615 1.383 . S
C1616 C1617 1.377 . S
C1617 H1601 0.930 . S
C1617 C1616 1.377 . S
C1617 C1618 1.379 . S
C1618 H1602 0.931 . S
C1618 C1612 1.383 . S
C1618 C1617 1.379 . S
H1619 C1613 0.959 . S
H1620 C1613 0.961 . S
H1621 C1613 0.960 . S
H1622 C1614 0.930 . S
H1623 C1615 0.929 . S
H1624 C1632 0.929 . S
H1625 C1634 0.930 . S
H1626 C1636 0.930 . S
H1627 C1639 0.929 . S
H1628 C1642 0.930 . S
H1629 C1644 0.960 . S
H1630 C1644 0.960 . S
H1631 C1644 0.960 . S
C1632 H1624 0.929 . S
C1632 C1633 1.377 . S
C1632 C1634 1.384 . S
C1633 C1632 1.377 . S
C1633 C1639 1.390 . S
C1634 H1625 0.930 . S
C1634 C1632 1.384 . S
C1634 C1635 1.372 . S
C1635 C1634 1.372 . S
C1635 C1636 1.400 . S
C1635 C1640 1.490 . S
C1636 H1626 0.930 . S
C1636 C1635 1.400 . S
C1636 C1639 1.386 . S
H1637 C1653 0.930 . S
H1638 C1654 0.931 . S
C1639 H1627 0.929 . S
C1639 C1633 1.390 . S
C1639 C1636 1.386 . S
C1640 C1635 1.490 . S
C1640 C1642 1.395 . S
C1640 C1643 1.403 . S
H1641 C1647 0.930 . S
C1642 H1628 0.930 . S
C1642 C1640 1.395 . S
C1642 C1645 1.403 . S
C1643 C1640 1.403 . S
C1643 C1644 1.524 . S
C1643 C1647 1.400 . S
C1644 H1629 0.960 . S
C1644 H1630 0.960 . S
C1644 H1631 0.960 . S
C1644 C1643 1.524 . S
C1645 C1642 1.403 . S
C1645 C1646 1.392 . S
C1645 C1649 1.495 . S
C1646 C1645 1.392 . S
C1646 C1647 1.385 . S
C1646 C1648 1.478 . S
C1647 H1641 0.930 . S
C1647 C1643 1.400 . S
C1647 C1646 1.385 . S
C1648 C1646 1.478 . S
C1648 C1650 1.381 . S
C1648 C1654 1.383 . S
C1649 C1645 1.495 . S
C1649 H1655 0.959 . S
C1649 H1656 0.961 . S
C1649 H1657 0.960 . S
C1650 C1648 1.381 . S
C1650 C1651 1.394 . S
C1650 H1658 0.930 . S
C1651 C1650 1.394 . S
C1651 C1652 1.383 . S
C1651 H1659 0.929 . S
C1652 C1651 1.383 . S
C1652 C1653 1.377 . S
C1653 H1637 0.930 . S
C1653 C1652 1.377 . S
C1653 C1654 1.379 . S
C1654 H1638 0.931 . S
C1654 C1648 1.383 . S
C1654 C1653 1.379 . S
H1655 C1649 0.959 . S
H1656 C1649 0.961 . S
H1657 C1649 0.960 . S
H1658 C1650 0.930 . S
H1659 C1651 0.929 . S
H1660 C1668 0.929 . S
H1661 C1670 0.930 . S
H1662 C1672 0.930 . S
H1663 C1675 0.929 . S
H1664 C1678 0.930 . S
H1665 C1680 0.960 . S
H1666 C1680 0.960 . S
H1667 C1680 0.960 . S
C1668 H1660 0.929 . S
C1668 C1669 1.377 . S
C1668 C1670 1.384 . S
C1669 C1668 1.377 . S
C1669 C1675 1.390 . S
C1670 H1661 0.930 . S
C1670 C1668 1.384 . S
C1670 C1671 1.372 . S
C1671 C1670 1.372 . S
C1671 C1672 1.400 . S
C1671 C1676 1.490 . S
C1672 H1662 0.930 . S
C1672 C1671 1.400 . S
C1672 C1675 1.386 . S
H1673 C1689 0.930 . S
H1674 C1690 0.931 . S
C1675 H1663 0.929 . S
C1675 C1669 1.390 . S
C1675 C1672 1.386 . S
C1676 C1671 1.490 . S
C1676 C1678 1.395 . S
C1676 C1679 1.403 . S
H1677 C1683 0.930 . S
C1678 H1664 0.930 . S
C1678 C1676 1.395 . S
C1678 C1681 1.403 . S
C1679 C1676 1.403 . S
C1679 C1680 1.524 . S
C1679 C1683 1.400 . S
C1680 H1665 0.960 . S
C1680 H1666 0.960 . S
C1680 H1667 0.960 . S
C1680 C1679 1.524 . S
C1681 C1678 1.403 . S
C1681 C1682 1.392 . S
C1681 C1685 1.495 . S
C1682 C1681 1.392 . S
C1682 C1683 1.385 . S
C1682 C1684 1.478 . S
C1683 H1677 0.930 . S
C1683 C1679 1.400 . S
C1683 C1682 1.385 . S
C1684 C1682 1.478 . S
C1684 C1686 1.381 . S
C1684 C1690 1.383 . S
C1685 C1681 1.495 . S
C1685 H1691 0.959 . S
C1685 H1692 0.961 . S
C1685 H1693 0.960 . S
C1686 C1684 1.381 . S
C1686 C1687 1.394 . S
C1686 H1694 0.930 . S
C1687 C1686 1.394 . S
C1687 C1688 1.383 . S
C1687 H1695 0.929 . S
C1688 C1687 1.383 . S
C1688 C1689 1.377 . S
C1689 H1673 0.930 . S
C1689 C1688 1.377 . S
C1689 C1690 1.379 . S
C1690 H1674 0.931 . S
C1690 C1684 1.383 . S
C1690 C1689 1.379 . S
H1691 C1685 0.959 . S
H1692 C1685 0.961 . S
H1693 C1685 0.960 . S
H1694 C1686 0.930 . S
H1695 C1687 0.929 . S
H1696 C1704 0.929 . S
H1697 C1706 0.930 . S
H1698 C1708 0.930 . S
H1699 C1711 0.929 . S
H1700 C1714 0.930 . S
H1701 C1716 0.960 . S
H1702 C1716 0.960 . S
H1703 C1716 0.960 . S
C1704 H1696 0.929 . S
C1704 C1705 1.377 . S
C1704 C1706 1.384 . S
C1705 C1704 1.377 . S
C1705 C1711 1.390 . S
C1706 H1697 0.930 . S
C1706 C1704 1.384 . S
C1706 C1707 1.372 . S
C1707 C1706 1.372 . S
C1707 C1708 1.400 . S
C1707 C1712 1.490 . S
C1708 H1698 0.930 . S
C1708 C1707 1.400 . S
C1708 C1711 1.386 . S
H1709 C1725 0.930 . S
H1710 C1726 0.931 . S
C1711 H1699 0.929 . S
C1711 C1705 1.390 . S
C1711 C1708 1.386 . S
C1712 C1707 1.490 . S
C1712 C1714 1.395 . S
C1712 C1715 1.403 . S
H1713 C1719 0.930 . S
C1714 H1700 0.930 . S
C1714 C1712 1.395 . S
C1714 C1717 1.403 . S
C1715 C1712 1.403 . S
C1715 C1716 1.524 . S
C1715 C1719 1.400 . S
C1716 H1701 0.960 . S
C1716 H1702 0.960 . S
C1716 H1703 0.960 . S
C1716 C1715 1.524 . S
C1717 C1714 1.403 . S
C1717 C1718 1.392 . S
C1717 C1721 1.495 . S
C1718 C1717 1.392 . S
C1718 C1719 1.385 . S
C1718 C1720 1.478 . S
C1719 H1713 0.930 . S
C1719 C1715 1.400 . S
C1719 C1718 1.385 . S
C1720 C1718 1.478 . S
C1720 C1722 1.381 . S
C1720 C1726 1.383 . S
C1721 C1717 1.495 . S
C1721 H1727 0.959 . S
C1721 H1728 0.961 . S
C1721 H1729 0.960 . S
C1722 C1720 1.381 . S
C1722 C1723 1.394 . S
C1722 H1730 0.930 . S
C1723 C1722 1.394 . S
C1723 C1724 1.383 . S
C1723 H1731 0.929 . S
C1724 C1723 1.383 . S
C1724 C1725 1.377 . S
C1725 H1709 0.930 . S
C1725 C1724 1.377 . S
C1725 C1726 1.379 . S
C1726 H1710 0.931 . S
C1726 C1720 1.383 . S
C1726 C1725 1.379 . S
H1727 C1721 0.959 . S
H1728 C1721 0.961 . S
H1729 C1721 0.960 . S
H1730 C1722 0.930 . S
H1731 C1723 0.929 . S
H1732 C1740 0.929 . S
H1733 C1742 0.930 . S
H1734 C1744 0.930 . S
H1735 C1747 0.929 . S
H1736 C1750 0.930 . S
H1737 C1752 0.960 . S
H1738 C1752 0.960 . S
H1739 C1752 0.960 . S
C1740 H1732 0.929 . S
C1740 C1741 1.377 . S
C1740 C1742 1.384 . S
C1741 C1740 1.377 . S
C1741 C1747 1.390 . S
C1742 H1733 0.930 . S
C1742 C1740 1.384 . S
C1742 C1743 1.372 . S
C1743 C1742 1.372 . S
C1743 C1744 1.400 . S
C1743 C1748 1.490 . S
C1744 H1734 0.930 . S
C1744 C1743 1.400 . S
C1744 C1747 1.386 . S
H1745 C1761 0.930 . S
H1746 C1762 0.931 . S
C1747 H1735 0.929 . S
C1747 C1741 1.390 . S
C1747 C1744 1.386 . S
C1748 C1743 1.490 . S
C1748 C1750 1.395 . S
C1748 C1751 1.403 . S
H1749 C1755 0.930 . S
C1750 H1736 0.930 . S
C1750 C1748 1.395 . S
C1750 C1753 1.403 . S
C1751 C1748 1.403 . S
C1751 C1752 1.524 . S
C1751 C1755 1.400 . S
C1752 H1737 0.960 . S
C1752 H1738 0.960 . S
C1752 H1739 0.960 . S
C1752 C1751 1.524 . S
C1753 C1750 1.403 . S
C1753 C1754 1.392 . S
C1753 C1757 1.495 . S
C1754 C1753 1.392 . S
C1754 C1755 1.385 . S
C1754 C1756 1.478 . S
C1755 H1749 0.930 . S
C1755 C1751 1.400 . S
C1755 C1754 1.385 . S
C1756 C1754 1.478 . S
C1756 C1758 1.381 . S
C1756 C1762 1.383 . S
C1757 C1753 1.495 . S
C1757 H1763 0.959 . S
C1757 H1764 0.961 . S
C1757 H1765 0.960 . S
C1758 C1756 1.381 . S
C1758 C1759 1.394 . S
C1758 H1766 0.930 . S
C1759 C1758 1.394 . S
C1759 C1760 1.383 . S
C1759 H1767 0.929 . S
C1760 C1759 1.383 . S
C1760 C1761 1.377 . S
C1761 H1745 0.930 . S
C1761 C1760 1.377 . S
C1761 C1762 1.379 . S
C1762 H1746 0.931 . S
C1762 C1756 1.383 . S
C1762 C1761 1.379 . S
H1763 C1757 0.959 . S
H1764 C1757 0.961 . S
H1765 C1757 0.960 . S
H1766 C1758 0.930 . S
H1767 C1759 0.929 . S
H1768 C1776 0.929 . S
H1769 C1778 0.930 . S
H1770 C1780 0.930 . S
H1771 C1783 0.929 . S
H1772 C1786 0.930 . S
H1773 C1788 0.960 . S
H1774 C1788 0.960 . S
H1775 C1788 0.960 . S
C1776 H1768 0.929 . S
C1776 C1777 1.377 . S
C1776 C1778 1.384 . S
C1777 C1776 1.377 . S
C1777 C1783 1.390 . S
C1778 H1769 0.930 . S
C1778 C1776 1.384 . S
C1778 C1779 1.372 . S
C1779 C1778 1.372 . S
C1779 C1780 1.400 . S
C1779 C1784 1.490 . S
C1780 H1770 0.930 . S
C1780 C1779 1.400 . S
C1780 C1783 1.386 . S
H1781 C1797 0.930 . S
H1782 C1798 0.931 . S
C1783 H1771 0.929 . S
C1783 C1777 1.390 . S
C1783 C1780 1.386 . S
C1784 C1779 1.490 . S
C1784 C1786 1.395 . S
C1784 C1787 1.403 . S
H1785 C1791 0.930 . S
C1786 H1772 0.930 . S
C1786 C1784 1.395 . S
C1786 C1789 1.403 . S
C1787 C1784 1.403 . S
C1787 C1788 1.524 . S
C1787 C1791 1.400 . S
C1788 H1773 0.960 . S
C1788 H1774 0.960 . S
C1788 H1775 0.960 . S
C1788 C1787 1.524 . S
C1789 C1786 1.403 . S
C1789 C1790 1.392 . S
C1789 C1793 1.495 . S
C1790 C1789 1.392 . S
C1790 C1791 1.385 . S
C1790 C1792 1.478 . S
C1791 H1785 0.930 . S
C1791 C1787 1.400 . S
C1791 C1790 1.385 . S
C1792 C1790 1.478 . S
C1792 C1794 1.381 . S
C1792 C1798 1.383 . S
C1793 C1789 1.495 . S
C1793 H1799 0.959 . S
C1793 H1800 0.961 . S
C1793 H1801 0.960 . S
C1794 C1792 1.381 . S
C1794 C1795 1.394 . S
C1794 H1802 0.930 . S
C1795 C1794 1.394 . S
C1795 C1796 1.383 . S
C1795 H1803 0.929 . S
C1796 C1795 1.383 . S
C1796 C1797 1.377 . S
C1797 H1781 0.930 . S
C1797 C1796 1.377 . S
C1797 C1798 1.379 . S
C1798 H1782 0.931 . S
C1798 C1792 1.383 . S
C1798 C1797 1.379 . S
H1799 C1793 0.959 . S
H1800 C1793 0.961 . S
H1801 C1793 0.960 . S
H1802 C1794 0.930 . S
H1803 C1795 0.929 . S
H1804 C1812 0.929 . S
H1805 C1814 0.930 . S
H1806 C1816 0.930 . S
H1807 C1819 0.929 . S
H1808 C1822 0.930 . S
H1809 C1824 0.960 . S
H1810 C1824 0.960 . S
H1811 C1824 0.960 . S
C1812 H1804 0.929 . S
C1812 C1813 1.377 . S
C1812 C1814 1.384 . S
C1813 C1812 1.377 . S
C1813 C1819 1.390 . S
C1814 H1805 0.930 . S
C1814 C1812 1.384 . S
C1814 C1815 1.372 . S
C1815 C1814 1.372 . S
C1815 C1816 1.400 . S
C1815 C1820 1.490 . S
C1816 H1806 0.930 . S
C1816 C1815 1.400 . S
C1816 C1819 1.386 . S
H1817 C1833 0.930 . S
H1818 C1834 0.931 . S
C1819 H1807 0.929 . S
C1819 C1813 1.390 . S
C1819 C1816 1.386 . S
C1820 C1815 1.490 . S
C1820 C1822 1.395 . S
C1820 C1823 1.403 . S
H1821 C1827 0.930 . S
C1822 H1808 0.930 . S
C1822 C1820 1.395 . S
C1822 C1825 1.403 . S
C1823 C1820 1.403 . S
C1823 C1824 1.524 . S
C1823 C1827 1.400 . S
C1824 H1809 0.960 . S
C1824 H1810 0.960 . S
C1824 H1811 0.960 . S
C1824 C1823 1.524 . S
C1825 C1822 1.403 . S
C1825 C1826 1.392 . S
C1825 C1829 1.495 . S
C1826 C1825 1.392 . S
C1826 C1827 1.385 . S
C1826 C1828 1.478 . S
C1827 H1821 0.930 . S
C1827 C1823 1.400 . S
C1827 C1826 1.385 . S
C1828 C1826 1.478 . S
C1828 C1830 1.381 . S
C1828 C1834 1.383 . S
C1829 C1825 1.495 . S
C1829 H1835 0.959 . S
C1829 H1836 0.961 . S
C1829 H1837 0.960 . S
C1830 C1828 1.381 . S
C1830 C1831 1.394 . S
C1830 H1838 0.930 . S
C1831 C1830 1.394 . S
C1831 C1832 1.383 . S
C1831 H1839 0.929 . S
C1832 C1831 1.383 . S
C1832 C1833 1.377 . S
C1833 H1817 0.930 . S
C1833 C1832 1.377 . S
C1833 C1834 1.379 . S
C1834 H1818 0.931 . S
C1834 C1828 1.383 . S
C1834 C1833 1.379 . S
H1835 C1829 0.959 . S
H1836 C1829 0.961 . S
H1837 C1829 0.960 . S
H1838 C1830 0.930 . S
H1839 C1831 0.929 . S
H1840 C1848 0.929 . S
H1841 C1850 0.930 . S
H1842 C1852 0.930 . S
H1843 C1855 0.929 . S
H1844 C1858 0.930 . S
H1845 C1860 0.960 . S
H1846 C1860 0.960 . S
H1847 C1860 0.960 . S
C1848 H1840 0.929 . S
C1848 C1849 1.377 . S
C1848 C1850 1.384 . S
C1849 C1848 1.377 . S
C1849 C1855 1.390 . S
C1850 H1841 0.930 . S
C1850 C1848 1.384 . S
C1850 C1851 1.372 . S
C1851 C1850 1.372 . S
C1851 C1852 1.400 . S
C1851 C1856 1.490 . S
C1852 H1842 0.930 . S
C1852 C1851 1.400 . S
C1852 C1855 1.386 . S
H1853 C1869 0.930 . S
H1854 C1870 0.931 . S
C1855 H1843 0.929 . S
C1855 C1849 1.390 . S
C1855 C1852 1.386 . S
C1856 C1851 1.490 . S
C1856 C1858 1.395 . S
C1856 C1859 1.403 . S
H1857 C1863 0.930 . S
C1858 H1844 0.930 . S
C1858 C1856 1.395 . S
C1858 C1861 1.403 . S
C1859 C1856 1.403 . S
C1859 C1860 1.524 . S
C1859 C1863 1.400 . S
C1860 H1845 0.960 . S
C1860 H1846 0.960 . S
C1860 H1847 0.960 . S
C1860 C1859 1.524 . S
C1861 C1858 1.403 . S
C1861 C1862 1.392 . S
C1861 C1865 1.495 . S
C1862 C1861 1.392 . S
C1862 C1863 1.385 . S
C1862 C1864 1.478 . S
C1863 H1857 0.930 . S
C1863 C1859 1.400 . S
C1863 C1862 1.385 . S
C1864 C1862 1.478 . S
C1864 C1866 1.381 . S
C1864 C1870 1.383 . S
C1865 C1861 1.495 . S
C1865 H1871 0.959 . S
C1865 H1872 0.961 . S
C1865 H1873 0.960 . S
C1866 C1864 1.381 . S
C1866 C1867 1.394 . S
C1866 H1874 0.930 . S
C1867 C1866 1.394 . S
C1867 C1868 1.383 . S
C1867 H1875 0.929 . S
C1868 C1867 1.383 . S
C1868 C1869 1.377 . S
C1869 H1853 0.930 . S
C1869 C1868 1.377 . S
C1869 C1870 1.379 . S
C1870 H1854 0.931 . S
C1870 C1864 1.383 . S
C1870 C1869 1.379 . S
H1871 C1865 0.959 . S
H1872 C1865 0.961 . S
H1873 C1865 0.960 . S
H1874 C1866 0.930 . S
H1875 C1867 0.929 . S
H1876 C1884 0.929 . S
H1877 C1886 0.930 . S
H1878 C1888 0.930 . S
H1879 C1891 0.929 . S
H1880 C1894 0.930 . S
H1881 C1896 0.960 . S
H1882 C1896 0.960 . S
H1883 C1896 0.960 . S
C1884 H1876 0.929 . S
C1884 C1885 1.377 . S
C1884 C1886 1.384 . S
C1885 C1884 1.377 . S
C1885 C1891 1.390 . S
C1886 H1877 0.930 . S
C1886 C1884 1.384 . S
C1886 C1887 1.372 . S
C1887 C1886 1.372 . S
C1887 C1888 1.400 . S
C1887 C1892 1.490 . S
C1888 H1878 0.930 . S
C1888 C1887 1.400 . S
C1888 C1891 1.386 . S
H1889 C1905 0.930 . S
H1890 C1906 0.931 . S
C1891 H1879 0.929 . S
C1891 C1885 1.390 . S
C1891 C1888 1.386 . S
C1892 C1887 1.490 . S
C1892 C1894 1.395 . S
C1892 C1895 1.403 . S
H1893 C1899 0.930 . S
C1894 H1880 0.930 . S
C1894 C1892 1.395 . S
C1894 C1897 1.403 . S
C1895 C1892 1.403 . S
C1895 C1896 1.524 . S
C1895 C1899 1.400 . S
C1896 H1881 0.960 . S
C1896 H1882 0.960 . S
C1896 H1883 0.960 . S
C1896 C1895 1.524 . S
C1897 C1894 1.403 . S
C1897 C1898 1.392 . S
C1897 C1901 1.495 . S
C1898 C1897 1.392 . S
C1898 C1899 1.385 . S
C1898 C1900 1.478 . S
C1899 H1893 0.930 . S
C1899 C1895 1.400 . S
C1899 C1898 1.385 . S
C1900 C1898 1.478 . S
C1900 C1902 1.381 . S
C1900 C1906 1.383 . S
C1901 C1897 1.495 . S
C1901 H1907 0.959 . S
C1901 H1908 0.961 . S
C1901 H1909 0.960 . S
C1902 C1900 1.381 . S
C1902 C1903 1.394 . S
C1902 H1910 0.930 . S
C1903 C1902 1.394 . S
C1903 C1904 1.383 . S
C1903 H1911 0.929 . S
C1904 C1903 1.383 . S
C1904 C1905 1.377 . S
C1905 H1889 0.930 . S
C1905 C1904 1.377 . S
C1905 C1906 1.379 . S
C1906 H1890 0.931 . S
C1906 C1900 1.383 . S
C1906 C1905 1.379 . S
H1907 C1901 0.959 . S
H1908 C1901 0.961 . S
H1909 C1901 0.960 . S
H1910 C1902 0.930 . S
H1911 C1903 0.929 . S
H1912 C1920 0.929 . S
H1913 C1922 0.930 . S
H1914 C1924 0.930 . S
H1915 C1927 0.929 . S
H1916 C1930 0.930 . S
H1917 C1932 0.960 . S
H1918 C1932 0.960 . S
H1919 C1932 0.960 . S
C1920 H1912 0.929 . S
C1920 C1921 1.377 . S
C1920 C1922 1.384 . S
C1921 C1920 1.377 . S
C1921 C1927 1.390 . S
C1922 H1913 0.930 . S
C1922 C1920 1.384 . S
C1922 C1923 1.372 . S
C1923 C1922 1.372 . S
C1923 C1924 1.400 . S
C1923 C1928 1.490 . S
C1924 H1914 0.930 . S
C1924 C1923 1.400 . S
C1924 C1927 1.386 . S
H1925 C1941 0.930 . S
H1926 C1942 0.931 . S
C1927 H1915 0.929 . S
C1927 C1921 1.390 . S
C1927 C1924 1.386 . S
C1928 C1923 1.490 . S
C1928 C1930 1.395 . S
C1928 C1931 1.403 . S
H1929 C1935 0.930 . S
C1930 H1916 0.930 . S
C1930 C1928 1.395 . S
C1930 C1933 1.403 . S
C1931 C1928 1.403 . S
C1931 C1932 1.524 . S
C1931 C1935 1.400 . S
C1932 H1917 0.960 . S
C1932 H1918 0.960 . S
C1932 H1919 0.960 . S
C1932 C1931 1.524 . S
C1933 C1930 1.403 . S
C1933 C1934 1.392 . S
C1933 C1937 1.495 . S
C1934 C1933 1.392 . S
C1934 C1935 1.385 . S
C1934 C1936 1.478 . S
C1935 H1929 0.930 . S
C1935 C1931 1.400 . S
C1935 C1934 1.385 . S
C1936 C1934 1.478 . S
C1936 C1938 1.381 . S
C1936 C1942 1.383 . S
C1937 C1933 1.495 . S
C1937 H1943 0.959 . S
C1937 H1944 0.961 . S
C1937 H1945 0.960 . S
C1938 C1936 1.381 . S
C1938 C1939 1.394 . S
C1938 H1946 0.930 . S
C1939 C1938 1.394 . S
C1939 C1940 1.383 . S
C1939 H1947 0.929 . S
C1940 C1939 1.383 . S
C1940 C1941 1.377 . S
C1941 H1925 0.930 . S
C1941 C1940 1.377 . S
C1941 C1942 1.379 . S
C1942 H1926 0.931 . S
C1942 C1936 1.383 . S
C1942 C1941 1.379 . S
H1943 C1937 0.959 . S
H1944 C1937 0.961 . S
H1945 C1937 0.960 . S
H1946 C1938 0.930 . S
H1947 C1939 0.929 . S
H1948 C1956 0.929 . S
H1949 C1958 0.930 . S
H1950 C1960 0.930 . S
H1951 C1963 0.929 . S
H1952 C1966 0.930 . S
H1953 C1968 0.960 . S
H1954 C1968 0.960 . S
H1955 C1968 0.960 . S
C1956 H1948 0.929 . S
C1956 C1957 1.377 . S
C1956 C1958 1.384 . S
C1957 C1956 1.377 . S
C1957 C1963 1.390 . S
C1958 H1949 0.930 . S
C1958 C1956 1.384 . S
C1958 C1959 1.372 . S
C1959 C1958 1.372 . S
C1959 C1960 1.400 . S
C1959 C1964 1.490 . S
C1960 H1950 0.930 . S
C1960 C1959 1.400 . S
C1960 C1963 1.386 . S
H1961 C1977 0.930 . S
H1962 C1978 0.931 . S
C1963 H1951 0.929 . S
C1963 C1957 1.390 . S
C1963 C1960 1.386 . S
C1964 C1959 1.490 . S
C1964 C1966 1.395 . S
C1964 C1967 1.403 . S
H1965 C1971 0.930 . S
C1966 H1952 0.930 . S
C1966 C1964 1.395 . S
C1966 C1969 1.403 . S
C1967 C1964 1.403 . S
C1967 C1968 1.524 . S
C1967 C1971 1.400 . S
C1968 H1953 0.960 . S
C1968 H1954 0.960 . S
C1968 H1955 0.960 . S
C1968 C1967 1.524 . S
C1969 C1966 1.403 . S
C1969 C1970 1.392 . S
C1969 C1973 1.495 . S
C1970 C1969 1.392 . S
C1970 C1971 1.385 . S
C1970 C1972 1.478 . S
C1971 H1965 0.930 . S
C1971 C1967 1.400 . S
C1971 C1970 1.385 . S
C1972 C1970 1.478 . S
C1972 C1974 1.381 . S
C1972 C1978 1.383 . S
C1973 C1969 1.495 . S
C1973 H1979 0.959 . S
C1973 H1980 0.961 . S
C1973 H1981 0.960 . S
C1974 C1972 1.381 . S
C1974 C1975 1.394 . S
C1974 H1982 0.930 . S
C1975 C1974 1.394 . S
C1975 C1976 1.383 . S
C1975 H1983 0.929 . S
C1976 C1975 1.383 . S
C1976 C1977 1.377 . S
C1977 H1961 0.930 . S
C1977 C1976 1.377 . S
C1977 C1978 1.379 . S
C1978 H1962 0.931 . S
C1978 C1972 1.383 . S
C1978 C1977 1.379 . S
H1979 C1973 0.959 . S
H1980 C1973 0.961 . S
H1981 C1973 0.960 . S
H1982 C1974 0.930 . S
H1983 C1975 0.929 . S
H1984 C1992 0.929 . S
H1985 C1994 0.872 1_554 S
H1986 C1996 0.930 . S
H1987 C1999 0.929 . S
H1988 C2002 0.930 . S
H1989 C2004 0.960 . S
H1990 C2004 0.960 . S
H1991 C2004 0.960 . S
C1992 H1984 0.929 . S
C1992 C1993 1.377 . S
C1992 C1994 1.384 . S
C1993 C1992 1.377 . S
C1993 C1999 1.390 . S
C1994 H1985 0.872 1_556 S
C1994 C1992 1.384 . S
C1994 C1995 1.372 . S
C1995 C1994 1.372 . S
C1995 C1996 1.400 . S
C1995 C2000 1.490 . S
C1996 H1986 0.930 . S
C1996 C1995 1.400 . S
C1996 C1999 1.386 . S
H1997 C2013 0.930 . S
H1998 C2014 0.931 . S
C1999 H1987 0.929 . S
C1999 C1993 1.390 . S
C1999 C1996 1.386 . S
C2000 C1995 1.490 . S
C2000 C2002 1.395 1_556 S
C2000 C2003 1.403 . S
H2001 C2007 0.930 . S
C2002 H1988 0.930 . S
C2002 C2000 1.395 1_554 S
C2002 C2005 1.403 . S
C2003 C2000 1.403 . S
C2003 C2004 1.524 . S
C2003 C2007 1.400 . S
C2004 H1989 0.960 . S
C2004 H1990 0.960 . S
C2004 H1991 0.960 . S
C2004 C2003 1.524 . S
C2005 C2002 1.403 . S
C2005 C2006 1.392 . S
C2005 C2009 1.495 . S
C2006 C2005 1.392 . S
C2006 C2007 1.385 1_554 S
C2006 C2008 1.478 . S
C2007 H2001 0.930 . S
C2007 C2003 1.400 . S
C2007 C2006 1.385 1_556 S
C2008 C2006 1.478 . S
C2008 C2010 1.381 . S
C2008 C2014 1.383 . S
C2009 C2005 1.495 . S
C2009 H2015 0.959 . S
C2009 H2016 0.961 . S
C2009 H2017 0.960 . S
C2010 C2008 1.381 . S
C2010 C2011 1.394 . S
C2010 H2018 0.930 . S
C2011 C2010 1.394 . S
C2011 C2012 1.383 . S
C2011 H2019 0.929 . S
C2012 C2011 1.383 . S
C2012 C2013 1.377 . S
C2013 H1997 0.930 . S
C2013 C2012 1.377 . S
C2013 C2014 1.379 . S
C2014 H1998 0.931 . S
C2014 C2008 1.383 . S
C2014 C2013 1.379 . S
H2015 C2009 0.959 . S
H2016 C2009 0.961 . S
H2017 C2009 0.960 . S
H2018 C2010 0.930 . S
H2019 C2011 0.929 . S
H2020 C2028 0.929 . S
H2021 C2030 0.930 . S
H2022 C2032 0.930 . S
H2023 C2035 0.929 . S
H2024 C2038 0.930 . S
H2025 C2040 0.960 . S
H2026 C2040 0.960 . S
H2027 C2040 0.960 . S
C2028 H2020 0.929 . S
C2028 C2029 1.377 . S
C2028 C2030 1.384 . S
C2029 C2028 1.377 . S
C2029 C2035 1.390 . S
C2030 H2021 0.930 . S
C2030 C2028 1.384 . S
C2030 C2031 1.372 . S
C2031 C2030 1.372 . S
C2031 C2032 1.400 . S
C2031 C2036 1.490 . S
C2032 H2022 0.930 . S
C2032 C2031 1.400 . S
C2032 C2035 1.386 . S
H2033 C2049 0.930 . S
H2034 C2050 0.931 . S
C2035 H2023 0.929 . S
C2035 C2029 1.390 . S
C2035 C2032 1.386 . S
C2036 C2031 1.490 . S
C2036 C2038 1.395 . S
C2036 C2039 1.403 . S
H2037 C2043 0.930 . S
C2038 H2024 0.930 . S
C2038 C2036 1.395 . S
C2038 C2041 1.403 . S
C2039 C2036 1.403 . S
C2039 C2040 1.524 . S
C2039 C2043 1.400 . S
C2040 H2025 0.960 . S
C2040 H2026 0.960 . S
C2040 H2027 0.960 . S
C2040 C2039 1.524 . S
C2041 C2038 1.403 . S
C2041 C2042 1.392 . S
C2041 C2045 1.495 . S
C2042 C2041 1.392 . S
C2042 C2043 1.385 . S
C2042 C2044 1.478 . S
C2043 H2037 0.930 . S
C2043 C2039 1.400 . S
C2043 C2042 1.385 . S
C2044 C2042 1.478 . S
C2044 C2046 1.381 . S
C2044 C2050 1.383 . S
C2045 C2041 1.495 . S
C2045 H2051 0.959 . S
C2045 H2052 0.961 . S
C2045 H2053 0.960 . S
C2046 C2044 1.381 . S
C2046 C2047 1.394 . S
C2046 H2054 0.930 . S
C2047 C2046 1.394 . S
C2047 C2048 1.383 . S
C2047 H2055 0.929 . S
C2048 C2047 1.383 . S
C2048 C2049 1.377 . S
C2049 H2033 0.930 . S
C2049 C2048 1.377 . S
C2049 C2050 1.379 . S
C2050 H2034 0.931 . S
C2050 C2044 1.383 . S
C2050 C2049 1.379 . S
H2051 C2045 0.959 . S
H2052 C2045 0.961 . S
H2053 C2045 0.960 . S
H2054 C2046 0.930 . S
H2055 C2047 0.929 . S
H2056 C2064 0.929 . S
H2057 C2066 0.930 . S
H2058 C2068 0.930 . S
H2059 C2071 0.929 . S
H2060 C2074 0.930 . S
H2061 C2076 0.960 1_556 S
H2062 C2076 0.960 1_556 S
H2063 C2076 0.960 . S
C2064 H2056 0.929 . S
C2064 C2065 1.377 . S
C2064 C2066 1.384 . S
C2065 C2064 1.377 . S
C2065 C2071 1.390 . S
C2066 H2057 0.930 . S
C2066 C2064 1.384 . S
C2066 C2067 1.372 . S
C2067 C2066 1.372 . S
C2067 C2068 1.400 . S
C2067 C2072 1.490 . S
C2068 H2058 0.930 . S
C2068 C2067 1.400 . S
C2068 C2071 1.386 . S
H2069 C2085 0.930 . S
H2070 C2086 0.930 . S
C2071 H2059 0.929 . S
C2071 C2065 1.390 . S
C2071 C2068 1.386 . S
C2072 C2067 1.490 . S
C2072 C2074 1.395 . S
C2072 C2075 1.428 . S
H2073 C2079 0.930 . S
C2074 H2060 0.930 . S
C2074 C2072 1.395 . S
C2074 C2077 1.403 1_554 S
C2075 C2072 1.428 . S
C2075 C2076 1.526 . S
C2075 C2079 1.373 1_554 S
C2076 H2061 0.960 1_554 S
C2076 H2062 0.960 1_554 S
C2076 H2063 0.960 . S
C2076 C2075 1.526 . S
C2077 C2074 1.403 1_556 S
C2077 C2078 1.392 . S
C2077 C2081 1.495 . S
C2078 C2077 1.392 . S
C2078 C2079 1.385 . S
C2078 C2080 1.478 . S
C2079 H2073 0.930 . S
C2079 C2075 1.373 1_556 S
C2079 C2078 1.385 . S
C2080 C2078 1.478 . S
C2080 C2082 1.381 . S
C2080 C2086 1.383 . S
C2081 C2077 1.495 . S
C2081 H2087 0.959 1_556 S
C2081 H2088 0.961 1_556 S
C2081 H2089 0.960 . S
C2082 C2080 1.381 . S
C2082 C2083 1.394 . S
C2082 H2090 0.930 . S
C2083 C2082 1.394 . S
C2083 C2084 1.383 . S
C2083 H2091 0.929 . S
C2084 C2083 1.383 . S
C2084 C2085 1.377 . S
C2085 H2069 0.930 . S
C2085 C2084 1.377 . S
C2085 C2086 1.379 . S
C2086 H2070 0.930 . S
C2086 C2080 1.383 . S
C2086 C2085 1.379 . S
H2087 C2081 0.959 1_554 S
H2088 C2081 0.961 1_554 S
H2089 C2081 0.960 . S
H2090 C2082 0.930 . S
H2091 C2083 0.929 . S
H2092 C2100 0.929 . S
H2093 C2102 0.930 . S
H2094 C2104 0.930 . S
H2095 C2107 0.929 . S
H2096 C2110 0.930 . S
H2097 C2112 0.960 . S
H2098 C2112 0.960 . S
H2099 C2112 0.960 . S
C2100 H2092 0.929 . S
C2100 C2101 1.377 . S
C2100 C2102 1.384 . S
C2101 C2100 1.377 . S
C2101 C2107 1.390 . S
C2102 H2093 0.930 . S
C2102 C2100 1.384 . S
C2102 C2103 1.372 . S
C2103 C2102 1.372 . S
C2103 C2104 1.400 . S
C2103 C2108 1.490 . S
C2104 H2094 0.930 . S
C2104 C2103 1.400 . S
C2104 C2107 1.386 . S
H2105 C2121 0.930 . S
H2106 C2122 0.931 . S
C2107 H2095 0.929 . S
C2107 C2101 1.390 . S
C2107 C2104 1.386 . S
C2108 C2103 1.490 . S
C2108 C2110 1.395 . S
C2108 C2111 1.403 . S
H2109 C2115 0.930 . S
C2110 H2096 0.930 . S
C2110 C2108 1.395 . S
C2110 C2113 1.403 . S
C2111 C2108 1.403 . S
C2111 C2112 1.524 . S
C2111 C2115 1.400 . S
C2112 H2097 0.960 . S
C2112 H2098 0.960 . S
C2112 H2099 0.960 . S
C2112 C2111 1.524 . S
C2113 C2110 1.403 . S
C2113 C2114 1.392 . S
C2113 C2117 1.495 . S
C2114 C2113 1.392 . S
C2114 C2115 1.385 . S
C2114 C2116 1.478 . S
C2115 H2109 0.930 . S
C2115 C2111 1.400 . S
C2115 C2114 1.385 . S
C2116 C2114 1.478 . S
C2116 C2118 1.381 . S
C2116 C2122 1.383 . S
C2117 C2113 1.495 . S
C2117 H2123 0.959 . S
C2117 H2124 0.961 . S
C2117 H2125 0.960 . S
C2118 C2116 1.381 . S
C2118 C2119 1.394 . S
C2118 H2126 0.930 . S
C2119 C2118 1.394 . S
C2119 C2120 1.383 . S
C2119 H2127 0.929 . S
C2120 C2119 1.383 . S
C2120 C2121 1.377 . S
C2121 H2105 0.930 . S
C2121 C2120 1.377 . S
C2121 C2122 1.379 . S
C2122 H2106 0.931 . S
C2122 C2116 1.383 . S
C2122 C2121 1.379 . S
H2123 C2117 0.959 . S
H2124 C2117 0.961 . S
H2125 C2117 0.960 . S
H2126 C2118 0.930 . S
H2127 C2119 0.929 . S
H2128 C2136 0.929 . S
H2129 C2138 0.930 1_556 S
H2130 C2140 0.930 . S
H2131 C2143 0.929 . S
H2132 C2146 0.930 . S
H2133 C2148 0.960 . S
H2134 C2148 0.960 . S
H2135 C2148 0.960 . S
C2136 H2128 0.929 . S
C2136 C2137 1.377 . S
C2136 C2138 1.384 . S
C2137 C2136 1.377 . S
C2137 C2143 1.390 . S
C2138 H2129 0.930 1_554 S
C2138 C2136 1.384 . S
C2138 C2139 1.372 . S
C2139 C2138 1.372 . S
C2139 C2140 1.400 . S
C2139 C2144 1.490 . S
C2140 H2130 0.930 . S
C2140 C2139 1.400 . S
C2140 C2143 1.386 . S
H2141 C2157 0.930 . S
H2142 C2158 0.931 1_554 S
C2143 H2131 0.929 . S
C2143 C2137 1.390 . S
C2143 C2140 1.386 . S
C2144 C2139 1.490 . S
C2144 C2146 1.395 1_554 S
C2144 C2147 1.403 . S
H2145 C2151 0.930 . S
C2146 H2132 0.930 . S
C2146 C2144 1.395 1_556 S
C2146 C2149 1.403 . S
C2147 C2144 1.403 . S
C2147 C2148 1.524 . S
C2147 C2151 1.400 1_554 S
C2148 H2133 0.960 . S
C2148 H2134 0.960 . S
C2148 H2135 0.960 . S
C2148 C2147 1.524 . S
C2149 C2146 1.403 . S
C2149 C2150 1.392 . S
C2149 C2153 1.495 . S
C2150 C2149 1.392 . S
C2150 C2151 1.385 . S
C2150 C2152 1.478 . S
C2151 H2145 0.930 . S
C2151 C2147 1.400 1_556 S
C2151 C2150 1.385 . S
C2152 C2150 1.478 . S
C2152 C2154 1.381 . S
C2152 C2158 1.383 . S
C2153 C2149 1.495 . S
C2153 H2159 0.959 . S
C2153 H2160 0.961 . S
C2153 H2161 0.960 . S
C2154 C2152 1.381 . S
C2154 C2155 1.394 . S
C2154 H2162 0.930 . S
C2155 C2154 1.394 . S
C2155 C2156 1.383 . S
C2155 H2163 0.929 . S
C2156 C2155 1.383 . S
C2156 C2157 1.377 . S
C2157 H2141 0.930 . S
C2157 C2156 1.377 . S
C2157 C2158 1.379 . S
C2158 H2142 0.931 1_556 S
C2158 C2152 1.383 . S
C2158 C2157 1.379 . S
H2159 C2153 0.959 . S
H2160 C2153 0.961 . S
H2161 C2153 0.960 . S
H2162 C2154 0.930 . S
H2163 C2155 0.929 . S
H2164 C2172 0.929 . S
H2165 C2174 0.930 . S
H2166 C2176 0.930 . S
H2167 C2179 0.929 . S
H2168 C2182 0.930 . S
H2169 C2184 0.960 . S
H2170 C2184 0.960 . S
H2171 C2184 0.960 . S
C2172 H2164 0.929 . S
C2172 C2173 1.377 . S
C2172 C2174 1.384 . S
C2173 C2172 1.377 . S
C2173 C2179 1.390 . S
C2174 H2165 0.930 . S
C2174 C2172 1.384 . S
C2174 C2175 1.372 . S
C2175 C2174 1.372 . S
C2175 C2176 1.400 . S
C2175 C2180 1.490 . S
C2176 H2166 0.930 . S
C2176 C2175 1.400 . S
C2176 C2179 1.386 . S
H2177 C2193 0.930 . S
H2178 C2194 0.931 . S
C2179 H2167 0.929 . S
C2179 C2173 1.390 . S
C2179 C2176 1.386 . S
C2180 C2175 1.490 . S
C2180 C2182 1.395 . S
C2180 C2183 1.403 . S
H2181 C2187 0.930 . S
C2182 H2168 0.930 . S
C2182 C2180 1.395 . S
C2182 C2185 1.403 . S
C2183 C2180 1.403 . S
C2183 C2184 1.524 . S
C2183 C2187 1.400 . S
C2184 H2169 0.960 . S
C2184 H2170 0.960 . S
C2184 H2171 0.960 . S
C2184 C2183 1.524 . S
C2185 C2182 1.403 . S
C2185 C2186 1.392 . S
C2185 C2189 1.495 . S
C2186 C2185 1.392 . S
C2186 C2187 1.385 . S
C2186 C2188 1.478 . S
C2187 H2181 0.930 . S
C2187 C2183 1.400 . S
C2187 C2186 1.385 . S
C2188 C2186 1.478 . S
C2188 C2190 1.381 . S
C2188 C2194 1.383 . S
C2189 C2185 1.495 . S
C2189 H2195 0.959 . S
C2189 H2196 0.961 . S
C2189 H2197 0.960 . S
C2190 C2188 1.381 . S
C2190 C2191 1.394 . S
C2190 H2198 0.930 . S
C2191 C2190 1.394 . S
C2191 C2192 1.383 . S
C2191 H2199 0.929 . S
C2192 C2191 1.383 . S
C2192 C2193 1.377 . S
C2193 H2177 0.930 . S
C2193 C2192 1.377 . S
C2193 C2194 1.379 . S
C2194 H2178 0.931 . S
C2194 C2188 1.383 . S
C2194 C2193 1.379 . S
H2195 C2189 0.959 . S
H2196 C2189 0.961 . S
H2197 C2189 0.960 . S
H2198 C2190 0.930 . S
H2199 C2191 0.929 . S
H2200 C2208 0.929 . S
H2201 C2210 0.930 . S
H2202 C2212 0.930 . S
H2203 C2215 0.929 . S
H2204 C2218 0.930 . S
H2205 C2220 0.960 1_556 S
H2206 C2220 0.960 1_556 S
H2207 C2220 0.960 . S
C2208 H2200 0.929 . S
C2208 C2209 1.377 . S
C2208 C2210 1.384 . S
C2209 C2208 1.377 . S
C2209 C2215 1.390 . S
C2210 H2201 0.930 . S
C2210 C2208 1.384 . S
C2210 C2211 1.372 . S
C2211 C2210 1.372 . S
C2211 C2212 1.400 . S
C2211 C2216 1.490 . S
C2212 H2202 0.930 . S
C2212 C2211 1.400 . S
C2212 C2215 1.386 . S
H2213 C2229 0.930 . S
H2214 C2230 0.927 . S
C2215 H2203 0.929 . S
C2215 C2209 1.390 . S
C2215 C2212 1.386 . S
C2216 C2211 1.490 . S
C2216 C2218 1.395 . S
C2216 C2219 1.430 . S
H2217 C2223 0.930 . S
C2218 H2204 0.930 . S
C2218 C2216 1.395 . S
C2218 C2221 1.403 1_554 S
C2219 C2216 1.430 . S
C2219 C2220 1.527 . S
C2219 C2223 1.371 1_554 S
C2220 H2205 0.960 1_554 S
C2220 H2206 0.960 1_554 S
C2220 H2207 0.960 . S
C2220 C2219 1.527 . S
C2221 C2218 1.403 1_556 S
C2221 C2222 1.392 . S
C2221 C2225 1.495 . S
C2222 C2221 1.392 . S
C2222 C2223 1.385 . S
C2222 C2224 1.478 . S
C2223 H2217 0.930 . S
C2223 C2219 1.371 1_556 S
C2223 C2222 1.385 . S
C2224 C2222 1.478 . S
C2224 C2226 1.381 . S
C2224 C2230 1.383 . S
C2225 C2221 1.495 . S
C2225 H2231 0.959 1_556 S
C2225 H2232 0.961 1_556 S
C2225 H2233 0.960 . S
C2226 C2224 1.381 . S
C2226 C2227 1.394 . S
C2226 H2234 0.930 . S
C2227 C2226 1.394 . S
C2227 C2228 1.383 . S
C2227 H2235 0.929 . S
C2228 C2227 1.383 . S
C2228 C2229 1.377 . S
C2229 H2213 0.930 . S
C2229 C2228 1.377 . S
C2229 C2230 1.379 . S
C2230 H2214 0.927 . S
C2230 C2224 1.383 . S
C2230 C2229 1.379 . S
H2231 C2225 0.959 1_554 S
H2232 C2225 0.961 1_554 S
H2233 C2225 0.960 . S
H2234 C2226 0.930 . S
H2235 C2227 0.929 . S
H2236 C2244 0.929 . S
H2237 C2246 0.930 . S
H2238 C2248 0.930 . S
H2239 C2251 0.929 . S
H2240 C2254 0.930 . S
H2241 C2256 0.960 . S
H2242 C2256 0.960 . S
H2243 C2256 0.960 . S
C2244 H2236 0.929 . S
C2244 C2245 1.377 . S
C2244 C2246 1.384 . S
C2245 C2244 1.377 . S
C2245 C2251 1.390 . S
C2246 H2237 0.930 . S
C2246 C2244 1.384 . S
C2246 C2247 1.372 . S
C2247 C2246 1.372 . S
C2247 C2248 1.400 . S
C2247 C2252 1.490 . S
C2248 H2238 0.930 . S
C2248 C2247 1.400 . S
C2248 C2251 1.386 . S
H2249 C2265 0.930 . S
H2250 C2266 0.931 . S
C2251 H2239 0.929 . S
C2251 C2245 1.390 . S
C2251 C2248 1.386 . S
C2252 C2247 1.490 . S
C2252 C2254 1.395 . S
C2252 C2255 1.403 . S
H2253 C2259 0.930 . S
C2254 H2240 0.930 . S
C2254 C2252 1.395 . S
C2254 C2257 1.403 . S
C2255 C2252 1.403 . S
C2255 C2256 1.524 . S
C2255 C2259 1.400 . S
C2256 H2241 0.960 . S
C2256 H2242 0.960 . S
C2256 H2243 0.960 . S
C2256 C2255 1.524 . S
C2257 C2254 1.403 . S
C2257 C2258 1.392 . S
C2257 C2261 1.495 . S
C2258 C2257 1.392 . S
C2258 C2259 1.385 . S
C2258 C2260 1.478 . S
C2259 H2253 0.930 . S
C2259 C2255 1.400 . S
C2259 C2258 1.385 . S
C2260 C2258 1.478 . S
C2260 C2262 1.381 . S
C2260 C2266 1.383 . S
C2261 C2257 1.495 . S
C2261 H2267 0.959 . S
C2261 H2268 0.961 . S
C2261 H2269 0.960 . S
C2262 C2260 1.381 . S
C2262 C2263 1.394 . S
C2262 H2270 0.930 . S
C2263 C2262 1.394 . S
C2263 C2264 1.383 . S
C2263 H2271 0.929 . S
C2264 C2263 1.383 . S
C2264 C2265 1.377 . S
C2265 H2249 0.930 . S
C2265 C2264 1.377 . S
C2265 C2266 1.379 . S
C2266 H2250 0.931 . S
C2266 C2260 1.383 . S
C2266 C2265 1.379 . S
H2267 C2261 0.959 . S
H2268 C2261 0.961 . S
H2269 C2261 0.960 . S
H2270 C2262 0.930 . S
H2271 C2263 0.929 . S
H2272 C2280 0.929 . S
H2273 C2282 0.930 . S
H2274 C2284 0.930 . S
H2275 C2287 0.929 . S
H2276 C2290 0.930 . S
H2277 C2292 0.960 . S
H2278 C2292 0.960 . S
H2279 C2292 0.960 . S
C2280 H2272 0.929 . S
C2280 C2281 1.377 . S
C2280 C2282 1.384 . S
C2281 C2280 1.377 . S
C2281 C2287 1.390 . S
C2282 H2273 0.930 . S
C2282 C2280 1.384 . S
C2282 C2283 1.372 . S
C2283 C2282 1.372 . S
C2283 C2284 1.400 . S
C2283 C2288 1.490 . S
C2284 H2274 0.930 . S
C2284 C2283 1.400 . S
C2284 C2287 1.386 . S
H2285 C2301 0.930 . S
H2286 C2302 0.931 . S
C2287 H2275 0.929 . S
C2287 C2281 1.390 . S
C2287 C2284 1.386 . S
C2288 C2283 1.490 . S
C2288 C2290 1.395 1_556 S
C2288 C2291 1.403 . S
H2289 C2295 0.930 . S
C2290 H2276 0.930 . S
C2290 C2288 1.395 1_554 S
C2290 C2293 1.403 . S
C2291 C2288 1.403 . S
C2291 C2292 1.524 . S
C2291 C2295 1.400 . S
C2292 H2277 0.960 . S
C2292 H2278 0.960 . S
C2292 H2279 0.960 . S
C2292 C2291 1.524 . S
C2293 C2290 1.403 . S
C2293 C2294 1.392 . S
C2293 C2297 1.495 . S
C2294 C2293 1.392 . S
C2294 C2295 1.385 1_554 S
C2294 C2296 1.478 . S
C2295 H2289 0.930 . S
C2295 C2291 1.400 . S
C2295 C2294 1.385 1_556 S
C2296 C2294 1.478 . S
C2296 C2298 1.381 . S
C2296 C2302 1.383 . S
C2297 C2293 1.495 . S
C2297 H2303 0.959 . S
C2297 H2304 0.961 . S
C2297 H2305 0.960 . S
C2298 C2296 1.381 . S
C2298 C2299 1.394 . S
C2298 H2306 0.930 . S
C2299 C2298 1.394 . S
C2299 C2300 1.383 . S
C2299 H2307 0.929 . S
C2300 C2299 1.383 . S
C2300 C2301 1.377 . S
C2301 H2285 0.930 . S
C2301 C2300 1.377 . S
C2301 C2302 1.379 . S
C2302 H2286 0.931 . S
C2302 C2296 1.383 . S
C2302 C2301 1.379 . S
H2303 C2297 0.959 . S
H2304 C2297 0.961 . S
H2305 C2297 0.960 . S
H2306 C2298 0.930 . S
H2307 C2299 0.929 . S
H2308 C2316 0.929 . S
H2309 C2318 0.930 . S
H2310 C2320 0.930 . S
H2311 C2323 0.929 . S
H2312 C2326 0.930 . S
H2313 C2328 0.960 . S
H2314 C2328 0.960 . S
H2315 C2328 0.960 . S
C2316 H2308 0.929 . S
C2316 C2317 1.377 . S
C2316 C2318 1.384 . S
C2317 C2316 1.377 . S
C2317 C2323 1.390 . S
C2318 H2309 0.930 . S
C2318 C2316 1.384 . S
C2318 C2319 1.372 . S
C2319 C2318 1.372 . S
C2319 C2320 1.400 . S
C2319 C2324 1.490 . S
C2320 H2310 0.930 . S
C2320 C2319 1.400 . S
C2320 C2323 1.386 . S
H2321 C2337 0.930 . S
H2322 C2338 0.931 . S
C2323 H2311 0.929 . S
C2323 C2317 1.390 . S
C2323 C2320 1.386 . S
C2324 C2319 1.490 . S
C2324 C2326 1.395 . S
C2324 C2327 1.403 . S
H2325 C2331 0.930 . S
C2326 H2312 0.930 . S
C2326 C2324 1.395 . S
C2326 C2329 1.403 . S
C2327 C2324 1.403 . S
C2327 C2328 1.524 . S
C2327 C2331 1.400 . S
C2328 H2313 0.960 . S
C2328 H2314 0.960 . S
C2328 H2315 0.960 . S
C2328 C2327 1.524 . S
C2329 C2326 1.403 . S
C2329 C2330 1.392 . S
C2329 C2333 1.495 . S
C2330 C2329 1.392 . S
C2330 C2331 1.385 . S
C2330 C2332 1.478 . S
C2331 H2325 0.930 . S
C2331 C2327 1.400 . S
C2331 C2330 1.385 . S
C2332 C2330 1.478 . S
C2332 C2334 1.381 . S
C2332 C2338 1.383 . S
C2333 C2329 1.495 . S
C2333 H2339 0.959 . S
C2333 H2340 0.961 . S
C2333 H2341 0.960 . S
C2334 C2332 1.381 . S
C2334 C2335 1.394 . S
C2334 H2342 0.930 . S
C2335 C2334 1.394 . S
C2335 C2336 1.383 . S
C2335 H2343 0.929 . S
C2336 C2335 1.383 . S
C2336 C2337 1.377 . S
C2337 H2321 0.930 . S
C2337 C2336 1.377 . S
C2337 C2338 1.379 . S
C2338 H2322 0.931 . S
C2338 C2332 1.383 . S
C2338 C2337 1.379 . S
H2339 C2333 0.959 . S
H2340 C2333 0.961 . S
H2341 C2333 0.960 . S
H2342 C2334 0.930 . S
H2343 C2335 0.929 . S
H2344 C2352 0.929 . S
H2345 C2354 0.930 . S
H2346 C2356 0.930 . S
H2347 C2359 0.929 . S
H2348 C2362 0.930 . S
H2349 C2364 0.936 1_556 S
H2350 C2364 0.934 1_556 S
H2351 C2364 1.013 . S
C2352 H2344 0.929 . S
C2352 C2353 1.377 . S
C2352 C2354 1.384 . S
C2353 C2352 1.377 . S
C2353 C2359 1.390 . S
C2354 H2345 0.930 . S
C2354 C2352 1.384 . S
C2354 C2355 1.372 . S
C2355 C2354 1.372 . S
C2355 C2356 1.400 . S
C2355 C2360 1.490 . S
C2356 H2346 0.930 . S
C2356 C2355 1.400 . S
C2356 C2359 1.386 . S
H2357 C2373 0.930 . S
H2358 C2374 0.938 1_554 S
C2359 H2347 0.929 . S
C2359 C2353 1.390 . S
C2359 C2356 1.386 . S
C2360 C2355 1.490 . S
C2360 C2362 1.395 . S
C2360 C2363 1.422 . S
H2361 C2367 0.930 . S
C2362 H2348 0.930 . S
C2362 C2360 1.395 . S
C2362 C2365 1.403 1_554 S
C2363 C2360 1.422 . S
C2363 C2364 1.524 . S
C2363 C2367 1.380 1_554 S
C2364 H2349 0.936 1_554 S
C2364 H2350 0.934 1_554 S
C2364 H2351 1.013 . S
C2364 C2363 1.524 . S
C2365 C2362 1.403 1_556 S
C2365 C2366 1.392 . S
C2365 C2369 1.495 . S
C2366 C2365 1.392 . S
C2366 C2367 1.385 . S
C2366 C2368 1.478 . S
C2367 H2361 0.930 . S
C2367 C2363 1.380 1_556 S
C2367 C2366 1.385 . S
C2368 C2366 1.478 . S
C2368 C2370 1.381 . S
C2368 C2374 1.383 . S
C2369 C2365 1.495 . S
C2369 H2375 0.959 1_556 S
C2369 H2376 0.961 1_556 S
C2369 H2377 0.960 . S
C2370 C2368 1.381 . S
C2370 C2371 1.394 . S
C2370 H2378 0.930 . S
C2371 C2370 1.394 . S
C2371 C2372 1.383 . S
C2371 H2379 0.929 . S
C2372 C2371 1.383 . S
C2372 C2373 1.377 . S
C2373 H2357 0.930 . S
C2373 C2372 1.377 . S
C2373 C2374 1.379 . S
C2374 H2358 0.938 1_556 S
C2374 C2368 1.383 . S
C2374 C2373 1.379 . S
H2375 C2369 0.959 1_554 S
H2376 C2369 0.961 1_554 S
H2377 C2369 0.960 . S
H2378 C2370 0.930 . S
H2379 C2371 0.929 . S
H2380 C2388 0.929 . S
H2381 C2390 0.930 . S
H2382 C2392 0.930 . S
H2383 C2395 0.929 . S
H2384 C2398 0.930 . S
H2385 C2400 0.960 . S
H2386 C2400 0.960 . S
H2387 C2400 0.960 . S
C2388 H2380 0.929 . S
C2388 C2389 1.377 . S
C2388 C2390 1.384 . S
C2389 C2388 1.377 . S
C2389 C2395 1.390 . S
C2390 H2381 0.930 . S
C2390 C2388 1.384 . S
C2390 C2391 1.372 . S
C2391 C2390 1.372 . S
C2391 C2392 1.400 . S
C2391 C2396 1.490 . S
C2392 H2382 0.930 . S
C2392 C2391 1.400 . S
C2392 C2395 1.386 . S
H2393 C2409 0.930 . S
H2394 C2410 0.931 . S
C2395 H2383 0.929 . S
C2395 C2389 1.390 . S
C2395 C2392 1.386 . S
C2396 C2391 1.490 . S
C2396 C2398 1.395 . S
C2396 C2399 1.403 . S
H2397 C2403 0.930 . S
C2398 H2384 0.930 . S
C2398 C2396 1.395 . S
C2398 C2401 1.403 . S
C2399 C2396 1.403 . S
C2399 C2400 1.524 . S
C2399 C2403 1.400 . S
C2400 H2385 0.960 . S
C2400 H2386 0.960 . S
C2400 H2387 0.960 . S
C2400 C2399 1.524 . S
C2401 C2398 1.403 . S
C2401 C2402 1.392 . S
C2401 C2405 1.495 . S
C2402 C2401 1.392 . S
C2402 C2403 1.385 . S
C2402 C2404 1.478 . S
C2403 H2397 0.930 . S
C2403 C2399 1.400 . S
C2403 C2402 1.385 . S
C2404 C2402 1.478 . S
C2404 C2406 1.381 . S
C2404 C2410 1.383 . S
C2405 C2401 1.495 . S
C2405 H2411 0.959 . S
C2405 H2412 0.961 . S
C2405 H2413 0.960 . S
C2406 C2404 1.381 . S
C2406 C2407 1.394 . S
C2406 H2414 0.930 . S
C2407 C2406 1.394 . S
C2407 C2408 1.383 . S
C2407 H2415 0.929 . S
C2408 C2407 1.383 . S
C2408 C2409 1.377 . S
C2409 H2393 0.930 . S
C2409 C2408 1.377 . S
C2409 C2410 1.379 . S
C2410 H2394 0.931 . S
C2410 C2404 1.383 . S
C2410 C2409 1.379 . S
H2411 C2405 0.959 . S
H2412 C2405 0.961 . S
H2413 C2405 0.960 . S
H2414 C2406 0.930 . S
H2415 C2407 0.929 . S
H2416 C2424 0.929 . S
H2417 C2426 0.930 . S
H2418 C2428 0.930 1_554 S
H2419 C2431 0.929 . S
H2420 C2434 0.930 . S
H2421 C2436 0.960 1_554 S
H2422 C2436 0.960 . S
H2423 C2436 0.947 1_554 S
C2424 H2416 0.929 . S
C2424 C2425 1.377 . S
C2424 C2426 1.384 . S
C2425 C2424 1.377 . S
C2425 C2431 1.390 . S
C2426 H2417 0.930 . S
C2426 C2424 1.384 . S
C2426 C2427 1.372 . S
C2427 C2426 1.372 . S
C2427 C2428 1.400 . S
C2427 C2432 1.490 . S
C2428 H2418 0.930 1_556 S
C2428 C2427 1.400 . S
C2428 C2431 1.386 . S
H2429 C2445 0.930 . S
H2430 C2446 0.931 . S
C2431 H2419 0.929 . S
C2431 C2425 1.390 . S
C2431 C2428 1.386 . S
C2432 C2427 1.490 . S
C2432 C2434 1.395 . S
C2432 C2435 1.403 . S
H2433 C2439 0.930 . S
C2434 H2420 0.930 . S
C2434 C2432 1.395 . S
C2434 C2437 1.384 1_546 S
C2435 C2432 1.403 . S
C2435 C2436 1.524 . S
C2435 C2439 1.400 1_546 S
C2436 H2421 0.960 1_556 S
C2436 H2422 0.960 . S
C2436 H2423 0.947 1_556 S
C2436 C2435 1.524 . S
C2437 C2434 1.384 1_564 S
C2437 C2438 1.409 . S
C2437 C2441 1.499 . S
C2438 C2437 1.409 . S
C2438 C2439 1.385 . S
C2438 C2440 1.478 . S
C2439 H2433 0.930 . S
C2439 C2435 1.400 1_564 S
C2439 C2438 1.385 . S
C2440 C2438 1.478 . S
C2440 C2442 1.381 . S
C2440 C2446 1.383 . S
C2441 C2437 1.499 . S
C2441 H2447 0.959 1_554 S
C2441 H2448 0.961 . S
C2441 H2449 0.960 1_554 S
C2442 C2440 1.381 . S
C2442 C2443 1.394 . S
C2442 H2450 0.930 1_554 S
C2443 C2442 1.394 . S
C2443 C2444 1.383 . S
C2443 H2451 0.929 . S
C2444 C2443 1.383 . S
C2444 C2445 1.377 . S
C2445 H2429 0.930 . S
C2445 C2444 1.377 . S
C2445 C2446 1.379 . S
C2446 H2430 0.931 . S
C2446 C2440 1.383 . S
C2446 C2445 1.379 . S
H2447 C2441 0.959 1_556 S
H2448 C2441 0.961 . S
H2449 C2441 0.960 1_556 S
H2450 C2442 0.930 1_556 S
H2451 C2443 0.929 . S
H2452 C2460 0.929 . S
H2453 C2462 0.930 . S
H2454 C2464 0.930 . S
H2455 C2467 0.929 . S
H2456 C2470 0.930 . S
H2457 C2472 0.960 1_545 S
H2458 C2472 0.960 . S
H2459 C2472 0.960 . S
C2460 H2452 0.929 . S
C2460 C2461 1.377 . S
C2460 C2462 1.384 . S
C2461 C2460 1.377 . S
C2461 C2467 1.390 . S
C2462 H2453 0.930 . S
C2462 C2460 1.384 . S
C2462 C2463 1.372 . S
C2463 C2462 1.372 . S
C2463 C2464 1.400 . S
C2463 C2468 1.490 . S
C2464 H2454 0.930 . S
C2464 C2463 1.400 . S
C2464 C2467 1.386 . S
H2465 C2481 0.930 . S
H2466 C2482 0.931 . S
C2467 H2455 0.929 . S
C2467 C2461 1.390 . S
C2467 C2464 1.386 . S
C2468 C2463 1.490 . S
C2468 C2470 1.395 . S
C2468 C2471 1.403 . S
H2469 C2475 0.930 . S
C2470 H2456 0.930 . S
C2470 C2468 1.395 . S
C2470 C2473 1.403 1_565 S
C2471 C2468 1.403 . S
C2471 C2472 1.524 . S
C2471 C2475 1.400 1_565 S
C2472 H2457 0.960 1_565 S
C2472 H2458 0.960 . S
C2472 H2459 0.960 . S
C2472 C2471 1.524 . S
C2473 C2470 1.403 1_545 S
C2473 C2474 1.392 . S
C2473 C2477 1.495 . S
C2474 C2473 1.392 . S
C2474 C2475 1.385 . S
C2474 C2476 1.478 . S
C2475 H2469 0.930 . S
C2475 C2471 1.400 1_545 S
C2475 C2474 1.385 . S
C2476 C2474 1.478 . S
C2476 C2478 1.381 . S
C2476 C2482 1.383 . S
C2477 C2473 1.495 . S
C2477 H2483 0.959 1_545 S
C2477 H2484 0.961 . S
C2477 H2485 0.960 . S
C2478 C2476 1.381 . S
C2478 C2479 1.394 . S
C2478 H2486 0.930 . S
C2479 C2478 1.394 . S
C2479 C2480 1.383 . S
C2479 H2487 0.929 . S
C2480 C2479 1.383 . S
C2480 C2481 1.377 . S
C2481 H2465 0.930 . S
C2481 C2480 1.377 . S
C2481 C2482 1.379 . S
C2482 H2466 0.931 . S
C2482 C2476 1.383 . S
C2482 C2481 1.379 . S
H2483 C2477 0.959 1_565 S
H2484 C2477 0.961 . S
H2485 C2477 0.960 . S
H2486 C2478 0.930 . S
H2487 C2479 0.929 . S
H2488 C2496 0.929 . S
H2489 C2498 0.930 1_556 S
H2490 C2500 0.930 . S
H2491 C2503 0.929 . S
H2492 C2506 0.930 . S
H2493 C2508 0.960 1_545 S
H2494 C2508 0.960 . S
H2495 C2508 0.960 . S
C2496 H2488 0.929 . S
C2496 C2497 1.377 . S
C2496 C2498 1.384 . S
C2497 C2496 1.377 . S
C2497 C2503 1.390 . S
C2498 H2489 0.930 1_554 S
C2498 C2496 1.384 . S
C2498 C2499 1.372 . S
C2499 C2498 1.372 . S
C2499 C2500 1.400 . S
C2499 C2504 1.490 . S
C2500 H2490 0.930 . S
C2500 C2499 1.400 . S
C2500 C2503 1.386 . S
H2501 C2517 0.930 . S
H2502 C2518 0.931 1_554 S
C2503 H2491 0.929 . S
C2503 C2497 1.390 . S
C2503 C2500 1.386 . S
C2504 C2499 1.490 . S
C2504 C2506 1.395 1_554 S
C2504 C2507 1.403 . S
H2505 C2511 0.929 . S
C2506 H2492 0.930 . S
C2506 C2504 1.395 1_556 S
C2506 C2509 1.403 1_565 S
C2507 C2504 1.403 . S
C2507 C2508 1.524 . S
C2507 C2511 1.372 1_564 S
C2508 H2493 0.960 1_565 S
C2508 H2494 0.960 . S
C2508 H2495 0.960 . S
C2508 C2507 1.524 . S
C2509 C2506 1.403 1_545 S
C2509 C2510 1.392 . S
C2509 C2513 1.495 . S
C2510 C2509 1.392 . S
C2510 C2511 1.417 . S
C2510 C2512 1.478 . S
C2511 H2505 0.929 . S
C2511 C2507 1.372 1_546 S
C2511 C2510 1.417 . S
C2512 C2510 1.478 . S
C2512 C2514 1.381 . S
C2512 C2518 1.383 . S
C2513 C2509 1.495 . S
C2513 H2519 0.959 1_545 S
C2513 H2520 0.961 . S
C2513 H2521 0.960 . S
C2514 C2512 1.381 . S
C2514 C2515 1.394 . S
C2514 H2522 0.930 . S
C2515 C2514 1.394 . S
C2515 C2516 1.383 . S
C2515 H2523 0.929 . S
C2516 C2515 1.383 . S
C2516 C2517 1.377 . S
C2517 H2501 0.930 . S
C2517 C2516 1.377 . S
C2517 C2518 1.379 . S
C2518 H2502 0.931 1_556 S
C2518 C2512 1.383 . S
C2518 C2517 1.379 . S
H2519 C2513 0.959 1_565 S
H2520 C2513 0.961 . S
H2521 C2513 0.960 . S
H2522 C2514 0.930 . S
H2523 C2515 0.929 . S
H2524 C2532 0.929 . S
H2525 C2534 0.930 . S
H2526 C2536 0.930 . S
H2527 C2539 0.929 . S
H2528 C2542 0.930 . S
H2529 C2544 0.960 1_565 S
H2530 C2544 0.960 . S
H2531 C2544 0.960 . S
C2532 H2524 0.929 . S
C2532 C2533 1.377 . S
C2532 C2534 1.384 . S
C2533 C2532 1.377 . S
C2533 C2539 1.390 . S
C2534 H2525 0.930 . S
C2534 C2532 1.384 . S
C2534 C2535 1.372 . S
C2535 C2534 1.372 . S
C2535 C2536 1.400 . S
C2535 C2540 1.490 . S
C2536 H2526 0.930 . S
C2536 C2535 1.400 . S
C2536 C2539 1.386 . S
H2537 C2553 0.930 . S
H2538 C2554 0.931 . S
C2539 H2527 0.929 . S
C2539 C2533 1.390 . S
C2539 C2536 1.386 . S
C2540 C2535 1.490 . S
C2540 C2542 1.395 . S
C2540 C2543 1.403 . S
H2541 C2547 0.930 . S
C2542 H2528 0.930 . S
C2542 C2540 1.395 . S
C2542 C2545 1.403 1_545 S
C2543 C2540 1.403 . S
C2543 C2544 1.524 . S
C2543 C2547 1.400 1_545 S
C2544 H2529 0.960 1_545 S
C2544 H2530 0.960 . S
C2544 H2531 0.960 . S
C2544 C2543 1.524 . S
C2545 C2542 1.403 1_565 S
C2545 C2546 1.392 . S
C2545 C2549 1.495 . S
C2546 C2545 1.392 . S
C2546 C2547 1.385 . S
C2546 C2548 1.478 . S
C2547 H2541 0.930 . S
C2547 C2543 1.400 1_565 S
C2547 C2546 1.385 . S
C2548 C2546 1.478 . S
C2548 C2550 1.381 . S
C2548 C2554 1.383 . S
C2549 C2545 1.495 . S
C2549 H2555 0.959 1_565 S
C2549 H2556 0.961 . S
C2549 H2557 0.960 . S
C2550 C2548 1.381 . S
C2550 C2551 1.394 . S
C2550 H2558 0.930 . S
C2551 C2550 1.394 . S
C2551 C2552 1.383 . S
C2551 H2559 0.929 . S
C2552 C2551 1.383 . S
C2552 C2553 1.377 . S
C2553 H2537 0.930 . S
C2553 C2552 1.377 . S
C2553 C2554 1.379 . S
C2554 H2538 0.931 . S
C2554 C2548 1.383 . S
C2554 C2553 1.379 . S
H2555 C2549 0.959 1_545 S
H2556 C2549 0.961 . S
H2557 C2549 0.960 . S
H2558 C2550 0.930 . S
H2559 C2551 0.929 . S
C1417 C57 1.513 . S
C1436 C557 1.517 . S
C1453 C145 1.513 . S
C1472 C645 1.516 . S
C1489 C401 1.514 . S
C1508 C205 1.516 . S
C1525 C497 1.515 . S
C1544 C293 1.510 . S
C1561 C1261 1.513 . S
C1580 C761 1.516 . S
C1597 C1340 1.513 . S
C1616 C841 1.512 . S
C1633 C909 1.513 . S
C1652 C1105 1.514 . S
C1669 C988 1.513 . S
C1688 C1193 1.510 . S
C1705 C20 1.379 . S
C1724 C489 1.363 . S
C1741 C108 1.379 . S
C1760 C409 1.375 . S
C1777 C225 1.379 . S
C1796 C636 1.367 . S
C1813 C548 1.372 . S
C1832 C313 1.374 . S
C1849 C1201 1.373 . S
C1868 C724 1.369 . S
C1885 C1113 1.372 . S
C1904 C821 1.379 . S
C1921 C929 1.379 . S
C1940 C1349 1.369 . S
C1957 C1252 1.375 . S
C1976 C1025 1.362 . S
C1993 C1076 1.098 . S
C2012 C29 1.104 . S
C2029 C117 1.092 . S
C2048 C1164 1.085 . S
C2065 C1289 1.095 . S
C2084 C233 1.107 . S
C2101 C1369 1.092 . S
C2120 C321 1.086 . S
C2137 C733 1.092 . S
C2156 C372 1.080 . S
C2173 C812 1.093 . S
C2192 C469 1.078 . S
C2209 C585 1.095 . S
C2228 C937 1.107 . S
C2245 C673 1.095 . S
C2264 C1017 1.080 . S
C2281 C196 1.378 . S
C2300 C49 1.375 . S
C2317 C137 1.376 . S
C2336 C284 1.360 . S
C2353 C577 1.377 . S
C2372 C381 1.387 . S
C2389 C460 1.379 . S
C2408 C665 1.382 . S
C2425 C900 1.374 . S
C2444 C753 1.387 . S
C2461 C997 1.377 . S
C2480 C849 1.382 . S
C2497 C1281 1.376 . S
C2516 C1085 1.387 . S
C2533 C1377 1.377 . S
C2552 C1173 1.365 . S
