# Generated by pormake.
# Topology snz, (6)-cn, num edge types: 1
# Building blocks:
#     Node 0, Type 0, BuildingBlock: BETGAK_clean_sbu_0, # of connection points: 6
#     Node 1, Type 0, BuildingBlock: BETGAK_clean_sbu_0, # of connection points: 6
#     Node 2, Type 0, BuildingBlock: BETGAK_clean_sbu_0, # of connection points: 6
#     Node 3, Type 0, BuildingBlock: BETGAK_clean_sbu_0, # of connection points: 6
#     Node 4, Type 0, BuildingBlock: BETGAK_clean_sbu_0, # of connection points: 6
#     Node 5, Type 0, BuildingBlock: BETGAK_clean_sbu_0, # of connection points: 6
#     Node 6, Type 0, BuildingBlock: BETGAK_clean_sbu_0, # of connection points: 6
#     Node 7, Type 0, BuildingBlock: BETGAK_clean_sbu_0, # of connection points: 6
#     Node 8, Type 0, BuildingBlock: BETGAK_clean_sbu_0, # of connection points: 6
#     Edge 9, Type (0, 0), BuildingBlock: TEMPAE_clean_linker_10, # of connection points: 2
#     Edge 10, Type (0, 0), BuildingBlock: TEMPAE_clean_linker_10, # of connection points: 2
#     Edge 11, Type (0, 0), BuildingBlock: TEMPAE_clean_linker_10, # of connection points: 2
#     Edge 12, Type (0, 0), BuildingBlock: TEMPAE_clean_linker_10, # of connection points: 2
#     Edge 13, Type (0, 0), BuildingBlock: TEMPAE_clean_linker_10, # of connection points: 2
#     Edge 14, Type (0, 0), BuildingBlock: TEMPAE_clean_linker_10, # of connection points: 2
#     Edge 15, Type (0, 0), BuildingBlock: TEMPAE_clean_linker_10, # of connection points: 2
#     Edge 16, Type (0, 0), BuildingBlock: TEMPAE_clean_linker_10, # of connection points: 2
#     Edge 17, Type (0, 0), BuildingBlock: TEMPAE_clean_linker_10, # of connection points: 2
#     Edge 18, Type (0, 0), BuildingBlock: TEMPAE_clean_linker_10, # of connection points: 2
#     Edge 19, Type (0, 0), BuildingBlock: TEMPAE_clean_linker_10, # of connection points: 2
#     Edge 20, Type (0, 0), BuildingBlock: TEMPAE_clean_linker_10, # of connection points: 2
#     Edge 21, Type (0, 0), BuildingBlock: TEMPAE_clean_linker_10, # of connection points: 2
#     Edge 22, Type (0, 0), BuildingBlock: TEMPAE_clean_linker_10, # of connection points: 2
#     Edge 23, Type (0, 0), BuildingBlock: TEMPAE_clean_linker_10, # of connection points: 2
#     Edge 24, Type (0, 0), BuildingBlock: TEMPAE_clean_linker_10, # of connection points: 2
#     Edge 25, Type (0, 0), BuildingBlock: TEMPAE_clean_linker_10, # of connection points: 2
#     Edge 26, Type (0, 0), BuildingBlock: TEMPAE_clean_linker_10, # of connection points: 2
#     Edge 27, Type (0, 0), BuildingBlock: TEMPAE_clean_linker_10, # of connection points: 2
#     Edge 28, Type (0, 0), BuildingBlock: TEMPAE_clean_linker_10, # of connection points: 2
#     Edge 29, Type (0, 0), BuildingBlock: TEMPAE_clean_linker_10, # of connection points: 2
#     Edge 30, Type (0, 0), BuildingBlock: TEMPAE_clean_linker_10, # of connection points: 2
#     Edge 31, Type (0, 0), BuildingBlock: TEMPAE_clean_linker_10, # of connection points: 2
#     Edge 32, Type (0, 0), BuildingBlock: TEMPAE_clean_linker_10, # of connection points: 2
#     Edge 33, Type (0, 0), BuildingBlock: TEMPAE_clean_linker_10, # of connection points: 2
#     Edge 34, Type (0, 0), BuildingBlock: TEMPAE_clean_linker_10, # of connection points: 2
#     Edge 35, Type (0, 0), BuildingBlock: TEMPAE_clean_linker_10, # of connection points: 2
# Relax obj value: 0.434
# Max RMSD: 0.270
# Mean RMSD: 0.177
data_MOF--net-snz--node1-BETGAK_clean_sbu_0--edge1-TEMPAE_clean_linker_10
_symmetry_space_group_name_H-M    P1
_symmetry_Int_Tables_number       1
_symmetry_cell_setting            triclinic
loop_
_symmetry_equiv_pos_as_xyz
'x, y, z'
_cell_length_a     68.376825
_cell_length_b     55.13317
_cell_length_c     16.349425
_cell_angle_alpha  95.813989
_cell_angle_beta   98.008462
_cell_angle_gamma 120.71416
loop_
_atom_site_label
_atom_site_type_symbol
_atom_site_fract_x
_atom_site_fract_y
_atom_site_fract_z
_atom_type_partial_charge
La0 La 0.13425 0.50588 0.21832 0.0
La1 La 0.0981 0.5103 0.2102 0.0
C2 C 0.16393 0.49298 0.27231 0.0
C3 C 0.1713 0.47183 0.27399 0.0
C4 C 0.19484 0.48224 0.30804 0.0
C5 C 0.20195 0.46349 0.32949 0.0
C6 C 0.18574 0.43366 0.31691 0.0
C7 C 0.16232 0.42297 0.27826 0.0
C8 C 0.15512 0.44188 0.25779 0.0
C9 C 0.12458 0.51336 1.05427 0.0
C10 C 0.08427 0.44749 0.15022 0.0
C11 C 0.06751 0.52391 0.19512 0.0
C12 C 0.06133 0.54291 0.15604 0.0
C13 C 0.0382 0.5312 0.11321 0.0
C14 C 1.03098 0.54887 0.08304 0.0
C15 C 0.04674 0.5788 0.09519 0.0
C16 C 0.07011 0.59048 0.13654 0.0
C17 C 0.07736 0.57271 0.16656 0.0
C18 C 0.10978 0.50249 0.37227 0.0
C19 C 0.14562 0.56841 0.24596 0.0
O20 O 0.16523 0.50614 0.20926 0.0
O21 O 0.14568 0.48716 0.30234 0.0
O22 O 0.14483 0.52281 0.10305 0.0
O23 O 0.10972 0.49908 0.09918 0.0
O24 O 0.10675 0.45903 0.18155 0.0
O25 O 0.07626 0.46463 0.1496 0.0
O26 O 0.08594 0.53598 0.25633 0.0
O27 O 0.06585 0.50268 0.14531 0.0
O28 O 0.08957 0.48823 0.32018 0.0
O29 O 0.12329 0.51902 0.32765 0.0
O30 O 0.12425 0.55445 0.1994 0.0
O31 O 0.15342 0.55256 0.27331 0.0
H32 H 0.20764 0.5052 0.32231 0.0
H33 H 0.22015 0.47247 0.35805 0.0
H34 H 0.14935 0.40015 0.26782 0.0
H35 H 0.13678 0.43323 0.23285 0.0
H36 H 1.02546 0.50837 0.10507 0.0
H37 H 1.0128 0.53915 1.05263 0.0
H38 H 0.08277 0.61337 0.14615 0.0
H39 H 0.09534 0.58238 0.19944 0.0
La40 La 0.64936 0.5158 0.08557 0.0
La41 La 0.61205 0.51645 1.04938 0.0
C42 C 0.69034 0.52458 0.09812 0.0
C43 C 0.71365 0.54492 0.08128 0.0
C44 C 0.73383 0.55582 0.14505 0.0
C45 C 0.75618 0.57318 0.12979 0.0
C46 C 0.75909 0.58013 1.04993 0.0
C47 C 0.73877 0.56962 0.98649 0.0
C48 C 0.71638 0.55227 1.00191 0.0
C49 C 0.63214 0.50892 0.23214 0.0
C50 C 0.65464 0.57702 0.10892 0.0
C51 C 0.57076 0.50609 1.02721 0.0
C52 C 0.5506 0.48895 1.06409 0.0
C53 C 0.52798 0.47795 1.01735 0.0
C54 C 0.50859 0.4615 1.05098 0.0
C55 C 0.51143 0.45579 0.13239 0.0
C56 C 0.53421 0.46645 0.17844 0.0
C57 C 0.55359 0.48277 0.14449 0.0
C58 C 0.63037 0.52293 0.90455 0.0
C59 C 0.60378 0.45523 1.04087 0.0
O60 O 0.68371 0.53415 0.1574 0.0
O61 O 0.67288 0.50814 1.03421 0.0
O62 O 0.64101 0.49562 0.19782 0.0
O63 O 0.6321 0.52525 0.18017 0.0
O64 O 0.66413 0.56262 0.08422 0.0
O65 O 0.63252 0.56183 0.11052 0.0
O66 O 0.57699 0.49146 0.98232 0.0
O67 O 0.58885 0.52886 0.07701 0.0
O68 O 0.62295 0.53784 0.93986 0.0
O69 O 0.62874 0.50587 0.95562 0.0
O70 O 0.59633 0.4717 1.0669 0.0
O71 O 0.62578 0.46857 1.03456 0.0
H72 H 0.73233 0.55051 0.20682 0.0
H73 H 0.77121 0.58111 0.18085 0.0
H74 H 0.74011 0.57408 0.92385 0.0
H75 H 0.70124 0.54418 0.95116 0.0
H76 H 0.5253 0.4821 0.95468 0.0
H77 H 0.49135 0.45322 1.01302 0.0
H78 H 0.53714 0.46277 0.24156 0.0
H79 H 0.57093 0.49078 0.18128 0.0
La80 La 0.60211 0.06096 0.93964 0.0
La81 La 0.64826 0.11248 0.99543 0.0
C82 C 0.56112 0.02106 0.93911 0.0
C83 C 0.54408 1.01593 0.99163 0.0
C84 C 0.52326 0.98899 0.97482 0.0
C85 C 0.50624 0.98394 1.0207 0.0
C86 C 0.50961 1.00581 0.08433 0.0
C87 C 0.53078 0.03275 0.10213 0.0
C88 C 0.54786 0.03779 1.05595 0.0
C89 C 0.61626 0.07512 0.79019 0.0
C90 C 0.60594 0.1203 0.95023 0.0
C91 C 0.68985 0.13851 0.97854 0.0
C92 C 0.71354 0.15063 0.95924 0.0
C93 C 0.73409 0.17165 1.01844 0.0
C94 C 0.75615 0.17727 1.00809 0.0
C95 C 0.75815 0.16189 0.93851 0.0
C96 C 0.73766 0.14226 0.87713 0.0
C97 C 0.71583 0.13673 0.88736 0.0
C98 C 0.63437 0.10083 0.14513 0.0
C99 C 0.6417 0.05091 1.00549 0.0
O100 O 0.56603 0.04186 0.89803 0.0
O101 O 0.57983 0.02156 0.97322 0.0
O102 O 0.5977 0.05237 0.79941 0.0
O103 O 0.62734 0.0881 0.86795 0.0
O104 O 0.5944 0.09423 0.96619 0.0
O105 O 0.62871 0.13297 0.95272 0.0
O106 O 0.6819 0.15244 1.01892 0.0
O107 O 0.67403 0.11151 0.94568 0.0
O108 O 0.65314 0.12334 0.13427 0.0
O109 O 0.62254 0.08621 1.06851 0.0
O110 O 0.65482 0.07918 1.02846 0.0
O111 O 0.62009 0.03833 0.96234 0.0
H112 H 0.52008 0.97186 0.9256 0.0
H113 H 0.49043 0.96274 1.00659 0.0
H114 H 0.53395 0.05008 0.15054 0.0
H115 H 0.56386 0.0588 1.06965 0.0
H116 H 0.733 0.18243 0.07523 0.0
H117 H 0.77148 0.19259 1.05676 0.0
H118 H 0.73838 0.13052 0.82157 0.0
H119 H 0.70048 0.12043 0.84019 0.0
La120 La 0.79314 0.85696 0.34622 0.0
La121 La 0.75697 0.86221 0.33676 0.0
C122 C 0.82885 0.85369 0.38653 0.0
C123 C 0.83678 0.83335 0.37487 0.0
C124 C 0.86065 0.84442 0.38219 0.0
C125 C 0.86948 0.82656 0.38985 0.0
C126 C 0.85464 0.79718 0.3909 0.0
C127 C 0.83046 0.78572 0.37782 0.0
C128 C 0.82162 0.80363 0.36998 0.0
C129 C 0.77624 0.85243 0.17512 0.0
C130 C 0.74613 0.79918 0.29877 0.0
C131 C 0.72423 0.87207 0.30702 0.0
C132 C 0.71783 0.89195 0.27452 0.0
C133 C 0.69708 0.88944 0.28758 0.0
C134 C 0.69015 0.90757 0.25852 0.0
C135 C 0.70381 0.92893 0.21537 0.0
C136 C 0.72469 0.93137 0.20202 0.0
C137 C 0.73166 0.91313 0.23145 0.0
C138 C 0.76665 0.85207 0.49788 0.0
C139 C 0.80582 0.92085 0.38923 0.0
O140 O 0.82547 0.86471 0.32305 0.0
O141 O 0.81263 0.84666 0.42915 0.0
O142 O 0.78235 0.83633 0.20901 0.0
O143 O 0.77843 0.87003 0.24008 0.0
O144 O 0.76722 0.81204 0.34602 0.0
O145 O 0.73886 0.8159 0.2743 0.0
O146 O 0.73953 0.88193 0.37809 0.0
O147 O 0.72735 0.85577 0.25372 0.0
O148 O 0.74661 0.83975 0.44506 0.0
O149 O 0.78102 0.86838 0.4551 0.0
O150 O 0.7832 0.90904 0.36135 0.0
O151 O 0.81408 0.90392 0.39172 0.0
H152 H 0.87268 0.86724 0.38633 0.0
H153 H 0.88812 0.83602 0.3981 0.0
H154 H 0.81851 0.76327 0.3786 0.0
H155 H 0.8031 0.79452 0.36463 0.0
H156 H 0.68605 0.87324 0.32034 0.0
H157 H 0.6738 0.9045 0.26895 0.0
H158 H 0.73584 0.94765 0.16982 0.0
H159 H 0.74781 0.9156 0.22076 0.0
La160 La 0.28259 0.85168 0.48597 0.0
La161 La 0.24558 0.85319 0.45097 0.0
C162 C 0.32364 0.86175 0.49972 0.0
C163 C 0.3432 0.88051 0.46246 0.0
C164 C 0.36556 0.88627 0.49449 0.0
C165 C 0.38432 0.90436 0.46035 0.0
C166 C 0.38108 0.91719 0.39379 0.0
C167 C 0.35867 0.91177 0.36285 0.0
C168 C 0.33987 0.89347 0.39659 0.0
C169 C 0.26519 0.84524 0.63279 0.0
C170 C 0.29145 0.9134 0.50202 0.0
C171 C 0.20511 0.84629 0.43351 0.0
C172 C 0.18178 0.82808 0.45229 0.0
C173 C 0.16588 0.83703 0.44167 0.0
C174 C 0.1434 0.82016 0.45606 0.0
C175 C 0.1361 0.7937 0.48147 0.0
C176 C 0.15218 0.7848 0.4924 0.0
C177 C 0.17475 0.80177 0.47785 0.0
C178 C 0.26349 0.85978 0.30553 0.0
C179 C 0.2391 0.79128 0.43074 0.0
O180 O 0.31776 0.87505 0.55157 0.0
O181 O 0.30532 0.83993 0.44781 0.0
O182 O 0.27398 0.83181 0.59885 0.0
O183 O 0.26561 0.86167 0.58081 0.0
O184 O 0.29869 0.89702 0.47351 0.0
O185 O 0.26943 0.9 0.50785 0.0
O186 O 0.21127 0.83418 0.37908 0.0
O187 O 0.22261 0.86343 0.4965 0.0
O188 O 0.25625 0.87482 0.3417 0.0
O189 O 0.26195 0.84257 0.35616 0.0
O190 O 0.23 0.80635 0.45425 0.0
O191 O 0.26128 0.80583 0.42944 0.0
H192 H 0.3685 0.8767 0.54581 0.0
H193 H 0.40141 0.90834 0.4861 0.0
H194 H 0.35555 0.92106 0.31108 0.0
H195 H 0.32272 0.88926 0.37075 0.0
H196 H 0.17085 0.85721 0.42196 0.0
H197 H 0.13186 0.82816 0.44843 0.0
H198 H 0.14725 0.76451 0.51117 0.0
H199 H 0.18663 0.79427 0.48611 0.0
La200 La 0.24361 0.25399 0.54945 0.0
La201 La 0.29074 0.30774 0.6017 0.0
C202 C 0.20208 0.21805 0.56301 0.0
C203 C 0.18028 0.21823 0.56746 0.0
C204 C 0.15814 0.19343 0.53165 0.0
C205 C 0.1375 0.19226 0.54162 0.0
C206 C 0.13825 0.21587 0.58822 0.0
C207 C 0.16052 0.24097 0.6223 0.0
C208 C 0.18114 0.24214 0.61211 0.0
C209 C 0.25798 0.26735 0.39924 0.0
C210 C 0.24878 0.3145 0.53835 0.0
C211 C 0.33175 0.34822 0.60553 0.0
C212 C 0.34857 0.35659 0.55039 0.0
C213 C 0.37219 0.36876 0.58737 0.0
C214 C 0.38872 0.3766 0.53775 0.0
C215 C 0.38206 0.37262 0.44967 0.0
C216 C 0.35822 0.35991 0.41235 0.0
C217 C 0.3416 0.35189 0.46229 0.0
C218 C 0.27593 0.29379 0.75199 0.0
C219 C 0.28793 0.24861 0.57961 0.0
O220 O 0.20882 0.21985 0.49179 0.0
O221 O 0.21997 0.23377 0.62626 0.0
O222 O 0.2396 0.24428 0.40954 0.0
O223 O 0.26906 0.28113 0.47691 0.0
O224 O 0.23495 0.28726 0.54289 0.0
O225 O 0.27163 0.32706 0.55592 0.0
O226 O 0.32676 0.32487 0.63386 0.0
O227 O 0.31325 0.34961 0.58302 0.0
O228 O 0.29483 0.31596 0.74237 0.0
O229 O 0.26544 0.2809 0.67367 0.0
O230 O 0.29879 0.27521 0.56719 0.0
O231 O 0.26527 0.23504 0.58059 0.0
H232 H 0.15677 0.17456 0.49732 0.0
H233 H 0.12093 0.17239 0.51482 0.0
H234 H 0.1621 0.25989 0.65722 0.0
H235 H 0.19781 0.26169 0.6405 0.0
H236 H 0.37788 0.37214 0.65505 0.0
H237 H 0.40677 0.38567 0.56861 0.0
H238 H 0.35246 0.35663 0.34481 0.0
H239 H 0.32339 0.34215 0.43218 0.0
La240 La 0.44953 0.18854 0.68602 0.0
La241 La 0.4447 0.18146 0.84388 0.0
C242 C 0.44765 0.18148 0.53007 0.0
C243 C 0.42687 0.16306 0.46182 0.0
C244 C 0.42816 0.16335 0.37754 0.0
C245 C 0.40931 0.14205 0.31403 0.0
C246 C 0.38931 0.11938 0.3341 0.0
C247 C 0.3871 0.12167 0.4182 0.0
C248 C 0.40575 0.14334 0.48138 0.0
C249 C 0.47488 0.24074 0.79182 0.0
C250 C 0.41019 0.19418 0.73839 0.0
C251 C 0.44281 0.17864 0.9956 0.0
C252 C 0.44784 0.16049 1.04372 0.0
C253 C 0.45385 0.14209 1.00434 0.0
C254 C 0.45335 0.12011 1.0413 0.0
C255 C 0.4472 0.11643 0.11936 0.0
C256 C 0.44461 0.1376 0.16388 0.0
C257 C 0.44443 0.15908 0.1257 0.0
C258 C 0.42056 0.12964 0.73494 0.0
C259 C 0.48525 0.17649 0.79491 0.0
O260 O 0.44837 0.20331 0.57281 0.0
O261 O 0.45291 0.16751 0.57968 0.0
O262 O 0.46275 0.23482 0.71667 0.0
O263 O 0.47288 0.2174 0.80587 0.0
O264 O 0.41508 0.18269 0.67623 0.0
O265 O 0.42317 0.20068 0.81496 0.0
O266 O 0.42455 0.16443 0.93307 0.0
O267 O 0.46051 0.19922 0.97286 0.0
O268 O 0.43479 0.13644 0.80569 0.0
O269 O 0.42135 0.15259 0.72391 0.0
O270 O 0.47634 0.18027 0.85741 0.0
O271 O 0.47649 0.17728 0.71828 0.0
H272 H 0.4441 0.17898 0.36099 0.0
H273 H 0.41142 0.14215 0.24991 0.0
H274 H 0.37165 0.10574 0.43611 0.0
H275 H 0.40427 0.14366 0.54624 0.0
H276 H 0.45758 0.1434 0.94272 0.0
H277 H 0.45623 0.10491 1.00619 0.0
H278 H 0.44059 0.13609 0.22539 0.0
H279 H 0.44033 0.17346 0.15827 0.0
La280 La 0.94833 0.16959 0.81315 0.0
La281 La 0.9434 0.20001 0.7075 0.0
C282 C 0.95117 0.14631 0.93653 0.0
C283 C 0.96858 0.15513 1.01502 0.0
C284 C 0.99207 0.16524 1.01509 0.0
C285 C 1.00917 0.18051 0.08973 0.0
C286 C 1.00307 0.18657 0.16451 0.0
C287 C 0.97918 0.17314 0.16551 0.0
C288 C 0.96215 0.15745 0.09156 0.0
C289 C 0.92271 0.13414 0.66168 0.0
C290 C 0.90533 0.17708 0.80461 0.0
C291 C 0.94163 0.2271 0.59394 0.0
C292 C 0.96006 0.25338 0.57392 0.0
C293 C 0.95467 0.26749 0.51682 0.0
C294 C 0.97253 0.28983 0.48856 0.0
C295 C 0.99586 0.29741 0.51456 0.0
C296 C 1.00117 0.2859 0.58146 0.0
C297 C 0.98341 0.26407 0.61061 0.0
C298 C 0.96858 0.23495 0.85989 0.0
C299 C 0.98765 0.19422 0.7182 0.0
O300 O 0.9415 0.1614 0.93173 0.0
O301 O 0.95665 0.14179 0.86592 0.0
O302 O 0.93987 0.13512 0.70861 0.0
O303 O 0.92075 0.15381 0.69918 0.0
O304 O 0.92165 0.17645 0.85627 0.0
O305 O 0.90818 0.18021 0.72794 0.0
O306 O 0.93698 0.23071 0.66692 0.0
O307 O 0.94356 0.20468 0.58147 0.0
O308 O 0.95089 0.23328 0.81432 0.0
O309 O 0.97095 0.21573 0.82161 0.0
O310 O 0.97245 0.19742 0.66844 0.0
O311 O 0.98348 0.18768 0.79156 0.0
H312 H 0.99745 0.1632 0.95686 0.0
H313 H 1.02729 0.18964 0.08711 0.0
H314 H 0.97346 0.17714 0.22101 0.0
H315 H 0.94407 0.14945 0.09293 0.0
H316 H 0.93667 0.26023 0.49071 0.0
H317 H 0.96775 0.29919 0.44055 0.0
H318 H 1.01873 0.29115 0.60541 0.0
H319 H 0.98787 0.25416 0.65769 0.0
La320 La 0.93729 0.65901 0.72671 0.0
La321 La 0.95813 0.71767 0.80411 0.0
C322 C 0.9204 0.60893 0.64174 0.0
C323 C 0.92726 0.59699 0.57562 0.0
C324 C 0.90985 0.57556 0.50823 0.0
C325 C 0.91479 0.57401 0.42855 0.0
C326 C 0.93661 0.59535 0.41676 0.0
C327 C 0.95527 0.61059 0.48775 0.0
C328 C 0.95049 0.61208 0.56751 0.0
C329 C 0.96289 0.67238 0.88122 0.0
C330 C 0.98487 0.70612 0.68329 0.0
C331 C 0.97568 0.76587 0.90181 0.0
C332 C 0.97354 0.77356 0.98765 0.0
C333 C 0.95149 0.76501 1.00382 0.0
C334 C 0.94697 0.7581 0.08153 0.0
C335 C 0.96422 0.75867 0.14092 0.0
C336 C 0.98743 0.77412 0.13265 0.0
C337 C 0.99212 0.78162 1.05558 0.0
C338 C 0.9334 0.70478 0.64812 0.0
C339 C 0.90979 0.67062 0.84125 0.0
O340 O 0.9343 0.61889 0.71618 0.0
O341 O 0.91441 0.62686 0.62023 0.0
O342 O 0.94177 0.65072 0.85327 0.0
O343 O 0.96806 0.68726 0.82492 0.0
O344 O 0.96574 0.67996 0.65812 0.0
O345 O 0.98676 0.7241 0.74781 0.0
O346 O 0.957 0.75456 0.84127 0.0
O347 O 0.98592 0.75138 0.89683 0.0
O348 O 0.95369 0.72768 0.68004 0.0
O349 O 0.92771 0.68968 0.70385 0.0
O350 O 0.93001 0.6952 0.87359 0.0
O351 O 0.90755 0.65427 0.77181 0.0
H352 H 0.89189 0.56307 0.51419 0.0
H353 H 0.90035 0.56077 0.3747 0.0
H354 H 0.97268 0.62592 0.4811 0.0
H355 H 0.96439 0.628 0.6198 0.0
H356 H 0.93696 0.75964 0.95355 0.0
H357 H 0.92904 0.74704 0.08822 0.0
H358 H 1.00116 0.7755 0.17882 0.0
H359 H 1.00948 0.78925 1.04529 0.0
C360 C 0.10622 0.5165 0.90133 0.0
C361 C 0.12082 0.50989 0.953 0.0
C362 C 0.10497 0.51632 0.81095 0.0
C363 C 0.1179 0.50835 0.76373 0.0
C364 C 0.13223 0.50105 0.81539 0.0
C365 C 0.13389 0.50258 0.9061 0.0
C366 C 0.08989 0.52554 0.76588 0.0
C367 C 0.14612 0.49129 0.77444 0.0
C368 C 0.09668 0.48219 0.50903 0.0
C369 C 0.11303 0.50466 0.47311 0.0
C370 C 0.09823 0.48293 0.59934 0.0
C371 C 0.11629 0.50728 0.66286 0.0
C372 C 0.1328 0.53028 0.6272 0.0
C373 C 0.13123 0.52861 0.53612 0.0
C374 C 0.08018 0.45682 0.62686 0.0
C375 C 0.15243 0.55742 0.68608 0.0
H376 H 0.0961 0.52292 0.93234 0.0
H377 H 0.14562 0.49757 0.94083 0.0
H378 H 0.09997 0.54208 0.72986 0.0
H379 H 0.07487 0.50684 0.71991 0.0
H380 H 0.08309 0.53445 0.81006 0.0
H381 H 0.15361 0.48223 0.81723 0.0
H382 H 0.13498 0.47473 0.71615 0.0
H383 H 0.16064 0.50982 0.75602 0.0
H384 H 0.0823 0.4632 0.46541 0.0
H385 H 0.14431 0.54673 0.51435 0.0
H386 H 0.06905 0.4622 0.65769 0.0
H387 H 0.08883 0.45013 0.67399 0.0
H388 H 0.0688 0.43835 0.57313 0.0
H389 H 0.14563 0.56497 0.73385 0.0
H390 H 0.16189 0.57496 0.65201 0.0
H391 H 0.16504 0.55294 0.72033 0.0
C392 C 0.63857 0.54416 0.76584 0.0
C393 C 0.63132 0.52017 0.80645 0.0
C394 C 0.63921 0.543 0.67683 0.0
C395 C 0.63121 0.51664 0.61852 0.0
C396 C 0.62344 0.49209 0.65917 0.0
C397 C 0.62405 0.49423 0.74961 0.0
C398 C 0.64898 0.57105 0.64674 0.0
C399 C 0.61379 0.46255 0.60768 0.0
C400 C 0.61777 0.5196 0.36969 0.0
C401 C 0.63203 0.51227 0.33112 0.0
C402 C 0.6169 0.52042 0.4589 0.0
C403 C 0.63133 0.51501 0.51848 0.0
C404 C 0.64616 0.50833 0.47965 0.0
C405 C 0.64585 0.5064 0.38983 0.0
C406 C 0.5997 0.52675 0.4876 0.0
C407 C 0.66308 0.5032 0.53252 0.0
H408 H 0.64434 0.56473 0.80483 0.0
H409 H 0.61799 0.47486 0.77523 0.0
H410 H 0.65561 0.5705 0.58885 0.0
H411 H 0.63509 0.57586 0.63357 0.0
H412 H 0.66343 0.58905 0.69653 0.0
H413 H 0.59867 0.44611 0.6298 0.0
H414 H 0.60815 0.461 0.53938 0.0
H415 H 0.62738 0.4571 0.61691 0.0
H416 H 0.60648 0.52401 0.32931 0.0
H417 H 0.65716 0.50055 0.36556 0.0
H418 H 0.60714 0.5503 0.49717 0.0
H419 H 0.59536 0.51954 0.54709 0.0
H420 H 0.58328 0.51614 0.43823 0.0
H421 H 0.66773 0.51344 0.60003 0.0
H422 H 0.67939 0.51158 0.50898 0.0
H423 H 0.65516 0.47967 0.52718 0.0
C424 C 0.61344 0.05726 0.63075 0.0
C425 C 0.6217 0.0808 0.69921 0.0
C426 C 0.61538 0.05991 0.54419 0.0
C427 C 0.62482 0.08702 0.51714 0.0
C428 C 0.63297 0.11107 0.58611 0.0
C429 C 0.63173 0.10782 0.67346 0.0
C430 C 0.60704 0.03269 0.48186 0.0
C431 C 0.64274 0.14101 0.56919 0.0
C432 C 0.64994 0.10715 0.30752 0.0
C433 C 0.63043 0.09508 0.23772 0.0
C434 C 0.64842 0.10429 0.39425 0.0
C435 C 0.62654 0.08995 0.41993 0.0
C436 C 0.60658 0.07801 0.34967 0.0
C437 C 0.60869 0.08014 0.26227 0.0
C438 C 0.67104 0.11697 0.4582 0.0
C439 C 0.58226 0.06307 0.3651 0.0
H440 H 0.60525 0.03588 0.64498 0.0
H441 H 0.6379 0.12678 0.72127 0.0
H442 H 0.58793 0.02168 0.45752 0.0
H443 H 0.61569 0.03692 0.42784 0.0
H444 H 0.61021 0.01761 0.5129 0.0
H445 H 0.66203 0.15336 0.59054 0.0
H446 H 0.63808 0.14114 0.50155 0.0
H447 H 0.63636 0.15247 0.60626 0.0
H448 H 0.66716 0.11898 0.2942 0.0
H449 H 0.59295 0.07066 0.21331 0.0
H450 H 0.66882 0.10623 0.51303 0.0
H451 H 0.6782 0.14019 0.48115 0.0
H452 H 0.6842 0.11539 0.42908 0.0
H453 H 0.57399 0.03944 0.3459 0.0
H454 H 0.57139 0.069 0.32549 0.0
H455 H 0.58199 0.06833 0.43209 0.0
C456 C 0.74975 0.83764 0.63486 0.0
C457 C 0.76933 0.85392 0.59871 0.0
C458 C 0.75086 0.83831 0.72504 0.0
C459 C 0.77224 0.85572 0.78832 0.0
C460 C 0.79218 0.87227 0.75255 0.0
C461 C 0.79056 0.87128 0.66158 0.0
C462 C 0.72857 0.81986 0.75284 0.0
C463 C 0.81576 0.8914 0.81138 0.0
C464 C 0.77192 0.87439 1.03649 0.0
C465 C 0.77526 0.85451 0.07666 0.0
C466 C 0.77106 0.87517 0.9465 0.0
C467 C 0.77363 0.8558 0.88883 0.0
C468 C 0.77705 0.83585 0.92937 0.0
C469 C 0.77773 0.83545 1.01889 0.0
C470 C 0.76723 0.89715 0.91263 0.0
C471 C 0.78004 0.81432 0.87728 0.0
H472 H 0.73293 0.82386 0.59157 0.0
H473 H 0.80631 0.88435 0.63978 0.0
H474 H 0.72996 0.80404 0.78601 0.0
H475 H 0.72572 0.83349 0.79829 0.0
H476 H 0.71314 0.80801 0.69909 0.0
H477 H 0.82972 0.90331 0.77735 0.0
H478 H 0.81531 0.90716 0.85775 0.0
H479 H 0.82022 0.87823 0.84753 0.0
H480 H 0.76984 0.88963 0.07556 0.0
H481 H 0.7803 0.81961 1.0441 0.0
H482 H 0.75117 0.8861 0.86163 0.0
H483 H 0.782 0.91113 0.88451 0.0
H484 H 0.76558 0.91089 0.96224 0.0
H485 H 0.76422 0.80028 0.82608 0.0
H486 H 0.78313 0.80055 0.91545 0.0
H487 H 0.79496 0.82574 0.84691 0.0
C488 C 0.27985 0.84465 0.79165 0.0
C489 C 0.26517 0.84895 0.73177 0.0
C490 C 0.28014 0.84679 0.88148 0.0
C491 C 0.2644 0.85198 0.9191 0.0
C492 C 0.24912 0.85581 0.8583 0.0
C493 C 0.25003 0.8549 0.76911 0.0
C494 C 0.29805 0.84356 0.93569 0.0
C495 C 0.23094 0.86045 0.88555 0.0
C496 C 0.25816 0.83153 0.15106 0.0
C497 C 0.26432 0.85713 0.20719 0.0
C498 C 0.25755 0.82937 1.0606 0.0
C499 C 0.26419 0.85361 1.01911 0.0
C500 C 0.27099 0.87966 0.07655 0.0
C501 C 0.27041 0.88078 0.16567 0.0
C502 C 0.24916 0.80013 1.00994 0.0
C503 C 0.27932 0.90737 1.04534 0.0
H504 H 0.29186 0.83992 0.76832 0.0
H505 H 0.23804 0.85804 0.72773 0.0
H506 H 0.30223 0.85382 1.00289 0.0
H507 H 0.29134 0.82031 0.93115 0.0
H508 H 0.31448 0.85317 0.91263 0.0
H509 H 0.21449 0.84858 0.83612 0.0
H510 H 0.22699 0.85347 0.94563 0.0
H511 H 0.23721 0.88368 0.89333 0.0
H512 H 0.25302 0.81241 0.1773 0.0
H513 H 0.27527 0.90107 0.20397 0.0
H514 H 0.26358 0.79614 1.01928 0.0
H515 H 0.24319 0.79809 0.94154 0.0
H516 H 0.23458 0.78303 1.03262 0.0
H517 H 0.2863 0.90747 0.98797 0.0
H518 H 0.29314 0.92605 0.09495 0.0
H519 H 0.26453 0.91052 1.03072 0.0
C520 C 0.29106 0.29796 0.91335 0.0
C521 C 0.27163 0.28699 0.84377 0.0
C522 C 0.28948 0.29492 1.00003 0.0
C523 C 0.26766 0.28154 1.0264 0.0
C524 C 0.24776 0.27058 0.95632 0.0
C525 C 0.24989 0.2729 0.86881 0.0
C526 C 0.31202 0.3064 1.06326 0.0
C527 C 0.22351 0.25653 0.97215 0.0
C528 C 0.25388 0.24905 0.23804 0.0
C529 C 0.26304 0.27274 0.30717 0.0
C530 C 0.25566 0.25153 0.15107 0.0
C531 C 0.26594 0.27869 0.12405 0.0
C532 C 0.27499 0.3029 0.19365 0.0
C533 C 0.27382 0.29977 0.28128 0.0
C534 C 0.24621 0.22402 0.08823 0.0
C535 C 0.28574 0.33299 0.17718 0.0
H536 H 0.30829 0.30918 0.89988 0.0
H537 H 0.23419 0.26434 0.82028 0.0
H538 H 0.32001 0.32979 0.08684 0.0
H539 H 0.30943 0.29548 0.11773 0.0
H540 H 0.32466 0.30388 1.03326 0.0
H541 H 0.21461 0.23283 0.95198 0.0
H542 H 0.22344 0.26173 1.0394 0.0
H543 H 0.21313 0.2633 0.93356 0.0
H544 H 0.24509 0.22765 0.25202 0.0
H545 H 0.28073 0.31891 0.32933 0.0
H546 H 0.25462 0.22769 1.03358 0.0
H547 H 0.22717 0.21401 1.06486 0.0
H548 H 0.24868 0.20834 0.1185 0.0
H549 H 0.305 0.3444 0.19798 0.0
H550 H 0.28008 0.34522 0.21497 0.0
H551 H 0.28117 0.33338 0.10973 0.0
C552 C 0.3745 0.09033 0.18686 0.0
C553 C 0.37461 0.0912 0.27281 0.0
C554 C 0.37438 0.0677 0.13891 0.0
C555 C 0.3757 0.04691 0.18051 0.0
C556 C 0.36586 0.04194 0.25186 0.0
C557 C 0.3665 0.06498 0.30079 0.0
C558 C 0.37538 0.06837 1.0477 0.0
C559 C 0.35758 1.01395 0.28105 0.0
C560 C 0.42244 0.06242 0.08414 0.0
C561 C 0.43773 0.088 0.14486 0.0
C562 C 0.40234 0.04025 0.10429 0.0
C563 C 0.39726 0.04559 0.18237 0.0
C564 C 0.41693 0.0648 0.24947 0.0
C565 C 0.43703 0.08662 0.22945 0.0
C566 C 0.38521 1.01333 1.03925 0.0
C567 C 0.41625 0.06543 0.34132 0.0
H568 H 0.37713 0.10859 0.15952 0.0
H569 H 0.36359 0.06342 0.3638 0.0
H570 H 0.39373 0.08216 1.04239 0.0
H571 H 0.36745 0.04643 1.00988 0.0
H572 H 0.3658 0.07801 1.02027 0.0
H573 H 0.33876 0.99902 0.25154 0.0
H574 H 0.36688 1.00348 0.2614 0.0
H575 H 0.35944 1.01709 0.35034 0.0
H576 H 0.42401 0.06121 1.01908 0.0
H577 H 0.45049 0.10448 0.27892 0.0
H578 H 0.36759 1.0022 1.05353 0.0
H579 H 0.39153 0.99836 1.03921 0.0
H580 H 0.38411 0.01814 0.975 0.0
H581 H 0.4118 0.08125 0.36428 0.0
H582 H 0.43372 0.07266 0.37976 0.0
H583 H 0.4036 0.04394 0.35231 0.0
C584 C 0.03608 0.31851 0.48706 0.0
C585 C 1.0124 0.3087 0.4573 0.0
C586 C 0.04715 0.30889 0.43863 0.0
C587 C 0.03432 0.29041 0.35939 0.0
C588 C 1.01384 0.28894 0.32026 0.0
C589 C 1.00313 0.29859 0.36994 0.0
C590 C 0.07071 0.31432 0.47695 0.0
C591 C 1.00089 0.27222 0.23138 0.0
C592 C 0.03735 0.23715 0.21132 0.0
C593 C 1.0205 0.21175 0.23282 0.0
C594 C 0.04574 0.26415 0.26137 0.0
C595 C 0.03655 0.26555 0.33256 0.0
C596 C 1.02317 0.23994 0.3628 0.0
C597 C 1.01607 0.21333 0.31368 0.0
C598 C 0.06192 0.29063 0.23059 0.0
C599 C 1.0127 0.23979 0.43846 0.0
H600 H 0.04449 0.32926 0.55237 0.0
H601 H 0.9857 0.29322 0.34284 0.0
H602 H 0.06866 0.29437 0.49449 0.0
H603 H 0.08182 0.32008 0.43002 0.0
H604 H 0.07967 0.3318 0.53417 0.0
H605 H 1.01308 0.27881 0.18821 0.0
H606 H 0.99316 0.24884 0.22947 0.0
H607 H 0.98656 0.2755 0.20774 0.0
H608 H 0.04192 0.23652 0.15068 0.0
H609 H 1.00426 0.19371 0.33333 0.0
H610 H 0.07794 0.2907 0.22497 0.0
H611 H 0.06704 0.31097 0.27275 0.0
H612 H 0.05342 0.28965 0.16633 0.0
H613 H 1.00704 0.2197 0.46306 0.0
H614 H 0.99714 0.24125 0.41987 0.0
H615 H 1.0252 0.25839 0.49006 0.0
C616 C 0.91994 0.61873 0.33668 0.0
C617 C 0.937 0.61155 0.34947 0.0
C618 C 0.92374 0.64227 0.30105 0.0
C619 C 0.94483 0.65858 0.27529 0.0
C620 C 0.96125 0.65007 0.28066 0.0
C621 C 0.95714 0.62656 0.318 0.0
C622 C 0.90607 0.65113 0.29779 0.0
C623 C 0.98363 0.6667 0.25113 0.0
C624 C 0.94474 0.70631 0.12695 0.0
C625 C 0.95721 0.73354 0.18058 0.0
C626 C 0.94078 0.68181 0.15684 0.0
C627 C 0.94955 0.6846 0.24287 0.0
C628 C 0.96195 0.71197 0.29817 0.0
C629 C 0.96595 0.73637 0.26584 0.0
C630 C 0.92708 0.65305 0.09589 0.0
C631 C 0.97124 0.71551 0.39085 0.0
H632 H 0.90449 0.60781 0.36209 0.0
H633 H 0.97037 0.62118 0.32795 0.0
H634 H 0.91405 0.67247 0.33999 0.0
H635 H 0.90082 0.65338 0.23312 0.0
H636 H 0.89013 0.63543 0.31761 0.0
H637 H 0.97975 0.66902 0.18518 0.0
H638 H 0.99469 0.6887 0.29076 0.0
H639 H 0.99378 0.65614 0.25462 0.0
H640 H 0.93901 0.70434 1.06011 0.0
H641 H 0.97614 0.75758 0.30646 0.0
H642 H 0.90872 0.64141 0.10256 0.0
H643 H 0.93419 0.63936 0.10909 0.0
H644 H 0.92696 0.65564 1.02932 0.0
H645 H 0.95753 0.69925 0.41866 0.0
H646 H 0.97761 0.73733 0.42692 0.0
H647 H 0.98592 0.71198 0.39877 0.0
C648 C 0.25088 0.35361 0.46589 0.0
C649 C 0.2384 0.33096 0.50681 0.0
C650 C 0.24124 0.36874 0.43206 0.0
C651 C 0.2187 0.36173 0.44094 0.0
C652 C 0.206 0.33889 0.48239 0.0
C653 C 0.21584 0.32355 0.51365 0.0
C654 C 0.25525 0.39226 0.38651 0.0
C655 C 0.18214 0.33092 0.49493 0.0
C656 C 0.20692 0.42234 0.43068 0.0
C657 C 0.19323 0.41436 0.34874 0.0
C658 C 0.21464 0.40504 0.46196 0.0
C659 C 0.20899 0.37916 0.40985 0.0
C660 C 0.19498 0.3708 0.32718 0.0
C661 C 0.18707 0.38829 0.29804 0.0
C662 C 0.22908 0.41467 0.5509 0.0
C663 C 0.18886 0.34376 0.2686 0.0
H664 H 0.26812 0.3592 0.45862 0.0
H665 H 0.20598 0.30603 0.54471 0.0
H666 H 0.24485 0.3882 0.32255 0.0
H667 H 0.25942 0.4133 0.42105 0.0
H668 H 0.27184 0.39392 0.38023 0.0
H669 H 0.17438 0.3125 0.52749 0.0
H670 H 0.18334 0.34971 0.5328 0.0
H671 H 0.17018 0.32523 0.43318 0.0
H672 H 0.21149 0.44219 0.47092 0.0
H673 H 0.17659 0.38195 0.23462 0.0
H674 H 0.24682 0.41924 0.54968 0.0
H675 H 0.2211 0.39721 0.58664 0.0
H676 H 0.23076 0.43432 0.58523 0.0
H677 H 0.20505 0.34551 0.25643 0.0
H678 H 0.1773 0.33974 0.20727 0.0
H679 H 0.18003 0.32486 0.29839 0.0
C680 C 0.66035 0.62332 0.18671 0.0
C681 C 0.6683 0.60969 0.13518 0.0
C682 C 0.67271 0.65372 0.21339 0.0
C683 C 0.6935 0.67177 0.18652 0.0
C684 C 0.70151 0.65815 0.13366 0.0
C685 C 0.68913 0.62755 0.10985 0.0
C686 C 0.66359 0.66655 0.27173 0.0
C687 C 0.72317 0.676 0.1014 0.0
C688 C 0.71333 0.75221 0.19909 0.0
C689 C 0.73186 0.76654 0.27091 0.0
C690 C 0.70109 0.72179 0.17034 0.0
C691 C 0.7069 0.70462 0.21502 0.0
C692 C 0.72535 0.71901 0.28836 0.0
C693 C 0.73764 0.74944 0.3144 0.0
C694 C 0.68206 0.70801 0.09098 0.0
C695 C 0.7321 0.70219 0.34017 0.0
H696 H 0.64449 0.61007 0.20779 0.0
H697 H 0.69558 0.61761 1.07001 0.0
H698 H 0.6772 0.67982 0.33029 0.0
H699 H 0.6595 0.68101 0.24136 0.0
H700 H 0.64764 0.64981 0.28913 0.0
H701 H 0.7267 0.66253 1.05813 0.0
H702 H 0.72133 0.69143 1.06751 0.0
H703 H 0.7385 0.68885 0.15507 0.0
H704 H 0.70871 0.76488 0.16391 0.0
H705 H 0.75184 0.75991 0.36988 0.0
H706 H 0.66518 0.69238 0.10532 0.0
H707 H 0.68596 0.69581 1.0447 0.0
H708 H 0.68006 0.72412 1.06139 0.0
H709 H 0.7167 0.68577 0.36096 0.0
H710 H 0.74629 0.71623 0.39676 0.0
H711 H 0.73796 0.69055 0.30126 0.0
C712 C 0.49667 1.00935 0.2198 0.0
C713 C 0.49106 0.99997 0.13193 0.0
C714 C 0.47909 1.00056 0.26596 0.0
C715 C 0.4554 0.98169 0.22339 0.0
C716 C 0.4496 0.97397 0.13426 0.0
C717 C 0.46746 0.98331 0.0897 0.0
C718 C 0.48592 1.01011 0.36068 0.0
C719 C 0.42456 0.95436 0.08615 0.0
C720 C 0.41509 0.92493 0.3341 0.0
C721 C 0.40073 0.93481 0.35382 0.0
C722 C 0.43312 0.94034 0.29319 0.0
C723 C 0.43711 0.96652 0.27166 0.0
C724 C 0.42288 0.97691 0.29232 0.0
C725 C 0.40483 0.96089 0.33315 0.0
C726 C 0.4475 0.92811 0.27082 0.0
C727 C 0.42674 1.00495 0.27208 0.0
H728 H 0.51483 0.02238 0.25311 0.0
H729 H 0.46292 0.97676 1.02158 0.0
H730 H 0.47478 0.0174 0.38274 0.0
H731 H 0.48316 0.99166 0.39017 0.0
H732 H 0.50451 0.02786 0.38304 0.0
H733 H 0.42282 0.95243 1.01685 0.0
H734 H 0.41745 0.93255 0.10072 0.0
H735 H 0.41368 0.96243 0.10581 0.0
H736 H 0.41179 0.9046 0.34868 0.0
H737 H 0.39396 0.96883 0.34923 0.0
H738 H 0.46626 0.94387 0.29936 0.0
H739 H 0.44554 0.92398 0.2014 0.0
H740 H 0.44231 0.90766 0.29273 0.0
H741 H 0.44245 0.02317 0.317 0.0
H742 H 0.41164 1.00708 0.27724 0.0
H743 H 0.42986 1.00695 0.20762 0.0
C744 C 0.59918 0.16205 0.9375 0.0
C745 C 0.59129 0.13256 0.9216 0.0
C746 C 0.58374 0.17173 0.91488 0.0
C747 C 0.55985 0.15166 0.87384 0.0
C748 C 0.55223 0.1221 0.85519 0.0
C749 C 0.56777 0.11309 0.8794 0.0
C750 C 0.59283 0.20342 0.93702 0.0
C751 C 0.52729 0.0996 0.81121 0.0
C752 C 0.51088 0.16602 0.89351 0.0
C753 C 0.50512 0.17138 0.81387 0.0
C754 C 0.5289 0.16058 0.91425 0.0
C755 C 0.54223 0.16073 0.85481 0.0
C756 C 0.53694 0.16678 0.77483 0.0
C757 C 0.51849 0.1718 0.7552 0.0
C758 C 0.53324 0.15384 0.9997 0.0
C759 C 0.55056 0.16747 0.70918 0.0
H760 H 0.61715 0.17744 0.97002 0.0
H761 H 0.56128 0.09028 0.86517 0.0
H762 H 0.58873 0.21093 0.8804 0.0
H763 H 0.58402 0.20719 0.98438 0.0
H764 H 0.61198 0.21658 0.96317 0.0
H765 H 0.5243 0.07768 0.79694 0.0
H766 H 0.51536 0.09914 0.85147 0.0
H767 H 0.52249 0.10508 0.75128 0.0
H768 H 0.50095 0.16556 0.94012 0.0
H769 H 0.51455 0.17606 0.69375 0.0
H770 H 0.55187 0.16847 1.0322 0.0
H771 H 0.5294 0.1315 0.99194 0.0
H772 H 0.52229 0.15594 1.04067 0.0
H773 H 0.56955 0.18216 0.73641 0.0
H774 H 0.54576 0.17464 0.65285 0.0
H775 H 0.54732 0.14567 0.68877 0.0
C776 C 0.98409 0.27722 0.98025 0.0
C777 C 0.98809 0.26385 0.91224 0.0
C778 C 1.00048 0.30623 1.02221 0.0
C779 C 1.02139 0.32316 0.99452 0.0
C780 C 1.02565 0.30956 0.9264 0.0
C781 C 1.00919 0.28022 0.88694 0.0
C782 C 0.99515 0.31898 0.09549 0.0
C783 C 0.04718 0.32642 0.89245 0.0
C784 C 0.04888 0.40579 1.04448 0.0
C785 C 0.06836 0.41569 0.11084 0.0
C786 C 0.03406 0.37621 1.00508 0.0
C787 C 0.03801 0.35525 1.03388 0.0
C788 C 0.05755 0.36517 0.10155 0.0
C789 C 0.07258 0.39503 0.1379 0.0
C790 C 1.01413 0.36741 0.93189 0.0
C791 C 0.0622 0.34411 0.13767 0.0
H792 H 0.96779 0.26503 0.99987 0.0
H793 H 1.0123 0.27052 0.83324 0.0
H794 H 1.00924 0.32661 0.15256 0.0
H795 H 0.99459 0.33795 0.08198 0.0
H796 H 0.97823 0.30326 0.10958 0.0
H797 H 0.04841 0.31283 0.84092 0.0
H798 H 0.04699 0.34437 0.86792 0.0
H799 H 0.06307 0.33614 0.94371 0.0
H800 H 0.04544 0.42136 1.0219 0.0
H801 H 0.0874 0.40213 0.1892 0.0
H802 H 0.99727 0.35303 0.94856 0.0
H803 H 1.01521 0.35507 0.87654 0.0
H804 H 1.01409 0.38622 0.91343 0.0
H805 H 0.04785 0.33076 0.16842 0.0
H806 H 0.079 0.35501 0.18509 0.0
H807 H 0.06242 0.32939 0.08681 0.0
C808 C 0.86897 0.63301 0.84666 0.0
C809 C 0.88928 0.66017 0.88186 0.0
C810 C 0.8491 0.62219 0.88118 0.0
C811 C 0.84923 0.63861 0.95394 0.0
C812 C 0.86978 0.66587 0.99111 0.0
C813 C 0.8894 0.67648 0.954 0.0
C814 C 0.82778 0.59306 0.83899 0.0
C815 C 0.87096 0.68401 1.0694 0.0
C816 C 0.78791 0.61719 0.9783 0.0
C817 C 0.78309 0.59742 1.03208 0.0
C818 C 0.80977 0.63196 0.95628 0.0
C819 C 0.82752 0.62705 0.98858 0.0
C820 C 0.82321 0.6082 1.04603 0.0
C821 C 0.80115 0.5936 1.06671 0.0
C822 C 0.81354 0.65202 0.89558 0.0
C823 C 0.8416 0.60244 0.08289 0.0
H824 H 0.86844 0.62 0.79107 0.0
H825 H 0.90471 0.69761 0.98108 0.0
H826 H 0.82306 0.57841 0.88443 0.0
H827 H 0.81271 0.59528 0.81835 0.0
H828 H 0.83049 0.58283 0.78318 0.0
H829 H 0.88902 0.70246 0.0975 0.0
H830 H 0.85965 0.69256 1.05338 0.0
H831 H 0.86438 0.67082 0.11753 0.0
H832 H 0.77446 0.62099 0.95252 0.0
H833 H 0.79783 0.57834 0.10782 0.0
H834 H 0.79892 0.65556 0.8818 0.0
H835 H 0.81531 0.64288 0.83539 0.0
H836 H 0.82998 0.67316 0.92156 0.0
H837 H 0.84409 0.58983 1.03265 0.0
H838 H 0.83675 0.5902 0.13425 0.0
H839 H 0.85861 0.62298 0.1081 0.0
C840 C 0.97205 0.64813 0.9871 0.0
C841 C 0.97982 0.66764 0.93291 0.0
C842 C 0.98546 0.63742 1.0209 0.0
C843 C 1.0071 0.64609 0.99901 0.0
C844 C 1.01578 0.66728 0.94881 0.0
C845 C 1.00209 0.67796 0.91679 0.0
C846 C 0.9755 0.61505 1.07451 0.0
C847 C 0.03868 0.67705 0.92353 0.0
C848 C 0.04522 0.62368 0.12004 0.0
C849 C 0.03839 0.59761 1.06742 0.0
C850 C 0.03578 0.64021 0.09766 0.0
C851 C 1.01915 0.63055 1.02069 0.0
C852 C 1.01282 0.60479 0.96605 0.0
C853 C 1.02249 0.5887 0.99002 0.0
C854 C 0.04293 0.66745 0.15778 0.0
C855 C 0.99528 0.59373 0.8831 0.0
H856 H 0.95477 0.63981 0.99887 0.0
H857 H 1.00816 0.69285 0.87432 0.0
H858 H 0.96944 0.59356 1.03708 0.0
H859 H 0.98902 0.61961 0.13026 0.0
H860 H 0.96048 0.614 0.09657 0.0
H861 H 0.04444 0.69621 0.89409 0.0
H862 H 0.05251 0.68224 0.97901 0.0
H863 H 0.03677 0.65932 0.87749 0.0
H864 H 0.05732 0.63064 0.18031 0.0
H865 H 1.01739 0.56888 0.9483 0.0
H866 H 1.02772 0.66469 0.18222 0.0
H867 H 0.04866 0.68569 0.12441 0.0
H868 H 0.05726 0.67318 0.21214 0.0
H869 H 0.97803 0.5883 0.89488 0.0
H870 H 0.99318 0.57424 0.84573 0.0
H871 H 1.00068 0.61067 0.8448 0.0
C872 C 0.59149 0.40452 0.9655 0.0
C873 C 0.5867 0.42263 1.01436 0.0
C874 C 0.57439 0.37464 0.93347 0.0
C875 C 0.55165 0.3618 0.95065 0.0
C876 C 0.54705 0.37985 1.00227 0.0
C877 C 0.56431 0.40961 1.03251 0.0
C878 C 0.58049 0.35694 0.87861 0.0
C879 C 0.52352 0.36785 1.02423 0.0
C880 C 0.49846 0.29472 0.79593 0.0
C881 C 0.4947 0.2714 0.83458 0.0
C882 C 0.51684 0.32361 0.83197 0.0
C883 C 0.53225 0.33032 0.91044 0.0
C884 C 0.52852 0.30689 0.95032 0.0
C885 C 0.51007 0.27798 0.9121 0.0
C886 C 0.51974 0.34712 0.78545 0.0
C887 C 0.54397 0.3124 1.03413 0.0
H888 H 0.60845 0.41389 0.94985 0.0
H889 H 0.56002 0.42291 1.06987 0.0
H890 H 0.57682 0.33738 0.90335 0.0
H891 H 0.56942 0.34964 0.81397 0.0
H892 H 0.59911 0.36925 0.87471 0.0
H893 H 0.52305 0.38382 1.06985 0.0
H894 H 0.50993 0.36105 0.96619 0.0
H895 H 0.5189 0.34848 1.05157 0.0
H896 H 0.48697 0.2904 0.73625 0.0
H897 H 0.50761 0.26052 0.94335 0.0
H898 H 0.53762 0.35903 0.77392 0.0
H899 H 0.51753 0.36284 0.82454 0.0
H900 H 0.50697 0.33859 0.72398 0.0
H901 H 0.56243 0.32305 1.02863 0.0
H902 H 0.53908 0.29225 1.05751 0.0
H903 H 0.54289 0.32729 0.08163 0.0
C904 C 0.86796 0.17665 0.77409 0.0
C905 C 0.8845 0.17518 0.83143 0.0
C906 C 0.84842 0.17548 0.79726 0.0
C907 C 0.84498 0.1727 0.88019 0.0
C908 C 0.86166 0.17134 0.93874 0.0
C909 C 0.88115 0.17261 0.9138 0.0
C910 C 0.83129 0.17703 0.73234 0.0
C911 C 0.85884 0.16835 1.02773 0.0
C912 C 0.80206 0.19198 0.94856 0.0
C913 C 0.78103 0.16496 0.93035 0.0
C914 C 0.82311 0.1948 0.93528 0.0
C915 C 0.82339 0.17003 0.90355 0.0
C916 C 0.80243 0.14264 0.88836 0.0
C917 C 0.78168 0.14047 0.90173 0.0
C918 C 0.84493 0.22445 0.95268 0.0
C919 C 0.80172 0.11553 0.8557 0.0
H920 H 0.87026 0.17876 0.71039 0.0
H921 H 0.89378 0.17158 0.95897 0.0
H922 H 0.81384 0.15694 0.72083 0.0
H923 H 0.82942 0.19514 0.75618 0.0
H924 H 0.83672 0.18002 0.67133 0.0
H925 H 0.8736 0.16848 1.06655 0.0
H926 H 0.85754 0.1862 1.05856 0.0
H927 H 0.84239 0.14793 1.02674 0.0
H928 H 0.80193 0.2111 0.97065 0.0
H929 H 0.7658 0.11937 0.88932 0.0
H930 H 0.85019 0.22984 0.8926 0.0
H931 H 0.85953 0.22495 0.99385 0.0
H932 H 0.84244 0.24129 0.98332 0.0
H933 H 0.78452 0.09575 0.85229 0.0
H934 H 0.81543 0.11436 0.89685 0.0
H935 H 0.80539 0.11589 0.79169 0.0
C936 C 0.67457 0.04667 0.07906 0.0
C937 C 0.65142 0.03323 1.03274 0.0
C938 C 0.68383 0.03053 0.10803 0.0
C939 C 0.66972 1.00001 0.09067 0.0
C940 C 0.64642 0.98629 1.04337 0.0
C941 C 0.63759 1.00296 1.01508 0.0
C942 C 0.70871 0.04624 0.15818 0.0
C943 C 0.63066 0.95388 1.0234 0.0
C944 C 0.69873 0.956 0.10562 0.0
C945 C 0.69603 0.9482 0.18448 0.0
C946 C 0.69046 0.97291 0.07469 0.0
C947 C 0.67915 0.98249 0.12346 0.0
C948 C 0.67673 0.97512 0.20366 0.0
C949 C 0.68515 0.95822 0.23301 0.0
C950 C 0.69355 0.98023 0.98908 0.0
C951 C 0.66507 0.98498 0.25855 0.0
H952 H 0.68553 0.06998 0.09345 0.0
H953 H 0.61971 0.99221 0.97973 0.0
H954 H 0.70905 0.04116 0.22212 0.0
H955 H 0.71878 0.03891 0.12737 0.0
H956 H 0.71762 0.06997 0.16475 0.0
H957 H 0.61318 0.94639 0.98454 0.0
H958 H 0.63875 0.94423 0.9891 0.0
H959 H 0.62839 0.94569 0.08282 0.0
H960 H 0.70685 0.94829 1.0669 0.0
H961 H 0.68329 0.95295 0.29466 0.0
H962 H 0.70326 1.00394 0.99458 0.0
H963 H 0.67623 0.9712 0.94658 0.0
H964 H 0.70309 0.97173 0.95949 0.0
H965 H 0.67438 1.00884 0.27174 0.0
H966 H 0.66467 0.97769 0.31954 0.0
H967 H 0.64689 0.97656 0.22498 0.0
C968 C 0.23222 0.74438 0.35175 0.0
C969 C 0.22479 0.75854 0.40404 0.0
C970 C 0.21929 0.71394 0.32448 0.0
C971 C 0.19843 0.69631 0.35156 0.0
C972 C 0.19089 0.71046 0.40495 0.0
C973 C 0.20383 0.74112 0.42923 0.0
C974 C 0.22795 0.70062 0.26557 0.0
C975 C 0.16922 0.69312 0.43769 0.0
C976 C 0.1537 0.61797 0.22704 0.0
C977 C 0.15969 0.60118 0.27127 0.0
C978 C 0.16606 0.64852 0.2517 0.0
C979 C 0.18478 0.66332 0.32437 0.0
C980 C 0.19072 0.64641 0.36979 0.0
C981 C 0.17844 0.61594 0.3424 0.0
C982 C 0.15917 0.66503 0.19904 0.0
C983 C 0.20995 0.66051 0.44858 0.0
H984 H 0.24814 0.75726 0.33056 0.0
H985 H 0.19772 0.75143 0.46949 0.0
H986 H 0.23218 0.68633 0.29631 0.0
H987 H 0.21406 0.68709 0.2079 0.0
H988 H 0.24374 0.71709 0.24665 0.0
H989 H 0.16582 0.70695 0.48002 0.0
H990 H 0.15385 0.68007 0.38427 0.0
H991 H 0.17099 0.67788 0.47281 0.0
H992 H 0.13932 0.60719 0.17213 0.0
H993 H 0.18323 0.60355 0.37827 0.0
H994 H 0.1744 0.68097 0.17639 0.0
H995 H 0.15373 0.67723 0.2379 0.0
H996 H 0.14464 0.6507 0.14364 0.0
H997 H 0.22679 0.67571 0.43311 0.0
H998 H 0.21189 0.64457 0.47937 0.0
H999 H 0.20636 0.67324 0.4943 0.0
C1000 C 0.47263 0.445 0.15818 0.0
C1001 C 0.49082 0.43983 0.17034 0.0
C1002 C 0.45381 0.43164 0.19758 0.0
C1003 C 0.45314 0.41275 0.25127 0.0
C1004 C 0.471 0.40664 0.2617 0.0
C1005 C 0.48959 0.42021 0.22108 0.0
C1006 C 0.43511 0.43868 0.18439 0.0
C1007 C 0.47091 0.38655 0.31809 0.0
C1008 C 0.4217 0.4085 0.42858 0.0
C1009 C 0.40014 0.38245 0.39807 0.0
C1010 C 0.43913 0.4182 0.38209 0.0
C1011 C 0.43496 0.40165 0.30232 0.0
C1012 C 0.41328 0.37531 0.27085 0.0
C1013 C 0.39612 0.36602 0.31908 0.0
C1014 C 0.46197 0.44642 0.41809 0.0
C1015 C 0.40817 0.35705 0.18612 0.0
H1016 H 0.47347 0.46033 0.12004 0.0
H1017 H 0.50329 0.41561 0.2297 0.0
H1018 H 0.41756 0.4186 0.16593 0.0
H1019 H 0.43591 0.4509 0.24435 0.0
H1020 H 0.43705 0.45174 0.13514 0.0
H1021 H 0.48489 0.3821 0.31386 0.0
H1022 H 0.47344 0.39622 0.38456 0.0
H1023 H 0.45381 0.36582 0.30134 0.0
H1024 H 0.42488 0.42165 0.48869 0.0
H1025 H 0.37966 0.34571 0.29529 0.0
H1026 H 0.46453 0.46189 0.37601 0.0
H1027 H 0.47672 0.44307 0.42165 0.0
H1028 H 0.46275 0.45628 0.48212 0.0
H1029 H 0.40921 0.36947 0.13584 0.0
H1030 H 0.39061 0.33693 0.17113 0.0
H1031 H 0.42147 0.35125 0.18481 0.0
C1032 C 0.89624 0.70353 0.60863 0.0
C1033 C 0.91662 0.70721 0.58736 0.0
C1034 C 0.88383 0.71405 0.56513 0.0
C1035 C 0.89172 0.72802 0.49767 0.0
C1036 C 0.91087 0.72895 0.47054 0.0
C1037 C 0.92333 0.71901 0.51671 0.0
C1038 C 0.86364 0.71268 0.59677 0.0
C1039 C 0.91949 0.74266 0.39732 0.0
C1040 C 0.85399 0.75055 0.37308 0.0
C1041 C 0.86459 0.77945 0.41367 0.0
C1042 C 0.86286 0.7336 0.39798 0.0
C1043 C 0.8826 0.7457 0.4658 0.0
C1044 C 0.89349 0.77493 0.50615 0.0
C1045 C 0.88441 0.79135 0.47963 0.0
C1046 C 0.85101 0.70272 0.35231 0.0
C1047 C 0.91452 0.7888 0.5789 0.0
H1048 H 0.89115 0.6947 0.66383 0.0
H1049 H 0.93913 0.72194 0.50037 0.0
H1050 H 0.8691 0.73451 0.62968 0.0
H1051 H 0.84871 0.70557 0.54347 0.0
H1052 H 0.85768 0.69783 0.6415 0.0
H1053 H 0.93077 0.73601 0.37279 0.0
H1054 H 0.90469 0.73694 0.34514 0.0
H1055 H 0.92987 0.76644 0.41829 0.0
H1056 H 0.83879 0.7412 0.32166 0.0
H1057 H 0.8925 0.81343 0.51256 0.0
H1058 H 0.84368 0.68805 0.39643 0.0
H1059 H 0.86389 0.69888 0.32915 0.0
H1060 H 0.83668 0.69698 0.29792 0.0
H1061 H 0.91002 0.77709 0.63141 0.0
H1062 H 0.92107 0.81181 0.60306 0.0
H1063 H 0.92885 0.78746 0.55894 0.0
C1064 C 0.38153 0.09065 0.63172 0.0
C1065 C 0.40062 0.09842 0.69761 0.0
C1066 C 0.36325 0.06127 0.59851 0.0
C1067 C 0.36322 0.03847 0.63282 0.0
C1068 C 0.382 0.04635 0.70133 0.0
C1069 C 0.40034 0.07569 0.73142 0.0
C1070 C 0.34394 0.05447 0.52553 0.0
C1071 C 0.38276 0.02372 0.74393 0.0
C1072 C 0.3051 0.96318 0.58886 0.0
C1073 C 0.30867 0.94592 0.53071 0.0
C1074 C 0.32245 0.99289 0.62237 0.0
C1075 C 0.34405 1.0066 0.59612 0.0
C1076 C 0.34749 0.9893 0.53617 0.0
C1077 C 0.33014 0.95957 0.50548 0.0
C1078 C 0.31809 1.00924 0.68957 0.0
C1079 C 0.36996 1.00177 0.50599 0.0
H1080 H 0.38069 0.10749 0.6062 0.0
H1081 H 0.41455 0.08087 0.78297 0.0
H1082 H 0.34419 0.04124 0.4703 0.0
H1083 H 0.3267 0.04147 0.54123 0.0
H1084 H 0.34547 0.07417 0.50785 0.0
H1085 H 0.3961 0.03334 0.80424 0.0
H1086 H 0.36549 1.00871 0.75694 0.0
H1087 H 0.38697 1.01086 0.70161 0.0
H1088 H 0.28903 0.95317 0.61092 0.0
H1089 H 0.33358 0.94685 0.46163 0.0
H1090 H 0.32069 0.02944 0.67218 0.0
H1091 H 0.33088 1.01544 0.74959 0.0
H1092 H 0.3002 0.99633 0.70067 0.0
H1093 H 0.37667 0.02429 0.49846 0.0
H1094 H 0.36777 0.98868 0.44515 0.0
H1095 H 0.38338 1.00196 0.55319 0.0
C1096 C 1.01669 0.17915 0.71304 0.0
C1097 C 1.00924 0.19779 0.69336 0.0
C1098 C 0.0371 0.18206 0.69223 0.0
C1099 C 0.0513 0.20497 0.65359 0.0
C1100 C 0.04407 0.22425 0.63505 0.0
C1101 C 1.02292 0.22001 0.65303 0.0
C1102 C 0.04352 0.16052 0.71197 0.0
C1103 C 0.05877 0.24965 0.59696 0.0
C1104 C 0.11567 0.22725 0.68086 0.0
C1105 C 0.11608 0.214 0.60328 0.0
C1106 C 0.09503 0.22498 0.69712 0.0
C1107 C 0.07384 0.20894 0.63481 0.0
C1108 C 0.07417 0.196 0.55575 0.0
C1109 C 0.09508 0.1986 0.54111 0.0
C1110 C 0.09591 0.23975 0.78167 0.0
C1111 C 0.05232 0.17922 0.48644 0.0
H1112 H 1.00627 0.16184 0.74388 0.0
H1113 H 1.01753 0.23474 0.63809 0.0
H1114 H 0.04543 0.15045 0.65379 0.0
H1115 H 0.06059 0.17163 0.75771 0.0
H1116 H 1.03027 0.14325 0.7388 0.0
H1117 H 0.05451 0.26647 0.60773 0.0
H1118 H 0.07766 0.25958 0.62366 0.0
H1119 H 0.05555 0.24226 0.52803 0.0
H1120 H 0.13146 0.239 0.7302 0.0
H1121 H 0.09495 0.18864 0.48026 0.0
H1122 H 0.0843 0.22347 0.81528 0.0
H1123 H 0.0894 0.25429 0.77271 0.0
H1124 H 0.11383 0.25254 0.82218 0.0
H1125 H 0.03829 0.16134 0.50889 0.0
H1126 H 0.05519 0.1701 0.42886 0.0
H1127 H 0.04603 0.19343 0.46942 0.0
C1128 C 0.375 0.18754 0.63887 0.0
C1129 C 0.39017 0.19908 0.71946 0.0
C1130 C 0.3568 0.19265 0.61654 0.0
C1131 C 0.35333 0.21011 0.67539 0.0
C1132 C 0.36828 0.22139 0.75752 0.0
C1133 C 0.38629 0.21568 0.77857 0.0
C1134 C 0.3416 0.17984 0.52852 0.0
C1135 C 0.36569 0.2403 0.82277 0.0
C1136 C 0.32629 0.25138 0.58679 0.0
C1137 C 0.30307 0.23602 0.59732 0.0
C1138 C 0.34242 0.24324 0.6118 0.0
C1139 C 0.33566 0.21864 0.64838 0.0
C1140 C 0.31208 0.20241 0.65729 0.0
C1141 C 0.2962 0.21128 0.63223 0.0
C1142 C 0.36704 0.26149 0.60009 0.0
C1143 C 0.30371 0.17582 0.69459 0.0
H1144 H 0.37744 0.17453 0.59209 0.0
H1145 H 0.3977 0.22484 0.8409 0.0
H1146 H 0.3229 0.16814 0.53112 0.0
H1147 H 0.34477 0.19732 0.49372 0.0
H1148 H 0.34502 0.16476 0.49234 0.0
H1149 H 0.37747 0.24599 0.88508 0.0
H1150 H 0.36966 0.26048 0.80129 0.0
H1151 H 0.34741 0.2293 0.83046 0.0
H1152 H 0.33224 0.2705 0.56001 0.0
H1153 H 0.27859 0.19918 0.64184 0.0
H1154 H 0.37119 0.24825 0.55899 0.0
H1155 H 0.37961 0.26973 0.66187 0.0
H1156 H 0.36979 0.28014 0.57155 0.0
H1157 H 0.30693 0.1605 0.65873 0.0
H1158 H 0.28482 0.16475 0.6944 0.0
H1159 H 0.3137 0.18174 0.76052 0.0
C1160 C 0.84278 0.9639 0.48366 0.0
C1161 C 0.82196 0.95301 0.42304 0.0
C1162 C 0.85779 0.99372 0.51938 0.0
C1163 C 0.85257 1.01393 0.49264 0.0
C1164 C 0.83175 1.00312 0.43022 0.0
C1165 C 0.81661 0.97299 0.39753 0.0
C1166 C 0.87921 1.00356 0.58701 0.0
C1167 C 0.82558 0.02347 0.39701 0.0
C1168 C 0.88251 0.08886 0.64018 0.0
C1169 C 0.90279 0.1054 0.61037 0.0
C1170 C 0.86585 0.05952 0.60164 0.0
C1171 C 0.86902 0.04615 0.52982 0.0
C1172 C 0.88895 0.06332 0.49724 0.0
C1173 C 0.90568 0.09229 0.53864 0.0
C1174 C 0.84546 0.04238 0.64087 0.0
C1175 C 0.89304 0.05084 0.41976 0.0
H1176 H 0.84714 0.94892 0.50502 0.0
H1177 H 0.8007 0.96511 0.35078 0.0
H1178 H 0.89514 0.01802 0.56514 0.0
H1179 H 0.87914 1.01609 0.64444 0.0
H1180 H 0.8803 0.98525 0.60429 0.0
H1181 H 0.80926 1.01201 0.34697 0.0
H1182 H 0.8234 0.03577 0.4491 0.0
H1183 H 0.84001 0.03934 0.37093 0.0
H1184 H 0.8803 0.09841 0.69669 0.0
H1185 H 0.92139 0.1046 0.51564 0.0
H1186 H 0.84696 0.02526 0.66571 0.0
H1187 H 0.82884 0.03157 0.59277 0.0
H1188 H 0.84458 0.05603 0.69331 0.0
H1189 H 0.89742 0.03476 0.43469 0.0
H1190 H 0.90751 0.06765 0.39588 0.0
H1191 H 0.87696 0.0395 0.36878 0.0
C1192 C 1.00631 0.69756 0.57977 0.0
C1193 C 1.00491 0.71622 0.64051 0.0
C1194 C 1.02615 0.70731 0.54427 0.0
C1195 C 0.04511 0.73643 0.57013 0.0
C1196 C 0.04329 0.75551 0.62879 0.0
C1197 C 1.02341 0.74523 0.66313 0.0
C1198 C 1.02709 0.68617 0.48131 0.0
C1199 C 0.06262 0.78688 0.65679 0.0
C1200 C 0.10849 0.762 0.56682 0.0
C1201 C 0.11206 0.77611 0.49837 0.0
C1202 C 0.08647 0.74756 0.5877 0.0
C1203 C 0.06735 0.74719 0.53951 0.0
C1204 C 0.07051 0.76019 0.468 0.0
C1205 C 0.09271 0.7744 0.44834 0.0
C1206 C 0.08393 0.73377 0.6639 0.0
C1207 C 0.05065 0.76013 0.41414 0.0
H1208 H 0.99213 0.67523 0.56122 0.0
H1209 H 1.02255 0.76012 0.70886 0.0
H1210 H 0.03444 0.69603 0.42849 0.0
H1211 H 0.03869 0.67975 0.51297 0.0
H1212 H 1.00957 0.66646 0.45492 0.0
H1213 H 0.05805 0.79926 0.69956 0.0
H1214 H 0.07873 0.78869 0.69018 0.0
H1215 H 0.06665 0.79701 0.60114 0.0
H1216 H 0.12316 0.76317 0.60644 0.0
H1217 H 0.09495 0.78454 0.39408 0.0
H1218 H 0.0685 0.71139 0.64743 0.0
H1219 H 0.08102 0.74594 0.71403 0.0
H1220 H 0.09962 0.73332 0.68979 0.0
H1221 H 0.03492 0.738 0.39556 0.0
H1222 H 0.05519 0.76856 0.35618 0.0
H1223 H 0.04596 0.77367 0.45104 0.0
loop_
_geom_bond_atom_site_label_1
_geom_bond_atom_site_label_2
_geom_bond_distance
_geom_bond_site_symmetry_2
_ccdc_geom_bond_type
La0 C2 2.928 . S
La0 O20 2.521 . S
La0 O21 2.628 . S
La0 O22 2.554 1_554 S
La0 O23 2.757 1_554 S
La0 O24 2.470 . S
La0 O29 2.482 . S
La0 O31 2.503 . S
La1 C11 2.928 . S
La1 O23 2.482 1_554 S
La1 O25 2.503 . S
La1 O26 2.521 1_455 S
La1 O27 2.628 1_554 S
La1 O28 2.554 . S
La1 O29 2.757 . S
La1 O30 2.470 . S
C2 La0 2.928 . S
C2 C3 1.503 . S
C2 O20 1.261 . S
C2 O21 1.243 . S
C3 C2 1.503 . S
C3 C4 1.394 . S
C3 C8 1.373 . S
C4 C3 1.394 . S
C4 C5 1.380 . S
C4 H32 0.930 . S
C5 C4 1.380 . S
C5 C6 1.376 . S
C5 H33 0.930 . S
C6 C5 1.376 . S
C6 C7 1.370 . S
C7 C6 1.370 . S
C7 C8 1.396 . S
C7 H34 0.929 . S
C8 C3 1.373 . S
C8 C7 1.396 . S
C8 H35 0.929 . S
C9 O22 1.240 . S
C9 O23 1.289 . S
C10 O24 1.258 . S
C10 O25 1.256 . S
C11 La1 2.928 . S
C11 C12 1.503 1_455 S
C11 O26 1.261 1_455 S
C11 O27 1.243 1_554 S
C12 C11 1.503 1_655 S
C12 C13 1.394 . S
C12 C17 1.373 1_654 S
C13 C12 1.394 . S
C13 C14 1.380 . S
C13 H36 0.930 . S
C14 C13 1.380 . S
C14 C15 1.376 1_554 S
C14 H37 0.930 . S
C15 C14 1.376 1_556 S
C15 C16 1.370 . S
C16 C15 1.370 . S
C16 C17 1.396 1_655 S
C16 H38 0.926 1_655 S
C17 C12 1.373 1_456 S
C17 C16 1.396 1_455 S
C17 H39 0.929 . S
C18 O28 1.240 . S
C18 O29 1.289 . S
C19 O30 1.258 . S
C19 O31 1.256 . S
O20 La0 2.521 . S
O20 C2 1.261 . S
O21 La0 2.628 . S
O21 C2 1.243 . S
O22 La0 2.554 1_556 S
O22 C9 1.240 . S
O23 La0 2.757 1_556 S
O23 La1 2.482 1_556 S
O23 C9 1.289 . S
O24 La0 2.470 . S
O24 C10 1.258 . S
O25 La1 2.503 . S
O25 C10 1.256 . S
O26 La1 2.521 1_655 S
O26 C11 1.261 1_655 S
O27 La1 2.628 1_556 S
O27 C11 1.243 1_556 S
O28 La1 2.554 . S
O28 C18 1.240 . S
O29 La0 2.482 . S
O29 La1 2.757 . S
O29 C18 1.289 . S
O30 La1 2.470 . S
O30 C19 1.258 . S
O31 La0 2.503 . S
O31 C19 1.256 . S
H32 C4 0.930 . S
H33 C5 0.930 . S
H34 C7 0.929 . S
H35 C8 0.929 . S
H36 C13 0.930 . S
H37 C14 0.930 . S
H38 C16 0.926 1_455 S
H39 C17 0.929 . S
La40 C42 2.928 . S
La40 O60 2.521 . S
La40 O61 2.628 . S
La40 O62 2.554 . S
La40 O63 2.757 . S
La40 O64 2.470 . S
La40 O69 2.482 . S
La40 O71 2.503 . S
La41 C51 2.928 . S
La41 O63 2.482 . S
La41 O65 2.503 . S
La41 O66 2.521 . S
La41 O67 2.628 . S
La41 O68 2.554 1_554 S
La41 O69 2.757 . S
La41 O70 2.470 . S
C42 La40 2.928 . S
C42 C43 1.503 . S
C42 O60 1.261 . S
C42 O61 1.243 . S
C43 C42 1.503 . S
C43 C44 1.394 . S
C43 C48 1.373 . S
C44 C43 1.394 . S
C44 C45 1.380 . S
C44 H72 0.930 . S
C45 C44 1.380 . S
C45 C46 1.376 . S
C45 H73 0.930 . S
C46 C45 1.376 . S
C46 C47 1.370 . S
C47 C46 1.370 . S
C47 C48 1.396 . S
C47 H74 0.929 . S
C48 C43 1.373 . S
C48 C47 1.396 . S
C48 H75 0.929 . S
C49 O62 1.240 . S
C49 O63 1.289 . S
C50 O64 1.258 . S
C50 O65 1.256 . S
C51 La41 2.928 . S
C51 C52 1.503 . S
C51 O66 1.261 . S
C51 O67 1.243 . S
C52 C51 1.503 . S
C52 C53 1.394 . S
C52 C57 1.373 . S
C53 C52 1.394 . S
C53 C54 1.380 . S
C53 H76 0.930 . S
C54 C53 1.380 . S
C54 C55 1.376 . S
C54 H77 0.930 . S
C55 C54 1.376 . S
C55 C56 1.370 . S
C56 C55 1.370 . S
C56 C57 1.396 . S
C56 H78 0.929 . S
C57 C52 1.373 . S
C57 C56 1.396 . S
C57 H79 0.929 . S
C58 O68 1.240 . S
C58 O69 1.289 1_556 S
C59 O70 1.258 . S
C59 O71 1.256 . S
O60 La40 2.521 . S
O60 C42 1.261 . S
O61 La40 2.628 . S
O61 C42 1.243 . S
O62 La40 2.554 . S
O62 C49 1.240 . S
O63 La40 2.757 . S
O63 La41 2.482 . S
O63 C49 1.289 . S
O64 La40 2.470 . S
O64 C50 1.258 . S
O65 La41 2.503 . S
O65 C50 1.256 . S
O66 La41 2.521 . S
O66 C51 1.261 . S
O67 La41 2.628 . S
O67 C51 1.243 . S
O68 La41 2.554 1_556 S
O68 C58 1.240 . S
O69 La40 2.482 . S
O69 La41 2.757 . S
O69 C58 1.289 1_554 S
O70 La41 2.470 . S
O70 C59 1.258 . S
O71 La40 2.503 . S
O71 C59 1.256 . S
H72 C44 0.930 . S
H73 C45 0.930 . S
H74 C47 0.929 . S
H75 C48 0.929 . S
H76 C53 0.930 . S
H77 C54 0.930 . S
H78 C56 0.929 . S
H79 C57 0.929 . S
La80 C82 2.928 . S
La80 O100 2.521 . S
La80 O101 2.628 . S
La80 O102 2.554 . S
La80 O103 2.757 . S
La80 O104 2.470 . S
La80 O109 2.482 . S
La80 O111 2.503 . S
La81 C91 2.928 . S
La81 O103 2.482 . S
La81 O105 2.503 . S
La81 O106 2.521 . S
La81 O107 2.628 . S
La81 O108 2.554 . S
La81 O109 2.757 . S
La81 O110 2.470 . S
C82 La80 2.928 . S
C82 C83 1.503 . S
C82 O100 1.261 . S
C82 O101 1.243 . S
C83 C82 1.503 . S
C83 C84 1.394 . S
C83 C88 1.373 . S
C84 C83 1.394 . S
C84 C85 1.380 . S
C84 H112 0.930 . S
C85 C84 1.380 . S
C85 C86 1.376 . S
C85 H113 0.930 . S
C86 C85 1.376 . S
C86 C87 1.370 . S
C87 C86 1.370 . S
C87 C88 1.396 . S
C87 H114 0.929 . S
C88 C83 1.373 . S
C88 C87 1.396 . S
C88 H115 0.929 . S
C89 O102 1.240 . S
C89 O103 1.289 . S
C90 O104 1.258 . S
C90 O105 1.256 . S
C91 La81 2.928 . S
C91 C92 1.503 . S
C91 O106 1.261 . S
C91 O107 1.243 . S
C92 C91 1.503 . S
C92 C93 1.394 . S
C92 C97 1.373 . S
C93 C92 1.394 . S
C93 C94 1.380 . S
C93 H116 0.930 . S
C94 C93 1.380 . S
C94 C95 1.376 . S
C94 H117 0.930 . S
C95 C94 1.376 . S
C95 C96 1.370 . S
C96 C95 1.370 . S
C96 C97 1.396 . S
C96 H118 0.929 . S
C97 C92 1.373 . S
C97 C96 1.396 . S
C97 H119 0.929 . S
C98 O108 1.240 . S
C98 O109 1.289 . S
C99 O110 1.258 . S
C99 O111 1.256 . S
O100 La80 2.521 . S
O100 C82 1.261 . S
O101 La80 2.628 . S
O101 C82 1.243 . S
O102 La80 2.554 . S
O102 C89 1.240 . S
O103 La80 2.757 . S
O103 La81 2.482 . S
O103 C89 1.289 . S
O104 La80 2.470 . S
O104 C90 1.258 . S
O105 La81 2.503 . S
O105 C90 1.256 . S
O106 La81 2.521 . S
O106 C91 1.261 . S
O107 La81 2.628 . S
O107 C91 1.243 . S
O108 La81 2.554 . S
O108 C98 1.240 . S
O109 La80 2.482 . S
O109 La81 2.757 . S
O109 C98 1.289 . S
O110 La81 2.470 . S
O110 C99 1.258 . S
O111 La80 2.503 . S
O111 C99 1.256 . S
H112 C84 0.930 . S
H113 C85 0.930 . S
H114 C87 0.929 . S
H115 C88 0.929 . S
H116 C93 0.930 . S
H117 C94 0.930 . S
H118 C96 0.929 . S
H119 C97 0.929 . S
La120 C122 2.928 . S
La120 O140 2.521 . S
La120 O141 2.628 . S
La120 O142 2.554 . S
La120 O143 2.757 . S
La120 O144 2.470 . S
La120 O149 2.482 . S
La120 O151 2.503 . S
La121 C131 2.928 . S
La121 O143 2.482 . S
La121 O145 2.503 . S
La121 O146 2.521 . S
La121 O147 2.628 . S
La121 O148 2.554 . S
La121 O149 2.757 . S
La121 O150 2.470 . S
C122 La120 2.928 . S
C122 C123 1.503 . S
C122 O140 1.261 . S
C122 O141 1.243 . S
C123 C122 1.503 . S
C123 C124 1.394 . S
C123 C128 1.373 . S
C124 C123 1.394 . S
C124 C125 1.380 . S
C124 H152 0.930 . S
C125 C124 1.380 . S
C125 C126 1.376 . S
C125 H153 0.930 . S
C126 C125 1.376 . S
C126 C127 1.370 . S
C127 C126 1.370 . S
C127 C128 1.396 . S
C127 H154 0.929 . S
C128 C123 1.373 . S
C128 C127 1.396 . S
C128 H155 0.929 . S
C129 O142 1.240 . S
C129 O143 1.289 . S
C130 O144 1.258 . S
C130 O145 1.256 . S
C131 La121 2.928 . S
C131 C132 1.503 . S
C131 O146 1.261 . S
C131 O147 1.243 . S
C132 C131 1.503 . S
C132 C133 1.394 . S
C132 C137 1.373 . S
C133 C132 1.394 . S
C133 C134 1.380 . S
C133 H156 0.930 . S
C134 C133 1.380 . S
C134 C135 1.376 . S
C134 H157 0.930 . S
C135 C134 1.376 . S
C135 C136 1.370 . S
C136 C135 1.370 . S
C136 C137 1.396 . S
C136 H158 0.929 . S
C137 C132 1.373 . S
C137 C136 1.396 . S
C137 H159 0.929 . S
C138 O148 1.240 . S
C138 O149 1.289 . S
C139 O150 1.258 . S
C139 O151 1.256 . S
O140 La120 2.521 . S
O140 C122 1.261 . S
O141 La120 2.628 . S
O141 C122 1.243 . S
O142 La120 2.554 . S
O142 C129 1.240 . S
O143 La120 2.757 . S
O143 La121 2.482 . S
O143 C129 1.289 . S
O144 La120 2.470 . S
O144 C130 1.258 . S
O145 La121 2.503 . S
O145 C130 1.256 . S
O146 La121 2.521 . S
O146 C131 1.261 . S
O147 La121 2.628 . S
O147 C131 1.243 . S
O148 La121 2.554 . S
O148 C138 1.240 . S
O149 La120 2.482 . S
O149 La121 2.757 . S
O149 C138 1.289 . S
O150 La121 2.470 . S
O150 C139 1.258 . S
O151 La120 2.503 . S
O151 C139 1.256 . S
H152 C124 0.930 . S
H153 C125 0.930 . S
H154 C127 0.929 . S
H155 C128 0.929 . S
H156 C133 0.930 . S
H157 C134 0.930 . S
H158 C136 0.929 . S
H159 C137 0.929 . S
La160 C162 2.928 . S
La160 O180 2.521 . S
La160 O181 2.628 . S
La160 O182 2.554 . S
La160 O183 2.757 . S
La160 O184 2.470 . S
La160 O189 2.482 . S
La160 O191 2.503 . S
La161 C171 2.928 . S
La161 O183 2.482 . S
La161 O185 2.503 . S
La161 O186 2.521 . S
La161 O187 2.628 . S
La161 O188 2.554 . S
La161 O189 2.757 . S
La161 O190 2.470 . S
C162 La160 2.928 . S
C162 C163 1.503 . S
C162 O180 1.261 . S
C162 O181 1.243 . S
C163 C162 1.503 . S
C163 C164 1.394 . S
C163 C168 1.373 . S
C164 C163 1.394 . S
C164 C165 1.380 . S
C164 H192 0.930 . S
C165 C164 1.380 . S
C165 C166 1.376 . S
C165 H193 0.930 . S
C166 C165 1.376 . S
C166 C167 1.370 . S
C167 C166 1.370 . S
C167 C168 1.396 . S
C167 H194 0.929 . S
C168 C163 1.373 . S
C168 C167 1.396 . S
C168 H195 0.929 . S
C169 O182 1.240 . S
C169 O183 1.289 . S
C170 O184 1.258 . S
C170 O185 1.256 . S
C171 La161 2.928 . S
C171 C172 1.503 . S
C171 O186 1.261 . S
C171 O187 1.243 . S
C172 C171 1.503 . S
C172 C173 1.394 . S
C172 C177 1.373 . S
C173 C172 1.394 . S
C173 C174 1.380 . S
C173 H196 0.930 . S
C174 C173 1.380 . S
C174 C175 1.376 . S
C174 H197 0.930 . S
C175 C174 1.376 . S
C175 C176 1.370 . S
C176 C175 1.370 . S
C176 C177 1.396 . S
C176 H198 0.929 . S
C177 C172 1.373 . S
C177 C176 1.396 . S
C177 H199 0.929 . S
C178 O188 1.240 . S
C178 O189 1.289 . S
C179 O190 1.258 . S
C179 O191 1.256 . S
O180 La160 2.521 . S
O180 C162 1.261 . S
O181 La160 2.628 . S
O181 C162 1.243 . S
O182 La160 2.554 . S
O182 C169 1.240 . S
O183 La160 2.757 . S
O183 La161 2.482 . S
O183 C169 1.289 . S
O184 La160 2.470 . S
O184 C170 1.258 . S
O185 La161 2.503 . S
O185 C170 1.256 . S
O186 La161 2.521 . S
O186 C171 1.261 . S
O187 La161 2.628 . S
O187 C171 1.243 . S
O188 La161 2.554 . S
O188 C178 1.240 . S
O189 La160 2.482 . S
O189 La161 2.757 . S
O189 C178 1.289 . S
O190 La161 2.470 . S
O190 C179 1.258 . S
O191 La160 2.503 . S
O191 C179 1.256 . S
H192 C164 0.930 . S
H193 C165 0.930 . S
H194 C167 0.929 . S
H195 C168 0.929 . S
H196 C173 0.930 . S
H197 C174 0.930 . S
H198 C176 0.929 . S
H199 C177 0.929 . S
La200 C202 2.928 . S
La200 O220 2.521 . S
La200 O221 2.628 . S
La200 O222 2.554 . S
La200 O223 2.757 . S
La200 O224 2.470 . S
La200 O229 2.482 . S
La200 O231 2.503 . S
La201 C211 2.928 . S
La201 O223 2.482 . S
La201 O225 2.503 . S
La201 O226 2.521 . S
La201 O227 2.628 . S
La201 O228 2.554 . S
La201 O229 2.757 . S
La201 O230 2.470 . S
C202 La200 2.928 . S
C202 C203 1.503 . S
C202 O220 1.261 . S
C202 O221 1.243 . S
C203 C202 1.503 . S
C203 C204 1.394 . S
C203 C208 1.373 . S
C204 C203 1.394 . S
C204 C205 1.380 . S
C204 H232 0.930 . S
C205 C204 1.380 . S
C205 C206 1.376 . S
C205 H233 0.930 . S
C206 C205 1.376 . S
C206 C207 1.370 . S
C207 C206 1.370 . S
C207 C208 1.396 . S
C207 H234 0.929 . S
C208 C203 1.373 . S
C208 C207 1.396 . S
C208 H235 0.929 . S
C209 O222 1.240 . S
C209 O223 1.289 . S
C210 O224 1.258 . S
C210 O225 1.256 . S
C211 La201 2.928 . S
C211 C212 1.503 . S
C211 O226 1.261 . S
C211 O227 1.243 . S
C212 C211 1.503 . S
C212 C213 1.394 . S
C212 C217 1.373 . S
C213 C212 1.394 . S
C213 C214 1.380 . S
C213 H236 0.930 . S
C214 C213 1.380 . S
C214 C215 1.376 . S
C214 H237 0.930 . S
C215 C214 1.376 . S
C215 C216 1.370 . S
C216 C215 1.370 . S
C216 C217 1.396 . S
C216 H238 0.929 . S
C217 C212 1.373 . S
C217 C216 1.396 . S
C217 H239 0.929 . S
C218 O228 1.240 . S
C218 O229 1.289 . S
C219 O230 1.258 . S
C219 O231 1.256 . S
O220 La200 2.521 . S
O220 C202 1.261 . S
O221 La200 2.628 . S
O221 C202 1.243 . S
O222 La200 2.554 . S
O222 C209 1.240 . S
O223 La200 2.757 . S
O223 La201 2.482 . S
O223 C209 1.289 . S
O224 La200 2.470 . S
O224 C210 1.258 . S
O225 La201 2.503 . S
O225 C210 1.256 . S
O226 La201 2.521 . S
O226 C211 1.261 . S
O227 La201 2.628 . S
O227 C211 1.243 . S
O228 La201 2.554 . S
O228 C218 1.240 . S
O229 La200 2.482 . S
O229 La201 2.757 . S
O229 C218 1.289 . S
O230 La201 2.470 . S
O230 C219 1.258 . S
O231 La200 2.503 . S
O231 C219 1.256 . S
H232 C204 0.930 . S
H233 C205 0.930 . S
H234 C207 0.929 . S
H235 C208 0.929 . S
H236 C213 0.930 . S
H237 C214 0.930 . S
H238 C216 0.929 . S
H239 C217 0.929 . S
La240 C242 2.928 . S
La240 O260 2.521 . S
La240 O261 2.628 . S
La240 O262 2.554 . S
La240 O263 2.757 . S
La240 O264 2.470 . S
La240 O269 2.482 . S
La240 O271 2.503 . S
La241 C251 2.928 . S
La241 O263 2.482 . S
La241 O265 2.503 . S
La241 O266 2.521 . S
La241 O267 2.628 . S
La241 O268 2.554 . S
La241 O269 2.757 . S
La241 O270 2.470 . S
C242 La240 2.928 . S
C242 C243 1.503 . S
C242 O260 1.261 . S
C242 O261 1.243 . S
C243 C242 1.503 . S
C243 C244 1.394 . S
C243 C248 1.373 . S
C244 C243 1.394 . S
C244 C245 1.380 . S
C244 H272 0.930 . S
C245 C244 1.380 . S
C245 C246 1.376 . S
C245 H273 0.930 . S
C246 C245 1.376 . S
C246 C247 1.370 . S
C247 C246 1.370 . S
C247 C248 1.396 . S
C247 H274 0.929 . S
C248 C243 1.373 . S
C248 C247 1.396 . S
C248 H275 0.929 . S
C249 O262 1.240 . S
C249 O263 1.289 . S
C250 O264 1.258 . S
C250 O265 1.256 . S
C251 La241 2.928 . S
C251 C252 1.503 1_556 S
C251 O266 1.261 . S
C251 O267 1.243 . S
C252 C251 1.503 1_554 S
C252 C253 1.394 . S
C252 C257 1.373 . S
C253 C252 1.394 . S
C253 C254 1.380 . S
C253 H276 0.928 1_554 S
C254 C253 1.380 . S
C254 C255 1.376 . S
C254 H277 0.930 . S
C255 C254 1.376 . S
C255 C256 1.370 . S
C256 C255 1.370 . S
C256 C257 1.396 . S
C256 H278 0.929 . S
C257 C252 1.373 . S
C257 C256 1.396 . S
C257 H279 0.929 . S
C258 O268 1.240 . S
C258 O269 1.289 . S
C259 O270 1.258 . S
C259 O271 1.256 . S
O260 La240 2.521 . S
O260 C242 1.261 . S
O261 La240 2.628 . S
O261 C242 1.243 . S
O262 La240 2.554 . S
O262 C249 1.240 . S
O263 La240 2.757 . S
O263 La241 2.482 . S
O263 C249 1.289 . S
O264 La240 2.470 . S
O264 C250 1.258 . S
O265 La241 2.503 . S
O265 C250 1.256 . S
O266 La241 2.521 . S
O266 C251 1.261 . S
O267 La241 2.628 . S
O267 C251 1.243 . S
O268 La241 2.554 . S
O268 C258 1.240 . S
O269 La240 2.482 . S
O269 La241 2.757 . S
O269 C258 1.289 . S
O270 La241 2.470 . S
O270 C259 1.258 . S
O271 La240 2.503 . S
O271 C259 1.256 . S
H272 C244 0.930 . S
H273 C245 0.930 . S
H274 C247 0.929 . S
H275 C248 0.929 . S
H276 C253 0.928 1_556 S
H277 C254 0.930 . S
H278 C256 0.929 . S
H279 C257 0.929 . S
La280 C282 2.928 . S
La280 O300 2.521 . S
La280 O301 2.628 . S
La280 O302 2.554 . S
La280 O303 2.757 . S
La280 O304 2.470 . S
La280 O309 2.482 . S
La280 O311 2.503 . S
La281 C291 2.928 . S
La281 O303 2.482 . S
La281 O305 2.503 . S
La281 O306 2.521 . S
La281 O307 2.628 . S
La281 O308 2.554 . S
La281 O309 2.757 . S
La281 O310 2.470 . S
C282 La280 2.928 . S
C282 C283 1.503 1_556 S
C282 O300 1.261 . S
C282 O301 1.243 . S
C283 C282 1.503 1_554 S
C283 C284 1.394 . S
C283 C288 1.373 . S
C284 C283 1.394 . S
C284 C285 1.380 . S
C284 H312 0.930 . S
C285 C284 1.380 . S
C285 C286 1.376 . S
C285 H313 0.930 . S
C286 C285 1.376 . S
C286 C287 1.370 . S
C287 C286 1.370 . S
C287 C288 1.396 . S
C287 H314 0.929 . S
C288 C283 1.373 . S
C288 C287 1.396 . S
C288 H315 0.929 . S
C289 O302 1.240 . S
C289 O303 1.289 . S
C290 O304 1.258 . S
C290 O305 1.256 . S
C291 La281 2.928 . S
C291 C292 1.503 . S
C291 O306 1.261 . S
C291 O307 1.243 . S
C292 C291 1.503 . S
C292 C293 1.394 . S
C292 C297 1.373 . S
C293 C292 1.394 . S
C293 C294 1.380 . S
C293 H316 0.930 . S
C294 C293 1.380 . S
C294 C295 1.376 . S
C294 H317 0.930 . S
C295 C294 1.376 . S
C295 C296 1.370 . S
C296 C295 1.370 . S
C296 C297 1.396 . S
C296 H318 0.929 . S
C297 C292 1.373 . S
C297 C296 1.396 . S
C297 H319 0.929 . S
C298 O308 1.240 . S
C298 O309 1.289 . S
C299 O310 1.258 . S
C299 O311 1.256 . S
O300 La280 2.521 . S
O300 C282 1.261 . S
O301 La280 2.628 . S
O301 C282 1.243 . S
O302 La280 2.554 . S
O302 C289 1.240 . S
O303 La280 2.757 . S
O303 La281 2.482 . S
O303 C289 1.289 . S
O304 La280 2.470 . S
O304 C290 1.258 . S
O305 La281 2.503 . S
O305 C290 1.256 . S
O306 La281 2.521 . S
O306 C291 1.261 . S
O307 La281 2.628 . S
O307 C291 1.243 . S
O308 La281 2.554 . S
O308 C298 1.240 . S
O309 La280 2.482 . S
O309 La281 2.757 . S
O309 C298 1.289 . S
O310 La281 2.470 . S
O310 C299 1.258 . S
O311 La280 2.503 . S
O311 C299 1.256 . S
H312 C284 0.930 . S
H313 C285 0.930 . S
H314 C287 0.929 . S
H315 C288 0.929 . S
H316 C293 0.930 . S
H317 C294 0.930 . S
H318 C296 0.929 . S
H319 C297 0.929 . S
La320 C322 2.928 . S
La320 O340 2.521 . S
La320 O341 2.628 . S
La320 O342 2.554 . S
La320 O343 2.757 . S
La320 O344 2.470 . S
La320 O349 2.482 . S
La320 O351 2.503 . S
La321 C331 2.928 . S
La321 O343 2.482 . S
La321 O345 2.503 . S
La321 O346 2.521 . S
La321 O347 2.628 . S
La321 O348 2.554 . S
La321 O349 2.757 . S
La321 O350 2.470 . S
C322 La320 2.928 . S
C322 C323 1.503 . S
C322 O340 1.261 . S
C322 O341 1.243 . S
C323 C322 1.503 . S
C323 C324 1.394 . S
C323 C328 1.373 . S
C324 C323 1.394 . S
C324 C325 1.380 . S
C324 H352 0.930 . S
C325 C324 1.380 . S
C325 C326 1.376 . S
C325 H353 0.930 . S
C326 C325 1.376 . S
C326 C327 1.370 . S
C327 C326 1.370 . S
C327 C328 1.396 . S
C327 H354 0.929 . S
C328 C323 1.373 . S
C328 C327 1.396 . S
C328 H355 0.929 . S
C329 O342 1.240 . S
C329 O343 1.289 . S
C330 O344 1.258 . S
C330 O345 1.256 . S
C331 La321 2.928 . S
C331 C332 1.503 1_556 S
C331 O346 1.261 . S
C331 O347 1.243 . S
C332 C331 1.503 1_554 S
C332 C333 1.394 . S
C332 C337 1.373 . S
C333 C332 1.394 . S
C333 C334 1.380 . S
C333 H356 0.930 . S
C334 C333 1.380 . S
C334 C335 1.376 . S
C334 H357 0.930 . S
C335 C334 1.376 . S
C335 C336 1.370 . S
C336 C335 1.370 . S
C336 C337 1.396 . S
C336 H358 0.929 . S
C337 C332 1.373 . S
C337 C336 1.396 . S
C337 H359 0.929 . S
C338 O348 1.240 . S
C338 O349 1.289 . S
C339 O350 1.258 . S
C339 O351 1.256 . S
O340 La320 2.521 . S
O340 C322 1.261 . S
O341 La320 2.628 . S
O341 C322 1.243 . S
O342 La320 2.554 . S
O342 C329 1.240 . S
O343 La320 2.757 . S
O343 La321 2.482 . S
O343 C329 1.289 . S
O344 La320 2.470 . S
O344 C330 1.258 . S
O345 La321 2.503 . S
O345 C330 1.256 . S
O346 La321 2.521 . S
O346 C331 1.261 . S
O347 La321 2.628 . S
O347 C331 1.243 . S
O348 La321 2.554 . S
O348 C338 1.240 . S
O349 La320 2.482 . S
O349 La321 2.757 . S
O349 C338 1.289 . S
O350 La321 2.470 . S
O350 C339 1.258 . S
O351 La320 2.503 . S
O351 C339 1.256 . S
H352 C324 0.930 . S
H353 C325 0.930 . S
H354 C327 0.929 . S
H355 C328 0.929 . S
H356 C333 0.930 . S
H357 C334 0.930 . S
H358 C336 0.929 . S
H359 C337 0.929 . S
C360 C361 1.391 . S
C360 C362 1.394 . S
C360 H376 0.931 . S
C361 C360 1.391 . S
C361 C365 1.376 . S
C362 C360 1.394 . S
C362 C363 1.369 . S
C362 C366 1.531 . S
C363 C362 1.369 . S
C363 C364 1.410 . S
C363 C371 1.503 . S
C364 C363 1.410 . S
C364 C365 1.392 . S
C364 C367 1.511 . S
C365 C361 1.376 . S
C365 C364 1.392 . S
C365 H377 0.929 . S
C366 C362 1.531 . S
C366 H378 0.960 . S
C366 H379 0.962 . S
C366 H380 0.960 . S
C367 C364 1.511 . S
C367 H381 0.961 . S
C367 H382 0.961 . S
C367 H383 0.961 . S
C368 C369 1.370 . S
C368 C370 1.363 . S
C368 H384 0.931 . S
C369 C368 1.370 . S
C369 C373 1.408 . S
C370 C368 1.363 . S
C370 C371 1.370 . S
C370 C374 1.524 . S
C371 C363 1.503 . S
C371 C370 1.370 . S
C371 C372 1.403 . S
C372 C371 1.403 . S
C372 C373 1.404 . S
C372 C375 1.539 . S
C373 C369 1.408 . S
C373 C372 1.404 . S
C373 H385 0.930 . S
C374 C370 1.524 . S
C374 H386 0.956 . S
C374 H387 0.961 . S
C374 H388 0.961 1_455 S
C375 C372 1.539 . S
C375 H389 0.958 . S
C375 H390 0.961 . S
C375 H391 0.960 . S
H376 C360 0.931 . S
H377 C365 0.929 . S
H378 C366 0.960 . S
H379 C366 0.962 . S
H380 C366 0.960 . S
H381 C367 0.961 . S
H382 C367 0.961 . S
H383 C367 0.961 . S
H384 C368 0.931 . S
H385 C373 0.930 . S
H386 C374 0.956 . S
H387 C374 0.961 . S
H388 C374 0.961 1_655 S
H389 C375 0.958 . S
H390 C375 0.961 . S
H391 C375 0.960 . S
C392 C393 1.391 . S
C392 C394 1.394 . S
C392 H408 0.931 . S
C393 C392 1.391 . S
C393 C397 1.376 . S
C394 C392 1.394 . S
C394 C395 1.369 . S
C394 C398 1.531 . S
C395 C394 1.369 . S
C395 C396 1.410 . S
C395 C403 1.503 . S
C396 C395 1.410 . S
C396 C397 1.392 . S
C396 C399 1.511 . S
C397 C393 1.376 . S
C397 C396 1.392 . S
C397 H409 0.929 . S
C398 C394 1.531 . S
C398 H410 0.960 . S
C398 H411 0.962 . S
C398 H412 0.960 . S
C399 C396 1.511 . S
C399 H413 0.961 . S
C399 H414 0.961 . S
C399 H415 0.961 . S
C400 C401 1.370 . S
C400 C402 1.363 . S
C400 H416 0.931 . S
C401 C400 1.370 . S
C401 C405 1.408 . S
C402 C400 1.363 . S
C402 C403 1.370 . S
C402 C406 1.524 . S
C403 C395 1.503 . S
C403 C402 1.370 . S
C403 C404 1.403 . S
C404 C403 1.403 . S
C404 C405 1.404 . S
C404 C407 1.539 . S
C405 C401 1.408 . S
C405 C404 1.404 . S
C405 H417 0.930 . S
C406 C402 1.524 . S
C406 H418 0.956 . S
C406 H419 0.961 . S
C406 H420 0.961 . S
C407 C404 1.539 . S
C407 H421 0.958 . S
C407 H422 0.961 . S
C407 H423 0.960 . S
H408 C392 0.931 . S
H409 C397 0.929 . S
H410 C398 0.960 . S
H411 C398 0.962 . S
H412 C398 0.960 . S
H413 C399 0.961 . S
H414 C399 0.961 . S
H415 C399 0.961 . S
H416 C400 0.931 . S
H417 C405 0.930 . S
H418 C406 0.956 . S
H419 C406 0.961 . S
H420 C406 0.961 . S
H421 C407 0.958 . S
H422 C407 0.961 . S
H423 C407 0.960 . S
C424 C425 1.391 . S
C424 C426 1.394 . S
C424 H440 0.931 . S
C425 C424 1.391 . S
C425 C429 1.376 . S
C426 C424 1.394 . S
C426 C427 1.369 . S
C426 C430 1.531 . S
C427 C426 1.369 . S
C427 C428 1.410 . S
C427 C435 1.503 . S
C428 C427 1.410 . S
C428 C429 1.392 . S
C428 C431 1.511 . S
C429 C425 1.376 . S
C429 C428 1.392 . S
C429 H441 0.929 . S
C430 C426 1.531 . S
C430 H442 0.960 . S
C430 H443 0.962 . S
C430 H444 0.960 . S
C431 C428 1.511 . S
C431 H445 0.961 . S
C431 H446 0.961 . S
C431 H447 0.961 . S
C432 C433 1.370 . S
C432 C434 1.363 . S
C432 H448 0.931 . S
C433 C432 1.370 . S
C433 C437 1.408 . S
C434 C432 1.363 . S
C434 C435 1.370 . S
C434 C438 1.524 . S
C435 C427 1.503 . S
C435 C434 1.370 . S
C435 C436 1.403 . S
C436 C435 1.403 . S
C436 C437 1.404 . S
C436 C439 1.539 . S
C437 C433 1.408 . S
C437 C436 1.404 . S
C437 H449 0.930 . S
C438 C434 1.524 . S
C438 H450 0.956 . S
C438 H451 0.961 . S
C438 H452 0.961 . S
C439 C436 1.539 . S
C439 H453 0.958 . S
C439 H454 0.961 . S
C439 H455 0.960 . S
H440 C424 0.931 . S
H441 C429 0.929 . S
H442 C430 0.960 . S
H443 C430 0.962 . S
H444 C430 0.960 . S
H445 C431 0.961 . S
H446 C431 0.961 . S
H447 C431 0.961 . S
H448 C432 0.931 . S
H449 C437 0.930 . S
H450 C438 0.956 . S
H451 C438 0.961 . S
H452 C438 0.961 . S
H453 C439 0.958 . S
H454 C439 0.961 . S
H455 C439 0.960 . S
C456 C457 1.391 . S
C456 C458 1.394 . S
C456 H472 0.931 . S
C457 C456 1.391 . S
C457 C461 1.376 . S
C458 C456 1.394 . S
C458 C459 1.369 . S
C458 C462 1.531 . S
C459 C458 1.369 . S
C459 C460 1.410 . S
C459 C467 1.503 . S
C460 C459 1.410 . S
C460 C461 1.392 . S
C460 C463 1.511 . S
C461 C457 1.376 . S
C461 C460 1.392 . S
C461 H473 0.929 . S
C462 C458 1.531 . S
C462 H474 0.960 . S
C462 H475 0.962 . S
C462 H476 0.960 . S
C463 C460 1.511 . S
C463 H477 0.961 . S
C463 H478 0.961 . S
C463 H479 0.961 . S
C464 C465 1.370 1_556 S
C464 C466 1.363 . S
C464 H480 0.931 1_556 S
C465 C464 1.370 1_554 S
C465 C469 1.408 1_554 S
C466 C464 1.363 . S
C466 C467 1.370 . S
C466 C470 1.524 . S
C467 C459 1.503 . S
C467 C466 1.370 . S
C467 C468 1.403 . S
C468 C467 1.403 . S
C468 C469 1.404 . S
C468 C471 1.539 . S
C469 C465 1.408 1_556 S
C469 C468 1.404 . S
C469 H481 0.930 . S
C470 C466 1.524 . S
C470 H482 0.956 . S
C470 H483 0.961 . S
C470 H484 0.961 . S
C471 C468 1.539 . S
C471 H485 0.958 . S
C471 H486 0.961 . S
C471 H487 0.960 . S
H472 C456 0.931 . S
H473 C461 0.929 . S
H474 C462 0.960 . S
H475 C462 0.962 . S
H476 C462 0.960 . S
H477 C463 0.961 . S
H478 C463 0.961 . S
H479 C463 0.961 . S
H480 C464 0.931 1_554 S
H481 C469 0.930 . S
H482 C470 0.956 . S
H483 C470 0.961 . S
H484 C470 0.961 . S
H485 C471 0.958 . S
H486 C471 0.961 . S
H487 C471 0.960 . S
C488 C489 1.391 . S
C488 C490 1.394 . S
C488 H504 0.931 . S
C489 C488 1.391 . S
C489 C493 1.376 . S
C490 C488 1.394 . S
C490 C491 1.369 . S
C490 C494 1.531 . S
C491 C490 1.369 . S
C491 C492 1.410 . S
C491 C499 1.503 . S
C492 C491 1.410 . S
C492 C493 1.392 . S
C492 C495 1.511 . S
C493 C489 1.376 . S
C493 C492 1.392 . S
C493 H505 0.929 . S
C494 C490 1.531 . S
C494 H506 0.960 . S
C494 H507 0.962 . S
C494 H508 0.960 . S
C495 C492 1.511 . S
C495 H509 0.961 . S
C495 H510 0.961 . S
C495 H511 0.961 . S
C496 C497 1.370 . S
C496 C498 1.363 . S
C496 H512 0.931 . S
C497 C496 1.370 . S
C497 C501 1.408 . S
C498 C496 1.363 . S
C498 C499 1.370 . S
C498 C502 1.524 . S
C499 C491 1.503 . S
C499 C498 1.370 . S
C499 C500 1.403 . S
C500 C499 1.403 . S
C500 C501 1.404 . S
C500 C503 1.539 . S
C501 C497 1.408 . S
C501 C500 1.404 . S
C501 H513 0.930 . S
C502 C498 1.524 . S
C502 H514 0.956 . S
C502 H515 0.961 . S
C502 H516 0.961 . S
C503 C500 1.539 . S
C503 H517 0.958 . S
C503 H518 0.961 . S
C503 H519 0.960 . S
H504 C488 0.931 . S
H505 C493 0.929 . S
H506 C494 0.960 . S
H507 C494 0.962 . S
H508 C494 0.960 . S
H509 C495 0.961 . S
H510 C495 0.961 . S
H511 C495 0.961 . S
H512 C496 0.931 . S
H513 C501 0.930 . S
H514 C502 0.956 . S
H515 C502 0.961 . S
H516 C502 0.961 . S
H517 C503 0.958 . S
H518 C503 0.961 . S
H519 C503 0.960 . S
C520 C521 1.391 . S
C520 C522 1.394 . S
C520 H536 0.931 . S
C521 C520 1.391 . S
C521 C525 1.376 . S
C522 C520 1.394 . S
C522 C523 1.369 . S
C522 C526 1.531 . S
C523 C522 1.369 . S
C523 C524 1.410 . S
C523 C531 1.503 . S
C524 C523 1.410 . S
C524 C525 1.392 . S
C524 C527 1.511 . S
C525 C521 1.376 . S
C525 C524 1.392 . S
C525 H537 0.929 . S
C526 C522 1.531 . S
C526 H538 0.960 . S
C526 H539 0.962 . S
C526 H540 0.960 . S
C527 C524 1.511 . S
C527 H541 0.961 . S
C527 H542 0.961 . S
C527 H543 0.961 . S
C528 C529 1.370 . S
C528 C530 1.363 . S
C528 H544 0.931 . S
C529 C528 1.370 . S
C529 C533 1.408 . S
C530 C528 1.363 . S
C530 C531 1.370 . S
C530 C534 1.524 . S
C531 C523 1.503 . S
C531 C530 1.370 . S
C531 C532 1.403 . S
C532 C531 1.403 . S
C532 C533 1.404 . S
C532 C535 1.539 . S
C533 C529 1.408 . S
C533 C532 1.404 . S
C533 H545 0.930 . S
C534 C530 1.524 . S
C534 H546 0.956 . S
C534 H547 0.961 . S
C534 H548 0.961 . S
C535 C532 1.539 . S
C535 H549 0.958 . S
C535 H550 0.961 . S
C535 H551 0.960 . S
H536 C520 0.931 . S
H537 C525 0.929 . S
H538 C526 0.960 . S
H539 C526 0.962 . S
H540 C526 0.960 . S
H541 C527 0.961 . S
H542 C527 0.961 . S
H543 C527 0.961 . S
H544 C528 0.931 . S
H545 C533 0.930 . S
H546 C534 0.956 . S
H547 C534 0.961 . S
H548 C534 0.961 . S
H549 C535 0.958 . S
H550 C535 0.961 . S
H551 C535 0.960 . S
C552 C553 1.391 . S
C552 C554 1.394 . S
C552 H568 0.931 . S
C553 C552 1.391 . S
C553 C557 1.376 . S
C554 C552 1.394 . S
C554 C555 1.369 . S
C554 C558 1.531 . S
C555 C554 1.369 . S
C555 C556 1.410 . S
C555 C563 1.503 . S
C556 C555 1.410 . S
C556 C557 1.392 . S
C556 C559 1.511 . S
C557 C553 1.376 . S
C557 C556 1.392 . S
C557 H569 0.929 . S
C558 C554 1.531 . S
C558 H570 0.960 . S
C558 H571 0.962 . S
C558 H572 0.960 . S
C559 C556 1.511 . S
C559 H573 0.961 . S
C559 H574 0.961 . S
C559 H575 0.961 . S
C560 C561 1.370 . S
C560 C562 1.363 . S
C560 H576 0.931 . S
C561 C560 1.370 . S
C561 C565 1.408 . S
C562 C560 1.363 . S
C562 C563 1.370 . S
C562 C566 1.524 . S
C563 C555 1.503 . S
C563 C562 1.370 . S
C563 C564 1.403 . S
C564 C563 1.403 . S
C564 C565 1.404 . S
C564 C567 1.539 . S
C565 C561 1.408 . S
C565 C564 1.404 . S
C565 H577 0.930 . S
C566 C562 1.524 . S
C566 H578 0.956 . S
C566 H579 0.961 . S
C566 H580 0.961 . S
C567 C564 1.539 . S
C567 H581 0.958 . S
C567 H582 0.961 . S
C567 H583 0.960 . S
H568 C552 0.931 . S
H569 C557 0.929 . S
H570 C558 0.960 . S
H571 C558 0.962 . S
H572 C558 0.960 . S
H573 C559 0.961 . S
H574 C559 0.961 . S
H575 C559 0.961 . S
H576 C560 0.931 . S
H577 C565 0.930 . S
H578 C566 0.956 . S
H579 C566 0.961 . S
H580 C566 0.961 . S
H581 C567 0.958 . S
H582 C567 0.961 . S
H583 C567 0.960 . S
C584 C585 1.391 . S
C584 C586 1.394 . S
C584 H600 0.931 . S
C585 C584 1.391 . S
C585 C589 1.376 . S
C586 C584 1.394 . S
C586 C587 1.369 . S
C586 C590 1.531 . S
C587 C586 1.369 . S
C587 C588 1.410 . S
C587 C595 1.503 . S
C588 C587 1.410 . S
C588 C589 1.392 . S
C588 C591 1.511 . S
C589 C585 1.376 . S
C589 C588 1.392 . S
C589 H601 0.929 . S
C590 C586 1.531 . S
C590 H602 0.960 . S
C590 H603 0.962 . S
C590 H604 0.960 . S
C591 C588 1.511 . S
C591 H605 0.961 . S
C591 H606 0.961 . S
C591 H607 0.961 . S
C592 C593 1.370 . S
C592 C594 1.363 . S
C592 H608 0.931 . S
C593 C592 1.370 . S
C593 C597 1.408 . S
C594 C592 1.363 . S
C594 C595 1.370 . S
C594 C598 1.524 . S
C595 C587 1.503 . S
C595 C594 1.370 . S
C595 C596 1.403 . S
C596 C595 1.403 . S
C596 C597 1.404 . S
C596 C599 1.539 . S
C597 C593 1.408 . S
C597 C596 1.404 . S
C597 H609 0.930 . S
C598 C594 1.524 . S
C598 H610 0.956 . S
C598 H611 0.961 . S
C598 H612 0.961 . S
C599 C596 1.539 . S
C599 H613 0.958 . S
C599 H614 0.961 . S
C599 H615 0.960 . S
H600 C584 0.931 . S
H601 C589 0.929 . S
H602 C590 0.960 . S
H603 C590 0.962 . S
H604 C590 0.960 . S
H605 C591 0.961 . S
H606 C591 0.961 . S
H607 C591 0.961 . S
H608 C592 0.931 . S
H609 C597 0.930 . S
H610 C598 0.956 . S
H611 C598 0.961 . S
H612 C598 0.961 . S
H613 C599 0.958 . S
H614 C599 0.961 . S
H615 C599 0.960 . S
C616 C617 1.391 . S
C616 C618 1.394 . S
C616 H632 0.931 . S
C617 C616 1.391 . S
C617 C621 1.376 . S
C618 C616 1.394 . S
C618 C619 1.369 . S
C618 C622 1.531 . S
C619 C618 1.369 . S
C619 C620 1.410 . S
C619 C627 1.503 . S
C620 C619 1.410 . S
C620 C621 1.392 . S
C620 C623 1.511 . S
C621 C617 1.376 . S
C621 C620 1.392 . S
C621 H633 0.929 . S
C622 C618 1.531 . S
C622 H634 0.960 . S
C622 H635 0.962 . S
C622 H636 0.960 . S
C623 C620 1.511 . S
C623 H637 0.961 . S
C623 H638 0.961 . S
C623 H639 0.961 . S
C624 C625 1.370 . S
C624 C626 1.363 . S
C624 H640 0.931 . S
C625 C624 1.370 . S
C625 C629 1.408 . S
C626 C624 1.363 . S
C626 C627 1.370 . S
C626 C630 1.524 . S
C627 C619 1.503 . S
C627 C626 1.370 . S
C627 C628 1.403 . S
C628 C627 1.403 . S
C628 C629 1.404 . S
C628 C631 1.539 . S
C629 C625 1.408 . S
C629 C628 1.404 . S
C629 H641 0.930 . S
C630 C626 1.524 . S
C630 H642 0.956 . S
C630 H643 0.961 . S
C630 H644 0.961 . S
C631 C628 1.539 . S
C631 H645 0.958 . S
C631 H646 0.961 . S
C631 H647 0.960 . S
H632 C616 0.931 . S
H633 C621 0.929 . S
H634 C622 0.960 . S
H635 C622 0.962 . S
H636 C622 0.960 . S
H637 C623 0.961 . S
H638 C623 0.961 . S
H639 C623 0.961 . S
H640 C624 0.931 . S
H641 C629 0.930 . S
H642 C630 0.956 . S
H643 C630 0.961 . S
H644 C630 0.961 . S
H645 C631 0.958 . S
H646 C631 0.961 . S
H647 C631 0.960 . S
C648 C649 1.391 . S
C648 C650 1.394 . S
C648 H664 0.931 . S
C649 C648 1.391 . S
C649 C653 1.376 . S
C650 C648 1.394 . S
C650 C651 1.369 . S
C650 C654 1.531 . S
C651 C650 1.369 . S
C651 C652 1.410 . S
C651 C659 1.503 . S
C652 C651 1.410 . S
C652 C653 1.392 . S
C652 C655 1.511 . S
C653 C649 1.376 . S
C653 C652 1.392 . S
C653 H665 0.929 . S
C654 C650 1.531 . S
C654 H666 0.960 . S
C654 H667 0.962 . S
C654 H668 0.960 . S
C655 C652 1.511 . S
C655 H669 0.961 . S
C655 H670 0.961 . S
C655 H671 0.961 . S
C656 C657 1.370 . S
C656 C658 1.363 . S
C656 H672 0.931 . S
C657 C656 1.370 . S
C657 C661 1.408 . S
C658 C656 1.363 . S
C658 C659 1.370 . S
C658 C662 1.524 . S
C659 C651 1.503 . S
C659 C658 1.370 . S
C659 C660 1.403 . S
C660 C659 1.403 . S
C660 C661 1.404 . S
C660 C663 1.539 . S
C661 C657 1.408 . S
C661 C660 1.404 . S
C661 H673 0.930 . S
C662 C658 1.524 . S
C662 H674 0.956 . S
C662 H675 0.961 . S
C662 H676 0.961 . S
C663 C660 1.539 . S
C663 H677 0.958 . S
C663 H678 0.961 . S
C663 H679 0.960 . S
H664 C648 0.931 . S
H665 C653 0.929 . S
H666 C654 0.960 . S
H667 C654 0.962 . S
H668 C654 0.960 . S
H669 C655 0.961 . S
H670 C655 0.961 . S
H671 C655 0.961 . S
H672 C656 0.931 . S
H673 C661 0.930 . S
H674 C662 0.956 . S
H675 C662 0.961 . S
H676 C662 0.961 . S
H677 C663 0.958 . S
H678 C663 0.961 . S
H679 C663 0.960 . S
C680 C681 1.391 . S
C680 C682 1.394 . S
C680 H696 0.931 . S
C681 C680 1.391 . S
C681 C685 1.376 . S
C682 C680 1.394 . S
C682 C683 1.369 . S
C682 C686 1.531 . S
C683 C682 1.369 . S
C683 C684 1.410 . S
C683 C691 1.503 . S
C684 C683 1.410 . S
C684 C685 1.392 . S
C684 C687 1.511 . S
C685 C681 1.376 . S
C685 C684 1.392 . S
C685 H697 0.929 . S
C686 C682 1.531 . S
C686 H698 0.960 . S
C686 H699 0.962 . S
C686 H700 0.960 . S
C687 C684 1.511 . S
C687 H701 0.961 . S
C687 H702 0.961 . S
C687 H703 0.961 . S
C688 C689 1.370 . S
C688 C690 1.363 . S
C688 H704 0.931 . S
C689 C688 1.370 . S
C689 C693 1.408 . S
C690 C688 1.363 . S
C690 C691 1.370 . S
C690 C694 1.524 . S
C691 C683 1.503 . S
C691 C690 1.370 . S
C691 C692 1.403 . S
C692 C691 1.403 . S
C692 C693 1.404 . S
C692 C695 1.539 . S
C693 C689 1.408 . S
C693 C692 1.404 . S
C693 H705 0.930 . S
C694 C690 1.524 . S
C694 H706 0.956 . S
C694 H707 0.961 . S
C694 H708 0.961 . S
C695 C692 1.539 . S
C695 H709 0.958 . S
C695 H710 0.961 . S
C695 H711 0.960 . S
H696 C680 0.931 . S
H697 C685 0.929 . S
H698 C686 0.960 . S
H699 C686 0.962 . S
H700 C686 0.960 . S
H701 C687 0.961 . S
H702 C687 0.961 . S
H703 C687 0.961 . S
H704 C688 0.931 . S
H705 C693 0.930 . S
H706 C694 0.956 . S
H707 C694 0.961 . S
H708 C694 0.961 . S
H709 C695 0.958 . S
H710 C695 0.961 . S
H711 C695 0.960 . S
C712 C713 1.391 . S
C712 C714 1.394 . S
C712 H728 0.931 . S
C713 C712 1.391 . S
C713 C717 1.376 . S
C714 C712 1.394 . S
C714 C715 1.369 1_545 S
C714 C718 1.531 . S
C715 C714 1.369 1_565 S
C715 C716 1.410 . S
C715 C723 1.503 . S
C716 C715 1.410 . S
C716 C717 1.392 1_565 S
C716 C719 1.511 . S
C717 C713 1.376 . S
C717 C716 1.392 1_545 S
C717 H729 0.929 1_545 S
C718 C714 1.531 . S
C718 H730 0.960 . S
C718 H731 0.962 . S
C718 H732 0.960 . S
C719 C716 1.511 . S
C719 H733 0.961 . S
C719 H734 0.961 . S
C719 H735 0.961 . S
C720 C721 1.370 . S
C720 C722 1.363 . S
C720 H736 0.931 . S
C721 C720 1.370 . S
C721 C725 1.408 . S
C722 C720 1.363 . S
C722 C723 1.370 . S
C722 C726 1.524 . S
C723 C715 1.503 . S
C723 C722 1.370 . S
C723 C724 1.403 . S
C724 C723 1.403 . S
C724 C725 1.404 . S
C724 C727 1.539 1_565 S
C725 C721 1.408 . S
C725 C724 1.404 . S
C725 H737 0.930 . S
C726 C722 1.524 . S
C726 H738 0.956 . S
C726 H739 0.961 . S
C726 H740 0.961 . S
C727 C724 1.539 1_545 S
C727 H741 0.958 . S
C727 H742 0.961 . S
C727 H743 0.960 . S
H728 C712 0.931 . S
H729 C717 0.929 1_565 S
H730 C718 0.960 . S
H731 C718 0.962 . S
H732 C718 0.960 . S
H733 C719 0.961 . S
H734 C719 0.961 . S
H735 C719 0.961 . S
H736 C720 0.931 . S
H737 C725 0.930 . S
H738 C726 0.956 . S
H739 C726 0.961 . S
H740 C726 0.961 . S
H741 C727 0.958 . S
H742 C727 0.961 . S
H743 C727 0.960 . S
C744 C745 1.391 . S
C744 C746 1.394 . S
C744 H760 0.931 . S
C745 C744 1.391 . S
C745 C749 1.376 . S
C746 C744 1.394 . S
C746 C747 1.369 1_554 S
C746 C750 1.531 . S
C747 C746 1.369 1_556 S
C747 C748 1.410 . S
C747 C755 1.503 . S
C748 C747 1.410 . S
C748 C749 1.392 1_556 S
C748 C751 1.511 . S
C749 C745 1.376 . S
C749 C748 1.392 1_554 S
C749 H761 0.929 1_554 S
C750 C746 1.531 . S
C750 H762 0.960 . S
C750 H763 0.962 . S
C750 H764 0.960 . S
C751 C748 1.511 . S
C751 H765 0.961 . S
C751 H766 0.961 . S
C751 H767 0.961 . S
C752 C753 1.370 . S
C752 C754 1.363 . S
C752 H768 0.931 . S
C753 C752 1.370 . S
C753 C757 1.408 . S
C754 C752 1.363 . S
C754 C755 1.370 . S
C754 C758 1.524 . S
C755 C747 1.503 . S
C755 C754 1.370 . S
C755 C756 1.403 . S
C756 C755 1.403 . S
C756 C757 1.404 . S
C756 C759 1.539 . S
C757 C753 1.408 . S
C757 C756 1.404 . S
C757 H769 0.930 . S
C758 C754 1.524 . S
C758 H770 0.956 1_556 S
C758 H771 0.961 . S
C758 H772 0.961 . S
C759 C756 1.539 . S
C759 H773 0.958 . S
C759 H774 0.961 . S
C759 H775 0.960 . S
H760 C744 0.931 . S
H761 C749 0.929 1_556 S
H762 C750 0.960 . S
H763 C750 0.962 . S
H764 C750 0.960 . S
H765 C751 0.961 . S
H766 C751 0.961 . S
H767 C751 0.961 . S
H768 C752 0.931 . S
H769 C757 0.930 . S
H770 C758 0.956 1_554 S
H771 C758 0.961 . S
H772 C758 0.961 . S
H773 C759 0.958 . S
H774 C759 0.961 . S
H775 C759 0.960 . S
C776 C777 1.391 . S
C776 C778 1.394 . S
C776 H792 0.931 . S
C777 C776 1.391 . S
C777 C781 1.376 . S
C778 C776 1.394 . S
C778 C779 1.369 . S
C778 C782 1.531 . S
C779 C778 1.369 . S
C779 C780 1.410 . S
C779 C787 1.503 . S
C780 C779 1.410 . S
C780 C781 1.392 . S
C780 C783 1.511 1_655 S
C781 C777 1.376 . S
C781 C780 1.392 . S
C781 H793 0.929 . S
C782 C778 1.531 . S
C782 H794 0.960 . S
C782 H795 0.962 . S
C782 H796 0.960 . S
C783 C780 1.511 1_455 S
C783 H797 0.961 . S
C783 H798 0.961 . S
C783 H799 0.961 . S
C784 C785 1.370 1_656 S
C784 C786 1.363 . S
C784 H800 0.931 . S
C785 C784 1.370 1_454 S
C785 C789 1.408 . S
C786 C784 1.363 . S
C786 C787 1.370 . S
C786 C790 1.524 . S
C787 C779 1.503 . S
C787 C786 1.370 . S
C787 C788 1.402 . S
C788 C787 1.402 . S
C788 C789 1.404 1_656 S
C788 C791 1.541 1_656 S
C789 C785 1.408 . S
C789 C788 1.404 1_454 S
C789 H801 0.930 . S
C790 C786 1.524 . S
C790 H802 0.956 . S
C790 H803 0.961 . S
C790 H804 0.961 . S
C791 C788 1.541 1_454 S
C791 H805 0.958 1_455 S
C791 H806 0.961 . S
C791 H807 0.960 1_554 S
H792 C776 0.931 . S
H793 C781 0.929 . S
H794 C782 0.960 . S
H795 C782 0.962 . S
H796 C782 0.960 . S
H797 C783 0.961 . S
H798 C783 0.961 . S
H799 C783 0.961 . S
H800 C784 0.931 . S
H801 C789 0.930 . S
H802 C790 0.956 . S
H803 C790 0.961 . S
H804 C790 0.961 . S
H805 C791 0.958 1_655 S
H806 C791 0.961 . S
H807 C791 0.960 1_556 S
C808 C809 1.391 . S
C808 C810 1.394 . S
C808 H824 0.931 . S
C809 C808 1.391 . S
C809 C813 1.376 . S
C810 C808 1.394 . S
C810 C811 1.369 . S
C810 C814 1.531 . S
C811 C810 1.369 . S
C811 C812 1.410 . S
C811 C819 1.503 . S
C812 C811 1.410 . S
C812 C813 1.392 . S
C812 C815 1.511 1_556 S
C813 C809 1.376 . S
C813 C812 1.392 . S
C813 H825 0.929 . S
C814 C810 1.531 . S
C814 H826 0.960 . S
C814 H827 0.962 . S
C814 H828 0.960 . S
C815 C812 1.511 1_554 S
C815 H829 0.957 1_554 S
C815 H830 0.961 . S
C815 H831 0.961 . S
C816 C817 1.370 . S
C816 C818 1.363 1_554 S
C816 H832 0.931 . S
C817 C816 1.370 . S
C817 C821 1.408 . S
C818 C816 1.363 1_556 S
C818 C819 1.370 . S
C818 C822 1.524 . S
C819 C811 1.503 . S
C819 C818 1.370 . S
C819 C820 1.403 1_556 S
C820 C819 1.403 1_554 S
C820 C821 1.404 . S
C820 C823 1.539 . S
C821 C817 1.408 . S
C821 C820 1.404 . S
C821 H833 0.930 . S
C822 C818 1.524 . S
C822 H834 0.956 . S
C822 H835 0.961 . S
C822 H836 0.961 . S
C823 C820 1.539 . S
C823 H837 0.958 . S
C823 H838 0.961 . S
C823 H839 0.960 . S
H824 C808 0.931 . S
H825 C813 0.929 . S
H826 C814 0.960 . S
H827 C814 0.962 . S
H828 C814 0.960 . S
H829 C815 0.957 1_556 S
H830 C815 0.961 . S
H831 C815 0.961 . S
H832 C816 0.931 . S
H833 C821 0.930 . S
H834 C822 0.956 . S
H835 C822 0.961 . S
H836 C822 0.961 . S
H837 C823 0.958 . S
H838 C823 0.961 . S
H839 C823 0.960 . S
C840 C841 1.391 . S
C840 C842 1.394 . S
C840 H856 0.931 . S
C841 C840 1.391 . S
C841 C845 1.376 . S
C842 C840 1.394 . S
C842 C843 1.369 . S
C842 C846 1.531 . S
C843 C842 1.369 . S
C843 C844 1.410 . S
C843 C851 1.503 . S
C844 C843 1.410 . S
C844 C845 1.392 . S
C844 C847 1.511 . S
C845 C841 1.376 . S
C845 C844 1.392 . S
C845 H857 0.929 . S
C846 C842 1.531 . S
C846 H858 0.960 . S
C846 H859 0.962 . S
C846 H860 0.960 . S
C847 C844 1.511 . S
C847 H861 0.961 . S
C847 H862 0.961 . S
C847 H863 0.961 . S
C848 C849 1.370 . S
C848 C850 1.363 . S
C848 H864 0.931 1_655 S
C849 C848 1.370 . S
C849 C853 1.408 . S
C850 C848 1.363 . S
C850 C851 1.370 . S
C850 C854 1.524 . S
C851 C843 1.503 . S
C851 C850 1.370 . S
C851 C852 1.403 . S
C852 C851 1.403 . S
C852 C853 1.404 . S
C852 C855 1.539 . S
C853 C849 1.408 . S
C853 C852 1.404 . S
C853 H865 0.930 . S
C854 C850 1.524 . S
C854 H866 0.956 . S
C854 H867 0.961 . S
C854 H868 0.961 1_655 S
C855 C852 1.539 . S
C855 H869 0.958 . S
C855 H870 0.961 . S
C855 H871 0.960 . S
H856 C840 0.931 . S
H857 C845 0.929 . S
H858 C846 0.960 . S
H859 C846 0.962 . S
H860 C846 0.960 . S
H861 C847 0.961 . S
H862 C847 0.961 . S
H863 C847 0.961 . S
H864 C848 0.931 1_455 S
H865 C853 0.930 . S
H866 C854 0.956 . S
H867 C854 0.961 . S
H868 C854 0.961 1_455 S
H869 C855 0.958 . S
H870 C855 0.961 . S
H871 C855 0.960 . S
C872 C873 1.391 . S
C872 C874 1.394 1_554 S
C872 H888 0.931 . S
C873 C872 1.391 . S
C873 C877 1.376 . S
C874 C872 1.394 1_556 S
C874 C875 1.369 . S
C874 C878 1.531 . S
C875 C874 1.369 . S
C875 C876 1.410 . S
C875 C883 1.503 . S
C876 C875 1.410 . S
C876 C877 1.392 1_556 S
C876 C879 1.511 . S
C877 C873 1.376 . S
C877 C876 1.392 1_554 S
C877 H889 0.929 . S
C878 C874 1.531 . S
C878 H890 0.960 . S
C878 H891 0.962 . S
C878 H892 0.960 . S
C879 C876 1.511 . S
C879 H893 0.961 . S
C879 H894 0.961 . S
C879 H895 0.961 1_556 S
C880 C881 1.370 . S
C880 C882 1.363 . S
C880 H896 0.931 . S
C881 C880 1.370 . S
C881 C885 1.408 . S
C882 C880 1.363 . S
C882 C883 1.370 . S
C882 C886 1.524 . S
C883 C875 1.503 . S
C883 C882 1.370 . S
C883 C884 1.403 . S
C884 C883 1.403 . S
C884 C885 1.404 . S
C884 C887 1.539 1_556 S
C885 C881 1.408 . S
C885 C884 1.404 . S
C885 H897 0.930 . S
C886 C882 1.524 . S
C886 H898 0.956 . S
C886 H899 0.961 . S
C886 H900 0.961 . S
C887 C884 1.539 1_554 S
C887 H901 0.958 . S
C887 H902 0.961 . S
C887 H903 0.960 . S
H888 C872 0.931 . S
H889 C877 0.929 . S
H890 C878 0.960 . S
H891 C878 0.962 . S
H892 C878 0.960 . S
H893 C879 0.961 . S
H894 C879 0.961 . S
H895 C879 0.961 1_554 S
H896 C880 0.931 . S
H897 C885 0.930 . S
H898 C886 0.956 . S
H899 C886 0.961 . S
H900 C886 0.961 . S
H901 C887 0.958 . S
H902 C887 0.961 . S
H903 C887 0.960 . S
C904 C905 1.391 . S
C904 C906 1.394 . S
C904 H920 0.931 . S
C905 C904 1.391 . S
C905 C909 1.376 . S
C906 C904 1.394 . S
C906 C907 1.369 . S
C906 C910 1.531 . S
C907 C906 1.369 . S
C907 C908 1.410 . S
C907 C915 1.507 . S
C908 C907 1.410 . S
C908 C909 1.392 . S
C908 C911 1.511 1_556 S
C909 C905 1.376 . S
C909 C908 1.392 . S
C909 H921 0.929 . S
C910 C906 1.531 . S
C910 H922 0.960 . S
C910 H923 0.962 . S
C910 H924 0.960 . S
C911 C908 1.511 1_554 S
C911 H925 0.961 . S
C911 H926 0.961 . S
C911 H927 0.961 . S
C912 C913 1.370 . S
C912 C914 1.363 . S
C912 H928 0.931 . S
C913 C912 1.370 . S
C913 C917 1.408 . S
C914 C912 1.363 . S
C914 C915 1.369 1_554 S
C914 C918 1.524 . S
C915 C907 1.507 . S
C915 C914 1.369 1_556 S
C915 C916 1.401 1_556 S
C916 C915 1.401 1_554 S
C916 C917 1.404 . S
C916 C919 1.539 1_554 S
C917 C913 1.408 . S
C917 C916 1.404 . S
C917 H929 0.930 . S
C918 C914 1.524 . S
C918 H930 0.956 1_554 S
C918 H931 0.961 . S
C918 H932 0.961 . S
C919 C916 1.539 1_556 S
C919 H933 0.958 . S
C919 H934 0.961 . S
C919 H935 0.960 . S
H920 C904 0.931 . S
H921 C909 0.929 . S
H922 C910 0.960 . S
H923 C910 0.962 . S
H924 C910 0.960 . S
H925 C911 0.961 . S
H926 C911 0.961 . S
H927 C911 0.961 . S
H928 C912 0.931 . S
H929 C917 0.930 . S
H930 C918 0.956 1_556 S
H931 C918 0.961 . S
H932 C918 0.961 . S
H933 C919 0.958 . S
H934 C919 0.961 . S
H935 C919 0.960 . S
C936 C937 1.391 . S
C936 C938 1.394 . S
C936 H952 0.931 . S
C937 C936 1.391 . S
C937 C941 1.376 . S
C938 C936 1.394 . S
C938 C939 1.369 . S
C938 C942 1.531 . S
C939 C938 1.369 . S
C939 C940 1.410 . S
C939 C947 1.503 . S
C940 C939 1.410 . S
C940 C941 1.392 . S
C940 C943 1.511 1_545 S
C941 C937 1.376 . S
C941 C940 1.392 . S
C941 H953 0.929 . S
C942 C938 1.531 . S
C942 H954 0.960 . S
C942 H955 0.962 . S
C942 H956 0.960 . S
C943 C940 1.511 1_565 S
C943 H957 0.961 . S
C943 H958 0.961 . S
C943 H959 0.961 . S
C944 C945 1.385 . S
C944 C946 1.340 1_565 S
C944 H960 0.940 . S
C945 C944 1.385 . S
C945 C949 1.408 . S
C946 C944 1.340 1_545 S
C946 C947 1.370 . S
C946 C950 1.524 . S
C947 C939 1.503 . S
C947 C946 1.370 . S
C947 C948 1.403 . S
C948 C947 1.403 . S
C948 C949 1.404 1_545 S
C948 C951 1.539 . S
C949 C945 1.408 . S
C949 C948 1.404 1_565 S
C949 H961 0.930 . S
C950 C946 1.524 . S
C950 H962 0.956 . S
C950 H963 0.961 . S
C950 H964 0.961 . S
C951 C948 1.539 . S
C951 H965 0.958 . S
C951 H966 0.961 1_545 S
C951 H967 0.960 . S
H952 C936 0.931 . S
H953 C941 0.929 . S
H954 C942 0.960 . S
H955 C942 0.962 . S
H956 C942 0.960 . S
H957 C943 0.961 . S
H958 C943 0.961 . S
H959 C943 0.961 . S
H960 C944 0.940 . S
H961 C949 0.930 . S
H962 C950 0.956 . S
H963 C950 0.961 . S
H964 C950 0.961 . S
H965 C951 0.958 . S
H966 C951 0.961 1_565 S
H967 C951 0.960 . S
C968 C969 1.391 . S
C968 C970 1.394 . S
C968 H984 0.931 . S
C969 C968 1.391 . S
C969 C973 1.376 . S
C970 C968 1.394 . S
C970 C971 1.369 . S
C970 C974 1.531 . S
C971 C970 1.369 . S
C971 C972 1.410 . S
C971 C979 1.503 . S
C972 C971 1.410 . S
C972 C973 1.392 . S
C972 C975 1.511 . S
C973 C969 1.376 . S
C973 C972 1.392 . S
C973 H985 0.929 . S
C974 C970 1.531 . S
C974 H986 0.960 . S
C974 H987 0.962 . S
C974 H988 0.960 . S
C975 C972 1.511 . S
C975 H989 0.961 . S
C975 H990 0.961 . S
C975 H991 0.961 . S
C976 C977 1.370 . S
C976 C978 1.363 . S
C976 H992 0.931 . S
C977 C976 1.370 . S
C977 C981 1.408 . S
C978 C976 1.363 . S
C978 C979 1.370 . S
C978 C982 1.524 . S
C979 C971 1.503 . S
C979 C978 1.370 . S
C979 C980 1.403 . S
C980 C979 1.403 . S
C980 C981 1.404 . S
C980 C983 1.539 . S
C981 C977 1.408 . S
C981 C980 1.404 . S
C981 H993 0.930 . S
C982 C978 1.524 . S
C982 H994 0.956 . S
C982 H995 0.961 . S
C982 H996 0.961 . S
C983 C980 1.539 . S
C983 H997 0.958 . S
C983 H998 0.961 . S
C983 H999 0.960 . S
H984 C968 0.931 . S
H985 C973 0.929 . S
H986 C974 0.960 . S
H987 C974 0.962 . S
H988 C974 0.960 . S
H989 C975 0.961 . S
H990 C975 0.961 . S
H991 C975 0.961 . S
H992 C976 0.931 . S
H993 C981 0.930 . S
H994 C982 0.956 . S
H995 C982 0.961 . S
H996 C982 0.961 . S
H997 C983 0.958 . S
H998 C983 0.961 . S
H999 C983 0.960 . S
C1000 C1001 1.391 . S
C1000 C1002 1.394 . S
C1000 H1016 0.931 . S
C1001 C1000 1.391 . S
C1001 C1005 1.376 . S
C1002 C1000 1.394 . S
C1002 C1003 1.369 . S
C1002 C1006 1.531 . S
C1003 C1002 1.369 . S
C1003 C1004 1.410 . S
C1003 C1011 1.503 . S
C1004 C1003 1.410 . S
C1004 C1005 1.392 . S
C1004 C1007 1.511 . S
C1005 C1001 1.376 . S
C1005 C1004 1.392 . S
C1005 H1017 0.929 . S
C1006 C1002 1.531 . S
C1006 H1018 0.960 . S
C1006 H1019 0.962 . S
C1006 H1020 0.960 . S
C1007 C1004 1.511 . S
C1007 H1021 0.961 . S
C1007 H1022 0.961 . S
C1007 H1023 0.961 . S
C1008 C1009 1.370 . S
C1008 C1010 1.363 . S
C1008 H1024 0.931 . S
C1009 C1008 1.370 . S
C1009 C1013 1.408 . S
C1010 C1008 1.363 . S
C1010 C1011 1.370 . S
C1010 C1014 1.524 . S
C1011 C1003 1.503 . S
C1011 C1010 1.370 . S
C1011 C1012 1.403 . S
C1012 C1011 1.403 . S
C1012 C1013 1.404 . S
C1012 C1015 1.539 . S
C1013 C1009 1.408 . S
C1013 C1012 1.404 . S
C1013 H1025 0.930 . S
C1014 C1010 1.524 . S
C1014 H1026 0.956 . S
C1014 H1027 0.961 . S
C1014 H1028 0.961 . S
C1015 C1012 1.539 . S
C1015 H1029 0.958 . S
C1015 H1030 0.961 . S
C1015 H1031 0.960 . S
H1016 C1000 0.931 . S
H1017 C1005 0.929 . S
H1018 C1006 0.960 . S
H1019 C1006 0.962 . S
H1020 C1006 0.960 . S
H1021 C1007 0.961 . S
H1022 C1007 0.961 . S
H1023 C1007 0.961 . S
H1024 C1008 0.931 . S
H1025 C1013 0.930 . S
H1026 C1014 0.956 . S
H1027 C1014 0.961 . S
H1028 C1014 0.961 . S
H1029 C1015 0.958 . S
H1030 C1015 0.961 . S
H1031 C1015 0.960 . S
C1032 C1033 1.391 . S
C1032 C1034 1.394 . S
C1032 H1048 0.931 . S
C1033 C1032 1.391 . S
C1033 C1037 1.376 . S
C1034 C1032 1.394 . S
C1034 C1035 1.369 . S
C1034 C1038 1.531 . S
C1035 C1034 1.369 . S
C1035 C1036 1.410 . S
C1035 C1043 1.503 . S
C1036 C1035 1.410 . S
C1036 C1037 1.392 . S
C1036 C1039 1.511 . S
C1037 C1033 1.376 . S
C1037 C1036 1.392 . S
C1037 H1049 0.929 . S
C1038 C1034 1.531 . S
C1038 H1050 0.960 . S
C1038 H1051 0.962 . S
C1038 H1052 0.960 . S
C1039 C1036 1.511 . S
C1039 H1053 0.961 . S
C1039 H1054 0.961 . S
C1039 H1055 0.961 . S
C1040 C1041 1.370 . S
C1040 C1042 1.363 . S
C1040 H1056 0.931 . S
C1041 C1040 1.370 . S
C1041 C1045 1.408 . S
C1042 C1040 1.363 . S
C1042 C1043 1.370 . S
C1042 C1046 1.524 . S
C1043 C1035 1.503 . S
C1043 C1042 1.370 . S
C1043 C1044 1.403 . S
C1044 C1043 1.403 . S
C1044 C1045 1.404 . S
C1044 C1047 1.539 . S
C1045 C1041 1.408 . S
C1045 C1044 1.404 . S
C1045 H1057 0.930 . S
C1046 C1042 1.524 . S
C1046 H1058 0.956 . S
C1046 H1059 0.961 . S
C1046 H1060 0.961 . S
C1047 C1044 1.539 . S
C1047 H1061 0.958 . S
C1047 H1062 0.961 . S
C1047 H1063 0.960 . S
H1048 C1032 0.931 . S
H1049 C1037 0.929 . S
H1050 C1038 0.960 . S
H1051 C1038 0.962 . S
H1052 C1038 0.960 . S
H1053 C1039 0.961 . S
H1054 C1039 0.961 . S
H1055 C1039 0.961 . S
H1056 C1040 0.931 . S
H1057 C1045 0.930 . S
H1058 C1046 0.956 . S
H1059 C1046 0.961 . S
H1060 C1046 0.961 . S
H1061 C1047 0.958 . S
H1062 C1047 0.961 . S
H1063 C1047 0.960 . S
C1064 C1065 1.391 . S
C1064 C1066 1.394 . S
C1064 H1080 0.931 . S
C1065 C1064 1.391 . S
C1065 C1069 1.376 . S
C1066 C1064 1.394 . S
C1066 C1067 1.369 . S
C1066 C1070 1.531 . S
C1067 C1066 1.369 . S
C1067 C1068 1.410 . S
C1067 C1075 1.503 1_545 S
C1068 C1067 1.410 . S
C1068 C1069 1.392 . S
C1068 C1071 1.511 1_545 S
C1069 C1065 1.376 . S
C1069 C1068 1.392 . S
C1069 H1081 0.929 . S
C1070 C1066 1.531 . S
C1070 H1082 0.960 . S
C1070 H1083 0.962 . S
C1070 H1084 0.960 . S
C1071 C1068 1.511 1_565 S
C1071 H1085 0.961 . S
C1071 H1086 0.961 . S
C1071 H1087 0.961 . S
C1072 C1073 1.370 . S
C1072 C1074 1.363 . S
C1072 H1088 0.931 . S
C1073 C1072 1.370 . S
C1073 C1077 1.408 . S
C1074 C1072 1.363 . S
C1074 C1075 1.370 . S
C1074 C1078 1.524 . S
C1075 C1067 1.503 1_565 S
C1075 C1074 1.370 . S
C1075 C1076 1.403 . S
C1076 C1075 1.403 . S
C1076 C1077 1.404 . S
C1076 C1079 1.539 1_565 S
C1077 C1073 1.408 . S
C1077 C1076 1.404 . S
C1077 H1089 0.930 . S
C1078 C1074 1.524 . S
C1078 H1090 0.956 1_565 S
C1078 H1091 0.961 . S
C1078 H1092 0.961 . S
C1079 C1076 1.539 1_545 S
C1079 H1093 0.958 . S
C1079 H1094 0.961 1_545 S
C1079 H1095 0.960 . S
H1080 C1064 0.931 . S
H1081 C1069 0.929 . S
H1082 C1070 0.960 . S
H1083 C1070 0.962 . S
H1084 C1070 0.960 . S
H1085 C1071 0.961 . S
H1086 C1071 0.961 . S
H1087 C1071 0.961 . S
H1088 C1072 0.931 . S
H1089 C1077 0.930 . S
H1090 C1078 0.956 1_545 S
H1091 C1078 0.961 . S
H1092 C1078 0.961 . S
H1093 C1079 0.958 . S
H1094 C1079 0.961 1_565 S
H1095 C1079 0.960 . S
C1096 C1097 1.391 . S
C1096 C1098 1.394 . S
C1096 H1112 0.931 . S
C1097 C1096 1.391 . S
C1097 C1101 1.376 . S
C1098 C1096 1.394 . S
C1098 C1099 1.369 . S
C1098 C1102 1.531 1_655 S
C1099 C1098 1.369 . S
C1099 C1100 1.410 . S
C1099 C1107 1.503 1_655 S
C1100 C1099 1.410 . S
C1100 C1101 1.392 . S
C1100 C1103 1.511 . S
C1101 C1097 1.376 . S
C1101 C1100 1.392 . S
C1101 H1113 0.929 . S
C1102 C1098 1.531 1_455 S
C1102 H1114 0.959 1_455 S
C1102 H1115 0.962 . S
C1102 H1116 0.960 1_455 S
C1103 C1100 1.511 . S
C1103 H1117 0.961 . S
C1103 H1118 0.961 . S
C1103 H1119 0.961 . S
C1104 C1105 1.370 . S
C1104 C1106 1.363 . S
C1104 H1120 0.931 . S
C1105 C1104 1.370 . S
C1105 C1109 1.408 . S
C1106 C1104 1.363 . S
C1106 C1107 1.370 . S
C1106 C1110 1.524 . S
C1107 C1099 1.503 1_455 S
C1107 C1106 1.370 . S
C1107 C1108 1.403 1_455 S
C1108 C1107 1.403 1_655 S
C1108 C1109 1.404 1_655 S
C1108 C1111 1.539 . S
C1109 C1105 1.408 . S
C1109 C1108 1.404 1_455 S
C1109 H1121 0.930 . S
C1110 C1106 1.524 . S
C1110 H1122 0.956 . S
C1110 H1123 0.961 . S
C1110 H1124 0.961 . S
C1111 C1108 1.539 . S
C1111 H1125 0.958 . S
C1111 H1126 0.961 . S
C1111 H1127 0.960 . S
H1112 C1096 0.931 . S
H1113 C1101 0.929 . S
H1114 C1102 0.959 1_655 S
H1115 C1102 0.962 . S
H1116 C1102 0.960 1_655 S
H1117 C1103 0.961 . S
H1118 C1103 0.961 . S
H1119 C1103 0.961 . S
H1120 C1104 0.931 . S
H1121 C1109 0.930 . S
H1122 C1110 0.956 . S
H1123 C1110 0.961 . S
H1124 C1110 0.961 . S
H1125 C1111 0.958 . S
H1126 C1111 0.961 . S
H1127 C1111 0.960 . S
C1128 C1129 1.391 . S
C1128 C1130 1.394 . S
C1128 H1144 0.931 . S
C1129 C1128 1.391 . S
C1129 C1133 1.376 . S
C1130 C1128 1.394 . S
C1130 C1131 1.369 . S
C1130 C1134 1.531 . S
C1131 C1130 1.369 . S
C1131 C1132 1.410 . S
C1131 C1139 1.503 . S
C1132 C1131 1.410 . S
C1132 C1133 1.392 . S
C1132 C1135 1.511 . S
C1133 C1129 1.376 . S
C1133 C1132 1.392 . S
C1133 H1145 0.929 . S
C1134 C1130 1.531 . S
C1134 H1146 0.960 . S
C1134 H1147 0.962 . S
C1134 H1148 0.960 . S
C1135 C1132 1.511 . S
C1135 H1149 0.961 . S
C1135 H1150 0.961 . S
C1135 H1151 0.961 . S
C1136 C1137 1.370 . S
C1136 C1138 1.363 . S
C1136 H1152 0.931 . S
C1137 C1136 1.370 . S
C1137 C1141 1.408 . S
C1138 C1136 1.363 . S
C1138 C1139 1.370 . S
C1138 C1142 1.524 . S
C1139 C1131 1.503 . S
C1139 C1138 1.370 . S
C1139 C1140 1.403 . S
C1140 C1139 1.403 . S
C1140 C1141 1.404 . S
C1140 C1143 1.539 . S
C1141 C1137 1.408 . S
C1141 C1140 1.404 . S
C1141 H1153 0.930 . S
C1142 C1138 1.524 . S
C1142 H1154 0.956 . S
C1142 H1155 0.961 . S
C1142 H1156 0.961 . S
C1143 C1140 1.539 . S
C1143 H1157 0.958 . S
C1143 H1158 0.961 . S
C1143 H1159 0.960 . S
H1144 C1128 0.931 . S
H1145 C1133 0.929 . S
H1146 C1134 0.960 . S
H1147 C1134 0.962 . S
H1148 C1134 0.960 . S
H1149 C1135 0.961 . S
H1150 C1135 0.961 . S
H1151 C1135 0.961 . S
H1152 C1136 0.931 . S
H1153 C1141 0.930 . S
H1154 C1142 0.956 . S
H1155 C1142 0.961 . S
H1156 C1142 0.961 . S
H1157 C1143 0.958 . S
H1158 C1143 0.961 . S
H1159 C1143 0.960 . S
C1160 C1161 1.391 . S
C1160 C1162 1.394 . S
C1160 H1176 0.931 . S
C1161 C1160 1.391 . S
C1161 C1165 1.376 . S
C1162 C1160 1.394 . S
C1162 C1163 1.369 1_565 S
C1162 C1166 1.531 . S
C1163 C1162 1.369 1_545 S
C1163 C1164 1.410 . S
C1163 C1171 1.503 . S
C1164 C1163 1.410 . S
C1164 C1165 1.392 1_545 S
C1164 C1167 1.511 . S
C1165 C1161 1.376 . S
C1165 C1164 1.392 1_565 S
C1165 H1177 0.929 . S
C1166 C1162 1.531 . S
C1166 H1178 0.960 1_565 S
C1166 H1179 0.962 . S
C1166 H1180 0.960 . S
C1167 C1164 1.511 . S
C1167 H1181 0.961 . S
C1167 H1182 0.961 . S
C1167 H1183 0.961 . S
C1168 C1169 1.370 . S
C1168 C1170 1.363 . S
C1168 H1184 0.931 . S
C1169 C1168 1.370 . S
C1169 C1173 1.408 . S
C1170 C1168 1.363 . S
C1170 C1171 1.370 . S
C1170 C1174 1.524 . S
C1171 C1163 1.503 . S
C1171 C1170 1.370 . S
C1171 C1172 1.403 . S
C1172 C1171 1.403 . S
C1172 C1173 1.404 . S
C1172 C1175 1.539 . S
C1173 C1169 1.408 . S
C1173 C1172 1.404 . S
C1173 H1185 0.930 . S
C1174 C1170 1.524 . S
C1174 H1186 0.956 . S
C1174 H1187 0.961 . S
C1174 H1188 0.961 . S
C1175 C1172 1.539 . S
C1175 H1189 0.958 . S
C1175 H1190 0.961 . S
C1175 H1191 0.960 . S
H1176 C1160 0.931 . S
H1177 C1165 0.929 . S
H1178 C1166 0.960 1_545 S
H1179 C1166 0.962 . S
H1180 C1166 0.960 . S
H1181 C1167 0.961 . S
H1182 C1167 0.961 . S
H1183 C1167 0.961 . S
H1184 C1168 0.931 . S
H1185 C1173 0.930 . S
H1186 C1174 0.956 . S
H1187 C1174 0.961 . S
H1188 C1174 0.961 . S
H1189 C1175 0.958 . S
H1190 C1175 0.961 . S
H1191 C1175 0.960 . S
C1192 C1193 1.391 . S
C1192 C1194 1.394 . S
C1192 H1208 0.931 . S
C1193 C1192 1.391 . S
C1193 C1197 1.376 . S
C1194 C1192 1.394 . S
C1194 C1195 1.369 . S
C1194 C1198 1.531 . S
C1195 C1194 1.369 . S
C1195 C1196 1.410 . S
C1195 C1203 1.503 1_655 S
C1196 C1195 1.410 . S
C1196 C1197 1.392 . S
C1196 C1199 1.511 . S
C1197 C1193 1.376 . S
C1197 C1196 1.392 . S
C1197 H1209 0.929 . S
C1198 C1194 1.531 . S
C1198 H1210 0.960 . S
C1198 H1211 0.962 1_655 S
C1198 H1212 0.960 . S
C1199 C1196 1.511 . S
C1199 H1213 0.961 . S
C1199 H1214 0.961 1_655 S
C1199 H1215 0.961 . S
C1200 C1201 1.370 . S
C1200 C1202 1.363 . S
C1200 H1216 0.931 . S
C1201 C1200 1.370 . S
C1201 C1205 1.408 . S
C1202 C1200 1.363 . S
C1202 C1203 1.370 . S
C1202 C1206 1.524 . S
C1203 C1195 1.503 1_455 S
C1203 C1202 1.370 . S
C1203 C1204 1.403 1_455 S
C1204 C1203 1.403 1_655 S
C1204 C1205 1.404 1_655 S
C1204 C1207 1.539 . S
C1205 C1201 1.408 . S
C1205 C1204 1.404 1_455 S
C1205 H1217 0.929 1_455 S
C1206 C1202 1.524 . S
C1206 H1218 0.956 . S
C1206 H1219 0.961 . S
C1206 H1220 0.961 . S
C1207 C1204 1.539 . S
C1207 H1221 0.958 . S
C1207 H1222 0.961 . S
C1207 H1223 0.960 . S
H1208 C1192 0.931 . S
H1209 C1197 0.929 . S
H1210 C1198 0.960 . S
H1211 C1198 0.962 1_455 S
H1212 C1198 0.960 . S
H1213 C1199 0.961 . S
H1214 C1199 0.961 1_455 S
H1215 C1199 0.961 . S
H1216 C1200 0.931 . S
H1217 C1205 0.929 1_655 S
H1218 C1206 0.956 . S
H1219 C1206 0.961 . S
H1220 C1206 0.961 . S
H1221 C1207 0.958 . S
H1222 C1207 0.961 . S
H1223 C1207 0.960 . S
C361 C9 3.363 . S
C369 C18 3.379 . S
C393 C58 3.458 . S
C401 C49 3.455 . S
C425 C89 3.488 1_556 S
C433 C98 3.503 . S
C457 C138 3.375 . S
C465 C129 3.373 . S
C489 C169 3.454 . S
C497 C178 3.456 1_556 S
C521 C218 3.494 . S
C529 C209 3.500 1_556 S
C553 C246 2.563 . S
C561 C255 2.599 . S
C585 C295 2.818 . S
C593 C286 2.846 . S
C617 C326 1.875 . S
C625 C335 1.916 . S
C649 C210 1.704 . S
C657 C6 1.756 . S
C681 C50 2.734 . S
C689 C130 2.763 . S
C713 C86 1.220 . S
C721 C166 1.208 . S
C745 C90 2.949 . S
C753 C259 3.125 . S
C777 C298 1.195 . S
C785 C10 1.137 . S
C809 C339 1.942 . S
C817 C46 1.839 . S
C841 C329 0.815 . S
C849 C15 0.811 . S
C873 C59 2.198 . S
C881 C249 2.252 . S
C905 C290 2.925 . S
C913 C95 2.744 . S
C937 C99 1.687 . S
C945 C135 1.754 . S
C969 C179 2.723 . S
C977 C19 2.760 . S
C1001 C55 1.222 . S
C1009 C215 1.204 . S
C1033 C338 0.816 . S
C1041 C126 0.817 . S
C1065 C258 2.256 . S
C1073 C170 2.184 . S
C1097 C299 2.924 . S
C1105 C206 2.761 . S
C1129 C250 3.119 . S
C1137 C219 2.950 . S
C1161 C139 1.139 . S
C1169 C289 1.175 . S
C1193 C330 1.928 . S
C1201 C175 1.842 . S
