# Generated by pormake.
# Topology uon, (4)-cn, num edge types: 1
# Building blocks:
#     Node 0, Type 0, BuildingBlock: ICAMEG_clean_sbu_1, # of connection points: 4
#     Node 1, Type 0, BuildingBlock: ICAMEG_clean_sbu_1, # of connection points: 4
#     Node 2, Type 0, BuildingBlock: ICAMEG_clean_sbu_1, # of connection points: 4
#     Node 3, Type 0, BuildingBlock: ICAMEG_clean_sbu_1, # of connection points: 4
#     Node 4, Type 0, BuildingBlock: ICAMEG_clean_sbu_1, # of connection points: 4
#     Node 5, Type 0, BuildingBlock: ICAMEG_clean_sbu_1, # of connection points: 4
#     Edge 6, Type (0, 0), BuildingBlock: ZUJKAS_clean_linker_0, # of connection points: 2
#     Edge 7, Type (0, 0), BuildingBlock: ZUJKAS_clean_linker_0, # of connection points: 2
#     Edge 8, Type (0, 0), BuildingBlock: ZUJKAS_clean_linker_0, # of connection points: 2
#     Edge 9, Type (0, 0), BuildingBlock: ZUJKAS_clean_linker_0, # of connection points: 2
#     Edge 10, Type (0, 0), BuildingBlock: ZUJKAS_clean_linker_0, # of connection points: 2
#     Edge 11, Type (0, 0), BuildingBlock: ZUJKAS_clean_linker_0, # of connection points: 2
#     Edge 12, Type (0, 0), BuildingBlock: ZUJKAS_clean_linker_0, # of connection points: 2
#     Edge 13, Type (0, 0), BuildingBlock: ZUJKAS_clean_linker_0, # of connection points: 2
#     Edge 14, Type (0, 0), BuildingBlock: ZUJKAS_clean_linker_0, # of connection points: 2
#     Edge 15, Type (0, 0), BuildingBlock: ZUJKAS_clean_linker_0, # of connection points: 2
#     Edge 16, Type (0, 0), BuildingBlock: ZUJKAS_clean_linker_0, # of connection points: 2
#     Edge 17, Type (0, 0), BuildingBlock: ZUJKAS_clean_linker_0, # of connection points: 2
# Relax obj value: 0.158
# Max RMSD: 0.297
# Mean RMSD: 0.272
data_MOF--net-uon--node1-ICAMEG_clean_sbu_1--edge1-ZUJKAS_clean_linker_0
_symmetry_space_group_name_H-M    P1
_symmetry_Int_Tables_number       1
_symmetry_cell_setting            triclinic
loop_
_symmetry_equiv_pos_as_xyz
'x, y, z'
_cell_length_a     47.131298
_cell_length_b     47.111825
_cell_length_c     21.924544
_cell_angle_alpha  89.596842
_cell_angle_beta   90.372967
_cell_angle_gamma 120.03564
loop_
_atom_site_label
_atom_site_type_symbol
_atom_site_fract_x
_atom_site_fract_y
_atom_site_fract_z
_atom_type_partial_charge
Co0 Co 0.17491 0.41005 0.99066 0.0
Co1 Co 0.2306 0.41946 0.10398 0.0
O2 O 0.21161 0.4062 0.02259 0.0
C3 C 0.22942 0.43829 0.89916 0.0
O4 O 0.24239 0.42191 0.92332 0.0
C5 C 0.21177 0.35003 0.09124 0.0
O6 O 0.18286 0.34462 0.07332 0.0
O7 O 0.18636 0.39588 0.14112 0.0
O8 O 0.15006 0.39139 0.06868 0.0
H9 H 0.23953 0.46311 0.31586 0.0
H10 H 0.19882 0.36912 0.92473 0.0
O11 O 0.20049 0.43166 0.91376 0.0
H12 H 0.08066 0.29629 0.95553 0.0
H13 H 0.09719 0.40552 0.82749 0.0
H14 H 0.13105 0.43189 0.04254 0.0
H15 H 0.10769 0.35326 0.99148 0.0
H16 H 0.14241 0.39906 0.86943 0.0
O17 O 0.23344 0.37851 0.10896 0.0
H18 H 0.21635 0.44754 0.21215 0.0
H19 H 0.28465 0.4168 0.17011 0.0
H20 H 0.08553 0.43842 0.00278 0.0
H21 H 0.17291 0.31281 0.88794 0.0
H22 H 0.06833 0.42517 0.8945 0.0
H23 H 0.11325 0.27564 0.90305 0.0
O24 O 0.19398 0.45486 0.02302 0.0
H25 H 0.32144 0.43081 0.96816 0.0
H26 H 0.28808 0.48709 0.11548 0.0
H27 H 0.34267 0.51725 0.06826 0.0
H28 H 0.3597 0.48911 0.99396 0.0
H29 H 0.26688 0.40167 0.0157 0.0
H30 H 0.30845 0.43182 0.27348 0.0
H31 H 0.28593 0.45527 0.34707 0.0
O32 O 0.22828 0.46077 0.0995 0.0
C33 C 0.15734 0.38718 0.12308 0.0
C34 C 0.24963 0.45302 0.28414 0.0
C35 C 0.28829 0.43542 0.26038 0.0
N36 N 0.24935 0.43158 0.18504 0.0
C37 C 0.23667 0.44426 0.22533 0.0
C38 C 0.27469 0.42692 0.20196 0.0
C39 C 0.27564 0.44859 0.30164 0.0
C40 C 0.17297 0.354 0.93034 0.0
N41 N 0.15492 0.3655 0.95842 0.0
C42 C 0.15832 0.32166 0.90988 0.0
C43 C 0.12489 0.30077 0.91856 0.0
C44 C 0.10662 0.31235 0.94795 0.0
C45 C 0.12214 0.34479 0.96799 0.0
C46 C 0.10437 0.41125 0.8748 0.0
C47 C 0.12345 0.42575 0.99557 0.0
C48 C 0.12997 0.4077 0.89872 0.0
N49 N 0.13898 0.41465 0.95854 0.0
C50 C 0.09778 0.42965 0.97323 0.0
C51 C 0.08818 0.42227 0.91244 0.0
C52 C 0.21389 0.47164 0.06509 0.0
C53 C 0.31429 0.44336 0.00039 0.0
C54 C 0.29507 0.47472 0.08267 0.0
C55 C 0.32615 0.49189 0.05638 0.0
C56 C 0.33572 0.47608 0.01481 0.0
N57 N 0.27403 0.44269 0.06788 0.0
C58 C 0.28343 0.42693 0.02772 0.0
Co59 Co 0.81843 0.25427 0.59711 0.0
Co60 Co 0.87992 0.26667 0.69841 0.0
O61 O 0.86349 0.2771 0.62505 0.0
C62 C 0.83362 0.32196 0.61668 0.0
O63 O 0.84792 0.32066 0.6673 0.0
C64 C 0.91477 0.25794 0.5962 0.0
O65 O 0.88565 0.23667 0.57534 0.0
O66 O 0.85444 0.21874 0.68147 0.0
O67 O 0.81442 0.21077 0.61528 0.0
H68 H 0.87303 0.20614 0.89248 0.0
H69 H 0.87057 0.30417 0.51827 0.0
O70 O 0.82127 0.29758 0.58037 0.0
H71 H 0.82235 0.2013 0.40118 0.0
H72 H 0.72582 0.23667 0.45767 0.0
H73 H 0.75666 0.19751 0.64184 0.0
H74 H 0.80046 0.20291 0.50224 0.0
H75 H 0.78336 0.26396 0.49273 0.0
O76 O 0.91768 0.27151 0.64788 0.0
H77 H 0.851 0.21942 0.80112 0.0
H78 H 0.94701 0.29252 0.74936 0.0
H79 H 0.69888 0.16946 0.60839 0.0
H80 H 0.89327 0.30368 0.41741 0.0
H81 H 0.68316 0.18902 0.51562 0.0
H82 H 0.8692 0.25194 0.35828 0.0
O83 O 0.80259 0.25483 0.68004 0.0
H84 H 0.95287 0.38611 0.64805 0.0
H85 H 0.88872 0.30642 0.80927 0.0
H86 H 0.91831 0.36553 0.8327 0.0
H87 H 0.95073 0.40581 0.75178 0.0
H88 H 0.92264 0.32686 0.62643 0.0
H89 H 0.97013 0.27991 0.83999 0.0
H90 H 0.933 0.2365 0.91238 0.0
O91 O 0.84193 0.26197 0.74786 0.0
C92 C 0.82909 0.20015 0.64968 0.0
C93 C 0.88944 0.22518 0.86138 0.0
C94 C 0.94395 0.26655 0.83187 0.0
N95 N 0.89769 0.25686 0.77024 0.0
C96 C 0.87711 0.23287 0.80968 0.0
C97 C 0.93074 0.27353 0.78058 0.0
C98 C 0.9231 0.2422 0.87248 0.0
C99 C 0.85975 0.28165 0.49247 0.0
N100 N 0.83411 0.25365 0.51588 0.0
C101 C 0.87278 0.28149 0.43552 0.0
C102 C 0.85929 0.25243 0.40241 0.0
C103 C 0.83302 0.22401 0.42647 0.0
C104 C 0.82072 0.22506 0.48369 0.0
C105 C 0.73239 0.22784 0.49802 0.0
C106 C 0.75004 0.206 0.60116 0.0
C107 C 0.76491 0.2432 0.51807 0.0
N108 N 0.77337 0.23209 0.56885 0.0
C109 C 0.71727 0.19009 0.58256 0.0
C110 C 0.70846 0.20111 0.53056 0.0
C111 C 0.81359 0.25759 0.73419 0.0
C112 C 0.93895 0.36879 0.68377 0.0
C113 C 0.90277 0.32381 0.77382 0.0
C114 C 0.9195 0.35724 0.78737 0.0
C115 C 0.9377 0.37983 0.74195 0.0
N116 N 0.90423 0.31316 0.71671 0.0
C117 C 0.92194 0.33518 0.6719 0.0
Co118 Co 0.57383 0.76286 0.68189 0.0
Co119 Co 0.57549 0.80433 0.8126 0.0
O120 O 0.57967 0.80145 0.72502 0.0
C121 C 0.52449 0.77719 0.63476 0.0
O122 O 0.51949 0.78029 0.69242 0.0
C123 C 0.64166 0.8567 0.77961 0.0
O124 O 0.64456 0.83407 0.75043 0.0
O125 O 0.60298 0.78416 0.82838 0.0
O126 O 0.60066 0.75539 0.74471 0.0
H127 H 0.55583 0.76291 0.02869 0.0
H128 H 0.598 0.82576 0.61523 0.0
O129 O 0.54594 0.76954 0.61981 0.0
H130 H 0.68539 0.79788 0.59582 0.0
H131 H 0.56591 0.69918 0.49307 0.0
H132 H 0.55967 0.69618 0.71765 0.0
H133 H 0.63441 0.76108 0.65118 0.0
H134 H 0.57409 0.74762 0.55049 0.0
O135 O 0.61589 0.84887 0.81047 0.0
H136 H 0.5598 0.75878 0.91726 0.0
H137 H 0.58501 0.85833 0.89533 0.0
H138 H 0.5516 0.64727 0.66218 0.0
H139 H 0.64848 0.86317 0.55922 0.0
H140 H 0.55471 0.64861 0.54905 0.0
H141 H 0.69264 0.84934 0.54939 0.0
O142 O 0.53375 0.73371 0.72865 0.0
H143 H 0.54736 0.88296 0.71028 0.0
H144 H 0.51135 0.79282 0.8598 0.0
H145 H 0.47626 0.81684 0.83887 0.0
H146 H 0.49426 0.8623 0.76373 0.0
H147 H 0.58148 0.85794 0.73193 0.0
H148 H 0.58157 0.86364 0.00656 0.0
H149 H 0.56676 0.81565 0.074 0.0
O150 O 0.53482 0.75977 0.81493 0.0
C151 C 0.61014 0.76528 0.7992 0.0
C152 C 0.56218 0.78396 0.99977 0.0
C153 C 0.57667 0.84051 0.98735 0.0
N154 N 0.5723 0.80819 0.89989 0.0
C155 C 0.56435 0.78173 0.93666 0.0
C156 C 0.57864 0.83738 0.92445 0.0
C157 C 0.56835 0.81357 0.02516 0.0
C158 C 0.61696 0.81941 0.61058 0.0
N159 N 0.61319 0.79118 0.63605 0.0
C160 C 0.64554 0.84075 0.57903 0.0
C161 C 0.67034 0.833 0.57362 0.0
C162 C 0.66629 0.80415 0.59971 0.0
C163 C 0.63741 0.78343 0.63105 0.0
C164 C 0.56461 0.69834 0.54237 0.0
C165 C 0.56136 0.69702 0.66848 0.0
C166 C 0.56919 0.72566 0.57509 0.0
N167 N 0.56777 0.72482 0.63735 0.0
C168 C 0.55663 0.66922 0.63729 0.0
C169 C 0.55833 0.66997 0.57381 0.0
C170 C 0.52145 0.73496 0.77945 0.0
C171 C 0.53932 0.86325 0.74331 0.0
C172 C 0.51931 0.81252 0.82691 0.0
C173 C 0.49937 0.82608 0.81535 0.0
C174 C 0.5095 0.85161 0.77324 0.0
N175 N 0.54853 0.82409 0.79739 0.0
C176 C 0.55861 0.84909 0.75597 0.0
Co177 Co 0.74288 0.53853 0.26364 0.0
Co178 Co 0.72637 0.58989 0.34916 0.0
O179 O 0.71713 0.55902 0.28283 0.0
C180 C 0.67762 0.48293 0.2921 0.0
O181 O 0.67764 0.5 0.33912 0.0
C182 C 0.73196 0.62635 0.23671 0.0
O183 O 0.752 0.61648 0.21832 0.0
O184 O 0.77416 0.61413 0.33116 0.0
O185 O 0.7846 0.58107 0.27363 0.0
H186 H 0.78599 0.65678 0.53317 0.0
H187 H 0.68974 0.53035 0.18001 0.0
O188 O 0.70153 0.49519 0.25475 0.0
H189 H 0.79061 0.58356 0.05683 0.0
H190 H 0.76743 0.46101 0.14948 0.0
H191 H 0.8031 0.54239 0.31477 0.0
H192 H 0.79234 0.56879 0.16444 0.0
H193 H 0.73618 0.48881 0.17266 0.0
O194 O 0.71926 0.61855 0.28978 0.0
H195 H 0.7745 0.61699 0.45083 0.0
H196 H 0.69665 0.62996 0.38577 0.0
H197 H 0.8351 0.51526 0.29309 0.0
H198 H 0.68682 0.5445 0.07243 0.0
H199 H 0.81732 0.47427 0.20985 0.0
H200 H 0.73754 0.5714 0.01018 0.0
O201 O 0.74472 0.52836 0.35062 0.0
H202 H 0.60621 0.53455 0.29871 0.0
H203 H 0.68782 0.56306 0.4632 0.0
H204 H 0.6289 0.53181 0.48786 0.0
H205 H 0.58765 0.5174 0.40528 0.0
H206 H 0.66534 0.56551 0.27599 0.0
H207 H 0.70741 0.67006 0.4672 0.0
H208 H 0.7523 0.68362 0.54172 0.0
O209 O 0.73398 0.56148 0.40804 0.0
C210 C 0.79372 0.60782 0.30213 0.0
C211 C 0.76629 0.651 0.5011 0.0
C212 C 0.72222 0.65849 0.46401 0.0
N213 N 0.73478 0.621 0.41386 0.0
C214 C 0.75961 0.62842 0.4545 0.0
C215 C 0.71628 0.63582 0.41795 0.0
C216 C 0.7474 0.66607 0.50583 0.0
C217 C 0.71185 0.54178 0.15299 0.0
N218 N 0.74114 0.54861 0.1783 0.0
C219 C 0.71007 0.54984 0.0922 0.0
C220 C 0.73855 0.56498 0.05732 0.0
C221 C 0.76834 0.57182 0.08348 0.0
C222 C 0.76918 0.56346 0.14443 0.0
C223 C 0.77549 0.47892 0.18571 0.0
C224 C 0.79535 0.52476 0.27818 0.0
C225 C 0.75789 0.49471 0.19904 0.0
N226 N 0.76803 0.51745 0.24454 0.0
C227 C 0.81351 0.5094 0.26624 0.0
C228 C 0.80349 0.48637 0.2196 0.0
C229 C 0.74107 0.5388 0.40173 0.0
C230 C 0.62395 0.54076 0.33511 0.0
C231 C 0.67 0.55682 0.42701 0.0
C232 C 0.63668 0.53917 0.44126 0.0
C233 C 0.61355 0.53111 0.39491 0.0
N234 N 0.68 0.56626 0.36828 0.0
C235 C 0.65747 0.55841 0.32257 0.0
Co236 Co 0.23391 0.82441 0.28372 0.0
Co237 Co 0.19475 0.7816 0.41479 0.0
O238 O 0.19628 0.78996 0.32741 0.0
C239 C 0.22183 0.76224 0.23404 0.0
O240 O 0.21778 0.75275 0.29112 0.0
C241 C 0.13985 0.79269 0.38775 0.0
O242 O 0.16075 0.81857 0.35646 0.0
O243 O 0.21332 0.82878 0.43218 0.0
O244 O 0.24032 0.8573 0.34817 0.0
H245 H 0.23918 0.80183 0.62873 0.0
H246 H 0.1711 0.7843 0.21816 0.0
O247 O 0.22874 0.79136 0.22008 0.0
H248 H 0.19307 0.89807 0.20451 0.0
H249 H 0.29464 0.88498 0.09477 0.0
H250 H 0.29983 0.8784 0.31878 0.0
H251 H 0.23209 0.88555 0.25675 0.0
H252 H 0.24759 0.84235 0.15248 0.0
O253 O 0.14957 0.77551 0.41657 0.0
H254 H 0.24136 0.81155 0.51768 0.0
H255 H 0.14291 0.73429 0.49886 0.0
H256 H 0.34735 0.92158 0.26304 0.0
H257 H 0.1315 0.79571 0.16524 0.0
H258 H 0.34492 0.92505 0.15018 0.0
H259 H 0.14235 0.85295 0.15833 0.0
O260 O 0.26474 0.81459 0.32784 0.0
H261 H 0.11813 0.67524 0.31099 0.0
H262 H 0.20967 0.73013 0.45705 0.0
H263 H 0.18781 0.6717 0.4333 0.0
H264 H 0.14171 0.64388 0.35977 0.0
H265 H 0.14096 0.73371 0.3355 0.0
H266 H 0.13956 0.72389 0.60978 0.0
H267 H 0.188 0.75772 0.67545 0.0
O268 O 0.23994 0.78747 0.41379 0.0
C269 C 0.2309 0.85554 0.40338 0.0
C270 C 0.21796 0.78684 0.60057 0.0
C271 C 0.16203 0.74313 0.58994 0.0
N272 N 0.1924 0.7733 0.50184 0.0
C273 C 0.21908 0.79216 0.53766 0.0
C274 C 0.16405 0.74917 0.5272 0.0
C275 C 0.18922 0.76211 0.62676 0.0
C276 C 0.17614 0.8093 0.21475 0.0
N277 N 0.20394 0.83426 0.24012 0.0
C278 C 0.15358 0.8156 0.18496 0.0
C279 C 0.15965 0.84771 0.1812 0.0
C280 C 0.1881 0.87304 0.20714 0.0
C281 C 0.21007 0.86581 0.23671 0.0
C282 C 0.29596 0.88379 0.14395 0.0
C283 C 0.2985 0.87997 0.26975 0.0
C284 C 0.26942 0.8597 0.17683 0.0
N285 N 0.27086 0.8582 0.23896 0.0
C286 C 0.32553 0.90437 0.2384 0.0
C287 C 0.32416 0.90627 0.17507 0.0
C288 C 0.2644 0.80035 0.37759 0.0
C289 C 0.13814 0.68706 0.34326 0.0
C290 C 0.18962 0.7182 0.42498 0.0
C291 C 0.17731 0.6851 0.41179 0.0
C292 C 0.15142 0.6695 0.37057 0.0
N293 N 0.17649 0.73528 0.39794 0.0
C294 C 0.15105 0.72013 0.35758 0.0
Co295 Co 0.4467 0.20401 0.8871 0.0
Co296 Co 0.39953 0.13423 0.97258 0.0
O297 O 0.42903 0.15789 0.90572 0.0
C298 C 0.50394 0.19701 0.91536 0.0
O299 O 0.48698 0.17935 0.96222 0.0
C300 C 0.36278 0.10369 0.86066 0.0
O301 O 0.37127 0.13358 0.84339 0.0
O302 O 0.37311 0.15596 0.95759 0.0
O303 O 0.4027 0.19992 0.89744 0.0
H304 H 0.33324 0.12096 0.16026 0.0
H305 H 0.45905 0.16232 0.80317 0.0
O306 O 0.49145 0.20894 0.87862 0.0
H307 H 0.39988 0.20442 0.68042 0.0
H308 H 0.51995 0.30839 0.77288 0.0
H309 H 0.43756 0.25759 0.93573 0.0
H310 H 0.41367 0.22047 0.78819 0.0
H311 H 0.49578 0.24959 0.79738 0.0
O312 O 0.37142 0.09857 0.91303 0.0
H313 H 0.37147 0.15175 0.0768 0.0
H314 H 0.36303 0.06376 0.00817 0.0
H315 H 0.46089 0.31638 0.9125 0.0
H316 H 0.44591 0.14576 0.6955 0.0
H317 H 0.50241 0.34217 0.83053 0.0
H318 H 0.41603 0.16679 0.63344 0.0
O319 O 0.45572 0.21585 0.97433 0.0
H320 H 0.45997 0.07579 0.91436 0.0
H321 H 0.42904 0.12295 0.08399 0.0
H322 H 0.46336 0.09803 0.10476 0.0
H323 H 0.47901 0.07419 0.01957 0.0
H324 H 0.42594 0.1012 0.89555 0.0
H325 H 0.32455 0.03196 0.09071 0.0
H326 H 0.30953 0.06062 0.16759 0.0
O327 O 0.42748 0.17015 0.03152 0.0
C328 C 0.37706 0.18122 0.9284 0.0
C329 C 0.3397 0.10821 0.12718 0.0
C330 C 0.33478 0.05825 0.08808 0.0
N331 N 0.36968 0.10959 0.03806 0.0
C332 C 0.36141 0.12553 0.07994 0.0
C333 C 0.35653 0.07636 0.04142 0.0
C334 C 0.32637 0.07435 0.13122 0.0
C335 C 0.44634 0.17182 0.77625 0.0
N336 N 0.43735 0.19251 0.80172 0.0
C337 C 0.43884 0.16226 0.7154 0.0
C338 C 0.42203 0.17403 0.68062 0.0
C339 C 0.41296 0.19514 0.70696 0.0
C340 C 0.42081 0.20412 0.76798 0.0
C341 C 0.50184 0.29743 0.80864 0.0
C342 C 0.45548 0.26858 0.89981 0.0
C343 C 0.48813 0.26418 0.8228 0.0
N344 N 0.46515 0.25015 0.86771 0.0
C345 C 0.46867 0.30191 0.88695 0.0
C346 C 0.49199 0.31637 0.84099 0.0
C347 C 0.44701 0.20101 0.02559 0.0
C348 C 0.45322 0.086 0.95189 0.0
C349 C 0.43578 0.11265 0.04669 0.0
C350 C 0.45518 0.09853 0.05873 0.0
C351 C 0.46394 0.08515 0.01092 0.0
N352 N 0.42533 0.11334 0.98869 0.0
C353 C 0.43383 0.10029 0.94156 0.0
H354 H 0.27046 0.35446 0.11781 0.0
H355 H 0.2889 0.31656 0.08835 0.0
H356 H 0.19343 0.25075 0.01293 0.0
H357 H 0.17483 0.28899 0.04108 0.0
H358 H 0.26744 0.25189 0.11604 0.0
H359 H 0.25438 0.26881 0.86804 0.0
H360 H 0.25187 0.29482 0.92521 0.0
H361 H 0.2178 0.25434 0.91264 0.0
C362 C 0.25319 0.33177 0.09557 0.0
C363 C 0.22124 0.32487 0.08137 0.0
C364 C 0.2638 0.31013 0.07877 0.0
C365 C 0.24271 0.28116 0.04748 0.0
C366 C 0.21027 0.27332 0.03594 0.0
H367 H 0.31691 0.14617 0.98283 0.0
H368 H 0.27889 0.16545 0.00701 0.0
C369 C 0.19962 0.29507 0.05255 0.0
C370 C 0.25553 0.26016 0.0252 0.0
H371 H 0.27576 0.23483 0.89531 0.0
C372 C 0.26893 0.24777 0.06784 0.0
C373 C 0.25772 0.25523 0.96218 0.0
C374 C 0.24495 0.26917 0.91417 0.0
C375 C 0.28542 0.23147 0.04922 0.0
C376 C 0.28783 0.22674 0.98617 0.0
C377 C 0.27357 0.23826 0.94356 0.0
C378 C 0.30781 0.21279 0.96362 0.0
C379 C 0.30158 0.22104 0.0971 0.0
C380 C 0.33561 0.23224 0.92797 0.0
C381 C 0.35718 0.22116 0.91324 0.0
C382 C 0.35142 0.19044 0.93426 0.0
C383 C 0.32237 0.17013 0.96655 0.0
C384 C 0.30066 0.18116 0.98077 0.0
H385 H 0.30344 0.23281 0.14183 0.0
H386 H 0.28686 0.19409 0.10365 0.0
H387 H 0.32659 0.22725 0.08268 0.0
H388 H 0.34143 0.25666 0.91389 0.0
H389 H 0.37913 0.23736 0.88789 0.0
H390 H 0.96994 0.31854 0.59362 0.0
H391 H 0.01115 0.3409 0.51282 0.0
H392 H 0.96505 0.24632 0.42534 0.0
H393 H 0.92276 0.22448 0.50388 0.0
H394 H 0.05595 0.33044 0.47084 0.0
H395 H 0.96495 0.30048 0.28653 0.0
H396 H 0.95386 0.29587 0.36597 0.0
H397 H 0.95741 0.26421 0.32699 0.0
C398 C 0.96881 0.30247 0.55744 0.0
C399 C 0.94297 0.26988 0.5546 0.0
C400 C 0.9923 0.31529 0.51113 0.0
C401 C 0.99061 0.2956 0.46176 0.0
C402 C 0.96615 0.26239 0.46147 0.0
H403 H 0.15282 0.34673 0.21596 0.0
H404 H 0.11169 0.32426 0.2965 0.0
C405 C 0.94224 0.2498 0.50685 0.0
C406 C 0.01421 0.30979 0.41044 0.0
H407 H 0.01917 0.31525 0.25503 0.0
C408 C 0.04788 0.32732 0.42367 0.0
C409 C 0.00375 0.30658 0.34882 0.0
C410 C 0.96802 0.29111 0.33129 0.0
C411 C 0.07135 0.34096 0.37716 0.0
C412 C 0.06095 0.33562 0.31538 0.0
C413 C 0.02725 0.31884 0.30221 0.0
C414 C 0.08458 0.34733 0.26384 0.0
C415 C 0.10695 0.36165 0.39513 0.0
C416 C 0.08185 0.36594 0.21609 0.0
C417 C 0.10472 0.37782 0.16864 0.0
C418 C 0.13099 0.37172 0.16875 0.0
C419 C 0.13308 0.35223 0.21536 0.0
C420 C 0.10979 0.33969 0.2618 0.0
H421 H 0.10956 0.37264 0.44096 0.0
H422 H 0.11831 0.34596 0.39733 0.0
H423 H 0.12071 0.38176 0.36183 0.0
H424 H 0.06245 0.37192 0.21621 0.0
H425 H 0.10257 0.3928 0.13327 0.0
H426 H 0.84241 0.16671 0.73695 0.0
H427 H 0.81432 0.10766 0.75359 0.0
H428 H 0.75615 0.09292 0.5916 0.0
H429 H 0.78328 0.15219 0.57585 0.0
H430 H 0.71852 0.06002 0.6831 0.0
H431 H 0.821 0.03472 0.67684 0.0
H432 H 0.8284 0.06582 0.7315 0.0
H433 H 0.82543 0.07327 0.65162 0.0
C434 C 0.82406 0.15094 0.70417 0.0
C435 C 0.8151 0.16424 0.65505 0.0
C436 C 0.80814 0.11708 0.71357 0.0
C437 C 0.78345 0.09574 0.67336 0.0
C438 C 0.77521 0.1089 0.62314 0.0
H439 H 0.68885 0.88278 0.69177 0.0
H440 H 0.72374 0.94066 0.66573 0.0
C441 C 0.79079 0.1428 0.61414 0.0
C442 C 0.76424 0.06006 0.68675 0.0
H443 H 0.77115 0.99315 0.72303 0.0
C444 C 0.73004 0.04535 0.6912 0.0
C445 C 0.77918 0.04077 0.69662 0.0
C446 C 0.81548 0.05439 0.68824 0.0
C447 C 0.71043 0.01213 0.70651 0.0
C448 C 0.72553 0.99331 0.7199 0.0
C449 C 0.75965 0.00775 0.71393 0.0
C450 C 0.70618 0.95843 0.73884 0.0
C451 C 0.67368 0.99746 0.70709 0.0
C452 C 0.68549 0.94922 0.78984 0.0
C453 C 0.6652 0.91612 0.80441 0.0
C454 C 0.66575 0.89167 0.76898 0.0
C455 C 0.68784 0.90102 0.72002 0.0
C456 C 0.70779 0.93411 0.705 0.0
H457 H 0.6659 0.01194 0.67845 0.0
H458 H 0.66099 0.97181 0.69033 0.0
H459 H 0.66553 0.99746 0.75446 0.0
H460 H 0.68457 0.96762 0.81771 0.0
H461 H 0.64866 0.90968 0.84275 0.0
H462 H 0.76718 0.66354 0.14043 0.0
H463 H 0.7506 0.69049 0.06424 0.0
H464 H 0.65803 0.65449 0.15622 0.0
H465 H 0.67531 0.6289 0.23445 0.0
H466 H 0.70385 0.66567 0.98483 0.0
H467 H 0.6821 0.74738 0.13288 0.0
H468 H 0.70186 0.72547 0.16061 0.0
H469 H 0.6578 0.70538 0.15602 0.0
C470 C 0.7435 0.66185 0.14493 0.0
C471 C 0.72263 0.64443 0.19359 0.0
C472 C 0.734 0.67715 0.10124 0.0
C473 C 0.70324 0.67496 0.10481 0.0
C474 C 0.68228 0.65742 0.1534 0.0
H475 H 0.60115 0.70347 0.80037 0.0
H476 H 0.62618 0.68191 0.87118 0.0
C477 C 0.69208 0.64267 0.19795 0.0
C478 C 0.6927 0.68981 0.05615 0.0
H479 H 0.66039 0.73948 0.03177 0.0
C480 C 0.69466 0.6821 0.99506 0.0
C481 C 0.6812 0.71167 0.06927 0.0
C482 C 0.68095 0.72324 0.13321 0.0
C483 C 0.68502 0.69523 0.94688 0.0
C484 C 0.67182 0.71563 0.96026 0.0
C485 C 0.67027 0.72365 0.02132 0.0
C486 C 0.65924 0.72894 0.91226 0.0
C487 C 0.68981 0.68759 0.88229 0.0
C488 C 0.66925 0.76247 0.91176 0.0
C489 C 0.65428 0.77456 0.87265 0.0
C490 C 0.62946 0.75347 0.8324 0.0
C491 C 0.62062 0.72028 0.83032 0.0
C492 C 0.63504 0.708 0.87065 0.0
H493 H 0.70995 0.68188 0.87955 0.0
H494 H 0.66704 0.66569 0.86631 0.0
H495 H 0.69548 0.70836 0.85093 0.0
H496 H 0.6879 0.77916 0.94321 0.0
H497 H 0.66148 0.80027 0.87502 0.0
H498 H 0.82608 0.65853 0.38178 0.0
H499 H 0.88507 0.69516 0.39056 0.0
H500 H 0.90036 0.65015 0.23294 0.0
H501 H 0.84139 0.61245 0.22535 0.0
H502 H 0.93817 0.6527 0.32214 0.0
H503 H 0.95006 0.77517 0.30043 0.0
H504 H 0.922 0.75146 0.35978 0.0
H505 H 0.91262 0.73798 0.2818 0.0
C506 C 0.84192 0.65676 0.34831 0.0
C507 C 0.82903 0.63251 0.30292 0.0
C508 C 0.87569 0.67794 0.35313 0.0
C509 C 0.89717 0.6758 0.31183 0.0
C510 C 0.88424 0.65233 0.26521 0.0
H511 H 0.10843 0.80838 0.30028 0.0
H512 H 0.04931 0.78134 0.28189 0.0
C513 C 0.85052 0.63079 0.26093 0.0
C514 C 0.93313 0.69572 0.32084 0.0
H515 H 0.99628 0.77367 0.34399 0.0
C516 C 0.95089 0.6792 0.32624 0.0
C517 C 0.94984 0.73033 0.32555 0.0
C518 C 0.93267 0.74978 0.31592 0.0
C519 C 0.98468 0.69615 0.33749 0.0
C520 C 0.00104 0.73053 0.3458 0.0
C521 C 0.98354 0.74724 0.3388 0.0
C522 C 0.03642 0.74941 0.36079 0.0
C523 C 0.00256 0.67703 0.33939 0.0
C524 C 0.04864 0.74135 0.41258 0.0
C525 C 0.08235 0.75641 0.42275 0.0
C526 C 0.10438 0.78033 0.38199 0.0
C527 C 0.09202 0.79002 0.33248 0.0
C528 C 0.05827 0.77457 0.32186 0.0
H529 H 0.98887 0.65347 0.31443 0.0
H530 H 0.02741 0.69135 0.31927 0.0
H531 H 0.00515 0.67121 0.38751 0.0
H532 H 0.03212 0.72268 0.44419 0.0
H533 H 0.09118 0.74874 0.46168 0.0
H534 H 0.32355 0.10116 0.76749 0.0
H535 H 0.2986 0.05942 0.68856 0.0
H536 H 0.3403 0.0053 0.7723 0.0
H537 H 0.36402 0.04637 0.85332 0.0
H538 H 0.32662 0.04299 0.60575 0.0
H539 H 0.24905 0.93286 0.74582 0.0
H540 H 0.26862 0.97367 0.77702 0.0
H541 H 0.29128 0.95247 0.76835 0.0
C542 C 0.32691 0.08004 0.76965 0.0
C543 C 0.34546 0.0768 0.81672 0.0
C544 C 0.31275 0.05627 0.72438 0.0
C545 C 0.31722 0.02898 0.7247 0.0
C546 C 0.3357 0.02563 0.77192 0.0
H547 H 0.29206 0.90938 0.40544 0.0
H548 H 0.31319 0.95363 0.48048 0.0
C549 C 0.34935 0.04914 0.81808 0.0
C550 C 0.30374 0.00503 0.67395 0.0
H551 H 0.25684 0.92357 0.64223 0.0
C552 C 0.31111 0.01687 0.61372 0.0
C553 C 0.28319 0.97101 0.68421 0.0
C554 C 0.27228 0.95678 0.74732 0.0
C555 C 0.29866 0.99569 0.56356 0.0
C556 C 0.27927 0.96154 0.57391 0.0
C557 C 0.27183 0.94973 0.63415 0.0
C558 C 0.26618 0.93736 0.52346 0.0
C559 C 0.3058 0.01031 0.50021 0.0
C560 C 0.23279 0.91345 0.52241 0.0
C561 C 0.22095 0.88779 0.48067 0.0
C562 C 0.24215 0.88586 0.4384 0.0
C563 C 0.27515 0.91073 0.43687 0.0
C564 C 0.28719 0.93605 0.47971 0.0
H565 H 0.31105 0.03609 0.50049 0.0
H566 H 0.32781 0.01044 0.48223 0.0
H567 H 0.28497 0.99597 0.46865 0.0
H568 H 0.21606 0.91395 0.55548 0.0
H569 H 0.19539 0.8688 0.48277 0.0
H570 H 0.27116 0.76917 0.16063 0.0
H571 H 0.27481 0.72348 0.1157 0.0
H572 H 0.17415 0.65711 0.16505 0.0
H573 H 0.17095 0.7024 0.21149 0.0
H574 H 0.21754 0.64177 0.21777 0.0
H575 H 0.24023 0.66164 0.96838 0.0
H576 H 0.2663 0.6959 0.01615 0.0
H577 H 0.22324 0.68196 0.01205 0.0
C578 C 0.24944 0.74508 0.15898 0.0
C579 C 0.22066 0.7391 0.18861 0.0
C580 C 0.25155 0.71898 0.13361 0.0
C581 C 0.22473 0.6869 0.1371 0.0
C582 C 0.1951 0.68167 0.16187 0.0
H583 H 0.18305 0.50052 0.00837 0.0
H584 H 0.19096 0.55493 0.02523 0.0
C585 C 0.19317 0.70752 0.18788 0.0
C586 C 0.22864 0.65821 0.12453 0.0
H587 H 0.24321 0.6172 0.01264 0.0
C588 C 0.22323 0.63641 0.17292 0.0
C589 C 0.23627 0.6515 0.06614 0.0
C590 C 0.24163 0.67379 0.01245 0.0
C591 C 0.22407 0.60743 0.16419 0.0
C592 C 0.2315 0.6005 0.10571 0.0
C593 C 0.23782 0.62276 0.05756 0.0
C594 C 0.22942 0.56873 0.09243 0.0
C595 C 0.21549 0.58384 0.21708 0.0
C596 C 0.24885 0.55855 0.124 0.0
C597 C 0.24406 0.52704 0.11521 0.0
C598 C 0.22007 0.50542 0.074 0.0
C599 C 0.20162 0.51633 0.04081 0.0
C600 C 0.20622 0.54758 0.05004 0.0
H601 H 0.2034 0.58949 0.25465 0.0
H602 H 0.19892 0.5582 0.20221 0.0
H603 H 0.23823 0.5855 0.23562 0.0
H604 H 0.26733 0.57477 0.15613 0.0
H605 H 0.25894 0.51959 0.14097 0.0
H606 H 0.53861 0.17832 0.98928 0.0
H607 H 0.59451 0.18901 0.97499 0.0
H608 H 0.60165 0.24042 0.8072 0.0
H609 H 0.54565 0.2299 0.82097 0.0
H610 H 0.6212 0.19073 0.80219 0.0
H611 H 0.681 0.27984 0.99124 0.0
H612 H 0.64432 0.24208 0.00979 0.0
H613 H 0.64202 0.27085 0.95891 0.0
C614 C 0.55206 0.19201 0.94936 0.0
C615 C 0.5377 0.20335 0.90628 0.0
C616 C 0.58405 0.19821 0.94152 0.0
C617 C 0.60225 0.21583 0.8905 0.0
C618 C 0.58797 0.22693 0.8471 0.0
H619 H 0.7956 0.3023 0.75755 0.0
H620 H 0.74541 0.29141 0.80993 0.0
C621 C 0.55601 0.22089 0.85502 0.0
C622 C 0.63585 0.22179 0.8812 0.0
H623 H 0.71433 0.26499 0.93548 0.0
C624 C 0.64154 0.20674 0.83155 0.0
C625 C 0.66222 0.24278 0.91965 0.0
C626 C 0.65735 0.26008 0.97274 0.0
C627 C 0.67308 0.21246 0.81875 0.0
C628 C 0.6995 0.23357 0.85699 0.0
C629 C 0.69383 0.24843 0.90701 0.0
C630 C 0.73351 0.24302 0.84097 0.0
C631 C 0.6782 0.19681 0.76316 0.0
C632 C 0.74422 0.22008 0.84421 0.0
C633 C 0.77317 0.2265 0.81501 0.0
C634 C 0.79145 0.25583 0.78236 0.0
C635 C 0.78212 0.2798 0.78358 0.0
C636 C 0.75343 0.27354 0.81316 0.0
H637 H 0.65585 0.18434 0.73421 0.0
H638 H 0.69861 0.21554 0.73507 0.0
H639 H 0.68497 0.17837 0.7778 0.0
H640 H 0.72901 0.19637 0.86541 0.0
H641 H 0.77964 0.20744 0.81328 0.0
H642 H 0.48655 0.67811 0.71583 0.0
H643 H 0.43158 0.63327 0.73587 0.0
H644 H 0.42616 0.68245 0.89668 0.0
H645 H 0.48182 0.728 0.8772 0.0
H646 H 0.40543 0.61552 0.91409 0.0
H647 H 0.34496 0.63286 0.71155 0.0
H648 H 0.38139 0.63182 0.6923 0.0
H649 H 0.38441 0.66443 0.73921 0.0
C650 C 0.47385 0.67967 0.75555 0.0
C651 C 0.48867 0.70693 0.79471 0.0
C652 C 0.4422 0.65402 0.76655 0.0
C653 C 0.42448 0.65496 0.81676 0.0
C654 C 0.43933 0.68157 0.8571 0.0
H655 H 0.22392 0.49351 0.89167 0.0
H656 H 0.26872 0.54923 0.86978 0.0
C657 C 0.47115 0.70747 0.84603 0.0
C658 C 0.39115 0.62701 0.82808 0.0
H659 H 0.31734 0.57895 0.75794 0.0
C660 C 0.38593 0.60791 0.88062 0.0
C661 C 0.36562 0.61726 0.78458 0.0
C662 C 0.36922 0.63787 0.72904 0.0
C663 C 0.35661 0.57816 0.88879 0.0
C664 C 0.33213 0.56724 0.84306 0.0
C665 C 0.3364 0.58729 0.79246 0.0
C666 C 0.30335 0.53385 0.84538 0.0
C667 C 0.35248 0.55787 0.94511 0.0
C668 C 0.30771 0.50692 0.83581 0.0
C669 C 0.28229 0.47523 0.84779 0.0
C670 C 0.25201 0.46991 0.86957 0.0
C671 C 0.24683 0.49677 0.87429 0.0
C672 C 0.27244 0.52862 0.86232 0.0
H673 H 0.37001 0.57262 0.98173 0.0
H674 H 0.32713 0.54682 0.96301 0.0
H675 H 0.35697 0.53761 0.93313 0.0
H676 H 0.33138 0.51058 0.82224 0.0
H677 H 0.28703 0.45506 0.84371 0.0
H678 H 0.78849 0.56746 0.48815 0.0
H679 H 0.80849 0.53814 0.55264 0.0
H680 H 0.72624 0.44585 0.49617 0.0
H681 H 0.70657 0.47495 0.43165 0.0
H682 H 0.75059 0.44917 0.62424 0.0
H683 H 0.84398 0.48997 0.43939 0.0
H684 H 0.83956 0.52074 0.47948 0.0
H685 H 0.80708 0.49226 0.43098 0.0
C686 C 0.77393 0.54101 0.49215 0.0
C687 C 0.74603 0.52328 0.45554 0.0
C688 C 0.78546 0.52432 0.52845 0.0
C689 C 0.76897 0.4899 0.52842 0.0
C690 C 0.7392 0.47242 0.49687 0.0
H691 H 0.80567 0.33347 0.51687 0.0
H692 H 0.79394 0.37813 0.50246 0.0
C693 C 0.72793 0.489 0.46024 0.0
C694 C 0.78502 0.47182 0.55102 0.0
H695 H 0.84057 0.4497 0.5069 0.0
C696 C 0.7708 0.44978 0.59974 0.0
C697 C 0.81096 0.47237 0.51786 0.0
C698 C 0.82632 0.49491 0.46377 0.0
C699 C 0.78116 0.42737 0.61491 0.0
C700 C 0.80632 0.42721 0.58038 0.0
C701 C 0.82137 0.4501 0.53324 0.0
C702 C 0.81515 0.40146 0.58861 0.0
C703 C 0.76396 0.40278 0.66536 0.0
C704 C 0.83157 0.40036 0.64125 0.0
C705 C 0.83848 0.37499 0.6495 0.0
C706 C 0.82896 0.3503 0.60526 0.0
C707 C 0.81328 0.35205 0.55181 0.0
C708 C 0.80654 0.37751 0.54352 0.0
H709 H 0.74239 0.40373 0.68296 0.0
H710 H 0.75571 0.37757 0.64893 0.0
H711 H 0.78131 0.40783 0.70371 0.0
H712 H 0.83871 0.41889 0.67615 0.0
H713 H 0.85065 0.3744 0.69117 0.0
H714 H 0.318 0.81844 0.30573 0.0
H715 H 0.36529 0.81209 0.32712 0.0
H716 H 0.32446 0.76901 0.50201 0.0
H717 H 0.27652 0.77465 0.4807 0.0
H718 H 0.4095 0.83951 0.41755 0.0
H719 H 0.34945 0.70447 0.43434 0.0
H720 H 0.32923 0.72503 0.40168 0.0
H721 H 0.33044 0.72051 0.48312 0.0
C722 C 0.31889 0.80747 0.34876 0.0
C723 C 0.29337 0.79703 0.39158 0.0
C724 C 0.34595 0.80377 0.3607 0.0
C725 C 0.34807 0.78951 0.41554 0.0
C726 C 0.32285 0.77927 0.45864 0.0
H727 H 0.49506 0.81319 0.6486 0.0
H728 H 0.45664 0.81722 0.57982 0.0
C729 C 0.29562 0.78282 0.44666 0.0
C730 C 0.37772 0.78743 0.42958 0.0
H731 H 0.40272 0.73519 0.48239 0.0
C732 C 0.40812 0.81659 0.43053 0.0
C733 C 0.37607 0.75744 0.44502 0.0
C734 C 0.34457 0.72505 0.44035 0.0
C735 C 0.43645 0.81689 0.45116 0.0
C736 C 0.43414 0.78738 0.47213 0.0
C737 C 0.40434 0.75784 0.46667 0.0
C738 C 0.46049 0.78754 0.50907 0.0
C739 C 0.46837 0.849 0.45275 0.0
C740 C 0.47544 0.76942 0.49201 0.0
C741 C 0.49775 0.76716 0.53152 0.0
C742 C 0.50461 0.78239 0.58886 0.0
C743 C 0.49016 0.8011 0.60479 0.0
C744 C 0.46837 0.80365 0.56532 0.0
H745 H 0.46883 0.86626 0.41744 0.0
H746 H 0.47118 0.8606 0.49796 0.0
H747 H 0.48959 0.84528 0.44563 0.0
H748 H 0.46931 0.75655 0.44891 0.0
H749 H 0.50846 0.75244 0.51843 0.0
H750 H 0.46507 0.18491 0.13441 0.0
H751 H 0.49691 0.22321 0.21694 0.0
H752 H 0.49342 0.30137 0.11963 0.0
H753 H 0.46186 0.26375 0.03885 0.0
H754 H 0.55735 0.27606 0.19994 0.0
H755 H 0.4781 0.32011 0.29079 0.0
H756 H 0.46181 0.28233 0.24839 0.0
H757 H 0.47661 0.321 0.20921 0.0
C758 C 0.47039 0.21008 0.13186 0.0
C759 C 0.46129 0.2215 0.08015 0.0
C760 C 0.48855 0.23188 0.17881 0.0
C761 C 0.49707 0.26504 0.17495 0.0
C762 C 0.48644 0.27579 0.12462 0.0
H763 H 0.66579 0.44303 0.19418 0.0
H764 H 0.62194 0.38641 0.18211 0.0
C765 C 0.46873 0.2543 0.07792 0.0
C766 C 0.521 0.28999 0.21735 0.0
H767 H 0.53697 0.36195 0.28269 0.0
C768 C 0.55269 0.29433 0.21992 0.0
C769 C 0.5149 0.31347 0.24482 0.0
C770 C 0.48085 0.30871 0.24871 0.0
C771 C 0.57907 0.32332 0.24289 0.0
C772 C 0.57363 0.34881 0.2622 0.0
C773 C 0.54138 0.34284 0.26625 0.0
C774 C 0.601 0.38275 0.27152 0.0
C775 C 0.61269 0.32684 0.24379 0.0
C776 C 0.60308 0.40006 0.32476 0.0
C777 C 0.62779 0.43277 0.33125 0.0
C778 C 0.65085 0.44872 0.28454 0.0
C779 C 0.64857 0.43139 0.23117 0.0
C780 C 0.62373 0.39884 0.22454 0.0
H781 H 0.61101 0.3027 0.25138 0.0
H782 H 0.62458 0.33628 0.1989 0.0
H783 H 0.62847 0.34401 0.27989 0.0
H784 H 0.58556 0.38827 0.36125 0.0
H785 H 0.62894 0.44544 0.37303 0.0
loop_
_geom_bond_atom_site_label_1
_geom_bond_atom_site_label_2
_geom_bond_distance
_geom_bond_site_symmetry_2
_ccdc_geom_bond_type
Co0 O2 2.143 . S
Co0 O8 2.074 1_556 S
Co0 O11 2.093 . S
Co0 O24 2.097 1_556 S
Co0 N41 2.151 . S
Co0 N49 2.214 . S
Co1 O2 2.160 1_554 S
Co1 O7 2.058 . S
Co1 O17 2.057 . S
Co1 O32 2.037 . S
Co1 N36 2.145 . S
Co1 N57 2.257 . S
O2 Co0 2.143 . S
O2 Co1 2.160 1_556 S
C3 O4 1.278 . S
C3 O11 1.224 . S
O4 C3 1.278 . S
C5 O6 1.245 1_554 S
C5 O17 1.232 . S
O6 C5 1.245 1_556 S
O7 Co1 2.058 . S
O7 C33 1.269 . S
O8 Co0 2.074 1_554 S
O8 C33 1.257 . S
H9 C34 0.930 . S
H10 C40 0.930 . S
O11 Co0 2.093 . S
O11 C3 1.224 . S
H12 C44 0.929 . S
H13 C46 0.930 . S
H14 C47 0.930 . S
H15 C45 0.929 . S
H16 C48 0.928 . S
O17 Co1 2.057 . S
O17 C5 1.232 . S
H18 C37 0.929 . S
H19 C38 0.929 . S
H20 C50 0.931 . S
H21 C42 0.929 . S
H22 C51 0.930 . S
H23 C43 0.931 . S
O24 Co0 2.097 1_554 S
O24 C52 1.214 . S
H25 C53 0.929 . S
H26 C54 0.929 . S
H27 C55 0.930 . S
H28 C56 0.929 . S
H29 C58 0.930 . S
H30 C35 0.930 . S
H31 C39 0.930 . S
O32 Co1 2.037 . S
O32 C52 1.234 . S
C33 O7 1.269 . S
C33 O8 1.257 . S
C34 H9 0.930 . S
C34 C37 1.388 . S
C34 C39 1.418 . S
C35 H30 0.930 . S
C35 C38 1.404 . S
C35 C39 1.353 . S
N36 Co1 2.145 . S
N36 C37 1.397 . S
N36 C38 1.334 . S
C37 H18 0.929 . S
C37 C34 1.388 . S
C37 N36 1.397 . S
C38 H19 0.929 . S
C38 C35 1.404 . S
C38 N36 1.334 . S
C39 H31 0.930 . S
C39 C34 1.418 . S
C39 C35 1.353 . S
C40 H10 0.930 . S
C40 N41 1.330 . S
C40 C42 1.446 . S
N41 Co0 2.151 . S
N41 C40 1.330 . S
N41 C45 1.418 . S
C42 H21 0.929 . S
C42 C40 1.446 . S
C42 C43 1.332 . S
C43 H23 0.931 . S
C43 C42 1.332 . S
C43 C44 1.267 . S
C44 H12 0.929 . S
C44 C43 1.267 . S
C44 C45 1.251 . S
C45 H15 0.929 . S
C45 N41 1.418 . S
C45 C44 1.251 . S
C46 H13 0.930 . S
C46 C48 1.406 . S
C46 C51 1.261 . S
C47 H14 0.930 . S
C47 N49 1.325 . S
C47 C50 1.357 . S
C48 H16 0.928 . S
C48 C46 1.406 . S
C48 N49 1.261 . S
N49 Co0 2.214 . S
N49 C47 1.325 . S
N49 C48 1.261 . S
C50 H20 0.931 . S
C50 C47 1.357 . S
C50 C51 1.312 . S
C51 H22 0.930 . S
C51 C46 1.261 . S
C51 C50 1.312 . S
C52 O24 1.214 . S
C52 O32 1.234 . S
C53 H25 0.929 . S
C53 C56 1.391 . S
C53 C58 1.391 . S
C54 H26 0.929 . S
C54 C55 1.390 . S
C54 N57 1.391 . S
C55 H27 0.930 . S
C55 C54 1.390 . S
C55 C56 1.392 . S
C56 H28 0.929 . S
C56 C53 1.391 . S
C56 C55 1.392 . S
N57 Co1 2.257 . S
N57 C54 1.391 . S
N57 C58 1.388 . S
C58 H29 0.930 . S
C58 C53 1.391 . S
C58 N57 1.388 . S
Co59 O61 2.143 . S
Co59 O67 2.074 . S
Co59 O70 2.093 . S
Co59 O83 2.097 . S
Co59 N100 2.151 . S
Co59 N108 2.214 . S
Co60 O61 2.160 . S
Co60 O66 2.058 . S
Co60 O76 2.057 . S
Co60 O91 2.037 . S
Co60 N95 2.145 . S
Co60 N116 2.257 . S
O61 Co59 2.143 . S
O61 Co60 2.160 . S
C62 O63 1.278 . S
C62 O70 1.224 . S
O63 C62 1.278 . S
C64 O65 1.245 . S
C64 O76 1.232 . S
O65 C64 1.245 . S
O66 Co60 2.058 . S
O66 C92 1.269 . S
O67 Co59 2.074 . S
O67 C92 1.257 . S
H68 C93 0.930 . S
H69 C99 0.930 . S
O70 Co59 2.093 . S
O70 C62 1.224 . S
H71 C103 0.929 . S
H72 C105 0.930 . S
H73 C106 0.930 . S
H74 C104 0.929 . S
H75 C107 0.928 . S
O76 Co60 2.057 . S
O76 C64 1.232 . S
H77 C96 0.929 . S
H78 C97 0.929 . S
H79 C109 0.931 . S
H80 C101 0.929 . S
H81 C110 0.930 . S
H82 C102 0.931 . S
O83 Co59 2.097 . S
O83 C111 1.214 . S
H84 C112 0.929 . S
H85 C113 0.929 . S
H86 C114 0.930 . S
H87 C115 0.929 . S
H88 C117 0.930 . S
H89 C94 0.930 . S
H90 C98 0.930 . S
O91 Co60 2.037 . S
O91 C111 1.234 . S
C92 O66 1.269 . S
C92 O67 1.257 . S
C93 H68 0.930 . S
C93 C96 1.388 . S
C93 C98 1.418 . S
C94 H89 0.930 . S
C94 C97 1.404 . S
C94 C98 1.353 . S
N95 Co60 2.145 . S
N95 C96 1.397 . S
N95 C97 1.334 . S
C96 H77 0.929 . S
C96 C93 1.388 . S
C96 N95 1.397 . S
C97 H78 0.929 . S
C97 C94 1.404 . S
C97 N95 1.334 . S
C98 H90 0.930 . S
C98 C93 1.418 . S
C98 C94 1.353 . S
C99 H69 0.930 . S
C99 N100 1.330 . S
C99 C101 1.446 . S
N100 Co59 2.151 . S
N100 C99 1.330 . S
N100 C104 1.418 . S
C101 H80 0.929 . S
C101 C99 1.446 . S
C101 C102 1.332 . S
C102 H82 0.931 . S
C102 C101 1.332 . S
C102 C103 1.267 . S
C103 H71 0.929 . S
C103 C102 1.267 . S
C103 C104 1.251 . S
C104 H74 0.929 . S
C104 N100 1.418 . S
C104 C103 1.251 . S
C105 H72 0.930 . S
C105 C107 1.406 . S
C105 C110 1.261 . S
C106 H73 0.930 . S
C106 N108 1.325 . S
C106 C109 1.357 . S
C107 H75 0.928 . S
C107 C105 1.406 . S
C107 N108 1.261 . S
N108 Co59 2.214 . S
N108 C106 1.325 . S
N108 C107 1.261 . S
C109 H79 0.931 . S
C109 C106 1.357 . S
C109 C110 1.312 . S
C110 H81 0.930 . S
C110 C105 1.261 . S
C110 C109 1.312 . S
C111 O83 1.214 . S
C111 O91 1.234 . S
C112 H84 0.929 . S
C112 C115 1.391 . S
C112 C117 1.391 . S
C113 H85 0.929 . S
C113 C114 1.390 . S
C113 N116 1.391 . S
C114 H86 0.930 . S
C114 C113 1.390 . S
C114 C115 1.392 . S
C115 H87 0.929 . S
C115 C112 1.391 . S
C115 C114 1.392 . S
N116 Co60 2.257 . S
N116 C113 1.391 . S
N116 C117 1.388 . S
C117 H88 0.930 . S
C117 C112 1.391 . S
C117 N116 1.388 . S
Co118 O120 2.143 . S
Co118 O126 2.074 . S
Co118 O129 2.093 . S
Co118 O142 2.097 . S
Co118 N159 2.151 . S
Co118 N167 2.214 . S
Co119 O120 2.160 . S
Co119 O125 2.058 . S
Co119 O135 2.057 . S
Co119 O150 2.037 . S
Co119 N154 2.145 . S
Co119 N175 2.257 . S
O120 Co118 2.143 . S
O120 Co119 2.160 . S
C121 O122 1.278 . S
C121 O129 1.224 . S
O122 C121 1.278 . S
C123 O124 1.245 . S
C123 O135 1.232 . S
O124 C123 1.245 . S
O125 Co119 2.058 . S
O125 C151 1.269 . S
O126 Co118 2.074 . S
O126 C151 1.257 . S
H127 C152 0.930 . S
H128 C158 0.930 . S
O129 Co118 2.093 . S
O129 C121 1.224 . S
H130 C162 0.929 . S
H131 C164 0.930 . S
H132 C165 0.930 . S
H133 C163 0.929 . S
H134 C166 0.928 . S
O135 Co119 2.057 . S
O135 C123 1.232 . S
H136 C155 0.929 . S
H137 C156 0.929 . S
H138 C168 0.931 . S
H139 C160 0.929 . S
H140 C169 0.930 . S
H141 C161 0.931 . S
O142 Co118 2.097 . S
O142 C170 1.214 . S
H143 C171 0.929 . S
H144 C172 0.929 . S
H145 C173 0.930 . S
H146 C174 0.929 . S
H147 C176 0.930 . S
H148 C153 0.930 . S
H149 C157 0.930 . S
O150 Co119 2.037 . S
O150 C170 1.234 . S
C151 O125 1.269 . S
C151 O126 1.257 . S
C152 H127 0.930 . S
C152 C155 1.388 . S
C152 C157 1.418 . S
C153 H148 0.930 . S
C153 C156 1.404 . S
C153 C157 1.353 . S
N154 Co119 2.145 . S
N154 C155 1.397 . S
N154 C156 1.334 . S
C155 H136 0.929 . S
C155 C152 1.388 . S
C155 N154 1.397 . S
C156 H137 0.929 . S
C156 C153 1.404 . S
C156 N154 1.334 . S
C157 H149 0.930 . S
C157 C152 1.418 . S
C157 C153 1.353 . S
C158 H128 0.930 . S
C158 N159 1.330 . S
C158 C160 1.446 . S
N159 Co118 2.151 . S
N159 C158 1.330 . S
N159 C163 1.418 . S
C160 H139 0.929 . S
C160 C158 1.446 . S
C160 C161 1.332 . S
C161 H141 0.931 . S
C161 C160 1.332 . S
C161 C162 1.267 . S
C162 H130 0.929 . S
C162 C161 1.267 . S
C162 C163 1.251 . S
C163 H133 0.929 . S
C163 N159 1.418 . S
C163 C162 1.251 . S
C164 H131 0.930 . S
C164 C166 1.406 . S
C164 C169 1.261 . S
C165 H132 0.930 . S
C165 N167 1.325 . S
C165 C168 1.357 . S
C166 H134 0.928 . S
C166 C164 1.406 . S
C166 N167 1.261 . S
N167 Co118 2.214 . S
N167 C165 1.325 . S
N167 C166 1.261 . S
C168 H138 0.931 . S
C168 C165 1.357 . S
C168 C169 1.312 . S
C169 H140 0.930 . S
C169 C164 1.261 . S
C169 C168 1.312 . S
C170 O142 1.214 . S
C170 O150 1.234 . S
C171 H143 0.929 . S
C171 C174 1.391 . S
C171 C176 1.391 . S
C172 H144 0.929 . S
C172 C173 1.390 . S
C172 N175 1.391 . S
C173 H145 0.930 . S
C173 C172 1.390 . S
C173 C174 1.392 . S
C174 H146 0.929 . S
C174 C171 1.391 . S
C174 C173 1.392 . S
N175 Co119 2.257 . S
N175 C172 1.391 . S
N175 C176 1.388 . S
C176 H147 0.930 . S
C176 C171 1.391 . S
C176 N175 1.388 . S
Co177 O179 2.143 . S
Co177 O185 2.074 . S
Co177 O188 2.093 . S
Co177 O201 2.097 . S
Co177 N218 2.151 . S
Co177 N226 2.214 . S
Co178 O179 2.160 . S
Co178 O184 2.058 . S
Co178 O194 2.057 . S
Co178 O209 2.037 . S
Co178 N213 2.145 . S
Co178 N234 2.257 . S
O179 Co177 2.143 . S
O179 Co178 2.160 . S
C180 O181 1.278 . S
C180 O188 1.224 . S
O181 C180 1.278 . S
C182 O183 1.245 . S
C182 O194 1.232 . S
O183 C182 1.245 . S
O184 Co178 2.058 . S
O184 C210 1.269 . S
O185 Co177 2.074 . S
O185 C210 1.257 . S
H186 C211 0.930 . S
H187 C217 0.930 . S
O188 Co177 2.093 . S
O188 C180 1.224 . S
H189 C221 0.929 . S
H190 C223 0.930 . S
H191 C224 0.930 . S
H192 C222 0.929 . S
H193 C225 0.928 . S
O194 Co178 2.057 . S
O194 C182 1.232 . S
H195 C214 0.929 . S
H196 C215 0.929 . S
H197 C227 0.931 . S
H198 C219 0.929 . S
H199 C228 0.930 . S
H200 C220 0.931 . S
O201 Co177 2.097 . S
O201 C229 1.214 . S
H202 C230 0.929 . S
H203 C231 0.929 . S
H204 C232 0.930 . S
H205 C233 0.929 . S
H206 C235 0.930 . S
H207 C212 0.930 . S
H208 C216 0.930 . S
O209 Co178 2.037 . S
O209 C229 1.234 . S
C210 O184 1.269 . S
C210 O185 1.257 . S
C211 H186 0.930 . S
C211 C214 1.388 . S
C211 C216 1.418 . S
C212 H207 0.930 . S
C212 C215 1.404 . S
C212 C216 1.353 . S
N213 Co178 2.145 . S
N213 C214 1.397 . S
N213 C215 1.334 . S
C214 H195 0.929 . S
C214 C211 1.388 . S
C214 N213 1.397 . S
C215 H196 0.929 . S
C215 C212 1.404 . S
C215 N213 1.334 . S
C216 H208 0.930 . S
C216 C211 1.418 . S
C216 C212 1.353 . S
C217 H187 0.930 . S
C217 N218 1.330 . S
C217 C219 1.446 . S
N218 Co177 2.151 . S
N218 C217 1.330 . S
N218 C222 1.418 . S
C219 H198 0.929 . S
C219 C217 1.446 . S
C219 C220 1.332 . S
C220 H200 0.931 . S
C220 C219 1.332 . S
C220 C221 1.267 . S
C221 H189 0.929 . S
C221 C220 1.267 . S
C221 C222 1.251 . S
C222 H192 0.929 . S
C222 N218 1.418 . S
C222 C221 1.251 . S
C223 H190 0.930 . S
C223 C225 1.406 . S
C223 C228 1.261 . S
C224 H191 0.930 . S
C224 N226 1.325 . S
C224 C227 1.357 . S
C225 H193 0.928 . S
C225 C223 1.406 . S
C225 N226 1.261 . S
N226 Co177 2.214 . S
N226 C224 1.325 . S
N226 C225 1.261 . S
C227 H197 0.931 . S
C227 C224 1.357 . S
C227 C228 1.312 . S
C228 H199 0.930 . S
C228 C223 1.261 . S
C228 C227 1.312 . S
C229 O201 1.214 . S
C229 O209 1.234 . S
C230 H202 0.929 . S
C230 C233 1.391 . S
C230 C235 1.391 . S
C231 H203 0.929 . S
C231 C232 1.390 . S
C231 N234 1.391 . S
C232 H204 0.930 . S
C232 C231 1.390 . S
C232 C233 1.392 . S
C233 H205 0.929 . S
C233 C230 1.391 . S
C233 C232 1.392 . S
N234 Co178 2.257 . S
N234 C231 1.391 . S
N234 C235 1.388 . S
C235 H206 0.930 . S
C235 C230 1.391 . S
C235 N234 1.388 . S
Co236 O238 2.143 . S
Co236 O244 2.074 . S
Co236 O247 2.093 . S
Co236 O260 2.097 . S
Co236 N277 2.151 . S
Co236 N285 2.214 . S
Co237 O238 2.160 . S
Co237 O243 2.058 . S
Co237 O253 2.057 . S
Co237 O268 2.037 . S
Co237 N272 2.145 . S
Co237 N293 2.257 . S
O238 Co236 2.143 . S
O238 Co237 2.160 . S
C239 O240 1.278 . S
C239 O247 1.224 . S
O240 C239 1.278 . S
C241 O242 1.245 . S
C241 O253 1.232 . S
O242 C241 1.245 . S
O243 Co237 2.058 . S
O243 C269 1.269 . S
O244 Co236 2.074 . S
O244 C269 1.257 . S
H245 C270 0.930 . S
H246 C276 0.930 . S
O247 Co236 2.093 . S
O247 C239 1.224 . S
H248 C280 0.929 . S
H249 C282 0.930 . S
H250 C283 0.930 . S
H251 C281 0.929 . S
H252 C284 0.928 . S
O253 Co237 2.057 . S
O253 C241 1.232 . S
H254 C273 0.929 . S
H255 C274 0.929 . S
H256 C286 0.931 . S
H257 C278 0.929 . S
H258 C287 0.930 . S
H259 C279 0.931 . S
O260 Co236 2.097 . S
O260 C288 1.214 . S
H261 C289 0.929 . S
H262 C290 0.929 . S
H263 C291 0.930 . S
H264 C292 0.929 . S
H265 C294 0.930 . S
H266 C271 0.930 . S
H267 C275 0.930 . S
O268 Co237 2.037 . S
O268 C288 1.234 . S
C269 O243 1.269 . S
C269 O244 1.257 . S
C270 H245 0.930 . S
C270 C273 1.388 . S
C270 C275 1.418 . S
C271 H266 0.930 . S
C271 C274 1.404 . S
C271 C275 1.353 . S
N272 Co237 2.145 . S
N272 C273 1.397 . S
N272 C274 1.334 . S
C273 H254 0.929 . S
C273 C270 1.388 . S
C273 N272 1.397 . S
C274 H255 0.929 . S
C274 C271 1.404 . S
C274 N272 1.334 . S
C275 H267 0.930 . S
C275 C270 1.418 . S
C275 C271 1.353 . S
C276 H246 0.930 . S
C276 N277 1.330 . S
C276 C278 1.446 . S
N277 Co236 2.151 . S
N277 C276 1.330 . S
N277 C281 1.418 . S
C278 H257 0.929 . S
C278 C276 1.446 . S
C278 C279 1.332 . S
C279 H259 0.931 . S
C279 C278 1.332 . S
C279 C280 1.267 . S
C280 H248 0.929 . S
C280 C279 1.267 . S
C280 C281 1.251 . S
C281 H251 0.929 . S
C281 N277 1.418 . S
C281 C280 1.251 . S
C282 H249 0.930 . S
C282 C284 1.406 . S
C282 C287 1.261 . S
C283 H250 0.930 . S
C283 N285 1.325 . S
C283 C286 1.357 . S
C284 H252 0.928 . S
C284 C282 1.406 . S
C284 N285 1.261 . S
N285 Co236 2.214 . S
N285 C283 1.325 . S
N285 C284 1.261 . S
C286 H256 0.931 . S
C286 C283 1.357 . S
C286 C287 1.312 . S
C287 H258 0.930 . S
C287 C282 1.261 . S
C287 C286 1.312 . S
C288 O260 1.214 . S
C288 O268 1.234 . S
C289 H261 0.929 . S
C289 C292 1.391 . S
C289 C294 1.391 . S
C290 H262 0.929 . S
C290 C291 1.390 . S
C290 N293 1.391 . S
C291 H263 0.930 . S
C291 C290 1.390 . S
C291 C292 1.392 . S
C292 H264 0.929 . S
C292 C289 1.391 . S
C292 C291 1.392 . S
N293 Co237 2.257 . S
N293 C290 1.391 . S
N293 C294 1.388 . S
C294 H265 0.930 . S
C294 C289 1.391 . S
C294 N293 1.388 . S
Co295 O297 2.143 . S
Co295 O303 2.074 . S
Co295 O306 2.093 . S
Co295 O319 2.097 1_556 S
Co295 N336 2.151 . S
Co295 N344 2.214 . S
Co296 O297 2.160 1_554 S
Co296 O302 2.058 . S
Co296 O312 2.057 . S
Co296 O327 2.037 . S
Co296 N331 2.145 . S
Co296 N352 2.257 . S
O297 Co295 2.143 . S
O297 Co296 2.160 1_556 S
C298 O299 1.278 . S
C298 O306 1.224 . S
O299 C298 1.278 . S
C300 O301 1.245 . S
C300 O312 1.232 1_556 S
O301 C300 1.245 . S
O302 Co296 2.058 . S
O302 C328 1.265 1_554 S
O303 Co295 2.074 . S
O303 C328 1.260 . S
H304 C329 0.930 . S
H305 C335 0.930 . S
O306 Co295 2.093 . S
O306 C298 1.224 . S
H307 C339 0.929 . S
H308 C341 0.930 . S
H309 C342 0.930 . S
H310 C340 0.929 . S
H311 C343 0.928 . S
O312 Co296 2.057 . S
O312 C300 1.232 1_554 S
H313 C332 0.929 . S
H314 C333 0.929 . S
H315 C345 0.931 . S
H316 C337 0.929 . S
H317 C346 0.930 . S
H318 C338 0.931 . S
O319 Co295 2.097 1_554 S
O319 C347 1.214 . S
H320 C348 0.929 . S
H321 C349 0.929 . S
H322 C350 0.930 . S
H323 C351 0.929 . S
H324 C353 0.930 . S
H325 C330 0.930 . S
H326 C334 0.930 . S
O327 Co296 2.037 . S
O327 C347 1.234 . S
C328 O302 1.265 1_556 S
C328 O303 1.260 . S
C329 H304 0.930 . S
C329 C332 1.388 . S
C329 C334 1.418 . S
C330 H325 0.930 . S
C330 C333 1.404 . S
C330 C334 1.353 . S
N331 Co296 2.145 . S
N331 C332 1.397 . S
N331 C333 1.334 . S
C332 H313 0.929 . S
C332 C329 1.388 . S
C332 N331 1.397 . S
C333 H314 0.929 . S
C333 C330 1.404 . S
C333 N331 1.334 . S
C334 H326 0.930 . S
C334 C329 1.418 . S
C334 C330 1.353 . S
C335 H305 0.930 . S
C335 N336 1.330 . S
C335 C337 1.446 . S
N336 Co295 2.151 . S
N336 C335 1.330 . S
N336 C340 1.418 . S
C337 H316 0.929 . S
C337 C335 1.446 . S
C337 C338 1.332 . S
C338 H318 0.931 . S
C338 C337 1.332 . S
C338 C339 1.267 . S
C339 H307 0.929 . S
C339 C338 1.267 . S
C339 C340 1.251 . S
C340 H310 0.929 . S
C340 N336 1.418 . S
C340 C339 1.251 . S
C341 H308 0.930 . S
C341 C343 1.406 . S
C341 C346 1.261 . S
C342 H309 0.930 . S
C342 N344 1.325 1_554 S
C342 C345 1.357 . S
C343 H311 0.928 . S
C343 C341 1.406 . S
C343 N344 1.261 . S
N344 Co295 2.214 . S
N344 C342 1.325 1_556 S
N344 C343 1.261 . S
C345 H315 0.931 . S
C345 C342 1.357 . S
C345 C346 1.312 1_554 S
C346 H317 0.930 . S
C346 C341 1.261 . S
C346 C345 1.312 1_556 S
C347 O319 1.214 . S
C347 O327 1.234 . S
C348 H320 0.929 . S
C348 C351 1.391 . S
C348 C353 1.391 . S
C349 H321 0.929 . S
C349 C350 1.390 . S
C349 N352 1.391 . S
C350 H322 0.930 . S
C350 C349 1.390 . S
C350 C351 1.392 . S
C351 H323 0.929 . S
C351 C348 1.391 . S
C351 C350 1.392 . S
N352 Co296 2.257 . S
N352 C349 1.391 . S
N352 C353 1.388 . S
C353 H324 0.930 . S
C353 C348 1.391 . S
C353 N352 1.388 . S
H354 C362 0.929 1_556 S
H355 C364 0.930 1_556 S
H356 C366 0.930 . S
H357 C369 0.929 . S
H358 C372 0.930 . S
H359 C374 0.960 . S
H360 C374 0.960 . S
H361 C374 0.960 . S
C362 H354 0.929 1_554 S
C362 C363 1.377 . S
C362 C364 1.384 . S
C363 C362 1.377 . S
C363 C369 1.390 . S
C364 H355 0.930 1_554 S
C364 C362 1.384 . S
C364 C365 1.372 . S
C365 C364 1.372 . S
C365 C366 1.400 . S
C365 C370 1.490 . S
C366 H356 0.930 . S
C366 C365 1.400 . S
C366 C369 1.386 . S
H367 C383 0.930 . S
H368 C384 0.931 . S
C369 H357 0.929 . S
C369 C363 1.390 . S
C369 C366 1.386 . S
C370 C365 1.490 . S
C370 C372 1.395 . S
C370 C373 1.403 1_554 S
H371 C377 0.930 . S
C372 H358 0.930 . S
C372 C370 1.395 . S
C372 C375 1.403 . S
C373 C370 1.403 1_556 S
C373 C374 1.524 . S
C373 C377 1.400 . S
C374 H359 0.960 . S
C374 H360 0.960 . S
C374 H361 0.960 . S
C374 C373 1.524 . S
C375 C372 1.403 . S
C375 C376 1.392 . S
C375 C379 1.495 . S
C376 C375 1.392 . S
C376 C377 1.385 1_554 S
C376 C378 1.478 . S
C377 H371 0.930 . S
C377 C373 1.400 . S
C377 C376 1.385 1_556 S
C378 C376 1.478 . S
C378 C380 1.381 1_554 S
C378 C384 1.383 . S
C379 C375 1.495 . S
C379 H385 0.959 . S
C379 H386 0.961 . S
C379 H387 0.960 . S
C380 C378 1.381 1_556 S
C380 C381 1.394 . S
C380 H388 0.930 . S
C381 C380 1.394 . S
C381 C382 1.380 1_556 S
C381 H389 0.929 . S
C382 C381 1.380 1_554 S
C382 C383 1.382 . S
C383 H367 0.930 . S
C383 C382 1.382 . S
C383 C384 1.379 . S
C384 H368 0.931 . S
C384 C378 1.383 . S
C384 C383 1.379 . S
H385 C379 0.959 . S
H386 C379 0.961 . S
H387 C379 0.960 . S
H388 C380 0.930 . S
H389 C381 0.929 . S
H390 C398 0.929 1_455 S
H391 C400 0.930 . S
H392 C402 0.930 . S
H393 C405 0.929 . S
H394 C408 0.930 . S
H395 C410 0.960 . S
H396 C410 0.960 . S
H397 C410 0.960 . S
C398 H390 0.929 1_655 S
C398 C399 1.377 . S
C398 C400 1.384 1_655 S
C399 C398 1.377 . S
C399 C405 1.390 . S
C400 H391 0.930 . S
C400 C398 1.384 1_455 S
C400 C401 1.371 1_455 S
C401 C400 1.371 1_655 S
C401 C402 1.404 . S
C401 C406 1.487 1_655 S
C402 H392 0.930 . S
C402 C401 1.404 . S
C402 C405 1.386 . S
H403 C419 0.930 . S
H404 C420 0.931 . S
C405 H393 0.929 . S
C405 C399 1.390 . S
C405 C402 1.386 . S
C406 C401 1.487 1_455 S
C406 C408 1.395 . S
C406 C409 1.403 . S
H407 C413 0.930 . S
C408 H394 0.930 . S
C408 C406 1.395 . S
C408 C411 1.403 . S
C409 C406 1.403 . S
C409 C410 1.524 1_455 S
C409 C413 1.400 . S
C410 H395 0.960 . S
C410 H396 0.960 . S
C410 H397 0.960 . S
C410 C409 1.524 1_655 S
C411 C408 1.403 . S
C411 C412 1.392 . S
C411 C415 1.495 . S
C412 C411 1.392 . S
C412 C413 1.385 . S
C412 C414 1.478 . S
C413 H407 0.930 . S
C413 C409 1.400 . S
C413 C412 1.385 . S
C414 C412 1.478 . S
C414 C416 1.381 . S
C414 C420 1.383 . S
C415 C411 1.495 . S
C415 H421 0.959 . S
C415 H422 0.961 . S
C415 H423 0.960 . S
C416 C414 1.381 . S
C416 C417 1.394 . S
C416 H424 0.930 . S
C417 C416 1.394 . S
C417 C418 1.383 . S
C417 H425 0.929 . S
C418 C417 1.383 . S
C418 C419 1.377 . S
C419 H403 0.930 . S
C419 C418 1.377 . S
C419 C420 1.379 . S
C420 H404 0.931 . S
C420 C414 1.383 . S
C420 C419 1.379 . S
H421 C415 0.959 . S
H422 C415 0.961 . S
H423 C415 0.960 . S
H424 C416 0.930 . S
H425 C417 0.929 . S
H426 C434 0.929 . S
H427 C436 0.930 . S
H428 C438 0.930 . S
H429 C441 0.929 . S
H430 C444 0.930 . S
H431 C446 0.960 . S
H432 C446 0.960 . S
H433 C446 0.960 . S
C434 H426 0.929 . S
C434 C435 1.377 . S
C434 C436 1.384 . S
C435 C434 1.377 . S
C435 C441 1.390 . S
C436 H427 0.930 . S
C436 C434 1.384 . S
C436 C437 1.372 . S
C437 C436 1.372 . S
C437 C438 1.400 . S
C437 C442 1.490 . S
C438 H428 0.930 . S
C438 C437 1.400 . S
C438 C441 1.386 . S
H439 C455 0.930 . S
H440 C456 0.931 . S
C441 H429 0.929 . S
C441 C435 1.390 . S
C441 C438 1.386 . S
C442 C437 1.490 . S
C442 C444 1.395 . S
C442 C445 1.403 . S
H443 C449 0.915 1_565 S
C444 H430 0.930 . S
C444 C442 1.395 . S
C444 C447 1.403 . S
C445 C442 1.403 . S
C445 C446 1.524 . S
C445 C449 1.400 . S
C446 H431 0.960 . S
C446 H432 0.960 . S
C446 H433 0.960 . S
C446 C445 1.524 . S
C447 C444 1.403 . S
C447 C448 1.392 1_545 S
C447 C451 1.495 1_545 S
C448 C447 1.392 1_565 S
C448 C449 1.385 1_565 S
C448 C450 1.478 . S
C449 H443 0.915 1_545 S
C449 C445 1.400 . S
C449 C448 1.385 1_545 S
C450 C448 1.478 . S
C450 C452 1.381 . S
C450 C456 1.383 . S
C451 C447 1.495 1_565 S
C451 H457 0.959 1_565 S
C451 H458 0.961 . S
C451 H459 0.960 . S
C452 C450 1.381 . S
C452 C453 1.394 . S
C452 H460 0.930 . S
C453 C452 1.394 . S
C453 C454 1.383 . S
C453 H461 0.929 . S
C454 C453 1.383 . S
C454 C455 1.377 . S
C455 H439 0.930 . S
C455 C454 1.377 . S
C455 C456 1.379 . S
C456 H440 0.931 . S
C456 C450 1.383 . S
C456 C455 1.379 . S
H457 C451 0.959 1_545 S
H458 C451 0.961 . S
H459 C451 0.960 . S
H460 C452 0.930 . S
H461 C453 0.929 . S
H462 C470 0.929 . S
H463 C472 0.930 . S
H464 C474 0.930 . S
H465 C477 0.929 . S
H466 C480 0.930 . S
H467 C482 0.960 . S
H468 C482 0.960 . S
H469 C482 0.960 . S
C470 H462 0.929 . S
C470 C471 1.377 . S
C470 C472 1.384 . S
C471 C470 1.377 . S
C471 C477 1.390 . S
C472 H463 0.930 . S
C472 C470 1.384 . S
C472 C473 1.372 . S
C473 C472 1.372 . S
C473 C474 1.400 . S
C473 C478 1.490 . S
C474 H464 0.930 . S
C474 C473 1.400 . S
C474 C477 1.386 . S
H475 C491 0.930 . S
H476 C492 0.931 . S
C477 H465 0.929 . S
C477 C471 1.390 . S
C477 C474 1.386 . S
C478 C473 1.490 . S
C478 C480 1.395 . S
C478 C481 1.403 . S
H479 C485 0.930 . S
C480 H466 0.930 . S
C480 C478 1.395 . S
C480 C483 1.403 1_554 S
C481 C478 1.403 . S
C481 C482 1.524 . S
C481 C485 1.400 1_554 S
C482 H467 0.960 . S
C482 H468 0.960 . S
C482 H469 0.960 . S
C482 C481 1.524 . S
C483 C480 1.403 1_556 S
C483 C484 1.392 . S
C483 C487 1.495 . S
C484 C483 1.392 . S
C484 C485 1.385 . S
C484 C486 1.478 . S
C485 H479 0.930 . S
C485 C481 1.400 1_556 S
C485 C484 1.385 . S
C486 C484 1.478 . S
C486 C488 1.381 . S
C486 C492 1.383 . S
C487 C483 1.495 . S
C487 H493 0.959 . S
C487 H494 0.961 . S
C487 H495 0.960 . S
C488 C486 1.381 . S
C488 C489 1.394 . S
C488 H496 0.930 . S
C489 C488 1.394 . S
C489 C490 1.383 . S
C489 H497 0.929 . S
C490 C489 1.383 . S
C490 C491 1.377 . S
C491 H475 0.930 . S
C491 C490 1.377 . S
C491 C492 1.379 . S
C492 H476 0.931 . S
C492 C486 1.383 . S
C492 C491 1.379 . S
H493 C487 0.959 . S
H494 C487 0.961 . S
H495 C487 0.960 . S
H496 C488 0.930 . S
H497 C489 0.929 . S
H498 C506 0.929 . S
H499 C508 0.930 . S
H500 C510 0.930 . S
H501 C513 0.929 . S
H502 C516 0.930 . S
H503 C518 0.960 . S
H504 C518 0.960 . S
H505 C518 0.960 . S
C506 H498 0.929 . S
C506 C507 1.377 . S
C506 C508 1.384 . S
C507 C506 1.377 . S
C507 C513 1.390 . S
C508 H499 0.930 . S
C508 C506 1.384 . S
C508 C509 1.372 . S
C509 C508 1.372 . S
C509 C510 1.400 . S
C509 C514 1.490 . S
C510 H500 0.930 . S
C510 C509 1.400 . S
C510 C513 1.386 . S
H511 C527 0.930 . S
H512 C528 0.931 . S
C513 H501 0.929 . S
C513 C507 1.390 . S
C513 C510 1.386 . S
C514 C509 1.490 . S
C514 C516 1.395 . S
C514 C517 1.403 . S
H515 C521 0.930 1_455 S
C516 H502 0.930 . S
C516 C514 1.395 . S
C516 C519 1.403 . S
C517 C514 1.403 . S
C517 C518 1.524 . S
C517 C521 1.400 . S
C518 H503 0.960 . S
C518 H504 0.960 . S
C518 H505 0.960 . S
C518 C517 1.524 . S
C519 C516 1.403 . S
C519 C520 1.392 1_655 S
C519 C523 1.480 1_655 S
C520 C519 1.392 1_455 S
C520 C521 1.385 1_455 S
C520 C522 1.478 . S
C521 H515 0.930 1_655 S
C521 C517 1.400 . S
C521 C520 1.385 1_655 S
C522 C520 1.478 . S
C522 C524 1.381 . S
C522 C528 1.383 . S
C523 C519 1.480 1_455 S
C523 H529 0.952 1_455 S
C523 H530 0.977 . S
C523 H531 0.967 . S
C524 C522 1.381 . S
C524 C525 1.394 . S
C524 H532 0.930 . S
C525 C524 1.394 . S
C525 C526 1.383 . S
C525 H533 0.929 . S
C526 C525 1.383 . S
C526 C527 1.377 . S
C527 H511 0.930 . S
C527 C526 1.377 . S
C527 C528 1.379 . S
C528 H512 0.931 . S
C528 C522 1.383 . S
C528 C527 1.379 . S
H529 C523 0.952 1_655 S
H530 C523 0.977 . S
H531 C523 0.967 . S
H532 C524 0.930 . S
H533 C525 0.929 . S
H534 C542 0.929 . S
H535 C544 0.930 . S
H536 C546 0.930 . S
H537 C549 0.929 . S
H538 C552 0.930 . S
H539 C554 0.960 . S
H540 C554 0.960 . S
H541 C554 0.960 . S
C542 H534 0.929 . S
C542 C543 1.377 . S
C542 C544 1.384 . S
C543 C542 1.377 . S
C543 C549 1.390 . S
C544 H535 0.930 . S
C544 C542 1.384 . S
C544 C545 1.372 . S
C545 C544 1.372 . S
C545 C546 1.400 1_545 S
C545 C550 1.490 1_545 S
C546 H536 0.930 . S
C546 C545 1.400 1_565 S
C546 C549 1.386 1_565 S
H547 C563 0.930 . S
H548 C564 0.931 . S
C549 H537 0.929 . S
C549 C543 1.390 . S
C549 C546 1.386 1_545 S
C550 C545 1.490 1_565 S
C550 C552 1.395 1_565 S
C550 C553 1.403 . S
H551 C557 0.930 . S
C552 H538 0.930 . S
C552 C550 1.395 1_545 S
C552 C555 1.403 1_545 S
C553 C550 1.403 . S
C553 C554 1.524 . S
C553 C557 1.400 . S
C554 H539 0.960 . S
C554 H540 0.960 . S
C554 H541 0.960 . S
C554 C553 1.524 . S
C555 C552 1.403 1_565 S
C555 C556 1.392 . S
C555 C559 1.495 1_565 S
C556 C555 1.392 . S
C556 C557 1.385 . S
C556 C558 1.478 . S
C557 H551 0.930 . S
C557 C553 1.400 . S
C557 C556 1.385 . S
C558 C556 1.478 . S
C558 C560 1.381 . S
C558 C564 1.383 . S
C559 C555 1.495 1_545 S
C559 H565 0.959 . S
C559 H566 0.961 . S
C559 H567 0.960 . S
C560 C558 1.381 . S
C560 C561 1.394 . S
C560 H568 0.930 . S
C561 C560 1.394 . S
C561 C562 1.383 . S
C561 H569 0.929 . S
C562 C561 1.383 . S
C562 C563 1.377 . S
C563 H547 0.930 . S
C563 C562 1.377 . S
C563 C564 1.379 . S
C564 H548 0.931 . S
C564 C558 1.383 . S
C564 C563 1.379 . S
H565 C559 0.959 . S
H566 C559 0.961 . S
H567 C559 0.960 . S
H568 C560 0.930 . S
H569 C561 0.929 . S
H570 C578 0.929 . S
H571 C580 0.930 . S
H572 C582 0.930 . S
H573 C585 0.929 . S
H574 C588 0.930 . S
H575 C590 0.960 . S
H576 C590 0.960 . S
H577 C590 0.960 . S
C578 H570 0.929 . S
C578 C579 1.377 . S
C578 C580 1.384 . S
C579 C578 1.377 . S
C579 C585 1.390 . S
C580 H571 0.930 . S
C580 C578 1.384 . S
C580 C581 1.372 . S
C581 C580 1.372 . S
C581 C582 1.400 . S
C581 C586 1.490 . S
C582 H572 0.930 . S
C582 C581 1.400 . S
C582 C585 1.386 . S
H583 C599 0.930 . S
H584 C600 0.931 . S
C585 H573 0.929 . S
C585 C579 1.390 . S
C585 C582 1.386 . S
C586 C581 1.490 . S
C586 C588 1.395 . S
C586 C589 1.403 . S
H587 C593 0.930 . S
C588 H574 0.930 . S
C588 C586 1.395 . S
C588 C591 1.403 . S
C589 C586 1.403 . S
C589 C590 1.524 . S
C589 C593 1.400 . S
C590 H575 0.960 . S
C590 H576 0.960 . S
C590 H577 0.960 . S
C590 C589 1.524 . S
C591 C588 1.403 . S
C591 C592 1.392 . S
C591 C595 1.495 . S
C592 C591 1.392 . S
C592 C593 1.385 . S
C592 C594 1.478 . S
C593 H587 0.930 . S
C593 C589 1.400 . S
C593 C592 1.385 . S
C594 C592 1.478 . S
C594 C596 1.381 . S
C594 C600 1.383 . S
C595 C591 1.495 . S
C595 H601 0.959 . S
C595 H602 0.961 . S
C595 H603 0.960 . S
C596 C594 1.381 . S
C596 C597 1.394 . S
C596 H604 0.930 . S
C597 C596 1.394 . S
C597 C598 1.383 . S
C597 H605 0.929 . S
C598 C597 1.383 . S
C598 C599 1.377 . S
C599 H583 0.930 . S
C599 C598 1.377 . S
C599 C600 1.379 . S
C600 H584 0.931 . S
C600 C594 1.383 . S
C600 C599 1.379 . S
H601 C595 0.959 . S
H602 C595 0.961 . S
H603 C595 0.960 . S
H604 C596 0.930 . S
H605 C597 0.929 . S
H606 C614 0.929 . S
H607 C616 0.930 . S
H608 C618 0.930 . S
H609 C621 0.929 . S
H610 C624 0.930 . S
H611 C626 0.960 . S
H612 C626 0.960 1_554 S
H613 C626 0.960 . S
C614 H606 0.929 . S
C614 C615 1.377 . S
C614 C616 1.384 . S
C615 C614 1.377 . S
C615 C621 1.390 . S
C616 H607 0.930 . S
C616 C614 1.384 . S
C616 C617 1.372 . S
C617 C616 1.372 . S
C617 C618 1.400 . S
C617 C622 1.490 . S
C618 H608 0.930 . S
C618 C617 1.400 . S
C618 C621 1.386 . S
H619 C635 0.930 . S
H620 C636 0.931 . S
C621 H609 0.929 . S
C621 C615 1.390 . S
C621 C618 1.386 . S
C622 C617 1.490 . S
C622 C624 1.395 . S
C622 C625 1.403 . S
H623 C629 0.930 . S
C624 H610 0.930 . S
C624 C622 1.395 . S
C624 C627 1.403 . S
C625 C622 1.403 . S
C625 C626 1.524 . S
C625 C629 1.400 . S
C626 H611 0.960 . S
C626 H612 0.960 1_556 S
C626 H613 0.960 . S
C626 C625 1.524 . S
C627 C624 1.403 . S
C627 C628 1.392 . S
C627 C631 1.495 . S
C628 C627 1.392 . S
C628 C629 1.385 . S
C628 C630 1.478 . S
C629 H623 0.930 . S
C629 C625 1.400 . S
C629 C628 1.385 . S
C630 C628 1.478 . S
C630 C632 1.381 . S
C630 C636 1.383 . S
C631 C627 1.495 . S
C631 H637 0.959 . S
C631 H638 0.961 . S
C631 H639 0.960 . S
C632 C630 1.381 . S
C632 C633 1.394 . S
C632 H640 0.930 . S
C633 C632 1.394 . S
C633 C634 1.383 . S
C633 H641 0.929 . S
C634 C633 1.383 . S
C634 C635 1.377 . S
C635 H619 0.930 . S
C635 C634 1.377 . S
C635 C636 1.379 . S
C636 H620 0.931 . S
C636 C630 1.383 . S
C636 C635 1.379 . S
H637 C631 0.959 . S
H638 C631 0.961 . S
H639 C631 0.960 . S
H640 C632 0.930 . S
H641 C633 0.929 . S
H642 C650 0.929 . S
H643 C652 0.930 . S
H644 C654 0.930 . S
H645 C657 0.929 . S
H646 C660 0.930 . S
H647 C662 0.960 . S
H648 C662 0.960 . S
H649 C662 0.960 . S
C650 H642 0.929 . S
C650 C651 1.377 . S
C650 C652 1.384 . S
C651 C650 1.377 . S
C651 C657 1.390 . S
C652 H643 0.930 . S
C652 C650 1.384 . S
C652 C653 1.372 . S
C653 C652 1.372 . S
C653 C654 1.400 . S
C653 C658 1.490 . S
C654 H644 0.930 . S
C654 C653 1.400 . S
C654 C657 1.386 . S
H655 C671 0.930 . S
H656 C672 0.931 . S
C657 H645 0.929 . S
C657 C651 1.390 . S
C657 C654 1.386 . S
C658 C653 1.490 . S
C658 C660 1.395 . S
C658 C661 1.403 . S
H659 C665 0.930 . S
C660 H646 0.930 . S
C660 C658 1.395 . S
C660 C663 1.403 . S
C661 C658 1.403 . S
C661 C662 1.524 . S
C661 C665 1.400 . S
C662 H647 0.960 . S
C662 H648 0.960 . S
C662 H649 0.960 . S
C662 C661 1.524 . S
C663 C660 1.403 . S
C663 C664 1.392 . S
C663 C667 1.495 . S
C664 C663 1.392 . S
C664 C665 1.385 . S
C664 C666 1.478 . S
C665 H659 0.930 . S
C665 C661 1.400 . S
C665 C664 1.385 . S
C666 C664 1.478 . S
C666 C668 1.381 . S
C666 C672 1.383 . S
C667 C663 1.495 . S
C667 H673 0.959 . S
C667 H674 0.961 . S
C667 H675 0.960 . S
C668 C666 1.381 . S
C668 C669 1.394 . S
C668 H676 0.930 . S
C669 C668 1.394 . S
C669 C670 1.383 . S
C669 H677 0.929 . S
C670 C669 1.383 . S
C670 C671 1.377 . S
C671 H655 0.930 . S
C671 C670 1.377 . S
C671 C672 1.379 . S
C672 H656 0.931 . S
C672 C666 1.383 . S
C672 C671 1.379 . S
H673 C667 0.959 . S
H674 C667 0.961 . S
H675 C667 0.960 . S
H676 C668 0.930 . S
H677 C669 0.929 . S
H678 C686 0.929 . S
H679 C688 0.930 . S
H680 C690 0.930 . S
H681 C693 0.929 . S
H682 C696 0.930 . S
H683 C698 0.960 . S
H684 C698 0.960 . S
H685 C698 0.960 . S
C686 H678 0.929 . S
C686 C687 1.377 . S
C686 C688 1.384 . S
C687 C686 1.377 . S
C687 C693 1.390 . S
C688 H679 0.930 . S
C688 C686 1.384 . S
C688 C689 1.372 . S
C689 C688 1.372 . S
C689 C690 1.400 . S
C689 C694 1.490 . S
C690 H680 0.930 . S
C690 C689 1.400 . S
C690 C693 1.386 . S
H691 C707 0.930 . S
H692 C708 0.931 . S
C693 H681 0.929 . S
C693 C687 1.390 . S
C693 C690 1.386 . S
C694 C689 1.490 . S
C694 C696 1.395 . S
C694 C697 1.403 . S
H695 C701 0.930 . S
C696 H682 0.930 . S
C696 C694 1.395 . S
C696 C699 1.403 . S
C697 C694 1.403 . S
C697 C698 1.524 . S
C697 C701 1.400 . S
C698 H683 0.960 . S
C698 H684 0.960 . S
C698 H685 0.960 . S
C698 C697 1.524 . S
C699 C696 1.403 . S
C699 C700 1.392 . S
C699 C703 1.495 . S
C700 C699 1.392 . S
C700 C701 1.385 . S
C700 C702 1.478 . S
C701 H695 0.930 . S
C701 C697 1.400 . S
C701 C700 1.385 . S
C702 C700 1.478 . S
C702 C704 1.381 . S
C702 C708 1.383 . S
C703 C699 1.495 . S
C703 H709 0.959 . S
C703 H710 0.961 . S
C703 H711 0.960 . S
C704 C702 1.381 . S
C704 C705 1.394 . S
C704 H712 0.930 . S
C705 C704 1.394 . S
C705 C706 1.383 . S
C705 H713 0.929 . S
C706 C705 1.383 . S
C706 C707 1.377 . S
C707 H691 0.930 . S
C707 C706 1.377 . S
C707 C708 1.379 . S
C708 H692 0.931 . S
C708 C702 1.383 . S
C708 C707 1.379 . S
H709 C703 0.959 . S
H710 C703 0.961 . S
H711 C703 0.960 . S
H712 C704 0.930 . S
H713 C705 0.929 . S
H714 C722 0.929 . S
H715 C724 0.930 . S
H716 C726 0.930 . S
H717 C729 0.929 . S
H718 C732 0.930 . S
H719 C734 0.960 . S
H720 C734 0.960 . S
H721 C734 0.960 . S
C722 H714 0.929 . S
C722 C723 1.377 . S
C722 C724 1.384 . S
C723 C722 1.377 . S
C723 C729 1.390 . S
C724 H715 0.930 . S
C724 C722 1.384 . S
C724 C725 1.372 . S
C725 C724 1.372 . S
C725 C726 1.400 . S
C725 C730 1.490 . S
C726 H716 0.930 . S
C726 C725 1.400 . S
C726 C729 1.386 . S
H727 C743 0.930 . S
H728 C744 0.931 . S
C729 H717 0.929 . S
C729 C723 1.390 . S
C729 C726 1.386 . S
C730 C725 1.490 . S
C730 C732 1.395 . S
C730 C733 1.403 . S
H731 C737 0.930 . S
C732 H718 0.930 . S
C732 C730 1.395 . S
C732 C735 1.403 . S
C733 C730 1.403 . S
C733 C734 1.524 . S
C733 C737 1.400 . S
C734 H719 0.960 . S
C734 H720 0.960 . S
C734 H721 0.960 . S
C734 C733 1.524 . S
C735 C732 1.403 . S
C735 C736 1.392 . S
C735 C739 1.495 . S
C736 C735 1.392 . S
C736 C737 1.385 . S
C736 C738 1.478 . S
C737 H731 0.930 . S
C737 C733 1.400 . S
C737 C736 1.385 . S
C738 C736 1.478 . S
C738 C740 1.381 . S
C738 C744 1.383 . S
C739 C735 1.495 . S
C739 H745 0.959 . S
C739 H746 0.961 . S
C739 H747 0.960 . S
C740 C738 1.381 . S
C740 C741 1.394 . S
C740 H748 0.930 . S
C741 C740 1.394 . S
C741 C742 1.383 . S
C741 H749 0.929 . S
C742 C741 1.383 . S
C742 C743 1.377 . S
C743 H727 0.930 . S
C743 C742 1.377 . S
C743 C744 1.379 . S
C744 H728 0.931 . S
C744 C738 1.383 . S
C744 C743 1.379 . S
H745 C739 0.959 . S
H746 C739 0.961 . S
H747 C739 0.960 . S
H748 C740 0.930 . S
H749 C741 0.929 . S
H750 C758 0.929 . S
H751 C760 0.930 . S
H752 C762 0.930 . S
H753 C765 0.929 . S
H754 C768 0.930 . S
H755 C770 0.960 . S
H756 C770 0.960 . S
H757 C770 0.960 . S
C758 H750 0.929 . S
C758 C759 1.377 . S
C758 C760 1.384 . S
C759 C758 1.377 . S
C759 C765 1.390 . S
C760 H751 0.930 . S
C760 C758 1.384 . S
C760 C761 1.372 . S
C761 C760 1.372 . S
C761 C762 1.400 . S
C761 C766 1.490 . S
C762 H752 0.930 . S
C762 C761 1.400 . S
C762 C765 1.386 . S
H763 C779 0.930 . S
H764 C780 0.931 . S
C765 H753 0.929 . S
C765 C759 1.390 . S
C765 C762 1.386 . S
C766 C761 1.490 . S
C766 C768 1.395 . S
C766 C769 1.403 . S
H767 C773 0.930 . S
C768 H754 0.930 . S
C768 C766 1.395 . S
C768 C771 1.403 . S
C769 C766 1.403 . S
C769 C770 1.524 . S
C769 C773 1.400 . S
C770 H755 0.960 . S
C770 H756 0.960 . S
C770 H757 0.960 . S
C770 C769 1.524 . S
C771 C768 1.403 . S
C771 C772 1.392 . S
C771 C775 1.495 . S
C772 C771 1.392 . S
C772 C773 1.385 . S
C772 C774 1.478 . S
C773 H767 0.930 . S
C773 C769 1.400 . S
C773 C772 1.385 . S
C774 C772 1.478 . S
C774 C776 1.381 . S
C774 C780 1.383 . S
C775 C771 1.495 . S
C775 H781 0.959 . S
C775 H782 0.961 . S
C775 H783 0.960 . S
C776 C774 1.381 . S
C776 C777 1.394 . S
C776 H784 0.930 . S
C777 C776 1.394 . S
C777 C778 1.383 . S
C777 H785 0.929 . S
C778 C777 1.383 . S
C778 C779 1.377 . S
C779 H763 0.930 . S
C779 C778 1.377 . S
C779 C780 1.379 . S
C780 H764 0.931 . S
C780 C774 1.383 . S
C780 C779 1.379 . S
H781 C775 0.959 . S
H782 C775 0.961 . S
H783 C775 0.960 . S
H784 C776 0.930 . S
H785 C777 0.929 . S
C363 C5 1.316 . S
C382 C328 1.301 1_554 S
C399 C64 2.134 . S
C418 C33 2.109 . S
C435 C92 1.380 . S
C454 C123 1.377 . S
C471 C182 2.147 . S
C490 C151 2.154 . S
C507 C210 1.387 . S
C526 C241 1.381 . S
C543 C300 2.148 . S
C562 C269 2.143 . S
C579 C239 1.359 . S
C598 C52 1.482 . S
C615 C298 1.482 . S
C634 C111 1.366 . S
C651 C170 1.507 . S
C670 C3 1.410 . S
C687 C229 1.451 . S
C706 C62 1.501 . S
C723 C288 1.496 . S
C742 C121 1.421 . S
C759 C347 1.472 . S
C778 C180 1.532 . S
