# Generated by pormake.
# Topology yfl, (5)-cn, num edge types: 1
# Building blocks:
#     Node 0, Type 0, BuildingBlock: BEQFEK_clean_sbu_0, # of connection points: 5
#     Node 1, Type 0, BuildingBlock: BEQFEK_clean_sbu_0, # of connection points: 5
#     Node 2, Type 0, BuildingBlock: BEQFEK_clean_sbu_0, # of connection points: 5
#     Node 3, Type 0, BuildingBlock: BEQFEK_clean_sbu_0, # of connection points: 5
#     Node 4, Type 0, BuildingBlock: BEQFEK_clean_sbu_0, # of connection points: 5
#     Node 5, Type 0, BuildingBlock: BEQFEK_clean_sbu_0, # of connection points: 5
#     Node 6, Type 0, BuildingBlock: BEQFEK_clean_sbu_0, # of connection points: 5
#     Node 7, Type 0, BuildingBlock: BEQFEK_clean_sbu_0, # of connection points: 5
#     Node 8, Type 0, BuildingBlock: BEQFEK_clean_sbu_0, # of connection points: 5
#     Node 9, Type 0, BuildingBlock: BEQFEK_clean_sbu_0, # of connection points: 5
#     Node 10, Type 0, BuildingBlock: BEQFEK_clean_sbu_0, # of connection points: 5
#     Node 11, Type 0, BuildingBlock: BEQFEK_clean_sbu_0, # of connection points: 5
#     Node 12, Type 0, BuildingBlock: BEQFEK_clean_sbu_0, # of connection points: 5
#     Node 13, Type 0, BuildingBlock: BEQFEK_clean_sbu_0, # of connection points: 5
#     Node 14, Type 0, BuildingBlock: BEQFEK_clean_sbu_0, # of connection points: 5
#     Node 15, Type 0, BuildingBlock: BEQFEK_clean_sbu_0, # of connection points: 5
#     Edge 16, Type (0, 0), BuildingBlock: OJICUG_clean_linker_0, # of connection points: 2
#     Edge 17, Type (0, 0), BuildingBlock: OJICUG_clean_linker_0, # of connection points: 2
#     Edge 18, Type (0, 0), BuildingBlock: OJICUG_clean_linker_0, # of connection points: 2
#     Edge 19, Type (0, 0), BuildingBlock: OJICUG_clean_linker_0, # of connection points: 2
#     Edge 20, Type (0, 0), BuildingBlock: OJICUG_clean_linker_0, # of connection points: 2
#     Edge 21, Type (0, 0), BuildingBlock: OJICUG_clean_linker_0, # of connection points: 2
#     Edge 22, Type (0, 0), BuildingBlock: OJICUG_clean_linker_0, # of connection points: 2
#     Edge 23, Type (0, 0), BuildingBlock: OJICUG_clean_linker_0, # of connection points: 2
#     Edge 24, Type (0, 0), BuildingBlock: OJICUG_clean_linker_0, # of connection points: 2
#     Edge 25, Type (0, 0), BuildingBlock: OJICUG_clean_linker_0, # of connection points: 2
#     Edge 26, Type (0, 0), BuildingBlock: OJICUG_clean_linker_0, # of connection points: 2
#     Edge 27, Type (0, 0), BuildingBlock: OJICUG_clean_linker_0, # of connection points: 2
#     Edge 28, Type (0, 0), BuildingBlock: OJICUG_clean_linker_0, # of connection points: 2
#     Edge 29, Type (0, 0), BuildingBlock: OJICUG_clean_linker_0, # of connection points: 2
#     Edge 30, Type (0, 0), BuildingBlock: OJICUG_clean_linker_0, # of connection points: 2
#     Edge 31, Type (0, 0), BuildingBlock: OJICUG_clean_linker_0, # of connection points: 2
#     Edge 32, Type (0, 0), BuildingBlock: OJICUG_clean_linker_0, # of connection points: 2
#     Edge 33, Type (0, 0), BuildingBlock: OJICUG_clean_linker_0, # of connection points: 2
#     Edge 34, Type (0, 0), BuildingBlock: OJICUG_clean_linker_0, # of connection points: 2
#     Edge 35, Type (0, 0), BuildingBlock: OJICUG_clean_linker_0, # of connection points: 2
#     Edge 36, Type (0, 0), BuildingBlock: OJICUG_clean_linker_0, # of connection points: 2
#     Edge 37, Type (0, 0), BuildingBlock: OJICUG_clean_linker_0, # of connection points: 2
#     Edge 38, Type (0, 0), BuildingBlock: OJICUG_clean_linker_0, # of connection points: 2
#     Edge 39, Type (0, 0), BuildingBlock: OJICUG_clean_linker_0, # of connection points: 2
#     Edge 40, Type (0, 0), BuildingBlock: OJICUG_clean_linker_0, # of connection points: 2
#     Edge 41, Type (0, 0), BuildingBlock: OJICUG_clean_linker_0, # of connection points: 2
#     Edge 42, Type (0, 0), BuildingBlock: OJICUG_clean_linker_0, # of connection points: 2
#     Edge 43, Type (0, 0), BuildingBlock: OJICUG_clean_linker_0, # of connection points: 2
#     Edge 44, Type (0, 0), BuildingBlock: OJICUG_clean_linker_0, # of connection points: 2
#     Edge 45, Type (0, 0), BuildingBlock: OJICUG_clean_linker_0, # of connection points: 2
#     Edge 46, Type (0, 0), BuildingBlock: OJICUG_clean_linker_0, # of connection points: 2
#     Edge 47, Type (0, 0), BuildingBlock: OJICUG_clean_linker_0, # of connection points: 2
#     Edge 48, Type (0, 0), BuildingBlock: OJICUG_clean_linker_0, # of connection points: 2
#     Edge 49, Type (0, 0), BuildingBlock: OJICUG_clean_linker_0, # of connection points: 2
#     Edge 50, Type (0, 0), BuildingBlock: OJICUG_clean_linker_0, # of connection points: 2
#     Edge 51, Type (0, 0), BuildingBlock: OJICUG_clean_linker_0, # of connection points: 2
#     Edge 52, Type (0, 0), BuildingBlock: OJICUG_clean_linker_0, # of connection points: 2
#     Edge 53, Type (0, 0), BuildingBlock: OJICUG_clean_linker_0, # of connection points: 2
#     Edge 54, Type (0, 0), BuildingBlock: OJICUG_clean_linker_0, # of connection points: 2
#     Edge 55, Type (0, 0), BuildingBlock: OJICUG_clean_linker_0, # of connection points: 2
# Relax obj value: 0.262
# Max RMSD: 0.189
# Mean RMSD: 0.189
data_MOF--net-yfl--node1-BEQFEK_clean_sbu_0--edge1-OJICUG_clean_linker_0
_symmetry_space_group_name_H-M    P1
_symmetry_Int_Tables_number       1
_symmetry_cell_setting            triclinic
loop_
_symmetry_equiv_pos_as_xyz
'x, y, z'
_cell_length_a     22.813689
_cell_length_b     22.824042
_cell_length_c     90.165075
_cell_angle_alpha  89.993678
_cell_angle_beta   90.008533
_cell_angle_gamma 90.012042
loop_
_atom_site_label
_atom_site_type_symbol
_atom_site_fract_x
_atom_site_fract_y
_atom_site_fract_z
_atom_type_partial_charge
Co0 Co 0.98821 0.27285 0.29025 0.0
Co1 Co 0.10278 0.27242 0.30954 0.0
C2 C 0.0167 0.37328 0.30973 0.0
O3 O 0.98139 0.34747 0.301 0.0
O4 O 0.06486 0.34961 0.31364 0.0
C5 C 0.87239 0.29178 0.27882 0.0
O6 O 0.86532 0.32225 0.29105 0.0
C7 C 0.15756 0.26889 0.3386 0.0
C8 C 0.25013 0.24894 0.33356 0.0
C9 C 0.21196 0.25995 0.34522 0.0
N10 N 0.16368 0.26373 0.32385 0.0
N11 N 0.21911 0.25198 0.32087 0.0
C12 C 0.0995 0.27818 0.34596 0.0
H13 H 0.06328 0.26537 0.33842 0.0
H14 H 0.09662 0.25248 0.35639 0.0
H15 H 0.09423 0.32536 0.34861 0.0
C16 C 0.97178 0.15897 0.30436 0.0
N17 N -6e-05 0.21038 0.30327 0.0
N18 N 0.049 0.20816 0.31092 0.0
C19 C 0.05397 0.15431 0.31697 0.0
C20 C 0.00511 0.12139 0.313 0.0
C21 C 0.9173 0.14435 0.29588 0.0
H22 H 0.88536 0.18074 0.29695 0.0
H23 H 0.89708 0.10316 0.29997 0.0
H24 H 0.92832 0.13946 0.28396 0.0
O25 O 0.0548 0.27755 0.27638 0.0
O26 O 0.13762 0.27676 0.28932 0.0
H27 H 0.14759 0.14723 0.31808 0.0
H28 H 0.10899 0.08357 0.325 0.0
C29 C 0.1085 0.13209 0.32431 0.0
H30 H 0.11104 0.15018 0.3357 0.0
H31 H 0.23567 0.24575 0.31019 0.0
O32 O 0.91944 0.26288 0.27707 0.0
C33 C 0.11051 0.27858 0.27696 0.0
Co34 Co 0.2717 0.00095 0.71236 0.0
Co35 Co 0.27098 0.8859 0.69329 0.0
C36 C 0.37195 0.97225 0.69294 0.0
O37 O 0.34622 0.00791 0.70159 0.0
O38 O 0.34824 0.92393 0.68918 0.0
C39 C 0.29007 0.11708 0.72369 0.0
O40 O 0.32042 0.12422 0.71144 0.0
C41 C 0.26155 0.83049 0.66427 0.0
C42 C 0.25887 0.73623 0.66978 0.0
C43 C 0.25885 0.77513 0.65797 0.0
N44 N 0.26257 0.82461 0.67909 0.0
N45 N 0.26073 0.76817 0.68234 0.0
C46 C 0.26802 0.88792 0.65642 0.0
H47 H 0.28346 0.92237 0.66417 0.0
H48 H 0.22496 0.90159 0.65189 0.0
H49 H 0.29904 0.88353 0.647 0.0
C50 C 0.158 0.0174 0.69815 0.0
N51 N 0.20921 0.98893 0.69932 0.0
N52 N 0.20649 0.93936 0.6919 0.0
C53 C 0.15226 0.93407 0.68606 0.0
C54 C 0.11987 0.98355 0.68979 0.0
C55 C 0.14432 0.07309 0.70619 0.0
H56 H 0.18148 0.10408 0.705 0.0
H57 H 0.10374 0.09375 0.70185 0.0
H58 H 0.13869 0.06353 0.71818 0.0
O59 O 0.27664 0.93451 0.72633 0.0
O60 O 0.27541 0.85144 0.71352 0.0
H61 H 0.14939 0.84006 0.68476 0.0
H62 H 0.08052 0.87569 0.68065 0.0
C63 C 0.12882 0.87866 0.67942 0.0
H64 H 0.13934 0.87779 0.66742 0.0
H65 H 0.26191 0.75143 0.6931 0.0
O66 O 0.26153 0.06984 0.72549 0.0
C67 C 0.27754 0.8788 0.72583 0.0
Co68 Co 0.00062 0.71867 0.29007 0.0
Co69 Co 0.88597 0.71953 0.30932 0.0
C70 C 0.97201 0.61837 0.3095 0.0
O71 O 0.00753 0.64406 0.3008 0.0
O72 O 0.92386 0.64217 0.31336 0.0
C73 C 0.1168 0.70039 0.27868 0.0
O74 O 0.12406 0.67007 0.29094 0.0
C75 C 0.83112 0.7292 0.33841 0.0
C76 C 0.73672 0.73223 0.33301 0.0
C77 C 0.77585 0.73219 0.34478 0.0
N78 N 0.82496 0.72807 0.3236 0.0
N79 N 0.76844 0.73011 0.32042 0.0
C80 C 0.88868 0.72261 0.3462 0.0
H81 H 0.92291 0.70687 0.33843 0.0
H82 H 0.90267 0.76566 0.35066 0.0
H83 H 0.88432 0.6918 0.35567 0.0
C84 C 0.01762 0.83229 0.30426 0.0
N85 N 0.98906 0.7811 0.30315 0.0
N86 N 0.93965 0.78388 0.31064 0.0
C87 C 0.93454 0.8381 0.31648 0.0
C88 C 0.98399 0.87044 0.31267 0.0
C89 C 0.07312 0.84594 0.29612 0.0
H90 H 0.10417 0.80884 0.29729 0.0
H91 H 0.09387 0.88656 0.30039 0.0
H92 H 0.06325 0.85142 0.28415 0.0
O93 O 0.93381 0.71405 0.27618 0.0
O94 O 0.85107 0.71529 0.28914 0.0
H95 H 0.84052 0.8411 0.31787 0.0
H96 H 0.87634 0.9099 0.32193 0.0
C97 C 0.87926 0.86162 0.32317 0.0
H98 H 0.87856 0.85114 0.33517 0.0
H99 H 0.75149 0.72894 0.30967 0.0
O100 O 0.06943 0.72873 0.27688 0.0
C101 C 0.87808 0.71324 0.27679 0.0
Co102 Co 0.7174 0.98923 0.71216 0.0
Co103 Co 0.71811 0.10312 0.69262 0.0
C104 C 0.617 0.0174 0.6926 0.0
O105 O 0.64271 0.98244 0.70143 0.0
O106 O 0.64077 0.06534 0.68856 0.0
C107 C 0.69836 0.87342 0.72359 0.0
O108 O 0.66798 0.86635 0.71134 0.0
C109 C 0.72207 0.15732 0.6635 0.0
C110 C 0.74252 0.24983 0.66846 0.0
C111 C 0.73143 0.21153 0.65682 0.0
N112 N 0.7271 0.16367 0.67825 0.0
N113 N 0.73913 0.21907 0.68118 0.0
C114 C 0.71257 0.0992 0.65619 0.0
H115 H 0.72504 0.06307 0.66379 0.0
H116 H 0.73844 0.096 0.6458 0.0
H117 H 0.66539 0.09416 0.6535 0.0
C118 C 0.83117 0.97201 0.69805 0.0
N119 N 0.77985 0.00035 0.69909 0.0
N120 N 0.78221 0.04914 0.69134 0.0
C121 C 0.83609 0.05376 0.68528 0.0
C122 C 0.86886 0.00494 0.68934 0.0
C123 C 0.84564 0.91777 0.70663 0.0
H124 H 0.80922 0.88583 0.70558 0.0
H125 H 0.88688 0.89741 0.70262 0.0
H126 H 0.85037 0.92908 0.71854 0.0
O127 O 0.71311 0.0562 0.72593 0.0
O128 O 0.7139 0.13846 0.71278 0.0
H129 H 0.84353 0.14728 0.68401 0.0
H130 H 0.90706 0.10831 0.67716 0.0
C131 C 0.85852 0.10799 0.67785 0.0
H132 H 0.84044 0.11028 0.66645 0.0
H133 H 0.74536 0.23577 0.69184 0.0
O134 O 0.72709 0.92055 0.72538 0.0
C135 C 0.71218 0.11186 0.7252 0.0
Co136 Co 0.98804 0.21623 0.96176 0.0
Co137 Co 0.10376 0.21732 0.94295 0.0
C138 C 0.01811 0.11578 0.94256 0.0
O139 O 0.98194 0.14157 0.95106 0.0
O140 O 0.06646 0.13964 0.93888 0.0
C141 C 0.8722 0.19624 0.97306 0.0
O142 O 0.8659 0.16495 0.96093 0.0
C143 C 0.15962 0.22736 0.91402 0.0
C144 C 0.25385 0.23029 0.9196 0.0
C145 C 0.21506 0.23047 0.90776 0.0
N146 N 0.16533 0.22599 0.92884 0.0
N147 N 0.22176 0.22795 0.93213 0.0
C148 C 0.10227 0.22092 0.90612 0.0
H149 H 0.06787 0.20481 0.9138 0.0
H150 H 0.08832 0.2641 0.90173 0.0
H151 H 0.10694 0.19046 0.89659 0.0
C152 C 0.97173 0.32986 0.94759 0.0
N153 N 0.00013 0.27862 0.94872 0.0
N154 N 0.04999 0.28153 0.94142 0.0
C155 C 0.05553 0.33591 0.9357 0.0
C156 C 0.00592 0.36822 0.93938 0.0
C157 C 0.91602 0.3435 0.95563 0.0
H158 H 0.88495 0.30644 0.9544 0.0
H159 H 0.89547 0.38419 0.95134 0.0
H160 H 0.92558 0.34892 0.96763 0.0
O161 O 0.0541 0.21182 0.97586 0.0
O162 O 0.13766 0.21345 0.96324 0.0
H163 H 0.14964 0.33903 0.93478 0.0
H164 H 0.11409 0.40786 0.93059 0.0
C165 C 0.11131 0.35959 0.9293 0.0
H166 H 0.11297 0.34925 0.9173 0.0
H167 H 0.23838 0.22661 0.94291 0.0
O168 O 0.91872 0.22605 0.97476 0.0
C169 C 0.10986 0.21127 0.97549 0.0
Co170 Co 0.21633 -0.00043 0.0407 0.0
Co171 Co 0.21879 0.88587 0.06034 0.0
C172 C 0.11627 0.96948 0.06037 0.0
O173 O 0.14161 0.00462 0.05149 0.0
O174 O 0.14051 0.92184 0.06447 0.0
C175 C 0.19537 0.11531 0.02936 0.0
O176 O 0.16442 0.12172 0.04154 0.0
C177 C 0.217 0.82538 0.08883 0.0
C178 C 0.26596 0.74396 0.08413 0.0
C179 C 0.23846 0.7749 0.09536 0.0
N180 N 0.231 0.82449 0.07436 0.0
N181 N 0.25957 0.77531 0.07157 0.0
C182 C 0.18829 0.87611 0.0964 0.0
H183 H 0.20098 0.9177 0.09089 0.0
H184 H 0.20028 0.87773 0.10833 0.0
H185 H 0.14002 0.87122 0.0955 0.0
C186 C 0.32973 0.01899 0.05481 0.0
N187 N 0.27889 0.98973 0.05377 0.0
N188 N 0.28165 0.94159 0.06177 0.0
C189 C 0.33521 0.93865 0.06811 0.0
C190 C 0.36751 0.98752 0.06383 0.0
C191 C 0.34386 0.07256 0.04593 0.0
H192 H 0.30755 0.10461 0.04695 0.0
H193 H 0.38533 0.09318 0.04971 0.0
H194 H 0.34789 0.06037 0.03406 0.0
O195 O 0.21324 0.93293 0.02686 0.0
O196 O 0.2151 0.85094 0.04009 0.0
H197 H 0.35471 0.84712 0.06865 0.0
H198 H 0.40443 0.89132 0.07949 0.0
C199 C 0.3581 0.8858 0.07604 0.0
H200 H 0.331 0.87752 0.08603 0.0
H201 H 0.27644 0.76411 0.06119 0.0
O202 O 0.22479 0.06863 0.02757 0.0
C203 C 0.21305 0.8773 0.02764 0.0
Co204 Co 0.00089 0.77051 0.96283 0.0
Co205 Co 0.88716 0.77011 0.94321 0.0
C206 C 0.9735 0.87069 0.94312 0.0
O207 O 0.00828 0.84506 0.95202 0.0
O208 O 0.9255 0.84701 0.93909 0.0
C209 C 0.11712 0.78832 0.9742 0.0
O210 O 0.12472 0.81788 0.96185 0.0
C211 C 0.83312 0.76672 0.91406 0.0
C212 C 0.74043 0.74672 0.91897 0.0
C213 C 0.77887 0.75784 0.90736 0.0
N214 N 0.82667 0.76142 0.9288 0.0
N215 N 0.77117 0.74963 0.9317 0.0
C216 C 0.89135 0.77612 0.90679 0.0
H217 H 0.92739 0.76316 0.91437 0.0
H218 H 0.89443 0.7506 0.89634 0.0
H219 H 0.89671 0.82334 0.90421 0.0
C220 C 0.01781 0.65658 0.94872 0.0
N221 N 0.98954 0.70793 0.9498 0.0
N222 N 0.94085 0.70579 0.94199 0.0
C223 C 0.93623 0.65208 0.93585 0.0
C224 C 0.98495 0.61916 0.93991 0.0
C225 C 0.07212 0.64196 0.95726 0.0
H226 H 0.1041 0.67834 0.95622 0.0
H227 H 0.09242 0.60077 0.95321 0.0
H228 H 0.06089 0.63713 0.96917 0.0
O229 O 0.93377 0.77534 0.97656 0.0
O230 O 0.85163 0.77476 0.96335 0.0
H231 H 0.84268 0.6451 0.93435 0.0
H232 H 0.8816 0.58147 0.92757 0.0
C233 C 0.88214 0.62999 0.92828 0.0
H234 H 0.88036 0.64815 0.91688 0.0
H235 H 0.75436 0.74332 0.94235 0.0
O236 O 0.06946 0.76055 0.9761 0.0
C237 C 0.87809 0.77652 0.97579 0.0
Co238 Co 0.77076 0.98734 0.04066 0.0
Co239 Co 0.77134 0.1028 0.05955 0.0
C240 C 0.87134 0.01527 0.06006 0.0
O241 O 0.84521 0.97971 0.05146 0.0
O242 O 0.84814 0.06392 0.06374 0.0
C243 C 0.78849 0.87113 0.02938 0.0
O244 O 0.81881 0.86398 0.04164 0.0
C245 C 0.76208 0.1587 0.08851 0.0
C246 C 0.7604 0.25291 0.08293 0.0
C247 C 0.75968 0.21417 0.09477 0.0
N248 N 0.76357 0.16439 0.07369 0.0
N249 N 0.76235 0.22081 0.0704 0.0
C250 C 0.76766 0.10127 0.09641 0.0
H251 H 0.78366 0.06677 0.08875 0.0
H252 H 0.72415 0.08772 0.10067 0.0
H253 H 0.79785 0.10556 0.106 0.0
C254 C 0.6566 0.97275 0.05479 0.0
N255 N 0.70827 0.00042 0.05365 0.0
N256 N 0.70612 0.05027 0.06096 0.0
C257 C 0.65183 0.05659 0.06669 0.0
C258 C 0.61874 0.00749 0.06301 0.0
C259 C 0.64245 0.91678 0.04692 0.0
H260 H 0.6795 0.88568 0.04814 0.0
H261 H 0.6019 0.8965 0.05139 0.0
H262 H 0.63654 0.92585 0.03492 0.0
O263 O 0.77646 0.05349 0.02661 0.0
O264 O 0.77611 0.13684 0.0393 0.0
H265 H 0.65067 0.15067 0.06783 0.0
H266 H 0.58094 0.11646 0.07173 0.0
C267 C 0.62908 0.1126 0.07316 0.0
H268 H 0.63891 0.11358 0.0852 0.0
H269 H 0.76392 0.2374 0.05962 0.0
O270 O 0.75995 0.91836 0.02758 0.0
C271 C 0.77791 0.10921 0.02703 0.0
Co272 Co 0.48924 0.77271 0.7909 0.0
Co273 Co 0.60447 0.77181 0.80992 0.0
C274 C 0.51858 0.87311 0.81021 0.0
O275 O 0.48273 0.84732 0.80162 0.0
O276 O 0.56685 0.84932 0.81398 0.0
C277 C 0.37316 0.7918 0.77961 0.0
O278 O 0.36646 0.82256 0.79181 0.0
C279 C 0.65989 0.76185 0.83892 0.0
C280 C 0.7542 0.75896 0.83343 0.0
C281 C 0.71526 0.75878 0.84523 0.0
N282 N 0.6658 0.76321 0.8241 0.0
N283 N 0.72226 0.76127 0.82087 0.0
C284 C 0.60244 0.76826 0.84677 0.0
H285 H 0.56814 0.78434 0.83906 0.0
H286 H 0.58843 0.72506 0.85114 0.0
H287 H 0.60698 0.79871 0.8563 0.0
C288 C 0.47269 0.65904 0.80507 0.0
N289 N 0.50113 0.71028 0.80396 0.0
N290 N 0.5508 0.70746 0.81134 0.0
C291 C 0.5562 0.65312 0.8171 0.0
C292 C 0.50667 0.62076 0.81335 0.0
C293 C 0.41704 0.6454 0.79699 0.0
H294 H 0.38598 0.68246 0.79821 0.0
H295 H 0.39642 0.60472 0.80127 0.0
H296 H 0.42669 0.63999 0.785 0.0
O297 O 0.55563 0.77729 0.7769 0.0
O298 O 0.63882 0.77594 0.78968 0.0
H299 H 0.65028 0.65018 0.81823 0.0
H300 H 0.61469 0.58127 0.82232 0.0
C301 C 0.61179 0.62953 0.82362 0.0
H302 H 0.61301 0.63981 0.83563 0.0
H303 H 0.73903 0.7626 0.81011 0.0
O304 O 0.4201 0.76275 0.77782 0.0
C305 C 0.61138 0.77804 0.77738 0.0
Co306 Co 0.77114 0.50249 0.21176 0.0
Co307 Co 0.77158 0.38803 0.19246 0.0
C308 C 0.87163 0.47518 0.19217 0.0
O309 O 0.84563 0.51013 0.20095 0.0
O310 O 0.84832 0.42684 0.18827 0.0
C311 C 0.78929 0.61851 0.2231 0.0
O312 O 0.81942 0.62571 0.21082 0.0
C313 C 0.76807 0.33327 0.16342 0.0
C314 C 0.74929 0.24051 0.1685 0.0
C315 C 0.75961 0.27881 0.15682 0.0
N316 N 0.76331 0.32709 0.17818 0.0
N317 N 0.75226 0.27154 0.18118 0.0
C318 C 0.77653 0.3914 0.15603 0.0
H319 H 0.76323 0.42745 0.16357 0.0
H320 H 0.75077 0.39385 0.14561 0.0
H321 H 0.82365 0.39731 0.15338 0.0
C322 C 0.65677 0.51769 0.19774 0.0
N323 N 0.7085 0.49009 0.19879 0.0
N324 N 0.70661 0.44093 0.19119 0.0
C325 C 0.65263 0.4352 0.18524 0.0
C326 C 0.61923 0.48373 0.18921 0.0
C327 C 0.64222 0.57274 0.20596 0.0
H328 H 0.67887 0.60438 0.20486 0.0
H329 H 0.60131 0.59298 0.2017 0.0
H330 H 0.63682 0.56249 0.21791 0.0
O331 O 0.77656 0.43587 0.22564 0.0
O332 O 0.77647 0.35321 0.21266 0.0
H333 H 0.6475 0.34149 0.1841 0.0
H334 H 0.58235 0.37862 0.17762 0.0
C335 C 0.63092 0.38028 0.178 0.0
H336 H 0.64794 0.37829 0.16649 0.0
H337 H 0.74645 0.25492 0.19186 0.0
O338 O 0.76078 0.57126 0.22493 0.0
C339 C 0.77809 0.38018 0.22502 0.0
Co340 Co 0.50132 0.21846 0.7903 0.0
Co341 Co 0.3875 0.21887 0.80986 0.0
C342 C 0.4737 0.11817 0.80994 0.0
O343 O 0.5086 0.14387 0.80108 0.0
O344 O 0.42568 0.14183 0.81396 0.0
C345 C 0.61729 0.20037 0.77884 0.0
O346 O 0.62486 0.17044 0.79114 0.0
C347 C 0.33333 0.22226 0.83899 0.0
C348 C 0.24074 0.24254 0.83405 0.0
C349 C 0.27909 0.23129 0.84567 0.0
N350 N 0.32696 0.2276 0.82424 0.0
N351 N 0.27151 0.23955 0.82133 0.0
C352 C 0.3915 0.21272 0.84628 0.0
H353 H 0.42762 0.22558 0.8387 0.0
H354 H 0.39462 0.23823 0.85672 0.0
H355 H 0.3967 0.16548 0.84887 0.0
C356 C 0.51831 0.33232 0.80441 0.0
N357 N 0.49001 0.28098 0.80334 0.0
N358 N 0.44126 0.28316 0.81112 0.0
C359 C 0.43663 0.33691 0.81724 0.0
C360 C 0.4854 0.36981 0.81318 0.0
C361 C 0.57262 0.34691 0.79587 0.0
H362 H 0.60457 0.31051 0.79691 0.0
H363 H 0.59296 0.3881 0.79993 0.0
H364 H 0.56138 0.35177 0.78396 0.0
O365 O 0.43428 0.21369 0.77655 0.0
O366 O 0.35202 0.21433 0.78971 0.0
H367 H 0.34309 0.34409 0.81864 0.0
H368 H 0.38209 0.40757 0.82551 0.0
C369 C 0.3825 0.35906 0.82476 0.0
H370 H 0.38049 0.34079 0.83614 0.0
H371 H 0.25478 0.24595 0.81068 0.0
O372 O 0.5698 0.22849 0.77703 0.0
C373 C 0.3786 0.21255 0.77728 0.0
Co374 Co 0.2166 0.49092 0.21185 0.0
Co375 Co 0.21898 0.60513 0.19241 0.0
C376 C 0.1166 0.52105 0.19221 0.0
O377 O 0.14194 0.48562 0.20102 0.0
O378 O 0.1408 0.56889 0.18824 0.0
C379 C 0.19645 0.37499 0.22323 0.0
O380 O 0.16559 0.36822 0.21104 0.0
C381 C 0.21732 0.66548 0.16391 0.0
C382 C 0.26524 0.74749 0.16866 0.0
C383 C 0.23839 0.71618 0.15739 0.0
N384 N 0.23094 0.66661 0.1784 0.0
N385 N 0.2589 0.71613 0.18123 0.0
C386 C 0.18953 0.61429 0.15631 0.0
H387 H 0.20167 0.57299 0.16203 0.0
H388 H 0.20285 0.61211 0.14448 0.0
H389 H 0.14118 0.61915 0.15683 0.0
C390 C 0.33003 0.47197 0.1977 0.0
N391 N 0.27923 0.50123 0.19881 0.0
N392 N 0.28204 0.54969 0.19095 0.0
C393 C 0.33564 0.55295 0.18465 0.0
C394 C 0.36791 0.50387 0.18879 0.0
C395 C 0.34385 0.41769 0.20632 0.0
H396 H 0.30715 0.3861 0.20525 0.0
H397 H 0.38494 0.39687 0.20237 0.0
H398 H 0.34847 0.42905 0.21823 0.0
O399 O 0.21311 0.55741 0.22574 0.0
O400 O 0.21511 0.6398 0.21267 0.0
H401 H 0.35405 0.64473 0.18429 0.0
H402 H 0.40515 0.6014 0.17366 0.0
C403 C 0.35851 0.60622 0.17688 0.0
H404 H 0.33207 0.61432 0.16677 0.0
H405 H 0.27536 0.72759 0.19163 0.0
O406 O 0.22547 0.42195 0.225 0.0
C407 C 0.21288 0.61306 0.22507 0.0
Co408 Co 0.49103 0.71898 0.4624 0.0
Co409 Co 0.60479 0.71949 0.44282 0.0
C410 C 0.51846 0.61883 0.44271 0.0
O411 O 0.48362 0.64448 0.4516 0.0
O412 O 0.56648 0.64251 0.4387 0.0
C413 C 0.37508 0.70089 0.47388 0.0
O414 O 0.36743 0.67112 0.46156 0.0
C415 C 0.6587 0.72312 0.41366 0.0
C416 C 0.75141 0.74311 0.41855 0.0
C417 C 0.71291 0.73209 0.40695 0.0
N418 N 0.66523 0.72827 0.4284 0.0
N419 N 0.72075 0.74005 0.43129 0.0
C420 C 0.60043 0.71379 0.4064 0.0
H421 H 0.56443 0.72663 0.41401 0.0
H422 H 0.59727 0.73945 0.39598 0.0
H423 H 0.59508 0.6666 0.40378 0.0
C424 C 0.47402 0.83292 0.44833 0.0
N425 N 0.50235 0.7816 0.44939 0.0
N426 N 0.55108 0.78384 0.44161 0.0
C427 C 0.55567 0.83761 0.43549 0.0
C428 C 0.50689 0.87045 0.43955 0.0
C429 C 0.41963 0.84738 0.45685 0.0
H430 H 0.38777 0.8109 0.45581 0.0
H431 H 0.39922 0.8885 0.45278 0.0
H432 H 0.43081 0.8523 0.46876 0.0
O433 O 0.55814 0.71405 0.47613 0.0
O434 O 0.64037 0.71475 0.46296 0.0
H435 H 0.64922 0.84462 0.43401 0.0
H436 H 0.61028 0.90833 0.42727 0.0
C437 C 0.60975 0.85981 0.42795 0.0
H438 H 0.61154 0.8418 0.41654 0.0
H439 H 0.73761 0.74627 0.44194 0.0
O440 O 0.42262 0.72893 0.47571 0.0
C441 C 0.61382 0.71288 0.47539 0.0
Co442 Co 0.72044 0.50089 0.5403 0.0
Co443 Co 0.72108 0.38575 0.55934 0.0
C444 C 0.62019 0.47217 0.55971 0.0
O445 O 0.64594 0.50788 0.55108 0.0
O446 O 0.64385 0.42382 0.56345 0.0
C447 C 0.7022 0.61705 0.52896 0.0
O448 O 0.67185 0.6242 0.54121 0.0
C449 C 0.7305 0.33041 0.58837 0.0
C450 C 0.73299 0.23613 0.58289 0.0
C451 C 0.73312 0.27507 0.59469 0.0
N452 N 0.72942 0.32448 0.57355 0.0
N453 N 0.73115 0.26802 0.57032 0.0
C454 C 0.72417 0.38788 0.59621 0.0
H455 H 0.70874 0.42231 0.58845 0.0
H456 H 0.76728 0.40152 0.60071 0.0
H457 H 0.6932 0.38357 0.60564 0.0
C458 C 0.83418 0.51722 0.5545 0.0
N459 N 0.78294 0.48879 0.55333 0.0
N460 N 0.78563 0.43917 0.56074 0.0
C461 C 0.83986 0.43382 0.56657 0.0
C462 C 0.87229 0.48331 0.56285 0.0
C463 C 0.84789 0.57296 0.54648 0.0
H464 H 0.81074 0.60394 0.54768 0.0
H465 H 0.88847 0.59359 0.55083 0.0
H466 H 0.85354 0.56346 0.53449 0.0
O467 O 0.71542 0.43449 0.52633 0.0
O468 O 0.7166 0.35134 0.53911 0.0
H469 H 0.84259 0.3398 0.56785 0.0
H470 H 0.91155 0.37535 0.57193 0.0
C471 C 0.86327 0.37836 0.57319 0.0
H472 H 0.85284 0.37747 0.58519 0.0
H473 H 0.7299 0.25124 0.55956 0.0
O474 O 0.7307 0.56979 0.52716 0.0
C475 C 0.71448 0.37877 0.52681 0.0
Co476 Co 0.50275 0.27331 0.46163 0.0
Co477 Co 0.38756 0.27242 0.44259 0.0
C478 C 0.47344 0.37378 0.44234 0.0
O479 O 0.50927 0.34797 0.45093 0.0
O480 O 0.42518 0.34998 0.43855 0.0
C481 C 0.61879 0.2924 0.47297 0.0
O482 O 0.62554 0.32331 0.4608 0.0
C483 C 0.33198 0.2627 0.41358 0.0
C484 C 0.23772 0.25973 0.41912 0.0
C485 C 0.27656 0.25974 0.4073 0.0
N486 N 0.32619 0.26384 0.4284 0.0
N487 N 0.26975 0.26183 0.43167 0.0
C488 C 0.38937 0.26925 0.40571 0.0
H489 H 0.42375 0.28515 0.41342 0.0
H490 H 0.40329 0.22613 0.40128 0.0
H491 H 0.38478 0.2999 0.39622 0.0
C492 C 0.5193 0.15968 0.44746 0.0
N493 N 0.49089 0.21093 0.44856 0.0
N494 N 0.44125 0.2081 0.44116 0.0
C495 C 0.43585 0.15376 0.43541 0.0
C496 C 0.48533 0.12139 0.43918 0.0
C497 C 0.57486 0.14601 0.45558 0.0
H498 H 0.60599 0.18303 0.45436 0.0
H499 H 0.59545 0.10529 0.45132 0.0
H500 H 0.5651 0.14066 0.46756 0.0
O501 O 0.43634 0.27779 0.47562 0.0
O502 O 0.35318 0.27647 0.46283 0.0
H503 H 0.34178 0.15066 0.43429 0.0
H504 H 0.37747 0.08191 0.43009 0.0
C505 C 0.38029 0.1302 0.42886 0.0
H506 H 0.37901 0.1408 0.41687 0.0
H507 H 0.25306 0.26302 0.44244 0.0
O508 O 0.57184 0.26331 0.47472 0.0
C509 C 0.3806 0.27852 0.47513 0.0
Co510 Co 0.27477 0.48927 0.54046 0.0
Co511 Co 0.27408 0.603 0.56005 0.0
C512 C 0.37515 0.5173 0.56006 0.0
O513 O 0.34945 0.48241 0.5512 0.0
O514 O 0.35138 0.5652 0.56411 0.0
C515 C 0.29377 0.37355 0.52897 0.0
O516 O 0.32418 0.36636 0.54121 0.0
C517 C 0.27003 0.65717 0.58919 0.0
C518 C 0.24963 0.74967 0.58421 0.0
C519 C 0.26067 0.71138 0.59585 0.0
N520 N 0.26505 0.66351 0.57443 0.0
N521 N 0.25305 0.7189 0.5715 0.0
C522 C 0.2795 0.59906 0.5965 0.0
H523 H 0.26707 0.56291 0.58889 0.0
H524 H 0.25358 0.59584 0.60688 0.0
H525 H 0.32667 0.59403 0.59921 0.0
C526 C 0.161 0.4719 0.55456 0.0
N527 N 0.21231 0.50028 0.55353 0.0
N528 N 0.20995 0.549 0.56131 0.0
C529 C 0.15608 0.55355 0.56737 0.0
C530 C 0.12331 0.50474 0.56329 0.0
C531 C 0.14654 0.41771 0.54597 0.0
H532 H 0.18296 0.38579 0.547 0.0
H533 H 0.1053 0.39731 0.54997 0.0
H534 H 0.1418 0.4291 0.53406 0.0
O535 O 0.27911 0.55633 0.52672 0.0
O536 O 0.27836 0.63848 0.53991 0.0
H537 H 0.14865 0.64705 0.5687 0.0
H538 H 0.08511 0.60799 0.57552 0.0
C539 C 0.13365 0.60769 0.57483 0.0
H540 H 0.15172 0.60988 0.58624 0.0
H541 H 0.24686 0.7356 0.56083 0.0
O542 O 0.26506 0.4207 0.5272 0.0
C543 C 0.28008 0.61199 0.52747 0.0
C544 C 0.11611 0.27503 0.24939 0.0
C545 C 0.14253 0.28948 0.263 0.0
H546 H 0.11358 0.28948 0.226 0.0
C547 C 0.19425 0.32281 0.26295 0.0
H548 H 0.07659 0.2487 0.24909 0.0
C549 C 0.21525 0.34677 0.24969 0.0
C550 C 0.18512 0.33722 0.23626 0.0
H551 H 0.21564 0.33448 0.27327 0.0
H552 H 0.2526 0.37603 0.25012 0.0
C553 C 0.13744 0.29831 0.23614 0.0
C554 C 0.29736 0.85186 0.76667 0.0
C555 C 0.33559 0.80364 0.76656 0.0
H556 H 0.24859 0.91338 0.75373 0.0
C557 C 0.34481 0.77348 0.75313 0.0
H558 H 0.28881 0.87579 0.77682 0.0
C559 C 0.32114 0.7948 0.73987 0.0
C560 C 0.28846 0.84693 0.73982 0.0
H561 H 0.37358 0.73576 0.75271 0.0
H562 H 0.33248 0.77324 0.72956 0.0
C563 C 0.27441 0.87355 0.75342 0.0
C564 C 0.84973 0.69414 0.23598 0.0
C565 C 0.80152 0.65587 0.23616 0.0
H566 H 0.91171 0.7427 0.24884 0.0
C567 C 0.77184 0.64636 0.24964 0.0
H568 H 0.87331 0.7029 0.22579 0.0
C569 C 0.79362 0.6698 0.26289 0.0
C570 C 0.84575 0.70252 0.26285 0.0
H571 H 0.73415 0.61754 0.25012 0.0
H572 H 0.77242 0.65825 0.27323 0.0
C573 C 0.87189 0.71685 0.24921 0.0
C574 C 0.6937 0.1409 0.76598 0.0
C575 C 0.65471 0.1885 0.76577 0.0
H576 H 0.74293 0.07942 0.75314 0.0
C577 C 0.64464 0.21783 0.75227 0.0
H578 H 0.70292 0.11763 0.77618 0.0
C579 C 0.66819 0.19616 0.73902 0.0
C580 C 0.7016 0.14452 0.73909 0.0
H581 H 0.61528 0.25508 0.75177 0.0
H582 H 0.65615 0.21696 0.72866 0.0
C583 C 0.71655 0.11886 0.75275 0.0
C584 C 0.21461 0.14447 0.00299 0.0
C585 C 0.18371 0.15306 0.01634 0.0
H586 H 0.21585 0.15737 0.97944 0.0
C587 C 0.13514 0.19084 0.01637 0.0
H588 H 0.25263 0.11608 0.00263 0.0
C589 C 0.11388 0.21395 0.00309 0.0
C590 C 0.14126 0.20046 0.98955 0.0
H591 H 0.11065 0.19889 0.02646 0.0
H592 H 0.07379 0.23938 0.00332 0.0
C593 C 0.1937 0.16828 0.9897 0.0
C594 C 0.14503 0.77102 1.00075 0.0
C595 C 0.1549 0.80019 0.98722 0.0
H596 H 0.157 0.77214 0.02434 0.0
C597 C 0.19407 0.84765 0.98693 0.0
H598 H 0.11554 0.73388 0.00131 0.0
C599 C 0.21726 0.86977 1.00011 0.0
C600 C 0.2025 0.84432 0.0138 0.0
H601 H 0.20314 0.8708 0.97669 0.0
H602 H 0.24371 0.90918 0.99966 0.0
C603 C 0.16895 0.79275 0.01395 0.0
C604 C 0.8707 0.77226 0.00333 0.0
C605 C 0.84526 0.78722 0.98965 0.0
H606 H 0.87146 0.78568 0.02677 0.0
C607 C 0.79354 0.82054 0.98954 0.0
H608 H 0.91018 0.74592 0.00376 0.0
C609 C 0.77155 0.84394 0.00277 0.0
C610 C 0.80064 0.83382 0.0163 0.0
H611 H 0.77289 0.83258 0.97915 0.0
H612 H 0.73425 0.87323 0.00223 0.0
C613 C 0.84835 0.79495 0.01654 0.0
C614 C 0.8209 0.19322 0.01285 0.0
C615 C 0.78876 0.14075 0.01298 0.0
H616 H 0.87246 0.25266 0.99991 0.0
C617 C 0.77481 0.11374 0.99942 0.0
H618 H 0.8321 0.21511 0.02313 0.0
C619 C 0.79733 0.13548 0.98613 0.0
C620 C 0.83499 0.18415 0.98616 0.0
H621 H 0.74936 0.07367 0.99917 0.0
H622 H 0.78887 0.11129 0.97601 0.0
C623 C 0.84411 0.21461 0.99954 0.0
C624 C 0.69541 0.82149 0.76333 0.0
C625 C 0.64322 0.78887 0.76338 0.0
H626 H 0.75449 0.87385 0.75047 0.0
C627 C 0.61651 0.77484 0.74979 0.0
H628 H 0.71703 0.83281 0.77363 0.0
C629 C 0.63819 0.79775 0.73653 0.0
C630 C 0.68648 0.83592 0.73664 0.0
H631 H 0.57662 0.74908 0.74949 0.0
H632 H 0.61419 0.78924 0.72639 0.0
C633 C 0.71671 0.84513 0.75006 0.0
C634 C 0.77423 0.37404 0.25259 0.0
C635 C 0.78887 0.34795 0.23897 0.0
H636 H 0.78779 0.37552 0.27603 0.0
C637 C 0.82176 0.29597 0.23897 0.0
H638 H 0.7482 0.41372 0.25293 0.0
C639 C 0.84504 0.27427 0.25224 0.0
C640 C 0.83522 0.30392 0.26571 0.0
H641 H 0.83353 0.27481 0.22864 0.0
H642 H 0.87397 0.23668 0.2518 0.0
C643 C 0.7968 0.35198 0.26585 0.0
C644 C 0.34952 0.19363 0.73652 0.0
C645 C 0.30193 0.1546 0.73675 0.0
H646 H 0.41099 0.24304 0.74933 0.0
C647 C 0.27262 0.1446 0.75026 0.0
H648 H 0.37277 0.20281 0.72631 0.0
C649 C 0.2943 0.16827 0.76349 0.0
C650 C 0.34593 0.20174 0.7634 0.0
H651 H 0.23538 0.11521 0.75077 0.0
H652 H 0.27352 0.15629 0.77386 0.0
C653 C 0.37156 0.2166 0.74973 0.0
C654 C 0.16865 0.69713 0.23893 0.0
C655 C 0.2022 0.64558 0.23897 0.0
H656 H 0.11524 0.75562 0.25167 0.0
C657 C 0.2169 0.61969 0.25262 0.0
H658 H 0.15676 0.71808 0.22857 0.0
C659 C 0.19367 0.64139 0.26584 0.0
C660 C 0.15453 0.68887 0.26564 0.0
H661 H 0.24335 0.58028 0.25299 0.0
H662 H 0.20272 0.61792 0.27603 0.0
C663 C 0.14471 0.71846 0.25216 0.0
C664 C 0.64296 0.69378 0.51614 0.0
C665 C 0.69041 0.6546 0.51591 0.0
H666 H 0.58163 0.74341 0.50335 0.0
C667 C 0.71965 0.64453 0.50239 0.0
H668 H 0.61978 0.70301 0.52636 0.0
C669 C 0.69801 0.6683 0.48916 0.0
C670 C 0.6465 0.70194 0.48926 0.0
H671 H 0.75678 0.61503 0.50186 0.0
H672 H 0.71871 0.65628 0.47879 0.0
C673 C 0.62096 0.71685 0.50293 0.0
C674 C 0.6947 0.35218 0.48595 0.0
C675 C 0.65633 0.30406 0.48604 0.0
H676 H 0.74362 0.41347 0.49893 0.0
C677 C 0.64699 0.27382 0.49945 0.0
H678 H 0.70335 0.37617 0.47582 0.0
C679 C 0.67069 0.29498 0.51273 0.0
C680 C 0.70352 0.34702 0.5128 0.0
H681 H 0.61811 0.23617 0.49985 0.0
H682 H 0.65925 0.27337 0.52303 0.0
C683 C 0.71769 0.37371 0.49922 0.0
C684 C 0.35378 0.29789 0.51599 0.0
C685 C 0.30558 0.33615 0.5159 0.0
H686 H 0.41525 0.24922 0.50301 0.0
C687 C 0.27538 0.34553 0.50249 0.0
H688 H 0.37775 0.28924 0.52613 0.0
C689 C 0.29663 0.32196 0.4892 0.0
C690 C 0.34875 0.28925 0.48913 0.0
H691 H 0.23767 0.37432 0.50208 0.0
H692 H 0.27504 0.33342 0.4789 0.0
C693 C 0.37542 0.27505 0.50272 0.0
C694 C 0.27572 0.61925 0.49993 0.0
C695 C 0.29072 0.64476 0.5136 0.0
H696 H 0.28932 0.61822 0.4765 0.0
C697 C 0.32422 0.69636 0.5137 0.0
H698 H 0.24927 0.57984 0.49952 0.0
C699 C 0.3478 0.71812 0.50047 0.0
C700 C 0.33766 0.68893 0.48695 0.0
H701 H 0.3363 0.71704 0.52407 0.0
H702 H 0.37722 0.75532 0.50099 0.0
C703 C 0.29859 0.64139 0.48672 0.0
C704 C -0.00428 0.02634 0.32669 0.0
C705 C 2e-05 0.05714 0.31326 0.0
H706 H 0.98654 0.9418 0.337 0.0
C707 C -0.00034 0.02639 0.29981 0.0
H708 H -0.00393 0.04957 0.33716 0.0
C709 C 0.99456 0.96569 0.29972 0.0
C710 C 0.99005 0.93464 0.31308 0.0
H711 H 0.00348 0.04939 0.28934 0.0
H712 H 0.99358 0.943 0.28917 0.0
C713 C 0.99027 0.96521 0.32659 0.0
C714 C 0.02513 0.98943 0.67582 0.0
C715 C 0.05565 0.98957 0.68934 0.0
H716 H 0.94077 0.99504 0.66522 0.0
C717 C 0.02455 0.9945 0.70269 0.0
H718 H 0.04858 0.98539 0.66543 0.0
C719 C 0.96383 -0.00032 0.70257 0.0
C720 C 0.93313 -0.0003 0.68911 0.0
H721 H 0.04721 0.99381 0.71324 0.0
H722 H 0.94079 0.00385 0.71302 0.0
C723 C 0.96398 0.99496 0.6757 0.0
C724 C 0.99087 0.52347 0.95279 0.0
C725 C 0.99039 0.55495 0.93944 0.0
H726 H -0.00315 0.43948 0.96313 0.0
C727 C 0.99463 0.52488 0.92591 0.0
H728 H 0.98707 0.54589 0.96333 0.0
C729 C 3e-05 0.46375 0.92579 0.0
C730 C 0.00024 0.43246 0.93919 0.0
H731 H 0.99419 0.54867 0.91551 0.0
H732 H 0.00364 0.4409 0.9153 0.0
C733 C -0.0041 0.46277 0.95266 0.0
C734 C 0.52403 0.00502 0.07706 0.0
C735 C 0.55443 0.00214 0.06354 0.0
H736 H 0.43977 0.00208 0.08776 0.0
C737 C 0.52309 -0.00475 0.05028 0.0
H738 H 0.54762 0.01069 0.08738 0.0
C739 C 0.46233 0.99051 0.05049 0.0
C740 C 0.43178 0.993 0.06396 0.0
H741 H 0.54557 0.99403 0.0397 0.0
H742 H 0.43912 0.98465 0.04011 0.0
C743 C 0.46283 0.00011 0.07728 0.0
C744 C 0.49108 0.46523 0.80018 0.0
C745 C 0.49077 0.43404 0.81357 0.0
H746 H 0.49708 0.54897 0.78971 0.0
C747 C 0.49526 0.46439 0.82706 0.0
H748 H 0.48711 0.44258 0.78967 0.0
C749 C 0.50076 0.52553 0.82709 0.0
C750 C 0.50083 0.55653 0.81364 0.0
H751 H 0.49498 0.44082 0.83748 0.0
H752 H 0.50458 0.54859 0.83754 0.0
C753 C 0.49622 0.52592 0.80021 0.0
C754 C 0.52369 0.49307 0.20211 0.0
C755 C 0.55487 0.48871 0.18876 0.0
H756 H 0.43994 0.50203 0.21246 0.0
C757 C 0.5243 0.48846 0.17525 0.0
H758 H 0.54634 0.49241 0.21267 0.0
C759 C 0.46309 0.49338 0.17514 0.0
C760 C 0.43219 0.49804 0.18854 0.0
H761 H 0.54777 0.48486 0.16485 0.0
H762 H 0.4399 0.49343 0.16465 0.0
C763 C 0.46294 0.49795 0.202 0.0
C764 C 0.49715 0.96489 0.4256 0.0
C765 C 0.50134 0.93467 0.43911 0.0
H766 H 0.48802 0.04897 0.41504 0.0
C767 C 0.5006 0.966 0.45248 0.0
H768 H 0.49778 0.94122 0.41519 0.0
C769 C 0.49537 0.02668 0.4524 0.0
C770 C 0.49109 0.05715 0.43894 0.0
H771 H 0.50435 0.94347 0.46302 0.0
H772 H 0.49422 0.04984 0.46288 0.0
C773 C 0.49156 0.02601 0.42552 0.0
C774 C 0.02832 0.49952 0.55007 0.0
C775 C 0.05904 0.49946 0.56353 0.0
H776 H 0.94494 0.4937 0.53939 0.0
C777 C 0.0282 0.49462 0.57694 0.0
H778 H 0.05135 0.50376 0.53961 0.0
C779 C 0.96705 0.48907 0.57682 0.0
C780 C 0.93652 0.48931 0.5633 0.0
H781 H 0.05142 0.49463 0.58742 0.0
H782 H 0.94361 0.48496 0.58721 0.0
C783 C 0.96761 0.49432 0.54995 0.0
C784 C 0.04114 0.53537 0.31391 0.0
C785 C 0.98337 0.55655 0.31331 0.0
H786 H 0.09696 0.45998 0.31378 0.0
C787 C 0.93661 0.51661 0.31405 0.0
H788 H 0.07794 0.56532 0.31339 0.0
C789 C 0.94746 0.45636 0.31391 0.0
C790 C 0.00524 0.43515 0.31345 0.0
H791 H 0.89164 0.53175 0.31353 0.0
H792 H 0.91067 0.4264 0.31337 0.0
C793 C 0.05198 0.47512 0.3142 0.0
C794 C 0.45482 0.04147 0.68842 0.0
C795 C 0.43373 0.9837 0.68908 0.0
H796 H 0.53016 0.09743 0.68848 0.0
C797 C 0.47375 0.93703 0.68836 0.0
H798 H 0.4248 0.0782 0.68892 0.0
C799 C 0.53401 0.948 0.68848 0.0
C800 C 0.55513 0.0058 0.68888 0.0
H801 H 0.45869 0.89206 0.68892 0.0
H802 H 0.56405 0.9113 0.68903 0.0
C803 C 0.51508 0.05244 0.68811 0.0
C804 C 0.94957 0.03247 0.938 0.0
C805 C 0.00724 0.05376 0.93889 0.0
H806 H 0.89375 0.95708 0.93812 0.0
C807 C 0.05407 0.01383 0.93869 0.0
H808 H 0.91272 0.06242 0.93811 0.0
C809 C 0.04321 0.95358 0.93907 0.0
C810 C 0.9854 0.93235 0.93924 0.0
H811 H 0.09895 0.02906 0.93946 0.0
H812 H 0.07994 0.92371 0.94001 0.0
C813 C 0.93876 0.97221 0.93795 0.0
C814 C 0.95399 0.94545 0.06437 0.0
C815 C 0.93306 0.00333 0.06392 0.0
H816 H 0.02923 0.8893 0.06413 0.0
C817 C 0.97324 0.04982 0.06487 0.0
H818 H 0.92387 0.90883 0.0637 0.0
C819 C 0.03346 0.03868 0.06476 0.0
C820 C 0.05441 0.98086 0.06413 0.0
H821 H 0.95836 0.09488 0.06448 0.0
H822 H 0.06361 0.07533 0.06437 0.0
C823 C 0.01423 0.93429 0.06468 0.0
C824 C 0.5433 0.03528 0.81405 0.0
C825 C 0.48548 0.05642 0.81376 0.0
H826 H 0.59915 0.9599 0.81369 0.0
C827 C 0.43882 0.01646 0.81482 0.0
H828 H 0.58002 0.06524 0.81328 0.0
C829 C 0.44971 0.95621 0.81469 0.0
C830 C 0.50744 0.93504 0.81393 0.0
H831 H 0.39381 0.03155 0.81455 0.0
H832 H 0.4129 0.92622 0.81441 0.0
C833 C 0.55421 0.97504 0.81435 0.0
C834 C 0.97358 0.44081 0.18737 0.0
C835 C 0.93339 0.48726 0.18838 0.0
H836 H 0.06395 0.41529 0.18793 0.0
C837 C 0.95435 0.54515 0.1881 0.0
H838 H 0.95868 0.39575 0.18763 0.0
C839 C 0.0146 0.55633 0.18789 0.0
C840 C 0.05477 0.50974 0.18838 0.0
H841 H 0.92423 0.58174 0.18883 0.0
H842 H 0.02959 0.6013 0.18857 0.0
C843 C 0.03381 0.45195 0.18759 0.0
C844 C 0.44878 0.53599 0.4386 0.0
C845 C 0.50661 0.55712 0.43887 0.0
H846 H 0.39289 0.46062 0.43895 0.0
C847 C 0.55323 0.51716 0.43776 0.0
H848 H 0.41207 0.56595 0.4394 0.0
C849 C 0.54232 0.45691 0.43786 0.0
C850 C 0.48458 0.43574 0.43864 0.0
H851 H 0.59826 0.53224 0.43802 0.0
H852 H 0.5791 0.42691 0.43811 0.0
C853 C 0.43782 0.47575 0.43827 0.0
C854 C 0.47708 0.55232 0.56456 0.0
C855 C 0.43701 0.50568 0.56378 0.0
H856 H 0.56736 0.5781 0.56376 0.0
C857 C 0.45811 0.44788 0.56416 0.0
H858 H 0.462 0.59731 0.5642 0.0
C859 C 0.51837 0.43691 0.56427 0.0
C860 C 0.55841 0.4836 0.56357 0.0
H861 H 0.42806 0.41118 0.56359 0.0
H862 H 0.53341 0.39195 0.5637 0.0
C863 C 0.53733 0.54136 0.56425 0.0
C864 C 0.29088 0.22515 0.38117 0.0
C865 C 0.26049 0.25999 0.39142 0.0
H866 H 0.29872 0.19742 0.35857 0.0
C867 C 0.21386 0.29492 0.38646 0.0
H868 H 0.32621 0.19683 0.38474 0.0
C869 C 0.19833 0.29565 0.37147 0.0
C870 C 0.22802 0.26011 0.36118 0.0
H871 H 0.19016 0.32268 0.39414 0.0
H872 H 0.16394 0.32511 0.368 0.0
C873 C 0.27484 0.22526 0.3662 0.0
C874 C 0.29475 0.71285 0.63714 0.0
C875 C 0.25944 0.75919 0.64209 0.0
H876 H 0.32562 0.66338 0.61868 0.0
C877 C 0.22459 0.78948 0.63181 0.0
H878 H 0.32253 0.68923 0.64484 0.0
C879 C 0.2251 0.77367 0.61683 0.0
C880 C 0.26037 0.72716 0.61183 0.0
H881 H 0.19598 0.82458 0.63537 0.0
H882 H 0.19727 0.79748 0.60919 0.0
C883 C 0.29588 0.69753 0.62214 0.0
C884 C 0.79081 0.7669 0.37087 0.0
C885 C 0.76019 0.73198 0.36067 0.0
H886 H 0.79923 0.7947 0.39345 0.0
C887 C 0.71372 0.69701 0.36571 0.0
H888 H 0.82602 0.79525 0.36724 0.0
C889 C 0.69858 0.69631 0.38073 0.0
C890 C 0.72852 0.73192 0.39096 0.0
H891 H 0.68984 0.66919 0.35808 0.0
H892 H 0.66431 0.66682 0.38427 0.0
C893 C 0.77518 0.76682 0.38587 0.0
C894 C 0.69609 0.19766 0.63055 0.0
C895 C 0.73167 0.22728 0.64085 0.0
H896 H 0.66936 0.1893 0.60786 0.0
C897 C 0.76699 0.27374 0.63582 0.0
H898 H 0.66631 0.16355 0.63403 0.0
C899 C 0.76747 0.2895 0.62084 0.0
C900 C 0.73256 0.2592 0.61057 0.0
H901 H 0.79488 0.29754 0.64345 0.0
H902 H 0.79612 0.32455 0.61726 0.0
C903 C 0.69719 0.21292 0.61554 0.0
C904 C 0.27761 0.19564 0.88687 0.0
C905 C 0.23113 0.2306 0.89189 0.0
H906 H 0.32725 0.16564 0.86834 0.0
C907 C 0.20078 0.26577 0.8817 0.0
H908 H 0.30128 0.16763 0.89451 0.0
C909 C 0.21667 0.26591 0.86672 0.0
C910 C 0.2633 0.23097 0.86164 0.0
H911 H 0.16557 0.29412 0.88532 0.0
H912 H 0.1928 0.29396 0.85915 0.0
C913 C 0.293 0.19515 0.87187 0.0
C914 C 0.29116 0.74103 0.13407 0.0
C915 C 0.23808 0.73156 0.14154 0.0
H916 H 0.33263 0.76081 0.11329 0.0
C917 C 0.18499 0.73626 0.13377 0.0
H918 H 0.33254 0.73734 0.13989 0.0
C919 C 0.18499 0.7511 0.11872 0.0
C920 C 0.23814 0.7596 0.1112 0.0
H921 H 0.14363 0.72917 0.1394 0.0
H922 H 0.14364 0.75525 0.1129 0.0
C923 C 0.29122 0.75409 0.11892 0.0
C924 C 0.71643 0.72343 0.88628 0.0
C925 C 0.76315 0.75823 0.89138 0.0
H926 H 0.66537 0.69533 0.86766 0.0
C927 C 0.79302 0.79396 0.88117 0.0
H928 H 0.69243 0.69544 0.89385 0.0
C929 C 0.77772 0.79352 0.86616 0.0
C930 C 0.73116 0.75867 0.86111 0.0
H931 H 0.82734 0.82338 0.88471 0.0
H932 H 0.80153 0.82145 0.85853 0.0
C933 C 0.70063 0.7236 0.8713 0.0
C934 C 0.79465 0.27698 0.1156 0.0
C935 C 0.75975 0.23033 0.11063 0.0
H936 H 0.82469 0.32697 0.13407 0.0
C937 C 0.72479 0.2 0.12088 0.0
H938 H 0.82248 0.30067 0.10793 0.0
C939 C 0.72486 0.21601 0.13585 0.0
C940 C 0.75972 0.26281 0.14086 0.0
H941 H 0.69643 0.16471 0.11731 0.0
H942 H 0.69699 0.19215 0.14347 0.0
C943 C 0.79528 0.29254 0.13059 0.0
loop_
_geom_bond_atom_site_label_1
_geom_bond_atom_site_label_2
_geom_bond_distance
_geom_bond_site_symmetry_2
_ccdc_geom_bond_type
Co0 O3 1.969 1_455 S
Co0 N17 1.990 . S
Co0 O25 1.972 . S
Co0 O32 1.916 1_455 S
Co1 O4 1.966 . S
Co1 N10 2.022 . S
Co1 N18 1.993 . S
Co1 O26 1.941 . S
C2 O3 1.258 1_455 S
C2 O4 1.263 . S
O3 Co0 1.969 1_655 S
O3 C2 1.258 1_655 S
O4 Co1 1.966 . S
O4 C2 1.263 . S
C5 O6 1.235 . S
C5 O32 1.289 . S
O6 C5 1.235 . S
C7 C9 1.400 . S
C7 N10 1.351 . S
C7 C12 1.501 . S
C8 C9 1.387 . S
C8 N11 1.341 . S
C9 C7 1.400 . S
C9 C8 1.387 . S
N10 Co1 2.022 . S
N10 C7 1.351 . S
N10 N11 1.365 . S
N11 C8 1.341 . S
N11 N10 1.365 . S
N11 H31 0.862 . S
C12 C7 1.501 . S
C12 H13 0.961 . S
C12 H14 0.961 . S
C12 H15 0.960 . S
H13 C12 0.961 . S
H14 C12 0.961 . S
H15 C12 0.960 . S
C16 N17 1.342 1_655 S
C16 C20 1.401 1_655 S
C16 C21 1.499 . S
N17 Co0 1.990 . S
N17 C16 1.342 1_455 S
N17 N18 1.388 . S
N18 Co1 1.993 . S
N18 N17 1.388 . S
N18 C19 1.346 . S
C19 N18 1.346 . S
C19 C20 1.396 . S
C19 C29 1.510 . S
C20 C16 1.401 1_455 S
C20 C19 1.396 . S
C21 C16 1.499 . S
C21 H22 0.959 . S
C21 H23 0.960 . S
C21 H24 0.961 . S
H22 C21 0.959 . S
H23 C21 0.960 . S
H24 C21 0.961 . S
O25 Co0 1.972 . S
O25 C33 1.258 . S
O26 Co1 1.941 . S
O26 C33 1.266 . S
H27 C29 0.959 . S
H28 C29 0.961 . S
C29 C19 1.510 . S
C29 H27 0.959 . S
C29 H28 0.961 . S
C29 H30 0.960 . S
H30 C29 0.960 . S
H31 N11 0.862 . S
O32 Co0 1.916 1_655 S
O32 C5 1.289 . S
C33 O25 1.258 . S
C33 O26 1.266 . S
Co34 O37 1.969 1_565 S
Co34 N51 1.990 . S
Co34 O59 1.972 . S
Co34 O66 1.916 1_565 S
Co35 O38 1.966 . S
Co35 N44 2.022 . S
Co35 N52 1.993 . S
Co35 O60 1.941 . S
C36 O37 1.258 1_565 S
C36 O38 1.263 . S
O37 Co34 1.969 1_545 S
O37 C36 1.258 1_545 S
O38 Co35 1.966 . S
O38 C36 1.263 . S
C39 O40 1.235 . S
C39 O66 1.289 . S
O40 C39 1.235 . S
C41 C43 1.400 . S
C41 N44 1.351 . S
C41 C46 1.501 . S
C42 C43 1.387 . S
C42 N45 1.341 . S
C43 C41 1.400 . S
C43 C42 1.387 . S
N44 Co35 2.022 . S
N44 C41 1.351 . S
N44 N45 1.365 . S
N45 C42 1.341 . S
N45 N44 1.365 . S
N45 H65 0.862 . S
C46 C41 1.501 . S
C46 H47 0.961 . S
C46 H48 0.961 . S
C46 H49 0.960 . S
H47 C46 0.961 . S
H48 C46 0.961 . S
H49 C46 0.960 . S
C50 N51 1.342 1_545 S
C50 C54 1.401 1_545 S
C50 C55 1.499 . S
N51 Co34 1.990 . S
N51 C50 1.342 1_565 S
N51 N52 1.388 . S
N52 Co35 1.993 . S
N52 N51 1.388 . S
N52 C53 1.346 . S
C53 N52 1.346 . S
C53 C54 1.396 . S
C53 C63 1.510 . S
C54 C50 1.401 1_565 S
C54 C53 1.396 . S
C55 C50 1.499 . S
C55 H56 0.959 . S
C55 H57 0.960 . S
C55 H58 0.961 . S
H56 C55 0.959 . S
H57 C55 0.960 . S
H58 C55 0.961 . S
O59 Co34 1.972 . S
O59 C67 1.258 . S
O60 Co35 1.941 . S
O60 C67 1.266 . S
H61 C63 0.959 . S
H62 C63 0.961 . S
C63 C53 1.510 . S
C63 H61 0.959 . S
C63 H62 0.961 . S
C63 H64 0.960 . S
H64 C63 0.960 . S
H65 N45 0.862 . S
O66 Co34 1.916 1_545 S
O66 C39 1.289 . S
C67 O59 1.258 . S
C67 O60 1.266 . S
Co68 O71 1.969 1_655 S
Co68 N85 1.990 . S
Co68 O93 1.972 . S
Co68 O100 1.916 1_655 S
Co69 O72 1.966 . S
Co69 N78 2.022 . S
Co69 N86 1.993 . S
Co69 O94 1.941 . S
C70 O71 1.258 1_655 S
C70 O72 1.263 . S
O71 Co68 1.969 1_455 S
O71 C70 1.258 1_455 S
O72 Co69 1.966 . S
O72 C70 1.263 . S
C73 O74 1.235 . S
C73 O100 1.289 . S
O74 C73 1.235 . S
C75 C77 1.400 . S
C75 N78 1.351 . S
C75 C80 1.501 . S
C76 C77 1.387 . S
C76 N79 1.341 . S
C77 C75 1.400 . S
C77 C76 1.387 . S
N78 Co69 2.022 . S
N78 C75 1.351 . S
N78 N79 1.365 . S
N79 C76 1.341 . S
N79 N78 1.365 . S
N79 H99 0.862 . S
C80 C75 1.501 . S
C80 H81 0.961 . S
C80 H82 0.961 . S
C80 H83 0.960 . S
H81 C80 0.961 . S
H82 C80 0.961 . S
H83 C80 0.960 . S
C84 N85 1.342 1_455 S
C84 C88 1.401 1_455 S
C84 C89 1.499 . S
N85 Co68 1.990 . S
N85 C84 1.342 1_655 S
N85 N86 1.388 . S
N86 Co69 1.993 . S
N86 N85 1.388 . S
N86 C87 1.346 . S
C87 N86 1.346 . S
C87 C88 1.396 . S
C87 C97 1.510 . S
C88 C84 1.401 1_655 S
C88 C87 1.396 . S
C89 C84 1.499 . S
C89 H90 0.959 . S
C89 H91 0.960 . S
C89 H92 0.961 . S
H90 C89 0.959 . S
H91 C89 0.960 . S
H92 C89 0.961 . S
O93 Co68 1.972 . S
O93 C101 1.258 . S
O94 Co69 1.941 . S
O94 C101 1.266 . S
H95 C97 0.959 . S
H96 C97 0.961 . S
C97 C87 1.510 . S
C97 H95 0.959 . S
C97 H96 0.961 . S
C97 H98 0.960 . S
H98 C97 0.960 . S
H99 N79 0.862 . S
O100 Co68 1.916 1_455 S
O100 C73 1.289 . S
C101 O93 1.258 . S
C101 O94 1.266 . S
Co102 O105 1.969 1_545 S
Co102 N119 1.990 . S
Co102 O127 1.972 . S
Co102 O134 1.916 1_545 S
Co103 O106 1.966 . S
Co103 N112 2.022 . S
Co103 N120 1.993 . S
Co103 O128 1.941 . S
C104 O105 1.258 1_545 S
C104 O106 1.263 . S
O105 Co102 1.969 1_565 S
O105 C104 1.258 1_565 S
O106 Co103 1.966 . S
O106 C104 1.263 . S
C107 O108 1.235 . S
C107 O134 1.289 . S
O108 C107 1.235 . S
C109 C111 1.400 . S
C109 N112 1.351 . S
C109 C114 1.501 . S
C110 C111 1.387 . S
C110 N113 1.341 . S
C111 C109 1.400 . S
C111 C110 1.387 . S
N112 Co103 2.022 . S
N112 C109 1.351 . S
N112 N113 1.365 . S
N113 C110 1.341 . S
N113 N112 1.365 . S
N113 H133 0.862 . S
C114 C109 1.501 . S
C114 H115 0.961 . S
C114 H116 0.961 . S
C114 H117 0.960 . S
H115 C114 0.961 . S
H116 C114 0.961 . S
H117 C114 0.960 . S
C118 N119 1.342 1_565 S
C118 C122 1.401 1_565 S
C118 C123 1.499 . S
N119 Co102 1.990 . S
N119 C118 1.342 1_545 S
N119 N120 1.388 . S
N120 Co103 1.993 . S
N120 N119 1.388 . S
N120 C121 1.346 . S
C121 N120 1.346 . S
C121 C122 1.396 . S
C121 C131 1.510 . S
C122 C118 1.401 1_545 S
C122 C121 1.396 . S
C123 C118 1.499 . S
C123 H124 0.959 . S
C123 H125 0.960 . S
C123 H126 0.961 . S
H124 C123 0.959 . S
H125 C123 0.960 . S
H126 C123 0.961 . S
O127 Co102 1.972 . S
O127 C135 1.258 . S
O128 Co103 1.941 . S
O128 C135 1.266 . S
H129 C131 0.959 . S
H130 C131 0.961 . S
C131 C121 1.510 . S
C131 H129 0.959 . S
C131 H130 0.961 . S
C131 H132 0.960 . S
H132 C131 0.960 . S
H133 N113 0.862 . S
O134 Co102 1.916 1_565 S
O134 C107 1.289 . S
C135 O127 1.258 . S
C135 O128 1.266 . S
Co136 O139 1.969 1_455 S
Co136 N153 1.990 . S
Co136 O161 1.972 . S
Co136 O168 1.917 1_455 S
Co137 O140 1.966 . S
Co137 N146 2.022 . S
Co137 N154 1.993 . S
Co137 O162 1.941 . S
C138 O139 1.258 1_455 S
C138 O140 1.263 . S
O139 Co136 1.969 1_655 S
O139 C138 1.258 1_655 S
O140 Co137 1.966 . S
O140 C138 1.263 . S
C141 O142 1.235 . S
C141 O168 1.289 . S
O142 C141 1.235 . S
C143 C145 1.400 . S
C143 N146 1.351 . S
C143 C148 1.501 . S
C144 C145 1.387 . S
C144 N147 1.341 . S
C145 C143 1.400 . S
C145 C144 1.387 . S
N146 Co137 2.022 . S
N146 C143 1.351 . S
N146 N147 1.365 . S
N147 C144 1.341 . S
N147 N146 1.365 . S
N147 H167 0.862 . S
C148 C143 1.501 . S
C148 H149 0.961 . S
C148 H150 0.961 . S
C148 H151 0.960 . S
H149 C148 0.961 . S
H150 C148 0.961 . S
H151 C148 0.960 . S
C152 N153 1.342 1_655 S
C152 C156 1.401 1_655 S
C152 C157 1.499 . S
N153 Co136 1.990 . S
N153 C152 1.342 1_455 S
N153 N154 1.388 . S
N154 Co137 1.993 . S
N154 N153 1.388 . S
N154 C155 1.346 . S
C155 N154 1.346 . S
C155 C156 1.396 . S
C155 C165 1.510 . S
C156 C152 1.401 1_455 S
C156 C155 1.396 . S
C157 C152 1.499 . S
C157 H158 0.959 . S
C157 H159 0.960 . S
C157 H160 0.961 . S
H158 C157 0.959 . S
H159 C157 0.960 . S
H160 C157 0.961 . S
O161 Co136 1.972 . S
O161 C169 1.258 . S
O162 Co137 1.941 . S
O162 C169 1.266 . S
H163 C165 0.959 . S
H164 C165 0.961 . S
C165 C155 1.510 . S
C165 H163 0.959 . S
C165 H164 0.961 . S
C165 H166 0.960 . S
H166 C165 0.960 . S
H167 N147 0.862 . S
O168 Co136 1.917 1_655 S
O168 C141 1.289 . S
C169 O161 1.258 . S
C169 O162 1.266 . S
Co170 O173 1.969 1_565 S
Co170 N187 1.990 . S
Co170 O195 1.972 . S
Co170 O202 1.917 1_565 S
Co171 O174 1.966 . S
Co171 N180 2.022 . S
Co171 N188 1.993 . S
Co171 O196 1.941 . S
C172 O173 1.258 1_565 S
C172 O174 1.263 . S
O173 Co170 1.969 1_545 S
O173 C172 1.258 1_545 S
O174 Co171 1.966 . S
O174 C172 1.263 . S
C175 O176 1.235 . S
C175 O202 1.289 . S
O176 C175 1.235 . S
C177 C179 1.400 . S
C177 N180 1.351 . S
C177 C182 1.501 . S
C178 C179 1.387 . S
C178 N181 1.341 . S
C179 C177 1.400 . S
C179 C178 1.387 . S
N180 Co171 2.022 . S
N180 C177 1.351 . S
N180 N181 1.365 . S
N181 C178 1.341 . S
N181 N180 1.365 . S
N181 H201 0.862 . S
C182 C177 1.501 . S
C182 H183 0.961 . S
C182 H184 0.961 . S
C182 H185 0.960 . S
H183 C182 0.961 . S
H184 C182 0.961 . S
H185 C182 0.960 . S
C186 N187 1.342 1_545 S
C186 C190 1.401 1_545 S
C186 C191 1.499 . S
N187 Co170 1.990 . S
N187 C186 1.342 1_565 S
N187 N188 1.388 . S
N188 Co171 1.993 . S
N188 N187 1.388 . S
N188 C189 1.346 . S
C189 N188 1.346 . S
C189 C190 1.396 . S
C189 C199 1.510 . S
C190 C186 1.401 1_565 S
C190 C189 1.396 . S
C191 C186 1.499 . S
C191 H192 0.959 . S
C191 H193 0.960 . S
C191 H194 0.961 . S
H192 C191 0.959 . S
H193 C191 0.960 . S
H194 C191 0.961 . S
O195 Co170 1.972 . S
O195 C203 1.258 . S
O196 Co171 1.941 . S
O196 C203 1.266 . S
H197 C199 0.959 . S
H198 C199 0.961 . S
C199 C189 1.510 . S
C199 H197 0.959 . S
C199 H198 0.961 . S
C199 H200 0.960 . S
H200 C199 0.960 . S
H201 N181 0.862 . S
O202 Co170 1.917 1_545 S
O202 C175 1.289 . S
C203 O195 1.258 . S
C203 O196 1.266 . S
Co204 O207 1.969 1_655 S
Co204 N221 1.990 . S
Co204 O229 1.972 . S
Co204 O236 1.917 1_655 S
Co205 O208 1.966 . S
Co205 N214 2.022 . S
Co205 N222 1.993 . S
Co205 O230 1.941 . S
C206 O207 1.258 1_655 S
C206 O208 1.263 . S
O207 Co204 1.969 1_455 S
O207 C206 1.258 1_455 S
O208 Co205 1.966 . S
O208 C206 1.263 . S
C209 O210 1.235 . S
C209 O236 1.289 . S
O210 C209 1.235 . S
C211 C213 1.400 . S
C211 N214 1.351 . S
C211 C216 1.501 . S
C212 C213 1.387 . S
C212 N215 1.341 . S
C213 C211 1.400 . S
C213 C212 1.387 . S
N214 Co205 2.022 . S
N214 C211 1.351 . S
N214 N215 1.365 . S
N215 C212 1.341 . S
N215 N214 1.365 . S
N215 H235 0.862 . S
C216 C211 1.501 . S
C216 H217 0.961 . S
C216 H218 0.961 . S
C216 H219 0.960 . S
H217 C216 0.961 . S
H218 C216 0.961 . S
H219 C216 0.960 . S
C220 N221 1.342 1_455 S
C220 C224 1.401 1_455 S
C220 C225 1.499 . S
N221 Co204 1.990 . S
N221 C220 1.342 1_655 S
N221 N222 1.388 . S
N222 Co205 1.993 . S
N222 N221 1.388 . S
N222 C223 1.346 . S
C223 N222 1.346 . S
C223 C224 1.396 . S
C223 C233 1.510 . S
C224 C220 1.401 1_655 S
C224 C223 1.396 . S
C225 C220 1.499 . S
C225 H226 0.959 . S
C225 H227 0.960 . S
C225 H228 0.961 . S
H226 C225 0.959 . S
H227 C225 0.960 . S
H228 C225 0.961 . S
O229 Co204 1.972 . S
O229 C237 1.258 . S
O230 Co205 1.941 . S
O230 C237 1.266 . S
H231 C233 0.959 . S
H232 C233 0.961 . S
C233 C223 1.510 . S
C233 H231 0.959 . S
C233 H232 0.961 . S
C233 H234 0.960 . S
H234 C233 0.960 . S
H235 N215 0.862 . S
O236 Co204 1.917 1_455 S
O236 C209 1.289 . S
C237 O229 1.258 . S
C237 O230 1.266 . S
Co238 O241 1.969 1_545 S
Co238 N255 1.990 . S
Co238 O263 1.972 . S
Co238 O270 1.917 1_545 S
Co239 O242 1.966 . S
Co239 N248 2.022 . S
Co239 N256 1.993 . S
Co239 O264 1.941 . S
C240 O241 1.258 1_545 S
C240 O242 1.263 . S
O241 Co238 1.969 1_565 S
O241 C240 1.258 1_565 S
O242 Co239 1.966 . S
O242 C240 1.263 . S
C243 O244 1.235 . S
C243 O270 1.289 . S
O244 C243 1.235 . S
C245 C247 1.400 . S
C245 N248 1.351 . S
C245 C250 1.501 . S
C246 C247 1.387 . S
C246 N249 1.341 . S
C247 C245 1.400 . S
C247 C246 1.387 . S
N248 Co239 2.022 . S
N248 C245 1.351 . S
N248 N249 1.365 . S
N249 C246 1.341 . S
N249 N248 1.365 . S
N249 H269 0.862 . S
C250 C245 1.501 . S
C250 H251 0.961 . S
C250 H252 0.961 . S
C250 H253 0.960 . S
H251 C250 0.961 . S
H252 C250 0.961 . S
H253 C250 0.960 . S
C254 N255 1.342 1_565 S
C254 C258 1.401 1_565 S
C254 C259 1.499 . S
N255 Co238 1.990 . S
N255 C254 1.342 1_545 S
N255 N256 1.388 . S
N256 Co239 1.993 . S
N256 N255 1.388 . S
N256 C257 1.346 . S
C257 N256 1.346 . S
C257 C258 1.396 . S
C257 C267 1.510 . S
C258 C254 1.401 1_545 S
C258 C257 1.396 . S
C259 C254 1.499 . S
C259 H260 0.959 . S
C259 H261 0.960 . S
C259 H262 0.961 . S
H260 C259 0.959 . S
H261 C259 0.960 . S
H262 C259 0.961 . S
O263 Co238 1.972 . S
O263 C271 1.258 . S
O264 Co239 1.941 . S
O264 C271 1.266 . S
H265 C267 0.959 . S
H266 C267 0.961 . S
C267 C257 1.510 . S
C267 H265 0.959 . S
C267 H266 0.961 . S
C267 H268 0.960 . S
H268 C267 0.960 . S
H269 N249 0.862 . S
O270 Co238 1.917 1_565 S
O270 C243 1.289 . S
C271 O263 1.258 . S
C271 O264 1.266 . S
Co272 O275 1.970 . S
Co272 N289 1.989 . S
Co272 O297 1.967 . S
Co272 O304 1.920 . S
Co273 O276 1.966 . S
Co273 N282 2.022 . S
Co273 N290 1.993 . S
Co273 O298 1.941 . S
C274 O275 1.258 . S
C274 O276 1.263 . S
O275 Co272 1.970 . S
O275 C274 1.258 . S
O276 Co273 1.966 . S
O276 C274 1.263 . S
C277 O278 1.235 . S
C277 O304 1.289 . S
O278 C277 1.235 . S
C279 C281 1.400 . S
C279 N282 1.351 . S
C279 C284 1.501 . S
C280 C281 1.387 . S
C280 N283 1.341 . S
C281 C279 1.400 . S
C281 C280 1.387 . S
N282 Co273 2.022 . S
N282 C279 1.351 . S
N282 N283 1.365 . S
N283 C280 1.341 . S
N283 N282 1.365 . S
N283 H303 0.862 . S
C284 C279 1.501 . S
C284 H285 0.961 . S
C284 H286 0.961 . S
C284 H287 0.960 . S
H285 C284 0.961 . S
H286 C284 0.961 . S
H287 C284 0.960 . S
C288 N289 1.342 . S
C288 C292 1.401 . S
C288 C293 1.499 . S
N289 Co272 1.989 . S
N289 C288 1.342 . S
N289 N290 1.388 . S
N290 Co273 1.993 . S
N290 N289 1.388 . S
N290 C291 1.346 . S
C291 N290 1.346 . S
C291 C292 1.396 . S
C291 C301 1.510 . S
C292 C288 1.401 . S
C292 C291 1.396 . S
C293 C288 1.499 . S
C293 H294 0.959 . S
C293 H295 0.960 . S
C293 H296 0.961 . S
H294 C293 0.959 . S
H295 C293 0.960 . S
H296 C293 0.961 . S
O297 Co272 1.967 . S
O297 C305 1.258 . S
O298 Co273 1.941 . S
O298 C305 1.266 . S
H299 C301 0.959 . S
H300 C301 0.961 . S
C301 C291 1.510 . S
C301 H299 0.959 . S
C301 H300 0.961 . S
C301 H302 0.960 . S
H302 C301 0.960 . S
H303 N283 0.862 . S
O304 Co272 1.920 . S
O304 C277 1.289 . S
C305 O297 1.258 . S
C305 O298 1.266 . S
Co306 O309 1.970 . S
Co306 N323 1.989 . S
Co306 O331 1.967 . S
Co306 O338 1.920 . S
Co307 O310 1.966 . S
Co307 N316 2.022 . S
Co307 N324 1.993 . S
Co307 O332 1.941 . S
C308 O309 1.258 . S
C308 O310 1.263 . S
O309 Co306 1.970 . S
O309 C308 1.258 . S
O310 Co307 1.966 . S
O310 C308 1.263 . S
C311 O312 1.235 . S
C311 O338 1.289 . S
O312 C311 1.235 . S
C313 C315 1.400 . S
C313 N316 1.351 . S
C313 C318 1.501 . S
C314 C315 1.387 . S
C314 N317 1.341 . S
C315 C313 1.400 . S
C315 C314 1.387 . S
N316 Co307 2.022 . S
N316 C313 1.351 . S
N316 N317 1.365 . S
N317 C314 1.341 . S
N317 N316 1.365 . S
N317 H337 0.862 . S
C318 C313 1.501 . S
C318 H319 0.961 . S
C318 H320 0.961 . S
C318 H321 0.960 . S
H319 C318 0.961 . S
H320 C318 0.961 . S
H321 C318 0.960 . S
C322 N323 1.342 . S
C322 C326 1.401 . S
C322 C327 1.499 . S
N323 Co306 1.989 . S
N323 C322 1.342 . S
N323 N324 1.388 . S
N324 Co307 1.993 . S
N324 N323 1.388 . S
N324 C325 1.346 . S
C325 N324 1.346 . S
C325 C326 1.396 . S
C325 C335 1.510 . S
C326 C322 1.401 . S
C326 C325 1.396 . S
C327 C322 1.499 . S
C327 H328 0.959 . S
C327 H329 0.960 . S
C327 H330 0.961 . S
H328 C327 0.959 . S
H329 C327 0.960 . S
H330 C327 0.961 . S
O331 Co306 1.967 . S
O331 C339 1.258 . S
O332 Co307 1.941 . S
O332 C339 1.266 . S
H333 C335 0.959 . S
H334 C335 0.961 . S
C335 C325 1.510 . S
C335 H333 0.959 . S
C335 H334 0.961 . S
C335 H336 0.960 . S
H336 C335 0.960 . S
H337 N317 0.862 . S
O338 Co306 1.920 . S
O338 C311 1.289 . S
C339 O331 1.258 . S
C339 O332 1.266 . S
Co340 O343 1.970 . S
Co340 N357 1.989 . S
Co340 O365 1.967 . S
Co340 O372 1.920 . S
Co341 O344 1.966 . S
Co341 N350 2.022 . S
Co341 N358 1.993 . S
Co341 O366 1.941 . S
C342 O343 1.258 . S
C342 O344 1.263 . S
O343 Co340 1.970 . S
O343 C342 1.258 . S
O344 Co341 1.966 . S
O344 C342 1.263 . S
C345 O346 1.235 . S
C345 O372 1.289 . S
O346 C345 1.235 . S
C347 C349 1.400 . S
C347 N350 1.351 . S
C347 C352 1.501 . S
C348 C349 1.387 . S
C348 N351 1.341 . S
C349 C347 1.400 . S
C349 C348 1.387 . S
N350 Co341 2.022 . S
N350 C347 1.351 . S
N350 N351 1.365 . S
N351 C348 1.341 . S
N351 N350 1.365 . S
N351 H371 0.862 . S
C352 C347 1.501 . S
C352 H353 0.961 . S
C352 H354 0.961 . S
C352 H355 0.960 . S
H353 C352 0.961 . S
H354 C352 0.961 . S
H355 C352 0.960 . S
C356 N357 1.342 . S
C356 C360 1.401 . S
C356 C361 1.499 . S
N357 Co340 1.989 . S
N357 C356 1.342 . S
N357 N358 1.388 . S
N358 Co341 1.993 . S
N358 N357 1.388 . S
N358 C359 1.346 . S
C359 N358 1.346 . S
C359 C360 1.396 . S
C359 C369 1.510 . S
C360 C356 1.401 . S
C360 C359 1.396 . S
C361 C356 1.499 . S
C361 H362 0.959 . S
C361 H363 0.960 . S
C361 H364 0.961 . S
H362 C361 0.959 . S
H363 C361 0.960 . S
H364 C361 0.961 . S
O365 Co340 1.967 . S
O365 C373 1.258 . S
O366 Co341 1.941 . S
O366 C373 1.266 . S
H367 C369 0.959 . S
H368 C369 0.961 . S
C369 C359 1.510 . S
C369 H367 0.959 . S
C369 H368 0.961 . S
C369 H370 0.960 . S
H370 C369 0.960 . S
H371 N351 0.862 . S
O372 Co340 1.920 . S
O372 C345 1.289 . S
C373 O365 1.258 . S
C373 O366 1.266 . S
Co374 O377 1.970 . S
Co374 N391 1.989 . S
Co374 O399 1.967 . S
Co374 O406 1.920 . S
Co375 O378 1.966 . S
Co375 N384 2.022 . S
Co375 N392 1.993 . S
Co375 O400 1.941 . S
C376 O377 1.258 . S
C376 O378 1.263 . S
O377 Co374 1.970 . S
O377 C376 1.258 . S
O378 Co375 1.966 . S
O378 C376 1.263 . S
C379 O380 1.235 . S
C379 O406 1.289 . S
O380 C379 1.235 . S
C381 C383 1.400 . S
C381 N384 1.351 . S
C381 C386 1.501 . S
C382 C383 1.387 . S
C382 N385 1.341 . S
C383 C381 1.400 . S
C383 C382 1.387 . S
N384 Co375 2.022 . S
N384 C381 1.351 . S
N384 N385 1.365 . S
N385 C382 1.341 . S
N385 N384 1.365 . S
N385 H405 0.862 . S
C386 C381 1.501 . S
C386 H387 0.961 . S
C386 H388 0.961 . S
C386 H389 0.960 . S
H387 C386 0.961 . S
H388 C386 0.961 . S
H389 C386 0.960 . S
C390 N391 1.342 . S
C390 C394 1.401 . S
C390 C395 1.499 . S
N391 Co374 1.989 . S
N391 C390 1.342 . S
N391 N392 1.388 . S
N392 Co375 1.993 . S
N392 N391 1.388 . S
N392 C393 1.346 . S
C393 N392 1.346 . S
C393 C394 1.396 . S
C393 C403 1.510 . S
C394 C390 1.401 . S
C394 C393 1.396 . S
C395 C390 1.499 . S
C395 H396 0.959 . S
C395 H397 0.960 . S
C395 H398 0.961 . S
H396 C395 0.959 . S
H397 C395 0.960 . S
H398 C395 0.961 . S
O399 Co374 1.967 . S
O399 C407 1.258 . S
O400 Co375 1.941 . S
O400 C407 1.266 . S
H401 C403 0.959 . S
H402 C403 0.961 . S
C403 C393 1.510 . S
C403 H401 0.959 . S
C403 H402 0.961 . S
C403 H404 0.960 . S
H404 C403 0.960 . S
H405 N385 0.862 . S
O406 Co374 1.920 . S
O406 C379 1.289 . S
C407 O399 1.258 . S
C407 O400 1.266 . S
Co408 O411 1.970 . S
Co408 N425 1.989 . S
Co408 O433 1.967 . S
Co408 O440 1.920 . S
Co409 O412 1.966 . S
Co409 N418 2.022 . S
Co409 N426 1.993 . S
Co409 O434 1.941 . S
C410 O411 1.258 . S
C410 O412 1.263 . S
O411 Co408 1.970 . S
O411 C410 1.258 . S
O412 Co409 1.966 . S
O412 C410 1.263 . S
C413 O414 1.235 . S
C413 O440 1.289 . S
O414 C413 1.235 . S
C415 C417 1.400 . S
C415 N418 1.351 . S
C415 C420 1.501 . S
C416 C417 1.387 . S
C416 N419 1.341 . S
C417 C415 1.400 . S
C417 C416 1.387 . S
N418 Co409 2.022 . S
N418 C415 1.351 . S
N418 N419 1.365 . S
N419 C416 1.341 . S
N419 N418 1.365 . S
N419 H439 0.862 . S
C420 C415 1.501 . S
C420 H421 0.961 . S
C420 H422 0.961 . S
C420 H423 0.960 . S
H421 C420 0.961 . S
H422 C420 0.961 . S
H423 C420 0.960 . S
C424 N425 1.342 . S
C424 C428 1.401 . S
C424 C429 1.499 . S
N425 Co408 1.989 . S
N425 C424 1.342 . S
N425 N426 1.388 . S
N426 Co409 1.993 . S
N426 N425 1.388 . S
N426 C427 1.346 . S
C427 N426 1.346 . S
C427 C428 1.396 . S
C427 C437 1.510 . S
C428 C424 1.401 . S
C428 C427 1.396 . S
C429 C424 1.499 . S
C429 H430 0.959 . S
C429 H431 0.960 . S
C429 H432 0.961 . S
H430 C429 0.959 . S
H431 C429 0.960 . S
H432 C429 0.961 . S
O433 Co408 1.967 . S
O433 C441 1.258 . S
O434 Co409 1.941 . S
O434 C441 1.266 . S
H435 C437 0.959 . S
H436 C437 0.961 . S
C437 C427 1.510 . S
C437 H435 0.959 . S
C437 H436 0.961 . S
C437 H438 0.960 . S
H438 C437 0.960 . S
H439 N419 0.862 . S
O440 Co408 1.920 . S
O440 C413 1.289 . S
C441 O433 1.258 . S
C441 O434 1.266 . S
Co442 O445 1.970 . S
Co442 N459 1.989 . S
Co442 O467 1.967 . S
Co442 O474 1.920 . S
Co443 O446 1.966 . S
Co443 N452 2.022 . S
Co443 N460 1.993 . S
Co443 O468 1.941 . S
C444 O445 1.258 . S
C444 O446 1.263 . S
O445 Co442 1.970 . S
O445 C444 1.258 . S
O446 Co443 1.966 . S
O446 C444 1.263 . S
C447 O448 1.235 . S
C447 O474 1.289 . S
O448 C447 1.235 . S
C449 C451 1.400 . S
C449 N452 1.351 . S
C449 C454 1.501 . S
C450 C451 1.387 . S
C450 N453 1.341 . S
C451 C449 1.400 . S
C451 C450 1.387 . S
N452 Co443 2.022 . S
N452 C449 1.351 . S
N452 N453 1.365 . S
N453 C450 1.341 . S
N453 N452 1.365 . S
N453 H473 0.862 . S
C454 C449 1.501 . S
C454 H455 0.961 . S
C454 H456 0.961 . S
C454 H457 0.960 . S
H455 C454 0.961 . S
H456 C454 0.961 . S
H457 C454 0.960 . S
C458 N459 1.342 . S
C458 C462 1.401 . S
C458 C463 1.499 . S
N459 Co442 1.989 . S
N459 C458 1.342 . S
N459 N460 1.388 . S
N460 Co443 1.993 . S
N460 N459 1.388 . S
N460 C461 1.346 . S
C461 N460 1.346 . S
C461 C462 1.396 . S
C461 C471 1.510 . S
C462 C458 1.401 . S
C462 C461 1.396 . S
C463 C458 1.499 . S
C463 H464 0.959 . S
C463 H465 0.960 . S
C463 H466 0.961 . S
H464 C463 0.959 . S
H465 C463 0.960 . S
H466 C463 0.961 . S
O467 Co442 1.967 . S
O467 C475 1.258 . S
O468 Co443 1.941 . S
O468 C475 1.266 . S
H469 C471 0.959 . S
H470 C471 0.961 . S
C471 C461 1.510 . S
C471 H469 0.959 . S
C471 H470 0.961 . S
C471 H472 0.960 . S
H472 C471 0.960 . S
H473 N453 0.862 . S
O474 Co442 1.920 . S
O474 C447 1.289 . S
C475 O467 1.258 . S
C475 O468 1.266 . S
Co476 O479 1.970 . S
Co476 N493 1.989 . S
Co476 O501 1.967 . S
Co476 O508 1.920 . S
Co477 O480 1.966 . S
Co477 N486 2.022 . S
Co477 N494 1.993 . S
Co477 O502 1.941 . S
C478 O479 1.258 . S
C478 O480 1.263 . S
O479 Co476 1.970 . S
O479 C478 1.258 . S
O480 Co477 1.966 . S
O480 C478 1.263 . S
C481 O482 1.235 . S
C481 O508 1.289 . S
O482 C481 1.235 . S
C483 C485 1.400 . S
C483 N486 1.351 . S
C483 C488 1.501 . S
C484 C485 1.387 . S
C484 N487 1.341 . S
C485 C483 1.400 . S
C485 C484 1.387 . S
N486 Co477 2.022 . S
N486 C483 1.351 . S
N486 N487 1.365 . S
N487 C484 1.341 . S
N487 N486 1.365 . S
N487 H507 0.862 . S
C488 C483 1.501 . S
C488 H489 0.961 . S
C488 H490 0.961 . S
C488 H491 0.960 . S
H489 C488 0.961 . S
H490 C488 0.961 . S
H491 C488 0.960 . S
C492 N493 1.342 . S
C492 C496 1.401 . S
C492 C497 1.499 . S
N493 Co476 1.989 . S
N493 C492 1.342 . S
N493 N494 1.388 . S
N494 Co477 1.993 . S
N494 N493 1.388 . S
N494 C495 1.346 . S
C495 N494 1.346 . S
C495 C496 1.396 . S
C495 C505 1.510 . S
C496 C492 1.401 . S
C496 C495 1.396 . S
C497 C492 1.499 . S
C497 H498 0.959 . S
C497 H499 0.960 . S
C497 H500 0.961 . S
H498 C497 0.959 . S
H499 C497 0.960 . S
H500 C497 0.961 . S
O501 Co476 1.967 . S
O501 C509 1.258 . S
O502 Co477 1.941 . S
O502 C509 1.266 . S
H503 C505 0.959 . S
H504 C505 0.961 . S
C505 C495 1.510 . S
C505 H503 0.959 . S
C505 H504 0.961 . S
C505 H506 0.960 . S
H506 C505 0.960 . S
H507 N487 0.862 . S
O508 Co476 1.920 . S
O508 C481 1.289 . S
C509 O501 1.258 . S
C509 O502 1.266 . S
Co510 O513 1.970 . S
Co510 N527 1.989 . S
Co510 O535 1.967 . S
Co510 O542 1.920 . S
Co511 O514 1.966 . S
Co511 N520 2.022 . S
Co511 N528 1.993 . S
Co511 O536 1.941 . S
C512 O513 1.258 . S
C512 O514 1.263 . S
O513 Co510 1.970 . S
O513 C512 1.258 . S
O514 Co511 1.966 . S
O514 C512 1.263 . S
C515 O516 1.235 . S
C515 O542 1.289 . S
O516 C515 1.235 . S
C517 C519 1.400 . S
C517 N520 1.351 . S
C517 C522 1.501 . S
C518 C519 1.387 . S
C518 N521 1.341 . S
C519 C517 1.400 . S
C519 C518 1.387 . S
N520 Co511 2.022 . S
N520 C517 1.351 . S
N520 N521 1.365 . S
N521 C518 1.341 . S
N521 N520 1.365 . S
N521 H541 0.862 . S
C522 C517 1.501 . S
C522 H523 0.961 . S
C522 H524 0.961 . S
C522 H525 0.960 . S
H523 C522 0.961 . S
H524 C522 0.961 . S
H525 C522 0.960 . S
C526 N527 1.342 . S
C526 C530 1.401 . S
C526 C531 1.499 . S
N527 Co510 1.989 . S
N527 C526 1.342 . S
N527 N528 1.388 . S
N528 Co511 1.993 . S
N528 N527 1.388 . S
N528 C529 1.346 . S
C529 N528 1.346 . S
C529 C530 1.396 . S
C529 C539 1.510 . S
C530 C526 1.401 . S
C530 C529 1.396 . S
C531 C526 1.499 . S
C531 H532 0.959 . S
C531 H533 0.960 . S
C531 H534 0.961 . S
H532 C531 0.959 . S
H533 C531 0.960 . S
H534 C531 0.961 . S
O535 Co510 1.967 . S
O535 C543 1.258 . S
O536 Co511 1.941 . S
O536 C543 1.266 . S
H537 C539 0.959 . S
H538 C539 0.961 . S
C539 C529 1.510 . S
C539 H537 0.959 . S
C539 H538 0.961 . S
C539 H540 0.960 . S
H540 C539 0.960 . S
H541 N521 0.862 . S
O542 Co510 1.920 . S
O542 C515 1.289 . S
C543 O535 1.258 . S
C543 O536 1.266 . S
C544 C545 1.387 . S
C544 H548 0.950 . S
C544 C553 1.390 . S
C545 C544 1.387 . S
C545 C547 1.387 . S
H546 C553 0.950 . S
C547 C545 1.387 . S
C547 C549 1.390 . S
C547 H551 0.950 . S
H548 C544 0.950 . S
C549 C547 1.390 . S
C549 C550 1.387 . S
C549 H552 0.950 . S
C550 C549 1.387 . S
C550 C553 1.387 . S
H551 C547 0.950 . S
H552 C549 0.950 . S
C553 C544 1.390 . S
C553 H546 0.950 . S
C553 C550 1.387 . S
C554 C555 1.387 . S
C554 H558 0.950 . S
C554 C563 1.390 . S
C555 C554 1.387 . S
C555 C557 1.387 . S
H556 C563 0.950 . S
C557 C555 1.387 . S
C557 C559 1.390 . S
C557 H561 0.950 . S
H558 C554 0.950 . S
C559 C557 1.390 . S
C559 C560 1.387 . S
C559 H562 0.950 . S
C560 C559 1.387 . S
C560 C563 1.387 . S
H561 C557 0.950 . S
H562 C559 0.950 . S
C563 C554 1.390 . S
C563 H556 0.950 . S
C563 C560 1.387 . S
C564 C565 1.387 . S
C564 H568 0.950 . S
C564 C573 1.390 . S
C565 C564 1.387 . S
C565 C567 1.387 . S
H566 C573 0.950 . S
C567 C565 1.387 . S
C567 C569 1.390 . S
C567 H571 0.950 . S
H568 C564 0.950 . S
C569 C567 1.390 . S
C569 C570 1.387 . S
C569 H572 0.950 . S
C570 C569 1.387 . S
C570 C573 1.387 . S
H571 C567 0.950 . S
H572 C569 0.950 . S
C573 C564 1.390 . S
C573 H566 0.950 . S
C573 C570 1.387 . S
C574 C575 1.387 . S
C574 H578 0.950 . S
C574 C583 1.390 . S
C575 C574 1.387 . S
C575 C577 1.387 . S
H576 C583 0.950 . S
C577 C575 1.387 . S
C577 C579 1.390 . S
C577 H581 0.950 . S
H578 C574 0.950 . S
C579 C577 1.390 . S
C579 C580 1.387 . S
C579 H582 0.950 . S
C580 C579 1.387 . S
C580 C583 1.387 . S
H581 C577 0.950 . S
H582 C579 0.950 . S
C583 C574 1.390 . S
C583 H576 0.950 . S
C583 C580 1.387 . S
C584 C585 1.387 1_556 S
C584 H588 0.950 1_556 S
C584 C593 1.390 . S
C585 C584 1.387 1_554 S
C585 C587 1.387 . S
H586 C593 0.950 . S
C587 C585 1.387 . S
C587 C589 1.390 1_554 S
C587 H591 0.950 . S
H588 C584 0.950 1_554 S
C589 C587 1.390 1_556 S
C589 C590 1.387 . S
C589 H592 0.950 . S
C590 C589 1.387 . S
C590 C593 1.387 . S
H591 C587 0.950 . S
H592 C589 0.950 . S
C593 C584 1.390 . S
C593 H586 0.950 . S
C593 C590 1.387 . S
C594 C595 1.387 1_554 S
C594 H598 0.950 . S
C594 C603 1.390 . S
C595 C594 1.387 1_556 S
C595 C597 1.387 . S
H596 C603 0.950 . S
C597 C595 1.387 . S
C597 C599 1.390 1_556 S
C597 H601 0.950 . S
H598 C594 0.950 . S
C599 C597 1.390 1_554 S
C599 C600 1.387 . S
C599 H602 0.950 . S
C600 C599 1.387 . S
C600 C603 1.387 . S
H601 C597 0.950 . S
H602 C599 0.950 . S
C603 C594 1.390 . S
C603 H596 0.950 . S
C603 C600 1.387 . S
C604 C605 1.387 . S
C604 H608 0.950 . S
C604 C613 1.390 1_556 S
C605 C604 1.387 . S
C605 C607 1.387 . S
H606 C613 0.950 . S
C607 C605 1.387 . S
C607 C609 1.390 . S
C607 H611 0.950 . S
H608 C604 0.950 . S
C609 C607 1.390 . S
C609 C610 1.387 1_556 S
C609 H612 0.950 . S
C610 C609 1.387 1_554 S
C610 C613 1.387 . S
H611 C607 0.950 . S
H612 C609 0.950 . S
C613 C604 1.390 1_554 S
C613 H606 0.950 . S
C613 C610 1.387 . S
C614 C615 1.387 . S
C614 H618 0.950 . S
C614 C623 1.390 . S
C615 C614 1.387 . S
C615 C617 1.387 . S
H616 C623 0.950 1_556 S
C617 C615 1.387 . S
C617 C619 1.390 1_554 S
C617 H621 0.950 . S
H618 C614 0.950 . S
C619 C617 1.390 1_556 S
C619 C620 1.387 . S
C619 H622 0.950 . S
C620 C619 1.387 . S
C620 C623 1.387 1_556 S
H621 C617 0.950 . S
H622 C619 0.950 . S
C623 C614 1.390 . S
C623 H616 0.950 1_554 S
C623 C620 1.387 1_554 S
C624 C625 1.387 . S
C624 H628 0.950 . S
C624 C633 1.390 . S
C625 C624 1.387 . S
C625 C627 1.387 . S
H626 C633 0.950 . S
C627 C625 1.387 . S
C627 C629 1.390 . S
C627 H631 0.950 . S
H628 C624 0.950 . S
C629 C627 1.390 . S
C629 C630 1.387 . S
C629 H632 0.950 . S
C630 C629 1.387 . S
C630 C633 1.387 . S
H631 C627 0.950 . S
H632 C629 0.950 . S
C633 C624 1.390 . S
C633 H626 0.950 . S
C633 C630 1.387 . S
C634 C635 1.387 . S
C634 H638 0.950 . S
C634 C643 1.390 . S
C635 C634 1.387 . S
C635 C637 1.387 . S
H636 C643 0.950 . S
C637 C635 1.387 . S
C637 C639 1.390 . S
C637 H641 0.950 . S
H638 C634 0.950 . S
C639 C637 1.390 . S
C639 C640 1.387 . S
C639 H642 0.950 . S
C640 C639 1.387 . S
C640 C643 1.387 . S
H641 C637 0.950 . S
H642 C639 0.950 . S
C643 C634 1.390 . S
C643 H636 0.950 . S
C643 C640 1.387 . S
C644 C645 1.387 . S
C644 H648 0.950 . S
C644 C653 1.390 . S
C645 C644 1.387 . S
C645 C647 1.387 . S
H646 C653 0.950 . S
C647 C645 1.387 . S
C647 C649 1.390 . S
C647 H651 0.950 . S
H648 C644 0.950 . S
C649 C647 1.390 . S
C649 C650 1.387 . S
C649 H652 0.950 . S
C650 C649 1.387 . S
C650 C653 1.387 . S
H651 C647 0.950 . S
H652 C649 0.950 . S
C653 C644 1.390 . S
C653 H646 0.950 . S
C653 C650 1.387 . S
C654 C655 1.387 . S
C654 H658 0.950 . S
C654 C663 1.390 . S
C655 C654 1.387 . S
C655 C657 1.387 . S
H656 C663 0.950 . S
C657 C655 1.387 . S
C657 C659 1.390 . S
C657 H661 0.950 . S
H658 C654 0.950 . S
C659 C657 1.390 . S
C659 C660 1.387 . S
C659 H662 0.950 . S
C660 C659 1.387 . S
C660 C663 1.387 . S
H661 C657 0.950 . S
H662 C659 0.950 . S
C663 C654 1.390 . S
C663 H656 0.950 . S
C663 C660 1.387 . S
C664 C665 1.387 . S
C664 H668 0.950 . S
C664 C673 1.390 . S
C665 C664 1.387 . S
C665 C667 1.387 . S
H666 C673 0.950 . S
C667 C665 1.387 . S
C667 C669 1.390 . S
C667 H671 0.950 . S
H668 C664 0.950 . S
C669 C667 1.390 . S
C669 C670 1.387 . S
C669 H672 0.950 . S
C670 C669 1.387 . S
C670 C673 1.387 . S
H671 C667 0.950 . S
H672 C669 0.950 . S
C673 C664 1.390 . S
C673 H666 0.950 . S
C673 C670 1.387 . S
C674 C675 1.387 . S
C674 H678 0.950 . S
C674 C683 1.390 . S
C675 C674 1.387 . S
C675 C677 1.387 . S
H676 C683 0.950 . S
C677 C675 1.387 . S
C677 C679 1.390 . S
C677 H681 0.950 . S
H678 C674 0.950 . S
C679 C677 1.390 . S
C679 C680 1.387 . S
C679 H682 0.950 . S
C680 C679 1.387 . S
C680 C683 1.387 . S
H681 C677 0.950 . S
H682 C679 0.950 . S
C683 C674 1.390 . S
C683 H676 0.950 . S
C683 C680 1.387 . S
C684 C685 1.387 . S
C684 H688 0.950 . S
C684 C693 1.390 . S
C685 C684 1.387 . S
C685 C687 1.387 . S
H686 C693 0.950 . S
C687 C685 1.387 . S
C687 C689 1.390 . S
C687 H691 0.950 . S
H688 C684 0.950 . S
C689 C687 1.390 . S
C689 C690 1.387 . S
C689 H692 0.950 . S
C690 C689 1.387 . S
C690 C693 1.387 . S
H691 C687 0.950 . S
H692 C689 0.950 . S
C693 C684 1.390 . S
C693 H686 0.950 . S
C693 C690 1.387 . S
C694 C695 1.387 . S
C694 H698 0.950 . S
C694 C703 1.390 . S
C695 C694 1.387 . S
C695 C697 1.387 . S
H696 C703 0.950 . S
C697 C695 1.387 . S
C697 C699 1.390 . S
C697 H701 0.950 . S
H698 C694 0.950 . S
C699 C697 1.390 . S
C699 C700 1.387 . S
C699 H702 0.950 . S
C700 C699 1.387 . S
C700 C703 1.387 . S
H701 C697 0.950 . S
H702 C699 0.950 . S
C703 C694 1.390 . S
C703 H696 0.950 . S
C703 C700 1.387 . S
C704 C705 1.387 . S
C704 H708 0.950 . S
C704 C713 1.390 1_445 S
C705 C704 1.387 . S
C705 C707 1.387 . S
H706 C713 0.950 . S
C707 C705 1.387 . S
C707 C709 1.390 1_445 S
C707 H711 0.950 . S
H708 C704 0.950 . S
C709 C707 1.390 1_665 S
C709 C710 1.387 . S
C709 H712 0.950 . S
C710 C709 1.387 . S
C710 C713 1.387 . S
H711 C707 0.950 . S
H712 C709 0.950 . S
C713 C704 1.390 1_665 S
C713 H706 0.950 . S
C713 C710 1.387 . S
C714 C715 1.387 . S
C714 H718 0.950 . S
C714 C723 1.390 1_465 S
C715 C714 1.387 . S
C715 C717 1.387 . S
H716 C723 0.950 . S
C717 C715 1.387 . S
C717 C719 1.390 1_465 S
C717 H721 0.950 . S
H718 C714 0.950 . S
C719 C717 1.390 1_645 S
C719 C720 1.387 . S
C719 H722 0.950 . S
C720 C719 1.387 . S
C720 C723 1.387 . S
H721 C717 0.950 . S
H722 C719 0.950 . S
C723 C714 1.390 1_645 S
C723 H716 0.950 . S
C723 C720 1.387 . S
C724 C725 1.387 . S
C724 H728 0.950 . S
C724 C733 1.390 1_655 S
C725 C724 1.387 . S
C725 C727 1.387 . S
H726 C733 0.950 . S
C727 C725 1.387 . S
C727 C729 1.390 1_655 S
C727 H731 0.950 . S
H728 C724 0.950 . S
C729 C727 1.390 1_455 S
C729 C730 1.387 . S
C729 H732 0.950 . S
C730 C729 1.387 . S
C730 C733 1.387 . S
H731 C727 0.950 . S
H732 C729 0.950 . S
C733 C724 1.390 1_455 S
C733 H726 0.950 . S
C733 C730 1.387 . S
C734 C735 1.387 . S
C734 H738 0.950 . S
C734 C743 1.390 1_545 S
C735 C734 1.387 . S
C735 C737 1.387 . S
H736 C743 0.950 . S
C737 C735 1.387 . S
C737 C739 1.390 1_545 S
C737 H741 0.950 . S
H738 C734 0.950 . S
C739 C737 1.390 1_565 S
C739 C740 1.387 . S
C739 H742 0.950 . S
C740 C739 1.387 . S
C740 C743 1.387 . S
H741 C737 0.950 . S
H742 C739 0.950 . S
C743 C734 1.390 1_565 S
C743 H736 0.950 . S
C743 C740 1.387 . S
C744 C745 1.387 . S
C744 H748 0.950 . S
C744 C753 1.390 . S
C745 C744 1.387 . S
C745 C747 1.387 . S
H746 C753 0.950 . S
C747 C745 1.387 . S
C747 C749 1.390 . S
C747 H751 0.950 . S
H748 C744 0.950 . S
C749 C747 1.390 . S
C749 C750 1.387 . S
C749 H752 0.950 . S
C750 C749 1.387 . S
C750 C753 1.387 . S
H751 C747 0.950 . S
H752 C749 0.950 . S
C753 C744 1.390 . S
C753 H746 0.950 . S
C753 C750 1.387 . S
C754 C755 1.387 . S
C754 H758 0.950 . S
C754 C763 1.390 . S
C755 C754 1.387 . S
C755 C757 1.387 . S
H756 C763 0.950 . S
C757 C755 1.387 . S
C757 C759 1.390 . S
C757 H761 0.950 . S
H758 C754 0.950 . S
C759 C757 1.390 . S
C759 C760 1.387 . S
C759 H762 0.950 . S
C760 C759 1.387 . S
C760 C763 1.387 . S
H761 C757 0.950 . S
H762 C759 0.950 . S
C763 C754 1.390 . S
C763 H756 0.950 . S
C763 C760 1.387 . S
C764 C765 1.387 . S
C764 H768 0.950 . S
C764 C773 1.390 1_565 S
C765 C764 1.387 . S
C765 C767 1.387 . S
H766 C773 0.950 . S
C767 C765 1.387 . S
C767 C769 1.390 1_565 S
C767 H771 0.950 . S
H768 C764 0.950 . S
C769 C767 1.390 1_545 S
C769 C770 1.387 . S
C769 H772 0.950 . S
C770 C769 1.387 . S
C770 C773 1.387 . S
H771 C767 0.950 . S
H772 C769 0.950 . S
C773 C764 1.390 1_545 S
C773 H766 0.950 . S
C773 C770 1.387 . S
C774 C775 1.387 . S
C774 H778 0.950 . S
C774 C783 1.390 1_455 S
C775 C774 1.387 . S
C775 C777 1.387 . S
H776 C783 0.950 . S
C777 C775 1.387 . S
C777 C779 1.390 1_455 S
C777 H781 0.950 . S
H778 C774 0.950 . S
C779 C777 1.390 1_655 S
C779 C780 1.387 . S
C779 H782 0.950 . S
C780 C779 1.387 . S
C780 C783 1.387 . S
H781 C777 0.950 . S
H782 C779 0.950 . S
C783 C774 1.390 1_655 S
C783 H776 0.950 . S
C783 C780 1.387 . S
C784 C785 1.387 . S
C784 H788 0.950 . S
C784 C793 1.390 1_655 S
C785 C784 1.387 . S
C785 C787 1.387 . S
H786 C793 0.950 . S
C787 C785 1.387 . S
C787 C789 1.390 1_655 S
C787 H791 0.950 . S
H788 C784 0.950 . S
C789 C787 1.390 1_455 S
C789 C790 1.387 . S
C789 H792 0.950 . S
C790 C789 1.387 . S
C790 C793 1.387 . S
H791 C787 0.950 . S
H792 C789 0.950 . S
C793 C784 1.390 1_455 S
C793 H786 0.950 . S
C793 C790 1.387 . S
C794 C795 1.387 . S
C794 H798 0.950 . S
C794 C803 1.390 1_565 S
C795 C794 1.387 . S
C795 C797 1.387 . S
H796 C803 0.950 . S
C797 C795 1.387 . S
C797 C799 1.390 1_565 S
C797 H801 0.950 . S
H798 C794 0.950 . S
C799 C797 1.390 1_545 S
C799 C800 1.387 . S
C799 H802 0.950 . S
C800 C799 1.387 . S
C800 C803 1.387 . S
H801 C797 0.950 . S
H802 C799 0.950 . S
C803 C794 1.390 1_545 S
C803 H796 0.950 . S
C803 C800 1.387 . S
C804 C805 1.387 . S
C804 H808 0.950 . S
C804 C813 1.390 1_445 S
C805 C804 1.387 . S
C805 C807 1.387 . S
H806 C813 0.950 . S
C807 C805 1.387 . S
C807 C809 1.390 1_445 S
C807 H811 0.950 . S
H808 C804 0.950 . S
C809 C807 1.390 1_665 S
C809 C810 1.387 . S
C809 H812 0.950 . S
C810 C809 1.387 . S
C810 C813 1.387 . S
H811 C807 0.950 . S
H812 C809 0.950 . S
C813 C804 1.390 1_665 S
C813 H806 0.950 . S
C813 C810 1.387 . S
C814 C815 1.387 . S
C814 H818 0.950 . S
C814 C823 1.390 1_645 S
C815 C814 1.387 . S
C815 C817 1.387 . S
H816 C823 0.950 . S
C817 C815 1.387 . S
C817 C819 1.390 1_645 S
C817 H821 0.950 . S
H818 C814 0.950 . S
C819 C817 1.390 1_465 S
C819 C820 1.387 . S
C819 H822 0.950 . S
C820 C819 1.387 . S
C820 C823 1.387 . S
H821 C817 0.950 . S
H822 C819 0.950 . S
C823 C814 1.390 1_465 S
C823 H816 0.950 . S
C823 C820 1.387 . S
C824 C825 1.387 . S
C824 H828 0.950 . S
C824 C833 1.390 1_545 S
C825 C824 1.387 . S
C825 C827 1.387 . S
H826 C833 0.950 . S
C827 C825 1.387 . S
C827 C829 1.390 1_545 S
C827 H831 0.950 . S
H828 C824 0.950 . S
C829 C827 1.390 1_565 S
C829 C830 1.387 . S
C829 H832 0.950 . S
C830 C829 1.387 . S
C830 C833 1.387 . S
H831 C827 0.950 . S
H832 C829 0.950 . S
C833 C824 1.390 1_565 S
C833 H826 0.950 . S
C833 C830 1.387 . S
C834 C835 1.387 . S
C834 H838 0.950 . S
C834 C843 1.390 1_655 S
C835 C834 1.387 . S
C835 C837 1.387 . S
H836 C843 0.950 . S
C837 C835 1.387 . S
C837 C839 1.390 1_655 S
C837 H841 0.950 . S
H838 C834 0.950 . S
C839 C837 1.390 1_455 S
C839 C840 1.387 . S
C839 H842 0.950 . S
C840 C839 1.387 . S
C840 C843 1.387 . S
H841 C837 0.950 . S
H842 C839 0.950 . S
C843 C834 1.390 1_455 S
C843 H836 0.950 . S
C843 C840 1.387 . S
C844 C845 1.387 . S
C844 H848 0.950 . S
C844 C853 1.390 . S
C845 C844 1.387 . S
C845 C847 1.387 . S
H846 C853 0.950 . S
C847 C845 1.387 . S
C847 C849 1.390 . S
C847 H851 0.950 . S
H848 C844 0.950 . S
C849 C847 1.390 . S
C849 C850 1.387 . S
C849 H852 0.950 . S
C850 C849 1.387 . S
C850 C853 1.387 . S
H851 C847 0.950 . S
H852 C849 0.950 . S
C853 C844 1.390 . S
C853 H846 0.950 . S
C853 C850 1.387 . S
C854 C855 1.387 . S
C854 H858 0.950 . S
C854 C863 1.390 . S
C855 C854 1.387 . S
C855 C857 1.387 . S
H856 C863 0.950 . S
C857 C855 1.387 . S
C857 C859 1.390 . S
C857 H861 0.950 . S
H858 C854 0.950 . S
C859 C857 1.390 . S
C859 C860 1.387 . S
C859 H862 0.950 . S
C860 C859 1.387 . S
C860 C863 1.387 . S
H861 C857 0.950 . S
H862 C859 0.950 . S
C863 C854 1.390 . S
C863 H856 0.950 . S
C863 C860 1.387 . S
C864 C865 1.387 . S
C864 H868 0.950 . S
C864 C873 1.390 . S
C865 C864 1.387 . S
C865 C867 1.387 . S
H866 C873 0.950 . S
C867 C865 1.387 . S
C867 C869 1.390 . S
C867 H871 0.950 . S
H868 C864 0.950 . S
C869 C867 1.390 . S
C869 C870 1.387 . S
C869 H872 0.950 . S
C870 C869 1.387 . S
C870 C873 1.387 . S
H871 C867 0.950 . S
H872 C869 0.950 . S
C873 C864 1.390 . S
C873 H866 0.950 . S
C873 C870 1.387 . S
C874 C875 1.387 . S
C874 H878 0.950 . S
C874 C883 1.390 . S
C875 C874 1.387 . S
C875 C877 1.387 . S
H876 C883 0.950 . S
C877 C875 1.387 . S
C877 C879 1.390 . S
C877 H881 0.950 . S
H878 C874 0.950 . S
C879 C877 1.390 . S
C879 C880 1.387 . S
C879 H882 0.950 . S
C880 C879 1.387 . S
C880 C883 1.387 . S
H881 C877 0.950 . S
H882 C879 0.950 . S
C883 C874 1.390 . S
C883 H876 0.950 . S
C883 C880 1.387 . S
C884 C885 1.387 . S
C884 H888 0.950 . S
C884 C893 1.390 . S
C885 C884 1.387 . S
C885 C887 1.387 . S
H886 C893 0.950 . S
C887 C885 1.387 . S
C887 C889 1.390 . S
C887 H891 0.950 . S
H888 C884 0.950 . S
C889 C887 1.390 . S
C889 C890 1.387 . S
C889 H892 0.950 . S
C890 C889 1.387 . S
C890 C893 1.387 . S
H891 C887 0.950 . S
H892 C889 0.950 . S
C893 C884 1.390 . S
C893 H886 0.950 . S
C893 C890 1.387 . S
C894 C895 1.387 . S
C894 H898 0.950 . S
C894 C903 1.390 . S
C895 C894 1.387 . S
C895 C897 1.387 . S
H896 C903 0.950 . S
C897 C895 1.387 . S
C897 C899 1.390 . S
C897 H901 0.950 . S
H898 C894 0.950 . S
C899 C897 1.390 . S
C899 C900 1.387 . S
C899 H902 0.950 . S
C900 C899 1.387 . S
C900 C903 1.387 . S
H901 C897 0.950 . S
H902 C899 0.950 . S
C903 C894 1.390 . S
C903 H896 0.950 . S
C903 C900 1.387 . S
C904 C905 1.387 . S
C904 H908 0.950 . S
C904 C913 1.390 . S
C905 C904 1.387 . S
C905 C907 1.387 . S
H906 C913 0.950 . S
C907 C905 1.387 . S
C907 C909 1.390 . S
C907 H911 0.950 . S
H908 C904 0.950 . S
C909 C907 1.390 . S
C909 C910 1.387 . S
C909 H912 0.950 . S
C910 C909 1.387 . S
C910 C913 1.387 . S
H911 C907 0.950 . S
H912 C909 0.950 . S
C913 C904 1.390 . S
C913 H906 0.950 . S
C913 C910 1.387 . S
C914 C915 1.387 . S
C914 H918 0.950 . S
C914 C923 1.390 . S
C915 C914 1.387 . S
C915 C917 1.387 . S
H916 C923 0.950 . S
C917 C915 1.387 . S
C917 C919 1.390 . S
C917 H921 0.950 . S
H918 C914 0.950 . S
C919 C917 1.390 . S
C919 C920 1.387 . S
C919 H922 0.950 . S
C920 C919 1.387 . S
C920 C923 1.387 . S
H921 C917 0.950 . S
H922 C919 0.950 . S
C923 C914 1.390 . S
C923 H916 0.950 . S
C923 C920 1.387 . S
C924 C925 1.387 . S
C924 H928 0.950 . S
C924 C933 1.390 . S
C925 C924 1.387 . S
C925 C927 1.387 . S
H926 C933 0.950 . S
C927 C925 1.387 . S
C927 C929 1.390 . S
C927 H931 0.950 . S
H928 C924 0.950 . S
C929 C927 1.390 . S
C929 C930 1.387 . S
C929 H932 0.950 . S
C930 C929 1.387 . S
C930 C933 1.387 . S
H931 C927 0.950 . S
H932 C929 0.950 . S
C933 C924 1.390 . S
C933 H926 0.950 . S
C933 C930 1.387 . S
C934 C935 1.387 . S
C934 H938 0.950 . S
C934 C943 1.390 . S
C935 C934 1.387 . S
C935 C937 1.387 . S
H936 C943 0.950 . S
C937 C935 1.387 . S
C937 C939 1.390 . S
C937 H941 0.950 . S
H938 C934 0.950 . S
C939 C937 1.390 . S
C939 C940 1.387 . S
C939 H942 0.950 . S
C940 C939 1.387 . S
C940 C943 1.387 . S
H941 C937 0.950 . S
H942 C939 0.950 . S
C943 C934 1.390 . S
C943 H936 0.950 . S
C943 C940 1.387 . S
C545 C33 1.076 . S
C550 C379 1.057 . S
C555 C277 1.059 . S
C560 C67 1.076 . S
C565 C311 1.055 . S
C570 C101 1.077 . S
C575 C345 1.058 . S
C580 C135 1.076 . S
C585 C175 1.057 . S
C590 C169 1.077 . S
C595 C209 1.055 . S
C600 C203 1.077 . S
C605 C237 1.077 . S
C610 C243 1.055 . S
C615 C271 1.076 . S
C620 C141 1.057 . S
C625 C305 1.076 . S
C630 C107 1.058 . S
C635 C339 1.077 . S
C640 C5 1.057 . S
C645 C39 1.056 . S
C650 C373 1.078 . S
C655 C407 1.077 . S
C660 C73 1.055 . S
C665 C447 1.055 . S
C670 C441 1.077 . S
C675 C481 1.058 . S
C680 C475 1.076 . S
C685 C515 1.055 . S
C690 C509 1.077 . S
C695 C543 1.077 . S
C700 C413 1.057 . S
C705 C20 1.390 . S
C710 C88 1.390 . S
C715 C54 1.390 . S
C720 C122 1.390 . S
C725 C224 1.390 . S
C730 C156 1.390 . S
C735 C258 1.390 . S
C740 C190 1.390 . S
C745 C360 1.390 . S
C750 C292 1.390 . S
C755 C326 1.390 . S
C760 C394 1.390 . S
C765 C428 1.390 . S
C770 C496 1.390 . S
C775 C530 1.390 . S
C780 C462 1.390 . S
C785 C70 1.393 . S
C790 C2 1.393 . S
C795 C36 1.394 . S
C800 C104 1.394 . S
C805 C138 1.394 . S
C810 C206 1.394 . S
C815 C240 1.393 . S
C820 C172 1.393 . S
C825 C342 1.394 . S
C830 C274 1.394 . S
C835 C308 1.394 . S
C840 C376 1.394 . S
C845 C410 1.393 . S
C850 C478 1.393 . S
C855 C512 1.394 . S
C860 C444 1.394 . S
C865 C485 1.472 . S
C870 C9 1.472 . S
C875 C43 1.472 . S
C880 C519 1.472 . S
C885 C77 1.473 . S
C890 C417 1.473 . S
C895 C111 1.473 . S
C900 C451 1.473 . S
C905 C145 1.469 . S
C910 C349 1.469 . S
C915 C383 1.469 . S
C920 C179 1.469 . S
C925 C213 1.472 . S
C930 C281 1.472 . S
C935 C247 1.472 . S
C940 C315 1.472 . S
