# Generated by pormake.
# Topology gsi, (4)-cn, num edge types: 1
# Building blocks:
#     Node 0, Type 0, BuildingBlock: KUFVIS_clean_sbu_0, # of connection points: 4
#     Node 1, Type 0, BuildingBlock: KUFVIS_clean_sbu_0, # of connection points: 4
#     Node 2, Type 0, BuildingBlock: KUFVIS_clean_sbu_0, # of connection points: 4
#     Node 3, Type 0, BuildingBlock: KUFVIS_clean_sbu_0, # of connection points: 4
#     Node 4, Type 0, BuildingBlock: KUFVIS_clean_sbu_0, # of connection points: 4
#     Node 5, Type 0, BuildingBlock: KUFVIS_clean_sbu_0, # of connection points: 4
#     Node 6, Type 0, BuildingBlock: KUFVIS_clean_sbu_0, # of connection points: 4
#     Node 7, Type 0, BuildingBlock: KUFVIS_clean_sbu_0, # of connection points: 4
#     Node 8, Type 0, BuildingBlock: KUFVIS_clean_sbu_0, # of connection points: 4
#     Node 9, Type 0, BuildingBlock: KUFVIS_clean_sbu_0, # of connection points: 4
#     Node 10, Type 0, BuildingBlock: KUFVIS_clean_sbu_0, # of connection points: 4
#     Node 11, Type 0, BuildingBlock: KUFVIS_clean_sbu_0, # of connection points: 4
#     Node 12, Type 0, BuildingBlock: KUFVIS_clean_sbu_0, # of connection points: 4
#     Node 13, Type 0, BuildingBlock: KUFVIS_clean_sbu_0, # of connection points: 4
#     Node 14, Type 0, BuildingBlock: KUFVIS_clean_sbu_0, # of connection points: 4
#     Node 15, Type 0, BuildingBlock: KUFVIS_clean_sbu_0, # of connection points: 4
#     Edge 16, Type (0, 0), BuildingBlock: UVAHIK_clean_linker_0, # of connection points: 2
#     Edge 17, Type (0, 0), BuildingBlock: UVAHIK_clean_linker_0, # of connection points: 2
#     Edge 18, Type (0, 0), BuildingBlock: UVAHIK_clean_linker_0, # of connection points: 2
#     Edge 19, Type (0, 0), BuildingBlock: UVAHIK_clean_linker_0, # of connection points: 2
#     Edge 20, Type (0, 0), BuildingBlock: UVAHIK_clean_linker_0, # of connection points: 2
#     Edge 21, Type (0, 0), BuildingBlock: UVAHIK_clean_linker_0, # of connection points: 2
#     Edge 22, Type (0, 0), BuildingBlock: UVAHIK_clean_linker_0, # of connection points: 2
#     Edge 23, Type (0, 0), BuildingBlock: UVAHIK_clean_linker_0, # of connection points: 2
#     Edge 24, Type (0, 0), BuildingBlock: UVAHIK_clean_linker_0, # of connection points: 2
#     Edge 25, Type (0, 0), BuildingBlock: UVAHIK_clean_linker_0, # of connection points: 2
#     Edge 26, Type (0, 0), BuildingBlock: UVAHIK_clean_linker_0, # of connection points: 2
#     Edge 27, Type (0, 0), BuildingBlock: UVAHIK_clean_linker_0, # of connection points: 2
#     Edge 28, Type (0, 0), BuildingBlock: UVAHIK_clean_linker_0, # of connection points: 2
#     Edge 29, Type (0, 0), BuildingBlock: UVAHIK_clean_linker_0, # of connection points: 2
#     Edge 30, Type (0, 0), BuildingBlock: UVAHIK_clean_linker_0, # of connection points: 2
#     Edge 31, Type (0, 0), BuildingBlock: UVAHIK_clean_linker_0, # of connection points: 2
#     Edge 32, Type (0, 0), BuildingBlock: UVAHIK_clean_linker_0, # of connection points: 2
#     Edge 33, Type (0, 0), BuildingBlock: UVAHIK_clean_linker_0, # of connection points: 2
#     Edge 34, Type (0, 0), BuildingBlock: UVAHIK_clean_linker_0, # of connection points: 2
#     Edge 35, Type (0, 0), BuildingBlock: UVAHIK_clean_linker_0, # of connection points: 2
#     Edge 36, Type (0, 0), BuildingBlock: UVAHIK_clean_linker_0, # of connection points: 2
#     Edge 37, Type (0, 0), BuildingBlock: UVAHIK_clean_linker_0, # of connection points: 2
#     Edge 38, Type (0, 0), BuildingBlock: UVAHIK_clean_linker_0, # of connection points: 2
#     Edge 39, Type (0, 0), BuildingBlock: UVAHIK_clean_linker_0, # of connection points: 2
#     Edge 40, Type (0, 0), BuildingBlock: UVAHIK_clean_linker_0, # of connection points: 2
#     Edge 41, Type (0, 0), BuildingBlock: UVAHIK_clean_linker_0, # of connection points: 2
#     Edge 42, Type (0, 0), BuildingBlock: UVAHIK_clean_linker_0, # of connection points: 2
#     Edge 43, Type (0, 0), BuildingBlock: UVAHIK_clean_linker_0, # of connection points: 2
#     Edge 44, Type (0, 0), BuildingBlock: UVAHIK_clean_linker_0, # of connection points: 2
#     Edge 45, Type (0, 0), BuildingBlock: UVAHIK_clean_linker_0, # of connection points: 2
#     Edge 46, Type (0, 0), BuildingBlock: UVAHIK_clean_linker_0, # of connection points: 2
#     Edge 47, Type (0, 0), BuildingBlock: UVAHIK_clean_linker_0, # of connection points: 2
# Relax obj value: 0.116
# Max RMSD: 0.168
# Mean RMSD: 0.121
data_MOF--net-gsi--node1-KUFVIS_clean_sbu_0--edge1-UVAHIK_clean_linker_0
_symmetry_space_group_name_H-M    P1
_symmetry_Int_Tables_number       1
_symmetry_cell_setting            triclinic
loop_
_symmetry_equiv_pos_as_xyz
'x, y, z'
_cell_length_a     54.668617
_cell_length_b     53.273788
_cell_length_c     53.289673
_cell_angle_alpha  92.50993
_cell_angle_beta   91.942558
_cell_angle_gamma 96.064719
loop_
_atom_site_label
_atom_site_type_symbol
_atom_site_fract_x
_atom_site_fract_y
_atom_site_fract_z
_atom_type_partial_charge
Mn0 Mn 0.15574 0.15226 0.14479 0.0
Mn1 Mn 0.153 0.16264 0.20764 0.0
C2 C 0.17687 0.18803 0.16483 0.0
C3 C 0.17476 0.13601 0.10961 0.0
C4 C 0.11165 0.17206 0.17092 0.0
O5 O 0.14359 0.11706 0.15664 0.0
O6 O 0.14336 0.12643 0.19837 0.0
C7 C 0.19377 0.13355 0.22323 0.0
N8 N 0.18334 0.15567 0.22337 0.0
C9 C 0.21655 0.1767 0.2498 0.0
C10 C 0.22758 0.15411 0.25004 0.0
C11 C 0.21618 0.13247 0.23661 0.0
C12 C 0.1943 0.17667 0.23598 0.0
H13 H 0.18506 0.11687 0.21295 0.0
C14 C 0.14018 0.11083 0.17929 0.0
O15 O 0.15194 0.1408 0.10838 0.0
O16 O 0.186 0.13942 0.13149 0.0
N17 N 0.16207 0.19689 0.21949 0.0
C18 C 0.14919 0.21725 0.21706 0.0
C19 C 0.15791 0.24033 0.22963 0.0
C20 C 0.17963 0.24218 0.24474 0.0
C21 C 0.19259 0.22098 0.24696 0.0
C22 C 0.18286 0.19841 0.2342 0.0
H23 H 0.1323 0.21588 0.20576 0.0
O24 O 0.1712 0.18771 0.14098 0.0
O25 O 0.1699 0.16759 0.17617 0.0
O26 O 0.12205 0.1654 0.1509 0.0
O27 O 0.12146 0.17106 0.19291 0.0
C28 C 0.21473 0.22133 0.26137 0.0
C29 C 0.22681 0.19927 0.26261 0.0
H30 H 0.24484 0.15318 0.26038 0.0
H31 H 0.22462 0.11499 0.23664 0.0
H32 H 0.14782 0.25662 0.22784 0.0
H33 H 0.18611 0.25995 0.25462 0.0
H34 H 0.22272 0.23851 0.27141 0.0
H35 H 0.24397 0.19987 0.27351 0.0
Mn36 Mn 0.85767 0.33853 0.16018 0.0
Mn37 Mn 0.8611 0.32318 0.22088 0.0
C38 C 0.83356 0.30368 0.17407 0.0
C39 C 0.8388 0.35863 0.12761 0.0
C40 C 0.9 0.31245 0.1836 0.0
O41 O 0.87333 0.37167 0.17791 0.0
O42 O 0.87376 0.3591 0.21782 0.0
C43 C 0.82413 0.35531 0.24006 0.0
N44 N 0.83219 0.33209 0.2368 0.0
C45 C 0.79751 0.31247 0.25799 0.0
C46 C 0.78891 0.33618 0.26168 0.0
C47 C 0.80224 0.35768 0.25259 0.0
C48 C 0.81931 0.31124 0.24515 0.0
H49 H 0.83429 0.3719 0.23311 0.0
C50 C 0.87771 0.37594 0.20158 0.0
O51 O 0.86092 0.35207 0.12575 0.0
O52 O 0.82855 0.3551 0.1489 0.0
N53 N 0.84893 0.28895 0.22666 0.0
C54 C 0.85954 0.26741 0.2213 0.0
C55 C 0.84856 0.24423 0.22927 0.0
C56 C 0.82695 0.24345 0.24288 0.0
C57 C 0.81654 0.26589 0.24846 0.0
C58 C 0.82837 0.28845 0.24012 0.0
H59 H 0.87627 0.2679 0.21106 0.0
O60 O 0.8386 0.30487 0.15053 0.0
O61 O 0.8433 0.32248 0.18854 0.0
O62 O 0.88981 0.32173 0.16466 0.0
O63 O 0.89101 0.3126 0.20545 0.0
C64 C 0.79479 0.26673 0.26178 0.0
C65 C 0.78523 0.29 0.26643 0.0
H66 H 0.77207 0.33808 0.27139 0.0
H67 H 0.79568 0.37604 0.25528 0.0
H68 H 0.85674 0.227 0.22495 0.0
H69 H 0.81846 0.22551 0.24887 0.0
H70 H 0.78511 0.24958 0.2683 0.0
H71 H 0.76835 0.29039 0.27638 0.0
Mn72 Mn 0.16441 0.86815 0.35495 0.0
Mn73 Mn 0.16479 0.80735 0.37085 0.0
C74 C 0.19338 0.84366 0.33908 0.0
C75 C 0.15138 0.89875 0.32869 0.0
C76 C 0.18427 0.85201 0.4057 0.0
O77 O 0.1299 0.85963 0.3684 0.0
O78 O 0.13196 0.81854 0.37623 0.0
C79 C 0.13016 0.78318 0.33079 0.0
N80 N 0.15269 0.78532 0.34288 0.0
C81 C 0.16591 0.75217 0.31613 0.0
C82 C 0.1428 0.74952 0.30348 0.0
C83 C 0.12489 0.76515 0.31079 0.0
C84 C 0.17013 0.77054 0.33584 0.0
H85 H 0.11634 0.79517 0.33635 0.0
C86 C 0.1204 0.83816 0.37534 0.0
O87 O 0.15957 0.9045 0.35159 0.0
O88 O 0.14978 0.87506 0.32138 0.0
N89 N 0.19551 0.79387 0.36633 0.0
C90 C 0.21708 0.7993 0.38003 0.0
C91 C 0.2369 0.78532 0.37513 0.0
C92 C 0.2343 0.76576 0.35638 0.0
C93 C 0.21192 0.76046 0.34257 0.0
C94 C 0.19272 0.77487 0.34846 0.0
H95 H 0.21912 0.81413 0.39466 0.0
O96 O 0.19746 0.86812 0.33976 0.0
O97 O 0.17259 0.83435 0.34763 0.0
O98 O 0.18071 0.86926 0.3905 0.0
O99 O 0.17814 0.82851 0.40053 0.0
C100 C 0.20793 0.74153 0.32311 0.0
C101 C 0.185 0.73751 0.30979 0.0
H102 H 0.13866 0.73564 0.28804 0.0
H103 H 0.10704 0.76329 0.30105 0.0
H104 H 0.25412 0.78952 0.38586 0.0
H105 H 0.2496 0.75495 0.35276 0.0
H106 H 0.22246 0.73015 0.31806 0.0
H107 H 0.18227 0.72314 0.29464 0.0
Mn108 Mn 0.84799 0.654 0.36041 0.0
Mn109 Mn 0.86068 0.66307 0.29954 0.0
C110 C 0.83144 0.68568 0.33921 0.0
C111 C 0.82432 0.63617 0.39238 0.0
C112 C 0.89527 0.68377 0.3425 0.0
O113 O 0.86065 0.62046 0.34956 0.0
O114 O 0.87089 0.6306 0.31048 0.0
C115 C 0.82493 0.62132 0.27804 0.0
N116 N 0.83416 0.64613 0.27892 0.0
C117 C 0.80733 0.6546 0.24432 0.0
C118 C 0.79761 0.62912 0.24296 0.0
C119 C 0.80633 0.61245 0.26002 0.0
C120 C 0.8255 0.66244 0.26298 0.0
H121 H 0.83175 0.60837 0.29092 0.0
C122 C 0.86987 0.61546 0.32844 0.0
O123 O 0.84723 0.64498 0.39637 0.0
O124 O 0.81553 0.6364 0.36946 0.0
N125 N 0.85202 0.69335 0.28517 0.0
C126 C 0.86303 0.71742 0.28923 0.0
C127 C 0.85629 0.73647 0.27383 0.0
C128 C 0.83881 0.73046 0.25397 0.0
C129 C 0.82803 0.70548 0.24985 0.0
C130 C 0.83528 0.68736 0.26599 0.0
H131 H 0.87683 0.72206 0.30415 0.0
O132 O 0.83379 0.68692 0.36354 0.0
O133 O 0.83853 0.66578 0.3277 0.0
O134 O 0.88292 0.67308 0.35979 0.0
O135 O 0.88838 0.68159 0.31932 0.0
C136 C 0.8104 0.69782 0.23035 0.0
C137 C 0.79981 0.67248 0.2278 0.0
H138 H 0.78344 0.62215 0.22891 0.0
H139 H 0.7989 0.59277 0.25913 0.0
H140 H 0.86472 0.7557 0.27709 0.0
H141 H 0.83378 0.74518 0.24202 0.0
H142 H 0.80465 0.71133 0.21735 0.0
H143 H 0.78598 0.66694 0.21299 0.0
Mn144 Mn 0.35903 0.83943 0.66022 0.0
Mn145 Mn 0.36307 0.82369 0.72074 0.0
C146 C 0.33574 0.80391 0.6739 0.0
C147 C 0.33943 0.85929 0.62794 0.0
C148 C 0.40231 0.81458 0.68331 0.0
O149 O 0.37399 0.87276 0.67821 0.0
O150 O 0.3746 0.85993 0.71804 0.0
C151 C 0.32494 0.85417 0.74022 0.0
N152 N 0.3338 0.83136 0.73675 0.0
C153 C 0.2996 0.81031 0.75755 0.0
C154 C 0.29017 0.83358 0.76146 0.0
C155 C 0.30286 0.85559 0.75268 0.0
C156 C 0.32155 0.81003 0.74482 0.0
H157 H 0.33459 0.87114 0.73348 0.0
C158 C 0.37818 0.87696 0.70193 0.0
O159 O 0.36176 0.85336 0.6259 0.0
O160 O 0.32936 0.85529 0.64925 0.0
N161 N 0.352 0.78909 0.72612 0.0
C162 C 0.3633 0.76806 0.72044 0.0
C163 C 0.353 0.74446 0.72807 0.0
C164 C 0.33135 0.74275 0.74164 0.0
C165 C 0.32022 0.76469 0.74752 0.0
C166 C 0.33139 0.7877 0.73954 0.0
H167 H 0.38006 0.76927 0.71022 0.0
O168 O 0.34068 0.80545 0.65036 0.0
O169 O 0.34517 0.82277 0.68846 0.0
O170 O 0.39168 0.82349 0.66441 0.0
O171 O 0.39342 0.81441 0.7052 0.0
C172 C 0.29832 0.76459 0.76074 0.0
C173 C 0.28797 0.78737 0.76562 0.0
H174 H 0.27316 0.83474 0.77109 0.0
H175 H 0.29565 0.87361 0.75553 0.0
H176 H 0.36175 0.72763 0.72351 0.0
H177 H 0.32339 0.7245 0.74735 0.0
H178 H 0.28911 0.74706 0.76697 0.0
H179 H 0.27097 0.78704 0.77544 0.0
Mn180 Mn 0.86557 0.86012 0.85818 0.0
Mn181 Mn 0.83777 0.80202 0.86845 0.0
C182 C 0.85314 0.83161 0.82487 0.0
C183 C 0.86439 0.90259 0.84914 0.0
C184 C 0.89282 0.81585 0.87573 0.0
O185 O 0.85381 0.86476 0.89411 0.0
O186 O 0.83634 0.82497 0.89853 0.0
C187 C 0.78689 0.81592 0.872 0.0
N188 N 0.80326 0.80168 0.86106 0.0
C189 C 0.77143 0.77959 0.83365 0.0
C190 C 0.75421 0.79393 0.84471 0.0
C191 C 0.76201 0.81223 0.8639 0.0
C192 C 0.79601 0.78422 0.84239 0.0
H193 H 0.79277 0.82999 0.88677 0.0
C194 C 0.84223 0.84781 0.90685 0.0
O195 O 0.884 0.89467 0.85913 0.0
O196 O 0.84511 0.88621 0.84599 0.0
N197 N 0.83741 0.77791 0.84071 0.0
C198 C 0.8564 0.76601 0.83169 0.0
C199 C 0.85168 0.74699 0.81254 0.0
C200 C 0.8275 0.74027 0.80302 0.0
C201 C 0.80825 0.75277 0.8126 0.0
C202 C 0.81404 0.77142 0.83183 0.0
H203 H 0.87499 0.77093 0.83908 0.0
O204 O 0.87062 0.84963 0.82222 0.0
O205 O 0.84389 0.83058 0.84692 0.0
O206 O 0.89278 0.83897 0.87026 0.0
O207 O 0.87325 0.80046 0.8757 0.0
C208 C 0.78355 0.74745 0.80385 0.0
C209 C 0.76518 0.76098 0.81423 0.0
H210 H 0.73499 0.79111 0.83855 0.0
H211 H 0.74885 0.82343 0.87247 0.0
H212 H 0.86663 0.73745 0.80522 0.0
H213 H 0.82395 0.72545 0.78839 0.0
H214 H 0.7785 0.7331 0.78904 0.0
H215 H 0.7463 0.75692 0.80718 0.0
Mn216 Mn 0.15114 0.664 0.86376 0.0
Mn217 Mn 0.1795 0.72278 0.87583 0.0
C218 C 0.16191 0.68994 0.83123 0.0
C219 C 0.15277 0.62106 0.85396 0.0
C220 C 0.1247 0.70931 0.88161 0.0
O221 O 0.1646 0.66212 0.8999 0.0
O222 O 0.18313 0.70196 0.90546 0.0
C223 C 0.23081 0.70975 0.87974 0.0
N224 N 0.21358 0.72288 0.86878 0.0
C225 C 0.24341 0.74271 0.84168 0.0
C226 C 0.2615 0.72951 0.85277 0.0
C227 C 0.25514 0.7129 0.87183 0.0
C228 C 0.21945 0.73875 0.85029 0.0
H229 H 0.22605 0.69694 0.89438 0.0
C230 C 0.17751 0.67968 0.91312 0.0
O231 O 0.13326 0.62917 0.86335 0.0
O232 O 0.17163 0.63762 0.8519 0.0
N233 N 0.17786 0.74465 0.8484 0.0
C234 C 0.15807 0.75522 0.83895 0.0
C235 C 0.16126 0.77207 0.81949 0.0
C236 C 0.18476 0.77803 0.8101 0.0
C237 C 0.20486 0.76704 0.82023 0.0
C238 C 0.20058 0.75044 0.83964 0.0
H239 H 0.13998 0.75079 0.84613 0.0
O240 O 0.14435 0.67165 0.8278 0.0
O241 O 0.17216 0.69271 0.85361 0.0
O242 O 0.12429 0.68583 0.87532 0.0
O243 O 0.14442 0.72458 0.88274 0.0
C244 C 0.22895 0.77181 0.81174 0.0
C245 C 0.24818 0.7595 0.82231 0.0
H246 H 0.28028 0.73188 0.84672 0.0
H247 H 0.26898 0.70256 0.88042 0.0
H248 H 0.14564 0.78045 0.81175 0.0
H249 H 0.18713 0.79099 0.79505 0.0
H250 H 0.23284 0.78482 0.79699 0.0
H251 H 0.26657 0.76305 0.8154 0.0
Mn252 Mn 0.85768 0.15929 0.66817 0.0
Mn253 Mn 0.88693 0.18769 0.72045 0.0
C254 C 0.83574 0.17717 0.69941 0.0
C255 C 0.84071 0.16035 0.62738 0.0
C256 C 0.87766 0.13082 0.71207 0.0
O257 O 0.8932 0.16642 0.65707 0.0
O258 O 0.91037 0.18566 0.69305 0.0
C259 C 0.89883 0.23888 0.70162 0.0
N260 N 0.88782 0.22354 0.7187 0.0
C261 C 0.87396 0.25902 0.74153 0.0
C262 C 0.88525 0.2752 0.72427 0.0
C263 C 0.89768 0.26507 0.7042 0.0
C264 C 0.87573 0.23308 0.73803 0.0
H265 H 0.90839 0.2312 0.68615 0.0
C266 C 0.91153 0.17778 0.67009 0.0
O267 O 0.84671 0.13946 0.63633 0.0
O268 O 0.84583 0.18074 0.64161 0.0
N269 N 0.86604 0.19126 0.74822 0.0
C270 C 0.85509 0.17298 0.7625 0.0
C271 C 0.84133 0.17994 0.78297 0.0
C272 C 0.83913 0.20557 0.78866 0.0
C273 C 0.85075 0.22404 0.77384 0.0
C274 C 0.86429 0.216 0.75373 0.0
H275 H 0.85673 0.15325 0.75824 0.0
O276 O 0.82501 0.15942 0.68415 0.0
O277 O 0.85893 0.18354 0.69621 0.0
O278 O 0.86661 0.13086 0.69057 0.0
O279 O 0.88641 0.15098 0.72449 0.0
C280 C 0.84917 0.2501 0.77804 0.0
C281 C 0.86072 0.26757 0.76187 0.0
H282 H 0.88435 0.29541 0.72614 0.0
H283 H 0.90636 0.27742 0.69074 0.0
H284 H 0.8324 0.16556 0.7943 0.0
H285 H 0.82836 0.21085 0.80436 0.0
H286 H 0.83881 0.25688 0.79343 0.0
H287 H 0.85906 0.28753 0.76507 0.0
Mn288 Mn 0.17561 0.36324 0.66002 0.0
Mn289 Mn 0.14995 0.33348 0.70914 0.0
C290 C 0.20007 0.3496 0.6919 0.0
C291 C 0.19222 0.36293 0.62007 0.0
C292 C 0.15277 0.39009 0.70426 0.0
O293 O 0.14042 0.35183 0.64643 0.0
O294 O 0.12588 0.33191 0.68037 0.0
C295 C 0.14381 0.28128 0.68657 0.0
N296 N 0.15303 0.29811 0.70539 0.0
C297 C 0.17062 0.2655 0.72756 0.0
C298 C 0.16119 0.2478 0.70848 0.0
C299 C 0.14779 0.25575 0.68787 0.0
C300 C 0.16604 0.29068 0.72526 0.0
H301 H 0.13352 0.2873 0.67068 0.0
C302 C 0.12345 0.33903 0.65788 0.0
O303 O 0.18394 0.38299 0.62982 0.0
O304 O 0.18962 0.34277 0.63295 0.0
N305 N 0.17143 0.33325 0.73825 0.0
C306 C 0.18032 0.35289 0.7544 0.0
C307 C 0.19458 0.34822 0.77578 0.0
C308 C 0.19938 0.32343 0.78043 0.0
C309 C 0.18987 0.3035 0.76365 0.0
C310 C 0.17563 0.30927 0.74276 0.0
H311 H 0.17662 0.37198 0.75098 0.0
O312 O 0.20873 0.36763 0.67802 0.0
O313 O 0.17745 0.34032 0.68688 0.0
O314 O 0.16366 0.39072 0.68344 0.0
O315 O 0.14642 0.36968 0.71515 0.0
C316 C 0.19431 0.2782 0.76661 0.0
C317 C 0.18476 0.25922 0.74853 0.0
H318 H 0.1643 0.22811 0.70936 0.0
H319 H 0.14055 0.24222 0.67302 0.0
H320 H 0.20188 0.36371 0.78862 0.0
H321 H 0.21052 0.31993 0.79685 0.0
H322 H 0.20538 0.27319 0.7825 0.0
H323 H 0.18863 0.23991 0.7508 0.0
Mn324 Mn 0.65107 0.16403 0.36518 0.0
Mn325 Mn 0.6774 0.22358 0.37761 0.0
C326 C 0.66118 0.1903 0.33279 0.0
C327 C 0.65394 0.12131 0.35557 0.0
C328 C 0.62289 0.20805 0.38289 0.0
O329 O 0.66433 0.16262 0.40145 0.0
O330 O 0.6817 0.2029 0.40721 0.0
C331 C 0.72933 0.21251 0.38174 0.0
N332 N 0.7116 0.22495 0.37068 0.0
C333 C 0.74087 0.2456 0.34352 0.0
C334 C 0.75945 0.23312 0.35471 0.0
C335 C 0.75363 0.21645 0.37386 0.0
C336 C 0.71697 0.2409 0.35213 0.0
H337 H 0.72497 0.19963 0.39643 0.0
C338 C 0.67669 0.18048 0.41478 0.0
O339 O 0.63411 0.12887 0.36478 0.0
O340 O 0.67245 0.13833 0.35358 0.0
N341 N 0.67505 0.24533 0.35015 0.0
C342 C 0.65486 0.25512 0.3406 0.0
C343 C 0.65749 0.27187 0.321 0.0
C344 C 0.68085 0.27854 0.31158 0.0
C345 C 0.70139 0.26838 0.32184 0.0
C346 C 0.69766 0.25183 0.34138 0.0
H347 H 0.63686 0.25012 0.34782 0.0
O348 O 0.64425 0.1714 0.32919 0.0
O349 O 0.67124 0.1934 0.35525 0.0
O350 O 0.62337 0.18479 0.37623 0.0
O351 O 0.64208 0.22407 0.38451 0.0
C352 C 0.7254 0.27388 0.31332 0.0
C353 C 0.74509 0.26235 0.32401 0.0
H354 H 0.77821 0.23609 0.34865 0.0
H355 H 0.76784 0.20666 0.38252 0.0
H356 H 0.64154 0.27962 0.31317 0.0
H357 H 0.68279 0.29139 0.2964 0.0
H358 H 0.72889 0.28684 0.29845 0.0
H359 H 0.76341 0.26645 0.31707 0.0
Mn360 Mn 0.65634 0.65153 0.64343 0.0
Mn361 Mn 0.65621 0.66339 0.70622 0.0
C362 C 0.67957 0.68674 0.6622 0.0
C363 C 0.67405 0.63376 0.60818 0.0
C364 C 0.61438 0.67428 0.67069 0.0
O365 O 0.6431 0.61708 0.65623 0.0
O366 O 0.64446 0.62739 0.69786 0.0
C367 C 0.69565 0.63208 0.72057 0.0
N368 N 0.68658 0.65494 0.72072 0.0
C369 C 0.72223 0.67478 0.74443 0.0
C370 C 0.73188 0.65143 0.74464 0.0
C371 C 0.71856 0.63001 0.73259 0.0
C372 C 0.69938 0.67572 0.73202 0.0
H373 H 0.68551 0.61556 0.71129 0.0
C374 C 0.64009 0.61147 0.67913 0.0
O375 O 0.65154 0.63954 0.60712 0.0
O376 O 0.68553 0.63695 0.62993 0.0
N377 N 0.66752 0.69749 0.71718 0.0
C378 C 0.65565 0.71861 0.71529 0.0
C379 C 0.66644 0.74165 0.72656 0.0
C380 C 0.68918 0.74269 0.73985 0.0
C381 C 0.70087 0.72063 0.74189 0.0
C382 C 0.68914 0.69818 0.73044 0.0
H383 H 0.63808 0.71792 0.70526 0.0
O384 O 0.67318 0.68623 0.63852 0.0
O385 O 0.67197 0.66684 0.67405 0.0
O386 O 0.62363 0.66648 0.65039 0.0
O387 O 0.62489 0.67339 0.6924 0.0
C388 C 0.72374 0.72007 0.75473 0.0
C389 C 0.73446 0.69718 0.75591 0.0
H390 H 0.74953 0.64974 0.75391 0.0
H391 H 0.72592 0.61193 0.73258 0.0
H392 H 0.65726 0.75857 0.72498 0.0
H393 H 0.69753 0.76052 0.74837 0.0
H394 H 0.73337 0.73719 0.76353 0.0
H395 H 0.75217 0.69702 0.76561 0.0
Mn396 Mn 0.66438 0.36804 0.85414 0.0
Mn397 Mn 0.66437 0.30737 0.87071 0.0
C398 C 0.69288 0.34302 0.83816 0.0
C399 C 0.65141 0.39871 0.8279 0.0
C400 C 0.68471 0.35222 0.90485 0.0
O401 O 0.62999 0.36006 0.86803 0.0
O402 O 0.63183 0.31909 0.87648 0.0
C403 C 0.62876 0.2829 0.83167 0.0
N404 N 0.65151 0.28499 0.84329 0.0
C405 C 0.66351 0.25055 0.81745 0.0
C406 C 0.64017 0.24794 0.80528 0.0
C407 C 0.62277 0.26426 0.81235 0.0
C408 C 0.66849 0.26959 0.83644 0.0
H409 H 0.6153 0.29535 0.83712 0.0
C410 C 0.62043 0.3388 0.87543 0.0
O411 O 0.65993 0.40445 0.8507 0.0
O412 O 0.64948 0.37499 0.82066 0.0
N413 N 0.69478 0.29336 0.86585 0.0
C414 C 0.71673 0.29896 0.87884 0.0
C415 C 0.73631 0.28471 0.87365 0.0
C416 C 0.73302 0.26462 0.85546 0.0
C417 C 0.71016 0.25898 0.84262 0.0
C418 C 0.69134 0.27387 0.84854 0.0
H419 H 0.71931 0.31422 0.89301 0.0
O420 O 0.6972 0.36746 0.83861 0.0
O421 O 0.67211 0.33397 0.84697 0.0
O422 O 0.68105 0.36935 0.88954 0.0
O423 O 0.67842 0.32873 0.89993 0.0
C424 C 0.70534 0.23925 0.82408 0.0
C425 C 0.68209 0.23514 0.81138 0.0
H426 H 0.63546 0.23355 0.79041 0.0
H427 H 0.60474 0.26242 0.80299 0.0
H428 H 0.75389 0.28915 0.88368 0.0
H429 H 0.74819 0.25372 0.85145 0.0
H430 H 0.71951 0.22735 0.81917 0.0
H431 H 0.67875 0.22018 0.79686 0.0
Mn432 Mn 0.34795 0.15508 0.86125 0.0
Mn433 Mn 0.36088 0.16382 0.80036 0.0
C434 C 0.33141 0.18658 0.83973 0.0
C435 C 0.32416 0.13742 0.89325 0.0
C436 C 0.39529 0.18479 0.84339 0.0
O437 O 0.36072 0.12149 0.85066 0.0
O438 O 0.37101 0.1314 0.81153 0.0
C439 C 0.32522 0.12199 0.77888 0.0
N440 N 0.33446 0.14679 0.77967 0.0
C441 C 0.30785 0.15508 0.74483 0.0
C442 C 0.29813 0.12961 0.74354 0.0
C443 C 0.30674 0.11303 0.76077 0.0
C444 C 0.32591 0.16301 0.76358 0.0
H445 H 0.33196 0.1091 0.79187 0.0
C446 C 0.36996 0.11636 0.82958 0.0
O447 O 0.34703 0.14634 0.89731 0.0
O448 O 0.3155 0.13744 0.87027 0.0
N449 N 0.3523 0.19403 0.78578 0.0
C450 C 0.36329 0.21812 0.7898 0.0
C451 C 0.35664 0.23708 0.77424 0.0
C452 C 0.33929 0.23098 0.75428 0.0
C453 C 0.32854 0.20598 0.75022 0.0
C454 C 0.33569 0.18794 0.76651 0.0
H455 H 0.37699 0.22283 0.8048 0.0
O456 O 0.33364 0.18798 0.86406 0.0
O457 O 0.3386 0.16665 0.8284 0.0
O458 O 0.38285 0.17423 0.8607 0.0
O459 O 0.38851 0.18243 0.82018 0.0
C460 C 0.31103 0.19823 0.73064 0.0
C461 C 0.30044 0.17288 0.72815 0.0
H462 H 0.28405 0.12257 0.72943 0.0
H463 H 0.2993 0.09335 0.75994 0.0
H464 H 0.36505 0.25632 0.77746 0.0
H465 H 0.33434 0.24564 0.74222 0.0
H466 H 0.30536 0.21167 0.71752 0.0
H467 H 0.28671 0.16726 0.71328 0.0
Mn468 Mn 0.36703 0.3638 0.35807 0.0
Mn469 Mn 0.33732 0.30645 0.36805 0.0
C470 C 0.35244 0.3364 0.32459 0.0
C471 C 0.36767 0.40668 0.3502 0.0
C472 C 0.39272 0.31805 0.37417 0.0
O473 O 0.35664 0.36815 0.3946 0.0
O474 O 0.33704 0.32909 0.39849 0.0
C475 C 0.28728 0.32239 0.37245 0.0
N476 N 0.30294 0.30766 0.361 0.0
C477 C 0.27038 0.28794 0.33295 0.0
C478 C 0.2539 0.30281 0.34452 0.0
C479 C 0.26242 0.32015 0.36431 0.0
C480 C 0.29499 0.29111 0.34176 0.0
H481 H 0.29373 0.33578 0.38765 0.0
C482 C 0.34431 0.35154 0.40717 0.0
O483 O 0.38704 0.3974 0.35906 0.0
O484 O 0.34754 0.39141 0.34754 0.0
N485 N 0.33583 0.28273 0.33983 0.0
C486 C 0.3541 0.26988 0.33059 0.0
C487 C 0.34858 0.25162 0.31082 0.0
C488 C 0.32432 0.2466 0.30092 0.0
C489 C 0.30576 0.25982 0.31096 0.0
C490 C 0.31233 0.27766 0.33077 0.0
H491 H 0.37274 0.27351 0.33824 0.0
O492 O 0.37034 0.35387 0.32163 0.0
O493 O 0.34405 0.3353 0.347 0.0
O494 O 0.39341 0.3411 0.36835 0.0
O495 O 0.3727 0.30339 0.37499 0.0
C496 C 0.28104 0.25607 0.302 0.0
C497 C 0.26339 0.27021 0.31292 0.0
H498 H 0.2347 0.30112 0.33832 0.0
H499 H 0.24983 0.33176 0.37329 0.0
H500 H 0.36299 0.24145 0.30322 0.0
H501 H 0.32017 0.23263 0.28556 0.0
H502 H 0.27544 0.24255 0.28656 0.0
H503 H 0.24449 0.26737 0.30573 0.0
Mn504 Mn 0.35587 0.66029 0.16812 0.0
Mn505 Mn 0.38312 0.69183 0.21982 0.0
C506 C 0.33256 0.67797 0.19833 0.0
C507 C 0.33934 0.65967 0.12698 0.0
C508 C 0.37621 0.63465 0.21385 0.0
O509 O 0.39134 0.6685 0.15736 0.0
O510 O 0.40722 0.68923 0.1931 0.0
C511 C 0.39331 0.74197 0.19813 0.0
N512 N 0.38274 0.72732 0.216 0.0
C513 C 0.36714 0.7632 0.23643 0.0
C514 C 0.37796 0.77869 0.21833 0.0
C515 C 0.39104 0.768 0.19906 0.0
C516 C 0.36998 0.73738 0.23451 0.0
H517 H 0.40335 0.73386 0.18326 0.0
C518 C 0.40913 0.68068 0.17049 0.0
O519 O 0.34596 0.63931 0.13658 0.0
O520 O 0.34354 0.68042 0.14079 0.0
N521 N 0.36176 0.69614 0.24706 0.0
C522 C 0.35176 0.6785 0.26259 0.0
C523 C 0.33811 0.6861 0.28288 0.0
C524 C 0.33498 0.71174 0.28709 0.0
C525 C 0.34544 0.72957 0.27087 0.0
C526 C 0.3591 0.72092 0.25113 0.0
H527 H 0.3541 0.65876 0.25949 0.0
O528 O 0.32281 0.65937 0.1835 0.0
O529 O 0.35557 0.68534 0.19527 0.0
O530 O 0.36604 0.63325 0.1918 0.0
O531 O 0.38352 0.65559 0.22571 0.0
C532 C 0.34269 0.75555 0.27341 0.0
C533 C 0.35341 0.77233 0.25612 0.0
H534 H 0.37623 0.79877 0.21895 0.0
H535 H 0.39937 0.77981 0.18497 0.0
H536 H 0.33003 0.67222 0.29527 0.0
H537 H 0.32446 0.71751 0.30279 0.0
H538 H 0.33215 0.76278 0.28844 0.0
H539 H 0.35091 0.79221 0.25808 0.0
Mn540 Mn 0.67544 0.86335 0.16099 0.0
Mn541 Mn 0.6498 0.83407 0.21039 0.0
C542 C 0.69992 0.84961 0.19277 0.0
C543 C 0.69163 0.86259 0.1209 0.0
C544 C 0.65312 0.89067 0.20522 0.0
O545 O 0.6401 0.8523 0.14771 0.0
O546 O 0.6256 0.83248 0.18172 0.0
C547 C 0.64319 0.78172 0.18821 0.0
N548 N 0.65262 0.79864 0.20687 0.0
C549 C 0.67011 0.76606 0.22919 0.0
C550 C 0.66046 0.74827 0.21028 0.0
C551 C 0.647 0.75616 0.18967 0.0
C552 C 0.66568 0.79127 0.22673 0.0
H553 H 0.63286 0.7877 0.17233 0.0
C554 C 0.62313 0.83961 0.15923 0.0
O555 O 0.68371 0.88284 0.13063 0.0
O556 O 0.68896 0.84253 0.1339 0.0
N557 N 0.67142 0.83391 0.2394 0.0
C558 C 0.68054 0.85362 0.25537 0.0
C559 C 0.6949 0.84902 0.27669 0.0
C560 C 0.69957 0.82421 0.28149 0.0
C561 C 0.68982 0.80421 0.26491 0.0
C562 C 0.67549 0.80993 0.24405 0.0
H563 H 0.67695 0.87272 0.25183 0.0
O564 O 0.70867 0.86745 0.17873 0.0
O565 O 0.6772 0.84055 0.18794 0.0
O566 O 0.66398 0.89111 0.18438 0.0
O567 O 0.64655 0.87036 0.21617 0.0
C568 C 0.69411 0.77889 0.26802 0.0
C569 C 0.68432 0.75984 0.25013 0.0
H570 H 0.66344 0.72856 0.21128 0.0
H571 H 0.63959 0.74256 0.17495 0.0
H572 H 0.70238 0.86456 0.28939 0.0
H573 H 0.71078 0.82076 0.29787 0.0
H574 H 0.70523 0.77393 0.28388 0.0
H575 H 0.68807 0.74051 0.25251 0.0
C576 C 0.21798 0.19927 0.18568 0.0
C577 C 0.196 0.20708 0.17596 0.0
C578 C 0.23636 0.21693 0.1966 0.0
C579 C 0.24355 0.27504 0.2329 0.0
H580 H 0.31271 0.27804 0.21849 0.0
C581 C 0.31339 0.33371 0.29968 0.0
C582 C 0.33697 0.32608 0.30276 0.0
C583 C 0.29766 0.32351 0.27988 0.0
C584 C 0.29359 0.2772 0.22327 0.0
H585 H 0.17634 0.23925 0.16843 0.0
H586 H 0.20825 0.27038 0.18871 0.0
H587 H 0.28255 0.2513 0.1919 0.0
H588 H 0.36361 0.30346 0.28686 0.0
H589 H 0.3355 0.28337 0.25372 0.0
H590 H 0.25385 0.29838 0.26544 0.0
C591 C 0.21124 0.25059 0.1877 0.0
C592 C 0.27629 0.26208 0.20769 0.0
C593 C 0.19304 0.2329 0.17623 0.0
C594 C 0.3452 0.30912 0.28501 0.0
C595 C 0.32904 0.29794 0.26574 0.0
C596 C 0.26078 0.28927 0.24905 0.0
C597 C 0.23297 0.24268 0.19812 0.0
C598 C 0.25115 0.26071 0.21257 0.0
C599 C 0.30469 0.30449 0.26322 0.0
C600 C 0.28622 0.29054 0.24471 0.0
H601 H 0.22078 0.17942 0.18515 0.0
H602 H 0.25281 0.21035 0.20475 0.0
H603 H 0.22429 0.27428 0.23708 0.0
H604 H 0.30704 0.34752 0.31279 0.0
H605 H 0.27983 0.33044 0.27813 0.0
C606 C 0.79052 0.30252 0.18645 0.0
C607 C 0.81066 0.2893 0.1811 0.0
C608 C 0.76912 0.29006 0.19538 0.0
C609 C 0.7417 0.22573 0.21536 0.0
H610 H 0.7072 0.26822 0.25981 0.0
C611 C 0.6612 0.21228 0.29222 0.0
C612 C 0.67385 0.20077 0.31114 0.0
C613 C 0.67381 0.22175 0.27161 0.0
C614 C 0.71656 0.25618 0.24731 0.0
H615 H 0.82382 0.25255 0.17842 0.0
H616 H 0.78774 0.2309 0.19661 0.0
H617 H 0.73716 0.28758 0.23255 0.0
H618 H 0.70875 0.18833 0.32281 0.0
H619 H 0.73063 0.20435 0.28654 0.0
H620 H 0.72251 0.19434 0.23299 0.0
C621 C 0.78755 0.25071 0.19321 0.0
C622 C 0.73368 0.26722 0.23118 0.0
C623 C 0.80859 0.26311 0.1831 0.0
C624 C 0.69882 0.19766 0.30863 0.0
C625 C 0.71122 0.20652 0.28784 0.0
C626 C 0.72525 0.21474 0.23229 0.0
C627 C 0.76773 0.2642 0.20043 0.0
C628 C 0.74704 0.25223 0.21521 0.0
C629 C 0.69888 0.2188 0.2693 0.0
C630 C 0.71296 0.22994 0.24868 0.0
H631 H 0.79151 0.32271 0.1841 0.0
H632 H 0.75406 0.30115 0.19893 0.0
H633 H 0.75058 0.21323 0.20295 0.0
H634 H 0.64182 0.21445 0.29371 0.0
H635 H 0.66407 0.23135 0.25752 0.0
C636 C 0.31777 0.71981 0.20578 0.0
C637 C 0.31675 0.69431 0.21156 0.0
C638 C 0.30332 0.73595 0.21834 0.0
C639 C 0.25974 0.76107 0.23895 0.0
H640 H 0.26536 0.76417 0.31176 0.0
C641 C 0.19676 0.81354 0.30305 0.0
C642 C 0.20819 0.82829 0.32344 0.0
C643 C 0.21031 0.7983 0.28821 0.0
C644 C 0.26362 0.76349 0.29146 0.0
H645 H 0.29894 0.66502 0.23358 0.0
H646 H 0.27394 0.69364 0.25643 0.0
H647 H 0.28631 0.73326 0.28781 0.0
H648 H 0.24276 0.84034 0.34352 0.0
H649 H 0.26663 0.81294 0.31786 0.0
H650 H 0.23643 0.79084 0.24263 0.0
C651 C 0.28606 0.70108 0.24224 0.0
C652 C 0.27548 0.74573 0.27779 0.0
C653 C 0.30024 0.68478 0.22925 0.0
C654 C 0.2336 0.82866 0.32811 0.0
C655 C 0.24714 0.81304 0.31352 0.0
C656 C 0.24734 0.77839 0.25265 0.0
C657 C 0.28767 0.72684 0.23698 0.0
C658 C 0.27381 0.74452 0.25143 0.0
C659 C 0.23552 0.79754 0.29361 0.0
C660 C 0.24927 0.77982 0.27903 0.0
H661 H 0.33005 0.72735 0.19173 0.0
H662 H 0.30495 0.75573 0.21404 0.0
H663 H 0.2582 0.76046 0.2186 0.0
H664 H 0.17722 0.81349 0.29884 0.0
H665 H 0.20089 0.78647 0.27305 0.0
C666 C 0.79899 0.69576 0.30868 0.0
C667 C 0.81803 0.70413 0.32627 0.0
C668 C 0.78675 0.71316 0.29564 0.0
C669 C 0.77431 0.77995 0.2944 0.0
H670 H 0.76757 0.76453 0.22257 0.0
C671 C 0.73329 0.84768 0.22581 0.0
C672 C 0.71665 0.83561 0.2074 0.0
C673 C 0.74793 0.83338 0.24041 0.0
C674 C 0.76898 0.7691 0.2426 0.0
H675 H 0.83779 0.73688 0.34602 0.0
H676 H 0.81664 0.76759 0.3228 0.0
H677 H 0.78534 0.73552 0.24958 0.0
H678 H 0.70382 0.80002 0.18778 0.0
H679 H 0.72849 0.77504 0.21335 0.0
H680 H 0.75647 0.81305 0.28747 0.0
C681 C 0.81128 0.74761 0.31892 0.0
C682 C 0.7794 0.75245 0.25809 0.0
C683 C 0.82347 0.73012 0.33206 0.0
C684 C 0.71608 0.80956 0.20243 0.0
C685 C 0.73056 0.79533 0.21689 0.0
C686 C 0.76328 0.79649 0.2789 0.0
C687 C 0.79321 0.73928 0.30013 0.0
C688 C 0.78212 0.75752 0.28413 0.0
C689 C 0.74637 0.80693 0.23639 0.0
C690 C 0.76021 0.79104 0.2528 0.0
H691 H 0.79388 0.67574 0.30469 0.0
H692 H 0.7725 0.70615 0.2817 0.0
H693 H 0.77605 0.78432 0.31446 0.0
H694 H 0.73432 0.86794 0.22946 0.0
H695 H 0.76025 0.84298 0.25494 0.0
C696 C 0.29258 0.8022 0.68595 0.0
C697 C 0.31294 0.78925 0.68081 0.0
C698 C 0.27125 0.78953 0.69481 0.0
C699 C 0.24425 0.72504 0.71473 0.0
H700 H 0.20889 0.76723 0.75863 0.0
C701 C 0.16261 0.7121 0.79073 0.0
C702 C 0.17481 0.69994 0.80949 0.0
C703 C 0.17553 0.72145 0.77025 0.0
C704 C 0.21848 0.75526 0.74628 0.0
H705 H 0.32658 0.75271 0.67844 0.0
H706 H 0.29057 0.7307 0.69649 0.0
H707 H 0.23919 0.78679 0.73188 0.0
H708 H 0.20915 0.68613 0.82093 0.0
H709 H 0.23154 0.70193 0.78488 0.0
H710 H 0.22492 0.69352 0.73202 0.0
C711 C 0.29018 0.75047 0.69299 0.0
C712 C 0.2358 0.76643 0.73043 0.0
C713 C 0.31118 0.76308 0.68296 0.0
C714 C 0.19957 0.69596 0.80687 0.0
C715 C 0.21226 0.7047 0.7862 0.0
C716 C 0.22759 0.71392 0.7314 0.0
C717 C 0.27014 0.76372 0.69999 0.0
C718 C 0.24943 0.75156 0.71463 0.0
C719 C 0.20044 0.71774 0.76788 0.0
C720 C 0.21493 0.729 0.74758 0.0
H721 H 0.29333 0.82236 0.6835 0.0
H722 H 0.25601 0.80042 0.69819 0.0
H723 H 0.25339 0.71264 0.70245 0.0
H724 H 0.14339 0.71497 0.7923 0.0
H725 H 0.16618 0.73163 0.75634 0.0
C726 C 0.69968 0.72996 0.675 0.0
C727 C 0.70082 0.70392 0.67192 0.0
C728 C 0.71968 0.74551 0.68625 0.0
C729 C 0.77838 0.73971 0.72423 0.0
H730 H 0.78213 0.81275 0.72522 0.0
C731 C 0.81454 0.82228 0.79905 0.0
C732 C 0.83958 0.81926 0.80263 0.0
C733 C 0.80103 0.81054 0.77833 0.0
C734 C 0.78142 0.79233 0.72482 0.0
H735 H 0.72431 0.67392 0.67462 0.0
H736 H 0.75985 0.7009 0.69163 0.0
H737 H 0.75314 0.78774 0.696 0.0
H738 H 0.87066 0.80303 0.78696 0.0
H739 H 0.84655 0.78123 0.75094 0.0
H740 H 0.80771 0.74475 0.75212 0.0
C741 C 0.74317 0.70954 0.68788 0.0
C742 C 0.76449 0.77783 0.70834 0.0
C743 C 0.72285 0.69394 0.67776 0.0
C744 C 0.85125 0.80522 0.78464 0.0
C745 C 0.83755 0.79291 0.76413 0.0
C746 C 0.7959 0.75423 0.73985 0.0
C747 C 0.74165 0.73544 0.69349 0.0
C748 C 0.76202 0.75118 0.70839 0.0
C749 C 0.81229 0.79541 0.76093 0.0
C750 C 0.79697 0.78059 0.74097 0.0
H751 H 0.6829 0.73803 0.67004 0.0
H752 H 0.7172 0.76512 0.69022 0.0
H753 H 0.77721 0.71947 0.7257 0.0
H754 H 0.80533 0.83348 0.81251 0.0
H755 H 0.78153 0.81248 0.77643 0.0
C756 C 0.73328 0.32827 0.82768 0.0
C757 C 0.70784 0.32729 0.82304 0.0
C758 C 0.74712 0.31256 0.81357 0.0
C759 C 0.73947 0.25449 0.77106 0.0
H760 H 0.8077 0.27518 0.75799 0.0
C761 C 0.80327 0.18448 0.72999 0.0
C762 C 0.82089 0.19398 0.71339 0.0
C763 C 0.78935 0.20097 0.74306 0.0
C764 C 0.78866 0.26905 0.76142 0.0
H765 H 0.67708 0.3114 0.79874 0.0
H766 H 0.7012 0.28477 0.77332 0.0
H767 H 0.7839 0.30434 0.7802 0.0
H768 H 0.83652 0.22739 0.69557 0.0
H769 H 0.81193 0.2561 0.71776 0.0
H770 H 0.74408 0.21948 0.75158 0.0
C771 C 0.71047 0.29645 0.78864 0.0
C772 C 0.77503 0.28575 0.77445 0.0
C773 C 0.69663 0.31177 0.80308 0.0
C774 C 0.82354 0.21984 0.70897 0.0
C775 C 0.8095 0.23626 0.72174 0.0
C776 C 0.75312 0.23779 0.75807 0.0
C777 C 0.73583 0.29622 0.794 0.0
C778 C 0.75027 0.27865 0.77961 0.0
C779 C 0.79243 0.2271 0.73919 0.0
C780 C 0.77791 0.24481 0.75316 0.0
H781 H 0.74226 0.34048 0.84281 0.0
H782 H 0.7665 0.31276 0.8185 0.0
H783 H 0.72049 0.24825 0.77452 0.0
H784 H 0.80073 0.16447 0.73329 0.0
H785 H 0.77651 0.19328 0.75649 0.0
C786 C 0.23332 0.34788 0.72512 0.0
C787 C 0.21688 0.33573 0.70658 0.0
C788 C 0.248 0.33369 0.7398 0.0
C789 C 0.2694 0.26952 0.74223 0.0
H790 H 0.27593 0.28491 0.81409 0.0
C791 C 0.29913 0.19647 0.80888 0.0
C792 C 0.31804 0.20495 0.82658 0.0
C793 C 0.28695 0.21378 0.79564 0.0
C794 C 0.27434 0.28049 0.79403 0.0
H795 H 0.20448 0.30011 0.6868 0.0
H796 H 0.2292 0.27529 0.7125 0.0
H797 H 0.25643 0.31349 0.78687 0.0
H798 H 0.33762 0.23781 0.84629 0.0
H799 H 0.31658 0.26837 0.82275 0.0
H800 H 0.28583 0.23602 0.74944 0.0
C801 C 0.23109 0.29557 0.71608 0.0
C802 C 0.26335 0.29694 0.77839 0.0
C803 C 0.21658 0.30971 0.70155 0.0
C804 C 0.32341 0.23096 0.83226 0.0
C805 C 0.31128 0.24836 0.81893 0.0
C806 C 0.27977 0.25294 0.75785 0.0
C807 C 0.24667 0.30725 0.73574 0.0
C808 C 0.26048 0.29144 0.7523 0.0
C809 C 0.29334 0.23993 0.80005 0.0
C810 C 0.2823 0.25808 0.78389 0.0
H811 H 0.23416 0.36812 0.72882 0.0
H812 H 0.26015 0.34335 0.75443 0.0
H813 H 0.26814 0.2649 0.72221 0.0
H814 H 0.29407 0.17643 0.80496 0.0
H815 H 0.27281 0.20669 0.78162 0.0
C816 C 0.15546 0.94385 0.31647 0.0
C817 C 0.14619 0.9185 0.31104 0.0
C818 C 0.15278 0.96218 0.29884 0.0
C819 C 0.11564 0.97888 0.24523 0.0
H820 H 0.17432 0.0219 0.22939 0.0
C821 C 0.11715 0.07746 0.20308 0.0
C822 C 0.13459 0.084 0.18505 0.0
C823 C 0.11608 0.05397 0.21395 0.0
C824 C 0.15781 0.00984 0.23335 0.0
H825 H 0.12609 0.89269 0.28313 0.0
H826 H 0.12072 0.92502 0.2526 0.0
H827 H 0.17744 0.98809 0.25855 0.0
H828 H 0.16398 0.07081 0.16354 0.0
H829 H 0.16245 0.02972 0.18295 0.0
H830 H 0.09587 1.0014 0.22079 0.0
C831 C 0.13033 0.93054 0.27042 0.0
C832 C 0.15957 0.99067 0.25025 0.0
C833 C 0.13343 0.91206 0.28788 0.0
C834 C 0.15006 0.06605 0.17705 0.0
C835 C 0.14937 0.04269 0.18836 0.0
C836 C 0.1138 0.99842 0.22868 0.0
C837 C 0.14038 0.9557 0.27555 0.0
C838 C 0.13848 0.97516 0.25658 0.0
C839 C 0.13284 0.03674 0.20747 0.0
C840 C 0.13486 0.01423 0.22271 0.0
H841 H 0.16546 0.94943 0.33407 0.0
H842 H 0.1605 0.98149 0.3034 0.0
H843 H 0.09908 0.96723 0.24982 0.0
H844 H 0.10523 0.09111 0.20979 0.0
H845 H 0.10329 0.05004 0.22873 0.0
C846 C 0.89752 0.40567 0.23559 0.0
C847 C 0.88502 0.40204 0.21198 0.0
C848 C 0.89959 0.42913 0.24866 0.0
C849 C 0.89189 0.4972 0.24322 0.0
H850 H 0.87971 0.49413 0.31441 0.0
C851 C 0.86314 0.5681 0.32861 0.0
C852 C 0.87758 0.59016 0.32234 0.0
C853 C 0.86667 0.54467 0.31693 0.0
C854 C 0.88305 0.49535 0.29457 0.0
H855 H 0.86603 0.42066 0.18301 0.0
H856 H 0.86958 0.46182 0.20589 0.0
H857 H 0.88098 0.45516 0.28899 0.0
H858 H 0.90825 0.60476 0.3006 0.0
H859 H 0.91499 0.56404 0.28107 0.0
H860 H 0.89311 0.53733 0.24859 0.0
C861 C 0.87796 0.44648 0.21423 0.0
C862 C 0.88409 0.47299 0.27999 0.0
C863 C 0.87602 0.42292 0.20101 0.0
C864 C 0.89677 0.58806 0.30572 0.0
C865 C 0.90041 0.56476 0.29426 0.0
C866 C 0.89085 0.51955 0.25779 0.0
C867 C 0.88906 0.44963 0.2386 0.0
C868 C 0.88853 0.4736 0.25411 0.0
C869 C 0.88478 0.54291 0.29888 0.0
C870 C 0.88643 0.51895 0.28368 0.0
H871 H 0.90482 0.38999 0.24449 0.0
H872 H 0.90887 0.431 0.26703 0.0
H873 H 0.89545 0.49845 0.22342 0.0
H874 H 0.84799 0.56921 0.34105 0.0
H875 H 0.85424 0.52826 0.32093 0.0
C876 C 0.28237 0.12552 0.91024 0.0
C877 C 0.30803 0.1303 0.91431 0.0
C878 C 0.26688 0.12206 0.93051 0.0
C879 C 0.26575 0.10801 0.99826 0.0
H880 H 0.20881 0.14563 0.99824 0.0
C881 C 0.21367 0.12766 0.08861 0.0
C882 C 0.18821 0.12952 0.08681 0.0
C883 C 0.2271 0.12444 0.067 0.0
C884 C 0.22433 0.13459 0.99846 0.0
H885 H 0.33753 0.13422 0.94289 0.0
H886 H 0.31058 0.12802 0.97817 0.0
H887 H 0.2343 0.14558 0.96167 0.0
H888 H 0.15674 0.12847 0.0608 0.0
H889 H 0.18001 0.12225 0.0231 0.0
H890 H 0.25589 0.0971 0.03509 0.0
C891 C 0.30239 0.12688 0.95931 0.0
C892 C 0.23903 0.13461 0.97742 0.0
C893 C 0.31787 0.13052 0.93906 0.0
C894 C 0.17634 0.12717 0.06288 0.0
C895 C 0.18976 0.12383 0.04122 0.0
C896 C 0.25097 0.10786 0.01926 0.0
C897 C 0.27665 0.12311 0.95536 0.0
C898 C 0.26011 0.12158 0.97714 0.0
C899 C 0.21543 0.12286 0.04293 0.0
C900 C 0.23021 0.12142 0.01982 0.0
H901 H 0.27415 0.12525 0.89144 0.0
H902 H 0.24717 0.11886 0.92674 0.0
H903 H 0.28165 0.09748 0.99858 0.0
H904 H 0.22347 0.12951 0.10671 0.0
H905 H 0.24682 0.12414 0.0692 0.0
C906 C 0.83514 0.36999 0.08226 0.0
C907 C 0.82434 0.36609 0.10557 0.0
C908 C 0.82044 0.373 0.0607 0.0
C909 C 0.76409 0.34824 0.03174 0.0
H910 H 0.76015 0.40772 0.99304 0.0
C911 C 0.69232 0.34604 0.95049 0.0
C912 C 0.69847 0.35924 0.92898 0.0
C913 C 0.70719 0.34988 0.97246 0.0
C914 C 0.76123 0.39079 1.00335 0.0
H915 H 0.78972 0.36333 0.1246 0.0
H916 H 0.76426 0.36789 0.08693 0.0
H917 H 0.78846 0.40959 0.02992 0.0
H918 H 0.72478 0.38716 0.91367 0.0
H919 H 0.75148 0.39314 0.95162 0.0
H920 H 0.73801 0.32886 1.00511 0.0
C921 C 0.78406 0.36893 0.08547 0.0
C922 C 0.77738 0.39198 0.02454 0.0
C923 C 0.79871 0.36638 0.10702 0.0
C924 C 0.71945 0.37696 0.93011 0.0
C925 C 0.73474 0.38037 0.95196 0.0
C926 C 0.74838 0.34686 0.01039 0.0
C927 C 0.79473 0.37178 0.06207 0.0
C928 C 0.7787 0.37076 0.03901 0.0
C929 C 0.72911 0.36646 0.97333 0.0
C930 C 0.74638 0.36819 0.99598 0.0
H931 H 0.8548 0.3698 0.0805 0.0
H932 H 0.82901 0.37503 0.04276 0.0
H933 H 0.76499 0.33157 0.04253 0.0
H934 H 0.67613 0.33238 0.95018 0.0
H935 H 0.70159 0.33943 0.98864 0.0
C936 C 0.3352 0.871 0.58274 0.0
C937 C 0.32461 0.86653 0.60605 0.0
C938 C 0.32027 0.87384 0.5613 0.0
C939 C 0.26432 0.84801 0.53225 0.0
H940 H 0.25853 0.90788 0.49462 0.0
C941 C 0.19217 0.84512 0.45118 0.0
C942 C 0.19792 0.8589 0.42993 0.0
C943 C 0.20703 0.84896 0.47317 0.0
C944 C 0.26013 0.89085 0.50462 0.0
H945 H 0.29008 0.86255 0.62522 0.0
H946 H 0.26424 0.86683 0.58775 0.0
H947 H 0.28702 0.90995 0.53136 0.0
H948 H 0.2235 0.88785 0.41512 0.0
H949 H 0.25017 0.89385 0.45306 0.0
H950 H 0.2386 0.82837 0.50542 0.0
C951 C 0.28405 0.86844 0.5862 0.0
C952 C 0.27639 0.89215 0.52573 0.0
C953 C 0.29891 0.86605 0.60764 0.0
C954 C 0.21846 0.87718 0.43136 0.0
C955 C 0.23374 0.88061 0.4532 0.0
C956 C 0.24851 0.84654 0.51096 0.0
C957 C 0.29454 0.87188 0.56279 0.0
C958 C 0.27838 0.87077 0.53982 0.0
C959 C 0.22854 0.86615 0.4743 0.0
C960 C 0.24586 0.86799 0.49693 0.0
H961 H 0.3549 0.87139 0.58088 0.0
H962 H 0.32871 0.87634 0.54335 0.0
H963 H 0.26575 0.83122 0.54274 0.0
H964 H 0.17633 0.83101 0.45066 0.0
H965 H 0.20176 0.83805 0.48915 0.0
C966 C 0.67646 0.62737 0.56115 0.0
C967 C 0.68732 0.62684 0.58541 0.0
C968 C 0.69045 0.62443 0.53978 0.0
C969 C 0.75484 0.63451 0.52098 0.0
H970 H 0.73144 0.59655 0.45959 0.0
C971 C 0.8186 0.62722 0.43779 0.0
C972 C 0.80832 0.629 0.41349 0.0
C973 C 0.8035 0.62374 0.45834 0.0
C974 C 0.73821 0.60746 0.47649 0.0
H975 H 0.72108 0.62147 0.60612 0.0
H976 H 0.74523 0.61625 0.56909 0.0
H977 H 0.70528 0.59641 0.49594 0.0
H978 H 0.774 0.62768 0.39165 0.0
H979 H 0.74767 0.62219 0.42747 0.0
H980 H 0.78737 0.64623 0.50165 0.0
C981 C 0.72605 0.61932 0.5665 0.0
C982 C 0.72318 0.60732 0.49736 0.0
C983 C 0.71211 0.62214 0.58776 0.0
C984 C 0.78254 0.62626 0.4101 0.0
C985 C 0.76741 0.62303 0.43071 0.0
C986 C 0.76973 0.63482 0.50015 0.0
C987 C 0.7156 0.62104 0.54225 0.0
C988 C 0.73137 0.62079 0.5199 0.0
C989 C 0.77768 0.62226 0.45523 0.0
C990 C 0.76173 0.62126 0.47758 0.0
H991 H 0.65744 0.63103 0.55866 0.0
H992 H 0.68183 0.62593 0.52138 0.0
H993 H 0.76156 0.64554 0.53784 0.0
H994 H 0.83839 0.62909 0.44106 0.0
H995 H 0.81217 0.6226 0.47676 0.0
C996 C 0.93372 0.28864 0.20068 0.0
C997 C 0.92251 0.29925 0.18008 0.0
C998 C 0.95346 0.2743 0.19742 0.0
C999 C 1.00256 0.26006 0.15441 0.0
H1000 H 1.00232 0.19976 0.19263 0.0
C1001 C 0.07861 0.19129 0.14605 0.0
C1002 C 0.08777 0.18318 0.169 0.0
C1003 C 0.05743 0.20413 0.14517 0.0
C1004 C 1.00281 0.21661 0.18193 0.0
H1005 H 0.92404 0.30347 0.13982 0.0
H1006 H 0.95864 0.27837 0.13418 0.0
H1007 H 0.96817 0.22543 0.19543 0.0
H1008 H 0.0812 0.18179 0.20891 0.0
H1009 H 0.0447 0.20391 0.20735 0.0
H1010 H 0.03746 0.25128 0.14117 0.0
C1011 C 0.95206 0.28129 0.15291 0.0
C1012 C 0.9832 0.2314 0.18356 0.0
C1013 C 0.93217 0.29567 0.15616 0.0
C1014 C 0.07479 0.18763 0.19084 0.0
C1015 C 0.05367 0.20027 0.18994 0.0
C1016 C 0.02227 0.24523 0.15279 0.0
C1017 C 0.96268 0.27006 0.17347 0.0
C1018 C 0.98298 0.25358 0.1702 0.0
C1019 C 0.04479 0.20895 0.16718 0.0
C1020 C 0.02286 0.22354 0.16689 0.0
H1021 H 0.92701 0.29102 0.21944 0.0
H1022 H 0.96148 0.26644 0.21379 0.0
H1023 H 1.00307 0.27707 0.14394 0.0
H1024 H 0.08815 0.18834 0.12886 0.0
H1025 H 0.051 0.21033 0.12727 0.0
C1026 C 0.92754 0.7039 0.37441 0.0
C1027 C 0.91776 0.70125 0.34954 0.0
C1028 C 0.94773 0.72177 0.38096 0.0
C1029 C 0.98012 0.78139 0.36093 0.0
H1030 H 0.03701 0.76105 0.39683 0.0
C1031 C 0.0768 0.8368 0.36013 0.0
C1032 C 0.09388 0.83383 0.37972 0.0
C1033 C 0.05286 0.82447 0.36032 0.0
C1034 C 0.02112 0.76739 0.38735 0.0
H1035 H 0.92198 0.71531 0.31205 0.0
H1036 H 0.95674 0.74634 0.32359 0.0
H1037 H 1.00034 0.7312 0.38982 0.0
H1038 H 0.09897 0.8177 0.41582 0.0
H1039 H 0.05687 0.79763 0.41707 0.0
H1040 H 1.0008 0.81755 0.35834 0.0
C1041 C 0.94872 0.73474 0.33803 0.0
C1042 C 1.00011 0.75012 0.38322 0.0
C1043 C 0.92886 0.71673 0.33141 0.0
C1044 C 0.08602 0.8204 0.40057 0.0
C1045 C 0.06201 0.80851 0.40102 0.0
C1046 C 1.00102 0.7988 0.36533 0.0
C1047 C 0.95829 0.7376 0.36287 0.0
C1048 C 0.97959 0.75674 0.36951 0.0
C1049 C 0.0455 0.80919 0.38027 0.0
C1050 C 0.02204 0.7919 0.37817 0.0
H1051 H 0.91947 0.69237 0.38887 0.0
H1052 H 0.95477 0.72355 0.40027 0.0
H1053 H 0.96441 0.78712 0.35059 0.0
H1054 H 0.08259 0.8466 0.34359 0.0
H1055 H 0.04084 0.8254 0.34389 0.0
C1056 C 0.5801 0.69383 0.69171 0.0
C1057 C 0.59118 0.68673 0.66938 0.0
C1058 C 0.55995 0.70791 0.69117 0.0
C1059 C 0.50983 0.72793 0.65057 0.0
H1060 H 0.51051 0.78134 0.70252 0.0
C1061 C 0.43421 0.79759 0.65569 0.0
C1062 C 0.42547 0.80252 0.67979 0.0
C1063 C 0.45504 0.78454 0.65267 0.0
C1064 C 0.50988 0.7664 0.68798 0.0
H1065 H 0.58888 0.68839 0.62878 0.0
H1066 H 0.55354 0.7131 0.62787 0.0
H1067 H 0.54482 0.75586 0.70034 0.0
H1068 H 0.43227 0.79772 0.7196 0.0
H1069 H 0.46818 0.7752 0.71432 0.0
H1070 H 0.47465 0.73849 0.63841 0.0
C1071 C 0.56056 0.70759 0.64583 0.0
C1072 C 0.52959 0.75172 0.68674 0.0
C1073 C 0.58085 0.69342 0.64636 0.0
C1074 C 0.43839 0.79444 0.70073 0.0
C1075 C 0.45917 0.78156 0.69772 0.0
C1076 C 0.49001 0.74268 0.65183 0.0
C1077 C 0.55018 0.71546 0.66831 0.0
C1078 C 0.52968 0.73198 0.66832 0.0
C1079 C 0.46774 0.77627 0.67367 0.0
C1080 C 0.4896 0.76184 0.67084 0.0
H1081 H 0.58728 0.68892 0.70984 0.0
H1082 H 0.55211 0.71306 0.70882 0.0
H1083 H 0.50921 0.71284 0.6362 0.0
H1084 H 0.42473 0.80341 0.63911 0.0
H1085 H 0.46123 0.78099 0.63388 0.0
C1086 C 0.8954 0.10464 0.74478 0.0
C1087 C 0.87866 0.10647 0.72444 0.0
C1088 C 0.89458 0.08267 0.75834 0.0
C1089 C 0.85166 0.02988 0.77622 0.0
H1090 H 0.90998 0.99798 0.79393 0.0
C1091 C 0.84551 0.93347 0.82246 0.0
C1092 C 0.86483 0.928 0.83871 0.0
C1093 C 0.84718 0.95593 0.8097 0.0
C1094 C 0.89353 0.00687 0.78961 0.0
H1095 H 0.84821 0.08633 0.7022 0.0
H1096 H 0.84662 0.04809 0.72614 0.0
H1097 H 0.91355 0.03509 0.76851 0.0
H1098 H 0.90062 0.9424 0.85515 0.0
H1099 H 0.90315 0.98212 0.83373 0.0
H1100 H 0.83163 1.00232 0.79778 0.0
C1101 C 0.8604 0.06371 0.73147 0.0
C1102 C 0.8956 0.02805 0.77485 0.0
C1103 C 0.86147 0.08553 0.71763 0.0
C1104 C 0.88544 0.94602 0.84271 0.0
C1105 C 0.88699 0.96869 0.83017 0.0
C1106 C 0.84962 0.00895 0.79129 0.0
C1107 C 0.87676 0.06217 0.75216 0.0
C1108 C 0.87466 0.03965 0.76781 0.0
C1109 C 0.8681 0.97376 0.81305 0.0
C1110 C 0.87048 0.99695 0.79805 0.0
H1111 H 0.90887 0.1204 0.75055 0.0
H1112 H 0.90735 0.08208 0.77424 0.0
H1113 H 0.83525 0.0387 0.77147 0.0
H1114 H 0.82945 0.91992 0.81875 0.0
H1115 H 0.83239 0.95879 0.79646 0.0
C1116 C 0.17227 0.58926 0.82783 0.0
C1117 C 0.15265 0.59514 0.84264 0.0
C1118 C 0.17083 0.56648 0.81363 0.0
C1119 C 0.14203 0.50179 0.80654 0.0
H1120 H 0.15369 0.50877 0.73566 0.0
C1121 C 0.13202 0.41477 0.7369 0.0
C1122 C 0.14908 0.41425 0.71777 0.0
C1123 C 0.13042 0.43689 0.75161 0.0
C1124 C 0.15071 0.50634 0.75543 0.0
H1125 H 0.11667 0.58107 0.8552 0.0
H1126 H 0.1145 0.54068 0.83076 0.0
H1127 H 0.15593 0.54629 0.76377 0.0
H1128 H 0.17763 0.43672 0.6989 0.0
H1129 H 0.17547 0.47497 0.72493 0.0
H1130 H 0.13781 0.46185 0.79859 0.0
C1131 C 0.13083 0.554 0.83002 0.0
C1132 C 0.15187 0.5279 0.7715 0.0
C1133 C 0.13209 0.57707 0.844 0.0
C1134 C 0.16408 0.43654 0.71328 0.0
C1135 C 0.16276 0.45856 0.72824 0.0
C1136 C 0.14127 0.48013 0.79054 0.0
C1137 C 0.1499 0.54886 0.81417 0.0
C1138 C 0.14772 0.52584 0.79722 0.0
C1139 C 0.14612 0.45899 0.74785 0.0
C1140 C 0.14577 0.48209 0.76475 0.0
H1141 H 0.1884 0.60271 0.82633 0.0
H1142 H 0.18593 0.56282 0.80182 0.0
H1143 H 0.13888 0.4997 0.82634 0.0
H1144 H 0.12007 0.39795 0.74076 0.0
H1145 H 0.11697 0.43655 0.76607 0.0
C1146 C 0.7151 0.84099 0.08838 0.0
C1147 C 0.70524 0.86285 0.09726 0.0
C1148 C 0.72996 0.84159 0.06754 0.0
C1149 C 0.76961 0.88531 0.02999 0.0
H1150 H 0.76592 0.82667 0.98379 0.0
C1151 C 0.82387 0.87795 0.93682 0.0
C1152 C 0.83271 0.85447 0.93173 0.0
C1153 C 0.80951 0.88152 0.95783 0.0
C1154 C 0.76735 0.84314 0.99664 0.0
H1155 H 0.70289 0.90245 0.09084 0.0
H1156 H 0.72852 0.9034 0.05407 0.0
H1157 H 0.73699 0.8277 0.01735 0.0
H1158 H 0.83539 0.81724 0.94581 0.0
H1159 H 0.81092 0.8236 0.98231 0.0
H1160 H 0.80003 0.9007 1.00885 0.0
C1161 C 0.72505 0.88585 0.0635 0.0
C1162 C 0.75074 0.84372 0.01593 0.0
C1163 C 0.71016 0.88524 0.08444 0.0
C1164 C 0.82859 0.83545 0.94904 0.0
C1165 C 0.8144 0.83901 0.96987 0.0
C1166 C 0.78621 0.88478 0.01048 0.0
C1167 C 0.73531 0.86406 0.0549 0.0
C1168 C 0.75189 0.86458 0.03318 0.0
C1169 C 0.80383 0.86167 0.97398 0.0
C1170 C 0.78555 0.86343 0.99391 0.0
H1171 H 0.71186 0.82346 0.0979 0.0
H1172 H 0.73781 0.82452 0.06177 0.0
H1173 H 0.77116 0.90163 0.04301 0.0
H1174 H 0.82659 0.89288 0.92372 0.0
H1175 H 0.80167 0.89924 0.96057 0.0
C1176 C 0.19438 0.64928 0.94255 0.0
C1177 C 0.18928 0.67394 0.93744 0.0
C1178 C 0.21009 0.64512 0.96302 0.0
C1179 C 0.26167 0.67935 1.00059 0.0
H1180 H 0.25182 0.62616 0.04771 0.0
C1181 C 0.31879 0.68182 0.09312 0.0
C1182 C 0.32533 0.65915 0.1026 0.0
C1183 C 0.30322 0.68155 0.07177 0.0
C1184 C 0.25504 0.64087 0.03445 0.0
H1185 H 0.19501 0.71319 0.95109 0.0
H1186 H 0.22192 0.70589 0.9866 0.0
H1187 H 0.22103 0.62909 0.01374 0.0
H1188 H 0.3211 0.61838 0.09666 0.0
H1189 H 0.29404 0.61792 0.059 0.0
H1190 H 0.29553 0.69123 0.021 0.0
C1191 C 0.21438 0.68985 0.97452 0.0
C1192 C 0.23735 0.64258 0.01506 0.0
C1193 C 0.19878 0.69399 0.95422 0.0
C1194 C 0.31647 0.63618 0.08977 0.0
C1195 C 0.30078 0.63591 0.06834 0.0
C1196 C 0.27934 0.67758 0.01978 0.0
C1197 C 0.22095 0.66555 0.97865 0.0
C1198 C 0.24023 0.66221 0.99827 0.0
C1199 C 0.29375 0.6586 0.05924 0.0
C1200 C 0.27604 0.65867 0.03731 0.0
H1201 H 0.18746 0.63344 0.92993 0.0
H1202 H 0.21476 0.62615 0.96581 0.0
H1203 H 0.26477 0.69431 0.98757 0.0
H1204 H 0.32517 0.69985 0.10258 0.0
H1205 H 0.29797 0.69939 0.06558 0.0
C1206 C 0.69726 0.19523 0.45612 0.0
C1207 C 0.68856 0.17504 0.43914 0.0
C1208 C 0.71294 0.19153 0.4765 0.0
C1209 C 0.73766 0.14452 0.51642 0.0
H1210 H 0.79397 0.19544 0.52399 0.0
C1211 C 0.81777 0.13806 0.58967 0.0
C1212 C 0.82628 0.16066 0.60334 0.0
C1213 C 0.80175 0.13827 0.56859 0.0
C1214 C 0.77829 0.18117 0.52234 0.0
H1215 H 0.68831 0.13473 0.43132 0.0
H1216 H 0.71576 0.12822 0.46728 0.0
H1217 H 0.76298 0.19825 0.49072 0.0
H1218 H 0.82507 0.20125 0.6052 0.0
H1219 H 0.7972 0.20163 0.56875 0.0
H1220 H 0.75291 0.12765 0.54838 0.0
C1221 C 0.71038 0.14695 0.46464 0.0
C1222 C 0.76048 0.18279 0.50324 0.0
C1223 C 0.69458 0.15066 0.4441 0.0
C1224 C 0.819 0.18351 0.59504 0.0
C1225 C 0.80304 0.18372 0.57402 0.0
C1226 C 0.7555 0.14295 0.53569 0.0
C1227 C 0.72042 0.16756 0.48051 0.0
C1228 C 0.73974 0.16474 0.50027 0.0
C1229 C 0.79393 0.16109 0.56068 0.0
C1230 C 0.77586 0.16149 0.5391 0.0
H1231 H 0.69278 0.21422 0.45308 0.0
H1232 H 0.7198 0.20768 0.48876 0.0
H1233 H 0.72189 0.13035 0.51464 0.0
H1234 H 0.82299 0.12012 0.5956 0.0
H1235 H 0.79537 0.12053 0.55857 0.0
C1236 C 0.21656 0.34194 0.58787 0.0
C1237 C 0.20618 0.36354 0.59665 0.0
C1238 C 0.23177 0.34292 0.5673 0.0
C1239 C 0.27126 0.38751 0.53035 0.0
H1240 H 0.26936 0.32901 0.48419 0.0
C1241 C 0.33189 0.33924 0.4497 0.0
C1242 C 0.33548 0.35826 0.43232 0.0
C1243 C 0.31772 0.34251 0.47061 0.0
C1244 C 0.2703 0.34544 0.49705 0.0
H1245 H 0.20331 0.40306 0.59029 0.0
H1246 H 0.22952 0.40465 0.55396 0.0
H1247 H 0.23995 0.32931 0.51734 0.0
H1248 H 0.32846 0.39639 0.42424 0.0
H1249 H 0.30361 0.40226 0.46124 0.0
H1250 H 0.30164 0.40362 0.50957 0.0
C1251 C 0.22619 0.38703 0.56328 0.0
C1252 C 0.25341 0.34561 0.5161 0.0
C1253 C 0.21096 0.38605 0.58397 0.0
C1254 C 0.32621 0.3815 0.43745 0.0
C1255 C 0.31186 0.38479 0.45853 0.0
C1256 C 0.28814 0.3874 0.51106 0.0
C1257 C 0.23697 0.3655 0.5548 0.0
C1258 C 0.2539 0.36642 0.53334 0.0
C1259 C 0.30662 0.36486 0.4747 0.0
C1260 C 0.28813 0.36612 0.49451 0.0
H1261 H 0.21345 0.32434 0.59729 0.0
H1262 H 0.24 0.32605 0.56163 0.0
H1263 H 0.27231 0.40381 0.54336 0.0
H1264 H 0.33897 0.32118 0.44637 0.0
H1265 H 0.31458 0.32705 0.48306 0.0
C1266 C 0.10064 0.74632 0.88982 0.0
C1267 C 0.10101 0.72003 0.88598 0.0
C1268 C 0.07837 0.7569 0.89141 0.0
C1269 C 0.0121 0.74267 0.90277 0.0
H1270 H 1.00532 0.80125 0.86342 0.0
C1271 C 0.91782 0.77963 0.88296 0.0
C1272 C 0.91682 0.80577 0.88086 0.0
C1273 C 0.9404 0.76971 0.88574 0.0
C1274 C 1.00695 0.78519 0.8749 0.0
H1275 H 0.07793 0.68426 0.88172 0.0
H1276 H 0.03903 0.7028 0.88468 0.0
H1277 H 0.04419 0.78283 0.86465 0.0
H1278 H 0.93905 0.84199 0.88095 0.0
H1279 H 0.97837 0.82477 0.88644 0.0
H1280 H 0.97489 0.74508 0.91314 0.0
C1281 C 0.0561 0.71517 0.88646 0.0
C1282 C 0.02928 0.77456 0.87553 0.0
C1283 C 0.07843 0.70455 0.88468 0.0
C1284 C 0.93905 0.82177 0.88235 0.0
C1285 C 0.96166 0.81184 0.88532 0.0
C1286 C 0.98978 0.75343 0.9023 0.0
C1287 C 0.0558 0.74152 0.88938 0.0
C1288 C 0.03212 0.75309 0.88936 0.0
C1289 C 0.96269 0.78561 0.88669 0.0
C1290 C 0.98682 0.77476 0.88822 0.0
H1291 H 0.11757 0.75892 0.891 0.0
H1292 H 0.07883 0.77722 0.89405 0.0
H1293 H 0.01376 0.72633 0.91385 0.0
H1294 H 0.90116 0.76662 0.8818 0.0
H1295 H 0.94034 0.74942 0.88636 0.0
C1296 C 0.07808 0.33584 0.65461 0.0
C1297 C 0.10009 0.32939 0.64463 0.0
C1298 C 0.05614 0.32018 0.64974 0.0
C1299 C 0.02577 0.26211 0.61515 0.0
H1300 H 0.99816 0.25004 0.68016 0.0
C1301 C 0.93441 0.19857 0.63535 0.0
C1302 C 0.93476 0.18588 0.65793 0.0
C1303 C 0.95535 0.21397 0.62847 0.0
C1304 C 1.00571 0.25301 0.66186 0.0
H1305 H 0.11632 0.30258 0.62041 0.0
H1306 H 0.07793 0.27495 0.61196 0.0
H1307 H 0.03107 0.28369 0.67653 0.0
H1308 H 0.95779 0.17702 0.68947 0.0
H1309 H 0.99434 0.20307 0.67714 0.0
H1310 H 1.00019 0.23084 0.60077 0.0
C1311 C 0.07745 0.29235 0.62314 0.0
C1312 C 0.02435 0.27264 0.65968 0.0
C1313 C 0.09942 0.30825 0.62782 0.0
C1314 C 0.95702 0.18665 0.67201 0.0
C1315 C 0.97786 0.20177 0.66507 0.0
C1316 C 1.00677 0.24244 0.61732 0.0
C1317 C 0.0559 0.29742 0.63524 0.0
C1318 C 0.03473 0.27746 0.63637 0.0
C1319 C 0.97686 0.21674 0.64405 0.0
C1320 C 0.99682 0.23749 0.64083 0.0
H1321 H 0.07825 0.35184 0.66792 0.0
H1322 H 0.03974 0.32491 0.65893 0.0
H1323 H 0.03343 0.26532 0.59695 0.0
H1324 H 0.91739 0.19857 0.62434 0.0
H1325 H 0.95405 0.22525 0.61215 0.0
C1326 C 0.59716 0.24034 0.4009 0.0
C1327 C 0.59867 0.21755 0.38701 0.0
C1328 C 0.57468 0.25056 0.40272 0.0
C1329 C 0.50658 0.23572 0.38927 0.0
H1330 H 0.50879 0.30868 0.39053 0.0
C1331 C 0.43833 0.31876 0.36953 0.0
C1332 C 0.41639 0.30735 0.37897 0.0
C1333 C 0.46038 0.30785 0.37254 0.0
C1334 C 0.5077 0.28826 0.38988 0.0
H1335 H 0.57759 0.18751 0.36433 0.0
H1336 H 0.53874 0.20568 0.36661 0.0
H1337 H 0.54685 0.28923 0.39131 0.0
H1338 H 0.40063 0.27587 0.3997 0.0
H1339 H 0.43918 0.25748 0.406 0.0
H1340 H 0.46741 0.23473 0.38617 0.0
C1341 C 0.55465 0.2154 0.37685 0.0
C1342 C 0.5297 0.27702 0.39082 0.0
C1343 C 0.57705 0.20496 0.37543 0.0
C1344 C 0.41716 0.28507 0.39204 0.0
C1345 C 0.43932 0.2744 0.39546 0.0
C1346 C 0.48456 0.24696 0.38789 0.0
C1347 C 0.55315 0.23855 0.39027 0.0
C1348 C 0.52953 0.25054 0.3904 0.0
C1349 C 0.46125 0.28544 0.3855 0.0
C1350 C 0.48475 0.27342 0.38801 0.0
H1351 H 0.61344 0.25045 0.4102 0.0
H1352 H 0.57432 0.26804 0.41379 0.0
H1353 H 0.50549 0.21532 0.38935 0.0
H1354 H 0.43838 0.33576 0.3591 0.0
H1355 H 0.4766 0.31676 0.36408 0.0
C1356 C 0.61762 0.57929 0.70486 0.0
C1357 C 0.63388 0.58487 0.68551 0.0
C1358 C 0.61627 0.55582 0.71582 0.0
C1359 C 0.65679 0.50961 0.73232 0.0
H1360 H 0.59792 0.46918 0.75198 0.0
C1361 C 0.65603 0.44375 0.81554 0.0
C1362 C 0.64615 0.41854 0.81036 0.0
C1363 C 0.65312 0.46217 0.79807 0.0
C1364 C 0.6145 0.48022 0.74649 0.0
H1365 H 0.66085 0.56998 0.66181 0.0
H1366 H 0.65889 0.52896 0.68137 0.0
H1367 H 0.59438 0.50372 0.72343 0.0
H1368 H 0.62476 0.39308 0.78306 0.0
H1369 H 0.61894 0.42562 0.75283 0.0
H1370 H 0.67683 0.48694 0.75622 0.0
C1371 C 0.64691 0.54268 0.68776 0.0
C1372 C 0.61248 0.49996 0.73021 0.0
C1373 C 0.64784 0.56601 0.67638 0.0
C1374 C 0.63259 0.41234 0.78761 0.0
C1375 C 0.62923 0.43093 0.77032 0.0
C1376 C 0.65876 0.49026 0.74897 0.0
C1377 C 0.63161 0.53764 0.70807 0.0
C1378 C 0.63361 0.51498 0.72309 0.0
C1379 C 0.63985 0.45594 0.77521 0.0
C1380 C 0.63763 0.47552 0.75643 0.0
H1381 H 0.60688 0.59362 0.71244 0.0
H1382 H 0.60446 0.55259 0.73153 0.0
H1383 H 0.67337 0.52104 0.72744 0.0
H1384 H 0.66666 0.44915 0.83282 0.0
H1385 H 0.66131 0.48136 0.80241 0.0
C1386 C 0.36291 0.06902 0.8297 0.0
C1387 C 0.37755 0.09099 0.82355 0.0
C1388 C 0.36625 0.04557 0.81792 0.0
C1389 C 0.38234 0.99615 0.79539 0.0
H1390 H 0.39484 0.99945 0.72427 0.0
C1391 C 0.39736 0.90675 0.73619 0.0
C1392 C 0.38499 0.90309 0.71252 0.0
C1393 C 0.39916 0.93015 0.74936 0.0
C1394 C 0.39124 0.99814 0.74406 0.0
H1395 H 0.40839 0.10541 0.80195 0.0
H1396 H 0.41479 0.06466 0.78225 0.0
H1397 H 0.39262 0.03828 0.74959 0.0
H1398 H 0.36591 0.92161 0.68355 0.0
H1399 H 0.369 0.96269 0.70658 0.0
H1400 H 0.38018 0.95596 0.78967 0.0
C1401 C 0.40021 0.06546 0.79543 0.0
C1402 C 0.39027 0.02046 0.75871 0.0
C1403 C 0.39676 0.08878 0.80699 0.0
C1404 C 0.3758 0.92389 0.7016 0.0
C1405 C 0.37748 0.94741 0.7149 0.0
C1406 C 0.38333 0.97382 0.78074 0.0
C1407 C 0.38437 0.04372 0.79991 0.0
C1408 C 0.38585 0.01979 0.78459 0.0
C1409 C 0.38849 0.95057 0.73932 0.0
C1410 C 0.38782 0.97451 0.75487 0.0
H1411 H 0.34772 0.07022 0.84208 0.0
H1412 H 0.35367 0.02924 0.82182 0.0
H1413 H 0.37897 0.99487 0.81522 0.0
H1414 H 0.40483 0.89115 0.74507 0.0
H1415 H 0.40838 0.93204 0.76776 0.0
C1416 C 0.42888 0.21772 0.83226 0.0
C1417 C 0.41775 0.20231 0.85042 0.0
C1418 C 0.44872 0.23576 0.83886 0.0
C1419 C 0.50004 0.25131 0.88407 0.0
H1420 H 0.50075 0.31865 0.85895 0.0
C1421 C 0.5861 0.32145 0.90096 0.0
C1422 C 0.59392 0.33474 0.88 0.0
C1423 C 0.56206 0.30967 0.90155 0.0
C1424 C 0.50097 0.29992 0.86601 0.0
H1425 H 0.41936 0.19361 0.8898 0.0
H1426 H 0.45463 0.22485 0.90117 0.0
H1427 H 0.46435 0.28821 0.85129 0.0
H1428 H 0.58253 0.34741 0.84387 0.0
H1429 H 0.54074 0.3264 0.84442 0.0
H1430 H 0.53695 0.26226 0.89763 0.0
C1431 C 0.44763 0.22298 0.88184 0.0
C1432 C 0.48006 0.28251 0.86167 0.0
C1433 C 0.42746 0.20508 0.87531 0.0
C1434 C 0.57677 0.33773 0.86048 0.0
C1435 C 0.5528 0.3255 0.86081 0.0
C1436 C 0.52106 0.26859 0.88813 0.0
C1437 C 0.45824 0.23873 0.86372 0.0
C1438 C 0.47952 0.2579 0.87032 0.0
C1439 C 0.54548 0.31032 0.88085 0.0
C1440 C 0.52199 0.29306 0.87886 0.0
H1441 H 0.42205 0.21621 0.81288 0.0
H1442 H 0.45678 0.2473 0.82438 0.0
H1443 H 0.50026 0.23241 0.89073 0.0
H1444 H 0.59909 0.31875 0.91616 0.0
H1445 H 0.55694 0.29887 0.91766 0.0
C1446 C 0.37245 0.58702 0.21529 0.0
C1447 C 0.37799 0.61104 0.22747 0.0
C1448 C 0.37232 0.56506 0.22891 0.0
C1449 C 0.36202 0.54261 0.29182 0.0
H1450 H 0.39696 0.48588 0.27138 0.0
C1451 C 0.34773 0.44323 0.33365 0.0
C1452 C 0.36922 0.43231 0.34023 0.0
C1453 C 0.34913 0.46583 0.32104 0.0
C1454 C 0.38717 0.50163 0.27733 0.0
H1455 H 0.38832 0.63051 0.2636 0.0
H1456 H 0.38749 0.5924 0.28715 0.0
H1457 H 0.3989 0.52333 0.24604 0.0
H1458 H 0.40907 0.43683 0.3392 0.0
H1459 H 0.41143 0.47606 0.31681 0.0
H1460 H 0.34996 0.52078 0.32287 0.0
C1461 C 0.38328 0.5906 0.26709 0.0
C1462 C 0.38813 0.52293 0.26274 0.0
C1463 C 0.38386 0.61245 0.25348 0.0
C1464 C 0.39217 0.44483 0.33455 0.0
C1465 C 0.39353 0.46716 0.32152 0.0
C1466 C 0.36068 0.52114 0.30614 0.0
C1467 C 0.37728 0.5667 0.25504 0.0
C1468 C 0.37572 0.54371 0.26995 0.0
C1469 C 0.37201 0.47769 0.31433 0.0
C1470 C 0.37338 0.5005 0.29915 0.0
H1471 H 0.36789 0.58518 0.19531 0.0
H1472 H 0.36761 0.54683 0.21917 0.0
H1473 H 0.35215 0.55831 0.29772 0.0
H1474 H 0.32978 0.43399 0.33769 0.0
H1475 H 0.33224 0.47351 0.31567 0.0
C1476 C 0.67404 0.09006 0.3293 0.0
C1477 C 0.6544 0.09547 0.34429 0.0
C1478 C 0.67292 0.06733 0.31506 0.0
C1479 C 0.64448 1.00227 0.30793 0.0
H1480 H 0.65598 0.0095 0.23704 0.0
C1481 C 0.6328 0.91572 0.23788 0.0
C1482 C 0.6498 0.91493 0.21871 0.0
C1483 C 0.63163 0.93786 0.25267 0.0
C1484 C 0.65306 0.00701 0.25681 0.0
H1485 H 0.61878 0.08063 0.35716 0.0
H1486 H 0.61716 0.04039 0.33264 0.0
H1487 H 0.65858 0.04692 0.26534 0.0
H1488 H 0.67865 0.93696 0.19983 0.0
H1489 H 0.67721 0.97526 0.22601 0.0
H1490 H 0.63984 0.96237 0.29976 0.0
C1491 C 0.63326 0.05401 0.3318 0.0
C1492 C 0.65445 0.02851 0.273 0.0
C1493 C 0.63421 0.077 0.34582 0.0
C1494 C 0.66514 0.937 0.21424 0.0
C1495 C 0.66425 0.95904 0.22929 0.0
C1496 C 0.64347 0.98068 0.29181 0.0
C1497 C 0.65231 0.04931 0.31573 0.0
C1498 C 0.6503 0.02635 0.29871 0.0
C1499 C 0.64771 0.9597 0.24896 0.0
C1500 C 0.64785 0.98274 0.26601 0.0
H1501 H 0.68988 0.10386 0.32767 0.0
H1502 H 0.688 0.06401 0.30309 0.0
H1503 H 0.64134 1.0001 0.32772 0.0
H1504 H 0.62059 0.89907 0.24171 0.0
H1505 H 0.61823 0.93773 0.26718 0.0
C1506 C 0.59884 0.80883 0.12941 0.0
C1507 C 0.59971 0.83011 0.14606 0.0
C1508 C 0.57671 0.7932 0.12471 0.0
C1509 C 0.52297 0.77471 0.16091 0.0
H1510 H 0.49923 0.73232 0.10225 0.0
C1511 C 0.45457 0.68962 0.17345 0.0
C1512 C 0.43263 0.68864 0.15882 0.0
C1513 C 0.47564 0.70451 0.16671 0.0
C1514 C 0.50568 0.74409 0.11873 0.0
H1515 H 0.5781 0.8531 0.16904 0.0
H1516 H 0.5393 0.82668 0.15996 0.0
H1517 H 0.53284 0.76639 0.09844 0.0
H1518 H 0.41603 0.70075 0.12456 0.0
H1519 H 0.45307 0.72708 0.11273 0.0
H1520 H 0.49624 0.75272 0.1813 0.0
C1521 C 0.55566 0.82161 0.15095 0.0
C1522 C 0.5249 0.76353 0.11657 0.0
C1523 C 0.57777 0.83698 0.15586 0.0
C1524 C 0.43282 0.70093 0.13599 0.0
C1525 C 0.45398 0.71611 0.12932 0.0
C1526 C 0.50409 0.75533 0.16308 0.0
C1527 C 0.55518 0.79871 0.13662 0.0
C1528 C 0.53374 0.77908 0.1377 0.0
C1529 C 0.47517 0.71907 0.14536 0.0
C1530 C 0.49534 0.73959 0.14215 0.0
H1531 H 0.61567 0.80285 0.12214 0.0
H1532 H 0.57702 0.77569 0.11366 0.0
H1533 H 0.52957 0.7859 0.17771 0.0
H1534 H 0.45492 0.68031 0.19112 0.0
H1535 H 0.49187 0.70593 0.17915 0.0
loop_
_geom_bond_atom_site_label_1
_geom_bond_atom_site_label_2
_geom_bond_distance
_geom_bond_site_symmetry_2
_ccdc_geom_bond_type
Mn0 O5 2.095 . S
Mn0 O15 2.162 . S
Mn0 O16 2.297 . S
Mn0 O24 2.385 . S
Mn0 O25 2.209 . S
Mn0 O26 2.094 . S
Mn1 O6 2.121 . S
Mn1 N8 2.257 . S
Mn1 N17 2.282 . S
Mn1 O25 2.215 . S
Mn1 O27 2.117 . S
C2 O24 1.234 . S
C2 O25 1.283 . S
C3 O15 1.281 . S
C3 O16 1.236 . S
C4 O26 1.240 . S
C4 O27 1.264 . S
O5 Mn0 2.095 . S
O5 C14 1.250 . S
O6 Mn1 2.121 . S
O6 C14 1.258 . S
C7 N8 1.326 . S
C7 C11 1.460 . S
C7 H13 0.929 . S
N8 Mn1 2.257 . S
N8 C7 1.326 . S
N8 C12 1.362 . S
C9 C10 1.258 . S
C9 C12 1.431 . S
C9 C29 1.449 . S
C10 C9 1.258 . S
C10 C11 1.477 . S
C10 H30 0.931 . S
C11 C7 1.460 . S
C11 C10 1.477 . S
C11 H31 0.930 . S
C12 N8 1.362 . S
C12 C9 1.431 . S
C12 C22 1.476 . S
H13 C7 0.929 . S
C14 O5 1.250 . S
C14 O6 1.258 . S
O15 Mn0 2.162 . S
O15 C3 1.281 . S
O16 Mn0 2.297 . S
O16 C3 1.236 . S
N17 Mn1 2.282 . S
N17 C18 1.328 . S
N17 C22 1.318 . S
C18 N17 1.328 . S
C18 C19 1.457 . S
C18 H23 0.929 . S
C19 C18 1.457 . S
C19 C20 1.291 . S
C19 H32 0.931 . S
C20 C19 1.291 . S
C20 C21 1.373 . S
C20 H33 0.929 . S
C21 C20 1.373 . S
C21 C22 1.396 . S
C21 C28 1.403 . S
C22 C12 1.476 . S
C22 N17 1.318 . S
C22 C21 1.396 . S
H23 C18 0.929 . S
O24 Mn0 2.385 . S
O24 C2 1.234 . S
O25 Mn0 2.209 . S
O25 Mn1 2.215 . S
O25 C2 1.283 . S
O26 Mn0 2.094 . S
O26 C4 1.240 . S
O27 Mn1 2.117 . S
O27 C4 1.264 . S
C28 C21 1.403 . S
C28 C29 1.399 . S
C28 H34 0.929 . S
C29 C9 1.449 . S
C29 C28 1.399 . S
C29 H35 0.930 . S
H30 C10 0.931 . S
H31 C11 0.930 . S
H32 C19 0.931 . S
H33 C20 0.929 . S
H34 C28 0.929 . S
H35 C29 0.930 . S
Mn36 O41 2.095 . S
Mn36 O51 2.162 . S
Mn36 O52 2.297 . S
Mn36 O60 2.385 . S
Mn36 O61 2.209 . S
Mn36 O62 2.094 . S
Mn37 O42 2.121 . S
Mn37 N44 2.257 . S
Mn37 N53 2.282 . S
Mn37 O61 2.215 . S
Mn37 O63 2.117 . S
C38 O60 1.234 . S
C38 O61 1.283 . S
C39 O51 1.281 . S
C39 O52 1.236 . S
C40 O62 1.240 . S
C40 O63 1.264 . S
O41 Mn36 2.095 . S
O41 C50 1.250 . S
O42 Mn37 2.121 . S
O42 C50 1.258 . S
C43 N44 1.326 . S
C43 C47 1.460 . S
C43 H49 0.929 . S
N44 Mn37 2.257 . S
N44 C43 1.326 . S
N44 C48 1.362 . S
C45 C46 1.258 . S
C45 C48 1.431 . S
C45 C65 1.449 . S
C46 C45 1.258 . S
C46 C47 1.477 . S
C46 H66 0.931 . S
C47 C43 1.460 . S
C47 C46 1.477 . S
C47 H67 0.930 . S
C48 N44 1.362 . S
C48 C45 1.431 . S
C48 C58 1.476 . S
H49 C43 0.929 . S
C50 O41 1.250 . S
C50 O42 1.258 . S
O51 Mn36 2.162 . S
O51 C39 1.281 . S
O52 Mn36 2.297 . S
O52 C39 1.236 . S
N53 Mn37 2.282 . S
N53 C54 1.328 . S
N53 C58 1.318 . S
C54 N53 1.328 . S
C54 C55 1.457 . S
C54 H59 0.929 . S
C55 C54 1.457 . S
C55 C56 1.291 . S
C55 H68 0.931 . S
C56 C55 1.291 . S
C56 C57 1.373 . S
C56 H69 0.929 . S
C57 C56 1.373 . S
C57 C58 1.396 . S
C57 C64 1.403 . S
C58 C48 1.476 . S
C58 N53 1.318 . S
C58 C57 1.396 . S
H59 C54 0.929 . S
O60 Mn36 2.385 . S
O60 C38 1.234 . S
O61 Mn36 2.209 . S
O61 Mn37 2.215 . S
O61 C38 1.283 . S
O62 Mn36 2.094 . S
O62 C40 1.240 . S
O63 Mn37 2.117 . S
O63 C40 1.264 . S
C64 C57 1.403 . S
C64 C65 1.399 . S
C64 H70 0.929 . S
C65 C45 1.449 . S
C65 C64 1.399 . S
C65 H71 0.930 . S
H66 C46 0.931 . S
H67 C47 0.930 . S
H68 C55 0.931 . S
H69 C56 0.929 . S
H70 C64 0.929 . S
H71 C65 0.930 . S
Mn72 O77 2.095 . S
Mn72 O87 2.162 . S
Mn72 O88 2.297 . S
Mn72 O96 2.385 . S
Mn72 O97 2.209 . S
Mn72 O98 2.094 . S
Mn73 O78 2.121 . S
Mn73 N80 2.257 . S
Mn73 N89 2.282 . S
Mn73 O97 2.215 . S
Mn73 O99 2.117 . S
C74 O96 1.234 . S
C74 O97 1.283 . S
C75 O87 1.281 . S
C75 O88 1.236 . S
C76 O98 1.240 . S
C76 O99 1.264 . S
O77 Mn72 2.095 . S
O77 C86 1.250 . S
O78 Mn73 2.121 . S
O78 C86 1.258 . S
C79 N80 1.326 . S
C79 C83 1.460 . S
C79 H85 0.929 . S
N80 Mn73 2.257 . S
N80 C79 1.326 . S
N80 C84 1.362 . S
C81 C82 1.258 . S
C81 C84 1.431 . S
C81 C101 1.449 . S
C82 C81 1.258 . S
C82 C83 1.477 . S
C82 H102 0.931 . S
C83 C79 1.460 . S
C83 C82 1.477 . S
C83 H103 0.930 . S
C84 N80 1.362 . S
C84 C81 1.431 . S
C84 C94 1.476 . S
H85 C79 0.929 . S
C86 O77 1.250 . S
C86 O78 1.258 . S
O87 Mn72 2.162 . S
O87 C75 1.281 . S
O88 Mn72 2.297 . S
O88 C75 1.236 . S
N89 Mn73 2.282 . S
N89 C90 1.328 . S
N89 C94 1.318 . S
C90 N89 1.328 . S
C90 C91 1.457 . S
C90 H95 0.929 . S
C91 C90 1.457 . S
C91 C92 1.291 . S
C91 H104 0.931 . S
C92 C91 1.291 . S
C92 C93 1.373 . S
C92 H105 0.929 . S
C93 C92 1.373 . S
C93 C94 1.396 . S
C93 C100 1.403 . S
C94 C84 1.476 . S
C94 N89 1.318 . S
C94 C93 1.396 . S
H95 C90 0.929 . S
O96 Mn72 2.385 . S
O96 C74 1.234 . S
O97 Mn72 2.209 . S
O97 Mn73 2.215 . S
O97 C74 1.283 . S
O98 Mn72 2.094 . S
O98 C76 1.240 . S
O99 Mn73 2.117 . S
O99 C76 1.264 . S
C100 C93 1.403 . S
C100 C101 1.399 . S
C100 H106 0.929 . S
C101 C81 1.449 . S
C101 C100 1.399 . S
C101 H107 0.930 . S
H102 C82 0.931 . S
H103 C83 0.930 . S
H104 C91 0.931 . S
H105 C92 0.929 . S
H106 C100 0.929 . S
H107 C101 0.930 . S
Mn108 O113 2.095 . S
Mn108 O123 2.162 . S
Mn108 O124 2.297 . S
Mn108 O132 2.385 . S
Mn108 O133 2.209 . S
Mn108 O134 2.094 . S
Mn109 O114 2.121 . S
Mn109 N116 2.257 . S
Mn109 N125 2.282 . S
Mn109 O133 2.215 . S
Mn109 O135 2.117 . S
C110 O132 1.234 . S
C110 O133 1.283 . S
C111 O123 1.281 . S
C111 O124 1.236 . S
C112 O134 1.240 . S
C112 O135 1.264 . S
O113 Mn108 2.095 . S
O113 C122 1.250 . S
O114 Mn109 2.121 . S
O114 C122 1.258 . S
C115 N116 1.326 . S
C115 C119 1.460 . S
C115 H121 0.929 . S
N116 Mn109 2.257 . S
N116 C115 1.326 . S
N116 C120 1.362 . S
C117 C118 1.258 . S
C117 C120 1.431 . S
C117 C137 1.449 . S
C118 C117 1.258 . S
C118 C119 1.477 . S
C118 H138 0.931 . S
C119 C115 1.460 . S
C119 C118 1.477 . S
C119 H139 0.930 . S
C120 N116 1.362 . S
C120 C117 1.431 . S
C120 C130 1.476 . S
H121 C115 0.929 . S
C122 O113 1.250 . S
C122 O114 1.258 . S
O123 Mn108 2.162 . S
O123 C111 1.281 . S
O124 Mn108 2.297 . S
O124 C111 1.236 . S
N125 Mn109 2.282 . S
N125 C126 1.328 . S
N125 C130 1.318 . S
C126 N125 1.328 . S
C126 C127 1.457 . S
C126 H131 0.929 . S
C127 C126 1.457 . S
C127 C128 1.291 . S
C127 H140 0.931 . S
C128 C127 1.291 . S
C128 C129 1.373 . S
C128 H141 0.929 . S
C129 C128 1.373 . S
C129 C130 1.396 . S
C129 C136 1.403 . S
C130 C120 1.476 . S
C130 N125 1.318 . S
C130 C129 1.396 . S
H131 C126 0.929 . S
O132 Mn108 2.385 . S
O132 C110 1.234 . S
O133 Mn108 2.209 . S
O133 Mn109 2.215 . S
O133 C110 1.283 . S
O134 Mn108 2.094 . S
O134 C112 1.240 . S
O135 Mn109 2.117 . S
O135 C112 1.264 . S
C136 C129 1.403 . S
C136 C137 1.399 . S
C136 H142 0.929 . S
C137 C117 1.449 . S
C137 C136 1.399 . S
C137 H143 0.930 . S
H138 C118 0.931 . S
H139 C119 0.930 . S
H140 C127 0.931 . S
H141 C128 0.929 . S
H142 C136 0.929 . S
H143 C137 0.930 . S
Mn144 O149 2.095 . S
Mn144 O159 2.162 . S
Mn144 O160 2.297 . S
Mn144 O168 2.385 . S
Mn144 O169 2.209 . S
Mn144 O170 2.094 . S
Mn145 O150 2.121 . S
Mn145 N152 2.257 . S
Mn145 N161 2.282 . S
Mn145 O169 2.215 . S
Mn145 O171 2.117 . S
C146 O168 1.234 . S
C146 O169 1.283 . S
C147 O159 1.281 . S
C147 O160 1.236 . S
C148 O170 1.240 . S
C148 O171 1.264 . S
O149 Mn144 2.095 . S
O149 C158 1.250 . S
O150 Mn145 2.121 . S
O150 C158 1.258 . S
C151 N152 1.326 . S
C151 C155 1.460 . S
C151 H157 0.929 . S
N152 Mn145 2.257 . S
N152 C151 1.326 . S
N152 C156 1.362 . S
C153 C154 1.258 . S
C153 C156 1.431 . S
C153 C173 1.449 . S
C154 C153 1.258 . S
C154 C155 1.477 . S
C154 H174 0.931 . S
C155 C151 1.460 . S
C155 C154 1.477 . S
C155 H175 0.930 . S
C156 N152 1.362 . S
C156 C153 1.431 . S
C156 C166 1.476 . S
H157 C151 0.929 . S
C158 O149 1.250 . S
C158 O150 1.258 . S
O159 Mn144 2.162 . S
O159 C147 1.281 . S
O160 Mn144 2.297 . S
O160 C147 1.236 . S
N161 Mn145 2.282 . S
N161 C162 1.328 . S
N161 C166 1.318 . S
C162 N161 1.328 . S
C162 C163 1.457 . S
C162 H167 0.929 . S
C163 C162 1.457 . S
C163 C164 1.291 . S
C163 H176 0.931 . S
C164 C163 1.291 . S
C164 C165 1.373 . S
C164 H177 0.929 . S
C165 C164 1.373 . S
C165 C166 1.396 . S
C165 C172 1.403 . S
C166 C156 1.476 . S
C166 N161 1.318 . S
C166 C165 1.396 . S
H167 C162 0.929 . S
O168 Mn144 2.385 . S
O168 C146 1.234 . S
O169 Mn144 2.209 . S
O169 Mn145 2.215 . S
O169 C146 1.283 . S
O170 Mn144 2.094 . S
O170 C148 1.240 . S
O171 Mn145 2.117 . S
O171 C148 1.264 . S
C172 C165 1.403 . S
C172 C173 1.399 . S
C172 H178 0.929 . S
C173 C153 1.449 . S
C173 C172 1.399 . S
C173 H179 0.930 . S
H174 C154 0.931 . S
H175 C155 0.930 . S
H176 C163 0.931 . S
H177 C164 0.929 . S
H178 C172 0.929 . S
H179 C173 0.930 . S
Mn180 O185 2.095 . S
Mn180 O195 2.162 . S
Mn180 O196 2.297 . S
Mn180 O204 2.385 . S
Mn180 O205 2.209 . S
Mn180 O206 2.094 . S
Mn181 O186 2.121 . S
Mn181 N188 2.257 . S
Mn181 N197 2.282 . S
Mn181 O205 2.215 . S
Mn181 O207 2.117 . S
C182 O204 1.234 . S
C182 O205 1.283 . S
C183 O195 1.281 . S
C183 O196 1.236 . S
C184 O206 1.240 . S
C184 O207 1.264 . S
O185 Mn180 2.095 . S
O185 C194 1.250 . S
O186 Mn181 2.121 . S
O186 C194 1.258 . S
C187 N188 1.326 . S
C187 C191 1.460 . S
C187 H193 0.929 . S
N188 Mn181 2.257 . S
N188 C187 1.326 . S
N188 C192 1.362 . S
C189 C190 1.258 . S
C189 C192 1.431 . S
C189 C209 1.449 . S
C190 C189 1.258 . S
C190 C191 1.477 . S
C190 H210 0.931 . S
C191 C187 1.460 . S
C191 C190 1.477 . S
C191 H211 0.930 . S
C192 N188 1.362 . S
C192 C189 1.431 . S
C192 C202 1.476 . S
H193 C187 0.929 . S
C194 O185 1.250 . S
C194 O186 1.258 . S
O195 Mn180 2.162 . S
O195 C183 1.281 . S
O196 Mn180 2.297 . S
O196 C183 1.236 . S
N197 Mn181 2.282 . S
N197 C198 1.328 . S
N197 C202 1.318 . S
C198 N197 1.328 . S
C198 C199 1.457 . S
C198 H203 0.929 . S
C199 C198 1.457 . S
C199 C200 1.291 . S
C199 H212 0.931 . S
C200 C199 1.291 . S
C200 C201 1.373 . S
C200 H213 0.929 . S
C201 C200 1.373 . S
C201 C202 1.396 . S
C201 C208 1.403 . S
C202 C192 1.476 . S
C202 N197 1.318 . S
C202 C201 1.396 . S
H203 C198 0.929 . S
O204 Mn180 2.385 . S
O204 C182 1.234 . S
O205 Mn180 2.209 . S
O205 Mn181 2.215 . S
O205 C182 1.283 . S
O206 Mn180 2.094 . S
O206 C184 1.240 . S
O207 Mn181 2.117 . S
O207 C184 1.264 . S
C208 C201 1.403 . S
C208 C209 1.399 . S
C208 H214 0.929 . S
C209 C189 1.449 . S
C209 C208 1.399 . S
C209 H215 0.930 . S
H210 C190 0.931 . S
H211 C191 0.930 . S
H212 C199 0.931 . S
H213 C200 0.929 . S
H214 C208 0.929 . S
H215 C209 0.930 . S
Mn216 O221 2.095 . S
Mn216 O231 2.162 . S
Mn216 O232 2.297 . S
Mn216 O240 2.385 . S
Mn216 O241 2.209 . S
Mn216 O242 2.094 . S
Mn217 O222 2.121 . S
Mn217 N224 2.257 . S
Mn217 N233 2.282 . S
Mn217 O241 2.215 . S
Mn217 O243 2.117 . S
C218 O240 1.234 . S
C218 O241 1.283 . S
C219 O231 1.281 . S
C219 O232 1.236 . S
C220 O242 1.240 . S
C220 O243 1.264 . S
O221 Mn216 2.095 . S
O221 C230 1.250 . S
O222 Mn217 2.121 . S
O222 C230 1.258 . S
C223 N224 1.326 . S
C223 C227 1.460 . S
C223 H229 0.929 . S
N224 Mn217 2.257 . S
N224 C223 1.326 . S
N224 C228 1.362 . S
C225 C226 1.258 . S
C225 C228 1.431 . S
C225 C245 1.449 . S
C226 C225 1.258 . S
C226 C227 1.477 . S
C226 H246 0.931 . S
C227 C223 1.460 . S
C227 C226 1.477 . S
C227 H247 0.930 . S
C228 N224 1.362 . S
C228 C225 1.431 . S
C228 C238 1.476 . S
H229 C223 0.929 . S
C230 O221 1.250 . S
C230 O222 1.258 . S
O231 Mn216 2.162 . S
O231 C219 1.281 . S
O232 Mn216 2.297 . S
O232 C219 1.236 . S
N233 Mn217 2.282 . S
N233 C234 1.328 . S
N233 C238 1.318 . S
C234 N233 1.328 . S
C234 C235 1.457 . S
C234 H239 0.929 . S
C235 C234 1.457 . S
C235 C236 1.291 . S
C235 H248 0.931 . S
C236 C235 1.291 . S
C236 C237 1.373 . S
C236 H249 0.929 . S
C237 C236 1.373 . S
C237 C238 1.396 . S
C237 C244 1.403 . S
C238 C228 1.476 . S
C238 N233 1.318 . S
C238 C237 1.396 . S
H239 C234 0.929 . S
O240 Mn216 2.385 . S
O240 C218 1.234 . S
O241 Mn216 2.209 . S
O241 Mn217 2.215 . S
O241 C218 1.283 . S
O242 Mn216 2.094 . S
O242 C220 1.240 . S
O243 Mn217 2.117 . S
O243 C220 1.264 . S
C244 C237 1.403 . S
C244 C245 1.399 . S
C244 H250 0.929 . S
C245 C225 1.449 . S
C245 C244 1.399 . S
C245 H251 0.930 . S
H246 C226 0.931 . S
H247 C227 0.930 . S
H248 C235 0.931 . S
H249 C236 0.929 . S
H250 C244 0.929 . S
H251 C245 0.930 . S
Mn252 O257 2.095 . S
Mn252 O267 2.162 . S
Mn252 O268 2.297 . S
Mn252 O276 2.385 . S
Mn252 O277 2.209 . S
Mn252 O278 2.094 . S
Mn253 O258 2.121 . S
Mn253 N260 2.257 . S
Mn253 N269 2.282 . S
Mn253 O277 2.215 . S
Mn253 O279 2.117 . S
C254 O276 1.234 . S
C254 O277 1.283 . S
C255 O267 1.281 . S
C255 O268 1.236 . S
C256 O278 1.240 . S
C256 O279 1.264 . S
O257 Mn252 2.095 . S
O257 C266 1.250 . S
O258 Mn253 2.121 . S
O258 C266 1.258 . S
C259 N260 1.326 . S
C259 C263 1.460 . S
C259 H265 0.929 . S
N260 Mn253 2.257 . S
N260 C259 1.326 . S
N260 C264 1.362 . S
C261 C262 1.258 . S
C261 C264 1.431 . S
C261 C281 1.449 . S
C262 C261 1.258 . S
C262 C263 1.477 . S
C262 H282 0.931 . S
C263 C259 1.460 . S
C263 C262 1.477 . S
C263 H283 0.930 . S
C264 N260 1.362 . S
C264 C261 1.431 . S
C264 C274 1.476 . S
H265 C259 0.929 . S
C266 O257 1.250 . S
C266 O258 1.258 . S
O267 Mn252 2.162 . S
O267 C255 1.281 . S
O268 Mn252 2.297 . S
O268 C255 1.236 . S
N269 Mn253 2.282 . S
N269 C270 1.328 . S
N269 C274 1.318 . S
C270 N269 1.328 . S
C270 C271 1.457 . S
C270 H275 0.929 . S
C271 C270 1.457 . S
C271 C272 1.291 . S
C271 H284 0.931 . S
C272 C271 1.291 . S
C272 C273 1.373 . S
C272 H285 0.929 . S
C273 C272 1.373 . S
C273 C274 1.396 . S
C273 C280 1.403 . S
C274 C264 1.476 . S
C274 N269 1.318 . S
C274 C273 1.396 . S
H275 C270 0.929 . S
O276 Mn252 2.385 . S
O276 C254 1.234 . S
O277 Mn252 2.209 . S
O277 Mn253 2.215 . S
O277 C254 1.283 . S
O278 Mn252 2.094 . S
O278 C256 1.240 . S
O279 Mn253 2.117 . S
O279 C256 1.264 . S
C280 C273 1.403 . S
C280 C281 1.399 . S
C280 H286 0.929 . S
C281 C261 1.449 . S
C281 C280 1.399 . S
C281 H287 0.930 . S
H282 C262 0.931 . S
H283 C263 0.930 . S
H284 C271 0.931 . S
H285 C272 0.929 . S
H286 C280 0.929 . S
H287 C281 0.930 . S
Mn288 O293 2.095 . S
Mn288 O303 2.162 . S
Mn288 O304 2.297 . S
Mn288 O312 2.385 . S
Mn288 O313 2.209 . S
Mn288 O314 2.094 . S
Mn289 O294 2.121 . S
Mn289 N296 2.257 . S
Mn289 N305 2.282 . S
Mn289 O313 2.215 . S
Mn289 O315 2.117 . S
C290 O312 1.234 . S
C290 O313 1.283 . S
C291 O303 1.281 . S
C291 O304 1.236 . S
C292 O314 1.240 . S
C292 O315 1.264 . S
O293 Mn288 2.095 . S
O293 C302 1.250 . S
O294 Mn289 2.121 . S
O294 C302 1.258 . S
C295 N296 1.326 . S
C295 C299 1.460 . S
C295 H301 0.929 . S
N296 Mn289 2.257 . S
N296 C295 1.326 . S
N296 C300 1.362 . S
C297 C298 1.258 . S
C297 C300 1.431 . S
C297 C317 1.449 . S
C298 C297 1.258 . S
C298 C299 1.477 . S
C298 H318 0.931 . S
C299 C295 1.460 . S
C299 C298 1.477 . S
C299 H319 0.930 . S
C300 N296 1.362 . S
C300 C297 1.431 . S
C300 C310 1.476 . S
H301 C295 0.929 . S
C302 O293 1.250 . S
C302 O294 1.258 . S
O303 Mn288 2.162 . S
O303 C291 1.281 . S
O304 Mn288 2.297 . S
O304 C291 1.236 . S
N305 Mn289 2.282 . S
N305 C306 1.328 . S
N305 C310 1.318 . S
C306 N305 1.328 . S
C306 C307 1.457 . S
C306 H311 0.929 . S
C307 C306 1.457 . S
C307 C308 1.291 . S
C307 H320 0.931 . S
C308 C307 1.291 . S
C308 C309 1.373 . S
C308 H321 0.929 . S
C309 C308 1.373 . S
C309 C310 1.396 . S
C309 C316 1.403 . S
C310 C300 1.476 . S
C310 N305 1.318 . S
C310 C309 1.396 . S
H311 C306 0.929 . S
O312 Mn288 2.385 . S
O312 C290 1.234 . S
O313 Mn288 2.209 . S
O313 Mn289 2.215 . S
O313 C290 1.283 . S
O314 Mn288 2.094 . S
O314 C292 1.240 . S
O315 Mn289 2.117 . S
O315 C292 1.264 . S
C316 C309 1.403 . S
C316 C317 1.399 . S
C316 H322 0.929 . S
C317 C297 1.449 . S
C317 C316 1.399 . S
C317 H323 0.930 . S
H318 C298 0.931 . S
H319 C299 0.930 . S
H320 C307 0.931 . S
H321 C308 0.929 . S
H322 C316 0.929 . S
H323 C317 0.930 . S
Mn324 O329 2.095 . S
Mn324 O339 2.162 . S
Mn324 O340 2.297 . S
Mn324 O348 2.385 . S
Mn324 O349 2.209 . S
Mn324 O350 2.094 . S
Mn325 O330 2.121 . S
Mn325 N332 2.257 . S
Mn325 N341 2.282 . S
Mn325 O349 2.215 . S
Mn325 O351 2.117 . S
C326 O348 1.234 . S
C326 O349 1.283 . S
C327 O339 1.281 . S
C327 O340 1.236 . S
C328 O350 1.240 . S
C328 O351 1.264 . S
O329 Mn324 2.095 . S
O329 C338 1.250 . S
O330 Mn325 2.121 . S
O330 C338 1.258 . S
C331 N332 1.326 . S
C331 C335 1.460 . S
C331 H337 0.929 . S
N332 Mn325 2.257 . S
N332 C331 1.326 . S
N332 C336 1.362 . S
C333 C334 1.258 . S
C333 C336 1.431 . S
C333 C353 1.449 . S
C334 C333 1.258 . S
C334 C335 1.477 . S
C334 H354 0.931 . S
C335 C331 1.460 . S
C335 C334 1.477 . S
C335 H355 0.930 . S
C336 N332 1.362 . S
C336 C333 1.431 . S
C336 C346 1.476 . S
H337 C331 0.929 . S
C338 O329 1.250 . S
C338 O330 1.258 . S
O339 Mn324 2.162 . S
O339 C327 1.281 . S
O340 Mn324 2.297 . S
O340 C327 1.236 . S
N341 Mn325 2.282 . S
N341 C342 1.328 . S
N341 C346 1.318 . S
C342 N341 1.328 . S
C342 C343 1.457 . S
C342 H347 0.929 . S
C343 C342 1.457 . S
C343 C344 1.291 . S
C343 H356 0.931 . S
C344 C343 1.291 . S
C344 C345 1.373 . S
C344 H357 0.929 . S
C345 C344 1.373 . S
C345 C346 1.396 . S
C345 C352 1.403 . S
C346 C336 1.476 . S
C346 N341 1.318 . S
C346 C345 1.396 . S
H347 C342 0.929 . S
O348 Mn324 2.385 . S
O348 C326 1.234 . S
O349 Mn324 2.209 . S
O349 Mn325 2.215 . S
O349 C326 1.283 . S
O350 Mn324 2.094 . S
O350 C328 1.240 . S
O351 Mn325 2.117 . S
O351 C328 1.264 . S
C352 C345 1.403 . S
C352 C353 1.399 . S
C352 H358 0.929 . S
C353 C333 1.449 . S
C353 C352 1.399 . S
C353 H359 0.930 . S
H354 C334 0.931 . S
H355 C335 0.930 . S
H356 C343 0.931 . S
H357 C344 0.929 . S
H358 C352 0.929 . S
H359 C353 0.930 . S
Mn360 O365 2.095 . S
Mn360 O375 2.162 . S
Mn360 O376 2.297 . S
Mn360 O384 2.385 . S
Mn360 O385 2.209 . S
Mn360 O386 2.094 . S
Mn361 O366 2.121 . S
Mn361 N368 2.257 . S
Mn361 N377 2.282 . S
Mn361 O385 2.215 . S
Mn361 O387 2.117 . S
C362 O384 1.234 . S
C362 O385 1.283 . S
C363 O375 1.281 . S
C363 O376 1.236 . S
C364 O386 1.240 . S
C364 O387 1.264 . S
O365 Mn360 2.095 . S
O365 C374 1.250 . S
O366 Mn361 2.121 . S
O366 C374 1.258 . S
C367 N368 1.326 . S
C367 C371 1.460 . S
C367 H373 0.929 . S
N368 Mn361 2.257 . S
N368 C367 1.326 . S
N368 C372 1.362 . S
C369 C370 1.258 . S
C369 C372 1.431 . S
C369 C389 1.449 . S
C370 C369 1.258 . S
C370 C371 1.477 . S
C370 H390 0.931 . S
C371 C367 1.460 . S
C371 C370 1.477 . S
C371 H391 0.930 . S
C372 N368 1.362 . S
C372 C369 1.431 . S
C372 C382 1.476 . S
H373 C367 0.929 . S
C374 O365 1.250 . S
C374 O366 1.258 . S
O375 Mn360 2.162 . S
O375 C363 1.281 . S
O376 Mn360 2.297 . S
O376 C363 1.236 . S
N377 Mn361 2.282 . S
N377 C378 1.328 . S
N377 C382 1.318 . S
C378 N377 1.328 . S
C378 C379 1.457 . S
C378 H383 0.929 . S
C379 C378 1.457 . S
C379 C380 1.291 . S
C379 H392 0.931 . S
C380 C379 1.291 . S
C380 C381 1.373 . S
C380 H393 0.929 . S
C381 C380 1.373 . S
C381 C382 1.396 . S
C381 C388 1.403 . S
C382 C372 1.476 . S
C382 N377 1.318 . S
C382 C381 1.396 . S
H383 C378 0.929 . S
O384 Mn360 2.385 . S
O384 C362 1.234 . S
O385 Mn360 2.209 . S
O385 Mn361 2.215 . S
O385 C362 1.283 . S
O386 Mn360 2.094 . S
O386 C364 1.240 . S
O387 Mn361 2.117 . S
O387 C364 1.264 . S
C388 C381 1.403 . S
C388 C389 1.399 . S
C388 H394 0.929 . S
C389 C369 1.449 . S
C389 C388 1.399 . S
C389 H395 0.930 . S
H390 C370 0.931 . S
H391 C371 0.930 . S
H392 C379 0.931 . S
H393 C380 0.929 . S
H394 C388 0.929 . S
H395 C389 0.930 . S
Mn396 O401 2.095 . S
Mn396 O411 2.162 . S
Mn396 O412 2.297 . S
Mn396 O420 2.385 . S
Mn396 O421 2.209 . S
Mn396 O422 2.094 . S
Mn397 O402 2.121 . S
Mn397 N404 2.257 . S
Mn397 N413 2.282 . S
Mn397 O421 2.215 . S
Mn397 O423 2.117 . S
C398 O420 1.234 . S
C398 O421 1.283 . S
C399 O411 1.281 . S
C399 O412 1.236 . S
C400 O422 1.240 . S
C400 O423 1.264 . S
O401 Mn396 2.095 . S
O401 C410 1.250 . S
O402 Mn397 2.121 . S
O402 C410 1.258 . S
C403 N404 1.326 . S
C403 C407 1.460 . S
C403 H409 0.929 . S
N404 Mn397 2.257 . S
N404 C403 1.326 . S
N404 C408 1.362 . S
C405 C406 1.258 . S
C405 C408 1.431 . S
C405 C425 1.449 . S
C406 C405 1.258 . S
C406 C407 1.477 . S
C406 H426 0.931 . S
C407 C403 1.460 . S
C407 C406 1.477 . S
C407 H427 0.930 . S
C408 N404 1.362 . S
C408 C405 1.431 . S
C408 C418 1.476 . S
H409 C403 0.929 . S
C410 O401 1.250 . S
C410 O402 1.258 . S
O411 Mn396 2.162 . S
O411 C399 1.281 . S
O412 Mn396 2.297 . S
O412 C399 1.236 . S
N413 Mn397 2.282 . S
N413 C414 1.328 . S
N413 C418 1.318 . S
C414 N413 1.328 . S
C414 C415 1.457 . S
C414 H419 0.929 . S
C415 C414 1.457 . S
C415 C416 1.291 . S
C415 H428 0.931 . S
C416 C415 1.291 . S
C416 C417 1.373 . S
C416 H429 0.929 . S
C417 C416 1.373 . S
C417 C418 1.396 . S
C417 C424 1.403 . S
C418 C408 1.476 . S
C418 N413 1.318 . S
C418 C417 1.396 . S
H419 C414 0.929 . S
O420 Mn396 2.385 . S
O420 C398 1.234 . S
O421 Mn396 2.209 . S
O421 Mn397 2.215 . S
O421 C398 1.283 . S
O422 Mn396 2.094 . S
O422 C400 1.240 . S
O423 Mn397 2.117 . S
O423 C400 1.264 . S
C424 C417 1.403 . S
C424 C425 1.399 . S
C424 H430 0.929 . S
C425 C405 1.449 . S
C425 C424 1.399 . S
C425 H431 0.930 . S
H426 C406 0.931 . S
H427 C407 0.930 . S
H428 C415 0.931 . S
H429 C416 0.929 . S
H430 C424 0.929 . S
H431 C425 0.930 . S
Mn432 O437 2.095 . S
Mn432 O447 2.162 . S
Mn432 O448 2.297 . S
Mn432 O456 2.385 . S
Mn432 O457 2.209 . S
Mn432 O458 2.094 . S
Mn433 O438 2.121 . S
Mn433 N440 2.257 . S
Mn433 N449 2.282 . S
Mn433 O457 2.215 . S
Mn433 O459 2.117 . S
C434 O456 1.234 . S
C434 O457 1.283 . S
C435 O447 1.281 . S
C435 O448 1.236 . S
C436 O458 1.240 . S
C436 O459 1.264 . S
O437 Mn432 2.095 . S
O437 C446 1.250 . S
O438 Mn433 2.121 . S
O438 C446 1.258 . S
C439 N440 1.326 . S
C439 C443 1.460 . S
C439 H445 0.929 . S
N440 Mn433 2.257 . S
N440 C439 1.326 . S
N440 C444 1.362 . S
C441 C442 1.258 . S
C441 C444 1.431 . S
C441 C461 1.449 . S
C442 C441 1.258 . S
C442 C443 1.477 . S
C442 H462 0.931 . S
C443 C439 1.460 . S
C443 C442 1.477 . S
C443 H463 0.930 . S
C444 N440 1.362 . S
C444 C441 1.431 . S
C444 C454 1.476 . S
H445 C439 0.929 . S
C446 O437 1.250 . S
C446 O438 1.258 . S
O447 Mn432 2.162 . S
O447 C435 1.281 . S
O448 Mn432 2.297 . S
O448 C435 1.236 . S
N449 Mn433 2.282 . S
N449 C450 1.328 . S
N449 C454 1.318 . S
C450 N449 1.328 . S
C450 C451 1.457 . S
C450 H455 0.929 . S
C451 C450 1.457 . S
C451 C452 1.291 . S
C451 H464 0.931 . S
C452 C451 1.291 . S
C452 C453 1.373 . S
C452 H465 0.929 . S
C453 C452 1.373 . S
C453 C454 1.396 . S
C453 C460 1.403 . S
C454 C444 1.476 . S
C454 N449 1.318 . S
C454 C453 1.396 . S
H455 C450 0.929 . S
O456 Mn432 2.385 . S
O456 C434 1.234 . S
O457 Mn432 2.209 . S
O457 Mn433 2.215 . S
O457 C434 1.283 . S
O458 Mn432 2.094 . S
O458 C436 1.240 . S
O459 Mn433 2.117 . S
O459 C436 1.264 . S
C460 C453 1.403 . S
C460 C461 1.399 . S
C460 H466 0.929 . S
C461 C441 1.449 . S
C461 C460 1.399 . S
C461 H467 0.930 . S
H462 C442 0.931 . S
H463 C443 0.930 . S
H464 C451 0.931 . S
H465 C452 0.929 . S
H466 C460 0.929 . S
H467 C461 0.930 . S
Mn468 O473 2.095 . S
Mn468 O483 2.162 . S
Mn468 O484 2.297 . S
Mn468 O492 2.385 . S
Mn468 O493 2.209 . S
Mn468 O494 2.094 . S
Mn469 O474 2.121 . S
Mn469 N476 2.257 . S
Mn469 N485 2.282 . S
Mn469 O493 2.215 . S
Mn469 O495 2.117 . S
C470 O492 1.234 . S
C470 O493 1.283 . S
C471 O483 1.281 . S
C471 O484 1.236 . S
C472 O494 1.240 . S
C472 O495 1.264 . S
O473 Mn468 2.095 . S
O473 C482 1.250 . S
O474 Mn469 2.121 . S
O474 C482 1.258 . S
C475 N476 1.326 . S
C475 C479 1.460 . S
C475 H481 0.929 . S
N476 Mn469 2.257 . S
N476 C475 1.326 . S
N476 C480 1.362 . S
C477 C478 1.258 . S
C477 C480 1.431 . S
C477 C497 1.449 . S
C478 C477 1.258 . S
C478 C479 1.477 . S
C478 H498 0.931 . S
C479 C475 1.460 . S
C479 C478 1.477 . S
C479 H499 0.930 . S
C480 N476 1.362 . S
C480 C477 1.431 . S
C480 C490 1.476 . S
H481 C475 0.929 . S
C482 O473 1.250 . S
C482 O474 1.258 . S
O483 Mn468 2.162 . S
O483 C471 1.281 . S
O484 Mn468 2.297 . S
O484 C471 1.236 . S
N485 Mn469 2.282 . S
N485 C486 1.328 . S
N485 C490 1.318 . S
C486 N485 1.328 . S
C486 C487 1.457 . S
C486 H491 0.929 . S
C487 C486 1.457 . S
C487 C488 1.291 . S
C487 H500 0.931 . S
C488 C487 1.291 . S
C488 C489 1.373 . S
C488 H501 0.929 . S
C489 C488 1.373 . S
C489 C490 1.396 . S
C489 C496 1.403 . S
C490 C480 1.476 . S
C490 N485 1.318 . S
C490 C489 1.396 . S
H491 C486 0.929 . S
O492 Mn468 2.385 . S
O492 C470 1.234 . S
O493 Mn468 2.209 . S
O493 Mn469 2.215 . S
O493 C470 1.283 . S
O494 Mn468 2.094 . S
O494 C472 1.240 . S
O495 Mn469 2.117 . S
O495 C472 1.264 . S
C496 C489 1.403 . S
C496 C497 1.399 . S
C496 H502 0.929 . S
C497 C477 1.449 . S
C497 C496 1.399 . S
C497 H503 0.930 . S
H498 C478 0.931 . S
H499 C479 0.930 . S
H500 C487 0.931 . S
H501 C488 0.929 . S
H502 C496 0.929 . S
H503 C497 0.930 . S
Mn504 O509 2.095 . S
Mn504 O519 2.162 . S
Mn504 O520 2.297 . S
Mn504 O528 2.385 . S
Mn504 O529 2.209 . S
Mn504 O530 2.094 . S
Mn505 O510 2.121 . S
Mn505 N512 2.257 . S
Mn505 N521 2.282 . S
Mn505 O529 2.215 . S
Mn505 O531 2.117 . S
C506 O528 1.234 . S
C506 O529 1.283 . S
C507 O519 1.281 . S
C507 O520 1.236 . S
C508 O530 1.240 . S
C508 O531 1.264 . S
O509 Mn504 2.095 . S
O509 C518 1.250 . S
O510 Mn505 2.121 . S
O510 C518 1.258 . S
C511 N512 1.326 . S
C511 C515 1.460 . S
C511 H517 0.929 . S
N512 Mn505 2.257 . S
N512 C511 1.326 . S
N512 C516 1.362 . S
C513 C514 1.258 . S
C513 C516 1.431 . S
C513 C533 1.449 . S
C514 C513 1.258 . S
C514 C515 1.477 . S
C514 H534 0.931 . S
C515 C511 1.460 . S
C515 C514 1.477 . S
C515 H535 0.930 . S
C516 N512 1.362 . S
C516 C513 1.431 . S
C516 C526 1.476 . S
H517 C511 0.929 . S
C518 O509 1.250 . S
C518 O510 1.258 . S
O519 Mn504 2.162 . S
O519 C507 1.281 . S
O520 Mn504 2.297 . S
O520 C507 1.236 . S
N521 Mn505 2.282 . S
N521 C522 1.328 . S
N521 C526 1.318 . S
C522 N521 1.328 . S
C522 C523 1.457 . S
C522 H527 0.929 . S
C523 C522 1.457 . S
C523 C524 1.291 . S
C523 H536 0.931 . S
C524 C523 1.291 . S
C524 C525 1.373 . S
C524 H537 0.929 . S
C525 C524 1.373 . S
C525 C526 1.396 . S
C525 C532 1.403 . S
C526 C516 1.476 . S
C526 N521 1.318 . S
C526 C525 1.396 . S
H527 C522 0.929 . S
O528 Mn504 2.385 . S
O528 C506 1.234 . S
O529 Mn504 2.209 . S
O529 Mn505 2.215 . S
O529 C506 1.283 . S
O530 Mn504 2.094 . S
O530 C508 1.240 . S
O531 Mn505 2.117 . S
O531 C508 1.264 . S
C532 C525 1.403 . S
C532 C533 1.399 . S
C532 H538 0.929 . S
C533 C513 1.449 . S
C533 C532 1.399 . S
C533 H539 0.930 . S
H534 C514 0.931 . S
H535 C515 0.930 . S
H536 C523 0.931 . S
H537 C524 0.929 . S
H538 C532 0.929 . S
H539 C533 0.930 . S
Mn540 O545 2.095 . S
Mn540 O555 2.162 . S
Mn540 O556 2.297 . S
Mn540 O564 2.385 . S
Mn540 O565 2.209 . S
Mn540 O566 2.094 . S
Mn541 O546 2.121 . S
Mn541 N548 2.257 . S
Mn541 N557 2.282 . S
Mn541 O565 2.215 . S
Mn541 O567 2.117 . S
C542 O564 1.234 . S
C542 O565 1.283 . S
C543 O555 1.281 . S
C543 O556 1.236 . S
C544 O566 1.240 . S
C544 O567 1.264 . S
O545 Mn540 2.095 . S
O545 C554 1.250 . S
O546 Mn541 2.121 . S
O546 C554 1.258 . S
C547 N548 1.326 . S
C547 C551 1.460 . S
C547 H553 0.929 . S
N548 Mn541 2.257 . S
N548 C547 1.326 . S
N548 C552 1.362 . S
C549 C550 1.258 . S
C549 C552 1.431 . S
C549 C569 1.449 . S
C550 C549 1.258 . S
C550 C551 1.477 . S
C550 H570 0.931 . S
C551 C547 1.460 . S
C551 C550 1.477 . S
C551 H571 0.930 . S
C552 N548 1.362 . S
C552 C549 1.431 . S
C552 C562 1.476 . S
H553 C547 0.929 . S
C554 O545 1.250 . S
C554 O546 1.258 . S
O555 Mn540 2.162 . S
O555 C543 1.281 . S
O556 Mn540 2.297 . S
O556 C543 1.236 . S
N557 Mn541 2.282 . S
N557 C558 1.328 . S
N557 C562 1.318 . S
C558 N557 1.328 . S
C558 C559 1.457 . S
C558 H563 0.929 . S
C559 C558 1.457 . S
C559 C560 1.291 . S
C559 H572 0.931 . S
C560 C559 1.291 . S
C560 C561 1.373 . S
C560 H573 0.929 . S
C561 C560 1.373 . S
C561 C562 1.396 . S
C561 C568 1.403 . S
C562 C552 1.476 . S
C562 N557 1.318 . S
C562 C561 1.396 . S
H563 C558 0.929 . S
O564 Mn540 2.385 . S
O564 C542 1.234 . S
O565 Mn540 2.209 . S
O565 Mn541 2.215 . S
O565 C542 1.283 . S
O566 Mn540 2.094 . S
O566 C544 1.240 . S
O567 Mn541 2.117 . S
O567 C544 1.264 . S
C568 C561 1.403 . S
C568 C569 1.399 . S
C568 H574 0.929 . S
C569 C549 1.449 . S
C569 C568 1.399 . S
C569 H575 0.930 . S
H570 C550 0.931 . S
H571 C551 0.930 . S
H572 C559 0.931 . S
H573 C560 0.929 . S
H574 C568 0.929 . S
H575 C569 0.930 . S
C576 C577 1.349 . S
C576 C578 1.327 . S
C576 H601 0.950 . S
C577 C576 1.349 . S
C577 C593 1.349 . S
C578 C576 1.327 . S
C578 C597 1.429 . S
C578 H602 0.950 . S
C579 C596 1.574 . S
C579 C598 1.368 . S
C579 H603 0.949 . S
H580 C584 0.949 . S
C581 C582 1.349 . S
C581 C583 1.327 . S
C581 H604 0.950 . S
C582 C581 1.349 . S
C582 C594 1.349 . S
C583 C581 1.327 . S
C583 C599 1.429 . S
C583 H605 0.950 . S
C584 H580 0.949 . S
C584 C592 1.574 . S
C584 C600 1.368 . S
H585 C593 0.950 . S
H586 C591 0.950 . S
H587 C592 0.949 . S
H588 C594 0.950 . S
H589 C595 0.950 . S
H590 C596 0.949 . S
C591 H586 0.950 . S
C591 C593 1.327 . S
C591 C597 1.429 . S
C592 C584 1.574 . S
C592 H587 0.949 . S
C592 C598 1.368 . S
C593 C577 1.349 . S
C593 H585 0.950 . S
C593 C591 1.327 . S
C594 C582 1.349 . S
C594 H588 0.950 . S
C594 C595 1.327 . S
C595 H589 0.950 . S
C595 C594 1.327 . S
C595 C599 1.429 . S
C596 C579 1.574 . S
C596 H590 0.949 . S
C596 C600 1.368 . S
C597 C578 1.429 . S
C597 C591 1.429 . S
C597 C598 1.523 . S
C598 C579 1.368 . S
C598 C592 1.368 . S
C598 C597 1.523 . S
C599 C583 1.429 . S
C599 C595 1.429 . S
C599 C600 1.523 . S
C600 C584 1.368 . S
C600 C596 1.368 . S
C600 C599 1.523 . S
H601 C576 0.950 . S
H602 C578 0.950 . S
H603 C579 0.949 . S
H604 C581 0.950 . S
H605 C583 0.950 . S
C606 C607 1.349 . S
C606 C608 1.327 . S
C606 H631 0.950 . S
C607 C606 1.349 . S
C607 C623 1.349 . S
C608 C606 1.327 . S
C608 C627 1.429 . S
C608 H632 0.950 . S
C609 C626 1.574 . S
C609 C628 1.368 . S
C609 H633 0.949 . S
H610 C614 0.949 . S
C611 C612 1.349 . S
C611 C613 1.327 . S
C611 H634 0.950 . S
C612 C611 1.349 . S
C612 C624 1.349 . S
C613 C611 1.327 . S
C613 C629 1.429 . S
C613 H635 0.950 . S
C614 H610 0.949 . S
C614 C622 1.574 . S
C614 C630 1.368 . S
H615 C623 0.950 . S
H616 C621 0.950 . S
H617 C622 0.949 . S
H618 C624 0.950 . S
H619 C625 0.950 . S
H620 C626 0.949 . S
C621 H616 0.950 . S
C621 C623 1.327 . S
C621 C627 1.429 . S
C622 C614 1.574 . S
C622 H617 0.949 . S
C622 C628 1.368 . S
C623 C607 1.349 . S
C623 H615 0.950 . S
C623 C621 1.327 . S
C624 C612 1.349 . S
C624 H618 0.950 . S
C624 C625 1.327 . S
C625 H619 0.950 . S
C625 C624 1.327 . S
C625 C629 1.429 . S
C626 C609 1.574 . S
C626 H620 0.949 . S
C626 C630 1.368 . S
C627 C608 1.429 . S
C627 C621 1.429 . S
C627 C628 1.523 . S
C628 C609 1.368 . S
C628 C622 1.368 . S
C628 C627 1.523 . S
C629 C613 1.429 . S
C629 C625 1.429 . S
C629 C630 1.523 . S
C630 C614 1.368 . S
C630 C626 1.368 . S
C630 C629 1.523 . S
H631 C606 0.950 . S
H632 C608 0.950 . S
H633 C609 0.949 . S
H634 C611 0.950 . S
H635 C613 0.950 . S
C636 C637 1.349 . S
C636 C638 1.327 . S
C636 H661 0.950 . S
C637 C636 1.349 . S
C637 C653 1.349 . S
C638 C636 1.327 . S
C638 C657 1.429 . S
C638 H662 0.950 . S
C639 C656 1.574 . S
C639 C658 1.368 . S
C639 H663 0.949 . S
H640 C644 0.949 . S
C641 C642 1.349 . S
C641 C643 1.327 . S
C641 H664 0.950 . S
C642 C641 1.349 . S
C642 C654 1.349 . S
C643 C641 1.327 . S
C643 C659 1.429 . S
C643 H665 0.950 . S
C644 H640 0.949 . S
C644 C652 1.574 . S
C644 C660 1.368 . S
H645 C653 0.950 . S
H646 C651 0.950 . S
H647 C652 0.949 . S
H648 C654 0.950 . S
H649 C655 0.950 . S
H650 C656 0.949 . S
C651 H646 0.950 . S
C651 C653 1.327 . S
C651 C657 1.429 . S
C652 C644 1.574 . S
C652 H647 0.949 . S
C652 C658 1.368 . S
C653 C637 1.349 . S
C653 H645 0.950 . S
C653 C651 1.327 . S
C654 C642 1.349 . S
C654 H648 0.950 . S
C654 C655 1.327 . S
C655 H649 0.950 . S
C655 C654 1.327 . S
C655 C659 1.429 . S
C656 C639 1.574 . S
C656 H650 0.949 . S
C656 C660 1.368 . S
C657 C638 1.429 . S
C657 C651 1.429 . S
C657 C658 1.523 . S
C658 C639 1.368 . S
C658 C652 1.368 . S
C658 C657 1.523 . S
C659 C643 1.429 . S
C659 C655 1.429 . S
C659 C660 1.523 . S
C660 C644 1.368 . S
C660 C656 1.368 . S
C660 C659 1.523 . S
H661 C636 0.950 . S
H662 C638 0.950 . S
H663 C639 0.949 . S
H664 C641 0.950 . S
H665 C643 0.950 . S
C666 C667 1.349 . S
C666 C668 1.327 . S
C666 H691 0.950 . S
C667 C666 1.349 . S
C667 C683 1.349 . S
C668 C666 1.327 . S
C668 C687 1.429 . S
C668 H692 0.950 . S
C669 C686 1.574 . S
C669 C688 1.368 . S
C669 H693 0.949 . S
H670 C674 0.949 . S
C671 C672 1.349 . S
C671 C673 1.327 . S
C671 H694 0.950 . S
C672 C671 1.349 . S
C672 C684 1.349 . S
C673 C671 1.327 . S
C673 C689 1.429 . S
C673 H695 0.950 . S
C674 H670 0.949 . S
C674 C682 1.574 . S
C674 C690 1.368 . S
H675 C683 0.950 . S
H676 C681 0.950 . S
H677 C682 0.949 . S
H678 C684 0.950 . S
H679 C685 0.950 . S
H680 C686 0.949 . S
C681 H676 0.950 . S
C681 C683 1.327 . S
C681 C687 1.429 . S
C682 C674 1.574 . S
C682 H677 0.949 . S
C682 C688 1.368 . S
C683 C667 1.349 . S
C683 H675 0.950 . S
C683 C681 1.327 . S
C684 C672 1.349 . S
C684 H678 0.950 . S
C684 C685 1.327 . S
C685 H679 0.950 . S
C685 C684 1.327 . S
C685 C689 1.429 . S
C686 C669 1.574 . S
C686 H680 0.949 . S
C686 C690 1.368 . S
C687 C668 1.429 . S
C687 C681 1.429 . S
C687 C688 1.523 . S
C688 C669 1.368 . S
C688 C682 1.368 . S
C688 C687 1.523 . S
C689 C673 1.429 . S
C689 C685 1.429 . S
C689 C690 1.523 . S
C690 C674 1.368 . S
C690 C686 1.368 . S
C690 C689 1.523 . S
H691 C666 0.950 . S
H692 C668 0.950 . S
H693 C669 0.949 . S
H694 C671 0.950 . S
H695 C673 0.950 . S
C696 C697 1.349 . S
C696 C698 1.327 . S
C696 H721 0.950 . S
C697 C696 1.349 . S
C697 C713 1.349 . S
C698 C696 1.327 . S
C698 C717 1.429 . S
C698 H722 0.950 . S
C699 C716 1.574 . S
C699 C718 1.368 . S
C699 H723 0.949 . S
H700 C704 0.949 . S
C701 C702 1.349 . S
C701 C703 1.327 . S
C701 H724 0.950 . S
C702 C701 1.349 . S
C702 C714 1.349 . S
C703 C701 1.327 . S
C703 C719 1.429 . S
C703 H725 0.950 . S
C704 H700 0.949 . S
C704 C712 1.574 . S
C704 C720 1.368 . S
H705 C713 0.950 . S
H706 C711 0.950 . S
H707 C712 0.949 . S
H708 C714 0.950 . S
H709 C715 0.950 . S
H710 C716 0.949 . S
C711 H706 0.950 . S
C711 C713 1.327 . S
C711 C717 1.429 . S
C712 C704 1.574 . S
C712 H707 0.949 . S
C712 C718 1.368 . S
C713 C697 1.349 . S
C713 H705 0.950 . S
C713 C711 1.327 . S
C714 C702 1.349 . S
C714 H708 0.950 . S
C714 C715 1.327 . S
C715 H709 0.950 . S
C715 C714 1.327 . S
C715 C719 1.429 . S
C716 C699 1.574 . S
C716 H710 0.949 . S
C716 C720 1.368 . S
C717 C698 1.429 . S
C717 C711 1.429 . S
C717 C718 1.523 . S
C718 C699 1.368 . S
C718 C712 1.368 . S
C718 C717 1.523 . S
C719 C703 1.429 . S
C719 C715 1.429 . S
C719 C720 1.523 . S
C720 C704 1.368 . S
C720 C716 1.368 . S
C720 C719 1.523 . S
H721 C696 0.950 . S
H722 C698 0.950 . S
H723 C699 0.949 . S
H724 C701 0.950 . S
H725 C703 0.950 . S
C726 C727 1.349 . S
C726 C728 1.327 . S
C726 H751 0.950 . S
C727 C726 1.349 . S
C727 C743 1.349 . S
C728 C726 1.327 . S
C728 C747 1.429 . S
C728 H752 0.950 . S
C729 C746 1.574 . S
C729 C748 1.368 . S
C729 H753 0.949 . S
H730 C734 0.949 . S
C731 C732 1.349 . S
C731 C733 1.327 . S
C731 H754 0.950 . S
C732 C731 1.349 . S
C732 C744 1.349 . S
C733 C731 1.327 . S
C733 C749 1.429 . S
C733 H755 0.950 . S
C734 H730 0.949 . S
C734 C742 1.574 . S
C734 C750 1.368 . S
H735 C743 0.950 . S
H736 C741 0.950 . S
H737 C742 0.949 . S
H738 C744 0.950 . S
H739 C745 0.950 . S
H740 C746 0.949 . S
C741 H736 0.950 . S
C741 C743 1.327 . S
C741 C747 1.429 . S
C742 C734 1.574 . S
C742 H737 0.949 . S
C742 C748 1.368 . S
C743 C727 1.349 . S
C743 H735 0.950 . S
C743 C741 1.327 . S
C744 C732 1.349 . S
C744 H738 0.950 . S
C744 C745 1.327 . S
C745 H739 0.950 . S
C745 C744 1.327 . S
C745 C749 1.429 . S
C746 C729 1.574 . S
C746 H740 0.949 . S
C746 C750 1.368 . S
C747 C728 1.429 . S
C747 C741 1.429 . S
C747 C748 1.523 . S
C748 C729 1.368 . S
C748 C742 1.368 . S
C748 C747 1.523 . S
C749 C733 1.429 . S
C749 C745 1.429 . S
C749 C750 1.523 . S
C750 C734 1.368 . S
C750 C746 1.368 . S
C750 C749 1.523 . S
H751 C726 0.950 . S
H752 C728 0.950 . S
H753 C729 0.949 . S
H754 C731 0.950 . S
H755 C733 0.950 . S
C756 C757 1.349 . S
C756 C758 1.327 . S
C756 H781 0.950 . S
C757 C756 1.349 . S
C757 C773 1.349 . S
C758 C756 1.327 . S
C758 C777 1.429 . S
C758 H782 0.950 . S
C759 C776 1.574 . S
C759 C778 1.368 . S
C759 H783 0.949 . S
H760 C764 0.949 . S
C761 C762 1.349 . S
C761 C763 1.327 . S
C761 H784 0.950 . S
C762 C761 1.349 . S
C762 C774 1.349 . S
C763 C761 1.327 . S
C763 C779 1.429 . S
C763 H785 0.950 . S
C764 H760 0.949 . S
C764 C772 1.574 . S
C764 C780 1.368 . S
H765 C773 0.950 . S
H766 C771 0.950 . S
H767 C772 0.949 . S
H768 C774 0.950 . S
H769 C775 0.950 . S
H770 C776 0.949 . S
C771 H766 0.950 . S
C771 C773 1.327 . S
C771 C777 1.429 . S
C772 C764 1.574 . S
C772 H767 0.949 . S
C772 C778 1.368 . S
C773 C757 1.349 . S
C773 H765 0.950 . S
C773 C771 1.327 . S
C774 C762 1.349 . S
C774 H768 0.950 . S
C774 C775 1.327 . S
C775 H769 0.950 . S
C775 C774 1.327 . S
C775 C779 1.429 . S
C776 C759 1.574 . S
C776 H770 0.949 . S
C776 C780 1.368 . S
C777 C758 1.429 . S
C777 C771 1.429 . S
C777 C778 1.523 . S
C778 C759 1.368 . S
C778 C772 1.368 . S
C778 C777 1.523 . S
C779 C763 1.429 . S
C779 C775 1.429 . S
C779 C780 1.523 . S
C780 C764 1.368 . S
C780 C776 1.368 . S
C780 C779 1.523 . S
H781 C756 0.950 . S
H782 C758 0.950 . S
H783 C759 0.949 . S
H784 C761 0.950 . S
H785 C763 0.950 . S
C786 C787 1.349 . S
C786 C788 1.327 . S
C786 H811 0.950 . S
C787 C786 1.349 . S
C787 C803 1.349 . S
C788 C786 1.327 . S
C788 C807 1.429 . S
C788 H812 0.950 . S
C789 C806 1.574 . S
C789 C808 1.368 . S
C789 H813 0.949 . S
H790 C794 0.949 . S
C791 C792 1.349 . S
C791 C793 1.327 . S
C791 H814 0.950 . S
C792 C791 1.349 . S
C792 C804 1.349 . S
C793 C791 1.327 . S
C793 C809 1.429 . S
C793 H815 0.950 . S
C794 H790 0.949 . S
C794 C802 1.574 . S
C794 C810 1.368 . S
H795 C803 0.950 . S
H796 C801 0.950 . S
H797 C802 0.949 . S
H798 C804 0.950 . S
H799 C805 0.950 . S
H800 C806 0.949 . S
C801 H796 0.950 . S
C801 C803 1.327 . S
C801 C807 1.429 . S
C802 C794 1.574 . S
C802 H797 0.949 . S
C802 C808 1.368 . S
C803 C787 1.349 . S
C803 H795 0.950 . S
C803 C801 1.327 . S
C804 C792 1.349 . S
C804 H798 0.950 . S
C804 C805 1.327 . S
C805 H799 0.950 . S
C805 C804 1.327 . S
C805 C809 1.429 . S
C806 C789 1.574 . S
C806 H800 0.949 . S
C806 C810 1.368 . S
C807 C788 1.429 . S
C807 C801 1.429 . S
C807 C808 1.523 . S
C808 C789 1.368 . S
C808 C802 1.368 . S
C808 C807 1.523 . S
C809 C793 1.429 . S
C809 C805 1.429 . S
C809 C810 1.523 . S
C810 C794 1.368 . S
C810 C806 1.368 . S
C810 C809 1.523 . S
H811 C786 0.950 . S
H812 C788 0.950 . S
H813 C789 0.949 . S
H814 C791 0.950 . S
H815 C793 0.950 . S
C816 C817 1.349 . S
C816 C818 1.327 . S
C816 H841 0.950 . S
C817 C816 1.349 . S
C817 C833 1.349 . S
C818 C816 1.327 . S
C818 C837 1.429 . S
C818 H842 0.950 . S
C819 C836 1.574 . S
C819 C838 1.368 . S
C819 H843 0.949 . S
H820 C824 0.949 . S
C821 C822 1.349 . S
C821 C823 1.327 . S
C821 H844 0.950 . S
C822 C821 1.349 . S
C822 C834 1.349 . S
C823 C821 1.327 . S
C823 C839 1.429 . S
C823 H845 0.950 . S
C824 H820 0.949 . S
C824 C832 1.574 1_545 S
C824 C840 1.368 . S
H825 C833 0.950 . S
H826 C831 0.950 . S
H827 C832 0.949 . S
H828 C834 0.950 . S
H829 C835 0.950 . S
H830 C836 0.949 . S
C831 H826 0.950 . S
C831 C833 1.327 . S
C831 C837 1.429 . S
C832 C824 1.574 1_565 S
C832 H827 0.949 . S
C832 C838 1.368 . S
C833 C817 1.349 . S
C833 H825 0.950 . S
C833 C831 1.327 . S
C834 C822 1.349 . S
C834 H828 0.950 . S
C834 C835 1.327 . S
C835 H829 0.950 . S
C835 C834 1.327 . S
C835 C839 1.429 . S
C836 C819 1.574 . S
C836 H830 0.949 . S
C836 C840 1.368 1_565 S
C837 C818 1.429 . S
C837 C831 1.429 . S
C837 C838 1.523 . S
C838 C819 1.368 . S
C838 C832 1.368 . S
C838 C837 1.523 . S
C839 C823 1.429 . S
C839 C835 1.429 . S
C839 C840 1.523 . S
C840 C824 1.368 . S
C840 C836 1.368 1_545 S
C840 C839 1.523 . S
H841 C816 0.950 . S
H842 C818 0.950 . S
H843 C819 0.949 . S
H844 C821 0.950 . S
H845 C823 0.950 . S
C846 C847 1.349 . S
C846 C848 1.327 . S
C846 H871 0.950 . S
C847 C846 1.349 . S
C847 C863 1.349 . S
C848 C846 1.327 . S
C848 C867 1.429 . S
C848 H872 0.950 . S
C849 C866 1.574 . S
C849 C868 1.368 . S
C849 H873 0.949 . S
H850 C854 0.949 . S
C851 C852 1.349 . S
C851 C853 1.327 . S
C851 H874 0.950 . S
C852 C851 1.349 . S
C852 C864 1.349 . S
C853 C851 1.327 . S
C853 C869 1.429 . S
C853 H875 0.950 . S
C854 H850 0.949 . S
C854 C862 1.574 . S
C854 C870 1.368 . S
H855 C863 0.950 . S
H856 C861 0.950 . S
H857 C862 0.949 . S
H858 C864 0.950 . S
H859 C865 0.950 . S
H860 C866 0.949 . S
C861 H856 0.950 . S
C861 C863 1.327 . S
C861 C867 1.429 . S
C862 C854 1.574 . S
C862 H857 0.949 . S
C862 C868 1.368 . S
C863 C847 1.349 . S
C863 H855 0.950 . S
C863 C861 1.327 . S
C864 C852 1.349 . S
C864 H858 0.950 . S
C864 C865 1.327 . S
C865 H859 0.950 . S
C865 C864 1.327 . S
C865 C869 1.429 . S
C866 C849 1.574 . S
C866 H860 0.949 . S
C866 C870 1.368 . S
C867 C848 1.429 . S
C867 C861 1.429 . S
C867 C868 1.523 . S
C868 C849 1.368 . S
C868 C862 1.368 . S
C868 C867 1.523 . S
C869 C853 1.429 . S
C869 C865 1.429 . S
C869 C870 1.523 . S
C870 C854 1.368 . S
C870 C866 1.368 . S
C870 C869 1.523 . S
H871 C846 0.950 . S
H872 C848 0.950 . S
H873 C849 0.949 . S
H874 C851 0.950 . S
H875 C853 0.950 . S
C876 C877 1.349 . S
C876 C878 1.327 . S
C876 H901 0.950 . S
C877 C876 1.349 . S
C877 C893 1.349 . S
C878 C876 1.327 . S
C878 C897 1.429 . S
C878 H902 0.950 . S
C879 C896 1.574 1_556 S
C879 C898 1.368 . S
C879 H903 0.949 . S
H880 C884 0.944 1_554 S
C881 C882 1.349 . S
C881 C883 1.327 . S
C881 H904 0.950 . S
C882 C881 1.349 . S
C882 C894 1.349 . S
C883 C881 1.327 . S
C883 C899 1.429 . S
C883 H905 0.950 . S
C884 H880 0.944 1_556 S
C884 C892 1.574 . S
C884 C900 1.368 1_556 S
H885 C893 0.950 . S
H886 C891 0.950 . S
H887 C892 0.949 . S
H888 C894 0.950 . S
H889 C895 0.950 . S
H890 C896 0.949 . S
C891 H886 0.950 . S
C891 C893 1.327 . S
C891 C897 1.429 . S
C892 C884 1.574 . S
C892 H887 0.949 . S
C892 C898 1.368 . S
C893 C877 1.349 . S
C893 H885 0.950 . S
C893 C891 1.327 . S
C894 C882 1.349 . S
C894 H888 0.950 . S
C894 C895 1.327 . S
C895 H889 0.950 . S
C895 C894 1.327 . S
C895 C899 1.429 . S
C896 C879 1.574 1_554 S
C896 H890 0.949 . S
C896 C900 1.368 . S
C897 C878 1.429 . S
C897 C891 1.429 . S
C897 C898 1.523 . S
C898 C879 1.368 . S
C898 C892 1.368 . S
C898 C897 1.523 . S
C899 C883 1.429 . S
C899 C895 1.429 . S
C899 C900 1.523 . S
C900 C884 1.368 1_554 S
C900 C896 1.368 . S
C900 C899 1.523 . S
H901 C876 0.950 . S
H902 C878 0.950 . S
H903 C879 0.949 . S
H904 C881 0.950 . S
H905 C883 0.950 . S
C906 C907 1.349 . S
C906 C908 1.327 . S
C906 H931 0.950 . S
C907 C906 1.349 . S
C907 C923 1.349 . S
C908 C906 1.327 . S
C908 C927 1.429 . S
C908 H932 0.950 . S
C909 C926 1.574 1_554 S
C909 C928 1.368 . S
C909 H933 0.949 . S
H910 C914 0.949 . S
C911 C912 1.349 . S
C911 C913 1.327 . S
C911 H934 0.950 . S
C912 C911 1.349 . S
C912 C924 1.349 . S
C913 C911 1.327 . S
C913 C929 1.429 . S
C913 H935 0.950 . S
C914 H910 0.949 . S
C914 C922 1.574 1_556 S
C914 C930 1.368 . S
H915 C923 0.950 . S
H916 C921 0.950 . S
H917 C922 0.949 . S
H918 C924 0.950 . S
H919 C925 0.950 . S
H920 C926 0.949 . S
C921 H916 0.950 . S
C921 C923 1.327 . S
C921 C927 1.429 . S
C922 C914 1.574 1_554 S
C922 H917 0.949 . S
C922 C928 1.368 . S
C923 C907 1.349 . S
C923 H915 0.950 . S
C923 C921 1.327 . S
C924 C912 1.349 . S
C924 H918 0.950 . S
C924 C925 1.327 . S
C925 H919 0.950 . S
C925 C924 1.327 . S
C925 C929 1.429 . S
C926 C909 1.574 1_556 S
C926 H920 0.949 . S
C926 C930 1.368 . S
C927 C908 1.429 . S
C927 C921 1.429 . S
C927 C928 1.523 . S
C928 C909 1.368 . S
C928 C922 1.368 . S
C928 C927 1.523 . S
C929 C913 1.429 . S
C929 C925 1.429 . S
C929 C930 1.523 . S
C930 C914 1.368 . S
C930 C926 1.368 . S
C930 C929 1.523 . S
H931 C906 0.950 . S
H932 C908 0.950 . S
H933 C909 0.949 . S
H934 C911 0.950 . S
H935 C913 0.950 . S
C936 C937 1.349 . S
C936 C938 1.327 . S
C936 H961 0.950 . S
C937 C936 1.349 . S
C937 C953 1.349 . S
C938 C936 1.327 . S
C938 C957 1.429 . S
C938 H962 0.950 . S
C939 C956 1.574 . S
C939 C958 1.368 . S
C939 H963 0.949 . S
H940 C944 0.949 . S
C941 C942 1.349 . S
C941 C943 1.327 . S
C941 H964 0.950 . S
C942 C941 1.349 . S
C942 C954 1.349 . S
C943 C941 1.327 . S
C943 C959 1.429 . S
C943 H965 0.950 . S
C944 H940 0.949 . S
C944 C952 1.574 . S
C944 C960 1.368 . S
H945 C953 0.950 . S
H946 C951 0.950 . S
H947 C952 0.949 . S
H948 C954 0.950 . S
H949 C955 0.950 . S
H950 C956 0.949 . S
C951 H946 0.950 . S
C951 C953 1.327 . S
C951 C957 1.429 . S
C952 C944 1.574 . S
C952 H947 0.949 . S
C952 C958 1.368 . S
C953 C937 1.349 . S
C953 H945 0.950 . S
C953 C951 1.327 . S
C954 C942 1.349 . S
C954 H948 0.950 . S
C954 C955 1.327 . S
C955 H949 0.950 . S
C955 C954 1.327 . S
C955 C959 1.429 . S
C956 C939 1.574 . S
C956 H950 0.949 . S
C956 C960 1.368 . S
C957 C938 1.429 . S
C957 C951 1.429 . S
C957 C958 1.523 . S
C958 C939 1.368 . S
C958 C952 1.368 . S
C958 C957 1.523 . S
C959 C943 1.429 . S
C959 C955 1.429 . S
C959 C960 1.523 . S
C960 C944 1.368 . S
C960 C956 1.368 . S
C960 C959 1.523 . S
H961 C936 0.950 . S
H962 C938 0.950 . S
H963 C939 0.949 . S
H964 C941 0.950 . S
H965 C943 0.950 . S
C966 C967 1.349 . S
C966 C968 1.327 . S
C966 H991 0.950 . S
C967 C966 1.349 . S
C967 C983 1.349 . S
C968 C966 1.327 . S
C968 C987 1.429 . S
C968 H992 0.950 . S
C969 C986 1.574 . S
C969 C988 1.368 . S
C969 H993 0.949 . S
H970 C974 0.949 . S
C971 C972 1.349 . S
C971 C973 1.327 . S
C971 H994 0.950 . S
C972 C971 1.349 . S
C972 C984 1.349 . S
C973 C971 1.327 . S
C973 C989 1.429 . S
C973 H995 0.950 . S
C974 H970 0.949 . S
C974 C982 1.574 . S
C974 C990 1.368 . S
H975 C983 0.950 . S
H976 C981 0.950 . S
H977 C982 0.949 . S
H978 C984 0.950 . S
H979 C985 0.950 . S
H980 C986 0.949 . S
C981 H976 0.950 . S
C981 C983 1.327 . S
C981 C987 1.429 . S
C982 C974 1.574 . S
C982 H977 0.949 . S
C982 C988 1.368 . S
C983 C967 1.349 . S
C983 H975 0.950 . S
C983 C981 1.327 . S
C984 C972 1.349 . S
C984 H978 0.950 . S
C984 C985 1.327 . S
C985 H979 0.950 . S
C985 C984 1.327 . S
C985 C989 1.429 . S
C986 C969 1.574 . S
C986 H980 0.949 . S
C986 C990 1.368 . S
C987 C968 1.429 . S
C987 C981 1.429 . S
C987 C988 1.523 . S
C988 C969 1.368 . S
C988 C982 1.368 . S
C988 C987 1.523 . S
C989 C973 1.429 . S
C989 C985 1.429 . S
C989 C990 1.523 . S
C990 C974 1.368 . S
C990 C986 1.368 . S
C990 C989 1.523 . S
H991 C966 0.950 . S
H992 C968 0.950 . S
H993 C969 0.949 . S
H994 C971 0.950 . S
H995 C973 0.950 . S
C996 C997 1.349 . S
C996 C998 1.327 . S
C996 H1021 0.950 . S
C997 C996 1.349 . S
C997 C1013 1.349 . S
C998 C996 1.327 . S
C998 C1017 1.429 . S
C998 H1022 0.950 . S
C999 C1016 1.574 1_655 S
C999 C1018 1.368 . S
C999 H1023 0.949 . S
H1000 C1004 0.949 . S
C1001 C1002 1.349 . S
C1001 C1003 1.327 . S
C1001 H1024 0.950 . S
C1002 C1001 1.349 . S
C1002 C1014 1.349 . S
C1003 C1001 1.327 . S
C1003 C1019 1.429 . S
C1003 H1025 0.950 . S
C1004 H1000 0.949 . S
C1004 C1012 1.574 . S
C1004 C1020 1.368 1_655 S
H1005 C1013 0.950 . S
H1006 C1011 0.950 . S
H1007 C1012 0.949 . S
H1008 C1014 0.950 . S
H1009 C1015 0.950 . S
H1010 C1016 0.949 . S
C1011 H1006 0.950 . S
C1011 C1013 1.327 . S
C1011 C1017 1.429 . S
C1012 C1004 1.574 . S
C1012 H1007 0.949 . S
C1012 C1018 1.368 . S
C1013 C997 1.349 . S
C1013 H1005 0.950 . S
C1013 C1011 1.327 . S
C1014 C1002 1.349 . S
C1014 H1008 0.950 . S
C1014 C1015 1.327 . S
C1015 H1009 0.950 . S
C1015 C1014 1.327 . S
C1015 C1019 1.429 . S
C1016 C999 1.574 1_455 S
C1016 H1010 0.949 . S
C1016 C1020 1.368 . S
C1017 C998 1.429 . S
C1017 C1011 1.429 . S
C1017 C1018 1.523 . S
C1018 C999 1.368 . S
C1018 C1012 1.368 . S
C1018 C1017 1.523 . S
C1019 C1003 1.429 . S
C1019 C1015 1.429 . S
C1019 C1020 1.523 . S
C1020 C1004 1.368 1_455 S
C1020 C1016 1.368 . S
C1020 C1019 1.523 . S
H1021 C996 0.950 . S
H1022 C998 0.950 . S
H1023 C999 0.949 . S
H1024 C1001 0.950 . S
H1025 C1003 0.950 . S
C1026 C1027 1.349 . S
C1026 C1028 1.327 . S
C1026 H1051 0.950 . S
C1027 C1026 1.349 . S
C1027 C1043 1.349 . S
C1028 C1026 1.327 . S
C1028 C1047 1.429 . S
C1028 H1052 0.950 . S
C1029 C1046 1.574 1_655 S
C1029 C1048 1.368 . S
C1029 H1053 0.949 . S
H1030 C1034 0.949 . S
C1031 C1032 1.349 . S
C1031 C1033 1.327 . S
C1031 H1054 0.950 . S
C1032 C1031 1.349 . S
C1032 C1044 1.349 . S
C1033 C1031 1.327 . S
C1033 C1049 1.429 . S
C1033 H1055 0.950 . S
C1034 H1030 0.949 . S
C1034 C1042 1.603 . S
C1034 C1050 1.368 . S
H1035 C1043 0.950 . S
H1036 C1041 0.950 . S
H1037 C1042 0.946 1_655 S
H1038 C1044 0.950 . S
H1039 C1045 0.950 . S
H1040 C1046 0.949 . S
C1041 H1036 0.950 . S
C1041 C1043 1.327 . S
C1041 C1047 1.429 . S
C1042 C1034 1.603 . S
C1042 H1037 0.946 1_455 S
C1042 C1048 1.344 1_455 S
C1043 C1027 1.349 . S
C1043 H1035 0.950 . S
C1043 C1041 1.327 . S
C1044 C1032 1.349 . S
C1044 H1038 0.950 . S
C1044 C1045 1.327 . S
C1045 H1039 0.950 . S
C1045 C1044 1.327 . S
C1045 C1049 1.429 . S
C1046 C1029 1.574 1_455 S
C1046 H1040 0.949 . S
C1046 C1050 1.368 . S
C1047 C1028 1.429 . S
C1047 C1041 1.429 . S
C1047 C1048 1.523 . S
C1048 C1029 1.368 . S
C1048 C1042 1.344 1_655 S
C1048 C1047 1.523 . S
C1049 C1033 1.429 . S
C1049 C1045 1.429 . S
C1049 C1050 1.523 . S
C1050 C1034 1.368 . S
C1050 C1046 1.368 . S
C1050 C1049 1.523 . S
H1051 C1026 0.950 . S
H1052 C1028 0.950 . S
H1053 C1029 0.949 . S
H1054 C1031 0.950 . S
H1055 C1033 0.950 . S
C1056 C1057 1.349 . S
C1056 C1058 1.327 . S
C1056 H1081 0.950 . S
C1057 C1056 1.349 . S
C1057 C1073 1.349 . S
C1058 C1056 1.327 . S
C1058 C1077 1.429 . S
C1058 H1082 0.950 . S
C1059 C1076 1.574 . S
C1059 C1078 1.368 . S
C1059 H1083 0.949 . S
H1060 C1064 0.949 . S
C1061 C1062 1.349 . S
C1061 C1063 1.327 . S
C1061 H1084 0.950 . S
C1062 C1061 1.349 . S
C1062 C1074 1.349 . S
C1063 C1061 1.327 . S
C1063 C1079 1.429 . S
C1063 H1085 0.950 . S
C1064 H1060 0.949 . S
C1064 C1072 1.574 . S
C1064 C1080 1.368 . S
H1065 C1073 0.950 . S
H1066 C1071 0.950 . S
H1067 C1072 0.949 . S
H1068 C1074 0.950 . S
H1069 C1075 0.950 . S
H1070 C1076 0.949 . S
C1071 H1066 0.950 . S
C1071 C1073 1.327 . S
C1071 C1077 1.429 . S
C1072 C1064 1.574 . S
C1072 H1067 0.949 . S
C1072 C1078 1.368 . S
C1073 C1057 1.349 . S
C1073 H1065 0.950 . S
C1073 C1071 1.327 . S
C1074 C1062 1.349 . S
C1074 H1068 0.950 . S
C1074 C1075 1.327 . S
C1075 H1069 0.950 . S
C1075 C1074 1.327 . S
C1075 C1079 1.429 . S
C1076 C1059 1.574 . S
C1076 H1070 0.949 . S
C1076 C1080 1.368 . S
C1077 C1058 1.429 . S
C1077 C1071 1.429 . S
C1077 C1078 1.523 . S
C1078 C1059 1.368 . S
C1078 C1072 1.368 . S
C1078 C1077 1.523 . S
C1079 C1063 1.429 . S
C1079 C1075 1.429 . S
C1079 C1080 1.523 . S
C1080 C1064 1.368 . S
C1080 C1076 1.368 . S
C1080 C1079 1.523 . S
H1081 C1056 0.950 . S
H1082 C1058 0.950 . S
H1083 C1059 0.949 . S
H1084 C1061 0.950 . S
H1085 C1063 0.950 . S
C1086 C1087 1.349 . S
C1086 C1088 1.327 . S
C1086 H1111 0.950 . S
C1087 C1086 1.349 . S
C1087 C1103 1.349 . S
C1088 C1086 1.327 . S
C1088 C1107 1.429 . S
C1088 H1112 0.950 . S
C1089 C1106 1.574 . S
C1089 C1108 1.368 . S
C1089 H1113 0.949 . S
H1090 C1094 0.949 1_565 S
C1091 C1092 1.349 . S
C1091 C1093 1.327 . S
C1091 H1114 0.950 . S
C1092 C1091 1.349 . S
C1092 C1104 1.349 . S
C1093 C1091 1.327 . S
C1093 C1109 1.429 . S
C1093 H1115 0.950 . S
C1094 H1090 0.949 1_545 S
C1094 C1102 1.574 . S
C1094 C1110 1.368 1_545 S
H1095 C1103 0.950 . S
H1096 C1101 0.950 . S
H1097 C1102 0.949 . S
H1098 C1104 0.950 . S
H1099 C1105 0.950 . S
H1100 C1106 0.949 . S
C1101 H1096 0.950 . S
C1101 C1103 1.327 . S
C1101 C1107 1.429 . S
C1102 C1094 1.574 . S
C1102 H1097 0.949 . S
C1102 C1108 1.368 . S
C1103 C1087 1.349 . S
C1103 H1095 0.950 . S
C1103 C1101 1.327 . S
C1104 C1092 1.349 . S
C1104 H1098 0.950 . S
C1104 C1105 1.327 . S
C1105 H1099 0.950 . S
C1105 C1104 1.327 . S
C1105 C1109 1.429 . S
C1106 C1089 1.574 . S
C1106 H1100 0.949 . S
C1106 C1110 1.368 1_545 S
C1107 C1088 1.429 . S
C1107 C1101 1.429 . S
C1107 C1108 1.523 . S
C1108 C1089 1.368 . S
C1108 C1102 1.368 . S
C1108 C1107 1.523 . S
C1109 C1093 1.429 . S
C1109 C1105 1.429 . S
C1109 C1110 1.523 . S
C1110 C1094 1.368 1_565 S
C1110 C1106 1.368 1_565 S
C1110 C1109 1.523 . S
H1111 C1086 0.950 . S
H1112 C1088 0.950 . S
H1113 C1089 0.949 . S
H1114 C1091 0.950 . S
H1115 C1093 0.950 . S
C1116 C1117 1.349 . S
C1116 C1118 1.327 . S
C1116 H1141 0.950 . S
C1117 C1116 1.349 . S
C1117 C1133 1.349 . S
C1118 C1116 1.327 . S
C1118 C1137 1.429 . S
C1118 H1142 0.950 . S
C1119 C1136 1.574 . S
C1119 C1138 1.368 . S
C1119 H1143 0.949 . S
H1120 C1124 0.949 . S
C1121 C1122 1.349 . S
C1121 C1123 1.327 . S
C1121 H1144 0.950 . S
C1122 C1121 1.349 . S
C1122 C1134 1.349 . S
C1123 C1121 1.327 . S
C1123 C1139 1.429 . S
C1123 H1145 0.950 . S
C1124 H1120 0.949 . S
C1124 C1132 1.574 . S
C1124 C1140 1.368 . S
H1125 C1133 0.950 . S
H1126 C1131 0.950 . S
H1127 C1132 0.949 . S
H1128 C1134 0.950 . S
H1129 C1135 0.950 . S
H1130 C1136 0.949 . S
C1131 H1126 0.950 . S
C1131 C1133 1.327 . S
C1131 C1137 1.429 . S
C1132 C1124 1.574 . S
C1132 H1127 0.949 . S
C1132 C1138 1.368 . S
C1133 C1117 1.349 . S
C1133 H1125 0.950 . S
C1133 C1131 1.327 . S
C1134 C1122 1.349 . S
C1134 H1128 0.950 . S
C1134 C1135 1.327 . S
C1135 H1129 0.950 . S
C1135 C1134 1.327 . S
C1135 C1139 1.429 . S
C1136 C1119 1.574 . S
C1136 H1130 0.949 . S
C1136 C1140 1.368 . S
C1137 C1118 1.429 . S
C1137 C1131 1.429 . S
C1137 C1138 1.523 . S
C1138 C1119 1.368 . S
C1138 C1132 1.368 . S
C1138 C1137 1.523 . S
C1139 C1123 1.429 . S
C1139 C1135 1.429 . S
C1139 C1140 1.523 . S
C1140 C1124 1.368 . S
C1140 C1136 1.368 . S
C1140 C1139 1.523 . S
H1141 C1116 0.950 . S
H1142 C1118 0.950 . S
H1143 C1119 0.949 . S
H1144 C1121 0.950 . S
H1145 C1123 0.950 . S
C1146 C1147 1.349 . S
C1146 C1148 1.327 . S
C1146 H1171 0.950 . S
C1147 C1146 1.349 . S
C1147 C1163 1.349 . S
C1148 C1146 1.327 . S
C1148 C1167 1.429 . S
C1148 H1172 0.950 . S
C1149 C1166 1.574 . S
C1149 C1168 1.368 . S
C1149 H1173 0.949 . S
H1150 C1154 0.949 . S
C1151 C1152 1.349 . S
C1151 C1153 1.327 . S
C1151 H1174 0.950 . S
C1152 C1151 1.349 . S
C1152 C1164 1.349 . S
C1153 C1151 1.327 . S
C1153 C1169 1.429 . S
C1153 H1175 0.950 . S
C1154 H1150 0.949 . S
C1154 C1162 1.574 1_556 S
C1154 C1170 1.368 . S
H1155 C1163 0.950 . S
H1156 C1161 0.950 . S
H1157 C1162 0.949 . S
H1158 C1164 0.950 . S
H1159 C1165 0.950 . S
H1160 C1166 0.949 . S
C1161 H1156 0.950 . S
C1161 C1163 1.327 . S
C1161 C1167 1.429 . S
C1162 C1154 1.574 1_554 S
C1162 H1157 0.949 . S
C1162 C1168 1.368 . S
C1163 C1147 1.349 . S
C1163 H1155 0.950 . S
C1163 C1161 1.327 . S
C1164 C1152 1.349 . S
C1164 H1158 0.950 . S
C1164 C1165 1.327 . S
C1165 H1159 0.950 . S
C1165 C1164 1.327 . S
C1165 C1169 1.429 . S
C1166 C1149 1.574 . S
C1166 H1160 0.949 . S
C1166 C1170 1.368 1_554 S
C1167 C1148 1.429 . S
C1167 C1161 1.429 . S
C1167 C1168 1.523 . S
C1168 C1149 1.368 . S
C1168 C1162 1.368 . S
C1168 C1167 1.523 . S
C1169 C1153 1.429 . S
C1169 C1165 1.429 . S
C1169 C1170 1.523 . S
C1170 C1154 1.368 . S
C1170 C1166 1.368 1_556 S
C1170 C1169 1.523 . S
H1171 C1146 0.950 . S
H1172 C1148 0.950 . S
H1173 C1149 0.949 . S
H1174 C1151 0.950 . S
H1175 C1153 0.950 . S
C1176 C1177 1.349 . S
C1176 C1178 1.327 . S
C1176 H1201 0.950 . S
C1177 C1176 1.349 . S
C1177 C1193 1.349 . S
C1178 C1176 1.327 . S
C1178 C1197 1.429 . S
C1178 H1202 0.950 . S
C1179 C1196 1.574 1_556 S
C1179 C1198 1.368 . S
C1179 H1203 0.949 . S
H1180 C1184 0.949 . S
C1181 C1182 1.349 . S
C1181 C1183 1.327 . S
C1181 H1204 0.950 . S
C1182 C1181 1.349 . S
C1182 C1194 1.349 . S
C1183 C1181 1.327 . S
C1183 C1199 1.429 . S
C1183 H1205 0.950 . S
C1184 H1180 0.949 . S
C1184 C1192 1.574 1_554 S
C1184 C1200 1.368 . S
H1185 C1193 0.950 . S
H1186 C1191 0.950 . S
H1187 C1192 0.949 . S
H1188 C1194 0.950 . S
H1189 C1195 0.950 . S
H1190 C1196 0.949 . S
C1191 H1186 0.950 . S
C1191 C1193 1.327 . S
C1191 C1197 1.429 . S
C1192 C1184 1.574 1_556 S
C1192 H1187 0.949 . S
C1192 C1198 1.368 . S
C1193 C1177 1.349 . S
C1193 H1185 0.950 . S
C1193 C1191 1.327 . S
C1194 C1182 1.349 . S
C1194 H1188 0.950 . S
C1194 C1195 1.327 . S
C1195 H1189 0.950 . S
C1195 C1194 1.327 . S
C1195 C1199 1.429 . S
C1196 C1179 1.574 1_554 S
C1196 H1190 0.949 . S
C1196 C1200 1.368 . S
C1197 C1178 1.429 . S
C1197 C1191 1.429 . S
C1197 C1198 1.523 . S
C1198 C1179 1.368 . S
C1198 C1192 1.368 . S
C1198 C1197 1.523 . S
C1199 C1183 1.429 . S
C1199 C1195 1.429 . S
C1199 C1200 1.523 . S
C1200 C1184 1.368 . S
C1200 C1196 1.368 . S
C1200 C1199 1.523 . S
H1201 C1176 0.950 . S
H1202 C1178 0.950 . S
H1203 C1179 0.949 . S
H1204 C1181 0.950 . S
H1205 C1183 0.950 . S
C1206 C1207 1.349 . S
C1206 C1208 1.327 . S
C1206 H1231 0.950 . S
C1207 C1206 1.349 . S
C1207 C1223 1.349 . S
C1208 C1206 1.327 . S
C1208 C1227 1.429 . S
C1208 H1232 0.950 . S
C1209 C1226 1.574 . S
C1209 C1228 1.368 . S
C1209 H1233 0.949 . S
H1210 C1214 0.949 . S
C1211 C1212 1.349 . S
C1211 C1213 1.327 . S
C1211 H1234 0.950 . S
C1212 C1211 1.349 . S
C1212 C1224 1.349 . S
C1213 C1211 1.327 . S
C1213 C1229 1.429 . S
C1213 H1235 0.950 . S
C1214 H1210 0.949 . S
C1214 C1222 1.574 . S
C1214 C1230 1.368 . S
H1215 C1223 0.950 . S
H1216 C1221 0.950 . S
H1217 C1222 0.949 . S
H1218 C1224 0.950 . S
H1219 C1225 0.950 . S
H1220 C1226 0.949 . S
C1221 H1216 0.950 . S
C1221 C1223 1.327 . S
C1221 C1227 1.429 . S
C1222 C1214 1.574 . S
C1222 H1217 0.949 . S
C1222 C1228 1.368 . S
C1223 C1207 1.349 . S
C1223 H1215 0.950 . S
C1223 C1221 1.327 . S
C1224 C1212 1.349 . S
C1224 H1218 0.950 . S
C1224 C1225 1.327 . S
C1225 H1219 0.950 . S
C1225 C1224 1.327 . S
C1225 C1229 1.429 . S
C1226 C1209 1.574 . S
C1226 H1220 0.949 . S
C1226 C1230 1.368 . S
C1227 C1208 1.429 . S
C1227 C1221 1.429 . S
C1227 C1228 1.523 . S
C1228 C1209 1.368 . S
C1228 C1222 1.368 . S
C1228 C1227 1.523 . S
C1229 C1213 1.429 . S
C1229 C1225 1.429 . S
C1229 C1230 1.523 . S
C1230 C1214 1.368 . S
C1230 C1226 1.368 . S
C1230 C1229 1.523 . S
H1231 C1206 0.950 . S
H1232 C1208 0.950 . S
H1233 C1209 0.949 . S
H1234 C1211 0.950 . S
H1235 C1213 0.950 . S
C1236 C1237 1.349 . S
C1236 C1238 1.327 . S
C1236 H1261 0.950 . S
C1237 C1236 1.349 . S
C1237 C1253 1.349 . S
C1238 C1236 1.327 . S
C1238 C1257 1.429 . S
C1238 H1262 0.950 . S
C1239 C1256 1.574 . S
C1239 C1258 1.368 . S
C1239 H1263 0.949 . S
H1240 C1244 0.949 . S
C1241 C1242 1.349 . S
C1241 C1243 1.327 . S
C1241 H1264 0.950 . S
C1242 C1241 1.349 . S
C1242 C1254 1.349 . S
C1243 C1241 1.327 . S
C1243 C1259 1.429 . S
C1243 H1265 0.950 . S
C1244 H1240 0.949 . S
C1244 C1252 1.574 . S
C1244 C1260 1.368 . S
H1245 C1253 0.950 . S
H1246 C1251 0.950 . S
H1247 C1252 0.949 . S
H1248 C1254 0.950 . S
H1249 C1255 0.950 . S
H1250 C1256 0.949 . S
C1251 H1246 0.950 . S
C1251 C1253 1.327 . S
C1251 C1257 1.429 . S
C1252 C1244 1.574 . S
C1252 H1247 0.949 . S
C1252 C1258 1.368 . S
C1253 C1237 1.349 . S
C1253 H1245 0.950 . S
C1253 C1251 1.327 . S
C1254 C1242 1.349 . S
C1254 H1248 0.950 . S
C1254 C1255 1.327 . S
C1255 H1249 0.950 . S
C1255 C1254 1.327 . S
C1255 C1259 1.429 . S
C1256 C1239 1.574 . S
C1256 H1250 0.949 . S
C1256 C1260 1.368 . S
C1257 C1238 1.429 . S
C1257 C1251 1.429 . S
C1257 C1258 1.523 . S
C1258 C1239 1.368 . S
C1258 C1252 1.368 . S
C1258 C1257 1.523 . S
C1259 C1243 1.429 . S
C1259 C1255 1.429 . S
C1259 C1260 1.523 . S
C1260 C1244 1.368 . S
C1260 C1256 1.368 . S
C1260 C1259 1.523 . S
H1261 C1236 0.950 . S
H1262 C1238 0.950 . S
H1263 C1239 0.949 . S
H1264 C1241 0.950 . S
H1265 C1243 0.950 . S
C1266 C1267 1.349 . S
C1266 C1268 1.327 . S
C1266 H1291 0.950 . S
C1267 C1266 1.349 . S
C1267 C1283 1.349 . S
C1268 C1266 1.327 . S
C1268 C1287 1.429 . S
C1268 H1292 0.950 . S
C1269 C1286 1.574 1_455 S
C1269 C1288 1.368 . S
C1269 H1293 0.949 . S
H1270 C1274 0.949 . S
C1271 C1272 1.349 . S
C1271 C1273 1.327 . S
C1271 H1294 0.950 . S
C1272 C1271 1.349 . S
C1272 C1284 1.349 . S
C1273 C1271 1.327 . S
C1273 C1289 1.429 . S
C1273 H1295 0.950 . S
C1274 H1270 0.949 . S
C1274 C1282 1.574 1_655 S
C1274 C1290 1.368 . S
H1275 C1283 0.950 . S
H1276 C1281 0.950 . S
H1277 C1282 0.949 . S
H1278 C1284 0.950 . S
H1279 C1285 0.950 . S
H1280 C1286 0.949 . S
C1281 H1276 0.950 . S
C1281 C1283 1.327 . S
C1281 C1287 1.429 . S
C1282 C1274 1.574 1_455 S
C1282 H1277 0.949 . S
C1282 C1288 1.368 . S
C1283 C1267 1.349 . S
C1283 H1275 0.950 . S
C1283 C1281 1.327 . S
C1284 C1272 1.349 . S
C1284 H1278 0.950 . S
C1284 C1285 1.327 . S
C1285 H1279 0.950 . S
C1285 C1284 1.327 . S
C1285 C1289 1.429 . S
C1286 C1269 1.574 1_655 S
C1286 H1280 0.949 . S
C1286 C1290 1.368 . S
C1287 C1268 1.429 . S
C1287 C1281 1.429 . S
C1287 C1288 1.523 . S
C1288 C1269 1.368 . S
C1288 C1282 1.368 . S
C1288 C1287 1.523 . S
C1289 C1273 1.429 . S
C1289 C1285 1.429 . S
C1289 C1290 1.523 . S
C1290 C1274 1.368 . S
C1290 C1286 1.368 . S
C1290 C1289 1.523 . S
H1291 C1266 0.950 . S
H1292 C1268 0.950 . S
H1293 C1269 0.949 . S
H1294 C1271 0.950 . S
H1295 C1273 0.950 . S
C1296 C1297 1.349 . S
C1296 C1298 1.327 . S
C1296 H1321 0.950 . S
C1297 C1296 1.349 . S
C1297 C1313 1.349 . S
C1298 C1296 1.327 . S
C1298 C1317 1.429 . S
C1298 H1322 0.950 . S
C1299 C1316 1.574 1_455 S
C1299 C1318 1.368 . S
C1299 H1323 0.949 . S
H1300 C1304 0.949 . S
C1301 C1302 1.349 . S
C1301 C1303 1.327 . S
C1301 H1324 0.950 . S
C1302 C1301 1.349 . S
C1302 C1314 1.349 . S
C1303 C1301 1.327 . S
C1303 C1319 1.429 . S
C1303 H1325 0.950 . S
C1304 H1300 0.949 . S
C1304 C1312 1.574 1_655 S
C1304 C1320 1.368 . S
H1305 C1313 0.950 . S
H1306 C1311 0.950 . S
H1307 C1312 0.949 . S
H1308 C1314 0.950 . S
H1309 C1315 0.950 . S
H1310 C1316 0.949 . S
C1311 H1306 0.950 . S
C1311 C1313 1.327 . S
C1311 C1317 1.429 . S
C1312 C1304 1.574 1_455 S
C1312 H1307 0.949 . S
C1312 C1318 1.368 . S
C1313 C1297 1.349 . S
C1313 H1305 0.950 . S
C1313 C1311 1.327 . S
C1314 C1302 1.349 . S
C1314 H1308 0.950 . S
C1314 C1315 1.327 . S
C1315 H1309 0.950 . S
C1315 C1314 1.327 . S
C1315 C1319 1.429 . S
C1316 C1299 1.574 1_655 S
C1316 H1310 0.949 . S
C1316 C1320 1.368 . S
C1317 C1298 1.429 . S
C1317 C1311 1.429 . S
C1317 C1318 1.523 . S
C1318 C1299 1.368 . S
C1318 C1312 1.368 . S
C1318 C1317 1.523 . S
C1319 C1303 1.429 . S
C1319 C1315 1.429 . S
C1319 C1320 1.523 . S
C1320 C1304 1.368 . S
C1320 C1316 1.368 . S
C1320 C1319 1.523 . S
H1321 C1296 0.950 . S
H1322 C1298 0.950 . S
H1323 C1299 0.949 . S
H1324 C1301 0.950 . S
H1325 C1303 0.950 . S
C1326 C1327 1.349 . S
C1326 C1328 1.327 . S
C1326 H1351 0.950 . S
C1327 C1326 1.349 . S
C1327 C1343 1.349 . S
C1328 C1326 1.327 . S
C1328 C1347 1.429 . S
C1328 H1352 0.950 . S
C1329 C1346 1.574 . S
C1329 C1348 1.368 . S
C1329 H1353 0.949 . S
H1330 C1334 0.949 . S
C1331 C1332 1.349 . S
C1331 C1333 1.327 . S
C1331 H1354 0.950 . S
C1332 C1331 1.349 . S
C1332 C1344 1.349 . S
C1333 C1331 1.327 . S
C1333 C1349 1.429 . S
C1333 H1355 0.950 . S
C1334 H1330 0.949 . S
C1334 C1342 1.574 . S
C1334 C1350 1.368 . S
H1335 C1343 0.950 . S
H1336 C1341 0.950 . S
H1337 C1342 0.949 . S
H1338 C1344 0.950 . S
H1339 C1345 0.950 . S
H1340 C1346 0.949 . S
C1341 H1336 0.950 . S
C1341 C1343 1.327 . S
C1341 C1347 1.429 . S
C1342 C1334 1.574 . S
C1342 H1337 0.949 . S
C1342 C1348 1.368 . S
C1343 C1327 1.349 . S
C1343 H1335 0.950 . S
C1343 C1341 1.327 . S
C1344 C1332 1.349 . S
C1344 H1338 0.950 . S
C1344 C1345 1.327 . S
C1345 H1339 0.950 . S
C1345 C1344 1.327 . S
C1345 C1349 1.429 . S
C1346 C1329 1.574 . S
C1346 H1340 0.949 . S
C1346 C1350 1.368 . S
C1347 C1328 1.429 . S
C1347 C1341 1.429 . S
C1347 C1348 1.523 . S
C1348 C1329 1.368 . S
C1348 C1342 1.368 . S
C1348 C1347 1.523 . S
C1349 C1333 1.429 . S
C1349 C1345 1.429 . S
C1349 C1350 1.523 . S
C1350 C1334 1.368 . S
C1350 C1346 1.368 . S
C1350 C1349 1.523 . S
H1351 C1326 0.950 . S
H1352 C1328 0.950 . S
H1353 C1329 0.949 . S
H1354 C1331 0.950 . S
H1355 C1333 0.950 . S
C1356 C1357 1.349 . S
C1356 C1358 1.327 . S
C1356 H1381 0.950 . S
C1357 C1356 1.349 . S
C1357 C1373 1.349 . S
C1358 C1356 1.327 . S
C1358 C1377 1.429 . S
C1358 H1382 0.950 . S
C1359 C1376 1.574 . S
C1359 C1378 1.368 . S
C1359 H1383 0.949 . S
H1360 C1364 0.949 . S
C1361 C1362 1.349 . S
C1361 C1363 1.327 . S
C1361 H1384 0.950 . S
C1362 C1361 1.349 . S
C1362 C1374 1.349 . S
C1363 C1361 1.327 . S
C1363 C1379 1.429 . S
C1363 H1385 0.950 . S
C1364 H1360 0.949 . S
C1364 C1372 1.574 . S
C1364 C1380 1.368 . S
H1365 C1373 0.950 . S
H1366 C1371 0.950 . S
H1367 C1372 0.949 . S
H1368 C1374 0.950 . S
H1369 C1375 0.950 . S
H1370 C1376 0.949 . S
C1371 H1366 0.950 . S
C1371 C1373 1.327 . S
C1371 C1377 1.429 . S
C1372 C1364 1.574 . S
C1372 H1367 0.949 . S
C1372 C1378 1.368 . S
C1373 C1357 1.349 . S
C1373 H1365 0.950 . S
C1373 C1371 1.327 . S
C1374 C1362 1.349 . S
C1374 H1368 0.950 . S
C1374 C1375 1.327 . S
C1375 H1369 0.950 . S
C1375 C1374 1.327 . S
C1375 C1379 1.429 . S
C1376 C1359 1.574 . S
C1376 H1370 0.949 . S
C1376 C1380 1.368 . S
C1377 C1358 1.429 . S
C1377 C1371 1.429 . S
C1377 C1378 1.523 . S
C1378 C1359 1.368 . S
C1378 C1372 1.368 . S
C1378 C1377 1.523 . S
C1379 C1363 1.429 . S
C1379 C1375 1.429 . S
C1379 C1380 1.523 . S
C1380 C1364 1.368 . S
C1380 C1376 1.368 . S
C1380 C1379 1.523 . S
H1381 C1356 0.950 . S
H1382 C1358 0.950 . S
H1383 C1359 0.949 . S
H1384 C1361 0.950 . S
H1385 C1363 0.950 . S
C1386 C1387 1.349 . S
C1386 C1388 1.327 . S
C1386 H1411 0.950 . S
C1387 C1386 1.349 . S
C1387 C1403 1.349 . S
C1388 C1386 1.327 . S
C1388 C1407 1.429 . S
C1388 H1412 0.950 . S
C1389 C1406 1.574 . S
C1389 C1408 1.368 1_565 S
C1389 H1413 0.949 1_565 S
H1390 C1394 0.949 . S
C1391 C1392 1.349 . S
C1391 C1393 1.327 . S
C1391 H1414 0.950 . S
C1392 C1391 1.349 . S
C1392 C1404 1.349 . S
C1393 C1391 1.327 . S
C1393 C1409 1.429 . S
C1393 H1415 0.950 . S
C1394 H1390 0.949 . S
C1394 C1402 1.574 1_565 S
C1394 C1410 1.368 . S
H1395 C1403 0.950 . S
H1396 C1401 0.950 . S
H1397 C1402 0.949 . S
H1398 C1404 0.950 . S
H1399 C1405 0.950 . S
H1400 C1406 0.949 . S
C1401 H1396 0.950 . S
C1401 C1403 1.327 . S
C1401 C1407 1.429 . S
C1402 C1394 1.574 1_545 S
C1402 H1397 0.949 . S
C1402 C1408 1.368 . S
C1403 C1387 1.349 . S
C1403 H1395 0.950 . S
C1403 C1401 1.327 . S
C1404 C1392 1.349 . S
C1404 H1398 0.950 . S
C1404 C1405 1.327 . S
C1405 H1399 0.950 . S
C1405 C1404 1.327 . S
C1405 C1409 1.429 . S
C1406 C1389 1.574 . S
C1406 H1400 0.949 . S
C1406 C1410 1.368 . S
C1407 C1388 1.429 . S
C1407 C1401 1.429 . S
C1407 C1408 1.523 . S
C1408 C1389 1.368 1_545 S
C1408 C1402 1.368 . S
C1408 C1407 1.523 . S
C1409 C1393 1.429 . S
C1409 C1405 1.429 . S
C1409 C1410 1.523 . S
C1410 C1394 1.368 . S
C1410 C1406 1.368 . S
C1410 C1409 1.523 . S
H1411 C1386 0.950 . S
H1412 C1388 0.950 . S
H1413 C1389 0.949 1_545 S
H1414 C1391 0.950 . S
H1415 C1393 0.950 . S
C1416 C1417 1.349 . S
C1416 C1418 1.327 . S
C1416 H1441 0.950 . S
C1417 C1416 1.349 . S
C1417 C1433 1.349 . S
C1418 C1416 1.327 . S
C1418 C1437 1.429 . S
C1418 H1442 0.950 . S
C1419 C1436 1.574 . S
C1419 C1438 1.368 . S
C1419 H1443 0.949 . S
H1420 C1424 0.949 . S
C1421 C1422 1.349 . S
C1421 C1423 1.327 . S
C1421 H1444 0.950 . S
C1422 C1421 1.349 . S
C1422 C1434 1.349 . S
C1423 C1421 1.327 . S
C1423 C1439 1.429 . S
C1423 H1445 0.950 . S
C1424 H1420 0.949 . S
C1424 C1432 1.574 . S
C1424 C1440 1.368 . S
H1425 C1433 0.950 . S
H1426 C1431 0.950 . S
H1427 C1432 0.949 . S
H1428 C1434 0.950 . S
H1429 C1435 0.950 . S
H1430 C1436 0.949 . S
C1431 H1426 0.950 . S
C1431 C1433 1.327 . S
C1431 C1437 1.429 . S
C1432 C1424 1.574 . S
C1432 H1427 0.949 . S
C1432 C1438 1.368 . S
C1433 C1417 1.349 . S
C1433 H1425 0.950 . S
C1433 C1431 1.327 . S
C1434 C1422 1.349 . S
C1434 H1428 0.950 . S
C1434 C1435 1.327 . S
C1435 H1429 0.950 . S
C1435 C1434 1.327 . S
C1435 C1439 1.429 . S
C1436 C1419 1.574 . S
C1436 H1430 0.949 . S
C1436 C1440 1.368 . S
C1437 C1418 1.429 . S
C1437 C1431 1.429 . S
C1437 C1438 1.523 . S
C1438 C1419 1.368 . S
C1438 C1432 1.368 . S
C1438 C1437 1.523 . S
C1439 C1423 1.429 . S
C1439 C1435 1.429 . S
C1439 C1440 1.523 . S
C1440 C1424 1.368 . S
C1440 C1436 1.368 . S
C1440 C1439 1.523 . S
H1441 C1416 0.950 . S
H1442 C1418 0.950 . S
H1443 C1419 0.949 . S
H1444 C1421 0.950 . S
H1445 C1423 0.950 . S
C1446 C1447 1.349 . S
C1446 C1448 1.327 . S
C1446 H1471 0.950 . S
C1447 C1446 1.349 . S
C1447 C1463 1.349 . S
C1448 C1446 1.327 . S
C1448 C1467 1.429 . S
C1448 H1472 0.950 . S
C1449 C1466 1.574 . S
C1449 C1468 1.368 . S
C1449 H1473 0.949 . S
H1450 C1454 0.949 . S
C1451 C1452 1.349 . S
C1451 C1453 1.327 . S
C1451 H1474 0.950 . S
C1452 C1451 1.349 . S
C1452 C1464 1.349 . S
C1453 C1451 1.327 . S
C1453 C1469 1.429 . S
C1453 H1475 0.950 . S
C1454 H1450 0.949 . S
C1454 C1462 1.574 . S
C1454 C1470 1.368 . S
H1455 C1463 0.950 . S
H1456 C1461 0.950 . S
H1457 C1462 0.949 . S
H1458 C1464 0.950 . S
H1459 C1465 0.950 . S
H1460 C1466 0.949 . S
C1461 H1456 0.950 . S
C1461 C1463 1.327 . S
C1461 C1467 1.429 . S
C1462 C1454 1.574 . S
C1462 H1457 0.949 . S
C1462 C1468 1.368 . S
C1463 C1447 1.349 . S
C1463 H1455 0.950 . S
C1463 C1461 1.327 . S
C1464 C1452 1.349 . S
C1464 H1458 0.950 . S
C1464 C1465 1.327 . S
C1465 H1459 0.950 . S
C1465 C1464 1.327 . S
C1465 C1469 1.429 . S
C1466 C1449 1.574 . S
C1466 H1460 0.949 . S
C1466 C1470 1.368 . S
C1467 C1448 1.429 . S
C1467 C1461 1.429 . S
C1467 C1468 1.523 . S
C1468 C1449 1.368 . S
C1468 C1462 1.368 . S
C1468 C1467 1.523 . S
C1469 C1453 1.429 . S
C1469 C1465 1.429 . S
C1469 C1470 1.523 . S
C1470 C1454 1.368 . S
C1470 C1466 1.368 . S
C1470 C1469 1.523 . S
H1471 C1446 0.950 . S
H1472 C1448 0.950 . S
H1473 C1449 0.949 . S
H1474 C1451 0.950 . S
H1475 C1453 0.950 . S
C1476 C1477 1.349 . S
C1476 C1478 1.327 . S
C1476 H1501 0.950 . S
C1477 C1476 1.349 . S
C1477 C1493 1.349 . S
C1478 C1476 1.327 . S
C1478 C1497 1.429 . S
C1478 H1502 0.950 . S
C1479 C1496 1.574 . S
C1479 C1498 1.368 1_565 S
C1479 H1503 0.949 . S
H1480 C1484 0.949 . S
C1481 C1482 1.349 . S
C1481 C1483 1.327 . S
C1481 H1504 0.950 . S
C1482 C1481 1.349 . S
C1482 C1494 1.349 . S
C1483 C1481 1.327 . S
C1483 C1499 1.429 . S
C1483 H1505 0.950 . S
C1484 H1480 0.949 . S
C1484 C1492 1.574 1_565 S
C1484 C1500 1.368 . S
H1485 C1493 0.950 . S
H1486 C1491 0.950 . S
H1487 C1492 0.949 . S
H1488 C1494 0.950 . S
H1489 C1495 0.950 . S
H1490 C1496 0.949 . S
C1491 H1486 0.950 . S
C1491 C1493 1.327 . S
C1491 C1497 1.429 . S
C1492 C1484 1.574 1_545 S
C1492 H1487 0.949 . S
C1492 C1498 1.368 . S
C1493 C1477 1.349 . S
C1493 H1485 0.950 . S
C1493 C1491 1.327 . S
C1494 C1482 1.349 . S
C1494 H1488 0.950 . S
C1494 C1495 1.327 . S
C1495 H1489 0.950 . S
C1495 C1494 1.327 . S
C1495 C1499 1.429 . S
C1496 C1479 1.574 . S
C1496 H1490 0.949 . S
C1496 C1500 1.368 . S
C1497 C1478 1.429 . S
C1497 C1491 1.429 . S
C1497 C1498 1.523 . S
C1498 C1479 1.368 1_545 S
C1498 C1492 1.368 . S
C1498 C1497 1.523 . S
C1499 C1483 1.429 . S
C1499 C1495 1.429 . S
C1499 C1500 1.523 . S
C1500 C1484 1.368 . S
C1500 C1496 1.368 . S
C1500 C1499 1.523 . S
H1501 C1476 0.950 . S
H1502 C1478 0.950 . S
H1503 C1479 0.949 . S
H1504 C1481 0.950 . S
H1505 C1483 0.950 . S
C1506 C1507 1.349 . S
C1506 C1508 1.327 . S
C1506 H1531 0.950 . S
C1507 C1506 1.349 . S
C1507 C1523 1.349 . S
C1508 C1506 1.327 . S
C1508 C1527 1.429 . S
C1508 H1532 0.950 . S
C1509 C1526 1.574 . S
C1509 C1528 1.368 . S
C1509 H1533 0.949 . S
H1510 C1514 0.949 . S
C1511 C1512 1.349 . S
C1511 C1513 1.327 . S
C1511 H1534 0.950 . S
C1512 C1511 1.349 . S
C1512 C1524 1.349 . S
C1513 C1511 1.327 . S
C1513 C1529 1.429 . S
C1513 H1535 0.950 . S
C1514 H1510 0.949 . S
C1514 C1522 1.574 . S
C1514 C1530 1.368 . S
H1515 C1523 0.950 . S
H1516 C1521 0.950 . S
H1517 C1522 0.949 . S
H1518 C1524 0.950 . S
H1519 C1525 0.950 . S
H1520 C1526 0.949 . S
C1521 H1516 0.950 . S
C1521 C1523 1.327 . S
C1521 C1527 1.429 . S
C1522 C1514 1.574 . S
C1522 H1517 0.949 . S
C1522 C1528 1.368 . S
C1523 C1507 1.349 . S
C1523 H1515 0.950 . S
C1523 C1521 1.327 . S
C1524 C1512 1.349 . S
C1524 H1518 0.950 . S
C1524 C1525 1.327 . S
C1525 H1519 0.950 . S
C1525 C1524 1.327 . S
C1525 C1529 1.429 . S
C1526 C1509 1.574 . S
C1526 H1520 0.949 . S
C1526 C1530 1.368 . S
C1527 C1508 1.429 . S
C1527 C1521 1.429 . S
C1527 C1528 1.523 . S
C1528 C1509 1.368 . S
C1528 C1522 1.368 . S
C1528 C1527 1.523 . S
C1529 C1513 1.429 . S
C1529 C1525 1.429 . S
C1529 C1530 1.523 . S
C1530 C1514 1.368 . S
C1530 C1526 1.368 . S
C1530 C1529 1.523 . S
H1531 C1506 0.950 . S
H1532 C1508 0.950 . S
H1533 C1509 0.949 . S
H1534 C1511 0.950 . S
H1535 C1513 0.950 . S
C577 C2 1.149 . S
C582 C470 1.149 . S
C607 C38 0.824 . S
C612 C326 0.824 . S
C637 C506 0.864 . S
C642 C74 0.864 . S
C667 C110 1.108 . S
C672 C542 1.109 . S
C697 C146 0.824 . S
C702 C218 0.824 . S
C727 C362 1.149 . S
C732 C182 1.149 . S
C757 C398 0.864 . S
C762 C254 0.864 . S
C787 C290 1.109 . S
C792 C434 1.108 . S
C817 C75 1.653 . S
C822 C14 1.551 . S
C847 C50 1.701 . S
C852 C122 1.694 . S
C877 C435 1.698 . S
C882 C3 1.698 . S
C907 C39 1.794 . S
C912 C400 1.787 . S
C937 C147 1.794 . S
C942 C76 1.787 . S
C967 C363 1.698 . S
C972 C111 1.698 . S
C997 C40 1.856 . S
C1002 C4 1.846 . S
C1027 C112 0.817 . S
C1032 C86 0.803 . S
C1057 C364 1.846 . S
C1062 C148 1.856 . S
C1087 C256 1.724 . S
C1092 C183 1.728 . S
C1117 C219 1.204 . S
C1122 C292 1.202 . S
C1147 C543 1.697 . S
C1152 C194 1.590 . S
C1177 C230 1.336 . S
C1182 C507 1.416 . S
C1207 C338 1.336 . S
C1212 C255 1.416 . S
C1237 C291 1.697 . S
C1242 C482 1.590 . S
C1267 C220 1.755 . S
C1272 C184 1.757 . S
C1297 C302 1.764 . S
C1302 C266 1.785 . S
C1327 C328 1.755 . S
C1332 C472 1.757 . S
C1357 C374 1.551 . S
C1362 C399 1.653 . S
C1387 C446 1.694 . S
C1392 C158 1.701 . S
C1417 C436 0.817 . S
C1422 C410 0.803 . S
C1447 C508 1.724 . S
C1452 C471 1.728 . S
C1477 C327 1.204 . S
C1482 C544 1.202 . S
C1507 C554 1.764 . S
C1512 C518 1.785 . S
