# Generated by pormake.
# Topology uob, (4)-cn, num edge types: 1
# Building blocks:
#     Node 0, Type 0, BuildingBlock: KOZSID_clean_sbu_0, # of connection points: 4
#     Node 1, Type 0, BuildingBlock: KOZSID_clean_sbu_0, # of connection points: 4
#     Node 2, Type 0, BuildingBlock: KOZSID_clean_sbu_0, # of connection points: 4
#     Node 3, Type 0, BuildingBlock: KOZSID_clean_sbu_0, # of connection points: 4
#     Node 4, Type 0, BuildingBlock: KOZSID_clean_sbu_0, # of connection points: 4
#     Node 5, Type 0, BuildingBlock: KOZSID_clean_sbu_0, # of connection points: 4
#     Node 6, Type 0, BuildingBlock: KOZSID_clean_sbu_0, # of connection points: 4
#     Node 7, Type 0, BuildingBlock: KOZSID_clean_sbu_0, # of connection points: 4
#     Node 8, Type 0, BuildingBlock: KOZSID_clean_sbu_0, # of connection points: 4
#     Node 9, Type 0, BuildingBlock: KOZSID_clean_sbu_0, # of connection points: 4
#     Node 10, Type 0, BuildingBlock: KOZSID_clean_sbu_0, # of connection points: 4
#     Node 11, Type 0, BuildingBlock: KOZSID_clean_sbu_0, # of connection points: 4
#     Node 12, Type 0, BuildingBlock: KOZSID_clean_sbu_0, # of connection points: 4
#     Node 13, Type 0, BuildingBlock: KOZSID_clean_sbu_0, # of connection points: 4
#     Node 14, Type 0, BuildingBlock: KOZSID_clean_sbu_0, # of connection points: 4
#     Node 15, Type 0, BuildingBlock: KOZSID_clean_sbu_0, # of connection points: 4
#     Edge 16, Type (0, 0), BuildingBlock: UVAHIK_clean_linker_0, # of connection points: 2
#     Edge 17, Type (0, 0), BuildingBlock: UVAHIK_clean_linker_0, # of connection points: 2
#     Edge 18, Type (0, 0), BuildingBlock: UVAHIK_clean_linker_0, # of connection points: 2
#     Edge 19, Type (0, 0), BuildingBlock: UVAHIK_clean_linker_0, # of connection points: 2
#     Edge 20, Type (0, 0), BuildingBlock: UVAHIK_clean_linker_0, # of connection points: 2
#     Edge 21, Type (0, 0), BuildingBlock: UVAHIK_clean_linker_0, # of connection points: 2
#     Edge 22, Type (0, 0), BuildingBlock: UVAHIK_clean_linker_0, # of connection points: 2
#     Edge 23, Type (0, 0), BuildingBlock: UVAHIK_clean_linker_0, # of connection points: 2
#     Edge 24, Type (0, 0), BuildingBlock: UVAHIK_clean_linker_0, # of connection points: 2
#     Edge 25, Type (0, 0), BuildingBlock: UVAHIK_clean_linker_0, # of connection points: 2
#     Edge 26, Type (0, 0), BuildingBlock: UVAHIK_clean_linker_0, # of connection points: 2
#     Edge 27, Type (0, 0), BuildingBlock: UVAHIK_clean_linker_0, # of connection points: 2
#     Edge 28, Type (0, 0), BuildingBlock: UVAHIK_clean_linker_0, # of connection points: 2
#     Edge 29, Type (0, 0), BuildingBlock: UVAHIK_clean_linker_0, # of connection points: 2
#     Edge 30, Type (0, 0), BuildingBlock: UVAHIK_clean_linker_0, # of connection points: 2
#     Edge 31, Type (0, 0), BuildingBlock: UVAHIK_clean_linker_0, # of connection points: 2
#     Edge 32, Type (0, 0), BuildingBlock: UVAHIK_clean_linker_0, # of connection points: 2
#     Edge 33, Type (0, 0), BuildingBlock: UVAHIK_clean_linker_0, # of connection points: 2
#     Edge 34, Type (0, 0), BuildingBlock: UVAHIK_clean_linker_0, # of connection points: 2
#     Edge 35, Type (0, 0), BuildingBlock: UVAHIK_clean_linker_0, # of connection points: 2
#     Edge 36, Type (0, 0), BuildingBlock: UVAHIK_clean_linker_0, # of connection points: 2
#     Edge 37, Type (0, 0), BuildingBlock: UVAHIK_clean_linker_0, # of connection points: 2
#     Edge 38, Type (0, 0), BuildingBlock: UVAHIK_clean_linker_0, # of connection points: 2
#     Edge 39, Type (0, 0), BuildingBlock: UVAHIK_clean_linker_0, # of connection points: 2
#     Edge 40, Type (0, 0), BuildingBlock: UVAHIK_clean_linker_0, # of connection points: 2
#     Edge 41, Type (0, 0), BuildingBlock: UVAHIK_clean_linker_0, # of connection points: 2
#     Edge 42, Type (0, 0), BuildingBlock: UVAHIK_clean_linker_0, # of connection points: 2
#     Edge 43, Type (0, 0), BuildingBlock: UVAHIK_clean_linker_0, # of connection points: 2
#     Edge 44, Type (0, 0), BuildingBlock: UVAHIK_clean_linker_0, # of connection points: 2
#     Edge 45, Type (0, 0), BuildingBlock: UVAHIK_clean_linker_0, # of connection points: 2
#     Edge 46, Type (0, 0), BuildingBlock: UVAHIK_clean_linker_0, # of connection points: 2
#     Edge 47, Type (0, 0), BuildingBlock: UVAHIK_clean_linker_0, # of connection points: 2
# Relax obj value: 0.098
# Max RMSD: 0.270
# Mean RMSD: 0.243
data_MOF--net-uob--node1-KOZSID_clean_sbu_0--edge1-UVAHIK_clean_linker_0
_symmetry_space_group_name_H-M    P1
_symmetry_Int_Tables_number       1
_symmetry_cell_setting            triclinic
loop_
_symmetry_equiv_pos_as_xyz
'x, y, z'
_cell_length_a     71.547008
_cell_length_b     85.767889
_cell_length_c     42.931586
_cell_angle_alpha  89.955637
_cell_angle_beta   90.0602
_cell_angle_gamma 89.98115
loop_
_atom_site_label
_atom_site_type_symbol
_atom_site_fract_x
_atom_site_fract_y
_atom_site_fract_z
_atom_type_partial_charge
C0 C 0.17128 0.07167 0.31034 0.0
C1 C 0.18643 0.06162 0.30798 0.0
C2 C 0.17998 0.04833 0.29378 0.0
C3 C 0.16131 0.05093 0.2884 0.0
N4 N 0.1557 0.06505 0.29822 0.0
Co5 Co 0.12987 0.07326 0.29658 0.0
N6 N 0.11924 0.05201 0.29364 0.0
C7 C 0.12859 0.03912 0.28485 0.0
C8 C 0.11759 0.02602 0.28471 0.0
C9 C 0.10021 0.03103 0.29366 0.0
C10 C 0.10156 0.047 0.29874 0.0
N11 N 0.10407 0.08153 0.29458 0.0
C12 C 0.0875 0.07408 0.29859 0.0
C13 C 0.07273 0.08428 0.29375 0.0
C14 C 0.08044 0.0985 0.28617 0.0
C15 C 0.09946 0.09624 0.28677 0.0
N16 N 0.14095 0.09433 0.30009 0.0
C17 C 0.1326 0.10778 0.29202 0.0
C18 C 0.14351 0.12053 0.29907 0.0
C19 C 0.15958 0.11462 0.3124 0.0
C20 C 0.15758 0.09856 0.31286 0.0
N21 N 0.13087 0.07463 0.25054 0.0
C22 C 0.12648 0.08295 0.18715 0.0
C23 C 0.14269 0.08709 0.20387 0.0
C24 C 0.14465 0.08275 0.23545 0.0
C25 C 0.11343 0.07344 0.20235 0.0
C26 C 0.11585 0.06945 0.23365 0.0
N27 N 0.12804 0.07248 0.3421 0.0
C28 C 0.11861 0.08561 0.38897 0.0
C29 C 0.12361 0.07271 0.40703 0.0
C30 C 0.13079 0.0595 0.39183 0.0
C31 C 0.13304 0.05967 0.35921 0.0
C32 C 0.12087 0.08524 0.35692 0.0
H33 H 0.1387 0.04949 0.3478 0.0
H34 H 0.11659 0.0954 0.34412 0.0
H35 H 0.15684 0.08667 0.24809 0.0
H36 H 0.10482 0.06291 0.24455 0.0
C37 C 0.14808 0.03939 0.28159 0.0
C38 C 0.17197 0.08745 0.32366 0.0
C39 C 0.08544 0.05722 0.30464 0.0
C40 C 0.11333 0.10792 0.285 0.0
H41 H 0.20054 0.06348 0.31616 0.0
H42 H 0.18772 0.03766 0.28987 0.0
H43 H 0.12179 0.01418 0.27957 0.0
H44 H 0.08787 0.02379 0.29557 0.0
H45 H 0.05795 0.08168 0.29523 0.0
H46 H 0.07303 0.10927 0.2817 0.0
H47 H 0.13981 0.1327 0.29656 0.0
H48 H 0.17133 0.12131 0.321 0.0
H49 H 0.15334 0.09427 0.19319 0.0
H50 H 0.10099 0.06943 0.1904 0.0
H51 H 0.11263 0.09594 0.3995 0.0
H52 H 0.1348 0.04925 0.40499 0.0
C53 C 0.90524 0.63037 0.49271 0.0
C54 C 0.88736 0.6294 0.48033 0.0
C55 C 0.87534 0.62845 0.50517 0.0
C56 C 0.88653 0.62895 0.53119 0.0
N57 N 0.90477 0.63021 0.52418 0.0
Co58 Co 0.92565 0.63129 0.55425 0.0
N59 N 0.91043 0.6212 0.587 0.0
C60 C 0.89162 0.62038 0.58745 0.0
C61 C 0.88487 0.61287 0.6133 0.0
C62 C 0.90038 0.60888 0.63028 0.0
C63 C 0.91584 0.61422 0.61378 0.0
N64 N 0.94646 0.63254 0.58443 0.0
C65 C 0.94876 0.62512 0.61208 0.0
C66 C 0.96525 0.62984 0.62628 0.0
C67 C 0.9733 0.64071 0.60688 0.0
C68 C 0.96136 0.64204 0.58192 0.0
N69 N 0.94049 0.64115 0.52062 0.0
C70 C 0.95605 0.64969 0.52454 0.0
C71 C 0.96384 0.65406 0.49654 0.0
C72 C 0.95242 0.64783 0.47384 0.0
C73 C 0.93821 0.64001 0.48924 0.0
N74 N 0.9172 0.65212 0.56899 0.0
C75 C 0.91132 0.68256 0.59301 0.0
C76 C 0.91217 0.67982 0.56069 0.0
C77 C 0.9148 0.66451 0.54917 0.0
C78 C 0.91284 0.66962 0.61271 0.0
C79 C 0.91592 0.65473 0.60044 0.0
N80 N 0.93492 0.6107 0.54087 0.0
C81 C 0.96168 0.59446 0.52995 0.0
C82 C 0.95067 0.58097 0.53031 0.0
C83 C 0.93131 0.58281 0.53507 0.0
C84 C 0.9237 0.59778 0.54003 0.0
C85 C 0.95363 0.60903 0.53524 0.0
H86 H 0.90886 0.59887 0.54409 0.0
H87 H 0.96286 0.61892 0.53596 0.0
H88 H 0.91548 0.66279 0.52427 0.0
H89 H 0.91806 0.64544 0.61687 0.0
C90 C 0.88107 0.62475 0.56135 0.0
C91 C 0.9223 0.63202 0.47416 0.0
C92 C 0.935 0.61445 0.62627 0.0
C93 C 0.96489 0.65009 0.55387 0.0
H94 H 0.88346 0.62924 0.45596 0.0
H95 H 0.86037 0.62669 0.50426 0.0
H96 H 0.87044 0.61028 0.61883 0.0
H97 H 0.90021 0.60309 0.65268 0.0
H98 H 0.97078 0.62594 0.64842 0.0
H99 H 0.98656 0.64656 0.61019 0.0
H100 H 0.97689 0.66018 0.49296 0.0
H101 H 0.95449 0.64876 0.44896 0.0
H102 H 0.91089 0.68942 0.54444 0.0
H103 H 0.91249 0.67105 0.63777 0.0
H104 H 0.97668 0.59379 0.52693 0.0
H105 H 0.92214 0.57278 0.53522 0.0
C106 C 0.33708 0.44266 0.81035 0.0
C107 C 0.32189 0.45269 0.80845 0.0
C108 C 0.32818 0.46605 0.7943 0.0
C109 C 0.34681 0.46349 0.78846 0.0
N110 N 0.35253 0.44933 0.79794 0.0
Co111 Co 0.37829 0.44107 0.79524 0.0
N112 N 0.38892 0.46232 0.79228 0.0
C113 C 0.37949 0.47526 0.78397 0.0
C114 C 0.39052 0.48834 0.78368 0.0
C115 C 0.408 0.48326 0.79203 0.0
C116 C 0.40666 0.46728 0.79693 0.0
N117 N 0.40403 0.43279 0.79213 0.0
C118 C 0.42065 0.44019 0.7958 0.0
C119 C 0.43535 0.43 0.79033 0.0
C120 C 0.42751 0.41583 0.78272 0.0
C121 C 0.4085 0.41811 0.78393 0.0
N122 N 0.36721 0.41999 0.79885 0.0
C123 C 0.37542 0.40658 0.79029 0.0
C124 C 0.36455 0.39381 0.79738 0.0
C125 C 0.34864 0.39968 0.81125 0.0
C126 C 0.35069 0.41573 0.81195 0.0
N127 N 0.37661 0.43992 0.74919 0.0
C128 C 0.37966 0.43254 0.68513 0.0
C129 C 0.36415 0.42767 0.70278 0.0
C130 C 0.36274 0.43169 0.73457 0.0
C131 C 0.39295 0.44194 0.70002 0.0
C132 C 0.39123 0.44541 0.73172 0.0
N133 N 0.3808 0.44163 0.84073 0.0
C134 C 0.39124 0.42835 0.88692 0.0
C135 C 0.38661 0.44117 0.90545 0.0
C136 C 0.37901 0.45441 0.89076 0.0
C137 C 0.37609 0.45435 0.85827 0.0
C138 C 0.38825 0.42881 0.85502 0.0
H139 H 0.37019 0.46457 0.84728 0.0
H140 H 0.39228 0.41871 0.84189 0.0
H141 H 0.35086 0.42752 0.74765 0.0
H142 H 0.40246 0.45183 0.74235 0.0
C143 C 0.35996 0.47504 0.78135 0.0
C144 C 0.33648 0.42683 0.82337 0.0
C145 C 0.4228 0.45699 0.80229 0.0
C146 C 0.39459 0.40645 0.78254 0.0
H147 H 0.30784 0.45071 0.81685 0.0
H148 H 0.32039 0.47672 0.79066 0.0
H149 H 0.38629 0.50022 0.77885 0.0
H150 H 0.42038 0.49047 0.79368 0.0
H151 H 0.45014 0.43257 0.79148 0.0
H152 H 0.43484 0.40506 0.77789 0.0
H153 H 0.36817 0.38165 0.7945 0.0
H154 H 0.33697 0.39297 0.82002 0.0
H155 H 0.35331 0.42061 0.69225 0.0
H156 H 0.40525 0.44594 0.6877 0.0
H157 H 0.39757 0.41801 0.89689 0.0
H158 H 0.37526 0.46461 0.90421 0.0
C159 C 0.60341 0.88576 0.99381 0.0
C160 C 0.62139 0.88789 0.98232 0.0
C161 C 0.63298 0.88913 1.00761 0.0
C162 C 0.62152 0.8879 0.03308 0.0
N163 N 0.60344 0.88595 0.02538 0.0
Co164 Co 0.58223 0.88457 0.05491 0.0
N165 N 0.59688 0.89481 0.08827 0.0
C166 C 0.61564 0.89602 0.08929 0.0
C167 C 0.62196 0.90366 0.11526 0.0
C168 C 0.60622 0.90733 0.13179 0.0
C169 C 0.59105 0.90166 0.1149 0.0
N170 N 0.56111 0.883 0.08447 0.0
C171 C 0.55841 0.89027 0.11217 0.0
C172 C 0.54192 0.88524 0.12588 0.0
C173 C 0.53425 0.87436 0.10611 0.0
C174 C 0.54642 0.87332 0.08145 0.0
N175 N 0.56788 0.8746 0.0208 0.0
C176 C 0.55246 0.86583 0.02429 0.0
C177 C 0.54525 0.86102 0.99615 0.0
C178 C 0.55691 0.86719 0.97378 0.0
C179 C 0.57059 0.87549 0.98951 0.0
N180 N 0.59088 0.86381 0.06981 0.0
C181 C 0.59686 0.83336 0.09388 0.0
C182 C 0.59631 0.83617 0.06156 0.0
C183 C 0.59364 0.85147 0.05002 0.0
C184 C 0.59503 0.84626 0.11359 0.0
C185 C 0.59191 0.86115 0.10129 0.0
N186 N 0.57274 0.90509 0.04136 0.0
C187 C 0.54581 0.92114 0.0303 0.0
C188 C 0.55661 0.93475 0.03136 0.0
C189 C 0.57597 0.93305 0.03639 0.0
C190 C 0.58377 0.91812 0.04107 0.0
C191 C 0.55405 0.9066 0.03529 0.0
H192 H 0.59859 0.91717 0.04544 0.0
H193 H 0.54498 0.8966 0.03552 0.0
H194 H 0.59319 0.85323 0.02512 0.0
H195 H 0.5895 0.8704 0.1177 0.0
C196 C 0.62648 0.8921 0.06341 0.0
C197 C 0.5867 0.88317 0.97448 0.0
C198 C 0.57182 0.90102 0.12696 0.0
C199 C 0.54334 0.86526 0.05331 0.0
H200 H 0.62581 0.88879 0.95834 0.0
H201 H 0.64779 0.8917 1.00738 0.0
H202 H 0.63626 0.90659 0.12112 0.0
H203 H 0.60605 0.91314 0.15415 0.0
H204 H 0.53615 0.88895 0.14796 0.0
H205 H 0.52111 0.86828 0.10901 0.0
H206 H 0.53253 0.85448 0.99223 0.0
H207 H 0.55551 0.86579 0.94884 0.0
H208 H 0.59785 0.82661 0.0453 0.0
H209 H 0.59515 0.84478 0.13865 0.0
H210 H 0.53082 0.92168 0.02701 0.0
H211 H 0.58501 0.94316 0.03701 0.0
C212 C 0.17149 0.44349 0.03201 0.0
C213 C 0.18673 0.45346 0.03393 0.0
C214 C 0.18051 0.46683 0.04811 0.0
C215 C 0.16187 0.46434 0.05392 0.0
N216 N 0.15606 0.45023 0.04438 0.0
Co217 Co 0.13021 0.44214 0.04686 0.0
N218 N 0.11975 0.46346 0.04989 0.0
C219 C 0.12929 0.47632 0.05829 0.0
C220 C 0.11837 0.48948 0.05856 0.0
C221 C 0.10087 0.48454 0.0501 0.0
C222 C 0.10206 0.46855 0.04517 0.0
N223 N 0.10438 0.43404 0.04975 0.0
C224 C 0.08783 0.44156 0.04603 0.0
C225 C 0.07304 0.43146 0.05139 0.0
C226 C 0.08073 0.41722 0.05894 0.0
C227 C 0.09976 0.41937 0.05784 0.0
N228 N 0.1411 0.421 0.04319 0.0
C229 C 0.13275 0.40763 0.05161 0.0
C230 C 0.1435 0.3948 0.04444 0.0
C231 C 0.15948 0.40058 0.03068 0.0
C232 C 0.15759 0.41665 0.0301 0.0
N233 N 0.13178 0.44088 0.09289 0.0
C234 C 0.12862 0.43341 0.15692 0.0
C235 C 0.14413 0.42851 0.13931 0.0
C236 C 0.14559 0.43257 0.10753 0.0
C237 C 0.11538 0.44286 0.142 0.0
C238 C 0.11716 0.44639 0.11032 0.0
N239 N 0.12782 0.44282 1.00137 0.0
C240 C 0.11754 0.42966 0.955 0.0
C241 C 0.12238 0.44246 0.93657 0.0
C242 C 0.12998 0.45564 0.95138 0.0
C243 C 0.13273 0.45554 0.98392 0.0
C244 C 0.12032 0.43007 0.98694 0.0
H245 H 0.13865 0.4657 0.99501 0.0
H246 H 0.11613 0.41998 1.0 0.0
H247 H 0.15747 0.42838 0.09448 0.0
H248 H 0.10597 0.45287 0.09967 0.0
C249 C 0.1488 0.47596 0.061 0.0
C250 C 0.17197 0.42767 0.01892 0.0
C251 C 0.08583 0.4584 0.03969 0.0
C252 C 0.11357 0.40761 0.05924 0.0
H253 H 0.20076 0.45148 0.0255 0.0
H254 H 0.18836 0.47746 0.05177 0.0
H255 H 0.12271 0.50132 0.06344 0.0
H256 H 0.08857 0.49184 0.04837 0.0
H257 H 0.05827 0.43414 0.05021 0.0
H258 H 0.07329 0.40649 0.06369 0.0
H259 H 0.13975 0.38265 0.04722 0.0
H260 H 0.17111 0.39381 0.02191 0.0
H261 H 0.15494 0.42142 0.14986 0.0
H262 H 0.10308 0.44689 0.15428 0.0
H263 H 0.1112 0.41936 0.9449 0.0
H264 H 0.13389 0.46583 0.93799 0.0
C265 C 0.60353 0.62921 0.34961 0.0
C266 C 0.62146 0.62684 0.36118 0.0
C267 C 0.63305 0.6255 0.33595 0.0
C268 C 0.62163 0.62692 0.31043 0.0
N269 N 0.60357 0.62906 0.31804 0.0
Co270 Co 0.58242 0.63077 0.28838 0.0
N271 N 0.59696 0.62047 0.255 0.0
C272 C 0.6157 0.61905 0.25409 0.0
C273 C 0.62193 0.61141 0.22807 0.0
C274 C 0.60615 0.60796 0.21141 0.0
C275 C 0.59105 0.61374 0.22827 0.0
N276 N 0.56137 0.63267 0.25868 0.0
C277 C 0.55858 0.62549 0.23091 0.0
C278 C 0.54218 0.63072 0.21714 0.0
C279 C 0.53466 0.64164 0.23696 0.0
C280 C 0.54683 0.6425 0.2617 0.0
N281 N 0.56817 0.64079 0.32251 0.0
C282 C 0.55289 0.64975 0.319 0.0
C283 C 0.54574 0.6546 0.34712 0.0
C284 C 0.5573 0.64827 0.36951 0.0
C285 C 0.57086 0.63984 0.35381 0.0
N286 N 0.59138 0.65149 0.27378 0.0
C287 C 0.5974 0.68197 0.24998 0.0
C288 C 0.5968 0.67911 0.28228 0.0
C289 C 0.59412 0.66378 0.29369 0.0
C290 C 0.59564 0.66911 0.23017 0.0
C291 C 0.5925 0.6542 0.24233 0.0
N292 N 0.57259 0.61031 0.30154 0.0
C293 C 0.54522 0.59452 0.31054 0.0
C294 C 0.55572 0.58079 0.30853 0.0
C295 C 0.57521 0.58223 0.30508 0.0
C296 C 0.58338 0.59711 0.30164 0.0
C297 C 0.55383 0.609 0.30708 0.0
H298 H 0.59825 0.59791 0.29775 0.0
H299 H 0.54498 0.61913 0.30743 0.0
H300 H 0.59362 0.66198 0.31857 0.0
H301 H 0.59009 0.645 0.22582 0.0
C302 C 0.62656 0.62276 0.28008 0.0
C303 C 0.58686 0.632 0.36888 0.0
C304 C 0.57183 0.6146 0.21614 0.0
C305 C 0.54382 0.6505 0.28991 0.0
H306 H 0.62585 0.62585 0.38518 0.0
H307 H 0.64782 0.62277 0.33625 0.0
H308 H 0.63618 0.60833 0.22227 0.0
H309 H 0.60591 0.6022 0.18899 0.0
H310 H 0.53637 0.62712 0.195 0.0
H311 H 0.52161 0.64786 0.23404 0.0
H312 H 0.53313 0.66128 0.35102 0.0
H313 H 0.55592 0.64967 0.39446 0.0
H314 H 0.5983 0.68864 0.29862 0.0
H315 H 0.5958 0.67064 0.20512 0.0
H316 H 0.53023 0.5941 0.31403 0.0
H317 H 0.58397 0.57196 0.30364 0.0
C318 C 0.33718 0.07267 0.53267 0.0
C319 C 0.32198 0.06267 0.53453 0.0
C320 C 0.32826 0.0493 0.5487 0.0
C321 C 0.34689 0.05184 0.5546 0.0
N322 N 0.35263 0.06599 0.54513 0.0
Co323 Co 0.37839 0.07422 0.54793 0.0
N324 N 0.389 0.05296 0.55091 0.0
C325 C 0.37956 0.04003 0.55918 0.0
C326 C 0.39059 0.02694 0.55948 0.0
C327 C 0.40807 0.032 0.55118 0.0
C328 C 0.40674 0.04799 0.5463 0.0
N329 N 0.40413 0.08248 0.55114 0.0
C330 C 0.42075 0.07506 0.5475 0.0
C331 C 0.43545 0.08523 0.55303 0.0
C332 C 0.42763 0.09941 0.56063 0.0
C333 C 0.40861 0.09715 0.55937 0.0
N334 N 0.36732 0.09531 0.5443 0.0
C335 C 0.37554 0.10872 0.5529 0.0
C336 C 0.36468 0.1215 0.54577 0.0
C337 C 0.34876 0.11564 0.53183 0.0
C338 C 0.35081 0.09959 0.53114 0.0
N339 N 0.37672 0.07536 0.59397 0.0
C340 C 0.37978 0.08277 0.65803 0.0
C341 C 0.36427 0.08764 0.64034 0.0
C342 C 0.36285 0.08361 0.60855 0.0
C343 C 0.39306 0.07335 0.64319 0.0
C344 C 0.39133 0.06986 0.61149 0.0
N345 N 0.38089 0.07368 0.50245 0.0
C346 C 0.3913 0.08698 0.45631 0.0
C347 C 0.38666 0.07418 0.43774 0.0
C348 C 0.37907 0.06094 0.45237 0.0
C349 C 0.37617 0.06097 0.48487 0.0
C350 C 0.38834 0.0865 0.4882 0.0
H351 H 0.37028 0.05075 0.49582 0.0
H352 H 0.39239 0.09659 0.50137 0.0
H353 H 0.35096 0.08779 0.59543 0.0
H354 H 0.40256 0.06343 0.6009 0.0
C355 C 0.36004 0.04027 0.56175 0.0
C356 C 0.3366 0.0885 0.51964 0.0
C357 C 0.42289 0.05826 0.54099 0.0
C358 C 0.3947 0.10883 0.56072 0.0
H359 H 0.30793 0.06467 0.5261 0.0
H360 H 0.32045 0.03864 0.55233 0.0
H361 H 0.38635 0.01507 0.56429 0.0
H362 H 0.42044 0.02478 0.54955 0.0
H363 H 0.45024 0.08265 0.55193 0.0
H364 H 0.43496 0.11017 0.56549 0.0
H365 H 0.36831 0.13366 0.54867 0.0
H366 H 0.3371 0.12237 0.52301 0.0
H367 H 0.35344 0.09472 0.65083 0.0
H368 H 0.40536 0.06934 0.65555 0.0
H369 H 0.39762 0.09732 0.44638 0.0
H370 H 0.3753 0.05075 0.43889 0.0
C371 C 0.90405 0.88647 0.84916 0.0
C372 C 0.88606 0.88895 0.86033 0.0
C373 C 0.87464 0.89032 0.83485 0.0
C374 C 0.8862 0.88881 0.80958 0.0
N375 N 0.90419 0.88658 0.81758 0.0
Co376 Co 0.92552 0.88478 0.78836 0.0
N377 N 0.91124 0.89511 0.75462 0.0
C378 C 0.89252 0.89657 0.75327 0.0
C379 C 0.88649 0.90415 0.727 0.0
C380 C 0.9024 0.90754 0.71065 0.0
C381 C 0.91736 0.90179 0.72797 0.0
N382 N 0.94673 0.88278 0.75912 0.0
C383 C 0.94977 0.89 0.73145 0.0
C384 C 0.96626 0.88474 0.71809 0.0
C385 C 0.97357 0.87376 0.73805 0.0
C386 C 0.96121 0.8729 0.76248 0.0
N387 N 0.93949 0.8747 0.82283 0.0
C388 C 0.95473 0.86567 0.81967 0.0
C389 C 0.96167 0.86079 0.84795 0.0
C390 C 0.95003 0.86718 0.87008 0.0
C391 C 0.93662 0.87567 0.85407 0.0
N392 N 0.91653 0.86409 0.77365 0.0
C393 C 0.91048 0.83364 0.7498 0.0
C394 C 0.91088 0.83649 0.7821 0.0
C395 C 0.91358 0.8518 0.79353 0.0
C396 C 0.91245 0.84649 0.73 0.0
C397 C 0.91561 0.86138 0.74219 0.0
N398 N 0.93538 0.90519 0.80162 0.0
C399 C 0.96282 0.92086 0.81102 0.0
C400 C 0.95243 0.93464 0.8086 0.0
C401 C 0.93296 0.93329 0.80477 0.0
C402 C 0.9247 0.91844 0.80134 0.0
C403 C 0.95412 0.90641 0.80757 0.0
H404 H 0.90984 0.91771 0.79713 0.0
H405 H 0.96289 0.89624 0.80822 0.0
H406 H 0.91394 0.8536 0.81842 0.0
H407 H 0.91819 0.87057 0.72571 0.0
C408 C 0.88148 0.89294 0.77908 0.0
C409 C 0.92058 0.88359 0.8688 0.0
C410 C 0.93668 0.90097 0.71641 0.0
C411 C 0.96398 0.86488 0.79077 0.0
H412 H 0.88153 0.89 0.88423 0.0
H413 H 0.85989 0.89312 0.83483 0.0
H414 H 0.87229 0.90723 0.72084 0.0
H415 H 0.90282 0.91323 0.68817 0.0
H416 H 0.97228 0.88837 0.69614 0.0
H417 H 0.98663 0.86751 0.73547 0.0
H418 H 0.97422 0.85405 0.85213 0.0
H419 H 0.95124 0.86578 0.89506 0.0
H420 H 0.90922 0.82696 0.79843 0.0
H421 H 0.91245 0.84497 0.70495 0.0
H422 H 0.97778 0.92121 0.81481 0.0
H423 H 0.92429 0.9436 0.80301 0.0
C424 C 0.67104 0.57235 0.81186 0.0
C425 C 0.68651 0.56264 0.80997 0.0
C426 C 0.68058 0.54915 0.79589 0.0
C427 C 0.66188 0.55134 0.79005 0.0
N428 N 0.65577 0.56539 0.79947 0.0
Co429 Co 0.62977 0.57314 0.79673 0.0
N430 N 0.61974 0.55167 0.79395 0.0
C431 C 0.62955 0.53888 0.78591 0.0
C432 C 0.61889 0.52559 0.78582 0.0
C433 C 0.60126 0.53034 0.79399 0.0
C434 C 0.60214 0.54637 0.79858 0.0
N435 N 0.60382 0.58091 0.7934 0.0
C436 C 0.5874 0.57318 0.79678 0.0
C437 C 0.57244 0.58307 0.79104 0.0
C438 C 0.5799 0.5974 0.78358 0.0
C439 C 0.59896 0.59551 0.78512 0.0
N440 N 0.64025 0.59443 0.80045 0.0
C441 C 0.63166 0.6077 0.79198 0.0
C442 C 0.64216 0.62067 0.79921 0.0
C443 C 0.65824 0.61508 0.81309 0.0
C444 C 0.65665 0.59899 0.81364 0.0
N445 N 0.63137 0.57436 0.75064 0.0
C446 C 0.62678 0.58256 0.68696 0.0
C447 C 0.64207 0.58807 0.7046 0.0
C448 C 0.64431 0.58359 0.73605 0.0
C449 C 0.61502 0.57167 0.70159 0.0
C450 C 0.61732 0.568 0.7331 0.0
N451 N 0.62731 0.57254 0.8422 0.0
C452 C 0.61682 0.58571 0.88839 0.0
C453 C 0.62218 0.57313 0.90699 0.0
C454 C 0.63005 0.56 0.8924 0.0
C455 C 0.63263 0.55999 0.85984 0.0
C456 C 0.61943 0.58518 0.85642 0.0
H457 H 0.63883 0.5499 0.84891 0.0
H458 H 0.61491 0.59513 0.84321 0.0
H459 H 0.65591 0.58837 0.749 0.0
H460 H 0.60686 0.56065 0.74349 0.0
C461 C 0.64905 0.5395 0.78318 0.0
C462 C 0.67118 0.58815 0.825 0.0
C463 C 0.58568 0.55635 0.80339 0.0
C464 C 0.61253 0.60746 0.78399 0.0
H465 H 0.70051 0.56489 0.81839 0.0
H466 H 0.68867 0.53863 0.79233 0.0
H467 H 0.62346 0.51378 0.78116 0.0
H468 H 0.58909 0.5229 0.79566 0.0
H469 H 0.55772 0.58021 0.79196 0.0
H470 H 0.57228 0.60802 0.77864 0.0
H471 H 0.63819 0.63276 0.79637 0.0
H472 H 0.66972 0.622 0.82194 0.0
H473 H 0.65187 0.59633 0.69489 0.0
H474 H 0.60356 0.56624 0.68925 0.0
H475 H 0.61032 0.59596 0.89843 0.0
H476 H 0.63436 0.54999 0.906 0.0
C477 C 0.40622 0.1295 0.99298 0.0
C478 C 0.38844 0.12806 0.9804 0.0
C479 C 0.37634 0.12697 1.00511 0.0
C480 C 0.38739 0.12783 0.03126 0.0
N481 N 0.40563 0.12943 0.02446 0.0
Co482 Co 0.42636 0.13092 0.05481 0.0
N483 N 0.41119 0.12078 0.08757 0.0
C484 C 0.39241 0.11966 0.08777 0.0
C485 C 0.38569 0.11216 0.11366 0.0
C486 C 0.4012 0.10849 0.13093 0.0
C487 C 0.41663 0.114 0.11454 0.0
N488 N 0.44701 0.13261 0.08523 0.0
C489 C 0.44934 0.12534 0.11304 0.0
C490 C 0.46567 0.13035 0.12735 0.0
C491 C 0.4736 0.14123 0.10785 0.0
C492 C 0.46175 0.14228 0.08272 0.0
N493 N 0.44118 0.14083 0.02121 0.0
C494 C 0.45653 0.14963 0.02517 0.0
C495 C 0.46418 0.15422 0.9972 0.0
C496 C 0.45289 0.14785 0.97447 0.0
C497 C 0.43896 0.1397 0.98984 0.0
N498 N 0.4175 0.15173 0.06909 0.0
C499 C 0.41157 0.18225 0.09276 0.0
C500 C 0.41256 0.17942 0.06048 0.0
C501 C 0.41519 0.16408 0.04913 0.0
C502 C 0.41291 0.16934 0.11259 0.0
C503 C 0.416 0.15442 0.1005 0.0
N504 N 0.43608 0.11038 0.04201 0.0
C505 C 0.46336 0.09436 0.03378 0.0
C506 C 0.45265 0.08073 0.0352 0.0
C507 C 0.43314 0.08235 0.03799 0.0
C508 C 0.42513 0.0973 0.04137 0.0
C509 C 0.4549 0.10891 0.03714 0.0
H510 H 0.41021 0.09823 0.04474 0.0
H511 H 0.46388 0.11895 0.03722 0.0
H512 H 0.41601 0.16231 0.02426 0.0
H513 H 0.41807 0.14518 0.11707 0.0
C514 C 0.3819 0.12369 0.06141 0.0
C515 C 0.42329 0.13152 0.97462 0.0
C516 C 0.43572 0.11456 0.12726 0.0
C517 C 0.46524 0.15028 0.05459 0.0
H518 H 0.38465 0.12768 0.956 0.0
H519 H 0.36144 0.12488 1.00405 0.0
H520 H 0.3713 0.10936 0.11903 0.0
H521 H 0.40106 0.1028 0.15342 0.0
H522 H 0.47118 0.12662 0.14963 0.0
H523 H 0.48673 0.14727 0.11121 0.0
H524 H 0.477 0.16067 0.99366 0.0
H525 H 0.45477 0.14894 0.94955 0.0
H526 H 0.4114 0.18899 0.04411 0.0
H527 H 0.41244 0.17083 0.13763 0.0
H528 H 0.47838 0.09381 0.0308 0.0
H529 H 0.42424 0.07216 0.03896 0.0
C530 C 0.83675 0.9427 0.31219 0.0
C531 C 0.82137 0.95252 0.31044 0.0
C532 C 0.8274 0.96603 0.29655 0.0
C533 C 0.84608 0.96374 0.29069 0.0
N534 N 0.85207 0.94961 0.29992 0.0
Co535 Co 0.878 0.94172 0.29704 0.0
N536 N 0.88821 0.96314 0.29447 0.0
C537 C 0.87851 0.97601 0.28657 0.0
C538 C 0.88928 0.98924 0.28661 0.0
C539 C 0.90687 0.98435 0.29473 0.0
C540 C 0.90586 0.96832 0.29916 0.0
N541 N 0.90388 0.93381 0.29358 0.0
C542 C 0.92037 0.94143 0.29707 0.0
C543 C 0.93523 0.93147 0.29122 0.0
C544 C 0.92765 0.91721 0.28359 0.0
C545 C 0.9086 0.91922 0.28514 0.0
N546 N 0.86734 0.92047 0.30053 0.0
C547 C 0.87581 0.90719 0.29187 0.0
C548 C 0.8652 0.89425 0.29889 0.0
C549 C 0.84918 0.89987 0.31281 0.0
C550 C 0.8509 0.91595 0.31361 0.0
N551 N 0.87631 0.94066 0.25092 0.0
C552 C 0.88083 0.93261 0.18716 0.0
C553 C 0.86551 0.92712 0.20474 0.0
C554 C 0.86331 0.93153 0.23622 0.0
C555 C 0.89265 0.94341 0.20191 0.0
C556 C 0.8904 0.94701 0.23344 0.0
N557 N 0.88058 0.94215 0.34252 0.0
C558 C 0.89152 0.92887 0.3884 0.0
C559 C 0.88672 0.94156 0.40716 0.0
C560 C 0.87876 0.95472 0.39276 0.0
C561 C 0.87566 0.95474 0.36031 0.0
C562 C 0.88838 0.9294 0.35655 0.0
H563 H 0.8695 0.9649 0.34954 0.0
H564 H 0.89259 0.91941 0.34323 0.0
H565 H 0.85168 0.92677 0.24912 0.0
H566 H 0.90091 0.95428 0.24391 0.0
C567 C 0.859 0.97552 0.2839 0.0
C568 C 0.83644 0.92682 0.32504 0.0
C569 C 0.92224 0.95822 0.30391 0.0
C570 C 0.89493 0.90735 0.28388 0.0
H571 H 0.80736 0.95034 0.31882 0.0
H572 H 0.81941 0.97661 0.29311 0.0
H573 H 0.88481 1.00109 0.2821 0.0
H574 H 0.91911 0.99171 0.29649 0.0
H575 H 0.94998 0.93424 0.29219 0.0
H576 H 0.93517 0.90656 0.27853 0.0
H577 H 0.86906 0.88215 0.29586 0.0
H578 H 0.83764 0.89298 0.32151 0.0
H579 H 0.85565 0.91893 0.19495 0.0
H580 H 0.90414 0.94882 0.18963 0.0
H581 H 0.89812 0.9186 0.39814 0.0
H582 H 0.87487 0.96482 0.40641 0.0
C583 C 0.10222 0.38661 0.49131 0.0
C584 C 0.11992 0.38802 0.47846 0.0
C585 C 0.13214 0.3894 0.50297 0.0
C586 C 0.12123 0.38875 0.52928 0.0
N587 N 0.10297 0.38697 0.52277 0.0
Co588 Co 0.0824 0.3857 0.55339 0.0
N589 N 0.09766 0.39632 0.58548 0.0
C590 C 0.11642 0.39767 0.58533 0.0
C591 C 0.12319 0.40555 0.61071 0.0
C592 C 0.10776 0.40923 0.62806 0.0
C593 C 0.09231 0.40333 0.61224 0.0
N594 N 0.06195 0.38416 0.58412 0.0
C595 C 0.0598 0.39152 0.61183 0.0
C596 C 0.04363 0.38649 0.62656 0.0
C597 C 0.03562 0.37548 0.60745 0.0
C598 C 0.04727 0.37438 0.58212 0.0
N599 N 0.06745 0.37545 0.52032 0.0
C600 C 0.05214 0.36666 0.52472 0.0
C601 C 0.04433 0.36189 0.49698 0.0
C602 C 0.05547 0.36813 0.47392 0.0
C603 C 0.06947 0.3764 0.48889 0.0
N604 N 0.09143 0.36503 0.56851 0.0
C605 C 0.09574 0.33465 0.59467 0.0
C606 C 0.09439 0.33697 0.56214 0.0
C607 C 0.09258 0.35219 0.54958 0.0
C608 C 0.09641 0.34817 0.61309 0.0
C609 C 0.09387 0.36292 0.59991 0.0
N610 N 0.07245 0.40606 0.53986 0.0
C611 C 0.04497 0.42185 0.53169 0.0
C612 C 0.05554 0.43556 0.53266 0.0
C613 C 0.07509 0.43409 0.53507 0.0
C614 C 0.08328 0.41922 0.53863 0.0
C615 C 0.05359 0.40738 0.53526 0.0
H616 H 0.09823 0.4184 0.54173 0.0
H617 H 0.0447 0.39729 0.5358 0.0
H618 H 0.0912 0.35345 0.52465 0.0
H619 H 0.09293 0.37252 0.61587 0.0
C620 C 0.12683 0.39335 0.55911 0.0
C621 C 0.08504 0.3845 0.47326 0.0
C622 C 0.07339 0.40249 0.62556 0.0
C623 C 0.04362 0.36619 0.55428 0.0
H624 H 0.12356 0.38823 0.45401 0.0
H625 H 0.14701 0.39161 0.50165 0.0
H626 H 0.13758 0.40855 0.61573 0.0
H627 H 0.10798 0.41514 0.65032 0.0
H628 H 0.03826 0.39029 0.64886 0.0
H629 H 0.02258 0.36937 0.61121 0.0
H630 H 0.0315 0.35541 0.49379 0.0
H631 H 0.05346 0.36689 0.44906 0.0
H632 H 0.094 0.32715 0.54637 0.0
H633 H 0.09838 0.34754 0.63803 0.0
H634 H 0.02992 0.42228 0.52899 0.0
H635 H 0.0839 0.44435 0.53565 0.0
C636 C 0.67111 0.94292 0.53204 0.0
C637 C 0.68649 0.95274 0.53396 0.0
C638 C 0.68045 0.96619 0.54803 0.0
C639 C 0.66177 0.9639 0.55377 0.0
N640 N 0.65577 0.94982 0.54431 0.0
Co641 Co 0.6298 0.942 0.54679 0.0
N642 N 0.61965 0.96344 0.54957 0.0
C643 C 0.62937 0.97624 0.55773 0.0
C644 C 0.61865 0.98951 0.5578 0.0
C645 C 0.60106 0.98472 0.54946 0.0
C646 C 0.60203 0.9687 0.54481 0.0
N647 N 0.60387 0.93416 0.54985 0.0
C648 C 0.58741 0.94185 0.54637 0.0
C649 C 0.57249 0.9319 0.55194 0.0
C650 C 0.58 0.91759 0.5594 0.0
C651 C 0.59906 0.91954 0.55803 0.0
N652 N 0.64038 0.92074 0.54307 0.0
C653 C 0.63183 0.90744 0.55142 0.0
C654 C 0.64238 0.89451 0.5442 0.0
C655 C 0.65846 0.90014 0.53047 0.0
C656 C 0.65681 0.91623 0.52997 0.0
N657 N 0.63131 0.94074 0.59289 0.0
C658 C 0.62674 0.93258 0.65657 0.0
C659 C 0.64208 0.92713 0.63903 0.0
C660 C 0.6443 0.93158 0.60757 0.0
C661 C 0.61488 0.94337 0.64183 0.0
C662 C 0.61717 0.94703 0.61032 0.0
N663 N 0.62741 0.94264 0.5013 0.0
C664 C 0.61703 0.92949 0.45497 0.0
C665 C 0.62232 0.94213 0.43647 0.0
C666 C 0.6301 0.95526 0.45118 0.0
C667 C 0.63267 0.95523 0.48375 0.0
C668 C 0.61963 0.92999 0.48696 0.0
H669 H 0.63879 0.96533 0.49477 0.0
H670 H 0.61515 0.92 0.50009 0.0
H671 H 0.65595 0.92685 0.59469 0.0
H672 H 0.60667 0.95432 0.59984 0.0
C673 C 0.64886 0.97568 0.56059 0.0
C674 C 0.67139 0.9271 0.51892 0.0
C675 C 0.58562 0.95868 0.53983 0.0
C676 C 0.61268 0.90763 0.55924 0.0
H677 H 0.7005 0.95063 0.52555 0.0
H678 H 0.68844 0.97675 0.5516 0.0
H679 H 0.62315 1.00132 0.56253 0.0
H680 H 0.58886 0.99213 0.54771 0.0
H681 H 0.55776 0.93473 0.55091 0.0
H682 H 0.57243 0.90694 0.56425 0.0
H683 H 0.63846 0.8824 0.54695 0.0
H684 H 0.66998 0.89326 0.52171 0.0
H685 H 0.65196 0.91893 0.64884 0.0
H686 H 0.60336 0.94873 0.65409 0.0
H687 H 0.6106 0.91924 0.44484 0.0
H688 H 0.63435 0.96531 0.43767 0.0
C689 C 0.10199 0.12959 0.85113 0.0
C690 C 0.11977 0.12866 0.86395 0.0
C691 C 0.13201 0.12776 0.83942 0.0
C692 C 0.12105 0.12825 0.81313 0.0
N693 N 0.10274 0.12945 0.81968 0.0
Co694 Co 0.08214 0.13058 0.78907 0.0
N695 N 0.09771 0.12063 0.75665 0.0
C696 C 0.11652 0.11979 0.75673 0.0
C697 C 0.12353 0.11227 0.73111 0.0
C698 C 0.10819 0.10831 0.7137 0.0
C699 C 0.09256 0.11369 0.72972 0.0
N700 N 0.06163 0.13192 0.75833 0.0
C701 C 0.05964 0.12464 0.7305 0.0
C702 C 0.04334 0.12945 0.71581 0.0
C703 C 0.03505 0.14021 0.73513 0.0
C704 C 0.04669 0.14141 0.76051 0.0
N705 N 0.06691 0.14029 0.8224 0.0
C706 C 0.05135 0.1488 0.81815 0.0
C707 C 0.04331 0.15311 0.84597 0.0
C708 C 0.05457 0.14687 0.86891 0.0
C709 C 0.06893 0.13911 0.85382 0.0
N710 N 0.09064 0.15149 0.77482 0.0
C711 C 0.09589 0.18208 0.75149 0.0
C712 C 0.09477 0.17922 0.78369 0.0
C713 C 0.09251 0.16382 0.7949 0.0
C714 C 0.09515 0.16926 0.7315 0.0
C715 C 0.09234 0.15424 0.74344 0.0
N716 N 0.07281 0.10993 0.80199 0.0
C717 C 0.04599 0.09361 0.812 0.0
C718 C 0.05707 0.08015 0.81211 0.0
C719 C 0.07647 0.08205 0.80799 0.0
C720 C 0.08408 0.09704 0.80322 0.0
C721 C 0.05403 0.10821 0.80696 0.0
H722 H 0.09895 0.09818 0.79965 0.0
H723 H 0.04477 0.11806 0.80593 0.0
H724 H 0.09156 0.16199 0.81974 0.0
H725 H 0.09066 0.14498 0.72681 0.0
C726 C 0.1268 0.12411 0.78312 0.0
C727 C 0.08476 0.13118 0.86925 0.0
C728 C 0.07355 0.11402 0.71661 0.0
C729 C 0.04282 0.14932 0.78857 0.0
H730 H 0.12345 0.1285 0.88841 0.0
H731 H 0.14698 0.12604 0.8407 0.0
H732 H 0.138 0.10966 0.726 0.0
H733 H 0.10859 0.10252 0.69133 0.0
H734 H 0.03809 0.12567 0.69341 0.0
H735 H 0.02184 0.14609 0.73148 0.0
H736 H 0.03023 0.15923 0.84926 0.0
H737 H 0.05232 0.14778 0.89375 0.0
H738 H 0.0954 0.18881 0.80005 0.0
H739 H 0.09587 0.17091 0.7065 0.0
H740 H 0.03096 0.0929 0.8145 0.0
H741 H 0.0857 0.07205 0.8082 0.0
C742 C 0.83715 0.572 0.03246 0.0
C743 C 0.82207 0.56187 0.03457 0.0
C744 C 0.82858 0.54854 0.0486 0.0
C745 C 0.84722 0.5512 0.05413 0.0
N746 N 0.85276 0.5654 0.04455 0.0
Co747 Co 0.87852 0.57372 0.04658 0.0
N748 N 0.88929 0.5525 0.04938 0.0
C749 C 0.88 0.53954 0.05792 0.0
C750 C 0.89109 0.52648 0.058 0.0
C751 C 0.90847 0.5316 0.04928 0.0
C752 C 0.90702 0.54758 0.04438 0.0
N753 N 0.90426 0.58208 0.04897 0.0
C754 C 0.92089 0.57471 0.045 0.0
C755 C 0.93558 0.58495 0.05011 0.0
C756 C 0.92775 0.59911 0.0578 0.0
C757 C 0.90874 0.59678 0.05701 0.0
N758 N 0.8673 0.59476 0.04323 0.0
C759 C 0.87553 0.6082 0.05157 0.0
C760 C 0.86455 0.62094 0.04468 0.0
C761 C 0.84854 0.61502 0.03118 0.0
C762 C 0.85065 0.59897 0.03047 0.0
N763 N 0.87734 0.57492 0.09265 0.0
C764 C 0.88153 0.58316 0.15612 0.0
C765 C 0.86534 0.58726 0.13929 0.0
C766 C 0.86347 0.58296 0.10768 0.0
C767 C 0.89466 0.57372 0.14098 0.0
C768 C 0.89234 0.56975 0.10964 0.0
N769 N 0.88057 0.57313 1.00104 0.0
C770 C 0.89052 0.58642 0.9546 0.0
C771 C 0.88601 0.57351 0.93624 0.0
C772 C 0.87867 0.56024 0.95113 0.0
C773 C 0.87592 0.56033 0.98366 0.0
C774 C 0.88773 0.58599 0.98654 0.0
H775 H 0.87024 0.55008 0.9948 0.0
H776 H 0.89173 0.59615 0.99954 0.0
H777 H 0.85129 0.58686 0.09498 0.0
H778 H 0.90343 0.56327 0.09879 0.0
C779 C 0.8605 0.53971 0.06095 0.0
C780 C 0.83634 0.58785 0.01947 0.0
C781 C 0.92308 0.55789 0.03872 0.0
C782 C 0.89478 0.60839 0.05879 0.0
H783 H 0.80795 0.5637 0.02635 0.0
H784 H 0.82091 0.53782 0.05232 0.0
H785 H 0.88695 0.5146 0.06295 0.0
H786 H 0.92086 0.52442 0.04738 0.0
H787 H 0.95037 0.58242 0.04872 0.0
H788 H 0.93507 0.6099 0.06247 0.0
H789 H 0.86815 0.63311 0.04744 0.0
H790 H 0.83676 0.6217 0.02266 0.0
H791 H 0.85461 0.5944 0.14991 0.0
H792 H 0.9071 0.56973 0.15299 0.0
H793 H 0.89666 0.59679 0.94448 0.0
H794 H 0.87501 0.54997 0.93781 0.0
C795 C 0.40614 0.38568 0.35022 0.0
C796 C 0.38832 0.38695 0.36266 0.0
C797 C 0.37626 0.388 0.33785 0.0
C798 C 0.38737 0.38729 0.31179 0.0
N799 N 0.4056 0.38581 0.31874 0.0
Co800 Co 0.42643 0.3846 0.28857 0.0
N801 N 0.41121 0.39474 0.25581 0.0
C802 C 0.39241 0.39571 0.25544 0.0
C803 C 0.38566 0.40324 0.22959 0.0
C804 C 0.40115 0.40708 0.21251 0.0
C805 C 0.41661 0.40163 0.22896 0.0
N806 N 0.44718 0.3832 0.25836 0.0
C807 C 0.44947 0.39056 0.23065 0.0
C808 C 0.46589 0.38572 0.21644 0.0
C809 C 0.47392 0.37486 0.2359 0.0
C810 C 0.46203 0.37364 0.2609 0.0
N811 N 0.44128 0.37468 0.32218 0.0
C812 C 0.45674 0.36602 0.31827 0.0
C813 C 0.4644 0.36143 0.34627 0.0
C814 C 0.45299 0.36766 0.36896 0.0
C815 C 0.43899 0.37573 0.35354 0.0
N816 N 0.41783 0.36378 0.2739 0.0
C817 C 0.41196 0.33333 0.24987 0.0
C818 C 0.41286 0.33608 0.28219 0.0
C819 C 0.41547 0.35138 0.29372 0.0
C820 C 0.41341 0.34628 0.23018 0.0
C821 C 0.41647 0.36117 0.24245 0.0
N822 N 0.43584 0.40515 0.30186 0.0
C823 C 0.46271 0.42134 0.31238 0.0
C824 C 0.45174 0.43487 0.31201 0.0
C825 C 0.43235 0.43306 0.30751 0.0
C826 C 0.42467 0.41811 0.30273 0.0
C827 C 0.45459 0.40678 0.30733 0.0
H828 H 0.40981 0.41706 0.29882 0.0
H829 H 0.46376 0.39686 0.30663 0.0
H830 H 0.41621 0.3531 0.31861 0.0
H831 H 0.41858 0.37046 0.22601 0.0
C832 C 0.3819 0.3915 0.28164 0.0
C833 C 0.42322 0.38378 0.36869 0.0
C834 C 0.43573 0.40123 0.21636 0.0
C835 C 0.46555 0.36556 0.28895 0.0
H836 H 0.38449 0.38726 0.38703 0.0
H837 H 0.36133 0.38999 0.3388 0.0
H838 H 0.37125 0.40594 0.22412 0.0
H839 H 0.40098 0.41283 0.19007 0.0
H840 H 0.4714 0.38955 0.19424 0.0
H841 H 0.48712 0.36892 0.23258 0.0
H842 H 0.47731 0.3551 0.34986 0.0
H843 H 0.45485 0.36654 0.39388 0.0
H844 H 0.41162 0.32648 0.29845 0.0
H845 H 0.41302 0.34485 0.20512 0.0
H846 H 0.47773 0.42198 0.31522 0.0
H847 H 0.4232 0.44311 0.3074 0.0
C848 C 0.30279 0.0964 0.51324 0.0
C849 C 0.32031 0.09333 0.49978 0.0
C850 C 0.28672 0.09803 0.49459 0.0
C851 C 0.26996 0.10483 0.41301 0.0
H852 H 0.22573 0.08289 0.441 0.0
C853 C 0.20615 0.09409 0.33086 0.0
C854 C 0.18822 0.09223 0.34368 0.0
C855 C 0.22192 0.09596 0.35011 0.0
C856 C 0.23774 0.08938 0.43287 0.0
H857 H 0.3348 0.08997 0.45617 0.0
H858 H 0.30691 0.09317 0.42343 0.0
H859 H 0.25353 0.0833 0.47364 0.0
H860 H 0.17265 0.09164 0.38673 0.0
H861 H 0.19988 0.09558 0.42042 0.0
H862 H 0.2542 0.11105 0.37235 0.0
C863 C 0.30549 0.09436 0.44842 0.0
C864 C 0.25384 0.08956 0.45174 0.0
C865 C 0.32153 0.09257 0.46715 0.0
C866 C 0.1863 0.09307 0.37618 0.0
C867 C 0.20204 0.09509 0.3955 0.0
C868 C 0.25379 0.1048 0.39424 0.0
C869 C 0.28773 0.09675 0.46186 0.0
C870 C 0.27028 0.09719 0.44206 0.0
C871 C 0.22025 0.0962 0.38289 0.0
C872 C 0.23738 0.09695 0.40367 0.0
H873 H 0.3014 0.09687 0.53835 0.0
H874 H 0.27342 0.10006 0.50589 0.0
H875 H 0.28221 0.11101 0.40481 0.0
H876 H 0.20807 0.09341 0.30587 0.0
H877 H 0.23551 0.09657 0.33914 0.0
C878 C 0.89665 0.81464 0.71094 0.0
C879 C 0.90878 0.81751 0.73617 0.0
C880 C 0.89624 0.80003 0.69604 0.0
C881 C 0.92526 0.76511 0.68029 0.0
H882 H 0.8784 0.74573 0.65665 0.0
C883 C 0.92128 0.71095 0.59717 0.0
C884 C 0.90955 0.69866 0.60676 0.0
C885 C 0.92096 0.72548 0.61255 0.0
C886 C 0.89164 0.75095 0.66306 0.0
H887 H 0.93 0.807 0.76541 0.0
H888 H 0.9295 0.78157 0.73915 0.0
H889 H 0.87822 0.77043 0.6852 0.0
H890 H 0.88784 0.69239 0.63958 0.0
H891 H 0.88692 0.71771 0.66568 0.0
H892 H 0.93868 0.7457 0.65781 0.0
C893 C 0.92019 0.79066 0.73099 0.0
C894 C 0.89154 0.7652 0.67934 0.0
C895 C 0.92034 0.80521 0.7463 0.0
C896 C 0.8971 0.70153 0.63152 0.0
C897 C 0.89653 0.71611 0.64647 0.0
C898 C 0.92537 0.75099 0.6635 0.0
C899 C 0.9082 0.78786 0.70548 0.0
C900 C 0.90834 0.77249 0.68836 0.0
C901 C 0.90863 0.72827 0.63758 0.0
C902 C 0.90856 0.74363 0.65472 0.0
H903 H 0.88754 0.82379 0.70244 0.0
H904 H 0.88689 0.79843 0.67645 0.0
H905 H 0.93849 0.77039 0.68652 0.0
H906 H 0.93118 0.70916 0.57844 0.0
H907 H 0.93039 0.73456 0.60481 0.0
C908 C 0.30261 0.41909 0.82955 0.0
C909 C 0.32017 0.42199 0.84311 0.0
C910 C 0.28655 0.41742 0.84815 0.0
C911 C 0.26979 0.41015 0.92949 0.0
H912 H 0.22571 0.43253 0.902 0.0
C913 C 0.20603 0.42065 1.01172 0.0
C914 C 0.18813 0.42274 0.99887 0.0
C915 C 0.22179 0.4188 0.99248 0.0
C916 C 0.23767 0.42592 0.90998 0.0
H917 H 0.33472 0.42499 0.88681 0.0
H918 H 0.30683 0.42171 0.91945 0.0
H919 H 0.25349 0.43221 0.86943 0.0
H920 H 0.17259 0.42379 0.95577 0.0
H921 H 0.19978 0.41986 0.92209 0.0
H922 H 0.25399 0.40372 0.96991 0.0
C923 C 0.30539 0.4207 0.89442 0.0
C924 C 0.25376 0.42579 0.89116 0.0
C925 C 0.32142 0.42253 0.87576 0.0
C926 C 0.18621 0.42215 0.96634 0.0
C927 C 0.20194 0.42015 0.94704 0.0
C928 C 0.25362 0.41014 0.9482 0.0
C929 C 0.28759 0.41848 0.8809 0.0
C930 C 0.27016 0.41801 0.90066 0.0
C931 C 0.22013 0.41882 0.95969 0.0
C932 C 0.23726 0.41813 0.93896 0.0
H933 H 0.30121 0.41876 0.80444 0.0
H934 H 0.27323 0.41552 0.83678 0.0
H935 H 0.282 0.40386 0.93754 0.0
H936 H 0.20795 0.42117 0.03673 0.0
H937 H 0.23537 0.41801 1.00349 0.0
C938 C 0.58707 0.80492 0.09761 0.0
C939 C 0.59862 0.81725 0.1076 0.0
C940 C 0.58736 0.79036 0.11291 0.0
C941 C 0.61641 0.76489 0.16401 0.0
H942 H 0.56949 0.74523 0.18622 0.0
C943 C 0.61135 0.70106 0.21139 0.0
C944 C 0.59908 0.69812 0.23639 0.0
C945 C 0.61179 0.71569 0.19656 0.0
C946 C 0.58274 0.75057 0.18033 0.0
H947 H 0.61999 0.82356 0.14108 0.0
H948 H 0.62087 0.79817 0.16705 0.0
H949 H 0.56939 0.76998 0.15765 0.0
H950 H 0.57766 0.70852 0.26524 0.0
H951 H 0.57821 0.734 0.23907 0.0
H952 H 0.62977 0.7454 0.18633 0.0
C953 C 0.61142 0.79977 0.14758 0.0
C954 C 0.58268 0.76472 0.16364 0.0
C955 C 0.61087 0.81439 0.13271 0.0
C956 C 0.58741 0.71037 0.24632 0.0
C957 C 0.5876 0.72495 0.23107 0.0
C958 C 0.61647 0.7506 0.18019 0.0
C959 C 0.59948 0.78757 0.13827 0.0
C960 C 0.59952 0.77217 0.15532 0.0
C961 C 0.59973 0.72782 0.2058 0.0
C962 C 0.59964 0.74322 0.18877 0.0
H963 H 0.57734 0.80671 0.07861 0.0
H964 H 0.57807 0.78125 0.10485 0.0
H965 H 0.62967 0.77018 0.15796 0.0
H966 H 0.62055 0.69195 0.20305 0.0
H967 H 0.62125 0.71736 0.17716 0.0
C968 C 0.70477 0.59668 0.83131 0.0
C969 C 0.68737 0.59321 0.84484 0.0
C970 C 0.72086 0.59842 0.84986 0.0
C971 C 0.7378 0.60486 0.93141 0.0
H972 H 0.78229 0.58359 0.90252 0.0
C973 C 0.80208 0.59438 0.01273 0.0
C974 C 0.81998 0.59269 0.9997 0.0
C975 C 0.78622 0.59621 0.99366 0.0
C976 C 0.7702 0.5899 0.9109 0.0
H977 H 0.67312 0.58927 0.88848 0.0
H978 H 0.70104 0.5927 0.92106 0.0
H979 H 0.75438 0.5839 0.87015 0.0
H980 H 0.83539 0.5924 0.95648 0.0
H981 H 0.80801 0.59631 0.92313 0.0
H982 H 0.75359 0.61101 0.97203 0.0
C983 C 0.70234 0.5941 0.89609 0.0
C984 C 0.75404 0.59002 0.89219 0.0
C985 C 0.68628 0.59219 0.87746 0.0
C986 C 0.82178 0.5937 0.96719 0.0
C987 C 0.80594 0.5957 0.94807 0.0
C988 C 0.75403 0.6049 0.95001 0.0
C989 C 0.72 0.59687 0.88255 0.0
C990 C 0.7375 0.59739 0.90219 0.0
C991 C 0.78777 0.5966 0.96087 0.0
C992 C 0.77055 0.5973 0.94027 0.0
H993 H 0.70606 0.59735 0.80621 0.0
H994 H 0.73408 0.60075 0.8385 0.0
H995 H 0.72547 0.61084 0.93985 0.0
H996 H 0.80026 0.59356 0.03772 0.0
H997 H 0.77267 0.59667 1.00478 0.0
C998 C 0.42193 0.30492 0.24582 0.0
C999 C 0.41024 0.31722 0.2361 0.0
C1000 C 0.42166 0.29039 0.23042 0.0
C1001 C 0.39254 0.26501 0.17921 0.0
H1002 H 0.43948 0.24537 0.157 0.0
C1003 C 0.39745 0.20136 0.13111 0.0
C1004 C 0.4099 0.19839 0.10638 0.0
C1005 C 0.39702 0.21596 0.14604 0.0
C1006 C 0.42623 0.2507 0.16287 0.0
H1007 H 0.38863 0.3235 0.203 0.0
H1008 H 0.38782 0.2982 0.17684 0.0
H1009 H 0.43956 0.27005 0.18575 0.0
H1010 H 0.43164 0.20873 0.07807 0.0
H1011 H 0.43107 0.23415 0.10436 0.0
H1012 H 0.3792 0.24561 0.15664 0.0
C1013 C 0.39736 0.29978 0.19618 0.0
C1014 C 0.42627 0.26482 0.17969 0.0
C1015 C 0.39787 0.31436 0.21117 0.0
C1016 C 0.42174 0.2106 0.09677 0.0
C1017 C 0.42155 0.22514 0.11211 0.0
C1018 C 0.3925 0.25077 0.16288 0.0
C1019 C 0.40944 0.28761 0.20521 0.0
C1020 C 0.40942 0.27225 0.18803 0.0
C1021 C 0.40926 0.22803 0.13714 0.0
C1022 C 0.40934 0.2434 0.1543 0.0
H1023 H 0.43176 0.3067 0.26468 0.0
H1024 H 0.43107 0.28131 0.23829 0.0
H1025 H 0.37928 0.27027 0.18527 0.0
H1026 H 0.38811 0.19229 0.13919 0.0
H1027 H 0.38743 0.21763 0.16524 0.0
C1028 C 0.8027 0.91865 0.33085 0.0
C1029 C 0.82015 0.92173 0.3446 0.0
C1030 C 0.78657 0.91687 0.34926 0.0
C1031 C 0.76947 0.90954 0.43033 0.0
H1032 H 0.72546 0.9319 0.40248 0.0
C1033 C 0.70537 0.91978 0.51197 0.0
C1034 C 0.68753 0.92204 0.49897 0.0
C1035 C 0.72119 0.91793 0.49286 0.0
C1036 C 0.7374 0.92528 0.41055 0.0
H1037 H 0.83447 0.92489 0.38847 0.0
H1038 H 0.80648 0.92139 0.42078 0.0
H1039 H 0.75337 0.93165 0.37022 0.0
H1040 H 0.67217 0.92337 0.45573 0.0
H1041 H 0.69945 0.9194 0.42227 0.0
H1042 H 0.75352 0.90301 0.47051 0.0
C1043 C 0.80517 0.92034 0.39574 0.0
C1044 C 0.75357 0.9252 0.39191 0.0
C1045 C 0.82126 0.9223 0.37726 0.0
C1046 C 0.68574 0.92159 0.46642 0.0
C1047 C 0.70152 0.91957 0.44724 0.0
C1048 C 0.75322 0.90946 0.44885 0.0
C1049 C 0.78746 0.91798 0.38201 0.0
C1050 C 0.76994 0.91743 0.40155 0.0
C1051 C 0.71966 0.9181 0.46005 0.0
C1052 C 0.73687 0.91745 0.43948 0.0
H1053 H 0.80139 0.91832 0.30572 0.0
H1054 H 0.77332 0.91487 0.33774 0.0
H1055 H 0.78167 0.90326 0.43848 0.0
H1056 H 0.7072 0.9202 0.537 0.0
H1057 H 0.73471 0.91704 0.50401 0.0
C1058 C 0.10194 0.30507 0.59422 0.0
C1059 C 0.09578 0.3186 0.60988 0.0
C1060 C 0.10187 0.29033 0.609 0.0
C1061 C 0.08387 0.26974 0.68204 0.0
H1062 H 0.11767 0.23726 0.6551 0.0
C1063 C 0.08098 0.20799 0.73902 0.0
C1064 C 0.09672 0.19823 0.73815 0.0
C1065 C 0.08087 0.22242 0.72331 0.0
C1066 C 0.10829 0.24618 0.66357 0.0
H1067 H 0.08392 0.32636 0.65393 0.0
H1068 H 0.08543 0.30168 0.6798 0.0
H1069 H 0.11792 0.26223 0.6289 0.0
H1070 H 0.12483 0.19607 0.72037 0.0
H1071 H 0.12532 0.22151 0.69493 0.0
H1072 H 0.07513 0.2542 0.71801 0.0
C1073 C 0.08982 0.30209 0.65573 0.0
C1074 C 0.10817 0.26063 0.64784 0.0
C1075 C 0.08945 0.31665 0.64081 0.0
C1076 C 0.11252 0.20339 0.72167 0.0
C1077 C 0.11262 0.21799 0.70659 0.0
C1078 C 0.08433 0.25547 0.69821 0.0
C1079 C 0.0959 0.28852 0.64022 0.0
C1080 C 0.09595 0.27278 0.6567 0.0
C1081 C 0.09669 0.22778 0.70664 0.0
C1082 C 0.09648 0.24329 0.68934 0.0
H1083 H 0.10702 0.30578 0.57055 0.0
H1084 H 0.1064 0.28035 0.59559 0.0
H1085 H 0.0738 0.27832 0.6896 0.0
H1086 H 0.06844 0.2042 0.75095 0.0
H1087 H 0.06806 0.22909 0.7237 0.0
C1088 C 0.06007 0.04374 0.33481 0.0
C1089 C 0.06661 0.04981 0.30647 0.0
C1090 C 0.04419 0.03413 0.33558 0.0
C1091 C 0.01829 1.00656 0.28609 0.0
H1092 H 0.97895 0.01018 0.34759 0.0
C1093 C 0.95047 0.96976 0.27822 0.0
C1094 C 0.94097 0.96581 0.30568 0.0
C1095 C 0.96624 0.97944 0.27915 0.0
C1096 C 0.98995 0.00876 0.33054 0.0
H1097 H 0.06177 0.05072 0.25679 0.0
H1098 H 0.03403 0.03394 0.25798 0.0
H1099 H 0.00478 0.02875 0.34779 0.0
H1100 H 0.94055 0.9686 0.35566 0.0
H1101 H 0.96863 0.98489 0.35774 0.0
H1102 H 1.00392 0.9864 0.26922 0.0
C1103 C 0.04105 0.03664 0.27968 0.0
C1104 C 0.00473 0.01953 0.33058 0.0
C1105 C 0.05676 0.0464 0.27899 0.0
C1106 C 0.94784 0.97132 0.33423 0.0
C1107 C 0.96376 0.98087 0.33526 0.0
C1108 C 1.00368 0.99567 0.28629 0.0
C1109 C 0.03476 0.03013 0.3079 0.0
C1110 C 0.01901 0.01866 0.30817 0.0
C1111 C 0.97302 0.98538 0.30766 0.0
C1112 C 0.98915 0.99664 0.30836 0.0
H1113 H 0.06769 0.04594 0.35618 0.0
H1114 H 0.03982 0.02924 0.35767 0.0
H1115 H 0.02924 1.00535 0.26885 0.0
H1116 H 0.94514 0.96594 0.25586 0.0
H1117 H 0.97261 0.98278 0.25729 0.0
C1118 C 0.95438 0.55265 0.54618 0.0
C1119 C 0.9598 0.56527 0.52726 0.0
C1120 C 0.96445 0.53857 0.54584 0.0
C1121 C 1.00026 0.51595 0.50049 0.0
H1122 H 0.00799 0.49493 0.57938 0.0
C1123 C 0.05206 0.46365 0.51454 0.0
C1124 C 0.04578 0.45104 0.53273 0.0
C1125 C 0.04195 0.47774 0.51362 0.0
C1126 C 0.00587 0.50054 0.55706 0.0
H1127 H 0.97963 0.57246 0.49187 0.0
H1128 H 0.99727 0.54824 0.49174 0.0
H1129 H 0.98899 0.51847 0.5774 0.0
H1130 H 0.02431 0.44374 0.56524 0.0
H1131 H 0.00681 0.46802 0.56351 0.0
H1132 H 0.01731 0.49802 0.48027 0.0
C1133 C 0.9852 0.5491 0.50682 0.0
C1134 C 0.99485 0.51408 0.55588 0.0
C1135 C 0.97514 0.56314 0.50713 0.0
C1136 C 0.02946 0.45308 0.5506 0.0
C1137 C 0.01948 0.46712 0.54986 0.0
C1138 C 0.01135 0.50243 0.50169 0.0
C1139 C 0.98023 0.53665 0.52653 0.0
C1140 C 0.99179 0.52199 0.52757 0.0
C1141 C 0.02545 0.47965 0.5312 0.0
C1142 C 0.01426 0.49447 0.52998 0.0
H1143 H 0.94275 0.55382 0.56213 0.0
H1144 H 0.95991 0.52921 0.56098 0.0
H1145 H 0.9981 0.52152 0.47814 0.0
H1146 H 0.06453 0.4625 0.50046 0.0
H1147 H 0.04711 0.48717 0.49923 0.0
C1148 C 0.4515 0.46786 0.77686 0.0
C1149 C 0.44165 0.46438 0.80426 0.0
C1150 C 0.4672 0.47764 0.77769 0.0
C1151 C 0.50343 0.4947 0.82896 0.0
H1152 H 0.50422 0.52797 0.76781 0.0
C1153 C 0.5601 0.54307 0.8334 0.0
C1154 C 0.567 0.54866 0.80494 0.0
C1155 C 0.54422 0.53346 0.83423 0.0
C1156 C 0.50447 0.51866 0.78483 0.0
H1157 H 0.44052 0.46812 0.85398 0.0
H1158 H 0.46837 0.48485 0.85574 0.0
H1159 H 0.47896 0.50896 0.76713 0.0
H1160 H 0.56294 0.54861 0.75508 0.0
H1161 H 0.53555 0.53168 0.75617 0.0
H1162 H 0.52915 0.50407 0.84624 0.0
C1163 C 0.46402 0.48 0.8336 0.0
C1164 C 0.48989 0.50773 0.78444 0.0
C1165 C 0.44815 0.47038 0.83268 0.0
C1166 C 0.55758 0.54473 0.77737 0.0
C1167 C 0.54186 0.53499 0.77811 0.0
C1168 C 0.51817 0.5055 0.82911 0.0
C1169 C 0.47346 0.48408 0.806 0.0
C1170 C 0.48918 0.49559 0.80644 0.0
C1171 C 0.53505 0.52898 0.80652 0.0
C1172 C 0.51896 0.51767 0.80701 0.0
H1173 H 0.44651 0.46361 0.7546 0.0
H1174 H 0.47423 0.48041 0.75606 0.0
H1175 H 0.50338 0.48543 0.84612 0.0
H1176 H 0.56733 0.54577 0.85491 0.0
H1177 H 0.53932 0.52938 0.85664 0.0
C1178 C 0.53187 0.95262 1.0088 0.0
C1179 C 0.54731 0.95042 0.02877 0.0
C1180 C 0.5218 0.96666 1.00873 0.0
C1181 C 0.51254 1.0017 0.05801 0.0
H1182 H 0.48979 0.01791 0.98265 0.0
C1183 C 0.47868 0.06302 0.05279 0.0
C1184 C 0.46223 0.06516 0.03524 0.0
C1185 C 0.48848 0.04888 0.05202 0.0
C1186 C 0.49583 0.01346 1.00401 0.0
H1187 H 0.56445 0.96176 0.06369 0.0
H1188 H 0.5473 0.98636 0.06291 0.0
H1189 H 0.50874 0.99428 0.98034 0.0
H1190 H 0.44308 0.05381 1.00345 0.0
H1191 H 0.46019 0.02899 1.00211 0.0
H1192 H 0.49978 0.02096 0.0816 0.0
C1193 C 0.54269 0.97705 0.04772 0.0
C1194 C 0.50677 0.99986 1.00271 0.0
C1195 C 0.55276 0.96297 0.04783 0.0
C1196 C 0.45565 0.05258 0.0173 0.0
C1197 C 0.46558 0.0384 0.01632 0.0
C1198 C 0.50169 0.01532 0.05928 0.0
C1199 C 0.52684 0.97905 0.02852 0.0
C1200 C 0.51536 0.99375 0.02969 0.0
C1201 C 0.48221 0.03637 0.03359 0.0
C1202 C 0.4932 0.02146 0.03229 0.0
H1203 H 0.52734 0.94337 0.9934 0.0
H1204 H 0.50967 0.96758 0.99373 0.0
H1205 H 0.51849 0.99728 0.07947 0.0
H1206 H 0.48407 0.07234 0.06723 0.0
H1207 H 0.50125 0.0479 0.06543 0.0
C1208 C 0.06036 0.47166 1.00927 0.0
C1209 C 0.06705 0.46591 0.03781 0.0
C1210 C 0.04457 0.48139 1.00828 0.0
C1211 C 0.01936 0.50981 0.05672 0.0
H1212 H 0.97941 0.5056 0.99633 0.0
C1213 C 0.95181 0.54704 0.06418 0.0
C1214 C 0.94196 0.55055 0.03678 0.0
C1215 C 0.9676 0.53735 0.06336 0.0
C1216 C 0.99059 0.5072 0.01304 0.0
H1217 H 0.06257 0.46567 0.08759 0.0
H1218 H 0.035 0.48266 0.08601 0.0
H1219 H 0.00508 0.48687 0.99659 0.0
H1220 H 0.94096 0.54699 0.98702 0.0
H1221 H 0.96907 0.53074 0.98508 0.0
H1222 H 0.00532 0.53031 0.07278 0.0
C1223 C 0.04184 0.47962 0.06435 0.0
C1224 C 0.00528 0.49633 0.01328 0.0
C1225 C 0.05744 0.46974 0.06526 0.0
C1226 C 0.94853 0.54464 1.00838 0.0
C1227 C 0.96447 0.53509 1.00745 0.0
C1228 C 0.00484 0.5208 0.05623 0.0
C1229 C 0.03539 0.48581 0.03591 0.0
C1230 C 0.01976 0.49741 0.03532 0.0
C1231 C 0.97403 0.53097 0.03503 0.0
C1232 C 0.99009 0.51963 0.03456 0.0
H1233 H 0.0678 0.46913 0.9879 0.0
H1234 H 0.04008 0.48603 0.98603 0.0
H1235 H 0.03048 0.51118 0.07365 0.0
H1236 H 0.94671 0.55115 0.08646 0.0
H1237 H 0.97421 0.53434 0.08523 0.0
C1238 C 0.45517 0.46324 0.29622 0.0
C1239 C 0.46091 0.45058 0.31481 0.0
C1240 C 0.46515 0.47737 0.29642 0.0
C1241 C 0.50148 0.49994 0.34095 0.0
H1242 H 0.50754 0.52164 0.26241 0.0
C1243 C 0.55267 0.55255 0.32591 0.0
C1244 C 0.54595 0.56531 0.30856 0.0
C1245 C 0.54264 0.53842 0.3269 0.0
C1246 C 0.50589 0.51583 0.28464 0.0
H1247 H 0.48126 0.44337 0.34946 0.0
H1248 H 0.49876 0.46765 0.34925 0.0
H1249 H 0.48885 0.49795 0.26452 0.0
H1250 H 0.52373 0.57285 0.27762 0.0
H1251 H 0.50639 0.54849 0.27944 0.0
H1252 H 0.51872 0.51782 0.36092 0.0
C1253 C 0.48649 0.46679 0.33457 0.0
C1254 C 0.49505 0.50221 0.2859 0.0
C1255 C 0.47652 0.45271 0.33442 0.0
C1256 C 0.52924 0.56339 0.29161 0.0
C1257 C 0.51935 0.54931 0.29239 0.0
C1258 C 0.51241 0.51354 0.33965 0.0
C1259 C 0.48118 0.4793 0.31523 0.0
C1260 C 0.49258 0.49404 0.31409 0.0
C1261 C 0.52578 0.53662 0.31021 0.0
C1262 C 0.51472 0.52174 0.3115 0.0
H1263 H 0.44334 0.46209 0.28066 0.0
H1264 H 0.46033 0.48677 0.2816 0.0
H1265 H 0.49978 0.4942 0.36323 0.0
H1266 H 0.56545 0.5536 0.33929 0.0
H1267 H 0.54816 0.52888 0.34064 0.0
C1268 C 0.44823 0.04491 0.5106 0.0
C1269 C 0.44172 0.05085 0.53904 0.0
C1270 C 0.46408 0.03525 0.50965 0.0
C1271 C 0.48983 1.00733 0.55865 0.0
H1272 H 0.52916 0.01108 0.49715 0.0
C1273 C 0.55744 0.97018 0.56575 0.0
C1274 C 0.56691 0.96633 0.53821 0.0
C1275 C 0.54172 0.97993 0.56501 0.0
C1276 C 0.51816 0.00962 0.51419 0.0
H1277 H 0.44656 0.05149 0.58873 0.0
H1278 H 0.47424 0.03463 0.58724 0.0
H1279 H 0.50345 0.02977 0.49732 0.0
H1280 H 0.56732 0.96939 0.48828 0.0
H1281 H 0.53932 0.98579 0.48653 0.0
H1282 H 0.50409 0.98701 0.57513 0.0
C1283 C 0.46723 0.03747 0.5656 0.0
C1284 C 0.50345 0.02046 0.51437 0.0
C1285 C 0.45156 0.04728 0.56646 0.0
C1286 C 0.56006 0.97202 0.50977 0.0
C1287 C 0.54418 0.98164 0.50893 0.0
C1288 C 0.50438 0.99637 0.55822 0.0
C1289 C 0.47349 0.03108 0.53726 0.0
C1290 C 0.48918 0.01954 0.53678 0.0
C1291 C 0.53496 0.98604 0.53663 0.0
C1292 C 0.5189 0.99738 0.53615 0.0
H1293 H 0.44061 0.04723 0.48927 0.0
H1294 H 0.46842 0.03045 0.48749 0.0
H1295 H 0.47888 1.00608 0.57588 0.0
H1296 H 0.56277 0.96622 0.58804 0.0
H1297 H 0.53538 0.98317 0.58695 0.0
C1298 C 0.05377 0.05174 0.79663 0.0
C1299 C 0.04798 0.06442 0.81504 0.0
C1300 C 0.04379 0.03761 0.79685 0.0
C1301 C 0.00726 0.01515 0.84111 0.0
H1302 H 1.00125 0.99345 0.76262 0.0
C1303 C 0.95565 0.96288 0.82574 0.0
C1304 C 0.96232 0.95006 0.8086 0.0
C1305 C 0.9658 0.97694 0.82675 0.0
C1306 C 1.00289 0.99926 0.78484 0.0
H1307 H 0.02756 0.07168 0.84943 0.0
H1308 H 0.01005 0.04742 0.84925 0.0
H1309 H 0.02011 0.01705 0.76482 0.0
H1310 H 0.98459 0.94232 0.77804 0.0
H1311 H 1.00214 0.96658 0.77987 0.0
H1312 H 0.98983 0.99737 0.86098 0.0
C1313 C 0.02236 0.04825 0.8347 0.0
C1314 C 0.01383 0.01283 0.78614 0.0
C1315 C 0.03234 0.06232 0.83453 0.0
C1316 C 0.97911 0.95184 0.79186 0.0
C1317 C 0.98912 0.96586 0.79265 0.0
C1318 C 0.99623 1.00161 0.83976 0.0
C1319 C 0.02771 0.03572 0.8155 0.0
C1320 C 0.01626 0.021 0.81432 0.0
C1321 C 0.98274 0.97861 0.81028 0.0
C1322 C 0.99393 0.99342 0.81162 0.0
H1323 H 0.06564 0.05288 0.78118 0.0
H1324 H 0.04864 0.0282 0.78214 0.0
H1325 H 0.00894 0.02089 0.86338 0.0
H1326 H 0.94281 0.96193 0.83895 0.0
H1327 H 0.96032 0.98654 0.84034 0.0
C1328 C 0.07038 0.09256 0.67743 0.0
C1329 C 0.07152 0.10858 0.68392 0.0
C1330 C 0.07428 0.08698 0.64742 0.0
C1331 C 0.10565 0.09598 0.58507 0.0
H1332 H 0.07612 0.06978 0.53041 0.0
C1333 C 0.12587 0.08721 0.45731 0.0
C1334 C 0.12084 0.07354 0.44136 0.0
C1335 C 0.12038 0.0896 0.48809 0.0
C1336 C 0.08474 0.07682 0.54563 0.0
H1337 H 0.07686 0.13137 0.66432 0.0
H1338 H 0.08379 0.12166 0.61197 0.0
H1339 H 0.06341 0.07783 0.58092 0.0
H1340 H 0.10702 0.05121 0.44588 0.0
H1341 H 0.09793 0.0551 0.50043 0.0
H1342 H 0.12719 0.09476 0.55084 0.0
C1343 C 0.07968 0.11344 0.62987 0.0
C1344 C 0.07735 0.08153 0.57442 0.0
C1345 C 0.0755 0.11901 0.65963 0.0
C1346 C 0.11116 0.06184 0.45762 0.0
C1347 C 0.10572 0.06419 0.48872 0.0
C1348 C 0.11316 0.09107 0.55672 0.0
C1349 C 0.07974 0.09734 0.62376 0.0
C1350 C 0.08759 0.09147 0.59401 0.0
C1351 C 0.10989 0.07829 0.50415 0.0
C1352 C 0.10266 0.08176 0.53613 0.0
H1353 H 0.06776 0.0843 0.69604 0.0
H1354 H 0.07434 0.07452 0.64331 0.0
H1355 H 0.114 0.10337 0.6001 0.0
H1356 H 0.13347 0.0964 0.44551 0.0
H1357 H 0.1237 0.1007 0.49872 0.0
C1358 C 0.93494 0.61904 0.68356 0.0
C1359 C 0.93753 0.60869 0.65868 0.0
C1360 C 0.93212 0.61341 0.71376 0.0
C1361 C 0.91535 0.57779 0.75467 0.0
H1362 H 0.92707 0.60253 0.82763 0.0
C1363 C 0.89913 0.56219 0.88642 0.0
C1364 C 0.88975 0.57429 0.9021 0.0
C1365 C 0.90576 0.56444 0.85591 0.0
C1366 C 0.92376 0.59547 0.80744 0.0
H1367 H 0.93989 0.58444 0.64572 0.0
H1368 H 0.93591 0.57448 0.69882 0.0
H1369 H 0.93975 0.61005 0.77718 0.0
H1370 H 0.87852 0.59766 0.89694 0.0
H1371 H 0.89043 0.60163 0.84443 0.0
H1372 H 0.89951 0.56312 0.7856 0.0
C1373 C 0.93563 0.58696 0.69506 0.0
C1374 C 0.93092 0.59982 0.77843 0.0
C1375 C 0.93827 0.59263 0.66473 0.0
C1376 C 0.88606 0.58822 0.88586 0.0
C1377 C 0.89288 0.59053 0.85578 0.0
C1378 C 0.90845 0.57327 0.78392 0.0
C1379 C 0.93191 0.59725 0.71988 0.0
C1380 C 0.9264 0.59133 0.7514 0.0
C1381 C 0.90325 0.57886 0.84083 0.0
C1382 C 0.91219 0.58233 0.8104 0.0
H1383 H 0.93379 0.63146 0.67926 0.0
H1384 H 0.92898 0.62177 0.73189 0.0
H1385 H 0.91132 0.57101 0.7345 0.0
H1386 H 0.90226 0.55135 0.8983 0.0
H1387 H 0.91366 0.55523 0.84475 0.0
C1388 C 0.43547 0.39634 0.15917 0.0
C1389 C 0.43818 0.40681 0.18381 0.0
C1390 C 0.43263 0.40182 0.12886 0.0
C1391 C 0.416 0.43727 0.08716 0.0
H1392 H 0.42768 0.41215 0.01474 0.0
C1393 C 0.39957 0.45253 0.95541 0.0
C1394 C 0.39045 0.44034 0.93958 0.0
C1395 C 0.4062 0.45032 0.98596 0.0
C1396 C 0.42437 0.41931 0.03477 0.0
H1397 H 0.44072 0.43113 0.19624 0.0
H1398 H 0.43667 0.44081 0.14293 0.0
H1399 H 0.44029 0.40483 0.06539 0.0
H1400 H 0.37967 0.41681 0.9445 0.0
H1401 H 0.39158 0.41291 0.99707 0.0
H1402 H 0.4002 0.45183 0.05589 0.0
C1403 C 0.43633 0.42836 0.14697 0.0
C1404 C 0.4315 0.41508 0.0639 0.0
C1405 C 0.439 0.42284 0.17742 0.0
C1406 C 0.38703 0.42632 0.95569 0.0
C1407 C 0.39385 0.42406 0.98581 0.0
C1408 C 0.40911 0.44166 0.0578 0.0
C1409 C 0.43251 0.41794 0.12238 0.0
C1410 C 0.427 0.42372 0.09073 0.0
C1411 C 0.40395 0.43584 1.00094 0.0
C1412 C 0.41283 0.43247 0.0315 0.0
H1413 H 0.43426 0.38395 0.16375 0.0
H1414 H 0.42942 0.39338 0.11091 0.0
H1415 H 0.41199 0.44416 0.10718 0.0
H1416 H 0.40247 0.46344 0.94365 0.0
H1417 H 0.41388 0.45961 0.99725 0.0
C1418 C 0.62382 0.92722 0.3866 0.0
C1419 C 0.61929 0.94111 0.40221 0.0
C1420 C 0.6181 0.92471 0.35596 0.0
C1421 C 0.58266 0.93784 0.29818 0.0
H1422 H 0.61113 0.9105 0.24422 0.0
C1423 C 0.56794 0.92223 0.16648 0.0
C1424 C 0.56916 0.90625 0.15968 0.0
C1425 C 0.5717 0.92767 0.19666 0.0
C1426 C 0.60298 0.91809 0.25912 0.0
H1427 H 0.6061 0.96368 0.39717 0.0
H1428 H 0.5966 0.95958 0.34283 0.0
H1429 H 0.62459 0.91903 0.29335 0.0
H1430 H 0.57436 0.88336 0.17898 0.0
H1431 H 0.581 0.89281 0.23162 0.0
H1432 H 0.56129 0.93713 0.26286 0.0
C1433 C 0.60417 0.95041 0.35473 0.0
C1434 C 0.61066 0.92297 0.28739 0.0
C1435 C 0.60985 0.95288 0.38571 0.0
C1436 C 0.57294 0.89569 0.18387 0.0
C1437 C 0.57697 0.90112 0.21382 0.0
C1438 C 0.57511 0.93316 0.26946 0.0
C1439 C 0.60786 0.93612 0.33966 0.0
C1440 C 0.60045 0.9326 0.30779 0.0
C1441 C 0.5771 0.91719 0.22021 0.0
C1442 C 0.58505 0.92293 0.25004 0.0
H1443 H 0.63121 0.91795 0.39859 0.0
H1444 H 0.62105 0.91348 0.34562 0.0
H1445 H 0.57427 0.94514 0.31326 0.0
H1446 H 0.56547 0.93058 0.14798 0.0
H1447 H 0.5718 0.94011 0.20097 0.0
C1448 C 0.06993 0.42391 0.66483 0.0
C1449 C 0.07121 0.40793 0.65824 0.0
C1450 C 0.07268 0.42938 0.69527 0.0
C1451 C 0.07839 0.41592 0.77806 0.0
H1452 H 0.10865 0.45325 0.78609 0.0
C1453 C 0.12247 0.42768 0.88634 0.0
C1454 C 0.11879 0.44165 0.90239 0.0
C1455 C 0.11578 0.42537 0.85618 0.0
C1456 C 0.10003 0.44291 0.78417 0.0
H1457 H 0.07606 0.38509 0.67794 0.0
H1458 H 0.08105 0.39444 0.73077 0.0
H1459 H 0.09687 0.44551 0.73484 0.0
H1460 H 0.10643 0.46463 0.89822 0.0
H1461 H 0.09521 0.46072 0.84455 0.0
H1462 H 0.08246 0.41292 0.82714 0.0
C1463 C 0.07741 0.40287 0.71299 0.0
C1464 C 0.09316 0.43848 0.75485 0.0
C1465 C 0.0745 0.39743 0.68268 0.0
C1466 C 0.10954 0.45377 0.88648 0.0
C1467 C 0.10302 0.4515 0.8559 0.0
C1468 C 0.08551 0.4202 0.80715 0.0
C1469 C 0.07703 0.41896 0.71965 0.0
C1470 C 0.08253 0.42474 0.75127 0.0
C1471 C 0.10551 0.43705 0.84097 0.0
C1472 C 0.09668 0.43357 0.81043 0.0
H1473 H 0.06775 0.43222 0.64615 0.0
H1474 H 0.07197 0.44181 0.69947 0.0
H1475 H 0.06989 0.40551 0.77655 0.0
H1476 H 0.12991 0.41824 0.89765 0.0
H1477 H 0.11824 0.41424 0.84496 0.0
C1478 C 0.56774 0.59343 0.17659 0.0
C1479 C 0.5691 0.6094 0.18341 0.0
C1480 C 0.57148 0.58797 0.14643 0.0
C1481 C 0.60287 0.59744 0.08411 0.0
H1482 H 0.57415 0.57034 0.03002 0.0
C1483 C 0.62367 0.58812 0.95675 0.0
C1484 C 0.61917 0.5742 0.94123 0.0
C1485 C 0.61795 0.59067 0.98736 0.0
C1486 C 0.58254 0.57765 0.04509 0.0
H1487 H 0.57449 0.63227 0.16416 0.0
H1488 H 0.58107 0.62278 0.11154 0.0
H1489 H 0.56116 0.57844 0.08031 0.0
H1490 H 0.60602 0.55163 0.94638 0.0
H1491 H 0.59652 0.55581 1.00067 0.0
H1492 H 0.62447 0.59643 0.04997 0.0
C1493 C 0.57697 0.61449 0.12932 0.0
C1494 C 0.57498 0.58239 0.07375 0.0
C1495 C 0.57297 0.61994 0.15924 0.0
C1496 C 0.60976 0.56245 0.95778 0.0
C1497 C 0.60408 0.56497 0.98872 0.0
C1498 C 0.61054 0.59251 0.0559 0.0
C1499 C 0.57698 0.59842 0.12292 0.0
C1500 C 0.58493 0.59263 0.09314 0.0
C1501 C 0.60774 0.57929 1.0037 0.0
C1502 C 0.60033 0.58286 0.03552 0.0
H1503 H 0.5652 0.58509 0.19508 0.0
H1504 H 0.57148 0.57553 0.14212 0.0
H1505 H 0.61103 0.60504 0.099 0.0
H1506 H 0.63104 0.59737 0.94471 0.0
H1507 H 0.62089 0.60193 0.99764 0.0
C1508 C 0.39965 0.06291 0.38777 0.0
C1509 C 0.39045 0.07505 0.40362 0.0
C1510 C 0.40628 0.06518 0.35727 0.0
C1511 C 0.42428 0.09633 0.30872 0.0
H1512 H 0.41222 0.07147 0.23614 0.0
C1513 C 0.43537 0.11944 0.18446 0.0
C1514 C 0.43821 0.10899 0.15982 0.0
C1515 C 0.43254 0.11393 0.21474 0.0
C1516 C 0.41614 0.07836 0.25622 0.0
H1517 H 0.37955 0.09854 0.39877 0.0
H1518 H 0.39144 0.10255 0.34626 0.0
H1519 H 0.40041 0.0637 0.28731 0.0
H1520 H 0.441 0.0847 0.14736 0.0
H1521 H 0.43696 0.07496 0.20062 0.0
H1522 H 0.44013 0.11091 0.27827 0.0
C1523 C 0.39376 0.09139 0.35748 0.0
C1524 C 0.40924 0.07392 0.2855 0.0
C1525 C 0.38696 0.08907 0.38756 0.0
C1526 C 0.43917 0.09296 0.16619 0.0
C1527 C 0.43652 0.08742 0.1966 0.0
C1528 C 0.43142 0.10062 0.27966 0.0
C1529 C 0.40395 0.07966 0.34235 0.0
C1530 C 0.41285 0.08311 0.31186 0.0
C1531 C 0.43256 0.0978 0.22118 0.0
C1532 C 0.42704 0.09197 0.25277 0.0
H1533 H 0.40262 0.052 0.39951 0.0
H1534 H 0.41402 0.05592 0.34598 0.0
H1535 H 0.4275 0.10349 0.3288 0.0
H1536 H 0.43404 0.13182 0.1799 0.0
H1537 H 0.42922 0.12234 0.23268 0.0
C1538 C 0.94103 0.92251 0.6777 0.0
C1539 C 0.93988 0.90649 0.684 0.0
C1540 C 0.93851 0.9281 0.64728 0.0
C1541 C 0.93307 0.91508 0.56413 0.0
H1542 H 0.90178 0.95189 0.55726 0.0
C1543 C 0.88763 0.92657 0.45718 0.0
C1544 C 0.89079 0.94066 0.4412 0.0
C1545 C 0.89475 0.92423 0.48707 0.0
C1546 C 0.91069 0.94171 0.55884 0.0
H1547 H 0.9357 0.8837 0.66374 0.0
H1548 H 0.93116 0.89326 0.61094 0.0
H1549 H 0.91403 0.9441 0.60816 0.0
H1550 H 0.90267 0.9638 0.44527 0.0
H1551 H 0.91462 0.95985 0.49851 0.0
H1552 H 0.92878 0.91226 0.51505 0.0
C1553 C 0.93449 0.90164 0.62896 0.0
C1554 C 0.91784 0.93725 0.58797 0.0
C1555 C 0.93717 0.89608 0.65925 0.0
C1556 C 0.89996 0.95284 0.45696 0.0
C1557 C 0.9069 0.95055 0.48729 0.0
C1558 C 0.92567 0.91939 0.53523 0.0
C1559 C 0.93452 0.91777 0.62263 0.0
C1560 C 0.92884 0.92367 0.59115 0.0
C1561 C 0.90492 0.93601 0.5021 0.0
C1562 C 0.91413 0.93256 0.53238 0.0
H1563 H 0.94275 0.93075 0.6966 0.0
H1564 H 0.93899 0.94057 0.64334 0.0
H1565 H 0.94184 0.90481 0.56532 0.0
H1566 H 0.88026 0.91705 0.44602 0.0
H1567 H 0.89268 0.91302 0.49823 0.0
C1568 C 0.08831 0.11103 0.91114 0.0
C1569 C 0.08512 0.12668 0.90301 0.0
C1570 C 0.09222 0.10677 0.94204 0.0
C1571 C 0.09053 0.12074 0.02463 0.0
H1572 H 0.12772 0.08846 0.03743 0.0
C1573 C 0.10414 0.09329 0.14637 0.0
C1574 C 0.12247 0.08893 0.15481 0.0
C1575 C 0.09992 0.09845 0.11617 0.0
C1576 C 0.11743 0.09759 0.03442 0.0
H1577 H 0.08382 0.15019 0.92101 0.0
H1578 H 0.09038 0.14282 0.97513 0.0
H1579 H 0.1193 0.09628 0.98466 0.0
H1580 H 0.1508 0.08696 0.13749 0.0
H1581 H 0.1435 0.09613 0.08479 0.0
H1582 H 0.08889 0.12222 0.07441 0.0
C1583 C 0.08951 0.13372 0.95773 0.0
C1584 C 0.11237 0.10196 1.00398 0.0
C1585 C 0.0856 0.13798 0.9267 0.0
C1586 C 0.13654 0.0902 0.13203 0.0
C1587 C 0.13228 0.09533 0.10163 0.0
C1588 C 0.09556 0.11634 0.05508 0.0
C1589 C 0.09325 0.11806 0.96582 0.0
C1590 C 0.09875 0.11354 0.99852 0.0
C1591 C 0.11386 0.09949 0.09316 0.0
C1592 C 0.10903 0.10463 0.06052 0.0
H1593 H 0.08834 0.10211 0.89328 0.0
H1594 H 0.09468 0.09458 0.9472 0.0
H1595 H 0.07995 0.12963 0.0216 0.0
H1596 H 0.09292 0.09278 0.16325 0.0
H1597 H 0.08555 0.10136 0.11074 0.0
C1598 C 0.92137 0.63867 0.41657 0.0
C1599 C 0.92176 0.62744 0.44044 0.0
C1600 C 0.91753 0.63433 0.38557 0.0
C1601 C 0.89483 0.60245 0.33943 0.0
H1602 H 0.9187 0.62249 0.26905 0.0
C1603 C 0.87127 0.59042 0.21115 0.0
C1604 C 0.88543 0.58913 0.18851 0.0
C1605 C 0.8754 0.59558 0.24157 0.0
C1606 C 0.91192 0.61667 0.28837 0.0
H1607 H 0.9184 0.60291 0.4505 0.0
H1608 H 0.91216 0.59524 0.39666 0.0
H1609 H 0.92736 0.63004 0.32189 0.0
H1610 H 0.91501 0.59297 0.18039 0.0
H1611 H 0.92216 0.60159 0.23293 0.0
H1612 H 0.87965 0.58887 0.30594 0.0
C1613 C 0.91464 0.60743 0.40164 0.0
C1614 C 0.91679 0.62115 0.31884 0.0
C1615 C 0.9185 0.61178 0.43251 0.0
C1616 C 0.90372 0.59349 0.19714 0.0
C1617 C 0.90782 0.59868 0.22737 0.0
C1618 C 0.88993 0.598 0.30897 0.0
C1619 C 0.91376 0.61865 0.37767 0.0
C1620 C 0.90843 0.61404 0.34493 0.0
C1621 C 0.89378 0.59975 0.25022 0.0
C1622 C 0.89847 0.60495 0.28288 0.0
H1623 H 0.9232 0.65089 0.42207 0.0
H1624 H 0.91676 0.64338 0.36802 0.0
H1625 H 0.8878 0.59683 0.35872 0.0
H1626 H 0.85704 0.58718 0.20556 0.0
H1627 H 0.86412 0.59639 0.25827 0.0
C1628 C 0.39001 0.43778 0.62969 0.0
C1629 C 0.38276 0.42738 0.65202 0.0
C1630 C 0.39467 0.4327 0.59958 0.0
C1631 C 0.38871 0.3994 0.54318 0.0
H1632 H 0.43119 0.41877 0.5027 0.0
C1633 C 0.41833 0.37642 0.42511 0.0
C1634 C 0.42275 0.38776 0.40265 0.0
C1635 C 0.41439 0.38074 0.45606 0.0
C1636 C 0.41921 0.41328 0.5135 0.0
H1637 H 0.37459 0.40336 0.65957 0.0
H1638 H 0.38291 0.39443 0.60738 0.0
H1639 H 0.42201 0.42719 0.55462 0.0
H1640 H 0.42649 0.41245 0.3949 0.0
H1641 H 0.42009 0.42002 0.44885 0.0
H1642 H 0.38615 0.38536 0.502 0.0
C1643 C 0.38472 0.40665 0.61287 0.0
C1644 C 0.41383 0.41818 0.54342 0.0
C1645 C 0.3799 0.41178 0.64298 0.0
C1646 C 0.42356 0.40344 0.41193 0.0
C1647 C 0.41982 0.40776 0.44287 0.0
C1648 C 0.39421 0.39441 0.51333 0.0
C1649 C 0.39243 0.41698 0.5907 0.0
C1650 C 0.39837 0.41144 0.55877 0.0
C1651 C 0.41483 0.39652 0.46535 0.0
C1652 C 0.40947 0.40135 0.49788 0.0
H1653 H 0.39218 0.44992 0.63554 0.0
H1654 H 0.40004 0.4412 0.58323 0.0
H1655 H 0.3766 0.39399 0.55372 0.0
H1656 H 0.41719 0.36428 0.41843 0.0
H1657 H 0.41076 0.37172 0.47264 0.0
C1658 C 0.63651 0.92075 0.70906 0.0
C1659 C 0.62247 0.92678 0.68922 0.0
C1660 C 0.63218 0.91523 0.73915 0.0
C1661 C 0.60122 0.92071 0.80459 0.0
H1662 H 0.60831 0.87731 0.82652 0.0
C1663 C 0.5776 0.89817 0.92617 0.0
C1664 C 0.58754 0.88586 0.93992 0.0
C1665 C 0.58069 0.90232 0.89486 0.0
C1666 C 0.60651 0.88956 0.82137 0.0
H1667 H 0.59242 0.93086 0.68654 0.0
H1668 H 0.58544 0.92235 0.7391 0.0
H1669 H 0.61746 0.88654 0.77505 0.0
H1670 H 0.60755 0.86752 0.93103 0.0
H1671 H 0.61383 0.87511 0.87754 0.0
H1672 H 0.5912 0.92416 0.85091 0.0
C1673 C 0.59978 0.92188 0.7311 0.0
C1674 C 0.61171 0.8948 0.79154 0.0
C1675 C 0.60397 0.92699 0.70085 0.0
C1676 C 0.59983 0.87721 0.92115 0.0
C1677 C 0.6033 0.88156 0.89015 0.0
C1678 C 0.59649 0.91559 0.83469 0.0
C1679 C 0.61379 0.9159 0.75061 0.0
C1680 C 0.60904 0.91042 0.78275 0.0
C1681 C 0.59409 0.89444 0.87644 0.0
C1682 C 0.59892 0.89987 0.84375 0.0
H1683 H 0.65095 0.92042 0.70167 0.0
H1684 H 0.6433 0.91071 0.75372 0.0
H1685 H 0.59904 0.93283 0.79851 0.0
H1686 H 0.56788 0.90495 0.93998 0.0
H1687 H 0.57267 0.91191 0.88539 0.0
C1688 C 0.08993 0.37734 0.41677 0.0
C1689 C 0.08518 0.38853 0.43931 0.0
C1690 C 0.09398 0.38183 0.38594 0.0
C1691 C 0.10851 0.41708 0.33982 0.0
H1692 H 0.09856 0.39061 0.26862 0.0
C1693 C 0.11825 0.43867 0.21234 0.0
C1694 C 0.12551 0.42826 0.19004 0.0
C1695 C 0.11374 0.43363 0.24254 0.0
C1696 C 0.10165 0.3981 0.28826 0.0
H1697 H 0.08068 0.4131 0.44721 0.0
H1698 H 0.08684 0.42094 0.39346 0.0
H1699 H 0.08878 0.38228 0.3205 0.0
H1700 H 0.13379 0.40424 0.18265 0.0
H1701 H 0.12601 0.39545 0.23538 0.0
H1702 H 0.12117 0.43296 0.30753 0.0
C1703 C 0.08789 0.4087 0.39938 0.0
C1704 C 0.09601 0.39331 0.31819 0.0
C1705 C 0.084 0.40421 0.43017 0.0
C1706 C 0.12841 0.41266 0.19917 0.0
C1707 C 0.12372 0.40756 0.22937 0.0
C1708 C 0.11401 0.42191 0.30992 0.0
C1709 C 0.09342 0.39766 0.37683 0.0
C1710 C 0.09928 0.40274 0.34456 0.0
C1711 C 0.11618 0.41795 0.2515 0.0
C1712 C 0.11065 0.41253 0.2836 0.0
H1713 H 0.09143 0.36522 0.42339 0.0
H1714 H 0.09837 0.37293 0.36967 0.0
H1715 H 0.11181 0.42458 0.35933 0.0
H1716 H 0.1159 0.45079 0.20636 0.0
H1717 H 0.10787 0.44199 0.25868 0.0
C1718 C 0.63636 0.59461 0.63465 0.0
C1719 C 0.62244 0.58842 0.65436 0.0
C1720 C 0.63196 0.60025 0.60466 0.0
C1721 C 0.59039 0.61065 0.55295 0.0
H1722 H 0.62817 0.61105 0.48839 0.0
C1723 C 0.57774 0.61719 0.41744 0.0
C1724 C 0.58775 0.62944 0.40348 0.0
C1725 C 0.58089 0.61314 0.44882 0.0
C1726 C 0.61748 0.61104 0.50624 0.0
H1727 H 0.5925 0.58401 0.65682 0.0
H1728 H 0.58536 0.59228 0.60481 0.0
H1729 H 0.63617 0.60165 0.54029 0.0
H1730 H 0.60793 0.64772 0.41206 0.0
H1731 H 0.61398 0.64028 0.4664 0.0
H1732 H 0.57154 0.61929 0.51782 0.0
C1733 C 0.59968 0.59337 0.61254 0.0
C1734 C 0.62208 0.60576 0.53632 0.0
C1735 C 0.60397 0.58813 0.64267 0.0
C1736 C 0.6002 0.63809 0.42207 0.0
C1737 C 0.60372 0.6338 0.45311 0.0
C1738 C 0.5857 0.61552 0.52264 0.0
C1739 C 0.61351 0.59967 0.59286 0.0
C1740 C 0.60865 0.60547 0.56043 0.0
C1741 C 0.59435 0.62111 0.46671 0.0
C1742 C 0.5992 0.61584 0.49896 0.0
H1743 H 0.65079 0.59507 0.64212 0.0
H1744 H 0.64316 0.60522 0.59097 0.0
H1745 H 0.57959 0.61116 0.57051 0.0
H1746 H 0.56803 0.61034 0.40372 0.0
H1747 H 0.57339 0.60335 0.45871 0.0
C1748 C 0.39014 0.07755 0.71351 0.0
C1749 C 0.3829 0.08794 0.69114 0.0
C1750 C 0.39481 0.08263 0.74363 0.0
C1751 C 0.38888 0.11596 0.79995 0.0
H1752 H 0.43134 0.09656 0.8406 0.0
C1753 C 0.41848 0.1389 0.91816 0.0
C1754 C 0.42288 0.12755 0.94064 0.0
C1755 C 0.41455 0.1346 0.8872 0.0
C1756 C 0.41936 0.10206 0.82976 0.0
H1757 H 0.37474 0.11196 0.68352 0.0
H1758 H 0.38308 0.12091 0.73572 0.0
H1759 H 0.42216 0.08814 0.78866 0.0
H1760 H 0.42657 0.10285 0.94838 0.0
H1761 H 0.42021 0.09531 0.8944 0.0
H1762 H 0.38632 0.13002 0.84111 0.0
C1763 C 0.38488 0.10869 0.73026 0.0
C1764 C 0.41398 0.09716 0.79982 0.0
C1765 C 0.38005 0.10355 0.70015 0.0
C1766 C 0.42368 0.11187 0.93135 0.0
C1767 C 0.41995 0.10757 0.90038 0.0
C1768 C 0.39438 0.12095 0.82982 0.0
C1769 C 0.39258 0.09836 0.75247 0.0
C1770 C 0.39853 0.10391 0.78441 0.0
C1771 C 0.41498 0.11882 0.87789 0.0
C1772 C 0.40963 0.114 0.84533 0.0
H1773 H 0.39231 0.06539 0.70769 0.0
H1774 H 0.40018 0.07413 0.76 0.0
H1775 H 0.37677 0.12138 0.78937 0.0
H1776 H 0.41735 0.15104 0.92486 0.0
H1777 H 0.41095 0.14363 0.8706 0.0
C1778 C 0.90357 0.9271 0.14283 0.0
C1779 C 0.88512 0.92681 0.15452 0.0
C1780 C 0.90782 0.92192 0.11266 0.0
C1781 C 0.88529 0.90967 0.03637 0.0
H1782 H 0.93581 0.89622 0.01774 0.0
C1783 C 0.90681 0.87767 0.92177 0.0
C1784 C 0.91953 0.88616 0.9034 0.0
C1785 C 0.9033 0.88193 0.9528 0.0
C1786 C 0.92166 0.89997 0.02258 0.0
H1787 H 0.85674 0.92022 0.14222 0.0
H1788 H 0.86429 0.91017 0.09103 0.0
H1789 H 0.92786 0.90426 0.07045 0.0
H1790 H 0.9397 0.90492 0.90404 0.0
H1791 H 0.93431 0.91185 0.95901 0.0
H1792 H 0.87911 0.90443 0.98845 0.0
C1793 C 0.87552 0.9151 0.10474 0.0
C1794 C 0.91702 0.90479 0.05292 0.0
C1795 C 0.87116 0.92068 0.13476 0.0
C1796 C 0.92977 0.89821 0.91758 0.0
C1797 C 0.92662 0.90222 0.94895 0.0
C1798 C 0.88984 0.90443 1.00627 0.0
C1799 C 0.89395 0.91568 0.09294 0.0
C1800 C 0.89877 0.90993 0.06046 0.0
C1801 C 0.91292 0.89443 0.96663 0.0
C1802 C 0.90811 0.89966 0.99892 0.0
H1803 H 0.91507 0.93118 0.15699 0.0
H1804 H 0.92213 0.92301 0.10494 0.0
H1805 H 0.8712 0.91375 0.04037 0.0
H1806 H 0.89892 0.86816 0.91162 0.0
H1807 H 0.89285 0.87557 0.96591 0.0
loop_
_geom_bond_atom_site_label_1
_geom_bond_atom_site_label_2
_geom_bond_distance
_geom_bond_site_symmetry_2
_ccdc_geom_bond_type
C0 C1 1.443 . S
C0 N4 1.376 . S
C0 C38 1.389 . S
C1 C0 1.443 . S
C1 C2 1.340 . S
C1 H41 0.951 . S
C2 C1 1.340 . S
C2 C3 1.439 . S
C2 H42 0.950 . S
C3 C2 1.439 . S
C3 N4 1.374 . S
C3 C37 1.395 . S
N4 C0 1.376 . S
N4 C3 1.374 . S
N4 Co5 2.008 . S
Co5 N4 2.008 . S
Co5 N6 1.995 . S
Co5 N11 2.008 . S
Co5 N16 1.995 . S
Co5 N21 2.282 . S
Co5 N27 2.282 . S
N6 Co5 1.995 . S
N6 C7 1.376 . S
N6 C10 1.383 . S
C7 N6 1.376 . S
C7 C8 1.446 . S
C7 C37 1.391 . S
C8 C7 1.446 . S
C8 C9 1.339 . S
C8 H43 0.949 . S
C9 C8 1.339 . S
C9 C10 1.439 . S
C9 H44 0.950 . S
C10 N6 1.383 . S
C10 C9 1.439 . S
C10 C39 1.392 . S
N11 Co5 2.008 . S
N11 C12 1.376 . S
N11 C15 1.374 . S
C12 N11 1.376 . S
C12 C13 1.443 . S
C12 C39 1.389 . S
C13 C12 1.443 . S
C13 C14 1.340 . S
C13 H45 0.951 . S
C14 C13 1.340 . S
C14 C15 1.439 . S
C14 H46 0.950 . S
C15 N11 1.374 . S
C15 C14 1.439 . S
C15 C40 1.395 . S
N16 Co5 1.995 . S
N16 C17 1.376 . S
N16 C20 1.383 . S
C17 N16 1.376 . S
C17 C18 1.446 . S
C17 C40 1.391 . S
C18 C17 1.446 . S
C18 C19 1.339 . S
C18 H47 0.949 . S
C19 C18 1.339 . S
C19 C20 1.439 . S
C19 H48 0.950 . S
C20 N16 1.383 . S
C20 C19 1.439 . S
C20 C38 1.392 . S
N21 Co5 2.282 . S
N21 C24 1.332 . S
N21 C26 1.332 . S
C22 C23 1.386 . S
C22 C25 1.388 . S
C23 C22 1.386 . S
C23 C24 1.382 . S
C23 H49 0.950 . S
C24 N21 1.332 . S
C24 C23 1.382 . S
C24 H35 0.952 . S
C25 C22 1.388 . S
C25 C26 1.382 . S
C25 H50 0.950 . S
C26 N21 1.332 . S
C26 C25 1.382 . S
C26 H36 0.948 . S
N27 Co5 2.282 . S
N27 C31 1.332 . S
N27 C32 1.332 . S
C28 C29 1.388 . S
C28 C32 1.382 . S
C28 H51 0.950 . S
C29 C28 1.388 . S
C29 C30 1.386 . S
C30 C29 1.386 . S
C30 C31 1.382 . S
C30 H52 0.950 . S
C31 N27 1.332 . S
C31 C30 1.382 . S
C31 H33 0.952 . S
C32 N27 1.332 . S
C32 C28 1.382 . S
C32 H34 0.948 . S
H33 C31 0.952 . S
H34 C32 0.948 . S
H35 C24 0.952 . S
H36 C26 0.948 . S
C37 C3 1.395 . S
C37 C7 1.391 . S
C38 C0 1.389 . S
C38 C20 1.392 . S
C39 C10 1.392 . S
C39 C12 1.389 . S
C40 C15 1.395 . S
C40 C17 1.391 . S
H41 C1 0.951 . S
H42 C2 0.950 . S
H43 C8 0.949 . S
H44 C9 0.950 . S
H45 C13 0.951 . S
H46 C14 0.950 . S
H47 C18 0.949 . S
H48 C19 0.950 . S
H49 C23 0.950 . S
H50 C25 0.950 . S
H51 C28 0.950 . S
H52 C30 0.950 . S
C53 C54 1.443 . S
C53 N57 1.376 . S
C53 C91 1.389 . S
C54 C53 1.443 . S
C54 C55 1.340 . S
C54 H94 0.951 . S
C55 C54 1.340 . S
C55 C56 1.439 . S
C55 H95 0.950 . S
C56 C55 1.439 . S
C56 N57 1.374 . S
C56 C90 1.395 . S
N57 C53 1.376 . S
N57 C56 1.374 . S
N57 Co58 2.008 . S
Co58 N57 2.008 . S
Co58 N59 1.995 . S
Co58 N64 2.008 . S
Co58 N69 1.995 . S
Co58 N74 2.282 . S
Co58 N80 2.282 . S
N59 Co58 1.995 . S
N59 C60 1.376 . S
N59 C63 1.383 . S
C60 N59 1.376 . S
C60 C61 1.446 . S
C60 C90 1.391 . S
C61 C60 1.446 . S
C61 C62 1.339 . S
C61 H96 0.949 . S
C62 C61 1.339 . S
C62 C63 1.439 . S
C62 H97 0.950 . S
C63 N59 1.383 . S
C63 C62 1.439 . S
C63 C92 1.392 . S
N64 Co58 2.008 . S
N64 C65 1.376 . S
N64 C68 1.374 . S
C65 N64 1.376 . S
C65 C66 1.443 . S
C65 C92 1.389 . S
C66 C65 1.443 . S
C66 C67 1.340 . S
C66 H98 0.951 . S
C67 C66 1.340 . S
C67 C68 1.439 . S
C67 H99 0.950 . S
C68 N64 1.374 . S
C68 C67 1.439 . S
C68 C93 1.395 . S
N69 Co58 1.995 . S
N69 C70 1.376 . S
N69 C73 1.383 . S
C70 N69 1.376 . S
C70 C71 1.446 . S
C70 C93 1.391 . S
C71 C70 1.446 . S
C71 C72 1.339 . S
C71 H100 0.949 . S
C72 C71 1.339 . S
C72 C73 1.439 . S
C72 H101 0.950 . S
C73 N69 1.383 . S
C73 C72 1.439 . S
C73 C91 1.392 . S
N74 Co58 2.282 . S
N74 C77 1.332 . S
N74 C79 1.332 . S
C75 C76 1.386 . S
C75 C78 1.388 . S
C76 C75 1.386 . S
C76 C77 1.382 . S
C76 H102 0.950 . S
C77 N74 1.332 . S
C77 C76 1.382 . S
C77 H88 0.952 . S
C78 C75 1.388 . S
C78 C79 1.382 . S
C78 H103 0.950 . S
C79 N74 1.332 . S
C79 C78 1.382 . S
C79 H89 0.948 . S
N80 Co58 2.282 . S
N80 C84 1.332 . S
N80 C85 1.332 . S
C81 C82 1.388 . S
C81 C85 1.382 . S
C81 H104 0.950 . S
C82 C81 1.388 . S
C82 C83 1.386 . S
C83 C82 1.386 . S
C83 C84 1.382 . S
C83 H105 0.950 . S
C84 N80 1.332 . S
C84 C83 1.382 . S
C84 H86 0.952 . S
C85 N80 1.332 . S
C85 C81 1.382 . S
C85 H87 0.948 . S
H86 C84 0.952 . S
H87 C85 0.948 . S
H88 C77 0.952 . S
H89 C79 0.948 . S
C90 C56 1.395 . S
C90 C60 1.391 . S
C91 C53 1.389 . S
C91 C73 1.392 . S
C92 C63 1.392 . S
C92 C65 1.389 . S
C93 C68 1.395 . S
C93 C70 1.391 . S
H94 C54 0.951 . S
H95 C55 0.950 . S
H96 C61 0.949 . S
H97 C62 0.950 . S
H98 C66 0.951 . S
H99 C67 0.950 . S
H100 C71 0.949 . S
H101 C72 0.950 . S
H102 C76 0.950 . S
H103 C78 0.950 . S
H104 C81 0.950 . S
H105 C83 0.950 . S
C106 C107 1.443 . S
C106 N110 1.376 . S
C106 C144 1.389 . S
C107 C106 1.443 . S
C107 C108 1.340 . S
C107 H147 0.951 . S
C108 C107 1.340 . S
C108 C109 1.439 . S
C108 H148 0.950 . S
C109 C108 1.439 . S
C109 N110 1.374 . S
C109 C143 1.395 . S
N110 C106 1.376 . S
N110 C109 1.374 . S
N110 Co111 2.008 . S
Co111 N110 2.008 . S
Co111 N112 1.995 . S
Co111 N117 2.008 . S
Co111 N122 1.995 . S
Co111 N127 2.282 . S
Co111 N133 2.282 . S
N112 Co111 1.995 . S
N112 C113 1.376 . S
N112 C116 1.383 . S
C113 N112 1.376 . S
C113 C114 1.446 . S
C113 C143 1.391 . S
C114 C113 1.446 . S
C114 C115 1.339 . S
C114 H149 0.949 . S
C115 C114 1.339 . S
C115 C116 1.439 . S
C115 H150 0.950 . S
C116 N112 1.383 . S
C116 C115 1.439 . S
C116 C145 1.392 . S
N117 Co111 2.008 . S
N117 C118 1.376 . S
N117 C121 1.374 . S
C118 N117 1.376 . S
C118 C119 1.443 . S
C118 C145 1.389 . S
C119 C118 1.443 . S
C119 C120 1.340 . S
C119 H151 0.951 . S
C120 C119 1.340 . S
C120 C121 1.439 . S
C120 H152 0.950 . S
C121 N117 1.374 . S
C121 C120 1.439 . S
C121 C146 1.395 . S
N122 Co111 1.995 . S
N122 C123 1.376 . S
N122 C126 1.383 . S
C123 N122 1.376 . S
C123 C124 1.446 . S
C123 C146 1.391 . S
C124 C123 1.446 . S
C124 C125 1.339 . S
C124 H153 0.949 . S
C125 C124 1.339 . S
C125 C126 1.439 . S
C125 H154 0.950 . S
C126 N122 1.383 . S
C126 C125 1.439 . S
C126 C144 1.392 . S
N127 Co111 2.282 . S
N127 C130 1.332 . S
N127 C132 1.332 . S
C128 C129 1.386 . S
C128 C131 1.388 . S
C129 C128 1.386 . S
C129 C130 1.382 . S
C129 H155 0.950 . S
C130 N127 1.332 . S
C130 C129 1.382 . S
C130 H141 0.952 . S
C131 C128 1.388 . S
C131 C132 1.382 . S
C131 H156 0.950 . S
C132 N127 1.332 . S
C132 C131 1.382 . S
C132 H142 0.948 . S
N133 Co111 2.282 . S
N133 C137 1.332 . S
N133 C138 1.332 . S
C134 C135 1.388 . S
C134 C138 1.382 . S
C134 H157 0.950 . S
C135 C134 1.388 . S
C135 C136 1.386 . S
C136 C135 1.386 . S
C136 C137 1.382 . S
C136 H158 0.950 . S
C137 N133 1.332 . S
C137 C136 1.382 . S
C137 H139 0.952 . S
C138 N133 1.332 . S
C138 C134 1.382 . S
C138 H140 0.948 . S
H139 C137 0.952 . S
H140 C138 0.948 . S
H141 C130 0.952 . S
H142 C132 0.948 . S
C143 C109 1.395 . S
C143 C113 1.391 . S
C144 C106 1.389 . S
C144 C126 1.392 . S
C145 C116 1.392 . S
C145 C118 1.389 . S
C146 C121 1.395 . S
C146 C123 1.391 . S
H147 C107 0.951 . S
H148 C108 0.950 . S
H149 C114 0.949 . S
H150 C115 0.950 . S
H151 C119 0.951 . S
H152 C120 0.950 . S
H153 C124 0.949 . S
H154 C125 0.950 . S
H155 C129 0.950 . S
H156 C131 0.950 . S
H157 C134 0.950 . S
H158 C136 0.950 . S
C159 C160 1.443 . S
C159 N163 1.376 1_556 S
C159 C197 1.389 . S
C160 C159 1.443 . S
C160 C161 1.340 . S
C160 H200 0.951 . S
C161 C160 1.340 . S
C161 C162 1.439 1_556 S
C161 H201 0.950 . S
C162 C161 1.439 1_554 S
C162 N163 1.374 . S
C162 C196 1.395 . S
N163 C159 1.376 1_554 S
N163 C162 1.374 . S
N163 Co164 2.008 . S
Co164 N163 2.008 . S
Co164 N165 1.995 . S
Co164 N170 2.008 . S
Co164 N175 1.995 . S
Co164 N180 2.282 . S
Co164 N186 2.282 . S
N165 Co164 1.995 . S
N165 C166 1.376 . S
N165 C169 1.383 . S
C166 N165 1.376 . S
C166 C167 1.446 . S
C166 C196 1.391 . S
C167 C166 1.446 . S
C167 C168 1.339 . S
C167 H202 0.949 . S
C168 C167 1.339 . S
C168 C169 1.439 . S
C168 H203 0.950 . S
C169 N165 1.383 . S
C169 C168 1.439 . S
C169 C198 1.392 . S
N170 Co164 2.008 . S
N170 C171 1.376 . S
N170 C174 1.374 . S
C171 N170 1.376 . S
C171 C172 1.443 . S
C171 C198 1.389 . S
C172 C171 1.443 . S
C172 C173 1.340 . S
C172 H204 0.951 . S
C173 C172 1.340 . S
C173 C174 1.439 . S
C173 H205 0.950 . S
C174 N170 1.374 . S
C174 C173 1.439 . S
C174 C199 1.395 . S
N175 Co164 1.995 . S
N175 C176 1.376 . S
N175 C179 1.383 1_554 S
C176 N175 1.376 . S
C176 C177 1.446 1_554 S
C176 C199 1.391 . S
C177 C176 1.446 1_556 S
C177 C178 1.339 . S
C177 H206 0.949 . S
C178 C177 1.339 . S
C178 C179 1.439 . S
C178 H207 0.950 . S
C179 N175 1.383 1_556 S
C179 C178 1.439 . S
C179 C197 1.392 . S
N180 Co164 2.282 . S
N180 C183 1.332 . S
N180 C185 1.332 . S
C181 C182 1.386 . S
C181 C184 1.388 . S
C182 C181 1.386 . S
C182 C183 1.382 . S
C182 H208 0.950 . S
C183 N180 1.332 . S
C183 C182 1.382 . S
C183 H194 0.952 . S
C184 C181 1.388 . S
C184 C185 1.382 . S
C184 H209 0.950 . S
C185 N180 1.332 . S
C185 C184 1.382 . S
C185 H195 0.948 . S
N186 Co164 2.282 . S
N186 C190 1.332 . S
N186 C191 1.332 . S
C187 C188 1.388 . S
C187 C191 1.382 . S
C187 H210 0.960 . S
C188 C187 1.388 . S
C188 C189 1.386 . S
C189 C188 1.386 . S
C189 C190 1.382 . S
C189 H211 0.950 . S
C190 N186 1.332 . S
C190 C189 1.382 . S
C190 H192 0.952 . S
C191 N186 1.332 . S
C191 C187 1.382 . S
C191 H193 0.948 . S
H192 C190 0.952 . S
H193 C191 0.948 . S
H194 C183 0.952 . S
H195 C185 0.948 . S
C196 C162 1.395 . S
C196 C166 1.391 . S
C197 C159 1.389 . S
C197 C179 1.392 . S
C198 C169 1.392 . S
C198 C171 1.389 . S
C199 C174 1.395 . S
C199 C176 1.391 . S
H200 C160 0.951 . S
H201 C161 0.950 . S
H202 C167 0.949 . S
H203 C168 0.950 . S
H204 C172 0.951 . S
H205 C173 0.950 . S
H206 C177 0.949 . S
H207 C178 0.950 . S
H208 C182 0.950 . S
H209 C184 0.950 . S
H210 C187 0.960 . S
H211 C189 0.950 . S
C212 C213 1.443 1_554 S
C212 N216 1.376 . S
C212 C250 1.390 . S
C213 C212 1.443 1_556 S
C213 C214 1.340 . S
C213 H253 0.951 . S
C214 C213 1.340 . S
C214 C215 1.439 1_556 S
C214 H254 0.950 . S
C215 C214 1.439 1_554 S
C215 N216 1.374 . S
C215 C249 1.395 . S
N216 C212 1.376 . S
N216 C215 1.374 . S
N216 Co217 2.008 . S
Co217 N216 2.008 . S
Co217 N218 1.995 . S
Co217 N223 2.008 . S
Co217 N228 1.995 . S
Co217 N233 2.282 . S
Co217 N239 2.282 1_554 S
N218 Co217 1.995 . S
N218 C219 1.376 . S
N218 C222 1.383 . S
C219 N218 1.376 . S
C219 C220 1.446 . S
C219 C249 1.391 . S
C220 C219 1.446 . S
C220 C221 1.339 . S
C220 H255 0.949 . S
C221 C220 1.339 . S
C221 C222 1.439 . S
C221 H256 0.950 . S
C222 N218 1.383 . S
C222 C221 1.439 . S
C222 C251 1.392 . S
N223 Co217 2.008 . S
N223 C224 1.376 . S
N223 C227 1.374 . S
C224 N223 1.376 . S
C224 C225 1.443 . S
C224 C251 1.389 . S
C225 C224 1.443 . S
C225 C226 1.340 . S
C225 H257 0.951 . S
C226 C225 1.340 . S
C226 C227 1.439 . S
C226 H258 0.950 . S
C227 N223 1.374 . S
C227 C226 1.439 . S
C227 C252 1.395 . S
N228 Co217 1.995 . S
N228 C229 1.376 . S
N228 C232 1.383 . S
C229 N228 1.376 . S
C229 C230 1.446 . S
C229 C252 1.391 . S
C230 C229 1.446 . S
C230 C231 1.339 . S
C230 H259 0.949 . S
C231 C230 1.339 . S
C231 C232 1.439 . S
C231 H260 0.950 . S
C232 N228 1.383 . S
C232 C231 1.439 . S
C232 C250 1.398 . S
N233 Co217 2.282 . S
N233 C236 1.332 . S
N233 C238 1.332 . S
C234 C235 1.386 . S
C234 C237 1.388 . S
C235 C234 1.386 . S
C235 C236 1.382 . S
C235 H261 0.950 . S
C236 N233 1.332 . S
C236 C235 1.382 . S
C236 H247 0.952 . S
C237 C234 1.388 . S
C237 C238 1.382 . S
C237 H262 0.950 . S
C238 N233 1.332 . S
C238 C237 1.382 . S
C238 H248 0.948 . S
N239 Co217 2.282 1_556 S
N239 C243 1.332 . S
N239 C244 1.332 . S
C240 C241 1.388 . S
C240 C244 1.382 . S
C240 H263 0.950 . S
C241 C240 1.388 . S
C241 C242 1.386 . S
C242 C241 1.386 . S
C242 C243 1.382 . S
C242 H264 0.950 . S
C243 N239 1.332 . S
C243 C242 1.382 . S
C243 H245 0.952 . S
C244 N239 1.332 . S
C244 C240 1.382 . S
C244 H246 0.948 . S
H245 C243 0.952 . S
H246 C244 0.948 . S
H247 C236 0.952 . S
H248 C238 0.948 . S
C249 C215 1.395 . S
C249 C219 1.391 . S
C250 C212 1.390 . S
C250 C232 1.398 . S
C251 C222 1.392 . S
C251 C224 1.389 . S
C252 C227 1.395 . S
C252 C229 1.391 . S
H253 C213 0.951 . S
H254 C214 0.950 . S
H255 C220 0.949 . S
H256 C221 0.950 . S
H257 C225 0.951 . S
H258 C226 0.950 . S
H259 C230 0.949 . S
H260 C231 0.950 . S
H261 C235 0.950 . S
H262 C237 0.950 . S
H263 C240 0.950 . S
H264 C242 0.950 . S
C265 C266 1.443 . S
C265 N269 1.376 . S
C265 C303 1.389 . S
C266 C265 1.443 . S
C266 C267 1.340 . S
C266 H306 0.951 . S
C267 C266 1.340 . S
C267 C268 1.439 . S
C267 H307 0.950 . S
C268 C267 1.439 . S
C268 N269 1.374 . S
C268 C302 1.395 . S
N269 C265 1.376 . S
N269 C268 1.374 . S
N269 Co270 2.008 . S
Co270 N269 2.008 . S
Co270 N271 1.995 . S
Co270 N276 2.008 . S
Co270 N281 1.995 . S
Co270 N286 2.282 . S
Co270 N292 2.282 . S
N271 Co270 1.995 . S
N271 C272 1.376 . S
N271 C275 1.383 . S
C272 N271 1.376 . S
C272 C273 1.446 . S
C272 C302 1.391 . S
C273 C272 1.446 . S
C273 C274 1.339 . S
C273 H308 0.949 . S
C274 C273 1.339 . S
C274 C275 1.439 . S
C274 H309 0.950 . S
C275 N271 1.383 . S
C275 C274 1.439 . S
C275 C304 1.392 . S
N276 Co270 2.008 . S
N276 C277 1.376 . S
N276 C280 1.374 . S
C277 N276 1.376 . S
C277 C278 1.443 . S
C277 C304 1.389 . S
C278 C277 1.443 . S
C278 C279 1.340 . S
C278 H310 0.951 . S
C279 C278 1.340 . S
C279 C280 1.439 . S
C279 H311 0.950 . S
C280 N276 1.374 . S
C280 C279 1.439 . S
C280 C305 1.395 . S
N281 Co270 1.995 . S
N281 C282 1.376 . S
N281 C285 1.383 . S
C282 N281 1.376 . S
C282 C283 1.446 . S
C282 C305 1.391 . S
C283 C282 1.446 . S
C283 C284 1.339 . S
C283 H312 0.949 . S
C284 C283 1.339 . S
C284 C285 1.439 . S
C284 H313 0.950 . S
C285 N281 1.383 . S
C285 C284 1.439 . S
C285 C303 1.392 . S
N286 Co270 2.282 . S
N286 C289 1.332 . S
N286 C291 1.332 . S
C287 C288 1.386 . S
C287 C290 1.388 . S
C288 C287 1.386 . S
C288 C289 1.382 . S
C288 H314 0.950 . S
C289 N286 1.332 . S
C289 C288 1.382 . S
C289 H300 0.952 . S
C290 C287 1.388 . S
C290 C291 1.382 . S
C290 H315 0.950 . S
C291 N286 1.332 . S
C291 C290 1.382 . S
C291 H301 0.948 . S
N292 Co270 2.282 . S
N292 C296 1.332 . S
N292 C297 1.332 . S
C293 C294 1.388 . S
C293 C297 1.382 . S
C293 H316 0.950 . S
C294 C293 1.388 . S
C294 C295 1.386 . S
C295 C294 1.386 . S
C295 C296 1.382 . S
C295 H317 0.950 . S
C296 N292 1.332 . S
C296 C295 1.382 . S
C296 H298 0.952 . S
C297 N292 1.332 . S
C297 C293 1.382 . S
C297 H299 0.948 . S
H298 C296 0.952 . S
H299 C297 0.948 . S
H300 C289 0.952 . S
H301 C291 0.948 . S
C302 C268 1.395 . S
C302 C272 1.391 . S
C303 C265 1.389 . S
C303 C285 1.392 . S
C304 C275 1.392 . S
C304 C277 1.389 . S
C305 C280 1.395 . S
C305 C282 1.391 . S
H306 C266 0.951 . S
H307 C267 0.950 . S
H308 C273 0.949 . S
H309 C274 0.950 . S
H310 C278 0.951 . S
H311 C279 0.950 . S
H312 C283 0.949 . S
H313 C284 0.950 . S
H314 C288 0.950 . S
H315 C290 0.950 . S
H316 C293 0.950 . S
H317 C295 0.950 . S
C318 C319 1.443 . S
C318 N322 1.376 . S
C318 C356 1.389 . S
C319 C318 1.443 . S
C319 C320 1.340 . S
C319 H359 0.951 . S
C320 C319 1.340 . S
C320 C321 1.439 . S
C320 H360 0.950 . S
C321 C320 1.439 . S
C321 N322 1.374 . S
C321 C355 1.395 . S
N322 C318 1.376 . S
N322 C321 1.374 . S
N322 Co323 2.008 . S
Co323 N322 2.008 . S
Co323 N324 1.995 . S
Co323 N329 2.008 . S
Co323 N334 1.995 . S
Co323 N339 2.282 . S
Co323 N345 2.282 . S
N324 Co323 1.995 . S
N324 C325 1.376 . S
N324 C328 1.383 . S
C325 N324 1.376 . S
C325 C326 1.446 . S
C325 C355 1.391 . S
C326 C325 1.446 . S
C326 C327 1.339 . S
C326 H361 0.949 . S
C327 C326 1.339 . S
C327 C328 1.439 . S
C327 H362 0.950 . S
C328 N324 1.383 . S
C328 C327 1.439 . S
C328 C357 1.392 . S
N329 Co323 2.008 . S
N329 C330 1.376 . S
N329 C333 1.374 . S
C330 N329 1.376 . S
C330 C331 1.443 . S
C330 C357 1.389 . S
C331 C330 1.443 . S
C331 C332 1.340 . S
C331 H363 0.951 . S
C332 C331 1.340 . S
C332 C333 1.439 . S
C332 H364 0.950 . S
C333 N329 1.374 . S
C333 C332 1.439 . S
C333 C358 1.395 . S
N334 Co323 1.995 . S
N334 C335 1.376 . S
N334 C338 1.383 . S
C335 N334 1.376 . S
C335 C336 1.446 . S
C335 C358 1.391 . S
C336 C335 1.446 . S
C336 C337 1.339 . S
C336 H365 0.949 . S
C337 C336 1.339 . S
C337 C338 1.439 . S
C337 H366 0.950 . S
C338 N334 1.383 . S
C338 C337 1.439 . S
C338 C356 1.392 . S
N339 Co323 2.282 . S
N339 C342 1.332 . S
N339 C344 1.332 . S
C340 C341 1.386 . S
C340 C343 1.388 . S
C341 C340 1.386 . S
C341 C342 1.382 . S
C341 H367 0.950 . S
C342 N339 1.332 . S
C342 C341 1.382 . S
C342 H353 0.952 . S
C343 C340 1.388 . S
C343 C344 1.382 . S
C343 H368 0.950 . S
C344 N339 1.332 . S
C344 C343 1.382 . S
C344 H354 0.948 . S
N345 Co323 2.282 . S
N345 C349 1.332 . S
N345 C350 1.332 . S
C346 C347 1.388 . S
C346 C350 1.382 . S
C346 H369 0.950 . S
C347 C346 1.388 . S
C347 C348 1.386 . S
C348 C347 1.386 . S
C348 C349 1.382 . S
C348 H370 0.950 . S
C349 N345 1.332 . S
C349 C348 1.382 . S
C349 H351 0.952 . S
C350 N345 1.332 . S
C350 C346 1.382 . S
C350 H352 0.948 . S
H351 C349 0.952 . S
H352 C350 0.948 . S
H353 C342 0.952 . S
H354 C344 0.948 . S
C355 C321 1.395 . S
C355 C325 1.391 . S
C356 C318 1.389 . S
C356 C338 1.392 . S
C357 C328 1.392 . S
C357 C330 1.389 . S
C358 C333 1.395 . S
C358 C335 1.391 . S
H359 C319 0.951 . S
H360 C320 0.950 . S
H361 C326 0.949 . S
H362 C327 0.950 . S
H363 C331 0.951 . S
H364 C332 0.950 . S
H365 C336 0.949 . S
H366 C337 0.950 . S
H367 C341 0.950 . S
H368 C343 0.950 . S
H369 C346 0.950 . S
H370 C348 0.950 . S
C371 C372 1.443 . S
C371 N375 1.376 . S
C371 C409 1.389 . S
C372 C371 1.443 . S
C372 C373 1.340 . S
C372 H412 0.951 . S
C373 C372 1.340 . S
C373 C374 1.439 . S
C373 H413 0.950 . S
C374 C373 1.439 . S
C374 N375 1.374 . S
C374 C408 1.395 . S
N375 C371 1.376 . S
N375 C374 1.374 . S
N375 Co376 2.008 . S
Co376 N375 2.008 . S
Co376 N377 1.995 . S
Co376 N382 2.008 . S
Co376 N387 1.995 . S
Co376 N392 2.282 . S
Co376 N398 2.282 . S
N377 Co376 1.995 . S
N377 C378 1.376 . S
N377 C381 1.383 . S
C378 N377 1.376 . S
C378 C379 1.446 . S
C378 C408 1.391 . S
C379 C378 1.446 . S
C379 C380 1.339 . S
C379 H414 0.949 . S
C380 C379 1.339 . S
C380 C381 1.439 . S
C380 H415 0.950 . S
C381 N377 1.383 . S
C381 C380 1.439 . S
C381 C410 1.392 . S
N382 Co376 2.008 . S
N382 C383 1.376 . S
N382 C386 1.374 . S
C383 N382 1.376 . S
C383 C384 1.443 . S
C383 C410 1.389 . S
C384 C383 1.443 . S
C384 C385 1.340 . S
C384 H416 0.951 . S
C385 C384 1.340 . S
C385 C386 1.439 . S
C385 H417 0.950 . S
C386 N382 1.374 . S
C386 C385 1.439 . S
C386 C411 1.395 . S
N387 Co376 1.995 . S
N387 C388 1.376 . S
N387 C391 1.383 . S
C388 N387 1.376 . S
C388 C389 1.446 . S
C388 C411 1.391 . S
C389 C388 1.446 . S
C389 C390 1.339 . S
C389 H418 0.949 . S
C390 C389 1.339 . S
C390 C391 1.439 . S
C390 H419 0.950 . S
C391 N387 1.383 . S
C391 C390 1.439 . S
C391 C409 1.392 . S
N392 Co376 2.282 . S
N392 C395 1.332 . S
N392 C397 1.332 . S
C393 C394 1.386 . S
C393 C396 1.388 . S
C394 C393 1.386 . S
C394 C395 1.382 . S
C394 H420 0.950 . S
C395 N392 1.332 . S
C395 C394 1.382 . S
C395 H406 0.952 . S
C396 C393 1.388 . S
C396 C397 1.382 . S
C396 H421 0.950 . S
C397 N392 1.332 . S
C397 C396 1.382 . S
C397 H407 0.948 . S
N398 Co376 2.282 . S
N398 C402 1.332 . S
N398 C403 1.332 . S
C399 C400 1.388 . S
C399 C403 1.382 . S
C399 H422 0.950 . S
C400 C399 1.388 . S
C400 C401 1.386 . S
C401 C400 1.386 . S
C401 C402 1.382 . S
C401 H423 0.950 . S
C402 N398 1.332 . S
C402 C401 1.382 . S
C402 H404 0.952 . S
C403 N398 1.332 . S
C403 C399 1.382 . S
C403 H405 0.948 . S
H404 C402 0.952 . S
H405 C403 0.948 . S
H406 C395 0.952 . S
H407 C397 0.948 . S
C408 C374 1.395 . S
C408 C378 1.391 . S
C409 C371 1.389 . S
C409 C391 1.392 . S
C410 C381 1.392 . S
C410 C383 1.389 . S
C411 C386 1.395 . S
C411 C388 1.391 . S
H412 C372 0.951 . S
H413 C373 0.950 . S
H414 C379 0.949 . S
H415 C380 0.950 . S
H416 C384 0.951 . S
H417 C385 0.950 . S
H418 C389 0.949 . S
H419 C390 0.950 . S
H420 C394 0.950 . S
H421 C396 0.950 . S
H422 C399 0.950 . S
H423 C401 0.950 . S
C424 C425 1.443 . S
C424 N428 1.376 . S
C424 C462 1.389 . S
C425 C424 1.443 . S
C425 C426 1.340 . S
C425 H465 0.951 . S
C426 C425 1.340 . S
C426 C427 1.439 . S
C426 H466 0.950 . S
C427 C426 1.439 . S
C427 N428 1.374 . S
C427 C461 1.395 . S
N428 C424 1.376 . S
N428 C427 1.374 . S
N428 Co429 2.008 . S
Co429 N428 2.008 . S
Co429 N430 1.995 . S
Co429 N435 2.008 . S
Co429 N440 1.995 . S
Co429 N445 2.282 . S
Co429 N451 2.282 . S
N430 Co429 1.995 . S
N430 C431 1.376 . S
N430 C434 1.383 . S
C431 N430 1.376 . S
C431 C432 1.446 . S
C431 C461 1.391 . S
C432 C431 1.446 . S
C432 C433 1.339 . S
C432 H467 0.949 . S
C433 C432 1.339 . S
C433 C434 1.439 . S
C433 H468 0.950 . S
C434 N430 1.383 . S
C434 C433 1.439 . S
C434 C463 1.392 . S
N435 Co429 2.008 . S
N435 C436 1.376 . S
N435 C439 1.374 . S
C436 N435 1.376 . S
C436 C437 1.443 . S
C436 C463 1.389 . S
C437 C436 1.443 . S
C437 C438 1.340 . S
C437 H469 0.951 . S
C438 C437 1.340 . S
C438 C439 1.439 . S
C438 H470 0.950 . S
C439 N435 1.374 . S
C439 C438 1.439 . S
C439 C464 1.395 . S
N440 Co429 1.995 . S
N440 C441 1.376 . S
N440 C444 1.383 . S
C441 N440 1.376 . S
C441 C442 1.446 . S
C441 C464 1.391 . S
C442 C441 1.446 . S
C442 C443 1.339 . S
C442 H471 0.949 . S
C443 C442 1.339 . S
C443 C444 1.439 . S
C443 H472 0.950 . S
C444 N440 1.383 . S
C444 C443 1.439 . S
C444 C462 1.392 . S
N445 Co429 2.282 . S
N445 C448 1.332 . S
N445 C450 1.332 . S
C446 C447 1.386 . S
C446 C449 1.388 . S
C447 C446 1.386 . S
C447 C448 1.382 . S
C447 H473 0.950 . S
C448 N445 1.332 . S
C448 C447 1.382 . S
C448 H459 0.952 . S
C449 C446 1.388 . S
C449 C450 1.382 . S
C449 H474 0.950 . S
C450 N445 1.332 . S
C450 C449 1.382 . S
C450 H460 0.948 . S
N451 Co429 2.282 . S
N451 C455 1.332 . S
N451 C456 1.332 . S
C452 C453 1.388 . S
C452 C456 1.382 . S
C452 H475 0.950 . S
C453 C452 1.388 . S
C453 C454 1.386 . S
C454 C453 1.386 . S
C454 C455 1.382 . S
C454 H476 0.950 . S
C455 N451 1.332 . S
C455 C454 1.382 . S
C455 H457 0.952 . S
C456 N451 1.332 . S
C456 C452 1.382 . S
C456 H458 0.948 . S
H457 C455 0.952 . S
H458 C456 0.948 . S
H459 C448 0.952 . S
H460 C450 0.948 . S
C461 C427 1.395 . S
C461 C431 1.391 . S
C462 C424 1.389 . S
C462 C444 1.392 . S
C463 C434 1.392 . S
C463 C436 1.389 . S
C464 C439 1.395 . S
C464 C441 1.391 . S
H465 C425 0.951 . S
H466 C426 0.950 . S
H467 C432 0.949 . S
H468 C433 0.950 . S
H469 C437 0.951 . S
H470 C438 0.950 . S
H471 C442 0.949 . S
H472 C443 0.950 . S
H473 C447 0.950 . S
H474 C449 0.950 . S
H475 C452 0.950 . S
H476 C454 0.950 . S
C477 C478 1.443 . S
C477 N481 1.376 1_556 S
C477 C515 1.389 . S
C478 C477 1.443 . S
C478 C479 1.340 . S
C478 H518 0.951 . S
C479 C478 1.340 . S
C479 C480 1.439 1_556 S
C479 H519 0.950 . S
C480 C479 1.439 1_554 S
C480 N481 1.374 . S
C480 C514 1.395 . S
N481 C477 1.376 1_554 S
N481 C480 1.374 . S
N481 Co482 2.008 . S
Co482 N481 2.008 . S
Co482 N483 1.995 . S
Co482 N488 2.008 . S
Co482 N493 1.995 . S
Co482 N498 2.282 . S
Co482 N504 2.282 . S
N483 Co482 1.995 . S
N483 C484 1.376 . S
N483 C487 1.383 . S
C484 N483 1.376 . S
C484 C485 1.446 . S
C484 C514 1.391 . S
C485 C484 1.446 . S
C485 C486 1.339 . S
C485 H520 0.949 . S
C486 C485 1.339 . S
C486 C487 1.439 . S
C486 H521 0.950 . S
C487 N483 1.383 . S
C487 C486 1.439 . S
C487 C516 1.392 . S
N488 Co482 2.008 . S
N488 C489 1.376 . S
N488 C492 1.374 . S
C489 N488 1.376 . S
C489 C490 1.443 . S
C489 C516 1.389 . S
C490 C489 1.443 . S
C490 C491 1.340 . S
C490 H522 0.951 . S
C491 C490 1.340 . S
C491 C492 1.439 . S
C491 H523 0.950 . S
C492 N488 1.374 . S
C492 C491 1.439 . S
C492 C517 1.395 . S
N493 Co482 1.995 . S
N493 C494 1.376 . S
N493 C497 1.383 1_554 S
C494 N493 1.376 . S
C494 C495 1.446 1_554 S
C494 C517 1.391 . S
C495 C494 1.446 1_556 S
C495 C496 1.339 . S
C495 H524 0.949 . S
C496 C495 1.339 . S
C496 C497 1.439 . S
C496 H525 0.950 . S
C497 N493 1.383 1_556 S
C497 C496 1.439 . S
C497 C515 1.392 . S
N498 Co482 2.282 . S
N498 C501 1.332 . S
N498 C503 1.332 . S
C499 C500 1.386 . S
C499 C502 1.388 . S
C500 C499 1.386 . S
C500 C501 1.382 . S
C500 H526 0.950 . S
C501 N498 1.332 . S
C501 C500 1.382 . S
C501 H512 0.952 . S
C502 C499 1.388 . S
C502 C503 1.382 . S
C502 H527 0.950 . S
C503 N498 1.332 . S
C503 C502 1.382 . S
C503 H513 0.948 . S
N504 Co482 2.282 . S
N504 C508 1.332 . S
N504 C509 1.332 . S
C505 C506 1.388 . S
C505 C509 1.382 . S
C505 H528 0.960 . S
C506 C505 1.388 . S
C506 C507 1.386 . S
C507 C506 1.386 . S
C507 C508 1.382 . S
C507 H529 0.950 . S
C508 N504 1.332 . S
C508 C507 1.382 . S
C508 H510 0.952 . S
C509 N504 1.332 . S
C509 C505 1.382 . S
C509 H511 0.948 . S
H510 C508 0.952 . S
H511 C509 0.948 . S
H512 C501 0.952 . S
H513 C503 0.948 . S
C514 C480 1.395 . S
C514 C484 1.391 . S
C515 C477 1.389 . S
C515 C497 1.392 . S
C516 C487 1.392 . S
C516 C489 1.389 . S
C517 C492 1.395 . S
C517 C494 1.391 . S
H518 C478 0.951 . S
H519 C479 0.950 . S
H520 C485 0.949 . S
H521 C486 0.950 . S
H522 C490 0.951 . S
H523 C491 0.950 . S
H524 C495 0.949 . S
H525 C496 0.950 . S
H526 C500 0.950 . S
H527 C502 0.950 . S
H528 C505 0.960 . S
H529 C507 0.950 . S
C530 C531 1.443 . S
C530 N534 1.376 . S
C530 C568 1.389 . S
C531 C530 1.443 . S
C531 C532 1.340 . S
C531 H571 0.951 . S
C532 C531 1.340 . S
C532 C533 1.439 . S
C532 H572 0.950 . S
C533 C532 1.439 . S
C533 N534 1.374 . S
C533 C567 1.395 . S
N534 C530 1.376 . S
N534 C533 1.374 . S
N534 Co535 2.008 . S
Co535 N534 2.008 . S
Co535 N536 1.995 . S
Co535 N541 2.008 . S
Co535 N546 1.995 . S
Co535 N551 2.282 . S
Co535 N557 2.282 . S
N536 Co535 1.995 . S
N536 C537 1.376 . S
N536 C540 1.383 . S
C537 N536 1.376 . S
C537 C538 1.446 . S
C537 C567 1.391 . S
C538 C537 1.446 . S
C538 C539 1.339 . S
C538 H573 0.949 . S
C539 C538 1.339 . S
C539 C540 1.439 . S
C539 H574 0.950 . S
C540 N536 1.383 . S
C540 C539 1.439 . S
C540 C569 1.392 . S
N541 Co535 2.008 . S
N541 C542 1.376 . S
N541 C545 1.374 . S
C542 N541 1.376 . S
C542 C543 1.443 . S
C542 C569 1.389 . S
C543 C542 1.443 . S
C543 C544 1.340 . S
C543 H575 0.951 . S
C544 C543 1.340 . S
C544 C545 1.439 . S
C544 H576 0.950 . S
C545 N541 1.374 . S
C545 C544 1.439 . S
C545 C570 1.395 . S
N546 Co535 1.995 . S
N546 C547 1.376 . S
N546 C550 1.383 . S
C547 N546 1.376 . S
C547 C548 1.446 . S
C547 C570 1.391 . S
C548 C547 1.446 . S
C548 C549 1.339 . S
C548 H577 0.949 . S
C549 C548 1.339 . S
C549 C550 1.439 . S
C549 H578 0.950 . S
C550 N546 1.383 . S
C550 C549 1.439 . S
C550 C568 1.392 . S
N551 Co535 2.282 . S
N551 C554 1.332 . S
N551 C556 1.332 . S
C552 C553 1.386 . S
C552 C555 1.388 . S
C553 C552 1.386 . S
C553 C554 1.382 . S
C553 H579 0.950 . S
C554 N551 1.332 . S
C554 C553 1.382 . S
C554 H565 0.952 . S
C555 C552 1.388 . S
C555 C556 1.382 . S
C555 H580 0.950 . S
C556 N551 1.332 . S
C556 C555 1.382 . S
C556 H566 0.948 . S
N557 Co535 2.282 . S
N557 C561 1.332 . S
N557 C562 1.332 . S
C558 C559 1.388 . S
C558 C562 1.382 . S
C558 H581 0.950 . S
C559 C558 1.388 . S
C559 C560 1.386 . S
C560 C559 1.386 . S
C560 C561 1.382 . S
C560 H582 0.950 . S
C561 N557 1.332 . S
C561 C560 1.382 . S
C561 H563 0.952 . S
C562 N557 1.332 . S
C562 C558 1.382 . S
C562 H564 0.948 . S
H563 C561 0.952 . S
H564 C562 0.948 . S
H565 C554 0.952 . S
H566 C556 0.948 . S
C567 C533 1.395 . S
C567 C537 1.391 . S
C568 C530 1.389 . S
C568 C550 1.392 . S
C569 C540 1.392 . S
C569 C542 1.389 . S
C570 C545 1.395 . S
C570 C547 1.391 . S
H571 C531 0.951 . S
H572 C532 0.950 . S
H573 C538 0.949 . S
H574 C539 0.950 . S
H575 C543 0.951 . S
H576 C544 0.950 . S
H577 C548 0.949 . S
H578 C549 0.950 . S
H579 C553 0.950 . S
H580 C555 0.950 . S
H581 C558 0.950 . S
H582 C560 0.950 . S
C583 C584 1.443 . S
C583 N587 1.376 . S
C583 C621 1.389 . S
C584 C583 1.443 . S
C584 C585 1.340 . S
C584 H624 0.951 . S
C585 C584 1.340 . S
C585 C586 1.439 . S
C585 H625 0.950 . S
C586 C585 1.439 . S
C586 N587 1.374 . S
C586 C620 1.395 . S
N587 C583 1.376 . S
N587 C586 1.374 . S
N587 Co588 2.008 . S
Co588 N587 2.008 . S
Co588 N589 1.995 . S
Co588 N594 2.008 . S
Co588 N599 1.995 . S
Co588 N604 2.282 . S
Co588 N610 2.282 . S
N589 Co588 1.995 . S
N589 C590 1.376 . S
N589 C593 1.383 . S
C590 N589 1.376 . S
C590 C591 1.446 . S
C590 C620 1.391 . S
C591 C590 1.446 . S
C591 C592 1.339 . S
C591 H626 0.949 . S
C592 C591 1.339 . S
C592 C593 1.439 . S
C592 H627 0.950 . S
C593 N589 1.383 . S
C593 C592 1.439 . S
C593 C622 1.392 . S
N594 Co588 2.008 . S
N594 C595 1.376 . S
N594 C598 1.374 . S
C595 N594 1.376 . S
C595 C596 1.443 . S
C595 C622 1.389 . S
C596 C595 1.443 . S
C596 C597 1.340 . S
C596 H628 0.951 . S
C597 C596 1.340 . S
C597 C598 1.439 . S
C597 H629 0.950 . S
C598 N594 1.374 . S
C598 C597 1.439 . S
C598 C623 1.395 . S
N599 Co588 1.995 . S
N599 C600 1.376 . S
N599 C603 1.383 . S
C600 N599 1.376 . S
C600 C601 1.446 . S
C600 C623 1.391 . S
C601 C600 1.446 . S
C601 C602 1.339 . S
C601 H630 0.949 . S
C602 C601 1.339 . S
C602 C603 1.439 . S
C602 H631 0.950 . S
C603 N599 1.383 . S
C603 C602 1.439 . S
C603 C621 1.392 . S
N604 Co588 2.282 . S
N604 C607 1.332 . S
N604 C609 1.332 . S
C605 C606 1.386 . S
C605 C608 1.388 . S
C606 C605 1.386 . S
C606 C607 1.382 . S
C606 H632 0.950 . S
C607 N604 1.332 . S
C607 C606 1.382 . S
C607 H618 0.952 . S
C608 C605 1.388 . S
C608 C609 1.382 . S
C608 H633 0.950 . S
C609 N604 1.332 . S
C609 C608 1.382 . S
C609 H619 0.948 . S
N610 Co588 2.282 . S
N610 C614 1.332 . S
N610 C615 1.332 . S
C611 C612 1.388 . S
C611 C615 1.382 . S
C611 H634 0.950 . S
C612 C611 1.388 . S
C612 C613 1.386 . S
C613 C612 1.386 . S
C613 C614 1.382 . S
C613 H635 0.950 . S
C614 N610 1.332 . S
C614 C613 1.382 . S
C614 H616 0.952 . S
C615 N610 1.332 . S
C615 C611 1.382 . S
C615 H617 0.948 . S
H616 C614 0.952 . S
H617 C615 0.948 . S
H618 C607 0.952 . S
H619 C609 0.948 . S
C620 C586 1.395 . S
C620 C590 1.391 . S
C621 C583 1.389 . S
C621 C603 1.392 . S
C622 C593 1.392 . S
C622 C595 1.389 . S
C623 C598 1.395 . S
C623 C600 1.391 . S
H624 C584 0.951 . S
H625 C585 0.950 . S
H626 C591 0.949 . S
H627 C592 0.950 . S
H628 C596 0.951 . S
H629 C597 0.950 . S
H630 C601 0.949 . S
H631 C602 0.950 . S
H632 C606 0.950 . S
H633 C608 0.950 . S
H634 C611 0.950 . S
H635 C613 0.950 . S
C636 C637 1.443 . S
C636 N640 1.376 . S
C636 C674 1.389 . S
C637 C636 1.443 . S
C637 C638 1.340 . S
C637 H677 0.951 . S
C638 C637 1.340 . S
C638 C639 1.439 . S
C638 H678 0.950 . S
C639 C638 1.439 . S
C639 N640 1.374 . S
C639 C673 1.395 . S
N640 C636 1.376 . S
N640 C639 1.374 . S
N640 Co641 2.008 . S
Co641 N640 2.008 . S
Co641 N642 1.995 . S
Co641 N647 2.008 . S
Co641 N652 1.995 . S
Co641 N657 2.282 . S
Co641 N663 2.282 . S
N642 Co641 1.995 . S
N642 C643 1.376 . S
N642 C646 1.383 . S
C643 N642 1.376 . S
C643 C644 1.446 . S
C643 C673 1.391 . S
C644 C643 1.446 . S
C644 C645 1.339 . S
C644 H679 0.949 . S
C645 C644 1.339 . S
C645 C646 1.439 . S
C645 H680 0.950 . S
C646 N642 1.383 . S
C646 C645 1.439 . S
C646 C675 1.392 . S
N647 Co641 2.008 . S
N647 C648 1.376 . S
N647 C651 1.374 . S
C648 N647 1.376 . S
C648 C649 1.443 . S
C648 C675 1.389 . S
C649 C648 1.443 . S
C649 C650 1.340 . S
C649 H681 0.951 . S
C650 C649 1.340 . S
C650 C651 1.439 . S
C650 H682 0.950 . S
C651 N647 1.374 . S
C651 C650 1.439 . S
C651 C676 1.395 . S
N652 Co641 1.995 . S
N652 C653 1.376 . S
N652 C656 1.383 . S
C653 N652 1.376 . S
C653 C654 1.446 . S
C653 C676 1.391 . S
C654 C653 1.446 . S
C654 C655 1.339 . S
C654 H683 0.949 . S
C655 C654 1.339 . S
C655 C656 1.439 . S
C655 H684 0.950 . S
C656 N652 1.383 . S
C656 C655 1.439 . S
C656 C674 1.392 . S
N657 Co641 2.282 . S
N657 C660 1.332 . S
N657 C662 1.332 . S
C658 C659 1.386 . S
C658 C661 1.388 . S
C659 C658 1.386 . S
C659 C660 1.382 . S
C659 H685 0.950 . S
C660 N657 1.332 . S
C660 C659 1.382 . S
C660 H671 0.952 . S
C661 C658 1.388 . S
C661 C662 1.382 . S
C661 H686 0.950 . S
C662 N657 1.332 . S
C662 C661 1.382 . S
C662 H672 0.948 . S
N663 Co641 2.282 . S
N663 C667 1.332 . S
N663 C668 1.332 . S
C664 C665 1.388 . S
C664 C668 1.382 . S
C664 H687 0.950 . S
C665 C664 1.388 . S
C665 C666 1.386 . S
C666 C665 1.386 . S
C666 C667 1.382 . S
C666 H688 0.950 . S
C667 N663 1.332 . S
C667 C666 1.382 . S
C667 H669 0.952 . S
C668 N663 1.332 . S
C668 C664 1.382 . S
C668 H670 0.948 . S
H669 C667 0.952 . S
H670 C668 0.948 . S
H671 C660 0.952 . S
H672 C662 0.948 . S
C673 C639 1.395 . S
C673 C643 1.391 . S
C674 C636 1.389 . S
C674 C656 1.392 . S
C675 C646 1.392 . S
C675 C648 1.389 . S
C676 C651 1.395 . S
C676 C653 1.391 . S
H677 C637 0.951 . S
H678 C638 0.950 . S
H679 C644 0.949 . S
H680 C645 0.950 . S
H681 C649 0.951 . S
H682 C650 0.950 . S
H683 C654 0.949 . S
H684 C655 0.950 . S
H685 C659 0.950 . S
H686 C661 0.950 . S
H687 C664 0.950 . S
H688 C666 0.950 . S
C689 C690 1.443 . S
C689 N693 1.376 . S
C689 C727 1.389 . S
C690 C689 1.443 . S
C690 C691 1.340 . S
C690 H730 0.951 . S
C691 C690 1.340 . S
C691 C692 1.439 . S
C691 H731 0.950 . S
C692 C691 1.439 . S
C692 N693 1.374 . S
C692 C726 1.395 . S
N693 C689 1.376 . S
N693 C692 1.374 . S
N693 Co694 2.008 . S
Co694 N693 2.008 . S
Co694 N695 1.995 . S
Co694 N700 2.008 . S
Co694 N705 1.995 . S
Co694 N710 2.282 . S
Co694 N716 2.282 . S
N695 Co694 1.995 . S
N695 C696 1.376 . S
N695 C699 1.383 . S
C696 N695 1.376 . S
C696 C697 1.446 . S
C696 C726 1.391 . S
C697 C696 1.446 . S
C697 C698 1.339 . S
C697 H732 0.949 . S
C698 C697 1.339 . S
C698 C699 1.439 . S
C698 H733 0.950 . S
C699 N695 1.383 . S
C699 C698 1.439 . S
C699 C728 1.392 . S
N700 Co694 2.008 . S
N700 C701 1.376 . S
N700 C704 1.374 . S
C701 N700 1.376 . S
C701 C702 1.443 . S
C701 C728 1.389 . S
C702 C701 1.443 . S
C702 C703 1.340 . S
C702 H734 0.951 . S
C703 C702 1.340 . S
C703 C704 1.439 . S
C703 H735 0.950 . S
C704 N700 1.374 . S
C704 C703 1.439 . S
C704 C729 1.395 . S
N705 Co694 1.995 . S
N705 C706 1.376 . S
N705 C709 1.383 . S
C706 N705 1.376 . S
C706 C707 1.446 . S
C706 C729 1.391 . S
C707 C706 1.446 . S
C707 C708 1.339 . S
C707 H736 0.949 . S
C708 C707 1.339 . S
C708 C709 1.439 . S
C708 H737 0.950 . S
C709 N705 1.383 . S
C709 C708 1.439 . S
C709 C727 1.392 . S
N710 Co694 2.282 . S
N710 C713 1.332 . S
N710 C715 1.332 . S
C711 C712 1.386 . S
C711 C714 1.388 . S
C712 C711 1.386 . S
C712 C713 1.382 . S
C712 H738 0.950 . S
C713 N710 1.332 . S
C713 C712 1.382 . S
C713 H724 0.952 . S
C714 C711 1.388 . S
C714 C715 1.382 . S
C714 H739 0.950 . S
C715 N710 1.332 . S
C715 C714 1.382 . S
C715 H725 0.948 . S
N716 Co694 2.282 . S
N716 C720 1.332 . S
N716 C721 1.332 . S
C717 C718 1.388 . S
C717 C721 1.382 . S
C717 H740 0.950 . S
C718 C717 1.388 . S
C718 C719 1.386 . S
C719 C718 1.386 . S
C719 C720 1.382 . S
C719 H741 0.950 . S
C720 N716 1.332 . S
C720 C719 1.382 . S
C720 H722 0.952 . S
C721 N716 1.332 . S
C721 C717 1.382 . S
C721 H723 0.948 . S
H722 C720 0.952 . S
H723 C721 0.948 . S
H724 C713 0.952 . S
H725 C715 0.948 . S
C726 C692 1.395 . S
C726 C696 1.391 . S
C727 C689 1.389 . S
C727 C709 1.392 . S
C728 C699 1.392 . S
C728 C701 1.389 . S
C729 C704 1.395 . S
C729 C706 1.391 . S
H730 C690 0.951 . S
H731 C691 0.950 . S
H732 C697 0.949 . S
H733 C698 0.950 . S
H734 C702 0.951 . S
H735 C703 0.950 . S
H736 C707 0.949 . S
H737 C708 0.950 . S
H738 C712 0.950 . S
H739 C714 0.950 . S
H740 C717 0.950 . S
H741 C719 0.950 . S
C742 C743 1.443 1_554 S
C742 N746 1.376 . S
C742 C780 1.390 . S
C743 C742 1.443 1_556 S
C743 C744 1.340 . S
C743 H783 0.951 . S
C744 C743 1.340 . S
C744 C745 1.439 1_556 S
C744 H784 0.950 . S
C745 C744 1.439 1_554 S
C745 N746 1.374 . S
C745 C779 1.395 . S
N746 C742 1.376 . S
N746 C745 1.374 . S
N746 Co747 2.008 . S
Co747 N746 2.008 . S
Co747 N748 1.995 . S
Co747 N753 2.008 . S
Co747 N758 1.995 . S
Co747 N763 2.282 . S
Co747 N769 2.282 1_554 S
N748 Co747 1.995 . S
N748 C749 1.376 . S
N748 C752 1.383 . S
C749 N748 1.376 . S
C749 C750 1.446 . S
C749 C779 1.391 . S
C750 C749 1.446 . S
C750 C751 1.339 . S
C750 H785 0.949 . S
C751 C750 1.339 . S
C751 C752 1.439 . S
C751 H786 0.950 . S
C752 N748 1.383 . S
C752 C751 1.439 . S
C752 C781 1.392 . S
N753 Co747 2.008 . S
N753 C754 1.376 . S
N753 C757 1.374 . S
C754 N753 1.376 . S
C754 C755 1.443 . S
C754 C781 1.389 . S
C755 C754 1.443 . S
C755 C756 1.340 . S
C755 H787 0.951 . S
C756 C755 1.340 . S
C756 C757 1.439 . S
C756 H788 0.950 . S
C757 N753 1.374 . S
C757 C756 1.439 . S
C757 C782 1.395 . S
N758 Co747 1.995 . S
N758 C759 1.376 . S
N758 C762 1.383 . S
C759 N758 1.376 . S
C759 C760 1.446 . S
C759 C782 1.391 . S
C760 C759 1.446 . S
C760 C761 1.339 . S
C760 H789 0.949 . S
C761 C760 1.339 . S
C761 C762 1.439 . S
C761 H790 0.950 . S
C762 N758 1.383 . S
C762 C761 1.439 . S
C762 C780 1.398 . S
N763 Co747 2.282 . S
N763 C766 1.332 . S
N763 C768 1.332 . S
C764 C765 1.386 . S
C764 C767 1.388 . S
C765 C764 1.386 . S
C765 C766 1.382 . S
C765 H791 0.950 . S
C766 N763 1.332 . S
C766 C765 1.382 . S
C766 H777 0.952 . S
C767 C764 1.388 . S
C767 C768 1.382 . S
C767 H792 0.950 . S
C768 N763 1.332 . S
C768 C767 1.382 . S
C768 H778 0.948 . S
N769 Co747 2.282 1_556 S
N769 C773 1.332 . S
N769 C774 1.332 . S
C770 C771 1.388 . S
C770 C774 1.382 . S
C770 H793 0.950 . S
C771 C770 1.388 . S
C771 C772 1.386 . S
C772 C771 1.386 . S
C772 C773 1.382 . S
C772 H794 0.950 . S
C773 N769 1.332 . S
C773 C772 1.382 . S
C773 H775 0.952 . S
C774 N769 1.332 . S
C774 C770 1.382 . S
C774 H776 0.948 . S
H775 C773 0.952 . S
H776 C774 0.948 . S
H777 C766 0.952 . S
H778 C768 0.948 . S
C779 C745 1.395 . S
C779 C749 1.391 . S
C780 C742 1.390 . S
C780 C762 1.398 . S
C781 C752 1.392 . S
C781 C754 1.389 . S
C782 C757 1.395 . S
C782 C759 1.391 . S
H783 C743 0.951 . S
H784 C744 0.950 . S
H785 C750 0.949 . S
H786 C751 0.950 . S
H787 C755 0.951 . S
H788 C756 0.950 . S
H789 C760 0.949 . S
H790 C761 0.950 . S
H791 C765 0.950 . S
H792 C767 0.950 . S
H793 C770 0.950 . S
H794 C772 0.950 . S
C795 C796 1.443 . S
C795 N799 1.376 . S
C795 C833 1.389 . S
C796 C795 1.443 . S
C796 C797 1.340 . S
C796 H836 0.951 . S
C797 C796 1.340 . S
C797 C798 1.439 . S
C797 H837 0.950 . S
C798 C797 1.439 . S
C798 N799 1.374 . S
C798 C832 1.395 . S
N799 C795 1.376 . S
N799 C798 1.374 . S
N799 Co800 2.008 . S
Co800 N799 2.008 . S
Co800 N801 1.995 . S
Co800 N806 2.008 . S
Co800 N811 1.995 . S
Co800 N816 2.282 . S
Co800 N822 2.282 . S
N801 Co800 1.995 . S
N801 C802 1.376 . S
N801 C805 1.383 . S
C802 N801 1.376 . S
C802 C803 1.446 . S
C802 C832 1.391 . S
C803 C802 1.446 . S
C803 C804 1.339 . S
C803 H838 0.949 . S
C804 C803 1.339 . S
C804 C805 1.439 . S
C804 H839 0.950 . S
C805 N801 1.383 . S
C805 C804 1.439 . S
C805 C834 1.392 . S
N806 Co800 2.008 . S
N806 C807 1.376 . S
N806 C810 1.374 . S
C807 N806 1.376 . S
C807 C808 1.443 . S
C807 C834 1.389 . S
C808 C807 1.443 . S
C808 C809 1.340 . S
C808 H840 0.951 . S
C809 C808 1.340 . S
C809 C810 1.439 . S
C809 H841 0.950 . S
C810 N806 1.374 . S
C810 C809 1.439 . S
C810 C835 1.395 . S
N811 Co800 1.995 . S
N811 C812 1.376 . S
N811 C815 1.383 . S
C812 N811 1.376 . S
C812 C813 1.446 . S
C812 C835 1.391 . S
C813 C812 1.446 . S
C813 C814 1.339 . S
C813 H842 0.949 . S
C814 C813 1.339 . S
C814 C815 1.439 . S
C814 H843 0.950 . S
C815 N811 1.383 . S
C815 C814 1.439 . S
C815 C833 1.392 . S
N816 Co800 2.282 . S
N816 C819 1.332 . S
N816 C821 1.332 . S
C817 C818 1.386 . S
C817 C820 1.388 . S
C818 C817 1.386 . S
C818 C819 1.382 . S
C818 H844 0.950 . S
C819 N816 1.332 . S
C819 C818 1.382 . S
C819 H830 0.952 . S
C820 C817 1.388 . S
C820 C821 1.382 . S
C820 H845 0.950 . S
C821 N816 1.332 . S
C821 C820 1.382 . S
C821 H831 0.948 . S
N822 Co800 2.282 . S
N822 C826 1.332 . S
N822 C827 1.332 . S
C823 C824 1.388 . S
C823 C827 1.382 . S
C823 H846 0.950 . S
C824 C823 1.388 . S
C824 C825 1.386 . S
C825 C824 1.386 . S
C825 C826 1.382 . S
C825 H847 0.950 . S
C826 N822 1.332 . S
C826 C825 1.382 . S
C826 H828 0.952 . S
C827 N822 1.332 . S
C827 C823 1.382 . S
C827 H829 0.948 . S
H828 C826 0.952 . S
H829 C827 0.948 . S
H830 C819 0.952 . S
H831 C821 0.948 . S
C832 C798 1.395 . S
C832 C802 1.391 . S
C833 C795 1.389 . S
C833 C815 1.392 . S
C834 C805 1.392 . S
C834 C807 1.389 . S
C835 C810 1.395 . S
C835 C812 1.391 . S
H836 C796 0.951 . S
H837 C797 0.950 . S
H838 C803 0.949 . S
H839 C804 0.950 . S
H840 C808 0.951 . S
H841 C809 0.950 . S
H842 C813 0.949 . S
H843 C814 0.950 . S
H844 C818 0.950 . S
H845 C820 0.950 . S
H846 C823 0.950 . S
H847 C825 0.950 . S
C848 C849 1.349 . S
C848 C850 1.327 . S
C848 H873 0.950 . S
C849 C848 1.349 . S
C849 C865 1.349 . S
C850 C848 1.327 . S
C850 C869 1.429 . S
C850 H874 0.950 . S
C851 C868 1.574 . S
C851 C870 1.368 . S
C851 H875 0.949 . S
H852 C856 0.949 . S
C853 C854 1.349 . S
C853 C855 1.327 . S
C853 H876 0.950 . S
C854 C853 1.349 . S
C854 C866 1.349 . S
C855 C853 1.327 . S
C855 C871 1.429 . S
C855 H877 0.950 . S
C856 H852 0.949 . S
C856 C864 1.574 . S
C856 C872 1.368 . S
H857 C865 0.950 . S
H858 C863 0.950 . S
H859 C864 0.949 . S
H860 C866 0.950 . S
H861 C867 0.950 . S
H862 C868 0.949 . S
C863 H858 0.950 . S
C863 C865 1.327 . S
C863 C869 1.429 . S
C864 C856 1.574 . S
C864 H859 0.949 . S
C864 C870 1.368 . S
C865 C849 1.349 . S
C865 H857 0.950 . S
C865 C863 1.327 . S
C866 C854 1.349 . S
C866 H860 0.950 . S
C866 C867 1.327 . S
C867 H861 0.950 . S
C867 C866 1.327 . S
C867 C871 1.429 . S
C868 C851 1.574 . S
C868 H862 0.949 . S
C868 C872 1.368 . S
C869 C850 1.429 . S
C869 C863 1.429 . S
C869 C870 1.523 . S
C870 C851 1.368 . S
C870 C864 1.368 . S
C870 C869 1.523 . S
C871 C855 1.429 . S
C871 C867 1.429 . S
C871 C872 1.523 . S
C872 C856 1.368 . S
C872 C868 1.368 . S
C872 C871 1.523 . S
H873 C848 0.950 . S
H874 C850 0.950 . S
H875 C851 0.949 . S
H876 C853 0.950 . S
H877 C855 0.950 . S
C878 C879 1.349 . S
C878 C880 1.327 . S
C878 H903 0.950 . S
C879 C878 1.349 . S
C879 C895 1.349 . S
C880 C878 1.327 . S
C880 C899 1.429 . S
C880 H904 0.950 . S
C881 C898 1.574 . S
C881 C900 1.368 . S
C881 H905 0.949 . S
H882 C886 0.949 . S
C883 C884 1.349 . S
C883 C885 1.327 . S
C883 H906 0.950 . S
C884 C883 1.349 . S
C884 C896 1.349 . S
C885 C883 1.327 . S
C885 C901 1.429 . S
C885 H907 0.950 . S
C886 H882 0.949 . S
C886 C894 1.574 . S
C886 C902 1.368 . S
H887 C895 0.950 . S
H888 C893 0.950 . S
H889 C894 0.949 . S
H890 C896 0.950 . S
H891 C897 0.950 . S
H892 C898 0.949 . S
C893 H888 0.950 . S
C893 C895 1.327 . S
C893 C899 1.429 . S
C894 C886 1.574 . S
C894 H889 0.949 . S
C894 C900 1.368 . S
C895 C879 1.349 . S
C895 H887 0.950 . S
C895 C893 1.327 . S
C896 C884 1.349 . S
C896 H890 0.950 . S
C896 C897 1.327 . S
C897 H891 0.950 . S
C897 C896 1.327 . S
C897 C901 1.429 . S
C898 C881 1.574 . S
C898 H892 0.949 . S
C898 C902 1.368 . S
C899 C880 1.429 . S
C899 C893 1.429 . S
C899 C900 1.523 . S
C900 C881 1.368 . S
C900 C894 1.368 . S
C900 C899 1.523 . S
C901 C885 1.429 . S
C901 C897 1.429 . S
C901 C902 1.523 . S
C902 C886 1.368 . S
C902 C898 1.368 . S
C902 C901 1.523 . S
H903 C878 0.950 . S
H904 C880 0.950 . S
H905 C881 0.949 . S
H906 C883 0.950 . S
H907 C885 0.950 . S
C908 C909 1.349 . S
C908 C910 1.327 . S
C908 H933 0.950 . S
C909 C908 1.349 . S
C909 C925 1.349 . S
C910 C908 1.327 . S
C910 C929 1.429 . S
C910 H934 0.950 . S
C911 C928 1.574 . S
C911 C930 1.368 . S
C911 H935 0.949 . S
H912 C916 0.949 . S
C913 C914 1.349 . S
C913 C915 1.327 . S
C913 H936 0.950 . S
C914 C913 1.349 . S
C914 C926 1.349 . S
C915 C913 1.327 . S
C915 C931 1.429 . S
C915 H937 0.950 . S
C916 H912 0.949 . S
C916 C924 1.574 . S
C916 C932 1.368 . S
H917 C925 0.950 . S
H918 C923 0.950 . S
H919 C924 0.949 . S
H920 C926 0.950 . S
H921 C927 0.950 . S
H922 C928 0.949 . S
C923 H918 0.950 . S
C923 C925 1.327 . S
C923 C929 1.429 . S
C924 C916 1.574 . S
C924 H919 0.949 . S
C924 C930 1.368 . S
C925 C909 1.349 . S
C925 H917 0.950 . S
C925 C923 1.327 . S
C926 C914 1.349 . S
C926 H920 0.950 . S
C926 C927 1.327 . S
C927 H921 0.950 . S
C927 C926 1.327 . S
C927 C931 1.429 . S
C928 C911 1.574 . S
C928 H922 0.949 . S
C928 C932 1.368 . S
C929 C910 1.429 . S
C929 C923 1.429 . S
C929 C930 1.523 . S
C930 C911 1.368 . S
C930 C924 1.368 . S
C930 C929 1.523 . S
C931 C915 1.429 . S
C931 C927 1.429 . S
C931 C932 1.523 . S
C932 C916 1.368 . S
C932 C928 1.368 . S
C932 C931 1.523 . S
H933 C908 0.950 . S
H934 C910 0.950 . S
H935 C911 0.949 . S
H936 C913 0.950 . S
H937 C915 0.950 . S
C938 C939 1.349 . S
C938 C940 1.327 . S
C938 H963 0.950 . S
C939 C938 1.349 . S
C939 C955 1.349 . S
C940 C938 1.327 . S
C940 C959 1.429 . S
C940 H964 0.950 . S
C941 C958 1.574 . S
C941 C960 1.368 . S
C941 H965 0.949 . S
H942 C946 0.949 . S
C943 C944 1.349 . S
C943 C945 1.327 . S
C943 H966 0.950 . S
C944 C943 1.349 . S
C944 C956 1.349 . S
C945 C943 1.327 . S
C945 C961 1.429 . S
C945 H967 0.950 . S
C946 H942 0.949 . S
C946 C954 1.574 . S
C946 C962 1.368 . S
H947 C955 0.950 . S
H948 C953 0.950 . S
H949 C954 0.949 . S
H950 C956 0.950 . S
H951 C957 0.950 . S
H952 C958 0.949 . S
C953 H948 0.950 . S
C953 C955 1.327 . S
C953 C959 1.429 . S
C954 C946 1.574 . S
C954 H949 0.949 . S
C954 C960 1.368 . S
C955 C939 1.349 . S
C955 H947 0.950 . S
C955 C953 1.327 . S
C956 C944 1.349 . S
C956 H950 0.950 . S
C956 C957 1.327 . S
C957 H951 0.950 . S
C957 C956 1.327 . S
C957 C961 1.429 . S
C958 C941 1.574 . S
C958 H952 0.949 . S
C958 C962 1.368 . S
C959 C940 1.429 . S
C959 C953 1.429 . S
C959 C960 1.523 . S
C960 C941 1.368 . S
C960 C954 1.368 . S
C960 C959 1.523 . S
C961 C945 1.429 . S
C961 C957 1.429 . S
C961 C962 1.523 . S
C962 C946 1.368 . S
C962 C958 1.368 . S
C962 C961 1.523 . S
H963 C938 0.950 . S
H964 C940 0.950 . S
H965 C941 0.949 . S
H966 C943 0.950 . S
H967 C945 0.950 . S
C968 C969 1.349 . S
C968 C970 1.327 . S
C968 H993 0.950 . S
C969 C968 1.349 . S
C969 C985 1.349 . S
C970 C968 1.327 . S
C970 C989 1.429 . S
C970 H994 0.950 . S
C971 C988 1.574 . S
C971 C990 1.368 . S
C971 H995 0.949 . S
H972 C976 0.949 . S
C973 C974 1.349 . S
C973 C975 1.327 . S
C973 H996 0.950 . S
C974 C973 1.349 . S
C974 C986 1.349 . S
C975 C973 1.327 . S
C975 C991 1.429 . S
C975 H997 0.950 . S
C976 H972 0.949 . S
C976 C984 1.574 . S
C976 C992 1.368 . S
H977 C985 0.950 . S
H978 C983 0.950 . S
H979 C984 0.949 . S
H980 C986 0.950 . S
H981 C987 0.950 . S
H982 C988 0.949 . S
C983 H978 0.950 . S
C983 C985 1.327 . S
C983 C989 1.429 . S
C984 C976 1.574 . S
C984 H979 0.949 . S
C984 C990 1.368 . S
C985 C969 1.349 . S
C985 H977 0.950 . S
C985 C983 1.327 . S
C986 C974 1.349 . S
C986 H980 0.950 . S
C986 C987 1.327 . S
C987 H981 0.950 . S
C987 C986 1.327 . S
C987 C991 1.429 . S
C988 C971 1.574 . S
C988 H982 0.949 . S
C988 C992 1.368 . S
C989 C970 1.429 . S
C989 C983 1.429 . S
C989 C990 1.523 . S
C990 C971 1.368 . S
C990 C984 1.368 . S
C990 C989 1.523 . S
C991 C975 1.429 . S
C991 C987 1.429 . S
C991 C992 1.523 . S
C992 C976 1.368 . S
C992 C988 1.368 . S
C992 C991 1.523 . S
H993 C968 0.950 . S
H994 C970 0.950 . S
H995 C971 0.949 . S
H996 C973 0.950 . S
H997 C975 0.950 . S
C998 C999 1.349 . S
C998 C1000 1.327 . S
C998 H1023 0.950 . S
C999 C998 1.349 . S
C999 C1015 1.349 . S
C1000 C998 1.327 . S
C1000 C1019 1.429 . S
C1000 H1024 0.950 . S
C1001 C1018 1.574 . S
C1001 C1020 1.368 . S
C1001 H1025 0.949 . S
H1002 C1006 0.949 . S
C1003 C1004 1.349 . S
C1003 C1005 1.327 . S
C1003 H1026 0.950 . S
C1004 C1003 1.349 . S
C1004 C1016 1.349 . S
C1005 C1003 1.327 . S
C1005 C1021 1.429 . S
C1005 H1027 0.950 . S
C1006 H1002 0.949 . S
C1006 C1014 1.574 . S
C1006 C1022 1.368 . S
H1007 C1015 0.950 . S
H1008 C1013 0.950 . S
H1009 C1014 0.949 . S
H1010 C1016 0.950 . S
H1011 C1017 0.950 . S
H1012 C1018 0.949 . S
C1013 H1008 0.950 . S
C1013 C1015 1.327 . S
C1013 C1019 1.429 . S
C1014 C1006 1.574 . S
C1014 H1009 0.949 . S
C1014 C1020 1.368 . S
C1015 C999 1.349 . S
C1015 H1007 0.950 . S
C1015 C1013 1.327 . S
C1016 C1004 1.349 . S
C1016 H1010 0.950 . S
C1016 C1017 1.327 . S
C1017 H1011 0.950 . S
C1017 C1016 1.327 . S
C1017 C1021 1.429 . S
C1018 C1001 1.574 . S
C1018 H1012 0.949 . S
C1018 C1022 1.368 . S
C1019 C1000 1.429 . S
C1019 C1013 1.429 . S
C1019 C1020 1.523 . S
C1020 C1001 1.368 . S
C1020 C1014 1.368 . S
C1020 C1019 1.523 . S
C1021 C1005 1.429 . S
C1021 C1017 1.429 . S
C1021 C1022 1.523 . S
C1022 C1006 1.368 . S
C1022 C1018 1.368 . S
C1022 C1021 1.523 . S
H1023 C998 0.950 . S
H1024 C1000 0.950 . S
H1025 C1001 0.949 . S
H1026 C1003 0.950 . S
H1027 C1005 0.950 . S
C1028 C1029 1.349 . S
C1028 C1030 1.327 . S
C1028 H1053 0.950 . S
C1029 C1028 1.349 . S
C1029 C1045 1.349 . S
C1030 C1028 1.327 . S
C1030 C1049 1.429 . S
C1030 H1054 0.950 . S
C1031 C1048 1.574 . S
C1031 C1050 1.368 . S
C1031 H1055 0.949 . S
H1032 C1036 0.949 . S
C1033 C1034 1.349 . S
C1033 C1035 1.327 . S
C1033 H1056 0.950 . S
C1034 C1033 1.349 . S
C1034 C1046 1.349 . S
C1035 C1033 1.327 . S
C1035 C1051 1.429 . S
C1035 H1057 0.950 . S
C1036 H1032 0.949 . S
C1036 C1044 1.574 . S
C1036 C1052 1.368 . S
H1037 C1045 0.950 . S
H1038 C1043 0.950 . S
H1039 C1044 0.949 . S
H1040 C1046 0.950 . S
H1041 C1047 0.950 . S
H1042 C1048 0.949 . S
C1043 H1038 0.950 . S
C1043 C1045 1.327 . S
C1043 C1049 1.429 . S
C1044 C1036 1.574 . S
C1044 H1039 0.949 . S
C1044 C1050 1.368 . S
C1045 C1029 1.349 . S
C1045 H1037 0.950 . S
C1045 C1043 1.327 . S
C1046 C1034 1.349 . S
C1046 H1040 0.950 . S
C1046 C1047 1.327 . S
C1047 H1041 0.950 . S
C1047 C1046 1.327 . S
C1047 C1051 1.429 . S
C1048 C1031 1.574 . S
C1048 H1042 0.949 . S
C1048 C1052 1.368 . S
C1049 C1030 1.429 . S
C1049 C1043 1.429 . S
C1049 C1050 1.523 . S
C1050 C1031 1.368 . S
C1050 C1044 1.368 . S
C1050 C1049 1.523 . S
C1051 C1035 1.429 . S
C1051 C1047 1.429 . S
C1051 C1052 1.523 . S
C1052 C1036 1.368 . S
C1052 C1048 1.368 . S
C1052 C1051 1.523 . S
H1053 C1028 0.950 . S
H1054 C1030 0.950 . S
H1055 C1031 0.949 . S
H1056 C1033 0.950 . S
H1057 C1035 0.950 . S
C1058 C1059 1.349 . S
C1058 C1060 1.327 . S
C1058 H1083 0.950 . S
C1059 C1058 1.349 . S
C1059 C1075 1.349 . S
C1060 C1058 1.327 . S
C1060 C1079 1.429 . S
C1060 H1084 0.950 . S
C1061 C1078 1.574 . S
C1061 C1080 1.368 . S
C1061 H1085 0.949 . S
H1062 C1066 0.949 . S
C1063 C1064 1.349 . S
C1063 C1065 1.327 . S
C1063 H1086 0.950 . S
C1064 C1063 1.349 . S
C1064 C1076 1.349 . S
C1065 C1063 1.327 . S
C1065 C1081 1.429 . S
C1065 H1087 0.950 . S
C1066 H1062 0.949 . S
C1066 C1074 1.574 . S
C1066 C1082 1.368 . S
H1067 C1075 0.950 . S
H1068 C1073 0.950 . S
H1069 C1074 0.949 . S
H1070 C1076 0.950 . S
H1071 C1077 0.950 . S
H1072 C1078 0.949 . S
C1073 H1068 0.950 . S
C1073 C1075 1.327 . S
C1073 C1079 1.429 . S
C1074 C1066 1.574 . S
C1074 H1069 0.949 . S
C1074 C1080 1.368 . S
C1075 C1059 1.349 . S
C1075 H1067 0.950 . S
C1075 C1073 1.327 . S
C1076 C1064 1.349 . S
C1076 H1070 0.950 . S
C1076 C1077 1.327 . S
C1077 H1071 0.950 . S
C1077 C1076 1.327 . S
C1077 C1081 1.429 . S
C1078 C1061 1.574 . S
C1078 H1072 0.949 . S
C1078 C1082 1.368 . S
C1079 C1060 1.429 . S
C1079 C1073 1.429 . S
C1079 C1080 1.523 . S
C1080 C1061 1.368 . S
C1080 C1074 1.368 . S
C1080 C1079 1.523 . S
C1081 C1065 1.429 . S
C1081 C1077 1.429 . S
C1081 C1082 1.523 . S
C1082 C1066 1.368 . S
C1082 C1078 1.368 . S
C1082 C1081 1.523 . S
H1083 C1058 0.950 . S
H1084 C1060 0.950 . S
H1085 C1061 0.949 . S
H1086 C1063 0.950 . S
H1087 C1065 0.950 . S
C1088 C1089 1.349 . S
C1088 C1090 1.327 . S
C1088 H1113 0.950 . S
C1089 C1088 1.349 . S
C1089 C1105 1.349 . S
C1090 C1088 1.327 . S
C1090 C1109 1.429 . S
C1090 H1114 0.950 . S
C1091 C1108 1.574 1_545 S
C1091 C1110 1.368 . S
C1091 H1115 0.949 . S
H1092 C1096 0.949 . S
C1093 C1094 1.349 . S
C1093 C1095 1.327 . S
C1093 H1116 0.950 . S
C1094 C1093 1.349 . S
C1094 C1106 1.349 . S
C1095 C1093 1.327 . S
C1095 C1111 1.429 . S
C1095 H1117 0.950 . S
C1096 H1092 0.949 . S
C1096 C1104 1.574 1_565 S
C1096 C1112 1.368 . S
H1097 C1105 0.950 . S
H1098 C1103 0.950 . S
H1099 C1104 0.949 . S
H1100 C1106 0.950 . S
H1101 C1107 0.950 . S
H1102 C1108 0.949 . S
C1103 H1098 0.950 . S
C1103 C1105 1.327 . S
C1103 C1109 1.429 . S
C1104 C1096 1.574 1_545 S
C1104 H1099 0.949 . S
C1104 C1110 1.368 1_655 S
C1105 C1089 1.349 . S
C1105 H1097 0.950 . S
C1105 C1103 1.327 . S
C1106 C1094 1.349 . S
C1106 H1100 0.950 . S
C1106 C1107 1.327 . S
C1107 H1101 0.950 . S
C1107 C1106 1.327 . S
C1107 C1111 1.429 . S
C1108 C1091 1.574 1_565 S
C1108 H1102 0.949 . S
C1108 C1112 1.368 1_455 S
C1109 C1090 1.429 . S
C1109 C1103 1.429 . S
C1109 C1110 1.523 . S
C1110 C1091 1.368 . S
C1110 C1104 1.368 1_455 S
C1110 C1109 1.523 . S
C1111 C1095 1.429 . S
C1111 C1107 1.429 . S
C1111 C1112 1.523 . S
C1112 C1096 1.368 . S
C1112 C1108 1.368 1_655 S
C1112 C1111 1.523 . S
H1113 C1088 0.950 . S
H1114 C1090 0.950 . S
H1115 C1091 0.949 . S
H1116 C1093 0.950 . S
H1117 C1095 0.950 . S
C1118 C1119 1.349 . S
C1118 C1120 1.327 . S
C1118 H1143 0.950 . S
C1119 C1118 1.349 . S
C1119 C1135 1.349 . S
C1120 C1118 1.327 . S
C1120 C1139 1.429 . S
C1120 H1144 0.950 . S
C1121 C1138 1.551 1_655 S
C1121 C1140 1.390 . S
C1121 H1145 0.951 . S
H1122 C1126 0.951 . S
C1123 C1124 1.349 . S
C1123 C1125 1.327 . S
C1123 H1146 0.950 . S
C1124 C1123 1.349 . S
C1124 C1136 1.349 . S
C1125 C1123 1.327 . S
C1125 C1141 1.429 . S
C1125 H1147 0.950 . S
C1126 H1122 0.951 . S
C1126 C1134 1.551 1_455 S
C1126 C1142 1.390 . S
H1127 C1135 0.950 . S
H1128 C1133 0.950 . S
H1129 C1134 0.949 . S
H1130 C1136 0.950 . S
H1131 C1137 0.950 . S
H1132 C1138 0.949 . S
C1133 H1128 0.950 . S
C1133 C1135 1.327 . S
C1133 C1139 1.429 . S
C1134 C1126 1.551 1_655 S
C1134 H1129 0.949 . S
C1134 C1140 1.368 . S
C1135 C1119 1.349 . S
C1135 H1127 0.950 . S
C1135 C1133 1.327 . S
C1136 C1124 1.349 . S
C1136 H1130 0.950 . S
C1136 C1137 1.327 . S
C1137 H1131 0.950 . S
C1137 C1136 1.327 . S
C1137 C1141 1.429 . S
C1138 C1121 1.551 1_455 S
C1138 H1132 0.949 . S
C1138 C1142 1.368 . S
C1139 C1120 1.429 . S
C1139 C1133 1.429 . S
C1139 C1140 1.523 . S
C1140 C1121 1.390 . S
C1140 C1134 1.368 . S
C1140 C1139 1.523 . S
C1141 C1125 1.429 . S
C1141 C1137 1.429 . S
C1141 C1142 1.523 . S
C1142 C1126 1.390 . S
C1142 C1138 1.368 . S
C1142 C1141 1.523 . S
H1143 C1118 0.950 . S
H1144 C1120 0.950 . S
H1145 C1121 0.951 . S
H1146 C1123 0.950 . S
H1147 C1125 0.950 . S
C1148 C1149 1.349 . S
C1148 C1150 1.327 . S
C1148 H1173 0.950 . S
C1149 C1148 1.349 . S
C1149 C1165 1.349 . S
C1150 C1148 1.327 . S
C1150 C1169 1.429 . S
C1150 H1174 0.950 . S
C1151 C1168 1.574 . S
C1151 C1170 1.368 . S
C1151 H1175 0.949 . S
H1152 C1156 0.949 . S
C1153 C1154 1.349 . S
C1153 C1155 1.327 . S
C1153 H1176 0.950 . S
C1154 C1153 1.349 . S
C1154 C1166 1.349 . S
C1155 C1153 1.327 . S
C1155 C1171 1.429 . S
C1155 H1177 0.950 . S
C1156 H1152 0.949 . S
C1156 C1164 1.574 . S
C1156 C1172 1.368 . S
H1157 C1165 0.950 . S
H1158 C1163 0.950 . S
H1159 C1164 0.949 . S
H1160 C1166 0.950 . S
H1161 C1167 0.950 . S
H1162 C1168 0.949 . S
C1163 H1158 0.950 . S
C1163 C1165 1.327 . S
C1163 C1169 1.429 . S
C1164 C1156 1.574 . S
C1164 H1159 0.949 . S
C1164 C1170 1.368 . S
C1165 C1149 1.349 . S
C1165 H1157 0.950 . S
C1165 C1163 1.327 . S
C1166 C1154 1.349 . S
C1166 H1160 0.950 . S
C1166 C1167 1.327 . S
C1167 H1161 0.950 . S
C1167 C1166 1.327 . S
C1167 C1171 1.429 . S
C1168 C1151 1.574 . S
C1168 H1162 0.949 . S
C1168 C1172 1.368 . S
C1169 C1150 1.429 . S
C1169 C1163 1.429 . S
C1169 C1170 1.523 . S
C1170 C1151 1.368 . S
C1170 C1164 1.368 . S
C1170 C1169 1.523 . S
C1171 C1155 1.429 . S
C1171 C1167 1.429 . S
C1171 C1172 1.523 . S
C1172 C1156 1.368 . S
C1172 C1168 1.368 . S
C1172 C1171 1.523 . S
H1173 C1148 0.950 . S
H1174 C1150 0.950 . S
H1175 C1151 0.949 . S
H1176 C1153 0.950 . S
H1177 C1155 0.950 . S
C1178 C1179 1.349 1_556 S
C1178 C1180 1.327 . S
C1178 H1203 0.950 . S
C1179 C1178 1.349 1_554 S
C1179 C1195 1.349 . S
C1180 C1178 1.327 . S
C1180 C1199 1.429 1_556 S
C1180 H1204 0.950 . S
C1181 C1198 1.550 1_565 S
C1181 C1200 1.391 . S
C1181 H1205 0.951 . S
H1182 C1186 0.951 . S
C1183 C1184 1.349 . S
C1183 C1185 1.327 . S
C1183 H1206 0.950 . S
C1184 C1183 1.349 . S
C1184 C1196 1.349 1_554 S
C1185 C1183 1.327 . S
C1185 C1201 1.429 . S
C1185 H1207 0.950 . S
C1186 H1182 0.951 . S
C1186 C1194 1.550 1_545 S
C1186 C1202 1.391 1_556 S
H1187 C1195 0.950 . S
H1188 C1193 0.950 . S
H1189 C1194 0.949 . S
H1190 C1196 0.950 . S
H1191 C1197 0.950 . S
H1192 C1198 0.949 . S
C1193 H1188 0.950 . S
C1193 C1195 1.327 . S
C1193 C1199 1.429 . S
C1194 C1186 1.550 1_565 S
C1194 H1189 0.949 . S
C1194 C1200 1.368 1_556 S
C1195 C1179 1.349 . S
C1195 H1187 0.950 . S
C1195 C1193 1.327 . S
C1196 C1184 1.349 1_556 S
C1196 H1190 0.950 . S
C1196 C1197 1.327 . S
C1197 H1191 0.950 . S
C1197 C1196 1.327 . S
C1197 C1201 1.429 1_556 S
C1198 C1181 1.550 1_545 S
C1198 H1192 0.949 . S
C1198 C1202 1.368 . S
C1199 C1180 1.429 1_554 S
C1199 C1193 1.429 . S
C1199 C1200 1.523 . S
C1200 C1181 1.391 . S
C1200 C1194 1.368 1_554 S
C1200 C1199 1.523 . S
C1201 C1185 1.429 . S
C1201 C1197 1.429 1_554 S
C1201 C1202 1.523 . S
C1202 C1186 1.391 1_554 S
C1202 C1198 1.368 . S
C1202 C1201 1.523 . S
H1203 C1178 0.950 . S
H1204 C1180 0.950 . S
H1205 C1181 0.951 . S
H1206 C1183 0.950 . S
H1207 C1185 0.950 . S
C1208 C1209 1.349 . S
C1208 C1210 1.327 . S
C1208 H1233 0.950 . S
C1209 C1208 1.349 . S
C1209 C1225 1.349 . S
C1210 C1208 1.327 . S
C1210 C1229 1.429 . S
C1210 H1234 0.950 . S
C1211 C1228 1.574 . S
C1211 C1230 1.368 . S
C1211 H1235 0.949 . S
H1212 C1216 0.949 . S
C1213 C1214 1.349 . S
C1213 C1215 1.327 . S
C1213 H1236 0.950 . S
C1214 C1213 1.349 . S
C1214 C1226 1.349 . S
C1215 C1213 1.327 . S
C1215 C1231 1.429 . S
C1215 H1237 0.950 . S
C1216 H1212 0.949 . S
C1216 C1224 1.574 . S
C1216 C1232 1.368 . S
H1217 C1225 0.950 . S
H1218 C1223 0.950 . S
H1219 C1224 0.949 . S
H1220 C1226 0.950 . S
H1221 C1227 0.950 . S
H1222 C1228 0.949 . S
C1223 H1218 0.950 . S
C1223 C1225 1.327 . S
C1223 C1229 1.429 . S
C1224 C1216 1.574 . S
C1224 H1219 0.949 . S
C1224 C1230 1.368 1_655 S
C1225 C1209 1.349 . S
C1225 H1217 0.950 . S
C1225 C1223 1.327 . S
C1226 C1214 1.349 . S
C1226 H1220 0.950 . S
C1226 C1227 1.327 . S
C1227 H1221 0.950 . S
C1227 C1226 1.327 . S
C1227 C1231 1.429 . S
C1228 C1211 1.574 . S
C1228 H1222 0.949 . S
C1228 C1232 1.368 1_455 S
C1229 C1210 1.429 . S
C1229 C1223 1.429 . S
C1229 C1230 1.523 . S
C1230 C1211 1.368 . S
C1230 C1224 1.368 1_455 S
C1230 C1229 1.523 . S
C1231 C1215 1.429 . S
C1231 C1227 1.429 . S
C1231 C1232 1.523 . S
C1232 C1216 1.368 . S
C1232 C1228 1.368 1_655 S
C1232 C1231 1.523 . S
H1233 C1208 0.950 . S
H1234 C1210 0.950 . S
H1235 C1211 0.949 . S
H1236 C1213 0.950 . S
H1237 C1215 0.950 . S
C1238 C1239 1.349 . S
C1238 C1240 1.327 . S
C1238 H1263 0.950 . S
C1239 C1238 1.349 . S
C1239 C1255 1.349 . S
C1240 C1238 1.327 . S
C1240 C1259 1.429 . S
C1240 H1264 0.950 . S
C1241 C1258 1.574 . S
C1241 C1260 1.368 . S
C1241 H1265 0.949 . S
H1242 C1246 0.949 . S
C1243 C1244 1.349 . S
C1243 C1245 1.327 . S
C1243 H1266 0.950 . S
C1244 C1243 1.349 . S
C1244 C1256 1.349 . S
C1245 C1243 1.327 . S
C1245 C1261 1.429 . S
C1245 H1267 0.950 . S
C1246 H1242 0.949 . S
C1246 C1254 1.574 . S
C1246 C1262 1.368 . S
H1247 C1255 0.950 . S
H1248 C1253 0.950 . S
H1249 C1254 0.949 . S
H1250 C1256 0.950 . S
H1251 C1257 0.950 . S
H1252 C1258 0.949 . S
C1253 H1248 0.950 . S
C1253 C1255 1.327 . S
C1253 C1259 1.429 . S
C1254 C1246 1.574 . S
C1254 H1249 0.949 . S
C1254 C1260 1.368 . S
C1255 C1239 1.349 . S
C1255 H1247 0.950 . S
C1255 C1253 1.327 . S
C1256 C1244 1.349 . S
C1256 H1250 0.950 . S
C1256 C1257 1.327 . S
C1257 H1251 0.950 . S
C1257 C1256 1.327 . S
C1257 C1261 1.429 . S
C1258 C1241 1.574 . S
C1258 H1252 0.949 . S
C1258 C1262 1.368 . S
C1259 C1240 1.429 . S
C1259 C1253 1.429 . S
C1259 C1260 1.523 . S
C1260 C1241 1.368 . S
C1260 C1254 1.368 . S
C1260 C1259 1.523 . S
C1261 C1245 1.429 . S
C1261 C1257 1.429 . S
C1261 C1262 1.523 . S
C1262 C1246 1.368 . S
C1262 C1258 1.368 . S
C1262 C1261 1.523 . S
H1263 C1238 0.950 . S
H1264 C1240 0.950 . S
H1265 C1241 0.949 . S
H1266 C1243 0.950 . S
H1267 C1245 0.950 . S
C1268 C1269 1.349 . S
C1268 C1270 1.327 . S
C1268 H1293 0.950 . S
C1269 C1268 1.349 . S
C1269 C1285 1.349 . S
C1270 C1268 1.327 . S
C1270 C1289 1.429 . S
C1270 H1294 0.950 . S
C1271 C1288 1.574 1_545 S
C1271 C1290 1.368 . S
C1271 H1295 0.949 . S
H1272 C1276 0.949 . S
C1273 C1274 1.349 . S
C1273 C1275 1.327 . S
C1273 H1296 0.950 . S
C1274 C1273 1.349 . S
C1274 C1286 1.349 . S
C1275 C1273 1.327 . S
C1275 C1291 1.429 . S
C1275 H1297 0.950 . S
C1276 H1272 0.949 . S
C1276 C1284 1.574 1_565 S
C1276 C1292 1.368 . S
H1277 C1285 0.950 . S
H1278 C1283 0.950 . S
H1279 C1284 0.949 . S
H1280 C1286 0.950 . S
H1281 C1287 0.950 . S
H1282 C1288 0.949 . S
C1283 H1278 0.950 . S
C1283 C1285 1.327 . S
C1283 C1289 1.429 . S
C1284 C1276 1.574 1_545 S
C1284 H1279 0.949 . S
C1284 C1290 1.368 . S
C1285 C1269 1.349 . S
C1285 H1277 0.950 . S
C1285 C1283 1.327 . S
C1286 C1274 1.349 . S
C1286 H1280 0.950 . S
C1286 C1287 1.327 . S
C1287 H1281 0.950 . S
C1287 C1286 1.327 . S
C1287 C1291 1.429 . S
C1288 C1271 1.574 1_565 S
C1288 H1282 0.949 . S
C1288 C1292 1.368 . S
C1289 C1270 1.429 . S
C1289 C1283 1.429 . S
C1289 C1290 1.523 . S
C1290 C1271 1.368 . S
C1290 C1284 1.368 . S
C1290 C1289 1.523 . S
C1291 C1275 1.429 . S
C1291 C1287 1.429 . S
C1291 C1292 1.523 . S
C1292 C1276 1.368 . S
C1292 C1288 1.368 . S
C1292 C1291 1.523 . S
H1293 C1268 0.950 . S
H1294 C1270 0.950 . S
H1295 C1271 0.949 . S
H1296 C1273 0.950 . S
H1297 C1275 0.950 . S
C1298 C1299 1.349 . S
C1298 C1300 1.327 . S
C1298 H1323 0.950 . S
C1299 C1298 1.349 . S
C1299 C1315 1.349 . S
C1300 C1298 1.327 . S
C1300 C1319 1.429 . S
C1300 H1324 0.950 . S
C1301 C1318 1.527 1_445 S
C1301 C1320 1.390 . S
C1301 H1325 0.951 . S
H1302 C1306 0.951 . S
C1303 C1304 1.349 . S
C1303 C1305 1.327 . S
C1303 H1326 0.950 . S
C1304 C1303 1.349 . S
C1304 C1316 1.349 . S
C1305 C1303 1.327 . S
C1305 C1321 1.429 . S
C1305 H1327 0.950 . S
C1306 H1302 0.951 . S
C1306 C1314 1.527 1_665 S
C1306 C1322 1.390 . S
H1307 C1315 0.950 . S
H1308 C1313 0.950 . S
H1309 C1314 0.951 . S
H1310 C1316 0.950 . S
H1311 C1317 0.950 . S
H1312 C1318 0.951 . S
C1313 H1308 0.950 . S
C1313 C1315 1.327 . S
C1313 C1319 1.429 . S
C1314 C1306 1.527 1_445 S
C1314 H1309 0.951 . S
C1314 C1320 1.390 . S
C1315 C1299 1.349 . S
C1315 H1307 0.950 . S
C1315 C1313 1.327 . S
C1316 C1304 1.349 . S
C1316 H1310 0.950 . S
C1316 C1317 1.327 . S
C1317 H1311 0.950 . S
C1317 C1316 1.327 . S
C1317 C1321 1.429 . S
C1318 C1301 1.527 1_665 S
C1318 H1312 0.951 . S
C1318 C1322 1.390 . S
C1319 C1300 1.429 . S
C1319 C1313 1.429 . S
C1319 C1320 1.523 . S
C1320 C1301 1.390 . S
C1320 C1314 1.390 . S
C1320 C1319 1.523 . S
C1321 C1305 1.429 . S
C1321 C1317 1.429 . S
C1321 C1322 1.523 . S
C1322 C1306 1.390 . S
C1322 C1318 1.390 . S
C1322 C1321 1.523 . S
H1323 C1298 0.950 . S
H1324 C1300 0.950 . S
H1325 C1301 0.951 . S
H1326 C1303 0.950 . S
H1327 C1305 0.950 . S
C1328 C1329 1.349 . S
C1328 C1330 1.327 . S
C1328 H1353 0.950 . S
C1329 C1328 1.349 . S
C1329 C1345 1.349 . S
C1330 C1328 1.327 . S
C1330 C1349 1.429 . S
C1330 H1354 0.950 . S
C1331 C1348 1.574 . S
C1331 C1350 1.368 . S
C1331 H1355 0.949 . S
H1332 C1336 0.949 . S
C1333 C1334 1.349 . S
C1333 C1335 1.327 . S
C1333 H1356 0.950 . S
C1334 C1333 1.349 . S
C1334 C1346 1.349 . S
C1335 C1333 1.327 . S
C1335 C1351 1.429 . S
C1335 H1357 0.950 . S
C1336 H1332 0.949 . S
C1336 C1344 1.574 . S
C1336 C1352 1.368 . S
H1337 C1345 0.950 . S
H1338 C1343 0.950 . S
H1339 C1344 0.949 . S
H1340 C1346 0.950 . S
H1341 C1347 0.950 . S
H1342 C1348 0.949 . S
C1343 H1338 0.950 . S
C1343 C1345 1.327 . S
C1343 C1349 1.429 . S
C1344 C1336 1.574 . S
C1344 H1339 0.949 . S
C1344 C1350 1.368 . S
C1345 C1329 1.349 . S
C1345 H1337 0.950 . S
C1345 C1343 1.327 . S
C1346 C1334 1.349 . S
C1346 H1340 0.950 . S
C1346 C1347 1.327 . S
C1347 H1341 0.950 . S
C1347 C1346 1.327 . S
C1347 C1351 1.429 . S
C1348 C1331 1.574 . S
C1348 H1342 0.949 . S
C1348 C1352 1.368 . S
C1349 C1330 1.429 . S
C1349 C1343 1.429 . S
C1349 C1350 1.523 . S
C1350 C1331 1.368 . S
C1350 C1344 1.368 . S
C1350 C1349 1.523 . S
C1351 C1335 1.429 . S
C1351 C1347 1.429 . S
C1351 C1352 1.523 . S
C1352 C1336 1.368 . S
C1352 C1348 1.368 . S
C1352 C1351 1.523 . S
H1353 C1328 0.950 . S
H1354 C1330 0.950 . S
H1355 C1331 0.949 . S
H1356 C1333 0.950 . S
H1357 C1335 0.950 . S
C1358 C1359 1.349 . S
C1358 C1360 1.327 . S
C1358 H1383 0.950 . S
C1359 C1358 1.349 . S
C1359 C1375 1.349 . S
C1360 C1358 1.327 . S
C1360 C1379 1.429 . S
C1360 H1384 0.950 . S
C1361 C1378 1.574 . S
C1361 C1380 1.368 . S
C1361 H1385 0.949 . S
H1362 C1366 0.949 . S
C1363 C1364 1.349 . S
C1363 C1365 1.327 . S
C1363 H1386 0.950 . S
C1364 C1363 1.349 . S
C1364 C1376 1.349 . S
C1365 C1363 1.327 . S
C1365 C1381 1.429 . S
C1365 H1387 0.950 . S
C1366 H1362 0.949 . S
C1366 C1374 1.574 . S
C1366 C1382 1.368 . S
H1367 C1375 0.950 . S
H1368 C1373 0.950 . S
H1369 C1374 0.949 . S
H1370 C1376 0.950 . S
H1371 C1377 0.950 . S
H1372 C1378 0.949 . S
C1373 H1368 0.950 . S
C1373 C1375 1.327 . S
C1373 C1379 1.429 . S
C1374 C1366 1.574 . S
C1374 H1369 0.949 . S
C1374 C1380 1.368 . S
C1375 C1359 1.349 . S
C1375 H1367 0.950 . S
C1375 C1373 1.327 . S
C1376 C1364 1.349 . S
C1376 H1370 0.950 . S
C1376 C1377 1.327 . S
C1377 H1371 0.950 . S
C1377 C1376 1.327 . S
C1377 C1381 1.429 . S
C1378 C1361 1.574 . S
C1378 H1372 0.949 . S
C1378 C1382 1.368 . S
C1379 C1360 1.429 . S
C1379 C1373 1.429 . S
C1379 C1380 1.523 . S
C1380 C1361 1.368 . S
C1380 C1374 1.368 . S
C1380 C1379 1.523 . S
C1381 C1365 1.429 . S
C1381 C1377 1.429 . S
C1381 C1382 1.523 . S
C1382 C1366 1.368 . S
C1382 C1378 1.368 . S
C1382 C1381 1.523 . S
H1383 C1358 0.950 . S
H1384 C1360 0.950 . S
H1385 C1361 0.949 . S
H1386 C1363 0.950 . S
H1387 C1365 0.950 . S
C1388 C1389 1.349 . S
C1388 C1390 1.327 . S
C1388 H1413 0.950 . S
C1389 C1388 1.349 . S
C1389 C1405 1.349 . S
C1390 C1388 1.327 . S
C1390 C1409 1.429 . S
C1390 H1414 0.950 . S
C1391 C1408 1.574 . S
C1391 C1410 1.368 . S
C1391 H1415 0.949 . S
H1392 C1396 0.949 . S
C1393 C1394 1.349 . S
C1393 C1395 1.327 . S
C1393 H1416 0.950 . S
C1394 C1393 1.349 . S
C1394 C1406 1.349 . S
C1395 C1393 1.327 . S
C1395 C1411 1.429 . S
C1395 H1417 0.950 . S
C1396 H1392 0.949 . S
C1396 C1404 1.574 . S
C1396 C1412 1.368 . S
H1397 C1405 0.950 . S
H1398 C1403 0.950 . S
H1399 C1404 0.949 . S
H1400 C1406 0.950 . S
H1401 C1407 0.950 . S
H1402 C1408 0.949 . S
C1403 H1398 0.950 . S
C1403 C1405 1.327 . S
C1403 C1409 1.429 . S
C1404 C1396 1.574 . S
C1404 H1399 0.949 . S
C1404 C1410 1.368 . S
C1405 C1389 1.349 . S
C1405 H1397 0.950 . S
C1405 C1403 1.327 . S
C1406 C1394 1.349 . S
C1406 H1400 0.950 . S
C1406 C1407 1.327 . S
C1407 H1401 0.950 . S
C1407 C1406 1.327 . S
C1407 C1411 1.429 . S
C1408 C1391 1.574 . S
C1408 H1402 0.949 . S
C1408 C1412 1.368 . S
C1409 C1390 1.429 . S
C1409 C1403 1.429 . S
C1409 C1410 1.523 . S
C1410 C1391 1.368 . S
C1410 C1404 1.368 . S
C1410 C1409 1.523 . S
C1411 C1395 1.429 . S
C1411 C1407 1.429 . S
C1411 C1412 1.523 1_556 S
C1412 C1396 1.368 . S
C1412 C1408 1.368 . S
C1412 C1411 1.523 1_554 S
H1413 C1388 0.950 . S
H1414 C1390 0.950 . S
H1415 C1391 0.949 . S
H1416 C1393 0.950 . S
H1417 C1395 0.950 . S
C1418 C1419 1.349 . S
C1418 C1420 1.327 . S
C1418 H1443 0.950 . S
C1419 C1418 1.349 . S
C1419 C1435 1.349 . S
C1420 C1418 1.327 . S
C1420 C1439 1.429 . S
C1420 H1444 0.950 . S
C1421 C1438 1.574 . S
C1421 C1440 1.368 . S
C1421 H1445 0.949 . S
H1422 C1426 0.949 . S
C1423 C1424 1.349 . S
C1423 C1425 1.327 . S
C1423 H1446 0.950 . S
C1424 C1423 1.349 . S
C1424 C1436 1.349 . S
C1425 C1423 1.327 . S
C1425 C1441 1.429 . S
C1425 H1447 0.950 . S
C1426 H1422 0.949 . S
C1426 C1434 1.574 . S
C1426 C1442 1.368 . S
H1427 C1435 0.950 . S
H1428 C1433 0.950 . S
H1429 C1434 0.949 . S
H1430 C1436 0.950 . S
H1431 C1437 0.950 . S
H1432 C1438 0.949 . S
C1433 H1428 0.950 . S
C1433 C1435 1.327 . S
C1433 C1439 1.429 . S
C1434 C1426 1.574 . S
C1434 H1429 0.949 . S
C1434 C1440 1.368 . S
C1435 C1419 1.349 . S
C1435 H1427 0.950 . S
C1435 C1433 1.327 . S
C1436 C1424 1.349 . S
C1436 H1430 0.950 . S
C1436 C1437 1.327 . S
C1437 H1431 0.950 . S
C1437 C1436 1.327 . S
C1437 C1441 1.429 . S
C1438 C1421 1.574 . S
C1438 H1432 0.949 . S
C1438 C1442 1.368 . S
C1439 C1420 1.429 . S
C1439 C1433 1.429 . S
C1439 C1440 1.523 . S
C1440 C1421 1.368 . S
C1440 C1434 1.368 . S
C1440 C1439 1.523 . S
C1441 C1425 1.429 . S
C1441 C1437 1.429 . S
C1441 C1442 1.523 . S
C1442 C1426 1.368 . S
C1442 C1438 1.368 . S
C1442 C1441 1.523 . S
H1443 C1418 0.950 . S
H1444 C1420 0.950 . S
H1445 C1421 0.949 . S
H1446 C1423 0.950 . S
H1447 C1425 0.950 . S
C1448 C1449 1.349 . S
C1448 C1450 1.327 . S
C1448 H1473 0.950 . S
C1449 C1448 1.349 . S
C1449 C1465 1.349 . S
C1450 C1448 1.327 . S
C1450 C1469 1.429 . S
C1450 H1474 0.950 . S
C1451 C1468 1.574 . S
C1451 C1470 1.368 . S
C1451 H1475 0.949 . S
H1452 C1456 0.949 . S
C1453 C1454 1.349 . S
C1453 C1455 1.327 . S
C1453 H1476 0.950 . S
C1454 C1453 1.349 . S
C1454 C1466 1.349 . S
C1455 C1453 1.327 . S
C1455 C1471 1.429 . S
C1455 H1477 0.950 . S
C1456 H1452 0.949 . S
C1456 C1464 1.574 . S
C1456 C1472 1.368 . S
H1457 C1465 0.950 . S
H1458 C1463 0.950 . S
H1459 C1464 0.949 . S
H1460 C1466 0.950 . S
H1461 C1467 0.950 . S
H1462 C1468 0.949 . S
C1463 H1458 0.950 . S
C1463 C1465 1.327 . S
C1463 C1469 1.429 . S
C1464 C1456 1.574 . S
C1464 H1459 0.949 . S
C1464 C1470 1.368 . S
C1465 C1449 1.349 . S
C1465 H1457 0.950 . S
C1465 C1463 1.327 . S
C1466 C1454 1.349 . S
C1466 H1460 0.950 . S
C1466 C1467 1.327 . S
C1467 H1461 0.950 . S
C1467 C1466 1.327 . S
C1467 C1471 1.429 . S
C1468 C1451 1.574 . S
C1468 H1462 0.949 . S
C1468 C1472 1.368 . S
C1469 C1450 1.429 . S
C1469 C1463 1.429 . S
C1469 C1470 1.523 . S
C1470 C1451 1.368 . S
C1470 C1464 1.368 . S
C1470 C1469 1.523 . S
C1471 C1455 1.429 . S
C1471 C1467 1.429 . S
C1471 C1472 1.523 . S
C1472 C1456 1.368 . S
C1472 C1468 1.368 . S
C1472 C1471 1.523 . S
H1473 C1448 0.950 . S
H1474 C1450 0.950 . S
H1475 C1451 0.949 . S
H1476 C1453 0.950 . S
H1477 C1455 0.950 . S
C1478 C1479 1.349 . S
C1478 C1480 1.327 . S
C1478 H1503 0.950 . S
C1479 C1478 1.349 . S
C1479 C1495 1.349 . S
C1480 C1478 1.327 . S
C1480 C1499 1.429 . S
C1480 H1504 0.950 . S
C1481 C1498 1.574 . S
C1481 C1500 1.368 . S
C1481 H1505 0.949 . S
H1482 C1486 0.949 . S
C1483 C1484 1.349 . S
C1483 C1485 1.327 . S
C1483 H1506 0.950 . S
C1484 C1483 1.349 . S
C1484 C1496 1.349 . S
C1485 C1483 1.327 . S
C1485 C1501 1.429 . S
C1485 H1507 0.950 . S
C1486 H1482 0.949 . S
C1486 C1494 1.574 . S
C1486 C1502 1.368 . S
H1487 C1495 0.950 . S
H1488 C1493 0.950 . S
H1489 C1494 0.949 . S
H1490 C1496 0.950 . S
H1491 C1497 0.950 . S
H1492 C1498 0.949 . S
C1493 H1488 0.950 . S
C1493 C1495 1.327 . S
C1493 C1499 1.429 . S
C1494 C1486 1.574 . S
C1494 H1489 0.949 . S
C1494 C1500 1.368 . S
C1495 C1479 1.349 . S
C1495 H1487 0.950 . S
C1495 C1493 1.327 . S
C1496 C1484 1.349 . S
C1496 H1490 0.950 . S
C1496 C1497 1.327 . S
C1497 H1491 0.950 . S
C1497 C1496 1.327 . S
C1497 C1501 1.429 . S
C1498 C1481 1.574 . S
C1498 H1492 0.949 . S
C1498 C1502 1.368 . S
C1499 C1480 1.429 . S
C1499 C1493 1.429 . S
C1499 C1500 1.523 . S
C1500 C1481 1.368 . S
C1500 C1494 1.368 . S
C1500 C1499 1.523 . S
C1501 C1485 1.429 . S
C1501 C1497 1.429 . S
C1501 C1502 1.523 1_556 S
C1502 C1486 1.368 . S
C1502 C1498 1.368 . S
C1502 C1501 1.523 1_554 S
H1503 C1478 0.950 . S
H1504 C1480 0.950 . S
H1505 C1481 0.949 . S
H1506 C1483 0.950 . S
H1507 C1485 0.950 . S
C1508 C1509 1.349 . S
C1508 C1510 1.327 . S
C1508 H1533 0.950 . S
C1509 C1508 1.349 . S
C1509 C1525 1.349 . S
C1510 C1508 1.327 . S
C1510 C1529 1.429 . S
C1510 H1534 0.950 . S
C1511 C1528 1.574 . S
C1511 C1530 1.368 . S
C1511 H1535 0.949 . S
H1512 C1516 0.949 . S
C1513 C1514 1.349 . S
C1513 C1515 1.327 . S
C1513 H1536 0.950 . S
C1514 C1513 1.349 . S
C1514 C1526 1.349 . S
C1515 C1513 1.327 . S
C1515 C1531 1.429 . S
C1515 H1537 0.950 . S
C1516 H1512 0.949 . S
C1516 C1524 1.574 . S
C1516 C1532 1.368 . S
H1517 C1525 0.950 . S
H1518 C1523 0.950 . S
H1519 C1524 0.949 . S
H1520 C1526 0.950 . S
H1521 C1527 0.950 . S
H1522 C1528 0.949 . S
C1523 H1518 0.950 . S
C1523 C1525 1.327 . S
C1523 C1529 1.429 . S
C1524 C1516 1.574 . S
C1524 H1519 0.949 . S
C1524 C1530 1.368 . S
C1525 C1509 1.349 . S
C1525 H1517 0.950 . S
C1525 C1523 1.327 . S
C1526 C1514 1.349 . S
C1526 H1520 0.950 . S
C1526 C1527 1.327 . S
C1527 H1521 0.950 . S
C1527 C1526 1.327 . S
C1527 C1531 1.429 . S
C1528 C1511 1.574 . S
C1528 H1522 0.949 . S
C1528 C1532 1.368 . S
C1529 C1510 1.429 . S
C1529 C1523 1.429 . S
C1529 C1530 1.523 . S
C1530 C1511 1.368 . S
C1530 C1524 1.368 . S
C1530 C1529 1.523 . S
C1531 C1515 1.429 . S
C1531 C1527 1.429 . S
C1531 C1532 1.523 . S
C1532 C1516 1.368 . S
C1532 C1528 1.368 . S
C1532 C1531 1.523 . S
H1533 C1508 0.950 . S
H1534 C1510 0.950 . S
H1535 C1511 0.949 . S
H1536 C1513 0.950 . S
H1537 C1515 0.950 . S
C1538 C1539 1.349 . S
C1538 C1540 1.327 . S
C1538 H1563 0.950 . S
C1539 C1538 1.349 . S
C1539 C1555 1.349 . S
C1540 C1538 1.327 . S
C1540 C1559 1.429 . S
C1540 H1564 0.950 . S
C1541 C1558 1.574 . S
C1541 C1560 1.368 . S
C1541 H1565 0.949 . S
H1542 C1546 0.949 . S
C1543 C1544 1.349 . S
C1543 C1545 1.327 . S
C1543 H1566 0.950 . S
C1544 C1543 1.349 . S
C1544 C1556 1.349 . S
C1545 C1543 1.327 . S
C1545 C1561 1.429 . S
C1545 H1567 0.950 . S
C1546 H1542 0.949 . S
C1546 C1554 1.574 . S
C1546 C1562 1.368 . S
H1547 C1555 0.950 . S
H1548 C1553 0.950 . S
H1549 C1554 0.949 . S
H1550 C1556 0.950 . S
H1551 C1557 0.950 . S
H1552 C1558 0.949 . S
C1553 H1548 0.950 . S
C1553 C1555 1.327 . S
C1553 C1559 1.429 . S
C1554 C1546 1.574 . S
C1554 H1549 0.949 . S
C1554 C1560 1.368 . S
C1555 C1539 1.349 . S
C1555 H1547 0.950 . S
C1555 C1553 1.327 . S
C1556 C1544 1.349 . S
C1556 H1550 0.950 . S
C1556 C1557 1.327 . S
C1557 H1551 0.950 . S
C1557 C1556 1.327 . S
C1557 C1561 1.429 . S
C1558 C1541 1.574 . S
C1558 H1552 0.949 . S
C1558 C1562 1.368 . S
C1559 C1540 1.429 . S
C1559 C1553 1.429 . S
C1559 C1560 1.523 . S
C1560 C1541 1.368 . S
C1560 C1554 1.368 . S
C1560 C1559 1.523 . S
C1561 C1545 1.429 . S
C1561 C1557 1.429 . S
C1561 C1562 1.523 . S
C1562 C1546 1.368 . S
C1562 C1558 1.368 . S
C1562 C1561 1.523 . S
H1563 C1538 0.950 . S
H1564 C1540 0.950 . S
H1565 C1541 0.949 . S
H1566 C1543 0.950 . S
H1567 C1545 0.950 . S
C1568 C1569 1.349 . S
C1568 C1570 1.327 . S
C1568 H1593 0.950 . S
C1569 C1568 1.349 . S
C1569 C1585 1.349 . S
C1570 C1568 1.327 . S
C1570 C1589 1.429 . S
C1570 H1594 0.950 . S
C1571 C1588 1.574 . S
C1571 C1590 1.368 1_554 S
C1571 H1595 0.949 . S
H1572 C1576 0.949 . S
C1573 C1574 1.349 . S
C1573 C1575 1.327 . S
C1573 H1596 0.950 . S
C1574 C1573 1.349 . S
C1574 C1586 1.349 . S
C1575 C1573 1.327 . S
C1575 C1591 1.429 . S
C1575 H1597 0.950 . S
C1576 H1572 0.949 . S
C1576 C1584 1.574 1_554 S
C1576 C1592 1.368 . S
H1577 C1585 0.950 . S
H1578 C1583 0.950 . S
H1579 C1584 0.949 . S
H1580 C1586 0.950 . S
H1581 C1587 0.950 . S
H1582 C1588 0.949 . S
C1583 H1578 0.950 . S
C1583 C1585 1.327 . S
C1583 C1589 1.429 . S
C1584 C1576 1.574 1_556 S
C1584 H1579 0.949 . S
C1584 C1590 1.368 . S
C1585 C1569 1.349 . S
C1585 H1577 0.950 . S
C1585 C1583 1.327 . S
C1586 C1574 1.349 . S
C1586 H1580 0.950 . S
C1586 C1587 1.327 . S
C1587 H1581 0.950 . S
C1587 C1586 1.327 . S
C1587 C1591 1.429 . S
C1588 C1571 1.574 . S
C1588 H1582 0.949 . S
C1588 C1592 1.368 . S
C1589 C1570 1.429 . S
C1589 C1583 1.429 . S
C1589 C1590 1.523 . S
C1590 C1571 1.368 1_556 S
C1590 C1584 1.368 . S
C1590 C1589 1.523 . S
C1591 C1575 1.429 . S
C1591 C1587 1.429 . S
C1591 C1592 1.523 . S
C1592 C1576 1.368 . S
C1592 C1588 1.368 . S
C1592 C1591 1.523 . S
H1593 C1568 0.950 . S
H1594 C1570 0.950 . S
H1595 C1571 0.949 . S
H1596 C1573 0.950 . S
H1597 C1575 0.950 . S
C1598 C1599 1.349 . S
C1598 C1600 1.327 . S
C1598 H1623 0.950 . S
C1599 C1598 1.349 . S
C1599 C1615 1.349 . S
C1600 C1598 1.327 . S
C1600 C1619 1.429 . S
C1600 H1624 0.950 . S
C1601 C1618 1.574 . S
C1601 C1620 1.368 . S
C1601 H1625 0.949 . S
H1602 C1606 0.949 . S
C1603 C1604 1.349 . S
C1603 C1605 1.327 . S
C1603 H1626 0.950 . S
C1604 C1603 1.349 . S
C1604 C1616 1.349 . S
C1605 C1603 1.327 . S
C1605 C1621 1.429 . S
C1605 H1627 0.950 . S
C1606 H1602 0.949 . S
C1606 C1614 1.574 . S
C1606 C1622 1.368 . S
H1607 C1615 0.950 . S
H1608 C1613 0.950 . S
H1609 C1614 0.949 . S
H1610 C1616 0.950 . S
H1611 C1617 0.950 . S
H1612 C1618 0.949 . S
C1613 H1608 0.950 . S
C1613 C1615 1.327 . S
C1613 C1619 1.429 . S
C1614 C1606 1.574 . S
C1614 H1609 0.949 . S
C1614 C1620 1.368 . S
C1615 C1599 1.349 . S
C1615 H1607 0.950 . S
C1615 C1613 1.327 . S
C1616 C1604 1.349 . S
C1616 H1610 0.950 . S
C1616 C1617 1.327 . S
C1617 H1611 0.950 . S
C1617 C1616 1.327 . S
C1617 C1621 1.429 . S
C1618 C1601 1.574 . S
C1618 H1612 0.949 . S
C1618 C1622 1.368 . S
C1619 C1600 1.429 . S
C1619 C1613 1.429 . S
C1619 C1620 1.523 . S
C1620 C1601 1.368 . S
C1620 C1614 1.368 . S
C1620 C1619 1.523 . S
C1621 C1605 1.429 . S
C1621 C1617 1.429 . S
C1621 C1622 1.523 . S
C1622 C1606 1.368 . S
C1622 C1618 1.368 . S
C1622 C1621 1.523 . S
H1623 C1598 0.950 . S
H1624 C1600 0.950 . S
H1625 C1601 0.949 . S
H1626 C1603 0.950 . S
H1627 C1605 0.950 . S
C1628 C1629 1.349 . S
C1628 C1630 1.327 . S
C1628 H1653 0.950 . S
C1629 C1628 1.349 . S
C1629 C1645 1.349 . S
C1630 C1628 1.327 . S
C1630 C1649 1.429 . S
C1630 H1654 0.950 . S
C1631 C1648 1.574 . S
C1631 C1650 1.368 . S
C1631 H1655 0.949 . S
H1632 C1636 0.949 . S
C1633 C1634 1.349 . S
C1633 C1635 1.327 . S
C1633 H1656 0.950 . S
C1634 C1633 1.349 . S
C1634 C1646 1.349 . S
C1635 C1633 1.327 . S
C1635 C1651 1.429 . S
C1635 H1657 0.950 . S
C1636 H1632 0.949 . S
C1636 C1644 1.574 . S
C1636 C1652 1.368 . S
H1637 C1645 0.950 . S
H1638 C1643 0.950 . S
H1639 C1644 0.949 . S
H1640 C1646 0.950 . S
H1641 C1647 0.950 . S
H1642 C1648 0.949 . S
C1643 H1638 0.950 . S
C1643 C1645 1.327 . S
C1643 C1649 1.429 . S
C1644 C1636 1.574 . S
C1644 H1639 0.949 . S
C1644 C1650 1.368 . S
C1645 C1629 1.349 . S
C1645 H1637 0.950 . S
C1645 C1643 1.327 . S
C1646 C1634 1.349 . S
C1646 H1640 0.950 . S
C1646 C1647 1.327 . S
C1647 H1641 0.950 . S
C1647 C1646 1.327 . S
C1647 C1651 1.429 . S
C1648 C1631 1.574 . S
C1648 H1642 0.949 . S
C1648 C1652 1.368 . S
C1649 C1630 1.429 . S
C1649 C1643 1.429 . S
C1649 C1650 1.523 . S
C1650 C1631 1.368 . S
C1650 C1644 1.368 . S
C1650 C1649 1.523 . S
C1651 C1635 1.429 . S
C1651 C1647 1.429 . S
C1651 C1652 1.523 . S
C1652 C1636 1.368 . S
C1652 C1648 1.368 . S
C1652 C1651 1.523 . S
H1653 C1628 0.950 . S
H1654 C1630 0.950 . S
H1655 C1631 0.949 . S
H1656 C1633 0.950 . S
H1657 C1635 0.950 . S
C1658 C1659 1.349 . S
C1658 C1660 1.327 . S
C1658 H1683 0.950 . S
C1659 C1658 1.349 . S
C1659 C1675 1.349 . S
C1660 C1658 1.327 . S
C1660 C1679 1.429 . S
C1660 H1684 0.950 . S
C1661 C1678 1.574 . S
C1661 C1680 1.368 . S
C1661 H1685 0.949 . S
H1662 C1666 0.949 . S
C1663 C1664 1.349 . S
C1663 C1665 1.327 . S
C1663 H1686 0.950 . S
C1664 C1663 1.349 . S
C1664 C1676 1.349 . S
C1665 C1663 1.327 . S
C1665 C1681 1.429 . S
C1665 H1687 0.950 . S
C1666 H1662 0.949 . S
C1666 C1674 1.574 . S
C1666 C1682 1.368 . S
H1667 C1675 0.950 . S
H1668 C1673 0.950 . S
H1669 C1674 0.949 . S
H1670 C1676 0.950 . S
H1671 C1677 0.950 . S
H1672 C1678 0.949 . S
C1673 H1668 0.950 . S
C1673 C1675 1.327 . S
C1673 C1679 1.429 . S
C1674 C1666 1.574 . S
C1674 H1669 0.949 . S
C1674 C1680 1.368 . S
C1675 C1659 1.349 . S
C1675 H1667 0.950 . S
C1675 C1673 1.327 . S
C1676 C1664 1.349 . S
C1676 H1670 0.950 . S
C1676 C1677 1.327 . S
C1677 H1671 0.950 . S
C1677 C1676 1.327 . S
C1677 C1681 1.429 . S
C1678 C1661 1.574 . S
C1678 H1672 0.949 . S
C1678 C1682 1.368 . S
C1679 C1660 1.429 . S
C1679 C1673 1.429 . S
C1679 C1680 1.523 . S
C1680 C1661 1.368 . S
C1680 C1674 1.368 . S
C1680 C1679 1.523 . S
C1681 C1665 1.429 . S
C1681 C1677 1.429 . S
C1681 C1682 1.523 . S
C1682 C1666 1.368 . S
C1682 C1678 1.368 . S
C1682 C1681 1.523 . S
H1683 C1658 0.950 . S
H1684 C1660 0.950 . S
H1685 C1661 0.949 . S
H1686 C1663 0.950 . S
H1687 C1665 0.950 . S
C1688 C1689 1.349 . S
C1688 C1690 1.327 . S
C1688 H1713 0.950 . S
C1689 C1688 1.349 . S
C1689 C1705 1.349 . S
C1690 C1688 1.327 . S
C1690 C1709 1.429 . S
C1690 H1714 0.950 . S
C1691 C1708 1.574 . S
C1691 C1710 1.368 . S
C1691 H1715 0.949 . S
H1692 C1696 0.949 . S
C1693 C1694 1.349 . S
C1693 C1695 1.327 . S
C1693 H1716 0.950 . S
C1694 C1693 1.349 . S
C1694 C1706 1.349 . S
C1695 C1693 1.327 . S
C1695 C1711 1.429 . S
C1695 H1717 0.950 . S
C1696 H1692 0.949 . S
C1696 C1704 1.574 . S
C1696 C1712 1.368 . S
H1697 C1705 0.950 . S
H1698 C1703 0.950 . S
H1699 C1704 0.949 . S
H1700 C1706 0.950 . S
H1701 C1707 0.950 . S
H1702 C1708 0.949 . S
C1703 H1698 0.950 . S
C1703 C1705 1.327 . S
C1703 C1709 1.429 . S
C1704 C1696 1.574 . S
C1704 H1699 0.949 . S
C1704 C1710 1.368 . S
C1705 C1689 1.349 . S
C1705 H1697 0.950 . S
C1705 C1703 1.327 . S
C1706 C1694 1.349 . S
C1706 H1700 0.950 . S
C1706 C1707 1.327 . S
C1707 H1701 0.950 . S
C1707 C1706 1.327 . S
C1707 C1711 1.429 . S
C1708 C1691 1.574 . S
C1708 H1702 0.949 . S
C1708 C1712 1.368 . S
C1709 C1690 1.429 . S
C1709 C1703 1.429 . S
C1709 C1710 1.523 . S
C1710 C1691 1.368 . S
C1710 C1704 1.368 . S
C1710 C1709 1.523 . S
C1711 C1695 1.429 . S
C1711 C1707 1.429 . S
C1711 C1712 1.523 . S
C1712 C1696 1.368 . S
C1712 C1708 1.368 . S
C1712 C1711 1.523 . S
H1713 C1688 0.950 . S
H1714 C1690 0.950 . S
H1715 C1691 0.949 . S
H1716 C1693 0.950 . S
H1717 C1695 0.950 . S
C1718 C1719 1.349 . S
C1718 C1720 1.327 . S
C1718 H1743 0.950 . S
C1719 C1718 1.349 . S
C1719 C1735 1.349 . S
C1720 C1718 1.327 . S
C1720 C1739 1.429 . S
C1720 H1744 0.950 . S
C1721 C1738 1.574 . S
C1721 C1740 1.368 . S
C1721 H1745 0.949 . S
H1722 C1726 0.949 . S
C1723 C1724 1.349 . S
C1723 C1725 1.327 . S
C1723 H1746 0.950 . S
C1724 C1723 1.349 . S
C1724 C1736 1.349 . S
C1725 C1723 1.327 . S
C1725 C1741 1.429 . S
C1725 H1747 0.950 . S
C1726 H1722 0.949 . S
C1726 C1734 1.574 . S
C1726 C1742 1.368 . S
H1727 C1735 0.950 . S
H1728 C1733 0.950 . S
H1729 C1734 0.949 . S
H1730 C1736 0.950 . S
H1731 C1737 0.950 . S
H1732 C1738 0.949 . S
C1733 H1728 0.950 . S
C1733 C1735 1.327 . S
C1733 C1739 1.429 . S
C1734 C1726 1.574 . S
C1734 H1729 0.949 . S
C1734 C1740 1.368 . S
C1735 C1719 1.349 . S
C1735 H1727 0.950 . S
C1735 C1733 1.327 . S
C1736 C1724 1.349 . S
C1736 H1730 0.950 . S
C1736 C1737 1.327 . S
C1737 H1731 0.950 . S
C1737 C1736 1.327 . S
C1737 C1741 1.429 . S
C1738 C1721 1.574 . S
C1738 H1732 0.949 . S
C1738 C1742 1.368 . S
C1739 C1720 1.429 . S
C1739 C1733 1.429 . S
C1739 C1740 1.523 . S
C1740 C1721 1.368 . S
C1740 C1734 1.368 . S
C1740 C1739 1.523 . S
C1741 C1725 1.429 . S
C1741 C1737 1.429 . S
C1741 C1742 1.523 . S
C1742 C1726 1.368 . S
C1742 C1738 1.368 . S
C1742 C1741 1.523 . S
H1743 C1718 0.950 . S
H1744 C1720 0.950 . S
H1745 C1721 0.949 . S
H1746 C1723 0.950 . S
H1747 C1725 0.950 . S
C1748 C1749 1.349 . S
C1748 C1750 1.327 . S
C1748 H1773 0.950 . S
C1749 C1748 1.349 . S
C1749 C1765 1.349 . S
C1750 C1748 1.327 . S
C1750 C1769 1.429 . S
C1750 H1774 0.950 . S
C1751 C1768 1.574 . S
C1751 C1770 1.368 . S
C1751 H1775 0.949 . S
H1752 C1756 0.949 . S
C1753 C1754 1.349 . S
C1753 C1755 1.327 . S
C1753 H1776 0.950 . S
C1754 C1753 1.349 . S
C1754 C1766 1.349 . S
C1755 C1753 1.327 . S
C1755 C1771 1.429 . S
C1755 H1777 0.950 . S
C1756 H1752 0.949 . S
C1756 C1764 1.574 . S
C1756 C1772 1.368 . S
H1757 C1765 0.950 . S
H1758 C1763 0.950 . S
H1759 C1764 0.949 . S
H1760 C1766 0.950 . S
H1761 C1767 0.950 . S
H1762 C1768 0.949 . S
C1763 H1758 0.950 . S
C1763 C1765 1.327 . S
C1763 C1769 1.429 . S
C1764 C1756 1.574 . S
C1764 H1759 0.949 . S
C1764 C1770 1.368 . S
C1765 C1749 1.349 . S
C1765 H1757 0.950 . S
C1765 C1763 1.327 . S
C1766 C1754 1.349 . S
C1766 H1760 0.950 . S
C1766 C1767 1.327 . S
C1767 H1761 0.950 . S
C1767 C1766 1.327 . S
C1767 C1771 1.429 . S
C1768 C1751 1.574 . S
C1768 H1762 0.949 . S
C1768 C1772 1.368 . S
C1769 C1750 1.429 . S
C1769 C1763 1.429 . S
C1769 C1770 1.523 . S
C1770 C1751 1.368 . S
C1770 C1764 1.368 . S
C1770 C1769 1.523 . S
C1771 C1755 1.429 . S
C1771 C1767 1.429 . S
C1771 C1772 1.523 . S
C1772 C1756 1.368 . S
C1772 C1768 1.368 . S
C1772 C1771 1.523 . S
H1773 C1748 0.950 . S
H1774 C1750 0.950 . S
H1775 C1751 0.949 . S
H1776 C1753 0.950 . S
H1777 C1755 0.950 . S
C1778 C1779 1.349 . S
C1778 C1780 1.327 . S
C1778 H1803 0.950 . S
C1779 C1778 1.349 . S
C1779 C1795 1.349 . S
C1780 C1778 1.327 . S
C1780 C1799 1.429 . S
C1780 H1804 0.950 . S
C1781 C1798 1.574 . S
C1781 C1800 1.368 . S
C1781 H1805 0.949 . S
H1782 C1786 0.949 1_556 S
C1783 C1784 1.349 . S
C1783 C1785 1.327 . S
C1783 H1806 0.950 . S
C1784 C1783 1.349 . S
C1784 C1796 1.349 . S
C1785 C1783 1.327 . S
C1785 C1801 1.429 . S
C1785 H1807 0.950 . S
C1786 H1782 0.949 1_554 S
C1786 C1794 1.574 . S
C1786 C1802 1.368 1_554 S
H1787 C1795 0.950 . S
H1788 C1793 0.950 . S
H1789 C1794 0.949 . S
H1790 C1796 0.950 . S
H1791 C1797 0.950 . S
H1792 C1798 0.949 1_556 S
C1793 H1788 0.950 . S
C1793 C1795 1.327 . S
C1793 C1799 1.429 . S
C1794 C1786 1.574 . S
C1794 H1789 0.949 . S
C1794 C1800 1.368 . S
C1795 C1779 1.349 . S
C1795 H1787 0.950 . S
C1795 C1793 1.327 . S
C1796 C1784 1.349 . S
C1796 H1790 0.950 . S
C1796 C1797 1.327 . S
C1797 H1791 0.950 . S
C1797 C1796 1.327 . S
C1797 C1801 1.429 . S
C1798 C1781 1.574 . S
C1798 H1792 0.949 1_554 S
C1798 C1802 1.368 1_554 S
C1799 C1780 1.429 . S
C1799 C1793 1.429 . S
C1799 C1800 1.523 . S
C1800 C1781 1.368 . S
C1800 C1794 1.368 . S
C1800 C1799 1.523 . S
C1801 C1785 1.429 . S
C1801 C1797 1.429 . S
C1801 C1802 1.523 . S
C1802 C1786 1.368 1_556 S
C1802 C1798 1.368 1_556 S
C1802 C1801 1.523 . S
H1803 C1778 0.950 . S
H1804 C1780 0.950 . S
H1805 C1781 0.949 . S
H1806 C1783 0.950 . S
H1807 C1785 0.950 . S
C849 C356 2.385 . S
C854 C38 2.385 . S
C879 C393 2.314 . S
C884 C75 2.314 . S
C909 C144 2.385 . S
C914 C250 2.375 1_556 S
C939 C181 2.313 . S
C944 C287 2.313 . S
C969 C462 2.385 . S
C974 C780 2.375 1_556 S
C999 C817 2.313 . S
C1004 C499 2.313 . S
C1029 C568 2.385 . S
C1034 C674 2.385 . S
C1059 C605 2.314 . S
C1064 C711 2.314 . S
C1089 C39 2.738 . S
C1094 C569 2.738 . S
C1119 C82 2.051 . S
C1124 C612 2.051 . S
C1149 C145 2.738 . S
C1154 C463 2.738 . S
C1179 C188 2.051 . S
C1184 C506 2.051 . S
C1209 C251 2.738 . S
C1214 C781 2.738 . S
C1239 C824 2.051 . S
C1244 C294 2.051 . S
C1269 C357 2.737 . S
C1274 C675 2.737 . S
C1299 C718 2.051 . S
C1304 C400 2.051 . S
C1329 C728 0.911 . S
C1334 C29 0.912 . S
C1359 C92 0.911 . S
C1364 C771 0.912 . S
C1389 C834 0.911 . S
C1394 C135 0.912 . S
C1419 C665 0.912 . S
C1424 C198 0.911 . S
C1449 C622 0.911 . S
C1454 C241 0.912 . S
C1479 C304 0.911 . S
C1484 C453 0.912 . S
C1509 C347 0.912 . S
C1514 C516 0.911 . S
C1539 C410 0.911 . S
C1544 C559 0.912 . S
C1569 C727 1.727 . S
C1574 C22 1.726 . S
C1599 C91 1.727 . S
C1604 C764 1.726 . S
C1629 C128 1.726 . S
C1634 C833 1.727 . S
C1659 C658 1.726 . S
C1664 C197 1.727 . S
C1689 C621 1.727 . S
C1694 C234 1.726 . S
C1719 C446 1.726 . S
C1724 C303 1.727 . S
C1749 C340 1.726 . S
C1754 C515 1.727 . S
C1779 C552 1.726 . S
C1784 C409 1.727 . S
