# Generated by pormake.
# Topology mmt, (4)-cn, num edge types: 1
# Building blocks:
#     Node 0, Type 0, BuildingBlock: QUQFOY_clean_sbu_1, # of connection points: 4
#     Node 1, Type 0, BuildingBlock: QUQFOY_clean_sbu_1, # of connection points: 4
#     Node 2, Type 0, BuildingBlock: QUQFOY_clean_sbu_1, # of connection points: 4
#     Node 3, Type 0, BuildingBlock: QUQFOY_clean_sbu_1, # of connection points: 4
#     Node 4, Type 0, BuildingBlock: QUQFOY_clean_sbu_1, # of connection points: 4
#     Node 5, Type 0, BuildingBlock: QUQFOY_clean_sbu_1, # of connection points: 4
#     Node 6, Type 0, BuildingBlock: QUQFOY_clean_sbu_1, # of connection points: 4
#     Node 7, Type 0, BuildingBlock: QUQFOY_clean_sbu_1, # of connection points: 4
#     Edge 8, Type (0, 0), BuildingBlock: MIFKUJ_clean_linker_0, # of connection points: 2
#     Edge 9, Type (0, 0), BuildingBlock: MIFKUJ_clean_linker_0, # of connection points: 2
#     Edge 10, Type (0, 0), BuildingBlock: MIFKUJ_clean_linker_0, # of connection points: 2
#     Edge 11, Type (0, 0), BuildingBlock: MIFKUJ_clean_linker_0, # of connection points: 2
#     Edge 12, Type (0, 0), BuildingBlock: MIFKUJ_clean_linker_0, # of connection points: 2
#     Edge 13, Type (0, 0), BuildingBlock: MIFKUJ_clean_linker_0, # of connection points: 2
#     Edge 14, Type (0, 0), BuildingBlock: MIFKUJ_clean_linker_0, # of connection points: 2
#     Edge 15, Type (0, 0), BuildingBlock: MIFKUJ_clean_linker_0, # of connection points: 2
#     Edge 16, Type (0, 0), BuildingBlock: MIFKUJ_clean_linker_0, # of connection points: 2
#     Edge 17, Type (0, 0), BuildingBlock: MIFKUJ_clean_linker_0, # of connection points: 2
#     Edge 18, Type (0, 0), BuildingBlock: MIFKUJ_clean_linker_0, # of connection points: 2
#     Edge 19, Type (0, 0), BuildingBlock: MIFKUJ_clean_linker_0, # of connection points: 2
#     Edge 20, Type (0, 0), BuildingBlock: MIFKUJ_clean_linker_0, # of connection points: 2
#     Edge 21, Type (0, 0), BuildingBlock: MIFKUJ_clean_linker_0, # of connection points: 2
#     Edge 22, Type (0, 0), BuildingBlock: MIFKUJ_clean_linker_0, # of connection points: 2
#     Edge 23, Type (0, 0), BuildingBlock: MIFKUJ_clean_linker_0, # of connection points: 2
# Relax obj value: 0.021
# Max RMSD: 0.102
# Mean RMSD: 0.102
data_MOF--net-mmt--node1-QUQFOY_clean_sbu_1--edge1-MIFKUJ_clean_linker_0
_symmetry_space_group_name_H-M    P1
_symmetry_Int_Tables_number       1
_symmetry_cell_setting            triclinic
loop_
_symmetry_equiv_pos_as_xyz
'x, y, z'
_cell_length_a     28.171285
_cell_length_b     54.247559
_cell_length_c     60.033301
_cell_angle_alpha  90.048653
_cell_angle_beta   90.005001
_cell_angle_gamma 89.962112
loop_
_atom_site_label
_atom_site_type_symbol
_atom_site_fract_x
_atom_site_fract_y
_atom_site_fract_z
_atom_type_partial_charge
O0 O 0.18369 0.57147 0.32467 0.0
Cd1 Cd 0.12926 0.5936 0.33603 0.0
Cd2 Cd 0.11317 0.55053 0.3609 0.0
O3 O 0.17752 0.53983 0.34757 0.0
O4 O 0.14542 0.62608 0.32251 0.0
O5 O 0.14259 0.6203 0.35884 0.0
C6 C 0.15081 0.63485 0.34227 0.0
C7 C 0.09476 0.54048 0.39788 0.0
C8 C 0.19859 0.55075 0.33168 0.0
C9 C 0.04064 0.5657 0.32595 0.0
O10 O 0.05609 0.54955 0.33946 0.0
O11 O 0.06283 0.58588 0.32326 0.0
O12 O 0.09734 0.52391 0.38256 0.0
O13 O 0.10424 0.56296 0.39239 0.0
O14 O 0.29938 0.94464 0.32865 0.0
Cd15 Cd 0.35624 0.92233 0.33646 0.0
Cd16 Cd 0.38012 0.96564 0.36079 0.0
O17 O 0.31562 0.97774 0.34868 0.0
O18 O 0.33697 0.89036 0.32277 0.0
O19 O 0.34852 0.89466 0.35889 0.0
C20 C 0.33659 0.88074 0.34235 0.0
C21 C 0.4016 0.97518 0.3975 0.0
C22 C 0.2889 0.96629 0.33511 0.0
C23 C 0.44563 0.94912 0.32353 0.0
O24 O 0.43538 0.96493 0.3384 0.0
O25 O 0.41964 0.93023 0.32062 0.0
O26 O 0.39967 0.99181 0.38225 0.0
O27 O 0.39008 0.95292 0.39208 0.0
O28 O 0.68703 0.44205 0.18329 0.0
Cd29 Cd 0.63165 0.41973 0.17358 0.0
Cd30 Cd 0.60972 0.46311 0.1495 0.0
O31 O 0.67309 0.47517 0.16296 0.0
O32 O 0.64972 0.38722 0.18653 0.0
O33 O 0.64226 0.39313 0.15035 0.0
C34 C 0.65236 0.37849 0.16663 0.0
C35 C 0.59048 0.47335 0.11266 0.0
C36 C 0.69817 0.46372 0.17721 0.0
C37 C 0.54121 0.44596 0.18533 0.0
O38 O 0.55274 0.46203 0.17094 0.0
O39 O 0.56686 0.42697 0.18836 0.0
O40 O 0.59106 0.48965 0.12826 0.0
O41 O 0.60234 0.45106 0.11781 0.0
O42 O 0.80379 0.07028 0.18244 0.0
Cd43 Cd 0.86003 0.0919 0.17234 0.0
Cd44 Cd 0.87768 0.04849 0.14852 0.0
O45 O 0.81176 0.03821 0.16014 0.0
O46 O 0.84281 0.12438 0.18563 0.0
O47 O 0.84986 0.11884 0.14939 0.0
C48 C 0.8398 0.1333 0.16583 0.0
C49 C 0.89956 0.03903 0.11185 0.0
C50 C 0.78917 0.04955 0.17533 0.0
C51 C 0.94626 0.0633 0.18516 0.0
O52 O 0.93187 0.04701 0.17152 0.0
O53 O 0.92471 0.08381 0.18685 0.0
O54 O 0.89525 0.02219 0.12682 0.0
O55 O 0.89013 0.06149 0.11754 0.0
O56 O 0.80897 0.44184 0.68312 0.0
Cd57 Cd 0.86492 0.41997 0.67311 0.0
Cd58 Cd 0.88306 0.46336 0.64873 0.0
O59 O 0.81808 0.47418 0.66127 0.0
O60 O 0.84786 0.38765 0.68672 0.0
O61 O 0.85465 0.39273 0.65043 0.0
C62 C 0.84492 0.37845 0.66701 0.0
C63 C 0.90355 0.47342 0.61199 0.0
C64 C 0.79516 0.46285 0.67634 0.0
C65 C 0.95244 0.44817 0.68504 0.0
O66 O 0.93863 0.46417 0.671 0.0
O67 O 0.92971 0.42812 0.68748 0.0
O68 O 0.90038 0.48996 0.62731 0.0
O69 O 0.89361 0.45095 0.61734 0.0
O70 O 0.69373 0.07015 0.68195 0.0
Cd71 Cd 0.63643 0.09163 0.67293 0.0
Cd72 Cd 0.61771 0.04828 0.64858 0.0
O73 O 0.68348 0.03773 0.66024 0.0
O74 O 0.65328 0.12395 0.68664 0.0
O75 O 0.64545 0.11906 0.65036 0.0
C76 C 0.65562 0.13326 0.66697 0.0
C77 C 0.59612 0.03902 0.61183 0.0
C78 C 0.70743 0.04923 0.67487 0.0
C79 C 0.54995 0.06278 0.68565 0.0
O80 O 0.56331 0.04688 0.67141 0.0
O81 O 0.57246 0.08294 0.6879 0.0
O82 O 0.60014 0.02211 0.62675 0.0
O83 O 0.60565 0.06142 0.61761 0.0
O84 O 0.30752 0.57076 0.8269 0.0
Cd85 Cd 0.36374 0.59279 0.83617 0.0
Cd86 Cd 0.38445 0.54933 0.8605 0.0
O87 O 0.31993 0.53795 0.84784 0.0
O88 O 0.34611 0.6252 0.82287 0.0
O89 O 0.35407 0.61981 0.85909 0.0
C90 C 0.3439 0.63425 0.84267 0.0
C91 C 0.40477 0.53937 0.89727 0.0
C92 C 0.29526 0.54942 0.83346 0.0
C93 C 0.45284 0.56555 0.8242 0.0
O94 O 0.44053 0.54954 0.83852 0.0
O95 O 0.42829 0.58496 0.8214 0.0
O96 O 0.40293 0.52287 0.88185 0.0
O97 O 0.3936 0.56171 0.89198 0.0
O98 O 0.19384 0.9429 0.82829 0.0
Cd99 Cd 0.13682 0.92126 0.83728 0.0
Cd100 Cd 0.11703 0.96482 0.86131 0.0
O101 O 0.18254 0.97562 0.84951 0.0
O102 O 0.15447 0.88897 0.82373 0.0
O103 O 0.14588 0.89395 0.85996 0.0
C104 C 0.15658 0.87973 0.84344 0.0
C105 C 0.09545 0.97434 0.898 0.0
C106 C 0.20695 0.96401 0.83511 0.0
C107 C 0.04967 0.94953 0.82433 0.0
O108 O 0.06245 0.96559 0.83854 0.0
O109 O 0.07287 0.92956 0.82212 0.0
O110 O 0.09893 0.99112 0.88293 0.0
O111 O 0.1055 0.95194 0.8924 0.0
H112 H 0.24383 0.5074 0.34238 0.0
H113 H 0.3013 0.4847 0.31948 0.0
H114 H 0.2975 0.54264 0.2704 0.0
H115 H 0.24084 0.5655 0.29308 0.0
H116 H 0.2811 0.49486 0.25305 0.0
H117 H 0.39084 0.53798 0.30145 0.0
H118 H 0.42486 0.54981 0.33776 0.0
H119 H 0.4549 0.47386 0.35215 0.0
H120 H 0.42041 0.46155 0.31602 0.0
H121 H 0.4748 0.48224 0.18103 0.0
H122 H 0.41381 0.49399 0.2077 0.0
H123 H 0.45326 0.43302 0.24993 0.0
H124 H 0.51522 0.42122 0.22331 0.0
H125 H 0.44761 0.47526 0.27332 0.0
H126 H 0.34737 0.43234 0.22313 0.0
H127 H 0.31367 0.42007 0.18689 0.0
H128 H 0.26455 0.49404 0.1761 0.0
H129 H 0.29855 0.50686 0.21214 0.0
C130 C 0.25577 0.51547 0.32687 0.0
C131 C 0.23758 0.53824 0.31954 0.0
C132 C 0.28854 0.50246 0.31382 0.0
C133 C 0.30328 0.51196 0.29321 0.0
C134 C 0.28627 0.53496 0.2862 0.0
C135 C 0.25405 0.54805 0.29928 0.0
C136 C 0.33498 0.49769 0.27835 0.0
C137 C 0.31761 0.49066 0.25739 0.0
C138 C 0.38191 0.49143 0.28444 0.0
C139 C 0.40245 0.49881 0.30618 0.0
C140 C 0.40422 0.52378 0.31246 0.0
C141 C 0.42371 0.53058 0.33298 0.0
C142 C 0.44187 0.51259 0.34729 0.0
C143 C 0.44071 0.48777 0.34107 0.0
C144 C 0.42122 0.48087 0.32057 0.0
C145 C 0.47016 0.47105 0.1958 0.0
C146 C 0.50002 0.45081 0.20004 0.0
C147 C 0.43506 0.47775 0.21102 0.0
C148 C 0.42875 0.46429 0.23076 0.0
C149 C 0.45751 0.44363 0.23478 0.0
C150 C 0.4927 0.43684 0.21949 0.0
C151 C 0.39419 0.47302 0.24767 0.0
C152 C 0.41088 0.47901 0.26905 0.0
C153 C 0.34645 0.47819 0.24203 0.0
C154 C 0.3258 0.47059 0.22031 0.0
C155 C 0.32969 0.44604 0.21297 0.0
C156 C 0.31048 0.43898 0.19246 0.0
C157 C 0.28705 0.45628 0.17918 0.0
C158 C 0.28271 0.48067 0.1864 0.0
C159 C 0.30188 0.48783 0.20689 0.0
H160 H 0.2722 0.45077 0.16331 0.0
H161 H 0.45697 0.5179 0.36316 0.0
H162 H 0.99267 0.09395 0.21447 0.0
H163 H 0.05018 0.08193 0.24322 0.0
H164 H 0.04349 1.00659 0.22054 0.0
H165 H 0.98695 0.01831 0.19172 0.0
H166 H 0.02766 0.01333 0.26727 0.0
H167 H 0.13706 0.03702 0.20876 0.0
H168 H 0.1719 0.06574 0.18148 0.0
H169 H 0.20681 0.11617 0.23416 0.0
H170 H 0.17152 0.08786 0.26173 0.0
H171 H 0.21949 0.94591 0.30936 0.0
H172 H 0.15836 0.9673 0.28822 0.0
H173 H 0.20377 0.03674 0.31604 0.0
H174 H 0.26576 0.0154 0.33723 0.0
H175 H 0.1963 0.03923 0.27131 0.0
H176 H 0.09716 0.01331 0.33052 0.0
H177 H 0.06259 0.98488 0.3581 0.0
H178 H 0.00716 0.93975 0.30539 0.0
H179 H 0.04201 0.9677 0.27746 0.0
C180 C 0.00399 0.07489 0.21541 0.0
C181 C 0.98511 0.05709 0.20082 0.0
C182 C 0.03674 0.06808 0.23185 0.0
C183 C 0.05068 0.04336 0.23404 0.0
C184 C 0.03288 0.02573 0.21916 0.0
C185 C 0.00076 0.03254 0.20261 0.0
C186 C 0.08248 0.0354 0.25228 0.0
C187 C 0.06462 0.01887 0.26815 0.0
C188 C 0.13006 0.04343 0.25382 0.0
C189 C 0.15105 0.06049 0.23726 0.0
C190 C 0.15168 0.05435 0.2145 0.0
C191 C 0.17163 0.07053 0.19899 0.0
C192 C 0.19139 0.09281 0.20607 0.0
C193 C 0.19137 0.09893 0.22869 0.0
C194 C 0.17142 0.08283 0.24426 0.0
C195 C 0.21612 0.96568 0.31131 0.0
C196 C 0.24766 0.97894 0.32495 0.0
C197 C 0.18094 0.9779 0.29926 0.0
C198 C 0.17631 1.00361 0.30064 0.0
C199 C 0.20672 0.01687 0.31477 0.0
C200 C 0.24193 1.00462 0.32694 0.0
C201 C 0.1419 0.01651 0.28602 0.0
C202 C 0.15914 0.03401 0.27079 0.0
C203 C 0.09358 0.00948 0.28515 0.0
C204 C 0.0725 0.99255 0.30188 0.0
C205 C 0.07792 0.99722 0.32479 0.0
C206 C 0.05821 0.98121 0.3405 0.0
C207 C 0.03276 0.9605 0.3335 0.0
C208 C 0.02689 0.9558 0.31078 0.0
C209 C 0.04657 0.97175 0.29501 0.0
H210 H 0.01752 0.94813 0.34569 0.0
H211 H 0.20685 0.10531 0.19405 0.0
H212 H 0.75969 0.44432 0.20761 0.0
H213 H 0.81555 0.46656 0.23119 0.0
H214 H 0.78155 0.53437 0.19734 0.0
H215 H 0.72527 0.51221 0.17346 0.0
H216 H 0.87996 0.52869 0.20774 0.0
H217 H 0.72863 0.52478 0.24421 0.0
H218 H 0.65649 0.50403 0.25793 0.0
H219 H 0.74135 0.45794 0.30029 0.0
H220 H 0.8141 0.47816 0.28658 0.0
H221 H 0.99696 0.59493 0.29462 0.0
H222 H 0.93477 0.58268 0.26834 0.0
H223 H 0.93034 0.51038 0.29818 0.0
H224 H 0.99097 0.52261 0.32478 0.0
H225 H 0.84447 0.52442 0.28864 0.0
H226 H 0.99499 0.52369 0.24945 0.0
H227 H 0.06889 0.54221 0.23514 0.0
H228 H 0.9878 0.59498 0.1978 0.0
H229 H 0.91341 0.57694 0.21212 0.0
C230 C 0.76447 0.4639 0.20488 0.0
C231 C 0.73751 0.47653 0.1888 0.0
C232 C 0.79636 0.47658 0.21844 0.0
C233 C 0.80191 0.50215 0.21627 0.0
C234 C 0.77747 0.51464 0.19933 0.0
C235 C 0.74537 0.50194 0.18571 0.0
C236 C 0.83106 0.5158 0.23268 0.0
C237 C 0.87185 0.52819 0.2254 0.0
C238 C 0.8206 0.51484 0.25571 0.0
C239 C 0.77684 0.50289 0.26425 0.0
C240 C 0.73194 0.51012 0.25635 0.0
C241 C 0.69093 0.49846 0.26414 0.0
C242 C 0.69434 0.47965 0.27994 0.0
C243 C 0.73877 0.47251 0.28804 0.0
C244 C 0.77989 0.48408 0.28029 0.0
C245 C 0.98221 0.57655 0.29578 0.0
C246 C -0.00077 0.5597 0.31172 0.0
C247 C 0.9469 0.56951 0.28065 0.0
C248 C 0.9285 0.54545 0.281 0.0
C249 C 0.94402 0.52903 0.29752 0.0
C250 C 0.97886 0.53607 0.31273 0.0
C251 C 0.89441 0.53674 0.26385 0.0
C252 C 0.8524 0.5253 0.27097 0.0
C253 C 0.90405 0.53839 0.24072 0.0
C254 C 0.94871 0.54917 0.23206 0.0
C255 C 0.99296 0.53936 0.23832 0.0
C256 C 0.03492 0.54975 0.23018 0.0
C257 C 0.03305 0.56981 0.21563 0.0
C258 C 0.9892 0.57948 0.20911 0.0
C259 C 0.94713 0.56918 0.21722 0.0
H260 H 0.06557 0.57783 0.20935 0.0
H261 H 0.66255 0.47064 0.28594 0.0
H262 H 0.7405 0.06634 0.21156 0.0
H263 H 0.68307 0.04387 0.23404 0.0
H264 H 0.68887 0.98279 0.18815 0.0
H265 H 0.74719 1.00509 0.16545 0.0
H266 H 0.59332 0.99665 0.20523 0.0
H267 H 0.74934 0.97481 0.23041 0.0
H268 H 0.83155 0.98329 0.24222 0.0
H269 H 0.78003 0.02572 0.29759 0.0
H270 H 0.69747 0.01783 0.28589 0.0
H271 H 0.47118 0.92363 0.28581 0.0
H272 H 0.53159 0.93531 0.25845 0.0
H273 H 0.57019 0.99784 0.29903 0.0
H274 H 0.51075 0.98617 0.3265 0.0
H275 H 0.6473 0.97669 0.28185 0.0
H276 H 0.49407 1.00363 0.25493 0.0
H277 H 0.41091 0.99798 0.24314 0.0
H278 H 0.45586 0.94841 0.19147 0.0
H279 H 0.5393 0.95352 0.20316 0.0
C280 C 0.72918 0.04829 0.20596 0.0
C281 C 0.74886 0.03743 0.18678 0.0
C282 C 0.69641 0.03546 0.2189 0.0
C283 C 0.68236 0.01159 0.21288 0.0
C284 C 0.69955 1.00118 0.19307 0.0
C285 C 0.73284 0.01395 0.18015 0.0
C286 C 0.65195 0.99724 0.22818 0.0
C287 C 0.60529 0.99176 0.22182 0.0
C288 C 0.66759 0.9913 0.24991 0.0
C289 C 0.7172 0.99587 0.25716 0.0
C290 C 0.75553 0.98611 0.245 0.0
C291 C 0.8022 0.99078 0.25169 0.0
C292 C 0.81101 1.00507 0.27062 0.0
C293 C 0.77315 0.01466 0.28292 0.0
C294 C 0.72641 0.01007 0.27628 0.0
C295 C 0.49304 0.93965 0.28907 0.0
C296 C 0.48584 0.95408 0.30827 0.0
C297 C 0.52735 0.94637 0.27335 0.0
C298 C 0.55488 0.96766 0.27654 0.0
C299 C 0.54928 0.98137 0.29619 0.0
C300 C 0.51512 0.9747 0.31187 0.0
C301 C 0.58809 0.97654 0.25914 0.0
C302 C 0.63543 0.98106 0.26512 0.0
C303 C 0.57289 0.98178 0.23714 0.0
C304 C 0.52281 0.9787 0.2301 0.0
C305 C 0.48616 0.99136 0.24117 0.0
C306 C 0.439 0.98829 0.23449 0.0
C307 C 0.42809 0.97278 0.21662 0.0
C308 C 0.46435 0.96037 0.20534 0.0
C309 C 0.51158 0.96335 0.21199 0.0
H310 H 0.39156 0.97043 0.21146 0.0
H311 H 0.84717 0.00867 0.27577 0.0
H312 H 0.51261 0.52604 0.82602 0.0
H313 H 0.57341 0.51441 0.79928 0.0
H314 H 0.54702 0.58095 0.76195 0.0
H315 H 0.48493 0.59259 0.78856 0.0
H316 H 0.54983 0.54206 0.73487 0.0
H317 H 0.65059 0.57382 0.79124 0.0
H318 H 0.6817 0.58008 0.8292 0.0
H319 H 0.71688 0.50322 0.8336 0.0
H320 H 0.68536 0.4964 0.79577 0.0
H321 H 0.75656 0.50853 0.66805 0.0
H322 H 0.69913 0.53085 0.69125 0.0
H323 H 0.68791 0.46786 0.73467 0.0
H324 H 0.74457 0.44541 0.71169 0.0
H325 H 0.70962 0.51223 0.75677 0.0
H326 H 0.59932 0.48074 0.70161 0.0
H327 H 0.56844 0.47528 0.66349 0.0
H328 H 0.55349 0.55369 0.65664 0.0
H329 H 0.58491 0.55963 0.69464 0.0
C330 C 0.52003 0.53845 0.81232 0.0
C331 C 0.49376 0.56026 0.80944 0.0
C332 C 0.55507 0.53179 0.79706 0.0
C333 C 0.56515 0.54692 0.77871 0.0
C334 C 0.53987 0.56903 0.77603 0.0
C335 C 0.50458 0.57571 0.79131 0.0
C336 C 0.60012 0.53863 0.76179 0.0
C337 C 0.58518 0.53607 0.73957 0.0
C338 C 0.64609 0.53058 0.76792 0.0
C339 C 0.66533 0.53458 0.79068 0.0
C340 C 0.66466 0.55821 0.80035 0.0
C341 C 0.68242 0.56187 0.82184 0.0
C342 C 0.70119 0.54206 0.83382 0.0
C343 C 0.70233 0.51855 0.8243 0.0
C344 C 0.68459 0.51479 0.80281 0.0
C345 C 0.74123 0.49928 0.68231 0.0
C346 C 0.75544 0.47522 0.68807 0.0
C347 C 0.7085 0.51208 0.69555 0.0
C348 C 0.68968 0.50103 0.71474 0.0
C349 C 0.70236 0.47674 0.72 0.0
C350 C 0.73463 0.46391 0.70675 0.0
C351 C 0.65868 0.51498 0.73017 0.0
C352 C 0.67455 0.51865 0.75207 0.0
C353 C 0.61386 0.52422 0.72368 0.0
C354 C 0.59504 0.52065 0.70085 0.0
C355 C 0.5899 0.49683 0.69189 0.0
C356 C 0.5722 0.49365 0.67033 0.0
C357 C 0.55917 0.51413 0.65762 0.0
C358 C 0.56369 0.53785 0.66648 0.0
C359 C 0.58143 0.54113 0.68803 0.0
H360 H 0.54545 0.51163 0.64093 0.0
H361 H 0.7149 0.54493 0.85046 0.0
H362 H 0.7398 1.00187 0.6692 0.0
H363 H 0.80137 0.98091 0.69091 0.0
H364 H 0.8291 0.04831 0.72679 0.0
H365 H 0.76849 0.06943 0.70506 0.0
H366 H 0.90991 0.02475 0.71793 0.0
H367 H 0.75589 1.00382 0.74796 0.0
H368 H 0.67452 0.98716 0.74635 0.0
H369 H 0.72924 0.91632 0.72727 0.0
H370 H 0.81096 0.93268 0.72848 0.0
H371 H -0.00101 0.9923 0.82201 0.0
H372 H 0.94312 1.00471 0.79315 0.0
H373 H 0.95575 0.93332 0.76212 0.0
H374 H 0.0124 0.92061 0.79098 0.0
H375 H 0.85948 0.95374 0.76435 0.0
H376 H 0.01581 0.97502 0.73944 0.0
H377 H 0.09589 0.99283 0.74327 0.0
H378 H 0.03524 0.0644 0.75454 0.0
H379 H 0.95472 0.04693 0.75114 0.0
C380 C 0.75958 0.01233 0.68145 0.0
C381 C 0.7489 0.03728 0.68553 0.0
C382 C 0.79454 1.00028 0.69393 0.0
C383 C 0.81925 0.01295 0.71072 0.0
C384 C 0.81038 0.03815 0.71397 0.0
C385 C 0.77557 0.05018 0.70154 0.0
C386 C 0.85263 0.99996 0.72579 0.0
C387 C 0.89882 0.00925 0.72809 0.0
C388 C 0.83849 0.97939 0.73874 0.0
C389 C 0.78944 0.96954 0.73803 0.0
C390 C 0.75053 0.98475 0.74324 0.0
C391 C 0.70436 0.97535 0.74243 0.0
C392 C 0.6967 0.95072 0.73663 0.0
C393 C 0.73522 0.93542 0.7317 0.0
C394 C 0.78146 0.94473 0.73245 0.0
C395 C 0.98955 0.97902 0.80927 0.0
C396 C 0.01059 0.9555 0.80871 0.0
C397 C 0.95768 0.98621 0.79275 0.0
C398 C 0.94598 0.97005 0.77538 0.0
C399 C 0.96463 0.94607 0.77537 0.0
C400 C 0.99696 0.93887 0.79186 0.0
C401 C 0.91617 0.97893 0.75675 0.0
C402 C 0.87076 0.9689 0.75384 0.0
C403 C 0.93082 0.99898 0.74337 0.0
C404 C 0.97921 0.00962 0.74519 0.0
C405 C 0.01953 0.99452 0.7429 0.0
C406 C 0.06501 1.00456 0.74497 0.0
C407 C 0.07065 0.02972 0.74919 0.0
C408 C 0.03081 0.04491 0.75129 0.0
C409 C 0.98524 0.03495 0.74926 0.0
H410 H 0.10589 0.03746 0.75079 0.0
H411 H 0.66094 0.94348 0.73603 0.0
H412 H 0.2358 0.56872 0.80215 0.0
H413 H 0.17494 0.54739 0.78091 0.0
H414 H 0.20057 0.48096 0.81853 0.0
H415 H 0.26276 0.50216 0.83971 0.0
H416 H 0.19771 0.47107 0.77512 0.0
H417 H 0.09728 0.51361 0.82554 0.0
H418 H 0.06651 0.54876 0.84723 0.0
H419 H 0.032 0.5869 0.78672 0.0
H420 H 0.06319 0.55213 0.76463 0.0
H421 H 0.99082 0.41982 0.71849 0.0
H422 H 0.04829 0.43299 0.74679 0.0
H423 H 0.05981 0.50386 0.7148 0.0
H424 H 0.00305 0.49097 0.68651 0.0
H425 H 0.03837 0.50647 0.76042 0.0
H426 H 0.14827 0.4649 0.71075 0.0
H427 H 0.17878 0.42921 0.68967 0.0
H428 H 0.19317 0.38811 0.7504 0.0
H429 H 0.1621 0.42347 0.77181 0.0
C430 C 0.2282 0.54966 0.80619 0.0
C431 C 0.25428 0.53716 0.82265 0.0
C432 C 0.19313 0.5375 0.79406 0.0
C433 C 0.18281 0.51262 0.79826 0.0
C434 C 0.2079 0.50018 0.81504 0.0
C435 C 0.24325 0.51236 0.82721 0.0
C436 C 0.14774 0.49953 0.78409 0.0
C437 C 0.16245 0.47849 0.77229 0.0
C438 C 0.10189 0.50931 0.78022 0.0
C439 C 0.08285 0.53028 0.79342 0.0
C440 C 0.08343 0.52955 0.81685 0.0
C441 C 0.06586 0.54941 0.82922 0.0
C442 C 0.04738 0.57006 0.81836 0.0
C443 C 0.04633 0.57089 0.7951 0.0
C444 C 0.06388 0.55109 0.78265 0.0
C445 C 0.0062 0.43805 0.71727 0.0
C446 C 0.99205 0.45439 0.70029 0.0
C447 C 0.03897 0.44554 0.73346 0.0
C448 C 0.05792 0.46945 0.73294 0.0
C449 C 0.04527 0.48539 0.71556 0.0
C450 C 0.01294 0.47791 0.69934 0.0
C451 C 0.08901 0.47861 0.75102 0.0
C452 C 0.07336 0.49885 0.76358 0.0
C453 C 0.13369 0.46795 0.75571 0.0
C454 C 0.15228 0.44671 0.74284 0.0
C455 C 0.15748 0.44816 0.71958 0.0
C456 C 0.17498 0.42802 0.70758 0.0
C457 C 0.18775 0.40638 0.71868 0.0
C458 C 0.18317 0.40487 0.74182 0.0
C459 C 0.16564 0.42496 0.75389 0.0
H460 H 0.20132 0.3908 0.70936 0.0
H461 H 0.0338 0.58542 0.82797 0.0
H462 H 0.26841 0.94368 0.80519 0.0
H463 H 0.32985 0.96449 0.78388 0.0
H464 H 0.30128 0.03221 0.81915 0.0
H465 H 0.23869 0.01153 0.84043 0.0
H466 H 0.30443 0.03998 0.77519 0.0
H467 H 0.40501 1.00106 0.82793 0.0
H468 H 0.4364 0.96725 0.85106 0.0
H469 H 0.47459 0.92685 0.79219 0.0
H470 H 0.44282 0.96027 0.76868 0.0
H471 H 0.50997 0.09171 0.71831 0.0
H472 H 0.45289 0.07876 0.74686 0.0
H473 H 0.44626 1.00644 0.71719 0.0
H474 H 0.50256 0.0191 0.68863 0.0
H475 H 0.46596 1.00607 0.7631 0.0
H476 H 0.35605 0.04341 0.71103 0.0
H477 H 0.32418 0.07737 0.68821 0.0
H478 H 0.30491 0.12145 0.74696 0.0
H479 H 0.33731 0.08784 0.77012 0.0
C480 C 0.27552 0.96291 0.80871 0.0
C481 C 0.24849 0.97594 0.82451 0.0
C482 C 0.31091 0.97478 0.79655 0.0
C483 C 0.32046 0.99988 0.80003 0.0
C484 C 0.29452 0.01282 0.81623 0.0
C485 C 0.25896 1.00093 0.82845 0.0
C486 C 0.35544 0.01268 0.78564 0.0
C487 C 0.34015 0.03292 0.77293 0.0
C488 C 0.40183 1.00329 0.78247 0.0
C489 C 0.42125 0.98315 0.79653 0.0
C490 C 0.4198 0.9849 0.8199 0.0
C491 C 0.43772 0.96581 0.83309 0.0
C492 C 0.45741 0.9449 0.8231 0.0
C493 C 0.45932 0.94306 0.7999 0.0
C494 C 0.44144 0.9621 0.78664 0.0
C495 C 0.49579 0.07317 0.71767 0.0
C496 C 0.51104 0.05642 0.70122 0.0
C497 C 0.46326 0.06581 0.734 0.0
C498 C 0.44572 0.0416 0.73418 0.0
C499 C 0.45969 0.02515 0.7174 0.0
C500 C 0.49173 0.03251 0.70102 0.0
C501 C 0.41439 0.03281 0.75229 0.0
C502 C 0.43052 0.01336 0.7657 0.0
C503 C 0.36898 0.04302 0.75618 0.0
C504 C 0.3497 0.06325 0.74227 0.0
C505 C 0.34549 0.06044 0.71906 0.0
C506 C 0.32721 0.0796 0.70607 0.0
C507 C 0.31269 0.10159 0.71612 0.0
C508 C 0.31628 0.10443 0.73919 0.0
C509 C 0.33458 0.08533 0.75226 0.0
H510 H 0.29852 0.1164 0.70603 0.0
H511 H 0.47124 0.93013 0.83334 0.0
H512 H 0.07384 0.49461 0.41357 0.0
H513 H 0.04165 0.48359 0.44993 0.0
H514 H 0.04779 0.55982 0.47024 0.0
H515 H 0.07944 0.57111 0.43362 0.0
H516 H 0.07403 0.48722 0.49151 0.0
H517 H 0.95301 0.57205 0.50424 0.0
H518 H 0.90948 0.60272 0.48179 0.0
H519 H 0.89929 0.55099 0.42782 0.0
H520 H 0.94217 0.51992 0.45005 0.0
H521 H 0.92548 0.51928 0.59659 0.0
H522 H 0.95846 0.53037 0.5604 0.0
H523 H 0.95232 0.45422 0.53985 0.0
H524 H 0.91984 0.44286 0.5763 0.0
H525 H 0.92625 0.52685 0.51876 0.0
H526 H 0.04738 0.44206 0.50597 0.0
H527 H 0.09082 0.41135 0.52841 0.0
H528 H 0.10068 0.46295 0.58249 0.0
H529 H 0.05788 0.49406 0.56028 0.0
C530 C 0.06863 0.50907 0.42578 0.0
C531 C 0.07898 0.53379 0.42064 0.0
C532 C 0.05029 0.5027 0.44661 0.0
C533 C 0.04169 0.52089 0.46273 0.0
C534 C 0.05339 0.54551 0.45792 0.0
C535 C 0.07174 0.55193 0.43703 0.0
C536 C 0.01965 0.514 0.48435 0.0
C537 C 0.04142 0.4957 0.49735 0.0
C538 C 0.97755 0.52534 0.49218 0.0
C539 C 0.95128 0.54378 0.47873 0.0
C540 C 0.94134 0.56721 0.48761 0.0
C541 C 0.9168 0.58466 0.47492 0.0
C542 C 0.90178 0.57884 0.45336 0.0
C543 C 0.91111 0.55551 0.44448 0.0
C544 C 0.93559 0.53799 0.45711 0.0
C545 C 0.9309 0.50485 0.58436 0.0
C546 C 0.92023 0.48014 0.58939 0.0
C547 C 0.94969 0.51127 0.56364 0.0
C548 C 0.95846 0.49312 0.5475 0.0
C549 C 0.94659 0.4685 0.55219 0.0
C550 C 0.92777 0.46204 0.57298 0.0
C551 C 0.98063 0.50008 0.52593 0.0
C552 C 0.95887 0.51839 0.51293 0.0
C553 C 0.02273 0.48874 0.5181 0.0
C554 C 0.04895 0.47027 0.53153 0.0
C555 C 0.05895 0.44687 0.52262 0.0
C556 C 0.08345 0.42939 0.53531 0.0
C557 C 0.09835 0.43516 0.55689 0.0
C558 C 0.08895 0.45846 0.56581 0.0
C559 C 0.06452 0.47601 0.55319 0.0
H560 H 0.11728 0.4216 0.56669 0.0
H561 H 0.88281 0.59238 0.44356 0.0
H562 H 0.42097 0.02093 0.41395 0.0
H563 H 0.45364 0.03155 0.45032 0.0
H564 H 0.45451 0.95468 0.46866 0.0
H565 H 0.42081 0.94389 0.43228 0.0
H566 H 0.4244 0.98281 0.50261 0.0
H567 H 0.55664 0.98402 0.45232 0.0
H568 H 0.60072 0.99609 0.41857 0.0
H569 H 0.59408 0.07206 0.43847 0.0
H570 H 0.54936 0.06047 0.4722 0.0
H571 H 0.57777 0.99328 0.59508 0.0
H572 H 0.54492 0.98276 0.55872 0.0
H573 H 0.5419 0.05977 0.54094 0.0
H574 H 0.57558 0.07048 0.57735 0.0
H575 H 0.57314 0.03159 0.50673 0.0
H576 H 0.44092 0.03019 0.55714 0.0
H577 H 0.39718 0.01792 0.59093 0.0
H578 H 0.40427 0.94203 0.57083 0.0
H579 H 0.44865 0.95381 0.53705 0.0
C580 C 0.42785 1.00624 0.42573 0.0
C581 C 0.41853 0.98152 0.42016 0.0
C582 C 0.44679 0.01236 0.4465 0.0
C583 C 0.45741 0.99388 0.46208 0.0
C584 C 0.44683 0.96924 0.45685 0.0
C585 C 0.4276 0.96309 0.43606 0.0
C586 C 0.47985 1.00035 0.48372 0.0
C587 C 0.45728 0.99317 0.50351 0.0
C588 C 0.5222 0.01438 0.48492 0.0
C589 C 0.54926 0.02139 0.46468 0.0
C590 C 0.56427 1.00332 0.44942 0.0
C591 C 0.58942 0.01007 0.4303 0.0
C592 C 0.60009 0.03483 0.42635 0.0
C593 C 0.58574 0.05289 0.44154 0.0
C594 C 0.56052 0.04624 0.46067 0.0
C595 C 0.57039 0.00802 0.58343 0.0
C596 C 0.57906 0.03276 0.58917 0.0
C597 C 0.55136 1.00196 0.56266 0.0
C598 C 0.54014 0.02049 0.54724 0.0
C599 C 0.55007 0.04517 0.55263 0.0
C600 C 0.56928 0.05127 0.57344 0.0
C601 C 0.51769 0.01405 0.52561 0.0
C602 C 0.54026 0.02123 0.50583 0.0
C603 C 0.47539 0.99999 0.52442 0.0
C604 C 0.4485 0.99287 0.54467 0.0
C605 C 0.43347 0.01087 0.56 0.0
C606 C 0.40851 1.004 0.57914 0.0
C607 C 0.39806 0.97921 0.58305 0.0
C608 C 0.41244 0.96122 0.56779 0.0
C609 C 0.43746 0.96799 0.54864 0.0
H610 H 0.37873 0.97393 0.59788 0.0
H611 H 0.61957 0.04002 0.41154 0.0
H612 H 0.56225 0.51859 0.09799 0.0
H613 H 0.53099 0.52949 0.06142 0.0
H614 H 0.55023 0.45449 0.03927 0.0
H615 H 0.58206 0.44339 0.07596 0.0
H616 H 0.57838 0.48785 0.00775 0.0
H617 H 0.44155 0.47452 0.05355 0.0
H618 H 0.39036 0.47996 0.0865 0.0
H619 H 0.37686 0.55715 0.07204 0.0
H620 H 0.42856 0.55224 0.03916 0.0
H621 H 0.43314 0.49419 0.91202 0.0
H622 H 0.46487 0.48343 0.94853 0.0
H623 H 0.44642 0.55857 0.97042 0.0
H624 H 0.41418 0.56954 0.93377 0.0
H625 H 0.41793 0.52519 1.00206 0.0
H626 H 0.55469 0.53844 0.95617 0.0
H627 H 0.60572 0.5329 0.92317 0.0
H628 H 0.61918 0.45574 0.93777 0.0
H629 H 0.56763 0.46074 0.97069 0.0
C630 C 0.56013 0.50438 0.08534 0.0
C631 C 0.57447 0.48006 0.08994 0.0
C632 C 0.54201 0.51065 0.06445 0.0
C633 C 0.53758 0.49273 0.04772 0.0
C634 C 0.55316 0.46858 0.05199 0.0
C635 C 0.57129 0.46227 0.07296 0.0
C636 C 0.5162 0.49926 0.02588 0.0
C637 C 0.54304 0.49568 0.00647 0.0
C638 C 0.47051 0.51004 0.02427 0.0
C639 C 0.43932 0.51305 0.04401 0.0
C640 C 0.42799 0.49269 0.0575 0.0
C641 C 0.39883 0.49567 0.07614 0.0
C642 C 0.38047 0.5189 0.0814 0.0
C643 C 0.39116 0.53918 0.06797 0.0
C644 C 0.42036 0.5363 0.04931 0.0
C645 C 0.43555 0.50846 0.92459 0.0
C646 C 0.42129 0.53278 0.91993 0.0
C647 C 0.45394 0.50227 0.94545 0.0
C648 C 0.45868 0.52026 0.96209 0.0
C649 C 0.44325 0.54442 0.95776 0.0
C650 C 0.42489 0.55066 0.93682 0.0
C651 C 0.48011 0.51378 0.98393 0.0
C652 C 0.45327 0.51736 1.00334 0.0
C653 C 0.52579 0.50299 0.98554 0.0
C654 C 0.55691 0.49993 0.96578 0.0
C655 C 0.5682 0.52025 0.95224 0.0
C656 C 0.59728 0.51721 0.93357 0.0
C657 C 0.61558 0.49397 0.92835 0.0
C658 C 0.60492 0.47372 0.94182 0.0
C659 C 0.57581 0.47665 0.9605 0.0
H660 H 0.63809 0.49166 0.91388 0.0
H661 H 0.35789 0.52116 0.09584 0.0
H662 H 0.07592 0.94312 0.93278 0.0
H663 H 0.04305 0.95406 0.96928 0.0
H664 H 0.04298 0.03084 0.95068 0.0
H665 H 0.07619 0.02015 0.9144 0.0
H666 H 0.0741 0.02502 0.99268 0.0
H667 H 0.94141 0.9973 0.94898 0.0
H668 H 0.89672 0.96822 0.92537 0.0
H669 H 0.89937 0.91441 0.97778 0.0
H670 H 0.94468 0.94307 1.0016 0.0
H671 H 0.91988 0.07029 0.07719 0.0
H672 H 0.95304 0.05934 0.04076 0.0
H673 H 0.95217 0.98251 0.05923 0.0
H674 H 0.91862 0.99322 0.09543 0.0
H675 H 0.92162 0.98833 0.01731 0.0
H676 H 0.05419 0.01598 0.06103 0.0
H677 H 0.09897 0.04498 0.08468 0.0
H678 H 0.09672 0.09882 0.0323 0.0
H679 H 0.05133 0.07024 0.00843 0.0
C680 C 0.06924 0.96234 0.93654 0.0
C681 C 0.07849 0.98074 0.92065 0.0
C682 C 0.05022 0.96856 0.95735 0.0
C683 C 0.03999 0.99326 0.9626 0.0
C684 C 0.05049 0.01168 0.94699 0.0
C685 C 0.06939 1.0055 0.92622 0.0
C686 C 0.0176 0.99999 0.98418 0.0
C687 C 0.04048 0.01721 0.99795 0.0
C688 C 0.97417 0.98947 0.99126 0.0
C689 C 0.94686 0.97223 0.97698 0.0
C690 C 0.9328 0.97919 0.9554 0.0
C691 C 0.9073 0.9628 0.942 0.0
C692 C 0.89533 0.93945 0.95005 0.0
C693 C 0.90874 0.93248 0.97155 0.0
C694 C 0.9343 0.9488 0.98502 0.0
C695 C 0.92643 0.05106 0.07342 0.0
C696 C 0.91677 0.03264 0.08925 0.0
C697 C 0.94562 0.04483 0.05264 0.0
C698 C 0.95567 0.02012 0.04737 0.0
C699 C 0.94481 1.00169 0.06293 0.0
C700 C 0.92571 0.00788 0.08366 0.0
C701 C 0.97812 0.01336 0.02581 0.0
C702 C 0.95524 0.99614 0.01205 0.0
C703 C 0.02157 0.02386 0.01874 0.0
C704 C 0.04893 0.04106 0.03304 0.0
C705 C 0.06291 0.03407 0.05462 0.0
C706 C 0.08846 0.05042 0.06805 0.0
C707 C 0.10057 0.07375 0.06002 0.0
C708 C 0.08725 0.08076 0.03851 0.0
C709 C 0.06164 0.06448 0.02502 0.0
H710 H 0.12037 0.08638 0.07044 0.0
H711 H 0.87557 0.92679 0.93964 0.0
H712 H 0.17213 0.65875 0.38149 0.0
H713 H 0.20628 0.70013 0.38578 0.0
H714 H 0.20278 0.70986 0.31449 0.0
H715 H 0.16925 0.66879 0.31008 0.0
H716 H 0.28796 0.72215 0.33132 0.0
H717 H 0.12323 0.7387 0.34848 0.0
H718 H 0.04844 0.73334 0.36926 0.0
H719 H 0.11868 0.75382 0.43 0.0
H720 H 0.19409 0.75899 0.4096 0.0
H721 H 0.31119 0.84803 0.31012 0.0
H722 H 0.28334 0.8059 0.31465 0.0
H723 H 0.29943 0.81208 0.38589 0.0
H724 H 0.32696 0.85478 0.38149 0.0
H725 H 0.21526 0.79034 0.37462 0.0
H726 H 0.37826 0.77833 0.35624 0.0
H727 H 0.45226 0.78423 0.33498 0.0
H728 H 0.38533 0.7552 0.27631 0.0
H729 H 0.3107 0.74944 0.29713 0.0
C730 C 0.17828 0.66982 0.36677 0.0
C731 C 0.16806 0.66044 0.34545 0.0
C732 C 0.19773 0.69346 0.36925 0.0
C733 C 0.20713 0.7081 0.35044 0.0
C734 C 0.19612 0.69887 0.32923 0.0
C735 C 0.17674 0.67537 0.32675 0.0
C736 C 0.22969 0.73277 0.35248 0.0
C737 C 0.27189 0.7371 0.34068 0.0
C738 C 0.20967 0.75204 0.36532 0.0
C739 C 0.16441 0.74892 0.37757 0.0
C740 C 0.12282 0.74184 0.3663 0.0
C741 C 0.0803 0.73888 0.378 0.0
C742 C 0.07885 0.74315 0.40095 0.0
C743 C 0.11989 0.75046 0.41223 0.0
C744 C 0.16252 0.75342 0.40061 0.0
C745 C 0.30913 0.84049 0.32679 0.0
C746 C 0.32155 0.85478 0.34545 0.0
C747 C 0.29332 0.8163 0.32934 0.0
C748 C 0.28989 0.80567 0.35058 0.0
C749 C 0.302 0.81987 0.36933 0.0
C750 C 0.3179 0.84421 0.36678 0.0
C751 C 0.27274 0.77989 0.3529 0.0
C752 C 0.23173 0.7753 0.36554 0.0
C753 C 0.29381 0.76031 0.34081 0.0
C754 C 0.33877 0.76359 0.32824 0.0
C755 C 0.37922 0.77335 0.33877 0.0
C756 C 0.4213 0.77665 0.3268 0.0
C757 C 0.42347 0.77013 0.3043 0.0
C758 C 0.38359 0.76024 0.29374 0.0
C759 C 0.34141 0.75692 0.30562 0.0
H760 H 0.45608 0.7727 0.29506 0.0
H761 H 0.04589 0.74087 0.40998 0.0
H762 H 0.81249 0.16608 0.19766 0.0
H763 H 0.77874 0.207 0.19251 0.0
H764 H 0.79418 0.19983 0.12135 0.0
H765 H 0.82827 0.15846 0.12635 0.0
H766 H 0.82097 0.24696 0.1383 0.0
H767 H 0.6885 0.19217 0.1415 0.0
H768 H 0.64 0.1583 0.15667 0.0
H769 H 0.62233 0.19819 0.21792 0.0
H770 H 0.67136 0.23216 0.20324 0.0
H771 H 0.67537 0.35574 0.12709 0.0
H772 H 0.70516 0.31353 0.12198 0.0
H773 H 0.69468 0.30112 0.19276 0.0
H774 H 0.66494 0.3429 0.19796 0.0
H775 H 0.66056 0.26242 0.16953 0.0
H776 H 0.80022 0.31408 0.16875 0.0
H777 H 0.85103 0.3478 0.15502 0.0
H778 H 0.85635 0.3139 0.0904 0.0
H779 H 0.80499 0.28013 0.1037 0.0
C780 C 0.8091 0.17316 0.18088 0.0
C781 C 0.82285 0.1589 0.16239 0.0
C782 C 0.78961 0.19658 0.17797 0.0
C783 C 0.78332 0.20631 0.15654 0.0
C784 C 0.79855 0.19258 0.13803 0.0
C785 C 0.81794 0.16896 0.14092 0.0
C786 C 0.75974 0.2306 0.15383 0.0
C787 C 0.78548 0.25027 0.14466 0.0
C788 C 0.71373 0.23496 0.16245 0.0
C789 C 0.68389 0.21465 0.1713 0.0
C790 C 0.67456 0.19365 0.15826 0.0
C791 C 0.64693 0.17444 0.16676 0.0
C792 C 0.62816 0.17608 0.18825 0.0
C793 C 0.63691 0.19695 0.20127 0.0
C794 C 0.66457 0.2162 0.19286 0.0
C795 C 0.67913 0.34392 0.14151 0.0
C796 C 0.66789 0.3527 0.16293 0.0
C797 C 0.69635 0.31987 0.13858 0.0
C798 C 0.70247 0.30423 0.15702 0.0
C799 C 0.69022 0.31283 0.1783 0.0
C800 C 0.67333 0.33679 0.18124 0.0
C801 C 0.72221 0.27896 0.15453 0.0
C802 C 0.69568 0.25906 0.16275 0.0
C803 C 0.76754 0.27447 0.14515 0.0
C804 C 0.79826 0.29477 0.13713 0.0
C805 C 0.81185 0.31395 0.15156 0.0
C806 C 0.84083 0.33304 0.14387 0.0
C807 C 0.85677 0.33304 0.12183 0.0
C808 C 0.84387 0.31391 0.10745 0.0
C809 C 0.81484 0.29478 0.11505 0.0
H810 H 0.87922 0.34783 0.1159 0.0
H811 H 0.60677 0.16119 0.19481 0.0
H812 H 0.67563 0.16686 0.69928 0.0
H813 H 0.70897 0.20797 0.6949 0.0
H814 H 0.70768 0.1992 0.62348 0.0
H815 H 0.67366 0.1578 0.62774 0.0
H816 H 0.79316 0.22002 0.67711 0.0
H817 H 0.69576 0.2584 0.60047 0.0
H818 H 0.61915 0.25391 0.58094 0.0
H819 H 0.55184 0.23307 0.64226 0.0
H820 H 0.62786 0.23774 0.66219 0.0
H821 H 0.83166 0.35307 0.62775 0.0
H822 H 0.80289 0.31059 0.62332 0.0
H823 H 0.79241 0.30354 0.69471 0.0
H824 H 0.82164 0.34541 0.69926 0.0
H825 H 0.71961 0.28917 0.6355 0.0
H826 H 0.81863 0.24676 0.71127 0.0
H827 H 0.89463 0.25178 0.73116 0.0
H828 H 0.95875 0.281 0.67192 0.0
H829 H 0.88335 0.27584 0.65159 0.0
C830 C 0.68196 0.17368 0.68259 0.0
C831 C 0.67205 0.15899 0.66385 0.0
C832 C 0.70123 0.1972 0.68013 0.0
C833 C 0.71095 0.20669 0.65889 0.0
C834 C 0.70014 0.19234 0.64004 0.0
C835 C 0.68075 0.16869 0.6425 0.0
C836 C 0.73392 0.23126 0.65685 0.0
C837 C 0.7769 0.23518 0.66813 0.0
C838 C 0.71363 0.2508 0.64447 0.0
C839 C 0.66764 0.2481 0.63273 0.0
C840 C 0.66457 0.2529 0.60978 0.0
C841 C 0.62126 0.25033 0.59864 0.0
C842 C 0.5807 0.24311 0.61033 0.0
C843 C 0.58332 0.23854 0.6332 0.0
C844 C 0.62654 0.24111 0.64442 0.0
C845 C 0.8236 0.34235 0.64247 0.0
C846 C 0.82925 0.35259 0.66385 0.0
C847 C 0.80698 0.31813 0.63992 0.0
C848 C 0.79608 0.30374 0.65869 0.0
C849 C 0.80147 0.31406 0.67998 0.0
C850 C 0.81808 0.3381 0.68254 0.0
C851 C 0.7781 0.2781 0.65635 0.0
C852 C 0.73624 0.27392 0.64421 0.0
C853 C 0.79939 0.25825 0.66796 0.0
C854 C 0.84518 0.26106 0.67995 0.0
C855 C 0.84901 0.25412 0.70245 0.0
C856 C 0.89198 0.25703 0.71381 0.0
C857 C 0.93146 0.26676 0.70282 0.0
C858 C 0.9281 0.27354 0.68043 0.0
C859 C 0.88523 0.27066 0.66899 0.0
H860 H 0.96467 0.26901 0.71165 0.0
H861 H 0.5472 0.24112 0.60168 0.0
H862 H 0.32519 0.65818 0.88216 0.0
H863 H 0.29584 0.7005 0.88695 0.0
H864 H 0.29803 0.71072 0.81571 0.0
H865 H 0.32753 0.66886 0.81082 0.0
H866 H 0.33395 0.75012 0.8366 0.0
H867 H 0.19508 0.69832 0.84347 0.0
H868 H 0.14681 0.66507 0.8599 0.0
H869 H 0.15094 0.7014 0.92345 0.0
H870 H 0.1998 0.73473 0.90744 0.0
H871 H 0.17999 0.84649 0.81131 0.0
H872 H 0.21384 0.80553 0.81607 0.0
H873 H 0.20587 0.81354 0.88744 0.0
H874 H 0.17144 0.85488 0.88282 0.0
H875 H 0.17841 0.76654 0.87249 0.0
H876 H 0.3099 0.82122 0.86352 0.0
H877 H 0.35589 0.85458 0.84589 0.0
H878 H 0.36459 0.81269 0.78531 0.0
H879 H 0.31802 0.77923 0.80246 0.0
C880 C 0.31971 0.66954 0.86755 0.0
C881 C 0.3286 0.66013 0.84611 0.0
C882 C 0.30272 0.69366 0.87031 0.0
C883 C 0.29436 0.70873 0.85167 0.0
C884 C 0.30424 0.69948 0.83034 0.0
C885 C 0.32101 0.67547 0.82758 0.0
C886 C 0.27476 0.73405 0.85401 0.0
C887 C 0.29987 0.75367 0.84438 0.0
C888 C 0.23088 0.73885 0.8647 0.0
C889 C 0.20159 0.71883 0.87433 0.0
C890 C 0.18605 0.6991 0.861 0.0
C891 C 0.15851 0.68027 0.87022 0.0
C892 C 0.14595 0.68108 0.89273 0.0
C893 C 0.16079 0.70077 0.90604 0.0
C894 C 0.18839 0.71964 0.89689 0.0
C895 C 0.18504 0.83957 0.82807 0.0
C896 C 0.1733 0.85407 0.8467 0.0
C897 C 0.2046 0.81614 0.83074 0.0
C898 C 0.21315 0.80665 0.8521 0.0
C899 C 0.1998 0.8206 0.8708 0.0
C900 C 0.18018 0.8442 0.86814 0.0
C901 C 0.23708 0.7824 0.85454 0.0
C902 C 0.21288 0.76304 0.86507 0.0
C903 C 0.28176 0.77777 0.84458 0.0
C904 C 0.31019 0.79777 0.83425 0.0
C905 C 0.32134 0.81919 0.84639 0.0
C906 C 0.34756 0.83811 0.83649 0.0
C907 C 0.36309 0.83577 0.81448 0.0
C908 C 0.35252 0.81448 0.80235 0.0
C909 C 0.32627 0.79551 0.81217 0.0
H910 H 0.38337 0.85045 0.80685 0.0
H911 H 0.12461 0.66649 0.89984 0.0
loop_
_geom_bond_atom_site_label_1
_geom_bond_atom_site_label_2
_geom_bond_distance
_geom_bond_site_symmetry_2
_ccdc_geom_bond_type
O0 Cd1 2.223 . S
O0 C8 1.315 . S
Cd1 O0 2.223 . S
Cd1 O4 2.297 . S
Cd1 O5 2.439 . S
Cd1 O11 2.240 . S
Cd2 O3 2.240 . S
Cd2 O10 2.223 . S
Cd2 O12 2.297 . S
Cd2 O13 2.439 . S
O3 Cd2 2.240 . S
O3 C8 1.279 . S
O4 Cd1 2.297 . S
O4 C6 1.247 . S
O5 Cd1 2.439 . S
O5 C6 1.208 . S
C6 O4 1.247 . S
C6 O5 1.208 . S
C7 O12 1.247 . S
C7 O13 1.208 . S
C8 O0 1.315 . S
C8 O3 1.279 . S
C9 O10 1.315 . S
C9 O11 1.279 . S
O10 Cd2 2.223 . S
O10 C9 1.315 . S
O11 Cd1 2.240 . S
O11 C9 1.279 . S
O12 Cd2 2.297 . S
O12 C7 1.247 . S
O13 Cd2 2.439 . S
O13 C7 1.208 . S
O14 Cd15 2.223 . S
O14 C22 1.315 . S
Cd15 O14 2.223 . S
Cd15 O18 2.297 . S
Cd15 O19 2.439 . S
Cd15 O25 2.240 . S
Cd16 O17 2.240 . S
Cd16 O24 2.223 . S
Cd16 O26 2.297 . S
Cd16 O27 2.439 . S
O17 Cd16 2.240 . S
O17 C22 1.279 . S
O18 Cd15 2.297 . S
O18 C20 1.247 . S
O19 Cd15 2.439 . S
O19 C20 1.208 . S
C20 O18 1.247 . S
C20 O19 1.208 . S
C21 O26 1.247 . S
C21 O27 1.208 . S
C22 O14 1.315 . S
C22 O17 1.279 . S
C23 O24 1.315 . S
C23 O25 1.279 . S
O24 Cd16 2.223 . S
O24 C23 1.315 . S
O25 Cd15 2.240 . S
O25 C23 1.279 . S
O26 Cd16 2.297 . S
O26 C21 1.247 . S
O27 Cd16 2.439 . S
O27 C21 1.208 . S
O28 Cd29 2.223 . S
O28 C36 1.315 . S
Cd29 O28 2.223 . S
Cd29 O32 2.297 . S
Cd29 O33 2.439 . S
Cd29 O39 2.240 . S
Cd30 O31 2.240 . S
Cd30 O38 2.223 . S
Cd30 O40 2.297 . S
Cd30 O41 2.439 . S
O31 Cd30 2.240 . S
O31 C36 1.279 . S
O32 Cd29 2.297 . S
O32 C34 1.247 . S
O33 Cd29 2.439 . S
O33 C34 1.208 . S
C34 O32 1.247 . S
C34 O33 1.208 . S
C35 O40 1.247 . S
C35 O41 1.208 . S
C36 O28 1.315 . S
C36 O31 1.279 . S
C37 O38 1.315 . S
C37 O39 1.279 . S
O38 Cd30 2.223 . S
O38 C37 1.315 . S
O39 Cd29 2.240 . S
O39 C37 1.279 . S
O40 Cd30 2.297 . S
O40 C35 1.247 . S
O41 Cd30 2.439 . S
O41 C35 1.208 . S
O42 Cd43 2.223 . S
O42 C50 1.315 . S
Cd43 O42 2.223 . S
Cd43 O46 2.297 . S
Cd43 O47 2.439 . S
Cd43 O53 2.240 . S
Cd44 O45 2.240 . S
Cd44 O52 2.223 . S
Cd44 O54 2.297 . S
Cd44 O55 2.439 . S
O45 Cd44 2.240 . S
O45 C50 1.279 . S
O46 Cd43 2.297 . S
O46 C48 1.247 . S
O47 Cd43 2.439 . S
O47 C48 1.208 . S
C48 O46 1.247 . S
C48 O47 1.208 . S
C49 O54 1.247 . S
C49 O55 1.208 . S
C50 O42 1.315 . S
C50 O45 1.279 . S
C51 O52 1.315 . S
C51 O53 1.279 . S
O52 Cd44 2.223 . S
O52 C51 1.315 . S
O53 Cd43 2.240 . S
O53 C51 1.279 . S
O54 Cd44 2.297 . S
O54 C49 1.247 . S
O55 Cd44 2.439 . S
O55 C49 1.208 . S
O56 Cd57 2.223 . S
O56 C64 1.315 . S
Cd57 O56 2.223 . S
Cd57 O60 2.297 . S
Cd57 O61 2.439 . S
Cd57 O67 2.240 . S
Cd58 O59 2.240 . S
Cd58 O66 2.223 . S
Cd58 O68 2.297 . S
Cd58 O69 2.439 . S
O59 Cd58 2.240 . S
O59 C64 1.279 . S
O60 Cd57 2.297 . S
O60 C62 1.247 . S
O61 Cd57 2.439 . S
O61 C62 1.208 . S
C62 O60 1.247 . S
C62 O61 1.208 . S
C63 O68 1.247 . S
C63 O69 1.208 . S
C64 O56 1.315 . S
C64 O59 1.279 . S
C65 O66 1.315 . S
C65 O67 1.279 . S
O66 Cd58 2.223 . S
O66 C65 1.315 . S
O67 Cd57 2.240 . S
O67 C65 1.279 . S
O68 Cd58 2.297 . S
O68 C63 1.247 . S
O69 Cd58 2.439 . S
O69 C63 1.208 . S
O70 Cd71 2.223 . S
O70 C78 1.315 . S
Cd71 O70 2.223 . S
Cd71 O74 2.297 . S
Cd71 O75 2.439 . S
Cd71 O81 2.240 . S
Cd72 O73 2.240 . S
Cd72 O80 2.223 . S
Cd72 O82 2.297 . S
Cd72 O83 2.439 . S
O73 Cd72 2.240 . S
O73 C78 1.279 . S
O74 Cd71 2.297 . S
O74 C76 1.247 . S
O75 Cd71 2.439 . S
O75 C76 1.208 . S
C76 O74 1.247 . S
C76 O75 1.208 . S
C77 O82 1.247 . S
C77 O83 1.208 . S
C78 O70 1.315 . S
C78 O73 1.279 . S
C79 O80 1.315 . S
C79 O81 1.279 . S
O80 Cd72 2.223 . S
O80 C79 1.315 . S
O81 Cd71 2.240 . S
O81 C79 1.279 . S
O82 Cd72 2.297 . S
O82 C77 1.247 . S
O83 Cd72 2.439 . S
O83 C77 1.208 . S
O84 Cd85 2.223 . S
O84 C92 1.315 . S
Cd85 O84 2.223 . S
Cd85 O88 2.297 . S
Cd85 O89 2.439 . S
Cd85 O95 2.240 . S
Cd86 O87 2.240 . S
Cd86 O94 2.223 . S
Cd86 O96 2.297 . S
Cd86 O97 2.439 . S
O87 Cd86 2.240 . S
O87 C92 1.279 . S
O88 Cd85 2.297 . S
O88 C90 1.247 . S
O89 Cd85 2.439 . S
O89 C90 1.208 . S
C90 O88 1.247 . S
C90 O89 1.208 . S
C91 O96 1.247 . S
C91 O97 1.208 . S
C92 O84 1.315 . S
C92 O87 1.279 . S
C93 O94 1.315 . S
C93 O95 1.279 . S
O94 Cd86 2.223 . S
O94 C93 1.315 . S
O95 Cd85 2.240 . S
O95 C93 1.279 . S
O96 Cd86 2.297 . S
O96 C91 1.247 . S
O97 Cd86 2.439 . S
O97 C91 1.208 . S
O98 Cd99 2.223 . S
O98 C106 1.315 . S
Cd99 O98 2.223 . S
Cd99 O102 2.297 . S
Cd99 O103 2.439 . S
Cd99 O109 2.240 . S
Cd100 O101 2.240 . S
Cd100 O108 2.223 . S
Cd100 O110 2.297 . S
Cd100 O111 2.439 . S
O101 Cd100 2.240 . S
O101 C106 1.279 . S
O102 Cd99 2.297 . S
O102 C104 1.247 . S
O103 Cd99 2.439 . S
O103 C104 1.208 . S
C104 O102 1.247 . S
C104 O103 1.208 . S
C105 O110 1.247 . S
C105 O111 1.208 . S
C106 O98 1.315 . S
C106 O101 1.279 . S
C107 O108 1.315 . S
C107 O109 1.279 . S
O108 Cd100 2.223 . S
O108 C107 1.315 . S
O109 Cd99 2.240 . S
O109 C107 1.279 . S
O110 Cd100 2.297 . S
O110 C105 1.247 . S
O111 Cd100 2.439 . S
O111 C105 1.208 . S
H112 C130 0.951 . S
H113 C132 0.951 . S
H114 C134 0.950 . S
H115 C135 0.950 . S
H116 C137 0.950 . S
H117 C140 0.950 . S
H118 C141 0.950 . S
H119 C143 0.950 . S
H120 C144 0.950 . S
H121 C145 0.951 . S
H122 C147 0.951 . S
H123 C149 0.950 . S
H124 C150 0.950 . S
H125 C152 0.950 . S
H126 C155 0.950 . S
H127 C156 0.950 . S
H128 C158 0.950 . S
H129 C159 0.950 . S
C130 H112 0.951 . S
C130 C131 1.366 . S
C130 C132 1.388 . S
C131 C130 1.366 . S
C131 C135 1.385 . S
C132 H113 0.951 . S
C132 C130 1.388 . S
C132 C133 1.366 . S
C133 C132 1.366 . S
C133 C134 1.414 . S
C133 C136 1.499 . S
C134 H114 0.950 . S
C134 C133 1.414 . S
C134 C135 1.374 . S
C135 H115 0.950 . S
C135 C131 1.385 . S
C135 C134 1.374 . S
C136 C133 1.499 . S
C136 C137 1.373 . S
C136 C138 1.389 . S
C137 H116 0.950 . S
C137 C136 1.373 . S
C137 C153 1.377 . S
C138 C136 1.389 . S
C138 C139 1.524 . S
C138 C152 1.377 . S
C139 C138 1.524 . S
C139 C140 1.397 . S
C139 C144 1.363 . S
C140 H117 0.950 . S
C140 C139 1.397 . S
C140 C141 1.334 . S
C141 H118 0.950 . S
C141 C140 1.334 . S
C141 C142 1.287 . S
C142 C141 1.287 . S
C142 C143 1.524 . S
C142 H161 0.913 . S
C143 H119 0.950 . S
C143 C142 1.524 . S
C143 C144 1.415 . S
C144 H120 0.950 . S
C144 C139 1.363 . S
C144 C143 1.415 . S
C145 H121 0.951 . S
C145 C146 1.366 . S
C145 C147 1.388 . S
C146 C145 1.366 . S
C146 C150 1.385 . S
C147 H122 0.951 . S
C147 C145 1.388 . S
C147 C148 1.366 . S
C148 C147 1.366 . S
C148 C149 1.414 . S
C148 C151 1.499 . S
C149 H123 0.950 . S
C149 C148 1.414 . S
C149 C150 1.374 . S
C150 H124 0.950 . S
C150 C146 1.385 . S
C150 C149 1.374 . S
C151 C148 1.499 . S
C151 C152 1.373 . S
C151 C153 1.389 . S
C152 H125 0.950 . S
C152 C138 1.377 . S
C152 C151 1.373 . S
C153 C137 1.377 . S
C153 C151 1.389 . S
C153 C154 1.524 . S
C154 C153 1.524 . S
C154 C155 1.397 . S
C154 C159 1.363 . S
C155 H126 0.950 . S
C155 C154 1.397 . S
C155 C156 1.334 . S
C156 H127 0.950 . S
C156 C155 1.334 . S
C156 C157 1.287 . S
C157 C156 1.287 . S
C157 C158 1.524 . S
C157 H160 0.999 . S
C158 H128 0.950 . S
C158 C157 1.524 . S
C158 C159 1.415 . S
C159 H129 0.950 . S
C159 C154 1.363 . S
C159 C158 1.415 . S
H160 C157 0.999 . S
H161 C142 0.913 . S
H162 C180 0.951 . S
H163 C182 0.951 . S
H164 C184 0.950 1_665 S
H165 C185 0.950 . S
H166 C187 0.955 . S
H167 C190 0.950 . S
H168 C191 0.950 . S
H169 C193 0.950 . S
H170 C194 0.950 . S
H171 C195 0.951 . S
H172 C197 0.951 . S
H173 C199 0.950 1_545 S
H174 C200 0.950 . S
H175 C202 0.950 . S
H176 C205 0.950 . S
H177 C206 0.950 . S
H178 C208 0.950 . S
H179 C209 0.950 . S
C180 H162 0.951 . S
C180 C181 1.366 1_455 S
C180 C182 1.388 . S
C181 C180 1.366 1_655 S
C181 C185 1.385 . S
C182 H163 0.951 . S
C182 C180 1.388 . S
C182 C183 1.366 . S
C183 C182 1.366 . S
C183 C184 1.414 . S
C183 C186 1.499 . S
C184 H164 0.950 1_445 S
C184 C183 1.414 . S
C184 C185 1.374 1_455 S
C185 H165 0.950 . S
C185 C181 1.385 . S
C185 C184 1.374 1_655 S
C186 C183 1.499 . S
C186 C187 1.377 . S
C186 C188 1.381 1_545 S
C187 H166 0.955 . S
C187 C186 1.377 . S
C187 C203 1.369 1_545 S
C188 C186 1.381 1_565 S
C188 C189 1.524 . S
C188 C202 1.392 . S
C189 C188 1.524 . S
C189 C190 1.394 . S
C189 C194 1.365 1_565 S
C190 H167 0.950 . S
C190 C189 1.394 . S
C190 C191 1.334 . S
C191 H168 0.950 . S
C191 C190 1.334 . S
C191 C192 1.287 . S
C192 C191 1.287 . S
C192 C193 1.524 1_565 S
C192 H211 0.913 . S
C193 H169 0.950 . S
C193 C192 1.524 1_545 S
C193 C194 1.415 . S
C194 H170 0.950 . S
C194 C189 1.365 1_545 S
C194 C193 1.415 . S
C195 H171 0.951 . S
C195 C196 1.366 . S
C195 C197 1.388 . S
C196 C195 1.366 . S
C196 C200 1.385 . S
C197 H172 0.951 . S
C197 C195 1.388 . S
C197 C198 1.366 . S
C198 C197 1.366 . S
C198 C199 1.414 . S
C198 C201 1.499 . S
C199 H173 0.950 1_565 S
C199 C198 1.414 . S
C199 C200 1.374 . S
C200 H174 0.950 . S
C200 C196 1.385 . S
C200 C199 1.374 . S
C201 C198 1.499 . S
C201 C202 1.373 . S
C201 C203 1.389 . S
C202 H175 0.950 . S
C202 C188 1.392 . S
C202 C201 1.373 . S
C203 C187 1.369 1_565 S
C203 C201 1.389 . S
C203 C204 1.524 . S
C204 C203 1.524 . S
C204 C205 1.397 1_565 S
C204 C209 1.363 . S
C205 H176 0.950 . S
C205 C204 1.397 1_545 S
C205 C206 1.334 . S
C206 H177 0.950 . S
C206 C205 1.334 . S
C206 C207 1.287 1_545 S
C207 C206 1.287 1_565 S
C207 C208 1.524 . S
C207 H210 0.999 . S
C208 H178 0.950 . S
C208 C207 1.524 . S
C208 C209 1.415 . S
C209 H179 0.950 . S
C209 C204 1.363 . S
C209 C208 1.415 . S
H210 C207 0.999 . S
H211 C192 0.913 . S
H212 C230 0.951 . S
H213 C232 0.951 . S
H214 C234 0.950 . S
H215 C235 0.950 . S
H216 C237 0.950 . S
H217 C240 0.950 . S
H218 C241 0.950 . S
H219 C243 0.950 . S
H220 C244 0.950 . S
H221 C245 0.951 . S
H222 C247 0.951 . S
H223 C249 0.950 . S
H224 C250 0.950 . S
H225 C252 0.950 . S
H226 C255 0.950 . S
H227 C256 0.950 1_455 S
H228 C258 0.950 . S
H229 C259 0.950 . S
C230 H212 0.951 . S
C230 C231 1.366 . S
C230 C232 1.388 . S
C231 C230 1.366 . S
C231 C235 1.385 . S
C232 H213 0.951 . S
C232 C230 1.388 . S
C232 C233 1.366 . S
C233 C232 1.366 . S
C233 C234 1.414 . S
C233 C236 1.499 . S
C234 H214 0.950 . S
C234 C233 1.414 . S
C234 C235 1.374 . S
C235 H215 0.950 . S
C235 C231 1.385 . S
C235 C234 1.374 . S
C236 C233 1.499 . S
C236 C237 1.373 . S
C236 C238 1.389 . S
C237 H216 0.950 . S
C237 C236 1.373 . S
C237 C253 1.377 . S
C238 C236 1.389 . S
C238 C239 1.524 . S
C238 C252 1.377 . S
C239 C238 1.524 . S
C239 C240 1.397 . S
C239 C244 1.363 . S
C240 H217 0.950 . S
C240 C239 1.397 . S
C240 C241 1.334 . S
C241 H218 0.950 . S
C241 C240 1.334 . S
C241 C242 1.287 . S
C242 C241 1.287 . S
C242 C243 1.524 . S
C242 H261 0.913 . S
C243 H219 0.950 . S
C243 C242 1.524 . S
C243 C244 1.415 . S
C244 H220 0.950 . S
C244 C239 1.363 . S
C244 C243 1.415 . S
C245 H221 0.951 . S
C245 C246 1.366 1_655 S
C245 C247 1.388 . S
C246 C245 1.366 1_455 S
C246 C250 1.385 . S
C247 H222 0.951 . S
C247 C245 1.388 . S
C247 C248 1.366 . S
C248 C247 1.366 . S
C248 C249 1.414 . S
C248 C251 1.499 . S
C249 H223 0.950 . S
C249 C248 1.414 . S
C249 C250 1.374 1_655 S
C250 H224 0.950 . S
C250 C246 1.385 . S
C250 C249 1.374 1_455 S
C251 C248 1.499 . S
C251 C252 1.373 . S
C251 C253 1.389 . S
C252 H225 0.950 . S
C252 C238 1.377 . S
C252 C251 1.373 . S
C253 C237 1.377 . S
C253 C251 1.389 . S
C253 C254 1.524 . S
C254 C253 1.524 . S
C254 C255 1.397 . S
C254 C259 1.363 . S
C255 H226 0.950 . S
C255 C254 1.397 . S
C255 C256 1.334 . S
C256 H227 0.950 1_655 S
C256 C255 1.334 . S
C256 C257 1.287 . S
C257 C256 1.287 . S
C257 C258 1.524 . S
C257 H260 0.999 . S
C258 H228 0.950 . S
C258 C257 1.524 . S
C258 C259 1.415 . S
C259 H229 0.950 . S
C259 C254 1.363 . S
C259 C258 1.415 . S
H260 C257 0.999 . S
H261 C242 0.913 . S
H262 C280 0.951 . S
H263 C282 0.951 . S
H264 C284 0.950 . S
H265 C285 0.950 . S
H266 C287 0.950 . S
H267 C290 0.950 . S
H268 C291 0.950 . S
H269 C293 0.950 . S
H270 C294 0.950 1_545 S
H271 C295 0.951 . S
H272 C297 0.951 . S
H273 C299 0.940 1_545 S
H274 C300 0.950 . S
H275 C302 0.950 . S
H276 C305 0.950 . S
H277 C306 0.950 . S
H278 C308 0.950 . S
H279 C309 0.939 1_565 S
C280 H262 0.951 . S
C280 C281 1.366 . S
C280 C282 1.388 . S
C281 C280 1.366 . S
C281 C285 1.385 . S
C282 H263 0.951 . S
C282 C280 1.388 . S
C282 C283 1.366 . S
C283 C282 1.366 . S
C283 C284 1.414 . S
C283 C286 1.499 . S
C284 H264 0.950 . S
C284 C283 1.414 . S
C284 C285 1.374 . S
C285 H265 0.950 . S
C285 C281 1.385 . S
C285 C284 1.374 . S
C286 C283 1.499 . S
C286 C287 1.373 . S
C286 C288 1.401 . S
C287 H266 0.950 . S
C287 C286 1.373 . S
C287 C303 1.377 . S
C288 C286 1.401 . S
C288 C289 1.519 1_545 S
C288 C302 1.369 1_545 S
C289 C288 1.519 1_565 S
C289 C290 1.397 . S
C289 C294 1.363 . S
C290 H267 0.950 . S
C290 C289 1.397 . S
C290 C291 1.334 . S
C291 H268 0.950 . S
C291 C290 1.334 . S
C291 C292 1.287 . S
C292 C291 1.287 . S
C292 C293 1.524 . S
C292 H311 0.913 . S
C293 H269 0.950 . S
C293 C292 1.524 . S
C293 C294 1.415 . S
C294 H270 0.950 1_565 S
C294 C289 1.363 . S
C294 C293 1.415 . S
C295 H271 0.951 . S
C295 C296 1.366 . S
C295 C297 1.388 . S
C296 C295 1.366 . S
C296 C300 1.385 . S
C297 H272 0.951 . S
C297 C295 1.388 . S
C297 C298 1.366 . S
C298 C297 1.366 . S
C298 C299 1.414 . S
C298 C301 1.499 . S
C299 H273 0.940 1_565 S
C299 C298 1.414 . S
C299 C300 1.374 . S
C300 H274 0.950 . S
C300 C296 1.385 . S
C300 C299 1.374 . S
C301 C298 1.499 . S
C301 C302 1.373 . S
C301 C303 1.389 1_565 S
C302 H275 0.950 . S
C302 C288 1.369 1_565 S
C302 C301 1.373 . S
C303 C287 1.377 . S
C303 C301 1.389 1_545 S
C303 C304 1.524 . S
C304 C303 1.524 . S
C304 C305 1.397 . S
C304 C309 1.363 . S
C305 H276 0.950 . S
C305 C304 1.397 . S
C305 C306 1.334 . S
C306 H277 0.950 . S
C306 C305 1.334 . S
C306 C307 1.287 . S
C307 C306 1.287 . S
C307 C308 1.524 . S
C307 H310 0.999 . S
C308 H278 0.950 . S
C308 C307 1.524 . S
C308 C309 1.415 . S
C309 H279 0.939 1_545 S
C309 C304 1.363 . S
C309 C308 1.415 . S
H310 C307 0.999 . S
H311 C292 0.913 . S
H312 C330 0.951 . S
H313 C332 0.951 . S
H314 C334 0.950 . S
H315 C335 0.950 . S
H316 C337 0.950 . S
H317 C340 0.950 . S
H318 C341 0.950 . S
H319 C343 0.950 . S
H320 C344 0.950 . S
H321 C345 0.951 . S
H322 C347 0.951 . S
H323 C349 0.950 . S
H324 C350 0.950 . S
H325 C352 0.950 . S
H326 C355 0.950 . S
H327 C356 0.950 . S
H328 C358 0.950 . S
H329 C359 0.950 . S
C330 H312 0.951 . S
C330 C331 1.366 . S
C330 C332 1.388 . S
C331 C330 1.366 . S
C331 C335 1.385 . S
C332 H313 0.951 . S
C332 C330 1.388 . S
C332 C333 1.366 . S
C333 C332 1.366 . S
C333 C334 1.414 . S
C333 C336 1.499 . S
C334 H314 0.950 . S
C334 C333 1.414 . S
C334 C335 1.374 . S
C335 H315 0.950 . S
C335 C331 1.385 . S
C335 C334 1.374 . S
C336 C333 1.499 . S
C336 C337 1.373 . S
C336 C338 1.389 . S
C337 H316 0.950 . S
C337 C336 1.373 . S
C337 C353 1.377 . S
C338 C336 1.389 . S
C338 C339 1.524 . S
C338 C352 1.377 . S
C339 C338 1.524 . S
C339 C340 1.397 . S
C339 C344 1.363 . S
C340 H317 0.950 . S
C340 C339 1.397 . S
C340 C341 1.334 . S
C341 H318 0.950 . S
C341 C340 1.334 . S
C341 C342 1.287 . S
C342 C341 1.287 . S
C342 C343 1.524 . S
C342 H361 0.913 . S
C343 H319 0.950 . S
C343 C342 1.524 . S
C343 C344 1.415 . S
C344 H320 0.950 . S
C344 C339 1.363 . S
C344 C343 1.415 . S
C345 H321 0.951 . S
C345 C346 1.366 . S
C345 C347 1.388 . S
C346 C345 1.366 . S
C346 C350 1.385 . S
C347 H322 0.951 . S
C347 C345 1.388 . S
C347 C348 1.366 . S
C348 C347 1.366 . S
C348 C349 1.414 . S
C348 C351 1.499 . S
C349 H323 0.950 . S
C349 C348 1.414 . S
C349 C350 1.374 . S
C350 H324 0.950 . S
C350 C346 1.385 . S
C350 C349 1.374 . S
C351 C348 1.499 . S
C351 C352 1.373 . S
C351 C353 1.389 . S
C352 H325 0.950 . S
C352 C338 1.377 . S
C352 C351 1.373 . S
C353 C337 1.377 . S
C353 C351 1.389 . S
C353 C354 1.524 . S
C354 C353 1.524 . S
C354 C355 1.397 . S
C354 C359 1.363 . S
C355 H326 0.950 . S
C355 C354 1.397 . S
C355 C356 1.334 . S
C356 H327 0.950 . S
C356 C355 1.334 . S
C356 C357 1.287 . S
C357 C356 1.287 . S
C357 C358 1.524 . S
C357 H360 0.999 . S
C358 H328 0.950 . S
C358 C357 1.524 . S
C358 C359 1.415 . S
C359 H329 0.950 . S
C359 C354 1.363 . S
C359 C358 1.415 . S
H360 C357 0.999 . S
H361 C342 0.913 . S
H362 C380 0.951 . S
H363 C382 0.951 1_565 S
H364 C384 0.950 . S
H365 C385 0.950 . S
H366 C387 0.950 . S
H367 C390 0.950 . S
H368 C391 0.950 . S
H369 C393 0.950 . S
H370 C394 0.950 . S
H371 C395 0.951 1_545 S
H372 C397 0.938 1_545 S
H373 C399 0.950 . S
H374 C400 0.950 . S
H375 C402 0.950 . S
H376 C405 0.951 . S
H377 C406 0.950 . S
H378 C408 0.950 . S
H379 C409 0.950 . S
C380 H362 0.951 . S
C380 C381 1.366 . S
C380 C382 1.388 . S
C381 C380 1.366 . S
C381 C385 1.385 . S
C382 H363 0.951 1_545 S
C382 C380 1.388 . S
C382 C383 1.366 . S
C383 C382 1.366 . S
C383 C384 1.414 . S
C383 C386 1.499 . S
C384 H364 0.950 . S
C384 C383 1.414 . S
C384 C385 1.374 . S
C385 H365 0.950 . S
C385 C381 1.385 . S
C385 C384 1.374 . S
C386 C383 1.499 . S
C386 C387 1.373 . S
C386 C388 1.389 1_545 S
C387 H366 0.950 . S
C387 C386 1.373 . S
C387 C403 1.377 . S
C388 C386 1.389 1_565 S
C388 C389 1.524 . S
C388 C402 1.377 . S
C389 C388 1.524 . S
C389 C390 1.397 1_565 S
C389 C394 1.363 . S
C390 H367 0.950 . S
C390 C389 1.397 1_545 S
C390 C391 1.334 . S
C391 H368 0.950 . S
C391 C390 1.334 . S
C391 C392 1.287 1_545 S
C392 C391 1.287 1_565 S
C392 C393 1.524 . S
C392 H411 0.913 . S
C393 H369 0.950 . S
C393 C392 1.524 . S
C393 C394 1.415 . S
C394 H370 0.950 . S
C394 C389 1.363 . S
C394 C393 1.415 . S
C395 H371 0.951 1_565 S
C395 C396 1.366 . S
C395 C397 1.392 1_455 S
C396 C395 1.366 . S
C396 C400 1.385 1_455 S
C397 H372 0.938 1_565 S
C397 C395 1.392 1_655 S
C397 C398 1.374 . S
C398 C397 1.374 . S
C398 C399 1.414 . S
C398 C401 1.499 . S
C399 H373 0.950 . S
C399 C398 1.414 . S
C399 C400 1.374 . S
C400 H374 0.950 . S
C400 C396 1.385 1_655 S
C400 C399 1.374 . S
C401 C398 1.499 . S
C401 C402 1.373 . S
C401 C403 1.389 1_565 S
C402 H375 0.950 . S
C402 C388 1.377 . S
C402 C401 1.373 . S
C403 C387 1.377 . S
C403 C401 1.389 1_545 S
C403 C404 1.524 . S
C404 C403 1.524 . S
C404 C405 1.399 1_545 S
C404 C409 1.363 . S
C405 H376 0.951 . S
C405 C404 1.399 1_565 S
C405 C406 1.331 1_655 S
C406 H377 0.950 . S
C406 C405 1.331 1_455 S
C406 C407 1.287 1_565 S
C407 C406 1.287 1_545 S
C407 C408 1.524 . S
C407 H410 0.999 . S
C408 H378 0.950 . S
C408 C407 1.524 . S
C408 C409 1.415 1_455 S
C409 H379 0.950 . S
C409 C404 1.363 . S
C409 C408 1.415 1_655 S
H410 C407 0.999 . S
H411 C392 0.913 . S
H412 C430 0.951 . S
H413 C432 0.951 . S
H414 C434 0.950 . S
H415 C435 0.950 . S
H416 C437 0.950 . S
H417 C440 0.950 . S
H418 C441 0.950 . S
H419 C443 0.950 . S
H420 C444 0.950 . S
H421 C445 0.951 1_655 S
H422 C447 0.951 . S
H423 C449 0.950 . S
H424 C450 0.950 . S
H425 C452 0.950 . S
H426 C455 0.950 . S
H427 C456 0.950 . S
H428 C458 0.950 . S
H429 C459 0.950 . S
C430 H412 0.951 . S
C430 C431 1.366 . S
C430 C432 1.388 . S
C431 C430 1.366 . S
C431 C435 1.385 . S
C432 H413 0.951 . S
C432 C430 1.388 . S
C432 C433 1.366 . S
C433 C432 1.366 . S
C433 C434 1.414 . S
C433 C436 1.499 . S
C434 H414 0.950 . S
C434 C433 1.414 . S
C434 C435 1.374 . S
C435 H415 0.950 . S
C435 C431 1.385 . S
C435 C434 1.374 . S
C436 C433 1.499 . S
C436 C437 1.373 . S
C436 C438 1.389 . S
C437 H416 0.950 . S
C437 C436 1.373 . S
C437 C453 1.377 . S
C438 C436 1.389 . S
C438 C439 1.524 . S
C438 C452 1.377 . S
C439 C438 1.524 . S
C439 C440 1.397 . S
C439 C444 1.363 . S
C440 H417 0.950 . S
C440 C439 1.397 . S
C440 C441 1.334 . S
C441 H418 0.950 . S
C441 C440 1.334 . S
C441 C442 1.287 . S
C442 C441 1.287 . S
C442 C443 1.524 . S
C442 H461 0.913 . S
C443 H419 0.950 . S
C443 C442 1.524 . S
C443 C444 1.415 . S
C444 H420 0.950 . S
C444 C439 1.363 . S
C444 C443 1.415 . S
C445 H421 0.951 1_455 S
C445 C446 1.366 1_455 S
C445 C447 1.388 . S
C446 C445 1.366 1_655 S
C446 C450 1.385 . S
C447 H422 0.951 . S
C447 C445 1.388 . S
C447 C448 1.366 . S
C448 C447 1.366 . S
C448 C449 1.414 . S
C448 C451 1.499 . S
C449 H423 0.950 . S
C449 C448 1.414 . S
C449 C450 1.374 1_455 S
C450 H424 0.950 . S
C450 C446 1.385 . S
C450 C449 1.374 1_655 S
C451 C448 1.499 . S
C451 C452 1.373 . S
C451 C453 1.389 . S
C452 H425 0.950 . S
C452 C438 1.377 . S
C452 C451 1.373 . S
C453 C437 1.377 . S
C453 C451 1.389 . S
C453 C454 1.524 . S
C454 C453 1.524 . S
C454 C455 1.397 . S
C454 C459 1.363 . S
C455 H426 0.950 . S
C455 C454 1.397 . S
C455 C456 1.334 . S
C456 H427 0.950 . S
C456 C455 1.334 . S
C456 C457 1.287 . S
C457 C456 1.287 . S
C457 C458 1.524 . S
C457 H460 0.999 . S
C458 H428 0.950 . S
C458 C457 1.524 . S
C458 C459 1.415 . S
C459 H429 0.950 . S
C459 C454 1.363 . S
C459 C458 1.415 . S
H460 C457 0.999 . S
H461 C442 0.913 . S
H462 C480 0.951 . S
H463 C482 0.951 . S
H464 C484 0.950 1_545 S
H465 C485 0.950 . S
H466 C487 0.954 . S
H467 C490 0.950 . S
H468 C491 0.950 . S
H469 C493 0.950 . S
H470 C494 0.950 . S
H471 C495 0.951 . S
H472 C497 0.951 . S
H473 C499 0.952 . S
H474 C500 0.922 1_565 S
H475 C502 0.950 . S
H476 C505 0.950 1_565 S
H477 C506 0.950 . S
H478 C508 0.950 . S
H479 C509 0.950 . S
C480 H462 0.951 . S
C480 C481 1.366 . S
C480 C482 1.388 . S
C481 C480 1.366 . S
C481 C485 1.385 . S
C482 H463 0.951 . S
C482 C480 1.388 . S
C482 C483 1.366 . S
C483 C482 1.366 . S
C483 C484 1.414 . S
C483 C486 1.499 . S
C484 H464 0.950 1_565 S
C484 C483 1.414 . S
C484 C485 1.374 . S
C485 H465 0.950 . S
C485 C481 1.385 . S
C485 C484 1.374 . S
C486 C483 1.499 . S
C486 C487 1.363 1_565 S
C486 C488 1.389 . S
C487 H466 0.954 . S
C487 C486 1.363 1_545 S
C487 C503 1.383 . S
C488 C486 1.389 . S
C488 C489 1.524 . S
C488 C502 1.377 . S
C489 C488 1.524 . S
C489 C490 1.397 . S
C489 C494 1.363 . S
C490 H467 0.950 . S
C490 C489 1.397 . S
C490 C491 1.334 . S
C491 H468 0.950 . S
C491 C490 1.334 . S
C491 C492 1.287 . S
C492 C491 1.287 . S
C492 C493 1.524 . S
C492 H511 0.913 . S
C493 H469 0.950 . S
C493 C492 1.524 . S
C493 C494 1.415 . S
C494 H470 0.950 . S
C494 C489 1.363 . S
C494 C493 1.415 . S
C495 H471 0.951 . S
C495 C496 1.366 . S
C495 C497 1.388 . S
C496 C495 1.366 . S
C496 C500 1.385 . S
C497 H472 0.951 . S
C497 C495 1.388 . S
C497 C498 1.366 . S
C498 C497 1.366 . S
C498 C499 1.413 1_545 S
C498 C501 1.499 . S
C499 H473 0.952 . S
C499 C498 1.413 1_565 S
C499 C500 1.373 1_565 S
C500 H474 0.922 1_545 S
C500 C496 1.385 . S
C500 C499 1.373 1_545 S
C501 C498 1.499 . S
C501 C502 1.373 1_545 S
C501 C503 1.389 . S
C502 H475 0.950 . S
C502 C488 1.377 . S
C502 C501 1.373 1_565 S
C503 C487 1.383 . S
C503 C501 1.389 . S
C503 C504 1.524 . S
C504 C503 1.524 . S
C504 C505 1.397 . S
C504 C509 1.363 . S
C505 H476 0.950 1_545 S
C505 C504 1.397 . S
C505 C506 1.334 . S
C506 H477 0.950 . S
C506 C505 1.334 . S
C506 C507 1.287 . S
C507 C506 1.287 . S
C507 C508 1.524 . S
C507 H510 0.999 . S
C508 H478 0.950 . S
C508 C507 1.524 . S
C508 C509 1.415 . S
C509 H479 0.950 . S
C509 C504 1.363 . S
C509 C508 1.415 . S
H510 C507 0.999 . S
H511 C492 0.913 . S
H512 C530 0.951 1_655 S
H513 C532 0.951 . S
H514 C534 0.950 . S
H515 C535 0.950 . S
H516 C537 0.950 . S
H517 C540 0.950 1_455 S
H518 C541 0.950 . S
H519 C543 0.950 . S
H520 C544 0.950 . S
H521 C545 0.951 1_455 S
H522 C547 0.951 . S
H523 C549 0.950 . S
H524 C550 0.950 . S
H525 C552 0.950 . S
H526 C555 0.950 1_655 S
H527 C556 0.950 . S
H528 C558 0.950 . S
H529 C559 0.950 . S
C530 H512 0.951 1_455 S
C530 C531 1.366 . S
C530 C532 1.388 1_455 S
C531 C530 1.366 . S
C531 C535 1.385 . S
C532 H513 0.951 . S
C532 C530 1.388 1_655 S
C532 C533 1.366 1_655 S
C533 C532 1.366 1_455 S
C533 C534 1.414 . S
C533 C536 1.499 . S
C534 H514 0.950 . S
C534 C533 1.414 . S
C534 C535 1.374 . S
C535 H515 0.950 . S
C535 C531 1.385 . S
C535 C534 1.374 . S
C536 C533 1.499 . S
C536 C537 1.373 . S
C536 C538 1.389 1_455 S
C537 H516 0.950 . S
C537 C536 1.373 . S
C537 C553 1.377 . S
C538 C536 1.389 1_655 S
C538 C539 1.524 . S
C538 C552 1.377 . S
C539 C538 1.524 . S
C539 C540 1.397 . S
C539 C544 1.363 . S
C540 H517 0.950 1_655 S
C540 C539 1.397 . S
C540 C541 1.334 . S
C541 H518 0.950 . S
C541 C540 1.334 . S
C541 C542 1.287 . S
C542 C541 1.287 . S
C542 C543 1.524 . S
C542 H561 0.913 . S
C543 H519 0.950 . S
C543 C542 1.524 . S
C543 C544 1.415 . S
C544 H520 0.950 . S
C544 C539 1.363 . S
C544 C543 1.415 . S
C545 H521 0.951 1_655 S
C545 C546 1.366 . S
C545 C547 1.388 1_655 S
C546 C545 1.366 . S
C546 C550 1.385 . S
C547 H522 0.951 . S
C547 C545 1.388 1_455 S
C547 C548 1.366 1_455 S
C548 C547 1.366 1_655 S
C548 C549 1.414 . S
C548 C551 1.499 . S
C549 H523 0.950 . S
C549 C548 1.414 . S
C549 C550 1.374 . S
C550 H524 0.950 . S
C550 C546 1.385 . S
C550 C549 1.374 . S
C551 C548 1.499 . S
C551 C552 1.373 . S
C551 C553 1.389 1_655 S
C552 H525 0.950 . S
C552 C538 1.377 . S
C552 C551 1.373 . S
C553 C537 1.377 . S
C553 C551 1.389 1_455 S
C553 C554 1.524 . S
C554 C553 1.524 . S
C554 C555 1.397 . S
C554 C559 1.363 . S
C555 H526 0.950 1_455 S
C555 C554 1.397 . S
C555 C556 1.334 . S
C556 H527 0.950 . S
C556 C555 1.334 . S
C556 C557 1.287 . S
C557 C556 1.287 . S
C557 C558 1.524 . S
C557 H560 0.999 . S
C558 H528 0.950 . S
C558 C557 1.524 . S
C558 C559 1.415 . S
C559 H529 0.950 . S
C559 C554 1.363 . S
C559 C558 1.415 . S
H560 C557 0.999 . S
H561 C542 0.913 . S
H562 C580 0.951 . S
H563 C582 0.951 1_545 S
H564 C584 0.950 . S
H565 C585 0.950 . S
H566 C587 0.950 . S
H567 C590 0.950 . S
H568 C591 0.950 . S
H569 C593 0.950 . S
H570 C594 0.950 . S
H571 C595 0.951 . S
H572 C597 0.951 1_565 S
H573 C599 0.950 . S
H574 C600 0.950 . S
H575 C602 0.950 . S
H576 C605 0.950 . S
H577 C606 0.950 . S
H578 C608 0.950 . S
H579 C609 0.950 . S
C580 H562 0.951 . S
C580 C581 1.366 . S
C580 C582 1.388 . S
C581 C580 1.366 . S
C581 C585 1.385 . S
C582 H563 0.951 1_565 S
C582 C580 1.388 . S
C582 C583 1.366 . S
C583 C582 1.366 . S
C583 C584 1.414 . S
C583 C586 1.499 . S
C584 H564 0.950 . S
C584 C583 1.414 . S
C584 C585 1.374 . S
C585 H565 0.950 . S
C585 C581 1.385 . S
C585 C584 1.374 . S
C586 C583 1.499 . S
C586 C587 1.373 . S
C586 C588 1.389 1_565 S
C587 H566 0.950 . S
C587 C586 1.373 . S
C587 C603 1.377 . S
C588 C586 1.389 1_545 S
C588 C589 1.524 . S
C588 C602 1.377 . S
C589 C588 1.524 . S
C589 C590 1.397 . S
C589 C594 1.363 . S
C590 H567 0.950 . S
C590 C589 1.397 . S
C590 C591 1.334 . S
C591 H568 0.950 . S
C591 C590 1.334 . S
C591 C592 1.287 . S
C592 C591 1.287 . S
C592 C593 1.524 . S
C592 H611 0.913 . S
C593 H569 0.950 . S
C593 C592 1.524 . S
C593 C594 1.415 . S
C594 H570 0.950 . S
C594 C589 1.363 . S
C594 C593 1.415 . S
C595 H571 0.951 . S
C595 C596 1.366 . S
C595 C597 1.388 . S
C596 C595 1.366 . S
C596 C600 1.385 . S
C597 H572 0.951 1_545 S
C597 C595 1.388 . S
C597 C598 1.366 . S
C598 C597 1.366 . S
C598 C599 1.414 . S
C598 C601 1.499 . S
C599 H573 0.950 . S
C599 C598 1.414 . S
C599 C600 1.374 . S
C600 H574 0.950 . S
C600 C596 1.385 . S
C600 C599 1.374 . S
C601 C598 1.499 . S
C601 C602 1.373 . S
C601 C603 1.389 1_545 S
C602 H575 0.950 . S
C602 C588 1.377 . S
C602 C601 1.373 . S
C603 C587 1.377 . S
C603 C601 1.389 1_565 S
C603 C604 1.524 . S
C604 C603 1.524 . S
C604 C605 1.397 . S
C604 C609 1.363 . S
C605 H576 0.950 . S
C605 C604 1.397 . S
C605 C606 1.334 . S
C606 H577 0.950 . S
C606 C605 1.334 . S
C606 C607 1.287 . S
C607 C606 1.287 . S
C607 C608 1.524 . S
C607 H610 0.999 . S
C608 H578 0.950 . S
C608 C607 1.524 . S
C608 C609 1.415 . S
C609 H579 0.950 . S
C609 C604 1.363 . S
C609 C608 1.415 . S
H610 C607 0.999 . S
H611 C592 0.913 . S
H612 C630 0.951 . S
H613 C632 0.951 . S
H614 C634 0.950 . S
H615 C635 0.950 . S
H616 C637 0.950 . S
H617 C640 0.950 . S
H618 C641 0.950 . S
H619 C643 0.950 . S
H620 C644 0.950 . S
H621 C645 0.951 . S
H622 C647 0.951 . S
H623 C649 0.950 . S
H624 C650 0.950 . S
H625 C652 0.950 . S
H626 C655 0.950 . S
H627 C656 0.950 . S
H628 C658 0.950 . S
H629 C659 0.950 . S
C630 H612 0.951 . S
C630 C631 1.366 . S
C630 C632 1.388 . S
C631 C630 1.366 . S
C631 C635 1.385 . S
C632 H613 0.951 . S
C632 C630 1.388 . S
C632 C633 1.366 . S
C633 C632 1.366 . S
C633 C634 1.414 . S
C633 C636 1.499 . S
C634 H614 0.950 . S
C634 C633 1.414 . S
C634 C635 1.374 . S
C635 H615 0.950 . S
C635 C631 1.385 . S
C635 C634 1.374 . S
C636 C633 1.499 . S
C636 C637 1.373 . S
C636 C638 1.389 . S
C637 H616 0.950 . S
C637 C636 1.373 . S
C637 C653 1.377 1_554 S
C638 C636 1.389 . S
C638 C639 1.524 . S
C638 C652 1.377 1_554 S
C639 C638 1.524 . S
C639 C640 1.397 . S
C639 C644 1.363 . S
C640 H617 0.950 . S
C640 C639 1.397 . S
C640 C641 1.334 . S
C641 H618 0.950 . S
C641 C640 1.334 . S
C641 C642 1.287 . S
C642 C641 1.287 . S
C642 C643 1.524 . S
C642 H661 0.913 . S
C643 H619 0.950 . S
C643 C642 1.524 . S
C643 C644 1.415 . S
C644 H620 0.950 . S
C644 C639 1.363 . S
C644 C643 1.415 . S
C645 H621 0.951 . S
C645 C646 1.366 . S
C645 C647 1.388 . S
C646 C645 1.366 . S
C646 C650 1.385 . S
C647 H622 0.951 . S
C647 C645 1.388 . S
C647 C648 1.366 . S
C648 C647 1.366 . S
C648 C649 1.414 . S
C648 C651 1.499 . S
C649 H623 0.950 . S
C649 C648 1.414 . S
C649 C650 1.374 . S
C650 H624 0.950 . S
C650 C646 1.385 . S
C650 C649 1.374 . S
C651 C648 1.499 . S
C651 C652 1.373 . S
C651 C653 1.389 . S
C652 H625 0.950 . S
C652 C638 1.377 1_556 S
C652 C651 1.373 . S
C653 C637 1.377 1_556 S
C653 C651 1.389 . S
C653 C654 1.524 . S
C654 C653 1.524 . S
C654 C655 1.397 . S
C654 C659 1.363 . S
C655 H626 0.950 . S
C655 C654 1.397 . S
C655 C656 1.334 . S
C656 H627 0.950 . S
C656 C655 1.334 . S
C656 C657 1.287 . S
C657 C656 1.287 . S
C657 C658 1.524 . S
C657 H660 0.999 . S
C658 H628 0.950 . S
C658 C657 1.524 . S
C658 C659 1.415 . S
C659 H629 0.950 . S
C659 C654 1.363 . S
C659 C658 1.415 . S
H660 C657 0.999 . S
H661 C642 0.913 . S
H662 C680 0.951 . S
H663 C682 0.951 . S
H664 C684 0.950 1_545 S
H665 C685 0.950 . S
H666 C687 0.950 . S
H667 C690 0.950 . S
H668 C691 0.950 . S
H669 C693 0.950 . S
H670 C694 0.918 1_554 S
H671 C695 0.951 . S
H672 C697 0.951 . S
H673 C699 0.950 1_565 S
H674 C700 0.950 . S
H675 C702 0.950 . S
H676 C705 0.950 . S
H677 C706 0.950 . S
H678 C708 0.950 . S
H679 C709 0.918 1_556 S
C680 H662 0.951 . S
C680 C681 1.366 . S
C680 C682 1.388 . S
C681 C680 1.366 . S
C681 C685 1.385 . S
C682 H663 0.951 . S
C682 C680 1.388 . S
C682 C683 1.366 . S
C683 C682 1.366 . S
C683 C684 1.414 . S
C683 C686 1.499 . S
C684 H664 0.950 1_565 S
C684 C683 1.414 . S
C684 C685 1.374 . S
C685 H665 0.950 . S
C685 C681 1.385 . S
C685 C684 1.374 . S
C686 C683 1.499 . S
C686 C687 1.373 1_565 S
C686 C688 1.389 1_455 S
C687 H666 0.950 . S
C687 C686 1.373 1_545 S
C687 C703 1.377 1_556 S
C688 C686 1.389 1_655 S
C688 C689 1.524 . S
C688 C702 1.377 1_556 S
C689 C688 1.524 . S
C689 C690 1.397 . S
C689 C694 1.363 . S
C690 H667 0.950 . S
C690 C689 1.397 . S
C690 C691 1.334 . S
C691 H668 0.950 . S
C691 C690 1.334 . S
C691 C692 1.287 . S
C692 C691 1.287 . S
C692 C693 1.524 . S
C692 H711 0.913 . S
C693 H669 0.950 . S
C693 C692 1.524 . S
C693 C694 1.415 . S
C694 H670 0.918 1_556 S
C694 C689 1.363 . S
C694 C693 1.415 . S
C695 H671 0.951 . S
C695 C696 1.366 . S
C695 C697 1.388 . S
C696 C695 1.366 . S
C696 C700 1.385 . S
C697 H672 0.951 . S
C697 C695 1.388 . S
C697 C698 1.366 . S
C698 C697 1.366 . S
C698 C699 1.414 . S
C698 C701 1.499 . S
C699 H673 0.950 1_545 S
C699 C698 1.414 . S
C699 C700 1.374 . S
C700 H674 0.950 . S
C700 C696 1.385 . S
C700 C699 1.374 . S
C701 C698 1.499 . S
C701 C702 1.373 1_545 S
C701 C703 1.389 1_655 S
C702 H675 0.950 . S
C702 C688 1.377 1_554 S
C702 C701 1.373 1_565 S
C703 C687 1.377 1_554 S
C703 C701 1.389 1_455 S
C703 C704 1.524 . S
C704 C703 1.524 . S
C704 C705 1.397 . S
C704 C709 1.363 . S
C705 H676 0.950 . S
C705 C704 1.397 . S
C705 C706 1.334 . S
C706 H677 0.950 . S
C706 C705 1.334 . S
C706 C707 1.287 . S
C707 C706 1.287 . S
C707 C708 1.524 . S
C707 H710 0.999 . S
C708 H678 0.950 . S
C708 C707 1.524 . S
C708 C709 1.415 . S
C709 H679 0.918 1_554 S
C709 C704 1.363 . S
C709 C708 1.415 . S
H710 C707 0.999 . S
H711 C692 0.913 . S
H712 C730 0.951 . S
H713 C732 0.951 . S
H714 C734 0.950 . S
H715 C735 0.950 . S
H716 C737 0.950 . S
H717 C740 0.950 . S
H718 C741 0.950 . S
H719 C743 0.950 . S
H720 C744 0.950 . S
H721 C745 0.951 . S
H722 C747 0.951 . S
H723 C749 0.950 . S
H724 C750 0.950 . S
H725 C752 0.950 . S
H726 C755 0.950 . S
H727 C756 0.950 . S
H728 C758 0.950 . S
H729 C759 0.950 . S
C730 H712 0.951 . S
C730 C731 1.366 . S
C730 C732 1.388 . S
C731 C730 1.366 . S
C731 C735 1.385 . S
C732 H713 0.951 . S
C732 C730 1.388 . S
C732 C733 1.366 . S
C733 C732 1.366 . S
C733 C734 1.414 . S
C733 C736 1.499 . S
C734 H714 0.950 . S
C734 C733 1.414 . S
C734 C735 1.374 . S
C735 H715 0.950 . S
C735 C731 1.385 . S
C735 C734 1.374 . S
C736 C733 1.499 . S
C736 C737 1.373 . S
C736 C738 1.389 . S
C737 H716 0.950 . S
C737 C736 1.373 . S
C737 C753 1.377 . S
C738 C736 1.389 . S
C738 C739 1.524 . S
C738 C752 1.377 . S
C739 C738 1.524 . S
C739 C740 1.397 . S
C739 C744 1.363 . S
C740 H717 0.950 . S
C740 C739 1.397 . S
C740 C741 1.334 . S
C741 H718 0.950 . S
C741 C740 1.334 . S
C741 C742 1.287 . S
C742 C741 1.287 . S
C742 C743 1.524 . S
C742 H761 0.913 . S
C743 H719 0.950 . S
C743 C742 1.524 . S
C743 C744 1.415 . S
C744 H720 0.950 . S
C744 C739 1.363 . S
C744 C743 1.415 . S
C745 H721 0.951 . S
C745 C746 1.366 . S
C745 C747 1.388 . S
C746 C745 1.366 . S
C746 C750 1.385 . S
C747 H722 0.951 . S
C747 C745 1.388 . S
C747 C748 1.366 . S
C748 C747 1.366 . S
C748 C749 1.414 . S
C748 C751 1.499 . S
C749 H723 0.950 . S
C749 C748 1.414 . S
C749 C750 1.374 . S
C750 H724 0.950 . S
C750 C746 1.385 . S
C750 C749 1.374 . S
C751 C748 1.499 . S
C751 C752 1.373 . S
C751 C753 1.389 . S
C752 H725 0.950 . S
C752 C738 1.377 . S
C752 C751 1.373 . S
C753 C737 1.377 . S
C753 C751 1.389 . S
C753 C754 1.524 . S
C754 C753 1.524 . S
C754 C755 1.397 . S
C754 C759 1.363 . S
C755 H726 0.950 . S
C755 C754 1.397 . S
C755 C756 1.334 . S
C756 H727 0.950 . S
C756 C755 1.334 . S
C756 C757 1.287 . S
C757 C756 1.287 . S
C757 C758 1.524 . S
C757 H760 0.999 . S
C758 H728 0.950 . S
C758 C757 1.524 . S
C758 C759 1.415 . S
C759 H729 0.950 . S
C759 C754 1.363 . S
C759 C758 1.415 . S
H760 C757 0.999 . S
H761 C742 0.913 . S
H762 C780 0.951 . S
H763 C782 0.951 . S
H764 C784 0.950 . S
H765 C785 0.950 . S
H766 C787 0.950 . S
H767 C790 0.950 . S
H768 C791 0.950 . S
H769 C793 0.950 . S
H770 C794 0.950 . S
H771 C795 0.951 . S
H772 C797 0.951 . S
H773 C799 0.950 . S
H774 C800 0.950 . S
H775 C802 0.950 . S
H776 C805 0.950 . S
H777 C806 0.950 . S
H778 C808 0.950 . S
H779 C809 0.950 . S
C780 H762 0.951 . S
C780 C781 1.366 . S
C780 C782 1.388 . S
C781 C780 1.366 . S
C781 C785 1.385 . S
C782 H763 0.951 . S
C782 C780 1.388 . S
C782 C783 1.366 . S
C783 C782 1.366 . S
C783 C784 1.414 . S
C783 C786 1.499 . S
C784 H764 0.950 . S
C784 C783 1.414 . S
C784 C785 1.374 . S
C785 H765 0.950 . S
C785 C781 1.385 . S
C785 C784 1.374 . S
C786 C783 1.499 . S
C786 C787 1.373 . S
C786 C788 1.389 . S
C787 H766 0.950 . S
C787 C786 1.373 . S
C787 C803 1.377 . S
C788 C786 1.389 . S
C788 C789 1.524 . S
C788 C802 1.377 . S
C789 C788 1.524 . S
C789 C790 1.397 . S
C789 C794 1.363 . S
C790 H767 0.950 . S
C790 C789 1.397 . S
C790 C791 1.334 . S
C791 H768 0.950 . S
C791 C790 1.334 . S
C791 C792 1.287 . S
C792 C791 1.287 . S
C792 C793 1.524 . S
C792 H811 0.913 . S
C793 H769 0.950 . S
C793 C792 1.524 . S
C793 C794 1.415 . S
C794 H770 0.950 . S
C794 C789 1.363 . S
C794 C793 1.415 . S
C795 H771 0.951 . S
C795 C796 1.366 . S
C795 C797 1.388 . S
C796 C795 1.366 . S
C796 C800 1.385 . S
C797 H772 0.951 . S
C797 C795 1.388 . S
C797 C798 1.366 . S
C798 C797 1.366 . S
C798 C799 1.414 . S
C798 C801 1.499 . S
C799 H773 0.950 . S
C799 C798 1.414 . S
C799 C800 1.374 . S
C800 H774 0.950 . S
C800 C796 1.385 . S
C800 C799 1.374 . S
C801 C798 1.499 . S
C801 C802 1.373 . S
C801 C803 1.389 . S
C802 H775 0.950 . S
C802 C788 1.377 . S
C802 C801 1.373 . S
C803 C787 1.377 . S
C803 C801 1.389 . S
C803 C804 1.524 . S
C804 C803 1.524 . S
C804 C805 1.397 . S
C804 C809 1.363 . S
C805 H776 0.950 . S
C805 C804 1.397 . S
C805 C806 1.334 . S
C806 H777 0.950 . S
C806 C805 1.334 . S
C806 C807 1.287 . S
C807 C806 1.287 . S
C807 C808 1.524 . S
C807 H810 0.999 . S
C808 H778 0.950 . S
C808 C807 1.524 . S
C808 C809 1.415 . S
C809 H779 0.950 . S
C809 C804 1.363 . S
C809 C808 1.415 . S
H810 C807 0.999 . S
H811 C792 0.913 . S
H812 C830 0.951 . S
H813 C832 0.951 . S
H814 C834 0.950 . S
H815 C835 0.950 . S
H816 C837 0.950 . S
H817 C840 0.950 . S
H818 C841 0.950 . S
H819 C843 0.950 . S
H820 C844 0.950 . S
H821 C845 0.951 . S
H822 C847 0.951 . S
H823 C849 0.950 . S
H824 C850 0.950 . S
H825 C852 0.950 . S
H826 C855 0.950 . S
H827 C856 0.950 . S
H828 C858 0.950 . S
H829 C859 0.950 . S
C830 H812 0.951 . S
C830 C831 1.366 . S
C830 C832 1.388 . S
C831 C830 1.366 . S
C831 C835 1.385 . S
C832 H813 0.951 . S
C832 C830 1.388 . S
C832 C833 1.366 . S
C833 C832 1.366 . S
C833 C834 1.414 . S
C833 C836 1.499 . S
C834 H814 0.950 . S
C834 C833 1.414 . S
C834 C835 1.374 . S
C835 H815 0.950 . S
C835 C831 1.385 . S
C835 C834 1.374 . S
C836 C833 1.499 . S
C836 C837 1.373 . S
C836 C838 1.389 . S
C837 H816 0.950 . S
C837 C836 1.373 . S
C837 C853 1.377 . S
C838 C836 1.389 . S
C838 C839 1.524 . S
C838 C852 1.377 . S
C839 C838 1.524 . S
C839 C840 1.397 . S
C839 C844 1.363 . S
C840 H817 0.950 . S
C840 C839 1.397 . S
C840 C841 1.334 . S
C841 H818 0.950 . S
C841 C840 1.334 . S
C841 C842 1.287 . S
C842 C841 1.287 . S
C842 C843 1.524 . S
C842 H861 0.913 . S
C843 H819 0.950 . S
C843 C842 1.524 . S
C843 C844 1.415 . S
C844 H820 0.950 . S
C844 C839 1.363 . S
C844 C843 1.415 . S
C845 H821 0.951 . S
C845 C846 1.366 . S
C845 C847 1.388 . S
C846 C845 1.366 . S
C846 C850 1.385 . S
C847 H822 0.951 . S
C847 C845 1.388 . S
C847 C848 1.366 . S
C848 C847 1.366 . S
C848 C849 1.414 . S
C848 C851 1.499 . S
C849 H823 0.950 . S
C849 C848 1.414 . S
C849 C850 1.374 . S
C850 H824 0.950 . S
C850 C846 1.385 . S
C850 C849 1.374 . S
C851 C848 1.499 . S
C851 C852 1.373 . S
C851 C853 1.389 . S
C852 H825 0.950 . S
C852 C838 1.377 . S
C852 C851 1.373 . S
C853 C837 1.377 . S
C853 C851 1.389 . S
C853 C854 1.524 . S
C854 C853 1.524 . S
C854 C855 1.397 . S
C854 C859 1.363 . S
C855 H826 0.950 . S
C855 C854 1.397 . S
C855 C856 1.334 . S
C856 H827 0.950 . S
C856 C855 1.334 . S
C856 C857 1.287 . S
C857 C856 1.287 . S
C857 C858 1.524 . S
C857 H860 0.999 . S
C858 H828 0.950 . S
C858 C857 1.524 . S
C858 C859 1.415 . S
C859 H829 0.950 . S
C859 C854 1.363 . S
C859 C858 1.415 . S
H860 C857 0.999 . S
H861 C842 0.913 . S
H862 C880 0.951 . S
H863 C882 0.951 . S
H864 C884 0.950 . S
H865 C885 0.950 . S
H866 C887 0.950 . S
H867 C890 0.950 . S
H868 C891 0.950 . S
H869 C893 0.950 . S
H870 C894 0.950 . S
H871 C895 0.951 . S
H872 C897 0.951 . S
H873 C899 0.950 . S
H874 C900 0.950 . S
H875 C902 0.950 . S
H876 C905 0.950 . S
H877 C906 0.950 . S
H878 C908 0.950 . S
H879 C909 0.950 . S
C880 H862 0.951 . S
C880 C881 1.366 . S
C880 C882 1.388 . S
C881 C880 1.366 . S
C881 C885 1.385 . S
C882 H863 0.951 . S
C882 C880 1.388 . S
C882 C883 1.366 . S
C883 C882 1.366 . S
C883 C884 1.414 . S
C883 C886 1.499 . S
C884 H864 0.950 . S
C884 C883 1.414 . S
C884 C885 1.374 . S
C885 H865 0.950 . S
C885 C881 1.385 . S
C885 C884 1.374 . S
C886 C883 1.499 . S
C886 C887 1.373 . S
C886 C888 1.389 . S
C887 H866 0.950 . S
C887 C886 1.373 . S
C887 C903 1.377 . S
C888 C886 1.389 . S
C888 C889 1.524 . S
C888 C902 1.377 . S
C889 C888 1.524 . S
C889 C890 1.397 . S
C889 C894 1.363 . S
C890 H867 0.950 . S
C890 C889 1.397 . S
C890 C891 1.334 . S
C891 H868 0.950 . S
C891 C890 1.334 . S
C891 C892 1.287 . S
C892 C891 1.287 . S
C892 C893 1.524 . S
C892 H911 0.913 . S
C893 H869 0.950 . S
C893 C892 1.524 . S
C893 C894 1.415 . S
C894 H870 0.950 . S
C894 C889 1.363 . S
C894 C893 1.415 . S
C895 H871 0.951 . S
C895 C896 1.366 . S
C895 C897 1.388 . S
C896 C895 1.366 . S
C896 C900 1.385 . S
C897 H872 0.951 . S
C897 C895 1.388 . S
C897 C898 1.366 . S
C898 C897 1.366 . S
C898 C899 1.414 . S
C898 C901 1.499 . S
C899 H873 0.950 . S
C899 C898 1.414 . S
C899 C900 1.374 . S
C900 H874 0.950 . S
C900 C896 1.385 . S
C900 C899 1.374 . S
C901 C898 1.499 . S
C901 C902 1.373 . S
C901 C903 1.389 . S
C902 H875 0.950 . S
C902 C888 1.377 . S
C902 C901 1.373 . S
C903 C887 1.377 . S
C903 C901 1.389 . S
C903 C904 1.524 . S
C904 C903 1.524 . S
C904 C905 1.397 . S
C904 C909 1.363 . S
C905 H876 0.950 . S
C905 C904 1.397 . S
C905 C906 1.334 . S
C906 H877 0.950 . S
C906 C905 1.334 . S
C906 C907 1.287 . S
C907 C906 1.287 . S
C907 C908 1.524 . S
C907 H910 0.999 . S
C908 H878 0.950 . S
C908 C907 1.524 . S
C908 C909 1.415 . S
C909 H879 0.950 . S
C909 C904 1.363 . S
C909 C908 1.415 . S
H910 C907 0.999 . S
H911 C892 0.913 . S
C131 C8 1.710 . S
C146 C37 1.715 . S
C181 C51 1.715 . S
C196 C22 1.709 . S
C231 C36 1.710 . S
C246 C9 1.715 . S
C281 C50 1.710 . S
C296 C23 1.715 . S
C331 C93 1.715 . S
C346 C64 1.710 . S
C381 C78 1.710 . S
C396 C107 1.715 . S
C431 C92 1.710 . S
C446 C65 1.715 . S
C481 C106 1.710 . S
C496 C79 1.715 . S
C531 C7 1.494 . S
C546 C63 1.493 . S
C581 C21 1.494 . S
C596 C77 1.494 . S
C631 C35 1.494 . S
C646 C91 1.494 . S
C681 C105 1.494 . S
C696 C49 1.494 . S
C731 C6 1.496 . S
C746 C20 1.496 . S
C781 C48 1.495 . S
C796 C34 1.496 . S
C831 C76 1.495 . S
C846 C62 1.496 . S
C881 C90 1.495 . S
C896 C104 1.496 . S
