# Generated by pormake.
# Topology snk, (6)-cn, num edge types: 1
# Building blocks:
#     Node 0, Type 0, BuildingBlock: BETGAK_clean_sbu_0, # of connection points: 6
#     Node 1, Type 0, BuildingBlock: BETGAK_clean_sbu_0, # of connection points: 6
#     Node 2, Type 0, BuildingBlock: BETGAK_clean_sbu_0, # of connection points: 6
#     Node 3, Type 0, BuildingBlock: BETGAK_clean_sbu_0, # of connection points: 6
#     Node 4, Type 0, BuildingBlock: BETGAK_clean_sbu_0, # of connection points: 6
#     Node 5, Type 0, BuildingBlock: BETGAK_clean_sbu_0, # of connection points: 6
#     Node 6, Type 0, BuildingBlock: BETGAK_clean_sbu_0, # of connection points: 6
#     Node 7, Type 0, BuildingBlock: BETGAK_clean_sbu_0, # of connection points: 6
#     Edge 8, Type (0, 0), BuildingBlock: XIVTED_clean_linker_0, # of connection points: 2
#     Edge 9, Type (0, 0), BuildingBlock: XIVTED_clean_linker_0, # of connection points: 2
#     Edge 10, Type (0, 0), BuildingBlock: XIVTED_clean_linker_0, # of connection points: 2
#     Edge 11, Type (0, 0), BuildingBlock: XIVTED_clean_linker_0, # of connection points: 2
#     Edge 12, Type (0, 0), BuildingBlock: XIVTED_clean_linker_0, # of connection points: 2
#     Edge 13, Type (0, 0), BuildingBlock: XIVTED_clean_linker_0, # of connection points: 2
#     Edge 14, Type (0, 0), BuildingBlock: XIVTED_clean_linker_0, # of connection points: 2
#     Edge 15, Type (0, 0), BuildingBlock: XIVTED_clean_linker_0, # of connection points: 2
#     Edge 16, Type (0, 0), BuildingBlock: XIVTED_clean_linker_0, # of connection points: 2
#     Edge 17, Type (0, 0), BuildingBlock: XIVTED_clean_linker_0, # of connection points: 2
#     Edge 18, Type (0, 0), BuildingBlock: XIVTED_clean_linker_0, # of connection points: 2
#     Edge 19, Type (0, 0), BuildingBlock: XIVTED_clean_linker_0, # of connection points: 2
#     Edge 20, Type (0, 0), BuildingBlock: XIVTED_clean_linker_0, # of connection points: 2
#     Edge 21, Type (0, 0), BuildingBlock: XIVTED_clean_linker_0, # of connection points: 2
#     Edge 22, Type (0, 0), BuildingBlock: XIVTED_clean_linker_0, # of connection points: 2
#     Edge 23, Type (0, 0), BuildingBlock: XIVTED_clean_linker_0, # of connection points: 2
#     Edge 24, Type (0, 0), BuildingBlock: XIVTED_clean_linker_0, # of connection points: 2
#     Edge 25, Type (0, 0), BuildingBlock: XIVTED_clean_linker_0, # of connection points: 2
#     Edge 26, Type (0, 0), BuildingBlock: XIVTED_clean_linker_0, # of connection points: 2
#     Edge 27, Type (0, 0), BuildingBlock: XIVTED_clean_linker_0, # of connection points: 2
#     Edge 28, Type (0, 0), BuildingBlock: XIVTED_clean_linker_0, # of connection points: 2
#     Edge 29, Type (0, 0), BuildingBlock: XIVTED_clean_linker_0, # of connection points: 2
#     Edge 30, Type (0, 0), BuildingBlock: XIVTED_clean_linker_0, # of connection points: 2
#     Edge 31, Type (0, 0), BuildingBlock: XIVTED_clean_linker_0, # of connection points: 2
# Relax obj value: 0.092
# Max RMSD: 0.154
# Mean RMSD: 0.125
data_MOF--net-snk--node1-BETGAK_clean_sbu_0--edge1-XIVTED_clean_linker_0
_symmetry_space_group_name_H-M    P1
_symmetry_Int_Tables_number       1
_symmetry_cell_setting            triclinic
loop_
_symmetry_equiv_pos_as_xyz
'x, y, z'
_cell_length_a     37.91021
_cell_length_b     37.769772
_cell_length_c     25.437873
_cell_angle_alpha  84.522037
_cell_angle_beta   95.362966
_cell_angle_gamma 89.708563
loop_
_atom_site_label
_atom_site_type_symbol
_atom_site_fract_x
_atom_site_fract_y
_atom_site_fract_z
_atom_type_partial_charge
La0 La 0.99588 0.9954 0.46719 0.0
La1 La 0.02509 0.02356 0.57029 0.0
C2 C 0.96812 0.98864 0.37465 0.0
C3 C 0.97589 0.99616 0.31923 0.0
C4 C 1.01058 1.0021 0.30583 0.0
C5 C 0.0175 1.00643 0.2525 0.0
C6 C 0.98981 1.00499 0.21181 0.0
C7 C 0.95501 0.99994 0.22572 0.0
C8 C 0.94816 0.99555 0.27893 0.0
C9 C 0.04257 0.95407 0.52656 0.0
C10 C 0.06067 0.04977 0.46832 0.0
C11 C 0.05272 0.03055 0.66282 0.0
C12 C 0.04497 0.02296 0.71824 0.0
C13 C 1.01028 0.01695 0.73166 0.0
C14 C 1.00337 0.01261 0.785 0.0
C15 C 0.03106 0.01411 0.82568 0.0
C16 C 0.06585 0.01924 0.81176 0.0
C17 C 0.07269 0.02364 0.75855 0.0
C18 C 0.97827 0.06471 0.51067 0.0
C19 C 0.96037 0.96912 0.56921 0.0
O20 O 0.98801 0.96427 0.40337 0.0
O21 O 0.96239 0.01609 0.4006 0.0
O22 O 0.01631 0.9425 0.49693 0.0
O23 O 0.04349 0.9875 0.51939 0.0
O24 O 0.03523 0.03394 0.44014 0.0
O25 O 0.0646 0.04573 0.52075 0.0
O26 O 0.03265 0.05475 0.63406 0.0
O27 O 0.0587 1.00314 0.6369 0.0
O28 O 1.00456 0.07645 0.54006 0.0
O29 O 0.97753 0.03132 0.51822 0.0
O30 O 0.98584 0.98492 0.59737 0.0
O31 O 0.95638 0.97322 0.51678 0.0
H32 H 0.03232 1.00275 0.33654 0.0
H33 H 0.04452 0.01075 0.24313 0.0
H34 H 0.93313 0.99824 0.19552 0.0
H35 H 0.92124 0.99087 0.28863 0.0
H36 H 0.98854 0.01625 0.70096 0.0
H37 H 0.97636 1.00823 0.79438 0.0
H38 H 0.08772 0.02099 0.84195 0.0
H39 H 0.0996 0.02838 0.74883 0.0
La40 La 0.24546 0.74208 0.82884 0.0
La41 La 0.2706 0.77747 0.72714 0.0
C42 C 0.24063 0.71275 0.92145 0.0
C43 C 0.24383 0.72211 0.97701 0.0
C44 C 0.21455 0.71743 1.00677 0.0
C45 C 0.21693 0.72457 0.05992 0.0
C46 C 0.2488 0.7364 0.08494 0.0
C47 C 0.27809 0.74145 0.05488 0.0
C48 C 0.27565 0.73438 1.00152 0.0
C49 C 0.20349 0.79249 0.77796 0.0
C50 C 0.29846 0.80804 0.83159 0.0
C51 C 0.2755 0.80686 0.63459 0.0
C52 C 0.27205 0.79766 0.57896 0.0
C53 C 0.30119 0.80245 0.54894 0.0
C54 C 0.29861 0.79543 0.49574 0.0
C55 C 0.26665 0.78364 0.47091 0.0
C56 C 0.2375 0.77848 0.50123 0.0
C57 C 0.24015 0.78542 0.55466 0.0
C58 C 0.31275 0.72739 0.77847 0.0
C59 C 0.2177 0.71143 0.72443 0.0
O60 O 0.21375 0.72687 0.89044 0.0
O61 O 0.26949 0.71223 0.89695 0.0
O62 O 0.19245 0.76462 0.80483 0.0
O63 O 0.23675 0.79265 0.78323 0.0
O64 O 0.28611 0.77904 0.85687 0.0
O65 O 0.29017 0.81642 0.78015 0.0
O66 O 0.30229 0.79237 0.66541 0.0
O67 O 0.24672 0.80767 0.65924 0.0
O68 O 0.32367 0.75528 0.75147 0.0
O69 O 0.27948 0.72703 0.77289 0.0
O70 O 0.22997 0.74048 0.69917 0.0
O71 O 0.22598 0.70307 0.77586 0.0
H72 H 0.18971 0.70798 0.98891 0.0
H73 H 0.19362 0.72098 0.08132 0.0
H74 H 0.30318 0.75015 0.07285 0.0
H75 H 0.29878 0.73817 0.97974 0.0
H76 H 0.32608 0.81187 0.56666 0.0
H77 H 0.32182 0.79909 0.47414 0.0
H78 H 0.21236 0.76979 0.48342 0.0
H79 H 0.21712 0.78155 0.57665 0.0
La80 La 0.52484 0.99255 0.07649 0.0
La81 La 0.49653 0.02616 0.96777 0.0
C82 C 0.55071 0.98113 0.17187 0.0
C83 C 0.54146 0.98565 0.22593 0.0
C84 C 0.55051 0.95847 0.26651 0.0
C85 C 0.54363 0.96241 0.31868 0.0
C86 C 0.52754 0.99372 0.33147 0.0
C87 C 0.51811 0.02083 0.29051 0.0
C88 C 0.52498 0.01683 0.23821 0.0
C89 C 0.47644 0.95582 0.02521 0.0
C90 C 0.46047 0.04917 0.06426 0.0
C91 C 0.47074 0.03772 0.87237 0.0
C92 C 0.48 0.03318 0.81832 0.0
C93 C 0.47097 0.06034 0.77772 0.0
C94 C 0.47788 0.05638 0.72557 0.0
C95 C 0.49398 0.02507 0.71283 0.0
C96 C 0.5034 0.99797 0.75381 0.0
C97 C 0.4965 1.00199 0.80609 0.0
C98 C 0.54487 0.06288 1.01933 0.0
C99 C 0.56091 0.96958 0.97994 0.0
O100 O 0.53266 0.95766 0.14631 0.0
O101 O 0.55616 1.01001 0.14114 0.0
O102 O 0.50232 0.94168 0.05732 0.0
O103 O 0.47685 0.98909 0.02572 0.0
O104 O 0.48668 0.03245 0.09523 0.0
O105 O 0.45616 0.04645 1.01259 0.0
O106 O 0.48887 0.0611 0.89798 0.0
O107 O 0.46516 1.00885 0.90305 0.0
O108 O 0.51898 0.07702 0.98723 0.0
O109 O 0.54448 0.02963 1.01851 0.0
O110 O 0.53468 0.98629 0.949 0.0
O111 O 0.5652 0.97225 0.03163 0.0
H112 H 0.56342 0.93429 0.25794 0.0
H113 H 0.55171 0.94121 0.34921 0.0
H114 H 0.5053 0.04511 0.29883 0.0
H115 H 0.51773 0.03821 0.20758 0.0
H116 H 0.45805 0.08452 0.78626 0.0
H117 H 0.4698 0.07757 0.69501 0.0
H118 H 0.51622 0.9737 0.74552 0.0
H119 H 0.50375 0.98063 0.83675 0.0
La120 La 0.24185 0.27433 0.2152 0.0
La121 La 0.27634 0.24537 0.3228 0.0
C122 C 0.22797 0.29882 0.11936 0.0
C123 C 0.23332 0.28998 0.06526 0.0
C124 C 0.20563 0.29676 0.02495 0.0
C125 C 0.20999 0.28997 0.97284 0.0
C126 C 0.24226 0.27624 0.95972 0.0
C127 C 0.26998 0.26917 1.0004 0.0
C128 C 0.26555 0.27594 0.05269 0.0
C129 C 0.20519 0.22744 0.26959 0.0
C130 C 0.29769 0.20924 0.22583 0.0
C131 C 0.28806 0.21941 0.41822 0.0
C132 C 0.28277 0.22822 0.47238 0.0
C133 C 0.31032 0.22094 0.5128 0.0
C134 C 0.30602 0.22773 0.56492 0.0
C135 C 0.27394 0.24197 0.57796 0.0
C136 C 0.24637 0.24953 0.53719 0.0
C137 C 0.25075 0.24278 0.48488 0.0
C138 C 0.31376 0.29223 0.26936 0.0
C139 C 0.22146 0.31133 0.31212 0.0
O140 O 0.20668 0.27832 0.14573 0.0
O141 O 0.2559 0.3074 0.1495 0.0
O142 O 0.19118 0.25463 0.24 0.0
O143 O 0.23803 0.2264 0.26626 0.0
O144 O 0.28131 0.23602 0.19548 0.0
O145 O 0.29529 0.2046 0.27755 0.0
O146 O 0.31078 0.23874 0.39292 0.0
O147 O 0.25988 0.21256 0.38714 0.0
O148 O 0.32732 0.26586 0.3013 0.0
O149 O 0.28069 0.2932 0.27132 0.0
O150 O 0.23779 0.28454 0.3425 0.0
O151 O 0.22341 0.31561 0.26023 0.0
H152 H 0.18061 0.30776 0.03369 0.0
H153 H 0.18824 0.29626 0.94259 0.0
H154 H 0.29505 0.2582 0.99191 0.0
H155 H 0.28735 0.27041 0.08311 0.0
H156 H 0.33517 0.20955 0.50412 0.0
H157 H 0.32763 0.22108 0.59525 0.0
H158 H 0.22147 0.26088 0.54564 0.0
H159 H 0.22907 0.24874 0.4544 0.0
La160 La 0.75477 0.24379 0.30867 0.0
La161 La 0.77846 0.27756 0.20455 0.0
C162 C 0.75283 0.21348 0.40133 0.0
C163 C 0.757 0.22223 0.45676 0.0
C164 C 0.75645 0.25756 0.46956 0.0
C165 C 0.75878 0.26493 0.52278 0.0
C166 C 0.76183 0.2371 0.56409 0.0
C167 C 0.76286 0.20181 0.55074 0.0
C168 C 0.76046 0.19451 0.49767 0.0
C169 C 0.71157 0.29248 0.25721 0.0
C170 C 0.80715 0.3107 0.30717 0.0
C171 C 0.78194 0.30657 0.11142 0.0
C172 C 0.77395 0.29836 0.05609 0.0
C173 C 0.77182 0.26313 0.04286 0.0
C174 C 0.76764 0.25604 0.98955 0.0
C175 C 0.76534 0.28404 0.94854 0.0
C176 C 0.76638 0.31928 0.96227 0.0
C177 C 0.7707 0.32631 1.01548 0.0
C178 C 0.82106 0.22829 0.25679 0.0
C179 C 0.72533 0.21192 0.20558 0.0
O180 O 0.72507 0.22725 0.37189 0.0
O181 O 0.78131 0.21498 0.37585 0.0
O182 O 0.70136 0.26529 0.28663 0.0
O183 O 0.74489 0.29331 0.2609 0.0
O184 O 0.79282 0.28388 0.335 0.0
O185 O 0.80131 0.3163 0.25494 0.0
O186 O 0.80772 0.28808 0.13907 0.0
O187 O 0.755 0.31067 0.13903 0.0
O188 O 0.8318 0.25577 0.2286 0.0
O189 O 0.7878 0.22798 0.25205 0.0
O190 O 0.73739 0.24048 0.17891 0.0
O191 O 0.73424 0.20432 0.25704 0.0
H192 H 0.75391 0.27936 0.43845 0.0
H193 H 0.75835 0.29242 0.53156 0.0
H194 H 0.76469 0.17969 0.5813 0.0
H195 H 0.76081 0.16707 0.48854 0.0
H196 H 0.77413 0.24115 0.07368 0.0
H197 H 0.76642 0.22861 0.98045 0.0
H198 H 0.76508 0.34148 0.93187 0.0
H199 H 0.77241 0.35367 0.02491 0.0
La200 La 0.744 0.77432 0.71963 0.0
La201 La 0.78005 0.74602 0.82641 0.0
C202 C 0.73001 0.79839 0.62373 0.0
C203 C 0.73617 0.7896 0.56977 0.0
C204 C 0.70723 0.78995 0.53108 0.0
C205 C 0.71205 0.78331 0.47905 0.0
C206 C 0.74605 0.77627 0.46427 0.0
C207 C 0.77508 0.7756 0.50327 0.0
C208 C 0.7702 0.78209 0.55554 0.0
C209 C 0.70758 0.72858 0.77622 0.0
C210 C 0.79939 0.70869 0.7297 0.0
C211 C 0.7944 0.72223 0.92236 0.0
C212 C 0.78814 0.73102 0.97628 0.0
C213 C 0.81704 0.7307 1.01504 0.0
C214 C 0.81214 0.7374 0.06702 0.0
C215 C 0.77811 0.74445 0.08168 0.0
C216 C 0.74913 0.74508 0.0426 0.0
C217 C 0.75409 0.73854 0.99038 0.0
C218 C 0.81618 0.79203 0.76953 0.0
C219 C 0.72436 0.8113 0.81651 0.0
O220 O 0.70918 0.7772 0.64992 0.0
O221 O 0.75724 0.80829 0.65427 0.0
O222 O 0.69352 0.75552 0.74602 0.0
O223 O 0.74032 0.72692 0.77198 0.0
O224 O 0.7828 0.73542 0.69949 0.0
O225 O 0.79794 0.70454 0.78165 0.0
O226 O 0.81493 0.74368 0.89602 0.0
O227 O 0.7673 0.71194 0.89195 0.0
O228 O 0.83042 0.76505 0.79944 0.0
O229 O 0.78352 0.79344 0.77423 0.0
O230 O 0.74094 0.78453 0.84663 0.0
O231 O 0.72603 0.81568 0.7646 0.0
H232 H 0.68078 0.79585 0.54099 0.0
H233 H 0.68915 0.78453 0.45007 0.0
H234 H 0.80158 0.76987 0.49347 0.0
H235 H 0.79304 0.78148 0.5846 0.0
H236 H 0.84351 0.72481 1.00522 0.0
H237 H 0.835 0.73621 0.09607 0.0
H238 H 0.72261 0.75083 0.0523 0.0
H239 H 0.73129 0.73913 0.96124 0.0
La240 La 0.49406 0.50136 0.97478 0.0
La241 La 0.52702 0.52539 0.07886 0.0
C242 C 0.46401 0.49891 0.88226 0.0
C243 C 0.47284 0.50248 0.82689 0.0
C244 C 0.50805 0.50474 0.81422 0.0
C245 C 0.51565 0.5067 0.76111 0.0
C246 C 0.48813 0.5065 0.71982 0.0
C247 C 0.45291 0.50458 0.73305 0.0
C248 C 0.4454 0.5026 0.786 0.0
C249 C 0.54342 0.45885 0.02622 0.0
C250 C 0.56003 0.55474 0.97617 0.0
C251 C 0.55606 0.529 0.17176 0.0
C252 C 0.54792 0.52111 0.22711 0.0
C253 C 0.51298 0.51614 0.24002 0.0
C254 C 0.50566 0.51191 0.29324 0.0
C255 C 0.53317 0.51247 0.33444 0.0
C256 C 0.56822 0.51642 0.32103 0.0
C257 C 0.57546 0.52073 0.26791 0.0
C258 C 0.47775 0.5678 0.02644 0.0
C259 C 0.4619 0.47175 0.07773 0.0
O260 O 0.47745 0.47113 0.91223 0.0
O261 O 0.46582 0.52776 0.90706 0.0
O262 O 0.51656 0.44804 0.99702 0.0
O263 O 0.54344 0.49228 0.02241 0.0
O264 O 0.53354 0.54012 0.94828 0.0
O265 O 0.56549 0.5488 0.02841 0.0
O266 O 0.53759 0.55486 0.14409 0.0
O267 O 0.55996 0.50186 0.14434 0.0
O268 O 0.50485 0.57874 0.05496 0.0
O269 O 0.47771 0.53439 0.03113 0.0
O270 O 0.49024 0.48386 0.10458 0.0
O271 O 0.45459 0.48073 0.02625 0.0
H272 H 0.52961 0.50474 0.84535 0.0
H273 H 0.54303 0.50857 0.75238 0.0
H274 H 0.43108 0.50383 0.70253 0.0
H275 H 0.41807 0.50071 0.79508 0.0
H276 H 0.49134 0.51625 0.209 0.0
H277 H 0.47843 0.50842 0.30211 0.0
H278 H 0.59001 0.5174 0.35155 0.0
H279 H 0.60258 0.52468 0.25867 0.0
La280 La 0.02329 0.49044 0.5755 0.0
La281 La 0.9966 0.52751 0.46816 0.0
C282 C 0.04609 0.47402 0.67146 0.0
C283 C 0.03832 0.4805 0.7256 0.0
C284 C 0.0452 0.4532 0.76668 0.0
C285 C 0.03942 0.4586 0.81884 0.0
C286 C 0.02662 0.49155 0.83123 0.0
C287 C 0.01923 0.5188 0.78969 0.0
C288 C 0.02507 0.51335 0.73737 0.0
C289 C 0.97744 0.45528 0.5173 0.0
C290 C 0.95956 0.54777 0.56488 0.0
C291 C 0.97216 0.54167 0.3725 0.0
C292 C 0.98015 0.53539 0.31835 0.0
C293 C 0.97295 0.56265 0.27728 0.0
C294 C 0.9789 0.55742 0.22513 0.0
C295 C 0.99217 0.52467 0.21271 0.0
C296 C 0.9999 0.49747 0.25423 0.0
C297 C 0.99392 0.50276 0.30655 0.0
C298 C 0.04257 0.56341 0.52538 0.0
C299 C 0.06122 0.47115 0.47886 0.0
O300 O 0.0231 0.45525 0.64481 0.0
O301 O 0.05773 0.5008 0.64165 0.0
O302 O 1.00393 0.44043 0.54737 0.0
O303 O 0.9765 0.48806 0.52219 0.0
O304 O 0.98564 0.53048 0.59541 0.0
O305 O 0.95569 0.54652 0.5129 0.0
O306 O 0.9938 0.56231 0.39815 0.0
O307 O 0.96251 0.5143 0.40323 0.0
O308 O 0.0169 0.57789 0.4931 0.0
O309 O 0.04333 0.53037 0.52187 0.0
O310 O 0.03523 0.4885 0.44825 0.0
O311 O 0.06467 0.4719 0.53099 0.0
H312 H 0.0553 0.42761 0.75845 0.0
H313 H 0.04478 0.43678 0.84944 0.0
H314 H 1.00962 0.5446 0.79773 0.0
H315 H 0.01961 0.53487 0.7063 0.0
H316 H 0.96245 0.58807 0.28552 0.0
H317 H 0.97327 0.57921 0.19456 0.0
H318 H 1.00988 0.47181 0.24618 0.0
H319 H 0.99967 0.48126 0.33758 0.0
H320 H 0.08808 0.04282 0.37385 0.0
H321 H 0.14605 0.23889 0.3185 0.0
H322 H 0.08671 0.11219 0.49889 0.0
H323 H 0.21945 0.15643 0.29159 0.0
H324 H 0.11253 0.19429 0.36966 0.0
H325 H 0.12588 0.08569 0.32681 0.0
C326 C 0.09586 0.06697 0.39138 0.0
C327 C 0.08463 0.07399 0.44039 0.0
C328 C 0.136 0.18612 0.35248 0.0
C329 C 0.12646 0.12307 0.38647 0.0
C330 C 0.15495 0.21136 0.32329 0.0
C331 C 0.18539 0.2011 0.30105 0.0
C332 C 0.14697 0.15034 0.35771 0.0
C333 C 0.1961 0.16523 0.30844 0.0
C334 C 0.11738 0.09121 0.36473 0.0
C335 C 0.09522 0.10569 0.46145 0.0
N336 N 0.17655 0.14088 0.33556 0.0
N337 N 0.11513 0.1294 0.43395 0.0
H338 H 0.03202 0.88559 0.56287 0.0
H339 H 0.22108 0.85706 0.72948 0.0
H340 H 0.10724 0.97031 0.57575 0.0
H341 H 0.1338 0.78534 0.74597 0.0
H342 H 0.18206 0.89774 0.6686 0.0
H343 H 0.07133 0.84698 0.62514 0.0
C344 C 0.05691 0.89602 0.57888 0.0
C345 C 0.06645 0.93112 0.56441 0.0
C346 C 0.17147 0.87317 0.68575 0.0
C347 C 0.1117 0.88708 0.63557 0.0
C348 C 0.1937 0.84997 0.72029 0.0
C349 C 0.18055 0.81787 0.74252 0.0
C350 C 0.13603 0.86391 0.67319 0.0
C351 C 0.14493 0.80988 0.72967 0.0
C352 C 0.07929 0.87403 0.61458 0.0
C353 C 0.09891 0.94339 0.58631 0.0
N354 N 0.12397 0.83265 0.69565 0.0
N355 N 0.12054 0.92131 0.62076 0.0
H356 H 0.33693 0.79012 0.92638 0.0
H357 H 0.41733 0.98133 0.96204 0.0
H358 H 0.31522 0.87794 0.80585 0.0
H359 H 0.47199 0.88398 0.02586 0.0
H360 H 0.37266 0.94625 0.91433 0.0
H361 H 0.37916 0.82691 0.97439 0.0
C362 C 0.34079 0.81727 0.91022 0.0
C363 C 0.32256 0.83099 0.86195 0.0
C364 C 0.39455 0.9327 0.93867 0.0
C365 C 0.37077 0.87322 0.91696 0.0
C366 C 0.42007 0.95264 0.96564 0.0
C367 C 0.44871 0.9355 0.99708 0.0
C368 C 0.39727 0.89542 0.94446 0.0
C369 C 0.45046 0.89823 1.00171 0.0
C370 C 0.36506 0.83814 0.93751 0.0
C371 C 0.32886 0.86629 0.84279 0.0
N372 N 0.42501 0.87942 0.97589 0.0
N373 N 0.35237 0.8863 0.8705 0.0
H374 H 0.45455 0.0538 0.16992 0.0
H375 H 0.30393 0.20542 0.11996 0.0
H376 H 0.40806 0.09395 1.01404 0.0
H377 H 0.3411 0.15542 0.27518 0.0
H378 H 0.34204 0.16514 0.08034 0.0
H379 H 0.41348 0.0912 0.20911 0.0
C380 C 0.4357 0.07045 0.14387 0.0
C381 C 0.43489 0.0708 0.08854 0.0
C382 C 0.34174 0.16287 0.12305 0.0
C383 C 0.3877 0.11378 0.13328 0.0
C384 C 0.32 0.18593 0.14576 0.0
C385 C 0.31936 0.18392 0.20106 0.0
C386 C 0.36318 0.13773 0.15585 0.0
C387 C 0.34069 0.15797 0.23238 0.0
C388 C 0.41216 0.09175 0.16633 0.0
C389 C 0.40967 0.09278 0.05688 0.0
N390 N 0.36183 0.13603 0.20936 0.0
N391 N 0.38719 0.1135 0.0797 0.0
H392 H 0.93307 0.97618 0.6637 0.0
H393 H 0.87463 0.78025 0.71922 0.0
H394 H 0.93414 0.90674 0.53871 0.0
H395 H 0.80209 0.86308 0.74761 0.0
H396 H 0.90797 0.82468 0.66745 0.0
H397 H 0.89523 0.93344 0.71086 0.0
C398 C 0.92522 0.95204 0.64621 0.0
C399 C 0.93638 0.94496 0.59718 0.0
C400 C 0.88471 0.83297 0.68506 0.0
C401 C 0.89448 0.89602 0.65123 0.0
C402 C 0.86586 0.80782 0.71459 0.0
C403 C 0.83574 0.81823 0.73746 0.0
C404 C 0.87397 0.86881 0.68012 0.0
C405 C 0.82519 0.85416 0.73027 0.0
C406 C 0.90366 0.92787 0.67292 0.0
C407 C 0.92569 0.91328 0.57617 0.0
N408 N 0.84466 0.87841 0.70282 0.0
N409 N 0.90575 0.88963 0.60373 0.0
H410 H 0.91375 0.04786 0.46194 0.0
H411 H 0.89076 0.23614 0.28809 0.0
H412 H 0.98864 0.133 0.47285 0.0
H413 H 0.80417 0.16372 0.30593 0.0
H414 H 0.92906 0.19545 0.34893 0.0
H415 H 0.87493 0.08692 0.39819 0.0
C416 C 0.922 0.07473 0.45074 0.0
C417 C 0.95436 0.08733 0.47241 0.0
C418 C 0.90169 0.1884 0.33962 0.0
C419 C 0.91043 0.13189 0.39996 0.0
C420 C 0.87989 0.21154 0.30475 0.0
C421 C 0.84431 0.20325 0.29232 0.0
C422 C 0.8879 0.15653 0.36187 0.0
C423 C 0.83148 0.17109 0.31491 0.0
C424 C 0.89986 0.097 0.41461 0.0
C425 C 0.96382 0.12235 0.45709 0.0
N426 N 0.85331 0.1488 0.34866 0.0
N427 N 0.94203 0.14336 0.42166 0.0
H428 H 0.68615 0.22858 0.11112 0.0
H429 H 0.60418 0.03746 0.08229 0.0
H430 H 0.70816 0.14246 0.23435 0.0
H431 H 0.54949 0.13468 1.0179 0.0
H432 H 0.64936 0.07275 0.12867 0.0
H433 H 0.6432 0.19137 0.06544 0.0
C434 C 0.68219 0.20172 0.12839 0.0
C435 C 0.70073 0.18861 0.17673 0.0
C436 C 0.62734 0.08621 0.10452 0.0
C437 C 0.65167 0.14588 0.12433 0.0
C438 C 0.60153 0.06616 0.0783 0.0
C439 C 0.57278 0.08321 0.04701 0.0
C440 C 0.62476 0.12349 0.09809 0.0
C441 C 0.57112 0.12048 0.04191 0.0
C442 C 0.65751 0.1806 0.10241 0.0
C443 C 0.6943 0.15364 0.19731 0.0
N444 N 0.59684 0.13939 0.06694 0.0
N445 N 0.67037 0.13335 0.17084 0.0
H446 H 0.71745 0.81379 0.92246 0.0
H447 H 0.56723 0.96577 0.87424 0.0
H448 H 0.68177 0.86604 0.76801 0.0
H449 H 0.61319 0.9245 0.0299 0.0
H450 H 0.60857 0.92889 0.83472 0.0
H451 H 0.67923 0.85369 0.96265 0.0
C452 C 0.70174 0.83375 0.89696 0.0
C453 C 0.70282 0.83651 0.84169 0.0
C454 C 0.60972 0.92798 0.87753 0.0
C455 C 0.65881 0.88215 0.88756 0.0
C456 C 0.58601 0.94897 0.90018 0.0
C457 C 0.5866 0.94816 0.95554 0.0
C458 C 0.63412 0.90577 0.9104 0.0
C459 C 0.61176 0.92602 0.98704 0.0
C460 C 0.67992 0.85654 0.92 0.0
C461 C 0.68184 0.86292 0.81077 0.0
N462 N 0.63439 0.90559 0.96403 0.0
N463 N 0.66059 0.88457 0.8341 0.0
H464 H 0.58498 0.54847 0.8799 0.0
H465 H 0.65 0.74178 0.82755 0.0
H466 H 0.58919 0.61551 1.00837 0.0
H467 H 0.72007 0.65722 0.79772 0.0
H468 H 0.6158 0.69815 0.87934 0.0
H469 H 0.62382 0.59032 0.83306 0.0
C470 C 0.59416 0.57193 0.89817 0.0
C471 C 0.5842 0.57859 0.94807 0.0
C472 C 0.63872 0.68932 0.86144 0.0
C473 C 0.62729 0.62652 0.89448 0.0
C474 C 0.65805 0.71401 0.8319 0.0
C475 C 0.68772 0.70286 0.80859 0.0
C476 C 0.64848 0.65323 0.8659 0.0
C477 C 0.69735 0.66669 0.81541 0.0
C478 C 0.61629 0.59556 0.87165 0.0
C479 C 0.59664 0.60935 0.97015 0.0
N480 N 0.67737 0.64291 0.84283 0.0
N481 N 0.61713 0.63256 0.9428 0.0
H482 H 0.64202 0.283 0.2278 0.0
H483 H 0.60811 0.47613 0.07356 0.0
H484 H 0.72619 0.35821 0.20905 0.0
H485 H 0.53751 0.38818 0.0543 0.0
H486 H 0.65023 0.43588 0.12983 0.0
H487 H 0.60154 0.32385 0.17099 0.0
C488 C 0.65193 0.30822 0.21171 0.0
C489 C 0.68741 0.31733 0.22292 0.0
C490 C 0.62556 0.42544 0.11311 0.0
C491 C 0.64126 0.36429 0.15808 0.0
C492 C 0.60153 0.44836 0.08127 0.0
C493 C 0.56938 0.43534 0.05952 0.0
C494 C 0.61705 0.38944 0.12357 0.0
C495 C 0.56209 0.3992 0.0703 0.0
C496 C 0.62887 0.33146 0.17913 0.0
C497 C 0.69898 0.35024 0.20101 0.0
N498 N 0.58565 0.37755 0.10181 0.0
N499 N 0.67587 0.37271 0.16972 0.0
H500 H 0.90717 0.4708 0.49286 0.0
H501 H 0.86779 0.34001 0.27509 0.0
H502 H 0.98926 0.397 0.46613 0.0
H503 H 0.80081 0.33548 0.40356 0.0
H504 H 0.90952 0.37692 0.32514 0.0
H505 H 0.86391 0.43673 0.44013 0.0
C506 C 0.91604 0.44762 0.47549 0.0
C507 C 0.95158 0.43635 0.48392 0.0
C508 C 0.88548 0.36803 0.3419 0.0
C509 C 0.90296 0.3984 0.42304 0.0
C510 C 0.86167 0.34725 0.31346 0.0
C511 C 0.83093 0.33483 0.33539 0.0
C512 C 0.87782 0.37731 0.39166 0.0
C513 C 0.82433 0.34454 0.38548 0.0
C514 C 0.89146 0.42827 0.4458 0.0
C515 C 0.96194 0.40621 0.46076 0.0
N516 N 0.84748 0.36559 0.41188 0.0
N517 N 0.93776 0.38839 0.43078 0.0
H518 H 0.80556 0.70551 0.6237 0.0
H519 H 0.95406 0.55173 0.6709 0.0
H520 H 0.84185 0.65384 0.77827 0.0
H521 H 0.90725 0.59306 0.51573 0.0
H522 H 0.91351 0.58925 0.71096 0.0
H523 H 0.84287 0.66484 0.58341 0.0
C524 C 0.82123 0.68552 0.64921 0.0
C525 C 0.82056 0.68315 0.70454 0.0
C526 C 0.912 0.59 0.66815 0.0
C527 C 0.86355 0.63658 0.65855 0.0
C528 C 0.93522 0.56861 0.64519 0.0
C529 C 0.93418 0.56928 0.58979 0.0
C530 C 0.88765 0.61244 0.63553 0.0
C531 C 0.90904 0.59162 0.5586 0.0
C532 C 0.84253 0.66228 0.62613 0.0
C533 C 0.84146 0.65668 0.73547 0.0
N534 N 0.88691 0.61242 0.58189 0.0
N535 N 0.86222 0.63456 0.71208 0.0
H536 H 0.38533 0.29418 0.26964 0.0
H537 H 0.3925 0.45603 0.04854 0.0
H538 H 0.29024 0.3525 0.20618 0.0
H539 H 0.47763 0.43151 0.17183 0.0
H540 H 0.35509 0.4132 0.09584 0.0
H541 H 0.42057 0.33921 0.22373 0.0
C542 C 0.37185 0.31639 0.2458 0.0
C543 C 0.3348 0.31944 0.2412 0.0
C544 C 0.38191 0.41746 0.1125 0.0
C545 C 0.37495 0.37081 0.18818 0.0
C546 C 0.40327 0.44174 0.08554 0.0
C547 C 0.43821 0.44735 0.10633 0.0
C548 C 0.39592 0.39815 0.1598 0.0
C549 C 0.45081 0.42817 0.15447 0.0
C550 C 0.39198 0.3421 0.21977 0.0
C551 C 0.31871 0.34883 0.20993 0.0
N552 N 0.42982 0.40417 0.17926 0.0
N553 N 0.33889 0.37332 0.18416 0.0
H554 H 0.48506 0.63793 0.99588 0.0
H555 H 0.29628 0.66237 0.82694 0.0
H556 H 0.41369 0.55056 0.97683 0.0
H557 H 0.38165 0.73666 0.81272 0.0
H558 H 0.33588 0.62263 0.88855 0.0
H559 H 0.44422 0.67651 0.93579 0.0
C560 C 0.46067 0.62694 0.97909 0.0
C561 C 0.45269 0.59108 0.99103 0.0
C562 C 0.3459 0.6476 0.87178 0.0
C563 C 0.40577 0.63501 0.92238 0.0
C564 C 0.32335 0.67024 0.83683 0.0
C565 C 0.33584 0.70272 0.81488 0.0
C566 C 0.38095 0.65784 0.88508 0.0
C567 C 0.37106 0.71176 0.82869 0.0
C568 C 0.43744 0.6489 0.94465 0.0
C569 C 0.42079 0.5781 0.96826 0.0
N570 N 0.39232 0.68953 0.86308 0.0
N571 N 0.39837 0.60011 0.935 0.0
H572 H 0.1787 0.72958 0.63021 0.0
H573 H 0.10198 0.53802 0.5883 0.0
H574 H 0.20166 0.64119 0.74937 0.0
H575 H 0.04488 0.63495 0.52937 0.0
H576 H 0.14562 0.57308 0.63815 0.0
H577 H 0.13686 0.69266 0.58179 0.0
C578 C 0.17518 0.70229 0.646 0.0
C579 C 0.19367 0.68844 0.69399 0.0
C580 C 0.12338 0.58652 0.61447 0.0
C581 C 0.1459 0.64604 0.63846 0.0
C582 C 0.09843 0.56657 0.58632 0.0
C583 C 0.06947 0.58359 0.55548 0.0
C584 C 0.11976 0.62372 0.61042 0.0
C585 C 0.0667 0.62076 0.55293 0.0
C586 C 0.15113 0.68134 0.61847 0.0
C587 C 0.18781 0.65294 0.71265 0.0
N588 N 0.09164 0.6396 0.57975 0.0
N589 N 0.16452 0.63283 0.68467 0.0
H590 H 0.21668 0.31551 0.41816 0.0
H591 H 0.06662 0.46772 0.37275 0.0
H592 H 0.17795 0.3655 0.26362 0.0
H593 H 0.11421 0.42633 0.52744 0.0
H594 H 0.10729 0.43073 0.33207 0.0
H595 H 0.17955 0.35605 0.45882 0.0
C596 C 0.20047 0.33508 0.3927 0.0
C597 C 0.20039 0.33698 0.33728 0.0
C598 C 0.10896 0.42985 0.37491 0.0
C599 C 0.15763 0.38352 0.38378 0.0
C600 C 0.08568 0.45095 0.39824 0.0
C601 C 0.08687 0.45009 0.4537 0.0
C602 C 0.13355 0.40751 0.40719 0.0
C603 C 0.11229 0.4279 0.48456 0.0
C604 C 0.17929 0.35829 0.41603 0.0
C605 C 0.1789 0.36303 0.30648 0.0
N606 N 0.13448 0.40738 0.46089 0.0
N607 N 0.15826 0.38515 0.33013 0.0
H608 H 0.97596 0.04441 0.86893 0.0
H609 H 0.04487 0.97462 0.16855 0.0
H610 H 0.06972 0.97882 0.91181 0.0
H611 H 0.9512 0.04035 0.12569 0.0
H612 H 0.05481 0.97645 0.07482 0.0
H613 H 0.96602 0.04259 0.96266 0.0
C614 C 0.99427 0.02932 0.89797 0.0
C615 C 0.02374 0.01175 0.88235 0.0
C616 C 0.03211 0.99054 0.0859 0.0
C617 C 0.01281 1.01002 0.99002 0.0
C618 C 0.02657 0.98975 0.13951 0.0
C619 C 0.99713 1.00735 0.15514 0.0
C620 C 1.00807 1.00909 0.04747 0.0
C621 C 0.97399 0.026 0.11551 0.0
C622 C 0.98874 0.02853 0.95158 0.0
C623 C 0.0469 0.99314 0.92199 0.0
N624 N 0.97994 0.02634 0.06358 0.0
N625 N 0.04096 0.9928 0.97391 0.0
H626 H 0.29587 0.82208 0.38875 0.0
H627 H 0.21927 0.69815 0.16699 0.0
H628 H 0.23095 0.73053 0.42173 0.0
H629 H 0.28437 0.78958 0.13412 0.0
H630 H 0.22292 0.70984 0.26005 0.0
H631 H 0.29206 0.81048 0.29565 0.0
C632 C 0.28095 0.79939 0.37661 0.0
C633 C 0.26385 0.77717 0.41359 0.0
C634 C 0.23643 0.72735 0.23253 0.0
C635 C 0.25899 0.764 0.3062 0.0
C636 C 0.23419 0.72084 0.17914 0.0
C637 C 0.25141 0.74298 0.14222 0.0
C638 C 0.25609 0.75625 0.24956 0.0
C639 C 0.27094 0.77152 0.16098 0.0
C640 C 0.27862 0.79292 0.32321 0.0
C641 C 0.2443 0.74864 0.39484 0.0
N642 N 0.27268 0.77733 0.21317 0.0
N643 N 0.24248 0.74287 0.34262 0.0
H644 H 0.51697 0.07469 0.63788 0.0
H645 H 0.50458 0.94408 0.40642 0.0
H646 H 0.48474 0.96524 0.6597 0.0
H647 H 0.53681 0.05353 0.38462 0.0
H648 H 0.4972 0.95132 0.4992 0.0
H649 H 0.52438 0.06744 0.54513 0.0
C650 C 0.51135 0.04913 0.62318 0.0
C651 C 0.5001 0.02056 0.6568 0.0
C652 C 0.50584 0.97378 0.47413 0.0
C653 C 0.5088 0.012 0.55037 0.0
C654 C 0.51021 0.96963 0.42113 0.0
C655 C 0.52145 0.99821 0.38751 0.0
C656 C 0.51278 1.00676 0.49396 0.0
C657 C 0.52773 0.03086 0.40876 0.0
C658 C 0.51573 0.04498 0.57019 0.0
C659 C 0.49383 0.98791 0.63556 0.0
N660 N 0.52341 0.03419 0.46056 0.0
N661 N 0.49816 0.98457 0.58376 0.0
H662 H 0.19434 0.24923 0.88643 0.0
H663 H 0.32213 0.26838 0.65146 0.0
H664 H 0.30081 0.28915 0.90471 0.0
H665 H 0.21524 0.22961 0.63274 0.0
H666 H 0.31489 0.27594 0.74419 0.0
H667 H 0.20159 0.24168 0.79371 0.0
C668 C 0.21923 0.25654 0.87098 0.0
C669 C 0.24695 0.27 0.90366 0.0
C670 C 0.29299 0.26582 0.71983 0.0
C671 C 0.25554 0.26111 0.79711 0.0
C672 C 0.29714 0.26134 0.66682 0.0
C673 C 0.26929 0.2482 0.63402 0.0
C674 C 0.26074 0.25707 0.74058 0.0
C675 C 0.23733 0.24017 0.65617 0.0
C676 C 0.2234 0.25206 0.81797 0.0
C677 C 0.27881 0.27833 0.88139 0.0
N678 N 0.23399 0.24463 0.70798 0.0
N679 N 0.28218 0.27385 0.8296 0.0
H680 H 0.72523 0.31881 0.86309 0.0
H681 H 0.80276 0.20377 0.64967 0.0
H682 H 0.80116 0.2328 0.90407 0.0
H683 H 0.72414 0.2873 0.60833 0.0
H684 H 0.80284 0.2145 0.74283 0.0
H685 H 0.72473 0.30812 0.76968 0.0
C686 C 0.74185 0.29769 0.8525 0.0
C687 C 0.7633 0.27671 0.89171 0.0
C688 C 0.78557 0.23052 0.71343 0.0
C689 C 0.76276 0.26422 0.78451 0.0
C690 C 0.7854 0.22431 0.66012 0.0
C691 C 0.7633 0.24454 0.62085 0.0
C692 C 0.76348 0.2572 0.72794 0.0
C693 C 0.7419 0.27126 0.63697 0.0
C694 C 0.74144 0.29152 0.79911 0.0
C695 C 0.78386 0.24938 0.87548 0.0
N696 N 0.74246 0.27673 0.68919 0.0
N697 N 0.78315 0.24404 0.82324 0.0
H698 H 0.70426 0.7383 0.39602 0.0
H699 H 0.81981 0.78253 0.14988 0.0
H700 H 0.79909 0.80101 0.40411 0.0
H701 H 0.725 0.71979 0.14177 0.0
H702 H 0.8126 0.78966 0.24278 0.0
H703 H 0.71141 0.73123 0.30308 0.0
C704 C 0.72655 0.7507 0.37827 0.0
C705 C 0.75104 0.7704 0.40815 0.0
C706 C 0.79333 0.77435 0.22072 0.0
C707 C 0.75952 0.76221 0.30131 0.0
C708 C 0.7975 0.77014 0.16762 0.0
C709 C 0.77305 0.7504 0.13775 0.0
C710 C 0.7645 0.75867 0.24454 0.0
C711 C 0.74433 0.73554 0.16287 0.0
C712 C 0.73069 0.74652 0.32514 0.0
C713 C 0.77974 0.78528 0.383 0.0
N714 N 0.74093 0.73988 0.21472 0.0
N715 N 0.78311 0.78097 0.33114 0.0
H716 H 0.54191 0.47256 0.67791 0.0
H717 H 0.47842 0.54426 0.37668 0.0
H718 H 0.45192 0.54295 0.63233 0.0
H719 H 0.5704 0.47646 0.42164 0.0
H720 H 0.46755 0.54277 0.47 0.0
H721 H 0.55279 0.47343 0.58452 0.0
C722 C 0.52459 0.48844 0.64839 0.0
C723 C 0.49589 0.50767 0.66324 0.0
C724 C 0.49008 0.52815 0.4595 0.0
C725 C 0.50795 0.50837 0.55585 0.0
C726 C 0.49616 0.52874 0.40608 0.0
C727 C 0.52539 0.51044 0.39106 0.0
C728 C 0.51334 0.50906 0.49851 0.0
C729 C 0.54778 0.49134 0.43127 0.0
C730 C 0.53068 0.48871 0.59496 0.0
C731 C 0.47405 0.52729 0.6229 0.0
N732 N 0.54131 0.49117 0.48302 0.0
N733 N 0.48051 0.5271 0.57122 0.0
H734 H 0.97263 0.52815 0.86872 0.0
H735 H 0.04654 0.48864 0.17516 0.0
H736 H 0.06861 0.4681 0.92207 0.0
H737 H 0.95005 0.54784 0.12185 0.0
H738 H 0.05494 0.48059 0.08284 0.0
H739 H 0.96432 0.5363 0.96103 0.0
C740 C 0.99209 0.51684 0.89972 0.0
C741 C 0.02133 0.49729 0.88731 0.0
C742 C 0.03193 0.49537 0.09134 0.0
C743 C 0.01174 0.50624 0.99356 0.0
C744 C 0.02699 0.49979 0.14417 0.0
C745 C 0.99757 0.51906 0.15661 0.0
C746 C 1.00727 0.51024 0.05034 0.0
C747 C 0.97343 0.53328 0.11439 0.0
C748 C 0.9872 0.52132 0.95255 0.0
C749 C 0.04536 0.48289 0.92954 0.0
N750 N 0.97882 0.5286 0.06335 0.0
N751 N 0.04004 0.48764 0.98058 0.0
loop_
_geom_bond_atom_site_label_1
_geom_bond_atom_site_label_2
_geom_bond_distance
_geom_bond_site_symmetry_2
_ccdc_geom_bond_type
La0 C2 2.928 1_655 S
La0 O20 2.521 1_655 S
La0 O21 2.628 1_565 S
La0 O22 2.554 1_655 S
La0 O23 2.757 1_655 S
La0 O24 2.470 1_665 S
La0 O29 2.482 1_565 S
La0 O31 2.503 . S
La1 C11 2.928 1_455 S
La1 O23 2.482 1_545 S
La1 O25 2.503 . S
La1 O26 2.521 1_455 S
La1 O27 2.628 1_545 S
La1 O28 2.554 1_455 S
La1 O29 2.757 1_455 S
La1 O30 2.470 1_445 S
C2 La0 2.928 1_455 S
C2 C3 1.503 . S
C2 O20 1.261 . S
C2 O21 1.243 1_465 S
C3 C2 1.503 . S
C3 C4 1.394 . S
C3 C8 1.373 1_565 S
C4 C3 1.394 . S
C4 C5 1.380 . S
C4 H32 0.930 . S
C5 C4 1.380 . S
C5 C6 1.376 . S
C5 H33 0.930 . S
C6 C5 1.376 . S
C6 C7 1.370 1_565 S
C7 C6 1.370 1_545 S
C7 C8 1.396 . S
C7 H34 0.929 . S
C8 C3 1.373 1_545 S
C8 C7 1.396 . S
C8 H35 0.929 1_455 S
C9 O22 1.240 . S
C9 O23 1.289 . S
C10 O24 1.258 . S
C10 O25 1.256 . S
C11 La1 2.928 1_655 S
C11 C12 1.503 . S
C11 O26 1.261 . S
C11 O27 1.243 1_645 S
C12 C11 1.503 . S
C12 C13 1.394 . S
C12 C17 1.373 1_545 S
C13 C12 1.394 . S
C13 C14 1.380 . S
C13 H36 0.930 . S
C14 C13 1.380 . S
C14 C15 1.376 . S
C14 H37 0.930 . S
C15 C14 1.376 . S
C15 C16 1.370 1_545 S
C16 C15 1.370 1_565 S
C16 C17 1.396 . S
C16 H38 0.929 . S
C17 C12 1.373 1_565 S
C17 C16 1.396 . S
C17 H39 0.929 1_655 S
C18 O28 1.240 . S
C18 O29 1.289 . S
C19 O30 1.258 . S
C19 O31 1.256 . S
O20 La0 2.521 1_455 S
O20 C2 1.261 . S
O21 La0 2.628 1_545 S
O21 C2 1.243 1_645 S
O22 La0 2.554 1_455 S
O22 C9 1.240 . S
O23 La0 2.757 1_455 S
O23 La1 2.482 1_565 S
O23 C9 1.289 . S
O24 La0 2.470 1_445 S
O24 C10 1.258 . S
O25 La1 2.503 . S
O25 C10 1.256 . S
O26 La1 2.521 1_655 S
O26 C11 1.261 . S
O27 La1 2.628 1_565 S
O27 C11 1.243 1_465 S
O28 La1 2.554 1_655 S
O28 C18 1.240 . S
O29 La0 2.482 1_545 S
O29 La1 2.757 1_655 S
O29 C18 1.289 . S
O30 La1 2.470 1_665 S
O30 C19 1.258 . S
O31 La0 2.503 . S
O31 C19 1.256 . S
H32 C4 0.930 . S
H33 C5 0.930 . S
H34 C7 0.929 . S
H35 C8 0.929 1_655 S
H36 C13 0.930 . S
H37 C14 0.930 . S
H38 C16 0.929 . S
H39 C17 0.929 1_455 S
La40 C42 2.928 . S
La40 O60 2.521 . S
La40 O61 2.628 . S
La40 O62 2.554 . S
La40 O63 2.757 . S
La40 O64 2.470 . S
La40 O69 2.482 . S
La40 O71 2.503 . S
La41 C51 2.928 . S
La41 O63 2.482 . S
La41 O65 2.503 . S
La41 O66 2.521 . S
La41 O67 2.628 . S
La41 O68 2.554 . S
La41 O69 2.757 . S
La41 O70 2.470 . S
C42 La40 2.928 . S
C42 C43 1.503 . S
C42 O60 1.261 . S
C42 O61 1.243 . S
C43 C42 1.503 . S
C43 C44 1.394 . S
C43 C48 1.373 1_556 S
C44 C43 1.394 . S
C44 C45 1.380 1_556 S
C44 H72 0.930 . S
C45 C44 1.380 1_554 S
C45 C46 1.376 . S
C45 H73 0.930 . S
C46 C45 1.376 . S
C46 C47 1.370 . S
C47 C46 1.370 . S
C47 C48 1.396 . S
C47 H74 0.929 . S
C48 C43 1.373 1_554 S
C48 C47 1.396 . S
C48 H75 0.929 1_554 S
C49 O62 1.240 . S
C49 O63 1.289 . S
C50 O64 1.258 . S
C50 O65 1.256 . S
C51 La41 2.928 . S
C51 C52 1.503 . S
C51 O66 1.261 . S
C51 O67 1.243 . S
C52 C51 1.503 . S
C52 C53 1.394 . S
C52 C57 1.373 . S
C53 C52 1.394 . S
C53 C54 1.380 . S
C53 H76 0.930 . S
C54 C53 1.380 . S
C54 C55 1.376 . S
C54 H77 0.930 . S
C55 C54 1.376 . S
C55 C56 1.370 . S
C56 C55 1.370 . S
C56 C57 1.396 . S
C56 H78 0.929 . S
C57 C52 1.373 . S
C57 C56 1.396 . S
C57 H79 0.929 . S
C58 O68 1.240 . S
C58 O69 1.289 . S
C59 O70 1.258 . S
C59 O71 1.256 . S
O60 La40 2.521 . S
O60 C42 1.261 . S
O61 La40 2.628 . S
O61 C42 1.243 . S
O62 La40 2.554 . S
O62 C49 1.240 . S
O63 La40 2.757 . S
O63 La41 2.482 . S
O63 C49 1.289 . S
O64 La40 2.470 . S
O64 C50 1.258 . S
O65 La41 2.503 . S
O65 C50 1.256 . S
O66 La41 2.521 . S
O66 C51 1.261 . S
O67 La41 2.628 . S
O67 C51 1.243 . S
O68 La41 2.554 . S
O68 C58 1.240 . S
O69 La40 2.482 . S
O69 La41 2.757 . S
O69 C58 1.289 . S
O70 La41 2.470 . S
O70 C59 1.258 . S
O71 La40 2.503 . S
O71 C59 1.256 . S
H72 C44 0.930 . S
H73 C45 0.930 . S
H74 C47 0.929 . S
H75 C48 0.929 1_556 S
H76 C53 0.930 . S
H77 C54 0.930 . S
H78 C56 0.929 . S
H79 C57 0.929 . S
La80 C82 2.928 . S
La80 O100 2.521 . S
La80 O101 2.628 . S
La80 O102 2.554 . S
La80 O103 2.757 1_554 S
La80 O104 2.470 1_565 S
La80 O109 2.482 1_565 S
La80 O111 2.503 . S
La81 C91 2.928 . S
La81 O103 2.482 1_545 S
La81 O105 2.503 . S
La81 O106 2.521 . S
La81 O107 2.628 . S
La81 O108 2.554 . S
La81 O109 2.757 1_556 S
La81 O110 2.470 1_545 S
C82 La80 2.928 . S
C82 C83 1.503 . S
C82 O100 1.261 . S
C82 O101 1.243 . S
C83 C82 1.503 . S
C83 C84 1.394 . S
C83 C88 1.370 . S
C84 C83 1.394 . S
C84 C85 1.380 . S
C84 H112 0.930 . S
C85 C84 1.380 . S
C85 C86 1.376 . S
C85 H113 0.930 . S
C86 C85 1.376 . S
C86 C87 1.367 1_565 S
C87 C86 1.367 1_545 S
C87 C88 1.395 1_545 S
C87 H114 0.932 . S
C88 C83 1.370 . S
C88 C87 1.395 1_565 S
C88 H115 0.932 1_565 S
C89 O102 1.240 1_556 S
C89 O103 1.289 . S
C90 O104 1.258 . S
C90 O105 1.256 1_554 S
C91 La81 2.928 . S
C91 C92 1.503 . S
C91 O106 1.261 . S
C91 O107 1.243 . S
C92 C91 1.503 . S
C92 C93 1.394 . S
C92 C97 1.377 . S
C93 C92 1.394 . S
C93 C94 1.380 . S
C93 H116 0.930 . S
C94 C93 1.380 . S
C94 C95 1.376 . S
C94 H117 0.930 . S
C95 C94 1.376 . S
C95 C96 1.373 1_545 S
C96 C95 1.373 1_565 S
C96 C97 1.395 1_565 S
C96 H118 0.926 . S
C97 C92 1.377 . S
C97 C96 1.395 1_545 S
C97 H119 0.926 1_545 S
C98 O108 1.240 1_554 S
C98 O109 1.289 . S
C99 O110 1.258 . S
C99 O111 1.256 1_556 S
O100 La80 2.521 . S
O100 C82 1.261 . S
O101 La80 2.628 . S
O101 C82 1.243 . S
O102 La80 2.554 . S
O102 C89 1.240 1_554 S
O103 La80 2.757 1_556 S
O103 La81 2.482 1_565 S
O103 C89 1.289 . S
O104 La80 2.470 1_545 S
O104 C90 1.258 . S
O105 La81 2.503 . S
O105 C90 1.256 1_556 S
O106 La81 2.521 . S
O106 C91 1.261 . S
O107 La81 2.628 . S
O107 C91 1.243 . S
O108 La81 2.554 . S
O108 C98 1.240 1_556 S
O109 La80 2.482 1_545 S
O109 La81 2.757 1_554 S
O109 C98 1.289 . S
O110 La81 2.470 1_565 S
O110 C99 1.258 . S
O111 La80 2.503 . S
O111 C99 1.256 1_554 S
H112 C84 0.930 . S
H113 C85 0.930 . S
H114 C87 0.932 . S
H115 C88 0.932 1_545 S
H116 C93 0.930 . S
H117 C94 0.930 . S
H118 C96 0.926 . S
H119 C97 0.926 1_565 S
La120 C122 2.928 . S
La120 O140 2.521 . S
La120 O141 2.628 . S
La120 O142 2.554 . S
La120 O143 2.757 . S
La120 O144 2.470 . S
La120 O149 2.482 . S
La120 O151 2.503 . S
La121 C131 2.928 . S
La121 O143 2.482 . S
La121 O145 2.503 . S
La121 O146 2.521 . S
La121 O147 2.628 . S
La121 O148 2.554 . S
La121 O149 2.757 . S
La121 O150 2.470 . S
C122 La120 2.928 . S
C122 C123 1.503 . S
C122 O140 1.261 . S
C122 O141 1.243 . S
C123 C122 1.503 . S
C123 C124 1.393 . S
C123 C128 1.373 . S
C124 C123 1.393 . S
C124 C125 1.383 1_554 S
C124 H152 0.929 . S
C125 C124 1.383 1_556 S
C125 C126 1.376 . S
C125 H153 0.930 . S
C126 C125 1.376 . S
C126 C127 1.370 . S
C127 C126 1.370 . S
C127 C128 1.396 1_556 S
C127 H154 0.929 . S
C128 C123 1.373 . S
C128 C127 1.396 1_554 S
C128 H155 0.929 . S
C129 O142 1.240 . S
C129 O143 1.289 . S
C130 O144 1.258 . S
C130 O145 1.256 . S
C131 La121 2.928 . S
C131 C132 1.503 . S
C131 O146 1.261 . S
C131 O147 1.243 . S
C132 C131 1.503 . S
C132 C133 1.394 . S
C132 C137 1.373 . S
C133 C132 1.394 . S
C133 C134 1.380 . S
C133 H156 0.930 . S
C134 C133 1.380 . S
C134 C135 1.376 . S
C134 H157 0.930 . S
C135 C134 1.376 . S
C135 C136 1.370 . S
C136 C135 1.370 . S
C136 C137 1.396 . S
C136 H158 0.929 . S
C137 C132 1.373 . S
C137 C136 1.396 . S
C137 H159 0.929 . S
C138 O148 1.240 . S
C138 O149 1.289 . S
C139 O150 1.258 . S
C139 O151 1.256 . S
O140 La120 2.521 . S
O140 C122 1.261 . S
O141 La120 2.628 . S
O141 C122 1.243 . S
O142 La120 2.554 . S
O142 C129 1.240 . S
O143 La120 2.757 . S
O143 La121 2.482 . S
O143 C129 1.289 . S
O144 La120 2.470 . S
O144 C130 1.258 . S
O145 La121 2.503 . S
O145 C130 1.256 . S
O146 La121 2.521 . S
O146 C131 1.261 . S
O147 La121 2.628 . S
O147 C131 1.243 . S
O148 La121 2.554 . S
O148 C138 1.240 . S
O149 La120 2.482 . S
O149 La121 2.757 . S
O149 C138 1.289 . S
O150 La121 2.470 . S
O150 C139 1.258 . S
O151 La120 2.503 . S
O151 C139 1.256 . S
H152 C124 0.929 . S
H153 C125 0.930 . S
H154 C127 0.929 . S
H155 C128 0.929 . S
H156 C133 0.930 . S
H157 C134 0.930 . S
H158 C136 0.929 . S
H159 C137 0.929 . S
La160 C162 2.928 . S
La160 O180 2.521 . S
La160 O181 2.628 . S
La160 O182 2.554 . S
La160 O183 2.757 . S
La160 O184 2.470 . S
La160 O189 2.482 . S
La160 O191 2.503 . S
La161 C171 2.928 . S
La161 O183 2.482 . S
La161 O185 2.503 . S
La161 O186 2.521 . S
La161 O187 2.628 . S
La161 O188 2.554 . S
La161 O189 2.757 . S
La161 O190 2.470 . S
C162 La160 2.928 . S
C162 C163 1.503 . S
C162 O180 1.261 . S
C162 O181 1.243 . S
C163 C162 1.503 . S
C163 C164 1.394 . S
C163 C168 1.373 . S
C164 C163 1.394 . S
C164 C165 1.380 . S
C164 H192 0.930 . S
C165 C164 1.380 . S
C165 C166 1.376 . S
C165 H193 0.930 . S
C166 C165 1.376 . S
C166 C167 1.370 . S
C167 C166 1.370 . S
C167 C168 1.396 . S
C167 H194 0.929 . S
C168 C163 1.373 . S
C168 C167 1.396 . S
C168 H195 0.929 . S
C169 O182 1.240 . S
C169 O183 1.289 . S
C170 O184 1.258 . S
C170 O185 1.256 . S
C171 La161 2.928 . S
C171 C172 1.503 . S
C171 O186 1.261 . S
C171 O187 1.243 . S
C172 C171 1.503 . S
C172 C173 1.394 . S
C172 C177 1.373 1_554 S
C173 C172 1.394 . S
C173 C174 1.380 1_554 S
C173 H196 0.930 . S
C174 C173 1.380 1_556 S
C174 C175 1.376 . S
C174 H197 0.930 . S
C175 C174 1.376 . S
C175 C176 1.370 . S
C176 C175 1.370 . S
C176 C177 1.396 . S
C176 H198 0.929 . S
C177 C172 1.373 1_556 S
C177 C176 1.396 . S
C177 H199 0.929 1_556 S
C178 O188 1.240 . S
C178 O189 1.289 . S
C179 O190 1.258 . S
C179 O191 1.256 . S
O180 La160 2.521 . S
O180 C162 1.261 . S
O181 La160 2.628 . S
O181 C162 1.243 . S
O182 La160 2.554 . S
O182 C169 1.240 . S
O183 La160 2.757 . S
O183 La161 2.482 . S
O183 C169 1.289 . S
O184 La160 2.470 . S
O184 C170 1.258 . S
O185 La161 2.503 . S
O185 C170 1.256 . S
O186 La161 2.521 . S
O186 C171 1.261 . S
O187 La161 2.628 . S
O187 C171 1.243 . S
O188 La161 2.554 . S
O188 C178 1.240 . S
O189 La160 2.482 . S
O189 La161 2.757 . S
O189 C178 1.289 . S
O190 La161 2.470 . S
O190 C179 1.258 . S
O191 La160 2.503 . S
O191 C179 1.256 . S
H192 C164 0.930 . S
H193 C165 0.930 . S
H194 C167 0.929 . S
H195 C168 0.929 . S
H196 C173 0.930 . S
H197 C174 0.930 . S
H198 C176 0.929 . S
H199 C177 0.929 1_554 S
La200 C202 2.928 . S
La200 O220 2.521 . S
La200 O221 2.628 . S
La200 O222 2.554 . S
La200 O223 2.757 . S
La200 O224 2.470 . S
La200 O229 2.482 . S
La200 O231 2.503 . S
La201 C211 2.928 . S
La201 O223 2.482 . S
La201 O225 2.503 . S
La201 O226 2.521 . S
La201 O227 2.628 . S
La201 O228 2.554 . S
La201 O229 2.757 . S
La201 O230 2.470 . S
C202 La200 2.928 . S
C202 C203 1.503 . S
C202 O220 1.261 . S
C202 O221 1.243 . S
C203 C202 1.503 . S
C203 C204 1.394 . S
C203 C208 1.373 . S
C204 C203 1.394 . S
C204 C205 1.380 . S
C204 H232 0.930 . S
C205 C204 1.380 . S
C205 C206 1.376 . S
C205 H233 0.930 . S
C206 C205 1.376 . S
C206 C207 1.370 . S
C207 C206 1.370 . S
C207 C208 1.396 . S
C207 H234 0.929 . S
C208 C203 1.373 . S
C208 C207 1.396 . S
C208 H235 0.929 . S
C209 O222 1.240 . S
C209 O223 1.289 . S
C210 O224 1.258 . S
C210 O225 1.256 . S
C211 La201 2.928 . S
C211 C212 1.503 . S
C211 O226 1.261 . S
C211 O227 1.243 . S
C212 C211 1.503 . S
C212 C213 1.394 1_556 S
C212 C217 1.372 . S
C213 C212 1.394 1_554 S
C213 C214 1.379 . S
C213 H236 0.931 1_554 S
C214 C213 1.379 . S
C214 C215 1.376 . S
C214 H237 0.930 . S
C215 C214 1.376 . S
C215 C216 1.370 . S
C216 C215 1.370 . S
C216 C217 1.397 1_554 S
C216 H238 0.929 . S
C217 C212 1.372 . S
C217 C216 1.397 1_556 S
C217 H239 0.929 . S
C218 O228 1.240 . S
C218 O229 1.289 . S
C219 O230 1.258 . S
C219 O231 1.256 . S
O220 La200 2.521 . S
O220 C202 1.261 . S
O221 La200 2.628 . S
O221 C202 1.243 . S
O222 La200 2.554 . S
O222 C209 1.240 . S
O223 La200 2.757 . S
O223 La201 2.482 . S
O223 C209 1.289 . S
O224 La200 2.470 . S
O224 C210 1.258 . S
O225 La201 2.503 . S
O225 C210 1.256 . S
O226 La201 2.521 . S
O226 C211 1.261 . S
O227 La201 2.628 . S
O227 C211 1.243 . S
O228 La201 2.554 . S
O228 C218 1.240 . S
O229 La200 2.482 . S
O229 La201 2.757 . S
O229 C218 1.289 . S
O230 La201 2.470 . S
O230 C219 1.258 . S
O231 La200 2.503 . S
O231 C219 1.256 . S
H232 C204 0.930 . S
H233 C205 0.930 . S
H234 C207 0.929 . S
H235 C208 0.929 . S
H236 C213 0.931 1_556 S
H237 C214 0.930 . S
H238 C216 0.929 . S
H239 C217 0.929 . S
La240 C242 2.928 . S
La240 O260 2.521 . S
La240 O261 2.628 . S
La240 O262 2.554 . S
La240 O263 2.757 1_556 S
La240 O264 2.470 . S
La240 O269 2.482 . S
La240 O271 2.503 1_556 S
La241 C251 2.928 . S
La241 O263 2.482 . S
La241 O265 2.503 1_554 S
La241 O266 2.521 . S
La241 O267 2.628 . S
La241 O268 2.554 . S
La241 O269 2.757 1_554 S
La241 O270 2.470 . S
C242 La240 2.928 . S
C242 C243 1.503 . S
C242 O260 1.261 . S
C242 O261 1.243 . S
C243 C242 1.503 . S
C243 C244 1.394 . S
C243 C248 1.373 . S
C244 C243 1.394 . S
C244 C245 1.380 . S
C244 H272 0.930 . S
C245 C244 1.380 . S
C245 C246 1.376 . S
C245 H273 0.930 . S
C246 C245 1.376 . S
C246 C247 1.370 . S
C247 C246 1.370 . S
C247 C248 1.396 . S
C247 H274 0.929 . S
C248 C243 1.373 . S
C248 C247 1.396 . S
C248 H275 0.929 . S
C249 O262 1.240 1_554 S
C249 O263 1.289 . S
C250 O264 1.258 . S
C250 O265 1.256 . S
C251 La241 2.928 . S
C251 C252 1.503 . S
C251 O266 1.261 . S
C251 O267 1.243 . S
C252 C251 1.503 . S
C252 C253 1.394 . S
C252 C257 1.373 . S
C253 C252 1.394 . S
C253 C254 1.380 . S
C253 H276 0.930 . S
C254 C253 1.380 . S
C254 C255 1.376 . S
C254 H277 0.930 . S
C255 C254 1.376 . S
C255 C256 1.370 . S
C256 C255 1.370 . S
C256 C257 1.396 . S
C256 H278 0.929 . S
C257 C252 1.373 . S
C257 C256 1.396 . S
C257 H279 0.929 . S
C258 O268 1.240 1_556 S
C258 O269 1.289 . S
C259 O270 1.258 . S
C259 O271 1.256 . S
O260 La240 2.521 . S
O260 C242 1.261 . S
O261 La240 2.628 . S
O261 C242 1.243 . S
O262 La240 2.554 . S
O262 C249 1.240 1_556 S
O263 La240 2.757 1_554 S
O263 La241 2.482 . S
O263 C249 1.289 . S
O264 La240 2.470 . S
O264 C250 1.258 . S
O265 La241 2.503 1_556 S
O265 C250 1.256 . S
O266 La241 2.521 . S
O266 C251 1.261 . S
O267 La241 2.628 . S
O267 C251 1.243 . S
O268 La241 2.554 . S
O268 C258 1.240 1_554 S
O269 La240 2.482 . S
O269 La241 2.757 1_556 S
O269 C258 1.289 . S
O270 La241 2.470 . S
O270 C259 1.258 . S
O271 La240 2.503 1_554 S
O271 C259 1.256 . S
H272 C244 0.930 . S
H273 C245 0.930 . S
H274 C247 0.929 . S
H275 C248 0.929 . S
H276 C253 0.930 . S
H277 C254 0.930 . S
H278 C256 0.929 . S
H279 C257 0.929 . S
La280 C282 2.928 1_455 S
La280 O300 2.521 1_455 S
La280 O301 2.628 . S
La280 O302 2.554 1_455 S
La280 O303 2.757 1_455 S
La280 O304 2.470 1_455 S
La280 O309 2.482 . S
La280 O311 2.503 . S
La281 C291 2.928 1_655 S
La281 O303 2.482 . S
La281 O305 2.503 . S
La281 O306 2.521 1_655 S
La281 O307 2.628 . S
La281 O308 2.554 1_655 S
La281 O309 2.757 1_655 S
La281 O310 2.470 1_655 S
C282 La280 2.928 1_655 S
C282 C283 1.503 . S
C282 O300 1.261 . S
C282 O301 1.243 1_655 S
C283 C282 1.503 . S
C283 C284 1.394 . S
C283 C288 1.373 . S
C284 C283 1.394 . S
C284 C285 1.380 . S
C284 H312 0.930 . S
C285 C284 1.380 . S
C285 C286 1.376 . S
C285 H313 0.930 . S
C286 C285 1.376 . S
C286 C287 1.370 . S
C287 C286 1.370 . S
C287 C288 1.396 . S
C287 H314 0.929 . S
C288 C283 1.373 . S
C288 C287 1.396 . S
C288 H315 0.929 1_655 S
C289 O302 1.240 . S
C289 O303 1.289 . S
C290 O304 1.258 . S
C290 O305 1.256 . S
C291 La281 2.928 1_455 S
C291 C292 1.503 . S
C291 O306 1.261 . S
C291 O307 1.243 1_455 S
C292 C291 1.503 . S
C292 C293 1.394 . S
C292 C297 1.373 . S
C293 C292 1.394 . S
C293 C294 1.380 . S
C293 H316 0.930 . S
C294 C293 1.380 . S
C294 C295 1.376 . S
C294 H317 0.930 . S
C295 C294 1.376 . S
C295 C296 1.370 . S
C296 C295 1.370 . S
C296 C297 1.396 . S
C296 H318 0.929 . S
C297 C292 1.373 . S
C297 C296 1.396 . S
C297 H319 0.929 1_455 S
C298 O308 1.240 . S
C298 O309 1.289 . S
C299 O310 1.258 . S
C299 O311 1.256 . S
O300 La280 2.521 1_655 S
O300 C282 1.261 . S
O301 La280 2.628 . S
O301 C282 1.243 1_455 S
O302 La280 2.554 1_655 S
O302 C289 1.240 . S
O303 La280 2.757 1_655 S
O303 La281 2.482 . S
O303 C289 1.289 . S
O304 La280 2.470 1_655 S
O304 C290 1.258 . S
O305 La281 2.503 . S
O305 C290 1.256 . S
O306 La281 2.521 1_455 S
O306 C291 1.261 . S
O307 La281 2.628 . S
O307 C291 1.243 1_655 S
O308 La281 2.554 1_455 S
O308 C298 1.240 . S
O309 La280 2.482 . S
O309 La281 2.757 1_455 S
O309 C298 1.289 . S
O310 La281 2.470 1_455 S
O310 C299 1.258 . S
O311 La280 2.503 . S
O311 C299 1.256 . S
H312 C284 0.930 . S
H313 C285 0.930 . S
H314 C287 0.929 . S
H315 C288 0.929 1_455 S
H316 C293 0.930 . S
H317 C294 0.930 . S
H318 C296 0.929 . S
H319 C297 0.929 1_655 S
H320 C326 0.930 . S
H321 C330 0.930 . S
H322 C335 0.929 . S
H323 C333 0.929 . S
H324 C328 0.929 . S
H325 C334 0.929 . S
C326 H320 0.930 . S
C326 C327 1.367 . S
C326 C334 1.378 . S
C327 C326 1.367 . S
C327 C335 1.433 . S
C328 H324 0.929 . S
C328 C330 1.378 . S
C328 C332 1.350 . S
C329 C332 1.463 . S
C329 C334 1.350 . S
C329 N337 1.427 . S
C330 H321 0.930 . S
C330 C328 1.378 . S
C330 C331 1.367 . S
C331 C330 1.367 . S
C331 C333 1.433 . S
C332 C328 1.350 . S
C332 C329 1.463 . S
C332 N336 1.427 . S
C333 H323 0.929 . S
C333 C331 1.433 . S
C333 N336 1.384 . S
C334 H325 0.929 . S
C334 C326 1.378 . S
C334 C329 1.350 . S
C335 H322 0.929 . S
C335 C327 1.433 . S
C335 N337 1.384 . S
N336 C332 1.427 . S
N336 C333 1.384 . S
N337 C329 1.427 . S
N337 C335 1.384 . S
H338 C344 0.930 . S
H339 C348 0.930 . S
H340 C353 0.929 . S
H341 C351 0.929 . S
H342 C346 0.929 . S
H343 C352 0.929 . S
C344 H338 0.930 . S
C344 C345 1.367 . S
C344 C352 1.378 . S
C345 C344 1.367 . S
C345 C353 1.433 . S
C346 H342 0.929 . S
C346 C348 1.378 . S
C346 C350 1.350 . S
C347 C350 1.463 . S
C347 C352 1.350 . S
C347 N355 1.427 . S
C348 H339 0.930 . S
C348 C346 1.378 . S
C348 C349 1.367 . S
C349 C348 1.367 . S
C349 C351 1.433 . S
C350 C346 1.350 . S
C350 C347 1.463 . S
C350 N354 1.427 . S
C351 H341 0.929 . S
C351 C349 1.433 . S
C351 N354 1.384 . S
C352 H343 0.929 . S
C352 C344 1.378 . S
C352 C347 1.350 . S
C353 H340 0.929 . S
C353 C345 1.433 . S
C353 N355 1.384 . S
N354 C350 1.427 . S
N354 C351 1.384 . S
N355 C347 1.427 . S
N355 C353 1.384 . S
H356 C362 0.930 . S
H357 C366 0.930 . S
H358 C371 0.929 . S
H359 C369 0.929 . S
H360 C364 0.929 . S
H361 C370 0.929 . S
C362 H356 0.930 . S
C362 C363 1.367 . S
C362 C370 1.378 . S
C363 C362 1.367 . S
C363 C371 1.433 . S
C364 H360 0.929 . S
C364 C366 1.378 . S
C364 C368 1.350 . S
C365 C368 1.463 . S
C365 C370 1.350 . S
C365 N373 1.427 . S
C366 H357 0.930 . S
C366 C364 1.378 . S
C366 C367 1.367 . S
C367 C366 1.367 . S
C367 C369 1.433 . S
C368 C364 1.350 . S
C368 C365 1.463 . S
C368 N372 1.427 . S
C369 H359 0.929 . S
C369 C367 1.433 . S
C369 N372 1.384 . S
C370 H361 0.929 . S
C370 C362 1.378 . S
C370 C365 1.350 . S
C371 H358 0.929 . S
C371 C363 1.433 . S
C371 N373 1.384 . S
N372 C368 1.427 . S
N372 C369 1.384 . S
N373 C365 1.427 . S
N373 C371 1.384 . S
H374 C380 0.930 . S
H375 C384 0.930 . S
H376 C389 0.929 . S
H377 C387 0.929 . S
H378 C382 0.929 . S
H379 C388 0.929 . S
C380 H374 0.930 . S
C380 C381 1.367 . S
C380 C388 1.378 . S
C381 C380 1.367 . S
C381 C389 1.433 . S
C382 H378 0.929 . S
C382 C384 1.378 . S
C382 C386 1.350 . S
C383 C386 1.463 . S
C383 C388 1.350 . S
C383 N391 1.427 . S
C384 H375 0.930 . S
C384 C382 1.378 . S
C384 C385 1.367 . S
C385 C384 1.367 . S
C385 C387 1.433 . S
C386 C382 1.350 . S
C386 C383 1.463 . S
C386 N390 1.427 . S
C387 H377 0.929 . S
C387 C385 1.433 . S
C387 N390 1.384 . S
C388 H379 0.929 . S
C388 C380 1.378 . S
C388 C383 1.350 . S
C389 H376 0.929 . S
C389 C381 1.433 . S
C389 N391 1.384 . S
N390 C386 1.427 . S
N390 C387 1.384 . S
N391 C383 1.427 . S
N391 C389 1.384 . S
H392 C398 0.930 . S
H393 C402 0.930 . S
H394 C407 0.929 . S
H395 C405 0.929 . S
H396 C400 0.929 . S
H397 C406 0.929 . S
C398 H392 0.930 . S
C398 C399 1.367 . S
C398 C406 1.378 . S
C399 C398 1.367 . S
C399 C407 1.433 . S
C400 H396 0.929 . S
C400 C402 1.378 . S
C400 C404 1.350 . S
C401 C404 1.463 . S
C401 C406 1.350 . S
C401 N409 1.427 . S
C402 H393 0.930 . S
C402 C400 1.378 . S
C402 C403 1.367 . S
C403 C402 1.367 . S
C403 C405 1.433 . S
C404 C400 1.350 . S
C404 C401 1.463 . S
C404 N408 1.427 . S
C405 H395 0.929 . S
C405 C403 1.433 . S
C405 N408 1.384 . S
C406 H397 0.929 . S
C406 C398 1.378 . S
C406 C401 1.350 . S
C407 H394 0.929 . S
C407 C399 1.433 . S
C407 N409 1.384 . S
N408 C404 1.427 . S
N408 C405 1.384 . S
N409 C401 1.427 . S
N409 C407 1.384 . S
H410 C416 0.930 . S
H411 C420 0.930 . S
H412 C425 0.929 . S
H413 C423 0.929 . S
H414 C418 0.929 . S
H415 C424 0.929 . S
C416 H410 0.930 . S
C416 C417 1.367 . S
C416 C424 1.378 . S
C417 C416 1.367 . S
C417 C425 1.433 . S
C418 H414 0.929 . S
C418 C420 1.378 . S
C418 C422 1.350 . S
C419 C422 1.463 . S
C419 C424 1.350 . S
C419 N427 1.427 . S
C420 H411 0.930 . S
C420 C418 1.378 . S
C420 C421 1.367 . S
C421 C420 1.367 . S
C421 C423 1.433 . S
C422 C418 1.350 . S
C422 C419 1.463 . S
C422 N426 1.427 . S
C423 H413 0.929 . S
C423 C421 1.433 . S
C423 N426 1.384 . S
C424 H415 0.929 . S
C424 C416 1.378 . S
C424 C419 1.350 . S
C425 H412 0.929 . S
C425 C417 1.433 . S
C425 N427 1.384 . S
N426 C422 1.427 . S
N426 C423 1.384 . S
N427 C419 1.427 . S
N427 C425 1.384 . S
H428 C434 0.930 . S
H429 C438 0.930 . S
H430 C443 0.929 . S
H431 C441 0.929 1_556 S
H432 C436 0.929 . S
H433 C442 0.929 . S
C434 H428 0.930 . S
C434 C435 1.367 . S
C434 C442 1.378 . S
C435 C434 1.367 . S
C435 C443 1.433 . S
C436 H432 0.929 . S
C436 C438 1.378 . S
C436 C440 1.350 . S
C437 C440 1.463 . S
C437 C442 1.350 . S
C437 N445 1.427 . S
C438 H429 0.930 . S
C438 C436 1.378 . S
C438 C439 1.367 . S
C439 C438 1.367 . S
C439 C441 1.433 . S
C440 C436 1.350 . S
C440 C437 1.463 . S
C440 N444 1.427 . S
C441 H431 0.929 1_554 S
C441 C439 1.433 . S
C441 N444 1.384 . S
C442 H433 0.929 . S
C442 C434 1.378 . S
C442 C437 1.350 . S
C443 H430 0.929 . S
C443 C435 1.433 . S
C443 N445 1.384 . S
N444 C440 1.427 . S
N444 C441 1.384 . S
N445 C437 1.427 . S
N445 C443 1.384 . S
H446 C452 0.930 . S
H447 C456 0.930 . S
H448 C461 0.929 . S
H449 C459 0.929 . S
H450 C454 0.929 . S
H451 C460 0.929 . S
C452 H446 0.930 . S
C452 C453 1.367 . S
C452 C460 1.378 . S
C453 C452 1.367 . S
C453 C461 1.433 . S
C454 H450 0.929 . S
C454 C456 1.378 . S
C454 C458 1.350 . S
C455 C458 1.463 . S
C455 C460 1.350 . S
C455 N463 1.427 . S
C456 H447 0.930 . S
C456 C454 1.378 . S
C456 C457 1.367 . S
C457 C456 1.367 . S
C457 C459 1.433 . S
C458 C454 1.350 . S
C458 C455 1.463 . S
C458 N462 1.427 . S
C459 H449 0.929 . S
C459 C457 1.433 . S
C459 N462 1.384 . S
C460 H451 0.929 . S
C460 C452 1.378 . S
C460 C455 1.350 . S
C461 H448 0.929 . S
C461 C453 1.433 . S
C461 N463 1.384 . S
N462 C458 1.427 . S
N462 C459 1.384 . S
N463 C455 1.427 . S
N463 C461 1.384 . S
H464 C470 0.930 . S
H465 C474 0.930 . S
H466 C479 0.929 . S
H467 C477 0.929 . S
H468 C472 0.929 . S
H469 C478 0.929 . S
C470 H464 0.930 . S
C470 C471 1.367 . S
C470 C478 1.378 . S
C471 C470 1.367 . S
C471 C479 1.433 . S
C472 H468 0.929 . S
C472 C474 1.378 . S
C472 C476 1.350 . S
C473 C476 1.463 . S
C473 C478 1.350 . S
C473 N481 1.427 . S
C474 H465 0.930 . S
C474 C472 1.378 . S
C474 C475 1.367 . S
C475 C474 1.367 . S
C475 C477 1.433 . S
C476 C472 1.350 . S
C476 C473 1.463 . S
C476 N480 1.427 . S
C477 H467 0.929 . S
C477 C475 1.433 . S
C477 N480 1.384 . S
C478 H469 0.929 . S
C478 C470 1.378 . S
C478 C473 1.350 . S
C479 H466 0.929 . S
C479 C471 1.433 . S
C479 N481 1.384 . S
N480 C476 1.427 . S
N480 C477 1.384 . S
N481 C473 1.427 . S
N481 C479 1.384 . S
H482 C488 0.930 . S
H483 C492 0.930 . S
H484 C497 0.929 . S
H485 C495 0.929 1_556 S
H486 C490 0.929 . S
H487 C496 0.929 . S
C488 H482 0.930 . S
C488 C489 1.367 . S
C488 C496 1.378 . S
C489 C488 1.367 . S
C489 C497 1.433 . S
C490 H486 0.929 . S
C490 C492 1.378 . S
C490 C494 1.350 . S
C491 C494 1.463 . S
C491 C496 1.350 . S
C491 N499 1.427 . S
C492 H483 0.930 . S
C492 C490 1.378 . S
C492 C493 1.367 . S
C493 C492 1.367 . S
C493 C495 1.433 . S
C494 C490 1.350 . S
C494 C491 1.463 . S
C494 N498 1.427 . S
C495 H485 0.929 1_554 S
C495 C493 1.433 . S
C495 N498 1.384 . S
C496 H487 0.929 . S
C496 C488 1.378 . S
C496 C491 1.350 . S
C497 H484 0.929 . S
C497 C489 1.433 . S
C497 N499 1.384 . S
N498 C494 1.427 . S
N498 C495 1.384 . S
N499 C491 1.427 . S
N499 C497 1.384 . S
H500 C506 0.930 . S
H501 C510 0.930 . S
H502 C515 0.929 . S
H503 C513 0.929 . S
H504 C508 0.929 . S
H505 C514 0.929 . S
C506 H500 0.930 . S
C506 C507 1.367 . S
C506 C514 1.378 . S
C507 C506 1.367 . S
C507 C515 1.433 . S
C508 H504 0.929 . S
C508 C510 1.378 . S
C508 C512 1.350 . S
C509 C512 1.463 . S
C509 C514 1.350 . S
C509 N517 1.427 . S
C510 H501 0.930 . S
C510 C508 1.378 . S
C510 C511 1.367 . S
C511 C510 1.367 . S
C511 C513 1.433 . S
C512 C508 1.350 . S
C512 C509 1.463 . S
C512 N516 1.427 . S
C513 H503 0.929 . S
C513 C511 1.433 . S
C513 N516 1.384 . S
C514 H505 0.929 . S
C514 C506 1.378 . S
C514 C509 1.350 . S
C515 H502 0.929 . S
C515 C507 1.433 . S
C515 N517 1.384 . S
N516 C512 1.427 . S
N516 C513 1.384 . S
N517 C509 1.427 . S
N517 C515 1.384 . S
H518 C524 0.930 . S
H519 C528 0.930 . S
H520 C533 0.929 . S
H521 C531 0.929 . S
H522 C526 0.929 . S
H523 C532 0.929 . S
C524 H518 0.930 . S
C524 C525 1.367 . S
C524 C532 1.378 . S
C525 C524 1.367 . S
C525 C533 1.433 . S
C526 H522 0.929 . S
C526 C528 1.378 . S
C526 C530 1.350 . S
C527 C530 1.463 . S
C527 C532 1.350 . S
C527 N535 1.427 . S
C528 H519 0.930 . S
C528 C526 1.378 . S
C528 C529 1.367 . S
C529 C528 1.367 . S
C529 C531 1.433 . S
C530 C526 1.350 . S
C530 C527 1.463 . S
C530 N534 1.427 . S
C531 H521 0.929 . S
C531 C529 1.433 . S
C531 N534 1.384 . S
C532 H523 0.929 . S
C532 C524 1.378 . S
C532 C527 1.350 . S
C533 H520 0.929 . S
C533 C525 1.433 . S
C533 N535 1.384 . S
N534 C530 1.427 . S
N534 C531 1.384 . S
N535 C527 1.427 . S
N535 C533 1.384 . S
H536 C542 0.930 . S
H537 C546 0.930 . S
H538 C551 0.929 . S
H539 C549 0.929 . S
H540 C544 0.929 . S
H541 C550 0.929 . S
C542 H536 0.930 . S
C542 C543 1.367 . S
C542 C550 1.378 . S
C543 C542 1.367 . S
C543 C551 1.433 . S
C544 H540 0.929 . S
C544 C546 1.378 . S
C544 C548 1.350 . S
C545 C548 1.463 . S
C545 C550 1.350 . S
C545 N553 1.427 . S
C546 H537 0.930 . S
C546 C544 1.378 . S
C546 C547 1.367 . S
C547 C546 1.367 . S
C547 C549 1.433 . S
C548 C544 1.350 . S
C548 C545 1.463 . S
C548 N552 1.427 . S
C549 H539 0.929 . S
C549 C547 1.433 . S
C549 N552 1.384 . S
C550 H541 0.929 . S
C550 C542 1.378 . S
C550 C545 1.350 . S
C551 H538 0.929 . S
C551 C543 1.433 . S
C551 N553 1.384 . S
N552 C548 1.427 . S
N552 C549 1.384 . S
N553 C545 1.427 . S
N553 C551 1.384 . S
H554 C560 0.930 . S
H555 C564 0.930 . S
H556 C569 0.929 1_554 S
H557 C567 0.929 . S
H558 C562 0.929 . S
H559 C568 0.929 . S
C560 H554 0.930 . S
C560 C561 1.367 . S
C560 C568 1.378 . S
C561 C560 1.367 . S
C561 C569 1.433 . S
C562 H558 0.929 . S
C562 C564 1.378 . S
C562 C566 1.350 . S
C563 C566 1.463 . S
C563 C568 1.350 . S
C563 N571 1.427 . S
C564 H555 0.930 . S
C564 C562 1.378 . S
C564 C565 1.367 . S
C565 C564 1.367 . S
C565 C567 1.433 . S
C566 C562 1.350 . S
C566 C563 1.463 . S
C566 N570 1.427 . S
C567 H557 0.929 . S
C567 C565 1.433 . S
C567 N570 1.384 . S
C568 H559 0.929 . S
C568 C560 1.378 . S
C568 C563 1.350 . S
C569 H556 0.929 1_556 S
C569 C561 1.433 . S
C569 N571 1.384 . S
N570 C566 1.427 . S
N570 C567 1.384 . S
N571 C563 1.427 . S
N571 C569 1.384 . S
H572 C578 0.930 . S
H573 C582 0.930 . S
H574 C587 0.929 . S
H575 C585 0.929 . S
H576 C580 0.929 . S
H577 C586 0.929 . S
C578 H572 0.930 . S
C578 C579 1.367 . S
C578 C586 1.378 . S
C579 C578 1.367 . S
C579 C587 1.433 . S
C580 H576 0.929 . S
C580 C582 1.378 . S
C580 C584 1.350 . S
C581 C584 1.463 . S
C581 C586 1.350 . S
C581 N589 1.427 . S
C582 H573 0.930 . S
C582 C580 1.378 . S
C582 C583 1.367 . S
C583 C582 1.367 . S
C583 C585 1.433 . S
C584 C580 1.350 . S
C584 C581 1.463 . S
C584 N588 1.427 . S
C585 H575 0.929 . S
C585 C583 1.433 . S
C585 N588 1.384 . S
C586 H577 0.929 . S
C586 C578 1.378 . S
C586 C581 1.350 . S
C587 H574 0.929 . S
C587 C579 1.433 . S
C587 N589 1.384 . S
N588 C584 1.427 . S
N588 C585 1.384 . S
N589 C581 1.427 . S
N589 C587 1.384 . S
H590 C596 0.930 . S
H591 C600 0.930 . S
H592 C605 0.929 . S
H593 C603 0.929 . S
H594 C598 0.929 . S
H595 C604 0.929 . S
C596 H590 0.930 . S
C596 C597 1.367 . S
C596 C604 1.378 . S
C597 C596 1.367 . S
C597 C605 1.433 . S
C598 H594 0.929 . S
C598 C600 1.378 . S
C598 C602 1.350 . S
C599 C602 1.463 . S
C599 C604 1.350 . S
C599 N607 1.427 . S
C600 H591 0.930 . S
C600 C598 1.378 . S
C600 C601 1.367 . S
C601 C600 1.367 . S
C601 C603 1.433 . S
C602 C598 1.350 . S
C602 C599 1.463 . S
C602 N606 1.427 . S
C603 H593 0.929 . S
C603 C601 1.433 . S
C603 N606 1.384 . S
C604 H595 0.929 . S
C604 C596 1.378 . S
C604 C599 1.350 . S
C605 H592 0.929 . S
C605 C597 1.433 . S
C605 N607 1.384 . S
N606 C602 1.427 . S
N606 C603 1.384 . S
N607 C599 1.427 . S
N607 C605 1.384 . S
H608 C614 0.930 . S
H609 C618 0.930 . S
H610 C623 0.929 . S
H611 C621 0.929 . S
H612 C616 0.929 . S
H613 C622 0.929 . S
C614 H608 0.930 . S
C614 C615 1.388 1_455 S
C614 C622 1.378 . S
C615 C614 1.388 1_655 S
C615 C623 1.416 1_545 S
C616 H612 0.929 . S
C616 C618 1.378 . S
C616 C620 1.364 1_655 S
C617 C620 1.471 1_646 S
C617 C622 1.368 1_655 S
C617 N625 1.405 1_545 S
C618 H609 0.930 . S
C618 C616 1.378 . S
C618 C619 1.383 1_655 S
C619 C618 1.383 1_455 S
C619 C621 1.421 1_565 S
C620 C616 1.364 1_455 S
C620 C617 1.471 1_464 S
C620 N624 1.410 1_565 S
C621 H611 0.929 . S
C621 C619 1.421 1_545 S
C621 N624 1.384 . S
C622 H613 0.929 . S
C622 C614 1.378 . S
C622 C617 1.368 1_455 S
C623 H610 0.929 . S
C623 C615 1.416 1_565 S
C623 N625 1.384 . S
N624 C620 1.410 1_545 S
N624 C621 1.384 . S
N625 C617 1.405 1_565 S
N625 C623 1.384 . S
H626 C632 0.930 . S
H627 C636 0.930 . S
H628 C641 0.929 . S
H629 C639 0.929 . S
H630 C634 0.929 . S
H631 C640 0.929 . S
C632 H626 0.930 . S
C632 C633 1.367 . S
C632 C640 1.378 . S
C633 C632 1.367 . S
C633 C641 1.433 . S
C634 H630 0.929 . S
C634 C636 1.378 . S
C634 C638 1.350 . S
C635 C638 1.463 . S
C635 C640 1.350 . S
C635 N643 1.427 . S
C636 H627 0.930 . S
C636 C634 1.378 . S
C636 C637 1.367 . S
C637 C636 1.367 . S
C637 C639 1.433 . S
C638 C634 1.350 . S
C638 C635 1.463 . S
C638 N642 1.427 . S
C639 H629 0.929 . S
C639 C637 1.433 . S
C639 N642 1.384 . S
C640 H631 0.929 . S
C640 C632 1.378 . S
C640 C635 1.350 . S
C641 H628 0.929 . S
C641 C633 1.433 . S
C641 N643 1.384 . S
N642 C638 1.427 . S
N642 C639 1.384 . S
N643 C635 1.427 . S
N643 C641 1.384 . S
H644 C650 0.930 . S
H645 C654 0.930 . S
H646 C659 0.929 . S
H647 C657 0.929 . S
H648 C652 0.929 . S
H649 C658 0.929 . S
C650 H644 0.930 . S
C650 C651 1.367 . S
C650 C658 1.378 . S
C651 C650 1.367 . S
C651 C659 1.433 1_545 S
C652 H648 0.929 . S
C652 C654 1.378 . S
C652 C656 1.350 . S
C653 C656 1.463 1_545 S
C653 C658 1.350 . S
C653 N661 1.427 1_545 S
C654 H645 0.930 . S
C654 C652 1.378 . S
C654 C655 1.367 . S
C655 C654 1.367 . S
C655 C657 1.433 1_565 S
C656 C652 1.350 . S
C656 C653 1.463 1_565 S
C656 N660 1.427 1_565 S
C657 H647 0.929 . S
C657 C655 1.433 1_545 S
C657 N660 1.384 . S
C658 H649 0.929 . S
C658 C650 1.378 . S
C658 C653 1.350 . S
C659 H646 0.929 . S
C659 C651 1.433 1_565 S
C659 N661 1.384 . S
N660 C656 1.427 1_545 S
N660 C657 1.384 . S
N661 C653 1.427 1_565 S
N661 C659 1.384 . S
H662 C668 0.930 . S
H663 C672 0.930 . S
H664 C677 0.929 . S
H665 C675 0.929 . S
H666 C670 0.929 . S
H667 C676 0.929 . S
C668 H662 0.930 . S
C668 C669 1.367 . S
C668 C676 1.378 . S
C669 C668 1.367 . S
C669 C677 1.433 . S
C670 H666 0.929 . S
C670 C672 1.378 . S
C670 C674 1.350 . S
C671 C674 1.463 . S
C671 C676 1.350 . S
C671 N679 1.427 . S
C672 H663 0.930 . S
C672 C670 1.378 . S
C672 C673 1.367 . S
C673 C672 1.367 . S
C673 C675 1.433 . S
C674 C670 1.350 . S
C674 C671 1.463 . S
C674 N678 1.427 . S
C675 H665 0.929 . S
C675 C673 1.433 . S
C675 N678 1.384 . S
C676 H667 0.929 . S
C676 C668 1.378 . S
C676 C671 1.350 . S
C677 H664 0.929 . S
C677 C669 1.433 . S
C677 N679 1.384 . S
N678 C674 1.427 . S
N678 C675 1.384 . S
N679 C671 1.427 . S
N679 C677 1.384 . S
H680 C686 0.930 . S
H681 C690 0.930 . S
H682 C695 0.929 . S
H683 C693 0.929 . S
H684 C688 0.929 . S
H685 C694 0.929 . S
C686 H680 0.930 . S
C686 C687 1.367 . S
C686 C694 1.378 . S
C687 C686 1.367 . S
C687 C695 1.433 . S
C688 H684 0.929 . S
C688 C690 1.378 . S
C688 C692 1.350 . S
C689 C692 1.463 . S
C689 C694 1.350 . S
C689 N697 1.427 . S
C690 H681 0.930 . S
C690 C688 1.378 . S
C690 C691 1.367 . S
C691 C690 1.367 . S
C691 C693 1.433 . S
C692 C688 1.350 . S
C692 C689 1.463 . S
C692 N696 1.427 . S
C693 H683 0.929 . S
C693 C691 1.433 . S
C693 N696 1.384 . S
C694 H685 0.929 . S
C694 C686 1.378 . S
C694 C689 1.350 . S
C695 H682 0.929 . S
C695 C687 1.433 . S
C695 N697 1.384 . S
N696 C692 1.427 . S
N696 C693 1.384 . S
N697 C689 1.427 . S
N697 C695 1.384 . S
H698 C704 0.930 . S
H699 C708 0.930 . S
H700 C713 0.929 . S
H701 C711 0.929 . S
H702 C706 0.929 . S
H703 C712 0.929 . S
C704 H698 0.930 . S
C704 C705 1.367 . S
C704 C712 1.378 . S
C705 C704 1.367 . S
C705 C713 1.433 . S
C706 H702 0.929 . S
C706 C708 1.378 . S
C706 C710 1.350 . S
C707 C710 1.463 . S
C707 C712 1.350 . S
C707 N715 1.427 . S
C708 H699 0.930 . S
C708 C706 1.378 . S
C708 C709 1.367 . S
C709 C708 1.367 . S
C709 C711 1.433 . S
C710 C706 1.350 . S
C710 C707 1.463 . S
C710 N714 1.427 . S
C711 H701 0.929 . S
C711 C709 1.433 . S
C711 N714 1.384 . S
C712 H703 0.929 . S
C712 C704 1.378 . S
C712 C707 1.350 . S
C713 H700 0.929 . S
C713 C705 1.433 . S
C713 N715 1.384 . S
N714 C710 1.427 . S
N714 C711 1.384 . S
N715 C707 1.427 . S
N715 C713 1.384 . S
H716 C722 0.930 . S
H717 C726 0.930 . S
H718 C731 0.929 . S
H719 C729 0.929 . S
H720 C724 0.929 . S
H721 C730 0.929 . S
C722 H716 0.930 . S
C722 C723 1.367 . S
C722 C730 1.378 . S
C723 C722 1.367 . S
C723 C731 1.433 . S
C724 H720 0.929 . S
C724 C726 1.378 . S
C724 C728 1.350 . S
C725 C728 1.463 . S
C725 C730 1.350 . S
C725 N733 1.427 . S
C726 H717 0.930 . S
C726 C724 1.378 . S
C726 C727 1.367 . S
C727 C726 1.367 . S
C727 C729 1.433 . S
C728 C724 1.350 . S
C728 C725 1.463 . S
C728 N732 1.427 . S
C729 H719 0.929 . S
C729 C727 1.433 . S
C729 N732 1.384 . S
C730 H721 0.929 . S
C730 C722 1.378 . S
C730 C725 1.350 . S
C731 H718 0.929 . S
C731 C723 1.433 . S
C731 N733 1.384 . S
N732 C728 1.427 . S
N732 C729 1.384 . S
N733 C725 1.427 . S
N733 C731 1.384 . S
H734 C740 0.930 . S
H735 C744 0.930 . S
H736 C749 0.929 . S
H737 C747 0.929 . S
H738 C742 0.929 . S
H739 C748 0.929 . S
C740 H734 0.930 . S
C740 C741 1.367 . S
C740 C748 1.378 . S
C741 C740 1.367 . S
C741 C749 1.433 1_655 S
C742 H738 0.929 . S
C742 C744 1.378 . S
C742 C746 1.350 . S
C743 C746 1.463 1_656 S
C743 C748 1.350 . S
C743 N751 1.427 1_655 S
C744 H735 0.930 . S
C744 C742 1.378 . S
C744 C745 1.367 . S
C745 C744 1.367 . S
C745 C747 1.433 1_455 S
C746 C742 1.350 . S
C746 C743 1.463 1_454 S
C746 N750 1.427 1_455 S
C747 H737 0.929 . S
C747 C745 1.433 1_655 S
C747 N750 1.384 . S
C748 H739 0.929 . S
C748 C740 1.378 . S
C748 C743 1.350 . S
C749 H736 0.929 . S
C749 C741 1.433 1_455 S
C749 N751 1.384 . S
N750 C746 1.427 1_655 S
N750 C747 1.384 . S
N751 C743 1.427 1_455 S
N751 C749 1.384 . S
C327 C10 1.524 . S
C331 C129 1.508 . S
C345 C9 0.886 . S
C349 C49 0.891 . S
C363 C50 1.529 . S
C367 C89 1.522 . S
C381 C90 2.052 . S
C385 C130 2.051 . S
C399 C19 1.524 . S
C403 C218 1.515 . S
C417 C18 0.902 . S
C421 C178 0.897 . S
C435 C179 1.529 . S
C439 C98 1.515 . S
C453 C219 2.052 . S
C457 C99 2.057 . S
C471 C250 1.524 . S
C475 C209 1.513 . S
C489 C169 0.898 . S
C493 C249 0.901 . S
C507 C289 1.515 . S
C511 C170 1.527 . S
C525 C210 2.054 . S
C529 C290 2.053 . S
C543 C138 1.510 . S
C547 C259 1.521 . S
C561 C258 0.900 . S
C565 C58 0.902 . S
C579 C59 1.528 . S
C583 C298 1.516 . S
C597 C139 2.054 . S
C601 C299 2.049 . S
C615 C15 1.402 . S
C619 C6 1.403 . S
C633 C55 1.405 . S
C637 C46 1.405 . S
C651 C95 1.612 . S
C655 C86 1.612 . S
C669 C126 1.612 . S
C673 C135 1.612 . S
C687 C175 1.416 . S
C691 C166 1.416 . S
C705 C206 1.612 . S
C709 C215 1.612 . S
C723 C246 1.408 . S
C727 C255 1.408 . S
C741 C286 1.605 . S
C745 C295 1.605 . S
