# Generated by pormake.
# Topology unc, (4)-cn, num edge types: 1
# Building blocks:
#     Node 0, Type 0, BuildingBlock: ICAMEG_clean_sbu_1, # of connection points: 4
#     Node 1, Type 0, BuildingBlock: ICAMEG_clean_sbu_1, # of connection points: 4
#     Node 2, Type 0, BuildingBlock: ICAMEG_clean_sbu_1, # of connection points: 4
#     Node 3, Type 0, BuildingBlock: ICAMEG_clean_sbu_1, # of connection points: 4
#     Edge 4, Type (0, 0), BuildingBlock: MIFKUJ_clean_linker_0, # of connection points: 2
#     Edge 5, Type (0, 0), BuildingBlock: MIFKUJ_clean_linker_0, # of connection points: 2
#     Edge 6, Type (0, 0), BuildingBlock: MIFKUJ_clean_linker_0, # of connection points: 2
#     Edge 7, Type (0, 0), BuildingBlock: MIFKUJ_clean_linker_0, # of connection points: 2
#     Edge 8, Type (0, 0), BuildingBlock: MIFKUJ_clean_linker_0, # of connection points: 2
#     Edge 9, Type (0, 0), BuildingBlock: MIFKUJ_clean_linker_0, # of connection points: 2
#     Edge 10, Type (0, 0), BuildingBlock: MIFKUJ_clean_linker_0, # of connection points: 2
#     Edge 11, Type (0, 0), BuildingBlock: MIFKUJ_clean_linker_0, # of connection points: 2
# Relax obj value: 0.022
# Max RMSD: 0.082
# Mean RMSD: 0.082
data_MOF--net-unc--node1-ICAMEG_clean_sbu_1--edge1-MIFKUJ_clean_linker_0
_symmetry_space_group_name_H-M    P1
_symmetry_Int_Tables_number       1
_symmetry_cell_setting            triclinic
loop_
_symmetry_equiv_pos_as_xyz
'x, y, z'
_cell_length_a     41.559703
_cell_length_b     41.539645
_cell_length_c     28.586788
_cell_angle_alpha  90.049635
_cell_angle_beta   90.240267
_cell_angle_gamma 90.170167
loop_
_atom_site_label
_atom_site_type_symbol
_atom_site_fract_x
_atom_site_fract_y
_atom_site_fract_z
_atom_type_partial_charge
Co0 Co 0.05408 0.66601 0.98867 0.0
Co1 Co 0.97313 0.66604 0.01238 0.0
O2 O 0.01366 0.68897 1.0004 0.0
C3 C 0.07215 0.71556 0.06001 0.0
O4 O 0.04511 0.70969 0.08202 0.0
C5 C 0.95527 0.71593 0.94156 0.0
O6 O 0.98251 0.71088 0.91975 0.0
O7 O 0.97792 0.64132 0.95309 0.0
O8 O 0.03087 0.63118 0.95316 0.0
H9 H 0.90215 0.56817 0.02144 0.0
H10 H 0.04933 0.73497 0.96334 0.0
O11 O 0.07904 0.70022 0.02281 0.0
H12 H 0.07406 0.6787 0.81591 0.0
H13 H 0.17165 0.65765 0.94836 0.0
H14 H 0.074 0.59767 0.99335 0.0
H15 H 0.069 0.64846 0.88967 0.0
H16 H 0.12044 0.68611 0.96124 0.0
O17 O 0.94826 0.69996 0.97812 0.0
H18 H 0.95291 0.59764 0.00829 0.0
H19 H 0.90687 0.68616 0.03978 0.0
H20 H 0.12465 0.56822 0.98051 0.0
H21 H 0.05464 0.76624 0.89045 0.0
H22 H 0.17394 0.59826 0.95783 0.0
H23 H 0.06696 0.73806 0.81601 0.0
O24 O 0.04917 0.64161 0.04816 0.0
H25 H 0.97276 0.76694 0.1094 0.0
H26 H 0.95807 0.64912 0.1116 0.0
H27 H 0.9529 0.67988 0.18494 0.0
H28 H 0.96013 0.73926 0.18412 0.0
H29 H 0.97828 0.73515 0.037 0.0
H30 H 0.85556 0.65768 0.05297 0.0
H31 H 0.853 0.59824 0.04397 0.0
O32 O 0.99618 0.63146 0.04815 0.0
C33 C 1.00243 0.62644 0.93744 0.0
C34 C 0.90298 0.59406 0.02563 0.0
C35 C 0.87682 0.6443 0.04326 0.0
N36 N 0.93292 0.64355 0.0236 0.0
C37 C 0.93167 0.61087 0.01834 0.0
C38 C 0.90593 0.66031 0.03565 0.0
C39 C 0.87541 0.61095 0.03822 0.0
C40 C 0.05502 0.72258 0.93117 0.0
N41 N 0.05885 0.68993 0.9308 0.0
C42 C 0.05786 0.7404 0.88997 0.0
C43 C 0.06471 0.72456 0.8482 0.0
C44 C 0.06865 0.69126 0.84811 0.0
C45 C 0.06561 0.67424 0.88998 0.0
C46 C 0.15032 0.64429 0.95814 0.0
C47 C 0.09531 0.61089 0.98324 0.0
C48 C 0.12127 0.66028 0.96557 0.0
N49 N 0.0942 0.64353 0.97772 0.0
C50 C 0.12394 0.59409 0.97612 0.0
C51 C 0.15159 0.61096 0.96345 0.0
C52 C 0.02457 0.62684 0.06397 0.0
C53 C 0.96951 0.74108 0.11021 0.0
C54 C 0.96157 0.67489 0.111 0.0
C55 C 0.95845 0.69221 0.15262 0.0
C56 C 0.96247 0.72553 0.15212 0.0
N57 N 0.9685 0.69031 0.07001 0.0
C58 C 0.97246 0.72297 0.06927 0.0
Co59 Co 0.35803 0.9721 0.27728 0.0
Co60 Co 0.35843 0.05158 0.2473 0.0
O61 O 0.33493 0.01194 0.26245 0.0
C62 C 0.30759 0.95107 0.20963 0.0
O63 O 0.31494 0.97615 0.18383 0.0
C64 C 0.30862 0.0726 0.31505 0.0
O65 O 0.31483 0.04671 0.33971 0.0
O66 O 0.38152 0.04921 0.30819 0.0
O67 O 0.39426 0.99678 0.30782 0.0
H68 H 0.45738 0.12049 0.23164 0.0
H69 H 0.29002 0.97812 0.30673 0.0
O70 O 0.32254 0.94601 0.2479 0.0
H71 H 0.35155 0.96105 0.45247 0.0
H72 H 0.36725 0.85713 0.3314 0.0
H73 H 0.42623 0.95163 0.27174 0.0
H74 H 0.3791 0.96235 0.37634 0.0
H75 H 0.33846 0.90731 0.31239 0.0
O76 O 0.32386 0.07809 0.27732 0.0
H77 H 0.42703 0.07133 0.25164 0.0
H78 H 0.33943 0.11659 0.2126 0.0
H79 H 0.45601 0.90208 0.29093 0.0
H80 H 0.26141 0.97653 0.38215 0.0
H81 H 0.4265 0.85439 0.32107 0.0
H82 H 0.29225 0.96807 0.45572 0.0
O83 O 0.38042 0.97424 0.21603 0.0
H84 H 0.26036 0.04767 0.14408 0.0
H85 H 0.37826 0.06127 0.1479 0.0
H86 H 0.34968 0.06271 0.07224 0.0
H87 H 0.29027 0.05598 0.06999 0.0
H88 H 0.28999 0.04594 0.21901 0.0
H89 H 0.3688 0.16641 0.19285 0.0
H90 H 0.42824 0.16847 0.20192 0.0
O91 O 0.39384 0.02657 0.21623 0.0
C92 C 0.39781 0.02544 0.3233 0.0
C93 C 0.43149 0.11987 0.22742 0.0
C94 C 0.38177 0.14565 0.2057 0.0
N95 N 0.38152 0.091 0.23296 0.0
C96 C 0.41418 0.09207 0.23859 0.0
C97 C 0.36526 0.11741 0.21712 0.0
C98 C 0.41512 0.14678 0.21078 0.0
C99 C 0.30354 0.97408 0.33855 0.0
N100 N 0.33616 0.9703 0.33708 0.0
C101 C 0.28724 0.97335 0.38117 0.0
C102 C 0.30457 0.96867 0.42245 0.0
C103 C 0.33783 0.96476 0.42066 0.0
C104 C 0.35332 0.96565 0.37743 0.0
C105 C 0.38039 0.87777 0.31835 0.0
C106 C 0.41322 0.93102 0.28498 0.0
C107 C 0.3642 0.90621 0.30735 0.0
N108 N 0.38067 0.93245 0.29124 0.0
C109 C 0.43021 0.90301 0.29569 0.0
C110 C 0.41363 0.87625 0.31257 0.0
C111 C 0.39686 0.99789 0.20077 0.0
C112 C 0.28623 0.05071 0.14462 0.0
C113 C 0.35243 0.05812 0.14725 0.0
C114 C 0.33636 0.05908 0.10428 0.0
C115 C 0.30303 0.05533 0.10305 0.0
N116 N 0.33578 0.05358 0.18788 0.0
C117 C 0.30311 0.0499 0.18695 0.0
Co118 Co 0.96676 0.35598 0.48617 0.0
Co119 Co 0.04812 0.35327 0.51125 0.0
O120 O 1.00675 0.33218 0.4977 0.0
C121 C 0.94691 0.30999 0.561 0.0
O122 O 0.97108 0.32008 0.58693 0.0
C123 C 0.06333 0.30002 0.4427 0.0
O124 O 0.03296 0.29737 0.43089 0.0
O125 O 0.0437 0.38102 0.45468 0.0
O126 O 0.99049 0.38986 0.45024 0.0
H127 H 0.12159 0.44862 0.53118 0.0
H128 H 0.96766 0.28639 0.46221 0.0
O129 O 0.94186 0.32227 0.52086 0.0
H130 H 0.94452 0.34234 0.31386 0.0
H131 H 0.84895 0.36625 0.44701 0.0
H132 H 0.94839 0.42483 0.48875 0.0
H133 H 0.95224 0.37306 0.38681 0.0
H134 H 0.89962 0.33687 0.46059 0.0
O135 O 0.07241 0.32073 0.47294 0.0
H136 H 0.07003 0.42119 0.51486 0.0
H137 H 0.11414 0.33015 0.53556 0.0
H138 H 0.89831 0.45518 0.47508 0.0
H139 H 0.95933 0.25467 0.39026 0.0
H140 H 0.84812 0.42584 0.45405 0.0
H141 H 0.94789 0.28266 0.31529 0.0
O142 O 0.97259 0.38124 0.54504 0.0
H143 H 0.04316 0.24867 0.59935 0.0
H144 H 0.06578 0.36496 0.61121 0.0
H145 H 0.06998 0.33105 0.68166 0.0
H146 H 0.05874 0.27241 0.67597 0.0
H147 H 0.03892 0.28353 0.52995 0.0
H148 H 0.16624 0.35657 0.55154 0.0
H149 H 0.17017 0.41624 0.54964 0.0
O150 O 0.02619 0.38652 0.55049 0.0
C151 C 0.01937 0.3956 0.43753 0.0
C152 C 0.12017 0.42261 0.53225 0.0
C153 C 0.14523 0.37095 0.54362 0.0
N154 N 0.089 0.37413 0.52458 0.0
C155 C 0.09101 0.40695 0.52318 0.0
C156 C 0.11567 0.35612 0.53441 0.0
C157 C 0.14742 0.40443 0.54256 0.0
C158 C 0.96235 0.29877 0.42986 0.0
N159 N 0.96071 0.33161 0.42875 0.0
C160 C 0.95782 0.28066 0.38916 0.0
C161 C 0.95146 0.29638 0.3471 0.0
C162 C 0.94964 0.32987 0.34626 0.0
C163 C 0.9543 0.34718 0.38765 0.0
C164 C 0.87068 0.3793 0.45609 0.0
C165 C 0.92669 0.41191 0.47935 0.0
C166 C 0.89943 0.36279 0.46392 0.0
N167 N 0.92699 0.37915 0.47514 0.0
C168 C 0.89839 0.42922 0.47178 0.0
C169 C 0.87023 0.41274 0.46002 0.0
C170 C 0.99775 0.39359 0.56352 0.0
C171 C 0.04827 0.27416 0.60224 0.0
C172 C 0.06075 0.33951 0.60844 0.0
C173 C 0.06324 0.3204 0.64845 0.0
C174 C 0.05695 0.2875 0.64523 0.0
N175 N 0.05239 0.32624 0.56632 0.0
C176 C 0.04606 0.29402 0.56297 0.0
Co177 Co 0.66766 0.05101 0.77437 0.0
Co178 Co 0.66494 0.97053 0.7534 0.0
O179 O 0.68951 0.01013 0.76348 0.0
C180 C 0.71567 0.07054 0.70187 0.0
O181 O 0.70361 0.04901 0.67299 0.0
C182 C 0.71557 0.95123 0.82196 0.0
O183 O 0.70894 0.97706 0.84655 0.0
O184 O 0.64321 0.97681 0.81458 0.0
O185 O 0.63106 0.02916 0.80791 0.0
H186 H 0.56509 0.90205 0.75432 0.0
H187 H 0.73569 0.04362 0.80399 0.0
O188 O 0.70392 0.07407 0.74261 0.0
H189 H 0.67672 0.07186 0.94756 0.0
H190 H 0.66324 0.16943 0.81163 0.0
H191 H 0.6002 0.07349 0.76635 0.0
H192 H 0.64822 0.06736 0.87201 0.0
H193 H 0.68977 0.11687 0.80162 0.0
O194 O 0.69996 0.94517 0.78454 0.0
H195 H 0.59636 0.95218 0.7639 0.0
H196 H 0.68192 0.90359 0.72478 0.0
H197 H 0.57265 0.12552 0.77644 0.0
H198 H 0.7652 0.04825 0.87874 0.0
H199 H 0.60423 0.17397 0.7992 0.0
H200 H 0.73566 0.06236 0.95124 0.0
O201 O 0.64429 0.04609 0.71382 0.0
H202 H 0.76055 0.9687 0.64653 0.0
H203 H 0.64285 0.95501 0.65629 0.0
H204 H 0.66973 0.94919 0.58003 0.0
H205 H 0.72902 0.95595 0.57483 0.0
H206 H 0.73265 0.97466 0.72202 0.0
H207 H 0.6516 0.85288 0.71496 0.0
H208 H 0.59273 0.85192 0.72965 0.0
O209 O 0.62929 0.99444 0.72072 0.0
C210 C 0.62733 1.00159 0.82699 0.0
C211 C 0.59071 0.90218 0.74766 0.0
C212 C 0.63927 0.87457 0.72564 0.0
N213 N 0.64089 0.93087 0.74461 0.0
C214 C 0.60854 0.93052 0.75293 0.0
C215 C 0.65633 0.90334 0.73134 0.0
C216 C 0.60624 0.87406 0.73387 0.0
C217 C 0.72272 0.05007 0.83531 0.0
N218 N 0.69029 0.05529 0.83359 0.0
C219 C 0.73954 0.05253 0.87757 0.0
C220 C 0.72294 0.0604 0.91824 0.0
C221 C 0.68986 0.0657 0.91621 0.0
C222 C 0.67384 0.06301 0.87334 0.0
C223 C 0.6492 0.14847 0.80185 0.0
C224 C 0.61406 0.0944 0.77663 0.0
C225 C 0.66409 0.11865 0.79604 0.0
N226 N 0.6465 0.09207 0.78377 0.0
C227 C 0.59835 0.12382 0.78215 0.0
C228 C 0.61609 0.151 0.79487 0.0
C229 C 0.62689 0.02214 0.70165 0.0
C230 C 0.73472 0.96561 0.64836 0.0
C231 C 0.66865 0.95811 0.65431 0.0
C232 C 0.68374 0.95471 0.61103 0.0
C233 C 0.71701 0.95849 0.60814 0.0
N234 N 0.6862 0.965 0.69363 0.0
C235 C 0.7188 0.96885 0.69104 0.0
H236 H 0.08037 0.60878 0.10938 0.0
H237 H 0.08566 0.57145 0.17542 0.0
H238 H 0.98322 0.55476 0.17275 0.0
H239 H 0.97764 0.59164 0.10722 0.0
H240 H 1.00564 0.56662 0.2614 0.0
H241 H 0.03495 0.50014 0.1282 0.0
H242 H 0.06769 0.48693 0.05907 0.0
H243 H 0.15292 0.48533 0.14449 0.0
H244 H 0.1207 0.49899 0.21404 0.0
H245 H 0.97336 0.4276 0.38737 0.0
H246 H 0.98075 0.46778 0.32687 0.0
H247 H 0.08371 0.46197 0.34426 0.0
H248 H 0.07657 0.42033 0.40422 0.0
H249 H 0.06915 0.46581 0.25392 0.0
H250 H 0.04067 0.52647 0.38829 0.0
H251 H 0.00935 0.54041 0.45844 0.0
H252 H 0.92524 0.55515 0.3735 0.0
H253 H 0.95595 0.54089 0.30284 0.0
C254 C 0.05898 0.59709 0.12275 0.0
C255 C 0.02856 0.60344 0.10295 0.0
C256 C 0.06207 0.57572 0.16048 0.0
C257 C 0.03482 0.5603 0.17906 0.0
C258 C 1.00455 0.5665 0.15921 0.0
C259 C 1.00146 0.58763 0.12154 0.0
C260 C 0.03731 0.53778 0.21935 0.0
C261 C 0.01938 0.54449 0.25968 0.0
C262 C 0.05623 0.50952 0.21788 0.0
C263 C 0.07548 0.50093 0.17619 0.0
C264 C 0.0607 0.4972 0.13217 0.0
C265 C 0.07916 0.4896 0.09292 0.0
C266 C 0.11238 0.48539 0.09736 0.0
C267 C 0.12719 0.48866 0.14109 0.0
C268 C 0.10885 0.49631 0.18043 0.0
C269 C 0.99768 0.43458 0.37843 0.0
C270 C 0.02438 0.42051 0.40086 0.0
C271 C 1.00185 0.4579 0.34389 0.0
C272 C 0.03277 0.46848 0.33149 0.0
C273 C 0.05959 0.45433 0.35334 0.0
C274 C 0.05545 0.43058 0.38772 0.0
C275 C 0.0366 0.49414 0.29548 0.0
C276 C 0.05576 0.48813 0.25604 0.0
C277 C 0.01909 0.52332 0.29794 0.0
C278 C 1.0006 0.53243 0.34026 0.0
C279 C 0.01545 0.53253 0.38458 0.0
C280 C 0.99781 0.5405 0.42444 0.0
C281 C 0.96531 0.5486 0.42045 0.0
C282 C 0.95042 0.54887 0.37654 0.0
C283 C 0.96795 0.5409 0.33655 0.0
H284 H 0.95168 0.55472 0.45138 0.0
H285 H 0.12663 0.47952 0.06693 0.0
H286 H 0.45699 0.99843 0.32885 0.0
H287 H 0.49603 1.00314 0.39261 0.0
H288 H 0.43207 0.06745 0.46568 0.0
H289 H 0.39384 0.06438 0.4001 0.0
H290 H 0.48981 0.08536 0.48369 0.0
H291 H 0.43608 0.98447 0.48945 0.0
H292 H 0.41554 0.93338 0.45688 0.0
H293 H 0.51225 0.90179 0.43189 0.0
H294 H 0.53337 0.95301 0.46345 0.0
H295 H 0.57027 0.98969 0.69253 0.0
H296 H 0.53008 0.9947 0.63059 0.0
H297 H 0.5885 0.06717 0.56339 0.0
H298 H 0.62791 0.06349 0.62708 0.0
H299 H 0.52971 0.98148 0.54633 0.0
H300 H 0.54474 0.11661 0.49552 0.0
H301 H 0.55782 0.16829 0.53383 0.0
H302 H 0.52509 0.13101 0.6654 0.0
H303 H 0.51133 0.0793 0.62777 0.0
C304 C 0.45151 0.01391 0.35827 0.0
C305 C 0.42236 0.03083 0.35989 0.0
C306 C 0.47373 0.01647 0.39484 0.0
C307 C 0.46667 0.03489 0.43477 0.0
C308 C 0.43808 0.05294 0.43547 0.0
C309 C 0.41621 0.05114 0.3981 0.0
C310 C 0.48825 0.03376 0.47656 0.0
C311 C 0.49854 0.06266 0.49742 0.0
C312 C 0.49882 1.00413 0.49572 0.0
C313 C 0.48631 0.9727 0.47853 0.0
C314 C 0.45298 0.96666 0.47693 0.0
C315 C 0.44122 0.9377 0.45856 0.0
C316 C 0.46258 0.91438 0.44224 0.0
C317 C 0.49574 0.9199 0.4445 0.0
C318 C 0.50762 0.94889 0.46265 0.0
C319 C 0.57437 1.00696 0.66479 0.0
C320 C 0.60216 0.02633 0.66477 0.0
C321 C 0.55141 0.00972 0.62921 0.0
C322 C 0.55591 0.03151 0.59219 0.0
C323 C 0.58387 0.05075 0.59199 0.0
C324 C 0.60652 0.04855 0.6283 0.0
C325 C 0.53183 0.03317 0.55329 0.0
C326 C 0.52101 1.00426 0.53288 0.0
C327 C 0.51961 0.06275 0.53609 0.0
C328 C 0.52732 0.09397 0.55887 0.0
C329 C 0.54019 0.11949 0.53258 0.0
C330 C 0.54774 0.14878 0.55418 0.0
C331 C 0.54239 0.15289 0.60204 0.0
C332 C 0.52932 0.12776 0.62837 0.0
C333 C 0.52167 0.09845 0.60692 0.0
H334 H 0.5483 0.17557 0.61871 0.0
H335 H 0.45343 0.89202 0.42789 0.0
H336 H 0.94656 0.60884 0.8916 0.0
H337 H 0.94072 0.5707 0.8266 0.0
H338 H 0.04268 0.55193 0.83126 0.0
H339 H 0.04882 0.58987 0.8956 0.0
H340 H 0.02232 0.56163 0.7427 0.0
H341 H 0.98768 0.49884 0.87625 0.0
H342 H 0.95371 0.48793 0.945 0.0
H343 H 0.86927 0.48885 0.85792 0.0
H344 H 0.90274 0.50023 0.78872 0.0
H345 H 0.04551 0.42013 0.61726 0.0
H346 H 0.04078 0.45997 0.67896 0.0
H347 H 0.93796 0.46285 0.65842 0.0
H348 H 0.94234 0.42176 0.59701 0.0
H349 H 0.95232 0.4648 0.75012 0.0
H350 H 0.98642 0.52297 0.61565 0.0
H351 H 0.01965 0.534 0.54625 0.0
H352 H 0.10357 0.54325 0.63338 0.0
H353 H 0.07092 0.5318 0.70331 0.0
C354 C 0.96774 0.59654 0.87889 0.0
C355 C 0.99818 0.60262 0.89893 0.0
C356 C 0.96433 0.57466 0.84176 0.0
C357 C 0.99126 0.55833 0.82407 0.0
C358 C 0.02157 0.5643 0.84411 0.0
C359 C 0.02499 0.58604 0.88112 0.0
C360 C 0.98832 0.53517 0.78443 0.0
C361 C 1.00719 0.54034 0.7445 0.0
C362 C 0.96772 0.50796 0.78595 0.0
C363 C 0.94767 0.50073 0.82742 0.0
C364 C 0.96185 0.49694 0.87183 0.0
C365 C 0.94269 0.49064 0.91086 0.0
C366 C 0.90934 0.48779 0.90586 0.0
C367 C 0.8951 0.49112 0.86176 0.0
C368 C 0.91415 0.49747 0.82262 0.0
C369 C 0.02177 0.42894 0.6258 0.0
C370 C 0.9943 0.41762 0.60186 0.0
C371 C 0.01914 0.45201 0.66107 0.0
C372 C 0.98909 0.46497 0.67286 0.0
C373 C 0.96145 0.45334 0.64983 0.0
C374 C 0.96401 0.42989 0.61463 0.0
C375 C 0.98702 0.49083 0.70894 0.0
C376 C 0.96718 0.48627 0.74807 0.0
C377 C 1.00656 0.51881 0.70661 0.0
C378 C 0.02622 0.52633 0.66472 0.0
C379 C 0.01199 0.5272 0.62001 0.0
C380 C 0.03072 0.53354 0.58056 0.0
C381 C 0.06371 0.53928 0.58538 0.0
C382 C 0.07801 0.5388 0.6297 0.0
C383 C 0.05939 0.53243 0.66927 0.0
H384 H 0.07818 0.54414 0.55478 0.0
H385 H 0.89455 0.48293 0.93612 0.0
H386 H 0.45677 0.02342 0.1967 0.0
H387 H 0.49546 0.01905 0.13298 0.0
H388 H 0.42954 0.9575 0.05712 0.0
H389 H 0.39157 0.96023 0.12265 0.0
H390 H 0.48692 0.93884 0.03862 0.0
H391 H 0.43547 0.04034 0.03613 0.0
H392 H 0.41573 0.09104 0.07033 0.0
H393 H 0.51291 0.12115 0.09788 0.0
H394 H 0.53323 0.07029 0.06472 0.0
H395 H 0.57232 0.03641 0.83617 0.0
H396 H 0.53137 0.03173 0.89671 0.0
H397 H 0.58646 0.95648 0.9633 0.0
H398 H 0.62648 0.9598 0.90092 0.0
H399 H 0.52967 0.04317 0.98128 0.0
H400 H 0.54072 0.90664 0.02685 0.0
H401 H 0.55291 0.85557 0.98661 0.0
H402 H 0.52284 0.89642 0.85567 0.0
H403 H 0.50995 0.94753 0.89522 0.0
C404 C 0.45079 1.00859 0.16668 0.0
C405 C 0.42117 0.99237 0.16425 0.0
C406 C 0.47281 1.00623 0.13014 0.0
C407 C 0.4651 0.98874 0.08946 0.0
C408 C 0.43604 0.97131 0.08793 0.0
C409 C 0.41433 0.97289 0.12527 0.0
C410 C 0.48659 0.99029 0.04787 0.0
C411 C 0.49626 0.96163 0.02603 0.0
C412 C 0.49787 0.02009 0.0301 0.0
C413 C 0.48587 0.05138 0.04821 0.0
C414 C 0.45264 0.05774 0.04956 0.0
C415 C 0.44133 0.08649 0.06885 0.0
C416 C 0.46305 0.10928 0.08635 0.0
C417 C 0.49612 0.10345 0.08435 0.0
C418 C 0.50755 0.07467 0.06528 0.0
C419 C 0.57555 0.01867 0.86353 0.0
C420 C 0.60251 0.99833 0.86368 0.0
C421 C 0.55214 0.01607 0.8983 0.0
C422 C 0.55541 0.99349 0.93461 0.0
C423 C 0.58272 0.97349 0.93515 0.0
C424 C 0.60574 0.97551 0.89962 0.0
C425 C 0.53072 0.99159 0.97238 0.0
C426 C 0.52033 0.02029 0.99355 0.0
C427 C 0.51759 0.96192 0.98792 0.0
C428 C 0.52468 0.93103 0.96398 0.0
C429 C 0.53654 0.90466 0.98952 0.0
C430 C 0.54359 0.87572 0.96682 0.0
C431 C 0.53874 0.87279 0.9186 0.0
C432 C 0.52667 0.89875 0.893 0.0
C433 C 0.5195 0.92772 0.91554 0.0
H434 H 0.54428 0.85038 0.90109 0.0
H435 H 0.45425 0.13147 0.10142 0.0
H436 H 0.29541 0.89098 0.24395 0.0
H437 H 0.25406 0.85291 0.21877 0.0
H438 H 0.21934 0.92178 0.11765 0.0
H439 H 0.2616 0.95963 0.1416 0.0
H440 H 0.19262 0.85154 0.22055 0.0
H441 H 0.18722 0.88369 0.0237 0.0
H442 H 0.22265 0.90518 0.96201 0.0
H443 H 0.30556 0.86987 0.03574 0.0
H444 H 0.2706 0.84783 0.09751 0.0
H445 H 0.06014 0.76595 0.11967 0.0
H446 H 0.09788 0.80796 0.14516 0.0
H447 H 0.17357 0.76247 0.06628 0.0
H448 H 0.13576 0.7215 0.03925 0.0
H449 H 0.17857 0.8224 0.05345 0.0
H450 H 0.16575 0.75722 0.1908 0.0
H451 H 0.13586 0.72981 0.25367 0.0
H452 H 0.09924 0.82067 0.3011 0.0
H453 H 0.12862 0.84858 0.23812 0.0
C454 C 0.27903 0.89806 0.21627 0.0
C455 C 0.28199 0.92829 0.19454 0.0
C456 C 0.25525 0.87626 0.20201 0.0
C457 C 0.23365 0.88419 0.16593 0.0
C458 C 0.23607 0.91472 0.14489 0.0
C459 C 0.26021 0.93641 0.1587 0.0
C460 C 0.20898 0.86026 0.15024 0.0
C461 C 0.18951 0.84526 0.18396 0.0
C462 C 0.20509 0.85155 0.10262 0.0
C463 C 0.2263 0.86447 0.06547 0.0
C464 C 0.213 0.88045 0.02666 0.0
C465 C 0.233 0.89273 0.99169 0.0
C466 C 0.26634 0.889 0.99505 0.0
C467 C 0.27974 0.87286 0.03328 0.0
C468 C 0.25985 0.8605 0.0683 0.0
C469 C 0.08487 0.7649 0.10797 0.0
C470 C 0.09495 0.74037 0.0775 0.0
C471 C 0.10649 0.78889 0.12266 0.0
C472 C 0.13882 0.78835 0.1081 0.0
C473 C 0.14882 0.76368 0.07789 0.0
C474 C 0.12715 0.74012 0.06258 0.0
C475 C 0.16237 0.81341 0.1238 0.0
C476 C 0.18152 0.82878 0.09003 0.0
C477 C 0.16673 0.82163 0.17153 0.0
C478 C 0.1491 0.80493 0.20946 0.0
C479 C 0.15114 0.77132 0.21445 0.0
C480 C 0.13432 0.7557 0.25013 0.0
C481 C 0.11558 0.77348 0.28128 0.0
C482 C 0.11371 0.80692 0.2769 0.0
C483 C 0.13046 0.82266 0.24124 0.0
H484 H 0.10258 0.76134 0.30888 0.0
H485 H 0.28177 0.89854 0.96796 0.0
H486 H 0.25595 0.0604 0.36955 0.0
H487 H 0.21313 0.09828 0.39118 0.0
H488 H 0.26232 0.17428 0.31765 0.0
H489 H 0.30454 0.13648 0.29458 0.0
H490 H 0.23593 0.18336 0.4234 0.0
H491 H 0.21022 0.15504 0.26022 0.0
H492 H 0.1996 0.11492 0.19836 0.0
H493 H 0.1215 0.07589 0.27844 0.0
H494 H 0.13208 0.11546 0.34118 0.0
H495 H 0.12651 0.31098 0.4242 0.0
H496 H 0.16706 0.27179 0.40071 0.0
H497 H 0.09498 0.19669 0.4017 0.0
H498 H 0.0539 0.23651 0.42184 0.0
H499 H 0.13253 0.1839 0.33586 0.0
H500 H 0.15209 0.2111 0.4953 0.0
H501 H 0.16099 0.24718 0.56271 0.0
H502 H 0.24804 0.28244 0.50036 0.0
H503 H 0.23939 0.24694 0.43219 0.0
C504 C 0.25767 0.08522 0.35819 0.0
C505 C 0.28352 0.09549 0.33029 0.0
C506 C 0.23322 0.10676 0.37049 0.0
C507 C 0.23465 0.13898 0.35592 0.0
C508 C 0.26085 0.14948 0.32917 0.0
C509 C 0.28485 0.12784 0.31593 0.0
C510 C 0.20852 0.16173 0.36768 0.0
C511 C 0.21339 0.1838 0.40411 0.0
C512 C 0.1788 0.16134 0.34355 0.0
C513 C 0.1722 0.13791 0.30559 0.0
C514 C 0.19101 0.13768 0.26484 0.0
C515 C 0.18495 0.11509 0.22958 0.0
C516 C 0.15996 0.0928 0.23453 0.0
C517 C 0.1409 0.09313 0.27469 0.0
C518 C 0.14691 0.11563 0.3101 0.0
C519 C 0.1193 0.28615 0.4188 0.0
C520 C 0.08714 0.27672 0.42495 0.0
C521 C 0.14256 0.26365 0.40585 0.0
C522 C 0.13446 0.23091 0.40082 0.0
C523 C 0.10203 0.22167 0.40556 0.0
C524 C 0.07853 0.24443 0.41709 0.0
C525 C 0.15986 0.20638 0.39144 0.0
C526 C 0.1549 0.1837 0.35554 0.0
C527 C 0.18925 0.20567 0.41701 0.0
C528 C 0.19495 0.22653 0.45845 0.0
C529 C 0.17306 0.22665 0.49587 0.0
C530 C 0.17805 0.247 0.53421 0.0
C531 C 0.20503 0.26714 0.53576 0.0
C532 C 0.22714 0.26685 0.49908 0.0
C533 C 0.22222 0.2466 0.46059 0.0
H534 H 0.20882 0.28292 0.56543 0.0
H535 H 0.1553 0.07533 0.2072 0.0
H536 H 0.75569 0.10517 0.75842 0.0
H537 H 0.79762 0.14309 0.73563 0.0
H538 H 0.7779 0.12325 0.59011 0.0
H539 H 0.73647 0.08415 0.61289 0.0
H540 H 0.84029 0.12997 0.60248 0.0
H541 H 0.74809 0.19126 0.64694 0.0
H542 H 0.70368 0.20773 0.69858 0.0
H543 H 0.77178 0.23749 0.80351 0.0
H544 H 0.81661 0.2207 0.75277 0.0
H545 H 0.90446 0.2749 0.50876 0.0
H546 H 0.86832 0.2322 0.5348 0.0
H547 H 0.90376 0.24292 0.67593 0.0
H548 H 0.94052 0.28574 0.64999 0.0
H549 H 0.83494 0.24069 0.66736 0.0
H550 H 0.9274 0.18061 0.61817 0.0
H551 H 0.9703 0.165 0.56342 0.0
H552 H 0.89934 0.13476 0.46287 0.0
H553 H 0.85597 0.15066 0.51677 0.0
C554 C 0.76035 0.10871 0.72151 0.0
C555 C 0.74249 0.09188 0.68741 0.0
C556 C 0.78429 0.13054 0.70852 0.0
C557 C 0.79047 0.13671 0.66111 0.0
C558 C 0.77347 0.11909 0.62693 0.0
C559 C 0.74976 0.09678 0.63996 0.0
C560 C 0.81403 0.16211 0.64743 0.0
C561 C 0.83885 0.15425 0.61628 0.0
C562 C 0.81259 0.19377 0.66595 0.0
C563 C 0.7857 0.20444 0.69622 0.0
C564 C 0.75359 0.20114 0.68114 0.0
C565 C 0.72834 0.21054 0.71024 0.0
C566 C 0.7349 0.22356 0.75435 0.0
C567 C 0.76674 0.22734 0.76936 0.0
C568 C 0.79208 0.21791 0.74044 0.0
C569 C 0.90469 0.26823 0.54539 0.0
C570 C 0.92539 0.28379 0.57736 0.0
C571 C 0.88406 0.2437 0.56014 0.0
C572 C 0.88347 0.23427 0.60722 0.0
C573 C 0.9039 0.24984 0.6394 0.0
C574 C 0.92494 0.2742 0.62452 0.0
C575 C 0.86107 0.20846 0.62258 0.0
C576 C 0.83641 0.21632 0.65386 0.0
C577 C 0.8624 0.17698 0.60369 0.0
C578 C 0.88843 0.1671 0.57137 0.0
C579 C 0.92093 0.17087 0.58424 0.0
C580 C 0.94534 0.16192 0.55338 0.0
C581 C 0.93755 0.14896 0.50965 0.0
C582 C 0.90533 0.14483 0.49674 0.0
C583 C 0.88083 0.15378 0.52746 0.0
H584 H 0.95648 0.14206 0.4858 0.0
H585 H 0.71532 0.23079 0.77685 0.0
H586 H 0.7616 0.96055 0.89009 0.0
H587 H 0.80644 0.92477 0.91022 0.0
H588 H 0.77334 0.85631 0.80701 0.0
H589 H 0.72927 0.89203 0.78604 0.0
H590 H 0.81065 0.86657 0.94458 0.0
H591 H 0.83437 0.81807 0.75626 0.0
H592 H 0.831 0.83773 0.67499 0.0
H593 H 0.84144 0.93515 0.72316 0.0
H594 H 0.8454 0.91607 0.80461 0.0
H595 H 0.89127 0.72005 0.95972 0.0
H596 H 0.85443 0.76325 0.93881 0.0
H597 H 0.93143 0.81333 0.86854 0.0
H598 H 0.96832 0.76918 0.88789 0.0
H599 H 0.87933 0.82017 0.82006 0.0
H600 H 0.90492 0.83549 0.98037 0.0
H601 H 0.91238 0.81984 0.06288 0.0
H602 H 0.81166 0.79794 0.07367 0.0
H603 H 0.80366 0.81291 0.99097 0.0
C604 C 0.7639 0.93785 0.87175 0.0
C605 C 0.74195 0.92928 0.83623 0.0
C606 C 0.78953 0.91741 0.8833 0.0
C607 C 0.79368 0.88806 0.85956 0.0
C608 C 0.77122 0.87915 0.82505 0.0
C609 C 0.74585 0.89959 0.81327 0.0
C610 C 0.82115 0.86639 0.87088 0.0
C611 C 0.82575 0.85655 0.91738 0.0
C612 C 0.8416 0.85398 0.83567 0.0
C613 C 0.83993 0.86561 0.78661 0.0
C614 C 0.83616 0.84367 0.7495 0.0
C615 C 0.8341 0.85472 0.70339 0.0
C616 C 0.83592 0.88767 0.69393 0.0
C617 C 0.83994 0.90964 0.73054 0.0
C618 C 0.84206 0.89872 0.77668 0.0
C619 C 0.90038 0.74017 0.9396 0.0
C620 C 0.93278 0.74133 0.92574 0.0
C621 C 0.8793 0.76502 0.92791 0.0
C622 C 0.89026 0.79208 0.90316 0.0
C623 C 0.92241 0.79285 0.88795 0.0
C624 C 0.94347 0.76761 0.89898 0.0
C625 C 0.86801 0.8194 0.8935 0.0
C626 C 0.86443 0.83038 0.84734 0.0
C627 C 0.84918 0.8336 0.92927 0.0
C628 C 0.85373 0.82516 0.97934 0.0
C629 C 0.88438 0.82719 1.00027 0.0
C630 C 0.88871 0.81843 0.04708 0.0
C631 C 0.86252 0.80787 0.07348 0.0
C632 C 0.83192 0.80612 0.05317 0.0
C633 C 0.82747 0.81478 0.00633 0.0
H634 H 0.86592 0.80106 0.1097 0.0
H635 H 0.83426 0.89618 0.65823 0.0
loop_
_geom_bond_atom_site_label_1
_geom_bond_atom_site_label_2
_geom_bond_distance
_geom_bond_site_symmetry_2
_ccdc_geom_bond_type
Co0 O2 2.143 1_556 S
Co0 O8 2.074 . S
Co0 O11 2.092 1_556 S
Co0 O24 2.097 1_556 S
Co0 N41 2.151 . S
Co0 N49 2.214 1_556 S
Co1 O2 2.160 1_655 S
Co1 O7 2.058 1_554 S
Co1 O17 2.057 1_554 S
Co1 O32 2.037 . S
Co1 N36 2.145 . S
Co1 N57 2.257 . S
O2 Co0 2.143 1_554 S
O2 Co1 2.160 1_455 S
C3 O4 1.278 . S
C3 O11 1.224 . S
O4 C3 1.278 . S
C5 O6 1.245 . S
C5 O17 1.232 . S
O6 C5 1.245 . S
O7 Co1 2.058 1_556 S
O7 C33 1.269 . S
O8 Co0 2.074 . S
O8 C33 1.257 1_455 S
H9 C34 0.930 . S
H10 C40 0.930 . S
O11 Co0 2.092 1_554 S
O11 C3 1.224 . S
H12 C44 0.929 . S
H13 C46 0.930 . S
H14 C47 0.930 . S
H15 C45 0.929 . S
H16 C48 0.928 . S
O17 Co1 2.057 1_556 S
O17 C5 1.232 . S
H18 C37 0.929 . S
H19 C38 0.928 1_556 S
H20 C50 0.931 . S
H21 C42 0.929 . S
H22 C51 0.930 . S
H23 C43 0.931 . S
O24 Co0 2.097 1_554 S
O24 C52 1.214 . S
H25 C53 0.929 . S
H26 C54 0.929 . S
H27 C55 0.930 . S
H28 C56 0.929 . S
H29 C58 0.930 . S
H30 C35 0.930 . S
H31 C39 0.930 . S
O32 Co1 2.037 . S
O32 C52 1.234 1_655 S
C33 O7 1.269 . S
C33 O8 1.257 1_655 S
C34 H9 0.930 . S
C34 C37 1.388 . S
C34 C39 1.418 . S
C35 H30 0.930 . S
C35 C38 1.404 . S
C35 C39 1.353 . S
N36 Co1 2.145 . S
N36 C37 1.397 . S
N36 C38 1.334 . S
C37 H18 0.929 . S
C37 C34 1.388 . S
C37 N36 1.397 . S
C38 H19 0.928 1_554 S
C38 C35 1.404 . S
C38 N36 1.334 . S
C39 H31 0.930 . S
C39 C34 1.418 . S
C39 C35 1.353 . S
C40 H10 0.930 . S
C40 N41 1.330 . S
C40 C42 1.446 . S
N41 Co0 2.151 . S
N41 C40 1.330 . S
N41 C45 1.418 . S
C42 H21 0.929 . S
C42 C40 1.446 . S
C42 C43 1.332 . S
C43 H23 0.931 . S
C43 C42 1.332 . S
C43 C44 1.267 . S
C44 H12 0.929 . S
C44 C43 1.267 . S
C44 C45 1.251 . S
C45 H15 0.929 . S
C45 N41 1.418 . S
C45 C44 1.251 . S
C46 H13 0.930 . S
C46 C48 1.406 . S
C46 C51 1.259 1_556 S
C47 H14 0.930 . S
C47 N49 1.325 . S
C47 C50 1.357 . S
C48 H16 0.928 . S
C48 C46 1.406 . S
C48 N49 1.261 1_556 S
N49 Co0 2.214 1_554 S
N49 C47 1.325 . S
N49 C48 1.261 1_554 S
C50 H20 0.931 . S
C50 C47 1.357 . S
C50 C51 1.314 . S
C51 H22 0.930 . S
C51 C46 1.259 1_554 S
C51 C50 1.314 . S
C52 O24 1.214 . S
C52 O32 1.234 1_455 S
C53 H25 0.929 . S
C53 C56 1.391 . S
C53 C58 1.391 . S
C54 H26 0.929 . S
C54 C55 1.390 . S
C54 N57 1.391 . S
C55 H27 0.930 . S
C55 C54 1.390 . S
C55 C56 1.392 . S
C56 H28 0.929 . S
C56 C53 1.391 . S
C56 C55 1.392 . S
N57 Co1 2.257 . S
N57 C54 1.391 . S
N57 C58 1.388 . S
C58 H29 0.930 . S
C58 C53 1.391 . S
C58 N57 1.388 . S
Co59 O61 2.114 1_565 S
Co59 O67 2.074 . S
Co59 O70 2.093 . S
Co59 O83 2.097 . S
Co59 N100 2.151 . S
Co59 N108 2.214 . S
Co60 O61 2.189 . S
Co60 O66 2.058 . S
Co60 O76 2.057 . S
Co60 O91 2.037 . S
Co60 N95 2.145 . S
Co60 N116 2.257 . S
O61 Co59 2.114 1_545 S
O61 Co60 2.189 . S
C62 O63 1.278 . S
C62 O70 1.224 . S
O63 C62 1.278 . S
C64 O65 1.245 . S
C64 O76 1.232 . S
O65 C64 1.245 . S
O66 Co60 2.058 . S
O66 C92 1.269 . S
O67 Co59 2.074 . S
O67 C92 1.257 1_565 S
H68 C93 0.930 . S
H69 C99 0.930 . S
O70 Co59 2.093 . S
O70 C62 1.224 . S
H71 C103 0.929 . S
H72 C105 0.930 . S
H73 C106 0.930 . S
H74 C104 0.929 . S
H75 C107 0.928 . S
O76 Co60 2.057 . S
O76 C64 1.232 . S
H77 C96 0.929 . S
H78 C97 0.929 . S
H79 C109 0.931 . S
H80 C101 0.929 . S
H81 C110 0.930 . S
H82 C102 0.931 . S
O83 Co59 2.097 . S
O83 C111 1.214 . S
H84 C112 0.929 . S
H85 C113 0.929 . S
H86 C114 0.930 . S
H87 C115 0.929 . S
H88 C117 0.930 . S
H89 C94 0.930 . S
H90 C98 0.930 . S
O91 Co60 2.037 . S
O91 C111 1.234 1_545 S
C92 O66 1.269 . S
C92 O67 1.257 1_545 S
C93 H68 0.930 . S
C93 C96 1.388 . S
C93 C98 1.418 . S
C94 H89 0.930 . S
C94 C97 1.404 . S
C94 C98 1.353 . S
N95 Co60 2.145 . S
N95 C96 1.397 . S
N95 C97 1.334 . S
C96 H77 0.929 . S
C96 C93 1.388 . S
C96 N95 1.397 . S
C97 H78 0.929 . S
C97 C94 1.404 . S
C97 N95 1.334 . S
C98 H90 0.930 . S
C98 C93 1.418 . S
C98 C94 1.353 . S
C99 H69 0.930 . S
C99 N100 1.330 . S
C99 C101 1.446 . S
N100 Co59 2.151 . S
N100 C99 1.330 . S
N100 C104 1.418 . S
C101 H80 0.929 . S
C101 C99 1.446 . S
C101 C102 1.332 . S
C102 H82 0.931 . S
C102 C101 1.332 . S
C102 C103 1.267 . S
C103 H71 0.929 . S
C103 C102 1.267 . S
C103 C104 1.251 . S
C104 H74 0.929 . S
C104 N100 1.418 . S
C104 C103 1.251 . S
C105 H72 0.930 . S
C105 C107 1.406 . S
C105 C110 1.261 . S
C106 H73 0.930 . S
C106 N108 1.325 . S
C106 C109 1.357 . S
C107 H75 0.928 . S
C107 C105 1.406 . S
C107 N108 1.261 . S
N108 Co59 2.214 . S
N108 C106 1.325 . S
N108 C107 1.261 . S
C109 H79 0.931 . S
C109 C106 1.357 . S
C109 C110 1.312 . S
C110 H81 0.930 . S
C110 C105 1.261 . S
C110 C109 1.312 . S
C111 O83 1.214 . S
C111 O91 1.234 1_565 S
C112 H84 0.929 . S
C112 C115 1.391 . S
C112 C117 1.391 . S
C113 H85 0.929 . S
C113 C114 1.390 . S
C113 N116 1.391 . S
C114 H86 0.930 . S
C114 C113 1.390 . S
C114 C115 1.392 . S
C115 H87 0.929 . S
C115 C112 1.391 . S
C115 C114 1.392 . S
N116 Co60 2.257 . S
N116 C113 1.391 . S
N116 C117 1.388 . S
C117 H88 0.930 . S
C117 C112 1.391 . S
C117 N116 1.388 . S
Co118 O120 2.113 1_655 S
Co118 O126 2.074 . S
Co118 O129 2.093 . S
Co118 O142 2.097 . S
Co118 N159 2.151 . S
Co118 N167 2.214 . S
Co119 O120 2.190 . S
Co119 O125 2.058 . S
Co119 O135 2.057 . S
Co119 O150 2.037 . S
Co119 N154 2.145 . S
Co119 N175 2.257 . S
O120 Co118 2.113 1_455 S
O120 Co119 2.190 . S
C121 O122 1.278 . S
C121 O129 1.224 . S
O122 C121 1.278 . S
C123 O124 1.245 . S
C123 O135 1.232 . S
O124 C123 1.245 . S
O125 Co119 2.058 . S
O125 C151 1.269 . S
O126 Co118 2.074 . S
O126 C151 1.257 1_655 S
H127 C152 0.930 . S
H128 C158 0.930 . S
O129 Co118 2.093 . S
O129 C121 1.224 . S
H130 C162 0.929 . S
H131 C164 0.930 . S
H132 C165 0.930 . S
H133 C163 0.929 . S
H134 C166 0.928 . S
O135 Co119 2.057 . S
O135 C123 1.232 . S
H136 C155 0.929 . S
H137 C156 0.929 . S
H138 C168 0.931 . S
H139 C160 0.929 . S
H140 C169 0.930 . S
H141 C161 0.931 . S
O142 Co118 2.097 . S
O142 C170 1.214 . S
H143 C171 0.929 . S
H144 C172 0.929 . S
H145 C173 0.930 . S
H146 C174 0.929 . S
H147 C176 0.930 . S
H148 C153 0.930 . S
H149 C157 0.930 . S
O150 Co119 2.037 . S
O150 C170 1.234 1_455 S
C151 O125 1.269 . S
C151 O126 1.257 1_455 S
C152 H127 0.930 . S
C152 C155 1.388 . S
C152 C157 1.418 . S
C153 H148 0.930 . S
C153 C156 1.404 . S
C153 C157 1.353 . S
N154 Co119 2.145 . S
N154 C155 1.397 . S
N154 C156 1.334 . S
C155 H136 0.929 . S
C155 C152 1.388 . S
C155 N154 1.397 . S
C156 H137 0.929 . S
C156 C153 1.404 . S
C156 N154 1.334 . S
C157 H149 0.930 . S
C157 C152 1.418 . S
C157 C153 1.353 . S
C158 H128 0.930 . S
C158 N159 1.330 . S
C158 C160 1.446 . S
N159 Co118 2.151 . S
N159 C158 1.330 . S
N159 C163 1.418 . S
C160 H139 0.929 . S
C160 C158 1.446 . S
C160 C161 1.332 . S
C161 H141 0.931 . S
C161 C160 1.332 . S
C161 C162 1.267 . S
C162 H130 0.929 . S
C162 C161 1.267 . S
C162 C163 1.251 . S
C163 H133 0.929 . S
C163 N159 1.418 . S
C163 C162 1.251 . S
C164 H131 0.930 . S
C164 C166 1.406 . S
C164 C169 1.261 . S
C165 H132 0.930 . S
C165 N167 1.325 . S
C165 C168 1.357 . S
C166 H134 0.928 . S
C166 C164 1.406 . S
C166 N167 1.261 . S
N167 Co118 2.214 . S
N167 C165 1.325 . S
N167 C166 1.261 . S
C168 H138 0.931 . S
C168 C165 1.357 . S
C168 C169 1.312 . S
C169 H140 0.930 . S
C169 C164 1.261 . S
C169 C168 1.312 . S
C170 O142 1.214 . S
C170 O150 1.234 1_655 S
C171 H143 0.929 . S
C171 C174 1.391 . S
C171 C176 1.391 . S
C172 H144 0.929 . S
C172 C173 1.390 . S
C172 N175 1.391 . S
C173 H145 0.930 . S
C173 C172 1.390 . S
C173 C174 1.392 . S
C174 H146 0.929 . S
C174 C171 1.391 . S
C174 C173 1.392 . S
N175 Co119 2.257 . S
N175 C172 1.391 . S
N175 C176 1.388 . S
C176 H147 0.930 . S
C176 C171 1.391 . S
C176 N175 1.388 . S
Co177 O179 2.143 . S
Co177 O185 2.074 . S
Co177 O188 2.093 . S
Co177 O201 2.097 . S
Co177 N218 2.151 . S
Co177 N226 2.214 . S
Co178 O179 2.160 1_565 S
Co178 O184 2.058 . S
Co178 O194 2.057 . S
Co178 O209 2.037 . S
Co178 N213 2.145 . S
Co178 N234 2.257 . S
O179 Co177 2.143 . S
O179 Co178 2.160 1_545 S
C180 O181 1.278 . S
C180 O188 1.224 . S
O181 C180 1.278 . S
C182 O183 1.245 . S
C182 O194 1.232 . S
O183 C182 1.245 . S
O184 Co178 2.058 . S
O184 C210 1.269 . S
O185 Co177 2.074 . S
O185 C210 1.257 1_545 S
H186 C211 0.930 . S
H187 C217 0.930 . S
O188 Co177 2.093 . S
O188 C180 1.224 . S
H189 C221 0.929 . S
H190 C223 0.930 . S
H191 C224 0.930 . S
H192 C222 0.929 . S
H193 C225 0.928 . S
O194 Co178 2.057 . S
O194 C182 1.232 . S
H195 C214 0.929 . S
H196 C215 0.929 . S
H197 C227 0.931 . S
H198 C219 0.929 . S
H199 C228 0.930 . S
H200 C220 0.931 . S
O201 Co177 2.097 . S
O201 C229 1.214 . S
H202 C230 0.929 . S
H203 C231 0.929 . S
H204 C232 0.930 . S
H205 C233 0.929 . S
H206 C235 0.930 . S
H207 C212 0.930 . S
H208 C216 0.930 . S
O209 Co178 2.037 . S
O209 C229 1.234 1_565 S
C210 O184 1.269 . S
C210 O185 1.257 1_565 S
C211 H186 0.930 . S
C211 C214 1.388 . S
C211 C216 1.418 . S
C212 H207 0.930 . S
C212 C215 1.404 . S
C212 C216 1.353 . S
N213 Co178 2.145 . S
N213 C214 1.397 . S
N213 C215 1.334 . S
C214 H195 0.929 . S
C214 C211 1.388 . S
C214 N213 1.397 . S
C215 H196 0.929 . S
C215 C212 1.404 . S
C215 N213 1.334 . S
C216 H208 0.930 . S
C216 C211 1.418 . S
C216 C212 1.353 . S
C217 H187 0.930 . S
C217 N218 1.330 . S
C217 C219 1.446 . S
N218 Co177 2.151 . S
N218 C217 1.330 . S
N218 C222 1.418 . S
C219 H198 0.929 . S
C219 C217 1.446 . S
C219 C220 1.332 . S
C220 H200 0.931 . S
C220 C219 1.332 . S
C220 C221 1.267 . S
C221 H189 0.929 . S
C221 C220 1.267 . S
C221 C222 1.251 . S
C222 H192 0.929 . S
C222 N218 1.418 . S
C222 C221 1.251 . S
C223 H190 0.930 . S
C223 C225 1.406 . S
C223 C228 1.261 . S
C224 H191 0.930 . S
C224 N226 1.325 . S
C224 C227 1.357 . S
C225 H193 0.928 . S
C225 C223 1.406 . S
C225 N226 1.261 . S
N226 Co177 2.214 . S
N226 C224 1.325 . S
N226 C225 1.261 . S
C227 H197 0.931 . S
C227 C224 1.357 . S
C227 C228 1.312 . S
C228 H199 0.930 . S
C228 C223 1.261 . S
C228 C227 1.312 . S
C229 O201 1.214 . S
C229 O209 1.234 1_545 S
C230 H202 0.929 . S
C230 C233 1.391 . S
C230 C235 1.391 . S
C231 H203 0.929 . S
C231 C232 1.390 . S
C231 N234 1.391 . S
C232 H204 0.930 . S
C232 C231 1.390 . S
C232 C233 1.392 . S
C233 H205 0.929 . S
C233 C230 1.391 . S
C233 C232 1.392 . S
N234 Co178 2.257 . S
N234 C231 1.391 . S
N234 C235 1.388 . S
C235 H206 0.930 . S
C235 C230 1.391 . S
C235 N234 1.388 . S
H236 C254 0.951 . S
H237 C256 0.951 . S
H238 C258 0.950 . S
H239 C259 0.950 . S
H240 C261 0.950 . S
H241 C264 0.950 . S
H242 C265 0.950 . S
H243 C267 0.950 . S
H244 C268 0.950 . S
H245 C269 0.951 . S
H246 C271 0.951 . S
H247 C273 0.950 . S
H248 C274 0.950 . S
H249 C276 0.950 . S
H250 C279 0.950 . S
H251 C280 0.950 . S
H252 C282 0.950 . S
H253 C283 0.950 . S
C254 H236 0.951 . S
C254 C255 1.366 . S
C254 C256 1.388 . S
C255 C254 1.366 . S
C255 C259 1.385 1_455 S
C256 H237 0.951 . S
C256 C254 1.388 . S
C256 C257 1.366 . S
C257 C256 1.366 . S
C257 C258 1.414 1_455 S
C257 C260 1.499 . S
C258 H238 0.950 . S
C258 C257 1.414 1_655 S
C258 C259 1.374 . S
C259 H239 0.950 . S
C259 C255 1.385 1_655 S
C259 C258 1.374 . S
C260 C257 1.499 . S
C260 C261 1.373 1_455 S
C260 C262 1.389 . S
C261 H240 0.950 . S
C261 C260 1.373 1_655 S
C261 C277 1.377 . S
C262 C260 1.389 . S
C262 C263 1.524 . S
C262 C276 1.377 . S
C263 C262 1.524 . S
C263 C264 1.397 . S
C263 C268 1.363 . S
C264 H241 0.950 . S
C264 C263 1.397 . S
C264 C265 1.334 . S
C265 H242 0.950 . S
C265 C264 1.334 . S
C265 C266 1.287 . S
C266 C265 1.287 . S
C266 C267 1.524 . S
C266 H285 0.913 . S
C267 H243 0.950 . S
C267 C266 1.524 . S
C267 C268 1.415 . S
C268 H244 0.950 . S
C268 C263 1.363 . S
C268 C267 1.415 . S
C269 H245 0.951 . S
C269 C270 1.366 1_655 S
C269 C271 1.388 . S
C270 C269 1.366 1_455 S
C270 C274 1.385 . S
C271 H246 0.951 . S
C271 C269 1.388 . S
C271 C272 1.366 1_655 S
C272 C271 1.366 1_455 S
C272 C273 1.414 . S
C272 C275 1.499 . S
C273 H247 0.950 . S
C273 C272 1.414 . S
C273 C274 1.374 . S
C274 H248 0.950 . S
C274 C270 1.385 . S
C274 C273 1.374 . S
C275 C272 1.499 . S
C275 C276 1.373 . S
C275 C277 1.389 1_455 S
C276 H249 0.950 . S
C276 C262 1.377 . S
C276 C275 1.373 . S
C277 C261 1.377 . S
C277 C275 1.389 1_655 S
C277 C278 1.524 . S
C278 C277 1.524 . S
C278 C279 1.397 . S
C278 C283 1.363 . S
C279 H250 0.950 . S
C279 C278 1.397 . S
C279 C280 1.334 . S
C280 H251 0.950 . S
C280 C279 1.334 . S
C280 C281 1.287 . S
C281 C280 1.287 . S
C281 C282 1.524 . S
C281 H284 0.999 . S
C282 H252 0.950 . S
C282 C281 1.524 . S
C282 C283 1.415 . S
C283 H253 0.950 . S
C283 C278 1.363 . S
C283 C282 1.415 . S
H284 C281 0.999 . S
H285 C266 0.913 . S
H286 C304 0.951 . S
H287 C306 0.951 . S
H288 C308 0.950 . S
H289 C309 0.950 . S
H290 C311 0.950 . S
H291 C314 0.950 . S
H292 C315 0.950 . S
H293 C317 0.950 . S
H294 C318 0.950 . S
H295 C319 0.951 . S
H296 C321 0.951 . S
H297 C323 0.950 . S
H298 C324 0.950 . S
H299 C326 0.950 . S
H300 C329 0.950 . S
H301 C330 0.950 . S
H302 C332 0.950 . S
H303 C333 0.950 . S
C304 H286 0.951 . S
C304 C305 1.366 . S
C304 C306 1.388 . S
C305 C304 1.366 . S
C305 C309 1.385 . S
C306 H287 0.951 . S
C306 C304 1.388 . S
C306 C307 1.366 . S
C307 C306 1.366 . S
C307 C308 1.414 . S
C307 C310 1.499 . S
C308 H288 0.950 . S
C308 C307 1.414 . S
C308 C309 1.374 . S
C309 H289 0.950 . S
C309 C305 1.385 . S
C309 C308 1.374 . S
C310 C307 1.499 . S
C310 C311 1.373 . S
C310 C312 1.389 1_545 S
C311 H290 0.950 . S
C311 C310 1.373 . S
C311 C327 1.377 . S
C312 C310 1.389 1_565 S
C312 C313 1.524 . S
C312 C326 1.377 . S
C313 C312 1.524 . S
C313 C314 1.397 . S
C313 C318 1.363 . S
C314 H291 0.950 . S
C314 C313 1.397 . S
C314 C315 1.334 . S
C315 H292 0.950 . S
C315 C314 1.334 . S
C315 C316 1.287 . S
C316 C315 1.287 . S
C316 C317 1.524 . S
C316 H335 0.913 . S
C317 H293 0.950 . S
C317 C316 1.524 . S
C317 C318 1.415 . S
C318 H294 0.950 . S
C318 C313 1.363 . S
C318 C317 1.415 . S
C319 H295 0.951 . S
C319 C320 1.366 . S
C319 C321 1.388 . S
C320 C319 1.366 . S
C320 C324 1.385 . S
C321 H296 0.951 . S
C321 C319 1.388 . S
C321 C322 1.366 . S
C322 C321 1.366 . S
C322 C323 1.414 . S
C322 C325 1.499 . S
C323 H297 0.950 . S
C323 C322 1.414 . S
C323 C324 1.374 . S
C324 H298 0.950 . S
C324 C320 1.385 . S
C324 C323 1.374 . S
C325 C322 1.499 . S
C325 C326 1.373 1_545 S
C325 C327 1.389 . S
C326 H299 0.950 . S
C326 C312 1.377 . S
C326 C325 1.373 1_565 S
C327 C311 1.377 . S
C327 C325 1.389 . S
C327 C328 1.524 . S
C328 C327 1.524 . S
C328 C329 1.397 . S
C328 C333 1.363 . S
C329 H300 0.950 . S
C329 C328 1.397 . S
C329 C330 1.334 . S
C330 H301 0.950 . S
C330 C329 1.334 . S
C330 C331 1.287 . S
C331 C330 1.287 . S
C331 C332 1.524 . S
C331 H334 0.999 . S
C332 H302 0.950 . S
C332 C331 1.524 . S
C332 C333 1.415 . S
C333 H303 0.950 . S
C333 C328 1.363 . S
C333 C332 1.415 . S
H334 C331 0.999 . S
H335 C316 0.913 . S
H336 C354 0.951 . S
H337 C356 0.951 . S
H338 C358 0.950 . S
H339 C359 0.950 . S
H340 C361 0.950 . S
H341 C364 0.950 . S
H342 C365 0.950 . S
H343 C367 0.950 . S
H344 C368 0.950 . S
H345 C369 0.951 . S
H346 C371 0.951 . S
H347 C373 0.950 . S
H348 C374 0.950 . S
H349 C376 0.950 . S
H350 C379 0.950 . S
H351 C380 0.950 . S
H352 C382 0.950 . S
H353 C383 0.950 . S
C354 H336 0.951 . S
C354 C355 1.366 . S
C354 C356 1.388 . S
C355 C354 1.366 . S
C355 C359 1.385 1_655 S
C356 H337 0.951 . S
C356 C354 1.388 . S
C356 C357 1.366 . S
C357 C356 1.366 . S
C357 C358 1.414 1_655 S
C357 C360 1.499 . S
C358 H338 0.950 . S
C358 C357 1.414 1_455 S
C358 C359 1.374 . S
C359 H339 0.950 . S
C359 C355 1.385 1_455 S
C359 C358 1.374 . S
C360 C357 1.499 . S
C360 C361 1.373 1_655 S
C360 C362 1.389 . S
C361 H340 0.950 . S
C361 C360 1.373 1_455 S
C361 C377 1.377 . S
C362 C360 1.389 . S
C362 C363 1.524 . S
C362 C376 1.377 . S
C363 C362 1.524 . S
C363 C364 1.397 . S
C363 C368 1.363 . S
C364 H341 0.950 . S
C364 C363 1.397 . S
C364 C365 1.334 . S
C365 H342 0.950 . S
C365 C364 1.334 . S
C365 C366 1.287 . S
C366 C365 1.287 . S
C366 C367 1.524 . S
C366 H385 0.913 . S
C367 H343 0.950 . S
C367 C366 1.524 . S
C367 C368 1.415 . S
C368 H344 0.950 . S
C368 C363 1.363 . S
C368 C367 1.415 . S
C369 H345 0.951 . S
C369 C370 1.366 1_455 S
C369 C371 1.388 . S
C370 C369 1.366 1_655 S
C370 C374 1.385 . S
C371 H346 0.951 . S
C371 C369 1.388 . S
C371 C372 1.362 1_455 S
C372 C371 1.362 1_655 S
C372 C373 1.418 . S
C372 C375 1.499 . S
C373 H347 0.950 . S
C373 C372 1.418 . S
C373 C374 1.374 . S
C374 H348 0.950 . S
C374 C370 1.385 . S
C374 C373 1.374 . S
C375 C372 1.499 . S
C375 C376 1.395 . S
C375 C377 1.369 1_655 S
C376 H349 0.950 . S
C376 C362 1.377 . S
C376 C375 1.395 . S
C377 C361 1.377 . S
C377 C375 1.369 1_455 S
C377 C378 1.524 . S
C378 C377 1.524 . S
C378 C379 1.397 . S
C378 C383 1.363 . S
C379 H350 0.950 . S
C379 C378 1.397 . S
C379 C380 1.334 . S
C380 H351 0.950 . S
C380 C379 1.334 . S
C380 C381 1.287 . S
C381 C380 1.287 . S
C381 C382 1.524 . S
C381 H384 0.999 . S
C382 H352 0.950 . S
C382 C381 1.524 . S
C382 C383 1.415 . S
C383 H353 0.950 . S
C383 C378 1.363 . S
C383 C382 1.415 . S
H384 C381 0.999 . S
H385 C366 0.913 . S
H386 C404 0.951 . S
H387 C406 0.951 . S
H388 C408 0.950 . S
H389 C409 0.950 . S
H390 C411 0.950 . S
H391 C414 0.950 . S
H392 C415 0.950 . S
H393 C417 0.950 . S
H394 C418 0.950 . S
H395 C419 0.951 . S
H396 C421 0.951 . S
H397 C423 0.953 . S
H398 C424 0.950 . S
H399 C426 0.950 1_556 S
H400 C429 0.950 . S
H401 C430 0.950 . S
H402 C432 0.950 . S
H403 C433 0.950 . S
C404 H386 0.951 . S
C404 C405 1.366 1_545 S
C404 C406 1.388 . S
C405 C404 1.366 1_565 S
C405 C409 1.385 . S
C406 H387 0.951 . S
C406 C404 1.388 . S
C406 C407 1.365 1_545 S
C407 C406 1.365 1_565 S
C407 C408 1.414 . S
C407 C410 1.499 . S
C408 H388 0.950 . S
C408 C407 1.414 . S
C408 C409 1.374 . S
C409 H389 0.950 . S
C409 C405 1.385 . S
C409 C408 1.374 . S
C410 C407 1.499 . S
C410 C411 1.377 . S
C410 C412 1.386 1_565 S
C411 H390 0.950 . S
C411 C410 1.377 . S
C411 C427 1.377 1_554 S
C412 C410 1.386 1_545 S
C412 C413 1.524 . S
C412 C426 1.380 . S
C413 C412 1.524 . S
C413 C414 1.397 . S
C413 C418 1.363 . S
C414 H391 0.950 . S
C414 C413 1.397 . S
C414 C415 1.334 . S
C415 H392 0.950 . S
C415 C414 1.334 . S
C415 C416 1.287 . S
C416 C415 1.287 . S
C416 C417 1.524 . S
C416 H435 0.913 . S
C417 H393 0.950 . S
C417 C416 1.524 . S
C417 C418 1.415 . S
C418 H394 0.950 . S
C418 C413 1.363 . S
C418 C417 1.415 . S
C419 H395 0.951 . S
C419 C420 1.366 . S
C419 C421 1.388 . S
C420 C419 1.366 . S
C420 C424 1.385 1_565 S
C421 H396 0.951 . S
C421 C419 1.388 . S
C421 C422 1.366 . S
C422 C421 1.366 . S
C422 C423 1.411 1_565 S
C422 C425 1.499 . S
C423 H397 0.953 . S
C423 C422 1.411 1_545 S
C423 C424 1.374 . S
C424 H398 0.950 . S
C424 C420 1.385 1_545 S
C424 C423 1.374 . S
C425 C422 1.499 . S
C425 C426 1.370 1_566 S
C425 C427 1.389 . S
C426 H399 0.950 1_554 S
C426 C412 1.380 . S
C426 C425 1.370 1_544 S
C427 C411 1.377 1_556 S
C427 C425 1.389 . S
C427 C428 1.524 . S
C428 C427 1.524 . S
C428 C429 1.397 . S
C428 C433 1.363 . S
C429 H400 0.950 . S
C429 C428 1.397 . S
C429 C430 1.334 . S
C430 H401 0.950 . S
C430 C429 1.334 . S
C430 C431 1.287 . S
C431 C430 1.287 . S
C431 C432 1.524 . S
C431 H434 0.999 . S
C432 H402 0.950 . S
C432 C431 1.524 . S
C432 C433 1.415 . S
C433 H403 0.950 . S
C433 C428 1.363 . S
C433 C432 1.415 . S
H434 C431 0.999 . S
H435 C416 0.913 . S
H436 C454 0.951 . S
H437 C456 0.951 . S
H438 C458 0.950 . S
H439 C459 0.950 . S
H440 C461 0.950 . S
H441 C464 0.950 . S
H442 C465 0.950 . S
H443 C467 0.943 1_556 S
H444 C468 0.950 . S
H445 C469 0.951 . S
H446 C471 0.951 . S
H447 C473 0.950 . S
H448 C474 0.950 . S
H449 C476 0.950 . S
H450 C479 0.950 . S
H451 C480 0.950 . S
H452 C482 0.950 . S
H453 C483 0.950 . S
C454 H436 0.951 . S
C454 C455 1.366 . S
C454 C456 1.388 . S
C455 C454 1.366 . S
C455 C459 1.385 . S
C456 H437 0.951 . S
C456 C454 1.388 . S
C456 C457 1.366 . S
C457 C456 1.366 . S
C457 C458 1.414 . S
C457 C460 1.499 . S
C458 H438 0.950 . S
C458 C457 1.414 . S
C458 C459 1.374 . S
C459 H439 0.950 . S
C459 C455 1.385 . S
C459 C458 1.374 . S
C460 C457 1.499 . S
C460 C461 1.373 . S
C460 C462 1.389 . S
C461 H440 0.950 . S
C461 C460 1.373 . S
C461 C477 1.377 . S
C462 C460 1.389 . S
C462 C463 1.524 . S
C462 C476 1.377 . S
C463 C462 1.524 . S
C463 C464 1.397 . S
C463 C468 1.363 . S
C464 H441 0.950 . S
C464 C463 1.397 . S
C464 C465 1.334 . S
C465 H442 0.950 . S
C465 C464 1.334 . S
C465 C466 1.287 1_554 S
C466 C465 1.287 1_556 S
C466 C467 1.522 1_556 S
C466 H485 0.913 . S
C467 H443 0.943 1_554 S
C467 C466 1.522 1_554 S
C467 C468 1.425 . S
C468 H444 0.950 . S
C468 C463 1.363 . S
C468 C467 1.425 . S
C469 H445 0.951 . S
C469 C470 1.366 . S
C469 C471 1.388 . S
C470 C469 1.366 . S
C470 C474 1.385 . S
C471 H446 0.951 . S
C471 C469 1.388 . S
C471 C472 1.366 . S
C472 C471 1.366 . S
C472 C473 1.414 . S
C472 C475 1.499 . S
C473 H447 0.950 . S
C473 C472 1.414 . S
C473 C474 1.374 . S
C474 H448 0.950 . S
C474 C470 1.385 . S
C474 C473 1.374 . S
C475 C472 1.499 . S
C475 C476 1.373 . S
C475 C477 1.389 . S
C476 H449 0.950 . S
C476 C462 1.377 . S
C476 C475 1.373 . S
C477 C461 1.377 . S
C477 C475 1.389 . S
C477 C478 1.524 . S
C478 C477 1.524 . S
C478 C479 1.397 . S
C478 C483 1.363 . S
C479 H450 0.950 . S
C479 C478 1.397 . S
C479 C480 1.334 . S
C480 H451 0.950 . S
C480 C479 1.334 . S
C480 C481 1.287 . S
C481 C480 1.287 . S
C481 C482 1.524 . S
C481 H484 0.999 . S
C482 H452 0.950 . S
C482 C481 1.524 . S
C482 C483 1.415 . S
C483 H453 0.950 . S
C483 C478 1.363 . S
C483 C482 1.415 . S
H484 C481 0.999 . S
H485 C466 0.913 . S
H486 C504 0.951 . S
H487 C506 0.951 . S
H488 C508 0.950 . S
H489 C509 0.950 . S
H490 C511 0.950 . S
H491 C514 0.950 . S
H492 C515 0.950 . S
H493 C517 0.950 . S
H494 C518 0.950 . S
H495 C519 0.951 . S
H496 C521 0.951 . S
H497 C523 0.950 . S
H498 C524 0.950 . S
H499 C526 0.950 . S
H500 C529 0.950 . S
H501 C530 0.950 . S
H502 C532 0.950 . S
H503 C533 0.950 . S
C504 H486 0.951 . S
C504 C505 1.366 . S
C504 C506 1.388 . S
C505 C504 1.366 . S
C505 C509 1.385 . S
C506 H487 0.951 . S
C506 C504 1.388 . S
C506 C507 1.366 . S
C507 C506 1.366 . S
C507 C508 1.414 . S
C507 C510 1.499 . S
C508 H488 0.950 . S
C508 C507 1.414 . S
C508 C509 1.374 . S
C509 H489 0.950 . S
C509 C505 1.385 . S
C509 C508 1.374 . S
C510 C507 1.499 . S
C510 C511 1.373 . S
C510 C512 1.389 . S
C511 H490 0.950 . S
C511 C510 1.373 . S
C511 C527 1.377 . S
C512 C510 1.389 . S
C512 C513 1.524 . S
C512 C526 1.377 . S
C513 C512 1.524 . S
C513 C514 1.397 . S
C513 C518 1.363 . S
C514 H491 0.950 . S
C514 C513 1.397 . S
C514 C515 1.334 . S
C515 H492 0.950 . S
C515 C514 1.334 . S
C515 C516 1.287 . S
C516 C515 1.287 . S
C516 C517 1.524 . S
C516 H535 0.913 . S
C517 H493 0.950 . S
C517 C516 1.524 . S
C517 C518 1.415 . S
C518 H494 0.950 . S
C518 C513 1.363 . S
C518 C517 1.415 . S
C519 H495 0.951 . S
C519 C520 1.366 . S
C519 C521 1.388 . S
C520 C519 1.366 . S
C520 C524 1.385 . S
C521 H496 0.951 . S
C521 C519 1.388 . S
C521 C522 1.366 . S
C522 C521 1.366 . S
C522 C523 1.414 . S
C522 C525 1.499 . S
C523 H497 0.950 . S
C523 C522 1.414 . S
C523 C524 1.374 . S
C524 H498 0.950 . S
C524 C520 1.385 . S
C524 C523 1.374 . S
C525 C522 1.499 . S
C525 C526 1.373 . S
C525 C527 1.389 . S
C526 H499 0.950 . S
C526 C512 1.377 . S
C526 C525 1.373 . S
C527 C511 1.377 . S
C527 C525 1.389 . S
C527 C528 1.524 . S
C528 C527 1.524 . S
C528 C529 1.397 . S
C528 C533 1.363 . S
C529 H500 0.950 . S
C529 C528 1.397 . S
C529 C530 1.334 . S
C530 H501 0.950 . S
C530 C529 1.334 . S
C530 C531 1.287 . S
C531 C530 1.287 . S
C531 C532 1.524 . S
C531 H534 0.999 . S
C532 H502 0.950 . S
C532 C531 1.524 . S
C532 C533 1.415 . S
C533 H503 0.950 . S
C533 C528 1.363 . S
C533 C532 1.415 . S
H534 C531 0.999 . S
H535 C516 0.913 . S
H536 C554 0.951 . S
H537 C556 0.951 . S
H538 C558 0.950 . S
H539 C559 0.950 . S
H540 C561 0.950 . S
H541 C564 0.950 . S
H542 C565 0.950 . S
H543 C567 0.950 . S
H544 C568 0.950 . S
H545 C569 0.951 . S
H546 C571 0.951 . S
H547 C573 0.950 . S
H548 C574 0.950 . S
H549 C576 0.950 . S
H550 C579 0.950 . S
H551 C580 0.950 . S
H552 C582 0.950 . S
H553 C583 0.950 . S
C554 H536 0.951 . S
C554 C555 1.366 . S
C554 C556 1.388 . S
C555 C554 1.366 . S
C555 C559 1.385 . S
C556 H537 0.951 . S
C556 C554 1.388 . S
C556 C557 1.366 . S
C557 C556 1.366 . S
C557 C558 1.414 . S
C557 C560 1.499 . S
C558 H538 0.950 . S
C558 C557 1.414 . S
C558 C559 1.374 . S
C559 H539 0.950 . S
C559 C555 1.385 . S
C559 C558 1.374 . S
C560 C557 1.499 . S
C560 C561 1.373 . S
C560 C562 1.389 . S
C561 H540 0.950 . S
C561 C560 1.373 . S
C561 C577 1.377 . S
C562 C560 1.389 . S
C562 C563 1.524 . S
C562 C576 1.377 . S
C563 C562 1.524 . S
C563 C564 1.397 . S
C563 C568 1.363 . S
C564 H541 0.950 . S
C564 C563 1.397 . S
C564 C565 1.334 . S
C565 H542 0.950 . S
C565 C564 1.334 . S
C565 C566 1.287 . S
C566 C565 1.287 . S
C566 C567 1.524 . S
C566 H585 0.913 . S
C567 H543 0.950 . S
C567 C566 1.524 . S
C567 C568 1.415 . S
C568 H544 0.950 . S
C568 C563 1.363 . S
C568 C567 1.415 . S
C569 H545 0.951 . S
C569 C570 1.366 . S
C569 C571 1.388 . S
C570 C569 1.366 . S
C570 C574 1.385 . S
C571 H546 0.951 . S
C571 C569 1.388 . S
C571 C572 1.366 . S
C572 C571 1.366 . S
C572 C573 1.414 . S
C572 C575 1.499 . S
C573 H547 0.950 . S
C573 C572 1.414 . S
C573 C574 1.374 . S
C574 H548 0.950 . S
C574 C570 1.385 . S
C574 C573 1.374 . S
C575 C572 1.499 . S
C575 C576 1.373 . S
C575 C577 1.389 . S
C576 H549 0.950 . S
C576 C562 1.377 . S
C576 C575 1.373 . S
C577 C561 1.377 . S
C577 C575 1.389 . S
C577 C578 1.524 . S
C578 C577 1.524 . S
C578 C579 1.397 . S
C578 C583 1.363 . S
C579 H550 0.950 . S
C579 C578 1.397 . S
C579 C580 1.334 . S
C580 H551 0.950 . S
C580 C579 1.334 . S
C580 C581 1.287 . S
C581 C580 1.287 . S
C581 C582 1.524 . S
C581 H584 0.999 . S
C582 H552 0.950 . S
C582 C581 1.524 . S
C582 C583 1.415 . S
C583 H553 0.950 . S
C583 C578 1.363 . S
C583 C582 1.415 . S
H584 C581 0.999 . S
H585 C566 0.913 . S
H586 C604 0.951 . S
H587 C606 0.951 . S
H588 C608 0.950 . S
H589 C609 0.950 . S
H590 C611 0.950 . S
H591 C614 0.950 . S
H592 C615 0.950 . S
H593 C617 0.950 . S
H594 C618 0.950 . S
H595 C619 0.951 . S
H596 C621 0.951 . S
H597 C623 0.950 . S
H598 C624 0.950 . S
H599 C626 0.950 . S
H600 C629 0.949 1_556 S
H601 C630 0.950 . S
H602 C632 0.950 . S
H603 C633 0.950 . S
C604 H586 0.951 . S
C604 C605 1.366 . S
C604 C606 1.388 . S
C605 C604 1.366 . S
C605 C609 1.385 . S
C606 H587 0.951 . S
C606 C604 1.388 . S
C606 C607 1.366 . S
C607 C606 1.366 . S
C607 C608 1.414 . S
C607 C610 1.499 . S
C608 H588 0.950 . S
C608 C607 1.414 . S
C608 C609 1.374 . S
C609 H589 0.950 . S
C609 C605 1.385 . S
C609 C608 1.374 . S
C610 C607 1.499 . S
C610 C611 1.373 . S
C610 C612 1.389 . S
C611 H590 0.950 . S
C611 C610 1.373 . S
C611 C627 1.377 . S
C612 C610 1.389 . S
C612 C613 1.524 . S
C612 C626 1.377 . S
C613 C612 1.524 . S
C613 C614 1.397 . S
C613 C618 1.363 . S
C614 H591 0.950 . S
C614 C613 1.397 . S
C614 C615 1.334 . S
C615 H592 0.950 . S
C615 C614 1.334 . S
C615 C616 1.287 . S
C616 C615 1.287 . S
C616 C617 1.524 . S
C616 H635 0.913 . S
C617 H593 0.950 . S
C617 C616 1.524 . S
C617 C618 1.415 . S
C618 H594 0.950 . S
C618 C613 1.363 . S
C618 C617 1.415 . S
C619 H595 0.951 . S
C619 C620 1.366 . S
C619 C621 1.388 . S
C620 C619 1.366 . S
C620 C624 1.385 . S
C621 H596 0.951 . S
C621 C619 1.388 . S
C621 C622 1.366 . S
C622 C621 1.366 . S
C622 C623 1.414 . S
C622 C625 1.499 . S
C623 H597 0.950 . S
C623 C622 1.414 . S
C623 C624 1.374 . S
C624 H598 0.950 . S
C624 C620 1.385 . S
C624 C623 1.374 . S
C625 C622 1.499 . S
C625 C626 1.373 . S
C625 C627 1.389 . S
C626 H599 0.950 . S
C626 C612 1.377 . S
C626 C625 1.373 . S
C627 C611 1.377 . S
C627 C625 1.389 . S
C627 C628 1.524 . S
C628 C627 1.524 . S
C628 C629 1.396 1_556 S
C628 C633 1.363 . S
C629 H600 0.949 1_554 S
C629 C628 1.396 1_554 S
C629 C630 1.336 . S
C630 H601 0.950 . S
C630 C629 1.336 . S
C630 C631 1.287 . S
C631 C630 1.287 . S
C631 C632 1.524 . S
C631 H634 0.999 . S
C632 H602 0.950 . S
C632 C631 1.524 . S
C632 C633 1.415 1_554 S
C633 H603 0.950 . S
C633 C628 1.363 . S
C633 C632 1.415 1_556 S
H634 C631 0.999 . S
H635 C616 0.913 . S
C255 C52 1.688 . S
C270 C151 1.692 . S
C305 C92 1.692 . S
C320 C229 1.688 . S
C355 C33 1.692 . S
C370 C170 1.688 . S
C405 C111 1.688 . S
C420 C210 1.692 . S
C455 C62 1.477 . S
C470 C3 1.477 . S
C505 C64 1.480 . S
C520 C123 1.480 . S
C555 C180 1.477 . S
C570 C121 1.476 . S
C605 C182 1.480 . S
C620 C5 1.480 . S
