# Generated by pormake.
# Topology xfw, (5)-cn, num edge types: 1
# Building blocks:
#     Node 0, Type 0, BuildingBlock: BEQFEK_clean_sbu_0, # of connection points: 5
#     Node 1, Type 0, BuildingBlock: BEQFEK_clean_sbu_0, # of connection points: 5
#     Node 2, Type 0, BuildingBlock: BEQFEK_clean_sbu_0, # of connection points: 5
#     Node 3, Type 0, BuildingBlock: BEQFEK_clean_sbu_0, # of connection points: 5
#     Node 4, Type 0, BuildingBlock: BEQFEK_clean_sbu_0, # of connection points: 5
#     Node 5, Type 0, BuildingBlock: BEQFEK_clean_sbu_0, # of connection points: 5
#     Node 6, Type 0, BuildingBlock: BEQFEK_clean_sbu_0, # of connection points: 5
#     Node 7, Type 0, BuildingBlock: BEQFEK_clean_sbu_0, # of connection points: 5
#     Edge 8, Type (0, 0), BuildingBlock: UVAHIK_clean_linker_0, # of connection points: 2
#     Edge 9, Type (0, 0), BuildingBlock: UVAHIK_clean_linker_0, # of connection points: 2
#     Edge 10, Type (0, 0), BuildingBlock: UVAHIK_clean_linker_0, # of connection points: 2
#     Edge 11, Type (0, 0), BuildingBlock: UVAHIK_clean_linker_0, # of connection points: 2
#     Edge 12, Type (0, 0), BuildingBlock: UVAHIK_clean_linker_0, # of connection points: 2
#     Edge 13, Type (0, 0), BuildingBlock: UVAHIK_clean_linker_0, # of connection points: 2
#     Edge 14, Type (0, 0), BuildingBlock: UVAHIK_clean_linker_0, # of connection points: 2
#     Edge 15, Type (0, 0), BuildingBlock: UVAHIK_clean_linker_0, # of connection points: 2
#     Edge 16, Type (0, 0), BuildingBlock: UVAHIK_clean_linker_0, # of connection points: 2
#     Edge 17, Type (0, 0), BuildingBlock: UVAHIK_clean_linker_0, # of connection points: 2
#     Edge 18, Type (0, 0), BuildingBlock: UVAHIK_clean_linker_0, # of connection points: 2
#     Edge 19, Type (0, 0), BuildingBlock: UVAHIK_clean_linker_0, # of connection points: 2
#     Edge 20, Type (0, 0), BuildingBlock: UVAHIK_clean_linker_0, # of connection points: 2
#     Edge 21, Type (0, 0), BuildingBlock: UVAHIK_clean_linker_0, # of connection points: 2
#     Edge 22, Type (0, 0), BuildingBlock: UVAHIK_clean_linker_0, # of connection points: 2
#     Edge 23, Type (0, 0), BuildingBlock: UVAHIK_clean_linker_0, # of connection points: 2
#     Edge 24, Type (0, 0), BuildingBlock: UVAHIK_clean_linker_0, # of connection points: 2
#     Edge 25, Type (0, 0), BuildingBlock: UVAHIK_clean_linker_0, # of connection points: 2
#     Edge 26, Type (0, 0), BuildingBlock: UVAHIK_clean_linker_0, # of connection points: 2
#     Edge 27, Type (0, 0), BuildingBlock: UVAHIK_clean_linker_0, # of connection points: 2
# Relax obj value: 0.341
# Max RMSD: 0.177
# Mean RMSD: 0.177
data_MOF--net-xfw--node1-BEQFEK_clean_sbu_0--edge1-UVAHIK_clean_linker_0
_symmetry_space_group_name_H-M    P1
_symmetry_Int_Tables_number       1
_symmetry_cell_setting            triclinic
loop_
_symmetry_equiv_pos_as_xyz
'x, y, z'
_cell_length_a     36.5079
_cell_length_b     36.512313
_cell_length_c     76.687026
_cell_angle_alpha  89.998246
_cell_angle_beta   90.002037
_cell_angle_gamma 90.008093
loop_
_atom_site_label
_atom_site_type_symbol
_atom_site_fract_x
_atom_site_fract_y
_atom_site_fract_z
_atom_type_partial_charge
Co0 Co 0.23535 0.08394 0.57961 0.0
Co1 Co 0.22924 0.14011 0.61091 0.0
C2 C 0.17448 0.08013 0.60602 0.0
O3 O 0.191 0.06863 0.59247 0.0
O4 O 0.18629 0.10761 0.61457 0.0
C5 C 0.23995 0.01234 0.56543 0.0
O6 O 0.23037 0.00367 0.58142 0.0
C7 C 0.22063 0.16864 0.6467 0.0
C8 C 0.2592 0.21521 0.64686 0.0
C9 C 0.23606 0.19506 0.6575 0.0
N10 N 0.23487 0.1723 0.6306 0.0
N11 N 0.25744 0.20062 0.63074 0.0
C12 C 0.19108 0.14182 0.65114 0.0
H13 H 0.16911 0.14389 0.64125 0.0
H14 H 0.20237 0.11361 0.65077 0.0
H15 H 0.17865 0.14734 0.66406 0.0
C16 C 0.30661 0.06947 0.59619 0.0
N17 N 0.27517 0.08851 0.59505 0.0
N18 N 0.27261 0.11093 0.60846 0.0
C19 C 0.30227 0.10609 0.61877 0.0
C20 C 0.32457 0.07964 0.61131 0.0
C21 C 0.31937 0.04189 0.5831 0.0
H22 H 0.312 0.0509 0.56975 0.0
H23 H 0.306 0.01522 0.58579 0.0
H24 H 0.34949 0.03801 0.58385 0.0
O25 O 0.22525 0.13064 0.56789 0.0
O26 O 0.21893 0.17048 0.58963 0.0
H27 H 0.31378 0.15301 0.63442 0.0
H28 H 0.33022 0.11066 0.64359 0.0
C29 C 0.30746 0.12357 0.63623 0.0
H30 H 0.28188 0.12117 0.64394 0.0
H31 H 0.27263 0.2092 0.61996 0.0
O32 O 0.24447 0.04591 0.56156 0.0
C33 C 0.21847 0.16283 0.57339 0.0
Co34 Co 0.081 0.75984 0.42199 0.0
Co35 Co 0.13808 0.76599 0.39124 0.0
C36 C 0.07844 0.82134 0.39605 0.0
O37 O 0.06608 0.8047 0.40941 0.0
O38 O 0.10618 0.80938 0.38774 0.0
C39 C 0.01027 0.75764 0.43826 0.0
O40 O -0.00036 0.77223 0.42344 0.0
C41 C 0.16298 0.77195 0.35499 0.0
C42 C 0.2174 0.74559 0.3559 0.0
C43 C 0.19263 0.76209 0.34468 0.0
N44 N 0.16995 0.76186 0.37152 0.0
N45 N 0.20266 0.74638 0.37201 0.0
C46 C 0.12713 0.78744 0.34903 0.0
H47 H 0.10458 0.77755 0.35751 0.0
H48 H 0.12133 0.77969 0.33532 0.0
H49 H 0.12824 0.81775 0.34993 0.0
C50 C 0.06561 0.68961 0.4048 0.0
N51 N 0.08529 0.72055 0.4063 0.0
N52 N 0.10889 0.72258 0.39335 0.0
C53 C 0.1047 0.69272 0.38311 0.0
C54 C 0.0769 0.67116 0.38999 0.0
C55 C 0.03634 0.67801 0.41731 0.0
H56 H 0.04566 0.68268 0.43088 0.0
H57 H 0.0114 0.69464 0.41498 0.0
H58 H 0.02936 0.64862 0.4157 0.0
O59 O 0.12779 0.7689 0.43383 0.0
O60 O 0.16852 0.77565 0.41249 0.0
H61 H 0.15463 0.68763 0.36873 0.0
H62 H 0.11767 0.6596 0.36047 0.0
C63 C 0.1247 0.68644 0.36635 0.0
H64 H 0.11746 0.70836 0.35698 0.0
H65 H 0.21457 0.73562 0.38327 0.0
O66 O 0.04389 0.74966 0.44034 0.0
C67 C 0.16024 0.77544 0.42865 0.0
Co68 Co 0.76011 0.91498 0.58153 0.0
Co69 Co 0.76856 0.86 0.61316 0.0
C70 C 0.82099 0.92188 0.60783 0.0
O71 O 0.80402 0.93224 0.59419 0.0
O72 O 0.81022 0.8943 0.61663 0.0
C73 C 0.7549 0.98546 0.56556 0.0
O74 O 0.76739 0.99629 0.58078 0.0
C75 C 0.78011 0.83047 0.64863 0.0
C76 C 0.74013 0.78514 0.64945 0.0
C77 C 0.76499 0.80423 0.65964 0.0
N78 N 0.76407 0.82773 0.63288 0.0
N79 N 0.74067 0.80012 0.63339 0.0
C80 C 0.81115 0.85598 0.65246 0.0
H81 H 0.83129 0.85433 0.64169 0.0
H82 H 0.8007 0.88448 0.65317 0.0
H83 H 0.82546 0.84881 0.66474 0.0
C84 C 0.68845 0.92705 0.59795 0.0
N85 N 0.7207 0.9094 0.59705 0.0
N86 N 0.72415 0.88757 0.61063 0.0
C87 C 0.69422 0.89146 0.62084 0.0
C88 C 0.67074 0.91659 0.61312 0.0
C89 C 0.67461 0.95299 0.58434 0.0
H90 H 0.68187 0.94278 0.57118 0.0
H91 H 0.68763 0.98014 0.58627 0.0
H92 H 0.64444 0.95626 0.58515 0.0
O93 O 0.77173 0.86842 0.57009 0.0
O94 O 0.77989 0.82948 0.59204 0.0
H95 H 0.68178 0.8453 0.63686 0.0
H96 H 0.66821 0.88849 0.64617 0.0
C97 C 0.68972 0.87442 0.63846 0.0
H98 H 0.71594 0.87571 0.64571 0.0
H99 H 0.72415 0.79229 0.62293 0.0
O100 O 0.74904 0.95154 0.56305 0.0
C101 C 0.77979 0.83667 0.57575 0.0
Co102 Co 0.91798 0.23596 0.42048 0.0
Co103 Co 0.86096 0.22631 0.38996 0.0
C104 C 0.92478 0.1755 0.39427 0.0
O105 O 0.93621 0.19269 0.40765 0.0
O106 O 0.89606 0.18564 0.38619 0.0
C107 C 0.9888 0.24316 0.43616 0.0
O108 O -0.00023 0.23022 0.42105 0.0
C109 C 0.83828 0.22218 0.35347 0.0
C110 C 0.77869 0.23241 0.35489 0.0
C111 C 0.80697 0.22534 0.34332 0.0
N112 N 0.82898 0.22757 0.37024 0.0
N113 N 0.79333 0.23361 0.37102 0.0
C114 C 0.87593 0.21118 0.34774 0.0
H115 H 0.89685 0.22479 0.35601 0.0
H116 H 0.88096 0.21762 0.33385 0.0
H117 H 0.87892 0.18116 0.34948 0.0
C118 C 0.92655 0.30823 0.40393 0.0
N119 N 0.91016 0.27535 0.40505 0.0
N120 N 0.88636 0.2719 0.39225 0.0
C121 C 0.88696 0.30278 0.38253 0.0
C122 C 0.91278 0.32655 0.38954 0.0
C123 C 0.95447 0.32205 0.41663 0.0
H124 H 0.9458 0.31543 0.43012 0.0
H125 H 0.98104 0.30833 0.41406 0.0
H126 H 0.95824 0.35211 0.41551 0.0
O127 O 0.87218 0.22264 0.43247 0.0
O128 O 0.83157 0.2144 0.41122 0.0
H129 H 0.83612 0.30108 0.36861 0.0
H130 H 0.86678 0.33696 0.36147 0.0
C131 C 0.86517 0.30835 0.36622 0.0
H132 H 0.87598 0.29017 0.35587 0.0
H133 H 0.77898 0.23848 0.38256 0.0
O134 O 0.95479 0.24844 0.43868 0.0
C135 C 0.84008 0.21424 0.42735 0.0
Co136 Co 0.76121 0.08117 0.08137 0.0
Co137 Co 0.76966 0.14136 0.11054 0.0
C138 C 0.82338 0.07978 0.10677 0.0
O139 O 0.80607 0.06636 0.09387 0.0
O140 O 0.81225 0.10865 0.11441 0.0
C141 C 0.75581 0.0086 0.06791 0.0
O142 O 0.76718 0.00023 0.08367 0.0
C143 C 0.77357 0.16503 0.14673 0.0
C144 C 0.76403 0.2247 0.14512 0.0
C145 C 0.77082 0.19649 0.15678 0.0
N146 N 0.76824 0.17413 0.12994 0.0
N147 N 0.76257 0.20984 0.12904 0.0
C148 C 0.78426 0.12737 0.15258 0.0
H149 H 0.77163 0.10647 0.14396 0.0
H150 H 0.77639 0.12211 0.16629 0.0
H151 H 0.81445 0.12463 0.15156 0.0
C152 C 0.69068 0.06996 0.09924 0.0
N153 N 0.72243 0.0881 0.09721 0.0
N154 N 0.72515 0.11358 0.10932 0.0
C155 C 0.69475 0.11244 0.11939 0.0
C156 C 0.67234 0.08443 0.11342 0.0
C157 C 0.67793 0.03938 0.08775 0.0
H158 H 0.68347 0.04616 0.07391 0.0
H159 H 0.6931 0.01406 0.09115 0.0
H160 H 0.64817 0.03418 0.08939 0.0
O161 O 0.77093 0.12665 0.0684 0.0
O162 O 0.77906 0.16961 0.08862 0.0
H163 H 0.69592 0.16489 0.13195 0.0
H164 H 0.65881 0.13553 0.13893 0.0
C165 C 0.688 0.13627 0.13492 0.0
H166 H 0.70481 0.12637 0.14599 0.0
H167 H 0.7579 0.22407 0.11745 0.0
O168 O 0.75038 0.04204 0.06408 0.0
C169 C 0.77816 0.15954 0.0727 0.0
Co170 Co 0.07929 0.23731 0.91917 0.0
Co171 Co 0.13767 0.22858 0.88916 0.0
C172 C 0.07638 0.17532 0.89329 0.0
O173 O 0.06415 0.19271 0.90645 0.0
O174 O 0.10484 0.1861 0.88517 0.0
C175 C 0.00685 0.24366 0.93264 0.0
O176 O 0.99825 0.23373 0.91669 0.0
C177 C 0.16593 0.22135 0.85346 0.0
C178 C 0.21988 0.24849 0.85532 0.0
C179 C 0.1963 0.23148 0.84371 0.0
N180 N 0.17133 0.23184 0.87008 0.0
N181 N 0.2038 0.24771 0.87114 0.0
C182 C 0.13075 0.20553 0.84684 0.0
H183 H 0.10733 0.21602 0.85458 0.0
H184 H 0.12646 0.21238 0.83289 0.0
H185 H 0.13165 0.1753 0.84822 0.0
C186 C 0.06871 0.30873 0.9021 0.0
N187 N 0.08598 0.27636 0.90352 0.0
N188 N 0.10977 0.27295 0.89072 0.0
C189 C 0.1079 0.30314 0.88056 0.0
C190 C 0.08162 0.32659 0.8874 0.0
C191 C 0.04127 0.32286 0.91495 0.0
H192 H 0.04936 0.31495 0.92836 0.0
H193 H 0.0141 0.31071 0.91205 0.0
H194 H 0.03893 0.35313 0.91427 0.0
O195 O 0.12485 0.22728 0.93187 0.0
O196 O 0.16624 0.21845 0.91099 0.0
H197 H 0.15861 0.30846 0.86686 0.0
H198 H 0.12133 0.33397 0.85721 0.0
C199 C 0.12886 0.3082 0.86396 0.0
H200 H 0.12315 0.28496 0.8551 0.0
H201 H 0.21454 0.25892 0.88256 0.0
O202 O 0.04041 0.24783 0.93659 0.0
C203 C 0.15728 0.21948 0.92707 0.0
Co204 Co 0.23803 0.91932 0.08129 0.0
Co205 Co 0.23028 0.8642 0.11287 0.0
C206 C 0.17755 0.92562 0.10798 0.0
O207 O 0.1942 0.93602 0.09425 0.0
O208 O 0.18858 0.89809 0.11673 0.0
C209 C 0.24458 0.99063 0.06678 0.0
O210 O 0.23604 3e-05 0.08282 0.0
C211 C 0.21854 0.83298 0.14799 0.0
C212 C 0.26059 0.78959 0.14892 0.0
C213 C 0.23439 0.80714 0.15898 0.0
N214 N 0.2354 0.83152 0.1324 0.0
N215 N 0.26006 0.80504 0.13297 0.0
C216 C 0.18621 0.8569 0.15169 0.0
H217 H 0.16683 0.85516 0.1406 0.0
H218 H 0.19539 0.88575 0.15299 0.0
H219 H 0.17148 0.84834 0.16366 0.0
C220 C 0.30999 0.93159 0.09752 0.0
N221 N 0.27783 0.91375 0.09664 0.0
N222 N 0.27434 0.89228 0.11034 0.0
C223 C 0.30391 0.89691 0.12072 0.0
C224 C 0.3274 0.92193 0.1129 0.0
C225 C 0.32415 0.95684 0.0837 0.0
H226 H 0.31547 0.94714 0.07064 0.0
H227 H 0.31289 0.98467 0.08588 0.0
H228 H 0.3545 0.95846 0.08408 0.0
O229 O 0.22666 0.87295 0.06967 0.0
O230 O 0.2189 0.83397 0.09163 0.0
H231 H 0.3174 0.85235 0.13755 0.0
H232 H 0.3278 0.89668 0.14655 0.0
C233 C 0.30775 0.88105 0.13862 0.0
H234 H 0.28092 0.8813 0.14536 0.0
H235 H 0.27741 0.79835 0.12263 0.0
O236 O 0.24791 0.95684 0.0631 0.0
C237 C 0.21882 0.84116 0.07534 0.0
Co238 Co 0.9185 0.76019 0.92224 0.0
Co239 Co 0.86042 0.76735 0.89197 0.0
C240 C 0.92106 0.82185 0.89641 0.0
O241 O 0.93361 0.80495 0.90965 0.0
O242 O 0.89284 0.81035 0.88832 0.0
C243 C 0.98962 0.75729 0.93811 0.0
O244 O 1e-05 0.77201 0.92328 0.0
C245 C 0.83468 0.77372 0.85588 0.0
C246 C 0.77996 0.74802 0.85707 0.0
C247 C 0.80471 0.76415 0.84573 0.0
N248 N 0.82793 0.76381 0.87246 0.0
N249 N 0.79503 0.74876 0.87312 0.0
C250 C 0.87062 0.78867 0.84972 0.0
H251 H 0.89321 0.77853 0.8581 0.0
H252 H 0.87599 0.78074 0.83599 0.0
H253 H 0.86995 0.81899 0.85057 0.0
C254 C 0.93253 0.69003 0.90472 0.0
N255 N 0.91323 0.72114 0.90648 0.0
N256 N 0.88911 0.72354 0.89376 0.0
C257 C 0.8925 0.69371 0.88345 0.0
C258 C 0.92036 0.67182 0.89 0.0
C259 C 0.96233 0.6781 0.91686 0.0
H260 H 0.95363 0.68248 0.93055 0.0
H261 H 0.98718 0.69479 0.91438 0.0
H262 H 0.96921 0.64875 0.91503 0.0
O263 O 0.87218 0.76959 0.93445 0.0
O264 O 0.83074 0.777 0.91349 0.0
H265 H 0.84189 0.68951 0.86954 0.0
H266 H 0.87793 0.66072 0.86099 0.0
C267 C 0.87168 0.68774 0.86689 0.0
H268 H 0.87899 0.70944 0.85741 0.0
H269 H 0.78324 0.73817 0.88444 0.0
O270 O 0.95602 0.74942 0.94033 0.0
C271 C 0.8396 0.77647 0.92958 0.0
C272 C 0.2388 0.94648 0.55647 0.0
C273 C 0.24413 0.98343 0.55203 0.0
C274 C 0.23965 0.91932 0.54366 0.0
C275 C 0.26578 0.89876 0.49794 0.0
H276 H 0.18191 0.83388 0.50007 0.0
C277 C 0.2077 0.81985 0.43862 0.0
C278 C 0.18673 0.78832 0.44179 0.0
C279 C 0.22406 0.83866 0.45251 0.0
C280 C 0.20609 0.85098 0.4994 0.0
H281 H 0.25636 0.02064 0.53075 0.0
H282 H 0.25739 0.97315 0.50832 0.0
H283 H 0.19272 0.87666 0.52357 0.0
H284 H 0.16988 0.74924 0.46143 0.0
H285 H 0.20016 0.78061 0.48547 0.0
H286 H 0.27865 0.87333 0.47349 0.0
C287 C 0.25282 0.9652 0.52175 0.0
C288 C 0.21219 0.87573 0.51291 0.0
C289 C 0.25196 0.99244 0.53459 0.0
C290 C 0.18566 0.77371 0.4587 0.0
C291 C 0.20265 0.79198 0.47248 0.0
C292 C 0.25982 0.87368 0.48439 0.0
C293 C 0.24584 0.92845 0.5261 0.0
C294 C 0.24177 0.90025 0.51227 0.0
C295 C 0.22015 0.82585 0.46974 0.0
C296 C 0.22957 0.84976 0.48485 0.0
H297 H 0.23311 0.93852 0.56981 0.0
H298 H 0.23472 0.89117 0.54746 0.0
H299 H 0.289 0.91715 0.49715 0.0
H300 H 0.20866 0.83183 0.4257 0.0
H301 H 0.23722 0.86463 0.44985 0.0
C302 C 0.82063 0.78391 0.56803 0.0
C303 C 0.79403 0.80971 0.56305 0.0
C304 C 0.84061 0.76487 0.55533 0.0
C305 C 0.84675 0.74518 0.50771 0.0
H306 H 0.95075 0.76097 0.51463 0.0
C307 C 0.94723 0.76353 0.45081 0.0
C308 C 0.98366 0.75173 0.45257 0.0
C309 C 0.92269 0.76034 0.46471 0.0
C310 C 0.92193 0.75549 0.51256 0.0
H311 H 0.765 0.83313 0.54106 0.0
H312 H 0.79941 0.79987 0.51905 0.0
H313 H 0.90857 0.77114 0.53866 0.0
H314 H 0.02246 0.72574 0.47008 0.0
H315 H 0.97947 0.71985 0.49428 0.0
H316 H 0.86005 0.73078 0.48139 0.0
C317 C 0.80512 0.79433 0.53265 0.0
C318 C 0.89769 0.76128 0.52639 0.0
C319 C 0.7855 0.81359 0.54528 0.0
C320 C 0.99465 0.73543 0.46834 0.0
C321 C 0.97005 0.73214 0.48224 0.0
C322 C 0.87101 0.73923 0.49388 0.0
C323 C 0.83395 0.77095 0.53749 0.0
C324 C 0.85973 0.75738 0.52396 0.0
C325 C 0.93391 0.74511 0.48069 0.0
C326 C 0.90878 0.74553 0.49598 0.0
H327 H 0.82785 0.78037 0.58162 0.0
H328 H 0.86241 0.7467 0.55945 0.0
H329 H 0.81768 0.74147 0.50551 0.0
H330 H 0.93784 0.77618 0.43885 0.0
H331 H 0.89527 0.77114 0.4631 0.0
C332 C 0.73393 0.00136 0.53532 0.0
C333 C 0.74958 0.01217 0.55126 0.0
C334 C 0.73154 0.02602 0.52141 0.0
C335 C 0.74161 0.12502 0.50979 0.0
H336 H 0.77313 0.0862 0.4652 0.0
C337 C 0.81934 0.20756 0.4582 0.0
C338 C 0.81403 0.19978 0.44043 0.0
C339 C 0.79999 0.18837 0.47095 0.0
C340 C 0.76345 0.09743 0.47743 0.0
H341 H 0.77381 0.05773 0.56527 0.0
H342 H 0.77057 0.1003 0.54098 0.0
H343 H 0.76115 0.0445 0.48923 0.0
H344 H 0.78237 0.16758 0.42206 0.0
H345 H 0.74874 0.13364 0.44446 0.0
H346 H 0.74608 0.17819 0.49812 0.0
C347 C 0.75944 0.07305 0.53925 0.0
C348 C 0.75657 0.07349 0.49126 0.0
C349 C 0.7616 0.04849 0.55318 0.0
C350 C 0.78705 0.1742 0.43564 0.0
C351 C 0.76798 0.15461 0.44845 0.0
C352 C 0.74878 0.14899 0.49598 0.0
C353 C 0.74494 0.06199 0.52308 0.0
C354 C 0.74663 0.08704 0.50777 0.0
C355 C 0.77516 0.1607 0.46624 0.0
C356 C 0.76079 0.1355 0.47981 0.0
H357 H 0.72405 0.97365 0.53348 0.0
H358 H 0.71968 0.01672 0.50924 0.0
H359 H 0.73319 0.13636 0.5222 0.0
H360 H 0.8398 0.22727 0.46229 0.0
H361 H 0.80635 0.19355 0.48453 0.0
C362 C 0.21301 0.18553 0.54283 0.0
C363 C 0.20485 0.18995 0.56061 0.0
C364 C 0.19373 0.20511 0.53019 0.0
C365 C 0.10191 0.23963 0.52402 0.0
H366 H 0.13957 0.27031 0.47907 0.0
C367 C 0.00447 0.2654 0.46623 0.0
C368 C 0.01554 0.24963 0.45036 0.0
C369 C 0.0292 0.26884 0.48008 0.0
C370 C 0.12858 0.26178 0.49154 0.0
H371 H 0.17208 0.22049 0.57917 0.0
H372 H 0.13802 0.25459 0.55697 0.0
H373 H 0.18199 0.25881 0.50308 0.0
H374 H 0.06163 0.22636 0.43638 0.0
H375 H 0.10435 0.23146 0.46053 0.0
H376 H 0.04881 0.24041 0.51235 0.0
C377 C 0.15933 0.23584 0.55287 0.0
C378 C 0.15289 0.25541 0.50531 0.0
C379 C 0.17902 0.21653 0.56556 0.0
C380 C 0.05217 0.23861 0.44842 0.0
C381 C 0.07682 0.24185 0.46228 0.0
C382 C 0.07765 0.24573 0.51024 0.0
C383 C 0.16557 0.22929 0.53503 0.0
C384 C 0.13989 0.2432 0.52155 0.0
C385 C 0.06553 0.25643 0.47839 0.0
C386 C 0.09076 0.25576 0.49366 0.0
H387 H 0.23291 0.16537 0.53862 0.0
H388 H 0.19908 0.19924 0.51658 0.0
H389 H 0.09104 0.22977 0.5363 0.0
H390 H 0.97651 0.27452 0.46809 0.0
H391 H 0.01969 0.28072 0.4922 0.0
C392 C 0.81552 0.77411 0.95987 0.0
C393 C 0.81353 0.7889 0.94301 0.0
C394 C 0.79842 0.79168 0.97382 0.0
C395 C 0.73858 0.8709 0.98638 0.0
H396 H 0.80612 0.87546 0.02535 0.0
C397 C 0.7427 0.98859 0.0372 0.0
C398 C 0.75161 0.97964 0.05453 0.0
C399 C 0.74241 0.96156 0.02426 0.0
C400 C 0.78653 0.87405 0.01476 0.0
H401 H 0.78996 0.83202 0.92722 0.0
H402 H 0.76115 0.86363 0.95168 0.0
H403 H 0.81826 0.83382 0.00153 0.0
H404 H 0.76499 0.93492 0.07203 0.0
H405 H 0.76431 0.88789 0.04952 0.0
H406 H 0.70786 0.91275 0.99953 0.0
C407 C 0.77516 0.83803 0.95415 0.0
C408 C 0.79341 0.84996 1.00106 0.0
C409 C 0.79167 0.81993 0.9401 0.0
C410 C 0.75843 0.94284 0.05879 0.0
C411 C 0.75814 0.91588 0.04587 0.0
C412 C 0.73182 0.8953 1.00012 0.0
C413 C 0.77982 0.82502 0.97131 0.0
C414 C 0.76977 0.84823 0.98658 0.0
C415 C 0.75104 0.92505 0.02839 0.0
C416 C 0.75596 0.89736 0.01438 0.0
H417 H 0.83196 0.74999 0.96241 0.0
H418 H 0.80156 0.78016 0.98675 0.0
H419 H 0.71962 0.8701 0.97553 0.0
H420 H 0.73714 0.01667 0.03349 0.0
H421 H 0.73709 0.96957 0.0109 0.0
C422 C 0.77557 0.18122 0.04198 0.0
C423 C 0.79032 0.18464 0.05879 0.0
C424 C 0.79261 0.19798 0.02778 0.0
C425 C 0.86995 0.25966 0.01449 0.0
H426 H 0.87557 0.19129 0.97588 0.0
C427 C 0.98709 0.25652 0.9634 0.0
C428 C 0.978 0.24751 0.9461 0.0
C429 C 0.96023 0.25654 0.97641 0.0
C430 C 0.87384 0.21108 0.98638 0.0
H431 H 0.83288 0.21028 0.0742 0.0
H432 H 0.86364 0.23843 0.04935 0.0
H433 H 0.8347 0.17865 0.99996 0.0
H434 H 0.9332 0.23353 0.92873 0.0
H435 H 0.88647 0.23356 0.95142 0.0
H436 H 0.91083 0.29107 1.00101 0.0
C437 C 0.83843 0.22358 0.04708 0.0
C438 C 0.85019 0.20392 1.00023 0.0
C439 C 0.82082 0.20742 0.06137 0.0
C440 C 0.94122 0.24023 0.94195 0.0
C441 C 0.91444 0.24016 0.95496 0.0
C442 C 0.89396 0.26667 1.00062 0.0
C443 C 0.82542 0.21768 0.03001 0.0
C444 C 0.8481 0.22787 0.01458 0.0
C445 C 0.92378 0.24745 0.9724 0.0
C446 C 0.89638 0.24222 0.9865 0.0
H447 H 0.75181 0.16408 0.03969 0.0
H448 H 0.78107 0.19386 0.01492 0.0
H449 H 0.86883 0.27892 0.02521 0.0
H450 H 0.01515 0.26245 0.96701 0.0
H451 H 0.96834 0.26201 0.98975 0.0
C452 C 0.18127 0.22172 0.9574 0.0
C453 C 0.18303 0.20673 0.94058 0.0
C454 C 0.19845 0.20427 0.97136 0.0
C455 C 0.25843 0.12504 0.98388 0.0
H456 H 0.1927 0.12219 0.02358 0.0
C457 C 0.25544 0.00908 0.03566 0.0
C458 C 0.24811 0.01891 0.05304 0.0
C459 C 0.25523 0.03557 0.02247 0.0
C460 C 0.21177 0.12311 0.01276 0.0
H461 H 0.20618 0.16325 0.92487 0.0
H462 H 0.23506 0.1318 0.94934 0.0
H463 H 0.17968 0.16311 0.99957 0.0
H464 H 0.2369 0.0646 0.07034 0.0
H465 H 0.23654 0.11066 0.04736 0.0
H466 H 0.28943 0.08334 0.99701 0.0
C467 C 0.2212 0.1575 0.95178 0.0
C468 C 0.2044 0.14679 0.99895 0.0
C469 C 0.20463 0.1755 0.93772 0.0
C470 C 0.24227 0.056 0.05706 0.0
C471 C 0.24198 0.08242 0.04389 0.0
C472 C 0.26563 0.10099 0.99771 0.0
C473 C 0.21691 0.17081 0.96891 0.0
C474 C 0.2274 0.14793 0.98423 0.0
C475 C 0.24759 0.07239 0.0264 0.0
C476 C 0.24215 0.09959 0.01223 0.0
H477 H 0.16505 0.24602 0.9599 0.0
H478 H 0.19561 0.21604 0.98425 0.0
H479 H 0.27695 0.12539 0.97285 0.0
H480 H 0.26022 0.98075 0.03213 0.0
H481 H 0.25939 0.02694 0.0091 0.0
C482 C 0.05271 0.76368 0.95054 0.0
C483 C 0.01642 0.75148 0.95235 0.0
C484 C 0.07733 0.76088 0.96442 0.0
C485 C 0.07802 0.75663 0.01229 0.0
H486 H 0.18254 0.74463 0.00533 0.0
C487 C 0.17874 0.78773 0.0677 0.0
C488 C 0.20482 0.814 0.06267 0.0
C489 C 0.1591 0.7682 0.05506 0.0
C490 C 0.1534 0.74777 0.00751 0.0
H491 H 0.978 0.7251 0.9699 0.0
H492 H 0.02112 0.71986 0.99409 0.0
H493 H 0.14045 0.73271 0.98123 0.0
H494 H 0.23331 0.83784 0.04061 0.0
H495 H 0.1995 0.80372 0.01868 0.0
H496 H 0.09101 0.77293 0.03834 0.0
C497 C 0.03037 0.73219 0.98202 0.0
C498 C 0.12929 0.74112 0.99369 0.0
C499 C 0.00569 0.7351 0.96814 0.0
C500 C 0.21319 0.81795 0.04489 0.0
C501 C 0.19393 0.7982 0.0323 0.0
C502 C 0.10211 0.76311 0.02611 0.0
C503 C 0.06632 0.74566 0.98044 0.0
C504 C 0.0914 0.7467 0.99575 0.0
C505 C 0.16561 0.77425 0.0372 0.0
C506 C 0.14014 0.75995 0.02371 0.0
H507 H 0.06191 0.77641 0.93856 0.0
H508 H 0.1046 0.77205 0.96279 0.0
H509 H 0.04909 0.76158 0.01433 0.0
H510 H 0.17166 0.78412 0.08131 0.0
H511 H 0.13769 0.74962 0.05922 0.0
C512 C 0.60699 0.90711 0.62403 0.0
C513 C 0.63573 0.93098 0.61982 0.0
C514 C 0.57245 0.92106 0.62825 0.0
C515 C 0.52199 0.00594 0.63997 0.0
H516 H 0.44441 0.9628 0.61225 0.0
C517 C 0.3896 0.08284 0.6212 0.0
C518 C 0.35764 0.06236 0.61858 0.0
C519 C 0.42233 0.06521 0.62562 0.0
C520 C 0.46542 0.97478 0.62043 0.0
H521 H 0.65214 0.98778 0.6178 0.0
H522 H 0.59181 0.01228 0.625 0.0
H523 H 0.50426 0.93404 0.61285 0.0
H524 H 0.33353 0.0083 0.61964 0.0
H525 H 0.39027 0.97748 0.62786 0.0
H526 H 0.4832 0.04727 0.64718 0.0
C527 C 0.59574 0.98288 0.62513 0.0
C528 C 0.49982 0.95823 0.62076 0.0
C529 C 0.63014 0.96891 0.62084 0.0
C530 C 0.35813 0.02446 0.62144 0.0
C531 C 0.39063 0.00689 0.62604 0.0
C532 C 0.48742 0.02244 0.63972 0.0
C533 C 0.56628 0.9591 0.62843 0.0
C534 C 0.52869 0.97403 0.63022 0.0
C535 C 0.42341 0.02686 0.62761 0.0
C536 C 0.45894 0.00745 0.62965 0.0
H537 H 0.61084 0.87772 0.62333 0.0
H538 H 0.55032 0.90211 0.63091 0.0
H539 H 0.54368 0.01851 0.64752 0.0
H540 H 0.38965 0.11214 0.61898 0.0
H541 H 0.44709 0.08143 0.62657 0.0
C542 C 0.07926 0.60593 0.38027 0.0
C543 C 0.05944 0.63847 0.38242 0.0
C544 C 0.06109 0.57355 0.37576 0.0
C545 C 0.97094 0.53225 0.38152 0.0
H546 H 0.01049 0.45398 0.35303 0.0
C547 C 0.90172 0.39135 0.38042 0.0
C548 C 0.92584 0.36186 0.38259 0.0
C549 C 0.9152 0.42593 0.37592 0.0
C550 C -0.00089 0.47559 0.36105 0.0
H551 H 0.00604 0.66384 0.38047 0.0
H552 H 0.97423 0.60745 0.37242 0.0
H553 H 0.04044 0.51389 0.35313 0.0
H554 H 0.98237 0.3444 0.38105 0.0
H555 H 0.00619 0.40477 0.37367 0.0
H556 H 0.93071 0.49389 0.3901 0.0
C557 C 0.00358 0.60661 0.37447 0.0
C558 C 0.01625 0.50985 0.36108 0.0
C559 C 0.02172 0.63883 0.379 0.0
C560 C 0.96334 0.36693 0.37948 0.0
C561 C 0.97686 0.40143 0.37508 0.0
C562 C 0.95396 0.49805 0.38155 0.0
C563 C 0.02285 0.57339 0.37335 0.0
C564 C 0.0027 0.53832 0.37158 0.0
C565 C 0.95308 0.43156 0.37365 0.0
C566 C 0.96825 0.46907 0.3716 0.0
H567 H 0.10838 0.60516 0.38296 0.0
H568 H 0.07664 0.54833 0.37514 0.0
H569 H 0.96016 0.55341 0.38998 0.0
H570 H 0.87269 0.38801 0.38288 0.0
H571 H 0.8961 0.44847 0.3747 0.0
C572 C 0.63823 0.03327 0.12713 0.0
C573 C 0.63872 0.06966 0.12132 0.0
C574 C 0.60529 0.01669 0.13184 0.0
C575 C 0.50655 0.03354 0.14063 0.0
H576 H 0.49469 0.93948 0.11782 0.0
C577 C 0.36708 0.97545 0.1199 0.0
C578 C 0.36178 0.93741 0.11984 0.0
C579 C 0.40084 0.99024 0.12467 0.0
C580 C 0.49764 0.96529 0.12464 0.0
H581 H 0.60612 0.11803 0.11655 0.0
H582 H 0.54802 0.08899 0.12456 0.0
H583 H 0.55439 0.96858 0.11819 0.0
H584 H 0.38651 0.88494 0.12559 0.0
H585 H 0.44574 0.91078 0.13422 0.0
H586 H 0.44926 0.03064 0.14651 0.0
C587 C 0.57308 0.07334 0.12579 0.0
C588 C 0.53195 0.98205 0.12484 0.0
C589 C 0.6062 0.08998 0.12117 0.0
C590 C 0.39011 0.91439 0.12551 0.0
C591 C 0.42397 0.92918 0.13031 0.0
C592 C 0.47214 0.01671 0.14045 0.0
C593 C 0.57216 0.03614 0.13064 0.0
C594 C 0.53666 0.01671 0.13251 0.0
C595 C 0.42996 0.96724 0.12954 0.0
C596 C 0.46716 0.98278 0.13208 0.0
H597 H 0.66321 0.01723 0.12736 0.0
H598 H 0.60557 0.98822 0.1358 0.0
H599 H 0.50944 0.06004 0.14684 0.0
H600 H 0.34535 0.99376 0.11584 0.0
H601 H 0.40456 0.01961 0.12375 0.0
C602 C 0.03052 0.3672 0.87813 0.0
C603 C 0.06824 0.36173 0.88038 0.0
C604 C 0.017 0.4017 0.87374 0.0
C605 C 0.04167 0.49802 0.8791 0.0
H606 H 0.95262 0.51433 0.85261 0.0
C607 C 0.97455 0.63919 0.87813 0.0
C608 C 0.9371 0.63903 0.88217 0.0
C609 C 0.99212 0.6069 0.87323 0.0
C610 C 0.97753 0.51017 0.86002 0.0
H611 H 0.12171 0.38709 0.879 0.0
H612 H 0.09822 0.44759 0.87092 0.0
H613 H 0.98195 0.45414 0.85202 0.0
H614 H 0.88801 0.60603 0.88349 0.0
H615 H 0.91876 0.54907 0.87506 0.0
H616 H 0.03677 0.55348 0.88757 0.0
C617 C 0.07899 0.42535 0.87281 0.0
C618 C 0.99433 0.47576 0.8597 0.0
C619 C 0.09249 0.39076 0.87727 0.0
C620 C 0.91692 0.60663 0.88031 0.0
C621 C 0.93453 0.57418 0.87545 0.0
C622 C 0.02499 0.53236 0.87938 0.0
C623 C 0.041 0.43143 0.87147 0.0
C624 C 0.02612 0.46907 0.86957 0.0
C625 C 0.97255 0.5738 0.87237 0.0
C626 C 0.99232 0.53861 0.87016 0.0
H627 H 0.01137 0.34502 0.88036 0.0
H628 H 0.98761 0.40542 0.87303 0.0
H629 H 0.0657 0.49372 0.88712 0.0
H630 H 0.99047 0.6641 0.87938 0.0
H631 H 0.02129 0.60761 0.87066 0.0
C632 C 0.11651 0.07856 0.62362 0.0
C633 C 0.13985 0.06219 0.6113 0.0
C634 C 0.08235 0.06318 0.62735 0.0
C635 C 0.00313 0.04052 0.62134 0.0
H636 H 0.98743 0.93553 0.62287 0.0
C637 C 0.86614 0.97273 0.60376 0.0
C638 C 0.85512 0.94112 0.61283 0.0
C639 C 0.89998 0.98895 0.60719 0.0
C640 C 0.99134 0.96494 0.62276 0.0
H641 H 0.14615 0.01594 0.59375 0.0
H642 H 0.08658 0.98939 0.60015 0.0
H643 H 0.04973 0.95961 0.62279 0.0
H644 H 0.87053 0.90284 0.63319 0.0
H645 H 0.92957 0.9313 0.6392 0.0
H646 H 0.94474 0.04582 0.62101 0.0
C647 C 0.09477 0.01395 0.60705 0.0
C648 C 0.02702 0.9787 0.62252 0.0
C649 C 0.12882 0.02937 0.60327 0.0
C650 C 0.87813 0.92702 0.62591 0.0
C651 C 0.91208 0.94321 0.6293 0.0
C652 C 0.96745 0.02676 0.62154 0.0
C653 C 0.07089 0.03102 0.6189 0.0
C654 C 0.03329 0.01659 0.62141 0.0
C655 C 0.92363 0.97395 0.61975 0.0
C656 C 0.96118 0.98879 0.62185 0.0
H657 H 0.12403 0.10387 0.63 0.0
H658 H 0.06465 0.07676 0.63667 0.0
H659 H 0.00705 0.06986 0.62035 0.0
H660 H 0.84907 0.98445 0.59364 0.0
H661 H 0.90823 0.01238 0.59946 0.0
C662 C 0.0774 0.87842 0.3778 0.0
C663 C 0.06114 0.85618 0.39063 0.0
C664 C 0.06259 0.91272 0.37381 0.0
C665 C 0.97933 0.96978 0.37879 0.0
H666 H 0.04765 0.05113 0.37905 0.0
C667 C 0.97612 0.13054 0.39731 0.0
C668 C 0.9439 0.14167 0.38879 0.0
C669 C 0.99204 0.09672 0.39353 0.0
C670 C 0.02826 0.02868 0.37886 0.0
H671 H 0.0157 0.85194 0.40878 0.0
H672 H 0.99013 0.91164 0.40189 0.0
H673 H 0.07084 0.98848 0.37989 0.0
H674 H 0.90422 0.12673 0.36893 0.0
H675 H 0.93218 0.06764 0.36233 0.0
H676 H 0.93671 0.00992 0.37864 0.0
C677 C 0.01416 0.90254 0.39483 0.0
C678 C 0.04153 0.9928 0.37916 0.0
C679 C 0.02902 0.86839 0.39888 0.0
C680 C 0.92892 0.11893 0.37581 0.0
C681 C 0.94481 0.085 0.37208 0.0
C682 C 0.96606 0.00563 0.37844 0.0
C683 C 0.0311 0.92533 0.38247 0.0
C684 C 0.01717 0.96301 0.3796 0.0
C685 C 0.9761 0.07322 0.38116 0.0
C686 C 0.99036 0.03547 0.37893 0.0
H687 H 0.10212 0.86979 0.37116 0.0
H688 H 0.07604 0.92959 0.36411 0.0
H689 H 0.95991 0.94734 0.37891 0.0
H690 H 0.98849 0.14743 0.40732 0.0
H691 H 0.0159 0.0883 0.4009 0.0
C692 C 0.13175 0.97591 0.10395 0.0
C693 C 0.14355 0.94483 0.11321 0.0
C694 C 0.09802 0.99207 0.10768 0.0
C695 C 0.00787 0.96793 0.12465 0.0
H696 H 0.99077 0.07248 0.12104 0.0
C697 C 0.88113 0.07984 0.12451 0.0
C698 C 0.85814 0.06253 0.11232 0.0
C699 C 0.91552 0.06515 0.12844 0.0
C700 C 0.9951 0.04327 0.12238 0.0
H701 H 0.12976 0.90755 0.13425 0.0
H702 H 0.07088 0.93584 0.14074 0.0
H703 H 0.05341 0.04923 0.12145 0.0
H704 H 0.85255 0.0153 0.09532 0.0
H705 H 0.9124 0.98991 0.1021 0.0
H706 H 0.94956 0.96192 0.12522 0.0
C707 C 0.08765 0.94737 0.13047 0.0
C708 C 0.03095 0.02994 0.12243 0.0
C709 C 0.12149 0.93126 0.12678 0.0
C710 C 0.86961 0.02944 0.10471 0.0
C711 C 0.90384 0.0147 0.1087 0.0
C712 C 0.97203 0.98125 0.12455 0.0
C713 C 0.07527 0.97753 0.12074 0.0
C714 C 0.03769 0.99208 0.12314 0.0
C715 C 0.92744 0.03273 0.12036 0.0
C716 C 0.96525 0.01898 0.12297 0.0
H717 H 0.14809 0.98724 0.09347 0.0
H718 H 0.08911 0.01504 0.09981 0.0
H719 H 0.01212 0.93859 0.12509 0.0
H720 H 0.87307 0.1053 0.13066 0.0
H721 H 0.93301 0.07943 0.1376 0.0
C722 C 0.97105 0.86837 0.8991 0.0
C723 C 0.93887 0.85633 0.89083 0.0
C724 C 0.98649 0.90214 0.89483 0.0
C725 C 0.02252 0.96858 0.87866 0.0
H726 H 0.95497 0.0505 0.87758 0.0
C727 C 0.07395 0.11771 0.87544 0.0
C728 C 0.05811 0.14089 0.888 0.0
C729 C 0.05836 0.08358 0.87177 0.0
C730 C 0.97416 0.02789 0.87777 0.0
H731 H 0.89843 0.86984 0.8711 0.0
H732 H 0.92555 0.92893 0.86364 0.0
H733 H 0.93115 0.98815 0.87865 0.0
H734 H 0.01247 0.14709 0.90592 0.0
H735 H 0.98564 0.08769 0.89964 0.0
H736 H 0.06552 0.00837 0.87871 0.0
C737 C 0.93857 0.91226 0.87354 0.0
C738 C 0.96054 0.99216 0.8782 0.0
C739 C 0.92315 0.87835 0.87777 0.0
C740 C 0.02552 0.12988 0.89623 0.0
C741 C 0.00991 0.0959 0.89252 0.0
C742 C 0.03615 0.00431 0.87821 0.0
C743 C 0.97012 0.92473 0.88221 0.0
C744 C 0.98457 0.96216 0.87914 0.0
C745 C 0.02652 0.07207 0.8805 0.0
C746 C 0.0121 0.03437 0.87825 0.0
H747 H 0.98397 0.85209 0.90918 0.0
H748 H 0.01051 0.91115 0.90193 0.0
H749 H 0.04172 0.94599 0.87915 0.0
H750 H 0.09898 0.12542 0.8688 0.0
H751 H 0.07156 0.06593 0.86231 0.0
C752 C 0.23378 0.23433 0.68426 0.0
C753 C 0.2324 0.19939 0.67665 0.0
C754 C 0.23123 0.23847 0.70237 0.0
C755 C 0.23921 0.18554 0.74392 0.0
H756 H 0.18694 0.26859 0.76325 0.0
C757 C 0.19362 0.19499 0.81609 0.0
C758 C 0.2019 0.22789 0.8247 0.0
C759 C 0.1987 0.19188 0.79808 0.0
C760 C 0.20183 0.2454 0.75801 0.0
H761 H 0.2302 0.14119 0.68221 0.0
H762 H 0.22316 0.14832 0.71346 0.0
H763 H 0.19278 0.26247 0.73169 0.0
H764 H 0.22232 0.28315 0.82142 0.0
H765 H 0.23053 0.27796 0.78979 0.0
H766 H 0.24705 0.16799 0.77034 0.0
C767 C 0.22642 0.17272 0.70559 0.0
C768 C 0.20537 0.24193 0.73992 0.0
C769 C 0.22952 0.16862 0.68755 0.0
C770 C 0.21566 0.25752 0.81504 0.0
C771 C 0.22015 0.25463 0.79698 0.0
C772 C 0.23514 0.18874 0.76198 0.0
C773 C 0.22725 0.2077 0.7133 0.0
C774 C 0.22406 0.21189 0.7326 0.0
C775 C 0.21173 0.22177 0.78834 0.0
C776 C 0.2164 0.21867 0.76919 0.0
H777 H 0.23676 0.25851 0.6762 0.0
H778 H 0.23284 0.26579 0.70779 0.0
H779 H 0.25454 0.16248 0.73888 0.0
H780 H 0.18353 0.17156 0.8233 0.0
H781 H 0.19193 0.16627 0.79171 0.0
C782 C 0.23234 0.76614 0.18515 0.0
C783 C 0.22835 0.80126 0.17789 0.0
C784 C 0.22807 0.76068 0.20311 0.0
C785 C 0.18549 0.80055 0.24204 0.0
H786 H 0.25875 0.74593 0.26778 0.0
C787 C 0.18663 0.79861 0.31718 0.0
C788 C 0.1969 0.76608 0.3256 0.0
C789 C 0.19048 0.80213 0.29912 0.0
C790 C 0.23768 0.76076 0.2608 0.0
H791 H 0.21956 0.85861 0.18404 0.0
H792 H 0.21055 0.84883 0.21515 0.0
H793 H 0.26458 0.7525 0.23625 0.0
H794 H 0.21971 0.71193 0.3219 0.0
H795 H 0.22545 0.71747 0.2903 0.0
H796 H 0.1581 0.80833 0.26638 0.0
C797 C 0.21612 0.8254 0.2069 0.0
C798 C 0.24113 0.76459 0.24272 0.0
C799 C 0.22086 0.83091 0.18902 0.0
C800 C 0.21159 0.73732 0.31569 0.0
C801 C 0.21503 0.74062 0.29759 0.0
C802 C 0.18176 0.79636 0.26006 0.0
C803 C 0.21968 0.79025 0.21414 0.0
C804 C 0.21524 0.78479 0.23319 0.0
C805 C 0.20445 0.77307 0.28904 0.0
C806 C 0.20798 0.77669 0.26973 0.0
H807 H 0.23865 0.74285 0.17693 0.0
H808 H 0.23098 0.73328 0.20835 0.0
H809 H 0.16488 0.8159 0.23497 0.0
H810 H 0.17614 0.82158 0.32458 0.0
H811 H 0.18291 0.82788 0.29312 0.0
C812 C 0.7858 0.73883 0.81684 0.0
C813 C 0.80029 0.76785 0.82665 0.0
C814 C 0.78243 0.74179 0.79873 0.0
C815 C 0.81541 0.79737 0.76103 0.0
H816 H 0.73389 0.75128 0.73714 0.0
C817 C 0.77628 0.82933 0.68967 0.0
C818 C 0.77051 0.7991 0.67865 0.0
C819 C 0.78069 0.82445 0.70761 0.0
C820 C 0.75696 0.76401 0.74364 0.0
H821 H 0.8208 0.82341 0.82544 0.0
H822 H 0.81395 0.82921 0.79395 0.0
H823 H 0.73928 0.74561 0.76873 0.0
H824 H 0.76275 0.74028 0.67795 0.0
H825 H 0.7697 0.73182 0.70948 0.0
H826 H 0.83224 0.81672 0.73589 0.0
C827 C 0.80654 0.8035 0.80004 0.0
C828 C 0.76018 0.76069 0.76175 0.0
C829 C 0.81039 0.80029 0.81811 0.0
C830 C 0.76776 0.76402 0.68608 0.0
C831 C 0.77162 0.75918 0.7041 0.0
C832 C 0.81186 0.80111 0.74297 0.0
C833 C 0.79282 0.77417 0.79005 0.0
C834 C 0.78944 0.77738 0.77071 0.0
C835 C 0.77842 0.78935 0.71501 0.0
C836 C 0.78259 0.78451 0.7341 0.0
H837 H 0.77786 0.71348 0.82314 0.0
H838 H 0.77225 0.71841 0.79152 0.0
H839 H 0.83876 0.80993 0.76734 0.0
H840 H 0.77652 0.85693 0.68454 0.0
H841 H 0.78503 0.84827 0.71578 0.0
C842 C 0.82592 0.24346 0.31321 0.0
C843 C 0.80343 0.22254 0.3242 0.0
C844 C 0.82209 0.24123 0.2951 0.0
C845 C 0.75683 0.21268 0.26055 0.0
H846 H 0.84358 0.21341 0.23137 0.0
C847 C 0.75295 0.17819 0.18701 0.0
C848 C 0.77413 0.20014 0.17588 0.0
C849 C 0.75612 0.18166 0.20509 0.0
C850 C 0.81908 0.21355 0.23934 0.0
H851 H 0.75861 0.18384 0.32509 0.0
H852 H 0.75225 0.1792 0.29343 0.0
H853 H 0.84999 0.21754 0.26296 0.0
H854 H 0.8141 0.24383 0.17473 0.0
H855 H 0.81983 0.24995 0.20643 0.0
H856 H 0.726 0.20819 0.23689 0.0
C857 C 0.77273 0.19756 0.29871 0.0
C858 C 0.82272 0.21597 0.25745 0.0
C859 C 0.77647 0.19999 0.31683 0.0
C860 C 0.79784 0.22629 0.18309 0.0
C861 C 0.80124 0.22962 0.2012 0.0
C862 C 0.75321 0.21004 0.24245 0.0
C863 C 0.79555 0.21811 0.2876 0.0
C864 C 0.79164 0.21556 0.2683 0.0
C865 C 0.78048 0.20724 0.2124 0.0
C866 C 0.78429 0.21044 0.23164 0.0
H867 H 0.84601 0.2621 0.31862 0.0
H868 H 0.83952 0.25813 0.28699 0.0
H869 H 0.73225 0.21294 0.26846 0.0
H870 H 0.73364 0.1586 0.18172 0.0
H871 H 0.7398 0.16398 0.21336 0.0
loop_
_geom_bond_atom_site_label_1
_geom_bond_atom_site_label_2
_geom_bond_distance
_geom_bond_site_symmetry_2
_ccdc_geom_bond_type
Co0 O3 1.970 . S
Co0 N17 1.989 . S
Co0 O25 1.967 . S
Co0 O32 1.920 . S
Co1 O4 1.966 . S
Co1 N10 2.022 . S
Co1 N18 1.993 . S
Co1 O26 1.941 . S
C2 O3 1.258 . S
C2 O4 1.263 . S
O3 Co0 1.970 . S
O3 C2 1.258 . S
O4 Co1 1.966 . S
O4 C2 1.263 . S
C5 O6 1.235 1_545 S
C5 O32 1.289 . S
O6 C5 1.235 1_565 S
C7 C9 1.400 . S
C7 N10 1.351 . S
C7 C12 1.501 . S
C8 C9 1.387 . S
C8 N11 1.341 . S
C9 C7 1.400 . S
C9 C8 1.387 . S
N10 Co1 2.022 . S
N10 C7 1.351 . S
N10 N11 1.365 . S
N11 C8 1.341 . S
N11 N10 1.365 . S
N11 H31 0.862 . S
C12 C7 1.501 . S
C12 H13 0.961 . S
C12 H14 0.961 . S
C12 H15 0.960 . S
H13 C12 0.961 . S
H14 C12 0.961 . S
H15 C12 0.960 . S
C16 N17 1.342 . S
C16 C20 1.401 . S
C16 C21 1.499 . S
N17 Co0 1.989 . S
N17 C16 1.342 . S
N17 N18 1.388 . S
N18 Co1 1.993 . S
N18 N17 1.388 . S
N18 C19 1.346 . S
C19 N18 1.346 . S
C19 C20 1.396 . S
C19 C29 1.510 . S
C20 C16 1.401 . S
C20 C19 1.396 . S
C21 C16 1.499 . S
C21 H22 0.959 . S
C21 H23 0.960 . S
C21 H24 0.961 . S
H22 C21 0.959 . S
H23 C21 0.960 . S
H24 C21 0.961 . S
O25 Co0 1.967 . S
O25 C33 1.258 . S
O26 Co1 1.941 . S
O26 C33 1.266 . S
H27 C29 0.959 . S
H28 C29 0.961 . S
C29 C19 1.510 . S
C29 H27 0.959 . S
C29 H28 0.961 . S
C29 H30 0.960 . S
H30 C29 0.960 . S
H31 N11 0.862 . S
O32 Co0 1.920 . S
O32 C5 1.289 . S
C33 O25 1.258 . S
C33 O26 1.266 . S
Co34 O37 1.970 . S
Co34 N51 1.989 . S
Co34 O59 1.967 . S
Co34 O66 1.920 . S
Co35 O38 1.966 . S
Co35 N44 2.022 . S
Co35 N52 1.993 . S
Co35 O60 1.941 . S
C36 O37 1.258 . S
C36 O38 1.263 . S
O37 Co34 1.970 . S
O37 C36 1.258 . S
O38 Co35 1.966 . S
O38 C36 1.263 . S
C39 O40 1.235 1_455 S
C39 O66 1.289 . S
O40 C39 1.235 1_655 S
C41 C43 1.400 . S
C41 N44 1.351 . S
C41 C46 1.501 . S
C42 C43 1.387 . S
C42 N45 1.341 . S
C43 C41 1.400 . S
C43 C42 1.387 . S
N44 Co35 2.022 . S
N44 C41 1.351 . S
N44 N45 1.365 . S
N45 C42 1.341 . S
N45 N44 1.365 . S
N45 H65 0.862 . S
C46 C41 1.501 . S
C46 H47 0.961 . S
C46 H48 0.961 . S
C46 H49 0.960 . S
H47 C46 0.961 . S
H48 C46 0.961 . S
H49 C46 0.960 . S
C50 N51 1.342 . S
C50 C54 1.401 . S
C50 C55 1.499 . S
N51 Co34 1.989 . S
N51 C50 1.342 . S
N51 N52 1.388 . S
N52 Co35 1.993 . S
N52 N51 1.388 . S
N52 C53 1.346 . S
C53 N52 1.346 . S
C53 C54 1.396 . S
C53 C63 1.510 . S
C54 C50 1.401 . S
C54 C53 1.396 . S
C55 C50 1.499 . S
C55 H56 0.959 . S
C55 H57 0.960 . S
C55 H58 0.961 . S
H56 C55 0.959 . S
H57 C55 0.960 . S
H58 C55 0.961 . S
O59 Co34 1.967 . S
O59 C67 1.258 . S
O60 Co35 1.941 . S
O60 C67 1.266 . S
H61 C63 0.959 . S
H62 C63 0.961 . S
C63 C53 1.510 . S
C63 H61 0.959 . S
C63 H62 0.961 . S
C63 H64 0.960 . S
H64 C63 0.960 . S
H65 N45 0.862 . S
O66 Co34 1.920 . S
O66 C39 1.289 . S
C67 O59 1.258 . S
C67 O60 1.266 . S
Co68 O71 1.970 . S
Co68 N85 1.989 . S
Co68 O93 1.967 . S
Co68 O100 1.920 . S
Co69 O72 1.966 . S
Co69 N78 2.022 . S
Co69 N86 1.993 . S
Co69 O94 1.941 . S
C70 O71 1.258 . S
C70 O72 1.263 . S
O71 Co68 1.970 . S
O71 C70 1.258 . S
O72 Co69 1.966 . S
O72 C70 1.263 . S
C73 O74 1.235 1_565 S
C73 O100 1.289 . S
O74 C73 1.235 1_545 S
C75 C77 1.400 . S
C75 N78 1.351 . S
C75 C80 1.501 . S
C76 C77 1.387 . S
C76 N79 1.341 . S
C77 C75 1.400 . S
C77 C76 1.387 . S
N78 Co69 2.022 . S
N78 C75 1.351 . S
N78 N79 1.365 . S
N79 C76 1.341 . S
N79 N78 1.365 . S
N79 H99 0.862 . S
C80 C75 1.501 . S
C80 H81 0.961 . S
C80 H82 0.961 . S
C80 H83 0.960 . S
H81 C80 0.961 . S
H82 C80 0.961 . S
H83 C80 0.960 . S
C84 N85 1.342 . S
C84 C88 1.401 . S
C84 C89 1.499 . S
N85 Co68 1.989 . S
N85 C84 1.342 . S
N85 N86 1.388 . S
N86 Co69 1.993 . S
N86 N85 1.388 . S
N86 C87 1.346 . S
C87 N86 1.346 . S
C87 C88 1.396 . S
C87 C97 1.510 . S
C88 C84 1.401 . S
C88 C87 1.396 . S
C89 C84 1.499 . S
C89 H90 0.959 . S
C89 H91 0.960 . S
C89 H92 0.961 . S
H90 C89 0.959 . S
H91 C89 0.960 . S
H92 C89 0.961 . S
O93 Co68 1.967 . S
O93 C101 1.258 . S
O94 Co69 1.941 . S
O94 C101 1.266 . S
H95 C97 0.959 . S
H96 C97 0.961 . S
C97 C87 1.510 . S
C97 H95 0.959 . S
C97 H96 0.961 . S
C97 H98 0.960 . S
H98 C97 0.960 . S
H99 N79 0.862 . S
O100 Co68 1.920 . S
O100 C73 1.289 . S
C101 O93 1.258 . S
C101 O94 1.266 . S
Co102 O105 1.970 . S
Co102 N119 1.989 . S
Co102 O127 1.967 . S
Co102 O134 1.920 . S
Co103 O106 1.966 . S
Co103 N112 2.022 . S
Co103 N120 1.993 . S
Co103 O128 1.941 . S
C104 O105 1.258 . S
C104 O106 1.263 . S
O105 Co102 1.970 . S
O105 C104 1.258 . S
O106 Co103 1.966 . S
O106 C104 1.263 . S
C107 O108 1.235 1_655 S
C107 O134 1.289 . S
O108 C107 1.235 1_455 S
C109 C111 1.400 . S
C109 N112 1.351 . S
C109 C114 1.501 . S
C110 C111 1.387 . S
C110 N113 1.341 . S
C111 C109 1.400 . S
C111 C110 1.387 . S
N112 Co103 2.022 . S
N112 C109 1.351 . S
N112 N113 1.365 . S
N113 C110 1.341 . S
N113 N112 1.365 . S
N113 H133 0.862 . S
C114 C109 1.501 . S
C114 H115 0.961 . S
C114 H116 0.961 . S
C114 H117 0.960 . S
H115 C114 0.961 . S
H116 C114 0.961 . S
H117 C114 0.960 . S
C118 N119 1.342 . S
C118 C122 1.401 . S
C118 C123 1.499 . S
N119 Co102 1.989 . S
N119 C118 1.342 . S
N119 N120 1.388 . S
N120 Co103 1.993 . S
N120 N119 1.388 . S
N120 C121 1.346 . S
C121 N120 1.346 . S
C121 C122 1.396 . S
C121 C131 1.510 . S
C122 C118 1.401 . S
C122 C121 1.396 . S
C123 C118 1.499 . S
C123 H124 0.959 . S
C123 H125 0.960 . S
C123 H126 0.961 . S
H124 C123 0.959 . S
H125 C123 0.960 . S
H126 C123 0.961 . S
O127 Co102 1.967 . S
O127 C135 1.258 . S
O128 Co103 1.941 . S
O128 C135 1.266 . S
H129 C131 0.959 . S
H130 C131 0.961 . S
C131 C121 1.510 . S
C131 H129 0.959 . S
C131 H130 0.961 . S
C131 H132 0.960 . S
H132 C131 0.960 . S
H133 N113 0.862 . S
O134 Co102 1.920 . S
O134 C107 1.289 . S
C135 O127 1.258 . S
C135 O128 1.266 . S
Co136 O139 1.970 . S
Co136 N153 1.989 . S
Co136 O161 1.967 . S
Co136 O168 1.920 . S
Co137 O140 1.966 . S
Co137 N146 2.022 . S
Co137 N154 1.993 . S
Co137 O162 1.941 . S
C138 O139 1.258 . S
C138 O140 1.263 . S
O139 Co136 1.970 . S
O139 C138 1.258 . S
O140 Co137 1.966 . S
O140 C138 1.263 . S
C141 O142 1.235 1_545 S
C141 O168 1.289 . S
O142 C141 1.235 1_565 S
C143 C145 1.400 . S
C143 N146 1.351 . S
C143 C148 1.501 . S
C144 C145 1.387 . S
C144 N147 1.341 . S
C145 C143 1.400 . S
C145 C144 1.387 . S
N146 Co137 2.022 . S
N146 C143 1.351 . S
N146 N147 1.365 . S
N147 C144 1.341 . S
N147 N146 1.365 . S
N147 H167 0.862 . S
C148 C143 1.501 . S
C148 H149 0.961 . S
C148 H150 0.961 . S
C148 H151 0.960 . S
H149 C148 0.961 . S
H150 C148 0.961 . S
H151 C148 0.960 . S
C152 N153 1.342 . S
C152 C156 1.401 . S
C152 C157 1.499 . S
N153 Co136 1.989 . S
N153 C152 1.342 . S
N153 N154 1.388 . S
N154 Co137 1.993 . S
N154 N153 1.388 . S
N154 C155 1.346 . S
C155 N154 1.346 . S
C155 C156 1.396 . S
C155 C165 1.510 . S
C156 C152 1.401 . S
C156 C155 1.396 . S
C157 C152 1.499 . S
C157 H158 0.959 . S
C157 H159 0.960 . S
C157 H160 0.961 . S
H158 C157 0.959 . S
H159 C157 0.960 . S
H160 C157 0.961 . S
O161 Co136 1.967 . S
O161 C169 1.258 . S
O162 Co137 1.941 . S
O162 C169 1.266 . S
H163 C165 0.959 . S
H164 C165 0.961 . S
C165 C155 1.510 . S
C165 H163 0.959 . S
C165 H164 0.961 . S
C165 H166 0.960 . S
H166 C165 0.960 . S
H167 N147 0.862 . S
O168 Co136 1.920 . S
O168 C141 1.289 . S
C169 O161 1.258 . S
C169 O162 1.266 . S
Co170 O173 1.970 . S
Co170 N187 1.989 . S
Co170 O195 1.967 . S
Co170 O202 1.920 . S
Co171 O174 1.966 . S
Co171 N180 2.022 . S
Co171 N188 1.993 . S
Co171 O196 1.941 . S
C172 O173 1.258 . S
C172 O174 1.263 . S
O173 Co170 1.970 . S
O173 C172 1.258 . S
O174 Co171 1.966 . S
O174 C172 1.263 . S
C175 O176 1.235 1_455 S
C175 O202 1.289 . S
O176 C175 1.235 1_655 S
C177 C179 1.400 . S
C177 N180 1.351 . S
C177 C182 1.501 . S
C178 C179 1.387 . S
C178 N181 1.341 . S
C179 C177 1.400 . S
C179 C178 1.387 . S
N180 Co171 2.022 . S
N180 C177 1.351 . S
N180 N181 1.365 . S
N181 C178 1.341 . S
N181 N180 1.365 . S
N181 H201 0.862 . S
C182 C177 1.501 . S
C182 H183 0.961 . S
C182 H184 0.961 . S
C182 H185 0.960 . S
H183 C182 0.961 . S
H184 C182 0.961 . S
H185 C182 0.960 . S
C186 N187 1.342 . S
C186 C190 1.401 . S
C186 C191 1.499 . S
N187 Co170 1.989 . S
N187 C186 1.342 . S
N187 N188 1.388 . S
N188 Co171 1.993 . S
N188 N187 1.388 . S
N188 C189 1.346 . S
C189 N188 1.346 . S
C189 C190 1.396 . S
C189 C199 1.510 . S
C190 C186 1.401 . S
C190 C189 1.396 . S
C191 C186 1.499 . S
C191 H192 0.959 . S
C191 H193 0.960 . S
C191 H194 0.961 . S
H192 C191 0.959 . S
H193 C191 0.960 . S
H194 C191 0.961 . S
O195 Co170 1.967 . S
O195 C203 1.258 . S
O196 Co171 1.941 . S
O196 C203 1.266 . S
H197 C199 0.959 . S
H198 C199 0.961 . S
C199 C189 1.510 . S
C199 H197 0.959 . S
C199 H198 0.961 . S
C199 H200 0.960 . S
H200 C199 0.960 . S
H201 N181 0.862 . S
O202 Co170 1.920 . S
O202 C175 1.289 . S
C203 O195 1.258 . S
C203 O196 1.266 . S
Co204 O207 1.970 . S
Co204 N221 1.989 . S
Co204 O229 1.967 . S
Co204 O236 1.920 . S
Co205 O208 1.966 . S
Co205 N214 2.022 . S
Co205 N222 1.993 . S
Co205 O230 1.941 . S
C206 O207 1.258 . S
C206 O208 1.263 . S
O207 Co204 1.970 . S
O207 C206 1.258 . S
O208 Co205 1.966 . S
O208 C206 1.263 . S
C209 O210 1.235 1_565 S
C209 O236 1.289 . S
O210 C209 1.235 1_545 S
C211 C213 1.400 . S
C211 N214 1.351 . S
C211 C216 1.501 . S
C212 C213 1.387 . S
C212 N215 1.341 . S
C213 C211 1.400 . S
C213 C212 1.387 . S
N214 Co205 2.022 . S
N214 C211 1.351 . S
N214 N215 1.365 . S
N215 C212 1.341 . S
N215 N214 1.365 . S
N215 H235 0.862 . S
C216 C211 1.501 . S
C216 H217 0.961 . S
C216 H218 0.961 . S
C216 H219 0.960 . S
H217 C216 0.961 . S
H218 C216 0.961 . S
H219 C216 0.960 . S
C220 N221 1.342 . S
C220 C224 1.401 . S
C220 C225 1.499 . S
N221 Co204 1.989 . S
N221 C220 1.342 . S
N221 N222 1.388 . S
N222 Co205 1.993 . S
N222 N221 1.388 . S
N222 C223 1.346 . S
C223 N222 1.346 . S
C223 C224 1.396 . S
C223 C233 1.510 . S
C224 C220 1.401 . S
C224 C223 1.396 . S
C225 C220 1.499 . S
C225 H226 0.959 . S
C225 H227 0.960 . S
C225 H228 0.961 . S
H226 C225 0.959 . S
H227 C225 0.960 . S
H228 C225 0.961 . S
O229 Co204 1.967 . S
O229 C237 1.258 . S
O230 Co205 1.941 . S
O230 C237 1.266 . S
H231 C233 0.959 . S
H232 C233 0.961 . S
C233 C223 1.510 . S
C233 H231 0.959 . S
C233 H232 0.961 . S
C233 H234 0.960 . S
H234 C233 0.960 . S
H235 N215 0.862 . S
O236 Co204 1.920 . S
O236 C209 1.289 . S
C237 O229 1.258 . S
C237 O230 1.266 . S
Co238 O241 1.970 . S
Co238 N255 1.989 . S
Co238 O263 1.967 . S
Co238 O270 1.920 . S
Co239 O242 1.966 . S
Co239 N248 2.022 . S
Co239 N256 1.993 . S
Co239 O264 1.941 . S
C240 O241 1.258 . S
C240 O242 1.263 . S
O241 Co238 1.970 . S
O241 C240 1.258 . S
O242 Co239 1.966 . S
O242 C240 1.263 . S
C243 O244 1.235 1_655 S
C243 O270 1.289 . S
O244 C243 1.235 1_455 S
C245 C247 1.400 . S
C245 N248 1.351 . S
C245 C250 1.501 . S
C246 C247 1.387 . S
C246 N249 1.341 . S
C247 C245 1.400 . S
C247 C246 1.387 . S
N248 Co239 2.022 . S
N248 C245 1.351 . S
N248 N249 1.365 . S
N249 C246 1.341 . S
N249 N248 1.365 . S
N249 H269 0.862 . S
C250 C245 1.501 . S
C250 H251 0.961 . S
C250 H252 0.961 . S
C250 H253 0.960 . S
H251 C250 0.961 . S
H252 C250 0.961 . S
H253 C250 0.960 . S
C254 N255 1.342 . S
C254 C258 1.401 . S
C254 C259 1.499 . S
N255 Co238 1.989 . S
N255 C254 1.342 . S
N255 N256 1.388 . S
N256 Co239 1.993 . S
N256 N255 1.388 . S
N256 C257 1.346 . S
C257 N256 1.346 . S
C257 C258 1.396 . S
C257 C267 1.510 . S
C258 C254 1.401 . S
C258 C257 1.396 . S
C259 C254 1.499 . S
C259 H260 0.959 . S
C259 H261 0.960 . S
C259 H262 0.961 . S
H260 C259 0.959 . S
H261 C259 0.960 . S
H262 C259 0.961 . S
O263 Co238 1.967 . S
O263 C271 1.258 . S
O264 Co239 1.941 . S
O264 C271 1.266 . S
H265 C267 0.959 . S
H266 C267 0.961 . S
C267 C257 1.510 . S
C267 H265 0.959 . S
C267 H266 0.961 . S
C267 H268 0.960 . S
H268 C267 0.960 . S
H269 N249 0.862 . S
O270 Co238 1.920 . S
O270 C243 1.289 . S
C271 O263 1.258 . S
C271 O264 1.266 . S
C272 C273 1.349 1_565 S
C272 C274 1.327 . S
C272 H297 0.950 . S
C273 C272 1.349 1_545 S
C273 C289 1.349 . S
C274 C272 1.327 . S
C274 C293 1.429 . S
C274 H298 0.950 . S
C275 C292 1.574 . S
C275 C294 1.368 . S
C275 H299 0.949 . S
H276 C280 0.949 . S
C277 C278 1.349 . S
C277 C279 1.327 . S
C277 H300 0.950 . S
C278 C277 1.349 . S
C278 C290 1.349 . S
C279 C277 1.327 . S
C279 C295 1.429 . S
C279 H301 0.950 . S
C280 H276 0.949 . S
C280 C288 1.574 . S
C280 C296 1.368 . S
H281 C289 0.950 . S
H282 C287 0.950 . S
H283 C288 0.949 . S
H284 C290 0.950 . S
H285 C291 0.950 . S
H286 C292 0.949 . S
C287 H282 0.950 . S
C287 C289 1.327 1_565 S
C287 C293 1.429 . S
C288 C280 1.574 . S
C288 H283 0.949 . S
C288 C294 1.368 . S
C289 C273 1.349 . S
C289 H281 0.950 . S
C289 C287 1.327 1_545 S
C290 C278 1.349 . S
C290 H284 0.950 . S
C290 C291 1.327 . S
C291 H285 0.950 . S
C291 C290 1.327 . S
C291 C295 1.429 . S
C292 C275 1.574 . S
C292 H286 0.949 . S
C292 C296 1.368 . S
C293 C274 1.429 . S
C293 C287 1.429 . S
C293 C294 1.523 . S
C294 C275 1.368 . S
C294 C288 1.368 . S
C294 C293 1.523 . S
C295 C279 1.429 . S
C295 C291 1.429 . S
C295 C296 1.523 . S
C296 C280 1.368 . S
C296 C292 1.368 . S
C296 C295 1.523 . S
H297 C272 0.950 . S
H298 C274 0.950 . S
H299 C275 0.949 . S
H300 C277 0.950 . S
H301 C279 0.950 . S
C302 C303 1.349 . S
C302 C304 1.327 . S
C302 H327 0.950 . S
C303 C302 1.349 . S
C303 C319 1.349 . S
C304 C302 1.327 . S
C304 C323 1.429 . S
C304 H328 0.950 . S
C305 C322 1.574 . S
C305 C324 1.368 . S
C305 H329 0.949 . S
H306 C310 0.949 . S
C307 C308 1.349 1_655 S
C307 C309 1.327 . S
C307 H330 0.950 . S
C308 C307 1.349 1_455 S
C308 C320 1.349 . S
C309 C307 1.327 . S
C309 C325 1.429 . S
C309 H331 0.950 . S
C310 H306 0.949 . S
C310 C318 1.574 . S
C310 C326 1.368 . S
H311 C319 0.950 . S
H312 C317 0.950 . S
H313 C318 0.949 . S
H314 C320 0.950 . S
H315 C321 0.950 . S
H316 C322 0.949 . S
C317 H312 0.950 . S
C317 C319 1.327 . S
C317 C323 1.429 . S
C318 C310 1.574 . S
C318 H313 0.949 . S
C318 C324 1.368 . S
C319 C303 1.349 . S
C319 H311 0.950 . S
C319 C317 1.327 . S
C320 C308 1.349 . S
C320 H314 0.950 . S
C320 C321 1.327 1_455 S
C321 H315 0.950 . S
C321 C320 1.327 1_655 S
C321 C325 1.429 . S
C322 C305 1.574 . S
C322 H316 0.949 . S
C322 C326 1.368 . S
C323 C304 1.429 . S
C323 C317 1.429 . S
C323 C324 1.523 . S
C324 C305 1.368 . S
C324 C318 1.368 . S
C324 C323 1.523 . S
C325 C309 1.429 . S
C325 C321 1.429 . S
C325 C326 1.523 . S
C326 C310 1.368 . S
C326 C322 1.368 . S
C326 C325 1.523 . S
H327 C302 0.950 . S
H328 C304 0.950 . S
H329 C305 0.949 . S
H330 C307 0.950 . S
H331 C309 0.950 . S
C332 C333 1.349 . S
C332 C334 1.327 1_565 S
C332 H357 0.950 . S
C333 C332 1.349 . S
C333 C349 1.349 1_565 S
C334 C332 1.327 1_545 S
C334 C353 1.429 . S
C334 H358 0.950 1_545 S
C335 C352 1.574 . S
C335 C354 1.368 . S
C335 H359 0.949 . S
H336 C340 0.949 . S
C337 C338 1.349 . S
C337 C339 1.327 . S
C337 H360 0.950 . S
C338 C337 1.349 . S
C338 C350 1.349 . S
C339 C337 1.327 . S
C339 C355 1.429 . S
C339 H361 0.950 . S
C340 H336 0.949 . S
C340 C348 1.574 . S
C340 C356 1.368 . S
H341 C349 0.950 . S
H342 C347 0.950 . S
H343 C348 0.949 . S
H344 C350 0.950 . S
H345 C351 0.950 . S
H346 C352 0.949 . S
C347 H342 0.950 . S
C347 C349 1.327 . S
C347 C353 1.429 . S
C348 C340 1.574 . S
C348 H343 0.949 . S
C348 C354 1.368 . S
C349 C333 1.349 1_545 S
C349 H341 0.950 . S
C349 C347 1.327 . S
C350 C338 1.349 . S
C350 H344 0.950 . S
C350 C351 1.327 . S
C351 H345 0.950 . S
C351 C350 1.327 . S
C351 C355 1.429 . S
C352 C335 1.574 . S
C352 H346 0.949 . S
C352 C356 1.368 . S
C353 C334 1.429 . S
C353 C347 1.429 . S
C353 C354 1.523 . S
C354 C335 1.368 . S
C354 C348 1.368 . S
C354 C353 1.523 . S
C355 C339 1.429 . S
C355 C351 1.429 . S
C355 C356 1.523 . S
C356 C340 1.368 . S
C356 C352 1.368 . S
C356 C355 1.523 . S
H357 C332 0.950 . S
H358 C334 0.950 1_565 S
H359 C335 0.949 . S
H360 C337 0.950 . S
H361 C339 0.950 . S
C362 C363 1.349 . S
C362 C364 1.327 . S
C362 H387 0.950 . S
C363 C362 1.349 . S
C363 C379 1.349 . S
C364 C362 1.327 . S
C364 C383 1.429 . S
C364 H388 0.950 . S
C365 C382 1.574 . S
C365 C384 1.368 . S
C365 H389 0.949 . S
H366 C370 0.949 . S
C367 C368 1.349 . S
C367 C369 1.327 1_655 S
C367 H390 0.950 . S
C368 C367 1.349 . S
C368 C380 1.349 1_655 S
C369 C367 1.327 1_455 S
C369 C385 1.429 . S
C369 H391 0.950 . S
C370 H366 0.949 . S
C370 C378 1.574 . S
C370 C386 1.368 . S
H371 C379 0.950 . S
H372 C377 0.950 . S
H373 C378 0.949 . S
H374 C380 0.950 . S
H375 C381 0.950 . S
H376 C382 0.949 . S
C377 H372 0.950 . S
C377 C379 1.327 . S
C377 C383 1.429 . S
C378 C370 1.574 . S
C378 H373 0.949 . S
C378 C384 1.368 . S
C379 C363 1.349 . S
C379 H371 0.950 . S
C379 C377 1.327 . S
C380 C368 1.349 1_455 S
C380 H374 0.950 . S
C380 C381 1.327 . S
C381 H375 0.950 . S
C381 C380 1.327 . S
C381 C385 1.429 . S
C382 C365 1.574 . S
C382 H376 0.949 . S
C382 C386 1.368 . S
C383 C364 1.429 . S
C383 C377 1.429 . S
C383 C384 1.523 . S
C384 C365 1.368 . S
C384 C378 1.368 . S
C384 C383 1.523 . S
C385 C369 1.429 . S
C385 C381 1.429 . S
C385 C386 1.523 . S
C386 C370 1.368 . S
C386 C382 1.368 . S
C386 C385 1.523 . S
H387 C362 0.950 . S
H388 C364 0.950 . S
H389 C365 0.949 . S
H390 C367 0.950 . S
H391 C369 0.950 . S
C392 C393 1.349 . S
C392 C394 1.327 . S
C392 H417 0.950 . S
C393 C392 1.349 . S
C393 C409 1.349 . S
C394 C392 1.327 . S
C394 C413 1.429 . S
C394 H418 0.950 . S
C395 C412 1.574 . S
C395 C414 1.368 . S
C395 H419 0.949 . S
H396 C400 0.949 . S
C397 C398 1.349 . S
C397 C399 1.327 1_545 S
C397 H420 0.950 . S
C398 C397 1.349 . S
C398 C410 1.349 1_545 S
C399 C397 1.327 1_565 S
C399 C415 1.429 . S
C399 H421 1.003 1_565 S
C400 H396 0.949 . S
C400 C408 1.574 1_554 S
C400 C416 1.385 . S
H401 C409 0.950 . S
H402 C407 0.950 . S
H403 C408 0.949 . S
H404 C410 0.950 . S
H405 C411 0.950 . S
H406 C412 0.949 . S
C407 H402 0.950 . S
C407 C409 1.327 . S
C407 C413 1.429 . S
C408 C400 1.574 1_556 S
C408 H403 0.949 . S
C408 C414 1.368 . S
C409 C393 1.349 . S
C409 H401 0.950 . S
C409 C407 1.327 . S
C410 C398 1.349 1_565 S
C410 H404 0.950 . S
C410 C411 1.327 . S
C411 H405 0.950 . S
C411 C410 1.327 . S
C411 C415 1.429 . S
C412 C395 1.574 . S
C412 H406 0.949 . S
C412 C416 1.324 1_556 S
C413 C394 1.429 . S
C413 C407 1.429 . S
C413 C414 1.523 . S
C414 C395 1.368 . S
C414 C408 1.368 . S
C414 C413 1.523 . S
C415 C399 1.429 . S
C415 C411 1.429 . S
C415 C416 1.560 . S
C416 C400 1.385 . S
C416 C412 1.324 1_554 S
C416 C415 1.560 . S
H417 C392 0.950 . S
H418 C394 0.950 . S
H419 C395 0.949 . S
H420 C397 0.950 . S
H421 C399 1.003 1_545 S
C422 C423 1.349 . S
C422 C424 1.327 . S
C422 H447 0.950 . S
C423 C422 1.349 . S
C423 C439 1.349 . S
C424 C422 1.327 . S
C424 C443 1.429 . S
C424 H448 0.950 . S
C425 C442 1.574 . S
C425 C444 1.368 . S
C425 H449 0.949 . S
H426 C430 0.949 . S
C427 C428 1.349 . S
C427 C429 1.327 1_455 S
C427 H450 0.950 . S
C428 C427 1.349 . S
C428 C440 1.349 1_455 S
C429 C427 1.327 1_655 S
C429 C445 1.429 . S
C429 H451 0.950 . S
C430 H426 0.949 . S
C430 C438 1.574 1_556 S
C430 C446 1.383 . S
H431 C439 0.950 . S
H432 C437 0.950 . S
H433 C438 0.949 . S
H434 C440 0.950 . S
H435 C441 0.950 . S
H436 C442 0.949 . S
C437 H432 0.950 . S
C437 C439 1.327 . S
C437 C443 1.429 . S
C438 C430 1.574 1_554 S
C438 H433 0.949 . S
C438 C444 1.368 . S
C439 C423 1.349 . S
C439 H431 0.950 . S
C439 C437 1.327 . S
C440 C428 1.349 1_655 S
C440 H434 0.950 . S
C440 C441 1.327 . S
C441 H435 0.950 . S
C441 C440 1.327 . S
C441 C445 1.429 . S
C442 C425 1.574 . S
C442 H436 0.949 . S
C442 C446 1.326 1_554 S
C443 C424 1.429 . S
C443 C437 1.429 . S
C443 C444 1.523 . S
C444 C425 1.368 . S
C444 C438 1.368 . S
C444 C443 1.523 . S
C445 C429 1.429 . S
C445 C441 1.429 . S
C445 C446 1.560 . S
C446 C430 1.383 . S
C446 C442 1.326 1_556 S
C446 C445 1.560 . S
H447 C422 0.950 . S
H448 C424 0.950 . S
H449 C425 0.949 . S
H450 C427 0.950 . S
H451 C429 0.950 . S
C452 C453 1.349 . S
C452 C454 1.327 . S
C452 H477 0.950 . S
C453 C452 1.349 . S
C453 C469 1.349 . S
C454 C452 1.327 . S
C454 C473 1.429 . S
C454 H478 0.950 . S
C455 C472 1.574 . S
C455 C474 1.368 . S
C455 H479 0.949 . S
H456 C460 0.949 . S
C457 C458 1.349 . S
C457 C459 1.327 1_565 S
C457 H480 0.950 . S
C458 C457 1.349 . S
C458 C470 1.349 1_565 S
C459 C457 1.327 1_545 S
C459 C475 1.429 . S
C459 H481 0.950 . S
C460 H456 0.949 . S
C460 C468 1.574 1_554 S
C460 C476 1.383 . S
H461 C469 0.950 . S
H462 C467 0.950 . S
H463 C468 0.949 . S
H464 C470 0.950 . S
H465 C471 0.950 . S
H466 C472 0.949 . S
C467 H462 0.950 . S
C467 C469 1.327 . S
C467 C473 1.429 . S
C468 C460 1.574 1_556 S
C468 H463 0.949 . S
C468 C474 1.368 . S
C469 C453 1.349 . S
C469 H461 0.950 . S
C469 C467 1.327 . S
C470 C458 1.349 1_545 S
C470 H464 0.950 . S
C470 C471 1.327 . S
C471 H465 0.950 . S
C471 C470 1.327 . S
C471 C475 1.429 . S
C472 C455 1.574 . S
C472 H466 0.949 . S
C472 C476 1.326 1_556 S
C473 C454 1.429 . S
C473 C467 1.429 . S
C473 C474 1.523 . S
C474 C455 1.368 . S
C474 C468 1.368 . S
C474 C473 1.523 . S
C475 C459 1.429 . S
C475 C471 1.429 . S
C475 C476 1.560 . S
C476 C460 1.383 . S
C476 C472 1.326 1_554 S
C476 C475 1.560 . S
H477 C452 0.950 . S
H478 C454 0.950 . S
H479 C455 0.949 . S
H480 C457 0.950 . S
H481 C459 0.950 . S
C482 C483 1.349 1_455 S
C482 C484 1.327 . S
C482 H507 0.950 . S
C483 C482 1.349 1_655 S
C483 C499 1.349 . S
C484 C482 1.327 . S
C484 C503 1.429 . S
C484 H508 0.950 . S
C485 C502 1.574 . S
C485 C504 1.356 1_554 S
C485 H509 0.949 1_554 S
H486 C490 0.949 . S
C487 C488 1.349 . S
C487 C489 1.327 . S
C487 H510 0.950 . S
C488 C487 1.349 . S
C488 C500 1.349 . S
C489 C487 1.327 . S
C489 C505 1.429 . S
C489 H511 0.950 . S
C490 H486 0.949 . S
C490 C498 1.574 . S
C490 C506 1.368 . S
H491 C499 0.950 . S
H492 C497 0.950 . S
H493 C498 0.943 1_556 S
H494 C500 0.950 . S
H495 C501 0.950 . S
H496 C502 0.949 . S
C497 H492 0.950 . S
C497 C499 1.327 1_455 S
C497 C503 1.429 . S
C498 C490 1.574 . S
C498 H493 0.943 1_554 S
C498 C504 1.354 1_554 S
C499 C483 1.349 . S
C499 H491 0.950 . S
C499 C497 1.327 1_655 S
C500 C488 1.349 . S
C500 H494 0.950 . S
C500 C501 1.327 . S
C501 H495 0.950 . S
C501 C500 1.327 . S
C501 C505 1.429 . S
C502 C485 1.574 . S
C502 H496 0.949 . S
C502 C506 1.368 . S
C503 C484 1.429 . S
C503 C497 1.429 . S
C503 C504 1.560 . S
C504 C485 1.356 1_556 S
C504 C498 1.354 1_556 S
C504 C503 1.560 . S
C505 C489 1.429 . S
C505 C501 1.429 . S
C505 C506 1.523 . S
C506 C490 1.368 . S
C506 C502 1.368 . S
C506 C505 1.523 . S
H507 C482 0.950 . S
H508 C484 0.950 . S
H509 C485 0.949 1_556 S
H510 C487 0.950 . S
H511 C489 0.950 . S
C512 C513 1.349 . S
C512 C514 1.327 . S
C512 H537 0.950 . S
C513 C512 1.349 . S
C513 C529 1.349 . S
C514 C512 1.327 . S
C514 C533 1.429 . S
C514 H538 0.950 . S
C515 C532 1.574 . S
C515 C534 1.368 1_545 S
C515 H539 0.949 . S
H516 C520 0.949 . S
C517 C518 1.349 . S
C517 C519 1.327 . S
C517 H540 0.950 . S
C518 C517 1.349 . S
C518 C530 1.349 . S
C519 C517 1.327 . S
C519 C535 1.429 . S
C519 H541 0.950 . S
C520 H516 0.949 . S
C520 C528 1.574 . S
C520 C536 1.368 1_565 S
H521 C529 0.950 . S
H522 C527 0.950 . S
H523 C528 0.949 . S
H524 C530 0.950 . S
H525 C531 0.950 . S
H526 C532 0.949 . S
C527 H522 0.950 . S
C527 C529 1.327 . S
C527 C533 1.429 . S
C528 C520 1.574 . S
C528 H523 0.949 . S
C528 C534 1.368 . S
C529 C513 1.349 . S
C529 H521 0.950 . S
C529 C527 1.327 . S
C530 C518 1.349 . S
C530 H524 0.950 . S
C530 C531 1.327 . S
C531 H525 0.950 . S
C531 C530 1.327 . S
C531 C535 1.429 . S
C532 C515 1.574 . S
C532 H526 0.949 . S
C532 C536 1.368 . S
C533 C514 1.429 . S
C533 C527 1.429 . S
C533 C534 1.523 . S
C534 C515 1.368 1_565 S
C534 C528 1.368 . S
C534 C533 1.523 . S
C535 C519 1.429 . S
C535 C531 1.429 . S
C535 C536 1.523 . S
C536 C520 1.368 1_545 S
C536 C532 1.368 . S
C536 C535 1.523 . S
H537 C512 0.950 . S
H538 C514 0.950 . S
H539 C515 0.949 . S
H540 C517 0.950 . S
H541 C519 0.950 . S
C542 C543 1.349 . S
C542 C544 1.327 . S
C542 H567 0.950 . S
C543 C542 1.349 . S
C543 C559 1.349 . S
C544 C542 1.327 . S
C544 C563 1.429 . S
C544 H568 0.950 . S
C545 C562 1.574 . S
C545 C564 1.368 1_655 S
C545 H569 0.949 . S
H546 C550 0.949 . S
C547 C548 1.349 . S
C547 C549 1.327 . S
C547 H570 0.950 . S
C548 C547 1.349 . S
C548 C560 1.349 . S
C549 C547 1.327 . S
C549 C565 1.429 . S
C549 H571 0.950 . S
C550 H546 0.949 . S
C550 C558 1.574 . S
C550 C566 1.368 1_455 S
H551 C559 0.950 . S
H552 C557 0.950 . S
H553 C558 0.949 . S
H554 C560 0.950 . S
H555 C561 0.950 . S
H556 C562 0.949 . S
C557 H552 0.950 . S
C557 C559 1.327 . S
C557 C563 1.429 . S
C558 C550 1.574 . S
C558 H553 0.949 . S
C558 C564 1.368 . S
C559 C543 1.349 . S
C559 H551 0.950 . S
C559 C557 1.327 . S
C560 C548 1.349 . S
C560 H554 0.950 . S
C560 C561 1.327 . S
C561 H555 0.950 . S
C561 C560 1.327 . S
C561 C565 1.429 . S
C562 C545 1.574 . S
C562 H556 0.949 . S
C562 C566 1.368 . S
C563 C544 1.429 . S
C563 C557 1.429 . S
C563 C564 1.523 . S
C564 C545 1.368 1_455 S
C564 C558 1.368 . S
C564 C563 1.523 . S
C565 C549 1.429 . S
C565 C561 1.429 . S
C565 C566 1.523 . S
C566 C550 1.368 1_655 S
C566 C562 1.368 . S
C566 C565 1.523 . S
H567 C542 0.950 . S
H568 C544 0.950 . S
H569 C545 0.949 . S
H570 C547 0.950 . S
H571 C549 0.950 . S
C572 C573 1.349 . S
C572 C574 1.327 . S
C572 H597 0.950 . S
C573 C572 1.349 . S
C573 C589 1.349 . S
C574 C572 1.327 . S
C574 C593 1.429 . S
C574 H598 0.950 . S
C575 C592 1.574 . S
C575 C594 1.368 . S
C575 H599 0.949 . S
H576 C580 0.949 . S
C577 C578 1.349 . S
C577 C579 1.327 . S
C577 H600 0.950 . S
C578 C577 1.349 . S
C578 C590 1.349 . S
C579 C577 1.327 . S
C579 C595 1.429 . S
C579 H601 0.950 . S
C580 H576 0.949 . S
C580 C588 1.574 . S
C580 C596 1.368 . S
H581 C589 0.950 . S
H582 C587 0.950 . S
H583 C588 0.949 . S
H584 C590 0.950 . S
H585 C591 0.950 . S
H586 C592 0.949 . S
C587 H582 0.950 . S
C587 C589 1.327 . S
C587 C593 1.429 . S
C588 C580 1.574 . S
C588 H583 0.949 . S
C588 C594 1.368 1_565 S
C589 C573 1.349 . S
C589 H581 0.950 . S
C589 C587 1.327 . S
C590 C578 1.349 . S
C590 H584 0.950 . S
C590 C591 1.327 . S
C591 H585 0.950 . S
C591 C590 1.327 . S
C591 C595 1.429 . S
C592 C575 1.574 . S
C592 H586 0.949 . S
C592 C596 1.368 1_545 S
C593 C574 1.429 . S
C593 C587 1.429 . S
C593 C594 1.523 . S
C594 C575 1.368 . S
C594 C588 1.368 1_545 S
C594 C593 1.523 . S
C595 C579 1.429 . S
C595 C591 1.429 . S
C595 C596 1.523 . S
C596 C580 1.368 . S
C596 C592 1.368 1_565 S
C596 C595 1.523 . S
H597 C572 0.950 . S
H598 C574 0.950 . S
H599 C575 0.949 . S
H600 C577 0.950 . S
H601 C579 0.950 . S
C602 C603 1.349 . S
C602 C604 1.327 . S
C602 H627 0.950 . S
C603 C602 1.349 . S
C603 C619 1.349 . S
C604 C602 1.327 . S
C604 C623 1.429 . S
C604 H628 0.950 . S
C605 C622 1.574 . S
C605 C624 1.368 . S
C605 H629 0.949 . S
H606 C610 0.949 . S
C607 C608 1.349 . S
C607 C609 1.327 . S
C607 H630 0.950 . S
C608 C607 1.349 . S
C608 C620 1.349 . S
C609 C607 1.327 . S
C609 C625 1.429 . S
C609 H631 0.950 . S
C610 H606 0.949 . S
C610 C618 1.574 . S
C610 C626 1.368 . S
H611 C619 0.950 . S
H612 C617 0.950 . S
H613 C618 0.949 . S
H614 C620 0.950 . S
H615 C621 0.950 . S
H616 C622 0.949 . S
C617 H612 0.950 . S
C617 C619 1.327 . S
C617 C623 1.429 . S
C618 C610 1.574 . S
C618 H613 0.949 . S
C618 C624 1.368 1_655 S
C619 C603 1.349 . S
C619 H611 0.950 . S
C619 C617 1.327 . S
C620 C608 1.349 . S
C620 H614 0.950 . S
C620 C621 1.327 . S
C621 H615 0.950 . S
C621 C620 1.327 . S
C621 C625 1.429 . S
C622 C605 1.574 . S
C622 H616 0.949 . S
C622 C626 1.368 1_455 S
C623 C604 1.429 . S
C623 C617 1.429 . S
C623 C624 1.523 . S
C624 C605 1.368 . S
C624 C618 1.368 1_455 S
C624 C623 1.523 . S
C625 C609 1.429 . S
C625 C621 1.429 . S
C625 C626 1.523 . S
C626 C610 1.368 . S
C626 C622 1.368 1_655 S
C626 C625 1.523 . S
H627 C602 0.950 . S
H628 C604 0.950 . S
H629 C605 0.949 . S
H630 C607 0.950 . S
H631 C609 0.950 . S
C632 C633 1.349 . S
C632 C634 1.327 . S
C632 H657 0.950 . S
C633 C632 1.349 . S
C633 C649 1.349 . S
C634 C632 1.327 . S
C634 C653 1.429 . S
C634 H658 0.950 . S
C635 C652 1.574 1_455 S
C635 C654 1.368 1_565 S
C635 H659 0.949 . S
H636 C640 0.949 . S
C637 C638 1.349 . S
C637 C639 1.327 . S
C637 H660 0.950 . S
C638 C637 1.349 . S
C638 C650 1.349 . S
C639 C637 1.327 . S
C639 C655 1.429 . S
C639 H661 0.950 . S
C640 H636 0.949 . S
C640 C648 1.574 1_655 S
C640 C656 1.368 1_545 S
H641 C649 0.950 . S
H642 C647 0.950 . S
H643 C648 0.949 . S
H644 C650 0.950 . S
H645 C651 0.950 . S
H646 C652 0.949 . S
C647 H642 0.950 . S
C647 C649 1.327 . S
C647 C653 1.429 . S
C648 C640 1.574 1_455 S
C648 H643 0.949 . S
C648 C654 1.368 . S
C649 C633 1.349 . S
C649 H641 0.950 . S
C649 C647 1.327 . S
C650 C638 1.349 . S
C650 H644 0.950 . S
C650 C651 1.327 . S
C651 H645 0.950 . S
C651 C650 1.327 . S
C651 C655 1.429 . S
C652 C635 1.574 1_655 S
C652 H646 0.949 . S
C652 C656 1.368 . S
C653 C634 1.429 . S
C653 C647 1.429 . S
C653 C654 1.523 . S
C654 C635 1.368 1_545 S
C654 C648 1.368 . S
C654 C653 1.523 . S
C655 C639 1.429 . S
C655 C651 1.429 . S
C655 C656 1.523 . S
C656 C640 1.368 1_565 S
C656 C652 1.368 . S
C656 C655 1.523 . S
H657 C632 0.950 . S
H658 C634 0.950 . S
H659 C635 0.949 . S
H660 C637 0.950 . S
H661 C639 0.950 . S
C662 C663 1.349 . S
C662 C664 1.327 . S
C662 H687 0.950 . S
C663 C662 1.349 . S
C663 C679 1.349 . S
C664 C662 1.327 . S
C664 C683 1.429 . S
C664 H688 0.950 . S
C665 C682 1.574 1_565 S
C665 C684 1.368 . S
C665 H689 0.949 . S
H666 C670 0.949 . S
C667 C668 1.349 . S
C667 C669 1.327 . S
C667 H690 0.950 . S
C668 C667 1.349 . S
C668 C680 1.349 . S
C669 C667 1.327 . S
C669 C685 1.429 . S
C669 H691 0.950 . S
C670 H666 0.949 . S
C670 C678 1.574 1_545 S
C670 C686 1.368 . S
H671 C679 0.950 . S
H672 C677 0.950 . S
H673 C678 0.949 . S
H674 C680 0.950 . S
H675 C681 0.950 . S
H676 C682 0.949 . S
C677 H672 0.950 . S
C677 C679 1.327 . S
C677 C683 1.429 . S
C678 C670 1.574 1_565 S
C678 H673 0.949 . S
C678 C684 1.368 1_655 S
C679 C663 1.349 . S
C679 H671 0.950 . S
C679 C677 1.327 . S
C680 C668 1.349 . S
C680 H674 0.950 . S
C680 C681 1.327 . S
C681 H675 0.950 . S
C681 C680 1.327 . S
C681 C685 1.429 . S
C682 C665 1.574 1_545 S
C682 H676 0.949 . S
C682 C686 1.368 1_455 S
C683 C664 1.429 . S
C683 C677 1.429 . S
C683 C684 1.523 . S
C684 C665 1.368 . S
C684 C678 1.368 1_455 S
C684 C683 1.523 . S
C685 C669 1.429 . S
C685 C681 1.429 . S
C685 C686 1.523 . S
C686 C670 1.368 . S
C686 C682 1.368 1_655 S
C686 C685 1.523 . S
H687 C662 0.950 . S
H688 C664 0.950 . S
H689 C665 0.949 . S
H690 C667 0.950 . S
H691 C669 0.950 . S
C692 C693 1.349 . S
C692 C694 1.327 . S
C692 H717 0.950 . S
C693 C692 1.349 . S
C693 C709 1.349 . S
C694 C692 1.327 . S
C694 C713 1.429 . S
C694 H718 0.950 . S
C695 C712 1.574 1_455 S
C695 C714 1.368 1_545 S
C695 H719 0.949 . S
H696 C700 0.949 . S
C697 C698 1.349 . S
C697 C699 1.327 . S
C697 H720 0.950 . S
C698 C697 1.349 . S
C698 C710 1.349 . S
C699 C697 1.327 . S
C699 C715 1.429 . S
C699 H721 0.950 . S
C700 H696 0.949 . S
C700 C708 1.574 1_655 S
C700 C716 1.368 1_565 S
H701 C709 0.950 . S
H702 C707 0.950 . S
H703 C708 0.949 . S
H704 C710 0.950 . S
H705 C711 0.950 . S
H706 C712 0.949 . S
C707 H702 0.950 . S
C707 C709 1.327 . S
C707 C713 1.429 . S
C708 C700 1.574 1_455 S
C708 H703 0.949 . S
C708 C714 1.368 . S
C709 C693 1.349 . S
C709 H701 0.950 . S
C709 C707 1.327 . S
C710 C698 1.349 . S
C710 H704 0.950 . S
C710 C711 1.327 . S
C711 H705 0.950 . S
C711 C710 1.327 . S
C711 C715 1.429 . S
C712 C695 1.574 1_655 S
C712 H706 0.949 . S
C712 C716 1.368 . S
C713 C694 1.429 . S
C713 C707 1.429 . S
C713 C714 1.523 . S
C714 C695 1.368 1_565 S
C714 C708 1.368 . S
C714 C713 1.523 . S
C715 C699 1.429 . S
C715 C711 1.429 . S
C715 C716 1.523 . S
C716 C700 1.368 1_545 S
C716 C712 1.368 . S
C716 C715 1.523 . S
H717 C692 0.950 . S
H718 C694 0.950 . S
H719 C695 0.949 . S
H720 C697 0.950 . S
H721 C699 0.950 . S
C722 C723 1.349 . S
C722 C724 1.327 . S
C722 H747 0.950 . S
C723 C722 1.349 . S
C723 C739 1.349 . S
C724 C722 1.327 . S
C724 C743 1.429 . S
C724 H748 0.950 . S
C725 C742 1.574 1_565 S
C725 C744 1.368 . S
C725 H749 0.949 . S
H726 C730 0.949 . S
C727 C728 1.349 . S
C727 C729 1.327 . S
C727 H750 0.950 . S
C728 C727 1.349 . S
C728 C740 1.349 . S
C729 C727 1.327 . S
C729 C745 1.429 . S
C729 H751 0.950 . S
C730 H726 0.949 . S
C730 C738 1.574 1_545 S
C730 C746 1.368 . S
H731 C739 0.950 . S
H732 C737 0.950 . S
H733 C738 0.949 . S
H734 C740 0.950 . S
H735 C741 0.950 . S
H736 C742 0.949 . S
C737 H732 0.950 . S
C737 C739 1.327 . S
C737 C743 1.429 . S
C738 C730 1.574 1_565 S
C738 H733 0.949 . S
C738 C744 1.368 1_455 S
C739 C723 1.349 . S
C739 H731 0.950 . S
C739 C737 1.327 . S
C740 C728 1.349 . S
C740 H734 0.950 . S
C740 C741 1.327 . S
C741 H735 0.950 . S
C741 C740 1.327 . S
C741 C745 1.429 . S
C742 C725 1.574 1_545 S
C742 H736 0.949 . S
C742 C746 1.368 1_655 S
C743 C724 1.429 . S
C743 C737 1.429 . S
C743 C744 1.523 . S
C744 C725 1.368 . S
C744 C738 1.368 1_655 S
C744 C743 1.523 . S
C745 C729 1.429 . S
C745 C741 1.429 . S
C745 C746 1.523 . S
C746 C730 1.368 . S
C746 C742 1.368 1_455 S
C746 C745 1.523 . S
H747 C722 0.950 . S
H748 C724 0.950 . S
H749 C725 0.949 . S
H750 C727 0.950 . S
H751 C729 0.950 . S
C752 C753 1.349 . S
C752 C754 1.327 . S
C752 H777 0.950 . S
C753 C752 1.349 . S
C753 C769 1.349 . S
C754 C752 1.327 . S
C754 C773 1.429 . S
C754 H778 0.950 . S
C755 C772 1.574 . S
C755 C774 1.368 . S
C755 H779 0.949 . S
H756 C760 0.949 . S
C757 C758 1.349 . S
C757 C759 1.327 . S
C757 H780 0.950 . S
C758 C757 1.349 . S
C758 C770 1.349 . S
C759 C757 1.327 . S
C759 C775 1.429 . S
C759 H781 0.950 . S
C760 H756 0.949 . S
C760 C768 1.574 . S
C760 C776 1.368 . S
H761 C769 0.950 . S
H762 C767 0.950 . S
H763 C768 0.949 . S
H764 C770 0.950 . S
H765 C771 0.950 . S
H766 C772 0.949 . S
C767 H762 0.950 . S
C767 C769 1.327 . S
C767 C773 1.429 . S
C768 C760 1.574 . S
C768 H763 0.949 . S
C768 C774 1.368 . S
C769 C753 1.349 . S
C769 H761 0.950 . S
C769 C767 1.327 . S
C770 C758 1.349 . S
C770 H764 0.950 . S
C770 C771 1.327 . S
C771 H765 0.950 . S
C771 C770 1.327 . S
C771 C775 1.429 . S
C772 C755 1.574 . S
C772 H766 0.949 . S
C772 C776 1.368 . S
C773 C754 1.429 . S
C773 C767 1.429 . S
C773 C774 1.523 . S
C774 C755 1.368 . S
C774 C768 1.368 . S
C774 C773 1.523 . S
C775 C759 1.429 . S
C775 C771 1.429 . S
C775 C776 1.523 . S
C776 C760 1.368 . S
C776 C772 1.368 . S
C776 C775 1.523 . S
H777 C752 0.950 . S
H778 C754 0.950 . S
H779 C755 0.949 . S
H780 C757 0.950 . S
H781 C759 0.950 . S
C782 C783 1.349 . S
C782 C784 1.327 . S
C782 H807 0.950 . S
C783 C782 1.349 . S
C783 C799 1.349 . S
C784 C782 1.327 . S
C784 C803 1.429 . S
C784 H808 0.950 . S
C785 C802 1.574 . S
C785 C804 1.368 . S
C785 H809 0.949 . S
H786 C790 0.949 . S
C787 C788 1.349 . S
C787 C789 1.327 . S
C787 H810 0.950 . S
C788 C787 1.349 . S
C788 C800 1.349 . S
C789 C787 1.327 . S
C789 C805 1.429 . S
C789 H811 0.950 . S
C790 H786 0.949 . S
C790 C798 1.574 . S
C790 C806 1.368 . S
H791 C799 0.950 . S
H792 C797 0.950 . S
H793 C798 0.949 . S
H794 C800 0.950 . S
H795 C801 0.950 . S
H796 C802 0.949 . S
C797 H792 0.950 . S
C797 C799 1.327 . S
C797 C803 1.429 . S
C798 C790 1.574 . S
C798 H793 0.949 . S
C798 C804 1.368 . S
C799 C783 1.349 . S
C799 H791 0.950 . S
C799 C797 1.327 . S
C800 C788 1.349 . S
C800 H794 0.950 . S
C800 C801 1.327 . S
C801 H795 0.950 . S
C801 C800 1.327 . S
C801 C805 1.429 . S
C802 C785 1.574 . S
C802 H796 0.949 . S
C802 C806 1.368 . S
C803 C784 1.429 . S
C803 C797 1.429 . S
C803 C804 1.523 . S
C804 C785 1.368 . S
C804 C798 1.368 . S
C804 C803 1.523 . S
C805 C789 1.429 . S
C805 C801 1.429 . S
C805 C806 1.523 . S
C806 C790 1.368 . S
C806 C802 1.368 . S
C806 C805 1.523 . S
H807 C782 0.950 . S
H808 C784 0.950 . S
H809 C785 0.949 . S
H810 C787 0.950 . S
H811 C789 0.950 . S
C812 C813 1.349 . S
C812 C814 1.327 . S
C812 H837 0.950 . S
C813 C812 1.349 . S
C813 C829 1.349 . S
C814 C812 1.327 . S
C814 C833 1.429 . S
C814 H838 0.950 . S
C815 C832 1.574 . S
C815 C834 1.368 . S
C815 H839 0.949 . S
H816 C820 0.949 . S
C817 C818 1.349 . S
C817 C819 1.327 . S
C817 H840 0.950 . S
C818 C817 1.349 . S
C818 C830 1.349 . S
C819 C817 1.327 . S
C819 C835 1.429 . S
C819 H841 0.950 . S
C820 H816 0.949 . S
C820 C828 1.574 . S
C820 C836 1.368 . S
H821 C829 0.950 . S
H822 C827 0.950 . S
H823 C828 0.949 . S
H824 C830 0.950 . S
H825 C831 0.950 . S
H826 C832 0.949 . S
C827 H822 0.950 . S
C827 C829 1.327 . S
C827 C833 1.429 . S
C828 C820 1.574 . S
C828 H823 0.949 . S
C828 C834 1.368 . S
C829 C813 1.349 . S
C829 H821 0.950 . S
C829 C827 1.327 . S
C830 C818 1.349 . S
C830 H824 0.950 . S
C830 C831 1.327 . S
C831 H825 0.950 . S
C831 C830 1.327 . S
C831 C835 1.429 . S
C832 C815 1.574 . S
C832 H826 0.949 . S
C832 C836 1.368 . S
C833 C814 1.429 . S
C833 C827 1.429 . S
C833 C834 1.523 . S
C834 C815 1.368 . S
C834 C828 1.368 . S
C834 C833 1.523 . S
C835 C819 1.429 . S
C835 C831 1.429 . S
C835 C836 1.523 . S
C836 C820 1.368 . S
C836 C832 1.368 . S
C836 C835 1.523 . S
H837 C812 0.950 . S
H838 C814 0.950 . S
H839 C815 0.949 . S
H840 C817 0.950 . S
H841 C819 0.950 . S
C842 C843 1.349 . S
C842 C844 1.327 . S
C842 H867 0.950 . S
C843 C842 1.349 . S
C843 C859 1.349 . S
C844 C842 1.327 . S
C844 C863 1.429 . S
C844 H868 0.950 . S
C845 C862 1.574 . S
C845 C864 1.368 . S
C845 H869 0.949 . S
H846 C850 0.949 . S
C847 C848 1.349 . S
C847 C849 1.327 . S
C847 H870 0.950 . S
C848 C847 1.349 . S
C848 C860 1.349 . S
C849 C847 1.327 . S
C849 C865 1.429 . S
C849 H871 0.950 . S
C850 H846 0.949 . S
C850 C858 1.574 . S
C850 C866 1.368 . S
H851 C859 0.950 . S
H852 C857 0.950 . S
H853 C858 0.949 . S
H854 C860 0.950 . S
H855 C861 0.950 . S
H856 C862 0.949 . S
C857 H852 0.950 . S
C857 C859 1.327 . S
C857 C863 1.429 . S
C858 C850 1.574 . S
C858 H853 0.949 . S
C858 C864 1.368 . S
C859 C843 1.349 . S
C859 H851 0.950 . S
C859 C857 1.327 . S
C860 C848 1.349 . S
C860 H854 0.950 . S
C860 C861 1.327 . S
C861 H855 0.950 . S
C861 C860 1.327 . S
C861 C865 1.429 . S
C862 C845 1.574 . S
C862 H856 0.949 . S
C862 C866 1.368 . S
C863 C844 1.429 . S
C863 C857 1.429 . S
C863 C864 1.523 . S
C864 C845 1.368 . S
C864 C858 1.368 . S
C864 C863 1.523 . S
C865 C849 1.429 . S
C865 C861 1.429 . S
C865 C866 1.523 . S
C866 C850 1.368 . S
C866 C862 1.368 . S
C866 C865 1.523 . S
H867 C842 0.950 . S
H868 C844 0.950 . S
H869 C845 0.949 . S
H870 C847 0.950 . S
H871 C849 0.950 . S
C273 C5 0.722 . S
C278 C67 0.726 . S
C303 C101 0.726 . S
C308 C39 0.722 . S
C333 C73 0.722 . S
C338 C135 0.726 . S
C363 C33 0.726 . S
C368 C107 0.722 . S
C393 C271 0.726 . S
C398 C141 0.722 . S
C423 C169 0.726 . S
C428 C175 0.722 . S
C453 C203 0.726 . S
C458 C209 0.722 . S
C483 C243 0.722 . S
C488 C237 0.726 . S
C513 C88 1.578 . S
C518 C20 1.578 . S
C543 C54 1.578 . S
C548 C122 1.578 . S
C573 C156 1.578 . S
C578 C224 1.578 . S
C603 C190 1.578 . S
C608 C258 1.578 . S
C633 C2 0.893 . S
C638 C70 0.893 . S
C663 C36 0.893 . S
C668 C104 0.893 . S
C693 C206 0.893 . S
C698 C138 0.893 . S
C723 C240 0.893 . S
C728 C172 0.893 . S
C753 C9 1.799 . S
C758 C179 1.799 . S
C783 C213 1.799 . S
C788 C43 1.799 . S
C813 C247 1.799 . S
C818 C77 1.799 . S
C843 C111 1.799 . S
C848 C145 1.799 . S
