# Generated by pormake.
# Topology unp, (4)-cn, num edge types: 1
# Building blocks:
#     Node 0, Type 0, BuildingBlock: KUFVIS_clean_sbu_0, # of connection points: 4
#     Node 1, Type 0, BuildingBlock: KUFVIS_clean_sbu_0, # of connection points: 4
#     Node 2, Type 0, BuildingBlock: KUFVIS_clean_sbu_0, # of connection points: 4
#     Node 3, Type 0, BuildingBlock: KUFVIS_clean_sbu_0, # of connection points: 4
#     Node 4, Type 0, BuildingBlock: KUFVIS_clean_sbu_0, # of connection points: 4
#     Node 5, Type 0, BuildingBlock: KUFVIS_clean_sbu_0, # of connection points: 4
#     Node 6, Type 0, BuildingBlock: KUFVIS_clean_sbu_0, # of connection points: 4
#     Node 7, Type 0, BuildingBlock: KUFVIS_clean_sbu_0, # of connection points: 4
#     Node 8, Type 0, BuildingBlock: KUFVIS_clean_sbu_0, # of connection points: 4
#     Node 9, Type 0, BuildingBlock: KUFVIS_clean_sbu_0, # of connection points: 4
#     Node 10, Type 0, BuildingBlock: KUFVIS_clean_sbu_0, # of connection points: 4
#     Node 11, Type 0, BuildingBlock: KUFVIS_clean_sbu_0, # of connection points: 4
#     Node 12, Type 0, BuildingBlock: KUFVIS_clean_sbu_0, # of connection points: 4
#     Node 13, Type 0, BuildingBlock: KUFVIS_clean_sbu_0, # of connection points: 4
#     Node 14, Type 0, BuildingBlock: KUFVIS_clean_sbu_0, # of connection points: 4
#     Node 15, Type 0, BuildingBlock: KUFVIS_clean_sbu_0, # of connection points: 4
#     Node 16, Type 0, BuildingBlock: KUFVIS_clean_sbu_0, # of connection points: 4
#     Node 17, Type 0, BuildingBlock: KUFVIS_clean_sbu_0, # of connection points: 4
#     Edge 18, Type (0, 0), BuildingBlock: CIFDUS_clean_linker_0, # of connection points: 2
#     Edge 19, Type (0, 0), BuildingBlock: CIFDUS_clean_linker_0, # of connection points: 2
#     Edge 20, Type (0, 0), BuildingBlock: CIFDUS_clean_linker_0, # of connection points: 2
#     Edge 21, Type (0, 0), BuildingBlock: CIFDUS_clean_linker_0, # of connection points: 2
#     Edge 22, Type (0, 0), BuildingBlock: CIFDUS_clean_linker_0, # of connection points: 2
#     Edge 23, Type (0, 0), BuildingBlock: CIFDUS_clean_linker_0, # of connection points: 2
#     Edge 24, Type (0, 0), BuildingBlock: CIFDUS_clean_linker_0, # of connection points: 2
#     Edge 25, Type (0, 0), BuildingBlock: CIFDUS_clean_linker_0, # of connection points: 2
#     Edge 26, Type (0, 0), BuildingBlock: CIFDUS_clean_linker_0, # of connection points: 2
#     Edge 27, Type (0, 0), BuildingBlock: CIFDUS_clean_linker_0, # of connection points: 2
#     Edge 28, Type (0, 0), BuildingBlock: CIFDUS_clean_linker_0, # of connection points: 2
#     Edge 29, Type (0, 0), BuildingBlock: CIFDUS_clean_linker_0, # of connection points: 2
#     Edge 30, Type (0, 0), BuildingBlock: CIFDUS_clean_linker_0, # of connection points: 2
#     Edge 31, Type (0, 0), BuildingBlock: CIFDUS_clean_linker_0, # of connection points: 2
#     Edge 32, Type (0, 0), BuildingBlock: CIFDUS_clean_linker_0, # of connection points: 2
#     Edge 33, Type (0, 0), BuildingBlock: CIFDUS_clean_linker_0, # of connection points: 2
#     Edge 34, Type (0, 0), BuildingBlock: CIFDUS_clean_linker_0, # of connection points: 2
#     Edge 35, Type (0, 0), BuildingBlock: CIFDUS_clean_linker_0, # of connection points: 2
#     Edge 36, Type (0, 0), BuildingBlock: CIFDUS_clean_linker_0, # of connection points: 2
#     Edge 37, Type (0, 0), BuildingBlock: CIFDUS_clean_linker_0, # of connection points: 2
#     Edge 38, Type (0, 0), BuildingBlock: CIFDUS_clean_linker_0, # of connection points: 2
#     Edge 39, Type (0, 0), BuildingBlock: CIFDUS_clean_linker_0, # of connection points: 2
#     Edge 40, Type (0, 0), BuildingBlock: CIFDUS_clean_linker_0, # of connection points: 2
#     Edge 41, Type (0, 0), BuildingBlock: CIFDUS_clean_linker_0, # of connection points: 2
#     Edge 42, Type (0, 0), BuildingBlock: CIFDUS_clean_linker_0, # of connection points: 2
#     Edge 43, Type (0, 0), BuildingBlock: CIFDUS_clean_linker_0, # of connection points: 2
#     Edge 44, Type (0, 0), BuildingBlock: CIFDUS_clean_linker_0, # of connection points: 2
#     Edge 45, Type (0, 0), BuildingBlock: CIFDUS_clean_linker_0, # of connection points: 2
#     Edge 46, Type (0, 0), BuildingBlock: CIFDUS_clean_linker_0, # of connection points: 2
#     Edge 47, Type (0, 0), BuildingBlock: CIFDUS_clean_linker_0, # of connection points: 2
#     Edge 48, Type (0, 0), BuildingBlock: CIFDUS_clean_linker_0, # of connection points: 2
#     Edge 49, Type (0, 0), BuildingBlock: CIFDUS_clean_linker_0, # of connection points: 2
#     Edge 50, Type (0, 0), BuildingBlock: CIFDUS_clean_linker_0, # of connection points: 2
#     Edge 51, Type (0, 0), BuildingBlock: CIFDUS_clean_linker_0, # of connection points: 2
#     Edge 52, Type (0, 0), BuildingBlock: CIFDUS_clean_linker_0, # of connection points: 2
#     Edge 53, Type (0, 0), BuildingBlock: CIFDUS_clean_linker_0, # of connection points: 2
# Relax obj value: 0.409
# Max RMSD: 0.191
# Mean RMSD: 0.189
data_MOF--net-unp--node1-KUFVIS_clean_sbu_0--edge1-CIFDUS_clean_linker_0
_symmetry_space_group_name_H-M    P1
_symmetry_Int_Tables_number       1
_symmetry_cell_setting            triclinic
loop_
_symmetry_equiv_pos_as_xyz
'x, y, z'
_cell_length_a     42.420247
_cell_length_b     42.328378
_cell_length_c     51.124225
_cell_angle_alpha  89.902636
_cell_angle_beta   89.923119
_cell_angle_gamma 120.43424
loop_
_atom_site_label
_atom_site_type_symbol
_atom_site_fract_x
_atom_site_fract_y
_atom_site_fract_z
_atom_type_partial_charge
Mn0 Mn 0.17656 0.16429 0.07188 0.0
Mn1 Mn 0.23181 0.13632 0.04729 0.0
C2 C 0.16878 0.10817 0.08451 0.0
C3 C 0.124 0.16796 0.06689 0.0
C4 C 0.25527 0.19678 0.08759 0.0
O5 O 0.20002 0.19711 0.04022 0.0
O6 O 0.2276 0.16913 0.02155 0.0
C7 C 0.18972 0.09246 0.00154 0.0
N8 N 0.20592 0.0947 0.02501 0.0
C9 C 0.18827 0.03102 0.02321 0.0
C10 C 0.17157 0.0281 -0.00102 0.0
C11 C 0.17233 0.05896 0.9881 0.0
C12 C 0.2057 0.06526 0.03553 0.0
H13 H 0.18989 0.11598 0.99319 0.0
C14 C 0.21625 0.19206 0.02101 0.0
O15 O 0.15065 0.19107 0.08167 0.0
O16 O 0.12814 0.14317 0.05517 0.0
N17 N 0.23613 0.1034 0.07076 0.0
C18 C 0.25094 0.11004 0.09518 0.0
C19 C 0.25078 0.08149 0.10932 0.0
C20 C 0.23536 0.04642 0.09824 0.0
C21 C 0.22023 0.04021 0.0731 0.0
C22 C 0.22144 0.06979 0.05984 0.0
H23 H 0.26257 0.13684 0.10391 0.0
O24 O 0.15588 0.12435 0.09886 0.0
O25 O 0.18576 0.12564 0.06343 0.0
O26 O 0.22381 0.19229 0.09236 0.0
O27 O 0.26132 0.17887 0.07018 0.0
C28 C 0.20329 0.00563 0.06092 0.0
C29 C 0.18739 0.00105 0.03597 0.0
H30 H 0.15773 0.00221 0.98872 0.0
H31 H 0.15932 0.05687 0.96946 0.0
H32 H 0.26234 0.08646 0.12877 0.0
H33 H 0.23499 0.02439 0.10931 0.0
H34 H 0.20191 0.98225 0.07071 0.0
H35 H 0.17402 0.97423 0.02695 0.0
Mn36 Mn 0.87224 0.08448 0.09335 0.0
Mn37 Mn 0.88906 0.1468 0.04641 0.0
C38 C 0.92849 0.13799 0.09156 0.0
C39 C 0.87281 0.03204 0.10612 0.0
C40 C 0.83755 0.13172 0.09205 0.0
O41 O 0.83342 0.05594 0.06626 0.0
O42 O 0.85112 0.09762 0.03364 0.0
C43 C 0.92204 0.12256 0.00592 0.0
N44 N 0.92474 0.14904 0.02243 0.0
C45 C 0.9869 0.19027 0.00915 0.0
C46 C 0.98471 0.16352 0.99187 0.0
C47 C 0.95219 0.12947 0.99038 0.0
C48 C 0.95589 0.1819 0.02407 0.0
H49 H 0.89728 0.09617 0.00491 0.0
C50 C 0.83081 0.0652 0.04295 0.0
O51 O 0.85135 0.04131 0.11764 0.0
O52 O 0.89362 0.05324 0.08755 0.0
N53 N 0.92616 0.19478 0.05703 0.0
C54 C 0.92485 0.21622 0.07633 0.0
C55 C 0.95579 0.2506 0.08129 0.0
C56 C 0.98777 0.26247 0.06646 0.0
C57 C 0.98851 0.23985 0.04676 0.0
C58 C 0.9567 0.20608 0.04247 0.0
H59 H 0.90046 0.20704 0.08798 0.0
O60 O 0.91683 0.11994 0.11341 0.0
O61 O 0.90577 0.12464 0.07219 0.0
O62 O 0.84473 0.10987 0.10427 0.0
O63 O 0.85227 0.14687 0.07025 0.0
C64 C 0.01983 0.24914 0.03161 0.0
C65 C 0.01903 0.22436 0.01283 0.0
H66 H 0.00804 0.16855 0.98007 0.0
H67 H 0.95051 0.10836 0.97761 0.0
H68 H 0.95507 0.26782 0.09663 0.0
H69 H 0.0117 0.28884 0.07054 0.0
H70 H 0.04485 0.27505 0.03452 0.0
H71 H 0.04347 0.23153 0.00164 0.0
Mn72 Mn 0.96831 0.86017 0.12474 0.0
Mn73 Mn 0.88745 0.8123 0.09468 0.0
C74 C 0.92569 0.87903 0.12765 0.0
C75 C 0.02867 0.90737 0.12077 0.0
C76 C 0.91025 0.78504 0.142 0.0
O77 O 0.97633 0.82916 0.09808 0.0
O78 O 0.92452 0.80727 0.07424 0.0
C79 C 0.90149 0.85419 0.0454 0.0
N80 N 0.88225 0.84115 0.06809 0.0
C81 C 0.84807 0.87125 0.05947 0.0
C82 C 0.86763 0.88513 0.0361 0.0
C83 C 0.89438 0.87649 0.02899 0.0
C84 C 0.85615 0.84897 0.07496 0.0
H85 H 0.92247 0.84805 0.04008 0.0
C86 C 0.95678 0.81255 0.07811 0.0
O87 O 0.01952 0.88233 0.1387 0.0
O88 O 0.00311 0.9046 0.10555 0.0
N89 N 0.85068 0.8168 0.11327 0.0
C90 C 0.83666 0.80406 0.13756 0.0
C91 C 0.81031 0.81133 0.14791 0.0
C92 C 0.79879 0.83175 0.13328 0.0
C93 C 0.81365 0.84462 0.10836 0.0
C94 C 0.83944 0.83607 0.09889 0.0
H95 H 0.84564 0.78866 0.14901 0.0
O96 O 0.95132 0.88967 0.14506 0.0
O97 O 0.9256 0.85675 0.11038 0.0
O98 O 0.93903 0.81509 0.14792 0.0
O99 O 0.89046 0.78096 0.12201 0.0
C100 C 0.80463 0.86646 0.09286 0.0
C101 C 0.82186 0.87981 0.06845 0.0
H102 H 0.86276 0.90303 0.02377 0.0
H103 H 0.90979 0.88736 0.01106 0.0
H104 H 0.7991 0.80144 0.16722 0.0
H105 H 0.77882 0.83771 0.14149 0.0
H106 H 0.78494 0.87369 0.09974 0.0
H107 H 0.81521 0.89715 0.05693 0.0
Mn108 Mn 0.1008 0.1149 0.83877 0.0
Mn109 Mn 0.07249 0.17098 0.86065 0.0
C110 C 0.03998 0.099 0.83351 0.0
C111 C 0.11061 0.06693 0.84944 0.0
C112 C 0.12559 0.18854 0.81541 0.0
O113 O 0.14026 0.14911 0.86423 0.0
O114 O 0.11204 0.17589 0.88411 0.0
C115 C 0.03926 0.13895 0.91198 0.0
N116 N 0.03579 0.1484 0.88713 0.0
C117 C 0.97153 0.12544 0.89339 0.0
C118 C 0.97435 0.11522 0.91898 0.0
C119 C 0.00839 0.12215 0.92836 0.0
C120 C 0.0033 0.14248 0.87808 0.0
H121 H 0.06534 0.14392 0.91914 0.0
C122 C 0.13832 0.16917 0.88215 0.0
O123 O 0.12783 0.08862 0.82989 0.0
O124 O 0.08804 0.07308 0.86235 0.0
N125 N 0.03396 0.16691 0.83881 0.0
C126 C 0.03535 0.17609 0.81311 0.0
C127 C 0.00332 0.16989 0.80052 0.0
C128 C 0.97019 0.15421 0.81444 0.0
C129 C 0.96941 0.14495 0.84087 0.0
C130 C 0.00228 0.15211 0.85245 0.0
H131 H 0.06066 0.18785 0.80225 0.0
O132 O 0.05382 0.08408 0.81879 0.0
O133 O 0.06289 0.12324 0.84962 0.0
O134 O 0.1206 0.15649 0.81177 0.0
O135 O 0.11003 0.19648 0.83352 0.0
C136 C 0.93716 0.12808 0.85599 0.0
C137 C 0.93822 0.11837 0.88224 0.0
H138 H 0.95042 0.1016 0.93141 0.0
H139 H 0.01075 0.11428 0.94809 0.0
H140 H 0.00411 0.17697 0.78008 0.0
H141 H 0.94546 0.14911 0.80458 0.0
H142 H 0.9113 0.12204 0.84752 0.0
H143 H 0.91316 0.10498 0.89357 0.0
Mn144 Mn 0.77914 0.90507 0.8738 0.0
Mn145 Mn 0.74641 0.84593 0.92428 0.0
C146 C 0.78377 0.85294 0.87377 0.0
C147 C 0.83044 0.95738 0.85736 0.0
C148 C 0.69821 0.85389 0.88429 0.0
O149 O 0.77359 0.93465 0.90247 0.0
O150 O 0.75684 0.89502 0.93636 0.0
C151 C 0.81375 0.87889 0.95615 0.0
N152 N 0.78676 0.84938 0.94335 0.0
C153 C 0.815 0.81359 0.95262 0.0
C154 C 0.84284 0.84346 0.96617 0.0
C155 C 0.84237 0.87634 0.9677 0.0
C156 C 0.78714 0.81772 0.94147 0.0
H157 H 0.81382 0.90441 0.95705 0.0
C158 C 0.76575 0.92644 0.92654 0.0
O159 O 0.79805 0.94764 0.84838 0.0
O160 O 0.83238 0.93678 0.87513 0.0
N161 N 0.73643 0.79807 0.91451 0.0
C162 C 0.71024 0.7736 0.89805 0.0
C163 C 0.70817 0.73999 0.89307 0.0
C164 C 0.73323 0.73202 0.90488 0.0
C165 C 0.76014 0.75775 0.9216 0.0
C166 C 0.76047 0.79052 0.92619 0.0
H167 H 0.69132 0.77986 0.88858 0.0
O168 O 0.78527 0.86915 0.85185 0.0
O169 O 0.77775 0.86708 0.89418 0.0
O170 O 0.72359 0.87717 0.86925 0.0
O171 O 0.70376 0.84058 0.90508 0.0
C172 C 0.78733 0.75262 0.93323 0.0
C173 C 0.81477 0.78055 0.94869 0.0
H174 H 0.86526 0.84178 0.97478 0.0
H175 H 0.86441 0.89992 0.97731 0.0
H176 H 0.68753 0.72041 0.87996 0.0
H177 H 0.73188 0.70629 0.90069 0.0
H178 H 0.78784 0.72761 0.92994 0.0
H179 H 0.83605 0.77665 0.95699 0.0
Mn180 Mn 0.00144 0.81556 0.8838 0.0
Mn181 Mn 0.08412 0.83433 0.90391 0.0
C182 C 0.05282 0.86352 0.86453 0.0
C183 C 0.95107 0.82215 0.88943 0.0
C184 C 0.03231 0.76738 0.87191 0.0
O185 O -0.00796 0.78924 0.91862 0.0
O186 O 0.04949 0.81273 0.93391 0.0
C187 C 0.10209 0.89235 0.94317 0.0
N188 N 0.10995 0.8813 0.9203 0.0
C189 C 0.1621 0.94127 0.91276 0.0
C190 C 0.15467 0.95322 0.93631 0.0
C191 C 0.12453 0.92863 0.95157 0.0
C192 C 0.139 0.90467 0.90552 0.0
H193 H 0.07868 0.87372 0.9548 0.0
C194 C 0.01462 0.79431 0.93689 0.0
O195 O 0.94824 0.79372 0.87757 0.0
O196 O 0.9831 0.84653 0.89799 0.0
N197 N 0.11925 0.85621 0.87625 0.0
C198 C 0.12161 0.84091 0.85344 0.0
C199 C 0.14981 0.86214 0.83565 0.0
C200 C 0.17518 0.89891 0.84142 0.0
C201 C 0.17226 0.91405 0.86504 0.0
C202 C 0.14387 0.89142 0.88217 0.0
H203 H 0.10213 0.81273 0.84881 0.0
O204 O 0.02156 0.84816 0.85251 0.0
O205 O 0.05255 0.84966 0.88729 0.0
O206 O 0.00968 0.77766 0.86667 0.0
O207 O 0.05999 0.78535 0.88681 0.0
C208 C 0.19612 0.95085 0.87208 0.0
C209 C 0.19102 0.96445 0.89591 0.0
H210 H 0.17169 0.9813 0.94271 0.0
H211 H 0.11845 0.93768 0.96968 0.0
H212 H 0.15191 0.85024 0.81747 0.0
H213 H 0.19671 0.91528 0.82754 0.0
H214 H 0.21827 0.96902 0.85919 0.0
H215 H 0.20927 0.9929 0.90096 0.0
Mn216 Mn 0.84596 0.45935 0.44221 0.0
Mn217 Mn 0.88679 0.42153 0.40935 0.0
C218 C 0.82339 0.39692 0.44566 0.0
C219 C 0.80205 0.47667 0.43923 0.0
C220 C 0.91875 0.46932 0.45748 0.0
O221 O 0.87807 0.49824 0.41558 0.0
O222 O 0.89459 0.46567 0.39006 0.0
C223 C 0.84009 0.39791 0.36235 0.0
N224 N 0.85455 0.38944 0.38312 0.0
C225 C 0.81757 0.32495 0.37431 0.0
C226 C 0.80178 0.33303 0.35315 0.0
C227 C 0.81345 0.36964 0.34692 0.0
C228 C 0.84409 0.3543 0.38898 0.0
H229 H 0.84807 0.42597 0.35802 0.0
C230 C 0.8922 0.49416 0.39471 0.0
O231 O 0.82762 0.49132 0.45686 0.0
O232 O 0.80241 0.45264 0.42393 0.0
N233 N 0.87984 0.37807 0.42629 0.0
C234 C 0.89357 0.37474 0.44954 0.0
C235 C 0.88417 0.33978 0.45878 0.0
C236 C 0.86051 0.30861 0.44414 0.0
C237 C 0.84668 0.31271 0.4203 0.0
C238 C 0.85776 0.3483 0.41173 0.0
H239 H 0.9114 0.39854 0.46106 0.0
O240 O 0.81477 0.41348 0.46311 0.0
O241 O 0.84499 0.4179 0.42736 0.0
O242 O 0.89085 0.47146 0.46416 0.0
O243 O 0.92066 0.45354 0.43669 0.0
C244 C 0.82113 0.28282 0.40527 0.0
C245 C 0.80634 0.28893 0.38244 0.0
H246 H 0.78009 0.31136 0.34186 0.0
H247 H 0.8013 0.37601 0.33064 0.0
H248 H 0.89479 0.33684 0.47728 0.0
H249 H 0.8527 0.28164 0.4516 0.0
H250 H 0.81173 0.25498 0.41156 0.0
H251 H 0.78555 0.26564 0.3718 0.0
Mn252 Mn 0.54516 0.39726 0.45168 0.0
Mn253 Mn 0.57908 0.47608 0.41777 0.0
C254 C 0.60562 0.44235 0.45726 0.0
C255 C 0.53199 0.33685 0.45238 0.0
C256 C 0.52846 0.45659 0.46439 0.0
O257 O 0.50761 0.38565 0.42309 0.0
O258 O 0.53711 0.43656 0.39823 0.0
C259 C 0.60698 0.45866 0.37038 0.0
N260 N 0.61311 0.4801 0.39174 0.0
C261 C 0.67659 0.51849 0.38044 0.0
C262 C 0.67086 0.49705 0.35815 0.0
C263 C 0.63592 0.4669 0.35321 0.0
C264 C 0.64656 0.50921 0.39672 0.0
H265 H 0.58025 0.43536 0.36653 0.0
C266 C 0.51076 0.40374 0.40228 0.0
O267 O 0.51467 0.34747 0.46772 0.0
O268 O 0.55636 0.36115 0.43683 0.0
N269 N 0.62034 0.51584 0.43474 0.0
C270 C 0.62187 0.53183 0.45817 0.0
C271 C 0.65536 0.56102 0.46695 0.0
C272 C 0.68691 0.57355 0.45151 0.0
C273 C 0.68467 0.55679 0.42742 0.0
C274 C 0.65048 0.52797 0.41961 0.0
H275 H 0.59781 0.52234 0.47013 0.0
O276 O 0.58904 0.41679 0.4747 0.0
O277 O 0.58626 0.44018 0.4369 0.0
O278 O 0.5278 0.42741 0.47144 0.0
O279 O 0.54504 0.47528 0.44416 0.0
C280 C 0.71517 0.567 0.4111 0.0
C281 C 0.71111 0.54791 0.38759 0.0
H282 H 0.69329 0.50323 0.34501 0.0
H283 H 0.63109 0.44976 0.33638 0.0
H284 H 0.65685 0.57375 0.4856 0.0
H285 H 0.71276 0.59588 0.45845 0.0
H286 H 0.74197 0.58915 0.41664 0.0
H287 H 0.73486 0.55561 0.37541 0.0
Mn288 Mn 0.60239 0.1464 0.44144 0.0
Mn289 Mn 0.52393 0.10702 0.40755 0.0
C290 C 0.56268 0.16853 0.44512 0.0
C291 C 0.66387 0.19143 0.44252 0.0
C292 C 0.53654 0.07324 0.45577 0.0
O293 O 0.61094 0.11727 0.4135 0.0
O294 O 0.55989 0.09772 0.38944 0.0
C295 C 0.55144 0.15383 0.36045 0.0
N296 N 0.52732 0.14011 0.38077 0.0
C297 C 0.50368 0.17969 0.37061 0.0
C298 C 0.52874 0.19462 0.34988 0.0
C299 C 0.55236 0.1813 0.34456 0.0
C300 C 0.50389 0.15219 0.38574 0.0
H301 H 0.57056 0.14461 0.35679 0.0
C302 C 0.59171 0.10194 0.39317 0.0
O303 O 0.65124 0.16332 0.45818 0.0
O304 O 0.64117 0.19216 0.42604 0.0
N305 N 0.48796 0.11573 0.42313 0.0
C306 C 0.46949 0.10248 0.4461 0.0
C307 C 0.44506 0.11359 0.45447 0.0
C308 C 0.44016 0.13846 0.43931 0.0
C309 C 0.45957 0.15183 0.4158 0.0
C310 C 0.48281 0.13903 0.40808 0.0
H311 H 0.4736 0.08385 0.45807 0.0
O312 O 0.58648 0.17513 0.46332 0.0
O313 O 0.56277 0.14857 0.42595 0.0
O314 O 0.56811 0.09991 0.46152 0.0
O315 O 0.5184 0.07207 0.43547 0.0
C316 C 0.45786 0.17844 0.40029 0.0
C317 C 0.48008 0.19255 0.37783 0.0
H318 H 0.5308 0.21693 0.33825 0.0
H319 H 0.5718 0.19281 0.32862 0.0
H320 H 0.4304 0.10336 0.47274 0.0
H321 H 0.42188 0.14757 0.44612 0.0
H322 H 0.44036 0.18907 0.40589 0.0
H323 H 0.47948 0.214 0.36669 0.0
Mn324 Mn 0.81338 0.50833 0.21054 0.0
Mn325 Mn 0.78402 0.55014 0.25128 0.0
C326 C 0.75305 0.4942 0.20911 0.0
C327 C 0.82168 0.45836 0.20512 0.0
C328 C 0.83208 0.58714 0.20386 0.0
O329 O 0.85325 0.53046 0.23812 0.0
O330 O 0.82705 0.5506 0.26687 0.0
C331 C 0.75857 0.4951 0.29367 0.0
N332 N 0.75144 0.51495 0.27615 0.0
C333 C 0.68723 0.481 0.28641 0.0
C334 C 0.69389 0.45982 0.30425 0.0
C335 C 0.72974 0.46723 0.30814 0.0
C336 C 0.71709 0.50851 0.27258 0.0
H337 H 0.78592 0.49985 0.29611 0.0
C338 C 0.85231 0.544 0.26021 0.0
O339 O 0.8395 0.48733 0.19043 0.0
O340 O 0.80012 0.45906 0.22264 0.0
N341 N 0.74184 0.55037 0.23826 0.0
C342 C 0.73939 0.56966 0.21778 0.0
C343 C 0.70531 0.56542 0.2113 0.0
C344 C 0.67407 0.54119 0.22576 0.0
C345 C 0.67726 0.5216 0.24673 0.0
C346 C 0.71212 0.5277 0.25275 0.0
H347 H 0.76322 0.58799 0.2064 0.0
O348 O 0.76726 0.48679 0.18929 0.0
O349 O 0.77504 0.50997 0.22852 0.0
O350 O 0.83176 0.55899 0.19441 0.0
O351 O 0.81661 0.58707 0.22541 0.0
C352 C 0.647 0.49508 0.26111 0.0
C353 C 0.65191 0.47448 0.28069 0.0
H354 H 0.67168 0.43736 0.31475 0.0
H355 H 0.73503 0.45095 0.32184 0.0
H356 H 0.70303 0.58047 0.19498 0.0
H357 H 0.64769 0.53736 0.22031 0.0
H358 H 0.61966 0.48937 0.25662 0.0
H359 H 0.62817 0.45297 0.29064 0.0
Mn360 Mn 0.47939 0.31468 0.21276 0.0
Mn361 Mn 0.41771 0.23871 0.24425 0.0
C362 C 0.47746 0.25982 0.20516 0.0
C363 C 0.53734 0.36657 0.21197 0.0
C364 C 0.39887 0.2747 0.20052 0.0
O365 O 0.46314 0.3339 0.24323 0.0
O366 O 0.42958 0.2819 0.26654 0.0
C367 C 0.4599 0.23825 0.29 0.0
N368 N 0.44091 0.22191 0.26784 0.0
C369 C 0.45152 0.17157 0.27315 0.0
C370 C 0.47091 0.18771 0.29614 0.0
C371 C 0.47517 0.22125 0.30456 0.0
C372 C 0.43649 0.18957 0.25961 0.0
H373 H 0.46357 0.26419 0.29643 0.0
C374 C 0.44585 0.3169 0.26393 0.0
O375 O 0.51103 0.36495 0.19793 0.0
O376 O 0.52946 0.33867 0.2268 0.0
N377 N 0.40586 0.19592 0.22414 0.0
C378 C 0.38836 0.18516 0.20069 0.0
C379 C 0.38314 0.15286 0.189 0.0
C380 C 0.39602 0.13202 0.20148 0.0
C381 C 0.41396 0.14364 0.22559 0.0
C382 C 0.41806 0.17588 0.23642 0.0
H383 H 0.37862 0.20114 0.19086 0.0
O384 O 0.49192 0.28607 0.188 0.0
O385 O 0.46398 0.26666 0.22572 0.0
O386 O 0.43146 0.29809 0.19389 0.0
O387 O 0.39088 0.25306 0.22001 0.0
C388 C 0.42856 0.12487 0.23904 0.0
C389 C 0.4473 0.13881 0.26283 0.0
H390 H 0.48285 0.17463 0.30723 0.0
H391 H 0.49038 0.23426 0.32209 0.0
H392 H 0.36938 0.14415 0.17034 0.0
H393 H 0.39223 0.10729 0.19229 0.0
H394 H 0.42588 0.09991 0.23112 0.0
H395 H 0.45877 0.12438 0.27285 0.0
Mn396 Mn 0.67269 0.19314 0.2124 0.0
Mn397 Mn 0.74996 0.20033 0.23608 0.0
C398 C 0.72724 0.24845 0.20897 0.0
C399 C 0.6194 0.19504 0.21981 0.0
C400 C 0.71174 0.15895 0.18681 0.0
O401 O 0.65524 0.14876 0.23637 0.0
O402 O 0.70784 0.16275 0.25684 0.0
C403 C 0.75541 0.22741 0.29001 0.0
N404 N 0.76935 0.23234 0.26537 0.0
C405 C 0.82416 0.28754 0.278 0.0
C406 C 0.81075 0.28259 0.30362 0.0
C407 C 0.7761 0.25254 0.3096 0.0
C408 C 0.80271 0.26109 0.25944 0.0
H409 H 0.72894 0.20425 0.29476 0.0
C410 C 0.67292 0.14367 0.25454 0.0
O411 O 0.62184 0.17653 0.20047 0.0
O412 O 0.64769 0.21197 0.23491 0.0
N413 N 0.79202 0.2369 0.21745 0.0
C414 C 0.80084 0.23795 0.19171 0.0
C415 C 0.83357 0.26753 0.18212 0.0
C416 C 0.85709 0.29563 0.19915 0.0
C417 C 0.84758 0.29391 0.22559 0.0
C418 C 0.81447 0.26383 0.23397 0.0
H419 H 0.78302 0.21649 0.17854 0.0
O420 O 0.6998 0.24145 0.19393 0.0
O421 O 0.72151 0.22302 0.22579 0.0
O422 O 0.68894 0.16984 0.18462 0.0
O423 O 0.73358 0.16695 0.20599 0.0
C424 C 0.86948 0.32103 0.24392 0.0
C425 C 0.85792 0.31769 0.27017 0.0
H426 H 0.82702 0.30168 0.31878 0.0
H427 H 0.7653 0.24849 0.32924 0.0
H428 H 0.84067 0.26863 0.16167 0.0
H429 H 0.88232 0.31843 0.19169 0.0
H430 H 0.89526 0.34458 0.23803 0.0
H431 H 0.87501 0.33866 0.28412 0.0
Mn432 Mn 0.43598 0.79566 0.81472 0.0
Mn433 Mn 0.49719 0.79101 0.77512 0.0
C434 C 0.43415 0.74056 0.8091 0.0
C435 C 0.3792 0.7917 0.81698 0.0
C436 C 0.51449 0.82235 0.82993 0.0
O437 O 0.45755 0.84328 0.79424 0.0
O438 O 0.4946 0.83544 0.76679 0.0
C439 C 0.45927 0.77973 0.72444 0.0
N440 N 0.47414 0.768 0.74295 0.0
C441 C 0.45851 0.71371 0.71821 0.0
C442 C 0.44326 0.72533 0.6988 0.0
C443 C 0.44373 0.75853 0.70191 0.0
C444 C 0.47442 0.73643 0.73993 0.0
H445 H 0.45922 0.80504 0.72686 0.0
C446 C 0.48012 0.85371 0.77521 0.0
O447 O 0.40314 0.80804 0.83546 0.0
O448 O 0.38859 0.77851 0.79773 0.0
N449 N 0.50178 0.74884 0.781 0.0
C450 C 0.51611 0.74073 0.80203 0.0
C451 C 0.51685 0.70794 0.80232 0.0
C452 C 0.50288 0.68386 0.78098 0.0
C453 C 0.48858 0.69294 0.75944 0.0
C454 C 0.48911 0.72629 0.76007 0.0
H455 H 0.52661 0.759 0.81854 0.0
O456 O 0.41826 0.74538 0.82908 0.0
O457 O 0.45001 0.76796 0.79288 0.0
O458 O 0.48288 0.81644 0.83658 0.0
O459 O 0.52229 0.81414 0.80777 0.0
C460 C 0.47275 0.66969 0.73776 0.0
C461 C 0.45762 0.68002 0.7172 0.0
H462 H 0.43081 0.70881 0.68157 0.0
H463 H 0.4319 0.76763 0.68707 0.0
H464 H 0.52786 0.70108 0.81904 0.0
H465 H 0.50294 0.6583 0.78147 0.0
H466 H 0.47165 0.64359 0.73682 0.0
H467 H 0.44523 0.66175 0.70075 0.0
Mn468 Mn 0.12644 0.61489 0.77918 0.0
Mn469 Mn 0.12451 0.68785 0.75538 0.0
C470 C 0.1729 0.67342 0.79013 0.0
C471 C 0.14136 0.56961 0.77392 0.0
C472 C 0.07449 0.63818 0.79829 0.0
O473 O 0.09073 0.59455 0.74862 0.0
O474 O 0.10092 0.64717 0.72989 0.0
C475 C 0.16922 0.70769 0.70728 0.0
N476 N 0.16341 0.7167 0.73163 0.0
C477 C 0.21402 0.77828 0.72707 0.0
C478 C 0.22012 0.76982 0.70178 0.0
C479 C 0.19781 0.73426 0.69193 0.0
C480 C 0.18473 0.75081 0.74132 0.0
H481 H 0.15196 0.68053 0.69949 0.0
C482 C 0.08845 0.61254 0.72932 0.0
O483 O 0.11518 0.56496 0.78953 0.0
O484 O 0.15858 0.60045 0.76126 0.0
N485 N 0.14821 0.72904 0.77854 0.0
C486 C 0.13887 0.73279 0.80338 0.0
C487 C 0.15957 0.76623 0.81651 0.0
C488 C 0.18959 0.7956 0.80395 0.0
C489 C 0.19863 0.79122 0.77836 0.0
C490 C 0.17699 0.75721 0.76627 0.0
H491 H 0.11579 0.71058 0.81315 0.0
O492 O 0.16645 0.64537 0.80446 0.0
O493 O 0.15202 0.66607 0.76978 0.0
O494 O 0.09024 0.61993 0.8022 0.0
O495 O 0.08312 0.6612 0.77966 0.0
C496 C 0.22834 0.81924 0.7644 0.0
C497 C 0.23592 0.81283 0.73871 0.0
H498 H 0.24173 0.79053 0.68978 0.0
H499 H 0.2023 0.72726 0.67252 0.0
H500 H 0.15229 0.76941 0.83623 0.0
H501 H 0.20547 0.82138 0.81413 0.0
H502 H 0.24553 0.84583 0.77323 0.0
H503 H 0.25884 0.83458 0.72816 0.0
Mn504 Mn 0.30891 0.47102 0.77321 0.0
Mn505 Mn 0.2579 0.42854 0.7209 0.0
C506 C 0.25315 0.46754 0.76775 0.0
C507 C 0.35418 0.52908 0.78735 0.0
C508 C 0.26526 0.38829 0.76787 0.0
O509 O 0.34471 0.4673 0.7492 0.0
O510 O 0.31004 0.44513 0.71312 0.0
C511 C 0.28827 0.49354 0.68632 0.0
N512 N 0.25885 0.46512 0.69837 0.0
C513 C 0.21994 0.48845 0.68542 0.0
C514 C 0.24996 0.51814 0.67314 0.0
C515 C 0.28413 0.52042 0.6733 0.0
C516 C 0.2256 0.4622 0.69784 0.0
H517 H 0.31493 0.49618 0.68713 0.0
C518 C 0.34076 0.45873 0.72509 0.0
O519 O 0.34862 0.50005 0.80021 0.0
O520 O 0.33427 0.52354 0.76708 0.0
N521 N 0.20732 0.41278 0.72621 0.0
C522 C 0.18241 0.38524 0.74178 0.0
C523 C 0.1468 0.37932 0.74377 0.0
C524 C 0.13729 0.402 0.72998 0.0
C525 C 0.1634 0.43023 0.71412 0.0
C526 C 0.19819 0.43418 0.71231 0.0
H527 H 0.18973 0.36812 0.75278 0.0
O528 O 0.26807 0.4739 0.79066 0.0
O529 O 0.27125 0.46248 0.74947 0.0
O530 O 0.28503 0.41641 0.78221 0.0
O531 O 0.25531 0.39021 0.7445 0.0
C532 C 0.15669 0.45543 0.70084 0.0
C533 C 0.18499 0.48464 0.68664 0.0
H534 H 0.24702 0.53929 0.66346 0.0
H535 H 0.30737 0.54321 0.66381 0.0
H536 H 0.12686 0.35763 0.75619 0.0
H537 H 0.11001 0.39784 0.73202 0.0
H538 H 0.13011 0.45317 0.702 0.0
H539 H 0.17977 0.50443 0.67712 0.0
Mn540 Mn 0.45874 0.87492 0.59886 0.0
Mn541 Mn 0.39751 0.89717 0.61935 0.0
C542 C 0.39757 0.83663 0.58939 0.0
C543 C 0.49238 0.84671 0.60759 0.0
C544 C 0.4512 0.93573 0.57508 0.0
O545 O 0.48591 0.91407 0.62642 0.0
O546 O 0.439 0.91727 0.64427 0.0
C547 C 0.37355 0.85286 0.66782 0.0
N548 N 0.36522 0.86162 0.64417 0.0
C549 C 0.30305 0.81189 0.64725 0.0
C550 C 0.31103 0.80234 0.67162 0.0
C551 C 0.34635 0.82309 0.68203 0.0
C552 C 0.33119 0.84204 0.63407 0.0
H553 H 0.40097 0.86795 0.67553 0.0
C554 C 0.47211 0.92405 0.64459 0.0
O555 O 0.50317 0.87237 0.59 0.0
O556 O 0.46293 0.83855 0.62056 0.0
N557 N 0.35591 0.87785 0.59672 0.0
C558 C 0.35368 0.88813 0.57182 0.0
C559 C 0.32011 0.87005 0.55859 0.0
C560 C 0.28925 0.84145 0.57099 0.0
C561 C 0.29219 0.83139 0.59662 0.0
C562 C 0.32613 0.85105 0.6091 0.0
H563 H 0.37732 0.90987 0.56206 0.0
O564 O 0.42236 0.83453 0.57589 0.0
O565 O 0.40982 0.86101 0.60773 0.0
O566 O 0.46244 0.9131 0.57325 0.0
O567 O 0.42942 0.93437 0.59299 0.0
C568 C 0.26321 0.80162 0.60982 0.0
C569 C 0.26878 0.79163 0.63495 0.0
H570 H 0.29053 0.77866 0.68228 0.0
H571 H 0.35278 0.81569 0.70071 0.0
H572 H 0.31812 0.87788 0.53877 0.0
H573 H 0.2636 0.82701 0.56052 0.0
H574 H 0.23683 0.78551 0.6005 0.0
H575 H 0.24673 0.76781 0.64435 0.0
Mn576 Mn 0.17666 0.59185 0.55182 0.0
Mn577 Mn 0.14321 0.50198 0.55902 0.0
C578 C 0.20891 0.56567 0.53541 0.0
C579 C 0.21219 0.65206 0.56578 0.0
C580 C 0.10877 0.53537 0.52578 0.0
O581 O 0.13953 0.57619 0.58183 0.0
O582 O 0.13005 0.51945 0.59114 0.0
C583 C 0.18196 0.49198 0.60336 0.0
N584 N 0.17544 0.49048 0.57723 0.0
C585 C 0.21483 0.46599 0.5688 0.0
C586 C 0.22236 0.4678 0.59557 0.0
C587 C 0.20527 0.48015 0.61288 0.0
C588 C 0.19033 0.47689 0.56046 0.0
H589 H 0.169 0.50156 0.61682 0.0
C590 C 0.12693 0.54752 0.59646 0.0
O591 O 0.18513 0.64241 0.54978 0.0
O592 O 0.21708 0.62628 0.57507 0.0
N593 N 0.15631 0.48498 0.52837 0.0
C594 C 0.14517 0.4836 0.50317 0.0
C595 C 0.15918 0.47119 0.48338 0.0
C596 C 0.18445 0.46024 0.48962 0.0
C597 C 0.19536 0.46166 0.51566 0.0
C598 C 0.18042 0.47425 0.53458 0.0
H599 H 0.12579 0.49192 0.49811 0.0
O600 O 0.21377 0.59613 0.52553 0.0
O601 O 0.18424 0.55139 0.55356 0.0
O602 O 0.13622 0.56747 0.52517 0.0
O603 O 0.10728 0.50963 0.53963 0.0
C604 C 0.22064 0.45128 0.52355 0.0
C605 C 0.23026 0.4533 0.55014 0.0
H606 H 0.24061 0.45909 0.60311 0.0
H607 H 0.20956 0.47985 0.6335 0.0
H608 H 0.15056 0.47012 0.46332 0.0
H609 H 0.19528 0.45077 0.47428 0.0
H610 H 0.23272 0.44154 0.50935 0.0
H611 H 0.24946 0.44491 0.55603 0.0
Mn612 Mn 0.46581 0.61755 0.56941 0.0
Mn613 Mn 0.54103 0.64718 0.60556 0.0
C614 C 0.50633 0.67947 0.57197 0.0
C615 C 0.40359 0.59631 0.56705 0.0
C616 C 0.52525 0.6038 0.55537 0.0
O617 O 0.45684 0.57465 0.59243 0.0
O618 O 0.50118 0.60236 0.62291 0.0
C619 C 0.52519 0.66947 0.65637 0.0
N620 N 0.54453 0.67856 0.6336 0.0
C621 C 0.5803 0.74178 0.64651 0.0
C622 C 0.56055 0.73317 0.67 0.0
C623 C 0.53325 0.69679 0.67505 0.0
C624 C 0.57182 0.71324 0.62893 0.0
H625 H 0.50405 0.64156 0.66031 0.0
C626 C 0.47156 0.57467 0.61426 0.0
O627 O 0.41975 0.587 0.54973 0.0
O628 O 0.42359 0.61813 0.58565 0.0
N629 N 0.57988 0.69056 0.58965 0.0
C630 C 0.59596 0.69447 0.56585 0.0
C631 C 0.62365 0.7293 0.55763 0.0
C632 C 0.63454 0.75975 0.57395 0.0
C633 C 0.61766 0.75506 0.59838 0.0
C634 C 0.59034 0.71967 0.60557 0.0
H635 H 0.58766 0.67126 0.55314 0.0
O636 O 0.48289 0.66626 0.55292 0.0
O637 O 0.50448 0.65575 0.58898 0.0
O638 O 0.50078 0.61013 0.54723 0.0
O639 O 0.54086 0.61497 0.57747 0.0
C640 C 0.62649 0.78424 0.6157 0.0
C641 C 0.60791 0.77758 0.6398 0.0
H642 H 0.56627 0.75418 0.68437 0.0
H643 H 0.51874 0.6898 0.6934 0.0
H644 H 0.6365 0.73269 0.53872 0.0
H645 H 0.65575 0.7866 0.56747 0.0
H646 H 0.64744 0.81192 0.61064 0.0
H647 H 0.6149 0.80022 0.65295 0.0
H648 H 0.40267 0.28354 0.1482 0.0
H649 H 0.32783 0.25036 0.21342 0.0
H650 H 0.27619 0.22825 0.18331 0.0
H651 H 0.25219 0.21038 0.13882 0.0
H652 H 0.32702 0.23734 0.07412 0.0
H653 H 0.37895 0.27027 0.10358 0.0
C654 C 0.37513 0.27238 0.1558 0.0
C655 C 0.36891 0.26847 0.18289 0.0
C656 C 0.34561 0.25818 0.13844 0.0
C657 C 0.33312 0.25346 0.19256 0.0
C658 C 0.30365 0.24071 0.17538 0.0
C659 C 0.27988 0.22422 0.13114 0.0
C660 C 0.28596 0.22141 0.10447 0.0
C661 C 0.30951 0.2417 0.14832 0.0
C662 C 0.32185 0.23899 0.09469 0.0
C663 C 0.35148 0.25775 0.1115 0.0
H664 H 0.78455 0.08854 0.12621 0.0
H665 H 0.82695 0.18946 0.08256 0.0
H666 H 0.78289 0.20205 0.10405 0.0
H667 H 0.73912 0.18869 0.14 0.0
H668 H 0.70217 0.091 0.18627 0.0
H669 H 0.73588 0.07164 0.15811 0.0
C670 C 0.78412 0.11326 0.1213 0.0
C671 C 0.80958 0.13854 0.10338 0.0
C672 C 0.75912 0.12041 0.13385 0.0
C673 C 0.80795 0.16987 0.09663 0.0
C674 C 0.78271 0.177 0.10882 0.0
C675 C 0.7373 0.16243 0.14307 0.0
C676 C 0.71823 0.14101 0.16485 0.0
C677 C 0.75891 0.15297 0.12801 0.0
C678 C 0.71644 0.10748 0.1693 0.0
C679 C 0.7362 0.09682 0.15352 0.0
H680 H 0.86301 0.65626 0.22273 0.0
H681 H 0.84004 0.59488 0.15097 0.0
H682 H 0.86293 0.65132 0.12559 0.0
H683 H 0.88615 0.71731 0.12386 0.0
H684 H 0.91215 0.77964 0.19523 0.0
H685 H 0.89133 0.7234 0.22094 0.0
C686 C 0.86326 0.65533 0.20153 0.0
C687 C 0.84959 0.6215 0.18868 0.0
C688 C 0.8767 0.68786 0.18712 0.0
C689 C 0.85053 0.62063 0.16126 0.0
C690 C 0.86339 0.65282 0.14676 0.0
C691 C 0.88724 0.71851 0.14507 0.0
C692 C 0.9 0.7522 0.15779 0.0
C693 C 0.87595 0.68641 0.1595 0.0
C694 C 0.90222 0.75381 0.18516 0.0
C695 C 0.89028 0.72175 0.19977 0.0
H696 H 0.225 0.32249 0.74336 0.0
H697 H 0.26838 0.37052 0.81892 0.0
H698 H 0.23125 0.31089 0.83966 0.0
H699 H 0.18063 0.24766 0.83709 0.0
H700 H 0.13562 0.19916 0.76229 0.0
H701 H 0.17955 0.25671 0.74027 0.0
C702 C 0.22686 0.31991 0.76433 0.0
C703 C 0.249 0.35124 0.77961 0.0
C704 C 0.20484 0.28566 0.77622 0.0
C705 C 0.25142 0.3471 0.80668 0.0
C706 C 0.23003 0.31302 0.8186 0.0
C707 C 0.18086 0.24965 0.8159 0.0
C708 C 0.15484 0.21981 0.80119 0.0
C709 C 0.20572 0.28257 0.80367 0.0
C710 C 0.15547 0.22205 0.77385 0.0
C711 C 0.18041 0.2549 0.76138 0.0
H712 H 0.67434 0.89704 0.8643 0.0
H713 H 0.63709 0.78788 0.89324 0.0
H714 H 0.57374 0.77065 0.8846 0.0
H715 H 0.53003 0.78488 0.86427 0.0
H716 H 0.56738 0.89311 0.83395 0.0
H717 H 0.6295 0.91333 0.849 0.0
C718 C 0.65229 0.86947 0.86859 0.0
C719 C 0.66022 0.84341 0.87863 0.0
C720 C 0.616 0.86003 0.86407 0.0
C721 C 0.63153 0.80814 0.885 0.0
C722 C 0.59535 0.79838 0.88029 0.0
C723 C 0.55155 0.81329 0.86213 0.0
C724 C 0.54448 0.83777 0.84854 0.0
C725 C 0.58735 0.82394 0.86946 0.0
C726 C 0.57239 0.87425 0.84504 0.0
C727 C 0.60795 0.8855 0.85308 0.0
H728 H 0.01736 0.64869 0.79319 0.0
H729 H 0.08506 0.63715 0.85066 0.0
H730 H 0.07425 0.6748 0.88131 0.0
H731 H 0.05853 0.72313 0.88681 0.0
H732 H -0.00703 0.73615 0.82795 0.0
H733 H 0.99028 0.68623 0.80277 0.0
C734 C 0.02825 0.65301 0.8129 0.0
C735 C 0.05276 0.64126 0.81945 0.0
C736 C 0.02365 0.67633 0.82975 0.0
C737 C 0.06626 0.64621 0.84512 0.0
C738 C 0.06078 0.66848 0.86245 0.0
C739 C 0.04328 0.71466 0.86866 0.0
C740 C 0.02697 0.73401 0.85887 0.0
C741 C 0.04181 0.68585 0.85415 0.0
C742 C 0.00635 0.72212 0.83571 0.0
C743 C 0.00465 0.69346 0.82129 0.0
H744 H 0.98896 0.50774 0.44278 0.0
H745 H 0.91924 0.46369 0.51051 0.0
H746 H 0.9727 0.48023 0.53806 0.0
H747 H 0.0389 0.50354 0.54191 0.0
H748 H 0.10857 0.55092 0.4745 0.0
H749 H 0.05534 0.53654 0.44744 0.0
C750 C 0.98566 0.50226 0.46366 0.0
C751 C 0.95057 0.48445 0.47475 0.0
C752 C 0.0163 0.51195 0.47918 0.0
C753 C 0.94625 0.47767 0.50175 0.0
C754 C 0.97667 0.48678 0.51737 0.0
C755 C 0.04218 0.51062 0.52128 0.0
C756 C 0.07708 0.52759 0.50988 0.0
C757 C 0.01171 0.50322 0.50615 0.0
C758 C 0.08165 0.53758 0.4834 0.0
C759 C 0.05137 0.52942 0.46803 0.0
H760 H 0.48746 0.56454 0.51313 0.0
H761 H 0.57506 0.5823 0.56528 0.0
H762 H 0.57849 0.53224 0.54447 0.0
H763 H 0.55789 0.48494 0.51053 0.0
H764 H 0.47395 0.47087 0.45652 0.0
H765 H 0.46621 0.51689 0.48003 0.0
C766 C 0.5076 0.55781 0.51987 0.0
C767 C 0.53116 0.57736 0.54062 0.0
C768 C 0.50911 0.52887 0.5081 0.0
C769 C 0.55681 0.56792 0.54918 0.0
C770 C 0.55851 0.53905 0.53751 0.0
C771 C 0.53706 0.49119 0.50461 0.0
C772 C 0.5158 0.4743 0.48244 0.0
C773 C 0.53465 0.51925 0.51708 0.0
C774 C 0.48982 0.48318 0.47403 0.0
C775 C 0.48595 0.50985 0.48713 0.0
H776 H 0.52176 0.07852 0.50596 0.0
H777 H 0.51114 0.00116 0.44699 0.0
H778 H 0.48273 0.95106 0.479 0.0
H779 H 0.46285 0.93012 0.52403 0.0
H780 H 0.46913 0.00667 0.58227 0.0
H781 H 0.49692 0.05657 0.55016 0.0
C782 C 0.5132 0.05061 0.50029 0.0
C783 C 0.51887 0.04318 0.47456 0.0
C784 C 0.49605 0.0221 0.51853 0.0
C785 C 0.50711 0.00713 0.46691 0.0
C786 C 0.49094 0.97867 0.48513 0.0
C787 C 0.47021 0.95775 0.52959 0.0
C788 C 0.4645 0.96504 0.5554 0.0
C789 C 0.48555 0.98594 0.51102 0.0
C790 C 0.47337 0.00063 0.56243 0.0
C791 C 0.48939 0.02909 0.54416 0.0
H792 H 0.09758 0.20191 0.09817 0.0
H793 H 0.07228 0.13324 0.02993 0.0
H794 H 0.01038 0.12264 0.02956 0.0
H795 H 0.96137 0.12417 0.05269 0.0
H796 H 0.98377 0.19141 0.12103 0.0
H797 H 0.04907 0.21115 0.11759 0.0
C798 C 0.0787 0.18532 0.08292 0.0
C799 C 0.08924 0.16777 0.06443 0.0
C800 C 0.04267 0.17878 0.08305 0.0
C801 C 0.06463 0.14649 0.04468 0.0
C802 C 0.02921 0.1404 0.04443 0.0
C803 C 0.98075 0.14468 0.06602 0.0
C804 C 0.96811 0.15731 0.08655 0.0
C805 C 0.01763 0.15525 0.06406 0.0
C806 C -0.00682 0.182 0.10474 0.0
C807 C 0.03036 0.19303 0.10283 0.0
H808 H 0.90349 0.00122 0.07823 0.0
H809 H 0.84598 0.9893 0.15052 0.0
H810 H 0.85532 0.9387 0.1636 0.0
H811 H 0.88436 0.90084 0.15535 0.0
H812 H 0.94271 0.91618 0.0829 0.0
H813 H 0.92877 0.96263 0.06907 0.0
C814 C 0.89284 0.98755 0.09685 0.0
C815 C 0.87458 -0.00073 0.11355 0.0
C816 C 0.89866 0.95917 0.10424 0.0
C817 C 0.86035 0.98082 0.13738 0.0
C818 C 0.86583 0.95204 0.14489 0.0
C819 C 0.89354 0.91424 0.1365 0.0
C820 C 0.91375 0.90469 0.11985 0.0
C821 C 0.88564 0.94144 0.12867 0.0
C822 C 0.92625 0.92251 0.09567 0.0
C823 C 0.91853 0.94924 0.08781 0.0
H824 H 0.15995 0.06708 0.12805 0.0
H825 H 0.13588 0.06016 0.04568 0.0
H826 H 0.09708 0.99411 0.04892 0.0
H827 H 0.06098 0.9408 0.07623 0.0
H828 H 0.07768 0.94692 0.15956 0.0
H829 H 0.12872 0.01025 0.1551 0.0
C830 C 0.14693 0.05075 0.11081 0.0
C831 C 0.15174 0.06816 0.08646 0.0
C832 C 0.12292 0.01269 0.11313 0.0
C833 C 0.13393 0.04714 0.06434 0.0
C834 C 0.11125 0.0094 0.06626 0.0
C835 C 0.07652 0.95571 0.09334 0.0
C836 C 0.06551 0.93969 0.11817 0.0
C837 C 0.10439 0.9922 0.09069 0.0
C838 C 0.08586 0.95886 0.14021 0.0
C839 C 0.11467 0.99518 0.13767 0.0
H840 H 0.07925 0.91988 0.89775 0.0
H841 H 0.08106 0.89343 0.81676 0.0
H842 H 0.10695 0.9581 0.80475 0.0
H843 H 0.1171 0.01935 0.81691 0.0
H844 H 0.11094 0.04292 0.89815 0.0
H845 H 0.10049 0.98276 0.91072 0.0
C846 C 0.08727 0.92855 0.87767 0.0
C847 C 0.07906 0.90217 0.85823 0.0
C848 C 0.10091 0.96534 0.87098 0.0
C849 C 0.08773 0.91349 0.83207 0.0
C850 C 0.1022 0.95038 0.82522 0.0
C851 C 0.11468 0.01164 0.83738 0.0
C852 C 0.1143 0.03518 0.85659 0.0
C853 C 0.10717 0.97625 0.8444 0.0
C854 C 0.11087 0.02495 0.88305 0.0
C855 C 0.10476 0.99053 0.89023 0.0
H856 H 0.97798 0.07522 0.80325 0.0
H857 H 0.01591 0.07168 0.88088 0.0
H858 H 0.95359 0.03233 0.89575 0.0
H859 H 0.8895 0.99531 0.88648 0.0
H860 H 0.84837 0.99219 0.80896 0.0
H861 H 0.91034 0.03872 0.79437 0.0
C862 C 0.97226 0.066 0.82341 0.0
C863 C 0.0013 0.07706 0.84119 0.0
C864 C 0.93589 0.04244 0.83185 0.0
C865 C -0.00611 0.0644 0.86711 0.0
C866 C 0.95829 0.04171 0.87561 0.0
C867 C 0.89391 0.005 0.86638 0.0
C868 C 0.86467 0.99009 0.84872 0.0
C869 C 0.92926 0.03024 0.85813 0.0
C870 C 0.8706 0.00338 0.82292 0.0
C871 C 0.90606 0.02963 0.81456 0.0
H872 H 0.88453 0.78414 0.86568 0.0
H873 H 0.94758 0.87288 0.91939 0.0
H874 H 0.89923 0.88769 0.92052 0.0
H875 H 0.84269 0.87963 0.90319 0.0
H876 H 0.77858 0.79279 0.84892 0.0
H877 H 0.82401 0.77287 0.85082 0.0
C878 C 0.88736 0.80636 0.87789 0.0
C879 C 0.91973 0.82772 0.89217 0.0
C880 C 0.85955 0.81511 0.87819 0.0
C881 C 0.92313 0.85636 0.90797 0.0
C882 C 0.89555 0.86487 0.90863 0.0
C883 C 0.8381 0.85564 0.89236 0.0
C884 C 0.80711 0.83692 0.87654 0.0
C885 C 0.86418 0.845 0.89339 0.0
C886 C 0.80211 0.80702 0.86159 0.0
C887 C 0.82804 0.79582 0.86268 0.0
H888 H 0.77052 0.49656 0.47785 0.0
H889 H 0.76438 0.47113 0.39563 0.0
H890 H 0.70332 0.46238 0.39334 0.0
H891 H 0.64792 0.44907 0.41656 0.0
H892 H 0.65231 0.47675 0.49788 0.0
H893 H 0.7177 0.49673 0.49902 0.0
C894 C 0.75629 0.49052 0.4593 0.0
C895 C 0.77146 0.48362 0.4371 0.0
C896 C 0.72067 0.48506 0.45812 0.0
C897 C 0.75287 0.47584 0.41311 0.0
C898 C 0.71788 0.47068 0.41176 0.0
C899 C 0.66364 0.46169 0.43408 0.0
C900 C 0.64581 0.46274 0.4568 0.0
C901 C 0.7009 0.47337 0.4344 0.0
C902 C 0.66588 0.47646 0.47999 0.0
C903 C 0.70315 0.48775 0.48064 0.0
H904 H 0.55211 0.30566 0.41548 0.0
H905 H 0.49985 0.28457 0.49102 0.0
H906 H 0.50092 0.22723 0.49451 0.0
H907 H 0.52398 0.18723 0.478 0.0
H908 H 0.57945 0.21245 0.40356 0.0
H909 H 0.56995 0.26405 0.39764 0.0
C910 C 0.54056 0.28836 0.43262 0.0
C911 C 0.52649 0.29953 0.45315 0.0
C912 C 0.54207 0.25624 0.43469 0.0
C913 C 0.51102 0.27655 0.47501 0.0
C914 C 0.51185 0.24393 0.47706 0.0
C915 C 0.53317 0.20371 0.46033 0.0
C916 C 0.55133 0.19558 0.44083 0.0
C917 C 0.52838 0.23409 0.45735 0.0
C918 C 0.56425 0.21756 0.41834 0.0
C919 C 0.55918 0.24727 0.41507 0.0
H920 H 0.80559 0.33699 0.47643 0.0
H921 H 0.78098 0.37153 0.40371 0.0
H922 H 0.73333 0.309 0.39437 0.0
H923 H 0.69591 0.24622 0.408 0.0
H924 H 0.71403 0.21023 0.4825 0.0
H925 H 0.76827 0.27102 0.48949 0.0
C926 C 0.79002 0.3304 0.45844 0.0
C927 C 0.79733 0.35828 0.4403 0.0
C928 C 0.76194 0.2942 0.45341 0.0
C929 C 0.77645 0.35009 0.41744 0.0
C930 C 0.74911 0.31445 0.41217 0.0
C931 C 0.71188 0.25139 0.4257 0.0
C932 C 0.70074 0.224 0.44486 0.0
C933 C 0.74142 0.28647 0.4301 0.0
C934 C 0.7221 0.23098 0.46745 0.0
C935 C 0.75281 0.26582 0.47157 0.0
H936 H 0.76604 0.29845 0.17102 0.0
H937 H 0.75087 0.28468 0.25449 0.0
H938 H 0.78954 0.35034 0.26083 0.0
H939 H 0.81588 0.41152 0.24237 0.0
H940 H 0.82466 0.42715 0.15886 0.0
H941 H 0.80131 0.36145 0.15259 0.0
C942 C 0.77224 0.30996 0.19056 0.0
C943 C 0.75666 0.28675 0.21235 0.0
C944 C 0.79295 0.34821 0.19394 0.0
C945 C 0.76388 0.30182 0.23755 0.0
C946 C 0.78553 0.33947 0.24115 0.0
C947 C 0.81384 0.40068 0.22282 0.0
C948 C 0.82145 0.4238 0.20109 0.0
C949 C 0.79872 0.36294 0.21946 0.0
C950 C 0.81904 0.40977 0.17586 0.0
C951 C 0.80515 0.37213 0.17231 0.0
H952 H 0.69679 0.49331 0.18239 0.0
H953 H 0.72207 0.44186 0.24528 0.0
H954 H 0.65724 0.39945 0.2529 0.0
H955 H 0.59402 0.37592 0.24111 0.0
H956 H 0.56643 0.42516 0.17792 0.0
H957 H 0.63143 0.47054 0.1716 0.0
C958 C 0.68779 0.47298 0.19786 0.0
C959 C 0.71373 0.47105 0.21374 0.0
C960 C 0.65026 0.44866 0.20222 0.0
C961 C 0.70226 0.44421 0.23333 0.0
C962 C 0.66531 0.41991 0.23761 0.0
C963 C 0.60206 0.39668 0.22602 0.0
C964 C 0.57552 0.397 0.20987 0.0
C965 C 0.63914 0.42188 0.22218 0.0
C966 C 0.58644 0.42434 0.1906 0.0
C967 C 0.62357 0.45009 0.18686 0.0
H968 H 0.51195 0.25077 0.24562 0.0
H969 H 0.47752 0.21538 0.16658 0.0
H970 H 0.51535 0.18669 0.16536 0.0
H971 H 0.56534 0.18052 0.18473 0.0
H972 H 0.60133 0.21944 0.26321 0.0
H973 H 0.55477 0.23677 0.26713 0.0
C974 C 0.51143 0.23532 0.22856 0.0
C975 C 0.49145 0.23437 0.20642 0.0
C976 C 0.53397 0.22004 0.22784 0.0
C977 C 0.49232 0.21584 0.18396 0.0
C978 C 0.51413 0.19974 0.18324 0.0
C979 C 0.56247 0.19211 0.20286 0.0
C980 C 0.58717 0.19931 0.22348 0.0
C981 C 0.53622 0.20299 0.20473 0.0
C982 C 0.58306 0.21421 0.24689 0.0
C983 C 0.55647 0.22415 0.24916 0.0
H984 H 0.21099 0.70928 0.83376 0.0
H985 H 0.21777 0.70866 0.74969 0.0
H986 H 0.28185 0.75557 0.75106 0.0
H987 H 0.33802 0.78592 0.77591 0.0
H988 H 0.33524 0.77912 0.86002 0.0
H989 H 0.26808 0.74673 0.85923 0.0
C990 C 0.22644 0.72041 0.81583 0.0
C991 C 0.20922 0.70683 0.79156 0.0
C992 C 0.26433 0.74552 0.8169 0.0
C993 C 0.22969 0.72032 0.76846 0.0
C994 C 0.26666 0.74659 0.76927 0.0
C995 C 0.3227 0.77827 0.79413 0.0
C996 C 0.3413 0.78428 0.81795 0.0
C997 C 0.28453 0.75803 0.79336 0.0
C998 C 0.32139 0.77474 0.84145 0.0
C999 C 0.28301 0.75579 0.84093 0.0
H1000 H 0.18736 0.45058 0.78853 0.0
H1001 H 0.27219 0.52433 0.73568 0.0
H1002 H 0.24218 0.55999 0.73021 0.0
H1003 H 0.19577 0.57398 0.74394 0.0
H1004 H 0.11286 0.50374 0.79946 0.0
H1005 H 0.13758 0.46256 0.8001 0.0
C1006 C 0.19854 0.47395 0.77539 0.0
C1007 C 0.23102 0.48417 0.76173 0.0
C1008 C 0.18169 0.4951 0.77301 0.0
C1009 C 0.24634 0.51524 0.74552 0.0
C1010 C 0.22946 0.53587 0.74263 0.0
C1011 C 0.18279 0.54944 0.75597 0.0
C1012 C 0.15289 0.54217 0.77188 0.0
C1013 C 0.19761 0.52654 0.75673 0.0
C1014 C 0.13618 0.5101 0.78718 0.0
C1015 C 0.15034 0.4866 0.78762 0.0
H1016 H 0.43593 0.68692 0.83806 0.0
H1017 H 0.40404 0.70973 0.76355 0.0
H1018 H 0.38323 0.64758 0.7491 0.0
H1019 H 0.37198 0.58738 0.75777 0.0
H1020 H 0.39122 0.55764 0.83439 0.0
H1021 H 0.42146 0.62261 0.84759 0.0
C1022 C 0.42486 0.6781 0.81859 0.0
C1023 C 0.4233 0.70315 0.8012 0.0
C1024 C 0.41142 0.64155 0.81078 0.0
C1025 C 0.40724 0.69134 0.77658 0.0
C1026 C 0.39509 0.6558 0.76843 0.0
C1027 C 0.38273 0.59473 0.77748 0.0
C1028 C 0.37891 0.56757 0.79521 0.0
C1029 C 0.39709 0.63086 0.78533 0.0
C1030 C 0.39385 0.57804 0.82037 0.0
C1031 C 0.41066 0.61506 0.82795 0.0
H1032 H 0.53399 0.83735 0.5716 0.0
H1033 H 0.4857 0.80223 0.64821 0.0
H1034 H 0.49393 0.74931 0.64591 0.0
H1035 H 0.49981 0.70612 0.61768 0.0
H1036 H 0.54436 0.73845 0.54006 0.0
H1037 H 0.55255 0.79947 0.54698 0.0
C1038 C 0.52652 0.81882 0.58815 0.0
C1039 C 0.50847 0.82307 0.60975 0.0
C1040 C 0.52985 0.78756 0.5862 0.0
C1041 C 0.49904 0.79906 0.63116 0.0
C1042 C 0.50353 0.76868 0.6298 0.0
C1043 C 0.51313 0.72718 0.60283 0.0
C1044 C 0.52202 0.71827 0.57857 0.0
C1045 C 0.51669 0.76153 0.60675 0.0
C1046 C 0.53772 0.7451 0.55897 0.0
C1047 C 0.54217 0.77981 0.5629 0.0
H1048 H 0.25787 0.68279 0.60704 0.0
H1049 H 0.22965 0.70814 0.53202 0.0
H1050 H 0.28442 0.76896 0.53283 0.0
H1051 H 0.34437 0.81196 0.55254 0.0
H1052 H 0.36988 0.78869 0.6291 0.0
H1053 H 0.31244 0.72993 0.63003 0.0
C1054 C 0.26338 0.70196 0.59116 0.0
C1055 C 0.24014 0.69093 0.56938 0.0
C1056 C 0.29476 0.73696 0.59183 0.0
C1057 C 0.24721 0.71607 0.54903 0.0
C1058 C 0.27872 0.75071 0.54933 0.0
C1059 C 0.33682 0.79419 0.56953 0.0
C1060 C 0.36079 0.80437 0.59078 0.0
C1061 C 0.30332 0.76095 0.57021 0.0
C1062 C 0.35132 0.78128 0.61269 0.0
C1063 C 0.31864 0.74773 0.61319 0.0
H1064 H 0.36148 0.57735 0.52339 0.0
H1065 H 0.35773 0.58643 0.60725 0.0
H1066 H 0.29391 0.57072 0.60472 0.0
H1067 H 0.24262 0.56287 0.57845 0.0
H1068 H 0.24732 0.55997 0.4944 0.0
H1069 H 0.3074 0.56456 0.49701 0.0
C1070 C 0.34644 0.57537 0.54108 0.0
C1071 C 0.36422 0.58338 0.56545 0.0
C1072 C 0.31015 0.56767 0.53936 0.0
C1073 C 0.34466 0.58089 0.58827 0.0
C1074 C 0.30822 0.57186 0.58684 0.0
C1075 C 0.2563 0.56205 0.56073 0.0
C1076 C 0.24055 0.56041 0.53627 0.0
C1077 C 0.29114 0.56634 0.56246 0.0
C1078 C 0.25896 0.56074 0.5134 0.0
C1079 C 0.29327 0.56359 0.51494 0.0
H1080 H 0.23956 0.18101 0.97418 0.0
H1081 H 0.18733 0.23557 0.0094 0.0
H1082 H 0.16316 0.2389 0.96697 0.0
H1083 H 0.14552 0.21376 0.92282 0.0
H1084 H 0.19373 0.15456 0.88882 0.0
H1085 H 0.23065 0.16564 0.92785 0.0
C1086 C 0.22372 0.19455 0.97255 0.0
C1087 C 0.21413 0.20671 -0.00483 0.0
C1088 C 0.20828 0.19464 0.94839 0.0
C1089 C 0.19451 0.22518 0.99245 0.0
C1090 C 0.18033 0.22678 0.96819 0.0
C1091 C 0.16457 0.20381 0.9237 0.0
C1092 C 0.16595 0.18238 0.90322 0.0
C1093 C 0.18508 0.20945 0.94647 0.0
C1094 C 0.19149 0.17052 0.90448 0.0
C1095 C 0.21267 0.17684 0.92682 0.0
H1096 H 0.75036 0.92068 0.97856 0.0
H1097 H 0.7924 -0.00127 0.91484 0.0
H1098 H 0.8109 0.04888 0.94558 0.0
H1099 H 0.82347 0.07085 0.9906 0.0
H1100 H 0.78383 0.99289 0.05441 0.0
H1101 H 0.75544 0.94253 0.02342 0.0
C1102 C 0.76304 0.94858 0.9713 0.0
C1103 C 0.77069 0.95589 0.9445 0.0
C1104 C 0.77428 0.97742 0.98909 0.0
C1105 C 0.78657 0.99223 0.93543 0.0
C1106 C 0.79727 0.02102 0.95299 0.0
C1107 C 0.808 0.04292 -0.00218 0.0
C1108 C 0.80658 0.03572 0.02478 0.0
C1109 C 0.79253 0.01399 0.97992 0.0
C1110 C 0.78591 -0.0007 0.03373 0.0
C1111 C 0.76975 0.9704 0.01602 0.0
H1112 H 0.05124 0.81623 0.9832 0.0
H1113 H 0.94352 0.74759 0.95073 0.0
H1114 H 0.9162 0.74231 0.99358 0.0
H1115 H 0.92218 0.76608 0.0379 0.0
H1116 H 0.02951 0.83747 0.06996 0.0
H1117 H 0.0576 0.83222 0.02977 0.0
C1118 C 0.02186 0.79938 0.98557 0.0
C1119 C -0.00055 0.78316 0.9636 0.0
C1120 C 0.00615 0.79736 0.01015 0.0
C1121 C 0.96143 0.76099 0.96718 0.0
C1122 C 0.94571 0.75803 0.99169 0.0
C1123 C 0.95174 0.77997 0.03631 0.0
C1124 C 0.97366 0.80276 0.05667 0.0
C1125 C 0.9677 0.77759 0.01296 0.0
C1126 C 0.01192 0.81995 0.05451 0.0
C1127 C 0.02805 0.81715 0.03145 0.0
H1128 H 0.86441 0.5777 0.30734 0.0
H1129 H 0.89638 0.51403 0.26007 0.0
H1130 H 0.92048 0.49976 0.29867 0.0
H1131 H 0.91857 0.49331 0.34629 0.0
H1132 H 0.88201 0.55314 0.39366 0.0
H1133 H 0.87454 0.58156 0.35457 0.0
C1134 C 0.87755 0.56151 0.30532 0.0
C1135 C 0.87746 0.54597 0.281 0.0
C1136 C 0.89004 0.55218 0.32774 0.0
C1137 C 0.89549 0.52591 0.27861 0.0
C1138 C 0.90906 0.51745 0.30075 0.0
C1139 C 0.90993 0.51333 0.3482 0.0
C1140 C 0.89961 0.52001 0.37283 0.0
C1141 C 0.90432 0.52853 0.32556 0.0
C1142 C 0.88941 0.54679 0.37493 0.0
C1143 C 0.8849 0.56295 0.35253 0.0
H1144 H 0.42261 0.29256 0.3136 0.0
H1145 H 0.47875 0.39161 0.26735 0.0
H1146 H 0.49894 0.42816 0.30709 0.0
H1147 H 0.5095 0.43109 0.35426 0.0
H1148 H 0.45606 0.33174 0.40036 0.0
H1149 H 0.4256 0.29651 0.36137 0.0
C1150 C 0.43856 0.32219 0.31212 0.0
C1151 C 0.44983 0.33914 0.28743 0.0
C1152 C 0.45104 0.34308 0.33506 0.0
C1153 C 0.47008 0.37765 0.28603 0.0
C1154 C 0.48182 0.39866 0.30879 0.0
C1155 C 0.49062 0.40185 0.35596 0.0
C1156 C 0.48582 0.38409 0.38019 0.0
C1157 C 0.47388 0.38152 0.33335 0.0
C1158 C 0.46074 0.34621 0.38197 0.0
C1159 C 0.44337 0.32592 0.35962 0.0
H1160 H 0.56189 0.07403 0.34561 0.0
H1161 H 0.66247 0.11658 0.38918 0.0
H1162 H 0.69628 0.12582 0.34858 0.0
H1163 H 0.69884 0.13475 0.30112 0.0
H1164 H 0.59871 0.09768 0.25789 0.0
H1165 H 0.56332 0.07278 0.2979 0.0
C1166 C 0.59107 0.08442 0.34639 0.0
C1167 C 0.60968 0.09565 0.37045 0.0
C1168 C 0.61063 0.0913 0.3229 0.0
C1169 C 0.6474 0.10825 0.37098 0.0
C1170 C 0.66687 0.11383 0.34769 0.0
C1171 C 0.66923 0.12046 0.30024 0.0
C1172 C 0.65161 0.1192 0.27658 0.0
C1173 C 0.64905 0.10754 0.32353 0.0
C1174 C 0.61315 0.09979 0.27586 0.0
C1175 C 0.59282 0.08564 0.2988 0.0
H1176 H 0.44766 0.93563 0.69084 0.0
H1177 H 0.5407 0.93626 0.65584 0.0
H1178 H 0.55764 0.92322 0.69822 0.0
H1179 H 0.5347 0.89282 0.7405 0.0
H1180 H 0.43739 0.8851 0.77367 0.0
H1181 H 0.43377 0.92003 0.73705 0.0
C1182 C 0.47239 0.9342 0.69257 0.0
C1183 C 0.49164 0.93477 0.66993 0.0
C1184 C 0.48059 0.92426 0.71666 0.0
C1185 C 0.52453 0.93457 0.67278 0.0
C1186 C 0.53407 0.92671 0.69702 0.0
C1187 C 0.51333 0.89975 0.74012 0.0
C1188 C 0.48553 0.88515 0.75917 0.0
C1189 C 0.51045 0.91835 0.71843 0.0
C1190 C 0.45873 0.89536 0.75895 0.0
C1191 C 0.4565 0.91516 0.73789 0.0
H1192 H 0.09846 0.59007 0.61035 0.0
H1193 H 0.1181 0.50596 0.63989 0.0
H1194 H 0.10006 0.51356 0.68365 0.0
H1195 H 0.0882 0.55068 0.71444 0.0
H1196 H 0.0704 0.63611 0.68507 0.0
H1197 H 0.07695 0.62044 0.64031 0.0
C1198 C 0.09831 0.57303 0.62628 0.0
C1199 C 0.11039 0.54806 0.6219 0.0
C1200 C 0.08808 0.57767 0.65148 0.0
C1201 C 0.10929 0.52567 0.64268 0.0
C1202 C 0.09899 0.53001 0.66778 0.0
C1203 C 0.08445 0.56508 0.69827 0.0
C1204 C 0.07942 0.59497 0.70321 0.0
C1205 C 0.08956 0.55681 0.67257 0.0
C1206 C 0.07464 0.61322 0.6819 0.0
C1207 C 0.07875 0.60452 0.65626 0.0
H1208 H 0.48176 0.56811 0.66626 0.0
H1209 H 0.4139 0.50818 0.60053 0.0
H1210 H 0.37013 0.46103 0.62983 0.0
H1211 H 0.34538 0.44396 0.67401 0.0
H1212 H 0.41168 0.50515 0.73994 0.0
H1213 H 0.46212 0.5436 0.71067 0.0
C1214 C 0.4579 0.54429 0.65828 0.0
C1215 C 0.45056 0.54237 0.63134 0.0
C1216 C 0.43228 0.51748 0.6753 0.0
C1217 C 0.41979 0.51093 0.62129 0.0
C1218 C 0.39466 0.48385 0.63802 0.0
C1219 C 0.3712 0.465 0.68208 0.0
C1220 C 0.37423 0.47236 0.70902 0.0
C1221 C 0.39969 0.4879 0.66511 0.0
C1222 C 0.40824 0.49916 0.7192 0.0
C1223 C 0.43711 0.52149 0.70244 0.0
loop_
_geom_bond_atom_site_label_1
_geom_bond_atom_site_label_2
_geom_bond_distance
_geom_bond_site_symmetry_2
_ccdc_geom_bond_type
Mn0 O5 2.095 . S
Mn0 O15 2.162 . S
Mn0 O16 2.297 . S
Mn0 O24 2.385 . S
Mn0 O25 2.209 . S
Mn0 O26 2.094 . S
Mn1 O6 2.121 . S
Mn1 N8 2.257 . S
Mn1 N17 2.282 . S
Mn1 O25 2.215 . S
Mn1 O27 2.117 . S
C2 O24 1.234 . S
C2 O25 1.283 . S
C3 O15 1.281 . S
C3 O16 1.236 . S
C4 O26 1.240 . S
C4 O27 1.264 . S
O5 Mn0 2.095 . S
O5 C14 1.250 . S
O6 Mn1 2.121 . S
O6 C14 1.258 . S
C7 N8 1.326 . S
C7 C11 1.460 . S
C7 H13 0.929 . S
N8 Mn1 2.257 . S
N8 C7 1.326 . S
N8 C12 1.362 . S
C9 C10 1.258 . S
C9 C12 1.431 . S
C9 C29 1.449 . S
C10 C9 1.258 . S
C10 C11 1.477 . S
C10 H30 0.931 . S
C11 C7 1.460 . S
C11 C10 1.477 . S
C11 H31 0.930 . S
C12 N8 1.362 . S
C12 C9 1.431 . S
C12 C22 1.476 . S
H13 C7 0.929 . S
C14 O5 1.250 . S
C14 O6 1.258 . S
O15 Mn0 2.162 . S
O15 C3 1.281 . S
O16 Mn0 2.297 . S
O16 C3 1.236 . S
N17 Mn1 2.282 . S
N17 C18 1.328 . S
N17 C22 1.318 . S
C18 N17 1.328 . S
C18 C19 1.457 . S
C18 H23 0.929 . S
C19 C18 1.457 . S
C19 C20 1.291 . S
C19 H32 0.931 . S
C20 C19 1.291 . S
C20 C21 1.373 . S
C20 H33 0.929 . S
C21 C20 1.373 . S
C21 C22 1.396 . S
C21 C28 1.403 . S
C22 C12 1.476 . S
C22 N17 1.318 . S
C22 C21 1.396 . S
H23 C18 0.929 . S
O24 Mn0 2.385 . S
O24 C2 1.234 . S
O25 Mn0 2.209 . S
O25 Mn1 2.215 . S
O25 C2 1.283 . S
O26 Mn0 2.094 . S
O26 C4 1.240 . S
O27 Mn1 2.117 . S
O27 C4 1.264 . S
C28 C21 1.403 . S
C28 C29 1.399 . S
C28 H34 0.929 . S
C29 C9 1.449 . S
C29 C28 1.399 . S
C29 H35 0.930 1_545 S
H30 C10 0.931 . S
H31 C11 0.930 . S
H32 C19 0.931 . S
H33 C20 0.929 . S
H34 C28 0.929 . S
H35 C29 0.930 1_565 S
Mn36 O41 2.095 . S
Mn36 O51 2.162 . S
Mn36 O52 2.297 . S
Mn36 O60 2.385 1_565 S
Mn36 O61 2.209 1_565 S
Mn36 O62 2.094 1_565 S
Mn37 O42 2.121 . S
Mn37 N44 2.257 . S
Mn37 N53 2.282 . S
Mn37 O61 2.215 . S
Mn37 O63 2.117 . S
C38 O60 1.234 . S
C38 O61 1.283 . S
C39 O51 1.281 . S
C39 O52 1.236 . S
C40 O62 1.240 . S
C40 O63 1.264 . S
O41 Mn36 2.095 . S
O41 C50 1.256 . S
O42 Mn37 2.121 . S
O42 C50 1.246 1_545 S
C43 N44 1.326 . S
C43 C47 1.460 . S
C43 H49 0.929 . S
N44 Mn37 2.257 . S
N44 C43 1.326 . S
N44 C48 1.362 . S
C45 C46 1.258 . S
C45 C48 1.431 . S
C45 C65 1.449 . S
C46 C45 1.258 . S
C46 C47 1.477 . S
C46 H66 0.931 . S
C47 C43 1.460 . S
C47 C46 1.477 . S
C47 H67 0.930 . S
C48 N44 1.362 . S
C48 C45 1.431 . S
C48 C58 1.476 . S
H49 C43 0.929 . S
C50 O41 1.256 . S
C50 O42 1.246 1_565 S
O51 Mn36 2.162 . S
O51 C39 1.281 . S
O52 Mn36 2.297 . S
O52 C39 1.236 . S
N53 Mn37 2.282 . S
N53 C54 1.328 . S
N53 C58 1.318 . S
C54 N53 1.328 . S
C54 C55 1.457 . S
C54 H59 0.929 . S
C55 C54 1.457 . S
C55 C56 1.291 . S
C55 H68 0.931 . S
C56 C55 1.291 . S
C56 C57 1.373 . S
C56 H69 0.929 . S
C57 C56 1.373 . S
C57 C58 1.396 . S
C57 C64 1.403 . S
C58 C48 1.476 . S
C58 N53 1.318 . S
C58 C57 1.396 . S
H59 C54 0.929 . S
O60 Mn36 2.385 1_545 S
O60 C38 1.234 . S
O61 Mn36 2.209 1_545 S
O61 Mn37 2.215 . S
O61 C38 1.283 . S
O62 Mn36 2.094 1_545 S
O62 C40 1.240 . S
O63 Mn37 2.117 . S
O63 C40 1.264 . S
C64 C57 1.403 . S
C64 C65 1.399 . S
C64 H70 0.929 . S
C65 C45 1.449 . S
C65 C64 1.399 . S
C65 H71 0.930 1_655 S
H66 C46 0.931 . S
H67 C47 0.930 . S
H68 C55 0.931 . S
H69 C56 0.929 . S
H70 C64 0.929 . S
H71 C65 0.930 1_455 S
Mn72 O77 2.095 . S
Mn72 O87 2.162 . S
Mn72 O88 2.297 . S
Mn72 O96 2.385 1_455 S
Mn72 O97 2.209 1_455 S
Mn72 O98 2.094 1_455 S
Mn73 O78 2.121 . S
Mn73 N80 2.257 . S
Mn73 N89 2.282 . S
Mn73 O97 2.215 . S
Mn73 O99 2.117 . S
C74 O96 1.234 . S
C74 O97 1.283 . S
C75 O87 1.281 . S
C75 O88 1.236 . S
C76 O98 1.240 . S
C76 O99 1.264 . S
O77 Mn72 2.095 . S
O77 C86 1.258 . S
O78 Mn73 2.121 . S
O78 C86 1.243 1_655 S
C79 N80 1.326 . S
C79 C83 1.460 . S
C79 H85 0.929 . S
N80 Mn73 2.257 . S
N80 C79 1.326 . S
N80 C84 1.362 . S
C81 C82 1.258 . S
C81 C84 1.431 . S
C81 C101 1.449 . S
C82 C81 1.258 . S
C82 C83 1.477 . S
C82 H102 0.931 . S
C83 C79 1.460 . S
C83 C82 1.477 . S
C83 H103 0.930 . S
C84 N80 1.362 . S
C84 C81 1.431 . S
C84 C94 1.476 . S
H85 C79 0.929 . S
C86 O77 1.258 . S
C86 O78 1.243 1_455 S
O87 Mn72 2.162 . S
O87 C75 1.281 . S
O88 Mn72 2.297 . S
O88 C75 1.236 . S
N89 Mn73 2.282 . S
N89 C90 1.328 . S
N89 C94 1.318 . S
C90 N89 1.328 . S
C90 C91 1.457 . S
C90 H95 0.929 . S
C91 C90 1.457 . S
C91 C92 1.291 . S
C91 H104 0.931 . S
C92 C91 1.291 . S
C92 C93 1.373 . S
C92 H105 0.929 . S
C93 C92 1.373 . S
C93 C94 1.396 . S
C93 C100 1.403 . S
C94 C84 1.476 . S
C94 N89 1.318 . S
C94 C93 1.396 . S
H95 C90 0.929 . S
O96 Mn72 2.385 1_655 S
O96 C74 1.234 . S
O97 Mn72 2.209 1_655 S
O97 Mn73 2.215 . S
O97 C74 1.283 . S
O98 Mn72 2.094 1_655 S
O98 C76 1.240 . S
O99 Mn73 2.117 . S
O99 C76 1.264 . S
C100 C93 1.403 . S
C100 C101 1.399 . S
C100 H106 0.929 . S
C101 C81 1.449 . S
C101 C100 1.399 . S
C101 H107 0.930 . S
H102 C82 0.931 . S
H103 C83 0.930 . S
H104 C91 0.931 . S
H105 C92 0.929 . S
H106 C100 0.929 . S
H107 C101 0.930 . S
Mn108 O113 2.095 . S
Mn108 O123 2.162 . S
Mn108 O124 2.297 . S
Mn108 O132 2.385 . S
Mn108 O133 2.209 . S
Mn108 O134 2.094 . S
Mn109 O114 2.121 . S
Mn109 N116 2.257 . S
Mn109 N125 2.282 . S
Mn109 O133 2.215 . S
Mn109 O135 2.117 . S
C110 O132 1.234 . S
C110 O133 1.283 . S
C111 O123 1.281 . S
C111 O124 1.236 . S
C112 O134 1.240 . S
C112 O135 1.264 . S
O113 Mn108 2.095 . S
O113 C122 1.250 . S
O114 Mn109 2.121 . S
O114 C122 1.258 . S
C115 N116 1.326 . S
C115 C119 1.460 . S
C115 H121 0.929 . S
N116 Mn109 2.257 . S
N116 C115 1.326 . S
N116 C120 1.362 . S
C117 C118 1.258 . S
C117 C120 1.431 . S
C117 C137 1.449 . S
C118 C117 1.258 . S
C118 C119 1.477 . S
C118 H138 0.931 . S
C119 C115 1.460 . S
C119 C118 1.477 . S
C119 H139 0.930 . S
C120 N116 1.362 . S
C120 C117 1.431 . S
C120 C130 1.476 . S
H121 C115 0.929 . S
C122 O113 1.250 . S
C122 O114 1.258 . S
O123 Mn108 2.162 . S
O123 C111 1.281 . S
O124 Mn108 2.297 . S
O124 C111 1.236 . S
N125 Mn109 2.282 . S
N125 C126 1.328 . S
N125 C130 1.318 . S
C126 N125 1.328 . S
C126 C127 1.457 . S
C126 H131 0.929 . S
C127 C126 1.457 . S
C127 C128 1.291 . S
C127 H140 0.931 . S
C128 C127 1.291 . S
C128 C129 1.373 . S
C128 H141 0.929 . S
C129 C128 1.373 . S
C129 C130 1.396 . S
C129 C136 1.403 . S
C130 C120 1.476 . S
C130 N125 1.318 . S
C130 C129 1.396 . S
H131 C126 0.929 . S
O132 Mn108 2.385 . S
O132 C110 1.234 . S
O133 Mn108 2.209 . S
O133 Mn109 2.215 . S
O133 C110 1.283 . S
O134 Mn108 2.094 . S
O134 C112 1.240 . S
O135 Mn109 2.117 . S
O135 C112 1.264 . S
C136 C129 1.403 . S
C136 C137 1.399 . S
C136 H142 0.929 . S
C137 C117 1.449 . S
C137 C136 1.399 . S
C137 H143 0.930 1_455 S
H138 C118 0.931 . S
H139 C119 0.930 . S
H140 C127 0.931 . S
H141 C128 0.929 . S
H142 C136 0.929 . S
H143 C137 0.930 1_655 S
Mn144 O149 2.095 . S
Mn144 O159 2.162 . S
Mn144 O160 2.297 . S
Mn144 O168 2.385 1_545 S
Mn144 O169 2.209 1_545 S
Mn144 O170 2.094 1_545 S
Mn145 O150 2.121 . S
Mn145 N152 2.257 . S
Mn145 N161 2.282 . S
Mn145 O169 2.215 . S
Mn145 O171 2.117 . S
C146 O168 1.234 . S
C146 O169 1.283 . S
C147 O159 1.281 . S
C147 O160 1.236 . S
C148 O170 1.240 . S
C148 O171 1.264 . S
O149 Mn144 2.095 . S
O149 C158 1.258 . S
O150 Mn145 2.121 . S
O150 C158 1.243 1_565 S
C151 N152 1.326 . S
C151 C155 1.460 . S
C151 H157 0.929 . S
N152 Mn145 2.257 . S
N152 C151 1.326 . S
N152 C156 1.362 . S
C153 C154 1.258 . S
C153 C156 1.431 . S
C153 C173 1.449 . S
C154 C153 1.258 . S
C154 C155 1.477 . S
C154 H174 0.931 . S
C155 C151 1.460 . S
C155 C154 1.477 . S
C155 H175 0.930 . S
C156 N152 1.362 . S
C156 C153 1.431 . S
C156 C166 1.476 . S
H157 C151 0.929 . S
C158 O149 1.258 . S
C158 O150 1.243 1_545 S
O159 Mn144 2.162 . S
O159 C147 1.281 . S
O160 Mn144 2.297 . S
O160 C147 1.236 . S
N161 Mn145 2.282 . S
N161 C162 1.328 . S
N161 C166 1.318 . S
C162 N161 1.328 . S
C162 C163 1.457 . S
C162 H167 0.929 . S
C163 C162 1.457 . S
C163 C164 1.291 . S
C163 H176 0.931 . S
C164 C163 1.291 . S
C164 C165 1.373 . S
C164 H177 0.929 . S
C165 C164 1.373 . S
C165 C166 1.396 . S
C165 C172 1.403 . S
C166 C156 1.476 . S
C166 N161 1.318 . S
C166 C165 1.396 . S
H167 C162 0.929 . S
O168 Mn144 2.385 1_565 S
O168 C146 1.234 . S
O169 Mn144 2.209 1_565 S
O169 Mn145 2.215 . S
O169 C146 1.283 . S
O170 Mn144 2.094 1_565 S
O170 C148 1.240 . S
O171 Mn145 2.117 . S
O171 C148 1.264 . S
C172 C165 1.403 . S
C172 C173 1.399 . S
C172 H178 0.929 . S
C173 C153 1.449 . S
C173 C172 1.399 . S
C173 H179 0.930 . S
H174 C154 0.931 . S
H175 C155 0.930 . S
H176 C163 0.931 . S
H177 C164 0.929 . S
H178 C172 0.929 . S
H179 C173 0.930 . S
Mn180 O185 2.095 . S
Mn180 O195 2.162 . S
Mn180 O196 2.297 . S
Mn180 O204 2.385 1_655 S
Mn180 O205 2.209 1_655 S
Mn180 O206 2.094 1_655 S
Mn181 O186 2.121 . S
Mn181 N188 2.257 . S
Mn181 N197 2.282 . S
Mn181 O205 2.215 . S
Mn181 O207 2.117 . S
C182 O204 1.234 . S
C182 O205 1.283 . S
C183 O195 1.281 . S
C183 O196 1.236 . S
C184 O206 1.240 . S
C184 O207 1.264 . S
O185 Mn180 2.095 . S
O185 C194 1.256 . S
O186 Mn181 2.121 . S
O186 C194 1.246 1_455 S
C187 N188 1.326 . S
C187 C191 1.460 . S
C187 H193 0.929 . S
N188 Mn181 2.257 . S
N188 C187 1.326 . S
N188 C192 1.362 . S
C189 C190 1.258 . S
C189 C192 1.431 . S
C189 C209 1.449 . S
C190 C189 1.258 . S
C190 C191 1.477 . S
C190 H210 0.931 . S
C191 C187 1.460 . S
C191 C190 1.477 . S
C191 H211 0.930 . S
C192 N188 1.362 . S
C192 C189 1.431 . S
C192 C202 1.476 . S
H193 C187 0.929 . S
C194 O185 1.256 . S
C194 O186 1.246 1_655 S
O195 Mn180 2.162 . S
O195 C183 1.281 . S
O196 Mn180 2.297 . S
O196 C183 1.236 . S
N197 Mn181 2.282 . S
N197 C198 1.328 . S
N197 C202 1.318 . S
C198 N197 1.328 . S
C198 C199 1.457 . S
C198 H203 0.929 . S
C199 C198 1.457 . S
C199 C200 1.291 . S
C199 H212 0.931 . S
C200 C199 1.291 . S
C200 C201 1.373 . S
C200 H213 0.929 . S
C201 C200 1.373 . S
C201 C202 1.396 . S
C201 C208 1.403 . S
C202 C192 1.476 . S
C202 N197 1.318 . S
C202 C201 1.396 . S
H203 C198 0.929 . S
O204 Mn180 2.385 1_455 S
O204 C182 1.234 . S
O205 Mn180 2.209 1_455 S
O205 Mn181 2.215 . S
O205 C182 1.283 . S
O206 Mn180 2.094 1_455 S
O206 C184 1.240 . S
O207 Mn181 2.117 . S
O207 C184 1.264 . S
C208 C201 1.403 . S
C208 C209 1.399 . S
C208 H214 0.929 . S
C209 C189 1.449 . S
C209 C208 1.399 . S
C209 H215 0.930 1_565 S
H210 C190 0.931 . S
H211 C191 0.930 . S
H212 C199 0.931 . S
H213 C200 0.929 . S
H214 C208 0.929 . S
H215 C209 0.930 1_545 S
Mn216 O221 2.095 . S
Mn216 O231 2.162 . S
Mn216 O232 2.297 . S
Mn216 O240 2.385 . S
Mn216 O241 2.209 . S
Mn216 O242 2.094 . S
Mn217 O222 2.121 . S
Mn217 N224 2.257 . S
Mn217 N233 2.282 . S
Mn217 O241 2.215 . S
Mn217 O243 2.117 . S
C218 O240 1.234 . S
C218 O241 1.283 . S
C219 O231 1.281 . S
C219 O232 1.236 . S
C220 O242 1.240 . S
C220 O243 1.264 . S
O221 Mn216 2.095 . S
O221 C230 1.250 . S
O222 Mn217 2.121 . S
O222 C230 1.258 . S
C223 N224 1.326 . S
C223 C227 1.460 . S
C223 H229 0.929 . S
N224 Mn217 2.257 . S
N224 C223 1.326 . S
N224 C228 1.362 . S
C225 C226 1.258 . S
C225 C228 1.431 . S
C225 C245 1.449 . S
C226 C225 1.258 . S
C226 C227 1.477 . S
C226 H246 0.931 . S
C227 C223 1.460 . S
C227 C226 1.477 . S
C227 H247 0.930 . S
C228 N224 1.362 . S
C228 C225 1.431 . S
C228 C238 1.476 . S
H229 C223 0.929 . S
C230 O221 1.250 . S
C230 O222 1.258 . S
O231 Mn216 2.162 . S
O231 C219 1.281 . S
O232 Mn216 2.297 . S
O232 C219 1.236 . S
N233 Mn217 2.282 . S
N233 C234 1.328 . S
N233 C238 1.318 . S
C234 N233 1.328 . S
C234 C235 1.457 . S
C234 H239 0.929 . S
C235 C234 1.457 . S
C235 C236 1.291 . S
C235 H248 0.931 . S
C236 C235 1.291 . S
C236 C237 1.373 . S
C236 H249 0.929 . S
C237 C236 1.373 . S
C237 C238 1.396 . S
C237 C244 1.403 . S
C238 C228 1.476 . S
C238 N233 1.318 . S
C238 C237 1.396 . S
H239 C234 0.929 . S
O240 Mn216 2.385 . S
O240 C218 1.234 . S
O241 Mn216 2.209 . S
O241 Mn217 2.215 . S
O241 C218 1.283 . S
O242 Mn216 2.094 . S
O242 C220 1.240 . S
O243 Mn217 2.117 . S
O243 C220 1.264 . S
C244 C237 1.403 . S
C244 C245 1.399 . S
C244 H250 0.929 . S
C245 C225 1.449 . S
C245 C244 1.399 . S
C245 H251 0.930 . S
H246 C226 0.931 . S
H247 C227 0.930 . S
H248 C235 0.931 . S
H249 C236 0.929 . S
H250 C244 0.929 . S
H251 C245 0.930 . S
Mn252 O257 2.095 . S
Mn252 O267 2.162 . S
Mn252 O268 2.297 . S
Mn252 O276 2.385 . S
Mn252 O277 2.209 . S
Mn252 O278 2.094 . S
Mn253 O258 2.121 . S
Mn253 N260 2.257 . S
Mn253 N269 2.282 . S
Mn253 O277 2.215 . S
Mn253 O279 2.117 . S
C254 O276 1.234 . S
C254 O277 1.283 . S
C255 O267 1.281 . S
C255 O268 1.236 . S
C256 O278 1.240 . S
C256 O279 1.264 . S
O257 Mn252 2.095 . S
O257 C266 1.250 . S
O258 Mn253 2.121 . S
O258 C266 1.258 . S
C259 N260 1.326 . S
C259 C263 1.460 . S
C259 H265 0.929 . S
N260 Mn253 2.257 . S
N260 C259 1.326 . S
N260 C264 1.362 . S
C261 C262 1.258 . S
C261 C264 1.431 . S
C261 C281 1.449 . S
C262 C261 1.258 . S
C262 C263 1.477 . S
C262 H282 0.931 . S
C263 C259 1.460 . S
C263 C262 1.477 . S
C263 H283 0.930 . S
C264 N260 1.362 . S
C264 C261 1.431 . S
C264 C274 1.476 . S
H265 C259 0.929 . S
C266 O257 1.250 . S
C266 O258 1.258 . S
O267 Mn252 2.162 . S
O267 C255 1.281 . S
O268 Mn252 2.297 . S
O268 C255 1.236 . S
N269 Mn253 2.282 . S
N269 C270 1.328 . S
N269 C274 1.318 . S
C270 N269 1.328 . S
C270 C271 1.457 . S
C270 H275 0.929 . S
C271 C270 1.457 . S
C271 C272 1.291 . S
C271 H284 0.931 . S
C272 C271 1.291 . S
C272 C273 1.373 . S
C272 H285 0.929 . S
C273 C272 1.373 . S
C273 C274 1.396 . S
C273 C280 1.403 . S
C274 C264 1.476 . S
C274 N269 1.318 . S
C274 C273 1.396 . S
H275 C270 0.929 . S
O276 Mn252 2.385 . S
O276 C254 1.234 . S
O277 Mn252 2.209 . S
O277 Mn253 2.215 . S
O277 C254 1.283 . S
O278 Mn252 2.094 . S
O278 C256 1.240 . S
O279 Mn253 2.117 . S
O279 C256 1.264 . S
C280 C273 1.403 . S
C280 C281 1.399 . S
C280 H286 0.929 . S
C281 C261 1.449 . S
C281 C280 1.399 . S
C281 H287 0.930 . S
H282 C262 0.931 . S
H283 C263 0.930 . S
H284 C271 0.931 . S
H285 C272 0.929 . S
H286 C280 0.929 . S
H287 C281 0.930 . S
Mn288 O293 2.095 . S
Mn288 O303 2.162 . S
Mn288 O304 2.297 . S
Mn288 O312 2.385 . S
Mn288 O313 2.209 . S
Mn288 O314 2.094 . S
Mn289 O294 2.121 . S
Mn289 N296 2.257 . S
Mn289 N305 2.282 . S
Mn289 O313 2.215 . S
Mn289 O315 2.117 . S
C290 O312 1.234 . S
C290 O313 1.283 . S
C291 O303 1.281 . S
C291 O304 1.236 . S
C292 O314 1.240 . S
C292 O315 1.264 . S
O293 Mn288 2.095 . S
O293 C302 1.250 . S
O294 Mn289 2.121 . S
O294 C302 1.258 . S
C295 N296 1.326 . S
C295 C299 1.460 . S
C295 H301 0.929 . S
N296 Mn289 2.257 . S
N296 C295 1.326 . S
N296 C300 1.362 . S
C297 C298 1.258 . S
C297 C300 1.431 . S
C297 C317 1.449 . S
C298 C297 1.258 . S
C298 C299 1.477 . S
C298 H318 0.931 . S
C299 C295 1.460 . S
C299 C298 1.477 . S
C299 H319 0.930 . S
C300 N296 1.362 . S
C300 C297 1.431 . S
C300 C310 1.476 . S
H301 C295 0.929 . S
C302 O293 1.250 . S
C302 O294 1.258 . S
O303 Mn288 2.162 . S
O303 C291 1.281 . S
O304 Mn288 2.297 . S
O304 C291 1.236 . S
N305 Mn289 2.282 . S
N305 C306 1.328 . S
N305 C310 1.318 . S
C306 N305 1.328 . S
C306 C307 1.457 . S
C306 H311 0.929 . S
C307 C306 1.457 . S
C307 C308 1.291 . S
C307 H320 0.931 . S
C308 C307 1.291 . S
C308 C309 1.373 . S
C308 H321 0.929 . S
C309 C308 1.373 . S
C309 C310 1.396 . S
C309 C316 1.403 . S
C310 C300 1.476 . S
C310 N305 1.318 . S
C310 C309 1.396 . S
H311 C306 0.929 . S
O312 Mn288 2.385 . S
O312 C290 1.234 . S
O313 Mn288 2.209 . S
O313 Mn289 2.215 . S
O313 C290 1.283 . S
O314 Mn288 2.094 . S
O314 C292 1.240 . S
O315 Mn289 2.117 . S
O315 C292 1.264 . S
C316 C309 1.403 . S
C316 C317 1.399 . S
C316 H322 0.929 . S
C317 C297 1.449 . S
C317 C316 1.399 . S
C317 H323 0.930 . S
H318 C298 0.931 . S
H319 C299 0.930 . S
H320 C307 0.931 . S
H321 C308 0.929 . S
H322 C316 0.929 . S
H323 C317 0.930 . S
Mn324 O329 2.095 . S
Mn324 O339 2.162 . S
Mn324 O340 2.297 . S
Mn324 O348 2.385 . S
Mn324 O349 2.209 . S
Mn324 O350 2.094 . S
Mn325 O330 2.121 . S
Mn325 N332 2.257 . S
Mn325 N341 2.282 . S
Mn325 O349 2.215 . S
Mn325 O351 2.117 . S
C326 O348 1.234 . S
C326 O349 1.283 . S
C327 O339 1.281 . S
C327 O340 1.236 . S
C328 O350 1.240 . S
C328 O351 1.264 . S
O329 Mn324 2.095 . S
O329 C338 1.250 . S
O330 Mn325 2.121 . S
O330 C338 1.258 . S
C331 N332 1.326 . S
C331 C335 1.460 . S
C331 H337 0.929 . S
N332 Mn325 2.257 . S
N332 C331 1.326 . S
N332 C336 1.362 . S
C333 C334 1.258 . S
C333 C336 1.431 . S
C333 C353 1.449 . S
C334 C333 1.258 . S
C334 C335 1.477 . S
C334 H354 0.931 . S
C335 C331 1.460 . S
C335 C334 1.477 . S
C335 H355 0.930 . S
C336 N332 1.362 . S
C336 C333 1.431 . S
C336 C346 1.476 . S
H337 C331 0.929 . S
C338 O329 1.250 . S
C338 O330 1.258 . S
O339 Mn324 2.162 . S
O339 C327 1.281 . S
O340 Mn324 2.297 . S
O340 C327 1.236 . S
N341 Mn325 2.282 . S
N341 C342 1.328 . S
N341 C346 1.318 . S
C342 N341 1.328 . S
C342 C343 1.457 . S
C342 H347 0.929 . S
C343 C342 1.457 . S
C343 C344 1.291 . S
C343 H356 0.931 . S
C344 C343 1.291 . S
C344 C345 1.373 . S
C344 H357 0.929 . S
C345 C344 1.373 . S
C345 C346 1.396 . S
C345 C352 1.403 . S
C346 C336 1.476 . S
C346 N341 1.318 . S
C346 C345 1.396 . S
H347 C342 0.929 . S
O348 Mn324 2.385 . S
O348 C326 1.234 . S
O349 Mn324 2.209 . S
O349 Mn325 2.215 . S
O349 C326 1.283 . S
O350 Mn324 2.094 . S
O350 C328 1.240 . S
O351 Mn325 2.117 . S
O351 C328 1.264 . S
C352 C345 1.403 . S
C352 C353 1.399 . S
C352 H358 0.929 . S
C353 C333 1.449 . S
C353 C352 1.399 . S
C353 H359 0.930 . S
H354 C334 0.931 . S
H355 C335 0.930 . S
H356 C343 0.931 . S
H357 C344 0.929 . S
H358 C352 0.929 . S
H359 C353 0.930 . S
Mn360 O365 2.095 . S
Mn360 O375 2.162 . S
Mn360 O376 2.297 . S
Mn360 O384 2.385 . S
Mn360 O385 2.209 . S
Mn360 O386 2.094 . S
Mn361 O366 2.121 . S
Mn361 N368 2.257 . S
Mn361 N377 2.282 . S
Mn361 O385 2.215 . S
Mn361 O387 2.117 . S
C362 O384 1.234 . S
C362 O385 1.283 . S
C363 O375 1.281 . S
C363 O376 1.236 . S
C364 O386 1.240 . S
C364 O387 1.264 . S
O365 Mn360 2.095 . S
O365 C374 1.250 . S
O366 Mn361 2.121 . S
O366 C374 1.258 . S
C367 N368 1.326 . S
C367 C371 1.460 . S
C367 H373 0.929 . S
N368 Mn361 2.257 . S
N368 C367 1.326 . S
N368 C372 1.362 . S
C369 C370 1.258 . S
C369 C372 1.431 . S
C369 C389 1.449 . S
C370 C369 1.258 . S
C370 C371 1.477 . S
C370 H390 0.931 . S
C371 C367 1.460 . S
C371 C370 1.477 . S
C371 H391 0.930 . S
C372 N368 1.362 . S
C372 C369 1.431 . S
C372 C382 1.476 . S
H373 C367 0.929 . S
C374 O365 1.250 . S
C374 O366 1.258 . S
O375 Mn360 2.162 . S
O375 C363 1.281 . S
O376 Mn360 2.297 . S
O376 C363 1.236 . S
N377 Mn361 2.282 . S
N377 C378 1.328 . S
N377 C382 1.318 . S
C378 N377 1.328 . S
C378 C379 1.457 . S
C378 H383 0.929 . S
C379 C378 1.457 . S
C379 C380 1.291 . S
C379 H392 0.931 . S
C380 C379 1.291 . S
C380 C381 1.373 . S
C380 H393 0.929 . S
C381 C380 1.373 . S
C381 C382 1.396 . S
C381 C388 1.403 . S
C382 C372 1.476 . S
C382 N377 1.318 . S
C382 C381 1.396 . S
H383 C378 0.929 . S
O384 Mn360 2.385 . S
O384 C362 1.234 . S
O385 Mn360 2.209 . S
O385 Mn361 2.215 . S
O385 C362 1.283 . S
O386 Mn360 2.094 . S
O386 C364 1.240 . S
O387 Mn361 2.117 . S
O387 C364 1.264 . S
C388 C381 1.403 . S
C388 C389 1.399 . S
C388 H394 0.929 . S
C389 C369 1.449 . S
C389 C388 1.399 . S
C389 H395 0.930 . S
H390 C370 0.931 . S
H391 C371 0.930 . S
H392 C379 0.931 . S
H393 C380 0.929 . S
H394 C388 0.929 . S
H395 C389 0.930 . S
Mn396 O401 2.095 . S
Mn396 O411 2.162 . S
Mn396 O412 2.297 . S
Mn396 O420 2.385 . S
Mn396 O421 2.209 . S
Mn396 O422 2.094 . S
Mn397 O402 2.121 . S
Mn397 N404 2.257 . S
Mn397 N413 2.282 . S
Mn397 O421 2.215 . S
Mn397 O423 2.117 . S
C398 O420 1.234 . S
C398 O421 1.283 . S
C399 O411 1.281 . S
C399 O412 1.236 . S
C400 O422 1.240 . S
C400 O423 1.264 . S
O401 Mn396 2.095 . S
O401 C410 1.250 . S
O402 Mn397 2.121 . S
O402 C410 1.258 . S
C403 N404 1.326 . S
C403 C407 1.460 . S
C403 H409 0.929 . S
N404 Mn397 2.257 . S
N404 C403 1.326 . S
N404 C408 1.362 . S
C405 C406 1.258 . S
C405 C408 1.431 . S
C405 C425 1.449 . S
C406 C405 1.258 . S
C406 C407 1.477 . S
C406 H426 0.931 . S
C407 C403 1.460 . S
C407 C406 1.477 . S
C407 H427 0.930 . S
C408 N404 1.362 . S
C408 C405 1.431 . S
C408 C418 1.476 . S
H409 C403 0.929 . S
C410 O401 1.250 . S
C410 O402 1.258 . S
O411 Mn396 2.162 . S
O411 C399 1.281 . S
O412 Mn396 2.297 . S
O412 C399 1.236 . S
N413 Mn397 2.282 . S
N413 C414 1.328 . S
N413 C418 1.318 . S
C414 N413 1.328 . S
C414 C415 1.457 . S
C414 H419 0.929 . S
C415 C414 1.457 . S
C415 C416 1.291 . S
C415 H428 0.931 . S
C416 C415 1.291 . S
C416 C417 1.373 . S
C416 H429 0.929 . S
C417 C416 1.373 . S
C417 C418 1.396 . S
C417 C424 1.403 . S
C418 C408 1.476 . S
C418 N413 1.318 . S
C418 C417 1.396 . S
H419 C414 0.929 . S
O420 Mn396 2.385 . S
O420 C398 1.234 . S
O421 Mn396 2.209 . S
O421 Mn397 2.215 . S
O421 C398 1.283 . S
O422 Mn396 2.094 . S
O422 C400 1.240 . S
O423 Mn397 2.117 . S
O423 C400 1.264 . S
C424 C417 1.403 . S
C424 C425 1.399 . S
C424 H430 0.929 . S
C425 C405 1.449 . S
C425 C424 1.399 . S
C425 H431 0.930 . S
H426 C406 0.931 . S
H427 C407 0.930 . S
H428 C415 0.931 . S
H429 C416 0.929 . S
H430 C424 0.929 . S
H431 C425 0.930 . S
Mn432 O437 2.095 . S
Mn432 O447 2.162 . S
Mn432 O448 2.297 . S
Mn432 O456 2.385 . S
Mn432 O457 2.209 . S
Mn432 O458 2.094 . S
Mn433 O438 2.121 . S
Mn433 N440 2.257 . S
Mn433 N449 2.282 . S
Mn433 O457 2.215 . S
Mn433 O459 2.117 . S
C434 O456 1.234 . S
C434 O457 1.283 . S
C435 O447 1.281 . S
C435 O448 1.236 . S
C436 O458 1.240 . S
C436 O459 1.264 . S
O437 Mn432 2.095 . S
O437 C446 1.250 . S
O438 Mn433 2.121 . S
O438 C446 1.258 . S
C439 N440 1.326 . S
C439 C443 1.460 . S
C439 H445 0.929 . S
N440 Mn433 2.257 . S
N440 C439 1.326 . S
N440 C444 1.362 . S
C441 C442 1.258 . S
C441 C444 1.431 . S
C441 C461 1.449 . S
C442 C441 1.258 . S
C442 C443 1.477 . S
C442 H462 0.931 . S
C443 C439 1.460 . S
C443 C442 1.477 . S
C443 H463 0.930 . S
C444 N440 1.362 . S
C444 C441 1.431 . S
C444 C454 1.476 . S
H445 C439 0.929 . S
C446 O437 1.250 . S
C446 O438 1.258 . S
O447 Mn432 2.162 . S
O447 C435 1.281 . S
O448 Mn432 2.297 . S
O448 C435 1.236 . S
N449 Mn433 2.282 . S
N449 C450 1.328 . S
N449 C454 1.318 . S
C450 N449 1.328 . S
C450 C451 1.457 . S
C450 H455 0.929 . S
C451 C450 1.457 . S
C451 C452 1.291 . S
C451 H464 0.931 . S
C452 C451 1.291 . S
C452 C453 1.373 . S
C452 H465 0.929 . S
C453 C452 1.373 . S
C453 C454 1.396 . S
C453 C460 1.403 . S
C454 C444 1.476 . S
C454 N449 1.318 . S
C454 C453 1.396 . S
H455 C450 0.929 . S
O456 Mn432 2.385 . S
O456 C434 1.234 . S
O457 Mn432 2.209 . S
O457 Mn433 2.215 . S
O457 C434 1.283 . S
O458 Mn432 2.094 . S
O458 C436 1.240 . S
O459 Mn433 2.117 . S
O459 C436 1.264 . S
C460 C453 1.403 . S
C460 C461 1.399 . S
C460 H466 0.929 . S
C461 C441 1.449 . S
C461 C460 1.399 . S
C461 H467 0.930 . S
H462 C442 0.931 . S
H463 C443 0.930 . S
H464 C451 0.931 . S
H465 C452 0.929 . S
H466 C460 0.929 . S
H467 C461 0.930 . S
Mn468 O473 2.095 . S
Mn468 O483 2.162 . S
Mn468 O484 2.297 . S
Mn468 O492 2.385 . S
Mn468 O493 2.209 . S
Mn468 O494 2.094 . S
Mn469 O474 2.121 . S
Mn469 N476 2.257 . S
Mn469 N485 2.282 . S
Mn469 O493 2.215 . S
Mn469 O495 2.117 . S
C470 O492 1.234 . S
C470 O493 1.283 . S
C471 O483 1.281 . S
C471 O484 1.236 . S
C472 O494 1.240 . S
C472 O495 1.264 . S
O473 Mn468 2.095 . S
O473 C482 1.250 . S
O474 Mn469 2.121 . S
O474 C482 1.258 . S
C475 N476 1.326 . S
C475 C479 1.460 . S
C475 H481 0.929 . S
N476 Mn469 2.257 . S
N476 C475 1.326 . S
N476 C480 1.362 . S
C477 C478 1.258 . S
C477 C480 1.431 . S
C477 C497 1.449 . S
C478 C477 1.258 . S
C478 C479 1.477 . S
C478 H498 0.931 . S
C479 C475 1.460 . S
C479 C478 1.477 . S
C479 H499 0.930 . S
C480 N476 1.362 . S
C480 C477 1.431 . S
C480 C490 1.476 . S
H481 C475 0.929 . S
C482 O473 1.250 . S
C482 O474 1.258 . S
O483 Mn468 2.162 . S
O483 C471 1.281 . S
O484 Mn468 2.297 . S
O484 C471 1.236 . S
N485 Mn469 2.282 . S
N485 C486 1.328 . S
N485 C490 1.318 . S
C486 N485 1.328 . S
C486 C487 1.457 . S
C486 H491 0.929 . S
C487 C486 1.457 . S
C487 C488 1.291 . S
C487 H500 0.931 . S
C488 C487 1.291 . S
C488 C489 1.373 . S
C488 H501 0.929 . S
C489 C488 1.373 . S
C489 C490 1.396 . S
C489 C496 1.403 . S
C490 C480 1.476 . S
C490 N485 1.318 . S
C490 C489 1.396 . S
H491 C486 0.929 . S
O492 Mn468 2.385 . S
O492 C470 1.234 . S
O493 Mn468 2.209 . S
O493 Mn469 2.215 . S
O493 C470 1.283 . S
O494 Mn468 2.094 . S
O494 C472 1.240 . S
O495 Mn469 2.117 . S
O495 C472 1.264 . S
C496 C489 1.403 . S
C496 C497 1.399 . S
C496 H502 0.929 . S
C497 C477 1.449 . S
C497 C496 1.399 . S
C497 H503 0.930 . S
H498 C478 0.931 . S
H499 C479 0.930 . S
H500 C487 0.931 . S
H501 C488 0.929 . S
H502 C496 0.929 . S
H503 C497 0.930 . S
Mn504 O509 2.095 . S
Mn504 O519 2.162 . S
Mn504 O520 2.297 . S
Mn504 O528 2.385 . S
Mn504 O529 2.209 . S
Mn504 O530 2.094 . S
Mn505 O510 2.121 . S
Mn505 N512 2.257 . S
Mn505 N521 2.282 . S
Mn505 O529 2.215 . S
Mn505 O531 2.117 . S
C506 O528 1.234 . S
C506 O529 1.283 . S
C507 O519 1.281 . S
C507 O520 1.236 . S
C508 O530 1.240 . S
C508 O531 1.264 . S
O509 Mn504 2.095 . S
O509 C518 1.250 . S
O510 Mn505 2.121 . S
O510 C518 1.258 . S
C511 N512 1.326 . S
C511 C515 1.460 . S
C511 H517 0.929 . S
N512 Mn505 2.257 . S
N512 C511 1.326 . S
N512 C516 1.362 . S
C513 C514 1.258 . S
C513 C516 1.431 . S
C513 C533 1.449 . S
C514 C513 1.258 . S
C514 C515 1.477 . S
C514 H534 0.931 . S
C515 C511 1.460 . S
C515 C514 1.477 . S
C515 H535 0.930 . S
C516 N512 1.362 . S
C516 C513 1.431 . S
C516 C526 1.476 . S
H517 C511 0.929 . S
C518 O509 1.250 . S
C518 O510 1.258 . S
O519 Mn504 2.162 . S
O519 C507 1.281 . S
O520 Mn504 2.297 . S
O520 C507 1.236 . S
N521 Mn505 2.282 . S
N521 C522 1.328 . S
N521 C526 1.318 . S
C522 N521 1.328 . S
C522 C523 1.457 . S
C522 H527 0.929 . S
C523 C522 1.457 . S
C523 C524 1.291 . S
C523 H536 0.931 . S
C524 C523 1.291 . S
C524 C525 1.373 . S
C524 H537 0.929 . S
C525 C524 1.373 . S
C525 C526 1.396 . S
C525 C532 1.403 . S
C526 C516 1.476 . S
C526 N521 1.318 . S
C526 C525 1.396 . S
H527 C522 0.929 . S
O528 Mn504 2.385 . S
O528 C506 1.234 . S
O529 Mn504 2.209 . S
O529 Mn505 2.215 . S
O529 C506 1.283 . S
O530 Mn504 2.094 . S
O530 C508 1.240 . S
O531 Mn505 2.117 . S
O531 C508 1.264 . S
C532 C525 1.403 . S
C532 C533 1.399 . S
C532 H538 0.929 . S
C533 C513 1.449 . S
C533 C532 1.399 . S
C533 H539 0.930 . S
H534 C514 0.931 . S
H535 C515 0.930 . S
H536 C523 0.931 . S
H537 C524 0.929 . S
H538 C532 0.929 . S
H539 C533 0.930 . S
Mn540 O545 2.095 . S
Mn540 O555 2.162 . S
Mn540 O556 2.297 . S
Mn540 O564 2.385 . S
Mn540 O565 2.209 . S
Mn540 O566 2.094 . S
Mn541 O546 2.121 . S
Mn541 N548 2.257 . S
Mn541 N557 2.282 . S
Mn541 O565 2.215 . S
Mn541 O567 2.117 . S
C542 O564 1.234 . S
C542 O565 1.283 . S
C543 O555 1.281 . S
C543 O556 1.236 . S
C544 O566 1.240 . S
C544 O567 1.264 . S
O545 Mn540 2.095 . S
O545 C554 1.250 . S
O546 Mn541 2.121 . S
O546 C554 1.258 . S
C547 N548 1.326 . S
C547 C551 1.460 . S
C547 H553 0.929 . S
N548 Mn541 2.257 . S
N548 C547 1.326 . S
N548 C552 1.362 . S
C549 C550 1.258 . S
C549 C552 1.431 . S
C549 C569 1.449 . S
C550 C549 1.258 . S
C550 C551 1.477 . S
C550 H570 0.931 . S
C551 C547 1.460 . S
C551 C550 1.477 . S
C551 H571 0.930 . S
C552 N548 1.362 . S
C552 C549 1.431 . S
C552 C562 1.476 . S
H553 C547 0.929 . S
C554 O545 1.250 . S
C554 O546 1.258 . S
O555 Mn540 2.162 . S
O555 C543 1.281 . S
O556 Mn540 2.297 . S
O556 C543 1.236 . S
N557 Mn541 2.282 . S
N557 C558 1.328 . S
N557 C562 1.318 . S
C558 N557 1.328 . S
C558 C559 1.457 . S
C558 H563 0.929 . S
C559 C558 1.457 . S
C559 C560 1.291 . S
C559 H572 0.931 . S
C560 C559 1.291 . S
C560 C561 1.373 . S
C560 H573 0.929 . S
C561 C560 1.373 . S
C561 C562 1.396 . S
C561 C568 1.403 . S
C562 C552 1.476 . S
C562 N557 1.318 . S
C562 C561 1.396 . S
H563 C558 0.929 . S
O564 Mn540 2.385 . S
O564 C542 1.234 . S
O565 Mn540 2.209 . S
O565 Mn541 2.215 . S
O565 C542 1.283 . S
O566 Mn540 2.094 . S
O566 C544 1.240 . S
O567 Mn541 2.117 . S
O567 C544 1.264 . S
C568 C561 1.403 . S
C568 C569 1.399 . S
C568 H574 0.929 . S
C569 C549 1.449 . S
C569 C568 1.399 . S
C569 H575 0.930 . S
H570 C550 0.931 . S
H571 C551 0.930 . S
H572 C559 0.931 . S
H573 C560 0.929 . S
H574 C568 0.929 . S
H575 C569 0.930 . S
Mn576 O581 2.095 . S
Mn576 O591 2.162 . S
Mn576 O592 2.297 . S
Mn576 O600 2.385 . S
Mn576 O601 2.209 . S
Mn576 O602 2.094 . S
Mn577 O582 2.121 . S
Mn577 N584 2.257 . S
Mn577 N593 2.282 . S
Mn577 O601 2.215 . S
Mn577 O603 2.117 . S
C578 O600 1.234 . S
C578 O601 1.283 . S
C579 O591 1.281 . S
C579 O592 1.236 . S
C580 O602 1.240 . S
C580 O603 1.264 . S
O581 Mn576 2.095 . S
O581 C590 1.250 . S
O582 Mn577 2.121 . S
O582 C590 1.258 . S
C583 N584 1.326 . S
C583 C587 1.460 . S
C583 H589 0.929 . S
N584 Mn577 2.257 . S
N584 C583 1.326 . S
N584 C588 1.362 . S
C585 C586 1.258 . S
C585 C588 1.431 . S
C585 C605 1.449 . S
C586 C585 1.258 . S
C586 C587 1.477 . S
C586 H606 0.931 . S
C587 C583 1.460 . S
C587 C586 1.477 . S
C587 H607 0.930 . S
C588 N584 1.362 . S
C588 C585 1.431 . S
C588 C598 1.476 . S
H589 C583 0.929 . S
C590 O581 1.250 . S
C590 O582 1.258 . S
O591 Mn576 2.162 . S
O591 C579 1.281 . S
O592 Mn576 2.297 . S
O592 C579 1.236 . S
N593 Mn577 2.282 . S
N593 C594 1.328 . S
N593 C598 1.318 . S
C594 N593 1.328 . S
C594 C595 1.457 . S
C594 H599 0.929 . S
C595 C594 1.457 . S
C595 C596 1.291 . S
C595 H608 0.931 . S
C596 C595 1.291 . S
C596 C597 1.373 . S
C596 H609 0.929 . S
C597 C596 1.373 . S
C597 C598 1.396 . S
C597 C604 1.403 . S
C598 C588 1.476 . S
C598 N593 1.318 . S
C598 C597 1.396 . S
H599 C594 0.929 . S
O600 Mn576 2.385 . S
O600 C578 1.234 . S
O601 Mn576 2.209 . S
O601 Mn577 2.215 . S
O601 C578 1.283 . S
O602 Mn576 2.094 . S
O602 C580 1.240 . S
O603 Mn577 2.117 . S
O603 C580 1.264 . S
C604 C597 1.403 . S
C604 C605 1.399 . S
C604 H610 0.929 . S
C605 C585 1.449 . S
C605 C604 1.399 . S
C605 H611 0.930 . S
H606 C586 0.931 . S
H607 C587 0.930 . S
H608 C595 0.931 . S
H609 C596 0.929 . S
H610 C604 0.929 . S
H611 C605 0.930 . S
Mn612 O617 2.095 . S
Mn612 O627 2.162 . S
Mn612 O628 2.297 . S
Mn612 O636 2.385 . S
Mn612 O637 2.209 . S
Mn612 O638 2.094 . S
Mn613 O618 2.121 . S
Mn613 N620 2.257 . S
Mn613 N629 2.282 . S
Mn613 O637 2.215 . S
Mn613 O639 2.117 . S
C614 O636 1.234 . S
C614 O637 1.283 . S
C615 O627 1.281 . S
C615 O628 1.236 . S
C616 O638 1.240 . S
C616 O639 1.264 . S
O617 Mn612 2.095 . S
O617 C626 1.250 . S
O618 Mn613 2.121 . S
O618 C626 1.258 . S
C619 N620 1.326 . S
C619 C623 1.460 . S
C619 H625 0.929 . S
N620 Mn613 2.257 . S
N620 C619 1.326 . S
N620 C624 1.362 . S
C621 C622 1.258 . S
C621 C624 1.431 . S
C621 C641 1.449 . S
C622 C621 1.258 . S
C622 C623 1.477 . S
C622 H642 0.931 . S
C623 C619 1.460 . S
C623 C622 1.477 . S
C623 H643 0.930 . S
C624 N620 1.362 . S
C624 C621 1.431 . S
C624 C634 1.476 . S
H625 C619 0.929 . S
C626 O617 1.250 . S
C626 O618 1.258 . S
O627 Mn612 2.162 . S
O627 C615 1.281 . S
O628 Mn612 2.297 . S
O628 C615 1.236 . S
N629 Mn613 2.282 . S
N629 C630 1.328 . S
N629 C634 1.318 . S
C630 N629 1.328 . S
C630 C631 1.457 . S
C630 H635 0.929 . S
C631 C630 1.457 . S
C631 C632 1.291 . S
C631 H644 0.931 . S
C632 C631 1.291 . S
C632 C633 1.373 . S
C632 H645 0.929 . S
C633 C632 1.373 . S
C633 C634 1.396 . S
C633 C640 1.403 . S
C634 C624 1.476 . S
C634 N629 1.318 . S
C634 C633 1.396 . S
H635 C630 0.929 . S
O636 Mn612 2.385 . S
O636 C614 1.234 . S
O637 Mn612 2.209 . S
O637 Mn613 2.215 . S
O637 C614 1.283 . S
O638 Mn612 2.094 . S
O638 C616 1.240 . S
O639 Mn613 2.117 . S
O639 C616 1.264 . S
C640 C633 1.403 . S
C640 C641 1.399 . S
C640 H646 0.929 . S
C641 C621 1.449 . S
C641 C640 1.399 . S
C641 H647 0.930 . S
H642 C622 0.931 . S
H643 C623 0.930 . S
H644 C631 0.931 . S
H645 C632 0.929 . S
H646 C640 0.929 . S
H647 C641 0.930 . S
H648 C654 0.930 . S
H649 C657 0.930 . S
H650 C658 0.930 . S
H651 C659 0.930 . S
H652 C662 0.930 . S
H653 C663 0.930 . S
C654 H648 0.930 . S
C654 C655 1.355 . S
C654 C656 1.415 . S
C655 C654 1.355 . S
C655 C657 1.419 . S
C656 C654 1.415 . S
C656 C661 1.425 . S
C656 C663 1.409 . S
C657 H649 0.930 . S
C657 C655 1.419 . S
C657 C658 1.362 . S
C658 H650 0.930 . S
C658 C657 1.362 . S
C658 C661 1.409 . S
C659 H651 0.930 . S
C659 C660 1.355 . S
C659 C661 1.415 . S
C660 C659 1.355 . S
C660 C662 1.419 . S
C661 C656 1.425 . S
C661 C658 1.409 . S
C661 C659 1.415 . S
C662 H652 0.930 . S
C662 C660 1.419 . S
C662 C663 1.362 . S
C663 H653 0.930 . S
C663 C656 1.409 . S
C663 C662 1.362 . S
H664 C670 0.930 . S
H665 C673 0.930 . S
H666 C674 0.930 . S
H667 C675 0.930 . S
H668 C678 0.930 . S
H669 C679 0.930 . S
C670 H664 0.930 . S
C670 C671 1.355 . S
C670 C672 1.415 . S
C671 C670 1.355 . S
C671 C673 1.419 . S
C672 C670 1.415 . S
C672 C677 1.425 . S
C672 C679 1.409 . S
C673 H665 0.930 . S
C673 C671 1.419 . S
C673 C674 1.362 . S
C674 H666 0.930 . S
C674 C673 1.362 . S
C674 C677 1.409 . S
C675 H667 0.930 . S
C675 C676 1.355 . S
C675 C677 1.415 . S
C676 C675 1.355 . S
C676 C678 1.419 . S
C677 C672 1.425 . S
C677 C674 1.409 . S
C677 C675 1.415 . S
C678 H668 0.930 . S
C678 C676 1.419 . S
C678 C679 1.362 . S
C679 H669 0.930 . S
C679 C672 1.409 . S
C679 C678 1.362 . S
H680 C686 0.930 . S
H681 C689 0.930 . S
H682 C690 0.930 . S
H683 C691 0.930 . S
H684 C694 0.938 . S
H685 C695 0.930 . S
C686 H680 0.930 . S
C686 C687 1.355 . S
C686 C688 1.415 . S
C687 C686 1.355 . S
C687 C689 1.419 . S
C688 C686 1.415 . S
C688 C693 1.425 . S
C688 C695 1.409 . S
C689 H681 0.930 . S
C689 C687 1.419 . S
C689 C690 1.362 . S
C690 H682 0.930 . S
C690 C689 1.362 . S
C690 C693 1.409 . S
C691 H683 0.930 . S
C691 C692 1.355 . S
C691 C693 1.415 . S
C692 C691 1.355 . S
C692 C694 1.419 . S
C693 C688 1.425 . S
C693 C690 1.409 . S
C693 C691 1.415 . S
C694 H684 0.938 . S
C694 C692 1.419 . S
C694 C695 1.362 . S
C695 H685 0.930 . S
C695 C688 1.409 . S
C695 C694 1.362 . S
H696 C702 0.930 . S
H697 C705 0.930 . S
H698 C706 0.930 . S
H699 C707 0.930 . S
H700 C710 0.930 . S
H701 C711 0.930 . S
C702 H696 0.930 . S
C702 C703 1.355 . S
C702 C704 1.415 . S
C703 C702 1.355 . S
C703 C705 1.419 . S
C704 C702 1.415 . S
C704 C709 1.425 . S
C704 C711 1.409 . S
C705 H697 0.930 . S
C705 C703 1.419 . S
C705 C706 1.362 . S
C706 H698 0.930 . S
C706 C705 1.362 . S
C706 C709 1.409 . S
C707 H699 0.930 . S
C707 C708 1.355 . S
C707 C709 1.415 . S
C708 C707 1.355 . S
C708 C710 1.419 . S
C709 C704 1.425 . S
C709 C706 1.409 . S
C709 C707 1.415 . S
C710 H700 0.930 . S
C710 C708 1.419 . S
C710 C711 1.362 . S
C711 H701 0.930 . S
C711 C704 1.409 . S
C711 C710 1.362 . S
H712 C718 0.930 . S
H713 C721 0.930 . S
H714 C722 0.930 . S
H715 C723 0.930 . S
H716 C726 0.930 . S
H717 C727 0.930 . S
C718 H712 0.930 . S
C718 C719 1.355 . S
C718 C720 1.415 . S
C719 C718 1.355 . S
C719 C721 1.419 . S
C720 C718 1.415 . S
C720 C725 1.425 . S
C720 C727 1.409 . S
C721 H713 0.930 . S
C721 C719 1.419 . S
C721 C722 1.362 . S
C722 H714 0.930 . S
C722 C721 1.362 . S
C722 C725 1.409 . S
C723 H715 0.930 . S
C723 C724 1.355 . S
C723 C725 1.415 . S
C724 C723 1.355 . S
C724 C726 1.419 . S
C725 C720 1.425 . S
C725 C722 1.409 . S
C725 C723 1.415 . S
C726 H716 0.930 . S
C726 C724 1.419 . S
C726 C727 1.362 . S
C727 H717 0.930 . S
C727 C720 1.409 . S
C727 C726 1.362 . S
H728 C734 0.930 . S
H729 C737 0.930 . S
H730 C738 0.930 . S
H731 C739 0.930 . S
H732 C742 0.930 . S
H733 C743 0.930 . S
C734 H728 0.930 . S
C734 C735 1.355 . S
C734 C736 1.415 . S
C735 C734 1.355 . S
C735 C737 1.419 . S
C736 C734 1.415 . S
C736 C741 1.425 . S
C736 C743 1.409 . S
C737 H729 0.930 . S
C737 C735 1.419 . S
C737 C738 1.362 . S
C738 H730 0.930 . S
C738 C737 1.362 . S
C738 C741 1.409 . S
C739 H731 0.930 . S
C739 C740 1.355 . S
C739 C741 1.415 . S
C740 C739 1.355 . S
C740 C742 1.419 . S
C741 C736 1.425 . S
C741 C738 1.409 . S
C741 C739 1.415 . S
C742 H732 0.930 . S
C742 C740 1.419 . S
C742 C743 1.362 . S
C743 H733 0.930 . S
C743 C736 1.409 . S
C743 C742 1.362 . S
H744 C750 0.930 . S
H745 C753 0.930 . S
H746 C754 0.930 . S
H747 C755 0.930 . S
H748 C758 0.930 . S
H749 C759 0.930 . S
C750 H744 0.930 . S
C750 C751 1.355 . S
C750 C752 1.415 . S
C751 C750 1.355 . S
C751 C753 1.419 . S
C752 C750 1.415 . S
C752 C757 1.425 1_655 S
C752 C759 1.409 1_655 S
C753 H745 0.930 . S
C753 C751 1.419 . S
C753 C754 1.362 . S
C754 H746 0.930 . S
C754 C753 1.362 . S
C754 C757 1.409 1_655 S
C755 H747 0.930 . S
C755 C756 1.355 . S
C755 C757 1.415 . S
C756 C755 1.355 . S
C756 C758 1.419 . S
C757 C752 1.425 1_455 S
C757 C754 1.409 1_455 S
C757 C755 1.415 . S
C758 H748 0.930 . S
C758 C756 1.419 . S
C758 C759 1.362 . S
C759 H749 0.930 . S
C759 C752 1.409 1_455 S
C759 C758 1.362 . S
H760 C766 0.930 . S
H761 C769 0.930 . S
H762 C770 0.930 . S
H763 C771 0.930 . S
H764 C774 0.930 . S
H765 C775 0.930 . S
C766 H760 0.930 . S
C766 C767 1.355 . S
C766 C768 1.415 . S
C767 C766 1.355 . S
C767 C769 1.419 . S
C768 C766 1.415 . S
C768 C773 1.425 . S
C768 C775 1.409 . S
C769 H761 0.930 . S
C769 C767 1.419 . S
C769 C770 1.362 . S
C770 H762 0.930 . S
C770 C769 1.362 . S
C770 C773 1.409 . S
C771 H763 0.930 . S
C771 C772 1.355 . S
C771 C773 1.415 . S
C772 C771 1.355 . S
C772 C774 1.419 . S
C773 C768 1.425 . S
C773 C770 1.409 . S
C773 C771 1.415 . S
C774 H764 0.930 . S
C774 C772 1.419 . S
C774 C775 1.362 . S
C775 H765 0.930 . S
C775 C768 1.409 . S
C775 C774 1.362 . S
H776 C782 0.930 . S
H777 C785 0.930 . S
H778 C786 0.930 . S
H779 C787 0.930 . S
H780 C790 0.930 . S
H781 C791 0.930 . S
C782 H776 0.930 . S
C782 C783 1.355 . S
C782 C784 1.415 . S
C783 C782 1.355 . S
C783 C785 1.419 . S
C784 C782 1.415 . S
C784 C789 1.425 1_545 S
C784 C791 1.409 1_545 S
C785 H777 0.930 . S
C785 C783 1.419 . S
C785 C786 1.362 . S
C786 H778 0.930 . S
C786 C785 1.362 . S
C786 C789 1.409 1_545 S
C787 H779 0.930 . S
C787 C788 1.355 . S
C787 C789 1.415 . S
C788 C787 1.355 . S
C788 C790 1.419 . S
C789 C784 1.425 1_565 S
C789 C786 1.409 1_565 S
C789 C787 1.415 . S
C790 H780 0.930 . S
C790 C788 1.419 . S
C790 C791 1.362 . S
C791 H781 0.930 . S
C791 C784 1.409 1_565 S
C791 C790 1.362 . S
H792 C798 0.930 . S
H793 C801 0.930 . S
H794 C802 0.930 . S
H795 C803 0.930 . S
H796 C806 0.930 . S
H797 C807 0.930 . S
C798 H792 0.930 . S
C798 C799 1.355 . S
C798 C800 1.415 1_455 S
C799 C798 1.355 . S
C799 C801 1.419 . S
C800 C798 1.415 1_655 S
C800 C805 1.425 . S
C800 C807 1.409 . S
C801 H793 0.930 . S
C801 C799 1.419 . S
C801 C802 1.362 . S
C802 H794 0.930 . S
C802 C801 1.362 . S
C802 C805 1.409 1_455 S
C803 H795 0.930 . S
C803 C804 1.355 . S
C803 C805 1.415 . S
C804 C803 1.355 . S
C804 C806 1.419 . S
C805 C800 1.425 . S
C805 C802 1.409 1_655 S
C805 C803 1.415 . S
C806 H796 0.930 . S
C806 C804 1.419 . S
C806 C807 1.362 . S
C807 H797 0.930 . S
C807 C800 1.409 . S
C807 C806 1.362 . S
H808 C814 0.930 . S
H809 C817 0.930 . S
H810 C818 0.930 . S
H811 C819 0.930 . S
H812 C822 0.930 . S
H813 C823 0.930 . S
C814 H808 0.930 . S
C814 C815 1.355 . S
C814 C816 1.415 . S
C815 C814 1.355 . S
C815 C817 1.419 . S
C816 C814 1.415 . S
C816 C821 1.425 . S
C816 C823 1.409 . S
C817 H809 0.930 . S
C817 C815 1.419 . S
C817 C818 1.362 . S
C818 H810 0.930 . S
C818 C817 1.362 . S
C818 C821 1.409 . S
C819 H811 0.930 . S
C819 C820 1.355 . S
C819 C821 1.415 . S
C820 C819 1.355 . S
C820 C822 1.419 . S
C821 C816 1.425 . S
C821 C818 1.409 . S
C821 C819 1.415 . S
C822 H812 0.930 . S
C822 C820 1.419 . S
C822 C823 1.362 . S
C823 H813 0.930 . S
C823 C816 1.409 . S
C823 C822 1.362 . S
H824 C830 0.930 . S
H825 C833 0.930 . S
H826 C834 0.930 . S
H827 C835 0.930 . S
H828 C838 0.930 . S
H829 C839 0.930 . S
C830 H824 0.930 . S
C830 C831 1.355 . S
C830 C832 1.415 . S
C831 C830 1.355 . S
C831 C833 1.419 . S
C832 C830 1.415 . S
C832 C837 1.432 . S
C832 C839 1.409 1_545 S
C833 H825 0.930 . S
C833 C831 1.419 . S
C833 C834 1.362 . S
C834 H826 0.930 . S
C834 C833 1.362 . S
C834 C837 1.428 . S
C835 H827 0.930 . S
C835 C836 1.355 . S
C835 C837 1.390 1_565 S
C836 C835 1.355 . S
C836 C838 1.419 . S
C837 C832 1.432 . S
C837 C834 1.428 . S
C837 C835 1.390 1_545 S
C838 H828 0.930 . S
C838 C836 1.419 . S
C838 C839 1.362 . S
C839 H829 0.930 . S
C839 C832 1.409 1_565 S
C839 C838 1.362 . S
H840 C846 0.930 . S
H841 C849 0.930 . S
H842 C850 0.930 . S
H843 C851 0.930 . S
H844 C854 0.930 . S
H845 C855 0.930 1_565 S
C846 H840 0.930 . S
C846 C847 1.355 . S
C846 C848 1.415 . S
C847 C846 1.355 . S
C847 C849 1.419 . S
C848 C846 1.415 . S
C848 C853 1.425 1_565 S
C848 C855 1.409 1_565 S
C849 H841 0.930 . S
C849 C847 1.419 . S
C849 C850 1.362 . S
C850 H842 0.930 . S
C850 C849 1.362 . S
C850 C853 1.409 1_565 S
C851 H843 0.930 . S
C851 C852 1.355 . S
C851 C853 1.415 . S
C852 C851 1.355 . S
C852 C854 1.419 . S
C853 C848 1.425 1_545 S
C853 C850 1.409 1_545 S
C853 C851 1.415 . S
C854 H844 0.930 . S
C854 C852 1.419 . S
C854 C855 1.362 . S
C855 H845 0.930 1_545 S
C855 C848 1.409 1_545 S
C855 C854 1.362 . S
H856 C862 0.930 . S
H857 C865 0.930 . S
H858 C866 0.930 . S
H859 C867 0.930 . S
H860 C870 0.930 . S
H861 C871 0.930 . S
C862 H856 0.930 . S
C862 C863 1.355 . S
C862 C864 1.415 . S
C863 C862 1.355 . S
C863 C865 1.419 . S
C864 C862 1.415 . S
C864 C869 1.425 . S
C864 C871 1.409 1_455 S
C865 H857 0.930 . S
C865 C863 1.419 . S
C865 C866 1.362 . S
C866 H858 0.930 . S
C866 C865 1.362 . S
C866 C869 1.409 . S
C867 H859 0.930 . S
C867 C868 1.355 . S
C867 C869 1.415 1_655 S
C868 C867 1.355 . S
C868 C870 1.419 . S
C869 C864 1.425 . S
C869 C866 1.409 . S
C869 C867 1.415 1_455 S
C870 H860 0.930 . S
C870 C868 1.419 . S
C870 C871 1.362 . S
C871 H861 0.930 . S
C871 C864 1.409 1_655 S
C871 C870 1.362 . S
H872 C878 0.930 . S
H873 C881 0.930 . S
H874 C882 0.930 . S
H875 C883 0.930 . S
H876 C886 0.930 . S
H877 C887 0.930 . S
C878 H872 0.930 . S
C878 C879 1.355 . S
C878 C880 1.415 . S
C879 C878 1.355 . S
C879 C881 1.419 . S
C880 C878 1.415 . S
C880 C885 1.425 . S
C880 C887 1.409 . S
C881 H873 0.930 . S
C881 C879 1.419 . S
C881 C882 1.362 . S
C882 H874 0.930 . S
C882 C881 1.362 . S
C882 C885 1.409 . S
C883 H875 0.930 . S
C883 C884 1.355 . S
C883 C885 1.415 . S
C884 C883 1.355 . S
C884 C886 1.419 . S
C885 C880 1.425 . S
C885 C882 1.409 . S
C885 C883 1.415 . S
C886 H876 0.930 . S
C886 C884 1.419 . S
C886 C887 1.362 . S
C887 H877 0.930 . S
C887 C880 1.409 . S
C887 C886 1.362 . S
H888 C894 0.930 . S
H889 C897 0.930 . S
H890 C898 0.930 . S
H891 C899 0.930 . S
H892 C902 0.930 . S
H893 C903 0.930 . S
C894 H888 0.930 . S
C894 C895 1.355 . S
C894 C896 1.415 . S
C895 C894 1.355 . S
C895 C897 1.419 . S
C896 C894 1.415 . S
C896 C901 1.425 . S
C896 C903 1.409 . S
C897 H889 0.930 . S
C897 C895 1.419 . S
C897 C898 1.362 . S
C898 H890 0.930 . S
C898 C897 1.362 . S
C898 C901 1.409 . S
C899 H891 0.930 . S
C899 C900 1.355 . S
C899 C901 1.415 . S
C900 C899 1.355 . S
C900 C902 1.419 . S
C901 C896 1.425 . S
C901 C898 1.409 . S
C901 C899 1.415 . S
C902 H892 0.930 . S
C902 C900 1.419 . S
C902 C903 1.362 . S
C903 H893 0.930 . S
C903 C896 1.409 . S
C903 C902 1.362 . S
H904 C910 0.930 . S
H905 C913 0.930 . S
H906 C914 0.930 . S
H907 C915 0.930 . S
H908 C918 0.930 . S
H909 C919 0.930 . S
C910 H904 0.930 . S
C910 C911 1.355 . S
C910 C912 1.415 . S
C911 C910 1.355 . S
C911 C913 1.419 . S
C912 C910 1.415 . S
C912 C917 1.425 . S
C912 C919 1.409 . S
C913 H905 0.930 . S
C913 C911 1.419 . S
C913 C914 1.362 . S
C914 H906 0.930 . S
C914 C913 1.362 . S
C914 C917 1.409 . S
C915 H907 0.930 . S
C915 C916 1.355 . S
C915 C917 1.415 . S
C916 C915 1.355 . S
C916 C918 1.419 . S
C917 C912 1.425 . S
C917 C914 1.409 . S
C917 C915 1.415 . S
C918 H908 0.930 . S
C918 C916 1.419 . S
C918 C919 1.362 . S
C919 H909 0.930 . S
C919 C912 1.409 . S
C919 C918 1.362 . S
H920 C926 0.930 . S
H921 C929 0.930 . S
H922 C930 0.930 . S
H923 C931 0.930 . S
H924 C934 0.930 . S
H925 C935 0.930 . S
C926 H920 0.930 . S
C926 C927 1.355 . S
C926 C928 1.415 . S
C927 C926 1.355 . S
C927 C929 1.419 . S
C928 C926 1.415 . S
C928 C933 1.425 . S
C928 C935 1.409 . S
C929 H921 0.930 . S
C929 C927 1.419 . S
C929 C930 1.362 . S
C930 H922 0.930 . S
C930 C929 1.362 . S
C930 C933 1.409 . S
C931 H923 0.930 . S
C931 C932 1.355 . S
C931 C933 1.415 . S
C932 C931 1.355 . S
C932 C934 1.419 . S
C933 C928 1.425 . S
C933 C930 1.409 . S
C933 C931 1.415 . S
C934 H924 0.930 . S
C934 C932 1.419 . S
C934 C935 1.362 . S
C935 H925 0.930 . S
C935 C928 1.409 . S
C935 C934 1.362 . S
H936 C942 0.930 . S
H937 C945 0.930 . S
H938 C946 0.930 . S
H939 C947 0.930 . S
H940 C950 0.930 . S
H941 C951 0.930 . S
C942 H936 0.930 . S
C942 C943 1.355 . S
C942 C944 1.415 . S
C943 C942 1.355 . S
C943 C945 1.419 . S
C944 C942 1.415 . S
C944 C949 1.425 . S
C944 C951 1.409 . S
C945 H937 0.930 . S
C945 C943 1.419 . S
C945 C946 1.362 . S
C946 H938 0.930 . S
C946 C945 1.362 . S
C946 C949 1.409 . S
C947 H939 0.930 . S
C947 C948 1.355 . S
C947 C949 1.415 . S
C948 C947 1.355 . S
C948 C950 1.419 . S
C949 C944 1.425 . S
C949 C946 1.409 . S
C949 C947 1.415 . S
C950 H940 0.930 . S
C950 C948 1.419 . S
C950 C951 1.362 . S
C951 H941 0.930 . S
C951 C944 1.409 . S
C951 C950 1.362 . S
H952 C958 0.930 . S
H953 C961 0.930 . S
H954 C962 0.930 . S
H955 C963 0.930 . S
H956 C966 0.930 . S
H957 C967 0.930 . S
C958 H952 0.930 . S
C958 C959 1.355 . S
C958 C960 1.415 . S
C959 C958 1.355 . S
C959 C961 1.419 . S
C960 C958 1.415 . S
C960 C965 1.425 . S
C960 C967 1.409 . S
C961 H953 0.930 . S
C961 C959 1.419 . S
C961 C962 1.362 . S
C962 H954 0.930 . S
C962 C961 1.362 . S
C962 C965 1.409 . S
C963 H955 0.930 . S
C963 C964 1.355 . S
C963 C965 1.415 . S
C964 C963 1.355 . S
C964 C966 1.419 . S
C965 C960 1.425 . S
C965 C962 1.409 . S
C965 C963 1.415 . S
C966 H956 0.930 . S
C966 C964 1.419 . S
C966 C967 1.362 . S
C967 H957 0.930 . S
C967 C960 1.409 . S
C967 C966 1.362 . S
H968 C974 0.930 . S
H969 C977 0.930 . S
H970 C978 0.930 . S
H971 C979 0.930 . S
H972 C982 0.930 . S
H973 C983 0.930 . S
C974 H968 0.930 . S
C974 C975 1.355 . S
C974 C976 1.415 . S
C975 C974 1.355 . S
C975 C977 1.419 . S
C976 C974 1.415 . S
C976 C981 1.425 . S
C976 C983 1.409 . S
C977 H969 0.930 . S
C977 C975 1.419 . S
C977 C978 1.362 . S
C978 H970 0.930 . S
C978 C977 1.362 . S
C978 C981 1.409 . S
C979 H971 0.930 . S
C979 C980 1.355 . S
C979 C981 1.415 . S
C980 C979 1.355 . S
C980 C982 1.419 . S
C981 C976 1.425 . S
C981 C978 1.409 . S
C981 C979 1.415 . S
C982 H972 0.930 . S
C982 C980 1.419 . S
C982 C983 1.362 . S
C983 H973 0.930 . S
C983 C976 1.409 . S
C983 C982 1.362 . S
H984 C990 0.930 . S
H985 C993 0.930 . S
H986 C994 0.930 . S
H987 C995 0.930 . S
H988 C998 0.930 . S
H989 C999 0.930 . S
C990 H984 0.930 . S
C990 C991 1.355 . S
C990 C992 1.415 . S
C991 C990 1.355 . S
C991 C993 1.419 . S
C992 C990 1.415 . S
C992 C997 1.425 . S
C992 C999 1.409 . S
C993 H985 0.930 . S
C993 C991 1.419 . S
C993 C994 1.362 . S
C994 H986 0.930 . S
C994 C993 1.362 . S
C994 C997 1.409 . S
C995 H987 0.930 . S
C995 C996 1.355 . S
C995 C997 1.415 . S
C996 C995 1.355 . S
C996 C998 1.419 . S
C997 C992 1.425 . S
C997 C994 1.409 . S
C997 C995 1.415 . S
C998 H988 0.930 . S
C998 C996 1.419 . S
C998 C999 1.362 . S
C999 H989 0.930 . S
C999 C992 1.409 . S
C999 C998 1.362 . S
H1000 C1006 0.930 . S
H1001 C1009 0.930 . S
H1002 C1010 0.930 . S
H1003 C1011 0.930 . S
H1004 C1014 0.930 . S
H1005 C1015 0.930 . S
C1006 H1000 0.930 . S
C1006 C1007 1.355 . S
C1006 C1008 1.415 . S
C1007 C1006 1.355 . S
C1007 C1009 1.419 . S
C1008 C1006 1.415 . S
C1008 C1013 1.425 . S
C1008 C1015 1.409 . S
C1009 H1001 0.930 . S
C1009 C1007 1.419 . S
C1009 C1010 1.362 . S
C1010 H1002 0.930 . S
C1010 C1009 1.362 . S
C1010 C1013 1.409 . S
C1011 H1003 0.930 . S
C1011 C1012 1.355 . S
C1011 C1013 1.415 . S
C1012 C1011 1.355 . S
C1012 C1014 1.419 . S
C1013 C1008 1.425 . S
C1013 C1010 1.409 . S
C1013 C1011 1.415 . S
C1014 H1004 0.930 . S
C1014 C1012 1.419 . S
C1014 C1015 1.362 . S
C1015 H1005 0.930 . S
C1015 C1008 1.409 . S
C1015 C1014 1.362 . S
H1016 C1022 0.930 . S
H1017 C1025 0.930 . S
H1018 C1026 0.930 . S
H1019 C1027 0.930 . S
H1020 C1030 0.930 . S
H1021 C1031 0.930 . S
C1022 H1016 0.930 . S
C1022 C1023 1.355 . S
C1022 C1024 1.415 . S
C1023 C1022 1.355 . S
C1023 C1025 1.419 . S
C1024 C1022 1.415 . S
C1024 C1029 1.425 . S
C1024 C1031 1.409 . S
C1025 H1017 0.930 . S
C1025 C1023 1.419 . S
C1025 C1026 1.362 . S
C1026 H1018 0.930 . S
C1026 C1025 1.362 . S
C1026 C1029 1.409 . S
C1027 H1019 0.930 . S
C1027 C1028 1.355 . S
C1027 C1029 1.415 . S
C1028 C1027 1.355 . S
C1028 C1030 1.419 . S
C1029 C1024 1.425 . S
C1029 C1026 1.409 . S
C1029 C1027 1.415 . S
C1030 H1020 0.930 . S
C1030 C1028 1.419 . S
C1030 C1031 1.362 . S
C1031 H1021 0.930 . S
C1031 C1024 1.409 . S
C1031 C1030 1.362 . S
H1032 C1038 0.930 . S
H1033 C1041 0.930 . S
H1034 C1042 0.930 . S
H1035 C1043 0.930 . S
H1036 C1046 0.930 . S
H1037 C1047 0.930 . S
C1038 H1032 0.930 . S
C1038 C1039 1.355 . S
C1038 C1040 1.415 . S
C1039 C1038 1.355 . S
C1039 C1041 1.419 . S
C1040 C1038 1.415 . S
C1040 C1045 1.425 . S
C1040 C1047 1.409 . S
C1041 H1033 0.930 . S
C1041 C1039 1.419 . S
C1041 C1042 1.362 . S
C1042 H1034 0.930 . S
C1042 C1041 1.362 . S
C1042 C1045 1.409 . S
C1043 H1035 0.930 . S
C1043 C1044 1.355 . S
C1043 C1045 1.415 . S
C1044 C1043 1.355 . S
C1044 C1046 1.419 . S
C1045 C1040 1.425 . S
C1045 C1042 1.409 . S
C1045 C1043 1.415 . S
C1046 H1036 0.930 . S
C1046 C1044 1.419 . S
C1046 C1047 1.362 . S
C1047 H1037 0.930 . S
C1047 C1040 1.409 . S
C1047 C1046 1.362 . S
H1048 C1054 0.930 . S
H1049 C1057 0.930 . S
H1050 C1058 0.930 . S
H1051 C1059 0.930 . S
H1052 C1062 0.930 . S
H1053 C1063 0.930 . S
C1054 H1048 0.930 . S
C1054 C1055 1.355 . S
C1054 C1056 1.415 . S
C1055 C1054 1.355 . S
C1055 C1057 1.419 . S
C1056 C1054 1.415 . S
C1056 C1061 1.425 . S
C1056 C1063 1.409 . S
C1057 H1049 0.930 . S
C1057 C1055 1.419 . S
C1057 C1058 1.362 . S
C1058 H1050 0.930 . S
C1058 C1057 1.362 . S
C1058 C1061 1.409 . S
C1059 H1051 0.930 . S
C1059 C1060 1.355 . S
C1059 C1061 1.415 . S
C1060 C1059 1.355 . S
C1060 C1062 1.419 . S
C1061 C1056 1.425 . S
C1061 C1058 1.409 . S
C1061 C1059 1.415 . S
C1062 H1052 0.930 . S
C1062 C1060 1.419 . S
C1062 C1063 1.362 . S
C1063 H1053 0.930 . S
C1063 C1056 1.409 . S
C1063 C1062 1.362 . S
H1064 C1070 0.930 . S
H1065 C1073 0.930 . S
H1066 C1074 0.930 . S
H1067 C1075 0.930 . S
H1068 C1078 0.930 . S
H1069 C1079 0.930 . S
C1070 H1064 0.930 . S
C1070 C1071 1.355 . S
C1070 C1072 1.415 . S
C1071 C1070 1.355 . S
C1071 C1073 1.419 . S
C1072 C1070 1.415 . S
C1072 C1077 1.425 . S
C1072 C1079 1.409 . S
C1073 H1065 0.930 . S
C1073 C1071 1.419 . S
C1073 C1074 1.362 . S
C1074 H1066 0.930 . S
C1074 C1073 1.362 . S
C1074 C1077 1.409 . S
C1075 H1067 0.930 . S
C1075 C1076 1.355 . S
C1075 C1077 1.415 . S
C1076 C1075 1.355 . S
C1076 C1078 1.419 . S
C1077 C1072 1.425 . S
C1077 C1074 1.409 . S
C1077 C1075 1.415 . S
C1078 H1068 0.930 . S
C1078 C1076 1.419 . S
C1078 C1079 1.362 . S
C1079 H1069 0.930 . S
C1079 C1072 1.409 . S
C1079 C1078 1.362 . S
H1080 C1086 0.930 . S
H1081 C1089 0.930 . S
H1082 C1090 0.930 . S
H1083 C1091 0.930 . S
H1084 C1094 0.930 . S
H1085 C1095 0.930 . S
C1086 H1080 0.930 . S
C1086 C1087 1.355 . S
C1086 C1088 1.415 . S
C1087 C1086 1.355 . S
C1087 C1089 1.419 . S
C1088 C1086 1.415 . S
C1088 C1093 1.425 1_554 S
C1088 C1095 1.409 1_554 S
C1089 H1081 0.930 . S
C1089 C1087 1.419 . S
C1089 C1090 1.362 . S
C1090 H1082 0.930 . S
C1090 C1089 1.362 . S
C1090 C1093 1.409 1_554 S
C1091 H1083 0.930 . S
C1091 C1092 1.355 . S
C1091 C1093 1.415 . S
C1092 C1091 1.355 . S
C1092 C1094 1.419 . S
C1093 C1088 1.425 1_556 S
C1093 C1090 1.409 1_556 S
C1093 C1091 1.415 . S
C1094 H1084 0.930 . S
C1094 C1092 1.419 . S
C1094 C1095 1.362 . S
C1095 H1085 0.930 . S
C1095 C1088 1.409 1_556 S
C1095 C1094 1.362 . S
H1096 C1102 0.930 . S
H1097 C1105 0.930 . S
H1098 C1106 0.930 . S
H1099 C1107 0.930 . S
H1100 C1110 0.930 . S
H1101 C1111 0.930 . S
C1102 H1096 0.930 . S
C1102 C1103 1.355 1_565 S
C1102 C1104 1.415 . S
C1103 C1102 1.355 1_545 S
C1103 C1105 1.419 . S
C1104 C1102 1.415 . S
C1104 C1109 1.425 1_566 S
C1104 C1111 1.409 1_556 S
C1105 H1097 0.930 . S
C1105 C1103 1.419 . S
C1105 C1106 1.362 . S
C1106 H1098 0.930 . S
C1106 C1105 1.362 . S
C1106 C1109 1.409 1_556 S
C1107 H1099 0.930 . S
C1107 C1108 1.355 1_545 S
C1107 C1109 1.415 . S
C1108 C1107 1.355 1_565 S
C1108 C1110 1.419 . S
C1109 C1104 1.425 1_544 S
C1109 C1106 1.409 1_554 S
C1109 C1107 1.415 . S
C1110 H1100 0.930 . S
C1110 C1108 1.419 . S
C1110 C1111 1.362 . S
C1111 H1101 0.930 . S
C1111 C1104 1.409 1_554 S
C1111 C1110 1.362 . S
H1112 C1118 0.930 . S
H1113 C1121 0.930 . S
H1114 C1122 0.930 . S
H1115 C1123 0.930 . S
H1116 C1126 0.930 . S
H1117 C1127 0.930 . S
C1118 H1112 0.930 . S
C1118 C1119 1.355 . S
C1118 C1120 1.415 . S
C1119 C1118 1.355 . S
C1119 C1121 1.419 1_655 S
C1120 C1118 1.415 . S
C1120 C1125 1.425 1_656 S
C1120 C1127 1.409 1_556 S
C1121 H1113 0.930 . S
C1121 C1119 1.419 1_455 S
C1121 C1122 1.362 . S
C1122 H1114 0.930 . S
C1122 C1121 1.362 . S
C1122 C1125 1.409 1_556 S
C1123 H1115 0.930 . S
C1123 C1124 1.355 . S
C1123 C1125 1.415 . S
C1124 C1123 1.355 . S
C1124 C1126 1.419 1_455 S
C1125 C1120 1.425 1_454 S
C1125 C1122 1.409 1_554 S
C1125 C1123 1.415 . S
C1126 H1116 0.930 . S
C1126 C1124 1.419 1_655 S
C1126 C1127 1.362 . S
C1127 H1117 0.930 . S
C1127 C1120 1.409 1_554 S
C1127 C1126 1.362 . S
H1128 C1134 0.930 . S
H1129 C1137 0.930 . S
H1130 C1138 0.930 . S
H1131 C1139 0.930 . S
H1132 C1142 0.930 . S
H1133 C1143 0.930 . S
C1134 H1128 0.930 . S
C1134 C1135 1.355 . S
C1134 C1136 1.415 . S
C1135 C1134 1.355 . S
C1135 C1137 1.419 . S
C1136 C1134 1.415 . S
C1136 C1141 1.425 . S
C1136 C1143 1.409 . S
C1137 H1129 0.930 . S
C1137 C1135 1.419 . S
C1137 C1138 1.362 . S
C1138 H1130 0.930 . S
C1138 C1137 1.362 . S
C1138 C1141 1.409 . S
C1139 H1131 0.930 . S
C1139 C1140 1.355 . S
C1139 C1141 1.415 . S
C1140 C1139 1.355 . S
C1140 C1142 1.419 . S
C1141 C1136 1.425 . S
C1141 C1138 1.409 . S
C1141 C1139 1.415 . S
C1142 H1132 0.930 . S
C1142 C1140 1.419 . S
C1142 C1143 1.362 . S
C1143 H1133 0.930 . S
C1143 C1136 1.409 . S
C1143 C1142 1.362 . S
H1144 C1150 0.930 . S
H1145 C1153 0.930 . S
H1146 C1154 0.930 . S
H1147 C1155 0.930 . S
H1148 C1158 0.930 . S
H1149 C1159 0.930 . S
C1150 H1144 0.930 . S
C1150 C1151 1.355 . S
C1150 C1152 1.415 . S
C1151 C1150 1.355 . S
C1151 C1153 1.419 . S
C1152 C1150 1.415 . S
C1152 C1157 1.425 . S
C1152 C1159 1.409 . S
C1153 H1145 0.930 . S
C1153 C1151 1.419 . S
C1153 C1154 1.362 . S
C1154 H1146 0.930 . S
C1154 C1153 1.362 . S
C1154 C1157 1.409 . S
C1155 H1147 0.930 . S
C1155 C1156 1.355 . S
C1155 C1157 1.415 . S
C1156 C1155 1.355 . S
C1156 C1158 1.419 . S
C1157 C1152 1.425 . S
C1157 C1154 1.409 . S
C1157 C1155 1.415 . S
C1158 H1148 0.930 . S
C1158 C1156 1.419 . S
C1158 C1159 1.362 . S
C1159 H1149 0.930 . S
C1159 C1152 1.409 . S
C1159 C1158 1.362 . S
H1160 C1166 0.930 . S
H1161 C1169 0.930 . S
H1162 C1170 0.930 . S
H1163 C1171 0.930 . S
H1164 C1174 0.930 . S
H1165 C1175 0.930 . S
C1166 H1160 0.930 . S
C1166 C1167 1.355 . S
C1166 C1168 1.415 . S
C1167 C1166 1.355 . S
C1167 C1169 1.419 . S
C1168 C1166 1.415 . S
C1168 C1173 1.425 . S
C1168 C1175 1.409 . S
C1169 H1161 0.930 . S
C1169 C1167 1.419 . S
C1169 C1170 1.362 . S
C1170 H1162 0.930 . S
C1170 C1169 1.362 . S
C1170 C1173 1.409 . S
C1171 H1163 0.930 . S
C1171 C1172 1.355 . S
C1171 C1173 1.415 . S
C1172 C1171 1.355 . S
C1172 C1174 1.419 . S
C1173 C1168 1.425 . S
C1173 C1170 1.409 . S
C1173 C1171 1.415 . S
C1174 H1164 0.930 . S
C1174 C1172 1.419 . S
C1174 C1175 1.362 . S
C1175 H1165 0.930 . S
C1175 C1168 1.409 . S
C1175 C1174 1.362 . S
H1176 C1182 0.930 . S
H1177 C1185 0.930 . S
H1178 C1186 0.930 . S
H1179 C1187 0.930 . S
H1180 C1190 0.930 . S
H1181 C1191 0.930 . S
C1182 H1176 0.930 . S
C1182 C1183 1.355 . S
C1182 C1184 1.415 . S
C1183 C1182 1.355 . S
C1183 C1185 1.419 . S
C1184 C1182 1.415 . S
C1184 C1189 1.425 . S
C1184 C1191 1.409 . S
C1185 H1177 0.930 . S
C1185 C1183 1.419 . S
C1185 C1186 1.362 . S
C1186 H1178 0.930 . S
C1186 C1185 1.362 . S
C1186 C1189 1.409 . S
C1187 H1179 0.930 . S
C1187 C1188 1.355 . S
C1187 C1189 1.415 . S
C1188 C1187 1.355 . S
C1188 C1190 1.419 . S
C1189 C1184 1.425 . S
C1189 C1186 1.409 . S
C1189 C1187 1.415 . S
C1190 H1180 0.930 . S
C1190 C1188 1.419 . S
C1190 C1191 1.362 . S
C1191 H1181 0.930 . S
C1191 C1184 1.409 . S
C1191 C1190 1.362 . S
H1192 C1198 0.930 . S
H1193 C1201 0.930 . S
H1194 C1202 0.930 . S
H1195 C1203 0.930 . S
H1196 C1206 0.930 . S
H1197 C1207 0.930 . S
C1198 H1192 0.930 . S
C1198 C1199 1.355 . S
C1198 C1200 1.415 . S
C1199 C1198 1.355 . S
C1199 C1201 1.419 . S
C1200 C1198 1.415 . S
C1200 C1205 1.425 . S
C1200 C1207 1.409 . S
C1201 H1193 0.930 . S
C1201 C1199 1.419 . S
C1201 C1202 1.362 . S
C1202 H1194 0.930 . S
C1202 C1201 1.362 . S
C1202 C1205 1.409 . S
C1203 H1195 0.930 . S
C1203 C1204 1.355 . S
C1203 C1205 1.415 . S
C1204 C1203 1.355 . S
C1204 C1206 1.419 . S
C1205 C1200 1.425 . S
C1205 C1202 1.409 . S
C1205 C1203 1.415 . S
C1206 H1196 0.930 . S
C1206 C1204 1.419 . S
C1206 C1207 1.362 . S
C1207 H1197 0.930 . S
C1207 C1200 1.409 . S
C1207 C1206 1.362 . S
H1208 C1214 0.930 . S
H1209 C1217 0.930 . S
H1210 C1218 0.930 . S
H1211 C1219 0.930 . S
H1212 C1222 0.930 . S
H1213 C1223 0.930 . S
C1214 H1208 0.930 . S
C1214 C1215 1.355 . S
C1214 C1216 1.415 . S
C1215 C1214 1.355 . S
C1215 C1217 1.419 . S
C1216 C1214 1.415 . S
C1216 C1221 1.425 . S
C1216 C1223 1.409 . S
C1217 H1209 0.930 . S
C1217 C1215 1.419 . S
C1217 C1218 1.362 . S
C1218 H1210 0.930 . S
C1218 C1217 1.362 . S
C1218 C1221 1.409 . S
C1219 H1211 0.930 . S
C1219 C1220 1.355 . S
C1219 C1221 1.415 . S
C1220 C1219 1.355 . S
C1220 C1222 1.419 . S
C1221 C1216 1.425 . S
C1221 C1218 1.409 . S
C1221 C1219 1.415 . S
C1222 H1212 0.930 . S
C1222 C1220 1.419 . S
C1222 C1223 1.362 . S
C1223 H1213 0.930 . S
C1223 C1216 1.409 . S
C1223 C1222 1.362 . S
C655 C364 1.128 . S
C660 C4 1.166 . S
C671 C40 1.124 . S
C676 C400 1.152 . S
C687 C328 1.158 . S
C692 C76 1.207 . S
C703 C508 1.187 . S
C708 C112 1.211 . S
C719 C148 1.124 . S
C724 C436 1.156 . S
C735 C472 1.204 . S
C740 C184 1.175 . S
C751 C220 1.139 . S
C756 C580 1.188 . S
C767 C616 1.140 . S
C772 C256 1.151 . S
C783 C292 1.184 . S
C788 C544 1.138 . S
C799 C3 1.054 . S
C804 C38 1.154 . S
C815 C39 1.136 . S
C820 C74 1.128 . S
C831 C2 1.153 . S
C836 C75 1.127 . S
C847 C182 1.136 . S
C852 C111 1.133 . S
C863 C110 1.165 . S
C868 C147 1.089 . S
C879 C183 1.059 . S
C884 C146 1.149 . S
C895 C219 1.075 . S
C900 C254 1.172 . S
C911 C255 1.150 . S
C916 C290 1.139 . S
C927 C218 1.159 . S
C932 C291 1.085 . S
C943 C398 1.149 . S
C948 C327 1.172 . S
C959 C326 1.131 . S
C964 C363 1.156 . S
C975 C362 1.140 . S
C980 C399 1.152 . S
C991 C470 1.149 . S
C996 C435 1.171 . S
C1007 C506 1.136 . S
C1012 C471 1.154 . S
C1023 C434 1.140 . S
C1028 C507 1.115 . S
C1039 C543 1.125 . S
C1044 C614 1.164 . S
C1055 C579 1.157 . S
C1060 C542 1.143 . S
C1071 C615 1.085 . S
C1076 C578 1.164 . S
C1087 C14 1.545 . S
C1092 C122 1.552 . S
C1103 C158 1.581 . S
C1108 C50 1.577 . S
C1119 C194 1.523 . S
C1124 C86 1.520 . S
C1135 C338 1.532 . S
C1140 C230 1.526 . S
C1151 C374 1.565 . S
C1156 C266 1.570 . S
C1167 C302 1.605 . S
C1172 C410 1.605 . S
C1183 C554 1.596 . S
C1188 C446 1.592 . S
C1199 C590 1.523 . S
C1204 C482 1.526 . S
C1215 C626 1.527 . S
C1220 C518 1.533 . S
