# Generated by pormake.
# Topology tfs, (6)-cn, num edge types: 1
# Building blocks:
#     Node 0, Type 0, BuildingBlock: CUWYAW_clean_sbu_0, # of connection points: 6
#     Node 1, Type 0, BuildingBlock: CUWYAW_clean_sbu_0, # of connection points: 6
#     Node 2, Type 0, BuildingBlock: CUWYAW_clean_sbu_0, # of connection points: 6
#     Node 3, Type 0, BuildingBlock: CUWYAW_clean_sbu_0, # of connection points: 6
#     Node 4, Type 0, BuildingBlock: CUWYAW_clean_sbu_0, # of connection points: 6
#     Node 5, Type 0, BuildingBlock: CUWYAW_clean_sbu_0, # of connection points: 6
#     Edge 6, Type (0, 0), BuildingBlock: XIVTED_clean_linker_0, # of connection points: 2
#     Edge 7, Type (0, 0), BuildingBlock: XIVTED_clean_linker_0, # of connection points: 2
#     Edge 8, Type (0, 0), BuildingBlock: XIVTED_clean_linker_0, # of connection points: 2
#     Edge 9, Type (0, 0), BuildingBlock: XIVTED_clean_linker_0, # of connection points: 2
#     Edge 10, Type (0, 0), BuildingBlock: XIVTED_clean_linker_0, # of connection points: 2
#     Edge 11, Type (0, 0), BuildingBlock: XIVTED_clean_linker_0, # of connection points: 2
#     Edge 12, Type (0, 0), BuildingBlock: XIVTED_clean_linker_0, # of connection points: 2
#     Edge 13, Type (0, 0), BuildingBlock: XIVTED_clean_linker_0, # of connection points: 2
#     Edge 14, Type (0, 0), BuildingBlock: XIVTED_clean_linker_0, # of connection points: 2
#     Edge 15, Type (0, 0), BuildingBlock: XIVTED_clean_linker_0, # of connection points: 2
#     Edge 16, Type (0, 0), BuildingBlock: XIVTED_clean_linker_0, # of connection points: 2
#     Edge 17, Type (0, 0), BuildingBlock: XIVTED_clean_linker_0, # of connection points: 2
#     Edge 18, Type (0, 0), BuildingBlock: XIVTED_clean_linker_0, # of connection points: 2
#     Edge 19, Type (0, 0), BuildingBlock: XIVTED_clean_linker_0, # of connection points: 2
#     Edge 20, Type (0, 0), BuildingBlock: XIVTED_clean_linker_0, # of connection points: 2
#     Edge 21, Type (0, 0), BuildingBlock: XIVTED_clean_linker_0, # of connection points: 2
#     Edge 22, Type (0, 0), BuildingBlock: XIVTED_clean_linker_0, # of connection points: 2
#     Edge 23, Type (0, 0), BuildingBlock: XIVTED_clean_linker_0, # of connection points: 2
# Relax obj value: 0.536
# Max RMSD: 0.289
# Mean RMSD: 0.289
data_MOF--net-tfs--node1-CUWYAW_clean_sbu_0--edge1-XIVTED_clean_linker_0
_symmetry_space_group_name_H-M    P1
_symmetry_Int_Tables_number       1
_symmetry_cell_setting            triclinic
loop_
_symmetry_equiv_pos_as_xyz
'x, y, z'
_cell_length_a     55.688379
_cell_length_b     55.672998
_cell_length_c     14.576002
_cell_angle_alpha  90.000891
_cell_angle_beta   89.98641
_cell_angle_gamma 119.92559
loop_
_atom_site_label
_atom_site_type_symbol
_atom_site_fract_x
_atom_site_fract_y
_atom_site_fract_z
_atom_type_partial_charge
C0 C 0.18881 0.36481 0.92024 0.0
Eu1 Eu 0.18048 0.40407 0.98172 0.0
C2 C 0.20957 0.35601 0.9305 0.0
C3 C 0.2254 0.36179 0.01084 0.0
C4 C 0.2445 0.35258 0.02035 0.0
C5 C 0.24827 0.33758 0.94944 0.0
C6 C 0.23255 0.3322 0.86861 0.0
C7 C 0.21337 0.34131 0.8594 0.0
C8 C 0.17992 0.4152 0.16258 0.0
C9 C 0.11573 0.38539 0.99451 0.0
C10 C 0.15445 0.48456 0.09226 0.0
Eu11 Eu 0.16322 0.44643 0.02303 0.0
C12 C 0.16446 0.51432 0.08239 0.0
C13 C 0.14814 0.525 0.11602 0.0
C14 C 0.15663 0.55304 0.10506 0.0
C15 C 0.18166 0.57094 0.06012 0.0
C16 C 0.19813 0.56015 0.02707 0.0
C17 C 0.18953 0.532 0.03786 0.0
C18 C 0.16499 0.43661 0.84107 0.0
C19 C 0.22944 0.46629 0.00883 0.0
O20 O 0.17385 0.36223 0.99273 0.0
O21 O 0.19672 0.38807 0.8763 0.0
O22 O 0.19822 0.41032 0.12542 0.0
O23 O 0.16203 0.41251 0.10437 0.0
O24 O 0.13444 0.38266 0.94689 0.0
O25 O 0.12336 0.40699 0.04839 0.0
O26 O 0.17164 0.47754 0.12802 0.0
O27 O 0.14067 0.46905 0.02249 0.0
O28 O 0.14728 0.44247 0.87717 0.0
O29 O 0.1821 0.43839 0.90076 0.0
O30 O 0.21016 0.47232 0.03358 0.0
O31 O 0.22313 0.44143 0.97885 0.0
H32 H 0.22282 0.37319 0.06654 0.0
H33 H 0.25597 0.35684 0.08394 0.0
H34 H 0.23523 0.32117 0.81197 0.0
H35 H 0.20144 0.3368 0.79669 0.0
H36 H 0.12871 0.5116 0.15053 0.0
H37 H 0.14368 0.56074 0.13255 0.0
H38 H 0.21738 0.57334 0.99144 0.0
H39 H 0.2023 0.524 0.01088 0.0
C40 C 0.82552 0.18625 0.93157 0.0
Eu41 Eu 0.77838 0.17932 0.9922 0.0
C42 C 0.85506 0.20734 0.93594 0.0
C43 C 0.86361 0.23492 0.95901 0.0
C44 C 0.89186 0.25453 0.96454 0.0
C45 C 0.91205 0.24687 0.94752 0.0
C46 C 0.90323 0.21914 0.92447 0.0
C47 C 0.87501 0.1996 0.91872 0.0
C48 C 0.76649 0.17959 0.17232 0.0
C49 C 0.7313 0.11469 0.00822 0.0
C50 C 0.67267 0.15682 0.09845 0.0
Eu51 Eu 0.71896 0.16327 0.03196 0.0
C52 C 0.65361 0.1677 0.08446 0.0
C53 C 0.6442 0.16938 0.9965 0.0
C54 C 0.62476 0.17809 0.98564 0.0
C55 C 0.61456 0.1855 0.06234 0.0
C56 C 0.62453 0.18443 0.14998 0.0
C57 C 0.6438 0.17551 0.16088 0.0
C58 C 0.73075 0.16442 0.85059 0.0
C59 C 0.7663 0.22921 0.01589 0.0
O60 O 0.8142 0.17374 0.00871 0.0
O61 O 0.80948 0.19255 0.88411 0.0
O62 O 0.7898 0.19757 0.13517 0.0
O63 O 0.75122 0.16161 0.1145 0.0
O64 O 0.7533 0.13295 0.9617 0.0
O65 O 0.71729 0.1229 0.05959 0.0
O66 O 0.69693 0.17379 0.13411 0.0
O67 O 0.67398 0.14147 0.03287 0.0
O68 O 0.707 0.14716 0.88639 0.0
O69 O 0.74616 0.18149 0.91015 0.0
O70 O 0.74094 0.21029 0.04103 0.0
O71 O 0.78457 0.2224 0.98659 0.0
H72 H 0.84845 0.24125 0.97287 0.0
H73 H 0.89786 0.27574 0.98139 0.0
H74 H 0.91812 0.21236 0.91243 0.0
H75 H 0.86875 0.17833 0.9015 0.0
H76 H 0.65159 0.16367 0.9362 0.0
H77 H 0.61773 0.17905 0.91717 0.0
H78 H 0.61689 0.18978 0.21046 0.0
H79 H 0.65073 0.1743 0.22931 0.0
C80 C 0.6365 0.82362 0.92951 0.0
Eu81 Eu 0.59727 0.77613 0.9915 0.0
C82 C 0.64538 0.85327 0.93751 0.0
C83 C 0.63957 0.86391 0.01641 0.0
C84 C 0.6491 0.89233 0.02397 0.0
C85 C 0.6645 0.91063 0.95255 0.0
C86 C 0.66986 0.89969 0.87309 0.0
C87 C 0.66042 0.87131 0.86581 0.0
C88 C 0.58587 0.76494 0.17264 0.0
C89 C 0.61651 0.73044 0.00767 0.0
C90 C 0.51707 0.66979 0.10186 0.0
Eu91 Eu 0.55542 0.71671 0.03363 0.0
C92 C 0.48736 0.65009 0.09026 0.0
C93 C 0.46963 0.65793 0.04825 0.0
C94 C 0.44154 0.63846 0.03596 0.0
C95 C 0.43082 0.61084 0.06491 0.0
C96 C 0.44876 0.60326 0.10734 0.0
C97 C 0.47674 0.62271 0.11984 0.0
C98 C 0.56548 0.72785 0.85133 0.0
C99 C 0.53495 0.76253 0.01713 0.0
O100 O 0.63888 0.81157 1.00323 0.0
O101 O 0.61341 0.80809 0.88515 0.0
O102 O 0.59043 0.78784 0.13415 0.0
O103 O 0.58893 0.74969 0.11548 0.0
O104 O 0.61907 0.75162 0.95887 0.0
O105 O 0.59491 0.71662 0.06159 0.0
O106 O 0.52389 0.69398 0.13734 0.0
O107 O 0.53301 0.67156 0.03337 0.0
O108 O 0.56 0.70456 0.88862 0.0
O109 O 0.56332 0.74321 0.91009 0.0
O110 O 0.52936 0.73756 0.04402 0.0
O111 O 0.55961 0.78101 0.9857 0.0
H112 H 0.62793 0.8503 0.07258 0.0
H113 H 0.64483 0.9 0.08656 0.0
H114 H 0.68119 0.91302 0.81606 0.0
H115 H 0.66499 0.86344 0.8042 0.0
H116 H 0.47755 0.67899 0.0244 0.0
H117 H 0.42833 0.6449 1.00231 0.0
H118 H 0.44113 0.5823 0.1317 0.0
H119 H 0.49015 0.61632 0.15239 0.0
C120 C 0.81364 0.63692 0.92207 0.0
Eu121 Eu 0.82135 0.59724 0.98364 0.0
C122 C 0.79306 0.64604 0.92881 0.0
C123 C 0.76569 0.62776 0.95603 0.0
C124 C 0.7466 0.63708 0.96323 0.0
C125 C 0.75458 0.66487 0.94371 0.0
C126 C 0.78211 0.68304 0.91666 0.0
C127 C 0.80112 0.67368 0.90926 0.0
C128 C 0.8219 0.58607 0.16447 0.0
C129 C 0.88613 0.61601 0.99707 0.0
C130 C 0.84764 0.51678 0.09338 0.0
Eu131 Eu 0.83876 0.55497 0.02505 0.0
C132 C 0.83817 0.48714 0.08241 0.0
C133 C 0.81282 0.46901 0.0402 0.0
C134 C 0.80471 0.44098 0.02886 0.0
C135 C 0.82193 0.43073 0.059 0.0
C136 C 0.84726 0.44909 0.10142 0.0
C137 C 0.85527 0.477 0.11294 0.0
C138 C 0.83682 0.56467 0.843 0.0
C139 C 0.77254 0.53516 0.01159 0.0
O140 O 0.82739 0.63891 0.99702 0.0
O141 O 0.80624 0.61389 0.87724 0.0
O142 O 0.8035 0.59079 0.12723 0.0
O143 O 0.83985 0.58886 0.10631 0.0
O144 O 0.86742 0.61864 0.94919 0.0
O145 O 0.8785 0.59444 0.05112 0.0
O146 O 0.83001 0.52332 0.12841 0.0
O147 O 0.86172 0.53275 0.02485 0.0
O148 O 0.85457 0.55887 0.87898 0.0
O149 O 0.81974 0.56289 0.90285 0.0
O150 O 0.79187 0.52938 0.03777 0.0
O151 O 0.77876 0.5598 0.97957 0.0
H152 H 0.75912 0.60632 0.97172 0.0
H153 H 0.72552 0.62243 0.98321 0.0
H154 H 0.78915 0.70465 0.9026 0.0
H155 H 0.82223 0.68812 0.8888 0.0
H156 H 0.79943 0.47656 0.0156 0.0
H157 H 0.78519 0.42746 0.99517 0.0
H158 H 0.86081 0.44182 0.12669 0.0
H159 H 0.87492 0.49073 0.14564 0.0
C160 C 0.17617 0.81491 0.92837 0.0
Eu161 Eu 0.22326 0.82167 0.98862 0.0
C162 C 0.14663 0.79389 0.9336 0.0
C163 C 0.13809 0.76637 0.95738 0.0
C164 C 0.10985 0.74681 0.96377 0.0
C165 C 0.08966 0.75449 0.94693 0.0
C166 C 0.09847 0.78217 0.92321 0.0
C167 C 0.12668 0.80165 0.91659 0.0
C168 C 0.23513 0.82145 0.16876 0.0
C169 C 0.27043 0.88619 1.0034 0.0
C170 C 0.32878 0.84377 0.09512 0.0
Eu171 Eu 0.28261 0.83753 0.02835 0.0
C172 C 0.34774 0.83275 0.08132 0.0
C173 C 0.35733 0.83121 0.99351 0.0
C174 C 0.37669 0.8224 0.98284 0.0
C175 C 0.38664 0.81473 0.0596 0.0
C176 C 0.37646 0.81563 0.14708 0.0
C177 C 0.35728 0.82466 0.15778 0.0
C178 C 0.27089 0.83635 0.84696 0.0
C179 C 0.23504 0.77166 0.01224 0.0
O180 O 0.18765 0.82759 1.00511 0.0
O181 O 0.19206 0.80839 0.88095 0.0
O182 O 0.21181 0.80349 0.13167 0.0
O183 O 0.25044 0.83938 0.11086 0.0
O184 O 0.24844 0.86788 0.95714 0.0
O185 O 0.28448 0.87807 0.05497 0.0
O186 O 0.30449 0.82692 0.13079 0.0
O187 O 0.32759 0.85916 0.02943 0.0
O188 O 0.29467 0.85353 0.88271 0.0
O189 O 0.25541 0.81934 0.90659 0.0
O190 O 0.26044 0.79048 0.03739 0.0
O191 O 0.21688 0.77859 0.98292 0.0
H192 H 0.15325 0.76003 0.97111 0.0
H193 H 0.10384 0.72563 0.98111 0.0
H194 H 0.08358 0.78896 0.9113 0.0
H195 H 0.13295 0.82289 0.89887 0.0
H196 H 0.35015 0.83713 0.93316 0.0
H197 H 0.38388 0.82157 0.91449 0.0
H198 H 0.38391 0.81009 0.20759 0.0
H199 H 0.35021 0.82576 0.2261 0.0
C200 C 0.36501 0.17713 0.93055 0.0
Eu201 Eu 0.40427 0.22459 0.99224 0.0
C202 C 0.35655 0.14761 0.93866 0.0
C203 C 0.36328 0.13736 0.0166 0.0
C204 C 0.35428 0.10907 0.02432 0.0
C205 C 0.33852 0.09051 0.95398 0.0
C206 C 0.33224 0.10106 0.87544 0.0
C207 C 0.34114 0.12932 0.86803 0.0
C208 C 0.41575 0.23581 0.17325 0.0
C209 C 0.38516 0.27043 0.00805 0.0
C210 C 0.48529 0.33053 0.10114 0.0
Eu211 Eu 0.44619 0.28395 0.03395 0.0
C212 C 0.51511 0.34985 0.08678 0.0
C213 C 0.52601 0.35944 0.99873 0.0
C214 C 0.5541 0.37883 0.98739 0.0
C215 C 0.57188 0.3888 0.06368 0.0
C216 C 0.56102 0.37872 0.15142 0.0
C217 C 0.53288 0.3595 0.16281 0.0
C218 C 0.43621 0.27283 0.85174 0.0
C219 C 0.4664 0.23785 0.01773 0.0
O220 O 0.36272 0.18909 1.00462 0.0
O221 O 0.38795 0.19279 0.88551 0.0
O222 O 0.41116 0.2129 0.13477 0.0
O223 O 0.41269 0.25108 0.11616 0.0
O224 O 0.3824 0.24901 0.96024 0.0
O225 O 0.4069 0.28448 0.06121 0.0
O226 O 0.47841 0.30634 0.13659 0.0
O227 O 0.46848 0.32897 0.03578 0.0
O228 O 0.44188 0.29619 0.88889 0.0
O229 O 0.43825 0.25741 0.91055 0.0
O230 O 0.47204 0.26284 0.04449 0.0
O231 O 0.44174 0.21943 0.98625 0.0
H232 H 0.37524 0.15119 0.07188 0.0
H233 H 0.35925 0.10169 0.08619 0.0
H234 H 0.32061 0.08752 0.81922 0.0
H235 H 0.3359 0.1369 0.80714 0.0
H236 H 0.51281 0.35216 0.9387 0.0
H237 H 0.56195 0.38594 0.91884 0.0
H238 H 0.57415 0.38619 0.21159 0.0
H239 H 0.52491 0.35242 0.2313 0.0
H240 H 0.33604 0.24539 0.9128 0.0
H241 H 0.29961 0.36412 0.03093 0.0
H242 H 0.38648 0.31575 0.08612 0.0
H243 H 0.24309 0.28817 0.89136 0.0
H244 H 0.33226 0.34724 0.04758 0.0
H245 H 0.30237 0.26128 0.89935 0.0
C246 C 0.34003 0.26414 0.94816 0.0
C247 C 0.36416 0.27925 1.00064 0.0
C248 C 0.3127 0.33424 0.0134 0.0
C249 C 0.32575 0.29762 0.9852 0.0
C250 C 0.29394 0.34381 1.00427 0.0
C251 C 0.26846 0.32757 0.95971 0.0
C252 C 0.30609 0.30825 0.97741 0.0
C253 C 0.26261 0.30163 0.92504 0.0
C254 C 0.32078 0.27319 0.94051 0.0
C255 C 0.36819 0.30339 0.04496 0.0
N256 N 0.28127 0.2928 0.93453 0.0
N257 N 0.34925 0.31185 0.036 0.0
H258 H 0.09098 0.34025 0.87982 0.0
H259 H 0.93818 0.28878 0.07363 0.0
H260 H 0.07251 0.38257 0.09258 0.0
H261 H 0.95476 0.25216 0.83839 0.0
H262 H 0.98759 0.32224 0.08498 0.0
H263 H 0.04148 0.3064 0.86796 0.0
C264 C 0.07656 0.34241 0.92418 0.0
C265 C 0.08595 0.36433 0.98722 0.0
C266 C 0.98043 0.3069 0.03078 0.0
C267 C 0.02927 0.32566 0.97398 0.0
C268 C 0.95214 0.28786 0.02387 0.0
C269 C 0.94215 0.26757 0.9548 0.0
C270 C 0.99903 0.3057 0.96838 0.0
C271 C 0.96146 0.26715 0.89352 0.0
C272 C 0.04829 0.32311 0.91722 0.0
C273 C 0.06627 0.36608 0.04281 0.0
N274 N 0.98892 0.2859 0.90178 0.0
N275 N 0.03892 0.34702 0.03492 0.0
H276 H 0.6852 0.07161 0.08584 0.0
H277 H 0.71449 0.95386 0.89436 0.0
H278 H 0.7558 0.08926 0.91673 0.0
H279 H 0.63868 0.93683 0.03017 0.0
H280 H 0.73112 0.00346 0.90778 0.0
H281 H 0.6693 0.02225 0.07332 0.0
C282 C 0.69743 0.06515 0.04616 0.0
C283 C 0.7219 0.08469 1.00215 0.0
C284 C 0.71084 0.98886 0.9346 0.0
C285 C 0.7037 0.02795 0.98754 0.0
C286 C 0.70123 0.96048 0.9265 0.0
C287 C 0.67504 0.94098 0.96095 0.0
C288 C 0.69425 0.99794 0.9778 0.0
C289 C 0.65912 0.95097 1.00362 0.0
C290 C 0.68828 0.03688 0.03891 0.0
C291 C 0.73681 0.07496 0.95169 0.0
N292 N 0.66896 0.97869 0.01078 0.0
N293 N 0.72748 0.04728 0.94581 0.0
H294 H 0.74896 0.70168 0.83243 0.0
H295 H 0.61996 0.69109 0.10983 0.0
H296 H 0.71421 0.65129 0.07448 0.0
H297 H 0.66078 0.74935 0.88953 0.0
H298 H 0.65363 0.67548 0.09489 0.0
H299 H 0.71628 0.7186 0.8494 0.0
C300 C 0.73458 0.69426 0.88948 0.0
C301 C 0.73444 0.675 0.95218 0.0
C302 C 0.65531 0.69173 0.04991 0.0
C303 C 0.69664 0.6941 0.97125 0.0
C304 C 0.63604 0.70067 0.05833 0.0
C305 C 0.6375 0.72157 1.00074 0.0
C306 C 0.67618 0.70362 0.98303 0.0
C307 C 0.65888 0.73321 0.93548 0.0
C308 C 0.71583 0.70386 0.89883 0.0
C309 C 0.71491 0.6658 0.02367 0.0
N310 N 0.67732 0.72401 0.92818 0.0
N311 N 0.69684 0.67542 0.03117 0.0
H312 H 0.06373 0.71291 0.07427 0.0
H313 H 0.91075 0.66102 0.88196 0.0
H314 H 0.04682 0.749 0.83829 0.0
H315 H 0.9294 0.61901 0.09526 0.0
H316 H 0.9602 0.6949 0.86959 0.0
H317 H 0.01432 0.67948 0.08667 0.0
C318 C 0.04969 0.71372 0.02459 0.0
C319 C 0.05958 0.73385 0.95497 0.0
C320 C 0.95345 0.67826 0.9191 0.0
C321 C 0.00274 0.69576 0.96974 0.0
C322 C 0.9252 0.65894 0.92635 0.0
C323 C 0.91588 0.63709 0.98966 0.0
C324 C 0.97252 0.6758 0.97583 0.0
C325 C 0.9356 0.63544 0.04528 0.0
C326 C 0.02142 0.6947 0.03209 0.0
C327 C 0.0402 0.73413 0.89381 0.0
N328 N 0.96293 0.65452 0.03709 0.0
N329 N 0.01275 0.71541 0.90264 0.0
H330 H 0.24503 0.91095 0.91413 0.0
H331 H 0.3658 0.06529 0.0277 0.0
H332 H 0.317 0.92972 0.0774 0.0
H333 H 0.28843 0.04666 0.9 0.0
H334 H 0.3489 0.0157 0.04173 0.0
H335 H 0.2613 0.96059 0.9027 0.0
C336 C 0.26423 0.92547 0.94765 0.0
C337 C 0.27966 0.91611 0.9968 0.0
C338 C 0.3356 0.02246 0.0107 0.0
C339 C 0.29846 0.97299 0.98368 0.0
C340 C 0.34519 0.05082 1.00308 0.0
C341 C 0.32855 0.0603 0.96259 0.0
C342 C 0.30919 0.0033 0.97731 0.0
C343 C 0.3022 0.04043 0.93044 0.0
C344 C 0.27349 0.95382 0.94118 0.0
C345 C 0.30438 0.93593 0.03888 0.0
N346 N 0.29337 0.01292 0.93841 0.0
N347 N 0.31302 0.96339 0.03113 0.0
H348 H 0.1844 0.72634 0.97378 0.0
H349 H 0.23363 0.61624 0.08065 0.0
H350 H 0.26744 0.74922 0.0585 0.0
H351 H 0.14952 0.59349 0.01201 0.0
H352 H 0.247 0.66511 0.0652 0.0
H353 H 0.17173 0.67759 0.98114 0.0
C354 C 0.2 0.72116 0.99381 0.0
C355 C 0.22703 0.74199 0.01569 0.0
C356 C 0.22562 0.64942 0.05342 0.0
C357 C 0.21262 0.6861 0.02418 0.0
C358 C 0.21801 0.62151 0.06167 0.0
C359 C 0.19037 0.60071 0.04805 0.0
C360 C 0.20548 0.65664 0.03105 0.0
C361 C 0.17097 0.60881 0.02458 0.0
C362 C 0.19273 0.69328 0.99804 0.0
C363 C 0.24633 0.73393 0.04121 0.0
N364 N 0.17888 0.63609 0.01693 0.0
N365 N 0.23874 0.70666 0.04477 0.0
H366 H 0.51772 0.26786 0.09587 0.0
H367 H 0.56799 0.16101 0.95498 0.0
H368 H 0.46589 0.19146 0.95065 0.0
H369 H 0.61212 0.22844 0.14519 0.0
H370 H 0.53213 0.174 0.94132 0.0
H371 H 0.55411 0.25568 0.10402 0.0
C372 C 0.51396 0.24852 0.06551 0.0
C373 C 0.48863 0.23064 0.02258 0.0
C374 C 0.54966 0.18596 0.98599 0.0
C375 C 0.53038 0.21662 0.0316 0.0
C376 C 0.57023 0.17869 0.99333 0.0
C377 C 0.59307 0.19367 0.05139 0.0
C378 C 0.55203 0.20852 0.03653 0.0
C379 C 0.59472 0.21615 0.10039 0.0
C380 C 0.53477 0.24157 0.07042 0.0
C381 C 0.48503 0.20586 0.98466 0.0
N382 N 0.57452 0.22292 0.09172 0.0
N383 N 0.50569 0.19961 0.98991 0.0
H384 H 0.40881 0.55694 0.00872 0.0
H385 H 0.25099 0.52081 0.05843 0.0
H386 H 0.38513 0.61685 0.08913 0.0
H387 H 0.27536 0.46194 0.97064 0.0
H388 H 0.29984 0.55644 0.06795 0.0
H389 H 0.35996 0.52212 0.99241 0.0
C390 C 0.39332 0.56276 0.02325 0.0
C391 C 0.40113 0.58985 0.05098 0.0
C392 C 0.29449 0.53574 0.04644 0.0
C393 C 0.34498 0.55002 0.03167 0.0
C394 C 0.26657 0.51533 0.04106 0.0
C395 C 0.25898 0.48824 0.01384 0.0
C396 C 0.31504 0.52906 0.02469 0.0
C397 C 0.28016 0.48249 0.99201 0.0
C398 C 0.3654 0.54288 0.01344 0.0
C399 C 0.38011 0.5963 0.067 0.0
N400 N 0.30717 0.50268 0.9981 0.0
N401 N 0.35301 0.5765 0.05755 0.0
H402 H 0.8544 0.4089 1.00651 0.0
H403 H 0.73356 0.25114 0.06305 0.0
H404 H 0.77057 0.38485 0.084 0.0
H405 H 0.8167 0.27495 0.97667 0.0
H406 H 0.74666 0.29995 0.06948 0.0
H407 H 0.8409 0.36001 0.99363 0.0
C408 C 0.83315 0.39333 0.02107 0.0
C409 C 0.81363 0.40104 0.04692 0.0
C410 C 0.76204 0.29452 0.04897 0.0
C411 C 0.79796 0.3449 0.0316 0.0
C412 C 0.75459 0.2666 0.04537 0.0
C413 C 0.77407 0.25884 0.01937 0.0
C414 C 0.78921 0.31496 0.02668 0.0
C415 C 0.80098 0.2799 0.99709 0.0
C416 C 0.82543 0.3654 0.01323 0.0
C417 C 0.78627 0.37992 0.06318 0.0
N418 N 0.80775 0.30697 1.00144 0.0
N419 N 0.77929 0.35285 0.05566 0.0
H420 H 0.43349 0.83943 0.95361 0.0
H421 H 0.48329 0.7321 0.09286 0.0
H422 H 0.38877 0.77151 0.14168 0.0
H423 H 0.53561 0.8091 0.95137 0.0
H424 H 0.44682 0.7442 0.10045 0.0
H425 H 0.46933 0.82642 0.94035 0.0
C426 C 0.43111 0.82164 0.99155 0.0
C427 C 0.40811 0.80653 0.0489 0.0
C428 C 0.46629 0.75846 0.0678 0.0
C429 C 0.44914 0.79164 0.03451 0.0
C430 C 0.48714 0.75156 0.06325 0.0
C431 C 0.51264 0.76965 0.02156 0.0
C432 C 0.4708 0.78356 0.02986 0.0
C433 C 0.51635 0.79456 0.98443 0.0
C434 C 0.45167 0.81435 0.98446 0.0
C435 C 0.40629 0.7839 0.09743 0.0
N436 N 0.49564 0.80075 0.98932 0.0
N437 N 0.42649 0.77711 0.089 0.0
H438 H 0.75114 0.4836 0.08852 0.0
H439 H 0.594 0.43557 0.95719 0.0
H440 H 0.72671 0.53639 0.94832 0.0
H441 H 0.61722 0.39055 0.14418 0.0
H442 H 0.64287 0.47094 0.94181 0.0
H443 H 0.7025 0.44765 0.09885 0.0
C444 C 0.73558 0.48766 0.05975 0.0
C445 C 0.74309 0.51314 0.0176 0.0
C446 C 0.63728 0.45332 0.98618 0.0
C447 C 0.68725 0.4719 0.02906 0.0
C448 C 0.60941 0.43303 0.9945 0.0
C449 C 0.60153 0.41008 0.05212 0.0
C450 C 0.65747 0.45056 0.03525 0.0
C451 C 0.62235 0.40805 0.09977 0.0
C452 C 0.70778 0.4671 0.06588 0.0
C453 C 0.72193 0.51713 0.98164 0.0
N454 N 0.64935 0.42798 0.09012 0.0
N455 N 0.695 0.49671 0.98805 0.0
H456 H 0.2051 0.43082 0.75193 0.0
H457 H 0.1408 0.42234 0.25208 0.0
H458 H 0.13081 0.43492 0.70416 0.0
H459 H 0.21448 0.41702 0.2989 0.0
H460 H 0.13716 0.42757 0.41741 0.0
H461 H 0.20913 0.42595 0.58641 0.0
C462 C 0.1896 0.43061 0.70654 0.0
C463 C 0.16758 0.43325 0.74163 0.0
C464 C 0.15414 0.42528 0.39166 0.0
C465 C 0.17209 0.42784 0.55224 0.0
C466 C 0.15623 0.42231 0.29727 0.0
C467 C 0.17791 0.41915 0.26196 0.0
C468 C 0.1739 0.42509 0.45127 0.0
C469 C 0.19739 0.41934 0.32343 0.0
C470 C 0.19193 0.42789 0.61206 0.0
C471 C 0.14814 0.43297 0.67986 0.0
N472 N 0.19491 0.42221 0.41509 0.0
N473 N 0.15085 0.43034 0.58825 0.0
H474 H 0.77683 0.20416 0.76171 0.0
H475 H 0.72002 0.14104 0.26168 0.0
H476 H 0.69794 0.13068 0.71363 0.0
H477 H 0.79953 0.21387 0.30852 0.0
H478 H 0.71128 0.13737 0.42702 0.0
H479 H 0.78556 0.20837 0.59612 0.0
C480 C 0.7614 0.18887 0.71623 0.0
C481 C 0.73665 0.16703 0.75121 0.0
C482 C 0.73064 0.15418 0.40127 0.0
C483 C 0.74635 0.17175 0.56184 0.0
C484 C 0.73561 0.15629 0.30689 0.0
C485 C 0.76057 0.17773 0.27161 0.0
C486 C 0.75079 0.17367 0.46089 0.0
C487 C 0.78004 0.19698 0.33306 0.0
C488 C 0.76634 0.1913 0.62173 0.0
C489 C 0.71728 0.14785 0.68938 0.0
N490 N 0.77477 0.19447 0.42475 0.0
N491 N 0.72253 0.15067 0.59775 0.0
H492 H 0.56792 0.69512 0.71684 0.0
H493 H 0.58314 0.79789 0.30638 0.0
H494 H 0.57029 0.77294 0.75878 0.0
H495 H 0.58008 0.71967 0.2658 0.0
H496 H 0.57822 0.78915 0.47192 0.0
H497 H 0.57243 0.70385 0.55153 0.0
C498 C 0.56943 0.71408 0.69114 0.0
C499 C 0.56872 0.73333 0.7515 0.0
C500 C 0.5786 0.77388 0.42691 0.0
C501 C 0.57387 0.74351 0.56215 0.0
C502 C 0.58139 0.77885 0.3324 0.0
C503 C 0.58211 0.75951 0.27243 0.0
C504 C 0.57651 0.74937 0.4618 0.0
C505 C 0.57969 0.73516 0.30971 0.0
C506 C 0.57199 0.71906 0.59672 0.0
C507 C 0.57081 0.75758 0.71457 0.0
N508 N 0.57705 0.73081 0.40194 0.0
N509 N 0.57326 0.76197 0.62229 0.0
H510 H 0.79659 0.5703 0.75393 0.0
H511 H 0.8611 0.5791 0.25406 0.0
H512 H 0.87101 0.56645 0.70601 0.0
H513 H 0.78718 0.58399 0.30072 0.0
H514 H 0.8647 0.57384 0.41937 0.0
H515 H 0.79253 0.57513 0.58837 0.0
C516 C 0.81211 0.57055 0.7085 0.0
C517 C 0.83418 0.56799 0.74356 0.0
C518 C 0.84767 0.57604 0.3936 0.0
C519 C 0.82964 0.57336 0.55416 0.0
C520 C 0.84561 0.57903 0.29921 0.0
C521 C 0.82387 0.58209 0.26385 0.0
C522 C 0.82783 0.57611 0.45317 0.0
C523 C 0.80431 0.58176 0.32529 0.0
C524 C 0.80976 0.57324 0.61401 0.0
C525 C 0.85365 0.56833 0.68174 0.0
N526 N 0.80678 0.57888 0.41695 0.0
N527 N 0.85092 0.57094 0.59014 0.0
H528 H 0.28167 0.85988 0.25807 0.0
H529 H 0.22469 0.79678 0.75814 0.0
H530 H 0.20202 0.78721 0.30498 0.0
H531 H 0.3038 0.87 0.70998 0.0
H532 H 0.21596 0.79265 0.59255 0.0
H533 H 0.29041 0.86349 0.42341 0.0
C534 C 0.26604 0.84466 0.3033 0.0
C535 C 0.24105 0.82328 0.26804 0.0
C536 C 0.23523 0.80964 0.61815 0.0
C537 C 0.25083 0.82726 0.4573 0.0
C538 C 0.24017 0.81203 0.71264 0.0
C539 C 0.26499 0.83378 0.74759 0.0
C540 C 0.25527 0.82914 0.55824 0.0
C541 C 0.28441 0.8529 0.68574 0.0
C542 C 0.27101 0.84672 0.39767 0.0
C543 C 0.22155 0.80405 0.32951 0.0
N544 N 0.27915 0.85013 0.59412 0.0
N545 N 0.22682 0.80652 0.42117 0.0
H546 H 0.43411 0.30573 0.71727 0.0
H547 H 0.41834 0.20277 0.30688 0.0
H548 H 0.43115 0.22763 0.75926 0.0
H549 H 0.42181 0.28118 0.26637 0.0
H550 H 0.42333 0.2115 0.47239 0.0
H551 H 0.42963 0.29703 0.55197 0.0
C552 C 0.43248 0.28671 0.69158 0.0
C553 C 0.43301 0.26737 0.75193 0.0
C554 C 0.42303 0.22682 0.4274 0.0
C555 C 0.4279 0.25723 0.56262 0.0
C556 C 0.4202 0.22186 0.33291 0.0
C557 C 0.41956 0.24124 0.27299 0.0
C558 C 0.42524 0.25138 0.4623 0.0
C559 C 0.42212 0.26564 0.31026 0.0
C560 C 0.42994 0.28176 0.59717 0.0
C561 C 0.43078 0.24306 0.71504 0.0
N562 N 0.4248 0.26999 0.40247 0.0
N563 N 0.42834 0.23869 0.62275 0.0
loop_
_geom_bond_atom_site_label_1
_geom_bond_atom_site_label_2
_geom_bond_distance
_geom_bond_site_symmetry_2
_ccdc_geom_bond_type
C0 Eu1 2.835 1_556 S
C0 C2 1.500 . S
C0 O20 1.257 . S
C0 O21 1.260 1_556 S
Eu1 C0 2.835 1_554 S
Eu1 O20 2.473 1_554 S
Eu1 O21 2.480 . S
Eu1 O22 2.430 . S
Eu1 O23 2.670 . S
Eu1 O24 2.394 . S
Eu1 O29 2.355 1_554 S
Eu1 O31 2.374 . S
C2 C0 1.500 . S
C2 C3 1.377 1_556 S
C2 C7 1.377 . S
C3 C2 1.377 1_554 S
C3 C4 1.395 . S
C3 H32 0.931 . S
C4 C3 1.395 . S
C4 C5 1.383 1_554 S
C4 H33 0.931 . S
C5 C4 1.383 1_556 S
C5 C6 1.394 . S
C6 C5 1.394 . S
C6 C7 1.378 . S
C6 H34 0.931 . S
C7 C2 1.377 . S
C7 C6 1.378 . S
C7 H35 0.931 . S
C8 O22 1.259 . S
C8 O23 1.270 . S
C9 O24 1.251 . S
C9 O25 1.251 . S
C10 Eu11 2.835 1_554 S
C10 C12 1.500 . S
C10 O26 1.257 . S
C10 O27 1.260 1_554 S
Eu11 C10 2.835 1_556 S
Eu11 O23 2.355 1_556 S
Eu11 O25 2.374 1_556 S
Eu11 O26 2.473 1_556 S
Eu11 O27 2.480 . S
Eu11 O28 2.430 . S
Eu11 O29 2.670 . S
Eu11 O30 2.394 . S
C12 C10 1.500 . S
C12 C13 1.377 1_554 S
C12 C17 1.377 . S
C13 C12 1.377 1_556 S
C13 C14 1.395 . S
C13 H36 0.931 . S
C14 C13 1.395 . S
C14 C15 1.383 1_556 S
C14 H37 0.931 . S
C15 C14 1.383 1_554 S
C15 C16 1.394 . S
C16 C15 1.394 . S
C16 C17 1.378 . S
C16 H38 0.931 . S
C17 C12 1.377 . S
C17 C16 1.378 . S
C17 H39 0.931 . S
C18 O28 1.259 . S
C18 O29 1.270 . S
C19 O30 1.251 . S
C19 O31 1.251 1_556 S
O20 C0 1.257 . S
O20 Eu1 2.473 1_556 S
O21 C0 1.260 1_554 S
O21 Eu1 2.480 . S
O22 Eu1 2.430 . S
O22 C8 1.259 . S
O23 Eu1 2.670 . S
O23 C8 1.270 . S
O23 Eu11 2.355 1_554 S
O24 Eu1 2.394 . S
O24 C9 1.251 . S
O25 C9 1.251 . S
O25 Eu11 2.374 1_554 S
O26 C10 1.257 . S
O26 Eu11 2.473 1_554 S
O27 C10 1.260 1_556 S
O27 Eu11 2.480 . S
O28 Eu11 2.430 . S
O28 C18 1.259 . S
O29 Eu1 2.355 1_556 S
O29 Eu11 2.670 . S
O29 C18 1.270 . S
O30 Eu11 2.394 . S
O30 C19 1.251 . S
O31 Eu1 2.374 . S
O31 C19 1.251 1_554 S
H32 C3 0.931 . S
H33 C4 0.931 . S
H34 C6 0.931 . S
H35 C7 0.931 . S
H36 C13 0.931 . S
H37 C14 0.931 . S
H38 C16 0.931 . S
H39 C17 0.931 . S
C40 Eu41 2.835 1_556 S
C40 C42 1.500 . S
C40 O60 1.257 . S
C40 O61 1.260 1_556 S
Eu41 C40 2.835 1_554 S
Eu41 O60 2.473 1_554 S
Eu41 O61 2.480 . S
Eu41 O62 2.430 . S
Eu41 O63 2.670 . S
Eu41 O64 2.394 . S
Eu41 O69 2.355 1_554 S
Eu41 O71 2.374 . S
C42 C40 1.500 . S
C42 C43 1.377 1_556 S
C42 C47 1.377 . S
C43 C42 1.377 1_554 S
C43 C44 1.395 . S
C43 H72 0.931 . S
C44 C43 1.395 . S
C44 C45 1.383 1_554 S
C44 H73 0.931 . S
C45 C44 1.383 1_556 S
C45 C46 1.394 . S
C46 C45 1.394 . S
C46 C47 1.378 . S
C46 H74 0.931 . S
C47 C42 1.377 . S
C47 C46 1.378 . S
C47 H75 0.931 . S
C48 O62 1.259 . S
C48 O63 1.270 . S
C49 O64 1.251 . S
C49 O65 1.251 . S
C50 Eu51 2.835 1_554 S
C50 C52 1.500 . S
C50 O66 1.257 . S
C50 O67 1.260 1_554 S
Eu51 C50 2.835 1_556 S
Eu51 O63 2.355 1_556 S
Eu51 O65 2.374 1_556 S
Eu51 O66 2.473 1_556 S
Eu51 O67 2.480 . S
Eu51 O68 2.430 . S
Eu51 O69 2.670 . S
Eu51 O70 2.394 . S
C52 C50 1.500 . S
C52 C53 1.377 1_554 S
C52 C57 1.377 . S
C53 C52 1.377 1_556 S
C53 C54 1.395 . S
C53 H76 0.931 . S
C54 C53 1.395 . S
C54 C55 1.383 1_556 S
C54 H77 0.931 . S
C55 C54 1.383 1_554 S
C55 C56 1.394 . S
C56 C55 1.394 . S
C56 C57 1.378 . S
C56 H78 0.931 . S
C57 C52 1.377 . S
C57 C56 1.378 . S
C57 H79 0.931 . S
C58 O68 1.259 . S
C58 O69 1.270 . S
C59 O70 1.251 . S
C59 O71 1.251 1_556 S
O60 C40 1.257 . S
O60 Eu41 2.473 1_556 S
O61 C40 1.260 1_554 S
O61 Eu41 2.480 . S
O62 Eu41 2.430 . S
O62 C48 1.259 . S
O63 Eu41 2.670 . S
O63 C48 1.270 . S
O63 Eu51 2.355 1_554 S
O64 Eu41 2.394 . S
O64 C49 1.251 . S
O65 C49 1.251 . S
O65 Eu51 2.374 1_554 S
O66 C50 1.257 . S
O66 Eu51 2.473 1_554 S
O67 C50 1.260 1_556 S
O67 Eu51 2.480 . S
O68 Eu51 2.430 . S
O68 C58 1.259 . S
O69 Eu41 2.355 1_556 S
O69 Eu51 2.670 . S
O69 C58 1.270 . S
O70 Eu51 2.394 . S
O70 C59 1.251 . S
O71 Eu41 2.374 . S
O71 C59 1.251 1_554 S
H72 C43 0.931 . S
H73 C44 0.931 . S
H74 C46 0.931 . S
H75 C47 0.931 . S
H76 C53 0.931 . S
H77 C54 0.931 . S
H78 C56 0.931 . S
H79 C57 0.931 . S
C80 Eu81 2.835 1_556 S
C80 C82 1.500 . S
C80 O100 1.257 . S
C80 O101 1.260 1_556 S
Eu81 C80 2.835 1_554 S
Eu81 O100 2.473 1_554 S
Eu81 O101 2.480 . S
Eu81 O102 2.430 . S
Eu81 O103 2.670 . S
Eu81 O104 2.394 . S
Eu81 O109 2.355 1_554 S
Eu81 O111 2.374 . S
C82 C80 1.500 . S
C82 C83 1.377 1_556 S
C82 C87 1.377 . S
C83 C82 1.377 1_554 S
C83 C84 1.395 . S
C83 H112 0.931 . S
C84 C83 1.395 . S
C84 C85 1.383 1_554 S
C84 H113 0.931 . S
C85 C84 1.383 1_556 S
C85 C86 1.394 . S
C86 C85 1.394 . S
C86 C87 1.378 . S
C86 H114 0.931 . S
C87 C82 1.377 . S
C87 C86 1.378 . S
C87 H115 0.931 . S
C88 O102 1.259 . S
C88 O103 1.270 . S
C89 O104 1.251 . S
C89 O105 1.251 . S
C90 Eu91 2.835 1_554 S
C90 C92 1.500 . S
C90 O106 1.257 . S
C90 O107 1.260 1_554 S
Eu91 C90 2.835 1_556 S
Eu91 O103 2.355 1_556 S
Eu91 O105 2.374 1_556 S
Eu91 O106 2.473 1_556 S
Eu91 O107 2.480 . S
Eu91 O108 2.430 . S
Eu91 O109 2.670 . S
Eu91 O110 2.394 . S
C92 C90 1.500 . S
C92 C93 1.377 1_554 S
C92 C97 1.377 . S
C93 C92 1.377 1_556 S
C93 C94 1.395 . S
C93 H116 0.931 . S
C94 C93 1.395 . S
C94 C95 1.383 1_556 S
C94 H117 0.931 . S
C95 C94 1.383 1_554 S
C95 C96 1.394 . S
C96 C95 1.394 . S
C96 C97 1.378 . S
C96 H118 0.931 . S
C97 C92 1.377 . S
C97 C96 1.378 . S
C97 H119 0.931 . S
C98 O108 1.259 . S
C98 O109 1.270 . S
C99 O110 1.251 . S
C99 O111 1.251 1_556 S
O100 C80 1.257 . S
O100 Eu81 2.473 1_556 S
O101 C80 1.260 1_554 S
O101 Eu81 2.480 . S
O102 Eu81 2.430 . S
O102 C88 1.259 . S
O103 Eu81 2.670 . S
O103 C88 1.270 . S
O103 Eu91 2.355 1_554 S
O104 Eu81 2.394 . S
O104 C89 1.251 . S
O105 C89 1.251 . S
O105 Eu91 2.374 1_554 S
O106 C90 1.257 . S
O106 Eu91 2.473 1_554 S
O107 C90 1.260 1_556 S
O107 Eu91 2.480 . S
O108 Eu91 2.430 . S
O108 C98 1.259 . S
O109 Eu81 2.355 1_556 S
O109 Eu91 2.670 . S
O109 C98 1.270 . S
O110 Eu91 2.394 . S
O110 C99 1.251 . S
O111 Eu81 2.374 . S
O111 C99 1.251 1_554 S
H112 C83 0.931 . S
H113 C84 0.931 . S
H114 C86 0.931 . S
H115 C87 0.931 . S
H116 C93 0.931 . S
H117 C94 0.931 . S
H118 C96 0.931 . S
H119 C97 0.931 . S
C120 Eu121 2.835 1_556 S
C120 C122 1.500 . S
C120 O140 1.257 . S
C120 O141 1.260 1_556 S
Eu121 C120 2.835 1_554 S
Eu121 O140 2.473 1_554 S
Eu121 O141 2.480 . S
Eu121 O142 2.430 . S
Eu121 O143 2.670 . S
Eu121 O144 2.394 . S
Eu121 O149 2.355 1_554 S
Eu121 O151 2.374 . S
C122 C120 1.500 . S
C122 C123 1.377 1_556 S
C122 C127 1.377 . S
C123 C122 1.377 1_554 S
C123 C124 1.395 . S
C123 H152 0.931 . S
C124 C123 1.395 . S
C124 C125 1.383 1_554 S
C124 H153 0.931 . S
C125 C124 1.383 1_556 S
C125 C126 1.394 . S
C126 C125 1.394 . S
C126 C127 1.378 . S
C126 H154 0.931 . S
C127 C122 1.377 . S
C127 C126 1.378 . S
C127 H155 0.931 . S
C128 O142 1.259 . S
C128 O143 1.270 . S
C129 O144 1.251 . S
C129 O145 1.251 . S
C130 Eu131 2.835 1_554 S
C130 C132 1.500 . S
C130 O146 1.257 . S
C130 O147 1.260 1_554 S
Eu131 C130 2.835 1_556 S
Eu131 O143 2.355 1_556 S
Eu131 O145 2.374 1_556 S
Eu131 O146 2.473 1_556 S
Eu131 O147 2.480 . S
Eu131 O148 2.430 . S
Eu131 O149 2.670 . S
Eu131 O150 2.394 . S
C132 C130 1.500 . S
C132 C133 1.377 1_554 S
C132 C137 1.377 . S
C133 C132 1.377 1_556 S
C133 C134 1.395 . S
C133 H156 0.931 . S
C134 C133 1.395 . S
C134 C135 1.383 1_556 S
C134 H157 0.931 . S
C135 C134 1.383 1_554 S
C135 C136 1.394 . S
C136 C135 1.394 . S
C136 C137 1.378 . S
C136 H158 0.931 . S
C137 C132 1.377 . S
C137 C136 1.378 . S
C137 H159 0.931 . S
C138 O148 1.259 . S
C138 O149 1.270 . S
C139 O150 1.251 . S
C139 O151 1.251 1_556 S
O140 C120 1.257 . S
O140 Eu121 2.473 1_556 S
O141 C120 1.260 1_554 S
O141 Eu121 2.480 . S
O142 Eu121 2.430 . S
O142 C128 1.259 . S
O143 Eu121 2.670 . S
O143 C128 1.270 . S
O143 Eu131 2.355 1_554 S
O144 Eu121 2.394 . S
O144 C129 1.251 . S
O145 C129 1.251 . S
O145 Eu131 2.374 1_554 S
O146 C130 1.257 . S
O146 Eu131 2.473 1_554 S
O147 C130 1.260 1_556 S
O147 Eu131 2.480 . S
O148 Eu131 2.430 . S
O148 C138 1.259 . S
O149 Eu121 2.355 1_556 S
O149 Eu131 2.670 . S
O149 C138 1.270 . S
O150 Eu131 2.394 . S
O150 C139 1.251 . S
O151 Eu121 2.374 . S
O151 C139 1.251 1_554 S
H152 C123 0.931 . S
H153 C124 0.931 . S
H154 C126 0.931 . S
H155 C127 0.931 . S
H156 C133 0.931 . S
H157 C134 0.931 . S
H158 C136 0.931 . S
H159 C137 0.931 . S
C160 Eu161 2.835 1_556 S
C160 C162 1.500 . S
C160 O180 1.257 . S
C160 O181 1.260 1_556 S
Eu161 C160 2.835 1_554 S
Eu161 O180 2.473 1_554 S
Eu161 O181 2.480 . S
Eu161 O182 2.430 . S
Eu161 O183 2.670 . S
Eu161 O184 2.394 . S
Eu161 O189 2.355 1_554 S
Eu161 O191 2.374 . S
C162 C160 1.500 . S
C162 C163 1.377 1_556 S
C162 C167 1.377 . S
C163 C162 1.377 1_554 S
C163 C164 1.395 . S
C163 H192 0.931 . S
C164 C163 1.395 . S
C164 C165 1.383 1_554 S
C164 H193 0.931 . S
C165 C164 1.383 1_556 S
C165 C166 1.394 . S
C166 C165 1.394 . S
C166 C167 1.378 . S
C166 H194 0.931 . S
C167 C162 1.377 . S
C167 C166 1.378 . S
C167 H195 0.931 . S
C168 O182 1.259 . S
C168 O183 1.270 . S
C169 O184 1.251 . S
C169 O185 1.251 . S
C170 Eu171 2.835 1_554 S
C170 C172 1.500 . S
C170 O186 1.257 . S
C170 O187 1.260 1_554 S
Eu171 C170 2.835 1_556 S
Eu171 O183 2.355 1_556 S
Eu171 O185 2.374 1_556 S
Eu171 O186 2.473 1_556 S
Eu171 O187 2.480 . S
Eu171 O188 2.430 . S
Eu171 O189 2.670 . S
Eu171 O190 2.394 . S
C172 C170 1.500 . S
C172 C173 1.377 1_554 S
C172 C177 1.377 . S
C173 C172 1.377 1_556 S
C173 C174 1.395 . S
C173 H196 0.931 . S
C174 C173 1.395 . S
C174 C175 1.383 1_556 S
C174 H197 0.931 . S
C175 C174 1.383 1_554 S
C175 C176 1.394 . S
C176 C175 1.394 . S
C176 C177 1.378 . S
C176 H198 0.931 . S
C177 C172 1.377 . S
C177 C176 1.378 . S
C177 H199 0.931 . S
C178 O188 1.259 . S
C178 O189 1.270 . S
C179 O190 1.251 . S
C179 O191 1.251 1_556 S
O180 C160 1.257 . S
O180 Eu161 2.473 1_556 S
O181 C160 1.260 1_554 S
O181 Eu161 2.480 . S
O182 Eu161 2.430 . S
O182 C168 1.259 . S
O183 Eu161 2.670 . S
O183 C168 1.270 . S
O183 Eu171 2.355 1_554 S
O184 Eu161 2.394 . S
O184 C169 1.251 . S
O185 C169 1.251 . S
O185 Eu171 2.374 1_554 S
O186 C170 1.257 . S
O186 Eu171 2.473 1_554 S
O187 C170 1.260 1_556 S
O187 Eu171 2.480 . S
O188 Eu171 2.430 . S
O188 C178 1.259 . S
O189 Eu161 2.355 1_556 S
O189 Eu171 2.670 . S
O189 C178 1.270 . S
O190 Eu171 2.394 . S
O190 C179 1.251 . S
O191 Eu161 2.374 . S
O191 C179 1.251 1_554 S
H192 C163 0.931 . S
H193 C164 0.931 . S
H194 C166 0.931 . S
H195 C167 0.931 . S
H196 C173 0.931 . S
H197 C174 0.931 . S
H198 C176 0.931 . S
H199 C177 0.931 . S
C200 Eu201 2.835 1_556 S
C200 C202 1.500 . S
C200 O220 1.257 . S
C200 O221 1.260 1_556 S
Eu201 C200 2.835 1_554 S
Eu201 O220 2.473 1_554 S
Eu201 O221 2.480 . S
Eu201 O222 2.430 . S
Eu201 O223 2.670 . S
Eu201 O224 2.394 . S
Eu201 O229 2.355 1_554 S
Eu201 O231 2.374 . S
C202 C200 1.500 . S
C202 C203 1.377 1_556 S
C202 C207 1.377 . S
C203 C202 1.377 1_554 S
C203 C204 1.395 . S
C203 H232 0.931 . S
C204 C203 1.395 . S
C204 C205 1.383 1_554 S
C204 H233 0.931 . S
C205 C204 1.383 1_556 S
C205 C206 1.394 . S
C206 C205 1.394 . S
C206 C207 1.378 . S
C206 H234 0.931 . S
C207 C202 1.377 . S
C207 C206 1.378 . S
C207 H235 0.931 . S
C208 O222 1.259 . S
C208 O223 1.270 . S
C209 O224 1.251 . S
C209 O225 1.251 . S
C210 Eu211 2.835 1_554 S
C210 C212 1.500 . S
C210 O226 1.257 . S
C210 O227 1.260 1_554 S
Eu211 C210 2.835 1_556 S
Eu211 O223 2.355 1_556 S
Eu211 O225 2.374 1_556 S
Eu211 O226 2.473 1_556 S
Eu211 O227 2.480 . S
Eu211 O228 2.430 . S
Eu211 O229 2.670 . S
Eu211 O230 2.394 . S
C212 C210 1.500 . S
C212 C213 1.377 1_554 S
C212 C217 1.377 . S
C213 C212 1.377 1_556 S
C213 C214 1.395 . S
C213 H236 0.931 . S
C214 C213 1.395 . S
C214 C215 1.383 1_556 S
C214 H237 0.931 . S
C215 C214 1.383 1_554 S
C215 C216 1.394 . S
C216 C215 1.394 . S
C216 C217 1.378 . S
C216 H238 0.931 . S
C217 C212 1.377 . S
C217 C216 1.378 . S
C217 H239 0.931 . S
C218 O228 1.259 . S
C218 O229 1.270 . S
C219 O230 1.251 . S
C219 O231 1.251 1_556 S
O220 C200 1.257 . S
O220 Eu201 2.473 1_556 S
O221 C200 1.260 1_554 S
O221 Eu201 2.480 . S
O222 Eu201 2.430 . S
O222 C208 1.259 . S
O223 Eu201 2.670 . S
O223 C208 1.270 . S
O223 Eu211 2.355 1_554 S
O224 Eu201 2.394 . S
O224 C209 1.251 . S
O225 C209 1.251 . S
O225 Eu211 2.374 1_554 S
O226 C210 1.257 . S
O226 Eu211 2.473 1_554 S
O227 C210 1.260 1_556 S
O227 Eu211 2.480 . S
O228 Eu211 2.430 . S
O228 C218 1.259 . S
O229 Eu201 2.355 1_556 S
O229 Eu211 2.670 . S
O229 C218 1.270 . S
O230 Eu211 2.394 . S
O230 C219 1.251 . S
O231 Eu201 2.374 . S
O231 C219 1.251 1_554 S
H232 C203 0.931 . S
H233 C204 0.931 . S
H234 C206 0.931 . S
H235 C207 0.931 . S
H236 C213 0.931 . S
H237 C214 0.931 . S
H238 C216 0.931 . S
H239 C217 0.931 . S
H240 C246 0.930 . S
H241 C250 0.930 . S
H242 C255 0.929 . S
H243 C253 0.929 . S
H244 C248 0.929 . S
H245 C254 0.929 . S
C246 H240 0.930 . S
C246 C247 1.367 . S
C246 C254 1.378 . S
C247 C246 1.367 . S
C247 C255 1.433 1_556 S
C248 H244 0.929 . S
C248 C250 1.378 . S
C248 C252 1.350 1_554 S
C249 C252 1.463 . S
C249 C254 1.350 . S
C249 N257 1.427 1_556 S
C250 H241 0.930 . S
C250 C248 1.378 . S
C250 C251 1.367 1_554 S
C251 C250 1.367 1_556 S
C251 C253 1.433 . S
C252 C248 1.350 1_556 S
C252 C249 1.463 . S
C252 N256 1.427 . S
C253 H243 0.929 . S
C253 C251 1.433 . S
C253 N256 1.384 . S
C254 H245 0.929 . S
C254 C246 1.378 . S
C254 C249 1.350 . S
C255 H242 0.929 . S
C255 C247 1.433 1_554 S
C255 N257 1.384 . S
N256 C252 1.427 . S
N256 C253 1.384 . S
N257 C249 1.427 1_554 S
N257 C255 1.384 . S
H258 C264 0.930 . S
H259 C268 0.930 . S
H260 C273 0.929 . S
H261 C271 0.930 . S
H262 C266 0.929 . S
H263 C272 0.929 . S
C264 H258 0.930 . S
C264 C265 1.367 . S
C264 C272 1.378 . S
C265 C264 1.367 . S
C265 C273 1.433 1_556 S
C266 H262 0.929 . S
C266 C268 1.378 1_455 S
C266 C270 1.350 1_554 S
C267 C270 1.463 . S
C267 C272 1.350 . S
C267 N275 1.427 1_556 S
C268 H259 0.930 . S
C268 C266 1.378 1_655 S
C268 C269 1.367 1_554 S
C269 C268 1.367 1_556 S
C269 C271 1.434 . S
C270 C266 1.350 1_556 S
C270 C267 1.463 . S
C270 N274 1.427 . S
C271 H261 0.930 . S
C271 C269 1.434 . S
C271 N274 1.381 1_655 S
C272 H263 0.929 . S
C272 C264 1.378 . S
C272 C267 1.350 . S
C273 H260 0.929 . S
C273 C265 1.433 1_554 S
C273 N275 1.384 . S
N274 C270 1.427 . S
N274 C271 1.381 1_455 S
N275 C267 1.427 1_554 S
N275 C273 1.384 . S
H276 C282 0.930 . S
H277 C286 0.930 1_565 S
H278 C291 0.929 . S
H279 C289 0.929 . S
H280 C284 0.929 . S
H281 C290 0.929 . S
C282 H276 0.930 . S
C282 C283 1.370 . S
C282 C290 1.378 . S
C283 C282 1.370 . S
C283 C291 1.429 1_554 S
C284 H280 0.929 . S
C284 C286 1.378 . S
C284 C288 1.350 . S
C285 C288 1.463 . S
C285 C290 1.350 1_556 S
C285 N293 1.427 . S
C286 H277 0.930 1_545 S
C286 C284 1.378 . S
C286 C287 1.367 1_545 S
C287 C286 1.367 1_565 S
C287 C289 1.433 1_556 S
C288 C284 1.350 . S
C288 C285 1.463 . S
C288 N292 1.427 1_556 S
C289 H279 0.929 . S
C289 C287 1.433 1_554 S
C289 N292 1.384 1_565 S
C290 H281 0.929 . S
C290 C282 1.378 . S
C290 C285 1.350 1_554 S
C291 H278 0.929 . S
C291 C283 1.429 1_556 S
C291 N293 1.384 . S
N292 C288 1.427 1_554 S
N292 C289 1.384 1_545 S
N293 C285 1.427 . S
N293 C291 1.384 . S
H294 C300 0.930 . S
H295 C304 0.930 . S
H296 C309 0.929 . S
H297 C307 0.929 . S
H298 C302 0.929 . S
H299 C308 0.929 . S
C300 H294 0.930 . S
C300 C301 1.367 . S
C300 C308 1.378 . S
C301 C300 1.367 . S
C301 C309 1.433 1_556 S
C302 H298 0.929 . S
C302 C304 1.378 . S
C302 C306 1.350 1_554 S
C303 C306 1.463 . S
C303 C308 1.350 . S
C303 N311 1.427 1_556 S
C304 H295 0.930 . S
C304 C302 1.378 . S
C304 C305 1.375 . S
C305 C304 1.375 . S
C305 C307 1.425 1_554 S
C306 C302 1.350 1_556 S
C306 C303 1.463 . S
C306 N310 1.427 . S
C307 H297 0.929 . S
C307 C305 1.425 1_556 S
C307 N310 1.384 . S
C308 H299 0.929 . S
C308 C300 1.378 . S
C308 C303 1.350 . S
C309 H296 0.929 . S
C309 C301 1.433 1_554 S
C309 N311 1.384 . S
N310 C306 1.427 . S
N310 C307 1.384 . S
N311 C303 1.427 1_554 S
N311 C309 1.384 . S
H312 C318 0.930 1_455 S
H313 C322 0.930 . S
H314 C327 0.929 . S
H315 C325 0.929 . S
H316 C320 0.929 . S
H317 C326 0.929 . S
C318 H312 0.930 1_655 S
C318 C319 1.366 1_654 S
C318 C326 1.378 . S
C319 C318 1.366 1_456 S
C319 C327 1.433 . S
C320 H316 0.929 . S
C320 C322 1.378 . S
C320 C324 1.350 . S
C321 C324 1.463 . S
C321 C326 1.350 1_556 S
C321 N329 1.427 . S
C322 H313 0.930 . S
C322 C320 1.378 . S
C322 C323 1.367 . S
C323 C322 1.367 . S
C323 C325 1.433 1_556 S
C324 C320 1.350 . S
C324 C321 1.463 . S
C324 N328 1.427 1_556 S
C325 H315 0.929 . S
C325 C323 1.433 1_554 S
C325 N328 1.384 . S
C326 H317 0.929 . S
C326 C318 1.378 . S
C326 C321 1.350 1_554 S
C327 H314 0.929 . S
C327 C319 1.433 . S
C327 N329 1.384 1_455 S
N328 C324 1.427 1_554 S
N328 C325 1.384 . S
N329 C321 1.427 . S
N329 C327 1.384 1_655 S
H330 C336 0.930 . S
H331 C340 0.930 . S
H332 C345 0.929 . S
H333 C343 0.926 1_545 S
H334 C338 0.929 . S
H335 C344 0.929 . S
C336 H330 0.930 . S
C336 C337 1.367 . S
C336 C344 1.378 . S
C337 C336 1.367 . S
C337 C345 1.433 1_556 S
C338 H334 0.929 . S
C338 C340 1.378 1_565 S
C338 C342 1.350 1_554 S
C339 C342 1.463 . S
C339 C344 1.350 . S
C339 N347 1.427 1_556 S
C340 H331 0.930 . S
C340 C338 1.378 1_545 S
C340 C341 1.367 1_554 S
C341 C340 1.367 1_556 S
C341 C343 1.433 1_545 S
C342 C338 1.350 1_556 S
C342 C339 1.463 . S
C342 N346 1.427 . S
C343 H333 0.926 1_565 S
C343 C341 1.433 1_565 S
C343 N346 1.384 . S
C344 H335 0.929 . S
C344 C336 1.378 . S
C344 C339 1.350 . S
C345 H332 0.929 . S
C345 C337 1.433 1_554 S
C345 N347 1.384 . S
N346 C342 1.427 . S
N346 C343 1.384 . S
N347 C339 1.427 1_554 S
N347 C345 1.384 . S
H348 C354 0.930 . S
H349 C358 0.930 . S
H350 C363 0.929 . S
H351 C361 0.929 . S
H352 C356 0.929 . S
H353 C362 0.929 . S
C354 H348 0.930 . S
C354 C355 1.372 . S
C354 C362 1.378 . S
C355 C354 1.372 . S
C355 C363 1.427 1_556 S
C356 H352 0.929 . S
C356 C358 1.378 . S
C356 C360 1.350 . S
C357 C360 1.463 . S
C357 C362 1.350 1_554 S
C357 N365 1.427 . S
C358 H349 0.930 . S
C358 C356 1.378 . S
C358 C359 1.367 . S
C359 C358 1.367 . S
C359 C361 1.433 1_554 S
C360 C356 1.350 . S
C360 C357 1.463 . S
C360 N364 1.427 1_554 S
C361 H351 0.929 . S
C361 C359 1.433 1_556 S
C361 N364 1.384 . S
C362 H353 0.929 . S
C362 C354 1.378 . S
C362 C357 1.350 1_556 S
C363 H350 0.929 . S
C363 C355 1.427 1_554 S
C363 N365 1.384 . S
N364 C360 1.427 1_556 S
N364 C361 1.384 . S
N365 C357 1.427 . S
N365 C363 1.384 . S
H366 C372 0.930 . S
H367 C376 0.930 . S
H368 C381 0.929 . S
H369 C379 0.929 . S
H370 C374 0.930 . S
H371 C380 0.929 . S
C372 H366 0.930 . S
C372 C373 1.367 . S
C372 C380 1.378 . S
C373 C372 1.367 . S
C373 C381 1.433 1_554 S
C374 H370 0.930 . S
C374 C376 1.378 . S
C374 C378 1.350 . S
C375 C378 1.463 . S
C375 C380 1.350 . S
C375 N383 1.427 1_554 S
C376 H367 0.930 . S
C376 C374 1.378 . S
C376 C377 1.367 . S
C377 C376 1.367 . S
C377 C379 1.433 . S
C378 C374 1.350 . S
C378 C375 1.463 . S
C378 N382 1.427 . S
C379 H369 0.929 . S
C379 C377 1.433 . S
C379 N382 1.384 . S
C380 H371 0.929 . S
C380 C372 1.378 . S
C380 C375 1.350 . S
C381 H368 0.929 . S
C381 C373 1.433 1_556 S
C381 N383 1.384 . S
N382 C378 1.427 . S
N382 C379 1.384 . S
N383 C375 1.427 1_556 S
N383 C381 1.384 . S
H384 C390 0.930 . S
H385 C394 0.930 . S
H386 C399 0.929 . S
H387 C397 0.929 . S
H388 C392 0.929 . S
H389 C398 0.929 . S
C390 H384 0.930 . S
C390 C391 1.367 . S
C390 C398 1.378 . S
C391 C390 1.367 . S
C391 C399 1.433 . S
C392 H388 0.929 . S
C392 C394 1.378 . S
C392 C396 1.350 1_556 S
C393 C396 1.463 . S
C393 C398 1.350 . S
C393 N401 1.427 . S
C394 H385 0.930 . S
C394 C392 1.378 . S
C394 C395 1.365 1_556 S
C395 C394 1.365 1_554 S
C395 C397 1.436 . S
C396 C392 1.350 1_554 S
C396 C393 1.463 . S
C396 N400 1.427 . S
C397 H387 0.929 . S
C397 C395 1.436 . S
C397 N400 1.384 . S
C398 H389 0.929 . S
C398 C390 1.378 . S
C398 C393 1.350 . S
C399 H386 0.929 . S
C399 C391 1.433 . S
C399 N401 1.384 . S
N400 C396 1.427 . S
N400 C397 1.384 . S
N401 C393 1.427 . S
N401 C399 1.384 . S
H402 C408 0.930 . S
H403 C412 0.930 . S
H404 C417 0.929 . S
H405 C415 0.929 . S
H406 C410 0.929 . S
H407 C416 0.929 . S
C408 H402 0.930 . S
C408 C409 1.367 . S
C408 C416 1.378 . S
C409 C408 1.367 . S
C409 C417 1.433 . S
C410 H406 0.929 . S
C410 C412 1.378 . S
C410 C414 1.350 1_556 S
C411 C414 1.463 . S
C411 C416 1.350 . S
C411 N419 1.427 . S
C412 H403 0.930 . S
C412 C410 1.378 . S
C412 C413 1.365 1_556 S
C413 C412 1.365 1_554 S
C413 C415 1.436 . S
C414 C410 1.350 1_554 S
C414 C411 1.463 . S
C414 N418 1.427 . S
C415 H405 0.929 . S
C415 C413 1.436 . S
C415 N418 1.384 . S
C416 H407 0.929 . S
C416 C408 1.378 . S
C416 C411 1.350 . S
C417 H404 0.929 . S
C417 C409 1.433 . S
C417 N419 1.384 . S
N418 C414 1.427 . S
N418 C415 1.384 . S
N419 C411 1.427 . S
N419 C417 1.384 . S
H420 C426 0.930 . S
H421 C430 0.930 . S
H422 C435 0.929 . S
H423 C433 0.929 . S
H424 C428 0.929 . S
H425 C434 0.929 . S
C426 H420 0.930 . S
C426 C427 1.367 1_556 S
C426 C434 1.378 . S
C427 C426 1.367 1_554 S
C427 C435 1.433 . S
C428 H424 0.929 . S
C428 C430 1.378 . S
C428 C432 1.350 . S
C429 C432 1.463 . S
C429 C434 1.350 1_554 S
C429 N437 1.427 . S
C430 H421 0.930 . S
C430 C428 1.378 . S
C430 C431 1.367 . S
C431 C430 1.367 . S
C431 C433 1.433 1_554 S
C432 C428 1.350 . S
C432 C429 1.463 . S
C432 N436 1.427 1_554 S
C433 H423 0.929 . S
C433 C431 1.433 1_556 S
C433 N436 1.384 . S
C434 H425 0.929 . S
C434 C426 1.378 . S
C434 C429 1.350 1_556 S
C435 H422 0.929 . S
C435 C427 1.433 . S
C435 N437 1.384 . S
N436 C432 1.427 1_556 S
N436 C433 1.384 . S
N437 C429 1.427 . S
N437 C435 1.384 . S
H438 C444 0.930 . S
H439 C448 0.930 . S
H440 C453 0.929 . S
H441 C451 0.929 . S
H442 C446 0.929 . S
H443 C452 0.929 . S
C444 H438 0.930 . S
C444 C445 1.365 1_556 S
C444 C452 1.378 . S
C445 C444 1.365 1_554 S
C445 C453 1.436 . S
C446 H442 0.929 . S
C446 C448 1.378 . S
C446 C450 1.350 . S
C447 C450 1.463 . S
C447 C452 1.350 1_554 S
C447 N455 1.427 . S
C448 H439 0.930 . S
C448 C446 1.378 . S
C448 C449 1.367 . S
C449 C448 1.367 . S
C449 C451 1.433 . S
C450 C446 1.350 . S
C450 C447 1.463 . S
C450 N454 1.427 . S
C451 H441 0.929 . S
C451 C449 1.433 . S
C451 N454 1.384 . S
C452 H443 0.929 . S
C452 C444 1.378 . S
C452 C447 1.350 1_556 S
C453 H440 0.929 . S
C453 C445 1.436 . S
C453 N455 1.384 . S
N454 C450 1.427 . S
N454 C451 1.384 . S
N455 C447 1.427 . S
N455 C453 1.384 . S
H456 C462 0.930 . S
H457 C466 0.930 . S
H458 C471 0.929 . S
H459 C469 0.929 . S
H460 C464 0.929 . S
H461 C470 0.929 . S
C462 H456 0.930 . S
C462 C463 1.367 . S
C462 C470 1.378 . S
C463 C462 1.367 . S
C463 C471 1.433 . S
C464 H460 0.929 . S
C464 C466 1.378 . S
C464 C468 1.350 . S
C465 C468 1.463 . S
C465 C470 1.350 . S
C465 N473 1.427 . S
C466 H457 0.930 . S
C466 C464 1.378 . S
C466 C467 1.367 . S
C467 C466 1.367 . S
C467 C469 1.433 . S
C468 C464 1.350 . S
C468 C465 1.463 . S
C468 N472 1.427 . S
C469 H459 0.929 . S
C469 C467 1.433 . S
C469 N472 1.384 . S
C470 H461 0.929 . S
C470 C462 1.378 . S
C470 C465 1.350 . S
C471 H458 0.929 . S
C471 C463 1.433 . S
C471 N473 1.384 . S
N472 C468 1.427 . S
N472 C469 1.384 . S
N473 C465 1.427 . S
N473 C471 1.384 . S
H474 C480 0.930 . S
H475 C484 0.930 . S
H476 C489 0.929 . S
H477 C487 0.929 . S
H478 C482 0.929 . S
H479 C488 0.929 . S
C480 H474 0.930 . S
C480 C481 1.367 . S
C480 C488 1.378 . S
C481 C480 1.367 . S
C481 C489 1.433 . S
C482 H478 0.929 . S
C482 C484 1.378 . S
C482 C486 1.350 . S
C483 C486 1.463 . S
C483 C488 1.350 . S
C483 N491 1.427 . S
C484 H475 0.930 . S
C484 C482 1.378 . S
C484 C485 1.367 . S
C485 C484 1.367 . S
C485 C487 1.433 . S
C486 C482 1.350 . S
C486 C483 1.463 . S
C486 N490 1.427 . S
C487 H477 0.929 . S
C487 C485 1.433 . S
C487 N490 1.384 . S
C488 H479 0.929 . S
C488 C480 1.378 . S
C488 C483 1.350 . S
C489 H476 0.929 . S
C489 C481 1.433 . S
C489 N491 1.384 . S
N490 C486 1.427 . S
N490 C487 1.384 . S
N491 C483 1.427 . S
N491 C489 1.384 . S
H492 C498 0.930 . S
H493 C502 0.930 . S
H494 C507 0.929 . S
H495 C505 0.929 . S
H496 C500 0.929 . S
H497 C506 0.929 . S
C498 H492 0.930 . S
C498 C499 1.367 . S
C498 C506 1.378 . S
C499 C498 1.367 . S
C499 C507 1.433 . S
C500 H496 0.929 . S
C500 C502 1.378 . S
C500 C504 1.350 . S
C501 C504 1.463 . S
C501 C506 1.350 . S
C501 N509 1.427 . S
C502 H493 0.930 . S
C502 C500 1.378 . S
C502 C503 1.367 . S
C503 C502 1.367 . S
C503 C505 1.433 . S
C504 C500 1.350 . S
C504 C501 1.463 . S
C504 N508 1.427 . S
C505 H495 0.929 . S
C505 C503 1.433 . S
C505 N508 1.384 . S
C506 H497 0.929 . S
C506 C498 1.378 . S
C506 C501 1.350 . S
C507 H494 0.929 . S
C507 C499 1.433 . S
C507 N509 1.384 . S
N508 C504 1.427 . S
N508 C505 1.384 . S
N509 C501 1.427 . S
N509 C507 1.384 . S
H510 C516 0.930 . S
H511 C520 0.930 . S
H512 C525 0.929 . S
H513 C523 0.929 . S
H514 C518 0.929 . S
H515 C524 0.929 . S
C516 H510 0.930 . S
C516 C517 1.367 . S
C516 C524 1.378 . S
C517 C516 1.367 . S
C517 C525 1.433 . S
C518 H514 0.929 . S
C518 C520 1.378 . S
C518 C522 1.350 . S
C519 C522 1.463 . S
C519 C524 1.350 . S
C519 N527 1.427 . S
C520 H511 0.930 . S
C520 C518 1.378 . S
C520 C521 1.367 . S
C521 C520 1.367 . S
C521 C523 1.433 . S
C522 C518 1.350 . S
C522 C519 1.463 . S
C522 N526 1.427 . S
C523 H513 0.929 . S
C523 C521 1.433 . S
C523 N526 1.384 . S
C524 H515 0.929 . S
C524 C516 1.378 . S
C524 C519 1.350 . S
C525 H512 0.929 . S
C525 C517 1.433 . S
C525 N527 1.384 . S
N526 C522 1.427 . S
N526 C523 1.384 . S
N527 C519 1.427 . S
N527 C525 1.384 . S
H528 C534 0.930 . S
H529 C538 0.930 . S
H530 C543 0.929 . S
H531 C541 0.929 . S
H532 C536 0.929 . S
H533 C542 0.929 . S
C534 H528 0.930 . S
C534 C535 1.367 . S
C534 C542 1.378 . S
C535 C534 1.367 . S
C535 C543 1.433 . S
C536 H532 0.929 . S
C536 C538 1.378 . S
C536 C540 1.350 . S
C537 C540 1.463 . S
C537 C542 1.350 . S
C537 N545 1.427 . S
C538 H529 0.930 . S
C538 C536 1.378 . S
C538 C539 1.367 . S
C539 C538 1.367 . S
C539 C541 1.433 . S
C540 C536 1.350 . S
C540 C537 1.463 . S
C540 N544 1.427 . S
C541 H531 0.929 . S
C541 C539 1.433 . S
C541 N544 1.384 . S
C542 H533 0.929 . S
C542 C534 1.378 . S
C542 C537 1.350 . S
C543 H530 0.929 . S
C543 C535 1.433 . S
C543 N545 1.384 . S
N544 C540 1.427 . S
N544 C541 1.384 . S
N545 C537 1.427 . S
N545 C543 1.384 . S
H546 C552 0.930 . S
H547 C556 0.930 . S
H548 C561 0.929 . S
H549 C559 0.929 . S
H550 C554 0.929 . S
H551 C560 0.929 . S
C552 H546 0.930 . S
C552 C553 1.367 . S
C552 C560 1.378 . S
C553 C552 1.367 . S
C553 C561 1.433 . S
C554 H550 0.929 . S
C554 C556 1.378 . S
C554 C558 1.350 . S
C555 C558 1.463 . S
C555 C560 1.350 . S
C555 N563 1.427 . S
C556 H547 0.930 . S
C556 C554 1.378 . S
C556 C557 1.367 . S
C557 C556 1.367 . S
C557 C559 1.433 . S
C558 C554 1.350 . S
C558 C555 1.463 . S
C558 N562 1.427 . S
C559 H549 0.929 . S
C559 C557 1.433 . S
C559 N562 1.384 . S
C560 H551 0.929 . S
C560 C552 1.378 . S
C560 C555 1.350 . S
C561 H548 0.929 . S
C561 C553 1.433 . S
C561 N563 1.384 . S
N562 C558 1.427 . S
N562 C559 1.384 . S
N563 C555 1.427 . S
N563 C561 1.384 . S
C247 C209 1.883 1_556 S
C251 C5 1.703 . S
C265 C9 1.882 1_556 S
C269 C45 1.707 . S
C283 C49 1.878 . S
C287 C85 1.716 . S
C301 C125 1.713 . S
C305 C89 1.880 . S
C319 C165 1.711 . S
C323 C129 1.881 1_556 S
C337 C169 1.884 1_556 S
C341 C205 1.702 . S
C355 C179 1.905 . S
C359 C15 1.903 . S
C373 C219 1.907 1_554 S
C377 C55 1.900 . S
C391 C95 1.901 . S
C395 C19 1.905 1_554 S
C409 C135 1.901 . S
C413 C59 1.905 1_554 S
C427 C175 1.899 . S
C431 C99 1.907 1_554 S
C445 C139 1.905 1_554 S
C449 C215 1.901 . S
C463 C18 1.442 . S
C467 C8 1.442 . S
C481 C58 1.445 . S
C485 C48 1.445 . S
C499 C98 1.433 . S
C503 C88 1.433 . S
C517 C138 1.438 . S
C521 C128 1.438 . S
C535 C168 1.448 . S
C539 C178 1.448 . S
C553 C218 1.431 . S
C557 C208 1.431 . S
