# Generated by pormake.
# Topology mer, (4)-cn, num edge types: 1
# Building blocks:
#     Node 0, Type 0, BuildingBlock: ESEHIV_clean_sbu_0, # of connection points: 4
#     Node 1, Type 0, BuildingBlock: ESEHIV_clean_sbu_0, # of connection points: 4
#     Node 2, Type 0, BuildingBlock: ESEHIV_clean_sbu_0, # of connection points: 4
#     Node 3, Type 0, BuildingBlock: ESEHIV_clean_sbu_0, # of connection points: 4
#     Node 4, Type 0, BuildingBlock: ESEHIV_clean_sbu_0, # of connection points: 4
#     Node 5, Type 0, BuildingBlock: ESEHIV_clean_sbu_0, # of connection points: 4
#     Node 6, Type 0, BuildingBlock: ESEHIV_clean_sbu_0, # of connection points: 4
#     Node 7, Type 0, BuildingBlock: ESEHIV_clean_sbu_0, # of connection points: 4
#     Node 8, Type 0, BuildingBlock: ESEHIV_clean_sbu_0, # of connection points: 4
#     Node 9, Type 0, BuildingBlock: ESEHIV_clean_sbu_0, # of connection points: 4
#     Node 10, Type 0, BuildingBlock: ESEHIV_clean_sbu_0, # of connection points: 4
#     Node 11, Type 0, BuildingBlock: ESEHIV_clean_sbu_0, # of connection points: 4
#     Node 12, Type 0, BuildingBlock: ESEHIV_clean_sbu_0, # of connection points: 4
#     Node 13, Type 0, BuildingBlock: ESEHIV_clean_sbu_0, # of connection points: 4
#     Node 14, Type 0, BuildingBlock: ESEHIV_clean_sbu_0, # of connection points: 4
#     Node 15, Type 0, BuildingBlock: ESEHIV_clean_sbu_0, # of connection points: 4
#     Node 16, Type 0, BuildingBlock: ESEHIV_clean_sbu_0, # of connection points: 4
#     Node 17, Type 0, BuildingBlock: ESEHIV_clean_sbu_0, # of connection points: 4
#     Node 18, Type 0, BuildingBlock: ESEHIV_clean_sbu_0, # of connection points: 4
#     Node 19, Type 0, BuildingBlock: ESEHIV_clean_sbu_0, # of connection points: 4
#     Node 20, Type 0, BuildingBlock: ESEHIV_clean_sbu_0, # of connection points: 4
#     Node 21, Type 0, BuildingBlock: ESEHIV_clean_sbu_0, # of connection points: 4
#     Node 22, Type 0, BuildingBlock: ESEHIV_clean_sbu_0, # of connection points: 4
#     Node 23, Type 0, BuildingBlock: ESEHIV_clean_sbu_0, # of connection points: 4
#     Node 24, Type 0, BuildingBlock: ESEHIV_clean_sbu_0, # of connection points: 4
#     Node 25, Type 0, BuildingBlock: ESEHIV_clean_sbu_0, # of connection points: 4
#     Node 26, Type 0, BuildingBlock: ESEHIV_clean_sbu_0, # of connection points: 4
#     Node 27, Type 0, BuildingBlock: ESEHIV_clean_sbu_0, # of connection points: 4
#     Node 28, Type 0, BuildingBlock: ESEHIV_clean_sbu_0, # of connection points: 4
#     Node 29, Type 0, BuildingBlock: ESEHIV_clean_sbu_0, # of connection points: 4
#     Node 30, Type 0, BuildingBlock: ESEHIV_clean_sbu_0, # of connection points: 4
#     Node 31, Type 0, BuildingBlock: ESEHIV_clean_sbu_0, # of connection points: 4
#     Edge 32, Type (0, 0), BuildingBlock: TEMPAE_clean_linker_10, # of connection points: 2
#     Edge 33, Type (0, 0), BuildingBlock: TEMPAE_clean_linker_10, # of connection points: 2
#     Edge 34, Type (0, 0), BuildingBlock: TEMPAE_clean_linker_10, # of connection points: 2
#     Edge 35, Type (0, 0), BuildingBlock: TEMPAE_clean_linker_10, # of connection points: 2
#     Edge 36, Type (0, 0), BuildingBlock: TEMPAE_clean_linker_10, # of connection points: 2
#     Edge 37, Type (0, 0), BuildingBlock: TEMPAE_clean_linker_10, # of connection points: 2
#     Edge 38, Type (0, 0), BuildingBlock: TEMPAE_clean_linker_10, # of connection points: 2
#     Edge 39, Type (0, 0), BuildingBlock: TEMPAE_clean_linker_10, # of connection points: 2
#     Edge 40, Type (0, 0), BuildingBlock: TEMPAE_clean_linker_10, # of connection points: 2
#     Edge 41, Type (0, 0), BuildingBlock: TEMPAE_clean_linker_10, # of connection points: 2
#     Edge 42, Type (0, 0), BuildingBlock: TEMPAE_clean_linker_10, # of connection points: 2
#     Edge 43, Type (0, 0), BuildingBlock: TEMPAE_clean_linker_10, # of connection points: 2
#     Edge 44, Type (0, 0), BuildingBlock: TEMPAE_clean_linker_10, # of connection points: 2
#     Edge 45, Type (0, 0), BuildingBlock: TEMPAE_clean_linker_10, # of connection points: 2
#     Edge 46, Type (0, 0), BuildingBlock: TEMPAE_clean_linker_10, # of connection points: 2
#     Edge 47, Type (0, 0), BuildingBlock: TEMPAE_clean_linker_10, # of connection points: 2
#     Edge 48, Type (0, 0), BuildingBlock: TEMPAE_clean_linker_10, # of connection points: 2
#     Edge 49, Type (0, 0), BuildingBlock: TEMPAE_clean_linker_10, # of connection points: 2
#     Edge 50, Type (0, 0), BuildingBlock: TEMPAE_clean_linker_10, # of connection points: 2
#     Edge 51, Type (0, 0), BuildingBlock: TEMPAE_clean_linker_10, # of connection points: 2
#     Edge 52, Type (0, 0), BuildingBlock: TEMPAE_clean_linker_10, # of connection points: 2
#     Edge 53, Type (0, 0), BuildingBlock: TEMPAE_clean_linker_10, # of connection points: 2
#     Edge 54, Type (0, 0), BuildingBlock: TEMPAE_clean_linker_10, # of connection points: 2
#     Edge 55, Type (0, 0), BuildingBlock: TEMPAE_clean_linker_10, # of connection points: 2
#     Edge 56, Type (0, 0), BuildingBlock: TEMPAE_clean_linker_10, # of connection points: 2
#     Edge 57, Type (0, 0), BuildingBlock: TEMPAE_clean_linker_10, # of connection points: 2
#     Edge 58, Type (0, 0), BuildingBlock: TEMPAE_clean_linker_10, # of connection points: 2
#     Edge 59, Type (0, 0), BuildingBlock: TEMPAE_clean_linker_10, # of connection points: 2
#     Edge 60, Type (0, 0), BuildingBlock: TEMPAE_clean_linker_10, # of connection points: 2
#     Edge 61, Type (0, 0), BuildingBlock: TEMPAE_clean_linker_10, # of connection points: 2
#     Edge 62, Type (0, 0), BuildingBlock: TEMPAE_clean_linker_10, # of connection points: 2
#     Edge 63, Type (0, 0), BuildingBlock: TEMPAE_clean_linker_10, # of connection points: 2
#     Edge 64, Type (0, 0), BuildingBlock: TEMPAE_clean_linker_10, # of connection points: 2
#     Edge 65, Type (0, 0), BuildingBlock: TEMPAE_clean_linker_10, # of connection points: 2
#     Edge 66, Type (0, 0), BuildingBlock: TEMPAE_clean_linker_10, # of connection points: 2
#     Edge 67, Type (0, 0), BuildingBlock: TEMPAE_clean_linker_10, # of connection points: 2
#     Edge 68, Type (0, 0), BuildingBlock: TEMPAE_clean_linker_10, # of connection points: 2
#     Edge 69, Type (0, 0), BuildingBlock: TEMPAE_clean_linker_10, # of connection points: 2
#     Edge 70, Type (0, 0), BuildingBlock: TEMPAE_clean_linker_10, # of connection points: 2
#     Edge 71, Type (0, 0), BuildingBlock: TEMPAE_clean_linker_10, # of connection points: 2
#     Edge 72, Type (0, 0), BuildingBlock: TEMPAE_clean_linker_10, # of connection points: 2
#     Edge 73, Type (0, 0), BuildingBlock: TEMPAE_clean_linker_10, # of connection points: 2
#     Edge 74, Type (0, 0), BuildingBlock: TEMPAE_clean_linker_10, # of connection points: 2
#     Edge 75, Type (0, 0), BuildingBlock: TEMPAE_clean_linker_10, # of connection points: 2
#     Edge 76, Type (0, 0), BuildingBlock: TEMPAE_clean_linker_10, # of connection points: 2
#     Edge 77, Type (0, 0), BuildingBlock: TEMPAE_clean_linker_10, # of connection points: 2
#     Edge 78, Type (0, 0), BuildingBlock: TEMPAE_clean_linker_10, # of connection points: 2
#     Edge 79, Type (0, 0), BuildingBlock: TEMPAE_clean_linker_10, # of connection points: 2
#     Edge 80, Type (0, 0), BuildingBlock: TEMPAE_clean_linker_10, # of connection points: 2
#     Edge 81, Type (0, 0), BuildingBlock: TEMPAE_clean_linker_10, # of connection points: 2
#     Edge 82, Type (0, 0), BuildingBlock: TEMPAE_clean_linker_10, # of connection points: 2
#     Edge 83, Type (0, 0), BuildingBlock: TEMPAE_clean_linker_10, # of connection points: 2
#     Edge 84, Type (0, 0), BuildingBlock: TEMPAE_clean_linker_10, # of connection points: 2
#     Edge 85, Type (0, 0), BuildingBlock: TEMPAE_clean_linker_10, # of connection points: 2
#     Edge 86, Type (0, 0), BuildingBlock: TEMPAE_clean_linker_10, # of connection points: 2
#     Edge 87, Type (0, 0), BuildingBlock: TEMPAE_clean_linker_10, # of connection points: 2
#     Edge 88, Type (0, 0), BuildingBlock: TEMPAE_clean_linker_10, # of connection points: 2
#     Edge 89, Type (0, 0), BuildingBlock: TEMPAE_clean_linker_10, # of connection points: 2
#     Edge 90, Type (0, 0), BuildingBlock: TEMPAE_clean_linker_10, # of connection points: 2
#     Edge 91, Type (0, 0), BuildingBlock: TEMPAE_clean_linker_10, # of connection points: 2
#     Edge 92, Type (0, 0), BuildingBlock: TEMPAE_clean_linker_10, # of connection points: 2
#     Edge 93, Type (0, 0), BuildingBlock: TEMPAE_clean_linker_10, # of connection points: 2
#     Edge 94, Type (0, 0), BuildingBlock: TEMPAE_clean_linker_10, # of connection points: 2
#     Edge 95, Type (0, 0), BuildingBlock: TEMPAE_clean_linker_10, # of connection points: 2
# Relax obj value: 0.084
# Max RMSD: 0.220
# Mean RMSD: 0.220
data_MOF--net-mer--node1-ESEHIV_clean_sbu_0--edge1-TEMPAE_clean_linker_10
_symmetry_space_group_name_H-M    P1
_symmetry_Int_Tables_number       1
_symmetry_cell_setting            triclinic
loop_
_symmetry_equiv_pos_as_xyz
'x, y, z'
_cell_length_a     71.702324
_cell_length_b     71.64033
_cell_length_c     56.884425
_cell_angle_alpha  89.975961
_cell_angle_beta   89.982686
_cell_angle_gamma 89.964773
loop_
_atom_site_label
_atom_site_type_symbol
_atom_site_fract_x
_atom_site_fract_y
_atom_site_fract_z
_atom_type_partial_charge
Cu0 Cu 0.13005 0.29712 0.39275 0.0
N1 N 0.14298 0.27506 0.39946 0.0
N2 N 0.16296 0.2511 0.40176 0.0
C3 C 0.15838 0.26702 0.39019 0.0
C4 C 0.14986 0.24911 0.41862 0.0
C5 C 0.13767 0.26382 0.41714 0.0
O6 O 0.13916 0.31015 0.36447 0.0
C7 C 0.14292 0.31269 0.43602 0.0
O8 O 0.15943 0.30778 0.42812 0.0
H9 H 0.16621 0.27283 0.37566 0.0
H10 H 0.12571 0.26629 0.42831 0.0
N11 N 0.10584 0.29 0.38468 0.0
N12 N 0.07489 0.2889 0.38016 0.0
C13 C 0.08923 0.29659 0.39221 0.0
C14 C 0.10184 0.2777 0.36757 0.0
C15 C 0.08281 0.27699 0.36473 0.0
C16 C 0.15547 0.3153 0.35836 0.0
O17 O 0.16944 0.31315 0.37305 0.0
H18 H 0.08772 0.30723 0.40558 0.0
H19 H 0.11214 0.27009 0.35751 0.0
O20 O 0.12881 0.31103 0.42249 0.0
H21 H 0.14901 0.23769 0.43103 0.0
H22 H 0.07536 0.2684 0.35222 0.0
Cu23 Cu 0.70877 0.12926 0.38869 0.0
N24 N 0.734 0.13497 0.38641 0.0
N25 N 0.75974 0.15248 0.38349 0.0
C26 C 0.74092 0.1521 0.38219 0.0
C27 C 0.76475 0.13473 0.38862 0.0
C28 C 0.74885 0.12398 0.39042 0.0
O29 O 0.69723 0.14406 0.36351 0.0
C30 C 0.6907 0.12675 0.43477 0.0
O31 O 0.6802 0.11344 0.426 0.0
H32 H 0.73215 0.16406 0.37865 0.0
H33 H 0.74812 0.10936 0.39505 0.0
N34 N 0.70535 0.10399 0.38129 0.0
N35 N 0.70524 0.0727 0.38105 0.0
C36 C 0.70874 0.0883 0.39381 0.0
C37 C 0.69958 0.09809 0.36009 0.0
C38 C 0.69937 0.07896 0.35991 0.0
C39 C 0.68061 0.14278 0.3557 0.0
O40 O 0.66838 0.13268 0.36727 0.0
H41 H 0.71401 0.08834 0.41164 0.0
H42 H 0.69596 0.10711 0.34556 0.0
O43 O 0.70209 0.13535 0.42135 0.0
H44 H 0.77882 0.12991 0.39185 0.0
H45 H 0.69502 0.07034 0.34529 0.0
Cu46 Cu 0.87678 0.71272 0.38269 0.0
N47 N 0.87061 0.73802 0.38412 0.0
N48 N 0.85451 0.76474 0.3848 0.0
C49 C 0.85363 0.74593 0.38648 0.0
C50 C 0.87269 0.76876 0.3814 0.0
C51 C 0.88257 0.75228 0.38104 0.0
O52 O 0.86049 0.70136 0.35877 0.0
C53 C 0.86138 0.69981 0.42701 0.0
O54 O 0.84501 0.702 0.41701 0.0
H55 H 0.84087 0.73805 0.3886 0.0
H56 H 0.89741 0.75077 0.37827 0.0
N57 N 0.90113 0.71138 0.37091 0.0
N58 N 0.93224 0.71039 0.36715 0.0
C59 C 0.9176 0.70964 0.38224 0.0
C60 C 0.90548 0.7134 0.34808 0.0
C61 C 0.92454 0.71279 0.34569 0.0
C62 C 0.86398 0.68586 0.34861 0.0
O63 O 0.87751 0.67532 0.35679 0.0
H64 H 0.91878 0.70792 0.40108 0.0
H65 H 0.89542 0.71556 0.33418 0.0
O66 O 0.87609 0.70261 0.41488 0.0
H67 H 0.87843 0.78263 0.37928 0.0
H68 H 0.9321 0.7145 0.32937 0.0
Cu69 Cu 0.2944 0.87847 0.38929 0.0
N70 N 0.26852 0.87501 0.38951 0.0
N71 N 0.24066 0.86086 0.38965 0.0
C72 C 0.25935 0.85863 0.38781 0.0
C73 C 0.23806 0.87939 0.39255 0.0
C74 C 0.25523 0.88805 0.39244 0.0
O75 O 0.30401 0.86279 0.36344 0.0
C76 C 0.31593 0.88075 0.43268 0.0
O77 O 0.3263 0.89312 0.42173 0.0
H78 H 0.2663 0.84531 0.38585 0.0
H79 H 0.25783 0.90282 0.39456 0.0
N80 N 0.29969 0.90335 0.38117 0.0
N81 N 0.30086 0.93461 0.37914 0.0
C82 C 0.29548 0.91962 0.39205 0.0
C83 C 0.30808 0.90828 0.36097 0.0
C84 C 0.3089 0.92738 0.3597 0.0
C85 C 0.32104 0.86078 0.35744 0.0
O86 O 0.33416 0.8677 0.37099 0.0
H87 H 0.28823 0.92045 0.40871 0.0
H88 H 0.31304 0.89863 0.34779 0.0
O89 O 0.30294 0.8725 0.42139 0.0
H90 H 0.22469 0.88625 0.39446 0.0
H91 H 0.31508 0.93533 0.34552 0.0
Cu92 Cu 0.11968 0.71118 0.65143 0.0
N93 N 0.13242 0.73358 0.64726 0.0
N94 N 0.15291 0.757 0.64942 0.0
C95 C 0.14878 0.73942 0.65638 0.0
C96 C 0.13867 0.76224 0.63534 0.0
C97 C 0.12612 0.7478 0.63407 0.0
O98 O 0.12874 0.69918 0.68034 0.0
C99 C 0.13578 0.69732 0.60891 0.0
O100 O 0.15139 0.70365 0.61799 0.0
H101 H 0.15733 0.73104 0.668 0.0
H102 H 0.11322 0.74762 0.6242 0.0
N103 N 0.09491 0.7179 0.65729 0.0
N104 N 0.06379 0.72065 0.65684 0.0
C105 C 0.07881 0.71165 0.64782 0.0
C106 C 0.08991 0.73114 0.67278 0.0
C107 C 0.07083 0.73287 0.67258 0.0
C108 C 0.14128 0.6868 0.68336 0.0
O109 O 0.14974 0.67962 0.66499 0.0
H110 H 0.07816 0.70088 0.6345 0.0
H111 H 0.09957 0.73897 0.68355 0.0
O112 O 0.12098 0.69763 0.62141 0.0
H113 H 0.13757 0.77544 0.6262 0.0
H114 H 0.06276 0.74215 0.68363 0.0
Cu115 Cu 0.30511 0.12814 0.66344 0.0
N116 N 0.27925 0.13127 0.66521 0.0
N117 N 0.25138 0.14536 0.66586 0.0
C118 C 0.26976 0.14719 0.66108 0.0
C119 C 0.24927 0.12756 0.6732 0.0
C120 C 0.26647 0.11893 0.6728 0.0
O121 O 0.31515 0.1437 0.68894 0.0
C122 C 0.30395 0.12608 0.61455 0.0
O123 O 0.28999 0.11517 0.62041 0.0
H124 H 0.27636 0.16005 0.65553 0.0
H125 H 0.26949 0.10477 0.6782 0.0
N126 N 0.31151 0.10337 0.67082 0.0
N127 N 0.31244 0.07216 0.67342 0.0
C128 C 0.30467 0.08706 0.66252 0.0
C129 C 0.32405 0.0985 0.68732 0.0
C130 C 0.32467 0.07938 0.68896 0.0
C131 C 0.33212 0.14759 0.69344 0.0
O132 O 0.34513 0.14282 0.67831 0.0
H133 H 0.29382 0.08613 0.64936 0.0
H134 H 0.33207 0.10821 0.69774 0.0
O135 O 0.31317 0.13394 0.63105 0.0
H136 H 0.23626 0.12124 0.67863 0.0
H137 H 0.33347 0.0714 0.70071 0.0
Cu138 Cu 0.8837 0.30559 0.65179 0.0
N139 N 0.88031 0.27973 0.65289 0.0
N140 N 0.86529 0.25237 0.65299 0.0
C141 C 0.8637 0.27108 0.65502 0.0
C142 C 0.88363 0.24912 0.64955 0.0
C143 C 0.89286 0.26601 0.64955 0.0
O144 O 0.87184 0.31585 0.68014 0.0
C145 C 0.88127 0.32683 0.60867 0.0
O146 O 0.89376 0.33788 0.61822 0.0
H147 H 0.85061 0.27843 0.65711 0.0
H148 H 0.90762 0.26809 0.64683 0.0
N149 N 0.9089 0.31228 0.65468 0.0
N150 N 0.93997 0.3151 0.65225 0.0
C151 C 0.92475 0.30543 0.64505 0.0
C152 C 0.91436 0.32664 0.66824 0.0
C153 C 0.93337 0.3284 0.66683 0.0
C154 C 0.85483 0.31927 0.68499 0.0
O155 O 0.84205 0.31717 0.66867 0.0
H156 H 0.92515 0.29383 0.6329 0.0
H157 H 0.90506 0.33523 0.6786 0.0
O158 O 0.87433 0.31362 0.62092 0.0
H159 H 0.8899 0.23551 0.64708 0.0
H160 H 0.94175 0.33843 0.67634 0.0
Cu161 Cu 0.70415 0.8794 0.66752 0.0
N162 N 0.7291 0.87241 0.67181 0.0
N163 N 0.75593 0.8564 0.67207 0.0
C164 C 0.73824 0.85721 0.66378 0.0
C165 C 0.75797 0.87181 0.68547 0.0
C166 C 0.74146 0.88161 0.68527 0.0
O167 O 0.68799 0.8657 0.68968 0.0
C168 C 0.69322 0.86365 0.62226 0.0
O169 O 0.69147 0.8476 0.63322 0.0
H170 H 0.73181 0.84662 0.65291 0.0
H171 H 0.73855 0.89442 0.69463 0.0
N172 N 0.70179 0.90427 0.67715 0.0
N173 N 0.70049 0.93545 0.67895 0.0
C174 C 0.70426 0.92043 0.66528 0.0
C175 C 0.6965 0.90927 0.69892 0.0
C176 C 0.69568 0.9284 0.7001 0.0
C177 C 0.6929 0.85134 0.70146 0.0
O178 O 0.70839 0.84265 0.69584 0.0
H179 H 0.70845 0.92114 0.64702 0.0
H180 H 0.69348 0.89961 0.71303 0.0
O181 O 0.69777 0.87812 0.63398 0.0
H182 H 0.77049 0.87574 0.69487 0.0
H183 H 0.69212 0.9365 0.71552 0.0
Cu184 Cu 0.87094 0.70352 0.65045 0.0
N185 N 0.86833 0.72943 0.65247 0.0
N186 N 0.85393 0.75714 0.65424 0.0
C187 C 0.85184 0.73845 0.65252 0.0
C188 C 0.87253 0.75996 0.65532 0.0
C189 C 0.88138 0.74285 0.65429 0.0
O190 O 0.85645 0.69396 0.67731 0.0
C191 C 0.87118 0.68585 0.60455 0.0
O192 O 0.88478 0.67547 0.61284 0.0
H193 H 0.83856 0.73136 0.65113 0.0
H194 H 0.89624 0.74042 0.65508 0.0
N195 N 0.89578 0.69618 0.6556 0.0
N196 N 0.92697 0.69451 0.65714 0.0
C197 C 0.91205 0.70332 0.64758 0.0
C198 C 0.90068 0.68232 0.67032 0.0
C199 C 0.91978 0.68126 0.67132 0.0
C200 C 0.8518 0.67724 0.68227 0.0
O201 O 0.85471 0.66396 0.66677 0.0
H202 H 0.91295 0.71503 0.63562 0.0
H203 H 0.89102 0.67374 0.68009 0.0
O204 O 0.86276 0.69709 0.61838 0.0
H205 H 0.87928 0.77338 0.65724 0.0
H206 H 0.92777 0.67155 0.68186 0.0
Cu207 Cu 0.30267 0.8797 0.65369 0.0
N208 N 0.28199 0.86516 0.64576 0.0
N209 N 0.25935 0.84384 0.64294 0.0
C210 C 0.27349 0.85055 0.65627 0.0
C211 C 0.25882 0.85486 0.62371 0.0
C212 C 0.2727 0.86791 0.62553 0.0
O213 O 0.31548 0.87086 0.68245 0.0
C214 C 0.31936 0.86789 0.61055 0.0
O215 O 0.31561 0.85106 0.61844 0.0
H216 H 0.2777 0.84477 0.67303 0.0
H217 H 0.276 0.87866 0.61283 0.0
N218 N 0.2934 0.90343 0.6608 0.0
N219 N 0.28936 0.9344 0.66329 0.0
C220 C 0.29997 0.92037 0.6545 0.0
C221 C 0.27822 0.90682 0.67398 0.0
C222 C 0.2757 0.92581 0.67557 0.0
C223 C 0.31845 0.85402 0.68885 0.0
O224 O 0.31457 0.8404 0.67419 0.0
H225 H 0.3122 0.9223 0.64362 0.0
H226 H 0.26968 0.89614 0.68205 0.0
O227 O 0.31701 0.88182 0.62427 0.0
H228 H 0.24895 0.85369 0.60939 0.0
H229 H 0.26486 0.93272 0.68556 0.0
Cu230 Cu 0.13293 0.29688 0.65791 0.0
N231 N 0.13669 0.27108 0.65826 0.0
N232 N 0.15137 0.2435 0.65841 0.0
C233 C 0.15317 0.26221 0.66058 0.0
C234 C 0.13301 0.24055 0.65464 0.0
C235 C 0.12401 0.25757 0.65456 0.0
O236 O 0.14815 0.30695 0.68379 0.0
C237 C 0.1309 0.31742 0.6137 0.0
O238 O 0.11837 0.32806 0.62391 0.0
H239 H 0.16629 0.2694 0.66307 0.0
H240 H 0.1093 0.25995 0.65163 0.0
N241 N 0.10795 0.30193 0.66545 0.0
N242 N 0.07672 0.30299 0.66645 0.0
C243 C 0.09197 0.29802 0.65381 0.0
C244 C 0.10257 0.30968 0.68587 0.0
C245 C 0.08346 0.31042 0.68652 0.0
C246 C 0.14963 0.32406 0.68969 0.0
O247 O 0.14253 0.33697 0.67594 0.0
H248 H 0.09154 0.29126 0.63681 0.0
H249 H 0.11193 0.31424 0.69961 0.0
O250 O 0.13914 0.30483 0.62573 0.0
H251 H 0.12653 0.22706 0.65212 0.0
H252 H 0.07517 0.3161 0.70072 0.0
Cu253 Cu 0.71653 0.12832 0.65692 0.0
N254 N 0.74159 0.13535 0.65527 0.0
N255 N 0.76782 0.15219 0.65572 0.0
C256 C 0.74899 0.15265 0.65436 0.0
C257 C 0.77237 0.13397 0.65738 0.0
C258 C 0.7562 0.12364 0.65705 0.0
O259 O 0.70447 0.14473 0.68009 0.0
C260 C 0.70301 0.14175 0.61189 0.0
O261 O 0.70467 0.15855 0.62089 0.0
H262 H 0.74075 0.16531 0.6536 0.0
H263 H 0.75512 0.10863 0.65857 0.0
N264 N 0.71606 0.10427 0.66976 0.0
N265 N 0.716 0.0733 0.6749 0.0
C266 C 0.71441 0.08746 0.65923 0.0
C267 C 0.71867 0.10061 0.6927 0.0
C268 C 0.7186 0.08161 0.69594 0.0
C269 C 0.68938 0.14047 0.69071 0.0
O270 O 0.67969 0.12608 0.68326 0.0
H271 H 0.71256 0.08565 0.64048 0.0
H272 H 0.72068 0.11112 0.70612 0.0
O273 O 0.70638 0.12759 0.62481 0.0
H274 H 0.78641 0.12851 0.65886 0.0
H275 H 0.72021 0.07446 0.71258 0.0
Cu276 Cu 0.88148 0.30452 0.38941 0.0
N277 N 0.86798 0.28329 0.39785 0.0
N278 N 0.84879 0.25876 0.40066 0.0
C279 C 0.85354 0.27409 0.38797 0.0
C280 C 0.86085 0.25839 0.41889 0.0
C281 C 0.87253 0.27343 0.4171 0.0
O282 O 0.87226 0.31666 0.36053 0.0
C283 C 0.86858 0.32175 0.43141 0.0
O284 O 0.85211 0.31682 0.42343 0.0
H285 H 0.84669 0.27853 0.37196 0.0
H286 H 0.88384 0.27691 0.42889 0.0
N287 N 0.90544 0.29578 0.38264 0.0
N288 N 0.93623 0.29078 0.38224 0.0
C289 C 0.92229 0.30209 0.38967 0.0
C290 C 0.90889 0.28015 0.3703 0.0
C291 C 0.9278 0.27703 0.37002 0.0
C292 C 0.85559 0.3213 0.35526 0.0
O293 O 0.84229 0.31898 0.37087 0.0
H294 H 0.92424 0.31436 0.40049 0.0
H295 H 0.89828 0.27147 0.36236 0.0
O296 O 0.88281 0.31958 0.41818 0.0
H297 H 0.86156 0.24772 0.43233 0.0
H298 H 0.93483 0.26554 0.3614 0.0
Cu299 Cu 0.70176 0.88016 0.39991 0.0
N300 N 0.72758 0.87739 0.39717 0.0
N301 N 0.75513 0.86287 0.395 0.0
C302 C 0.73642 0.86097 0.39411 0.0
C303 C 0.75819 0.88122 0.39867 0.0
C304 C 0.74117 0.89015 0.39994 0.0
O305 O 0.69079 0.86842 0.37193 0.0
C306 C 0.6833 0.87734 0.44491 0.0
O307 O 0.67261 0.89091 0.43717 0.0
H308 H 0.72924 0.84777 0.3922 0.0
H309 H 0.73894 0.90484 0.40314 0.0
N310 N 0.6944 0.90525 0.39775 0.0
N311 N 0.69135 0.93635 0.40001 0.0
C312 C 0.70137 0.92123 0.40688 0.0
C313 C 0.67959 0.9105 0.38487 0.0
C314 C 0.67769 0.92952 0.38616 0.0
C315 C 0.6879 0.85137 0.36671 0.0
O316 O 0.6912 0.83833 0.38241 0.0
H317 H 0.71339 0.92179 0.41834 0.0
H318 H 0.67086 0.90107 0.37492 0.0
O319 O 0.69519 0.87002 0.43097 0.0
H320 H 0.77176 0.88769 0.40044 0.0
H321 H 0.66735 0.93772 0.37691 0.0
Cu322 Cu 0.12583 0.70803 0.38689 0.0
N323 N 0.12749 0.73399 0.38444 0.0
N324 N 0.14104 0.76215 0.38332 0.0
C325 C 0.14286 0.74402 0.38951 0.0
C326 C 0.12375 0.76353 0.37403 0.0
C327 C 0.11545 0.74614 0.37468 0.0
O328 O 0.13977 0.69875 0.35945 0.0
C329 C 0.12948 0.68813 0.43106 0.0
O330 O 0.11886 0.67533 0.42141 0.0
H331 H 0.15549 0.73788 0.39652 0.0
H332 H 0.1019 0.74251 0.36773 0.0
N333 N 0.1011 0.69968 0.38384 0.0
N334 N 0.07003 0.6966 0.38507 0.0
C335 C 0.08473 0.70796 0.38945 0.0
C336 C 0.09648 0.68272 0.37554 0.0
C337 C 0.07744 0.68076 0.37633 0.0
C338 C 0.145 0.68223 0.35434 0.0
O339 O 0.14299 0.66887 0.36997 0.0
H340 H 0.08361 0.72183 0.39682 0.0
H341 H 0.10631 0.67239 0.36941 0.0
O342 O 0.13507 0.70185 0.41857 0.0
H343 H 0.11763 0.77613 0.36688 0.0
H344 H 0.06961 0.66871 0.37048 0.0
Cu345 Cu 0.30992 0.12837 0.3921 0.0
N346 N 0.28504 0.1339 0.3852 0.0
N347 N 0.25884 0.1506 0.38107 0.0
C348 C 0.27611 0.14989 0.39056 0.0
C349 C 0.25681 0.13426 0.3695 0.0
C350 C 0.27302 0.12403 0.37201 0.0
O351 O 0.32527 0.14021 0.36761 0.0
C352 C 0.32553 0.1271 0.43872 0.0
O353 O 0.33561 0.11335 0.43022 0.0
H354 H 0.28234 0.1609 0.40093 0.0
H355 H 0.27605 0.11061 0.36418 0.0
N356 N 0.31473 0.10275 0.38856 0.0
N357 N 0.31543 0.0715 0.39049 0.0
C358 C 0.30624 0.08725 0.39698 0.0
C359 C 0.32949 0.09652 0.37628 0.0
C360 C 0.32996 0.07742 0.37739 0.0
C361 C 0.32264 0.15607 0.35794 0.0
O362 O 0.31032 0.16761 0.36692 0.0
H363 H 0.29387 0.08752 0.4079 0.0
H364 H 0.33936 0.10535 0.36719 0.0
O365 O 0.31473 0.13603 0.42484 0.0
H366 H 0.24477 0.13023 0.35924 0.0
H367 H 0.34013 0.06853 0.36888 0.0
Cu368 Cu 0.6253 0.8043 0.90226 0.0
N369 N 0.64138 0.78487 0.91058 0.0
N370 N 0.66313 0.76257 0.91149 0.0
C371 C 0.65414 0.77527 0.89799 0.0
C372 C 0.65558 0.76413 0.93311 0.0
C373 C 0.64217 0.77777 0.93245 0.0
O374 O 0.63294 0.81615 0.87254 0.0
C375 C 0.63814 0.82391 0.94258 0.0
O376 O 0.65468 0.82066 0.9335 0.0
H377 H 0.65692 0.77765 0.87953 0.0
H378 H 0.63353 0.7823 0.94696 0.0
N379 N 0.60184 0.79366 0.89724 0.0
N380 N 0.57102 0.7887 0.89559 0.0
C381 C 0.58474 0.80083 0.90146 0.0
C382 C 0.59886 0.77654 0.88836 0.0
C383 C 0.57995 0.77344 0.8873 0.0
C384 C 0.64949 0.82081 0.86677 0.0
O385 O 0.66294 0.81916 0.8823 0.0
H386 H 0.58246 0.81456 0.90886 0.0
H387 H 0.60974 0.76702 0.88291 0.0
O388 O 0.6237 0.82006 0.9304 0.0
H389 H 0.65926 0.75573 0.94824 0.0
H390 H 0.57331 0.76102 0.88045 0.0
Cu391 Cu 0.19822 0.6289 0.88433 0.0
N392 N 0.22306 0.63692 0.88547 0.0
N393 N 0.24866 0.6548 0.88592 0.0
C394 C 0.22979 0.65449 0.88663 0.0
C395 C 0.25389 0.63672 0.8846 0.0
C396 C 0.23812 0.62578 0.88432 0.0
O397 O 0.18396 0.64387 0.86125 0.0
C398 C 0.18749 0.64261 0.93018 0.0
O399 O 0.19083 0.65925 0.92144 0.0
H400 H 0.22101 0.66677 0.8872 0.0
H401 H 0.23764 0.61071 0.88314 0.0
N402 N 0.19781 0.60446 0.87263 0.0
N403 N 0.19717 0.57332 0.86915 0.0
C404 C 0.19883 0.58795 0.88409 0.0
C405 C 0.19561 0.60007 0.84982 0.0
C406 C 0.19521 0.58098 0.84761 0.0
C407 C 0.1922 0.65 0.84284 0.0
O408 O 0.21027 0.64753 0.84074 0.0
H409 H 0.20039 0.58671 0.90295 0.0
H410 H 0.19427 0.6101 0.83571 0.0
O411 O 0.18873 0.6284 0.91676 0.0
H412 H 0.26811 0.63168 0.884 0.0
H413 H 0.19379 0.57332 0.83131 0.0
Cu414 Cu 0.38648 0.20876 0.89361 0.0
N415 N 0.37681 0.23229 0.9006 0.0
N416 N 0.3577 0.25676 0.90459 0.0
C417 C 0.36013 0.23971 0.89482 0.0
C418 C 0.37348 0.26013 0.91681 0.0
C419 C 0.38519 0.24504 0.91432 0.0
O420 O 0.37152 0.19763 0.86829 0.0
C421 C 0.37381 0.19403 0.93731 0.0
O422 O 0.35743 0.19972 0.9298 0.0
H423 H 0.34983 0.23256 0.88423 0.0
H424 H 0.39881 0.24332 0.92221 0.0
N425 N 0.41059 0.21211 0.88179 0.0
N426 N 0.44162 0.21432 0.87784 0.0
C427 C 0.42726 0.21083 0.89273 0.0
C428 C 0.41449 0.2165 0.85937 0.0
C429 C 0.43351 0.21781 0.85685 0.0
C430 C 0.3768 0.18325 0.85684 0.0
O431 O 0.39157 0.17405 0.86411 0.0
H432 H 0.42877 0.20754 0.9112 0.0
H433 H 0.40415 0.21843 0.84573 0.0
O434 O 0.38779 0.1952 0.92351 0.0
H435 H 0.37641 0.27266 0.92676 0.0
H436 H 0.44076 0.2207 0.84057 0.0
Cu437 Cu 0.80572 0.37679 0.88822 0.0
N438 N 0.78026 0.37467 0.88163 0.0
N439 N 0.75188 0.36184 0.87849 0.0
C440 C 0.76905 0.36049 0.88819 0.0
C441 C 0.75233 0.37764 0.86552 0.0
C442 C 0.76983 0.38548 0.86745 0.0
O443 O 0.8195 0.36367 0.86323 0.0
C444 C 0.82357 0.37289 0.93351 0.0
O445 O 0.83768 0.38159 0.92368 0.0
H446 H 0.77377 0.34891 0.89885 0.0
H447 H 0.7748 0.39786 0.85854 0.0
N448 N 0.81359 0.40162 0.88578 0.0
N449 N 0.81547 0.43278 0.8838 0.0
C450 C 0.80437 0.41793 0.88854 0.0
C451 C 0.83098 0.40636 0.87929 0.0
C452 C 0.83222 0.42545 0.87812 0.0
C453 C 0.81373 0.34938 0.85196 0.0
O454 O 0.79894 0.34043 0.85958 0.0
H455 H 0.78977 0.41888 0.89323 0.0
H456 H 0.842 0.39649 0.87546 0.0
O457 O 0.80954 0.36847 0.92086 0.0
H458 H 0.74095 0.38303 0.85503 0.0
H459 H 0.84455 0.43332 0.87344 0.0
Cu460 Cu 0.6324 0.20184 0.15379 0.0
N461 N 0.63868 0.22706 0.15238 0.0
N462 N 0.65505 0.2536 0.15293 0.0
C463 C 0.65581 0.23474 0.15351 0.0
C464 C 0.63674 0.25784 0.1513 0.0
C465 C 0.62671 0.24146 0.15095 0.0
O466 O 0.6485 0.19047 0.17776 0.0
C467 C 0.64745 0.19224 0.10837 0.0
O468 O 0.66352 0.19743 0.11729 0.0
H469 H 0.66851 0.22668 0.15519 0.0
H470 H 0.6117 0.24012 0.14989 0.0
N471 N 0.6081 0.20023 0.16544 0.0
N472 N 0.57709 0.19825 0.16904 0.0
C473 C 0.59168 0.19892 0.15394 0.0
C474 C 0.60374 0.20058 0.18841 0.0
C475 C 0.58471 0.19933 0.19071 0.0
C476 C 0.64481 0.17502 0.18789 0.0
O477 O 0.63162 0.16433 0.17921 0.0
H478 H 0.59049 0.19846 0.13498 0.0
H479 H 0.61376 0.20187 0.20253 0.0
O480 O 0.63309 0.19189 0.12161 0.0
H481 H 0.63101 0.27179 0.15019 0.0
H482 H 0.57706 0.19973 0.2071 0.0
Cu483 Cu 0.79266 0.63229 0.15423 0.0
N484 N 0.76692 0.63617 0.15626 0.0
N485 N 0.73937 0.65086 0.15811 0.0
C486 C 0.75814 0.65278 0.15764 0.0
C487 C 0.73632 0.63227 0.15701 0.0
C488 C 0.75331 0.62327 0.15588 0.0
O489 O 0.80365 0.64869 0.17834 0.0
C490 C 0.8124 0.63002 0.10914 0.0
O491 O 0.82463 0.61925 0.11972 0.0
H492 H 0.76541 0.66601 0.15781 0.0
H493 H 0.75561 0.60837 0.15474 0.0
N494 N 0.79803 0.60766 0.1634 0.0
N495 N 0.8022 0.57666 0.16557 0.0
C496 C 0.79746 0.59127 0.15157 0.0
C497 C 0.80299 0.60316 0.18547 0.0
C498 C 0.80559 0.58423 0.18687 0.0
C499 C 0.82055 0.64827 0.18537 0.0
O500 O 0.83276 0.63827 0.17363 0.0
H501 H 0.79367 0.5901 0.13322 0.0
H502 H 0.80429 0.61301 0.19977 0.0
O503 O 0.79919 0.63724 0.12112 0.0
H504 H 0.72278 0.6256 0.15723 0.0
H505 H 0.80916 0.57657 0.20264 0.0
Cu506 Cu 0.3762 0.79579 0.15988 0.0
N507 N 0.37084 0.77039 0.1626 0.0
N508 N 0.3552 0.74342 0.16412 0.0
C509 C 0.35424 0.76192 0.15953 0.0
C510 C 0.37311 0.74018 0.17019 0.0
C511 C 0.38271 0.75681 0.16921 0.0
O512 O 0.36024 0.80808 0.18354 0.0
C513 C 0.37802 0.81625 0.115 0.0
O514 O 0.38702 0.82952 0.12618 0.0
H515 H 0.34163 0.76926 0.15463 0.0
H516 H 0.39729 0.7589 0.17325 0.0
N517 N 0.40105 0.79877 0.16941 0.0
N518 N 0.4322 0.79815 0.17169 0.0
C519 C 0.41722 0.79842 0.15717 0.0
C520 C 0.40607 0.79883 0.19219 0.0
C521 C 0.42517 0.79848 0.19366 0.0
C522 C 0.36396 0.8236 0.19352 0.0
O523 O 0.37766 0.83385 0.18524 0.0
H524 H 0.41801 0.79752 0.13819 0.0
H525 H 0.3964 0.79844 0.20678 0.0
O526 O 0.37213 0.80212 0.1265 0.0
H527 H 0.3789 0.72673 0.17488 0.0
H528 H 0.43331 0.79826 0.20969 0.0
Cu529 Cu 0.20468 0.37936 0.15896 0.0
N530 N 0.22954 0.37247 0.16295 0.0
N531 N 0.25532 0.35517 0.16641 0.0
C532 C 0.23678 0.35513 0.16212 0.0
C533 C 0.25985 0.37324 0.16996 0.0
C534 C 0.24394 0.38386 0.16778 0.0
O535 O 0.19089 0.36416 0.18221 0.0
C536 C 0.18569 0.38065 0.11301 0.0
O537 O 0.17176 0.38936 0.12326 0.0
H538 H 0.22856 0.34274 0.15876 0.0
H539 H 0.24295 0.39885 0.16956 0.0
N540 N 0.20332 0.40464 0.16741 0.0
N541 N 0.20377 0.43591 0.16766 0.0
C542 C 0.20196 0.42034 0.15429 0.0
C543 C 0.20606 0.41054 0.18958 0.0
C544 C 0.20622 0.42968 0.18983 0.0
C545 C 0.1783 0.37075 0.19579 0.0
O546 O 0.17145 0.38739 0.19131 0.0
H547 H 0.20041 0.42036 0.13537 0.0
H548 H 0.20823 0.40143 0.2045 0.0
O549 O 0.19949 0.37517 0.12538 0.0
H550 H 0.27373 0.37846 0.17348 0.0
H551 H 0.20808 0.43836 0.20523 0.0
Cu552 Cu 0.3836 0.20995 0.15816 0.0
N553 N 0.37459 0.23435 0.15815 0.0
N554 N 0.35595 0.25933 0.15754 0.0
C555 C 0.35699 0.24066 0.16083 0.0
C556 C 0.37353 0.26488 0.15277 0.0
C557 C 0.38494 0.24948 0.15311 0.0
O558 O 0.37016 0.19612 0.183 0.0
C559 C 0.38651 0.18762 0.11451 0.0
O560 O 0.39571 0.17467 0.12604 0.0
H561 H 0.34516 0.2317 0.16432 0.0
H562 H 0.39974 0.24924 0.14945 0.0
N563 N 0.40876 0.21215 0.16651 0.0
N564 N 0.43993 0.21318 0.16733 0.0
C565 C 0.42468 0.20764 0.15512 0.0
C566 C 0.41417 0.22069 0.18641 0.0
C567 C 0.43327 0.22129 0.18703 0.0
C568 C 0.37884 0.18617 0.19812 0.0
O569 O 0.39661 0.18259 0.19475 0.0
H570 H 0.42508 0.20093 0.13809 0.0
H571 H 0.40474 0.22625 0.1995 0.0
O572 O 0.38032 0.20184 0.12549 0.0
H573 H 0.37783 0.27909 0.14922 0.0
H574 H 0.44165 0.22714 0.20104 0.0
Cu575 Cu 0.80025 0.38235 0.15483 0.0
N576 N 0.77644 0.37274 0.14961 0.0
N577 N 0.75182 0.35383 0.14606 0.0
C578 C 0.76945 0.35564 0.15422 0.0
C579 C 0.74762 0.37043 0.13616 0.0
C580 C 0.76279 0.38201 0.13836 0.0
O581 O 0.81239 0.36798 0.18029 0.0
C582 C 0.81311 0.36734 0.11153 0.0
O583 O 0.80756 0.35154 0.12096 0.0
H584 H 0.7773 0.34463 0.16272 0.0
H585 H 0.76396 0.39617 0.13192 0.0
N586 N 0.7968 0.40697 0.16523 0.0
N587 N 0.79389 0.43809 0.1676 0.0
C588 C 0.79891 0.42343 0.15388 0.0
C589 C 0.79027 0.41136 0.18666 0.0
C590 C 0.78857 0.43042 0.18824 0.0
C591 C 0.82397 0.37561 0.19441 0.0
O592 O 0.82961 0.3927 0.18996 0.0
H593 H 0.80363 0.42457 0.13587 0.0
H594 H 0.78694 0.4013 0.20021 0.0
O595 O 0.81263 0.38213 0.12402 0.0
H596 H 0.73447 0.37399 0.12795 0.0
H597 H 0.78395 0.43802 0.20362 0.0
Cu598 Cu 0.62593 0.80573 0.16387 0.0
N599 N 0.62862 0.78001 0.16862 0.0
N600 N 0.64214 0.75182 0.17015 0.0
C601 C 0.6432 0.76944 0.16172 0.0
C602 C 0.62611 0.7513 0.18265 0.0
C603 C 0.61784 0.76868 0.18169 0.0
O604 O 0.63872 0.81861 0.18983 0.0
C605 C 0.63002 0.82612 0.1205 0.0
O606 O 0.62101 0.83947 0.13153 0.0
H607 H 0.65482 0.77489 0.15171 0.0
H608 H 0.60517 0.77294 0.19052 0.0
N609 N 0.60094 0.81321 0.16644 0.0
N610 N 0.56973 0.81546 0.16651 0.0
C611 C 0.58466 0.80439 0.16185 0.0
C612 C 0.59611 0.83028 0.17409 0.0
C613 C 0.57705 0.83176 0.17405 0.0
C614 C 0.65373 0.81327 0.19985 0.0
O615 O 0.6634 0.79958 0.19051 0.0
H616 H 0.5838 0.79014 0.15565 0.0
H617 H 0.6059 0.841 0.17923 0.0
O618 O 0.63452 0.8114 0.13182 0.0
H619 H 0.62084 0.73931 0.19212 0.0
H620 H 0.56923 0.84407 0.17897 0.0
Cu621 Cu 0.20156 0.62875 0.15283 0.0
N622 N 0.22735 0.63173 0.15404 0.0
N623 N 0.25519 0.64573 0.1552 0.0
C624 C 0.23654 0.64795 0.15703 0.0
C625 C 0.2578 0.62736 0.15095 0.0
C626 C 0.24059 0.61876 0.15025 0.0
O627 O 0.19157 0.64512 0.17764 0.0
C628 C 0.18163 0.62795 0.10788 0.0
O629 O 0.16957 0.61662 0.1178 0.0
H630 H 0.2296 0.66121 0.15967 0.0
H631 H 0.23788 0.60417 0.14677 0.0
N632 N 0.19578 0.60402 0.161 0.0
N633 N 0.19179 0.573 0.16167 0.0
C634 C 0.19659 0.588 0.14845 0.0
C635 C 0.19068 0.59886 0.1828 0.0
C636 C 0.18812 0.57989 0.18325 0.0
C637 C 0.17523 0.64392 0.18641 0.0
O638 O 0.16293 0.63304 0.17615 0.0
H639 H 0.20072 0.58735 0.13016 0.0
H640 H 0.18938 0.60821 0.19761 0.0
O641 O 0.19475 0.63489 0.12024 0.0
H642 H 0.27116 0.62062 0.14845 0.0
H643 H 0.18453 0.57171 0.1986 0.0
Cu644 Cu 0.37688 0.80151 0.89168 0.0
N645 N 0.36555 0.7782 0.8962 0.0
N646 N 0.34603 0.7539 0.89913 0.0
C647 C 0.34836 0.77157 0.89113 0.0
C648 C 0.3624 0.7493 0.90931 0.0
C649 C 0.37429 0.76423 0.90751 0.0
O650 O 0.36675 0.81523 0.8643 0.0
C651 C 0.36391 0.8133 0.93699 0.0
O652 O 0.34777 0.807 0.92948 0.0
H653 H 0.33767 0.77957 0.88233 0.0
H654 H 0.38839 0.76498 0.91421 0.0
N655 N 0.4014 0.79618 0.88267 0.0
N656 N 0.43249 0.79473 0.87933 0.0
C657 C 0.41792 0.80129 0.8921 0.0
C658 C 0.40567 0.78603 0.86356 0.0
C659 C 0.42472 0.78508 0.86146 0.0
C660 C 0.34997 0.81864 0.85811 0.0
O661 O 0.33627 0.81446 0.8725 0.0
H662 H 0.41921 0.80985 0.90769 0.0
H663 H 0.39552 0.77975 0.85193 0.0
O664 O 0.37764 0.81383 0.92267 0.0
H665 H 0.36564 0.736 0.91736 0.0
H666 H 0.43227 0.77759 0.84794 0.0
Cu667 Cu 0.20818 0.37984 0.89013 0.0
N668 N 0.23287 0.37213 0.89397 0.0
N669 N 0.25892 0.35497 0.89494 0.0
C670 C 0.2402 0.35486 0.89194 0.0
C671 C 0.26342 0.37297 0.89911 0.0
C672 C 0.24735 0.38347 0.89852 0.0
O673 O 0.1969 0.3639 0.8658 0.0
C674 C 0.19664 0.36659 0.93555 0.0
O675 O 0.2027 0.35038 0.92789 0.0
H676 H 0.23204 0.34256 0.88788 0.0
H677 H 0.24628 0.3984 0.90105 0.0
N678 N 0.20916 0.404 0.87769 0.0
N679 N 0.21001 0.43501 0.87303 0.0
C680 C 0.20665 0.42077 0.88811 0.0
C681 C 0.21413 0.4078 0.85542 0.0
C682 C 0.21464 0.42683 0.85247 0.0
C683 C 0.18243 0.36859 0.85413 0.0
O684 O 0.17287 0.3833 0.86084 0.0
H685 H 0.20295 0.42247 0.90644 0.0
H686 H 0.21738 0.39737 0.8423 0.0
O687 O 0.19656 0.38048 0.92148 0.0
H688 H 0.27732 0.37816 0.90258 0.0
H689 H 0.21807 0.4341 0.83635 0.0
Cu690 Cu 0.6354 0.20978 0.88611 0.0
N691 N 0.63801 0.23569 0.88477 0.0
N692 N 0.65171 0.26376 0.88397 0.0
C693 C 0.65429 0.24506 0.88428 0.0
C694 C 0.63302 0.26616 0.88428 0.0
C695 C 0.62461 0.24883 0.88476 0.0
O696 O 0.65134 0.20003 0.86078 0.0
C697 C 0.63533 0.18922 0.93042 0.0
O698 O 0.62435 0.17708 0.92005 0.0
H699 H 0.66775 0.23823 0.88462 0.0
H700 H 0.6098 0.24602 0.88515 0.0
N701 N 0.61076 0.20323 0.87861 0.0
N702 N 0.57968 0.19972 0.87796 0.0
C703 C 0.59457 0.20609 0.8903 0.0
C704 C 0.60588 0.19501 0.85829 0.0
C705 C 0.58688 0.19281 0.85784 0.0
C706 C 0.65316 0.18298 0.85476 0.0
O707 O 0.6459 0.1699 0.86811 0.0
H708 H 0.59374 0.21279 0.90731 0.0
H709 H 0.61545 0.19129 0.84439 0.0
O710 O 0.64195 0.20278 0.91851 0.0
H711 H 0.62588 0.27948 0.88393 0.0
H712 H 0.57895 0.18717 0.84331 0.0
Cu713 Cu 0.79604 0.62555 0.8854 0.0
N714 N 0.77162 0.63433 0.88724 0.0
N715 N 0.74683 0.65326 0.8879 0.0
C716 C 0.76566 0.65216 0.88714 0.0
C717 C 0.74085 0.63538 0.88841 0.0
C718 C 0.75614 0.62378 0.88799 0.0
O719 O 0.80856 0.64059 0.8611 0.0
C720 C 0.80741 0.6398 0.93066 0.0
O721 O 0.80364 0.65624 0.92159 0.0
H722 H 0.77498 0.66402 0.88673 0.0
H723 H 0.756 0.60868 0.88799 0.0
N724 N 0.7945 0.60113 0.87402 0.0
N725 N 0.79299 0.57003 0.871 0.0
C726 C 0.79649 0.58469 0.88536 0.0
C727 C 0.78966 0.59672 0.85188 0.0
C728 C 0.78876 0.57762 0.84994 0.0
C729 C 0.82207 0.63454 0.84861 0.0
O730 O 0.83022 0.61881 0.85462 0.0
H731 H 0.80001 0.58354 0.9038 0.0
H732 H 0.78682 0.60679 0.83816 0.0
O733 O 0.80632 0.62538 0.91754 0.0
H734 H 0.72644 0.63092 0.88867 0.0
H735 H 0.78544 0.56992 0.83412 0.0
C736 C 0.22648 0.16265 0.38004 0.0
C737 C 0.2457 0.16592 0.38216 0.0
C738 C 0.21353 0.17734 0.38165 0.0
C739 C 0.2199 0.19581 0.38548 0.0
C740 C 0.23929 0.19928 0.38708 0.0
C741 C 0.25194 0.18433 0.38541 0.0
C742 C 0.19297 0.173 0.37995 0.0
C743 C 0.24668 0.21876 0.39107 0.0
C744 C 0.18526 0.23546 0.37485 0.0
C745 C 0.17836 0.23851 0.39761 0.0
C746 C 0.19909 0.22188 0.37061 0.0
C747 C 0.2062 0.21118 0.38959 0.0
C748 C 0.19973 0.2147 0.41267 0.0
C749 C 0.18597 0.2283 0.41637 0.0
C750 C 0.20569 0.21859 0.34577 0.0
C751 C 0.20701 0.20378 0.43346 0.0
H752 H 0.2215 0.14851 0.37771 0.0
H753 H 0.26675 0.1871 0.38659 0.0
H754 H 0.18608 0.17614 0.39697 0.0
H755 H 0.18632 0.18194 0.3664 0.0
H756 H 0.19032 0.15814 0.37549 0.0
H757 H 0.26216 0.21931 0.39044 0.0
H758 H 0.24101 0.22844 0.37763 0.0
H759 H 0.24201 0.22393 0.40849 0.0
H760 H 0.1794 0.24323 0.36028 0.0
H761 H 0.18103 0.23086 0.43406 0.0
H762 H 0.20161 0.20436 0.34006 0.0
H763 H 0.22112 0.21937 0.34491 0.0
H764 H 0.19973 0.22887 0.33321 0.0
H765 H 0.20363 0.18877 0.43127 0.0
H766 H 0.20099 0.20866 0.45037 0.0
H767 H 0.22242 0.20495 0.43444 0.0
C768 C 0.76453 0.18677 0.38502 0.0
C769 C 0.77177 0.16868 0.38195 0.0
C770 C 0.77624 0.20248 0.38535 0.0
C771 C 0.79573 0.20012 0.38288 0.0
C772 C 0.80308 0.18206 0.37885 0.0
C773 C 0.79103 0.16661 0.37828 0.0
C774 C 0.7678 0.22153 0.38946 0.0
C775 C 0.82381 0.17892 0.37624 0.0
C776 C 0.82801 0.24174 0.3731 0.0
C777 C 0.83443 0.24509 0.39603 0.0
C778 C 0.81506 0.22742 0.36851 0.0
C779 C 0.80855 0.21611 0.38724 0.0
C780 C 0.81461 0.21977 0.41044 0.0
C781 C 0.82727 0.23428 0.41454 0.0
C782 C 0.80863 0.22413 0.3436 0.0
C783 C 0.80804 0.20808 0.43096 0.0
H784 H 0.74977 0.18873 0.38804 0.0
H785 H 0.79681 0.15285 0.37534 0.0
H786 H 0.77151 0.22647 0.40734 0.0
H787 H 0.77348 0.23179 0.37673 0.0
H788 H 0.75236 0.22136 0.38791 0.0
H789 H 0.82719 0.1643 0.3713 0.0
H790 H 0.82964 0.18841 0.36271 0.0
H791 H 0.83088 0.18217 0.3931 0.0
H792 H 0.83345 0.24995 0.35867 0.0
H793 H 0.83167 0.23705 0.4324 0.0
H794 H 0.79317 0.22401 0.3428 0.0
H795 H 0.81353 0.21027 0.3375 0.0
H796 H 0.81393 0.23495 0.33129 0.0
H797 H 0.79262 0.20864 0.43229 0.0
H798 H 0.81406 0.2128 0.44794 0.0
H799 H 0.81199 0.19327 0.42816 0.0
C800 C 0.83969 0.79389 0.37134 0.0
C801 C 0.83932 0.77792 0.38559 0.0
C802 C 0.82541 0.80726 0.37242 0.0
C803 C 0.8105 0.80478 0.38844 0.0
C804 C 0.80993 0.78857 0.40272 0.0
C805 C 0.82428 0.77523 0.40096 0.0
C806 C 0.82637 0.82414 0.35656 0.0
C807 C 0.79442 0.78554 0.42026 0.0
C808 C 0.78514 0.84901 0.40715 0.0
C809 C 0.76886 0.8482 0.39354 0.0
C810 C 0.79857 0.83476 0.40606 0.0
C811 C 0.79584 0.81946 0.39067 0.0
C812 C 0.77942 0.81857 0.37687 0.0
C813 C 0.76606 0.83287 0.37863 0.0
C814 C 0.81573 0.83609 0.42136 0.0
C815 C 0.77613 0.8027 0.35992 0.0
H816 H 0.85116 0.79585 0.35919 0.0
H817 H 0.82405 0.76297 0.4121 0.0
H818 H 0.81336 0.82535 0.34612 0.0
H819 H 0.82759 0.837 0.36731 0.0
H820 H 0.83841 0.82354 0.34429 0.0
H821 H 0.79579 0.77202 0.42969 0.0
H822 H 0.79444 0.79699 0.43338 0.0
H823 H 0.78071 0.78588 0.41125 0.0
H824 H 0.78721 0.86069 0.41895 0.0
H825 H 0.75356 0.83229 0.36796 0.0
H826 H 0.82838 0.83699 0.41018 0.0
H827 H 0.8171 0.82333 0.43229 0.0
H828 H 0.81537 0.84845 0.43314 0.0
H829 H 0.78742 0.80238 0.34658 0.0
H830 H 0.76252 0.80392 0.35072 0.0
H831 H 0.77653 0.78917 0.3694 0.0
C832 C 0.16903 0.77582 0.40209 0.0
C833 C 0.15517 0.77652 0.38468 0.0
C834 C 0.18312 0.78944 0.4033 0.0
C835 C 0.18347 0.80412 0.38662 0.0
C836 C 0.16951 0.80494 0.36903 0.0
C837 C 0.15553 0.79119 0.36831 0.0
C838 C 0.19763 0.78812 0.42246 0.0
C839 C 0.16943 0.82028 0.35082 0.0
C840 C 0.2096 0.84894 0.40127 0.0
C841 C 0.22646 0.84652 0.38909 0.0
C842 C 0.19558 0.83523 0.40075 0.0
C843 C 0.19839 0.81868 0.38762 0.0
C844 C 0.21539 0.81611 0.37532 0.0
C845 C 0.22922 0.83002 0.37627 0.0
C846 C 0.17775 0.83847 0.41429 0.0
C847 C 0.2189 0.79873 0.36098 0.0
H848 H 0.16875 0.76469 0.41497 0.0
H849 H 0.14508 0.79173 0.3546 0.0
H850 H 0.21174 0.78703 0.41458 0.0
H851 H 0.1974 0.80098 0.43332 0.0
H852 H 0.19537 0.77589 0.43414 0.0
H853 H 0.15763 0.81895 0.33829 0.0
H854 H 0.1685 0.83409 0.35957 0.0
H855 H 0.18269 0.82005 0.34075 0.0
H856 H 0.20743 0.86149 0.41152 0.0
H857 H 0.24209 0.82811 0.36659 0.0
H858 H 0.17561 0.82704 0.42718 0.0
H859 H 0.16568 0.8383 0.40211 0.0
H860 H 0.17781 0.85198 0.42386 0.0
H861 H 0.21779 0.78618 0.37233 0.0
H862 H 0.23288 0.7988 0.35254 0.0
H863 H 0.20814 0.79743 0.34707 0.0
C864 C 0.18665 0.7594 0.65825 0.0
C865 C 0.16926 0.76794 0.65472 0.0
C866 C 0.203 0.77016 0.66022 0.0
C867 C 0.20188 0.78986 0.65851 0.0
C868 C 0.1842 0.79853 0.65654 0.0
C869 C 0.16815 0.78748 0.65475 0.0
C870 C 0.22154 0.76038 0.66267 0.0
C871 C 0.1823 0.81949 0.65477 0.0
C872 C 0.24139 0.82402 0.67056 0.0
C873 C 0.24705 0.82835 0.64759 0.0
C874 C 0.22744 0.81056 0.67468 0.0
C875 C 0.219 0.80136 0.65536 0.0
C876 C 0.22557 0.80486 0.63232 0.0
C877 C 0.23953 0.81822 0.62876 0.0
C878 C 0.22105 0.80697 0.69954 0.0
C879 C 0.21708 0.79534 0.61118 0.0
H880 H 0.18762 0.74431 0.65829 0.0
H881 H 0.15471 0.79418 0.65268 0.0
H882 H 0.22899 0.76075 0.64558 0.0
H883 H 0.23046 0.76759 0.67577 0.0
H884 H 0.21986 0.74556 0.66802 0.0
H885 H 0.16751 0.82411 0.65549 0.0
H886 H 0.19007 0.8264 0.6692 0.0
H887 H 0.18843 0.82435 0.63793 0.0
H888 H 0.24719 0.83176 0.68518 0.0
H889 H 0.24424 0.82112 0.61105 0.0
H890 H 0.21925 0.79179 0.70268 0.0
H891 H 0.20731 0.81372 0.70239 0.0
H892 H 0.23103 0.81262 0.71267 0.0
H893 H 0.21695 0.77999 0.61371 0.0
H894 H 0.22472 0.79854 0.59468 0.0
H895 H 0.20239 0.79993 0.60907 0.0
C896 C 0.22191 0.15934 0.68002 0.0
C897 C 0.23718 0.15966 0.6646 0.0
C898 C 0.20804 0.1732 0.67913 0.0
C899 C 0.20936 0.1877 0.66228 0.0
C900 C 0.22473 0.18809 0.64663 0.0
C901 C 0.23848 0.17412 0.64804 0.0
C902 C 0.19199 0.17235 0.69629 0.0
C903 C 0.22657 0.2032 0.62826 0.0
C904 C 0.16451 0.21312 0.64609 0.0
C905 C 0.16601 0.22965 0.65919 0.0
C906 C 0.1786 0.19948 0.64671 0.0
C907 C 0.19456 0.20232 0.66094 0.0
C908 C 0.19618 0.219 0.67417 0.0
C909 C 0.18194 0.23247 0.67305 0.0
C910 C 0.1764 0.182 0.63215 0.0
C911 C 0.21287 0.2225 0.68972 0.0
H912 H 0.22093 0.1484 0.69309 0.0
H913 H 0.25012 0.17435 0.63591 0.0
H914 H 0.19144 0.18539 0.70679 0.0
H915 H 0.17861 0.17125 0.68661 0.0
H916 H 0.19313 0.1603 0.70852 0.0
H917 H 0.23937 0.20156 0.61744 0.0
H918 H 0.21427 0.20298 0.61644 0.0
H919 H 0.22691 0.2171 0.63682 0.0
H920 H 0.1524 0.21095 0.63506 0.0
H921 H 0.18311 0.2451 0.68341 0.0
H922 H 0.17628 0.16956 0.64377 0.0
H923 H 0.18843 0.18047 0.62003 0.0
H924 H 0.16335 0.18208 0.62162 0.0
H925 H 0.21388 0.21139 0.70326 0.0
H926 H 0.21214 0.23625 0.6987 0.0
H927 H 0.22587 0.22195 0.67916 0.0
C928 C 0.79644 0.16704 0.67067 0.0
C929 C 0.78058 0.16773 0.65628 0.0
C930 C 0.80955 0.18158 0.67069 0.0
C931 C 0.80694 0.1971 0.65561 0.0
C932 C 0.79079 0.19802 0.64127 0.0
C933 C 0.7777 0.18339 0.64197 0.0
C934 C 0.82634 0.1802 0.68661 0.0
C935 C 0.78764 0.21417 0.6247 0.0
C936 C 0.83499 0.24117 0.66813 0.0
C937 C 0.85042 0.23881 0.65327 0.0
C938 C 0.82063 0.22782 0.66895 0.0
C939 C 0.82155 0.2119 0.65422 0.0
C940 C 0.83691 0.20969 0.63879 0.0
C941 C 0.85122 0.22307 0.63867 0.0
C942 C 0.80469 0.23053 0.68596 0.0
C943 C 0.8383 0.1931 0.62251 0.0
H944 H 0.79855 0.15507 0.68202 0.0
H945 H 0.76551 0.18388 0.63073 0.0
H946 H 0.83924 0.17932 0.67589 0.0
H947 H 0.82745 0.19291 0.69767 0.0
H948 H 0.82573 0.16779 0.69831 0.0
H949 H 0.77408 0.21313 0.61533 0.0
H950 H 0.78802 0.22755 0.63447 0.0
H951 H 0.79901 0.21462 0.61147 0.0
H952 H 0.83441 0.25325 0.67956 0.0
H953 H 0.86298 0.22136 0.6269 0.0
H954 H 0.80445 0.21886 0.6988 0.0
H955 H 0.7912 0.23029 0.67643 0.0
H956 H 0.80577 0.24389 0.69576 0.0
H957 H 0.83932 0.18006 0.63295 0.0
H958 H 0.85061 0.19396 0.6107 0.0
H959 H 0.82553 0.19207 0.61158 0.0
C960 C 0.84254 0.7893 0.64732 0.0
C961 C 0.83934 0.77106 0.65537 0.0
C962 C 0.82861 0.80308 0.64884 0.0
C963 C 0.81107 0.79859 0.65878 0.0
C964 C 0.80766 0.78014 0.66665 0.0
C965 C 0.8218 0.76662 0.66481 0.0
C966 C 0.83278 0.82254 0.64011 0.0
C967 C 0.78921 0.77479 0.67754 0.0
C968 C 0.78297 0.83809 0.68603 0.0
C969 C 0.76953 0.84173 0.66867 0.0
C970 C 0.79647 0.82409 0.68303 0.0
C971 C 0.79664 0.8134 0.66211 0.0
C972 C 0.78307 0.8169 0.64453 0.0
C973 C 0.76965 0.83098 0.64805 0.0
C974 C 0.81055 0.82072 0.70232 0.0
C975 C 0.78283 0.80586 0.62194 0.0
H976 H 0.85593 0.79279 0.6397 0.0
H977 H 0.81926 0.75266 0.67135 0.0
H978 H 0.82212 0.82692 0.62709 0.0
H979 H 0.83212 0.83255 0.65496 0.0
H980 H 0.84678 0.82357 0.63183 0.0
H981 H 0.78847 0.75968 0.68182 0.0
H982 H 0.78699 0.78288 0.69394 0.0
H983 H 0.77761 0.7783 0.66543 0.0
H984 H 0.7828 0.84604 0.7022 0.0
H985 H 0.75943 0.8338 0.63449 0.0
H986 H 0.82488 0.82279 0.69542 0.0
H987 H 0.80959 0.80608 0.70855 0.0
H988 H 0.80847 0.83018 0.71757 0.0
H989 H 0.79628 0.80764 0.61255 0.0
H990 H 0.77132 0.81021 0.61006 0.0
H991 H 0.78128 0.79077 0.62585 0.0
C992 C 0.69118 0.74432 0.92093 0.0
C993 C 0.67734 0.74941 0.90475 0.0
C994 C 0.70367 0.72976 0.91615 0.0
C995 C 0.70223 0.71994 0.89465 0.0
C996 C 0.68895 0.72567 0.87766 0.0
C997 C 0.67668 0.74043 0.88289 0.0
C998 C 0.71776 0.72429 0.93464 0.0
C999 C 0.68698 0.71554 0.85454 0.0
C1000 C 0.74218 0.68696 0.87981 0.0
C1001 C 0.73544 0.66991 0.88855 0.0
C1002 C 0.73136 0.70332 0.88103 0.0
C1003 C 0.71335 0.70259 0.89118 0.0
C1004 C 0.70631 0.68537 0.89954 0.0
C1005 C 0.71743 0.66931 0.89821 0.0
C1006 C 0.73935 0.72143 0.87195 0.0
C1007 C 0.68717 0.68399 0.91053 0.0
H1008 H 0.69194 0.7515 0.93766 0.0
H1009 H 0.66595 0.7443 0.87039 0.0
H1010 H 0.71417 0.71035 0.94185 0.0
H1011 H 0.73189 0.72322 0.9268 0.0
H1012 H 0.71824 0.73442 0.94941 0.0
H1013 H 0.67761 0.72303 0.84217 0.0
H1014 H 0.70081 0.71371 0.84608 0.0
H1015 H 0.68119 0.7014 0.85772 0.0
H1016 H 0.75592 0.68756 0.87196 0.0
H1017 H 0.71213 0.65635 0.90532 0.0
H1018 H 0.74106 0.7314 0.88671 0.0
H1019 H 0.72962 0.72792 0.85917 0.0
H1020 H 0.7531 0.71945 0.8633 0.0
H1021 H 0.68673 0.69239 0.92691 0.0
H1022 H 0.68331 0.66938 0.91488 0.0
H1023 H 0.6765 0.6898 0.89844 0.0
C1024 C 0.25547 0.68754 0.89721 0.0
C1025 C 0.26084 0.67089 0.8861 0.0
C1026 C 0.26776 0.70282 0.89868 0.0
C1027 C 0.28585 0.70142 0.88882 0.0
C1028 C 0.29109 0.6849 0.87686 0.0
C1029 C 0.27854 0.6699 0.87563 0.0
C1030 C 0.26162 0.72021 0.91152 0.0
C1031 C 0.31021 0.68279 0.86602 0.0
C1032 C 0.31739 0.74351 0.87848 0.0
C1033 C 0.32974 0.7421 0.89753 0.0
C1034 C 0.30252 0.73084 0.87583 0.0
C1035 C 0.29996 0.71644 0.89263 0.0
C1036 C 0.31191 0.71548 0.91239 0.0
C1037 C 0.32656 0.72831 0.91461 0.0
C1038 C 0.29001 0.73241 0.8546 0.0
C1039 C 0.30967 0.70044 0.9308 0.0
H1040 H 0.24187 0.68843 0.90543 0.0
H1041 H 0.28268 0.6573 0.86652 0.0
H1042 H 0.26979 0.72171 0.92796 0.0
H1043 H 0.26436 0.73277 0.90064 0.0
H1044 H 0.24656 0.71985 0.91611 0.0
H1045 H 0.31171 0.66952 0.85611 0.0
H1046 H 0.31308 0.6946 0.85392 0.0
H1047 H 0.32097 0.68315 0.88002 0.0
H1048 H 0.31976 0.75408 0.86519 0.0
H1049 H 0.33573 0.72739 0.92969 0.0
H1050 H 0.27514 0.732 0.85998 0.0
H1051 H 0.29244 0.72033 0.84278 0.0
H1052 H 0.29256 0.74545 0.84453 0.0
H1053 H 0.29518 0.70034 0.93762 0.0
H1054 H 0.31939 0.70231 0.94583 0.0
H1055 H 0.31233 0.68657 0.9228 0.0
C1056 C 0.33719 0.28102 0.92133 0.0
C1057 C 0.34169 0.26892 0.90279 0.0
C1058 C 0.32246 0.29384 0.91942 0.0
C1059 C 0.31195 0.29469 0.89838 0.0
C1060 C 0.31601 0.28212 0.87985 0.0
C1061 C 0.3308 0.26933 0.88231 0.0
C1062 C 0.31851 0.30684 0.93972 0.0
C1063 C 0.30518 0.28262 0.85711 0.0
C1064 C 0.26612 0.32157 0.90156 0.0
C1065 C 0.27166 0.33938 0.89402 0.0
C1066 C 0.27891 0.30668 0.9024 0.0
C1067 C 0.29764 0.30964 0.89537 0.0
C1068 C 0.30309 0.3274 0.88689 0.0
C1069 C 0.29007 0.34202 0.88639 0.0
C1070 C 0.27257 0.28798 0.91164 0.0
C1071 C 0.32285 0.33114 0.87898 0.0
H1072 H 0.34528 0.28053 0.93739 0.0
H1073 H 0.33425 0.26009 0.86788 0.0
H1074 H 0.32131 0.32146 0.93432 0.0
H1075 H 0.30358 0.30601 0.94477 0.0
H1076 H 0.32717 0.3036 0.95539 0.0
H1077 H 0.30906 0.27099 0.84516 0.0
H1078 H 0.28999 0.2819 0.86069 0.0
H1079 H 0.30785 0.29603 0.84793 0.0
H1080 H 0.25195 0.31947 0.9076 0.0
H1081 H 0.29435 0.35564 0.88011 0.0
H1082 H 0.27969 0.28497 0.92854 0.0
H1083 H 0.27646 0.27672 0.89919 0.0
H1084 H 0.25726 0.2875 0.91459 0.0
H1085 H 0.33249 0.32971 0.89414 0.0
H1086 H 0.32453 0.34534 0.87141 0.0
H1087 H 0.32716 0.32072 0.86561 0.0
C1088 C 0.66239 0.29585 0.89296 0.0
C1089 C 0.66593 0.27808 0.88357 0.0
C1090 C 0.6761 0.30989 0.89269 0.0
C1091 C 0.69381 0.30611 0.88275 0.0
C1092 C 0.6975 0.28821 0.87326 0.0
C1093 C 0.68354 0.27444 0.8738 0.0
C1094 C 0.67163 0.32876 0.90307 0.0
C1095 C 0.71616 0.28362 0.8624 0.0
C1096 C 0.7239 0.3466 0.86167 0.0
C1097 C 0.73692 0.34834 0.87998 0.0
C1098 C 0.70972 0.33307 0.86246 0.0
C1099 C 0.70846 0.32092 0.88204 0.0
C1100 C 0.72139 0.32272 0.90071 0.0
C1101 C 0.73544 0.33639 0.89946 0.0
C1102 C 0.69624 0.3316 0.84215 0.0
C1103 C 0.7205 0.3101 0.92194 0.0
H1104 H 0.64895 0.29875 0.90084 0.0
H1105 H 0.68636 0.26087 0.8662 0.0
H1106 H 0.68159 0.33204 0.91739 0.0
H1107 H 0.6732 0.33974 0.88945 0.0
H1108 H 0.65723 0.32945 0.91024 0.0
H1109 H 0.71689 0.26899 0.85599 0.0
H1110 H 0.71895 0.29313 0.84742 0.0
H1111 H 0.72744 0.2858 0.87546 0.0
H1112 H 0.72502 0.35553 0.84638 0.0
H1113 H 0.74523 0.33776 0.91383 0.0
H1114 H 0.6817 0.33307 0.84857 0.0
H1115 H 0.69743 0.31762 0.83389 0.0
H1116 H 0.6988 0.34238 0.82849 0.0
H1117 H 0.7066 0.31122 0.93041 0.0
H1118 H 0.73137 0.31351 0.93517 0.0
H1119 H 0.72231 0.29536 0.91644 0.0
C1120 C 0.66795 0.28438 0.1636 0.0
C1121 C 0.67041 0.2666 0.15376 0.0
C1122 C 0.68238 0.29761 0.16339 0.0
C1123 C 0.69972 0.29302 0.15297 0.0
C1124 C 0.7025 0.27491 0.14361 0.0
C1125 C 0.68783 0.26189 0.14418 0.0
C1126 C 0.67887 0.31669 0.17377 0.0
C1127 C 0.72074 0.2695 0.13223 0.0
C1128 C 0.7268 0.33443 0.1292 0.0
C1129 C 0.73984 0.33767 0.14711 0.0
C1130 C 0.71411 0.31958 0.13057 0.0
C1131 C 0.71436 0.30766 0.15042 0.0
C1132 C 0.72786 0.31048 0.16825 0.0
C1133 C 0.74051 0.32543 0.16634 0.0
C1134 C 0.7001 0.31697 0.11102 0.0
C1135 C 0.72854 0.29812 0.18972 0.0
H1136 H 0.65467 0.28799 0.17143 0.0
H1137 H 0.68979 0.24823 0.13641 0.0
H1138 H 0.68988 0.32017 0.18675 0.0
H1139 H 0.67948 0.32739 0.15968 0.0
H1140 H 0.66507 0.31765 0.18256 0.0
H1141 H 0.72119 0.25448 0.12743 0.0
H1142 H 0.72287 0.27791 0.11607 0.0
H1143 H 0.73255 0.27256 0.14422 0.0
H1144 H 0.72647 0.34361 0.11407 0.0
H1145 H 0.7505 0.32793 0.18027 0.0
H1146 H 0.68579 0.31922 0.1179 0.0
H1147 H 0.70075 0.30247 0.10423 0.0
H1148 H 0.70245 0.32676 0.09617 0.0
H1149 H 0.71558 0.29998 0.20014 0.0
H1150 H 0.74068 0.3013 0.20116 0.0
H1151 H 0.72921 0.28323 0.18445 0.0
C1152 C 0.72963 0.6827 0.16998 0.0
C1153 C 0.72549 0.66553 0.1593 0.0
C1154 C 0.71619 0.69697 0.17151 0.0
C1155 C 0.69813 0.69408 0.16207 0.0
C1156 C 0.69391 0.67685 0.1511 0.0
C1157 C 0.7076 0.66281 0.14988 0.0
C1158 C 0.72125 0.71508 0.18346 0.0
C1159 C 0.67489 0.67321 0.14069 0.0
C1160 C 0.65786 0.72348 0.1854 0.0
C1161 C 0.65596 0.73718 0.16789 0.0
C1162 C 0.6715 0.70943 0.18373 0.0
C1163 C 0.68357 0.70895 0.16402 0.0
C1164 C 0.68168 0.72266 0.14622 0.0
C1165 C 0.66795 0.7366 0.14838 0.0
C1166 C 0.67308 0.69516 0.20317 0.0
C1167 C 0.69418 0.7226 0.12486 0.0
H1168 H 0.7433 0.68489 0.17756 0.0
H1169 H 0.70432 0.64974 0.14128 0.0
H1170 H 0.71909 0.72695 0.17122 0.0
H1171 H 0.712 0.7174 0.19883 0.0
H1172 H 0.73597 0.71526 0.18957 0.0
H1173 H 0.67389 0.65919 0.13245 0.0
H1174 H 0.66407 0.67431 0.15457 0.0
H1175 H 0.67164 0.68393 0.1272 0.0
H1176 H 0.64891 0.72394 0.20072 0.0
H1177 H 0.66648 0.74695 0.13464 0.0
H1178 H 0.68721 0.69572 0.21107 0.0
H1179 H 0.67118 0.68091 0.19592 0.0
H1180 H 0.66261 0.69741 0.21729 0.0
H1181 H 0.70898 0.72383 0.13035 0.0
H1182 H 0.69091 0.73418 0.11254 0.0
H1183 H 0.69275 0.70917 0.11533 0.0
C1184 C 0.28578 0.65857 0.14342 0.0
C1185 C 0.26927 0.6601 0.15651 0.0
C1186 C 0.29954 0.6725 0.14439 0.0
C1187 C 0.29683 0.68829 0.15897 0.0
C1188 C 0.28019 0.68992 0.17224 0.0
C1189 C 0.26658 0.67585 0.17076 0.0
C1190 C 0.317 0.67032 0.12979 0.0
C1191 C 0.27685 0.70643 0.18819 0.0
C1192 C 0.34026 0.71451 0.17841 0.0
C1193 C 0.34028 0.72992 0.16318 0.0
C1194 C 0.32608 0.70103 0.17745 0.0
C1195 C 0.3116 0.70288 0.1607 0.0
C1196 C 0.31144 0.71847 0.14536 0.0
C1197 C 0.32573 0.73185 0.14687 0.0
C1198 C 0.32665 0.68475 0.19431 0.0
C1199 C 0.29634 0.72086 0.12712 0.0
H1200 H 0.28783 0.64659 0.1321 0.0
H1201 H 0.25395 0.67701 0.18111 0.0
H1202 H 0.31868 0.68252 0.11797 0.0
H1203 H 0.32942 0.66987 0.14142 0.0
H1204 H 0.3168 0.65743 0.11894 0.0
H1205 H 0.26309 0.70571 0.19714 0.0
H1206 H 0.28794 0.7071 0.20176 0.0
H1207 H 0.27754 0.71958 0.17794 0.0
H1208 H 0.35129 0.71309 0.19129 0.0
H1209 H 0.32577 0.74362 0.13492 0.0
H1210 H 0.32773 0.67148 0.18436 0.0
H1211 H 0.31353 0.68417 0.20462 0.0
H1212 H 0.33859 0.68562 0.2067 0.0
H1213 H 0.29647 0.70882 0.11486 0.0
H1214 H 0.29806 0.7339 0.11677 0.0
H1215 H 0.28245 0.72111 0.13571 0.0
C1216 C 0.28383 0.33973 0.18087 0.0
C1217 C 0.26787 0.33944 0.16664 0.0
C1218 C 0.29693 0.3252 0.1801 0.0
C1219 C 0.29408 0.31 0.16462 0.0
C1220 C 0.27765 0.30926 0.15082 0.0
C1221 C 0.26471 0.32398 0.15204 0.0
C1222 C 0.31418 0.32646 0.19526 0.0
C1223 C 0.27414 0.29333 0.13404 0.0
C1224 C 0.33857 0.28682 0.14358 0.0
C1225 C 0.33963 0.27107 0.15815 0.0
C1226 C 0.32348 0.29921 0.14498 0.0
C1227 C 0.30908 0.29585 0.16146 0.0
C1228 C 0.30973 0.27964 0.17572 0.0
C1229 C 0.32499 0.26738 0.17383 0.0
C1230 C 0.32325 0.31621 0.12925 0.0
C1231 C 0.29466 0.27561 0.19354 0.0
H1232 H 0.28616 0.35145 0.19252 0.0
H1233 H 0.25248 0.32372 0.1409 0.0
H1234 H 0.31599 0.31343 0.20554 0.0
H1235 H 0.32668 0.32806 0.18393 0.0
H1236 H 0.31362 0.33844 0.20763 0.0
H1237 H 0.25994 0.2939 0.12627 0.0
H1238 H 0.28451 0.2938 0.11957 0.0
H1239 H 0.27589 0.27975 0.14316 0.0
H1240 H 0.34965 0.28952 0.13109 0.0
H1241 H 0.32581 0.25526 0.18518 0.0
H1242 H 0.32423 0.32904 0.14011 0.0
H1243 H 0.30991 0.31693 0.1194 0.0
H1244 H 0.33495 0.31621 0.11644 0.0
H1245 H 0.29487 0.28645 0.20745 0.0
H1246 H 0.29644 0.26172 0.20194 0.0
H1247 H 0.28072 0.27617 0.18509 0.0
C1248 C 0.96702 0.27649 0.38882 0.0
C1249 C 0.95601 0.29254 0.38628 0.0
C1250 C 0.98651 0.27763 0.39028 0.0
C1251 C 0.99533 0.29528 0.38895 0.0
C1252 C 0.98425 0.31164 0.38746 0.0
C1253 C 0.96469 0.31008 0.38626 0.0
C1254 C 0.99771 0.25982 0.39218 0.0
C1255 C 0.99309 0.33071 0.3859 0.0
C1256 C 0.04707 0.29558 0.40453 0.0
C1257 C 0.05521 0.29269 0.38242 0.0
C1258 C 0.02758 0.29725 0.40696 0.0
C1259 C 0.01606 0.29623 0.38674 0.0
C1260 C 0.02436 0.29432 0.36428 0.0
C1261 C 0.04378 0.29247 0.36243 0.0
C1262 C 0.01929 0.29918 0.43121 0.0
C1263 C 0.01268 0.29343 0.34221 0.0
H1264 H 0.96035 0.26293 0.38931 0.0
H1265 H 0.95622 0.32251 0.38422 0.0
H1266 H 0.00575 0.25763 0.37575 0.0
H1267 H 0.00789 0.26085 0.4068 0.0
H1268 H 0.98874 0.24741 0.39517 0.0
H1269 H 0.98264 0.34209 0.38762 0.0
H1270 H 0.00382 0.33243 0.39977 0.0
H1271 H 1.00022 0.33221 0.36868 0.0
H1272 H 0.05587 0.2957 0.42001 0.0
H1273 H 0.05007 0.2906 0.34527 0.0
H1274 H 0.01182 0.28613 0.4359 0.0
H1275 H 0.00893 0.31068 0.43161 0.0
H1276 H 0.0301 0.30188 0.44478 0.0
H1277 H 0.00423 0.28046 0.34229 0.0
H1278 H 0.02134 0.29358 0.32602 0.0
H1279 H 1.00285 0.30538 0.34157 0.0
C1280 C 0.70956 0.03955 0.37062 0.0
C1281 C 0.707 0.05332 0.38788 0.0
C1282 C 0.70886 0.0205 0.37617 0.0
C1283 C 0.70589 0.0149 0.39973 0.0
C1284 C 0.70462 0.02866 0.41757 0.0
C1285 C 0.70507 0.04773 0.41143 0.0
C1286 C 0.71027 0.00639 0.3565 0.0
C1287 C 0.70191 0.02328 0.44298 0.0
C1288 C 0.68019 0.96884 0.40299 0.0
C1289 C 0.69489 0.95593 0.40437 0.0
C1290 C 0.68351 0.98812 0.40297 0.0
C1291 C 0.70202 0.99481 0.40483 0.0
C1292 C 0.7168 0.98194 0.40829 0.0
C1293 C 0.71308 0.96262 0.40788 0.0
C1294 C 0.66729 1.00125 0.39921 0.0
C1295 C 0.73666 0.9885 0.41099 0.0
H1296 H 0.71169 0.04365 0.35251 0.0
H1297 H 0.70315 0.05821 0.42493 0.0
H1298 H 0.7212 0.99592 0.3605 0.0
H1299 H 0.69684 0.9988 0.35479 0.0
H1300 H 0.71356 0.01299 0.33932 0.0
H1301 H 0.70457 0.03519 0.45503 0.0
H1302 H 0.68737 0.01847 0.4457 0.0
H1303 H 0.71129 0.01156 0.44782 0.0
H1304 H 0.66603 0.96384 0.40102 0.0
H1305 H 0.72453 0.9528 0.40907 0.0
H1306 H 0.66859 0.00799 0.38171 0.0
H1307 H 0.66739 0.01249 0.4126 0.0
H1308 H 0.65364 0.99396 0.40003 0.0
H1309 H 0.74215 0.9929 0.39361 0.0
H1310 H 0.74585 0.97731 0.41799 0.0
H1311 H 0.73739 1.00076 0.42287 0.0
C1312 C 0.03816 0.68579 0.39379 0.0
C1313 C 0.05036 0.70034 0.3878 0.0
C1314 C 0.01875 0.68829 0.3933 0.0
C1315 C 0.01126 0.70575 0.38645 0.0
C1316 C 0.02352 0.72082 0.38165 0.0
C1317 C 0.04295 0.71795 0.3825 0.0
C1318 C 0.00627 0.67189 0.39885 0.0
C1319 C 0.01614 0.73964 0.37422 0.0
C1320 C 0.96463 0.7036 0.35486 0.0
C1321 C 0.95199 0.70919 0.37237 0.0
C1322 C 0.98387 0.70279 0.35916 0.0
C1323 C 0.99084 0.70748 0.38167 0.0
C1324 C 0.97823 0.71303 0.39955 0.0
C1325 C 0.95897 0.71385 0.39469 0.0
C1326 C 0.99676 0.69671 0.33958 0.0
C1327 C 0.9851 0.71803 0.42382 0.0
H1328 H 0.04385 0.67224 0.3983 0.0
H1329 H 0.05233 0.7292 0.37777 0.0
H1330 H 0.9952 0.67605 0.41143 0.0
H1331 H 0.99927 0.6671 0.38254 0.0
H1332 H 0.01415 0.65996 0.40641 0.0
H1333 H 0.02725 0.75044 0.37383 0.0
H1334 H 0.00998 0.73854 0.35638 0.0
H1335 H 0.00491 0.74431 0.38628 0.0
H1336 H 0.95948 0.69959 0.33771 0.0
H1337 H 0.94942 0.71836 0.40829 0.0
H1338 H 0.00406 0.68366 0.34466 0.0
H1339 H 0.00758 0.7075 0.3365 0.0
H1340 H 0.98921 0.69421 0.32282 0.0
H1341 H 0.99241 0.70592 0.43173 0.0
H1342 H 0.97357 0.72231 0.4357 0.0
H1343 H 0.99533 0.72961 0.4227 0.0
C1344 C 0.29786 0.96724 0.36575 0.0
C1345 C 0.29872 0.95429 0.38425 0.0
C1346 C 0.29823 0.98652 0.36994 0.0
C1347 C 0.29921 0.99322 0.39331 0.0
C1348 C 0.29876 0.98029 0.41221 0.0
C1349 C 0.2986 0.96096 0.40746 0.0
C1350 C 0.29867 0.99969 0.34919 0.0
C1351 C 0.2994 0.98684 0.43739 0.0
C1352 C 0.3255 0.03898 0.39662 0.0
C1353 C 0.31106 0.05219 0.39547 0.0
C1354 C 0.32177 0.01978 0.39744 0.0
C1355 C 0.30306 0.01348 0.39742 0.0
C1356 C 0.28838 0.02676 0.39815 0.0
C1357 C 0.29255 0.04599 0.39709 0.0
C1358 C 0.33792 0.00624 0.39669 0.0
C1359 C 0.26825 0.02066 0.39865 0.0
H1360 H 0.29736 0.96228 0.34779 0.0
H1361 H 0.29918 0.9511 0.42188 0.0
H1362 H 0.28775 0.01055 0.35106 0.0
H1363 H 0.31236 0.00692 0.34856 0.0
H1364 H 0.29653 0.99234 0.33221 0.0
H1365 H 0.29563 0.97552 0.44988 0.0
H1366 H 0.3137 0.99169 0.44164 0.0
H1367 H 0.2898 0.99881 0.44009 0.0
H1368 H 0.33985 0.04367 0.39606 0.0
H1369 H 0.28132 0.0561 0.3963 0.0
H1370 H 0.3379 0.99877 0.3796 0.0
H1371 H 0.3365 0.99561 0.41074 0.0
H1372 H 0.35159 0.01334 0.39876 0.0
H1373 H 0.26417 0.01552 0.381 0.0
H1374 H 0.25878 0.0323 0.40355 0.0
H1375 H 0.26627 0.00899 0.41125 0.0
C1376 C 0.03122 0.73195 0.65582 0.0
C1377 C 0.04422 0.71759 0.65197 0.0
C1378 C 0.01197 0.72874 0.65398 0.0
C1379 C 0.00543 0.71074 0.64794 0.0
C1380 C 0.01847 0.69645 0.64266 0.0
C1381 C 0.0377 0.70003 0.64477 0.0
C1382 C 0.99862 0.7444 0.65976 0.0
C1383 C 0.01208 0.6771 0.63596 0.0
C1384 C 0.95868 0.69643 0.6736 0.0
C1385 C 0.94651 0.69892 0.65455 0.0
C1386 C 0.97781 0.70013 0.67156 0.0
C1387 C 0.98511 0.7064 0.64982 0.0
C1388 C 0.97293 0.70899 0.63046 0.0
C1389 C 0.95372 0.70533 0.6331 0.0
C1390 C 0.99018 0.69747 0.6928 0.0
C1391 C 0.98021 0.7155 0.60696 0.0
H1392 H 0.03609 0.74569 0.66079 0.0
H1393 H 0.04758 0.68884 0.64179 0.0
H1394 H 0.988 0.7459 0.64572 0.0
H1395 H 0.9911 0.74109 0.6763 0.0
H1396 H 0.00587 0.75798 0.66202 0.0
H1397 H 0.02378 0.66828 0.62957 0.0
H1398 H 0.00572 0.6702 0.65147 0.0
H1399 H 1.00125 0.67784 0.62207 0.0
H1400 H 0.95316 0.69181 0.69034 0.0
H1401 H 0.9444 0.70714 0.61829 0.0
H1402 H 0.99699 0.71087 0.69743 0.0
H1403 H 1.00141 0.6873 0.68874 0.0
H1404 H 0.98233 0.69238 0.70837 0.0
H1405 H 0.98694 0.72936 0.60884 0.0
H1406 H 0.969 0.71657 0.59355 0.0
H1407 H 0.99103 0.70568 0.60049 0.0
C1408 C 0.2773 0.96679 0.66447 0.0
C1409 C 0.29224 0.95435 0.66117 0.0
C1410 C 0.28006 0.98621 0.66455 0.0
C1411 C 0.29819 0.99349 0.66101 0.0
C1412 C 0.31319 0.98109 0.65661 0.0
C1413 C 0.31006 0.9617 0.6568 0.0
C1414 C 0.26366 0.99889 0.66933 0.0
C1415 C 0.33272 0.98829 0.65259 0.0
C1416 C 0.30343 0.04556 0.64799 0.0
C1417 C 0.30831 0.05259 0.67016 0.0
C1418 C 0.3002 0.02634 0.64462 0.0
C1419 C 0.30168 0.01392 0.66395 0.0
C1420 C 0.30632 0.02103 0.68641 0.0
C1421 C 0.30963 0.04021 0.6892 0.0
C1422 C 0.29543 0.01929 0.62036 0.0
C1423 C 0.30777 0.00838 0.70759 0.0
H1424 H 0.2634 0.96137 0.6673 0.0
H1425 H 0.32173 0.95231 0.65434 0.0
H1426 H 0.26576 0.00621 0.68632 0.0
H1427 H 0.26259 0.00974 0.65548 0.0
H1428 H 0.25026 0.99114 0.67015 0.0
H1429 H 0.34248 0.97704 0.64717 0.0
H1430 H 0.33268 0.9993 0.63887 0.0
H1431 H 0.33806 0.99471 0.66901 0.0
H1432 H 0.30255 0.05503 0.63318 0.0
H1433 H 0.31307 0.04557 0.70645 0.0
H1434 H 0.28178 0.01201 0.6207 0.0
H1435 H 0.30602 0.00898 0.61458 0.0
H1436 H 0.29476 0.03073 0.6072 0.0
H1437 H 0.29432 1.00107 0.71046 0.0
H1438 H 0.31143 0.01613 0.72386 0.0
H1439 H 0.31854 0.99754 0.70449 0.0
C1440 C 0.04394 0.29905 0.67851 0.0
C1441 C 0.05722 0.30093 0.66054 0.0
C1442 C 0.02477 0.29937 0.6737 0.0
C1443 C 0.01856 0.30141 0.65022 0.0
C1444 C 0.03185 0.3021 0.63177 0.0
C1445 C 0.05106 0.3019 0.63715 0.0
C1446 C 0.01117 0.29853 0.69398 0.0
C1447 C 0.02583 0.30396 0.60647 0.0
C1448 C 0.96624 0.29348 0.64417 0.0
C1449 C 0.95944 0.31168 0.64725 0.0
C1450 C 0.98558 0.28994 0.64331 0.0
C1451 C 0.99833 0.30494 0.64571 0.0
C1452 C 0.99145 0.32343 0.64708 0.0
C1453 C 0.97215 0.32655 0.64772 0.0
C1454 C 0.99232 0.27005 0.64137 0.0
C1455 C 0.00445 0.3399 0.64958 0.0
H1456 H 0.04854 0.29774 0.69656 0.0
H1457 H 0.0612 0.3033 0.62315 0.0
H1458 H 0.00362 0.31201 0.69539 0.0
H1459 H 1.00063 0.28748 0.69089 0.0
H1460 H 0.0182 0.29571 0.71102 0.0
H1461 H 0.03749 0.30119 0.59409 0.0
H1462 H 0.01422 0.29421 0.60254 0.0
H1463 H 0.02063 0.31833 0.6033 0.0
H1464 H 0.95652 0.28191 0.64374 0.0
H1465 H 0.96698 0.34069 0.64948 0.0
H1466 H 0.99725 0.2652 0.65882 0.0
H1467 H 0.00425 0.26905 0.62901 0.0
H1468 H 0.98108 0.2605 0.63536 0.0
H1469 H 0.01147 0.33928 0.66695 0.0
H1470 H 0.997 0.35345 0.64819 0.0
H1471 H 0.01548 0.33943 0.63591 0.0
C1472 C 0.70379 0.04603 0.65289 0.0
C1473 C 0.71517 0.05343 0.67066 0.0
C1474 C 0.70148 0.02659 0.65042 0.0
C1475 C 0.71079 0.01431 0.66606 0.0
C1476 C 0.72301 0.02172 0.68321 0.0
C1477 C 0.72505 0.04112 0.68527 0.0
C1478 C 0.6884 0.01926 0.63182 0.0
C1479 C 0.73333 0.00919 0.70018 0.0
C1480 C 0.68994 0.96791 0.68443 0.0
C1481 C 0.70162 0.95505 0.67306 0.0
C1482 C 0.69218 0.9872 0.6813 0.0
C1483 C 0.70646 0.99391 0.66633 0.0
C1484 C 0.71764 0.98101 0.65373 0.0
C1485 C 0.71507 0.9617 0.65723 0.0
C1486 C 0.67984 1.0004 0.69499 0.0
C1487 C 0.73291 0.98758 0.63748 0.0
H1488 H 0.6961 0.05544 0.64156 0.0
H1489 H 0.73421 0.0467 0.69866 0.0
H1490 H 0.69502 0.00765 0.62195 0.0
H1491 H 0.67567 0.0136 0.64032 0.0
H1492 H 0.68416 0.0303 0.61918 0.0
H1493 H 0.74336 0.01704 0.71129 0.0
H1494 H 0.72319 1.00206 0.71187 0.0
H1495 H 0.74105 0.99822 0.69046 0.0
H1496 H 0.67922 0.96288 0.69625 0.0
H1497 H 0.72415 0.95185 0.6484 0.0
H1498 H 0.67356 0.01092 0.68307 0.0
H1499 H 0.68833 0.00804 0.70814 0.0
H1500 H 0.66844 0.99299 0.70437 0.0
H1501 H 0.72768 0.99872 0.62563 0.0
H1502 H 0.73863 0.97602 0.62663 0.0
H1503 H 0.74444 0.99364 0.648 0.0
C1504 C 0.53912 0.77588 0.89868 0.0
C1505 C 0.55104 0.79136 0.89696 0.0
C1506 C 0.51966 0.77792 0.89789 0.0
C1507 C 0.51177 0.79594 0.89548 0.0
C1508 C 0.52364 0.81174 0.89484 0.0
C1509 C 0.54313 0.80927 0.89555 0.0
C1510 C 0.50756 0.76068 0.89869 0.0
C1511 C 0.5158 0.8312 0.89243 0.0
C1512 C 0.46483 0.79644 0.86462 0.0
C1513 C 0.45225 0.79705 0.88351 0.0
C1514 C 0.48417 0.79679 0.86827 0.0
C1515 C 0.49126 0.79791 0.89145 0.0
C1516 C 0.47868 0.79943 0.91059 0.0
C1517 C 0.45931 0.79897 0.9064 0.0
C1518 C 0.49703 0.79522 0.84731 0.0
C1519 C 0.48567 0.80079 0.93554 0.0
H1520 H 0.54501 0.76203 0.90036 0.0
H1521 H 0.55216 0.82132 0.89412 0.0
H1522 H 0.49676 0.7621 0.91254 0.0
H1523 H 0.5002 0.75901 0.88166 0.0
H1524 H 0.51576 0.74781 0.90215 0.0
H1525 H 0.52665 0.84209 0.89491 0.0
H1526 H 0.50963 0.83294 0.87468 0.0
H1527 H 0.50449 0.8335 0.90542 0.0
H1528 H 0.45954 0.79543 0.84684 0.0
H1529 H 0.44972 0.79942 0.9211 0.0
H1530 H 0.50495 0.78194 0.8483 0.0
H1531 H 0.50732 0.80677 0.84741 0.0
H1532 H 0.48933 0.79556 0.83036 0.0
H1533 H 0.49228 0.7874 0.9407 0.0
H1534 H 0.47426 0.80392 0.94817 0.0
H1535 H 0.49647 0.81181 0.93699 0.0
C1536 C 0.19572 0.46237 0.89276 0.0
C1537 C 0.20905 0.45486 0.87738 0.0
C1538 C 0.19345 0.48184 0.895 0.0
C1539 C 0.20487 0.49404 0.88163 0.0
C1540 C 0.21898 0.48648 0.86705 0.0
C1541 C 0.22087 0.46705 0.8651 0.0
C1542 C 0.17827 0.48931 0.91077 0.0
C1543 C 0.23159 0.4989 0.85263 0.0
C1544 C 0.18742 0.54109 0.86029 0.0
C1545 C 0.1975 0.55359 0.87439 0.0
C1546 C 0.18901 0.52172 0.86329 0.0
C1547 C 0.20102 0.51453 0.88085 0.0
C1548 C 0.21055 0.52706 0.89595 0.0
C1549 C 0.20864 0.54646 0.89257 0.0
C1550 C 0.17845 0.50894 0.8469 0.0
C1551 C 0.22344 0.51998 0.91493 0.0
H1552 H 0.18653 0.45304 0.90226 0.0
H1553 H 0.23147 0.46135 0.85359 0.0
H1554 H 0.18376 0.50062 0.92214 0.0
H1555 H 0.16698 0.49541 0.89986 0.0
H1556 H 0.17216 0.47825 0.92209 0.0
H1557 H 0.24281 0.49092 0.84366 0.0
H1558 H 0.22325 0.50629 0.83908 0.0
H1559 H 0.23811 0.50968 0.86396 0.0
H1560 H 0.17845 0.54649 0.84657 0.0
H1561 H 0.2165 0.55602 0.90349 0.0
H1562 H 0.17051 0.4984 0.8571 0.0
H1563 H 0.18845 0.50128 0.83555 0.0
H1564 H 0.16858 0.51669 0.83543 0.0
H1565 H 0.21652 0.5089 0.9254 0.0
H1566 H 0.22799 0.5313 0.92696 0.0
H1567 H 0.236 0.51368 0.90673 0.0
C1568 C 0.47395 0.22334 0.86783 0.0
C1569 C 0.46147 0.21379 0.88258 0.0
C1570 C 0.49332 0.2215 0.87044 0.0
C1571 C 0.50058 0.21003 0.88853 0.0
C1572 C 0.48814 0.20121 0.90439 0.0
C1573 C 0.46874 0.2031 0.90116 0.0
C1574 C 0.50601 0.23115 0.85306 0.0
C1575 C 0.4953 0.18913 0.92417 0.0
C1576 C 0.54736 0.18844 0.87328 0.0
C1577 C 0.56002 0.20097 0.88357 0.0
C1578 C 0.52804 0.19079 0.87566 0.0
C1579 C 0.52101 0.20588 0.88906 0.0
C1580 C 0.53366 0.21786 0.90085 0.0
C1581 C 0.55302 0.21533 0.89788 0.0
C1582 C 0.51514 0.17765 0.86274 0.0
C1583 C 0.52675 0.23388 0.9157 0.0
H1584 H 0.46859 0.23208 0.85385 0.0
H1585 H 0.45933 0.19565 0.9127 0.0
H1586 H 0.51661 0.23959 0.86245 0.0
H1587 H 0.51359 0.22055 0.84251 0.0
H1588 H 0.49824 0.24043 0.84085 0.0
H1589 H 0.48413 0.18553 0.93693 0.0
H1590 H 0.50106 0.17598 0.91687 0.0
H1591 H 0.50677 0.19628 0.93367 0.0
H1592 H 0.55257 0.17698 0.86277 0.0
H1593 H 0.56262 0.22507 0.90595 0.0
H1594 H 0.50746 0.18546 0.84893 0.0
H1595 H 0.50464 0.17175 0.87497 0.0
H1596 H 0.52277 0.16595 0.85425 0.0
H1597 H 0.52091 0.24491 0.90415 0.0
H1598 H 0.53808 0.24011 0.92646 0.0
H1599 H 0.5154 0.22919 0.92757 0.0
C1600 C 0.81996 0.46461 0.8683 0.0
C1601 C 0.81066 0.45237 0.88359 0.0
C1602 C 0.81606 0.48378 0.86816 0.0
C1603 C 0.80245 0.49104 0.8837 0.0
C1604 C 0.79287 0.4788 0.89911 0.0
C1605 C 0.79705 0.45957 0.89882 0.0
C1606 C 0.82648 0.49626 0.85124 0.0
C1607 C 0.77829 0.48602 0.91594 0.0
C1608 C 0.80639 0.54348 0.89322 0.0
C1609 C 0.79383 0.55034 0.8764 0.0
C1610 C 0.80866 0.52416 0.89672 0.0
C1611 C 0.79809 0.51141 0.88311 0.0
C1612 C 0.7847 0.51829 0.86701 0.0
C1613 C 0.78274 0.53762 0.86387 0.0
C1614 C 0.82307 0.5174 0.9141 0.0
C1615 C 0.77306 0.50523 0.85223 0.0
H1616 H 0.83021 0.45915 0.85614 0.0
H1617 H 0.78992 0.45023 0.9108 0.0
H1618 H 0.8165 0.5032 0.83917 0.0
H1619 H 0.83388 0.5074 0.86105 0.0
H1620 H 0.83684 0.48845 0.84055 0.0
H1621 H 0.77213 0.47472 0.92683 0.0
H1622 H 0.78454 0.49661 0.92778 0.0
H1623 H 0.76694 0.49304 0.90605 0.0
H1624 H 0.81503 0.55318 0.90292 0.0
H1625 H 0.77269 0.5428 0.85125 0.0
H1626 H 0.83488 0.51094 0.90448 0.0
H1627 H 0.81705 0.50653 0.92574 0.0
H1628 H 0.82858 0.52892 0.92516 0.0
H1629 H 0.78217 0.49781 0.83952 0.0
H1630 H 0.76205 0.51272 0.84225 0.0
H1631 H 0.76636 0.49449 0.86346 0.0
C1632 C 0.47235 0.2243 0.16923 0.0
C1633 C 0.45938 0.21105 0.16138 0.0
C1634 C 0.49157 0.22142 0.16668 0.0
C1635 C 0.4981 0.20488 0.15583 0.0
C1636 C 0.48508 0.19199 0.14646 0.0
C1637 C 0.46583 0.19522 0.14936 0.0
C1638 C 0.50488 0.23563 0.17684 0.0
C1639 C 0.49147 0.17431 0.1345 0.0
C1640 C 0.55024 0.20566 0.14318 0.0
C1641 C 0.55739 0.19758 0.16378 0.0
C1642 C 0.53086 0.2071 0.13951 0.0
C1643 C 0.5184 0.20038 0.15689 0.0
C1644 C 0.52557 0.19121 0.177 0.0
C1645 C 0.54492 0.18987 0.18012 0.0
C1646 C 0.52377 0.21673 0.11767 0.0
C1647 C 0.51284 0.18377 0.19598 0.0
H1648 H 0.46744 0.2368 0.17799 0.0
H1649 H 0.45587 0.18495 0.14323 0.0
H1650 H 0.5125 0.22938 0.19189 0.0
H1651 H 0.5154 0.23975 0.16352 0.0
H1652 H 0.4976 0.24839 0.18308 0.0
H1653 H 0.47991 0.16729 0.12499 0.0
H1654 H 0.50289 0.17732 0.12189 0.0
H1655 H 0.49706 0.1645 0.14785 0.0
H1656 H 0.55974 0.21165 0.13044 0.0
H1657 H 0.55032 0.18316 0.19577 0.0
H1658 H 0.51842 0.23078 0.12237 0.0
H1659 H 0.51203 0.2088 0.10983 0.0
H1660 H 0.5349 0.21841 0.10424 0.0
H1661 H 0.50565 0.19557 0.20479 0.0
H1662 H 0.52053 0.17565 0.20951 0.0
H1663 H 0.50193 0.1747 0.18821 0.0
C1664 C 0.81433 0.54499 0.17316 0.0
C1665 C 0.8027 0.55692 0.16016 0.0
C1666 C 0.81326 0.52552 0.17083 0.0
C1667 C 0.80039 0.51761 0.15482 0.0
C1668 C 0.78949 0.52957 0.14044 0.0
C1669 C 0.79072 0.54909 0.14332 0.0
C1670 C 0.82519 0.51342 0.18655 0.0
C1671 C 0.77585 0.52173 0.12285 0.0
C1672 C 0.80664 0.46518 0.14544 0.0
C1673 C 0.79416 0.45784 0.1621 0.0
C1674 C 0.80814 0.48461 0.14183 0.0
C1675 C 0.79703 0.497 0.15532 0.0
C1676 C 0.78382 0.48961 0.1713 0.0
C1677 C 0.78247 0.47022 0.17434 0.0
C1678 C 0.82219 0.49188 0.12434 0.0
C1679 C 0.77166 0.50222 0.18609 0.0
H1680 H 0.82401 0.55088 0.18573 0.0
H1681 H 0.7817 0.55815 0.13316 0.0
H1682 H 0.81615 0.50568 0.19904 0.0
H1683 H 0.83287 0.50293 0.17598 0.0
H1684 H 0.83544 0.52169 0.19683 0.0
H1685 H 0.77063 0.53261 0.11057 0.0
H1686 H 0.7824 0.51036 0.11249 0.0
H1687 H 0.76374 0.51565 0.13228 0.0
H1688 H 0.81572 0.45581 0.13584 0.0
H1689 H 0.7724 0.46476 0.18673 0.0
H1690 H 0.83406 0.4983 0.13386 0.0
H1691 H 0.81587 0.50289 0.11315 0.0
H1692 H 0.8277 0.48062 0.11284 0.0
H1693 H 0.78052 0.51042 0.19829 0.0
H1694 H 0.7613 0.49429 0.19664 0.0
H1695 H 0.76409 0.51229 0.17476 0.0
C1696 C 0.4593 0.80838 0.14808 0.0
C1697 C 0.45174 0.79714 0.16584 0.0
C1698 C 0.47877 0.80981 0.14513 0.0
C1699 C 0.49086 0.79956 0.16009 0.0
C1700 C 0.48315 0.78712 0.17681 0.0
C1701 C 0.46373 0.78617 0.17957 0.0
C1702 C 0.48637 0.8233 0.12715 0.0
C1703 C 0.49542 0.77571 0.19292 0.0
C1704 C 0.54348 0.7974 0.14912 0.0
C1705 C 0.55004 0.81115 0.16465 0.0
C1706 C 0.52424 0.79359 0.14707 0.0
C1707 C 0.51126 0.8038 0.16082 0.0
C1708 C 0.51783 0.81767 0.17645 0.0
C1709 C 0.53703 0.82105 0.17828 0.0
C1710 C 0.51779 0.77859 0.13034 0.0
C1711 C 0.50457 0.82886 0.19158 0.0
H1712 H 0.45004 0.81689 0.13751 0.0
H1713 H 0.45787 0.77723 0.19305 0.0
H1714 H 0.49227 0.83564 0.13629 0.0
H1715 H 0.49783 0.81677 0.11694 0.0
H1716 H 0.47542 0.82817 0.11477 0.0
H1717 H 0.48739 0.76492 0.20263 0.0
H1718 H 0.50667 0.76874 0.1828 0.0
H1719 H 0.50219 0.78505 0.20593 0.0
H1720 H 0.55334 0.78976 0.13839 0.0
H1721 H 0.54183 0.83138 0.19075 0.0
H1722 H 0.50771 0.7845 0.11756 0.0
H1723 H 0.51042 0.76746 0.14022 0.0
H1724 H 0.52955 0.77219 0.12051 0.0
H1725 H 0.4939 0.83575 0.18043 0.0
H1726 H 0.51184 0.83974 0.20203 0.0
H1727 H 0.49712 0.81943 0.20388 0.0
C1728 C 0.21409 0.4684 0.1732 0.0
C1729 C 0.20365 0.45527 0.1605 0.0
C1730 C 0.21234 0.48759 0.16893 0.0
C1731 C 0.19992 0.49396 0.15132 0.0
C1732 C 0.19028 0.48075 0.13728 0.0
C1733 C 0.19224 0.46152 0.14207 0.0
C1734 C 0.223 0.50108 0.18429 0.0
C1735 C 0.17715 0.48693 0.11809 0.0
C1736 C 0.17972 0.54113 0.16718 0.0
C1737 C 0.19178 0.55343 0.15549 0.0
C1738 C 0.18145 0.52174 0.16471 0.0
C1739 C 0.19551 0.51432 0.14993 0.0
C1740 C 0.20679 0.52667 0.13659 0.0
C1741 C 0.20483 0.54612 0.13957 0.0
C1742 C 0.16904 0.5092 0.17925 0.0
C1743 C 0.22171 0.51936 0.12031 0.0
H1744 H 0.22334 0.46366 0.18702 0.0
H1745 H 0.18419 0.45146 0.13213 0.0
H1746 H 0.23068 0.5113 0.17331 0.0
H1747 H 0.21308 0.50904 0.19542 0.0
H1748 H 0.23313 0.49388 0.19597 0.0
H1749 H 0.17332 0.47522 0.10623 0.0
H1750 H 0.1642 0.49254 0.12607 0.0
H1751 H 0.18349 0.49827 0.10747 0.0
H1752 H 0.16929 0.5467 0.17904 0.0
H1753 H 0.21418 0.55551 0.13042 0.0
H1754 H 0.17752 0.50205 0.19287 0.0
H1755 H 0.16267 0.49824 0.16807 0.0
H1756 H 0.1577 0.51706 0.18816 0.0
H1757 H 0.23371 0.51429 0.13083 0.0
H1758 H 0.22679 0.53033 0.10808 0.0
H1759 H 0.21642 0.50739 0.10988 0.0
C1760 C 0.15573 0.32293 0.47509 0.0
C1761 C 0.14052 0.31685 0.46157 0.0
C1762 C 0.15442 0.32467 0.49973 0.0
C1763 C 0.13764 0.31974 0.51136 0.0
C1764 C 0.12209 0.31402 0.49773 0.0
C1765 C 0.12364 0.31286 0.47304 0.0
C1766 C 0.17121 0.3313 0.51337 0.0
C1767 C 0.10402 0.3083 0.50929 0.0
C1768 C 0.14096 0.30326 0.57522 0.0
C1769 C 0.13383 0.31859 0.58771 0.0
C1770 C 0.14224 0.30347 0.5505 0.0
C1771 C 0.13667 0.31957 0.53778 0.0
C1772 C 0.12997 0.3353 0.55034 0.0
C1773 C 0.12841 0.33454 0.57505 0.0
C1774 C 0.14915 0.28624 0.53793 0.0
C1775 C 0.12432 0.35292 0.53764 0.0
H1776 H 0.16882 0.32608 0.46642 0.0
H1777 H 0.11187 0.30794 0.46283 0.0
H1778 H 0.16721 0.34278 0.52544 0.0
H1779 H 0.17671 0.31973 0.52433 0.0
H1780 H 0.18257 0.33629 0.50166 0.0
H1781 H 0.093 0.30489 0.49626 0.0
H1782 H 0.10645 0.29586 0.52053 0.0
H1783 H 0.09886 0.31962 0.52088 0.0
H1784 H 0.14501 0.29079 0.58474 0.0
H1785 H 0.12292 0.34648 0.58449 0.0
H1786 H 0.16165 0.28965 0.52728 0.0
H1787 H 0.13828 0.28112 0.52565 0.0
H1788 H 0.15279 0.27479 0.5503 0.0
H1789 H 0.13595 0.35788 0.52638 0.0
H1790 H 0.12036 0.36428 0.54996 0.0
H1791 H 0.11232 0.35003 0.52591 0.0
C1792 C 0.70381 0.12278 0.5746 0.0
C1793 C 0.69901 0.13938 0.58626 0.0
C1794 C 0.70167 0.12094 0.55006 0.0
C1795 C 0.69415 0.13591 0.53675 0.0
C1796 C 0.68868 0.15247 0.54855 0.0
C1797 C 0.69138 0.15408 0.57304 0.0
C1798 C 0.70801 0.10316 0.53828 0.0
C1799 C 0.68021 0.16861 0.53525 0.0
C1800 C 0.70636 0.13879 0.47135 0.0
C1801 C 0.69087 0.13029 0.46068 0.0
C1802 C 0.70754 0.14076 0.49596 0.0
C1803 C 0.6927 0.13447 0.51043 0.0
C1804 C 0.67677 0.12641 0.4997 0.0
C1805 C 0.67615 0.12421 0.47506 0.0
C1806 C 0.72495 0.14911 0.50653 0.0
C1807 C 0.66043 0.11993 0.5143 0.0
H1808 H 0.70984 0.11137 0.58455 0.0
H1809 H 0.68754 0.16694 0.58183 0.0
H1810 H 0.69633 0.09686 0.52828 0.0
H1811 H 0.71927 0.10633 0.52551 0.0
H1812 H 0.71329 0.0927 0.55109 0.0
H1813 H 0.67546 0.17996 0.54714 0.0
H1814 H 0.69059 0.17445 0.52281 0.0
H1815 H 0.66814 0.16374 0.5247 0.0
H1816 H 0.71791 0.14339 0.4605 0.0
H1817 H 0.6641 0.11768 0.46704 0.0
H1818 H 0.73167 0.13882 0.51841 0.0
H1819 H 0.72133 0.16149 0.5173 0.0
H1820 H 0.73523 0.15339 0.49294 0.0
H1821 H 0.66483 0.10832 0.52596 0.0
H1822 H 0.64861 0.11505 0.50328 0.0
H1823 H 0.65547 0.13144 0.52576 0.0
C1824 C 0.87881 0.70033 0.46549 0.0
C1825 C 0.86263 0.69585 0.45278 0.0
C1826 C 0.87963 0.69815 0.49012 0.0
C1827 C 0.86404 0.69089 0.50247 0.0
C1828 C 0.84786 0.68581 0.48964 0.0
C1829 C 0.84727 0.68856 0.46508 0.0
C1830 C 0.89705 0.70406 0.503 0.0
C1831 C 0.83109 0.67761 0.50189 0.0
C1832 C 0.87364 0.67166 0.56414 0.0
C1833 C 0.86759 0.68633 0.57866 0.0
C1834 C 0.87201 0.67269 0.53946 0.0
C1835 C 0.86457 0.68898 0.52882 0.0
C1836 C 0.85818 0.70371 0.54342 0.0
C1837 C 0.85957 0.70213 0.56808 0.0
C1838 C 0.87858 0.65644 0.52474 0.0
C1839 C 0.85045 0.72147 0.53296 0.0
H1840 H 0.89071 0.70612 0.45627 0.0
H1841 H 0.83472 0.68498 0.45548 0.0
H1842 H 0.89358 0.71512 0.51595 0.0
H1843 H 0.90289 0.69211 0.51297 0.0
H1844 H 0.90796 0.70946 0.49092 0.0
H1845 H 0.82 0.67341 0.48932 0.0
H1846 H 0.83529 0.6652 0.51231 0.0
H1847 H 0.82517 0.68794 0.51434 0.0
H1848 H 0.87982 0.65938 0.57209 0.0
H1849 H 0.85503 0.71363 0.57905 0.0
H1850 H 0.89072 0.66074 0.51393 0.0
H1851 H 0.8674 0.65204 0.51245 0.0
H1852 H 0.88272 0.64426 0.53565 0.0
H1853 H 0.86129 0.7283 0.52199 0.0
H1854 H 0.84577 0.73151 0.54663 0.0
H1855 H 0.83849 0.71827 0.52129 0.0
C1856 C 0.32843 0.85578 0.57064 0.0
C1857 C 0.32235 0.87067 0.58477 0.0
C1858 C 0.32887 0.85724 0.54591 0.0
C1859 C 0.32266 0.87385 0.53482 0.0
C1860 C 0.31697 0.88911 0.54903 0.0
C1861 C 0.31706 0.88741 0.57376 0.0
C1862 C 0.33548 0.84076 0.53163 0.0
C1863 C 0.30997 0.90698 0.5381 0.0
C1864 C 0.3344 0.8838 0.47025 0.0
C1865 C 0.31816 0.87787 0.4586 0.0
C1866 C 0.33622 0.88224 0.49488 0.0
C1867 C 0.3213 0.87495 0.50844 0.0
C1868 C 0.30492 0.86885 0.49675 0.0
C1869 C 0.30363 0.8702 0.47205 0.0
C1870 C 0.35409 0.88853 0.50643 0.0
C1871 C 0.28853 0.86125 0.51039 0.0
H1872 H 0.33255 0.84279 0.57892 0.0
H1873 H 0.31211 0.89892 0.58443 0.0
H1874 H 0.32366 0.83492 0.52144 0.0
H1875 H 0.34625 0.84525 0.51881 0.0
H1876 H 0.34139 0.82951 0.54283 0.0
H1877 H 0.30673 0.91781 0.55147 0.0
H1878 H 0.32049 0.91266 0.52572 0.0
H1879 H 0.29715 0.90411 0.52779 0.0
H1880 H 0.34574 0.8897 0.46009 0.0
H1881 H 0.29096 0.86573 0.46335 0.0
H1882 H 0.36001 0.87701 0.51715 0.0
H1883 H 0.35121 0.90032 0.51853 0.0
H1884 H 0.36471 0.89306 0.49341 0.0
H1885 H 0.29287 0.84884 0.5207 0.0
H1886 H 0.27675 0.85722 0.49878 0.0
H1887 H 0.28352 0.87188 0.52309 0.0
C1888 C 0.12945 0.67163 0.47018 0.0
C1889 C 0.13261 0.68794 0.45704 0.0
C1890 C 0.13053 0.67165 0.49493 0.0
C1891 C 0.13449 0.68848 0.50704 0.0
C1892 C 0.13799 0.70493 0.49385 0.0
C1893 C 0.1372 0.70441 0.46909 0.0
C1894 C 0.12714 0.6537 0.50816 0.0
C1895 C 0.14201 0.72325 0.50593 0.0
C1896 C 0.11821 0.69435 0.57074 0.0
C1897 C 0.135 0.69282 0.58329 0.0
C1898 C 0.1178 0.69272 0.54603 0.0
C1899 C 0.13452 0.68907 0.53347 0.0
C1900 C 0.15135 0.68669 0.54618 0.0
C1901 C 0.15143 0.6888 0.57082 0.0
C1902 C 0.09957 0.69563 0.53328 0.0
C1903 C 0.16942 0.68234 0.53369 0.0
H1904 H 0.12593 0.65881 0.4611 0.0
H1905 H 0.1395 0.71714 0.4592 0.0
H1906 H 0.13891 0.65086 0.52031 0.0
H1907 H 0.11436 0.65502 0.51902 0.0
H1908 H 0.12547 0.64157 0.49619 0.0
H1909 H 0.14463 0.73473 0.49322 0.0
H1910 H 0.13003 0.72719 0.51724 0.0
H1911 H 0.15437 0.72183 0.51752 0.0
H1912 H 0.10547 0.69765 0.58012 0.0
H1913 H 0.16447 0.68754 0.58032 0.0
H1914 H 0.09642 0.6834 0.52203 0.0
H1915 H 0.10069 0.70796 0.52154 0.0
H1916 H 0.08772 0.69786 0.54555 0.0
H1917 H 0.16761 0.67008 0.52198 0.0
H1918 H 0.18098 0.6794 0.54616 0.0
H1919 H 0.17349 0.69432 0.52245 0.0
C1920 C 0.33584 0.11925 0.47982 0.0
C1921 C 0.32505 0.1304 0.46469 0.0
C1922 C 0.33395 0.12038 0.50442 0.0
C1923 C 0.32098 0.13304 0.5144 0.0
C1924 C 0.31076 0.14505 0.4993 0.0
C1925 C 0.31286 0.14356 0.47469 0.0
C1926 C 0.34511 0.10723 0.51968 0.0
C1927 C 0.29689 0.15886 0.50909 0.0
C1928 C 0.29863 0.11814 0.57222 0.0
C1929 C 0.30854 0.12852 0.58907 0.0
C1930 C 0.30245 0.11969 0.54808 0.0
C1931 C 0.31654 0.13204 0.5402 0.0
C1932 C 0.32652 0.14275 0.557 0.0
C1933 C 0.32246 0.14083 0.58124 0.0
C1934 C 0.29149 0.10785 0.53099 0.0
C1935 C 0.34156 0.15616 0.54937 0.0
H1936 H 0.34538 0.10908 0.47243 0.0
H1937 H 0.30448 0.15231 0.46328 0.0
H1938 H 0.35202 0.115 0.53412 0.0
H1939 H 0.33562 0.09688 0.52788 0.0
H1940 H 0.35592 0.09959 0.50952 0.0
H1941 H 0.2918 0.16874 0.49547 0.0
H1942 H 0.28473 0.15124 0.5164 0.0
H1943 H 0.30321 0.16695 0.52367 0.0
H1944 H 0.28785 0.10855 0.57789 0.0
H1945 H 0.33018 0.14896 0.59401 0.0
H1946 H 0.30109 0.09854 0.52114 0.0
H1947 H 0.28437 0.11689 0.51793 0.0
H1948 H 0.28083 0.0991 0.53989 0.0
H1949 H 0.35292 0.14843 0.54039 0.0
H1950 H 0.3476 0.16398 0.56441 0.0
H1951 H 0.33583 0.1663 0.53652 0.0
C1952 C 0.85535 0.33192 0.47026 0.0
C1953 C 0.87078 0.32613 0.4569 0.0
C1954 C 0.85644 0.33365 0.4949 0.0
C1955 C 0.87325 0.32908 0.50667 0.0
C1956 C 0.88903 0.32372 0.49321 0.0
C1957 C 0.88766 0.32249 0.46853 0.0
C1958 C 0.8394 0.33986 0.50839 0.0
C1959 C 0.90716 0.31844 0.50496 0.0
C1960 C 0.88217 0.34422 0.5702 0.0
C1961 C 0.87746 0.32808 0.5829 0.0
C1962 C 0.88036 0.34495 0.54553 0.0
C1963 C 0.8741 0.32902 0.53307 0.0
C1964 C 0.86904 0.31278 0.54584 0.0
C1965 C 0.8706 0.31257 0.57054 0.0
C1966 C 0.88547 0.3627 0.53276 0.0
C1967 C 0.86254 0.29536 0.53335 0.0
H1968 H 0.84224 0.33479 0.46146 0.0
H1969 H 0.89961 0.3178 0.45845 0.0
H1970 H 0.83416 0.32816 0.51934 0.0
H1971 H 0.84301 0.35146 0.52047 0.0
H1972 H 0.82797 0.34453 0.49659 0.0
H1973 H 0.91833 0.31523 0.49204 0.0
H1974 H 0.91199 0.32993 0.51651 0.0
H1975 H 0.90497 0.306 0.51626 0.0
H1976 H 0.88745 0.3563 0.57954 0.0
H1977 H 0.86709 0.29996 0.5801 0.0
H1978 H 0.87379 0.3672 0.52129 0.0
H1979 H 0.8977 0.36017 0.52124 0.0
H1980 H 0.8889 0.37425 0.54504 0.0
H1981 H 0.8501 0.29851 0.52247 0.0
H1982 H 0.85897 0.28394 0.54578 0.0
H1983 H 0.87364 0.29034 0.5213 0.0
C1984 C 0.69681 0.88064 0.58375 0.0
C1985 C 0.69079 0.8648 0.5962 0.0
C1986 C 0.69524 0.88171 0.5591 0.0
C1987 C 0.68719 0.86671 0.5464 0.0
C1988 C 0.68087 0.85079 0.55887 0.0
C1989 C 0.68287 0.84996 0.58352 0.0
C1990 C 0.70239 0.89888 0.5466 0.0
C1991 C 0.67194 0.83461 0.54616 0.0
C1992 C 0.66882 0.87881 0.48517 0.0
C1993 C 0.68334 0.87264 0.47051 0.0
C1994 C 0.66959 0.87638 0.50973 0.0
C1995 C 0.6854 0.86781 0.52011 0.0
C1996 C 0.69988 0.8611 0.50536 0.0
C1997 C 0.69862 0.86346 0.48079 0.0
C1998 C 0.65367 0.88345 0.52465 0.0
C1999 C 0.71708 0.85207 0.51559 0.0
H2000 H 0.70305 0.89216 0.59326 0.0
H2001 H 0.67811 0.83768 0.59289 0.0
H2002 H 0.71315 0.89485 0.53352 0.0
H2003 H 0.69086 0.9057 0.53684 0.0
H2004 H 0.70854 0.9092 0.55892 0.0
H2005 H 0.66741 0.82339 0.55838 0.0
H2006 H 0.65963 0.83955 0.5361 0.0
H2007 H 0.6819 0.82859 0.5333 0.0
H2008 H 0.65692 0.88587 0.47746 0.0
H2009 H 0.70999 0.85875 0.46972 0.0
H2010 H 0.65856 0.89513 0.53586 0.0
H2011 H 0.64865 0.87225 0.53654 0.0
H2012 H 0.64176 0.88846 0.51386 0.0
H2013 H 0.72468 0.86233 0.52662 0.0
H2014 H 0.72671 0.84683 0.50178 0.0
H2015 H 0.71312 0.84025 0.52716 0.0
C2016 C 0.62887 0.844 0.08242 0.0
C2017 C 0.63285 0.82735 0.09452 0.0
C2018 C 0.6299 0.845 0.05771 0.0
C2019 C 0.63486 0.82894 0.0446 0.0
C2020 C 0.63924 0.81219 0.05672 0.0
C2021 C 0.63827 0.81162 0.08146 0.0
C2022 C 0.62536 0.86321 0.04561 0.0
C2023 C 0.64453 0.7947 0.0435 0.0
C2024 C 0.61979 0.8244 0.98037 0.0
C2025 C 0.63654 0.82779 0.96829 0.0
C2026 C 0.61896 0.82511 1.00511 0.0
C2027 C 0.6352 0.82951 1.01822 0.0
C2028 C 0.65192 0.83377 1.00607 0.0
C2029 C 0.65241 0.83277 0.98135 0.0
C2030 C 0.60084 0.82041 1.01727 0.0
C2031 C 0.66949 0.8388 1.01923 0.0
H2032 H 0.6247 0.85626 0.09225 0.0
H2033 H 0.6413 0.79866 0.09054 0.0
H2034 H 0.63709 0.86744 0.03405 0.0
H2035 H 0.61292 0.86142 0.03426 0.0
H2036 H 0.62256 0.87465 0.05831 0.0
H2037 H 0.64782 0.78289 0.05546 0.0
H2038 H 0.63292 0.79048 0.03176 0.0
H2039 H 0.65685 0.79742 0.0322 0.0
H2040 H 0.60748 0.8204 0.97055 0.0
H2041 H 0.66543 0.83544 0.97226 0.0
H2042 H 0.59683 0.8318 0.02948 0.0
H2043 H 0.60265 0.80757 0.02795 0.0
H2044 H 0.58926 0.81813 1.00463 0.0
H2045 H 0.6667 0.85037 0.03171 0.0
H2046 H 0.68095 0.84306 1.00723 0.0
H2047 H 0.67426 0.82665 0.02972 0.0
C2048 C 0.18765 0.6231 0.96706 0.0
C2049 C 0.1843 0.6403 0.95599 0.0
C2050 C 0.18647 0.62119 0.99169 0.0
C2051 C 0.18142 0.63676 1.00573 0.0
C2052 C 0.17736 0.65399 0.99456 0.0
C2053 C 0.17905 0.65561 0.96994 0.0
C2054 C 0.19124 0.60264 1.00277 0.0
C2055 C 0.17153 0.67086 1.00867 0.0
C2056 C 0.16512 0.62698 0.06871 0.0
C2057 C 0.18112 0.63122 0.08192 0.0
C2058 C 0.16487 0.62909 0.04404 0.0
C2059 C 0.18112 0.63521 0.03209 0.0
C2060 C 0.19728 0.63958 0.04537 0.0
C2061 C 0.19702 0.63773 0.07003 0.0
C2062 C 0.14721 0.62466 0.03073 0.0
C2063 C 0.21503 0.64584 0.03346 0.0
H2064 H 0.19186 0.61121 0.95653 0.0
H2065 H 0.17635 0.66895 0.96161 0.0
H2066 H 0.20347 0.60429 1.01453 0.0
H2067 H 0.17946 0.59768 1.01376 0.0
H2068 H 0.19451 0.59178 0.98946 0.0
H2069 H 0.16756 0.68283 0.9973 0.0
H2070 H 0.15953 0.6673 1.02015 0.0
H2071 H 0.18314 0.67528 1.02028 0.0
H2072 H 0.15274 0.622 0.07767 0.0
H2073 H 0.20952 0.6409 0.07996 0.0
H2074 H 0.1497 0.61282 1.01857 0.0
H2075 H 0.143 0.63682 1.01987 0.0
H2076 H 0.13549 0.62095 0.04263 0.0
H2077 H 0.2198 0.63495 1.02096 0.0
H2078 H 0.22641 0.64864 0.04621 0.0
H2079 H 0.21243 0.65871 1.02312 0.0
C2080 C 0.37954 0.20267 0.07559 0.0
C2081 C 0.38444 0.18663 0.0884 0.0
C2082 C 0.37824 0.20239 0.05092 0.0
C2083 C 0.38158 0.18557 0.03851 0.0
C2084 C 0.38626 0.16923 0.05131 0.0
C2085 C 0.38782 0.16999 0.07604 0.0
C2086 C 0.37347 0.22023 0.03809 0.0
C2087 C 0.38959 0.15092 0.03888 0.0
C2088 C 0.36087 0.18473 0.97668 0.0
C2089 C 0.37635 0.18925 0.96264 0.0
C2090 C 0.36257 0.18252 1.00119 0.0
C2091 C 0.3801 0.18527 1.01217 0.0
C2092 C 0.3959 0.1892 0.998 0.0
C2093 C 0.39387 0.19097 0.97344 0.0
C2094 C 0.34542 0.17793 1.01545 0.0
C2095 C 0.41481 0.19251 1.00889 0.0
H2096 H 0.37704 0.21566 0.08485 0.0
H2097 H 0.39157 0.1575 0.08571 0.0
H2098 H 0.38466 0.22367 0.02531 0.0
H2099 H 0.36039 0.21839 0.02796 0.0
H2100 H 0.37167 0.23224 0.05023 0.0
H2101 H 0.39268 0.13938 0.05133 0.0
H2102 H 0.37713 0.14711 0.02836 0.0
H2103 H 0.40144 0.15231 0.02647 0.0
H2104 H 0.34729 0.18328 0.96853 0.0
H2105 H 0.4059 0.19459 0.96283 0.0
H2106 H 0.34152 0.19013 0.02643 0.0
H2107 H 0.3483 0.16612 0.02755 0.0
H2108 H 0.33332 0.17424 1.00417 0.0
H2109 H 0.41435 0.20536 1.01977 0.0
H2110 H 0.42593 0.19413 0.99545 0.0
H2111 H 0.41858 0.18079 1.0207 0.0
C2112 C 0.82074 0.35163 0.0732 0.0
C2113 C 0.81727 0.36813 0.08582 0.0
C2114 C 0.82276 0.35176 0.04856 0.0
C2115 C 0.82096 0.36875 0.03599 0.0
C2116 C 0.81783 0.38552 0.04867 0.0
C2117 C 0.81618 0.38503 0.07338 0.0
C2118 C 0.82645 0.3336 0.03592 0.0
C2119 C 0.81562 0.40393 0.03606 0.0
C2120 C 0.83936 0.37289 0.97305 0.0
C2121 C 0.82313 0.37033 0.95959 0.0
C2122 C 0.83894 0.37207 0.99781 0.0
C2123 C 0.82181 0.3689 1.00959 0.0
C2124 C 0.80541 0.36606 0.9961 0.0
C2125 C 0.8063 0.36666 0.97134 0.0
C2126 C 0.85681 0.37482 1.01137 0.0
C2127 C 0.78681 0.36281 1.00784 0.0
H2128 H 0.82166 0.33849 0.08259 0.0
H2129 H 0.81334 0.39784 0.08288 0.0
H2130 H 0.81449 0.33019 0.02433 0.0
H2131 H 0.83895 0.33495 0.02454 0.0
H2132 H 0.82866 0.32179 0.04828 0.0
H2133 H 0.8137 0.41578 0.04842 0.0
H2134 H 0.82803 0.40673 0.02496 0.0
H2135 H 0.80336 0.40329 0.02418 0.0
H2136 H 0.85246 0.3757 0.96422 0.0
H2137 H 0.79364 0.36481 0.9612 0.0
H2138 H 0.85919 0.36282 1.02334 0.0
H2139 H 0.85573 0.38751 1.02247 0.0
H2140 H 0.86911 0.37631 0.99964 0.0
H2141 H 0.78757 0.35035 1.01938 0.0
H2142 H 0.77538 0.36074 0.99493 0.0
H2143 H 0.78327 0.37492 1.01916 0.0
C2144 C 0.66146 0.18522 0.06874 0.0
C2145 C 0.64567 0.18916 0.08249 0.0
C2146 C 0.66028 0.18389 0.04405 0.0
C2147 C 0.64299 0.18704 0.03263 0.0
C2148 C 0.62694 0.19074 0.04646 0.0
C2149 C 0.62843 0.19153 0.07116 0.0
C2150 C 0.67766 0.17944 0.03015 0.0
C2151 C 0.60829 0.19455 0.03512 0.0
C2152 C 0.64383 0.20424 0.96895 0.0
C2153 C 0.63843 0.18826 0.95637 0.0
C2154 C 0.64536 0.20401 0.99365 0.0
C2155 C 0.64183 0.18728 1.00624 0.0
C2156 C 0.63688 0.17097 0.99358 0.0
C2157 C 0.63502 0.17171 0.9689 0.0
C2158 C 0.65032 0.22183 1.00634 0.0
C2159 C 0.63342 0.15273 1.00613 0.0
H2160 H 0.67483 0.18329 0.0773 0.0
H2161 H 0.61617 0.19476 0.08155 0.0
H2162 H 0.67502 0.16756 1.0181 0.0
H2163 H 0.68155 0.19161 1.01914 0.0
H2164 H 0.68966 0.17589 0.04167 0.0
H2165 H 0.59705 0.19677 0.04828 0.0
H2166 H 0.60929 0.20716 0.02386 0.0
H2167 H 0.60427 0.18274 0.02359 0.0
H2168 H 0.64633 0.21715 0.95954 0.0
H2169 H 0.6309 0.15927 0.95939 0.0
H2170 H 0.66318 0.2198 1.01685 0.0
H2171 H 0.63899 0.22561 1.01876 0.0
H2172 H 0.65256 0.23369 0.99406 0.0
H2173 H 0.64564 0.14907 1.01718 0.0
H2174 H 0.63069 0.14108 0.99373 0.0
H2175 H 0.62126 0.15415 1.01806 0.0
C2176 C 0.82909 0.62785 0.07012 0.0
C2177 C 0.81298 0.63239 0.08299 0.0
C2178 C 0.82948 0.62916 0.04535 0.0
C2179 C 0.81325 0.63475 0.03294 0.0
C2180 C 0.79697 0.63938 0.04586 0.0
C2181 C 0.79709 0.63833 0.07062 0.0
C2182 C 0.84727 0.62448 0.03245 0.0
C2183 C 0.77925 0.64513 0.03349 0.0
C2184 C 0.81568 0.65364 0.97001 0.0
C2185 C 0.81066 0.63799 0.95655 0.0
C2186 C 0.81719 0.65262 0.99471 0.0
C2187 C 0.81318 0.63564 1.00649 0.0
C2188 C 0.80841 0.61971 0.99295 0.0
C2189 C 0.80739 0.62102 0.96822 0.0
C2190 C 0.82275 0.66987 1.00824 0.0
C2191 C 0.80372 0.60139 1.00467 0.0
H2192 H 0.84147 0.62329 0.07942 0.0
H2193 H 0.7845 0.64172 0.08028 0.0
H2194 H 0.84495 0.61235 1.0207 0.0
H2195 H 0.85151 0.6364 1.02119 0.0
H2196 H 0.85891 0.62111 0.04463 0.0
H2197 H 0.76771 0.64811 0.04598 0.0
H2198 H 0.78178 0.65778 1.0227 0.0
H2199 H 0.77472 0.63389 1.02135 0.0
H2200 H 0.8183 0.66681 0.96123 0.0
H2201 H 0.80335 0.60887 0.95809 0.0
H2202 H 0.83465 0.66668 1.02004 0.0
H2203 H 0.81099 0.6745 1.01948 0.0
H2204 H 0.82674 0.68158 0.99646 0.0
H2205 H 0.81542 0.59683 1.01606 0.0
H2206 H 0.80074 0.59017 0.99173 0.0
H2207 H 0.79132 0.6032 1.01613 0.0
C2208 C 0.35108 0.82024 0.97724 0.0
C2209 C 0.36656 0.81692 0.96268 0.0
C2210 C 0.35292 0.82147 1.00187 0.0
C2211 C 0.37063 0.81892 1.01249 0.0
C2212 C 0.3864 0.81601 0.99784 0.0
C2213 C 0.38422 0.81523 0.97318 0.0
C2214 C 0.33576 0.82503 1.01659 0.0
C2215 C 0.40551 0.81293 1.00827 0.0
C2216 C 0.37843 0.83391 0.07651 0.0
C2217 C 0.37568 0.81713 0.08885 0.0
C2218 C 0.37668 0.83476 0.0518 0.0
C2219 C 0.37245 0.81837 0.03887 0.0
C2220 C 0.36978 0.80138 0.05124 0.0
C2221 C 0.37124 0.801 0.07596 0.0
C2222 C 0.37928 0.85325 0.03952 0.0
C2223 C 0.36553 0.78348 0.0383 0.0
H2224 H 0.33738 0.8216 0.96936 0.0
H2225 H 0.39626 0.81247 0.96219 0.0
H2226 H 0.33264 0.81255 0.02745 0.0
H2227 H 0.33825 0.83683 0.02883 0.0
H2228 H 0.32333 0.82827 1.00567 0.0
H2229 H 0.41649 0.81165 0.99458 0.0
H2230 H 0.40919 0.82461 1.02017 0.0
H2231 H 0.40545 0.79998 1.019 0.0
H2232 H 0.38182 0.84647 0.08621 0.0
H2233 H 0.36923 0.78791 0.08519 0.0
H2234 H 0.36658 0.85676 0.02928 0.0
H2235 H 0.39102 0.85233 0.02687 0.0
H2236 H 0.38215 0.8648 0.05204 0.0
H2237 H 0.35228 0.78493 0.02841 0.0
H2238 H 0.36432 0.77133 0.05035 0.0
H2239 H 0.3767 0.78055 0.02529 0.0
C2240 C 0.18858 0.35343 0.97531 0.0
C2241 C 0.19223 0.36903 0.96106 0.0
C2242 C 0.18619 0.3552 0.99982 0.0
C2243 C 0.18786 0.37296 1.01061 0.0
C2244 C 0.19116 0.38882 0.99625 0.0
C2245 C 0.19311 0.3867 0.9717 0.0
C2246 C 0.18229 0.33794 1.01424 0.0
C2247 C 0.19335 0.40798 1.00692 0.0
C2248 C 0.16977 0.38058 0.07336 0.0
C2249 C 0.18601 0.37821 0.08687 0.0
C2250 C 0.17009 0.37872 0.04865 0.0
C2251 C 0.18713 0.37477 0.03696 0.0
C2252 C 0.20356 0.37245 0.05052 0.0
C2253 C 0.20277 0.37402 0.0752 0.0
C2254 C 0.15217 0.38094 0.03503 0.0
C2255 C 0.22209 0.36851 0.03892 0.0
H2256 H 0.1878 0.33972 0.96732 0.0
H2257 H 0.19608 0.39883 0.96094 0.0
H2258 H 0.19426 0.33507 0.02605 0.0
H2259 H 0.16986 0.34018 0.02552 0.0
H2260 H 0.17988 0.32545 1.00309 0.0
H2261 H 0.19513 0.41901 0.99337 0.0
H2262 H 0.18101 0.41146 1.01784 0.0
H2263 H 0.2057 0.40813 1.01868 0.0
H2264 H 0.15673 0.38377 0.08212 0.0
H2265 H 0.21545 0.3723 0.08536 0.0
H2266 H 0.14944 0.36817 0.02455 0.0
H2267 H 0.15342 0.39272 1.02247 0.0
H2268 H 0.14001 0.38355 0.04668 0.0
H2269 H 0.22135 0.35524 0.02894 0.0
H2270 H 0.23367 0.36749 0.05184 0.0
H2271 H 0.22543 0.37975 0.02616 0.0
C2272 C 0.1798 0.34315 0.22361 0.0
C2273 C 0.17364 0.36134 0.21857 0.0
C2274 C 0.17669 0.33494 0.24586 0.0
C2275 C 0.16749 0.34523 0.26377 0.0
C2276 C 0.1611 0.36351 0.25868 0.0
C2277 C 0.1641 0.37123 0.23621 0.0
C2278 C 0.18344 0.3153 0.2503 0.0
C2279 C 0.15146 0.37515 0.27718 0.0
C2280 C 0.14508 0.32079 0.31658 0.0
C2281 C 0.15867 0.32295 0.33418 0.0
C2282 C 0.14793 0.32756 0.29357 0.0
C2283 C 0.16468 0.33707 0.28791 0.0
C2284 C 0.17844 0.33933 0.30561 0.0
C2285 C 0.17536 0.33213 0.32839 0.0
C2286 C 0.13297 0.32454 0.2753 0.0
C2287 C 0.19637 0.34962 0.30056 0.0
H2288 H 0.18721 0.33536 0.21021 0.0
H2289 H 0.15938 0.38534 0.23273 0.0
H2290 H 0.19416 0.31535 0.26435 0.0
H2291 H 0.17172 0.30648 0.25655 0.0
H2292 H 0.18953 0.30881 0.23431 0.0
H2293 H 0.14729 0.3891 0.27048 0.0
H2294 H 0.13883 0.36784 0.28364 0.0
H2295 H 0.16087 0.3771 0.29248 0.0
H2296 H 0.13219 0.31359 0.32069 0.0
H2297 H 0.18596 0.33391 0.34177 0.0
H2298 H 0.13893 0.3173 0.25978 0.0
H2299 H 0.12754 0.3382 0.26914 0.0
H2300 H 0.12112 0.31618 0.28215 0.0
H2301 H 0.20391 0.34279 0.28587 0.0
H2302 H 0.20573 0.35014 0.31611 0.0
H2303 H 0.19321 0.36413 0.29497 0.0
C2304 C 0.65795 0.18536 0.22676 0.0
C2305 C 0.65258 0.17082 0.21164 0.0
C2306 C 0.6629 0.18184 0.25034 0.0
C2307 C 0.66299 0.16326 0.25897 0.0
C2308 C 0.65828 0.14847 0.24349 0.0
C2309 C 0.65288 0.15245 0.22019 0.0
C2310 C 0.66737 0.19808 0.26626 0.0
C2311 C 0.65866 0.12842 0.25165 0.0
C2312 C 0.69041 0.15196 0.31487 0.0
C2313 C 0.67616 0.14974 0.33161 0.0
C2314 C 0.68636 0.15644 0.29129 0.0
C2315 C 0.66761 0.15928 0.28425 0.0
C2316 C 0.65322 0.15775 0.30128 0.0
C2317 C 0.65763 0.15273 0.32461 0.0
C2318 C 0.70211 0.15746 0.27373 0.0
C2319 C 0.6331 0.16113 0.29477 0.0
H2320 H 0.65748 0.19963 0.22045 0.0
H2321 H 0.64873 0.14114 0.20867 0.0
H2322 H 0.65714 0.1986 0.2809 0.0
H2323 H 0.68137 0.19625 0.2742 0.0
H2324 H 0.66703 0.21165 0.2568 0.0
H2325 H 0.65592 0.11846 0.23709 0.0
H2326 H 0.67243 0.1251 0.25951 0.0
H2327 H 0.64799 0.12627 0.2655 0.0
H2328 H 0.70476 0.14945 0.31997 0.0
H2329 H 0.64654 0.15107 0.33738 0.0
H2330 H 0.70212 0.17123 0.26482 0.0
H2331 H 0.7001 0.14668 0.25995 0.0
H2332 H 0.71596 0.15526 0.28205 0.0
H2333 H 0.63162 0.17489 0.28599 0.0
H2334 H 0.62373 0.16078 0.31033 0.0
H2335 H 0.62839 0.15035 0.28211 0.0
C2336 C 0.84441 0.66019 0.21418 0.0
C2337 C 0.82572 0.65629 0.20874 0.0
C2338 C 0.84974 0.66602 0.2369 0.0
C2339 C 0.83617 0.66752 0.25496 0.0
C2340 C 0.81723 0.66383 0.24947 0.0
C2341 C 0.81222 0.65851 0.22644 0.0
C2342 C 0.87001 0.67024 0.24167 0.0
C2343 C 0.80232 0.6648 0.26818 0.0
C2344 C 0.85469 0.66248 0.31777 0.0
C2345 C 0.85502 0.68104 0.3257 0.0
C2346 C 0.84801 0.65787 0.2952 0.0
C2347 C 0.84194 0.67217 0.27973 0.0
C2348 C 0.84201 0.69092 0.28775 0.0
C2349 C 0.84831 0.69509 0.31068 0.0
C2350 C 0.84776 0.63765 0.28775 0.0
C2351 C 0.8361 0.70669 0.27181 0.0
H2352 H 0.85495 0.65854 0.20068 0.0
H2353 H 0.79777 0.6553 0.22256 0.0
H2354 H 0.87141 0.68422 0.24989 0.0
H2355 H 0.87574 0.65989 0.25425 0.0
H2356 H 0.87859 0.66989 0.2254 0.0
H2357 H 0.78817 0.66216 0.26098 0.0
H2358 H 0.80526 0.65428 0.28202 0.0
H2359 H 0.80241 0.67869 0.27675 0.0
H2360 H 0.85982 0.65152 0.32921 0.0
H2361 H 0.84872 0.7095 0.31646 0.0
H2362 H 0.85775 0.63547 0.2731 0.0
H2363 H 0.83371 0.6338 0.28118 0.0
H2364 H 0.85156 0.62808 0.30236 0.0
H2365 H 0.84554 0.70732 0.25636 0.0
H2366 H 0.83639 0.72043 0.28085 0.0
H2367 H 0.82181 0.7042 0.26506 0.0
C2368 C 0.35625 0.84704 0.22507 0.0
C2369 C 0.35505 0.82872 0.21643 0.0
C2370 C 0.34965 0.85175 0.24766 0.0
C2371 C 0.34197 0.83774 0.2624 0.0
C2372 C 0.34042 0.81927 0.25363 0.0
C2373 C 0.34679 0.81503 0.23075 0.0
C2374 C 0.35124 0.8717 0.25594 0.0
C2375 C 0.33266 0.8038 0.26875 0.0
C2376 C 0.34423 0.84753 0.32856 0.0
C2377 C 0.32593 0.85324 0.33368 0.0
C2378 C 0.34944 0.8419 0.30571 0.0
C2379 C 0.33619 0.84235 0.2872 0.0
C2380 C 0.31762 0.84786 0.29233 0.0
C2381 C 0.31269 0.85303 0.31546 0.0
C2382 C 0.36928 0.83578 0.3013 0.0
C2383 C 0.30308 0.84892 0.27319 0.0
H2384 H 0.36257 0.85775 0.2142 0.0
H2385 H 0.34596 0.80078 0.22444 0.0
H2386 H 0.33749 0.8768 0.2622 0.0
H2387 H 0.36103 0.87249 0.27101 0.0
H2388 H 0.35632 0.88118 0.24188 0.0
H2389 H 0.33176 0.79033 0.25916 0.0
H2390 H 0.34166 0.80184 0.28443 0.0
H2391 H 0.31855 0.80757 0.27519 0.0
H2392 H 0.35458 0.84759 0.34245 0.0
H2393 H 0.29856 0.85759 0.31907 0.0
H2394 H 0.37621 0.84575 0.2892 0.0
H2395 H 0.36945 0.82189 0.29266 0.0
H2396 H 0.37757 0.83495 0.31777 0.0
H2397 H 0.30736 0.85938 0.25985 0.0
H2398 H 0.28913 0.85286 0.2801 0.0
H2399 H 0.30191 0.83529 0.26408 0.0
C2400 C 0.16466 0.65001 0.8153 0.0
C2401 C 0.18184 0.65756 0.82226 0.0
C2402 C 0.15664 0.65473 0.79339 0.0
C2403 C 0.16582 0.66758 0.77831 0.0
C2404 C 0.18266 0.67596 0.78593 0.0
C2405 C 0.19054 0.67068 0.80758 0.0
C2406 C 0.13883 0.64525 0.78589 0.0
C2407 C 0.19277 0.69004 0.77083 0.0
C2408 C 0.15913 0.66628 0.71159 0.0
C2409 C 0.14678 0.68119 0.70775 0.0
C2410 C 0.16493 0.66135 0.73446 0.0
C2411 C 0.15845 0.67169 0.75411 0.0
C2412 C 0.14578 0.68659 0.75038 0.0
C2413 C 0.14005 0.69109 0.72735 0.0
C2414 C 0.1783 0.64525 0.73755 0.0
C2415 C 0.13868 0.69815 0.77068 0.0
H2416 H 0.15801 0.63964 0.82636 0.0
H2417 H 0.20384 0.67656 0.81284 0.0
H2418 H 0.12836 0.65577 0.78032 0.0
H2419 H 0.14165 0.63615 0.77051 0.0
H2420 H 0.13273 0.63658 0.80015 0.0
H2421 H 0.20483 0.6964 0.78008 0.0
H2422 H 0.19792 0.68318 0.7546 0.0
H2423 H 0.18309 0.70133 0.76538 0.0
H2424 H 0.16438 0.65847 0.69668 0.0
H2425 H 0.13054 0.70266 0.7247 0.0
H2426 H 0.17262 0.63512 0.75045 0.0
H2427 H 0.19174 0.65044 0.74465 0.0
H2428 H 0.18109 0.63784 0.72076 0.0
H2429 H 0.13225 0.68902 0.78418 0.0
H2430 H 0.12823 0.7087 0.76504 0.0
H2431 H 0.15051 0.7055 0.77917 0.0
C2432 C 0.35517 0.16226 0.72135 0.0
C2433 C 0.33735 0.15487 0.71716 0.0
C2434 C 0.36073 0.16776 0.74411 0.0
C2435 C 0.34836 0.16546 0.76337 0.0
C2436 C 0.33026 0.15827 0.75917 0.0
C2437 C 0.32493 0.15325 0.73618 0.0
C2438 C 0.38002 0.17572 0.7476 0.0
C2439 C 0.31671 0.15523 0.77913 0.0
C2440 C 0.37087 0.16055 0.824 0.0
C2441 C 0.36804 0.17829 0.83386 0.0
C2442 C 0.36414 0.15609 0.80142 0.0
C2443 C 0.35466 0.1698 0.78797 0.0
C2444 C 0.35156 0.18769 0.79794 0.0
C2445 C 0.3581 0.19165 0.8208 0.0
C2446 C 0.36743 0.13672 0.79182 0.0
C2447 C 0.34182 0.20284 0.78418 0.0
H2448 H 0.36487 0.16363 0.70684 0.0
H2449 H 0.31118 0.14741 0.73326 0.0
H2450 H 0.37916 0.18926 0.757 0.0
H2451 H 0.38841 0.16613 0.75867 0.0
H2452 H 0.38746 0.1779 0.73069 0.0
H2453 H 0.30294 0.15012 0.77291 0.0
H2454 H 0.32255 0.14487 0.79164 0.0
H2455 H 0.31458 0.16841 0.789 0.0
H2456 H 0.37848 0.15012 0.83392 0.0
H2457 H 0.35601 0.20546 0.82811 0.0
H2458 H 0.37655 0.13748 0.77609 0.0
H2459 H 0.35402 0.13043 0.78617 0.0
H2460 H 0.37407 0.12734 0.80492 0.0
H2461 H 0.34994 0.20609 0.76808 0.0
H2462 H 0.3401 0.21587 0.79455 0.0
H2463 H 0.32786 0.19799 0.77843 0.0
C2464 C 0.8621 0.32147 0.7282 0.0
C2465 C 0.84953 0.32439 0.70959 0.0
C2466 C 0.85713 0.32537 0.75166 0.0
C2467 C 0.83924 0.33273 0.7568 0.0
C2468 C 0.8266 0.33604 0.73806 0.0
C2469 C 0.83181 0.33168 0.71477 0.0
C2470 C 0.87095 0.32128 0.77102 0.0
C2471 C 0.80752 0.34417 0.74261 0.0
C2472 C 0.81823 0.3271 0.81824 0.0
C2473 C 0.82182 0.34454 0.82854 0.0
C2474 C 0.82419 0.32294 0.79521 0.0
C2475 C 0.83365 0.33668 0.78179 0.0
C2476 C 0.83753 0.35424 0.7922 0.0
C2477 C 0.83176 0.35788 0.81546 0.0
C2478 C 0.82011 0.30389 0.78511 0.0
C2479 C 0.8473 0.36941 0.77851 0.0
H2480 H 0.87578 0.31574 0.72451 0.0
H2481 H 0.822 0.33405 0.70059 0.0
H2482 H 0.87397 0.33419 0.78108 0.0
H2483 H 0.86488 0.31106 0.78353 0.0
H2484 H 0.88429 0.31558 0.76416 0.0
H2485 H 0.7996 0.34665 0.72612 0.0
H2486 H 0.79934 0.33458 0.75393 0.0
H2487 H 0.80883 0.35759 0.7522 0.0
H2488 H 0.81059 0.31668 0.82816 0.0
H2489 H 0.83444 0.37148 0.82309 0.0
H2490 H 0.83318 0.29735 0.77869 0.0
H2491 H 0.81061 0.30525 0.76982 0.0
H2492 H 0.81354 0.29442 0.79819 0.0
H2493 H 0.86102 0.36435 0.77215 0.0
H2494 H 0.84952 0.38221 0.78916 0.0
H2495 H 0.83892 0.37313 0.76279 0.0
C2496 C 0.68656 0.82902 0.73461 0.0
C2497 C 0.68317 0.84632 0.72382 0.0
C2498 C 0.67961 0.82493 0.75721 0.0
C2499 C 0.66926 0.83858 0.76968 0.0
C2500 C 0.66529 0.85587 0.75859 0.0
C2501 C 0.67214 0.85947 0.73577 0.0
C2502 C 0.6839 0.80617 0.76804 0.0
C2503 C 0.65452 0.87093 0.77125 0.0
C2504 C 0.64136 0.82297 0.82367 0.0
C2505 C 0.6539 0.82656 0.84211 0.0
C2506 C 0.64602 0.82699 0.80011 0.0
C2507 C 0.66356 0.83509 0.79474 0.0
C2508 C 0.67603 0.83925 0.81336 0.0
C2509 C 0.67113 0.8348 0.8367 0.0
C2510 C 0.6324 0.82207 0.78087 0.0
C2511 C 0.69474 0.84815 0.80861 0.0
H2512 H 0.69501 0.81873 0.72556 0.0
H2513 H 0.66955 0.87295 0.72775 0.0
H2514 H 0.69328 0.80804 0.78337 0.0
H2515 H 0.67091 0.79955 0.77457 0.0
H2516 H 0.69074 0.79653 0.7554 0.0
H2517 H 0.65158 0.88313 0.75977 0.0
H2518 H 0.64111 0.86533 0.77792 0.0
H2519 H 0.66262 0.87578 0.7867 0.0
H2520 H 0.62805 0.81649 0.82757 0.0
H2521 H 0.68092 0.83772 0.85074 0.0
H2522 H 0.63867 0.81143 0.7691 0.0
H2523 H 0.62932 0.83453 0.76998 0.0
H2524 H 0.61907 0.81648 0.78793 0.0
H2525 H 0.70346 0.83859 0.79791 0.0
H2526 H 0.70239 0.85151 0.82505 0.0
H2527 H 0.69288 0.86118 0.79832 0.0
C2528 C 0.83752 0.65512 0.71178 0.0
C2529 C 0.84571 0.67245 0.70672 0.0
C2530 C 0.83303 0.64994 0.73505 0.0
C2531 C 0.83719 0.66219 0.75394 0.0
C2532 C 0.84526 0.6798 0.7489 0.0
C2533 C 0.84924 0.68478 0.72543 0.0
C2534 C 0.82409 0.6312 0.73945 0.0
C2535 C 0.85029 0.69318 0.76838 0.0
C2536 C 0.8134 0.65423 0.81349 0.0
C2537 C 0.82664 0.64333 0.82548 0.0
C2538 C 0.81666 0.66056 0.79034 0.0
C2539 C 0.83374 0.65627 0.77896 0.0
C2540 C 0.84743 0.64589 0.79135 0.0
C2541 C 0.84364 0.63939 0.81425 0.0
C2542 C 0.80154 0.6713 0.77777 0.0
C2543 C 0.866 0.64132 0.78024 0.0
H2544 H 0.83469 0.64549 0.69752 0.0
H2545 H 0.85572 0.69814 0.72185 0.0
H2546 H 0.83368 0.62226 0.74983 0.0
H2547 H 0.81115 0.63296 0.74993 0.0
H2548 H 0.82059 0.62382 0.72286 0.0
H2549 H 0.85599 0.70655 0.76158 0.0
H2550 H 0.83785 0.69625 0.77932 0.0
H2551 H 0.86085 0.68667 0.78006 0.0
H2552 H 0.80014 0.65718 0.82183 0.0
H2553 H 0.85397 0.63101 0.82333 0.0
H2554 H 0.79686 0.66333 0.76212 0.0
H2555 H 0.80703 0.68486 0.7714 0.0
H2556 H 0.78927 0.67399 0.78921 0.0
H2557 H 0.86387 0.63214 0.76478 0.0
H2558 H 0.8756 0.63419 0.79267 0.0
H2559 H 0.8728 0.65428 0.77385 0.0
C2560 C 0.32744 0.82808 0.82604 0.0
C2561 C 0.3459 0.8257 0.83378 0.0
C2562 C 0.32336 0.83339 0.80268 0.0
C2563 C 0.33807 0.83646 0.78644 0.0
C2564 C 0.35675 0.83447 0.79427 0.0
C2565 C 0.36042 0.82913 0.81771 0.0
C2566 C 0.30325 0.83534 0.79526 0.0
C2567 C 0.37289 0.83762 0.77771 0.0
C2568 C 0.32693 0.8311 0.72087 0.0
C2569 C 0.32461 0.84969 0.71348 0.0
C2570 C 0.33151 0.82667 0.74434 0.0
C2571 C 0.33387 0.84111 0.76112 0.0
C2572 C 0.33186 0.85993 0.75372 0.0
C2573 C 0.32727 0.86398 0.7301 0.0
C2574 C 0.33352 0.80642 0.75128 0.0
C2575 C 0.33426 0.87581 0.77087 0.0
H2576 H 0.31606 0.82548 0.83814 0.0
H2577 H 0.37475 0.82735 0.82334 0.0
H2578 H 0.30079 0.84941 0.78773 0.0
H2579 H 0.30003 0.82501 0.78131 0.0
H2580 H 0.29342 0.83317 0.81012 0.0
H2581 H 0.3866 0.8363 0.78666 0.0
H2582 H 0.37232 0.82732 0.76316 0.0
H2583 H 0.37192 0.85171 0.7697 0.0
H2584 H 0.32492 0.8199 0.70833 0.0
H2585 H 0.32549 0.87839 0.72476 0.0
H2586 H 0.323 0.80285 0.76486 0.0
H2587 H 0.34748 0.80397 0.75911 0.0
H2588 H 0.33172 0.79683 0.73611 0.0
H2589 H 0.32369 0.87471 0.78505 0.0
H2590 H 0.33283 0.88967 0.7623 0.0
H2591 H 0.34818 0.87497 0.77932 0.0
C2592 C 0.15614 0.31616 0.73208 0.0
C2593 C 0.15664 0.32917 0.7136 0.0
C2594 C 0.1607 0.32132 0.75531 0.0
C2595 C 0.16635 0.33988 0.76026 0.0
C2596 C 0.16755 0.35289 0.74149 0.0
C2597 C 0.16246 0.34746 0.71854 0.0
C2598 C 0.15879 0.30708 0.77472 0.0
C2599 C 0.17391 0.37268 0.74574 0.0
C2600 C 0.15999 0.36099 0.82154 0.0
C2601 C 0.17794 0.35945 0.83121 0.0
C2602 C 0.15592 0.35414 0.79888 0.0
C2603 C 0.17024 0.34594 0.78512 0.0
C2604 C 0.18835 0.3441 0.79493 0.0
C2605 C 0.19191 0.35065 0.81789 0.0
C2606 C 0.13631 0.35601 0.7895 0.0
C2607 C 0.20415 0.33582 0.78082 0.0
H2608 H 0.15146 0.30205 0.72858 0.0
H2609 H 0.16293 0.35762 0.70442 0.0
H2610 H 0.17208 0.30581 0.78456 0.0
H2611 H 0.14799 0.31174 0.78741 0.0
H2612 H 0.15485 0.29309 0.76795 0.0
H2613 H 0.17548 0.38068 0.72912 0.0
H2614 H 0.16367 0.38001 0.75707 0.0
H2615 H 0.18746 0.37271 0.75515 0.0
H2616 H 0.14909 0.36773 0.83166 0.0
H2617 H 0.20588 0.3496 0.82504 0.0
H2618 H 0.13118 0.34227 0.78325 0.0
H2619 H 0.13621 0.36563 0.77422 0.0
H2620 H 0.12647 0.36145 0.80294 0.0
H2621 H 0.20035 0.32168 0.77451 0.0
H2622 H 0.21726 0.33482 0.79115 0.0
H2623 H 0.20678 0.34457 0.76506 0.0
C2624 C 0.66613 0.14826 0.72234 0.0
C2625 C 0.68439 0.14946 0.71355 0.0
C2626 C 0.66158 0.15482 0.74499 0.0
C2627 C 0.67571 0.16238 0.75961 0.0
C2628 C 0.69412 0.16392 0.75068 0.0
C2629 C 0.69818 0.15765 0.72772 0.0
C2630 C 0.64168 0.1533 0.75345 0.0
C2631 C 0.7097 0.17152 0.76571 0.0
C2632 C 0.66091 0.19149 0.8129 0.0
C2633 C 0.66066 0.17813 0.831 0.0
C2634 C 0.66594 0.18665 0.78972 0.0
C2635 C 0.67128 0.16806 0.78445 0.0
C2636 C 0.67171 0.15468 0.80284 0.0
C2637 C 0.6662 0.15981 0.82575 0.0
C2638 C 0.66488 0.2013 0.77069 0.0
C2639 C 0.67769 0.1348 0.79824 0.0
H2640 H 0.65537 0.14197 0.71155 0.0
H2641 H 0.71238 0.15844 0.72126 0.0
H2642 H 0.64091 0.14339 0.7684 0.0
H2643 H 0.63672 0.16705 0.75991 0.0
H2644 H 0.63209 0.1484 0.73941 0.0
H2645 H 0.72311 0.17242 0.75598 0.0
H2646 H 0.70604 0.18562 0.77232 0.0
H2647 H 0.7117 0.16239 0.78127 0.0
H2648 H 0.65646 0.20565 0.81664 0.0
H2649 H 0.66609 0.14938 0.83957 0.0
H2650 H 0.65432 0.19715 0.75743 0.0
H2651 H 0.67845 0.20242 0.76144 0.0
H2652 H 0.66109 0.21526 0.77772 0.0
H2653 H 0.66759 0.12798 0.78623 0.0
H2654 H 0.67859 0.12644 0.81465 0.0
H2655 H 0.69149 0.1346 0.78942 0.0
C2656 C 0.82458 0.34791 0.22219 0.0
C2657 C 0.82951 0.36644 0.21703 0.0
C2658 C 0.82899 0.33975 0.24414 0.0
C2659 C 0.83832 0.35042 0.26158 0.0
C2660 C 0.84342 0.36906 0.25637 0.0
C2661 C 0.83909 0.37676 0.23425 0.0
C2662 C 0.82351 0.31975 0.24875 0.0
C2663 C 0.85316 0.38109 0.27438 0.0
C2664 C 0.83377 0.33694 0.32653 0.0
C2665 C 0.85114 0.32865 0.33126 0.0
C2666 C 0.82937 0.34389 0.30398 0.0
C2667 C 0.84251 0.34231 0.28543 0.0
C2668 C 0.85995 0.33371 0.29001 0.0
C2669 C 0.8641 0.32714 0.31281 0.0
C2670 C 0.81073 0.35319 0.30012 0.0
C2671 C 0.87431 0.33149 0.2708 0.0
H2672 H 0.81718 0.33978 0.20912 0.0
H2673 H 0.84292 0.39111 0.23066 0.0
H2674 H 0.83594 0.31152 0.25401 0.0
H2675 H 0.81346 0.31914 0.26355 0.0
H2676 H 0.81706 0.31307 0.23313 0.0
H2677 H 0.85628 0.3953 0.26762 0.0
H2678 H 0.84432 0.38242 0.29031 0.0
H2679 H 0.86643 0.37443 0.27988 0.0
H2680 H 0.82363 0.33822 0.34057 0.0
H2681 H 0.8775 0.32064 0.31611 0.0
H2682 H 0.80305 0.34605 0.2858 0.0
H2683 H 0.81286 0.36788 0.29453 0.0
H2684 H 0.80193 0.3531 0.31619 0.0
H2685 H 0.86813 0.32399 0.25561 0.0
H2686 H 0.88683 0.3237 0.27684 0.0
H2687 H 0.87878 0.34542 0.26441 0.0
C2688 C 0.64569 0.82962 0.23774 0.0
C2689 C 0.65897 0.82066 0.22349 0.0
C2690 C 0.64989 0.8349 0.26102 0.0
C2691 C 0.66794 0.83152 0.27029 0.0
C2692 C 0.68157 0.82301 0.25573 0.0
C2693 C 0.67688 0.81753 0.23268 0.0
C2694 C 0.63483 0.84368 0.27593 0.0
C2695 C 0.7011 0.81949 0.26461 0.0
C2696 C 0.68381 0.85946 0.32395 0.0
C2697 C 0.68211 0.84637 0.34226 0.0
C2698 C 0.6793 0.85482 0.30057 0.0
C2699 C 0.67255 0.83673 0.29521 0.0
C2700 C 0.67046 0.82356 0.31366 0.0
C2701 C 0.67543 0.82846 0.33686 0.0
C2702 C 0.68208 0.86922 0.2815 0.0
C2703 C 0.66302 0.80423 0.30888 0.0
H2704 H 0.63175 0.83196 0.23096 0.0
H2705 H 0.68726 0.81065 0.22187 0.0
H2706 H 0.63213 0.83482 0.29157 0.0
H2707 H 0.63948 0.85751 0.28243 0.0
H2708 H 0.62156 0.84551 0.26614 0.0
H2709 H 0.71033 0.81356 0.25081 0.0
H2710 H 0.70733 0.8327 0.27106 0.0
H2711 H 0.70069 0.80966 0.27966 0.0
H2712 H 0.68908 0.8733 0.3278 0.0
H2713 H 0.674 0.81825 0.35081 0.0
H2714 H 0.66872 0.87191 0.27229 0.0
H2715 H 0.69208 0.86387 0.26822 0.0
H2716 H 0.68745 0.88266 0.2885 0.0
H2717 H 0.64923 0.80516 0.30012 0.0
H2718 H 0.6615 0.79585 0.32521 0.0
H2719 H 0.67253 0.79672 0.29674 0.0
C2720 C 0.15728 0.65976 0.32383 0.0
C2721 C 0.15132 0.67781 0.32987 0.0
C2722 C 0.16187 0.65508 0.30044 0.0
C2723 C 0.16035 0.6687 0.28243 0.0
C2724 C 0.1547 0.68705 0.28848 0.0
C2725 C 0.15034 0.69138 0.31203 0.0
C2726 C 0.16799 0.6354 0.29492 0.0
C2727 C 0.15278 0.70201 0.26995 0.0
C2728 C 0.18541 0.65964 0.22402 0.0
C2729 C 0.17111 0.65202 0.21011 0.0
C2730 C 0.18209 0.66535 0.24739 0.0
C2731 C 0.16399 0.66356 0.25721 0.0
C2732 C 0.14939 0.65643 0.24301 0.0
C2733 C 0.15312 0.65071 0.21977 0.0
C2734 C 0.1981 0.67281 0.26182 0.0
C2735 C 0.12984 0.65444 0.25255 0.0
H2736 H 0.15813 0.64914 0.33736 0.0
H2737 H 0.14571 0.70537 0.31634 0.0
H2738 H 0.15772 0.62872 0.28302 0.0
H2739 H 0.18159 0.63558 0.2856 0.0
H2740 H 0.16938 0.62668 0.31097 0.0
H2741 H 0.14897 0.71577 0.27757 0.0
H2742 H 0.16604 0.70353 0.26008 0.0
H2743 H 0.14188 0.69793 0.2571 0.0
H2744 H 0.19939 0.66065 0.21689 0.0
H2745 H 0.14194 0.64487 0.20929 0.0
H2746 H 0.20072 0.66341 0.27697 0.0
H2747 H 0.19452 0.68673 0.26905 0.0
H2748 H 0.21115 0.67404 0.25141 0.0
H2749 H 0.1298 0.64442 0.26744 0.0
H2750 H 0.11986 0.64943 0.23902 0.0
H2751 H 0.12484 0.66804 0.25943 0.0
C2752 C 0.33316 0.17894 0.32704 0.0
C2753 C 0.33156 0.16043 0.33488 0.0
C2754 C 0.34058 0.18314 0.30469 0.0
C2755 C 0.34607 0.16847 0.28943 0.0
C2756 C 0.34432 0.14975 0.2972 0.0
C2757 C 0.33735 0.14598 0.31988 0.0
C2758 C 0.34269 0.20331 0.29749 0.0
C2759 C 0.34958 0.13364 0.28142 0.0
C2760 C 0.35069 0.17967 0.22372 0.0
C2761 C 0.3701 0.18099 0.22103 0.0
C2762 C 0.34266 0.17528 0.24573 0.0
C2763 C 0.35427 0.17271 0.26571 0.0
C2764 C 0.37384 0.17424 0.26306 0.0
C2765 C 0.38148 0.17809 0.2408 0.0
C2766 C 0.32177 0.1733 0.24759 0.0
C2767 C 0.38677 0.17214 0.28386 0.0
H2768 H 0.32871 0.1902 0.33847 0.0
H2769 H 0.33592 0.13161 0.3256 0.0
H2770 H 0.35748 0.20627 0.29313 0.0
H2771 H 0.33436 0.20611 0.28144 0.0
H2772 H 0.33814 0.21309 0.31151 0.0
H2773 H 0.34663 0.11989 0.28965 0.0
H2774 H 0.34179 0.13459 0.26461 0.0
H2775 H 0.36465 0.13432 0.27709 0.0
H2776 H 0.34179 0.18189 0.20857 0.0
H2777 H 0.39648 0.17932 0.23906 0.0
H2778 H 0.31614 0.18393 0.25986 0.0
H2779 H 0.31819 0.15939 0.25491 0.0
H2780 H 0.31473 0.17494 0.23031 0.0
H2781 H 0.38301 0.18242 0.29767 0.0
H2782 H 0.40163 0.17423 0.27901 0.0
H2783 H 0.38523 0.15804 0.29167 0.0
loop_
_geom_bond_atom_site_label_1
_geom_bond_atom_site_label_2
_geom_bond_distance
_geom_bond_site_symmetry_2
_ccdc_geom_bond_type
Cu0 N1 1.999 . S
Cu0 O6 1.974 . S
Cu0 N11 1.985 . S
Cu0 O20 1.959 . S
N1 Cu0 1.999 . S
N1 C3 1.263 . S
N1 C5 1.389 . S
N2 C3 1.358 . S
N2 C4 1.400 . S
C3 N1 1.263 . S
C3 N2 1.358 . S
C3 H9 0.930 . S
C4 N2 1.400 . S
C4 C5 1.351 . S
C4 H21 0.930 . S
C5 N1 1.389 . S
C5 C4 1.351 . S
C5 H10 0.930 . S
O6 Cu0 1.974 . S
O6 C16 1.282 . S
C7 O8 1.261 . S
C7 O20 1.251 . S
O8 C7 1.261 . S
H9 C3 0.930 . S
H10 C5 0.930 . S
N11 Cu0 1.985 . S
N11 C13 1.335 . S
N11 C14 1.390 . S
N12 C13 1.345 . S
N12 C15 1.336 . S
C13 N11 1.335 . S
C13 N12 1.345 . S
C13 H18 0.930 . S
C14 N11 1.390 . S
C14 C15 1.346 . S
C14 H19 0.930 . S
C15 N12 1.336 . S
C15 C14 1.346 . S
C15 H22 0.929 . S
C16 O6 1.282 . S
C16 O17 1.216 . S
O17 C16 1.216 . S
H18 C13 0.930 . S
H19 C14 0.930 . S
O20 Cu0 1.959 . S
O20 C7 1.251 . S
H21 C4 0.930 . S
H22 C15 0.929 . S
Cu23 N24 1.999 . S
Cu23 O29 1.974 . S
Cu23 N34 1.985 . S
Cu23 O43 1.959 . S
N24 Cu23 1.999 . S
N24 C26 1.263 . S
N24 C28 1.389 . S
N25 C26 1.358 . S
N25 C27 1.400 . S
C26 N24 1.263 . S
C26 N25 1.358 . S
C26 H32 0.930 . S
C27 N25 1.400 . S
C27 C28 1.351 . S
C27 H44 0.930 . S
C28 N24 1.389 . S
C28 C27 1.351 . S
C28 H33 0.930 . S
O29 Cu23 1.974 . S
O29 C39 1.282 . S
C30 O31 1.261 . S
C30 O43 1.251 . S
O31 C30 1.261 . S
H32 C26 0.930 . S
H33 C28 0.930 . S
N34 Cu23 1.985 . S
N34 C36 1.335 . S
N34 C37 1.390 . S
N35 C36 1.345 . S
N35 C38 1.336 . S
C36 N34 1.335 . S
C36 N35 1.345 . S
C36 H41 0.930 . S
C37 N34 1.390 . S
C37 C38 1.346 . S
C37 H42 0.930 . S
C38 N35 1.336 . S
C38 C37 1.346 . S
C38 H45 0.929 . S
C39 O29 1.282 . S
C39 O40 1.216 . S
O40 C39 1.216 . S
H41 C36 0.930 . S
H42 C37 0.930 . S
O43 Cu23 1.959 . S
O43 C30 1.251 . S
H44 C27 0.930 . S
H45 C38 0.929 . S
Cu46 N47 1.999 . S
Cu46 O52 1.974 . S
Cu46 N57 1.985 . S
Cu46 O66 1.959 . S
N47 Cu46 1.999 . S
N47 C49 1.263 . S
N47 C51 1.389 . S
N48 C49 1.358 . S
N48 C50 1.400 . S
C49 N47 1.263 . S
C49 N48 1.358 . S
C49 H55 0.930 . S
C50 N48 1.400 . S
C50 C51 1.351 . S
C50 H67 0.930 . S
C51 N47 1.389 . S
C51 C50 1.351 . S
C51 H56 0.930 . S
O52 Cu46 1.974 . S
O52 C62 1.282 . S
C53 O54 1.261 . S
C53 O66 1.251 . S
O54 C53 1.261 . S
H55 C49 0.930 . S
H56 C51 0.930 . S
N57 Cu46 1.985 . S
N57 C59 1.335 . S
N57 C60 1.390 . S
N58 C59 1.345 . S
N58 C61 1.336 . S
C59 N57 1.335 . S
C59 N58 1.345 . S
C59 H64 0.930 . S
C60 N57 1.390 . S
C60 C61 1.346 . S
C60 H65 0.930 . S
C61 N58 1.336 . S
C61 C60 1.346 . S
C61 H68 0.929 . S
C62 O52 1.282 . S
C62 O63 1.216 . S
O63 C62 1.216 . S
H64 C59 0.930 . S
H65 C60 0.930 . S
O66 Cu46 1.959 . S
O66 C53 1.251 . S
H67 C50 0.930 . S
H68 C61 0.929 . S
Cu69 N70 1.999 . S
Cu69 O75 1.974 . S
Cu69 N80 1.985 . S
Cu69 O89 1.959 . S
N70 Cu69 1.999 . S
N70 C72 1.263 . S
N70 C74 1.389 . S
N71 C72 1.358 . S
N71 C73 1.400 . S
C72 N70 1.263 . S
C72 N71 1.358 . S
C72 H78 0.930 . S
C73 N71 1.400 . S
C73 C74 1.351 . S
C73 H90 0.930 . S
C74 N70 1.389 . S
C74 C73 1.351 . S
C74 H79 0.930 . S
O75 Cu69 1.974 . S
O75 C85 1.282 . S
C76 O77 1.261 . S
C76 O89 1.251 . S
O77 C76 1.261 . S
H78 C72 0.930 . S
H79 C74 0.930 . S
N80 Cu69 1.985 . S
N80 C82 1.335 . S
N80 C83 1.390 . S
N81 C82 1.345 . S
N81 C84 1.336 . S
C82 N80 1.335 . S
C82 N81 1.345 . S
C82 H87 0.930 . S
C83 N80 1.390 . S
C83 C84 1.346 . S
C83 H88 0.930 . S
C84 N81 1.336 . S
C84 C83 1.346 . S
C84 H91 0.929 . S
C85 O75 1.282 . S
C85 O86 1.216 . S
O86 C85 1.216 . S
H87 C82 0.930 . S
H88 C83 0.930 . S
O89 Cu69 1.959 . S
O89 C76 1.251 . S
H90 C73 0.930 . S
H91 C84 0.929 . S
Cu92 N93 1.999 . S
Cu92 O98 1.974 . S
Cu92 N103 1.985 . S
Cu92 O112 1.959 . S
N93 Cu92 1.999 . S
N93 C95 1.263 . S
N93 C97 1.389 . S
N94 C95 1.358 . S
N94 C96 1.400 . S
C95 N93 1.263 . S
C95 N94 1.358 . S
C95 H101 0.930 . S
C96 N94 1.400 . S
C96 C97 1.351 . S
C96 H113 0.930 . S
C97 N93 1.389 . S
C97 C96 1.351 . S
C97 H102 0.930 . S
O98 Cu92 1.974 . S
O98 C108 1.282 . S
C99 O100 1.261 . S
C99 O112 1.251 . S
O100 C99 1.261 . S
H101 C95 0.930 . S
H102 C97 0.930 . S
N103 Cu92 1.985 . S
N103 C105 1.335 . S
N103 C106 1.390 . S
N104 C105 1.345 . S
N104 C107 1.336 . S
C105 N103 1.335 . S
C105 N104 1.345 . S
C105 H110 0.930 . S
C106 N103 1.390 . S
C106 C107 1.346 . S
C106 H111 0.930 . S
C107 N104 1.336 . S
C107 C106 1.346 . S
C107 H114 0.929 . S
C108 O98 1.282 . S
C108 O109 1.216 . S
O109 C108 1.216 . S
H110 C105 0.930 . S
H111 C106 0.930 . S
O112 Cu92 1.959 . S
O112 C99 1.251 . S
H113 C96 0.930 . S
H114 C107 0.929 . S
Cu115 N116 1.999 . S
Cu115 O121 1.974 . S
Cu115 N126 1.985 . S
Cu115 O135 1.959 . S
N116 Cu115 1.999 . S
N116 C118 1.263 . S
N116 C120 1.389 . S
N117 C118 1.358 . S
N117 C119 1.400 . S
C118 N116 1.263 . S
C118 N117 1.358 . S
C118 H124 0.930 . S
C119 N117 1.400 . S
C119 C120 1.351 . S
C119 H136 0.930 . S
C120 N116 1.389 . S
C120 C119 1.351 . S
C120 H125 0.930 . S
O121 Cu115 1.974 . S
O121 C131 1.282 . S
C122 O123 1.261 . S
C122 O135 1.251 . S
O123 C122 1.261 . S
H124 C118 0.930 . S
H125 C120 0.930 . S
N126 Cu115 1.985 . S
N126 C128 1.335 . S
N126 C129 1.390 . S
N127 C128 1.345 . S
N127 C130 1.336 . S
C128 N126 1.335 . S
C128 N127 1.345 . S
C128 H133 0.930 . S
C129 N126 1.390 . S
C129 C130 1.346 . S
C129 H134 0.930 . S
C130 N127 1.336 . S
C130 C129 1.346 . S
C130 H137 0.929 . S
C131 O121 1.282 . S
C131 O132 1.216 . S
O132 C131 1.216 . S
H133 C128 0.930 . S
H134 C129 0.930 . S
O135 Cu115 1.959 . S
O135 C122 1.251 . S
H136 C119 0.930 . S
H137 C130 0.929 . S
Cu138 N139 1.999 . S
Cu138 O144 1.974 . S
Cu138 N149 1.985 . S
Cu138 O158 1.959 . S
N139 Cu138 1.999 . S
N139 C141 1.263 . S
N139 C143 1.389 . S
N140 C141 1.358 . S
N140 C142 1.400 . S
C141 N139 1.263 . S
C141 N140 1.358 . S
C141 H147 0.930 . S
C142 N140 1.400 . S
C142 C143 1.351 . S
C142 H159 0.930 . S
C143 N139 1.389 . S
C143 C142 1.351 . S
C143 H148 0.930 . S
O144 Cu138 1.974 . S
O144 C154 1.282 . S
C145 O146 1.261 . S
C145 O158 1.251 . S
O146 C145 1.261 . S
H147 C141 0.930 . S
H148 C143 0.930 . S
N149 Cu138 1.985 . S
N149 C151 1.335 . S
N149 C152 1.390 . S
N150 C151 1.345 . S
N150 C153 1.336 . S
C151 N149 1.335 . S
C151 N150 1.345 . S
C151 H156 0.930 . S
C152 N149 1.390 . S
C152 C153 1.346 . S
C152 H157 0.930 . S
C153 N150 1.336 . S
C153 C152 1.346 . S
C153 H160 0.929 . S
C154 O144 1.282 . S
C154 O155 1.216 . S
O155 C154 1.216 . S
H156 C151 0.930 . S
H157 C152 0.930 . S
O158 Cu138 1.959 . S
O158 C145 1.251 . S
H159 C142 0.930 . S
H160 C153 0.929 . S
Cu161 N162 1.999 . S
Cu161 O167 1.974 . S
Cu161 N172 1.985 . S
Cu161 O181 1.959 . S
N162 Cu161 1.999 . S
N162 C164 1.263 . S
N162 C166 1.389 . S
N163 C164 1.358 . S
N163 C165 1.400 . S
C164 N162 1.263 . S
C164 N163 1.358 . S
C164 H170 0.930 . S
C165 N163 1.400 . S
C165 C166 1.351 . S
C165 H182 0.930 . S
C166 N162 1.389 . S
C166 C165 1.351 . S
C166 H171 0.930 . S
O167 Cu161 1.974 . S
O167 C177 1.282 . S
C168 O169 1.261 . S
C168 O181 1.251 . S
O169 C168 1.261 . S
H170 C164 0.930 . S
H171 C166 0.930 . S
N172 Cu161 1.985 . S
N172 C174 1.335 . S
N172 C175 1.390 . S
N173 C174 1.345 . S
N173 C176 1.336 . S
C174 N172 1.335 . S
C174 N173 1.345 . S
C174 H179 0.930 . S
C175 N172 1.390 . S
C175 C176 1.346 . S
C175 H180 0.930 . S
C176 N173 1.336 . S
C176 C175 1.346 . S
C176 H183 0.929 . S
C177 O167 1.282 . S
C177 O178 1.216 . S
O178 C177 1.216 . S
H179 C174 0.930 . S
H180 C175 0.930 . S
O181 Cu161 1.959 . S
O181 C168 1.251 . S
H182 C165 0.930 . S
H183 C176 0.929 . S
Cu184 N185 1.999 . S
Cu184 O190 1.974 . S
Cu184 N195 1.985 . S
Cu184 O204 1.959 . S
N185 Cu184 1.999 . S
N185 C187 1.263 . S
N185 C189 1.389 . S
N186 C187 1.358 . S
N186 C188 1.400 . S
C187 N185 1.263 . S
C187 N186 1.358 . S
C187 H193 0.930 . S
C188 N186 1.400 . S
C188 C189 1.351 . S
C188 H205 0.930 . S
C189 N185 1.389 . S
C189 C188 1.351 . S
C189 H194 0.930 . S
O190 Cu184 1.974 . S
O190 C200 1.282 . S
C191 O192 1.261 . S
C191 O204 1.251 . S
O192 C191 1.261 . S
H193 C187 0.930 . S
H194 C189 0.930 . S
N195 Cu184 1.985 . S
N195 C197 1.335 . S
N195 C198 1.390 . S
N196 C197 1.345 . S
N196 C199 1.336 . S
C197 N195 1.335 . S
C197 N196 1.345 . S
C197 H202 0.930 . S
C198 N195 1.390 . S
C198 C199 1.346 . S
C198 H203 0.930 . S
C199 N196 1.336 . S
C199 C198 1.346 . S
C199 H206 0.929 . S
C200 O190 1.282 . S
C200 O201 1.216 . S
O201 C200 1.216 . S
H202 C197 0.930 . S
H203 C198 0.930 . S
O204 Cu184 1.959 . S
O204 C191 1.251 . S
H205 C188 0.930 . S
H206 C199 0.929 . S
Cu207 N208 1.999 . S
Cu207 O213 1.974 . S
Cu207 N218 1.985 . S
Cu207 O227 1.959 . S
N208 Cu207 1.999 . S
N208 C210 1.263 . S
N208 C212 1.389 . S
N209 C210 1.358 . S
N209 C211 1.400 . S
C210 N208 1.263 . S
C210 N209 1.358 . S
C210 H216 0.930 . S
C211 N209 1.400 . S
C211 C212 1.351 . S
C211 H228 0.930 . S
C212 N208 1.389 . S
C212 C211 1.351 . S
C212 H217 0.930 . S
O213 Cu207 1.974 . S
O213 C223 1.282 . S
C214 O215 1.261 . S
C214 O227 1.251 . S
O215 C214 1.261 . S
H216 C210 0.930 . S
H217 C212 0.930 . S
N218 Cu207 1.985 . S
N218 C220 1.335 . S
N218 C221 1.390 . S
N219 C220 1.345 . S
N219 C222 1.336 . S
C220 N218 1.335 . S
C220 N219 1.345 . S
C220 H225 0.930 . S
C221 N218 1.390 . S
C221 C222 1.346 . S
C221 H226 0.930 . S
C222 N219 1.336 . S
C222 C221 1.346 . S
C222 H229 0.929 . S
C223 O213 1.282 . S
C223 O224 1.216 . S
O224 C223 1.216 . S
H225 C220 0.930 . S
H226 C221 0.930 . S
O227 Cu207 1.959 . S
O227 C214 1.251 . S
H228 C211 0.930 . S
H229 C222 0.929 . S
Cu230 N231 1.999 . S
Cu230 O236 1.974 . S
Cu230 N241 1.985 . S
Cu230 O250 1.959 . S
N231 Cu230 1.999 . S
N231 C233 1.263 . S
N231 C235 1.389 . S
N232 C233 1.358 . S
N232 C234 1.400 . S
C233 N231 1.263 . S
C233 N232 1.358 . S
C233 H239 0.930 . S
C234 N232 1.400 . S
C234 C235 1.351 . S
C234 H251 0.930 . S
C235 N231 1.389 . S
C235 C234 1.351 . S
C235 H240 0.930 . S
O236 Cu230 1.974 . S
O236 C246 1.282 . S
C237 O238 1.261 . S
C237 O250 1.251 . S
O238 C237 1.261 . S
H239 C233 0.930 . S
H240 C235 0.930 . S
N241 Cu230 1.985 . S
N241 C243 1.335 . S
N241 C244 1.390 . S
N242 C243 1.345 . S
N242 C245 1.336 . S
C243 N241 1.335 . S
C243 N242 1.345 . S
C243 H248 0.930 . S
C244 N241 1.390 . S
C244 C245 1.346 . S
C244 H249 0.930 . S
C245 N242 1.336 . S
C245 C244 1.346 . S
C245 H252 0.929 . S
C246 O236 1.282 . S
C246 O247 1.216 . S
O247 C246 1.216 . S
H248 C243 0.930 . S
H249 C244 0.930 . S
O250 Cu230 1.959 . S
O250 C237 1.251 . S
H251 C234 0.930 . S
H252 C245 0.929 . S
Cu253 N254 1.999 . S
Cu253 O259 1.974 . S
Cu253 N264 1.985 . S
Cu253 O273 1.959 . S
N254 Cu253 1.999 . S
N254 C256 1.263 . S
N254 C258 1.389 . S
N255 C256 1.358 . S
N255 C257 1.400 . S
C256 N254 1.263 . S
C256 N255 1.358 . S
C256 H262 0.930 . S
C257 N255 1.400 . S
C257 C258 1.351 . S
C257 H274 0.930 . S
C258 N254 1.389 . S
C258 C257 1.351 . S
C258 H263 0.930 . S
O259 Cu253 1.974 . S
O259 C269 1.282 . S
C260 O261 1.261 . S
C260 O273 1.251 . S
O261 C260 1.261 . S
H262 C256 0.930 . S
H263 C258 0.930 . S
N264 Cu253 1.985 . S
N264 C266 1.335 . S
N264 C267 1.390 . S
N265 C266 1.345 . S
N265 C268 1.336 . S
C266 N264 1.335 . S
C266 N265 1.345 . S
C266 H271 0.930 . S
C267 N264 1.390 . S
C267 C268 1.346 . S
C267 H272 0.930 . S
C268 N265 1.336 . S
C268 C267 1.346 . S
C268 H275 0.929 . S
C269 O259 1.282 . S
C269 O270 1.216 . S
O270 C269 1.216 . S
H271 C266 0.930 . S
H272 C267 0.930 . S
O273 Cu253 1.959 . S
O273 C260 1.251 . S
H274 C257 0.930 . S
H275 C268 0.929 . S
Cu276 N277 1.999 . S
Cu276 O282 1.974 . S
Cu276 N287 1.985 . S
Cu276 O296 1.959 . S
N277 Cu276 1.999 . S
N277 C279 1.263 . S
N277 C281 1.389 . S
N278 C279 1.358 . S
N278 C280 1.400 . S
C279 N277 1.263 . S
C279 N278 1.358 . S
C279 H285 0.930 . S
C280 N278 1.400 . S
C280 C281 1.351 . S
C280 H297 0.930 . S
C281 N277 1.389 . S
C281 C280 1.351 . S
C281 H286 0.930 . S
O282 Cu276 1.974 . S
O282 C292 1.282 . S
C283 O284 1.261 . S
C283 O296 1.251 . S
O284 C283 1.261 . S
H285 C279 0.930 . S
H286 C281 0.930 . S
N287 Cu276 1.985 . S
N287 C289 1.335 . S
N287 C290 1.390 . S
N288 C289 1.345 . S
N288 C291 1.336 . S
C289 N287 1.335 . S
C289 N288 1.345 . S
C289 H294 0.930 . S
C290 N287 1.390 . S
C290 C291 1.346 . S
C290 H295 0.930 . S
C291 N288 1.336 . S
C291 C290 1.346 . S
C291 H298 0.929 . S
C292 O282 1.282 . S
C292 O293 1.216 . S
O293 C292 1.216 . S
H294 C289 0.930 . S
H295 C290 0.930 . S
O296 Cu276 1.959 . S
O296 C283 1.251 . S
H297 C280 0.930 . S
H298 C291 0.929 . S
Cu299 N300 1.999 . S
Cu299 O305 1.974 . S
Cu299 N310 1.985 . S
Cu299 O319 1.959 . S
N300 Cu299 1.999 . S
N300 C302 1.263 . S
N300 C304 1.389 . S
N301 C302 1.358 . S
N301 C303 1.400 . S
C302 N300 1.263 . S
C302 N301 1.358 . S
C302 H308 0.930 . S
C303 N301 1.400 . S
C303 C304 1.351 . S
C303 H320 0.930 . S
C304 N300 1.389 . S
C304 C303 1.351 . S
C304 H309 0.930 . S
O305 Cu299 1.974 . S
O305 C315 1.282 . S
C306 O307 1.261 . S
C306 O319 1.251 . S
O307 C306 1.261 . S
H308 C302 0.930 . S
H309 C304 0.930 . S
N310 Cu299 1.985 . S
N310 C312 1.335 . S
N310 C313 1.390 . S
N311 C312 1.345 . S
N311 C314 1.336 . S
C312 N310 1.335 . S
C312 N311 1.345 . S
C312 H317 0.930 . S
C313 N310 1.390 . S
C313 C314 1.346 . S
C313 H318 0.930 . S
C314 N311 1.336 . S
C314 C313 1.346 . S
C314 H321 0.929 . S
C315 O305 1.282 . S
C315 O316 1.216 . S
O316 C315 1.216 . S
H317 C312 0.930 . S
H318 C313 0.930 . S
O319 Cu299 1.959 . S
O319 C306 1.251 . S
H320 C303 0.930 . S
H321 C314 0.929 . S
Cu322 N323 1.999 . S
Cu322 O328 1.974 . S
Cu322 N333 1.985 . S
Cu322 O342 1.959 . S
N323 Cu322 1.999 . S
N323 C325 1.263 . S
N323 C327 1.389 . S
N324 C325 1.358 . S
N324 C326 1.400 . S
C325 N323 1.263 . S
C325 N324 1.358 . S
C325 H331 0.930 . S
C326 N324 1.400 . S
C326 C327 1.351 . S
C326 H343 0.930 . S
C327 N323 1.389 . S
C327 C326 1.351 . S
C327 H332 0.930 . S
O328 Cu322 1.974 . S
O328 C338 1.282 . S
C329 O330 1.261 . S
C329 O342 1.251 . S
O330 C329 1.261 . S
H331 C325 0.930 . S
H332 C327 0.930 . S
N333 Cu322 1.985 . S
N333 C335 1.335 . S
N333 C336 1.390 . S
N334 C335 1.345 . S
N334 C337 1.336 . S
C335 N333 1.335 . S
C335 N334 1.345 . S
C335 H340 0.930 . S
C336 N333 1.390 . S
C336 C337 1.346 . S
C336 H341 0.930 . S
C337 N334 1.336 . S
C337 C336 1.346 . S
C337 H344 0.929 . S
C338 O328 1.282 . S
C338 O339 1.216 . S
O339 C338 1.216 . S
H340 C335 0.930 . S
H341 C336 0.930 . S
O342 Cu322 1.959 . S
O342 C329 1.251 . S
H343 C326 0.930 . S
H344 C337 0.929 . S
Cu345 N346 1.999 . S
Cu345 O351 1.974 . S
Cu345 N356 1.985 . S
Cu345 O365 1.959 . S
N346 Cu345 1.999 . S
N346 C348 1.263 . S
N346 C350 1.389 . S
N347 C348 1.358 . S
N347 C349 1.400 . S
C348 N346 1.263 . S
C348 N347 1.358 . S
C348 H354 0.930 . S
C349 N347 1.400 . S
C349 C350 1.351 . S
C349 H366 0.930 . S
C350 N346 1.389 . S
C350 C349 1.351 . S
C350 H355 0.930 . S
O351 Cu345 1.974 . S
O351 C361 1.282 . S
C352 O353 1.261 . S
C352 O365 1.251 . S
O353 C352 1.261 . S
H354 C348 0.930 . S
H355 C350 0.930 . S
N356 Cu345 1.985 . S
N356 C358 1.335 . S
N356 C359 1.390 . S
N357 C358 1.345 . S
N357 C360 1.336 . S
C358 N356 1.335 . S
C358 N357 1.345 . S
C358 H363 0.930 . S
C359 N356 1.390 . S
C359 C360 1.346 . S
C359 H364 0.930 . S
C360 N357 1.336 . S
C360 C359 1.346 . S
C360 H367 0.929 . S
C361 O351 1.282 . S
C361 O362 1.216 . S
O362 C361 1.216 . S
H363 C358 0.930 . S
H364 C359 0.930 . S
O365 Cu345 1.959 . S
O365 C352 1.251 . S
H366 C349 0.930 . S
H367 C360 0.929 . S
Cu368 N369 1.999 . S
Cu368 O374 1.974 . S
Cu368 N379 1.985 . S
Cu368 O388 1.959 . S
N369 Cu368 1.999 . S
N369 C371 1.263 . S
N369 C373 1.389 . S
N370 C371 1.358 . S
N370 C372 1.400 . S
C371 N369 1.263 . S
C371 N370 1.358 . S
C371 H377 0.930 . S
C372 N370 1.400 . S
C372 C373 1.351 . S
C372 H389 0.930 . S
C373 N369 1.389 . S
C373 C372 1.351 . S
C373 H378 0.930 . S
O374 Cu368 1.974 . S
O374 C384 1.282 . S
C375 O376 1.261 . S
C375 O388 1.251 . S
O376 C375 1.261 . S
H377 C371 0.930 . S
H378 C373 0.930 . S
N379 Cu368 1.985 . S
N379 C381 1.335 . S
N379 C382 1.390 . S
N380 C381 1.345 . S
N380 C383 1.336 . S
C381 N379 1.335 . S
C381 N380 1.345 . S
C381 H386 0.930 . S
C382 N379 1.390 . S
C382 C383 1.346 . S
C382 H387 0.930 . S
C383 N380 1.336 . S
C383 C382 1.346 . S
C383 H390 0.929 . S
C384 O374 1.282 . S
C384 O385 1.216 . S
O385 C384 1.216 . S
H386 C381 0.930 . S
H387 C382 0.930 . S
O388 Cu368 1.959 . S
O388 C375 1.251 . S
H389 C372 0.930 . S
H390 C383 0.929 . S
Cu391 N392 1.999 . S
Cu391 O397 1.974 . S
Cu391 N402 1.985 . S
Cu391 O411 1.959 . S
N392 Cu391 1.999 . S
N392 C394 1.263 . S
N392 C396 1.389 . S
N393 C394 1.358 . S
N393 C395 1.400 . S
C394 N392 1.263 . S
C394 N393 1.358 . S
C394 H400 0.930 . S
C395 N393 1.400 . S
C395 C396 1.351 . S
C395 H412 0.930 . S
C396 N392 1.389 . S
C396 C395 1.351 . S
C396 H401 0.930 . S
O397 Cu391 1.974 . S
O397 C407 1.282 . S
C398 O399 1.261 . S
C398 O411 1.251 . S
O399 C398 1.261 . S
H400 C394 0.930 . S
H401 C396 0.930 . S
N402 Cu391 1.985 . S
N402 C404 1.335 . S
N402 C405 1.390 . S
N403 C404 1.345 . S
N403 C406 1.336 . S
C404 N402 1.335 . S
C404 N403 1.345 . S
C404 H409 0.930 . S
C405 N402 1.390 . S
C405 C406 1.346 . S
C405 H410 0.930 . S
C406 N403 1.336 . S
C406 C405 1.346 . S
C406 H413 0.929 . S
C407 O397 1.282 . S
C407 O408 1.216 . S
O408 C407 1.216 . S
H409 C404 0.930 . S
H410 C405 0.930 . S
O411 Cu391 1.959 . S
O411 C398 1.251 . S
H412 C395 0.930 . S
H413 C406 0.929 . S
Cu414 N415 1.999 . S
Cu414 O420 1.974 . S
Cu414 N425 1.985 . S
Cu414 O434 1.959 . S
N415 Cu414 1.999 . S
N415 C417 1.263 . S
N415 C419 1.389 . S
N416 C417 1.358 . S
N416 C418 1.400 . S
C417 N415 1.263 . S
C417 N416 1.358 . S
C417 H423 0.930 . S
C418 N416 1.400 . S
C418 C419 1.351 . S
C418 H435 0.930 . S
C419 N415 1.389 . S
C419 C418 1.351 . S
C419 H424 0.930 . S
O420 Cu414 1.974 . S
O420 C430 1.282 . S
C421 O422 1.261 . S
C421 O434 1.251 . S
O422 C421 1.261 . S
H423 C417 0.930 . S
H424 C419 0.930 . S
N425 Cu414 1.985 . S
N425 C427 1.335 . S
N425 C428 1.390 . S
N426 C427 1.345 . S
N426 C429 1.336 . S
C427 N425 1.335 . S
C427 N426 1.345 . S
C427 H432 0.930 . S
C428 N425 1.390 . S
C428 C429 1.346 . S
C428 H433 0.930 . S
C429 N426 1.336 . S
C429 C428 1.346 . S
C429 H436 0.929 . S
C430 O420 1.282 . S
C430 O431 1.216 . S
O431 C430 1.216 . S
H432 C427 0.930 . S
H433 C428 0.930 . S
O434 Cu414 1.959 . S
O434 C421 1.251 . S
H435 C418 0.930 . S
H436 C429 0.929 . S
Cu437 N438 1.999 . S
Cu437 O443 1.974 . S
Cu437 N448 1.985 . S
Cu437 O457 1.959 . S
N438 Cu437 1.999 . S
N438 C440 1.263 . S
N438 C442 1.389 . S
N439 C440 1.358 . S
N439 C441 1.400 . S
C440 N438 1.263 . S
C440 N439 1.358 . S
C440 H446 0.930 . S
C441 N439 1.400 . S
C441 C442 1.351 . S
C441 H458 0.930 . S
C442 N438 1.389 . S
C442 C441 1.351 . S
C442 H447 0.930 . S
O443 Cu437 1.974 . S
O443 C453 1.282 . S
C444 O445 1.261 . S
C444 O457 1.251 . S
O445 C444 1.261 . S
H446 C440 0.930 . S
H447 C442 0.930 . S
N448 Cu437 1.985 . S
N448 C450 1.335 . S
N448 C451 1.390 . S
N449 C450 1.345 . S
N449 C452 1.336 . S
C450 N448 1.335 . S
C450 N449 1.345 . S
C450 H455 0.930 . S
C451 N448 1.390 . S
C451 C452 1.346 . S
C451 H456 0.930 . S
C452 N449 1.336 . S
C452 C451 1.346 . S
C452 H459 0.929 . S
C453 O443 1.282 . S
C453 O454 1.216 . S
O454 C453 1.216 . S
H455 C450 0.930 . S
H456 C451 0.930 . S
O457 Cu437 1.959 . S
O457 C444 1.251 . S
H458 C441 0.930 . S
H459 C452 0.929 . S
Cu460 N461 1.999 . S
Cu460 O466 1.974 . S
Cu460 N471 1.985 . S
Cu460 O480 1.959 . S
N461 Cu460 1.999 . S
N461 C463 1.263 . S
N461 C465 1.389 . S
N462 C463 1.358 . S
N462 C464 1.400 . S
C463 N461 1.263 . S
C463 N462 1.358 . S
C463 H469 0.930 . S
C464 N462 1.400 . S
C464 C465 1.351 . S
C464 H481 0.930 . S
C465 N461 1.389 . S
C465 C464 1.351 . S
C465 H470 0.930 . S
O466 Cu460 1.974 . S
O466 C476 1.282 . S
C467 O468 1.261 . S
C467 O480 1.251 . S
O468 C467 1.261 . S
H469 C463 0.930 . S
H470 C465 0.930 . S
N471 Cu460 1.985 . S
N471 C473 1.335 . S
N471 C474 1.390 . S
N472 C473 1.345 . S
N472 C475 1.336 . S
C473 N471 1.335 . S
C473 N472 1.345 . S
C473 H478 0.930 . S
C474 N471 1.390 . S
C474 C475 1.346 . S
C474 H479 0.930 . S
C475 N472 1.336 . S
C475 C474 1.346 . S
C475 H482 0.929 . S
C476 O466 1.282 . S
C476 O477 1.216 . S
O477 C476 1.216 . S
H478 C473 0.930 . S
H479 C474 0.930 . S
O480 Cu460 1.959 . S
O480 C467 1.251 . S
H481 C464 0.930 . S
H482 C475 0.929 . S
Cu483 N484 1.999 . S
Cu483 O489 1.974 . S
Cu483 N494 1.985 . S
Cu483 O503 1.959 . S
N484 Cu483 1.999 . S
N484 C486 1.263 . S
N484 C488 1.389 . S
N485 C486 1.358 . S
N485 C487 1.400 . S
C486 N484 1.263 . S
C486 N485 1.358 . S
C486 H492 0.930 . S
C487 N485 1.400 . S
C487 C488 1.351 . S
C487 H504 0.930 . S
C488 N484 1.389 . S
C488 C487 1.351 . S
C488 H493 0.930 . S
O489 Cu483 1.974 . S
O489 C499 1.282 . S
C490 O491 1.261 . S
C490 O503 1.251 . S
O491 C490 1.261 . S
H492 C486 0.930 . S
H493 C488 0.930 . S
N494 Cu483 1.985 . S
N494 C496 1.335 . S
N494 C497 1.390 . S
N495 C496 1.345 . S
N495 C498 1.336 . S
C496 N494 1.335 . S
C496 N495 1.345 . S
C496 H501 0.930 . S
C497 N494 1.390 . S
C497 C498 1.346 . S
C497 H502 0.930 . S
C498 N495 1.336 . S
C498 C497 1.346 . S
C498 H505 0.929 . S
C499 O489 1.282 . S
C499 O500 1.216 . S
O500 C499 1.216 . S
H501 C496 0.930 . S
H502 C497 0.930 . S
O503 Cu483 1.959 . S
O503 C490 1.251 . S
H504 C487 0.930 . S
H505 C498 0.929 . S
Cu506 N507 1.999 . S
Cu506 O512 1.974 . S
Cu506 N517 1.985 . S
Cu506 O526 1.959 . S
N507 Cu506 1.999 . S
N507 C509 1.263 . S
N507 C511 1.389 . S
N508 C509 1.358 . S
N508 C510 1.400 . S
C509 N507 1.263 . S
C509 N508 1.358 . S
C509 H515 0.930 . S
C510 N508 1.400 . S
C510 C511 1.351 . S
C510 H527 0.930 . S
C511 N507 1.389 . S
C511 C510 1.351 . S
C511 H516 0.930 . S
O512 Cu506 1.974 . S
O512 C522 1.282 . S
C513 O514 1.261 . S
C513 O526 1.251 . S
O514 C513 1.261 . S
H515 C509 0.930 . S
H516 C511 0.930 . S
N517 Cu506 1.985 . S
N517 C519 1.335 . S
N517 C520 1.390 . S
N518 C519 1.345 . S
N518 C521 1.336 . S
C519 N517 1.335 . S
C519 N518 1.345 . S
C519 H524 0.930 . S
C520 N517 1.390 . S
C520 C521 1.346 . S
C520 H525 0.930 . S
C521 N518 1.336 . S
C521 C520 1.346 . S
C521 H528 0.929 . S
C522 O512 1.282 . S
C522 O523 1.216 . S
O523 C522 1.216 . S
H524 C519 0.930 . S
H525 C520 0.930 . S
O526 Cu506 1.959 . S
O526 C513 1.251 . S
H527 C510 0.930 . S
H528 C521 0.929 . S
Cu529 N530 1.999 . S
Cu529 O535 1.974 . S
Cu529 N540 1.985 . S
Cu529 O549 1.959 . S
N530 Cu529 1.999 . S
N530 C532 1.263 . S
N530 C534 1.389 . S
N531 C532 1.358 . S
N531 C533 1.400 . S
C532 N530 1.263 . S
C532 N531 1.358 . S
C532 H538 0.930 . S
C533 N531 1.400 . S
C533 C534 1.351 . S
C533 H550 0.930 . S
C534 N530 1.389 . S
C534 C533 1.351 . S
C534 H539 0.930 . S
O535 Cu529 1.974 . S
O535 C545 1.282 . S
C536 O537 1.261 . S
C536 O549 1.251 . S
O537 C536 1.261 . S
H538 C532 0.930 . S
H539 C534 0.930 . S
N540 Cu529 1.985 . S
N540 C542 1.335 . S
N540 C543 1.390 . S
N541 C542 1.345 . S
N541 C544 1.336 . S
C542 N540 1.335 . S
C542 N541 1.345 . S
C542 H547 0.930 . S
C543 N540 1.390 . S
C543 C544 1.346 . S
C543 H548 0.930 . S
C544 N541 1.336 . S
C544 C543 1.346 . S
C544 H551 0.929 . S
C545 O535 1.282 . S
C545 O546 1.216 . S
O546 C545 1.216 . S
H547 C542 0.930 . S
H548 C543 0.930 . S
O549 Cu529 1.959 . S
O549 C536 1.251 . S
H550 C533 0.930 . S
H551 C544 0.929 . S
Cu552 N553 1.999 . S
Cu552 O558 1.974 . S
Cu552 N563 1.985 . S
Cu552 O572 1.959 . S
N553 Cu552 1.999 . S
N553 C555 1.263 . S
N553 C557 1.389 . S
N554 C555 1.358 . S
N554 C556 1.400 . S
C555 N553 1.263 . S
C555 N554 1.358 . S
C555 H561 0.930 . S
C556 N554 1.400 . S
C556 C557 1.351 . S
C556 H573 0.930 . S
C557 N553 1.389 . S
C557 C556 1.351 . S
C557 H562 0.930 . S
O558 Cu552 1.974 . S
O558 C568 1.282 . S
C559 O560 1.261 . S
C559 O572 1.251 . S
O560 C559 1.261 . S
H561 C555 0.930 . S
H562 C557 0.930 . S
N563 Cu552 1.985 . S
N563 C565 1.335 . S
N563 C566 1.390 . S
N564 C565 1.345 . S
N564 C567 1.336 . S
C565 N563 1.335 . S
C565 N564 1.345 . S
C565 H570 0.930 . S
C566 N563 1.390 . S
C566 C567 1.346 . S
C566 H571 0.930 . S
C567 N564 1.336 . S
C567 C566 1.346 . S
C567 H574 0.929 . S
C568 O558 1.282 . S
C568 O569 1.216 . S
O569 C568 1.216 . S
H570 C565 0.930 . S
H571 C566 0.930 . S
O572 Cu552 1.959 . S
O572 C559 1.251 . S
H573 C556 0.930 . S
H574 C567 0.929 . S
Cu575 N576 1.999 . S
Cu575 O581 1.974 . S
Cu575 N586 1.985 . S
Cu575 O595 1.959 . S
N576 Cu575 1.999 . S
N576 C578 1.263 . S
N576 C580 1.389 . S
N577 C578 1.358 . S
N577 C579 1.400 . S
C578 N576 1.263 . S
C578 N577 1.358 . S
C578 H584 0.930 . S
C579 N577 1.400 . S
C579 C580 1.351 . S
C579 H596 0.930 . S
C580 N576 1.389 . S
C580 C579 1.351 . S
C580 H585 0.930 . S
O581 Cu575 1.974 . S
O581 C591 1.282 . S
C582 O583 1.261 . S
C582 O595 1.251 . S
O583 C582 1.261 . S
H584 C578 0.930 . S
H585 C580 0.930 . S
N586 Cu575 1.985 . S
N586 C588 1.335 . S
N586 C589 1.390 . S
N587 C588 1.345 . S
N587 C590 1.336 . S
C588 N586 1.335 . S
C588 N587 1.345 . S
C588 H593 0.930 . S
C589 N586 1.390 . S
C589 C590 1.346 . S
C589 H594 0.930 . S
C590 N587 1.336 . S
C590 C589 1.346 . S
C590 H597 0.929 . S
C591 O581 1.282 . S
C591 O592 1.216 . S
O592 C591 1.216 . S
H593 C588 0.930 . S
H594 C589 0.930 . S
O595 Cu575 1.959 . S
O595 C582 1.251 . S
H596 C579 0.930 . S
H597 C590 0.929 . S
Cu598 N599 1.999 . S
Cu598 O604 1.974 . S
Cu598 N609 1.985 . S
Cu598 O618 1.959 . S
N599 Cu598 1.999 . S
N599 C601 1.263 . S
N599 C603 1.389 . S
N600 C601 1.358 . S
N600 C602 1.400 . S
C601 N599 1.263 . S
C601 N600 1.358 . S
C601 H607 0.930 . S
C602 N600 1.400 . S
C602 C603 1.351 . S
C602 H619 0.930 . S
C603 N599 1.389 . S
C603 C602 1.351 . S
C603 H608 0.930 . S
O604 Cu598 1.974 . S
O604 C614 1.282 . S
C605 O606 1.261 . S
C605 O618 1.251 . S
O606 C605 1.261 . S
H607 C601 0.930 . S
H608 C603 0.930 . S
N609 Cu598 1.985 . S
N609 C611 1.335 . S
N609 C612 1.390 . S
N610 C611 1.345 . S
N610 C613 1.336 . S
C611 N609 1.335 . S
C611 N610 1.345 . S
C611 H616 0.930 . S
C612 N609 1.390 . S
C612 C613 1.346 . S
C612 H617 0.930 . S
C613 N610 1.336 . S
C613 C612 1.346 . S
C613 H620 0.929 . S
C614 O604 1.282 . S
C614 O615 1.216 . S
O615 C614 1.216 . S
H616 C611 0.930 . S
H617 C612 0.930 . S
O618 Cu598 1.959 . S
O618 C605 1.251 . S
H619 C602 0.930 . S
H620 C613 0.929 . S
Cu621 N622 1.999 . S
Cu621 O627 1.974 . S
Cu621 N632 1.985 . S
Cu621 O641 1.959 . S
N622 Cu621 1.999 . S
N622 C624 1.263 . S
N622 C626 1.389 . S
N623 C624 1.358 . S
N623 C625 1.400 . S
C624 N622 1.263 . S
C624 N623 1.358 . S
C624 H630 0.930 . S
C625 N623 1.400 . S
C625 C626 1.351 . S
C625 H642 0.930 . S
C626 N622 1.389 . S
C626 C625 1.351 . S
C626 H631 0.930 . S
O627 Cu621 1.974 . S
O627 C637 1.282 . S
C628 O629 1.261 . S
C628 O641 1.251 . S
O629 C628 1.261 . S
H630 C624 0.930 . S
H631 C626 0.930 . S
N632 Cu621 1.985 . S
N632 C634 1.335 . S
N632 C635 1.390 . S
N633 C634 1.345 . S
N633 C636 1.336 . S
C634 N632 1.335 . S
C634 N633 1.345 . S
C634 H639 0.930 . S
C635 N632 1.390 . S
C635 C636 1.346 . S
C635 H640 0.930 . S
C636 N633 1.336 . S
C636 C635 1.346 . S
C636 H643 0.929 . S
C637 O627 1.282 . S
C637 O638 1.216 . S
O638 C637 1.216 . S
H639 C634 0.930 . S
H640 C635 0.930 . S
O641 Cu621 1.959 . S
O641 C628 1.251 . S
H642 C625 0.930 . S
H643 C636 0.929 . S
Cu644 N645 1.999 . S
Cu644 O650 1.974 . S
Cu644 N655 1.985 . S
Cu644 O664 1.959 . S
N645 Cu644 1.999 . S
N645 C647 1.263 . S
N645 C649 1.389 . S
N646 C647 1.358 . S
N646 C648 1.400 . S
C647 N645 1.263 . S
C647 N646 1.358 . S
C647 H653 0.930 . S
C648 N646 1.400 . S
C648 C649 1.351 . S
C648 H665 0.930 . S
C649 N645 1.389 . S
C649 C648 1.351 . S
C649 H654 0.930 . S
O650 Cu644 1.974 . S
O650 C660 1.282 . S
C651 O652 1.261 . S
C651 O664 1.251 . S
O652 C651 1.261 . S
H653 C647 0.930 . S
H654 C649 0.930 . S
N655 Cu644 1.985 . S
N655 C657 1.335 . S
N655 C658 1.390 . S
N656 C657 1.345 . S
N656 C659 1.336 . S
C657 N655 1.335 . S
C657 N656 1.345 . S
C657 H662 0.930 . S
C658 N655 1.390 . S
C658 C659 1.346 . S
C658 H663 0.930 . S
C659 N656 1.336 . S
C659 C658 1.346 . S
C659 H666 0.929 . S
C660 O650 1.282 . S
C660 O661 1.216 . S
O661 C660 1.216 . S
H662 C657 0.930 . S
H663 C658 0.930 . S
O664 Cu644 1.959 . S
O664 C651 1.251 . S
H665 C648 0.930 . S
H666 C659 0.929 . S
Cu667 N668 1.999 . S
Cu667 O673 1.974 . S
Cu667 N678 1.985 . S
Cu667 O687 1.959 . S
N668 Cu667 1.999 . S
N668 C670 1.263 . S
N668 C672 1.389 . S
N669 C670 1.358 . S
N669 C671 1.400 . S
C670 N668 1.263 . S
C670 N669 1.358 . S
C670 H676 0.930 . S
C671 N669 1.400 . S
C671 C672 1.351 . S
C671 H688 0.930 . S
C672 N668 1.389 . S
C672 C671 1.351 . S
C672 H677 0.930 . S
O673 Cu667 1.974 . S
O673 C683 1.282 . S
C674 O675 1.261 . S
C674 O687 1.251 . S
O675 C674 1.261 . S
H676 C670 0.930 . S
H677 C672 0.930 . S
N678 Cu667 1.985 . S
N678 C680 1.335 . S
N678 C681 1.390 . S
N679 C680 1.345 . S
N679 C682 1.336 . S
C680 N678 1.335 . S
C680 N679 1.345 . S
C680 H685 0.930 . S
C681 N678 1.390 . S
C681 C682 1.346 . S
C681 H686 0.930 . S
C682 N679 1.336 . S
C682 C681 1.346 . S
C682 H689 0.929 . S
C683 O673 1.282 . S
C683 O684 1.216 . S
O684 C683 1.216 . S
H685 C680 0.930 . S
H686 C681 0.930 . S
O687 Cu667 1.959 . S
O687 C674 1.251 . S
H688 C671 0.930 . S
H689 C682 0.929 . S
Cu690 N691 1.999 . S
Cu690 O696 1.974 . S
Cu690 N701 1.985 . S
Cu690 O710 1.959 . S
N691 Cu690 1.999 . S
N691 C693 1.263 . S
N691 C695 1.389 . S
N692 C693 1.358 . S
N692 C694 1.400 . S
C693 N691 1.263 . S
C693 N692 1.358 . S
C693 H699 0.930 . S
C694 N692 1.400 . S
C694 C695 1.351 . S
C694 H711 0.930 . S
C695 N691 1.389 . S
C695 C694 1.351 . S
C695 H700 0.930 . S
O696 Cu690 1.974 . S
O696 C706 1.282 . S
C697 O698 1.261 . S
C697 O710 1.251 . S
O698 C697 1.261 . S
H699 C693 0.930 . S
H700 C695 0.930 . S
N701 Cu690 1.985 . S
N701 C703 1.335 . S
N701 C704 1.390 . S
N702 C703 1.345 . S
N702 C705 1.336 . S
C703 N701 1.335 . S
C703 N702 1.345 . S
C703 H708 0.930 . S
C704 N701 1.390 . S
C704 C705 1.346 . S
C704 H709 0.930 . S
C705 N702 1.336 . S
C705 C704 1.346 . S
C705 H712 0.929 . S
C706 O696 1.282 . S
C706 O707 1.216 . S
O707 C706 1.216 . S
H708 C703 0.930 . S
H709 C704 0.930 . S
O710 Cu690 1.959 . S
O710 C697 1.251 . S
H711 C694 0.930 . S
H712 C705 0.929 . S
Cu713 N714 1.999 . S
Cu713 O719 1.974 . S
Cu713 N724 1.985 . S
Cu713 O733 1.959 . S
N714 Cu713 1.999 . S
N714 C716 1.263 . S
N714 C718 1.389 . S
N715 C716 1.358 . S
N715 C717 1.400 . S
C716 N714 1.263 . S
C716 N715 1.358 . S
C716 H722 0.930 . S
C717 N715 1.400 . S
C717 C718 1.351 . S
C717 H734 0.930 . S
C718 N714 1.389 . S
C718 C717 1.351 . S
C718 H723 0.930 . S
O719 Cu713 1.974 . S
O719 C729 1.282 . S
C720 O721 1.261 . S
C720 O733 1.251 . S
O721 C720 1.261 . S
H722 C716 0.930 . S
H723 C718 0.930 . S
N724 Cu713 1.985 . S
N724 C726 1.335 . S
N724 C727 1.390 . S
N725 C726 1.345 . S
N725 C728 1.336 . S
C726 N724 1.335 . S
C726 N725 1.345 . S
C726 H731 0.930 . S
C727 N724 1.390 . S
C727 C728 1.346 . S
C727 H732 0.930 . S
C728 N725 1.336 . S
C728 C727 1.346 . S
C728 H735 0.929 . S
C729 O719 1.282 . S
C729 O730 1.216 . S
O730 C729 1.216 . S
H731 C726 0.930 . S
H732 C727 0.930 . S
O733 Cu713 1.959 . S
O733 C720 1.251 . S
H734 C717 0.930 . S
H735 C728 0.929 . S
C736 C737 1.391 . S
C736 C738 1.394 . S
C736 H752 0.931 . S
C737 C736 1.391 . S
C737 C741 1.376 . S
C738 C736 1.394 . S
C738 C739 1.369 . S
C738 C742 1.531 . S
C739 C738 1.369 . S
C739 C740 1.410 . S
C739 C747 1.503 . S
C740 C739 1.410 . S
C740 C741 1.392 . S
C740 C743 1.511 . S
C741 C737 1.376 . S
C741 C740 1.392 . S
C741 H753 0.929 . S
C742 C738 1.531 . S
C742 H754 0.960 . S
C742 H755 0.962 . S
C742 H756 0.960 . S
C743 C740 1.511 . S
C743 H757 0.961 . S
C743 H758 0.961 . S
C743 H759 0.961 . S
C744 C745 1.370 . S
C744 C746 1.363 . S
C744 H760 0.931 . S
C745 C744 1.370 . S
C745 C749 1.408 . S
C746 C744 1.363 . S
C746 C747 1.370 . S
C746 C750 1.524 . S
C747 C739 1.503 . S
C747 C746 1.370 . S
C747 C748 1.403 . S
C748 C747 1.403 . S
C748 C749 1.404 . S
C748 C751 1.539 . S
C749 C745 1.408 . S
C749 C748 1.404 . S
C749 H761 0.930 . S
C750 C746 1.524 . S
C750 H762 0.956 . S
C750 H763 0.961 . S
C750 H764 0.961 . S
C751 C748 1.539 . S
C751 H765 0.958 . S
C751 H766 0.961 . S
C751 H767 0.960 . S
H752 C736 0.931 . S
H753 C741 0.929 . S
H754 C742 0.960 . S
H755 C742 0.962 . S
H756 C742 0.960 . S
H757 C743 0.961 . S
H758 C743 0.961 . S
H759 C743 0.961 . S
H760 C744 0.931 . S
H761 C749 0.930 . S
H762 C750 0.956 . S
H763 C750 0.961 . S
H764 C750 0.961 . S
H765 C751 0.958 . S
H766 C751 0.961 . S
H767 C751 0.960 . S
C768 C769 1.391 . S
C768 C770 1.394 . S
C768 H784 0.931 . S
C769 C768 1.391 . S
C769 C773 1.376 . S
C770 C768 1.394 . S
C770 C771 1.369 . S
C770 C774 1.531 . S
C771 C770 1.369 . S
C771 C772 1.410 . S
C771 C779 1.503 . S
C772 C771 1.410 . S
C772 C773 1.392 . S
C772 C775 1.511 . S
C773 C769 1.376 . S
C773 C772 1.392 . S
C773 H785 0.929 . S
C774 C770 1.531 . S
C774 H786 0.960 . S
C774 H787 0.962 . S
C774 H788 0.960 . S
C775 C772 1.511 . S
C775 H789 0.961 . S
C775 H790 0.961 . S
C775 H791 0.961 . S
C776 C777 1.370 . S
C776 C778 1.363 . S
C776 H792 0.931 . S
C777 C776 1.370 . S
C777 C781 1.408 . S
C778 C776 1.363 . S
C778 C779 1.370 . S
C778 C782 1.524 . S
C779 C771 1.503 . S
C779 C778 1.370 . S
C779 C780 1.403 . S
C780 C779 1.403 . S
C780 C781 1.404 . S
C780 C783 1.539 . S
C781 C777 1.408 . S
C781 C780 1.404 . S
C781 H793 0.930 . S
C782 C778 1.524 . S
C782 H794 0.956 . S
C782 H795 0.961 . S
C782 H796 0.961 . S
C783 C780 1.539 . S
C783 H797 0.958 . S
C783 H798 0.961 . S
C783 H799 0.960 . S
H784 C768 0.931 . S
H785 C773 0.929 . S
H786 C774 0.960 . S
H787 C774 0.962 . S
H788 C774 0.960 . S
H789 C775 0.961 . S
H790 C775 0.961 . S
H791 C775 0.961 . S
H792 C776 0.931 . S
H793 C781 0.930 . S
H794 C782 0.956 . S
H795 C782 0.961 . S
H796 C782 0.961 . S
H797 C783 0.958 . S
H798 C783 0.961 . S
H799 C783 0.960 . S
C800 C801 1.391 . S
C800 C802 1.394 . S
C800 H816 0.931 . S
C801 C800 1.391 . S
C801 C805 1.376 . S
C802 C800 1.394 . S
C802 C803 1.369 . S
C802 C806 1.531 . S
C803 C802 1.369 . S
C803 C804 1.410 . S
C803 C811 1.503 . S
C804 C803 1.410 . S
C804 C805 1.392 . S
C804 C807 1.511 . S
C805 C801 1.376 . S
C805 C804 1.392 . S
C805 H817 0.929 . S
C806 C802 1.531 . S
C806 H818 0.960 . S
C806 H819 0.962 . S
C806 H820 0.960 . S
C807 C804 1.511 . S
C807 H821 0.961 . S
C807 H822 0.961 . S
C807 H823 0.961 . S
C808 C809 1.370 . S
C808 C810 1.363 . S
C808 H824 0.931 . S
C809 C808 1.370 . S
C809 C813 1.408 . S
C810 C808 1.363 . S
C810 C811 1.370 . S
C810 C814 1.524 . S
C811 C803 1.503 . S
C811 C810 1.370 . S
C811 C812 1.403 . S
C812 C811 1.403 . S
C812 C813 1.404 . S
C812 C815 1.539 . S
C813 C809 1.408 . S
C813 C812 1.404 . S
C813 H825 0.930 . S
C814 C810 1.524 . S
C814 H826 0.956 . S
C814 H827 0.961 . S
C814 H828 0.961 . S
C815 C812 1.539 . S
C815 H829 0.958 . S
C815 H830 0.961 . S
C815 H831 0.960 . S
H816 C800 0.931 . S
H817 C805 0.929 . S
H818 C806 0.960 . S
H819 C806 0.962 . S
H820 C806 0.960 . S
H821 C807 0.961 . S
H822 C807 0.961 . S
H823 C807 0.961 . S
H824 C808 0.931 . S
H825 C813 0.930 . S
H826 C814 0.956 . S
H827 C814 0.961 . S
H828 C814 0.961 . S
H829 C815 0.958 . S
H830 C815 0.961 . S
H831 C815 0.960 . S
C832 C833 1.391 . S
C832 C834 1.394 . S
C832 H848 0.931 . S
C833 C832 1.391 . S
C833 C837 1.376 . S
C834 C832 1.394 . S
C834 C835 1.369 . S
C834 C838 1.531 . S
C835 C834 1.369 . S
C835 C836 1.410 . S
C835 C843 1.503 . S
C836 C835 1.410 . S
C836 C837 1.392 . S
C836 C839 1.511 . S
C837 C833 1.376 . S
C837 C836 1.392 . S
C837 H849 0.929 . S
C838 C834 1.531 . S
C838 H850 0.960 . S
C838 H851 0.962 . S
C838 H852 0.960 . S
C839 C836 1.511 . S
C839 H853 0.961 . S
C839 H854 0.961 . S
C839 H855 0.961 . S
C840 C841 1.370 . S
C840 C842 1.363 . S
C840 H856 0.931 . S
C841 C840 1.370 . S
C841 C845 1.408 . S
C842 C840 1.363 . S
C842 C843 1.370 . S
C842 C846 1.524 . S
C843 C835 1.503 . S
C843 C842 1.370 . S
C843 C844 1.403 . S
C844 C843 1.403 . S
C844 C845 1.404 . S
C844 C847 1.539 . S
C845 C841 1.408 . S
C845 C844 1.404 . S
C845 H857 0.930 . S
C846 C842 1.524 . S
C846 H858 0.956 . S
C846 H859 0.961 . S
C846 H860 0.961 . S
C847 C844 1.539 . S
C847 H861 0.958 . S
C847 H862 0.961 . S
C847 H863 0.960 . S
H848 C832 0.931 . S
H849 C837 0.929 . S
H850 C838 0.960 . S
H851 C838 0.962 . S
H852 C838 0.960 . S
H853 C839 0.961 . S
H854 C839 0.961 . S
H855 C839 0.961 . S
H856 C840 0.931 . S
H857 C845 0.930 . S
H858 C846 0.956 . S
H859 C846 0.961 . S
H860 C846 0.961 . S
H861 C847 0.958 . S
H862 C847 0.961 . S
H863 C847 0.960 . S
C864 C865 1.391 . S
C864 C866 1.394 . S
C864 H880 0.931 . S
C865 C864 1.391 . S
C865 C869 1.376 . S
C866 C864 1.394 . S
C866 C867 1.369 . S
C866 C870 1.531 . S
C867 C866 1.369 . S
C867 C868 1.410 . S
C867 C875 1.503 . S
C868 C867 1.410 . S
C868 C869 1.392 . S
C868 C871 1.511 . S
C869 C865 1.376 . S
C869 C868 1.392 . S
C869 H881 0.929 . S
C870 C866 1.531 . S
C870 H882 0.960 . S
C870 H883 0.962 . S
C870 H884 0.960 . S
C871 C868 1.511 . S
C871 H885 0.961 . S
C871 H886 0.961 . S
C871 H887 0.961 . S
C872 C873 1.370 . S
C872 C874 1.363 . S
C872 H888 0.931 . S
C873 C872 1.370 . S
C873 C877 1.408 . S
C874 C872 1.363 . S
C874 C875 1.370 . S
C874 C878 1.524 . S
C875 C867 1.503 . S
C875 C874 1.370 . S
C875 C876 1.403 . S
C876 C875 1.403 . S
C876 C877 1.404 . S
C876 C879 1.539 . S
C877 C873 1.408 . S
C877 C876 1.404 . S
C877 H889 0.930 . S
C878 C874 1.524 . S
C878 H890 0.956 . S
C878 H891 0.961 . S
C878 H892 0.961 . S
C879 C876 1.539 . S
C879 H893 0.958 . S
C879 H894 0.961 . S
C879 H895 0.960 . S
H880 C864 0.931 . S
H881 C869 0.929 . S
H882 C870 0.960 . S
H883 C870 0.962 . S
H884 C870 0.960 . S
H885 C871 0.961 . S
H886 C871 0.961 . S
H887 C871 0.961 . S
H888 C872 0.931 . S
H889 C877 0.930 . S
H890 C878 0.956 . S
H891 C878 0.961 . S
H892 C878 0.961 . S
H893 C879 0.958 . S
H894 C879 0.961 . S
H895 C879 0.960 . S
C896 C897 1.391 . S
C896 C898 1.394 . S
C896 H912 0.931 . S
C897 C896 1.391 . S
C897 C901 1.376 . S
C898 C896 1.394 . S
C898 C899 1.369 . S
C898 C902 1.531 . S
C899 C898 1.369 . S
C899 C900 1.410 . S
C899 C907 1.503 . S
C900 C899 1.410 . S
C900 C901 1.392 . S
C900 C903 1.511 . S
C901 C897 1.376 . S
C901 C900 1.392 . S
C901 H913 0.929 . S
C902 C898 1.531 . S
C902 H914 0.960 . S
C902 H915 0.962 . S
C902 H916 0.960 . S
C903 C900 1.511 . S
C903 H917 0.961 . S
C903 H918 0.961 . S
C903 H919 0.961 . S
C904 C905 1.370 . S
C904 C906 1.363 . S
C904 H920 0.931 . S
C905 C904 1.370 . S
C905 C909 1.408 . S
C906 C904 1.363 . S
C906 C907 1.370 . S
C906 C910 1.524 . S
C907 C899 1.503 . S
C907 C906 1.370 . S
C907 C908 1.403 . S
C908 C907 1.403 . S
C908 C909 1.404 . S
C908 C911 1.539 . S
C909 C905 1.408 . S
C909 C908 1.404 . S
C909 H921 0.930 . S
C910 C906 1.524 . S
C910 H922 0.956 . S
C910 H923 0.961 . S
C910 H924 0.961 . S
C911 C908 1.539 . S
C911 H925 0.958 . S
C911 H926 0.961 . S
C911 H927 0.960 . S
H912 C896 0.931 . S
H913 C901 0.929 . S
H914 C902 0.960 . S
H915 C902 0.962 . S
H916 C902 0.960 . S
H917 C903 0.961 . S
H918 C903 0.961 . S
H919 C903 0.961 . S
H920 C904 0.931 . S
H921 C909 0.930 . S
H922 C910 0.956 . S
H923 C910 0.961 . S
H924 C910 0.961 . S
H925 C911 0.958 . S
H926 C911 0.961 . S
H927 C911 0.960 . S
C928 C929 1.391 . S
C928 C930 1.394 . S
C928 H944 0.931 . S
C929 C928 1.391 . S
C929 C933 1.376 . S
C930 C928 1.394 . S
C930 C931 1.369 . S
C930 C934 1.531 . S
C931 C930 1.369 . S
C931 C932 1.410 . S
C931 C939 1.503 . S
C932 C931 1.410 . S
C932 C933 1.392 . S
C932 C935 1.511 . S
C933 C929 1.376 . S
C933 C932 1.392 . S
C933 H945 0.929 . S
C934 C930 1.531 . S
C934 H946 0.960 . S
C934 H947 0.962 . S
C934 H948 0.960 . S
C935 C932 1.511 . S
C935 H949 0.961 . S
C935 H950 0.961 . S
C935 H951 0.961 . S
C936 C937 1.370 . S
C936 C938 1.363 . S
C936 H952 0.931 . S
C937 C936 1.370 . S
C937 C941 1.408 . S
C938 C936 1.363 . S
C938 C939 1.370 . S
C938 C942 1.524 . S
C939 C931 1.503 . S
C939 C938 1.370 . S
C939 C940 1.403 . S
C940 C939 1.403 . S
C940 C941 1.404 . S
C940 C943 1.539 . S
C941 C937 1.408 . S
C941 C940 1.404 . S
C941 H953 0.930 . S
C942 C938 1.524 . S
C942 H954 0.956 . S
C942 H955 0.961 . S
C942 H956 0.961 . S
C943 C940 1.539 . S
C943 H957 0.958 . S
C943 H958 0.961 . S
C943 H959 0.960 . S
H944 C928 0.931 . S
H945 C933 0.929 . S
H946 C934 0.960 . S
H947 C934 0.962 . S
H948 C934 0.960 . S
H949 C935 0.961 . S
H950 C935 0.961 . S
H951 C935 0.961 . S
H952 C936 0.931 . S
H953 C941 0.930 . S
H954 C942 0.956 . S
H955 C942 0.961 . S
H956 C942 0.961 . S
H957 C943 0.958 . S
H958 C943 0.961 . S
H959 C943 0.960 . S
C960 C961 1.391 . S
C960 C962 1.394 . S
C960 H976 0.931 . S
C961 C960 1.391 . S
C961 C965 1.376 . S
C962 C960 1.394 . S
C962 C963 1.369 . S
C962 C966 1.531 . S
C963 C962 1.369 . S
C963 C964 1.410 . S
C963 C971 1.503 . S
C964 C963 1.410 . S
C964 C965 1.392 . S
C964 C967 1.511 . S
C965 C961 1.376 . S
C965 C964 1.392 . S
C965 H977 0.929 . S
C966 C962 1.531 . S
C966 H978 0.960 . S
C966 H979 0.962 . S
C966 H980 0.960 . S
C967 C964 1.511 . S
C967 H981 0.961 . S
C967 H982 0.961 . S
C967 H983 0.961 . S
C968 C969 1.370 . S
C968 C970 1.363 . S
C968 H984 0.931 . S
C969 C968 1.370 . S
C969 C973 1.408 . S
C970 C968 1.363 . S
C970 C971 1.370 . S
C970 C974 1.524 . S
C971 C963 1.503 . S
C971 C970 1.370 . S
C971 C972 1.403 . S
C972 C971 1.403 . S
C972 C973 1.404 . S
C972 C975 1.539 . S
C973 C969 1.408 . S
C973 C972 1.404 . S
C973 H985 0.930 . S
C974 C970 1.524 . S
C974 H986 0.956 . S
C974 H987 0.961 . S
C974 H988 0.961 . S
C975 C972 1.539 . S
C975 H989 0.958 . S
C975 H990 0.961 . S
C975 H991 0.960 . S
H976 C960 0.931 . S
H977 C965 0.929 . S
H978 C966 0.960 . S
H979 C966 0.962 . S
H980 C966 0.960 . S
H981 C967 0.961 . S
H982 C967 0.961 . S
H983 C967 0.961 . S
H984 C968 0.931 . S
H985 C973 0.930 . S
H986 C974 0.956 . S
H987 C974 0.961 . S
H988 C974 0.961 . S
H989 C975 0.958 . S
H990 C975 0.961 . S
H991 C975 0.960 . S
C992 C993 1.391 . S
C992 C994 1.394 . S
C992 H1008 0.931 . S
C993 C992 1.391 . S
C993 C997 1.376 . S
C994 C992 1.394 . S
C994 C995 1.369 . S
C994 C998 1.531 . S
C995 C994 1.369 . S
C995 C996 1.410 . S
C995 C1003 1.503 . S
C996 C995 1.410 . S
C996 C997 1.392 . S
C996 C999 1.511 . S
C997 C993 1.376 . S
C997 C996 1.392 . S
C997 H1009 0.929 . S
C998 C994 1.531 . S
C998 H1010 0.960 . S
C998 H1011 0.962 . S
C998 H1012 0.960 . S
C999 C996 1.511 . S
C999 H1013 0.961 . S
C999 H1014 0.961 . S
C999 H1015 0.961 . S
C1000 C1001 1.370 . S
C1000 C1002 1.363 . S
C1000 H1016 0.931 . S
C1001 C1000 1.370 . S
C1001 C1005 1.408 . S
C1002 C1000 1.363 . S
C1002 C1003 1.370 . S
C1002 C1006 1.524 . S
C1003 C995 1.503 . S
C1003 C1002 1.370 . S
C1003 C1004 1.403 . S
C1004 C1003 1.403 . S
C1004 C1005 1.404 . S
C1004 C1007 1.539 . S
C1005 C1001 1.408 . S
C1005 C1004 1.404 . S
C1005 H1017 0.930 . S
C1006 C1002 1.524 . S
C1006 H1018 0.956 . S
C1006 H1019 0.961 . S
C1006 H1020 0.961 . S
C1007 C1004 1.539 . S
C1007 H1021 0.958 . S
C1007 H1022 0.961 . S
C1007 H1023 0.960 . S
H1008 C992 0.931 . S
H1009 C997 0.929 . S
H1010 C998 0.960 . S
H1011 C998 0.962 . S
H1012 C998 0.960 . S
H1013 C999 0.961 . S
H1014 C999 0.961 . S
H1015 C999 0.961 . S
H1016 C1000 0.931 . S
H1017 C1005 0.930 . S
H1018 C1006 0.956 . S
H1019 C1006 0.961 . S
H1020 C1006 0.961 . S
H1021 C1007 0.958 . S
H1022 C1007 0.961 . S
H1023 C1007 0.960 . S
C1024 C1025 1.391 . S
C1024 C1026 1.394 . S
C1024 H1040 0.931 . S
C1025 C1024 1.391 . S
C1025 C1029 1.376 . S
C1026 C1024 1.394 . S
C1026 C1027 1.369 . S
C1026 C1030 1.531 . S
C1027 C1026 1.369 . S
C1027 C1028 1.410 . S
C1027 C1035 1.503 . S
C1028 C1027 1.410 . S
C1028 C1029 1.392 . S
C1028 C1031 1.511 . S
C1029 C1025 1.376 . S
C1029 C1028 1.392 . S
C1029 H1041 0.929 . S
C1030 C1026 1.531 . S
C1030 H1042 0.960 . S
C1030 H1043 0.962 . S
C1030 H1044 0.960 . S
C1031 C1028 1.511 . S
C1031 H1045 0.961 . S
C1031 H1046 0.961 . S
C1031 H1047 0.961 . S
C1032 C1033 1.370 . S
C1032 C1034 1.363 . S
C1032 H1048 0.931 . S
C1033 C1032 1.370 . S
C1033 C1037 1.408 . S
C1034 C1032 1.363 . S
C1034 C1035 1.370 . S
C1034 C1038 1.524 . S
C1035 C1027 1.503 . S
C1035 C1034 1.370 . S
C1035 C1036 1.403 . S
C1036 C1035 1.403 . S
C1036 C1037 1.404 . S
C1036 C1039 1.539 . S
C1037 C1033 1.408 . S
C1037 C1036 1.404 . S
C1037 H1049 0.930 . S
C1038 C1034 1.524 . S
C1038 H1050 0.956 . S
C1038 H1051 0.961 . S
C1038 H1052 0.961 . S
C1039 C1036 1.539 . S
C1039 H1053 0.958 . S
C1039 H1054 0.961 . S
C1039 H1055 0.960 . S
H1040 C1024 0.931 . S
H1041 C1029 0.929 . S
H1042 C1030 0.960 . S
H1043 C1030 0.962 . S
H1044 C1030 0.960 . S
H1045 C1031 0.961 . S
H1046 C1031 0.961 . S
H1047 C1031 0.961 . S
H1048 C1032 0.931 . S
H1049 C1037 0.930 . S
H1050 C1038 0.956 . S
H1051 C1038 0.961 . S
H1052 C1038 0.961 . S
H1053 C1039 0.958 . S
H1054 C1039 0.961 . S
H1055 C1039 0.960 . S
C1056 C1057 1.391 . S
C1056 C1058 1.394 . S
C1056 H1072 0.931 . S
C1057 C1056 1.391 . S
C1057 C1061 1.376 . S
C1058 C1056 1.394 . S
C1058 C1059 1.369 . S
C1058 C1062 1.531 . S
C1059 C1058 1.369 . S
C1059 C1060 1.410 . S
C1059 C1067 1.503 . S
C1060 C1059 1.410 . S
C1060 C1061 1.392 . S
C1060 C1063 1.511 . S
C1061 C1057 1.376 . S
C1061 C1060 1.392 . S
C1061 H1073 0.929 . S
C1062 C1058 1.531 . S
C1062 H1074 0.960 . S
C1062 H1075 0.962 . S
C1062 H1076 0.960 . S
C1063 C1060 1.511 . S
C1063 H1077 0.961 . S
C1063 H1078 0.961 . S
C1063 H1079 0.961 . S
C1064 C1065 1.370 . S
C1064 C1066 1.363 . S
C1064 H1080 0.931 . S
C1065 C1064 1.370 . S
C1065 C1069 1.408 . S
C1066 C1064 1.363 . S
C1066 C1067 1.370 . S
C1066 C1070 1.524 . S
C1067 C1059 1.503 . S
C1067 C1066 1.370 . S
C1067 C1068 1.403 . S
C1068 C1067 1.403 . S
C1068 C1069 1.404 . S
C1068 C1071 1.539 . S
C1069 C1065 1.408 . S
C1069 C1068 1.404 . S
C1069 H1081 0.930 . S
C1070 C1066 1.524 . S
C1070 H1082 0.956 . S
C1070 H1083 0.961 . S
C1070 H1084 0.961 . S
C1071 C1068 1.539 . S
C1071 H1085 0.958 . S
C1071 H1086 0.961 . S
C1071 H1087 0.960 . S
H1072 C1056 0.931 . S
H1073 C1061 0.929 . S
H1074 C1062 0.960 . S
H1075 C1062 0.962 . S
H1076 C1062 0.960 . S
H1077 C1063 0.961 . S
H1078 C1063 0.961 . S
H1079 C1063 0.961 . S
H1080 C1064 0.931 . S
H1081 C1069 0.930 . S
H1082 C1070 0.956 . S
H1083 C1070 0.961 . S
H1084 C1070 0.961 . S
H1085 C1071 0.958 . S
H1086 C1071 0.961 . S
H1087 C1071 0.960 . S
C1088 C1089 1.391 . S
C1088 C1090 1.394 . S
C1088 H1104 0.931 . S
C1089 C1088 1.391 . S
C1089 C1093 1.376 . S
C1090 C1088 1.394 . S
C1090 C1091 1.369 . S
C1090 C1094 1.531 . S
C1091 C1090 1.369 . S
C1091 C1092 1.410 . S
C1091 C1099 1.503 . S
C1092 C1091 1.410 . S
C1092 C1093 1.392 . S
C1092 C1095 1.511 . S
C1093 C1089 1.376 . S
C1093 C1092 1.392 . S
C1093 H1105 0.929 . S
C1094 C1090 1.531 . S
C1094 H1106 0.960 . S
C1094 H1107 0.962 . S
C1094 H1108 0.960 . S
C1095 C1092 1.511 . S
C1095 H1109 0.961 . S
C1095 H1110 0.961 . S
C1095 H1111 0.961 . S
C1096 C1097 1.370 . S
C1096 C1098 1.363 . S
C1096 H1112 0.931 . S
C1097 C1096 1.370 . S
C1097 C1101 1.408 . S
C1098 C1096 1.363 . S
C1098 C1099 1.370 . S
C1098 C1102 1.524 . S
C1099 C1091 1.503 . S
C1099 C1098 1.370 . S
C1099 C1100 1.403 . S
C1100 C1099 1.403 . S
C1100 C1101 1.404 . S
C1100 C1103 1.539 . S
C1101 C1097 1.408 . S
C1101 C1100 1.404 . S
C1101 H1113 0.930 . S
C1102 C1098 1.524 . S
C1102 H1114 0.956 . S
C1102 H1115 0.961 . S
C1102 H1116 0.961 . S
C1103 C1100 1.539 . S
C1103 H1117 0.958 . S
C1103 H1118 0.961 . S
C1103 H1119 0.960 . S
H1104 C1088 0.931 . S
H1105 C1093 0.929 . S
H1106 C1094 0.960 . S
H1107 C1094 0.962 . S
H1108 C1094 0.960 . S
H1109 C1095 0.961 . S
H1110 C1095 0.961 . S
H1111 C1095 0.961 . S
H1112 C1096 0.931 . S
H1113 C1101 0.930 . S
H1114 C1102 0.956 . S
H1115 C1102 0.961 . S
H1116 C1102 0.961 . S
H1117 C1103 0.958 . S
H1118 C1103 0.961 . S
H1119 C1103 0.960 . S
C1120 C1121 1.391 . S
C1120 C1122 1.394 . S
C1120 H1136 0.931 . S
C1121 C1120 1.391 . S
C1121 C1125 1.376 . S
C1122 C1120 1.394 . S
C1122 C1123 1.369 . S
C1122 C1126 1.531 . S
C1123 C1122 1.369 . S
C1123 C1124 1.410 . S
C1123 C1131 1.503 . S
C1124 C1123 1.410 . S
C1124 C1125 1.392 . S
C1124 C1127 1.511 . S
C1125 C1121 1.376 . S
C1125 C1124 1.392 . S
C1125 H1137 0.929 . S
C1126 C1122 1.531 . S
C1126 H1138 0.960 . S
C1126 H1139 0.962 . S
C1126 H1140 0.960 . S
C1127 C1124 1.511 . S
C1127 H1141 0.961 . S
C1127 H1142 0.961 . S
C1127 H1143 0.961 . S
C1128 C1129 1.370 . S
C1128 C1130 1.363 . S
C1128 H1144 0.931 . S
C1129 C1128 1.370 . S
C1129 C1133 1.408 . S
C1130 C1128 1.363 . S
C1130 C1131 1.370 . S
C1130 C1134 1.524 . S
C1131 C1123 1.503 . S
C1131 C1130 1.370 . S
C1131 C1132 1.403 . S
C1132 C1131 1.403 . S
C1132 C1133 1.404 . S
C1132 C1135 1.539 . S
C1133 C1129 1.408 . S
C1133 C1132 1.404 . S
C1133 H1145 0.930 . S
C1134 C1130 1.524 . S
C1134 H1146 0.956 . S
C1134 H1147 0.961 . S
C1134 H1148 0.961 . S
C1135 C1132 1.539 . S
C1135 H1149 0.958 . S
C1135 H1150 0.961 . S
C1135 H1151 0.960 . S
H1136 C1120 0.931 . S
H1137 C1125 0.929 . S
H1138 C1126 0.960 . S
H1139 C1126 0.962 . S
H1140 C1126 0.960 . S
H1141 C1127 0.961 . S
H1142 C1127 0.961 . S
H1143 C1127 0.961 . S
H1144 C1128 0.931 . S
H1145 C1133 0.930 . S
H1146 C1134 0.956 . S
H1147 C1134 0.961 . S
H1148 C1134 0.961 . S
H1149 C1135 0.958 . S
H1150 C1135 0.961 . S
H1151 C1135 0.960 . S
C1152 C1153 1.391 . S
C1152 C1154 1.394 . S
C1152 H1168 0.931 . S
C1153 C1152 1.391 . S
C1153 C1157 1.376 . S
C1154 C1152 1.394 . S
C1154 C1155 1.369 . S
C1154 C1158 1.531 . S
C1155 C1154 1.369 . S
C1155 C1156 1.410 . S
C1155 C1163 1.503 . S
C1156 C1155 1.410 . S
C1156 C1157 1.392 . S
C1156 C1159 1.511 . S
C1157 C1153 1.376 . S
C1157 C1156 1.392 . S
C1157 H1169 0.929 . S
C1158 C1154 1.531 . S
C1158 H1170 0.960 . S
C1158 H1171 0.962 . S
C1158 H1172 0.960 . S
C1159 C1156 1.511 . S
C1159 H1173 0.961 . S
C1159 H1174 0.961 . S
C1159 H1175 0.961 . S
C1160 C1161 1.370 . S
C1160 C1162 1.363 . S
C1160 H1176 0.931 . S
C1161 C1160 1.370 . S
C1161 C1165 1.408 . S
C1162 C1160 1.363 . S
C1162 C1163 1.370 . S
C1162 C1166 1.524 . S
C1163 C1155 1.503 . S
C1163 C1162 1.370 . S
C1163 C1164 1.403 . S
C1164 C1163 1.403 . S
C1164 C1165 1.404 . S
C1164 C1167 1.539 . S
C1165 C1161 1.408 . S
C1165 C1164 1.404 . S
C1165 H1177 0.930 . S
C1166 C1162 1.524 . S
C1166 H1178 0.956 . S
C1166 H1179 0.961 . S
C1166 H1180 0.961 . S
C1167 C1164 1.539 . S
C1167 H1181 0.958 . S
C1167 H1182 0.961 . S
C1167 H1183 0.960 . S
H1168 C1152 0.931 . S
H1169 C1157 0.929 . S
H1170 C1158 0.960 . S
H1171 C1158 0.962 . S
H1172 C1158 0.960 . S
H1173 C1159 0.961 . S
H1174 C1159 0.961 . S
H1175 C1159 0.961 . S
H1176 C1160 0.931 . S
H1177 C1165 0.930 . S
H1178 C1166 0.956 . S
H1179 C1166 0.961 . S
H1180 C1166 0.961 . S
H1181 C1167 0.958 . S
H1182 C1167 0.961 . S
H1183 C1167 0.960 . S
C1184 C1185 1.391 . S
C1184 C1186 1.394 . S
C1184 H1200 0.931 . S
C1185 C1184 1.391 . S
C1185 C1189 1.376 . S
C1186 C1184 1.394 . S
C1186 C1187 1.369 . S
C1186 C1190 1.531 . S
C1187 C1186 1.369 . S
C1187 C1188 1.410 . S
C1187 C1195 1.503 . S
C1188 C1187 1.410 . S
C1188 C1189 1.392 . S
C1188 C1191 1.511 . S
C1189 C1185 1.376 . S
C1189 C1188 1.392 . S
C1189 H1201 0.929 . S
C1190 C1186 1.531 . S
C1190 H1202 0.960 . S
C1190 H1203 0.962 . S
C1190 H1204 0.960 . S
C1191 C1188 1.511 . S
C1191 H1205 0.961 . S
C1191 H1206 0.961 . S
C1191 H1207 0.961 . S
C1192 C1193 1.370 . S
C1192 C1194 1.363 . S
C1192 H1208 0.931 . S
C1193 C1192 1.370 . S
C1193 C1197 1.408 . S
C1194 C1192 1.363 . S
C1194 C1195 1.370 . S
C1194 C1198 1.524 . S
C1195 C1187 1.503 . S
C1195 C1194 1.370 . S
C1195 C1196 1.403 . S
C1196 C1195 1.403 . S
C1196 C1197 1.404 . S
C1196 C1199 1.539 . S
C1197 C1193 1.408 . S
C1197 C1196 1.404 . S
C1197 H1209 0.930 . S
C1198 C1194 1.524 . S
C1198 H1210 0.956 . S
C1198 H1211 0.961 . S
C1198 H1212 0.961 . S
C1199 C1196 1.539 . S
C1199 H1213 0.958 . S
C1199 H1214 0.961 . S
C1199 H1215 0.960 . S
H1200 C1184 0.931 . S
H1201 C1189 0.929 . S
H1202 C1190 0.960 . S
H1203 C1190 0.962 . S
H1204 C1190 0.960 . S
H1205 C1191 0.961 . S
H1206 C1191 0.961 . S
H1207 C1191 0.961 . S
H1208 C1192 0.931 . S
H1209 C1197 0.930 . S
H1210 C1198 0.956 . S
H1211 C1198 0.961 . S
H1212 C1198 0.961 . S
H1213 C1199 0.958 . S
H1214 C1199 0.961 . S
H1215 C1199 0.960 . S
C1216 C1217 1.391 . S
C1216 C1218 1.394 . S
C1216 H1232 0.931 . S
C1217 C1216 1.391 . S
C1217 C1221 1.376 . S
C1218 C1216 1.394 . S
C1218 C1219 1.369 . S
C1218 C1222 1.531 . S
C1219 C1218 1.369 . S
C1219 C1220 1.410 . S
C1219 C1227 1.503 . S
C1220 C1219 1.410 . S
C1220 C1221 1.392 . S
C1220 C1223 1.511 . S
C1221 C1217 1.376 . S
C1221 C1220 1.392 . S
C1221 H1233 0.929 . S
C1222 C1218 1.531 . S
C1222 H1234 0.960 . S
C1222 H1235 0.962 . S
C1222 H1236 0.960 . S
C1223 C1220 1.511 . S
C1223 H1237 0.961 . S
C1223 H1238 0.961 . S
C1223 H1239 0.961 . S
C1224 C1225 1.370 . S
C1224 C1226 1.363 . S
C1224 H1240 0.931 . S
C1225 C1224 1.370 . S
C1225 C1229 1.408 . S
C1226 C1224 1.363 . S
C1226 C1227 1.370 . S
C1226 C1230 1.524 . S
C1227 C1219 1.503 . S
C1227 C1226 1.370 . S
C1227 C1228 1.403 . S
C1228 C1227 1.403 . S
C1228 C1229 1.404 . S
C1228 C1231 1.539 . S
C1229 C1225 1.408 . S
C1229 C1228 1.404 . S
C1229 H1241 0.930 . S
C1230 C1226 1.524 . S
C1230 H1242 0.956 . S
C1230 H1243 0.961 . S
C1230 H1244 0.961 . S
C1231 C1228 1.539 . S
C1231 H1245 0.958 . S
C1231 H1246 0.961 . S
C1231 H1247 0.960 . S
H1232 C1216 0.931 . S
H1233 C1221 0.929 . S
H1234 C1222 0.960 . S
H1235 C1222 0.962 . S
H1236 C1222 0.960 . S
H1237 C1223 0.961 . S
H1238 C1223 0.961 . S
H1239 C1223 0.961 . S
H1240 C1224 0.931 . S
H1241 C1229 0.930 . S
H1242 C1230 0.956 . S
H1243 C1230 0.961 . S
H1244 C1230 0.961 . S
H1245 C1231 0.958 . S
H1246 C1231 0.961 . S
H1247 C1231 0.960 . S
C1248 C1249 1.391 . S
C1248 C1250 1.394 . S
C1248 H1264 0.931 . S
C1249 C1248 1.391 . S
C1249 C1253 1.376 . S
C1250 C1248 1.394 . S
C1250 C1251 1.369 . S
C1250 C1254 1.531 . S
C1251 C1250 1.369 . S
C1251 C1252 1.410 . S
C1251 C1259 1.503 1_655 S
C1252 C1251 1.410 . S
C1252 C1253 1.392 . S
C1252 C1255 1.511 . S
C1253 C1249 1.376 . S
C1253 C1252 1.392 . S
C1253 H1265 0.929 . S
C1254 C1250 1.531 . S
C1254 H1266 0.960 1_655 S
C1254 H1267 0.962 . S
C1254 H1268 0.960 . S
C1255 C1252 1.511 . S
C1255 H1269 0.961 . S
C1255 H1270 0.961 1_655 S
C1255 H1271 0.961 . S
C1256 C1257 1.370 . S
C1256 C1258 1.363 . S
C1256 H1272 0.931 . S
C1257 C1256 1.370 . S
C1257 C1261 1.408 . S
C1258 C1256 1.363 . S
C1258 C1259 1.370 . S
C1258 C1262 1.524 . S
C1259 C1251 1.503 1_455 S
C1259 C1258 1.370 . S
C1259 C1260 1.403 . S
C1260 C1259 1.403 . S
C1260 C1261 1.404 . S
C1260 C1263 1.539 . S
C1261 C1257 1.408 . S
C1261 C1260 1.404 . S
C1261 H1273 0.930 . S
C1262 C1258 1.524 . S
C1262 H1274 0.983 . S
C1262 H1275 0.961 1_455 S
C1262 H1276 0.961 . S
C1263 C1260 1.539 . S
C1263 H1277 0.958 . S
C1263 H1278 0.961 . S
C1263 H1279 0.969 . S
H1264 C1248 0.931 . S
H1265 C1253 0.929 . S
H1266 C1254 0.960 1_455 S
H1267 C1254 0.962 . S
H1268 C1254 0.960 . S
H1269 C1255 0.961 . S
H1270 C1255 0.961 1_455 S
H1271 C1255 0.961 . S
H1272 C1256 0.931 . S
H1273 C1261 0.930 . S
H1274 C1262 0.983 . S
H1275 C1262 0.961 1_655 S
H1276 C1262 0.961 . S
H1277 C1263 0.958 . S
H1278 C1263 0.961 . S
H1279 C1263 0.969 . S
C1280 C1281 1.391 . S
C1280 C1282 1.394 . S
C1280 H1296 0.931 . S
C1281 C1280 1.391 . S
C1281 C1285 1.376 . S
C1282 C1280 1.394 . S
C1282 C1283 1.369 . S
C1282 C1286 1.531 . S
C1283 C1282 1.369 . S
C1283 C1284 1.410 . S
C1283 C1291 1.503 1_545 S
C1284 C1283 1.410 . S
C1284 C1285 1.392 . S
C1284 C1287 1.511 . S
C1285 C1281 1.376 . S
C1285 C1284 1.392 . S
C1285 H1297 0.929 . S
C1286 C1282 1.531 . S
C1286 H1298 0.960 1_545 S
C1286 H1299 0.962 . S
C1286 H1300 0.960 . S
C1287 C1284 1.511 . S
C1287 H1301 0.961 . S
C1287 H1302 0.961 1_545 S
C1287 H1303 0.961 . S
C1288 C1289 1.370 . S
C1288 C1290 1.363 . S
C1288 H1304 0.931 . S
C1289 C1288 1.370 . S
C1289 C1293 1.408 . S
C1290 C1288 1.363 . S
C1290 C1291 1.370 . S
C1290 C1294 1.524 . S
C1291 C1283 1.503 1_565 S
C1291 C1290 1.370 . S
C1291 C1292 1.403 . S
C1292 C1291 1.403 . S
C1292 C1293 1.404 . S
C1292 C1295 1.539 . S
C1293 C1289 1.408 . S
C1293 C1292 1.404 . S
C1293 H1305 0.930 . S
C1294 C1290 1.524 . S
C1294 H1306 0.983 . S
C1294 H1307 0.961 1_565 S
C1294 H1308 0.961 . S
C1295 C1292 1.539 . S
C1295 H1309 0.958 . S
C1295 H1310 0.961 . S
C1295 H1311 0.969 . S
H1296 C1280 0.931 . S
H1297 C1285 0.929 . S
H1298 C1286 0.960 1_565 S
H1299 C1286 0.962 . S
H1300 C1286 0.960 . S
H1301 C1287 0.961 . S
H1302 C1287 0.961 1_565 S
H1303 C1287 0.961 . S
H1304 C1288 0.931 . S
H1305 C1293 0.930 . S
H1306 C1294 0.983 . S
H1307 C1294 0.961 1_545 S
H1308 C1294 0.961 . S
H1309 C1295 0.958 . S
H1310 C1295 0.961 . S
H1311 C1295 0.969 . S
C1312 C1313 1.391 . S
C1312 C1314 1.394 . S
C1312 H1328 0.931 . S
C1313 C1312 1.391 . S
C1313 C1317 1.376 . S
C1314 C1312 1.394 . S
C1314 C1315 1.369 . S
C1314 C1318 1.531 . S
C1315 C1314 1.369 . S
C1315 C1316 1.410 . S
C1315 C1323 1.503 1_455 S
C1316 C1315 1.410 . S
C1316 C1317 1.392 . S
C1316 C1319 1.511 . S
C1317 C1313 1.376 . S
C1317 C1316 1.392 . S
C1317 H1329 0.929 . S
C1318 C1314 1.531 . S
C1318 H1330 0.960 1_455 S
C1318 H1331 0.962 . S
C1318 H1332 0.960 . S
C1319 C1316 1.511 . S
C1319 H1333 0.961 . S
C1319 H1334 0.961 1_455 S
C1319 H1335 0.961 . S
C1320 C1321 1.370 . S
C1320 C1322 1.363 . S
C1320 H1336 0.931 . S
C1321 C1320 1.370 . S
C1321 C1325 1.408 . S
C1322 C1320 1.363 . S
C1322 C1323 1.370 . S
C1322 C1326 1.524 . S
C1323 C1315 1.503 1_655 S
C1323 C1322 1.370 . S
C1323 C1324 1.403 . S
C1324 C1323 1.403 . S
C1324 C1325 1.404 . S
C1324 C1327 1.539 . S
C1325 C1321 1.408 . S
C1325 C1324 1.404 . S
C1325 H1337 0.930 . S
C1326 C1322 1.524 . S
C1326 H1338 0.983 . S
C1326 H1339 0.961 1_655 S
C1326 H1340 0.961 . S
C1327 C1324 1.539 . S
C1327 H1341 0.958 . S
C1327 H1342 0.961 . S
C1327 H1343 0.969 . S
H1328 C1312 0.931 . S
H1329 C1317 0.929 . S
H1330 C1318 0.960 1_655 S
H1331 C1318 0.962 . S
H1332 C1318 0.960 . S
H1333 C1319 0.961 . S
H1334 C1319 0.961 1_655 S
H1335 C1319 0.961 . S
H1336 C1320 0.931 . S
H1337 C1325 0.930 . S
H1338 C1326 0.983 . S
H1339 C1326 0.961 1_455 S
H1340 C1326 0.961 . S
H1341 C1327 0.958 . S
H1342 C1327 0.961 . S
H1343 C1327 0.969 . S
C1344 C1345 1.391 . S
C1344 C1346 1.394 . S
C1344 H1360 0.931 . S
C1345 C1344 1.391 . S
C1345 C1349 1.376 . S
C1346 C1344 1.394 . S
C1346 C1347 1.369 . S
C1346 C1350 1.531 . S
C1347 C1346 1.369 . S
C1347 C1348 1.410 . S
C1347 C1355 1.503 1_565 S
C1348 C1347 1.410 . S
C1348 C1349 1.392 . S
C1348 C1351 1.511 . S
C1349 C1345 1.376 . S
C1349 C1348 1.392 . S
C1349 H1361 0.929 . S
C1350 C1346 1.531 . S
C1350 H1362 0.960 1_565 S
C1350 H1363 0.962 . S
C1350 H1364 0.960 . S
C1351 C1348 1.511 . S
C1351 H1365 0.961 . S
C1351 H1366 0.961 1_565 S
C1351 H1367 0.961 . S
C1352 C1353 1.370 . S
C1352 C1354 1.363 . S
C1352 H1368 0.931 . S
C1353 C1352 1.370 . S
C1353 C1357 1.408 . S
C1354 C1352 1.363 . S
C1354 C1355 1.370 . S
C1354 C1358 1.524 . S
C1355 C1347 1.503 1_545 S
C1355 C1354 1.370 . S
C1355 C1356 1.403 . S
C1356 C1355 1.403 . S
C1356 C1357 1.404 . S
C1356 C1359 1.539 . S
C1357 C1353 1.408 . S
C1357 C1356 1.404 . S
C1357 H1369 0.930 . S
C1358 C1354 1.524 . S
C1358 H1370 0.983 . S
C1358 H1371 0.961 1_545 S
C1358 H1372 0.961 . S
C1359 C1356 1.539 . S
C1359 H1373 0.958 . S
C1359 H1374 0.961 . S
C1359 H1375 0.969 . S
H1360 C1344 0.931 . S
H1361 C1349 0.929 . S
H1362 C1350 0.960 1_545 S
H1363 C1350 0.962 . S
H1364 C1350 0.960 . S
H1365 C1351 0.961 . S
H1366 C1351 0.961 1_545 S
H1367 C1351 0.961 . S
H1368 C1352 0.931 . S
H1369 C1357 0.930 . S
H1370 C1358 0.983 . S
H1371 C1358 0.961 1_565 S
H1372 C1358 0.961 . S
H1373 C1359 0.958 . S
H1374 C1359 0.961 . S
H1375 C1359 0.969 . S
C1376 C1377 1.391 . S
C1376 C1378 1.394 . S
C1376 H1392 0.931 . S
C1377 C1376 1.391 . S
C1377 C1381 1.376 . S
C1378 C1376 1.394 . S
C1378 C1379 1.369 . S
C1378 C1382 1.531 . S
C1379 C1378 1.369 . S
C1379 C1380 1.410 . S
C1379 C1387 1.503 1_455 S
C1380 C1379 1.410 . S
C1380 C1381 1.392 . S
C1380 C1383 1.511 . S
C1381 C1377 1.376 . S
C1381 C1380 1.392 . S
C1381 H1393 0.929 . S
C1382 C1378 1.531 . S
C1382 H1394 0.960 1_455 S
C1382 H1395 0.962 . S
C1382 H1396 0.960 . S
C1383 C1380 1.511 . S
C1383 H1397 0.961 . S
C1383 H1398 0.961 1_455 S
C1383 H1399 0.961 . S
C1384 C1385 1.370 . S
C1384 C1386 1.363 . S
C1384 H1400 0.931 . S
C1385 C1384 1.370 . S
C1385 C1389 1.408 . S
C1386 C1384 1.363 . S
C1386 C1387 1.370 . S
C1386 C1390 1.524 . S
C1387 C1379 1.503 1_655 S
C1387 C1386 1.370 . S
C1387 C1388 1.403 . S
C1388 C1387 1.403 . S
C1388 C1389 1.404 . S
C1388 C1391 1.539 . S
C1389 C1385 1.408 . S
C1389 C1388 1.404 . S
C1389 H1401 0.930 . S
C1390 C1386 1.524 . S
C1390 H1402 0.983 . S
C1390 H1403 0.961 1_655 S
C1390 H1404 0.961 . S
C1391 C1388 1.539 . S
C1391 H1405 0.958 . S
C1391 H1406 0.961 . S
C1391 H1407 0.969 . S
H1392 C1376 0.931 . S
H1393 C1381 0.929 . S
H1394 C1382 0.960 1_655 S
H1395 C1382 0.962 . S
H1396 C1382 0.960 . S
H1397 C1383 0.961 . S
H1398 C1383 0.961 1_655 S
H1399 C1383 0.961 . S
H1400 C1384 0.931 . S
H1401 C1389 0.930 . S
H1402 C1390 0.983 . S
H1403 C1390 0.961 1_455 S
H1404 C1390 0.961 . S
H1405 C1391 0.958 . S
H1406 C1391 0.961 . S
H1407 C1391 0.969 . S
C1408 C1409 1.391 . S
C1408 C1410 1.394 . S
C1408 H1424 0.931 . S
C1409 C1408 1.391 . S
C1409 C1413 1.376 . S
C1410 C1408 1.394 . S
C1410 C1411 1.369 . S
C1410 C1414 1.531 . S
C1411 C1410 1.369 . S
C1411 C1412 1.410 . S
C1411 C1419 1.503 1_565 S
C1412 C1411 1.410 . S
C1412 C1413 1.392 . S
C1412 C1415 1.511 . S
C1413 C1409 1.376 . S
C1413 C1412 1.392 . S
C1413 H1425 0.929 . S
C1414 C1410 1.531 . S
C1414 H1426 0.960 1_565 S
C1414 H1427 0.962 . S
C1414 H1428 0.960 . S
C1415 C1412 1.511 . S
C1415 H1429 0.961 . S
C1415 H1430 0.961 1_565 S
C1415 H1431 0.961 . S
C1416 C1417 1.370 . S
C1416 C1418 1.363 . S
C1416 H1432 0.931 . S
C1417 C1416 1.370 . S
C1417 C1421 1.408 . S
C1418 C1416 1.363 . S
C1418 C1419 1.370 . S
C1418 C1422 1.524 . S
C1419 C1411 1.503 1_545 S
C1419 C1418 1.370 . S
C1419 C1420 1.403 . S
C1420 C1419 1.403 . S
C1420 C1421 1.404 . S
C1420 C1423 1.539 . S
C1421 C1417 1.408 . S
C1421 C1420 1.404 . S
C1421 H1433 0.930 . S
C1422 C1418 1.524 . S
C1422 H1434 0.983 . S
C1422 H1435 0.961 1_545 S
C1422 H1436 0.961 . S
C1423 C1420 1.539 . S
C1423 H1437 0.958 . S
C1423 H1438 0.961 . S
C1423 H1439 0.969 . S
H1424 C1408 0.931 . S
H1425 C1413 0.929 . S
H1426 C1414 0.960 1_545 S
H1427 C1414 0.962 . S
H1428 C1414 0.960 . S
H1429 C1415 0.961 . S
H1430 C1415 0.961 1_545 S
H1431 C1415 0.961 . S
H1432 C1416 0.931 . S
H1433 C1421 0.930 . S
H1434 C1422 0.983 . S
H1435 C1422 0.961 1_565 S
H1436 C1422 0.961 . S
H1437 C1423 0.958 . S
H1438 C1423 0.961 . S
H1439 C1423 0.969 . S
C1440 C1441 1.391 . S
C1440 C1442 1.394 . S
C1440 H1456 0.931 . S
C1441 C1440 1.391 . S
C1441 C1445 1.376 . S
C1442 C1440 1.394 . S
C1442 C1443 1.369 . S
C1442 C1446 1.531 . S
C1443 C1442 1.369 . S
C1443 C1444 1.410 . S
C1443 C1451 1.503 1_455 S
C1444 C1443 1.410 . S
C1444 C1445 1.392 . S
C1444 C1447 1.511 . S
C1445 C1441 1.376 . S
C1445 C1444 1.392 . S
C1445 H1457 0.929 . S
C1446 C1442 1.531 . S
C1446 H1458 0.960 1_455 S
C1446 H1459 0.962 . S
C1446 H1460 0.960 . S
C1447 C1444 1.511 . S
C1447 H1461 0.961 . S
C1447 H1462 0.961 1_455 S
C1447 H1463 0.961 . S
C1448 C1449 1.370 . S
C1448 C1450 1.363 . S
C1448 H1464 0.931 . S
C1449 C1448 1.370 . S
C1449 C1453 1.408 . S
C1450 C1448 1.363 . S
C1450 C1451 1.370 . S
C1450 C1454 1.524 . S
C1451 C1443 1.503 1_655 S
C1451 C1450 1.370 . S
C1451 C1452 1.403 . S
C1452 C1451 1.403 . S
C1452 C1453 1.404 . S
C1452 C1455 1.539 . S
C1453 C1449 1.408 . S
C1453 C1452 1.404 . S
C1453 H1465 0.930 . S
C1454 C1450 1.524 . S
C1454 H1466 0.983 . S
C1454 H1467 0.961 1_655 S
C1454 H1468 0.961 . S
C1455 C1452 1.539 . S
C1455 H1469 0.958 . S
C1455 H1470 0.961 . S
C1455 H1471 0.969 . S
H1456 C1440 0.931 . S
H1457 C1445 0.929 . S
H1458 C1446 0.960 1_655 S
H1459 C1446 0.962 . S
H1460 C1446 0.960 . S
H1461 C1447 0.961 . S
H1462 C1447 0.961 1_655 S
H1463 C1447 0.961 . S
H1464 C1448 0.931 . S
H1465 C1453 0.930 . S
H1466 C1454 0.983 . S
H1467 C1454 0.961 1_455 S
H1468 C1454 0.961 . S
H1469 C1455 0.958 . S
H1470 C1455 0.961 . S
H1471 C1455 0.969 . S
C1472 C1473 1.391 . S
C1472 C1474 1.394 . S
C1472 H1488 0.931 . S
C1473 C1472 1.391 . S
C1473 C1477 1.376 . S
C1474 C1472 1.394 . S
C1474 C1475 1.369 . S
C1474 C1478 1.531 . S
C1475 C1474 1.369 . S
C1475 C1476 1.410 . S
C1475 C1483 1.503 1_545 S
C1476 C1475 1.410 . S
C1476 C1477 1.392 . S
C1476 C1479 1.511 . S
C1477 C1473 1.376 . S
C1477 C1476 1.392 . S
C1477 H1489 0.929 . S
C1478 C1474 1.531 . S
C1478 H1490 0.960 1_545 S
C1478 H1491 0.962 . S
C1478 H1492 0.960 . S
C1479 C1476 1.511 . S
C1479 H1493 0.961 . S
C1479 H1494 0.961 1_545 S
C1479 H1495 0.961 . S
C1480 C1481 1.370 . S
C1480 C1482 1.363 . S
C1480 H1496 0.931 . S
C1481 C1480 1.370 . S
C1481 C1485 1.408 . S
C1482 C1480 1.363 . S
C1482 C1483 1.370 . S
C1482 C1486 1.524 . S
C1483 C1475 1.503 1_565 S
C1483 C1482 1.370 . S
C1483 C1484 1.403 . S
C1484 C1483 1.403 . S
C1484 C1485 1.404 . S
C1484 C1487 1.539 . S
C1485 C1481 1.408 . S
C1485 C1484 1.404 . S
C1485 H1497 0.930 . S
C1486 C1482 1.524 . S
C1486 H1498 0.983 . S
C1486 H1499 0.961 1_565 S
C1486 H1500 0.961 . S
C1487 C1484 1.539 . S
C1487 H1501 0.958 . S
C1487 H1502 0.961 . S
C1487 H1503 0.969 . S
H1488 C1472 0.931 . S
H1489 C1477 0.929 . S
H1490 C1478 0.960 1_565 S
H1491 C1478 0.962 . S
H1492 C1478 0.960 . S
H1493 C1479 0.961 . S
H1494 C1479 0.961 1_565 S
H1495 C1479 0.961 . S
H1496 C1480 0.931 . S
H1497 C1485 0.930 . S
H1498 C1486 0.983 . S
H1499 C1486 0.961 1_545 S
H1500 C1486 0.961 . S
H1501 C1487 0.958 . S
H1502 C1487 0.961 . S
H1503 C1487 0.969 . S
C1504 C1505 1.391 . S
C1504 C1506 1.394 . S
C1504 H1520 0.931 . S
C1505 C1504 1.391 . S
C1505 C1509 1.376 . S
C1506 C1504 1.394 . S
C1506 C1507 1.369 . S
C1506 C1510 1.531 . S
C1507 C1506 1.369 . S
C1507 C1508 1.410 . S
C1507 C1515 1.503 . S
C1508 C1507 1.410 . S
C1508 C1509 1.392 . S
C1508 C1511 1.511 . S
C1509 C1505 1.376 . S
C1509 C1508 1.392 . S
C1509 H1521 0.929 . S
C1510 C1506 1.531 . S
C1510 H1522 0.960 . S
C1510 H1523 0.962 . S
C1510 H1524 0.960 . S
C1511 C1508 1.511 . S
C1511 H1525 0.961 . S
C1511 H1526 0.961 . S
C1511 H1527 0.961 . S
C1512 C1513 1.370 . S
C1512 C1514 1.363 . S
C1512 H1528 0.931 . S
C1513 C1512 1.370 . S
C1513 C1517 1.408 . S
C1514 C1512 1.363 . S
C1514 C1515 1.370 . S
C1514 C1518 1.524 . S
C1515 C1507 1.503 . S
C1515 C1514 1.370 . S
C1515 C1516 1.403 . S
C1516 C1515 1.403 . S
C1516 C1517 1.404 . S
C1516 C1519 1.539 . S
C1517 C1513 1.408 . S
C1517 C1516 1.404 . S
C1517 H1529 0.930 . S
C1518 C1514 1.524 . S
C1518 H1530 0.956 . S
C1518 H1531 0.961 . S
C1518 H1532 0.961 . S
C1519 C1516 1.539 . S
C1519 H1533 0.958 . S
C1519 H1534 0.961 . S
C1519 H1535 0.960 . S
H1520 C1504 0.931 . S
H1521 C1509 0.929 . S
H1522 C1510 0.960 . S
H1523 C1510 0.962 . S
H1524 C1510 0.960 . S
H1525 C1511 0.961 . S
H1526 C1511 0.961 . S
H1527 C1511 0.961 . S
H1528 C1512 0.931 . S
H1529 C1517 0.930 . S
H1530 C1518 0.956 . S
H1531 C1518 0.961 . S
H1532 C1518 0.961 . S
H1533 C1519 0.958 . S
H1534 C1519 0.961 . S
H1535 C1519 0.960 . S
C1536 C1537 1.391 . S
C1536 C1538 1.394 . S
C1536 H1552 0.931 . S
C1537 C1536 1.391 . S
C1537 C1541 1.376 . S
C1538 C1536 1.394 . S
C1538 C1539 1.369 . S
C1538 C1542 1.531 . S
C1539 C1538 1.369 . S
C1539 C1540 1.410 . S
C1539 C1547 1.503 . S
C1540 C1539 1.410 . S
C1540 C1541 1.392 . S
C1540 C1543 1.511 . S
C1541 C1537 1.376 . S
C1541 C1540 1.392 . S
C1541 H1553 0.929 . S
C1542 C1538 1.531 . S
C1542 H1554 0.960 . S
C1542 H1555 0.962 . S
C1542 H1556 0.960 . S
C1543 C1540 1.511 . S
C1543 H1557 0.961 . S
C1543 H1558 0.961 . S
C1543 H1559 0.961 . S
C1544 C1545 1.370 . S
C1544 C1546 1.363 . S
C1544 H1560 0.931 . S
C1545 C1544 1.370 . S
C1545 C1549 1.408 . S
C1546 C1544 1.363 . S
C1546 C1547 1.370 . S
C1546 C1550 1.524 . S
C1547 C1539 1.503 . S
C1547 C1546 1.370 . S
C1547 C1548 1.403 . S
C1548 C1547 1.403 . S
C1548 C1549 1.404 . S
C1548 C1551 1.539 . S
C1549 C1545 1.408 . S
C1549 C1548 1.404 . S
C1549 H1561 0.930 . S
C1550 C1546 1.524 . S
C1550 H1562 0.956 . S
C1550 H1563 0.961 . S
C1550 H1564 0.961 . S
C1551 C1548 1.539 . S
C1551 H1565 0.958 . S
C1551 H1566 0.961 . S
C1551 H1567 0.960 . S
H1552 C1536 0.931 . S
H1553 C1541 0.929 . S
H1554 C1542 0.960 . S
H1555 C1542 0.962 . S
H1556 C1542 0.960 . S
H1557 C1543 0.961 . S
H1558 C1543 0.961 . S
H1559 C1543 0.961 . S
H1560 C1544 0.931 . S
H1561 C1549 0.930 . S
H1562 C1550 0.956 . S
H1563 C1550 0.961 . S
H1564 C1550 0.961 . S
H1565 C1551 0.958 . S
H1566 C1551 0.961 . S
H1567 C1551 0.960 . S
C1568 C1569 1.391 . S
C1568 C1570 1.394 . S
C1568 H1584 0.931 . S
C1569 C1568 1.391 . S
C1569 C1573 1.376 . S
C1570 C1568 1.394 . S
C1570 C1571 1.369 . S
C1570 C1574 1.531 . S
C1571 C1570 1.369 . S
C1571 C1572 1.410 . S
C1571 C1579 1.503 . S
C1572 C1571 1.410 . S
C1572 C1573 1.392 . S
C1572 C1575 1.511 . S
C1573 C1569 1.376 . S
C1573 C1572 1.392 . S
C1573 H1585 0.929 . S
C1574 C1570 1.531 . S
C1574 H1586 0.960 . S
C1574 H1587 0.962 . S
C1574 H1588 0.960 . S
C1575 C1572 1.511 . S
C1575 H1589 0.961 . S
C1575 H1590 0.961 . S
C1575 H1591 0.961 . S
C1576 C1577 1.370 . S
C1576 C1578 1.363 . S
C1576 H1592 0.931 . S
C1577 C1576 1.370 . S
C1577 C1581 1.408 . S
C1578 C1576 1.363 . S
C1578 C1579 1.370 . S
C1578 C1582 1.524 . S
C1579 C1571 1.503 . S
C1579 C1578 1.370 . S
C1579 C1580 1.403 . S
C1580 C1579 1.403 . S
C1580 C1581 1.404 . S
C1580 C1583 1.539 . S
C1581 C1577 1.408 . S
C1581 C1580 1.404 . S
C1581 H1593 0.930 . S
C1582 C1578 1.524 . S
C1582 H1594 0.956 . S
C1582 H1595 0.961 . S
C1582 H1596 0.961 . S
C1583 C1580 1.539 . S
C1583 H1597 0.958 . S
C1583 H1598 0.961 . S
C1583 H1599 0.960 . S
H1584 C1568 0.931 . S
H1585 C1573 0.929 . S
H1586 C1574 0.960 . S
H1587 C1574 0.962 . S
H1588 C1574 0.960 . S
H1589 C1575 0.961 . S
H1590 C1575 0.961 . S
H1591 C1575 0.961 . S
H1592 C1576 0.931 . S
H1593 C1581 0.930 . S
H1594 C1582 0.956 . S
H1595 C1582 0.961 . S
H1596 C1582 0.961 . S
H1597 C1583 0.958 . S
H1598 C1583 0.961 . S
H1599 C1583 0.960 . S
C1600 C1601 1.391 . S
C1600 C1602 1.394 . S
C1600 H1616 0.931 . S
C1601 C1600 1.391 . S
C1601 C1605 1.376 . S
C1602 C1600 1.394 . S
C1602 C1603 1.369 . S
C1602 C1606 1.531 . S
C1603 C1602 1.369 . S
C1603 C1604 1.410 . S
C1603 C1611 1.503 . S
C1604 C1603 1.410 . S
C1604 C1605 1.392 . S
C1604 C1607 1.511 . S
C1605 C1601 1.376 . S
C1605 C1604 1.392 . S
C1605 H1617 0.929 . S
C1606 C1602 1.531 . S
C1606 H1618 0.960 . S
C1606 H1619 0.962 . S
C1606 H1620 0.960 . S
C1607 C1604 1.511 . S
C1607 H1621 0.961 . S
C1607 H1622 0.961 . S
C1607 H1623 0.961 . S
C1608 C1609 1.370 . S
C1608 C1610 1.363 . S
C1608 H1624 0.931 . S
C1609 C1608 1.370 . S
C1609 C1613 1.408 . S
C1610 C1608 1.363 . S
C1610 C1611 1.370 . S
C1610 C1614 1.524 . S
C1611 C1603 1.503 . S
C1611 C1610 1.370 . S
C1611 C1612 1.403 . S
C1612 C1611 1.403 . S
C1612 C1613 1.404 . S
C1612 C1615 1.539 . S
C1613 C1609 1.408 . S
C1613 C1612 1.404 . S
C1613 H1625 0.930 . S
C1614 C1610 1.524 . S
C1614 H1626 0.956 . S
C1614 H1627 0.961 . S
C1614 H1628 0.961 . S
C1615 C1612 1.539 . S
C1615 H1629 0.958 . S
C1615 H1630 0.961 . S
C1615 H1631 0.960 . S
H1616 C1600 0.931 . S
H1617 C1605 0.929 . S
H1618 C1606 0.960 . S
H1619 C1606 0.962 . S
H1620 C1606 0.960 . S
H1621 C1607 0.961 . S
H1622 C1607 0.961 . S
H1623 C1607 0.961 . S
H1624 C1608 0.931 . S
H1625 C1613 0.930 . S
H1626 C1614 0.956 . S
H1627 C1614 0.961 . S
H1628 C1614 0.961 . S
H1629 C1615 0.958 . S
H1630 C1615 0.961 . S
H1631 C1615 0.960 . S
C1632 C1633 1.391 . S
C1632 C1634 1.394 . S
C1632 H1648 0.931 . S
C1633 C1632 1.391 . S
C1633 C1637 1.376 . S
C1634 C1632 1.394 . S
C1634 C1635 1.369 . S
C1634 C1638 1.531 . S
C1635 C1634 1.369 . S
C1635 C1636 1.410 . S
C1635 C1643 1.503 . S
C1636 C1635 1.410 . S
C1636 C1637 1.392 . S
C1636 C1639 1.511 . S
C1637 C1633 1.376 . S
C1637 C1636 1.392 . S
C1637 H1649 0.929 . S
C1638 C1634 1.531 . S
C1638 H1650 0.960 . S
C1638 H1651 0.962 . S
C1638 H1652 0.960 . S
C1639 C1636 1.511 . S
C1639 H1653 0.961 . S
C1639 H1654 0.961 . S
C1639 H1655 0.961 . S
C1640 C1641 1.370 . S
C1640 C1642 1.363 . S
C1640 H1656 0.931 . S
C1641 C1640 1.370 . S
C1641 C1645 1.408 . S
C1642 C1640 1.363 . S
C1642 C1643 1.370 . S
C1642 C1646 1.524 . S
C1643 C1635 1.503 . S
C1643 C1642 1.370 . S
C1643 C1644 1.403 . S
C1644 C1643 1.403 . S
C1644 C1645 1.404 . S
C1644 C1647 1.539 . S
C1645 C1641 1.408 . S
C1645 C1644 1.404 . S
C1645 H1657 0.930 . S
C1646 C1642 1.524 . S
C1646 H1658 0.956 . S
C1646 H1659 0.961 . S
C1646 H1660 0.961 . S
C1647 C1644 1.539 . S
C1647 H1661 0.958 . S
C1647 H1662 0.961 . S
C1647 H1663 0.960 . S
H1648 C1632 0.931 . S
H1649 C1637 0.929 . S
H1650 C1638 0.960 . S
H1651 C1638 0.962 . S
H1652 C1638 0.960 . S
H1653 C1639 0.961 . S
H1654 C1639 0.961 . S
H1655 C1639 0.961 . S
H1656 C1640 0.931 . S
H1657 C1645 0.930 . S
H1658 C1646 0.956 . S
H1659 C1646 0.961 . S
H1660 C1646 0.961 . S
H1661 C1647 0.958 . S
H1662 C1647 0.961 . S
H1663 C1647 0.960 . S
C1664 C1665 1.391 . S
C1664 C1666 1.394 . S
C1664 H1680 0.931 . S
C1665 C1664 1.391 . S
C1665 C1669 1.376 . S
C1666 C1664 1.394 . S
C1666 C1667 1.369 . S
C1666 C1670 1.531 . S
C1667 C1666 1.369 . S
C1667 C1668 1.410 . S
C1667 C1675 1.503 . S
C1668 C1667 1.410 . S
C1668 C1669 1.392 . S
C1668 C1671 1.511 . S
C1669 C1665 1.376 . S
C1669 C1668 1.392 . S
C1669 H1681 0.929 . S
C1670 C1666 1.531 . S
C1670 H1682 0.960 . S
C1670 H1683 0.962 . S
C1670 H1684 0.960 . S
C1671 C1668 1.511 . S
C1671 H1685 0.961 . S
C1671 H1686 0.961 . S
C1671 H1687 0.961 . S
C1672 C1673 1.370 . S
C1672 C1674 1.363 . S
C1672 H1688 0.931 . S
C1673 C1672 1.370 . S
C1673 C1677 1.408 . S
C1674 C1672 1.363 . S
C1674 C1675 1.370 . S
C1674 C1678 1.524 . S
C1675 C1667 1.503 . S
C1675 C1674 1.370 . S
C1675 C1676 1.403 . S
C1676 C1675 1.403 . S
C1676 C1677 1.404 . S
C1676 C1679 1.539 . S
C1677 C1673 1.408 . S
C1677 C1676 1.404 . S
C1677 H1689 0.930 . S
C1678 C1674 1.524 . S
C1678 H1690 0.956 . S
C1678 H1691 0.961 . S
C1678 H1692 0.961 . S
C1679 C1676 1.539 . S
C1679 H1693 0.958 . S
C1679 H1694 0.961 . S
C1679 H1695 0.960 . S
H1680 C1664 0.931 . S
H1681 C1669 0.929 . S
H1682 C1670 0.960 . S
H1683 C1670 0.962 . S
H1684 C1670 0.960 . S
H1685 C1671 0.961 . S
H1686 C1671 0.961 . S
H1687 C1671 0.961 . S
H1688 C1672 0.931 . S
H1689 C1677 0.930 . S
H1690 C1678 0.956 . S
H1691 C1678 0.961 . S
H1692 C1678 0.961 . S
H1693 C1679 0.958 . S
H1694 C1679 0.961 . S
H1695 C1679 0.960 . S
C1696 C1697 1.391 . S
C1696 C1698 1.394 . S
C1696 H1712 0.931 . S
C1697 C1696 1.391 . S
C1697 C1701 1.376 . S
C1698 C1696 1.394 . S
C1698 C1699 1.369 . S
C1698 C1702 1.531 . S
C1699 C1698 1.369 . S
C1699 C1700 1.410 . S
C1699 C1707 1.503 . S
C1700 C1699 1.410 . S
C1700 C1701 1.392 . S
C1700 C1703 1.511 . S
C1701 C1697 1.376 . S
C1701 C1700 1.392 . S
C1701 H1713 0.929 . S
C1702 C1698 1.531 . S
C1702 H1714 0.960 . S
C1702 H1715 0.962 . S
C1702 H1716 0.960 . S
C1703 C1700 1.511 . S
C1703 H1717 0.961 . S
C1703 H1718 0.961 . S
C1703 H1719 0.961 . S
C1704 C1705 1.370 . S
C1704 C1706 1.363 . S
C1704 H1720 0.931 . S
C1705 C1704 1.370 . S
C1705 C1709 1.408 . S
C1706 C1704 1.363 . S
C1706 C1707 1.370 . S
C1706 C1710 1.524 . S
C1707 C1699 1.503 . S
C1707 C1706 1.370 . S
C1707 C1708 1.403 . S
C1708 C1707 1.403 . S
C1708 C1709 1.404 . S
C1708 C1711 1.539 . S
C1709 C1705 1.408 . S
C1709 C1708 1.404 . S
C1709 H1721 0.930 . S
C1710 C1706 1.524 . S
C1710 H1722 0.956 . S
C1710 H1723 0.961 . S
C1710 H1724 0.961 . S
C1711 C1708 1.539 . S
C1711 H1725 0.958 . S
C1711 H1726 0.961 . S
C1711 H1727 0.960 . S
H1712 C1696 0.931 . S
H1713 C1701 0.929 . S
H1714 C1702 0.960 . S
H1715 C1702 0.962 . S
H1716 C1702 0.960 . S
H1717 C1703 0.961 . S
H1718 C1703 0.961 . S
H1719 C1703 0.961 . S
H1720 C1704 0.931 . S
H1721 C1709 0.930 . S
H1722 C1710 0.956 . S
H1723 C1710 0.961 . S
H1724 C1710 0.961 . S
H1725 C1711 0.958 . S
H1726 C1711 0.961 . S
H1727 C1711 0.960 . S
C1728 C1729 1.391 . S
C1728 C1730 1.394 . S
C1728 H1744 0.931 . S
C1729 C1728 1.391 . S
C1729 C1733 1.376 . S
C1730 C1728 1.394 . S
C1730 C1731 1.369 . S
C1730 C1734 1.531 . S
C1731 C1730 1.369 . S
C1731 C1732 1.410 . S
C1731 C1739 1.503 . S
C1732 C1731 1.410 . S
C1732 C1733 1.392 . S
C1732 C1735 1.511 . S
C1733 C1729 1.376 . S
C1733 C1732 1.392 . S
C1733 H1745 0.929 . S
C1734 C1730 1.531 . S
C1734 H1746 0.960 . S
C1734 H1747 0.962 . S
C1734 H1748 0.960 . S
C1735 C1732 1.511 . S
C1735 H1749 0.961 . S
C1735 H1750 0.961 . S
C1735 H1751 0.961 . S
C1736 C1737 1.370 . S
C1736 C1738 1.363 . S
C1736 H1752 0.931 . S
C1737 C1736 1.370 . S
C1737 C1741 1.408 . S
C1738 C1736 1.363 . S
C1738 C1739 1.370 . S
C1738 C1742 1.524 . S
C1739 C1731 1.503 . S
C1739 C1738 1.370 . S
C1739 C1740 1.403 . S
C1740 C1739 1.403 . S
C1740 C1741 1.404 . S
C1740 C1743 1.539 . S
C1741 C1737 1.408 . S
C1741 C1740 1.404 . S
C1741 H1753 0.930 . S
C1742 C1738 1.524 . S
C1742 H1754 0.956 . S
C1742 H1755 0.961 . S
C1742 H1756 0.961 . S
C1743 C1740 1.539 . S
C1743 H1757 0.958 . S
C1743 H1758 0.961 . S
C1743 H1759 0.960 . S
H1744 C1728 0.931 . S
H1745 C1733 0.929 . S
H1746 C1734 0.960 . S
H1747 C1734 0.962 . S
H1748 C1734 0.960 . S
H1749 C1735 0.961 . S
H1750 C1735 0.961 . S
H1751 C1735 0.961 . S
H1752 C1736 0.931 . S
H1753 C1741 0.930 . S
H1754 C1742 0.956 . S
H1755 C1742 0.961 . S
H1756 C1742 0.961 . S
H1757 C1743 0.958 . S
H1758 C1743 0.961 . S
H1759 C1743 0.960 . S
C1760 C1761 1.391 . S
C1760 C1762 1.394 . S
C1760 H1776 0.931 . S
C1761 C1760 1.391 . S
C1761 C1765 1.376 . S
C1762 C1760 1.394 . S
C1762 C1763 1.369 . S
C1762 C1766 1.531 . S
C1763 C1762 1.369 . S
C1763 C1764 1.410 . S
C1763 C1771 1.503 . S
C1764 C1763 1.410 . S
C1764 C1765 1.392 . S
C1764 C1767 1.511 . S
C1765 C1761 1.376 . S
C1765 C1764 1.392 . S
C1765 H1777 0.929 . S
C1766 C1762 1.531 . S
C1766 H1778 0.960 . S
C1766 H1779 0.962 . S
C1766 H1780 0.960 . S
C1767 C1764 1.511 . S
C1767 H1781 0.961 . S
C1767 H1782 0.961 . S
C1767 H1783 0.961 . S
C1768 C1769 1.370 . S
C1768 C1770 1.363 . S
C1768 H1784 0.931 . S
C1769 C1768 1.370 . S
C1769 C1773 1.408 . S
C1770 C1768 1.363 . S
C1770 C1771 1.370 . S
C1770 C1774 1.524 . S
C1771 C1763 1.503 . S
C1771 C1770 1.370 . S
C1771 C1772 1.403 . S
C1772 C1771 1.403 . S
C1772 C1773 1.404 . S
C1772 C1775 1.539 . S
C1773 C1769 1.408 . S
C1773 C1772 1.404 . S
C1773 H1785 0.930 . S
C1774 C1770 1.524 . S
C1774 H1786 0.956 . S
C1774 H1787 0.961 . S
C1774 H1788 0.961 . S
C1775 C1772 1.539 . S
C1775 H1789 0.958 . S
C1775 H1790 0.961 . S
C1775 H1791 0.960 . S
H1776 C1760 0.931 . S
H1777 C1765 0.929 . S
H1778 C1766 0.960 . S
H1779 C1766 0.962 . S
H1780 C1766 0.960 . S
H1781 C1767 0.961 . S
H1782 C1767 0.961 . S
H1783 C1767 0.961 . S
H1784 C1768 0.931 . S
H1785 C1773 0.930 . S
H1786 C1774 0.956 . S
H1787 C1774 0.961 . S
H1788 C1774 0.961 . S
H1789 C1775 0.958 . S
H1790 C1775 0.961 . S
H1791 C1775 0.960 . S
C1792 C1793 1.391 . S
C1792 C1794 1.394 . S
C1792 H1808 0.931 . S
C1793 C1792 1.391 . S
C1793 C1797 1.376 . S
C1794 C1792 1.394 . S
C1794 C1795 1.369 . S
C1794 C1798 1.531 . S
C1795 C1794 1.369 . S
C1795 C1796 1.410 . S
C1795 C1803 1.503 . S
C1796 C1795 1.410 . S
C1796 C1797 1.392 . S
C1796 C1799 1.511 . S
C1797 C1793 1.376 . S
C1797 C1796 1.392 . S
C1797 H1809 0.929 . S
C1798 C1794 1.531 . S
C1798 H1810 0.960 . S
C1798 H1811 0.962 . S
C1798 H1812 0.960 . S
C1799 C1796 1.511 . S
C1799 H1813 0.961 . S
C1799 H1814 0.961 . S
C1799 H1815 0.961 . S
C1800 C1801 1.370 . S
C1800 C1802 1.363 . S
C1800 H1816 0.931 . S
C1801 C1800 1.370 . S
C1801 C1805 1.408 . S
C1802 C1800 1.363 . S
C1802 C1803 1.370 . S
C1802 C1806 1.524 . S
C1803 C1795 1.503 . S
C1803 C1802 1.370 . S
C1803 C1804 1.403 . S
C1804 C1803 1.403 . S
C1804 C1805 1.404 . S
C1804 C1807 1.539 . S
C1805 C1801 1.408 . S
C1805 C1804 1.404 . S
C1805 H1817 0.930 . S
C1806 C1802 1.524 . S
C1806 H1818 0.956 . S
C1806 H1819 0.961 . S
C1806 H1820 0.961 . S
C1807 C1804 1.539 . S
C1807 H1821 0.958 . S
C1807 H1822 0.961 . S
C1807 H1823 0.960 . S
H1808 C1792 0.931 . S
H1809 C1797 0.929 . S
H1810 C1798 0.960 . S
H1811 C1798 0.962 . S
H1812 C1798 0.960 . S
H1813 C1799 0.961 . S
H1814 C1799 0.961 . S
H1815 C1799 0.961 . S
H1816 C1800 0.931 . S
H1817 C1805 0.930 . S
H1818 C1806 0.956 . S
H1819 C1806 0.961 . S
H1820 C1806 0.961 . S
H1821 C1807 0.958 . S
H1822 C1807 0.961 . S
H1823 C1807 0.960 . S
C1824 C1825 1.391 . S
C1824 C1826 1.394 . S
C1824 H1840 0.931 . S
C1825 C1824 1.391 . S
C1825 C1829 1.376 . S
C1826 C1824 1.394 . S
C1826 C1827 1.369 . S
C1826 C1830 1.531 . S
C1827 C1826 1.369 . S
C1827 C1828 1.410 . S
C1827 C1835 1.503 . S
C1828 C1827 1.410 . S
C1828 C1829 1.392 . S
C1828 C1831 1.511 . S
C1829 C1825 1.376 . S
C1829 C1828 1.392 . S
C1829 H1841 0.929 . S
C1830 C1826 1.531 . S
C1830 H1842 0.960 . S
C1830 H1843 0.962 . S
C1830 H1844 0.960 . S
C1831 C1828 1.511 . S
C1831 H1845 0.961 . S
C1831 H1846 0.961 . S
C1831 H1847 0.961 . S
C1832 C1833 1.370 . S
C1832 C1834 1.363 . S
C1832 H1848 0.931 . S
C1833 C1832 1.370 . S
C1833 C1837 1.408 . S
C1834 C1832 1.363 . S
C1834 C1835 1.370 . S
C1834 C1838 1.524 . S
C1835 C1827 1.503 . S
C1835 C1834 1.370 . S
C1835 C1836 1.403 . S
C1836 C1835 1.403 . S
C1836 C1837 1.404 . S
C1836 C1839 1.539 . S
C1837 C1833 1.408 . S
C1837 C1836 1.404 . S
C1837 H1849 0.930 . S
C1838 C1834 1.524 . S
C1838 H1850 0.956 . S
C1838 H1851 0.961 . S
C1838 H1852 0.961 . S
C1839 C1836 1.539 . S
C1839 H1853 0.958 . S
C1839 H1854 0.961 . S
C1839 H1855 0.960 . S
H1840 C1824 0.931 . S
H1841 C1829 0.929 . S
H1842 C1830 0.960 . S
H1843 C1830 0.962 . S
H1844 C1830 0.960 . S
H1845 C1831 0.961 . S
H1846 C1831 0.961 . S
H1847 C1831 0.961 . S
H1848 C1832 0.931 . S
H1849 C1837 0.930 . S
H1850 C1838 0.956 . S
H1851 C1838 0.961 . S
H1852 C1838 0.961 . S
H1853 C1839 0.958 . S
H1854 C1839 0.961 . S
H1855 C1839 0.960 . S
C1856 C1857 1.391 . S
C1856 C1858 1.394 . S
C1856 H1872 0.931 . S
C1857 C1856 1.391 . S
C1857 C1861 1.376 . S
C1858 C1856 1.394 . S
C1858 C1859 1.369 . S
C1858 C1862 1.531 . S
C1859 C1858 1.369 . S
C1859 C1860 1.410 . S
C1859 C1867 1.503 . S
C1860 C1859 1.410 . S
C1860 C1861 1.392 . S
C1860 C1863 1.511 . S
C1861 C1857 1.376 . S
C1861 C1860 1.392 . S
C1861 H1873 0.929 . S
C1862 C1858 1.531 . S
C1862 H1874 0.960 . S
C1862 H1875 0.962 . S
C1862 H1876 0.960 . S
C1863 C1860 1.511 . S
C1863 H1877 0.961 . S
C1863 H1878 0.961 . S
C1863 H1879 0.961 . S
C1864 C1865 1.370 . S
C1864 C1866 1.363 . S
C1864 H1880 0.931 . S
C1865 C1864 1.370 . S
C1865 C1869 1.408 . S
C1866 C1864 1.363 . S
C1866 C1867 1.370 . S
C1866 C1870 1.524 . S
C1867 C1859 1.503 . S
C1867 C1866 1.370 . S
C1867 C1868 1.403 . S
C1868 C1867 1.403 . S
C1868 C1869 1.404 . S
C1868 C1871 1.539 . S
C1869 C1865 1.408 . S
C1869 C1868 1.404 . S
C1869 H1881 0.930 . S
C1870 C1866 1.524 . S
C1870 H1882 0.956 . S
C1870 H1883 0.961 . S
C1870 H1884 0.961 . S
C1871 C1868 1.539 . S
C1871 H1885 0.958 . S
C1871 H1886 0.961 . S
C1871 H1887 0.960 . S
H1872 C1856 0.931 . S
H1873 C1861 0.929 . S
H1874 C1862 0.960 . S
H1875 C1862 0.962 . S
H1876 C1862 0.960 . S
H1877 C1863 0.961 . S
H1878 C1863 0.961 . S
H1879 C1863 0.961 . S
H1880 C1864 0.931 . S
H1881 C1869 0.930 . S
H1882 C1870 0.956 . S
H1883 C1870 0.961 . S
H1884 C1870 0.961 . S
H1885 C1871 0.958 . S
H1886 C1871 0.961 . S
H1887 C1871 0.960 . S
C1888 C1889 1.391 . S
C1888 C1890 1.394 . S
C1888 H1904 0.931 . S
C1889 C1888 1.391 . S
C1889 C1893 1.376 . S
C1890 C1888 1.394 . S
C1890 C1891 1.369 . S
C1890 C1894 1.531 . S
C1891 C1890 1.369 . S
C1891 C1892 1.410 . S
C1891 C1899 1.503 . S
C1892 C1891 1.410 . S
C1892 C1893 1.392 . S
C1892 C1895 1.511 . S
C1893 C1889 1.376 . S
C1893 C1892 1.392 . S
C1893 H1905 0.929 . S
C1894 C1890 1.531 . S
C1894 H1906 0.960 . S
C1894 H1907 0.962 . S
C1894 H1908 0.960 . S
C1895 C1892 1.511 . S
C1895 H1909 0.961 . S
C1895 H1910 0.961 . S
C1895 H1911 0.961 . S
C1896 C1897 1.370 . S
C1896 C1898 1.363 . S
C1896 H1912 0.931 . S
C1897 C1896 1.370 . S
C1897 C1901 1.408 . S
C1898 C1896 1.363 . S
C1898 C1899 1.370 . S
C1898 C1902 1.524 . S
C1899 C1891 1.503 . S
C1899 C1898 1.370 . S
C1899 C1900 1.403 . S
C1900 C1899 1.403 . S
C1900 C1901 1.404 . S
C1900 C1903 1.539 . S
C1901 C1897 1.408 . S
C1901 C1900 1.404 . S
C1901 H1913 0.930 . S
C1902 C1898 1.524 . S
C1902 H1914 0.956 . S
C1902 H1915 0.961 . S
C1902 H1916 0.961 . S
C1903 C1900 1.539 . S
C1903 H1917 0.958 . S
C1903 H1918 0.961 . S
C1903 H1919 0.960 . S
H1904 C1888 0.931 . S
H1905 C1893 0.929 . S
H1906 C1894 0.960 . S
H1907 C1894 0.962 . S
H1908 C1894 0.960 . S
H1909 C1895 0.961 . S
H1910 C1895 0.961 . S
H1911 C1895 0.961 . S
H1912 C1896 0.931 . S
H1913 C1901 0.930 . S
H1914 C1902 0.956 . S
H1915 C1902 0.961 . S
H1916 C1902 0.961 . S
H1917 C1903 0.958 . S
H1918 C1903 0.961 . S
H1919 C1903 0.960 . S
C1920 C1921 1.391 . S
C1920 C1922 1.394 . S
C1920 H1936 0.931 . S
C1921 C1920 1.391 . S
C1921 C1925 1.376 . S
C1922 C1920 1.394 . S
C1922 C1923 1.369 . S
C1922 C1926 1.531 . S
C1923 C1922 1.369 . S
C1923 C1924 1.410 . S
C1923 C1931 1.503 . S
C1924 C1923 1.410 . S
C1924 C1925 1.392 . S
C1924 C1927 1.511 . S
C1925 C1921 1.376 . S
C1925 C1924 1.392 . S
C1925 H1937 0.929 . S
C1926 C1922 1.531 . S
C1926 H1938 0.960 . S
C1926 H1939 0.962 . S
C1926 H1940 0.960 . S
C1927 C1924 1.511 . S
C1927 H1941 0.961 . S
C1927 H1942 0.961 . S
C1927 H1943 0.961 . S
C1928 C1929 1.370 . S
C1928 C1930 1.363 . S
C1928 H1944 0.931 . S
C1929 C1928 1.370 . S
C1929 C1933 1.408 . S
C1930 C1928 1.363 . S
C1930 C1931 1.370 . S
C1930 C1934 1.524 . S
C1931 C1923 1.503 . S
C1931 C1930 1.370 . S
C1931 C1932 1.403 . S
C1932 C1931 1.403 . S
C1932 C1933 1.404 . S
C1932 C1935 1.539 . S
C1933 C1929 1.408 . S
C1933 C1932 1.404 . S
C1933 H1945 0.930 . S
C1934 C1930 1.524 . S
C1934 H1946 0.956 . S
C1934 H1947 0.961 . S
C1934 H1948 0.961 . S
C1935 C1932 1.539 . S
C1935 H1949 0.958 . S
C1935 H1950 0.961 . S
C1935 H1951 0.960 . S
H1936 C1920 0.931 . S
H1937 C1925 0.929 . S
H1938 C1926 0.960 . S
H1939 C1926 0.962 . S
H1940 C1926 0.960 . S
H1941 C1927 0.961 . S
H1942 C1927 0.961 . S
H1943 C1927 0.961 . S
H1944 C1928 0.931 . S
H1945 C1933 0.930 . S
H1946 C1934 0.956 . S
H1947 C1934 0.961 . S
H1948 C1934 0.961 . S
H1949 C1935 0.958 . S
H1950 C1935 0.961 . S
H1951 C1935 0.960 . S
C1952 C1953 1.391 . S
C1952 C1954 1.394 . S
C1952 H1968 0.931 . S
C1953 C1952 1.391 . S
C1953 C1957 1.376 . S
C1954 C1952 1.394 . S
C1954 C1955 1.369 . S
C1954 C1958 1.531 . S
C1955 C1954 1.369 . S
C1955 C1956 1.410 . S
C1955 C1963 1.503 . S
C1956 C1955 1.410 . S
C1956 C1957 1.392 . S
C1956 C1959 1.511 . S
C1957 C1953 1.376 . S
C1957 C1956 1.392 . S
C1957 H1969 0.929 . S
C1958 C1954 1.531 . S
C1958 H1970 0.960 . S
C1958 H1971 0.962 . S
C1958 H1972 0.960 . S
C1959 C1956 1.511 . S
C1959 H1973 0.961 . S
C1959 H1974 0.961 . S
C1959 H1975 0.961 . S
C1960 C1961 1.370 . S
C1960 C1962 1.363 . S
C1960 H1976 0.931 . S
C1961 C1960 1.370 . S
C1961 C1965 1.408 . S
C1962 C1960 1.363 . S
C1962 C1963 1.370 . S
C1962 C1966 1.524 . S
C1963 C1955 1.503 . S
C1963 C1962 1.370 . S
C1963 C1964 1.403 . S
C1964 C1963 1.403 . S
C1964 C1965 1.404 . S
C1964 C1967 1.539 . S
C1965 C1961 1.408 . S
C1965 C1964 1.404 . S
C1965 H1977 0.930 . S
C1966 C1962 1.524 . S
C1966 H1978 0.956 . S
C1966 H1979 0.961 . S
C1966 H1980 0.961 . S
C1967 C1964 1.539 . S
C1967 H1981 0.958 . S
C1967 H1982 0.961 . S
C1967 H1983 0.960 . S
H1968 C1952 0.931 . S
H1969 C1957 0.929 . S
H1970 C1958 0.960 . S
H1971 C1958 0.962 . S
H1972 C1958 0.960 . S
H1973 C1959 0.961 . S
H1974 C1959 0.961 . S
H1975 C1959 0.961 . S
H1976 C1960 0.931 . S
H1977 C1965 0.930 . S
H1978 C1966 0.956 . S
H1979 C1966 0.961 . S
H1980 C1966 0.961 . S
H1981 C1967 0.958 . S
H1982 C1967 0.961 . S
H1983 C1967 0.960 . S
C1984 C1985 1.391 . S
C1984 C1986 1.394 . S
C1984 H2000 0.931 . S
C1985 C1984 1.391 . S
C1985 C1989 1.376 . S
C1986 C1984 1.394 . S
C1986 C1987 1.369 . S
C1986 C1990 1.531 . S
C1987 C1986 1.369 . S
C1987 C1988 1.410 . S
C1987 C1995 1.503 . S
C1988 C1987 1.410 . S
C1988 C1989 1.392 . S
C1988 C1991 1.511 . S
C1989 C1985 1.376 . S
C1989 C1988 1.392 . S
C1989 H2001 0.929 . S
C1990 C1986 1.531 . S
C1990 H2002 0.960 . S
C1990 H2003 0.962 . S
C1990 H2004 0.960 . S
C1991 C1988 1.511 . S
C1991 H2005 0.961 . S
C1991 H2006 0.961 . S
C1991 H2007 0.961 . S
C1992 C1993 1.370 . S
C1992 C1994 1.363 . S
C1992 H2008 0.931 . S
C1993 C1992 1.370 . S
C1993 C1997 1.408 . S
C1994 C1992 1.363 . S
C1994 C1995 1.370 . S
C1994 C1998 1.524 . S
C1995 C1987 1.503 . S
C1995 C1994 1.370 . S
C1995 C1996 1.403 . S
C1996 C1995 1.403 . S
C1996 C1997 1.404 . S
C1996 C1999 1.539 . S
C1997 C1993 1.408 . S
C1997 C1996 1.404 . S
C1997 H2009 0.930 . S
C1998 C1994 1.524 . S
C1998 H2010 0.956 . S
C1998 H2011 0.961 . S
C1998 H2012 0.961 . S
C1999 C1996 1.539 . S
C1999 H2013 0.958 . S
C1999 H2014 0.961 . S
C1999 H2015 0.960 . S
H2000 C1984 0.931 . S
H2001 C1989 0.929 . S
H2002 C1990 0.960 . S
H2003 C1990 0.962 . S
H2004 C1990 0.960 . S
H2005 C1991 0.961 . S
H2006 C1991 0.961 . S
H2007 C1991 0.961 . S
H2008 C1992 0.931 . S
H2009 C1997 0.930 . S
H2010 C1998 0.956 . S
H2011 C1998 0.961 . S
H2012 C1998 0.961 . S
H2013 C1999 0.958 . S
H2014 C1999 0.961 . S
H2015 C1999 0.960 . S
C2016 C2017 1.391 . S
C2016 C2018 1.394 . S
C2016 H2032 0.931 . S
C2017 C2016 1.391 . S
C2017 C2021 1.376 . S
C2018 C2016 1.394 . S
C2018 C2019 1.369 . S
C2018 C2022 1.531 . S
C2019 C2018 1.369 . S
C2019 C2020 1.410 . S
C2019 C2027 1.503 1_554 S
C2020 C2019 1.410 . S
C2020 C2021 1.392 . S
C2020 C2023 1.511 . S
C2021 C2017 1.376 . S
C2021 C2020 1.392 . S
C2021 H2033 0.929 . S
C2022 C2018 1.531 . S
C2022 H2034 0.960 1_554 S
C2022 H2035 0.962 . S
C2022 H2036 0.960 . S
C2023 C2020 1.511 . S
C2023 H2037 0.961 . S
C2023 H2038 0.961 1_554 S
C2023 H2039 0.961 . S
C2024 C2025 1.370 . S
C2024 C2026 1.363 . S
C2024 H2040 0.931 . S
C2025 C2024 1.370 . S
C2025 C2029 1.408 . S
C2026 C2024 1.363 . S
C2026 C2027 1.370 . S
C2026 C2030 1.524 . S
C2027 C2019 1.503 1_556 S
C2027 C2026 1.370 . S
C2027 C2028 1.403 . S
C2028 C2027 1.403 . S
C2028 C2029 1.404 . S
C2028 C2031 1.539 . S
C2029 C2025 1.408 . S
C2029 C2028 1.404 . S
C2029 H2041 0.930 . S
C2030 C2026 1.524 . S
C2030 H2042 0.984 . S
C2030 H2043 0.961 1_556 S
C2030 H2044 0.961 . S
C2031 C2028 1.539 . S
C2031 H2045 0.958 . S
C2031 H2046 0.961 . S
C2031 H2047 0.970 . S
H2032 C2016 0.931 . S
H2033 C2021 0.929 . S
H2034 C2022 0.960 1_556 S
H2035 C2022 0.962 . S
H2036 C2022 0.960 . S
H2037 C2023 0.961 . S
H2038 C2023 0.961 1_556 S
H2039 C2023 0.961 . S
H2040 C2024 0.931 . S
H2041 C2029 0.930 . S
H2042 C2030 0.984 . S
H2043 C2030 0.961 1_554 S
H2044 C2030 0.961 . S
H2045 C2031 0.958 . S
H2046 C2031 0.961 . S
H2047 C2031 0.970 . S
C2048 C2049 1.391 . S
C2048 C2050 1.394 . S
C2048 H2064 0.931 . S
C2049 C2048 1.391 . S
C2049 C2053 1.376 . S
C2050 C2048 1.394 . S
C2050 C2051 1.369 . S
C2050 C2054 1.531 . S
C2051 C2050 1.369 . S
C2051 C2052 1.410 . S
C2051 C2059 1.503 1_556 S
C2052 C2051 1.410 . S
C2052 C2053 1.392 . S
C2052 C2055 1.511 . S
C2053 C2049 1.376 . S
C2053 C2052 1.392 . S
C2053 H2065 0.929 . S
C2054 C2050 1.531 . S
C2054 H2066 0.960 1_556 S
C2054 H2067 0.962 . S
C2054 H2068 0.960 . S
C2055 C2052 1.511 . S
C2055 H2069 0.961 . S
C2055 H2070 0.961 1_556 S
C2055 H2071 0.961 . S
C2056 C2057 1.370 . S
C2056 C2058 1.363 . S
C2056 H2072 0.931 . S
C2057 C2056 1.370 . S
C2057 C2061 1.408 . S
C2058 C2056 1.363 . S
C2058 C2059 1.370 . S
C2058 C2062 1.524 . S
C2059 C2051 1.503 1_554 S
C2059 C2058 1.370 . S
C2059 C2060 1.403 . S
C2060 C2059 1.403 . S
C2060 C2061 1.404 . S
C2060 C2063 1.539 . S
C2061 C2057 1.408 . S
C2061 C2060 1.404 . S
C2061 H2073 0.930 . S
C2062 C2058 1.524 . S
C2062 H2074 0.984 . S
C2062 H2075 0.961 1_554 S
C2062 H2076 0.961 . S
C2063 C2060 1.539 . S
C2063 H2077 0.958 . S
C2063 H2078 0.961 . S
C2063 H2079 0.970 . S
H2064 C2048 0.931 . S
H2065 C2053 0.929 . S
H2066 C2054 0.960 1_554 S
H2067 C2054 0.962 . S
H2068 C2054 0.960 . S
H2069 C2055 0.961 . S
H2070 C2055 0.961 1_554 S
H2071 C2055 0.961 . S
H2072 C2056 0.931 . S
H2073 C2061 0.930 . S
H2074 C2062 0.984 . S
H2075 C2062 0.961 1_556 S
H2076 C2062 0.961 . S
H2077 C2063 0.958 . S
H2078 C2063 0.961 . S
H2079 C2063 0.970 . S
C2080 C2081 1.391 . S
C2080 C2082 1.394 . S
C2080 H2096 0.931 . S
C2081 C2080 1.391 . S
C2081 C2085 1.376 . S
C2082 C2080 1.394 . S
C2082 C2083 1.369 . S
C2082 C2086 1.531 . S
C2083 C2082 1.369 . S
C2083 C2084 1.410 . S
C2083 C2091 1.503 1_554 S
C2084 C2083 1.410 . S
C2084 C2085 1.392 . S
C2084 C2087 1.511 . S
C2085 C2081 1.376 . S
C2085 C2084 1.392 . S
C2085 H2097 0.929 . S
C2086 C2082 1.531 . S
C2086 H2098 0.960 1_554 S
C2086 H2099 0.962 . S
C2086 H2100 0.960 . S
C2087 C2084 1.511 . S
C2087 H2101 0.961 . S
C2087 H2102 0.961 1_554 S
C2087 H2103 0.961 . S
C2088 C2089 1.370 . S
C2088 C2090 1.363 . S
C2088 H2104 0.931 . S
C2089 C2088 1.370 . S
C2089 C2093 1.408 . S
C2090 C2088 1.363 . S
C2090 C2091 1.370 . S
C2090 C2094 1.524 . S
C2091 C2083 1.503 1_556 S
C2091 C2090 1.370 . S
C2091 C2092 1.403 . S
C2092 C2091 1.403 . S
C2092 C2093 1.404 . S
C2092 C2095 1.539 . S
C2093 C2089 1.408 . S
C2093 C2092 1.404 . S
C2093 H2105 0.930 . S
C2094 C2090 1.524 . S
C2094 H2106 0.984 . S
C2094 H2107 0.961 1_556 S
C2094 H2108 0.961 . S
C2095 C2092 1.539 . S
C2095 H2109 0.958 . S
C2095 H2110 0.961 . S
C2095 H2111 0.970 . S
H2096 C2080 0.931 . S
H2097 C2085 0.929 . S
H2098 C2086 0.960 1_556 S
H2099 C2086 0.962 . S
H2100 C2086 0.960 . S
H2101 C2087 0.961 . S
H2102 C2087 0.961 1_556 S
H2103 C2087 0.961 . S
H2104 C2088 0.931 . S
H2105 C2093 0.930 . S
H2106 C2094 0.984 . S
H2107 C2094 0.961 1_554 S
H2108 C2094 0.961 . S
H2109 C2095 0.958 . S
H2110 C2095 0.961 . S
H2111 C2095 0.970 . S
C2112 C2113 1.391 . S
C2112 C2114 1.394 . S
C2112 H2128 0.931 . S
C2113 C2112 1.391 . S
C2113 C2117 1.376 . S
C2114 C2112 1.394 . S
C2114 C2115 1.369 . S
C2114 C2118 1.531 . S
C2115 C2114 1.369 . S
C2115 C2116 1.410 . S
C2115 C2123 1.503 1_554 S
C2116 C2115 1.410 . S
C2116 C2117 1.392 . S
C2116 C2119 1.511 . S
C2117 C2113 1.376 . S
C2117 C2116 1.392 . S
C2117 H2129 0.929 . S
C2118 C2114 1.531 . S
C2118 H2130 0.960 1_554 S
C2118 H2131 0.962 . S
C2118 H2132 0.960 . S
C2119 C2116 1.511 . S
C2119 H2133 0.961 . S
C2119 H2134 0.961 1_554 S
C2119 H2135 0.961 . S
C2120 C2121 1.370 . S
C2120 C2122 1.363 . S
C2120 H2136 0.931 . S
C2121 C2120 1.370 . S
C2121 C2125 1.408 . S
C2122 C2120 1.363 . S
C2122 C2123 1.370 . S
C2122 C2126 1.524 . S
C2123 C2115 1.503 1_556 S
C2123 C2122 1.370 . S
C2123 C2124 1.403 . S
C2124 C2123 1.403 . S
C2124 C2125 1.404 . S
C2124 C2127 1.539 . S
C2125 C2121 1.408 . S
C2125 C2124 1.404 . S
C2125 H2137 0.930 . S
C2126 C2122 1.524 . S
C2126 H2138 0.984 . S
C2126 H2139 0.961 1_556 S
C2126 H2140 0.961 . S
C2127 C2124 1.539 . S
C2127 H2141 0.958 . S
C2127 H2142 0.961 . S
C2127 H2143 0.970 . S
H2128 C2112 0.931 . S
H2129 C2117 0.929 . S
H2130 C2118 0.960 1_556 S
H2131 C2118 0.962 . S
H2132 C2118 0.960 . S
H2133 C2119 0.961 . S
H2134 C2119 0.961 1_556 S
H2135 C2119 0.961 . S
H2136 C2120 0.931 . S
H2137 C2125 0.930 . S
H2138 C2126 0.984 . S
H2139 C2126 0.961 1_554 S
H2140 C2126 0.961 . S
H2141 C2127 0.958 . S
H2142 C2127 0.961 . S
H2143 C2127 0.970 . S
C2144 C2145 1.391 . S
C2144 C2146 1.394 . S
C2144 H2160 0.931 . S
C2145 C2144 1.391 . S
C2145 C2149 1.376 . S
C2146 C2144 1.394 . S
C2146 C2147 1.369 . S
C2146 C2150 1.531 . S
C2147 C2146 1.369 . S
C2147 C2148 1.410 . S
C2147 C2155 1.503 1_554 S
C2148 C2147 1.410 . S
C2148 C2149 1.392 . S
C2148 C2151 1.511 . S
C2149 C2145 1.376 . S
C2149 C2148 1.392 . S
C2149 H2161 0.929 . S
C2150 C2146 1.531 . S
C2150 H2162 0.960 1_554 S
C2150 H2163 0.962 . S
C2150 H2164 0.960 . S
C2151 C2148 1.511 . S
C2151 H2165 0.961 . S
C2151 H2166 0.961 1_554 S
C2151 H2167 0.961 . S
C2152 C2153 1.370 . S
C2152 C2154 1.363 . S
C2152 H2168 0.931 . S
C2153 C2152 1.370 . S
C2153 C2157 1.408 . S
C2154 C2152 1.363 . S
C2154 C2155 1.370 . S
C2154 C2158 1.524 . S
C2155 C2147 1.503 1_556 S
C2155 C2154 1.370 . S
C2155 C2156 1.403 . S
C2156 C2155 1.403 . S
C2156 C2157 1.404 . S
C2156 C2159 1.539 . S
C2157 C2153 1.408 . S
C2157 C2156 1.404 . S
C2157 H2169 0.930 . S
C2158 C2154 1.524 . S
C2158 H2170 0.984 . S
C2158 H2171 0.961 1_556 S
C2158 H2172 0.961 . S
C2159 C2156 1.539 . S
C2159 H2173 0.958 . S
C2159 H2174 0.961 . S
C2159 H2175 0.970 . S
H2160 C2144 0.931 . S
H2161 C2149 0.929 . S
H2162 C2150 0.960 1_556 S
H2163 C2150 0.962 . S
H2164 C2150 0.960 . S
H2165 C2151 0.961 . S
H2166 C2151 0.961 1_556 S
H2167 C2151 0.961 . S
H2168 C2152 0.931 . S
H2169 C2157 0.930 . S
H2170 C2158 0.984 . S
H2171 C2158 0.961 1_554 S
H2172 C2158 0.961 . S
H2173 C2159 0.958 . S
H2174 C2159 0.961 . S
H2175 C2159 0.970 . S
C2176 C2177 1.391 . S
C2176 C2178 1.394 . S
C2176 H2192 0.931 . S
C2177 C2176 1.391 . S
C2177 C2181 1.376 . S
C2178 C2176 1.394 . S
C2178 C2179 1.369 . S
C2178 C2182 1.531 . S
C2179 C2178 1.369 . S
C2179 C2180 1.410 . S
C2179 C2187 1.503 1_554 S
C2180 C2179 1.410 . S
C2180 C2181 1.392 . S
C2180 C2183 1.511 . S
C2181 C2177 1.376 . S
C2181 C2180 1.392 . S
C2181 H2193 0.929 . S
C2182 C2178 1.531 . S
C2182 H2194 0.960 1_554 S
C2182 H2195 0.962 . S
C2182 H2196 0.960 . S
C2183 C2180 1.511 . S
C2183 H2197 0.961 . S
C2183 H2198 0.961 1_554 S
C2183 H2199 0.961 . S
C2184 C2185 1.370 . S
C2184 C2186 1.363 . S
C2184 H2200 0.931 . S
C2185 C2184 1.370 . S
C2185 C2189 1.408 . S
C2186 C2184 1.363 . S
C2186 C2187 1.370 . S
C2186 C2190 1.524 . S
C2187 C2179 1.503 1_556 S
C2187 C2186 1.370 . S
C2187 C2188 1.403 . S
C2188 C2187 1.403 . S
C2188 C2189 1.404 . S
C2188 C2191 1.539 . S
C2189 C2185 1.408 . S
C2189 C2188 1.404 . S
C2189 H2201 0.930 . S
C2190 C2186 1.524 . S
C2190 H2202 0.984 . S
C2190 H2203 0.961 1_556 S
C2190 H2204 0.961 . S
C2191 C2188 1.539 . S
C2191 H2205 0.958 . S
C2191 H2206 0.961 . S
C2191 H2207 0.970 . S
H2192 C2176 0.931 . S
H2193 C2181 0.929 . S
H2194 C2182 0.960 1_556 S
H2195 C2182 0.962 . S
H2196 C2182 0.960 . S
H2197 C2183 0.961 . S
H2198 C2183 0.961 1_556 S
H2199 C2183 0.961 . S
H2200 C2184 0.931 . S
H2201 C2189 0.930 . S
H2202 C2190 0.984 . S
H2203 C2190 0.961 1_554 S
H2204 C2190 0.961 . S
H2205 C2191 0.958 . S
H2206 C2191 0.961 . S
H2207 C2191 0.970 . S
C2208 C2209 1.391 . S
C2208 C2210 1.394 . S
C2208 H2224 0.931 . S
C2209 C2208 1.391 . S
C2209 C2213 1.376 . S
C2210 C2208 1.394 . S
C2210 C2211 1.369 . S
C2210 C2214 1.531 . S
C2211 C2210 1.369 . S
C2211 C2212 1.410 . S
C2211 C2219 1.503 1_556 S
C2212 C2211 1.410 . S
C2212 C2213 1.392 . S
C2212 C2215 1.511 . S
C2213 C2209 1.376 . S
C2213 C2212 1.392 . S
C2213 H2225 0.929 . S
C2214 C2210 1.531 . S
C2214 H2226 0.960 1_556 S
C2214 H2227 0.962 . S
C2214 H2228 0.960 . S
C2215 C2212 1.511 . S
C2215 H2229 0.961 . S
C2215 H2230 0.961 1_556 S
C2215 H2231 0.961 . S
C2216 C2217 1.370 . S
C2216 C2218 1.363 . S
C2216 H2232 0.931 . S
C2217 C2216 1.370 . S
C2217 C2221 1.408 . S
C2218 C2216 1.363 . S
C2218 C2219 1.370 . S
C2218 C2222 1.524 . S
C2219 C2211 1.503 1_554 S
C2219 C2218 1.370 . S
C2219 C2220 1.403 . S
C2220 C2219 1.403 . S
C2220 C2221 1.404 . S
C2220 C2223 1.539 . S
C2221 C2217 1.408 . S
C2221 C2220 1.404 . S
C2221 H2233 0.930 . S
C2222 C2218 1.524 . S
C2222 H2234 0.984 . S
C2222 H2235 0.961 1_554 S
C2222 H2236 0.961 . S
C2223 C2220 1.539 . S
C2223 H2237 0.958 . S
C2223 H2238 0.961 . S
C2223 H2239 0.970 . S
H2224 C2208 0.931 . S
H2225 C2213 0.929 . S
H2226 C2214 0.960 1_554 S
H2227 C2214 0.962 . S
H2228 C2214 0.960 . S
H2229 C2215 0.961 . S
H2230 C2215 0.961 1_554 S
H2231 C2215 0.961 . S
H2232 C2216 0.931 . S
H2233 C2221 0.930 . S
H2234 C2222 0.984 . S
H2235 C2222 0.961 1_556 S
H2236 C2222 0.961 . S
H2237 C2223 0.958 . S
H2238 C2223 0.961 . S
H2239 C2223 0.970 . S
C2240 C2241 1.391 . S
C2240 C2242 1.394 . S
C2240 H2256 0.931 . S
C2241 C2240 1.391 . S
C2241 C2245 1.376 . S
C2242 C2240 1.394 . S
C2242 C2243 1.369 . S
C2242 C2246 1.531 . S
C2243 C2242 1.369 . S
C2243 C2244 1.410 . S
C2243 C2251 1.503 1_556 S
C2244 C2243 1.410 . S
C2244 C2245 1.392 . S
C2244 C2247 1.511 . S
C2245 C2241 1.376 . S
C2245 C2244 1.392 . S
C2245 H2257 0.929 . S
C2246 C2242 1.531 . S
C2246 H2258 0.960 1_556 S
C2246 H2259 0.962 . S
C2246 H2260 0.960 . S
C2247 C2244 1.511 . S
C2247 H2261 0.961 . S
C2247 H2262 0.961 1_556 S
C2247 H2263 0.961 . S
C2248 C2249 1.370 . S
C2248 C2250 1.363 . S
C2248 H2264 0.931 . S
C2249 C2248 1.370 . S
C2249 C2253 1.408 . S
C2250 C2248 1.363 . S
C2250 C2251 1.370 . S
C2250 C2254 1.524 . S
C2251 C2243 1.503 1_554 S
C2251 C2250 1.370 . S
C2251 C2252 1.403 . S
C2252 C2251 1.403 . S
C2252 C2253 1.404 . S
C2252 C2255 1.539 . S
C2253 C2249 1.408 . S
C2253 C2252 1.404 . S
C2253 H2265 0.930 . S
C2254 C2250 1.524 . S
C2254 H2266 0.984 . S
C2254 H2267 0.961 1_554 S
C2254 H2268 0.961 . S
C2255 C2252 1.539 . S
C2255 H2269 0.958 . S
C2255 H2270 0.961 . S
C2255 H2271 0.970 . S
H2256 C2240 0.931 . S
H2257 C2245 0.929 . S
H2258 C2246 0.960 1_554 S
H2259 C2246 0.962 . S
H2260 C2246 0.960 . S
H2261 C2247 0.961 . S
H2262 C2247 0.961 1_554 S
H2263 C2247 0.961 . S
H2264 C2248 0.931 . S
H2265 C2253 0.930 . S
H2266 C2254 0.984 . S
H2267 C2254 0.961 1_556 S
H2268 C2254 0.961 . S
H2269 C2255 0.958 . S
H2270 C2255 0.961 . S
H2271 C2255 0.970 . S
C2272 C2273 1.391 . S
C2272 C2274 1.394 . S
C2272 H2288 0.931 . S
C2273 C2272 1.391 . S
C2273 C2277 1.376 . S
C2274 C2272 1.394 . S
C2274 C2275 1.369 . S
C2274 C2278 1.531 . S
C2275 C2274 1.369 . S
C2275 C2276 1.410 . S
C2275 C2283 1.503 . S
C2276 C2275 1.410 . S
C2276 C2277 1.392 . S
C2276 C2279 1.511 . S
C2277 C2273 1.376 . S
C2277 C2276 1.392 . S
C2277 H2289 0.929 . S
C2278 C2274 1.531 . S
C2278 H2290 0.960 . S
C2278 H2291 0.962 . S
C2278 H2292 0.960 . S
C2279 C2276 1.511 . S
C2279 H2293 0.961 . S
C2279 H2294 0.961 . S
C2279 H2295 0.961 . S
C2280 C2281 1.370 . S
C2280 C2282 1.363 . S
C2280 H2296 0.931 . S
C2281 C2280 1.370 . S
C2281 C2285 1.408 . S
C2282 C2280 1.363 . S
C2282 C2283 1.370 . S
C2282 C2286 1.524 . S
C2283 C2275 1.503 . S
C2283 C2282 1.370 . S
C2283 C2284 1.403 . S
C2284 C2283 1.403 . S
C2284 C2285 1.404 . S
C2284 C2287 1.539 . S
C2285 C2281 1.408 . S
C2285 C2284 1.404 . S
C2285 H2297 0.930 . S
C2286 C2282 1.524 . S
C2286 H2298 0.956 . S
C2286 H2299 0.961 . S
C2286 H2300 0.961 . S
C2287 C2284 1.539 . S
C2287 H2301 0.958 . S
C2287 H2302 0.961 . S
C2287 H2303 0.960 . S
H2288 C2272 0.931 . S
H2289 C2277 0.929 . S
H2290 C2278 0.960 . S
H2291 C2278 0.962 . S
H2292 C2278 0.960 . S
H2293 C2279 0.961 . S
H2294 C2279 0.961 . S
H2295 C2279 0.961 . S
H2296 C2280 0.931 . S
H2297 C2285 0.930 . S
H2298 C2286 0.956 . S
H2299 C2286 0.961 . S
H2300 C2286 0.961 . S
H2301 C2287 0.958 . S
H2302 C2287 0.961 . S
H2303 C2287 0.960 . S
C2304 C2305 1.391 . S
C2304 C2306 1.394 . S
C2304 H2320 0.931 . S
C2305 C2304 1.391 . S
C2305 C2309 1.376 . S
C2306 C2304 1.394 . S
C2306 C2307 1.369 . S
C2306 C2310 1.531 . S
C2307 C2306 1.369 . S
C2307 C2308 1.410 . S
C2307 C2315 1.503 . S
C2308 C2307 1.410 . S
C2308 C2309 1.392 . S
C2308 C2311 1.511 . S
C2309 C2305 1.376 . S
C2309 C2308 1.392 . S
C2309 H2321 0.929 . S
C2310 C2306 1.531 . S
C2310 H2322 0.960 . S
C2310 H2323 0.962 . S
C2310 H2324 0.960 . S
C2311 C2308 1.511 . S
C2311 H2325 0.961 . S
C2311 H2326 0.961 . S
C2311 H2327 0.961 . S
C2312 C2313 1.370 . S
C2312 C2314 1.363 . S
C2312 H2328 0.931 . S
C2313 C2312 1.370 . S
C2313 C2317 1.408 . S
C2314 C2312 1.363 . S
C2314 C2315 1.370 . S
C2314 C2318 1.524 . S
C2315 C2307 1.503 . S
C2315 C2314 1.370 . S
C2315 C2316 1.403 . S
C2316 C2315 1.403 . S
C2316 C2317 1.404 . S
C2316 C2319 1.539 . S
C2317 C2313 1.408 . S
C2317 C2316 1.404 . S
C2317 H2329 0.930 . S
C2318 C2314 1.524 . S
C2318 H2330 0.956 . S
C2318 H2331 0.961 . S
C2318 H2332 0.961 . S
C2319 C2316 1.539 . S
C2319 H2333 0.958 . S
C2319 H2334 0.961 . S
C2319 H2335 0.960 . S
H2320 C2304 0.931 . S
H2321 C2309 0.929 . S
H2322 C2310 0.960 . S
H2323 C2310 0.962 . S
H2324 C2310 0.960 . S
H2325 C2311 0.961 . S
H2326 C2311 0.961 . S
H2327 C2311 0.961 . S
H2328 C2312 0.931 . S
H2329 C2317 0.930 . S
H2330 C2318 0.956 . S
H2331 C2318 0.961 . S
H2332 C2318 0.961 . S
H2333 C2319 0.958 . S
H2334 C2319 0.961 . S
H2335 C2319 0.960 . S
C2336 C2337 1.391 . S
C2336 C2338 1.394 . S
C2336 H2352 0.931 . S
C2337 C2336 1.391 . S
C2337 C2341 1.376 . S
C2338 C2336 1.394 . S
C2338 C2339 1.369 . S
C2338 C2342 1.531 . S
C2339 C2338 1.369 . S
C2339 C2340 1.410 . S
C2339 C2347 1.503 . S
C2340 C2339 1.410 . S
C2340 C2341 1.392 . S
C2340 C2343 1.511 . S
C2341 C2337 1.376 . S
C2341 C2340 1.392 . S
C2341 H2353 0.929 . S
C2342 C2338 1.531 . S
C2342 H2354 0.960 . S
C2342 H2355 0.962 . S
C2342 H2356 0.960 . S
C2343 C2340 1.511 . S
C2343 H2357 0.961 . S
C2343 H2358 0.961 . S
C2343 H2359 0.961 . S
C2344 C2345 1.370 . S
C2344 C2346 1.363 . S
C2344 H2360 0.931 . S
C2345 C2344 1.370 . S
C2345 C2349 1.408 . S
C2346 C2344 1.363 . S
C2346 C2347 1.370 . S
C2346 C2350 1.524 . S
C2347 C2339 1.503 . S
C2347 C2346 1.370 . S
C2347 C2348 1.403 . S
C2348 C2347 1.403 . S
C2348 C2349 1.404 . S
C2348 C2351 1.539 . S
C2349 C2345 1.408 . S
C2349 C2348 1.404 . S
C2349 H2361 0.930 . S
C2350 C2346 1.524 . S
C2350 H2362 0.956 . S
C2350 H2363 0.961 . S
C2350 H2364 0.961 . S
C2351 C2348 1.539 . S
C2351 H2365 0.958 . S
C2351 H2366 0.961 . S
C2351 H2367 0.960 . S
H2352 C2336 0.931 . S
H2353 C2341 0.929 . S
H2354 C2342 0.960 . S
H2355 C2342 0.962 . S
H2356 C2342 0.960 . S
H2357 C2343 0.961 . S
H2358 C2343 0.961 . S
H2359 C2343 0.961 . S
H2360 C2344 0.931 . S
H2361 C2349 0.930 . S
H2362 C2350 0.956 . S
H2363 C2350 0.961 . S
H2364 C2350 0.961 . S
H2365 C2351 0.958 . S
H2366 C2351 0.961 . S
H2367 C2351 0.960 . S
C2368 C2369 1.391 . S
C2368 C2370 1.394 . S
C2368 H2384 0.931 . S
C2369 C2368 1.391 . S
C2369 C2373 1.376 . S
C2370 C2368 1.394 . S
C2370 C2371 1.369 . S
C2370 C2374 1.531 . S
C2371 C2370 1.369 . S
C2371 C2372 1.410 . S
C2371 C2379 1.503 . S
C2372 C2371 1.410 . S
C2372 C2373 1.392 . S
C2372 C2375 1.511 . S
C2373 C2369 1.376 . S
C2373 C2372 1.392 . S
C2373 H2385 0.929 . S
C2374 C2370 1.531 . S
C2374 H2386 0.960 . S
C2374 H2387 0.962 . S
C2374 H2388 0.960 . S
C2375 C2372 1.511 . S
C2375 H2389 0.961 . S
C2375 H2390 0.961 . S
C2375 H2391 0.961 . S
C2376 C2377 1.370 . S
C2376 C2378 1.363 . S
C2376 H2392 0.931 . S
C2377 C2376 1.370 . S
C2377 C2381 1.408 . S
C2378 C2376 1.363 . S
C2378 C2379 1.370 . S
C2378 C2382 1.524 . S
C2379 C2371 1.503 . S
C2379 C2378 1.370 . S
C2379 C2380 1.403 . S
C2380 C2379 1.403 . S
C2380 C2381 1.404 . S
C2380 C2383 1.539 . S
C2381 C2377 1.408 . S
C2381 C2380 1.404 . S
C2381 H2393 0.930 . S
C2382 C2378 1.524 . S
C2382 H2394 0.956 . S
C2382 H2395 0.961 . S
C2382 H2396 0.961 . S
C2383 C2380 1.539 . S
C2383 H2397 0.958 . S
C2383 H2398 0.961 . S
C2383 H2399 0.960 . S
H2384 C2368 0.931 . S
H2385 C2373 0.929 . S
H2386 C2374 0.960 . S
H2387 C2374 0.962 . S
H2388 C2374 0.960 . S
H2389 C2375 0.961 . S
H2390 C2375 0.961 . S
H2391 C2375 0.961 . S
H2392 C2376 0.931 . S
H2393 C2381 0.930 . S
H2394 C2382 0.956 . S
H2395 C2382 0.961 . S
H2396 C2382 0.961 . S
H2397 C2383 0.958 . S
H2398 C2383 0.961 . S
H2399 C2383 0.960 . S
C2400 C2401 1.391 . S
C2400 C2402 1.394 . S
C2400 H2416 0.931 . S
C2401 C2400 1.391 . S
C2401 C2405 1.376 . S
C2402 C2400 1.394 . S
C2402 C2403 1.369 . S
C2402 C2406 1.531 . S
C2403 C2402 1.369 . S
C2403 C2404 1.410 . S
C2403 C2411 1.503 . S
C2404 C2403 1.410 . S
C2404 C2405 1.392 . S
C2404 C2407 1.511 . S
C2405 C2401 1.376 . S
C2405 C2404 1.392 . S
C2405 H2417 0.929 . S
C2406 C2402 1.531 . S
C2406 H2418 0.960 . S
C2406 H2419 0.962 . S
C2406 H2420 0.960 . S
C2407 C2404 1.511 . S
C2407 H2421 0.961 . S
C2407 H2422 0.961 . S
C2407 H2423 0.961 . S
C2408 C2409 1.370 . S
C2408 C2410 1.363 . S
C2408 H2424 0.931 . S
C2409 C2408 1.370 . S
C2409 C2413 1.408 . S
C2410 C2408 1.363 . S
C2410 C2411 1.370 . S
C2410 C2414 1.524 . S
C2411 C2403 1.503 . S
C2411 C2410 1.370 . S
C2411 C2412 1.403 . S
C2412 C2411 1.403 . S
C2412 C2413 1.404 . S
C2412 C2415 1.539 . S
C2413 C2409 1.408 . S
C2413 C2412 1.404 . S
C2413 H2425 0.930 . S
C2414 C2410 1.524 . S
C2414 H2426 0.956 . S
C2414 H2427 0.961 . S
C2414 H2428 0.961 . S
C2415 C2412 1.539 . S
C2415 H2429 0.958 . S
C2415 H2430 0.961 . S
C2415 H2431 0.960 . S
H2416 C2400 0.931 . S
H2417 C2405 0.929 . S
H2418 C2406 0.960 . S
H2419 C2406 0.962 . S
H2420 C2406 0.960 . S
H2421 C2407 0.961 . S
H2422 C2407 0.961 . S
H2423 C2407 0.961 . S
H2424 C2408 0.931 . S
H2425 C2413 0.930 . S
H2426 C2414 0.956 . S
H2427 C2414 0.961 . S
H2428 C2414 0.961 . S
H2429 C2415 0.958 . S
H2430 C2415 0.961 . S
H2431 C2415 0.960 . S
C2432 C2433 1.391 . S
C2432 C2434 1.394 . S
C2432 H2448 0.931 . S
C2433 C2432 1.391 . S
C2433 C2437 1.376 . S
C2434 C2432 1.394 . S
C2434 C2435 1.369 . S
C2434 C2438 1.531 . S
C2435 C2434 1.369 . S
C2435 C2436 1.410 . S
C2435 C2443 1.503 . S
C2436 C2435 1.410 . S
C2436 C2437 1.392 . S
C2436 C2439 1.511 . S
C2437 C2433 1.376 . S
C2437 C2436 1.392 . S
C2437 H2449 0.929 . S
C2438 C2434 1.531 . S
C2438 H2450 0.960 . S
C2438 H2451 0.962 . S
C2438 H2452 0.960 . S
C2439 C2436 1.511 . S
C2439 H2453 0.961 . S
C2439 H2454 0.961 . S
C2439 H2455 0.961 . S
C2440 C2441 1.370 . S
C2440 C2442 1.363 . S
C2440 H2456 0.931 . S
C2441 C2440 1.370 . S
C2441 C2445 1.408 . S
C2442 C2440 1.363 . S
C2442 C2443 1.370 . S
C2442 C2446 1.524 . S
C2443 C2435 1.503 . S
C2443 C2442 1.370 . S
C2443 C2444 1.403 . S
C2444 C2443 1.403 . S
C2444 C2445 1.404 . S
C2444 C2447 1.539 . S
C2445 C2441 1.408 . S
C2445 C2444 1.404 . S
C2445 H2457 0.930 . S
C2446 C2442 1.524 . S
C2446 H2458 0.956 . S
C2446 H2459 0.961 . S
C2446 H2460 0.961 . S
C2447 C2444 1.539 . S
C2447 H2461 0.958 . S
C2447 H2462 0.961 . S
C2447 H2463 0.960 . S
H2448 C2432 0.931 . S
H2449 C2437 0.929 . S
H2450 C2438 0.960 . S
H2451 C2438 0.962 . S
H2452 C2438 0.960 . S
H2453 C2439 0.961 . S
H2454 C2439 0.961 . S
H2455 C2439 0.961 . S
H2456 C2440 0.931 . S
H2457 C2445 0.930 . S
H2458 C2446 0.956 . S
H2459 C2446 0.961 . S
H2460 C2446 0.961 . S
H2461 C2447 0.958 . S
H2462 C2447 0.961 . S
H2463 C2447 0.960 . S
C2464 C2465 1.391 . S
C2464 C2466 1.394 . S
C2464 H2480 0.931 . S
C2465 C2464 1.391 . S
C2465 C2469 1.376 . S
C2466 C2464 1.394 . S
C2466 C2467 1.369 . S
C2466 C2470 1.531 . S
C2467 C2466 1.369 . S
C2467 C2468 1.410 . S
C2467 C2475 1.503 . S
C2468 C2467 1.410 . S
C2468 C2469 1.392 . S
C2468 C2471 1.511 . S
C2469 C2465 1.376 . S
C2469 C2468 1.392 . S
C2469 H2481 0.929 . S
C2470 C2466 1.531 . S
C2470 H2482 0.960 . S
C2470 H2483 0.962 . S
C2470 H2484 0.960 . S
C2471 C2468 1.511 . S
C2471 H2485 0.961 . S
C2471 H2486 0.961 . S
C2471 H2487 0.961 . S
C2472 C2473 1.370 . S
C2472 C2474 1.363 . S
C2472 H2488 0.931 . S
C2473 C2472 1.370 . S
C2473 C2477 1.408 . S
C2474 C2472 1.363 . S
C2474 C2475 1.370 . S
C2474 C2478 1.524 . S
C2475 C2467 1.503 . S
C2475 C2474 1.370 . S
C2475 C2476 1.403 . S
C2476 C2475 1.403 . S
C2476 C2477 1.404 . S
C2476 C2479 1.539 . S
C2477 C2473 1.408 . S
C2477 C2476 1.404 . S
C2477 H2489 0.930 . S
C2478 C2474 1.524 . S
C2478 H2490 0.956 . S
C2478 H2491 0.961 . S
C2478 H2492 0.961 . S
C2479 C2476 1.539 . S
C2479 H2493 0.958 . S
C2479 H2494 0.961 . S
C2479 H2495 0.960 . S
H2480 C2464 0.931 . S
H2481 C2469 0.929 . S
H2482 C2470 0.960 . S
H2483 C2470 0.962 . S
H2484 C2470 0.960 . S
H2485 C2471 0.961 . S
H2486 C2471 0.961 . S
H2487 C2471 0.961 . S
H2488 C2472 0.931 . S
H2489 C2477 0.930 . S
H2490 C2478 0.956 . S
H2491 C2478 0.961 . S
H2492 C2478 0.961 . S
H2493 C2479 0.958 . S
H2494 C2479 0.961 . S
H2495 C2479 0.960 . S
C2496 C2497 1.391 . S
C2496 C2498 1.394 . S
C2496 H2512 0.931 . S
C2497 C2496 1.391 . S
C2497 C2501 1.376 . S
C2498 C2496 1.394 . S
C2498 C2499 1.369 . S
C2498 C2502 1.531 . S
C2499 C2498 1.369 . S
C2499 C2500 1.410 . S
C2499 C2507 1.503 . S
C2500 C2499 1.410 . S
C2500 C2501 1.392 . S
C2500 C2503 1.511 . S
C2501 C2497 1.376 . S
C2501 C2500 1.392 . S
C2501 H2513 0.929 . S
C2502 C2498 1.531 . S
C2502 H2514 0.960 . S
C2502 H2515 0.962 . S
C2502 H2516 0.960 . S
C2503 C2500 1.511 . S
C2503 H2517 0.961 . S
C2503 H2518 0.961 . S
C2503 H2519 0.961 . S
C2504 C2505 1.370 . S
C2504 C2506 1.363 . S
C2504 H2520 0.931 . S
C2505 C2504 1.370 . S
C2505 C2509 1.408 . S
C2506 C2504 1.363 . S
C2506 C2507 1.370 . S
C2506 C2510 1.524 . S
C2507 C2499 1.503 . S
C2507 C2506 1.370 . S
C2507 C2508 1.403 . S
C2508 C2507 1.403 . S
C2508 C2509 1.404 . S
C2508 C2511 1.539 . S
C2509 C2505 1.408 . S
C2509 C2508 1.404 . S
C2509 H2521 0.930 . S
C2510 C2506 1.524 . S
C2510 H2522 0.956 . S
C2510 H2523 0.961 . S
C2510 H2524 0.961 . S
C2511 C2508 1.539 . S
C2511 H2525 0.958 . S
C2511 H2526 0.961 . S
C2511 H2527 0.960 . S
H2512 C2496 0.931 . S
H2513 C2501 0.929 . S
H2514 C2502 0.960 . S
H2515 C2502 0.962 . S
H2516 C2502 0.960 . S
H2517 C2503 0.961 . S
H2518 C2503 0.961 . S
H2519 C2503 0.961 . S
H2520 C2504 0.931 . S
H2521 C2509 0.930 . S
H2522 C2510 0.956 . S
H2523 C2510 0.961 . S
H2524 C2510 0.961 . S
H2525 C2511 0.958 . S
H2526 C2511 0.961 . S
H2527 C2511 0.960 . S
C2528 C2529 1.391 . S
C2528 C2530 1.394 . S
C2528 H2544 0.931 . S
C2529 C2528 1.391 . S
C2529 C2533 1.376 . S
C2530 C2528 1.394 . S
C2530 C2531 1.369 . S
C2530 C2534 1.531 . S
C2531 C2530 1.369 . S
C2531 C2532 1.410 . S
C2531 C2539 1.503 . S
C2532 C2531 1.410 . S
C2532 C2533 1.392 . S
C2532 C2535 1.511 . S
C2533 C2529 1.376 . S
C2533 C2532 1.392 . S
C2533 H2545 0.929 . S
C2534 C2530 1.531 . S
C2534 H2546 0.960 . S
C2534 H2547 0.962 . S
C2534 H2548 0.960 . S
C2535 C2532 1.511 . S
C2535 H2549 0.961 . S
C2535 H2550 0.961 . S
C2535 H2551 0.961 . S
C2536 C2537 1.370 . S
C2536 C2538 1.363 . S
C2536 H2552 0.931 . S
C2537 C2536 1.370 . S
C2537 C2541 1.408 . S
C2538 C2536 1.363 . S
C2538 C2539 1.370 . S
C2538 C2542 1.524 . S
C2539 C2531 1.503 . S
C2539 C2538 1.370 . S
C2539 C2540 1.403 . S
C2540 C2539 1.403 . S
C2540 C2541 1.404 . S
C2540 C2543 1.539 . S
C2541 C2537 1.408 . S
C2541 C2540 1.404 . S
C2541 H2553 0.930 . S
C2542 C2538 1.524 . S
C2542 H2554 0.956 . S
C2542 H2555 0.961 . S
C2542 H2556 0.961 . S
C2543 C2540 1.539 . S
C2543 H2557 0.958 . S
C2543 H2558 0.961 . S
C2543 H2559 0.960 . S
H2544 C2528 0.931 . S
H2545 C2533 0.929 . S
H2546 C2534 0.960 . S
H2547 C2534 0.962 . S
H2548 C2534 0.960 . S
H2549 C2535 0.961 . S
H2550 C2535 0.961 . S
H2551 C2535 0.961 . S
H2552 C2536 0.931 . S
H2553 C2541 0.930 . S
H2554 C2542 0.956 . S
H2555 C2542 0.961 . S
H2556 C2542 0.961 . S
H2557 C2543 0.958 . S
H2558 C2543 0.961 . S
H2559 C2543 0.960 . S
C2560 C2561 1.391 . S
C2560 C2562 1.394 . S
C2560 H2576 0.931 . S
C2561 C2560 1.391 . S
C2561 C2565 1.376 . S
C2562 C2560 1.394 . S
C2562 C2563 1.369 . S
C2562 C2566 1.531 . S
C2563 C2562 1.369 . S
C2563 C2564 1.410 . S
C2563 C2571 1.503 . S
C2564 C2563 1.410 . S
C2564 C2565 1.392 . S
C2564 C2567 1.511 . S
C2565 C2561 1.376 . S
C2565 C2564 1.392 . S
C2565 H2577 0.929 . S
C2566 C2562 1.531 . S
C2566 H2578 0.960 . S
C2566 H2579 0.962 . S
C2566 H2580 0.960 . S
C2567 C2564 1.511 . S
C2567 H2581 0.961 . S
C2567 H2582 0.961 . S
C2567 H2583 0.961 . S
C2568 C2569 1.370 . S
C2568 C2570 1.363 . S
C2568 H2584 0.931 . S
C2569 C2568 1.370 . S
C2569 C2573 1.408 . S
C2570 C2568 1.363 . S
C2570 C2571 1.370 . S
C2570 C2574 1.524 . S
C2571 C2563 1.503 . S
C2571 C2570 1.370 . S
C2571 C2572 1.403 . S
C2572 C2571 1.403 . S
C2572 C2573 1.404 . S
C2572 C2575 1.539 . S
C2573 C2569 1.408 . S
C2573 C2572 1.404 . S
C2573 H2585 0.930 . S
C2574 C2570 1.524 . S
C2574 H2586 0.956 . S
C2574 H2587 0.961 . S
C2574 H2588 0.961 . S
C2575 C2572 1.539 . S
C2575 H2589 0.958 . S
C2575 H2590 0.961 . S
C2575 H2591 0.960 . S
H2576 C2560 0.931 . S
H2577 C2565 0.929 . S
H2578 C2566 0.960 . S
H2579 C2566 0.962 . S
H2580 C2566 0.960 . S
H2581 C2567 0.961 . S
H2582 C2567 0.961 . S
H2583 C2567 0.961 . S
H2584 C2568 0.931 . S
H2585 C2573 0.930 . S
H2586 C2574 0.956 . S
H2587 C2574 0.961 . S
H2588 C2574 0.961 . S
H2589 C2575 0.958 . S
H2590 C2575 0.961 . S
H2591 C2575 0.960 . S
C2592 C2593 1.391 . S
C2592 C2594 1.394 . S
C2592 H2608 0.931 . S
C2593 C2592 1.391 . S
C2593 C2597 1.376 . S
C2594 C2592 1.394 . S
C2594 C2595 1.369 . S
C2594 C2598 1.531 . S
C2595 C2594 1.369 . S
C2595 C2596 1.410 . S
C2595 C2603 1.503 . S
C2596 C2595 1.410 . S
C2596 C2597 1.392 . S
C2596 C2599 1.511 . S
C2597 C2593 1.376 . S
C2597 C2596 1.392 . S
C2597 H2609 0.929 . S
C2598 C2594 1.531 . S
C2598 H2610 0.960 . S
C2598 H2611 0.962 . S
C2598 H2612 0.960 . S
C2599 C2596 1.511 . S
C2599 H2613 0.961 . S
C2599 H2614 0.961 . S
C2599 H2615 0.961 . S
C2600 C2601 1.370 . S
C2600 C2602 1.363 . S
C2600 H2616 0.931 . S
C2601 C2600 1.370 . S
C2601 C2605 1.408 . S
C2602 C2600 1.363 . S
C2602 C2603 1.370 . S
C2602 C2606 1.524 . S
C2603 C2595 1.503 . S
C2603 C2602 1.370 . S
C2603 C2604 1.403 . S
C2604 C2603 1.403 . S
C2604 C2605 1.404 . S
C2604 C2607 1.539 . S
C2605 C2601 1.408 . S
C2605 C2604 1.404 . S
C2605 H2617 0.930 . S
C2606 C2602 1.524 . S
C2606 H2618 0.956 . S
C2606 H2619 0.961 . S
C2606 H2620 0.961 . S
C2607 C2604 1.539 . S
C2607 H2621 0.958 . S
C2607 H2622 0.961 . S
C2607 H2623 0.960 . S
H2608 C2592 0.931 . S
H2609 C2597 0.929 . S
H2610 C2598 0.960 . S
H2611 C2598 0.962 . S
H2612 C2598 0.960 . S
H2613 C2599 0.961 . S
H2614 C2599 0.961 . S
H2615 C2599 0.961 . S
H2616 C2600 0.931 . S
H2617 C2605 0.930 . S
H2618 C2606 0.956 . S
H2619 C2606 0.961 . S
H2620 C2606 0.961 . S
H2621 C2607 0.958 . S
H2622 C2607 0.961 . S
H2623 C2607 0.960 . S
C2624 C2625 1.391 . S
C2624 C2626 1.394 . S
C2624 H2640 0.931 . S
C2625 C2624 1.391 . S
C2625 C2629 1.376 . S
C2626 C2624 1.394 . S
C2626 C2627 1.369 . S
C2626 C2630 1.531 . S
C2627 C2626 1.369 . S
C2627 C2628 1.410 . S
C2627 C2635 1.503 . S
C2628 C2627 1.410 . S
C2628 C2629 1.392 . S
C2628 C2631 1.511 . S
C2629 C2625 1.376 . S
C2629 C2628 1.392 . S
C2629 H2641 0.929 . S
C2630 C2626 1.531 . S
C2630 H2642 0.960 . S
C2630 H2643 0.962 . S
C2630 H2644 0.960 . S
C2631 C2628 1.511 . S
C2631 H2645 0.961 . S
C2631 H2646 0.961 . S
C2631 H2647 0.961 . S
C2632 C2633 1.370 . S
C2632 C2634 1.363 . S
C2632 H2648 0.931 . S
C2633 C2632 1.370 . S
C2633 C2637 1.408 . S
C2634 C2632 1.363 . S
C2634 C2635 1.370 . S
C2634 C2638 1.524 . S
C2635 C2627 1.503 . S
C2635 C2634 1.370 . S
C2635 C2636 1.403 . S
C2636 C2635 1.403 . S
C2636 C2637 1.404 . S
C2636 C2639 1.539 . S
C2637 C2633 1.408 . S
C2637 C2636 1.404 . S
C2637 H2649 0.930 . S
C2638 C2634 1.524 . S
C2638 H2650 0.956 . S
C2638 H2651 0.961 . S
C2638 H2652 0.961 . S
C2639 C2636 1.539 . S
C2639 H2653 0.958 . S
C2639 H2654 0.961 . S
C2639 H2655 0.960 . S
H2640 C2624 0.931 . S
H2641 C2629 0.929 . S
H2642 C2630 0.960 . S
H2643 C2630 0.962 . S
H2644 C2630 0.960 . S
H2645 C2631 0.961 . S
H2646 C2631 0.961 . S
H2647 C2631 0.961 . S
H2648 C2632 0.931 . S
H2649 C2637 0.930 . S
H2650 C2638 0.956 . S
H2651 C2638 0.961 . S
H2652 C2638 0.961 . S
H2653 C2639 0.958 . S
H2654 C2639 0.961 . S
H2655 C2639 0.960 . S
C2656 C2657 1.391 . S
C2656 C2658 1.394 . S
C2656 H2672 0.931 . S
C2657 C2656 1.391 . S
C2657 C2661 1.376 . S
C2658 C2656 1.394 . S
C2658 C2659 1.369 . S
C2658 C2662 1.531 . S
C2659 C2658 1.369 . S
C2659 C2660 1.410 . S
C2659 C2667 1.503 . S
C2660 C2659 1.410 . S
C2660 C2661 1.392 . S
C2660 C2663 1.511 . S
C2661 C2657 1.376 . S
C2661 C2660 1.392 . S
C2661 H2673 0.929 . S
C2662 C2658 1.531 . S
C2662 H2674 0.960 . S
C2662 H2675 0.962 . S
C2662 H2676 0.960 . S
C2663 C2660 1.511 . S
C2663 H2677 0.961 . S
C2663 H2678 0.961 . S
C2663 H2679 0.961 . S
C2664 C2665 1.370 . S
C2664 C2666 1.363 . S
C2664 H2680 0.931 . S
C2665 C2664 1.370 . S
C2665 C2669 1.408 . S
C2666 C2664 1.363 . S
C2666 C2667 1.370 . S
C2666 C2670 1.524 . S
C2667 C2659 1.503 . S
C2667 C2666 1.370 . S
C2667 C2668 1.403 . S
C2668 C2667 1.403 . S
C2668 C2669 1.404 . S
C2668 C2671 1.539 . S
C2669 C2665 1.408 . S
C2669 C2668 1.404 . S
C2669 H2681 0.930 . S
C2670 C2666 1.524 . S
C2670 H2682 0.956 . S
C2670 H2683 0.961 . S
C2670 H2684 0.961 . S
C2671 C2668 1.539 . S
C2671 H2685 0.958 . S
C2671 H2686 0.961 . S
C2671 H2687 0.960 . S
H2672 C2656 0.931 . S
H2673 C2661 0.929 . S
H2674 C2662 0.960 . S
H2675 C2662 0.962 . S
H2676 C2662 0.960 . S
H2677 C2663 0.961 . S
H2678 C2663 0.961 . S
H2679 C2663 0.961 . S
H2680 C2664 0.931 . S
H2681 C2669 0.930 . S
H2682 C2670 0.956 . S
H2683 C2670 0.961 . S
H2684 C2670 0.961 . S
H2685 C2671 0.958 . S
H2686 C2671 0.961 . S
H2687 C2671 0.960 . S
C2688 C2689 1.391 . S
C2688 C2690 1.394 . S
C2688 H2704 0.931 . S
C2689 C2688 1.391 . S
C2689 C2693 1.376 . S
C2690 C2688 1.394 . S
C2690 C2691 1.369 . S
C2690 C2694 1.531 . S
C2691 C2690 1.369 . S
C2691 C2692 1.410 . S
C2691 C2699 1.503 . S
C2692 C2691 1.410 . S
C2692 C2693 1.392 . S
C2692 C2695 1.511 . S
C2693 C2689 1.376 . S
C2693 C2692 1.392 . S
C2693 H2705 0.929 . S
C2694 C2690 1.531 . S
C2694 H2706 0.960 . S
C2694 H2707 0.962 . S
C2694 H2708 0.960 . S
C2695 C2692 1.511 . S
C2695 H2709 0.961 . S
C2695 H2710 0.961 . S
C2695 H2711 0.961 . S
C2696 C2697 1.370 . S
C2696 C2698 1.363 . S
C2696 H2712 0.931 . S
C2697 C2696 1.370 . S
C2697 C2701 1.408 . S
C2698 C2696 1.363 . S
C2698 C2699 1.370 . S
C2698 C2702 1.524 . S
C2699 C2691 1.503 . S
C2699 C2698 1.370 . S
C2699 C2700 1.403 . S
C2700 C2699 1.403 . S
C2700 C2701 1.404 . S
C2700 C2703 1.539 . S
C2701 C2697 1.408 . S
C2701 C2700 1.404 . S
C2701 H2713 0.930 . S
C2702 C2698 1.524 . S
C2702 H2714 0.956 . S
C2702 H2715 0.961 . S
C2702 H2716 0.961 . S
C2703 C2700 1.539 . S
C2703 H2717 0.958 . S
C2703 H2718 0.961 . S
C2703 H2719 0.960 . S
H2704 C2688 0.931 . S
H2705 C2693 0.929 . S
H2706 C2694 0.960 . S
H2707 C2694 0.962 . S
H2708 C2694 0.960 . S
H2709 C2695 0.961 . S
H2710 C2695 0.961 . S
H2711 C2695 0.961 . S
H2712 C2696 0.931 . S
H2713 C2701 0.930 . S
H2714 C2702 0.956 . S
H2715 C2702 0.961 . S
H2716 C2702 0.961 . S
H2717 C2703 0.958 . S
H2718 C2703 0.961 . S
H2719 C2703 0.960 . S
C2720 C2721 1.391 . S
C2720 C2722 1.394 . S
C2720 H2736 0.931 . S
C2721 C2720 1.391 . S
C2721 C2725 1.376 . S
C2722 C2720 1.394 . S
C2722 C2723 1.369 . S
C2722 C2726 1.531 . S
C2723 C2722 1.369 . S
C2723 C2724 1.410 . S
C2723 C2731 1.503 . S
C2724 C2723 1.410 . S
C2724 C2725 1.392 . S
C2724 C2727 1.511 . S
C2725 C2721 1.376 . S
C2725 C2724 1.392 . S
C2725 H2737 0.929 . S
C2726 C2722 1.531 . S
C2726 H2738 0.960 . S
C2726 H2739 0.962 . S
C2726 H2740 0.960 . S
C2727 C2724 1.511 . S
C2727 H2741 0.961 . S
C2727 H2742 0.961 . S
C2727 H2743 0.961 . S
C2728 C2729 1.370 . S
C2728 C2730 1.363 . S
C2728 H2744 0.931 . S
C2729 C2728 1.370 . S
C2729 C2733 1.408 . S
C2730 C2728 1.363 . S
C2730 C2731 1.370 . S
C2730 C2734 1.524 . S
C2731 C2723 1.503 . S
C2731 C2730 1.370 . S
C2731 C2732 1.403 . S
C2732 C2731 1.403 . S
C2732 C2733 1.404 . S
C2732 C2735 1.539 . S
C2733 C2729 1.408 . S
C2733 C2732 1.404 . S
C2733 H2745 0.930 . S
C2734 C2730 1.524 . S
C2734 H2746 0.956 . S
C2734 H2747 0.961 . S
C2734 H2748 0.961 . S
C2735 C2732 1.539 . S
C2735 H2749 0.958 . S
C2735 H2750 0.961 . S
C2735 H2751 0.960 . S
H2736 C2720 0.931 . S
H2737 C2725 0.929 . S
H2738 C2726 0.960 . S
H2739 C2726 0.962 . S
H2740 C2726 0.960 . S
H2741 C2727 0.961 . S
H2742 C2727 0.961 . S
H2743 C2727 0.961 . S
H2744 C2728 0.931 . S
H2745 C2733 0.930 . S
H2746 C2734 0.956 . S
H2747 C2734 0.961 . S
H2748 C2734 0.961 . S
H2749 C2735 0.958 . S
H2750 C2735 0.961 . S
H2751 C2735 0.960 . S
C2752 C2753 1.391 . S
C2752 C2754 1.394 . S
C2752 H2768 0.931 . S
C2753 C2752 1.391 . S
C2753 C2757 1.376 . S
C2754 C2752 1.394 . S
C2754 C2755 1.369 . S
C2754 C2758 1.531 . S
C2755 C2754 1.369 . S
C2755 C2756 1.410 . S
C2755 C2763 1.503 . S
C2756 C2755 1.410 . S
C2756 C2757 1.392 . S
C2756 C2759 1.511 . S
C2757 C2753 1.376 . S
C2757 C2756 1.392 . S
C2757 H2769 0.929 . S
C2758 C2754 1.531 . S
C2758 H2770 0.960 . S
C2758 H2771 0.962 . S
C2758 H2772 0.960 . S
C2759 C2756 1.511 . S
C2759 H2773 0.961 . S
C2759 H2774 0.961 . S
C2759 H2775 0.961 . S
C2760 C2761 1.370 . S
C2760 C2762 1.363 . S
C2760 H2776 0.931 . S
C2761 C2760 1.370 . S
C2761 C2765 1.408 . S
C2762 C2760 1.363 . S
C2762 C2763 1.370 . S
C2762 C2766 1.524 . S
C2763 C2755 1.503 . S
C2763 C2762 1.370 . S
C2763 C2764 1.403 . S
C2764 C2763 1.403 . S
C2764 C2765 1.404 . S
C2764 C2767 1.539 . S
C2765 C2761 1.408 . S
C2765 C2764 1.404 . S
C2765 H2777 0.930 . S
C2766 C2762 1.524 . S
C2766 H2778 0.956 . S
C2766 H2779 0.961 . S
C2766 H2780 0.961 . S
C2767 C2764 1.539 . S
C2767 H2781 0.958 . S
C2767 H2782 0.961 . S
C2767 H2783 0.960 . S
H2768 C2752 0.931 . S
H2769 C2757 0.929 . S
H2770 C2758 0.960 . S
H2771 C2758 0.962 . S
H2772 C2758 0.960 . S
H2773 C2759 0.961 . S
H2774 C2759 0.961 . S
H2775 C2759 0.961 . S
H2776 C2760 0.931 . S
H2777 C2765 0.930 . S
H2778 C2766 0.956 . S
H2779 C2766 0.961 . S
H2780 C2766 0.961 . S
H2781 C2767 0.958 . S
H2782 C2767 0.961 . S
H2783 C2767 0.960 . S
C737 N347 1.935 . S
C745 N2 1.950 . S
C769 N25 1.928 . S
C777 N278 1.943 . S
C801 N48 1.967 . S
C809 N301 1.963 . S
C833 N324 1.964 . S
C841 N71 1.958 . S
C865 N94 1.936 . S
C873 N209 1.946 . S
C897 N117 1.962 . S
C905 N232 1.961 . S
C929 N255 1.929 . S
C937 N140 1.947 . S
C961 N186 1.962 . S
C969 N163 1.961 . S
C993 N370 1.916 . S
C1001 N715 1.939 . S
C1025 N393 1.923 . S
C1033 N646 1.941 . S
C1057 N416 1.939 . S
C1065 N669 1.951 . S
C1089 N692 1.978 . S
C1097 N439 1.966 . S
C1121 N462 1.963 . S
C1129 N577 1.961 . S
C1153 N485 1.972 . S
C1161 N600 1.961 . S
C1185 N623 1.953 . S
C1193 N508 1.957 . S
C1217 N531 1.981 . S
C1225 N554 1.967 . S
C1249 N288 2.019 . S
C1257 N12 2.034 . S
C1281 N35 2.035 . S
C1289 N311 2.041 . S
C1313 N334 2.048 . S
C1321 N58 2.044 . S
C1345 N81 2.020 . S
C1353 N357 2.034 . S
C1377 N104 2.055 . S
C1385 N196 2.048 . S
C1409 N219 2.014 . S
C1417 N127 2.031 . S
C1441 N242 2.037 . S
C1449 N150 2.042 . S
C1473 N265 2.037 . S
C1481 N173 2.039 . S
C1505 N380 2.055 . S
C1513 N656 2.048 . S
C1537 N679 2.041 . S
C1545 N403 2.041 . S
C1569 N426 2.052 . S
C1577 N702 2.048 . S
C1601 N449 2.018 . S
C1609 N725 2.033 . S
C1633 N564 2.021 . S
C1641 N472 2.035 . S
C1665 N495 2.014 . S
C1673 N587 2.032 . S
C1697 N518 2.018 . S
C1705 N610 2.032 . S
C1729 N541 2.049 . S
C1737 N633 2.046 . S
C1761 C7 1.580 . S
C1769 C237 1.582 . S
C1793 C260 1.587 . S
C1801 C30 1.584 . S
C1825 C53 1.568 . S
C1833 C191 1.576 . S
C1857 C214 1.567 . S
C1865 C76 1.577 . S
C1889 C329 1.564 . S
C1897 C99 1.574 . S
C1921 C352 1.561 . S
C1929 C122 1.574 . S
C1953 C283 1.582 . S
C1961 C145 1.583 . S
C1985 C168 1.568 . S
C1993 C306 1.575 . S
C2017 C605 1.561 . S
C2025 C375 1.573 . S
C2049 C398 1.574 . S
C2057 C628 1.578 . S
C2081 C559 1.586 . S
C2089 C421 1.585 . S
C2113 C582 1.564 . S
C2121 C444 1.576 . S
C2145 C467 1.582 . S
C2153 C697 1.583 . S
C2177 C490 1.591 . S
C2185 C720 1.586 . S
C2209 C651 1.577 . S
C2217 C513 1.581 . S
C2241 C674 1.561 . S
C2249 C536 1.574 . S
C2273 C545 1.555 . S
C2281 C16 1.531 . S
C2305 C476 1.540 . S
C2313 C39 1.529 . S
C2337 C499 1.541 . S
C2345 C62 1.547 . S
C2369 C522 1.522 . S
C2377 C85 1.548 . S
C2401 C407 1.513 . S
C2409 C108 1.538 . S
C2433 C131 1.541 . S
C2441 C430 1.546 . S
C2465 C154 1.512 . S
C2473 C453 1.545 . S
C2497 C177 1.555 . S
C2505 C384 1.541 . S
C2529 C200 1.524 . S
C2537 C729 1.530 . S
C2561 C660 1.513 . S
C2569 C223 1.536 . S
C2593 C246 1.548 . S
C2601 C683 1.547 . S
C2625 C269 1.531 . S
C2633 C706 1.529 . S
C2657 C591 1.522 . S
C2665 C292 1.547 . S
C2689 C614 1.558 . S
C2697 C315 1.541 . S
C2721 C338 1.522 . S
C2729 C637 1.531 . S
C2753 C361 1.517 . S
C2761 C568 1.532 . S
